# Generated by pormake.
# Topology anh, (6,3)-cn, num edge types: 1
# Building blocks:
#     Node 0, Type 0, BuildingBlock: NUHQIS_clean_sbu_0, # of connection points: 6
#     Node 1, Type 0, BuildingBlock: NUHQIS_clean_sbu_0, # of connection points: 6
#     Node 2, Type 0, BuildingBlock: NUHQIS_clean_sbu_0, # of connection points: 6
#     Node 3, Type 1, BuildingBlock: BETDAH_clean_linker_0, # of connection points: 3
#     Node 4, Type 1, BuildingBlock: BETDAH_clean_linker_0, # of connection points: 3
#     Node 5, Type 1, BuildingBlock: BETDAH_clean_linker_0, # of connection points: 3
#     Node 6, Type 1, BuildingBlock: BETDAH_clean_linker_0, # of connection points: 3
#     Node 7, Type 1, BuildingBlock: BETDAH_clean_linker_0, # of connection points: 3
#     Node 8, Type 1, BuildingBlock: BETDAH_clean_linker_0, # of connection points: 3
#     Edge 9, Type (0, 1), BuildingBlock: KIFKEQ_clean_linker_1, # of connection points: 2
#     Edge 10, Type (0, 1), BuildingBlock: KIFKEQ_clean_linker_1, # of connection points: 2
#     Edge 11, Type (0, 1), BuildingBlock: KIFKEQ_clean_linker_1, # of connection points: 2
#     Edge 12, Type (0, 1), BuildingBlock: KIFKEQ_clean_linker_1, # of connection points: 2
#     Edge 13, Type (0, 1), BuildingBlock: KIFKEQ_clean_linker_1, # of connection points: 2
#     Edge 14, Type (0, 1), BuildingBlock: KIFKEQ_clean_linker_1, # of connection points: 2
#     Edge 15, Type (0, 1), BuildingBlock: KIFKEQ_clean_linker_1, # of connection points: 2
#     Edge 16, Type (0, 1), BuildingBlock: KIFKEQ_clean_linker_1, # of connection points: 2
#     Edge 17, Type (0, 1), BuildingBlock: KIFKEQ_clean_linker_1, # of connection points: 2
#     Edge 18, Type (0, 1), BuildingBlock: KIFKEQ_clean_linker_1, # of connection points: 2
#     Edge 19, Type (0, 1), BuildingBlock: KIFKEQ_clean_linker_1, # of connection points: 2
#     Edge 20, Type (0, 1), BuildingBlock: KIFKEQ_clean_linker_1, # of connection points: 2
#     Edge 21, Type (0, 1), BuildingBlock: KIFKEQ_clean_linker_1, # of connection points: 2
#     Edge 22, Type (0, 1), BuildingBlock: KIFKEQ_clean_linker_1, # of connection points: 2
#     Edge 23, Type (0, 1), BuildingBlock: KIFKEQ_clean_linker_1, # of connection points: 2
#     Edge 24, Type (0, 1), BuildingBlock: KIFKEQ_clean_linker_1, # of connection points: 2
#     Edge 25, Type (0, 1), BuildingBlock: KIFKEQ_clean_linker_1, # of connection points: 2
#     Edge 26, Type (0, 1), BuildingBlock: KIFKEQ_clean_linker_1, # of connection points: 2
# Relax obj value: 0.234
# Max RMSD: 0.145
# Mean RMSD: 0.106
data_MOF--net-anh--node1-NUHQIS_clean_sbu_0--node2-BETDAH_clean_linker_0--edge1-KIFKEQ_clean_linker_1
_symmetry_space_group_name_H-M    P1
_symmetry_Int_Tables_number       1
_symmetry_cell_setting            triclinic
loop_
_symmetry_equiv_pos_as_xyz
'x, y, z'
_cell_length_a     30.687931
_cell_length_b     30.564526
_cell_length_c     50.490585
_cell_angle_alpha  89.336262
_cell_angle_beta   96.552733
_cell_angle_gamma 120.17265
loop_
_atom_site_label
_atom_site_type_symbol
_atom_site_fract_x
_atom_site_fract_y
_atom_site_fract_z
_atom_type_partial_charge
Tb0 Tb 0.22457 0.65793 0.14979 0.0
Eu1 Eu 0.15974 0.71362 0.15596 0.0
C2 C 0.21981 0.69411 0.20497 0.0
C3 C 1.10684 0.59259 0.15777 0.0
C4 C 0.26614 0.56312 0.13738 0.0
C5 C 0.26019 0.48323 0.14961 0.0
C6 C 0.25931 0.52691 0.15638 0.0
C7 C 0.27182 0.55369 0.11118 0.0
C8 C 0.27272 0.50997 0.10443 0.0
C9 C 0.26834 0.47497 0.12377 0.0
C10 C 0.27364 0.61289 0.14575 0.0
O11 O 0.17685 0.64409 0.11199 0.0
O12 O 0.17484 0.71744 0.11289 0.0
O13 O 0.24044 0.77895 0.16012 0.0
O14 O 0.2798 0.73862 0.14461 0.0
C15 C 0.17106 0.67893 0.09942 0.0
O16 O 1.10334 0.73317 0.1394 0.0
O17 O 0.13684 0.75503 0.1806 0.0
O18 O 0.1746 0.6865 0.19611 0.0
O19 O 0.25088 0.69872 0.18814 0.0
O20 O 0.15258 0.59803 0.16301 0.0
O21 O 1.10143 0.63053 0.14928 0.0
C22 C 0.28083 0.78032 0.15265 0.0
O23 O 0.26783 0.64044 0.12726 0.0
O24 O 0.25488 0.615 0.1673 0.0
C25 C 1.04854 0.72046 0.17065 0.0
C26 C 0.94528 0.65273 0.1745 0.0
C27 C 0.96077 0.70027 0.16369 0.0
C28 C 1.01214 0.73384 0.16165 0.0
C29 C 1.03354 0.67472 0.18329 0.0
C30 C 0.98235 0.64118 0.18525 0.0
C31 C 1.09972 0.74855 0.1626 0.0
H32 H 0.2562 0.45672 0.16488 0.0
H33 H 0.25526 0.53319 0.1768 0.0
H34 H 0.27779 0.5811 0.09617 0.0
H35 H 0.27974 0.50509 0.08443 0.0
H36 H 0.93294 0.7099 0.15497 0.0
H37 H 1.02301 0.76864 0.15153 0.0
H38 H 1.06103 0.6634 0.19011 0.0
H39 H 0.9715 0.60495 0.19379 0.0
Tb40 Tb 0.74187 0.24069 0.49464 0.0
Eu41 Eu 0.6199 0.18788 0.49402 0.0
C42 C 0.69579 0.21446 0.548 0.0
C43 C 0.67311 0.12046 0.49769 0.0
C44 C 0.88531 0.31438 0.48792 0.0
C45 C 0.94644 0.33497 0.45653 0.0
C46 C 0.89631 0.30948 0.46222 0.0
C47 C 0.92476 0.34815 0.50712 0.0
C48 C 0.97486 0.37386 0.50137 0.0
C49 C 0.98632 0.36578 0.47638 0.0
C50 C 0.83642 0.27727 0.49673 0.0
O51 O 0.71607 0.25076 0.45447 0.0
O52 O 0.63583 0.1822 0.45169 0.0
O53 O 0.64514 0.26905 0.48533 0.0
O54 O 0.72833 0.30344 0.50373 0.0
C55 C 0.67461 0.21606 0.44015 0.0
O56 O 0.54301 0.13427 0.47575 0.0
O57 O 0.55399 0.17873 0.51146 0.0
O58 O 0.65574 0.21547 0.53662 0.0
O59 O 0.72697 0.21129 0.53365 0.0
O60 O 0.71113 0.15855 0.48745 0.0
O61 O 0.63715 0.12612 0.50597 0.0
C62 C 0.6885 0.30836 0.49547 0.0
O63 O 0.81583 0.29243 0.51291 0.0
O64 O 0.80275 0.24146 0.47956 0.0
C65 C 0.49221 1.09194 0.50881 0.0
C66 C 0.44813 0.99093 0.52348 0.0
C67 C 0.42174 1.00544 0.50408 0.0
C68 C 0.44383 1.05569 0.4967 0.0
C69 C 0.51615 1.07854 0.53009 0.0
C70 C 0.49419 1.02843 0.53743 0.0
C71 C 0.52218 0.13926 0.49573 0.0
H72 H 0.95424 0.32883 0.43694 0.0
H73 H 0.86674 0.28361 0.447 0.0
H74 H 0.91734 0.35204 0.52718 0.0
H75 H 1.00489 0.39726 0.51708 0.0
H76 H 0.38642 0.97724 0.49281 0.0
H77 H 0.4251 1.06524 0.48006 0.0
H78 H 0.5538 0.10585 0.53959 0.0
H79 H 0.51516 1.01828 0.55252 0.0
Tb80 Tb 0.60973 0.66324 0.82807 0.0
Eu81 Eu 0.54129 0.54686 0.80245 0.0
C82 C 0.56986 0.57119 0.86483 0.0
C83 C 0.66453 0.59994 0.81765 0.0
C84 C 0.67523 0.79433 0.86464 0.0
C85 C 0.73734 0.87199 0.88986 0.0
C86 C 0.72505 0.82725 0.87618 0.0
C87 C 0.63665 0.8044 0.86885 0.0
C88 C 0.64885 0.84921 0.88291 0.0
C89 C 0.69984 0.88477 0.8925 0.0
C90 C 0.66704 0.75336 0.84628 0.0
O91 O 0.6228 0.6627 0.78629 0.0
O92 O 0.54484 0.59822 0.7697 0.0
O93 O 0.48445 0.56613 0.81566 0.0
O94 O 0.53283 0.65287 0.82234 0.0
C95 C 0.58777 0.63845 0.76593 0.0
O96 O 0.52014 0.48876 0.77107 0.0
O97 O 0.47852 0.47009 0.80537 0.0
O98 O 0.56785 0.54303 0.84491 0.0
O99 O 0.57654 0.61679 0.86145 0.0
O100 O 0.66423 0.63701 0.83042 0.0
O101 O 0.62315 0.56369 0.80354 0.0
C102 C 0.48846 0.61039 0.82036 0.0
O103 O 0.66765 0.71461 0.85686 0.0
O104 O 0.63342 0.74048 0.82517 0.0
C105 C 0.49672 0.41008 0.78997 0.0
C106 C 0.51643 0.33317 0.80739 0.0
C107 C 0.556 0.38037 0.80098 0.0
C108 C 0.54635 0.41848 0.79259 0.0
C109 C 0.45671 0.3626 0.79555 0.0
C110 C 0.46645 0.32424 0.80413 0.0
C111 C 0.48795 0.45255 0.78468 0.0
H112 H 0.7771 0.89816 0.8964 0.0
H113 H 0.75528 0.81992 0.87316 0.0
H114 H 0.59774 0.77895 0.86031 0.0
H115 H 0.61876 0.85715 0.88501 0.0
H116 H 0.59476 0.38808 0.80252 0.0
H117 H 0.57803 0.45494 0.78873 0.0
H118 H 0.41825 0.35574 0.794 0.0
H119 H 0.43523 0.28821 0.80885 0.0
H120 H 0.59536 0.10248 0.24176 0.0
H121 H 0.7384 0.23608 0.2327 0.0
H122 H 0.64442 0.13797 0.16401 0.0
C123 C 0.62321 0.12695 0.22904 0.0
C124 C 0.61366 0.11448 0.20147 0.0
C125 C 0.66787 0.17031 0.24063 0.0
C126 C 0.70398 0.20262 0.22402 0.0
C127 C 0.69591 0.19093 0.19629 0.0
C128 C 0.65083 0.14668 0.18532 0.0
N129 N 0.73158 0.22217 0.17862 0.0
C130 C 0.77832 0.26735 0.18482 0.0
H131 H 0.6683 0.60604 0.57966 0.0
H132 H 0.65846 0.73953 0.56353 0.0
H133 H 0.68221 0.66256 0.50069 0.0
C134 C 0.67001 0.63407 0.56582 0.0
C135 C 0.6769 0.62911 0.53913 0.0
C136 C 0.66316 0.67346 0.57478 0.0
C137 C 0.66339 0.70903 0.55668 0.0
C138 C 0.67045 0.70547 0.5299 0.0
C139 C 0.67669 0.66517 0.52129 0.0
N140 N 0.6714 0.74128 0.51103 0.0
C141 C 0.6691 0.78523 0.51602 0.0
H142 H 1.00152 0.62282 0.90266 0.0
H143 H 0.13959 0.6296 0.88676 0.0
H144 H 1.0244 0.60505 0.82189 0.0
C145 C 1.02519 0.62222 0.88848 0.0
C146 C 1.0069 0.61453 0.86105 0.0
C147 C 1.073 0.62825 0.89809 0.0
C148 C 1.10258 0.62452 0.87974 0.0
C149 C 1.08502 0.61553 0.85224 0.0
C150 C 1.03728 0.61075 0.84311 0.0
N151 N 1.11449 0.61218 0.83309 0.0
C152 C 0.16132 0.61372 0.83811 0.0
H153 H 0.34234 0.71265 0.40895 0.0
H154 H 0.354 0.58832 0.37894 0.0
H155 H 0.3894 0.62954 0.46274 0.0
C156 C 0.35039 0.68225 0.41253 0.0
C157 C 0.36632 0.6751 0.43862 0.0
C158 C 0.34541 0.65112 0.39083 0.0
C159 C 0.3589 0.61375 0.39525 0.0
C160 C 0.37532 0.60653 0.4211 0.0
C161 C 0.37867 0.63692 0.44272 0.0
N162 N 0.38057 0.56368 0.42582 0.0
C163 C 0.34177 0.52329 0.43691 0.0
H164 H 0.68582 0.20352 0.74835 0.0
H165 H 0.83941 0.23442 0.75463 0.0
H166 H 0.75901 0.19136 0.82338 0.0
C167 C 0.7183 0.20534 0.76035 0.0
C168 C 0.71672 0.1957 0.78761 0.0
C169 C 0.76175 0.21827 0.74818 0.0
C170 C 0.80523 0.22342 0.7637 0.0
C171 C 0.80484 0.21457 0.791 0.0
C172 C 0.76 0.19937 0.80258 0.0
N173 N 0.84998 0.22193 0.8065 0.0
C174 C 0.84958 0.20302 0.83171 0.0
H175 H 0.62731 0.47484 0.05688 0.0
H176 H 0.48608 0.33943 0.0308 0.0
H177 H 0.56487 0.34995 0.10853 0.0
C178 C 0.59762 0.43723 0.06084 0.0
C179 C 0.60135 0.41615 0.08531 0.0
C180 C 0.55656 0.40977 0.04103 0.0
C181 C 0.51865 0.3606 0.04573 0.0
C182 C 0.5219 0.33905 0.07004 0.0
C183 C 0.56349 0.3665 0.08958 0.0
N184 N 0.4809 0.29204 0.07602 0.0
C185 C 0.43515 0.28925 0.07869 0.0
H186 H 0.32552 0.44488 0.15532 0.0
H187 H 0.23447 0.41218 0.07849 0.0
H188 H 0.35231 0.38616 0.14347 0.0
H189 H 0.26131 0.35277 0.06656 0.0
H190 H 0.39585 0.33239 0.04505 0.0
H191 H 0.3421 0.36562 0.05594 0.0
H192 H 0.3309 0.30016 0.13303 0.0
H193 H 0.38587 0.26806 0.12207 0.0
C194 C 0.30996 0.42396 0.13618 0.0
C195 C 0.27803 0.43339 0.1178 0.0
C196 C 0.3253 0.39013 0.12937 0.0
C197 C 0.30906 0.36481 0.10402 0.0
C198 C 0.27498 0.37219 0.08612 0.0
C199 C 0.25965 0.4062 0.09293 0.0
C200 C 0.38038 0.32383 0.06393 0.0
C201 C 0.39431 0.29766 0.08273 0.0
C202 C 0.34954 0.34269 0.07019 0.0
C203 C 0.33248 0.33586 0.09546 0.0
C204 C 0.34393 0.30657 0.11354 0.0
C205 C 0.3749 0.28781 0.10725 0.0
H206 H 1.0254 0.31419 0.45443 0.0
H207 H 1.06774 0.46084 0.4891 0.0
H208 H 1.11363 0.34486 0.44828 0.0
H209 H 0.15599 0.49194 0.48257 0.0
H210 H 0.31603 0.52769 0.48537 0.0
H211 H 0.22953 0.48412 0.49751 0.0
H212 H 0.17428 0.40281 0.42035 0.0
H213 H 0.26092 0.44558 0.40879 0.0
C214 C 1.05356 0.35321 0.46043 0.0
C215 C 1.03972 0.38538 0.47195 0.0
C216 C 1.10409 0.37068 0.45703 0.0
C217 C 0.14184 0.42076 0.465 0.0
C218 C 1.12798 0.45283 0.4767 0.0
C219 C 1.07744 0.43524 0.48023 0.0
C220 C 0.28541 0.499 0.47155 0.0
C221 C 0.29452 0.489 0.44643 0.0
C222 C 0.23593 0.47469 0.47827 0.0
C223 C 0.19497 0.44051 0.45975 0.0
C224 C 0.20497 0.4285 0.43517 0.0
C225 C 0.25446 0.45276 0.42854 0.0
H226 H 0.65692 0.94057 0.87315 0.0
H227 H 0.7802 0.95146 0.92915 0.0
H228 H 0.69981 1.03185 0.87282 0.0
H229 H 0.82486 1.04354 0.92703 0.0
H230 H 0.88973 0.14569 0.84816 0.0
H231 H 0.85392 1.07702 0.87857 0.0
H232 H 0.74983 0.12483 0.89727 0.0
H233 H 0.7877 0.19528 0.86784 0.0
C234 C 0.69203 0.96211 0.88634 0.0
C235 C 0.71593 0.93818 0.90034 0.0
C236 C 0.71678 1.01482 0.88607 0.0
C237 C 0.7661 1.04451 0.89942 0.0
C238 C 0.78706 1.02126 0.91631 0.0
C239 C 0.76164 0.96849 0.91719 0.0
C240 C 0.86105 0.14301 0.85985 0.0
C241 C 0.84062 0.1747 0.85542 0.0
C242 C 0.84063 0.10389 0.87732 0.0
C243 C 0.79882 0.0955 0.89004 0.0
C244 C 0.78201 0.1306 0.88766 0.0
C245 C 0.80333 0.17048 0.87065 0.0
H246 H 0.86244 0.65968 0.18367 0.0
H247 H 0.90583 0.55587 0.15564 0.0
H248 H 0.77313 0.59724 0.16984 0.0
H249 H 0.81767 0.4944 0.14119 0.0
H250 H 0.65604 0.3842 0.11847 0.0
H251 H 0.73369 0.43659 0.14856 0.0
H252 H 0.72402 0.56943 0.12785 0.0
H253 H 0.64503 0.51678 0.09944 0.0
C254 C 0.85276 0.62322 0.17493 0.0
C255 C 0.89101 0.61265 0.17065 0.0
C256 C 0.80171 0.58752 0.1669 0.0
C257 C 0.78806 0.54092 0.15404 0.0
C258 C 0.82634 0.52938 0.15133 0.0
C259 C 0.87714 0.56477 0.1596 0.0
C260 C 0.66981 0.42439 0.12094 0.0
C261 C 0.64495 0.44648 0.1061 0.0
C262 C 0.71463 0.45455 0.13799 0.0
C263 C 0.73574 0.50746 0.14036 0.0
C264 C 0.70896 0.52889 0.12678 0.0
C265 C 0.664 0.49874 0.11003 0.0
H266 H 0.50981 0.95205 0.52155 0.0
H267 H 0.35372 0.9081 0.52672 0.0
H268 H 0.48475 0.86549 0.51047 0.0
H269 H 0.32813 0.81972 0.51687 0.0
H270 H 0.30211 0.71003 0.44634 0.0
H271 H 0.31843 0.77826 0.47688 0.0
H272 H 0.45316 0.78006 0.51483 0.0
H273 H 0.43904 0.71454 0.48241 0.0
C274 C 0.47024 0.92334 0.52154 0.0
C275 C 0.4336 0.93692 0.52462 0.0
C276 C 0.45569 0.87324 0.51522 0.0
C277 C 0.40407 0.83527 0.51213 0.0
C278 C 0.36804 0.84813 0.51823 0.0
C279 C 0.38261 0.89863 0.52407 0.0
C280 C 0.33527 0.72496 0.4612 0.0
C281 C 0.37036 0.70824 0.4612 0.0
C282 C 0.34414 0.76359 0.47922 0.0
C283 C 0.38789 0.78583 0.49811 0.0
C284 C 0.41991 0.76502 0.50004 0.0
C285 C 0.41152 0.72695 0.48161 0.0
H286 H 0.5958 0.34611 0.84303 0.0
H287 H 0.46366 0.23101 0.79352 0.0
H288 H 0.63036 0.29105 0.84777 0.0
H289 H 0.49572 0.17276 0.80037 0.0
H290 H 0.61582 0.14846 0.76612 0.0
H291 H 0.55266 0.16384 0.78068 0.0
H292 H 0.64766 0.22964 0.85594 0.0
H293 H 0.71423 0.22194 0.83951 0.0
C294 C 0.5734 0.30816 0.83376 0.0
C295 C 0.52841 0.29383 0.81675 0.0
C296 C 0.59281 0.27571 0.83688 0.0
C297 C 0.56711 0.22744 0.82349 0.0
C298 C 0.51805 0.2104 0.80991 0.0
C299 C 0.49916 0.24357 0.80626 0.0
C300 C 0.62368 0.16685 0.78568 0.0
C301 C 0.67196 0.18744 0.80061 0.0
C302 C 0.58648 0.17457 0.79448 0.0
C303 C 0.59596 0.20125 0.81899 0.0
C304 C 0.64016 0.21225 0.83615 0.0
C305 C 0.67836 0.20678 0.82683 0.0
H306 H 0.60006 1.0326 0.51736 0.0
H307 H 0.74223 0.09428 0.48465 0.0
H308 H 0.59853 0.95246 0.52332 0.0
H309 H 0.7403 1.01396 0.49011 0.0
H310 H 0.74983 0.88051 0.52548 0.0
H311 H 0.75031 0.96069 0.52171 0.0
H312 H 0.58712 0.87786 0.50165 0.0
H313 H 0.58714 0.79788 0.50601 0.0
C314 C 0.63095 1.02913 0.51126 0.0
C315 C 0.67133 1.07046 0.5005 0.0
C316 C 0.62995 0.98278 0.51459 0.0
C317 C 0.6694 0.97607 0.50737 0.0
C318 C 0.70956 1.0174 0.49643 0.0
C319 C 0.7105 1.06367 0.49305 0.0
C320 C 0.71405 0.87958 0.52064 0.0
C321 C 0.66844 0.83291 0.51633 0.0
C322 C 0.71426 0.92564 0.51814 0.0
C323 C 0.66879 0.92649 0.51113 0.0
C324 C 0.62297 0.87936 0.50734 0.0
C325 C 0.62286 0.83329 0.50982 0.0
H326 H 0.68303 0.52055 0.81031 0.0
H327 H 0.75959 0.68099 0.83063 0.0
H328 H 0.76485 0.52306 0.81878 0.0
H329 H 0.84036 0.684 0.83802 0.0
H330 H 0.96864 0.66976 0.88099 0.0
H331 H 0.88693 0.66317 0.86928 0.0
H332 H 0.84873 0.54919 0.80721 0.0
H333 H 0.93068 0.55393 0.82013 0.0
C334 C 0.71723 0.55644 0.81622 0.0
C335 C 0.71416 0.60039 0.82011 0.0
C336 C 0.76441 0.558 0.82104 0.0
C337 C 0.80993 0.60362 0.82969 0.0
C338 C 0.8066 0.64769 0.83233 0.0
C339 C 0.75983 0.64602 0.82784 0.0
C340 C 0.94291 0.64273 0.865 0.0
C341 C 0.95685 0.61202 0.85183 0.0
C342 C 0.89578 0.63947 0.85791 0.0
C343 C 0.86041 0.60585 0.83702 0.0
C344 C 0.87433 0.57531 0.82354 0.0
C345 C 0.92184 0.57849 0.83076 0.0
H346 H 0.29433 0.87537 0.15986 0.0
H347 H 0.37899 0.79956 0.15164 0.0
H348 H 0.37313 0.95605 0.16796 0.0
H349 H 0.45854 0.88054 0.16069 0.0
H350 H 0.59704 1.0421 0.16268 0.0
H351 H 0.51775 0.9633 0.1478 0.0
H352 H 0.44022 1.00146 0.20132 0.0
H353 H 0.51802 1.08032 0.21502 0.0
C354 C 0.3298 0.87578 0.15973 0.0
C355 C 0.3298 0.8304 0.15517 0.0
C356 C 0.37541 0.92237 0.16464 0.0
C357 C 0.42303 0.92551 0.1655 0.0
C358 C 0.42304 0.88029 0.16006 0.0
C359 C 0.37718 0.83353 0.15492 0.0
C360 C 0.56282 1.03402 0.17091 0.0
C361 C 0.56453 1.06787 0.1903 0.0
C362 C 0.51726 0.98832 0.16261 0.0
C363 C 0.47185 0.97516 0.1733 0.0
C364 C 0.47363 1.00982 0.19218 0.0
C365 C 0.51886 1.0552 0.20039 0.0
H366 H 0.61409 0.33196 0.48023 0.0
H367 H 0.7676 0.39872 0.51972 0.0
H368 H 0.61435 0.41014 0.48911 0.0
H369 H 0.76833 0.47775 0.52816 0.0
H370 H 0.73062 0.58913 0.56669 0.0
H371 H 0.73532 0.51481 0.55488 0.0
H372 H 0.64459 0.49629 0.47941 0.0
H373 H 0.63828 0.56987 0.49177 0.0
C374 C 0.64829 0.36348 0.49057 0.0
C375 C 0.69082 0.3584 0.49925 0.0
C376 C 0.64853 0.40883 0.49555 0.0
C377 C 0.69129 0.45099 0.50948 0.0
C378 C 0.73425 0.44624 0.51773 0.0
C379 C 0.73404 0.4008 0.51269 0.0
C380 C 0.71139 0.56924 0.54757 0.0
C381 C 0.68354 0.58578 0.53039 0.0
C382 C 0.71465 0.52662 0.54061 0.0
C383 C 0.69021 0.49867 0.51614 0.0
C384 C 0.66341 0.51596 0.49862 0.0
C385 C 0.66026 0.5588 0.50558 0.0
H386 H 0.39125 0.53015 0.82037 0.0
H387 H 0.47708 0.69352 0.82856 0.0
H388 H 0.31426 0.53103 0.82633 0.0
H389 H 0.39931 0.69457 0.83381 0.0
H390 H 0.25574 0.67825 0.86473 0.0
H391 H 0.33498 0.67814 0.86137 0.0
H392 H 0.25265 0.54803 0.80557 0.0
H393 H 0.17407 0.54783 0.80966 0.0
C394 C 0.39384 0.56648 0.82325 0.0
C395 C 0.44096 0.61178 0.82381 0.0
C396 C 0.3492 0.56701 0.82654 0.0
C397 C 0.34965 0.61288 0.83043 0.0
C398 C 0.39693 0.6583 0.83119 0.0
C399 C 0.44177 0.65775 0.82795 0.0
C400 C 0.25474 0.64937 0.85202 0.0
C401 C 0.20857 0.61267 0.8377 0.0
C402 C 0.30031 0.64951 0.84983 0.0
C403 C 0.30098 0.61298 0.83319 0.0
C404 C 0.25425 0.57628 0.819 0.0
C405 C 0.20892 0.57618 0.82124 0.0
H406 H 1.09866 0.50556 0.17991 0.0
H407 H 1.00726 0.56834 0.1467 0.0
H408 H 1.02152 0.42821 0.18898 0.0
H409 H 0.93066 0.49097 0.15482 0.0
H410 H 0.79974 0.36473 0.19201 0.0
H411 H 0.87962 0.44256 0.18697 0.0
H412 H 0.94758 0.35311 0.17066 0.0
H413 H 0.86787 0.27574 0.17645 0.0
C414 C 1.06222 0.50287 0.17431 0.0
C415 C 1.05978 0.54371 0.16249 0.0
C416 C 1.01766 0.4582 0.17945 0.0
C417 C 0.96906 0.45275 0.17291 0.0
C418 C 0.9669 0.49358 0.16086 0.0
C419 C 1.01125 0.53813 0.15587 0.0
C420 C 0.83212 0.3619 0.18783 0.0
C421 C 0.82766 0.31411 0.18498 0.0
C422 C 0.87799 0.40659 0.18458 0.0
C423 C 0.92082 0.40489 0.17814 0.0
C424 C 0.91625 0.35669 0.17591 0.0
C425 C 0.87037 0.31207 0.17921 0.0
H426 H 0.14429 0.59645 0.06667 0.0
H427 H 0.17071 0.74913 0.06498 0.0
H428 H 1.12336 0.58635 0.01844 0.0
H429 H 0.15177 0.73988 0.01642 0.0
H430 H 1.06118 0.68804 0.93343 0.0
H431 H 1.08544 0.70059 0.98138 0.0
H432 H 0.15508 0.60857 0.97723 0.0
H433 H 1.12758 0.59313 0.92937 0.0
C434 C 0.14609 0.62814 0.05598 0.0
C435 C 0.15902 0.67359 0.06981 0.0
C436 C 1.13446 0.62247 0.02816 0.0
C437 C 0.1359 0.66227 0.01323 0.0
C438 C 0.14936 0.70798 0.02711 0.0
C439 C 0.16051 0.71346 0.05502 0.0
C440 C 1.08111 0.66987 0.94272 0.0
C441 C 1.09165 0.63888 0.92736 0.0
C442 C 1.09585 0.67781 0.97032 0.0
C443 C 1.12219 0.65552 0.98349 0.0
C444 C 1.13406 0.62569 0.96802 0.0
C445 C 1.11888 0.61737 0.94039 0.0
H446 H 0.60129 0.14265 0.40387 0.0
H447 H 0.74543 0.28256 0.40928 0.0
H448 H 0.60255 0.13457 0.356 0.0
H449 H 0.74676 0.27416 0.36138 0.0
H450 H 0.70203 0.26113 0.26854 0.0
H451 H 0.70401 0.27484 0.31655 0.0
H452 H 0.65162 0.11644 0.32733 0.0
H453 H 0.65019 0.10295 0.27978 0.0
C454 C 0.6331 0.1719 0.39488 0.0
C455 C 0.67331 0.21315 0.41058 0.0
C456 C 0.63402 0.16707 0.3674 0.0
C457 C 0.67503 0.20347 0.35481 0.0
C458 C 0.71449 0.24555 0.37035 0.0
C459 C 0.71375 0.25022 0.39788 0.0
C460 C 0.69176 0.22948 0.28126 0.0
C461 C 0.6753 0.18081 0.27018 0.0
C462 C 0.69268 0.23726 0.30876 0.0
C463 C 0.67702 0.19652 0.32578 0.0
C464 C 0.66259 0.14841 0.31478 0.0
C465 C 0.66194 0.14072 0.28746 0.0
H466 H 0.68021 0.70212 0.74901 0.0
H467 H 0.52149 0.60452 0.71976 0.0
H468 H 0.70008 0.71683 0.70308 0.0
H469 H 0.54144 0.61926 0.67393 0.0
H470 H 0.59045 0.68728 0.59384 0.0
H471 H 0.57322 0.6854 0.64018 0.0
H472 H 0.69962 0.66341 0.66595 0.0
H473 H 0.71696 0.66566 0.61979 0.0
C474 C 0.64944 0.68433 0.73283 0.0
C475 C 0.59925 0.65194 0.73814 0.0
C476 C 0.6609 0.69251 0.70648 0.0
C477 C 0.6224 0.66903 0.68479 0.0
C478 C 0.57197 0.63827 0.69012 0.0
C479 C 0.56058 0.62962 0.71644 0.0
C480 C 0.61494 0.68277 0.60947 0.0
C481 C 0.65494 0.6764 0.60312 0.0
C482 C 0.60484 0.68129 0.63598 0.0
C483 C 0.63495 0.67414 0.65679 0.0
C484 C 0.67593 0.66942 0.65048 0.0
C485 C 0.68563 0.67028 0.62399 0.0
H486 H 0.63723 0.21288 0.58571 0.0
H487 H 0.78008 0.22213 0.57688 0.0
H488 H 0.65709 0.21726 0.63422 0.0
H489 H 0.80027 0.22771 0.62503 0.0
H490 H 0.78942 0.17558 0.71128 0.0
H491 H 0.77426 0.17579 0.66274 0.0
H492 H 0.71445 0.27562 0.67096 0.0
H493 H 0.72903 0.27471 0.71943 0.0
C494 C 0.67287 0.21606 0.59408 0.0
C495 C 0.7069 0.21695 0.57741 0.0
C496 C 0.68445 0.21891 0.62186 0.0
C497 C 0.73035 0.22289 0.6335 0.0
C498 C 0.76432 0.22395 0.61676 0.0
C499 C 0.75272 0.22094 0.58909 0.0
C500 C 0.77401 0.19833 0.70265 0.0
C501 C 0.76017 0.2249 0.71905 0.0
C502 C 0.76514 0.19838 0.67487 0.0
C503 C 0.74254 0.22525 0.66297 0.0
C504 C 0.73081 0.2536 0.67947 0.0
C505 C 0.7395 0.2534 0.7072 0.0
H506 H 0.61342 0.62028 0.91401 0.0
H507 H 0.51107 0.47281 0.87504 0.0
H508 H 0.60822 0.58127 0.957 0.0
H509 H 0.50312 0.43409 0.91774 0.0
H510 H 0.54658 0.37135 0.99102 0.0
H511 H 0.54838 0.41179 0.94902 0.0
H512 H 0.56039 0.54027 0.99159 0.0
H513 H 0.56147 0.50049 0.0337 0.0
C514 C 0.58907 0.57967 0.91478 0.0
C515 C 0.56313 0.54947 0.89128 0.0
C516 C 0.58582 0.55721 0.93939 0.0
C517 C 0.5557 0.50423 0.94095 0.0
C518 C 0.52796 0.47467 0.91738 0.0
C519 C 0.53213 0.49692 0.89286 0.0
C520 C 0.54922 0.40806 0.99125 0.0
C521 C 0.55382 0.43284 0.01545 0.0
C522 C 0.55 0.43128 0.96719 0.0
C523 C 0.5543 0.47944 0.96672 0.0
C524 C 0.55793 0.50369 0.99108 0.0
C525 C 0.55813 0.4808 0.0152 0.0
H526 H 0.16004 0.64974 0.24487 0.0
H527 H 0.31623 0.73732 0.22943 0.0
H528 H 0.18873 0.63884 0.29053 0.0
H529 H 0.34477 0.72763 0.2748 0.0
H530 H 0.37718 0.64719 0.34289 0.0
H531 H 0.34412 0.65876 0.29882 0.0
H532 H 0.2345 0.68163 0.3338 0.0
H533 H 0.26607 0.66774 0.37776 0.0
C534 C 0.20041 0.6675 0.25142 0.0
C535 C 0.23588 0.69385 0.23359 0.0
C536 C 0.21687 0.66124 0.2775 0.0
C537 C 0.26903 0.68151 0.2861 0.0
C538 C 0.30432 0.71026 0.26859 0.0
C539 C 0.28795 0.71616 0.24264 0.0
C540 C 0.34566 0.65409 0.34114 0.0
C541 C 0.3246 0.65698 0.36385 0.0
C542 C 0.32707 0.66134 0.31594 0.0
C543 C 0.28707 0.67179 0.31285 0.0
C544 C 0.26524 0.67356 0.33548 0.0
C545 C 0.28377 0.6662 0.3607 0.0
loop_
_geom_bond_atom_site_label_1
_geom_bond_atom_site_label_2
_geom_bond_distance
_geom_bond_site_symmetry_2
_ccdc_geom_bond_type
Tb0 C10 2.825 . S
Tb0 O11 2.347 . S
Tb0 O14 2.366 . S
Tb0 O19 2.418 . S
Tb0 O20 2.384 1_455 S
Tb0 O23 2.479 . S
Tb0 O24 2.471 . S
Eu1 O12 2.418 . S
Eu1 O13 2.384 . S
Eu1 O16 2.479 1_455 S
Eu1 O17 2.471 1_455 S
Eu1 O18 2.347 . S
Eu1 O21 2.366 1_455 S
Eu1 C31 2.825 1_455 S
C2 O18 1.259 . S
C2 O19 1.265 . S
C3 O20 1.255 . S
C3 O21 1.265 . S
C4 C6 1.380 . S
C4 C7 1.374 . S
C4 C10 1.507 . S
C5 C6 1.384 . S
C5 C9 1.387 . S
C5 H32 0.930 . S
C6 C4 1.380 . S
C6 C5 1.384 . S
C6 H33 0.931 . S
C7 C4 1.374 . S
C7 C8 1.390 . S
C7 H34 0.930 . S
C8 C7 1.390 . S
C8 C9 1.391 . S
C8 H35 0.930 . S
C9 C5 1.387 . S
C9 C8 1.391 . S
C10 Tb0 2.825 . S
C10 C4 1.507 . S
C10 O23 1.238 . S
C10 O24 1.247 . S
O11 Tb0 2.347 . S
O11 C15 1.259 . S
O12 Eu1 2.418 . S
O12 C15 1.265 . S
O13 Eu1 2.384 . S
O13 C22 1.255 . S
O14 Tb0 2.366 . S
O14 C22 1.265 . S
C15 O11 1.259 . S
C15 O12 1.265 . S
O16 Eu1 2.479 1_655 S
O16 C31 1.238 . S
O17 Eu1 2.471 1_655 S
O17 C31 1.247 . S
O18 Eu1 2.347 . S
O18 C2 1.259 . S
O19 Tb0 2.418 . S
O19 C2 1.265 . S
O20 Tb0 2.384 1_655 S
O20 C3 1.255 . S
O21 Eu1 2.366 1_655 S
O21 C3 1.265 . S
C22 O13 1.255 . S
C22 O14 1.265 . S
O23 Tb0 2.479 . S
O23 C10 1.238 . S
O24 Tb0 2.471 . S
O24 C10 1.247 . S
C25 C28 1.380 . S
C25 C29 1.374 . S
C25 C31 1.507 . S
C26 C27 1.387 . S
C26 C30 1.391 . S
C27 C26 1.387 . S
C27 C28 1.384 . S
C27 H36 0.930 . S
C28 C25 1.380 . S
C28 C27 1.384 . S
C28 H37 0.931 . S
C29 C25 1.374 . S
C29 C30 1.390 . S
C29 H38 0.930 . S
C30 C26 1.391 . S
C30 C29 1.390 . S
C30 H39 0.930 . S
C31 Eu1 2.825 1_655 S
C31 O16 1.238 . S
C31 O17 1.247 . S
C31 C25 1.507 . S
H32 C5 0.930 . S
H33 C6 0.931 . S
H34 C7 0.930 . S
H35 C8 0.930 . S
H36 C27 0.930 . S
H37 C28 0.931 . S
H38 C29 0.930 . S
H39 C30 0.930 . S
Tb40 C50 2.825 . S
Tb40 O51 2.347 . S
Tb40 O54 2.366 . S
Tb40 O59 2.418 . S
Tb40 O60 2.384 . S
Tb40 O63 2.479 . S
Tb40 O64 2.471 . S
Eu41 O52 2.418 . S
Eu41 O53 2.384 . S
Eu41 O56 2.479 1_545 S
Eu41 O57 2.471 1_545 S
Eu41 O58 2.347 . S
Eu41 O61 2.366 1_545 S
Eu41 C71 2.825 1_545 S
C42 O58 1.259 . S
C42 O59 1.265 . S
C43 O60 1.255 1_565 S
C43 O61 1.265 . S
C44 C46 1.380 . S
C44 C47 1.374 . S
C44 C50 1.507 . S
C45 C46 1.384 . S
C45 C49 1.387 . S
C45 H72 0.930 . S
C46 C44 1.380 . S
C46 C45 1.384 . S
C46 H73 0.931 . S
C47 C44 1.374 . S
C47 C48 1.390 . S
C47 H74 0.930 . S
C48 C47 1.390 . S
C48 C49 1.391 . S
C48 H75 0.930 . S
C49 C45 1.387 . S
C49 C48 1.391 . S
C50 Tb40 2.825 . S
C50 C44 1.507 . S
C50 O63 1.238 . S
C50 O64 1.247 . S
O51 Tb40 2.347 . S
O51 C55 1.259 . S
O52 Eu41 2.418 . S
O52 C55 1.265 . S
O53 Eu41 2.384 . S
O53 C62 1.255 . S
O54 Tb40 2.366 . S
O54 C62 1.265 . S
C55 O51 1.259 . S
C55 O52 1.265 . S
O56 Eu41 2.479 1_565 S
O56 C71 1.238 . S
O57 Eu41 2.471 1_565 S
O57 C71 1.247 . S
O58 Eu41 2.347 . S
O58 C42 1.259 . S
O59 Tb40 2.418 . S
O59 C42 1.265 . S
O60 Tb40 2.384 . S
O60 C43 1.255 1_545 S
O61 Eu41 2.366 1_565 S
O61 C43 1.265 . S
C62 O53 1.255 . S
C62 O54 1.265 . S
O63 Tb40 2.479 . S
O63 C50 1.238 . S
O64 Tb40 2.471 . S
O64 C50 1.247 . S
C65 C68 1.380 . S
C65 C69 1.374 . S
C65 C71 1.507 . S
C66 C67 1.387 . S
C66 C70 1.391 . S
C67 C66 1.387 . S
C67 C68 1.384 . S
C67 H76 0.930 . S
C68 C65 1.380 . S
C68 C67 1.384 . S
C68 H77 0.931 . S
C69 C65 1.374 . S
C69 C70 1.390 . S
C69 H78 0.930 . S
C70 C66 1.391 . S
C70 C69 1.390 . S
C70 H79 0.930 . S
C71 Eu41 2.825 1_565 S
C71 O56 1.238 . S
C71 O57 1.247 . S
C71 C65 1.507 . S
H72 C45 0.930 . S
H73 C46 0.931 . S
H74 C47 0.930 . S
H75 C48 0.930 . S
H76 C67 0.930 . S
H77 C68 0.931 . S
H78 C69 0.930 . S
H79 C70 0.930 . S
Tb80 C90 2.825 . S
Tb80 O91 2.347 . S
Tb80 O94 2.366 . S
Tb80 O99 2.418 . S
Tb80 O100 2.384 . S
Tb80 O103 2.479 . S
Tb80 O104 2.471 . S
Eu81 O92 2.418 . S
Eu81 O93 2.384 . S
Eu81 O96 2.479 . S
Eu81 O97 2.471 . S
Eu81 O98 2.347 . S
Eu81 O101 2.366 . S
Eu81 C111 2.825 . S
C82 O98 1.259 . S
C82 O99 1.265 . S
C83 O100 1.255 . S
C83 O101 1.265 . S
C84 C86 1.380 . S
C84 C87 1.374 . S
C84 C90 1.507 . S
C85 C86 1.384 . S
C85 C89 1.387 . S
C85 H112 0.930 . S
C86 C84 1.380 . S
C86 C85 1.384 . S
C86 H113 0.931 . S
C87 C84 1.374 . S
C87 C88 1.390 . S
C87 H114 0.930 . S
C88 C87 1.390 . S
C88 C89 1.391 . S
C88 H115 0.930 . S
C89 C85 1.387 . S
C89 C88 1.391 . S
C90 Tb80 2.825 . S
C90 C84 1.507 . S
C90 O103 1.238 . S
C90 O104 1.247 . S
O91 Tb80 2.347 . S
O91 C95 1.259 . S
O92 Eu81 2.418 . S
O92 C95 1.265 . S
O93 Eu81 2.384 . S
O93 C102 1.255 . S
O94 Tb80 2.366 . S
O94 C102 1.265 . S
C95 O91 1.259 . S
C95 O92 1.265 . S
O96 Eu81 2.479 . S
O96 C111 1.238 . S
O97 Eu81 2.471 . S
O97 C111 1.247 . S
O98 Eu81 2.347 . S
O98 C82 1.259 . S
O99 Tb80 2.418 . S
O99 C82 1.265 . S
O100 Tb80 2.384 . S
O100 C83 1.255 . S
O101 Eu81 2.366 . S
O101 C83 1.265 . S
C102 O93 1.255 . S
C102 O94 1.265 . S
O103 Tb80 2.479 . S
O103 C90 1.238 . S
O104 Tb80 2.471 . S
O104 C90 1.247 . S
C105 C108 1.380 . S
C105 C109 1.374 . S
C105 C111 1.507 . S
C106 C107 1.387 . S
C106 C110 1.391 . S
C107 C106 1.387 . S
C107 C108 1.384 . S
C107 H116 0.930 . S
C108 C105 1.380 . S
C108 C107 1.384 . S
C108 H117 0.931 . S
C109 C105 1.374 . S
C109 C110 1.390 . S
C109 H118 0.930 . S
C110 C106 1.391 . S
C110 C109 1.390 . S
C110 H119 0.930 . S
C111 Eu81 2.825 . S
C111 O96 1.238 . S
C111 O97 1.247 . S
C111 C105 1.507 . S
H112 C85 0.930 . S
H113 C86 0.931 . S
H114 C87 0.930 . S
H115 C88 0.930 . S
H116 C107 0.930 . S
H117 C108 0.931 . S
H118 C109 0.930 . S
H119 C110 0.930 . S
H120 C123 0.929 1_565 S
H121 C126 0.929 . S
H122 C128 0.930 . S
C123 H120 0.929 1_545 S
C123 C124 1.398 . S
C123 C125 1.396 . S
C124 C123 1.398 . S
C124 C128 1.407 . S
C125 C123 1.396 . S
C125 C126 1.394 . S
C126 H121 0.929 . S
C126 C125 1.394 . S
C126 C127 1.382 . S
C127 C126 1.382 . S
C127 C128 1.392 . S
C127 N129 1.420 . S
C128 H122 0.930 . S
C128 C124 1.407 . S
C128 C127 1.392 . S
N129 C127 1.420 . S
N129 C130 1.244 . S
C130 N129 1.244 . S
H131 C134 0.929 . S
H132 C137 0.929 . S
H133 C139 0.930 . S
C134 H131 0.929 . S
C134 C135 1.398 . S
C134 C136 1.396 . S
C135 C134 1.398 . S
C135 C139 1.407 . S
C136 C134 1.396 . S
C136 C137 1.394 . S
C137 H132 0.929 . S
C137 C136 1.394 . S
C137 C138 1.382 . S
C138 C137 1.382 . S
C138 C139 1.392 . S
C138 N140 1.420 . S
C139 H133 0.930 . S
C139 C135 1.407 . S
C139 C138 1.392 . S
N140 C138 1.420 . S
N140 C141 1.244 . S
C141 N140 1.244 . S
H142 C145 0.929 . S
H143 C148 0.929 . S
H144 C150 0.930 1_655 S
C145 H142 0.929 . S
C145 C146 1.398 . S
C145 C147 1.396 1_655 S
C146 C145 1.398 . S
C146 C150 1.407 1_655 S
C147 C145 1.396 1_455 S
C147 C148 1.394 . S
C148 H143 0.929 . S
C148 C147 1.394 . S
C148 C149 1.382 . S
C149 C148 1.382 . S
C149 C150 1.392 . S
C149 N151 1.420 . S
C150 H144 0.930 1_455 S
C150 C146 1.407 1_455 S
C150 C149 1.392 . S
N151 C149 1.420 . S
N151 C152 1.244 . S
C152 N151 1.244 . S
H153 C156 0.929 . S
H154 C159 0.926 1_655 S
H155 C161 0.930 . S
C156 H153 0.929 . S
C156 C157 1.398 . S
C156 C158 1.396 . S
C157 C156 1.398 . S
C157 C161 1.407 . S
C158 C156 1.396 . S
C158 C159 1.397 . S
C159 H154 0.926 1_455 S
C159 C158 1.397 . S
C159 C160 1.381 . S
C160 C159 1.381 . S
C160 C161 1.392 . S
C160 N162 1.420 1_455 S
C161 H155 0.930 . S
C161 C157 1.407 . S
C161 C160 1.392 . S
N162 C160 1.420 1_655 S
N162 C163 1.244 . S
C163 N162 1.244 . S
H164 C167 0.929 . S
H165 C170 0.929 1_565 S
H166 C172 0.930 . S
C167 H164 0.929 . S
C167 C168 1.398 . S
C167 C169 1.396 . S
C168 C167 1.398 . S
C168 C172 1.407 . S
C169 C167 1.396 . S
C169 C170 1.394 . S
C170 H165 0.929 1_545 S
C170 C169 1.394 . S
C170 C171 1.382 . S
C171 C170 1.382 . S
C171 C172 1.392 . S
C171 N173 1.420 1_545 S
C172 H166 0.930 . S
C172 C168 1.407 . S
C172 C171 1.392 . S
N173 C171 1.420 1_565 S
N173 C174 1.244 . S
C174 N173 1.244 . S
H175 C178 0.929 . S
H176 C181 0.929 . S
H177 C183 0.930 . S
C178 H175 0.929 . S
C178 C179 1.398 . S
C178 C180 1.396 . S
C179 C178 1.398 . S
C179 C183 1.407 . S
C180 C178 1.396 . S
C180 C181 1.394 . S
C181 H176 0.929 . S
C181 C180 1.394 . S
C181 C182 1.382 . S
C182 C181 1.382 . S
C182 C183 1.392 . S
C182 N184 1.420 . S
C183 H177 0.930 . S
C183 C179 1.407 . S
C183 C182 1.392 . S
N184 C182 1.420 . S
N184 C185 1.244 . S
C185 N184 1.244 . S
H186 C194 0.950 . S
H187 C199 0.950 . S
H188 C196 0.950 . S
H189 C198 0.950 . S
H190 C200 0.950 . S
H191 C202 0.950 . S
H192 C204 0.950 . S
H193 C205 0.950 . S
C194 H186 0.950 . S
C194 C195 1.386 . S
C194 C196 1.391 . S
C195 C194 1.386 . S
C195 C199 1.393 . S
C196 H188 0.950 . S
C196 C194 1.391 . S
C196 C197 1.400 . S
C197 C196 1.400 . S
C197 C198 1.398 . S
C197 C203 1.491 . S
C198 H189 0.950 . S
C198 C197 1.398 . S
C198 C199 1.391 . S
C199 H187 0.950 . S
C199 C195 1.393 . S
C199 C198 1.391 . S
C200 H190 0.950 . S
C200 C201 1.386 . S
C200 C202 1.391 . S
C201 C200 1.386 . S
C201 C205 1.393 . S
C202 H191 0.950 . S
C202 C200 1.391 . S
C202 C203 1.400 . S
C203 C197 1.491 . S
C203 C202 1.400 . S
C203 C204 1.398 . S
C204 H192 0.950 . S
C204 C203 1.398 . S
C204 C205 1.391 . S
C205 H193 0.950 . S
C205 C201 1.393 . S
C205 C204 1.391 . S
H206 C214 0.950 . S
H207 C219 0.950 . S
H208 C216 0.950 . S
H209 C218 0.950 . S
H210 C220 0.950 . S
H211 C222 0.950 . S
H212 C224 0.950 . S
H213 C225 0.950 . S
C214 H206 0.950 . S
C214 C215 1.386 . S
C214 C216 1.391 . S
C215 C214 1.386 . S
C215 C219 1.393 . S
C216 H208 0.950 . S
C216 C214 1.391 . S
C216 C217 1.400 . S
C217 C216 1.400 . S
C217 C218 1.398 . S
C217 C223 1.491 . S
C218 H209 0.950 . S
C218 C217 1.398 . S
C218 C219 1.391 . S
C219 H207 0.950 . S
C219 C215 1.393 . S
C219 C218 1.391 . S
C220 H210 0.950 . S
C220 C221 1.386 . S
C220 C222 1.391 . S
C221 C220 1.386 . S
C221 C225 1.393 . S
C222 H211 0.950 . S
C222 C220 1.391 . S
C222 C223 1.400 . S
C223 C217 1.491 . S
C223 C222 1.400 . S
C223 C224 1.398 . S
C224 H212 0.950 . S
C224 C223 1.398 . S
C224 C225 1.391 . S
C225 H213 0.950 . S
C225 C221 1.393 . S
C225 C224 1.391 . S
H226 C234 0.950 . S
H227 C239 0.950 . S
H228 C236 0.950 . S
H229 C238 0.950 . S
H230 C240 0.950 . S
H231 C242 0.950 . S
H232 C244 0.950 . S
H233 C245 0.950 . S
C234 H226 0.950 . S
C234 C235 1.386 . S
C234 C236 1.391 . S
C235 C234 1.386 . S
C235 C239 1.393 . S
C236 H228 0.950 . S
C236 C234 1.391 . S
C236 C237 1.400 . S
C237 C236 1.400 . S
C237 C238 1.398 . S
C237 C243 1.491 . S
C238 H229 0.950 . S
C238 C237 1.398 . S
C238 C239 1.391 . S
C239 H227 0.950 . S
C239 C235 1.393 . S
C239 C238 1.391 . S
C240 H230 0.950 . S
C240 C241 1.386 . S
C240 C242 1.391 . S
C241 C240 1.386 . S
C241 C245 1.393 . S
C242 H231 0.950 . S
C242 C240 1.391 . S
C242 C243 1.400 . S
C243 C237 1.491 . S
C243 C242 1.400 . S
C243 C244 1.398 . S
C244 H232 0.950 . S
C244 C243 1.398 . S
C244 C245 1.391 . S
C245 H233 0.950 . S
C245 C241 1.393 . S
C245 C244 1.391 . S
H246 C254 0.950 . S
H247 C259 0.950 . S
H248 C256 0.950 . S
H249 C258 0.950 . S
H250 C260 0.950 . S
H251 C262 0.950 . S
H252 C264 0.950 . S
H253 C265 0.950 . S
C254 H246 0.950 . S
C254 C255 1.386 . S
C254 C256 1.391 . S
C255 C254 1.386 . S
C255 C259 1.393 . S
C256 H248 0.950 . S
C256 C254 1.391 . S
C256 C257 1.400 . S
C257 C256 1.400 . S
C257 C258 1.398 . S
C257 C263 1.491 . S
C258 H249 0.950 . S
C258 C257 1.398 . S
C258 C259 1.391 . S
C259 H247 0.950 . S
C259 C255 1.393 . S
C259 C258 1.391 . S
C260 H250 0.950 . S
C260 C261 1.386 . S
C260 C262 1.391 . S
C261 C260 1.386 . S
C261 C265 1.393 . S
C262 H251 0.950 . S
C262 C260 1.391 . S
C262 C263 1.400 . S
C263 C257 1.491 . S
C263 C262 1.400 . S
C263 C264 1.398 . S
C264 H252 0.950 . S
C264 C263 1.398 . S
C264 C265 1.391 . S
C265 H253 0.950 . S
C265 C261 1.393 . S
C265 C264 1.391 . S
H266 C274 0.950 . S
H267 C279 0.950 . S
H268 C276 0.950 . S
H269 C278 0.950 . S
H270 C280 0.950 . S
H271 C282 0.950 . S
H272 C284 0.950 . S
H273 C285 0.950 . S
C274 H266 0.950 . S
C274 C275 1.386 . S
C274 C276 1.391 . S
C275 C274 1.386 . S
C275 C279 1.393 . S
C276 H268 0.950 . S
C276 C274 1.391 . S
C276 C277 1.400 . S
C277 C276 1.400 . S
C277 C278 1.398 . S
C277 C283 1.491 . S
C278 H269 0.950 . S
C278 C277 1.398 . S
C278 C279 1.391 . S
C279 H267 0.950 . S
C279 C275 1.393 . S
C279 C278 1.391 . S
C280 H270 0.950 . S
C280 C281 1.386 . S
C280 C282 1.391 . S
C281 C280 1.386 . S
C281 C285 1.393 . S
C282 H271 0.950 . S
C282 C280 1.391 . S
C282 C283 1.400 . S
C283 C277 1.491 . S
C283 C282 1.400 . S
C283 C284 1.398 . S
C284 H272 0.950 . S
C284 C283 1.398 . S
C284 C285 1.391 . S
C285 H273 0.950 . S
C285 C281 1.393 . S
C285 C284 1.391 . S
H286 C294 0.950 . S
H287 C299 0.950 . S
H288 C296 0.950 . S
H289 C298 0.950 . S
H290 C300 0.950 . S
H291 C302 0.950 . S
H292 C304 0.950 . S
H293 C305 0.950 . S
C294 H286 0.950 . S
C294 C295 1.386 . S
C294 C296 1.391 . S
C295 C294 1.386 . S
C295 C299 1.393 . S
C296 H288 0.950 . S
C296 C294 1.391 . S
C296 C297 1.400 . S
C297 C296 1.400 . S
C297 C298 1.398 . S
C297 C303 1.491 . S
C298 H289 0.950 . S
C298 C297 1.398 . S
C298 C299 1.391 . S
C299 H287 0.950 . S
C299 C295 1.393 . S
C299 C298 1.391 . S
C300 H290 0.950 . S
C300 C301 1.386 . S
C300 C302 1.391 . S
C301 C300 1.386 . S
C301 C305 1.393 . S
C302 H291 0.950 . S
C302 C300 1.391 . S
C302 C303 1.400 . S
C303 C297 1.491 . S
C303 C302 1.400 . S
C303 C304 1.398 . S
C304 H292 0.950 . S
C304 C303 1.398 . S
C304 C305 1.391 . S
C305 H293 0.950 . S
C305 C301 1.393 . S
C305 C304 1.391 . S
H306 C314 0.950 . S
H307 C319 0.950 . S
H308 C316 0.950 . S
H309 C318 0.950 . S
H310 C320 0.950 . S
H311 C322 0.950 . S
H312 C324 0.950 . S
H313 C325 0.950 . S
C314 H306 0.950 . S
C314 C315 1.386 . S
C314 C316 1.391 . S
C315 C314 1.386 . S
C315 C319 1.393 . S
C316 H308 0.950 . S
C316 C314 1.391 . S
C316 C317 1.400 . S
C317 C316 1.400 . S
C317 C318 1.398 . S
C317 C323 1.491 . S
C318 H309 0.950 . S
C318 C317 1.398 . S
C318 C319 1.391 . S
C319 H307 0.950 . S
C319 C315 1.393 . S
C319 C318 1.391 . S
C320 H310 0.950 . S
C320 C321 1.386 . S
C320 C322 1.391 . S
C321 C320 1.386 . S
C321 C325 1.393 . S
C322 H311 0.950 . S
C322 C320 1.391 . S
C322 C323 1.400 . S
C323 C317 1.491 . S
C323 C322 1.400 . S
C323 C324 1.398 . S
C324 H312 0.950 . S
C324 C323 1.398 . S
C324 C325 1.391 . S
C325 H313 0.950 . S
C325 C321 1.393 . S
C325 C324 1.391 . S
H326 C334 0.950 . S
H327 C339 0.950 . S
H328 C336 0.950 . S
H329 C338 0.950 . S
H330 C340 0.950 . S
H331 C342 0.950 . S
H332 C344 0.950 . S
H333 C345 0.950 . S
C334 H326 0.950 . S
C334 C335 1.386 . S
C334 C336 1.391 . S
C335 C334 1.386 . S
C335 C339 1.393 . S
C336 H328 0.950 . S
C336 C334 1.391 . S
C336 C337 1.400 . S
C337 C336 1.400 . S
C337 C338 1.398 . S
C337 C343 1.491 . S
C338 H329 0.950 . S
C338 C337 1.398 . S
C338 C339 1.391 . S
C339 H327 0.950 . S
C339 C335 1.393 . S
C339 C338 1.391 . S
C340 H330 0.950 . S
C340 C341 1.386 . S
C340 C342 1.391 . S
C341 C340 1.386 . S
C341 C345 1.393 . S
C342 H331 0.950 . S
C342 C340 1.391 . S
C342 C343 1.400 . S
C343 C337 1.491 . S
C343 C342 1.400 . S
C343 C344 1.398 . S
C344 H332 0.950 . S
C344 C343 1.398 . S
C344 C345 1.391 . S
C345 H333 0.950 . S
C345 C341 1.393 . S
C345 C344 1.391 . S
H346 C354 0.950 . S
H347 C359 0.950 . S
H348 C356 0.950 . S
H349 C358 0.950 . S
H350 C360 0.950 . S
H351 C362 0.950 . S
H352 C364 0.950 . S
H353 C365 0.950 . S
C354 H346 0.950 . S
C354 C355 1.386 . S
C354 C356 1.391 . S
C355 C354 1.386 . S
C355 C359 1.393 . S
C356 H348 0.950 . S
C356 C354 1.391 . S
C356 C357 1.400 . S
C357 C356 1.400 . S
C357 C358 1.398 . S
C357 C363 1.491 . S
C358 H349 0.950 . S
C358 C357 1.398 . S
C358 C359 1.391 . S
C359 H347 0.950 . S
C359 C355 1.393 . S
C359 C358 1.391 . S
C360 H350 0.950 . S
C360 C361 1.386 . S
C360 C362 1.391 . S
C361 C360 1.386 . S
C361 C365 1.393 . S
C362 H351 0.950 . S
C362 C360 1.391 . S
C362 C363 1.400 . S
C363 C357 1.491 . S
C363 C362 1.400 . S
C363 C364 1.398 . S
C364 H352 0.950 . S
C364 C363 1.398 . S
C364 C365 1.391 . S
C365 H353 0.950 . S
C365 C361 1.393 . S
C365 C364 1.391 . S
H366 C374 0.950 . S
H367 C379 0.950 . S
H368 C376 0.950 . S
H369 C378 0.950 . S
H370 C380 0.950 . S
H371 C382 0.950 . S
H372 C384 0.950 . S
H373 C385 0.950 . S
C374 H366 0.950 . S
C374 C375 1.386 . S
C374 C376 1.391 . S
C375 C374 1.386 . S
C375 C379 1.393 . S
C376 H368 0.950 . S
C376 C374 1.391 . S
C376 C377 1.400 . S
C377 C376 1.400 . S
C377 C378 1.398 . S
C377 C383 1.491 . S
C378 H369 0.950 . S
C378 C377 1.398 . S
C378 C379 1.391 . S
C379 H367 0.950 . S
C379 C375 1.393 . S
C379 C378 1.391 . S
C380 H370 0.950 . S
C380 C381 1.386 . S
C380 C382 1.391 . S
C381 C380 1.386 . S
C381 C385 1.393 . S
C382 H371 0.950 . S
C382 C380 1.391 . S
C382 C383 1.400 . S
C383 C377 1.491 . S
C383 C382 1.400 . S
C383 C384 1.398 . S
C384 H372 0.950 . S
C384 C383 1.398 . S
C384 C385 1.391 . S
C385 H373 0.950 . S
C385 C381 1.393 . S
C385 C384 1.391 . S
H386 C394 0.950 . S
H387 C399 0.950 . S
H388 C396 0.950 . S
H389 C398 0.950 . S
H390 C400 0.950 . S
H391 C402 0.950 . S
H392 C404 0.950 . S
H393 C405 0.950 . S
C394 H386 0.950 . S
C394 C395 1.386 . S
C394 C396 1.391 . S
C395 C394 1.386 . S
C395 C399 1.393 . S
C396 H388 0.950 . S
C396 C394 1.391 . S
C396 C397 1.400 . S
C397 C396 1.400 . S
C397 C398 1.398 . S
C397 C403 1.491 . S
C398 H389 0.950 . S
C398 C397 1.398 . S
C398 C399 1.391 . S
C399 H387 0.950 . S
C399 C395 1.393 . S
C399 C398 1.391 . S
C400 H390 0.950 . S
C400 C401 1.386 . S
C400 C402 1.391 . S
C401 C400 1.386 . S
C401 C405 1.393 . S
C402 H391 0.950 . S
C402 C400 1.391 . S
C402 C403 1.400 . S
C403 C397 1.491 . S
C403 C402 1.400 . S
C403 C404 1.398 . S
C404 H392 0.950 . S
C404 C403 1.398 . S
C404 C405 1.391 . S
C405 H393 0.950 . S
C405 C401 1.393 . S
C405 C404 1.391 . S
H406 C414 0.950 . S
H407 C419 0.950 . S
H408 C416 0.950 . S
H409 C418 0.950 . S
H410 C420 0.950 . S
H411 C422 0.950 . S
H412 C424 0.950 . S
H413 C425 0.950 . S
C414 H406 0.950 . S
C414 C415 1.386 . S
C414 C416 1.391 . S
C415 C414 1.386 . S
C415 C419 1.393 . S
C416 H408 0.950 . S
C416 C414 1.391 . S
C416 C417 1.400 . S
C417 C416 1.400 . S
C417 C418 1.398 . S
C417 C423 1.491 . S
C418 H409 0.950 . S
C418 C417 1.398 . S
C418 C419 1.391 . S
C419 H407 0.950 . S
C419 C415 1.393 . S
C419 C418 1.391 . S
C420 H410 0.950 . S
C420 C421 1.386 . S
C420 C422 1.391 . S
C421 C420 1.386 . S
C421 C425 1.393 . S
C422 H411 0.950 . S
C422 C420 1.391 . S
C422 C423 1.400 . S
C423 C417 1.491 . S
C423 C422 1.400 . S
C423 C424 1.398 . S
C424 H412 0.950 . S
C424 C423 1.398 . S
C424 C425 1.391 . S
C425 H413 0.950 . S
C425 C421 1.393 . S
C425 C424 1.391 . S
H426 C434 0.950 . S
H427 C439 0.950 . S
H428 C436 0.950 . S
H429 C438 0.950 . S
H430 C440 0.950 . S
H431 C442 0.950 . S
H432 C444 0.950 . S
H433 C445 0.950 . S
C434 H426 0.950 . S
C434 C435 1.386 . S
C434 C436 1.391 . S
C435 C434 1.386 . S
C435 C439 1.393 . S
C436 H428 0.950 . S
C436 C434 1.391 . S
C436 C437 1.400 . S
C437 C436 1.400 . S
C437 C438 1.398 . S
C437 C443 1.491 1_554 S
C438 H429 0.950 . S
C438 C437 1.398 . S
C438 C439 1.391 . S
C439 H427 0.950 . S
C439 C435 1.393 . S
C439 C438 1.391 . S
C440 H430 0.950 . S
C440 C441 1.386 . S
C440 C442 1.391 . S
C441 C440 1.386 . S
C441 C445 1.393 . S
C442 H431 0.950 . S
C442 C440 1.391 . S
C442 C443 1.400 . S
C443 C437 1.491 1_556 S
C443 C442 1.400 . S
C443 C444 1.398 . S
C444 H432 0.950 . S
C444 C443 1.398 . S
C444 C445 1.391 . S
C445 H433 0.950 . S
C445 C441 1.393 . S
C445 C444 1.391 . S
H446 C454 0.950 . S
H447 C459 0.950 . S
H448 C456 0.950 . S
H449 C458 0.950 . S
H450 C460 0.950 . S
H451 C462 0.950 . S
H452 C464 0.950 . S
H453 C465 0.951 . S
C454 H446 0.950 . S
C454 C455 1.386 . S
C454 C456 1.391 . S
C455 C454 1.386 . S
C455 C459 1.393 . S
C456 H448 0.950 . S
C456 C454 1.391 . S
C456 C457 1.400 . S
C457 C456 1.400 . S
C457 C458 1.398 . S
C457 C463 1.491 . S
C458 H449 0.950 . S
C458 C457 1.398 . S
C458 C459 1.391 . S
C459 H447 0.950 . S
C459 C455 1.393 . S
C459 C458 1.391 . S
C460 H450 0.950 . S
C460 C461 1.386 . S
C460 C462 1.391 . S
C461 C460 1.386 . S
C461 C465 1.393 . S
C462 H451 0.950 . S
C462 C460 1.391 . S
C462 C463 1.400 . S
C463 C457 1.491 . S
C463 C462 1.400 . S
C463 C464 1.398 . S
C464 H452 0.950 . S
C464 C463 1.398 . S
C464 C465 1.391 . S
C465 H453 0.951 . S
C465 C461 1.393 . S
C465 C464 1.391 . S
H466 C474 0.950 . S
H467 C479 0.950 . S
H468 C476 0.950 . S
H469 C478 0.950 . S
H470 C480 0.950 . S
H471 C482 0.950 . S
H472 C484 0.950 . S
H473 C485 0.950 . S
C474 H466 0.950 . S
C474 C475 1.386 . S
C474 C476 1.391 . S
C475 C474 1.386 . S
C475 C479 1.393 . S
C476 H468 0.950 . S
C476 C474 1.391 . S
C476 C477 1.400 . S
C477 C476 1.400 . S
C477 C478 1.398 . S
C477 C483 1.491 . S
C478 H469 0.950 . S
C478 C477 1.398 . S
C478 C479 1.391 . S
C479 H467 0.950 . S
C479 C475 1.393 . S
C479 C478 1.391 . S
C480 H470 0.950 . S
C480 C481 1.386 . S
C480 C482 1.391 . S
C481 C480 1.386 . S
C481 C485 1.393 . S
C482 H471 0.950 . S
C482 C480 1.391 . S
C482 C483 1.400 . S
C483 C477 1.491 . S
C483 C482 1.400 . S
C483 C484 1.398 . S
C484 H472 0.950 . S
C484 C483 1.398 . S
C484 C485 1.391 . S
C485 H473 0.950 . S
C485 C481 1.393 . S
C485 C484 1.391 . S
H486 C494 0.950 . S
H487 C499 0.936 1_565 S
H488 C496 0.950 . S
H489 C498 0.950 1_565 S
H490 C500 0.950 . S
H491 C502 0.950 1_565 S
H492 C504 0.950 . S
H493 C505 0.950 . S
C494 H486 0.950 . S
C494 C495 1.386 . S
C494 C496 1.391 . S
C495 C494 1.386 . S
C495 C499 1.393 . S
C496 H488 0.950 . S
C496 C494 1.391 . S
C496 C497 1.400 . S
C497 C496 1.400 . S
C497 C498 1.398 . S
C497 C503 1.491 . S
C498 H489 0.950 1_545 S
C498 C497 1.398 . S
C498 C499 1.391 . S
C499 H487 0.936 1_545 S
C499 C495 1.393 . S
C499 C498 1.391 . S
C500 H490 0.950 . S
C500 C501 1.386 1_565 S
C500 C502 1.391 1_565 S
C501 C500 1.386 1_545 S
C501 C505 1.393 . S
C502 H491 0.950 1_545 S
C502 C500 1.391 1_545 S
C502 C503 1.400 . S
C503 C497 1.491 . S
C503 C502 1.400 . S
C503 C504 1.398 . S
C504 H492 0.950 . S
C504 C503 1.398 . S
C504 C505 1.391 . S
C505 H493 0.950 . S
C505 C501 1.393 . S
C505 C504 1.391 . S
H506 C514 0.950 . S
H507 C519 0.950 . S
H508 C516 0.950 . S
H509 C518 0.950 . S
H510 C520 0.950 . S
H511 C522 0.950 1_556 S
H512 C524 0.950 . S
H513 C525 0.950 . S
C514 H506 0.950 . S
C514 C515 1.386 . S
C514 C516 1.391 . S
C515 C514 1.386 . S
C515 C519 1.393 . S
C516 H508 0.950 . S
C516 C514 1.391 . S
C516 C517 1.400 . S
C517 C516 1.400 . S
C517 C518 1.398 . S
C517 C523 1.491 . S
C518 H509 0.950 . S
C518 C517 1.398 . S
C518 C519 1.391 . S
C519 H507 0.950 . S
C519 C515 1.393 . S
C519 C518 1.391 . S
C520 H510 0.950 . S
C520 C521 1.386 . S
C520 C522 1.391 . S
C521 C520 1.386 . S
C521 C525 1.393 . S
C522 H511 0.950 1_554 S
C522 C520 1.391 . S
C522 C523 1.400 1_554 S
C523 C517 1.491 . S
C523 C522 1.400 1_556 S
C523 C524 1.398 1_556 S
C524 H512 0.950 . S
C524 C523 1.398 1_554 S
C524 C525 1.391 . S
C525 H513 0.950 . S
C525 C521 1.393 . S
C525 C524 1.391 . S
H526 C534 0.950 1_655 S
H527 C539 0.950 . S
H528 C536 0.950 1_655 S
H529 C538 0.950 . S
H530 C540 0.950 . S
H531 C542 0.950 . S
H532 C544 0.950 . S
H533 C545 0.950 . S
C534 H526 0.950 1_455 S
C534 C535 1.386 . S
C534 C536 1.391 . S
C535 C534 1.386 . S
C535 C539 1.393 . S
C536 H528 0.950 1_455 S
C536 C534 1.391 . S
C536 C537 1.400 . S
C537 C536 1.400 . S
C537 C538 1.398 . S
C537 C543 1.491 . S
C538 H529 0.950 . S
C538 C537 1.398 . S
C538 C539 1.391 . S
C539 H527 0.950 . S
C539 C535 1.393 . S
C539 C538 1.391 . S
C540 H530 0.950 . S
C540 C541 1.386 . S
C540 C542 1.391 . S
C541 C540 1.386 . S
C541 C545 1.393 1_455 S
C542 H531 0.950 . S
C542 C540 1.391 . S
C542 C543 1.400 . S
C543 C537 1.491 . S
C543 C542 1.400 . S
C543 C544 1.398 1_455 S
C544 H532 0.950 . S
C544 C543 1.398 1_655 S
C544 C545 1.391 . S
C545 H533 0.950 . S
C545 C541 1.393 1_655 S
C545 C544 1.391 . S
C195 C9 0.582 . S
C201 C185 0.576 . S
C215 C49 0.388 . S
C221 C163 0.366 . S
C235 C89 0.369 . S
C241 C174 0.333 . S
C255 C26 0.315 . S
C261 C179 0.279 . S
C281 C157 0.178 . S
C275 C66 0.377 . S
C301 C168 0.250 . S
C295 C106 0.444 . S
C315 C43 3.041 . S
C321 C141 2.973 . S
C335 C83 3.000 . S
C341 C146 2.946 . S
C355 C22 3.038 . S
C361 C124 2.987 1_565 S
C381 C135 2.986 . S
C375 C62 3.034 . S
C401 C152 2.997 . S
C395 C102 3.059 . S
C415 C3 3.039 . S
C421 C130 2.985 . S
C441 C147 1.735 . S
C435 C15 1.700 . S
C455 C55 1.737 . S
C461 C125 1.753 . S
C475 C95 1.717 . S
C481 C136 1.754 . S
C501 C169 1.226 . S
C495 C42 1.210 . S
C521 C180 1.228 . S
C515 C82 1.212 . S
C535 C2 1.171 . S
C541 C158 1.199 . S
