# Generated by pormake.
# Topology tsx, (6,3)-cn, num edge types: 1
# Building blocks:
#     Node 0, Type 0, BuildingBlock: MIDCAF_clean_sbu_0, # of connection points: 6
#     Node 1, Type 0, BuildingBlock: MIDCAF_clean_sbu_0, # of connection points: 6
#     Node 2, Type 1, BuildingBlock: PAMTOO_clean_linker_0, # of connection points: 3
#     Node 3, Type 1, BuildingBlock: PAMTOO_clean_linker_0, # of connection points: 3
#     Node 4, Type 1, BuildingBlock: PAMTOO_clean_linker_0, # of connection points: 3
#     Node 5, Type 1, BuildingBlock: PAMTOO_clean_linker_0, # of connection points: 3
#     Edge 6, Type (0, 1), BuildingBlock: KIFKEQ_clean_linker_1, # of connection points: 2
#     Edge 7, Type (0, 1), BuildingBlock: KIFKEQ_clean_linker_1, # of connection points: 2
#     Edge 8, Type (0, 1), BuildingBlock: KIFKEQ_clean_linker_1, # of connection points: 2
#     Edge 9, Type (0, 1), BuildingBlock: KIFKEQ_clean_linker_1, # of connection points: 2
#     Edge 10, Type (0, 1), BuildingBlock: KIFKEQ_clean_linker_1, # of connection points: 2
#     Edge 11, Type (0, 1), BuildingBlock: KIFKEQ_clean_linker_1, # of connection points: 2
#     Edge 12, Type (0, 1), BuildingBlock: KIFKEQ_clean_linker_1, # of connection points: 2
#     Edge 13, Type (0, 1), BuildingBlock: KIFKEQ_clean_linker_1, # of connection points: 2
#     Edge 14, Type (0, 1), BuildingBlock: KIFKEQ_clean_linker_1, # of connection points: 2
#     Edge 15, Type (0, 1), BuildingBlock: KIFKEQ_clean_linker_1, # of connection points: 2
#     Edge 16, Type (0, 1), BuildingBlock: KIFKEQ_clean_linker_1, # of connection points: 2
#     Edge 17, Type (0, 1), BuildingBlock: KIFKEQ_clean_linker_1, # of connection points: 2
# Relax obj value: 0.096
# Max RMSD: 0.163
# Mean RMSD: 0.128
data_MOF--net-tsx--node1-MIDCAF_clean_sbu_0--node2-PAMTOO_clean_linker_0--edge1-KIFKEQ_clean_linker_1
_symmetry_space_group_name_H-M    P1
_symmetry_Int_Tables_number       1
_symmetry_cell_setting            triclinic
loop_
_symmetry_equiv_pos_as_xyz
'x, y, z'
_cell_length_a     19.662179
_cell_length_b     21.330741
_cell_length_c     35.813111
_cell_angle_alpha  82.043518
_cell_angle_beta   98.836909
_cell_angle_gamma 89.658078
loop_
_atom_site_label
_atom_site_type_symbol
_atom_site_fract_x
_atom_site_fract_y
_atom_site_fract_z
_atom_type_partial_charge
Zn0 Zn 0.94221 0.93586 0.95387 0.0
Zn1 Zn 0.10398 0.87542 0.05837 0.0
Zn2 Zn 0.04123 0.92003 1.0026 0.0
C3 C 0.1566 0.99537 0.03949 0.0
C4 C 0.14032 0.81079 0.00691 0.0
O5 O 0.97557 0.84897 0.02315 0.0
O6 O 0.88289 0.87366 0.98077 0.0
C7 C 0.97401 0.05467 0.98107 0.0
O8 O 0.09198 0.00086 0.02544 0.0
O9 O 0.18128 0.94054 0.05328 0.0
O10 O 0.11537 0.79435 0.03726 0.0
O11 O 0.12827 0.86757 0.98958 0.0
O12 O 0.93487 0.02952 0.95617 0.0
O13 O 1.02003 0.0206 0.00498 0.0
O14 O 0.08874 0.91082 0.95261 0.0
O15 O 0.9912 0.90916 0.91313 0.0
C16 C 0.05631 0.90553 0.91936 0.0
O17 O 0.03083 0.98271 0.04612 0.0
O18 O 0.03002 0.89835 0.08888 0.0
C19 C 0.91305 0.83921 0.01036 0.0
C20 C 1.01807 0.9573 0.07909 0.0
Zn21 Zn 0.68521 0.54994 0.53987 0.0
Zn22 Zn 0.44881 0.5935 0.46363 0.0
Zn23 Zn 0.56533 0.57193 0.50208 0.0
C24 C 0.52355 0.54033 0.41657 0.0
C25 C 0.48833 0.71026 0.47749 0.0
O26 O 0.55067 0.52675 0.56003 0.0
O27 O 0.65832 0.51882 0.58968 0.0
C28 C 0.6862 0.47959 0.4829 0.0
O29 O 0.56549 0.5299 0.44839 0.0
O30 O 0.46903 0.57291 0.41448 0.0
O31 O 0.43366 0.68292 0.46686 0.0
O32 O 0.54509 0.67777 0.4894 0.0
O33 O 0.72396 0.48786 0.51341 0.0
O34 O 0.62675 0.50846 0.47298 0.0
O35 O 0.61397 0.66661 0.50609 0.0
O36 O 0.72052 0.63582 0.53155 0.0
C37 C 0.67732 0.67976 0.51706 0.0
O38 O 0.48924 0.52041 0.53543 0.0
O39 O 0.39546 0.53241 0.49232 0.0
C40 C 0.5949 0.51192 0.5906 0.0
C41 C 0.42567 0.50768 0.52467 0.0
H42 H 0.19914 0.04905 0.33427 0.0
H43 H 1.02023 0.16588 0.33545 0.0
H44 H 0.15668 0.10467 0.43972 0.0
H45 H 0.99999 0.11047 0.44782 0.0
C46 C 0.98448 0.14176 0.42023 0.0
O47 O 0.04272 0.16903 0.40857 0.0
H48 H 0.95916 0.11235 0.39897 0.0
C49 C 0.16821 0.07579 0.34948 0.0
C50 C 0.18684 0.07436 0.38916 0.0
C51 C 0.10758 0.10772 0.32977 0.0
C52 C 0.06673 0.14035 0.35006 0.0
C53 C 0.08418 0.13886 0.38954 0.0
C54 C 0.14386 0.10571 0.40911 0.0
H55 H 0.20006 0.11269 0.67327 0.0
H56 H 0.04026 0.9905 0.63156 0.0
H57 H 0.08831 0.15613 0.55929 0.0
H58 H 0.92465 0.11499 0.54396 0.0
C59 C 0.93939 0.07072 0.5639 0.0
O60 O 1.00873 0.05741 0.56465 0.0
H61 H 0.92882 0.07852 0.5926 0.0
C62 C 0.16177 0.09997 0.65062 0.0
C63 C 0.15069 0.13929 0.61527 0.0
C64 C 0.12084 0.04691 0.65741 0.0
C65 C 0.07109 0.03205 0.62748 0.0
C66 C 0.05853 0.07175 0.5925 0.0
C67 C 0.09797 0.12564 0.5865 0.0
H68 H 0.71583 0.42084 0.87463 0.0
H69 H 0.53974 0.54107 0.87625 0.0
H70 H 0.66982 0.46828 0.98106 0.0
H71 H 0.52452 0.47652 0.99206 0.0
C72 C 0.50481 0.50577 0.96427 0.0
O73 O 0.55906 0.53656 0.9503 0.0
H74 H 0.48062 0.47344 0.94444 0.0
C75 C 0.68453 0.44678 0.89005 0.0
C76 C 0.70098 0.44159 0.92996 0.0
C77 C 0.62644 0.48234 0.8701 0.0
C78 C 0.58462 0.51307 0.89083 0.0
C79 C 0.60051 0.50795 0.93068 0.0
C80 C 0.65846 0.47232 0.95022 0.0
H81 H 0.67186 0.49302 0.16697 0.0
H82 H 0.51914 0.35141 0.15325 0.0
H83 H 0.61317 0.42975 0.05754 0.0
H84 H 0.46194 0.40024 0.03327 0.0
C85 C 0.45672 0.37474 0.06188 0.0
O86 O 0.52101 0.35253 0.08031 0.0
H87 H 0.43404 0.40852 0.07799 0.0
C88 C 0.64351 0.46153 0.14933 0.0
C89 C 0.64997 0.46592 0.11049 0.0
C90 C 0.59685 0.42027 0.16514 0.0
C91 C 0.55629 0.38276 0.14172 0.0
C92 C 0.56221 0.38677 0.103 0.0
C93 C 0.60933 0.42755 0.08754 0.0
H94 H 0.12097 0.11816 0.00972 0.0
H95 H 0.28712 0.00059 0.07796 0.0
H96 H 0.19097 0.21154 0.01547 0.0
H97 H 0.35688 0.09395 0.08359 0.0
H98 H 0.4304 0.28386 0.11892 0.0
H99 H 0.35552 0.19326 0.11409 0.0
H100 H 0.29999 0.25358 0.99292 0.0
H101 H 0.37525 0.34416 0.99786 0.0
C102 C 0.17229 0.11224 0.02596 0.0
C103 C 0.19855 0.052 0.04335 0.0
C104 C 0.21244 0.16565 0.0291 0.0
C105 C 0.27929 0.15992 0.04998 0.0
C106 C 0.30525 0.0998 0.06764 0.0
C107 C 0.2654 0.04635 0.06423 0.0
C108 C 0.40231 0.27745 0.09129 0.0
C109 C 0.40941 0.32006 0.05864 0.0
C110 C 0.35964 0.22572 0.08851 0.0
C111 C 0.32242 0.2162 0.05309 0.0
C112 C 0.32793 0.25996 0.0206 0.0
C113 C 0.37118 0.31144 0.02335 0.0
H114 H 0.22628 0.83422 0.9529 0.0
H115 H 0.16105 0.68578 0.03365 0.0
H116 H 0.3151 0.76184 0.94053 0.0
H117 H 0.24841 0.61424 0.02109 0.0
H118 H 0.46505 0.5338 0.03026 0.0
H119 H 0.37492 0.60887 0.03694 0.0
H120 H 0.33389 0.66036 0.91443 0.0
H121 H 0.42493 0.58515 0.90795 0.0
C122 C 0.23016 0.78605 0.96752 0.0
C123 C 0.18733 0.76603 0.99465 0.0
C124 C 0.28093 0.74467 0.96047 0.0
C125 C 0.28959 0.68279 0.98048 0.0
C126 C 0.24424 0.6621 0.00599 0.0
C127 C 0.19381 0.70311 0.01298 0.0
C128 C 0.43679 0.56128 0.00484 0.0
C129 C 0.45118 0.55354 0.96858 0.0
C130 C 0.38506 0.60402 0.00857 0.0
C131 C 0.34682 0.64003 0.97614 0.0
C132 C 0.36261 0.63346 0.9399 0.0
C133 C 0.41427 0.59039 0.93617 0.0
H134 H 0.97037 0.73162 0.0544 0.0
H135 H 0.77489 0.82351 0.00428 0.0
H136 H 0.91105 0.63668 0.07626 0.0
H137 H 0.71526 0.73014 0.02761 0.0
H138 H 0.62555 0.53906 0.0402 0.0
H139 H 0.69309 0.62584 0.01586 0.0
H140 H 0.8405 0.5932 0.11989 0.0
H141 H 0.77608 0.50304 0.14283 0.0
C142 C 0.91463 0.73189 0.04874 0.0
C143 C 0.87719 0.78479 0.0276 0.0
C144 C 0.88056 0.6775 0.06124 0.0
C145 C 0.80829 0.67534 0.05333 0.0
C146 C 0.77099 0.72932 0.03329 0.0
C147 C 0.80507 0.78319 0.0203 0.0
C148 C 0.67334 0.54915 0.05748 0.0
C149 C 0.6949 0.51435 0.09374 0.0
C150 C 0.7115 0.59983 0.0438 0.0
C151 C 0.77155 0.61756 0.06625 0.0
C152 C 0.79467 0.58099 0.10174 0.0
C153 C 0.75712 0.5297 0.11515 0.0
H154 H 0.952 0.1109 0.04243 0.0
H155 H 0.96547 0.14908 0.92251 0.0
H156 H 0.9036 0.21802 0.03995 0.0
H157 H 0.91676 0.25475 0.91951 0.0
H158 H 0.83262 0.44269 0.91495 0.0
H159 H 0.92137 0.35964 0.93696 0.0
H160 H 0.7892 0.26189 0.01046 0.0
H161 H 0.70149 0.34603 0.98915 0.0
C162 C 0.94733 0.14319 0.01601 0.0
C163 C 0.96273 0.12232 0.98272 0.0
C164 C 0.91879 0.20412 0.0144 0.0
C165 C 0.90586 0.24497 0.97949 0.0
C166 C 0.92672 0.22522 0.94701 0.0
C167 C 0.95439 0.16448 0.94859 0.0
C168 C 0.82353 0.40426 0.93662 0.0
C169 C 0.75989 0.40004 0.94988 0.0
C170 C 0.8742 0.35667 0.94918 0.0
C171 C 0.86187 0.3034 0.97486 0.0
C172 C 0.80067 0.30232 0.99082 0.0
C173 C 0.75019 0.35039 0.97851 0.0
H174 H 0.7976 0.71528 0.49534 0.0
H175 H 0.61722 0.79033 0.53069 0.0
H176 H 0.85572 0.81415 0.5021 0.0
H177 H 0.67633 0.89061 0.53787 0.0
H178 H 0.80918 0.07579 0.52227 0.0
H179 H 0.73708 0.98714 0.50494 0.0
H180 H 0.89915 0.85536 0.56321 0.0
H181 H 0.9702 0.94296 0.58044 0.0
C182 C 0.76984 0.75362 0.50386 0.0
C183 C 0.70315 0.74495 0.51285 0.0
C184 C 0.80334 0.81014 0.50795 0.0
C185 C 0.77131 0.85959 0.52141 0.0
C186 C 0.70238 0.85314 0.52755 0.0
C187 C 0.66841 0.79601 0.52328 0.0
C188 C 0.82936 0.02774 0.53098 0.0
C189 C 0.89618 0.01641 0.55172 0.0
C190 C 0.78797 0.97716 0.52132 0.0
C191 C 0.81283 0.91434 0.53218 0.0
C192 C 0.87905 0.90325 0.55363 0.0
C193 C 0.9199 0.95351 0.56353 0.0
H194 H 0.64779 0.35831 0.48081 0.0
H195 H 0.7869 0.4968 0.43928 0.0
H196 H 0.71215 0.27468 0.45971 0.0
H197 H 0.85265 0.41365 0.41897 0.0
H198 H 0.94455 0.25177 0.37167 0.0
H199 H 0.86059 0.33304 0.37846 0.0
H200 H 0.82272 0.2243 0.48405 0.0
H201 H 0.90517 0.14288 0.47642 0.0
C202 C 0.69083 0.37095 0.46594 0.0
C203 C 0.71164 0.43391 0.46076 0.0
C204 C 0.72836 0.3231 0.45438 0.0
C205 C 0.78821 0.33721 0.43806 0.0
C206 C 0.80652 0.40099 0.43101 0.0
C207 C 0.76883 0.44875 0.4425 0.0
C208 C 0.91838 0.24568 0.39638 0.0
C209 C 0.93309 0.19226 0.42433 0.0
C210 C 0.87023 0.29207 0.40026 0.0
C211 C 0.83507 0.2856 0.43192 0.0
C212 C 0.8482 0.23082 0.4591 0.0
C213 C 0.89626 0.18456 0.45516 0.0
H214 H 0.28789 0.49324 0.5149 0.0
H215 H 0.47571 0.41514 0.58511 0.0
H216 H 0.2244 0.40685 0.54158 0.0
H217 H 0.41049 0.32928 0.61432 0.0
H218 H 0.28875 0.14272 0.614 0.0
H219 H 0.35719 0.23566 0.59928 0.0
H220 H 0.17591 0.35602 0.5909 0.0
H221 H 0.10755 0.26252 0.60293 0.0
C222 C 0.31554 0.45832 0.53692 0.0
C223 C 0.38721 0.46113 0.54761 0.0
C224 C 0.27865 0.40863 0.55267 0.0
C225 C 0.31183 0.36033 0.58024 0.0
C226 C 0.38314 0.36492 0.59269 0.0
C227 C 0.42052 0.41474 0.57642 0.0
C228 C 0.26402 0.1893 0.60897 0.0
C229 C 0.19292 0.19578 0.60888 0.0
C230 C 0.30326 0.24272 0.60096 0.0
C231 C 0.27234 0.30387 0.59342 0.0
C232 C 0.20151 0.30992 0.59537 0.0
C233 C 0.16215 0.25648 0.60246 0.0
H234 H 0.46044 0.78255 0.53018 0.0
H235 H 0.49715 0.7916 0.41416 0.0
H236 H 0.40207 0.88654 0.51456 0.0
H237 H 0.43681 0.89366 0.39771 0.0
H238 H 0.3164 0.07356 0.37014 0.0
H239 H 0.41277 0.00087 0.3984 0.0
H240 H 0.29102 0.91418 0.48139 0.0
H241 H 0.19627 0.98835 0.45392 0.0
C242 C 0.45898 0.80837 0.50179 0.0
C243 C 0.48405 0.77971 0.47347 0.0
C244 C 0.4242 0.86736 0.49252 0.0
C245 C 0.41274 0.89814 0.45455 0.0
C246 C 0.44457 0.87212 0.42729 0.0
C247 C 0.47982 0.81354 0.43671 0.0
C248 C 0.3109 0.03955 0.39485 0.0
C249 C 0.24853 0.03626 0.40958 0.0
C250 C 0.36608 -0.00229 0.41103 0.0
C251 C 0.35996 0.95081 0.44205 0.0
C252 C 0.29862 0.95 0.45798 0.0
C253 C 0.24382 0.9924 0.44208 0.0
H254 H 0.06538 0.07588 0.08617 0.0
H255 H 0.9547 0.92453 0.14084 0.0
H256 H 0.07702 0.12694 0.1438 0.0
H257 H 0.96677 0.97495 0.19841 0.0
H258 H 0.97756 0.08628 0.29527 0.0
H259 H 0.94142 0.06563 0.22997 0.0
H260 H 0.14908 0.09383 0.20679 0.0
H261 H 0.18485 0.11622 0.27183 0.0
C262 C 0.0414 0.0547 0.10999 0.0
C263 C 1.00905 0.99623 0.10908 0.0
C264 C 0.04881 0.08354 0.14315 0.0
C265 C 1.02353 0.05463 0.17582 0.0
C266 C 0.98642 -0.00124 0.1737 0.0
C267 C 0.97958 0.96973 0.14074 0.0
C268 C 1.01516 0.08968 0.27598 0.0
C269 C 0.08426 0.10249 0.28883 0.0
C270 C 0.9945 0.07736 0.23864 0.0
C271 C 0.04238 0.07778 0.21324 0.0
C272 C 0.11071 0.09374 0.2255 0.0
C273 C 0.13145 0.10581 0.26291 0.0
H274 H 1.02411 0.83211 0.86384 0.0
H275 H 0.16717 0.97202 0.90058 0.0
H276 H 0.05596 0.85082 0.80021 0.0
H277 H 0.19741 0.99286 0.83625 0.0
H278 H 0.23605 0.01441 0.71186 0.0
H279 H 0.2389 0.96306 0.77776 0.0
H280 H 1.01788 0.94717 0.75661 0.0
H281 H 1.0146 -0.00091 0.69209 0.0
C282 C 0.06412 0.8654 0.85853 0.0
C283 C 0.09252 0.90134 0.88674 0.0
C284 C 0.08201 0.87649 0.82207 0.0
C285 C 0.12753 0.92473 0.81291 0.0
C286 C 0.16202 0.9555 0.84239 0.0
C287 C 0.14482 0.94357 0.87924 0.0
C288 C 0.18817 -0.00037 0.72132 0.0
C289 C 0.12511 0.01063 0.69642 0.0
C290 C 0.18995 0.96998 0.75898 0.0
C291 C 0.1288 0.95021 0.77226 0.0
C292 C 0.06625 0.96005 0.74707 0.0
C293 C 0.06438 0.98995 0.70984 0.0
H294 H 0.65358 0.41695 0.64323 0.0
H295 H 0.49295 0.5618 0.62283 0.0
H296 H 0.64891 0.40483 0.71138 0.0
H297 H 0.48901 0.5505 0.69178 0.0
H298 H 0.7161 0.49554 0.81882 0.0
H299 H 0.69219 0.49195 0.75064 0.0
H300 H 0.4752 0.47594 0.75632 0.0
H301 H 0.4993 0.47783 0.82555 0.0
C302 C 0.61558 0.44467 0.65331 0.0
C303 C 0.57423 0.49081 0.62803 0.0
C304 C 0.61327 0.4381 0.6923 0.0
C305 C 0.57004 0.47802 0.70688 0.0
C306 C 0.52307 0.51939 0.68124 0.0
C307 C 0.52505 0.52566 0.64185 0.0
C308 C 0.66328 0.4906 0.80579 0.0
C309 C 0.60984 0.48589 0.82785 0.0
C310 C 0.64957 0.48856 0.76668 0.0
C311 C 0.58197 0.48229 0.74835 0.0
C312 C 0.5278 0.48037 0.76985 0.0
C313 C 0.54166 0.48182 0.80936 0.0
H314 H 0.47922 0.5925 0.34356 0.0
H315 H 0.59527 0.43244 0.41039 0.0
H316 H 0.49605 0.55231 0.28521 0.0
H317 H 0.61579 0.39343 0.3516 0.0
H318 H 0.69461 0.41466 0.22876 0.0
H319 H 0.67757 0.4359 0.29228 0.0
H320 H 0.45814 0.45293 0.25442 0.0
H321 H 0.47503 0.43179 0.1911 0.0
C322 C 0.50908 0.54891 0.34583 0.0
C323 C 0.5377 0.51627 0.38167 0.0
C324 C 0.51844 0.52582 0.3124 0.0
C325 C 0.55698 0.46971 0.31396 0.0
C326 C 0.58636 0.43717 0.34968 0.0
C327 C 0.5759 0.45995 0.38329 0.0
C328 C 0.64271 0.42178 0.23434 0.0
C329 C 0.58613 0.42197 0.20504 0.0
C330 C 0.633 0.43358 0.27063 0.0
C331 C 0.56666 0.44664 0.27798 0.0
C332 C 0.50987 0.4435 0.24929 0.0
C333 C 0.51947 0.43093 0.2132 0.0
loop_
_geom_bond_atom_site_label_1
_geom_bond_atom_site_label_2
_geom_bond_distance
_geom_bond_site_symmetry_2
_ccdc_geom_bond_type
Zn0 O6 1.920 1_545 S
Zn0 O12 1.898 . S
Zn0 O15 1.905 1_545 S
Zn1 O9 1.899 1_565 S
Zn1 O10 1.903 . S
Zn1 O18 1.922 . S
Zn2 O5 2.080 1_445 S
Zn2 O8 2.114 1_554 S
Zn2 O11 2.120 1_545 S
Zn2 O13 2.120 1_455 S
Zn2 O14 2.114 1_554 S
Zn2 O17 2.080 . S
C3 O8 1.166 1_554 S
C3 O9 1.182 . S
C4 O10 1.167 . S
C4 O11 1.299 . S
O5 Zn2 2.080 1_665 S
O5 C19 1.305 . S
O6 Zn0 1.920 1_565 S
O6 C19 1.234 1_556 S
C7 O12 1.167 . S
C7 O13 1.299 1_556 S
O8 Zn2 2.114 1_556 S
O8 C3 1.166 1_556 S
O9 Zn1 1.899 1_545 S
O9 C3 1.182 . S
O10 Zn1 1.903 . S
O10 C4 1.167 . S
O11 Zn2 2.120 1_565 S
O11 C4 1.299 . S
O12 Zn0 1.898 . S
O12 C7 1.167 . S
O13 Zn2 2.120 1_655 S
O13 C7 1.299 1_554 S
O14 Zn2 2.114 1_556 S
O14 C16 1.166 1_545 S
O15 Zn0 1.905 1_565 S
O15 C16 1.182 1_655 S
C16 O14 1.166 1_565 S
C16 O15 1.182 1_455 S
O17 Zn2 2.080 . S
O17 C20 1.305 1_545 S
O18 Zn1 1.922 . S
O18 C20 1.234 . S
C19 O5 1.305 . S
C19 O6 1.234 1_554 S
C20 O17 1.305 1_565 S
C20 O18 1.234 . S
Zn21 O27 1.920 . S
Zn21 O33 1.898 . S
Zn21 O36 1.905 . S
Zn22 O30 1.905 . S
Zn22 O31 1.898 . S
Zn22 O39 1.920 . S
Zn23 O26 2.080 . S
Zn23 O29 2.114 . S
Zn23 O32 2.120 . S
Zn23 O34 2.120 . S
Zn23 O35 2.114 . S
Zn23 O38 2.080 . S
C24 O29 1.166 . S
C24 O30 1.182 . S
C25 O31 1.167 . S
C25 O32 1.299 . S
O26 Zn23 2.080 . S
O26 C40 1.305 . S
O27 Zn21 1.920 . S
O27 C40 1.234 . S
C28 O33 1.167 . S
C28 O34 1.299 . S
O29 Zn23 2.114 . S
O29 C24 1.166 . S
O30 Zn22 1.905 . S
O30 C24 1.182 . S
O31 Zn22 1.898 . S
O31 C25 1.167 . S
O32 Zn23 2.120 . S
O32 C25 1.299 . S
O33 Zn21 1.898 . S
O33 C28 1.167 . S
O34 Zn23 2.120 . S
O34 C28 1.299 . S
O35 Zn23 2.114 . S
O35 C37 1.166 . S
O36 Zn21 1.905 . S
O36 C37 1.182 . S
C37 O35 1.166 . S
C37 O36 1.182 . S
O38 Zn23 2.080 . S
O38 C41 1.305 . S
O39 Zn22 1.920 . S
O39 C41 1.234 . S
C40 O26 1.305 . S
C40 O27 1.234 . S
C41 O38 1.305 . S
C41 O39 1.234 . S
H42 C49 0.929 . S
H43 C52 0.930 . S
H44 C54 0.929 . S
H45 C46 0.969 . S
C46 H45 0.969 . S
C46 O47 1.550 1_655 S
C46 H48 0.973 . S
O47 C46 1.550 1_455 S
O47 C53 1.412 . S
H48 C46 0.973 . S
C49 H42 0.929 . S
C49 C50 1.400 . S
C49 C51 1.364 1_565 S
C50 C49 1.400 . S
C50 C54 1.377 . S
C51 C49 1.364 1_545 S
C51 C52 1.374 . S
C52 H43 0.930 . S
C52 C51 1.374 . S
C52 C53 1.383 . S
C53 O47 1.412 . S
C53 C52 1.383 . S
C53 C54 1.394 1_545 S
C54 H44 0.929 . S
C54 C50 1.377 . S
C54 C53 1.394 1_565 S
H55 C62 0.929 . S
H56 C65 0.930 1_565 S
H57 C67 0.929 . S
H58 C59 0.969 . S
C59 H58 0.969 . S
C59 O60 1.550 . S
C59 H61 0.973 . S
O60 C59 1.550 . S
O60 C66 1.412 1_565 S
H61 C59 0.973 . S
C62 H55 0.929 . S
C62 C63 1.400 . S
C62 C64 1.364 . S
C63 C62 1.400 . S
C63 C67 1.377 . S
C64 C62 1.364 . S
C64 C65 1.374 1_455 S
C65 H56 0.930 1_545 S
C65 C64 1.374 1_655 S
C65 C66 1.383 . S
C66 O60 1.412 1_545 S
C66 C65 1.383 . S
C66 C67 1.394 1_655 S
C67 H57 0.929 . S
C67 C63 1.377 . S
C67 C66 1.394 1_455 S
H68 C75 0.929 . S
H69 C78 0.930 . S
H70 C80 0.929 . S
H71 C72 0.969 . S
C72 H71 0.969 . S
C72 O73 1.550 . S
C72 H74 0.973 . S
O73 C72 1.550 . S
O73 C79 1.412 . S
H74 C72 0.973 . S
C75 H68 0.929 . S
C75 C76 1.400 . S
C75 C77 1.364 . S
C76 C75 1.400 . S
C76 C80 1.377 . S
C77 C75 1.364 . S
C77 C78 1.374 . S
C78 H69 0.930 . S
C78 C77 1.374 . S
C78 C79 1.383 . S
C79 O73 1.412 . S
C79 C78 1.383 . S
C79 C80 1.394 . S
C80 H70 0.929 . S
C80 C76 1.377 . S
C80 C79 1.394 . S
H81 C88 0.929 . S
H82 C91 0.930 . S
H83 C93 0.929 . S
H84 C85 0.969 . S
C85 H84 0.969 . S
C85 O86 1.550 . S
C85 H87 0.973 . S
O86 C85 1.550 . S
O86 C92 1.412 . S
H87 C85 0.973 . S
C88 H81 0.929 . S
C88 C89 1.400 . S
C88 C90 1.364 . S
C89 C88 1.400 . S
C89 C93 1.377 . S
C90 C88 1.364 . S
C90 C91 1.374 . S
C91 H82 0.930 . S
C91 C90 1.374 . S
C91 C92 1.383 . S
C92 O86 1.412 . S
C92 C91 1.383 . S
C92 C93 1.394 . S
C93 H83 0.929 . S
C93 C89 1.377 . S
C93 C92 1.394 . S
H94 C102 0.950 . S
H95 C107 0.950 . S
H96 C104 0.950 . S
H97 C106 0.950 1_556 S
H98 C108 0.950 . S
H99 C110 0.935 1_556 S
H100 C112 0.950 . S
H101 C113 0.950 . S
C102 H94 0.950 . S
C102 C103 1.386 . S
C102 C104 1.391 . S
C103 C102 1.386 . S
C103 C107 1.393 1_554 S
C104 H96 0.950 . S
C104 C102 1.391 . S
C104 C105 1.400 . S
C105 C104 1.400 . S
C105 C106 1.398 . S
C105 C111 1.491 . S
C106 H97 0.950 1_554 S
C106 C105 1.398 . S
C106 C107 1.391 1_554 S
C107 H95 0.950 . S
C107 C103 1.393 1_556 S
C107 C106 1.391 1_556 S
C108 H98 0.950 . S
C108 C109 1.386 . S
C108 C110 1.391 . S
C109 C108 1.386 . S
C109 C113 1.393 . S
C110 H99 0.935 1_554 S
C110 C108 1.391 . S
C110 C111 1.400 . S
C111 C105 1.491 . S
C111 C110 1.400 . S
C111 C112 1.398 . S
C112 H100 0.950 . S
C112 C111 1.398 . S
C112 C113 1.391 . S
C113 H101 0.950 . S
C113 C109 1.393 . S
C113 C112 1.391 . S
H114 C122 0.950 . S
H115 C127 0.950 . S
H116 C124 0.950 . S
H117 C126 0.950 . S
H118 C128 0.950 . S
H119 C130 0.950 1_554 S
H120 C132 0.950 . S
H121 C133 0.950 . S
C122 H114 0.950 . S
C122 C123 1.386 . S
C122 C124 1.391 . S
C123 C122 1.386 . S
C123 C127 1.393 1_556 S
C124 H116 0.950 . S
C124 C122 1.391 . S
C124 C125 1.400 . S
C125 C124 1.400 . S
C125 C126 1.398 1_556 S
C125 C131 1.491 . S
C126 H117 0.950 . S
C126 C125 1.398 1_554 S
C126 C127 1.391 . S
C127 H115 0.950 . S
C127 C123 1.393 1_554 S
C127 C126 1.391 . S
C128 H118 0.950 . S
C128 C129 1.386 . S
C128 C130 1.391 . S
C129 C128 1.386 . S
C129 C133 1.393 . S
C130 H119 0.950 1_556 S
C130 C128 1.391 . S
C130 C131 1.400 . S
C131 C125 1.491 . S
C131 C130 1.400 . S
C131 C132 1.398 . S
C132 H120 0.950 . S
C132 C131 1.398 . S
C132 C133 1.391 . S
C133 H121 0.950 . S
C133 C129 1.393 . S
C133 C132 1.391 . S
H134 C142 0.950 . S
H135 C147 0.950 . S
H136 C144 0.950 . S
H137 C146 0.950 . S
H138 C148 0.950 . S
H139 C150 0.950 . S
H140 C152 0.950 . S
H141 C153 0.950 . S
C142 H134 0.950 . S
C142 C143 1.386 . S
C142 C144 1.391 . S
C143 C142 1.386 . S
C143 C147 1.393 . S
C144 H136 0.950 . S
C144 C142 1.391 . S
C144 C145 1.400 . S
C145 C144 1.400 . S
C145 C146 1.398 . S
C145 C151 1.491 . S
C146 H137 0.950 . S
C146 C145 1.398 . S
C146 C147 1.391 . S
C147 H135 0.950 . S
C147 C143 1.393 . S
C147 C146 1.391 . S
C148 H138 0.950 . S
C148 C149 1.386 . S
C148 C150 1.391 . S
C149 C148 1.386 . S
C149 C153 1.393 . S
C150 H139 0.950 . S
C150 C148 1.391 . S
C150 C151 1.400 . S
C151 C145 1.491 . S
C151 C150 1.400 . S
C151 C152 1.398 . S
C152 H140 0.950 . S
C152 C151 1.398 . S
C152 C153 1.391 . S
C153 H141 0.950 . S
C153 C149 1.393 . S
C153 C152 1.391 . S
H154 C162 0.950 1_554 S
H155 C167 0.950 . S
H156 C164 0.950 1_554 S
H157 C166 0.950 . S
H158 C168 0.950 . S
H159 C170 0.950 . S
H160 C172 0.950 . S
H161 C173 0.950 . S
C162 H154 0.950 1_556 S
C162 C163 1.386 . S
C162 C164 1.391 . S
C163 C162 1.386 . S
C163 C167 1.393 . S
C164 H156 0.950 1_556 S
C164 C162 1.391 . S
C164 C165 1.400 . S
C165 C164 1.400 . S
C165 C166 1.398 . S
C165 C171 1.491 . S
C166 H157 0.950 . S
C166 C165 1.398 . S
C166 C167 1.391 . S
C167 H155 0.950 . S
C167 C163 1.393 . S
C167 C166 1.391 . S
C168 H158 0.950 . S
C168 C169 1.386 . S
C168 C170 1.391 . S
C169 C168 1.386 . S
C169 C173 1.393 . S
C170 H159 0.950 . S
C170 C168 1.391 . S
C170 C171 1.400 . S
C171 C165 1.491 . S
C171 C170 1.400 . S
C171 C172 1.398 . S
C172 H160 0.950 . S
C172 C171 1.398 . S
C172 C173 1.391 . S
C173 H161 0.950 . S
C173 C169 1.393 . S
C173 C172 1.391 . S
H174 C182 0.950 . S
H175 C187 0.950 . S
H176 C184 0.950 . S
H177 C186 0.950 . S
H178 C188 0.950 . S
H179 C190 0.950 . S
H180 C192 0.950 . S
H181 C193 0.950 . S
C182 H174 0.950 . S
C182 C183 1.386 . S
C182 C184 1.391 . S
C183 C182 1.386 . S
C183 C187 1.393 . S
C184 H176 0.950 . S
C184 C182 1.391 . S
C184 C185 1.400 . S
C185 C184 1.400 . S
C185 C186 1.398 . S
C185 C191 1.491 . S
C186 H177 0.950 . S
C186 C185 1.398 . S
C186 C187 1.391 . S
C187 H175 0.950 . S
C187 C183 1.393 . S
C187 C186 1.391 . S
C188 H178 0.950 . S
C188 C189 1.386 . S
C188 C190 1.391 . S
C189 C188 1.386 . S
C189 C193 1.393 . S
C190 H179 0.950 . S
C190 C188 1.391 . S
C190 C191 1.400 . S
C191 C185 1.491 . S
C191 C190 1.400 . S
C191 C192 1.398 . S
C192 H180 0.950 . S
C192 C191 1.398 . S
C192 C193 1.391 . S
C193 H181 0.950 . S
C193 C189 1.393 . S
C193 C192 1.391 . S
H194 C202 0.950 . S
H195 C207 0.950 . S
H196 C204 0.950 . S
H197 C206 0.950 . S
H198 C208 0.950 1_455 S
H199 C210 0.950 . S
H200 C212 0.950 . S
H201 C213 0.950 . S
C202 H194 0.950 . S
C202 C203 1.386 . S
C202 C204 1.391 . S
C203 C202 1.386 . S
C203 C207 1.393 . S
C204 H196 0.950 . S
C204 C202 1.391 . S
C204 C205 1.400 . S
C205 C204 1.400 . S
C205 C206 1.398 . S
C205 C211 1.491 . S
C206 H197 0.950 . S
C206 C205 1.398 . S
C206 C207 1.391 . S
C207 H195 0.950 . S
C207 C203 1.393 . S
C207 C206 1.391 . S
C208 H198 0.950 1_655 S
C208 C209 1.386 . S
C208 C210 1.391 . S
C209 C208 1.386 . S
C209 C213 1.393 . S
C210 H199 0.950 . S
C210 C208 1.391 . S
C210 C211 1.400 . S
C211 C205 1.491 . S
C211 C210 1.400 . S
C211 C212 1.398 . S
C212 H200 0.950 . S
C212 C211 1.398 . S
C212 C213 1.391 . S
C213 H201 0.950 . S
C213 C209 1.393 . S
C213 C212 1.391 . S
H214 C222 0.950 . S
H215 C227 0.950 . S
H216 C224 0.950 . S
H217 C226 0.950 . S
H218 C228 0.950 . S
H219 C230 0.950 . S
H220 C232 0.950 . S
H221 C233 0.950 . S
C222 H214 0.950 . S
C222 C223 1.386 . S
C222 C224 1.391 . S
C223 C222 1.386 . S
C223 C227 1.393 . S
C224 H216 0.950 . S
C224 C222 1.391 . S
C224 C225 1.400 . S
C225 C224 1.400 . S
C225 C226 1.398 . S
C225 C231 1.491 . S
C226 H217 0.950 . S
C226 C225 1.398 . S
C226 C227 1.391 . S
C227 H215 0.950 . S
C227 C223 1.393 . S
C227 C226 1.391 . S
C228 H218 0.950 . S
C228 C229 1.386 . S
C228 C230 1.391 . S
C229 C228 1.386 . S
C229 C233 1.393 . S
C230 H219 0.950 . S
C230 C228 1.391 . S
C230 C231 1.400 . S
C231 C225 1.491 . S
C231 C230 1.400 . S
C231 C232 1.398 . S
C232 H220 0.950 . S
C232 C231 1.398 . S
C232 C233 1.391 . S
C233 H221 0.950 . S
C233 C229 1.393 . S
C233 C232 1.391 . S
H234 C242 0.950 . S
H235 C247 0.950 . S
H236 C244 0.950 . S
H237 C246 0.950 . S
H238 C248 0.950 . S
H239 C250 0.950 . S
H240 C252 0.950 . S
H241 C253 0.950 . S
C242 H234 0.950 . S
C242 C243 1.386 . S
C242 C244 1.391 . S
C243 C242 1.386 . S
C243 C247 1.393 . S
C244 H236 0.950 . S
C244 C242 1.391 . S
C244 C245 1.400 . S
C245 C244 1.400 . S
C245 C246 1.398 . S
C245 C251 1.491 . S
C246 H237 0.950 . S
C246 C245 1.398 . S
C246 C247 1.391 . S
C247 H235 0.950 . S
C247 C243 1.393 . S
C247 C246 1.391 . S
C248 H238 0.950 . S
C248 C249 1.386 . S
C248 C250 1.391 . S
C249 C248 1.386 . S
C249 C253 1.393 . S
C250 H239 0.950 . S
C250 C248 1.391 . S
C250 C251 1.400 . S
C251 C245 1.491 . S
C251 C250 1.400 . S
C251 C252 1.398 . S
C252 H240 0.950 . S
C252 C251 1.398 . S
C252 C253 1.391 . S
C253 H241 0.950 . S
C253 C249 1.393 . S
C253 C252 1.391 . S
H254 C262 0.950 . S
H255 C267 0.950 1_655 S
H256 C264 0.950 1_545 S
H257 C266 0.950 1_655 S
H258 C268 0.950 1_655 S
H259 C270 0.950 1_655 S
H260 C272 0.950 . S
H261 C273 0.950 . S
C262 H254 0.950 . S
C262 C263 1.386 . S
C262 C264 1.391 . S
C263 C262 1.386 . S
C263 C267 1.393 . S
C264 H256 0.950 1_565 S
C264 C262 1.391 . S
C264 C265 1.400 . S
C265 C264 1.400 . S
C265 C266 1.398 . S
C265 C271 1.491 . S
C266 H257 0.950 1_455 S
C266 C265 1.398 . S
C266 C267 1.391 . S
C267 H255 0.950 1_455 S
C267 C263 1.393 . S
C267 C266 1.391 . S
C268 H258 0.950 1_455 S
C268 C269 1.386 1_565 S
C268 C270 1.391 . S
C269 C268 1.386 1_545 S
C269 C273 1.393 . S
C270 H259 0.950 1_455 S
C270 C268 1.391 . S
C270 C271 1.400 . S
C271 C265 1.491 . S
C271 C270 1.400 . S
C271 C272 1.398 1_565 S
C272 H260 0.950 . S
C272 C271 1.398 1_545 S
C272 C273 1.391 . S
C273 H261 0.950 . S
C273 C269 1.393 . S
C273 C272 1.391 . S
H274 C282 0.950 . S
H275 C287 0.950 . S
H276 C284 0.950 . S
H277 C286 0.950 . S
H278 C288 0.950 . S
H279 C290 0.950 . S
H280 C292 0.950 1_565 S
H281 C293 0.950 . S
C282 H274 0.950 . S
C282 C283 1.386 1_655 S
C282 C284 1.391 . S
C283 C282 1.386 1_455 S
C283 C287 1.393 1_565 S
C284 H276 0.950 . S
C284 C282 1.391 . S
C284 C285 1.400 1_665 S
C285 C284 1.400 1_445 S
C285 C286 1.398 . S
C285 C291 1.491 . S
C286 H277 0.950 . S
C286 C285 1.398 . S
C286 C287 1.391 . S
C287 H275 0.950 . S
C287 C283 1.393 1_545 S
C287 C286 1.391 . S
C288 H278 0.950 . S
C288 C289 1.386 . S
C288 C290 1.391 . S
C289 C288 1.386 . S
C289 C293 1.393 1_455 S
C290 H279 0.950 . S
C290 C288 1.391 . S
C290 C291 1.400 . S
C291 C285 1.491 . S
C291 C290 1.400 . S
C291 C292 1.398 1_455 S
C292 H280 0.950 1_545 S
C292 C291 1.398 1_655 S
C292 C293 1.391 . S
C293 H281 0.950 . S
C293 C289 1.393 1_655 S
C293 C292 1.391 . S
H294 C302 0.950 . S
H295 C307 0.950 . S
H296 C304 0.950 . S
H297 C306 0.950 . S
H298 C308 0.950 . S
H299 C310 0.950 . S
H300 C312 0.950 . S
H301 C313 0.950 . S
C302 H294 0.950 . S
C302 C303 1.386 . S
C302 C304 1.391 . S
C303 C302 1.386 . S
C303 C307 1.393 . S
C304 H296 0.950 . S
C304 C302 1.391 . S
C304 C305 1.400 . S
C305 C304 1.400 . S
C305 C306 1.398 . S
C305 C311 1.491 . S
C306 H297 0.950 . S
C306 C305 1.398 . S
C306 C307 1.391 . S
C307 H295 0.950 . S
C307 C303 1.393 . S
C307 C306 1.391 . S
C308 H298 0.950 . S
C308 C309 1.386 . S
C308 C310 1.391 . S
C309 C308 1.386 . S
C309 C313 1.393 . S
C310 H299 0.950 . S
C310 C308 1.391 . S
C310 C311 1.400 . S
C311 C305 1.491 . S
C311 C310 1.400 . S
C311 C312 1.398 . S
C312 H300 0.950 . S
C312 C311 1.398 . S
C312 C313 1.391 . S
C313 H301 0.950 . S
C313 C309 1.393 . S
C313 C312 1.391 . S
H314 C322 0.950 . S
H315 C327 0.950 . S
H316 C324 0.950 . S
H317 C326 0.950 . S
H318 C328 0.950 . S
H319 C330 0.950 . S
H320 C332 0.950 . S
H321 C333 0.950 . S
C322 H314 0.950 . S
C322 C323 1.386 . S
C322 C324 1.391 . S
C323 C322 1.386 . S
C323 C327 1.393 . S
C324 H316 0.950 . S
C324 C322 1.391 . S
C324 C325 1.400 . S
C325 C324 1.400 . S
C325 C326 1.398 . S
C325 C331 1.491 . S
C326 H317 0.950 . S
C326 C325 1.398 . S
C326 C327 1.391 . S
C327 H315 0.950 . S
C327 C323 1.393 . S
C327 C326 1.391 . S
C328 H318 0.950 . S
C328 C329 1.386 . S
C328 C330 1.391 . S
C329 C328 1.386 . S
C329 C333 1.393 . S
C330 H319 0.950 . S
C330 C328 1.391 . S
C330 C331 1.400 . S
C331 C325 1.491 . S
C331 C330 1.400 . S
C331 C332 1.398 . S
C332 H320 0.950 . S
C332 C331 1.398 . S
C332 C333 1.391 . S
C333 H321 0.950 . S
C333 C329 1.393 . S
C333 C332 1.391 . S
C109 C85 1.181 . S
C103 C3 1.104 . S
C123 C4 1.435 1_556 S
C129 C72 1.424 . S
C143 C19 1.555 . S
C149 C89 1.674 . S
C163 C7 1.214 . S
C169 C76 1.329 . S
C183 C37 1.146 . S
C189 C59 1.157 . S
C203 C28 1.455 . S
C209 C46 1.446 . S
C229 C63 1.670 . S
C223 C41 1.557 . S
C249 C50 1.328 . S
C243 C25 1.211 . S
C263 C20 1.341 . S
C269 C51 1.500 . S
C283 C16 1.367 . S
C289 C64 1.528 . S
C309 C77 1.512 . S
C303 C40 1.334 . S
C323 C24 1.377 . S
C329 C90 1.530 . S
