# Generated by pormake.
# Topology tsx, (6,3)-cn, num edge types: 1
# Building blocks:
#     Node 0, Type 0, BuildingBlock: MIDCAF_clean_sbu_0, # of connection points: 6
#     Node 1, Type 0, BuildingBlock: MIDCAF_clean_sbu_0, # of connection points: 6
#     Node 2, Type 1, BuildingBlock: MIDCAF_clean_linker_0, # of connection points: 3
#     Node 3, Type 1, BuildingBlock: MIDCAF_clean_linker_0, # of connection points: 3
#     Node 4, Type 1, BuildingBlock: MIDCAF_clean_linker_0, # of connection points: 3
#     Node 5, Type 1, BuildingBlock: MIDCAF_clean_linker_0, # of connection points: 3
#     Edge 6, Type (0, 1), BuildingBlock: EZIPEK_clean_linker_0, # of connection points: 2
#     Edge 7, Type (0, 1), BuildingBlock: EZIPEK_clean_linker_0, # of connection points: 2
#     Edge 8, Type (0, 1), BuildingBlock: EZIPEK_clean_linker_0, # of connection points: 2
#     Edge 9, Type (0, 1), BuildingBlock: EZIPEK_clean_linker_0, # of connection points: 2
#     Edge 10, Type (0, 1), BuildingBlock: EZIPEK_clean_linker_0, # of connection points: 2
#     Edge 11, Type (0, 1), BuildingBlock: EZIPEK_clean_linker_0, # of connection points: 2
#     Edge 12, Type (0, 1), BuildingBlock: EZIPEK_clean_linker_0, # of connection points: 2
#     Edge 13, Type (0, 1), BuildingBlock: EZIPEK_clean_linker_0, # of connection points: 2
#     Edge 14, Type (0, 1), BuildingBlock: EZIPEK_clean_linker_0, # of connection points: 2
#     Edge 15, Type (0, 1), BuildingBlock: EZIPEK_clean_linker_0, # of connection points: 2
#     Edge 16, Type (0, 1), BuildingBlock: EZIPEK_clean_linker_0, # of connection points: 2
#     Edge 17, Type (0, 1), BuildingBlock: EZIPEK_clean_linker_0, # of connection points: 2
# Relax obj value: 0.119
# Max RMSD: 0.182
# Mean RMSD: 0.114
data_MOF--net-tsx--node1-MIDCAF_clean_sbu_0--node2-MIDCAF_clean_linker_0--edge1-EZIPEK_clean_linker_0
_symmetry_space_group_name_H-M    P1
_symmetry_Int_Tables_number       1
_symmetry_cell_setting            triclinic
loop_
_symmetry_equiv_pos_as_xyz
'x, y, z'
_cell_length_a     18.460306
_cell_length_b     19.103445
_cell_length_c     36.312295
_cell_angle_alpha  90.713775
_cell_angle_beta   94.531666
_cell_angle_gamma 89.804721
loop_
_atom_site_label
_atom_site_type_symbol
_atom_site_fract_x
_atom_site_fract_y
_atom_site_fract_z
_atom_type_partial_charge
Zn0 Zn 0.8966 0.06764 0.97212 0.0
Zn1 Zn 0.12483 0.04844 0.06809 0.0
Zn2 Zn 0.01137 0.06164 0.01956 0.0
C3 C 0.111 0.1896 0.04634 0.0
C4 C 0.15093 0.96684 0.00694 0.0
O5 O 0.9282 0.99273 0.03898 0.0
O6 O 0.85047 0.98158 0.9896 0.0
C7 C 0.91484 0.1991 0.00672 0.0
O8 O 0.04849 0.16909 0.03212 0.0
O9 O 0.15587 0.14651 0.0613 0.0
O10 O 0.17219 0.97247 0.04073 0.0
O11 O 0.09532 0.00141 0.99333 0.0
O12 O 0.86658 0.16172 0.98962 0.0
O13 O 0.97731 0.17283 0.01725 0.0
O14 O 0.04408 0.02288 0.96615 0.0
O15 O 0.9529 0.05893 0.92771 0.0
C16 C 0.01531 0.03191 0.93311 0.0
O17 O 0.97588 0.00843 0.06875 0.0
O18 O 0.06853 0.02462 0.11053 0.0
C19 C 0.87334 0.96232 0.02155 0.0
C20 C 0.00436 0.0041 0.10218 0.0
Zn21 Zn 0.68387 0.51186 0.55064 0.0
Zn22 Zn 0.47095 0.49944 0.46313 0.0
Zn23 Zn 0.57311 0.51403 0.50856 0.0
C24 C 0.59836 0.4905 0.42585 0.0
C25 C 0.46894 0.63624 0.48978 0.0
O26 O 0.5388 0.48035 0.56156 0.0
O27 O 0.63075 0.5265 0.59596 0.0
C28 C 0.67649 0.38691 0.50858 0.0
O29 O 0.62364 0.4749 0.45881 0.0
O30 O 0.53182 0.5059 0.42026 0.0
O31 O 0.42494 0.5884 0.47891 0.0
O32 O 0.53619 0.62135 0.4979 0.0
O33 O 0.70563 0.41139 0.53863 0.0
O34 O 0.63826 0.42871 0.48729 0.0
O35 O 0.61029 0.62271 0.51204 0.0
O36 O 0.72512 0.59599 0.52709 0.0
C37 C 0.6774 0.6409 0.51678 0.0
O38 O 0.49067 0.45293 0.53388 0.0
O39 O 0.43583 0.40914 0.48243 0.0
C40 C 0.56829 0.49919 0.59333 0.0
C41 C 0.4463 0.40898 0.51723 0.0
C42 C 0.89122 0.1424 0.46793 0.0
C43 C 0.81532 0.13562 0.46299 0.0
C44 C 0.78515 0.075 0.44586 0.0
C45 C 0.83014 0.02418 0.43158 0.0
H46 H 0.13951 0.97048 0.47588 0.0
H47 H 0.25506 0.92446 0.50434 0.0
H48 H 0.26103 0.77201 0.41611 0.0
H49 H 0.14763 0.81795 0.3872 0.0
H50 H 0.06839 0.88417 0.30883 0.0
H51 H 0.04672 0.89267 0.24197 0.0
H52 H 0.82373 0.95052 0.25344 0.0
H53 H 0.84505 0.94369 0.32082 0.0
H54 H 0.99465 0.09769 0.45785 0.0
H55 H 0.91543 0.18854 0.48141 0.0
H56 H 0.72673 0.06846 0.44229 0.0
H57 H 0.80569 0.97933 0.41694 0.0
N58 N 0.01838 0.96318 0.43171 0.0
N59 N 0.04182 0.90456 0.37669 0.0
N60 N 0.93219 0.96498 0.38049 0.0
C61 C 0.06286 0.92237 0.41231 0.0
C62 C 0.97671 0.92574 0.36052 0.0
C63 C 0.95256 0.98378 0.41596 0.0
C64 C 0.13389 0.89753 0.42937 0.0
C65 C 0.16572 0.92743 0.46244 0.0
C66 C 0.23181 0.90154 0.47866 0.0
C67 C 0.26603 0.84445 0.46244 0.0
C68 C 0.2353 0.81595 0.42908 0.0
C69 C 0.17025 0.84229 0.41264 0.0
C70 C 0.95892 0.91489 0.3203 0.0
C71 C 0.01415 0.89705 0.2973 0.0
C72 C 1.00187 0.9017 0.25899 0.0
C73 C 0.93407 0.9234 0.24295 0.0
C74 C 0.87658 0.93421 0.26546 0.0
C75 C 0.88909 0.93063 0.30393 0.0
C76 C 0.90598 0.032 0.43548 0.0
C77 C 0.9363 0.09041 0.45473 0.0
C78 C 0.88746 0.92675 0.53462 0.0
C79 C 0.8569 0.86524 0.54746 0.0
C80 C 0.88437 0.83754 0.58128 0.0
C81 C 0.94139 0.87023 0.6021 0.0
H82 H 0.13852 0.08632 0.54851 0.0
H83 H 0.21899 0.17567 0.52604 0.0
H84 H 0.31851 0.2065 0.63638 0.0
H85 H 0.23945 0.11792 0.65923 0.0
H86 H 0.21231 0.00955 0.72093 0.0
H87 H 0.21358 0.01173 0.7884 0.0
H88 H 0.99532 0.93057 0.7811 0.0
H89 H 0.99358 0.92714 0.71373 0.0
H90 H 0.96849 0.00667 0.54502 0.0
H91 H 0.86655 0.94913 0.50864 0.0
H92 H 0.86147 0.79018 0.59164 0.0
H93 H 0.961 0.84696 0.62807 0.0
N94 N 0.07832 0.01204 0.59833 0.0
N95 N 0.14128 0.02627 0.65666 0.0
N96 N 0.04192 0.95065 0.64943 0.0
C97 C 0.13306 0.04242 0.62028 0.0
C98 C 0.09618 0.98063 0.6715 0.0
C99 C 0.03277 0.9656 0.61281 0.0
C100 C 0.1822 0.09483 0.6057 0.0
C101 C 0.17757 0.11193 0.568 0.0
C102 C 0.22341 0.16284 0.55511 0.0
C103 C 0.27419 0.19739 0.5797 0.0
C104 C 0.27944 0.18025 0.61713 0.0
C105 C 0.23406 0.12944 0.63002 0.0
C106 C 0.10224 0.96945 0.71192 0.0
C107 C 0.16509 0.99068 0.73366 0.0
C108 C 0.16625 0.99156 0.7722 0.0
C109 C 0.10424 0.97214 0.7895 0.0
C110 C 0.04357 0.9459 0.76809 0.0
C111 C 0.04266 0.94418 0.72959 0.0
C112 C 0.97296 0.93143 0.58952 0.0
C113 C 0.94569 0.95931 0.55538 0.0
C114 C 0.32047 0.73561 0.90504 0.0
C115 C 0.32491 0.75704 0.9421 0.0
C116 C 0.37579 0.72548 0.96751 0.0
C117 C 0.42197 0.67275 0.95589 0.0
H118 H 0.63184 0.56728 0.98102 0.0
H119 H 0.73574 0.51443 0.0177 0.0
H120 H 0.73616 0.3426 0.93959 0.0
H121 H 0.63468 0.39433 0.90302 0.0
H122 H 0.59449 0.44991 0.81692 0.0
H123 H 0.58945 0.43633 0.74982 0.0
H124 H 0.37657 0.53078 0.74008 0.0
H125 H 0.38118 0.54572 0.80729 0.0
H126 H 0.36113 0.66768 0.86452 0.0
H127 H 0.28124 0.75943 0.88519 0.0
H128 H 0.37948 0.74152 0.99631 0.0
H129 H 0.46061 0.6491 0.97606 0.0
N130 N 0.52059 0.56704 0.92825 0.0
N131 N 0.55244 0.49377 0.87962 0.0
N132 N 0.45449 0.57079 0.87031 0.0
C133 C 0.56424 0.51622 0.91527 0.0
C134 C 0.49763 0.52059 0.85701 0.0
C135 C 0.46526 0.59443 0.90571 0.0
C136 C 0.62494 0.48515 0.93897 0.0
C137 C 0.65409 0.51814 0.97181 0.0
C138 C 0.71348 0.48828 0.9927 0.0
C139 C 0.74343 0.42463 0.98124 0.0
C140 C 0.71392 0.39181 0.9488 0.0
C141 C 0.65571 0.42162 0.92791 0.0
C142 C 0.4889 0.5003 0.81743 0.0
C143 C 0.54582 0.46645 0.8007 0.0
C144 C 0.543 0.45837 0.76235 0.0
C145 C 0.48303 0.48329 0.7402 0.0
C146 C 0.42333 0.5115 0.75688 0.0
C147 C 0.42643 0.52039 0.79524 0.0
C148 C 0.41749 0.65067 0.91868 0.0
C149 C 0.36621 0.68294 0.89342 0.0
C150 C 0.3561 0.35534 0.09735 0.0
C151 C 0.31688 0.39159 0.06895 0.0
C152 C 0.34608 0.45293 0.05529 0.0
C153 C 0.41474 0.47656 0.06939 0.0
H154 H 0.7722 0.57133 0.12625 0.0
H155 H 0.83411 0.67417 0.1048 0.0
H156 H 0.64184 0.73001 0.03627 0.0
H157 H 0.57897 0.62674 0.05736 0.0
H158 H 0.74472 0.50254 0.20258 0.0
H159 H 0.76778 0.50577 0.26977 0.0
H160 H 0.56424 0.4015 0.28088 0.0
H161 H 0.54015 0.39783 0.21381 0.0
H162 H 0.45263 0.34966 0.13357 0.0
H163 H 0.33435 0.30791 0.10823 0.0
H164 H 0.31629 0.4817 0.03345 0.0
H165 H 0.4364 0.52378 0.0583 0.0
N166 N 0.56493 0.51205 0.09577 0.0
N167 N 0.65529 0.51234 0.14495 0.0
N168 N 0.5522 0.44267 0.14783 0.0
C169 C 0.63017 0.53537 0.11114 0.0
C170 C 0.61684 0.46621 0.16358 0.0
C171 C 0.5261 0.46481 0.11384 0.0
C172 C 0.67032 0.59132 0.09381 0.0
C173 C 0.7431 0.605 0.10633 0.0
C174 C 0.77861 0.66368 0.09424 0.0
C175 C 0.74185 0.70983 0.06962 0.0
C176 C 0.67042 0.69504 0.05571 0.0
C177 C 0.63492 0.63585 0.06756 0.0
C178 C 0.63961 0.45147 0.20278 0.0
C179 C 0.70567 0.47839 0.21917 0.0
C180 C 0.71937 0.47994 0.25756 0.0
C181 C 0.66741 0.45435 0.28001 0.0
C182 C 0.60491 0.42133 0.26378 0.0
C183 C 0.59118 0.41958 0.22541 0.0
C184 C 0.45428 0.43989 0.09785 0.0
C185 C 0.42383 0.37928 0.11175 0.0
C186 C 0.1841 0.27315 0.01412 0.0
C187 C 0.13653 0.26182 0.04206 0.0
C188 C 0.18719 0.36303 0.07668 0.0
C189 C 0.24602 0.3624 0.05379 0.0
N190 N 0.29845 0.32234 -0.00153 0.0
N191 N 0.08246 0.3006 0.09655 0.0
C192 C 0.24274 0.32067 0.02108 0.0
C193 C 0.13365 0.30958 0.07187 0.0
N194 N 0.17439 0.23588 0.98177 0.0
N195 N 0.18446 0.41358 0.10345 0.0
H196 H 0.04143 0.26318 0.0922 0.0
H197 H 0.08113 0.32873 0.1212 0.0
H198 H 0.2235 0.45304 0.10696 0.0
H199 H 0.14138 0.41982 0.12002 0.0
H200 H 0.20368 0.24456 0.95892 0.0
H201 H 0.13188 0.20021 0.97689 0.0
H202 H 0.30367 0.28732 0.97665 0.0
H203 H 0.34156 0.3574 0.0024 0.0
C204 C 0.24328 0.93522 0.96297 0.0
C205 C 0.18634 0.91441 0.98426 0.0
C206 C 0.21088 0.79106 0.97079 0.0
C207 C 0.27471 0.81157 0.95448 0.0
N208 N 0.35397 0.90198 0.9353 0.0
N209 N 0.11278 0.82433 0.00826 0.0
C210 C 0.29113 0.88344 0.95018 0.0
C211 C 0.16876 0.84274 0.98782 0.0
N212 N 0.25114 0.00438 0.95495 0.0
N213 N 0.19017 0.72233 0.96939 0.0
H214 H 0.07796 0.86099 0.01912 0.0
H215 H 0.10234 0.77319 0.01579 0.0
H216 H 0.22038 0.68301 0.9575 0.0
H217 H 0.14057 0.7047 0.97738 0.0
H218 H 0.28717 0.02263 0.93665 0.0
H219 H 0.21686 0.04324 0.96423 0.0
H220 H 0.37322 0.9531 0.93509 0.0
H221 H 0.3897 0.86545 0.92509 0.0
C222 C 0.80475 0.89916 0.06802 0.0
C223 C 0.8442 0.8974 0.03612 0.0
C224 C 0.81643 0.77303 0.0262 0.0
C225 C 0.77844 0.77414 0.05859 0.0
N226 N 0.7474 0.83316 0.11437 0.0
N227 N 0.90411 0.83022 0.99061 0.0
C228 C 0.77613 0.83571 0.08084 0.0
C229 C 0.85483 0.83356 0.01683 0.0
N230 N 0.79243 0.96173 0.08516 0.0
N231 N 0.81481 0.71448 0.00407 0.0
H232 H 0.93475 0.87315 0.98359 0.0
H233 H 0.92 0.78363 0.97838 0.0
H234 H 0.78952 0.66806 0.01071 0.0
H235 H 0.83415 0.71332 0.97789 0.0
H236 H 0.75775 0.96774 0.10623 0.0
H237 H 0.81358 0.00898 0.07675 0.0
H238 H 0.75184 0.87381 0.13377 0.0
H239 H 0.72355 0.78826 0.12405 0.0
C240 C 0.91697 0.32577 0.99051 0.0
C241 C 0.89607 0.27289 0.01443 0.0
C242 C 0.79135 0.34234 0.03052 0.0
C243 C 0.80549 0.38939 0.00211 0.0
N244 N 0.8919 0.44145 0.9649 0.0
N245 N 0.83225 0.24094 0.0666 0.0
C246 C 0.87275 0.38671 0.98586 0.0
C247 C 0.83989 0.28539 0.03802 0.0
N248 N 0.97559 0.315 0.97043 0.0
N249 N 0.72895 0.34929 0.0481 0.0
H250 H 0.86803 0.19916 0.07199 0.0
H251 H 0.79527 0.24855 0.08648 0.0
H252 H 0.69403 0.39195 0.04384 0.0
H253 H 0.71091 0.31255 0.06619 0.0
H254 H 0.98994 0.34786 0.94958 0.0
H255 H 0.00946 0.27148 0.97439 0.0
H256 H 0.94174 0.44539 0.95357 0.0
H257 H 0.8592 0.486 0.96149 0.0
C258 C 0.75917 0.72476 0.48924 0.0
C259 C 0.70156 0.71401 0.51205 0.0
C260 C 0.72757 0.82749 0.54216 0.0
C261 C 0.79566 0.82779 0.52674 0.0
N262 N 0.87423 0.78226 0.48223 0.0
N263 N 0.62422 0.75869 0.55757 0.0
C264 C 0.80999 0.77923 0.49839 0.0
C265 C 0.68217 0.76755 0.53692 0.0
N266 N 0.76554 0.68145 0.45946 0.0
N267 N 0.70808 0.88389 0.56265 0.0
H268 H 0.58841 0.7168 0.55366 0.0
H269 H 0.61285 0.79155 0.57946 0.0
H270 H 0.7414 0.92787 0.56662 0.0
H271 H 0.65704 0.88994 0.5726 0.0
H272 H 0.80312 0.6889 0.43996 0.0
H273 H 0.72799 0.64169 0.45255 0.0
H274 H 0.89188 0.74359 0.46456 0.0
H275 H 0.91138 0.8228 0.48761 0.0
C276 C 0.72408 0.26599 0.52494 0.0
C277 C 0.69248 0.31243 0.49789 0.0
C278 C 0.72402 0.23206 0.44887 0.0
C279 C 0.76752 0.19271 0.47532 0.0
N280 N 0.80322 0.16658 0.53905 0.0
N281 N 0.62155 0.3107 0.43922 0.0
C282 C 0.76528 0.20762 0.51362 0.0
C283 C 0.67967 0.28706 0.46119 0.0
N284 N 0.70807 0.27381 0.56089 0.0
N285 N 0.72756 0.21949 0.41192 0.0
H286 H 0.58152 0.34239 0.44942 0.0
H287 H 0.6069 0.29028 0.41296 0.0
H288 H 0.76132 0.18161 0.4014 0.0
H289 H 0.70138 0.25071 0.39165 0.0
H290 H 0.72474 0.23915 0.58177 0.0
H291 H 0.66944 0.30981 0.56884 0.0
H292 H 0.81204 0.17997 0.56691 0.0
H293 H 0.82861 0.11995 0.53202 0.0
C294 C 0.42991 0.28488 0.53549 0.0
C295 C 0.40904 0.3562 0.53817 0.0
C296 C 0.30168 0.32378 0.5695 0.0
C297 C 0.32195 0.2523 0.56645 0.0
N298 N 0.41074 0.1646 0.55331 0.0
N299 N 0.33567 0.44574 0.56425 0.0
C300 C 0.38788 0.23276 0.55149 0.0
C301 C 0.34839 0.37637 0.55745 0.0
N302 N 0.48952 0.26726 0.5172 0.0
N303 N 0.23631 0.34103 0.58252 0.0
H304 H 0.3677 0.48569 0.55494 0.0
H305 H 0.29708 0.46377 0.58152 0.0
H306 H 0.2012 0.30401 0.59217 0.0
H307 H 0.21435 0.39127 0.58158 0.0
H308 H 0.50323 0.21619 0.51023 0.0
H309 H 0.52459 0.3045 0.50773 0.0
H310 H 0.46155 0.14767 0.54634 0.0
H311 H 0.38054 0.12494 0.56427 0.0
C312 C 0.45032 0.75971 0.46834 0.0
C313 C 0.43898 0.70738 0.4945 0.0
C314 C 0.32539 0.76288 0.50961 0.0
C315 C 0.33214 0.81051 0.48038 0.0
N316 N 0.40921 0.86966 0.44054 0.0
N317 N 0.3831 0.67317 0.54884 0.0
C318 C 0.39806 0.8144 0.46288 0.0
C319 C 0.38257 0.7146 0.51843 0.0
N320 N 0.50809 0.75423 0.44719 0.0
N321 N 0.26223 0.75981 0.52678 0.0
H322 H 0.4246 0.63695 0.55516 0.0
H323 H 0.34699 0.67911 0.56929 0.0
H324 H 0.21934 0.79473 0.52147 0.0
H325 H 0.25067 0.7205 0.54501 0.0
H326 H 0.51527 0.78577 0.42461 0.0
H327 H 0.54841 0.71631 0.45191 0.0
H328 H 0.45781 0.87867 0.42871 0.0
H329 H 0.37121 0.91002 0.4365 0.0
C330 C 0.94088 0.03456 0.15746 0.0
C331 C 0.9608 0.98229 0.13235 0.0
C332 C 0.93107 0.89158 0.17561 0.0
C333 C 0.92796 0.94395 0.2035 0.0
N334 N 0.93122 0.06653 0.22141 0.0
N335 N 0.96979 0.86095 0.11494 0.0
C336 C 0.93128 0.016 0.1944 0.0
C337 C 0.95287 0.91053 0.14032 0.0
N338 N 0.93255 0.10213 0.14591 0.0
N339 N 0.91385 0.8241 0.18321 0.0
H340 H 0.98362 0.87392 0.08856 0.0
H341 H 0.97246 0.80757 0.12029 0.0
H342 H 0.89771 0.80966 0.20896 0.0
H343 H 0.90928 0.78419 0.16339 0.0
H344 H 0.91171 0.14191 0.1619 0.0
H345 H 0.93958 0.11657 0.11878 0.0
H346 H 0.94263 0.11895 0.21695 0.0
H347 H 0.92484 0.05588 0.24902 0.0
C348 C 0.07159 0.07257 0.87759 0.0
C349 C 0.05649 0.01637 0.90075 0.0
C350 C 0.09751 0.93308 0.85494 0.0
C351 C 0.09809 0.98827 0.8292 0.0
N352 N 0.08081 0.11098 0.81506 0.0
N353 N 0.05444 0.89243 0.91238 0.0
C354 C 0.08508 0.05842 0.84039 0.0
C355 C 0.07067 0.9463 0.89006 0.0
N356 N 0.07298 0.13954 0.89135 0.0
N357 N 0.12255 0.86836 0.84566 0.0
H358 H 0.03519 0.9004 0.93834 0.0
H359 H 0.05622 0.83994 0.90445 0.0
H360 H 0.14219 0.85762 0.82 0.0
H361 H 0.13003 0.82755 0.86433 0.0
H362 H 0.09058 0.18221 0.87689 0.0
H363 H 0.06365 0.15126 0.91874 0.0
H364 H 0.06283 0.16134 0.82093 0.0
H365 H 0.08964 0.10341 0.7873 0.0
C366 C 0.51051 0.42928 0.64152 0.0
C367 C 0.52833 0.49495 0.62684 0.0
C368 C 0.50494 0.55425 0.68467 0.0
C369 C 0.48817 0.48861 0.6998 0.0
N370 N 0.45643 0.36725 0.69053 0.0
N371 N 0.51984 0.62069 0.62944 0.0
C372 C 0.48452 0.42721 0.67738 0.0
C373 C 0.5177 0.55772 0.64682 0.0
N374 N 0.52263 0.36893 0.62232 0.0
N375 N 0.51353 0.61249 0.70686 0.0
H376 H 0.52899 0.62478 0.60155 0.0
H377 H 0.50532 0.6679 0.64154 0.0
H378 H 0.50539 0.61281 0.73493 0.0
H379 H 0.53439 0.6595 0.6981 0.0
H380 H 0.51805 0.31914 0.63322 0.0
H381 H 0.54163 0.36848 0.59604 0.0
H382 H 0.44599 0.32238 0.67443 0.0
H383 H 0.43739 0.36465 0.71679 0.0
C384 C 0.6931 0.44168 0.38473 0.0
C385 C 0.64385 0.49493 0.39378 0.0
C386 C 0.63581 0.53639 0.33025 0.0
C387 C 0.67076 0.47379 0.31969 0.0
N388 N 0.74095 0.3708 0.33602 0.0
N389 N 0.60194 0.61156 0.38054 0.0
C390 C 0.70312 0.42808 0.34678 0.0
C391 C 0.62621 0.54856 0.36809 0.0
N392 N 0.73375 0.40834 0.41213 0.0
N393 N 0.60796 0.58185 0.30393 0.0
H394 H 0.59804 0.62179 0.40864 0.0
H395 H 0.59327 0.65541 0.36403 0.0
H396 H 0.61604 0.57608 0.27595 0.0
H397 H 0.57399 0.62364 0.30944 0.0
H398 H 0.77429 0.37207 0.40744 0.0
H399 H 0.73355 0.42422 0.43961 0.0
H400 H 0.76049 0.33183 0.35396 0.0
H401 H 0.75079 0.36114 0.3085 0.0
loop_
_geom_bond_atom_site_label_1
_geom_bond_atom_site_label_2
_geom_bond_distance
_geom_bond_site_symmetry_2
_ccdc_geom_bond_type
Zn0 O6 1.920 1_545 S
Zn0 O12 1.898 . S
Zn0 O15 1.905 1_545 S
Zn1 O9 1.905 . S
Zn1 O10 1.898 1_545 S
Zn1 O18 1.920 1_545 S
Zn2 O5 2.080 1_445 S
Zn2 O8 2.114 . S
Zn2 O11 2.120 1_545 S
Zn2 O13 2.120 1_455 S
Zn2 O14 2.114 1_554 S
Zn2 O17 2.080 . S
C3 O8 1.166 . S
C3 O9 1.182 . S
C4 O10 1.167 . S
C4 O11 1.299 . S
O5 Zn2 2.080 1_665 S
O5 C19 1.305 . S
O6 Zn0 1.920 1_565 S
O6 C19 1.234 1_556 S
C7 O12 1.167 . S
C7 O13 1.299 1_556 S
O8 Zn2 2.114 . S
O8 C3 1.166 . S
O9 Zn1 1.905 . S
O9 C3 1.182 . S
O10 Zn1 1.898 1_565 S
O10 C4 1.167 . S
O11 Zn2 2.120 1_565 S
O11 C4 1.299 . S
O12 Zn0 1.898 . S
O12 C7 1.167 . S
O13 Zn2 2.120 1_655 S
O13 C7 1.299 1_554 S
O14 Zn2 2.114 1_556 S
O14 C16 1.166 1_445 S
O15 Zn0 1.905 1_565 S
O15 C16 1.182 . S
C16 O14 1.166 1_665 S
C16 O15 1.182 . S
O17 Zn2 2.080 . S
O17 C20 1.305 1_545 S
O18 Zn1 1.920 1_565 S
O18 C20 1.234 . S
C19 O5 1.305 . S
C19 O6 1.234 1_554 S
C20 O17 1.305 1_565 S
C20 O18 1.234 . S
Zn21 O27 1.920 . S
Zn21 O33 1.898 . S
Zn21 O36 1.905 . S
Zn22 O30 1.905 . S
Zn22 O31 1.898 . S
Zn22 O39 1.920 . S
Zn23 O26 2.080 . S
Zn23 O29 2.114 . S
Zn23 O32 2.120 . S
Zn23 O34 2.120 . S
Zn23 O35 2.114 . S
Zn23 O38 2.080 . S
C24 O29 1.166 . S
C24 O30 1.182 . S
C25 O31 1.167 . S
C25 O32 1.299 . S
O26 Zn23 2.080 . S
O26 C40 1.305 . S
O27 Zn21 1.920 . S
O27 C40 1.234 . S
C28 O33 1.167 . S
C28 O34 1.299 . S
O29 Zn23 2.114 . S
O29 C24 1.166 . S
O30 Zn22 1.905 . S
O30 C24 1.182 . S
O31 Zn22 1.898 . S
O31 C25 1.167 . S
O32 Zn23 2.120 . S
O32 C25 1.299 . S
O33 Zn21 1.898 . S
O33 C28 1.167 . S
O34 Zn23 2.120 . S
O34 C28 1.299 . S
O35 Zn23 2.114 . S
O35 C37 1.166 . S
O36 Zn21 1.905 . S
O36 C37 1.182 . S
C37 O35 1.166 . S
C37 O36 1.182 . S
O38 Zn23 2.080 . S
O38 C41 1.305 . S
O39 Zn22 1.920 . S
O39 C41 1.234 . S
C40 O26 1.305 . S
C40 O27 1.234 . S
C41 O38 1.305 . S
C41 O39 1.234 . S
C42 C43 1.384 . S
C42 H55 0.947 . S
C42 C77 1.382 . S
C43 C42 1.384 . S
C43 C44 1.378 . S
C44 C43 1.378 . S
C44 C45 1.378 . S
C44 H56 0.952 . S
C45 C44 1.378 . S
C45 H57 0.950 1_655 S
C45 C76 1.383 . S
H46 C65 0.947 . S
H47 C66 0.946 . S
H48 C68 0.953 . S
H49 C69 0.945 . S
H50 C71 0.952 . S
H51 C72 0.949 . S
H52 C74 0.950 . S
H53 C75 0.948 . S
H54 C77 0.951 . S
H55 C42 0.947 . S
H56 C44 0.952 . S
H57 C45 0.950 1_455 S
N58 C61 1.382 1_545 S
N58 C63 1.363 . S
N59 C61 1.371 . S
N59 C62 1.372 1_565 S
N60 C62 1.361 . S
N60 C63 1.377 . S
C61 N58 1.382 1_565 S
C61 N59 1.371 . S
C61 C64 1.480 . S
C62 N59 1.372 1_545 S
C62 N60 1.361 . S
C62 C70 1.457 . S
C63 N58 1.363 . S
C63 N60 1.377 . S
C63 C76 1.479 1_455 S
C64 C61 1.480 . S
C64 C65 1.383 . S
C64 C69 1.385 . S
C65 H46 0.947 . S
C65 C64 1.383 . S
C65 C66 1.388 . S
C66 H47 0.946 . S
C66 C65 1.388 . S
C66 C67 1.384 . S
C67 C66 1.384 . S
C67 C68 1.377 . S
C68 H48 0.953 . S
C68 C67 1.377 . S
C68 C69 1.369 . S
C69 H49 0.945 . S
C69 C64 1.385 . S
C69 C68 1.369 . S
C70 C62 1.457 . S
C70 C71 1.372 1_545 S
C70 C75 1.364 . S
C71 H50 0.952 . S
C71 C70 1.372 1_565 S
C71 C72 1.389 . S
C72 H51 0.949 . S
C72 C71 1.389 . S
C72 C73 1.387 1_565 S
C73 C72 1.387 1_545 S
C73 C74 1.372 . S
C74 H52 0.950 . S
C74 C73 1.372 . S
C74 C75 1.379 . S
C75 H53 0.948 . S
C75 C70 1.364 . S
C75 C74 1.379 . S
C76 C45 1.383 . S
C76 C63 1.479 1_655 S
C76 C77 1.398 . S
C77 C42 1.382 . S
C77 H54 0.951 . S
C77 C76 1.398 . S
C78 C79 1.384 . S
C78 H91 0.947 . S
C78 C113 1.382 . S
C79 C78 1.384 . S
C79 C80 1.378 . S
C80 C79 1.378 . S
C80 C81 1.378 . S
C80 H92 0.952 . S
C81 C80 1.378 . S
C81 H93 0.950 . S
C81 C112 1.383 . S
H82 C101 0.947 . S
H83 C102 0.946 . S
H84 C104 0.953 . S
H85 C105 0.945 . S
H86 C107 0.952 . S
H87 C108 0.949 . S
H88 C110 0.950 . S
H89 C111 0.948 . S
H90 C113 0.951 . S
H91 C78 0.947 . S
H92 C80 0.952 . S
H93 C81 0.950 . S
N94 C97 1.382 . S
N94 C99 1.363 1_445 S
N95 C97 1.371 . S
N95 C98 1.372 . S
N96 C98 1.361 1_665 S
N96 C99 1.377 . S
C97 N94 1.382 . S
C97 N95 1.371 . S
C97 C100 1.480 . S
C98 N95 1.372 . S
C98 N96 1.361 1_445 S
C98 C106 1.457 . S
C99 N94 1.363 1_665 S
C99 N96 1.377 . S
C99 C112 1.479 . S
C100 C97 1.480 . S
C100 C101 1.383 . S
C100 C105 1.385 . S
C101 H82 0.947 . S
C101 C100 1.383 . S
C101 C102 1.388 . S
C102 H83 0.946 . S
C102 C101 1.388 . S
C102 C103 1.384 . S
C103 C102 1.384 . S
C103 C104 1.377 . S
C104 H84 0.953 . S
C104 C103 1.377 . S
C104 C105 1.369 . S
C105 H85 0.945 . S
C105 C100 1.385 . S
C105 C104 1.369 . S
C106 C98 1.457 . S
C106 C107 1.372 . S
C106 C111 1.364 1_445 S
C107 H86 0.952 . S
C107 C106 1.372 . S
C107 C108 1.389 . S
C108 H87 0.949 . S
C108 C107 1.389 . S
C108 C109 1.387 . S
C109 C108 1.387 . S
C109 C110 1.372 1_445 S
C110 H88 0.950 . S
C110 C109 1.372 1_665 S
C110 C111 1.379 . S
C111 H89 0.948 . S
C111 C106 1.364 1_665 S
C111 C110 1.379 . S
C112 C81 1.383 . S
C112 C99 1.479 . S
C112 C113 1.398 . S
C113 C78 1.382 . S
C113 H90 0.951 . S
C113 C112 1.398 . S
C114 C115 1.384 . S
C114 H127 0.947 . S
C114 C149 1.382 . S
C115 C114 1.384 . S
C115 C116 1.378 . S
C116 C115 1.378 . S
C116 C117 1.378 . S
C116 H128 0.953 1_556 S
C117 C116 1.378 . S
C117 H129 0.950 . S
C117 C148 1.383 . S
H118 C137 0.947 . S
H119 C138 0.964 . S
H120 C140 0.953 . S
H121 C141 0.945 . S
H122 C143 0.952 . S
H123 C144 0.949 . S
H124 C146 0.950 . S
H125 C147 0.948 . S
H126 C149 0.951 . S
H127 C114 0.947 . S
H128 C116 0.953 1_554 S
H129 C117 0.950 . S
N130 C133 1.382 . S
N130 C135 1.363 . S
N131 C133 1.371 . S
N131 C134 1.372 . S
N132 C134 1.361 . S
N132 C135 1.377 . S
C133 N130 1.382 . S
C133 N131 1.371 . S
C133 C136 1.480 . S
C134 N131 1.372 . S
C134 N132 1.361 . S
C134 C142 1.457 . S
C135 N130 1.363 . S
C135 N132 1.377 . S
C135 C148 1.479 . S
C136 C133 1.480 . S
C136 C137 1.383 . S
C136 C141 1.385 . S
C137 H118 0.947 . S
C137 C136 1.383 . S
C137 C138 1.380 1_556 S
C138 H119 0.964 . S
C138 C137 1.380 1_554 S
C138 C139 1.375 1_554 S
C139 C138 1.375 1_556 S
C139 C140 1.377 . S
C140 H120 0.953 . S
C140 C139 1.377 . S
C140 C141 1.369 . S
C141 H121 0.945 . S
C141 C136 1.385 . S
C141 C140 1.369 . S
C142 C134 1.457 . S
C142 C143 1.372 . S
C142 C147 1.364 . S
C143 H122 0.952 . S
C143 C142 1.372 . S
C143 C144 1.389 . S
C144 H123 0.949 . S
C144 C143 1.389 . S
C144 C145 1.387 . S
C145 C144 1.387 . S
C145 C146 1.372 . S
C146 H124 0.950 . S
C146 C145 1.372 . S
C146 C147 1.379 . S
C147 H125 0.948 . S
C147 C142 1.364 . S
C147 C146 1.379 . S
C148 C117 1.383 . S
C148 C135 1.479 . S
C148 C149 1.398 . S
C149 C114 1.382 . S
C149 H126 0.951 . S
C149 C148 1.398 . S
C150 C151 1.384 . S
C150 H163 0.947 . S
C150 C185 1.382 . S
C151 C150 1.384 . S
C151 C152 1.378 . S
C152 C151 1.378 . S
C152 C153 1.378 . S
C152 H164 0.952 . S
C153 C152 1.378 . S
C153 H165 0.950 . S
C153 C184 1.383 . S
H154 C173 0.947 . S
H155 C174 0.946 . S
H156 C176 0.953 . S
H157 C177 0.945 . S
H158 C179 0.952 . S
H159 C180 0.949 . S
H160 C182 0.950 . S
H161 C183 0.948 . S
H162 C185 0.951 . S
H163 C150 0.947 . S
H164 C152 0.952 . S
H165 C153 0.950 . S
N166 C169 1.382 . S
N166 C171 1.363 . S
N167 C169 1.371 . S
N167 C170 1.372 . S
N168 C170 1.361 . S
N168 C171 1.377 . S
C169 N166 1.382 . S
C169 N167 1.371 . S
C169 C172 1.480 . S
C170 N167 1.372 . S
C170 N168 1.361 . S
C170 C178 1.457 . S
C171 N166 1.363 . S
C171 N168 1.377 . S
C171 C184 1.479 . S
C172 C169 1.480 . S
C172 C173 1.383 . S
C172 C177 1.385 . S
C173 H154 0.947 . S
C173 C172 1.383 . S
C173 C174 1.388 . S
C174 H155 0.946 . S
C174 C173 1.388 . S
C174 C175 1.384 . S
C175 C174 1.384 . S
C175 C176 1.377 . S
C176 H156 0.953 . S
C176 C175 1.377 . S
C176 C177 1.369 . S
C177 H157 0.945 . S
C177 C172 1.385 . S
C177 C176 1.369 . S
C178 C170 1.457 . S
C178 C179 1.372 . S
C178 C183 1.364 . S
C179 H158 0.952 . S
C179 C178 1.372 . S
C179 C180 1.389 . S
C180 H159 0.949 . S
C180 C179 1.389 . S
C180 C181 1.387 . S
C181 C180 1.387 . S
C181 C182 1.372 . S
C182 H160 0.950 . S
C182 C181 1.372 . S
C182 C183 1.379 . S
C183 H161 0.948 . S
C183 C178 1.364 . S
C183 C182 1.379 . S
C184 C153 1.383 . S
C184 C171 1.479 . S
C184 C185 1.398 . S
C185 C150 1.382 . S
C185 H162 0.951 . S
C185 C184 1.398 . S
C186 C187 1.363 . S
C186 C192 1.379 . S
C186 N194 1.356 1_554 S
C187 C186 1.363 . S
C187 C193 1.363 . S
C188 C189 1.363 . S
C188 C193 1.379 . S
C188 N195 1.356 . S
C189 C188 1.363 . S
C189 C192 1.363 . S
N190 C192 1.356 1_556 S
N190 H202 0.984 . S
N190 H203 0.992 . S
N191 C193 1.356 . S
N191 H196 0.984 . S
N191 H197 0.985 . S
C192 C186 1.379 . S
C192 C189 1.363 . S
C192 N190 1.356 1_554 S
C193 C187 1.363 . S
C193 C188 1.379 . S
C193 N191 1.356 . S
N194 C186 1.356 1_556 S
N194 H200 0.984 . S
N194 H201 0.984 . S
N195 C188 1.356 . S
N195 H198 0.984 . S
N195 H199 0.985 . S
H196 N191 0.984 . S
H197 N191 0.985 . S
H198 N195 0.984 . S
H199 N195 0.985 . S
H200 N194 0.984 . S
H201 N194 0.984 . S
H202 N190 0.984 . S
H203 N190 0.992 . S
C204 C205 1.363 1_554 S
C204 C210 1.379 . S
C204 N212 1.356 . S
C205 C204 1.363 1_556 S
C205 C211 1.363 . S
C206 C207 1.363 . S
C206 C211 1.379 . S
C206 N213 1.356 . S
C207 C206 1.363 . S
C207 C210 1.363 1_556 S
N208 C210 1.356 . S
N208 H220 0.984 . S
N208 H221 0.985 . S
N209 C211 1.356 . S
N209 H214 0.984 . S
N209 H215 0.985 . S
C210 C204 1.379 . S
C210 C207 1.363 1_554 S
C210 N208 1.356 . S
C211 C205 1.363 . S
C211 C206 1.379 . S
C211 N209 1.356 . S
N212 C204 1.356 . S
N212 H218 0.984 . S
N212 H219 0.984 . S
N213 C206 1.356 . S
N213 H216 0.984 . S
N213 H217 0.985 . S
H214 N209 0.984 . S
H215 N209 0.985 . S
H216 N213 0.984 . S
H217 N213 0.985 . S
H218 N212 0.984 . S
H219 N212 0.984 . S
H220 N208 0.984 . S
H221 N208 0.985 . S
C222 C223 1.363 . S
C222 C228 1.379 . S
C222 N230 1.356 . S
C223 C222 1.363 . S
C223 C229 1.363 . S
C224 C225 1.363 . S
C224 C229 1.379 . S
C224 N231 1.356 1_554 S
C225 C224 1.363 . S
C225 C228 1.363 . S
N226 C228 1.356 . S
N226 H238 0.984 . S
N226 H239 0.985 . S
N227 C229 1.356 1_556 S
N227 H232 0.984 . S
N227 H233 0.985 . S
C228 C222 1.379 . S
C228 C225 1.363 . S
C228 N226 1.356 . S
C229 C223 1.363 . S
C229 C224 1.379 . S
C229 N227 1.356 1_554 S
N230 C222 1.356 . S
N230 H236 0.984 . S
N230 H237 0.984 . S
N231 C224 1.356 1_556 S
N231 H234 0.984 1_556 S
N231 H235 0.985 . S
H232 N227 0.984 . S
H233 N227 0.985 . S
H234 N231 0.984 1_554 S
H235 N231 0.985 . S
H236 N230 0.984 . S
H237 N230 0.984 . S
H238 N226 0.984 . S
H239 N226 0.985 . S
C240 C241 1.363 1_556 S
C240 C246 1.379 . S
C240 N248 1.356 . S
C241 C240 1.363 1_554 S
C241 C247 1.363 . S
C242 C243 1.363 1_554 S
C242 C247 1.379 . S
C242 N249 1.356 . S
C243 C242 1.363 1_556 S
C243 C246 1.363 . S
N244 C246 1.356 . S
N244 H256 0.984 . S
N244 H257 0.985 . S
N245 C247 1.356 . S
N245 H250 0.984 . S
N245 H251 0.985 . S
C246 C240 1.379 . S
C246 C243 1.363 . S
C246 N244 1.356 . S
C247 C241 1.363 . S
C247 C242 1.379 . S
C247 N245 1.356 . S
N248 C240 1.356 . S
N248 H254 0.984 . S
N248 H255 0.984 . S
N249 C242 1.356 . S
N249 H252 0.984 . S
N249 H253 0.985 . S
H250 N245 0.984 . S
H251 N245 0.985 . S
H252 N249 0.984 . S
H253 N249 0.985 . S
H254 N248 0.984 . S
H255 N248 0.984 . S
H256 N244 0.984 . S
H257 N244 0.985 . S
C258 C259 1.363 . S
C258 C264 1.379 . S
C258 N266 1.356 . S
C259 C258 1.363 . S
C259 C265 1.363 . S
C260 C261 1.363 . S
C260 C265 1.379 . S
C260 N267 1.356 . S
C261 C260 1.363 . S
C261 C264 1.363 . S
N262 C264 1.356 . S
N262 H274 0.984 . S
N262 H275 0.985 . S
N263 C265 1.356 . S
N263 H268 0.984 . S
N263 H269 0.985 . S
C264 C258 1.379 . S
C264 C261 1.363 . S
C264 N262 1.356 . S
C265 C259 1.363 . S
C265 C260 1.379 . S
C265 N263 1.356 . S
N266 C258 1.356 . S
N266 H272 0.984 . S
N266 H273 0.984 . S
N267 C260 1.356 . S
N267 H270 0.984 . S
N267 H271 0.985 . S
H268 N263 0.984 . S
H269 N263 0.985 . S
H270 N267 0.984 . S
H271 N267 0.985 . S
H272 N266 0.984 . S
H273 N266 0.984 . S
H274 N262 0.984 . S
H275 N262 0.985 . S
C276 C277 1.363 . S
C276 C282 1.379 . S
C276 N284 1.356 . S
C277 C276 1.363 . S
C277 C283 1.363 . S
C278 C279 1.363 . S
C278 C283 1.379 . S
C278 N285 1.356 . S
C279 C278 1.363 . S
C279 C282 1.363 . S
N280 C282 1.356 . S
N280 H292 0.984 . S
N280 H293 0.985 . S
N281 C283 1.356 . S
N281 H286 0.984 . S
N281 H287 0.985 . S
C282 C276 1.379 . S
C282 C279 1.363 . S
C282 N280 1.356 . S
C283 C277 1.363 . S
C283 C278 1.379 . S
C283 N281 1.356 . S
N284 C276 1.356 . S
N284 H290 0.984 . S
N284 H291 0.984 . S
N285 C278 1.356 . S
N285 H288 0.984 . S
N285 H289 0.985 . S
H286 N281 0.984 . S
H287 N281 0.985 . S
H288 N285 0.984 . S
H289 N285 0.985 . S
H290 N284 0.984 . S
H291 N284 0.984 . S
H292 N280 0.984 . S
H293 N280 0.985 . S
C294 C295 1.363 . S
C294 C300 1.379 . S
C294 N302 1.356 . S
C295 C294 1.363 . S
C295 C301 1.363 . S
C296 C297 1.363 . S
C296 C301 1.379 . S
C296 N303 1.356 . S
C297 C296 1.363 . S
C297 C300 1.363 . S
N298 C300 1.356 . S
N298 H310 0.984 . S
N298 H311 0.985 . S
N299 C301 1.356 . S
N299 H304 0.984 . S
N299 H305 0.985 . S
C300 C294 1.379 . S
C300 C297 1.363 . S
C300 N298 1.356 . S
C301 C295 1.363 . S
C301 C296 1.379 . S
C301 N299 1.356 . S
N302 C294 1.356 . S
N302 H308 0.984 . S
N302 H309 0.984 . S
N303 C296 1.356 . S
N303 H306 0.984 . S
N303 H307 0.985 . S
H304 N299 0.984 . S
H305 N299 0.985 . S
H306 N303 0.984 . S
H307 N303 0.985 . S
H308 N302 0.984 . S
H309 N302 0.984 . S
H310 N298 0.984 . S
H311 N298 0.985 . S
C312 C313 1.363 . S
C312 C318 1.379 . S
C312 N320 1.356 . S
C313 C312 1.363 . S
C313 C319 1.363 . S
C314 C315 1.363 . S
C314 C319 1.379 . S
C314 N321 1.356 . S
C315 C314 1.363 . S
C315 C318 1.363 . S
N316 C318 1.356 . S
N316 H328 0.984 . S
N316 H329 0.985 . S
N317 C319 1.356 . S
N317 H322 0.984 . S
N317 H323 0.985 . S
C318 C312 1.379 . S
C318 C315 1.363 . S
C318 N316 1.356 . S
C319 C313 1.363 . S
C319 C314 1.379 . S
C319 N317 1.356 . S
N320 C312 1.356 . S
N320 H326 0.984 . S
N320 H327 0.984 . S
N321 C314 1.356 . S
N321 H324 0.984 . S
N321 H325 0.985 . S
H322 N317 0.984 . S
H323 N317 0.985 . S
H324 N321 0.984 . S
H325 N321 0.985 . S
H326 N320 0.984 . S
H327 N320 0.984 . S
H328 N316 0.984 . S
H329 N316 0.985 . S
C330 C331 1.363 1_545 S
C330 C336 1.379 . S
C330 N338 1.356 . S
C331 C330 1.363 1_565 S
C331 C337 1.363 . S
C332 C333 1.363 1_565 S
C332 C337 1.379 . S
C332 N339 1.356 . S
C333 C332 1.363 1_545 S
C333 C336 1.363 . S
N334 C336 1.356 . S
N334 H346 0.984 . S
N334 H347 0.985 . S
N335 C337 1.356 1_655 S
N335 H340 0.986 . S
N335 H341 0.985 . S
C336 C330 1.379 . S
C336 C333 1.363 . S
C336 N334 1.356 . S
C337 C331 1.363 . S
C337 C332 1.379 . S
C337 N335 1.356 1_455 S
N338 C330 1.356 . S
N338 H344 0.984 . S
N338 H345 0.984 . S
N339 C332 1.356 . S
N339 H342 0.984 . S
N339 H343 0.985 1_455 S
H340 N335 0.986 . S
H341 N335 0.985 . S
H342 N339 0.984 . S
H343 N339 0.985 1_655 S
H344 N338 0.984 . S
H345 N338 0.984 . S
H346 N334 0.984 . S
H347 N334 0.985 . S
C348 C349 1.363 1_645 S
C348 C354 1.379 . S
C348 N356 1.356 . S
C349 C348 1.363 1_465 S
C349 C355 1.363 . S
C350 C351 1.363 1_565 S
C350 C355 1.379 . S
C350 N357 1.356 . S
C351 C350 1.363 1_545 S
C351 C354 1.363 1_455 S
N352 C354 1.356 . S
N352 H364 0.984 . S
N352 H365 0.985 . S
N353 C355 1.356 . S
N353 H358 0.984 . S
N353 H359 0.985 . S
C354 C348 1.379 . S
C354 C351 1.363 1_655 S
C354 N352 1.356 . S
C355 C349 1.363 . S
C355 C350 1.379 . S
C355 N353 1.356 . S
N356 C348 1.356 . S
N356 H362 0.984 . S
N356 H363 0.984 . S
N357 C350 1.356 . S
N357 H360 0.984 . S
N357 H361 0.985 . S
H358 N353 0.984 . S
H359 N353 0.985 . S
H360 N357 0.984 . S
H361 N357 0.985 . S
H362 N356 0.984 . S
H363 N356 0.984 . S
H364 N352 0.984 . S
H365 N352 0.985 . S
C366 C367 1.363 . S
C366 C372 1.379 . S
C366 N374 1.356 . S
C367 C366 1.363 . S
C367 C373 1.363 . S
C368 C369 1.363 . S
C368 C373 1.379 . S
C368 N375 1.356 . S
C369 C368 1.363 . S
C369 C372 1.363 . S
N370 C372 1.356 . S
N370 H382 0.984 . S
N370 H383 0.985 . S
N371 C373 1.356 . S
N371 H376 0.984 . S
N371 H377 0.985 . S
C372 C366 1.379 . S
C372 C369 1.363 . S
C372 N370 1.356 . S
C373 C367 1.363 . S
C373 C368 1.379 . S
C373 N371 1.356 . S
N374 C366 1.356 . S
N374 H380 0.984 . S
N374 H381 0.984 . S
N375 C368 1.356 . S
N375 H378 0.984 . S
N375 H379 0.985 . S
H376 N371 0.984 . S
H377 N371 0.985 . S
H378 N375 0.984 . S
H379 N375 0.985 . S
H380 N374 0.984 . S
H381 N374 0.984 . S
H382 N370 0.984 . S
H383 N370 0.985 . S
C384 C385 1.363 . S
C384 C390 1.379 . S
C384 N392 1.356 . S
C385 C384 1.363 . S
C385 C391 1.363 . S
C386 C387 1.363 . S
C386 C391 1.379 . S
C386 N393 1.356 . S
C387 C386 1.363 . S
C387 C390 1.363 . S
N388 C390 1.356 . S
N388 H400 0.984 . S
N388 H401 0.985 . S
N389 C391 1.356 . S
N389 H394 0.984 . S
N389 H395 0.985 . S
C390 C384 1.379 . S
C390 C387 1.363 . S
C390 N388 1.356 . S
C391 C385 1.363 . S
C391 C386 1.379 . S
C391 N389 1.356 . S
N392 C384 1.356 . S
N392 H398 0.984 . S
N392 H399 0.984 . S
N393 C386 1.356 . S
N393 H396 0.984 . S
N393 H397 0.985 . S
H394 N389 0.984 . S
H395 N389 0.985 . S
H396 N393 0.984 . S
H397 N393 0.985 . S
H398 N392 0.984 . S
H399 N392 0.984 . S
H400 N388 0.984 . S
H401 N388 0.985 . S
C189 C151 1.335 . S
C187 C3 1.241 . S
C205 C4 1.491 1_556 S
C207 C115 1.625 . S
C223 C19 1.515 . S
C225 C175 1.607 . S
C241 C7 1.240 1_554 S
C243 C139 1.322 . S
C259 C37 1.241 . S
C261 C79 1.335 . S
C277 C28 1.491 . S
C279 C43 1.625 . S
C297 C103 1.607 . S
C295 C41 1.515 . S
C315 C67 1.322 . S
C313 C25 1.240 . S
C331 C20 1.320 . S
C333 C73 1.521 . S
C349 C16 1.364 1_455 S
C351 C109 1.526 . S
C369 C145 1.521 . S
C367 C40 1.320 . S
C385 C24 1.364 . S
C387 C181 1.526 . S
