# Generated by pormake.
# Topology pyr, (3,6)-cn, num edge types: 1
# Building blocks:
#     Node 0, Type 0, BuildingBlock: QEWDON_clean_linker_0, # of connection points: 3
#     Node 1, Type 0, BuildingBlock: QEWDON_clean_linker_0, # of connection points: 3
#     Node 2, Type 0, BuildingBlock: QEWDON_clean_linker_0, # of connection points: 3
#     Node 3, Type 0, BuildingBlock: QEWDON_clean_linker_0, # of connection points: 3
#     Node 4, Type 0, BuildingBlock: QEWDON_clean_linker_0, # of connection points: 3
#     Node 5, Type 0, BuildingBlock: QEWDON_clean_linker_0, # of connection points: 3
#     Node 6, Type 0, BuildingBlock: QEWDON_clean_linker_0, # of connection points: 3
#     Node 7, Type 0, BuildingBlock: QEWDON_clean_linker_0, # of connection points: 3
#     Node 8, Type 1, BuildingBlock: PAMTUU_clean_sbu_0, # of connection points: 6
#     Node 9, Type 1, BuildingBlock: PAMTUU_clean_sbu_0, # of connection points: 6
#     Node 10, Type 1, BuildingBlock: PAMTUU_clean_sbu_0, # of connection points: 6
#     Node 11, Type 1, BuildingBlock: PAMTUU_clean_sbu_0, # of connection points: 6
#     Edge 12, Type (0, 1), BuildingBlock: EZIPEK_clean_linker_0, # of connection points: 2
#     Edge 13, Type (0, 1), BuildingBlock: EZIPEK_clean_linker_0, # of connection points: 2
#     Edge 14, Type (0, 1), BuildingBlock: EZIPEK_clean_linker_0, # of connection points: 2
#     Edge 15, Type (0, 1), BuildingBlock: EZIPEK_clean_linker_0, # of connection points: 2
#     Edge 16, Type (0, 1), BuildingBlock: EZIPEK_clean_linker_0, # of connection points: 2
#     Edge 17, Type (0, 1), BuildingBlock: EZIPEK_clean_linker_0, # of connection points: 2
#     Edge 18, Type (0, 1), BuildingBlock: EZIPEK_clean_linker_0, # of connection points: 2
#     Edge 19, Type (0, 1), BuildingBlock: EZIPEK_clean_linker_0, # of connection points: 2
#     Edge 20, Type (0, 1), BuildingBlock: EZIPEK_clean_linker_0, # of connection points: 2
#     Edge 21, Type (0, 1), BuildingBlock: EZIPEK_clean_linker_0, # of connection points: 2
#     Edge 22, Type (0, 1), BuildingBlock: EZIPEK_clean_linker_0, # of connection points: 2
#     Edge 23, Type (0, 1), BuildingBlock: EZIPEK_clean_linker_0, # of connection points: 2
#     Edge 24, Type (0, 1), BuildingBlock: EZIPEK_clean_linker_0, # of connection points: 2
#     Edge 25, Type (0, 1), BuildingBlock: EZIPEK_clean_linker_0, # of connection points: 2
#     Edge 26, Type (0, 1), BuildingBlock: EZIPEK_clean_linker_0, # of connection points: 2
#     Edge 27, Type (0, 1), BuildingBlock: EZIPEK_clean_linker_0, # of connection points: 2
#     Edge 28, Type (0, 1), BuildingBlock: EZIPEK_clean_linker_0, # of connection points: 2
#     Edge 29, Type (0, 1), BuildingBlock: EZIPEK_clean_linker_0, # of connection points: 2
#     Edge 30, Type (0, 1), BuildingBlock: EZIPEK_clean_linker_0, # of connection points: 2
#     Edge 31, Type (0, 1), BuildingBlock: EZIPEK_clean_linker_0, # of connection points: 2
#     Edge 32, Type (0, 1), BuildingBlock: EZIPEK_clean_linker_0, # of connection points: 2
#     Edge 33, Type (0, 1), BuildingBlock: EZIPEK_clean_linker_0, # of connection points: 2
#     Edge 34, Type (0, 1), BuildingBlock: EZIPEK_clean_linker_0, # of connection points: 2
#     Edge 35, Type (0, 1), BuildingBlock: EZIPEK_clean_linker_0, # of connection points: 2
# Relax obj value: 0.215
# Max RMSD: 0.245
# Mean RMSD: 0.189
data_MOF--net-pyr--node1-PAMTUU_clean_sbu_0--node2-QEWDON_clean_linker_0--edge1-EZIPEK_clean_linker_0
_symmetry_space_group_name_H-M    P1
_symmetry_Int_Tables_number       1
_symmetry_cell_setting            triclinic
loop_
_symmetry_equiv_pos_as_xyz
'x, y, z'
_cell_length_a     28.673569
_cell_length_b     29.953721
_cell_length_c     29.948344
_cell_angle_alpha  90.196421
_cell_angle_beta   89.861862
_cell_angle_gamma 112.60339
loop_
_atom_site_label
_atom_site_type_symbol
_atom_site_fract_x
_atom_site_fract_y
_atom_site_fract_z
_atom_type_partial_charge
H0 H 0.48374 0.36787 0.19484 0.0
C1 C 0.46508 0.35757 0.22688 0.0
C2 C 0.46279 0.31444 0.24735 0.0
C3 C 0.43902 0.38453 0.24567 0.0
H4 H 0.43272 0.26581 0.30266 0.0
C5 C 0.43643 0.29991 0.28761 0.0
C6 C 0.41217 0.32753 0.3072 0.0
C7 C 0.41396 0.3699 0.28664 0.0
C8 C 0.43297 0.42482 0.22097 0.0
H9 H 0.39357 0.39008 0.30159 0.0
C10 C 0.38509 0.42755 0.21875 0.0
C11 C 0.37883 0.46688 0.19825 0.0
C12 C 0.4743 0.46099 0.20041 0.0
H13 H 0.51151 0.4597 0.2015 0.0
C14 C 0.46804 0.49992 0.17927 0.0
H15 H 0.35249 0.39935 0.2335 0.0
C16 C 0.42066 0.50318 0.17852 0.0
H17 H 0.41654 0.53385 0.16256 0.0
H18 H 0.50014 0.52795 0.16387 0.0
H19 H 0.13473 0.84576 0.81523 0.0
C20 C 0.1607 0.83014 0.80291 0.0
C21 C 0.2044 0.83697 0.82748 0.0
C22 C 0.15351 0.80798 0.76056 0.0
H23 H 0.2739 0.82535 0.82989 0.0
C24 C 0.23914 0.81837 0.81162 0.0
C25 C 0.23195 0.79526 0.77018 0.0
C26 C 0.18918 0.78989 0.74471 0.0
C27 C 0.1142 0.81105 0.7299 0.0
H28 H 0.18592 0.77489 0.71134 0.0
C29 C 0.10487 0.85388 0.72792 0.0
C30 C 0.07443 0.86067 0.69415 0.0
C31 C 0.08978 0.77368 0.69929 0.0
H32 H 0.09565 0.74008 0.70033 0.0
C33 C 0.0583 0.77975 0.66639 0.0
H34 H 0.12361 0.88339 0.75084 0.0
C35 C 0.05126 0.82322 0.66332 0.0
H36 H 0.02776 0.82772 0.63684 0.0
H37 H 0.04008 0.75099 0.64266 0.0
H38 H 0.74495 0.51461 0.9407 0.0
C39 C 0.72931 0.47701 0.95077 0.0
C40 C 0.75649 0.45971 0.981 0.0
C41 C 0.68048 0.44643 0.93622 0.0
H42 H 0.75465 0.39859 1.02008 0.0
C43 C 0.73471 0.41155 0.99591 0.0
C44 C 0.68661 0.38054 0.98151 0.0
C45 C 0.66032 0.3979 0.95119 0.0
C46 C 0.64589 0.46569 0.9126 0.0
H47 H 0.62252 0.37416 0.9413 0.0
C48 C 0.6579 0.49219 0.87183 0.0
C49 C 0.62104 0.50587 0.85033 0.0
C50 C 0.598 0.45538 0.93177 0.0
H51 H 0.58788 0.43629 0.96324 0.0
C52 C 0.56233 0.46908 0.91093 0.0
H53 H 0.69469 0.5011 0.85665 0.0
C54 C 0.57348 0.49361 0.87055 0.0
H55 H 0.54472 0.5035 0.855 0.0
H56 H 0.52562 0.46041 0.92615 0.0
H57 H 0.92438 0.83409 0.40145 0.0
C58 C 0.8962 0.81137 0.42457 0.0
C59 C 0.88986 0.83034 0.46671 0.0
C60 C 0.8636 0.76413 0.41139 0.0
H61 H 0.84423 0.8169 0.52642 0.0
C62 C 0.85071 0.80185 0.49513 0.0
C63 C 0.81753 0.75557 0.48219 0.0
C64 C 0.825 0.73661 0.44111 0.0
C65 C 0.85996 0.74675 0.36388 0.0
H66 H 0.79802 0.70146 0.43072 0.0
C67 C 0.89731 0.73419 0.34157 0.0
C68 C 0.88711 0.71201 0.29839 0.0
C69 C 0.8142 0.73857 0.34173 0.0
H70 H 0.78521 0.74809 0.35753 0.0
C71 C 0.8043 0.71695 0.29982 0.0
H72 H 0.93304 0.7406 0.35777 0.0
C73 C 0.83992 0.70324 0.27868 0.0
H74 H 0.83084 0.68623 0.2461 0.0
H75 H 0.76851 0.71041 0.28371 0.0
H76 H 0.69718 0.78274 1.01245 0.0
C77 C 0.70475 0.79856 0.97939 0.0
C78 C 0.75045 0.80482 0.95779 0.0
C79 C 0.67073 0.81612 0.9595 0.0
H80 H 0.79721 0.8339 0.90004 0.0
C81 C 0.76117 0.82738 0.916 0.0
C82 C 0.72756 0.84505 0.89632 0.0
C83 C 0.68228 0.83901 0.91782 0.0
C84 C 0.62602 0.81617 0.98393 0.0
H85 H 0.65716 0.85422 0.90306 0.0
C86 C 0.62089 0.86029 0.99197 0.0
C87 C 0.5781 0.8613 1.01381 0.0
C88 C 0.58802 0.77289 0.99824 0.0
H89 H 0.59137 0.73855 0.99228 0.0
C90 C 0.54485 0.77376 1.01949 0.0
H91 H 0.65061 0.894 0.98185 0.0
C92 C 0.53974 0.81777 1.02719 0.0
H93 H 0.50658 0.81805 1.0444 0.0
H94 H 0.51541 0.74029 1.03022 0.0
H95 H 0.98156 0.3584 0.51749 0.0
C96 C 0.96587 0.35377 0.48409 0.0
C97 C 0.96445 0.31408 0.45811 0.0
C98 C 0.94296 0.38474 0.46848 0.0
H99 H 0.93714 0.27378 0.39743 0.0
C100 C 0.94092 0.30597 0.41631 0.0
C101 C 0.91749 0.33614 0.40094 0.0
C102 C 0.92023 0.37647 0.4261 0.0
C103 C 0.9364 0.42149 0.49831 0.0
H104 H 0.90098 0.39899 0.41416 0.0
C105 C 0.88871 0.4244 0.50189 0.0
C106 C 0.88176 0.45971 0.5288 0.0
C107 C 0.97692 0.4535 0.52329 0.0
H108 H 1.01395 0.45185 0.52126 0.0
C109 C 0.97004 0.48861 0.55042 0.0
H110 H 0.85671 0.39917 0.4837 0.0
C111 C 0.9228 0.49201 0.55299 0.0
H112 H 0.91815 0.51964 0.57383 0.0
H113 H 1.00152 0.51348 0.56929 0.0
H114 H 0.45977 0.82786 0.28636 0.0
C115 C 0.42128 0.80892 0.27501 0.0
C116 C 0.40028 0.83172 0.24432 0.0
C117 C 0.39422 0.76041 0.28825 0.0
H118 H 0.33674 0.82235 0.20182 0.0
C119 C 0.35212 0.80554 0.22667 0.0
C120 C 0.3246 0.75727 0.23878 0.0
C121 C 0.34557 0.73515 0.27021 0.0
C122 C 0.42162 0.73257 0.3099 0.0
H123 H 0.32548 0.69727 0.27821 0.0
C124 C 0.42101 0.72349 0.35662 0.0
C125 C 0.44779 0.69592 0.37402 0.0
C126 C 0.44876 0.71381 0.28161 0.0
H127 H 0.4497 0.72004 0.24592 0.0
C128 C 0.47469 0.68671 0.29864 0.0
H129 H 0.40027 0.73765 0.379 0.0
C130 C 0.47423 0.67784 0.34429 0.0
H131 H 0.49492 0.65681 0.35663 0.0
H132 H 0.49534 0.67248 0.27626 0.0
H133 H 0.26547 0.49027 0.80081 0.0
C134 C 0.24133 0.45768 0.78368 0.0
C135 C 0.25576 0.44658 0.74113 0.0
C136 C 0.19798 0.42484 0.80548 0.0
H137 H 0.23729 0.3938 0.68794 0.0
C138 C 0.22583 0.40285 0.72013 0.0
C139 C 0.18268 0.36964 0.74112 0.0
C140 C 0.16893 0.38096 0.78359 0.0
C141 C 0.18829 0.43071 0.85403 0.0
H142 H 0.13656 0.35463 0.80041 0.0
C143 C 0.17618 0.46925 0.87158 0.0
C144 C 0.16525 0.47067 0.91797 0.0
C145 C 0.19046 0.39516 0.88352 0.0
H146 H 0.19996 0.36559 0.87131 0.0
C147 C 0.1807 0.39711 0.9289 0.0
H148 H 0.17413 0.49697 0.84947 0.0
C149 C 0.16805 0.43428 0.94594 0.0
H150 H 0.16009 0.43454 0.98132 0.0
H151 H 0.18264 0.36938 0.95102 0.0
Tb152 Tb 0.08913 0.11521 0.57078 0.0
Tb153 Tb 0.98062 0.09499 0.62382 0.0
C154 C 0.99149 1.02108 0.54828 0.0
C155 C 0.21416 0.1721 0.51369 0.0
C156 C 0.28409 0.23734 0.4561 0.0
C157 C 0.29577 0.20125 0.4772 0.0
C158 C 0.26085 0.16871 0.50591 0.0
C159 C 0.20393 0.2103 0.49508 0.0
C160 C 0.23888 0.24293 0.46636 0.0
C161 C 0.1746 0.13237 0.53649 0.0
O162 O 0.05176 0.15 0.52843 0.0
O163 O 0.99204 0.15407 0.57829 0.0
O164 O 0.03738 0.15295 0.66188 0.0
O165 O 0.1015 0.18059 0.61013 0.0
O166 O 0.9022 0.07575 0.61758 0.0
O167 O 0.93996 0.09913 0.68066 0.0
O168 O 1.00642 0.04521 0.65754 0.0
O169 O 0.08196 0.0605 0.62077 0.0
O170 O 0.03968 0.04688 0.54169 0.0
O171 O 0.9633 0.03461 0.57592 0.0
C172 C 1.01771 0.16678 0.54102 0.0
O173 O 0.16781 0.13842 0.5788 0.0
O174 O 0.13202 0.1134 0.5149 0.0
C175 C 0.07988 0.186 0.64737 0.0
C176 C 0.85893 0.03983 0.68329 0.0
C177 C 0.80104 0.96863 0.74329 0.0
C178 C 0.79231 1.01138 0.7386 0.0
C179 C 0.82137 0.04698 0.70878 0.0
C180 C 0.86488 0.99555 0.68547 0.0
C181 C 0.83608 0.96005 0.71542 0.0
C182 C 0.89664 0.08086 0.66026 0.0
C183 C 0.04677 0.036 0.64955 0.0
H184 H 0.33045 0.19647 0.46927 0.0
H185 H 0.26913 0.13931 0.52004 0.0
H186 H 0.16787 0.21314 0.50068 0.0
H187 H 0.22936 0.27049 0.44996 0.0
H188 H 0.7656 1.01852 0.76022 0.0
H189 H 0.81665 0.08116 0.70763 0.0
H190 H 0.89393 0.98976 0.66609 0.0
H191 H 0.84343 0.92736 0.71896 0.0
Tb192 Tb 0.5958 0.11657 0.14065 0.0
Tb193 Tb 0.4903 0.09563 0.08466 0.0
C194 C 0.56349 0.04287 0.06242 0.0
C195 C 0.71502 0.16855 0.20523 0.0
C196 C 0.7859 0.24016 0.25737 0.0
C197 C 0.74495 0.24834 0.23896 0.0
C198 C 0.70954 0.21257 0.21286 0.0
C199 C 0.75756 0.16173 0.22133 0.0
C200 C 0.79294 0.19744 0.24729 0.0
C201 C 0.6749 0.12812 0.18375 0.0
O202 O 0.61563 0.18353 0.10368 0.0
O203 O 0.54742 0.16185 0.05578 0.0
O204 O 0.48467 0.13432 0.14422 0.0
O205 O 0.56745 0.16911 0.16684 0.0
O206 O 0.45702 0.09412 1.0223 0.0
O207 O 0.41339 0.08459 0.08311 0.0
O208 O 0.46864 1.03034 0.1251 0.0
O209 O 0.54008 0.04922 0.16876 0.0
O210 O 0.60053 0.07997 0.07917 0.0
O211 O 0.51696 0.04059 0.06264 0.0
C212 C 0.59184 0.19265 0.06971 0.0
O213 O 0.63026 0.11557 0.20189 0.0
O214 O 0.67314 0.12948 0.14033 0.0
C215 C 0.52102 0.16743 0.16633 0.0
C216 C 0.37153 0.04263 1.01922 0.0
C217 C 0.29966 0.97017 0.96845 0.0
C218 C 0.29173 1.0122 0.97971 0.0
C219 C 0.32771 0.04841 1.00491 0.0
C220 C 0.37761 0.99907 1.01081 0.0
C221 C 0.34182 0.963 0.98536 0.0
C222 C 0.41224 0.08358 1.03963 0.0
C223 C 0.49412 1.01988 0.15711 0.0
H224 H 0.73894 0.28104 0.24691 0.0
H225 H 0.6768 0.21827 0.20043 0.0
H226 H 0.7622 0.12795 0.21553 0.0
H227 H 0.82421 0.19063 0.26166 0.0
H228 H 0.25948 1.01824 0.96656 0.0
H229 H 0.32251 0.08182 1.0114 0.0
H230 H 0.41115 0.994 1.02199 0.0
H231 H 0.34847 0.93079 0.97666 0.0
Tb232 Tb 0.53613 0.56107 0.59086 0.0
Tb233 Tb 0.54117 0.65861 0.64216 0.0
C234 C 0.49466 0.63481 0.54631 0.0
C235 C 0.59163 0.48227 0.54226 0.0
C236 C 0.6844 0.47098 0.53491 0.0
C237 C 0.68232 0.51656 0.52904 0.0
C238 C 0.63636 0.52214 0.53251 0.0
C239 C 0.5935 0.43642 0.5472 0.0
C240 C 0.63962 0.43073 0.5433 0.0
C241 C 0.54472 0.48976 0.55206 0.0
O242 O 0.61494 0.61088 0.58803 0.0
O243 O 0.60429 0.68246 0.59517 0.0
O244 O 0.59378 0.6341 0.67785 0.0
O245 O 0.55279 0.55426 0.6613 0.0
O246 O 0.55065 0.73171 0.64037 0.0
O247 O 0.53655 0.69278 0.70242 0.0
O248 O 0.47514 0.59933 0.66899 0.0
O249 O 0.45827 0.54253 0.61291 0.0
O250 O 0.51806 0.60506 0.54041 0.0
O251 O 0.48909 0.64987 0.58646 0.0
C252 C 0.63102 0.65773 0.58198 0.0
O253 O 0.53398 0.49006 0.59424 0.0
O254 O 0.53893 0.52524 0.53104 0.0
C255 C 0.58354 0.58838 0.68714 0.0
C256 C 0.49438 0.74452 0.69089 0.0
C257 C 0.40705 0.76089 0.71242 0.0
C258 C 0.45134 0.78301 0.73753 0.0
C259 C 0.49486 0.77472 0.72686 0.0
C260 C 0.45023 0.72317 0.66537 0.0
C261 C 0.40683 0.73132 0.67606 0.0
C262 C 0.53797 0.73161 0.68216 0.0
C263 C 0.445 0.55913 0.64956 0.0
H264 H 0.71646 0.54797 0.52249 0.0
H265 H 0.63614 0.55795 0.52856 0.0
H266 H 0.55958 0.40535 0.55518 0.0
H267 H 0.64065 0.39526 0.54786 0.0
H268 H 0.45188 0.80598 0.76571 0.0
H269 H 0.52846 0.79104 0.74712 0.0
H270 H 0.44906 0.6995 0.63766 0.0
H271 H 0.37289 0.71409 0.65642 0.0
Tb272 Tb 0.05238 0.65991 0.07578 0.0
Tb273 Tb 0.03711 0.56299 0.13404 0.0
C274 C 0.09054 0.58128 1.03731 0.0
C275 C 1.01396 0.75194 1.02584 0.0
C276 C 0.92681 0.77197 1.0116 0.0
C277 C 0.94846 0.75573 0.97627 0.0
C278 C 0.99168 0.74584 0.98331 0.0
C279 C 0.99364 0.77066 0.0606 0.0
C280 C 0.95011 0.78013 0.05363 0.0
C281 C 0.05459 0.73402 1.03442 0.0
O282 O 0.9735 0.61143 0.06443 0.0
O283 O 0.96999 0.53832 0.09208 0.0
O284 O 0.98629 0.59292 0.16592 0.0
O285 O 0.02863 0.67098 0.14311 0.0
O286 O 0.03101 0.49069 0.13656 0.0
O287 O 0.0356 0.53139 0.19688 0.0
O288 O 0.10173 0.62198 0.16204 0.0
O289 O 0.12778 0.67261 0.10183 0.0
O290 O 0.07656 0.61727 1.0289 0.0
O291 O 0.08654 0.56254 0.07763 0.0
C292 C 0.95065 0.56412 0.06863 0.0
O293 O 0.06946 0.73485 0.0756 0.0
O294 O 0.04881 0.69329 1.01505 0.0
C295 C 0.99627 0.63952 0.17003 0.0
C296 C 0.08644 0.48539 0.19187 0.0
C297 C 0.17961 0.47487 0.19992 0.0
C298 C 0.17604 0.51914 0.21008 0.0
C299 C 0.12995 0.52438 0.20613 0.0
C300 C 0.08954 0.44043 0.18364 0.0
C301 C 0.13583 0.43514 0.18778 0.0
C302 C 0.04062 0.49366 0.1792 0.0
C303 C 0.13642 0.65776 0.14111 0.0
H304 H 0.93119 0.74968 0.94349 0.0
H305 H 1.00671 0.73185 0.95581 0.0
H306 H 1.0103 0.77648 0.0936 0.0
H307 H 0.93414 0.79313 0.08115 0.0
H308 H 0.20937 0.55011 0.21966 0.0
H309 H 0.12904 0.55965 0.21241 0.0
H310 H 0.05669 0.41004 0.17218 0.0
H311 H 0.13796 0.40066 0.17987 0.0
C312 C 0.39503 0.32319 0.3896 0.0
C313 C 0.37819 0.30785 0.34559 0.0
C314 C 0.29969 0.24711 0.37414 0.0
C315 C 0.31537 0.26377 0.41815 0.0
N316 N 0.37314 0.32196 0.46814 0.0
N317 N 0.31104 0.26311 0.29488 0.0
C318 C 0.36166 0.30325 0.42602 0.0
C319 C 0.32935 0.27227 0.33754 0.0
N320 N 0.4433 0.35563 0.3965 0.0
N321 N 0.25764 0.2059 0.36737 0.0
H322 H 0.33192 0.28034 0.26694 0.0
H323 H 0.27365 0.24158 0.2874 0.0
H324 H 0.23434 0.18631 0.39317 0.0
H325 H 0.24795 0.18879 0.33648 0.0
H326 H 0.45979 0.36447 0.42792 0.0
H327 H 0.46822 0.37167 0.37039 0.0
H328 H 0.40393 0.35361 0.47551 0.0
H329 H 0.34947 0.30772 0.49546 0.0
C330 C 0.21019 0.85754 0.90922 0.0
C331 C 0.22025 0.87267 0.86421 0.0
C332 C 0.27957 0.95236 0.8878 0.0
C333 C 0.26907 0.93773 0.93298 0.0
N334 N 0.21844 0.88075 0.98758 0.0
N335 N 0.25438 0.93704 0.81043 0.0
C336 C 0.2323 0.89159 0.944 0.0
C337 C 0.25145 0.92107 0.85351 0.0
N338 N 0.18087 0.81038 0.91846 0.0
N339 N 0.31853 0.99492 0.87748 0.0
H340 H 0.23534 0.91492 0.78394 0.0
H341 H 0.27199 0.97326 0.80147 0.0
H342 H 0.34046 1.01923 0.90142 0.0
H343 H 0.33202 1.00447 0.84514 0.0
H344 H 0.17639 0.79552 0.95032 0.0
H345 H 0.16267 0.78528 0.89358 0.0
H346 H 0.18871 0.84946 0.99766 0.0
H347 H 0.2344 0.90505 1.01362 0.0
C348 C 0.6248 0.5795 0.80853 0.0
C349 C 0.62935 0.53402 0.80732 0.0
C350 C 0.62182 0.5347 0.72534 0.0
C351 C 0.60521 0.57383 0.72806 0.0
N352 N 0.58434 0.62887 0.77603 0.0
N353 N 0.63013 0.46672 0.7635 0.0
C354 C 0.6059 0.59576 0.77054 0.0
C355 C 0.62802 0.51144 0.76531 0.0
N356 N 0.63697 0.60639 0.8468 0.0
N357 N 0.63283 0.52039 0.68465 0.0
H358 H 0.63579 0.44917 0.79173 0.0
H359 H 0.62324 0.44599 0.73442 0.0
H360 H 0.63131 0.53811 0.65508 0.0
H361 H 0.64894 0.49479 0.68086 0.0
H362 H 0.63858 0.64171 0.84875 0.0
H363 H 0.65073 0.59501 0.87498 0.0
H364 H 0.5796 0.64222 0.80716 0.0
H365 H 0.56573 0.63881 0.75063 0.0
C366 C 0.93636 0.71929 0.22739 0.0
C367 C 0.92422 0.69882 0.27065 0.0
C368 C 0.96651 0.64334 0.25066 0.0
C369 C 0.97041 0.65847 0.20517 0.0
N370 N 0.94559 0.70341 0.14962 0.0
N371 N 0.92255 0.63599 0.32152 0.0
C372 C 0.95194 0.69465 0.19343 0.0
C373 C 0.93809 0.65943 0.2819 0.0
N374 N 0.9326 0.76248 0.21851 0.0
N375 N 0.99141 0.6152 0.2647 0.0
H376 H 0.90234 0.64684 0.34521 0.0
H377 H 0.92656 0.60377 0.32931 0.0
H378 H 1.01416 0.60443 0.24364 0.0
H379 H 0.99372 0.60687 0.29816 0.0
H380 H 0.94496 0.78104 0.1886 0.0
H381 H 0.92229 0.78197 0.24289 0.0
H382 H 0.92665 0.72527 0.13979 0.0
H383 H 0.95341 0.68449 0.12332 0.0
C384 C 0.46162 0.25959 0.18314 0.0
C385 C 0.48225 0.28073 0.22468 0.0
C386 C 0.52674 0.22534 0.23011 0.0
C387 C 0.50982 0.20768 0.18658 0.0
N388 N 0.47607 0.222 0.11632 0.0
N389 N 0.54387 0.29146 0.28272 0.0
C390 C 0.48178 0.22901 0.16141 0.0
C391 C 0.51795 0.26609 0.24658 0.0
N392 N 0.42102 0.26635 0.16522 0.0
N393 N 0.54879 0.202 0.25664 0.0
H394 H 0.53899 0.32202 0.29503 0.0
H395 H 0.5736 0.28511 0.29749 0.0
H396 H 0.55384 0.17078 0.24668 0.0
H397 H 0.55739 0.21078 0.29013 0.0
H398 H 0.402 0.24758 0.13707 0.0
H399 H 0.40283 0.28629 0.1809 0.0
H400 H 0.45969 0.24047 0.09636 0.0
H401 H 0.49322 0.20281 0.09809 0.0
C402 C 0.1092 0.95186 0.68505 0.0
C403 C 0.06727 0.90725 0.69026 0.0
C404 C 1.01006 0.94732 0.67193 0.0
C405 C 0.05167 0.99287 0.67037 0.0
N406 N 0.1384 0.03891 0.6908 0.0
N407 N 0.97779 0.86734 0.70415 0.0
C408 C 0.10046 0.99528 0.6822 0.0
C409 C 1.01769 0.90669 0.68916 0.0
N410 N 0.15696 0.95293 0.67983 0.0
N411 N 0.96454 0.94094 0.65321 0.0
H412 H 0.98222 0.83736 0.71815 0.0
H413 H 0.94144 0.86709 0.7072 0.0
H414 H 0.95786 0.96746 0.63528 0.0
H415 H 0.93522 0.90708 0.65036 0.0
H416 H 0.18774 0.98445 0.67191 0.0
H417 H 0.16505 0.9219 0.67852 0.0
H418 H 0.17365 0.0421 0.7028 0.0
H419 H 0.13253 0.07122 0.69097 0.0
C420 C 0.85048 0.48269 0.98683 0.0
C421 C 0.80715 0.49154 0.99961 0.0
C422 C 0.85864 0.55118 0.05522 0.0
C423 C 0.9008 0.53869 1.04541 0.0
N424 N 0.93412 0.48691 1.0056 0.0
N425 N 0.76805 0.53029 0.04931 0.0
C426 C 0.89587 0.50279 1.01232 0.0
C427 C 0.81085 0.52519 1.03439 0.0
N428 N 0.84854 0.4559 0.9493 0.0
N429 N 0.86384 0.5872 0.08529 0.0
H430 H 0.7327 0.51243 1.03478 0.0
H431 H 0.76668 0.54964 0.07787 0.0
H432 H 0.89579 0.60301 0.10516 0.0
H433 H 0.83736 0.60285 0.08931 0.0
H434 H 0.88012 0.45238 0.93504 0.0
H435 H 0.81609 0.44098 0.92975 0.0
H436 H 0.93031 0.45678 0.98623 0.0
H437 H 0.9688 0.50142 1.02179 0.0
C438 C 0.72496 0.73555 0.49517 0.0
C439 C 0.77011 0.73023 0.50825 0.0
C440 C 0.72528 0.68067 0.57222 0.0
C441 C 0.67923 0.68281 0.55695 0.0
N442 N 0.63365 0.70323 0.498 0.0
N443 N 0.81235 0.69267 0.55536 0.0
C444 C 0.67867 0.70794 0.51689 0.0
C445 C 0.76998 0.70124 0.54569 0.0
N446 N 0.72637 0.76772 0.46238 0.0
N447 N 0.72678 0.66075 0.61292 0.0
H448 H 0.84585 0.70805 0.53723 0.0
H449 H 0.81325 0.66765 0.57904 0.0
H450 H 0.69518 0.6461 0.63352 0.0
H451 H 0.76004 0.66234 0.62805 0.0
H452 H 0.69603 0.77746 0.45516 0.0
H453 H 0.75911 0.78784 0.44477 0.0
H454 H 0.6306 0.71637 0.46645 0.0
H455 H 0.59883 0.68185 0.51168 0.0
C456 C 0.30665 0.47719 0.23914 0.0
C457 C 0.32823 0.47001 0.1983 0.0
C458 C 0.25303 0.46835 0.15806 0.0
C459 C 0.23002 0.47144 0.19942 0.0
N460 N 0.23407 0.4764 0.27999 0.0
N461 N 0.31802 0.44976 0.11988 0.0
C462 C 0.25651 0.47489 0.24001 0.0
C463 C 0.30035 0.46318 0.15796 0.0
N464 N 0.33312 0.48671 0.27813 0.0
N465 N 0.23087 0.47265 0.11879 0.0
H466 H 0.3523 0.44527 0.1184 0.0
H467 H 0.29673 0.43892 0.0908 0.0
H468 H 0.19658 0.4771 0.11729 0.0
H469 H 0.24861 0.47625 0.08785 0.0
H470 H 0.37082 0.49081 0.28093 0.0
H471 H 0.37082 0.49081 0.28093 0.0
H472 H 0.25258 0.47912 0.31047 0.0
H473 H 0.19666 0.47326 0.28272 0.0
C474 C 0.65901 0.28907 0.98099 0.0
C475 C 0.66109 0.3319 1.00297 0.0
C476 C 0.62124 0.28418 0.06937 0.0
C477 C 0.61582 0.24063 1.04652 0.0
N478 N 0.62539 0.20108 0.97886 0.0
N479 N 0.6355 0.36929 0.06452 0.0
C480 C 0.63326 0.24297 1.00167 0.0
C481 C 0.63972 0.32911 1.04615 0.0
N482 N 0.68321 0.29269 0.94097 0.0
N483 N 0.60959 0.28303 0.11368 0.0
H484 H 0.64892 0.40297 1.04893 0.0
H485 H 0.61473 0.36847 0.09329 0.0
H486 H 0.59445 0.25123 0.13175 0.0
H487 H 0.61859 0.31383 0.13352 0.0
H488 H 0.68818 0.26384 0.92519 0.0
H489 H 0.70152 0.32563 0.92475 0.0
H490 H 0.63167 0.19971 0.94474 0.0
H491 H 0.60986 0.167 0.99358 0.0
C492 C 0.96625 0.89239 0.50441 0.0
C493 C 0.92033 0.88162 0.48089 0.0
C494 C 0.9255 0.96467 0.49557 0.0
C495 C 0.96802 0.97353 0.52373 0.0
N496 N 0.02639 0.94346 0.55815 0.0
N497 N 0.85406 0.90622 0.45594 0.0
C498 C 0.98809 0.93692 0.52857 0.0
C499 C 0.8995 0.91755 0.47688 0.0
N500 N 0.98914 0.8599 0.50356 0.0
N501 N 0.91123 1.00196 0.48505 0.0
H502 H 0.83559 0.87343 0.4394 0.0
H503 H 0.83335 0.92813 0.45694 0.0
H504 H 0.93004 0.037 0.49712 0.0
H505 H 0.88398 0.99946 0.46121 0.0
H506 H 0.02534 0.86736 0.51573 0.0
H507 H 0.97361 0.82667 0.48713 0.0
H508 H 0.03807 0.91606 0.56788 0.0
H509 H 0.0442 0.97533 0.57594 0.0
C510 C 0.31213 0.82002 0.72609 0.0
C511 C 0.27375 0.78398 0.75092 0.0
C512 C 0.32274 0.73268 0.75052 0.0
C513 C 0.36039 0.76811 0.72458 0.0
N514 N 0.3875 0.84083 0.68046 0.0
N515 N 0.23743 0.70326 0.78049 0.0
C516 C 0.35402 0.81041 0.71015 0.0
C517 C 0.27748 0.73933 0.76112 0.0
N518 N 0.30936 0.86406 0.71916 0.0
N519 N 0.33113 0.69359 0.76624 0.0
H520 H 0.20404 0.70741 0.7891 0.0
H521 H 0.23553 0.66815 0.78487 0.0
H522 H 0.36348 0.68711 0.75853 0.0
H523 H 0.30783 0.66917 0.78928 0.0
H524 H 0.33899 0.89386 0.70635 0.0
H525 H 0.2784 0.87198 0.72878 0.0
H526 H 0.38202 0.8694 0.66481 0.0
H527 H 0.41913 0.8353 0.66862 0.0
C528 C 0.7247 0.85935 0.81387 0.0
C529 C 0.74378 0.87685 0.85688 0.0
C530 C 0.80174 0.95283 0.82488 0.0
C531 C 0.7802 0.93697 0.78222 0.0
N532 N 0.71681 0.8787 0.73626 0.0
N533 N 0.79172 0.9436 0.90488 0.0
C534 C 0.7403 0.89118 0.77671 0.0
C535 C 0.77969 0.92465 0.86285 0.0
N536 N 0.69289 0.81209 0.8085 0.0
N537 N 0.84457 0.99386 0.82897 0.0
H538 H 0.77598 0.92425 0.93374 0.0
H539 H 0.81352 0.97992 0.91103 0.0
H540 H 0.86245 1.01567 0.80198 0.0
H541 H 0.86509 1.00395 0.85852 0.0
H542 H 0.68177 0.7957 0.77748 0.0
H543 H 0.6802 0.78813 0.8352 0.0
H544 H 0.68421 0.84795 0.73112 0.0
H545 H 0.72781 0.90116 0.70837 0.0
C546 C 0.8306 0.28976 0.37278 0.0
C547 C 0.88168 0.31941 0.3633 0.0
C548 C 0.86547 0.3067 0.28307 0.0
C549 C 0.81673 0.27194 0.29304 0.0
N550 N 0.75295 0.22746 0.34675 0.0
N551 N 0.94896 0.35688 0.31073 0.0
C552 C 0.79897 0.26321 0.33769 0.0
C553 C 0.89939 0.32856 0.3187 0.0
N554 N 0.81241 0.28676 0.41545 0.0
N555 N 0.87889 0.3187 0.23957 0.0
H556 H 0.974 0.37491 0.33616 0.0
H557 H 0.96595 0.36096 0.27945 0.0
H558 H 0.85462 0.30287 0.21298 0.0
H559 H 0.91218 0.34662 0.22984 0.0
H560 H 0.77424 0.27051 0.42353 0.0
H561 H 0.83475 0.30374 0.44272 0.0
H562 H 0.74081 0.21477 0.37875 0.0
H563 H 0.72775 0.20788 0.32205 0.0
C564 C 0.42176 0.63772 0.43891 0.0
C565 C 0.45039 0.68506 0.42295 0.0
C566 C 0.49989 0.70259 0.49292 0.0
C567 C 0.47599 0.6532 0.506 0.0
N568 N 0.41348 0.57355 0.4919 0.0
N569 N 0.51795 0.76244 0.43373 0.0
C570 C 0.43644 0.62082 0.47918 0.0
C571 C 0.4892 0.71771 0.45012 0.0
N572 N 0.38018 0.60911 0.41535 0.0
N573 N 0.53348 0.73511 0.52114 0.0
H574 H 0.50986 0.77539 0.40366 0.0
H575 H 0.55119 0.78584 0.44854 0.0
H576 H 0.54506 0.72527 0.55113 0.0
H577 H 0.54767 0.77235 0.51629 0.0
H578 H 0.35474 0.57568 0.42628 0.0
H579 H 0.36871 0.62087 0.38614 0.0
H580 H 0.38867 0.54646 0.47179 0.0
H581 H 0.42089 0.56076 0.52233 0.0
C582 C 0.18336 0.54137 0.97083 0.0
C583 C 0.15007 0.50877 0.93951 0.0
C584 C 0.08291 0.53613 0.96357 0.0
C585 C 0.11319 0.56165 1.00019 0.0
N586 N 0.19452 0.59396 1.03556 0.0
N587 N 0.0668 0.47311 0.90758 0.0
C588 C 0.16424 0.56593 1.00273 0.0
C589 C 0.09971 0.50625 0.93579 0.0
N590 N 0.23354 0.54914 0.96938 0.0
N591 N 0.03826 0.54073 0.95483 0.0
H592 H 0.07773 0.45151 0.88599 0.0
H593 H 0.02803 0.46475 0.90763 0.0
H594 H 0.02456 0.56209 0.97402 0.0
H595 H 1.01705 0.5271 0.92613 0.0
H596 H 0.26113 0.57466 0.98876 0.0
H597 H 0.24833 0.53236 0.94583 0.0
H598 H 0.22994 0.59432 1.04359 0.0
H599 H 0.18348 0.61688 0.05538 0.0
C600 C 0.59084 0.92796 0.06886 0.0
C601 C 0.57573 0.90855 1.02558 0.0
C602 C 0.55732 0.97939 1.00517 0.0
C603 C 0.57264 0.99927 1.04828 0.0
N604 N 0.60998 0.99521 0.12007 0.0
N605 N 0.54463 0.91646 0.9519 0.0
C606 C 0.59139 0.97448 0.07974 0.0
C607 C 0.55934 0.93432 0.9937 0.0
N608 N 0.60279 0.90091 0.10023 0.0
N609 N 0.54142 1.00393 0.97429 0.0
H610 H 0.54429 0.8834 0.94038 0.0
H611 H 0.54429 0.8834 0.94038 0.0
H612 H 0.5415 0.03832 0.98015 0.0
H613 H 0.52936 0.9902 0.94241 0.0
H614 H 0.60676 0.90917 0.13413 0.0
H615 H 0.60565 0.86797 0.09307 0.0
H616 H 0.63063 0.98253 0.14147 0.0
H617 H 0.60782 1.02697 0.1318 0.0
C618 C 0.94162 0.23092 0.48918 0.0
C619 C 0.97966 0.27611 0.47736 0.0
C620 C 0.04488 0.24883 0.50444 0.0
C621 C 1.00687 0.20247 0.51323 0.0
N622 N 0.92098 0.14604 0.50344 0.0
N623 N 0.06767 0.32529 0.46555 0.0
C624 C 0.95582 0.19252 0.50216 0.0
C625 C 0.03144 0.28419 0.48236 0.0
N626 N 0.89196 0.22525 0.48995 0.0
N627 N 0.09304 0.26023 0.51951 0.0
H628 H 0.05907 0.35219 0.44979 0.0
H629 H 0.10579 0.33081 0.46396 0.0
H630 H 0.10433 0.23588 0.53657 0.0
H631 H 0.12075 0.29509 0.51853 0.0
H632 H 0.86329 0.1947 0.50285 0.0
H633 H 0.87983 0.25288 0.48188 0.0
H634 H 0.88421 0.13591 0.49153 0.0
H635 H 0.93036 0.11683 0.51208 0.0
C636 C 0.23452 0.74519 0.21966 0.0
C637 C 0.27542 0.7297 0.21537 0.0
C638 C 0.22342 0.66444 0.16497 0.0
C639 C 0.18525 0.68373 0.1649 0.0
N640 N 0.15677 0.74603 0.18842 0.0
N641 N 0.31199 0.68017 0.1764 0.0
C642 C 0.19162 0.72531 0.19104 0.0
C643 C 0.27074 0.69075 0.18599 0.0
N644 N 0.23582 0.77762 0.25234 0.0
N645 N 0.21418 0.6204 0.14586 0.0
H646 H 0.34763 0.6992 0.18994 0.0
H647 H 0.31203 0.65561 0.1517 0.0
H648 H 0.17965 0.59959 0.13122 0.0
H649 H 0.23884 0.60249 0.14828 0.0
H650 H 0.20522 0.78676 0.26022 0.0
H651 H 0.26589 0.79192 0.27461 0.0
H652 H 0.16192 0.77927 0.20285 0.0
H653 H 0.12439 0.7319 0.16874 0.0
C654 C 0.30988 0.52013 0.69608 0.0
C655 C 0.30514 0.47765 0.71989 0.0
C656 C 0.39 0.48627 0.69416 0.0
C657 C 0.39591 0.53014 0.67215 0.0
N658 N 0.36407 0.59202 0.65613 0.0
N659 N 0.34373 0.42501 0.74844 0.0
C660 C 0.35662 0.54809 0.67451 0.0
C661 C 0.34611 0.46206 0.72075 0.0
N662 N 0.26896 0.5327 0.69264 0.0
N663 N 0.42631 0.46746 0.68954 0.0
H664 H 0.3125 0.40665 0.76855 0.0
H665 H 0.37414 0.4151 0.75466 0.0
H666 H 0.46013 0.48503 0.67251 0.0
H667 H 0.42165 0.43288 0.69993 0.0
H668 H 0.26766 0.55993 0.67181 0.0
H669 H 0.23472 0.51371 0.70867 0.0
H670 H 0.34008 0.61025 0.66139 0.0
H671 H 0.39593 0.61166 0.63727 0.0
C672 C 0.83386 0.83366 0.99627 0.0
C673 C 0.791 0.79424 0.98052 0.0
C674 C 0.83352 0.73906 0.99629 0.0
C675 C 0.87911 0.77956 1.00442 0.0
N676 N 0.92427 0.86614 1.00809 0.0
N677 N 0.7498 0.70943 0.96334 0.0
C678 C 0.87965 0.82711 1.00386 0.0
C679 C 0.79048 0.74675 0.98038 0.0
N680 N 0.83054 0.87733 1.00407 0.0
N681 N 0.83123 0.6934 1.00456 0.0
H682 H 0.71715 0.71364 0.95261 0.0
H683 H 0.74956 0.67507 0.9574 0.0
H684 H 0.86192 0.6866 1.01675 0.0
H685 H 0.79788 0.66273 1.00329 0.0
H686 H 0.85901 0.90627 1.01944 0.0
H687 H 0.79718 0.88298 0.99934 0.0
H688 H 0.92771 0.90162 1.00285 0.0
H689 H 0.95885 0.86303 1.01318 0.0
C690 C 0.44893 0.88371 0.18098 0.0
C691 C 0.43025 0.88078 0.22517 0.0
C692 C 0.45794 0.96971 0.22664 0.0
C693 C 0.47088 0.97185 0.18049 0.0
N694 N 0.46953 0.92832 0.11195 0.0
N695 N 0.41271 0.92024 0.28937 0.0
C696 C 0.46383 0.92813 0.1572 0.0
C697 C 0.43396 0.92368 0.24798 0.0
N698 N 0.45322 0.84393 0.16185 0.0
N699 N 0.46808 1.01166 0.25002 0.0
H700 H 0.39625 0.88745 0.30624 0.0
H701 H 0.40863 0.94917 0.30586 0.0
H702 H 0.48224 0.04569 0.23509 0.0
H703 H 0.4651 1.01301 0.28461 0.0
H704 H 0.4719 0.84504 0.13174 0.0
H705 H 0.44274 0.81083 0.17829 0.0
H706 H 0.45983 0.89702 0.09271 0.0
H707 H 0.47909 0.95933 0.09286 0.0
C708 C 0.16428 0.28031 0.73057 0.0
C709 C 0.15375 0.3216 0.71927 0.0
C710 C 0.09481 0.27408 0.66093 0.0
C711 C 0.10386 0.23225 0.6733 0.0
N712 N 0.14126 0.19337 0.72399 0.0
N713 N 0.10386 0.3564 0.67853 0.0
C714 C 0.13679 0.23478 0.70946 0.0
C715 C 0.11752 0.31801 0.68577 0.0
N716 N 0.20196 0.2851 0.7604 0.0
N717 N 0.06504 0.27201 0.62481 0.0
H718 H 0.12013 0.38915 0.69563 0.0
H719 H 0.07397 0.35493 0.65815 0.0
H720 H 0.04534 0.24 0.60774 0.0
H721 H 0.06191 0.30217 0.61014 0.0
H722 H 0.21575 0.25825 0.7665 0.0
H723 H 0.22204 0.31738 0.77716 0.0
H724 H 0.16011 0.19131 0.75307 0.0
H725 H 0.1229 0.15988 0.70858 0.0
C726 C 0.81148 0.47651 0.49209 0.0
C727 C 0.83128 0.46293 0.53081 0.0
C728 C 0.75595 0.45744 0.57311 0.0
C729 C 0.73409 0.46618 0.53328 0.0
N730 N 0.73693 0.47508 0.45321 0.0
N731 N 0.81839 0.43138 0.60588 0.0
C732 C 0.76069 0.4731 0.49223 0.0
C733 C 0.8024 0.45082 0.57074 0.0
N734 N 0.84177 0.49434 0.4557 0.0
N735 N 0.73339 0.45726 0.61341 0.0
H736 H 0.85193 0.42546 0.60532 0.0
H737 H 0.79623 0.41709 0.63397 0.0
H738 H 0.69953 0.46233 0.61669 0.0
H739 H 0.75046 0.45638 0.64388 0.0
H740 H 0.83097 0.50948 0.42834 0.0
H741 H 0.87951 0.49829 0.45456 0.0
H742 H 0.75266 0.47501 0.42183 0.0
H743 H 0.69951 0.47219 0.45197 0.0
loop_
_geom_bond_atom_site_label_1
_geom_bond_atom_site_label_2
_geom_bond_distance
_geom_bond_site_symmetry_2
_ccdc_geom_bond_type
H0 C1 0.949 . S
C1 H0 0.949 . S
C1 C2 1.395 . S
C1 C3 1.391 . S
C2 C1 1.395 . S
C2 C5 1.390 . S
C3 C1 1.391 . S
C3 C7 1.387 . S
C3 C8 1.491 . S
H4 C5 0.950 . S
C5 C2 1.390 . S
C5 H4 0.950 . S
C5 C6 1.378 . S
C6 C5 1.378 . S
C6 C7 1.409 . S
C7 C3 1.387 . S
C7 C6 1.409 . S
C7 H9 0.951 . S
C8 C3 1.491 . S
C8 C10 1.382 . S
C8 C12 1.404 . S
H9 C7 0.951 . S
C10 C8 1.382 . S
C10 C11 1.390 . S
C10 H15 0.949 . S
C11 C10 1.390 . S
C11 C16 1.399 . S
C12 C8 1.404 . S
C12 H13 0.950 . S
C12 C14 1.375 . S
H13 C12 0.950 . S
C14 C12 1.375 . S
C14 C16 1.382 . S
C14 H18 0.950 . S
H15 C10 0.949 . S
C16 C11 1.399 . S
C16 C14 1.382 . S
C16 H17 0.952 . S
H17 C16 0.952 . S
H18 C14 0.950 . S
H19 C20 0.949 . S
C20 H19 0.949 . S
C20 C21 1.395 . S
C20 C22 1.391 . S
C21 C20 1.395 . S
C21 C24 1.390 . S
C22 C20 1.391 . S
C22 C26 1.387 . S
C22 C27 1.491 . S
H23 C24 0.950 . S
C24 C21 1.390 . S
C24 H23 0.950 . S
C24 C25 1.378 . S
C25 C24 1.378 . S
C25 C26 1.409 . S
C26 C22 1.387 . S
C26 C25 1.409 . S
C26 H28 0.951 . S
C27 C22 1.491 . S
C27 C29 1.382 . S
C27 C31 1.404 . S
H28 C26 0.951 . S
C29 C27 1.382 . S
C29 C30 1.390 1_455 S
C29 H34 0.949 . S
C30 C29 1.390 1_655 S
C30 C35 1.399 . S
C31 C27 1.404 . S
C31 H32 0.950 . S
C31 C33 1.375 1_455 S
H32 C31 0.950 . S
C33 C31 1.375 1_655 S
C33 C35 1.382 . S
C33 H37 0.950 . S
H34 C29 0.949 . S
C35 C30 1.399 . S
C35 C33 1.382 . S
C35 H36 0.952 . S
H36 C35 0.952 . S
H37 C33 0.950 . S
H38 C39 0.949 . S
C39 H38 0.949 . S
C39 C40 1.395 . S
C39 C41 1.391 . S
C40 C39 1.395 . S
C40 C43 1.390 . S
C41 C39 1.391 . S
C41 C45 1.387 . S
C41 C46 1.491 . S
H42 C43 0.950 . S
C43 C40 1.390 . S
C43 H42 0.950 . S
C43 C44 1.378 . S
C44 C43 1.378 . S
C44 C45 1.409 . S
C45 C41 1.387 . S
C45 C44 1.409 . S
C45 H47 0.951 . S
C46 C41 1.491 . S
C46 C48 1.382 . S
C46 C50 1.404 . S
H47 C45 0.951 . S
C48 C46 1.382 . S
C48 C49 1.390 . S
C48 H53 0.949 . S
C49 C48 1.390 . S
C49 C54 1.399 . S
C50 C46 1.404 . S
C50 H51 0.950 . S
C50 C52 1.375 . S
H51 C50 0.950 . S
C52 C50 1.375 . S
C52 C54 1.382 . S
C52 H56 0.950 . S
H53 C48 0.949 . S
C54 C49 1.399 . S
C54 C52 1.382 . S
C54 H55 0.952 . S
H55 C54 0.952 . S
H56 C52 0.950 . S
H57 C58 0.949 . S
C58 H57 0.949 . S
C58 C59 1.395 . S
C58 C60 1.391 . S
C59 C58 1.395 . S
C59 C62 1.390 . S
C60 C58 1.391 . S
C60 C64 1.387 . S
C60 C65 1.491 . S
H61 C62 0.950 . S
C62 C59 1.390 . S
C62 H61 0.950 . S
C62 C63 1.378 . S
C63 C62 1.378 . S
C63 C64 1.409 . S
C64 C60 1.387 . S
C64 C63 1.409 . S
C64 H66 0.951 . S
C65 C60 1.491 . S
C65 C67 1.382 . S
C65 C69 1.404 . S
H66 C64 0.951 . S
C67 C65 1.382 . S
C67 C68 1.390 . S
C67 H72 0.949 . S
C68 C67 1.390 . S
C68 C73 1.399 . S
C69 C65 1.404 . S
C69 H70 0.950 . S
C69 C71 1.375 . S
H70 C69 0.950 . S
C71 C69 1.375 . S
C71 C73 1.382 . S
C71 H75 0.950 . S
H72 C67 0.949 . S
C73 C68 1.399 . S
C73 C71 1.382 . S
C73 H74 0.952 . S
H74 C73 0.952 . S
H75 C71 0.950 . S
H76 C77 0.949 . S
C77 H76 0.949 . S
C77 C78 1.395 . S
C77 C79 1.391 . S
C78 C77 1.395 . S
C78 C81 1.390 . S
C79 C77 1.391 . S
C79 C83 1.387 . S
C79 C84 1.491 . S
H80 C81 0.950 . S
C81 C78 1.390 . S
C81 H80 0.950 . S
C81 C82 1.378 . S
C82 C81 1.378 . S
C82 C83 1.409 . S
C83 C79 1.387 . S
C83 C82 1.409 . S
C83 H85 0.951 . S
C84 C79 1.491 . S
C84 C86 1.382 . S
C84 C88 1.404 . S
H85 C83 0.951 . S
C86 C84 1.382 . S
C86 C87 1.390 . S
C86 H91 0.949 . S
C87 C86 1.390 . S
C87 C92 1.399 . S
C88 C84 1.404 . S
C88 H89 0.950 . S
C88 C90 1.375 . S
H89 C88 0.950 . S
C90 C88 1.375 . S
C90 C92 1.382 . S
C90 H94 0.950 . S
H91 C86 0.949 . S
C92 C87 1.399 . S
C92 C90 1.382 . S
C92 H93 0.952 . S
H93 C92 0.952 . S
H94 C90 0.950 . S
H95 C96 0.949 . S
C96 H95 0.949 . S
C96 C97 1.395 . S
C96 C98 1.391 . S
C97 C96 1.395 . S
C97 C100 1.390 . S
C98 C96 1.391 . S
C98 C102 1.387 . S
C98 C103 1.491 . S
H99 C100 0.950 . S
C100 C97 1.390 . S
C100 H99 0.950 . S
C100 C101 1.378 . S
C101 C100 1.378 . S
C101 C102 1.409 . S
C102 C98 1.387 . S
C102 C101 1.409 . S
C102 H104 0.951 . S
C103 C98 1.491 . S
C103 C105 1.382 . S
C103 C107 1.404 . S
H104 C102 0.951 . S
C105 C103 1.382 . S
C105 C106 1.390 . S
C105 H110 0.949 . S
C106 C105 1.390 . S
C106 C111 1.399 . S
C107 C103 1.404 . S
C107 H108 0.950 . S
C107 C109 1.375 . S
H108 C107 0.950 . S
C109 C107 1.375 . S
C109 C111 1.382 . S
C109 H113 0.950 . S
H110 C105 0.949 . S
C111 C106 1.399 . S
C111 C109 1.382 . S
C111 H112 0.952 . S
H112 C111 0.952 . S
H113 C109 0.950 . S
H114 C115 0.949 . S
C115 H114 0.949 . S
C115 C116 1.395 . S
C115 C117 1.391 . S
C116 C115 1.395 . S
C116 C119 1.390 . S
C117 C115 1.391 . S
C117 C121 1.387 . S
C117 C122 1.491 . S
H118 C119 0.950 . S
C119 C116 1.390 . S
C119 H118 0.950 . S
C119 C120 1.378 . S
C120 C119 1.378 . S
C120 C121 1.409 . S
C121 C117 1.387 . S
C121 C120 1.409 . S
C121 H123 0.951 . S
C122 C117 1.491 . S
C122 C124 1.382 . S
C122 C126 1.404 . S
H123 C121 0.951 . S
C124 C122 1.382 . S
C124 C125 1.390 . S
C124 H129 0.949 . S
C125 C124 1.390 . S
C125 C130 1.399 . S
C126 C122 1.404 . S
C126 H127 0.950 . S
C126 C128 1.375 . S
H127 C126 0.950 . S
C128 C126 1.375 . S
C128 C130 1.382 . S
C128 H132 0.950 . S
H129 C124 0.949 . S
C130 C125 1.399 . S
C130 C128 1.382 . S
C130 H131 0.952 . S
H131 C130 0.952 . S
H132 C128 0.950 . S
H133 C134 0.949 . S
C134 H133 0.949 . S
C134 C135 1.395 . S
C134 C136 1.391 . S
C135 C134 1.395 . S
C135 C138 1.390 . S
C136 C134 1.391 . S
C136 C140 1.387 . S
C136 C141 1.491 . S
H137 C138 0.950 . S
C138 C135 1.390 . S
C138 H137 0.950 . S
C138 C139 1.378 . S
C139 C138 1.378 . S
C139 C140 1.409 . S
C140 C136 1.387 . S
C140 C139 1.409 . S
C140 H142 0.951 . S
C141 C136 1.491 . S
C141 C143 1.382 . S
C141 C145 1.404 . S
H142 C140 0.951 . S
C143 C141 1.382 . S
C143 C144 1.390 . S
C143 H148 0.949 . S
C144 C143 1.390 . S
C144 C149 1.399 . S
C145 C141 1.404 . S
C145 H146 0.950 . S
C145 C147 1.375 . S
H146 C145 0.950 . S
C147 C145 1.375 . S
C147 C149 1.382 . S
C147 H151 0.950 . S
H148 C143 0.949 . S
C149 C144 1.399 . S
C149 C147 1.382 . S
C149 H150 0.952 . S
H150 C149 0.952 . S
H151 C147 0.950 . S
Tb152 C161 2.764 . S
Tb152 O162 2.325 . S
Tb152 O165 2.303 . S
Tb152 O169 2.322 . S
Tb152 O170 2.349 1_545 S
Tb152 O173 2.415 . S
Tb152 O174 2.399 . S
Tb153 O163 2.322 . S
Tb153 O164 2.349 1_655 S
Tb153 O166 2.415 1_545 S
Tb153 O167 2.399 . S
Tb153 O168 2.325 1_655 S
Tb153 O171 2.303 1_545 S
Tb153 C182 2.764 1_545 S
C154 O170 1.261 1_655 S
C154 O171 1.257 . S
C155 C158 1.358 . S
C155 C159 1.332 . S
C155 C161 1.504 . S
C156 C157 1.373 . S
C156 C160 1.308 . S
C157 C156 1.373 . S
C157 C158 1.429 . S
C157 H184 0.932 . S
C158 C155 1.358 . S
C158 C157 1.429 . S
C158 H185 0.930 . S
C159 C155 1.332 . S
C159 C160 1.394 . S
C159 H186 0.932 . S
C160 C156 1.308 . S
C160 C159 1.394 . S
C160 H187 0.929 . S
C161 Tb152 2.764 . S
C161 C155 1.504 . S
C161 O173 1.239 . S
C161 O174 1.263 . S
O162 Tb152 2.325 . S
O162 C172 1.236 1_455 S
O163 Tb153 2.322 . S
O163 C172 1.257 . S
O164 Tb153 2.349 1_455 S
O164 C175 1.261 . S
O165 Tb152 2.303 . S
O165 C175 1.257 . S
O166 Tb153 2.415 1_565 S
O166 C182 1.239 . S
O167 Tb153 2.399 . S
O167 C182 1.263 1_545 S
O168 Tb153 2.325 1_455 S
O168 C183 1.236 1_545 S
O169 Tb152 2.322 . S
O169 C183 1.257 1_545 S
O170 Tb152 2.349 1_565 S
O170 C154 1.261 1_455 S
O171 Tb153 2.303 1_565 S
O171 C154 1.257 . S
C172 O162 1.236 1_655 S
C172 O163 1.257 . S
O173 Tb152 2.415 . S
O173 C161 1.239 . S
O174 Tb152 2.399 . S
O174 C161 1.263 . S
C175 O164 1.261 . S
C175 O165 1.257 . S
C176 C179 1.358 . S
C176 C180 1.332 . S
C176 C182 1.504 . S
C177 C178 1.373 . S
C177 C181 1.308 . S
C178 C177 1.373 . S
C178 C179 1.429 . S
C178 H188 0.932 . S
C179 C176 1.358 . S
C179 C178 1.429 . S
C179 H189 0.930 . S
C180 C176 1.332 . S
C180 C181 1.394 . S
C180 H190 0.932 . S
C181 C177 1.308 . S
C181 C180 1.394 . S
C181 H191 0.929 . S
C182 Tb153 2.764 1_565 S
C182 O166 1.239 . S
C182 O167 1.263 1_565 S
C182 C176 1.504 . S
C183 O168 1.236 1_565 S
C183 O169 1.257 1_565 S
H184 C157 0.932 . S
H185 C158 0.930 . S
H186 C159 0.932 . S
H187 C160 0.929 . S
H188 C178 0.932 . S
H189 C179 0.930 . S
H190 C180 0.932 . S
H191 C181 0.929 . S
Tb192 C201 2.764 . S
Tb192 O202 2.325 . S
Tb192 O205 2.303 . S
Tb192 O209 2.322 1_545 S
Tb192 O210 2.349 . S
Tb192 O213 2.415 . S
Tb192 O214 2.399 . S
Tb193 O203 2.322 . S
Tb193 O204 2.349 . S
Tb193 O206 2.411 1_544 S
Tb193 O207 2.399 1_545 S
Tb193 O208 2.325 1_545 S
Tb193 O211 2.303 . S
Tb193 C222 2.773 1_545 S
C194 O210 1.261 1_565 S
C194 O211 1.257 1_565 S
C195 C198 1.358 . S
C195 C199 1.332 . S
C195 C201 1.504 . S
C196 C197 1.373 . S
C196 C200 1.308 . S
C197 C196 1.373 . S
C197 C198 1.429 . S
C197 H224 0.932 . S
C198 C195 1.358 . S
C198 C197 1.429 . S
C198 H225 0.930 . S
C199 C195 1.332 . S
C199 C200 1.394 . S
C199 H226 0.932 . S
C200 C196 1.308 . S
C200 C199 1.394 . S
C200 H227 0.929 . S
C201 Tb192 2.764 . S
C201 C195 1.504 . S
C201 O213 1.239 . S
C201 O214 1.263 . S
O202 Tb192 2.325 . S
O202 C212 1.236 . S
O203 Tb193 2.322 . S
O203 C212 1.257 . S
O204 Tb193 2.349 . S
O204 C215 1.261 . S
O205 Tb192 2.303 . S
O205 C215 1.257 . S
O206 Tb193 2.411 1_566 S
O206 C222 1.239 1_556 S
O207 Tb193 2.399 1_565 S
O207 C222 1.272 . S
O208 Tb193 2.325 1_565 S
O208 C223 1.236 . S
O209 Tb192 2.322 1_565 S
O209 C223 1.257 . S
O210 Tb192 2.349 . S
O210 C194 1.261 1_545 S
O211 Tb193 2.303 . S
O211 C194 1.257 1_545 S
C212 O202 1.236 . S
C212 O203 1.257 . S
O213 Tb192 2.415 . S
O213 C201 1.239 . S
O214 Tb192 2.399 . S
O214 C201 1.263 . S
C215 O204 1.261 . S
C215 O205 1.257 . S
C216 C219 1.358 . S
C216 C220 1.332 . S
C216 C222 1.495 1_556 S
C217 C218 1.373 . S
C217 C221 1.308 . S
C218 C217 1.373 . S
C218 C219 1.429 . S
C218 H228 0.932 . S
C219 C216 1.358 . S
C219 C218 1.429 . S
C219 H229 0.930 . S
C220 C216 1.332 . S
C220 C221 1.394 . S
C220 H230 0.932 . S
C221 C217 1.308 . S
C221 C220 1.394 . S
C221 H231 0.929 . S
C222 Tb193 2.773 1_565 S
C222 O206 1.239 1_554 S
C222 O207 1.272 . S
C222 C216 1.495 1_554 S
C223 O208 1.236 . S
C223 O209 1.257 . S
H224 C197 0.932 . S
H225 C198 0.930 . S
H226 C199 0.932 . S
H227 C200 0.929 . S
H228 C218 0.932 . S
H229 C219 0.930 . S
H230 C220 0.932 . S
H231 C221 0.929 . S
Tb232 C241 2.764 . S
Tb232 O242 2.325 . S
Tb232 O245 2.303 . S
Tb232 O249 2.322 . S
Tb232 O250 2.349 . S
Tb232 O253 2.415 . S
Tb232 O254 2.399 . S
Tb233 O243 2.322 . S
Tb233 O244 2.349 . S
Tb233 O246 2.415 . S
Tb233 O247 2.399 . S
Tb233 O248 2.325 . S
Tb233 O251 2.303 . S
Tb233 C262 2.764 . S
C234 O250 1.261 . S
C234 O251 1.257 . S
C235 C238 1.358 . S
C235 C239 1.332 . S
C235 C241 1.504 . S
C236 C237 1.373 . S
C236 C240 1.308 . S
C237 C236 1.373 . S
C237 C238 1.429 . S
C237 H264 0.932 . S
C238 C235 1.358 . S
C238 C237 1.429 . S
C238 H265 0.930 . S
C239 C235 1.332 . S
C239 C240 1.394 . S
C239 H266 0.932 . S
C240 C236 1.308 . S
C240 C239 1.394 . S
C240 H267 0.929 . S
C241 Tb232 2.764 . S
C241 C235 1.504 . S
C241 O253 1.239 . S
C241 O254 1.263 . S
O242 Tb232 2.325 . S
O242 C252 1.236 . S
O243 Tb233 2.322 . S
O243 C252 1.257 . S
O244 Tb233 2.349 . S
O244 C255 1.261 . S
O245 Tb232 2.303 . S
O245 C255 1.257 . S
O246 Tb233 2.415 . S
O246 C262 1.239 . S
O247 Tb233 2.399 . S
O247 C262 1.263 . S
O248 Tb233 2.325 . S
O248 C263 1.236 . S
O249 Tb232 2.322 . S
O249 C263 1.257 . S
O250 Tb232 2.349 . S
O250 C234 1.261 . S
O251 Tb233 2.303 . S
O251 C234 1.257 . S
C252 O242 1.236 . S
C252 O243 1.257 . S
O253 Tb232 2.415 . S
O253 C241 1.239 . S
O254 Tb232 2.399 . S
O254 C241 1.263 . S
C255 O244 1.261 . S
C255 O245 1.257 . S
C256 C259 1.358 . S
C256 C260 1.332 . S
C256 C262 1.504 . S
C257 C258 1.373 . S
C257 C261 1.308 . S
C258 C257 1.373 . S
C258 C259 1.429 . S
C258 H268 0.932 . S
C259 C256 1.358 . S
C259 C258 1.429 . S
C259 H269 0.930 . S
C260 C256 1.332 . S
C260 C261 1.394 . S
C260 H270 0.932 . S
C261 C257 1.308 . S
C261 C260 1.394 . S
C261 H271 0.929 . S
C262 Tb233 2.764 . S
C262 O246 1.239 . S
C262 O247 1.263 . S
C262 C256 1.504 . S
C263 O248 1.236 . S
C263 O249 1.257 . S
H264 C237 0.932 . S
H265 C238 0.930 . S
H266 C239 0.932 . S
H267 C240 0.929 . S
H268 C258 0.932 . S
H269 C259 0.930 . S
H270 C260 0.932 . S
H271 C261 0.929 . S
Tb272 C281 2.764 1_455 S
Tb272 O282 2.325 1_455 S
Tb272 O285 2.303 1_556 S
Tb272 O289 2.322 1_556 S
Tb272 O290 2.349 . S
Tb272 O293 2.415 1_455 S
Tb272 O294 2.399 . S
Tb273 O283 2.322 1_455 S
Tb273 O284 2.349 . S
Tb273 O286 2.415 . S
Tb273 O287 2.399 . S
Tb273 O288 2.325 . S
Tb273 O291 2.303 1_554 S
Tb273 C302 2.764 . S
C274 O290 1.261 . S
C274 O291 1.257 . S
C275 C278 1.358 . S
C275 C279 1.332 . S
C275 C281 1.504 . S
C276 C277 1.373 . S
C276 C280 1.308 . S
C277 C276 1.373 . S
C277 C278 1.429 . S
C277 H304 0.932 . S
C278 C275 1.358 . S
C278 C277 1.429 . S
C278 H305 0.930 . S
C279 C275 1.332 . S
C279 C280 1.394 . S
C279 H306 0.932 . S
C280 C276 1.308 . S
C280 C279 1.394 . S
C280 H307 0.929 . S
C281 Tb272 2.764 1_655 S
C281 C275 1.504 . S
C281 O293 1.239 . S
C281 O294 1.263 1_655 S
O282 Tb272 2.325 1_655 S
O282 C292 1.236 . S
O283 Tb273 2.322 1_655 S
O283 C292 1.257 1_554 S
O284 Tb273 2.349 . S
O284 C295 1.261 . S
O285 Tb272 2.303 1_554 S
O285 C295 1.257 . S
O286 Tb273 2.415 . S
O286 C302 1.239 . S
O287 Tb273 2.399 . S
O287 C302 1.263 . S
O288 Tb273 2.325 . S
O288 C303 1.236 . S
O289 Tb272 2.322 1_554 S
O289 C303 1.257 . S
O290 Tb272 2.349 . S
O290 C274 1.261 . S
O291 Tb273 2.303 1_556 S
O291 C274 1.257 . S
C292 O282 1.236 . S
C292 O283 1.257 1_556 S
O293 Tb272 2.415 1_655 S
O293 C281 1.239 . S
O294 Tb272 2.399 . S
O294 C281 1.263 1_455 S
C295 O284 1.261 . S
C295 O285 1.257 . S
C296 C299 1.358 . S
C296 C300 1.332 . S
C296 C302 1.504 . S
C297 C298 1.373 . S
C297 C301 1.308 . S
C298 C297 1.373 . S
C298 C299 1.429 . S
C298 H308 0.932 . S
C299 C296 1.358 . S
C299 C298 1.429 . S
C299 H309 0.930 . S
C300 C296 1.332 . S
C300 C301 1.394 . S
C300 H310 0.932 . S
C301 C297 1.308 . S
C301 C300 1.394 . S
C301 H311 0.929 . S
C302 Tb273 2.764 . S
C302 O286 1.239 . S
C302 O287 1.263 . S
C302 C296 1.504 . S
C303 O288 1.236 . S
C303 O289 1.257 . S
H304 C277 0.932 . S
H305 C278 0.930 . S
H306 C279 0.932 . S
H307 C280 0.929 . S
H308 C298 0.932 . S
H309 C299 0.930 . S
H310 C300 0.932 . S
H311 C301 0.929 . S
C312 C313 1.363 . S
C312 C318 1.379 . S
C312 N320 1.356 . S
C313 C312 1.363 . S
C313 C319 1.363 . S
C314 C315 1.363 . S
C314 C319 1.379 . S
C314 N321 1.356 . S
C315 C314 1.363 . S
C315 C318 1.363 . S
N316 C318 1.356 . S
N316 H328 0.984 . S
N316 H329 0.985 . S
N317 C319 1.356 . S
N317 H322 0.984 . S
N317 H323 0.985 . S
C318 C312 1.379 . S
C318 C315 1.363 . S
C318 N316 1.356 . S
C319 C313 1.363 . S
C319 C314 1.379 . S
C319 N317 1.356 . S
N320 C312 1.356 . S
N320 H326 0.984 . S
N320 H327 0.984 . S
N321 C314 1.356 . S
N321 H324 0.984 . S
N321 H325 0.985 . S
H322 N317 0.984 . S
H323 N317 0.985 . S
H324 N321 0.984 . S
H325 N321 0.985 . S
H326 N320 0.984 . S
H327 N320 0.984 . S
H328 N316 0.984 . S
H329 N316 0.985 . S
C330 C331 1.363 . S
C330 C336 1.379 . S
C330 N338 1.356 . S
C331 C330 1.363 . S
C331 C337 1.363 . S
C332 C333 1.363 . S
C332 C337 1.379 . S
C332 N339 1.356 . S
C333 C332 1.363 . S
C333 C336 1.363 . S
N334 C336 1.356 . S
N334 H346 0.984 . S
N334 H347 0.985 . S
N335 C337 1.356 . S
N335 H340 0.984 . S
N335 H341 0.985 . S
C336 C330 1.379 . S
C336 C333 1.363 . S
C336 N334 1.356 . S
C337 C331 1.363 . S
C337 C332 1.379 . S
C337 N335 1.356 . S
N338 C330 1.356 . S
N338 H344 0.984 . S
N338 H345 0.984 . S
N339 C332 1.356 . S
N339 H342 0.984 . S
N339 H343 0.985 . S
H340 N335 0.984 . S
H341 N335 0.985 . S
H342 N339 0.984 . S
H343 N339 0.985 . S
H344 N338 0.984 . S
H345 N338 0.984 . S
H346 N334 0.984 . S
H347 N334 0.985 . S
C348 C349 1.363 . S
C348 C354 1.379 . S
C348 N356 1.356 . S
C349 C348 1.363 . S
C349 C355 1.363 . S
C350 C351 1.363 . S
C350 C355 1.379 . S
C350 N357 1.356 . S
C351 C350 1.363 . S
C351 C354 1.363 . S
N352 C354 1.356 . S
N352 H364 0.984 . S
N352 H365 0.985 . S
N353 C355 1.356 . S
N353 H358 0.984 . S
N353 H359 0.985 . S
C354 C348 1.379 . S
C354 C351 1.363 . S
C354 N352 1.356 . S
C355 C349 1.363 . S
C355 C350 1.379 . S
C355 N353 1.356 . S
N356 C348 1.356 . S
N356 H362 0.984 . S
N356 H363 0.984 . S
N357 C350 1.356 . S
N357 H360 0.984 . S
N357 H361 0.985 . S
H358 N353 0.984 . S
H359 N353 0.985 . S
H360 N357 0.984 . S
H361 N357 0.985 . S
H362 N356 0.984 . S
H363 N356 0.984 . S
H364 N352 0.984 . S
H365 N352 0.985 . S
C366 C367 1.363 . S
C366 C372 1.379 . S
C366 N374 1.356 . S
C367 C366 1.363 . S
C367 C373 1.363 . S
C368 C369 1.363 . S
C368 C373 1.379 . S
C368 N375 1.356 1_655 S
C369 C368 1.363 . S
C369 C372 1.363 . S
N370 C372 1.356 . S
N370 H382 0.984 . S
N370 H383 0.985 . S
N371 C373 1.356 . S
N371 H376 0.984 . S
N371 H377 0.985 . S
C372 C366 1.379 . S
C372 C369 1.363 . S
C372 N370 1.356 . S
C373 C367 1.363 . S
C373 C368 1.379 . S
C373 N371 1.356 . S
N374 C366 1.356 . S
N374 H380 0.984 . S
N374 H381 0.984 . S
N375 C368 1.356 1_455 S
N375 H378 0.984 . S
N375 H379 0.985 . S
H376 N371 0.984 . S
H377 N371 0.985 . S
H378 N375 0.984 . S
H379 N375 0.985 . S
H380 N374 0.984 . S
H381 N374 0.984 . S
H382 N370 0.984 . S
H383 N370 0.985 . S
C384 C385 1.363 . S
C384 C390 1.379 . S
C384 N392 1.356 . S
C385 C384 1.363 . S
C385 C391 1.363 . S
C386 C387 1.363 . S
C386 C391 1.379 . S
C386 N393 1.356 . S
C387 C386 1.363 . S
C387 C390 1.363 . S
N388 C390 1.356 . S
N388 H400 0.984 . S
N388 H401 0.985 . S
N389 C391 1.356 . S
N389 H394 0.984 . S
N389 H395 0.985 . S
C390 C384 1.379 . S
C390 C387 1.363 . S
C390 N388 1.356 . S
C391 C385 1.363 . S
C391 C386 1.379 . S
C391 N389 1.356 . S
N392 C384 1.356 . S
N392 H398 0.984 . S
N392 H399 0.984 . S
N393 C386 1.356 . S
N393 H396 0.984 . S
N393 H397 0.985 . S
H394 N389 0.984 . S
H395 N389 0.985 . S
H396 N393 0.984 . S
H397 N393 0.985 . S
H398 N392 0.984 . S
H399 N392 0.984 . S
H400 N388 0.984 . S
H401 N388 0.985 . S
C402 C403 1.363 . S
C402 C408 1.379 . S
C402 N410 1.356 . S
C403 C402 1.363 . S
C403 C409 1.363 1_455 S
C404 C405 1.363 1_655 S
C404 C409 1.379 . S
C404 N411 1.356 . S
C405 C404 1.363 1_455 S
C405 C408 1.363 . S
N406 C408 1.356 . S
N406 H418 0.984 . S
N406 H419 0.985 . S
N407 C409 1.356 . S
N407 H412 0.984 . S
N407 H413 0.985 . S
C408 C402 1.379 . S
C408 C405 1.363 . S
C408 N406 1.356 . S
C409 C403 1.363 1_655 S
C409 C404 1.379 . S
C409 N407 1.356 . S
N410 C402 1.356 . S
N410 H416 0.984 . S
N410 H417 0.984 . S
N411 C404 1.356 . S
N411 H414 0.984 . S
N411 H415 0.985 . S
H412 N407 0.984 . S
H413 N407 0.985 . S
H414 N411 0.984 . S
H415 N411 0.985 . S
H416 N410 0.984 . S
H417 N410 0.984 . S
H418 N406 0.984 . S
H419 N406 0.985 . S
C420 C421 1.363 . S
C420 C426 1.379 . S
C420 N428 1.356 . S
C421 C420 1.363 . S
C421 C427 1.363 . S
C422 C423 1.363 . S
C422 C427 1.379 . S
C422 N429 1.356 . S
C423 C422 1.363 . S
C423 C426 1.363 . S
N424 C426 1.356 . S
N424 H436 0.984 . S
N424 H437 0.985 . S
N425 C427 1.356 . S
N425 H430 0.984 . S
N425 H431 0.985 . S
C426 C420 1.379 . S
C426 C423 1.363 . S
C426 N424 1.356 . S
C427 C421 1.363 . S
C427 C422 1.379 . S
C427 N425 1.356 . S
N428 C420 1.356 . S
N428 H434 0.984 . S
N428 H435 0.984 . S
N429 C422 1.356 . S
N429 H432 0.984 . S
N429 H433 0.985 . S
H430 N425 0.984 . S
H431 N425 0.985 . S
H432 N429 0.984 . S
H433 N429 0.985 . S
H434 N428 0.984 . S
H435 N428 0.984 . S
H436 N424 0.984 . S
H437 N424 0.985 . S
C438 C439 1.363 . S
C438 C444 1.379 . S
C438 N446 1.356 . S
C439 C438 1.363 . S
C439 C445 1.363 . S
C440 C441 1.363 . S
C440 C445 1.379 . S
C440 N447 1.356 . S
C441 C440 1.363 . S
C441 C444 1.363 . S
N442 C444 1.356 . S
N442 H454 0.984 . S
N442 H455 0.985 . S
N443 C445 1.356 . S
N443 H448 0.984 . S
N443 H449 0.985 . S
C444 C438 1.379 . S
C444 C441 1.363 . S
C444 N442 1.356 . S
C445 C439 1.363 . S
C445 C440 1.379 . S
C445 N443 1.356 . S
N446 C438 1.356 . S
N446 H452 0.984 . S
N446 H453 0.984 . S
N447 C440 1.356 . S
N447 H450 0.984 . S
N447 H451 0.985 . S
H448 N443 0.984 . S
H449 N443 0.985 . S
H450 N447 0.984 . S
H451 N447 0.985 . S
H452 N446 0.984 . S
H453 N446 0.984 . S
H454 N442 0.984 . S
H455 N442 0.985 . S
C456 C457 1.363 . S
C456 C462 1.379 . S
C456 N464 1.356 . S
C457 C456 1.363 . S
C457 C463 1.363 . S
C458 C459 1.363 . S
C458 C463 1.379 . S
C458 N465 1.356 . S
C459 C458 1.363 . S
C459 C462 1.363 . S
N460 C462 1.356 . S
N460 H472 0.984 . S
N460 H473 0.985 . S
N461 C463 1.356 . S
N461 H466 0.984 . S
N461 H467 0.985 . S
C462 C456 1.379 . S
C462 C459 1.363 . S
C462 N460 1.356 . S
C463 C457 1.363 . S
C463 C458 1.379 . S
C463 N461 1.356 . S
N464 C456 1.356 . S
N464 H470 0.984 . S
N464 H471 0.984 . S
N465 C458 1.356 . S
N465 H468 0.984 . S
N465 H469 0.985 . S
H466 N461 0.984 . S
H467 N461 0.985 . S
H468 N465 0.984 . S
H469 N465 0.985 . S
H470 N464 0.984 . S
H471 N464 0.984 . S
H472 N460 0.984 . S
H473 N460 0.985 . S
C474 C475 1.363 . S
C474 C480 1.379 . S
C474 N482 1.356 . S
C475 C474 1.363 . S
C475 C481 1.363 1_556 S
C476 C477 1.363 . S
C476 C481 1.379 . S
C476 N483 1.356 . S
C477 C476 1.363 . S
C477 C480 1.363 1_554 S
N478 C480 1.356 . S
N478 H490 0.984 . S
N478 H491 0.985 . S
N479 C481 1.356 . S
N479 H484 0.984 . S
N479 H485 0.985 . S
C480 C474 1.379 . S
C480 C477 1.363 1_556 S
C480 N478 1.356 . S
C481 C475 1.363 1_554 S
C481 C476 1.379 . S
C481 N479 1.356 . S
N482 C474 1.356 . S
N482 H488 0.984 . S
N482 H489 0.984 . S
N483 C476 1.356 . S
N483 H486 0.984 . S
N483 H487 0.985 . S
H484 N479 0.984 . S
H485 N479 0.985 . S
H486 N483 0.984 . S
H487 N483 0.985 . S
H488 N482 0.984 . S
H489 N482 0.984 . S
H490 N478 0.984 . S
H491 N478 0.985 . S
C492 C493 1.363 . S
C492 C498 1.379 . S
C492 N500 1.356 . S
C493 C492 1.363 . S
C493 C499 1.363 . S
C494 C495 1.363 . S
C494 C499 1.379 . S
C494 N501 1.356 . S
C495 C494 1.363 . S
C495 C498 1.363 . S
N496 C498 1.356 . S
N496 H508 0.984 . S
N496 H509 0.985 . S
N497 C499 1.356 . S
N497 H502 0.984 . S
N497 H503 0.985 . S
C498 C492 1.379 . S
C498 C495 1.363 . S
C498 N496 1.356 . S
C499 C493 1.363 . S
C499 C494 1.379 . S
C499 N497 1.356 . S
N500 C492 1.356 . S
N500 H506 0.984 . S
N500 H507 0.984 . S
N501 C494 1.356 . S
N501 H504 0.984 . S
N501 H505 0.985 . S
H502 N497 0.984 . S
H503 N497 0.985 . S
H504 N501 0.984 . S
H505 N501 0.985 . S
H506 N500 0.984 . S
H507 N500 0.984 . S
H508 N496 0.984 . S
H509 N496 0.985 . S
C510 C511 1.363 . S
C510 C516 1.379 . S
C510 N518 1.356 . S
C511 C510 1.363 . S
C511 C517 1.363 . S
C512 C513 1.363 . S
C512 C517 1.379 . S
C512 N519 1.356 . S
C513 C512 1.363 . S
C513 C516 1.363 . S
N514 C516 1.356 . S
N514 H526 0.984 . S
N514 H527 0.985 . S
N515 C517 1.356 . S
N515 H520 0.984 . S
N515 H521 0.985 . S
C516 C510 1.379 . S
C516 C513 1.363 . S
C516 N514 1.356 . S
C517 C511 1.363 . S
C517 C512 1.379 . S
C517 N515 1.356 . S
N518 C510 1.356 . S
N518 H524 0.984 . S
N518 H525 0.984 . S
N519 C512 1.356 . S
N519 H522 0.984 . S
N519 H523 0.985 . S
H520 N515 0.984 . S
H521 N515 0.985 . S
H522 N519 0.984 . S
H523 N519 0.985 . S
H524 N518 0.984 . S
H525 N518 0.984 . S
H526 N514 0.984 . S
H527 N514 0.985 . S
C528 C529 1.363 . S
C528 C534 1.379 . S
C528 N536 1.356 . S
C529 C528 1.363 . S
C529 C535 1.363 . S
C530 C531 1.363 . S
C530 C535 1.379 . S
C530 N537 1.356 . S
C531 C530 1.363 . S
C531 C534 1.363 . S
N532 C534 1.356 . S
N532 H544 0.984 . S
N532 H545 0.985 . S
N533 C535 1.356 . S
N533 H538 0.984 . S
N533 H539 0.985 . S
C534 C528 1.379 . S
C534 C531 1.363 . S
C534 N532 1.356 . S
C535 C529 1.363 . S
C535 C530 1.379 . S
C535 N533 1.356 . S
N536 C528 1.356 . S
N536 H542 0.984 . S
N536 H543 0.984 . S
N537 C530 1.356 . S
N537 H540 0.984 . S
N537 H541 0.985 . S
H538 N533 0.984 . S
H539 N533 0.985 . S
H540 N537 0.984 . S
H541 N537 0.985 . S
H542 N536 0.984 . S
H543 N536 0.984 . S
H544 N532 0.984 . S
H545 N532 0.985 . S
C546 C547 1.363 . S
C546 C552 1.379 . S
C546 N554 1.356 . S
C547 C546 1.363 . S
C547 C553 1.363 . S
C548 C549 1.363 . S
C548 C553 1.379 . S
C548 N555 1.356 . S
C549 C548 1.363 . S
C549 C552 1.363 . S
N550 C552 1.356 . S
N550 H562 0.984 . S
N550 H563 0.985 . S
N551 C553 1.356 . S
N551 H556 0.984 . S
N551 H557 0.985 . S
C552 C546 1.379 . S
C552 C549 1.363 . S
C552 N550 1.356 . S
C553 C547 1.363 . S
C553 C548 1.379 . S
C553 N551 1.356 . S
N554 C546 1.356 . S
N554 H560 0.984 . S
N554 H561 0.984 . S
N555 C548 1.356 . S
N555 H558 0.984 . S
N555 H559 0.985 . S
H556 N551 0.984 . S
H557 N551 0.985 . S
H558 N555 0.984 . S
H559 N555 0.985 . S
H560 N554 0.984 . S
H561 N554 0.984 . S
H562 N550 0.984 . S
H563 N550 0.985 . S
C564 C565 1.363 . S
C564 C570 1.379 . S
C564 N572 1.356 . S
C565 C564 1.363 . S
C565 C571 1.363 . S
C566 C567 1.363 . S
C566 C571 1.379 . S
C566 N573 1.356 . S
C567 C566 1.363 . S
C567 C570 1.363 . S
N568 C570 1.356 . S
N568 H580 0.984 . S
N568 H581 0.985 . S
N569 C571 1.356 . S
N569 H574 0.984 . S
N569 H575 0.985 . S
C570 C564 1.379 . S
C570 C567 1.363 . S
C570 N568 1.356 . S
C571 C565 1.363 . S
C571 C566 1.379 . S
C571 N569 1.356 . S
N572 C564 1.356 . S
N572 H578 0.984 . S
N572 H579 0.984 . S
N573 C566 1.356 . S
N573 H576 0.984 . S
N573 H577 0.985 . S
H574 N569 0.984 . S
H575 N569 0.985 . S
H576 N573 0.984 . S
H577 N573 0.985 . S
H578 N572 0.984 . S
H579 N572 0.984 . S
H580 N568 0.984 . S
H581 N568 0.985 . S
C582 C583 1.363 . S
C582 C588 1.379 . S
C582 N590 1.356 . S
C583 C582 1.363 . S
C583 C589 1.363 . S
C584 C585 1.363 . S
C584 C589 1.379 . S
C584 N591 1.356 . S
C585 C584 1.363 . S
C585 C588 1.363 . S
N586 C588 1.356 . S
N586 H598 0.984 . S
N586 H599 0.985 . S
N587 C589 1.356 . S
N587 H592 0.984 . S
N587 H593 0.985 . S
C588 C582 1.379 . S
C588 C585 1.363 . S
C588 N586 1.356 . S
C589 C583 1.363 . S
C589 C584 1.379 . S
C589 N587 1.356 . S
N590 C582 1.356 . S
N590 H596 0.984 . S
N590 H597 0.984 . S
N591 C584 1.356 . S
N591 H594 0.984 . S
N591 H595 0.985 . S
H592 N587 0.984 . S
H593 N587 0.985 . S
H594 N591 0.984 . S
H595 N591 0.985 . S
H596 N590 0.984 . S
H597 N590 0.984 . S
H598 N586 0.984 . S
H599 N586 0.985 . S
C600 C601 1.363 1_554 S
C600 C606 1.379 . S
C600 N608 1.356 . S
C601 C600 1.363 1_556 S
C601 C607 1.363 . S
C602 C603 1.363 1_556 S
C602 C607 1.379 . S
C602 N609 1.356 . S
C603 C602 1.363 1_554 S
C603 C606 1.363 . S
N604 C606 1.356 . S
N604 H616 0.984 . S
N604 H617 0.985 . S
N605 C607 1.356 . S
N605 H610 0.984 . S
N605 H611 0.985 . S
C606 C600 1.379 . S
C606 C603 1.363 . S
C606 N604 1.356 . S
C607 C601 1.363 . S
C607 C602 1.379 . S
C607 N605 1.356 . S
N608 C600 1.356 . S
N608 H614 0.984 . S
N608 H615 0.984 . S
N609 C602 1.356 . S
N609 H612 0.984 1_565 S
N609 H613 0.985 1_565 S
H610 N605 0.984 . S
H611 N605 0.985 . S
H612 N609 0.984 1_545 S
H613 N609 0.985 1_545 S
H614 N608 0.984 . S
H615 N608 0.984 . S
H616 N604 0.984 . S
H617 N604 0.985 . S
C618 C619 1.363 . S
C618 C624 1.379 . S
C618 N626 1.356 . S
C619 C618 1.363 . S
C619 C625 1.363 1_655 S
C620 C621 1.363 1_455 S
C620 C625 1.379 . S
C620 N627 1.356 . S
C621 C620 1.363 1_655 S
C621 C624 1.363 . S
N622 C624 1.356 . S
N622 H634 0.984 . S
N622 H635 0.985 . S
N623 C625 1.356 . S
N623 H628 0.984 . S
N623 H629 0.985 . S
C624 C618 1.379 . S
C624 C621 1.363 . S
C624 N622 1.356 . S
C625 C619 1.363 1_455 S
C625 C620 1.379 . S
C625 N623 1.356 . S
N626 C618 1.356 . S
N626 H632 0.984 . S
N626 H633 0.984 . S
N627 C620 1.356 . S
N627 H630 0.984 . S
N627 H631 0.985 . S
H628 N623 0.984 . S
H629 N623 0.985 . S
H630 N627 0.984 . S
H631 N627 0.985 . S
H632 N626 0.984 . S
H633 N626 0.984 . S
H634 N622 0.984 . S
H635 N622 0.985 . S
C636 C637 1.363 . S
C636 C642 1.379 . S
C636 N644 1.356 . S
C637 C636 1.363 . S
C637 C643 1.363 . S
C638 C639 1.363 . S
C638 C643 1.379 . S
C638 N645 1.356 . S
C639 C638 1.363 . S
C639 C642 1.363 . S
N640 C642 1.356 . S
N640 H652 0.984 . S
N640 H653 0.985 . S
N641 C643 1.356 . S
N641 H646 0.984 . S
N641 H647 0.985 . S
C642 C636 1.379 . S
C642 C639 1.363 . S
C642 N640 1.356 . S
C643 C637 1.363 . S
C643 C638 1.379 . S
C643 N641 1.356 . S
N644 C636 1.356 . S
N644 H650 0.984 . S
N644 H651 0.984 . S
N645 C638 1.356 . S
N645 H648 0.984 . S
N645 H649 0.985 . S
H646 N641 0.984 . S
H647 N641 0.985 . S
H648 N645 0.984 . S
H649 N645 0.985 . S
H650 N644 0.984 . S
H651 N644 0.984 . S
H652 N640 0.984 . S
H653 N640 0.985 . S
C654 C655 1.363 . S
C654 C660 1.379 . S
C654 N662 1.356 . S
C655 C654 1.363 . S
C655 C661 1.363 . S
C656 C657 1.363 . S
C656 C661 1.379 . S
C656 N663 1.356 . S
C657 C656 1.363 . S
C657 C660 1.363 . S
N658 C660 1.356 . S
N658 H670 0.984 . S
N658 H671 0.985 . S
N659 C661 1.356 . S
N659 H664 0.984 . S
N659 H665 0.985 . S
C660 C654 1.379 . S
C660 C657 1.363 . S
C660 N658 1.356 . S
C661 C655 1.363 . S
C661 C656 1.379 . S
C661 N659 1.356 . S
N662 C654 1.356 . S
N662 H668 0.984 . S
N662 H669 0.984 . S
N663 C656 1.356 . S
N663 H666 0.984 . S
N663 H667 0.985 . S
H664 N659 0.984 . S
H665 N659 0.985 . S
H666 N663 0.984 . S
H667 N663 0.985 . S
H668 N662 0.984 . S
H669 N662 0.984 . S
H670 N658 0.984 . S
H671 N658 0.985 . S
C672 C673 1.363 . S
C672 C678 1.379 . S
C672 N680 1.356 . S
C673 C672 1.363 . S
C673 C679 1.363 . S
C674 C675 1.363 . S
C674 C679 1.379 . S
C674 N681 1.356 . S
C675 C674 1.363 . S
C675 C678 1.363 . S
N676 C678 1.356 . S
N676 H688 0.984 . S
N676 H689 0.985 . S
N677 C679 1.356 . S
N677 H682 0.984 . S
N677 H683 0.985 . S
C678 C672 1.379 . S
C678 C675 1.363 . S
C678 N676 1.356 . S
C679 C673 1.363 . S
C679 C674 1.379 . S
C679 N677 1.356 . S
N680 C672 1.356 . S
N680 H686 0.984 . S
N680 H687 0.984 . S
N681 C674 1.356 . S
N681 H684 0.984 . S
N681 H685 0.985 . S
H682 N677 0.984 . S
H683 N677 0.985 . S
H684 N681 0.984 . S
H685 N681 0.985 . S
H686 N680 0.984 . S
H687 N680 0.984 . S
H688 N676 0.984 . S
H689 N676 0.985 . S
C690 C691 1.363 . S
C690 C696 1.379 . S
C690 N698 1.356 . S
C691 C690 1.363 . S
C691 C697 1.363 . S
C692 C693 1.363 . S
C692 C697 1.379 . S
C692 N699 1.356 . S
C693 C692 1.363 . S
C693 C696 1.363 . S
N694 C696 1.356 . S
N694 H706 0.984 . S
N694 H707 0.985 . S
N695 C697 1.356 . S
N695 H700 0.984 . S
N695 H701 0.985 . S
C696 C690 1.379 . S
C696 C693 1.363 . S
C696 N694 1.356 . S
C697 C691 1.363 . S
C697 C692 1.379 . S
C697 N695 1.356 . S
N698 C690 1.356 . S
N698 H704 0.984 . S
N698 H705 0.984 . S
N699 C692 1.356 . S
N699 H702 0.984 . S
N699 H703 0.985 . S
H700 N695 0.984 . S
H701 N695 0.985 . S
H702 N699 0.984 . S
H703 N699 0.985 . S
H704 N698 0.984 . S
H705 N698 0.984 . S
H706 N694 0.984 . S
H707 N694 0.985 . S
C708 C709 1.363 . S
C708 C714 1.379 . S
C708 N716 1.356 . S
C709 C708 1.363 . S
C709 C715 1.363 . S
C710 C711 1.363 . S
C710 C715 1.379 . S
C710 N717 1.356 . S
C711 C710 1.363 . S
C711 C714 1.363 . S
N712 C714 1.356 . S
N712 H724 0.984 . S
N712 H725 0.985 . S
N713 C715 1.356 . S
N713 H718 0.984 . S
N713 H719 0.985 . S
C714 C708 1.379 . S
C714 C711 1.363 . S
C714 N712 1.356 . S
C715 C709 1.363 . S
C715 C710 1.379 . S
C715 N713 1.356 . S
N716 C708 1.356 . S
N716 H722 0.984 . S
N716 H723 0.984 . S
N717 C710 1.356 . S
N717 H720 0.984 . S
N717 H721 0.985 . S
H718 N713 0.984 . S
H719 N713 0.985 . S
H720 N717 0.984 . S
H721 N717 0.985 . S
H722 N716 0.984 . S
H723 N716 0.984 . S
H724 N712 0.984 . S
H725 N712 0.985 . S
C726 C727 1.363 . S
C726 C732 1.379 . S
C726 N734 1.356 . S
C727 C726 1.363 . S
C727 C733 1.363 . S
C728 C729 1.363 . S
C728 C733 1.379 . S
C728 N735 1.356 . S
C729 C728 1.363 . S
C729 C732 1.363 . S
N730 C732 1.356 . S
N730 H742 0.984 . S
N730 H743 0.985 . S
N731 C733 1.356 . S
N731 H736 0.984 . S
N731 H737 0.985 . S
C732 C726 1.379 . S
C732 C729 1.363 . S
C732 N730 1.356 . S
C733 C727 1.363 . S
C733 C728 1.379 . S
C733 N731 1.356 . S
N734 C726 1.356 . S
N734 H740 0.984 . S
N734 H741 0.984 . S
N735 C728 1.356 . S
N735 H738 0.984 . S
N735 H739 0.985 . S
H736 N731 0.984 . S
H737 N731 0.985 . S
H738 N735 0.984 . S
H739 N735 0.985 . S
H740 N734 0.984 . S
H741 N734 0.984 . S
H742 N730 0.984 . S
H743 N730 0.985 . S
C313 C6 1.125 . S
C315 C156 1.166 . S
C331 C21 1.440 . S
C333 C217 1.468 . S
C351 C255 2.099 . S
C349 C49 2.085 . S
C367 C68 2.169 . S
C369 C295 2.259 1_655 S
C387 C215 2.060 . S
C385 C2 1.985 . S
C405 C183 1.800 . S
C403 C30 1.738 1_455 S
C423 C292 1.864 . S
C421 C40 1.885 . S
C441 C252 1.772 . S
C439 C63 1.846 . S
C457 C11 1.065 . S
C459 C297 1.286 . S
C477 C212 2.683 . S
C475 C44 2.683 . S
C493 C59 1.881 . S
C495 C154 1.861 . S
C511 C25 1.946 . S
C513 C257 1.960 . S
C531 C177 1.211 . S
C529 C82 1.198 . S
C547 C101 1.254 . S
C549 C196 1.294 . S
C565 C125 2.383 . S
C567 C234 2.383 . S
C583 C144 2.006 . S
C585 C274 2.036 . S
C601 C87 1.212 . S
C603 C194 1.312 . S
C621 C172 2.514 . S
C619 C97 2.380 . S
C639 C303 1.682 . S
C637 C120 1.760 . S
C657 C263 1.988 . S
C655 C135 1.998 . S
C673 C78 1.773 . S
C675 C276 1.863 . S
C693 C223 2.043 . S
C691 C116 2.018 . S
C711 C175 2.496 . S
C709 C139 2.533 . S
C727 C106 1.022 . S
C729 C236 1.465 . S
