# Generated by pormake.
# Topology apo, (3,6)-cn, num edge types: 1
# Building blocks:
#     Node 0, Type 0, BuildingBlock: QEWDON_clean_linker_0, # of connection points: 3
#     Node 1, Type 0, BuildingBlock: QEWDON_clean_linker_0, # of connection points: 3
#     Node 2, Type 0, BuildingBlock: QEWDON_clean_linker_0, # of connection points: 3
#     Node 3, Type 0, BuildingBlock: QEWDON_clean_linker_0, # of connection points: 3
#     Node 4, Type 0, BuildingBlock: QEWDON_clean_linker_0, # of connection points: 3
#     Node 5, Type 0, BuildingBlock: QEWDON_clean_linker_0, # of connection points: 3
#     Node 6, Type 0, BuildingBlock: QEWDON_clean_linker_0, # of connection points: 3
#     Node 7, Type 0, BuildingBlock: QEWDON_clean_linker_0, # of connection points: 3
#     Node 8, Type 1, BuildingBlock: MIDCAF_clean_sbu_0, # of connection points: 6
#     Node 9, Type 1, BuildingBlock: MIDCAF_clean_sbu_0, # of connection points: 6
#     Node 10, Type 1, BuildingBlock: MIDCAF_clean_sbu_0, # of connection points: 6
#     Node 11, Type 1, BuildingBlock: MIDCAF_clean_sbu_0, # of connection points: 6
#     Edge 12, Type (0, 1), BuildingBlock: XIVTED_clean_linker_0, # of connection points: 2
#     Edge 13, Type (0, 1), BuildingBlock: XIVTED_clean_linker_0, # of connection points: 2
#     Edge 14, Type (0, 1), BuildingBlock: XIVTED_clean_linker_0, # of connection points: 2
#     Edge 15, Type (0, 1), BuildingBlock: XIVTED_clean_linker_0, # of connection points: 2
#     Edge 16, Type (0, 1), BuildingBlock: XIVTED_clean_linker_0, # of connection points: 2
#     Edge 17, Type (0, 1), BuildingBlock: XIVTED_clean_linker_0, # of connection points: 2
#     Edge 18, Type (0, 1), BuildingBlock: XIVTED_clean_linker_0, # of connection points: 2
#     Edge 19, Type (0, 1), BuildingBlock: XIVTED_clean_linker_0, # of connection points: 2
#     Edge 20, Type (0, 1), BuildingBlock: XIVTED_clean_linker_0, # of connection points: 2
#     Edge 21, Type (0, 1), BuildingBlock: XIVTED_clean_linker_0, # of connection points: 2
#     Edge 22, Type (0, 1), BuildingBlock: XIVTED_clean_linker_0, # of connection points: 2
#     Edge 23, Type (0, 1), BuildingBlock: XIVTED_clean_linker_0, # of connection points: 2
#     Edge 24, Type (0, 1), BuildingBlock: XIVTED_clean_linker_0, # of connection points: 2
#     Edge 25, Type (0, 1), BuildingBlock: XIVTED_clean_linker_0, # of connection points: 2
#     Edge 26, Type (0, 1), BuildingBlock: XIVTED_clean_linker_0, # of connection points: 2
#     Edge 27, Type (0, 1), BuildingBlock: XIVTED_clean_linker_0, # of connection points: 2
#     Edge 28, Type (0, 1), BuildingBlock: XIVTED_clean_linker_0, # of connection points: 2
#     Edge 29, Type (0, 1), BuildingBlock: XIVTED_clean_linker_0, # of connection points: 2
#     Edge 30, Type (0, 1), BuildingBlock: XIVTED_clean_linker_0, # of connection points: 2
#     Edge 31, Type (0, 1), BuildingBlock: XIVTED_clean_linker_0, # of connection points: 2
#     Edge 32, Type (0, 1), BuildingBlock: XIVTED_clean_linker_0, # of connection points: 2
#     Edge 33, Type (0, 1), BuildingBlock: XIVTED_clean_linker_0, # of connection points: 2
#     Edge 34, Type (0, 1), BuildingBlock: XIVTED_clean_linker_0, # of connection points: 2
#     Edge 35, Type (0, 1), BuildingBlock: XIVTED_clean_linker_0, # of connection points: 2
# Relax obj value: 0.009
# Max RMSD: 0.110
# Mean RMSD: 0.093
data_MOF--net-apo--node1-MIDCAF_clean_sbu_0--node2-QEWDON_clean_linker_0--edge1-XIVTED_clean_linker_0
_symmetry_space_group_name_H-M    P1
_symmetry_Int_Tables_number       1
_symmetry_cell_setting            triclinic
loop_
_symmetry_equiv_pos_as_xyz
'x, y, z'
_cell_length_a     39.018136
_cell_length_b     42.769561
_cell_length_c     34.602623
_cell_angle_alpha  90.116407
_cell_angle_beta   89.7627
_cell_angle_gamma 90.201501
loop_
_atom_site_label
_atom_site_type_symbol
_atom_site_fract_x
_atom_site_fract_y
_atom_site_fract_z
_atom_type_partial_charge
H0 H 0.30736 0.36656 0.35942 0.0
C1 C 0.31951 0.35934 0.38605 0.0
C2 C 0.35254 0.37036 0.39522 0.0
C3 C 0.30098 0.34078 0.41223 0.0
H4 H 0.39281 0.36927 0.43793 0.0
C5 C 0.36772 0.36049 0.42993 0.0
C6 C 0.34966 0.34141 0.45613 0.0
C7 C 0.31606 0.33209 0.44738 0.0
C8 C 0.26452 0.33363 0.40475 0.0
H9 H 0.30159 0.31813 0.46792 0.0
C10 C 0.25443 0.31683 0.37162 0.0
C11 C 0.21944 0.31113 0.36435 0.0
C12 C 0.23946 0.34479 0.43045 0.0
H13 H 0.24672 0.35796 0.45594 0.0
C14 C 0.20481 0.33964 0.42308 0.0
H15 H 0.27375 0.30805 0.35183 0.0
C16 C 0.1948 0.32296 0.39031 0.0
H17 H 0.16774 0.31855 0.3859 0.0
H18 H 0.18563 0.3484 0.44298 0.0
H19 H 0.18792 0.12592 0.83524 0.0
C20 C 0.17932 0.13422 0.86322 0.0
C21 C 0.14575 0.12772 0.87616 0.0
C22 C 0.20268 0.15024 0.88693 0.0
H23 H 0.11047 0.1335 0.92408 0.0
C24 C 0.13568 0.13903 0.91274 0.0
C25 C 0.15862 0.1555 0.93654 0.0
C26 C 0.19234 0.16065 0.9237 0.0
C27 C 0.23912 0.15178 0.87543 0.0
H28 H 0.21062 0.17225 0.94245 0.0
C29 C 0.25236 0.17705 0.85395 0.0
C30 C 0.28714 0.17737 0.84231 0.0
C31 C 0.26061 0.12686 0.88525 0.0
H32 H 0.25073 0.1072 0.90163 0.0
C33 C 0.29491 0.12704 0.87393 0.0
H34 H 0.23557 0.19611 0.8461 0.0
C35 C 0.30814 0.15203 0.8527 0.0
H36 H 0.33509 0.15177 0.84513 0.0
H37 H 0.31138 0.10778 0.8818 0.0
H38 H 0.8336 0.11935 0.67291 0.0
C39 C 0.84168 0.13258 0.64777 0.0
C40 C 0.87473 0.12838 0.63233 0.0
C41 C 0.81793 0.15214 0.62942 0.0
H42 H 0.90936 0.14211 0.58654 0.0
C43 C 0.88399 0.14504 0.59887 0.0
C44 C 0.86014 0.16368 0.57932 0.0
C45 C 0.82702 0.16726 0.59478 0.0
C46 C 0.78228 0.15301 0.64388 0.0
H47 H 0.80814 0.18091 0.57936 0.0
C48 C 0.76981 0.17878 0.665 0.0
C49 C 0.73617 0.17841 0.68032 0.0
C50 C 0.76107 0.12695 0.6379 0.0
H51 H 0.77038 0.10686 0.62192 0.0
C52 C 0.72773 0.12657 0.65248 0.0
H53 H 0.78655 0.19861 0.67015 0.0
C54 C 0.71531 0.15203 0.67347 0.0
H55 H 0.68909 0.15119 0.6838 0.0
H56 H 0.71142 0.10646 0.64747 0.0
H57 H 0.69236 0.37324 0.18987 0.0
C58 C 0.68462 0.36612 0.16114 0.0
C59 C 0.65156 0.37314 0.14753 0.0
C60 C 0.70859 0.3511 0.13725 0.0
H61 H 0.61758 0.36885 0.09845 0.0
C62 C 0.64246 0.36304 0.11014 0.0
C63 C 0.66603 0.3473 0.08624 0.0
C64 C 0.69934 0.34191 0.09974 0.0
C65 C 0.7444 0.3483 0.15013 0.0
H66 H 0.71807 0.33072 0.08112 0.0
C67 C 0.75471 0.32365 0.17419 0.0
C68 C 0.78901 0.32159 0.18673 0.0
C69 C 0.76826 0.37113 0.13888 0.0
H70 H 0.7606 0.39033 0.12049 0.0
C71 C 0.80208 0.36946 0.15149 0.0
H72 H 0.73606 0.3062 0.183 0.0
C73 C 0.81247 0.34489 0.17515 0.0
H74 H 0.83915 0.34375 0.18348 0.0
H75 H 0.82041 0.38712 0.14261 0.0
H76 H 0.63068 0.67577 0.69264 0.0
C77 C 0.63412 0.67488 0.66156 0.0
C78 C 0.62152 0.64924 0.64046 0.0
C79 C 0.64949 0.70026 0.64239 0.0
H80 H 0.61598 0.62914 0.58364 0.0
C81 C 0.62565 0.64887 0.60007 0.0
C82 C 0.64082 0.67412 0.58042 0.0
C83 C 0.6525 0.69996 0.60187 0.0
C84 C 0.65922 0.72848 0.66439 0.0
H85 H 0.66357 0.71995 0.58712 0.0
C86 C 0.69174 0.7312 0.68146 0.0
C87 C 0.70107 0.75866 0.7017 0.0
C88 C 0.63568 0.75295 0.66806 0.0
H89 H 0.61051 0.75114 0.6551 0.0
C90 C 0.64447 0.77998 0.68836 0.0
H91 H 0.7096 0.71197 0.67879 0.0
C92 C 0.6769 0.78295 0.70489 0.0
H93 H 0.68324 0.80469 0.7193 0.0
H94 H 0.62624 0.7989 0.69088 0.0
H95 H 0.87765 0.83134 0.20066 0.0
C96 C 0.87576 0.82738 0.1698 0.0
C97 C 0.88762 0.85023 0.14385 0.0
C98 C 0.86078 0.79949 0.15629 0.0
H99 H 0.89479 0.86122 0.08346 0.0
C100 C 0.88437 0.84456 0.10397 0.0
C101 C 0.86921 0.81701 0.0899 0.0
C102 C 0.85745 0.7944 0.11626 0.0
C103 C 0.84974 0.77542 0.18444 0.0
H104 H 0.84625 0.77279 0.10572 0.0
C105 C 0.8155 0.76508 0.18594 0.0
C106 C 0.80481 0.74327 0.21416 0.0
C107 C 0.87343 0.76363 0.21104 0.0
H108 H 0.89992 0.77134 0.2104 0.0
C109 C 0.86324 0.74166 0.23853 0.0
H110 H 0.79709 0.77486 0.166 0.0
C111 C 0.82923 0.73152 0.24015 0.0
H112 H 0.8222 0.7142 0.26157 0.0
H113 H 0.88176 0.73247 0.25871 0.0
H114 H 0.13591 0.83068 0.33359 0.0
C115 C 0.13721 0.8288 0.36477 0.0
C116 C 0.12581 0.85353 0.38833 0.0
C117 C 0.15024 0.80136 0.38128 0.0
H118 H 0.11784 0.86837 0.44741 0.0
C119 C 0.12797 0.85023 0.42875 0.0
C120 C 0.14143 0.82311 0.4457 0.0
C121 C 0.1523 0.79854 0.42166 0.0
C122 C 0.15968 0.77479 0.35624 0.0
H123 H 0.16212 0.7772 0.43426 0.0
C124 C 0.19346 0.77122 0.34274 0.0
C125 C 0.20248 0.74541 0.31931 0.0
C126 C 0.13461 0.75287 0.34587 0.0
H127 H 0.10845 0.7554 0.356 0.0
C128 C 0.14317 0.72743 0.32253 0.0
H129 H 0.21248 0.78863 0.35046 0.0
C130 C 0.1768 0.72358 0.30948 0.0
H131 H 0.18274 0.70305 0.29241 0.0
H132 H 0.12373 0.71042 0.31486 0.0
H133 H 0.39105 0.67034 0.82567 0.0
C134 C 0.3854 0.67211 0.85629 0.0
C135 C 0.39746 0.64908 0.88164 0.0
C136 C 0.36664 0.69782 0.87023 0.0
H137 H 0.39929 0.6343 0.94113 0.0
C138 C 0.3901 0.65191 0.92127 0.0
C139 C 0.37188 0.67766 0.93586 0.0
C140 C 0.36007 0.70058 0.91014 0.0
C141 C 0.35534 0.72235 0.84295 0.0
H142 H 0.34641 0.72076 0.92118 0.0
C143 C 0.32079 0.73162 0.84139 0.0
C144 C 0.30996 0.75402 0.81418 0.0
C145 C 0.37914 0.73592 0.81742 0.0
H146 H 0.40589 0.72924 0.81819 0.0
C147 C 0.36873 0.75842 0.79088 0.0
H148 H 0.3023 0.72062 0.86051 0.0
C149 C 0.33445 0.76743 0.78919 0.0
H150 H 0.32723 0.78521 0.76856 0.0
H151 H 0.38732 0.76893 0.77153 0.0
Zn152 Zn 0.04304 0.12196 0.32176 0.0
Zn153 Zn 0.97358 0.11999 0.19891 0.0
Zn154 Zn 0.00842 0.11932 0.26034 0.0
C155 C 0.03221 0.1515 0.17904 0.0
C156 C 0.98573 0.05742 0.21356 0.0
O157 O 0.97737 0.14404 0.30583 0.0
O158 O 0.01445 0.15046 0.3532 0.0
C159 C 0.08501 0.14906 0.26847 0.0
O160 O 0.03963 0.14216 0.21345 0.0
O161 O 1.00244 0.14711 0.16599 0.0
O162 O 0.97469 0.07511 0.18734 0.0
O163 O 0.99864 0.06931 0.24458 0.0
O164 O 0.08699 0.13811 0.30217 0.0
O165 O 0.05727 0.14533 0.24879 0.0
O166 O 0.01813 0.06986 0.27868 0.0
O167 O 0.0417 0.0776 0.33583 0.0
C168 C 0.03081 0.05902 0.31031 0.0
O169 O 0.95941 0.14527 0.27069 0.0
O170 O 0.9297 0.1368 0.21746 0.0
C171 C 0.98483 0.15467 0.33974 0.0
C172 C 0.9317 0.14845 0.25085 0.0
Zn173 Zn 0.54615 0.3828 0.70317 0.0
Zn174 Zn 0.48367 0.38119 0.83301 0.0
Zn175 Zn 0.51489 0.38011 0.76782 0.0
C176 C 0.49458 0.44274 0.81718 0.0
C177 C 0.43908 0.35089 0.78391 0.0
O178 O 0.56482 0.35468 0.77343 0.0
O179 O 0.591 0.3662 0.71854 0.0
C180 C 0.53342 0.44373 0.71955 0.0
O181 O 0.50539 0.42959 0.78584 0.0
O182 O 0.48517 0.42623 0.84545 0.0
O183 O 0.4393 0.36341 0.81695 0.0
O184 O 0.46544 0.35368 0.76147 0.0
O185 O 0.54346 0.42769 0.69113 0.0
O186 O 0.52296 0.43011 0.75071 0.0
O187 O 0.4815 0.35602 0.72478 0.0
O188 O 0.51572 0.35461 0.67381 0.0
C189 C 0.48746 0.34773 0.68954 0.0
O190 O 0.54899 0.35657 0.81037 0.0
O191 O 0.51507 0.35357 0.86154 0.0
C192 C 0.5913 0.35291 0.75103 0.0
C193 C 0.5434 0.3477 0.84544 0.0
Zn194 Zn 0.02207 0.88091 0.8383 0.0
Zn195 Zn 0.98046 0.86611 0.69862 0.0
Zn196 Zn 1.00409 0.87224 0.76714 0.0
C197 C 0.98214 0.92983 0.71163 0.0
C198 C 0.93438 0.83414 0.74299 0.0
O199 O 0.05485 0.84879 0.77147 0.0
O200 O 0.06454 0.85612 0.83376 0.0
C201 C 0.02033 0.93993 0.80857 0.0
O202 O 0.9941 0.91989 0.74401 0.0
O203 O 0.97388 0.91062 0.68553 0.0
O204 O 0.94026 0.83984 0.70789 0.0
O205 O 0.95458 0.8449 0.7694 0.0
O206 O 0.02579 0.92693 0.84062 0.0
O207 O 0.01167 0.92335 0.77893 0.0
O208 O 0.96577 0.84913 0.80722 0.0
O209 O 0.98429 0.86084 0.86594 0.0
C210 C 0.96269 0.84765 0.84439 0.0
O211 O 0.04491 0.84843 0.7314 0.0
O212 O 0.01913 0.84505 0.67466 0.0
C213 C 0.07361 0.84464 0.80167 0.0
C214 C 0.045 0.84024 0.69541 0.0
Zn215 Zn 0.51767 0.6137 0.18898 0.0
Zn216 Zn 0.47569 0.62729 0.32427 0.0
Zn217 Zn 0.49899 0.62132 0.25926 0.0
C218 C 0.54256 0.64274 0.33306 0.0
C219 C 0.46231 0.56628 0.30528 0.0
O220 O 0.46105 0.64451 0.21953 0.0
O221 O 0.47913 0.63154 0.16095 0.0
C222 C 0.56851 0.65033 0.22593 0.0
O223 O 0.53995 0.64334 0.29587 0.0
O224 O 0.51816 0.63252 0.35344 0.0
O225 O 0.45048 0.58706 0.32747 0.0
O226 O 0.48492 0.57365 0.2796 0.0
O227 O 0.55909 0.64019 0.19334 0.0
O228 O 0.55012 0.64461 0.2562 0.0
O229 O 0.50673 0.57016 0.24784 0.0
O230 O 0.52384 0.56801 0.18686 0.0
C231 C 0.51734 0.55434 0.21831 0.0
O232 O 0.45117 0.65061 0.25764 0.0
O233 O 0.4477 0.66509 0.31871 0.0
C234 C 0.45762 0.645 0.18242 0.0
C235 C 0.43725 0.66744 0.28445 0.0
H236 H 0.08597 0.86006 0.3225 0.0
H237 H 0.02747 0.03001 0.37926 0.0
H238 H 0.13131 0.91366 0.4153 0.0
H239 H 0.04629 0.01173 0.25838 0.0
H240 H 0.0487 0.97806 0.39479 0.0
H241 H 0.05824 0.90802 0.29923 0.0
C242 C 0.09042 0.88176 0.33785 0.0
C243 C 0.11072 0.8825 0.37146 0.0
C244 C 0.04761 0.98521 0.3648 0.0
C245 C 0.07807 0.93681 0.34563 0.0
C246 C 0.03534 0.01473 0.35585 0.0
C247 C 0.03533 0.02524 0.31749 0.0
C248 C 0.05986 0.96579 0.33524 0.0
C249 C 0.04566 0.00437 0.28829 0.0
C250 C 0.07437 0.90898 0.32461 0.0
C251 C 0.11509 0.91143 0.39016 0.0
N252 N 0.0579 0.97552 0.29779 0.0
N253 N 0.09856 0.93719 0.37733 0.0
H254 H 0.45434 0.62325 0.91481 0.0
H255 H 0.47022 0.483 0.76234 0.0
H256 H 0.38868 0.61425 0.81525 0.0
H257 H 0.50753 0.47949 0.87932 0.0
H258 H 0.45217 0.53737 0.77332 0.0
H259 H 0.48517 0.57656 0.89421 0.0
C260 C 0.44635 0.61147 0.8886 0.0
C261 C 0.41832 0.62236 0.86722 0.0
C262 C 0.46489 0.52482 0.79629 0.0
C263 C 0.45412 0.56911 0.84303 0.0
C264 C 0.4755 0.494 0.78991 0.0
C265 C 0.49033 0.47689 0.82003 0.0
C266 C 0.46944 0.53848 0.83292 0.0
C267 C 0.49604 0.49192 0.85545 0.0
C268 C 0.46417 0.58493 0.87671 0.0
C269 C 0.41003 0.60668 0.83273 0.0
N270 N 0.48542 0.52177 0.86099 0.0
N271 N 0.42764 0.58065 0.82188 0.0
H272 H 0.63737 0.61841 0.70799 0.0
H273 H 0.50988 0.47962 0.66143 0.0
H274 H 0.56203 0.62137 0.61718 0.0
H275 H 0.56384 0.48494 0.76959 0.0
H276 H 0.5251 0.53392 0.64836 0.0
H277 H 0.60839 0.57213 0.73473 0.0
C278 C 0.61451 0.60959 0.69399 0.0
C279 C 0.60258 0.62334 0.65977 0.0
C280 C 0.53316 0.52358 0.67536 0.0
C281 C 0.56945 0.57049 0.69004 0.0
C282 C 0.52434 0.49261 0.68283 0.0
C283 C 0.5357 0.47798 0.71653 0.0
C284 C 0.55445 0.53982 0.70126 0.0
C285 C 0.55453 0.49562 0.74332 0.0
C286 C 0.59799 0.58319 0.70924 0.0
C287 C 0.57278 0.61099 0.64291 0.0
N288 N 0.56398 0.52553 0.73476 0.0
N289 N 0.55756 0.58514 0.65791 0.0
H290 H 0.88285 0.90858 0.11182 0.0
H291 H 0.97132 0.01189 0.26803 0.0
H292 H 0.92861 0.86018 0.20817 0.0
H293 H 0.98724 0.02616 0.14588 0.0
H294 H 0.9501 0.9586 0.25387 0.0
H295 H 0.91264 0.956 0.13121 0.0
C296 C 0.89933 0.90771 0.1369 0.0
C297 C 0.90369 0.8799 0.15778 0.0
C298 C 0.95902 0.97332 0.23044 0.0
C299 C 0.93706 0.93485 0.18088 0.0
C300 C 0.97138 0.00351 0.23848 0.0
C301 C 0.98094 0.02343 0.20804 0.0
C302 C 0.95558 0.9637 0.19179 0.0
C303 C 0.97979 0.0117 0.17018 0.0
C304 C 0.91619 0.93493 0.14804 0.0
C305 C 0.92433 0.88097 0.19114 0.0
N306 N 0.96673 0.9829 0.1631 0.0
N307 N 0.94025 0.90808 0.20179 0.0
H308 H 0.8854 0.11081 0.70841 0.0
H309 H 0.99153 0.96009 0.644 0.0
H310 H 0.91622 0.08869 0.59149 0.0
H311 H 0.95947 0.97544 0.76186 0.0
H312 H 0.97241 0.01241 0.62748 0.0
H313 H 0.91891 0.06606 0.73128 0.0
C314 C 0.89941 0.09684 0.68758 0.0
C315 C 0.89783 0.10371 0.64786 0.0
C316 C 0.96983 0.00467 0.65713 0.0
C317 C 0.93644 0.05271 0.67394 0.0
C318 C 0.98087 0.97478 0.66657 0.0
C319 C 0.97675 0.96341 0.70422 0.0
C320 C 0.95381 0.02327 0.68536 0.0
C321 C 0.9631 0.98345 0.73247 0.0
C322 C 0.91867 0.07141 0.70072 0.0
C323 C 0.91693 0.08493 0.62238 0.0
N324 N 0.95149 0.01233 0.72232 0.0
N325 N 0.93513 0.06034 0.63582 0.0
H326 H 0.66827 0.4212 0.19739 0.0
H327 H 0.55485 0.52643 0.27466 0.0
H328 H 0.5805 0.37304 0.1495 0.0
H329 H 0.50287 0.50768 0.16743 0.0
H330 H 0.58448 0.47604 0.2686 0.0
H331 H 0.62999 0.459 0.22678 0.0
C332 C 0.64097 0.41785 0.19381 0.0
C333 C 0.62792 0.39369 0.17037 0.0
C334 C 0.56605 0.48271 0.24684 0.0
C335 C 0.58369 0.43785 0.20373 0.0
C336 C 0.54879 0.51117 0.25059 0.0
C337 C 0.52655 0.52109 0.22142 0.0
C338 C 0.56088 0.46425 0.21369 0.0
C339 C 0.51995 0.50078 0.19044 0.0
C340 C 0.61903 0.43966 0.21075 0.0
C341 C 0.59207 0.39161 0.16629 0.0
N342 N 0.53729 0.47339 0.18719 0.0
N343 N 0.57132 0.41383 0.18197 0.0
H344 H 0.32162 0.41972 0.35943 0.0
H345 H 0.49573 0.50953 0.30624 0.0
H346 H 0.4213 0.3788 0.37765 0.0
H347 H 0.39556 0.55135 0.31178 0.0
H348 H 0.46946 0.4581 0.31963 0.0
H349 H 0.34882 0.46404 0.32817 0.0
C350 C 0.34923 0.41962 0.35619 0.0
C351 C 0.36911 0.39534 0.3715 0.0
C352 C 0.45326 0.47851 0.31729 0.0
C353 C 0.40073 0.44707 0.33652 0.0
C354 C 0.46821 0.5077 0.3093 0.0
C355 C 0.44771 0.53453 0.30791 0.0
C356 C 0.41765 0.47641 0.32351 0.0
C357 C 0.41225 0.53119 0.31292 0.0
C358 C 0.36483 0.44526 0.33863 0.0
C359 C 0.40493 0.3972 0.36692 0.0
N360 N 0.39841 0.50277 0.32059 0.0
N361 N 0.41965 0.42279 0.3502 0.0
H362 H 0.07482 0.12808 0.87257 0.0
H363 H 0.06007 0.96835 0.75397 0.0
H364 H 0.16294 0.07809 0.82857 0.0
H365 H 1.00077 0.98695 0.85673 0.0
H366 H 0.08716 0.02018 0.76044 0.0
H367 H 0.03779 0.087 0.84643 0.0
C368 C 0.08654 0.10881 0.85717 0.0
C369 C 0.12244 0.10643 0.85387 0.0
C370 C 0.06743 0.01319 0.7808 0.0
C371 C 0.07971 0.06015 0.82227 0.0
C372 C 0.05179 0.98385 0.77695 0.0
C373 C 0.02839 0.97349 0.80503 0.0
C374 C 0.05885 0.03235 0.81238 0.0
C375 C 0.01884 0.99417 0.83463 0.0
C376 C 0.06523 0.08557 0.84194 0.0
C377 C 0.13563 0.08134 0.83202 0.0
N378 N 0.03427 0.0226 0.83771 0.0
N379 N 0.11431 0.05909 0.81737 0.0
H380 H 0.10376 0.19154 0.95519 0.0
H381 H 0.10083 0.1369 0.17463 0.0
H382 H 0.18681 0.14051 1.00671 0.0
H383 H 0.02285 0.19296 0.12086 0.0
H384 H 0.13818 0.14592 0.11829 0.0
H385 H 0.07913 0.19998 0.01929 0.0
C386 C 0.11707 0.18256 0.98023 0.0
C387 C 0.14718 0.16517 0.97573 0.0
C388 C 0.1132 0.15685 0.11927 0.0
C389 C 0.11877 0.17403 0.04942 0.0
C390 C 0.09202 0.15195 0.1516 0.0
C391 C 0.05853 0.16386 0.15212 0.0
C392 C 0.10067 0.17375 0.08746 0.0
C393 C 0.04831 0.18297 0.12138 0.0
C394 C 0.10302 0.18732 0.01688 0.0
C395 C 0.16353 0.15409 1.00907 0.0
N396 N 0.06902 0.18691 0.09017 0.0
N397 N 0.1488 0.15822 0.04452 0.0
H398 H 0.41206 0.31499 0.46812 0.0
H399 H 0.41806 0.35895 0.69007 0.0
H400 H 0.32331 0.34936 0.52915 0.0
H401 H 0.49664 0.30675 0.63071 0.0
H402 H 0.37935 0.34944 0.6354 0.0
H403 H 0.44064 0.30659 0.52983 0.0
C404 C 0.39852 0.32048 0.49467 0.0
C405 C 0.36546 0.33308 0.49362 0.0
C406 C 0.40477 0.33937 0.63482 0.0
C407 C 0.39809 0.32396 0.56459 0.0
C408 C 0.42673 0.34453 0.66621 0.0
C409 C 0.46071 0.33399 0.66457 0.0
C410 C 0.41715 0.32375 0.60175 0.0
C411 C 0.47076 0.31568 0.63283 0.0
C412 C 0.41473 0.31558 0.52996 0.0
C413 C 0.34886 0.33957 0.52883 0.0
N414 N 0.44935 0.31164 0.60246 0.0
N415 N 0.36557 0.33543 0.56293 0.0
H416 H 0.69807 0.36117 0.01747 0.0
H417 H 0.53667 0.30094 0.89742 0.0
H418 H 0.6103 0.31308 0.06492 0.0
H419 H 0.61075 0.36583 0.85102 0.0
H420 H 0.57374 0.29225 0.95287 0.0
H421 H 0.67561 0.35183 0.95205 0.0
C422 C 0.67446 0.3481 0.01402 0.0
C423 C 0.65576 0.33814 0.04654 0.0
C424 C 0.58238 0.30789 0.93024 0.0
C425 C 0.63012 0.32727 0.97218 0.0
C426 C 0.56136 0.31258 0.89836 0.0
C427 C 0.57054 0.33438 0.86991 0.0
C428 C 0.61256 0.32556 0.93415 0.0
C429 C 0.60278 0.34885 0.87245 0.0
C430 C 0.66162 0.34287 0.97678 0.0
C431 C 0.62525 0.32146 0.0406 0.0
N432 N 0.62236 0.34478 0.90461 0.0
N433 N 0.61332 0.31675 1.00424 0.0
H434 H 0.91281 0.20278 0.56035 0.0
H435 H 0.91574 0.14162 0.34389 0.0
H436 H 0.83 0.1499 0.51017 0.0
H437 H 0.99489 0.19807 0.39593 0.0
H438 H 0.8779 0.15386 0.39874 0.0
H439 H 0.93683 0.211 0.49583 0.0
C440 C 0.89922 0.19364 0.53549 0.0
C441 C 0.86948 0.17563 0.54047 0.0
C442 C 0.90326 0.16419 0.39768 0.0
C443 C 0.89741 0.18387 0.46648 0.0
C444 C 0.92475 0.15743 0.36616 0.0
C445 C 0.95865 0.16852 0.36566 0.0
C446 C 0.9159 0.18209 0.42875 0.0
C447 C 0.9691 0.18864 0.39547 0.0
C448 C 0.913 0.19815 0.49863 0.0
C449 C 0.85292 0.16408 0.50742 0.0
N450 N 0.94806 0.19437 0.42599 0.0
N451 N 0.86748 0.16783 0.47184 0.0
H452 H 0.89374 0.76708 0.04852 0.0
H453 H 0.89913 0.87054 0.85841 0.0
H454 H 0.84349 0.85591 0.03486 0.0
H455 H 0.96342 0.79067 0.87815 0.0
H456 H 0.86333 0.85498 0.91346 0.0
H457 H 0.90446 0.76561 0.97857 0.0
C458 C 0.88405 0.78579 0.03061 0.0
C459 C 0.86818 0.81187 0.04745 0.0
C460 C 0.88453 0.84017 0.90498 0.0
C461 C 0.88064 0.8106 0.96768 0.0
C462 C 0.90461 0.8488 0.87315 0.0
C463 C 0.93398 0.83166 0.86365 0.0
C464 C 0.89438 0.81455 0.92779 0.0
C465 C 0.9407 0.80426 0.88441 0.0
C466 C 0.89034 0.78506 0.99074 0.0
C467 C 0.85629 0.83559 0.02299 0.0
N468 N 0.92149 0.79686 0.91601 0.0
N469 N 0.8632 0.83462 0.98449 0.0
H470 H 0.66034 0.62674 0.53188 0.0
H471 H 0.60317 0.61321 0.346 0.0
H472 H 0.62142 0.72091 0.53106 0.0
H473 H 0.54776 0.69774 0.37085 0.0
H474 H 0.64121 0.62429 0.40033 0.0
H475 H 0.64929 0.62264 0.46309 0.0
C476 C 0.65015 0.64686 0.51688 0.0
C477 C 0.64132 0.67403 0.53739 0.0
C478 C 0.62106 0.64072 0.39394 0.0
C479 C 0.6287 0.66982 0.45775 0.0
C480 C 0.59987 0.6347 0.36221 0.0
C481 C 0.57255 0.65472 0.35398 0.0
C482 C 0.61399 0.66643 0.41825 0.0
C483 C 0.56882 0.68191 0.37619 0.0
C484 C 0.64404 0.64465 0.47723 0.0
C485 C 0.62858 0.69949 0.51644 0.0
N486 N 0.58886 0.6867 0.40769 0.0
N487 N 0.62203 0.69654 0.47799 0.0
H488 H 0.38978 0.72798 0.98048 0.0
H489 H 0.39583 0.61947 0.16597 0.0
H490 H 0.34724 0.63505 0.98789 0.0
H491 H 0.45618 0.70303 0.15126 0.0
H492 H 0.36078 0.63463 0.11057 0.0
H493 H 0.39742 0.72813 0.05083 0.0
C494 C 0.38105 0.70801 0.99708 0.0
C495 C 0.36836 0.68127 0.97838 0.0
C496 C 0.38089 0.65028 0.12024 0.0
C497 C 0.37733 0.6811 0.05862 0.0
C498 C 0.40054 0.64183 0.15222 0.0
C499 C 0.42866 0.66019 0.16318 0.0
C500 C 0.38995 0.67696 0.09877 0.0
C501 C 0.43441 0.68848 0.14382 0.0
C502 C 0.3856 0.70802 0.03718 0.0
C503 C 0.35763 0.65594 1.0012 0.0
N504 N 0.41569 0.69572 0.11202 0.0
N505 N 0.36283 0.65629 0.04001 0.0
H506 H 0.16341 0.86647 0.49826 0.0
H507 H 0.10538 0.87101 0.68436 0.0
H508 H 0.11983 0.77394 0.49079 0.0
H509 H 0.05186 0.78594 0.65593 0.0
H510 H 0.1432 0.86294 0.62907 0.0
H511 H 0.15373 0.86633 0.56747 0.0
C512 C 0.15233 0.84581 0.51148 0.0
C513 C 0.14187 0.82042 0.48859 0.0
C514 C 0.12359 0.84567 0.63481 0.0
C515 C 0.13064 0.81973 0.56878 0.0
C516 C 0.10256 0.84992 0.66725 0.0
C517 C 0.07567 0.829 0.67482 0.0
C518 C 0.11675 0.82086 0.60901 0.0
C519 C 0.07253 0.80248 0.65119 0.0
C520 C 0.14695 0.84557 0.55139 0.0
C521 C 0.12817 0.79409 0.50729 0.0
N522 N 0.09228 0.79951 0.61895 0.0
N523 N 0.12237 0.79469 0.54612 0.0
H524 H 0.16644 0.32076 0.31394 0.0
H525 H 0.15364 0.14116 0.27567 0.0
H526 H 0.2464 0.25511 0.34105 0.0
H527 H 0.07808 0.20698 0.23667 0.0
H528 H 0.19491 0.18375 0.28242 0.0
H529 H 0.14062 0.28202 0.27086 0.0
C530 C 0.17891 0.29836 0.31025 0.0
C531 C 0.20818 0.29089 0.33179 0.0
C532 C 0.16968 0.18893 0.27125 0.0
C533 C 0.17864 0.24628 0.2827 0.0
C534 C 0.14622 0.16451 0.26701 0.0
C535 C 0.11234 0.17074 0.25622 0.0
C536 C 0.15881 0.21987 0.26571 0.0
C537 C 0.10395 0.2013 0.24533 0.0
C538 C 0.16424 0.27627 0.2855 0.0
C539 C 0.22369 0.2618 0.32526 0.0
N540 N 0.12672 0.22496 0.25153 0.0
N541 N 0.20833 0.24033 0.30196 0.0
H542 H 0.33452 0.1765 0.78315 0.0
H543 H 0.37256 0.35854 0.8047 0.0
H544 H 0.27489 0.24007 0.85304 0.0
H545 H 0.43972 0.29509 0.74435 0.0
H546 H 0.32901 0.31763 0.80812 0.0
H547 H 0.36597 0.22104 0.75632 0.0
C548 C 0.32779 0.19984 0.79265 0.0
C549 C 0.3024 0.20441 0.82109 0.0
C550 C 0.35294 0.31271 0.79341 0.0
C551 C 0.33817 0.25563 0.78998 0.0
C552 C 0.37774 0.33617 0.79118 0.0
C553 C 0.40994 0.33003 0.77468 0.0
C554 C 0.36052 0.28264 0.77956 0.0
C555 C 0.41525 0.30073 0.75743 0.0
C556 C 0.34567 0.22527 0.77709 0.0
C557 C 0.29421 0.23528 0.83133 0.0
N558 N 0.39105 0.27784 0.76107 0.0
N559 N 0.31233 0.25961 0.81619 0.0
H560 H 0.69324 0.17774 0.74375 0.0
H561 H 0.65762 0.36058 0.7291 0.0
H562 H 0.74679 0.2412 0.66749 0.0
H563 H 0.59051 0.29648 0.78889 0.0
H564 H 0.69986 0.31908 0.72196 0.0
H565 H 0.66415 0.2223 0.7735 0.0
C566 C 0.69909 0.20103 0.73334 0.0
C567 C 0.72207 0.20555 0.70237 0.0
C568 C 0.67624 0.31416 0.73739 0.0
C569 C 0.68922 0.25678 0.73705 0.0
C570 C 0.65223 0.33794 0.74179 0.0
C571 C 0.62031 0.3318 0.75908 0.0
C572 C 0.66819 0.28383 0.74996 0.0
C573 C 0.61475 0.30215 0.77523 0.0
C574 C 0.68261 0.22647 0.75062 0.0
C575 C 0.72934 0.23641 0.69114 0.0
N576 N 0.63817 0.27899 0.76951 0.0
N577 N 0.7127 0.26074 0.70815 0.0
H578 H 0.77101 0.25997 0.17841 0.0
H579 H 0.86325 0.13781 0.24649 0.0
H580 H 0.83537 0.32081 0.24657 0.0
H581 H 0.93725 0.2074 0.28054 0.0
H582 H 0.81929 0.178 0.24403 0.0
H583 H 0.79771 0.21513 0.20805 0.0
C584 C 0.79013 0.26393 0.20051 0.0
C585 C 0.80119 0.29431 0.20953 0.0
C586 C 0.84501 0.18477 0.25204 0.0
C587 C 0.83236 0.24251 0.24432 0.0
C588 C 0.86996 0.16159 0.25431 0.0
C589 C 0.90392 0.16949 0.2631 0.0
C590 C 0.85449 0.21626 0.25715 0.0
C591 C 0.91132 0.20047 0.27339 0.0
C592 C 0.80552 0.23809 0.21773 0.0
C593 C 0.82655 0.29781 0.238 0.0
N594 N 0.88699 0.22293 0.26915 0.0
N595 N 0.84162 0.27227 0.25386 0.0
H596 H 0.72107 0.78972 0.7681 0.0
H597 H 0.9194 0.77776 0.71292 0.0
H598 H 0.76213 0.73778 0.67133 0.0
H599 H 0.87981 0.84788 0.79045 0.0
H600 H 0.86307 0.75288 0.71127 0.0
H601 H 0.77958 0.80231 0.7882 0.0
C602 C 0.74226 0.78077 0.75113 0.0
C603 C 0.73638 0.76301 0.71746 0.0
C604 C 0.86673 0.7733 0.72936 0.0
C605 C 0.80352 0.77681 0.74109 0.0
C606 C 0.89895 0.78732 0.73059 0.0
C607 C 0.90411 0.8148 0.75192 0.0
C608 C 0.83919 0.78718 0.74907 0.0
C609 C 0.87684 0.82648 0.77406 0.0
C610 C 0.77567 0.78783 0.76288 0.0
C611 C 0.76506 0.75136 0.69753 0.0
N612 N 0.84524 0.81289 0.77154 0.0
N613 N 0.79724 0.75867 0.70946 0.0
H614 H 0.76014 0.73152 0.15468 0.0
H615 H 0.61053 0.66256 0.28853 0.0
H616 H 0.76629 0.73069 0.27927 0.0
H617 H 0.60134 0.67853 0.16608 0.0
H618 H 0.66694 0.68815 0.28715 0.0
H619 H 0.70133 0.71261 0.15921 0.0
C620 C 0.74908 0.72767 0.18304 0.0
C621 C 0.76843 0.73265 0.2166 0.0
C622 C 0.65235 0.68626 0.26069 0.0
C623 C 0.70091 0.71034 0.22203 0.0
C624 C 0.62004 0.67182 0.26161 0.0
C625 C 0.60113 0.66822 0.22751 0.0
C626 C 0.66578 0.69704 0.22531 0.0
C627 C 0.61506 0.68038 0.19312 0.0
C628 C 0.71546 0.71667 0.18562 0.0
C629 C 0.75267 0.72665 0.25253 0.0
N630 N 0.64648 0.694 0.19289 0.0
N631 N 0.71993 0.71566 0.25429 0.0
H632 H 0.22627 0.71977 0.25087 0.0
H633 H 0.421 0.72137 0.32106 0.0
H634 H 0.26181 0.75913 0.35868 0.0
H635 H 0.38383 0.65751 0.23416 0.0
H636 H 0.36499 0.74641 0.32296 0.0
H637 H 0.2855 0.70651 0.23425 0.0
C638 C 0.24639 0.72577 0.27105 0.0
C639 C 0.23868 0.74029 0.30661 0.0
C640 C 0.36918 0.7273 0.30292 0.0
C641 C 0.30671 0.72587 0.28702 0.0
C642 C 0.40121 0.71313 0.30162 0.0
C643 C 0.40696 0.68722 0.27755 0.0
C644 C 0.34245 0.71535 0.28022 0.0
C645 C 0.38051 0.67758 0.25286 0.0
C646 C 0.28023 0.71837 0.2613 0.0
C647 C 0.26618 0.74825 0.33085 0.0
N648 N 0.3491 0.69135 0.25526 0.0
N649 N 0.2988 0.74078 0.3207 0.0
H650 H 0.26419 0.76316 0.87364 0.0
H651 H 0.11581 0.83144 0.73959 0.0
H652 H 0.27209 0.76689 0.74923 0.0
H653 H 0.10608 0.81768 0.86233 0.0
H654 H 0.17192 0.80587 0.74117 0.0
H655 H 0.20514 0.78119 0.86921 0.0
C656 C 0.25345 0.76745 0.84534 0.0
C657 C 0.27336 0.76364 0.8118 0.0
C658 C 0.15731 0.80819 0.76769 0.0
C659 C 0.20563 0.78488 0.8065 0.0
C660 C 0.12514 0.82259 0.7666 0.0
C661 C 0.10614 0.82679 0.80061 0.0
C662 C 0.17056 0.79801 0.80324 0.0
C663 C 0.11989 0.81531 0.83528 0.0
C664 C 0.21971 0.77794 0.84282 0.0
C665 C 0.25802 0.77006 0.77595 0.0
N666 N 0.15121 0.80167 0.83572 0.0
N667 N 0.22518 0.78052 0.77426 0.0
loop_
_geom_bond_atom_site_label_1
_geom_bond_atom_site_label_2
_geom_bond_distance
_geom_bond_site_symmetry_2
_ccdc_geom_bond_type
H0 C1 0.949 . S
C1 H0 0.949 . S
C1 C2 1.395 . S
C1 C3 1.391 . S
C2 C1 1.395 . S
C2 C5 1.390 . S
C3 C1 1.391 . S
C3 C7 1.387 . S
C3 C8 1.491 . S
H4 C5 0.950 . S
C5 C2 1.390 . S
C5 H4 0.950 . S
C5 C6 1.378 . S
C6 C5 1.378 . S
C6 C7 1.409 . S
C7 C3 1.387 . S
C7 C6 1.409 . S
C7 H9 0.951 . S
C8 C3 1.491 . S
C8 C10 1.382 . S
C8 C12 1.404 . S
H9 C7 0.951 . S
C10 C8 1.382 . S
C10 C11 1.390 . S
C10 H15 0.949 . S
C11 C10 1.390 . S
C11 C16 1.399 . S
C12 C8 1.404 . S
C12 H13 0.950 . S
C12 C14 1.375 . S
H13 C12 0.950 . S
C14 C12 1.375 . S
C14 C16 1.382 . S
C14 H18 0.950 . S
H15 C10 0.949 . S
C16 C11 1.399 . S
C16 C14 1.382 . S
C16 H17 0.952 . S
H17 C16 0.952 . S
H18 C14 0.950 . S
H19 C20 0.949 . S
C20 H19 0.949 . S
C20 C21 1.395 . S
C20 C22 1.391 . S
C21 C20 1.395 . S
C21 C24 1.390 . S
C22 C20 1.391 . S
C22 C26 1.387 . S
C22 C27 1.491 . S
H23 C24 0.950 . S
C24 C21 1.390 . S
C24 H23 0.950 . S
C24 C25 1.378 . S
C25 C24 1.378 . S
C25 C26 1.409 . S
C26 C22 1.387 . S
C26 C25 1.409 . S
C26 H28 0.951 . S
C27 C22 1.491 . S
C27 C29 1.382 . S
C27 C31 1.404 . S
H28 C26 0.951 . S
C29 C27 1.382 . S
C29 C30 1.390 . S
C29 H34 0.949 . S
C30 C29 1.390 . S
C30 C35 1.399 . S
C31 C27 1.404 . S
C31 H32 0.950 . S
C31 C33 1.375 . S
H32 C31 0.950 . S
C33 C31 1.375 . S
C33 C35 1.382 . S
C33 H37 0.950 . S
H34 C29 0.949 . S
C35 C30 1.399 . S
C35 C33 1.382 . S
C35 H36 0.952 . S
H36 C35 0.952 . S
H37 C33 0.950 . S
H38 C39 0.949 . S
C39 H38 0.949 . S
C39 C40 1.395 . S
C39 C41 1.391 . S
C40 C39 1.395 . S
C40 C43 1.390 . S
C41 C39 1.391 . S
C41 C45 1.387 . S
C41 C46 1.491 . S
H42 C43 0.950 . S
C43 C40 1.390 . S
C43 H42 0.950 . S
C43 C44 1.378 . S
C44 C43 1.378 . S
C44 C45 1.409 . S
C45 C41 1.387 . S
C45 C44 1.409 . S
C45 H47 0.951 . S
C46 C41 1.491 . S
C46 C48 1.382 . S
C46 C50 1.404 . S
H47 C45 0.951 . S
C48 C46 1.382 . S
C48 C49 1.390 . S
C48 H53 0.949 . S
C49 C48 1.390 . S
C49 C54 1.399 . S
C50 C46 1.404 . S
C50 H51 0.950 . S
C50 C52 1.375 . S
H51 C50 0.950 . S
C52 C50 1.375 . S
C52 C54 1.382 . S
C52 H56 0.950 . S
H53 C48 0.949 . S
C54 C49 1.399 . S
C54 C52 1.382 . S
C54 H55 0.952 . S
H55 C54 0.952 . S
H56 C52 0.950 . S
H57 C58 0.949 . S
C58 H57 0.949 . S
C58 C59 1.395 . S
C58 C60 1.391 . S
C59 C58 1.395 . S
C59 C62 1.390 . S
C60 C58 1.391 . S
C60 C64 1.387 . S
C60 C65 1.491 . S
H61 C62 0.950 . S
C62 C59 1.390 . S
C62 H61 0.950 . S
C62 C63 1.378 . S
C63 C62 1.378 . S
C63 C64 1.409 . S
C64 C60 1.387 . S
C64 C63 1.409 . S
C64 H66 0.951 . S
C65 C60 1.491 . S
C65 C67 1.382 . S
C65 C69 1.404 . S
H66 C64 0.951 . S
C67 C65 1.382 . S
C67 C68 1.390 . S
C67 H72 0.949 . S
C68 C67 1.390 . S
C68 C73 1.399 . S
C69 C65 1.404 . S
C69 H70 0.950 . S
C69 C71 1.375 . S
H70 C69 0.950 . S
C71 C69 1.375 . S
C71 C73 1.382 . S
C71 H75 0.950 . S
H72 C67 0.949 . S
C73 C68 1.399 . S
C73 C71 1.382 . S
C73 H74 0.952 . S
H74 C73 0.952 . S
H75 C71 0.950 . S
H76 C77 0.949 . S
C77 H76 0.949 . S
C77 C78 1.395 . S
C77 C79 1.391 . S
C78 C77 1.395 . S
C78 C81 1.390 . S
C79 C77 1.391 . S
C79 C83 1.387 . S
C79 C84 1.491 . S
H80 C81 0.950 . S
C81 C78 1.390 . S
C81 H80 0.950 . S
C81 C82 1.378 . S
C82 C81 1.378 . S
C82 C83 1.409 . S
C83 C79 1.387 . S
C83 C82 1.409 . S
C83 H85 0.951 . S
C84 C79 1.491 . S
C84 C86 1.382 . S
C84 C88 1.404 . S
H85 C83 0.951 . S
C86 C84 1.382 . S
C86 C87 1.390 . S
C86 H91 0.949 . S
C87 C86 1.390 . S
C87 C92 1.399 . S
C88 C84 1.404 . S
C88 H89 0.950 . S
C88 C90 1.375 . S
H89 C88 0.950 . S
C90 C88 1.375 . S
C90 C92 1.382 . S
C90 H94 0.950 . S
H91 C86 0.949 . S
C92 C87 1.399 . S
C92 C90 1.382 . S
C92 H93 0.952 . S
H93 C92 0.952 . S
H94 C90 0.950 . S
H95 C96 0.949 . S
C96 H95 0.949 . S
C96 C97 1.395 . S
C96 C98 1.391 . S
C97 C96 1.395 . S
C97 C100 1.390 . S
C98 C96 1.391 . S
C98 C102 1.387 . S
C98 C103 1.491 . S
H99 C100 0.950 . S
C100 C97 1.390 . S
C100 H99 0.950 . S
C100 C101 1.378 . S
C101 C100 1.378 . S
C101 C102 1.409 . S
C102 C98 1.387 . S
C102 C101 1.409 . S
C102 H104 0.951 . S
C103 C98 1.491 . S
C103 C105 1.382 . S
C103 C107 1.404 . S
H104 C102 0.951 . S
C105 C103 1.382 . S
C105 C106 1.390 . S
C105 H110 0.949 . S
C106 C105 1.390 . S
C106 C111 1.399 . S
C107 C103 1.404 . S
C107 H108 0.950 . S
C107 C109 1.375 . S
H108 C107 0.950 . S
C109 C107 1.375 . S
C109 C111 1.382 . S
C109 H113 0.950 . S
H110 C105 0.949 . S
C111 C106 1.399 . S
C111 C109 1.382 . S
C111 H112 0.952 . S
H112 C111 0.952 . S
H113 C109 0.950 . S
H114 C115 0.949 . S
C115 H114 0.949 . S
C115 C116 1.395 . S
C115 C117 1.391 . S
C116 C115 1.395 . S
C116 C119 1.390 . S
C117 C115 1.391 . S
C117 C121 1.387 . S
C117 C122 1.491 . S
H118 C119 0.950 . S
C119 C116 1.390 . S
C119 H118 0.950 . S
C119 C120 1.378 . S
C120 C119 1.378 . S
C120 C121 1.409 . S
C121 C117 1.387 . S
C121 C120 1.409 . S
C121 H123 0.951 . S
C122 C117 1.491 . S
C122 C124 1.382 . S
C122 C126 1.404 . S
H123 C121 0.951 . S
C124 C122 1.382 . S
C124 C125 1.390 . S
C124 H129 0.949 . S
C125 C124 1.390 . S
C125 C130 1.399 . S
C126 C122 1.404 . S
C126 H127 0.950 . S
C126 C128 1.375 . S
H127 C126 0.950 . S
C128 C126 1.375 . S
C128 C130 1.382 . S
C128 H132 0.950 . S
H129 C124 0.949 . S
C130 C125 1.399 . S
C130 C128 1.382 . S
C130 H131 0.952 . S
H131 C130 0.952 . S
H132 C128 0.950 . S
H133 C134 0.949 . S
C134 H133 0.949 . S
C134 C135 1.395 . S
C134 C136 1.391 . S
C135 C134 1.395 . S
C135 C138 1.390 . S
C136 C134 1.391 . S
C136 C140 1.387 . S
C136 C141 1.491 . S
H137 C138 0.950 . S
C138 C135 1.390 . S
C138 H137 0.950 . S
C138 C139 1.378 . S
C139 C138 1.378 . S
C139 C140 1.409 . S
C140 C136 1.387 . S
C140 C139 1.409 . S
C140 H142 0.951 . S
C141 C136 1.491 . S
C141 C143 1.382 . S
C141 C145 1.404 . S
H142 C140 0.951 . S
C143 C141 1.382 . S
C143 C144 1.390 . S
C143 H148 0.949 . S
C144 C143 1.390 . S
C144 C149 1.399 . S
C145 C141 1.404 . S
C145 H146 0.950 . S
C145 C147 1.375 . S
H146 C145 0.950 . S
C147 C145 1.375 . S
C147 C149 1.382 . S
C147 H151 0.950 . S
H148 C143 0.949 . S
C149 C144 1.399 . S
C149 C147 1.382 . S
C149 H150 0.952 . S
H150 C149 0.952 . S
H151 C147 0.950 . S
Zn152 O158 1.920 1_455 S
Zn152 O164 1.898 . S
Zn152 O167 1.905 . S
Zn153 O161 1.905 1_655 S
Zn153 O162 1.898 . S
Zn153 O170 1.920 . S
Zn154 O157 2.080 1_455 S
Zn154 O160 2.114 . S
Zn154 O163 2.120 1_455 S
Zn154 O165 2.120 . S
Zn154 O166 2.114 . S
Zn154 O169 2.080 1_455 S
C155 O160 1.166 . S
C155 O161 1.182 . S
C156 O162 1.167 . S
C156 O163 1.299 . S
O157 Zn154 2.080 1_655 S
O157 C171 1.305 . S
O158 Zn152 1.920 1_655 S
O158 C171 1.234 . S
C159 O164 1.167 . S
C159 O165 1.299 . S
O160 Zn154 2.114 . S
O160 C155 1.166 . S
O161 Zn153 1.905 1_455 S
O161 C155 1.182 . S
O162 Zn153 1.898 . S
O162 C156 1.167 . S
O163 Zn154 2.120 1_655 S
O163 C156 1.299 . S
O164 Zn152 1.898 . S
O164 C159 1.167 . S
O165 Zn154 2.120 . S
O165 C159 1.299 . S
O166 Zn154 2.114 . S
O166 C168 1.166 . S
O167 Zn152 1.905 . S
O167 C168 1.182 . S
C168 O166 1.166 . S
C168 O167 1.182 . S
O169 Zn154 2.080 1_655 S
O169 C172 1.305 . S
O170 Zn153 1.920 . S
O170 C172 1.234 . S
C171 O157 1.305 . S
C171 O158 1.234 . S
C172 O169 1.305 . S
C172 O170 1.234 . S
Zn173 O179 1.920 . S
Zn173 O185 1.898 . S
Zn173 O188 1.905 . S
Zn174 O182 1.905 . S
Zn174 O183 1.898 . S
Zn174 O191 1.920 . S
Zn175 O178 2.080 . S
Zn175 O181 2.114 . S
Zn175 O184 2.120 . S
Zn175 O186 2.120 . S
Zn175 O187 2.114 . S
Zn175 O190 2.080 . S
C176 O181 1.166 . S
C176 O182 1.182 . S
C177 O183 1.167 . S
C177 O184 1.299 . S
O178 Zn175 2.080 . S
O178 C192 1.305 . S
O179 Zn173 1.920 . S
O179 C192 1.234 . S
C180 O185 1.167 . S
C180 O186 1.299 . S
O181 Zn175 2.114 . S
O181 C176 1.166 . S
O182 Zn174 1.905 . S
O182 C176 1.182 . S
O183 Zn174 1.898 . S
O183 C177 1.167 . S
O184 Zn175 2.120 . S
O184 C177 1.299 . S
O185 Zn173 1.898 . S
O185 C180 1.167 . S
O186 Zn175 2.120 . S
O186 C180 1.299 . S
O187 Zn175 2.114 . S
O187 C189 1.166 . S
O188 Zn173 1.905 . S
O188 C189 1.182 . S
C189 O187 1.166 . S
C189 O188 1.182 . S
O190 Zn175 2.080 . S
O190 C193 1.305 . S
O191 Zn174 1.920 . S
O191 C193 1.234 . S
C192 O178 1.305 . S
C192 O179 1.234 . S
C193 O190 1.305 . S
C193 O191 1.234 . S
Zn194 O200 1.920 . S
Zn194 O206 1.898 . S
Zn194 O209 1.905 1_455 S
Zn195 O203 1.905 . S
Zn195 O204 1.898 . S
Zn195 O212 1.920 1_655 S
Zn196 O199 2.080 . S
Zn196 O202 2.114 1_455 S
Zn196 O205 2.120 1_455 S
Zn196 O207 2.120 . S
Zn196 O208 2.114 1_455 S
Zn196 O211 2.080 . S
C197 O202 1.166 . S
C197 O203 1.182 . S
C198 O204 1.167 . S
C198 O205 1.299 . S
O199 Zn196 2.080 . S
O199 C213 1.305 . S
O200 Zn194 1.920 . S
O200 C213 1.234 . S
C201 O206 1.167 . S
C201 O207 1.299 . S
O202 Zn196 2.114 1_655 S
O202 C197 1.166 . S
O203 Zn195 1.905 . S
O203 C197 1.182 . S
O204 Zn195 1.898 . S
O204 C198 1.167 . S
O205 Zn196 2.120 1_655 S
O205 C198 1.299 . S
O206 Zn194 1.898 . S
O206 C201 1.167 . S
O207 Zn196 2.120 . S
O207 C201 1.299 . S
O208 Zn196 2.114 1_655 S
O208 C210 1.166 . S
O209 Zn194 1.905 1_655 S
O209 C210 1.182 . S
C210 O208 1.166 . S
C210 O209 1.182 . S
O211 Zn196 2.080 . S
O211 C214 1.305 . S
O212 Zn195 1.920 1_455 S
O212 C214 1.234 . S
C213 O199 1.305 . S
C213 O200 1.234 . S
C214 O211 1.305 . S
C214 O212 1.234 . S
Zn215 O221 1.920 . S
Zn215 O227 1.898 . S
Zn215 O230 1.905 . S
Zn216 O224 1.905 . S
Zn216 O225 1.898 . S
Zn216 O233 1.920 . S
Zn217 O220 2.080 . S
Zn217 O223 2.114 . S
Zn217 O226 2.120 . S
Zn217 O228 2.120 . S
Zn217 O229 2.114 . S
Zn217 O232 2.080 . S
C218 O223 1.166 . S
C218 O224 1.182 . S
C219 O225 1.167 . S
C219 O226 1.299 . S
O220 Zn217 2.080 . S
O220 C234 1.305 . S
O221 Zn215 1.920 . S
O221 C234 1.234 . S
C222 O227 1.167 . S
C222 O228 1.299 . S
O223 Zn217 2.114 . S
O223 C218 1.166 . S
O224 Zn216 1.905 . S
O224 C218 1.182 . S
O225 Zn216 1.898 . S
O225 C219 1.167 . S
O226 Zn217 2.120 . S
O226 C219 1.299 . S
O227 Zn215 1.898 . S
O227 C222 1.167 . S
O228 Zn217 2.120 . S
O228 C222 1.299 . S
O229 Zn217 2.114 . S
O229 C231 1.166 . S
O230 Zn215 1.905 . S
O230 C231 1.182 . S
C231 O229 1.166 . S
C231 O230 1.182 . S
O232 Zn217 2.080 . S
O232 C235 1.305 . S
O233 Zn216 1.920 . S
O233 C235 1.234 . S
C234 O220 1.305 . S
C234 O221 1.234 . S
C235 O232 1.305 . S
C235 O233 1.234 . S
H236 C242 0.930 . S
H237 C246 0.930 . S
H238 C251 0.929 . S
H239 C249 0.929 . S
H240 C244 0.929 . S
H241 C250 0.929 . S
C242 H236 0.930 . S
C242 C243 1.367 . S
C242 C250 1.378 . S
C243 C242 1.367 . S
C243 C251 1.433 . S
C244 H240 0.929 . S
C244 C246 1.378 1_565 S
C244 C248 1.350 . S
C245 C248 1.463 . S
C245 C250 1.350 . S
C245 N253 1.427 . S
C246 H237 0.930 . S
C246 C244 1.378 1_545 S
C246 C247 1.367 . S
C247 C246 1.367 . S
C247 C249 1.433 1_545 S
C248 C244 1.350 . S
C248 C245 1.463 . S
C248 N252 1.427 . S
C249 H239 0.929 . S
C249 C247 1.433 1_565 S
C249 N252 1.384 . S
C250 H241 0.929 . S
C250 C242 1.378 . S
C250 C245 1.350 . S
C251 H238 0.929 . S
C251 C243 1.433 . S
C251 N253 1.384 . S
N252 C248 1.427 . S
N252 C249 1.384 . S
N253 C245 1.427 . S
N253 C251 1.384 . S
H254 C260 0.930 . S
H255 C264 0.930 . S
H256 C269 0.929 . S
H257 C267 0.929 . S
H258 C262 0.929 . S
H259 C268 0.929 . S
C260 H254 0.930 . S
C260 C261 1.367 . S
C260 C268 1.378 . S
C261 C260 1.367 . S
C261 C269 1.433 . S
C262 H258 0.929 . S
C262 C264 1.378 . S
C262 C266 1.350 . S
C263 C266 1.463 . S
C263 C268 1.350 . S
C263 N271 1.427 . S
C264 H255 0.930 . S
C264 C262 1.378 . S
C264 C265 1.367 . S
C265 C264 1.367 . S
C265 C267 1.433 . S
C266 C262 1.350 . S
C266 C263 1.463 . S
C266 N270 1.427 . S
C267 H257 0.929 . S
C267 C265 1.433 . S
C267 N270 1.384 . S
C268 H259 0.929 . S
C268 C260 1.378 . S
C268 C263 1.350 . S
C269 H256 0.929 . S
C269 C261 1.433 . S
C269 N271 1.384 . S
N270 C266 1.427 . S
N270 C267 1.384 . S
N271 C263 1.427 . S
N271 C269 1.384 . S
H272 C278 0.930 . S
H273 C282 0.930 . S
H274 C287 0.929 . S
H275 C285 0.929 . S
H276 C280 0.929 . S
H277 C286 0.929 . S
C278 H272 0.930 . S
C278 C279 1.367 . S
C278 C286 1.378 . S
C279 C278 1.367 . S
C279 C287 1.433 . S
C280 H276 0.929 . S
C280 C282 1.378 . S
C280 C284 1.350 . S
C281 C284 1.463 . S
C281 C286 1.350 . S
C281 N289 1.427 . S
C282 H273 0.930 . S
C282 C280 1.378 . S
C282 C283 1.367 . S
C283 C282 1.367 . S
C283 C285 1.433 . S
C284 C280 1.350 . S
C284 C281 1.463 . S
C284 N288 1.427 . S
C285 H275 0.929 . S
C285 C283 1.433 . S
C285 N288 1.384 . S
C286 H277 0.929 . S
C286 C278 1.378 . S
C286 C281 1.350 . S
C287 H274 0.929 . S
C287 C279 1.433 . S
C287 N289 1.384 . S
N288 C284 1.427 . S
N288 C285 1.384 . S
N289 C281 1.427 . S
N289 C287 1.384 . S
H290 C296 0.930 . S
H291 C300 0.930 . S
H292 C305 0.929 . S
H293 C303 0.929 . S
H294 C298 0.929 . S
H295 C304 0.929 . S
C296 H290 0.930 . S
C296 C297 1.367 . S
C296 C304 1.378 . S
C297 C296 1.367 . S
C297 C305 1.433 . S
C298 H294 0.929 . S
C298 C300 1.378 . S
C298 C302 1.350 . S
C299 C302 1.463 . S
C299 C304 1.350 . S
C299 N307 1.427 . S
C300 H291 0.930 . S
C300 C298 1.378 . S
C300 C301 1.367 1_565 S
C301 C300 1.367 1_545 S
C301 C303 1.433 . S
C302 C298 1.350 . S
C302 C299 1.463 . S
C302 N306 1.427 . S
C303 H293 0.929 . S
C303 C301 1.433 . S
C303 N306 1.384 1_545 S
C304 H295 0.929 . S
C304 C296 1.378 . S
C304 C299 1.350 . S
C305 H292 0.929 . S
C305 C297 1.433 . S
C305 N307 1.384 . S
N306 C302 1.427 . S
N306 C303 1.384 1_565 S
N307 C299 1.427 . S
N307 C305 1.384 . S
H308 C314 0.930 . S
H309 C318 0.930 . S
H310 C323 0.929 . S
H311 C321 0.918 1_565 S
H312 C316 0.929 . S
H313 C322 0.929 . S
C314 H308 0.930 . S
C314 C315 1.367 . S
C314 C322 1.378 . S
C315 C314 1.367 . S
C315 C323 1.433 . S
C316 H312 0.929 . S
C316 C318 1.378 1_545 S
C316 C320 1.350 . S
C317 C320 1.463 . S
C317 C322 1.350 . S
C317 N325 1.427 . S
C318 H309 0.930 . S
C318 C316 1.378 1_565 S
C318 C319 1.367 . S
C319 C318 1.367 . S
C319 C321 1.419 1_565 S
C320 C316 1.350 . S
C320 C317 1.463 . S
C320 N324 1.427 . S
C321 H311 0.918 1_545 S
C321 C319 1.419 1_545 S
C321 N324 1.411 . S
C322 H313 0.929 . S
C322 C314 1.378 . S
C322 C317 1.350 . S
C323 H310 0.929 . S
C323 C315 1.433 . S
C323 N325 1.384 . S
N324 C320 1.427 . S
N324 C321 1.411 . S
N325 C317 1.427 . S
N325 C323 1.384 . S
H326 C332 0.930 . S
H327 C336 0.930 . S
H328 C341 0.929 . S
H329 C339 0.929 . S
H330 C334 0.929 . S
H331 C340 0.929 . S
C332 H326 0.930 . S
C332 C333 1.367 . S
C332 C340 1.378 . S
C333 C332 1.367 . S
C333 C341 1.433 . S
C334 H330 0.929 . S
C334 C336 1.378 . S
C334 C338 1.350 . S
C335 C338 1.463 . S
C335 C340 1.350 . S
C335 N343 1.427 . S
C336 H327 0.930 . S
C336 C334 1.378 . S
C336 C337 1.367 . S
C337 C336 1.367 . S
C337 C339 1.433 . S
C338 C334 1.350 . S
C338 C335 1.463 . S
C338 N342 1.427 . S
C339 H329 0.929 . S
C339 C337 1.433 . S
C339 N342 1.384 . S
C340 H331 0.929 . S
C340 C332 1.378 . S
C340 C335 1.350 . S
C341 H328 0.929 . S
C341 C333 1.433 . S
C341 N343 1.384 . S
N342 C338 1.427 . S
N342 C339 1.384 . S
N343 C335 1.427 . S
N343 C341 1.384 . S
H344 C350 0.930 . S
H345 C354 0.930 . S
H346 C359 0.929 . S
H347 C357 0.929 . S
H348 C352 0.929 . S
H349 C358 0.929 . S
C350 H344 0.930 . S
C350 C351 1.367 . S
C350 C358 1.378 . S
C351 C350 1.367 . S
C351 C359 1.433 . S
C352 H348 0.929 . S
C352 C354 1.378 . S
C352 C356 1.350 . S
C353 C356 1.463 . S
C353 C358 1.350 . S
C353 N361 1.427 . S
C354 H345 0.930 . S
C354 C352 1.378 . S
C354 C355 1.367 . S
C355 C354 1.367 . S
C355 C357 1.433 . S
C356 C352 1.350 . S
C356 C353 1.463 . S
C356 N360 1.427 . S
C357 H347 0.929 . S
C357 C355 1.433 . S
C357 N360 1.384 . S
C358 H349 0.929 . S
C358 C350 1.378 . S
C358 C353 1.350 . S
C359 H346 0.929 . S
C359 C351 1.433 . S
C359 N361 1.384 . S
N360 C356 1.427 . S
N360 C357 1.384 . S
N361 C353 1.427 . S
N361 C359 1.384 . S
H362 C368 0.930 . S
H363 C372 0.930 . S
H364 C377 0.929 . S
H365 C375 0.929 . S
H366 C370 0.929 . S
H367 C376 0.929 . S
C368 H362 0.930 . S
C368 C369 1.367 . S
C368 C376 1.378 . S
C369 C368 1.367 . S
C369 C377 1.433 . S
C370 H366 0.929 . S
C370 C372 1.378 1_545 S
C370 C374 1.350 . S
C371 C374 1.463 . S
C371 C376 1.350 . S
C371 N379 1.427 . S
C372 H363 0.930 . S
C372 C370 1.378 1_565 S
C372 C373 1.367 . S
C373 C372 1.367 . S
C373 C375 1.433 1_565 S
C374 C370 1.350 . S
C374 C371 1.463 . S
C374 N378 1.427 . S
C375 H365 0.929 . S
C375 C373 1.433 1_545 S
C375 N378 1.384 . S
C376 H367 0.929 . S
C376 C368 1.378 . S
C376 C371 1.350 . S
C377 H364 0.929 . S
C377 C369 1.433 . S
C377 N379 1.384 . S
N378 C374 1.427 . S
N378 C375 1.384 . S
N379 C371 1.427 . S
N379 C377 1.384 . S
H380 C386 0.930 . S
H381 C390 0.930 . S
H382 C395 0.929 . S
H383 C393 0.929 . S
H384 C388 0.929 . S
H385 C394 0.929 . S
C386 H380 0.930 . S
C386 C387 1.367 . S
C386 C394 1.378 1_556 S
C387 C386 1.367 . S
C387 C395 1.433 . S
C388 H384 0.929 . S
C388 C390 1.378 . S
C388 C392 1.350 . S
C389 C392 1.463 . S
C389 C394 1.350 . S
C389 N397 1.427 . S
C390 H381 0.930 . S
C390 C388 1.378 . S
C390 C391 1.367 . S
C391 C390 1.367 . S
C391 C393 1.433 . S
C392 C388 1.350 . S
C392 C389 1.463 . S
C392 N396 1.427 . S
C393 H383 0.929 . S
C393 C391 1.433 . S
C393 N396 1.384 . S
C394 H385 0.929 . S
C394 C386 1.378 1_554 S
C394 C389 1.350 . S
C395 H382 0.929 . S
C395 C387 1.433 . S
C395 N397 1.384 1_556 S
N396 C392 1.427 . S
N396 C393 1.384 . S
N397 C389 1.427 . S
N397 C395 1.384 1_554 S
H398 C404 0.930 . S
H399 C408 0.930 . S
H400 C413 0.929 . S
H401 C411 0.929 . S
H402 C406 0.929 . S
H403 C412 0.929 . S
C404 H398 0.930 . S
C404 C405 1.367 . S
C404 C412 1.378 . S
C405 C404 1.367 . S
C405 C413 1.433 . S
C406 H402 0.929 . S
C406 C408 1.378 . S
C406 C410 1.350 . S
C407 C410 1.463 . S
C407 C412 1.350 . S
C407 N415 1.427 . S
C408 H399 0.930 . S
C408 C406 1.378 . S
C408 C409 1.367 . S
C409 C408 1.367 . S
C409 C411 1.433 . S
C410 C406 1.350 . S
C410 C407 1.463 . S
C410 N414 1.427 . S
C411 H401 0.929 . S
C411 C409 1.433 . S
C411 N414 1.384 . S
C412 H403 0.929 . S
C412 C404 1.378 . S
C412 C407 1.350 . S
C413 H400 0.929 . S
C413 C405 1.433 . S
C413 N415 1.384 . S
N414 C410 1.427 . S
N414 C411 1.384 . S
N415 C407 1.427 . S
N415 C413 1.384 . S
H416 C422 0.928 1_554 S
H417 C426 0.930 . S
H418 C431 0.929 . S
H419 C429 0.929 . S
H420 C424 0.929 . S
H421 C430 0.929 . S
C422 H416 0.928 1_556 S
C422 C423 1.367 1_556 S
C422 C430 1.378 . S
C423 C422 1.367 1_554 S
C423 C431 1.433 . S
C424 H420 0.929 . S
C424 C426 1.378 . S
C424 C428 1.350 . S
C425 C428 1.463 . S
C425 C430 1.350 . S
C425 N433 1.427 . S
C426 H417 0.930 . S
C426 C424 1.378 . S
C426 C427 1.367 . S
C427 C426 1.367 . S
C427 C429 1.433 . S
C428 C424 1.350 . S
C428 C425 1.463 . S
C428 N432 1.427 . S
C429 H419 0.929 . S
C429 C427 1.433 . S
C429 N432 1.384 . S
C430 H421 0.929 . S
C430 C422 1.378 . S
C430 C425 1.350 . S
C431 H418 0.929 . S
C431 C423 1.433 . S
C431 N433 1.384 1_554 S
N432 C428 1.427 . S
N432 C429 1.384 . S
N433 C425 1.427 . S
N433 C431 1.384 1_556 S
H434 C440 0.930 . S
H435 C444 0.930 . S
H436 C449 0.929 . S
H437 C447 0.929 . S
H438 C442 0.929 . S
H439 C448 0.929 . S
C440 H434 0.930 . S
C440 C441 1.367 . S
C440 C448 1.378 . S
C441 C440 1.367 . S
C441 C449 1.433 . S
C442 H438 0.929 . S
C442 C444 1.378 . S
C442 C446 1.350 . S
C443 C446 1.463 . S
C443 C448 1.350 . S
C443 N451 1.427 . S
C444 H435 0.930 . S
C444 C442 1.378 . S
C444 C445 1.367 . S
C445 C444 1.367 . S
C445 C447 1.433 . S
C446 C442 1.350 . S
C446 C443 1.463 . S
C446 N450 1.427 . S
C447 H437 0.929 . S
C447 C445 1.433 . S
C447 N450 1.384 . S
C448 H439 0.929 . S
C448 C440 1.378 . S
C448 C443 1.350 . S
C449 H436 0.929 . S
C449 C441 1.433 . S
C449 N451 1.384 . S
N450 C446 1.427 . S
N450 C447 1.384 . S
N451 C443 1.427 . S
N451 C449 1.384 . S
H452 C458 0.930 1_554 S
H453 C462 0.930 . S
H454 C467 0.929 . S
H455 C465 0.929 . S
H456 C460 0.929 . S
H457 C466 0.929 . S
C458 H452 0.930 1_556 S
C458 C459 1.367 1_556 S
C458 C466 1.378 . S
C459 C458 1.367 1_554 S
C459 C467 1.433 . S
C460 H456 0.929 . S
C460 C462 1.378 . S
C460 C464 1.350 . S
C461 C464 1.463 . S
C461 C466 1.350 . S
C461 N469 1.427 . S
C462 H453 0.930 . S
C462 C460 1.378 . S
C462 C463 1.367 . S
C463 C462 1.367 . S
C463 C465 1.433 . S
C464 C460 1.350 . S
C464 C461 1.463 . S
C464 N468 1.427 . S
C465 H455 0.929 . S
C465 C463 1.433 . S
C465 N468 1.384 . S
C466 H457 0.929 . S
C466 C458 1.378 . S
C466 C461 1.350 . S
C467 H454 0.929 . S
C467 C459 1.433 . S
C467 N469 1.384 1_554 S
N468 C464 1.427 . S
N468 C465 1.384 . S
N469 C461 1.427 . S
N469 C467 1.384 1_556 S
H470 C476 0.930 . S
H471 C480 0.930 . S
H472 C485 0.929 . S
H473 C483 0.929 . S
H474 C478 0.929 . S
H475 C484 0.929 . S
C476 H470 0.930 . S
C476 C477 1.367 . S
C476 C484 1.378 . S
C477 C476 1.367 . S
C477 C485 1.433 . S
C478 H474 0.929 . S
C478 C480 1.378 . S
C478 C482 1.350 . S
C479 C482 1.463 . S
C479 C484 1.350 . S
C479 N487 1.427 . S
C480 H471 0.930 . S
C480 C478 1.378 . S
C480 C481 1.367 . S
C481 C480 1.367 . S
C481 C483 1.433 . S
C482 C478 1.350 . S
C482 C479 1.463 . S
C482 N486 1.427 . S
C483 H473 0.929 . S
C483 C481 1.433 . S
C483 N486 1.384 . S
C484 H475 0.929 . S
C484 C476 1.378 . S
C484 C479 1.350 . S
C485 H472 0.929 . S
C485 C477 1.433 . S
C485 N487 1.384 . S
N486 C482 1.427 . S
N486 C483 1.384 . S
N487 C479 1.427 . S
N487 C485 1.384 . S
H488 C494 0.928 1_556 S
H489 C498 0.930 . S
H490 C503 0.929 . S
H491 C501 0.929 . S
H492 C496 0.929 . S
H493 C502 0.929 . S
C494 H488 0.928 1_554 S
C494 C495 1.367 1_554 S
C494 C502 1.378 . S
C495 C494 1.367 1_556 S
C495 C503 1.433 . S
C496 H492 0.929 . S
C496 C498 1.378 . S
C496 C500 1.350 . S
C497 C500 1.463 . S
C497 C502 1.350 . S
C497 N505 1.427 . S
C498 H489 0.930 . S
C498 C496 1.378 . S
C498 C499 1.367 . S
C499 C498 1.367 . S
C499 C501 1.433 . S
C500 C496 1.350 . S
C500 C497 1.463 . S
C500 N504 1.427 . S
C501 H491 0.929 . S
C501 C499 1.433 . S
C501 N504 1.384 . S
C502 H493 0.929 . S
C502 C494 1.378 . S
C502 C497 1.350 . S
C503 H490 0.929 . S
C503 C495 1.433 . S
C503 N505 1.384 1_556 S
N504 C500 1.427 . S
N504 C501 1.384 . S
N505 C497 1.427 . S
N505 C503 1.384 1_554 S
H506 C512 0.930 . S
H507 C516 0.930 . S
H508 C521 0.929 . S
H509 C519 0.929 . S
H510 C514 0.929 . S
H511 C520 0.929 . S
C512 H506 0.930 . S
C512 C513 1.367 . S
C512 C520 1.378 . S
C513 C512 1.367 . S
C513 C521 1.433 . S
C514 H510 0.929 . S
C514 C516 1.378 . S
C514 C518 1.350 . S
C515 C518 1.463 . S
C515 C520 1.350 . S
C515 N523 1.427 . S
C516 H507 0.930 . S
C516 C514 1.378 . S
C516 C517 1.367 . S
C517 C516 1.367 . S
C517 C519 1.433 . S
C518 C514 1.350 . S
C518 C515 1.463 . S
C518 N522 1.427 . S
C519 H509 0.929 . S
C519 C517 1.433 . S
C519 N522 1.384 . S
C520 H511 0.929 . S
C520 C512 1.378 . S
C520 C515 1.350 . S
C521 H508 0.929 . S
C521 C513 1.433 . S
C521 N523 1.384 . S
N522 C518 1.427 . S
N522 C519 1.384 . S
N523 C515 1.427 . S
N523 C521 1.384 . S
H524 C530 0.930 . S
H525 C534 0.930 . S
H526 C539 0.929 . S
H527 C537 0.929 . S
H528 C532 0.929 . S
H529 C538 0.929 . S
C530 H524 0.930 . S
C530 C531 1.367 . S
C530 C538 1.378 . S
C531 C530 1.367 . S
C531 C539 1.433 . S
C532 H528 0.929 . S
C532 C534 1.378 . S
C532 C536 1.350 . S
C533 C536 1.463 . S
C533 C538 1.350 . S
C533 N541 1.427 . S
C534 H525 0.930 . S
C534 C532 1.378 . S
C534 C535 1.367 . S
C535 C534 1.367 . S
C535 C537 1.433 . S
C536 C532 1.350 . S
C536 C533 1.463 . S
C536 N540 1.427 . S
C537 H527 0.929 . S
C537 C535 1.433 . S
C537 N540 1.384 . S
C538 H529 0.929 . S
C538 C530 1.378 . S
C538 C533 1.350 . S
C539 H526 0.929 . S
C539 C531 1.433 . S
C539 N541 1.384 . S
N540 C536 1.427 . S
N540 C537 1.384 . S
N541 C533 1.427 . S
N541 C539 1.384 . S
H542 C548 0.930 . S
H543 C552 0.930 . S
H544 C557 0.929 . S
H545 C555 0.929 . S
H546 C550 0.929 . S
H547 C556 0.929 . S
C548 H542 0.930 . S
C548 C549 1.367 . S
C548 C556 1.378 . S
C549 C548 1.367 . S
C549 C557 1.433 . S
C550 H546 0.929 . S
C550 C552 1.378 . S
C550 C554 1.350 . S
C551 C554 1.463 . S
C551 C556 1.350 . S
C551 N559 1.427 . S
C552 H543 0.930 . S
C552 C550 1.378 . S
C552 C553 1.367 . S
C553 C552 1.367 . S
C553 C555 1.433 . S
C554 C550 1.350 . S
C554 C551 1.463 . S
C554 N558 1.427 . S
C555 H545 0.929 . S
C555 C553 1.433 . S
C555 N558 1.384 . S
C556 H547 0.929 . S
C556 C548 1.378 . S
C556 C551 1.350 . S
C557 H544 0.929 . S
C557 C549 1.433 . S
C557 N559 1.384 . S
N558 C554 1.427 . S
N558 C555 1.384 . S
N559 C551 1.427 . S
N559 C557 1.384 . S
H560 C566 0.930 . S
H561 C570 0.930 . S
H562 C575 0.929 . S
H563 C573 0.929 . S
H564 C568 0.929 . S
H565 C574 0.929 . S
C566 H560 0.930 . S
C566 C567 1.367 . S
C566 C574 1.378 . S
C567 C566 1.367 . S
C567 C575 1.433 . S
C568 H564 0.929 . S
C568 C570 1.378 . S
C568 C572 1.350 . S
C569 C572 1.463 . S
C569 C574 1.350 . S
C569 N577 1.427 . S
C570 H561 0.930 . S
C570 C568 1.378 . S
C570 C571 1.367 . S
C571 C570 1.367 . S
C571 C573 1.433 . S
C572 C568 1.350 . S
C572 C569 1.463 . S
C572 N576 1.427 . S
C573 H563 0.929 . S
C573 C571 1.433 . S
C573 N576 1.384 . S
C574 H565 0.929 . S
C574 C566 1.378 . S
C574 C569 1.350 . S
C575 H562 0.929 . S
C575 C567 1.433 . S
C575 N577 1.384 . S
N576 C572 1.427 . S
N576 C573 1.384 . S
N577 C569 1.427 . S
N577 C575 1.384 . S
H578 C584 0.930 . S
H579 C588 0.930 . S
H580 C593 0.929 . S
H581 C591 0.929 . S
H582 C586 0.929 . S
H583 C592 0.929 . S
C584 H578 0.930 . S
C584 C585 1.367 . S
C584 C592 1.378 . S
C585 C584 1.367 . S
C585 C593 1.433 . S
C586 H582 0.929 . S
C586 C588 1.378 . S
C586 C590 1.350 . S
C587 C590 1.463 . S
C587 C592 1.350 . S
C587 N595 1.427 . S
C588 H579 0.930 . S
C588 C586 1.378 . S
C588 C589 1.367 . S
C589 C588 1.367 . S
C589 C591 1.433 . S
C590 C586 1.350 . S
C590 C587 1.463 . S
C590 N594 1.427 . S
C591 H581 0.929 . S
C591 C589 1.433 . S
C591 N594 1.384 . S
C592 H583 0.929 . S
C592 C584 1.378 . S
C592 C587 1.350 . S
C593 H580 0.929 . S
C593 C585 1.433 . S
C593 N595 1.384 . S
N594 C590 1.427 . S
N594 C591 1.384 . S
N595 C587 1.427 . S
N595 C593 1.384 . S
H596 C602 0.930 . S
H597 C606 0.930 . S
H598 C611 0.929 . S
H599 C609 0.929 . S
H600 C604 0.929 . S
H601 C610 0.929 . S
C602 H596 0.930 . S
C602 C603 1.367 . S
C602 C610 1.378 . S
C603 C602 1.367 . S
C603 C611 1.433 . S
C604 H600 0.929 . S
C604 C606 1.378 . S
C604 C608 1.350 . S
C605 C608 1.463 . S
C605 C610 1.350 . S
C605 N613 1.427 . S
C606 H597 0.930 . S
C606 C604 1.378 . S
C606 C607 1.367 . S
C607 C606 1.367 . S
C607 C609 1.433 . S
C608 C604 1.350 . S
C608 C605 1.463 . S
C608 N612 1.427 . S
C609 H599 0.929 . S
C609 C607 1.433 . S
C609 N612 1.384 . S
C610 H601 0.929 . S
C610 C602 1.378 . S
C610 C605 1.350 . S
C611 H598 0.929 . S
C611 C603 1.433 . S
C611 N613 1.384 . S
N612 C608 1.427 . S
N612 C609 1.384 . S
N613 C605 1.427 . S
N613 C611 1.384 . S
H614 C620 0.930 . S
H615 C624 0.930 . S
H616 C629 0.929 . S
H617 C627 0.929 . S
H618 C622 0.929 . S
H619 C628 0.929 . S
C620 H614 0.930 . S
C620 C621 1.367 . S
C620 C628 1.378 . S
C621 C620 1.367 . S
C621 C629 1.433 . S
C622 H618 0.929 . S
C622 C624 1.378 . S
C622 C626 1.350 . S
C623 C626 1.463 . S
C623 C628 1.350 . S
C623 N631 1.427 . S
C624 H615 0.930 . S
C624 C622 1.378 . S
C624 C625 1.367 . S
C625 C624 1.367 . S
C625 C627 1.433 . S
C626 C622 1.350 . S
C626 C623 1.463 . S
C626 N630 1.427 . S
C627 H617 0.929 . S
C627 C625 1.433 . S
C627 N630 1.384 . S
C628 H619 0.929 . S
C628 C620 1.378 . S
C628 C623 1.350 . S
C629 H616 0.929 . S
C629 C621 1.433 . S
C629 N631 1.384 . S
N630 C626 1.427 . S
N630 C627 1.384 . S
N631 C623 1.427 . S
N631 C629 1.384 . S
H632 C638 0.930 . S
H633 C642 0.930 . S
H634 C647 0.929 . S
H635 C645 0.929 . S
H636 C640 0.929 . S
H637 C646 0.929 . S
C638 H632 0.930 . S
C638 C639 1.367 . S
C638 C646 1.378 . S
C639 C638 1.367 . S
C639 C647 1.433 . S
C640 H636 0.929 . S
C640 C642 1.378 . S
C640 C644 1.350 . S
C641 C644 1.463 . S
C641 C646 1.350 . S
C641 N649 1.427 . S
C642 H633 0.930 . S
C642 C640 1.378 . S
C642 C643 1.367 . S
C643 C642 1.367 . S
C643 C645 1.433 . S
C644 C640 1.350 . S
C644 C641 1.463 . S
C644 N648 1.427 . S
C645 H635 0.929 . S
C645 C643 1.433 . S
C645 N648 1.384 . S
C646 H637 0.929 . S
C646 C638 1.378 . S
C646 C641 1.350 . S
C647 H634 0.929 . S
C647 C639 1.433 . S
C647 N649 1.384 . S
N648 C644 1.427 . S
N648 C645 1.384 . S
N649 C641 1.427 . S
N649 C647 1.384 . S
H650 C656 0.930 . S
H651 C660 0.930 . S
H652 C665 0.929 . S
H653 C663 0.929 . S
H654 C658 0.929 . S
H655 C664 0.929 . S
C656 H650 0.930 . S
C656 C657 1.367 . S
C656 C664 1.378 . S
C657 C656 1.367 . S
C657 C665 1.433 . S
C658 H654 0.929 . S
C658 C660 1.378 . S
C658 C662 1.350 . S
C659 C662 1.463 . S
C659 C664 1.350 . S
C659 N667 1.427 . S
C660 H651 0.930 . S
C660 C658 1.378 . S
C660 C661 1.367 . S
C661 C660 1.367 . S
C661 C663 1.433 . S
C662 C658 1.350 . S
C662 C659 1.463 . S
C662 N666 1.427 . S
C663 H653 0.929 . S
C663 C661 1.433 . S
C663 N666 1.384 . S
C664 H655 0.929 . S
C664 C656 1.378 . S
C664 C659 1.350 . S
C665 H652 0.929 . S
C665 C657 1.433 . S
C665 N667 1.384 . S
N666 C662 1.427 . S
N666 C663 1.384 . S
N667 C659 1.427 . S
N667 C665 1.384 . S
C243 C116 1.446 . S
C247 C168 1.378 . S
C265 C176 1.388 . S
C261 C135 1.436 . S
C283 C180 1.381 . S
C279 C78 1.447 . S
C297 C97 1.438 . S
C301 C156 1.390 . S
C319 C197 1.382 . S
C315 C40 1.449 . S
C337 C231 1.398 . S
C333 C59 1.434 . S
C351 C2 1.445 . S
C355 C219 1.383 . S
C369 C21 1.446 . S
C373 C201 1.368 . S
C391 C155 1.415 . S
C387 C25 1.547 . S
C409 C189 1.408 . S
C405 C6 1.547 . S
C427 C193 1.398 . S
C423 C63 1.541 . S
C445 C171 1.398 . S
C441 C44 1.543 . S
C463 C210 1.412 . S
C459 C101 1.549 . S
C477 C82 1.548 . S
C481 C218 1.403 . S
C499 C234 1.403 . S
C495 C139 1.546 . S
C513 C120 1.545 . S
C517 C214 1.397 . S
C535 C159 1.383 . S
C531 C11 1.385 . S
C553 C177 1.388 . S
C549 C30 1.382 . S
C567 C49 1.381 . S
C571 C192 1.386 . S
C589 C172 1.396 . S
C585 C68 1.377 . S
C607 C198 1.374 . S
C603 C87 1.431 . S
C621 C106 1.422 . S
C625 C222 1.395 . S
C639 C125 1.425 . S
C643 C235 1.375 . S
C657 C144 1.419 . S
C661 C213 1.394 . S
