# Generated by pormake.
# Topology rtl, (3,6)-cn, num edge types: 1
# Building blocks:
#     Node 0, Type 0, BuildingBlock: MIDCAF_clean_linker_0, # of connection points: 3
#     Node 1, Type 0, BuildingBlock: MIDCAF_clean_linker_0, # of connection points: 3
#     Node 2, Type 0, BuildingBlock: MIDCAF_clean_linker_0, # of connection points: 3
#     Node 3, Type 0, BuildingBlock: MIDCAF_clean_linker_0, # of connection points: 3
#     Node 4, Type 1, BuildingBlock: CIFDUS_clean_sbu_1, # of connection points: 6
#     Node 5, Type 1, BuildingBlock: CIFDUS_clean_sbu_1, # of connection points: 6
#     Edge 6, Type (0, 1), BuildingBlock: ZUJKAS_clean_linker_0, # of connection points: 2
#     Edge 7, Type (0, 1), BuildingBlock: ZUJKAS_clean_linker_0, # of connection points: 2
#     Edge 8, Type (0, 1), BuildingBlock: ZUJKAS_clean_linker_0, # of connection points: 2
#     Edge 9, Type (0, 1), BuildingBlock: ZUJKAS_clean_linker_0, # of connection points: 2
#     Edge 10, Type (0, 1), BuildingBlock: ZUJKAS_clean_linker_0, # of connection points: 2
#     Edge 11, Type (0, 1), BuildingBlock: ZUJKAS_clean_linker_0, # of connection points: 2
#     Edge 12, Type (0, 1), BuildingBlock: ZUJKAS_clean_linker_0, # of connection points: 2
#     Edge 13, Type (0, 1), BuildingBlock: ZUJKAS_clean_linker_0, # of connection points: 2
#     Edge 14, Type (0, 1), BuildingBlock: ZUJKAS_clean_linker_0, # of connection points: 2
#     Edge 15, Type (0, 1), BuildingBlock: ZUJKAS_clean_linker_0, # of connection points: 2
#     Edge 16, Type (0, 1), BuildingBlock: ZUJKAS_clean_linker_0, # of connection points: 2
#     Edge 17, Type (0, 1), BuildingBlock: ZUJKAS_clean_linker_0, # of connection points: 2
# Relax obj value: 0.029
# Max RMSD: 0.064
# Mean RMSD: 0.049
data_MOF--net-rtl--node1-CIFDUS_clean_sbu_1--node2-MIDCAF_clean_linker_0--edge1-ZUJKAS_clean_linker_0
_symmetry_space_group_name_H-M    P1
_symmetry_Int_Tables_number       1
_symmetry_cell_setting            triclinic
loop_
_symmetry_equiv_pos_as_xyz
'x, y, z'
_cell_length_a     46.150716
_cell_length_b     52.490443
_cell_length_c     36.720951
_cell_angle_alpha  89.877394
_cell_angle_beta   97.665602
_cell_angle_gamma 89.9767
loop_
_atom_site_label
_atom_site_type_symbol
_atom_site_fract_x
_atom_site_fract_y
_atom_site_fract_z
_atom_type_partial_charge
C0 C 0.22223 0.94174 0.18338 0.0
C1 C 0.23448 0.93472 0.21914 0.0
C2 C 0.26013 0.91983 0.22338 0.0
C3 C 0.27288 0.91191 0.19268 0.0
H4 H 0.33401 0.8592 0.15696 0.0
H5 H 0.3644 0.82105 0.15983 0.0
H6 H 0.34466 0.81277 0.04199 0.0
H7 H 0.31565 0.85128 0.03902 0.0
H8 H 0.27651 0.88875 0.99269 0.0
H9 H 0.25141 0.90145 0.93292 0.0
H10 H 0.21385 0.96597 0.9823 0.0
H11 H 0.2389 0.95325 0.04259 0.0
H12 H 0.22464 0.93967 0.12583 0.0
H13 H 0.20221 0.95271 0.17873 0.0
H14 H 0.27051 0.91434 0.25046 0.0
H15 H 0.29247 0.90033 0.19697 0.0
N16 N 0.29265 0.89029 0.12653 0.0
N17 N 0.29183 0.89086 0.06249 0.0
N18 N 0.26282 0.91954 0.09034 0.0
C19 C 0.30228 0.88078 0.09578 0.0
C20 C 0.27228 0.91033 0.05948 0.0
C21 C 0.27285 0.90971 0.12398 0.0
C22 C 0.32219 0.85835 0.09781 0.0
C23 C 0.33639 0.84934 0.13164 0.0
C24 C 0.35371 0.8273 0.13328 0.0
C25 C 0.357 0.8135 0.10118 0.0
C26 C 0.34323 0.82292 0.06731 0.0
C27 C 0.32627 0.84506 0.06564 0.0
C28 C 0.25947 0.91977 0.02265 0.0
C29 C 0.26318 0.9058 0.99096 0.0
C30 C 0.24868 0.91299 0.95666 0.0
C31 C 0.23038 0.93448 0.95306 0.0
C32 C 0.2278 0.94928 0.98431 0.0
C33 C 0.24205 0.9419 0.01883 0.0
C34 C 0.26043 0.91887 0.15698 0.0
C35 C 0.23509 0.93408 0.15283 0.0
C36 C 0.70019 0.59902 0.47887 0.0
C37 C 0.70502 0.61165 0.44643 0.0
C38 C 0.7253 0.63175 0.44875 0.0
C39 C 0.73957 0.6397 0.48281 0.0
H40 H 0.78825 0.6977 0.52904 0.0
H41 H 0.81842 0.7357 0.53038 0.0
H42 H 0.83858 0.72916 0.64821 0.0
H43 H 0.80818 0.69087 0.64709 0.0
H44 H 0.75068 0.66135 0.68444 0.0
H45 H 0.72896 0.64582 0.73759 0.0
H46 H 0.69896 0.57827 0.67712 0.0
H47 H 0.72063 0.59353 0.62436 0.0
H48 H 0.70946 0.59733 0.5375 0.0
H49 H 0.68463 0.58352 0.47804 0.0
H50 H 0.7299 0.64156 0.42419 0.0
H51 H 0.75457 0.6556 0.48347 0.0
N52 N 0.76539 0.65806 0.55397 0.0
N53 N 0.76715 0.65892 0.61817 0.0
N54 N 0.73834 0.62851 0.58322 0.0
C55 C 0.7759 0.66858 0.5869 0.0
C56 C 0.74839 0.63876 0.61648 0.0
C57 C 0.74668 0.638 0.55183 0.0
C58 C 0.79551 0.69119 0.58803 0.0
C59 C 0.79914 0.70417 0.55534 0.0
C60 C 0.81637 0.72609 0.55605 0.0
C61 C 0.83073 0.73557 0.5894 0.0
C62 C 0.82787 0.72227 0.62204 0.0
C63 C 0.8103 0.70041 0.62141 0.0
C64 C 0.73736 0.62876 0.65 0.0
C65 C 0.73972 0.64306 0.68262 0.0
C66 C 0.72709 0.63427 0.71299 0.0
C67 C 0.71217 0.61083 0.71158 0.0
C68 C 0.71052 0.59627 0.6793 0.0
C69 C 0.72284 0.60515 0.64892 0.0
C70 C 0.7338 0.62784 0.51547 0.0
C71 C 0.71435 0.60706 0.51301 0.0
C72 C 0.80513 0.09747 0.90725 0.0
C73 C 0.80332 0.11204 0.8749 0.0
C74 C 0.78953 0.13599 0.87393 0.0
C75 C 0.77795 0.1452 0.90478 0.0
H76 H 0.70986 0.19202 0.94085 0.0
H77 H 0.67819 0.22926 0.93896 0.0
H78 H 0.69931 0.23747 0.05662 0.0
H79 H 0.72993 0.19977 0.05864 0.0
H80 H 0.75479 0.14772 0.10367 0.0
H81 H 0.77804 0.13164 0.16298 0.0
H82 H 0.84132 0.09105 0.10857 0.0
H83 H 0.81832 0.10697 0.04944 0.0
H84 H 0.79611 0.09507 0.96268 0.0
H85 H 0.81589 0.07908 0.90902 0.0
H86 H 0.78767 0.14758 0.84929 0.0
H87 H 0.76771 0.16381 0.90331 0.0
N88 N 0.75117 0.161 0.96974 0.0
N89 N 0.75315 0.15972 0.03402 0.0
N90 N 0.78025 0.13053 0.00424 0.0
C91 C 0.74254 0.17046 1.00114 0.0
C92 C 0.77201 0.13973 0.03578 0.0
C93 C 0.76999 0.14093 0.97115 0.0
C94 C 0.7226 0.19284 0.99986 0.0
C95 C 0.70766 0.20171 0.96634 0.0
C96 C 0.68958 0.22323 0.96525 0.0
C97 C 0.68616 0.23665 0.9976 0.0
C98 C 0.7009 0.22755 0.03115 0.0
C99 C 0.71872 0.20591 0.03228 0.0
C100 C 0.78477 0.12884 0.07172 0.0
C101 C 0.77356 0.13526 0.1043 0.0
C102 C 0.78675 0.12594 0.13827 0.0
C103 C 0.81161 0.11025 0.1404 0.0
C104 C 0.8224 0.10337 0.10781 0.0
C105 C 0.80907 0.11243 0.07388 0.0
C106 C 0.78033 0.13079 0.9374 0.0
C107 C 0.79392 0.10676 0.93812 0.0
C108 C 0.29251 0.44057 0.60506 0.0
C109 C 0.28038 0.43378 0.63688 0.0
C110 C 0.25455 0.4192 0.63296 0.0
C111 C 0.24193 0.41072 0.59835 0.0
H112 H 0.19652 0.34857 0.55116 0.0
H113 H 0.16721 0.31009 0.54777 0.0
H114 H 0.15384 0.31567 0.42926 0.0
H115 H 0.18418 0.35377 0.4326 0.0
H116 H 0.22253 0.39688 0.39312 0.0
H117 H 0.24376 0.41203 0.33956 0.0
H118 H 0.31365 0.44804 0.41136 0.0
H119 H 0.29201 0.43384 0.46439 0.0
H120 H 0.29019 0.43746 0.54677 0.0
H121 H 0.31257 0.45147 0.60689 0.0
H122 H 0.24418 0.41406 0.6567 0.0
H123 H 0.22239 0.39912 0.59648 0.0
N124 N 0.22295 0.38705 0.52753 0.0
N125 N 0.22319 0.38567 0.46362 0.0
N126 N 0.2527 0.41506 0.49948 0.0
C127 C 0.21306 0.37656 0.49433 0.0
C128 C 0.24306 0.40496 0.46605 0.0
C129 C 0.24268 0.40638 0.53031 0.0
C130 C 0.19301 0.35426 0.49213 0.0
C131 C 0.18722 0.34175 0.52431 0.0
C132 C 0.17017 0.31965 0.52238 0.0
C133 C 0.15817 0.30953 0.48821 0.0
C134 C 0.16318 0.32253 0.45605 0.0
C135 C 0.18046 0.34454 0.45798 0.0
C136 C 0.25545 0.41419 0.43312 0.0
C137 C 0.24236 0.40813 0.3974 0.0
C138 C 0.25464 0.41672 0.36668 0.0
C139 C 0.28044 0.43138 0.37098 0.0
C140 C 0.29346 0.43732 0.40678 0.0
C141 C 0.28107 0.42899 0.43735 0.0
C142 C 0.25465 0.41685 0.56674 0.0
C143 C 0.27974 0.43234 0.57046 0.0
O144 O 0.98792 0.03014 0.50287 0.0
Mn145 Mn 0.0144 0.01435 0.54805 0.0
O146 O 0.98114 0.99873 0.46073 0.0
Mn147 Mn 0.00181 0.9737 0.48875 0.0
O148 O 0.04187 0.99582 0.59209 0.0
O149 O 0.02941 0.05218 0.55873 0.0
Mn150 Mn 0.03302 0.04649 0.60735 0.0
O151 O 0.9793 0.01904 0.57884 0.0
O152 O 0.06443 0.02727 0.62367 0.0
O153 O 0.04912 0.00958 0.5159 0.0
O154 O 0.04121 0.97234 0.48653 0.0
O155 O 0.04243 0.07857 0.60696 0.0
O156 O 0.99918 0.04118 0.62721 0.0
C157 C 0.98428 0.95703 0.53324 0.0
C158 C 0.97738 0.0215 0.47109 0.0
C159 C 0.06274 0.00408 0.61583 0.0
C160 C 0.03846 0.07486 0.57176 0.0
C161 C 0.97763 0.02975 0.6098 0.0
C162 C 0.05751 0.99115 0.49657 0.0
O163 O 0.99711 0.97919 0.53503 0.0
O164 O 0.983 0.94541 0.502 0.0
O165 O 0.52486 0.532 0.0864 0.0
Mn166 Mn 0.49794 0.51531 0.04141 0.0
O167 O 0.54023 0.49959 0.12403 0.0
Mn168 Mn 0.51587 0.47593 0.09945 0.0
O169 O 0.47152 0.49759 0.99713 0.0
O170 O 0.47855 0.55115 0.03177 0.0
Mn171 Mn 0.47662 0.55204 0.98306 0.0
O172 O 0.53141 0.52284 0.00817 0.0
O173 O 0.45137 0.52847 0.96044 0.0
O174 O 0.46448 0.50842 0.07426 0.0
O175 O 0.47817 0.47494 0.11022 0.0
O176 O 0.46133 0.58197 0.99202 0.0
O177 O 0.51286 0.55302 0.96864 0.0
C178 C 0.52829 0.45671 0.05478 0.0
C179 C 0.54052 0.52297 0.11526 0.0
C180 C 0.45391 0.50525 0.96924 0.0
C181 C 0.4663 0.57378 0.02563 0.0
C182 C 0.53372 0.53873 0.98189 0.0
C183 C 0.45946 0.49155 0.09801 0.0
O184 O 0.51643 0.47952 0.05144 0.0
O185 O 0.5319 0.44657 0.08728 0.0
H186 H 0.12029 0.29207 0.53458 0.0
H187 H 0.09623 0.25061 0.53379 0.0
H188 H 0.13263 0.23046 0.43554 0.0
H189 H 0.15817 0.27121 0.43727 0.0
H190 H 0.05602 0.22741 0.48419 0.0
H191 H 0.15905 0.1712 0.50169 0.0
H192 H 0.15852 0.20527 0.5077 0.0
H193 H 0.15471 0.19184 0.46231 0.0
C194 C 0.12351 0.27875 0.51299 0.0
C195 C 0.14153 0.28503 0.48621 0.0
C196 C 0.10946 0.2551 0.51238 0.0
C197 C 0.113 0.23718 0.48495 0.0
C198 C 0.13005 0.24371 0.45743 0.0
H199 H 0.04247 0.07836 0.49619 0.0
H200 H 0.05729 0.11679 0.46369 0.0
C201 C 0.14433 0.26726 0.45819 0.0
C202 C 0.09924 0.21157 0.4858 0.0
H203 H 0.11511 0.14814 0.49707 0.0
C204 C 0.06891 0.21006 0.4863 0.0
C205 C 0.11604 0.18885 0.48873 0.0
C206 C 0.1489 0.18926 0.49043 0.0
C207 C 0.05517 0.18664 0.49108 0.0
C208 C 0.07207 0.16411 0.49521 0.0
C209 C 0.1021 0.16537 0.49283 0.0
C210 C 0.06077 0.14101 0.51176 0.0
C211 C 0.02288 0.18626 0.494 0.0
C212 C 0.05769 0.14213 0.54896 0.0
C213 C 0.04936 0.12078 0.5671 0.0
C214 C 0.04412 0.09726 0.54885 0.0
C215 C 0.0464 0.09609 0.51105 0.0
C216 C 0.05491 0.11794 0.49258 0.0
H217 H 0.01168 0.20358 0.48167 0.0
H218 H 0.01242 0.16911 0.48031 0.0
H219 H 0.01974 0.18549 0.52343 0.0
H220 H 0.06242 0.15958 0.56437 0.0
H221 H 0.04772 0.12285 0.59609 0.0
H222 H 0.36078 0.77686 0.1553 0.0
H223 H 0.38492 0.73558 0.15649 0.0
H224 H 0.41221 0.7514 0.05089 0.0
H225 H 0.39021 0.79357 0.05083 0.0
H226 H 0.37202 0.6975 0.11535 0.0
H227 H 0.48597 0.72168 0.09986 0.0
H228 H 0.45994 0.74552 0.10966 0.0
H229 H 0.46141 0.73531 0.06307 0.0
C230 C 0.37271 0.77202 0.13281 0.0
C231 C 0.37345 0.78882 0.103 0.0
C232 C 0.38631 0.74817 0.13337 0.0
C233 C 0.40084 0.7403 0.10404 0.0
C234 C 0.4019 0.7571 0.07439 0.0
H235 H 0.41203 0.59095 0.02268 0.0
H236 H 0.39771 0.63067 0.04814 0.0
C237 C 0.38872 0.78115 0.07408 0.0
C238 C 0.41248 0.71377 0.10305 0.0
H239 H 0.47078 0.67865 0.08331 0.0
C240 C 0.39385 0.69347 0.10902 0.0
C241 C 0.44115 0.70821 0.09554 0.0
C242 C 0.46334 0.72888 0.0921 0.0
C243 C 0.4025 0.66799 0.10616 0.0
C244 C 0.43021 0.6624 0.09543 0.0
C245 C 0.44942 0.68267 0.09119 0.0
C246 C 0.43822 0.63615 0.08447 0.0
C247 C 0.38154 0.64743 0.11466 0.0
C248 C 0.46609 0.62556 0.09588 0.0
C249 C 0.47471 0.60272 0.0803 0.0
C250 C 0.45542 0.59011 0.05344 0.0
C251 C 0.42701 0.5998 0.04424 0.0
C252 C 0.41875 0.62269 0.05888 0.0
H253 H 0.36873 0.65371 0.13659 0.0
H254 H 0.36567 0.64365 0.08979 0.0
H255 H 0.39303 0.62945 0.12363 0.0
H256 H 0.4817 0.63563 0.11532 0.0
H257 H 0.49707 0.59619 0.08687 0.0
H258 H 0.88524 0.74584 0.62639 0.0
H259 H 0.9126 0.78609 0.62717 0.0
H260 H 0.84186 0.82003 0.55471 0.0
H261 H 0.81449 0.78004 0.5537 0.0
H262 H 0.92529 0.81592 0.55687 0.0
H263 H 0.8607 0.86769 0.65084 0.0
H264 H 0.8636 0.83334 0.65064 0.0
H265 H 0.84081 0.84936 0.61429 0.0
C266 C 0.87549 0.76194 0.6108 0.0
C267 C 0.84767 0.75977 0.59003 0.0
C268 C 0.89117 0.78484 0.61115 0.0
C269 C 0.8791 0.80606 0.59127 0.0
C270 C 0.85145 0.80392 0.57045 0.0
H271 H 0.92641 0.95766 0.53717 0.0
H272 H 0.90055 0.92093 0.55833 0.0
C273 C 0.83593 0.78101 0.56974 0.0
C274 C 0.89536 0.83049 0.59183 0.0
H275 H 0.895 0.89189 0.62277 0.0
C276 C 0.91897 0.83246 0.57164 0.0
C277 C 0.88675 0.85207 0.61073 0.0
C278 C 0.86168 0.85068 0.6331 0.0
C279 C 0.93379 0.85567 0.5691 0.0
C280 C 0.92533 0.87732 0.58823 0.0
C281 C 0.90176 0.87526 0.60859 0.0
C282 C 0.93965 0.90251 0.58514 0.0
C283 C 0.95757 0.85708 0.54463 0.0
C284 C 0.96983 0.90546 0.59595 0.0
C285 C 0.98458 0.92668 0.58427 0.0
C286 C 0.96931 0.94527 0.56186 0.0
C287 C 0.93863 0.94391 0.5552 0.0
C288 C 0.92387 0.92268 0.56678 0.0
H289 H 0.9569 0.84058 0.52563 0.0
H290 H 0.95565 0.87487 0.52804 0.0
H291 H 0.97921 0.85711 0.56189 0.0
H292 H 0.98237 0.89034 0.6107 0.0
H293 H 0.00826 0.92696 0.58904 0.0
H294 H 0.67932 0.27384 0.94412 0.0
H295 H 0.65069 0.31309 0.94312 0.0
H296 H 0.62389 0.29328 0.04751 0.0
H297 H 0.6515 0.25348 0.04828 0.0
H298 H 0.5869 0.31918 0.95075 0.0
H299 H 0.66333 0.36646 0.05977 0.0
H300 H 0.67415 0.33992 0.03335 0.0
H301 H 0.65226 0.33455 0.0695 0.0
C302 C 0.66698 0.2775 0.96665 0.0
C303 C 0.66794 0.26033 0.99636 0.0
C304 C 0.65076 0.3001 0.96609 0.0
C305 C 0.63541 0.30622 0.99538 0.0
C306 C 0.6359 0.28907 0.02483 0.0
H307 H 0.50253 0.41374 0.02846 0.0
H308 H 0.52882 0.37774 0.00715 0.0
C309 C 0.65188 0.26635 0.02528 0.0
C310 C 0.61917 0.33068 0.99541 0.0
H311 H 0.61861 0.38752 0.04032 0.0
C312 C 0.59389 0.33424 0.97011 0.0
C313 C 0.62856 0.35041 0.02034 0.0
C314 C 0.65617 0.34789 0.04718 0.0
C315 C 0.57724 0.35676 0.9698 0.0
C316 C 0.58598 0.3762 0.9957 0.0
C317 C 0.61183 0.37281 0.02029 0.0
C318 C 0.5677 0.39924 1.00001 0.0
C319 C 0.55048 0.35941 0.94162 0.0
C320 C 0.58018 0.42378 1.00213 0.0
C321 C 0.56495 0.44456 0.01445 0.0
C322 C 0.537 0.44113 0.02479 0.0
C323 C 0.52358 0.41716 0.01933 0.0
C324 C 0.5388 0.39642 0.00741 0.0
H325 H 0.55273 0.34814 0.91657 0.0
H326 H 0.53121 0.35192 0.95334 0.0
H327 H 0.54625 0.3796 0.93355 0.0
H328 H 0.60249 0.4265 0.99677 0.0
H329 H 0.57624 0.46255 0.01963 0.0
H330 H 0.22984 0.90753 0.28244 0.0
H331 H 0.20424 0.91989 0.33399 0.0
H332 H 0.17976 0.99128 0.28054 0.0
H333 H 0.20618 0.97972 0.22959 0.0
H334 H 0.21145 0.97495 0.37697 0.0
H335 H 0.10231 0.94663 0.30484 0.0
H336 H 0.13566 0.93131 0.29572 0.0
H337 H 0.12734 0.96293 0.27903 0.0
C338 C 0.21952 0.92608 0.28184 0.0
C339 C 0.22007 0.94254 0.25154 0.0
C340 C 0.20474 0.93302 0.31128 0.0
C341 C 0.19004 0.95642 0.31091 0.0
C342 C 0.19087 0.97307 0.28119 0.0
H343 H 0.06951 0.02494 0.44488 0.0
H344 H 0.10447 0.01817 0.40087 0.0
C345 C 0.20582 0.96628 0.25193 0.0
C346 C 0.1731 0.9633 0.34105 0.0
H347 H 0.10345 0.96625 0.3627 0.0
C348 C 0.18786 0.97301 0.37398 0.0
C349 C 0.14236 0.96073 0.33693 0.0
C350 C 0.12577 0.94974 0.30236 0.0
C351 C 0.17251 0.9805 0.40285 0.0
C352 C 0.14175 0.97809 0.39865 0.0
C353 C 0.12704 0.96829 0.36571 0.0
C354 C 0.12437 0.98482 0.42849 0.0
C355 C 0.1891 0.99123 0.43755 0.0
C356 C 0.12456 0.96875 0.4591 0.0
C357 C 0.10458 0.97256 0.4841 0.0
C358 C 0.08446 0.99279 0.4793 0.0
C359 C 0.08554 0.00982 0.44997 0.0
C360 C 0.10519 0.00574 0.42456 0.0
H361 H 0.2122 0.99554 0.43442 0.0
H362 H 0.17839 0.00891 0.44564 0.0
H363 H 0.18886 0.97721 0.46017 0.0
H364 H 0.1389 0.95231 0.46236 0.0
H365 H 0.1035 0.9587 0.50579 0.0
H366 H 0.67851 0.63834 0.75348 0.0
H367 H 0.65243 0.62275 0.80308 0.0
H368 H 0.68599 0.54718 0.78971 0.0
H369 H 0.71238 0.56265 0.74045 0.0
H370 H 0.60939 0.58243 0.79692 0.0
H371 H 0.70478 0.56136 0.90191 0.0
H372 H 0.70706 0.58239 0.86339 0.0
H373 H 0.70645 0.54849 0.85687 0.0
C374 C 0.68071 0.61849 0.76149 0.0
C375 C 0.69761 0.60175 0.74307 0.0
C376 C 0.66565 0.60958 0.78966 0.0
C377 C 0.66749 0.58385 0.80031 0.0
C378 C 0.68456 0.56716 0.78226 0.0
H379 H 0.56797 0.50208 0.95448 0.0
H380 H 0.60295 0.51037 0.91034 0.0
C381 C 0.69944 0.576 0.75393 0.0
C382 C 0.65073 0.57429 0.82938 0.0
H383 H 0.65826 0.54922 0.91623 0.0
C384 C 0.62008 0.57506 0.82292 0.0
C385 C 0.66471 0.56465 0.86328 0.0
C386 C 0.69757 0.56429 0.8721 0.0
C387 C 0.60307 0.56652 0.84951 0.0
C388 C 0.61706 0.55719 0.88357 0.0
C389 C 0.64766 0.55606 0.88989 0.0
C390 C 0.6001 0.55142 0.91414 0.0
C391 C 0.57019 0.56792 0.8413 0.0
C392 C 0.5883 0.57167 0.93202 0.0
C393 C 0.56899 0.567 0.95731 0.0
C394 C 0.56089 0.54197 0.96527 0.0
C395 C 0.57428 0.5215 0.94938 0.0
C396 C 0.59391 0.52624 0.9239 0.0
H397 H 0.56273 0.57038 0.81145 0.0
H398 H 0.56002 0.55045 0.85105 0.0
H399 H 0.56225 0.58443 0.85603 0.0
H400 H 0.59291 0.59119 0.92503 0.0
H401 H 0.55876 0.58314 0.96888 0.0
H402 H 0.788 0.0904 0.199 0.0
H403 H 0.81405 0.07771 0.25909 0.0
H404 H 0.89599 0.09878 0.22322 0.0
H405 H 0.87023 0.11152 0.16336 0.0
H406 H 0.86449 0.04044 0.27237 0.0
H407 H 0.89038 0.13879 0.32244 0.0
H408 H 0.8608 0.13181 0.28644 0.0
H409 H 0.89788 0.1318 0.27665 0.0
C410 C 0.81155 0.0924 0.20405 0.0
C411 C 0.82709 0.10198 0.17654 0.0
C412 C 0.82637 0.08507 0.23824 0.0
C413 C 0.85685 0.0876 0.24558 0.0
C414 C 0.87242 0.09693 0.21812 0.0
H415 H 0.99566 0.05074 0.41782 0.0
H416 H 0.96459 0.06866 0.36425 0.0
C417 C 0.8577 0.10401 0.18389 0.0
C418 C 0.87265 0.08038 0.28185 0.0
H419 H 0.91375 0.10496 0.35794 0.0
C420 C 0.87501 0.05451 0.29131 0.0
C421 C 0.88639 0.09884 0.30629 0.0
C422 C 0.88366 0.12692 0.29774 0.0
C423 C 0.89153 0.04655 0.32426 0.0
C424 C 0.90557 0.06502 0.34851 0.0
C425 C 0.90289 0.0909 0.33926 0.0
C426 C 0.92391 0.05758 0.38304 0.0
C427 C 0.89467 0.01842 0.33243 0.0
C428 C 0.91119 0.0464 0.41182 0.0
C429 C 0.92885 0.03649 0.44246 0.0
C430 C 0.95938 0.03785 0.44478 0.0
C431 C 0.97209 0.05014 0.41689 0.0
C432 C 0.95443 0.06013 0.38627 0.0
H433 H 0.88664 0.00658 0.30813 0.0
H434 H 0.9179 0.01352 0.3417 0.0
H435 H 0.88186 0.01344 0.35496 0.0
H436 H 0.88768 0.0444 0.40984 0.0
H437 H 0.91874 0.02651 0.46334 0.0
H438 H 0.3104 0.47776 0.6585 0.0
H439 H 0.33974 0.48631 0.71773 0.0
H440 H 0.31324 0.41426 0.75914 0.0
H441 H 0.2853 0.40487 0.69967 0.0
H442 H 0.32662 0.49017 0.78792 0.0
H443 H 0.40149 0.40876 0.77728 0.0
H444 H 0.37596 0.41974 0.73897 0.0
H445 H 0.36382 0.39941 0.77345 0.0
C446 C 0.31098 0.46361 0.68008 0.0
C447 C 0.29569 0.44045 0.67399 0.0
C448 C 0.32759 0.46864 0.71404 0.0
C449 C 0.32922 0.45065 0.74258 0.0
C450 C 0.31288 0.42813 0.73721 0.0
H451 H 0.40212 0.48044 0.97091 0.0
H452 H 0.37094 0.46394 0.91636 0.0
C453 C 0.29651 0.42298 0.70325 0.0
C454 C 0.3484 0.45513 0.77775 0.0
H455 H 0.40589 0.42993 0.83489 0.0
C456 C 0.34386 0.47695 0.79827 0.0
C457 C 0.37134 0.43814 0.79083 0.0
C458 C 0.3787 0.41534 0.76882 0.0
C459 C 0.36129 0.48197 0.83184 0.0
C460 C 0.38345 0.46447 0.84549 0.0
C461 C 0.38835 0.44291 0.82474 0.0
C462 C 0.40343 0.46955 0.87969 0.0
C463 C 0.35661 0.50635 0.85195 0.0
C464 C 0.4324 0.47659 0.87737 0.0
C465 C 0.45021 0.48548 0.90841 0.0
C466 C 0.43938 0.48732 0.94225 0.0
C467 C 0.41109 0.47855 0.94526 0.0
C468 C 0.39322 0.46955 0.91408 0.0
H469 H 0.34085 0.51929 0.83553 0.0
H470 H 0.34807 0.50185 0.87807 0.0
H471 H 0.37771 0.51654 0.85892 0.0
H472 H 0.44063 0.4768 0.85107 0.0
H473 H 0.47168 0.49286 0.90533 0.0
H474 H 0.67901 0.64392 0.3935 0.0
H475 H 0.6499 0.63301 0.33509 0.0
H476 H 0.66343 0.55311 0.35934 0.0
H477 H 0.69231 0.56394 0.41817 0.0
H478 H 0.66412 0.6076 0.27637 0.0
H479 H 0.57583 0.55564 0.33362 0.0
H480 H 0.60264 0.57451 0.36196 0.0
H481 H 0.61146 0.54278 0.3485 0.0
C482 C 0.67592 0.62401 0.38633 0.0
C483 C 0.68795 0.60479 0.41051 0.0
C484 C 0.65916 0.61781 0.35299 0.0
C485 C 0.65399 0.59225 0.34304 0.0
C486 C 0.6664 0.57297 0.36682 0.0
H487 H 0.59412 0.51127 0.14942 0.0
H488 H 0.62097 0.53234 0.20268 0.0
C489 C 0.68302 0.57917 0.40037 0.0
C490 C 0.63617 0.58591 0.30741 0.0
H491 H 0.57686 0.55176 0.26892 0.0
C492 C 0.64483 0.59565 0.27482 0.0
C493 C 0.61083 0.57047 0.30531 0.0
C494 C 0.59944 0.56045 0.33924 0.0
C495 C 0.62948 0.58959 0.24026 0.0
C496 C 0.60486 0.5735 0.23824 0.0
C497 C 0.59568 0.56429 0.2707 0.0
C498 C 0.59044 0.56353 0.20272 0.0
C499 C 0.63996 0.59976 0.20592 0.0
C500 C 0.5648 0.57464 0.1844 0.0
C501 C 0.54942 0.56271 0.15342 0.0
C502 C 0.55942 0.53943 0.14097 0.0
C503 C 0.58595 0.52926 0.15836 0.0
C504 C 0.60128 0.54119 0.18885 0.0
H505 H 0.65795 0.6138 0.2121 0.0
H506 H 0.64788 0.58373 0.19021 0.0
H507 H 0.62154 0.60894 0.18809 0.0
H508 H 0.55612 0.5919 0.19492 0.0
H509 H 0.52884 0.57072 0.14088 0.0
H510 H 0.79879 0.06423 0.84523 0.0
H511 H 0.82347 0.04739 0.79526 0.0
H512 H 0.86252 0.12087 0.78229 0.0
H513 H 0.83798 0.13787 0.83236 0.0
H514 H 0.82227 0.06826 0.71764 0.0
H515 H 0.93165 0.06672 0.80251 0.0
H516 H 0.89803 0.06753 0.82268 0.0
H517 H 0.91099 0.0958 0.80257 0.0
C518 C 0.81258 0.07682 0.83166 0.0
C519 C 0.81653 0.10236 0.84282 0.0
C520 C 0.82653 0.0672 0.80305 0.0
C521 C 0.84495 0.08284 0.78534 0.0
C522 C 0.84848 0.10848 0.7958 0.0
H523 H 0.94959 0.07386 0.61334 0.0
H524 H 0.91323 0.08398 0.65374 0.0
C525 C 0.83431 0.11819 0.82421 0.0
C526 C 0.86117 0.07211 0.7567 0.0
H527 H 0.92986 0.05632 0.73959 0.0
C528 C 0.84575 0.06544 0.72246 0.0
C529 C 0.89177 0.0684 0.76321 0.0
C530 C 0.90921 0.07479 0.79977 0.0
C531 C 0.86039 0.05581 0.69418 0.0
C532 C 0.89097 0.05246 0.70058 0.0
C533 C 0.9063 0.05866 0.73501 0.0
C534 C 0.90805 0.04505 0.67093 0.0
C535 C 0.8434 0.0498 0.65728 0.0
C536 C 0.91638 0.0196 0.66633 0.0
C537 C 0.93712 0.01371 0.64284 0.0
C538 C 0.94959 0.03328 0.62397 0.0
C539 C 0.93973 0.05841 0.62697 0.0
C540 C 0.91916 0.06424 0.65022 0.0
H541 H 0.81949 0.05244 0.65702 0.0
H542 H 0.85089 0.06237 0.63604 0.0
H543 H 0.84771 0.02982 0.64966 0.0
H544 H 0.90812 0.00459 0.6824 0.0
H545 H 0.94495 0.99431 0.64161 0.0
H546 H 0.30821 0.47679 0.36188 0.0
H547 H 0.33397 0.48966 0.31083 0.0
H548 H 0.30911 0.41937 0.25491 0.0
H549 H 0.28415 0.40574 0.30646 0.0
H550 H 0.38068 0.4502 0.27991 0.0
H551 H 0.28732 0.48894 0.18374 0.0
H552 H 0.28794 0.49059 0.23301 0.0
H553 H 0.28241 0.46055 0.21011 0.0
C554 C 0.3083 0.46392 0.3389 0.0
C555 C 0.2942 0.44009 0.33856 0.0
C556 C 0.32285 0.47144 0.30962 0.0
C557 C 0.32329 0.45549 0.27918 0.0
C558 C 0.30877 0.432 0.27815 0.0
H559 H 0.41465 0.45791 0.08864 0.0
H560 H 0.37842 0.45113 0.13101 0.0
C561 C 0.29437 0.42433 0.30757 0.0
C562 C 0.34023 0.46289 0.24936 0.0
H563 H 0.33383 0.48931 0.1635 0.0
C564 C 0.37051 0.4588 0.25449 0.0
C565 C 0.32676 0.47401 0.21631 0.0
C566 C 0.29431 0.47893 0.21014 0.0
C567 C 0.38773 0.46546 0.22718 0.0
C568 C 0.37433 0.47679 0.19418 0.0
C569 C 0.344 0.48078 0.18896 0.0
C570 C 0.39178 0.4839 0.16468 0.0
C571 C 0.42013 0.46006 0.23349 0.0
C572 C 0.4103 0.50521 0.16874 0.0
C573 C 0.43052 0.50939 0.14411 0.0
C574 C 0.43255 0.49222 0.11532 0.0
C575 C 0.41291 0.47173 0.11012 0.0
C576 C 0.39242 0.46775 0.13442 0.0
H577 H 0.42647 0.44816 0.25834 0.0
H578 H 0.42698 0.45018 0.20932 0.0
H579 H 0.43228 0.47833 0.23695 0.0
H580 H 0.41023 0.51776 0.19211 0.0
H581 H 0.44607 0.52486 0.14927 0.0
H582 H 0.22393 0.9805 0.91707 0.0
H583 H 0.19574 0.98921 0.85652 0.0
H584 H 0.16897 0.91056 0.84809 0.0
H585 H 0.19709 0.9017 0.90814 0.0
H586 H 0.20326 0.95205 0.78533 0.0
H587 H 0.09288 0.96383 0.82869 0.0
H588 H 0.12585 0.97237 0.85844 0.0
H589 H 0.11701 0.93949 0.85016 0.0
C590 C 0.21187 0.96516 0.90233 0.0
C591 C 0.21286 0.94038 0.91712 0.0
C592 C 0.19587 0.97013 0.86784 0.0
C593 C 0.1803 0.95049 0.84804 0.0
C594 C 0.18086 0.92592 0.86304 0.0
H595 H 0.05262 0.95846 0.64962 0.0
H596 H 0.08354 0.94111 0.70389 0.0
C597 C 0.19704 0.92088 0.89719 0.0
C598 C 0.16422 0.95518 0.81102 0.0
H599 H 0.09585 0.96513 0.76527 0.0
C600 C 0.17978 0.95494 0.78079 0.0
C601 C 0.13361 0.95845 0.80535 0.0
C602 C 0.11614 0.95867 0.83725 0.0
C603 C 0.16546 0.95781 0.74477 0.0
C604 C 0.13475 0.96179 0.73892 0.0
C605 C 0.11925 0.96182 0.76943 0.0
C606 C 0.11866 0.96832 0.70209 0.0
C607 C 0.18355 0.95605 0.71353 0.0
C608 C 0.12855 0.98854 0.68202 0.0
C609 C 0.11156 0.99766 0.65055 0.0
C610 C 0.0836 0.98756 0.63901 0.0
C611 C 0.07427 0.96628 0.65746 0.0
C612 C 0.09175 0.95669 0.68883 0.0
H613 H 0.20253 0.94311 0.72065 0.0
H614 H 0.17051 0.94906 0.68792 0.0
H615 H 0.19241 0.97517 0.70831 0.0
H616 H 0.14854 0.99855 0.69195 0.0
H617 H 0.11918 0.0143 0.63711 0.0
loop_
_geom_bond_atom_site_label_1
_geom_bond_atom_site_label_2
_geom_bond_distance
_geom_bond_site_symmetry_2
_ccdc_geom_bond_type
C0 C1 1.384 . S
C0 H13 0.947 . S
C0 C35 1.382 . S
C1 C0 1.384 . S
C1 C2 1.378 . S
C2 C1 1.378 . S
C2 C3 1.378 . S
C2 H14 0.952 . S
C3 C2 1.378 . S
C3 H15 0.950 . S
C3 C34 1.383 . S
H4 C23 0.947 . S
H5 C24 0.946 . S
H6 C26 0.953 . S
H7 C27 0.945 . S
H8 C29 0.952 . S
H9 C30 0.949 . S
H10 C32 0.950 . S
H11 C33 0.948 . S
H12 C35 0.951 . S
H13 C0 0.947 . S
H14 C2 0.952 . S
H15 C3 0.950 . S
N16 C19 1.382 . S
N16 C21 1.363 . S
N17 C19 1.371 . S
N17 C20 1.372 . S
N18 C20 1.361 . S
N18 C21 1.377 . S
C19 N16 1.382 . S
C19 N17 1.371 . S
C19 C22 1.480 . S
C20 N17 1.372 . S
C20 N18 1.361 . S
C20 C28 1.457 . S
C21 N16 1.363 . S
C21 N18 1.377 . S
C21 C34 1.479 . S
C22 C19 1.480 . S
C22 C23 1.383 . S
C22 C27 1.385 . S
C23 H4 0.947 . S
C23 C22 1.383 . S
C23 C24 1.388 . S
C24 H5 0.946 . S
C24 C23 1.388 . S
C24 C25 1.384 . S
C25 C24 1.384 . S
C25 C26 1.377 . S
C26 H6 0.953 . S
C26 C25 1.377 . S
C26 C27 1.369 . S
C27 H7 0.945 . S
C27 C22 1.385 . S
C27 C26 1.369 . S
C28 C20 1.457 . S
C28 C29 1.372 1_554 S
C28 C33 1.364 . S
C29 H8 0.952 . S
C29 C28 1.372 1_556 S
C29 C30 1.389 . S
C30 H9 0.949 . S
C30 C29 1.389 . S
C30 C31 1.387 . S
C31 C30 1.387 . S
C31 C32 1.372 . S
C32 H10 0.950 . S
C32 C31 1.372 . S
C32 C33 1.379 1_556 S
C33 H11 0.948 . S
C33 C28 1.364 . S
C33 C32 1.379 1_554 S
C34 C3 1.383 . S
C34 C21 1.479 . S
C34 C35 1.398 . S
C35 C0 1.382 . S
C35 H12 0.951 . S
C35 C34 1.398 . S
C36 C37 1.384 . S
C36 H49 0.947 . S
C36 C71 1.382 . S
C37 C36 1.384 . S
C37 C38 1.378 . S
C38 C37 1.378 . S
C38 C39 1.378 . S
C38 H50 0.952 . S
C39 C38 1.378 . S
C39 H51 0.950 . S
C39 C70 1.383 . S
H40 C59 0.947 . S
H41 C60 0.946 . S
H42 C62 0.953 . S
H43 C63 0.945 . S
H44 C65 0.952 . S
H45 C66 0.949 . S
H46 C68 0.950 . S
H47 C69 0.948 . S
H48 C71 0.951 . S
H49 C36 0.947 . S
H50 C38 0.952 . S
H51 C39 0.950 . S
N52 C55 1.382 . S
N52 C57 1.363 . S
N53 C55 1.371 . S
N53 C56 1.372 . S
N54 C56 1.361 . S
N54 C57 1.377 . S
C55 N52 1.382 . S
C55 N53 1.371 . S
C55 C58 1.480 . S
C56 N53 1.372 . S
C56 N54 1.361 . S
C56 C64 1.457 . S
C57 N52 1.363 . S
C57 N54 1.377 . S
C57 C70 1.479 . S
C58 C55 1.480 . S
C58 C59 1.383 . S
C58 C63 1.385 . S
C59 H40 0.947 . S
C59 C58 1.383 . S
C59 C60 1.388 . S
C60 H41 0.946 . S
C60 C59 1.388 . S
C60 C61 1.384 . S
C61 C60 1.384 . S
C61 C62 1.377 . S
C62 H42 0.953 . S
C62 C61 1.377 . S
C62 C63 1.369 . S
C63 H43 0.945 . S
C63 C58 1.385 . S
C63 C62 1.369 . S
C64 C56 1.457 . S
C64 C65 1.372 . S
C64 C69 1.364 . S
C65 H44 0.952 . S
C65 C64 1.372 . S
C65 C66 1.389 . S
C66 H45 0.949 . S
C66 C65 1.389 . S
C66 C67 1.387 . S
C67 C66 1.387 . S
C67 C68 1.372 . S
C68 H46 0.950 . S
C68 C67 1.372 . S
C68 C69 1.379 . S
C69 H47 0.948 . S
C69 C64 1.364 . S
C69 C68 1.379 . S
C70 C39 1.383 . S
C70 C57 1.479 . S
C70 C71 1.398 . S
C71 C36 1.382 . S
C71 H48 0.951 . S
C71 C70 1.398 . S
C72 C73 1.384 . S
C72 H85 0.947 . S
C72 C107 1.382 . S
C73 C72 1.384 . S
C73 C74 1.378 . S
C74 C73 1.378 . S
C74 C75 1.378 . S
C74 H86 0.952 . S
C75 C74 1.378 . S
C75 H87 0.950 . S
C75 C106 1.383 . S
H76 C95 0.947 . S
H77 C96 0.946 . S
H78 C98 0.953 . S
H79 C99 0.945 . S
H80 C101 0.952 . S
H81 C102 0.949 . S
H82 C104 0.950 . S
H83 C105 0.948 . S
H84 C107 0.951 . S
H85 C72 0.947 . S
H86 C74 0.952 . S
H87 C75 0.950 . S
N88 C91 1.382 1_556 S
N88 C93 1.363 . S
N89 C91 1.371 . S
N89 C92 1.372 . S
N90 C92 1.361 . S
N90 C93 1.377 1_554 S
C91 N88 1.382 1_554 S
C91 N89 1.371 . S
C91 C94 1.480 . S
C92 N89 1.372 . S
C92 N90 1.361 . S
C92 C100 1.457 . S
C93 N88 1.363 . S
C93 N90 1.377 1_556 S
C93 C106 1.479 . S
C94 C91 1.480 . S
C94 C95 1.383 1_554 S
C94 C99 1.385 . S
C95 H76 0.947 . S
C95 C94 1.383 1_556 S
C95 C96 1.388 . S
C96 H77 0.946 . S
C96 C95 1.388 . S
C96 C97 1.384 . S
C97 C96 1.384 . S
C97 C98 1.377 1_556 S
C98 H78 0.953 . S
C98 C97 1.377 1_554 S
C98 C99 1.369 . S
C99 H79 0.945 . S
C99 C94 1.385 . S
C99 C98 1.369 . S
C100 C92 1.457 . S
C100 C101 1.372 . S
C100 C105 1.364 . S
C101 H80 0.952 . S
C101 C100 1.372 . S
C101 C102 1.389 . S
C102 H81 0.949 . S
C102 C101 1.389 . S
C102 C103 1.387 . S
C103 C102 1.387 . S
C103 C104 1.372 . S
C104 H82 0.950 . S
C104 C103 1.372 . S
C104 C105 1.379 . S
C105 H83 0.948 . S
C105 C100 1.364 . S
C105 C104 1.379 . S
C106 C75 1.383 . S
C106 C93 1.479 . S
C106 C107 1.398 . S
C107 C72 1.382 . S
C107 H84 0.951 . S
C107 C106 1.398 . S
C108 C109 1.384 . S
C108 H121 0.947 . S
C108 C143 1.382 . S
C109 C108 1.384 . S
C109 C110 1.378 . S
C110 C109 1.378 . S
C110 C111 1.378 . S
C110 H122 0.952 . S
C111 C110 1.378 . S
C111 H123 0.950 . S
C111 C142 1.383 . S
H112 C131 0.947 . S
H113 C132 0.946 . S
H114 C134 0.953 . S
H115 C135 0.945 . S
H116 C137 0.952 . S
H117 C138 0.949 . S
H118 C140 0.950 . S
H119 C141 0.948 . S
H120 C143 0.951 . S
H121 C108 0.947 . S
H122 C110 0.952 . S
H123 C111 0.950 . S
N124 C127 1.382 . S
N124 C129 1.363 . S
N125 C127 1.371 . S
N125 C128 1.372 . S
N126 C128 1.361 . S
N126 C129 1.377 . S
C127 N124 1.382 . S
C127 N125 1.371 . S
C127 C130 1.480 . S
C128 N125 1.372 . S
C128 N126 1.361 . S
C128 C136 1.457 . S
C129 N124 1.363 . S
C129 N126 1.377 . S
C129 C142 1.479 . S
C130 C127 1.480 . S
C130 C131 1.383 . S
C130 C135 1.385 . S
C131 H112 0.947 . S
C131 C130 1.383 . S
C131 C132 1.388 . S
C132 H113 0.946 . S
C132 C131 1.388 . S
C132 C133 1.384 . S
C133 C132 1.384 . S
C133 C134 1.377 . S
C134 H114 0.953 . S
C134 C133 1.377 . S
C134 C135 1.369 . S
C135 H115 0.945 . S
C135 C130 1.385 . S
C135 C134 1.369 . S
C136 C128 1.457 . S
C136 C137 1.372 . S
C136 C141 1.364 . S
C137 H116 0.952 . S
C137 C136 1.372 . S
C137 C138 1.389 . S
C138 H117 0.949 . S
C138 C137 1.389 . S
C138 C139 1.387 . S
C139 C138 1.387 . S
C139 C140 1.372 . S
C140 H118 0.950 . S
C140 C139 1.372 . S
C140 C141 1.379 . S
C141 H119 0.948 . S
C141 C136 1.364 . S
C141 C140 1.379 . S
C142 C111 1.383 . S
C142 C129 1.479 . S
C142 C143 1.398 . S
C143 C108 1.382 . S
C143 H120 0.951 . S
C143 C142 1.398 . S
O144 Mn145 2.163 1_655 S
O144 C158 1.244 . S
Mn145 O144 2.163 1_455 S
Mn145 O148 2.160 1_545 S
Mn145 O149 2.221 . S
Mn145 O151 2.163 1_455 S
Mn145 O153 2.165 . S
Mn145 O163 2.221 1_445 S
O146 Mn147 2.087 1_545 S
O146 C158 1.256 . S
Mn147 O146 2.087 1_565 S
Mn147 O154 2.089 1_655 S
Mn147 O163 2.290 . S
Mn147 O164 2.251 . S
O148 Mn145 2.160 1_565 S
O148 C159 1.238 . S
O149 Mn145 2.221 . S
O149 Mn150 2.290 . S
O149 C160 1.278 . S
Mn150 O149 2.290 . S
Mn150 O152 2.089 . S
Mn150 O155 2.251 . S
Mn150 O156 2.087 1_455 S
O151 Mn145 2.163 1_655 S
O151 C161 1.244 . S
O152 Mn150 2.089 . S
O152 C159 1.257 1_545 S
O153 Mn145 2.165 . S
O153 C162 1.233 1_545 S
O154 Mn147 2.089 1_455 S
O154 C162 1.256 . S
O155 Mn150 2.251 . S
O155 C160 1.241 . S
O156 Mn150 2.087 1_655 S
O156 C161 1.256 . S
C157 O163 1.278 . S
C157 O164 1.241 . S
C158 O144 1.244 . S
C158 O146 1.256 . S
C159 O148 1.238 . S
C159 O152 1.257 1_565 S
C160 O149 1.278 . S
C160 O155 1.241 . S
C161 O151 1.244 . S
C161 O156 1.256 . S
C162 O153 1.233 1_565 S
C162 O154 1.256 . S
O163 Mn145 2.221 1_665 S
O163 Mn147 2.290 . S
O163 C157 1.278 . S
O164 Mn147 2.251 . S
O164 C157 1.241 . S
O165 Mn166 2.163 . S
O165 C179 1.244 . S
Mn166 O165 2.163 . S
Mn166 O169 2.160 1_554 S
Mn166 O170 2.221 . S
Mn166 O172 2.163 . S
Mn166 O174 2.160 . S
Mn166 O184 2.221 . S
O167 Mn168 2.087 . S
O167 C179 1.256 . S
Mn168 O167 2.087 . S
Mn168 O175 2.089 . S
Mn168 O184 2.290 . S
Mn168 O185 2.251 . S
O169 Mn166 2.160 1_556 S
O169 C180 1.239 . S
O170 Mn166 2.221 . S
O170 Mn171 2.290 1_554 S
O170 C181 1.278 . S
Mn171 O170 2.290 1_556 S
Mn171 O173 2.089 . S
Mn171 O176 2.251 1_556 S
Mn171 O177 2.087 . S
O172 Mn166 2.163 . S
O172 C182 1.244 1_554 S
O173 Mn171 2.089 . S
O173 C180 1.256 . S
O174 Mn166 2.160 . S
O174 C183 1.239 . S
O175 Mn168 2.089 . S
O175 C183 1.256 . S
O176 Mn171 2.251 1_554 S
O176 C181 1.241 . S
O177 Mn171 2.087 . S
O177 C182 1.256 . S
C178 O184 1.278 . S
C178 O185 1.241 . S
C179 O165 1.244 . S
C179 O167 1.256 . S
C180 O169 1.239 . S
C180 O173 1.256 . S
C181 O170 1.278 . S
C181 O176 1.241 . S
C182 O172 1.244 1_556 S
C182 O177 1.256 . S
C183 O174 1.239 . S
C183 O175 1.256 . S
O184 Mn166 2.221 . S
O184 Mn168 2.290 . S
O184 C178 1.278 . S
O185 Mn168 2.251 . S
O185 C178 1.241 . S
H186 C194 0.929 . S
H187 C196 0.930 . S
H188 C198 0.930 . S
H189 C201 0.929 . S
H190 C204 0.930 . S
H191 C206 0.960 . S
H192 C206 0.960 . S
H193 C206 0.960 . S
C194 H186 0.929 . S
C194 C195 1.377 . S
C194 C196 1.384 . S
C195 C194 1.377 . S
C195 C201 1.390 . S
C196 H187 0.930 . S
C196 C194 1.384 . S
C196 C197 1.372 . S
C197 C196 1.372 . S
C197 C198 1.400 . S
C197 C202 1.490 . S
C198 H188 0.930 . S
C198 C197 1.400 . S
C198 C201 1.386 . S
H199 C215 0.930 . S
H200 C216 0.931 . S
C201 H189 0.929 . S
C201 C195 1.390 . S
C201 C198 1.386 . S
C202 C197 1.490 . S
C202 C204 1.395 . S
C202 C205 1.403 . S
H203 C209 0.930 . S
C204 H190 0.930 . S
C204 C202 1.395 . S
C204 C207 1.403 . S
C205 C202 1.403 . S
C205 C206 1.524 . S
C205 C209 1.400 . S
C206 H191 0.960 . S
C206 H192 0.960 . S
C206 H193 0.960 . S
C206 C205 1.524 . S
C207 C204 1.403 . S
C207 C208 1.392 . S
C207 C211 1.495 . S
C208 C207 1.392 . S
C208 C209 1.385 . S
C208 C210 1.478 . S
C209 H203 0.930 . S
C209 C205 1.400 . S
C209 C208 1.385 . S
C210 C208 1.478 . S
C210 C212 1.381 . S
C210 C216 1.383 . S
C211 C207 1.495 . S
C211 H217 0.959 . S
C211 H218 0.961 . S
C211 H219 0.960 . S
C212 C210 1.381 . S
C212 C213 1.394 . S
C212 H220 0.930 . S
C213 C212 1.394 . S
C213 C214 1.383 . S
C213 H221 0.929 . S
C214 C213 1.383 . S
C214 C215 1.377 . S
C215 H199 0.930 . S
C215 C214 1.377 . S
C215 C216 1.379 . S
C216 H200 0.931 . S
C216 C210 1.383 . S
C216 C215 1.379 . S
H217 C211 0.959 . S
H218 C211 0.961 . S
H219 C211 0.960 . S
H220 C212 0.930 . S
H221 C213 0.929 . S
H222 C230 0.929 . S
H223 C232 0.930 . S
H224 C234 0.930 . S
H225 C237 0.929 . S
H226 C240 0.930 . S
H227 C242 0.960 . S
H228 C242 0.960 . S
H229 C242 0.960 . S
C230 H222 0.929 . S
C230 C231 1.377 . S
C230 C232 1.384 . S
C231 C230 1.377 . S
C231 C237 1.390 . S
C232 H223 0.930 . S
C232 C230 1.384 . S
C232 C233 1.372 . S
C233 C232 1.372 . S
C233 C234 1.400 . S
C233 C238 1.490 . S
C234 H224 0.930 . S
C234 C233 1.400 . S
C234 C237 1.386 . S
H235 C251 0.930 . S
H236 C252 0.931 . S
C237 H225 0.929 . S
C237 C231 1.390 . S
C237 C234 1.386 . S
C238 C233 1.490 . S
C238 C240 1.395 . S
C238 C241 1.403 . S
H239 C245 0.930 . S
C240 H226 0.930 . S
C240 C238 1.395 . S
C240 C243 1.403 . S
C241 C238 1.403 . S
C241 C242 1.524 . S
C241 C245 1.400 . S
C242 H227 0.960 . S
C242 H228 0.960 . S
C242 H229 0.960 . S
C242 C241 1.524 . S
C243 C240 1.403 . S
C243 C244 1.392 . S
C243 C247 1.495 . S
C244 C243 1.392 . S
C244 C245 1.385 . S
C244 C246 1.478 . S
C245 H239 0.930 . S
C245 C241 1.400 . S
C245 C244 1.385 . S
C246 C244 1.478 . S
C246 C248 1.381 . S
C246 C252 1.383 . S
C247 C243 1.495 . S
C247 H253 0.959 . S
C247 H254 0.961 . S
C247 H255 0.960 . S
C248 C246 1.381 . S
C248 C249 1.394 . S
C248 H256 0.930 . S
C249 C248 1.394 . S
C249 C250 1.383 . S
C249 H257 0.929 . S
C250 C249 1.383 . S
C250 C251 1.377 . S
C251 H235 0.930 . S
C251 C250 1.377 . S
C251 C252 1.379 . S
C252 H236 0.931 . S
C252 C246 1.383 . S
C252 C251 1.379 . S
H253 C247 0.959 . S
H254 C247 0.961 . S
H255 C247 0.960 . S
H256 C248 0.930 . S
H257 C249 0.929 . S
H258 C266 0.929 . S
H259 C268 0.930 . S
H260 C270 0.930 . S
H261 C273 0.929 . S
H262 C276 0.930 . S
H263 C278 0.960 . S
H264 C278 0.960 . S
H265 C278 0.960 . S
C266 H258 0.929 . S
C266 C267 1.377 . S
C266 C268 1.384 . S
C267 C266 1.377 . S
C267 C273 1.390 . S
C268 H259 0.930 . S
C268 C266 1.384 . S
C268 C269 1.372 . S
C269 C268 1.372 . S
C269 C270 1.400 . S
C269 C274 1.490 . S
C270 H260 0.930 . S
C270 C269 1.400 . S
C270 C273 1.386 . S
H271 C287 0.930 . S
H272 C288 0.931 . S
C273 H261 0.929 . S
C273 C267 1.390 . S
C273 C270 1.386 . S
C274 C269 1.490 . S
C274 C276 1.395 . S
C274 C277 1.403 . S
H275 C281 0.930 . S
C276 H262 0.930 . S
C276 C274 1.395 . S
C276 C279 1.403 . S
C277 C274 1.403 . S
C277 C278 1.524 . S
C277 C281 1.400 . S
C278 H263 0.960 . S
C278 H264 0.960 . S
C278 H265 0.960 . S
C278 C277 1.524 . S
C279 C276 1.403 . S
C279 C280 1.392 . S
C279 C283 1.495 . S
C280 C279 1.392 . S
C280 C281 1.385 . S
C280 C282 1.478 . S
C281 H275 0.930 . S
C281 C277 1.400 . S
C281 C280 1.385 . S
C282 C280 1.478 . S
C282 C284 1.381 . S
C282 C288 1.383 . S
C283 C279 1.495 . S
C283 H289 0.959 . S
C283 H290 0.961 . S
C283 H291 0.960 . S
C284 C282 1.381 . S
C284 C285 1.394 . S
C284 H292 0.930 . S
C285 C284 1.394 . S
C285 C286 1.383 . S
C285 H293 0.929 . S
C286 C285 1.383 . S
C286 C287 1.377 . S
C287 H271 0.930 . S
C287 C286 1.377 . S
C287 C288 1.379 . S
C288 H272 0.931 . S
C288 C282 1.383 . S
C288 C287 1.379 . S
H289 C283 0.959 . S
H290 C283 0.961 . S
H291 C283 0.960 . S
H292 C284 0.930 . S
H293 C285 0.929 . S
H294 C302 0.929 . S
H295 C304 0.930 . S
H296 C306 0.930 . S
H297 C309 0.929 . S
H298 C312 0.930 . S
H299 C314 0.960 . S
H300 C314 0.960 . S
H301 C314 0.960 . S
C302 H294 0.929 . S
C302 C303 1.377 . S
C302 C304 1.384 . S
C303 C302 1.377 . S
C303 C309 1.390 1_556 S
C304 H295 0.930 . S
C304 C302 1.384 . S
C304 C305 1.372 1_556 S
C305 C304 1.372 1_554 S
C305 C306 1.400 . S
C305 C310 1.490 . S
C306 H296 0.930 . S
C306 C305 1.400 . S
C306 C309 1.386 . S
H307 C323 0.930 . S
H308 C324 0.931 . S
C309 H297 0.929 . S
C309 C303 1.390 1_554 S
C309 C306 1.386 . S
C310 C305 1.490 . S
C310 C312 1.395 1_554 S
C310 C313 1.403 . S
H311 C317 0.930 . S
C312 H298 0.930 . S
C312 C310 1.395 1_556 S
C312 C315 1.403 . S
C313 C310 1.403 . S
C313 C314 1.524 . S
C313 C317 1.400 . S
C314 H299 0.960 . S
C314 H300 0.960 . S
C314 H301 0.960 . S
C314 C313 1.524 . S
C315 C312 1.403 . S
C315 C316 1.392 1_556 S
C315 C319 1.495 . S
C316 C315 1.392 1_554 S
C316 C317 1.385 . S
C316 C318 1.478 . S
C317 H311 0.930 . S
C317 C313 1.400 . S
C317 C316 1.385 . S
C318 C316 1.478 . S
C318 C320 1.381 1_554 S
C318 C324 1.383 . S
C319 C315 1.495 . S
C319 H325 0.959 . S
C319 H326 0.961 . S
C319 H327 0.960 . S
C320 C318 1.381 1_556 S
C320 C321 1.394 . S
C320 H328 0.930 . S
C321 C320 1.394 . S
C321 C322 1.383 1_556 S
C321 H329 0.929 . S
C322 C321 1.383 1_554 S
C322 C323 1.377 . S
C323 H307 0.930 . S
C323 C322 1.377 . S
C323 C324 1.379 . S
C324 H308 0.931 . S
C324 C318 1.383 . S
C324 C323 1.379 . S
H325 C319 0.959 . S
H326 C319 0.961 . S
H327 C319 0.960 . S
H328 C320 0.930 . S
H329 C321 0.929 . S
H330 C338 0.929 . S
H331 C340 0.930 . S
H332 C342 0.930 . S
H333 C345 0.929 . S
H334 C348 0.930 . S
H335 C350 0.960 . S
H336 C350 0.960 . S
H337 C350 0.960 . S
C338 H330 0.929 . S
C338 C339 1.377 . S
C338 C340 1.384 . S
C339 C338 1.377 . S
C339 C345 1.390 . S
C340 H331 0.930 . S
C340 C338 1.384 . S
C340 C341 1.372 . S
C341 C340 1.372 . S
C341 C342 1.400 . S
C341 C346 1.490 . S
C342 H332 0.930 . S
C342 C341 1.400 . S
C342 C345 1.386 . S
H343 C359 0.955 . S
H344 C360 0.931 1_545 S
C345 H333 0.929 . S
C345 C339 1.390 . S
C345 C342 1.386 . S
C346 C341 1.490 . S
C346 C348 1.395 . S
C346 C349 1.403 . S
H347 C353 0.930 . S
C348 H334 0.930 . S
C348 C346 1.395 . S
C348 C351 1.403 . S
C349 C346 1.403 . S
C349 C350 1.524 . S
C349 C353 1.400 . S
C350 H335 0.960 . S
C350 H336 0.960 . S
C350 H337 0.960 . S
C350 C349 1.524 . S
C351 C348 1.403 . S
C351 C352 1.392 . S
C351 C355 1.495 . S
C352 C351 1.392 . S
C352 C353 1.385 . S
C352 C354 1.478 . S
C353 H347 0.930 . S
C353 C349 1.400 . S
C353 C352 1.385 . S
C354 C352 1.478 . S
C354 C356 1.381 . S
C354 C360 1.383 . S
C355 C351 1.495 . S
C355 H361 0.959 . S
C355 H362 0.961 1_565 S
C355 H363 0.960 . S
C356 C354 1.381 . S
C356 C357 1.394 . S
C356 H364 0.930 . S
C357 C356 1.394 . S
C357 C358 1.383 . S
C357 H365 0.929 . S
C358 C357 1.383 . S
C358 C359 1.360 1_565 S
C359 H343 0.955 . S
C359 C358 1.360 1_545 S
C359 C360 1.372 1_545 S
C360 H344 0.931 1_565 S
C360 C354 1.383 . S
C360 C359 1.372 1_565 S
H361 C355 0.959 . S
H362 C355 0.961 1_545 S
H363 C355 0.960 . S
H364 C356 0.930 . S
H365 C357 0.929 . S
H366 C374 0.929 . S
H367 C376 0.930 . S
H368 C378 0.930 . S
H369 C381 0.929 . S
H370 C384 0.930 . S
H371 C386 0.960 . S
H372 C386 0.960 . S
H373 C386 0.960 . S
C374 H366 0.929 . S
C374 C375 1.377 . S
C374 C376 1.384 . S
C375 C374 1.377 . S
C375 C381 1.390 . S
C376 H367 0.930 . S
C376 C374 1.384 . S
C376 C377 1.372 . S
C377 C376 1.372 . S
C377 C378 1.400 . S
C377 C382 1.490 . S
C378 H368 0.930 . S
C378 C377 1.400 . S
C378 C381 1.386 . S
H379 C395 0.930 . S
H380 C396 0.931 . S
C381 H369 0.929 . S
C381 C375 1.390 . S
C381 C378 1.386 . S
C382 C377 1.490 . S
C382 C384 1.395 . S
C382 C385 1.403 . S
H383 C389 0.930 . S
C384 H370 0.930 . S
C384 C382 1.395 . S
C384 C387 1.403 . S
C385 C382 1.403 . S
C385 C386 1.524 . S
C385 C389 1.400 . S
C386 H371 0.960 . S
C386 H372 0.960 . S
C386 H373 0.960 . S
C386 C385 1.524 . S
C387 C384 1.403 . S
C387 C388 1.392 . S
C387 C391 1.495 . S
C388 C387 1.392 . S
C388 C389 1.385 . S
C388 C390 1.478 . S
C389 H383 0.930 . S
C389 C385 1.400 . S
C389 C388 1.385 . S
C390 C388 1.478 . S
C390 C392 1.381 . S
C390 C396 1.383 . S
C391 C387 1.495 . S
C391 H397 0.959 . S
C391 H398 0.961 . S
C391 H399 0.960 . S
C392 C390 1.381 . S
C392 C393 1.394 . S
C392 H400 0.930 . S
C393 C392 1.394 . S
C393 C394 1.383 . S
C393 H401 0.929 . S
C394 C393 1.383 . S
C394 C395 1.377 . S
C395 H379 0.930 . S
C395 C394 1.377 . S
C395 C396 1.379 . S
C396 H380 0.931 . S
C396 C390 1.383 . S
C396 C395 1.379 . S
H397 C391 0.959 . S
H398 C391 0.961 . S
H399 C391 0.960 . S
H400 C392 0.930 . S
H401 C393 0.929 . S
H402 C410 0.929 . S
H403 C412 0.930 . S
H404 C414 0.930 . S
H405 C417 0.929 . S
H406 C420 0.930 . S
H407 C422 0.960 . S
H408 C422 0.960 . S
H409 C422 0.960 . S
C410 H402 0.929 . S
C410 C411 1.377 . S
C410 C412 1.384 . S
C411 C410 1.377 . S
C411 C417 1.390 . S
C412 H403 0.930 . S
C412 C410 1.384 . S
C412 C413 1.372 . S
C413 C412 1.372 . S
C413 C414 1.400 . S
C413 C418 1.490 . S
C414 H404 0.930 . S
C414 C413 1.400 . S
C414 C417 1.386 . S
H415 C431 0.930 . S
H416 C432 0.931 . S
C417 H405 0.929 . S
C417 C411 1.390 . S
C417 C414 1.386 . S
C418 C413 1.490 . S
C418 C420 1.395 . S
C418 C421 1.403 . S
H419 C425 0.930 . S
C420 H406 0.930 . S
C420 C418 1.395 . S
C420 C423 1.403 . S
C421 C418 1.403 . S
C421 C422 1.524 . S
C421 C425 1.400 . S
C422 H407 0.960 . S
C422 H408 0.960 . S
C422 H409 0.960 . S
C422 C421 1.524 . S
C423 C420 1.403 . S
C423 C424 1.392 . S
C423 C427 1.495 . S
C424 C423 1.392 . S
C424 C425 1.385 . S
C424 C426 1.478 . S
C425 H419 0.930 . S
C425 C421 1.400 . S
C425 C424 1.385 . S
C426 C424 1.478 . S
C426 C428 1.381 . S
C426 C432 1.383 . S
C427 C423 1.495 . S
C427 H433 0.959 . S
C427 H434 0.961 . S
C427 H435 0.960 . S
C428 C426 1.381 . S
C428 C429 1.394 . S
C428 H436 0.930 . S
C429 C428 1.394 . S
C429 C430 1.383 . S
C429 H437 0.929 . S
C430 C429 1.383 . S
C430 C431 1.377 . S
C431 H415 0.930 . S
C431 C430 1.377 . S
C431 C432 1.379 . S
C432 H416 0.931 . S
C432 C426 1.383 . S
C432 C431 1.379 . S
H433 C427 0.959 . S
H434 C427 0.961 . S
H435 C427 0.960 . S
H436 C428 0.930 . S
H437 C429 0.929 . S
H438 C446 0.929 . S
H439 C448 0.930 . S
H440 C450 0.930 . S
H441 C453 0.929 . S
H442 C456 0.930 . S
H443 C458 0.960 . S
H444 C458 0.960 . S
H445 C458 0.960 . S
C446 H438 0.929 . S
C446 C447 1.377 . S
C446 C448 1.384 . S
C447 C446 1.377 . S
C447 C453 1.390 . S
C448 H439 0.930 . S
C448 C446 1.384 . S
C448 C449 1.372 . S
C449 C448 1.372 . S
C449 C450 1.400 . S
C449 C454 1.490 . S
C450 H440 0.930 . S
C450 C449 1.400 . S
C450 C453 1.386 . S
H451 C467 0.930 . S
H452 C468 0.931 . S
C453 H441 0.929 . S
C453 C447 1.390 . S
C453 C450 1.386 . S
C454 C449 1.490 . S
C454 C456 1.395 . S
C454 C457 1.403 . S
H455 C461 0.930 . S
C456 H442 0.930 . S
C456 C454 1.395 . S
C456 C459 1.403 . S
C457 C454 1.403 . S
C457 C458 1.524 . S
C457 C461 1.400 . S
C458 H443 0.960 . S
C458 H444 0.960 . S
C458 H445 0.960 . S
C458 C457 1.524 . S
C459 C456 1.403 . S
C459 C460 1.392 . S
C459 C463 1.495 . S
C460 C459 1.392 . S
C460 C461 1.385 . S
C460 C462 1.478 . S
C461 H455 0.930 . S
C461 C457 1.400 . S
C461 C460 1.385 . S
C462 C460 1.478 . S
C462 C464 1.381 . S
C462 C468 1.383 . S
C463 C459 1.495 . S
C463 H469 0.959 . S
C463 H470 0.961 . S
C463 H471 0.960 . S
C464 C462 1.381 . S
C464 C465 1.394 . S
C464 H472 0.930 . S
C465 C464 1.394 . S
C465 C466 1.383 . S
C465 H473 0.929 . S
C466 C465 1.383 . S
C466 C467 1.377 . S
C467 H451 0.930 . S
C467 C466 1.377 . S
C467 C468 1.379 . S
C468 H452 0.931 . S
C468 C462 1.383 . S
C468 C467 1.379 . S
H469 C463 0.959 . S
H470 C463 0.961 . S
H471 C463 0.960 . S
H472 C464 0.930 . S
H473 C465 0.929 . S
H474 C482 0.929 . S
H475 C484 0.930 . S
H476 C486 0.930 . S
H477 C489 0.929 . S
H478 C492 0.930 . S
H479 C494 0.960 . S
H480 C494 0.960 . S
H481 C494 0.960 . S
C482 H474 0.929 . S
C482 C483 1.377 . S
C482 C484 1.384 . S
C483 C482 1.377 . S
C483 C489 1.390 . S
C484 H475 0.930 . S
C484 C482 1.384 . S
C484 C485 1.372 . S
C485 C484 1.372 . S
C485 C486 1.400 . S
C485 C490 1.490 . S
C486 H476 0.930 . S
C486 C485 1.400 . S
C486 C489 1.386 . S
H487 C503 0.930 . S
H488 C504 0.931 . S
C489 H477 0.929 . S
C489 C483 1.390 . S
C489 C486 1.386 . S
C490 C485 1.490 . S
C490 C492 1.395 . S
C490 C493 1.403 . S
H491 C497 0.930 . S
C492 H478 0.930 . S
C492 C490 1.395 . S
C492 C495 1.403 . S
C493 C490 1.403 . S
C493 C494 1.524 . S
C493 C497 1.400 . S
C494 H479 0.960 . S
C494 H480 0.960 . S
C494 H481 0.960 . S
C494 C493 1.524 . S
C495 C492 1.403 . S
C495 C496 1.392 . S
C495 C499 1.495 . S
C496 C495 1.392 . S
C496 C497 1.385 . S
C496 C498 1.478 . S
C497 H491 0.930 . S
C497 C493 1.400 . S
C497 C496 1.385 . S
C498 C496 1.478 . S
C498 C500 1.381 . S
C498 C504 1.383 . S
C499 C495 1.495 . S
C499 H505 0.959 . S
C499 H506 0.961 . S
C499 H507 0.960 . S
C500 C498 1.381 . S
C500 C501 1.394 . S
C500 H508 0.930 . S
C501 C500 1.394 . S
C501 C502 1.383 . S
C501 H509 0.929 . S
C502 C501 1.383 . S
C502 C503 1.377 . S
C503 H487 0.930 . S
C503 C502 1.377 . S
C503 C504 1.379 . S
C504 H488 0.931 . S
C504 C498 1.383 . S
C504 C503 1.379 . S
H505 C499 0.959 . S
H506 C499 0.961 . S
H507 C499 0.960 . S
H508 C500 0.930 . S
H509 C501 0.929 . S
H510 C518 0.929 . S
H511 C520 0.930 . S
H512 C522 0.930 . S
H513 C525 0.929 . S
H514 C528 0.930 . S
H515 C530 0.960 . S
H516 C530 0.960 . S
H517 C530 0.960 . S
C518 H510 0.929 . S
C518 C519 1.377 . S
C518 C520 1.384 . S
C519 C518 1.377 . S
C519 C525 1.390 . S
C520 H511 0.930 . S
C520 C518 1.384 . S
C520 C521 1.372 . S
C521 C520 1.372 . S
C521 C522 1.400 . S
C521 C526 1.490 . S
C522 H512 0.930 . S
C522 C521 1.400 . S
C522 C525 1.386 . S
H523 C539 0.930 . S
H524 C540 0.931 . S
C525 H513 0.929 . S
C525 C519 1.390 . S
C525 C522 1.386 . S
C526 C521 1.490 . S
C526 C528 1.395 . S
C526 C529 1.403 . S
H527 C533 0.930 . S
C528 H514 0.930 . S
C528 C526 1.395 . S
C528 C531 1.403 . S
C529 C526 1.403 . S
C529 C530 1.524 . S
C529 C533 1.400 . S
C530 H515 0.960 . S
C530 H516 0.960 . S
C530 H517 0.960 . S
C530 C529 1.524 . S
C531 C528 1.403 . S
C531 C532 1.392 . S
C531 C535 1.495 . S
C532 C531 1.392 . S
C532 C533 1.385 . S
C532 C534 1.478 . S
C533 H527 0.930 . S
C533 C529 1.400 . S
C533 C532 1.385 . S
C534 C532 1.478 . S
C534 C536 1.381 . S
C534 C540 1.383 . S
C535 C531 1.495 . S
C535 H541 0.959 . S
C535 H542 0.961 . S
C535 H543 0.960 . S
C536 C534 1.381 . S
C536 C537 1.394 . S
C536 H544 0.930 . S
C537 C536 1.394 . S
C537 C538 1.383 . S
C537 H545 0.929 . S
C538 C537 1.383 . S
C538 C539 1.377 . S
C539 H523 0.930 . S
C539 C538 1.377 . S
C539 C540 1.379 . S
C540 H524 0.931 . S
C540 C534 1.383 . S
C540 C539 1.379 . S
H541 C535 0.959 . S
H542 C535 0.961 . S
H543 C535 0.960 . S
H544 C536 0.930 . S
H545 C537 0.929 . S
H546 C554 0.929 . S
H547 C556 0.930 . S
H548 C558 0.930 . S
H549 C561 0.929 . S
H550 C564 0.930 . S
H551 C566 0.960 . S
H552 C566 0.960 . S
H553 C566 0.960 . S
C554 H546 0.929 . S
C554 C555 1.377 . S
C554 C556 1.384 . S
C555 C554 1.377 . S
C555 C561 1.390 . S
C556 H547 0.930 . S
C556 C554 1.384 . S
C556 C557 1.372 . S
C557 C556 1.372 . S
C557 C558 1.400 . S
C557 C562 1.490 . S
C558 H548 0.930 . S
C558 C557 1.400 . S
C558 C561 1.386 . S
H559 C575 0.930 . S
H560 C576 0.931 . S
C561 H549 0.929 . S
C561 C555 1.390 . S
C561 C558 1.386 . S
C562 C557 1.490 . S
C562 C564 1.395 . S
C562 C565 1.403 . S
H563 C569 0.930 . S
C564 H550 0.930 . S
C564 C562 1.395 . S
C564 C567 1.403 . S
C565 C562 1.403 . S
C565 C566 1.524 . S
C565 C569 1.400 . S
C566 H551 0.960 . S
C566 H552 0.960 . S
C566 H553 0.960 . S
C566 C565 1.524 . S
C567 C564 1.403 . S
C567 C568 1.392 . S
C567 C571 1.495 . S
C568 C567 1.392 . S
C568 C569 1.385 . S
C568 C570 1.478 . S
C569 H563 0.930 . S
C569 C565 1.400 . S
C569 C568 1.385 . S
C570 C568 1.478 . S
C570 C572 1.381 . S
C570 C576 1.383 . S
C571 C567 1.495 . S
C571 H577 0.959 . S
C571 H578 0.961 . S
C571 H579 0.960 . S
C572 C570 1.381 . S
C572 C573 1.394 . S
C572 H580 0.930 . S
C573 C572 1.394 . S
C573 C574 1.383 . S
C573 H581 0.929 . S
C574 C573 1.383 . S
C574 C575 1.377 . S
C575 H559 0.930 . S
C575 C574 1.377 . S
C575 C576 1.379 . S
C576 H560 0.931 . S
C576 C570 1.383 . S
C576 C575 1.379 . S
H577 C571 0.959 . S
H578 C571 0.961 . S
H579 C571 0.960 . S
H580 C572 0.930 . S
H581 C573 0.929 . S
H582 C590 0.929 . S
H583 C592 0.930 . S
H584 C594 0.930 . S
H585 C597 0.929 . S
H586 C600 0.930 . S
H587 C602 0.960 . S
H588 C602 0.960 . S
H589 C602 0.960 . S
C590 H582 0.929 . S
C590 C591 1.377 . S
C590 C592 1.384 . S
C591 C590 1.377 . S
C591 C597 1.390 . S
C592 H583 0.930 . S
C592 C590 1.384 . S
C592 C593 1.372 . S
C593 C592 1.372 . S
C593 C594 1.400 . S
C593 C598 1.490 . S
C594 H584 0.930 . S
C594 C593 1.400 . S
C594 C597 1.386 . S
H595 C611 0.930 . S
H596 C612 0.931 . S
C597 H585 0.929 . S
C597 C591 1.390 . S
C597 C594 1.386 . S
C598 C593 1.490 . S
C598 C600 1.395 . S
C598 C601 1.403 . S
H599 C605 0.930 . S
C600 H586 0.930 . S
C600 C598 1.395 . S
C600 C603 1.403 . S
C601 C598 1.403 . S
C601 C602 1.524 . S
C601 C605 1.400 . S
C602 H587 0.960 . S
C602 H588 0.960 . S
C602 H589 0.960 . S
C602 C601 1.524 . S
C603 C600 1.403 . S
C603 C604 1.392 . S
C603 C607 1.495 . S
C604 C603 1.392 . S
C604 C605 1.385 . S
C604 C606 1.478 . S
C605 H599 0.930 . S
C605 C601 1.400 . S
C605 C604 1.385 . S
C606 C604 1.478 . S
C606 C608 1.373 1_565 S
C606 C612 1.383 . S
C607 C603 1.495 . S
C607 H613 0.959 . S
C607 H614 0.961 . S
C607 H615 0.960 . S
C608 C606 1.373 1_545 S
C608 C609 1.396 . S
C608 H616 0.936 . S
C609 C608 1.396 . S
C609 C610 1.383 1_545 S
C609 H617 0.929 . S
C610 C609 1.383 1_565 S
C610 C611 1.377 . S
C611 H595 0.930 . S
C611 C610 1.377 . S
C611 C612 1.379 . S
C612 H596 0.931 . S
C612 C606 1.383 . S
C612 C611 1.379 . S
H613 C607 0.959 . S
H614 C607 0.961 . S
H615 C607 0.960 . S
H616 C608 0.936 . S
H617 C609 0.929 . S
C214 C160 1.302 . S
C195 C133 1.462 . S
C231 C25 1.496 . S
C250 C181 1.324 . S
C267 C61 1.702 . S
C286 C157 1.442 . S
C303 C97 1.658 . S
C322 C178 1.499 . S
C358 C162 1.632 . S
C339 C1 1.639 . S
C394 C182 1.542 . S
C375 C67 1.599 . S
C411 C103 1.548 . S
C430 C158 1.478 . S
C447 C109 1.592 . S
C466 C180 1.526 . S
C502 C179 1.516 . S
C483 C37 1.572 . S
C538 C161 1.568 . S
C519 C73 1.584 . S
C574 C183 1.596 . S
C555 C139 1.601 . S
C591 C31 1.626 . S
C610 C159 1.552 . S
