# Generated by pormake.
# Topology the, (3,8)-cn, num edge types: 1
# Building blocks:
#     Node 0, Type 0, BuildingBlock: QEWDON_clean_linker_0, # of connection points: 3
#     Node 1, Type 0, BuildingBlock: QEWDON_clean_linker_0, # of connection points: 3
#     Node 2, Type 0, BuildingBlock: QEWDON_clean_linker_0, # of connection points: 3
#     Node 3, Type 0, BuildingBlock: QEWDON_clean_linker_0, # of connection points: 3
#     Node 4, Type 0, BuildingBlock: QEWDON_clean_linker_0, # of connection points: 3
#     Node 5, Type 0, BuildingBlock: QEWDON_clean_linker_0, # of connection points: 3
#     Node 6, Type 0, BuildingBlock: QEWDON_clean_linker_0, # of connection points: 3
#     Node 7, Type 0, BuildingBlock: QEWDON_clean_linker_0, # of connection points: 3
#     Node 8, Type 1, BuildingBlock: GIZVER_clean_sbu_0, # of connection points: 8
#     Node 9, Type 1, BuildingBlock: GIZVER_clean_sbu_0, # of connection points: 8
#     Node 10, Type 1, BuildingBlock: GIZVER_clean_sbu_0, # of connection points: 8
#     Edge 11, Type (0, 1), BuildingBlock: XIVTED_clean_linker_0, # of connection points: 2
#     Edge 12, Type (0, 1), BuildingBlock: XIVTED_clean_linker_0, # of connection points: 2
#     Edge 13, Type (0, 1), BuildingBlock: XIVTED_clean_linker_0, # of connection points: 2
#     Edge 14, Type (0, 1), BuildingBlock: XIVTED_clean_linker_0, # of connection points: 2
#     Edge 15, Type (0, 1), BuildingBlock: XIVTED_clean_linker_0, # of connection points: 2
#     Edge 16, Type (0, 1), BuildingBlock: XIVTED_clean_linker_0, # of connection points: 2
#     Edge 17, Type (0, 1), BuildingBlock: XIVTED_clean_linker_0, # of connection points: 2
#     Edge 18, Type (0, 1), BuildingBlock: XIVTED_clean_linker_0, # of connection points: 2
#     Edge 19, Type (0, 1), BuildingBlock: XIVTED_clean_linker_0, # of connection points: 2
#     Edge 20, Type (0, 1), BuildingBlock: XIVTED_clean_linker_0, # of connection points: 2
#     Edge 21, Type (0, 1), BuildingBlock: XIVTED_clean_linker_0, # of connection points: 2
#     Edge 22, Type (0, 1), BuildingBlock: XIVTED_clean_linker_0, # of connection points: 2
#     Edge 23, Type (0, 1), BuildingBlock: XIVTED_clean_linker_0, # of connection points: 2
#     Edge 24, Type (0, 1), BuildingBlock: XIVTED_clean_linker_0, # of connection points: 2
#     Edge 25, Type (0, 1), BuildingBlock: XIVTED_clean_linker_0, # of connection points: 2
#     Edge 26, Type (0, 1), BuildingBlock: XIVTED_clean_linker_0, # of connection points: 2
#     Edge 27, Type (0, 1), BuildingBlock: XIVTED_clean_linker_0, # of connection points: 2
#     Edge 28, Type (0, 1), BuildingBlock: XIVTED_clean_linker_0, # of connection points: 2
#     Edge 29, Type (0, 1), BuildingBlock: XIVTED_clean_linker_0, # of connection points: 2
#     Edge 30, Type (0, 1), BuildingBlock: XIVTED_clean_linker_0, # of connection points: 2
#     Edge 31, Type (0, 1), BuildingBlock: XIVTED_clean_linker_0, # of connection points: 2
#     Edge 32, Type (0, 1), BuildingBlock: XIVTED_clean_linker_0, # of connection points: 2
#     Edge 33, Type (0, 1), BuildingBlock: XIVTED_clean_linker_0, # of connection points: 2
#     Edge 34, Type (0, 1), BuildingBlock: XIVTED_clean_linker_0, # of connection points: 2
# Relax obj value: 0.102
# Max RMSD: 0.270
# Mean RMSD: 0.183
data_MOF--net-the--node1-GIZVER_clean_sbu_0--node2-QEWDON_clean_linker_0--edge1-XIVTED_clean_linker_0
_symmetry_space_group_name_H-M    P1
_symmetry_Int_Tables_number       1
_symmetry_cell_setting            triclinic
loop_
_symmetry_equiv_pos_as_xyz
'x, y, z'
_cell_length_a     41.802714
_cell_length_b     39.124713
_cell_length_c     37.822828
_cell_angle_alpha  86.899532
_cell_angle_beta   94.842681
_cell_angle_gamma 111.95021
loop_
_atom_site_label
_atom_site_type_symbol
_atom_site_fract_x
_atom_site_fract_y
_atom_site_fract_z
_atom_type_partial_charge
H0 H 0.34858 0.24101 0.41678 0.0
C1 C 0.36061 0.26074 0.39607 0.0
C2 C 0.39418 0.26603 0.38714 0.0
C3 C 0.34132 0.27928 0.37733 0.0
H4 H 0.43319 0.29403 0.35006 0.0
C5 C 0.4077 0.28977 0.3581 0.0
C6 C 0.3882 0.30784 0.33867 0.0
C7 C 0.35537 0.30328 0.34899 0.0
C8 C 0.30482 0.26951 0.38463 0.0
H9 H 0.33985 0.31632 0.33347 0.0
C10 C 0.29355 0.29504 0.39919 0.0
C11 C 0.25885 0.28447 0.40751 0.0
C12 C 0.28127 0.23365 0.37783 0.0
H13 H 0.2896 0.21369 0.36664 0.0
C14 C 0.2468 0.22331 0.38523 0.0
H15 H 0.31197 0.32251 0.40499 0.0
C16 C 0.2356 0.24844 0.39993 0.0
H17 H 0.20857 0.23968 0.40508 0.0
H18 H 0.2287 0.19569 0.37962 0.0
H19 H 0.81538 0.346 0.32253 0.0
C20 C 0.7952 0.31911 0.32607 0.0
C21 C 0.80169 0.29355 0.34995 0.0
C22 C 0.76218 0.31192 0.30936 0.0
H23 H 0.78014 0.24045 0.37544 0.0
C24 C 0.77533 0.25935 0.35563 0.0
C25 C 0.74243 0.25045 0.3376 0.0
C26 C 0.7361 0.27705 0.3143 0.0
C27 C 0.7546 0.34281 0.29086 0.0
H28 H 0.7106 0.27138 0.30134 0.0
C29 C 0.73545 0.33848 0.2578 0.0
C30 C 0.73047 0.36904 0.24034 0.0
C31 C 0.76727 0.37757 0.30673 0.0
H32 H 0.78117 0.38155 0.33262 0.0
C33 C 0.76206 0.40762 0.28962 0.0
H34 H 0.72532 0.31189 0.24531 0.0
C35 C 0.744 0.40352 0.25655 0.0
H36 H 0.73997 0.42725 0.2439 0.0
H37 H 0.77199 0.43418 0.30209 0.0
H38 H 0.77446 0.68136 0.39797 0.0
C39 C 0.76869 0.675 0.37005 0.0
C40 C 0.78917 0.66042 0.35265 0.0
C41 C 0.73923 0.67881 0.35241 0.0
H42 H 0.79468 0.63779 0.30358 0.0
C43 C 0.77997 0.65033 0.31684 0.0
C44 C 0.75059 0.65425 0.29871 0.0
C45 C 0.73077 0.66898 0.31669 0.0
C46 C 0.71281 0.68408 0.37297 0.0
H47 H 0.70701 0.67011 0.30374 0.0
C48 C 0.71749 0.71797 0.38829 0.0
C49 C 0.69133 0.72083 0.40802 0.0
C50 C 0.68204 0.65361 0.37738 0.0
H51 H 0.67801 0.62739 0.36592 0.0
C52 C 0.65633 0.65642 0.39674 0.0
H53 H 0.74112 0.74165 0.38498 0.0
C54 C 0.66088 0.68965 0.41195 0.0
H55 H 0.64022 0.69113 0.42653 0.0
H56 H 0.63273 0.63272 0.39994 0.0
H57 H 0.40287 0.7596 0.29567 0.0
C58 C 0.37813 0.74262 0.30558 0.0
C59 C 0.36889 0.75076 0.33796 0.0
C60 C 0.35519 0.71316 0.2855 0.0
H61 H 0.32925 0.73663 0.37459 0.0
C62 C 0.3364 0.72944 0.34998 0.0
C63 C 0.31349 0.69896 0.33089 0.0
C64 C 0.32327 0.69101 0.29848 0.0
C65 C 0.36324 0.70787 0.24942 0.0
H66 H 0.30607 0.66795 0.28303 0.0
C67 C 0.37237 0.67804 0.2417 0.0
C68 C 0.37997 0.67372 0.20693 0.0
C69 C 0.36166 0.73327 0.22238 0.0
H70 H 0.35469 0.75638 0.22793 0.0
C71 C 0.36879 0.72893 0.18795 0.0
H72 H 0.37365 0.65846 0.26264 0.0
C73 C 0.37789 0.69944 0.18021 0.0
H74 H 0.38409 0.69727 0.15339 0.0
H75 H 0.36751 0.74865 0.16721 0.0
H76 H 0.42749 0.72318 0.73969 0.0
C77 C 0.40037 0.71548 0.73115 0.0
C78 C 0.38822 0.74176 0.71412 0.0
C79 C 0.37821 0.67829 0.73418 0.0
H80 H 0.34307 0.74985 0.68851 0.0
C81 C 0.3532 0.73028 0.70149 0.0
C82 C 0.3313 0.69316 0.70329 0.0
C83 C 0.34365 0.66759 0.72062 0.0
C84 C 0.39167 0.64938 0.74689 0.0
H85 H 0.32693 0.6387 0.72143 0.0
C86 C 0.41057 0.65158 0.77991 0.0
C87 C 0.42046 0.62213 0.79237 0.0
C88 C 0.38431 0.61833 0.72594 0.0
H89 H 0.37038 0.61628 0.70016 0.0
C90 C 0.3947 0.58959 0.73797 0.0
H91 H 0.41635 0.67529 0.79635 0.0
C92 C 0.4124 0.59127 0.77108 0.0
H93 H 0.42013 0.56852 0.78 0.0
H94 H 0.38883 0.56581 0.72166 0.0
H95 H 0.3639 0.31604 0.75078 0.0
C96 C 0.37668 0.30111 0.73781 0.0
C97 C 0.41034 0.30402 0.75009 0.0
C98 C 0.35845 0.27696 0.71059 0.0
H99 H 0.45176 0.28505 0.74342 0.0
C100 C 0.42596 0.28309 0.73391 0.0
C101 C 0.40821 0.25923 0.70599 0.0
C102 C 0.37437 0.25639 0.69475 0.0
C103 C 0.32108 0.26867 0.70232 0.0
H104 H 0.36003 0.23783 0.67373 0.0
C105 C 0.30865 0.29379 0.68336 0.0
C106 C 0.27275 0.28407 0.67488 0.0
C107 C 0.29757 0.23429 0.71326 0.0
H108 H 0.30667 0.21468 0.72785 0.0
C109 C 0.2622 0.22496 0.70578 0.0
H110 H 0.32685 0.32011 0.67442 0.0
C111 C 0.24984 0.24955 0.68682 0.0
H112 H 0.22215 0.24152 0.68175 0.0
H113 H 0.24426 0.1985 0.71466 0.0
H114 H 0.86514 0.33995 0.77075 0.0
C115 C 0.8449 0.31795 0.75657 0.0
C116 C 0.84755 0.31227 0.72074 0.0
C117 C 0.81543 0.29646 0.77412 0.0
H118 H 0.82224 0.27822 0.67579 0.0
C119 C 0.82028 0.28409 0.70301 0.0
C120 C 0.79022 0.26308 0.71991 0.0
C121 C 0.78795 0.26923 0.75569 0.0
C122 C 0.81351 0.30367 0.81159 0.0
H123 H 0.76484 0.25325 0.76902 0.0
C124 C 0.78974 0.31855 0.82118 0.0
C125 C 0.79068 0.32962 0.85626 0.0
C126 C 0.83762 0.29869 0.83737 0.0
H127 H 0.85629 0.28753 0.8303 0.0
C128 C 0.83812 0.30857 0.87232 0.0
H129 H 0.77122 0.32229 0.80104 0.0
C130 C 0.81512 0.32422 0.8817 0.0
H131 H 0.81725 0.33302 0.90873 0.0
H132 H 0.85694 0.30486 0.89206 0.0
H133 H 0.84249 0.71355 0.63356 0.0
C134 C 0.82696 0.6977 0.65467 0.0
C135 C 0.82794 0.66314 0.66521 0.0
C136 C 0.80712 0.71284 0.67183 0.0
H137 H 0.80957 0.6172 0.70237 0.0
C138 C 0.80823 0.64339 0.69319 0.0
C139 C 0.7878 0.6581 0.71035 0.0
C140 C 0.78694 0.69265 0.69913 0.0
C141 C 0.81205 0.75187 0.66453 0.0
H142 H 0.77243 0.70484 0.71319 0.0
C143 C 0.78505 0.76236 0.64941 0.0
C144 C 0.79155 0.79968 0.64035 0.0
C145 C 0.8451 0.77886 0.67152 0.0
H146 H 0.86615 0.77123 0.68321 0.0
C147 C 0.85134 0.81582 0.66348 0.0
H148 H 0.75964 0.74152 0.64355 0.0
C149 C 0.82486 0.82622 0.64791 0.0
H150 H 0.83041 0.85519 0.64195 0.0
H151 H 0.87685 0.83647 0.66912 0.0
Co152 Co 0.12952 0.47861 0.53226 0.0
Co153 Co 0.09401 0.46297 0.471 0.0
Co154 Co 0.06478 0.51174 0.51108 0.0
O155 O 0.08289 0.47119 0.51523 0.0
H156 H 0.06641 0.44861 0.52463 0.0
O157 O 0.04542 0.55151 0.50712 0.0
Co158 Co 0.99663 0.54038 0.49422 0.0
Co159 Co 0.03645 0.55925 0.55279 0.0
H160 H 0.06053 0.57403 0.49623 0.0
O161 O 0.09586 0.41834 0.46134 0.0
O162 O 0.13937 0.46811 0.48409 0.0
O163 O 0.09466 0.49826 0.43328 0.0
O164 O 0.09492 0.53934 0.4717 0.0
O165 O 0.02776 0.48201 0.47651 0.0
O166 O 0.95307 0.53451 0.48122 0.0
O167 O 0.99996 0.58716 0.48078 0.0
O168 O 0.98599 0.48907 0.50388 0.0
O169 O 0.03534 0.4843 0.55065 0.0
O170 O 0.04117 0.52568 0.59079 0.0
O171 O 0.98932 0.54888 0.54399 0.0
O172 O 0.03057 0.60159 0.56405 0.0
C173 C 0.15477 0.44598 0.55567 0.0
C174 C 0.13401 0.54903 0.54181 0.0
C175 C 0.10162 0.53136 0.44153 0.0
C176 C 0.12828 0.43493 0.47155 0.0
C177 C 0.96667 0.56971 0.47426 0.0
C178 C 0.99616 0.47082 0.48348 0.0
C179 C 0.03261 0.49243 0.58216 0.0
C180 C 0.99812 0.58122 0.55787 0.0
O181 O 0.17141 0.48102 0.54966 0.0
O182 O 0.12175 0.43136 0.54627 0.0
O183 O 0.10205 0.54121 0.54589 0.0
O184 O 0.14344 0.53 0.52157 0.0
Co185 Co 0.59188 0.93994 0.51843 0.0
Co186 Co 0.61561 0.97718 0.57715 0.0
Co187 Co 0.56387 0.00926 0.53793 0.0
O188 O 0.60141 0.99013 0.53177 0.0
H189 H 0.62075 0.00794 0.52027 0.0
O190 O 0.5268 0.02904 0.54448 0.0
Co191 Co 0.53844 0.07941 0.55866 0.0
Co192 Co 0.51153 0.04333 0.50091 0.0
H193 H 0.50765 0.01164 0.55657 0.0
O194 O 0.65826 0.9735 0.58559 0.0
O195 O 0.60796 0.92883 0.56728 0.0
O196 O 0.58803 0.97456 0.61648 0.0
O197 O 0.54432 0.97497 0.57915 0.0
O198 O 0.59666 0.0465 0.57095 0.0
O199 O 0.54531 0.1242 0.57372 0.0
O200 O 0.49679 0.07336 0.57472 0.0
O201 O 0.58414 0.09227 0.54546 0.0
O202 O 0.58277 0.04333 0.49604 0.0
O203 O 0.53679 0.04203 0.46107 0.0
O204 O 0.52381 0.09296 0.51029 0.0
O205 O 0.4707 0.0524 0.49369 0.0
C206 C 0.6186 0.91124 0.49802 0.0
C207 C 0.52595 0.93699 0.50935 0.0
C208 C 0.55603 0.96744 0.60964 0.0
C209 C 0.64056 0.93925 0.57817 0.0
C210 C 0.51352 0.10804 0.5823 0.0
C211 C 0.60374 0.08095 0.56632 0.0
C212 C 0.56904 0.04924 0.46593 0.0
C213 C 0.49186 0.08611 0.49874 0.0
O214 O 0.58655 0.89511 0.50559 0.0
O215 O 0.63424 0.94669 0.50273 0.0
O216 O 0.53132 0.97128 0.50527 0.0
O217 O 0.54583 0.92659 0.53095 0.0
Co218 Co 0.52946 0.50195 0.0912 0.0
Co219 Co 0.51223 0.43688 0.06697 0.0
Co220 Co 0.57304 0.49546 0.02144 0.0
O221 O 0.5292 0.4832 0.04557 0.0
H222 H 0.5113 0.48633 0.02935 0.0
O223 O 0.61692 0.50784 0.9977 0.0
Co224 Co 0.61693 0.48748 0.95335 0.0
Co225 Co 0.63476 0.55383 0.97555 0.0
H226 H 0.63473 0.50515 1.01434 0.0
O227 O 0.4664 0.4124 0.07833 0.0
O228 O 0.50998 0.45162 0.11234 0.0
O229 O 0.54311 0.41085 0.06999 0.0
O230 O 0.58786 0.45743 0.04911 0.0
O231 O 0.54565 0.4574 0.98498 0.0
O232 O 0.62139 0.467 0.91372 0.0
O233 O 0.6582 0.48404 0.96237 0.0
O234 O 0.57291 0.48801 0.93897 0.0
O235 O 0.55846 0.53354 0.99335 0.0
O236 O 0.60294 0.57891 0.97014 0.0
O237 O 0.63664 0.53686 0.93109 0.0
O238 O 0.68122 0.57665 0.96292 0.0
C239 C 0.49644 0.51934 0.11556 0.0
C240 C 0.60075 0.52536 0.09118 0.0
C241 C 0.57489 0.42556 0.06415 0.0
C242 C 0.47863 0.42737 0.10885 0.0
C243 C 0.64976 0.46815 0.93175 0.0
C244 C 0.54663 0.46353 0.95149 0.0
C245 C 0.57122 0.56454 0.9766 0.0
C246 C 0.66845 0.55973 0.93342 0.0
O247 O 0.52566 0.52084 0.13182 0.0
O248 O 0.48748 0.50494 0.08421 0.0
O249 O 0.60062 0.53312 0.05796 0.0
O250 O 0.57411 0.5019 0.10426 0.0
H251 H 0.27531 0.35871 0.39286 0.0
H252 H 0.1132 0.36171 0.48156 0.0
H253 H 0.21401 0.26956 0.46 0.0
H254 H 0.19684 0.46319 0.45745 0.0
H255 H 0.15018 0.32766 0.47295 0.0
H256 H 0.24839 0.39839 0.41551 0.0
C257 C 0.25663 0.34762 0.41272 0.0
C258 C 0.24635 0.31046 0.42394 0.0
C259 C 0.16068 0.3574 0.46985 0.0
C260 C 0.21525 0.35549 0.44947 0.0
C261 C 0.1395 0.3768 0.47456 0.0
C262 C 0.15194 0.41517 0.46973 0.0
C263 C 0.19431 0.37638 0.45927 0.0
C264 C 0.18635 0.43352 0.46123 0.0
C265 C 0.24126 0.37027 0.42557 0.0
C266 C 0.22196 0.29764 0.4497 0.0
N267 N 0.20625 0.41385 0.45556 0.0
N268 N 0.20691 0.31991 0.46116 0.0
H269 H 0.74637 0.18239 0.35207 0.0
H270 H 0.55282 0.08885 0.41024 0.0
H271 H 0.67375 0.23768 0.34438 0.0
H272 H 0.63718 0.06082 0.45933 0.0
H273 H 0.59292 0.13315 0.37114 0.0
H274 H 0.70216 0.12784 0.37691 0.0
C275 C 0.7211 0.18304 0.35523 0.0
C276 C 0.71412 0.21512 0.34665 0.0
C277 C 0.60247 0.11686 0.39013 0.0
C278 C 0.66324 0.15235 0.37423 0.0
C279 C 0.57962 0.0914 0.41234 0.0
C280 C 0.59175 0.07132 0.43839 0.0
C281 C 0.63761 0.12195 0.39362 0.0
C282 C 0.6268 0.07598 0.43988 0.0
C283 C 0.69589 0.15182 0.36927 0.0
C284 C 0.68048 0.21375 0.35037 0.0
N285 N 0.64858 0.10099 0.41793 0.0
N286 N 0.6564 0.18301 0.36414 0.0
H287 H 0.78771 0.62697 0.41825 0.0
H288 H 0.98133 0.63031 0.42855 0.0
H289 H 0.85497 0.6731 0.33327 0.0
H290 H 0.89919 0.55224 0.48627 0.0
H291 H 0.93969 0.65615 0.40004 0.0
H292 H 0.83278 0.60946 0.45016 0.0
C293 C 0.81216 0.6339 0.40648 0.0
C294 C 0.81752 0.65166 0.37299 0.0
C295 C 0.93097 0.63353 0.41915 0.0
C296 C 0.86942 0.63136 0.40951 0.0
C297 C 0.95472 0.619 0.43559 0.0
C298 C 0.94364 0.58893 0.45962 0.0
C299 C 0.89613 0.61835 0.42743 0.0
C300 C 0.9088 0.57517 0.46763 0.0
C301 C 0.83782 0.62363 0.42463 0.0
C302 C 0.84964 0.65927 0.3589 0.0
N303 N 0.88641 0.58996 0.45168 0.0
N304 N 0.8744 0.64915 0.37722 0.0
H305 H 0.43435 0.75938 0.3631 0.0
H306 H 0.47654 0.94718 0.46188 0.0
H307 H 0.35834 0.80933 0.36394 0.0
H308 H 0.51797 0.86517 0.50051 0.0
H309 H 0.4384 0.90313 0.41835 0.0
H310 H 0.47225 0.80542 0.4051 0.0
C311 C 0.42594 0.78042 0.37177 0.0
C312 C 0.39331 0.78071 0.36018 0.0
C313 C 0.45589 0.89495 0.43646 0.0
C314 C 0.43626 0.83319 0.40795 0.0
C315 C 0.47761 0.91998 0.4613 0.0
C316 C 0.50077 0.91003 0.48474 0.0
C317 C 0.45787 0.86007 0.43461 0.0
C318 C 0.50089 0.8743 0.48281 0.0
C319 C 0.44735 0.80639 0.39589 0.0
C320 C 0.38335 0.80825 0.37243 0.0
N321 N 0.48009 0.8508 0.45794 0.0
N322 N 0.40482 0.83356 0.39561 0.0
H323 H 0.26765 0.64543 0.7225 0.0
H324 H 0.2001 0.5906 0.52649 0.0
H325 H 0.32033 0.70938 0.63372 0.0
H326 H 0.12823 0.57068 0.6077 0.0
H327 H 0.24554 0.63237 0.56616 0.0
H328 H 0.21638 0.61577 0.6822 0.0
C329 C 0.26812 0.6537 0.69469 0.0
C330 C 0.29814 0.67988 0.68137 0.0
C331 C 0.2197 0.61923 0.57511 0.0
C332 C 0.24032 0.64566 0.63529 0.0
C333 C 0.19387 0.59532 0.55257 0.0
C334 C 0.16051 0.57715 0.56396 0.0
C335 C 0.2123 0.62421 0.60956 0.0
C336 C 0.15366 0.58429 0.59794 0.0
C337 C 0.23896 0.63687 0.67178 0.0
C338 C 0.29758 0.68958 0.64511 0.0
N339 N 0.17954 0.60682 0.61986 0.0
N340 N 0.26936 0.67199 0.62321 0.0
H341 H 0.47534 0.27971 0.6876 0.0
H342 H 0.44647 0.08571 0.60198 0.0
H343 H 0.37815 0.18704 0.6852 0.0
H344 H 0.54277 0.17955 0.6035 0.0
H345 H 0.42084 0.12196 0.63259 0.0
H346 H 0.50063 0.24286 0.65777 0.0
C347 C 0.45934 0.25156 0.68106 0.0
C348 C 0.42445 0.23666 0.68888 0.0
C349 C 0.44758 0.1346 0.6262 0.0
C350 C 0.45326 0.19419 0.65422 0.0
C351 C 0.46223 0.11388 0.6087 0.0
C352 C 0.49689 0.12947 0.60017 0.0
C353 C 0.46772 0.17121 0.63533 0.0
C354 C 0.51597 0.16623 0.6095 0.0
C355 C 0.47376 0.23055 0.66377 0.0
C356 C 0.40498 0.20003 0.67924 0.0
N357 N 0.5012 0.18572 0.62655 0.0
N358 N 0.4196 0.18015 0.66246 0.0
H359 H 0.84856 0.33435 0.65044 0.0
H360 H 0.02738 0.49424 0.65409 0.0
H361 H 0.91575 0.34716 0.74636 0.0
H362 H 0.98936 0.4232 0.56401 0.0
H363 H 0.98501 0.44731 0.69001 0.0
H364 H 0.89766 0.37418 0.6189 0.0
C365 C 0.87359 0.34492 0.66494 0.0
C366 C 0.87777 0.33667 0.70128 0.0
C367 C 0.98656 0.44198 0.66253 0.0
C368 C 0.93394 0.38394 0.66517 0.0
C369 C 0.01058 0.46864 0.64205 0.0
C370 C 0.01176 0.46273 0.60596 0.0
C371 C 0.96317 0.4099 0.64642 0.0
C372 C 0.98942 0.42903 0.59168 0.0
C373 C 0.90159 0.36796 0.64682 0.0
C374 C 0.91095 0.35293 0.71856 0.0
N375 N 0.96559 0.40422 0.61176 0.0
N376 N 0.93775 0.37615 0.70042 0.0
H377 H 0.79704 0.84672 0.58341 0.0
H378 H 0.61473 0.86587 0.59783 0.0
H379 H 0.72411 0.7803 0.65741 0.0
H380 H 0.70655 0.95287 0.56361 0.0
H381 H 0.64744 0.82467 0.60633 0.0
H382 H 0.75604 0.87515 0.56141 0.0
C383 C 0.77221 0.83788 0.59481 0.0
C384 C 0.76428 0.8118 0.62289 0.0
C385 C 0.66018 0.8527 0.59666 0.0
C386 C 0.7172 0.8442 0.59773 0.0
C387 C 0.64162 0.8761 0.59179 0.0
C388 C 0.65826 0.91287 0.58061 0.0
C389 C 0.69525 0.86617 0.5895 0.0
C390 C 0.69299 0.92487 0.57289 0.0
C391 C 0.74883 0.85407 0.5822 0.0
C392 C 0.73133 0.80057 0.63594 0.0
N393 N 0.71032 0.90161 0.5775 0.0
N394 N 0.70908 0.81727 0.6236 0.0
H395 H 0.44076 0.23995 0.36158 0.0
H396 H 0.43022 0.09171 0.50903 0.0
H397 H 0.3922 0.24256 0.45746 0.0
H398 H 0.52757 0.14931 0.46299 0.0
H399 H 0.40993 0.14042 0.48522 0.0
H400 H 0.46838 0.20101 0.39293 0.0
C401 C 0.43615 0.233 0.38924 0.0
C402 C 0.41362 0.24464 0.40658 0.0
C403 C 0.43585 0.14249 0.48074 0.0
C404 C 0.44429 0.19861 0.442 0.0
C405 C 0.44733 0.11478 0.49414 0.0
C406 C 0.48052 0.11671 0.48787 0.0
C407 C 0.45732 0.17145 0.45995 0.0
C408 C 0.50185 0.14709 0.4685 0.0
C409 C 0.45184 0.21048 0.407 0.0
C410 C 0.40837 0.23356 0.44241 0.0
N411 N 0.48964 0.17299 0.45457 0.0
N412 N 0.42306 0.21066 0.45871 0.0
H413 H 0.80815 0.29219 0.42213 0.0
H414 H 1.00412 0.43359 0.4278 0.0
H415 H 0.86814 0.32475 0.33026 0.0
H416 H 0.93157 0.42942 0.50425 0.0
H417 H 0.96014 0.38007 0.39887 0.0
H418 H 0.8595 0.32768 0.45939 0.0
C419 C 0.83245 0.30579 0.41001 0.0
C420 C 0.834 0.30589 0.37311 0.0
C421 C 0.95408 0.39064 0.42225 0.0
C422 C 0.8924 0.34688 0.41529 0.0
C423 C 0.9791 0.42114 0.43877 0.0
C424 C 0.97122 0.43636 0.46806 0.0
C425 C 0.92115 0.37506 0.43538 0.0
C426 C 0.9385 0.41897 0.48132 0.0
C427 C 0.8616 0.32633 0.43119 0.0
C428 C 0.86596 0.32433 0.35862 0.0
N429 N 0.91456 0.38936 0.46472 0.0
N430 N 0.89388 0.34453 0.37971 0.0
H431 H 0.70551 0.78988 0.37674 0.0
H432 H 0.60856 0.84194 0.52145 0.0
H433 H 0.68189 0.73045 0.47645 0.0
H434 H 0.67066 0.9272 0.45158 0.0
H435 H 0.63552 0.80101 0.50339 0.0
H436 H 0.6951 0.84159 0.40151 0.0
C437 C 0.69916 0.78817 0.40412 0.0
C438 C 0.69413 0.75567 0.42446 0.0
C439 C 0.64361 0.82872 0.49207 0.0
C440 C 0.68151 0.81403 0.45255 0.0
C441 C 0.62803 0.8521 0.50226 0.0
C442 C 0.63721 0.88797 0.48784 0.0
C443 C 0.66797 0.84065 0.46628 0.0
C444 C 0.66286 0.8997 0.4633 0.0
C445 C 0.69303 0.81755 0.41816 0.0
C446 C 0.68556 0.75476 0.45968 0.0
N447 N 0.67696 0.87582 0.45271 0.0
N448 N 0.67899 0.78311 0.47233 0.0
H449 H 0.29909 0.68144 0.40062 0.0
H450 H 0.11528 0.52944 0.37196 0.0
H451 H 0.25043 0.66268 0.29419 0.0
H452 H 0.14431 0.60005 0.46252 0.0
H453 H 0.16481 0.5733 0.34215 0.0
H454 H 0.24363 0.64595 0.42402 0.0
C455 C 0.27679 0.67035 0.38203 0.0
C456 C 0.27968 0.67577 0.3452 0.0
C457 C 0.15978 0.57941 0.36824 0.0
C458 C 0.21598 0.63372 0.37223 0.0
C459 C 0.13155 0.5545 0.38524 0.0
C460 C 0.12575 0.56093 0.4199 0.0
C461 C 0.18269 0.61033 0.38643 0.0
C462 C 0.14769 0.59387 0.43585 0.0
C463 C 0.24509 0.64989 0.39554 0.0
C464 C 0.24975 0.65908 0.32271 0.0
N465 N 0.17559 0.61692 0.41929 0.0
N466 N 0.21916 0.63853 0.33658 0.0
H467 H 0.44756 0.78651 0.75233 0.0
H468 H 0.48604 0.94827 0.60499 0.0
H469 H 0.38538 0.78385 0.65437 0.0
H470 H 0.56864 0.93029 0.67001 0.0
H471 H 0.44422 0.89773 0.63681 0.0
H472 H 0.48834 0.84735 0.73379 0.0
C473 C 0.44218 0.79862 0.72722 0.0
C474 C 0.41251 0.7798 0.7052 0.0
C475 C 0.4715 0.90522 0.64446 0.0
C476 C 0.4585 0.84965 0.68457 0.0
C477 C 0.49543 0.93418 0.6264 0.0
C478 C 0.53099 0.94307 0.63427 0.0
C479 C 0.48307 0.8849 0.67066 0.0
C480 C 0.54148 0.92409 0.66275 0.0
C481 C 0.46536 0.83341 0.71685 0.0
C482 C 0.40698 0.7973 0.67306 0.0
N483 N 0.51759 0.89543 0.67962 0.0
N484 N 0.42961 0.83106 0.66388 0.0
H485 H 0.21988 0.26547 0.6228 0.0
H486 H 0.21985 0.46909 0.58893 0.0
H487 H 0.29288 0.35978 0.67801 0.0
H488 H 0.13325 0.37046 0.55894 0.0
H489 H 0.25086 0.43085 0.61549 0.0
H490 H 0.19235 0.30502 0.59264 0.0
C491 C 0.23015 0.29453 0.62868 0.0
C492 C 0.25846 0.3091 0.6536 0.0
C493 C 0.22508 0.4176 0.6031 0.0
C494 C 0.22708 0.35484 0.6185 0.0
C495 C 0.20733 0.43938 0.58787 0.0
C496 C 0.17373 0.42297 0.57186 0.0
C497 C 0.20935 0.37904 0.60195 0.0
C498 C 0.15893 0.38434 0.57126 0.0
C499 C 0.2144 0.31713 0.61131 0.0
C500 C 0.27118 0.34725 0.65909 0.0
N501 N 0.17685 0.36374 0.58599 0.0
N502 N 0.25528 0.36877 0.64185 0.0
H503 H 0.75317 0.19068 0.73744 0.0
H504 H 0.63025 0.15594 0.55839 0.0
H505 H 0.76126 0.27368 0.6552 0.0
H506 H 0.64097 0.06706 0.62487 0.0
H507 H 0.67447 0.20011 0.59685 0.0
H508 H 0.70748 0.14551 0.70016 0.0
C509 C 0.74509 0.19939 0.71169 0.0
C510 C 0.76105 0.2358 0.69922 0.0
C511 C 0.66726 0.17094 0.60298 0.0
C512 C 0.70917 0.18464 0.65663 0.0
C513 C 0.64201 0.14569 0.58101 0.0
C514 C 0.63193 0.10773 0.58836 0.0
C515 C 0.68239 0.15826 0.6328 0.0
C516 C 0.64808 0.09608 0.61811 0.0
C517 C 0.71928 0.17364 0.69037 0.0
C518 C 0.74985 0.24574 0.66561 0.0
N519 N 0.67241 0.12128 0.63937 0.0
N520 N 0.72461 0.22034 0.64553 0.0
H521 H 0.81549 0.59327 0.6424 0.0
H522 H 1.00729 0.64959 0.57994 0.0
H523 H 0.89471 0.7021 0.6503 0.0
H524 H 0.92847 0.54172 0.56259 0.0
H525 H 0.96509 0.66891 0.60457 0.0
H526 H 0.85552 0.57291 0.61326 0.0
C527 C 0.84128 0.6128 0.6381 0.0
C528 C 0.85169 0.6495 0.64852 0.0
C529 C 0.95684 0.64102 0.59528 0.0
C530 C 0.89738 0.62659 0.61518 0.0
C531 C 0.981 0.62995 0.58114 0.0
C532 C 0.97152 0.59385 0.56948 0.0
C533 C 0.92282 0.6158 0.59812 0.0
C534 C 0.93693 0.56979 0.57143 0.0
C535 C 0.864 0.60126 0.62128 0.0
C536 C 0.88533 0.67373 0.64217 0.0
N537 N 0.91385 0.5811 0.5858 0.0
N538 N 0.90687 0.66185 0.62599 0.0
H539 H 0.40462 0.38124 0.32188 0.0
H540 H 0.42791 0.35953 0.11823 0.0
H541 H 0.39796 0.27879 0.27904 0.0
H542 H 0.48732 0.45989 0.17319 0.0
H543 H 0.40361 0.3314 0.1742 0.0
H544 H 0.42342 0.41244 0.26455 0.0
C545 C 0.40716 0.36545 0.30035 0.0
C546 C 0.40022 0.32763 0.30501 0.0
C547 C 0.42168 0.35972 0.17381 0.0
C548 C 0.42044 0.3625 0.23971 0.0
C549 C 0.43534 0.3759 0.14187 0.0
C550 C 0.45983 0.41207 0.14106 0.0
C551 C 0.43206 0.38006 0.20501 0.0
C552 C 0.46867 0.43188 0.17265 0.0
C553 C 0.41779 0.38314 0.26783 0.0
C554 C 0.40353 0.30812 0.27643 0.0
N555 N 0.4548 0.41561 0.2034 0.0
N556 N 0.41319 0.32572 0.24489 0.0
H557 H 0.48173 0.67382 0.81787 0.0
H558 H 0.50057 0.53886 0.97752 0.0
H559 H 0.40183 0.5709 0.84586 0.0
H560 H 0.58688 0.62867 0.93638 0.0
H561 H 0.46116 0.56022 0.93987 0.0
H562 H 0.51716 0.66715 0.87113 0.0
C563 C 0.47137 0.65033 0.83574 0.0
C564 C 0.43912 0.62263 0.82745 0.0
C565 C 0.48872 0.57558 0.93948 0.0
C566 C 0.47924 0.61467 0.88791 0.0
C567 C 0.5113 0.56346 0.96109 0.0
C568 C 0.54721 0.58151 0.95965 0.0
C569 C 0.50205 0.60593 0.91617 0.0
C570 C 0.55943 0.61349 0.93802 0.0
C571 C 0.4916 0.6464 0.86594 0.0
C572 C 0.42681 0.5926 0.85122 0.0
N573 N 0.53691 0.62436 0.91674 0.0
N574 N 0.44701 0.58923 0.88018 0.0
H575 H 0.41817 0.3756 0.76029 0.0
H576 H 0.51091 0.3885 0.9563 0.0
H577 H 0.4429 0.28603 0.81028 0.0
H578 H 0.52353 0.48345 0.88745 0.0
H579 H 0.47539 0.34862 0.90813 0.0
H580 H 0.44705 0.41376 0.81157 0.0
C581 C 0.42961 0.36396 0.78211 0.0
C582 C 0.42836 0.32768 0.78087 0.0
C583 C 0.48563 0.37823 0.90382 0.0
C584 C 0.46098 0.37101 0.83994 0.0
C585 C 0.50552 0.40097 0.93139 0.0
C586 C 0.52012 0.43931 0.92583 0.0
C587 C 0.47982 0.39406 0.87078 0.0
C588 C 0.5128 0.45401 0.89281 0.0
C589 C 0.44611 0.38574 0.81134 0.0
C590 C 0.44368 0.31402 0.80993 0.0
N591 N 0.49321 0.43144 0.86661 0.0
N592 N 0.45921 0.3356 0.83834 0.0
H593 H 0.76107 0.32473 0.91955 0.0
H594 H 0.65308 0.45033 0.86324 0.0
H595 H 0.76746 0.37763 0.81564 0.0
H596 H 0.69537 0.44399 0.97041 0.0
H597 H 0.68667 0.41589 0.84339 0.0
H598 H 0.7277 0.3598 0.93691 0.0
C599 C 0.75562 0.34372 0.90034 0.0
C600 C 0.76763 0.3484 0.86612 0.0
C601 C 0.68863 0.4223 0.87118 0.0
C602 C 0.7285 0.38795 0.88577 0.0
C603 C 0.66952 0.44185 0.88251 0.0
C604 C 0.67154 0.45005 0.91849 0.0
C605 C 0.70911 0.41018 0.8962 0.0
C606 C 0.69324 0.43848 0.94239 0.0
C607 C 0.73642 0.36362 0.9103 0.0
C608 C 0.75857 0.37266 0.84216 0.0
N609 N 0.71088 0.41879 0.93088 0.0
N610 N 0.73951 0.39151 0.85243 0.0
H611 H 0.71921 0.63653 0.721 0.0
H612 H 0.73806 0.59876 0.92772 0.0
H613 H 0.81592 0.63799 0.77187 0.0
H614 H 0.64272 0.54469 0.86494 0.0
H615 H 0.76778 0.61944 0.87259 0.0
H616 H 0.69066 0.60904 0.7754 0.0
C617 C 0.7343 0.63078 0.74361 0.0
C618 C 0.7698 0.63921 0.74204 0.0
C619 C 0.74041 0.60278 0.87107 0.0
C620 C 0.73771 0.6087 0.80436 0.0
C621 C 0.72345 0.59107 0.90244 0.0
C622 C 0.68782 0.57015 0.90096 0.0
C623 C 0.72142 0.59417 0.83812 0.0
C624 C 0.67018 0.56084 0.86743 0.0
C625 C 0.71807 0.61508 0.77453 0.0
C626 C 0.78837 0.63148 0.77204 0.0
N627 N 0.68704 0.57332 0.83739 0.0
N628 N 0.77219 0.61704 0.8022 0.0
H629 H 0.72763 0.68605 0.2405 0.0
H630 H 0.62569 0.4958 0.14838 0.0
H631 H 0.74201 0.58586 0.27595 0.0
H632 H 0.64311 0.59885 0.09135 0.0
H633 H 0.66875 0.52857 0.19499 0.0
H634 H 0.69738 0.6558 0.18551 0.0
C635 C 0.72491 0.65788 0.23644 0.0
C636 C 0.73738 0.63847 0.26291 0.0
C637 C 0.66364 0.54406 0.17208 0.0
C638 C 0.70223 0.60346 0.20031 0.0
C639 C 0.63902 0.52535 0.14547 0.0
C640 C 0.63082 0.54466 0.11599 0.0
C641 C 0.67965 0.58262 0.16982 0.0
C642 C 0.64886 0.58293 0.11354 0.0
C643 C 0.7077 0.64065 0.20503 0.0
C644 C 0.73312 0.602 0.25622 0.0
N645 N 0.672 0.60079 0.14045 0.0
N646 N 0.71546 0.58554 0.22591 0.0
H647 H 0.42665 0.64952 0.24511 0.0
H648 H 0.43548 0.52452 0.08813 0.0
H649 H 0.36007 0.62989 0.14875 0.0
H650 H 0.50674 0.5498 0.18114 0.0
H651 H 0.40256 0.55601 0.11376 0.0
H652 H 0.45092 0.60591 0.2262 0.0
C653 C 0.41672 0.63558 0.22027 0.0
C654 C 0.39157 0.64371 0.19829 0.0
C655 C 0.42524 0.55443 0.12871 0.0
C656 C 0.41954 0.59412 0.17624 0.0
C657 C 0.44404 0.53637 0.11409 0.0
C658 C 0.47418 0.53486 0.13229 0.0
C659 C 0.43664 0.57118 0.16179 0.0
C660 C 0.48387 0.55058 0.16596 0.0
C661 C 0.43076 0.61088 0.20935 0.0
C662 C 0.37988 0.62499 0.16622 0.0
N663 N 0.46534 0.56832 0.17947 0.0
N664 N 0.39413 0.60135 0.15606 0.0
H665 H 0.66549 0.31964 0.2222 0.0
H666 H 0.64486 0.44825 0.05885 0.0
H667 H 0.74921 0.41168 0.18064 0.0
H668 H 0.55915 0.36201 0.10508 0.0
H669 H 0.68459 0.42509 0.09367 0.0
H670 H 0.62796 0.32447 0.17025 0.0
C671 C 0.67617 0.34018 0.20162 0.0
C672 C 0.7102 0.36571 0.20585 0.0
C673 C 0.65706 0.41087 0.09581 0.0
C674 C 0.66758 0.37181 0.14688 0.0
C675 C 0.6343 0.42408 0.07587 0.0
C676 C 0.59859 0.4076 0.07961 0.0
C677 C 0.64408 0.38112 0.11988 0.0
C678 C 0.58649 0.37602 0.10174 0.0
C679 C 0.65474 0.34312 0.17213 0.0
C680 C 0.72286 0.3919 0.17857 0.0
N681 N 0.60922 0.36419 0.1215 0.0
N682 N 0.70142 0.39463 0.15051 0.0
loop_
_geom_bond_atom_site_label_1
_geom_bond_atom_site_label_2
_geom_bond_distance
_geom_bond_site_symmetry_2
_ccdc_geom_bond_type
H0 C1 0.949 . S
C1 H0 0.949 . S
C1 C2 1.395 . S
C1 C3 1.391 . S
C2 C1 1.395 . S
C2 C5 1.390 . S
C3 C1 1.391 . S
C3 C7 1.387 . S
C3 C8 1.491 . S
H4 C5 0.950 . S
C5 C2 1.390 . S
C5 H4 0.950 . S
C5 C6 1.378 . S
C6 C5 1.378 . S
C6 C7 1.409 . S
C7 C3 1.387 . S
C7 C6 1.409 . S
C7 H9 0.951 . S
C8 C3 1.491 . S
C8 C10 1.382 . S
C8 C12 1.404 . S
H9 C7 0.951 . S
C10 C8 1.382 . S
C10 C11 1.390 . S
C10 H15 0.949 . S
C11 C10 1.390 . S
C11 C16 1.399 . S
C12 C8 1.404 . S
C12 H13 0.950 . S
C12 C14 1.375 . S
H13 C12 0.950 . S
C14 C12 1.375 . S
C14 C16 1.382 . S
C14 H18 0.950 . S
H15 C10 0.949 . S
C16 C11 1.399 . S
C16 C14 1.382 . S
C16 H17 0.952 . S
H17 C16 0.952 . S
H18 C14 0.950 . S
H19 C20 0.949 . S
C20 H19 0.949 . S
C20 C21 1.395 . S
C20 C22 1.391 . S
C21 C20 1.395 . S
C21 C24 1.390 . S
C22 C20 1.391 . S
C22 C26 1.387 . S
C22 C27 1.491 . S
H23 C24 0.950 . S
C24 C21 1.390 . S
C24 H23 0.950 . S
C24 C25 1.378 . S
C25 C24 1.378 . S
C25 C26 1.409 . S
C26 C22 1.387 . S
C26 C25 1.409 . S
C26 H28 0.951 . S
C27 C22 1.491 . S
C27 C29 1.382 . S
C27 C31 1.404 . S
H28 C26 0.951 . S
C29 C27 1.382 . S
C29 C30 1.390 . S
C29 H34 0.949 . S
C30 C29 1.390 . S
C30 C35 1.399 . S
C31 C27 1.404 . S
C31 H32 0.950 . S
C31 C33 1.375 . S
H32 C31 0.950 . S
C33 C31 1.375 . S
C33 C35 1.382 . S
C33 H37 0.950 . S
H34 C29 0.949 . S
C35 C30 1.399 . S
C35 C33 1.382 . S
C35 H36 0.952 . S
H36 C35 0.952 . S
H37 C33 0.950 . S
H38 C39 0.949 . S
C39 H38 0.949 . S
C39 C40 1.395 . S
C39 C41 1.391 . S
C40 C39 1.395 . S
C40 C43 1.390 . S
C41 C39 1.391 . S
C41 C45 1.387 . S
C41 C46 1.491 . S
H42 C43 0.950 . S
C43 C40 1.390 . S
C43 H42 0.950 . S
C43 C44 1.378 . S
C44 C43 1.378 . S
C44 C45 1.409 . S
C45 C41 1.387 . S
C45 C44 1.409 . S
C45 H47 0.951 . S
C46 C41 1.491 . S
C46 C48 1.382 . S
C46 C50 1.404 . S
H47 C45 0.951 . S
C48 C46 1.382 . S
C48 C49 1.390 . S
C48 H53 0.949 . S
C49 C48 1.390 . S
C49 C54 1.399 . S
C50 C46 1.404 . S
C50 H51 0.950 . S
C50 C52 1.375 . S
H51 C50 0.950 . S
C52 C50 1.375 . S
C52 C54 1.382 . S
C52 H56 0.950 . S
H53 C48 0.949 . S
C54 C49 1.399 . S
C54 C52 1.382 . S
C54 H55 0.952 . S
H55 C54 0.952 . S
H56 C52 0.950 . S
H57 C58 0.949 . S
C58 H57 0.949 . S
C58 C59 1.395 . S
C58 C60 1.391 . S
C59 C58 1.395 . S
C59 C62 1.390 . S
C60 C58 1.391 . S
C60 C64 1.387 . S
C60 C65 1.491 . S
H61 C62 0.950 . S
C62 C59 1.390 . S
C62 H61 0.950 . S
C62 C63 1.378 . S
C63 C62 1.378 . S
C63 C64 1.409 . S
C64 C60 1.387 . S
C64 C63 1.409 . S
C64 H66 0.951 . S
C65 C60 1.491 . S
C65 C67 1.382 . S
C65 C69 1.404 . S
H66 C64 0.951 . S
C67 C65 1.382 . S
C67 C68 1.390 . S
C67 H72 0.949 . S
C68 C67 1.390 . S
C68 C73 1.399 . S
C69 C65 1.404 . S
C69 H70 0.950 . S
C69 C71 1.375 . S
H70 C69 0.950 . S
C71 C69 1.375 . S
C71 C73 1.382 . S
C71 H75 0.950 . S
H72 C67 0.949 . S
C73 C68 1.399 . S
C73 C71 1.382 . S
C73 H74 0.952 . S
H74 C73 0.952 . S
H75 C71 0.950 . S
H76 C77 0.949 . S
C77 H76 0.949 . S
C77 C78 1.395 . S
C77 C79 1.391 . S
C78 C77 1.395 . S
C78 C81 1.390 . S
C79 C77 1.391 . S
C79 C83 1.387 . S
C79 C84 1.491 . S
H80 C81 0.950 . S
C81 C78 1.390 . S
C81 H80 0.950 . S
C81 C82 1.378 . S
C82 C81 1.378 . S
C82 C83 1.409 . S
C83 C79 1.387 . S
C83 C82 1.409 . S
C83 H85 0.951 . S
C84 C79 1.491 . S
C84 C86 1.382 . S
C84 C88 1.404 . S
H85 C83 0.951 . S
C86 C84 1.382 . S
C86 C87 1.390 . S
C86 H91 0.949 . S
C87 C86 1.390 . S
C87 C92 1.399 . S
C88 C84 1.404 . S
C88 H89 0.950 . S
C88 C90 1.375 . S
H89 C88 0.950 . S
C90 C88 1.375 . S
C90 C92 1.382 . S
C90 H94 0.950 . S
H91 C86 0.949 . S
C92 C87 1.399 . S
C92 C90 1.382 . S
C92 H93 0.952 . S
H93 C92 0.952 . S
H94 C90 0.950 . S
H95 C96 0.949 . S
C96 H95 0.949 . S
C96 C97 1.395 . S
C96 C98 1.391 . S
C97 C96 1.395 . S
C97 C100 1.390 . S
C98 C96 1.391 . S
C98 C102 1.387 . S
C98 C103 1.491 . S
H99 C100 0.950 . S
C100 C97 1.390 . S
C100 H99 0.950 . S
C100 C101 1.378 . S
C101 C100 1.378 . S
C101 C102 1.409 . S
C102 C98 1.387 . S
C102 C101 1.409 . S
C102 H104 0.951 . S
C103 C98 1.491 . S
C103 C105 1.382 . S
C103 C107 1.404 . S
H104 C102 0.951 . S
C105 C103 1.382 . S
C105 C106 1.390 . S
C105 H110 0.949 . S
C106 C105 1.390 . S
C106 C111 1.399 . S
C107 C103 1.404 . S
C107 H108 0.950 . S
C107 C109 1.375 . S
H108 C107 0.950 . S
C109 C107 1.375 . S
C109 C111 1.382 . S
C109 H113 0.950 . S
H110 C105 0.949 . S
C111 C106 1.399 . S
C111 C109 1.382 . S
C111 H112 0.952 . S
H112 C111 0.952 . S
H113 C109 0.950 . S
H114 C115 0.949 . S
C115 H114 0.949 . S
C115 C116 1.395 . S
C115 C117 1.391 . S
C116 C115 1.395 . S
C116 C119 1.390 . S
C117 C115 1.391 . S
C117 C121 1.387 . S
C117 C122 1.491 . S
H118 C119 0.950 . S
C119 C116 1.390 . S
C119 H118 0.950 . S
C119 C120 1.378 . S
C120 C119 1.378 . S
C120 C121 1.409 . S
C121 C117 1.387 . S
C121 C120 1.409 . S
C121 H123 0.951 . S
C122 C117 1.491 . S
C122 C124 1.382 . S
C122 C126 1.404 . S
H123 C121 0.951 . S
C124 C122 1.382 . S
C124 C125 1.390 . S
C124 H129 0.949 . S
C125 C124 1.390 . S
C125 C130 1.399 . S
C126 C122 1.404 . S
C126 H127 0.950 . S
C126 C128 1.375 . S
H127 C126 0.950 . S
C128 C126 1.375 . S
C128 C130 1.382 . S
C128 H132 0.950 . S
H129 C124 0.949 . S
C130 C125 1.399 . S
C130 C128 1.382 . S
C130 H131 0.952 . S
H131 C130 0.952 . S
H132 C128 0.950 . S
H133 C134 0.949 . S
C134 H133 0.949 . S
C134 C135 1.395 . S
C134 C136 1.391 . S
C135 C134 1.395 . S
C135 C138 1.390 . S
C136 C134 1.391 . S
C136 C140 1.387 . S
C136 C141 1.491 . S
H137 C138 0.950 . S
C138 C135 1.390 . S
C138 H137 0.950 . S
C138 C139 1.378 . S
C139 C138 1.378 . S
C139 C140 1.409 . S
C140 C136 1.387 . S
C140 C139 1.409 . S
C140 H142 0.951 . S
C141 C136 1.491 . S
C141 C143 1.382 . S
C141 C145 1.404 . S
H142 C140 0.951 . S
C143 C141 1.382 . S
C143 C144 1.390 . S
C143 H148 0.949 . S
C144 C143 1.390 . S
C144 C149 1.399 . S
C145 C141 1.404 . S
C145 H146 0.950 . S
C145 C147 1.375 . S
H146 C145 0.950 . S
C147 C145 1.375 . S
C147 C149 1.382 . S
C147 H151 0.950 . S
H148 C143 0.949 . S
C149 C144 1.399 . S
C149 C147 1.382 . S
C149 H150 0.952 . S
H150 C149 0.952 . S
H151 C147 0.950 . S
Co152 O155 2.042 . S
Co152 O162 2.264 . S
Co152 O181 2.286 . S
Co152 O182 2.069 . S
Co152 O184 2.015 . S
Co153 O155 2.122 . S
Co153 O161 2.073 . S
Co153 O162 2.327 . S
Co153 O163 1.976 . S
Co154 O155 2.087 . S
Co154 O157 2.087 . S
Co154 O164 2.111 . S
Co154 O165 2.143 1_455 S
Co154 O169 2.111 . S
Co154 O183 2.143 . S
O155 Co152 2.042 . S
O155 Co153 2.122 . S
O155 Co154 2.087 . S
O155 H156 0.980 . S
H156 O155 0.980 . S
O157 Co154 2.087 . S
O157 Co158 2.042 1_455 S
O157 Co159 2.122 1_455 S
O157 H160 0.980 . S
Co158 O157 2.042 1_655 S
Co158 O166 2.286 . S
Co158 O167 2.069 . S
Co158 O168 2.015 . S
Co158 O171 2.264 . S
Co159 O157 2.122 1_655 S
Co159 O170 1.976 . S
Co159 O171 2.327 . S
Co159 O172 2.072 1_655 S
H160 O157 0.980 . S
O161 Co153 2.073 . S
O161 C176 1.245 . S
O162 Co152 2.264 . S
O162 Co153 2.327 . S
O162 C176 1.257 . S
O163 Co153 1.976 . S
O163 C175 1.251 . S
O164 Co154 2.111 . S
O164 C175 1.274 . S
O165 Co154 2.143 1_655 S
O165 C178 1.246 . S
O166 Co158 2.286 . S
O166 C177 1.259 . S
O167 Co158 2.069 . S
O167 C177 1.289 . S
O168 Co158 2.015 . S
O168 C178 1.257 . S
O169 Co154 2.111 . S
O169 C179 1.274 1_455 S
O170 Co159 1.976 . S
O170 C179 1.251 . S
O171 Co158 2.264 . S
O171 Co159 2.327 . S
O171 C180 1.257 . S
O172 Co159 2.072 1_455 S
O172 C180 1.247 1_455 S
C173 O181 1.259 . S
C173 O182 1.289 . S
C174 O183 1.246 . S
C174 O184 1.257 . S
C175 O163 1.251 . S
C175 O164 1.274 . S
C176 O161 1.245 . S
C176 O162 1.257 . S
C177 O166 1.259 . S
C177 O167 1.289 . S
C178 O165 1.246 . S
C178 O168 1.257 . S
C179 O169 1.274 1_655 S
C179 O170 1.251 . S
C180 O171 1.257 . S
C180 O172 1.247 1_655 S
O181 Co152 2.286 . S
O181 C173 1.259 . S
O182 Co152 2.069 . S
O182 C173 1.289 . S
O183 Co154 2.143 . S
O183 C174 1.246 . S
O184 Co152 2.015 . S
O184 C174 1.257 . S
Co185 O188 2.042 . S
Co185 O195 2.264 . S
Co185 O214 2.286 . S
Co185 O215 2.069 . S
Co185 O217 2.015 . S
Co186 O188 2.122 . S
Co186 O194 2.073 . S
Co186 O195 2.327 . S
Co186 O196 1.976 . S
Co187 O188 2.087 1_545 S
Co187 O190 2.087 . S
Co187 O197 2.111 1_545 S
Co187 O198 2.143 . S
Co187 O202 2.111 . S
Co187 O216 2.143 1_545 S
O188 Co185 2.042 . S
O188 Co186 2.122 . S
O188 Co187 2.087 1_565 S
O188 H189 0.980 1_565 S
H189 O188 0.980 1_545 S
O190 Co187 2.087 . S
O190 Co191 2.042 . S
O190 Co192 2.122 . S
O190 H193 0.980 . S
Co191 O190 2.042 . S
Co191 O199 2.286 . S
Co191 O200 2.069 . S
Co191 O201 2.015 . S
Co191 O204 2.264 . S
Co192 O190 2.122 . S
Co192 O203 1.976 . S
Co192 O204 2.327 . S
Co192 O205 2.073 . S
H193 O190 0.980 . S
O194 Co186 2.073 . S
O194 C209 1.245 . S
O195 Co185 2.264 . S
O195 Co186 2.327 . S
O195 C209 1.257 . S
O196 Co186 1.976 . S
O196 C208 1.251 . S
O197 Co187 2.111 1_565 S
O197 C208 1.274 . S
O198 Co187 2.143 . S
O198 C211 1.246 . S
O199 Co191 2.286 . S
O199 C210 1.259 . S
O200 Co191 2.069 . S
O200 C210 1.289 . S
O201 Co191 2.015 . S
O201 C211 1.257 . S
O202 Co187 2.111 . S
O202 C212 1.274 . S
O203 Co192 1.976 . S
O203 C212 1.251 . S
O204 Co191 2.264 . S
O204 Co192 2.327 . S
O204 C213 1.257 . S
O205 Co192 2.073 . S
O205 C213 1.245 . S
C206 O214 1.259 . S
C206 O215 1.289 . S
C207 O216 1.246 . S
C207 O217 1.257 . S
C208 O196 1.251 . S
C208 O197 1.274 . S
C209 O194 1.245 . S
C209 O195 1.257 . S
C210 O199 1.259 . S
C210 O200 1.289 . S
C211 O198 1.246 . S
C211 O201 1.257 . S
C212 O202 1.274 . S
C212 O203 1.251 . S
C213 O204 1.257 . S
C213 O205 1.245 . S
O214 Co185 2.286 . S
O214 C206 1.259 . S
O215 Co185 2.069 . S
O215 C206 1.289 . S
O216 Co187 2.143 1_565 S
O216 C207 1.246 . S
O217 Co185 2.015 . S
O217 C207 1.257 . S
Co218 O221 2.042 . S
Co218 O228 2.264 . S
Co218 O247 2.286 . S
Co218 O248 2.069 . S
Co218 O250 2.015 . S
Co219 O221 2.122 . S
Co219 O227 2.073 . S
Co219 O228 2.327 . S
Co219 O229 1.976 . S
Co220 O221 2.087 . S
Co220 O223 2.087 1_554 S
Co220 O230 2.111 . S
Co220 O231 2.143 1_554 S
Co220 O235 2.111 1_554 S
Co220 O249 2.143 . S
O221 Co218 2.042 . S
O221 Co219 2.122 . S
O221 Co220 2.087 . S
O221 H222 0.980 . S
H222 O221 0.980 . S
O223 Co220 2.087 1_556 S
O223 Co224 2.042 . S
O223 Co225 2.122 . S
O223 H226 0.980 . S
Co224 O223 2.042 . S
Co224 O232 2.286 . S
Co224 O233 2.069 . S
Co224 O234 2.015 . S
Co224 O237 2.264 . S
Co225 O223 2.122 . S
Co225 O236 1.976 . S
Co225 O237 2.327 . S
Co225 O238 2.073 . S
H226 O223 0.980 . S
O227 Co219 2.073 . S
O227 C242 1.245 . S
O228 Co218 2.264 . S
O228 Co219 2.327 . S
O228 C242 1.257 . S
O229 Co219 1.976 . S
O229 C241 1.251 . S
O230 Co220 2.111 . S
O230 C241 1.274 . S
O231 Co220 2.143 1_556 S
O231 C244 1.246 . S
O232 Co224 2.286 . S
O232 C243 1.259 . S
O233 Co224 2.069 . S
O233 C243 1.289 . S
O234 Co224 2.015 . S
O234 C244 1.257 . S
O235 Co220 2.111 1_556 S
O235 C245 1.274 . S
O236 Co225 1.976 . S
O236 C245 1.251 . S
O237 Co224 2.264 . S
O237 Co225 2.327 . S
O237 C246 1.257 . S
O238 Co225 2.073 . S
O238 C246 1.245 . S
C239 O247 1.259 . S
C239 O248 1.289 . S
C240 O249 1.246 . S
C240 O250 1.257 . S
C241 O229 1.251 . S
C241 O230 1.274 . S
C242 O227 1.245 . S
C242 O228 1.257 . S
C243 O232 1.259 . S
C243 O233 1.289 . S
C244 O231 1.246 . S
C244 O234 1.257 . S
C245 O235 1.274 . S
C245 O236 1.251 . S
C246 O237 1.257 . S
C246 O238 1.245 . S
O247 Co218 2.286 . S
O247 C239 1.259 . S
O248 Co218 2.069 . S
O248 C239 1.289 . S
O249 Co220 2.143 . S
O249 C240 1.246 . S
O250 Co218 2.015 . S
O250 C240 1.257 . S
H251 C257 0.930 . S
H252 C261 0.930 . S
H253 C266 0.929 . S
H254 C264 0.929 . S
H255 C259 0.929 . S
H256 C265 0.929 . S
C257 H251 0.930 . S
C257 C258 1.367 . S
C257 C265 1.378 . S
C258 C257 1.367 . S
C258 C266 1.433 . S
C259 H255 0.929 . S
C259 C261 1.378 . S
C259 C263 1.350 . S
C260 C263 1.463 . S
C260 C265 1.350 . S
C260 N268 1.427 . S
C261 H252 0.930 . S
C261 C259 1.378 . S
C261 C262 1.367 . S
C262 C261 1.367 . S
C262 C264 1.433 . S
C263 C259 1.350 . S
C263 C260 1.463 . S
C263 N267 1.427 . S
C264 H254 0.929 . S
C264 C262 1.433 . S
C264 N267 1.384 . S
C265 H256 0.929 . S
C265 C257 1.378 . S
C265 C260 1.350 . S
C266 H253 0.929 . S
C266 C258 1.433 . S
C266 N268 1.384 . S
N267 C263 1.427 . S
N267 C264 1.384 . S
N268 C260 1.427 . S
N268 C266 1.384 . S
H269 C275 0.930 . S
H270 C279 0.930 . S
H271 C284 0.929 . S
H272 C282 0.929 . S
H273 C277 0.929 . S
H274 C283 0.929 . S
C275 H269 0.930 . S
C275 C276 1.367 . S
C275 C283 1.378 . S
C276 C275 1.367 . S
C276 C284 1.433 . S
C277 H273 0.929 . S
C277 C279 1.378 . S
C277 C281 1.350 . S
C278 C281 1.463 . S
C278 C283 1.350 . S
C278 N286 1.427 . S
C279 H270 0.930 . S
C279 C277 1.378 . S
C279 C280 1.367 . S
C280 C279 1.367 . S
C280 C282 1.433 . S
C281 C277 1.350 . S
C281 C278 1.463 . S
C281 N285 1.427 . S
C282 H272 0.929 . S
C282 C280 1.433 . S
C282 N285 1.384 . S
C283 H274 0.929 . S
C283 C275 1.378 . S
C283 C278 1.350 . S
C284 H271 0.929 . S
C284 C276 1.433 . S
C284 N286 1.384 . S
N285 C281 1.427 . S
N285 C282 1.384 . S
N286 C278 1.427 . S
N286 C284 1.384 . S
H287 C293 0.930 . S
H288 C297 0.930 . S
H289 C302 0.929 . S
H290 C300 0.929 . S
H291 C295 0.929 . S
H292 C301 0.929 . S
C293 H287 0.930 . S
C293 C294 1.367 . S
C293 C301 1.378 . S
C294 C293 1.367 . S
C294 C302 1.433 . S
C295 H291 0.929 . S
C295 C297 1.378 . S
C295 C299 1.350 . S
C296 C299 1.463 . S
C296 C301 1.350 . S
C296 N304 1.427 . S
C297 H288 0.930 . S
C297 C295 1.378 . S
C297 C298 1.367 . S
C298 C297 1.367 . S
C298 C300 1.433 . S
C299 C295 1.350 . S
C299 C296 1.463 . S
C299 N303 1.427 . S
C300 H290 0.929 . S
C300 C298 1.433 . S
C300 N303 1.384 . S
C301 H292 0.929 . S
C301 C293 1.378 . S
C301 C296 1.350 . S
C302 H289 0.929 . S
C302 C294 1.433 . S
C302 N304 1.384 . S
N303 C299 1.427 . S
N303 C300 1.384 . S
N304 C296 1.427 . S
N304 C302 1.384 . S
H305 C311 0.930 . S
H306 C315 0.930 . S
H307 C320 0.929 . S
H308 C318 0.929 . S
H309 C313 0.929 . S
H310 C319 0.929 . S
C311 H305 0.930 . S
C311 C312 1.367 . S
C311 C319 1.378 . S
C312 C311 1.367 . S
C312 C320 1.433 . S
C313 H309 0.929 . S
C313 C315 1.378 . S
C313 C317 1.350 . S
C314 C317 1.463 . S
C314 C319 1.350 . S
C314 N322 1.427 . S
C315 H306 0.930 . S
C315 C313 1.378 . S
C315 C316 1.367 . S
C316 C315 1.367 . S
C316 C318 1.433 . S
C317 C313 1.350 . S
C317 C314 1.463 . S
C317 N321 1.427 . S
C318 H308 0.929 . S
C318 C316 1.433 . S
C318 N321 1.384 . S
C319 H310 0.929 . S
C319 C311 1.378 . S
C319 C314 1.350 . S
C320 H307 0.929 . S
C320 C312 1.433 . S
C320 N322 1.384 . S
N321 C317 1.427 . S
N321 C318 1.384 . S
N322 C314 1.427 . S
N322 C320 1.384 . S
H323 C329 0.930 . S
H324 C333 0.930 . S
H325 C338 0.929 . S
H326 C336 0.929 . S
H327 C331 0.929 . S
H328 C337 0.929 . S
C329 H323 0.930 . S
C329 C330 1.367 . S
C329 C337 1.378 . S
C330 C329 1.367 . S
C330 C338 1.433 . S
C331 H327 0.929 . S
C331 C333 1.378 . S
C331 C335 1.350 . S
C332 C335 1.463 . S
C332 C337 1.350 . S
C332 N340 1.427 . S
C333 H324 0.930 . S
C333 C331 1.378 . S
C333 C334 1.367 . S
C334 C333 1.367 . S
C334 C336 1.433 . S
C335 C331 1.350 . S
C335 C332 1.463 . S
C335 N339 1.427 . S
C336 H326 0.929 . S
C336 C334 1.433 . S
C336 N339 1.384 . S
C337 H328 0.929 . S
C337 C329 1.378 . S
C337 C332 1.350 . S
C338 H325 0.929 . S
C338 C330 1.433 . S
C338 N340 1.384 . S
N339 C335 1.427 . S
N339 C336 1.384 . S
N340 C332 1.427 . S
N340 C338 1.384 . S
H341 C347 0.930 . S
H342 C351 0.930 . S
H343 C356 0.929 . S
H344 C354 0.929 . S
H345 C349 0.929 . S
H346 C355 0.929 . S
C347 H341 0.930 . S
C347 C348 1.367 . S
C347 C355 1.378 . S
C348 C347 1.367 . S
C348 C356 1.433 . S
C349 H345 0.929 . S
C349 C351 1.378 . S
C349 C353 1.350 . S
C350 C353 1.463 . S
C350 C355 1.350 . S
C350 N358 1.427 . S
C351 H342 0.930 . S
C351 C349 1.378 . S
C351 C352 1.367 . S
C352 C351 1.367 . S
C352 C354 1.433 . S
C353 C349 1.350 . S
C353 C350 1.463 . S
C353 N357 1.427 . S
C354 H344 0.929 . S
C354 C352 1.433 . S
C354 N357 1.384 . S
C355 H346 0.929 . S
C355 C347 1.378 . S
C355 C350 1.350 . S
C356 H343 0.929 . S
C356 C348 1.433 . S
C356 N358 1.384 . S
N357 C353 1.427 . S
N357 C354 1.384 . S
N358 C350 1.427 . S
N358 C356 1.384 . S
H359 C365 0.930 . S
H360 C369 0.930 . S
H361 C374 0.929 . S
H362 C372 0.929 . S
H363 C367 0.929 . S
H364 C373 0.929 . S
C365 H359 0.930 . S
C365 C366 1.367 . S
C365 C373 1.378 . S
C366 C365 1.367 . S
C366 C374 1.433 . S
C367 H363 0.929 . S
C367 C369 1.378 . S
C367 C371 1.350 . S
C368 C371 1.463 . S
C368 C373 1.350 . S
C368 N376 1.427 . S
C369 H360 0.930 . S
C369 C367 1.378 . S
C369 C370 1.367 . S
C370 C369 1.367 . S
C370 C372 1.433 . S
C371 C367 1.350 . S
C371 C368 1.463 . S
C371 N375 1.427 . S
C372 H362 0.929 . S
C372 C370 1.433 . S
C372 N375 1.384 . S
C373 H364 0.929 . S
C373 C365 1.378 . S
C373 C368 1.350 . S
C374 H361 0.929 . S
C374 C366 1.433 . S
C374 N376 1.384 . S
N375 C371 1.427 . S
N375 C372 1.384 . S
N376 C368 1.427 . S
N376 C374 1.384 . S
H377 C383 0.930 . S
H378 C387 0.930 . S
H379 C392 0.929 . S
H380 C390 0.929 . S
H381 C385 0.929 . S
H382 C391 0.929 . S
C383 H377 0.930 . S
C383 C384 1.367 . S
C383 C391 1.378 . S
C384 C383 1.367 . S
C384 C392 1.433 . S
C385 H381 0.929 . S
C385 C387 1.378 . S
C385 C389 1.350 . S
C386 C389 1.463 . S
C386 C391 1.350 . S
C386 N394 1.427 . S
C387 H378 0.930 . S
C387 C385 1.378 . S
C387 C388 1.367 . S
C388 C387 1.367 . S
C388 C390 1.433 . S
C389 C385 1.350 . S
C389 C386 1.463 . S
C389 N393 1.427 . S
C390 H380 0.929 . S
C390 C388 1.433 . S
C390 N393 1.384 . S
C391 H382 0.929 . S
C391 C383 1.378 . S
C391 C386 1.350 . S
C392 H379 0.929 . S
C392 C384 1.433 . S
C392 N394 1.384 . S
N393 C389 1.427 . S
N393 C390 1.384 . S
N394 C386 1.427 . S
N394 C392 1.384 . S
H395 C401 0.930 . S
H396 C405 0.930 . S
H397 C410 0.929 . S
H398 C408 0.929 . S
H399 C403 0.929 . S
H400 C409 0.929 . S
C401 H395 0.930 . S
C401 C402 1.367 . S
C401 C409 1.378 . S
C402 C401 1.367 . S
C402 C410 1.433 . S
C403 H399 0.929 . S
C403 C405 1.378 . S
C403 C407 1.350 . S
C404 C407 1.463 . S
C404 C409 1.350 . S
C404 N412 1.427 . S
C405 H396 0.930 . S
C405 C403 1.378 . S
C405 C406 1.367 . S
C406 C405 1.367 . S
C406 C408 1.433 . S
C407 C403 1.350 . S
C407 C404 1.463 . S
C407 N411 1.427 . S
C408 H398 0.929 . S
C408 C406 1.433 . S
C408 N411 1.384 . S
C409 H400 0.929 . S
C409 C401 1.378 . S
C409 C404 1.350 . S
C410 H397 0.929 . S
C410 C402 1.433 . S
C410 N412 1.384 . S
N411 C407 1.427 . S
N411 C408 1.384 . S
N412 C404 1.427 . S
N412 C410 1.384 . S
H413 C419 0.930 . S
H414 C423 0.930 . S
H415 C428 0.929 . S
H416 C426 0.929 . S
H417 C421 0.929 . S
H418 C427 0.929 . S
C419 H413 0.930 . S
C419 C420 1.367 . S
C419 C427 1.378 . S
C420 C419 1.367 . S
C420 C428 1.433 . S
C421 H417 0.929 . S
C421 C423 1.378 . S
C421 C425 1.350 . S
C422 C425 1.463 . S
C422 C427 1.350 . S
C422 N430 1.427 . S
C423 H414 0.930 . S
C423 C421 1.378 . S
C423 C424 1.367 . S
C424 C423 1.367 . S
C424 C426 1.433 . S
C425 C421 1.350 . S
C425 C422 1.463 . S
C425 N429 1.427 . S
C426 H416 0.929 . S
C426 C424 1.433 . S
C426 N429 1.384 . S
C427 H418 0.929 . S
C427 C419 1.378 . S
C427 C422 1.350 . S
C428 H415 0.929 . S
C428 C420 1.433 . S
C428 N430 1.384 . S
N429 C425 1.427 . S
N429 C426 1.384 . S
N430 C422 1.427 . S
N430 C428 1.384 . S
H431 C437 0.930 . S
H432 C441 0.930 . S
H433 C446 0.929 . S
H434 C444 0.929 . S
H435 C439 0.929 . S
H436 C445 0.929 . S
C437 H431 0.930 . S
C437 C438 1.367 . S
C437 C445 1.378 . S
C438 C437 1.367 . S
C438 C446 1.433 . S
C439 H435 0.929 . S
C439 C441 1.378 . S
C439 C443 1.350 . S
C440 C443 1.463 . S
C440 C445 1.350 . S
C440 N448 1.427 . S
C441 H432 0.930 . S
C441 C439 1.378 . S
C441 C442 1.367 . S
C442 C441 1.367 . S
C442 C444 1.433 . S
C443 C439 1.350 . S
C443 C440 1.463 . S
C443 N447 1.427 . S
C444 H434 0.929 . S
C444 C442 1.433 . S
C444 N447 1.384 . S
C445 H436 0.929 . S
C445 C437 1.378 . S
C445 C440 1.350 . S
C446 H433 0.929 . S
C446 C438 1.433 . S
C446 N448 1.384 . S
N447 C443 1.427 . S
N447 C444 1.384 . S
N448 C440 1.427 . S
N448 C446 1.384 . S
H449 C455 0.930 . S
H450 C459 0.930 . S
H451 C464 0.929 . S
H452 C462 0.929 . S
H453 C457 0.929 . S
H454 C463 0.929 . S
C455 H449 0.930 . S
C455 C456 1.367 . S
C455 C463 1.378 . S
C456 C455 1.367 . S
C456 C464 1.433 . S
C457 H453 0.929 . S
C457 C459 1.378 . S
C457 C461 1.350 . S
C458 C461 1.463 . S
C458 C463 1.350 . S
C458 N466 1.427 . S
C459 H450 0.930 . S
C459 C457 1.378 . S
C459 C460 1.367 . S
C460 C459 1.367 . S
C460 C462 1.433 . S
C461 C457 1.350 . S
C461 C458 1.463 . S
C461 N465 1.427 . S
C462 H452 0.929 . S
C462 C460 1.433 . S
C462 N465 1.384 . S
C463 H454 0.929 . S
C463 C455 1.378 . S
C463 C458 1.350 . S
C464 H451 0.929 . S
C464 C456 1.433 . S
C464 N466 1.384 . S
N465 C461 1.427 . S
N465 C462 1.384 . S
N466 C458 1.427 . S
N466 C464 1.384 . S
H467 C473 0.930 . S
H468 C477 0.930 . S
H469 C482 0.929 . S
H470 C480 0.929 . S
H471 C475 0.929 . S
H472 C481 0.929 . S
C473 H467 0.930 . S
C473 C474 1.367 . S
C473 C481 1.378 . S
C474 C473 1.367 . S
C474 C482 1.433 . S
C475 H471 0.929 . S
C475 C477 1.378 . S
C475 C479 1.350 . S
C476 C479 1.463 . S
C476 C481 1.350 . S
C476 N484 1.427 . S
C477 H468 0.930 . S
C477 C475 1.378 . S
C477 C478 1.367 . S
C478 C477 1.367 . S
C478 C480 1.433 . S
C479 C475 1.350 . S
C479 C476 1.463 . S
C479 N483 1.427 . S
C480 H470 0.929 . S
C480 C478 1.433 . S
C480 N483 1.384 . S
C481 H472 0.929 . S
C481 C473 1.378 . S
C481 C476 1.350 . S
C482 H469 0.929 . S
C482 C474 1.433 . S
C482 N484 1.384 . S
N483 C479 1.427 . S
N483 C480 1.384 . S
N484 C476 1.427 . S
N484 C482 1.384 . S
H485 C491 0.930 . S
H486 C495 0.930 . S
H487 C500 0.929 . S
H488 C498 0.929 . S
H489 C493 0.929 . S
H490 C499 0.929 . S
C491 H485 0.930 . S
C491 C492 1.367 . S
C491 C499 1.378 . S
C492 C491 1.367 . S
C492 C500 1.433 . S
C493 H489 0.929 . S
C493 C495 1.378 . S
C493 C497 1.350 . S
C494 C497 1.463 . S
C494 C499 1.350 . S
C494 N502 1.427 . S
C495 H486 0.930 . S
C495 C493 1.378 . S
C495 C496 1.367 . S
C496 C495 1.367 . S
C496 C498 1.433 . S
C497 C493 1.350 . S
C497 C494 1.463 . S
C497 N501 1.427 . S
C498 H488 0.929 . S
C498 C496 1.433 . S
C498 N501 1.384 . S
C499 H490 0.929 . S
C499 C491 1.378 . S
C499 C494 1.350 . S
C500 H487 0.929 . S
C500 C492 1.433 . S
C500 N502 1.384 . S
N501 C497 1.427 . S
N501 C498 1.384 . S
N502 C494 1.427 . S
N502 C500 1.384 . S
H503 C509 0.930 . S
H504 C513 0.930 . S
H505 C518 0.929 . S
H506 C516 0.929 . S
H507 C511 0.929 . S
H508 C517 0.929 . S
C509 H503 0.930 . S
C509 C510 1.367 . S
C509 C517 1.378 . S
C510 C509 1.367 . S
C510 C518 1.433 . S
C511 H507 0.929 . S
C511 C513 1.378 . S
C511 C515 1.350 . S
C512 C515 1.463 . S
C512 C517 1.350 . S
C512 N520 1.427 . S
C513 H504 0.930 . S
C513 C511 1.378 . S
C513 C514 1.367 . S
C514 C513 1.367 . S
C514 C516 1.433 . S
C515 C511 1.350 . S
C515 C512 1.463 . S
C515 N519 1.427 . S
C516 H506 0.929 . S
C516 C514 1.433 . S
C516 N519 1.384 . S
C517 H508 0.929 . S
C517 C509 1.378 . S
C517 C512 1.350 . S
C518 H505 0.929 . S
C518 C510 1.433 . S
C518 N520 1.384 . S
N519 C515 1.427 . S
N519 C516 1.384 . S
N520 C512 1.427 . S
N520 C518 1.384 . S
H521 C527 0.930 . S
H522 C531 0.930 . S
H523 C536 0.929 . S
H524 C534 0.929 . S
H525 C529 0.929 . S
H526 C535 0.929 . S
C527 H521 0.930 . S
C527 C528 1.367 . S
C527 C535 1.378 . S
C528 C527 1.367 . S
C528 C536 1.433 . S
C529 H525 0.929 . S
C529 C531 1.378 . S
C529 C533 1.350 . S
C530 C533 1.463 . S
C530 C535 1.350 . S
C530 N538 1.427 . S
C531 H522 0.930 . S
C531 C529 1.378 . S
C531 C532 1.367 . S
C532 C531 1.367 . S
C532 C534 1.433 . S
C533 C529 1.350 . S
C533 C530 1.463 . S
C533 N537 1.427 . S
C534 H524 0.929 . S
C534 C532 1.433 . S
C534 N537 1.384 . S
C535 H526 0.929 . S
C535 C527 1.378 . S
C535 C530 1.350 . S
C536 H523 0.929 . S
C536 C528 1.433 . S
C536 N538 1.384 . S
N537 C533 1.427 . S
N537 C534 1.384 . S
N538 C530 1.427 . S
N538 C536 1.384 . S
H539 C545 0.930 . S
H540 C549 0.930 . S
H541 C554 0.929 . S
H542 C552 0.929 . S
H543 C547 0.929 . S
H544 C553 0.929 . S
C545 H539 0.930 . S
C545 C546 1.367 . S
C545 C553 1.378 . S
C546 C545 1.367 . S
C546 C554 1.433 . S
C547 H543 0.929 . S
C547 C549 1.378 . S
C547 C551 1.350 . S
C548 C551 1.463 . S
C548 C553 1.350 . S
C548 N556 1.427 . S
C549 H540 0.930 . S
C549 C547 1.378 . S
C549 C550 1.367 . S
C550 C549 1.367 . S
C550 C552 1.433 . S
C551 C547 1.350 . S
C551 C548 1.463 . S
C551 N555 1.427 . S
C552 H542 0.929 . S
C552 C550 1.433 . S
C552 N555 1.384 . S
C553 H544 0.929 . S
C553 C545 1.378 . S
C553 C548 1.350 . S
C554 H541 0.929 . S
C554 C546 1.433 . S
C554 N556 1.384 . S
N555 C551 1.427 . S
N555 C552 1.384 . S
N556 C548 1.427 . S
N556 C554 1.384 . S
H557 C563 0.930 . S
H558 C567 0.930 . S
H559 C572 0.929 . S
H560 C570 0.929 . S
H561 C565 0.929 . S
H562 C571 0.929 . S
C563 H557 0.930 . S
C563 C564 1.367 . S
C563 C571 1.378 . S
C564 C563 1.367 . S
C564 C572 1.433 . S
C565 H561 0.929 . S
C565 C567 1.378 . S
C565 C569 1.350 . S
C566 C569 1.463 . S
C566 C571 1.350 . S
C566 N574 1.427 . S
C567 H558 0.930 . S
C567 C565 1.378 . S
C567 C568 1.367 . S
C568 C567 1.367 . S
C568 C570 1.433 . S
C569 C565 1.350 . S
C569 C566 1.463 . S
C569 N573 1.427 . S
C570 H560 0.929 . S
C570 C568 1.433 . S
C570 N573 1.384 . S
C571 H562 0.929 . S
C571 C563 1.378 . S
C571 C566 1.350 . S
C572 H559 0.929 . S
C572 C564 1.433 . S
C572 N574 1.384 . S
N573 C569 1.427 . S
N573 C570 1.384 . S
N574 C566 1.427 . S
N574 C572 1.384 . S
H575 C581 0.930 . S
H576 C585 0.930 . S
H577 C590 0.929 . S
H578 C588 0.929 . S
H579 C583 0.929 . S
H580 C589 0.929 . S
C581 H575 0.930 . S
C581 C582 1.367 . S
C581 C589 1.378 . S
C582 C581 1.367 . S
C582 C590 1.433 . S
C583 H579 0.929 . S
C583 C585 1.378 . S
C583 C587 1.350 . S
C584 C587 1.463 . S
C584 C589 1.350 . S
C584 N592 1.427 . S
C585 H576 0.930 . S
C585 C583 1.378 . S
C585 C586 1.367 . S
C586 C585 1.367 . S
C586 C588 1.433 . S
C587 C583 1.350 . S
C587 C584 1.463 . S
C587 N591 1.427 . S
C588 H578 0.929 . S
C588 C586 1.433 . S
C588 N591 1.384 . S
C589 H580 0.929 . S
C589 C581 1.378 . S
C589 C584 1.350 . S
C590 H577 0.929 . S
C590 C582 1.433 . S
C590 N592 1.384 . S
N591 C587 1.427 . S
N591 C588 1.384 . S
N592 C584 1.427 . S
N592 C590 1.384 . S
H593 C599 0.930 . S
H594 C603 0.930 . S
H595 C608 0.929 . S
H596 C606 0.929 . S
H597 C601 0.929 . S
H598 C607 0.929 . S
C599 H593 0.930 . S
C599 C600 1.367 . S
C599 C607 1.378 . S
C600 C599 1.367 . S
C600 C608 1.433 . S
C601 H597 0.929 . S
C601 C603 1.378 . S
C601 C605 1.350 . S
C602 C605 1.463 . S
C602 C607 1.350 . S
C602 N610 1.427 . S
C603 H594 0.930 . S
C603 C601 1.378 . S
C603 C604 1.367 . S
C604 C603 1.367 . S
C604 C606 1.433 . S
C605 C601 1.350 . S
C605 C602 1.463 . S
C605 N609 1.427 . S
C606 H596 0.929 . S
C606 C604 1.433 . S
C606 N609 1.384 . S
C607 H598 0.929 . S
C607 C599 1.378 . S
C607 C602 1.350 . S
C608 H595 0.929 . S
C608 C600 1.433 . S
C608 N610 1.384 . S
N609 C605 1.427 . S
N609 C606 1.384 . S
N610 C602 1.427 . S
N610 C608 1.384 . S
H611 C617 0.930 . S
H612 C621 0.930 . S
H613 C626 0.929 . S
H614 C624 0.929 . S
H615 C619 0.929 . S
H616 C625 0.929 . S
C617 H611 0.930 . S
C617 C618 1.367 . S
C617 C625 1.378 . S
C618 C617 1.367 . S
C618 C626 1.433 . S
C619 H615 0.929 . S
C619 C621 1.378 . S
C619 C623 1.350 . S
C620 C623 1.463 . S
C620 C625 1.350 . S
C620 N628 1.427 . S
C621 H612 0.930 . S
C621 C619 1.378 . S
C621 C622 1.367 . S
C622 C621 1.367 . S
C622 C624 1.433 . S
C623 C619 1.350 . S
C623 C620 1.463 . S
C623 N627 1.427 . S
C624 H614 0.929 . S
C624 C622 1.433 . S
C624 N627 1.384 . S
C625 H616 0.929 . S
C625 C617 1.378 . S
C625 C620 1.350 . S
C626 H613 0.929 . S
C626 C618 1.433 . S
C626 N628 1.384 . S
N627 C623 1.427 . S
N627 C624 1.384 . S
N628 C620 1.427 . S
N628 C626 1.384 . S
H629 C635 0.930 . S
H630 C639 0.930 . S
H631 C644 0.929 . S
H632 C642 0.929 . S
H633 C637 0.929 . S
H634 C643 0.929 . S
C635 H629 0.930 . S
C635 C636 1.367 . S
C635 C643 1.378 . S
C636 C635 1.367 . S
C636 C644 1.433 . S
C637 H633 0.929 . S
C637 C639 1.378 . S
C637 C641 1.350 . S
C638 C641 1.463 . S
C638 C643 1.350 . S
C638 N646 1.427 . S
C639 H630 0.930 . S
C639 C637 1.378 . S
C639 C640 1.367 . S
C640 C639 1.367 . S
C640 C642 1.433 . S
C641 C637 1.350 . S
C641 C638 1.463 . S
C641 N645 1.427 . S
C642 H632 0.929 . S
C642 C640 1.433 . S
C642 N645 1.384 . S
C643 H634 0.929 . S
C643 C635 1.378 . S
C643 C638 1.350 . S
C644 H631 0.929 . S
C644 C636 1.433 . S
C644 N646 1.384 . S
N645 C641 1.427 . S
N645 C642 1.384 . S
N646 C638 1.427 . S
N646 C644 1.384 . S
H647 C653 0.930 . S
H648 C657 0.930 . S
H649 C662 0.929 . S
H650 C660 0.929 . S
H651 C655 0.929 . S
H652 C661 0.929 . S
C653 H647 0.930 . S
C653 C654 1.367 . S
C653 C661 1.378 . S
C654 C653 1.367 . S
C654 C662 1.433 . S
C655 H651 0.929 . S
C655 C657 1.378 . S
C655 C659 1.350 . S
C656 C659 1.463 . S
C656 C661 1.350 . S
C656 N664 1.427 . S
C657 H648 0.930 . S
C657 C655 1.378 . S
C657 C658 1.367 . S
C658 C657 1.367 . S
C658 C660 1.433 . S
C659 C655 1.350 . S
C659 C656 1.463 . S
C659 N663 1.427 . S
C660 H650 0.929 . S
C660 C658 1.433 . S
C660 N663 1.384 . S
C661 H652 0.929 . S
C661 C653 1.378 . S
C661 C656 1.350 . S
C662 H649 0.929 . S
C662 C654 1.433 . S
C662 N664 1.384 . S
N663 C659 1.427 . S
N663 C660 1.384 . S
N664 C656 1.427 . S
N664 C662 1.384 . S
H665 C671 0.930 . S
H666 C675 0.930 . S
H667 C680 0.929 . S
H668 C678 0.929 . S
H669 C673 0.929 . S
H670 C679 0.929 . S
C671 H665 0.930 . S
C671 C672 1.367 . S
C671 C679 1.378 . S
C672 C671 1.367 . S
C672 C680 1.433 . S
C673 H669 0.929 . S
C673 C675 1.378 . S
C673 C677 1.350 . S
C674 C677 1.463 . S
C674 C679 1.350 . S
C674 N682 1.427 . S
C675 H666 0.930 . S
C675 C673 1.378 . S
C675 C676 1.367 . S
C676 C675 1.367 . S
C676 C678 1.433 . S
C677 C673 1.350 . S
C677 C674 1.463 . S
C677 N681 1.427 . S
C678 H668 0.929 . S
C678 C676 1.433 . S
C678 N681 1.384 . S
C679 H670 0.929 . S
C679 C671 1.378 . S
C679 C674 1.350 . S
C680 H667 0.929 . S
C680 C672 1.433 . S
C680 N682 1.384 . S
N681 C677 1.427 . S
N681 C678 1.384 . S
N682 C674 1.427 . S
N682 C680 1.384 . S
C262 C176 1.458 . S
C258 C11 1.422 . S
C280 C212 1.223 . S
C276 C25 1.289 . S
C298 C177 1.828 . S
C294 C40 1.826 . S
C316 C207 1.597 . S
C312 C59 1.656 . S
C334 C174 1.411 . S
C330 C82 1.469 . S
C348 C101 2.084 . S
C352 C210 2.080 . S
C366 C116 0.460 . S
C370 C179 0.595 . S
C388 C209 1.528 . S
C384 C144 1.375 . S
C406 C213 1.980 . S
C402 C2 2.001 . S
C424 C178 0.956 . S
C420 C21 0.979 . S
C442 C206 1.663 . S
C438 C49 1.428 . S
C460 C175 1.164 . S
C456 C63 1.302 . S
C478 C208 1.827 . S
C474 C78 1.948 . S
C492 C106 1.320 . S
C496 C173 1.355 . S
C510 C120 1.025 . S
C514 C211 1.023 . S
C532 C180 1.671 . S
C528 C135 1.734 . S
C550 C242 2.028 . S
C546 C6 2.123 . S
C564 C87 1.690 . S
C568 C245 1.754 . S
C586 C244 2.220 . S
C582 C97 2.273 . S
C600 C125 0.894 . S
C604 C243 0.955 . S
C622 C246 2.094 . S
C618 C139 2.216 . S
C636 C44 2.071 . S
C640 C240 1.998 . S
C658 C239 1.957 . S
C654 C68 1.886 . S
C672 C30 0.756 . S
C676 C241 0.774 . S
