# Generated by pormake.
# Topology bwt, (3,3)-cn, num edge types: 1
# Building blocks:
#     Node 0, Type 0, BuildingBlock: WUSLED_clean_sbu_0, # of connection points: 3
#     Node 1, Type 0, BuildingBlock: WUSLED_clean_sbu_0, # of connection points: 3
#     Node 2, Type 0, BuildingBlock: WUSLED_clean_sbu_0, # of connection points: 3
#     Node 3, Type 0, BuildingBlock: WUSLED_clean_sbu_0, # of connection points: 3
#     Node 4, Type 0, BuildingBlock: WUSLED_clean_sbu_0, # of connection points: 3
#     Node 5, Type 0, BuildingBlock: WUSLED_clean_sbu_0, # of connection points: 3
#     Node 6, Type 0, BuildingBlock: WUSLED_clean_sbu_0, # of connection points: 3
#     Node 7, Type 0, BuildingBlock: WUSLED_clean_sbu_0, # of connection points: 3
#     Node 8, Type 0, BuildingBlock: WUSLED_clean_sbu_0, # of connection points: 3
#     Node 9, Type 0, BuildingBlock: WUSLED_clean_sbu_0, # of connection points: 3
#     Node 10, Type 0, BuildingBlock: WUSLED_clean_sbu_0, # of connection points: 3
#     Node 11, Type 0, BuildingBlock: WUSLED_clean_sbu_0, # of connection points: 3
#     Node 12, Type 0, BuildingBlock: WUSLED_clean_sbu_0, # of connection points: 3
#     Node 13, Type 0, BuildingBlock: WUSLED_clean_sbu_0, # of connection points: 3
#     Node 14, Type 0, BuildingBlock: WUSLED_clean_sbu_0, # of connection points: 3
#     Node 15, Type 0, BuildingBlock: WUSLED_clean_sbu_0, # of connection points: 3
#     Node 16, Type 0, BuildingBlock: WUSLED_clean_sbu_0, # of connection points: 3
#     Node 17, Type 0, BuildingBlock: WUSLED_clean_sbu_0, # of connection points: 3
#     Node 18, Type 0, BuildingBlock: WUSLED_clean_sbu_0, # of connection points: 3
#     Node 19, Type 0, BuildingBlock: WUSLED_clean_sbu_0, # of connection points: 3
#     Node 20, Type 0, BuildingBlock: WUSLED_clean_sbu_0, # of connection points: 3
#     Node 21, Type 0, BuildingBlock: WUSLED_clean_sbu_0, # of connection points: 3
#     Node 22, Type 0, BuildingBlock: WUSLED_clean_sbu_0, # of connection points: 3
#     Node 23, Type 0, BuildingBlock: WUSLED_clean_sbu_0, # of connection points: 3
#     Node 24, Type 1, BuildingBlock: CUQRIR_clean_linker_1, # of connection points: 3
#     Node 25, Type 1, BuildingBlock: CUQRIR_clean_linker_1, # of connection points: 3
#     Node 26, Type 1, BuildingBlock: CUQRIR_clean_linker_1, # of connection points: 3
#     Node 27, Type 1, BuildingBlock: CUQRIR_clean_linker_1, # of connection points: 3
#     Node 28, Type 1, BuildingBlock: CUQRIR_clean_linker_1, # of connection points: 3
#     Node 29, Type 1, BuildingBlock: CUQRIR_clean_linker_1, # of connection points: 3
#     Node 30, Type 1, BuildingBlock: CUQRIR_clean_linker_1, # of connection points: 3
#     Node 31, Type 1, BuildingBlock: CUQRIR_clean_linker_1, # of connection points: 3
#     Node 32, Type 1, BuildingBlock: CUQRIR_clean_linker_1, # of connection points: 3
#     Node 33, Type 1, BuildingBlock: CUQRIR_clean_linker_1, # of connection points: 3
#     Node 34, Type 1, BuildingBlock: CUQRIR_clean_linker_1, # of connection points: 3
#     Node 35, Type 1, BuildingBlock: CUQRIR_clean_linker_1, # of connection points: 3
#     Node 36, Type 1, BuildingBlock: CUQRIR_clean_linker_1, # of connection points: 3
#     Node 37, Type 1, BuildingBlock: CUQRIR_clean_linker_1, # of connection points: 3
#     Node 38, Type 1, BuildingBlock: CUQRIR_clean_linker_1, # of connection points: 3
#     Node 39, Type 1, BuildingBlock: CUQRIR_clean_linker_1, # of connection points: 3
#     Node 40, Type 1, BuildingBlock: CUQRIR_clean_linker_1, # of connection points: 3
#     Node 41, Type 1, BuildingBlock: CUQRIR_clean_linker_1, # of connection points: 3
#     Node 42, Type 1, BuildingBlock: CUQRIR_clean_linker_1, # of connection points: 3
#     Node 43, Type 1, BuildingBlock: CUQRIR_clean_linker_1, # of connection points: 3
#     Node 44, Type 1, BuildingBlock: CUQRIR_clean_linker_1, # of connection points: 3
#     Node 45, Type 1, BuildingBlock: CUQRIR_clean_linker_1, # of connection points: 3
#     Node 46, Type 1, BuildingBlock: CUQRIR_clean_linker_1, # of connection points: 3
#     Node 47, Type 1, BuildingBlock: CUQRIR_clean_linker_1, # of connection points: 3
#     Edge 48, Type (0, 1), BuildingBlock: TEMPAE_clean_linker_10, # of connection points: 2
#     Edge 49, Type (0, 1), BuildingBlock: TEMPAE_clean_linker_10, # of connection points: 2
#     Edge 50, Type (0, 1), BuildingBlock: TEMPAE_clean_linker_10, # of connection points: 2
#     Edge 51, Type (0, 1), BuildingBlock: TEMPAE_clean_linker_10, # of connection points: 2
#     Edge 52, Type (0, 1), BuildingBlock: TEMPAE_clean_linker_10, # of connection points: 2
#     Edge 53, Type (0, 1), BuildingBlock: TEMPAE_clean_linker_10, # of connection points: 2
#     Edge 54, Type (0, 1), BuildingBlock: TEMPAE_clean_linker_10, # of connection points: 2
#     Edge 55, Type (0, 1), BuildingBlock: TEMPAE_clean_linker_10, # of connection points: 2
#     Edge 56, Type (0, 1), BuildingBlock: TEMPAE_clean_linker_10, # of connection points: 2
#     Edge 57, Type (0, 1), BuildingBlock: TEMPAE_clean_linker_10, # of connection points: 2
#     Edge 58, Type (0, 1), BuildingBlock: TEMPAE_clean_linker_10, # of connection points: 2
#     Edge 59, Type (0, 1), BuildingBlock: TEMPAE_clean_linker_10, # of connection points: 2
#     Edge 60, Type (0, 1), BuildingBlock: TEMPAE_clean_linker_10, # of connection points: 2
#     Edge 61, Type (0, 1), BuildingBlock: TEMPAE_clean_linker_10, # of connection points: 2
#     Edge 62, Type (0, 1), BuildingBlock: TEMPAE_clean_linker_10, # of connection points: 2
#     Edge 63, Type (0, 1), BuildingBlock: TEMPAE_clean_linker_10, # of connection points: 2
#     Edge 64, Type (0, 1), BuildingBlock: TEMPAE_clean_linker_10, # of connection points: 2
#     Edge 65, Type (0, 1), BuildingBlock: TEMPAE_clean_linker_10, # of connection points: 2
#     Edge 66, Type (0, 1), BuildingBlock: TEMPAE_clean_linker_10, # of connection points: 2
#     Edge 67, Type (0, 1), BuildingBlock: TEMPAE_clean_linker_10, # of connection points: 2
#     Edge 68, Type (0, 1), BuildingBlock: TEMPAE_clean_linker_10, # of connection points: 2
#     Edge 69, Type (0, 1), BuildingBlock: TEMPAE_clean_linker_10, # of connection points: 2
#     Edge 70, Type (0, 1), BuildingBlock: TEMPAE_clean_linker_10, # of connection points: 2
#     Edge 71, Type (0, 1), BuildingBlock: TEMPAE_clean_linker_10, # of connection points: 2
#     Edge 72, Type (0, 1), BuildingBlock: TEMPAE_clean_linker_10, # of connection points: 2
#     Edge 73, Type (0, 1), BuildingBlock: TEMPAE_clean_linker_10, # of connection points: 2
#     Edge 74, Type (0, 1), BuildingBlock: TEMPAE_clean_linker_10, # of connection points: 2
#     Edge 75, Type (0, 1), BuildingBlock: TEMPAE_clean_linker_10, # of connection points: 2
#     Edge 76, Type (0, 1), BuildingBlock: TEMPAE_clean_linker_10, # of connection points: 2
#     Edge 77, Type (0, 1), BuildingBlock: TEMPAE_clean_linker_10, # of connection points: 2
#     Edge 78, Type (0, 1), BuildingBlock: TEMPAE_clean_linker_10, # of connection points: 2
#     Edge 79, Type (0, 1), BuildingBlock: TEMPAE_clean_linker_10, # of connection points: 2
#     Edge 80, Type (0, 1), BuildingBlock: TEMPAE_clean_linker_10, # of connection points: 2
#     Edge 81, Type (0, 1), BuildingBlock: TEMPAE_clean_linker_10, # of connection points: 2
#     Edge 82, Type (0, 1), BuildingBlock: TEMPAE_clean_linker_10, # of connection points: 2
#     Edge 83, Type (0, 1), BuildingBlock: TEMPAE_clean_linker_10, # of connection points: 2
#     Edge 84, Type (0, 1), BuildingBlock: TEMPAE_clean_linker_10, # of connection points: 2
#     Edge 85, Type (0, 1), BuildingBlock: TEMPAE_clean_linker_10, # of connection points: 2
#     Edge 86, Type (0, 1), BuildingBlock: TEMPAE_clean_linker_10, # of connection points: 2
#     Edge 87, Type (0, 1), BuildingBlock: TEMPAE_clean_linker_10, # of connection points: 2
#     Edge 88, Type (0, 1), BuildingBlock: TEMPAE_clean_linker_10, # of connection points: 2
#     Edge 89, Type (0, 1), BuildingBlock: TEMPAE_clean_linker_10, # of connection points: 2
#     Edge 90, Type (0, 1), BuildingBlock: TEMPAE_clean_linker_10, # of connection points: 2
#     Edge 91, Type (0, 1), BuildingBlock: TEMPAE_clean_linker_10, # of connection points: 2
#     Edge 92, Type (0, 1), BuildingBlock: TEMPAE_clean_linker_10, # of connection points: 2
#     Edge 93, Type (0, 1), BuildingBlock: TEMPAE_clean_linker_10, # of connection points: 2
#     Edge 94, Type (0, 1), BuildingBlock: TEMPAE_clean_linker_10, # of connection points: 2
#     Edge 95, Type (0, 1), BuildingBlock: TEMPAE_clean_linker_10, # of connection points: 2
#     Edge 96, Type (0, 1), BuildingBlock: TEMPAE_clean_linker_10, # of connection points: 2
#     Edge 97, Type (0, 1), BuildingBlock: TEMPAE_clean_linker_10, # of connection points: 2
#     Edge 98, Type (0, 1), BuildingBlock: TEMPAE_clean_linker_10, # of connection points: 2
#     Edge 99, Type (0, 1), BuildingBlock: TEMPAE_clean_linker_10, # of connection points: 2
#     Edge 100, Type (0, 1), BuildingBlock: TEMPAE_clean_linker_10, # of connection points: 2
#     Edge 101, Type (0, 1), BuildingBlock: TEMPAE_clean_linker_10, # of connection points: 2
#     Edge 102, Type (0, 1), BuildingBlock: TEMPAE_clean_linker_10, # of connection points: 2
#     Edge 103, Type (0, 1), BuildingBlock: TEMPAE_clean_linker_10, # of connection points: 2
#     Edge 104, Type (0, 1), BuildingBlock: TEMPAE_clean_linker_10, # of connection points: 2
#     Edge 105, Type (0, 1), BuildingBlock: TEMPAE_clean_linker_10, # of connection points: 2
#     Edge 106, Type (0, 1), BuildingBlock: TEMPAE_clean_linker_10, # of connection points: 2
#     Edge 107, Type (0, 1), BuildingBlock: TEMPAE_clean_linker_10, # of connection points: 2
#     Edge 108, Type (0, 1), BuildingBlock: TEMPAE_clean_linker_10, # of connection points: 2
#     Edge 109, Type (0, 1), BuildingBlock: TEMPAE_clean_linker_10, # of connection points: 2
#     Edge 110, Type (0, 1), BuildingBlock: TEMPAE_clean_linker_10, # of connection points: 2
#     Edge 111, Type (0, 1), BuildingBlock: TEMPAE_clean_linker_10, # of connection points: 2
#     Edge 112, Type (0, 1), BuildingBlock: TEMPAE_clean_linker_10, # of connection points: 2
#     Edge 113, Type (0, 1), BuildingBlock: TEMPAE_clean_linker_10, # of connection points: 2
#     Edge 114, Type (0, 1), BuildingBlock: TEMPAE_clean_linker_10, # of connection points: 2
#     Edge 115, Type (0, 1), BuildingBlock: TEMPAE_clean_linker_10, # of connection points: 2
#     Edge 116, Type (0, 1), BuildingBlock: TEMPAE_clean_linker_10, # of connection points: 2
#     Edge 117, Type (0, 1), BuildingBlock: TEMPAE_clean_linker_10, # of connection points: 2
#     Edge 118, Type (0, 1), BuildingBlock: TEMPAE_clean_linker_10, # of connection points: 2
#     Edge 119, Type (0, 1), BuildingBlock: TEMPAE_clean_linker_10, # of connection points: 2
# Relax obj value: 0.125
# Max RMSD: 0.182
# Mean RMSD: 0.087
data_MOF--net-bwt--node1-WUSLED_clean_sbu_0--node2-CUQRIR_clean_linker_1--edge1-TEMPAE_clean_linker_10
_symmetry_space_group_name_H-M    P1
_symmetry_Int_Tables_number       1
_symmetry_cell_setting            triclinic
loop_
_symmetry_equiv_pos_as_xyz
'x, y, z'
_cell_length_a     64.376873
_cell_length_b     64.458178
_cell_length_c     64.392462
_cell_angle_alpha  96.361754
_cell_angle_beta   96.351779
_cell_angle_gamma 96.38288
loop_
_atom_site_label
_atom_site_type_symbol
_atom_site_fract_x
_atom_site_fract_y
_atom_site_fract_z
_atom_type_partial_charge
C0 C 0.31219 0.66281 0.36233 0.0
C1 C 0.32168 0.64457 0.36525 0.0
C2 C 0.35391 0.65964 0.35289 0.0
C3 C 0.3421 0.64291 0.36037 0.0
C4 C 0.3443 0.67793 0.34997 0.0
C5 C 0.32363 0.6794 0.35447 0.0
U6 U 0.2735 0.65349 0.40108 0.0
O7 O 0.25004 0.67202 0.41407 0.0
O8 O 0.2401 0.64028 0.39736 0.0
C9 C 0.23424 0.65724 0.40715 0.0
C10 C 0.29092 0.66491 0.36849 0.0
C11 C 0.21435 0.66388 0.39805 0.0
C12 C 0.19328 0.67953 0.37159 0.0
C13 C 0.21289 0.67449 0.38014 0.0
C14 C 0.17665 0.66364 0.39891 0.0
C15 C 0.17487 0.67387 0.38073 0.0
C16 C 0.19615 0.65873 0.40744 0.0
C17 C 0.29618 0.62617 0.44779 0.0
C18 C 0.28031 0.61977 0.47945 0.0
C19 C 0.31046 0.6026 0.47096 0.0
C20 C 0.31099 0.61261 0.45287 0.0
C21 C 0.29505 0.60593 0.48442 0.0
C22 C 0.2808 0.62976 0.46118 0.0
C23 C 0.29726 0.63605 0.42834 0.0
O24 O 0.27846 0.64718 0.36783 0.0
O25 O 0.2904 0.67799 0.38557 0.0
O26 O 0.2962 0.6564 0.42977 0.0
O27 O 0.28626 0.62549 0.41131 0.0
H28 H 0.31334 0.63152 0.37141 0.0
H29 H 0.34852 0.62834 0.36237 0.0
H30 H 0.35285 0.69135 0.34462 0.0
H31 H 0.31676 0.69373 0.35232 0.0
H32 H 0.19242 0.68727 0.35748 0.0
H33 H 0.22677 0.67856 0.37263 0.0
H34 H 0.16289 0.65929 0.4065 0.0
H35 H 0.19695 0.65059 0.42131 0.0
H36 H 0.26823 0.62261 0.48949 0.0
H37 H 0.32228 0.59237 0.47454 0.0
H38 H 0.32303 0.60973 0.44277 0.0
H39 H 0.26918 0.64016 0.45746 0.0
C40 C 0.20896 0.34125 0.77799 0.0
C41 C 0.19636 0.34022 0.79442 0.0
C42 C 0.16475 0.33297 0.76902 0.0
C43 C 0.17444 0.33594 0.78996 0.0
C44 C 0.17745 0.33365 0.75262 0.0
C45 C 0.19937 0.33771 0.75708 0.0
U46 U 0.25502 0.37365 0.8125 0.0
O47 O 0.28731 0.36722 0.82254 0.0
O48 O 0.28215 0.39369 0.80463 0.0
C49 C 0.29589 0.38237 0.81296 0.0
C50 C 0.23184 0.34774 0.78242 0.0
C51 C 0.31248 0.37701 0.80007 0.0
C52 C 0.3245 0.3675 0.76619 0.0
C53 C 0.30808 0.37086 0.77826 0.0
C54 C 0.3497 0.37581 0.79769 0.0
C55 C 0.34553 0.37014 0.77577 0.0
C56 C 0.33333 0.37922 0.80969 0.0
C57 C 0.24372 0.40868 0.86044 0.0
C58 C 0.27094 0.42625 0.88788 0.0
C59 C 0.23774 0.44039 0.88184 0.0
C60 C 0.23063 0.42389 0.8658 0.0
C61 C 0.25805 0.44185 0.89287 0.0
C62 C 0.26388 0.40986 0.87167 0.0
C63 C 0.23659 0.39266 0.84221 0.0
O64 O 0.2377 0.36757 0.78058 0.0
O65 O 0.24143 0.34143 0.79929 0.0
O66 O 0.24308 0.37411 0.84325 0.0
O67 O 0.23785 0.39942 0.82383 0.0
H68 H 0.20342 0.34321 0.81071 0.0
H69 H 0.16502 0.33571 0.8029 0.0
H70 H 0.17039 0.33124 0.73633 0.0
H71 H 0.2088 0.33858 0.7442 0.0
H72 H 0.32076 0.36294 0.74938 0.0
H73 H 0.29204 0.36901 0.77055 0.0
H74 H 0.36572 0.37826 0.80552 0.0
H75 H 0.33702 0.38405 0.82648 0.0
H76 H 0.28674 0.42716 0.89599 0.0
H77 H 0.22747 0.45215 0.88547 0.0
H78 H 0.21505 0.42327 0.85724 0.0
H79 H 0.27435 0.39841 0.86761 0.0
C80 C 0.68824 0.97859 0.63202 0.0
C81 C 0.70666 0.98845 0.62564 0.0
C82 C 0.72825 0.97254 0.65135 0.0
C83 C 0.72644 0.98556 0.63531 0.0
C84 C 0.70986 0.96244 0.65755 0.0
C85 C 0.69 0.96554 0.64802 0.0
U86 U 0.65209 0.97949 0.58194 0.0
O87 O 0.61837 0.96813 0.57275 0.0
O88 O 0.63007 0.00146 0.57267 0.0
C89 C 0.61349 0.9872 0.57103 0.0
C90 C 0.66726 0.98127 0.62162 0.0
C91 C 0.59598 0.99333 0.58234 0.0
C92 C 0.58279 0.01324 0.61134 0.0
C93 C 0.59966 0.00726 0.60112 0.0
C94 C 0.55836 0.99109 0.58442 0.0
C95 C 0.5619 0.00525 0.60312 0.0
C96 C 0.57523 0.98526 0.57413 0.0
C97 C 0.67709 0.96803 0.53033 0.0
C98 C 0.67435 0.9455 0.49691 0.0
C99 C 0.68613 0.98273 0.4988 0.0
C100 C 0.68403 0.98532 0.52025 0.0
C101 C 0.68148 0.96277 0.48691 0.0
C102 C 0.67223 0.94809 0.5184 0.0
C103 C 0.67703 0.97042 0.55348 0.0
O104 O 0.66638 0.99803 0.61177 0.0
O105 O 0.65655 0.96418 0.61081 0.0
O106 O 0.66508 0.95603 0.56123 0.0
O107 O 0.67668 0.98957 0.56282 0.0
H108 H 0.70584 0.99834 0.6131 0.0
H109 H 0.74037 0.99331 0.63004 0.0
H110 H 0.71083 0.95241 0.66996 0.0
H111 H 0.67601 0.95769 0.65308 0.0
H112 H 0.58613 0.02434 0.62555 0.0
H113 H 0.61557 0.01364 0.60783 0.0
H114 H 0.54254 0.9843 0.57784 0.0
H115 H 0.57207 0.9744 0.55972 0.0
H116 H 0.67047 0.92995 0.48814 0.0
H117 H 0.69202 0.9963 0.49168 0.0
H118 H 0.68834 0.00082 0.52902 0.0
H119 H 0.66716 0.93437 0.52573 0.0
C120 C 0.79824 0.98102 0.30238 0.0
C121 C 0.78056 0.96888 0.29045 0.0
C122 C 0.75724 0.98901 0.30921 0.0
C123 C 0.76031 0.97274 0.29394 0.0
C124 C 0.77477 0.99945 0.32286 0.0
C125 C 0.79522 0.99571 0.31923 0.0
U126 U 0.82545 0.97708 0.25508 0.0
O127 O 0.85362 0.99421 0.24536 0.0
O128 O 0.85063 0.95977 0.24449 0.0
C129 C 0.86244 0.97696 0.24159 0.0
C130 C 0.81895 0.98098 0.29458 0.0
C131 C 0.88507 0.97821 0.2487 0.0
C132 C 0.91439 0.97129 0.27306 0.0
C133 C 0.89273 0.97189 0.26798 0.0
C134 C 0.92078 0.98388 0.23995 0.0
C135 C 0.92856 0.97686 0.25885 0.0
C136 C 0.89925 0.98453 0.23495 0.0
C137 C 0.7873 0.96978 0.20414 0.0
C138 C 0.79875 0.96911 0.16939 0.0
C139 C 0.76215 0.95836 0.17299 0.0
C140 C 0.7667 0.96256 0.19485 0.0
C141 C 0.77817 0.96135 0.16004 0.0
C142 C 0.80332 0.9732 0.19133 0.0
C143 C 0.79183 0.97284 0.22717 0.0
O144 O 0.82226 0.96302 0.28439 0.0
O145 O 0.82427 0.99725 0.28478 0.0
O146 O 0.80193 0.99121 0.23559 0.0
O147 O 0.79903 0.95696 0.23553 0.0
H148 H 0.78233 0.95733 0.27741 0.0
H149 H 0.74712 0.96363 0.28385 0.0
H150 H 0.7729 0.01166 0.33522 0.0
H151 H 0.80861 0.00523 0.32867 0.0
H152 H 0.91996 0.96577 0.28771 0.0
H153 H 0.88197 0.96693 0.27879 0.0
H154 H 0.93133 0.98862 0.22887 0.0
H155 H 0.8936 0.98949 0.22002 0.0
H156 H 0.81142 0.97137 0.15979 0.0
H157 H 0.74612 0.9526 0.16619 0.0
H158 H 0.75416 0.95986 0.20454 0.0
H159 H 0.81936 0.97868 0.1983 0.0
C160 C 0.36211 0.32031 0.65816 0.0
C161 C 0.37852 0.33598 0.65631 0.0
C162 C 0.35448 0.36258 0.6579 0.0
C163 C 0.37478 0.35689 0.65629 0.0
C164 C 0.33815 0.3468 0.66011 0.0
C165 C 0.34195 0.32583 0.66024 0.0
U166 U 0.39945 0.28154 0.6469 0.0
O167 O 0.40907 0.25479 0.66247 0.0
O168 O 0.39544 0.24987 0.6292 0.0
C169 C 0.4018 0.24107 0.64588 0.0
C170 C 0.36605 0.29821 0.65688 0.0
C171 C 0.38867 0.22196 0.64997 0.0
C172 C 0.35749 0.19599 0.64169 0.0
C173 C 0.36889 0.21485 0.63829 0.0
C174 C 0.38518 0.19129 0.66878 0.0
C175 C 0.36557 0.18394 0.65689 0.0
C176 C 0.39662 0.21003 0.66529 0.0
C177 C 0.45141 0.30632 0.63034 0.0
C178 C 0.47787 0.28658 0.61637 0.0
C179 C 0.48179 0.32457 0.61804 0.0
C180 C 0.46309 0.32505 0.62705 0.0
C181 C 0.48932 0.30533 0.61233 0.0
C182 C 0.459 0.28707 0.62524 0.0
C183 C 0.43067 0.30725 0.63754 0.0
O184 O 0.36759 0.28946 0.63777 0.0
O185 O 0.38097 0.29425 0.67099 0.0
O186 O 0.42893 0.30289 0.65678 0.0
O187 O 0.4146 0.29857 0.6238 0.0
H188 H 0.39423 0.332 0.65472 0.0
H189 H 0.38784 0.36857 0.65496 0.0
H190 H 0.32226 0.35052 0.66109 0.0
H191 H 0.32908 0.3139 0.66154 0.0
H192 H 0.34236 0.19079 0.63239 0.0
H193 H 0.3623 0.22369 0.62636 0.0
H194 H 0.39198 0.18223 0.68039 0.0
H195 H 0.4119 0.21506 0.67437 0.0
H196 H 0.48305 0.27147 0.61193 0.0
H197 H 0.49018 0.33929 0.61522 0.0
H198 H 0.45743 0.34005 0.63091 0.0
H199 H 0.45006 0.27244 0.6276 0.0
C200 C 0.28784 0.81049 0.01548 0.0
C201 C 0.27845 0.79412 0.99994 0.0
C202 C 0.3019 0.77046 0.0136 0.0
C203 C 0.28551 0.77445 0.99892 0.0
C204 C 0.31157 0.78687 0.02904 0.0
C205 C 0.30455 0.80678 0.02999 0.0
U206 U 0.23997 0.83767 0.00899 0.0
O207 O 0.22919 0.86547 0.0255 0.0
O208 O 0.23218 0.86388 0.99167 0.0
C209 C 0.22796 0.87522 0.00857 0.0
C210 C 0.27919 0.8308 0.01697 0.0
C211 C 0.23639 0.89764 0.01111 0.0
C212 C 0.26043 0.92793 0.02841 0.0
C213 C 0.25362 0.90627 0.02604 0.0
C214 C 0.23314 0.93232 1.00074 0.0
C215 C 0.25019 0.94119 0.01581 0.0
C216 C 0.22633 0.9108 0.99844 0.0
C217 C 0.18859 0.80112 0.99217 0.0
C218 C 0.1571 0.81168 0.97402 0.0
C219 C 0.15575 0.77764 0.98682 0.0
C220 C 0.17708 0.78204 0.99479 0.0
C221 C 0.14566 0.79224 0.97598 0.0
C222 C 0.17838 0.81613 0.98214 0.0
C223 C 0.21138 0.8047 0.999 0.0
O224 O 0.27128 0.83607 0.99886 0.0
O225 O 0.26701 0.83373 0.03188 0.0
O226 O 0.21715 0.8135 0.01849 0.0
O227 O 0.22291 0.81258 0.98546 0.0
H228 H 0.2654 0.79643 0.98863 0.0
H229 H 0.27796 0.76244 0.98652 0.0
H230 H 0.32413 0.78425 0.04069 0.0
H231 H 0.31188 0.81913 0.04223 0.0
H232 H 0.27372 0.93429 0.04005 0.0
H233 H 0.26167 0.89635 0.03592 0.0
H234 H 0.22469 0.94211 0.99103 0.0
H235 H 0.21295 0.90443 0.9869 0.0
H236 H 0.14965 0.8233 0.96593 0.0
H237 H 0.14739 0.76247 0.9884 0.0
H238 H 0.18473 0.7703 0.00252 0.0
H239 H 0.18699 0.83105 0.98013 0.0
C240 C 0.77889 0.20174 0.32458 0.0
C241 C 0.78134 0.18689 0.33877 0.0
C242 C 0.76297 0.15906 0.31232 0.0
C243 C 0.77335 0.16579 0.33273 0.0
C244 C 0.7612 0.17379 0.29788 0.0
C245 C 0.76901 0.19502 0.30403 0.0
U246 U 0.81538 0.24502 0.35994 0.0
O247 O 0.82904 0.2765 0.35414 0.0
O248 O 0.80842 0.27321 0.37888 0.0
C249 C 0.81916 0.28615 0.36843 0.0
C250 C 0.78595 0.22425 0.33138 0.0
C251 C 0.80852 0.30396 0.36237 0.0
C252 C 0.77698 0.31842 0.3495 0.0
C253 C 0.78767 0.30102 0.35252 0.0
C254 C 0.80819 0.34177 0.36534 0.0
C255 C 0.787 0.33898 0.35634 0.0
C256 C 0.81883 0.3244 0.36835 0.0
C257 C 0.85787 0.23211 0.40051 0.0
C258 C 0.86844 0.24398 0.4378 0.0
C259 C 0.89489 0.24275 0.41389 0.0
C260 C 0.87916 0.2351 0.39715 0.0
C261 C 0.88968 0.24742 0.43439 0.0
C262 C 0.85276 0.23635 0.42111 0.0
C263 C 0.84106 0.22508 0.38261 0.0
O264 O 0.78256 0.23107 0.35057 0.0
O265 O 0.80472 0.23133 0.32701 0.0
O266 O 0.84487 0.23072 0.36423 0.0
O267 O 0.82172 0.22711 0.38651 0.0
H268 H 0.78913 0.19168 0.35464 0.0
H269 H 0.77521 0.1547 0.34407 0.0
H270 H 0.75326 0.16901 0.28207 0.0
H271 H 0.76704 0.20625 0.29285 0.0
H272 H 0.76062 0.31574 0.34267 0.0
H273 H 0.77946 0.28531 0.34788 0.0
H274 H 0.81641 0.3574 0.37048 0.0
H275 H 0.83493 0.32693 0.37597 0.0
H276 H 0.86383 0.24764 0.45333 0.0
H277 H 0.91114 0.24497 0.41081 0.0
H278 H 0.88366 0.23173 0.38152 0.0
H279 H 0.83657 0.23412 0.42439 0.0
C280 C 0.63634 0.68695 0.96734 0.0
C281 C 0.62994 0.70575 0.97618 0.0
C282 C 0.66187 0.72556 0.96839 0.0
C283 C 0.64265 0.72482 0.97684 0.0
C284 C 0.66812 0.70683 0.95914 0.0
C285 C 0.65546 0.6876 0.95873 0.0
U286 U 0.58175 0.65802 0.96159 0.0
O287 O 0.56769 0.6265 0.94665 0.0
O288 O 0.56718 0.63539 0.98052 0.0
C289 C 0.56395 0.62013 0.96476 0.0
C290 C 0.6228 0.66687 0.96667 0.0
C291 C 0.57194 0.60041 0.96956 0.0
C292 C 0.59702 0.57508 0.966 0.0
C293 C 0.58907 0.59326 0.96037 0.0
C294 C 0.571 0.57103 0.99019 0.0
C295 C 0.58819 0.5639 0.98111 0.0
C296 C 0.5629 0.58908 0.98439 0.0
C297 C 0.53678 0.69146 0.95197 0.0
C298 C 0.50072 0.68181 0.95831 0.0
C299 C 0.50948 0.71229 0.94057 0.0
C300 C 0.5305 0.70846 0.94213 0.0
C301 C 0.49439 0.6992 0.94892 0.0
C302 C 0.52173 0.67794 0.95976 0.0
C303 C 0.55918 0.68861 0.9547 0.0
O304 O 0.61159 0.66566 0.98246 0.0
O305 O 0.61195 0.6596 0.94829 0.0
O306 O 0.56557 0.67651 0.9395 0.0
O307 O 0.56676 0.68509 0.97362 0.0
H308 H 0.61506 0.70573 0.98258 0.0
H309 H 0.63731 0.73909 0.98374 0.0
H310 H 0.68287 0.70704 0.95251 0.0
H311 H 0.66056 0.67328 0.95168 0.0
H312 H 0.61041 0.57002 0.95891 0.0
H313 H 0.59651 0.60186 0.94907 0.0
H314 H 0.56378 0.5626 0.00174 0.0
H315 H 0.54973 0.59437 0.99171 0.0
H316 H 0.48958 0.67157 0.96514 0.0
H317 H 0.50508 0.72561 0.93298 0.0
H318 H 0.54193 0.71898 0.93594 0.0
H319 H 0.52632 0.6647 0.96739 0.0
C320 C 0.66453 0.37013 0.32237 0.0
C321 C 0.65457 0.38265 0.33653 0.0
C322 C 0.65726 0.35734 0.36182 0.0
C323 C 0.6509 0.37628 0.35602 0.0
C324 C 0.66727 0.34484 0.34762 0.0
C325 C 0.67081 0.35117 0.32802 0.0
U326 U 0.65741 0.41002 0.28492 0.0
O327 O 0.67763 0.42423 0.2634 0.0
O328 O 0.64636 0.4075 0.25103 0.0
C329 C 0.66383 0.41776 0.24667 0.0
C330 C 0.66788 0.37678 0.30166 0.0
C331 C 0.67191 0.40963 0.22715 0.0
C332 C 0.68956 0.38457 0.20644 0.0
C333 C 0.6831 0.39212 0.22576 0.0
C334 C 0.67398 0.41212 0.19 0.0
C335 C 0.68475 0.39431 0.18824 0.0
C336 C 0.66766 0.41966 0.2092 0.0
C337 C 0.62874 0.45562 0.30796 0.0
C338 C 0.61611 0.48366 0.28962 0.0
C339 C 0.60978 0.48134 0.32573 0.0
C340 C 0.62042 0.46363 0.32592 0.0
C341 C 0.60734 0.49155 0.30756 0.0
C342 C 0.62669 0.46578 0.28981 0.0
C343 C 0.63847 0.4361 0.30849 0.0
O344 O 0.65054 0.37653 0.28872 0.0
O345 O 0.68106 0.39402 0.30226 0.0
O346 O 0.659 0.43775 0.3086 0.0
O347 O 0.62847 0.4196 0.29615 0.0
H348 H 0.64965 0.39738 0.33249 0.0
H349 H 0.64344 0.38637 0.36675 0.0
H350 H 0.67231 0.33016 0.35167 0.0
H351 H 0.6785 0.3413 0.31731 0.0
H352 H 0.69769 0.37072 0.20558 0.0
H353 H 0.68653 0.38415 0.23946 0.0
H354 H 0.67025 0.42017 0.17641 0.0
H355 H 0.65913 0.43325 0.20994 0.0
H356 H 0.61436 0.49096 0.27528 0.0
H357 H 0.6036 0.48708 0.33994 0.0
H358 H 0.62196 0.45603 0.34011 0.0
H359 H 0.63297 0.4597 0.27575 0.0
C360 C 0.99712 0.28147 0.80532 0.0
C361 C 0.98732 0.26897 0.78683 0.0
C362 C 0.99772 0.2966 0.76583 0.0
C363 C 0.9875 0.27649 0.76734 0.0
C364 C 0.008 0.30888 0.78437 0.0
C365 C 0.00766 0.30138 0.80395 0.0
U366 U 0.98993 0.23443 0.83354 0.0
O367 O 0.00403 0.22556 0.86348 0.0
O368 O 0.96979 0.22608 0.85758 0.0
C369 C 0.98586 0.22348 0.87109 0.0
C370 C 0.99634 0.27343 0.82579 0.0
C371 C 0.98548 0.23269 0.893 0.0
C372 C 0.99879 0.25821 0.92361 0.0
C373 C 0.999 0.25071 0.90235 0.0
C374 C 0.97127 0.23007 0.92614 0.0
C375 C 0.98497 0.24788 0.93576 0.0
C376 C 0.97155 0.22258 0.90501 0.0
C377 C 0.98082 0.18237 0.79685 0.0
C378 C 0.97629 0.14789 0.80878 0.0
C379 C 0.96721 0.15166 0.77193 0.0
C380 C 0.97344 0.17326 0.77625 0.0
C381 C 0.96831 0.1388 0.78818 0.0
C382 C 0.9824 0.16961 0.81312 0.0
C383 C 0.98569 0.2053 0.80101 0.0
O384 O 0.97775 0.26421 0.82854 0.0
O385 O 0.01184 0.26278 0.83154 0.0
O386 O 0.00396 0.21259 0.81206 0.0
O387 O 0.97011 0.21522 0.80677 0.0
H388 H 0.97926 0.25343 0.78749 0.0
H389 H 0.97917 0.26667 0.75354 0.0
H390 H 0.01629 0.32431 0.78383 0.0
H391 H 0.01552 0.31115 0.81801 0.0
H392 H 0.00941 0.27206 0.93054 0.0
H393 H 0.00984 0.25883 0.89333 0.0
H394 H 0.96068 0.22154 0.93509 0.0
H395 H 0.96107 0.2086 0.8981 0.0
H396 H 0.97715 0.13832 0.82158 0.0
H397 H 0.96135 0.145 0.75588 0.0
H398 H 0.97212 0.18292 0.76353 0.0
H399 H 0.98796 0.1765 0.82917 0.0
C400 C 0.34174 0.77676 0.20848 0.0
C401 C 0.34238 0.79172 0.19422 0.0
C402 C 0.32658 0.76478 0.16545 0.0
C403 C 0.3348 0.78579 0.1729 0.0
C404 C 0.32588 0.74995 0.17993 0.0
C405 C 0.33335 0.75591 0.20121 0.0
U406 U 0.37736 0.8124 0.25296 0.0
O407 O 0.37196 0.82196 0.28568 0.0
O408 O 0.39801 0.80386 0.27934 0.0
C409 C 0.38706 0.81192 0.2936 0.0
C410 C 0.3504 0.78234 0.23078 0.0
C411 C 0.38166 0.79858 0.30988 0.0
C412 C 0.37235 0.76436 0.32129 0.0
C413 C 0.37617 0.77671 0.30518 0.0
C414 C 0.37889 0.79567 0.34678 0.0
C415 C 0.37381 0.7737 0.34232 0.0
C416 C 0.38278 0.80794 0.33072 0.0
C417 C 0.41125 0.86158 0.24113 0.0
C418 C 0.44644 0.87764 0.25638 0.0
C419 C 0.42161 0.89913 0.24132 0.0
C420 C 0.40653 0.88136 0.23622 0.0
C421 C 0.44182 0.89741 0.25124 0.0
C422 C 0.43132 0.85993 0.25146 0.0
C423 C 0.39538 0.84286 0.23468 0.0
O424 O 0.37055 0.78077 0.23511 0.0
O425 O 0.34472 0.79947 0.24048 0.0
O426 O 0.37714 0.84361 0.24194 0.0
O427 O 0.40223 0.82442 0.23507 0.0
H428 H 0.3489 0.80791 0.19954 0.0
H429 H 0.33541 0.79767 0.16226 0.0
H430 H 0.32005 0.73357 0.17475 0.0
H431 H 0.33289 0.74412 0.21197 0.0
H432 H 0.3683 0.74751 0.31731 0.0
H433 H 0.3751 0.76917 0.28914 0.0
H434 H 0.38047 0.80335 0.3628 0.0
H435 H 0.38705 0.82478 0.33467 0.0
H436 H 0.46178 0.87588 0.26429 0.0
H437 H 0.41763 0.91412 0.23706 0.0
H438 H 0.39121 0.88303 0.2282 0.0
H439 H 0.43543 0.84494 0.2556 0.0
C440 C 0.95853 0.62491 0.67447 0.0
C441 C 0.96004 0.61512 0.69288 0.0
C442 C 0.96076 0.64892 0.71412 0.0
C443 C 0.96117 0.62702 0.71253 0.0
C444 C 0.95893 0.65859 0.69555 0.0
C445 C 0.95784 0.64664 0.67587 0.0
U446 U 0.95944 0.57238 0.64258 0.0
O447 O 0.94359 0.55857 0.61129 0.0
O448 O 0.97818 0.5631 0.61744 0.0
C449 C 0.96151 0.55778 0.60337 0.0
C450 C 0.95846 0.61253 0.65394 0.0
C451 C 0.96311 0.56639 0.5834 0.0
C452 C 0.95594 0.59226 0.55974 0.0
C453 C 0.95302 0.58375 0.57842 0.0
C454 C 0.97907 0.5662 0.55106 0.0
C455 C 0.96923 0.5837 0.54609 0.0
C456 C 0.97597 0.55758 0.56954 0.0
C457 C 0.96219 0.52308 0.66777 0.0
C458 C 0.95693 0.48913 0.64604 0.0
C459 C 0.97721 0.49338 0.6806 0.0
C460 C 0.97392 0.51449 0.68354 0.0
C461 C 0.96869 0.4804 0.66184 0.0
C462 C 0.95382 0.51031 0.64893 0.0
C463 C 0.9604 0.54572 0.6703 0.0
O464 O 0.97596 0.60434 0.65148 0.0
O465 O 0.94139 0.5992 0.64743 0.0
O466 O 0.94273 0.5512 0.66149 0.0
O467 O 0.97727 0.55761 0.6668 0.0
H468 H 0.96069 0.59833 0.69204 0.0
H469 H 0.96289 0.61914 0.72652 0.0
H470 H 0.95836 0.67538 0.69625 0.0
H471 H 0.95667 0.6544 0.66177 0.0
H472 H 0.94829 0.60584 0.55623 0.0
H473 H 0.94319 0.5909 0.58906 0.0
H474 H 0.98921 0.55921 0.54065 0.0
H475 H 0.9839 0.54421 0.5732 0.0
H476 H 0.95 0.47956 0.63151 0.0
H477 H 0.98673 0.4873 0.69292 0.0
H478 H 0.98086 0.52421 0.69799 0.0
H479 H 0.94503 0.51676 0.63635 0.0
C480 C 0.68968 0.35324 0.64406 0.0
C481 C 0.67568 0.36448 0.6329 0.0
C482 C 0.64761 0.35267 0.6529 0.0
C483 C 0.65489 0.36419 0.63726 0.0
C484 C 0.66161 0.34117 0.66388 0.0
C485 C 0.68249 0.34148 0.65949 0.0
U486 U 0.72704 0.3596 0.60382 0.0
O487 O 0.75928 0.37569 0.60588 0.0
O488 O 0.7526 0.3419 0.59453 0.0
C489 C 0.76708 0.35819 0.60026 0.0
C490 C 0.71134 0.353 0.63873 0.0
C491 C 0.78637 0.35418 0.61308 0.0
C492 C 0.81173 0.36106 0.64483 0.0
C493 C 0.79249 0.36408 0.63379 0.0
C494 C 0.81855 0.33768 0.61493 0.0
C495 C 0.82517 0.34811 0.63536 0.0
C496 C 0.79944 0.34076 0.60392 0.0
C497 C 0.70058 0.37344 0.55084 0.0
C498 C 0.71815 0.38169 0.52065 0.0
C499 C 0.68139 0.38633 0.52134 0.0
C500 C 0.68188 0.37899 0.54095 0.0
C501 C 0.69959 0.38814 0.51112 0.0
C502 C 0.71869 0.3745 0.54049 0.0
C503 C 0.70084 0.36793 0.57241 0.0
O504 O 0.71382 0.33768 0.62432 0.0
O505 O 0.72088 0.37133 0.63567 0.0
O506 O 0.71067 0.38234 0.58734 0.0
O507 O 0.70456 0.34875 0.5753 0.0
H508 H 0.68075 0.37328 0.62057 0.0
H509 H 0.64443 0.37281 0.62817 0.0
H510 H 0.6565 0.33217 0.67604 0.0
H511 H 0.69299 0.33249 0.66807 0.0
H512 H 0.81638 0.36938 0.6605 0.0
H513 H 0.78264 0.37446 0.64129 0.0
H514 H 0.82827 0.32723 0.60732 0.0
H515 H 0.795 0.33287 0.58803 0.0
H516 H 0.73242 0.38299 0.51317 0.0
H517 H 0.66681 0.39096 0.51432 0.0
H518 H 0.66774 0.37819 0.54867 0.0
H519 H 0.73328 0.37029 0.54796 0.0
C520 C 0.80834 0.68482 0.2301 0.0
C521 C 0.82263 0.66996 0.2286 0.0
C522 C 0.85245 0.69787 0.23623 0.0
C523 C 0.84436 0.67637 0.23176 0.0
C524 C 0.83803 0.71275 0.23734 0.0
C525 C 0.81622 0.70627 0.23434 0.0
U526 U 0.75823 0.64803 0.20607 0.0
O527 O 0.73262 0.63328 0.22144 0.0
O528 O 0.72555 0.65459 0.19787 0.0
C529 C 0.7181 0.64211 0.21085 0.0
C530 C 0.78534 0.67814 0.22822 0.0
C531 C 0.70022 0.64792 0.22171 0.0
C532 C 0.68484 0.65997 0.25308 0.0
C533 C 0.70264 0.65773 0.24259 0.0
C534 C 0.66229 0.64303 0.22179 0.0
C535 C 0.66456 0.6521 0.24288 0.0
C536 C 0.67993 0.64106 0.21131 0.0
C537 C 0.75806 0.60269 0.16377 0.0
C538 C 0.72836 0.57495 0.15667 0.0
C539 C 0.75292 0.57885 0.13106 0.0
C540 C 0.76448 0.59598 0.14428 0.0
C541 C 0.7348 0.56805 0.13717 0.0
C542 C 0.73979 0.59216 0.16977 0.0
C543 C 0.77001 0.62097 0.17754 0.0
O544 O 0.77423 0.68068 0.21047 0.0
O545 O 0.77965 0.66004 0.23491 0.0
O546 O 0.77227 0.61911 0.19777 0.0
O547 O 0.76479 0.63939 0.17354 0.0
H548 H 0.81704 0.6533 0.22537 0.0
H549 H 0.85481 0.66433 0.23121 0.0
H550 H 0.84354 0.72941 0.24051 0.0
H551 H 0.80549 0.71804 0.23556 0.0
H552 H 0.68695 0.66695 0.26938 0.0
H553 H 0.71821 0.66298 0.25093 0.0
H554 H 0.64683 0.63697 0.21356 0.0
H555 H 0.67774 0.63334 0.19525 0.0
H556 H 0.71432 0.56717 0.16171 0.0
H557 H 0.75836 0.57383 0.1162 0.0
H558 H 0.77844 0.60398 0.1393 0.0
H559 H 0.73433 0.59725 0.1846 0.0
C560 C 0.3097 0.01364 0.36493 0.0
C561 C 0.29529 0.02744 0.37071 0.0
C562 C 0.26798 0.00784 0.34434 0.0
C563 C 0.27468 0.02462 0.36045 0.0
C564 C 0.28256 0.99425 0.33843 0.0
C565 C 0.3032 0.99719 0.34856 0.0
U566 U 0.347 0.01682 0.41565 0.0
O567 O 0.37562 0.00174 0.42244 0.0
O568 O 0.3772 0.03618 0.42708 0.0
C569 C 0.38779 0.01985 0.42645 0.0
C570 C 0.33124 0.01562 0.37617 0.0
C571 C 0.40679 0.02141 0.41557 0.0
C572 C 0.43012 0.03966 0.39443 0.0
C573 C 0.41192 0.03843 0.4044 0.0
C574 C 0.4383 0.00684 0.40644 0.0
C575 C 0.44344 0.02386 0.39531 0.0
C576 C 0.42019 0.0057 0.41658 0.0
C577 C 0.32608 0.01491 0.46777 0.0
C578 C 0.35059 0.0157 0.49946 0.0
C579 C 0.3132 0.01534 0.50171 0.0
C580 C 0.30937 0.01495 0.47989 0.0
C581 C 0.33384 0.01564 0.51173 0.0
C582 C 0.34673 0.01532 0.47762 0.0
C583 C 0.32197 0.01465 0.44491 0.0
O584 O 0.33785 0.03329 0.38858 0.0
O585 O 0.33618 0.99883 0.38453 0.0
O586 O 0.32684 0.99794 0.43377 0.0
O587 O 0.32837 0.03237 0.43792 0.0
H588 H 0.29981 0.04029 0.38329 0.0
H589 H 0.26399 0.03558 0.36519 0.0
H590 H 0.2779 0.98096 0.32635 0.0
H591 H 0.31401 0.98633 0.34387 0.0
H592 H 0.43363 0.05283 0.38576 0.0
H593 H 0.4019 0.05079 0.40329 0.0
H594 H 0.44841 0.99453 0.40748 0.0
H595 H 0.41664 0.99251 0.42522 0.0
H596 H 0.36661 0.01579 0.50671 0.0
H597 H 0.3 0.01569 0.51076 0.0
H598 H 0.29338 0.01478 0.47251 0.0
H599 H 0.35982 0.01533 0.46839 0.0
C600 C 0.20099 0.99674 0.72032 0.0
C601 C 0.21831 0.0088 0.73294 0.0
C602 C 0.24074 0.00161 0.70569 0.0
C603 C 0.23799 0.01128 0.72566 0.0
C604 C 0.22345 0.98913 0.6933 0.0
C605 C 0.20372 0.98674 0.70056 0.0
U606 U 0.17022 0.00304 0.76596 0.0
O607 O 0.14125 0.01702 0.77063 0.0
O608 O 0.14311 0.98403 0.77559 0.0
C609 C 0.13116 0.99926 0.77455 0.0
C610 C 0.18022 0.99469 0.7279 0.0
C611 C 0.10936 0.99336 0.764 0.0
C612 C 0.07496 0.97332 0.76358 0.0
C613 C 0.09633 0.97758 0.77136 0.0
C614 C 0.0793 1.00022 0.74044 0.0
C615 C 0.0661 0.98486 0.74832 0.0
C616 C 0.10073 0.00442 0.74817 0.0
C617 C 0.20443 0.02346 0.81857 0.0
C618 C 0.19108 0.02967 0.85225 0.0
C619 C 0.2279 0.04011 0.8493 0.0
C620 C 0.22452 0.0324 0.82796 0.0
C621 C 0.2112 0.03903 0.86163 0.0
C622 C 0.18769 0.02199 0.83078 0.0
C623 C 0.20138 0.01633 0.79593 0.0
O624 O 0.17734 0.98018 0.74048 0.0
O625 O 0.17384 0.0126 0.73473 0.0
O626 O 0.19224 0.02888 0.78408 0.0
O627 O 0.1944 0.99633 0.79034 0.0
H628 H 0.21653 0.01654 0.74835 0.0
H629 H 0.2509 0.02116 0.73547 0.0
H630 H 0.22509 0.98129 0.67792 0.0
H631 H 0.1906 0.97722 0.6907 0.0
H632 H 0.0652 0.96158 0.77018 0.0
H633 H 0.10255 0.96899 0.7837 0.0
H634 H 0.07297 0.00923 0.72852 0.0
H635 H 0.11037 0.01669 0.74215 0.0
H636 H 0.17793 0.02872 0.86139 0.0
H637 H 0.24364 0.04692 0.85617 0.0
H638 H 0.2376 0.03358 0.81873 0.0
H639 H 0.17204 0.01514 0.82366 0.0
C640 C 0.65276 0.67718 0.35066 0.0
C641 C 0.64438 0.66517 0.36539 0.0
C642 C 0.6584 0.63437 0.34993 0.0
C643 C 0.64725 0.64402 0.36507 0.0
C644 C 0.6669 0.64644 0.33525 0.0
C645 C 0.66416 0.66772 0.33567 0.0
U646 U 0.61386 0.71606 0.35602 0.0
O647 O 0.61705 0.74858 0.37155 0.0
O648 O 0.60596 0.74163 0.33772 0.0
C649 C 0.61265 0.75627 0.3537 0.0
C650 C 0.64799 0.6989 0.34973 0.0
C651 C 0.62749 0.77414 0.34938 0.0
C652 C 0.63762 0.79983 0.32616 0.0
C653 C 0.62438 0.7824 0.33014 0.0
C654 C 0.65746 0.80115 0.36057 0.0
C655 C 0.65418 0.80954 0.34141 0.0
C656 C 0.64429 0.78363 0.36452 0.0
C657 C 0.56033 0.69306 0.37123 0.0
C658 C 0.53589 0.71183 0.38992 0.0
C659 C 0.52668 0.67488 0.37679 0.0
C660 C 0.54579 0.67481 0.36841 0.0
C661 C 0.52168 0.69327 0.38809 0.0
C662 C 0.55506 0.71172 0.38157 0.0
C663 C 0.58158 0.69164 0.36525 0.0
O664 O 0.63357 0.70116 0.33432 0.0
O665 O 0.64544 0.70932 0.36782 0.0
O666 O 0.5972 0.70085 0.37929 0.0
O667 O 0.58438 0.69463 0.34584 0.0
H668 H 0.63511 0.67197 0.37682 0.0
H669 H 0.64021 0.63505 0.37635 0.0
H670 H 0.67567 0.63944 0.32348 0.0
H671 H 0.67049 0.67665 0.324 0.0
H672 H 0.63446 0.80614 0.31138 0.0
H673 H 0.61145 0.77559 0.31826 0.0
H674 H 0.67015 0.80823 0.37259 0.0
H675 H 0.64714 0.77775 0.37956 0.0
H676 H 0.5327 0.72622 0.39867 0.0
H677 H 0.51601 0.66038 0.37478 0.0
H678 H 0.54955 0.66027 0.36038 0.0
H679 H 0.56611 0.72599 0.38391 0.0
C680 C 0.6826 0.19716 0.97356 0.0
C681 C 0.69996 0.21268 0.97737 0.0
C682 C 0.67753 0.23984 0.98462 0.0
C683 C 0.6975 0.23338 0.98351 0.0
C684 C 0.65972 0.22461 0.97898 0.0
C685 C 0.66227 0.2032 0.97387 0.0
U686 U 0.72526 0.16615 0.98477 0.0
O687 O 0.73043 0.14149 0.0051 0.0
O688 O 0.73569 0.13657 0.97177 0.0
C689 C 0.73574 0.12869 0.98979 0.0
C690 C 0.68728 0.17529 0.97371 0.0
C691 C 0.7286 0.1061 0.98934 0.0
C692 C 0.71417 0.07175 0.97065 0.0
C693 C 0.71762 0.09369 0.97131 0.0
C694 C 0.73204 0.07452 0.00615 0.0
C695 C 0.72175 0.06188 0.98793 0.0
C696 C 0.73538 0.09633 0.00683 0.0
C697 C 0.77723 0.2031 0.00211 0.0
C698 C 0.8121 0.19254 0.00976 0.0
C699 C 0.80578 0.22821 0.02096 0.0
C700 C 0.78482 0.22339 0.01201 0.0
C701 C 0.81961 0.21281 0.02012 0.0
C702 C 0.79098 0.18767 0.00091 0.0
C703 C 0.75478 0.1985 0.99389 0.0
O704 O 0.69967 0.16919 0.95985 0.0
O705 O 0.69357 0.17098 0.9927 0.0
O706 O 0.74233 0.19217 0.00737 0.0
O707 O 0.75004 0.18801 0.97494 0.0
H708 H 0.71577 0.20852 0.97751 0.0
H709 H 0.7116 0.24383 0.98913 0.0
H710 H 0.64408 0.22892 0.98022 0.0
H711 H 0.6486 0.19139 0.97133 0.0
H712 H 0.70595 0.06249 0.95646 0.0
H713 H 0.71228 0.10084 0.95756 0.0
H714 H 0.73846 0.06754 0.01962 0.0
H715 H 0.74416 0.10556 0.02079 0.0
H716 H 0.82241 0.18036 0.009 0.0
H717 H 0.81119 0.24402 0.02859 0.0
H718 H 0.77442 0.23549 0.01303 0.0
H719 H 0.78533 0.17186 0.9934 0.0
C720 C 0.21842 0.79817 0.65071 0.0
C721 C 0.21871 0.81078 0.63426 0.0
C722 C 0.23079 0.84196 0.65947 0.0
C723 C 0.22495 0.83245 0.63861 0.0
C724 C 0.2297 0.82944 0.67595 0.0
C725 C 0.22367 0.80771 0.67158 0.0
U726 U 0.18765 0.74786 0.61973 0.0
O727 O 0.19917 0.7195 0.60564 0.0
O728 O 0.1779 0.71705 0.62996 0.0
C729 C 0.18943 0.70721 0.61743 0.0
C730 C 0.21383 0.77504 0.64633 0.0
C731 C 0.20157 0.69148 0.6261 0.0
C732 C 0.23491 0.67998 0.63855 0.0
C733 C 0.22307 0.69617 0.63373 0.0
C734 C 0.20364 0.65459 0.62912 0.0
C735 C 0.2254 0.65896 0.63566 0.0
C736 C 0.19185 0.67072 0.62438 0.0
C737 C 0.14464 0.74689 0.57577 0.0
C738 C 0.13592 0.71491 0.55113 0.0
C739 C 0.11222 0.74162 0.55157 0.0
C740 C 0.12588 0.75399 0.56788 0.0
C741 C 0.11729 0.72208 0.54288 0.0
C742 C 0.14938 0.72712 0.5675 0.0
C743 C 0.15929 0.75975 0.59274 0.0
O744 O 0.19564 0.76662 0.65103 0.0
O745 O 0.2186 0.76662 0.62819 0.0
O746 O 0.17927 0.76035 0.58998 0.0
O747 O 0.1558 0.7566 0.61195 0.0
H748 H 0.21453 0.80385 0.61802 0.0
H749 H 0.22537 0.84177 0.62562 0.0
H750 H 0.2342 0.83635 0.69216 0.0
H751 H 0.22355 0.79826 0.68449 0.0
H752 H 0.25167 0.68377 0.64348 0.0
H753 H 0.23084 0.71214 0.63511 0.0
H754 H 0.19586 0.63858 0.62705 0.0
H755 H 0.17528 0.66684 0.61851 0.0
H756 H 0.14006 0.69981 0.54491 0.0
H757 H 0.09797 0.74752 0.54542 0.0
H758 H 0.12189 0.76912 0.57419 0.0
H759 H 0.16363 0.72118 0.57359 0.0
C760 C 0.41776 0.29899 0.05301 0.0
C761 C 0.42057 0.28112 0.063 0.0
C762 C 0.38533 0.26507 0.04813 0.0
C763 C 0.40452 0.26431 0.0606 0.0
C764 C 0.38259 0.28301 0.03799 0.0
C765 C 0.39868 0.29993 0.0405 0.0
U766 U 0.44008 0.35674 0.05226 0.0
O767 O 0.42009 0.3657 0.02557 0.0
O768 O 0.41272 0.37321 0.05784 0.0
C769 C 0.40827 0.37544 0.03784 0.0
C770 C 0.43486 0.31649 0.05627 0.0
C771 C 0.40475 0.39671 0.03335 0.0
C772 C 0.38196 0.41969 0.01739 0.0
C773 C 0.38599 0.39956 0.0214 0.0
C774 C 0.41566 0.43439 0.03705 0.0
C775 C 0.39667 0.43737 0.02531 0.0
C776 C 0.4197 0.4142 0.04099 0.0
C777 C 0.49765 0.36899 0.07081 0.0
C778 C 0.53391 0.37513 0.0874 0.0
C779 C 0.51821 0.33978 0.0732 0.0
C780 C 0.49927 0.3474 0.06729 0.0
C781 C 0.53593 0.35356 0.08304 0.0
C782 C 0.51493 0.38278 0.08125 0.0
C783 C 0.47799 0.3769 0.06324 0.0
O784 O 0.43358 0.33132 0.07162 0.0
O785 O 0.44057 0.32382 0.03922 0.0
O786 O 0.46351 0.3763 0.07611 0.0
O787 O 0.47046 0.36981 0.0436 0.0
H788 H 0.43522 0.28017 0.0727 0.0
H789 H 0.40722 0.25058 0.06833 0.0
H790 H 0.36792 0.28406 0.02838 0.0
H791 H 0.39623 0.31371 0.03277 0.0
H792 H 0.36708 0.42145 0.00856 0.0
H793 H 0.3743 0.38621 0.01538 0.0
H794 H 0.42737 0.44767 0.04318 0.0
H795 H 0.43436 0.41224 0.05014 0.0
H796 H 0.54711 0.38616 0.0952 0.0
H797 H 0.51916 0.32318 0.06917 0.0
H798 H 0.48601 0.33646 0.05939 0.0
H799 H 0.51386 0.39947 0.08432 0.0
C800 C 0.34411 0.63945 0.68365 0.0
C801 C 0.34853 0.62366 0.66855 0.0
C802 C 0.34872 0.64798 0.64214 0.0
C803 C 0.35087 0.62787 0.64808 0.0
C804 C 0.34403 0.66371 0.65736 0.0
C805 C 0.34177 0.65946 0.67793 0.0
U806 U 0.35487 0.60266 0.72284 0.0
O807 O 0.3707 0.60683 0.75529 0.0
O808 O 0.33812 0.59129 0.74832 0.0
C809 C 0.35385 0.59891 0.76296 0.0
C810 C 0.34335 0.63511 0.70553 0.0
C811 C 0.34846 0.61051 0.78243 0.0
C812 C 0.35532 0.64006 0.81035 0.0
C813 C 0.35897 0.63051 0.79071 0.0
C814 C 0.33008 0.61017 0.81353 0.0
C815 C 0.34106 0.62987 0.82214 0.0
C816 C 0.33383 0.60057 0.79394 0.0
C817 C 0.37816 0.55417 0.69813 0.0
C818 C 0.39847 0.53044 0.71617 0.0
C819 C 0.38864 0.52366 0.67839 0.0
C820 C 0.37826 0.54154 0.67904 0.0
C821 C 0.39903 0.51792 0.6969 0.0
C822 C 0.38812 0.54845 0.71677 0.0
C823 C 0.36896 0.57396 0.69776 0.0
O824 O 0.32993 0.61886 0.7079 0.0
O825 O 0.36195 0.63531 0.71632 0.0
O826 O 0.38082 0.5908 0.70771 0.0
O827 O 0.34903 0.57336 0.70071 0.0
H828 H 0.35041 0.60807 0.67267 0.0
H829 H 0.35405 0.6152 0.63684 0.0
H830 H 0.34262 0.67948 0.65357 0.0
H831 H 0.33855 0.67189 0.68944 0.0
H832 H 0.36379 0.65538 0.81641 0.0
H833 H 0.37034 0.63864 0.78225 0.0
H834 H 0.31911 0.60185 0.82226 0.0
H835 H 0.32568 0.58506 0.78802 0.0
H836 H 0.40649 0.52666 0.73069 0.0
H837 H 0.38836 0.51424 0.66334 0.0
H838 H 0.37058 0.54571 0.6645 0.0
H839 H 0.38828 0.55814 0.73167 0.0
C840 C 0.96102 0.67813 0.17813 0.0
C841 C 0.97015 0.69473 0.19324 0.0
C842 C 0.97544 0.67095 0.21949 0.0
C843 C 0.97763 0.69118 0.21323 0.0
C844 C 0.96515 0.65413 0.20473 0.0
C845 C 0.95817 0.65767 0.18394 0.0
U846 U 0.96198 0.72207 0.14731 0.0
O847 O 0.97773 0.73018 0.12043 0.0
O848 O 0.94347 0.73073 0.11923 0.0
C849 C 0.96016 0.73289 0.10917 0.0
C850 C 0.95677 0.68336 0.1565 0.0
C851 C 0.95782 0.72459 0.08667 0.0
C852 C 0.97181 0.7062 0.0573 0.0
C853 C 0.9706 0.70995 0.07891 0.0
C854 C 0.94627 0.73038 0.0508 0.0
C855 C 0.9602 0.71694 0.04311 0.0
C856 C 0.94516 0.73421 0.0724 0.0
C857 C 0.97881 0.77428 0.18424 0.0
C858 C 0.99337 0.80758 0.17415 0.0
C859 C 0.98909 0.80462 0.21067 0.0
C860 C 0.98058 0.78359 0.20515 0.0
C861 C 0.99597 0.81679 0.19532 0.0
C862 C 0.98487 0.78645 0.16865 0.0
C863 C 0.97257 0.75148 0.17961 0.0
O864 O 0.94099 0.69448 0.15345 0.0
O865 O 0.97381 0.6915 0.14932 0.0
O866 O 0.98617 0.74086 0.17068 0.0
O867 O 0.95292 0.74513 0.17159 0.0
H868 H 0.97248 0.71057 0.18929 0.0
H869 H 0.98609 0.70451 0.22335 0.0
H870 H 0.9635 0.63826 0.2089 0.0
H871 H 0.95118 0.64454 0.17241 0.0
H872 H 0.98245 0.69554 0.05176 0.0
H873 H 0.98052 0.70227 0.08958 0.0
H874 H 0.93724 0.739 0.04029 0.0
H875 H 0.93535 0.7457 0.07805 0.0
H876 H 0.99829 0.81657 0.16191 0.0
H877 H 0.99115 0.81102 0.22714 0.0
H878 H 0.97612 0.77436 0.2174 0.0
H879 H 0.98362 0.77946 0.1524 0.0
C880 C 0.68854 0.24727 0.81833 0.0
C881 C 0.68812 0.23096 0.83109 0.0
C882 C 0.70407 0.25569 0.86182 0.0
C883 C 0.69588 0.23511 0.85257 0.0
C884 C 0.70488 0.27184 0.84878 0.0
C885 C 0.69721 0.26765 0.82731 0.0
U886 U 0.64972 0.21809 0.77147 0.0
O887 O 0.63184 0.23088 0.74574 0.0
O888 O 0.65465 0.209 0.73849 0.0
C889 C 0.64119 0.22111 0.73107 0.0
C890 C 0.67968 0.24362 0.79582 0.0
C891 C 0.64675 0.23257 0.71331 0.0
C892 C 0.64505 0.26277 0.69371 0.0
C893 C 0.64323 0.25362 0.71232 0.0
C894 C 0.65462 0.23028 0.67703 0.0
C895 C 0.65033 0.25105 0.67567 0.0
C896 C 0.65283 0.22119 0.69558 0.0
C897 C 0.60897 0.17246 0.77759 0.0
C898 C 0.57911 0.15994 0.75084 0.0
C899 C 0.58774 0.13905 0.77887 0.0
C900 C 0.60472 0.15428 0.78727 0.0
C901 C 0.57459 0.14173 0.76061 0.0
C902 C 0.59616 0.17508 0.75919 0.0
C903 C 0.62672 0.18854 0.78677 0.0
O904 O 0.683 0.226 0.78501 0.0
O905 O 0.66039 0.24819 0.79158 0.0
O906 O 0.62269 0.20815 0.78771 0.0
O907 O 0.64496 0.18591 0.78017 0.0
H908 H 0.68155 0.21508 0.82454 0.0
H909 H 0.69521 0.22219 0.862 0.0
H910 H 0.7107 0.28791 0.85529 0.0
H911 H 0.69768 0.28049 0.81777 0.0
H912 H 0.6419 0.27889 0.69333 0.0
H913 H 0.63837 0.26281 0.72564 0.0
H914 H 0.6584 0.22063 0.66344 0.0
H915 H 0.65527 0.20484 0.69575 0.0
H916 H 0.56923 0.16274 0.73695 0.0
H917 H 0.585 0.12512 0.78664 0.0
H918 H 0.61452 0.15188 0.80138 0.0
H919 H 0.59922 0.18896 0.75138 0.0
C920 C 0.0275 0.3724 0.31666 0.0
C921 C 0.04291 0.37573 0.30313 0.0
C922 C 0.02181 0.35101 0.27526 0.0
C923 C 0.04015 0.36505 0.28269 0.0
C924 C 0.00658 0.34754 0.28902 0.0
C925 C 0.00945 0.35806 0.3095 0.0
U926 U 0.03885 0.42476 0.35157 0.0
O927 O 0.02127 0.43846 0.37598 0.0
O928 O 0.05424 0.43365 0.38412 0.0
C929 C 0.03671 0.43839 0.39117 0.0
C930 C 0.02919 0.38468 0.33766 0.0
C931 C 0.03117 0.42892 0.41017 0.0
C932 C 0.04217 0.41699 0.44383 0.0
C933 C 0.04715 0.4256 0.42572 0.0
C934 C 0.00505 0.41515 0.4315 0.0
C935 C 0.02105 0.41163 0.44696 0.0
C936 C 0.01003 0.42372 0.41335 0.0
C937 C 0.05421 0.47318 0.32295 0.0
C938 C 0.04416 0.50852 0.32564 0.0
C939 C 0.0735 0.5006 0.3069 0.0
C940 C 0.07061 0.47985 0.31159 0.0
C941 C 0.05984 0.51491 0.3133 0.0
C942 C 0.04141 0.48788 0.33051 0.0
C943 C 0.04917 0.45051 0.32444 0.0
O944 O 0.04822 0.39296 0.34629 0.0
O945 O 0.01501 0.39769 0.33968 0.0
O946 O 0.02963 0.44411 0.32704 0.0
O947 O 0.06314 0.4415 0.33562 0.0
H948 H 0.05693 0.38683 0.30818 0.0
H949 H 0.05235 0.36789 0.27269 0.0
H950 H 0.99209 0.33717 0.28379 0.0
H951 H 0.99728 0.3554 0.3196 0.0
H952 H 0.05492 0.41427 0.45526 0.0
H953 H 0.06358 0.42964 0.42389 0.0
H954 H 0.98862 0.41152 0.43353 0.0
H955 H 0.99727 0.42634 0.40189 0.0
H956 H 0.03359 0.51936 0.33099 0.0
H957 H 0.08567 0.50513 0.29734 0.0
H958 H 0.08061 0.46875 0.30555 0.0
H959 H 0.02872 0.48323 0.33941 0.0
C960 C 0.3156 0.52376 0.64467 0.0
N961 N 0.31135 0.53904 0.63248 0.0
N962 N 0.32275 0.50764 0.63326 0.0
C963 C 0.31212 0.52418 0.66742 0.0
C964 C 0.32297 0.51381 0.61383 0.0
N965 N 0.31609 0.53282 0.61338 0.0
C966 C 0.32891 0.50084 0.59503 0.0
H967 H 0.32494 0.51766 0.67651 0.0
H968 H 0.29713 0.51424 0.66844 0.0
H969 H 0.31133 0.54042 0.67477 0.0
H970 H 0.31443 0.49186 0.58595 0.0
H971 H 0.33976 0.48956 0.59996 0.0
H972 H 0.33648 0.51106 0.58453 0.0
C973 C 0.34438 0.59294 0.01129 0.0
N974 N 0.33947 0.57238 0.00351 0.0
N975 N 0.32953 0.60431 0.00348 0.0
C976 C 0.36304 0.60177 0.02712 0.0
C977 C 0.3155 0.59 0.99063 0.0
N978 N 0.32153 0.57058 0.99071 0.0
C979 C 0.29671 0.59523 0.97708 0.0
H980 H 0.35988 0.61629 0.03659 0.0
H981 H 0.37673 0.60579 0.01863 0.0
H982 H 0.36716 0.59001 0.03774 0.0
H983 H 0.29923 0.61168 0.97341 0.0
H984 H 0.28276 0.59352 0.98574 0.0
H985 H 0.29334 0.58435 0.96217 0.0
C986 C 0.70191 0.96739 0.3046 0.0
N987 N 0.70594 0.9551 0.32008 0.0
N988 N 0.70267 0.99045 0.31132 0.0
C989 C 0.69429 0.95484 0.28252 0.0
C990 C 0.69569 0.98319 0.33065 0.0
N991 N 0.70394 0.96661 0.33722 0.0
C992 C 0.67609 0.9884 0.34095 0.0
H993 H 0.67756 0.94834 0.28191 0.0
H994 H 0.70323 0.94117 0.28017 0.0
H995 H 0.69496 0.96201 0.26792 0.0
H996 H 0.66472 0.97391 0.33941 0.0
H997 H 0.66684 1.00008 0.33485 0.0
H998 H 0.68058 0.99322 0.3581 0.0
C999 C 0.72618 0.89095 0.97796 0.0
N1000 N 0.73321 0.90845 0.99168 0.0
N1001 N 0.72981 0.87342 0.98691 0.0
C1002 C 0.71644 0.8909 0.95564 0.0
C1003 C 0.73917 0.88088 0.00661 0.0
N1004 N 0.74148 0.90217 0.00941 0.0
C1005 C 0.74348 0.86737 0.0239 0.0
H1006 H 0.69917 0.89085 0.95531 0.0
H1007 H 0.71935 0.87663 0.9456 0.0
H1008 H 0.72285 0.90516 0.94911 0.0
H1009 H 0.75969 0.86307 0.02383 0.0
H1010 H 0.73231 0.85267 0.02147 0.0
H1011 H 0.74226 0.87585 0.03959 0.0
C1012 C 0.64242 0.30566 0.51792 0.0
N1013 N 0.63104 0.30112 0.53366 0.0
N1014 N 0.63011 0.31238 0.5022 0.0
C1015 C 0.66546 0.30383 0.51801 0.0
C1016 C 0.61092 0.31185 0.50899 0.0
N1017 N 0.61149 0.30497 0.5281 0.0
C1018 C 0.59183 0.31865 0.49726 0.0
H1019 H 0.67463 0.31849 0.52653 0.0
H1020 H 0.66969 0.30177 0.50174 0.0
H1021 H 0.66979 0.29047 0.52637 0.0
H1022 H 0.58176 0.30449 0.48879 0.0
H1023 H 0.59628 0.32921 0.48557 0.0
H1024 H 0.58248 0.32674 0.5084 0.0
C1025 C 0.97738 0.72204 0.87683 0.0
N1026 N 0.9888 0.73096 0.89519 0.0
N1027 N 0.98805 0.72575 0.86039 0.0
C1028 C 0.95677 0.70809 0.87506 0.0
C1029 C 0.0064 0.73709 0.86942 0.0
N1030 N 0.00677 0.74044 0.89055 0.0
C1031 C 0.02454 0.74362 0.85777 0.0
H1032 H 0.95988 0.69144 0.87388 0.0
H1033 H 0.94646 0.71012 0.86065 0.0
H1034 H 0.94851 0.71154 0.88904 0.0
H1035 H 0.01888 0.7455 0.84126 0.0
H1036 H 0.03525 0.73126 0.85761 0.0
H1037 H 0.0336 0.75855 0.86579 0.0
C1038 C 0.99556 0.33799 0.59073 0.0
N1039 N 0.99083 0.33452 0.56952 0.0
N1040 N 0.99035 0.32013 0.59943 0.0
C1041 C 0.00505 0.35876 0.60292 0.0
C1042 C 0.98245 0.30573 0.58258 0.0
N1043 N 0.98276 0.31452 0.56451 0.0
C1044 C 0.97477 0.28296 0.58359 0.0
H1045 H 0.02244 0.35934 0.60508 0.0
H1046 H 0.99956 0.36064 0.61867 0.0
H1047 H 1.001 0.37207 0.59439 0.0
H1048 H 0.95762 0.28133 0.5848 0.0
H1049 H 0.98305 0.27715 0.59741 0.0
H1050 H 0.9772 0.2729 0.56919 0.0
C1051 C 0.31504 0.71377 0.97442 0.0
N1052 N 0.33079 0.7074 0.96408 0.0
N1053 N 0.32083 0.72249 0.99681 0.0
C1054 C 0.29645 0.71994 0.96025 0.0
C1055 C 0.34035 0.73136 0.9891 0.0
N1056 N 0.34723 0.71971 0.9733 0.0
C1057 C 0.34956 0.75466 0.99162 0.0
H1058 H 0.29473 0.73677 0.96445 0.0
H1059 H 0.28149 0.71015 0.96112 0.0
H1060 H 0.29823 0.71826 0.94337 0.0
H1061 H 0.36335 0.75772 0.00402 0.0
H1062 H 0.33797 0.76563 0.99486 0.0
H1063 H 0.35564 0.75881 0.97693 0.0
C1064 C 0.51559 0.64702 0.31347 0.0
N1065 N 0.53219 0.63612 0.31111 0.0
N1066 N 0.49969 0.63493 0.32029 0.0
C1067 C 0.5148 0.6694 0.30917 0.0
C1068 C 0.50733 0.61631 0.32196 0.0
N1069 N 0.52706 0.61708 0.31649 0.0
C1070 C 0.49574 0.59745 0.32927 0.0
H1071 H 0.51846 0.67989 0.32431 0.0
H1072 H 0.49876 0.67146 0.30209 0.0
H1073 H 0.52645 0.67432 0.29868 0.0
H1074 H 0.48676 0.58734 0.31538 0.0
H1075 H 0.48452 0.60229 0.34023 0.0
H1076 H 0.50695 0.58805 0.33717 0.0
C1077 C 0.89221 0.9638 0.71691 0.0
N1078 N 0.90928 0.97604 0.72776 0.0
N1079 N 0.87444 0.97267 0.71978 0.0
C1080 C 0.89283 0.94316 0.70381 0.0
C1081 C 0.88139 0.99088 0.73249 0.0
N1082 N 0.90252 0.99279 0.7375 0.0
C1083 C 0.8679 0.00792 0.73783 0.0
H1084 H 0.89561 0.94615 0.68764 0.0
H1085 H 0.87765 0.93288 0.70284 0.0
H1086 H 0.90589 0.93504 0.71045 0.0
H1087 H 0.8617 0.00552 0.7529 0.0
H1088 H 0.85436 0.00744 0.72545 0.0
H1089 H 0.87712 0.02376 0.73973 0.0
C1090 C 0.58431 0.0351 0.31271 0.0
N1091 N 0.56347 0.02801 0.30934 0.0
N1092 N 0.59417 0.0275 0.29645 0.0
C1093 C 0.59541 0.04793 0.33261 0.0
C1094 C 0.57828 0.01586 0.28296 0.0
N1095 N 0.55971 0.01595 0.2909 0.0
C1096 C 0.58115 0.00286 0.26281 0.0
H1097 H 0.60562 0.06159 0.32874 0.0
H1098 H 0.60559 0.03812 0.3413 0.0
H1099 H 0.58422 0.05406 0.34294 0.0
H1100 H 0.57909 0.98594 0.26495 0.0
H1101 H 0.59691 0.00715 0.25794 0.0
H1102 H 0.56895 0.00523 0.25002 0.0
C1103 C 0.9776 0.31294 0.71109 0.0
N1104 N 0.97241 0.32919 0.69522 0.0
N1105 N 0.01099 0.32285 0.71761 0.0
C1106 C 0.95974 0.29759 0.71773 0.0
C1107 C 0.01367 0.34168 0.70312 0.0
N1108 N 0.99124 0.3436 0.69083 0.0
C1109 C 0.03181 0.35941 0.70851 0.0
H1110 H 0.96156 0.2915 0.73306 0.0
H1111 H 0.9561 0.28357 0.70575 0.0
H1112 H 0.94528 0.30534 0.71809 0.0
H1113 H 0.04443 0.35702 0.69847 0.0
H1114 H 0.03925 0.3605 0.72485 0.0
H1115 H 0.02635 0.37498 0.70738 0.0
C1116 C 0.69166 0.4707 0.35047 0.0
N1117 N 0.69566 0.45516 0.36237 0.0
N1118 N 0.68035 0.48441 0.3604 0.0
C1119 C 0.69796 0.47217 0.32883 0.0
C1120 C 0.67762 0.47667 0.37876 0.0
N1121 N 0.68678 0.45889 0.37987 0.0
C1122 C 0.66775 0.48754 0.3964 0.0
H1123 H 0.71336 0.48213 0.33016 0.0
H1124 H 0.68617 0.47957 0.31917 0.0
H1125 H 0.69955 0.45639 0.32081 0.0
H1126 H 0.65037 0.48441 0.3927 0.0
H1127 H 0.67232 0.50481 0.39793 0.0
H1128 H 0.67235 0.4818 0.41166 0.0
C1129 C 0.64145 0.41612 0.02167 0.0
N1130 N 0.64559 0.43669 0.02981 0.0
N1131 N 0.65243 0.40409 0.03376 0.0
C1132 C 0.62856 0.40807 0.00082 0.0
C1133 C 0.66344 0.41818 0.04935 0.0
N1134 N 0.65942 0.43798 0.04697 0.0
C1135 C 0.67772 0.41247 0.06716 0.0
H1136 H 0.61231 0.4024 0.00362 0.0
H1137 H 0.63522 0.3947 0.99272 0.0
H1138 H 0.62778 0.42063 0.9904 0.0
H1139 H 0.69414 0.41515 0.06351 0.0
H1140 H 0.67383 0.39568 0.06916 0.0
H1141 H 0.67647 0.42255 0.08199 0.0
C1142 C 0.29342 0.0286 0.69039 0.0
N1143 N 0.30865 0.03634 0.6745 0.0
N1144 N 0.29031 0.99544 0.67853 0.0
C1145 C 0.28497 0.04426 0.70655 0.0
C1146 C 0.30509 0.99608 0.65997 0.0
N1147 N 0.3144 0.01939 0.65918 0.0
C1148 C 0.30601 0.97807 0.64303 0.0
H1149 H 0.28537 0.03993 0.72273 0.0
H1150 H 0.26871 0.04701 0.70092 0.0
H1151 H 0.29477 0.05972 0.70849 0.0
H1152 H 0.29546 0.96375 0.64454 0.0
H1153 H 0.32212 0.97366 0.6435 0.0
H1154 H 0.30191 0.98305 0.62731 0.0
C1155 C 0.28646 0.11406 0.03506 0.0
N1156 N 0.27372 0.09782 0.02343 0.0
N1157 N 0.28504 0.13202 0.02616 0.0
C1158 C 0.30032 0.11248 0.05504 0.0
C1159 C 0.2711 0.12607 0.0086 0.0
N1160 N 0.2641 0.1053 0.00703 0.0
C1161 C 0.2664 0.13984 0.99165 0.0
H1162 H 0.30285 0.12772 0.06541 0.0
H1163 H 0.31586 0.1085 0.05108 0.0
H1164 H 0.29328 0.09992 0.06353 0.0
H1165 H 0.27887 0.15334 0.99248 0.0
H1166 H 0.25124 0.14601 0.99367 0.0
H1167 H 0.26478 0.1307 0.97579 0.0
C1168 C 0.3717 0.69674 0.48671 0.0
N1169 N 0.38367 0.70011 0.4711 0.0
N1170 N 0.38222 0.68725 0.50163 0.0
C1171 C 0.35027 0.70359 0.48796 0.0
C1172 C 0.40096 0.68492 0.49455 0.0
N1173 N 0.40184 0.69272 0.47596 0.0
C1174 C 0.41784 0.67407 0.5053 0.0
H1175 H 0.34705 0.70631 0.50455 0.0
H1176 H 0.33822 0.69099 0.47941 0.0
H1177 H 0.34886 0.71814 0.48045 0.0
H1178 H 0.411 0.66251 0.51501 0.0
H1179 H 0.42912 0.68601 0.51583 0.0
H1180 H 0.42659 0.66594 0.49361 0.0
C1181 C 0.99187 0.28493 0.10806 0.0
N1182 N 0.97938 0.27432 0.09103 0.0
N1183 N 0.98244 0.28324 0.12572 0.0
C1184 C 0.01309 0.29712 0.10757 0.0
C1185 C 0.96383 0.27115 0.11877 0.0
N1186 N 0.96204 0.26567 0.0977 0.0
C1187 C 0.94696 0.26565 0.13239 0.0
H1188 H 0.0255 0.28774 0.1133 0.0
H1189 H 0.01485 0.3121 0.11827 0.0
H1190 H 0.01566 0.30048 0.09149 0.0
H1191 H 0.93513 0.27685 0.13103 0.0
H1192 H 0.95365 0.26657 0.14914 0.0
H1193 H 0.93873 0.2496 0.12719 0.0
C1194 C 0.00273 0.62657 0.39257 0.0
N1195 N 0.01067 0.63074 0.41316 0.0
N1196 N 0.01605 0.63582 0.38048 0.0
C1197 C 0.98101 0.61561 0.38447 0.0
C1198 C 0.03224 0.64577 0.39452 0.0
N1199 N 0.02899 0.64279 0.41437 0.0
C1200 C 0.05078 0.65915 0.38877 0.0
H1201 H 0.9822 0.59887 0.37914 0.0
H1202 H 0.97402 0.62268 0.3708 0.0
H1203 H 0.97041 0.61628 0.39692 0.0
H1204 H 0.04788 0.67581 0.39103 0.0
H1205 H 0.05283 0.65492 0.37203 0.0
H1206 H 0.06532 0.65745 0.39909 0.0
C1207 C 0.69941 0.3165 0.02801 0.0
N1208 N 0.68429 0.31725 0.04578 0.0
N1209 N 0.68962 0.2977 0.00946 0.0
C1210 C 0.72241 0.32558 0.03113 0.0
C1211 C 0.66154 0.28598 0.02227 0.0
N1212 N 0.66459 0.30182 0.04291 0.0
C1213 C 0.64334 0.26726 0.01847 0.0
H1214 H 0.72797 0.32884 0.01601 0.0
H1215 H 0.73217 0.31378 0.03681 0.0
H1216 H 0.72559 0.33988 0.04272 0.0
H1217 H 0.64831 0.25136 0.01652 0.0
H1218 H 0.63155 0.26881 0.00496 0.0
H1219 H 0.63491 0.26667 0.03249 0.0
C1220 C 0.48571 0.36047 0.69295 0.0
N1221 N 0.47066 0.37327 0.69571 0.0
N1222 N 0.5005 0.36934 0.68209 0.0
C1223 C 0.48628 0.33973 0.70147 0.0
C1224 C 0.49396 0.38802 0.67845 0.0
N1225 N 0.47585 0.39041 0.68677 0.0
C1226 C 0.50588 0.40433 0.66779 0.0
H1227 H 0.48276 0.3413 0.71802 0.0
H1228 H 0.5017 0.33377 0.70061 0.0
H1229 H 0.47388 0.32802 0.69209 0.0
H1230 H 0.51313 0.39682 0.65453 0.0
H1231 H 0.51875 0.41322 0.67933 0.0
H1232 H 0.49547 0.41551 0.66177 0.0
C1233 C 0.09999 0.9748 0.28453 0.0
N1234 N 0.08261 0.96259 0.27431 0.0
N1235 N 0.11763 0.96631 0.28022 0.0
C1236 C 0.09966 0.99392 0.30011 0.0
C1237 C 0.11028 0.94852 0.267 0.0
N1238 N 0.08902 0.94625 0.26345 0.0
C1239 C 0.12389 0.93397 0.25668 0.0
H1240 H 0.1009 0.0081 0.29179 0.0
H1241 H 0.11315 0.99561 0.31274 0.0
H1242 H 0.08475 0.99308 0.3073 0.0
H1243 H 0.12651 0.92125 0.2666 0.0
H1244 H 0.13942 0.94253 0.25497 0.0
H1245 H 0.11606 0.92662 0.24096 0.0
C1246 C 0.41902 0.0277 0.67633 0.0
N1247 N 0.43953 0.03592 0.6807 0.0
N1248 N 0.40842 0.03229 0.69302 0.0
C1249 C 0.40896 0.01704 0.65504 0.0
C1250 C 0.42339 0.04381 0.70765 0.0
N1251 N 0.44221 0.04608 0.7001 0.0
C1252 C 0.42024 0.05124 0.72993 0.0
H1253 H 0.39249 0.02052 0.65187 0.0
H1254 H 0.40879 0.99978 0.65466 0.0
H1255 H 0.41795 0.02223 0.6424 0.0
H1256 H 0.40771 0.04071 0.73542 0.0
H1257 H 0.41562 0.06735 0.73068 0.0
H1258 H 0.43507 0.05187 0.74069 0.0
C1259 C 0.01652 0.69056 0.2968 0.0
N1260 N 0.03326 0.67454 0.29872 0.0
N1261 N 0.99854 0.68138 0.2773 0.0
C1262 C 0.02041 0.71351 0.30564 0.0
C1263 C 0.01025 0.65224 0.26669 0.0
N1264 N 0.03014 0.6548 0.2836 0.0
C1265 C 0.00562 0.63295 0.24925 0.0
H1266 H 0.03202 0.71657 0.31992 0.0
H1267 H 0.00548 0.71952 0.30894 0.0
H1268 H 0.02652 0.72273 0.29358 0.0
H1269 H 0.98943 0.6277 0.24151 0.0
H1270 H 0.01058 0.6188 0.25562 0.0
H1271 H 0.0154 0.63603 0.23652 0.0
C1272 C 0.13673 0.66139 0.36859 0.0
C1273 C 0.15368 0.6775 0.37088 0.0
C1274 C 0.11683 0.66394 0.3586 0.0
C1275 C 0.11356 0.68318 0.35078 0.0
C1276 C 0.13044 0.69977 0.35357 0.0
C1277 C 0.15033 0.69668 0.36345 0.0
C1278 C 0.09965 0.6455 0.35532 0.0
C1279 C 0.12787 0.72041 0.3452 0.0
C1280 C 0.07217 0.67567 0.30326 0.0
C1281 C 0.05368 0.68005 0.31183 0.0
C1282 C 0.09174 0.6775 0.31552 0.0
C1283 C 0.09345 0.68457 0.33722 0.0
C1284 C 0.07542 0.69066 0.34595 0.0
C1285 C 0.05563 0.68786 0.3333 0.0
C1286 C 0.11035 0.67069 0.30533 0.0
C1287 C 0.07711 0.69989 0.3687 0.0
H1288 H 0.13923 0.64639 0.37394 0.0
H1289 H 0.1633 0.70925 0.36527 0.0
H1290 H 0.08454 0.65068 0.35911 0.0
H1291 H 0.09731 0.63865 0.33851 0.0
H1292 H 0.1035 0.63294 0.36508 0.0
H1293 H 0.14062 0.733 0.35248 0.0
H1294 H 0.12838 0.7184 0.32794 0.0
H1295 H 0.11245 0.7256 0.34798 0.0
H1296 H 0.0713 0.66959 0.28687 0.0
H1297 H 0.04179 0.69122 0.34041 0.0
H1298 H 0.11486 0.65616 0.3114 0.0
H1299 H 0.12416 0.68295 0.3093 0.0
H1300 H 0.10687 0.66743 0.2879 0.0
H1301 H 0.08341 0.68877 0.37903 0.0
H1302 H 0.06174 0.70382 0.37325 0.0
H1303 H 0.08845 0.71447 0.37155 0.0
C1304 C 0.36359 0.37683 0.74411 0.0
C1305 C 0.36323 0.3679 0.76299 0.0
C1306 C 0.38106 0.37641 0.73286 0.0
C1307 C 0.39856 0.36677 0.74067 0.0
C1308 C 0.39802 0.35716 0.75935 0.0
C1309 C 0.38037 0.35784 0.77028 0.0
C1310 C 0.38112 0.38689 0.71301 0.0
C1311 C 0.41633 0.34667 0.76813 0.0
C1312 C 0.43775 0.35342 0.70269 0.0
C1313 C 0.45351 0.37051 0.70812 0.0
C1314 C 0.41999 0.35168 0.71355 0.0
C1315 C 0.41783 0.36767 0.72982 0.0
C1316 C 0.43394 0.38483 0.73552 0.0
C1317 C 0.45175 0.38584 0.7248 0.0
C1318 C 0.40341 0.33293 0.7074 0.0
C1319 C 0.43221 0.40231 0.75267 0.0
H1320 H 0.35053 0.38483 0.73849 0.0
H1321 H 0.38006 0.35064 0.7847 0.0
H1322 H 0.39374 0.40042 0.71535 0.0
H1323 H 0.38462 0.37575 0.69985 0.0
H1324 H 0.36585 0.39265 0.70839 0.0
H1325 H 0.41287 0.33874 0.78204 0.0
H1326 H 0.42051 0.33487 0.7559 0.0
H1327 H 0.43036 0.35858 0.77285 0.0
H1328 H 0.43912 0.34174 0.68962 0.0
H1329 H 0.46417 0.39889 0.7291 0.0
H1330 H 0.38814 0.33821 0.70195 0.0
H1331 H 0.40102 0.32455 0.72125 0.0
H1332 H 0.40783 0.32173 0.69477 0.0
H1333 H 0.41761 0.40953 0.74895 0.0
H1334 H 0.44586 0.41483 0.75473 0.0
H1335 H 0.43116 0.39583 0.76783 0.0
C1336 C 0.54534 0.01384 0.63611 0.0
C1337 C 0.54387 0.0115 0.61403 0.0
C1338 C 0.52827 0.01913 0.64655 0.0
C1339 C 0.50916 0.02192 0.63465 0.0
C1340 C 0.50765 0.01995 0.61242 0.0
C1341 C 0.52504 0.01487 0.60239 0.0
C1342 C 0.53053 0.02131 0.67033 0.0
C1343 C 0.48752 0.02279 0.5992 0.0
C1344 C 0.45963 0.01218 0.66086 0.0
C1345 C 0.45604 0.03267 0.66776 0.0
C1346 C 0.47659 0.0085 0.64965 0.0
C1347 C 0.49044 0.02578 0.64547 0.0
C1348 C 0.48667 0.04657 0.65215 0.0
C1349 C 0.46935 0.04977 0.66308 0.0
C1350 C 0.48 0.98609 0.64275 0.0
C1351 C 0.50111 0.06539 0.64809 0.0
H1352 H 0.55969 0.01105 0.64528 0.0
H1353 H 0.52386 0.01353 0.58536 0.0
H1354 H 0.52638 0.03683 0.67666 0.0
H1355 H 0.51943 0.00908 0.67555 0.0
H1356 H 0.54676 0.01975 0.67732 0.0
H1357 H 0.48915 0.02148 0.58212 0.0
H1358 H 0.47467 0.0107 0.6017 0.0
H1359 H 0.48266 0.03839 0.6041 0.0
H1360 H 0.44939 0.99904 0.66475 0.0
H1361 H 0.46637 0.0656 0.66833 0.0
H1362 H 0.49524 0.98278 0.65072 0.0
H1363 H 0.48085 0.98379 0.62555 0.0
H1364 H 0.46726 0.97449 0.64642 0.0
H1365 H 0.51748 0.06439 0.65502 0.0
H1366 H 0.49627 0.08048 0.6548 0.0
H1367 H 0.50127 0.06549 0.6309 0.0
C1368 C 0.96163 0.96532 0.24711 0.0
C1369 C 0.95129 0.97462 0.26312 0.0
C1370 C 0.9832 0.96353 0.25046 0.0
C1371 C 0.99478 0.9713 0.27029 0.0
C1372 C 0.98442 0.98043 0.28664 0.0
C1373 C 0.96273 0.98192 0.28288 0.0
C1374 C 0.99364 0.95342 0.23271 0.0
C1375 C 0.9963 0.9889 0.30797 0.0
C1376 C 0.04695 0.95002 0.28153 0.0
C1377 C 0.06098 0.96576 0.27548 0.0
C1378 C 0.02537 0.95186 0.28052 0.0
C1379 C 0.01781 0.97007 0.27362 0.0
C1380 C 0.03214 0.98641 0.26836 0.0
C1381 C 0.05361 0.984 0.2693 0.0
C1382 C 0.01061 0.93406 0.28618 0.0
C1383 C 0.0247 0.00603 0.26088 0.0
H1384 H 0.95277 0.9593 0.23192 0.0
H1385 H 0.95482 0.98921 0.29525 0.0
H1386 H 0.0061 0.96492 0.22842 0.0
H1387 H 0.0014 0.94 0.23786 0.0
H1388 H 0.98229 0.94762 0.21843 0.0
H1389 H 0.98584 0.99506 0.31917 0.0
H1390 H 0.00426 0.97636 0.3148 0.0
H1391 H 0.00875 0.00175 0.30631 0.0
H1392 H 0.05287 0.93606 0.28655 0.0
H1393 H 0.06459 0.99604 0.26454 0.0
H1394 H 0.99866 0.92784 0.27251 0.0
H1395 H 0.00201 0.93993 0.29919 0.0
H1396 H 0.01903 0.92092 0.29108 0.0
H1397 H 0.01472 0.00188 0.24547 0.0
H1398 H 0.03801 0.01794 0.25906 0.0
H1399 H 0.01485 0.01319 0.27212 0.0
C1400 C 0.35269 0.1578 0.68015 0.0
C1401 C 0.35415 0.16333 0.65984 0.0
C1402 C 0.3436 0.13771 0.68317 0.0
C1403 C 0.33585 0.12275 0.66545 0.0
C1404 C 0.33662 0.12844 0.64491 0.0
C1405 C 0.34571 0.1487 0.64235 0.0
C1406 C 0.343 0.13222 0.7053 0.0
C1407 C 0.32871 0.11285 0.62562 0.0
C1408 C 0.33659 0.06508 0.6716 0.0
C1409 C 0.3155 0.05837 0.67356 0.0
C1410 C 0.34343 0.08597 0.6693 0.0
C1411 C 0.32867 0.10063 0.6684 0.0
C1412 C 0.30722 0.094 0.66987 0.0
C1413 C 0.30086 0.07288 0.67219 0.0
C1414 C 0.36642 0.0922 0.66748 0.0
C1415 C 0.29096 0.10911 0.66866 0.0
H1416 H 0.35894 0.16915 0.69372 0.0
H1417 H 0.34698 0.15279 0.62662 0.0
H1418 H 0.32679 0.12567 0.70743 0.0
H1419 H 0.35336 0.11989 0.70809 0.0
H1420 H 0.34826 0.14604 0.71737 0.0
H1421 H 0.32882 0.12023 0.61083 0.0
H1422 H 0.33878 0.09995 0.62479 0.0
H1423 H 0.31245 0.1056 0.62659 0.0
H1424 H 0.34779 0.05381 0.67127 0.0
H1425 H 0.28434 0.06756 0.6724 0.0
H1426 H 0.37302 0.10557 0.67961 0.0
H1427 H 0.36807 0.09749 0.65186 0.0
H1428 H 0.37597 0.07903 0.66936 0.0
H1429 H 0.29575 0.12298 0.68075 0.0
H1430 H 0.27511 0.10171 0.67101 0.0
H1431 H 0.28989 0.11497 0.65306 0.0
C1432 C 0.25745 0.97525 0.00103 0.0
C1433 C 0.25662 0.9643 0.01864 0.0
C1434 C 0.26152 0.99727 0.00335 0.0
C1435 C 0.26492 0.00862 0.0238 0.0
C1436 C 0.2648 0.99766 0.04167 0.0
C1437 C 0.26067 0.9756 0.03888 0.0
C1438 C 0.26163 0.00842 0.9839 0.0
C1439 C 0.26831 0.00927 0.06369 0.0
C1440 C 0.28977 0.06537 0.02757 0.0
C1441 C 0.27194 0.07598 0.02656 0.0
C1442 C 0.28784 0.04345 0.02748 0.0
C1443 C 0.26756 0.03201 0.02631 0.0
C1444 C 0.24957 0.04284 0.02607 0.0
C1445 C 0.25201 0.06473 0.02615 0.0
C1446 C 0.30736 0.03247 0.02757 0.0
C1447 C 0.22768 0.03123 0.0248 0.0
H1448 H 0.25465 0.96658 0.98537 0.0
H1449 H 0.25984 0.96725 0.05253 0.0
H1450 H 0.24874 0.0185 0.9831 0.0
H1451 H 0.27665 0.01889 0.98465 0.0
H1452 H 0.2596 0.99726 0.96918 0.0
H1453 H 0.26906 0.99841 0.07592 0.0
H1454 H 0.28317 0.02023 0.06598 0.0
H1455 H 0.2553 0.01888 0.06605 0.0
H1456 H 0.30511 0.07412 0.02735 0.0
H1457 H 0.2383 0.07309 0.02524 0.0
H1458 H 0.3071 0.02282 0.01214 0.0
H1459 H 0.30776 0.02163 0.03981 0.0
H1460 H 0.32203 0.04376 0.0305 0.0
H1461 H 0.22365 0.02122 0.0094 0.0
H1462 H 0.21558 0.04212 0.02647 0.0
H1463 H 0.22698 0.02068 0.03727 0.0
C1464 C 0.76094 0.35897 0.3376 0.0
C1465 C 0.77501 0.35733 0.35542 0.0
C1466 C 0.74864 0.37564 0.3372 0.0
C1467 C 0.7504 0.39093 0.35508 0.0
C1468 C 0.76482 0.38956 0.37298 0.0
C1469 C 0.77698 0.37281 0.37291 0.0
C1470 C 0.73332 0.37655 0.31789 0.0
C1471 C 0.76675 0.40527 0.39256 0.0
C1472 C 0.72865 0.44312 0.35201 0.0
C1473 C 0.70868 0.43865 0.3584 0.0
C1474 C 0.74211 0.42749 0.34996 0.0
C1475 C 0.73596 0.40737 0.35573 0.0
C1476 C 0.71602 0.40296 0.3626 0.0
C1477 C 0.70224 0.41829 0.36279 0.0
C1478 C 0.76312 0.43267 0.34219 0.0
C1479 C 0.70956 0.38235 0.37056 0.0
H1480 H 0.75947 0.34715 0.324 0.0
H1481 H 0.78754 0.37143 0.38688 0.0
H1482 H 0.71696 0.37356 0.32174 0.0
H1483 H 0.7353 0.39246 0.31277 0.0
H1484 H 0.73534 0.36475 0.30457 0.0
H1485 H 0.77924 0.40239 0.40487 0.0
H1486 H 0.77034 0.42149 0.38861 0.0
H1487 H 0.75155 0.40449 0.39924 0.0
H1488 H 0.73394 0.45893 0.34907 0.0
H1489 H 0.68661 0.41457 0.36706 0.0
H1490 H 0.76513 0.4207 0.32902 0.0
H1491 H 0.77603 0.43228 0.355 0.0
H1492 H 0.76479 0.44845 0.33671 0.0
H1493 H 0.70766 0.36939 0.35742 0.0
H1494 H 0.69473 0.38253 0.3778 0.0
H1495 H 0.72196 0.37891 0.38262 0.0
C1496 C 0.60125 0.52921 0.97247 0.0
C1497 C 0.59707 0.54504 0.98763 0.0
C1498 C 0.60942 0.51116 0.97845 0.0
C1499 C 0.61372 0.50906 1.00011 0.0
C1500 C 0.60981 0.52513 0.01549 0.0
C1501 C 0.6014 0.54289 0.00905 0.0
C1502 C 0.61325 0.49425 0.96163 0.0
C1503 C 0.61452 0.52357 0.03874 0.0
C1504 C 0.61592 0.45491 0.01747 0.0
C1505 C 0.63763 0.45427 0.02108 0.0
C1506 C 0.60788 0.47249 0.01018 0.0
C1507 C 0.622 0.48989 0.00673 0.0
C1508 C 0.64401 0.48916 0.01012 0.0
C1509 C 0.65155 0.47119 0.01701 0.0
C1510 C 0.58432 0.47261 0.00659 0.0
C1511 C 0.65957 0.5075 0.00694 0.0
H1512 H 0.59776 0.53079 0.9559 0.0
H1513 H 0.59843 0.55525 0.02079 0.0
H1514 H 0.63004 0.49156 0.96362 0.0
H1515 H 0.60372 0.47919 0.9632 0.0
H1516 H 0.60919 0.49835 0.94549 0.0
H1517 H 0.60507 0.50947 0.04283 0.0
H1518 H 0.63136 0.52164 0.04271 0.0
H1519 H 0.61101 0.53765 0.04868 0.0
H1520 H 0.60528 0.44177 0.02077 0.0
H1521 H 0.66835 0.47043 0.01956 0.0
H1522 H 0.57949 0.47592 0.99033 0.0
H1523 H 0.57969 0.48534 0.01753 0.0
H1524 H 0.57554 0.45742 0.00903 0.0
H1525 H 0.65661 0.5114 0.99061 0.0
H1526 H 0.67615 0.50424 0.00996 0.0
H1527 H 0.65751 0.5216 0.0177 0.0
C1528 C 0.70935 0.37883 0.1644 0.0
C1529 C 0.68963 0.38537 0.16717 0.0
C1530 C 0.71363 0.37002 0.1445 0.0
C1531 C 0.69762 0.36713 0.12703 0.0
C1532 C 0.67787 0.37415 0.12976 0.0
C1533 C 0.67422 0.38328 0.14963 0.0
C1534 C 0.73523 0.36358 0.14266 0.0
C1535 C 0.66026 0.37169 0.11178 0.0
C1536 C 0.69771 0.35195 0.06825 0.0
C1537 C 0.69116 0.33016 0.06621 0.0
C1538 C 0.70294 0.36391 0.08837 0.0
C1539 C 0.69991 0.35433 0.10671 0.0
C1540 C 0.69599 0.33226 0.10487 0.0
C1541 C 0.69291 0.32067 0.08484 0.0
C1542 C 0.71285 0.38641 0.09039 0.0
C1543 C 0.69469 0.32069 0.12396 0.0
H1544 H 0.7215 0.38069 0.17777 0.0
H1545 H 0.65892 0.38822 0.15159 0.0
H1546 H 0.73686 0.3493 0.15056 0.0
H1547 H 0.7384 0.36031 0.1261 0.0
H1548 H 0.74748 0.37615 0.151 0.0
H1549 H 0.64485 0.37416 0.11727 0.0
H1550 H 0.66393 0.38343 0.10097 0.0
H1551 H 0.65869 0.35586 0.10262 0.0
H1552 H 0.69926 0.35965 0.05445 0.0
H1553 H 0.69068 0.30388 0.08404 0.0
H1554 H 0.72809 0.38828 0.10075 0.0
H1555 H 0.70276 0.39694 0.09817 0.0
H1556 H 0.71592 0.3913 0.07491 0.0
H1557 H 0.7108 0.32078 0.13212 0.0
H1558 H 0.68761 0.30403 0.11964 0.0
H1559 H 0.6853 0.32843 0.13529 0.0
C1560 C 0.00444 0.26025 0.97174 0.0
C1561 C 0.98526 0.25495 0.9586 0.0
C1562 C 0.00491 0.26496 0.99363 0.0
C1563 C 0.98576 0.26438 0.00257 0.0
C1564 C 0.96634 0.25976 0.98933 0.0
C1565 C 0.96633 0.25512 0.96751 0.0
C1566 C 0.02591 0.26977 0.00727 0.0
C1567 C 0.94557 0.2591 0.99827 0.0
C1568 C 0.98413 0.25241 0.05877 0.0
C1569 C 0.98335 0.27235 0.06942 0.0
C1570 C 0.98555 0.24969 0.03709 0.0
C1571 C 0.98594 0.26738 0.02583 0.0
C1572 C 0.98547 0.28766 0.03667 0.0
C1573 C 0.98413 0.28988 0.05841 0.0
C1574 C 0.98596 0.2278 0.02615 0.0
C1575 C 0.98562 0.30685 0.0252 0.0
H1576 H 0.01912 0.25994 0.96501 0.0
H1577 H 0.95145 0.25136 0.95741 0.0
H1578 H 0.02655 0.28473 0.01779 0.0
H1579 H 0.0279 0.25716 0.01747 0.0
H1580 H 0.03932 0.27101 0.99782 0.0
H1581 H 0.93185 0.25612 0.98578 0.0
H1582 H 0.94428 0.24651 0.00867 0.0
H1583 H 0.9447 0.27418 0.00808 0.0
H1584 H 0.98319 0.23893 0.06745 0.0
H1585 H 0.98297 0.30518 0.06675 0.0
H1586 H 0.99967 0.22749 0.01714 0.0
H1587 H 0.97155 0.22314 0.01472 0.0
H1588 H 0.98683 0.21595 0.0374 0.0
H1589 H 0.99913 0.30796 0.0159 0.0
H1590 H 0.98661 0.32161 0.03614 0.0
H1591 H 0.97104 0.30548 0.01395 0.0
C1592 C 0.36014 0.76764 0.37645 0.0
C1593 C 0.37105 0.76072 0.35981 0.0
C1594 C 0.35958 0.75701 0.3943 0.0
C1595 C 0.37026 0.73909 0.39562 0.0
C1596 C 0.38017 0.73124 0.37835 0.0
C1597 C 0.38048 0.74216 0.36064 0.0
C1598 C 0.34812 0.76531 0.41206 0.0
C1599 C 0.39129 0.71186 0.37902 0.0
C1600 C 0.39305 0.72805 0.44958 0.0
C1601 C 0.37891 0.71115 0.45325 0.0
C1602 C 0.39027 0.73731 0.43095 0.0
C1603 C 0.37266 0.7297 0.41575 0.0
C1604 C 0.35785 0.7131 0.41983 0.0
C1605 C 0.36125 0.70395 0.43853 0.0
C1606 C 0.40646 0.75495 0.42734 0.0
C1607 C 0.33872 0.70418 0.40451 0.0
H1608 H 0.35234 0.78165 0.37568 0.0
H1609 H 0.38894 0.73667 0.34787 0.0
H1610 H 0.3367 0.75255 0.41597 0.0
H1611 H 0.35955 0.77067 0.42637 0.0
H1612 H 0.33953 0.77866 0.40812 0.0
H1613 H 0.39672 0.70673 0.36371 0.0
H1614 H 0.40516 0.71518 0.39127 0.0
H1615 H 0.38068 0.69873 0.38346 0.0
H1616 H 0.40663 0.7336 0.46114 0.0
H1617 H 0.35047 0.69069 0.44132 0.0
H1618 H 0.39872 0.76911 0.42455 0.0
H1619 H 0.41389 0.75025 0.41308 0.0
H1620 H 0.41905 0.75922 0.44088 0.0
H1621 H 0.33606 0.71327 0.39103 0.0
H1622 H 0.3245 0.70348 0.41285 0.0
H1623 H 0.34051 0.68776 0.39845 0.0
C1624 C 0.95663 0.59669 0.51235 0.0
C1625 C 0.97333 0.59312 0.52685 0.0
C1626 C 0.96047 0.60402 0.49324 0.0
C1627 C 0.98148 0.60801 0.4888 0.0
C1628 C 0.99841 0.60525 0.50381 0.0
C1629 C 0.99411 0.59772 0.52263 0.0
C1630 C 0.94208 0.60681 0.47754 0.0
C1631 C 0.02106 0.60976 0.49977 0.0
C1632 C 0.99574 0.60393 0.43326 0.0
C1633 C 1.00057 0.62511 0.43086 0.0
C1634 C 0.98835 0.59812 0.4517 0.0
C1635 C 0.98598 0.61397 0.46805 0.0
C1636 C 0.98992 0.63544 0.4652 0.0
C1637 C 0.99698 0.64075 0.44645 0.0
C1638 C 0.98421 0.57505 0.45414 0.0
C1639 C 0.98777 0.65277 0.48234 0.0
H1640 H 0.94056 0.59306 0.51565 0.0
H1641 H 0.00702 0.59524 0.53404 0.0
H1642 H 0.9441 0.62279 0.4726 0.0
H1643 H 0.94148 0.59537 0.46321 0.0
H1644 H 0.92681 0.60442 0.48399 0.0
H1645 H 0.02401 0.59897 0.48604 0.0
H1646 H 0.02422 0.62605 0.49585 0.0
H1647 H 0.03239 0.60785 0.51354 0.0
H1648 H 0.99859 0.592 0.42103 0.0
H1649 H 1.00043 0.65713 0.44421 0.0
H1650 H 0.96856 0.57145 0.45949 0.0
H1651 H 0.9962 0.57111 0.46635 0.0
H1652 H 0.9848 0.56479 0.43922 0.0
H1653 H 0.97214 0.65021 0.488 0.0
H1654 H 0.98975 0.66858 0.47694 0.0
H1655 H 0.99987 0.65258 0.49597 0.0
C1656 C 0.86368 0.34613 0.63475 0.0
C1657 C 0.84639 0.34605 0.6462 0.0
C1658 C 0.88371 0.34347 0.64417 0.0
C1659 C 0.88687 0.3412 0.66591 0.0
C1660 C 0.86947 0.34106 0.67764 0.0
C1661 C 0.84946 0.3436 0.66768 0.0
C1662 C 0.90097 0.34258 0.63014 0.0
C1663 C 0.8717 0.33703 0.70039 0.0
C1664 C 0.93555 0.31521 0.6803 0.0
C1665 C 0.95045 0.33222 0.68943 0.0
C1666 C 0.91463 0.31771 0.67357 0.0
C1667 C 0.9081 0.33793 0.67595 0.0
C1668 C 0.92252 0.35516 0.68625 0.0
C1669 C 0.94337 0.35202 0.69319 0.0
C1670 C 0.89973 0.29873 0.66316 0.0
C1671 C 0.91612 0.37703 0.68929 0.0
H1672 H 0.86159 0.34822 0.6182 0.0
H1673 H 0.8361 0.34308 0.67655 0.0
H1674 H 0.9163 0.33979 0.63824 0.0
H1675 H 0.89607 0.3298 0.61688 0.0
H1676 H 0.90306 0.35751 0.62307 0.0
H1677 H 0.8571 0.33898 0.70774 0.0
H1678 H 0.87541 0.32073 0.70134 0.0
H1679 H 0.88492 0.34776 0.70973 0.0
H1680 H 0.94001 0.29971 0.67864 0.0
H1681 H 0.95431 0.36532 0.70049 0.0
H1682 H 0.89664 0.29976 0.64603 0.0
H1683 H 0.88442 0.29832 0.66959 0.0
H1684 H 0.90626 0.28375 0.66528 0.0
H1685 H 0.90973 0.38157 0.67395 0.0
H1686 H 0.9294 0.38898 0.6966 0.0
H1687 H 0.90338 0.37734 0.69953 0.0
C1688 C 0.63327 0.63259 0.25464 0.0
C1689 C 0.64579 0.65175 0.25434 0.0
C1690 C 0.61485 0.6317 0.26444 0.0
C1691 C 0.60851 0.65049 0.27385 0.0
C1692 C 0.6212 0.66993 0.27375 0.0
C1693 C 0.63983 0.6703 0.26412 0.0
C1694 C 0.60208 0.61062 0.26453 0.0
C1695 C 0.61476 0.69041 0.28307 0.0
C1696 C 0.5504 0.64566 0.28118 0.0
C1697 C 0.55119 0.64253 0.3024 0.0
C1698 C 0.56901 0.64951 0.27192 0.0
C1699 C 0.58876 0.64948 0.28404 0.0
C1700 C 0.58948 0.64675 0.30562 0.0
C1701 C 0.57069 0.64378 0.31463 0.0
C1702 C 0.56751 0.65285 0.24901 0.0
C1703 C 0.61002 0.64592 0.31896 0.0
H1704 H 0.63797 0.61821 0.24719 0.0
H1705 H 0.6494 0.68516 0.26369 0.0
H1706 H 0.59859 0.60858 0.28072 0.0
H1707 H 0.58678 0.60987 0.25452 0.0
H1708 H 0.6103 0.59734 0.25855 0.0
H1709 H 0.62824 0.70315 0.28614 0.0
H1710 H 0.60243 0.69527 0.27182 0.0
H1711 H 0.60794 0.68869 0.29796 0.0
H1712 H 0.53519 0.64455 0.27177 0.0
H1713 H 0.57117 0.64179 0.33114 0.0
H1714 H 0.57275 0.63928 0.23973 0.0
H1715 H 0.57811 0.66711 0.24703 0.0
H1716 H 0.5512 0.65459 0.2424 0.0
H1717 H 0.61652 0.63121 0.31382 0.0
H1718 H 0.60812 0.64633 0.33592 0.0
H1719 H 0.62161 0.65929 0.31681 0.0
C1720 C 0.47615 0.04387 0.38654 0.0
C1721 C 0.46248 0.02504 0.38437 0.0
C1722 C 0.49382 0.04546 0.37563 0.0
C1723 C 0.4977 0.02788 0.36208 0.0
C1724 C 0.48411 0.00873 0.36004 0.0
C1725 C 0.46672 0.0075 0.37136 0.0
C1726 C 0.50815 0.06602 0.37835 0.0
C1727 C 0.4878 0.98963 0.34572 0.0
C1728 C 0.52869 0.0366 0.31651 0.0
C1729 C 0.54807 0.03044 0.32369 0.0
C1730 C 0.51225 0.03622 0.32904 0.0
C1731 C 0.51546 0.02971 0.34931 0.0
C1732 C 0.53525 0.024 0.35687 0.0
C1733 C 0.55129 0.02418 0.34381 0.0
C1734 C 0.49118 0.04186 0.3202 0.0
C1735 C 0.53926 0.017 0.37841 0.0
H1736 H 0.47301 0.05736 0.39682 0.0
H1737 H 0.45609 0.99296 0.3696 0.0
H1738 H 0.52464 0.06337 0.38318 0.0
H1739 H 0.50785 0.07258 0.36312 0.0
H1740 H 0.50351 0.07787 0.39028 0.0
H1741 H 0.47448 0.97679 0.34402 0.0
H1742 H 0.49025 0.99389 0.32987 0.0
H1743 H 0.50231 0.98356 0.35215 0.0
H1744 H 0.52627 0.04104 0.30076 0.0
H1745 H 0.5661 0.01871 0.34898 0.0
H1746 H 0.486 0.0542 0.33118 0.0
H1747 H 0.47916 0.02783 0.31848 0.0
H1748 H 0.49163 0.04759 0.30459 0.0
H1749 H 0.5561 0.0152 0.38273 0.0
H1750 H 0.52966 0.00168 0.37876 0.0
H1751 H 0.53442 0.02849 0.39053 0.0
C1752 C 0.03177 0.96147 0.73804 0.0
C1753 C 0.04295 0.98177 0.74179 0.0
C1754 C 0.00969 0.95844 0.73391 0.0
C1755 C 0.99851 0.97614 0.73358 0.0
C1756 C 0.00972 0.99665 0.73662 0.0
C1757 C 0.0318 0.99921 0.74066 0.0
C1758 C 0.99828 0.93635 0.73068 0.0
C1759 C 0.99835 0.01593 0.73643 0.0
C1760 C 0.94095 0.9713 0.71042 0.0
C1761 C 0.93103 0.97256 0.72871 0.0
C1762 C 0.96293 0.97173 0.71164 0.0
C1763 C 0.97509 0.97338 0.73163 0.0
C1764 C 0.9649 0.9737 0.75005 0.0
C1765 C 0.94298 0.97333 0.74833 0.0
C1766 C 0.9732 0.97152 0.69168 0.0
C1767 C 0.97723 0.97543 0.77166 0.0
H1768 H 0.0403 0.94793 0.73864 0.0
H1769 H 0.04029 0.01494 0.74378 0.0
H1770 H 0.98888 0.93399 0.74386 0.0
H1771 H 0.98712 0.93386 0.71595 0.0
H1772 H 0.00928 0.92426 0.72986 0.0
H1773 H 0.00938 0.03068 0.73778 0.0
H1774 H 0.98736 0.01474 0.72169 0.0
H1775 H 0.98877 0.017 0.74973 0.0
H1776 H 0.93161 0.97114 0.69532 0.0
H1777 H 0.93512 0.97444 0.76238 0.0
H1778 H 0.98441 0.95964 0.69115 0.0
H1779 H 0.98237 0.98709 0.69137 0.0
H1780 H 0.96147 0.96806 0.67735 0.0
H1781 H 0.96681 0.97388 0.7842 0.0
H1782 H 0.98715 0.99091 0.77518 0.0
H1783 H 0.98795 0.96311 0.77219 0.0
C1784 C 0.67413 0.83122 0.31824 0.0
C1785 C 0.66699 0.82919 0.33783 0.0
C1786 C 0.68401 0.85054 0.31391 0.0
C1787 C 0.68657 0.86828 0.32944 0.0
C1788 C 0.68046 0.86602 0.34962 0.0
C1789 C 0.6708 0.84649 0.35358 0.0
C1790 C 0.69061 0.85226 0.29233 0.0
C1791 C 0.6827 0.88461 0.36655 0.0
C1792 C 0.71822 0.92092 0.32536 0.0
C1793 C 0.70218 0.93241 0.31846 0.0
C1794 C 0.71369 0.89953 0.32789 0.0
C1795 C 0.69256 0.88973 0.32379 0.0
C1796 C 0.67648 0.9012 0.31606 0.0
C1797 C 0.6815 0.92236 0.31359 0.0
C1798 C 0.73127 0.88781 0.33603 0.0
C1799 C 0.65368 0.89162 0.31189 0.0
H1800 H 0.67153 0.81779 0.30612 0.0
H1801 H 0.66519 0.84509 0.36869 0.0
H1802 H 0.6797 0.86126 0.28345 0.0
H1803 H 0.70666 0.86097 0.29363 0.0
H1804 H 0.69041 0.83658 0.28316 0.0
H1805 H 0.6787 0.87995 0.38187 0.0
H1806 H 0.69901 0.89283 0.36886 0.0
H1807 H 0.67208 0.89602 0.36153 0.0
H1808 H 0.73409 0.92893 0.32958 0.0
H1809 H 0.66895 0.93159 0.30945 0.0
H1810 H 0.73002 0.87191 0.32704 0.0
H1811 H 0.73006 0.88571 0.35274 0.0
H1812 H 0.74702 0.89639 0.33507 0.0
H1813 H 0.64341 0.90214 0.30435 0.0
H1814 H 0.64791 0.88837 0.32697 0.0
H1815 H 0.65203 0.87642 0.30156 0.0
C1816 C 0.71694 0.02838 0.00438 0.0
C1817 C 0.72045 0.03854 0.98666 0.0
C1818 C 0.71828 0.00679 0.00427 0.0
C1819 C 0.72293 0.99497 0.98587 0.0
C1820 C 0.7256 0.00489 0.96763 0.0
C1821 C 0.72443 0.02657 0.96827 0.0
C1822 C 0.71539 0.99677 0.02406 0.0
C1823 C 0.73038 0.99272 0.94767 0.0
C1824 C 0.74828 0.94545 0.99334 0.0
C1825 C 0.73091 0.9299 0.98862 0.0
C1826 C 0.74596 0.96669 0.99224 0.0
C1827 C 0.72578 0.97241 0.98603 0.0
C1828 C 0.70826 0.95665 0.98076 0.0
C1829 C 0.71102 0.93557 0.98229 0.0
C1830 C 0.76499 0.98304 0.99823 0.0
C1831 C 0.68652 0.96211 0.97401 0.0
H1832 H 0.71348 0.0374 0.01853 0.0
H1833 H 0.72745 0.03427 0.95459 0.0
H1834 H 0.70279 0.98321 0.02067 0.0
H1835 H 0.73011 0.9906 0.0298 0.0
H1836 H 0.71127 0.00801 0.03686 0.0
H1837 H 0.73055 0.0024 0.93443 0.0
H1838 H 0.74598 0.98705 0.95048 0.0
H1839 H 0.71851 0.97866 0.94292 0.0
H1840 H 0.76361 0.94092 0.99824 0.0
H1841 H 0.69754 0.92353 0.97912 0.0
H1842 H 0.76254 0.99393 0.01209 0.0
H1843 H 0.76718 0.99259 0.98514 0.0
H1844 H 0.77965 0.97591 0.00213 0.0
H1845 H 0.68107 0.9718 0.98719 0.0
H1846 H 0.67485 0.94788 0.96915 0.0
H1847 H 0.68693 0.97162 0.96069 0.0
C1848 C 0.23548 0.62431 0.62174 0.0
C1849 C 0.2383 0.64143 0.63768 0.0
C1850 C 0.24792 0.60787 0.62275 0.0
C1851 C 0.26341 0.60843 0.64027 0.0
C1852 C 0.26626 0.62557 0.65651 0.0
C1853 C 0.25372 0.64198 0.65497 0.0
C1854 C 0.24478 0.59011 0.60483 0.0
C1855 C 0.28262 0.6266 0.6754 0.0
C1856 C 0.28216 0.55552 0.6466 0.0
C1857 C 0.30105 0.55739 0.63766 0.0
C1858 C 0.27043 0.57254 0.64892 0.0
C1859 C 0.27717 0.59143 0.64098 0.0
C1860 C 0.2963 0.59345 0.63206 0.0
C1861 C 0.30844 0.57669 0.63133 0.0
C1862 C 0.2503 0.56992 0.65886 0.0
C1863 C 0.30323 0.6128 0.62214 0.0
H1864 H 0.22384 0.62402 0.60816 0.0
H1865 H 0.25587 0.65517 0.66733 0.0
H1866 H 0.25991 0.5882 0.59854 0.0
H1867 H 0.23941 0.5751 0.61062 0.0
H1868 H 0.23302 0.59275 0.59172 0.0
H1869 H 0.28274 0.64088 0.68681 0.0
H1870 H 0.27964 0.61247 0.68356 0.0
H1871 H 0.29848 0.62654 0.67023 0.0
H1872 H 0.27614 0.5405 0.65106 0.0
H1873 H 0.32322 0.57827 0.62476 0.0
H1874 H 0.23659 0.56903 0.64659 0.0
H1875 H 0.2496 0.58371 0.67061 0.0
H1876 H 0.24877 0.55543 0.66673 0.0
H1877 H 0.29059 0.61575 0.61007 0.0
H1878 H 0.31771 0.6113 0.61446 0.0
H1879 H 0.30599 0.62678 0.63423 0.0
C1880 C 0.39546 0.47516 0.03884 0.0
C1881 C 0.39166 0.45884 0.02205 0.0
C1882 C 0.38899 0.49497 0.03656 0.0
C1883 C 0.37848 0.49854 0.01702 0.0
C1884 C 0.37531 0.48239 0.99977 0.0
C1885 C 0.38197 0.46275 0.00249 0.0
C1886 C 0.39255 0.51177 0.05532 0.0
C1887 C 0.3644 0.48571 0.97861 0.0
C1888 C 0.33901 0.53796 0.01628 0.0
C1889 C 0.35019 0.55496 0.00899 0.0
C1890 C 0.34819 0.51966 0.01932 0.0
C1891 C 0.36918 0.51845 0.01509 0.0
C1892 C 0.38079 0.53591 0.00831 0.0
C1893 C 0.3711 0.55402 0.00531 0.0
C1894 C 0.33516 0.50135 0.02632 0.0
C1895 C 0.40314 0.53517 0.00356 0.0
H1896 H 0.40275 0.47221 0.05405 0.0
H1897 H 0.37933 0.45031 0.98935 0.0
H1898 H 0.40013 0.52674 0.051 0.0
H1899 H 0.37717 0.51485 0.06047 0.0
H1900 H 0.40255 0.50718 0.06883 0.0
H1901 H 0.36224 0.47125 0.96707 0.0
H1902 H 0.34874 0.49086 0.98036 0.0
H1903 H 0.37374 0.49842 0.9721 0.0
H1904 H 0.32283 0.53888 0.01909 0.0
H1905 H 0.37953 0.56717 0.99937 0.0
H1906 H 0.34361 0.49619 0.04044 0.0
H1907 H 0.33266 0.48784 0.01366 0.0
H1908 H 0.31952 0.5053 0.03007 0.0
H1909 H 0.41053 0.55062 1.00012 0.0
H1910 H 0.40334 0.52331 0.98974 0.0
H1911 H 0.41287 0.53025 0.01704 0.0
C1912 C 0.3557 0.64856 0.85788 0.0
C1913 C 0.33815 0.63951 0.84357 0.0
C1914 C 0.3533 0.6581 0.87801 0.0
C1915 C 0.33286 0.65876 0.88402 0.0
C1916 C 0.31509 0.64926 0.86984 0.0
C1917 C 0.31795 0.6397 0.84981 0.0
C1918 C 0.37265 0.66783 0.89275 0.0
C1919 C 0.29303 0.64976 0.87559 0.0
C1920 C 0.3296 0.67315 0.94253 0.0
C1921 C 0.32927 0.6949 0.94374 0.0
C1922 C 0.33023 0.66095 0.92314 0.0
C1923 C 0.33015 0.6708 0.9045 0.0
C1924 C 0.32859 0.69261 0.90556 0.0
C1925 C 0.328 0.70431 0.92513 0.0
C1926 C 0.33166 0.63771 0.92271 0.0
C1927 C 0.32841 0.70381 0.88616 0.0
H1928 H 0.37137 0.6481 0.85334 0.0
H1929 H 0.30432 0.63283 0.8388 0.0
H1930 H 0.37198 0.6849 0.89676 0.0
H1931 H 0.37309 0.66069 0.90767 0.0
H1932 H 0.38748 0.66573 0.88588 0.0
H1933 H 0.281 0.64037 0.86345 0.0
H1934 H 0.29173 0.64361 0.89089 0.0
H1935 H 0.28943 0.66625 0.8775 0.0
H1936 H 0.3297 0.66579 0.95683 0.0
H1937 H 0.32722 0.72109 0.92601 0.0
H1938 H 0.34715 0.63423 0.91812 0.0
H1939 H 0.31933 0.62856 0.91075 0.0
H1940 H 0.32992 0.6322 0.93826 0.0
H1941 H 0.34375 0.70341 0.87987 0.0
H1942 H 0.32567 0.72051 0.88947 0.0
H1943 H 0.316 0.69572 0.87367 0.0
C1944 C 0.98489 0.71823 0.01581 0.0
C1945 C 0.96414 0.71593 0.02077 0.0
C1946 C 0.98907 0.71971 0.99507 0.0
C1947 C 0.97208 0.71876 0.9789 0.0
C1948 C 0.95109 0.71576 0.98369 0.0
C1949 C 0.94737 0.71445 0.0046 0.0
C1950 C 0.01167 0.72307 0.99058 0.0
C1951 C 0.93259 0.71452 0.96681 0.0
C1952 C 0.9821 0.74504 0.93045 0.0
C1953 C 0.98438 0.72782 0.91607 0.0
C1954 C 0.97817 0.74233 0.95102 0.0
C1955 C 0.97629 0.72182 0.95716 0.0
C1956 C 0.97853 0.70434 0.94256 0.0
C1957 C 0.98265 0.70759 0.92215 0.0
C1958 C 0.97604 0.76138 0.96617 0.0
C1959 C 0.97664 0.68228 0.94852 0.0
H1960 H 0.99792 0.71974 0.0283 0.0
H1961 H 0.93133 0.71254 0.00837 0.0
H1962 H 0.01443 0.71098 0.97786 0.0
H1963 H 0.01496 0.73863 0.98498 0.0
H1964 H 0.02305 0.7224 0.00471 0.0
H1965 H 0.91727 0.71102 0.97293 0.0
H1966 H 0.93274 0.72967 0.96014 0.0
H1967 H 0.93379 0.70215 0.95373 0.0
H1968 H 0.98325 0.76058 0.92547 0.0
H1969 H 0.98467 0.6944 0.9109 0.0
H1970 H 0.98791 0.76257 0.98026 0.0
H1971 H 0.96027 0.75975 0.97166 0.0
H1972 H 0.97816 0.77622 0.95895 0.0
H1973 H 0.98883 0.68123 0.96183 0.0
H1974 H 0.97845 0.67038 0.9352 0.0
H1975 H 0.96107 0.67829 0.95392 0.0
C1976 C 0.63408 0.27165 0.64845 0.0
C1977 C 0.65007 0.2598 0.6551 0.0
C1978 C 0.6325 0.2783 0.62832 0.0
C1979 C 0.64731 0.27314 0.61449 0.0
C1980 C 0.66377 0.26166 0.62125 0.0
C1981 C 0.66498 0.25519 0.64145 0.0
C1982 C 0.61482 0.29067 0.62175 0.0
C1983 C 0.6798 0.25578 0.60693 0.0
C1984 C 0.62839 0.27317 0.55646 0.0
C1985 C 0.63783 0.2928 0.55272 0.0
C1986 C 0.63206 0.26615 0.57625 0.0
C1987 C 0.64516 0.27932 0.59277 0.0
C1988 C 0.65512 0.29896 0.58879 0.0
C1989 C 0.6515 0.30539 0.5687 0.0
C1990 C 0.62109 0.24511 0.57975 0.0
C1991 C 0.66859 0.31368 0.60607 0.0
H1992 H 0.62234 0.27515 0.65871 0.0
H1993 H 0.67758 0.24634 0.64651 0.0
H1994 H 0.62143 0.30699 0.62023 0.0
H1995 H 0.60638 0.28374 0.60614 0.0
H1996 H 0.60321 0.29125 0.63325 0.0
H1997 H 0.69187 0.24714 0.61466 0.0
H1998 H 0.67175 0.24577 0.59254 0.0
H1999 H 0.68786 0.27013 0.60183 0.0
H2000 H 0.61759 0.26367 0.544 0.0
H2001 H 0.65836 0.32076 0.56575 0.0
H2002 H 0.6091 0.24756 0.59062 0.0
H2003 H 0.63254 0.2357 0.58725 0.0
H2004 H 0.6131 0.23594 0.56483 0.0
H2005 H 0.65878 0.31846 0.61844 0.0
H2006 H 0.67579 0.32801 0.6002 0.0
H2007 H 0.68123 0.30557 0.61352 0.0
C2008 C 0.02742 0.40948 0.48589 0.0
C2009 C 0.0158 0.40219 0.46617 0.0
C2010 C 0.02333 0.40006 0.50392 0.0
C2011 C 0.00715 0.38297 0.50226 0.0
C2012 C 0.99498 0.37587 0.48255 0.0
C2013 C 0.99947 0.38553 0.46475 0.0
C2014 C 0.03668 0.40803 0.52465 0.0
C2015 C 0.97762 0.35765 0.48011 0.0
C2016 C 0.01084 0.34257 0.5407 0.0
C2017 C 0.99634 0.3482 0.55428 0.0
C2018 C 0.01485 0.35406 0.52402 0.0
C2019 C 0.00389 0.37153 0.52077 0.0
C2020 C 0.98941 0.37748 0.53473 0.0
C2021 C 0.98576 0.36565 0.55135 0.0
C2022 C 0.0304 0.34714 0.50957 0.0
C2023 C 0.97731 0.39588 0.53169 0.0
H2024 H 0.03982 0.42257 0.48724 0.0
H2025 H 0.99055 0.37961 0.44958 0.0
H2026 H 0.0265 0.412 0.53696 0.0
H2027 H 0.04579 0.39551 0.52987 0.0
H2028 H 0.04789 0.42216 0.52356 0.0
H2029 H 0.96875 0.35488 0.46404 0.0
H2030 H 0.98441 0.34309 0.48339 0.0
H2031 H 0.9664 0.36054 0.4917 0.0
H2032 H 0.0187 0.32883 0.54298 0.0
H2033 H 0.97419 0.36956 0.56167 0.0
H2034 H 0.04262 0.36046 0.50865 0.0
H2035 H 0.02218 0.34218 0.49342 0.0
H2036 H 0.0383 0.33384 0.51489 0.0
H2037 H 0.96775 0.39933 0.54472 0.0
H2038 H 0.96662 0.39247 0.51665 0.0
H2039 H 0.98827 0.41016 0.53061 0.0
C2040 C 0.29282 0.60603 0.52318 0.0
C2041 C 0.29478 0.59501 0.5036 0.0
C2042 C 0.29526 0.59644 0.54175 0.0
C2043 C 0.29907 0.57514 0.54057 0.0
C2044 C 0.29982 0.56362 0.52068 0.0
C2045 C 0.29782 0.57372 0.50249 0.0
C2046 C 0.29466 0.60935 0.56266 0.0
C2047 C 0.30339 0.54075 0.51867 0.0
C2048 C 0.32831 0.55399 0.58664 0.0
C2049 C 0.31178 0.5432 0.595 0.0
C2050 C 0.32432 0.56509 0.56936 0.0
C2051 C 0.30329 0.56501 0.56006 0.0
C2052 C 0.28651 0.55424 0.5687 0.0
C2053 C 0.29099 0.54354 0.58619 0.0
C2054 C 0.34261 0.57692 0.5611 0.0
C2055 C 0.26391 0.55368 0.55922 0.0
H2056 H 0.29041 0.62246 0.52412 0.0
H2057 H 0.29887 0.56498 0.48734 0.0
H2058 H 0.28339 0.60114 0.57178 0.0
H2059 H 0.31043 0.61126 0.57205 0.0
H2060 H 0.29007 0.62522 0.56082 0.0
H2061 H 0.30212 0.53365 0.50199 0.0
H2062 H 0.3193 0.53927 0.52652 0.0
H2063 H 0.29177 0.53157 0.52669 0.0
H2064 H 0.34431 0.55394 0.59393 0.0
H2065 H 0.27832 0.53532 0.59302 0.0
H2066 H 0.34056 0.59384 0.56187 0.0
H2067 H 0.34306 0.57098 0.54433 0.0
H2068 H 0.35798 0.57547 0.57018 0.0
H2069 H 0.26008 0.56986 0.55782 0.0
H2070 H 0.25266 0.54591 0.56871 0.0
H2071 H 0.26162 0.54502 0.54309 0.0
C2072 C 0.26433 0.48064 0.90357 0.0
C2073 C 0.26622 0.46029 0.90863 0.0
C2074 C 0.27293 0.49838 0.91774 0.0
C2075 C 0.28343 0.4957 0.93759 0.0
C2076 C 0.28491 0.47517 0.94303 0.0
C2077 C 0.27649 0.45768 0.92836 0.0
C2078 C 0.27126 0.52001 0.91126 0.0
C2079 C 0.29582 0.47163 0.96411 0.0
C2080 C 0.32366 0.54105 0.96387 0.0
C2081 C 0.31194 0.55166 0.97765 0.0
C2082 C 0.31473 0.5225 0.95108 0.0
C2083 C 0.29355 0.51446 0.95218 0.0
C2084 C 0.28178 0.52496 0.96647 0.0
C2085 C 0.29114 0.54356 0.979 0.0
C2086 C 0.32781 0.51177 0.9361 0.0
C2087 C 0.25934 0.51656 0.96844 0.0
H2088 H 0.25663 0.48269 0.88821 0.0
H2089 H 0.27787 0.44193 0.93232 0.0
H2090 H 0.2635 0.52949 0.92286 0.0
H2091 H 0.28726 0.52835 0.91103 0.0
H2092 H 0.26219 0.51939 0.89543 0.0
H2093 H 0.3131 0.47488 0.96417 0.0
H2094 H 0.29137 0.48247 0.97703 0.0
H2095 H 0.29207 0.45518 0.96746 0.0
H2096 H 0.33977 0.54749 0.96298 0.0
H2097 H 0.28234 0.55176 0.99 0.0
H2098 H 0.32044 0.51149 0.91964 0.0
H2099 H 0.32839 0.49521 0.93906 0.0
H2100 H 0.3442 0.51978 0.93762 0.0
H2101 H 0.2493 0.51647 0.95327 0.0
H2102 H 0.25271 0.52606 0.98098 0.0
H2103 H 0.25855 0.50006 0.972 0.0
C2104 C 0.69417 0.94295 0.45588 0.0
C2105 C 0.68464 0.96003 0.46428 0.0
C2106 C 0.69819 0.94087 0.43479 0.0
C2107 C 0.6926 0.95625 0.42187 0.0
C2108 C 0.68263 0.9733 0.43015 0.0
C2109 C 0.67875 0.97495 0.45122 0.0
C2110 C 0.7088 0.92249 0.42644 0.0
C2111 C 0.67627 0.98996 0.4168 0.0
C2112 C 0.71871 0.96832 0.37402 0.0
C2113 C 0.703 0.95965 0.3577 0.0
C2114 C 0.71625 0.966 0.39504 0.0
C2115 C 0.6974 0.95498 0.39975 0.0
C2116 C 0.68201 0.94507 0.38317 0.0
C2117 C 0.68505 0.94744 0.3623 0.0
C2118 C 0.73309 0.9767 0.41224 0.0
C2119 C 0.66161 0.9334 0.38756 0.0
H2120 H 0.69898 0.93149 0.46594 0.0
H2121 H 0.67107 0.98798 0.45751 0.0
H2122 H 0.6992 0.91378 0.41211 0.0
H2123 H 0.7243 0.92831 0.42183 0.0
H2124 H 0.71131 0.91138 0.43823 0.0
H2125 H 0.66821 0.00192 0.4255 0.0
H2126 H 0.6904 0.99809 0.41135 0.0
H2127 H 0.66557 0.98259 0.40257 0.0
H2128 H 0.73241 0.97791 0.37032 0.0
H2129 H 0.6726 0.94119 0.34978 0.0
H2130 H 0.73672 0.9659 0.42404 0.0
H2131 H 0.72732 0.99054 0.42055 0.0
H2132 H 0.74786 0.98217 0.40594 0.0
H2133 H 0.66487 0.92122 0.39796 0.0
H2134 H 0.65172 0.92573 0.37291 0.0
H2135 H 0.65244 0.94449 0.39596 0.0
C2136 C 0.7809 0.96863 0.12283 0.0
C2137 C 0.7735 0.95531 0.13694 0.0
C2138 C 0.77654 0.96278 0.10095 0.0
C2139 C 0.76476 0.94305 0.09312 0.0
C2140 C 0.75731 0.92956 0.10734 0.0
C2141 C 0.76172 0.93589 0.12905 0.0
C2142 C 0.78452 0.97762 0.08622 0.0
C2143 C 0.74489 0.90829 0.09964 0.0
C2144 C 0.73549 0.92842 0.03824 0.0
C2145 C 0.74877 0.91536 0.02897 0.0
C2146 C 0.74127 0.93901 0.05865 0.0
C2147 C 0.76054 0.93597 0.07013 0.0
C2148 C 0.77452 0.92372 0.0603 0.0
C2149 C 0.76848 0.91368 0.03973 0.0
C2150 C 0.72612 0.95228 0.06838 0.0
C2151 C 0.79516 0.91999 0.07198 0.0
H2152 H 0.78989 0.98373 0.12891 0.0
H2153 H 0.75625 0.92542 0.13992 0.0
H2154 H 0.79549 0.9701 0.07652 0.0
H2155 H 0.77119 0.98111 0.07523 0.0
H2156 H 0.79284 0.99267 0.0948 0.0
H2157 H 0.74023 0.89971 0.11278 0.0
H2158 H 0.73043 0.91017 0.0893 0.0
H2159 H 0.75437 0.89848 0.09011 0.0
H2160 H 0.72016 0.92954 0.0299 0.0
H2161 H 0.77871 0.90364 0.03234 0.0
H2162 H 0.73461 0.96725 0.07692 0.0
H2163 H 0.71832 0.94369 0.07999 0.0
H2164 H 0.71375 0.95597 0.05637 0.0
H2165 H 0.80403 0.93506 0.07984 0.0
H2166 H 0.80521 0.91214 0.0614 0.0
H2167 H 0.79201 0.90989 0.08445 0.0
C2168 C 0.51187 0.31827 0.58594 0.0
C2169 C 0.50844 0.30485 0.60129 0.0
C2170 C 0.52965 0.31804 0.57522 0.0
C2171 C 0.54416 0.30363 0.57947 0.0
C2172 C 0.54082 0.28998 0.59492 0.0
C2173 C 0.52313 0.29093 0.60579 0.0
C2174 C 0.5328 0.33314 0.55917 0.0
C2175 C 0.55593 0.27457 0.60048 0.0
C2176 C 0.57599 0.29091 0.53454 0.0
C2177 C 0.59488 0.30396 0.54132 0.0
C2178 C 0.55964 0.28998 0.54726 0.0
C2179 C 0.56228 0.30258 0.56708 0.0
C2180 C 0.58171 0.31523 0.57426 0.0
C2181 C 0.59776 0.31582 0.56121 0.0
C2182 C 0.53949 0.27562 0.53947 0.0
C2183 C 0.58532 0.3286 0.5954 0.0
H2184 H 0.50049 0.32887 0.58208 0.0
H2185 H 0.52087 0.28079 0.61792 0.0
H2186 H 0.54854 0.34258 0.56301 0.0
H2187 H 0.5323 0.32422 0.54332 0.0
H2188 H 0.52063 0.34406 0.55846 0.0
H2189 H 0.54734 0.25996 0.60459 0.0
H2190 H 0.56538 0.27026 0.58763 0.0
H2191 H 0.56686 0.28176 0.61461 0.0
H2192 H 0.5741 0.28145 0.5193 0.0
H2193 H 0.61249 0.32588 0.56632 0.0
H2194 H 0.52622 0.28509 0.53725 0.0
H2195 H 0.53583 0.26501 0.55139 0.0
H2196 H 0.54042 0.2659 0.52432 0.0
H2197 H 0.57511 0.34135 0.59512 0.0
H2198 H 0.60197 0.33582 0.59955 0.0
H2199 H 0.58099 0.31902 0.60792 0.0
C2200 C 0.11889 0.78985 0.94438 0.0
C2201 C 0.12377 0.78655 0.96542 0.0
C2202 C 0.09882 0.78297 0.93344 0.0
C2203 C 0.08317 0.77268 0.94386 0.0
C2204 C 0.08775 0.76993 0.96532 0.0
C2205 C 0.10808 0.77677 0.97583 0.0
C2206 C 0.09462 0.78601 0.91049 0.0
C2207 C 0.07134 0.75929 0.97701 0.0
C2208 C 0.02734 0.76827 0.91619 0.0
C2209 C 0.02506 0.74797 0.90539 0.0
C2210 C 0.04586 0.77627 0.9296 0.0
C2211 C 0.06251 0.76371 0.9318 0.0
C2212 C 0.05995 0.74296 0.92117 0.0
C2213 C 0.04116 0.73532 0.90812 0.0
C2214 C 0.0479 0.79836 0.94083 0.0
C2215 C 0.07735 0.72912 0.92296 0.0
H2216 H 0.13105 0.79715 0.9362 0.0
H2217 H 0.11176 0.77437 0.99216 0.0
H2218 H 0.09115 0.77045 0.9007 0.0
H2219 H 0.08059 0.79437 0.90782 0.0
H2220 H 0.1082 0.79508 0.90497 0.0
H2221 H 0.07688 0.75986 0.99405 0.0
H2222 H 0.05668 0.76686 0.97527 0.0
H2223 H 0.06723 0.74258 0.97015 0.0
H2224 H 0.01482 0.77798 0.91371 0.0
H2225 H 0.03914 0.71963 0.89956 0.0
H2226 H 0.05996 0.80858 0.93434 0.0
H2227 H 0.05326 0.79854 0.95784 0.0
H2228 H 0.03281 0.80522 0.93914 0.0
H2229 H 0.09124 0.7363 0.91633 0.0
H2230 H 0.07244 0.71305 0.91448 0.0
H2231 H 0.08244 0.72781 0.93974 0.0
C2232 C 0.92192 0.27237 0.44967 0.0
C2233 C 0.90611 0.25632 0.45219 0.0
C2234 C 0.93643 0.28206 0.46685 0.0
C2235 C 0.93501 0.27562 0.48701 0.0
C2236 C 0.91953 0.25899 0.4895 0.0
C2237 C 0.90534 0.2495 0.47207 0.0
C2238 C 0.9527 0.29977 0.46358 0.0
C2239 C 0.9175 0.25165 0.51075 0.0
C2240 C 0.97937 0.28936 0.53222 0.0
C2241 C 0.97193 0.30574 0.5442 0.0
C2242 C 0.96793 0.27985 0.51305 0.0
C2243 C 0.94871 0.28704 0.50585 0.0
C2244 C 0.94174 0.30431 0.51755 0.0
C2245 C 0.95352 0.31347 0.5366 0.0
C2246 C 0.97602 0.26173 0.50084 0.0
C2247 C 0.92144 0.31256 0.51041 0.0
H2248 H 0.9225 0.27788 0.43442 0.0
H2249 H 0.89342 0.23687 0.47406 0.0
H2250 H 0.94856 0.31489 0.47095 0.0
H2251 H 0.96849 0.29766 0.47128 0.0
H2252 H 0.95367 0.30092 0.44662 0.0
H2253 H 0.90524 0.23791 0.50985 0.0
H2254 H 0.93275 0.2473 0.5176 0.0
H2255 H 0.91337 0.26465 0.52173 0.0
H2256 H 0.99392 0.28381 0.53811 0.0
H2257 H 0.94808 0.32633 0.54599 0.0
H2258 H 0.97659 0.26463 0.48424 0.0
H2259 H 0.9651 0.24711 0.50066 0.0
H2260 H 0.99198 0.25912 0.50772 0.0
H2261 H 0.92138 0.31639 0.49403 0.0
H2262 H 0.91893 0.32686 0.52068 0.0
H2263 H 0.90795 0.30025 0.51047 0.0
C2264 C 0.46844 0.72508 0.9537 0.0
C2265 C 0.4724 0.70422 0.94886 0.0
C2266 C 0.44797 0.72988 0.95565 0.0
C2267 C 0.43108 0.7134 0.95292 0.0
C2268 C 0.43481 0.69242 0.94714 0.0
C2269 C 0.45542 0.68809 0.94513 0.0
C2270 C 0.44463 0.75246 0.96176 0.0
C2271 C 0.41717 0.67443 0.94407 0.0
C2272 C 0.38499 0.71895 0.98381 0.0
C2273 C 0.36868 0.72067 0.96808 0.0
C2274 C 0.40541 0.71687 0.97918 0.0
C2275 C 0.40998 0.71762 0.95829 0.0
C2276 C 0.39418 0.72163 0.94267 0.0
C2277 C 0.37379 0.72355 0.9479 0.0
C2278 C 0.42181 0.71293 0.99648 0.0
C2279 C 0.39876 0.72367 0.92045 0.0
H2280 H 0.48148 0.73763 0.95684 0.0
H2281 H 0.45828 0.67198 0.941 0.0
H2282 H 0.43066 0.75652 0.95206 0.0
H2283 H 0.44161 0.75464 0.97844 0.0
H2284 H 0.45856 0.76364 0.95997 0.0
H2285 H 0.42219 0.65943 0.93737 0.0
H2286 H 0.41154 0.6722 0.95945 0.0
H2287 H 0.40364 0.6781 0.93348 0.0
H2288 H 0.38154 0.71835 0.99971 0.0
H2289 H 0.36226 0.72787 0.93634 0.0
H2290 H 0.4359 0.7248 0.99781 0.0
H2291 H 0.42697 0.69724 0.99261 0.0
H2292 H 0.41579 0.71343 0.01203 0.0
H2293 H 0.41064 0.73752 0.92047 0.0
H2294 H 0.38442 0.7255 0.90985 0.0
H2295 H 0.40554 0.70962 0.91395 0.0
C2296 C 0.57751 0.51092 0.31787 0.0
C2297 C 0.59552 0.5102 0.30746 0.0
C2298 C 0.56669 0.52869 0.31876 0.0
C2299 C 0.57396 0.54625 0.30898 0.0
C2300 C 0.59191 0.54552 0.29815 0.0
C2301 C 0.6024 0.5275 0.29744 0.0
C2302 C 0.54749 0.52868 0.33028 0.0
C2303 C 0.60027 0.56392 0.28764 0.0
C2304 C 0.53434 0.58431 0.29686 0.0
C2305 C 0.53933 0.59978 0.31425 0.0
C2306 C 0.54577 0.567 0.29469 0.0
C2307 C 0.56271 0.56531 0.31022 0.0
C2308 C 0.56806 0.58126 0.32761 0.0
C2309 C 0.55603 0.59812 0.32959 0.0
C2310 C 0.53948 0.55033 0.27597 0.0
C2311 C 0.58629 0.58034 0.34425 0.0
H2312 H 0.57172 0.49748 0.32525 0.0
H2313 H 0.61632 0.52718 0.28943 0.0
H2314 H 0.55011 0.54168 0.34346 0.0
H2315 H 0.53367 0.53144 0.31949 0.0
H2316 H 0.54364 0.51363 0.33675 0.0
H2317 H 0.61268 0.55996 0.27771 0.0
H2318 H 0.58733 0.56935 0.27763 0.0
H2319 H 0.60704 0.57718 0.29985 0.0
H2320 H 0.52132 0.58573 0.28512 0.0
H2321 H 0.5595 0.60997 0.34321 0.0
H2322 H 0.5345 0.53503 0.28144 0.0
H2323 H 0.55317 0.54822 0.26723 0.0
H2324 H 0.52638 0.55431 0.26498 0.0
H2325 H 0.5833 0.56614 0.35229 0.0
H2326 H 0.58897 0.59445 0.35625 0.0
H2327 H 0.60093 0.57903 0.33683 0.0
C2328 C 0.97206 0.10076 0.79054 0.0
C2329 C 0.96017 0.11617 0.78356 0.0
C2330 C 0.96472 0.07926 0.7851 0.0
C2331 C 0.94501 0.07321 0.77261 0.0
C2332 C 0.93272 0.08877 0.76607 0.0
C2333 C 0.94048 0.11003 0.7716 0.0
C2334 C 0.97822 0.06306 0.79226 0.0
C2335 C 0.91153 0.08296 0.75285 0.0
C2336 C 0.93029 0.02196 0.73688 0.0
C2337 C 0.9157 0.01136 0.74781 0.0
C2338 C 0.94129 0.04152 0.74556 0.0
C2339 C 0.93728 0.05072 0.7655 0.0
C2340 C 0.92345 0.03943 0.77712 0.0
C2341 C 0.91281 0.01979 0.76809 0.0
C2342 C 0.95605 0.05295 0.73275 0.0
C2343 C 0.91882 0.04867 0.79844 0.0
H2344 H 0.98733 0.10552 0.79975 0.0
H2345 H 0.93112 0.12196 0.76651 0.0
H2346 H 0.96902 0.05162 0.80045 0.0
H2347 H 0.98324 0.05405 0.77838 0.0
H2348 H 0.9925 0.07031 0.803 0.0
H2349 H 0.90367 0.09698 0.7497 0.0
H2350 H 0.91348 0.07411 0.73755 0.0
H2351 H 0.90101 0.07254 0.76089 0.0
H2352 H 0.93229 0.01542 0.7211 0.0
H2353 H 0.90155 0.01134 0.77644 0.0
H2354 H 0.97129 0.05893 0.7425 0.0
H2355 H 0.94909 0.06675 0.72742 0.0
H2356 H 0.95915 0.04271 0.71867 0.0
H2357 H 0.93362 0.05542 0.80857 0.0
H2358 H 0.91016 0.03679 0.80662 0.0
H2359 H 0.90909 0.06166 0.7965 0.0
C2360 C 0.4534 0.93535 0.26537 0.0
C2361 C 0.45818 0.91605 0.25597 0.0
C2362 C 0.46898 0.95283 0.27053 0.0
C2363 C 0.48982 0.95097 0.26611 0.0
C2364 C 0.49458 0.93167 0.25613 0.0
C2365 C 0.47874 0.91445 0.25126 0.0
C2366 C 0.46324 0.97294 0.28152 0.0
C2367 C 0.51651 0.9291 0.25088 0.0
C2368 C 0.52911 0.99964 0.26547 0.0
C2369 C 0.54161 1.00029 0.28478 0.0
C2370 C 0.5119 0.98388 0.25927 0.0
C2371 C 0.507 0.9687 0.27291 0.0
C2372 C 0.51927 0.9698 0.29275 0.0
C2373 C 0.5366 0.98537 0.29827 0.0
C2374 C 0.49914 0.98328 0.23806 0.0
C2375 C 0.51436 0.95427 0.30798 0.0
H2376 H 0.43759 0.93663 0.26923 0.0
H2377 H 0.48244 0.89966 0.24369 0.0
H2378 H 0.46861 0.97397 0.2986 0.0
H2379 H 0.47107 0.98697 0.27566 0.0
H2380 H 0.44595 0.97346 0.27949 0.0
H2381 H 0.51735 0.91347 0.24203 0.0
H2382 H 0.52193 0.9415 0.24135 0.0
H2383 H 0.52764 0.93098 0.2656 0.0
H2384 H 0.53292 0.01139 0.25523 0.0
H2385 H 0.54648 0.98581 0.3131 0.0
H2386 H 0.48231 0.98401 0.24002 0.0
H2387 H 0.50005 0.9682 0.22825 0.0
H2388 H 0.5047 0.99646 0.2295 0.0
H2389 H 0.49755 0.9535 0.31056 0.0
H2390 H 0.52426 0.95844 0.32346 0.0
H2391 H 0.51703 0.93832 0.30125 0.0
C2392 C 0.97107 0.44622 0.67613 0.0
C2393 C 0.97187 0.45782 0.65905 0.0
C2394 C 0.97491 0.42522 0.67435 0.0
C2395 C 0.97926 0.41528 0.65482 0.0
C2396 C 0.97953 0.42665 0.63725 0.0
C2397 C 0.97599 0.44789 0.63963 0.0
C2398 C 0.97493 0.4139 0.69367 0.0
C2399 C 0.98412 0.41684 0.61612 0.0
C2400 C 0.00728 0.37085 0.66972 0.0
C2401 C 0.98975 0.35758 0.67404 0.0
C2402 C 0.00471 0.38949 0.66101 0.0
C2403 C 0.98426 0.39329 0.65379 0.0
C2404 C 0.96798 0.37631 0.65075 0.0
C2405 C 0.97122 0.3581 0.66026 0.0
C2406 C 0.02352 0.40568 0.66107 0.0
C2407 C 0.94696 0.3776 0.63857 0.0
H2408 H 0.96749 0.4536 0.69105 0.0
H2409 H 0.97687 0.45679 0.62636 0.0
H2410 H 0.96474 0.39865 0.68998 0.0
H2411 H 0.99115 0.41055 0.69871 0.0
H2412 H 0.96936 0.42318 0.70708 0.0
H2413 H 0.00128 0.41982 0.61523 0.0
H2414 H 0.97938 0.39958 0.61355 0.0
H2415 H 0.97592 0.42398 0.60311 0.0
H2416 H 0.02301 0.36717 0.67283 0.0
H2417 H 0.95912 0.34485 0.65679 0.0
H2418 H 0.02273 0.41933 0.67297 0.0
H2419 H 0.02333 0.41151 0.64549 0.0
H2420 H 0.03863 0.3993 0.66487 0.0
H2421 H 0.93468 0.37674 0.64929 0.0
H2422 H 0.94318 0.36391 0.62613 0.0
H2423 H 0.94644 0.39218 0.63099 0.0
C2424 C 0.7073 0.38857 0.47361 0.0
C2425 C 0.69928 0.39794 0.49126 0.0
C2426 C 0.70589 0.39744 0.45453 0.0
C2427 C 0.69662 0.41627 0.45329 0.0
C2428 C 0.68906 0.42604 0.47126 0.0
C2429 C 0.69037 0.41671 0.48993 0.0
C2430 C 0.71366 0.38633 0.43554 0.0
C2431 C 0.67948 0.44636 0.47076 0.0
C2432 C 0.70848 0.45142 0.41132 0.0
C2433 C 0.68945 0.44786 0.39799 0.0
C2434 C 0.71125 0.44086 0.42917 0.0
C2435 C 0.69474 0.42602 0.43334 0.0
C2436 C 0.67574 0.4219 0.41931 0.0
C2437 C 0.67319 0.43323 0.40202 0.0
C2438 C 0.73158 0.44602 0.44386 0.0
C2439 C 0.65814 0.40554 0.42251 0.0
H2440 H 0.71402 0.37396 0.47453 0.0
H2441 H 0.68447 0.42419 0.50363 0.0
H2442 H 0.7002 0.38105 0.42308 0.0
H2443 H 0.72495 0.39724 0.42888 0.0
H2444 H 0.72144 0.37244 0.43934 0.0
H2445 H 0.67517 0.45241 0.48634 0.0
H2446 H 0.6907 0.45856 0.46566 0.0
H2447 H 0.66509 0.44392 0.45913 0.0
H2448 H 0.72097 0.46277 0.4079 0.0
H2449 H 0.65867 0.43043 0.3913 0.0
H2450 H 0.73894 0.4315 0.44594 0.0
H2451 H 0.72828 0.45272 0.45961 0.0
H2452 H 0.74306 0.45747 0.43802 0.0
H2453 H 0.66387 0.3899 0.4217 0.0
H2454 H 0.64423 0.40459 0.41042 0.0
H2455 H 0.65311 0.40909 0.4383 0.0
C2456 C 0.71622 0.53119 0.13219 0.0
C2457 C 0.72277 0.54947 0.12347 0.0
C2458 C 0.70514 0.51338 0.11953 0.0
C2459 C 0.70031 0.51385 0.0976 0.0
C2460 C 0.70658 0.53236 0.08873 0.0
C2461 C 0.71785 0.5499 0.10175 0.0
C2462 C 0.69897 0.49388 0.12957 0.0
C2463 C 0.70152 0.53356 0.06545 0.0
C2464 C 0.69151 0.46135 0.06263 0.0
C2465 C 0.6695 0.45713 0.05954 0.0
C2466 C 0.7017 0.47978 0.07488 0.0
C2467 C 0.68956 0.49461 0.08389 0.0
C2468 C 0.66726 0.4907 0.08028 0.0
C2469 C 0.65749 0.47188 0.06829 0.0
C2470 C 0.72548 0.48327 0.0783 0.0
C2471 C 0.65374 0.5063 0.08921 0.0
H2472 H 0.72016 0.53066 0.14891 0.0
H2473 H 0.72265 0.56405 0.09496 0.0
H2474 H 0.68171 0.48919 0.12621 0.0
H2475 H 0.7067 0.48063 0.12272 0.0
H2476 H 0.70345 0.49622 0.14691 0.0
H2477 H 0.70656 0.54941 0.06118 0.0
H2478 H 0.70949 0.52187 0.05632 0.0
H2479 H 0.68434 0.52955 0.06056 0.0
H2480 H 0.70073 0.45023 0.05529 0.0
H2481 H 0.64047 0.46861 0.06574 0.0
H2482 H 0.73111 0.48482 0.09539 0.0
H2483 H 0.73129 0.49815 0.0725 0.0
H2484 H 0.73258 0.4702 0.07016 0.0
H2485 H 0.63669 0.50145 0.08397 0.0
H2486 H 0.65821 0.52201 0.08435 0.0
H2487 H 0.65639 0.50801 0.10667 0.0
C2488 C 0.32389 0.00358 0.54519 0.0
C2489 C 0.33767 0.0161 0.53494 0.0
C2490 C 0.32558 0.0055 0.56718 0.0
C2491 C 0.34162 0.02016 0.57928 0.0
C2492 C 0.35653 0.03178 0.56908 0.0
C2493 C 0.35429 0.0297 0.54697 0.0
C2494 C 0.30941 0.99264 0.57744 0.0
C2495 C 0.37409 0.0473 0.58134 0.0
C2496 C 0.3204 0.03909 0.6288 0.0
C2497 C 0.32623 0.02411 0.64189 0.0
C2498 C 0.32736 0.03965 0.60904 0.0
C2499 C 0.34064 0.02495 0.6022 0.0
C2500 C 0.34917 0.01205 0.61647 0.0
C2501 C 0.34202 0.012 0.63628 0.0
C2502 C 0.3185 0.05434 0.59463 0.0
C2503 C 0.3643 0.99696 0.61011 0.0
H2504 H 0.31138 0.99262 0.53597 0.0
H2505 H 0.36503 0.03943 0.53914 0.0
H2506 H 0.31735 0.98389 0.58924 0.0
H2507 H 0.29979 0.00325 0.58587 0.0
H2508 H 0.29865 0.98119 0.56582 0.0
H2509 H 0.38771 0.04949 0.57226 0.0
H2510 H 0.36831 0.06279 0.58446 0.0
H2511 H 0.37957 0.04224 0.59671 0.0
H2512 H 0.30909 0.0494 0.63303 0.0
H2513 H 0.34775 0.00138 0.6467 0.0
H2514 H 0.30696 0.04513 0.58194 0.0
H2515 H 0.3312 0.06246 0.58706 0.0
H2516 H 0.31041 0.06641 0.60313 0.0
H2517 H 0.35583 0.984 0.59841 0.0
H2518 H 0.3715 0.98998 0.62377 0.0
H2519 H 0.37701 0.00507 0.60253 0.0
C2520 C 0.22697 0.06781 0.88989 0.0
C2521 C 0.215 0.04808 0.88411 0.0
C2522 C 0.2325 0.07598 0.91107 0.0
C2523 C 0.22582 0.06415 0.92692 0.0
C2524 C 0.21296 0.04461 0.92123 0.0
C2525 C 0.20767 0.03678 0.8998 0.0
C2526 C 0.24618 0.09693 0.91648 0.0
C2527 C 0.20549 0.03167 0.93773 0.0
C2528 C 0.2629 0.07755 0.97747 0.0
C2529 C 0.25293 0.09269 0.98849 0.0
C2530 C 0.25345 0.06691 0.95801 0.0
C2531 C 0.23368 0.07183 0.9493 0.0
C2532 C 0.22303 0.08631 0.96097 0.0
C2533 C 0.23286 0.09664 0.9805 0.0
C2534 C 0.2653 0.0515 0.94616 0.0
C2535 C 0.20187 0.09181 0.9523 0.0
H2536 H 0.23231 0.07676 0.87776 0.0
H2537 H 0.19845 0.02149 0.89537 0.0
H2538 H 0.23864 0.10775 0.92707 0.0
H2539 H 0.26155 0.09468 0.92502 0.0
H2540 H 0.24919 0.10457 0.90228 0.0
H2541 H 0.19384 0.01796 0.93077 0.0
H2542 H 0.21912 0.02578 0.94628 0.0
H2543 H 0.19826 0.0415 0.94952 0.0
H2544 H 0.27857 0.0748 0.98363 0.0
H2545 H 0.22527 0.10835 0.98923 0.0
H2546 H 0.27052 0.05817 0.93216 0.0
H2547 H 0.2549 0.0366 0.94044 0.0
H2548 H 0.27938 0.04785 0.95603 0.0
H2549 H 0.20386 0.10146 0.93926 0.0
H2550 H 0.19436 0.10085 0.96449 0.0
H2551 H 0.1911 0.07736 0.94574 0.0
C2552 C 0.49072 0.70977 0.40033 0.0
C2553 C 0.50255 0.69272 0.39924 0.0
C2554 C 0.4735 0.70986 0.41199 0.0
C2555 C 0.46808 0.69258 0.42296 0.0
C2556 C 0.47962 0.67514 0.42153 0.0
C2557 C 0.49668 0.67542 0.40973 0.0
C2558 C 0.46125 0.72854 0.41277 0.0
C2559 C 0.47429 0.65637 0.43294 0.0
C2560 C 0.43914 0.701 0.47099 0.0
C2561 C 0.4186 0.69223 0.46289 0.0
C2562 C 0.45538 0.70137 0.45812 0.0
C2563 C 0.45084 0.69297 0.43659 0.0
C2564 C 0.43 0.68433 0.42833 0.0
C2565 C 0.41418 0.68386 0.44165 0.0
C2566 C 0.47739 0.71071 0.46755 0.0
C2567 C 0.42443 0.6754 0.40551 0.0
H2568 H 0.49489 0.72304 0.39199 0.0
H2569 H 0.50587 0.66232 0.4093 0.0
H2570 H 0.44432 0.72328 0.40742 0.0
H2571 H 0.46243 0.7362 0.42923 0.0
H2572 H 0.46702 0.74041 0.4028 0.0
H2573 H 0.48442 0.64381 0.42974 0.0
H2574 H 0.47618 0.66137 0.45017 0.0
H2575 H 0.45759 0.64966 0.42818 0.0
H2576 H 0.44237 0.7078 0.48735 0.0
H2577 H 0.39825 0.67701 0.4355 0.0
H2578 H 0.48298 0.72387 0.459 0.0
H2579 H 0.48835 0.69868 0.46579 0.0
H2580 H 0.47827 0.71668 0.48452 0.0
H2581 H 0.42878 0.68749 0.39527 0.0
H2582 H 0.40739 0.66967 0.40148 0.0
H2583 H 0.43361 0.66219 0.40197 0.0
C2584 C 0.84547 0.22882 0.05103 0.0
C2585 C 0.8416 0.21799 0.03061 0.0
C2586 C 0.86607 0.23502 0.06092 0.0
C2587 C 0.88329 0.23036 0.05009 0.0
C2588 C 0.87954 0.21898 0.02964 0.0
C2589 C 0.85868 0.21285 0.02014 0.0
C2590 C 0.86938 0.24696 0.08282 0.0
C2591 C 0.89751 0.21388 0.01756 0.0
C2592 C 0.93304 0.26748 0.0701 0.0
C2593 C 0.94338 0.25593 0.08425 0.0
C2594 C 0.91405 0.25885 0.05786 0.0
C2595 C 0.90511 0.23824 0.0601 0.0
C2596 C 0.91609 0.22614 0.07366 0.0
C2597 C 0.93524 0.23513 0.0855 0.0
C2598 C 0.90307 0.27215 0.04331 0.0
C2599 C 0.90718 0.20408 0.07636 0.0
H2600 H 0.8323 0.23252 0.05929 0.0
H2601 H 0.85573 0.20458 0.0043 0.0
H2602 H 0.87942 0.23883 0.0936 0.0
H2603 H 0.87774 0.26292 0.08252 0.0
H2604 H 0.85431 0.24861 0.08937 0.0
H2605 H 0.89204 0.203 0.00288 0.0
H2606 H 0.90566 0.2286 0.01329 0.0
H2607 H 0.90928 0.20669 0.02744 0.0
H2608 H 0.93956 0.28354 0.06916 0.0
H2609 H 0.94366 0.22615 0.09615 0.0
H2610 H 0.88842 0.27629 0.04943 0.0
H2611 H 0.89849 0.26321 0.02742 0.0
H2612 H 0.91313 0.28693 0.04177 0.0
H2613 H 0.89276 0.2046 0.08428 0.0
H2614 H 0.91857 0.19611 0.08592 0.0
H2615 H 0.90258 0.19451 0.06079 0.0
C2616 C 0.11266 0.70162 0.50709 0.0
C2617 C 0.10368 0.70943 0.52476 0.0
C2618 C 0.10016 0.68985 0.48961 0.0
C2619 C 0.07815 0.68557 0.48989 0.0
C2620 C 0.06901 0.69306 0.50785 0.0
C2621 C 0.08189 0.70509 0.52504 0.0
C2622 C 0.11045 0.68242 0.47063 0.0
C2623 C 0.04564 0.68849 0.50882 0.0
C2624 C 0.04457 0.67533 0.43678 0.0
C2625 C 0.04119 0.65334 0.43346 0.0
C2626 C 0.05638 0.686 0.45519 0.0
C2627 C 0.06466 0.67434 0.47085 0.0
C2628 C 0.06072 0.65207 0.46785 0.0
C2629 C 0.04905 0.6418 0.44908 0.0
C2630 C 0.0602 0.70975 0.45775 0.0
C2631 C 0.06909 0.63913 0.48429 0.0
H2632 H 0.12948 0.70513 0.50677 0.0
H2633 H 0.07497 0.71093 0.53879 0.0
H2634 H 0.10412 0.68966 0.45679 0.0
H2635 H 0.12784 0.68649 0.47319 0.0
H2636 H 0.10672 0.66512 0.46667 0.0
H2637 H 0.04112 0.69468 0.52426 0.0
H2638 H 0.03678 0.69563 0.49625 0.0
H2639 H 0.04067 0.67127 0.50594 0.0
H2640 H 0.03777 0.68416 0.42496 0.0
H2641 H 0.0461 0.62478 0.44649 0.0
H2642 H 0.07737 0.71505 0.4595 0.0
H2643 H 0.05418 0.71629 0.47226 0.0
H2644 H 0.05251 0.71642 0.44413 0.0
H2645 H 0.06354 0.62208 0.48011 0.0
H2646 H 0.06416 0.64447 0.49977 0.0
H2647 H 0.08657 0.64138 0.48617 0.0
C2648 C 0.55828 0.32518 0.09154 0.0
C2649 C 0.5568 0.34565 0.08643 0.0
C2650 C 0.57675 0.31574 0.08972 0.0
C2651 C 0.59428 0.32721 0.08295 0.0
C2652 C 0.59363 0.34863 0.08013 0.0
C2653 C 0.5749 0.35753 0.08175 0.0
C2654 C 0.57629 0.29289 0.09301 0.0
C2655 C 0.61169 0.36154 0.07262 0.0
C2656 C 0.64666 0.30644 0.07648 0.0
C2657 C 0.64626 0.30471 0.0544 0.0
C2658 C 0.62992 0.31368 0.0865 0.0
C2659 C 0.61108 0.31619 0.07414 0.0
C2660 C 0.60871 0.30945 0.05241 0.0
C2661 C 0.62633 0.30438 0.04297 0.0
C2662 C 0.63218 0.3181 0.11018 0.0
C2663 C 0.58756 0.30771 0.03911 0.0
H2664 H 0.54459 0.31602 0.09581 0.0
H2665 H 0.57407 0.37329 0.07763 0.0
H2666 H 0.56591 0.28309 0.07978 0.0
H2667 H 0.59204 0.28741 0.0939 0.0
H2668 H 0.56939 0.29016 0.10768 0.0
H2669 H 0.61209 0.37856 0.07812 0.0
H2670 H 0.6271 0.3565 0.07788 0.0
H2671 H 0.60941 0.35948 0.05517 0.0
H2672 H 0.65871 0.30074 0.08619 0.0
H2673 H 0.62412 0.29926 0.02651 0.0
H2674 H 0.62218 0.30575 0.11651 0.0
H2675 H 0.62676 0.33344 0.11513 0.0
H2676 H 0.6487 0.31832 0.11733 0.0
H2677 H 0.588 0.30069 0.02264 0.0
H2678 H 0.58226 0.3235 0.03889 0.0
H2679 H 0.57561 0.2978 0.04605 0.0
C2680 C 0.41014 0.48576 0.71174 0.0
C2681 C 0.41049 0.49906 0.69588 0.0
C2682 C 0.42042 0.46763 0.71052 0.0
C2683 C 0.43116 0.4626 0.69296 0.0
C2684 C 0.43151 0.47586 0.67688 0.0
C2685 C 0.42138 0.49401 0.67865 0.0
C2686 C 0.41974 0.45381 0.72796 0.0
C2687 C 0.44263 0.4709 0.65781 0.0
C2688 C 0.47501 0.42804 0.69753 0.0
C2689 C 0.4648 0.40864 0.68754 0.0
C2690 C 0.46415 0.44567 0.69967 0.0
C2691 C 0.44256 0.44378 0.69157 0.0
C2692 C 0.43212 0.42411 0.68159 0.0
C2693 C 0.44342 0.40672 0.67971 0.0
C2694 C 0.47572 0.46629 0.7107 0.0
C2695 C 0.40914 0.4215 0.67273 0.0
H2696 H 0.40147 0.48927 0.72492 0.0
H2697 H 0.42213 0.50434 0.6665 0.0
H2698 H 0.41202 0.43781 0.72153 0.0
H2699 H 0.43599 0.45219 0.73481 0.0
H2700 H 0.41107 0.46012 0.74076 0.0
H2701 H 0.44094 0.48253 0.64642 0.0
H2702 H 0.45965 0.47063 0.66278 0.0
H2703 H 0.43621 0.45504 0.64964 0.0
H2704 H 0.49143 0.42921 0.70402 0.0
H2705 H 0.43562 0.39155 0.67219 0.0
H2706 H 0.46769 0.47187 0.72427 0.0
H2707 H 0.4755 0.47845 0.69979 0.0
H2708 H 0.49237 0.46498 0.7165 0.0
H2709 H 0.4031 0.40489 0.66671 0.0
H2710 H 0.40693 0.43121 0.65964 0.0
H2711 H 0.39946 0.42711 0.68492 0.0
C2712 C 0.02573 0.84484 0.19317 0.0
C2713 C 0.00736 0.83835 0.20183 0.0
C2714 C 0.03832 0.86384 0.20122 0.0
C2715 C 0.03252 0.87657 0.21846 0.0
C2716 C 0.01343 0.87072 0.22651 0.0
C2717 C 1.00104 0.85173 0.21804 0.0
C2718 C 0.05846 0.86967 0.19206 0.0
C2719 C 0.00664 0.88398 0.2448 0.0
C2720 C 0.07658 0.90848 0.25671 0.0
C2721 C 0.07549 0.92878 0.25136 0.0
C2722 C 0.06274 0.89137 0.24602 0.0
C2723 C 0.04746 0.89471 0.22952 0.0
C2724 C 0.0464 0.91526 0.22396 0.0
C2725 C 0.06048 0.9321 0.235 0.0
C2726 C 0.06423 0.86977 0.25264 0.0
C2727 C 0.03047 0.91942 0.20638 0.0
H2728 H 0.03089 0.83457 0.18079 0.0
H2729 H 0.98665 0.84706 0.22453 0.0
H2730 H 0.05976 0.88632 0.18895 0.0
H2731 H 0.07216 0.86806 0.20357 0.0
H2732 H 0.05945 0.85952 0.17718 0.0
H2733 H 0.99059 0.87817 0.2481 0.0
H2734 H 0.01787 0.88389 0.25915 0.0
H2735 H 0.0069 0.90056 0.24161 0.0
H2736 H 0.088 0.90615 0.26965 0.0
H2737 H 0.05977 0.94792 0.23099 0.0
H2738 H 0.06701 0.85869 0.23906 0.0
H2739 H 0.04914 0.86363 0.25787 0.0
H2740 H 0.07711 0.86986 0.26565 0.0
H2741 H 0.03376 0.91127 0.19122 0.0
H2742 H 0.03077 0.93648 0.205 0.0
H2743 H 0.01436 0.91301 0.20892 0.0
C2744 C 0.54351 0.11619 0.76569 0.0
C2745 C 0.55598 0.1259 0.75204 0.0
C2746 C 0.52546 0.10195 0.75788 0.0
C2747 C 0.51951 0.0974 0.73586 0.0
C2748 C 0.53221 0.10679 0.72198 0.0
C2749 C 0.55029 0.12083 0.73021 0.0
C2750 C 0.51244 0.09215 0.77322 0.0
C2751 C 0.52645 0.10231 0.69839 0.0
C2752 C 0.48005 0.04941 0.71355 0.0
C2753 C 0.46137 0.0585 0.71033 0.0
C2754 C 0.49911 0.0618 0.722 0.0
C2755 C 0.4994 0.08378 0.72738 0.0
C2756 C 0.48042 0.09291 0.72438 0.0
C2757 C 0.46164 0.08013 0.71593 0.0
C2758 C 0.51893 0.05143 0.72502 0.0
C2759 C 0.48003 0.11627 0.72965 0.0
H2760 H 0.54753 0.12012 0.78256 0.0
H2761 H 0.55998 0.12788 0.71949 0.0
H2762 H 0.49668 0.09766 0.77192 0.0
H2763 H 0.50998 0.07478 0.76935 0.0
H2764 H 0.51994 0.09616 0.78978 0.0
H2765 H 0.53818 0.11051 0.68969 0.0
H2766 H 0.52517 0.08515 0.69333 0.0
H2767 H 0.51082 0.10733 0.69385 0.0
H2768 H 0.4797 0.03263 0.70919 0.0
H2769 H 0.44717 0.08707 0.71313 0.0
H2770 H 0.5256 0.05408 0.74188 0.0
H2771 H 0.53099 0.05857 0.71601 0.0
H2772 H 0.51607 0.03422 0.71984 0.0
H2773 H 0.48617 0.12129 0.74645 0.0
H2774 H 0.46393 0.12083 0.72667 0.0
H2775 H 0.49046 0.12501 0.72009 0.0
C2776 C 0.042 0.54198 0.29617 0.0
C2777 C 0.06055 0.53586 0.30572 0.0
C2778 C 0.04154 0.56208 0.29001 0.0
C2779 C 0.06014 0.5767 0.29381 0.0
C2780 C 0.07934 0.57005 0.30198 0.0
C2781 C 0.07931 0.54966 0.30792 0.0
C2782 C 0.0207 0.56716 0.27988 0.0
C2783 C 0.09983 0.58455 0.30516 0.0
C2784 C 0.05005 0.62624 0.26972 0.0
C2785 C 0.04267 0.63765 0.28662 0.0
C2786 C 0.05783 0.60695 0.27211 0.0
C2787 C 0.0586 0.59933 0.29196 0.0
C2788 C 0.05447 0.61252 0.30968 0.0
C2789 C 0.04708 0.63173 0.3068 0.0
C2790 C 0.06336 0.59391 0.25309 0.0
C2791 C 0.05562 0.60548 0.33134 0.0
H2792 H 0.02762 0.53103 0.29367 0.0
H2793 H 0.0938 0.5448 0.31492 0.0
H2794 H 0.00857 0.5647 0.29066 0.0
H2795 H 0.02106 0.5833 0.27551 0.0
H2796 H 0.01545 0.55593 0.2654 0.0
H2797 H 0.11342 0.57548 0.30385 0.0
H2798 H 0.10007 0.59608 0.29357 0.0
H2799 H 0.10199 0.59341 0.32118 0.0
H2800 H 0.0487 0.6318 0.25443 0.0
H2801 H 0.04333 0.64136 0.32034 0.0
H2802 H 0.0502 0.58124 0.24731 0.0
H2803 H 0.07766 0.58632 0.25726 0.0
H2804 H 0.06607 0.6035 0.24011 0.0
H2805 H 0.04331 0.59198 0.33132 0.0
H2806 H 0.05325 0.61821 0.34365 0.0
H2807 H 0.07109 0.60012 0.3357 0.0
C2808 C 0.38904 0.64605 0.35993 0.0
C2809 C 0.37601 0.65782 0.34817 0.0
C2810 C 0.40934 0.64316 0.35501 0.0
C2811 C 0.41719 0.65262 0.33818 0.0
C2812 C 0.40452 0.66509 0.32666 0.0
C2813 C 0.38407 0.66737 0.33163 0.0
C2814 C 0.42217 0.62945 0.3675 0.0
C2815 C 0.41253 0.67586 0.30894 0.0
C2816 C 0.47674 0.6579 0.33763 0.0
C2817 C 0.47902 0.64015 0.32384 0.0
C2818 C 0.45673 0.66256 0.34201 0.0
C2819 C 0.4385 0.64904 0.33241 0.0
C2820 C 0.44073 0.6314 0.31797 0.0
C2821 C 0.46096 0.62721 0.31386 0.0
C2822 C 0.45545 0.68139 0.35774 0.0
C2823 C 0.42178 0.61671 0.30716 0.0
H2824 H 0.38343 0.63902 0.37311 0.0
H2825 H 0.37427 0.67632 0.32221 0.0
H2826 H 0.42306 0.61448 0.35752 0.0
H2827 H 0.43855 0.6372 0.37221 0.0
H2828 H 0.41519 0.62567 0.38186 0.0
H2829 H 0.40098 0.68543 0.3018 0.0
H2830 H 0.4274 0.68626 0.31486 0.0
H2831 H 0.41613 0.66395 0.29648 0.0
H2832 H 0.49067 0.6679 0.34538 0.0
H2833 H 0.46273 0.6137 0.30289 0.0
H2834 H 0.45636 0.67633 0.37368 0.0
H2835 H 0.44053 0.68829 0.35473 0.0
H2836 H 0.46886 0.6938 0.35768 0.0
H2837 H 0.41349 0.60907 0.31906 0.0
H2838 H 0.42613 0.60425 0.29568 0.0
H2839 H 0.4105 0.6257 0.29877 0.0
C2840 C 0.13172 0.34211 0.75 0.0
C2841 C 0.14145 0.33016 0.76424 0.0
C2842 C 0.10977 0.33963 0.745 0.0
C2843 C 0.09722 0.32465 0.75431 0.0
C2844 C 0.1069 0.31273 0.76895 0.0
C2845 C 0.12895 0.31572 0.77386 0.0
C2846 C 0.10003 0.35285 0.7295 0.0
C2847 C 0.09401 0.2965 0.77901 0.0
C2848 C 0.03952 0.33258 0.74871 0.0
C2849 C 0.03154 0.31982 0.72962 0.0
C2850 C 0.06044 0.33314 0.75787 0.0
C2851 C 0.0741 0.32089 0.74767 0.0
C2852 C 0.06616 0.30716 0.72921 0.0
C2853 C 0.04529 0.30709 0.7203 0.0
C2854 C 0.06835 0.34832 0.77745 0.0
C2855 C 0.08014 0.29364 0.71785 0.0
H2856 H 0.14133 0.35354 0.74284 0.0
H2857 H 0.13645 0.30643 0.78484 0.0
H2858 H 0.092 0.34257 0.71527 0.0
H2859 H 0.08793 0.36135 0.73655 0.0
H2860 H 0.11191 0.36455 0.72454 0.0
H2861 H 0.1038 0.28931 0.79088 0.0
H2862 H 0.08153 0.30373 0.78673 0.0
H2863 H 0.08603 0.28385 0.76669 0.0
H2864 H 0.03016 0.34374 0.75564 0.0
H2865 H 0.0404 0.29765 0.70538 0.0
H2866 H 0.0776 0.36237 0.77302 0.0
H2867 H 0.0789 0.3411 0.7886 0.0
H2868 H 0.05519 0.3536 0.78564 0.0
H2869 H 0.09098 0.30369 0.70978 0.0
H2870 H 0.0709 0.28137 0.70585 0.0
H2871 H 0.08993 0.28582 0.72915 0.0
C2872 C 0.75475 0.94966 0.66424 0.0
C2873 C 0.74936 0.96978 0.66165 0.0
C2874 C 0.77499 0.94697 0.67337 0.0
C2875 C 0.79 0.96485 0.68029 0.0
C2876 C 0.78449 0.98522 0.67794 0.0
C2877 C 0.76428 0.98741 0.66856 0.0
C2878 C 0.78039 0.92503 0.67543 0.0
C2879 C 0.79994 0.00472 0.68538 0.0
C2880 C 0.83658 0.96521 0.72177 0.0
C2881 C 0.85331 0.96624 0.70964 0.0
C2882 C 0.81567 0.96348 0.71231 0.0
C2883 C 0.8115 0.96257 0.69015 0.0
C2884 C 0.82832 0.96202 0.67773 0.0
C2885 C 0.84911 0.96397 0.68767 0.0
C2886 C 0.79824 0.96422 0.72614 0.0
C2887 C 0.82452 0.96086 0.65405 0.0
H2888 H 0.74327 0.936 0.65874 0.0
H2889 H 0.76005 0.00299 0.66678 0.0
H2890 H 0.79388 0.92204 0.66667 0.0
H2891 H 0.78533 0.92348 0.69219 0.0
H2892 H 0.76692 0.91277 0.66933 0.0
H2893 H 0.79306 0.0194 0.68268 0.0
H2894 H 0.80528 0.00536 0.70245 0.0
H2895 H 0.81409 0.00422 0.67703 0.0
H2896 H 0.84001 0.96697 0.73878 0.0
H2897 H 0.86214 0.96502 0.67839 0.0
H2898 H 0.78507 0.95165 0.72014 0.0
H2899 H 0.79189 0.97952 0.72587 0.0
H2900 H 0.8038 0.96245 0.74274 0.0
H2901 H 0.8114 0.9484 0.64751 0.0
H2902 H 0.83877 0.95764 0.64658 0.0
H2903 H 0.81989 0.97603 0.64969 0.0
C2904 C 0.72732 0.01173 0.33213 0.0
C2905 C 0.7363 0.9966 0.30844 0.0
C2906 C 0.70081 0.02177 0.3297 0.0
C2907 C 0.68215 0.01434 0.30435 0.0
C2908 C 0.6916 0.99965 0.28072 0.0
C2909 C 0.71913 0.99229 0.28257 0.0
C2910 C 0.69524 0.03542 0.3481 0.0
C2911 C 0.67799 0.99608 0.25983 0.0
C2912 C 0.622 0.00464 0.29576 0.0
C2913 C 0.61622 0.02485 0.29764 0.0
C2914 C 0.64307 0.00111 0.29744 0.0
C2915 C 0.65947 0.01843 0.3024 0.0
C2916 C 0.65345 0.03912 0.30513 0.0
C2917 C 0.63198 0.042 0.30209 0.0
C2918 C 0.64654 0.9783 0.29481 0.0
C2919 C 0.66881 0.05876 0.31116 0.0
H2920 H 0.73758 0.01511 0.34688 0.0
H2921 H 0.72494 0.9854 0.26859 0.0
H2922 H 0.67804 0.03618 0.34691 0.0
H2923 H 0.70091 0.02944 0.36293 0.0
H2924 H 0.70355 0.05151 0.34853 0.0
H2925 H 0.68805 0.99624 0.24692 0.0
H2926 H 0.66823 0.98057 0.25792 0.0
H2927 H 0.66711 0.00821 0.25878 0.0
H2928 H 0.6098 0.99128 0.29323 0.0
H2929 H 0.62754 0.05777 0.30338 0.0
H2930 H 0.64046 0.9711 0.27849 0.0
H2931 H 0.63741 0.96957 0.30547 0.0
H2932 H 0.66297 0.97586 0.29817 0.0
H2933 H 0.66477 0.06759 0.32567 0.0
H2934 H 0.66722 0.06916 0.29862 0.0
H2935 H 0.68529 0.0558 0.31409 0.0
C2936 C 0.35995 0.39648 0.64227 0.0
C2937 C 0.35023 0.38468 0.6564 0.0
C2938 C 0.35562 0.41704 0.64007 0.0
C2939 C 0.34089 0.42595 0.65198 0.0
C2940 C 0.33134 0.41436 0.66659 0.0
C2941 C 0.33616 0.39389 0.66867 0.0
C2942 C 0.36662 0.42914 0.62478 0.0
C2943 C 0.31597 0.42358 0.67995 0.0
C2944 C 0.3421 0.48538 0.65528 0.0
C2945 C 0.32619 0.48728 0.63924 0.0
C2946 C 0.34662 0.46553 0.66021 0.0
C2947 C 0.33504 0.44715 0.64854 0.0
C2948 C 0.3185 0.44904 0.63267 0.0
C2949 C 0.31426 0.46911 0.62826 0.0
C2950 C 0.36436 0.46443 0.67728 0.0
C2951 C 0.30567 0.42987 0.61997 0.0
H2952 H 0.37067 0.38952 0.63253 0.0
H2953 H 0.32892 0.38512 0.67998 0.0
H2954 H 0.35484 0.43293 0.6123 0.0
H2955 H 0.37501 0.44426 0.63309 0.0
H2956 H 0.37819 0.42023 0.61723 0.0
H2957 H 0.3102 0.4127 0.69088 0.0
H2958 H 0.32358 0.43851 0.68932 0.0
H2959 H 0.30225 0.42736 0.66969 0.0
H2960 H 0.35132 0.49944 0.66362 0.0
H2961 H 0.30181 0.47068 0.61598 0.0
H2962 H 0.37916 0.46346 0.67007 0.0
H2963 H 0.36158 0.45042 0.68564 0.0
H2964 H 0.36661 0.47871 0.68903 0.0
H2965 H 0.31601 0.42088 0.61071 0.0
H2966 H 0.2927 0.43403 0.60894 0.0
H2967 H 0.29881 0.41932 0.63062 0.0
C2968 C 0.33412 0.74366 0.02625 0.0
C2969 C 0.30796 0.74895 0.01296 0.0
C2970 C 0.34127 0.7159 0.02438 0.0
C2971 C 0.32088 0.69304 0.01117 0.0
C2972 C 0.29402 0.69835 1.00035 0.0
C2973 C 0.28784 0.72605 1.00035 0.0
C2974 C 0.3611 0.71223 0.03715 0.0
C2975 C 0.2775 0.68068 0.99049 0.0
C2976 C 0.34383 0.64063 0.00095 0.0
C2977 C 0.32874 0.62652 0.00746 0.0
C2978 C 0.34209 0.66225 0.00283 0.0
C2979 C 0.32471 0.67028 0.01167 0.0
C2980 C 0.31026 0.65556 0.01986 0.0
C2981 C 0.31237 0.63401 0.01718 0.0
C2982 C 0.35917 0.67565 0.99482 0.0
C2983 C 0.2931 0.66136 0.03284 0.0
H2984 H 0.34505 0.75638 0.03509 0.0
H2985 H 0.27226 0.72872 0.99389 0.0
H2986 H 0.36323 0.69537 0.03572 0.0
H2987 H 0.37478 0.72196 0.03274 0.0
H2988 H 0.36024 0.71777 0.05394 0.0
H2989 H 0.26736 0.68549 0.97732 0.0
H2990 H 0.28484 0.66666 0.98493 0.0
H2991 H 0.26674 0.67656 0.00209 0.0
H2992 H 0.35673 0.63458 0.9937 0.0
H2993 H 0.30118 0.62279 0.02287 0.0
H2994 H 0.35509 0.69145 0.99402 0.0
H2995 H 0.36217 0.66878 0.979 0.0
H2996 H 0.3741 0.67641 0.00547 0.0
H2997 H 0.29835 0.66005 0.04961 0.0
H2998 H 0.27856 0.65006 0.02811 0.0
H2999 H 0.28879 0.67724 0.032 0.0
C3000 C 0.7411 0.12711 0.32012 0.0
C3001 C 0.75356 0.13679 0.30655 0.0
C3002 C 0.73338 0.10568 0.31602 0.0
C3003 C 0.73821 0.0935 0.29788 0.0
C3004 C 0.75008 0.10342 0.28361 0.0
C3005 C 0.75755 0.125 0.28811 0.0
C3006 C 0.72034 0.09601 0.3314 0.0
C3007 C 0.75618 0.09136 0.26423 0.0
C3008 C 0.7392 0.03657 0.30646 0.0
C3009 C 0.7173 0.02415 0.3006 0.0
C3010 C 0.74612 0.05784 0.30516 0.0
C3011 C 0.73269 0.07015 0.29549 0.0
C3012 C 0.71375 0.06022 0.28472 0.0
C3013 C 0.70714 0.03882 0.28655 0.0
C3014 C 0.76809 0.06756 0.31513 0.0
C3015 C 0.69991 0.07267 0.27148 0.0
H3016 H 0.73761 0.13632 0.33415 0.0
H3017 H 0.76724 0.13243 0.27759 0.0
H3018 H 0.70419 0.09066 0.32343 0.0
H3019 H 0.72706 0.08209 0.33672 0.0
H3020 H 0.71927 0.10728 0.34548 0.0
H3021 H 0.7552 0.10085 0.25085 0.0
H3022 H 0.77282 0.08839 0.26744 0.0
H3023 H 0.74629 0.07601 0.25939 0.0
H3024 H 0.75241 0.03069 0.31441 0.0
H3025 H 0.69197 0.03499 0.27728 0.0
H3026 H 0.76684 0.07914 0.3289 0.0
H3027 H 0.77629 0.07614 0.30376 0.0
H3028 H 0.7782 0.05585 0.32058 0.0
H3029 H 0.69593 0.08651 0.28142 0.0
H3030 H 0.685 0.0633 0.26374 0.0
H3031 H 0.70863 0.07878 0.25905 0.0
C3032 C 0.68219 0.75268 0.951 0.0
C3033 C 0.67507 0.74602 0.96926 0.0
C3034 C 0.69275 0.77303 0.95135 0.0
C3035 C 0.69639 0.78682 0.97044 0.0
C3036 C 0.69005 0.77977 0.9891 0.0
C3037 C 0.67938 0.75949 0.98825 0.0
C3038 C 0.6992 0.78006 0.93115 0.0
C3039 C 0.69389 0.79389 0.00986 0.0
C3040 C 0.73555 0.83634 0.98005 0.0
C3041 C 0.72204 0.85188 0.97909 0.0
C3042 C 0.72758 0.81493 0.9761 0.0
C3043 C 0.7056 0.80907 0.97093 0.0
C3044 C 0.69209 0.82479 0.9686 0.0
C3045 C 0.70049 0.84604 0.97285 0.0
C3046 C 0.74249 0.79867 0.97882 0.0
C3047 C 0.66858 0.81919 0.96299 0.0
H3048 H 0.67873 0.74228 0.93629 0.0
H3049 H 0.67408 0.75421 0.00242 0.0
H3050 H 0.68976 0.79253 0.92642 0.0
H3051 H 0.71599 0.78694 0.9335 0.0
H3052 H 0.69687 0.76692 0.91808 0.0
H3053 H 0.68923 0.78553 0.02313 0.0
H3054 H 0.71079 0.80029 0.01344 0.0
H3055 H 0.68479 0.80746 0.00885 0.0
H3056 H 0.75224 0.84103 0.98487 0.0
H3057 H 0.69006 0.85812 0.97244 0.0
H3058 H 0.73935 0.78594 0.96538 0.0
H3059 H 0.73998 0.79135 0.99329 0.0
H3060 H 0.75924 0.80563 0.9802 0.0
H3061 H 0.66501 0.80688 0.94919 0.0
H3062 H 0.66064 0.83306 0.95938 0.0
H3063 H 0.66178 0.8127 0.97637 0.0
C3064 C 0.63407 0.35114 0.38994 0.0
C3065 C 0.65387 0.35094 0.38283 0.0
C3066 C 0.63054 0.34493 0.40964 0.0
C3067 C 0.64733 0.33878 0.42278 0.0
C3068 C 0.66749 0.339 0.41585 0.0
C3069 C 0.67046 0.34484 0.39587 0.0
C3070 C 0.60874 0.34463 0.41625 0.0
C3071 C 0.68592 0.33312 0.4296 0.0
C3072 C 0.64196 0.33998 0.48128 0.0
C3073 C 0.63585 0.31876 0.48273 0.0
C3074 C 0.64589 0.34672 0.46191 0.0
C3075 C 0.64373 0.33182 0.44362 0.0
C3076 C 0.63774 0.31026 0.4452 0.0
C3077 C 0.63384 0.30401 0.46478 0.0
C3078 C 0.6518 0.36981 0.4609 0.0
C3079 C 0.635 0.29388 0.42612 0.0
H3080 H 0.6212 0.35577 0.37987 0.0
H3081 H 0.68587 0.34497 0.39057 0.0
H3082 H 0.60281 0.32851 0.41915 0.0
H3083 H 0.60924 0.3551 0.43122 0.0
H3084 H 0.59737 0.34977 0.40418 0.0
H3085 H 0.70073 0.33476 0.42223 0.0
H3086 H 0.68837 0.34323 0.44499 0.0
H3087 H 0.68256 0.31661 0.43283 0.0
H3088 H 0.64321 0.35128 0.49528 0.0
H3089 H 0.62885 0.28764 0.46611 0.0
H3090 H 0.63897 0.37594 0.4514 0.0
H3091 H 0.66615 0.37217 0.453 0.0
H3092 H 0.6546 0.37913 0.47672 0.0
H3093 H 0.62267 0.29761 0.41413 0.0
H3094 H 0.63046 0.27778 0.43004 0.0
H3095 H 0.64985 0.29406 0.41886 0.0
C3096 C 0.99188 0.32954 0.74644 0.0
C3097 C 0.99691 0.30495 0.74513 0.0
C3098 C 0.9903 0.34298 0.72655 0.0
C3099 C 0.99828 0.30949 0.68803 0.0
C3100 C 0.00147 0.28845 0.69958 0.0
C3101 C 1.00061 0.28762 0.72498 0.0
C3102 C 0.98741 0.36611 0.72969 0.0
C3103 C 0.00575 0.26884 0.68681 0.0
C3104 C 0.97658 0.30581 0.62987 0.0
C3105 C 0.99276 0.31703 0.6214 0.0
C3106 C 0.9795 0.30066 0.65049 0.0
C3107 C 0.99773 0.30984 0.66432 0.0
C3108 C 0.01497 0.31929 0.65506 0.0
C3109 C 0.0121 0.32305 0.63389 0.0
C3110 C 0.96496 0.2824 0.65536 0.0
C3111 C 0.03726 0.32308 0.66578 0.0
H3112 H 0.98957 0.33758 0.76152 0.0
H3113 H 0.00366 0.27249 0.72954 0.0
H3114 H 0.989 0.3744 0.71571 0.0
H3115 H 0.97181 0.36764 0.73506 0.0
H3116 H 0.99929 0.37412 0.74273 0.0
H3117 H 0.01824 0.26157 0.69567 0.0
H3118 H 0.9913 0.2573 0.68421 0.0
H3119 H 0.01061 0.27207 0.67138 0.0
H3120 H 0.96194 0.29998 0.61996 0.0
H3121 H 0.02531 0.32998 0.62685 0.0
H3122 H 0.96565 0.28101 0.67229 0.0
H3123 H 0.96978 0.26769 0.64773 0.0
H3124 H 0.9485 0.28302 0.64837 0.0
H3125 H 0.04447 0.3392 0.66422 0.0
H3126 H 0.0467 0.31207 0.65761 0.0
H3127 H 0.03866 0.32051 0.68237 0.0
C3128 C 0.33122 0.76587 0.12731 0.0
C3129 C 0.31961 0.75803 0.14258 0.0
C3130 C 0.32596 0.75826 0.10587 0.0
C3131 C 0.30876 0.74231 0.09946 0.0
C3132 C 0.29642 0.73493 0.11467 0.0
C3133 C 0.30199 0.7429 0.136 0.0
C3134 C 0.3393 0.76672 0.09008 0.0
C3135 C 0.27797 0.71786 0.10898 0.0
C3136 C 0.2902 0.73056 0.04074 0.0
C3137 C 0.30715 0.71961 0.03081 0.0
C3138 C 0.29135 0.73919 0.06205 0.0
C3139 C 0.30517 0.73228 0.07714 0.0
C3140 C 0.31535 0.71522 0.07086 0.0
C3141 C 0.3147 0.70834 0.04923 0.0
C3142 C 0.27754 0.75579 0.06838 0.0
C3143 C 0.32782 0.70456 0.08707 0.0
H3144 H 0.34497 0.7774 0.13217 0.0
H3145 H 0.29266 0.73697 0.14759 0.0
H3146 H 0.34757 0.75401 0.08295 0.0
H3147 H 0.32911 0.77201 0.07714 0.0
H3148 H 0.35122 0.78009 0.09731 0.0
H3149 H 0.26495 0.72135 0.11828 0.0
H3150 H 0.27179 0.71569 0.09202 0.0
H3151 H 0.28296 0.70276 0.11315 0.0
H3152 H 0.27693 0.73592 0.03201 0.0
H3153 H 0.32313 0.69484 0.04767 0.0
H3154 H 0.28727 0.76963 0.07787 0.0
H3155 H 0.26602 0.74936 0.07836 0.0
H3156 H 0.26876 0.76132 0.05463 0.0
H3157 H 0.34113 0.71588 0.09552 0.0
H3158 H 0.33436 0.69054 0.08007 0.0
H3159 H 0.3177 0.69956 0.09893 0.0
C3160 C 0.97625 0.68079 0.73924 0.0
C3161 C 0.96299 0.66161 0.73513 0.0
C3162 C 0.97961 0.69225 0.75941 0.0
C3163 C 0.96954 0.68429 0.77586 0.0
C3164 C 0.95573 0.66523 0.77169 0.0
C3165 C 0.95259 0.65415 0.75137 0.0
C3166 C 0.99444 0.71253 0.76327 0.0
C3167 C 0.94471 0.65627 0.78885 0.0
C3168 C 0.99564 0.70036 0.8319 0.0
C3169 C 0.9834 0.71557 0.83917 0.0
C3170 C 0.99133 0.6901 0.81127 0.0
C3171 C 0.97435 0.69527 0.79767 0.0
C3172 C 0.96198 0.71074 0.805 0.0
C3173 C 0.96667 0.72073 0.82577 0.0
C3174 C 0.00485 0.67366 0.80409 0.0
C3175 C 0.94382 0.71671 0.79093 0.0
H3176 H 0.98454 0.68653 0.72685 0.0
H3177 H 0.94208 0.63951 0.74821 0.0
H3178 H 0.98661 0.72541 0.77069 0.0
H3179 H 0.0084 0.71072 0.77437 0.0
H3180 H 0.99994 0.71726 0.74853 0.0
H3181 H 0.93372 0.6418 0.7828 0.0
H3182 H 0.95655 0.65242 0.80125 0.0
H3183 H 0.93573 0.66809 0.79642 0.0
H3184 H 0.00849 0.69645 0.84252 0.0
H3185 H 0.95739 0.73262 0.83162 0.0
H3186 H 0.0122 0.67809 0.79015 0.0
H3187 H 0.99495 0.6583 0.79922 0.0
H3188 H 0.01752 0.67162 0.8166 0.0
H3189 H 0.94953 0.72244 0.77669 0.0
H3190 H 0.93585 0.72914 0.79902 0.0
H3191 H 0.93207 0.70269 0.78552 0.0
C3192 C 0.6133 0.33453 0.66109 0.0
C3193 C 0.62555 0.35299 0.65776 0.0
C3194 C 0.59219 0.33466 0.66484 0.0
C3195 C 0.5833 0.35383 0.66579 0.0
C3196 C 0.59572 0.37256 0.6628 0.0
C3197 C 0.61661 0.37189 0.65874 0.0
C3198 C 0.57933 0.31425 0.66736 0.0
C3199 C 0.58691 0.39337 0.66381 0.0
C3200 C 0.52451 0.3572 0.65761 0.0
C3201 C 0.52039 0.36253 0.67823 0.0
C3202 C 0.54469 0.3532 0.65332 0.0
C3203 C 0.56113 0.35467 0.67017 0.0
C3204 C 0.55673 0.35919 0.69118 0.0
C3205 C 0.53636 0.3631 0.69495 0.0
C3206 C 0.54855 0.34812 0.63075 0.0
C3207 C 0.57378 0.36092 0.70958 0.0
H3208 H 0.62013 0.31989 0.66042 0.0
H3209 H 0.62606 0.3863 0.65658 0.0
H3210 H 0.5707 0.31619 0.6813 0.0
H3211 H 0.56744 0.30954 0.65331 0.0
H3212 H 0.58924 0.30134 0.66905 0.0
H3213 H 0.59869 0.40653 0.66133 0.0
H3214 H 0.57309 0.39238 0.65165 0.0
H3215 H 0.5814 0.3971 0.67937 0.0
H3216 H 0.51204 0.357 0.64485 0.0
H3217 H 0.53302 0.36741 0.71088 0.0
H3218 H 0.55263 0.33183 0.62827 0.0
H3219 H 0.56203 0.35884 0.62719 0.0
H3220 H 0.53456 0.34943 0.61946 0.0
H3221 H 0.58206 0.34671 0.70872 0.0
H3222 H 0.56745 0.36288 0.72495 0.0
H3223 H 0.58564 0.37465 0.70895 0.0
C3224 C 0.8894 0.69285 0.22949 0.0
C3225 C 0.87581 0.70432 0.24035 0.0
C3226 C 0.91123 0.69584 0.23563 0.0
C3227 C 0.92011 0.71131 0.25265 0.0
C3228 C 0.90675 0.72472 0.26198 0.0
C3229 C 0.88477 0.72088 0.25598 0.0
C3230 C 0.92458 0.68158 0.22444 0.0
C3231 C 0.91524 0.74232 0.27928 0.0
C3232 C 0.96262 0.69016 0.28615 0.0
C3233 C 0.9803 0.69415 0.27531 0.0
C3234 C 0.94322 0.69675 0.27979 0.0
C3235 C 0.94163 0.70962 0.26349 0.0
C3236 C 0.96044 0.71806 0.25622 0.0
C3237 C 0.97979 0.71062 0.26275 0.0
C3238 C 0.92405 0.68817 0.28926 0.0
C3239 C 0.95988 0.73419 0.24101 0.0
H3240 H 0.88286 0.6808 0.21663 0.0
H3241 H 0.87463 0.73021 0.26438 0.0
H3242 H 0.9345 0.69102 0.21509 0.0
H3243 H 0.93503 0.67466 0.23591 0.0
H3244 H 0.91502 0.66855 0.21356 0.0
H3245 H 0.90715 0.7564 0.27707 0.0
H3246 H 0.91188 0.73742 0.29468 0.0
H3247 H 0.93247 0.74679 0.2799 0.0
H3248 H 0.96292 0.68014 0.29838 0.0
H3249 H 0.99418 0.7167 0.25708 0.0
H3250 H 0.9125 0.67861 0.2768 0.0
H3251 H 0.91625 0.70128 0.29622 0.0
H3252 H 0.92799 0.67815 0.30174 0.0
H3253 H 0.95148 0.72683 0.22553 0.0
H3254 H 0.97595 0.74103 0.23871 0.0
H3255 H 0.95102 0.74703 0.24679 0.0
C3256 C 0.24088 0.9969 0.31267 0.0
C3257 C 0.2457 0.004 0.33426 0.0
C3258 C 0.21992 0.99181 0.30331 0.0
C3259 C 0.20335 0.9941 0.31577 0.0
C3260 C 0.20805 0.00195 0.33739 0.0
C3261 C 0.22915 0.00667 0.3464 0.0
C3262 C 0.21553 0.98338 0.28021 0.0
C3263 C 0.19079 0.00476 0.35116 0.0
C3264 C 0.14792 0.99411 0.28827 0.0
C3265 C 0.13907 0.97343 0.28912 0.0
C3266 C 0.16883 0.00117 0.29698 0.0
C3267 C 0.18114 0.98707 0.30651 0.0
C3268 C 0.17222 0.96612 0.30732 0.0
C3269 C 0.15122 0.95963 0.29877 0.0
C3270 C 0.17774 0.02366 0.29602 0.0
C3271 C 0.18483 0.95056 0.31723 0.0
H3272 H 0.25354 0.99516 0.30307 0.0
H3273 H 0.23264 0.01186 0.36314 0.0
H3274 H 0.20745 0.96703 0.27834 0.0
H3275 H 0.20481 0.99293 0.27185 0.0
H3276 H 0.23014 0.98337 0.27251 0.0
H3277 H 0.19701 0.01259 0.36724 0.0
H3278 H 0.17924 0.01425 0.34393 0.0
H3279 H 0.18215 0.9892 0.35255 0.0
H3280 H 0.13846 0.00468 0.28068 0.0
H3281 H 0.14418 0.94375 0.2997 0.0
H3282 H 0.1916 0.02405 0.28719 0.0
H3283 H 0.18325 0.03167 0.31216 0.0
H3284 H 0.166 0.03269 0.28832 0.0
H3285 H 0.19917 0.94899 0.30937 0.0
H3286 H 0.17566 0.93475 0.31617 0.0
H3287 H 0.19011 0.95634 0.33407 0.0
C3288 C 0.28195 0.00206 0.71406 0.0
C3289 C 0.26131 0.00524 0.69747 0.0
C3290 C 0.30746 0.00423 0.71337 0.0
C3291 C 0.31862 0.01045 0.69303 0.0
C3292 C 0.27844 0.01618 0.66013 0.0
C3293 C 0.25898 0.01154 0.67347 0.0
C3294 C 0.32105 1.00035 0.73265 0.0
C3295 C 0.2744 0.02177 0.63799 0.0
C3296 C 0.37428 0.04072 0.70369 0.0
C3297 C 0.38635 0.02633 0.69456 0.0
C3298 C 0.35281 0.03512 0.70507 0.0
C3299 C 0.34233 0.01554 0.69442 0.0
C3300 C 0.35515 1.00004 0.68791 0.0
C3301 C 0.37685 0.00576 0.68768 0.0
C3302 C 0.34253 0.05015 0.71915 0.0
C3303 C 0.3471 0.97696 0.68286 0.0
H3304 H 0.27771 0.99747 0.72885 0.0
H3305 H 0.24341 0.01291 0.6659 0.0
H3306 H 0.33566 0.99417 0.72848 0.0
H3307 H 0.3255 0.01538 0.74317 0.0
H3308 H 0.31234 0.98907 0.74141 0.0
H3309 H 0.2577 0.01645 0.6316 0.0
H3310 H 0.27664 0.03909 0.63838 0.0
H3311 H 0.28432 0.01423 0.62718 0.0
H3312 H 0.38159 0.05642 0.71001 0.0
H3313 H 0.3865 0.99395 0.68246 0.0
H3314 H 0.32603 0.04474 0.7206 0.0
H3315 H 0.34373 0.06596 0.7138 0.0
H3316 H 0.35134 0.05228 0.73522 0.0
H3317 H 0.35456 0.96837 0.69512 0.0
H3318 H 0.352 0.97059 0.66768 0.0
H3319 H 0.32992 0.97343 0.68238 0.0
C3320 C 0.65795 0.5983 0.33052 0.0
C3321 C 0.66105 0.61176 0.34956 0.0
C3322 C 0.66024 0.57684 0.33017 0.0
C3323 C 0.6658 0.56873 0.3493 0.0
C3324 C 0.66885 0.58225 0.36855 0.0
C3325 C 0.66645 0.60358 0.36844 0.0
C3326 C 0.65703 0.56294 0.30935 0.0
C3327 C 0.67486 0.57424 0.38929 0.0
C3328 C 0.6558 0.51069 0.35529 0.0
C3329 C 0.67602 0.50471 0.35495 0.0
C3330 C 0.65197 0.53128 0.35246 0.0
C3331 C 0.66886 0.54621 0.34937 0.0
C3332 C 0.68916 0.53999 0.34824 0.0
C3333 C 0.69249 0.51931 0.35111 0.0
C3334 C 0.63011 0.53737 0.35372 0.0
C3335 C 0.70762 0.55546 0.34513 0.0
H3336 H 0.65351 0.6045 0.31591 0.0
H3337 H 0.66908 0.61397 0.38317 0.0
H3338 H 0.67237 0.55825 0.30555 0.0
H3339 H 0.64654 0.54832 0.31029 0.0
H3340 H 0.65022 0.57097 0.29628 0.0
H3341 H 0.67635 0.58675 0.40288 0.0
H3342 H 0.66287 0.56128 0.39173 0.0
H3343 H 0.69009 0.56773 0.38908 0.0
H3344 H 0.64317 0.49936 0.35842 0.0
H3345 H 0.70822 0.51479 0.35135 0.0
H3346 H 0.62492 0.54499 0.33975 0.0
H3347 H 0.63028 0.54902 0.36779 0.0
H3348 H 0.61839 0.52365 0.35477 0.0
H3349 H 0.70359 0.56378 0.33133 0.0
H3350 H 0.7219 0.5477 0.34277 0.0
H3351 H 0.71142 0.56753 0.35913 0.0
C3352 C 0.68953 0.26333 0.01933 0.0
C3353 C 0.6763 0.261 0.996 0.0
C3354 C 0.69219 0.28377 0.03643 0.0
C3355 C 0.66608 0.31614 0.01237 0.0
C3356 C 0.65721 0.30141 0.98959 0.0
C3357 C 0.66231 0.27704 0.98372 0.0
C3358 C 0.70808 0.28404 0.0557 0.0
C3359 C 0.64589 0.3106 0.9717 0.0
C3360 C 0.63872 0.36661 0.02425 0.0
C3361 C 0.65562 0.38242 0.02865 0.0
C3362 C 0.64152 0.34572 0.01716 0.0
C3363 C 0.66236 0.33965 0.01649 0.0
C3364 C 0.67866 0.35702 0.01726 0.0
C3365 C 0.67537 0.37757 0.02477 0.0
C3366 C 0.62156 0.33275 0.00642 0.0
C3367 C 0.6982 0.35637 0.00664 0.0
H3368 H 0.69739 0.25023 0.02387 0.0
H3369 H 0.65529 0.27013 0.96809 0.0
H3370 H 0.71608 0.29969 0.06248 0.0
H3371 H 0.70036 0.27579 0.06757 0.0
H3372 H 0.72065 0.27451 0.05138 0.0
H3373 H 0.65223 0.30579 0.9568 0.0
H3374 H 0.62905 0.30391 0.96916 0.0
H3375 H 0.64751 0.32801 0.97447 0.0
H3376 H 0.62301 0.37099 0.02489 0.0
H3377 H 0.68802 0.39041 0.02586 0.0
H3378 H 0.61635 0.3396 0.99192 0.0
H3379 H 0.62296 0.31626 0.00154 0.0
H3380 H 0.60874 0.33402 0.01642 0.0
H3381 H 0.71229 0.36324 0.01783 0.0
H3382 H 0.69745 0.36642 0.99369 0.0
H3383 H 0.7002 0.34083 0.9996 0.0
C3384 C 0.23131 0.87782 0.67947 0.0
C3385 C 0.23884 0.86472 0.66388 0.0
C3386 C 0.23877 0.8994 0.68349 0.0
C3387 C 0.25435 0.90796 0.67186 0.0
C3388 C 0.26223 0.89471 0.65633 0.0
C3389 C 0.25429 0.87329 0.65245 0.0
C3390 C 0.22982 0.91313 0.69995 0.0
C3391 C 0.27903 0.90316 0.64375 0.0
C3392 C 0.2619 0.96566 0.6643 0.0
C3393 C 0.27943 0.97387 0.67919 0.0
C3394 C 0.25279 0.94468 0.66276 0.0
C3395 C 0.26215 0.93086 0.67543 0.0
C3396 C 0.28012 0.93857 0.69004 0.0
C3397 C 0.28865 0.95978 0.69153 0.0
C3398 C 0.23371 0.9371 0.64679 0.0
C3399 C 0.29097 0.92418 0.70343 0.0
H3400 H 0.21928 0.87124 0.68825 0.0
H3401 H 0.26036 0.86315 0.6406 0.0
H3402 H 0.24265 0.92097 0.71216 0.0
H3403 H 0.22239 0.92571 0.6926 0.0
H3404 H 0.21788 0.90405 0.70773 0.0
H3405 H 0.28395 0.89063 0.63275 0.0
H3406 H 0.27314 0.91528 0.63448 0.0
H3407 H 0.29309 0.91086 0.6545 0.0
H3408 H 0.25576 0.9753 0.65296 0.0
H3409 H 0.30302 0.96493 0.70193 0.0
H3410 H 0.22146 0.9279 0.65404 0.0
H3411 H 0.23822 0.92655 0.63368 0.0
H3412 H 0.22674 0.95032 0.64013 0.0
H3413 H 0.2794 0.91509 0.71158 0.0
H3414 H 0.30355 0.93294 0.71543 0.0
H3415 H 0.29815 0.91267 0.69323 0.0
C3416 C 0.35796 0.23891 0.02564 0.0
C3417 C 0.36848 0.24699 0.04562 0.0
C3418 C 0.34324 0.22074 0.02291 0.0
C3419 C 0.33891 0.21051 0.0406 0.0
C3420 C 0.34892 0.21904 0.0609 0.0
C3421 C 0.36361 0.23716 0.06316 0.0
C3422 C 0.33292 0.21205 0.001 0.0
C3423 C 0.34457 0.20868 0.08015 0.0
C3424 C 0.29001 0.17046 0.03504 0.0
C3425 C 0.29858 0.15159 0.03131 0.0
C3426 C 0.30296 0.18984 0.03835 0.0
C3427 C 0.32493 0.19019 0.03773 0.0
C3428 C 0.33362 0.17105 0.03417 0.0
C3429 C 0.3203 0.15196 0.03102 0.0
C3430 C 0.29315 0.2099 0.0422 0.0
C3431 C 0.35693 0.17076 0.03326 0.0
H3432 H 0.36179 0.24637 0.01203 0.0
H3433 H 0.37147 0.24356 0.07867 0.0
H3434 H 0.33799 0.19647 0.9964 0.0
H3435 H 0.31555 0.20965 1.00063 0.0
H3436 H 0.33697 0.22258 0.98911 0.0
H3437 H 0.35264 0.21803 0.09495 0.0
H3438 H 0.32739 0.20641 0.08115 0.0
H3439 H 0.34997 0.19288 0.07894 0.0
H3440 H 0.27313 0.16995 0.03506 0.0
H3441 H 0.32671 0.13726 0.02772 0.0
H3442 H 0.29584 0.21976 0.02944 0.0
H3443 H 0.30072 0.21915 0.05721 0.0
H3444 H 0.27593 0.20685 0.04289 0.0
H3445 H 0.36189 0.17943 0.02032 0.0
H3446 H 0.36118 0.15452 0.03065 0.0
H3447 H 0.366 0.17887 0.04815 0.0
C3448 C 0.3667 0.64326 0.60943 0.0
C3449 C 0.35163 0.65254 0.6203 0.0
C3450 C 0.37019 0.64795 0.58922 0.0
C3451 C 0.35873 0.66267 0.57973 0.0
C3452 C 0.34313 0.6717 0.59031 0.0
C3453 C 0.33964 0.66639 0.61035 0.0
C3454 C 0.38655 0.63749 0.57822 0.0
C3455 C 0.33053 0.68742 0.5807 0.0
C3456 C 0.386 0.69205 0.54025 0.0
C3457 C 0.37557 0.68171 0.52108 0.0
C3458 C 0.3803 0.68633 0.55944 0.0
C3459 C 0.36406 0.66955 0.55938 0.0
C3460 C 0.35351 0.65906 0.53993 0.0
C3461 C 0.35923 0.66549 0.52096 0.0
C3462 C 0.39182 0.69808 0.57978 0.0
C3463 C 0.33641 0.64091 0.5391 0.0
H3464 H 0.37625 0.6327 0.6169 0.0
H3465 H 0.32755 0.67322 0.61826 0.0
H3466 H 0.37962 0.63006 0.56222 0.0
H3467 H 0.39975 0.64947 0.57633 0.0
H3468 H 0.39299 0.62527 0.58702 0.0
H3469 H 0.31864 0.69266 0.59071 0.0
H3470 H 0.34127 0.70142 0.57831 0.0
H3471 H 0.32232 0.68047 0.56501 0.0
H3472 H 0.39864 0.70461 0.5401 0.0
H3473 H 0.35134 0.65754 0.50598 0.0
H3474 H 0.40031 0.68718 0.58874 0.0
H3475 H 0.3804 0.70439 0.58976 0.0
H3476 H 0.40338 0.71134 0.57709 0.0
H3477 H 0.34178 0.62912 0.5491 0.0
H3478 H 0.33153 0.63302 0.52279 0.0
H3479 H 0.32247 0.6467 0.54539 0.0
C3480 C 0.01033 0.67993 0.2436 0.0
C3481 C 0.98631 0.66804 0.24044 0.0
C3482 C 0.02634 0.68214 0.26476 0.0
C3483 C 0.99899 0.65794 0.29607 0.0
C3484 C 0.97672 0.64983 0.28059 0.0
C3485 C 0.9722 0.65524 0.25617 0.0
C3486 C 0.04771 0.695 0.26572 0.0
C3487 C 0.95892 0.63748 0.2888 0.0
C3488 C 0.00734 0.6254 0.34231 0.0
C3489 C 0.01086 0.64087 0.35956 0.0
C3490 C 0.00292 0.63069 0.32179 0.0
C3491 C 0.00249 0.65226 0.31843 0.0
C3492 C 0.00274 0.66716 0.33671 0.0
C3493 C 0.00813 0.66145 0.35672 0.0
C3494 C 0.9986 0.61258 0.30434 0.0
C3495 C 0.99498 0.68832 0.33688 0.0
H3496 H 0.01626 0.68695 0.23057 0.0
H3497 H 0.95647 0.64911 0.24877 0.0
H3498 H 0.05389 0.7035 0.2814 0.0
H3499 H 0.05898 0.68467 0.25983 0.0
H3500 H 0.04652 0.70698 0.25467 0.0
H3501 H 0.94379 0.64314 0.28347 0.0
H3502 H 0.95777 0.62076 0.28199 0.0
H3503 H 0.96106 0.63867 0.30623 0.0
H3504 H 0.00827 0.60917 0.34487 0.0
H3505 H 0.00916 0.67299 0.37053 0.0
H3506 H 1.00011 0.61728 0.28861 0.0
H3507 H 0.00939 0.6007 0.30734 0.0
H3508 H 0.98243 0.6046 0.30439 0.0
H3509 H 0.00785 0.70092 0.34373 0.0
H3510 H 0.98241 0.68927 0.34734 0.0
H3511 H 0.98829 0.69152 0.32152 0.0
C3512 C 0.72684 0.27599 0.89396 0.0
C3513 C 0.70991 0.26071 0.88519 0.0
C3514 C 0.73047 0.28271 0.91581 0.0
C3515 C 0.71663 0.27426 0.9293 0.0
C3516 C 0.70035 0.25788 0.92058 0.0
C3517 C 0.69736 0.25125 0.89883 0.0
C3518 C 0.74836 0.29984 0.92396 0.0
C3519 C 0.68541 0.24753 0.93389 0.0
C3520 C 0.71839 0.28382 0.98924 0.0
C3521 C 0.70171 0.29611 0.99062 0.0
C3522 C 0.72523 0.27773 0.96944 0.0
C3523 C 0.71595 0.2851 0.95106 0.0
C3524 C 0.70305 0.30125 0.95345 0.0
C3525 C 0.69688 0.30705 0.9732 0.0
C3526 C 0.74137 0.26259 0.96787 0.0
C3527 C 0.69398 0.31107 0.93476 0.0
H3528 H 0.73702 0.28313 0.88369 0.0
H3529 H 0.68428 0.2394 0.8924 0.0
H3530 H 0.74354 0.31524 0.92055 0.0
H3531 H 0.75302 0.30064 0.94116 0.0
H3532 H 0.76232 0.29739 0.9157 0.0
H3533 H 0.67028 0.24045 0.92446 0.0
H3534 H 0.69287 0.23466 0.94057 0.0
H3535 H 0.68184 0.25867 0.94696 0.0
H3536 H 0.72492 0.2777 0.00319 0.0
H3537 H 0.68677 0.31916 0.97406 0.0
H3538 H 0.75407 0.26885 0.95908 0.0
H3539 H 0.73387 0.24742 0.95886 0.0
H3540 H 0.74846 0.25959 0.98361 0.0
H3541 H 0.68563 0.32469 0.93949 0.0
H3542 H 0.68264 0.29915 0.92425 0.0
H3543 H 0.70663 0.31648 0.92552 0.0
C3544 C 0.02398 0.35168 0.23657 0.0
C3545 C 0.01814 0.34063 0.25306 0.0
C3546 C 0.01962 0.34248 0.21549 0.0
C3547 C 0.00886 0.32184 0.21072 0.0
C3548 C 0.00323 0.31044 0.22726 0.0
C3549 C 0.00808 0.3199 0.24821 0.0
C3550 C 0.02607 0.35506 0.1983 0.0
C3551 C 0.9916 0.28844 0.2228 0.0
C3552 C 0.97682 0.30651 0.15698 0.0
C3553 C 0.98957 0.29358 0.14669 0.0
C3554 C 0.98294 0.31585 0.1778 0.0
C3555 C 0.00254 0.31251 0.18841 0.0
C3556 C 0.01578 0.29993 0.17782 0.0
C3557 C 0.00903 0.29047 0.15709 0.0
C3558 C 0.96827 0.32898 0.18856 0.0
C3559 C 0.03691 0.29627 0.18847 0.0
H3560 H 0.03148 0.36779 0.24005 0.0
H3561 H 0.00385 0.31106 0.2608 0.0
H3562 H 0.03521 0.34587 0.1878 0.0
H3563 H 0.01183 0.35837 0.18848 0.0
H3564 H 0.03572 0.37025 0.20469 0.0
H3565 H 0.98879 0.28151 0.23744 0.0
H3566 H 0.97617 0.28866 0.2133 0.0
H3567 H 1.00065 0.27804 0.2134 0.0
H3568 H 0.96192 0.30912 0.14872 0.0
H3569 H 0.01877 0.28034 0.14909 0.0
H3570 H 0.97631 0.34513 0.19388 0.0
H3571 H 0.96393 0.3221 0.20277 0.0
H3572 H 0.95361 0.33003 0.17809 0.0
H3573 H 0.04658 0.31155 0.19441 0.0
H3574 H 0.04576 0.28699 0.17771 0.0
H3575 H 0.0347 0.28775 0.20227 0.0
loop_
_geom_bond_atom_site_label_1
_geom_bond_atom_site_label_2
_geom_bond_distance
_geom_bond_site_symmetry_2
_ccdc_geom_bond_type
C0 C1 1.264 . S
C0 C5 1.479 . S
C0 C10 1.465 . S
C1 C0 1.264 . S
C1 C3 1.339 . S
C1 H28 0.931 . S
C2 C3 1.395 . S
C2 C4 1.320 . S
C3 C1 1.339 . S
C3 C2 1.395 . S
C3 H29 0.929 . S
C4 C2 1.320 . S
C4 C5 1.405 . S
C4 H30 0.930 . S
C5 C0 1.479 . S
C5 C4 1.405 . S
C5 H31 0.931 . S
U6 O7 2.454 . S
U6 O8 2.458 . S
U6 C9 2.984 . S
U6 C10 2.847 . S
U6 C23 2.882 . S
U6 O24 2.441 . S
U6 O25 2.420 . S
U6 O26 2.455 . S
U6 O27 2.449 . S
O7 U6 2.454 . S
O7 C9 1.353 . S
O8 U6 2.458 . S
O8 C9 1.286 . S
C9 U6 2.984 . S
C9 O7 1.353 . S
C9 O8 1.286 . S
C9 C11 1.363 . S
C10 C0 1.465 . S
C10 U6 2.847 . S
C10 O24 1.249 . S
C10 O25 1.202 . S
C11 C9 1.363 . S
C11 C13 1.408 . S
C11 C16 1.342 . S
C12 C13 1.310 . S
C12 C15 1.461 . S
C12 H32 0.932 . S
C13 C11 1.408 . S
C13 C12 1.310 . S
C13 H33 0.930 . S
C14 C15 1.474 . S
C14 C16 1.285 . S
C14 H34 0.929 . S
C15 C12 1.461 . S
C15 C14 1.474 . S
C16 C11 1.342 . S
C16 C14 1.285 . S
C16 H35 0.930 . S
C17 C20 1.424 . S
C17 C22 1.245 . S
C17 C23 1.428 . S
C18 C21 1.260 . S
C18 C22 1.477 . S
C18 H36 0.932 . S
C19 C20 1.384 . S
C19 C21 1.479 . S
C19 H37 0.929 . S
C20 C17 1.424 . S
C20 C19 1.384 . S
C20 H38 0.928 . S
C21 C18 1.260 . S
C21 C19 1.479 . S
C22 C17 1.245 . S
C22 C18 1.477 . S
C22 H39 0.932 . S
C23 U6 2.882 . S
C23 C17 1.428 . S
C23 O26 1.301 . S
C23 O27 1.282 . S
O24 U6 2.441 . S
O24 C10 1.249 . S
O25 U6 2.420 . S
O25 C10 1.202 . S
O26 U6 2.455 . S
O26 C23 1.301 . S
O27 U6 2.449 . S
O27 C23 1.282 . S
H28 C1 0.931 . S
H29 C3 0.929 . S
H30 C4 0.930 . S
H31 C5 0.931 . S
H32 C12 0.932 . S
H33 C13 0.930 . S
H34 C14 0.929 . S
H35 C16 0.930 . S
H36 C18 0.932 . S
H37 C19 0.929 . S
H38 C20 0.928 . S
H39 C22 0.932 . S
C40 C41 1.264 . S
C40 C45 1.479 . S
C40 C50 1.465 . S
C41 C40 1.264 . S
C41 C43 1.339 . S
C41 H68 0.931 . S
C42 C43 1.395 . S
C42 C44 1.320 . S
C43 C41 1.339 . S
C43 C42 1.395 . S
C43 H69 0.929 . S
C44 C42 1.320 . S
C44 C45 1.405 . S
C44 H70 0.930 . S
C45 C40 1.479 . S
C45 C44 1.405 . S
C45 H71 0.931 . S
U46 O47 2.454 . S
U46 O48 2.458 . S
U46 C49 2.984 . S
U46 C50 2.847 . S
U46 C63 2.882 . S
U46 O64 2.441 . S
U46 O65 2.420 . S
U46 O66 2.455 . S
U46 O67 2.449 . S
O47 U46 2.454 . S
O47 C49 1.353 . S
O48 U46 2.458 . S
O48 C49 1.286 . S
C49 U46 2.984 . S
C49 O47 1.353 . S
C49 O48 1.286 . S
C49 C51 1.363 . S
C50 C40 1.465 . S
C50 U46 2.847 . S
C50 O64 1.249 . S
C50 O65 1.202 . S
C51 C49 1.363 . S
C51 C53 1.408 . S
C51 C56 1.342 . S
C52 C53 1.310 . S
C52 C55 1.461 . S
C52 H72 0.932 . S
C53 C51 1.408 . S
C53 C52 1.310 . S
C53 H73 0.930 . S
C54 C55 1.474 . S
C54 C56 1.285 . S
C54 H74 0.929 . S
C55 C52 1.461 . S
C55 C54 1.474 . S
C56 C51 1.342 . S
C56 C54 1.285 . S
C56 H75 0.930 . S
C57 C60 1.424 . S
C57 C62 1.245 . S
C57 C63 1.428 . S
C58 C61 1.260 . S
C58 C62 1.477 . S
C58 H76 0.932 . S
C59 C60 1.384 . S
C59 C61 1.479 . S
C59 H77 0.929 . S
C60 C57 1.424 . S
C60 C59 1.384 . S
C60 H78 0.928 . S
C61 C58 1.260 . S
C61 C59 1.479 . S
C62 C57 1.245 . S
C62 C58 1.477 . S
C62 H79 0.932 . S
C63 U46 2.882 . S
C63 C57 1.428 . S
C63 O66 1.301 . S
C63 O67 1.282 . S
O64 U46 2.441 . S
O64 C50 1.249 . S
O65 U46 2.420 . S
O65 C50 1.202 . S
O66 U46 2.455 . S
O66 C63 1.301 . S
O67 U46 2.449 . S
O67 C63 1.282 . S
H68 C41 0.931 . S
H69 C43 0.929 . S
H70 C44 0.930 . S
H71 C45 0.931 . S
H72 C52 0.932 . S
H73 C53 0.930 . S
H74 C54 0.929 . S
H75 C56 0.930 . S
H76 C58 0.932 . S
H77 C59 0.929 . S
H78 C60 0.928 . S
H79 C62 0.932 . S
C80 C81 1.264 . S
C80 C85 1.479 . S
C80 C90 1.465 . S
C81 C80 1.264 . S
C81 C83 1.339 . S
C81 H108 0.931 . S
C82 C83 1.395 . S
C82 C84 1.320 . S
C83 C81 1.339 . S
C83 C82 1.395 . S
C83 H109 0.929 . S
C84 C82 1.320 . S
C84 C85 1.405 . S
C84 H110 0.926 1_565 S
C85 C80 1.479 . S
C85 C84 1.405 . S
C85 H111 0.931 . S
U86 O87 2.454 . S
U86 O88 2.458 . S
U86 C89 2.984 . S
U86 C90 2.847 . S
U86 C103 2.882 . S
U86 O104 2.441 . S
U86 O105 2.420 . S
U86 O106 2.455 . S
U86 O107 2.449 . S
O87 U86 2.454 . S
O87 C89 1.353 . S
O88 U86 2.458 . S
O88 C89 1.286 . S
C89 U86 2.984 . S
C89 O87 1.353 . S
C89 O88 1.286 . S
C89 C91 1.363 . S
C90 C80 1.465 . S
C90 U86 2.847 . S
C90 O104 1.249 . S
C90 O105 1.202 . S
C91 C89 1.363 . S
C91 C93 1.408 . S
C91 C96 1.342 . S
C92 C93 1.310 . S
C92 C95 1.461 . S
C92 H112 0.932 . S
C93 C91 1.408 . S
C93 C92 1.310 . S
C93 H113 0.930 . S
C94 C95 1.473 1_545 S
C94 C96 1.284 1_545 S
C94 H114 0.932 . S
C95 C92 1.461 . S
C95 C94 1.473 1_565 S
C96 C91 1.342 . S
C96 C94 1.284 1_565 S
C96 H115 0.936 . S
C97 C100 1.424 . S
C97 C102 1.245 . S
C97 C103 1.428 . S
C98 C101 1.260 . S
C98 C102 1.477 . S
C98 H116 0.932 . S
C99 C100 1.384 . S
C99 C101 1.479 . S
C99 H117 0.929 . S
C100 C97 1.424 . S
C100 C99 1.384 . S
C100 H118 0.928 . S
C101 C98 1.260 . S
C101 C99 1.479 . S
C102 C97 1.245 . S
C102 C98 1.477 . S
C102 H119 0.932 . S
C103 U86 2.882 . S
C103 C97 1.428 . S
C103 O106 1.301 . S
C103 O107 1.282 . S
O104 U86 2.441 . S
O104 C90 1.249 . S
O105 U86 2.420 . S
O105 C90 1.202 . S
O106 U86 2.455 . S
O106 C103 1.301 . S
O107 U86 2.449 . S
O107 C103 1.282 . S
H108 C81 0.931 . S
H109 C83 0.929 . S
H110 C84 0.926 1_545 S
H111 C85 0.931 . S
H112 C92 0.932 . S
H113 C93 0.930 . S
H114 C94 0.932 . S
H115 C96 0.936 . S
H116 C98 0.932 . S
H117 C99 0.929 . S
H118 C100 0.928 . S
H119 C102 0.932 . S
C120 C121 1.264 . S
C120 C125 1.479 . S
C120 C130 1.465 . S
C121 C120 1.264 . S
C121 C123 1.339 . S
C121 H148 0.931 . S
C122 C123 1.395 . S
C122 C124 1.320 . S
C123 C121 1.339 . S
C123 C122 1.395 . S
C123 H149 0.929 . S
C124 C122 1.320 . S
C124 C125 1.405 . S
C124 H150 0.930 . S
C125 C120 1.479 . S
C125 C124 1.405 . S
C125 H151 0.931 . S
U126 O127 2.454 . S
U126 O128 2.458 . S
U126 C129 2.984 . S
U126 C130 2.847 . S
U126 C143 2.882 1_545 S
U126 O144 2.441 . S
U126 O145 2.420 . S
U126 O146 2.455 . S
U126 O147 2.449 . S
O127 U126 2.454 . S
O127 C129 1.353 . S
O128 U126 2.458 . S
O128 C129 1.286 . S
C129 U126 2.984 . S
C129 O127 1.353 . S
C129 O128 1.286 . S
C129 C131 1.363 . S
C130 C120 1.465 . S
C130 U126 2.847 . S
C130 O144 1.249 . S
C130 O145 1.202 . S
C131 C129 1.363 . S
C131 C133 1.408 . S
C131 C136 1.342 . S
C132 C133 1.310 . S
C132 C135 1.461 . S
C132 H152 0.932 . S
C133 C131 1.408 . S
C133 C132 1.310 . S
C133 H153 0.930 . S
C134 C135 1.474 . S
C134 C136 1.285 . S
C134 H154 0.929 . S
C135 C132 1.461 . S
C135 C134 1.474 . S
C136 C131 1.342 . S
C136 C134 1.285 . S
C136 H155 0.930 . S
C137 C140 1.424 . S
C137 C142 1.245 . S
C137 C143 1.428 . S
C138 C141 1.260 . S
C138 C142 1.477 . S
C138 H156 0.932 . S
C139 C140 1.384 . S
C139 C141 1.479 . S
C139 H157 0.929 . S
C140 C137 1.424 . S
C140 C139 1.384 . S
C140 H158 0.928 . S
C141 C138 1.260 . S
C141 C139 1.479 . S
C142 C137 1.245 . S
C142 C138 1.477 . S
C142 H159 0.932 . S
C143 U126 2.882 1_565 S
C143 C137 1.428 . S
C143 O146 1.301 1_565 S
C143 O147 1.282 1_565 S
O144 U126 2.441 . S
O144 C130 1.249 . S
O145 U126 2.420 . S
O145 C130 1.202 . S
O146 U126 2.455 . S
O146 C143 1.301 1_545 S
O147 U126 2.449 . S
O147 C143 1.282 1_545 S
H148 C121 0.931 . S
H149 C123 0.929 . S
H150 C124 0.930 . S
H151 C125 0.931 . S
H152 C132 0.932 . S
H153 C133 0.930 . S
H154 C134 0.929 . S
H155 C136 0.930 . S
H156 C138 0.932 . S
H157 C139 0.929 . S
H158 C140 0.928 . S
H159 C142 0.932 . S
C160 C161 1.264 . S
C160 C165 1.479 . S
C160 C170 1.465 . S
C161 C160 1.264 . S
C161 C163 1.339 . S
C161 H188 0.931 . S
C162 C163 1.395 . S
C162 C164 1.320 . S
C163 C161 1.339 . S
C163 C162 1.395 . S
C163 H189 0.929 . S
C164 C162 1.320 . S
C164 C165 1.405 . S
C164 H190 0.930 . S
C165 C160 1.479 . S
C165 C164 1.405 . S
C165 H191 0.931 . S
U166 O167 2.454 . S
U166 O168 2.458 . S
U166 C169 2.984 . S
U166 C170 2.847 . S
U166 C183 2.882 . S
U166 O184 2.441 . S
U166 O185 2.420 . S
U166 O186 2.455 . S
U166 O187 2.449 . S
O167 U166 2.454 . S
O167 C169 1.353 . S
O168 U166 2.458 . S
O168 C169 1.286 . S
C169 U166 2.984 . S
C169 O167 1.353 . S
C169 O168 1.286 . S
C169 C171 1.363 . S
C170 C160 1.465 . S
C170 U166 2.847 . S
C170 O184 1.249 . S
C170 O185 1.202 . S
C171 C169 1.363 . S
C171 C173 1.408 . S
C171 C176 1.342 . S
C172 C173 1.310 . S
C172 C175 1.461 . S
C172 H192 0.932 . S
C173 C171 1.408 . S
C173 C172 1.310 . S
C173 H193 0.930 . S
C174 C175 1.474 . S
C174 C176 1.285 . S
C174 H194 0.929 . S
C175 C172 1.461 . S
C175 C174 1.474 . S
C176 C171 1.342 . S
C176 C174 1.285 . S
C176 H195 0.930 . S
C177 C180 1.424 . S
C177 C182 1.245 . S
C177 C183 1.428 . S
C178 C181 1.260 . S
C178 C182 1.477 . S
C178 H196 0.932 . S
C179 C180 1.384 . S
C179 C181 1.479 . S
C179 H197 0.929 . S
C180 C177 1.424 . S
C180 C179 1.384 . S
C180 H198 0.928 . S
C181 C178 1.260 . S
C181 C179 1.479 . S
C182 C177 1.245 . S
C182 C178 1.477 . S
C182 H199 0.932 . S
C183 U166 2.882 . S
C183 C177 1.428 . S
C183 O186 1.301 . S
C183 O187 1.282 . S
O184 U166 2.441 . S
O184 C170 1.249 . S
O185 U166 2.420 . S
O185 C170 1.202 . S
O186 U166 2.455 . S
O186 C183 1.301 . S
O187 U166 2.449 . S
O187 C183 1.282 . S
H188 C161 0.931 . S
H189 C163 0.929 . S
H190 C164 0.930 . S
H191 C165 0.931 . S
H192 C172 0.932 . S
H193 C173 0.930 . S
H194 C174 0.929 . S
H195 C176 0.930 . S
H196 C178 0.932 . S
H197 C179 0.929 . S
H198 C180 0.928 . S
H199 C182 0.932 . S
C200 C201 1.264 . S
C200 C205 1.479 . S
C200 C210 1.465 . S
C201 C200 1.264 . S
C201 C203 1.339 . S
C201 H228 0.931 . S
C202 C203 1.395 . S
C202 C204 1.320 . S
C203 C201 1.339 . S
C203 C202 1.395 . S
C203 H229 0.929 . S
C204 C202 1.320 . S
C204 C205 1.405 . S
C204 H230 0.930 . S
C205 C200 1.479 . S
C205 C204 1.405 . S
C205 H231 0.931 . S
U206 O207 2.454 . S
U206 O208 2.458 . S
U206 C209 2.984 . S
U206 C210 2.847 . S
U206 C223 2.882 1_554 S
U206 O224 2.441 . S
U206 O225 2.420 . S
U206 O226 2.455 . S
U206 O227 2.449 . S
O207 U206 2.454 . S
O207 C209 1.353 . S
O208 U206 2.458 . S
O208 C209 1.286 . S
C209 U206 2.984 . S
C209 O207 1.353 . S
C209 O208 1.286 . S
C209 C211 1.363 . S
C210 C200 1.465 . S
C210 U206 2.847 . S
C210 O224 1.249 . S
C210 O225 1.202 . S
C211 C209 1.363 . S
C211 C213 1.408 . S
C211 C216 1.342 . S
C212 C213 1.310 . S
C212 C215 1.461 . S
C212 H232 0.932 . S
C213 C211 1.408 . S
C213 C212 1.310 . S
C213 H233 0.930 . S
C214 C215 1.474 . S
C214 C216 1.285 . S
C214 H234 0.929 . S
C215 C212 1.461 . S
C215 C214 1.474 . S
C216 C211 1.342 . S
C216 C214 1.285 . S
C216 H235 0.930 . S
C217 C220 1.424 . S
C217 C222 1.245 . S
C217 C223 1.428 . S
C218 C221 1.260 . S
C218 C222 1.477 . S
C218 H236 0.932 . S
C219 C220 1.384 . S
C219 C221 1.479 . S
C219 H237 0.929 . S
C220 C217 1.424 . S
C220 C219 1.384 . S
C220 H238 0.928 . S
C221 C218 1.260 . S
C221 C219 1.479 . S
C222 C217 1.245 . S
C222 C218 1.477 . S
C222 H239 0.932 . S
C223 U206 2.882 1_556 S
C223 C217 1.428 . S
C223 O226 1.301 1_556 S
C223 O227 1.282 1_556 S
O224 U206 2.441 . S
O224 C210 1.249 . S
O225 U206 2.420 . S
O225 C210 1.202 . S
O226 U206 2.455 . S
O226 C223 1.301 1_554 S
O227 U206 2.449 . S
O227 C223 1.282 1_554 S
H228 C201 0.931 . S
H229 C203 0.929 . S
H230 C204 0.930 . S
H231 C205 0.931 . S
H232 C212 0.932 . S
H233 C213 0.930 . S
H234 C214 0.929 . S
H235 C216 0.930 . S
H236 C218 0.932 . S
H237 C219 0.929 . S
H238 C220 0.928 . S
H239 C222 0.932 . S
C240 C241 1.264 . S
C240 C245 1.479 . S
C240 C250 1.465 . S
C241 C240 1.264 . S
C241 C243 1.339 . S
C241 H268 0.931 . S
C242 C243 1.395 . S
C242 C244 1.320 . S
C243 C241 1.339 . S
C243 C242 1.395 . S
C243 H269 0.929 . S
C244 C242 1.320 . S
C244 C245 1.405 . S
C244 H270 0.930 . S
C245 C240 1.479 . S
C245 C244 1.405 . S
C245 H271 0.931 . S
U246 O247 2.454 . S
U246 O248 2.458 . S
U246 C249 2.984 . S
U246 C250 2.847 . S
U246 C263 2.882 . S
U246 O264 2.441 . S
U246 O265 2.420 . S
U246 O266 2.455 . S
U246 O267 2.449 . S
O247 U246 2.454 . S
O247 C249 1.353 . S
O248 U246 2.458 . S
O248 C249 1.286 . S
C249 U246 2.984 . S
C249 O247 1.353 . S
C249 O248 1.286 . S
C249 C251 1.363 . S
C250 C240 1.465 . S
C250 U246 2.847 . S
C250 O264 1.249 . S
C250 O265 1.202 . S
C251 C249 1.363 . S
C251 C253 1.408 . S
C251 C256 1.342 . S
C252 C253 1.310 . S
C252 C255 1.461 . S
C252 H272 0.932 . S
C253 C251 1.408 . S
C253 C252 1.310 . S
C253 H273 0.930 . S
C254 C255 1.474 . S
C254 C256 1.285 . S
C254 H274 0.929 . S
C255 C252 1.461 . S
C255 C254 1.474 . S
C256 C251 1.342 . S
C256 C254 1.285 . S
C256 H275 0.930 . S
C257 C260 1.424 . S
C257 C262 1.245 . S
C257 C263 1.428 . S
C258 C261 1.260 . S
C258 C262 1.477 . S
C258 H276 0.932 . S
C259 C260 1.384 . S
C259 C261 1.479 . S
C259 H277 0.929 . S
C260 C257 1.424 . S
C260 C259 1.384 . S
C260 H278 0.928 . S
C261 C258 1.260 . S
C261 C259 1.479 . S
C262 C257 1.245 . S
C262 C258 1.477 . S
C262 H279 0.932 . S
C263 U246 2.882 . S
C263 C257 1.428 . S
C263 O266 1.301 . S
C263 O267 1.282 . S
O264 U246 2.441 . S
O264 C250 1.249 . S
O265 U246 2.420 . S
O265 C250 1.202 . S
O266 U246 2.455 . S
O266 C263 1.301 . S
O267 U246 2.449 . S
O267 C263 1.282 . S
H268 C241 0.931 . S
H269 C243 0.929 . S
H270 C244 0.930 . S
H271 C245 0.931 . S
H272 C252 0.932 . S
H273 C253 0.930 . S
H274 C254 0.929 . S
H275 C256 0.930 . S
H276 C258 0.932 . S
H277 C259 0.929 . S
H278 C260 0.928 . S
H279 C262 0.932 . S
C280 C281 1.264 . S
C280 C285 1.479 . S
C280 C290 1.465 . S
C281 C280 1.264 . S
C281 C283 1.339 . S
C281 H308 0.931 . S
C282 C283 1.395 . S
C282 C284 1.320 . S
C283 C281 1.339 . S
C283 C282 1.395 . S
C283 H309 0.929 . S
C284 C282 1.320 . S
C284 C285 1.405 . S
C284 H310 0.926 1_556 S
C285 C280 1.479 . S
C285 C284 1.405 . S
C285 H311 0.931 . S
U286 O287 2.454 . S
U286 O288 2.458 . S
U286 C289 2.984 . S
U286 C290 2.847 . S
U286 C303 2.882 . S
U286 O304 2.441 . S
U286 O305 2.420 . S
U286 O306 2.455 . S
U286 O307 2.449 . S
O287 U286 2.454 . S
O287 C289 1.353 . S
O288 U286 2.458 . S
O288 C289 1.286 . S
C289 U286 2.984 . S
C289 O287 1.353 . S
C289 O288 1.286 . S
C289 C291 1.363 . S
C290 C280 1.465 . S
C290 U286 2.847 . S
C290 O304 1.249 . S
C290 O305 1.202 . S
C291 C289 1.363 . S
C291 C293 1.408 . S
C291 C296 1.342 . S
C292 C293 1.310 . S
C292 C295 1.461 . S
C292 H312 0.932 . S
C293 C291 1.408 . S
C293 C292 1.310 . S
C293 H313 0.930 . S
C294 C295 1.473 1_554 S
C294 C296 1.284 1_554 S
C294 H314 0.932 . S
C295 C292 1.461 . S
C295 C294 1.473 1_556 S
C296 C291 1.342 . S
C296 C294 1.284 1_556 S
C296 H315 0.936 . S
C297 C300 1.424 . S
C297 C302 1.245 . S
C297 C303 1.428 . S
C298 C301 1.260 . S
C298 C302 1.477 . S
C298 H316 0.932 . S
C299 C300 1.384 . S
C299 C301 1.479 . S
C299 H317 0.929 . S
C300 C297 1.424 . S
C300 C299 1.384 . S
C300 H318 0.928 . S
C301 C298 1.260 . S
C301 C299 1.479 . S
C302 C297 1.245 . S
C302 C298 1.477 . S
C302 H319 0.932 . S
C303 U286 2.882 . S
C303 C297 1.428 . S
C303 O306 1.301 . S
C303 O307 1.282 . S
O304 U286 2.441 . S
O304 C290 1.249 . S
O305 U286 2.420 . S
O305 C290 1.202 . S
O306 U286 2.455 . S
O306 C303 1.301 . S
O307 U286 2.449 . S
O307 C303 1.282 . S
H308 C281 0.931 . S
H309 C283 0.929 . S
H310 C284 0.926 1_554 S
H311 C285 0.931 . S
H312 C292 0.932 . S
H313 C293 0.930 . S
H314 C294 0.932 . S
H315 C296 0.936 . S
H316 C298 0.932 . S
H317 C299 0.929 . S
H318 C300 0.928 . S
H319 C302 0.932 . S
C320 C321 1.264 . S
C320 C325 1.479 . S
C320 C330 1.465 . S
C321 C320 1.264 . S
C321 C323 1.339 . S
C321 H348 0.931 . S
C322 C323 1.395 . S
C322 C324 1.320 . S
C323 C321 1.339 . S
C323 C322 1.395 . S
C323 H349 0.929 . S
C324 C322 1.320 . S
C324 C325 1.405 . S
C324 H350 0.930 . S
C325 C320 1.479 . S
C325 C324 1.405 . S
C325 H351 0.931 . S
U326 O327 2.454 . S
U326 O328 2.458 . S
U326 C329 2.984 . S
U326 C330 2.847 . S
U326 C343 2.882 . S
U326 O344 2.441 . S
U326 O345 2.420 . S
U326 O346 2.455 . S
U326 O347 2.449 . S
O327 U326 2.454 . S
O327 C329 1.353 . S
O328 U326 2.458 . S
O328 C329 1.286 . S
C329 U326 2.984 . S
C329 O327 1.353 . S
C329 O328 1.286 . S
C329 C331 1.363 . S
C330 C320 1.465 . S
C330 U326 2.847 . S
C330 O344 1.249 . S
C330 O345 1.202 . S
C331 C329 1.363 . S
C331 C333 1.408 . S
C331 C336 1.342 . S
C332 C333 1.310 . S
C332 C335 1.461 . S
C332 H352 0.932 . S
C333 C331 1.408 . S
C333 C332 1.310 . S
C333 H353 0.930 . S
C334 C335 1.474 . S
C334 C336 1.285 . S
C334 H354 0.929 . S
C335 C332 1.461 . S
C335 C334 1.474 . S
C336 C331 1.342 . S
C336 C334 1.285 . S
C336 H355 0.930 . S
C337 C340 1.424 . S
C337 C342 1.245 . S
C337 C343 1.428 . S
C338 C341 1.260 . S
C338 C342 1.477 . S
C338 H356 0.932 . S
C339 C340 1.384 . S
C339 C341 1.479 . S
C339 H357 0.929 . S
C340 C337 1.424 . S
C340 C339 1.384 . S
C340 H358 0.928 . S
C341 C338 1.260 . S
C341 C339 1.479 . S
C342 C337 1.245 . S
C342 C338 1.477 . S
C342 H359 0.932 . S
C343 U326 2.882 . S
C343 C337 1.428 . S
C343 O346 1.301 . S
C343 O347 1.282 . S
O344 U326 2.441 . S
O344 C330 1.249 . S
O345 U326 2.420 . S
O345 C330 1.202 . S
O346 U326 2.455 . S
O346 C343 1.301 . S
O347 U326 2.449 . S
O347 C343 1.282 . S
H348 C321 0.931 . S
H349 C323 0.929 . S
H350 C324 0.930 . S
H351 C325 0.931 . S
H352 C332 0.932 . S
H353 C333 0.930 . S
H354 C334 0.929 . S
H355 C336 0.930 . S
H356 C338 0.932 . S
H357 C339 0.929 . S
H358 C340 0.928 . S
H359 C342 0.932 . S
C360 C361 1.264 . S
C360 C365 1.479 . S
C360 C370 1.465 . S
C361 C360 1.264 . S
C361 C363 1.339 . S
C361 H388 0.931 . S
C362 C363 1.395 . S
C362 C364 1.320 . S
C363 C361 1.339 . S
C363 C362 1.395 . S
C363 H389 0.929 . S
C364 C362 1.320 . S
C364 C365 1.405 . S
C364 H390 0.930 . S
C365 C360 1.479 . S
C365 C364 1.405 . S
C365 H391 0.931 . S
U366 O367 2.454 . S
U366 O368 2.458 . S
U366 C369 2.984 . S
U366 C370 2.847 . S
U366 C383 2.882 1_455 S
U366 O384 2.441 . S
U366 O385 2.420 . S
U366 O386 2.455 . S
U366 O387 2.449 . S
O367 U366 2.454 . S
O367 C369 1.353 . S
O368 U366 2.458 . S
O368 C369 1.286 . S
C369 U366 2.984 . S
C369 O367 1.353 . S
C369 O368 1.286 . S
C369 C371 1.363 . S
C370 C360 1.465 . S
C370 U366 2.847 . S
C370 O384 1.249 . S
C370 O385 1.202 . S
C371 C369 1.363 . S
C371 C373 1.408 . S
C371 C376 1.342 . S
C372 C373 1.310 . S
C372 C375 1.461 . S
C372 H392 0.932 . S
C373 C371 1.408 . S
C373 C372 1.310 . S
C373 H393 0.930 . S
C374 C375 1.474 . S
C374 C376 1.285 . S
C374 H394 0.929 . S
C375 C372 1.461 . S
C375 C374 1.474 . S
C376 C371 1.342 . S
C376 C374 1.285 . S
C376 H395 0.930 . S
C377 C380 1.424 . S
C377 C382 1.245 . S
C377 C383 1.428 . S
C378 C381 1.260 . S
C378 C382 1.477 . S
C378 H396 0.932 . S
C379 C380 1.384 . S
C379 C381 1.479 . S
C379 H397 0.929 . S
C380 C377 1.424 . S
C380 C379 1.384 . S
C380 H398 0.928 . S
C381 C378 1.260 . S
C381 C379 1.479 . S
C382 C377 1.245 . S
C382 C378 1.477 . S
C382 H399 0.932 . S
C383 U366 2.882 1_655 S
C383 C377 1.428 . S
C383 O386 1.301 1_655 S
C383 O387 1.282 1_655 S
O384 U366 2.441 . S
O384 C370 1.249 . S
O385 U366 2.420 . S
O385 C370 1.202 . S
O386 U366 2.455 . S
O386 C383 1.301 1_455 S
O387 U366 2.449 . S
O387 C383 1.282 1_455 S
H388 C361 0.931 . S
H389 C363 0.929 . S
H390 C364 0.930 . S
H391 C365 0.931 . S
H392 C372 0.932 . S
H393 C373 0.930 . S
H394 C374 0.929 . S
H395 C376 0.930 . S
H396 C378 0.932 . S
H397 C379 0.929 . S
H398 C380 0.928 . S
H399 C382 0.932 . S
C400 C401 1.264 . S
C400 C405 1.479 . S
C400 C410 1.465 . S
C401 C400 1.264 . S
C401 C403 1.339 . S
C401 H428 0.931 . S
C402 C403 1.395 . S
C402 C404 1.320 . S
C403 C401 1.339 . S
C403 C402 1.395 . S
C403 H429 0.929 . S
C404 C402 1.320 . S
C404 C405 1.405 . S
C404 H430 0.930 . S
C405 C400 1.479 . S
C405 C404 1.405 . S
C405 H431 0.931 . S
U406 O407 2.454 . S
U406 O408 2.458 . S
U406 C409 2.984 . S
U406 C410 2.847 . S
U406 C423 2.882 . S
U406 O424 2.441 . S
U406 O425 2.420 . S
U406 O426 2.455 . S
U406 O427 2.449 . S
O407 U406 2.454 . S
O407 C409 1.353 . S
O408 U406 2.458 . S
O408 C409 1.286 . S
C409 U406 2.984 . S
C409 O407 1.353 . S
C409 O408 1.286 . S
C409 C411 1.363 . S
C410 C400 1.465 . S
C410 U406 2.847 . S
C410 O424 1.249 . S
C410 O425 1.202 . S
C411 C409 1.363 . S
C411 C413 1.408 . S
C411 C416 1.342 . S
C412 C413 1.310 . S
C412 C415 1.461 . S
C412 H432 0.932 . S
C413 C411 1.408 . S
C413 C412 1.310 . S
C413 H433 0.930 . S
C414 C415 1.474 . S
C414 C416 1.285 . S
C414 H434 0.929 . S
C415 C412 1.461 . S
C415 C414 1.474 . S
C416 C411 1.342 . S
C416 C414 1.285 . S
C416 H435 0.930 . S
C417 C420 1.424 . S
C417 C422 1.245 . S
C417 C423 1.428 . S
C418 C421 1.260 . S
C418 C422 1.477 . S
C418 H436 0.932 . S
C419 C420 1.384 . S
C419 C421 1.479 . S
C419 H437 0.929 . S
C420 C417 1.424 . S
C420 C419 1.384 . S
C420 H438 0.928 . S
C421 C418 1.260 . S
C421 C419 1.479 . S
C422 C417 1.245 . S
C422 C418 1.477 . S
C422 H439 0.932 . S
C423 U406 2.882 . S
C423 C417 1.428 . S
C423 O426 1.301 . S
C423 O427 1.282 . S
O424 U406 2.441 . S
O424 C410 1.249 . S
O425 U406 2.420 . S
O425 C410 1.202 . S
O426 U406 2.455 . S
O426 C423 1.301 . S
O427 U406 2.449 . S
O427 C423 1.282 . S
H428 C401 0.931 . S
H429 C403 0.929 . S
H430 C404 0.930 . S
H431 C405 0.931 . S
H432 C412 0.932 . S
H433 C413 0.930 . S
H434 C414 0.929 . S
H435 C416 0.930 . S
H436 C418 0.932 . S
H437 C419 0.929 . S
H438 C420 0.928 . S
H439 C422 0.932 . S
C440 C441 1.264 . S
C440 C445 1.479 . S
C440 C450 1.465 . S
C441 C440 1.264 . S
C441 C443 1.339 . S
C441 H468 0.931 . S
C442 C443 1.395 . S
C442 C444 1.320 . S
C443 C441 1.339 . S
C443 C442 1.395 . S
C443 H469 0.929 . S
C444 C442 1.320 . S
C444 C445 1.405 . S
C444 H470 0.926 1_655 S
C445 C440 1.479 . S
C445 C444 1.405 . S
C445 H471 0.931 . S
U446 O447 2.454 . S
U446 O448 2.458 . S
U446 C449 2.984 . S
U446 C450 2.847 . S
U446 C463 2.882 . S
U446 O464 2.441 . S
U446 O465 2.420 . S
U446 O466 2.455 . S
U446 O467 2.449 . S
O447 U446 2.454 . S
O447 C449 1.353 . S
O448 U446 2.458 . S
O448 C449 1.286 . S
C449 U446 2.984 . S
C449 O447 1.353 . S
C449 O448 1.286 . S
C449 C451 1.363 . S
C450 C440 1.465 . S
C450 U446 2.847 . S
C450 O464 1.249 . S
C450 O465 1.202 . S
C451 C449 1.363 . S
C451 C453 1.408 . S
C451 C456 1.342 . S
C452 C453 1.310 . S
C452 C455 1.461 . S
C452 H472 0.932 . S
C453 C451 1.408 . S
C453 C452 1.310 . S
C453 H473 0.930 . S
C454 C455 1.473 1_455 S
C454 C456 1.284 1_455 S
C454 H474 0.932 . S
C455 C452 1.461 . S
C455 C454 1.473 1_655 S
C456 C451 1.342 . S
C456 C454 1.284 1_655 S
C456 H475 0.936 . S
C457 C460 1.424 . S
C457 C462 1.245 . S
C457 C463 1.428 . S
C458 C461 1.260 . S
C458 C462 1.477 . S
C458 H476 0.932 . S
C459 C460 1.384 . S
C459 C461 1.479 . S
C459 H477 0.929 . S
C460 C457 1.424 . S
C460 C459 1.384 . S
C460 H478 0.928 . S
C461 C458 1.260 . S
C461 C459 1.479 . S
C462 C457 1.245 . S
C462 C458 1.477 . S
C462 H479 0.932 . S
C463 U446 2.882 . S
C463 C457 1.428 . S
C463 O466 1.301 . S
C463 O467 1.282 . S
O464 U446 2.441 . S
O464 C450 1.249 . S
O465 U446 2.420 . S
O465 C450 1.202 . S
O466 U446 2.455 . S
O466 C463 1.301 . S
O467 U446 2.449 . S
O467 C463 1.282 . S
H468 C441 0.931 . S
H469 C443 0.929 . S
H470 C444 0.926 1_455 S
H471 C445 0.931 . S
H472 C452 0.932 . S
H473 C453 0.930 . S
H474 C454 0.932 . S
H475 C456 0.936 . S
H476 C458 0.932 . S
H477 C459 0.929 . S
H478 C460 0.928 . S
H479 C462 0.932 . S
C480 C481 1.264 . S
C480 C485 1.479 . S
C480 C490 1.465 . S
C481 C480 1.264 . S
C481 C483 1.339 . S
C481 H508 0.931 . S
C482 C483 1.395 . S
C482 C484 1.320 . S
C483 C481 1.339 . S
C483 C482 1.395 . S
C483 H509 0.929 . S
C484 C482 1.320 . S
C484 C485 1.405 . S
C484 H510 0.930 . S
C485 C480 1.479 . S
C485 C484 1.405 . S
C485 H511 0.931 . S
U486 O487 2.454 . S
U486 O488 2.458 . S
U486 C489 2.984 . S
U486 C490 2.847 . S
U486 C503 2.882 . S
U486 O504 2.441 . S
U486 O505 2.420 . S
U486 O506 2.455 . S
U486 O507 2.449 . S
O487 U486 2.454 . S
O487 C489 1.353 . S
O488 U486 2.458 . S
O488 C489 1.286 . S
C489 U486 2.984 . S
C489 O487 1.353 . S
C489 O488 1.286 . S
C489 C491 1.363 . S
C490 C480 1.465 . S
C490 U486 2.847 . S
C490 O504 1.249 . S
C490 O505 1.202 . S
C491 C489 1.363 . S
C491 C493 1.408 . S
C491 C496 1.342 . S
C492 C493 1.310 . S
C492 C495 1.461 . S
C492 H512 0.932 . S
C493 C491 1.408 . S
C493 C492 1.310 . S
C493 H513 0.930 . S
C494 C495 1.474 . S
C494 C496 1.285 . S
C494 H514 0.929 . S
C495 C492 1.461 . S
C495 C494 1.474 . S
C496 C491 1.342 . S
C496 C494 1.285 . S
C496 H515 0.930 . S
C497 C500 1.424 . S
C497 C502 1.245 . S
C497 C503 1.428 . S
C498 C501 1.260 . S
C498 C502 1.477 . S
C498 H516 0.932 . S
C499 C500 1.384 . S
C499 C501 1.479 . S
C499 H517 0.929 . S
C500 C497 1.424 . S
C500 C499 1.384 . S
C500 H518 0.928 . S
C501 C498 1.260 . S
C501 C499 1.479 . S
C502 C497 1.245 . S
C502 C498 1.477 . S
C502 H519 0.932 . S
C503 U486 2.882 . S
C503 C497 1.428 . S
C503 O506 1.301 . S
C503 O507 1.282 . S
O504 U486 2.441 . S
O504 C490 1.249 . S
O505 U486 2.420 . S
O505 C490 1.202 . S
O506 U486 2.455 . S
O506 C503 1.301 . S
O507 U486 2.449 . S
O507 C503 1.282 . S
H508 C481 0.931 . S
H509 C483 0.929 . S
H510 C484 0.930 . S
H511 C485 0.931 . S
H512 C492 0.932 . S
H513 C493 0.930 . S
H514 C494 0.929 . S
H515 C496 0.930 . S
H516 C498 0.932 . S
H517 C499 0.929 . S
H518 C500 0.928 . S
H519 C502 0.932 . S
C520 C521 1.264 . S
C520 C525 1.479 . S
C520 C530 1.465 . S
C521 C520 1.264 . S
C521 C523 1.339 . S
C521 H548 0.931 . S
C522 C523 1.395 . S
C522 C524 1.320 . S
C523 C521 1.339 . S
C523 C522 1.395 . S
C523 H549 0.929 . S
C524 C522 1.320 . S
C524 C525 1.405 . S
C524 H550 0.930 . S
C525 C520 1.479 . S
C525 C524 1.405 . S
C525 H551 0.931 . S
U526 O527 2.454 . S
U526 O528 2.458 . S
U526 C529 2.984 . S
U526 C530 2.847 . S
U526 C543 2.882 . S
U526 O544 2.441 . S
U526 O545 2.420 . S
U526 O546 2.455 . S
U526 O547 2.449 . S
O527 U526 2.454 . S
O527 C529 1.353 . S
O528 U526 2.458 . S
O528 C529 1.286 . S
C529 U526 2.984 . S
C529 O527 1.353 . S
C529 O528 1.286 . S
C529 C531 1.363 . S
C530 C520 1.465 . S
C530 U526 2.847 . S
C530 O544 1.249 . S
C530 O545 1.202 . S
C531 C529 1.363 . S
C531 C533 1.408 . S
C531 C536 1.342 . S
C532 C533 1.310 . S
C532 C535 1.461 . S
C532 H552 0.932 . S
C533 C531 1.408 . S
C533 C532 1.310 . S
C533 H553 0.930 . S
C534 C535 1.474 . S
C534 C536 1.285 . S
C534 H554 0.929 . S
C535 C532 1.461 . S
C535 C534 1.474 . S
C536 C531 1.342 . S
C536 C534 1.285 . S
C536 H555 0.930 . S
C537 C540 1.424 . S
C537 C542 1.245 . S
C537 C543 1.428 . S
C538 C541 1.260 . S
C538 C542 1.477 . S
C538 H556 0.932 . S
C539 C540 1.384 . S
C539 C541 1.479 . S
C539 H557 0.929 . S
C540 C537 1.424 . S
C540 C539 1.384 . S
C540 H558 0.928 . S
C541 C538 1.260 . S
C541 C539 1.479 . S
C542 C537 1.245 . S
C542 C538 1.477 . S
C542 H559 0.932 . S
C543 U526 2.882 . S
C543 C537 1.428 . S
C543 O546 1.301 . S
C543 O547 1.282 . S
O544 U526 2.441 . S
O544 C530 1.249 . S
O545 U526 2.420 . S
O545 C530 1.202 . S
O546 U526 2.455 . S
O546 C543 1.301 . S
O547 U526 2.449 . S
O547 C543 1.282 . S
H548 C521 0.931 . S
H549 C523 0.929 . S
H550 C524 0.930 . S
H551 C525 0.931 . S
H552 C532 0.932 . S
H553 C533 0.930 . S
H554 C534 0.929 . S
H555 C536 0.930 . S
H556 C538 0.932 . S
H557 C539 0.929 . S
H558 C540 0.928 . S
H559 C542 0.932 . S
C560 C561 1.264 . S
C560 C565 1.479 . S
C560 C570 1.465 . S
C561 C560 1.264 . S
C561 C563 1.339 . S
C561 H588 0.931 . S
C562 C563 1.395 . S
C562 C564 1.320 . S
C563 C561 1.339 . S
C563 C562 1.395 . S
C563 H589 0.929 . S
C564 C562 1.320 . S
C564 C565 1.405 . S
C564 H590 0.919 1_565 S
C565 C560 1.479 . S
C565 C564 1.405 . S
C565 H591 0.931 . S
U566 O567 2.454 . S
U566 O568 2.458 . S
U566 C569 2.984 . S
U566 C570 2.847 . S
U566 C583 2.882 . S
U566 O584 2.441 . S
U566 O585 2.420 . S
U566 O586 2.455 . S
U566 O587 2.449 . S
O567 U566 2.454 . S
O567 C569 1.353 . S
O568 U566 2.458 . S
O568 C569 1.286 . S
C569 U566 2.984 . S
C569 O567 1.353 . S
C569 O568 1.286 . S
C569 C571 1.363 . S
C570 C560 1.465 . S
C570 U566 2.847 . S
C570 O584 1.249 . S
C570 O585 1.202 . S
C571 C569 1.363 . S
C571 C573 1.408 . S
C571 C576 1.342 . S
C572 C573 1.310 . S
C572 C575 1.459 . S
C572 H592 0.932 . S
C573 C571 1.408 . S
C573 C572 1.310 . S
C573 H593 0.930 . S
C574 C575 1.475 1_545 S
C574 C576 1.285 1_545 S
C574 H594 0.930 . S
C575 C572 1.459 . S
C575 C574 1.475 1_565 S
C576 C571 1.342 . S
C576 C574 1.285 1_565 S
C576 H595 0.929 . S
C577 C580 1.424 . S
C577 C582 1.245 . S
C577 C583 1.428 . S
C578 C581 1.260 . S
C578 C582 1.477 . S
C578 H596 0.932 . S
C579 C580 1.384 . S
C579 C581 1.479 . S
C579 H597 0.929 . S
C580 C577 1.424 . S
C580 C579 1.384 . S
C580 H598 0.928 . S
C581 C578 1.260 . S
C581 C579 1.479 . S
C582 C577 1.245 . S
C582 C578 1.477 . S
C582 H599 0.932 . S
C583 U566 2.882 . S
C583 C577 1.428 . S
C583 O586 1.301 . S
C583 O587 1.282 . S
O584 U566 2.441 . S
O584 C570 1.249 . S
O585 U566 2.420 . S
O585 C570 1.202 . S
O586 U566 2.455 . S
O586 C583 1.301 . S
O587 U566 2.449 . S
O587 C583 1.282 . S
H588 C561 0.931 . S
H589 C563 0.929 . S
H590 C564 0.919 1_545 S
H591 C565 0.931 . S
H592 C572 0.932 . S
H593 C573 0.930 . S
H594 C574 0.930 . S
H595 C576 0.929 . S
H596 C578 0.932 . S
H597 C579 0.929 . S
H598 C580 0.928 . S
H599 C582 0.932 . S
C600 C601 1.262 1_565 S
C600 C605 1.479 . S
C600 C610 1.465 1_565 S
C601 C600 1.262 1_545 S
C601 C603 1.326 1_545 S
C601 H628 0.947 . S
C602 C603 1.395 . S
C602 C604 1.320 . S
C603 C601 1.326 1_565 S
C603 C602 1.395 . S
C603 H629 0.929 . S
C604 C602 1.320 . S
C604 C605 1.405 . S
C604 H630 0.930 . S
C605 C600 1.479 . S
C605 C604 1.405 . S
C605 H631 0.931 . S
U606 O607 2.454 1_545 S
U606 O608 2.458 . S
U606 C609 2.984 1_545 S
U606 C610 2.847 . S
U606 C623 2.882 . S
U606 O624 2.441 1_545 S
U606 O625 2.420 . S
U606 O626 2.455 . S
U606 O627 2.449 . S
O607 U606 2.454 1_565 S
O607 C609 1.353 . S
O608 U606 2.458 . S
O608 C609 1.286 1_545 S
C609 U606 2.984 1_565 S
C609 O607 1.353 . S
C609 O608 1.286 1_565 S
C609 C611 1.363 . S
C610 C600 1.465 1_545 S
C610 U606 2.847 . S
C610 O624 1.249 1_545 S
C610 O625 1.202 . S
C611 C609 1.363 . S
C611 C613 1.408 . S
C611 C616 1.342 . S
C612 C613 1.310 . S
C612 C615 1.461 . S
C612 H632 0.932 . S
C613 C611 1.408 . S
C613 C612 1.310 . S
C613 H633 0.930 . S
C614 C615 1.474 . S
C614 C616 1.285 . S
C614 H634 0.929 . S
C615 C612 1.461 . S
C615 C614 1.474 . S
C616 C611 1.342 . S
C616 C614 1.285 . S
C616 H635 0.930 . S
C617 C620 1.424 . S
C617 C622 1.245 . S
C617 C623 1.428 . S
C618 C621 1.260 . S
C618 C622 1.477 . S
C618 H636 0.932 . S
C619 C620 1.384 . S
C619 C621 1.479 . S
C619 H637 0.929 . S
C620 C617 1.424 . S
C620 C619 1.384 . S
C620 H638 0.928 . S
C621 C618 1.260 . S
C621 C619 1.479 . S
C622 C617 1.245 . S
C622 C618 1.477 . S
C622 H639 0.932 . S
C623 U606 2.882 . S
C623 C617 1.428 . S
C623 O626 1.301 . S
C623 O627 1.282 . S
O624 U606 2.441 1_565 S
O624 C610 1.249 1_565 S
O625 U606 2.420 . S
O625 C610 1.202 . S
O626 U606 2.455 . S
O626 C623 1.301 . S
O627 U606 2.449 . S
O627 C623 1.282 . S
H628 C601 0.947 . S
H629 C603 0.929 . S
H630 C604 0.930 . S
H631 C605 0.931 . S
H632 C612 0.932 . S
H633 C613 0.930 . S
H634 C614 0.929 . S
H635 C616 0.930 . S
H636 C618 0.932 . S
H637 C619 0.929 . S
H638 C620 0.928 . S
H639 C622 0.932 . S
C640 C641 1.264 . S
C640 C645 1.479 . S
C640 C650 1.465 . S
C641 C640 1.264 . S
C641 C643 1.339 . S
C641 H668 0.931 . S
C642 C643 1.395 . S
C642 C644 1.320 . S
C643 C641 1.339 . S
C643 C642 1.395 . S
C643 H669 0.929 . S
C644 C642 1.320 . S
C644 C645 1.405 . S
C644 H670 0.930 . S
C645 C640 1.479 . S
C645 C644 1.405 . S
C645 H671 0.931 . S
U646 O647 2.454 . S
U646 O648 2.458 . S
U646 C649 2.984 . S
U646 C650 2.847 . S
U646 C663 2.882 . S
U646 O664 2.441 . S
U646 O665 2.420 . S
U646 O666 2.455 . S
U646 O667 2.449 . S
O647 U646 2.454 . S
O647 C649 1.353 . S
O648 U646 2.458 . S
O648 C649 1.286 . S
C649 U646 2.984 . S
C649 O647 1.353 . S
C649 O648 1.286 . S
C649 C651 1.363 . S
C650 C640 1.465 . S
C650 U646 2.847 . S
C650 O664 1.249 . S
C650 O665 1.202 . S
C651 C649 1.363 . S
C651 C653 1.408 . S
C651 C656 1.342 . S
C652 C653 1.310 . S
C652 C655 1.461 . S
C652 H672 0.932 . S
C653 C651 1.408 . S
C653 C652 1.310 . S
C653 H673 0.930 . S
C654 C655 1.474 . S
C654 C656 1.285 . S
C654 H674 0.929 . S
C655 C652 1.461 . S
C655 C654 1.474 . S
C656 C651 1.342 . S
C656 C654 1.285 . S
C656 H675 0.930 . S
C657 C660 1.424 . S
C657 C662 1.245 . S
C657 C663 1.428 . S
C658 C661 1.260 . S
C658 C662 1.477 . S
C658 H676 0.932 . S
C659 C660 1.384 . S
C659 C661 1.479 . S
C659 H677 0.929 . S
C660 C657 1.424 . S
C660 C659 1.384 . S
C660 H678 0.928 . S
C661 C658 1.260 . S
C661 C659 1.479 . S
C662 C657 1.245 . S
C662 C658 1.477 . S
C662 H679 0.932 . S
C663 U646 2.882 . S
C663 C657 1.428 . S
C663 O666 1.301 . S
C663 O667 1.282 . S
O664 U646 2.441 . S
O664 C650 1.249 . S
O665 U646 2.420 . S
O665 C650 1.202 . S
O666 U646 2.455 . S
O666 C663 1.301 . S
O667 U646 2.449 . S
O667 C663 1.282 . S
H668 C641 0.931 . S
H669 C643 0.929 . S
H670 C644 0.930 . S
H671 C645 0.931 . S
H672 C652 0.932 . S
H673 C653 0.930 . S
H674 C654 0.929 . S
H675 C656 0.930 . S
H676 C658 0.932 . S
H677 C659 0.929 . S
H678 C660 0.928 . S
H679 C662 0.932 . S
C680 C681 1.262 1_556 S
C680 C685 1.479 . S
C680 C690 1.465 1_556 S
C681 C680 1.262 1_554 S
C681 C683 1.326 1_554 S
C681 H708 0.947 . S
C682 C683 1.395 . S
C682 C684 1.320 . S
C683 C681 1.326 1_556 S
C683 C682 1.395 . S
C683 H709 0.929 . S
C684 C682 1.320 . S
C684 C685 1.405 . S
C684 H710 0.930 . S
C685 C680 1.479 . S
C685 C684 1.405 . S
C685 H711 0.931 . S
U686 O687 2.454 1_554 S
U686 O688 2.458 . S
U686 C689 2.984 1_554 S
U686 C690 2.847 . S
U686 C703 2.882 . S
U686 O704 2.441 1_554 S
U686 O705 2.420 . S
U686 O706 2.455 . S
U686 O707 2.449 . S
O687 U686 2.454 1_556 S
O687 C689 1.353 . S
O688 U686 2.458 . S
O688 C689 1.286 1_554 S
C689 U686 2.984 1_556 S
C689 O687 1.353 . S
C689 O688 1.286 1_556 S
C689 C691 1.363 . S
C690 C680 1.465 1_554 S
C690 U686 2.847 . S
C690 O704 1.249 1_554 S
C690 O705 1.202 . S
C691 C689 1.363 . S
C691 C693 1.408 . S
C691 C696 1.342 . S
C692 C693 1.310 . S
C692 C695 1.461 . S
C692 H712 0.932 . S
C693 C691 1.408 . S
C693 C692 1.310 . S
C693 H713 0.930 . S
C694 C695 1.474 . S
C694 C696 1.285 . S
C694 H714 0.929 . S
C695 C692 1.461 . S
C695 C694 1.474 . S
C696 C691 1.342 . S
C696 C694 1.285 . S
C696 H715 0.930 . S
C697 C700 1.424 . S
C697 C702 1.245 . S
C697 C703 1.428 . S
C698 C701 1.260 . S
C698 C702 1.477 . S
C698 H716 0.932 . S
C699 C700 1.384 . S
C699 C701 1.479 . S
C699 H717 0.929 . S
C700 C697 1.424 . S
C700 C699 1.384 . S
C700 H718 0.928 . S
C701 C698 1.260 . S
C701 C699 1.479 . S
C702 C697 1.245 . S
C702 C698 1.477 . S
C702 H719 0.932 . S
C703 U686 2.882 . S
C703 C697 1.428 . S
C703 O706 1.301 . S
C703 O707 1.282 . S
O704 U686 2.441 1_556 S
O704 C690 1.249 1_556 S
O705 U686 2.420 . S
O705 C690 1.202 . S
O706 U686 2.455 . S
O706 C703 1.301 . S
O707 U686 2.449 . S
O707 C703 1.282 . S
H708 C681 0.947 . S
H709 C683 0.929 . S
H710 C684 0.930 . S
H711 C685 0.931 . S
H712 C692 0.932 . S
H713 C693 0.930 . S
H714 C694 0.929 . S
H715 C696 0.930 . S
H716 C698 0.932 . S
H717 C699 0.929 . S
H718 C700 0.928 . S
H719 C702 0.932 . S
C720 C721 1.264 . S
C720 C725 1.479 . S
C720 C730 1.465 . S
C721 C720 1.264 . S
C721 C723 1.339 . S
C721 H748 0.931 . S
C722 C723 1.395 . S
C722 C724 1.320 . S
C723 C721 1.339 . S
C723 C722 1.395 . S
C723 H749 0.929 . S
C724 C722 1.320 . S
C724 C725 1.405 . S
C724 H750 0.930 . S
C725 C720 1.479 . S
C725 C724 1.405 . S
C725 H751 0.931 . S
U726 O727 2.454 . S
U726 O728 2.458 . S
U726 C729 2.984 . S
U726 C730 2.847 . S
U726 C743 2.882 . S
U726 O744 2.441 . S
U726 O745 2.420 . S
U726 O746 2.455 . S
U726 O747 2.449 . S
O727 U726 2.454 . S
O727 C729 1.353 . S
O728 U726 2.458 . S
O728 C729 1.286 . S
C729 U726 2.984 . S
C729 O727 1.353 . S
C729 O728 1.286 . S
C729 C731 1.363 . S
C730 C720 1.465 . S
C730 U726 2.847 . S
C730 O744 1.249 . S
C730 O745 1.202 . S
C731 C729 1.363 . S
C731 C733 1.408 . S
C731 C736 1.342 . S
C732 C733 1.310 . S
C732 C735 1.461 . S
C732 H752 0.932 . S
C733 C731 1.408 . S
C733 C732 1.310 . S
C733 H753 0.930 . S
C734 C735 1.474 . S
C734 C736 1.285 . S
C734 H754 0.929 . S
C735 C732 1.461 . S
C735 C734 1.474 . S
C736 C731 1.342 . S
C736 C734 1.285 . S
C736 H755 0.930 . S
C737 C740 1.424 . S
C737 C742 1.245 . S
C737 C743 1.428 . S
C738 C741 1.260 . S
C738 C742 1.477 . S
C738 H756 0.932 . S
C739 C740 1.384 . S
C739 C741 1.479 . S
C739 H757 0.929 . S
C740 C737 1.424 . S
C740 C739 1.384 . S
C740 H758 0.928 . S
C741 C738 1.260 . S
C741 C739 1.479 . S
C742 C737 1.245 . S
C742 C738 1.477 . S
C742 H759 0.932 . S
C743 U726 2.882 . S
C743 C737 1.428 . S
C743 O746 1.301 . S
C743 O747 1.282 . S
O744 U726 2.441 . S
O744 C730 1.249 . S
O745 U726 2.420 . S
O745 C730 1.202 . S
O746 U726 2.455 . S
O746 C743 1.301 . S
O747 U726 2.449 . S
O747 C743 1.282 . S
H748 C721 0.931 . S
H749 C723 0.929 . S
H750 C724 0.930 . S
H751 C725 0.931 . S
H752 C732 0.932 . S
H753 C733 0.930 . S
H754 C734 0.929 . S
H755 C736 0.930 . S
H756 C738 0.932 . S
H757 C739 0.929 . S
H758 C740 0.928 . S
H759 C742 0.932 . S
C760 C761 1.264 . S
C760 C765 1.479 . S
C760 C770 1.465 . S
C761 C760 1.264 . S
C761 C763 1.339 . S
C761 H788 0.931 . S
C762 C763 1.395 . S
C762 C764 1.320 . S
C763 C761 1.339 . S
C763 C762 1.395 . S
C763 H789 0.929 . S
C764 C762 1.320 . S
C764 C765 1.405 . S
C764 H790 0.919 1_556 S
C765 C760 1.479 . S
C765 C764 1.405 . S
C765 H791 0.931 . S
U766 O767 2.454 . S
U766 O768 2.458 . S
U766 C769 2.984 . S
U766 C770 2.847 . S
U766 C783 2.882 . S
U766 O784 2.441 . S
U766 O785 2.420 . S
U766 O786 2.455 . S
U766 O787 2.449 . S
O767 U766 2.454 . S
O767 C769 1.353 . S
O768 U766 2.458 . S
O768 C769 1.286 . S
C769 U766 2.984 . S
C769 O767 1.353 . S
C769 O768 1.286 . S
C769 C771 1.363 . S
C770 C760 1.465 . S
C770 U766 2.847 . S
C770 O784 1.249 . S
C770 O785 1.202 . S
C771 C769 1.363 . S
C771 C773 1.408 . S
C771 C776 1.342 . S
C772 C773 1.310 . S
C772 C775 1.459 . S
C772 H792 0.932 . S
C773 C771 1.408 . S
C773 C772 1.310 . S
C773 H793 0.930 . S
C774 C775 1.475 1_554 S
C774 C776 1.285 1_554 S
C774 H794 0.930 . S
C775 C772 1.459 . S
C775 C774 1.475 1_556 S
C776 C771 1.342 . S
C776 C774 1.285 1_556 S
C776 H795 0.929 . S
C777 C780 1.424 . S
C777 C782 1.245 . S
C777 C783 1.428 . S
C778 C781 1.260 . S
C778 C782 1.477 . S
C778 H796 0.932 . S
C779 C780 1.384 . S
C779 C781 1.479 . S
C779 H797 0.929 . S
C780 C777 1.424 . S
C780 C779 1.384 . S
C780 H798 0.928 . S
C781 C778 1.260 . S
C781 C779 1.479 . S
C782 C777 1.245 . S
C782 C778 1.477 . S
C782 H799 0.932 . S
C783 U766 2.882 . S
C783 C777 1.428 . S
C783 O786 1.301 . S
C783 O787 1.282 . S
O784 U766 2.441 . S
O784 C770 1.249 . S
O785 U766 2.420 . S
O785 C770 1.202 . S
O786 U766 2.455 . S
O786 C783 1.301 . S
O787 U766 2.449 . S
O787 C783 1.282 . S
H788 C761 0.931 . S
H789 C763 0.929 . S
H790 C764 0.919 1_554 S
H791 C765 0.931 . S
H792 C772 0.932 . S
H793 C773 0.930 . S
H794 C774 0.930 . S
H795 C776 0.929 . S
H796 C778 0.932 . S
H797 C779 0.929 . S
H798 C780 0.928 . S
H799 C782 0.932 . S
C800 C801 1.264 . S
C800 C805 1.479 . S
C800 C810 1.465 . S
C801 C800 1.264 . S
C801 C803 1.339 . S
C801 H828 0.931 . S
C802 C803 1.395 . S
C802 C804 1.320 . S
C803 C801 1.339 . S
C803 C802 1.395 . S
C803 H829 0.929 . S
C804 C802 1.320 . S
C804 C805 1.405 . S
C804 H830 0.930 . S
C805 C800 1.479 . S
C805 C804 1.405 . S
C805 H831 0.931 . S
U806 O807 2.454 . S
U806 O808 2.458 . S
U806 C809 2.984 . S
U806 C810 2.847 . S
U806 C823 2.882 . S
U806 O824 2.441 . S
U806 O825 2.420 . S
U806 O826 2.455 . S
U806 O827 2.449 . S
O807 U806 2.454 . S
O807 C809 1.353 . S
O808 U806 2.458 . S
O808 C809 1.286 . S
C809 U806 2.984 . S
C809 O807 1.353 . S
C809 O808 1.286 . S
C809 C811 1.363 . S
C810 C800 1.465 . S
C810 U806 2.847 . S
C810 O824 1.249 . S
C810 O825 1.202 . S
C811 C809 1.363 . S
C811 C813 1.408 . S
C811 C816 1.342 . S
C812 C813 1.310 . S
C812 C815 1.461 . S
C812 H832 0.932 . S
C813 C811 1.408 . S
C813 C812 1.310 . S
C813 H833 0.930 . S
C814 C815 1.474 . S
C814 C816 1.285 . S
C814 H834 0.929 . S
C815 C812 1.461 . S
C815 C814 1.474 . S
C816 C811 1.342 . S
C816 C814 1.285 . S
C816 H835 0.930 . S
C817 C820 1.424 . S
C817 C822 1.245 . S
C817 C823 1.428 . S
C818 C821 1.260 . S
C818 C822 1.477 . S
C818 H836 0.932 . S
C819 C820 1.384 . S
C819 C821 1.479 . S
C819 H837 0.929 . S
C820 C817 1.424 . S
C820 C819 1.384 . S
C820 H838 0.928 . S
C821 C818 1.260 . S
C821 C819 1.479 . S
C822 C817 1.245 . S
C822 C818 1.477 . S
C822 H839 0.932 . S
C823 U806 2.882 . S
C823 C817 1.428 . S
C823 O826 1.301 . S
C823 O827 1.282 . S
O824 U806 2.441 . S
O824 C810 1.249 . S
O825 U806 2.420 . S
O825 C810 1.202 . S
O826 U806 2.455 . S
O826 C823 1.301 . S
O827 U806 2.449 . S
O827 C823 1.282 . S
H828 C801 0.931 . S
H829 C803 0.929 . S
H830 C804 0.930 . S
H831 C805 0.931 . S
H832 C812 0.932 . S
H833 C813 0.930 . S
H834 C814 0.929 . S
H835 C816 0.930 . S
H836 C818 0.932 . S
H837 C819 0.929 . S
H838 C820 0.928 . S
H839 C822 0.932 . S
C840 C841 1.262 1_655 S
C840 C845 1.479 . S
C840 C850 1.465 1_655 S
C841 C840 1.262 1_455 S
C841 C843 1.326 1_455 S
C841 H868 0.947 . S
C842 C843 1.395 . S
C842 C844 1.320 . S
C843 C841 1.326 1_655 S
C843 C842 1.395 . S
C843 H869 0.929 . S
C844 C842 1.320 . S
C844 C845 1.405 . S
C844 H870 0.930 . S
C845 C840 1.479 . S
C845 C844 1.405 . S
C845 H871 0.931 . S
U846 O847 2.454 1_455 S
U846 O848 2.458 . S
U846 C849 2.984 1_455 S
U846 C850 2.847 . S
U846 C863 2.882 . S
U846 O864 2.441 1_455 S
U846 O865 2.420 . S
U846 O866 2.455 . S
U846 O867 2.449 . S
O847 U846 2.454 1_655 S
O847 C849 1.353 . S
O848 U846 2.458 . S
O848 C849 1.286 1_455 S
C849 U846 2.984 1_655 S
C849 O847 1.353 . S
C849 O848 1.286 1_655 S
C849 C851 1.363 . S
C850 C840 1.465 1_455 S
C850 U846 2.847 . S
C850 O864 1.249 1_455 S
C850 O865 1.202 . S
C851 C849 1.363 . S
C851 C853 1.408 . S
C851 C856 1.342 . S
C852 C853 1.310 . S
C852 C855 1.461 . S
C852 H872 0.932 . S
C853 C851 1.408 . S
C853 C852 1.310 . S
C853 H873 0.930 . S
C854 C855 1.474 . S
C854 C856 1.285 . S
C854 H874 0.929 . S
C855 C852 1.461 . S
C855 C854 1.474 . S
C856 C851 1.342 . S
C856 C854 1.285 . S
C856 H875 0.930 . S
C857 C860 1.424 . S
C857 C862 1.245 . S
C857 C863 1.428 . S
C858 C861 1.260 . S
C858 C862 1.477 . S
C858 H876 0.932 . S
C859 C860 1.384 . S
C859 C861 1.479 . S
C859 H877 0.929 . S
C860 C857 1.424 . S
C860 C859 1.384 . S
C860 H878 0.928 . S
C861 C858 1.260 . S
C861 C859 1.479 . S
C862 C857 1.245 . S
C862 C858 1.477 . S
C862 H879 0.932 . S
C863 U846 2.882 . S
C863 C857 1.428 . S
C863 O866 1.301 . S
C863 O867 1.282 . S
O864 U846 2.441 1_655 S
O864 C850 1.249 1_655 S
O865 U846 2.420 . S
O865 C850 1.202 . S
O866 U846 2.455 . S
O866 C863 1.301 . S
O867 U846 2.449 . S
O867 C863 1.282 . S
H868 C841 0.947 . S
H869 C843 0.929 . S
H870 C844 0.930 . S
H871 C845 0.931 . S
H872 C852 0.932 . S
H873 C853 0.930 . S
H874 C854 0.929 . S
H875 C856 0.930 . S
H876 C858 0.932 . S
H877 C859 0.929 . S
H878 C860 0.928 . S
H879 C862 0.932 . S
C880 C881 1.264 . S
C880 C885 1.479 . S
C880 C890 1.465 . S
C881 C880 1.264 . S
C881 C883 1.339 . S
C881 H908 0.931 . S
C882 C883 1.395 . S
C882 C884 1.320 . S
C883 C881 1.339 . S
C883 C882 1.395 . S
C883 H909 0.929 . S
C884 C882 1.320 . S
C884 C885 1.405 . S
C884 H910 0.930 . S
C885 C880 1.479 . S
C885 C884 1.405 . S
C885 H911 0.931 . S
U886 O887 2.454 . S
U886 O888 2.458 . S
U886 C889 2.984 . S
U886 C890 2.847 . S
U886 C903 2.882 . S
U886 O904 2.441 . S
U886 O905 2.420 . S
U886 O906 2.455 . S
U886 O907 2.449 . S
O887 U886 2.454 . S
O887 C889 1.353 . S
O888 U886 2.458 . S
O888 C889 1.286 . S
C889 U886 2.984 . S
C889 O887 1.353 . S
C889 O888 1.286 . S
C889 C891 1.363 . S
C890 C880 1.465 . S
C890 U886 2.847 . S
C890 O904 1.249 . S
C890 O905 1.202 . S
C891 C889 1.363 . S
C891 C893 1.408 . S
C891 C896 1.342 . S
C892 C893 1.310 . S
C892 C895 1.461 . S
C892 H912 0.932 . S
C893 C891 1.408 . S
C893 C892 1.310 . S
C893 H913 0.930 . S
C894 C895 1.474 . S
C894 C896 1.285 . S
C894 H914 0.929 . S
C895 C892 1.461 . S
C895 C894 1.474 . S
C896 C891 1.342 . S
C896 C894 1.285 . S
C896 H915 0.930 . S
C897 C900 1.424 . S
C897 C902 1.245 . S
C897 C903 1.428 . S
C898 C901 1.260 . S
C898 C902 1.477 . S
C898 H916 0.932 . S
C899 C900 1.384 . S
C899 C901 1.479 . S
C899 H917 0.929 . S
C900 C897 1.424 . S
C900 C899 1.384 . S
C900 H918 0.928 . S
C901 C898 1.260 . S
C901 C899 1.479 . S
C902 C897 1.245 . S
C902 C898 1.477 . S
C902 H919 0.932 . S
C903 U886 2.882 . S
C903 C897 1.428 . S
C903 O906 1.301 . S
C903 O907 1.282 . S
O904 U886 2.441 . S
O904 C890 1.249 . S
O905 U886 2.420 . S
O905 C890 1.202 . S
O906 U886 2.455 . S
O906 C903 1.301 . S
O907 U886 2.449 . S
O907 C903 1.282 . S
H908 C881 0.931 . S
H909 C883 0.929 . S
H910 C884 0.930 . S
H911 C885 0.931 . S
H912 C892 0.932 . S
H913 C893 0.930 . S
H914 C894 0.929 . S
H915 C896 0.930 . S
H916 C898 0.932 . S
H917 C899 0.929 . S
H918 C900 0.928 . S
H919 C902 0.932 . S
C920 C921 1.264 . S
C920 C925 1.479 . S
C920 C930 1.465 . S
C921 C920 1.264 . S
C921 C923 1.339 . S
C921 H948 0.931 . S
C922 C923 1.395 . S
C922 C924 1.320 . S
C923 C921 1.339 . S
C923 C922 1.395 . S
C923 H949 0.929 . S
C924 C922 1.320 . S
C924 C925 1.405 . S
C924 H950 0.919 1_655 S
C925 C920 1.479 . S
C925 C924 1.405 . S
C925 H951 0.931 . S
U926 O927 2.454 . S
U926 O928 2.458 . S
U926 C929 2.984 . S
U926 C930 2.847 . S
U926 C943 2.882 . S
U926 O944 2.441 . S
U926 O945 2.420 . S
U926 O946 2.455 . S
U926 O947 2.449 . S
O927 U926 2.454 . S
O927 C929 1.353 . S
O928 U926 2.458 . S
O928 C929 1.286 . S
C929 U926 2.984 . S
C929 O927 1.353 . S
C929 O928 1.286 . S
C929 C931 1.363 . S
C930 C920 1.465 . S
C930 U926 2.847 . S
C930 O944 1.249 . S
C930 O945 1.202 . S
C931 C929 1.363 . S
C931 C933 1.408 . S
C931 C936 1.342 . S
C932 C933 1.310 . S
C932 C935 1.459 . S
C932 H952 0.932 . S
C933 C931 1.408 . S
C933 C932 1.310 . S
C933 H953 0.930 . S
C934 C935 1.475 1_455 S
C934 C936 1.285 1_455 S
C934 H954 0.930 . S
C935 C932 1.459 . S
C935 C934 1.475 1_655 S
C936 C931 1.342 . S
C936 C934 1.285 1_655 S
C936 H955 0.929 . S
C937 C940 1.424 . S
C937 C942 1.245 . S
C937 C943 1.428 . S
C938 C941 1.260 . S
C938 C942 1.477 . S
C938 H956 0.932 . S
C939 C940 1.384 . S
C939 C941 1.479 . S
C939 H957 0.929 . S
C940 C937 1.424 . S
C940 C939 1.384 . S
C940 H958 0.928 . S
C941 C938 1.260 . S
C941 C939 1.479 . S
C942 C937 1.245 . S
C942 C938 1.477 . S
C942 H959 0.932 . S
C943 U926 2.882 . S
C943 C937 1.428 . S
C943 O946 1.301 . S
C943 O947 1.282 . S
O944 U926 2.441 . S
O944 C930 1.249 . S
O945 U926 2.420 . S
O945 C930 1.202 . S
O946 U926 2.455 . S
O946 C943 1.301 . S
O947 U926 2.449 . S
O947 C943 1.282 . S
H948 C921 0.931 . S
H949 C923 0.929 . S
H950 C924 0.919 1_455 S
H951 C925 0.931 . S
H952 C932 0.932 . S
H953 C933 0.930 . S
H954 C934 0.930 . S
H955 C936 0.929 . S
H956 C938 0.932 . S
H957 C939 0.929 . S
H958 C940 0.928 . S
H959 C942 0.932 . S
C960 N961 1.317 . S
C960 N962 1.348 . S
C960 C963 1.485 . S
N961 C960 1.317 . S
N961 N965 1.370 . S
N962 C960 1.348 . S
N962 C964 1.346 . S
C963 C960 1.485 . S
C963 H967 0.960 . S
C963 H968 0.961 . S
C963 H969 0.960 . S
C964 N962 1.346 . S
C964 N965 1.307 . S
C964 C966 1.486 . S
N965 N961 1.370 . S
N965 C964 1.307 . S
C966 C964 1.486 . S
C966 H970 0.960 . S
C966 H971 0.960 . S
C966 H972 0.959 . S
H967 C963 0.960 . S
H968 C963 0.961 . S
H969 C963 0.960 . S
H970 C966 0.960 . S
H971 C966 0.960 . S
H972 C966 0.959 . S
C973 N974 1.317 . S
C973 N975 1.348 . S
C973 C976 1.485 . S
N974 C973 1.317 . S
N974 N978 1.370 1_554 S
N975 C973 1.348 . S
N975 C977 1.346 1_554 S
C976 C973 1.485 . S
C976 H980 0.960 . S
C976 H981 0.961 . S
C976 H982 0.960 . S
C977 N975 1.346 1_556 S
C977 N978 1.307 . S
C977 C979 1.486 . S
N978 N974 1.370 1_556 S
N978 C977 1.307 . S
C979 C977 1.486 . S
C979 H983 0.960 . S
C979 H984 0.960 . S
C979 H985 0.959 . S
H980 C976 0.960 . S
H981 C976 0.961 . S
H982 C976 0.960 . S
H983 C979 0.960 . S
H984 C979 0.960 . S
H985 C979 0.959 . S
C986 N987 1.317 . S
C986 N988 1.348 1_565 S
C986 C989 1.485 . S
N987 C986 1.317 . S
N987 N991 1.359 1_565 S
N988 C986 1.348 1_545 S
N988 C990 1.346 . S
C989 C986 1.485 . S
C989 H993 0.960 . S
C989 H994 0.964 1_565 S
C989 H995 0.960 . S
C990 N988 1.346 . S
C990 N991 1.325 . S
C990 C992 1.486 . S
N991 N987 1.359 1_545 S
N991 C990 1.325 . S
C992 C990 1.486 . S
C992 H996 0.960 . S
C992 H997 0.960 . S
C992 H998 0.959 . S
H993 C989 0.960 . S
H994 C989 0.964 1_545 S
H995 C989 0.960 . S
H996 C992 0.960 . S
H997 C992 0.960 . S
H998 C992 0.959 . S
C999 N1000 1.317 . S
C999 N1001 1.348 . S
C999 C1002 1.485 . S
N1000 C999 1.317 . S
N1000 N1004 1.370 1_556 S
N1001 C999 1.348 . S
N1001 C1003 1.346 1_556 S
C1002 C999 1.485 . S
C1002 H1006 0.960 . S
C1002 H1007 0.961 . S
C1002 H1008 0.960 . S
C1003 N1001 1.346 1_554 S
C1003 N1004 1.307 . S
C1003 C1005 1.486 . S
N1004 N1000 1.370 1_554 S
N1004 C1003 1.307 . S
C1005 C1003 1.486 . S
C1005 H1009 0.960 . S
C1005 H1010 0.960 . S
C1005 H1011 0.959 . S
H1006 C1002 0.960 . S
H1007 C1002 0.961 . S
H1008 C1002 0.960 . S
H1009 C1005 0.960 . S
H1010 C1005 0.960 . S
H1011 C1005 0.959 . S
C1012 N1013 1.317 . S
C1012 N1014 1.348 . S
C1012 C1015 1.485 . S
N1013 C1012 1.317 . S
N1013 N1017 1.370 . S
N1014 C1012 1.348 . S
N1014 C1016 1.346 . S
C1015 C1012 1.485 . S
C1015 H1019 0.960 . S
C1015 H1020 0.961 . S
C1015 H1021 0.960 . S
C1016 N1014 1.346 . S
C1016 N1017 1.307 . S
C1016 C1018 1.486 . S
N1017 N1013 1.370 . S
N1017 C1016 1.307 . S
C1018 C1016 1.486 . S
C1018 H1022 0.960 . S
C1018 H1023 0.960 . S
C1018 H1024 0.959 . S
H1019 C1015 0.960 . S
H1020 C1015 0.961 . S
H1021 C1015 0.960 . S
H1022 C1018 0.960 . S
H1023 C1018 0.960 . S
H1024 C1018 0.959 . S
C1025 N1026 1.317 . S
C1025 N1027 1.348 . S
C1025 C1028 1.485 . S
N1026 C1025 1.317 . S
N1026 N1030 1.370 1_655 S
N1027 C1025 1.348 . S
N1027 C1029 1.346 1_655 S
C1028 C1025 1.485 . S
C1028 H1032 0.960 . S
C1028 H1033 0.961 . S
C1028 H1034 0.960 . S
C1029 N1027 1.346 1_455 S
C1029 N1030 1.307 . S
C1029 C1031 1.486 . S
N1030 N1026 1.370 1_455 S
N1030 C1029 1.307 . S
C1031 C1029 1.486 . S
C1031 H1035 0.960 . S
C1031 H1036 0.960 . S
C1031 H1037 0.959 . S
H1032 C1028 0.960 . S
H1033 C1028 0.961 . S
H1034 C1028 0.960 . S
H1035 C1031 0.960 . S
H1036 C1031 0.960 . S
H1037 C1031 0.959 . S
C1038 N1039 1.317 . S
C1038 N1040 1.348 . S
C1038 C1041 1.485 . S
N1039 C1038 1.317 . S
N1039 N1043 1.370 1_455 S
N1040 C1038 1.348 . S
N1040 C1042 1.346 1_455 S
C1041 C1038 1.485 . S
C1041 H1045 0.960 . S
C1041 H1046 0.961 . S
C1041 H1047 0.960 . S
C1042 N1040 1.346 1_655 S
C1042 N1043 1.307 . S
C1042 C1044 1.486 . S
N1043 N1039 1.370 1_655 S
N1043 C1042 1.307 . S
C1044 C1042 1.486 . S
C1044 H1048 0.960 . S
C1044 H1049 0.960 . S
C1044 H1050 0.959 . S
H1045 C1041 0.960 . S
H1046 C1041 0.961 . S
H1047 C1041 0.960 . S
H1048 C1044 0.960 . S
H1049 C1044 0.960 . S
H1050 C1044 0.959 . S
C1051 N1052 1.317 . S
C1051 N1053 1.348 1_556 S
C1051 C1054 1.485 . S
N1052 C1051 1.317 . S
N1052 N1056 1.359 1_556 S
N1053 C1051 1.348 1_554 S
N1053 C1055 1.346 . S
C1054 C1051 1.485 . S
C1054 H1058 0.960 . S
C1054 H1059 0.964 1_556 S
C1054 H1060 0.960 . S
C1055 N1053 1.346 . S
C1055 N1056 1.325 . S
C1055 C1057 1.486 . S
N1056 N1052 1.359 1_554 S
N1056 C1055 1.325 . S
C1057 C1055 1.486 . S
C1057 H1061 0.960 . S
C1057 H1062 0.960 . S
C1057 H1063 0.959 . S
H1058 C1054 0.960 . S
H1059 C1054 0.964 1_554 S
H1060 C1054 0.960 . S
H1061 C1057 0.960 . S
H1062 C1057 0.960 . S
H1063 C1057 0.959 . S
C1064 N1065 1.317 . S
C1064 N1066 1.348 . S
C1064 C1067 1.485 . S
N1065 C1064 1.317 . S
N1065 N1069 1.370 . S
N1066 C1064 1.348 . S
N1066 C1068 1.346 . S
C1067 C1064 1.485 . S
C1067 H1071 0.960 . S
C1067 H1072 0.961 . S
C1067 H1073 0.960 . S
C1068 N1066 1.346 . S
C1068 N1069 1.307 . S
C1068 C1070 1.486 . S
N1069 N1065 1.370 . S
N1069 C1068 1.307 . S
C1070 C1068 1.486 . S
C1070 H1074 0.960 . S
C1070 H1075 0.960 . S
C1070 H1076 0.959 . S
H1071 C1067 0.960 . S
H1072 C1067 0.961 . S
H1073 C1067 0.960 . S
H1074 C1070 0.960 . S
H1075 C1070 0.960 . S
H1076 C1070 0.959 . S
C1077 N1078 1.317 . S
C1077 N1079 1.348 . S
C1077 C1080 1.485 . S
N1078 C1077 1.317 . S
N1078 N1082 1.370 1_565 S
N1079 C1077 1.348 . S
N1079 C1081 1.346 1_565 S
C1080 C1077 1.485 . S
C1080 H1084 0.960 . S
C1080 H1085 0.961 . S
C1080 H1086 0.960 . S
C1081 N1079 1.346 1_545 S
C1081 N1082 1.307 . S
C1081 C1083 1.486 . S
N1082 N1078 1.370 1_545 S
N1082 C1081 1.307 . S
C1083 C1081 1.486 . S
C1083 H1087 0.960 . S
C1083 H1088 0.960 . S
C1083 H1089 0.959 . S
H1084 C1080 0.960 . S
H1085 C1080 0.961 . S
H1086 C1080 0.960 . S
H1087 C1083 0.960 . S
H1088 C1083 0.960 . S
H1089 C1083 0.959 . S
C1090 N1091 1.317 . S
C1090 N1092 1.348 . S
C1090 C1093 1.485 . S
N1091 C1090 1.317 . S
N1091 N1095 1.370 1_545 S
N1092 C1090 1.348 . S
N1092 C1094 1.346 1_545 S
C1093 C1090 1.485 . S
C1093 H1097 0.960 . S
C1093 H1098 0.961 . S
C1093 H1099 0.960 . S
C1094 N1092 1.346 1_565 S
C1094 N1095 1.307 . S
C1094 C1096 1.486 . S
N1095 N1091 1.370 1_565 S
N1095 C1094 1.307 . S
C1096 C1094 1.486 . S
C1096 H1100 0.960 . S
C1096 H1101 0.960 . S
C1096 H1102 0.959 . S
H1097 C1093 0.960 . S
H1098 C1093 0.961 . S
H1099 C1093 0.960 . S
H1100 C1096 0.960 . S
H1101 C1096 0.960 . S
H1102 C1096 0.959 . S
C1103 N1104 1.317 . S
C1103 N1105 1.348 1_655 S
C1103 C1106 1.485 . S
N1104 C1103 1.317 . S
N1104 N1108 1.359 1_655 S
N1105 C1103 1.348 1_455 S
N1105 C1107 1.346 . S
C1106 C1103 1.485 . S
C1106 H1110 0.960 . S
C1106 H1111 0.964 1_655 S
C1106 H1112 0.960 . S
C1107 N1105 1.346 . S
C1107 N1108 1.325 . S
C1107 C1109 1.486 . S
N1108 N1104 1.359 1_455 S
N1108 C1107 1.325 . S
C1109 C1107 1.486 . S
C1109 H1113 0.960 . S
C1109 H1114 0.960 . S
C1109 H1115 0.959 . S
H1110 C1106 0.960 . S
H1111 C1106 0.964 1_455 S
H1112 C1106 0.960 . S
H1113 C1109 0.960 . S
H1114 C1109 0.960 . S
H1115 C1109 0.959 . S
C1116 N1117 1.317 . S
C1116 N1118 1.348 . S
C1116 C1119 1.485 . S
N1117 C1116 1.317 . S
N1117 N1121 1.370 . S
N1118 C1116 1.348 . S
N1118 C1120 1.346 . S
C1119 C1116 1.485 . S
C1119 H1123 0.960 . S
C1119 H1124 0.961 . S
C1119 H1125 0.960 . S
C1120 N1118 1.346 . S
C1120 N1121 1.307 . S
C1120 C1122 1.486 . S
N1121 N1117 1.370 . S
N1121 C1120 1.307 . S
C1122 C1120 1.486 . S
C1122 H1126 0.960 . S
C1122 H1127 0.960 . S
C1122 H1128 0.959 . S
H1123 C1119 0.960 . S
H1124 C1119 0.961 . S
H1125 C1119 0.960 . S
H1126 C1122 0.960 . S
H1127 C1122 0.960 . S
H1128 C1122 0.959 . S
C1129 N1130 1.317 . S
C1129 N1131 1.348 . S
C1129 C1132 1.485 . S
N1130 C1129 1.317 . S
N1130 N1134 1.370 1_556 S
N1131 C1129 1.348 . S
N1131 C1133 1.346 1_556 S
C1132 C1129 1.485 . S
C1132 H1136 0.960 . S
C1132 H1137 0.961 . S
C1132 H1138 0.960 . S
C1133 N1131 1.346 1_554 S
C1133 N1134 1.307 . S
C1133 C1135 1.486 . S
N1134 N1130 1.370 1_554 S
N1134 C1133 1.307 . S
C1135 C1133 1.486 . S
C1135 H1139 0.960 . S
C1135 H1140 0.960 . S
C1135 H1141 0.959 . S
H1136 C1132 0.960 . S
H1137 C1132 0.961 . S
H1138 C1132 0.960 . S
H1139 C1135 0.960 . S
H1140 C1135 0.960 . S
H1141 C1135 0.959 . S
C1142 N1143 1.317 . S
C1142 N1144 1.348 1_545 S
C1142 C1145 1.485 . S
N1143 C1142 1.317 . S
N1143 N1147 1.362 1_545 S
N1144 C1142 1.348 1_565 S
N1144 C1146 1.346 . S
C1145 C1142 1.485 . S
C1145 H1149 0.960 . S
C1145 H1150 0.961 . S
C1145 H1151 0.960 . S
C1146 N1144 1.346 . S
C1146 N1147 1.320 . S
C1146 C1148 1.486 . S
N1147 N1143 1.362 1_565 S
N1147 C1146 1.320 . S
C1148 C1146 1.486 . S
C1148 H1152 0.960 . S
C1148 H1153 0.960 . S
C1148 H1154 0.959 . S
H1149 C1145 0.960 . S
H1150 C1145 0.961 . S
H1151 C1145 0.960 . S
H1152 C1148 0.960 . S
H1153 C1148 0.960 . S
H1154 C1148 0.959 . S
C1155 N1156 1.317 . S
C1155 N1157 1.348 . S
C1155 C1158 1.485 . S
N1156 C1155 1.317 . S
N1156 N1160 1.370 1_554 S
N1157 C1155 1.348 . S
N1157 C1159 1.346 1_554 S
C1158 C1155 1.485 . S
C1158 H1162 0.960 . S
C1158 H1163 0.961 . S
C1158 H1164 0.960 . S
C1159 N1157 1.346 1_556 S
C1159 N1160 1.307 . S
C1159 C1161 1.486 . S
N1160 N1156 1.370 1_556 S
N1160 C1159 1.307 . S
C1161 C1159 1.486 . S
C1161 H1165 0.960 . S
C1161 H1166 0.960 . S
C1161 H1167 0.959 . S
H1162 C1158 0.960 . S
H1163 C1158 0.961 . S
H1164 C1158 0.960 . S
H1165 C1161 0.960 . S
H1166 C1161 0.960 . S
H1167 C1161 0.959 . S
C1168 N1169 1.317 . S
C1168 N1170 1.348 . S
C1168 C1171 1.485 . S
N1169 C1168 1.317 . S
N1169 N1173 1.370 . S
N1170 C1168 1.348 . S
N1170 C1172 1.346 . S
C1171 C1168 1.485 . S
C1171 H1175 0.960 . S
C1171 H1176 0.961 . S
C1171 H1177 0.960 . S
C1172 N1170 1.346 . S
C1172 N1173 1.307 . S
C1172 C1174 1.486 . S
N1173 N1169 1.370 . S
N1173 C1172 1.307 . S
C1174 C1172 1.486 . S
C1174 H1178 0.960 . S
C1174 H1179 0.960 . S
C1174 H1180 0.959 . S
H1175 C1171 0.960 . S
H1176 C1171 0.961 . S
H1177 C1171 0.960 . S
H1178 C1174 0.960 . S
H1179 C1174 0.960 . S
H1180 C1174 0.959 . S
C1181 N1182 1.317 . S
C1181 N1183 1.348 . S
C1181 C1184 1.485 . S
N1182 C1181 1.317 . S
N1182 N1186 1.370 1_455 S
N1183 C1181 1.348 . S
N1183 C1185 1.346 1_455 S
C1184 C1181 1.485 . S
C1184 H1188 0.960 . S
C1184 H1189 0.961 . S
C1184 H1190 0.960 . S
C1185 N1183 1.346 1_655 S
C1185 N1186 1.307 . S
C1185 C1187 1.486 . S
N1186 N1182 1.370 1_655 S
N1186 C1185 1.307 . S
C1187 C1185 1.486 . S
C1187 H1191 0.960 . S
C1187 H1192 0.960 . S
C1187 H1193 0.959 . S
H1188 C1184 0.960 . S
H1189 C1184 0.961 . S
H1190 C1184 0.960 . S
H1191 C1187 0.960 . S
H1192 C1187 0.960 . S
H1193 C1187 0.959 . S
C1194 N1195 1.317 . S
C1194 N1196 1.348 . S
C1194 C1197 1.485 . S
N1195 C1194 1.317 . S
N1195 N1199 1.370 1_655 S
N1196 C1194 1.348 . S
N1196 C1198 1.346 1_655 S
C1197 C1194 1.485 . S
C1197 H1201 0.960 . S
C1197 H1202 0.961 . S
C1197 H1203 0.960 . S
C1198 N1196 1.346 1_455 S
C1198 N1199 1.307 . S
C1198 C1200 1.486 . S
N1199 N1195 1.370 1_455 S
N1199 C1198 1.307 . S
C1200 C1198 1.486 . S
C1200 H1204 0.960 . S
C1200 H1205 0.960 . S
C1200 H1206 0.959 . S
H1201 C1197 0.960 . S
H1202 C1197 0.961 . S
H1203 C1197 0.960 . S
H1204 C1200 0.960 . S
H1205 C1200 0.960 . S
H1206 C1200 0.959 . S
C1207 N1208 1.317 . S
C1207 N1209 1.348 1_554 S
C1207 C1210 1.485 . S
N1208 C1207 1.317 . S
N1208 N1212 1.362 1_554 S
N1209 C1207 1.348 1_556 S
N1209 C1211 1.346 . S
C1210 C1207 1.485 . S
C1210 H1214 0.960 . S
C1210 H1215 0.961 . S
C1210 H1216 0.960 . S
C1211 N1209 1.346 . S
C1211 N1212 1.320 . S
C1211 C1213 1.486 . S
N1212 N1208 1.362 1_556 S
N1212 C1211 1.320 . S
C1213 C1211 1.486 . S
C1213 H1217 0.960 . S
C1213 H1218 0.960 . S
C1213 H1219 0.959 . S
H1214 C1210 0.960 . S
H1215 C1210 0.961 . S
H1216 C1210 0.960 . S
H1217 C1213 0.960 . S
H1218 C1213 0.960 . S
H1219 C1213 0.959 . S
C1220 N1221 1.317 . S
C1220 N1222 1.348 . S
C1220 C1223 1.485 . S
N1221 C1220 1.317 . S
N1221 N1225 1.370 . S
N1222 C1220 1.348 . S
N1222 C1224 1.346 . S
C1223 C1220 1.485 . S
C1223 H1227 0.960 . S
C1223 H1228 0.961 . S
C1223 H1229 0.960 . S
C1224 N1222 1.346 . S
C1224 N1225 1.307 . S
C1224 C1226 1.486 . S
N1225 N1221 1.370 . S
N1225 C1224 1.307 . S
C1226 C1224 1.486 . S
C1226 H1230 0.960 . S
C1226 H1231 0.960 . S
C1226 H1232 0.959 . S
H1227 C1223 0.960 . S
H1228 C1223 0.961 . S
H1229 C1223 0.960 . S
H1230 C1226 0.960 . S
H1231 C1226 0.960 . S
H1232 C1226 0.959 . S
C1233 N1234 1.317 . S
C1233 N1235 1.348 . S
C1233 C1236 1.485 . S
N1234 C1233 1.317 . S
N1234 N1238 1.370 1_545 S
N1235 C1233 1.348 . S
N1235 C1237 1.346 1_545 S
C1236 C1233 1.485 . S
C1236 H1240 0.960 . S
C1236 H1241 0.961 . S
C1236 H1242 0.960 . S
C1237 N1235 1.346 1_565 S
C1237 N1238 1.307 . S
C1237 C1239 1.486 . S
N1238 N1234 1.370 1_565 S
N1238 C1237 1.307 . S
C1239 C1237 1.486 . S
C1239 H1243 0.960 . S
C1239 H1244 0.960 . S
C1239 H1245 0.959 . S
H1240 C1236 0.960 . S
H1241 C1236 0.961 . S
H1242 C1236 0.960 . S
H1243 C1239 0.960 . S
H1244 C1239 0.960 . S
H1245 C1239 0.959 . S
C1246 N1247 1.317 . S
C1246 N1248 1.348 . S
C1246 C1249 1.485 . S
N1247 C1246 1.317 . S
N1247 N1251 1.370 1_565 S
N1248 C1246 1.348 . S
N1248 C1250 1.346 1_565 S
C1249 C1246 1.485 . S
C1249 H1253 0.960 . S
C1249 H1254 0.961 . S
C1249 H1255 0.960 . S
C1250 N1248 1.346 1_545 S
C1250 N1251 1.307 . S
C1250 C1252 1.486 . S
N1251 N1247 1.370 1_545 S
N1251 C1250 1.307 . S
C1252 C1250 1.486 . S
C1252 H1256 0.960 . S
C1252 H1257 0.960 . S
C1252 H1258 0.959 . S
H1253 C1249 0.960 . S
H1254 C1249 0.961 . S
H1255 C1249 0.960 . S
H1256 C1252 0.960 . S
H1257 C1252 0.960 . S
H1258 C1252 0.959 . S
C1259 N1260 1.317 . S
C1259 N1261 1.348 1_455 S
C1259 C1262 1.485 . S
N1260 C1259 1.317 . S
N1260 N1264 1.362 1_455 S
N1261 C1259 1.348 1_655 S
N1261 C1263 1.346 . S
C1262 C1259 1.485 . S
C1262 H1266 0.960 . S
C1262 H1267 0.961 . S
C1262 H1268 0.960 . S
C1263 N1261 1.346 . S
C1263 N1264 1.320 . S
C1263 C1265 1.486 . S
N1264 N1260 1.362 1_655 S
N1264 C1263 1.320 . S
C1265 C1263 1.486 . S
C1265 H1269 0.960 . S
C1265 H1270 0.960 . S
C1265 H1271 0.959 . S
H1266 C1262 0.960 . S
H1267 C1262 0.961 . S
H1268 C1262 0.960 . S
H1269 C1265 0.960 . S
H1270 C1265 0.960 . S
H1271 C1265 0.959 . S
C1272 C1273 1.391 . S
C1272 C1274 1.394 . S
C1272 H1288 0.931 . S
C1273 C1272 1.391 . S
C1273 C1277 1.376 . S
C1274 C1272 1.394 . S
C1274 C1275 1.369 . S
C1274 C1278 1.531 . S
C1275 C1274 1.369 . S
C1275 C1276 1.410 . S
C1275 C1283 1.503 . S
C1276 C1275 1.410 . S
C1276 C1277 1.392 . S
C1276 C1279 1.511 . S
C1277 C1273 1.376 . S
C1277 C1276 1.392 . S
C1277 H1289 0.929 . S
C1278 C1274 1.531 . S
C1278 H1290 0.960 . S
C1278 H1291 0.962 . S
C1278 H1292 0.960 . S
C1279 C1276 1.511 . S
C1279 H1293 0.961 . S
C1279 H1294 0.961 . S
C1279 H1295 0.961 . S
C1280 C1281 1.370 . S
C1280 C1282 1.363 . S
C1280 H1296 0.931 . S
C1281 C1280 1.370 . S
C1281 C1285 1.408 . S
C1282 C1280 1.363 . S
C1282 C1283 1.370 . S
C1282 C1286 1.524 . S
C1283 C1275 1.503 . S
C1283 C1282 1.370 . S
C1283 C1284 1.403 . S
C1284 C1283 1.403 . S
C1284 C1285 1.404 . S
C1284 C1287 1.539 . S
C1285 C1281 1.408 . S
C1285 C1284 1.404 . S
C1285 H1297 0.930 . S
C1286 C1282 1.524 . S
C1286 H1298 0.956 . S
C1286 H1299 0.961 . S
C1286 H1300 0.961 . S
C1287 C1284 1.539 . S
C1287 H1301 0.958 . S
C1287 H1302 0.961 . S
C1287 H1303 0.960 . S
H1288 C1272 0.931 . S
H1289 C1277 0.929 . S
H1290 C1278 0.960 . S
H1291 C1278 0.962 . S
H1292 C1278 0.960 . S
H1293 C1279 0.961 . S
H1294 C1279 0.961 . S
H1295 C1279 0.961 . S
H1296 C1280 0.931 . S
H1297 C1285 0.930 . S
H1298 C1286 0.956 . S
H1299 C1286 0.961 . S
H1300 C1286 0.961 . S
H1301 C1287 0.958 . S
H1302 C1287 0.961 . S
H1303 C1287 0.960 . S
C1304 C1305 1.391 . S
C1304 C1306 1.394 . S
C1304 H1320 0.931 . S
C1305 C1304 1.391 . S
C1305 C1309 1.376 . S
C1306 C1304 1.394 . S
C1306 C1307 1.369 . S
C1306 C1310 1.531 . S
C1307 C1306 1.369 . S
C1307 C1308 1.410 . S
C1307 C1315 1.503 . S
C1308 C1307 1.410 . S
C1308 C1309 1.392 . S
C1308 C1311 1.511 . S
C1309 C1305 1.376 . S
C1309 C1308 1.392 . S
C1309 H1321 0.929 . S
C1310 C1306 1.531 . S
C1310 H1322 0.960 . S
C1310 H1323 0.962 . S
C1310 H1324 0.960 . S
C1311 C1308 1.511 . S
C1311 H1325 0.961 . S
C1311 H1326 0.961 . S
C1311 H1327 0.961 . S
C1312 C1313 1.370 . S
C1312 C1314 1.363 . S
C1312 H1328 0.931 . S
C1313 C1312 1.370 . S
C1313 C1317 1.408 . S
C1314 C1312 1.363 . S
C1314 C1315 1.370 . S
C1314 C1318 1.524 . S
C1315 C1307 1.503 . S
C1315 C1314 1.370 . S
C1315 C1316 1.403 . S
C1316 C1315 1.403 . S
C1316 C1317 1.404 . S
C1316 C1319 1.539 . S
C1317 C1313 1.408 . S
C1317 C1316 1.404 . S
C1317 H1329 0.930 . S
C1318 C1314 1.524 . S
C1318 H1330 0.956 . S
C1318 H1331 0.961 . S
C1318 H1332 0.961 . S
C1319 C1316 1.539 . S
C1319 H1333 0.958 . S
C1319 H1334 0.961 . S
C1319 H1335 0.960 . S
H1320 C1304 0.931 . S
H1321 C1309 0.929 . S
H1322 C1310 0.960 . S
H1323 C1310 0.962 . S
H1324 C1310 0.960 . S
H1325 C1311 0.961 . S
H1326 C1311 0.961 . S
H1327 C1311 0.961 . S
H1328 C1312 0.931 . S
H1329 C1317 0.930 . S
H1330 C1318 0.956 . S
H1331 C1318 0.961 . S
H1332 C1318 0.961 . S
H1333 C1319 0.958 . S
H1334 C1319 0.961 . S
H1335 C1319 0.960 . S
C1336 C1337 1.391 1_565 S
C1336 C1338 1.394 . S
C1336 H1352 0.931 . S
C1337 C1336 1.391 1_545 S
C1337 C1341 1.376 . S
C1338 C1336 1.394 . S
C1338 C1339 1.366 . S
C1338 C1342 1.531 . S
C1339 C1338 1.366 . S
C1339 C1340 1.412 1_565 S
C1339 C1347 1.503 . S
C1340 C1339 1.412 1_545 S
C1340 C1341 1.392 . S
C1340 C1343 1.511 . S
C1341 C1337 1.376 . S
C1341 C1340 1.392 . S
C1341 H1353 0.929 . S
C1342 C1338 1.531 . S
C1342 H1354 0.960 . S
C1342 H1355 0.962 . S
C1342 H1356 0.960 . S
C1343 C1340 1.511 . S
C1343 H1357 0.961 . S
C1343 H1358 0.961 . S
C1343 H1359 0.961 . S
C1344 C1345 1.370 . S
C1344 C1346 1.363 . S
C1344 H1360 0.931 . S
C1345 C1344 1.370 . S
C1345 C1349 1.408 1_565 S
C1346 C1344 1.363 . S
C1346 C1347 1.370 . S
C1346 C1350 1.524 . S
C1347 C1339 1.503 . S
C1347 C1346 1.370 . S
C1347 C1348 1.403 1_565 S
C1348 C1347 1.403 1_545 S
C1348 C1349 1.404 . S
C1348 C1351 1.539 . S
C1349 C1345 1.408 1_545 S
C1349 C1348 1.404 . S
C1349 H1361 0.930 . S
C1350 C1346 1.524 . S
C1350 H1362 0.956 . S
C1350 H1363 0.961 . S
C1350 H1364 0.961 . S
C1351 C1348 1.539 . S
C1351 H1365 0.958 . S
C1351 H1366 0.961 . S
C1351 H1367 0.960 . S
H1352 C1336 0.931 . S
H1353 C1341 0.929 . S
H1354 C1342 0.960 . S
H1355 C1342 0.962 . S
H1356 C1342 0.960 . S
H1357 C1343 0.961 . S
H1358 C1343 0.961 . S
H1359 C1343 0.961 . S
H1360 C1344 0.931 . S
H1361 C1349 0.930 . S
H1362 C1350 0.956 . S
H1363 C1350 0.961 . S
H1364 C1350 0.961 . S
H1365 C1351 0.958 . S
H1366 C1351 0.961 . S
H1367 C1351 0.960 . S
C1368 C1369 1.391 . S
C1368 C1370 1.394 . S
C1368 H1384 0.931 . S
C1369 C1368 1.391 . S
C1369 C1373 1.376 . S
C1370 C1368 1.394 . S
C1370 C1371 1.369 1_655 S
C1370 C1374 1.531 1_645 S
C1371 C1370 1.369 1_455 S
C1371 C1372 1.410 . S
C1371 C1379 1.503 . S
C1372 C1371 1.410 . S
C1372 C1373 1.392 1_455 S
C1372 C1375 1.511 . S
C1373 C1369 1.376 . S
C1373 C1372 1.392 1_655 S
C1373 H1385 0.929 . S
C1374 C1370 1.531 1_465 S
C1374 H1386 0.960 1_565 S
C1374 H1387 0.962 . S
C1374 H1388 0.960 1_455 S
C1375 C1372 1.511 . S
C1375 H1389 0.961 . S
C1375 H1390 0.961 . S
C1375 H1391 0.961 . S
C1376 C1377 1.370 1_565 S
C1376 C1378 1.365 . S
C1376 H1392 0.931 . S
C1377 C1376 1.370 1_545 S
C1377 C1381 1.408 . S
C1378 C1376 1.365 . S
C1378 C1379 1.364 1_565 S
C1378 C1382 1.529 . S
C1379 C1371 1.503 . S
C1379 C1378 1.364 1_545 S
C1379 C1380 1.403 . S
C1380 C1379 1.403 . S
C1380 C1381 1.404 . S
C1380 C1383 1.539 . S
C1381 C1377 1.408 . S
C1381 C1380 1.404 . S
C1381 H1393 0.930 . S
C1382 C1378 1.529 . S
C1382 H1394 0.956 . S
C1382 H1395 0.961 . S
C1382 H1396 0.961 . S
C1383 C1380 1.539 . S
C1383 H1397 0.958 . S
C1383 H1398 0.961 . S
C1383 H1399 0.960 . S
H1384 C1368 0.931 . S
H1385 C1373 0.929 . S
H1386 C1374 0.960 1_545 S
H1387 C1374 0.962 . S
H1388 C1374 0.960 1_655 S
H1389 C1375 0.961 . S
H1390 C1375 0.961 . S
H1391 C1375 0.961 . S
H1392 C1376 0.931 . S
H1393 C1381 0.930 . S
H1394 C1382 0.956 . S
H1395 C1382 0.961 . S
H1396 C1382 0.961 . S
H1397 C1383 0.958 . S
H1398 C1383 0.961 . S
H1399 C1383 0.960 . S
C1400 C1401 1.391 . S
C1400 C1402 1.394 . S
C1400 H1416 0.931 . S
C1401 C1400 1.391 . S
C1401 C1405 1.376 . S
C1402 C1400 1.394 . S
C1402 C1403 1.369 . S
C1402 C1406 1.531 . S
C1403 C1402 1.369 . S
C1403 C1404 1.410 . S
C1403 C1411 1.503 . S
C1404 C1403 1.410 . S
C1404 C1405 1.392 . S
C1404 C1407 1.511 . S
C1405 C1401 1.376 . S
C1405 C1404 1.392 . S
C1405 H1417 0.929 . S
C1406 C1402 1.531 . S
C1406 H1418 0.960 . S
C1406 H1419 0.962 . S
C1406 H1420 0.960 . S
C1407 C1404 1.511 . S
C1407 H1421 0.961 . S
C1407 H1422 0.961 . S
C1407 H1423 0.961 . S
C1408 C1409 1.370 . S
C1408 C1410 1.363 . S
C1408 H1424 0.931 . S
C1409 C1408 1.370 . S
C1409 C1413 1.408 . S
C1410 C1408 1.363 . S
C1410 C1411 1.370 . S
C1410 C1414 1.524 . S
C1411 C1403 1.503 . S
C1411 C1410 1.370 . S
C1411 C1412 1.403 . S
C1412 C1411 1.403 . S
C1412 C1413 1.404 . S
C1412 C1415 1.539 . S
C1413 C1409 1.408 . S
C1413 C1412 1.404 . S
C1413 H1425 0.930 . S
C1414 C1410 1.524 . S
C1414 H1426 0.956 . S
C1414 H1427 0.961 . S
C1414 H1428 0.961 . S
C1415 C1412 1.539 . S
C1415 H1429 0.958 . S
C1415 H1430 0.961 . S
C1415 H1431 0.960 . S
H1416 C1400 0.931 . S
H1417 C1405 0.929 . S
H1418 C1406 0.960 . S
H1419 C1406 0.962 . S
H1420 C1406 0.960 . S
H1421 C1407 0.961 . S
H1422 C1407 0.961 . S
H1423 C1407 0.961 . S
H1424 C1408 0.931 . S
H1425 C1413 0.930 . S
H1426 C1414 0.956 . S
H1427 C1414 0.961 . S
H1428 C1414 0.961 . S
H1429 C1415 0.958 . S
H1430 C1415 0.961 . S
H1431 C1415 0.960 . S
C1432 C1433 1.391 1_556 S
C1432 C1434 1.413 . S
C1432 H1448 0.931 . S
C1433 C1432 1.391 1_554 S
C1433 C1437 1.376 . S
C1434 C1432 1.413 . S
C1434 C1435 1.358 1_566 S
C1434 C1438 1.522 1_565 S
C1435 C1434 1.358 1_544 S
C1435 C1436 1.410 . S
C1435 C1443 1.503 . S
C1436 C1435 1.410 . S
C1436 C1437 1.392 1_545 S
C1436 C1439 1.511 . S
C1437 C1433 1.376 . S
C1437 C1436 1.392 1_565 S
C1437 H1449 0.929 . S
C1438 C1434 1.522 1_545 S
C1438 H1450 0.960 . S
C1438 H1451 0.962 . S
C1438 H1452 0.960 1_545 S
C1439 C1436 1.511 . S
C1439 H1453 0.961 . S
C1439 H1454 0.961 . S
C1439 H1455 0.961 . S
C1440 C1441 1.370 . S
C1440 C1442 1.363 . S
C1440 H1456 0.931 . S
C1441 C1440 1.370 . S
C1441 C1445 1.408 . S
C1442 C1440 1.363 . S
C1442 C1443 1.370 . S
C1442 C1446 1.524 . S
C1443 C1435 1.503 . S
C1443 C1442 1.370 . S
C1443 C1444 1.403 . S
C1444 C1443 1.403 . S
C1444 C1445 1.404 . S
C1444 C1447 1.539 . S
C1445 C1441 1.408 . S
C1445 C1444 1.404 . S
C1445 H1457 0.930 . S
C1446 C1442 1.524 . S
C1446 H1458 0.956 . S
C1446 H1459 0.961 . S
C1446 H1460 0.961 . S
C1447 C1444 1.539 . S
C1447 H1461 0.958 1_554 S
C1447 H1462 0.961 . S
C1447 H1463 0.960 . S
H1448 C1432 0.931 . S
H1449 C1437 0.929 . S
H1450 C1438 0.960 . S
H1451 C1438 0.962 . S
H1452 C1438 0.960 1_565 S
H1453 C1439 0.961 . S
H1454 C1439 0.961 . S
H1455 C1439 0.961 . S
H1456 C1440 0.931 . S
H1457 C1445 0.930 . S
H1458 C1446 0.956 . S
H1459 C1446 0.961 . S
H1460 C1446 0.961 . S
H1461 C1447 0.958 1_556 S
H1462 C1447 0.961 . S
H1463 C1447 0.960 . S
C1464 C1465 1.391 . S
C1464 C1466 1.394 . S
C1464 H1480 0.931 . S
C1465 C1464 1.391 . S
C1465 C1469 1.376 . S
C1466 C1464 1.394 . S
C1466 C1467 1.369 . S
C1466 C1470 1.531 . S
C1467 C1466 1.369 . S
C1467 C1468 1.410 . S
C1467 C1475 1.503 . S
C1468 C1467 1.410 . S
C1468 C1469 1.392 . S
C1468 C1471 1.511 . S
C1469 C1465 1.376 . S
C1469 C1468 1.392 . S
C1469 H1481 0.929 . S
C1470 C1466 1.531 . S
C1470 H1482 0.960 . S
C1470 H1483 0.962 . S
C1470 H1484 0.960 . S
C1471 C1468 1.511 . S
C1471 H1485 0.961 . S
C1471 H1486 0.961 . S
C1471 H1487 0.961 . S
C1472 C1473 1.370 . S
C1472 C1474 1.363 . S
C1472 H1488 0.931 . S
C1473 C1472 1.370 . S
C1473 C1477 1.408 . S
C1474 C1472 1.363 . S
C1474 C1475 1.370 . S
C1474 C1478 1.524 . S
C1475 C1467 1.503 . S
C1475 C1474 1.370 . S
C1475 C1476 1.403 . S
C1476 C1475 1.403 . S
C1476 C1477 1.404 . S
C1476 C1479 1.539 . S
C1477 C1473 1.408 . S
C1477 C1476 1.404 . S
C1477 H1489 0.930 . S
C1478 C1474 1.524 . S
C1478 H1490 0.956 . S
C1478 H1491 0.961 . S
C1478 H1492 0.961 . S
C1479 C1476 1.539 . S
C1479 H1493 0.958 . S
C1479 H1494 0.961 . S
C1479 H1495 0.960 . S
H1480 C1464 0.931 . S
H1481 C1469 0.929 . S
H1482 C1470 0.960 . S
H1483 C1470 0.962 . S
H1484 C1470 0.960 . S
H1485 C1471 0.961 . S
H1486 C1471 0.961 . S
H1487 C1471 0.961 . S
H1488 C1472 0.931 . S
H1489 C1477 0.930 . S
H1490 C1478 0.956 . S
H1491 C1478 0.961 . S
H1492 C1478 0.961 . S
H1493 C1479 0.958 . S
H1494 C1479 0.961 . S
H1495 C1479 0.960 . S
C1496 C1497 1.423 . S
C1496 C1498 1.394 . S
C1496 H1512 0.931 . S
C1497 C1496 1.423 . S
C1497 C1501 1.349 1_556 S
C1498 C1496 1.394 . S
C1498 C1499 1.369 . S
C1498 C1502 1.531 . S
C1499 C1498 1.369 . S
C1499 C1500 1.410 1_556 S
C1499 C1507 1.503 . S
C1500 C1499 1.410 1_554 S
C1500 C1501 1.392 . S
C1500 C1503 1.511 . S
C1501 C1497 1.349 1_554 S
C1501 C1500 1.392 . S
C1501 H1513 0.929 . S
C1502 C1498 1.531 . S
C1502 H1514 0.960 . S
C1502 H1515 0.962 . S
C1502 H1516 0.960 . S
C1503 C1500 1.511 . S
C1503 H1517 0.961 . S
C1503 H1518 0.961 . S
C1503 H1519 0.961 . S
C1504 C1505 1.377 . S
C1504 C1506 1.363 1_556 S
C1504 H1520 0.924 1_556 S
C1505 C1504 1.377 . S
C1505 C1509 1.408 . S
C1506 C1504 1.363 1_554 S
C1506 C1507 1.370 1_554 S
C1506 C1510 1.524 . S
C1507 C1499 1.503 . S
C1507 C1506 1.370 1_556 S
C1507 C1508 1.403 . S
C1508 C1507 1.403 . S
C1508 C1509 1.404 . S
C1508 C1511 1.539 . S
C1509 C1505 1.408 . S
C1509 C1508 1.404 . S
C1509 H1521 0.930 . S
C1510 C1506 1.524 . S
C1510 H1522 0.956 . S
C1510 H1523 0.961 . S
C1510 H1524 0.961 . S
C1511 C1508 1.539 . S
C1511 H1525 0.958 . S
C1511 H1526 0.961 . S
C1511 H1527 0.960 . S
H1512 C1496 0.931 . S
H1513 C1501 0.929 . S
H1514 C1502 0.960 . S
H1515 C1502 0.962 . S
H1516 C1502 0.960 . S
H1517 C1503 0.961 . S
H1518 C1503 0.961 . S
H1519 C1503 0.961 . S
H1520 C1504 0.924 1_554 S
H1521 C1509 0.930 . S
H1522 C1510 0.956 . S
H1523 C1510 0.961 . S
H1524 C1510 0.961 . S
H1525 C1511 0.958 . S
H1526 C1511 0.961 . S
H1527 C1511 0.960 . S
C1528 C1529 1.391 . S
C1528 C1530 1.394 . S
C1528 H1544 0.931 . S
C1529 C1528 1.391 . S
C1529 C1533 1.376 . S
C1530 C1528 1.394 . S
C1530 C1531 1.369 . S
C1530 C1534 1.531 . S
C1531 C1530 1.369 . S
C1531 C1532 1.410 . S
C1531 C1539 1.503 . S
C1532 C1531 1.410 . S
C1532 C1533 1.392 . S
C1532 C1535 1.511 . S
C1533 C1529 1.376 . S
C1533 C1532 1.392 . S
C1533 H1545 0.929 . S
C1534 C1530 1.531 . S
C1534 H1546 0.960 . S
C1534 H1547 0.962 . S
C1534 H1548 0.960 . S
C1535 C1532 1.511 . S
C1535 H1549 0.961 . S
C1535 H1550 0.961 . S
C1535 H1551 0.961 . S
C1536 C1537 1.370 . S
C1536 C1538 1.363 . S
C1536 H1552 0.931 . S
C1537 C1536 1.370 . S
C1537 C1541 1.408 . S
C1538 C1536 1.363 . S
C1538 C1539 1.370 . S
C1538 C1542 1.524 . S
C1539 C1531 1.503 . S
C1539 C1538 1.370 . S
C1539 C1540 1.403 . S
C1540 C1539 1.403 . S
C1540 C1541 1.404 . S
C1540 C1543 1.539 . S
C1541 C1537 1.408 . S
C1541 C1540 1.404 . S
C1541 H1553 0.930 . S
C1542 C1538 1.524 . S
C1542 H1554 0.956 . S
C1542 H1555 0.961 . S
C1542 H1556 0.961 . S
C1543 C1540 1.539 . S
C1543 H1557 0.958 . S
C1543 H1558 0.961 . S
C1543 H1559 0.960 . S
H1544 C1528 0.931 . S
H1545 C1533 0.929 . S
H1546 C1534 0.960 . S
H1547 C1534 0.962 . S
H1548 C1534 0.960 . S
H1549 C1535 0.961 . S
H1550 C1535 0.961 . S
H1551 C1535 0.961 . S
H1552 C1536 0.931 . S
H1553 C1541 0.930 . S
H1554 C1542 0.956 . S
H1555 C1542 0.961 . S
H1556 C1542 0.961 . S
H1557 C1543 0.958 . S
H1558 C1543 0.961 . S
H1559 C1543 0.960 . S
C1560 C1561 1.391 . S
C1560 C1562 1.394 1_556 S
C1560 H1576 0.931 . S
C1561 C1560 1.391 . S
C1561 C1565 1.376 . S
C1562 C1560 1.394 1_554 S
C1562 C1563 1.369 . S
C1562 C1566 1.531 . S
C1563 C1562 1.369 . S
C1563 C1564 1.410 1_454 S
C1563 C1571 1.503 . S
C1564 C1563 1.410 1_656 S
C1564 C1565 1.392 1_655 S
C1564 C1567 1.511 1_556 S
C1565 C1561 1.376 . S
C1565 C1564 1.392 1_455 S
C1565 H1577 0.929 1_455 S
C1566 C1562 1.531 . S
C1566 H1578 0.960 . S
C1566 H1579 0.962 . S
C1566 H1580 0.960 . S
C1567 C1564 1.511 1_554 S
C1567 H1581 0.961 1_554 S
C1567 H1582 0.961 . S
C1567 H1583 0.961 . S
C1568 C1569 1.370 . S
C1568 C1570 1.363 . S
C1568 H1584 0.931 . S
C1569 C1568 1.370 . S
C1569 C1573 1.408 1_455 S
C1570 C1568 1.363 . S
C1570 C1571 1.370 . S
C1570 C1574 1.524 . S
C1571 C1563 1.503 . S
C1571 C1570 1.370 . S
C1571 C1572 1.403 1_455 S
C1572 C1571 1.403 1_655 S
C1572 C1573 1.404 . S
C1572 C1575 1.539 . S
C1573 C1569 1.408 1_655 S
C1573 C1572 1.404 . S
C1573 H1585 0.930 . S
C1574 C1570 1.524 . S
C1574 H1586 0.956 . S
C1574 H1587 0.961 . S
C1574 H1588 0.961 . S
C1575 C1572 1.539 . S
C1575 H1589 0.958 . S
C1575 H1590 0.961 . S
C1575 H1591 0.960 . S
H1576 C1560 0.931 . S
H1577 C1565 0.929 1_655 S
H1578 C1566 0.960 . S
H1579 C1566 0.962 . S
H1580 C1566 0.960 . S
H1581 C1567 0.961 1_556 S
H1582 C1567 0.961 . S
H1583 C1567 0.961 . S
H1584 C1568 0.931 . S
H1585 C1573 0.930 . S
H1586 C1574 0.956 . S
H1587 C1574 0.961 . S
H1588 C1574 0.961 . S
H1589 C1575 0.958 . S
H1590 C1575 0.961 . S
H1591 C1575 0.960 . S
C1592 C1593 1.391 . S
C1592 C1594 1.394 . S
C1592 H1608 0.931 . S
C1593 C1592 1.391 . S
C1593 C1597 1.376 . S
C1594 C1592 1.394 . S
C1594 C1595 1.369 . S
C1594 C1598 1.531 . S
C1595 C1594 1.369 . S
C1595 C1596 1.410 . S
C1595 C1603 1.503 . S
C1596 C1595 1.410 . S
C1596 C1597 1.392 . S
C1596 C1599 1.511 . S
C1597 C1593 1.376 . S
C1597 C1596 1.392 . S
C1597 H1609 0.929 . S
C1598 C1594 1.531 . S
C1598 H1610 0.960 . S
C1598 H1611 0.962 . S
C1598 H1612 0.960 . S
C1599 C1596 1.511 . S
C1599 H1613 0.961 . S
C1599 H1614 0.961 . S
C1599 H1615 0.961 . S
C1600 C1601 1.370 . S
C1600 C1602 1.363 . S
C1600 H1616 0.931 . S
C1601 C1600 1.370 . S
C1601 C1605 1.408 . S
C1602 C1600 1.363 . S
C1602 C1603 1.370 . S
C1602 C1606 1.524 . S
C1603 C1595 1.503 . S
C1603 C1602 1.370 . S
C1603 C1604 1.403 . S
C1604 C1603 1.403 . S
C1604 C1605 1.404 . S
C1604 C1607 1.539 . S
C1605 C1601 1.408 . S
C1605 C1604 1.404 . S
C1605 H1617 0.930 . S
C1606 C1602 1.524 . S
C1606 H1618 0.956 . S
C1606 H1619 0.961 . S
C1606 H1620 0.961 . S
C1607 C1604 1.539 . S
C1607 H1621 0.958 . S
C1607 H1622 0.961 . S
C1607 H1623 0.960 . S
H1608 C1592 0.931 . S
H1609 C1597 0.929 . S
H1610 C1598 0.960 . S
H1611 C1598 0.962 . S
H1612 C1598 0.960 . S
H1613 C1599 0.961 . S
H1614 C1599 0.961 . S
H1615 C1599 0.961 . S
H1616 C1600 0.931 . S
H1617 C1605 0.930 . S
H1618 C1606 0.956 . S
H1619 C1606 0.961 . S
H1620 C1606 0.961 . S
H1621 C1607 0.958 . S
H1622 C1607 0.961 . S
H1623 C1607 0.960 . S
C1624 C1625 1.376 1_655 S
C1624 C1626 1.394 . S
C1624 H1640 0.931 . S
C1625 C1624 1.376 1_455 S
C1625 C1629 1.391 . S
C1626 C1624 1.394 . S
C1626 C1627 1.369 . S
C1626 C1630 1.531 . S
C1627 C1626 1.369 . S
C1627 C1628 1.410 1_655 S
C1627 C1635 1.503 . S
C1628 C1627 1.410 1_455 S
C1628 C1629 1.392 . S
C1628 C1631 1.511 . S
C1629 C1625 1.391 . S
C1629 C1628 1.392 . S
C1629 H1641 0.929 . S
C1630 C1626 1.531 . S
C1630 H1642 0.960 . S
C1630 H1643 0.962 . S
C1630 H1644 0.960 . S
C1631 C1628 1.511 . S
C1631 H1645 0.961 . S
C1631 H1646 0.961 . S
C1631 H1647 0.961 . S
C1632 C1633 1.370 . S
C1632 C1634 1.363 . S
C1632 H1648 0.931 . S
C1633 C1632 1.370 . S
C1633 C1637 1.408 . S
C1634 C1632 1.363 . S
C1634 C1635 1.370 . S
C1634 C1638 1.524 . S
C1635 C1627 1.503 . S
C1635 C1634 1.370 . S
C1635 C1636 1.403 . S
C1636 C1635 1.403 . S
C1636 C1637 1.404 . S
C1636 C1639 1.539 . S
C1637 C1633 1.408 . S
C1637 C1636 1.404 . S
C1637 H1649 0.930 . S
C1638 C1634 1.524 . S
C1638 H1650 0.956 . S
C1638 H1651 0.961 1_655 S
C1638 H1652 0.961 . S
C1639 C1636 1.539 . S
C1639 H1653 0.958 . S
C1639 H1654 0.961 1_655 S
C1639 H1655 0.960 1_655 S
H1640 C1624 0.931 . S
H1641 C1629 0.929 . S
H1642 C1630 0.960 . S
H1643 C1630 0.962 . S
H1644 C1630 0.960 . S
H1645 C1631 0.961 . S
H1646 C1631 0.961 . S
H1647 C1631 0.961 . S
H1648 C1632 0.931 . S
H1649 C1637 0.930 . S
H1650 C1638 0.956 . S
H1651 C1638 0.961 1_455 S
H1652 C1638 0.961 . S
H1653 C1639 0.958 . S
H1654 C1639 0.961 1_455 S
H1655 C1639 0.960 1_455 S
C1656 C1657 1.391 . S
C1656 C1658 1.394 . S
C1656 H1672 0.931 . S
C1657 C1656 1.391 . S
C1657 C1661 1.376 . S
C1658 C1656 1.394 . S
C1658 C1659 1.369 . S
C1658 C1662 1.531 . S
C1659 C1658 1.369 . S
C1659 C1660 1.410 . S
C1659 C1667 1.503 . S
C1660 C1659 1.410 . S
C1660 C1661 1.392 . S
C1660 C1663 1.511 . S
C1661 C1657 1.376 . S
C1661 C1660 1.392 . S
C1661 H1673 0.929 . S
C1662 C1658 1.531 . S
C1662 H1674 0.960 . S
C1662 H1675 0.962 . S
C1662 H1676 0.960 . S
C1663 C1660 1.511 . S
C1663 H1677 0.961 . S
C1663 H1678 0.961 . S
C1663 H1679 0.961 . S
C1664 C1665 1.370 . S
C1664 C1666 1.363 . S
C1664 H1680 0.931 . S
C1665 C1664 1.370 . S
C1665 C1669 1.408 . S
C1666 C1664 1.363 . S
C1666 C1667 1.370 . S
C1666 C1670 1.524 . S
C1667 C1659 1.503 . S
C1667 C1666 1.370 . S
C1667 C1668 1.403 . S
C1668 C1667 1.403 . S
C1668 C1669 1.404 . S
C1668 C1671 1.539 . S
C1669 C1665 1.408 . S
C1669 C1668 1.404 . S
C1669 H1681 0.930 . S
C1670 C1666 1.524 . S
C1670 H1682 0.956 . S
C1670 H1683 0.961 . S
C1670 H1684 0.961 . S
C1671 C1668 1.539 . S
C1671 H1685 0.958 . S
C1671 H1686 0.961 . S
C1671 H1687 0.960 . S
H1672 C1656 0.931 . S
H1673 C1661 0.929 . S
H1674 C1662 0.960 . S
H1675 C1662 0.962 . S
H1676 C1662 0.960 . S
H1677 C1663 0.961 . S
H1678 C1663 0.961 . S
H1679 C1663 0.961 . S
H1680 C1664 0.931 . S
H1681 C1669 0.930 . S
H1682 C1670 0.956 . S
H1683 C1670 0.961 . S
H1684 C1670 0.961 . S
H1685 C1671 0.958 . S
H1686 C1671 0.961 . S
H1687 C1671 0.960 . S
C1688 C1689 1.391 . S
C1688 C1690 1.394 . S
C1688 H1704 0.931 . S
C1689 C1688 1.391 . S
C1689 C1693 1.376 . S
C1690 C1688 1.394 . S
C1690 C1691 1.369 . S
C1690 C1694 1.531 . S
C1691 C1690 1.369 . S
C1691 C1692 1.410 . S
C1691 C1699 1.503 . S
C1692 C1691 1.410 . S
C1692 C1693 1.392 . S
C1692 C1695 1.511 . S
C1693 C1689 1.376 . S
C1693 C1692 1.392 . S
C1693 H1705 0.929 . S
C1694 C1690 1.531 . S
C1694 H1706 0.960 . S
C1694 H1707 0.962 . S
C1694 H1708 0.960 . S
C1695 C1692 1.511 . S
C1695 H1709 0.961 . S
C1695 H1710 0.961 . S
C1695 H1711 0.961 . S
C1696 C1697 1.370 . S
C1696 C1698 1.363 . S
C1696 H1712 0.931 . S
C1697 C1696 1.370 . S
C1697 C1701 1.408 . S
C1698 C1696 1.363 . S
C1698 C1699 1.370 . S
C1698 C1702 1.524 . S
C1699 C1691 1.503 . S
C1699 C1698 1.370 . S
C1699 C1700 1.403 . S
C1700 C1699 1.403 . S
C1700 C1701 1.404 . S
C1700 C1703 1.539 . S
C1701 C1697 1.408 . S
C1701 C1700 1.404 . S
C1701 H1713 0.930 . S
C1702 C1698 1.524 . S
C1702 H1714 0.956 . S
C1702 H1715 0.961 . S
C1702 H1716 0.961 . S
C1703 C1700 1.539 . S
C1703 H1717 0.958 . S
C1703 H1718 0.961 . S
C1703 H1719 0.960 . S
H1704 C1688 0.931 . S
H1705 C1693 0.929 . S
H1706 C1694 0.960 . S
H1707 C1694 0.962 . S
H1708 C1694 0.960 . S
H1709 C1695 0.961 . S
H1710 C1695 0.961 . S
H1711 C1695 0.961 . S
H1712 C1696 0.931 . S
H1713 C1701 0.930 . S
H1714 C1702 0.956 . S
H1715 C1702 0.961 . S
H1716 C1702 0.961 . S
H1717 C1703 0.958 . S
H1718 C1703 0.961 . S
H1719 C1703 0.960 . S
C1720 C1721 1.422 . S
C1720 C1722 1.394 . S
C1720 H1736 0.931 . S
C1721 C1720 1.422 . S
C1721 C1725 1.348 1_545 S
C1722 C1720 1.394 . S
C1722 C1723 1.369 . S
C1722 C1726 1.531 . S
C1723 C1722 1.369 . S
C1723 C1724 1.410 1_545 S
C1723 C1731 1.503 . S
C1724 C1723 1.410 1_565 S
C1724 C1725 1.392 . S
C1724 C1727 1.511 . S
C1725 C1721 1.348 1_565 S
C1725 C1724 1.392 . S
C1725 H1737 0.929 . S
C1726 C1722 1.531 . S
C1726 H1738 0.960 . S
C1726 H1739 0.962 . S
C1726 H1740 0.960 . S
C1727 C1724 1.511 . S
C1727 H1741 0.961 . S
C1727 H1742 0.961 . S
C1727 H1743 0.961 . S
C1728 C1729 1.370 . S
C1728 C1730 1.363 1_545 S
C1728 H1744 0.931 1_545 S
C1729 C1728 1.370 . S
C1729 C1733 1.408 . S
C1730 C1728 1.363 1_565 S
C1730 C1731 1.370 1_565 S
C1730 C1734 1.524 . S
C1731 C1723 1.503 . S
C1731 C1730 1.370 1_545 S
C1731 C1732 1.403 . S
C1732 C1731 1.403 . S
C1732 C1733 1.404 . S
C1732 C1735 1.539 . S
C1733 C1729 1.408 . S
C1733 C1732 1.404 . S
C1733 H1745 0.930 . S
C1734 C1730 1.524 . S
C1734 H1746 0.986 . S
C1734 H1747 0.961 . S
C1734 H1748 0.961 . S
C1735 C1732 1.539 . S
C1735 H1749 0.958 . S
C1735 H1750 0.961 . S
C1735 H1751 0.960 . S
H1736 C1720 0.931 . S
H1737 C1725 0.929 . S
H1738 C1726 0.960 . S
H1739 C1726 0.962 . S
H1740 C1726 0.960 . S
H1741 C1727 0.961 . S
H1742 C1727 0.961 . S
H1743 C1727 0.961 . S
H1744 C1728 0.931 1_565 S
H1745 C1733 0.930 . S
H1746 C1734 0.986 . S
H1747 C1734 0.961 . S
H1748 C1734 0.961 . S
H1749 C1735 0.958 . S
H1750 C1735 0.961 . S
H1751 C1735 0.960 . S
C1752 C1753 1.391 . S
C1752 C1754 1.394 1_455 S
C1752 H1768 0.931 . S
C1753 C1752 1.391 . S
C1753 C1757 1.376 . S
C1754 C1752 1.394 1_655 S
C1754 C1755 1.369 . S
C1754 C1758 1.531 . S
C1755 C1754 1.369 . S
C1755 C1756 1.411 . S
C1755 C1763 1.503 . S
C1756 C1755 1.411 . S
C1756 C1757 1.390 1_655 S
C1756 C1759 1.512 . S
C1757 C1753 1.376 . S
C1757 C1756 1.390 1_455 S
C1757 H1769 0.929 . S
C1758 C1754 1.531 . S
C1758 H1770 0.960 . S
C1758 H1771 0.962 . S
C1758 H1772 0.960 . S
C1759 C1756 1.512 . S
C1759 H1773 0.961 1_655 S
C1759 H1774 0.961 . S
C1759 H1775 0.961 . S
C1760 C1761 1.370 1_545 S
C1760 C1762 1.363 . S
C1760 H1776 0.931 . S
C1761 C1760 1.370 1_565 S
C1761 C1765 1.408 . S
C1762 C1760 1.363 . S
C1762 C1763 1.370 1_545 S
C1762 C1766 1.524 . S
C1763 C1755 1.503 . S
C1763 C1762 1.370 1_565 S
C1763 C1764 1.403 . S
C1764 C1763 1.403 . S
C1764 C1765 1.404 . S
C1764 C1767 1.539 . S
C1765 C1761 1.408 . S
C1765 C1764 1.404 . S
C1765 H1777 0.930 . S
C1766 C1762 1.524 . S
C1766 H1778 0.956 . S
C1766 H1779 0.961 . S
C1766 H1780 0.961 . S
C1767 C1764 1.539 . S
C1767 H1781 0.958 . S
C1767 H1782 0.961 . S
C1767 H1783 0.960 . S
H1768 C1752 0.931 . S
H1769 C1757 0.929 . S
H1770 C1758 0.960 . S
H1771 C1758 0.962 . S
H1772 C1758 0.960 . S
H1773 C1759 0.961 1_455 S
H1774 C1759 0.961 . S
H1775 C1759 0.961 . S
H1776 C1760 0.931 . S
H1777 C1765 0.930 . S
H1778 C1766 0.956 . S
H1779 C1766 0.961 . S
H1780 C1766 0.961 . S
H1781 C1767 0.958 . S
H1782 C1767 0.961 . S
H1783 C1767 0.960 . S
C1784 C1785 1.391 . S
C1784 C1786 1.394 . S
C1784 H1800 0.931 . S
C1785 C1784 1.391 . S
C1785 C1789 1.376 . S
C1786 C1784 1.394 . S
C1786 C1787 1.369 . S
C1786 C1790 1.531 . S
C1787 C1786 1.369 . S
C1787 C1788 1.410 . S
C1787 C1795 1.503 . S
C1788 C1787 1.410 . S
C1788 C1789 1.392 . S
C1788 C1791 1.511 . S
C1789 C1785 1.376 . S
C1789 C1788 1.392 . S
C1789 H1801 0.929 . S
C1790 C1786 1.531 . S
C1790 H1802 0.960 . S
C1790 H1803 0.962 . S
C1790 H1804 0.960 . S
C1791 C1788 1.511 . S
C1791 H1805 0.961 . S
C1791 H1806 0.961 . S
C1791 H1807 0.961 . S
C1792 C1793 1.370 . S
C1792 C1794 1.363 . S
C1792 H1808 0.931 . S
C1793 C1792 1.370 . S
C1793 C1797 1.408 . S
C1794 C1792 1.363 . S
C1794 C1795 1.370 . S
C1794 C1798 1.524 . S
C1795 C1787 1.503 . S
C1795 C1794 1.370 . S
C1795 C1796 1.403 . S
C1796 C1795 1.403 . S
C1796 C1797 1.404 . S
C1796 C1799 1.539 . S
C1797 C1793 1.408 . S
C1797 C1796 1.404 . S
C1797 H1809 0.930 . S
C1798 C1794 1.524 . S
C1798 H1810 0.956 . S
C1798 H1811 0.961 . S
C1798 H1812 0.961 . S
C1799 C1796 1.539 . S
C1799 H1813 0.958 . S
C1799 H1814 0.961 . S
C1799 H1815 0.960 . S
H1800 C1784 0.931 . S
H1801 C1789 0.929 . S
H1802 C1790 0.960 . S
H1803 C1790 0.962 . S
H1804 C1790 0.960 . S
H1805 C1791 0.961 . S
H1806 C1791 0.961 . S
H1807 C1791 0.961 . S
H1808 C1792 0.931 . S
H1809 C1797 0.930 . S
H1810 C1798 0.956 . S
H1811 C1798 0.961 . S
H1812 C1798 0.961 . S
H1813 C1799 0.958 . S
H1814 C1799 0.961 . S
H1815 C1799 0.960 . S
C1816 C1817 1.391 . S
C1816 C1818 1.394 . S
C1816 H1832 0.919 1_556 S
C1817 C1816 1.391 . S
C1817 C1821 1.376 . S
C1818 C1816 1.394 . S
C1818 C1819 1.369 1_545 S
C1818 C1822 1.531 1_546 S
C1819 C1818 1.369 1_565 S
C1819 C1820 1.410 . S
C1819 C1827 1.503 . S
C1820 C1819 1.410 . S
C1820 C1821 1.392 1_565 S
C1820 C1823 1.511 . S
C1821 C1817 1.376 . S
C1821 C1820 1.392 1_545 S
C1821 H1833 0.929 . S
C1822 C1818 1.531 1_564 S
C1822 H1834 0.960 . S
C1822 H1835 0.962 . S
C1822 H1836 0.960 1_565 S
C1823 C1820 1.511 . S
C1823 H1837 0.961 . S
C1823 H1838 0.961 . S
C1823 H1839 0.961 . S
C1824 C1825 1.370 . S
C1824 C1826 1.363 . S
C1824 H1840 0.931 . S
C1825 C1824 1.370 . S
C1825 C1829 1.408 1_556 S
C1826 C1824 1.363 . S
C1826 C1827 1.370 . S
C1826 C1830 1.524 . S
C1827 C1819 1.503 . S
C1827 C1826 1.370 . S
C1827 C1828 1.403 1_556 S
C1828 C1827 1.403 1_554 S
C1828 C1829 1.404 . S
C1828 C1831 1.539 . S
C1829 C1825 1.408 1_554 S
C1829 C1828 1.404 . S
C1829 H1841 0.930 . S
C1830 C1826 1.524 . S
C1830 H1842 0.956 . S
C1830 H1843 0.961 . S
C1830 H1844 0.961 . S
C1831 C1828 1.539 . S
C1831 H1845 0.958 . S
C1831 H1846 0.961 . S
C1831 H1847 0.960 . S
H1832 C1816 0.919 1_554 S
H1833 C1821 0.929 . S
H1834 C1822 0.960 . S
H1835 C1822 0.962 . S
H1836 C1822 0.960 1_545 S
H1837 C1823 0.961 . S
H1838 C1823 0.961 . S
H1839 C1823 0.961 . S
H1840 C1824 0.931 . S
H1841 C1829 0.930 . S
H1842 C1830 0.956 . S
H1843 C1830 0.961 . S
H1844 C1830 0.961 . S
H1845 C1831 0.958 . S
H1846 C1831 0.961 . S
H1847 C1831 0.960 . S
C1848 C1849 1.391 . S
C1848 C1850 1.394 . S
C1848 H1864 0.931 . S
C1849 C1848 1.391 . S
C1849 C1853 1.376 . S
C1850 C1848 1.394 . S
C1850 C1851 1.369 . S
C1850 C1854 1.531 . S
C1851 C1850 1.369 . S
C1851 C1852 1.410 . S
C1851 C1859 1.503 . S
C1852 C1851 1.410 . S
C1852 C1853 1.392 . S
C1852 C1855 1.511 . S
C1853 C1849 1.376 . S
C1853 C1852 1.392 . S
C1853 H1865 0.929 . S
C1854 C1850 1.531 . S
C1854 H1866 0.960 . S
C1854 H1867 0.962 . S
C1854 H1868 0.960 . S
C1855 C1852 1.511 . S
C1855 H1869 0.961 . S
C1855 H1870 0.961 . S
C1855 H1871 0.961 . S
C1856 C1857 1.370 . S
C1856 C1858 1.363 . S
C1856 H1872 0.931 . S
C1857 C1856 1.370 . S
C1857 C1861 1.408 . S
C1858 C1856 1.363 . S
C1858 C1859 1.370 . S
C1858 C1862 1.524 . S
C1859 C1851 1.503 . S
C1859 C1858 1.370 . S
C1859 C1860 1.403 . S
C1860 C1859 1.403 . S
C1860 C1861 1.404 . S
C1860 C1863 1.539 . S
C1861 C1857 1.408 . S
C1861 C1860 1.404 . S
C1861 H1873 0.930 . S
C1862 C1858 1.524 . S
C1862 H1874 0.956 . S
C1862 H1875 0.961 . S
C1862 H1876 0.961 . S
C1863 C1860 1.539 . S
C1863 H1877 0.958 . S
C1863 H1878 0.961 . S
C1863 H1879 0.960 . S
H1864 C1848 0.931 . S
H1865 C1853 0.929 . S
H1866 C1854 0.960 . S
H1867 C1854 0.962 . S
H1868 C1854 0.960 . S
H1869 C1855 0.961 . S
H1870 C1855 0.961 . S
H1871 C1855 0.961 . S
H1872 C1856 0.931 . S
H1873 C1861 0.930 . S
H1874 C1862 0.956 . S
H1875 C1862 0.961 . S
H1876 C1862 0.961 . S
H1877 C1863 0.958 . S
H1878 C1863 0.961 . S
H1879 C1863 0.960 . S
C1880 C1881 1.373 1_554 S
C1880 C1882 1.394 . S
C1880 H1896 0.931 . S
C1881 C1880 1.373 1_556 S
C1881 C1885 1.394 . S
C1882 C1880 1.394 . S
C1882 C1883 1.369 . S
C1882 C1886 1.531 . S
C1883 C1882 1.369 . S
C1883 C1884 1.410 1_554 S
C1883 C1891 1.503 . S
C1884 C1883 1.410 1_556 S
C1884 C1885 1.392 . S
C1884 C1887 1.511 . S
C1885 C1881 1.394 . S
C1885 C1884 1.392 . S
C1885 H1897 0.929 . S
C1886 C1882 1.531 . S
C1886 H1898 0.960 . S
C1886 H1899 0.962 . S
C1886 H1900 0.960 . S
C1887 C1884 1.511 . S
C1887 H1901 0.961 . S
C1887 H1902 0.961 . S
C1887 H1903 0.961 . S
C1888 C1889 1.370 . S
C1888 C1890 1.363 . S
C1888 H1904 0.931 . S
C1889 C1888 1.370 . S
C1889 C1893 1.408 . S
C1890 C1888 1.363 . S
C1890 C1891 1.370 . S
C1890 C1894 1.524 . S
C1891 C1883 1.503 . S
C1891 C1890 1.370 . S
C1891 C1892 1.403 . S
C1892 C1891 1.403 . S
C1892 C1893 1.404 . S
C1892 C1895 1.541 . S
C1893 C1889 1.408 . S
C1893 C1892 1.404 . S
C1893 H1905 0.930 . S
C1894 C1890 1.524 . S
C1894 H1906 0.956 . S
C1894 H1907 0.961 1_554 S
C1894 H1908 0.961 . S
C1895 C1892 1.541 . S
C1895 H1909 0.962 . S
C1895 H1910 0.958 1_554 S
C1895 H1911 0.958 1_554 S
H1896 C1880 0.931 . S
H1897 C1885 0.929 . S
H1898 C1886 0.960 . S
H1899 C1886 0.962 . S
H1900 C1886 0.960 . S
H1901 C1887 0.961 . S
H1902 C1887 0.961 . S
H1903 C1887 0.961 . S
H1904 C1888 0.931 . S
H1905 C1893 0.930 . S
H1906 C1894 0.956 . S
H1907 C1894 0.961 1_556 S
H1908 C1894 0.961 . S
H1909 C1895 0.962 . S
H1910 C1895 0.958 1_556 S
H1911 C1895 0.958 1_556 S
C1912 C1913 1.391 . S
C1912 C1914 1.394 . S
C1912 H1928 0.931 . S
C1913 C1912 1.391 . S
C1913 C1917 1.376 . S
C1914 C1912 1.394 . S
C1914 C1915 1.369 . S
C1914 C1918 1.531 . S
C1915 C1914 1.369 . S
C1915 C1916 1.410 . S
C1915 C1923 1.503 . S
C1916 C1915 1.410 . S
C1916 C1917 1.392 . S
C1916 C1919 1.511 . S
C1917 C1913 1.376 . S
C1917 C1916 1.392 . S
C1917 H1929 0.929 . S
C1918 C1914 1.531 . S
C1918 H1930 0.960 . S
C1918 H1931 0.962 . S
C1918 H1932 0.960 . S
C1919 C1916 1.511 . S
C1919 H1933 0.961 . S
C1919 H1934 0.961 . S
C1919 H1935 0.961 . S
C1920 C1921 1.370 . S
C1920 C1922 1.363 . S
C1920 H1936 0.931 . S
C1921 C1920 1.370 . S
C1921 C1925 1.408 . S
C1922 C1920 1.363 . S
C1922 C1923 1.370 . S
C1922 C1926 1.524 . S
C1923 C1915 1.503 . S
C1923 C1922 1.370 . S
C1923 C1924 1.403 . S
C1924 C1923 1.403 . S
C1924 C1925 1.404 . S
C1924 C1927 1.539 . S
C1925 C1921 1.408 . S
C1925 C1924 1.404 . S
C1925 H1937 0.930 . S
C1926 C1922 1.524 . S
C1926 H1938 0.956 . S
C1926 H1939 0.961 . S
C1926 H1940 0.961 . S
C1927 C1924 1.539 . S
C1927 H1941 0.958 . S
C1927 H1942 0.961 . S
C1927 H1943 0.960 . S
H1928 C1912 0.931 . S
H1929 C1917 0.929 . S
H1930 C1918 0.960 . S
H1931 C1918 0.962 . S
H1932 C1918 0.960 . S
H1933 C1919 0.961 . S
H1934 C1919 0.961 . S
H1935 C1919 0.961 . S
H1936 C1920 0.931 . S
H1937 C1925 0.930 . S
H1938 C1926 0.956 . S
H1939 C1926 0.961 . S
H1940 C1926 0.961 . S
H1941 C1927 0.958 . S
H1942 C1927 0.961 . S
H1943 C1927 0.960 . S
C1944 C1945 1.391 . S
C1944 C1946 1.394 1_554 S
C1944 H1960 0.931 . S
C1945 C1944 1.391 . S
C1945 C1949 1.376 . S
C1946 C1944 1.394 1_556 S
C1946 C1947 1.369 . S
C1946 C1950 1.531 1_655 S
C1947 C1946 1.369 . S
C1947 C1948 1.410 . S
C1947 C1955 1.503 . S
C1948 C1947 1.410 . S
C1948 C1949 1.392 1_556 S
C1948 C1951 1.511 . S
C1949 C1945 1.376 . S
C1949 C1948 1.392 1_554 S
C1949 H1961 0.929 . S
C1950 C1946 1.531 1_455 S
C1950 H1962 0.960 1_455 S
C1950 H1963 0.962 . S
C1950 H1964 0.960 . S
C1951 C1948 1.511 . S
C1951 H1965 0.961 . S
C1951 H1966 0.961 . S
C1951 H1967 0.961 . S
C1952 C1953 1.370 1_455 S
C1952 C1954 1.363 . S
C1952 H1968 0.931 . S
C1953 C1952 1.370 1_655 S
C1953 C1957 1.408 . S
C1954 C1952 1.363 . S
C1954 C1955 1.371 1_455 S
C1954 C1958 1.524 . S
C1955 C1947 1.503 . S
C1955 C1954 1.371 1_655 S
C1955 C1956 1.403 . S
C1956 C1955 1.403 . S
C1956 C1957 1.404 . S
C1956 C1959 1.539 . S
C1957 C1953 1.408 . S
C1957 C1956 1.404 . S
C1957 H1969 0.930 . S
C1958 C1954 1.524 . S
C1958 H1970 0.956 . S
C1958 H1971 0.961 . S
C1958 H1972 0.961 . S
C1959 C1956 1.539 . S
C1959 H1973 0.958 . S
C1959 H1974 0.961 . S
C1959 H1975 0.960 . S
H1960 C1944 0.931 . S
H1961 C1949 0.929 . S
H1962 C1950 0.960 1_655 S
H1963 C1950 0.962 . S
H1964 C1950 0.960 . S
H1965 C1951 0.961 . S
H1966 C1951 0.961 . S
H1967 C1951 0.961 . S
H1968 C1952 0.931 . S
H1969 C1957 0.930 . S
H1970 C1958 0.956 . S
H1971 C1958 0.961 . S
H1972 C1958 0.961 . S
H1973 C1959 0.958 . S
H1974 C1959 0.961 . S
H1975 C1959 0.960 . S
C1976 C1977 1.391 . S
C1976 C1978 1.394 . S
C1976 H1992 0.931 . S
C1977 C1976 1.391 . S
C1977 C1981 1.376 . S
C1978 C1976 1.394 . S
C1978 C1979 1.369 . S
C1978 C1982 1.531 . S
C1979 C1978 1.369 . S
C1979 C1980 1.410 . S
C1979 C1987 1.503 . S
C1980 C1979 1.410 . S
C1980 C1981 1.392 . S
C1980 C1983 1.511 . S
C1981 C1977 1.376 . S
C1981 C1980 1.392 . S
C1981 H1993 0.929 . S
C1982 C1978 1.531 . S
C1982 H1994 0.960 . S
C1982 H1995 0.962 . S
C1982 H1996 0.960 . S
C1983 C1980 1.511 . S
C1983 H1997 0.961 . S
C1983 H1998 0.961 . S
C1983 H1999 0.961 . S
C1984 C1985 1.370 . S
C1984 C1986 1.363 . S
C1984 H2000 0.931 . S
C1985 C1984 1.370 . S
C1985 C1989 1.408 . S
C1986 C1984 1.363 . S
C1986 C1987 1.370 . S
C1986 C1990 1.524 . S
C1987 C1979 1.503 . S
C1987 C1986 1.370 . S
C1987 C1988 1.403 . S
C1988 C1987 1.403 . S
C1988 C1989 1.404 . S
C1988 C1991 1.539 . S
C1989 C1985 1.408 . S
C1989 C1988 1.404 . S
C1989 H2001 0.930 . S
C1990 C1986 1.524 . S
C1990 H2002 0.956 . S
C1990 H2003 0.961 . S
C1990 H2004 0.961 . S
C1991 C1988 1.539 . S
C1991 H2005 0.958 . S
C1991 H2006 0.961 . S
C1991 H2007 0.960 . S
H1992 C1976 0.931 . S
H1993 C1981 0.929 . S
H1994 C1982 0.960 . S
H1995 C1982 0.962 . S
H1996 C1982 0.960 . S
H1997 C1983 0.961 . S
H1998 C1983 0.961 . S
H1999 C1983 0.961 . S
H2000 C1984 0.931 . S
H2001 C1989 0.930 . S
H2002 C1990 0.956 . S
H2003 C1990 0.961 . S
H2004 C1990 0.961 . S
H2005 C1991 0.958 . S
H2006 C1991 0.961 . S
H2007 C1991 0.960 . S
C2008 C2009 1.391 . S
C2008 C2010 1.394 . S
C2008 H2024 0.931 . S
C2009 C2008 1.391 . S
C2009 C2013 1.376 1_455 S
C2010 C2008 1.394 . S
C2010 C2011 1.369 . S
C2010 C2014 1.531 . S
C2011 C2010 1.369 . S
C2011 C2012 1.410 1_455 S
C2011 C2019 1.503 . S
C2012 C2011 1.410 1_655 S
C2012 C2013 1.392 . S
C2012 C2015 1.511 . S
C2013 C2009 1.376 1_655 S
C2013 C2012 1.392 . S
C2013 H2025 0.929 . S
C2014 C2010 1.531 . S
C2014 H2026 0.960 . S
C2014 H2027 0.962 . S
C2014 H2028 0.960 . S
C2015 C2012 1.511 . S
C2015 H2029 0.961 . S
C2015 H2030 0.961 . S
C2015 H2031 0.961 . S
C2016 C2017 1.370 1_655 S
C2016 C2018 1.363 . S
C2016 H2032 0.931 . S
C2017 C2016 1.370 1_455 S
C2017 C2021 1.408 . S
C2018 C2016 1.363 . S
C2018 C2019 1.370 1_655 S
C2018 C2022 1.524 . S
C2019 C2011 1.503 . S
C2019 C2018 1.370 1_455 S
C2019 C2020 1.403 . S
C2020 C2019 1.403 . S
C2020 C2021 1.404 . S
C2020 C2023 1.539 . S
C2021 C2017 1.408 . S
C2021 C2020 1.404 . S
C2021 H2033 0.930 . S
C2022 C2018 1.524 . S
C2022 H2034 0.956 . S
C2022 H2035 0.961 . S
C2022 H2036 0.961 . S
C2023 C2020 1.539 . S
C2023 H2037 0.958 . S
C2023 H2038 0.961 . S
C2023 H2039 0.960 . S
H2024 C2008 0.931 . S
H2025 C2013 0.929 . S
H2026 C2014 0.960 . S
H2027 C2014 0.962 . S
H2028 C2014 0.960 . S
H2029 C2015 0.961 . S
H2030 C2015 0.961 . S
H2031 C2015 0.961 . S
H2032 C2016 0.931 . S
H2033 C2021 0.930 . S
H2034 C2022 0.956 . S
H2035 C2022 0.961 . S
H2036 C2022 0.961 . S
H2037 C2023 0.958 . S
H2038 C2023 0.961 . S
H2039 C2023 0.960 . S
C2040 C2041 1.391 . S
C2040 C2042 1.394 . S
C2040 H2056 0.931 . S
C2041 C2040 1.391 . S
C2041 C2045 1.376 . S
C2042 C2040 1.394 . S
C2042 C2043 1.369 . S
C2042 C2046 1.531 . S
C2043 C2042 1.369 . S
C2043 C2044 1.410 . S
C2043 C2051 1.503 . S
C2044 C2043 1.410 . S
C2044 C2045 1.392 . S
C2044 C2047 1.511 . S
C2045 C2041 1.376 . S
C2045 C2044 1.392 . S
C2045 H2057 0.929 . S
C2046 C2042 1.531 . S
C2046 H2058 0.960 . S
C2046 H2059 0.962 . S
C2046 H2060 0.960 . S
C2047 C2044 1.511 . S
C2047 H2061 0.961 . S
C2047 H2062 0.961 . S
C2047 H2063 0.961 . S
C2048 C2049 1.370 . S
C2048 C2050 1.363 . S
C2048 H2064 0.931 . S
C2049 C2048 1.370 . S
C2049 C2053 1.408 . S
C2050 C2048 1.363 . S
C2050 C2051 1.370 . S
C2050 C2054 1.524 . S
C2051 C2043 1.503 . S
C2051 C2050 1.370 . S
C2051 C2052 1.403 . S
C2052 C2051 1.403 . S
C2052 C2053 1.404 . S
C2052 C2055 1.539 . S
C2053 C2049 1.408 . S
C2053 C2052 1.404 . S
C2053 H2065 0.930 . S
C2054 C2050 1.524 . S
C2054 H2066 0.956 . S
C2054 H2067 0.961 . S
C2054 H2068 0.961 . S
C2055 C2052 1.539 . S
C2055 H2069 0.958 . S
C2055 H2070 0.961 . S
C2055 H2071 0.960 . S
H2056 C2040 0.931 . S
H2057 C2045 0.929 . S
H2058 C2046 0.960 . S
H2059 C2046 0.962 . S
H2060 C2046 0.960 . S
H2061 C2047 0.961 . S
H2062 C2047 0.961 . S
H2063 C2047 0.961 . S
H2064 C2048 0.931 . S
H2065 C2053 0.930 . S
H2066 C2054 0.956 . S
H2067 C2054 0.961 . S
H2068 C2054 0.961 . S
H2069 C2055 0.958 . S
H2070 C2055 0.961 . S
H2071 C2055 0.960 . S
C2072 C2073 1.391 . S
C2072 C2074 1.394 . S
C2072 H2088 0.931 . S
C2073 C2072 1.391 . S
C2073 C2077 1.376 . S
C2074 C2072 1.394 . S
C2074 C2075 1.369 . S
C2074 C2078 1.531 . S
C2075 C2074 1.369 . S
C2075 C2076 1.410 . S
C2075 C2083 1.503 . S
C2076 C2075 1.410 . S
C2076 C2077 1.392 . S
C2076 C2079 1.511 . S
C2077 C2073 1.376 . S
C2077 C2076 1.392 . S
C2077 H2089 0.929 . S
C2078 C2074 1.531 . S
C2078 H2090 0.960 . S
C2078 H2091 0.962 . S
C2078 H2092 0.960 . S
C2079 C2076 1.511 . S
C2079 H2093 0.961 . S
C2079 H2094 0.961 . S
C2079 H2095 0.961 . S
C2080 C2081 1.370 . S
C2080 C2082 1.363 . S
C2080 H2096 0.931 . S
C2081 C2080 1.370 . S
C2081 C2085 1.408 . S
C2082 C2080 1.363 . S
C2082 C2083 1.370 . S
C2082 C2086 1.524 . S
C2083 C2075 1.503 . S
C2083 C2082 1.370 . S
C2083 C2084 1.403 . S
C2084 C2083 1.403 . S
C2084 C2085 1.404 . S
C2084 C2087 1.539 1_556 S
C2085 C2081 1.408 . S
C2085 C2084 1.404 . S
C2085 H2097 0.930 1_556 S
C2086 C2082 1.524 . S
C2086 H2098 0.956 . S
C2086 H2099 0.961 . S
C2086 H2100 0.961 . S
C2087 C2084 1.539 1_554 S
C2087 H2101 0.958 . S
C2087 H2102 0.961 . S
C2087 H2103 0.960 . S
H2088 C2072 0.931 . S
H2089 C2077 0.929 . S
H2090 C2078 0.960 . S
H2091 C2078 0.962 . S
H2092 C2078 0.960 . S
H2093 C2079 0.961 . S
H2094 C2079 0.961 . S
H2095 C2079 0.961 . S
H2096 C2080 0.931 . S
H2097 C2085 0.930 1_554 S
H2098 C2086 0.956 . S
H2099 C2086 0.961 . S
H2100 C2086 0.961 . S
H2101 C2087 0.958 . S
H2102 C2087 0.961 . S
H2103 C2087 0.960 . S
C2104 C2105 1.391 . S
C2104 C2106 1.394 . S
C2104 H2120 0.931 . S
C2105 C2104 1.391 . S
C2105 C2109 1.364 1_565 S
C2106 C2104 1.394 . S
C2106 C2107 1.369 . S
C2106 C2110 1.531 . S
C2107 C2106 1.369 . S
C2107 C2108 1.410 . S
C2107 C2115 1.503 . S
C2108 C2107 1.410 . S
C2108 C2109 1.392 1_565 S
C2108 C2111 1.511 1_565 S
C2109 C2105 1.364 1_545 S
C2109 C2108 1.392 1_545 S
C2109 H2121 0.944 . S
C2110 C2106 1.531 . S
C2110 H2122 0.960 . S
C2110 H2123 0.962 . S
C2110 H2124 0.960 . S
C2111 C2108 1.511 1_545 S
C2111 H2125 0.961 . S
C2111 H2126 0.961 . S
C2111 H2127 0.961 1_545 S
C2112 C2113 1.370 1_545 S
C2112 C2114 1.363 . S
C2112 H2128 0.931 . S
C2113 C2112 1.370 1_565 S
C2113 C2117 1.408 . S
C2114 C2112 1.363 . S
C2114 C2115 1.370 1_545 S
C2114 C2118 1.524 . S
C2115 C2107 1.503 . S
C2115 C2114 1.370 1_565 S
C2115 C2116 1.403 . S
C2116 C2115 1.403 . S
C2116 C2117 1.404 . S
C2116 C2119 1.539 . S
C2117 C2113 1.408 . S
C2117 C2116 1.404 . S
C2117 H2129 0.930 . S
C2118 C2114 1.524 . S
C2118 H2130 0.956 . S
C2118 H2131 0.961 . S
C2118 H2132 0.961 . S
C2119 C2116 1.539 . S
C2119 H2133 0.958 . S
C2119 H2134 0.961 . S
C2119 H2135 0.960 . S
H2120 C2104 0.931 . S
H2121 C2109 0.944 . S
H2122 C2110 0.960 . S
H2123 C2110 0.962 . S
H2124 C2110 0.960 . S
H2125 C2111 0.961 . S
H2126 C2111 0.961 . S
H2127 C2111 0.961 1_565 S
H2128 C2112 0.931 . S
H2129 C2117 0.930 . S
H2130 C2118 0.956 . S
H2131 C2118 0.961 . S
H2132 C2118 0.961 . S
H2133 C2119 0.958 . S
H2134 C2119 0.961 . S
H2135 C2119 0.960 . S
C2136 C2137 1.391 . S
C2136 C2138 1.394 . S
C2136 H2152 0.931 . S
C2137 C2136 1.391 . S
C2137 C2141 1.376 . S
C2138 C2136 1.394 . S
C2138 C2139 1.369 . S
C2138 C2142 1.531 . S
C2139 C2138 1.369 . S
C2139 C2140 1.410 . S
C2139 C2147 1.503 . S
C2140 C2139 1.410 . S
C2140 C2141 1.392 . S
C2140 C2143 1.511 . S
C2141 C2137 1.376 . S
C2141 C2140 1.392 . S
C2141 H2153 0.929 . S
C2142 C2138 1.531 . S
C2142 H2154 0.960 . S
C2142 H2155 0.962 . S
C2142 H2156 0.960 . S
C2143 C2140 1.511 . S
C2143 H2157 0.961 . S
C2143 H2158 0.961 . S
C2143 H2159 0.961 . S
C2144 C2145 1.370 . S
C2144 C2146 1.363 . S
C2144 H2160 0.931 . S
C2145 C2144 1.370 . S
C2145 C2149 1.408 . S
C2146 C2144 1.363 . S
C2146 C2147 1.370 . S
C2146 C2150 1.524 . S
C2147 C2139 1.503 . S
C2147 C2146 1.370 . S
C2147 C2148 1.403 . S
C2148 C2147 1.403 . S
C2148 C2149 1.404 . S
C2148 C2151 1.539 . S
C2149 C2145 1.408 . S
C2149 C2148 1.404 . S
C2149 H2161 0.930 . S
C2150 C2146 1.524 . S
C2150 H2162 0.956 . S
C2150 H2163 0.961 . S
C2150 H2164 0.961 . S
C2151 C2148 1.539 . S
C2151 H2165 0.958 . S
C2151 H2166 0.961 . S
C2151 H2167 0.960 . S
H2152 C2136 0.931 . S
H2153 C2141 0.929 . S
H2154 C2142 0.960 . S
H2155 C2142 0.962 . S
H2156 C2142 0.960 . S
H2157 C2143 0.961 . S
H2158 C2143 0.961 . S
H2159 C2143 0.961 . S
H2160 C2144 0.931 . S
H2161 C2149 0.930 . S
H2162 C2150 0.956 . S
H2163 C2150 0.961 . S
H2164 C2150 0.961 . S
H2165 C2151 0.958 . S
H2166 C2151 0.961 . S
H2167 C2151 0.960 . S
C2168 C2169 1.391 . S
C2168 C2170 1.394 . S
C2168 H2184 0.931 . S
C2169 C2168 1.391 . S
C2169 C2173 1.376 . S
C2170 C2168 1.394 . S
C2170 C2171 1.369 . S
C2170 C2174 1.531 . S
C2171 C2170 1.369 . S
C2171 C2172 1.410 . S
C2171 C2179 1.503 . S
C2172 C2171 1.410 . S
C2172 C2173 1.392 . S
C2172 C2175 1.511 . S
C2173 C2169 1.376 . S
C2173 C2172 1.392 . S
C2173 H2185 0.929 . S
C2174 C2170 1.531 . S
C2174 H2186 0.960 . S
C2174 H2187 0.962 . S
C2174 H2188 0.960 . S
C2175 C2172 1.511 . S
C2175 H2189 0.961 . S
C2175 H2190 0.961 . S
C2175 H2191 0.961 . S
C2176 C2177 1.370 . S
C2176 C2178 1.363 . S
C2176 H2192 0.931 . S
C2177 C2176 1.370 . S
C2177 C2181 1.408 . S
C2178 C2176 1.363 . S
C2178 C2179 1.370 . S
C2178 C2182 1.524 . S
C2179 C2171 1.503 . S
C2179 C2178 1.370 . S
C2179 C2180 1.403 . S
C2180 C2179 1.403 . S
C2180 C2181 1.404 . S
C2180 C2183 1.539 . S
C2181 C2177 1.408 . S
C2181 C2180 1.404 . S
C2181 H2193 0.930 . S
C2182 C2178 1.524 . S
C2182 H2194 0.956 . S
C2182 H2195 0.961 . S
C2182 H2196 0.961 . S
C2183 C2180 1.539 . S
C2183 H2197 0.958 . S
C2183 H2198 0.961 . S
C2183 H2199 0.960 . S
H2184 C2168 0.931 . S
H2185 C2173 0.929 . S
H2186 C2174 0.960 . S
H2187 C2174 0.962 . S
H2188 C2174 0.960 . S
H2189 C2175 0.961 . S
H2190 C2175 0.961 . S
H2191 C2175 0.961 . S
H2192 C2176 0.931 . S
H2193 C2181 0.930 . S
H2194 C2182 0.956 . S
H2195 C2182 0.961 . S
H2196 C2182 0.961 . S
H2197 C2183 0.958 . S
H2198 C2183 0.961 . S
H2199 C2183 0.960 . S
C2200 C2201 1.391 . S
C2200 C2202 1.394 . S
C2200 H2216 0.931 . S
C2201 C2200 1.391 . S
C2201 C2205 1.376 . S
C2202 C2200 1.394 . S
C2202 C2203 1.369 . S
C2202 C2206 1.531 . S
C2203 C2202 1.369 . S
C2203 C2204 1.410 . S
C2203 C2211 1.503 . S
C2204 C2203 1.410 . S
C2204 C2205 1.392 . S
C2204 C2207 1.511 . S
C2205 C2201 1.376 . S
C2205 C2204 1.392 . S
C2205 H2217 0.929 . S
C2206 C2202 1.531 . S
C2206 H2218 0.960 . S
C2206 H2219 0.962 . S
C2206 H2220 0.960 . S
C2207 C2204 1.511 . S
C2207 H2221 0.961 . S
C2207 H2222 0.961 . S
C2207 H2223 0.961 . S
C2208 C2209 1.370 . S
C2208 C2210 1.363 . S
C2208 H2224 0.931 . S
C2209 C2208 1.370 . S
C2209 C2213 1.408 . S
C2210 C2208 1.363 . S
C2210 C2211 1.370 . S
C2210 C2214 1.524 . S
C2211 C2203 1.503 . S
C2211 C2210 1.370 . S
C2211 C2212 1.403 . S
C2212 C2211 1.403 . S
C2212 C2213 1.404 . S
C2212 C2215 1.539 . S
C2213 C2209 1.408 . S
C2213 C2212 1.404 . S
C2213 H2225 0.930 . S
C2214 C2210 1.524 . S
C2214 H2226 0.956 . S
C2214 H2227 0.961 . S
C2214 H2228 0.961 . S
C2215 C2212 1.539 . S
C2215 H2229 0.958 . S
C2215 H2230 0.961 . S
C2215 H2231 0.960 . S
H2216 C2200 0.931 . S
H2217 C2205 0.929 . S
H2218 C2206 0.960 . S
H2219 C2206 0.962 . S
H2220 C2206 0.960 . S
H2221 C2207 0.961 . S
H2222 C2207 0.961 . S
H2223 C2207 0.961 . S
H2224 C2208 0.931 . S
H2225 C2213 0.930 . S
H2226 C2214 0.956 . S
H2227 C2214 0.961 . S
H2228 C2214 0.961 . S
H2229 C2215 0.958 . S
H2230 C2215 0.961 . S
H2231 C2215 0.960 . S
C2232 C2233 1.391 . S
C2232 C2234 1.394 . S
C2232 H2248 0.931 . S
C2233 C2232 1.391 . S
C2233 C2237 1.376 . S
C2234 C2232 1.394 . S
C2234 C2235 1.369 . S
C2234 C2238 1.531 . S
C2235 C2234 1.369 . S
C2235 C2236 1.410 . S
C2235 C2243 1.503 . S
C2236 C2235 1.410 . S
C2236 C2237 1.392 . S
C2236 C2239 1.511 . S
C2237 C2233 1.376 . S
C2237 C2236 1.392 . S
C2237 H2249 0.929 . S
C2238 C2234 1.531 . S
C2238 H2250 0.960 . S
C2238 H2251 0.962 1_655 S
C2238 H2252 0.960 1_655 S
C2239 C2236 1.511 . S
C2239 H2253 0.961 . S
C2239 H2254 0.961 . S
C2239 H2255 0.961 . S
C2240 C2241 1.370 . S
C2240 C2242 1.363 . S
C2240 H2256 0.931 . S
C2241 C2240 1.370 . S
C2241 C2245 1.408 . S
C2242 C2240 1.363 . S
C2242 C2243 1.370 . S
C2242 C2246 1.524 . S
C2243 C2235 1.503 . S
C2243 C2242 1.370 . S
C2243 C2244 1.403 . S
C2244 C2243 1.403 . S
C2244 C2245 1.404 . S
C2244 C2247 1.539 . S
C2245 C2241 1.408 . S
C2245 C2244 1.404 . S
C2245 H2257 0.930 . S
C2246 C2242 1.524 . S
C2246 H2258 0.956 . S
C2246 H2259 0.961 . S
C2246 H2260 0.961 . S
C2247 C2244 1.539 . S
C2247 H2261 0.958 . S
C2247 H2262 0.961 . S
C2247 H2263 0.960 . S
H2248 C2232 0.931 . S
H2249 C2237 0.929 . S
H2250 C2238 0.960 . S
H2251 C2238 0.962 1_455 S
H2252 C2238 0.960 1_455 S
H2253 C2239 0.961 . S
H2254 C2239 0.961 . S
H2255 C2239 0.961 . S
H2256 C2240 0.931 . S
H2257 C2245 0.930 . S
H2258 C2246 0.956 . S
H2259 C2246 0.961 . S
H2260 C2246 0.961 . S
H2261 C2247 0.958 . S
H2262 C2247 0.961 . S
H2263 C2247 0.960 . S
C2264 C2265 1.391 1_554 S
C2264 C2266 1.394 . S
C2264 H2280 0.931 . S
C2265 C2264 1.391 1_556 S
C2265 C2269 1.376 . S
C2266 C2264 1.394 . S
C2266 C2267 1.369 1_554 S
C2266 C2270 1.531 . S
C2267 C2266 1.369 1_556 S
C2267 C2268 1.410 . S
C2267 C2275 1.503 . S
C2268 C2267 1.410 . S
C2268 C2269 1.392 . S
C2268 C2271 1.511 . S
C2269 C2265 1.376 . S
C2269 C2268 1.392 . S
C2269 H2281 0.929 . S
C2270 C2266 1.531 . S
C2270 H2282 0.960 . S
C2270 H2283 0.962 . S
C2270 H2284 0.960 . S
C2271 C2268 1.511 . S
C2271 H2285 0.961 . S
C2271 H2286 0.961 . S
C2271 H2287 0.961 . S
C2272 C2273 1.370 1_554 S
C2272 C2274 1.363 . S
C2272 H2288 0.931 . S
C2273 C2272 1.370 1_556 S
C2273 C2277 1.408 . S
C2274 C2272 1.363 . S
C2274 C2275 1.370 1_554 S
C2274 C2278 1.524 . S
C2275 C2267 1.503 . S
C2275 C2274 1.370 1_556 S
C2275 C2276 1.403 . S
C2276 C2275 1.403 . S
C2276 C2277 1.404 . S
C2276 C2279 1.539 . S
C2277 C2273 1.408 . S
C2277 C2276 1.404 . S
C2277 H2289 0.930 . S
C2278 C2274 1.524 . S
C2278 H2290 0.956 . S
C2278 H2291 0.961 . S
C2278 H2292 0.961 . S
C2279 C2276 1.539 . S
C2279 H2293 0.958 . S
C2279 H2294 0.961 . S
C2279 H2295 0.960 . S
H2280 C2264 0.931 . S
H2281 C2269 0.929 . S
H2282 C2270 0.960 . S
H2283 C2270 0.962 . S
H2284 C2270 0.960 . S
H2285 C2271 0.961 . S
H2286 C2271 0.961 . S
H2287 C2271 0.961 . S
H2288 C2272 0.931 . S
H2289 C2277 0.930 . S
H2290 C2278 0.956 . S
H2291 C2278 0.961 . S
H2292 C2278 0.961 . S
H2293 C2279 0.958 . S
H2294 C2279 0.961 . S
H2295 C2279 0.960 . S
C2296 C2297 1.391 . S
C2296 C2298 1.394 . S
C2296 H2312 0.931 . S
C2297 C2296 1.391 . S
C2297 C2301 1.376 . S
C2298 C2296 1.394 . S
C2298 C2299 1.369 . S
C2298 C2302 1.531 . S
C2299 C2298 1.369 . S
C2299 C2300 1.410 . S
C2299 C2307 1.503 . S
C2300 C2299 1.410 . S
C2300 C2301 1.392 . S
C2300 C2303 1.511 . S
C2301 C2297 1.376 . S
C2301 C2300 1.392 . S
C2301 H2313 0.929 . S
C2302 C2298 1.531 . S
C2302 H2314 0.960 . S
C2302 H2315 0.962 . S
C2302 H2316 0.960 . S
C2303 C2300 1.511 . S
C2303 H2317 0.961 . S
C2303 H2318 0.961 . S
C2303 H2319 0.961 . S
C2304 C2305 1.370 . S
C2304 C2306 1.363 . S
C2304 H2320 0.931 . S
C2305 C2304 1.370 . S
C2305 C2309 1.408 . S
C2306 C2304 1.363 . S
C2306 C2307 1.370 . S
C2306 C2310 1.524 . S
C2307 C2299 1.503 . S
C2307 C2306 1.370 . S
C2307 C2308 1.403 . S
C2308 C2307 1.403 . S
C2308 C2309 1.404 . S
C2308 C2311 1.539 . S
C2309 C2305 1.408 . S
C2309 C2308 1.404 . S
C2309 H2321 0.930 . S
C2310 C2306 1.524 . S
C2310 H2322 0.956 . S
C2310 H2323 0.961 . S
C2310 H2324 0.961 . S
C2311 C2308 1.539 . S
C2311 H2325 0.958 . S
C2311 H2326 0.961 . S
C2311 H2327 0.960 . S
H2312 C2296 0.931 . S
H2313 C2301 0.929 . S
H2314 C2302 0.960 . S
H2315 C2302 0.962 . S
H2316 C2302 0.960 . S
H2317 C2303 0.961 . S
H2318 C2303 0.961 . S
H2319 C2303 0.961 . S
H2320 C2304 0.931 . S
H2321 C2309 0.930 . S
H2322 C2310 0.956 . S
H2323 C2310 0.961 . S
H2324 C2310 0.961 . S
H2325 C2311 0.958 . S
H2326 C2311 0.961 . S
H2327 C2311 0.960 . S
C2328 C2329 1.391 . S
C2328 C2330 1.394 . S
C2328 H2344 0.931 . S
C2329 C2328 1.391 . S
C2329 C2333 1.376 . S
C2330 C2328 1.394 . S
C2330 C2331 1.369 . S
C2330 C2334 1.531 . S
C2331 C2330 1.369 . S
C2331 C2332 1.410 . S
C2331 C2339 1.503 . S
C2332 C2331 1.410 . S
C2332 C2333 1.392 . S
C2332 C2335 1.511 . S
C2333 C2329 1.376 . S
C2333 C2332 1.392 . S
C2333 H2345 0.929 . S
C2334 C2330 1.531 . S
C2334 H2346 0.960 . S
C2334 H2347 0.962 . S
C2334 H2348 0.960 . S
C2335 C2332 1.511 . S
C2335 H2349 0.961 . S
C2335 H2350 0.961 . S
C2335 H2351 0.961 . S
C2336 C2337 1.370 . S
C2336 C2338 1.363 . S
C2336 H2352 0.931 . S
C2337 C2336 1.370 . S
C2337 C2341 1.408 . S
C2338 C2336 1.363 . S
C2338 C2339 1.370 . S
C2338 C2342 1.524 . S
C2339 C2331 1.503 . S
C2339 C2338 1.370 . S
C2339 C2340 1.403 . S
C2340 C2339 1.403 . S
C2340 C2341 1.404 . S
C2340 C2343 1.539 . S
C2341 C2337 1.408 . S
C2341 C2340 1.404 . S
C2341 H2353 0.930 . S
C2342 C2338 1.524 . S
C2342 H2354 0.956 . S
C2342 H2355 0.961 . S
C2342 H2356 0.961 . S
C2343 C2340 1.539 . S
C2343 H2357 0.958 . S
C2343 H2358 0.961 . S
C2343 H2359 0.960 . S
H2344 C2328 0.931 . S
H2345 C2333 0.929 . S
H2346 C2334 0.960 . S
H2347 C2334 0.962 . S
H2348 C2334 0.960 . S
H2349 C2335 0.961 . S
H2350 C2335 0.961 . S
H2351 C2335 0.961 . S
H2352 C2336 0.931 . S
H2353 C2341 0.930 . S
H2354 C2342 0.956 . S
H2355 C2342 0.961 . S
H2356 C2342 0.961 . S
H2357 C2343 0.958 . S
H2358 C2343 0.961 . S
H2359 C2343 0.960 . S
C2360 C2361 1.391 . S
C2360 C2362 1.394 . S
C2360 H2376 0.931 . S
C2361 C2360 1.391 . S
C2361 C2365 1.376 . S
C2362 C2360 1.394 . S
C2362 C2363 1.369 . S
C2362 C2366 1.531 . S
C2363 C2362 1.369 . S
C2363 C2364 1.410 . S
C2363 C2371 1.503 . S
C2364 C2363 1.410 . S
C2364 C2365 1.392 . S
C2364 C2367 1.511 . S
C2365 C2361 1.376 . S
C2365 C2364 1.392 . S
C2365 H2377 0.929 . S
C2366 C2362 1.531 . S
C2366 H2378 0.959 . S
C2366 H2379 0.962 1_565 S
C2366 H2380 0.960 1_565 S
C2367 C2364 1.511 . S
C2367 H2381 0.961 . S
C2367 H2382 0.961 . S
C2367 H2383 0.961 . S
C2368 C2369 1.370 . S
C2368 C2370 1.363 . S
C2368 H2384 0.931 . S
C2369 C2368 1.370 . S
C2369 C2373 1.408 . S
C2370 C2368 1.363 . S
C2370 C2371 1.370 . S
C2370 C2374 1.524 . S
C2371 C2363 1.503 . S
C2371 C2370 1.370 . S
C2371 C2372 1.403 . S
C2372 C2371 1.403 . S
C2372 C2373 1.404 . S
C2372 C2375 1.539 . S
C2373 C2369 1.408 . S
C2373 C2372 1.404 . S
C2373 H2385 0.930 . S
C2374 C2370 1.524 . S
C2374 H2386 0.956 . S
C2374 H2387 0.961 . S
C2374 H2388 0.961 . S
C2375 C2372 1.539 . S
C2375 H2389 0.958 . S
C2375 H2390 0.961 . S
C2375 H2391 0.960 . S
H2376 C2360 0.931 . S
H2377 C2365 0.929 . S
H2378 C2366 0.959 . S
H2379 C2366 0.962 1_545 S
H2380 C2366 0.960 1_545 S
H2381 C2367 0.961 . S
H2382 C2367 0.961 . S
H2383 C2367 0.961 . S
H2384 C2368 0.931 . S
H2385 C2373 0.930 . S
H2386 C2374 0.956 . S
H2387 C2374 0.961 . S
H2388 C2374 0.961 . S
H2389 C2375 0.958 . S
H2390 C2375 0.961 . S
H2391 C2375 0.960 . S
C2392 C2393 1.391 . S
C2392 C2394 1.394 . S
C2392 H2408 0.931 . S
C2393 C2392 1.391 . S
C2393 C2397 1.370 1_655 S
C2394 C2392 1.394 . S
C2394 C2395 1.369 . S
C2394 C2398 1.531 . S
C2395 C2394 1.369 . S
C2395 C2396 1.410 . S
C2395 C2403 1.503 . S
C2396 C2395 1.410 . S
C2396 C2397 1.392 1_655 S
C2396 C2399 1.511 1_655 S
C2397 C2393 1.370 1_455 S
C2397 C2396 1.392 1_455 S
C2397 H2409 0.936 . S
C2398 C2394 1.531 . S
C2398 H2410 0.960 . S
C2398 H2411 0.962 . S
C2398 H2412 0.960 . S
C2399 C2396 1.511 1_455 S
C2399 H2413 0.961 . S
C2399 H2414 0.961 . S
C2399 H2415 0.961 1_455 S
C2400 C2401 1.370 1_455 S
C2400 C2402 1.363 . S
C2400 H2416 0.931 . S
C2401 C2400 1.370 1_655 S
C2401 C2405 1.408 . S
C2402 C2400 1.363 . S
C2402 C2403 1.370 1_455 S
C2402 C2406 1.524 . S
C2403 C2395 1.503 . S
C2403 C2402 1.370 1_655 S
C2403 C2404 1.403 . S
C2404 C2403 1.403 . S
C2404 C2405 1.404 . S
C2404 C2407 1.539 . S
C2405 C2401 1.408 . S
C2405 C2404 1.404 . S
C2405 H2417 0.930 . S
C2406 C2402 1.524 . S
C2406 H2418 0.956 . S
C2406 H2419 0.961 . S
C2406 H2420 0.961 . S
C2407 C2404 1.539 . S
C2407 H2421 0.958 . S
C2407 H2422 0.961 . S
C2407 H2423 0.960 . S
H2408 C2392 0.931 . S
H2409 C2397 0.936 . S
H2410 C2398 0.960 . S
H2411 C2398 0.962 . S
H2412 C2398 0.960 . S
H2413 C2399 0.961 . S
H2414 C2399 0.961 . S
H2415 C2399 0.961 1_655 S
H2416 C2400 0.931 . S
H2417 C2405 0.930 . S
H2418 C2406 0.956 . S
H2419 C2406 0.961 . S
H2420 C2406 0.961 . S
H2421 C2407 0.958 . S
H2422 C2407 0.961 . S
H2423 C2407 0.960 . S
C2424 C2425 1.391 . S
C2424 C2426 1.394 . S
C2424 H2440 0.931 . S
C2425 C2424 1.391 . S
C2425 C2429 1.376 . S
C2426 C2424 1.394 . S
C2426 C2427 1.369 . S
C2426 C2430 1.531 . S
C2427 C2426 1.369 . S
C2427 C2428 1.410 . S
C2427 C2435 1.503 . S
C2428 C2427 1.410 . S
C2428 C2429 1.392 . S
C2428 C2431 1.511 . S
C2429 C2425 1.376 . S
C2429 C2428 1.392 . S
C2429 H2441 0.929 . S
C2430 C2426 1.531 . S
C2430 H2442 0.960 . S
C2430 H2443 0.962 . S
C2430 H2444 0.960 . S
C2431 C2428 1.511 . S
C2431 H2445 0.961 . S
C2431 H2446 0.961 . S
C2431 H2447 0.961 . S
C2432 C2433 1.370 . S
C2432 C2434 1.363 . S
C2432 H2448 0.931 . S
C2433 C2432 1.370 . S
C2433 C2437 1.408 . S
C2434 C2432 1.363 . S
C2434 C2435 1.370 . S
C2434 C2438 1.524 . S
C2435 C2427 1.503 . S
C2435 C2434 1.370 . S
C2435 C2436 1.403 . S
C2436 C2435 1.403 . S
C2436 C2437 1.404 . S
C2436 C2439 1.539 . S
C2437 C2433 1.408 . S
C2437 C2436 1.404 . S
C2437 H2449 0.930 . S
C2438 C2434 1.524 . S
C2438 H2450 0.956 . S
C2438 H2451 0.961 . S
C2438 H2452 0.961 . S
C2439 C2436 1.539 . S
C2439 H2453 0.958 . S
C2439 H2454 0.961 . S
C2439 H2455 0.960 . S
H2440 C2424 0.931 . S
H2441 C2429 0.929 . S
H2442 C2430 0.960 . S
H2443 C2430 0.962 . S
H2444 C2430 0.960 . S
H2445 C2431 0.961 . S
H2446 C2431 0.961 . S
H2447 C2431 0.961 . S
H2448 C2432 0.931 . S
H2449 C2437 0.930 . S
H2450 C2438 0.956 . S
H2451 C2438 0.961 . S
H2452 C2438 0.961 . S
H2453 C2439 0.958 . S
H2454 C2439 0.961 . S
H2455 C2439 0.960 . S
C2456 C2457 1.391 . S
C2456 C2458 1.394 . S
C2456 H2472 0.931 . S
C2457 C2456 1.391 . S
C2457 C2461 1.376 . S
C2458 C2456 1.394 . S
C2458 C2459 1.369 . S
C2458 C2462 1.531 . S
C2459 C2458 1.369 . S
C2459 C2460 1.410 . S
C2459 C2467 1.503 . S
C2460 C2459 1.410 . S
C2460 C2461 1.392 . S
C2460 C2463 1.511 . S
C2461 C2457 1.376 . S
C2461 C2460 1.392 . S
C2461 H2473 0.929 . S
C2462 C2458 1.531 . S
C2462 H2474 0.960 . S
C2462 H2475 0.962 . S
C2462 H2476 0.960 . S
C2463 C2460 1.511 . S
C2463 H2477 0.961 1_554 S
C2463 H2478 0.959 . S
C2463 H2479 0.961 1_554 S
C2464 C2465 1.370 . S
C2464 C2466 1.363 . S
C2464 H2480 0.931 . S
C2465 C2464 1.370 . S
C2465 C2469 1.408 . S
C2466 C2464 1.363 . S
C2466 C2467 1.370 . S
C2466 C2470 1.524 . S
C2467 C2459 1.503 . S
C2467 C2466 1.370 . S
C2467 C2468 1.403 . S
C2468 C2467 1.403 . S
C2468 C2469 1.404 . S
C2468 C2471 1.539 . S
C2469 C2465 1.408 . S
C2469 C2468 1.404 . S
C2469 H2481 0.930 . S
C2470 C2466 1.524 . S
C2470 H2482 0.956 . S
C2470 H2483 0.961 . S
C2470 H2484 0.961 . S
C2471 C2468 1.539 . S
C2471 H2485 0.958 . S
C2471 H2486 0.961 . S
C2471 H2487 0.960 . S
H2472 C2456 0.931 . S
H2473 C2461 0.929 . S
H2474 C2462 0.960 . S
H2475 C2462 0.962 . S
H2476 C2462 0.960 . S
H2477 C2463 0.961 1_556 S
H2478 C2463 0.959 . S
H2479 C2463 0.961 1_556 S
H2480 C2464 0.931 . S
H2481 C2469 0.930 . S
H2482 C2470 0.956 . S
H2483 C2470 0.961 . S
H2484 C2470 0.961 . S
H2485 C2471 0.958 . S
H2486 C2471 0.961 . S
H2487 C2471 0.960 . S
C2488 C2489 1.391 . S
C2488 C2490 1.394 . S
C2488 H2504 0.931 . S
C2489 C2488 1.391 . S
C2489 C2493 1.376 1_565 S
C2490 C2488 1.394 . S
C2490 C2491 1.369 . S
C2490 C2494 1.531 . S
C2491 C2490 1.369 . S
C2491 C2492 1.410 1_565 S
C2491 C2499 1.503 . S
C2492 C2491 1.410 1_545 S
C2492 C2493 1.392 . S
C2492 C2495 1.511 . S
C2493 C2489 1.376 1_545 S
C2493 C2492 1.392 . S
C2493 H2505 0.929 . S
C2494 C2490 1.531 . S
C2494 H2506 0.960 . S
C2494 H2507 0.962 . S
C2494 H2508 0.960 . S
C2495 C2492 1.511 . S
C2495 H2509 0.961 . S
C2495 H2510 0.961 . S
C2495 H2511 0.961 1_545 S
C2496 C2497 1.370 . S
C2496 C2498 1.363 . S
C2496 H2512 0.931 . S
C2497 C2496 1.370 . S
C2497 C2501 1.408 1_545 S
C2498 C2496 1.363 . S
C2498 C2499 1.370 1_545 S
C2498 C2502 1.524 . S
C2499 C2491 1.503 . S
C2499 C2498 1.370 1_565 S
C2499 C2500 1.403 . S
C2500 C2499 1.403 . S
C2500 C2501 1.404 . S
C2500 C2503 1.539 . S
C2501 C2497 1.408 1_565 S
C2501 C2500 1.404 . S
C2501 H2513 0.930 . S
C2502 C2498 1.524 . S
C2502 H2514 0.956 . S
C2502 H2515 0.961 . S
C2502 H2516 0.961 . S
C2503 C2500 1.539 . S
C2503 H2517 0.958 . S
C2503 H2518 0.961 . S
C2503 H2519 0.960 . S
H2504 C2488 0.931 . S
H2505 C2493 0.929 . S
H2506 C2494 0.960 . S
H2507 C2494 0.962 . S
H2508 C2494 0.960 . S
H2509 C2495 0.961 . S
H2510 C2495 0.961 . S
H2511 C2495 0.961 1_565 S
H2512 C2496 0.931 . S
H2513 C2501 0.930 . S
H2514 C2502 0.956 . S
H2515 C2502 0.961 . S
H2516 C2502 0.961 . S
H2517 C2503 0.958 . S
H2518 C2503 0.961 . S
H2519 C2503 0.960 . S
C2520 C2521 1.391 . S
C2520 C2522 1.394 . S
C2520 H2536 0.931 . S
C2521 C2520 1.391 . S
C2521 C2525 1.376 . S
C2522 C2520 1.394 . S
C2522 C2523 1.369 . S
C2522 C2526 1.531 . S
C2523 C2522 1.369 . S
C2523 C2524 1.410 . S
C2523 C2531 1.503 . S
C2524 C2523 1.410 . S
C2524 C2525 1.392 . S
C2524 C2527 1.511 . S
C2525 C2521 1.376 . S
C2525 C2524 1.392 . S
C2525 H2537 0.929 . S
C2526 C2522 1.531 . S
C2526 H2538 0.960 . S
C2526 H2539 0.962 . S
C2526 H2540 0.960 . S
C2527 C2524 1.511 . S
C2527 H2541 0.961 . S
C2527 H2542 0.961 . S
C2527 H2543 0.961 . S
C2528 C2529 1.370 . S
C2528 C2530 1.363 . S
C2528 H2544 0.931 . S
C2529 C2528 1.370 . S
C2529 C2533 1.408 . S
C2530 C2528 1.363 . S
C2530 C2531 1.370 . S
C2530 C2534 1.524 . S
C2531 C2523 1.503 . S
C2531 C2530 1.370 . S
C2531 C2532 1.403 . S
C2532 C2531 1.403 . S
C2532 C2533 1.404 . S
C2532 C2535 1.539 . S
C2533 C2529 1.408 . S
C2533 C2532 1.404 . S
C2533 H2545 0.930 . S
C2534 C2530 1.524 . S
C2534 H2546 0.956 . S
C2534 H2547 0.961 . S
C2534 H2548 0.961 . S
C2535 C2532 1.539 . S
C2535 H2549 0.958 . S
C2535 H2550 0.961 . S
C2535 H2551 0.960 . S
H2536 C2520 0.931 . S
H2537 C2525 0.929 . S
H2538 C2526 0.960 . S
H2539 C2526 0.962 . S
H2540 C2526 0.960 . S
H2541 C2527 0.961 . S
H2542 C2527 0.961 . S
H2543 C2527 0.961 . S
H2544 C2528 0.931 . S
H2545 C2533 0.930 . S
H2546 C2534 0.956 . S
H2547 C2534 0.961 . S
H2548 C2534 0.961 . S
H2549 C2535 0.958 . S
H2550 C2535 0.961 . S
H2551 C2535 0.960 . S
C2552 C2553 1.391 . S
C2552 C2554 1.394 . S
C2552 H2568 0.931 . S
C2553 C2552 1.391 . S
C2553 C2557 1.376 . S
C2554 C2552 1.394 . S
C2554 C2555 1.369 . S
C2554 C2558 1.531 . S
C2555 C2554 1.369 . S
C2555 C2556 1.410 . S
C2555 C2563 1.503 . S
C2556 C2555 1.410 . S
C2556 C2557 1.392 . S
C2556 C2559 1.511 . S
C2557 C2553 1.376 . S
C2557 C2556 1.392 . S
C2557 H2569 0.929 . S
C2558 C2554 1.531 . S
C2558 H2570 0.960 . S
C2558 H2571 0.962 . S
C2558 H2572 0.960 . S
C2559 C2556 1.511 . S
C2559 H2573 0.961 . S
C2559 H2574 0.961 . S
C2559 H2575 0.961 . S
C2560 C2561 1.370 . S
C2560 C2562 1.363 . S
C2560 H2576 0.931 . S
C2561 C2560 1.370 . S
C2561 C2565 1.408 . S
C2562 C2560 1.363 . S
C2562 C2563 1.370 . S
C2562 C2566 1.524 . S
C2563 C2555 1.503 . S
C2563 C2562 1.370 . S
C2563 C2564 1.403 . S
C2564 C2563 1.403 . S
C2564 C2565 1.404 . S
C2564 C2567 1.539 . S
C2565 C2561 1.408 . S
C2565 C2564 1.404 . S
C2565 H2577 0.930 . S
C2566 C2562 1.524 . S
C2566 H2578 0.956 . S
C2566 H2579 0.961 . S
C2566 H2580 0.961 . S
C2567 C2564 1.539 . S
C2567 H2581 0.958 . S
C2567 H2582 0.961 . S
C2567 H2583 0.960 . S
H2568 C2552 0.931 . S
H2569 C2557 0.929 . S
H2570 C2558 0.960 . S
H2571 C2558 0.962 . S
H2572 C2558 0.960 . S
H2573 C2559 0.961 . S
H2574 C2559 0.961 . S
H2575 C2559 0.961 . S
H2576 C2560 0.931 . S
H2577 C2565 0.930 . S
H2578 C2566 0.956 . S
H2579 C2566 0.961 . S
H2580 C2566 0.961 . S
H2581 C2567 0.958 . S
H2582 C2567 0.961 . S
H2583 C2567 0.960 . S
C2584 C2585 1.391 . S
C2584 C2586 1.394 . S
C2584 H2600 0.931 . S
C2585 C2584 1.391 . S
C2585 C2589 1.376 . S
C2586 C2584 1.394 . S
C2586 C2587 1.369 . S
C2586 C2590 1.531 . S
C2587 C2586 1.369 . S
C2587 C2588 1.410 . S
C2587 C2595 1.503 . S
C2588 C2587 1.410 . S
C2588 C2589 1.392 . S
C2588 C2591 1.511 . S
C2589 C2585 1.376 . S
C2589 C2588 1.392 . S
C2589 H2601 0.929 . S
C2590 C2586 1.531 . S
C2590 H2602 0.960 . S
C2590 H2603 0.962 . S
C2590 H2604 0.960 . S
C2591 C2588 1.511 . S
C2591 H2605 0.961 . S
C2591 H2606 0.961 . S
C2591 H2607 0.961 . S
C2592 C2593 1.370 . S
C2592 C2594 1.363 . S
C2592 H2608 0.931 . S
C2593 C2592 1.370 . S
C2593 C2597 1.408 . S
C2594 C2592 1.363 . S
C2594 C2595 1.370 . S
C2594 C2598 1.524 . S
C2595 C2587 1.503 . S
C2595 C2594 1.370 . S
C2595 C2596 1.403 . S
C2596 C2595 1.403 . S
C2596 C2597 1.404 . S
C2596 C2599 1.539 . S
C2597 C2593 1.408 . S
C2597 C2596 1.404 . S
C2597 H2609 0.930 . S
C2598 C2594 1.524 . S
C2598 H2610 0.956 . S
C2598 H2611 0.961 . S
C2598 H2612 0.961 . S
C2599 C2596 1.539 . S
C2599 H2613 0.958 . S
C2599 H2614 0.961 . S
C2599 H2615 0.960 . S
H2600 C2584 0.931 . S
H2601 C2589 0.929 . S
H2602 C2590 0.960 . S
H2603 C2590 0.962 . S
H2604 C2590 0.960 . S
H2605 C2591 0.961 . S
H2606 C2591 0.961 . S
H2607 C2591 0.961 . S
H2608 C2592 0.931 . S
H2609 C2597 0.930 . S
H2610 C2598 0.956 . S
H2611 C2598 0.961 . S
H2612 C2598 0.961 . S
H2613 C2599 0.958 . S
H2614 C2599 0.961 . S
H2615 C2599 0.960 . S
C2616 C2617 1.391 . S
C2616 C2618 1.394 . S
C2616 H2632 0.931 . S
C2617 C2616 1.391 . S
C2617 C2621 1.376 . S
C2618 C2616 1.394 . S
C2618 C2619 1.369 . S
C2618 C2622 1.531 . S
C2619 C2618 1.369 . S
C2619 C2620 1.410 . S
C2619 C2627 1.503 . S
C2620 C2619 1.410 . S
C2620 C2621 1.392 . S
C2620 C2623 1.511 . S
C2621 C2617 1.376 . S
C2621 C2620 1.392 . S
C2621 H2633 0.929 . S
C2622 C2618 1.531 . S
C2622 H2634 0.960 . S
C2622 H2635 0.962 . S
C2622 H2636 0.960 . S
C2623 C2620 1.511 . S
C2623 H2637 0.961 . S
C2623 H2638 0.961 . S
C2623 H2639 0.961 1_455 S
C2624 C2625 1.370 . S
C2624 C2626 1.363 . S
C2624 H2640 0.931 . S
C2625 C2624 1.370 . S
C2625 C2629 1.408 . S
C2626 C2624 1.363 . S
C2626 C2627 1.370 . S
C2626 C2630 1.524 . S
C2627 C2619 1.503 . S
C2627 C2626 1.370 . S
C2627 C2628 1.403 . S
C2628 C2627 1.403 . S
C2628 C2629 1.404 . S
C2628 C2631 1.539 . S
C2629 C2625 1.408 . S
C2629 C2628 1.404 . S
C2629 H2641 0.930 . S
C2630 C2626 1.524 . S
C2630 H2642 0.956 . S
C2630 H2643 0.961 . S
C2630 H2644 0.961 . S
C2631 C2628 1.539 . S
C2631 H2645 0.958 . S
C2631 H2646 0.961 1_455 S
C2631 H2647 0.960 . S
H2632 C2616 0.931 . S
H2633 C2621 0.929 . S
H2634 C2622 0.960 . S
H2635 C2622 0.962 . S
H2636 C2622 0.960 . S
H2637 C2623 0.961 . S
H2638 C2623 0.961 . S
H2639 C2623 0.961 1_655 S
H2640 C2624 0.931 . S
H2641 C2629 0.930 . S
H2642 C2630 0.956 . S
H2643 C2630 0.961 . S
H2644 C2630 0.961 . S
H2645 C2631 0.958 . S
H2646 C2631 0.961 1_655 S
H2647 C2631 0.960 . S
C2648 C2649 1.391 . S
C2648 C2650 1.394 . S
C2648 H2664 0.931 . S
C2649 C2648 1.391 . S
C2649 C2653 1.376 . S
C2650 C2648 1.394 . S
C2650 C2651 1.369 . S
C2650 C2654 1.531 . S
C2651 C2650 1.369 . S
C2651 C2652 1.410 . S
C2651 C2659 1.503 . S
C2652 C2651 1.410 . S
C2652 C2653 1.392 . S
C2652 C2655 1.511 . S
C2653 C2649 1.376 . S
C2653 C2652 1.392 . S
C2653 H2665 0.929 . S
C2654 C2650 1.531 . S
C2654 H2666 0.960 . S
C2654 H2667 0.962 1_556 S
C2654 H2668 0.960 . S
C2655 C2652 1.511 . S
C2655 H2669 0.969 . S
C2655 H2670 0.954 1_556 S
C2655 H2671 0.961 . S
C2656 C2657 1.370 . S
C2656 C2658 1.363 . S
C2656 H2672 0.931 . S
C2657 C2656 1.370 . S
C2657 C2661 1.408 1_554 S
C2658 C2656 1.363 . S
C2658 C2659 1.370 1_554 S
C2658 C2662 1.524 . S
C2659 C2651 1.503 . S
C2659 C2658 1.370 1_556 S
C2659 C2660 1.403 . S
C2660 C2659 1.403 . S
C2660 C2661 1.404 . S
C2660 C2663 1.539 . S
C2661 C2657 1.408 1_556 S
C2661 C2660 1.404 . S
C2661 H2673 0.930 . S
C2662 C2658 1.524 . S
C2662 H2674 0.956 . S
C2662 H2675 0.961 . S
C2662 H2676 0.961 . S
C2663 C2660 1.539 . S
C2663 H2677 0.958 . S
C2663 H2678 0.961 . S
C2663 H2679 0.960 . S
H2664 C2648 0.931 . S
H2665 C2653 0.929 . S
H2666 C2654 0.960 . S
H2667 C2654 0.962 1_554 S
H2668 C2654 0.960 . S
H2669 C2655 0.969 . S
H2670 C2655 0.954 1_554 S
H2671 C2655 0.961 . S
H2672 C2656 0.931 . S
H2673 C2661 0.930 . S
H2674 C2662 0.956 . S
H2675 C2662 0.961 . S
H2676 C2662 0.961 . S
H2677 C2663 0.958 . S
H2678 C2663 0.961 . S
H2679 C2663 0.960 . S
C2680 C2681 1.391 . S
C2680 C2682 1.394 . S
C2680 H2696 0.931 . S
C2681 C2680 1.391 . S
C2681 C2685 1.376 . S
C2682 C2680 1.394 . S
C2682 C2683 1.369 . S
C2682 C2686 1.531 . S
C2683 C2682 1.369 . S
C2683 C2684 1.410 . S
C2683 C2691 1.503 . S
C2684 C2683 1.410 . S
C2684 C2685 1.392 . S
C2684 C2687 1.511 . S
C2685 C2681 1.376 . S
C2685 C2684 1.392 . S
C2685 H2697 0.929 . S
C2686 C2682 1.531 . S
C2686 H2698 0.960 . S
C2686 H2699 0.962 . S
C2686 H2700 0.960 . S
C2687 C2684 1.511 . S
C2687 H2701 0.961 . S
C2687 H2702 0.961 . S
C2687 H2703 0.961 . S
C2688 C2689 1.370 . S
C2688 C2690 1.363 . S
C2688 H2704 0.931 . S
C2689 C2688 1.370 . S
C2689 C2693 1.408 . S
C2690 C2688 1.363 . S
C2690 C2691 1.370 . S
C2690 C2694 1.524 . S
C2691 C2683 1.503 . S
C2691 C2690 1.370 . S
C2691 C2692 1.403 . S
C2692 C2691 1.403 . S
C2692 C2693 1.404 . S
C2692 C2695 1.539 . S
C2693 C2689 1.408 . S
C2693 C2692 1.404 . S
C2693 H2705 0.930 . S
C2694 C2690 1.524 . S
C2694 H2706 0.956 . S
C2694 H2707 0.961 . S
C2694 H2708 0.961 . S
C2695 C2692 1.539 . S
C2695 H2709 0.958 . S
C2695 H2710 0.961 . S
C2695 H2711 0.960 . S
H2696 C2680 0.931 . S
H2697 C2685 0.929 . S
H2698 C2686 0.960 . S
H2699 C2686 0.962 . S
H2700 C2686 0.960 . S
H2701 C2687 0.961 . S
H2702 C2687 0.961 . S
H2703 C2687 0.961 . S
H2704 C2688 0.931 . S
H2705 C2693 0.930 . S
H2706 C2694 0.956 . S
H2707 C2694 0.961 . S
H2708 C2694 0.961 . S
H2709 C2695 0.958 . S
H2710 C2695 0.961 . S
H2711 C2695 0.960 . S
C2712 C2713 1.391 . S
C2712 C2714 1.394 . S
C2712 H2728 0.931 . S
C2713 C2712 1.391 . S
C2713 C2717 1.376 . S
C2714 C2712 1.394 . S
C2714 C2715 1.369 . S
C2714 C2718 1.531 . S
C2715 C2714 1.369 . S
C2715 C2716 1.410 . S
C2715 C2723 1.503 . S
C2716 C2715 1.410 . S
C2716 C2717 1.392 . S
C2716 C2719 1.511 . S
C2717 C2713 1.376 . S
C2717 C2716 1.392 . S
C2717 H2729 0.929 . S
C2718 C2714 1.531 . S
C2718 H2730 0.960 . S
C2718 H2731 0.962 . S
C2718 H2732 0.960 . S
C2719 C2716 1.511 . S
C2719 H2733 0.961 . S
C2719 H2734 0.961 . S
C2719 H2735 0.961 . S
C2720 C2721 1.370 . S
C2720 C2722 1.363 . S
C2720 H2736 0.931 . S
C2721 C2720 1.370 . S
C2721 C2725 1.408 . S
C2722 C2720 1.363 . S
C2722 C2723 1.370 . S
C2722 C2726 1.524 . S
C2723 C2715 1.503 . S
C2723 C2722 1.370 . S
C2723 C2724 1.403 . S
C2724 C2723 1.403 . S
C2724 C2725 1.404 . S
C2724 C2727 1.539 . S
C2725 C2721 1.408 . S
C2725 C2724 1.404 . S
C2725 H2737 0.930 . S
C2726 C2722 1.524 . S
C2726 H2738 0.956 . S
C2726 H2739 0.961 . S
C2726 H2740 0.961 . S
C2727 C2724 1.539 . S
C2727 H2741 0.958 . S
C2727 H2742 0.961 . S
C2727 H2743 0.960 . S
H2728 C2712 0.931 . S
H2729 C2717 0.929 . S
H2730 C2718 0.960 . S
H2731 C2718 0.962 . S
H2732 C2718 0.960 . S
H2733 C2719 0.961 . S
H2734 C2719 0.961 . S
H2735 C2719 0.961 . S
H2736 C2720 0.931 . S
H2737 C2725 0.930 . S
H2738 C2726 0.956 . S
H2739 C2726 0.961 . S
H2740 C2726 0.961 . S
H2741 C2727 0.958 . S
H2742 C2727 0.961 . S
H2743 C2727 0.960 . S
C2744 C2745 1.391 . S
C2744 C2746 1.394 . S
C2744 H2760 0.931 . S
C2745 C2744 1.391 . S
C2745 C2749 1.376 . S
C2746 C2744 1.394 . S
C2746 C2747 1.369 . S
C2746 C2750 1.531 . S
C2747 C2746 1.369 . S
C2747 C2748 1.410 . S
C2747 C2755 1.503 . S
C2748 C2747 1.410 . S
C2748 C2749 1.392 . S
C2748 C2751 1.511 . S
C2749 C2745 1.376 . S
C2749 C2748 1.392 . S
C2749 H2761 0.929 . S
C2750 C2746 1.531 . S
C2750 H2762 0.960 . S
C2750 H2763 0.962 . S
C2750 H2764 0.960 . S
C2751 C2748 1.511 . S
C2751 H2765 0.961 . S
C2751 H2766 0.961 . S
C2751 H2767 0.961 . S
C2752 C2753 1.370 . S
C2752 C2754 1.363 . S
C2752 H2768 0.931 1_545 S
C2753 C2752 1.370 . S
C2753 C2757 1.408 . S
C2754 C2752 1.363 . S
C2754 C2755 1.370 . S
C2754 C2758 1.509 1_545 S
C2755 C2747 1.503 . S
C2755 C2754 1.370 . S
C2755 C2756 1.403 . S
C2756 C2755 1.403 . S
C2756 C2757 1.404 . S
C2756 C2759 1.539 . S
C2757 C2753 1.408 . S
C2757 C2756 1.404 . S
C2757 H2769 0.930 . S
C2758 C2754 1.509 1_565 S
C2758 H2770 0.956 1_565 S
C2758 H2771 0.959 1_565 S
C2758 H2772 0.978 . S
C2759 C2756 1.539 . S
C2759 H2773 0.958 . S
C2759 H2774 0.961 . S
C2759 H2775 0.960 . S
H2760 C2744 0.931 . S
H2761 C2749 0.929 . S
H2762 C2750 0.960 . S
H2763 C2750 0.962 . S
H2764 C2750 0.960 . S
H2765 C2751 0.961 . S
H2766 C2751 0.961 . S
H2767 C2751 0.961 . S
H2768 C2752 0.931 1_565 S
H2769 C2757 0.930 . S
H2770 C2758 0.956 1_545 S
H2771 C2758 0.959 1_545 S
H2772 C2758 0.978 . S
H2773 C2759 0.958 . S
H2774 C2759 0.961 . S
H2775 C2759 0.960 . S
C2776 C2777 1.346 1_655 S
C2776 C2778 1.394 . S
C2776 H2792 0.931 . S
C2777 C2776 1.346 1_455 S
C2777 C2781 1.421 . S
C2778 C2776 1.394 . S
C2778 C2779 1.369 1_655 S
C2778 C2782 1.531 . S
C2779 C2778 1.369 1_455 S
C2779 C2780 1.410 . S
C2779 C2787 1.503 . S
C2780 C2779 1.410 . S
C2780 C2781 1.392 . S
C2780 C2783 1.511 . S
C2781 C2777 1.421 . S
C2781 C2780 1.392 . S
C2781 H2793 0.929 . S
C2782 C2778 1.531 . S
C2782 H2794 0.960 . S
C2782 H2795 0.962 . S
C2782 H2796 0.960 . S
C2783 C2780 1.511 . S
C2783 H2797 0.961 . S
C2783 H2798 0.961 . S
C2783 H2799 0.961 . S
C2784 C2785 1.370 1_655 S
C2784 C2786 1.363 . S
C2784 H2800 0.931 . S
C2785 C2784 1.370 1_455 S
C2785 C2789 1.408 . S
C2786 C2784 1.363 . S
C2786 C2787 1.370 1_655 S
C2786 C2790 1.524 . S
C2787 C2779 1.503 . S
C2787 C2786 1.370 1_455 S
C2787 C2788 1.403 . S
C2788 C2787 1.403 . S
C2788 C2789 1.404 . S
C2788 C2791 1.539 . S
C2789 C2785 1.408 . S
C2789 C2788 1.404 . S
C2789 H2801 0.930 . S
C2790 C2786 1.524 . S
C2790 H2802 0.956 . S
C2790 H2803 0.961 . S
C2790 H2804 0.961 . S
C2791 C2788 1.539 . S
C2791 H2805 0.958 . S
C2791 H2806 0.961 . S
C2791 H2807 0.960 . S
H2792 C2776 0.931 . S
H2793 C2781 0.929 . S
H2794 C2782 0.960 . S
H2795 C2782 0.962 . S
H2796 C2782 0.960 . S
H2797 C2783 0.961 . S
H2798 C2783 0.961 . S
H2799 C2783 0.961 . S
H2800 C2784 0.931 . S
H2801 C2789 0.930 . S
H2802 C2790 0.956 . S
H2803 C2790 0.961 . S
H2804 C2790 0.961 . S
H2805 C2791 0.958 . S
H2806 C2791 0.961 . S
H2807 C2791 0.960 . S
C2808 C2809 1.391 . S
C2808 C2810 1.394 . S
C2808 H2824 0.931 . S
C2809 C2808 1.391 . S
C2809 C2813 1.376 . S
C2810 C2808 1.394 . S
C2810 C2811 1.369 . S
C2810 C2814 1.531 . S
C2811 C2810 1.369 . S
C2811 C2812 1.410 . S
C2811 C2819 1.503 . S
C2812 C2811 1.410 . S
C2812 C2813 1.392 . S
C2812 C2815 1.511 . S
C2813 C2809 1.376 . S
C2813 C2812 1.392 . S
C2813 H2825 0.929 . S
C2814 C2810 1.531 . S
C2814 H2826 0.960 . S
C2814 H2827 0.962 . S
C2814 H2828 0.960 . S
C2815 C2812 1.511 . S
C2815 H2829 0.961 . S
C2815 H2830 0.961 . S
C2815 H2831 0.961 . S
C2816 C2817 1.370 . S
C2816 C2818 1.363 . S
C2816 H2832 0.931 . S
C2817 C2816 1.370 . S
C2817 C2821 1.408 . S
C2818 C2816 1.363 . S
C2818 C2819 1.370 . S
C2818 C2822 1.524 . S
C2819 C2811 1.503 . S
C2819 C2818 1.370 . S
C2819 C2820 1.403 . S
C2820 C2819 1.403 . S
C2820 C2821 1.404 . S
C2820 C2823 1.539 . S
C2821 C2817 1.408 . S
C2821 C2820 1.404 . S
C2821 H2833 0.930 . S
C2822 C2818 1.524 . S
C2822 H2834 0.956 . S
C2822 H2835 0.961 . S
C2822 H2836 0.961 . S
C2823 C2820 1.539 . S
C2823 H2837 0.958 . S
C2823 H2838 0.961 . S
C2823 H2839 0.960 . S
H2824 C2808 0.931 . S
H2825 C2813 0.929 . S
H2826 C2814 0.960 . S
H2827 C2814 0.962 . S
H2828 C2814 0.960 . S
H2829 C2815 0.961 . S
H2830 C2815 0.961 . S
H2831 C2815 0.961 . S
H2832 C2816 0.931 . S
H2833 C2821 0.930 . S
H2834 C2822 0.956 . S
H2835 C2822 0.961 . S
H2836 C2822 0.961 . S
H2837 C2823 0.958 . S
H2838 C2823 0.961 . S
H2839 C2823 0.960 . S
C2840 C2841 1.391 . S
C2840 C2842 1.394 . S
C2840 H2856 0.931 . S
C2841 C2840 1.391 . S
C2841 C2845 1.376 . S
C2842 C2840 1.394 . S
C2842 C2843 1.369 . S
C2842 C2846 1.531 . S
C2843 C2842 1.369 . S
C2843 C2844 1.410 . S
C2843 C2851 1.503 . S
C2844 C2843 1.410 . S
C2844 C2845 1.392 . S
C2844 C2847 1.511 . S
C2845 C2841 1.376 . S
C2845 C2844 1.392 . S
C2845 H2857 0.929 . S
C2846 C2842 1.531 . S
C2846 H2858 0.960 . S
C2846 H2859 0.962 . S
C2846 H2860 0.960 . S
C2847 C2844 1.511 . S
C2847 H2861 0.961 . S
C2847 H2862 0.961 . S
C2847 H2863 0.961 . S
C2848 C2849 1.370 . S
C2848 C2850 1.363 . S
C2848 H2864 0.931 . S
C2849 C2848 1.370 . S
C2849 C2853 1.408 . S
C2850 C2848 1.363 . S
C2850 C2851 1.370 . S
C2850 C2854 1.524 . S
C2851 C2843 1.503 . S
C2851 C2850 1.370 . S
C2851 C2852 1.403 . S
C2852 C2851 1.403 . S
C2852 C2853 1.404 . S
C2852 C2855 1.539 . S
C2853 C2849 1.408 . S
C2853 C2852 1.404 . S
C2853 H2865 0.930 . S
C2854 C2850 1.524 . S
C2854 H2866 0.956 . S
C2854 H2867 0.961 . S
C2854 H2868 0.961 . S
C2855 C2852 1.539 . S
C2855 H2869 0.958 . S
C2855 H2870 0.961 . S
C2855 H2871 0.960 . S
H2856 C2840 0.931 . S
H2857 C2845 0.929 . S
H2858 C2846 0.960 . S
H2859 C2846 0.962 . S
H2860 C2846 0.960 . S
H2861 C2847 0.961 . S
H2862 C2847 0.961 . S
H2863 C2847 0.961 . S
H2864 C2848 0.931 . S
H2865 C2853 0.930 . S
H2866 C2854 0.956 . S
H2867 C2854 0.961 . S
H2868 C2854 0.961 . S
H2869 C2855 0.958 . S
H2870 C2855 0.961 . S
H2871 C2855 0.960 . S
C2872 C2873 1.391 . S
C2872 C2874 1.394 . S
C2872 H2888 0.931 . S
C2873 C2872 1.391 . S
C2873 C2877 1.376 1_565 S
C2874 C2872 1.394 . S
C2874 C2875 1.369 . S
C2874 C2878 1.531 . S
C2875 C2874 1.369 . S
C2875 C2876 1.410 1_565 S
C2875 C2883 1.503 . S
C2876 C2875 1.410 1_545 S
C2876 C2877 1.392 . S
C2876 C2879 1.511 . S
C2877 C2873 1.376 1_545 S
C2877 C2876 1.392 . S
C2877 H2889 0.929 . S
C2878 C2874 1.531 . S
C2878 H2890 0.960 . S
C2878 H2891 0.962 . S
C2878 H2892 0.960 . S
C2879 C2876 1.511 . S
C2879 H2893 0.961 . S
C2879 H2894 0.961 . S
C2879 H2895 0.961 . S
C2880 C2881 1.370 1_545 S
C2880 C2882 1.363 . S
C2880 H2896 0.931 . S
C2881 C2880 1.370 1_565 S
C2881 C2885 1.408 . S
C2882 C2880 1.363 . S
C2882 C2883 1.370 1_545 S
C2882 C2886 1.524 . S
C2883 C2875 1.503 . S
C2883 C2882 1.370 1_565 S
C2883 C2884 1.403 . S
C2884 C2883 1.403 . S
C2884 C2885 1.404 . S
C2884 C2887 1.539 . S
C2885 C2881 1.408 . S
C2885 C2884 1.404 . S
C2885 H2897 0.930 . S
C2886 C2882 1.524 . S
C2886 H2898 0.956 . S
C2886 H2899 0.961 . S
C2886 H2900 0.961 . S
C2887 C2884 1.539 . S
C2887 H2901 0.958 . S
C2887 H2902 0.961 . S
C2887 H2903 0.960 . S
H2888 C2872 0.931 . S
H2889 C2877 0.929 . S
H2890 C2878 0.960 . S
H2891 C2878 0.962 . S
H2892 C2878 0.960 . S
H2893 C2879 0.961 . S
H2894 C2879 0.961 . S
H2895 C2879 0.961 . S
H2896 C2880 0.931 . S
H2897 C2885 0.930 . S
H2898 C2886 0.956 . S
H2899 C2886 0.961 . S
H2900 C2886 0.961 . S
H2901 C2887 0.958 . S
H2902 C2887 0.961 . S
H2903 C2887 0.960 . S
C2904 C2905 1.391 . S
C2904 C2906 1.394 . S
C2904 H2920 0.931 . S
C2905 C2904 1.391 . S
C2905 C2909 1.376 . S
C2906 C2904 1.394 . S
C2906 C2907 1.369 . S
C2906 C2910 1.531 . S
C2907 C2906 1.369 . S
C2907 C2908 1.410 . S
C2907 C2915 1.503 . S
C2908 C2907 1.410 . S
C2908 C2909 1.392 . S
C2908 C2911 1.511 . S
C2909 C2905 1.376 . S
C2909 C2908 1.392 . S
C2909 H2921 0.929 . S
C2910 C2906 1.531 . S
C2910 H2922 0.960 . S
C2910 H2923 0.962 . S
C2910 H2924 0.960 . S
C2911 C2908 1.511 . S
C2911 H2925 0.986 . S
C2911 H2926 0.961 . S
C2911 H2927 0.961 . S
C2912 C2913 1.370 1_565 S
C2912 C2914 1.363 . S
C2912 H2928 0.931 . S
C2913 C2912 1.370 1_545 S
C2913 C2917 1.408 . S
C2914 C2912 1.363 . S
C2914 C2915 1.370 1_565 S
C2914 C2918 1.524 . S
C2915 C2907 1.503 . S
C2915 C2914 1.370 1_545 S
C2915 C2916 1.403 . S
C2916 C2915 1.403 . S
C2916 C2917 1.404 . S
C2916 C2919 1.539 . S
C2917 C2913 1.408 . S
C2917 C2916 1.404 . S
C2917 H2929 0.930 . S
C2918 C2914 1.524 . S
C2918 H2930 0.956 . S
C2918 H2931 0.961 . S
C2918 H2932 0.961 . S
C2919 C2916 1.539 . S
C2919 H2933 0.958 . S
C2919 H2934 0.961 . S
C2919 H2935 0.960 . S
H2920 C2904 0.931 . S
H2921 C2909 0.929 . S
H2922 C2910 0.960 . S
H2923 C2910 0.962 . S
H2924 C2910 0.960 . S
H2925 C2911 0.986 . S
H2926 C2911 0.961 . S
H2927 C2911 0.961 . S
H2928 C2912 0.931 . S
H2929 C2917 0.930 . S
H2930 C2918 0.956 . S
H2931 C2918 0.961 . S
H2932 C2918 0.961 . S
H2933 C2919 0.958 . S
H2934 C2919 0.961 . S
H2935 C2919 0.960 . S
C2936 C2937 1.391 . S
C2936 C2938 1.394 . S
C2936 H2952 0.931 . S
C2937 C2936 1.391 . S
C2937 C2941 1.376 . S
C2938 C2936 1.394 . S
C2938 C2939 1.369 . S
C2938 C2942 1.531 . S
C2939 C2938 1.369 . S
C2939 C2940 1.410 . S
C2939 C2947 1.503 . S
C2940 C2939 1.410 . S
C2940 C2941 1.392 . S
C2940 C2943 1.511 . S
C2941 C2937 1.376 . S
C2941 C2940 1.392 . S
C2941 H2953 0.929 . S
C2942 C2938 1.531 . S
C2942 H2954 0.960 . S
C2942 H2955 0.962 . S
C2942 H2956 0.960 . S
C2943 C2940 1.511 . S
C2943 H2957 0.961 . S
C2943 H2958 0.961 . S
C2943 H2959 0.961 . S
C2944 C2945 1.370 . S
C2944 C2946 1.363 . S
C2944 H2960 0.931 . S
C2945 C2944 1.370 . S
C2945 C2949 1.408 . S
C2946 C2944 1.363 . S
C2946 C2947 1.370 . S
C2946 C2950 1.524 . S
C2947 C2939 1.503 . S
C2947 C2946 1.370 . S
C2947 C2948 1.403 . S
C2948 C2947 1.403 . S
C2948 C2949 1.404 . S
C2948 C2951 1.539 . S
C2949 C2945 1.408 . S
C2949 C2948 1.404 . S
C2949 H2961 0.930 . S
C2950 C2946 1.524 . S
C2950 H2962 0.956 . S
C2950 H2963 0.961 . S
C2950 H2964 0.961 . S
C2951 C2948 1.539 . S
C2951 H2965 0.958 . S
C2951 H2966 0.961 . S
C2951 H2967 0.960 . S
H2952 C2936 0.931 . S
H2953 C2941 0.929 . S
H2954 C2942 0.960 . S
H2955 C2942 0.962 . S
H2956 C2942 0.960 . S
H2957 C2943 0.961 . S
H2958 C2943 0.961 . S
H2959 C2943 0.961 . S
H2960 C2944 0.931 . S
H2961 C2949 0.930 . S
H2962 C2950 0.956 . S
H2963 C2950 0.961 . S
H2964 C2950 0.961 . S
H2965 C2951 0.958 . S
H2966 C2951 0.961 . S
H2967 C2951 0.960 . S
C2968 C2969 1.391 . S
C2968 C2970 1.394 . S
C2968 H2984 0.931 . S
C2969 C2968 1.391 . S
C2969 C2973 1.376 . S
C2970 C2968 1.394 . S
C2970 C2971 1.369 . S
C2970 C2974 1.531 . S
C2971 C2970 1.369 . S
C2971 C2972 1.410 . S
C2971 C2979 1.503 . S
C2972 C2971 1.410 . S
C2972 C2973 1.392 . S
C2972 C2975 1.511 1_554 S
C2973 C2969 1.376 . S
C2973 C2972 1.392 . S
C2973 H2985 0.929 1_554 S
C2974 C2970 1.531 . S
C2974 H2986 0.960 . S
C2974 H2987 0.962 . S
C2974 H2988 0.960 . S
C2975 C2972 1.511 1_556 S
C2975 H2989 0.961 . S
C2975 H2990 0.961 . S
C2975 H2991 0.961 . S
C2976 C2977 1.371 . S
C2976 C2978 1.363 . S
C2976 H2992 0.929 1_554 S
C2977 C2976 1.371 . S
C2977 C2981 1.408 . S
C2978 C2976 1.363 . S
C2978 C2979 1.370 . S
C2978 C2982 1.524 1_554 S
C2979 C2971 1.503 . S
C2979 C2978 1.370 . S
C2979 C2980 1.403 . S
C2980 C2979 1.403 . S
C2980 C2981 1.404 . S
C2980 C2983 1.539 . S
C2981 C2977 1.408 . S
C2981 C2980 1.404 . S
C2981 H2993 0.930 . S
C2982 C2978 1.524 1_556 S
C2982 H2994 0.956 1_556 S
C2982 H2995 0.961 . S
C2982 H2996 0.961 . S
C2983 C2980 1.539 . S
C2983 H2997 0.958 . S
C2983 H2998 0.961 . S
C2983 H2999 0.960 . S
H2984 C2968 0.931 . S
H2985 C2973 0.929 1_556 S
H2986 C2974 0.960 . S
H2987 C2974 0.962 . S
H2988 C2974 0.960 . S
H2989 C2975 0.961 . S
H2990 C2975 0.961 . S
H2991 C2975 0.961 . S
H2992 C2976 0.929 1_556 S
H2993 C2981 0.930 . S
H2994 C2982 0.956 1_554 S
H2995 C2982 0.961 . S
H2996 C2982 0.961 . S
H2997 C2983 0.958 . S
H2998 C2983 0.961 . S
H2999 C2983 0.960 . S
C3000 C3001 1.391 . S
C3000 C3002 1.394 . S
C3000 H3016 0.931 . S
C3001 C3000 1.391 . S
C3001 C3005 1.376 . S
C3002 C3000 1.394 . S
C3002 C3003 1.369 . S
C3002 C3006 1.531 . S
C3003 C3002 1.369 . S
C3003 C3004 1.410 . S
C3003 C3011 1.503 . S
C3004 C3003 1.410 . S
C3004 C3005 1.392 . S
C3004 C3007 1.511 . S
C3005 C3001 1.376 . S
C3005 C3004 1.392 . S
C3005 H3017 0.929 . S
C3006 C3002 1.531 . S
C3006 H3018 0.960 . S
C3006 H3019 0.962 . S
C3006 H3020 0.960 . S
C3007 C3004 1.511 . S
C3007 H3021 0.961 . S
C3007 H3022 0.961 . S
C3007 H3023 0.961 . S
C3008 C3009 1.370 . S
C3008 C3010 1.363 . S
C3008 H3024 0.931 . S
C3009 C3008 1.370 . S
C3009 C3013 1.408 . S
C3010 C3008 1.363 . S
C3010 C3011 1.370 . S
C3010 C3014 1.524 . S
C3011 C3003 1.503 . S
C3011 C3010 1.370 . S
C3011 C3012 1.403 . S
C3012 C3011 1.403 . S
C3012 C3013 1.404 . S
C3012 C3015 1.539 . S
C3013 C3009 1.408 . S
C3013 C3012 1.404 . S
C3013 H3025 0.930 . S
C3014 C3010 1.524 . S
C3014 H3026 0.956 . S
C3014 H3027 0.961 . S
C3014 H3028 0.961 . S
C3015 C3012 1.539 . S
C3015 H3029 0.958 . S
C3015 H3030 0.961 . S
C3015 H3031 0.960 . S
H3016 C3000 0.931 . S
H3017 C3005 0.929 . S
H3018 C3006 0.960 . S
H3019 C3006 0.962 . S
H3020 C3006 0.960 . S
H3021 C3007 0.961 . S
H3022 C3007 0.961 . S
H3023 C3007 0.961 . S
H3024 C3008 0.931 . S
H3025 C3013 0.930 . S
H3026 C3014 0.956 . S
H3027 C3014 0.961 . S
H3028 C3014 0.961 . S
H3029 C3015 0.958 . S
H3030 C3015 0.961 . S
H3031 C3015 0.960 . S
C3032 C3033 1.391 . S
C3032 C3034 1.394 . S
C3032 H3048 0.931 . S
C3033 C3032 1.391 . S
C3033 C3037 1.376 1_556 S
C3034 C3032 1.394 . S
C3034 C3035 1.369 . S
C3034 C3038 1.531 . S
C3035 C3034 1.369 . S
C3035 C3036 1.410 1_556 S
C3035 C3043 1.503 . S
C3036 C3035 1.410 1_554 S
C3036 C3037 1.392 . S
C3036 C3039 1.511 . S
C3037 C3033 1.376 1_554 S
C3037 C3036 1.392 . S
C3037 H3049 0.929 . S
C3038 C3034 1.531 . S
C3038 H3050 0.960 . S
C3038 H3051 0.962 . S
C3038 H3052 0.960 . S
C3039 C3036 1.511 . S
C3039 H3053 0.961 . S
C3039 H3054 0.961 . S
C3039 H3055 0.961 . S
C3040 C3041 1.370 1_554 S
C3040 C3042 1.363 . S
C3040 H3056 0.931 . S
C3041 C3040 1.370 1_556 S
C3041 C3045 1.408 . S
C3042 C3040 1.363 . S
C3042 C3043 1.370 1_554 S
C3042 C3046 1.524 . S
C3043 C3035 1.503 . S
C3043 C3042 1.370 1_556 S
C3043 C3044 1.403 . S
C3044 C3043 1.403 . S
C3044 C3045 1.404 . S
C3044 C3047 1.539 . S
C3045 C3041 1.408 . S
C3045 C3044 1.404 . S
C3045 H3057 0.930 . S
C3046 C3042 1.524 . S
C3046 H3058 0.956 . S
C3046 H3059 0.961 . S
C3046 H3060 0.961 . S
C3047 C3044 1.539 . S
C3047 H3061 0.958 . S
C3047 H3062 0.961 . S
C3047 H3063 0.960 . S
H3048 C3032 0.931 . S
H3049 C3037 0.929 . S
H3050 C3038 0.960 . S
H3051 C3038 0.962 . S
H3052 C3038 0.960 . S
H3053 C3039 0.961 . S
H3054 C3039 0.961 . S
H3055 C3039 0.961 . S
H3056 C3040 0.931 . S
H3057 C3045 0.930 . S
H3058 C3046 0.956 . S
H3059 C3046 0.961 . S
H3060 C3046 0.961 . S
H3061 C3047 0.958 . S
H3062 C3047 0.961 . S
H3063 C3047 0.960 . S
C3064 C3065 1.391 . S
C3064 C3066 1.394 . S
C3064 H3080 0.931 . S
C3065 C3064 1.391 . S
C3065 C3069 1.376 . S
C3066 C3064 1.394 . S
C3066 C3067 1.369 . S
C3066 C3070 1.531 . S
C3067 C3066 1.369 . S
C3067 C3068 1.410 . S
C3067 C3075 1.503 . S
C3068 C3067 1.410 . S
C3068 C3069 1.392 . S
C3068 C3071 1.511 . S
C3069 C3065 1.376 . S
C3069 C3068 1.392 . S
C3069 H3081 0.929 . S
C3070 C3066 1.531 . S
C3070 H3082 0.960 . S
C3070 H3083 0.962 . S
C3070 H3084 0.960 . S
C3071 C3068 1.511 . S
C3071 H3085 0.961 . S
C3071 H3086 0.961 . S
C3071 H3087 0.961 . S
C3072 C3073 1.370 . S
C3072 C3074 1.363 . S
C3072 H3088 0.931 . S
C3073 C3072 1.370 . S
C3073 C3077 1.408 . S
C3074 C3072 1.363 . S
C3074 C3075 1.370 . S
C3074 C3078 1.524 . S
C3075 C3067 1.503 . S
C3075 C3074 1.370 . S
C3075 C3076 1.403 . S
C3076 C3075 1.403 . S
C3076 C3077 1.404 . S
C3076 C3079 1.539 . S
C3077 C3073 1.408 . S
C3077 C3076 1.404 . S
C3077 H3089 0.930 . S
C3078 C3074 1.524 . S
C3078 H3090 0.956 . S
C3078 H3091 0.961 . S
C3078 H3092 0.961 . S
C3079 C3076 1.539 . S
C3079 H3093 0.958 . S
C3079 H3094 0.961 . S
C3079 H3095 0.960 . S
H3080 C3064 0.931 . S
H3081 C3069 0.929 . S
H3082 C3070 0.960 . S
H3083 C3070 0.962 . S
H3084 C3070 0.960 . S
H3085 C3071 0.961 . S
H3086 C3071 0.961 . S
H3087 C3071 0.961 . S
H3088 C3072 0.931 . S
H3089 C3077 0.930 . S
H3090 C3078 0.956 . S
H3091 C3078 0.961 . S
H3092 C3078 0.961 . S
H3093 C3079 0.958 . S
H3094 C3079 0.961 . S
H3095 C3079 0.960 . S
C3096 C3097 1.391 . S
C3096 C3098 1.394 . S
C3096 H3112 0.918 1_455 S
C3097 C3096 1.391 . S
C3097 C3101 1.376 . S
C3098 C3096 1.394 . S
C3098 C3099 1.369 . S
C3098 C3102 1.531 1_455 S
C3099 C3098 1.369 . S
C3099 C3100 1.410 . S
C3099 C3107 1.503 . S
C3100 C3099 1.410 . S
C3100 C3101 1.392 . S
C3100 C3103 1.511 . S
C3101 C3097 1.376 . S
C3101 C3100 1.392 . S
C3101 H3113 0.929 . S
C3102 C3098 1.531 1_655 S
C3102 H3114 0.960 . S
C3102 H3115 0.962 . S
C3102 H3116 0.960 . S
C3103 C3100 1.511 . S
C3103 H3117 0.961 . S
C3103 H3118 0.961 . S
C3103 H3119 0.961 . S
C3104 C3105 1.370 1_655 S
C3104 C3106 1.363 1_655 S
C3104 H3120 0.931 . S
C3105 C3104 1.370 1_455 S
C3105 C3109 1.408 . S
C3106 C3104 1.363 1_455 S
C3106 C3107 1.374 . S
C3106 C3110 1.521 1_455 S
C3107 C3099 1.503 . S
C3107 C3106 1.374 . S
C3107 C3108 1.403 . S
C3108 C3107 1.403 . S
C3108 C3109 1.404 . S
C3108 C3111 1.539 . S
C3109 C3105 1.408 . S
C3109 C3108 1.404 . S
C3109 H3121 0.930 . S
C3110 C3106 1.521 1_655 S
C3110 H3122 0.956 . S
C3110 H3123 0.961 . S
C3110 H3124 0.961 . S
C3111 C3108 1.539 . S
C3111 H3125 0.958 . S
C3111 H3126 0.961 . S
C3111 H3127 0.960 . S
H3112 C3096 0.918 1_655 S
H3113 C3101 0.929 . S
H3114 C3102 0.960 . S
H3115 C3102 0.962 . S
H3116 C3102 0.960 . S
H3117 C3103 0.961 . S
H3118 C3103 0.961 . S
H3119 C3103 0.961 . S
H3120 C3104 0.931 . S
H3121 C3109 0.930 . S
H3122 C3110 0.956 . S
H3123 C3110 0.961 . S
H3124 C3110 0.961 . S
H3125 C3111 0.958 . S
H3126 C3111 0.961 . S
H3127 C3111 0.960 . S
C3128 C3129 1.391 . S
C3128 C3130 1.394 . S
C3128 H3144 0.931 . S
C3129 C3128 1.391 . S
C3129 C3133 1.376 . S
C3130 C3128 1.394 . S
C3130 C3131 1.369 . S
C3130 C3134 1.531 . S
C3131 C3130 1.369 . S
C3131 C3132 1.410 . S
C3131 C3139 1.503 . S
C3132 C3131 1.410 . S
C3132 C3133 1.392 . S
C3132 C3135 1.511 . S
C3133 C3129 1.376 . S
C3133 C3132 1.392 . S
C3133 H3145 0.929 . S
C3134 C3130 1.531 . S
C3134 H3146 0.960 . S
C3134 H3147 0.962 . S
C3134 H3148 0.960 . S
C3135 C3132 1.511 . S
C3135 H3149 0.961 . S
C3135 H3150 0.961 . S
C3135 H3151 0.961 . S
C3136 C3137 1.370 . S
C3136 C3138 1.363 . S
C3136 H3152 0.931 . S
C3137 C3136 1.370 . S
C3137 C3141 1.408 . S
C3138 C3136 1.363 . S
C3138 C3139 1.370 . S
C3138 C3142 1.524 . S
C3139 C3131 1.503 . S
C3139 C3138 1.370 . S
C3139 C3140 1.403 . S
C3140 C3139 1.403 . S
C3140 C3141 1.404 . S
C3140 C3143 1.539 . S
C3141 C3137 1.408 . S
C3141 C3140 1.404 . S
C3141 H3153 0.930 . S
C3142 C3138 1.524 . S
C3142 H3154 0.956 . S
C3142 H3155 0.961 . S
C3142 H3156 0.961 . S
C3143 C3140 1.539 . S
C3143 H3157 0.958 . S
C3143 H3158 0.961 . S
C3143 H3159 0.960 . S
H3144 C3128 0.931 . S
H3145 C3133 0.929 . S
H3146 C3134 0.960 . S
H3147 C3134 0.962 . S
H3148 C3134 0.960 . S
H3149 C3135 0.961 . S
H3150 C3135 0.961 . S
H3151 C3135 0.961 . S
H3152 C3136 0.931 . S
H3153 C3141 0.930 . S
H3154 C3142 0.956 . S
H3155 C3142 0.961 . S
H3156 C3142 0.961 . S
H3157 C3143 0.958 . S
H3158 C3143 0.961 . S
H3159 C3143 0.960 . S
C3160 C3161 1.391 1_455 S
C3160 C3162 1.394 . S
C3160 H3176 0.931 . S
C3161 C3160 1.391 1_655 S
C3161 C3165 1.376 . S
C3162 C3160 1.394 . S
C3162 C3163 1.369 1_455 S
C3162 C3166 1.531 . S
C3163 C3162 1.369 1_655 S
C3163 C3164 1.410 . S
C3163 C3171 1.503 . S
C3164 C3163 1.410 . S
C3164 C3165 1.392 . S
C3164 C3167 1.511 . S
C3165 C3161 1.376 . S
C3165 C3164 1.392 . S
C3165 H3177 0.929 . S
C3166 C3162 1.531 . S
C3166 H3178 0.960 . S
C3166 H3179 0.962 . S
C3166 H3180 0.960 . S
C3167 C3164 1.511 . S
C3167 H3181 0.961 . S
C3167 H3182 0.961 . S
C3167 H3183 0.961 . S
C3168 C3169 1.370 1_455 S
C3168 C3170 1.363 . S
C3168 H3184 0.931 . S
C3169 C3168 1.370 1_655 S
C3169 C3173 1.408 . S
C3170 C3168 1.363 . S
C3170 C3171 1.370 1_455 S
C3170 C3174 1.524 . S
C3171 C3163 1.503 . S
C3171 C3170 1.370 1_655 S
C3171 C3172 1.403 . S
C3172 C3171 1.403 . S
C3172 C3173 1.404 . S
C3172 C3175 1.539 . S
C3173 C3169 1.408 . S
C3173 C3172 1.404 . S
C3173 H3185 0.930 . S
C3174 C3170 1.524 . S
C3174 H3186 0.956 . S
C3174 H3187 0.961 . S
C3174 H3188 0.961 . S
C3175 C3172 1.539 . S
C3175 H3189 0.958 . S
C3175 H3190 0.961 . S
C3175 H3191 0.960 . S
H3176 C3160 0.931 . S
H3177 C3165 0.929 . S
H3178 C3166 0.960 . S
H3179 C3166 0.962 . S
H3180 C3166 0.960 . S
H3181 C3167 0.961 . S
H3182 C3167 0.961 . S
H3183 C3167 0.961 . S
H3184 C3168 0.931 . S
H3185 C3173 0.930 . S
H3186 C3174 0.956 . S
H3187 C3174 0.961 . S
H3188 C3174 0.961 . S
H3189 C3175 0.958 . S
H3190 C3175 0.961 . S
H3191 C3175 0.960 . S
C3192 C3193 1.391 . S
C3192 C3194 1.394 . S
C3192 H3208 0.931 . S
C3193 C3192 1.391 . S
C3193 C3197 1.376 . S
C3194 C3192 1.394 . S
C3194 C3195 1.369 . S
C3194 C3198 1.531 . S
C3195 C3194 1.369 . S
C3195 C3196 1.410 . S
C3195 C3203 1.503 . S
C3196 C3195 1.410 . S
C3196 C3197 1.392 . S
C3196 C3199 1.511 . S
C3197 C3193 1.376 . S
C3197 C3196 1.392 . S
C3197 H3209 0.929 . S
C3198 C3194 1.531 . S
C3198 H3210 0.960 . S
C3198 H3211 0.962 . S
C3198 H3212 0.960 . S
C3199 C3196 1.511 . S
C3199 H3213 0.961 . S
C3199 H3214 0.961 . S
C3199 H3215 0.961 . S
C3200 C3201 1.370 . S
C3200 C3202 1.363 . S
C3200 H3216 0.931 . S
C3201 C3200 1.370 . S
C3201 C3205 1.408 . S
C3202 C3200 1.363 . S
C3202 C3203 1.370 . S
C3202 C3206 1.524 . S
C3203 C3195 1.503 . S
C3203 C3202 1.370 . S
C3203 C3204 1.403 . S
C3204 C3203 1.403 . S
C3204 C3205 1.404 . S
C3204 C3207 1.539 . S
C3205 C3201 1.408 . S
C3205 C3204 1.404 . S
C3205 H3217 0.930 . S
C3206 C3202 1.524 . S
C3206 H3218 0.956 . S
C3206 H3219 0.961 . S
C3206 H3220 0.961 . S
C3207 C3204 1.539 . S
C3207 H3221 0.958 . S
C3207 H3222 0.961 . S
C3207 H3223 0.960 . S
H3208 C3192 0.931 . S
H3209 C3197 0.929 . S
H3210 C3198 0.960 . S
H3211 C3198 0.962 . S
H3212 C3198 0.960 . S
H3213 C3199 0.961 . S
H3214 C3199 0.961 . S
H3215 C3199 0.961 . S
H3216 C3200 0.931 . S
H3217 C3205 0.930 . S
H3218 C3206 0.956 . S
H3219 C3206 0.961 . S
H3220 C3206 0.961 . S
H3221 C3207 0.958 . S
H3222 C3207 0.961 . S
H3223 C3207 0.960 . S
C3224 C3225 1.391 . S
C3224 C3226 1.394 . S
C3224 H3240 0.931 . S
C3225 C3224 1.391 . S
C3225 C3229 1.376 . S
C3226 C3224 1.394 . S
C3226 C3227 1.369 . S
C3226 C3230 1.531 . S
C3227 C3226 1.369 . S
C3227 C3228 1.410 . S
C3227 C3235 1.503 . S
C3228 C3227 1.410 . S
C3228 C3229 1.392 . S
C3228 C3231 1.511 . S
C3229 C3225 1.376 . S
C3229 C3228 1.392 . S
C3229 H3241 0.929 . S
C3230 C3226 1.531 . S
C3230 H3242 0.960 . S
C3230 H3243 0.962 . S
C3230 H3244 0.960 . S
C3231 C3228 1.511 . S
C3231 H3245 0.961 . S
C3231 H3246 0.961 . S
C3231 H3247 0.961 . S
C3232 C3233 1.370 . S
C3232 C3234 1.363 . S
C3232 H3248 0.931 . S
C3233 C3232 1.370 . S
C3233 C3237 1.408 . S
C3234 C3232 1.363 . S
C3234 C3235 1.370 . S
C3234 C3238 1.524 . S
C3235 C3227 1.503 . S
C3235 C3234 1.370 . S
C3235 C3236 1.403 . S
C3236 C3235 1.403 . S
C3236 C3237 1.404 . S
C3236 C3239 1.539 . S
C3237 C3233 1.408 . S
C3237 C3236 1.404 . S
C3237 H3249 0.930 . S
C3238 C3234 1.524 . S
C3238 H3250 0.956 . S
C3238 H3251 0.961 . S
C3238 H3252 0.961 . S
C3239 C3236 1.539 . S
C3239 H3253 0.958 . S
C3239 H3254 0.961 . S
C3239 H3255 0.960 . S
H3240 C3224 0.931 . S
H3241 C3229 0.929 . S
H3242 C3230 0.960 . S
H3243 C3230 0.962 . S
H3244 C3230 0.960 . S
H3245 C3231 0.961 . S
H3246 C3231 0.961 . S
H3247 C3231 0.961 . S
H3248 C3232 0.931 . S
H3249 C3237 0.930 . S
H3250 C3238 0.956 . S
H3251 C3238 0.961 . S
H3252 C3238 0.961 . S
H3253 C3239 0.958 . S
H3254 C3239 0.961 . S
H3255 C3239 0.960 . S
C3256 C3257 1.375 1_545 S
C3256 C3258 1.394 . S
C3256 H3272 0.931 . S
C3257 C3256 1.375 1_565 S
C3257 C3261 1.386 . S
C3258 C3256 1.394 . S
C3258 C3259 1.370 . S
C3258 C3262 1.531 . S
C3259 C3258 1.370 . S
C3259 C3260 1.408 1_545 S
C3259 C3267 1.505 . S
C3260 C3259 1.408 1_565 S
C3260 C3261 1.392 . S
C3260 C3263 1.511 . S
C3261 C3257 1.386 . S
C3261 C3260 1.392 . S
C3261 H3273 0.929 . S
C3262 C3258 1.531 . S
C3262 H3274 0.960 . S
C3262 H3275 0.962 . S
C3262 H3276 0.960 . S
C3263 C3260 1.511 . S
C3263 H3277 0.961 . S
C3263 H3278 0.961 . S
C3263 H3279 0.961 . S
C3264 C3265 1.370 . S
C3264 C3266 1.363 . S
C3264 H3280 0.931 . S
C3265 C3264 1.370 . S
C3265 C3269 1.408 1_545 S
C3266 C3264 1.363 . S
C3266 C3267 1.370 . S
C3266 C3270 1.524 . S
C3267 C3259 1.505 . S
C3267 C3266 1.370 . S
C3267 C3268 1.403 1_545 S
C3268 C3267 1.403 1_565 S
C3268 C3269 1.404 . S
C3268 C3271 1.539 . S
C3269 C3265 1.408 1_565 S
C3269 C3268 1.404 . S
C3269 H3281 0.930 . S
C3270 C3266 1.524 . S
C3270 H3282 0.956 . S
C3270 H3283 0.961 . S
C3270 H3284 0.961 . S
C3271 C3268 1.539 . S
C3271 H3285 0.958 . S
C3271 H3286 0.961 . S
C3271 H3287 0.960 . S
H3272 C3256 0.931 . S
H3273 C3261 0.929 . S
H3274 C3262 0.960 . S
H3275 C3262 0.962 . S
H3276 C3262 0.960 . S
H3277 C3263 0.961 . S
H3278 C3263 0.961 . S
H3279 C3263 0.961 . S
H3280 C3264 0.931 . S
H3281 C3269 0.930 . S
H3282 C3270 0.956 . S
H3283 C3270 0.961 . S
H3284 C3270 0.961 . S
H3285 C3271 0.958 . S
H3286 C3271 0.961 . S
H3287 C3271 0.960 . S
C3288 C3289 1.391 . S
C3288 C3290 1.394 . S
C3288 H3304 0.931 . S
C3289 C3288 1.391 . S
C3289 C3293 1.376 . S
C3290 C3288 1.394 . S
C3290 C3291 1.369 . S
C3290 C3294 1.531 . S
C3291 C3290 1.369 . S
C3291 C3292 1.410 . S
C3291 C3299 1.503 . S
C3292 C3291 1.410 . S
C3292 C3293 1.392 . S
C3292 C3295 1.511 1_565 S
C3293 C3289 1.376 . S
C3293 C3292 1.392 . S
C3293 H3305 0.929 1_565 S
C3294 C3290 1.531 . S
C3294 H3306 0.960 . S
C3294 H3307 0.962 . S
C3294 H3308 0.960 . S
C3295 C3292 1.511 1_545 S
C3295 H3309 0.961 . S
C3295 H3310 0.961 . S
C3295 H3311 0.961 . S
C3296 C3297 1.370 1_545 S
C3296 C3298 1.362 1_545 S
C3296 H3312 0.931 . S
C3297 C3296 1.370 1_565 S
C3297 C3301 1.408 . S
C3298 C3296 1.362 1_565 S
C3298 C3299 1.392 . S
C3298 C3302 1.506 1_565 S
C3299 C3291 1.503 . S
C3299 C3298 1.392 . S
C3299 C3300 1.403 . S
C3300 C3299 1.403 . S
C3300 C3301 1.404 . S
C3300 C3303 1.539 . S
C3301 C3297 1.408 . S
C3301 C3300 1.404 . S
C3301 H3313 0.930 . S
C3302 C3298 1.506 1_545 S
C3302 H3314 0.956 . S
C3302 H3315 0.961 . S
C3302 H3316 0.961 . S
C3303 C3300 1.539 . S
C3303 H3317 0.958 . S
C3303 H3318 0.961 . S
C3303 H3319 0.960 . S
H3304 C3288 0.931 . S
H3305 C3293 0.929 1_545 S
H3306 C3294 0.960 . S
H3307 C3294 0.962 . S
H3308 C3294 0.960 . S
H3309 C3295 0.961 . S
H3310 C3295 0.961 . S
H3311 C3295 0.961 . S
H3312 C3296 0.931 . S
H3313 C3301 0.930 . S
H3314 C3302 0.956 . S
H3315 C3302 0.961 . S
H3316 C3302 0.961 . S
H3317 C3303 0.958 . S
H3318 C3303 0.961 . S
H3319 C3303 0.960 . S
C3320 C3321 1.391 . S
C3320 C3322 1.394 . S
C3320 H3336 0.931 . S
C3321 C3320 1.391 . S
C3321 C3325 1.376 . S
C3322 C3320 1.394 . S
C3322 C3323 1.369 . S
C3322 C3326 1.531 . S
C3323 C3322 1.369 . S
C3323 C3324 1.410 . S
C3323 C3331 1.503 . S
C3324 C3323 1.410 . S
C3324 C3325 1.392 . S
C3324 C3327 1.511 . S
C3325 C3321 1.376 . S
C3325 C3324 1.392 . S
C3325 H3337 0.929 . S
C3326 C3322 1.531 . S
C3326 H3338 0.960 . S
C3326 H3339 0.962 . S
C3326 H3340 0.960 . S
C3327 C3324 1.511 . S
C3327 H3341 0.961 . S
C3327 H3342 0.961 . S
C3327 H3343 0.961 . S
C3328 C3329 1.370 . S
C3328 C3330 1.363 . S
C3328 H3344 0.931 . S
C3329 C3328 1.370 . S
C3329 C3333 1.408 . S
C3330 C3328 1.363 . S
C3330 C3331 1.370 . S
C3330 C3334 1.524 . S
C3331 C3323 1.503 . S
C3331 C3330 1.370 . S
C3331 C3332 1.403 . S
C3332 C3331 1.403 . S
C3332 C3333 1.404 . S
C3332 C3335 1.539 . S
C3333 C3329 1.408 . S
C3333 C3332 1.404 . S
C3333 H3345 0.930 . S
C3334 C3330 1.524 . S
C3334 H3346 0.956 . S
C3334 H3347 0.961 . S
C3334 H3348 0.961 . S
C3335 C3332 1.539 . S
C3335 H3349 0.958 . S
C3335 H3350 0.961 . S
C3335 H3351 0.960 . S
H3336 C3320 0.931 . S
H3337 C3325 0.929 . S
H3338 C3326 0.960 . S
H3339 C3326 0.962 . S
H3340 C3326 0.960 . S
H3341 C3327 0.961 . S
H3342 C3327 0.961 . S
H3343 C3327 0.961 . S
H3344 C3328 0.931 . S
H3345 C3333 0.930 . S
H3346 C3334 0.956 . S
H3347 C3334 0.961 . S
H3348 C3334 0.961 . S
H3349 C3335 0.958 . S
H3350 C3335 0.961 . S
H3351 C3335 0.960 . S
C3352 C3353 1.392 1_554 S
C3352 C3354 1.394 . S
C3352 H3368 0.930 . S
C3353 C3352 1.392 1_556 S
C3353 C3357 1.376 . S
C3354 C3352 1.394 . S
C3354 C3355 1.369 1_554 S
C3354 C3358 1.531 . S
C3355 C3354 1.369 1_556 S
C3355 C3356 1.410 . S
C3355 C3363 1.503 . S
C3356 C3355 1.410 . S
C3356 C3357 1.392 . S
C3356 C3359 1.511 . S
C3357 C3353 1.376 . S
C3357 C3356 1.392 . S
C3357 H3369 0.929 . S
C3358 C3354 1.531 . S
C3358 H3370 0.960 . S
C3358 H3371 0.962 . S
C3358 H3372 0.960 . S
C3359 C3356 1.511 . S
C3359 H3373 0.961 . S
C3359 H3374 0.961 . S
C3359 H3375 0.961 . S
C3360 C3361 1.370 . S
C3360 C3362 1.363 . S
C3360 H3376 0.931 . S
C3361 C3360 1.370 . S
C3361 C3365 1.408 . S
C3362 C3360 1.363 . S
C3362 C3363 1.370 . S
C3362 C3366 1.524 . S
C3363 C3355 1.503 . S
C3363 C3362 1.370 . S
C3363 C3364 1.403 . S
C3364 C3363 1.403 . S
C3364 C3365 1.404 . S
C3364 C3367 1.543 . S
C3365 C3361 1.408 . S
C3365 C3364 1.404 . S
C3365 H3377 0.930 1_556 S
C3366 C3362 1.524 . S
C3366 H3378 0.956 . S
C3366 H3379 0.961 . S
C3366 H3380 0.961 . S
C3367 C3364 1.543 . S
C3367 H3381 0.913 1_556 S
C3367 H3382 0.982 . S
C3367 H3383 0.983 . S
H3368 C3352 0.930 . S
H3369 C3357 0.929 . S
H3370 C3358 0.960 . S
H3371 C3358 0.962 . S
H3372 C3358 0.960 . S
H3373 C3359 0.961 . S
H3374 C3359 0.961 . S
H3375 C3359 0.961 . S
H3376 C3360 0.931 . S
H3377 C3365 0.930 1_554 S
H3378 C3366 0.956 . S
H3379 C3366 0.961 . S
H3380 C3366 0.961 . S
H3381 C3367 0.913 1_554 S
H3382 C3367 0.982 . S
H3383 C3367 0.983 . S
C3384 C3385 1.391 . S
C3384 C3386 1.394 . S
C3384 H3400 0.931 . S
C3385 C3384 1.391 . S
C3385 C3389 1.376 . S
C3386 C3384 1.394 . S
C3386 C3387 1.369 . S
C3386 C3390 1.531 . S
C3387 C3386 1.369 . S
C3387 C3388 1.410 . S
C3387 C3395 1.503 . S
C3388 C3387 1.410 . S
C3388 C3389 1.392 . S
C3388 C3391 1.511 . S
C3389 C3385 1.376 . S
C3389 C3388 1.392 . S
C3389 H3401 0.929 . S
C3390 C3386 1.531 . S
C3390 H3402 0.960 . S
C3390 H3403 0.962 . S
C3390 H3404 0.960 . S
C3391 C3388 1.511 . S
C3391 H3405 0.961 . S
C3391 H3406 0.961 . S
C3391 H3407 0.961 . S
C3392 C3393 1.370 . S
C3392 C3394 1.363 . S
C3392 H3408 0.931 . S
C3393 C3392 1.370 . S
C3393 C3397 1.408 . S
C3394 C3392 1.363 . S
C3394 C3395 1.370 . S
C3394 C3398 1.524 . S
C3395 C3387 1.503 . S
C3395 C3394 1.370 . S
C3395 C3396 1.403 . S
C3396 C3395 1.403 . S
C3396 C3397 1.404 . S
C3396 C3399 1.539 . S
C3397 C3393 1.408 . S
C3397 C3396 1.404 . S
C3397 H3409 0.930 . S
C3398 C3394 1.524 . S
C3398 H3410 0.956 . S
C3398 H3411 0.961 . S
C3398 H3412 0.961 . S
C3399 C3396 1.539 . S
C3399 H3413 0.958 . S
C3399 H3414 0.961 . S
C3399 H3415 0.960 . S
H3400 C3384 0.931 . S
H3401 C3389 0.929 . S
H3402 C3390 0.960 . S
H3403 C3390 0.962 . S
H3404 C3390 0.960 . S
H3405 C3391 0.961 . S
H3406 C3391 0.961 . S
H3407 C3391 0.961 . S
H3408 C3392 0.931 . S
H3409 C3397 0.930 . S
H3410 C3398 0.956 . S
H3411 C3398 0.961 . S
H3412 C3398 0.961 . S
H3413 C3399 0.958 . S
H3414 C3399 0.961 . S
H3415 C3399 0.960 . S
C3416 C3417 1.393 1_556 S
C3416 C3418 1.394 . S
C3416 H3432 0.931 . S
C3417 C3416 1.393 1_554 S
C3417 C3421 1.373 . S
C3418 C3416 1.394 . S
C3418 C3419 1.369 1_556 S
C3418 C3422 1.531 . S
C3419 C3418 1.369 1_554 S
C3419 C3420 1.410 . S
C3419 C3427 1.503 . S
C3420 C3419 1.410 . S
C3420 C3421 1.392 . S
C3420 C3423 1.511 . S
C3421 C3417 1.373 . S
C3421 C3420 1.392 . S
C3421 H3433 0.929 . S
C3422 C3418 1.531 . S
C3422 H3434 0.960 . S
C3422 H3435 0.962 . S
C3422 H3436 0.960 . S
C3423 C3420 1.511 . S
C3423 H3437 0.961 . S
C3423 H3438 0.961 . S
C3423 H3439 0.961 . S
C3424 C3425 1.370 . S
C3424 C3426 1.363 . S
C3424 H3440 0.931 . S
C3425 C3424 1.370 . S
C3425 C3429 1.378 1_554 S
C3426 C3424 1.363 . S
C3426 C3427 1.370 . S
C3426 C3430 1.524 . S
C3427 C3419 1.503 . S
C3427 C3426 1.370 . S
C3427 C3428 1.403 1_554 S
C3428 C3427 1.403 1_556 S
C3428 C3429 1.419 . S
C3428 C3431 1.539 . S
C3429 C3425 1.378 1_556 S
C3429 C3428 1.419 . S
C3429 H3441 0.947 . S
C3430 C3426 1.524 . S
C3430 H3442 0.956 . S
C3430 H3443 0.961 . S
C3430 H3444 0.961 . S
C3431 C3428 1.539 . S
C3431 H3445 0.958 . S
C3431 H3446 0.961 . S
C3431 H3447 0.960 . S
H3432 C3416 0.931 . S
H3433 C3421 0.929 . S
H3434 C3422 0.960 . S
H3435 C3422 0.962 . S
H3436 C3422 0.960 . S
H3437 C3423 0.961 . S
H3438 C3423 0.961 . S
H3439 C3423 0.961 . S
H3440 C3424 0.931 . S
H3441 C3429 0.947 . S
H3442 C3430 0.956 . S
H3443 C3430 0.961 . S
H3444 C3430 0.961 . S
H3445 C3431 0.958 . S
H3446 C3431 0.961 . S
H3447 C3431 0.960 . S
C3448 C3449 1.391 . S
C3448 C3450 1.394 . S
C3448 H3464 0.931 . S
C3449 C3448 1.391 . S
C3449 C3453 1.376 . S
C3450 C3448 1.394 . S
C3450 C3451 1.369 . S
C3450 C3454 1.531 . S
C3451 C3450 1.369 . S
C3451 C3452 1.410 . S
C3451 C3459 1.503 . S
C3452 C3451 1.410 . S
C3452 C3453 1.392 . S
C3452 C3455 1.511 . S
C3453 C3449 1.376 . S
C3453 C3452 1.392 . S
C3453 H3465 0.929 . S
C3454 C3450 1.531 . S
C3454 H3466 0.960 . S
C3454 H3467 0.962 . S
C3454 H3468 0.960 . S
C3455 C3452 1.511 . S
C3455 H3469 0.961 . S
C3455 H3470 0.961 . S
C3455 H3471 0.961 . S
C3456 C3457 1.370 . S
C3456 C3458 1.363 . S
C3456 H3472 0.931 . S
C3457 C3456 1.370 . S
C3457 C3461 1.408 . S
C3458 C3456 1.363 . S
C3458 C3459 1.370 . S
C3458 C3462 1.524 . S
C3459 C3451 1.503 . S
C3459 C3458 1.370 . S
C3459 C3460 1.403 . S
C3460 C3459 1.403 . S
C3460 C3461 1.404 . S
C3460 C3463 1.539 . S
C3461 C3457 1.408 . S
C3461 C3460 1.404 . S
C3461 H3473 0.930 . S
C3462 C3458 1.524 . S
C3462 H3474 0.956 . S
C3462 H3475 0.961 . S
C3462 H3476 0.961 . S
C3463 C3460 1.539 . S
C3463 H3477 0.958 . S
C3463 H3478 0.961 . S
C3463 H3479 0.960 . S
H3464 C3448 0.931 . S
H3465 C3453 0.929 . S
H3466 C3454 0.960 . S
H3467 C3454 0.962 . S
H3468 C3454 0.960 . S
H3469 C3455 0.961 . S
H3470 C3455 0.961 . S
H3471 C3455 0.961 . S
H3472 C3456 0.931 . S
H3473 C3461 0.930 . S
H3474 C3462 0.956 . S
H3475 C3462 0.961 . S
H3476 C3462 0.961 . S
H3477 C3463 0.958 . S
H3478 C3463 0.961 . S
H3479 C3463 0.960 . S
C3480 C3481 1.391 . S
C3480 C3482 1.393 . S
C3480 H3496 0.931 1_655 S
C3481 C3480 1.391 . S
C3481 C3485 1.376 . S
C3482 C3480 1.393 . S
C3482 C3483 1.383 . S
C3482 C3486 1.516 1_655 S
C3483 C3482 1.383 . S
C3483 C3484 1.410 . S
C3483 C3491 1.503 . S
C3484 C3483 1.410 . S
C3484 C3485 1.392 . S
C3484 C3487 1.511 . S
C3485 C3481 1.376 . S
C3485 C3484 1.392 . S
C3485 H3497 0.929 . S
C3486 C3482 1.516 1_455 S
C3486 H3498 0.960 . S
C3486 H3499 0.962 . S
C3486 H3500 0.960 . S
C3487 C3484 1.511 . S
C3487 H3501 0.961 . S
C3487 H3502 0.961 . S
C3487 H3503 0.961 . S
C3488 C3489 1.370 . S
C3488 C3490 1.363 . S
C3488 H3504 0.931 1_655 S
C3489 C3488 1.370 . S
C3489 C3493 1.408 . S
C3490 C3488 1.363 . S
C3490 C3491 1.370 . S
C3490 C3494 1.535 . S
C3491 C3483 1.503 . S
C3491 C3490 1.370 . S
C3491 C3492 1.403 . S
C3492 C3491 1.403 . S
C3492 C3493 1.404 . S
C3492 C3495 1.539 . S
C3493 C3489 1.408 . S
C3493 C3492 1.404 . S
C3493 H3505 0.930 . S
C3494 C3490 1.535 . S
C3494 H3506 0.934 1_655 S
C3494 H3507 0.980 . S
C3494 H3508 0.953 1_655 S
C3495 C3492 1.539 . S
C3495 H3509 0.958 . S
C3495 H3510 0.961 . S
C3495 H3511 0.960 . S
H3496 C3480 0.931 1_455 S
H3497 C3485 0.929 . S
H3498 C3486 0.960 . S
H3499 C3486 0.962 . S
H3500 C3486 0.960 . S
H3501 C3487 0.961 . S
H3502 C3487 0.961 . S
H3503 C3487 0.961 . S
H3504 C3488 0.931 1_455 S
H3505 C3493 0.930 . S
H3506 C3494 0.934 1_455 S
H3507 C3494 0.980 . S
H3508 C3494 0.953 1_455 S
H3509 C3495 0.958 . S
H3510 C3495 0.961 . S
H3511 C3495 0.960 . S
C3512 C3513 1.391 . S
C3512 C3514 1.394 . S
C3512 H3528 0.931 . S
C3513 C3512 1.391 . S
C3513 C3517 1.376 . S
C3514 C3512 1.394 . S
C3514 C3515 1.369 . S
C3514 C3518 1.531 . S
C3515 C3514 1.369 . S
C3515 C3516 1.410 . S
C3515 C3523 1.503 . S
C3516 C3515 1.410 . S
C3516 C3517 1.392 . S
C3516 C3519 1.511 . S
C3517 C3513 1.376 . S
C3517 C3516 1.392 . S
C3517 H3529 0.929 . S
C3518 C3514 1.531 . S
C3518 H3530 0.960 . S
C3518 H3531 0.962 . S
C3518 H3532 0.960 . S
C3519 C3516 1.511 . S
C3519 H3533 0.961 . S
C3519 H3534 0.961 . S
C3519 H3535 0.961 . S
C3520 C3521 1.370 . S
C3520 C3522 1.363 . S
C3520 H3536 0.931 . S
C3521 C3520 1.370 . S
C3521 C3525 1.408 . S
C3522 C3520 1.363 . S
C3522 C3523 1.370 . S
C3522 C3526 1.524 . S
C3523 C3515 1.503 . S
C3523 C3522 1.370 . S
C3523 C3524 1.403 . S
C3524 C3523 1.403 . S
C3524 C3525 1.404 . S
C3524 C3527 1.539 . S
C3525 C3521 1.408 . S
C3525 C3524 1.404 . S
C3525 H3537 0.930 . S
C3526 C3522 1.524 . S
C3526 H3538 0.956 . S
C3526 H3539 0.961 . S
C3526 H3540 0.961 . S
C3527 C3524 1.539 . S
C3527 H3541 0.958 . S
C3527 H3542 0.961 . S
C3527 H3543 0.960 . S
H3528 C3512 0.931 . S
H3529 C3517 0.929 . S
H3530 C3518 0.960 . S
H3531 C3518 0.962 . S
H3532 C3518 0.960 . S
H3533 C3519 0.961 . S
H3534 C3519 0.961 . S
H3535 C3519 0.961 . S
H3536 C3520 0.931 . S
H3537 C3525 0.930 . S
H3538 C3526 0.956 . S
H3539 C3526 0.961 . S
H3540 C3526 0.961 . S
H3541 C3527 0.958 . S
H3542 C3527 0.961 . S
H3543 C3527 0.960 . S
C3544 C3545 1.391 1_655 S
C3544 C3546 1.394 1_655 S
C3544 H3560 0.931 . S
C3545 C3544 1.391 1_455 S
C3545 C3549 1.376 . S
C3546 C3544 1.394 1_455 S
C3546 C3547 1.369 . S
C3546 C3550 1.531 1_455 S
C3547 C3546 1.369 . S
C3547 C3548 1.410 . S
C3547 C3555 1.503 . S
C3548 C3547 1.410 . S
C3548 C3549 1.392 . S
C3548 C3551 1.511 . S
C3549 C3545 1.376 . S
C3549 C3548 1.392 . S
C3549 H3561 0.929 . S
C3550 C3546 1.531 1_655 S
C3550 H3562 0.960 1_655 S
C3550 H3563 0.962 . S
C3550 H3564 0.960 . S
C3551 C3548 1.511 . S
C3551 H3565 0.961 . S
C3551 H3566 0.961 . S
C3551 H3567 0.961 . S
C3552 C3553 1.370 1_655 S
C3552 C3554 1.363 . S
C3552 H3568 0.931 . S
C3553 C3552 1.370 1_455 S
C3553 C3557 1.408 . S
C3554 C3552 1.363 . S
C3554 C3555 1.370 1_655 S
C3554 C3558 1.524 . S
C3555 C3547 1.503 . S
C3555 C3554 1.370 1_455 S
C3555 C3556 1.403 . S
C3556 C3555 1.403 . S
C3556 C3557 1.404 . S
C3556 C3559 1.539 . S
C3557 C3553 1.408 . S
C3557 C3556 1.404 . S
C3557 H3569 0.930 . S
C3558 C3554 1.524 . S
C3558 H3570 0.956 . S
C3558 H3571 0.961 . S
C3558 H3572 0.961 . S
C3559 C3556 1.539 . S
C3559 H3573 0.958 . S
C3559 H3574 0.961 . S
C3559 H3575 0.960 . S
H3560 C3544 0.931 . S
H3561 C3549 0.929 . S
H3562 C3550 0.960 1_455 S
H3563 C3550 0.962 . S
H3564 C3550 0.960 . S
H3565 C3551 0.961 . S
H3566 C3551 0.961 . S
H3567 C3551 0.961 . S
H3568 C3552 0.931 . S
H3569 C3557 0.930 . S
H3570 C3558 0.956 . S
H3571 C3558 0.961 . S
H3572 C3558 0.961 . S
H3573 C3559 0.958 . S
H3574 C3559 0.961 . S
H3575 C3559 0.960 . S
C1281 N1260 1.695 . S
C1273 C15 1.695 . S
C1313 N1221 1.574 . S
C1305 C55 1.452 . S
C1345 N1247 0.681 . S
C1337 C95 0.709 1_545 S
C1377 N1234 1.491 . S
C1369 C135 1.475 . S
C1409 N1143 1.688 . S
C1401 C175 1.705 . S
C1433 C215 1.452 . S
C1441 N1156 1.492 . S
C1473 N1117 1.572 . S
C1465 C255 1.455 . S
C1497 C295 0.690 . S
C1505 N1130 0.693 . S
C1537 N1208 1.684 . S
C1529 C335 1.697 . S
C1561 C375 1.490 . S
C1569 N1182 1.471 . S
C1593 C415 1.507 . S
C1601 N1169 1.569 . S
C1633 N1195 0.681 . S
C1625 C455 0.697 1_455 S
C1665 N1104 1.698 . S
C1657 C495 1.683 . S
C1689 C535 1.466 . S
C1697 N1065 1.574 . S
C1729 N1091 0.724 . S
C1721 C575 0.697 1_545 S
C1753 C615 1.493 . S
C1761 N1078 1.515 . S
C1793 N987 1.703 . S
C1785 C655 1.702 . S
C1825 N1000 1.504 . S
C1817 C695 1.478 . S
C1849 C735 1.442 . S
C1857 N961 1.574 . S
C1881 C775 0.700 . S
C1889 N974 0.710 . S
C1913 C815 1.699 . S
C1921 N1052 1.709 . S
C1945 C855 1.504 . S
C1953 N1026 1.510 . S
C1985 N1013 1.572 . S
C1977 C895 1.503 . S
C2009 C935 0.692 1_455 S
C2017 N1039 0.728 . S
C2049 N965 1.689 . S
C2041 C21 1.687 . S
C2081 N978 1.896 . S
C2073 C61 1.892 . S
C2105 C101 0.925 . S
C2113 N991 0.955 1_565 S
C2137 C141 1.029 . S
C2145 N1004 1.011 . S
C2177 N1017 1.689 . S
C2169 C181 1.679 . S
C2201 C221 1.014 . S
C2209 N1030 1.001 . S
C2241 N1043 1.904 . S
C2233 C261 1.865 . S
C2273 N1056 0.953 1_556 S
C2265 C301 0.908 . S
C2305 N1069 1.689 . S
C2297 C341 1.679 . S
C2329 C381 1.031 . S
C2337 N1082 1.014 . S
C2361 C421 1.868 . S
C2369 N1095 1.902 . S
C2393 C461 0.924 . S
C2401 N1108 0.955 1_655 S
C2425 C501 1.661 . S
C2433 N1121 1.688 . S
C2457 C541 1.743 . S
C2465 N1134 1.894 . S
C2489 C581 0.932 . S
C2497 N1147 0.941 1_545 S
C2521 C621 0.974 . S
C2529 N1160 1.012 . S
C2553 C661 1.654 . S
C2561 N1173 1.688 . S
C2593 N1186 1.024 . S
C2585 C701 0.998 . S
C2625 N1199 1.894 . S
C2617 C741 1.750 . S
C2657 N1212 0.939 1_554 S
C2649 C781 0.923 . S
C2689 N1225 1.688 . S
C2681 C821 1.658 . S
C2713 C861 1.035 . S
C2721 N1238 1.015 . S
C2745 C901 1.688 . S
C2753 N1251 1.903 . S
C2777 C941 0.970 1_455 S
C2785 N1264 0.956 1_455 S
C2809 C2 1.643 . S
C2817 N1066 1.637 . S
C2849 N1105 1.889 . S
C2841 C42 1.875 . S
C2873 C82 1.512 . S
C2881 N1079 1.527 . S
C2913 N1092 1.632 . S
C2905 C122 1.586 . S
C2937 C162 1.645 . S
C2945 N962 1.638 . S
C2969 C202 1.572 . S
C2977 N975 1.632 . S
C3001 C242 1.871 . S
C3009 N988 1.883 . S
C3033 C282 1.512 . S
C3041 N1001 1.527 . S
C3073 N1014 1.641 . S
C3065 C322 1.645 . S
C3105 N1040 1.629 . S
C3097 C362 1.609 . S
C3129 C402 1.860 . S
C3137 N1053 1.876 . S
C3161 C442 1.510 . S
C3169 N1027 1.530 . S
C3201 N1222 1.645 . S
C3193 C482 1.612 . S
C3233 N1261 1.881 . S
C3225 C522 1.797 . S
C3257 C562 1.544 . S
C3265 N1235 1.503 . S
C3297 N1248 1.632 . S
C3289 C602 1.598 . S
C3321 C642 1.628 . S
C3329 N1118 1.646 . S
C3353 C682 1.549 . S
C3361 N1131 1.633 . S
C3385 C722 1.776 . S
C3393 N1144 1.876 . S
C3425 N1157 1.507 . S
C3417 C762 1.537 1_554 S
C3457 N1170 1.645 . S
C3449 C802 1.623 . S
C3489 N1196 1.633 . S
C3481 C842 1.565 . S
C3513 C882 1.737 . S
C3521 N1209 1.867 . S
C3553 N1183 1.522 . S
C3545 C922 1.548 1_455 S
