# Generated by pormake.
# Topology pth, (4,4)-cn, num edge types: 1
# Building blocks:
#     Node 0, Type 0, BuildingBlock: QUQFOY_clean_sbu_1, # of connection points: 4
#     Node 1, Type 0, BuildingBlock: QUQFOY_clean_sbu_1, # of connection points: 4
#     Node 2, Type 0, BuildingBlock: QUQFOY_clean_sbu_1, # of connection points: 4
#     Node 3, Type 1, BuildingBlock: MUDLON_clean_linker_0, # of connection points: 4
#     Node 4, Type 1, BuildingBlock: MUDLON_clean_linker_0, # of connection points: 4
#     Node 5, Type 1, BuildingBlock: MUDLON_clean_linker_0, # of connection points: 4
#     Edge 6, Type (0, 1), BuildingBlock: XIVTED_clean_linker_0, # of connection points: 2
#     Edge 7, Type (0, 1), BuildingBlock: XIVTED_clean_linker_0, # of connection points: 2
#     Edge 8, Type (0, 1), BuildingBlock: XIVTED_clean_linker_0, # of connection points: 2
#     Edge 9, Type (0, 1), BuildingBlock: XIVTED_clean_linker_0, # of connection points: 2
#     Edge 10, Type (0, 1), BuildingBlock: XIVTED_clean_linker_0, # of connection points: 2
#     Edge 11, Type (0, 1), BuildingBlock: XIVTED_clean_linker_0, # of connection points: 2
#     Edge 12, Type (0, 1), BuildingBlock: XIVTED_clean_linker_0, # of connection points: 2
#     Edge 13, Type (0, 1), BuildingBlock: XIVTED_clean_linker_0, # of connection points: 2
#     Edge 14, Type (0, 1), BuildingBlock: XIVTED_clean_linker_0, # of connection points: 2
#     Edge 15, Type (0, 1), BuildingBlock: XIVTED_clean_linker_0, # of connection points: 2
#     Edge 16, Type (0, 1), BuildingBlock: XIVTED_clean_linker_0, # of connection points: 2
#     Edge 17, Type (0, 1), BuildingBlock: XIVTED_clean_linker_0, # of connection points: 2
# Relax obj value: 0.050
# Max RMSD: 0.152
# Mean RMSD: 0.116
data_MOF--net-pth--node1-QUQFOY_clean_sbu_1--node2-MUDLON_clean_linker_0--edge1-XIVTED_clean_linker_0
_symmetry_space_group_name_H-M    P1
_symmetry_Int_Tables_number       1
_symmetry_cell_setting            triclinic
loop_
_symmetry_equiv_pos_as_xyz
'x, y, z'
_cell_length_a     32.572239
_cell_length_b     34.762012
_cell_length_c     71.472937
_cell_angle_alpha  90.031326
_cell_angle_beta   89.94128
_cell_angle_gamma 120.18251
loop_
_atom_site_label
_atom_site_type_symbol
_atom_site_fract_x
_atom_site_fract_y
_atom_site_fract_z
_atom_type_partial_charge
O0 O 0.03881 0.07862 0.01191 0.0
Cd1 Cd 0.98263 0.03224 0.02765 0.0
Cd2 Cd 0.03729 0.99467 0.02782 0.0
O3 O 0.08878 0.05412 0.01629 0.0
O4 O 0.95037 0.06459 0.03681 0.0
O5 O 0.98808 0.04165 0.0554 0.0
C6 C 0.96577 0.06333 0.05329 0.0
C7 C 0.04775 0.96214 0.05447 0.0
C8 C 0.07974 0.0831 0.00978 0.0
C9 C 0.9435 0.94559 0.00787 0.0
O10 O 0.98437 0.95028 0.01044 0.0
O11 O 0.93325 0.97341 0.01485 0.0
O12 O 0.06694 0.96159 0.03874 0.0
O13 O 0.02516 0.98383 0.0553 0.0
O14 O 0.97221 0.04131 0.37441 0.0
Cd15 Cd 0.02809 0.05474 0.35692 0.0
Cd16 Cd 0.9878 0.96527 0.35746 0.0
O17 O 0.93311 0.96846 0.37071 0.0
O18 O 0.05383 0.11734 0.34849 0.0
O19 O 0.01858 0.05945 0.3294 0.0
C20 C 0.03855 0.1019 0.33198 0.0
C21 C 0.97225 0.91605 0.3327 0.0
C22 C 0.93579 1.0035 0.37747 0.0
C23 C 0.08374 0.01857 0.37539 0.0
O24 O 0.04718 0.9804 0.37318 0.0
O25 O 0.08492 0.05295 0.36865 0.0
O26 O 0.96136 0.9021 0.34969 0.0
O27 O 0.99084 0.95821 0.32964 0.0
O28 O 0.93789 0.96988 0.67759 0.0
Cd29 Cd 0.98719 0.96581 0.69411 0.0
Cd30 Cd 0.02757 0.05461 0.69373 0.0
O31 O 0.96566 0.042 0.68036 0.0
O32 O 0.95453 0.90376 0.70395 0.0
O33 O 0.9773 0.963 0.72191 0.0
C34 C 0.95601 0.92021 0.72029 0.0
C35 C 0.05723 0.10154 0.7196 0.0
C36 C 0.93448 1.00405 0.67421 0.0
C37 C 0.08097 0.01525 0.67504 0.0
O38 O 0.0778 0.04972 0.67799 0.0
O39 O 0.04933 0.97759 0.68126 0.0
O40 O 0.06005 0.11714 0.70298 0.0
O41 O 0.03558 0.05884 0.72164 0.0
H42 H 0.87064 0.62153 0.20457 0.0
N43 N 0.94364 0.6216 0.18786 0.0
H44 H 0.87331 0.6678 0.23097 0.0
H45 H 0.0211 0.67268 0.20996 0.0
H46 H 0.02429 0.71976 0.23608 0.0
H47 H 0.03515 0.68211 0.17754 0.0
H48 H 0.05923 0.74295 0.15513 0.0
H49 H 0.88808 0.63441 0.16461 0.0
H50 H 0.91187 0.6949 0.14198 0.0
H51 H 0.93718 0.56825 0.21686 0.0
H52 H 0.98548 0.59923 0.15949 0.0
H53 H 0.96066 0.51201 0.21746 0.0
H54 H 0.00898 0.54336 0.16034 0.0
H55 H 0.96486 0.31104 0.20109 0.0
H56 H 0.96334 0.26465 0.22657 0.0
H57 H 0.10222 0.3693 0.24424 0.0
H58 H 0.10493 0.41393 0.21738 0.0
H59 H 0.10232 0.37183 0.17246 0.0
H60 H 0.08428 0.31583 0.14822 0.0
H61 H 0.93943 0.28842 0.14629 0.0
H62 H 0.95803 0.34495 0.17031 0.0
H63 H 0.95814 0.38096 0.20281 0.0
H64 H 0.93573 0.43844 0.20254 0.0
H65 H 0.06897 0.52938 0.17587 0.0
N66 N 0.04188 0.38974 0.18977 0.0
H67 H 0.09119 0.47169 0.17627 0.0
C68 C 0.94552 0.64384 0.20521 0.0
C69 C 0.90404 0.64216 0.21169 0.0
C70 C 0.90568 0.66862 0.22672 0.0
C71 C 0.94912 0.69772 0.23543 0.0
C72 C 0.99046 0.69812 0.22943 0.0
C73 C 0.98867 0.67119 0.21454 0.0
C74 C 0.95959 0.65352 0.1727 0.0
C75 C 0.00806 0.68435 0.16968 0.0
C76 C 0.0218 0.71903 0.15681 0.0
C77 C 0.98742 0.72395 0.14692 0.0
C78 C 0.93916 0.69234 0.14957 0.0
C79 C 0.9255 0.65752 0.16231 0.0
C80 C 0.96218 0.59112 0.18858 0.0
C81 C 0.95411 0.56431 0.20455 0.0
C82 C 0.96686 0.53142 0.20483 0.0
C83 C 0.98734 0.52368 0.18904 0.0
C84 C 0.99445 0.54936 0.17292 0.0
C85 C 0.98129 0.58195 0.17255 0.0
C86 C 0.0357 0.36574 0.20701 0.0
C87 C 0.99498 0.32419 0.21044 0.0
C88 C 0.99399 0.29767 0.2253 0.0
C89 C 0.03308 0.31252 0.23748 0.0
C90 C 0.07208 0.35578 0.23487 0.0
C91 C 0.07349 0.3818 0.21969 0.0
C92 C 0.0318 0.36271 0.17319 0.0
C93 C 0.06703 0.35447 0.16645 0.0
C94 C 0.05646 0.3221 0.15279 0.0
C95 C 0.0102 0.29715 0.14556 0.0
C96 C 0.97544 0.30716 0.15153 0.0
C97 C 0.98608 0.3396 0.16526 0.0
C98 C 0.02673 0.42226 0.18968 0.0
C99 C 0.98264 0.41326 0.19699 0.0
C100 C 0.96992 0.44623 0.19688 0.0
C101 C 1.00068 0.48854 0.18925 0.0
C102 C 0.04436 0.49708 0.18173 0.0
C103 C 0.05719 0.46429 0.182 0.0
H104 H 0.7103 0.03136 0.53492 0.0
N105 N 0.62381 0.95947 0.52583 0.0
H106 H 0.75667 0.03994 0.56292 0.0
H107 H 0.5987 0.90449 0.5549 0.0
H108 H 0.64423 0.91351 0.58347 0.0
H109 H 0.6381 0.89879 0.50931 0.0
H110 H 0.68644 0.90806 0.48166 0.0
H111 H 0.67044 0.03475 0.50439 0.0
H112 H 0.71731 0.04399 0.4763 0.0
H113 H 0.63093 0.03173 0.54518 0.0
H114 H 0.54546 0.92871 0.50541 0.0
H115 H 0.57456 0.05744 0.54475 0.0
H116 H 0.49069 0.95699 0.50356 0.0
H117 H 0.37967 0.13148 0.54257 0.0
H118 H 0.33257 0.12189 0.57067 0.0
H119 H 0.30284 0.98628 0.57553 0.0
H120 H 0.34755 0.99539 0.5472 0.0
H121 H 0.30647 0.99984 0.51634 0.0
H122 H 0.26078 0.99143 0.48812 0.0
H123 H 0.37427 0.1175 0.46771 0.0
H124 H 0.41897 0.1263 0.49645 0.0
H125 H 0.48656 0.11968 0.5302 0.0
H126 H 0.54463 0.09497 0.52895 0.0
H127 H 0.43085 0.96025 0.51868 0.0
N128 N 0.39336 0.0712 0.52538 0.0
H129 H 0.37437 0.9863 0.51822 0.0
C130 C 0.65118 0.96675 0.54269 0.0
C131 C 0.69568 1.00534 0.54537 0.0
C132 C 0.72195 0.01049 0.56155 0.0
C133 C 0.70428 0.97734 0.57544 0.0
C134 C 0.65925 0.93935 0.57292 0.0
C135 C 0.63306 0.93419 0.55669 0.0
C136 C 0.65046 0.9658 0.50884 0.0
C137 C 0.65514 0.93042 0.50205 0.0
C138 C 0.6825 0.93577 0.48617 0.0
C139 C 0.70571 0.97677 0.47667 0.0
C140 C 0.70043 0.01213 0.48338 0.0
C141 C 0.6733 1.00681 0.49936 0.0
C142 C 0.59217 0.97738 0.5255 0.0
C143 C 0.60029 0.01464 0.53618 0.0
C144 C 0.56802 0.02994 0.53572 0.0
C145 C 0.5276 1.00941 0.52415 0.0
C146 C 0.52049 0.97308 0.51305 0.0
C147 C 0.55206 0.95703 0.51392 0.0
C148 C 0.36777 0.06461 0.54272 0.0
C149 C 0.36317 0.09982 0.54982 0.0
C150 C 0.33647 0.0943 0.56595 0.0
C151 C 0.31386 0.05326 0.57545 0.0
C152 C 0.31912 0.01814 0.56847 0.0
C153 C 0.3454 0.02357 0.55224 0.0
C154 C 0.366 0.06416 0.50859 0.0
C155 C 0.32152 0.02571 0.50584 0.0
C156 C 0.29558 0.02074 0.48955 0.0
C157 C 0.31372 0.05387 0.47562 0.0
C158 C 0.35879 0.09171 0.47827 0.0
C159 C 0.38452 0.09674 0.4946 0.0
C160 C 0.42619 0.0549 0.52468 0.0
C161 C 0.47447 0.0849 0.5276 0.0
C162 C 0.5075 0.07049 0.52704 0.0
C163 C 0.49271 0.02532 0.52392 0.0
C164 C 0.44406 0.99536 0.52084 0.0
C165 C 0.41133 0.0101 0.52089 0.0
H166 H 0.67451 0.70858 0.87664 0.0
N167 N 0.67233 0.63095 0.86752 0.0
H168 H 0.71299 0.7552 0.90378 0.0
H169 H 0.7092 0.61148 0.8967 0.0
H170 H 0.74619 0.65715 0.92451 0.0
H171 H 0.74951 0.63576 0.85273 0.0
H172 H 0.79749 0.68273 0.8267 0.0
H173 H 0.65018 0.68193 0.84525 0.0
H174 H 0.69831 0.72959 0.81932 0.0
H175 H 0.59853 0.63208 0.88651 0.0
H176 H 0.63043 0.56125 0.84465 0.0
H177 H 0.5156 0.57589 0.88521 0.0
H178 H 0.54622 0.50628 0.84219 0.0
H179 H 0.25299 0.38344 0.88789 0.0
H180 H 0.22092 0.33743 0.91585 0.0
H181 H 0.33825 0.31246 0.91547 0.0
H182 H 0.36872 0.35677 0.88722 0.0
H183 H 0.32764 0.32175 0.85658 0.0
H184 H 0.28262 0.2732 0.83061 0.0
H185 H 0.22943 0.36131 0.81694 0.0
H186 H 0.27543 0.41017 0.84283 0.0
H187 H 0.36176 0.48375 0.87192 0.0
H188 H 0.44434 0.54362 0.86955 0.0
H189 H 0.48645 0.44619 0.85765 0.0
N190 N 0.32745 0.39711 0.86776 0.0
H191 H 0.40375 0.3876 0.85854 0.0
C192 C 0.68969 0.65672 0.8845 0.0
C193 C 0.69003 0.69705 0.88699 0.0
C194 C 0.71159 0.72349 0.9027 0.0
C195 C 0.73308 0.71016 0.9163 0.0
C196 C 0.73078 0.66885 0.91415 0.0
C197 C 0.70939 0.64253 0.89837 0.0
C198 C 0.6966 0.65551 0.85094 0.0
C199 C 0.73786 0.65568 0.84528 0.0
C200 C 0.7651 0.68246 0.83043 0.0
C201 C 0.75177 0.71002 0.82105 0.0
C202 C 0.70972 0.70909 0.82645 0.0
C203 C 0.68214 0.68181 0.84119 0.0
C204 C 0.62159 0.60106 0.86571 0.0
C205 C 0.58798 0.60503 0.87672 0.0
C206 C 0.53983 0.57269 0.87584 0.0
C207 C 0.52367 0.53601 0.86367 0.0
C208 C 0.5571 0.53324 0.85211 0.0
C209 C 0.60536 0.56503 0.8533 0.0
C210 C 0.31329 0.37398 0.88544 0.0
C211 C 0.27204 0.36849 0.89403 0.0
C212 C 0.25396 0.34233 0.91008 0.0
C213 C 0.27698 0.32112 0.91797 0.0
C214 C 0.31921 0.32774 0.90965 0.0
C215 C 0.33705 0.35365 0.8935 0.0
C216 C 0.30493 0.36978 0.85159 0.0
C217 C 0.30692 0.33102 0.84785 0.0
C218 C 0.28072 0.303 0.83309 0.0
C219 C 0.25215 0.3132 0.82176 0.0
C220 C 0.2514 0.35267 0.82525 0.0
C221 C 0.27754 0.38058 0.84003 0.0
C222 C 0.37655 0.43124 0.86574 0.0
C223 C 0.38898 0.47561 0.86864 0.0
C224 C 0.43635 0.50971 0.86744 0.0
C225 C 0.47265 0.50004 0.86363 0.0
C226 C 0.45979 0.45535 0.86038 0.0
C227 C 0.41226 0.42143 0.86117 0.0
H228 H 1.00044 0.07295 0.08894 0.0
H229 H 0.95432 0.27284 0.11399 0.0
H230 H 0.92523 0.11585 0.05268 0.0
H231 H 0.03735 0.23461 0.14801 0.0
H232 H 0.93592 0.21061 0.09291 0.0
H233 H 1.00593 0.12632 0.11248 0.0
C234 C 0.98445 0.09312 0.08603 0.0
C235 C 0.96267 0.09015 0.06874 0.0
C236 C 0.95807 0.2158 0.10502 0.0
C237 C 0.9694 0.15182 0.09555 0.0
C238 C 0.96848 0.25125 0.11707 0.0
C239 C 0.9979 0.25931 0.13267 0.0
C240 C 0.977 0.18804 0.10863 0.0
C241 C 0.01538 0.2303 0.13594 0.0
C242 C 0.98782 0.12378 0.09944 0.0
C243 C 0.94257 0.11715 0.06577 0.0
N244 N 1.0048 0.19612 0.12402 0.0
N245 N 0.94679 0.14713 0.07896 0.0
H246 H 0.85028 0.92939 0.38592 0.0
H247 H 0.79084 0.05041 0.46743 0.0
H248 H 0.93481 0.07009 0.39755 0.0
H249 H 0.69173 0.91715 0.44861 0.0
H250 H 0.8434 0.05837 0.44159 0.0
H251 H 0.79125 0.92406 0.40854 0.0
C252 C 0.8563 0.95922 0.39311 0.0
C253 C 0.89776 1.0002 0.3899 0.0
C254 C 0.81 0.02748 0.44303 0.0
C255 C 0.8305 0.99423 0.41591 0.0
C256 C 0.77975 0.02298 0.45775 0.0
C257 C 0.73673 0.98295 0.46031 0.0
C258 C 0.79748 0.9916 0.43082 0.0
C259 C 0.72489 0.94833 0.44743 0.0
C260 C 0.82254 0.95615 0.40602 0.0
C261 C 0.90351 0.03776 0.3996 0.0
N262 N 0.75523 0.95335 0.43333 0.0
N263 N 0.87049 0.03378 0.41226 0.0
H264 H 0.93548 0.94259 0.75441 0.0
H265 H 0.79425 0.69173 0.79203 0.0
H266 H 0.91861 0.83016 0.72244 0.0
H267 H 0.78008 0.79808 0.81635 0.0
H268 H 0.84742 0.74351 0.76825 0.0
H269 H 0.88689 0.89164 0.77935 0.0
C270 C 0.92203 0.90727 0.75272 0.0
C271 C 0.93099 0.89058 0.73629 0.0
C272 C 0.83261 0.7555 0.77877 0.0
C273 C 0.87526 0.83217 0.76471 0.0
C274 C 0.80239 0.72601 0.79236 0.0
C275 C 0.78262 0.74062 0.80614 0.0
C276 C 0.84361 0.80009 0.77906 0.0
C277 C 0.7941 0.78533 0.80584 0.0
C278 C 0.89404 0.8782 0.76691 0.0
C279 C 0.91245 0.84447 0.73483 0.0
N280 N 0.824 0.81354 0.79256 0.0
N281 N 0.88545 0.81689 0.74884 0.0
H282 H 1.00013 0.94668 0.08773 0.0
H283 H 0.05964 0.75992 0.12106 0.0
H284 H 0.09315 0.91405 0.05731 0.0
H285 H 0.94769 0.77683 0.1446 0.0
H286 H 0.08086 0.82335 0.10029 0.0
H287 H 0.98997 0.89235 0.11165 0.0
C288 C 0.01901 0.9286 0.08621 0.0
C289 C 0.04724 0.9347 0.0704 0.0
C290 C 0.05174 0.81323 0.11005 0.0
C291 C 0.03536 0.87207 0.09766 0.0
C292 C 0.03972 0.77714 0.12193 0.0
C293 C 1.00153 0.76279 0.13444 0.0
C294 C 0.02566 0.83538 0.11081 0.0
C295 C 0.97682 0.78623 0.13493 0.0
C296 C 0.01295 0.89736 0.09982 0.0
C297 C 0.07081 0.91026 0.0692 0.0
N298 N 0.98926 0.82127 0.12328 0.0
N299 N 0.06408 0.87981 0.08257 0.0
H300 H 0.0958 0.9526 0.3907 0.0
H301 H 0.30586 0.11959 0.45763 0.0
H302 H 0.16156 0.09561 0.38741 0.0
H303 H 0.25576 0.97867 0.45515 0.0
H304 H 0.25559 0.11163 0.43099 0.0
H305 H 0.15623 0.96145 0.41326 0.0
C306 C 0.12321 0.98588 0.39456 0.0
C307 C 0.12331 0.02342 0.38725 0.0
C308 C 0.25584 0.08248 0.43617 0.0
C309 C 0.19237 0.03374 0.41324 0.0
C310 C 0.28479 0.08703 0.45136 0.0
C311 C 0.28503 0.04971 0.45876 0.0
C312 C 0.22648 0.04024 0.42835 0.0
C313 C 0.25615 1.00825 0.45017 0.0
C314 C 0.15772 0.9909 0.40746 0.0
C315 C 0.1599 0.0657 0.39272 0.0
N316 N 0.22784 1.00459 0.43552 0.0
N317 N 0.19263 0.06969 0.40552 0.0
H318 H 0.06484 0.08003 0.75588 0.0
H319 H 0.23598 0.33386 0.7865 0.0
H320 H 0.10459 0.19249 0.7195 0.0
H321 H 0.19965 0.22196 0.82277 0.0
H322 H 0.18518 0.28248 0.76225 0.0
H323 H 0.11064 0.13139 0.78112 0.0
C324 C 0.08282 0.1155 0.75325 0.0
C325 C 0.08098 0.13196 0.73553 0.0
C326 C 0.18828 0.26912 0.77551 0.0
C327 C 0.13377 0.19091 0.76429 0.0
C328 C 0.21718 0.29849 0.7894 0.0
C329 C 0.22222 0.28225 0.80671 0.0
C330 C 0.16406 0.22307 0.77891 0.0
C331 C 0.19742 0.23598 0.80955 0.0
C332 C 0.10912 0.14481 0.76764 0.0
C333 C 0.10508 0.17827 0.73291 0.0
N334 N 0.16943 0.20804 0.79582 0.0
N335 N 0.13059 0.20606 0.7471 0.0
H336 H 0.86024 0.92756 0.66015 0.0
H337 H 0.76188 0.05228 0.59614 0.0
H338 H 0.91971 0.0701 0.66052 0.0
H339 H 0.71418 0.91198 0.59257 0.0
H340 H 0.81425 0.05889 0.62198 0.0
H341 H 0.80029 0.92071 0.63796 0.0
C342 C 0.86055 0.95747 0.65567 0.0
C343 C 0.89543 0.99955 0.66211 0.0
C344 C 0.79206 0.02663 0.61561 0.0
C345 C 0.82671 0.99186 0.63652 0.0
C346 C 0.76232 0.02284 0.60079 0.0
C347 C 0.73369 0.98153 0.59206 0.0
C348 C 0.79322 0.98883 0.62176 0.0
C349 C 0.73513 0.94441 0.59895 0.0
C350 C 0.82625 0.95351 0.64295 0.0
C351 C 0.89368 0.03701 0.65587 0.0
N352 N 0.76455 0.94901 0.6133 0.0
N353 N 0.86009 0.03232 0.64332 0.0
H354 H 0.85402 0.92631 -0.0031 0.0
H355 H 0.81737 0.72519 0.93111 0.0
H356 H 0.9535 0.87907 0.99229 0.0
H357 H 0.7122 0.7653 0.93689 0.0
H358 H 0.86515 0.77892 0.95502 0.0
H359 H 0.79945 0.86574 0.97624 0.0
C360 C 0.8643 0.90313 0.99165 0.0
C361 C 0.9086 0.90804 -0.00375 0.0
C362 C 0.83148 0.77585 0.95118 0.0
C363 C 0.84644 0.83879 0.97263 0.0
C364 C 0.80389 0.7448 0.93759 0.0
C365 C 0.76058 0.7406 0.93191 0.0
C366 C 0.816 0.80331 0.95915 0.0
C367 C 0.74566 0.7678 0.94061 0.0
C368 C 0.83314 0.86857 0.97986 0.0
C369 C 0.91994 0.87691 0.98906 0.0
N370 N 0.77344 0.79817 0.95372 0.0
N371 N 0.88922 0.84385 0.97757 0.0
H372 H 0.00985 0.93517 0.29729 0.0
H373 H 0.89061 0.68036 0.2657 0.0
H374 H 0.9203 0.82523 0.33358 0.0
H375 H 0.01262 0.78688 0.23805 0.0
H376 H 0.89378 0.73377 0.28889 0.0
H377 H 1.00341 0.88193 0.27332 0.0
C378 C 0.98848 0.89987 0.30015 0.0
C379 C 0.9657 0.8846 0.31747 0.0
C380 C 0.91993 0.74541 0.27777 0.0
C381 C 0.95824 0.82364 0.29017 0.0
C382 C 0.91805 0.71499 0.26453 0.0
C383 C 0.95157 0.7292 0.25002 0.0
C384 C 0.95514 0.79048 0.27632 0.0
C385 C 0.9865 0.77444 0.24918 0.0
C386 C 0.98507 0.86953 0.28652 0.0
C387 C 0.93864 0.83847 0.32045 0.0
N388 N 0.98725 0.80352 0.26209 0.0
N389 N 0.93563 0.80964 0.30694 0.0
H390 H 0.08777 0.94801 0.65793 0.0
H391 H 0.32812 0.11282 0.6036 0.0
H392 H 0.1625 0.09078 0.66469 0.0
H393 H 0.23023 0.97858 0.58546 0.0
H394 H 0.27517 0.10248 0.62976 0.0
H395 H 0.14807 0.9559 0.63533 0.0
C396 C 0.11716 0.98095 0.65486 0.0
C397 C 0.11986 0.01884 0.66308 0.0
C398 C 0.26551 0.07525 0.62009 0.0
C399 C 0.18882 0.02803 0.63726 0.0
C400 C 0.29556 0.08119 0.60507 0.0
C401 C 0.28359 0.04667 0.59214 0.0
C402 C 0.22327 0.0344 0.62232 0.0
C403 C 0.24138 1.00604 0.59512 0.0
C404 C 0.1514 0.98543 0.64189 0.0
C405 C 0.15874 0.0607 0.65855 0.0
N406 N 0.21272 1.0011 0.60985 0.0
N407 N 0.19158 0.06418 0.64589 0.0
H408 H 0.1597 0.09266 0.99244 0.0
H409 H 0.22991 0.32955 0.94826 0.0
H410 H 0.08191 0.16105 0.00245 0.0
H411 H 0.2745 0.24203 0.92459 0.0
H412 H 0.18754 0.27466 0.97276 0.0
H413 H 0.21436 0.1542 0.97211 0.0
C414 C 0.15447 0.12083 0.99056 0.0
C415 C 0.11594 0.12156 -0.00101 0.0
C416 C 0.20693 0.26769 0.96226 0.0
C417 C 0.17826 0.19187 0.97592 0.0
C418 C 0.23096 0.29891 0.94821 0.0
C419 C 0.25541 0.2903 0.93413 0.0
C420 C 0.20752 0.22759 0.96239 0.0
C421 C 0.25649 0.2504 0.93517 0.0
C422 C 0.18551 0.15578 0.97891 0.0
C423 C 0.11081 0.15885 -0.00395 0.0
N424 N 0.23264 0.22043 0.94897 0.0
N425 N 0.1415 0.19243 0.98473 0.0
H426 H 0.10633 0.18884 0.3269 0.0
H427 H 0.95801 0.24468 0.25697 0.0
H428 H 0.97602 0.08386 0.30334 0.0
H429 H 0.1108 0.30985 0.25131 0.0
H430 H 0.96077 0.19177 0.27863 0.0
H431 H 0.10606 0.24056 0.30357 0.0
C432 C 0.0779 0.17667 0.31671 0.0
C433 C 0.04127 0.13207 0.31692 0.0
C434 C 0.99355 0.21781 0.27258 0.0
C435 C 0.04001 0.19109 0.29077 0.0
C436 C 0.99215 0.24805 0.26013 0.0
C437 C 0.03423 0.28207 0.25201 0.0
C438 C 0.03734 0.22216 0.27742 0.0
C439 C 0.07739 0.28504 0.25733 0.0
C440 C 0.0778 0.2061 0.30346 0.0
C441 C 1.00513 0.11792 0.30349 0.0
N442 N 0.07784 0.2557 0.26978 0.0
N443 N 1.00498 0.14755 0.2911 0.0
loop_
_geom_bond_atom_site_label_1
_geom_bond_atom_site_label_2
_geom_bond_distance
_geom_bond_site_symmetry_2
_ccdc_geom_bond_type
O0 Cd1 2.223 1_455 S
O0 C8 1.315 . S
Cd1 O0 2.223 1_655 S
Cd1 O4 2.297 . S
Cd1 O5 2.439 . S
Cd1 O11 2.240 1_545 S
Cd2 O3 2.240 1_565 S
Cd2 O10 2.223 1_455 S
Cd2 O12 2.297 . S
Cd2 O13 2.439 . S
O3 Cd2 2.240 1_545 S
O3 C8 1.279 . S
O4 Cd1 2.297 . S
O4 C6 1.247 . S
O5 Cd1 2.439 . S
O5 C6 1.208 . S
C6 O4 1.247 . S
C6 O5 1.208 . S
C7 O12 1.247 . S
C7 O13 1.208 . S
C8 O0 1.315 . S
C8 O3 1.279 . S
C9 O10 1.315 . S
C9 O11 1.279 . S
O10 Cd2 2.223 1_655 S
O10 C9 1.315 . S
O11 Cd1 2.240 1_565 S
O11 C9 1.279 . S
O12 Cd2 2.297 . S
O12 C7 1.247 . S
O13 Cd2 2.439 . S
O13 C7 1.208 . S
O14 Cd15 2.223 1_655 S
O14 C22 1.315 . S
Cd15 O14 2.223 1_455 S
Cd15 O18 2.297 . S
Cd15 O19 2.439 . S
Cd15 O25 2.240 . S
Cd16 O17 2.240 . S
Cd16 O24 2.223 1_655 S
Cd16 O26 2.297 . S
Cd16 O27 2.439 . S
O17 Cd16 2.240 . S
O17 C22 1.279 1_565 S
O18 Cd15 2.297 . S
O18 C20 1.247 . S
O19 Cd15 2.439 . S
O19 C20 1.208 . S
C20 O18 1.247 . S
C20 O19 1.208 . S
C21 O26 1.247 . S
C21 O27 1.208 . S
C22 O14 1.315 . S
C22 O17 1.279 1_545 S
C23 O24 1.315 . S
C23 O25 1.279 1_565 S
O24 Cd16 2.223 1_455 S
O24 C23 1.315 . S
O25 Cd15 2.240 . S
O25 C23 1.279 1_545 S
O26 Cd16 2.297 . S
O26 C21 1.247 . S
O27 Cd16 2.439 . S
O27 C21 1.208 . S
O28 Cd29 2.223 . S
O28 C36 1.315 . S
Cd29 O28 2.223 . S
Cd29 O32 2.297 . S
Cd29 O33 2.439 . S
Cd29 O39 2.240 1_655 S
Cd30 O31 2.240 1_455 S
Cd30 O38 2.223 . S
Cd30 O40 2.297 . S
Cd30 O41 2.439 . S
O31 Cd30 2.240 1_655 S
O31 C36 1.279 1_545 S
O32 Cd29 2.297 . S
O32 C34 1.247 . S
O33 Cd29 2.439 . S
O33 C34 1.208 . S
C34 O32 1.247 . S
C34 O33 1.208 . S
C35 O40 1.247 . S
C35 O41 1.208 . S
C36 O28 1.315 . S
C36 O31 1.279 1_565 S
C37 O38 1.315 . S
C37 O39 1.279 1_545 S
O38 Cd30 2.223 . S
O38 C37 1.315 . S
O39 Cd29 2.240 1_455 S
O39 C37 1.279 1_565 S
O40 Cd30 2.297 . S
O40 C35 1.247 . S
O41 Cd30 2.439 . S
O41 C35 1.208 . S
H42 C69 0.929 . S
N43 C68 1.433 . S
N43 C74 1.435 . S
N43 C80 1.423 . S
H44 C70 0.930 . S
H45 C73 0.931 . S
H46 C72 0.929 . S
H47 C75 0.930 . S
H48 C76 0.932 . S
H49 C79 0.929 . S
H50 C78 0.931 . S
H51 C81 0.929 . S
H52 C85 0.932 1_455 S
H53 C82 0.931 . S
H54 C84 0.929 1_455 S
H55 C87 0.929 . S
H56 C88 0.930 . S
H57 C90 0.929 . S
H58 C91 0.931 . S
H59 C93 0.930 . S
H60 C94 0.932 . S
H61 C96 0.931 . S
H62 C97 0.929 . S
H63 C99 0.929 . S
H64 C100 0.931 . S
H65 C102 0.929 1_455 S
N66 C86 1.433 . S
N66 C92 1.435 . S
N66 C98 1.423 . S
H67 C103 0.932 1_455 S
C68 N43 1.433 . S
C68 C69 1.363 . S
C68 C73 1.370 1_655 S
C69 H42 0.929 . S
C69 C68 1.363 . S
C69 C70 1.385 . S
C70 H44 0.930 . S
C70 C69 1.385 . S
C70 C71 1.357 . S
C71 C70 1.357 . S
C71 C72 1.406 1_655 S
C72 H46 0.929 . S
C72 C71 1.406 1_455 S
C72 C73 1.391 . S
C73 H45 0.931 . S
C73 C68 1.370 1_455 S
C73 C72 1.391 . S
C74 N43 1.435 . S
C74 C75 1.358 1_655 S
C74 C79 1.371 . S
C75 H47 0.930 . S
C75 C74 1.358 1_455 S
C75 C76 1.405 . S
C76 H48 0.932 . S
C76 C75 1.405 . S
C76 C77 1.383 1_455 S
C77 C76 1.383 1_655 S
C77 C78 1.393 . S
C78 H50 0.931 . S
C78 C77 1.393 . S
C78 C79 1.382 . S
C79 H49 0.929 . S
C79 C74 1.371 . S
C79 C78 1.382 . S
C80 N43 1.423 . S
C80 C81 1.362 . S
C80 C85 1.388 . S
C81 H51 0.929 . S
C81 C80 1.362 . S
C81 C82 1.376 . S
C82 H53 0.931 . S
C82 C81 1.376 . S
C82 C83 1.396 . S
C83 C82 1.396 . S
C83 C84 1.348 . S
C83 C101 1.472 . S
C84 H54 0.929 1_655 S
C84 C83 1.348 . S
C84 C85 1.443 . S
C85 H52 0.932 1_655 S
C85 C80 1.388 . S
C85 C84 1.443 . S
C86 N66 1.433 . S
C86 C87 1.363 . S
C86 C91 1.370 1_655 S
C87 H55 0.929 . S
C87 C86 1.363 . S
C87 C88 1.385 . S
C88 H56 0.930 . S
C88 C87 1.385 . S
C88 C89 1.357 . S
C89 C88 1.357 . S
C89 C90 1.406 1_655 S
C90 H57 0.929 . S
C90 C89 1.406 1_455 S
C90 C91 1.391 . S
C91 H58 0.931 . S
C91 C86 1.370 1_455 S
C91 C90 1.391 . S
C92 N66 1.435 . S
C92 C93 1.358 1_655 S
C92 C97 1.371 . S
C93 H59 0.930 . S
C93 C92 1.358 1_455 S
C93 C94 1.405 . S
C94 H60 0.932 . S
C94 C93 1.405 . S
C94 C95 1.383 1_455 S
C95 C94 1.383 1_655 S
C95 C96 1.393 . S
C96 H61 0.931 . S
C96 C95 1.393 . S
C96 C97 1.382 . S
C97 H62 0.929 . S
C97 C92 1.371 . S
C97 C96 1.382 . S
C98 N66 1.423 . S
C98 C99 1.362 . S
C98 C103 1.388 . S
C99 H63 0.929 . S
C99 C98 1.362 . S
C99 C100 1.376 . S
C100 H64 0.931 . S
C100 C99 1.376 . S
C100 C101 1.396 . S
C101 C83 1.472 . S
C101 C100 1.396 . S
C101 C102 1.348 . S
C102 H65 0.929 1_655 S
C102 C101 1.348 . S
C102 C103 1.443 . S
C103 H67 0.932 1_655 S
C103 C98 1.388 . S
C103 C102 1.443 . S
H104 C131 0.929 . S
N105 C130 1.433 . S
N105 C136 1.435 . S
N105 C142 1.423 . S
H106 C132 0.930 . S
H107 C135 0.931 . S
H108 C134 0.929 . S
H109 C137 0.930 . S
H110 C138 0.932 . S
H111 C141 0.929 . S
H112 C140 0.931 . S
H113 C143 0.929 . S
H114 C147 0.932 1_565 S
H115 C144 0.931 . S
H116 C146 0.929 1_565 S
H117 C149 0.929 . S
H118 C150 0.930 . S
H119 C152 0.929 . S
H120 C153 0.931 . S
H121 C155 0.930 . S
H122 C156 0.932 . S
H123 C158 0.931 . S
H124 C159 0.929 . S
H125 C161 0.929 . S
H126 C162 0.931 . S
H127 C164 0.929 1_565 S
N128 C148 1.433 . S
N128 C154 1.435 . S
N128 C160 1.423 . S
H129 C165 0.932 1_565 S
C130 N105 1.433 . S
C130 C131 1.363 . S
C130 C135 1.370 1_545 S
C131 H104 0.929 . S
C131 C130 1.363 . S
C131 C132 1.385 . S
C132 H106 0.930 . S
C132 C131 1.385 . S
C132 C133 1.357 . S
C133 C132 1.357 . S
C133 C134 1.406 1_545 S
C134 H108 0.929 . S
C134 C133 1.406 1_565 S
C134 C135 1.391 . S
C135 H107 0.931 . S
C135 C130 1.370 1_565 S
C135 C134 1.391 . S
C136 N105 1.435 . S
C136 C137 1.358 1_545 S
C136 C141 1.371 . S
C137 H109 0.930 . S
C137 C136 1.358 1_565 S
C137 C138 1.405 . S
C138 H110 0.932 . S
C138 C137 1.405 . S
C138 C139 1.383 1_565 S
C139 C138 1.383 1_545 S
C139 C140 1.393 . S
C140 H112 0.931 . S
C140 C139 1.393 . S
C140 C141 1.382 . S
C141 H111 0.929 . S
C141 C136 1.371 . S
C141 C140 1.382 . S
C142 N105 1.423 . S
C142 C143 1.362 . S
C142 C147 1.388 . S
C143 H113 0.929 . S
C143 C142 1.362 . S
C143 C144 1.376 . S
C144 H115 0.931 . S
C144 C143 1.376 . S
C144 C145 1.396 . S
C145 C144 1.396 . S
C145 C146 1.348 . S
C145 C163 1.472 . S
C146 H116 0.929 1_545 S
C146 C145 1.348 . S
C146 C147 1.443 . S
C147 H114 0.932 1_545 S
C147 C142 1.388 . S
C147 C146 1.443 . S
C148 N128 1.433 . S
C148 C149 1.363 . S
C148 C153 1.370 1_545 S
C149 H117 0.929 . S
C149 C148 1.363 . S
C149 C150 1.385 . S
C150 H118 0.930 . S
C150 C149 1.385 . S
C150 C151 1.357 . S
C151 C150 1.357 . S
C151 C152 1.406 1_545 S
C152 H119 0.929 . S
C152 C151 1.406 1_565 S
C152 C153 1.391 . S
C153 H120 0.931 . S
C153 C148 1.370 1_565 S
C153 C152 1.391 . S
C154 N128 1.435 . S
C154 C155 1.358 1_545 S
C154 C159 1.371 . S
C155 H121 0.930 . S
C155 C154 1.358 1_565 S
C155 C156 1.405 . S
C156 H122 0.932 . S
C156 C155 1.405 . S
C156 C157 1.383 1_565 S
C157 C156 1.383 1_545 S
C157 C158 1.393 . S
C158 H123 0.931 . S
C158 C157 1.393 . S
C158 C159 1.382 . S
C159 H124 0.929 . S
C159 C154 1.371 . S
C159 C158 1.382 . S
C160 N128 1.423 . S
C160 C161 1.362 . S
C160 C165 1.388 . S
C161 H125 0.929 . S
C161 C160 1.362 . S
C161 C162 1.376 . S
C162 H126 0.931 . S
C162 C161 1.376 . S
C162 C163 1.396 . S
C163 C145 1.472 . S
C163 C162 1.396 . S
C163 C164 1.348 . S
C164 H127 0.929 1_545 S
C164 C163 1.348 . S
C164 C165 1.443 . S
C165 H129 0.932 1_545 S
C165 C160 1.388 . S
C165 C164 1.443 . S
H166 C193 0.929 . S
N167 C192 1.433 . S
N167 C198 1.435 . S
N167 C204 1.423 . S
H168 C194 0.930 . S
H169 C197 0.931 . S
H170 C196 0.929 . S
H171 C199 0.930 . S
H172 C200 0.932 . S
H173 C203 0.929 . S
H174 C202 0.931 . S
H175 C205 0.929 . S
H176 C209 0.932 . S
H177 C206 0.931 . S
H178 C208 0.929 . S
H179 C211 0.929 . S
H180 C212 0.930 . S
H181 C214 0.929 . S
H182 C215 0.931 . S
H183 C217 0.930 . S
H184 C218 0.932 . S
H185 C220 0.931 . S
H186 C221 0.929 . S
H187 C223 0.929 . S
H188 C224 0.931 . S
H189 C226 0.929 . S
N190 C210 1.433 . S
N190 C216 1.435 . S
N190 C222 1.423 . S
H191 C227 0.932 . S
C192 N167 1.433 . S
C192 C193 1.363 . S
C192 C197 1.370 . S
C193 H166 0.929 . S
C193 C192 1.363 . S
C193 C194 1.385 . S
C194 H168 0.930 . S
C194 C193 1.385 . S
C194 C195 1.357 . S
C195 C194 1.357 . S
C195 C196 1.406 . S
C196 H170 0.929 . S
C196 C195 1.406 . S
C196 C197 1.391 . S
C197 H169 0.931 . S
C197 C192 1.370 . S
C197 C196 1.391 . S
C198 N167 1.435 . S
C198 C199 1.358 . S
C198 C203 1.371 . S
C199 H171 0.930 . S
C199 C198 1.358 . S
C199 C200 1.405 . S
C200 H172 0.932 . S
C200 C199 1.405 . S
C200 C201 1.383 . S
C201 C200 1.383 . S
C201 C202 1.393 . S
C202 H174 0.931 . S
C202 C201 1.393 . S
C202 C203 1.382 . S
C203 H173 0.929 . S
C203 C198 1.371 . S
C203 C202 1.382 . S
C204 N167 1.423 . S
C204 C205 1.362 . S
C204 C209 1.388 . S
C205 H175 0.929 . S
C205 C204 1.362 . S
C205 C206 1.376 . S
C206 H177 0.931 . S
C206 C205 1.376 . S
C206 C207 1.396 . S
C207 C206 1.396 . S
C207 C208 1.348 . S
C207 C225 1.472 . S
C208 H178 0.929 . S
C208 C207 1.348 . S
C208 C209 1.443 . S
C209 H176 0.932 . S
C209 C204 1.388 . S
C209 C208 1.443 . S
C210 N190 1.433 . S
C210 C211 1.363 . S
C210 C215 1.370 . S
C211 H179 0.929 . S
C211 C210 1.363 . S
C211 C212 1.385 . S
C212 H180 0.930 . S
C212 C211 1.385 . S
C212 C213 1.357 . S
C213 C212 1.357 . S
C213 C214 1.406 . S
C214 H181 0.929 . S
C214 C213 1.406 . S
C214 C215 1.391 . S
C215 H182 0.931 . S
C215 C210 1.370 . S
C215 C214 1.391 . S
C216 N190 1.435 . S
C216 C217 1.358 . S
C216 C221 1.371 . S
C217 H183 0.930 . S
C217 C216 1.358 . S
C217 C218 1.405 . S
C218 H184 0.932 . S
C218 C217 1.405 . S
C218 C219 1.383 . S
C219 C218 1.383 . S
C219 C220 1.393 . S
C220 H185 0.931 . S
C220 C219 1.393 . S
C220 C221 1.382 . S
C221 H186 0.929 . S
C221 C216 1.371 . S
C221 C220 1.382 . S
C222 N190 1.423 . S
C222 C223 1.362 . S
C222 C227 1.388 . S
C223 H187 0.929 . S
C223 C222 1.362 . S
C223 C224 1.376 . S
C224 H188 0.931 . S
C224 C223 1.376 . S
C224 C225 1.396 . S
C225 C207 1.472 . S
C225 C224 1.396 . S
C225 C226 1.348 . S
C226 H189 0.929 . S
C226 C225 1.348 . S
C226 C227 1.443 . S
C227 H191 0.932 . S
C227 C222 1.388 . S
C227 C226 1.443 . S
H228 C234 0.930 . S
H229 C238 0.930 . S
H230 C243 0.929 . S
H231 C241 0.929 . S
H232 C236 0.929 . S
H233 C242 0.929 . S
C234 H228 0.930 . S
C234 C235 1.367 . S
C234 C242 1.378 . S
C235 C234 1.367 . S
C235 C243 1.433 1_455 S
C236 H232 0.929 . S
C236 C238 1.378 . S
C236 C240 1.352 . S
C237 C240 1.462 1_455 S
C237 C242 1.350 . S
C237 N245 1.427 1_455 S
C238 H229 0.930 . S
C238 C236 1.378 . S
C238 C239 1.369 . S
C239 C238 1.369 . S
C239 C241 1.429 1_655 S
C240 C236 1.352 . S
C240 C237 1.462 1_655 S
C240 N244 1.426 1_655 S
C241 H231 0.929 . S
C241 C239 1.429 1_455 S
C241 N244 1.384 . S
C242 H233 0.929 . S
C242 C234 1.378 . S
C242 C237 1.350 . S
C243 H230 0.929 . S
C243 C235 1.433 1_655 S
C243 N245 1.384 . S
N244 C240 1.426 1_455 S
N244 C241 1.384 . S
N245 C237 1.427 1_655 S
N245 C243 1.384 . S
H246 C252 0.930 . S
H247 C256 0.930 . S
H248 C261 0.929 . S
H249 C259 0.929 . S
H250 C254 0.929 . S
H251 C260 0.929 . S
C252 H246 0.930 . S
C252 C253 1.367 1_565 S
C252 C260 1.378 . S
C253 C252 1.367 1_545 S
C253 C261 1.433 . S
C254 H250 0.929 . S
C254 C256 1.378 . S
C254 C258 1.350 . S
C255 C258 1.463 . S
C255 C260 1.350 1_545 S
C255 N263 1.427 . S
C256 H247 0.930 . S
C256 C254 1.378 . S
C256 C257 1.367 . S
C257 C256 1.367 . S
C257 C259 1.433 1_545 S
C258 C254 1.350 . S
C258 C255 1.463 . S
C258 N262 1.427 1_545 S
C259 H249 0.929 . S
C259 C257 1.433 1_565 S
C259 N262 1.384 . S
C260 H251 0.929 . S
C260 C252 1.378 . S
C260 C255 1.350 1_565 S
C261 H248 0.929 . S
C261 C253 1.433 . S
C261 N263 1.384 . S
N262 C258 1.427 1_565 S
N262 C259 1.384 . S
N263 C255 1.427 . S
N263 C261 1.384 . S
H264 C270 0.930 . S
H265 C274 0.930 . S
H266 C279 0.929 . S
H267 C277 0.929 . S
H268 C272 0.929 . S
H269 C278 0.929 . S
C270 H264 0.930 . S
C270 C271 1.367 . S
C270 C278 1.378 . S
C271 C270 1.367 . S
C271 C279 1.433 . S
C272 H268 0.929 . S
C272 C274 1.378 . S
C272 C276 1.350 . S
C273 C276 1.463 . S
C273 C278 1.350 . S
C273 N281 1.427 . S
C274 H265 0.930 . S
C274 C272 1.378 . S
C274 C275 1.367 . S
C275 C274 1.367 . S
C275 C277 1.433 . S
C276 C272 1.350 . S
C276 C273 1.463 . S
C276 N280 1.427 . S
C277 H267 0.929 . S
C277 C275 1.433 . S
C277 N280 1.384 . S
C278 H269 0.929 . S
C278 C270 1.378 . S
C278 C273 1.350 . S
C279 H266 0.929 . S
C279 C271 1.433 . S
C279 N281 1.384 . S
N280 C276 1.427 . S
N280 C277 1.384 . S
N281 C273 1.427 . S
N281 C279 1.384 . S
H282 C288 0.930 . S
H283 C292 0.930 . S
H284 C297 0.929 . S
H285 C295 0.929 . S
H286 C290 0.929 . S
H287 C296 0.929 . S
C288 H282 0.930 . S
C288 C289 1.367 . S
C288 C296 1.378 . S
C289 C288 1.367 . S
C289 C297 1.433 1_655 S
C290 H286 0.929 . S
C290 C292 1.378 . S
C290 C294 1.360 . S
C291 C294 1.457 1_655 S
C291 C296 1.350 . S
C291 N299 1.427 1_655 S
C292 H283 0.930 . S
C292 C290 1.378 . S
C292 C293 1.373 . S
C293 C292 1.373 . S
C293 C295 1.421 1_455 S
C294 C290 1.360 . S
C294 C291 1.457 1_455 S
C294 N298 1.422 1_455 S
C295 H285 0.929 . S
C295 C293 1.421 1_655 S
C295 N298 1.384 . S
C296 H287 0.929 . S
C296 C288 1.378 . S
C296 C291 1.350 . S
C297 H284 0.929 . S
C297 C289 1.433 1_455 S
C297 N299 1.384 . S
N298 C294 1.422 1_655 S
N298 C295 1.384 . S
N299 C291 1.427 1_455 S
N299 C297 1.384 . S
H300 C306 0.930 . S
H301 C310 0.930 . S
H302 C315 0.929 . S
H303 C313 0.929 . S
H304 C308 0.929 . S
H305 C314 0.929 . S
C306 H300 0.930 . S
C306 C307 1.367 . S
C306 C314 1.378 . S
C307 C306 1.367 . S
C307 C315 1.433 1_565 S
C308 H304 0.929 . S
C308 C310 1.378 . S
C308 C312 1.343 1_545 S
C309 C312 1.459 . S
C309 C314 1.350 . S
C309 N317 1.427 1_565 S
C310 H301 0.930 . S
C310 C308 1.378 . S
C310 C311 1.375 . S
C311 C310 1.375 . S
C311 C313 1.428 1_545 S
C312 C308 1.343 1_565 S
C312 C309 1.459 . S
C312 N316 1.438 . S
C313 H303 0.929 . S
C313 C311 1.428 1_565 S
C313 N316 1.384 . S
C314 H305 0.929 . S
C314 C306 1.378 . S
C314 C309 1.350 . S
C315 H302 0.929 . S
C315 C307 1.433 1_545 S
C315 N317 1.384 . S
N316 C312 1.438 . S
N316 C313 1.384 . S
N317 C309 1.427 1_545 S
N317 C315 1.384 . S
H318 C324 0.930 . S
H319 C328 0.930 . S
H320 C333 0.929 . S
H321 C331 0.929 . S
H322 C326 0.929 . S
H323 C332 0.929 . S
C324 H318 0.930 . S
C324 C325 1.367 . S
C324 C332 1.378 . S
C325 C324 1.367 . S
C325 C333 1.433 . S
C326 H322 0.929 . S
C326 C328 1.378 . S
C326 C330 1.350 . S
C327 C330 1.463 . S
C327 C332 1.350 . S
C327 N335 1.427 . S
C328 H319 0.930 . S
C328 C326 1.378 . S
C328 C329 1.367 . S
C329 C328 1.367 . S
C329 C331 1.433 . S
C330 C326 1.350 . S
C330 C327 1.463 . S
C330 N334 1.427 . S
C331 H321 0.929 . S
C331 C329 1.433 . S
C331 N334 1.384 . S
C332 H323 0.929 . S
C332 C324 1.378 . S
C332 C327 1.350 . S
C333 H320 0.929 . S
C333 C325 1.433 . S
C333 N335 1.384 . S
N334 C330 1.427 . S
N334 C331 1.384 . S
N335 C327 1.427 . S
N335 C333 1.384 . S
H336 C342 0.930 . S
H337 C346 0.930 . S
H338 C351 0.929 . S
H339 C349 0.929 . S
H340 C344 0.929 . S
H341 C350 0.929 . S
C342 H336 0.930 . S
C342 C343 1.367 . S
C342 C350 1.378 . S
C343 C342 1.367 . S
C343 C351 1.433 1_565 S
C344 H340 0.929 . S
C344 C346 1.378 . S
C344 C348 1.350 1_545 S
C345 C348 1.463 . S
C345 C350 1.350 . S
C345 N353 1.427 1_565 S
C346 H337 0.930 . S
C346 C344 1.378 . S
C346 C347 1.369 . S
C347 C346 1.369 . S
C347 C349 1.428 1_545 S
C348 C344 1.350 1_565 S
C348 C345 1.463 . S
C348 N352 1.427 . S
C349 H339 0.929 . S
C349 C347 1.428 1_565 S
C349 N352 1.384 . S
C350 H341 0.929 . S
C350 C342 1.378 . S
C350 C345 1.350 . S
C351 H338 0.929 . S
C351 C343 1.433 1_545 S
C351 N353 1.384 . S
N352 C348 1.427 . S
N352 C349 1.384 . S
N353 C345 1.427 1_545 S
N353 C351 1.384 . S
H354 C360 0.930 . S
H355 C364 0.930 . S
H356 C369 0.929 . S
H357 C367 0.929 . S
H358 C362 0.929 . S
H359 C368 0.929 . S
C360 H354 0.930 . S
C360 C361 1.367 1_554 S
C360 C368 1.378 1_554 S
C361 C360 1.367 1_556 S
C361 C369 1.433 . S
C362 H358 0.929 . S
C362 C364 1.378 . S
C362 C366 1.350 . S
C363 C366 1.463 . S
C363 C368 1.350 . S
C363 N371 1.427 . S
C364 H355 0.930 . S
C364 C362 1.378 . S
C364 C365 1.367 . S
C365 C364 1.367 . S
C365 C367 1.433 . S
C366 C362 1.350 . S
C366 C363 1.463 . S
C366 N370 1.427 . S
C367 H357 0.929 . S
C367 C365 1.433 . S
C367 N370 1.384 . S
C368 H359 0.929 . S
C368 C360 1.378 1_556 S
C368 C363 1.350 . S
C369 H356 0.929 . S
C369 C361 1.433 . S
C369 N371 1.384 . S
N370 C366 1.427 . S
N370 C367 1.384 . S
N371 C363 1.427 . S
N371 C369 1.384 . S
H372 C378 0.930 . S
H373 C382 0.923 . S
H374 C387 0.929 . S
H375 C385 0.929 . S
H376 C380 0.928 1_655 S
H377 C386 0.929 . S
C378 H372 0.930 . S
C378 C379 1.367 . S
C378 C386 1.378 . S
C379 C378 1.367 . S
C379 C387 1.433 . S
C380 H376 0.928 1_455 S
C380 C382 1.385 1_455 S
C380 C384 1.351 . S
C381 C384 1.463 . S
C381 C386 1.350 . S
C381 N389 1.427 . S
C382 H373 0.923 . S
C382 C380 1.385 1_655 S
C382 C383 1.367 1_655 S
C383 C382 1.367 1_455 S
C383 C385 1.427 . S
C384 C380 1.351 . S
C384 C381 1.463 . S
C384 N388 1.427 . S
C385 H375 0.929 . S
C385 C383 1.427 . S
C385 N388 1.384 . S
C386 H377 0.929 . S
C386 C378 1.378 . S
C386 C381 1.350 . S
C387 H374 0.929 . S
C387 C379 1.433 . S
C387 N389 1.384 . S
N388 C384 1.427 . S
N388 C385 1.384 . S
N389 C381 1.427 . S
N389 C387 1.384 . S
H390 C396 0.930 . S
H391 C400 0.930 . S
H392 C405 0.929 . S
H393 C403 0.929 . S
H394 C398 0.929 . S
H395 C404 0.929 . S
C396 H390 0.930 . S
C396 C397 1.367 1_565 S
C396 C404 1.378 . S
C397 C396 1.367 1_545 S
C397 C405 1.433 . S
C398 H394 0.929 . S
C398 C400 1.378 . S
C398 C402 1.350 . S
C399 C402 1.463 . S
C399 C404 1.350 1_545 S
C399 N407 1.427 . S
C400 H391 0.930 . S
C400 C398 1.378 . S
C400 C401 1.367 . S
C401 C400 1.367 . S
C401 C403 1.433 1_545 S
C402 C398 1.350 . S
C402 C399 1.463 . S
C402 N406 1.427 1_545 S
C403 H393 0.929 . S
C403 C401 1.433 1_565 S
C403 N406 1.384 . S
C404 H395 0.929 . S
C404 C396 1.378 . S
C404 C399 1.350 1_565 S
C405 H392 0.929 . S
C405 C397 1.433 . S
C405 N407 1.384 . S
N406 C402 1.427 1_565 S
N406 C403 1.384 . S
N407 C399 1.427 . S
N407 C405 1.384 . S
H408 C414 0.930 . S
H409 C418 0.930 . S
H410 C423 0.929 . S
H411 C421 0.929 . S
H412 C416 0.929 . S
H413 C422 0.929 . S
C414 H408 0.930 . S
C414 C415 1.367 . S
C414 C422 1.378 . S
C415 C414 1.367 . S
C415 C423 1.433 1_556 S
C416 H412 0.929 . S
C416 C418 1.378 . S
C416 C420 1.350 . S
C417 C420 1.463 . S
C417 C422 1.350 . S
C417 N425 1.427 . S
C418 H409 0.930 . S
C418 C416 1.378 . S
C418 C419 1.367 . S
C419 C418 1.367 . S
C419 C421 1.433 . S
C420 C416 1.350 . S
C420 C417 1.463 . S
C420 N424 1.427 . S
C421 H411 0.929 . S
C421 C419 1.433 . S
C421 N424 1.384 . S
C422 H413 0.929 . S
C422 C414 1.378 . S
C422 C417 1.350 . S
C423 H410 0.929 . S
C423 C415 1.433 1_554 S
C423 N425 1.384 1_554 S
N424 C420 1.427 . S
N424 C421 1.384 . S
N425 C417 1.427 . S
N425 C423 1.384 1_556 S
H426 C432 0.930 . S
H427 C436 0.930 . S
H428 C441 0.929 . S
H429 C439 0.929 . S
H430 C434 0.929 . S
H431 C440 0.929 . S
C432 H426 0.930 . S
C432 C433 1.367 1_455 S
C432 C440 1.378 . S
C433 C432 1.367 1_655 S
C433 C441 1.433 . S
C434 H430 0.929 . S
C434 C436 1.378 . S
C434 C438 1.350 . S
C435 C438 1.463 . S
C435 C440 1.350 1_655 S
C435 N443 1.427 . S
C436 H427 0.930 . S
C436 C434 1.378 . S
C436 C437 1.367 . S
C437 C436 1.367 . S
C437 C439 1.433 1_655 S
C438 C434 1.350 . S
C438 C435 1.463 . S
C438 N442 1.427 1_655 S
C439 H429 0.929 . S
C439 C437 1.433 1_455 S
C439 N442 1.384 . S
C440 H431 0.929 . S
C440 C432 1.378 . S
C440 C435 1.350 1_455 S
C441 H428 0.929 . S
C441 C433 1.433 . S
C441 N443 1.384 . S
N442 C438 1.427 1_455 S
N442 C439 1.384 . S
N443 C435 1.427 . S
N443 C441 1.384 . S
C239 C95 1.361 . S
C235 C6 1.354 1_455 S
C253 C22 1.548 . S
C257 C139 1.559 . S
C271 C34 1.159 . S
C275 C201 1.168 . S
C289 C7 1.356 1_655 S
C293 C77 1.367 1_455 S
C311 C157 1.551 . S
C307 C23 1.538 . S
C325 C35 1.156 . S
C329 C219 1.165 . S
C347 C133 1.730 . S
C343 C36 1.804 . S
C361 C9 2.056 1_556 S
C365 C195 1.973 . S
C383 C71 1.616 1_455 S
C379 C21 1.682 1_455 S
C401 C151 1.731 . S
C397 C37 1.807 . S
C419 C213 1.982 . S
C415 C8 2.059 1_556 S
C433 C20 1.670 1_655 S
C437 C89 1.594 . S
