# Generated by pormake.
# Topology ssc, (4,4)-cn, num edge types: 1
# Building blocks:
#     Node 0, Type 0, BuildingBlock: CEKHIL_clean_sbu_0, # of connection points: 4
#     Node 1, Type 0, BuildingBlock: CEKHIL_clean_sbu_0, # of connection points: 4
#     Node 2, Type 0, BuildingBlock: CEKHIL_clean_sbu_0, # of connection points: 4
#     Node 3, Type 0, BuildingBlock: CEKHIL_clean_sbu_0, # of connection points: 4
#     Node 4, Type 0, BuildingBlock: CEKHIL_clean_sbu_0, # of connection points: 4
#     Node 5, Type 0, BuildingBlock: CEKHIL_clean_sbu_0, # of connection points: 4
#     Node 6, Type 0, BuildingBlock: CEKHIL_clean_sbu_0, # of connection points: 4
#     Node 7, Type 0, BuildingBlock: CEKHIL_clean_sbu_0, # of connection points: 4
#     Node 8, Type 0, BuildingBlock: CEKHIL_clean_sbu_0, # of connection points: 4
#     Node 9, Type 0, BuildingBlock: CEKHIL_clean_sbu_0, # of connection points: 4
#     Node 10, Type 0, BuildingBlock: CEKHIL_clean_sbu_0, # of connection points: 4
#     Node 11, Type 0, BuildingBlock: CEKHIL_clean_sbu_0, # of connection points: 4
#     Node 12, Type 1, BuildingBlock: GIZVER_clean_linker_0, # of connection points: 4
#     Node 13, Type 1, BuildingBlock: GIZVER_clean_linker_0, # of connection points: 4
#     Node 14, Type 1, BuildingBlock: GIZVER_clean_linker_0, # of connection points: 4
#     Node 15, Type 1, BuildingBlock: GIZVER_clean_linker_0, # of connection points: 4
#     Node 16, Type 1, BuildingBlock: GIZVER_clean_linker_0, # of connection points: 4
#     Node 17, Type 1, BuildingBlock: GIZVER_clean_linker_0, # of connection points: 4
#     Node 18, Type 1, BuildingBlock: GIZVER_clean_linker_0, # of connection points: 4
#     Node 19, Type 1, BuildingBlock: GIZVER_clean_linker_0, # of connection points: 4
#     Node 20, Type 1, BuildingBlock: GIZVER_clean_linker_0, # of connection points: 4
#     Node 21, Type 1, BuildingBlock: GIZVER_clean_linker_0, # of connection points: 4
#     Node 22, Type 1, BuildingBlock: GIZVER_clean_linker_0, # of connection points: 4
#     Node 23, Type 1, BuildingBlock: GIZVER_clean_linker_0, # of connection points: 4
#     Edge 24, Type (0, 1), BuildingBlock: OJICUG_clean_linker_0, # of connection points: 2
#     Edge 25, Type (0, 1), BuildingBlock: OJICUG_clean_linker_0, # of connection points: 2
#     Edge 26, Type (0, 1), BuildingBlock: OJICUG_clean_linker_0, # of connection points: 2
#     Edge 27, Type (0, 1), BuildingBlock: OJICUG_clean_linker_0, # of connection points: 2
#     Edge 28, Type (0, 1), BuildingBlock: OJICUG_clean_linker_0, # of connection points: 2
#     Edge 29, Type (0, 1), BuildingBlock: OJICUG_clean_linker_0, # of connection points: 2
#     Edge 30, Type (0, 1), BuildingBlock: OJICUG_clean_linker_0, # of connection points: 2
#     Edge 31, Type (0, 1), BuildingBlock: OJICUG_clean_linker_0, # of connection points: 2
#     Edge 32, Type (0, 1), BuildingBlock: OJICUG_clean_linker_0, # of connection points: 2
#     Edge 33, Type (0, 1), BuildingBlock: OJICUG_clean_linker_0, # of connection points: 2
#     Edge 34, Type (0, 1), BuildingBlock: OJICUG_clean_linker_0, # of connection points: 2
#     Edge 35, Type (0, 1), BuildingBlock: OJICUG_clean_linker_0, # of connection points: 2
#     Edge 36, Type (0, 1), BuildingBlock: OJICUG_clean_linker_0, # of connection points: 2
#     Edge 37, Type (0, 1), BuildingBlock: OJICUG_clean_linker_0, # of connection points: 2
#     Edge 38, Type (0, 1), BuildingBlock: OJICUG_clean_linker_0, # of connection points: 2
#     Edge 39, Type (0, 1), BuildingBlock: OJICUG_clean_linker_0, # of connection points: 2
#     Edge 40, Type (0, 1), BuildingBlock: OJICUG_clean_linker_0, # of connection points: 2
#     Edge 41, Type (0, 1), BuildingBlock: OJICUG_clean_linker_0, # of connection points: 2
#     Edge 42, Type (0, 1), BuildingBlock: OJICUG_clean_linker_0, # of connection points: 2
#     Edge 43, Type (0, 1), BuildingBlock: OJICUG_clean_linker_0, # of connection points: 2
#     Edge 44, Type (0, 1), BuildingBlock: OJICUG_clean_linker_0, # of connection points: 2
#     Edge 45, Type (0, 1), BuildingBlock: OJICUG_clean_linker_0, # of connection points: 2
#     Edge 46, Type (0, 1), BuildingBlock: OJICUG_clean_linker_0, # of connection points: 2
#     Edge 47, Type (0, 1), BuildingBlock: OJICUG_clean_linker_0, # of connection points: 2
#     Edge 48, Type (0, 1), BuildingBlock: OJICUG_clean_linker_0, # of connection points: 2
#     Edge 49, Type (0, 1), BuildingBlock: OJICUG_clean_linker_0, # of connection points: 2
#     Edge 50, Type (0, 1), BuildingBlock: OJICUG_clean_linker_0, # of connection points: 2
#     Edge 51, Type (0, 1), BuildingBlock: OJICUG_clean_linker_0, # of connection points: 2
#     Edge 52, Type (0, 1), BuildingBlock: OJICUG_clean_linker_0, # of connection points: 2
#     Edge 53, Type (0, 1), BuildingBlock: OJICUG_clean_linker_0, # of connection points: 2
#     Edge 54, Type (0, 1), BuildingBlock: OJICUG_clean_linker_0, # of connection points: 2
#     Edge 55, Type (0, 1), BuildingBlock: OJICUG_clean_linker_0, # of connection points: 2
#     Edge 56, Type (0, 1), BuildingBlock: OJICUG_clean_linker_0, # of connection points: 2
#     Edge 57, Type (0, 1), BuildingBlock: OJICUG_clean_linker_0, # of connection points: 2
#     Edge 58, Type (0, 1), BuildingBlock: OJICUG_clean_linker_0, # of connection points: 2
#     Edge 59, Type (0, 1), BuildingBlock: OJICUG_clean_linker_0, # of connection points: 2
#     Edge 60, Type (0, 1), BuildingBlock: OJICUG_clean_linker_0, # of connection points: 2
#     Edge 61, Type (0, 1), BuildingBlock: OJICUG_clean_linker_0, # of connection points: 2
#     Edge 62, Type (0, 1), BuildingBlock: OJICUG_clean_linker_0, # of connection points: 2
#     Edge 63, Type (0, 1), BuildingBlock: OJICUG_clean_linker_0, # of connection points: 2
#     Edge 64, Type (0, 1), BuildingBlock: OJICUG_clean_linker_0, # of connection points: 2
#     Edge 65, Type (0, 1), BuildingBlock: OJICUG_clean_linker_0, # of connection points: 2
#     Edge 66, Type (0, 1), BuildingBlock: OJICUG_clean_linker_0, # of connection points: 2
#     Edge 67, Type (0, 1), BuildingBlock: OJICUG_clean_linker_0, # of connection points: 2
#     Edge 68, Type (0, 1), BuildingBlock: OJICUG_clean_linker_0, # of connection points: 2
#     Edge 69, Type (0, 1), BuildingBlock: OJICUG_clean_linker_0, # of connection points: 2
#     Edge 70, Type (0, 1), BuildingBlock: OJICUG_clean_linker_0, # of connection points: 2
#     Edge 71, Type (0, 1), BuildingBlock: OJICUG_clean_linker_0, # of connection points: 2
# Relax obj value: 0.117
# Max RMSD: 0.302
# Mean RMSD: 0.276
data_MOF--net-ssc--node1-CEKHIL_clean_sbu_0--node2-GIZVER_clean_linker_0--edge1-OJICUG_clean_linker_0
_symmetry_space_group_name_H-M    P1
_symmetry_Int_Tables_number       1
_symmetry_cell_setting            triclinic
loop_
_symmetry_equiv_pos_as_xyz
'x, y, z'
_cell_length_a     23.108215
_cell_length_b     23.196146
_cell_length_c     23.024074
_cell_angle_alpha  91.725473
_cell_angle_beta   89.995119
_cell_angle_gamma 93.971668
loop_
_atom_site_label
_atom_site_type_symbol
_atom_site_fract_x
_atom_site_fract_y
_atom_site_fract_z
_atom_type_partial_charge
Co0 Co 0.97501 0.22664 0.15321 0.0
O1 O 0.016 0.21709 0.0812 0.0
O2 O 0.957 0.28636 0.10051 0.0
C3 C 0.04843 0.21682 0.21521 0.0
O4 O 0.92823 0.25142 0.2235 0.0
Co5 Co 0.95692 0.11898 0.22963 0.0
O6 O 0.92052 0.17504 0.28223 0.0
C7 C 0.89846 0.12036 0.11853 0.0
C8 C 0.99182 0.26252 0.06403 0.0
C9 C 0.91209 0.2273 0.27095 0.0
O10 O 0.90855 0.17547 0.12104 0.0
O11 O 0.91908 0.08731 0.15561 0.0
O12 O 0.04311 0.26523 0.18945 0.0
O13 O 0.01461 0.17345 0.19599 0.0
Co14 Co 0.04707 0.65904 0.40528 0.0
O15 O 0.09293 0.61288 0.45213 0.0
O16 O -0.00336 0.60655 0.44816 0.0
C17 C 0.09916 0.65178 0.32353 0.0
O18 O 0.9845 0.6964 0.36153 0.0
Co19 Co 0.09978 0.77496 0.35606 0.0
O20 O 0.02027 0.78056 0.32559 0.0
C21 C 0.06203 0.77219 0.47776 0.0
C22 C 0.0439 0.589 0.47006 0.0
C23 C 0.97855 0.74304 0.33432 0.0
O24 O 0.04321 0.71892 0.47039 0.0
O25 O 0.08906 0.80119 0.43856 0.0
O26 O 0.06158 0.61007 0.33707 0.0
O27 O 0.10824 0.69292 0.36201 0.0
Co28 Co 0.5663 0.84829 0.66089 0.0
O29 O 0.62036 0.87555 0.60318 0.0
O30 O 0.53403 0.90945 0.61888 0.0
C31 C 0.63146 0.84661 0.73308 0.0
O32 O 0.50054 0.83391 0.71958 0.0
Co33 Co 0.57783 0.72897 0.71629 0.0
O34 O 0.527 0.76279 0.77591 0.0
C35 C 0.53294 0.73326 0.59687 0.0
C36 C 0.58251 0.9118 0.59007 0.0
C37 C 0.496 0.80481 0.76637 0.0
O38 O 0.5305 0.78844 0.60321 0.0
O39 O 0.55405 0.70212 0.63554 0.0
O40 O 0.60991 0.89485 0.71982 0.0
O41 O 0.61708 0.80273 0.69911 0.0
Co42 Co 0.47641 0.33184 0.89775 0.0
O43 O 0.51757 0.30996 0.96458 0.0
O44 O 0.4246 0.28517 0.94593 0.0
C45 C 0.5442 0.31015 0.83112 0.0
O46 O 0.42003 0.34579 0.8332 0.0
Co47 Co 0.52425 0.43705 0.83323 0.0
O48 O 0.452 0.42552 0.78667 0.0
C49 C 0.48412 0.44965 0.95133 0.0
C50 C 0.46871 0.28459 0.98082 0.0
C51 C 0.41417 0.3841 0.79496 0.0
O52 O 0.45432 0.40198 0.94222 0.0
O53 O 0.5216 0.46953 0.91526 0.0
O54 O 0.50671 0.27111 0.8506 0.0
O55 O 0.54396 0.36065 0.85707 0.0
Co56 Co 0.13944 0.91505 0.27965 0.0
O57 O 0.20423 0.87783 0.24706 0.0
O58 O 0.17868 0.87416 0.33961 0.0
C59 C 0.07963 0.88629 0.20566 0.0
O60 O 0.07384 0.94691 0.32957 0.0
Co61 Co 0.07967 0.01139 0.21526 0.0
O62 O 0.01783 -0.00169 0.27382 0.0
C63 C 0.19277 0.03718 0.27328 0.0
C64 C 0.21356 0.85902 0.29843 0.0
C65 C 0.02814 0.97496 0.32176 0.0
O66 O 0.19017 0.98691 0.29551 0.0
O67 O 0.15476 0.05459 0.23874 0.0
O68 O 0.08757 0.85185 0.24806 0.0
O69 O 0.10906 0.93544 0.20834 0.0
Co70 Co 0.16801 0.89798 0.64206 0.0
O71 O 0.13996 0.95928 0.68975 0.0
O72 O 0.11814 0.9425 0.59687 0.0
C73 C 0.15241 0.82758 0.70683 0.0
O74 O 0.18432 0.83661 0.58013 0.0
Co75 Co 0.27727 0.83714 0.67558 0.0
O76 O 0.24049 0.77553 0.62348 0.0
C77 C 0.29287 0.95029 0.62173 0.0
C78 C 0.11144 0.97298 0.64429 0.0
C79 C 0.20571 0.78708 0.5833 0.0
O80 O 0.23725 0.94999 0.61738 0.0
O81 O 0.31843 0.90937 0.64476 0.0
O82 O 0.11007 0.84411 0.67578 0.0
O83 O 0.20124 0.85807 0.70195 0.0
Co84 Co 0.40965 0.08596 0.76847 0.0
O85 O 0.36709 0.12047 0.70915 0.0
O86 O 0.37428 0.15339 0.80042 0.0
C87 C 0.48914 0.0701 0.71524 0.0
O88 O 0.45049 0.06221 0.84166 0.0
Co89 Co 0.43545 0.95767 0.75219 0.0
O90 O 0.4746 0.97026 0.82833 0.0
C91 C 0.31751 0.98709 0.77922 0.0
C92 C 0.35095 0.15651 0.74922 0.0
C93 C 0.47335 0.01677 0.85902 0.0
O94 O 0.33735 0.03924 0.7891 0.0
O95 O 0.34886 0.94724 0.76048 0.0
O96 O 0.48289 0.12045 0.73999 0.0
O97 O 0.44481 0.03321 0.71775 0.0
Co98 Co 0.31112 0.13308 0.126 0.0
O99 O 0.33211 0.06284 0.15914 0.0
O100 O 0.35234 0.08862 0.06892 0.0
C101 C 0.3386 0.19319 0.20176 0.0
O102 O 0.30113 0.20342 0.07714 0.0
Co103 Co 0.21533 0.205 0.17807 0.0
O104 O 0.25398 0.26689 0.13129 0.0
C105 C 0.18074 0.09866 0.1117 0.0
C106 C 0.356 0.05143 0.1095 0.0
C107 C 0.28562 0.25484 0.08799 0.0
O108 O 0.23451 0.09356 0.09889 0.0
O109 O 0.16343 0.13946 0.14451 0.0
O110 O 0.37668 0.17527 0.16519 0.0
O111 O 0.28673 0.16927 0.19491 0.0
Co112 Co 0.75247 0.35907 0.93107 0.0
O113 O 0.71711 0.4091 0.98589 0.0
O114 O 0.69612 0.4035 0.89198 0.0
C115 C 0.74819 0.27943 0.98418 0.0
O116 O 0.77923 0.30932 0.86336 0.0
Co117 Co 0.87215 0.31788 0.96313 0.0
O118 O 0.86005 0.26879 0.89175 0.0
C119 C 0.86004 0.43837 0.94112 0.0
C120 C 0.68889 0.42842 0.94275 0.0
C121 C 0.81923 0.27388 0.85539 0.0
O122 O 0.81209 0.42282 0.91588 0.0
O123 O 0.89019 0.40376 0.96805 0.0
O124 O 0.7034 0.29283 0.95441 0.0
O125 O 0.79111 0.31835 0.98707 0.0
Co126 Co 0.86448 0.50121 0.1645 0.0
O127 O 0.8104 0.5336 0.11365 0.0
O128 O 0.81958 0.55527 0.20792 0.0
C129 C 0.93936 0.51382 0.10309 0.0
O130 O 0.91818 0.48081 0.23062 0.0
Co131 Co 0.92612 0.39174 0.13348 0.0
O132 O 0.98383 0.42477 0.19122 0.0
C133 C 0.80497 0.37995 0.17366 0.0
C134 C 0.79539 0.56439 0.15838 0.0
C135 C 0.96744 0.45815 0.2319 0.0
O136 O 0.80613 0.43516 0.18175 0.0
O137 O 0.84808 0.35365 0.15393 0.0
O138 O 0.9244 0.55593 0.13701 0.0
O139 O 0.90706 0.46599 0.10455 0.0
Co140 Co 0.7179 0.63884 0.44697 0.0
O141 O 0.73977 0.58682 0.50501 0.0
O142 O 0.77942 0.59318 0.41747 0.0
C143 C 0.71554 0.71973 0.50219 0.0
O144 O 0.7081 0.68829 0.37708 0.0
Co145 Co 0.59717 0.68754 0.45594 0.0
O146 O 0.62442 0.73169 0.3881 0.0
C147 C 0.60462 0.56712 0.42354 0.0
C148 C 0.77604 0.5678 0.46711 0.0
C149 C 0.67119 0.72341 0.36077 0.0
O150 O 0.65934 0.57778 0.41734 0.0
O151 O 0.57072 0.60428 0.44288 0.0
O152 O 0.76438 0.70301 0.48196 0.0
O153 O 0.67098 0.68297 0.49612 0.0
Co154 Co 0.68185 0.5081 0.69427 0.0
O155 O 0.75659 0.47939 0.68154 0.0
O156 O 0.71222 0.48278 0.76708 0.0
C157 C 0.63497 0.46314 0.61746 0.0
O158 O 0.60399 0.53218 0.72396 0.0
Co159 Co 0.63161 0.58915 0.60519 0.0
O160 O 0.55954 0.57489 0.65175 0.0
C161 C 0.73047 0.6315 0.67732 0.0
C162 C 0.7574 0.47037 0.73696 0.0
C163 C 0.55903 0.55291 0.70178 0.0
O164 O 0.72016 0.58788 0.7098 0.0
O165 O 0.7039 0.63753 0.62947 0.0
O166 O 0.64327 0.43555 0.66469 0.0
O167 O 0.66138 0.51404 0.6158 0.0
H168 H 0.15662 0.33779 0.65694 0.0
H169 H 0.00526 0.23214 0.60177 0.0
H170 H 0.11382 0.17717 0.73801 0.0
H171 H 0.09566 0.37347 0.58487 0.0
H172 H 0.05532 0.31732 0.54361 0.0
H173 H 0.01599 0.36209 0.69703 0.0
H174 H 0.86519 0.44218 0.64291 0.0
H175 H 0.9815 0.38049 0.5137 0.0
C176 C 0.12573 0.30134 0.66401 0.0
C177 C 0.13951 0.25899 0.70301 0.0
C178 C 0.07489 0.29366 0.63008 0.0
C179 C 0.04034 0.24136 0.63267 0.0
C180 C 0.05467 0.19876 0.67123 0.0
C181 C 0.1004 0.2112 0.71064 0.0
C182 C 0.0602 0.33877 0.58739 0.0
C183 C 0.00454 0.3662 0.60317 0.0
C184 C 0.98914 0.37545 0.66201 0.0
C185 C 0.93834 0.40179 0.67572 0.0
C186 C 0.90369 0.42033 0.6312 0.0
C187 C 0.91788 0.41258 0.57266 0.0
C188 C 0.96918 0.38601 0.5587 0.0
H189 H 0.0632 0.85776 0.81641 0.0
H190 H 0.00981 0.87451 0.99415 0.0
H191 H 0.1001 0.01682 0.91211 0.0
H192 H 0.05716 0.77694 0.87608 0.0
H193 H 0.03851 0.78439 0.95052 0.0
H194 H 0.94839 0.81204 0.814 0.0
H195 H 0.83515 0.66087 0.8443 0.0
H196 H 0.97883 0.70227 0.95743 0.0
C197 C 0.05536 0.88512 0.85416 0.0
C198 C 0.08483 0.9398 0.85885 0.0
C199 C 0.02854 0.86054 0.903 0.0
C200 C 0.02473 0.89462 0.95454 0.0
C201 C 0.04851 0.95212 0.95707 0.0
C202 C 0.07572 0.97519 0.90775 0.0
C203 C 0.02503 0.79551 0.90599 0.0
C204 C 0.96681 0.76501 0.8916 0.0
C205 C 0.9344 0.77668 0.84144 0.0
C206 C 0.88519 0.74003 0.82579 0.0
C207 C 0.87054 0.69137 0.85848 0.0
C208 C 0.90516 0.67719 0.90432 0.0
C209 C 0.95177 0.71463 0.92213 0.0
H210 H 0.49032 0.61885 0.00079 0.0
H211 H 0.56378 0.71916 0.14492 0.0
H212 H 0.67029 0.67054 0.00091 0.0
H213 H 0.42444 0.66914 0.06493 0.0
H214 H 0.45639 0.63892 0.12638 0.0
H215 H 0.46518 0.78927 0.06409 0.0
H216 H 0.40211 0.86685 0.22037 0.0
H217 H 0.41258 0.68314 0.2083 0.0
C218 C 0.52633 0.64587 0.01893 0.0
C219 C 0.5822 0.64048 -0.0038 0.0
C220 C 0.51837 0.67939 0.07018 0.0
C221 C 0.56799 0.70267 0.10069 0.0
C222 C 0.6237 0.69661 0.07745 0.0
C223 C 0.62788 0.67612 0.01959 0.0
C224 C 0.45897 0.67712 0.09841 0.0
C225 C 0.44646 0.73061 0.13432 0.0
C226 C 0.45129 0.7852 0.10885 0.0
C227 C 0.43646 0.83421 0.14088 0.0
C228 C 0.41683 0.82876 0.19789 0.0
C229 C 0.40625 0.77471 0.22238 0.0
C230 C 0.42214 0.72543 0.1906 0.0
H231 H 0.61112 0.19445 0.30064 0.0
H232 H 0.51372 0.28605 0.4287 0.0
H233 H 0.58685 0.3754 0.28403 0.0
H234 H 0.56422 0.14125 0.37841 0.0
H235 H 0.57038 0.18655 0.44247 0.0
H236 H 0.45292 0.17881 0.32769 0.0
H237 H 0.32037 0.11823 0.4447 0.0
H238 H 0.49808 0.13078 0.50016 0.0
C239 C 0.59067 0.23311 0.31468 0.0
C240 C 0.60199 0.28487 0.28438 0.0
C241 C 0.55561 0.23244 0.36534 0.0
C242 C 0.53488 0.28444 0.38671 0.0
C243 C 0.54587 0.33534 0.35656 0.0
C244 C 0.57581 0.33434 0.30409 0.0
C245 C 0.54603 0.17856 0.40101 0.0
C246 C 0.48248 0.16341 0.41473 0.0
C247 C 0.44023 0.16705 0.3713 0.0
C248 C 0.38184 0.15234 0.38311 0.0
C249 C 0.36536 0.1332 0.43791 0.0
C250 C 0.40668 0.12278 0.47983 0.0
C251 C 0.46558 0.13876 0.46834 0.0
H252 H 0.49587 0.1166 0.21111 0.0
H253 H 0.66954 0.06658 0.17918 0.0
H254 H 0.61702 0.22784 0.11963 0.0
H255 H 0.52121 0.02852 0.24715 0.0
H256 H 0.56294 -9e-05 0.18922 0.0
H257 H 0.56809 0.05206 0.34372 0.0
H258 H 0.6973 0.93637 0.3854 0.0
H259 H 0.6454 0.95289 0.20868 0.0
C260 C 0.54013 0.12753 0.19762 0.0
C261 C 0.55209 0.17713 0.16585 0.0
C262 C 0.58319 0.08851 0.20523 0.0
C263 C 0.63836 0.09939 0.17982 0.0
C264 C 0.65092 0.15054 0.15028 0.0
C265 C 0.6086 0.19059 0.14667 0.0
C266 C 0.56534 0.03003 0.22762 0.0
C267 C 0.60745 0.01 0.27087 0.0
C268 C 0.6021 0.02506 0.33003 0.0
C269 C 0.63585 -0.00019 0.37168 0.0
C270 C 0.67551 0.96011 0.353 0.0
C271 C 0.67707 0.94079 0.29479 0.0
C272 C 0.6457 0.96858 0.25344 0.0
H273 H 0.25346 0.3868 0.54367 0.0
H274 H 0.40222 0.42009 0.4323 0.0
H275 H 0.42479 0.36297 0.60507 0.0
H276 H 0.28765 0.46583 0.4314 0.0
H277 H 0.30383 0.40384 0.38915 0.0
H278 H 0.24267 0.30529 0.42127 0.0
H279 H 0.06329 0.33465 0.39942 0.0
H280 H 0.18889 0.47821 0.41951 0.0
C281 C 0.29941 0.38538 0.53491 0.0
C282 C 0.33664 0.37078 0.57927 0.0
C283 C 0.32255 0.39984 0.48001 0.0
C284 C 0.38365 0.40396 0.47235 0.0
C285 C 0.42057 0.38946 0.51737 0.0
C286 C 0.39617 0.37103 0.56919 0.0
C287 C 0.28463 0.41775 0.43101 0.0
C288 C 0.22161 0.39422 0.43138 0.0
C289 C 0.20782 0.3342 0.42461 0.0
C290 C 0.15063 0.3127 0.41122 0.0
C291 C 0.10649 0.35115 0.41253 0.0
C292 C 0.12027 0.41085 0.41069 0.0
C293 C 0.17756 0.43228 0.4228 0.0
H294 H 0.968 0.8954 0.73046 0.0
H295 H 0.78138 0.89601 0.72431 0.0
H296 H 0.87858 0.86144 0.56952 0.0
H297 H 0.85274 0.87513 0.81904 0.0
H298 H 0.91933 0.91927 0.81631 0.0
H299 H 0.85758 0.94753 0.90908 0.0
H300 H 0.75677 0.09186 0.88025 0.0
H301 H 0.8387 0.00876 0.73649 0.0
C302 C 0.92779 0.89324 0.70596 0.0
C303 C 0.92854 0.87937 0.64654 0.0
C304 C 0.87481 0.90204 0.73397 0.0
C305 C 0.82247 0.89363 0.70215 0.0
C306 C 0.82332 0.88061 0.6421 0.0
C307 C 0.87695 0.87524 0.61491 0.0
C308 C 0.8743 0.91392 0.79887 0.0
C309 C 0.84242 0.96574 0.8192 0.0
C310 C 0.83668 0.97521 0.87958 0.0
C311 C 0.80852 0.02291 0.90157 0.0
C312 C 0.78013 0.05629 0.86272 0.0
C313 C 0.79482 0.05475 0.80368 0.0
C314 C 0.82561 0.0088 0.78163 0.0
H315 H 0.2856 0.6446 0.09812 0.0
H316 H 0.19884 0.55106 0.95475 0.0
H317 H 0.10106 0.63873 0.08431 0.0
H318 H 0.34266 0.60333 0.0254 0.0
H319 H 0.3061 0.53973 0.99245 0.0
H320 H 0.30909 0.7015 0.96522 0.0
H321 H 0.37579 0.67865 0.79278 0.0
H322 H 0.34902 0.53264 0.9007 0.0
C323 C 0.2465 0.63363 0.07298 0.0
C324 C 0.19265 0.64619 0.09617 0.0
C325 C 0.2492 0.60325 0.01913 0.0
C326 C 0.1974 0.58072 0.99196 0.0
C327 C 0.14385 0.59402 0.0155 0.0
C328 C 0.14258 0.63099 0.0644 0.0
C329 C 0.30689 0.58773 -0.00447 0.0
C330 C 0.31982 0.61285 0.93686 0.0
C331 C 0.31994 0.67308 0.92921 0.0
C332 C 0.33874 0.6969 0.87649 0.0
C333 C 0.35691 0.65997 0.83171 0.0
C334 C 0.36343 0.60163 0.84115 0.0
C335 C 0.3429 0.57769 0.89294 0.0
H336 H 0.73763 0.82415 0.1915 0.0
H337 H 0.84247 0.89411 0.05425 0.0
H338 H 0.89001 0.74377 0.14131 0.0
H339 H 0.7168 0.91343 0.1527 0.0
H340 H 0.76744 0.94948 0.10526 0.0
H341 H 0.74871 0.84436 0.00694 0.0
H342 H 0.59007 0.8892 0.93266 0.0
H343 H 0.64498 0.96737 0.09638 0.0
C344 C 0.77254 0.82008 0.16115 0.0
C345 C 0.81417 0.78074 0.17165 0.0
C346 C 0.78071 0.85943 0.11633 0.0
C347 C 0.83231 0.85975 0.08377 0.0
C348 C 0.8744 0.82068 0.09508 0.0
C349 C 0.85864 0.77463 0.13134 0.0
C350 C 0.74112 0.90838 0.11151 0.0
C351 C 0.69822 0.90057 0.06198 0.0
C352 C 0.70904 0.86597 0.0121 0.0
C353 C 0.66978 0.86203 0.96607 0.0
C354 C 0.61905 0.89084 0.96999 0.0
C355 C 0.61117 0.93086 0.01513 0.0
C356 C 0.65041 0.93553 0.06172 0.0
H357 H 0.40106 0.58029 0.19187 0.0
H358 H 0.32497 0.46148 0.31407 0.0
H359 H 0.44636 0.40462 0.18761 0.0
H360 H 0.32484 0.60971 0.2486 0.0
H361 H 0.2764 0.55086 0.27014 0.0
H362 H 0.42075 0.59764 0.34375 0.0
H363 H 0.33546 0.66716 0.49313 0.0
H364 H 0.2342 0.60505 0.34642 0.0
C365 C 0.39966 0.53849 0.21154 0.0
C366 C 0.43025 0.49439 0.18578 0.0
C367 C 0.36262 0.52728 0.25889 0.0
C368 C 0.35686 0.4711 0.28086 0.0
C369 C 0.3887 0.42679 0.25642 0.0
C370 C 0.42606 0.43968 0.21 0.0
C371 C 0.32077 0.57172 0.27694 0.0
C372 C 0.3264 0.5937 0.33926 0.0
C373 C 0.38105 0.60658 0.36626 0.0
C374 C 0.38378 0.63236 0.42235 0.0
C375 C 0.33287 0.64557 0.45055 0.0
C376 C 0.27923 0.63619 0.42323 0.0
C377 C 0.27585 0.61035 0.36779 0.0
H378 H 0.78747 0.25033 0.6839 0.0
H379 H 0.75844 0.08517 0.59571 0.0
H380 H 0.61987 0.19806 0.6148 0.0
H381 H 0.87086 0.19682 0.65749 0.0
H382 H 0.85265 0.12024 0.65193 0.0
H383 H 0.85262 0.24933 0.5553 0.0
H384 H 0.93051 0.16051 0.41267 0.0
H385 H 0.89241 0.07056 0.5699 0.0
C386 C 0.7597 0.22089 0.65712 0.0
C387 C 0.69968 0.22825 0.6543 0.0
C388 C 0.78239 0.17163 0.62969 0.0
C389 C 0.74334 0.12728 0.60699 0.0
C390 C 0.68399 0.13588 0.60389 0.0
C391 C 0.66583 0.19118 0.61703 0.0
C392 C 0.84661 0.16209 0.63124 0.0
C393 C 0.87173 0.16083 0.57057 0.0
C394 C 0.87132 0.21096 0.5376 0.0
C395 C 0.89268 0.21068 0.48095 0.0
C396 C 0.91516 0.16061 0.45727 0.0
C397 C 0.91416 0.1095 0.48796 0.0
C398 C 0.89334 0.10984 0.54552 0.0
H399 H 0.11743 0.43657 0.6939 0.0
H400 H 0.18938 0.56777 0.81451 0.0
H401 H 0.05351 0.60534 0.69751 0.0
H402 H 0.20255 0.41962 0.74432 0.0
H403 H 0.24297 0.48154 0.77624 0.0
H404 H 0.09734 0.40748 0.82049 0.0
H405 H 0.16558 0.35966 0.9838 0.0
H406 H 0.28034 0.43875 0.85869 0.0
C407 C 0.11582 0.47898 0.71471 0.0
C408 C 0.07948 0.51843 0.69196 0.0
C409 C 0.15487 0.49625 0.75957 0.0
C410 C 0.15657 0.55335 0.78263 0.0
C411 C 0.119 0.59287 0.76109 0.0
C412 C 0.07889 0.57384 0.71779 0.0
C413 C 0.20025 0.45631 0.77629 0.0
C414 C 0.18906 0.43177 0.83523 0.0
C415 C 0.13335 0.40773 0.85065 0.0
C416 C 0.12511 0.38208 0.90459 0.0
C417 C 0.17187 0.38116 0.94274 0.0
C418 C 0.22784 0.40033 0.92608 0.0
C419 C 0.23658 0.42574 0.87237 0.0
C420 C 0.00033 0.34756 -0.00056 0.0
C421 C 0.00901 0.28921 0.00853 0.0
H422 H 0.02812 0.4235 0.95292 0.0
C423 C 0.04229 0.25917 0.96823 0.0
H424 H 0.9744 0.37145 0.02958 0.0
C425 C 0.07297 0.28897 0.92486 0.0
C426 C 0.07118 0.34921 0.92161 0.0
H427 H 0.04896 0.21384 0.97344 0.0
H428 H 0.10405 0.26637 0.89912 0.0
C429 C 0.03085 0.37731 0.95566 0.0
C430 C 0.90755 0.80888 0.298 0.0
C431 C 0.92191 0.75242 0.30861 0.0
H432 H 0.85696 0.86191 0.24726 0.0
C433 C 0.88544 0.70546 0.28759 0.0
H434 H 0.93424 0.8459 0.31487 0.0
C435 C 0.84065 0.71478 0.24895 0.0
C436 C 0.83173 0.77096 0.23176 0.0
H437 H 0.89521 0.66144 0.29591 0.0
H438 H 0.81808 0.67801 0.22743 0.0
C439 C 0.86239 0.81807 0.26028 0.0
C440 C 0.49594 0.73338 0.49384 0.0
C441 C 0.50581 0.7034 0.54475 0.0
H442 H 0.45143 0.73201 0.41179 0.0
C443 C 0.48487 0.64522 0.54749 0.0
H444 H 0.51166 0.77823 0.49027 0.0
C445 C 0.45065 0.61913 0.50288 0.0
C446 C 0.43801 0.64989 0.45362 0.0
H447 H 0.49052 0.62124 0.58622 0.0
H448 H 0.42884 0.5771 0.50963 0.0
C449 C 0.46261 0.70662 0.44839 0.0
C450 C 0.6273 0.33261 0.75988 0.0
C451 C 0.589 0.29301 0.78882 0.0
H452 H 0.6936 0.34339 0.69355 0.0
C453 C 0.59239 0.23381 0.77659 0.0
H454 H 0.62606 0.37858 0.76896 0.0
C455 C 0.63059 0.21446 0.73528 0.0
C456 C 0.66726 0.25323 0.70407 0.0
H457 H 0.56479 0.20167 0.7985 0.0
H458 H 0.63052 0.16834 0.72676 0.0
C459 C 0.66611 0.31271 0.71729 0.0
C460 C 0.09076 0.52046 0.53226 0.0
C461 C 0.04247 0.55126 0.51994 0.0
H462 H 0.13925 0.48255 0.59789 0.0
C463 C -0.00196 0.55465 0.56119 0.0
H464 H 0.12537 0.51725 0.5009 0.0
C465 C 0.00537 0.5339 0.61667 0.0
C466 C 0.05784 0.51097 0.63169 0.0
H467 H 0.96027 0.57825 0.55254 0.0
H468 H 0.97343 0.54249 0.64969 0.0
C469 C 0.09824 0.49993 0.58775 0.0
C470 C 0.65076 0.79166 0.8219 0.0
C471 C 0.66129 0.8412 0.7887 0.0
H472 H 0.64692 0.75861 0.90796 0.0
C473 C 0.69245 0.88972 0.81334 0.0
H474 H 0.62835 0.75297 0.80356 0.0
C475 C 0.70635 0.8913 0.87208 0.0
C476 C 0.68718 0.84546 0.9072 0.0
H477 H 0.70132 0.92835 0.7886 0.0
H478 H 0.72304 0.93194 0.89183 0.0
C479 C 0.66276 0.79409 0.88139 0.0
C480 C 0.43596 0.51099 0.02395 0.0
C481 C 0.48064 0.47568 0.00953 0.0
H482 H 0.38478 0.54526 0.09252 0.0
C483 C 0.51434 0.45464 0.05357 0.0
H484 H 0.40877 0.52592 0.99019 0.0
C485 C 0.5036 0.46861 0.11157 0.0
C486 C 0.45539 0.49958 0.12674 0.0
H487 H 0.54703 0.42466 0.04327 0.0
H488 H 0.52937 0.45014 0.14468 0.0
C489 C 0.42307 0.52268 0.08228 0.0
C490 C 0.83856 0.24448 0.34483 0.0
C491 C 0.8921 0.26213 0.3201 0.0
H492 H 0.79415 0.22168 0.42273 0.0
C493 C 0.93534 0.29001 0.35582 0.0
H494 H 0.80525 0.22125 0.31859 0.0
C495 C 0.93054 0.28635 0.41621 0.0
C496 C 0.88181 0.25624 0.44007 0.0
H497 H 0.97706 0.3039 0.33759 0.0
H498 H 0.96896 0.2964 0.44255 0.0
C499 C 0.8325 0.24435 0.40506 0.0
C500 C 0.01434 0.00077 0.42792 0.0
C501 C 0.99078 0.99056 0.37184 0.0
H502 H 0.00657 0.04591 0.5101 0.0
C503 C 0.93458 0.00767 0.36115 0.0
H504 H 0.05751 0.98834 0.43775 0.0
C505 C 0.90598 0.04047 0.40271 0.0
C506 C 0.93278 0.05702 0.45604 0.0
H507 H 0.91473 1e-05 0.31872 0.0
H508 H 0.86528 0.05764 0.39097 0.0
C509 C 0.98539 0.03379 0.46958 0.0
C510 C 0.19424 0.73949 0.74491 0.0
C511 C 0.14637 0.77259 0.73774 0.0
H512 H 0.22342 0.65565 0.75952 0.0
C513 C 0.09113 0.74928 0.75354 0.0
H514 H 0.23702 0.75619 0.73243 0.0
C515 C 0.08327 0.69208 0.77084 0.0
C516 C 0.13018 0.65642 0.77021 0.0
H517 H 0.05338 0.77402 0.74906 0.0
H518 H 0.03953 0.67402 0.77865 0.0
C519 C 0.18634 0.68178 0.76088 0.0
C520 C 0.55363 0.0431 0.9286 0.0
C521 C 0.49848 0.01595 0.91751 0.0
H522 H 0.63423 0.0369 0.97285 0.0
C523 C 0.4757 0.97389 0.95529 0.0
H524 H 0.57237 0.07485 0.89918 0.0
C525 C 0.51073 0.95305 -0.0019 0.0
C526 C 0.5689 0.97378 0.00351 0.0
H527 H 0.43357 0.95173 0.94673 0.0
H528 H 0.49585 0.91384 0.01927 0.0
C529 C 0.58874 0.02207 0.97165 0.0
C530 C 0.30567 0.28287 0.25018 0.0
C531 C 0.35064 0.24721 0.23676 0.0
H532 H 0.28209 0.3693 0.26782 0.0
C533 C 0.40784 0.2681 0.24851 0.0
H534 H 0.26142 0.26717 0.24244 0.0
C535 C 0.42002 0.32621 0.26453 0.0
C536 C 0.37533 0.36452 0.26815 0.0
H537 H 0.44341 0.24089 0.24075 0.0
H538 H 0.46481 0.34273 0.26664 0.0
C539 C 0.31769 0.34132 0.26535 0.0
C540 C 0.00298 0.91501 0.13915 0.0
C541 C 0.03688 0.87214 0.15947 0.0
H542 H 0.92432 0.9329 0.09868 0.0
C543 C 0.02715 0.81536 0.13755 0.0
H544 H 0.0113 0.95975 0.1533 0.0
C545 C 0.97936 0.80033 0.10182 0.0
C546 C 0.93734 0.84057 0.09341 0.0
H547 H 0.05443 0.78204 0.15058 0.0
H548 H 0.97097 0.75535 0.08846 0.0
C549 C 0.95333 0.89941 0.10646 0.0
C550 C 0.20675 0.76121 0.47789 0.0
C551 C 0.19799 0.74417 0.53528 0.0
H552 H 0.23683 0.73617 0.39368 0.0
C553 C 0.19625 0.68515 0.54777 0.0
H554 H 0.20847 0.80651 0.46735 0.0
C555 C 0.21257 0.64508 0.50561 0.0
C556 C 0.2306 0.66387 0.45077 0.0
H557 H 0.18887 0.67107 0.59179 0.0
H558 H 0.21896 0.60134 0.51829 0.0
C559 C 0.22246 0.72088 0.43554 0.0
C560 C 0.53466 0.08054 0.61877 0.0
C561 C 0.53787 0.06154 0.67575 0.0
H562 H 0.58244 0.11304 0.54566 0.0
C563 C 0.59126 0.04666 0.69749 0.0
H564 H 0.49412 0.0937 0.60206 0.0
C565 C 0.64204 0.0589 0.66561 0.0
C566 C 0.6395 0.08784 0.61278 0.0
H567 H 0.59454 0.03178 0.74146 0.0
H568 H 0.68332 0.05489 0.6869 0.0
C569 C 0.58517 0.09143 0.58645 0.0
C570 C 0.29078 0.3583 0.06093 0.0
C571 C 0.29669 0.29999 0.04487 0.0
H572 H 0.26687 0.44025 0.03223 0.0
C573 C 0.30265 0.28465 0.98589 0.0
H574 H 0.28781 0.37168 0.10628 0.0
C575 C 0.29308 0.32479 0.94356 0.0
C576 C 0.27542 0.37959 0.96014 0.0
H577 H 0.3083 0.24029 0.97224 0.0
H578 H 0.28976 0.30983 0.89856 0.0
C579 C 0.28029 0.39809 0.01858 0.0
C580 C 0.43528 -0.00648 0.13895 0.0
C581 C 0.38834 -0.00026 0.10197 0.0
H582 H 0.4889 0.93415 0.17846 0.0
C583 C 0.36658 0.95259 0.06699 0.0
H584 H 0.45171 0.02936 0.1667 0.0
C585 C 0.38797 0.89805 0.07375 0.0
C586 C 0.43156 0.89096 0.11505 0.0
H587 H 0.32976 0.95669 0.03865 0.0
H588 H 0.36675 0.86079 0.0511 0.0
C589 C 0.4571 0.93964 0.145 0.0
C590 C 0.84011 0.53918 0.9638 0.0
C591 C 0.87798 0.49963 0.94076 0.0
H592 H 0.8201 0.628 0.97122 0.0
C593 C 0.92758 0.51921 0.91047 0.0
H594 H 0.80096 0.52422 0.98634 0.0
C595 C 0.93797 0.57817 0.90129 0.0
C596 C 0.89955 0.61767 0.92357 0.0
H597 H 0.95633 0.48891 0.89139 0.0
H598 H 0.9748 0.59282 0.87511 0.0
C599 C 0.85089 0.59808 0.95533 0.0
C600 C 0.77048 0.65258 0.10928 0.0
C601 C 0.7567 0.6111 0.15096 0.0
H602 H 0.74045 0.72019 0.05869 0.0
C603 C 0.70438 0.61249 0.18136 0.0
H604 H 0.81171 0.65338 0.08677 0.0
C605 C 0.66258 0.64933 0.16388 0.0
C606 C 0.67321 0.68549 0.11617 0.0
H607 H 0.69364 0.58146 0.2146 0.0
H608 H 0.6198 0.64384 0.18297 0.0
C609 C 0.72992 0.6912 0.09381 0.0
C610 C 0.61665 0.46343 0.43047 0.0
C611 C 0.58247 0.50732 0.41267 0.0
H612 H 0.62755 0.3731 0.43101 0.0
C613 C 0.52942 0.49299 0.3843 0.0
H614 H 0.65737 0.47358 0.45309 0.0
C615 C 0.51304 0.43499 0.37037 0.0
C616 C 0.5483 0.39145 0.38721 0.0
H617 H 0.50259 0.52647 0.37029 0.0
H618 H 0.47483 0.42437 0.3441 0.0
C619 C 0.59896 0.40602 0.41918 0.0
C620 C 0.31405 0.84174 0.33067 0.0
C621 C 0.26079 0.82042 0.3067 0.0
H622 H 0.40639 0.83848 0.32593 0.0
C623 C 0.25848 0.76833 0.27438 0.0
H624 H 0.31714 0.88195 0.35601 0.0
C625 C 0.30902 0.7433 0.25697 0.0
C626 C 0.36304 0.77175 0.27036 0.0
H627 H 0.21812 0.75146 0.25614 0.0
H628 H 0.30529 0.70861 0.22434 0.0
C629 C 0.36514 0.81637 0.31373 0.0
C630 C 0.05031 0.042 0.69684 0.0
C631 C 0.07759 0.02426 0.64552 0.0
H632 H 0.01644 0.11296 0.74445 0.0
C633 C 0.07931 0.06011 0.59772 0.0
H634 H 0.04767 0.01438 0.73401 0.0
C635 C 0.06012 0.11572 0.60309 0.0
C636 C 0.04069 0.13673 0.65706 0.0
H637 H 0.10034 0.04723 0.55777 0.0
H638 H 0.06824 0.14459 0.5674 0.0
C639 C 0.03128 0.09784 0.7024 0.0
C640 C 0.75578 0.3005 0.22994 0.0
C641 C 0.75213 0.34542 0.19107 0.0
H642 H 0.71017 0.24413 0.28929 0.0
C643 C 0.69739 0.36073 0.17359 0.0
H644 H 0.79781 0.28772 0.24283 0.0
C645 C 0.64724 0.33456 0.19811 0.0
C646 C 0.65082 0.29397 0.2423 0.0
H647 H 0.69347 0.39484 0.14297 0.0
H648 H 0.60595 0.35027 0.18633 0.0
C649 C 0.7056 0.27495 0.25553 0.0
C650 C 0.83074 0.67838 0.68746 0.0
C651 C 0.77127 0.6785 0.69962 0.0
H652 H 0.91662 0.70369 0.71813 0.0
C653 C 0.75236 0.71662 0.74261 0.0
H654 H 0.84625 0.64872 0.65468 0.0
C655 C 0.79239 0.75005 0.77719 0.0
C656 C 0.85202 0.74304 0.77129 0.0
H657 H 0.70669 0.71661 0.75241 0.0
H658 H 0.77664 0.7738 0.81451 0.0
C659 C 0.87102 0.71092 0.72295 0.0
C660 C 0.54859 0.95923 0.50229 0.0
C661 C 0.59324 0.95041 0.54142 0.0
H662 H 0.52703 0.98441 0.41695 0.0
C663 C 0.64999 0.97203 0.52936 0.0
H664 H 0.50477 0.9418 0.51054 0.0
C665 C 0.66276 -0.00232 0.47646 0.0
C666 C 0.61934 -0.00025 0.43391 0.0
H667 H 0.68499 0.96629 0.55952 0.0
H668 H 0.70764 0.01004 0.46634 0.0
C669 C 0.56145 0.98399 0.44884 0.0
C670 C 0.3405 0.42055 0.7289 0.0
C671 C 0.36811 0.37403 0.75139 0.0
H672 H 0.30109 0.45387 0.65396 0.0
C673 C 0.36301 0.32037 0.72205 0.0
H674 H 0.34409 0.46236 0.75119 0.0
C675 C 0.33825 0.31543 0.66691 0.0
C676 C 0.31919 0.36424 0.6402 0.0
H677 H 0.3859 0.28467 0.73765 0.0
H678 H 0.34558 0.27717 0.64058 0.0
C679 C 0.31482 0.41528 0.67378 0.0
C680 C 0.85692 0.13077 0.02038 0.0
C681 C 0.86631 0.09524 0.0672 0.0
H682 H 0.83309 0.1362 0.93214 0.0
C683 C 0.85015 0.03574 0.06137 0.0
H684 H 0.86935 0.17678 0.0227 0.0
C685 C 0.82741 0.01223 0.00858 0.0
C686 C 0.82148 0.04747 0.96089 0.0
H687 H 0.85666 0.00746 0.09682 0.0
H688 H 0.8158 0.96646 0.00405 0.0
C689 C 0.83538 0.10734 0.96802 0.0
C690 C 0.12065 0.69962 0.23031 0.0
C691 C 0.12788 0.65355 0.26698 0.0
H692 H 0.14037 0.73567 0.14716 0.0
C693 C 0.16309 0.60953 0.24949 0.0
H694 H 0.09305 0.73364 0.243 0.0
C695 C 0.19167 0.61185 0.19615 0.0
C696 C 0.18364 0.65721 0.15861 0.0
H697 H 0.16759 0.5728 0.27654 0.0
H698 H 0.21592 0.57562 0.18205 0.0
C699 C 0.14846 0.70146 0.1764 0.0
C700 C 0.45883 0.19703 0.0393 0.0
C701 C 0.46514 0.25731 0.03709 0.0
H702 H 0.48139 0.12316 0.08548 0.0
C703 C 0.48365 0.29019 0.0866 0.0
H704 H 0.44492 0.1711 0.00123 0.0
C705 C 0.50361 0.26298 0.13505 0.0
C706 C 0.50577 0.2028 0.1339 0.0
H707 H 0.4882 0.33688 0.08559 0.0
H708 H 0.52331 0.28897 0.17048 0.0
C709 C 0.47941 0.16974 0.08761 0.0
C710 C 0.13942 0.24974 0.26377 0.0
C711 C 0.08665 0.21657 0.26647 0.0
H712 H 0.202 0.30468 0.30978 0.0
C713 C 0.06504 0.20025 0.32113 0.0
H714 H 0.15587 0.26461 0.22238 0.0
C715 C 0.09164 0.22438 0.37215 0.0
C716 C 0.14078 0.26371 0.36858 0.0
H717 H 0.02409 0.17508 0.32454 0.0
H718 H 0.06987 0.21809 0.41339 0.0
C719 C 0.16652 0.27227 0.31419 0.0
C720 C 0.03397 0.86301 0.52659 0.0
C721 C 0.04347 0.80401 0.53019 0.0
H722 H 0.99 0.93407 0.56255 0.0
C723 C 0.02564 0.77451 0.58026 0.0
H724 H 0.04682 0.88688 0.48843 0.0
C725 C -0.00576 0.8023 0.62344 0.0
C726 C 0.98008 0.85962 0.61677 0.0
H727 H 0.0325 0.72905 0.58419 0.0
H728 H 0.97649 0.77749 0.65919 0.0
C729 C 0.00182 0.89033 0.56915 0.0
C730 C 0.39095 0.8116 0.78704 0.0
C731 C 0.44808 0.8124 0.80768 0.0
H732 H 0.30421 0.77644 0.79992 0.0
C733 C 0.45725 0.80064 0.86646 0.0
H734 H 0.38231 0.82184 0.7424 0.0
C735 C 0.41216 0.77469 0.8991 0.0
C736 C 0.3588 0.7587 0.87197 0.0
H737 H 0.50087 0.80291 0.88413 0.0
H738 H 0.42294 0.75631 0.94013 0.0
C739 C 0.34588 0.78594 0.82022 0.0
C740 C 0.50725 0.54956 0.79722 0.0
C741 C 0.50526 0.55437 0.73666 0.0
H742 H 0.46264 0.5596 0.87797 0.0
C743 C 0.45206 0.56421 0.71024 0.0
H744 H 0.54732 0.54139 0.81863 0.0
C745 C 0.40327 0.57386 0.74411 0.0
C746 C 0.40659 0.57307 0.80496 0.0
H747 H 0.44861 0.56672 0.66354 0.0
H748 H 0.36391 0.58531 0.72305 0.0
C749 C 0.45842 0.55884 0.83108 0.0
C750 C 0.76863 0.23243 0.07746 0.0
C751 C 0.74387 0.22901 0.02164 0.0
H752 H 0.76031 0.20334 0.16499 0.0
C753 C 0.70458 0.18217 0.00667 0.0
H754 H 0.80047 0.2671 0.08943 0.0
C755 C 0.68263 0.14565 0.04957 0.0
C756 C 0.6985 0.1568 0.10787 0.0
H757 H 0.68588 0.17776 0.96346 0.0
H758 H 0.6458 0.11588 0.039 0.0
C759 C 0.74596 0.19602 0.12059 0.0
C760 C 0.98245 0.44876 0.3386 0.0
C761 C 0.00443 0.46492 0.28422 0.0
H762 H 0.00313 0.41836 0.4225 0.0
C763 C 0.06442 0.47684 0.27785 0.0
H764 H 0.93636 0.43859 0.34433 0.0
C765 C 0.10232 0.46756 0.3234 0.0
C766 C 0.08102 0.44443 0.37563 0.0
H767 H 0.08231 0.48934 0.23619 0.0
H768 H 0.14853 0.47197 0.31504 0.0
C769 C 0.02057 0.43791 0.3837 0.0
C770 C 0.74218 0.82432 0.51203 0.0
C771 C 0.71479 0.77457 0.53564 0.0
H772 H 0.79451 0.90252 0.52936 0.0
C773 C 0.70489 0.77358 0.59559 0.0
H774 H 0.7492 0.82663 0.4656 0.0
C775 C 0.73378 0.81527 0.6323 0.0
C776 C 0.77053 0.85929 0.60894 0.0
H777 H 0.68124 0.73711 0.61454 0.0
H778 H 0.73327 0.80874 0.67848 0.0
C779 C 0.7683 0.86759 0.54866 0.0
C780 C 0.57245 0.38336 0.56944 0.0
C781 C 0.58855 0.44268 0.57606 0.0
H782 H 0.50702 0.31892 0.54053 0.0
C783 C 0.55501 0.48226 0.54876 0.0
H784 H 0.59775 0.35181 0.58968 0.0
C785 C 0.50289 0.4634 0.52113 0.0
C786 C 0.48389 0.40473 0.51928 0.0
H787 H 0.56708 0.5281 0.55139 0.0
H788 H 0.47516 0.49505 0.50534 0.0
C789 C 0.52102 0.36448 0.5405 0.0
C790 C 0.85907 0.199 0.79021 0.0
C791 C 0.81109 0.22796 0.80993 0.0
H792 H 0.89038 0.11706 0.76705 0.0
C793 C 0.75525 0.20166 0.8007 0.0
H794 H 0.90267 0.2187 0.79604 0.0
C795 C 0.74801 0.14387 0.78149 0.0
C796 C 0.79679 0.11124 0.77544 0.0
H797 H 0.71772 0.22263 0.81661 0.0
H798 H 0.70511 0.12206 0.78376 0.0
C799 C 0.85188 0.1408 0.77261 0.0
C800 C 0.03285 0.48693 0.05893 0.0
C801 C 0.98682 0.52314 0.06144 0.0
H802 H 0.1219 0.48023 0.0356 0.0
C803 C 0.98984 0.57351 0.02932 0.0
H804 H 0.03162 0.44819 0.08407 0.0
C805 C 0.03965 0.58952 -0.00208 0.0
C806 C 0.08939 0.55885 0.00393 0.0
H807 H 0.95503 0.60244 0.0315 0.0
H808 H 0.04307 0.6316 0.97863 0.0
C809 C 0.08405 0.50462 0.02993 0.0
C810 C 0.73792 0.80273 0.32913 0.0
C811 C 0.68837 0.76591 0.31739 0.0
H812 H 0.77464 0.88993 0.32837 0.0
C813 C 0.64598 0.78335 0.27949 0.0
H814 H 0.77116 0.78995 0.35837 0.0
C815 C 0.64769 0.84057 0.26261 0.0
C816 C 0.69194 0.88059 0.28371 0.0
H817 H 0.60748 0.75529 0.26986 0.0
H818 H 0.61018 0.8548 0.24032 0.0
C819 C 0.73982 0.86005 0.31216 0.0
C820 C 0.86788 0.5157 0.46284 0.0
C821 C 0.80989 0.5182 0.48036 0.0
H822 H 0.94845 0.47813 0.47798 0.0
C823 C 0.78515 0.475 0.51574 0.0
H824 H 0.8875 0.54782 0.43438 0.0
C825 C 0.81934 0.43405 0.53866 0.0
C826 C 0.87962 0.43723 0.529 0.0
H827 H 0.73994 0.47471 0.52825 0.0
H828 H 0.79963 0.40361 0.56887 0.0
C829 C 0.90265 0.47537 0.48726 0.0
C830 C 0.38368 0.99096 0.57247 0.0
C831 C 0.32838 -0.00105 0.59583 0.0
H832 H 0.45186 0.02469 0.51687 0.0
C833 C 0.30476 0.05257 0.58924 0.0
H834 H 0.4032 0.95017 0.57675 0.0
C835 C 0.33376 0.0956 0.55673 0.0
C836 C 0.38665 0.08593 0.52905 0.0
H837 H 0.26261 0.0605 0.60725 0.0
H838 H 0.31266 0.13506 0.54958 0.0
C839 C 0.41199 0.03374 0.53867 0.0
C840 C 0.27406 0.22245 0.78299 0.0
C841 C 0.30182 0.19232 0.73811 0.0
H842 H 0.19984 0.26942 0.80701 0.0
C843 C 0.27886 0.19195 0.68175 0.0
H844 H 0.29011 0.22244 0.82717 0.0
C845 C 0.22974 0.22078 0.66993 0.0
C846 C 0.20055 0.24883 0.71469 0.0
H847 H 0.29886 0.16921 0.6464 0.0
H848 H 0.21203 0.2175 0.62624 0.0
C849 C 0.22312 0.25 0.77145 0.0
C850 C 0.14925 -0.00158 0.07714 0.0
C851 C 0.13694 0.05653 0.08503 0.0
H852 H 0.12692 0.91772 0.03252 0.0
C853 C 0.08526 0.07498 0.06195 0.0
H854 H 0.18832 0.98292 0.09536 0.0
C855 C 0.05036 0.03778 0.02538 0.0
C856 C 0.06593 0.98124 0.01295 0.0
H857 H 0.0747 0.11952 0.06776 0.0
H858 H 0.01447 0.05472 0.00263 0.0
C859 C 0.11353 0.96085 0.04208 0.0
C860 C 0.81521 0.38903 0.7598 0.0
C861 C 0.80914 0.4487 0.76302 0.0
H862 H 0.8714 0.32347 0.73498 0.0
C863 C 0.8591 0.48654 0.76776 0.0
H864 H 0.77735 0.35897 0.75696 0.0
C865 C 0.91338 0.46577 0.75576 0.0
C866 C 0.91611 0.40832 0.73532 0.0
H867 H 0.85546 0.53286 0.77118 0.0
H868 H 0.94966 0.49697 0.74892 0.0
C869 C 0.86961 0.36856 0.74814 0.0
C870 C 0.64275 0.51723 0.90735 0.0
C871 C 0.655 0.47982 0.95223 0.0
H872 H 0.6099 0.5991 0.88585 0.0
C873 C 0.6402 0.49519 0.00936 0.0
H874 H 0.6555 0.50754 0.86314 0.0
C875 C 0.6123 0.54529 0.02153 0.0
C876 C 0.59938 0.58257 0.97724 0.0
H877 H 0.65052 0.46856 0.04531 0.0
H878 H 0.60283 0.55631 0.06649 0.0
C879 C 0.61604 0.56905 0.92004 0.0
C880 C 0.23708 0.91784 0.80958 0.0
C881 C 0.25601 0.97326 0.79241 0.0
H882 H 0.16762 0.8637 0.843 0.0
C883 C 0.2165 0.01682 0.79184 0.0
H884 H 0.26686 0.88387 0.81133 0.0
C885 C 0.15923 0.00533 0.80966 0.0
C886 C 0.1404 0.94992 0.82769 0.0
H887 H 0.23018 0.06015 0.77877 0.0
H888 H 0.13015 0.04003 0.81095 0.0
C889 C 0.17991 0.90627 0.82705 0.0
C890 C 0.23718 0.13048 0.31355 0.0
C891 C 0.24342 0.07578 0.28778 0.0
H892 H 0.27915 0.20039 0.36428 0.0
C893 C 0.29854 0.05485 0.28185 0.0
H894 H 0.19463 0.14675 0.31876 0.0
C895 C 0.34687 0.08672 0.30446 0.0
C896 C 0.33998 0.13819 0.33634 0.0
H897 H 0.3038 0.01247 0.2622 0.0
H898 H 0.38834 0.06752 0.30337 0.0
C899 C 0.28536 0.16136 0.33863 0.0
loop_
_geom_bond_atom_site_label_1
_geom_bond_atom_site_label_2
_geom_bond_distance
_geom_bond_site_symmetry_2
_ccdc_geom_bond_type
Co0 O1 2.216 . S
Co0 O2 2.091 . S
Co0 O4 2.004 1_455 S
Co0 O10 2.021 1_455 S
Co0 O12 2.137 . S
Co0 O13 2.244 . S
O1 Co0 2.216 . S
O1 C8 1.247 . S
O2 Co0 2.091 . S
O2 C8 1.261 . S
C3 O12 1.247 . S
C3 O13 1.272 . S
O4 Co0 2.004 1_655 S
O4 C9 1.259 . S
Co5 O6 2.061 1_455 S
Co5 O11 2.052 1_455 S
Co5 O13 2.135 . S
O6 Co5 2.061 1_655 S
O6 C9 1.235 . S
C7 O10 1.238 . S
C7 O11 1.241 . S
C8 O1 1.247 . S
C8 O2 1.261 . S
C9 O4 1.259 . S
C9 O6 1.235 . S
O10 Co0 2.021 1_655 S
O10 C7 1.238 . S
O11 Co5 2.052 1_655 S
O11 C7 1.241 . S
O12 Co0 2.137 . S
O12 C3 1.247 . S
O13 Co0 2.244 . S
O13 C3 1.272 . S
O13 Co5 2.135 . S
Co14 O15 2.216 . S
Co14 O16 2.091 1_455 S
Co14 O18 2.004 1_455 S
Co14 O24 2.021 1_455 S
Co14 O26 2.137 . S
Co14 O27 2.244 . S
O15 Co14 2.216 . S
O15 C22 1.247 . S
O16 Co14 2.091 1_655 S
O16 C22 1.261 1_655 S
C17 O26 1.247 . S
C17 O27 1.272 . S
O18 Co14 2.004 1_655 S
O18 C23 1.259 . S
Co19 O20 2.061 1_455 S
Co19 O25 2.052 1_455 S
Co19 O27 2.135 . S
O20 Co19 2.061 1_655 S
O20 C23 1.235 . S
C21 O24 1.238 . S
C21 O25 1.241 . S
C22 O15 1.247 . S
C22 O16 1.261 1_455 S
C23 O18 1.259 . S
C23 O20 1.235 . S
O24 Co14 2.021 1_655 S
O24 C21 1.238 . S
O25 Co19 2.052 1_655 S
O25 C21 1.241 . S
O26 Co14 2.137 . S
O26 C17 1.247 . S
O27 Co14 2.244 . S
O27 C17 1.272 . S
O27 Co19 2.135 . S
Co28 O29 2.216 . S
Co28 O30 2.091 . S
Co28 O32 2.004 . S
Co28 O38 2.021 . S
Co28 O40 2.137 . S
Co28 O41 2.244 . S
O29 Co28 2.216 . S
O29 C36 1.247 . S
O30 Co28 2.091 . S
O30 C36 1.261 . S
C31 O40 1.247 . S
C31 O41 1.272 . S
O32 Co28 2.004 . S
O32 C37 1.259 . S
Co33 O34 2.061 . S
Co33 O39 2.052 . S
Co33 O41 2.135 . S
O34 Co33 2.061 . S
O34 C37 1.235 . S
C35 O38 1.238 . S
C35 O39 1.241 . S
C36 O29 1.247 . S
C36 O30 1.261 . S
C37 O32 1.259 . S
C37 O34 1.235 . S
O38 Co28 2.021 . S
O38 C35 1.238 . S
O39 Co33 2.052 . S
O39 C35 1.241 . S
O40 Co28 2.137 . S
O40 C31 1.247 . S
O41 Co28 2.244 . S
O41 C31 1.272 . S
O41 Co33 2.135 . S
Co42 O43 2.216 . S
Co42 O44 2.091 . S
Co42 O46 2.004 . S
Co42 O52 2.021 . S
Co42 O54 2.137 . S
Co42 O55 2.244 . S
O43 Co42 2.216 . S
O43 C50 1.247 . S
O44 Co42 2.091 . S
O44 C50 1.261 . S
C45 O54 1.247 . S
C45 O55 1.272 . S
O46 Co42 2.004 . S
O46 C51 1.259 . S
Co47 O48 2.061 . S
Co47 O53 2.052 . S
Co47 O55 2.135 . S
O48 Co47 2.061 . S
O48 C51 1.235 . S
C49 O52 1.238 . S
C49 O53 1.241 . S
C50 O43 1.247 . S
C50 O44 1.261 . S
C51 O46 1.259 . S
C51 O48 1.235 . S
O52 Co42 2.021 . S
O52 C49 1.238 . S
O53 Co47 2.052 . S
O53 C49 1.241 . S
O54 Co42 2.137 . S
O54 C45 1.247 . S
O55 Co42 2.244 . S
O55 C45 1.272 . S
O55 Co47 2.135 . S
Co56 O57 2.216 . S
Co56 O58 2.091 . S
Co56 O60 2.004 1_565 S
Co56 O66 2.021 1_565 S
Co56 O68 2.137 . S
Co56 O69 2.244 1_565 S
O57 Co56 2.216 . S
O57 C64 1.247 . S
O58 Co56 2.091 . S
O58 C64 1.261 . S
C59 O68 1.247 . S
C59 O69 1.272 1_565 S
O60 Co56 2.004 1_545 S
O60 C65 1.259 . S
Co61 O62 2.061 . S
Co61 O67 2.052 . S
Co61 O69 2.135 . S
O62 Co61 2.061 . S
O62 C65 1.235 . S
C63 O66 1.238 . S
C63 O67 1.241 . S
C64 O57 1.247 . S
C64 O58 1.261 . S
C65 O60 1.259 . S
C65 O62 1.235 . S
O66 Co56 2.021 1_545 S
O66 C63 1.238 . S
O67 Co61 2.052 . S
O67 C63 1.241 . S
O68 Co56 2.137 . S
O68 C59 1.247 . S
O69 Co56 2.244 1_545 S
O69 C59 1.272 1_545 S
O69 Co61 2.135 . S
Co70 O71 2.216 . S
Co70 O72 2.091 . S
Co70 O74 2.004 . S
Co70 O80 2.021 . S
Co70 O82 2.137 . S
Co70 O83 2.244 . S
O71 Co70 2.216 . S
O71 C78 1.247 . S
O72 Co70 2.091 . S
O72 C78 1.261 . S
C73 O82 1.247 . S
C73 O83 1.272 . S
O74 Co70 2.004 . S
O74 C79 1.259 . S
Co75 O76 2.061 . S
Co75 O81 2.052 . S
Co75 O83 2.135 . S
O76 Co75 2.061 . S
O76 C79 1.235 . S
C77 O80 1.238 . S
C77 O81 1.241 . S
C78 O71 1.247 . S
C78 O72 1.261 . S
C79 O74 1.259 . S
C79 O76 1.235 . S
O80 Co70 2.021 . S
O80 C77 1.238 . S
O81 Co75 2.052 . S
O81 C77 1.241 . S
O82 Co70 2.137 . S
O82 C73 1.247 . S
O83 Co70 2.244 . S
O83 C73 1.272 . S
O83 Co75 2.135 . S
Co84 O85 2.216 . S
Co84 O86 2.091 . S
Co84 O88 2.004 . S
Co84 O94 2.021 1_545 S
Co84 O96 2.137 . S
Co84 O97 2.244 . S
O85 Co84 2.216 . S
O85 C92 1.247 . S
O86 Co84 2.091 . S
O86 C92 1.261 . S
C87 O96 1.247 . S
C87 O97 1.272 . S
O88 Co84 2.004 . S
O88 C93 1.254 1_545 S
Co89 O90 2.061 . S
Co89 O95 2.052 . S
Co89 O97 2.135 1_565 S
O90 Co89 2.061 . S
O90 C93 1.239 . S
C91 O94 1.238 . S
C91 O95 1.241 . S
C92 O85 1.247 . S
C92 O86 1.261 . S
C93 O88 1.254 1_565 S
C93 O90 1.239 . S
O94 Co84 2.021 1_565 S
O94 C91 1.238 . S
O95 Co89 2.052 . S
O95 C91 1.241 . S
O96 Co84 2.137 . S
O96 C87 1.247 . S
O97 Co84 2.244 . S
O97 C87 1.272 . S
O97 Co89 2.135 1_545 S
Co98 O99 2.216 . S
Co98 O100 2.091 1_554 S
Co98 O102 2.004 1_554 S
Co98 O108 2.021 1_554 S
Co98 O110 2.137 . S
Co98 O111 2.244 . S
O99 Co98 2.216 . S
O99 C106 1.247 . S
O100 Co98 2.091 1_556 S
O100 C106 1.261 1_556 S
C101 O110 1.247 . S
C101 O111 1.272 . S
O102 Co98 2.004 1_556 S
O102 C107 1.259 . S
Co103 O104 2.061 1_554 S
Co103 O109 2.052 1_554 S
Co103 O111 2.135 . S
O104 Co103 2.061 1_556 S
O104 C107 1.235 . S
C105 O108 1.238 . S
C105 O109 1.241 . S
C106 O99 1.247 . S
C106 O100 1.261 1_554 S
C107 O102 1.259 . S
C107 O104 1.235 . S
O108 Co98 2.021 1_556 S
O108 C105 1.238 . S
O109 Co103 2.052 1_556 S
O109 C105 1.241 . S
O110 Co98 2.137 . S
O110 C101 1.247 . S
O111 Co98 2.244 . S
O111 C101 1.272 . S
O111 Co103 2.135 . S
Co112 O113 2.216 . S
Co112 O114 2.091 . S
Co112 O116 2.004 1_554 S
Co112 O122 2.021 1_554 S
Co112 O124 2.137 . S
Co112 O125 2.244 . S
O113 Co112 2.216 . S
O113 C120 1.247 . S
O114 Co112 2.091 . S
O114 C120 1.261 . S
C115 O124 1.247 . S
C115 O125 1.272 . S
O116 Co112 2.004 1_556 S
O116 C121 1.259 . S
Co117 O118 2.061 1_554 S
Co117 O123 2.052 . S
Co117 O125 2.135 . S
O118 Co117 2.061 1_556 S
O118 C121 1.235 . S
C119 O122 1.238 . S
C119 O123 1.241 1_556 S
C120 O113 1.247 . S
C120 O114 1.261 . S
C121 O116 1.259 . S
C121 O118 1.235 . S
O122 Co112 2.021 1_556 S
O122 C119 1.238 . S
O123 Co117 2.052 . S
O123 C119 1.241 1_554 S
O124 Co112 2.137 . S
O124 C115 1.247 . S
O125 Co112 2.244 . S
O125 C115 1.272 . S
O125 Co117 2.135 . S
Co126 O127 2.216 . S
Co126 O128 2.091 . S
Co126 O130 2.004 . S
Co126 O136 2.021 . S
Co126 O138 2.137 . S
Co126 O139 2.244 . S
O127 Co126 2.216 . S
O127 C134 1.247 . S
O128 Co126 2.091 . S
O128 C134 1.261 . S
C129 O138 1.247 . S
C129 O139 1.272 . S
O130 Co126 2.004 . S
O130 C135 1.259 . S
Co131 O132 2.061 . S
Co131 O137 2.052 . S
Co131 O139 2.135 . S
O132 Co131 2.061 . S
O132 C135 1.235 . S
C133 O136 1.238 . S
C133 O137 1.241 . S
C134 O127 1.247 . S
C134 O128 1.261 . S
C135 O130 1.259 . S
C135 O132 1.235 . S
O136 Co126 2.021 . S
O136 C133 1.238 . S
O137 Co131 2.052 . S
O137 C133 1.241 . S
O138 Co126 2.137 . S
O138 C129 1.247 . S
O139 Co126 2.244 . S
O139 C129 1.272 . S
O139 Co131 2.135 . S
Co140 O141 2.216 . S
Co140 O142 2.091 . S
Co140 O144 2.004 . S
Co140 O150 2.021 . S
Co140 O152 2.137 . S
Co140 O153 2.244 . S
O141 Co140 2.216 . S
O141 C148 1.247 . S
O142 Co140 2.091 . S
O142 C148 1.261 . S
C143 O152 1.247 . S
C143 O153 1.272 . S
O144 Co140 2.004 . S
O144 C149 1.259 . S
Co145 O146 2.061 . S
Co145 O151 2.052 . S
Co145 O153 2.135 . S
O146 Co145 2.061 . S
O146 C149 1.235 . S
C147 O150 1.238 . S
C147 O151 1.241 . S
C148 O141 1.247 . S
C148 O142 1.261 . S
C149 O144 1.259 . S
C149 O146 1.235 . S
O150 Co140 2.021 . S
O150 C147 1.238 . S
O151 Co145 2.052 . S
O151 C147 1.241 . S
O152 Co140 2.137 . S
O152 C143 1.247 . S
O153 Co140 2.244 . S
O153 C143 1.272 . S
O153 Co145 2.135 . S
Co154 O155 2.216 . S
Co154 O156 2.091 . S
Co154 O158 2.004 . S
Co154 O164 2.021 . S
Co154 O166 2.137 . S
Co154 O167 2.244 . S
O155 Co154 2.216 . S
O155 C162 1.247 . S
O156 Co154 2.091 . S
O156 C162 1.261 . S
C157 O166 1.247 . S
C157 O167 1.272 . S
O158 Co154 2.004 . S
O158 C163 1.259 . S
Co159 O160 2.061 . S
Co159 O165 2.052 . S
Co159 O167 2.135 . S
O160 Co159 2.061 . S
O160 C163 1.235 . S
C161 O164 1.238 . S
C161 O165 1.241 . S
C162 O155 1.247 . S
C162 O156 1.261 . S
C163 O158 1.259 . S
C163 O160 1.235 . S
O164 Co154 2.021 . S
O164 C161 1.238 . S
O165 Co159 2.052 . S
O165 C161 1.241 . S
O166 Co154 2.137 . S
O166 C157 1.247 . S
O167 Co154 2.244 . S
O167 C157 1.272 . S
O167 Co159 2.135 . S
H168 C176 0.930 . S
H169 C179 0.930 . S
H170 C181 0.930 . S
H171 C182 0.970 . S
H172 C182 0.970 . S
H173 C184 0.930 . S
H174 C186 0.930 . S
H175 C188 0.930 1_455 S
C176 H168 0.930 . S
C176 C177 1.382 . S
C176 C178 1.426 . S
C177 C176 1.382 . S
C177 C181 1.389 . S
C178 C176 1.426 . S
C178 C179 1.375 . S
C178 C182 1.532 . S
C179 H169 0.930 . S
C179 C178 1.375 . S
C179 C180 1.416 . S
C180 C179 1.416 . S
C180 C181 1.371 . S
C181 H170 0.930 . S
C181 C177 1.389 . S
C181 C180 1.371 . S
C182 H171 0.970 . S
C182 H172 0.970 . S
C182 C178 1.532 . S
C182 C183 1.499 . S
C183 C182 1.499 . S
C183 C184 1.370 1_455 S
C183 C188 1.415 1_455 S
C184 H173 0.930 . S
C184 C183 1.370 1_655 S
C184 C185 1.407 . S
C185 C184 1.407 . S
C185 C186 1.365 . S
C186 H174 0.930 . S
C186 C185 1.365 . S
C186 C187 1.393 . S
C187 C186 1.393 . S
C187 C188 1.387 . S
C188 H175 0.930 1_655 S
C188 C183 1.415 1_655 S
C188 C187 1.387 . S
H189 C197 0.930 . S
H190 C200 0.930 . S
H191 C202 0.930 . S
H192 C203 0.970 . S
H193 C203 0.970 . S
H194 C205 0.937 . S
H195 C207 0.930 . S
H196 C209 0.930 1_455 S
C197 H189 0.930 . S
C197 C198 1.382 . S
C197 C199 1.426 . S
C198 C197 1.382 . S
C198 C202 1.389 . S
C199 C197 1.426 . S
C199 C200 1.375 . S
C199 C203 1.532 . S
C200 H190 0.930 . S
C200 C199 1.375 . S
C200 C201 1.416 . S
C201 C200 1.416 . S
C201 C202 1.371 . S
C202 H191 0.930 . S
C202 C198 1.389 . S
C202 C201 1.371 . S
C203 H192 0.970 . S
C203 H193 0.970 . S
C203 C199 1.532 . S
C203 C204 1.499 . S
C204 C203 1.499 . S
C204 C205 1.370 1_455 S
C204 C209 1.415 1_455 S
C205 H194 0.937 . S
C205 C204 1.370 1_655 S
C205 C206 1.407 . S
C206 C205 1.407 . S
C206 C207 1.365 . S
C207 H195 0.930 . S
C207 C206 1.365 . S
C207 C208 1.393 . S
C208 C207 1.393 . S
C208 C209 1.387 . S
C209 H196 0.930 1_655 S
C209 C204 1.415 1_655 S
C209 C208 1.387 . S
H210 C218 0.930 . S
H211 C221 0.930 . S
H212 C223 0.930 . S
H213 C224 0.970 . S
H214 C224 0.970 . S
H215 C226 0.930 . S
H216 C228 0.930 . S
H217 C230 0.930 . S
C218 H210 0.930 . S
C218 C219 1.382 . S
C218 C220 1.426 . S
C219 C218 1.382 . S
C219 C223 1.389 . S
C220 C218 1.426 . S
C220 C221 1.375 . S
C220 C224 1.532 . S
C221 H211 0.930 . S
C221 C220 1.375 . S
C221 C222 1.416 . S
C222 C221 1.416 . S
C222 C223 1.371 . S
C223 H212 0.930 . S
C223 C219 1.389 . S
C223 C222 1.371 . S
C224 H213 0.970 . S
C224 H214 0.970 . S
C224 C220 1.532 . S
C224 C225 1.499 . S
C225 C224 1.499 . S
C225 C226 1.370 . S
C225 C230 1.415 . S
C226 H215 0.930 . S
C226 C225 1.370 . S
C226 C227 1.407 . S
C227 C226 1.407 . S
C227 C228 1.365 . S
C228 H216 0.930 . S
C228 C227 1.365 . S
C228 C229 1.393 . S
C229 C228 1.393 . S
C229 C230 1.387 . S
C230 H217 0.930 . S
C230 C225 1.415 . S
C230 C229 1.387 . S
H231 C239 0.930 . S
H232 C242 0.930 . S
H233 C244 0.930 . S
H234 C245 0.970 . S
H235 C245 0.970 . S
H236 C247 0.930 . S
H237 C249 0.930 . S
H238 C251 0.930 . S
C239 H231 0.930 . S
C239 C240 1.382 . S
C239 C241 1.426 . S
C240 C239 1.382 . S
C240 C244 1.389 . S
C241 C239 1.426 . S
C241 C242 1.375 . S
C241 C245 1.532 . S
C242 H232 0.930 . S
C242 C241 1.375 . S
C242 C243 1.416 . S
C243 C242 1.416 . S
C243 C244 1.371 . S
C244 H233 0.930 . S
C244 C240 1.389 . S
C244 C243 1.371 . S
C245 H234 0.970 . S
C245 H235 0.970 . S
C245 C241 1.532 . S
C245 C246 1.499 . S
C246 C245 1.499 . S
C246 C247 1.370 . S
C246 C251 1.415 . S
C247 H236 0.930 . S
C247 C246 1.370 . S
C247 C248 1.407 . S
C248 C247 1.407 . S
C248 C249 1.365 . S
C249 H237 0.930 . S
C249 C248 1.365 . S
C249 C250 1.393 . S
C250 C249 1.393 . S
C250 C251 1.387 . S
C251 H238 0.930 . S
C251 C246 1.415 . S
C251 C250 1.387 . S
H252 C260 0.930 . S
H253 C263 0.930 . S
H254 C265 0.930 . S
H255 C266 0.970 . S
H256 C266 0.970 . S
H257 C268 0.930 . S
H258 C270 0.930 . S
H259 C272 0.930 . S
C260 H252 0.930 . S
C260 C261 1.382 . S
C260 C262 1.426 . S
C261 C260 1.382 . S
C261 C265 1.389 . S
C262 C260 1.426 . S
C262 C263 1.375 . S
C262 C266 1.532 1_545 S
C263 H253 0.930 . S
C263 C262 1.375 . S
C263 C264 1.416 . S
C264 C263 1.416 . S
C264 C265 1.371 . S
C265 H254 0.930 . S
C265 C261 1.389 . S
C265 C264 1.371 . S
C266 H255 0.970 . S
C266 H256 0.970 . S
C266 C262 1.532 1_565 S
C266 C267 1.499 . S
C267 C266 1.499 . S
C267 C268 1.370 . S
C267 C272 1.415 . S
C268 H257 0.930 . S
C268 C267 1.370 . S
C268 C269 1.407 . S
C269 C268 1.407 . S
C269 C270 1.365 . S
C270 H258 0.930 . S
C270 C269 1.365 . S
C270 C271 1.393 . S
C271 C270 1.393 . S
C271 C272 1.387 . S
C272 H259 0.930 . S
C272 C267 1.415 . S
C272 C271 1.387 . S
H273 C281 0.930 . S
H274 C284 0.930 . S
H275 C286 0.930 . S
H276 C287 0.970 . S
H277 C287 0.970 . S
H278 C289 0.930 . S
H279 C291 0.930 . S
H280 C293 0.930 . S
C281 H273 0.930 . S
C281 C282 1.382 . S
C281 C283 1.426 . S
C282 C281 1.382 . S
C282 C286 1.389 . S
C283 C281 1.426 . S
C283 C284 1.375 . S
C283 C287 1.532 . S
C284 H274 0.930 . S
C284 C283 1.375 . S
C284 C285 1.416 . S
C285 C284 1.416 . S
C285 C286 1.371 . S
C286 H275 0.930 . S
C286 C282 1.389 . S
C286 C285 1.371 . S
C287 H276 0.970 . S
C287 H277 0.970 . S
C287 C283 1.532 . S
C287 C288 1.499 . S
C288 C287 1.499 . S
C288 C289 1.370 . S
C288 C293 1.415 . S
C289 H278 0.930 . S
C289 C288 1.370 . S
C289 C290 1.407 . S
C290 C289 1.407 . S
C290 C291 1.365 . S
C291 H279 0.930 . S
C291 C290 1.365 . S
C291 C292 1.393 . S
C292 C291 1.393 . S
C292 C293 1.387 . S
C293 H280 0.930 . S
C293 C288 1.415 . S
C293 C292 1.387 . S
H294 C302 0.930 . S
H295 C305 0.930 . S
H296 C307 0.930 . S
H297 C308 0.970 . S
H298 C308 0.970 . S
H299 C310 0.930 . S
H300 C312 0.930 . S
H301 C314 0.930 . S
C302 H294 0.930 . S
C302 C303 1.382 . S
C302 C304 1.426 1_565 S
C303 C302 1.382 . S
C303 C307 1.389 . S
C304 C302 1.426 1_545 S
C304 C305 1.375 1_545 S
C304 C308 1.532 . S
C305 H295 0.930 . S
C305 C304 1.375 1_565 S
C305 C306 1.416 . S
C306 C305 1.416 . S
C306 C307 1.371 . S
C307 H296 0.930 . S
C307 C303 1.389 . S
C307 C306 1.371 . S
C308 H297 0.970 . S
C308 H298 0.970 . S
C308 C304 1.532 . S
C308 C309 1.499 . S
C309 C308 1.499 . S
C309 C310 1.370 . S
C309 C314 1.415 . S
C310 H299 0.930 . S
C310 C309 1.370 . S
C310 C311 1.407 . S
C311 C310 1.407 . S
C311 C312 1.365 . S
C312 H300 0.930 . S
C312 C311 1.365 . S
C312 C313 1.393 . S
C313 C312 1.393 . S
C313 C314 1.387 . S
C314 H301 0.930 . S
C314 C309 1.415 . S
C314 C313 1.387 . S
H315 C323 0.930 . S
H316 C326 0.930 . S
H317 C328 0.930 . S
H318 C329 0.970 . S
H319 C329 0.970 . S
H320 C331 0.930 . S
H321 C333 0.930 . S
H322 C335 0.930 . S
C323 H315 0.930 . S
C323 C324 1.382 . S
C323 C325 1.426 . S
C324 C323 1.382 . S
C324 C328 1.389 . S
C325 C323 1.426 . S
C325 C326 1.375 . S
C325 C329 1.532 . S
C326 H316 0.930 . S
C326 C325 1.375 . S
C326 C327 1.416 . S
C327 C326 1.416 . S
C327 C328 1.371 . S
C328 H317 0.930 . S
C328 C324 1.389 . S
C328 C327 1.371 . S
C329 H318 0.970 . S
C329 H319 0.970 . S
C329 C325 1.532 . S
C329 C330 1.499 . S
C330 C329 1.499 . S
C330 C331 1.370 . S
C330 C335 1.415 . S
C331 H320 0.930 . S
C331 C330 1.370 . S
C331 C332 1.407 1_554 S
C332 C331 1.407 1_556 S
C332 C333 1.365 . S
C333 H321 0.930 . S
C333 C332 1.365 . S
C333 C334 1.393 . S
C334 C333 1.393 . S
C334 C335 1.387 1_556 S
C335 H322 0.930 . S
C335 C330 1.415 . S
C335 C334 1.387 1_554 S
H336 C344 0.930 . S
H337 C347 0.930 . S
H338 C349 0.930 . S
H339 C350 0.970 . S
H340 C350 0.970 . S
H341 C352 0.930 1_554 S
H342 C354 0.930 . S
H343 C356 0.930 1_554 S
C344 H336 0.930 . S
C344 C345 1.382 . S
C344 C346 1.426 . S
C345 C344 1.382 . S
C345 C349 1.389 . S
C346 C344 1.426 . S
C346 C347 1.375 . S
C346 C350 1.532 . S
C347 H337 0.930 . S
C347 C346 1.375 . S
C347 C348 1.416 . S
C348 C347 1.416 . S
C348 C349 1.371 . S
C349 H338 0.930 . S
C349 C345 1.389 . S
C349 C348 1.371 . S
C350 H339 0.970 . S
C350 H340 0.970 . S
C350 C346 1.532 . S
C350 C351 1.499 . S
C351 C350 1.499 . S
C351 C352 1.370 1_554 S
C351 C356 1.415 1_554 S
C352 H341 0.930 1_556 S
C352 C351 1.370 1_556 S
C352 C353 1.407 . S
C353 C352 1.407 . S
C353 C354 1.365 . S
C354 H342 0.930 . S
C354 C353 1.365 . S
C354 C355 1.393 . S
C355 C354 1.393 . S
C355 C356 1.387 . S
C356 H343 0.930 1_556 S
C356 C351 1.415 1_556 S
C356 C355 1.387 . S
H357 C365 0.930 . S
H358 C368 0.930 . S
H359 C370 0.930 . S
H360 C371 0.970 . S
H361 C371 0.970 . S
H362 C373 0.930 . S
H363 C375 0.930 . S
H364 C377 0.930 . S
C365 H357 0.930 . S
C365 C366 1.382 . S
C365 C367 1.426 . S
C366 C365 1.382 . S
C366 C370 1.389 . S
C367 C365 1.426 . S
C367 C368 1.375 . S
C367 C371 1.532 . S
C368 H358 0.930 . S
C368 C367 1.375 . S
C368 C369 1.416 . S
C369 C368 1.416 . S
C369 C370 1.371 . S
C370 H359 0.930 . S
C370 C366 1.389 . S
C370 C369 1.371 . S
C371 H360 0.970 . S
C371 H361 0.970 . S
C371 C367 1.532 . S
C371 C372 1.499 . S
C372 C371 1.499 . S
C372 C373 1.370 . S
C372 C377 1.415 . S
C373 H362 0.930 . S
C373 C372 1.370 . S
C373 C374 1.407 . S
C374 C373 1.407 . S
C374 C375 1.365 . S
C375 H363 0.930 . S
C375 C374 1.365 . S
C375 C376 1.393 . S
C376 C375 1.393 . S
C376 C377 1.387 . S
C377 H364 0.930 . S
C377 C372 1.415 . S
C377 C376 1.387 . S
H378 C386 0.930 . S
H379 C389 0.930 . S
H380 C391 0.930 . S
H381 C392 0.970 . S
H382 C392 0.970 . S
H383 C394 0.930 . S
H384 C396 0.930 . S
H385 C398 0.930 . S
C386 H378 0.930 . S
C386 C387 1.382 . S
C386 C388 1.426 . S
C387 C386 1.382 . S
C387 C391 1.389 . S
C388 C386 1.426 . S
C388 C389 1.375 . S
C388 C392 1.532 . S
C389 H379 0.930 . S
C389 C388 1.375 . S
C389 C390 1.416 . S
C390 C389 1.416 . S
C390 C391 1.371 . S
C391 H380 0.930 . S
C391 C387 1.389 . S
C391 C390 1.371 . S
C392 H381 0.970 . S
C392 H382 0.970 . S
C392 C388 1.532 . S
C392 C393 1.499 . S
C393 C392 1.499 . S
C393 C394 1.370 . S
C393 C398 1.415 . S
C394 H383 0.930 . S
C394 C393 1.370 . S
C394 C395 1.407 . S
C395 C394 1.407 . S
C395 C396 1.365 . S
C396 H384 0.930 . S
C396 C395 1.365 . S
C396 C397 1.393 . S
C397 C396 1.393 . S
C397 C398 1.387 . S
C398 H385 0.930 . S
C398 C393 1.415 . S
C398 C397 1.387 . S
H399 C407 0.930 . S
H400 C410 0.930 . S
H401 C412 0.930 . S
H402 C413 0.970 . S
H403 C413 0.970 . S
H404 C415 0.930 . S
H405 C417 0.930 . S
H406 C419 0.930 . S
C407 H399 0.930 . S
C407 C408 1.382 . S
C407 C409 1.426 . S
C408 C407 1.382 . S
C408 C412 1.389 . S
C409 C407 1.426 . S
C409 C410 1.375 . S
C409 C413 1.532 . S
C410 H400 0.930 . S
C410 C409 1.375 . S
C410 C411 1.416 . S
C411 C410 1.416 . S
C411 C412 1.371 . S
C412 H401 0.930 . S
C412 C408 1.389 . S
C412 C411 1.371 . S
C413 H402 0.970 . S
C413 H403 0.970 . S
C413 C409 1.532 . S
C413 C414 1.499 . S
C414 C413 1.499 . S
C414 C415 1.370 . S
C414 C419 1.415 . S
C415 H404 0.930 . S
C415 C414 1.370 . S
C415 C416 1.407 . S
C416 C415 1.407 . S
C416 C417 1.365 . S
C417 H405 0.930 . S
C417 C416 1.365 . S
C417 C418 1.393 . S
C418 C417 1.393 . S
C418 C419 1.387 . S
C419 H406 0.930 . S
C419 C414 1.415 . S
C419 C418 1.387 . S
C420 C421 1.387 1_556 S
C420 H424 0.950 1_556 S
C420 C429 1.390 . S
C421 C420 1.387 1_554 S
C421 C423 1.387 1_554 S
H422 C429 0.950 . S
C423 C421 1.387 1_556 S
C423 C425 1.390 . S
C423 H427 0.950 1_556 S
H424 C420 0.950 1_554 S
C425 C423 1.390 . S
C425 C426 1.387 . S
C425 H428 0.950 . S
C426 C425 1.387 . S
C426 C429 1.387 . S
H427 C423 0.950 1_554 S
H428 C425 0.950 . S
C429 C420 1.390 . S
C429 H422 0.950 . S
C429 C426 1.387 . S
C430 C431 1.387 . S
C430 H434 0.950 . S
C430 C439 1.390 . S
C431 C430 1.387 . S
C431 C433 1.387 . S
H432 C439 0.950 . S
C433 C431 1.387 . S
C433 C435 1.390 . S
C433 H437 0.950 . S
H434 C430 0.950 . S
C435 C433 1.390 . S
C435 C436 1.387 . S
C435 H438 0.950 . S
C436 C435 1.387 . S
C436 C439 1.387 . S
H437 C433 0.950 . S
H438 C435 0.950 . S
C439 C430 1.390 . S
C439 H432 0.950 . S
C439 C436 1.387 . S
C440 C441 1.387 . S
C440 H444 0.950 . S
C440 C449 1.390 . S
C441 C440 1.387 . S
C441 C443 1.387 . S
H442 C449 0.950 . S
C443 C441 1.387 . S
C443 C445 1.390 . S
C443 H447 0.950 . S
H444 C440 0.950 . S
C445 C443 1.390 . S
C445 C446 1.387 . S
C445 H448 0.950 . S
C446 C445 1.387 . S
C446 C449 1.387 . S
H447 C443 0.950 . S
H448 C445 0.950 . S
C449 C440 1.390 . S
C449 H442 0.950 . S
C449 C446 1.387 . S
C450 C451 1.387 . S
C450 H454 0.950 . S
C450 C459 1.390 . S
C451 C450 1.387 . S
C451 C453 1.387 . S
H452 C459 0.950 . S
C453 C451 1.387 . S
C453 C455 1.390 . S
C453 H457 0.950 . S
H454 C450 0.950 . S
C455 C453 1.390 . S
C455 C456 1.387 . S
C455 H458 0.950 . S
C456 C455 1.387 . S
C456 C459 1.387 . S
H457 C453 0.950 . S
H458 C455 0.950 . S
C459 C450 1.390 . S
C459 H452 0.950 . S
C459 C456 1.387 . S
C460 C461 1.387 . S
C460 H464 0.950 . S
C460 C469 1.390 . S
C461 C460 1.387 . S
C461 C463 1.387 . S
H462 C469 0.950 . S
C463 C461 1.387 . S
C463 C465 1.390 . S
C463 H467 0.950 1_455 S
H464 C460 0.950 . S
C465 C463 1.390 . S
C465 C466 1.387 . S
C465 H468 0.950 . S
C466 C465 1.387 . S
C466 C469 1.387 . S
H467 C463 0.950 1_655 S
H468 C465 0.950 . S
C469 C460 1.390 . S
C469 H462 0.950 . S
C469 C466 1.387 . S
C470 C471 1.387 . S
C470 H474 0.950 . S
C470 C479 1.390 . S
C471 C470 1.387 . S
C471 C473 1.387 . S
H472 C479 0.950 . S
C473 C471 1.387 . S
C473 C475 1.390 . S
C473 H477 0.950 . S
H474 C470 0.950 . S
C475 C473 1.390 . S
C475 C476 1.387 . S
C475 H478 0.950 . S
C476 C475 1.387 . S
C476 C479 1.387 . S
H477 C473 0.950 . S
H478 C475 0.950 . S
C479 C470 1.390 . S
C479 H472 0.950 . S
C479 C476 1.387 . S
C480 C481 1.387 . S
C480 H484 0.950 . S
C480 C489 1.390 . S
C481 C480 1.387 . S
C481 C483 1.387 . S
H482 C489 0.950 . S
C483 C481 1.387 . S
C483 C485 1.390 . S
C483 H487 0.950 . S
H484 C480 0.950 . S
C485 C483 1.390 . S
C485 C486 1.387 . S
C485 H488 0.950 . S
C486 C485 1.387 . S
C486 C489 1.387 . S
H487 C483 0.950 . S
H488 C485 0.950 . S
C489 C480 1.390 . S
C489 H482 0.950 . S
C489 C486 1.387 . S
C490 C491 1.387 . S
C490 H494 0.950 . S
C490 C499 1.390 . S
C491 C490 1.387 . S
C491 C493 1.387 . S
H492 C499 0.950 . S
C493 C491 1.387 . S
C493 C495 1.390 . S
C493 H497 0.950 . S
H494 C490 0.950 . S
C495 C493 1.390 . S
C495 C496 1.387 . S
C495 H498 0.950 . S
C496 C495 1.387 . S
C496 C499 1.387 . S
H497 C493 0.950 . S
H498 C495 0.950 . S
C499 C490 1.390 . S
C499 H492 0.950 . S
C499 C496 1.387 . S
C500 C501 1.388 . S
C500 H504 0.950 1_655 S
C500 C509 1.390 . S
C501 C500 1.388 . S
C501 C503 1.388 . S
H502 C509 0.950 . S
C503 C501 1.388 . S
C503 C505 1.390 . S
C503 H507 0.945 1_545 S
H504 C500 0.950 1_455 S
C505 C503 1.390 . S
C505 C506 1.387 . S
C505 H508 0.950 . S
C506 C505 1.387 . S
C506 C509 1.387 . S
H507 C503 0.945 1_565 S
H508 C505 0.950 . S
C509 C500 1.390 . S
C509 H502 0.950 . S
C509 C506 1.387 . S
C510 C511 1.387 . S
C510 H514 0.950 . S
C510 C519 1.390 . S
C511 C510 1.387 . S
C511 C513 1.387 . S
H512 C519 0.950 . S
C513 C511 1.387 . S
C513 C515 1.390 . S
C513 H517 0.950 . S
H514 C510 0.950 . S
C515 C513 1.390 . S
C515 C516 1.387 . S
C515 H518 0.950 . S
C516 C515 1.387 . S
C516 C519 1.387 . S
H517 C513 0.950 . S
H518 C515 0.950 . S
C519 C510 1.390 . S
C519 H512 0.950 . S
C519 C516 1.387 . S
C520 C521 1.387 . S
C520 H524 0.950 . S
C520 C529 1.390 . S
C521 C520 1.387 . S
C521 C523 1.387 . S
H522 C529 0.950 . S
C523 C521 1.387 . S
C523 C525 1.390 . S
C523 H527 0.950 1_565 S
H524 C520 0.950 . S
C525 C523 1.390 . S
C525 C526 1.387 . S
C525 H528 0.950 . S
C526 C525 1.387 . S
C526 C529 1.387 . S
H527 C523 0.950 1_545 S
H528 C525 0.950 . S
C529 C520 1.390 . S
C529 H522 0.950 . S
C529 C526 1.387 . S
C530 C531 1.387 . S
C530 H534 0.950 . S
C530 C539 1.390 . S
C531 C530 1.387 . S
C531 C533 1.387 . S
H532 C539 0.950 . S
C533 C531 1.387 . S
C533 C535 1.390 . S
C533 H537 0.950 . S
H534 C530 0.950 . S
C535 C533 1.390 . S
C535 C536 1.387 . S
C535 H538 0.950 . S
C536 C535 1.387 . S
C536 C539 1.387 . S
H537 C533 0.950 . S
H538 C535 0.950 . S
C539 C530 1.390 . S
C539 H532 0.950 . S
C539 C536 1.387 . S
C540 C541 1.387 1_655 S
C540 H544 0.950 1_565 S
C540 C549 1.390 . S
C541 C540 1.387 1_455 S
C541 C543 1.387 1_455 S
H542 C549 0.950 1_545 S
C543 C541 1.387 1_655 S
C543 C545 1.390 . S
C543 H547 0.950 1_655 S
H544 C540 0.950 1_545 S
C545 C543 1.390 . S
C545 C546 1.387 . S
C545 H548 0.950 . S
C546 C545 1.387 . S
C546 C549 1.387 . S
H547 C543 0.950 1_455 S
H548 C545 0.950 . S
C549 C540 1.390 . S
C549 H542 0.950 1_565 S
C549 C546 1.387 . S
C550 C551 1.387 . S
C550 H554 0.950 . S
C550 C559 1.390 . S
C551 C550 1.387 . S
C551 C553 1.387 . S
H552 C559 0.950 . S
C553 C551 1.387 . S
C553 C555 1.390 . S
C553 H557 0.950 . S
H554 C550 0.950 . S
C555 C553 1.390 . S
C555 C556 1.387 . S
C555 H558 0.950 . S
C556 C555 1.387 . S
C556 C559 1.387 . S
H557 C553 0.950 . S
H558 C555 0.950 . S
C559 C550 1.390 . S
C559 H552 0.950 . S
C559 C556 1.387 . S
C560 C561 1.387 . S
C560 H564 0.950 . S
C560 C569 1.390 . S
C561 C560 1.387 . S
C561 C563 1.387 . S
H562 C569 0.950 . S
C563 C561 1.387 . S
C563 C565 1.390 . S
C563 H567 0.950 . S
H564 C560 0.950 . S
C565 C563 1.390 . S
C565 C566 1.387 . S
C565 H568 0.950 . S
C566 C565 1.387 . S
C566 C569 1.387 . S
H567 C563 0.950 . S
H568 C565 0.950 . S
C569 C560 1.390 . S
C569 H562 0.950 . S
C569 C566 1.387 . S
C570 C571 1.387 . S
C570 H574 0.950 . S
C570 C579 1.390 . S
C571 C570 1.387 . S
C571 C573 1.387 . S
H572 C579 0.950 . S
C573 C571 1.387 . S
C573 C575 1.390 . S
C573 H577 0.950 . S
H574 C570 0.950 . S
C575 C573 1.390 . S
C575 C576 1.387 . S
C575 H578 0.950 . S
C576 C575 1.387 . S
C576 C579 1.387 . S
H577 C573 0.950 . S
H578 C575 0.950 . S
C579 C570 1.390 . S
C579 H572 0.950 . S
C579 C576 1.387 . S
C580 C581 1.387 1_565 S
C580 H584 0.950 1_565 S
C580 C589 1.390 . S
C581 C580 1.387 1_545 S
C581 C583 1.387 1_545 S
H582 C589 0.950 . S
C583 C581 1.387 1_565 S
C583 C585 1.390 . S
C583 H587 0.950 1_554 S
H584 C580 0.950 1_545 S
C585 C583 1.390 . S
C585 C586 1.387 . S
C585 H588 0.950 . S
C586 C585 1.387 . S
C586 C589 1.387 . S
H587 C583 0.950 1_556 S
H588 C585 0.950 . S
C589 C580 1.390 . S
C589 H582 0.950 . S
C589 C586 1.387 . S
C590 C591 1.387 . S
C590 H594 0.950 1_556 S
C590 C599 1.390 . S
C591 C590 1.387 . S
C591 C593 1.387 . S
H592 C599 0.950 1_554 S
C593 C591 1.387 . S
C593 C595 1.390 . S
C593 H597 0.950 . S
H594 C590 0.950 1_554 S
C595 C593 1.390 . S
C595 C596 1.387 . S
C595 H598 0.950 . S
C596 C595 1.387 . S
C596 C599 1.387 . S
H597 C593 0.950 . S
H598 C595 0.950 . S
C599 C590 1.390 . S
C599 H592 0.950 1_556 S
C599 C596 1.387 . S
C600 C601 1.387 . S
C600 H604 0.950 . S
C600 C609 1.390 . S
C601 C600 1.387 . S
C601 C603 1.387 . S
H602 C609 0.950 . S
C603 C601 1.387 . S
C603 C605 1.390 . S
C603 H607 0.950 . S
H604 C600 0.950 . S
C605 C603 1.390 . S
C605 C606 1.387 . S
C605 H608 0.950 . S
C606 C605 1.387 . S
C606 C609 1.387 . S
H607 C603 0.950 . S
H608 C605 0.950 . S
C609 C600 1.390 . S
C609 H602 0.950 . S
C609 C606 1.387 . S
C610 C611 1.387 . S
C610 H614 0.950 . S
C610 C619 1.390 . S
C611 C610 1.387 . S
C611 C613 1.387 . S
H612 C619 0.950 . S
C613 C611 1.387 . S
C613 C615 1.390 . S
C613 H617 0.950 . S
H614 C610 0.950 . S
C615 C613 1.390 . S
C615 C616 1.387 . S
C615 H618 0.950 . S
C616 C615 1.387 . S
C616 C619 1.387 . S
H617 C613 0.950 . S
H618 C615 0.950 . S
C619 C610 1.390 . S
C619 H612 0.950 . S
C619 C616 1.387 . S
C620 C621 1.387 . S
C620 H624 0.950 . S
C620 C629 1.390 . S
C621 C620 1.387 . S
C621 C623 1.387 . S
H622 C629 0.950 . S
C623 C621 1.387 . S
C623 C625 1.390 . S
C623 H627 0.950 . S
H624 C620 0.950 . S
C625 C623 1.390 . S
C625 C626 1.387 . S
C625 H628 0.950 . S
C626 C625 1.387 . S
C626 C629 1.387 . S
H627 C623 0.950 . S
H628 C625 0.950 . S
C629 C620 1.390 . S
C629 H622 0.950 . S
C629 C626 1.387 . S
C630 C631 1.387 . S
C630 H634 0.950 . S
C630 C639 1.390 . S
C631 C630 1.387 . S
C631 C633 1.387 . S
H632 C639 0.950 . S
C633 C631 1.387 . S
C633 C635 1.390 . S
C633 H637 0.950 . S
H634 C630 0.950 . S
C635 C633 1.390 . S
C635 C636 1.387 . S
C635 H638 0.950 . S
C636 C635 1.387 . S
C636 C639 1.387 . S
H637 C633 0.950 . S
H638 C635 0.950 . S
C639 C630 1.390 . S
C639 H632 0.950 . S
C639 C636 1.387 . S
C640 C641 1.387 . S
C640 H644 0.950 . S
C640 C649 1.390 . S
C641 C640 1.387 . S
C641 C643 1.387 . S
H642 C649 0.950 . S
C643 C641 1.387 . S
C643 C645 1.390 . S
C643 H647 0.950 . S
H644 C640 0.950 . S
C645 C643 1.390 . S
C645 C646 1.387 . S
C645 H648 0.950 . S
C646 C645 1.387 . S
C646 C649 1.387 . S
H647 C643 0.950 . S
H648 C645 0.950 . S
C649 C640 1.390 . S
C649 H642 0.950 . S
C649 C646 1.387 . S
C650 C651 1.387 . S
C650 H654 0.950 . S
C650 C659 1.390 . S
C651 C650 1.387 . S
C651 C653 1.387 . S
H652 C659 0.950 . S
C653 C651 1.387 . S
C653 C655 1.390 . S
C653 H657 0.950 . S
H654 C650 0.950 . S
C655 C653 1.390 . S
C655 C656 1.387 . S
C655 H658 0.950 . S
C656 C655 1.387 . S
C656 C659 1.387 . S
H657 C653 0.950 . S
H658 C655 0.950 . S
C659 C650 1.390 . S
C659 H652 0.950 . S
C659 C656 1.387 . S
C660 C661 1.387 . S
C660 H664 0.950 . S
C660 C669 1.390 . S
C661 C660 1.387 . S
C661 C663 1.387 . S
H662 C669 0.950 . S
C663 C661 1.387 . S
C663 C665 1.390 . S
C663 H667 0.950 . S
H664 C660 0.950 . S
C665 C663 1.390 . S
C665 C666 1.387 . S
C665 H668 0.950 1_565 S
C666 C665 1.387 . S
C666 C669 1.387 . S
H667 C663 0.950 . S
H668 C665 0.950 1_545 S
C669 C660 1.390 . S
C669 H662 0.950 . S
C669 C666 1.387 . S
C670 C671 1.387 . S
C670 H674 0.950 . S
C670 C679 1.390 . S
C671 C670 1.387 . S
C671 C673 1.387 . S
H672 C679 0.950 . S
C673 C671 1.387 . S
C673 C675 1.390 . S
C673 H677 0.950 . S
H674 C670 0.950 . S
C675 C673 1.390 . S
C675 C676 1.387 . S
C675 H678 0.950 . S
C676 C675 1.387 . S
C676 C679 1.387 . S
H677 C673 0.950 . S
H678 C675 0.950 . S
C679 C670 1.390 . S
C679 H672 0.950 . S
C679 C676 1.387 . S
C680 C681 1.380 1_556 S
C680 H684 0.941 1_556 S
C680 C689 1.406 . S
C681 C680 1.380 1_554 S
C681 C683 1.387 1_554 S
H682 C689 0.950 . S
C683 C681 1.387 1_556 S
C683 C685 1.390 . S
C683 H687 0.950 1_656 S
H684 C680 0.941 1_554 S
C685 C683 1.390 . S
C685 C686 1.387 . S
C685 H688 0.950 . S
C686 C685 1.387 . S
C686 C689 1.387 . S
H687 C683 0.950 1_454 S
H688 C685 0.950 . S
C689 C680 1.406 . S
C689 H682 0.950 . S
C689 C686 1.387 . S
C690 C691 1.387 . S
C690 H694 0.950 . S
C690 C699 1.390 . S
C691 C690 1.387 . S
C691 C693 1.387 . S
H692 C699 0.950 . S
C693 C691 1.387 . S
C693 C695 1.390 . S
C693 H697 0.950 . S
H694 C690 0.950 . S
C695 C693 1.390 . S
C695 C696 1.387 . S
C695 H698 0.950 . S
C696 C695 1.387 . S
C696 C699 1.387 . S
H697 C693 0.950 . S
H698 C695 0.950 . S
C699 C690 1.390 . S
C699 H692 0.950 . S
C699 C696 1.387 . S
C700 C701 1.387 . S
C700 H704 0.950 . S
C700 C709 1.390 . S
C701 C700 1.387 . S
C701 C703 1.387 . S
H702 C709 0.950 . S
C703 C701 1.387 . S
C703 C705 1.390 . S
C703 H707 0.950 . S
H704 C700 0.950 . S
C705 C703 1.390 . S
C705 C706 1.387 . S
C705 H708 0.950 . S
C706 C705 1.387 . S
C706 C709 1.387 . S
H707 C703 0.950 . S
H708 C705 0.950 . S
C709 C700 1.390 . S
C709 H702 0.950 . S
C709 C706 1.387 . S
C710 C711 1.387 . S
C710 H714 0.950 . S
C710 C719 1.390 . S
C711 C710 1.387 . S
C711 C713 1.387 . S
H712 C719 0.950 . S
C713 C711 1.387 . S
C713 C715 1.390 . S
C713 H717 0.950 . S
H714 C710 0.950 . S
C715 C713 1.390 . S
C715 C716 1.387 . S
C715 H718 0.950 . S
C716 C715 1.387 . S
C716 C719 1.387 . S
H717 C713 0.950 . S
H718 C715 0.950 . S
C719 C710 1.390 . S
C719 H712 0.950 . S
C719 C716 1.387 . S
C720 C721 1.387 . S
C720 H724 0.950 . S
C720 C729 1.390 . S
C721 C720 1.387 . S
C721 C723 1.387 . S
H722 C729 0.950 . S
C723 C721 1.387 . S
C723 C725 1.390 . S
C723 H727 0.950 . S
H724 C720 0.950 . S
C725 C723 1.390 . S
C725 C726 1.387 . S
C725 H728 0.950 . S
C726 C725 1.387 . S
C726 C729 1.387 . S
H727 C723 0.950 . S
H728 C725 0.950 . S
C729 C720 1.390 . S
C729 H722 0.950 . S
C729 C726 1.387 . S
C730 C731 1.387 . S
C730 H734 0.950 . S
C730 C739 1.390 . S
C731 C730 1.387 . S
C731 C733 1.387 . S
H732 C739 0.950 . S
C733 C731 1.387 . S
C733 C735 1.390 . S
C733 H737 0.950 . S
H734 C730 0.950 . S
C735 C733 1.390 . S
C735 C736 1.387 . S
C735 H738 0.950 . S
C736 C735 1.387 . S
C736 C739 1.387 . S
H737 C733 0.950 . S
H738 C735 0.950 . S
C739 C730 1.390 . S
C739 H732 0.950 . S
C739 C736 1.387 . S
C740 C741 1.387 . S
C740 H744 0.950 . S
C740 C749 1.390 . S
C741 C740 1.387 . S
C741 C743 1.387 . S
H742 C749 0.950 . S
C743 C741 1.387 . S
C743 C745 1.390 . S
C743 H747 0.950 . S
H744 C740 0.950 . S
C745 C743 1.390 . S
C745 C746 1.387 . S
C745 H748 0.950 . S
C746 C745 1.387 . S
C746 C749 1.387 . S
H747 C743 0.950 . S
H748 C745 0.950 . S
C749 C740 1.390 . S
C749 H742 0.950 . S
C749 C746 1.387 . S
C750 C751 1.387 . S
C750 H754 0.950 . S
C750 C759 1.390 . S
C751 C750 1.387 . S
C751 C753 1.387 . S
H752 C759 0.950 . S
C753 C751 1.387 . S
C753 C755 1.390 . S
C753 H757 0.950 . S
H754 C750 0.950 . S
C755 C753 1.390 . S
C755 C756 1.387 . S
C755 H758 0.950 . S
C756 C755 1.387 . S
C756 C759 1.387 . S
H757 C753 0.950 . S
H758 C755 0.950 . S
C759 C750 1.390 . S
C759 H752 0.950 . S
C759 C756 1.387 . S
C760 C761 1.387 . S
C760 H764 0.950 . S
C760 C769 1.390 . S
C761 C760 1.387 . S
C761 C763 1.387 . S
H762 C769 0.950 . S
C763 C761 1.387 . S
C763 C765 1.390 . S
C763 H767 0.950 . S
H764 C760 0.950 . S
C765 C763 1.390 . S
C765 C766 1.387 . S
C765 H768 0.950 . S
C766 C765 1.387 . S
C766 C769 1.387 . S
H767 C763 0.950 . S
H768 C765 0.950 . S
C769 C760 1.390 . S
C769 H762 0.950 . S
C769 C766 1.387 . S
C770 C771 1.387 . S
C770 H774 0.950 . S
C770 C779 1.390 . S
C771 C770 1.387 . S
C771 C773 1.387 . S
H772 C779 0.950 . S
C773 C771 1.387 . S
C773 C775 1.390 . S
C773 H777 0.950 . S
H774 C770 0.950 . S
C775 C773 1.390 . S
C775 C776 1.387 . S
C775 H778 0.950 . S
C776 C775 1.387 . S
C776 C779 1.387 . S
H777 C773 0.950 . S
H778 C775 0.950 . S
C779 C770 1.390 . S
C779 H772 0.950 . S
C779 C776 1.387 . S
C780 C781 1.387 . S
C780 H784 0.950 . S
C780 C789 1.390 . S
C781 C780 1.387 . S
C781 C783 1.387 . S
H782 C789 0.950 . S
C783 C781 1.387 . S
C783 C785 1.390 . S
C783 H787 0.950 . S
H784 C780 0.950 . S
C785 C783 1.390 . S
C785 C786 1.387 . S
C785 H788 0.950 . S
C786 C785 1.387 . S
C786 C789 1.387 . S
H787 C783 0.950 . S
H788 C785 0.950 . S
C789 C780 1.390 . S
C789 H782 0.950 . S
C789 C786 1.387 . S
C790 C791 1.387 . S
C790 H794 0.950 . S
C790 C799 1.390 . S
C791 C790 1.387 . S
C791 C793 1.387 . S
H792 C799 0.950 . S
C793 C791 1.387 . S
C793 C795 1.390 . S
C793 H797 0.950 . S
H794 C790 0.950 . S
C795 C793 1.390 . S
C795 C796 1.387 . S
C795 H798 0.950 . S
C796 C795 1.387 . S
C796 C799 1.387 . S
H797 C793 0.950 . S
H798 C795 0.950 . S
C799 C790 1.390 . S
C799 H792 0.950 . S
C799 C796 1.387 . S
C800 C801 1.387 . S
C800 H804 0.950 . S
C800 C809 1.390 . S
C801 C800 1.387 . S
C801 C803 1.387 . S
H802 C809 0.950 . S
C803 C801 1.387 . S
C803 C805 1.390 . S
C803 H807 0.950 . S
H804 C800 0.950 . S
C805 C803 1.390 . S
C805 C806 1.387 . S
C805 H808 0.950 . S
C806 C805 1.387 . S
C806 C809 1.387 . S
H807 C803 0.950 . S
H808 C805 0.950 . S
C809 C800 1.390 . S
C809 H802 0.950 . S
C809 C806 1.387 . S
C810 C811 1.387 . S
C810 H814 0.950 . S
C810 C819 1.390 . S
C811 C810 1.387 . S
C811 C813 1.387 . S
H812 C819 0.950 . S
C813 C811 1.387 . S
C813 C815 1.390 . S
C813 H817 0.950 . S
H814 C810 0.950 . S
C815 C813 1.390 . S
C815 C816 1.387 . S
C815 H818 0.950 . S
C816 C815 1.387 . S
C816 C819 1.387 . S
H817 C813 0.950 . S
H818 C815 0.950 . S
C819 C810 1.390 . S
C819 H812 0.950 . S
C819 C816 1.387 . S
C820 C821 1.387 . S
C820 H824 0.950 . S
C820 C829 1.390 . S
C821 C820 1.387 . S
C821 C823 1.387 . S
H822 C829 0.950 . S
C823 C821 1.387 . S
C823 C825 1.390 . S
C823 H827 0.950 . S
H824 C820 0.950 . S
C825 C823 1.390 . S
C825 C826 1.387 . S
C825 H828 0.950 . S
C826 C825 1.387 . S
C826 C829 1.387 . S
H827 C823 0.950 . S
H828 C825 0.950 . S
C829 C820 1.390 . S
C829 H822 0.950 . S
C829 C826 1.387 . S
C830 C831 1.387 . S
C830 H834 0.950 1_545 S
C830 C839 1.390 . S
C831 C830 1.387 . S
C831 C833 1.387 . S
H832 C839 0.950 . S
C833 C831 1.387 . S
C833 C835 1.390 . S
C833 H837 0.950 . S
H834 C830 0.950 1_565 S
C835 C833 1.390 . S
C835 C836 1.387 . S
C835 H838 0.950 . S
C836 C835 1.387 . S
C836 C839 1.387 . S
H837 C833 0.950 . S
H838 C835 0.950 . S
C839 C830 1.390 . S
C839 H832 0.950 . S
C839 C836 1.387 . S
C840 C841 1.387 . S
C840 H844 0.950 . S
C840 C849 1.390 . S
C841 C840 1.387 . S
C841 C843 1.387 . S
H842 C849 0.950 . S
C843 C841 1.387 . S
C843 C845 1.390 . S
C843 H847 0.950 . S
H844 C840 0.950 . S
C845 C843 1.390 . S
C845 C846 1.387 . S
C845 H848 0.950 . S
C846 C845 1.387 . S
C846 C849 1.387 . S
H847 C843 0.950 . S
H848 C845 0.950 . S
C849 C840 1.390 . S
C849 H842 0.950 . S
C849 C846 1.387 . S
C850 C851 1.387 1_565 S
C850 H854 0.950 1_565 S
C850 C859 1.390 . S
C851 C850 1.387 1_545 S
C851 C853 1.387 1_545 S
H852 C859 0.950 . S
C853 C851 1.387 1_565 S
C853 C855 1.390 . S
C853 H857 0.950 1_556 S
H854 C850 0.950 1_545 S
C855 C853 1.390 . S
C855 C856 1.387 . S
C855 H858 0.950 . S
C856 C855 1.387 . S
C856 C859 1.387 . S
H857 C853 0.950 1_554 S
H858 C855 0.950 . S
C859 C850 1.390 . S
C859 H852 0.950 . S
C859 C856 1.387 . S
C860 C861 1.387 . S
C860 H864 0.950 . S
C860 C869 1.390 . S
C861 C860 1.387 . S
C861 C863 1.387 . S
H862 C869 0.950 . S
C863 C861 1.387 . S
C863 C865 1.390 . S
C863 H867 0.950 . S
H864 C860 0.950 . S
C865 C863 1.390 . S
C865 C866 1.387 . S
C865 H868 0.950 . S
C866 C865 1.387 . S
C866 C869 1.387 . S
H867 C863 0.950 . S
H868 C865 0.950 . S
C869 C860 1.390 . S
C869 H862 0.950 . S
C869 C866 1.387 . S
C870 C871 1.387 . S
C870 H874 0.950 . S
C870 C879 1.390 . S
C871 C870 1.387 . S
C871 C873 1.387 . S
H872 C879 0.950 . S
C873 C871 1.387 . S
C873 C875 1.390 . S
C873 H877 0.950 . S
H874 C870 0.950 . S
C875 C873 1.390 . S
C875 C876 1.387 . S
C875 H878 0.950 . S
C876 C875 1.387 . S
C876 C879 1.387 . S
H877 C873 0.950 . S
H878 C875 0.950 . S
C879 C870 1.390 . S
C879 H872 0.950 . S
C879 C876 1.387 . S
C880 C881 1.387 . S
C880 H884 0.950 . S
C880 C889 1.390 . S
C881 C880 1.387 . S
C881 C883 1.387 . S
H882 C889 0.950 . S
C883 C881 1.387 . S
C883 C885 1.390 . S
C883 H887 0.950 . S
H884 C880 0.950 . S
C885 C883 1.390 . S
C885 C886 1.387 . S
C885 H888 0.950 . S
C886 C885 1.387 . S
C886 C889 1.387 . S
H887 C883 0.950 . S
H888 C885 0.950 . S
C889 C880 1.390 . S
C889 H882 0.950 . S
C889 C886 1.387 . S
C890 C891 1.387 . S
C890 H894 0.950 . S
C890 C899 1.390 . S
C891 C890 1.387 . S
C891 C893 1.387 . S
H892 C899 0.950 . S
C893 C891 1.387 . S
C893 C895 1.390 . S
C893 H897 0.950 . S
H894 C890 0.950 . S
C895 C893 1.390 . S
C895 C896 1.387 . S
C895 H898 0.950 . S
C896 C895 1.387 . S
C896 C899 1.387 . S
H897 C893 0.950 . S
H898 C895 0.950 . S
C899 C890 1.390 . S
C899 H892 0.950 . S
C899 C896 1.387 . S
C426 C416 1.345 . S
C421 C8 1.406 . S
C431 C23 1.398 . S
C436 C345 1.139 . S
C441 C35 1.453 . S
C446 C374 1.368 . S
C456 C387 1.074 . S
C451 C45 1.417 . S
C461 C22 1.461 . S
C466 C408 1.275 . S
C476 C353 1.202 . S
C471 C31 1.340 . S
C486 C366 1.255 . S
C481 C49 1.506 1_554 S
C496 C395 1.236 . S
C491 C9 1.363 . S
C501 C65 1.366 1_655 S
C506 C397 1.311 . S
C516 C411 1.216 . S
C511 C73 1.404 . S
C526 C355 1.354 . S
C521 C93 1.397 . S
C536 C369 1.144 . S
C531 C101 1.383 . S
C541 C59 1.378 . S
C546 C348 1.317 . S
C551 C79 1.375 . S
C556 C376 1.148 . S
C561 C87 1.387 . S
C566 C390 1.313 . S
C576 C418 1.240 . S
C571 C107 1.435 . S
C586 C227 1.460 . S
C581 C106 1.494 . S
C596 C208 1.268 . S
C591 C119 1.422 . S
C606 C222 1.309 . S
C601 C134 1.433 . S
C616 C243 1.303 . S
C611 C147 1.418 . S
C621 C64 1.407 . S
C626 C229 1.164 . S
C631 C78 1.441 1_545 S
C636 C180 1.379 . S
C641 C133 1.497 . S
C646 C240 1.064 . S
C651 C161 1.453 . S
C656 C206 1.210 . S
C666 C269 1.346 . S
C661 C36 1.404 . S
C676 C282 1.124 . S
C671 C51 1.390 . S
C681 C7 1.452 . S
C686 C311 1.364 . S
C691 C17 1.413 . S
C696 C324 1.068 . S
C706 C261 1.263 . S
C701 C50 1.456 1_554 S
C716 C290 1.209 . S
C711 C3 1.345 . S
C721 C21 1.511 . S
C726 C303 1.258 . S
C736 C332 1.248 . S
C731 C37 1.360 . S
C741 C163 1.376 . S
C746 C334 1.319 . S
C751 C115 1.386 . S
C756 C264 1.201 . S
C766 C292 1.351 . S
C761 C135 1.398 1_455 S
C771 C143 1.358 . S
C776 C306 1.137 . S
C786 C285 1.334 . S
C781 C157 1.399 . S
C791 C121 1.362 . S
C796 C313 1.137 . S
C806 C327 1.326 . S
C801 C129 1.400 1_455 S
C816 C271 1.221 . S
C811 C149 1.416 . S
C826 C187 1.355 . S
C821 C148 1.498 . S
C836 C250 1.293 . S
C831 C77 1.457 1_545 S
C841 C92 1.451 . S
C846 C177 1.159 . S
C856 C201 1.330 . S
C851 C105 1.449 . S
C866 C185 1.257 . S
C861 C162 1.392 . S
C871 C120 1.446 . S
C876 C219 1.269 . S
C881 C91 1.466 . S
C886 C198 1.042 . S
C891 C63 1.424 . S
C896 C248 1.177 . S
