# Generated by pormake.
# Topology ant, (3,6)-cn, num edge types: 1
# Building blocks:
#     Node 0, Type 0, BuildingBlock: INOVEN_clean_linker_0, # of connection points: 3
#     Node 1, Type 0, BuildingBlock: INOVEN_clean_linker_0, # of connection points: 3
#     Node 2, Type 0, BuildingBlock: INOVEN_clean_linker_0, # of connection points: 3
#     Node 3, Type 0, BuildingBlock: INOVEN_clean_linker_0, # of connection points: 3
#     Node 4, Type 0, BuildingBlock: INOVEN_clean_linker_0, # of connection points: 3
#     Node 5, Type 0, BuildingBlock: INOVEN_clean_linker_0, # of connection points: 3
#     Node 6, Type 0, BuildingBlock: INOVEN_clean_linker_0, # of connection points: 3
#     Node 7, Type 0, BuildingBlock: INOVEN_clean_linker_0, # of connection points: 3
#     Node 8, Type 1, BuildingBlock: MIDCAF_clean_sbu_0, # of connection points: 6
#     Node 9, Type 1, BuildingBlock: MIDCAF_clean_sbu_0, # of connection points: 6
#     Node 10, Type 1, BuildingBlock: MIDCAF_clean_sbu_0, # of connection points: 6
#     Node 11, Type 1, BuildingBlock: MIDCAF_clean_sbu_0, # of connection points: 6
#     Edge 12, Type (0, 1), BuildingBlock: KIFKEQ_clean_linker_1, # of connection points: 2
#     Edge 13, Type (0, 1), BuildingBlock: KIFKEQ_clean_linker_1, # of connection points: 2
#     Edge 14, Type (0, 1), BuildingBlock: KIFKEQ_clean_linker_1, # of connection points: 2
#     Edge 15, Type (0, 1), BuildingBlock: KIFKEQ_clean_linker_1, # of connection points: 2
#     Edge 16, Type (0, 1), BuildingBlock: KIFKEQ_clean_linker_1, # of connection points: 2
#     Edge 17, Type (0, 1), BuildingBlock: KIFKEQ_clean_linker_1, # of connection points: 2
#     Edge 18, Type (0, 1), BuildingBlock: KIFKEQ_clean_linker_1, # of connection points: 2
#     Edge 19, Type (0, 1), BuildingBlock: KIFKEQ_clean_linker_1, # of connection points: 2
#     Edge 20, Type (0, 1), BuildingBlock: KIFKEQ_clean_linker_1, # of connection points: 2
#     Edge 21, Type (0, 1), BuildingBlock: KIFKEQ_clean_linker_1, # of connection points: 2
#     Edge 22, Type (0, 1), BuildingBlock: KIFKEQ_clean_linker_1, # of connection points: 2
#     Edge 23, Type (0, 1), BuildingBlock: KIFKEQ_clean_linker_1, # of connection points: 2
#     Edge 24, Type (0, 1), BuildingBlock: KIFKEQ_clean_linker_1, # of connection points: 2
#     Edge 25, Type (0, 1), BuildingBlock: KIFKEQ_clean_linker_1, # of connection points: 2
#     Edge 26, Type (0, 1), BuildingBlock: KIFKEQ_clean_linker_1, # of connection points: 2
#     Edge 27, Type (0, 1), BuildingBlock: KIFKEQ_clean_linker_1, # of connection points: 2
#     Edge 28, Type (0, 1), BuildingBlock: KIFKEQ_clean_linker_1, # of connection points: 2
#     Edge 29, Type (0, 1), BuildingBlock: KIFKEQ_clean_linker_1, # of connection points: 2
#     Edge 30, Type (0, 1), BuildingBlock: KIFKEQ_clean_linker_1, # of connection points: 2
#     Edge 31, Type (0, 1), BuildingBlock: KIFKEQ_clean_linker_1, # of connection points: 2
#     Edge 32, Type (0, 1), BuildingBlock: KIFKEQ_clean_linker_1, # of connection points: 2
#     Edge 33, Type (0, 1), BuildingBlock: KIFKEQ_clean_linker_1, # of connection points: 2
#     Edge 34, Type (0, 1), BuildingBlock: KIFKEQ_clean_linker_1, # of connection points: 2
#     Edge 35, Type (0, 1), BuildingBlock: KIFKEQ_clean_linker_1, # of connection points: 2
# Relax obj value: 0.055
# Max RMSD: 0.147
# Mean RMSD: 0.088
data_MOF--net-ant--node1-MIDCAF_clean_sbu_0--node2-INOVEN_clean_linker_0--edge1-KIFKEQ_clean_linker_1
_symmetry_space_group_name_H-M    P1
_symmetry_Int_Tables_number       1
_symmetry_cell_setting            triclinic
loop_
_symmetry_equiv_pos_as_xyz
'x, y, z'
_cell_length_a     29.000537
_cell_length_b     28.774804
_cell_length_c     72.217974
_cell_angle_alpha  94.435065
_cell_angle_beta   98.510304
_cell_angle_gamma 89.242554
loop_
_atom_site_label
_atom_site_type_symbol
_atom_site_fract_x
_atom_site_fract_y
_atom_site_fract_z
_atom_type_partial_charge
H0 H 0.25391 0.2773 0.0896 0.0
H1 H 0.20518 0.30809 0.03232 0.0
H2 H 0.23177 0.16699 0.0456 0.0
N3 N 0.26196 0.18551 0.08231 0.0
N4 N 0.27574 0.14635 0.07667 0.0
C5 C 0.24378 0.26627 0.0749 0.0
C6 C 0.22892 0.29937 0.06174 0.0
C7 C 0.24591 0.21861 0.06912 0.0
C8 C 0.23112 0.20372 0.05019 0.0
C9 C 0.21597 0.23578 0.03703 0.0
C10 C 0.21565 0.28345 0.04277 0.0
H11 H 0.08246 0.84778 0.33562 0.0
H12 H 0.1559 0.82117 0.28833 0.0
H13 H 0.00913 0.79391 0.28199 0.0
N14 N 0.99866 0.82182 0.31786 0.0
N15 N 0.96106 0.80741 0.30861 0.0
C16 C 0.0824 0.83662 0.32093 0.0
C17 C 0.12409 0.83708 0.31317 0.0
C18 C 0.04048 0.82182 0.30971 0.0
C19 C 0.04085 0.80644 0.29069 0.0
C20 C 0.08255 0.80554 0.28301 0.0
C21 C 0.12361 0.82169 0.29425 0.0
H22 H 0.75398 0.77211 0.58558 0.0
H23 H 0.69723 0.80282 0.52903 0.0
H24 H 0.7236 0.66149 0.54214 0.0
N25 N 0.75985 0.68038 0.57828 0.0
N26 N 0.77322 0.64126 0.57243 0.0
C27 C 0.74151 0.76105 0.57105 0.0
C28 C 0.7253 0.79417 0.55809 0.0
C29 C 0.74212 0.71333 0.56529 0.0
C30 C 0.72425 0.69832 0.54667 0.0
C31 C 0.70758 0.73041 0.53371 0.0
C32 C 0.7089 0.77819 0.53936 0.0
H33 H 0.60267 0.32679 0.83612 0.0
H34 H 0.67268 0.31963 0.78739 0.0
H35 H 0.52763 0.28587 0.78118 0.0
N36 N 0.51838 0.3039 0.81782 0.0
N37 N 0.48103 0.29 0.80821 0.0
C38 C 0.60197 0.32005 0.82111 0.0
C39 C 0.64285 0.32538 0.81312 0.0
C40 C 0.55996 0.30644 0.80967 0.0
C41 C 0.55948 0.29679 0.7902 0.0
C42 C 0.59991 0.30224 0.78218 0.0
C43 C 0.64114 0.3168 0.79364 0.0
H44 H 1.00537 0.71285 0.89311 0.0
H45 H 0.04505 0.62476 0.93844 0.0
H46 H 0.09119 0.76683 0.94394 0.0
N47 N 0.04626 0.79004 0.91029 0.0
N48 N 0.06445 0.82505 0.91977 0.0
C49 C 0.02341 0.70797 0.90708 0.0
C50 C 0.02188 0.66446 0.91461 0.0
C51 C 0.04757 0.7455 0.91771 0.0
C52 C 0.07195 0.73844 0.93566 0.0
C53 C 0.071 0.69497 0.94316 0.0
C54 C 0.04531 0.65852 0.93272 0.0
H55 H 0.67739 0.82405 0.15163 0.0
H56 H 0.61461 0.83568 0.20219 0.0
H57 H 0.75997 0.80316 0.20506 0.0
N58 N 0.76283 0.80361 0.1679 0.0
N59 N 0.80109 0.79222 0.17674 0.0
C60 C 0.68027 0.82345 0.16674 0.0
C61 C 0.64088 0.83269 0.17573 0.0
C62 C 0.72346 0.81301 0.17723 0.0
C63 C 0.72697 0.81145 0.19683 0.0
C64 C 0.68797 0.8201 0.20592 0.0
C65 C 0.64531 0.83105 0.1953 0.0
H66 H 0.50861 0.23192 0.39431 0.0
H67 H 0.55034 0.13254 0.4353 0.0
H68 H 0.60082 0.27317 0.44525 0.0
N69 N 0.55556 0.3057 0.41499 0.0
N70 N 0.53434 0.32012 0.40021 0.0
C71 C 0.52816 0.22365 0.40763 0.0
C72 C 0.52635 0.17819 0.41349 0.0
C73 C 0.55475 0.25834 0.41932 0.0
C74 C 0.58043 0.24653 0.43632 0.0
C75 C 0.5789 0.20132 0.44216 0.0
C76 C 0.55136 0.16761 0.43083 0.0
H77 H 0.1938 0.32594 0.65003 0.0
H78 H 0.11977 0.32175 0.69726 0.0
H79 H 0.26675 0.29356 0.70393 0.0
N80 N 0.27708 0.30449 0.66811 0.0
N81 N 0.31633 0.30927 0.67781 0.0
C82 C 0.19374 0.32175 0.66481 0.0
C83 C 0.15201 0.32707 0.67249 0.0
C84 C 0.23559 0.31127 0.67625 0.0
C85 C 0.23514 0.30413 0.6953 0.0
C86 C 0.1932 0.30679 0.70279 0.0
C87 C 0.15225 0.31966 0.69147 0.0
Zn88 Zn 0.25636 0.69087 0.14344 0.0
Zn89 Zn 0.15939 0.79519 0.10187 0.0
Zn90 Zn 0.20581 0.74325 0.11988 0.0
C91 C 0.19061 0.73176 0.07649 0.0
C92 C 0.22513 0.85199 0.11954 0.0
O93 O 0.16804 0.73629 0.14407 0.0
O94 O 0.21356 0.69128 0.16254 0.0
C95 C 0.23577 0.63755 0.10876 0.0
O96 O 0.19495 0.70857 0.0912 0.0
O97 O 0.182 0.77486 0.07799 0.0
O98 O 0.18184 0.85543 0.11454 0.0
O99 O 0.24388 0.81109 0.1202 0.0
O100 O 0.25745 0.63579 0.1252 0.0
O101 O 0.21414 0.67506 0.10376 0.0
O102 O 0.27455 0.7779 0.12872 0.0
O103 O 0.31242 0.73126 0.14882 0.0
C104 C 0.3114 0.76744 0.13995 0.0
O105 O 0.13636 0.75404 0.12985 0.0
O106 O 0.09513 0.77968 0.10453 0.0
C107 C 0.17694 0.71539 0.15938 0.0
C108 C 0.09665 0.76531 0.12066 0.0
Zn109 Zn 0.50923 0.70997 0.33553 0.0
Zn110 Zn 0.60763 0.81145 0.3912 0.0
Zn111 Zn 0.55766 0.75917 0.36448 0.0
C112 C 0.52554 0.85982 0.38274 0.0
C113 C 0.66244 0.8009 0.36329 0.0
O114 O 0.54746 0.68746 0.37344 0.0
O115 O 0.50544 0.65199 0.34837 0.0
C116 C 0.45334 0.78584 0.34507 0.0
O117 O 0.51728 0.82391 0.3709 0.0
O118 O 0.56324 0.86276 0.39397 0.0
O119 O 0.66328 0.82243 0.37923 0.0
O120 O 0.62613 0.77689 0.35584 0.0
O121 O 0.45401 0.75176 0.33299 0.0
O122 O 0.48874 0.79412 0.35794 0.0
O123 O 0.59539 0.75796 0.34009 0.0
O124 O 0.5539 0.71356 0.31738 0.0
C125 C 0.58891 0.73915 0.32312 0.0
O126 O 0.57205 0.71515 0.38846 0.0
O127 O 0.61307 0.76424 0.40959 0.0
C128 C 0.52588 0.65096 0.36504 0.0
C129 C 0.5947 0.72476 0.40501 0.0
Zn130 Zn 0.66843 0.28635 0.6007 0.0
Zn131 Zn 0.77616 0.18652 0.63952 0.0
Zn132 Zn 0.71868 0.23792 0.61801 0.0
C133 C 0.82732 0.26316 0.63325 0.0
C134 C 0.74532 0.1314 0.60621 0.0
O135 O 0.6523 0.2503 0.63042 0.0
O136 O 0.6063 0.26519 0.60446 0.0
C137 C 0.73293 0.34621 0.61721 0.0
O138 O 0.78719 0.27457 0.62455 0.0
O139 O 0.8326 0.22527 0.64101 0.0
O140 O 0.77002 0.12953 0.62208 0.0
O141 O 0.72401 0.16944 0.60167 0.0
O142 O 0.6891 0.34741 0.61353 0.0
O143 O 0.75379 0.30632 0.61714 0.0
O144 O 0.70455 0.20277 0.58936 0.0
O145 O 0.68982 0.26902 0.57635 0.0
C146 C 0.69894 0.22607 0.57467 0.0
O147 O 0.68651 0.22998 0.64335 0.0
O148 O 0.74127 0.1928 0.66129 0.0
C149 C 0.61097 0.25693 0.62153 0.0
C150 C 0.70197 0.21262 0.659 0.0
Zn151 Zn 0.02796 0.1937 0.83743 0.0
Zn152 Zn 0.12863 0.30339 0.88889 0.0
Zn153 Zn 0.0777 0.24737 0.86454 0.0
C154 C 0.1232 0.21865 0.90504 0.0
C155 C 0.04356 0.3471 0.88252 0.0
O156 O 0.11288 0.24291 0.83928 0.0
O157 O 0.07112 0.19367 0.81854 0.0
C158 C 0.04816 0.14021 0.86854 0.0
O159 O 0.09601 0.20751 0.88961 0.0
O160 O 0.14259 0.25803 0.90787 0.0
O161 O 0.08216 0.35188 0.89308 0.0
O162 O 0.03582 0.31095 0.87079 0.0
O163 O 0.02581 0.13853 0.8521 0.0
O164 O 0.07017 0.17771 0.87558 0.0
O165 O 0.00792 0.28039 0.85806 0.0
O166 O 0.97229 0.23494 0.83422 0.0
C167 C 0.97199 0.27041 0.84565 0.0
O168 O 0.14409 0.26521 0.85418 0.0
O169 O 0.17998 0.31768 0.8752 0.0
C170 C 0.10558 0.22071 0.82291 0.0
C171 C 0.17908 0.29255 0.86005 0.0
H172 H 0.29003 0.3496 0.08842 0.0
H173 H 0.16618 0.36573 0.04806 0.0
H174 H 0.29017 0.43273 0.09704 0.0
H175 H 0.16859 0.4495 0.05557 0.0
H176 H 0.15879 0.59161 0.09023 0.0
H177 H 0.15591 0.51002 0.0778 0.0
H178 H 0.30666 0.50462 0.08714 0.0
H179 H 0.30881 0.58499 0.1005 0.0
C180 C 0.26278 0.37074 0.08135 0.0
C181 C 0.22824 0.3505 0.06746 0.0
C182 C 0.26338 0.41887 0.08603 0.0
C183 C 0.22985 0.44846 0.0768 0.0
C184 C 0.19495 0.42815 0.06307 0.0
C185 C 0.19397 0.37991 0.05857 0.0
C186 C 0.19117 0.57317 0.08905 0.0
C187 C 0.234 0.59444 0.09623 0.0
C188 C 0.18966 0.52626 0.08202 0.0
C189 C 0.23108 0.49997 0.08184 0.0
C190 C 0.27395 0.52293 0.08763 0.0
C191 C 0.27533 0.56932 0.09497 0.0
H192 H 0.9467 0.83784 0.34406 0.0
H193 H 0.87992 0.77618 0.29067 0.0
H194 H 0.87283 0.83607 0.35645 0.0
H195 H 0.80546 0.77485 0.3029 0.0
H196 H 0.69583 0.7335 0.33975 0.0
H197 H 0.76782 0.73552 0.32591 0.0
H198 H 0.79643 0.8739 0.3525 0.0
H199 H 0.72449 0.8719 0.36612 0.0
C200 C 0.91613 0.82401 0.33496 0.0
C201 C 0.91877 0.80705 0.31636 0.0
C202 C 0.87372 0.82322 0.34201 0.0
C203 C 0.83315 0.80541 0.33065 0.0
C204 C 0.83608 0.78833 0.31208 0.0
C205 C 0.87848 0.78928 0.30505 0.0
C206 C 0.71709 0.76464 0.3423 0.0
C207 C 0.7042 0.80279 0.35379 0.0
C208 C 0.75841 0.76577 0.33445 0.0
C209 C 0.78806 0.8048 0.33819 0.0
C210 C 0.7748 0.84303 0.34956 0.0
C211 C 0.73346 0.84199 0.35729 0.0
H212 H 0.80535 0.55998 0.56105 0.0
H213 H 0.77127 0.63988 0.61016 0.0
H214 H 0.8136 0.49002 0.57813 0.0
H215 H 0.78088 0.57009 0.62773 0.0
H216 H 0.81821 0.36427 0.60715 0.0
H217 H 0.84657 0.44122 0.60187 0.0
H218 H 0.73046 0.50533 0.62551 0.0
H219 H 0.70365 0.42928 0.63125 0.0
C220 C 0.80124 0.56262 0.57576 0.0
C221 C 0.78715 0.60477 0.58419 0.0
C222 C 0.80634 0.52266 0.58566 0.0
C223 C 0.79741 0.52407 0.60432 0.0
C224 C 0.78724 0.56753 0.61328 0.0
C225 C 0.78191 0.60758 0.60328 0.0
C226 C 0.80014 0.39502 0.61195 0.0
C227 C 0.75833 0.39088 0.61928 0.0
C228 C 0.81599 0.43912 0.60874 0.0
C229 C 0.79019 0.47959 0.61282 0.0
C230 C 0.75146 0.47531 0.62218 0.0
C231 C 0.73575 0.43149 0.62536 0.0
H232 H 0.70408 0.39242 0.80797 0.0
H233 H 0.68587 0.28246 0.84358 0.0
H234 H 0.78729 0.39502 0.82003 0.0
H235 H 0.76934 0.28506 0.85572 0.0
H236 H 0.92562 0.30148 0.87464 0.0
H237 H 0.84452 0.32979 0.87164 0.0
H238 H 0.84056 0.32886 0.81159 0.0
H239 H 0.92024 0.29974 0.81459 0.0
C240 C 0.71767 0.3699 0.81886 0.0
C241 C 0.68871 0.3367 0.82463 0.0
C242 C 0.76528 0.37136 0.82575 0.0
C243 C 0.78495 0.33973 0.83858 0.0
C244 C 0.75515 0.31003 0.8459 0.0
C245 C 0.70733 0.30851 0.83896 0.0
C246 C 0.90765 0.3088 0.86092 0.0
C247 C 0.92887 0.2984 0.84482 0.0
C248 C 0.86129 0.32465 0.85919 0.0
C249 C 0.83616 0.33146 0.84138 0.0
C250 C 0.85902 0.32449 0.82553 0.0
C251 C 0.90464 0.30769 0.82721 0.0
H252 H 0.95234 0.61184 0.92353 0.0
H253 H 0.04183 0.62354 0.88149 0.0
H254 H 0.93248 0.53216 0.91103 0.0
H255 H 0.02354 0.54339 0.86932 0.0
H256 H 0.01295 0.38873 0.91304 0.0
H257 H 0.98552 0.4684 0.91616 0.0
H258 H 0.97546 0.47599 0.85613 0.0
H259 H 1.00319 0.39514 0.85317 0.0
C260 C 0.96646 0.59776 0.91118 0.0
C261 C 0.99898 0.62341 0.90357 0.0
C262 C 0.95533 0.55209 0.90408 0.0
C263 C 0.97725 0.53089 0.88946 0.0
C264 C 1.00578 0.55851 0.88053 0.0
C265 C 0.01645 0.60448 0.88752 0.0
C266 C 1.00268 0.40669 0.90042 0.0
C267 C 0.01038 0.38613 0.88292 0.0
C268 C 0.98685 0.45253 0.90216 0.0
C269 C 0.97901 0.47909 0.88642 0.0
C270 C 0.98181 0.45669 0.86856 0.0
C271 C 0.99715 0.4103 0.86681 0.0
H272 H 0.8088 0.79347 0.13962 0.0
H273 H 0.88427 0.77091 0.19426 0.0
H274 H 0.88049 0.78176 0.12587 0.0
H275 H 0.95664 0.76014 0.18067 0.0
H276 H 0.07075 0.70684 0.14574 0.0
H277 H 0.99794 0.70948 0.15931 0.0
H278 H 0.95127 0.82605 0.12701 0.0
H279 H 0.02357 0.82364 0.11382 0.0
C280 C 0.84079 0.78588 0.14866 0.0
C281 C 0.84142 0.78335 0.16804 0.0
C282 C 0.88189 0.77935 0.14083 0.0
C283 C 0.92437 0.77037 0.15221 0.0
C284 C 0.92449 0.76654 0.1715 0.0
C285 C 0.88332 0.77299 0.1793 0.0
C286 C 0.04517 0.73341 0.14186 0.0
C287 C 0.05313 0.76548 0.129 0.0
C288 C 1.00337 0.73474 0.14948 0.0
C289 C 0.96866 0.76783 0.14414 0.0
C290 C 0.97678 0.79956 0.13116 0.0
C291 C 0.01838 0.79831 0.12367 0.0
H292 H 0.57246 0.39295 0.42386 0.0
H293 H 0.49729 0.35613 0.36869 0.0
H294 H 0.56948 0.47517 0.41742 0.0
H295 H 0.49541 0.43806 0.36188 0.0
H296 H 0.45628 0.58767 0.36002 0.0
H297 H 0.45854 0.50891 0.37002 0.0
H298 H 0.59823 0.53279 0.39936 0.0
H299 H 0.59518 0.61269 0.38962 0.0
C300 C 0.55559 0.40244 0.41027 0.0
C301 C 0.53486 0.36816 0.39668 0.0
C302 C 0.55407 0.44961 0.40655 0.0
C303 C 0.53185 0.46359 0.38919 0.0
C304 C 0.5119 0.42895 0.37558 0.0
C305 C 0.51324 0.38194 0.37935 0.0
C306 C 0.48724 0.57637 0.36886 0.0
C307 C 0.52558 0.60637 0.37402 0.0
C308 C 0.48875 0.53095 0.37444 0.0
C309 C 0.52897 0.51385 0.38514 0.0
C310 C 0.5666 0.54469 0.39116 0.0
C311 C 0.56485 0.5906 0.38568 0.0
H312 H 0.11235 0.27743 0.64051 0.0
H313 H 0.08874 0.39491 0.67879 0.0
H314 H 0.02995 0.27754 0.6271 0.0
H315 H 1.00654 0.39599 0.66514 0.0
H316 H 0.86959 0.31006 0.66464 0.0
H317 H 0.9487 0.34035 0.66996 0.0
H318 H 0.9583 0.31168 0.611 0.0
H319 H 0.87837 0.28101 0.60585 0.0
C320 C 0.08988 0.30451 0.64549 0.0
C321 C 0.10665 0.33577 0.66082 0.0
C322 C 0.0426 0.30469 0.6378 0.0
C323 C 0.01138 0.33628 0.64529 0.0
C324 C 0.02942 0.3706 0.65932 0.0
C325 C 0.07649 0.37018 0.66707 0.0
C326 C 0.88801 0.31208 0.65272 0.0
C327 C 0.86807 0.29375 0.63485 0.0
C328 C 0.9334 0.32947 0.65571 0.0
C329 C 0.96013 0.32821 0.64091 0.0
C330 C 0.93879 0.31281 0.62271 0.0
C331 C 0.89299 0.29575 0.6197 0.0
H332 H 0.39858 0.34894 0.6896 0.0
H333 H 0.32812 0.24588 0.64923 0.0
H334 H 0.47103 0.33385 0.67675 0.0
H335 H 0.40082 0.22728 0.63726 0.0
H336 H 0.52193 0.23946 0.60532 0.0
H337 H 0.45137 0.25137 0.61917 0.0
H338 H 0.53414 0.28839 0.67318 0.0
H339 H 0.60452 0.28192 0.6584 0.0
C340 C 0.39902 0.32273 0.67802 0.0
C341 C 0.35795 0.29941 0.6701 0.0
C342 C 0.44062 0.31346 0.67077 0.0
C343 C 0.44236 0.27933 0.65577 0.0
C344 C 0.40106 0.25484 0.64835 0.0
C345 C 0.35924 0.26524 0.65524 0.0
C346 C 0.52502 0.24986 0.62019 0.0
C347 C 0.56895 0.25831 0.63094 0.0
C348 C 0.48436 0.25624 0.62827 0.0
C349 C 0.48635 0.27047 0.64748 0.0
C350 C 0.53065 0.27792 0.65832 0.0
C351 C 0.57135 0.2728 0.65004 0.0
H352 H 0.59828 0.78181 0.1444 0.0
H353 H 0.57645 0.89864 0.18337 0.0
H354 H 0.51491 0.78044 0.13241 0.0
H355 H 0.49313 0.89709 0.17148 0.0
H356 H 0.35983 0.80406 0.17243 0.0
H357 H 0.43934 0.83381 0.17725 0.0
H358 H 0.44073 0.82019 0.11734 0.0
H359 H 0.36027 0.7908 0.11259 0.0
C360 C 0.57598 0.80828 0.14991 0.0
C361 C 0.59373 0.83979 0.16505 0.0
C362 C 0.52818 0.80751 0.14305 0.0
C363 C 0.49739 0.8382 0.15123 0.0
C364 C 0.51592 0.87257 0.16511 0.0
C365 C 0.56358 0.87343 0.17191 0.0
C366 C 0.3766 0.80906 0.16028 0.0
C367 C 0.35404 0.7957 0.14216 0.0
C368 C 0.42209 0.82615 0.16299 0.0
C369 C 0.44636 0.82928 0.14766 0.0
C370 C 0.42287 0.81811 0.1294 0.0
C371 C 0.37683 0.80174 0.12667 0.0
H372 H 0.40144 0.25626 0.78985 0.0
H373 H 0.4642 0.32196 0.84314 0.0
H374 H 0.32549 0.2567 0.801 0.0
H375 H 0.38873 0.32226 0.8544 0.0
H376 H 0.23967 0.36386 0.86038 0.0
H377 H 0.31265 0.36249 0.8474 0.0
H378 H 0.28545 0.22049 0.82481 0.0
H379 H 0.21256 0.22164 0.83813 0.0
C380 C 0.39882 0.27041 0.804 0.0
C381 C 0.43837 0.28889 0.81561 0.0
C382 C 0.35559 0.27058 0.81039 0.0
C383 C 0.3511 0.28971 0.82854 0.0
C384 C 0.39097 0.30785 0.84025 0.0
C385 C 0.43425 0.30739 0.83388 0.0
C386 C 0.24904 0.33247 0.85249 0.0
C387 C 0.22009 0.29302 0.85008 0.0
C388 C 0.29098 0.33161 0.84516 0.0
C389 C 0.30503 0.29126 0.83524 0.0
C390 C 0.2754 0.25222 0.83229 0.0
C391 C 0.23351 0.25296 0.83979 0.0
H392 H 0.1842 0.90336 0.3066 0.0
H393 H 0.16751 0.79824 0.3445 0.0
H394 H 0.26742 0.90785 0.31857 0.0
H395 H 0.25109 0.8021 0.35637 0.0
H396 H 0.40169 0.81606 0.31417 0.0
H397 H 0.32199 0.84465 0.31119 0.0
H398 H 0.32587 0.84483 0.37123 0.0
H399 H 0.40697 0.8166 0.37417 0.0
C400 C 0.19815 0.88244 0.31799 0.0
C401 C 0.16962 0.85015 0.32452 0.0
C402 C 0.24581 0.88482 0.32478 0.0
C403 C 0.26603 0.85471 0.33816 0.0
C404 C 0.23659 0.82593 0.34612 0.0
C405 C 0.18869 0.82368 0.33935 0.0
C406 C 0.38607 0.8237 0.3268 0.0
C407 C 0.41031 0.81404 0.34437 0.0
C408 C 0.34038 0.84026 0.32513 0.0
C409 C 0.31739 0.84684 0.34097 0.0
C410 C 0.34262 0.83991 0.35877 0.0
C411 C 0.38903 0.82414 0.36048 0.0
H412 H 0.79083 0.84297 0.58332 0.0
H413 H 0.66242 0.86197 0.54584 0.0
H414 H 0.79355 0.92589 0.59223 0.0
H415 H 0.66724 0.94567 0.55361 0.0
H416 H 0.66533 0.08722 0.58959 0.0
H417 H 0.65909 1.00596 0.57671 0.0
H418 H 0.80946 0.99749 0.58195 0.0
H419 H 0.81513 0.0774 0.5958 0.0
C420 C 0.76311 0.86471 0.57694 0.0
C421 C 0.72647 0.84532 0.5638 0.0
C422 C 0.76516 0.91272 0.58177 0.0
C423 C 0.73104 0.94307 0.57343 0.0
C424 C 0.69412 0.92367 0.56041 0.0
C425 C 0.69173 0.87549 0.55576 0.0
C426 C 0.69681 0.06814 0.58746 0.0
C427 C 0.74068 0.08832 0.59365 0.0
C428 C 0.69338 0.02146 0.58015 0.0
C429 C 0.73385 0.99442 0.57869 0.0
C430 C 0.77754 0.01638 0.58346 0.0
C431 C 0.78088 0.06249 0.59109 0.0
H432 H 0.30712 0.06471 0.06547 0.0
H433 H 0.27097 0.14453 0.11422 0.0
H434 H 0.31277 0.99439 0.08225 0.0
H435 H 0.27831 0.07438 0.13161 0.0
H436 H 0.19922 0.93494 0.13479 0.0
H437 H 0.22825 1.0105 0.12963 0.0
H438 H 0.34227 0.94398 0.10531 0.0
H439 H 0.31117 0.86766 0.10977 0.0
C440 C 0.302 0.06721 0.08007 0.0
C441 C 0.28807 0.1095 0.08844 0.0
C442 C 0.30561 0.02701 0.08982 0.0
C443 C 0.29547 0.02826 0.10832 0.0
C444 C 0.28548 0.07182 0.11727 0.0
C445 C 0.28149 0.11212 0.10738 0.0
C446 C 0.23141 0.93651 0.12891 0.0
C447 C 0.25259 0.89547 0.12242 0.0
C448 C 0.24839 0.98006 0.12604 0.0
C449 C 0.2871 0.98366 0.1166 0.0
C450 C 0.31166 0.94254 0.1122 0.0
C451 C 0.29439 0.89873 0.11502 0.0
H452 H 0.44973 0.13338 0.42044 0.0
H453 H 0.54763 0.1348 0.38107 0.0
H454 H 0.42505 0.0549 0.40786 0.0
H455 H 0.52439 0.0558 0.36881 0.0
H456 H 0.49331 0.90897 0.35264 0.0
H457 H 0.47225 0.9919 0.35473 0.0
H458 H 0.4721 0.98723 0.41441 0.0
H459 H 0.49309 0.90541 0.41216 0.0
C460 C 0.46451 0.1175 0.40854 0.0
C461 C 0.50056 0.13987 0.40171 0.0
C462 C 0.45074 0.07243 0.40144 0.0
C463 C 0.47343 0.04851 0.3876 0.0
C464 C 0.50589 0.07307 0.37937 0.0
C465 C 0.51932 0.11842 0.38638 0.0
C466 C 0.48636 0.92535 0.36597 0.0
C467 C 0.49493 0.90109 0.38227 0.0
C468 C 0.47489 0.97294 0.36723 0.0
C469 C 0.47124 0.99659 0.38479 0.0
C470 C 0.47425 0.97045 0.40062 0.0
C471 C 0.48628 0.92334 0.39938 0.0
H472 H 0.02737 0.8493 0.88489 0.0
H473 H 0.09796 0.90251 0.93896 0.0
H474 H 0.02424 0.92764 0.87407 0.0
H475 H 0.0939 0.98165 0.92841 0.0
H476 H 0.11884 0.10824 0.89424 0.0
H477 H 0.12349 0.03208 0.90742 0.0
H478 H 0.98465 0.99981 0.87884 0.0
H479 H 0.98053 0.07509 0.8656 0.0
C480 C 0.04209 0.87788 0.89448 0.0
C481 C 0.06284 0.87008 0.91283 0.0
C482 C 0.04004 0.92292 0.88836 0.0
C483 C 0.05841 0.96124 0.90043 0.0
C484 C 0.07973 0.95307 0.91868 0.0
C485 C 0.08188 0.90793 0.92477 0.0
C486 C 0.08899 0.08526 0.8912 0.0
C487 C 0.04933 0.09768 0.87892 0.0
C488 C 0.09169 0.04147 0.89863 0.0
C489 C 0.05472 1.00934 0.89393 0.0
C490 C 0.0143 0.02298 0.88236 0.0
C491 C 0.01176 0.06638 0.8749 0.0
H492 H 0.24864 0.26544 0.00668 0.0
H493 H 0.15162 0.1689 0.02265 0.0
H494 H 0.22498 0.23953 0.97373 0.0
H495 H 0.12734 0.14304 0.98941 0.0
H496 H 0.0614 0.19773 0.92779 0.0
H497 H 0.08495 0.18712 0.96116 0.0
H498 H 0.22726 0.16595 0.9514 0.0
H499 H 0.20363 0.17714 0.9182 0.0
C500 C 0.22232 0.23856 0.00308 0.0
C501 C 0.20176 0.21932 0.01711 0.0
C502 C 0.20918 0.22325 0.98428 0.0
C503 C 0.1748 0.18873 0.97906 0.0
C504 C 0.15419 0.16935 -0.00691 0.0
C505 C 0.16799 0.18416 0.01201 0.0
C506 C 0.09707 0.18778 0.93261 0.0
C507 C 0.13085 0.18842 0.9206 0.0
C508 C 0.11068 0.18211 0.95173 0.0
C509 C 0.15814 0.17708 0.95887 0.0
C510 C 0.19059 0.17062 0.94626 0.0
C511 C 0.177 0.17639 0.92724 0.0
H512 H 0.14422 0.74177 0.27185 0.0
H513 H 0.02592 0.82461 0.25042 0.0
H514 H 0.15503 0.71537 0.2401 0.0
H515 H 0.03588 0.79692 0.2182 0.0
H516 H 0.15971 0.65328 0.1839 0.0
H517 H 0.12402 0.66909 0.21224 0.0
H518 H 0.0934 0.80995 0.19729 0.0
H519 H 0.12785 0.79339 0.16857 0.0
C520 C 0.12012 0.75387 0.26027 0.0
C521 C 0.08466 0.78572 0.26358 0.0
C522 C 0.1259 0.73826 0.24203 0.0
C523 C 0.09624 0.75392 0.22655 0.0
C524 C 0.05949 0.78447 0.22983 0.0
C525 C 0.05358 0.80005 0.24823 0.0
C526 C 0.14435 0.68726 0.18648 0.0
C527 C 0.14707 0.72231 0.17423 0.0
C528 C 0.12406 0.69641 0.20273 0.0
C529 C 0.10689 0.74113 0.20727 0.0
C530 C 0.10622 0.77511 0.19422 0.0
C531 C 0.12613 0.76573 0.1778 0.0
H532 H 0.73765 0.75574 0.50217 0.0
H533 H 0.6378 0.66779 0.52129 0.0
H534 H 0.70725 0.73061 0.46965 0.0
H535 H 0.60649 0.64303 0.48852 0.0
H536 H 0.53549 0.70874 0.42934 0.0
H537 H 0.56355 0.69326 0.46187 0.0
H538 H 0.69838 0.6559 0.44669 0.0
H539 H 0.67007 0.67141 0.41421 0.0
C540 C 0.70933 0.73081 0.49934 0.0
C541 C 0.68981 0.71388 0.51411 0.0
C542 C 0.69231 0.71592 0.48079 0.0
C543 C 0.65494 0.68432 0.47661 0.0
C544 C 0.6356 0.66701 0.4914 0.0
C545 C 0.65334 0.68125 0.51005 0.0
C546 C 0.57001 0.69401 0.43273 0.0
C547 C 0.60075 0.69128 0.41941 0.0
C548 C 0.58628 0.68557 0.45139 0.0
C549 C 0.63347 0.67462 0.4568 0.0
C550 C 0.66201 0.66492 0.44287 0.0
C551 C 0.64565 0.67316 0.42424 0.0
H552 H 0.57793 0.2201 0.76144 0.0
H553 H 0.62427 0.36033 0.75754 0.0
H554 H 0.59526 0.19835 0.72968 0.0
H555 H 0.64008 0.33942 0.7257 0.0
H556 H 0.73759 0.26851 0.68858 0.0
H557 H 0.7035 0.29163 0.71666 0.0
H558 H 0.58192 0.20771 0.69514 0.0
H559 H 0.61738 0.18366 0.66687 0.0
C560 C 0.59041 0.24653 0.75351 0.0
C561 C 0.60045 0.29164 0.76188 0.0
C562 C 0.60023 0.23418 0.73536 0.0
C563 C 0.61995 0.26694 0.72536 0.0
C564 C 0.62603 0.3131 0.73324 0.0
C565 C 0.61678 0.3252 0.75138 0.0
C566 C 0.70356 0.25507 0.68988 0.0
C567 C 0.67973 0.22486 0.67566 0.0
C568 C 0.68375 0.26866 0.70583 0.0
C569 C 0.63954 0.25227 0.70797 0.0
C570 C 0.61596 0.22101 0.69384 0.0
C571 C 0.63604 0.20733 0.67773 0.0
H572 H 0.1631 0.71057 0.95566 0.0
H573 H 0.03706 0.6619 0.97278 0.0
H574 H 0.20474 0.7031 0.98723 0.0
H575 H 0.07758 0.65673 0.00463 0.0
H576 H 0.15422 0.64721 0.06134 0.0
H577 H 0.13386 0.62502 0.02766 0.0
H578 H 0.2047 0.74787 0.01535 0.0
H579 H 0.22594 0.76838 0.04853 0.0
C580 C 0.14441 0.69828 0.96625 0.0
C581 C 0.09682 0.68755 0.96196 0.0
C582 C 0.16816 0.69394 0.98434 0.0
C583 C 0.14451 0.67987 -0.00135 0.0
C584 C 0.09727 0.66703 -0.00599 0.0
C585 C 0.0738 0.67052 0.97581 0.0
C586 C 0.16705 0.66806 0.05134 0.0
C587 C 0.19112 0.70972 0.05744 0.0
C588 C 0.15484 0.65587 0.03206 0.0
C589 C 0.16667 0.68518 0.01869 0.0
C590 C 0.19503 0.72413 0.02504 0.0
C591 C 0.20712 0.73615 0.04415 0.0
H592 H 0.72999 0.74949 0.22546 0.0
H593 H 0.65025 0.87595 0.23212 0.0
H594 H 0.72136 0.73168 0.25726 0.0
H595 H 0.64012 0.85736 0.26357 0.0
H596 H 0.63206 0.8218 0.32121 0.0
H597 H 0.67239 0.84437 0.29589 0.0
H598 H 0.65149 0.70571 0.26851 0.0
H599 H 0.61284 0.68296 0.29412 0.0
C600 C 0.71161 0.77406 0.23388 0.0
C601 C 0.69018 0.81378 0.22622 0.0
C602 C 0.70634 0.76365 0.25202 0.0
C603 C 0.67955 0.79275 0.26283 0.0
C604 C 0.66123 0.83432 0.25568 0.0
C605 C 0.66652 0.84472 0.23757 0.0
C606 C 0.63758 0.79581 0.31008 0.0
C607 C 0.61961 0.7506 0.30961 0.0
C608 C 0.66028 0.80881 0.29552 0.0
C609 C 0.66487 0.77694 0.28013 0.0
C610 C 0.64912 0.73096 0.28025 0.0
C611 C 0.62655 0.718 0.29482 0.0
H612 H 0.67187 0.21189 0.45424 0.0
H613 H 0.54491 0.16432 0.47094 0.0
H614 H 0.71382 0.20011 0.48542 0.0
H615 H 0.58575 0.15496 0.50245 0.0
H616 H 0.66148 0.14231 0.55903 0.0
H617 H 0.6413 0.12139 0.52522 0.0
H618 H 0.71454 0.24367 0.51384 0.0
H619 H 0.7354 0.26295 0.54711 0.0
C620 C 0.6531 0.19871 0.46464 0.0
C621 C 0.60515 0.18973 0.46039 0.0
C622 C 0.67699 0.19196 0.48249 0.0
C623 C 0.65314 0.1773 0.49665 0.0
C624 C 0.60558 0.16574 0.49195 0.0
C625 C 0.58194 0.17158 0.47395 0.0
C626 C 0.67484 0.16328 0.54919 0.0
C627 C 0.69945 0.20447 0.55556 0.0
C628 C 0.66278 0.1518 0.52984 0.0
C629 C 0.67536 0.18136 0.5167 0.0
C630 C 0.70429 0.21973 0.52333 0.0
C631 C 0.71616 0.23106 0.5425 0.0
H632 H 0.24762 0.3334 0.7364 0.0
H633 H 0.13274 0.24433 0.71155 0.0
H634 H 0.23882 0.309 0.76763 0.0
H635 H 0.12357 0.22065 0.74231 0.0
H636 H 0.12968 0.15888 0.7957 0.0
H637 H 0.16275 0.17653 0.76789 0.0
H638 H 0.17698 0.32107 0.78894 0.0
H639 H 0.14425 0.30315 0.81689 0.0
C640 C 0.22084 0.30841 0.73763 0.0
C641 C 0.19046 0.29116 0.72166 0.0
C642 C 0.21572 0.2946 0.75543 0.0
C643 C 0.18069 0.26272 0.7574 0.0
C644 C 0.15138 0.24465 0.74128 0.0
C645 C 0.1562 0.25869 0.72366 0.0
C646 C 0.14095 0.19417 0.79457 0.0
C647 C 0.13427 0.22969 0.80835 0.0
C648 C 0.15977 0.20431 0.77867 0.0
C649 C 0.17169 0.25033 0.7761 0.0
C650 C 0.16834 0.28525 0.79057 0.0
C651 C 0.14957 0.27502 0.80655 0.0
loop_
_geom_bond_atom_site_label_1
_geom_bond_atom_site_label_2
_geom_bond_distance
_geom_bond_site_symmetry_2
_ccdc_geom_bond_type
H0 C5 0.929 . S
H1 C10 0.931 . S
H2 C8 0.930 . S
N3 N4 1.234 . S
N3 C7 1.453 . S
N4 N3 1.234 . S
C5 H0 0.929 . S
C5 C6 1.373 . S
C5 C7 1.368 . S
C6 C5 1.373 . S
C6 C10 1.397 . S
C7 N3 1.453 . S
C7 C5 1.368 . S
C7 C8 1.373 . S
C8 H2 0.930 . S
C8 C7 1.373 . S
C8 C9 1.371 . S
C9 C8 1.371 . S
C9 C10 1.383 . S
C10 H1 0.931 . S
C10 C6 1.397 . S
C10 C9 1.383 . S
H11 C16 0.929 . S
H12 C21 0.931 . S
H13 C19 0.930 . S
N14 N15 1.234 . S
N14 C18 1.453 . S
N15 N14 1.234 . S
C16 H11 0.929 . S
C16 C17 1.373 . S
C16 C18 1.368 . S
C17 C16 1.373 . S
C17 C21 1.397 . S
C18 N14 1.453 . S
C18 C16 1.368 . S
C18 C19 1.373 . S
C19 H13 0.930 . S
C19 C18 1.373 . S
C19 C20 1.371 . S
C20 C19 1.371 . S
C20 C21 1.383 . S
C21 H12 0.931 . S
C21 C17 1.397 . S
C21 C20 1.383 . S
H22 C27 0.929 . S
H23 C32 0.931 . S
H24 C30 0.930 . S
N25 N26 1.234 . S
N25 C29 1.453 . S
N26 N25 1.234 . S
C27 H22 0.929 . S
C27 C28 1.373 . S
C27 C29 1.368 . S
C28 C27 1.373 . S
C28 C32 1.397 . S
C29 N25 1.453 . S
C29 C27 1.368 . S
C29 C30 1.373 . S
C30 H24 0.930 . S
C30 C29 1.373 . S
C30 C31 1.371 . S
C31 C30 1.371 . S
C31 C32 1.383 . S
C32 H23 0.931 . S
C32 C28 1.397 . S
C32 C31 1.383 . S
H33 C38 0.929 . S
H34 C43 0.931 . S
H35 C41 0.930 . S
N36 N37 1.234 . S
N36 C40 1.453 . S
N37 N36 1.234 . S
C38 H33 0.929 . S
C38 C39 1.373 . S
C38 C40 1.368 . S
C39 C38 1.373 . S
C39 C43 1.397 . S
C40 N36 1.453 . S
C40 C38 1.368 . S
C40 C41 1.373 . S
C41 H35 0.930 . S
C41 C40 1.373 . S
C41 C42 1.371 . S
C42 C41 1.371 . S
C42 C43 1.383 . S
C43 H34 0.931 . S
C43 C39 1.397 . S
C43 C42 1.383 . S
H44 C49 0.929 . S
H45 C54 0.931 . S
H46 C52 0.930 . S
N47 N48 1.234 . S
N47 C51 1.453 . S
N48 N47 1.234 . S
C49 H44 0.929 . S
C49 C50 1.373 . S
C49 C51 1.368 . S
C50 C49 1.373 . S
C50 C54 1.397 . S
C51 N47 1.453 . S
C51 C49 1.368 . S
C51 C52 1.373 . S
C52 H46 0.930 . S
C52 C51 1.373 . S
C52 C53 1.371 . S
C53 C52 1.371 . S
C53 C54 1.383 . S
C54 H45 0.931 . S
C54 C50 1.397 . S
C54 C53 1.383 . S
H55 C60 0.929 . S
H56 C65 0.931 . S
H57 C63 0.930 . S
N58 N59 1.234 . S
N58 C62 1.453 . S
N59 N58 1.234 . S
C60 H55 0.929 . S
C60 C61 1.373 . S
C60 C62 1.368 . S
C61 C60 1.373 . S
C61 C65 1.397 . S
C62 N58 1.453 . S
C62 C60 1.368 . S
C62 C63 1.373 . S
C63 H57 0.930 . S
C63 C62 1.373 . S
C63 C64 1.371 . S
C64 C63 1.371 . S
C64 C65 1.383 . S
C65 H56 0.931 . S
C65 C61 1.397 . S
C65 C64 1.383 . S
H66 C71 0.929 . S
H67 C76 0.931 . S
H68 C74 0.930 . S
N69 N70 1.234 . S
N69 C73 1.453 . S
N70 N69 1.234 . S
C71 H66 0.929 . S
C71 C72 1.373 . S
C71 C73 1.368 . S
C72 C71 1.373 . S
C72 C76 1.397 . S
C73 N69 1.453 . S
C73 C71 1.368 . S
C73 C74 1.373 . S
C74 H68 0.930 . S
C74 C73 1.373 . S
C74 C75 1.371 . S
C75 C74 1.371 . S
C75 C76 1.383 . S
C76 H67 0.931 . S
C76 C72 1.397 . S
C76 C75 1.383 . S
H77 C82 0.929 . S
H78 C87 0.931 . S
H79 C85 0.930 . S
N80 N81 1.234 . S
N80 C84 1.453 . S
N81 N80 1.234 . S
C82 H77 0.929 . S
C82 C83 1.373 . S
C82 C84 1.368 . S
C83 C82 1.373 . S
C83 C87 1.397 . S
C84 N80 1.453 . S
C84 C82 1.368 . S
C84 C85 1.373 . S
C85 H79 0.930 . S
C85 C84 1.373 . S
C85 C86 1.371 . S
C86 C85 1.371 . S
C86 C87 1.383 . S
C87 H78 0.931 . S
C87 C83 1.397 . S
C87 C86 1.383 . S
Zn88 O94 1.920 . S
Zn88 O100 1.898 . S
Zn88 O103 1.905 . S
Zn89 O97 1.905 . S
Zn89 O98 1.898 . S
Zn89 O106 1.920 . S
Zn90 O93 2.080 . S
Zn90 O96 2.114 . S
Zn90 O99 2.120 . S
Zn90 O101 2.120 . S
Zn90 O102 2.114 . S
Zn90 O105 2.080 . S
C91 O96 1.166 . S
C91 O97 1.182 . S
C92 O98 1.167 . S
C92 O99 1.299 . S
O93 Zn90 2.080 . S
O93 C107 1.305 . S
O94 Zn88 1.920 . S
O94 C107 1.234 . S
C95 O100 1.167 . S
C95 O101 1.299 . S
O96 Zn90 2.114 . S
O96 C91 1.166 . S
O97 Zn89 1.905 . S
O97 C91 1.182 . S
O98 Zn89 1.898 . S
O98 C92 1.167 . S
O99 Zn90 2.120 . S
O99 C92 1.299 . S
O100 Zn88 1.898 . S
O100 C95 1.167 . S
O101 Zn90 2.120 . S
O101 C95 1.299 . S
O102 Zn90 2.114 . S
O102 C104 1.166 . S
O103 Zn88 1.905 . S
O103 C104 1.182 . S
C104 O102 1.166 . S
C104 O103 1.182 . S
O105 Zn90 2.080 . S
O105 C108 1.305 . S
O106 Zn89 1.920 . S
O106 C108 1.234 . S
C107 O93 1.305 . S
C107 O94 1.234 . S
C108 O105 1.305 . S
C108 O106 1.234 . S
Zn109 O115 1.920 . S
Zn109 O121 1.898 . S
Zn109 O124 1.905 . S
Zn110 O118 1.905 . S
Zn110 O119 1.898 . S
Zn110 O127 1.920 . S
Zn111 O114 2.080 . S
Zn111 O117 2.114 . S
Zn111 O120 2.120 . S
Zn111 O122 2.120 . S
Zn111 O123 2.114 . S
Zn111 O126 2.080 . S
C112 O117 1.166 . S
C112 O118 1.182 . S
C113 O119 1.167 . S
C113 O120 1.299 . S
O114 Zn111 2.080 . S
O114 C128 1.305 . S
O115 Zn109 1.920 . S
O115 C128 1.234 . S
C116 O121 1.167 . S
C116 O122 1.299 . S
O117 Zn111 2.114 . S
O117 C112 1.166 . S
O118 Zn110 1.905 . S
O118 C112 1.182 . S
O119 Zn110 1.898 . S
O119 C113 1.167 . S
O120 Zn111 2.120 . S
O120 C113 1.299 . S
O121 Zn109 1.898 . S
O121 C116 1.167 . S
O122 Zn111 2.120 . S
O122 C116 1.299 . S
O123 Zn111 2.114 . S
O123 C125 1.166 . S
O124 Zn109 1.905 . S
O124 C125 1.182 . S
C125 O123 1.166 . S
C125 O124 1.182 . S
O126 Zn111 2.080 . S
O126 C129 1.305 . S
O127 Zn110 1.920 . S
O127 C129 1.234 . S
C128 O114 1.305 . S
C128 O115 1.234 . S
C129 O126 1.305 . S
C129 O127 1.234 . S
Zn130 O136 1.920 . S
Zn130 O142 1.898 . S
Zn130 O145 1.905 . S
Zn131 O139 1.905 . S
Zn131 O140 1.898 . S
Zn131 O148 1.920 . S
Zn132 O135 2.080 . S
Zn132 O138 2.114 . S
Zn132 O141 2.120 . S
Zn132 O143 2.120 . S
Zn132 O144 2.114 . S
Zn132 O147 2.080 . S
C133 O138 1.166 . S
C133 O139 1.182 . S
C134 O140 1.167 . S
C134 O141 1.299 . S
O135 Zn132 2.080 . S
O135 C149 1.305 . S
O136 Zn130 1.920 . S
O136 C149 1.234 . S
C137 O142 1.167 . S
C137 O143 1.299 . S
O138 Zn132 2.114 . S
O138 C133 1.166 . S
O139 Zn131 1.905 . S
O139 C133 1.182 . S
O140 Zn131 1.898 . S
O140 C134 1.167 . S
O141 Zn132 2.120 . S
O141 C134 1.299 . S
O142 Zn130 1.898 . S
O142 C137 1.167 . S
O143 Zn132 2.120 . S
O143 C137 1.299 . S
O144 Zn132 2.114 . S
O144 C146 1.166 . S
O145 Zn130 1.905 . S
O145 C146 1.182 . S
C146 O144 1.166 . S
C146 O145 1.182 . S
O147 Zn132 2.080 . S
O147 C150 1.305 . S
O148 Zn131 1.920 . S
O148 C150 1.234 . S
C149 O135 1.305 . S
C149 O136 1.234 . S
C150 O147 1.305 . S
C150 O148 1.234 . S
Zn151 O157 1.920 . S
Zn151 O163 1.898 . S
Zn151 O166 1.905 1_455 S
Zn152 O160 1.905 . S
Zn152 O161 1.898 . S
Zn152 O169 1.920 . S
Zn153 O156 2.080 . S
Zn153 O159 2.114 . S
Zn153 O162 2.120 . S
Zn153 O164 2.120 . S
Zn153 O165 2.114 . S
Zn153 O168 2.080 . S
C154 O159 1.166 . S
C154 O160 1.182 . S
C155 O161 1.167 . S
C155 O162 1.299 . S
O156 Zn153 2.080 . S
O156 C170 1.305 . S
O157 Zn151 1.920 . S
O157 C170 1.234 . S
C158 O163 1.167 . S
C158 O164 1.299 . S
O159 Zn153 2.114 . S
O159 C154 1.166 . S
O160 Zn152 1.905 . S
O160 C154 1.182 . S
O161 Zn152 1.898 . S
O161 C155 1.167 . S
O162 Zn153 2.120 . S
O162 C155 1.299 . S
O163 Zn151 1.898 . S
O163 C158 1.167 . S
O164 Zn153 2.120 . S
O164 C158 1.299 . S
O165 Zn153 2.114 . S
O165 C167 1.166 . S
O166 Zn151 1.905 1_655 S
O166 C167 1.182 1_655 S
C167 O165 1.166 . S
C167 O166 1.182 1_455 S
O168 Zn153 2.080 . S
O168 C171 1.305 . S
O169 Zn152 1.920 . S
O169 C171 1.234 . S
C170 O156 1.305 . S
C170 O157 1.234 . S
C171 O168 1.305 . S
C171 O169 1.234 . S
H172 C180 0.950 . S
H173 C185 0.950 . S
H174 C182 0.950 . S
H175 C184 0.950 . S
H176 C186 0.950 . S
H177 C188 0.950 . S
H178 C190 0.950 . S
H179 C191 0.950 . S
C180 H172 0.950 . S
C180 C181 1.386 . S
C180 C182 1.391 . S
C181 C180 1.386 . S
C181 C185 1.393 . S
C182 H174 0.950 . S
C182 C180 1.391 . S
C182 C183 1.400 . S
C183 C182 1.400 . S
C183 C184 1.398 . S
C183 C189 1.491 . S
C184 H175 0.950 . S
C184 C183 1.398 . S
C184 C185 1.391 . S
C185 H173 0.950 . S
C185 C181 1.393 . S
C185 C184 1.391 . S
C186 H176 0.950 . S
C186 C187 1.386 . S
C186 C188 1.391 . S
C187 C186 1.386 . S
C187 C191 1.393 . S
C188 H177 0.950 . S
C188 C186 1.391 . S
C188 C189 1.400 . S
C189 C183 1.491 . S
C189 C188 1.400 . S
C189 C190 1.398 . S
C190 H178 0.950 . S
C190 C189 1.398 . S
C190 C191 1.391 . S
C191 H179 0.950 . S
C191 C187 1.393 . S
C191 C190 1.391 . S
H192 C200 0.950 . S
H193 C205 0.950 . S
H194 C202 0.950 . S
H195 C204 0.950 . S
H196 C206 0.950 . S
H197 C208 0.950 . S
H198 C210 0.950 . S
H199 C211 0.950 . S
C200 H192 0.950 . S
C200 C201 1.386 . S
C200 C202 1.391 . S
C201 C200 1.386 . S
C201 C205 1.393 . S
C202 H194 0.950 . S
C202 C200 1.391 . S
C202 C203 1.400 . S
C203 C202 1.400 . S
C203 C204 1.398 . S
C203 C209 1.491 . S
C204 H195 0.950 . S
C204 C203 1.398 . S
C204 C205 1.391 . S
C205 H193 0.950 . S
C205 C201 1.393 . S
C205 C204 1.391 . S
C206 H196 0.950 . S
C206 C207 1.386 . S
C206 C208 1.391 . S
C207 C206 1.386 . S
C207 C211 1.393 . S
C208 H197 0.950 . S
C208 C206 1.391 . S
C208 C209 1.400 . S
C209 C203 1.491 . S
C209 C208 1.400 . S
C209 C210 1.398 . S
C210 H198 0.950 . S
C210 C209 1.398 . S
C210 C211 1.391 . S
C211 H199 0.950 . S
C211 C207 1.393 . S
C211 C210 1.391 . S
H212 C220 0.950 . S
H213 C225 0.950 . S
H214 C222 0.950 . S
H215 C224 0.950 . S
H216 C226 0.950 . S
H217 C228 0.950 . S
H218 C230 0.950 . S
H219 C231 0.950 . S
C220 H212 0.950 . S
C220 C221 1.386 . S
C220 C222 1.391 . S
C221 C220 1.386 . S
C221 C225 1.393 . S
C222 H214 0.950 . S
C222 C220 1.391 . S
C222 C223 1.400 . S
C223 C222 1.400 . S
C223 C224 1.398 . S
C223 C229 1.491 . S
C224 H215 0.950 . S
C224 C223 1.398 . S
C224 C225 1.391 . S
C225 H213 0.950 . S
C225 C221 1.393 . S
C225 C224 1.391 . S
C226 H216 0.950 . S
C226 C227 1.386 . S
C226 C228 1.391 . S
C227 C226 1.386 . S
C227 C231 1.393 . S
C228 H217 0.950 . S
C228 C226 1.391 . S
C228 C229 1.400 . S
C229 C223 1.491 . S
C229 C228 1.400 . S
C229 C230 1.398 . S
C230 H218 0.950 . S
C230 C229 1.398 . S
C230 C231 1.391 . S
C231 H219 0.950 . S
C231 C227 1.393 . S
C231 C230 1.391 . S
H232 C240 0.950 . S
H233 C245 0.950 . S
H234 C242 0.950 . S
H235 C244 0.950 . S
H236 C246 0.950 . S
H237 C248 0.950 . S
H238 C250 0.950 . S
H239 C251 0.950 . S
C240 H232 0.950 . S
C240 C241 1.386 . S
C240 C242 1.391 . S
C241 C240 1.386 . S
C241 C245 1.393 . S
C242 H234 0.950 . S
C242 C240 1.391 . S
C242 C243 1.400 . S
C243 C242 1.400 . S
C243 C244 1.398 . S
C243 C249 1.491 . S
C244 H235 0.950 . S
C244 C243 1.398 . S
C244 C245 1.391 . S
C245 H233 0.950 . S
C245 C241 1.393 . S
C245 C244 1.391 . S
C246 H236 0.950 . S
C246 C247 1.386 . S
C246 C248 1.391 . S
C247 C246 1.386 . S
C247 C251 1.393 . S
C248 H237 0.950 . S
C248 C246 1.391 . S
C248 C249 1.400 . S
C249 C243 1.491 . S
C249 C248 1.400 . S
C249 C250 1.398 . S
C250 H238 0.950 . S
C250 C249 1.398 . S
C250 C251 1.391 . S
C251 H239 0.950 . S
C251 C247 1.393 . S
C251 C250 1.391 . S
H252 C260 0.950 1_655 S
H253 C265 0.950 . S
H254 C262 0.950 . S
H255 C264 0.950 . S
H256 C266 0.950 . S
H257 C268 0.950 . S
H258 C270 0.950 . S
H259 C271 0.950 . S
C260 H252 0.950 1_455 S
C260 C261 1.386 . S
C260 C262 1.391 . S
C261 C260 1.386 . S
C261 C265 1.393 . S
C262 H254 0.950 . S
C262 C260 1.391 . S
C262 C263 1.400 . S
C263 C262 1.400 . S
C263 C264 1.398 . S
C263 C269 1.491 . S
C264 H255 0.950 . S
C264 C263 1.398 . S
C264 C265 1.391 . S
C265 H253 0.950 . S
C265 C261 1.393 . S
C265 C264 1.391 . S
C266 H256 0.950 . S
C266 C267 1.386 . S
C266 C268 1.391 . S
C267 C266 1.386 . S
C267 C271 1.393 . S
C268 H257 0.950 . S
C268 C266 1.391 . S
C268 C269 1.400 . S
C269 C263 1.491 . S
C269 C268 1.400 . S
C269 C270 1.398 . S
C270 H258 0.950 . S
C270 C269 1.398 . S
C270 C271 1.391 . S
C271 H259 0.950 . S
C271 C267 1.393 . S
C271 C270 1.391 . S
H272 C280 0.950 . S
H273 C285 0.950 . S
H274 C282 0.950 . S
H275 C284 0.950 . S
H276 C286 0.950 . S
H277 C288 0.950 . S
H278 C290 0.950 . S
H279 C291 0.950 . S
C280 H272 0.950 . S
C280 C281 1.386 . S
C280 C282 1.391 . S
C281 C280 1.386 . S
C281 C285 1.393 . S
C282 H274 0.950 . S
C282 C280 1.391 . S
C282 C283 1.400 . S
C283 C282 1.400 . S
C283 C284 1.398 . S
C283 C289 1.491 . S
C284 H275 0.950 . S
C284 C283 1.398 . S
C284 C285 1.391 . S
C285 H273 0.950 . S
C285 C281 1.393 . S
C285 C284 1.391 . S
C286 H276 0.950 . S
C286 C287 1.386 . S
C286 C288 1.391 1_455 S
C287 C286 1.386 . S
C287 C291 1.393 1_455 S
C288 H277 0.950 . S
C288 C286 1.391 1_655 S
C288 C289 1.400 . S
C289 C283 1.491 . S
C289 C288 1.400 . S
C289 C290 1.398 . S
C290 H278 0.950 . S
C290 C289 1.398 . S
C290 C291 1.391 . S
C291 H279 0.950 . S
C291 C287 1.393 1_655 S
C291 C290 1.391 . S
H292 C300 0.950 . S
H293 C305 0.950 . S
H294 C302 0.950 . S
H295 C304 0.950 . S
H296 C306 0.950 . S
H297 C308 0.950 . S
H298 C310 0.950 . S
H299 C311 0.950 . S
C300 H292 0.950 . S
C300 C301 1.386 . S
C300 C302 1.391 . S
C301 C300 1.386 . S
C301 C305 1.393 . S
C302 H294 0.950 . S
C302 C300 1.391 . S
C302 C303 1.400 . S
C303 C302 1.400 . S
C303 C304 1.398 . S
C303 C309 1.491 . S
C304 H295 0.950 . S
C304 C303 1.398 . S
C304 C305 1.391 . S
C305 H293 0.950 . S
C305 C301 1.393 . S
C305 C304 1.391 . S
C306 H296 0.950 . S
C306 C307 1.386 . S
C306 C308 1.391 . S
C307 C306 1.386 . S
C307 C311 1.393 . S
C308 H297 0.950 . S
C308 C306 1.391 . S
C308 C309 1.400 . S
C309 C303 1.491 . S
C309 C308 1.400 . S
C309 C310 1.398 . S
C310 H298 0.950 . S
C310 C309 1.398 . S
C310 C311 1.391 . S
C311 H299 0.950 . S
C311 C307 1.393 . S
C311 C310 1.391 . S
H312 C320 0.950 . S
H313 C325 0.950 . S
H314 C322 0.950 . S
H315 C324 0.950 . S
H316 C326 0.950 . S
H317 C328 0.950 . S
H318 C330 0.950 . S
H319 C331 0.950 . S
C320 H312 0.950 . S
C320 C321 1.386 . S
C320 C322 1.391 1_455 S
C321 C320 1.386 . S
C321 C325 1.393 . S
C322 H314 0.950 . S
C322 C320 1.391 1_655 S
C322 C323 1.400 . S
C323 C322 1.400 . S
C323 C324 1.398 . S
C323 C329 1.491 . S
C324 H315 0.950 . S
C324 C323 1.398 . S
C324 C325 1.391 1_655 S
C325 H313 0.950 . S
C325 C321 1.393 . S
C325 C324 1.391 1_455 S
C326 H316 0.950 . S
C326 C327 1.386 . S
C326 C328 1.391 . S
C327 C326 1.386 . S
C327 C331 1.393 . S
C328 H317 0.950 . S
C328 C326 1.391 . S
C328 C329 1.400 . S
C329 C323 1.491 . S
C329 C328 1.400 . S
C329 C330 1.398 . S
C330 H318 0.950 . S
C330 C329 1.398 . S
C330 C331 1.391 . S
C331 H319 0.950 . S
C331 C327 1.393 . S
C331 C330 1.391 . S
H332 C340 0.950 . S
H333 C345 0.950 . S
H334 C342 0.950 . S
H335 C344 0.950 . S
H336 C346 0.950 . S
H337 C348 0.950 . S
H338 C350 0.950 . S
H339 C351 0.950 . S
C340 H332 0.950 . S
C340 C341 1.386 . S
C340 C342 1.391 . S
C341 C340 1.386 . S
C341 C345 1.393 . S
C342 H334 0.950 . S
C342 C340 1.391 . S
C342 C343 1.400 . S
C343 C342 1.400 . S
C343 C344 1.398 . S
C343 C349 1.491 . S
C344 H335 0.950 . S
C344 C343 1.398 . S
C344 C345 1.391 . S
C345 H333 0.950 . S
C345 C341 1.393 . S
C345 C344 1.391 . S
C346 H336 0.950 . S
C346 C347 1.386 . S
C346 C348 1.391 . S
C347 C346 1.386 . S
C347 C351 1.393 . S
C348 H337 0.950 . S
C348 C346 1.391 . S
C348 C349 1.400 . S
C349 C343 1.491 . S
C349 C348 1.400 . S
C349 C350 1.398 . S
C350 H338 0.950 . S
C350 C349 1.398 . S
C350 C351 1.391 . S
C351 H339 0.950 . S
C351 C347 1.393 . S
C351 C350 1.391 . S
H352 C360 0.950 . S
H353 C365 0.950 . S
H354 C362 0.950 . S
H355 C364 0.950 . S
H356 C366 0.950 . S
H357 C368 0.950 . S
H358 C370 0.950 . S
H359 C371 0.950 . S
C360 H352 0.950 . S
C360 C361 1.386 . S
C360 C362 1.391 . S
C361 C360 1.386 . S
C361 C365 1.393 . S
C362 H354 0.950 . S
C362 C360 1.391 . S
C362 C363 1.400 . S
C363 C362 1.400 . S
C363 C364 1.398 . S
C363 C369 1.491 . S
C364 H355 0.950 . S
C364 C363 1.398 . S
C364 C365 1.391 . S
C365 H353 0.950 . S
C365 C361 1.393 . S
C365 C364 1.391 . S
C366 H356 0.950 . S
C366 C367 1.386 . S
C366 C368 1.391 . S
C367 C366 1.386 . S
C367 C371 1.393 . S
C368 H357 0.950 . S
C368 C366 1.391 . S
C368 C369 1.400 . S
C369 C363 1.491 . S
C369 C368 1.400 . S
C369 C370 1.398 . S
C370 H358 0.950 . S
C370 C369 1.398 . S
C370 C371 1.391 . S
C371 H359 0.950 . S
C371 C367 1.393 . S
C371 C370 1.391 . S
H372 C380 0.950 . S
H373 C385 0.950 . S
H374 C382 0.950 . S
H375 C384 0.950 . S
H376 C386 0.950 . S
H377 C388 0.950 . S
H378 C390 0.950 . S
H379 C391 0.950 . S
C380 H372 0.950 . S
C380 C381 1.386 . S
C380 C382 1.391 . S
C381 C380 1.386 . S
C381 C385 1.393 . S
C382 H374 0.950 . S
C382 C380 1.391 . S
C382 C383 1.400 . S
C383 C382 1.400 . S
C383 C384 1.398 . S
C383 C389 1.491 . S
C384 H375 0.950 . S
C384 C383 1.398 . S
C384 C385 1.391 . S
C385 H373 0.950 . S
C385 C381 1.393 . S
C385 C384 1.391 . S
C386 H376 0.950 . S
C386 C387 1.386 . S
C386 C388 1.391 . S
C387 C386 1.386 . S
C387 C391 1.393 . S
C388 H377 0.950 . S
C388 C386 1.391 . S
C388 C389 1.400 . S
C389 C383 1.491 . S
C389 C388 1.400 . S
C389 C390 1.398 . S
C390 H378 0.950 . S
C390 C389 1.398 . S
C390 C391 1.391 . S
C391 H379 0.950 . S
C391 C387 1.393 . S
C391 C390 1.391 . S
H392 C400 0.950 . S
H393 C405 0.950 . S
H394 C402 0.950 . S
H395 C404 0.950 . S
H396 C406 0.950 . S
H397 C408 0.950 . S
H398 C410 0.950 . S
H399 C411 0.950 . S
C400 H392 0.950 . S
C400 C401 1.386 . S
C400 C402 1.391 . S
C401 C400 1.386 . S
C401 C405 1.393 . S
C402 H394 0.950 . S
C402 C400 1.391 . S
C402 C403 1.400 . S
C403 C402 1.400 . S
C403 C404 1.398 . S
C403 C409 1.491 . S
C404 H395 0.950 . S
C404 C403 1.398 . S
C404 C405 1.391 . S
C405 H393 0.950 . S
C405 C401 1.393 . S
C405 C404 1.391 . S
C406 H396 0.950 . S
C406 C407 1.386 . S
C406 C408 1.391 . S
C407 C406 1.386 . S
C407 C411 1.393 . S
C408 H397 0.950 . S
C408 C406 1.391 . S
C408 C409 1.400 . S
C409 C403 1.491 . S
C409 C408 1.400 . S
C409 C410 1.398 . S
C410 H398 0.950 . S
C410 C409 1.398 . S
C410 C411 1.391 . S
C411 H399 0.950 . S
C411 C407 1.393 . S
C411 C410 1.391 . S
H412 C420 0.950 . S
H413 C425 0.950 . S
H414 C422 0.950 . S
H415 C424 0.950 . S
H416 C426 0.950 . S
H417 C428 0.950 . S
H418 C430 0.950 1_565 S
H419 C431 0.950 . S
C420 H412 0.950 . S
C420 C421 1.386 . S
C420 C422 1.391 . S
C421 C420 1.386 . S
C421 C425 1.393 . S
C422 H414 0.950 . S
C422 C420 1.391 . S
C422 C423 1.400 . S
C423 C422 1.400 . S
C423 C424 1.398 . S
C423 C429 1.491 . S
C424 H415 0.950 . S
C424 C423 1.398 . S
C424 C425 1.391 . S
C425 H413 0.950 . S
C425 C421 1.393 . S
C425 C424 1.391 . S
C426 H416 0.950 . S
C426 C427 1.386 . S
C426 C428 1.391 1_545 S
C427 C426 1.386 . S
C427 C431 1.393 . S
C428 H417 0.950 . S
C428 C426 1.391 1_565 S
C428 C429 1.400 . S
C429 C423 1.491 . S
C429 C428 1.400 . S
C429 C430 1.398 1_565 S
C430 H418 0.950 1_545 S
C430 C429 1.398 1_545 S
C430 C431 1.391 . S
C431 H419 0.950 . S
C431 C427 1.393 . S
C431 C430 1.391 . S
H432 C440 0.950 . S
H433 C445 0.950 . S
H434 C442 0.964 . S
H435 C444 0.950 . S
H436 C446 0.950 . S
H437 C448 0.950 . S
H438 C450 0.950 . S
H439 C451 0.950 . S
C440 H432 0.950 . S
C440 C441 1.386 . S
C440 C442 1.391 . S
C441 C440 1.386 . S
C441 C445 1.393 . S
C442 H434 0.964 . S
C442 C440 1.391 . S
C442 C443 1.400 . S
C443 C442 1.400 . S
C443 C444 1.398 . S
C443 C449 1.491 1_545 S
C444 H435 0.950 . S
C444 C443 1.398 . S
C444 C445 1.391 . S
C445 H433 0.950 . S
C445 C441 1.393 . S
C445 C444 1.391 . S
C446 H436 0.950 . S
C446 C447 1.386 . S
C446 C448 1.391 . S
C447 C446 1.386 . S
C447 C451 1.393 . S
C448 H437 0.950 . S
C448 C446 1.391 . S
C448 C449 1.400 . S
C449 C443 1.491 1_565 S
C449 C448 1.400 . S
C449 C450 1.398 . S
C450 H438 0.950 . S
C450 C449 1.398 . S
C450 C451 1.391 . S
C451 H439 0.950 . S
C451 C447 1.393 . S
C451 C450 1.391 . S
H452 C460 0.950 . S
H453 C465 0.950 . S
H454 C462 0.950 . S
H455 C464 0.950 . S
H456 C466 0.950 . S
H457 C468 0.950 1_545 S
H458 C470 0.950 . S
H459 C471 0.950 . S
C460 H452 0.950 . S
C460 C461 1.386 . S
C460 C462 1.391 . S
C461 C460 1.386 . S
C461 C465 1.393 . S
C462 H454 0.950 . S
C462 C460 1.391 . S
C462 C463 1.400 . S
C463 C462 1.400 . S
C463 C464 1.398 . S
C463 C469 1.491 1_545 S
C464 H455 0.950 . S
C464 C463 1.398 . S
C464 C465 1.391 . S
C465 H453 0.950 . S
C465 C461 1.393 . S
C465 C464 1.391 . S
C466 H456 0.950 . S
C466 C467 1.386 . S
C466 C468 1.391 . S
C467 C466 1.386 . S
C467 C471 1.393 . S
C468 H457 0.950 1_565 S
C468 C466 1.391 . S
C468 C469 1.400 . S
C469 C463 1.491 1_565 S
C469 C468 1.400 . S
C469 C470 1.398 . S
C470 H458 0.950 . S
C470 C469 1.398 . S
C470 C471 1.391 . S
C471 H459 0.950 . S
C471 C467 1.393 . S
C471 C470 1.391 . S
H472 C480 0.950 . S
H473 C485 0.950 1_655 S
H474 C482 0.950 . S
H475 C484 0.950 1_655 S
H476 C486 0.950 . S
H477 C488 0.950 . S
H478 C490 0.950 . S
H479 C491 0.950 . S
C480 H472 0.950 . S
C480 C481 1.386 . S
C480 C482 1.391 . S
C481 C480 1.386 . S
C481 C485 1.393 . S
C482 H474 0.950 . S
C482 C480 1.391 . S
C482 C483 1.400 . S
C483 C482 1.400 . S
C483 C484 1.398 . S
C483 C489 1.491 1_565 S
C484 H475 0.950 1_455 S
C484 C483 1.398 . S
C484 C485 1.391 . S
C485 H473 0.950 1_455 S
C485 C481 1.393 . S
C485 C484 1.391 . S
C486 H476 0.950 . S
C486 C487 1.386 . S
C486 C488 1.391 . S
C487 C486 1.386 . S
C487 C491 1.393 . S
C488 H477 0.950 . S
C488 C486 1.391 . S
C488 C489 1.400 . S
C489 C483 1.491 1_545 S
C489 C488 1.400 . S
C489 C490 1.398 . S
C490 H478 0.950 . S
C490 C489 1.398 . S
C490 C491 1.391 . S
C491 H479 0.950 . S
C491 C487 1.393 . S
C491 C490 1.391 . S
H492 C500 0.950 . S
H493 C505 0.950 . S
H494 C502 0.950 1_556 S
H495 C504 0.950 . S
H496 C506 0.950 . S
H497 C508 0.950 . S
H498 C510 0.950 . S
H499 C511 0.950 . S
C500 H492 0.950 . S
C500 C501 1.386 . S
C500 C502 1.391 . S
C501 C500 1.386 . S
C501 C505 1.393 . S
C502 H494 0.950 1_554 S
C502 C500 1.391 . S
C502 C503 1.400 1_554 S
C503 C502 1.400 1_556 S
C503 C504 1.398 1_556 S
C503 C509 1.491 . S
C504 H495 0.950 . S
C504 C503 1.398 1_554 S
C504 C505 1.391 . S
C505 H493 0.950 . S
C505 C501 1.393 . S
C505 C504 1.391 . S
C506 H496 0.950 . S
C506 C507 1.386 . S
C506 C508 1.391 . S
C507 C506 1.386 . S
C507 C511 1.393 . S
C508 H497 0.950 . S
C508 C506 1.391 . S
C508 C509 1.400 . S
C509 C503 1.491 . S
C509 C508 1.400 . S
C509 C510 1.398 . S
C510 H498 0.950 . S
C510 C509 1.398 . S
C510 C511 1.391 . S
C511 H499 0.950 . S
C511 C507 1.393 . S
C511 C510 1.391 . S
H512 C520 0.950 . S
H513 C525 0.950 . S
H514 C522 0.950 . S
H515 C524 0.950 . S
H516 C526 0.950 . S
H517 C528 0.950 . S
H518 C530 0.950 . S
H519 C531 0.950 . S
C520 H512 0.950 . S
C520 C521 1.386 . S
C520 C522 1.391 . S
C521 C520 1.386 . S
C521 C525 1.393 . S
C522 H514 0.950 . S
C522 C520 1.391 . S
C522 C523 1.400 . S
C523 C522 1.400 . S
C523 C524 1.398 . S
C523 C529 1.491 . S
C524 H515 0.950 . S
C524 C523 1.398 . S
C524 C525 1.391 . S
C525 H513 0.950 . S
C525 C521 1.393 . S
C525 C524 1.391 . S
C526 H516 0.950 . S
C526 C527 1.386 . S
C526 C528 1.391 . S
C527 C526 1.386 . S
C527 C531 1.393 . S
C528 H517 0.950 . S
C528 C526 1.391 . S
C528 C529 1.400 . S
C529 C523 1.491 . S
C529 C528 1.400 . S
C529 C530 1.398 . S
C530 H518 0.950 . S
C530 C529 1.398 . S
C530 C531 1.391 . S
C531 H519 0.950 . S
C531 C527 1.393 . S
C531 C530 1.391 . S
H532 C540 0.950 . S
H533 C545 0.950 . S
H534 C542 0.950 . S
H535 C544 0.950 . S
H536 C546 0.950 . S
H537 C548 0.950 . S
H538 C550 0.950 . S
H539 C551 0.950 . S
C540 H532 0.950 . S
C540 C541 1.386 . S
C540 C542 1.391 . S
C541 C540 1.386 . S
C541 C545 1.393 . S
C542 H534 0.950 . S
C542 C540 1.391 . S
C542 C543 1.400 . S
C543 C542 1.400 . S
C543 C544 1.398 . S
C543 C549 1.491 . S
C544 H535 0.950 . S
C544 C543 1.398 . S
C544 C545 1.391 . S
C545 H533 0.950 . S
C545 C541 1.393 . S
C545 C544 1.391 . S
C546 H536 0.950 . S
C546 C547 1.386 . S
C546 C548 1.391 . S
C547 C546 1.386 . S
C547 C551 1.393 . S
C548 H537 0.950 . S
C548 C546 1.391 . S
C548 C549 1.400 . S
C549 C543 1.491 . S
C549 C548 1.400 . S
C549 C550 1.398 . S
C550 H538 0.950 . S
C550 C549 1.398 . S
C550 C551 1.391 . S
C551 H539 0.950 . S
C551 C547 1.393 . S
C551 C550 1.391 . S
H552 C560 0.950 . S
H553 C565 0.950 . S
H554 C562 0.950 . S
H555 C564 0.950 . S
H556 C566 0.950 . S
H557 C568 0.950 . S
H558 C570 0.950 . S
H559 C571 0.950 . S
C560 H552 0.950 . S
C560 C561 1.386 . S
C560 C562 1.391 . S
C561 C560 1.386 . S
C561 C565 1.393 . S
C562 H554 0.950 . S
C562 C560 1.391 . S
C562 C563 1.400 . S
C563 C562 1.400 . S
C563 C564 1.398 . S
C563 C569 1.491 . S
C564 H555 0.950 . S
C564 C563 1.398 . S
C564 C565 1.391 . S
C565 H553 0.950 . S
C565 C561 1.393 . S
C565 C564 1.391 . S
C566 H556 0.950 . S
C566 C567 1.386 . S
C566 C568 1.391 . S
C567 C566 1.386 . S
C567 C571 1.393 . S
C568 H557 0.950 . S
C568 C566 1.391 . S
C568 C569 1.400 . S
C569 C563 1.491 . S
C569 C568 1.400 . S
C569 C570 1.398 . S
C570 H558 0.950 . S
C570 C569 1.398 . S
C570 C571 1.391 . S
C571 H559 0.950 . S
C571 C567 1.393 . S
C571 C570 1.391 . S
H572 C580 0.950 . S
H573 C585 0.950 1_655 S
H574 C582 0.950 . S
H575 C584 0.950 1_554 S
H576 C586 0.950 . S
H577 C588 0.950 . S
H578 C590 0.950 . S
H579 C591 0.950 . S
C580 H572 0.950 . S
C580 C581 1.386 . S
C580 C582 1.391 . S
C581 C580 1.386 . S
C581 C585 1.393 . S
C582 H574 0.950 . S
C582 C580 1.391 . S
C582 C583 1.400 1_556 S
C583 C582 1.400 1_554 S
C583 C584 1.398 1_554 S
C583 C589 1.491 . S
C584 H575 0.950 1_556 S
C584 C583 1.398 1_556 S
C584 C585 1.391 . S
C585 H573 0.950 1_455 S
C585 C581 1.393 . S
C585 C584 1.391 . S
C586 H576 0.950 . S
C586 C587 1.386 . S
C586 C588 1.391 . S
C587 C586 1.386 . S
C587 C591 1.393 . S
C588 H577 0.950 . S
C588 C586 1.391 . S
C588 C589 1.400 . S
C589 C583 1.491 . S
C589 C588 1.400 . S
C589 C590 1.398 . S
C590 H578 0.950 . S
C590 C589 1.398 . S
C590 C591 1.391 . S
C591 H579 0.950 . S
C591 C587 1.393 . S
C591 C590 1.391 . S
H592 C600 0.950 . S
H593 C605 0.950 . S
H594 C602 0.950 . S
H595 C604 0.950 . S
H596 C606 0.950 . S
H597 C608 0.950 . S
H598 C610 0.950 . S
H599 C611 0.950 . S
C600 H592 0.950 . S
C600 C601 1.386 . S
C600 C602 1.391 . S
C601 C600 1.386 . S
C601 C605 1.393 . S
C602 H594 0.950 . S
C602 C600 1.391 . S
C602 C603 1.400 . S
C603 C602 1.400 . S
C603 C604 1.398 . S
C603 C609 1.491 . S
C604 H595 0.950 . S
C604 C603 1.398 . S
C604 C605 1.391 . S
C605 H593 0.950 . S
C605 C601 1.393 . S
C605 C604 1.391 . S
C606 H596 0.950 . S
C606 C607 1.386 . S
C606 C608 1.391 . S
C607 C606 1.386 . S
C607 C611 1.393 . S
C608 H597 0.950 . S
C608 C606 1.391 . S
C608 C609 1.400 . S
C609 C603 1.491 . S
C609 C608 1.400 . S
C609 C610 1.398 . S
C610 H598 0.950 . S
C610 C609 1.398 . S
C610 C611 1.391 . S
C611 H599 0.950 . S
C611 C607 1.393 . S
C611 C610 1.391 . S
H612 C620 0.950 . S
H613 C625 0.950 . S
H614 C622 0.950 . S
H615 C624 0.950 . S
H616 C626 0.950 . S
H617 C628 0.950 . S
H618 C630 0.950 . S
H619 C631 0.950 . S
C620 H612 0.950 . S
C620 C621 1.386 . S
C620 C622 1.391 . S
C621 C620 1.386 . S
C621 C625 1.393 . S
C622 H614 0.950 . S
C622 C620 1.391 . S
C622 C623 1.400 . S
C623 C622 1.400 . S
C623 C624 1.398 . S
C623 C629 1.491 . S
C624 H615 0.950 . S
C624 C623 1.398 . S
C624 C625 1.391 . S
C625 H613 0.950 . S
C625 C621 1.393 . S
C625 C624 1.391 . S
C626 H616 0.950 . S
C626 C627 1.386 . S
C626 C628 1.391 . S
C627 C626 1.386 . S
C627 C631 1.393 . S
C628 H617 0.950 . S
C628 C626 1.391 . S
C628 C629 1.400 . S
C629 C623 1.491 . S
C629 C628 1.400 . S
C629 C630 1.398 . S
C630 H618 0.950 . S
C630 C629 1.398 . S
C630 C631 1.391 . S
C631 H619 0.950 . S
C631 C627 1.393 . S
C631 C630 1.391 . S
H632 C640 0.950 . S
H633 C645 0.950 . S
H634 C642 0.950 . S
H635 C644 0.950 . S
H636 C646 0.950 . S
H637 C648 0.950 . S
H638 C650 0.950 . S
H639 C651 0.950 . S
C640 H632 0.950 . S
C640 C641 1.386 . S
C640 C642 1.391 . S
C641 C640 1.386 . S
C641 C645 1.393 . S
C642 H634 0.950 . S
C642 C640 1.391 . S
C642 C643 1.400 . S
C643 C642 1.400 . S
C643 C644 1.398 . S
C643 C649 1.491 . S
C644 H635 0.950 . S
C644 C643 1.398 . S
C644 C645 1.391 . S
C645 H633 0.950 . S
C645 C641 1.393 . S
C645 C644 1.391 . S
C646 H636 0.950 . S
C646 C647 1.386 . S
C646 C648 1.391 . S
C647 C646 1.386 . S
C647 C651 1.393 . S
C648 H637 0.950 . S
C648 C646 1.391 . S
C648 C649 1.400 . S
C649 C643 1.491 . S
C649 C648 1.400 . S
C649 C650 1.398 . S
C650 H638 0.950 . S
C650 C649 1.398 . S
C650 C651 1.391 . S
C651 H639 0.950 . S
C651 C647 1.393 . S
C651 C650 1.391 . S
C187 C95 1.421 . S
C181 C6 1.560 . S
C207 C113 1.368 . S
C201 N15 1.432 1_655 S
C221 N26 1.383 . S
C227 C137 1.276 . S
C247 C167 1.263 1_655 S
C241 C39 1.424 . S
C267 C155 1.247 . S
C261 C50 1.342 . S
C281 N59 1.449 . S
C287 C108 1.390 . S
C301 N70 1.599 . S
C307 C128 1.510 . S
C321 C83 1.415 . S
C327 C133 1.292 . S
C341 N81 1.444 . S
C347 C149 1.367 . S
C361 C61 1.415 . S
C367 C104 1.306 . S
C387 C171 1.376 . S
C381 N37 1.447 . S
C407 C116 1.287 . S
C401 C17 1.411 . S
C421 C28 1.554 . S
C427 C134 1.414 . S
C441 N4 1.405 . S
C447 C92 1.281 . S
C467 C112 1.218 . S
C461 C72 1.345 . S
C487 C158 1.509 . S
C481 N48 1.602 . S
C507 C154 1.357 . S
C501 C9 1.520 . S
C527 C107 1.456 . S
C521 C20 1.502 . S
C541 C31 1.496 . S
C547 C129 1.334 . S
C561 C42 1.530 . S
C567 C150 1.461 . S
C587 C91 1.369 . S
C581 C53 1.570 . S
C601 C64 1.508 . S
C607 C125 1.431 . S
C627 C146 1.377 . S
C621 C75 1.587 . S
C647 C170 1.423 . S
C641 C86 1.479 . S
