# Generated by pormake.
# Topology zzz, (3,6)-cn, num edge types: 1
# Building blocks:
#     Node 0, Type 0, BuildingBlock: QEWDON_clean_linker_0, # of connection points: 3
#     Node 1, Type 0, BuildingBlock: QEWDON_clean_linker_0, # of connection points: 3
#     Node 2, Type 0, BuildingBlock: QEWDON_clean_linker_0, # of connection points: 3
#     Node 3, Type 0, BuildingBlock: QEWDON_clean_linker_0, # of connection points: 3
#     Node 4, Type 0, BuildingBlock: QEWDON_clean_linker_0, # of connection points: 3
#     Node 5, Type 0, BuildingBlock: QEWDON_clean_linker_0, # of connection points: 3
#     Node 6, Type 0, BuildingBlock: QEWDON_clean_linker_0, # of connection points: 3
#     Node 7, Type 0, BuildingBlock: QEWDON_clean_linker_0, # of connection points: 3
#     Node 8, Type 1, BuildingBlock: KUMBOL_clean_sbu_1, # of connection points: 6
#     Node 9, Type 1, BuildingBlock: KUMBOL_clean_sbu_1, # of connection points: 6
#     Node 10, Type 1, BuildingBlock: KUMBOL_clean_sbu_1, # of connection points: 6
#     Node 11, Type 1, BuildingBlock: KUMBOL_clean_sbu_1, # of connection points: 6
#     Edge 12, Type (0, 1), BuildingBlock: TEMPAE_clean_linker_10, # of connection points: 2
#     Edge 13, Type (0, 1), BuildingBlock: TEMPAE_clean_linker_10, # of connection points: 2
#     Edge 14, Type (0, 1), BuildingBlock: TEMPAE_clean_linker_10, # of connection points: 2
#     Edge 15, Type (0, 1), BuildingBlock: TEMPAE_clean_linker_10, # of connection points: 2
#     Edge 16, Type (0, 1), BuildingBlock: TEMPAE_clean_linker_10, # of connection points: 2
#     Edge 17, Type (0, 1), BuildingBlock: TEMPAE_clean_linker_10, # of connection points: 2
#     Edge 18, Type (0, 1), BuildingBlock: TEMPAE_clean_linker_10, # of connection points: 2
#     Edge 19, Type (0, 1), BuildingBlock: TEMPAE_clean_linker_10, # of connection points: 2
#     Edge 20, Type (0, 1), BuildingBlock: TEMPAE_clean_linker_10, # of connection points: 2
#     Edge 21, Type (0, 1), BuildingBlock: TEMPAE_clean_linker_10, # of connection points: 2
#     Edge 22, Type (0, 1), BuildingBlock: TEMPAE_clean_linker_10, # of connection points: 2
#     Edge 23, Type (0, 1), BuildingBlock: TEMPAE_clean_linker_10, # of connection points: 2
#     Edge 24, Type (0, 1), BuildingBlock: TEMPAE_clean_linker_10, # of connection points: 2
#     Edge 25, Type (0, 1), BuildingBlock: TEMPAE_clean_linker_10, # of connection points: 2
#     Edge 26, Type (0, 1), BuildingBlock: TEMPAE_clean_linker_10, # of connection points: 2
#     Edge 27, Type (0, 1), BuildingBlock: TEMPAE_clean_linker_10, # of connection points: 2
#     Edge 28, Type (0, 1), BuildingBlock: TEMPAE_clean_linker_10, # of connection points: 2
#     Edge 29, Type (0, 1), BuildingBlock: TEMPAE_clean_linker_10, # of connection points: 2
#     Edge 30, Type (0, 1), BuildingBlock: TEMPAE_clean_linker_10, # of connection points: 2
#     Edge 31, Type (0, 1), BuildingBlock: TEMPAE_clean_linker_10, # of connection points: 2
#     Edge 32, Type (0, 1), BuildingBlock: TEMPAE_clean_linker_10, # of connection points: 2
#     Edge 33, Type (0, 1), BuildingBlock: TEMPAE_clean_linker_10, # of connection points: 2
#     Edge 34, Type (0, 1), BuildingBlock: TEMPAE_clean_linker_10, # of connection points: 2
#     Edge 35, Type (0, 1), BuildingBlock: TEMPAE_clean_linker_10, # of connection points: 2
# Relax obj value: 0.114
# Max RMSD: 0.096
# Mean RMSD: 0.038
data_MOF--net-zzz--node1-KUMBOL_clean_sbu_1--node2-QEWDON_clean_linker_0--edge1-TEMPAE_clean_linker_10
_symmetry_space_group_name_H-M    P1
_symmetry_Int_Tables_number       1
_symmetry_cell_setting            triclinic
loop_
_symmetry_equiv_pos_as_xyz
'x, y, z'
_cell_length_a     55.146974
_cell_length_b     55.310897
_cell_length_c     15.740296
_cell_angle_alpha  89.990959
_cell_angle_beta   89.874539
_cell_angle_gamma 90.182165
loop_
_atom_site_label
_atom_site_type_symbol
_atom_site_fract_x
_atom_site_fract_y
_atom_site_fract_z
_atom_type_partial_charge
H0 H 0.765 0.55964 0.13759 0.0
C1 C 0.77771 0.55333 0.18451 0.0
C2 C 0.80233 0.55892 0.17183 0.0
C3 C 0.76976 0.5393 0.2542 0.0
H4 H 0.83841 0.55607 0.22347 0.0
C5 C 0.81937 0.5521 0.23346 0.0
C6 C 0.81298 0.53876 0.30538 0.0
C7 C 0.78805 0.5322 0.31539 0.0
C8 C 0.74279 0.53185 0.26048 0.0
H9 H 0.78356 0.52093 0.36913 0.0
C10 C 0.72531 0.53443 0.19214 0.0
C11 C 0.70033 0.5274 0.2018 0.0
C12 C 0.73405 0.52204 0.33725 0.0
H13 H 0.74542 0.52033 0.39257 0.0
C14 C 0.71018 0.51417 0.34571 0.0
H15 H 0.73067 0.5419 0.13168 0.0
C16 C 0.69374 0.51651 0.27936 0.0
H17 H 0.67563 0.50951 0.28961 0.0
H18 H 0.70426 0.5062 0.4051 0.0
H19 H 0.97662 0.76003 0.14381 0.0
C20 C 0.98334 0.7741 0.18538 0.0
C21 C 0.9771 0.79808 0.16789 0.0
C22 C 0.99805 0.76799 0.2547 0.0
H23 H 0.97878 0.83474 0.21231 0.0
C24 C 0.9841 0.81634 0.22518 0.0
C25 C 0.99868 0.8118 0.29657 0.0
C26 C 1.00556 0.78716 0.31126 0.0
C27 C 1.00397 0.74132 0.26762 0.0
H28 H 0.01706 0.78308 0.36496 0.0
C29 C 1.00578 0.72422 0.19852 0.0
C30 C 1.00819 0.69874 0.21305 0.0
C31 C 1.00548 0.7323 0.35065 0.0
H32 H 1.0038 0.74422 0.40485 0.0
C33 C 1.00776 0.70758 0.36563 0.0
H34 H 1.00545 0.73071 0.13373 0.0
C35 C 1.00868 0.6911 0.29857 0.0
H36 H 1.00929 0.67212 0.31494 0.0
H37 H 1.00822 0.701 0.43041 0.0
H38 H 0.76955 1.00889 0.12641 0.0
C39 C 0.7587 1.00945 0.18359 0.0
C40 C 0.734 0.01434 0.17479 0.0
C41 C 0.76896 1.00494 0.2642 0.0
H42 H 0.6993 0.01634 0.23711 0.0
C43 C 0.71862 0.01351 0.24556 0.0
C44 C 0.72718 1.00839 0.32651 0.0
C45 C 0.75263 1.00462 0.3365 0.0
C46 C 0.79618 0.99957 0.27026 0.0
H47 H 0.75927 1.00134 0.39992 0.0
C48 C 0.81338 1.00539 0.20394 0.0
C49 C 0.83846 0.99931 0.2108 0.0
C50 C 0.80523 0.98748 0.34225 0.0
H51 H 0.79343 0.98171 0.39323 0.0
C52 C 0.82978 0.98185 0.34962 0.0
H53 H 0.80778 0.01502 0.14767 0.0
C54 C 0.84615 0.98767 0.28517 0.0
H55 H 0.86497 0.98257 0.29296 0.0
H56 H 0.83617 0.97253 0.40573 0.0
H57 H 0.53655 0.77921 0.12101 0.0
C58 C 0.53511 0.76764 0.17605 0.0
C59 C 0.53251 0.7429 0.1615 0.0
C60 C 0.53598 0.77727 0.25848 0.0
H61 H 0.53013 0.70743 0.21699 0.0
C62 C 0.53234 0.72661 0.22952 0.0
C63 C 0.53388 0.73454 0.3136 0.0
C64 C 0.53523 0.76015 0.32836 0.0
C65 C 0.5385 0.80484 0.26785 0.0
H66 H 0.53565 0.7664 0.39338 0.0
C67 C 0.53318 0.8218 0.20018 0.0
C68 C 0.53747 0.84723 0.20861 0.0
C69 C 0.54764 0.81455 0.34387 0.0
H70 H 0.55255 0.80303 0.39648 0.0
C71 C 0.55148 0.83938 0.35309 0.0
H72 H 0.52528 0.81569 0.14126 0.0
C73 C 0.54667 0.85541 0.28676 0.0
H74 H 0.55066 0.87438 0.29659 0.0
H75 H 0.55873 0.84628 0.41221 0.0
H76 H 0.27403 0.48254 0.19992 0.0
C77 C 0.2637 0.4871 0.14381 0.0
C78 C 0.24186 0.4746 0.12896 0.0
C79 C 0.27084 0.50678 0.09241 0.0
H80 H 0.21066 0.4713 0.04768 0.0
C81 C 0.22755 0.48082 0.0587 0.0
C82 C 0.23214 0.50156 0.01107 0.0
C83 C 0.25416 0.51437 0.0269 0.0
C84 C 0.29404 0.52075 0.11477 0.0
H85 H 0.25794 0.53009 0.98829 0.0
C86 C 0.31424 0.51045 0.16063 0.0
C87 C 0.33519 0.52462 0.18218 0.0
C88 C 0.29561 0.54542 0.09338 0.0
H89 H 0.28084 0.55466 0.06237 0.0
C90 C 0.31592 0.5592 0.11413 0.0
H91 H 0.314 0.49155 0.17823 0.0
C92 C 0.33532 0.54906 0.15765 0.0
H93 H 0.35044 0.56073 0.17377 0.0
H94 H 0.31648 0.57817 0.09722 0.0
H95 H 0.05139 0.27173 0.22444 0.0
C96 C 0.04793 0.25991 0.17129 0.0
C97 C 0.05715 0.23622 0.17461 0.0
C98 C 0.03269 0.26761 0.10483 0.0
H99 H 0.05859 0.20174 0.10989 0.0
C100 C 0.05247 0.22031 0.10679 0.0
C101 C 0.03778 0.22673 0.03846 0.0
C102 C 0.02781 0.25049 0.03758 0.0
C103 C 0.02009 0.29228 0.11206 0.0
H104 H 0.0164 0.25531 0.98454 0.0
C105 C 0.02839 0.31176 0.16627 0.0
C106 C 0.01492 0.33375 0.17548 0.0
C107 C 0.99815 0.2959 0.06839 0.0
H108 H 0.99022 0.28193 0.02932 0.0
C109 C 0.98513 0.31731 0.07656 0.0
H110 H 0.04528 0.31023 0.20042 0.0
C111 C 0.99324 0.33583 0.12927 0.0
H112 H 0.98201 0.35177 0.13518 0.0
H113 H 0.9682 0.3194 0.04271 0.0
H114 H 0.26609 0.05279 0.21981 0.0
C115 C 0.27591 0.0501 0.16099 0.0
C116 C 0.29816 0.06213 0.15014 0.0
C117 C 0.2672 0.03373 0.09918 0.0
H118 H 0.32958 0.06668 0.07075 0.0
C119 C 0.31205 0.05794 0.07702 0.0
C120 C 0.30545 0.04072 0.01666 0.0
C121 C 0.28271 0.02879 0.02721 0.0
C122 C 0.24307 0.02065 0.11418 0.0
H123 H 0.27732 0.01598 0.97894 0.0
C124 C 0.22398 0.02992 0.1678 0.0
C125 C 0.20189 0.01675 0.18085 0.0
C126 C 0.23929 0.99787 0.0765 0.0
H127 H 0.25316 0.98929 0.0386 0.0
C128 C 0.21775 0.98509 0.08876 0.0
H129 H 0.22589 0.04738 0.19798 0.0
C130 C 0.19935 0.99434 0.1398 0.0
H131 H 0.18311 0.98355 0.14862 0.0
H132 H 0.21542 0.96758 0.05909 0.0
H133 H 0.48618 0.2694 0.22377 0.0
C134 C 0.49233 0.28144 0.17409 0.0
C135 C 0.4906 0.30637 0.18832 0.0
C136 C 0.50192 0.27207 0.09806 0.0
H137 H 0.49651 0.34188 0.13503 0.0
C138 C 0.49717 0.32258 0.12344 0.0
C139 C 0.50579 0.31475 0.04476 0.0
C140 C 0.50839 0.28923 0.03215 0.0
C141 C 0.5041 0.24453 0.08924 0.0
H142 H 0.51593 0.28307 0.97255 0.0
C143 C 0.50511 0.22812 0.16093 0.0
C144 C 0.50441 0.20242 0.15003 0.0
C145 C 0.5036 0.23415 0.00774 0.0
H146 H 0.50234 0.24526 0.95143 0.0
C147 C 0.50381 0.20912 0.99677 0.0
H148 H 0.50601 0.23503 0.22506 0.0
C149 C 0.50401 0.19353 0.06644 0.0
H150 H 0.50386 0.17423 0.05464 0.0
H151 H 0.50334 0.20166 0.9332 0.0
C152 C 0.07993 0.0369 0.86646 0.0
C153 C 0.06368 0.04796 0.00457 0.0
C154 C 0.06119 0.03638 0.92513 0.0
C155 C 0.085 0.06087 0.02279 0.0
C156 C 0.10169 0.04924 0.88572 0.0
C157 C 0.10392 0.0616 0.96333 0.0
N158 N 0.07749 0.02409 0.79315 0.0
C159 C 0.09702 0.02117 0.74052 0.0
C160 C 0.12094 0.048 0.82792 0.0
C161 C 0.11871 0.03358 0.75567 0.0
Gd162 Gd 0.99802 0.02864 0.59465 0.0
Gd163 Gd 0.0398 1.00428 0.77394 0.0
N164 N 0.04065 0.02408 0.90532 0.0
C165 C 0.04471 0.04605 0.06351 0.0
C166 C 0.0224 0.02151 0.96336 0.0
C167 C 0.02403 0.03264 0.04294 0.0
H168 H 1.00661 1.01076 0.94846 0.0
H169 H 1.00944 0.03073 0.08857 0.0
H170 H 0.03582 0.04413 0.43134 0.0
H171 H 0.09647 1.00867 0.6882 0.0
H172 H 0.04872 0.02719 0.29435 0.0
H173 H 0.04596 0.05461 0.12528 0.0
H174 H 0.08717 0.07004 0.08313 0.0
H175 H 0.94577 1.00185 0.64301 0.0
H176 H 0.13792 0.05724 0.84028 0.0
H177 H 0.13391 0.03152 0.71265 0.0
H178 H 0.99415 0.96095 0.2484 0.0
H179 H 0.12045 0.07124 0.97892 0.0
H180 H 0.92923 0.95033 0.4478 0.0
H181 H 0.91842 0.97061 0.5828 0.0
N182 N 0.97187 0.99846 0.54436 0.0
C183 C 0.97747 0.98862 0.46764 0.0
C184 C 0.95056 0.99292 0.58429 0.0
C185 C 0.94122 0.96399 0.47387 0.0
C186 C 0.93507 0.97536 0.55022 0.0
C187 C 0.96252 0.9707 0.4312 0.0
H188 H 0.95803 0.9463 0.32468 0.0
N189 N 0.0108 0.01568 0.45861 0.0
C190 C 0.99787 0.99702 0.42468 0.0
C191 C 0.02299 0.99785 0.29856 0.0
C192 C 1.00378 0.98748 0.34407 0.0
C193 C 0.02785 0.02735 0.41034 0.0
C194 C 0.03474 0.0182 0.33112 0.0
O195 O 0.02456 0.04253 0.79565 0.0
O196 O 0.02012 0.05813 0.66142 0.0
O197 O 0.9835 0.04975 0.49089 0.0
O198 O 0.96667 0.05169 0.61465 0.0
O199 O 0.99912 0.9976 0.79561 0.0
O200 O 0.98 0.02848 0.72459 0.0
O201 O 0.99848 0.9877 0.62627 0.0
O202 O 0.03812 0.98173 0.65301 0.0
O203 O 0.02897 0.97181 0.84041 0.0
O204 O 0.06707 0.9812 0.83095 0.0
O205 O 0.03807 0.03945 0.58098 0.0
O206 O 0.05608 1.00645 0.64071 0.0
C207 C 0.02249 0.06134 0.74424 0.0
C208 C 0.98041 0.01222 0.78565 0.0
C209 C 0.96688 0.08703 0.53229 0.0
C210 C 0.98599 0.12531 0.49654 0.0
C211 C 0.94404 0.12428 0.54362 0.0
C212 C 0.94529 0.09919 0.55168 0.0
C213 C 0.96422 0.1373 0.51531 0.0
C214 C 0.98738 0.10022 0.50613 0.0
C215 C 0.96762 0.06062 0.53836 0.0
C216 C 0.9897 0.96867 0.30974 0.0
C217 C 0.96907 0.96037 0.35303 0.0
H218 H 0.02808 0.99106 0.23647 0.0
C219 C 0.01765 0.97356 0.62183 0.0
C220 C 0.05676 0.02474 0.5872 0.0
C221 C 0.05579 0.94027 0.81108 0.0
C222 C 0.04157 0.89916 0.79027 0.0
C223 C 0.07675 0.9135 0.71292 0.0
C224 C 0.07449 0.93613 0.75183 0.0
C225 C 0.06028 0.895 0.73185 0.0
C226 C 0.03955 0.92161 0.83016 0.0
C227 C 0.05125 0.96431 0.84756 0.0
H228 H 0.92733 0.13362 0.5583 0.0
H229 H 0.92939 0.08925 0.57244 0.0
H230 H 0.96287 0.15673 0.50799 0.0
H231 H 1.00419 0.09102 0.49115 0.0
H232 H 0.09121 0.91035 0.66773 0.0
H233 H 0.0871 0.95037 0.7346 0.0
H234 H 0.06231 0.87746 0.70214 0.0
H235 H 0.02513 0.92457 0.87601 0.0
C236 C 0.52969 0.94735 0.55888 0.0
C237 C 0.50159 0.91904 0.62365 0.0
C238 C 0.50789 0.94273 0.59885 0.0
C239 C 0.51839 0.90027 0.61224 0.0
C240 C 0.546 0.92832 0.5423 0.0
C241 C 0.54059 0.90491 0.57164 0.0
N242 N 0.5339 0.97004 0.52943 0.0
C243 C 0.55279 0.97425 0.47499 0.0
C244 C 0.56667 0.93319 0.49338 0.0
C245 C 0.56981 0.95616 0.45813 0.0
Gd246 Gd 0.52584 0.04185 0.7553 0.0
Gd247 Gd 0.50565 1.00004 0.56986 0.0
N248 N 0.49214 0.96127 0.60858 0.0
C249 C 0.47829 0.91484 0.65612 0.0
C250 C 0.46891 0.95711 0.63527 0.0
C251 C 0.46171 0.93389 0.66036 0.0
H252 H 0.4562 0.97191 0.63931 0.0
H253 H 0.44348 0.93074 0.68357 0.0
H254 H 0.58773 0.04384 0.75037 0.0
H255 H 0.55474 0.99152 0.44371 0.0
H256 H 0.61952 0.07134 0.69815 0.0
H257 H 0.47272 0.8969 0.67586 0.0
H258 H 0.51406 0.88198 0.63193 0.0
H259 H 0.47768 0.07599 0.79566 0.0
H260 H 0.57967 0.9191 0.47923 0.0
H261 H 0.58512 0.95985 0.41693 0.0
H262 H 0.57686 0.14431 0.63095 0.0
H263 H 0.55301 0.8901 0.56038 0.0
H264 H 0.49332 0.14842 0.71422 0.0
H265 H 0.46493 0.11867 0.77773 0.0
N266 N 0.51252 0.08182 0.7415 0.0
C267 C 0.52892 0.09814 0.71204 0.0
C268 C 0.4901 0.08902 0.76838 0.0
C269 C 0.49899 0.12982 0.72244 0.0
C270 C 0.4829 0.11308 0.75833 0.0
C271 C 0.52242 0.12252 0.69969 0.0
H272 H 0.53489 0.15757 0.65586 0.0
N273 N 0.55863 0.06755 0.71939 0.0
C274 C 0.55258 0.09063 0.69871 0.0
C275 C 0.59454 0.09995 0.66804 0.0
C276 C 0.57033 0.10739 0.67167 0.0
C277 C 0.58251 0.06112 0.72454 0.0
C278 C 0.60071 0.07688 0.69653 0.0
O279 O 0.50509 0.98473 0.70614 0.0
O280 O 0.53812 1.00264 0.765 0.0
O281 O 0.54131 0.05886 0.86648 0.0
O282 O 0.5116 0.03367 0.88093 0.0
O283 O 0.47331 0.01721 0.639 0.0
O284 O 0.48714 0.02859 0.7716 0.0
O285 O 0.50391 0.05763 0.64359 0.0
O286 O 0.52013 0.03721 0.53357 0.0
O287 O 0.47195 1.00815 0.50673 0.0
O288 O 0.50012 0.98929 0.43812 0.0
O289 O 0.55626 0.01929 0.69445 0.0
O290 O 0.543 0.01809 0.55756 0.0
C291 C 0.52293 0.98427 0.76176 0.0
C292 C 0.46933 0.02327 0.7191 0.0
C293 C 0.54249 0.03251 0.98184 0.0
C294 C 0.58013 0.01194 0.01715 0.0
C295 C 0.55013 0.02097 0.12717 0.0
C296 C 0.53521 0.03181 0.06681 0.0
C297 C 0.57266 0.01163 0.10319 0.0
C298 C 0.56405 0.0213 0.9567 0.0
C299 C 0.52849 0.04593 0.91911 0.0
C300 C 0.56355 0.13129 0.6531 0.0
C301 C 0.53966 0.13887 0.66744 0.0
H302 H 0.60871 0.11225 0.64747 0.0
C303 C 0.51107 0.05734 0.56373 0.0
C304 C 0.56097 0.01741 0.61252 0.0
C305 C 0.47838 0.02035 0.36696 0.0
C306 C 0.45476 0.05273 0.30369 0.0
C307 C 0.49695 0.04772 0.26479 0.0
C308 C 0.49877 0.02805 0.32027 0.0
C309 C 0.47494 0.05988 0.25557 0.0
C310 C 0.45648 0.03285 0.35818 0.0
C311 C 0.48002 1.00149 0.43273 0.0
H312 H 0.54473 0.0207 0.19329 0.0
H313 H 0.51828 0.03999 0.08625 0.0
H314 H 0.58444 1.00522 0.15313 0.0
H315 H 0.5686 0.021 0.88983 0.0
H316 H 0.51272 0.05377 0.22977 0.0
H317 H 0.51616 0.01926 0.3278 0.0
H318 H 0.4737 0.07482 0.21145 0.0
H319 H 0.44072 0.02726 0.39473 0.0
C320 C 0.48141 0.51203 0.93273 0.0
C321 C 0.50433 0.52856 0.05022 0.0
C322 C 0.49887 0.52776 0.96285 0.0
C323 C 0.49208 0.51297 0.10649 0.0
C324 C 0.46809 0.4973 0.9892 0.0
C325 C 0.47383 0.49752 0.07613 0.0
N326 N 0.47668 0.51198 0.8483 0.0
C327 C 0.45745 0.49928 0.8166 0.0
C328 C 0.44907 0.48327 0.95668 0.0
C329 C 0.44354 0.48449 0.8701 0.0
Gd330 Gd 0.54233 0.51486 0.58129 0.0
Gd331 Gd 0.50007 0.53782 0.76287 0.0
N332 N 0.50965 0.54313 0.90712 0.0
C333 C 0.52154 0.54537 0.0784 0.0
C334 C 0.52521 0.56064 0.93513 0.0
C335 C 0.53177 0.56172 0.02082 0.0
H336 H 0.53277 0.57368 0.89124 0.0
H337 H 0.54461 0.5752 0.04246 0.0
H338 H 0.50819 0.51911 0.40659 0.0
H339 H 0.45322 0.50028 0.74964 0.0
H340 H 0.50504 0.54526 0.28035 0.0
H341 H 0.52669 0.54623 0.14451 0.0
H342 H 0.49612 0.51315 0.17379 0.0
H343 H 0.59529 0.53172 0.67801 0.0
H344 H 0.43832 0.47178 0.99799 0.0
H345 H 0.42862 0.47403 0.84459 0.0
H346 H 0.57028 0.60209 0.31149 0.0
H347 H 0.46402 0.48612 0.12052 0.0
H348 H 0.62136 0.59534 0.55547 0.0
H349 H 0.62436 0.56519 0.67081 0.0
N350 N 0.5728 0.54506 0.5787 0.0
C351 C 0.5722 0.5601 0.50998 0.0
C352 C 0.59217 0.54588 0.63266 0.0
C353 C 0.60777 0.58122 0.56082 0.0
C354 C 0.60941 0.56438 0.62642 0.0
C355 C 0.58948 0.57878 0.50003 0.0
H356 H 0.60155 0.60845 0.42037 0.0
N357 N 0.53801 0.53849 0.45886 0.0
C358 C 0.55471 0.55637 0.44755 0.0
C359 C 0.53579 0.5673 0.31459 0.0
C360 C 0.55388 0.5714 0.37521 0.0
C361 C 0.52081 0.53389 0.39869 0.0
C362 C 0.51918 0.54849 0.32653 0.0
O363 O 0.50567 0.49675 0.7741 0.0
O364 O 0.53296 0.4835 0.67146 0.0
O365 O 0.54437 0.48763 0.48256 0.0
O366 O 0.57723 0.50161 0.53823 0.0
O367 O 0.54069 0.54552 0.7735 0.0
O368 O 0.55751 0.51187 0.71626 0.0
O369 O 0.52039 0.55047 0.57058 0.0
O370 O 0.5245 0.56602 0.70175 0.0
O371 O 0.4799 0.56717 0.82216 0.0
O372 O 0.4685 0.55232 0.70118 0.0
O373 O 0.50409 0.5017 0.55242 0.0
O374 O 0.48124 0.52637 0.63964 0.0
C375 C 0.51873 0.47944 0.7381 0.0
C376 C 0.55717 0.52841 0.77635 0.0
C377 C 0.57675 0.46025 0.50435 0.0
C378 C 0.56954 0.41691 0.51159 0.0
C379 C 0.60997 0.43282 0.53516 0.0
C380 C 0.6014 0.45628 0.52215 0.0
C381 C 0.59416 0.41313 0.52918 0.0
C382 C 0.5609 0.44042 0.50002 0.0
C383 C 0.56771 0.48499 0.49051 0.0
C384 C 0.57076 0.59027 0.36637 0.0
C385 C 0.58847 0.59398 0.42864 0.0
H386 H 0.53442 0.57864 0.25868 0.0
C387 C 0.5232 0.56963 0.61961 0.0
C388 C 0.48337 0.51207 0.57277 0.0
C389 C 0.46125 0.59367 0.72116 0.0
C390 C 0.46551 0.63738 0.72877 0.0
C391 C 0.44396 0.61928 0.61104 0.0
C392 C 0.448 0.59637 0.64542 0.0
C393 C 0.45262 0.6398 0.65269 0.0
C394 C 0.46997 0.61432 0.76232 0.0
C395 C 0.46539 0.56936 0.75702 0.0
H396 H 0.62898 0.42988 0.54861 0.0
H397 H 0.61403 0.47129 0.5258 0.0
H398 H 0.60113 0.39499 0.53714 0.0
H399 H 0.54192 0.44307 0.48479 0.0
H400 H 0.43379 0.62113 0.55268 0.0
H401 H 0.44061 0.58082 0.61299 0.0
H402 H 0.44881 0.65752 0.62674 0.0
H403 H 0.48017 0.61259 0.82082 0.0
C404 C 0.03877 0.47253 0.91174 0.0
C405 C 0.03199 0.49293 0.04612 0.0
C406 C 0.02784 0.49094 0.95787 0.0
C407 C 0.04772 0.47666 0.08647 0.0
C408 C 0.05407 0.45576 0.9526 0.0
C409 C 0.05878 0.45817 0.03982 0.0
N410 N 0.03398 0.47062 0.82727 0.0
C411 C 0.04237 0.45137 0.78151 0.0
C412 C 0.06393 0.43684 0.90472 0.0
C413 C 0.05788 0.43453 0.81899 0.0
Gd414 Gd 0.0325 0.53753 0.5906 0.0
Gd415 Gd 1.00575 0.49805 0.77218 0.0
N416 N 0.01193 0.50582 0.9178 0.0
C417 C 0.01946 0.51062 0.09195 0.0
C418 C 0.99863 0.52211 0.96345 0.0
C419 C 1.00259 0.52516 0.05051 0.0
H420 H 0.98416 0.53203 0.93388 0.0
H421 H 0.9921 0.53824 0.08607 0.0
H422 H 0.01928 0.5013 0.4267 0.0
H423 H 0.03723 0.44916 0.71588 0.0
H424 H 0.99461 0.50235 0.29598 0.0
H425 H 0.02198 0.51255 0.15981 0.0
H426 H 0.05098 0.47783 0.15421 0.0
H427 H 0.03805 0.59587 0.65291 0.0
H428 H 0.07583 0.42367 0.93372 0.0
H429 H 0.06492 0.41962 0.782 0.0
H430 H 0.96237 0.58281 0.29059 0.0
H431 H 0.07057 0.44554 0.07215 0.0
H432 H 0.99009 0.63848 0.50218 0.0
H433 H 0.01942 0.63513 0.62018 0.0
N434 N 0.01725 0.57639 0.56186 0.0
C435 C 1.00224 0.5781 0.4936 0.0
C436 C 0.02423 0.59672 0.60473 0.0
C437 C 0.99761 0.62099 0.51817 0.0
C438 C 0.01411 0.61916 0.58494 0.0
C439 C 0.99194 0.60045 0.47017 0.0
H440 H 0.96889 0.6188 0.37944 0.0
N441 N 1.00933 0.53671 0.46569 0.0
C442 C 0.99845 0.55778 0.44341 0.0
C443 C 0.98259 0.53893 0.31642 0.0
C444 C 0.98444 0.55933 0.36872 0.0
C445 C 1.00902 0.5173 0.41189 0.0
C446 C 0.99525 0.51795 0.33746 0.0
O447 O 0.04767 0.49995 0.75861 0.0
O448 O 0.05471 0.53834 0.71153 0.0
O449 O 0.06697 0.52418 0.54571 0.0
O450 O 0.0551 0.55988 0.50836 0.0
O451 O 0.99852 0.53865 0.79184 0.0
O452 O 0.02939 0.55765 0.7179 0.0
O453 O 0.99353 0.52324 0.57509 0.0
O454 O 0.97801 0.52281 0.70962 0.0
O455 O 0.97978 0.48272 0.86088 0.0
O456 O 0.98372 0.46721 0.73549 0.0
O457 O 0.03917 0.49693 0.57667 0.0
O458 O 1.00623 0.48007 0.64186 0.0
C459 C 0.06232 0.51887 0.7511 0.0
C460 C 0.01279 0.55762 0.7789 0.0
C461 C 0.07461 0.53528 0.40529 0.0
C462 C 0.09488 0.50799 0.30657 0.0
C463 C 0.06376 0.53555 0.25599 0.0
C464 C 0.06069 0.54455 0.33814 0.0
C465 C 0.0806 0.51728 0.24015 0.0
C466 C 0.09178 0.51728 0.38877 0.0
C467 C 0.07022 0.5423 0.49412 0.0
C468 C 0.97337 0.58132 0.34729 0.0
C469 C 0.97707 0.60181 0.39797 0.0
H470 H 0.97207 0.53944 0.25839 0.0
C471 C 0.97482 0.52479 0.62699 0.0
C472 C 0.02355 0.47906 0.58452 0.0
C473 C 0.9448 0.46668 0.79532 0.0
C474 C 0.9052 0.48536 0.80887 0.0
C475 C 0.90863 0.44449 0.75445 0.0
C476 C 0.9338 0.44569 0.76325 0.0
C477 C 0.89431 0.46416 0.77811 0.0
C478 C 0.93042 0.48667 0.81682 0.0
C479 C 0.97121 0.46745 0.80562 0.0
H480 H 0.05303 0.54278 0.20445 0.0
H481 H 0.04722 0.5584 0.34909 0.0
H482 H 0.08262 0.51064 0.17584 0.0
H483 H 0.10292 0.51069 0.44046 0.0
H484 H 0.90019 0.4282 0.73034 0.0
H485 H 0.94467 0.43019 0.74558 0.0
H486 H 0.87476 0.46277 0.77337 0.0
H487 H 0.93868 0.50297 0.84208 0.0
C488 C 0.157 0.02304 0.20839 0.0
C489 C 0.18112 0.02498 0.23739 0.0
C490 C 0.13685 0.0256 0.26357 0.0
C491 C 0.14046 0.03023 0.35136 0.0
C492 C 0.16471 0.03359 0.38028 0.0
C493 C 0.18462 0.03097 0.32335 0.0
C494 C 0.11164 0.02205 0.22829 0.0
C495 C 0.16971 0.03883 0.4726 0.0
C496 C 0.08489 0.04871 0.48827 0.0
C497 C 0.0781 0.02672 0.52672 0.0
C498 C 0.10516 0.0503 0.43244 0.0
C499 C 0.11914 0.02938 0.41328 0.0
C500 C 0.1122 1.00717 0.45175 0.0
C501 C 0.09206 1.00616 0.50755 0.0
C502 C 0.11162 0.07443 0.39386 0.0
C503 C 0.12596 0.98422 0.43327 0.0
H504 H 0.15385 0.01856 0.14226 0.0
H505 H 0.20299 0.03231 0.34727 0.0
H506 H 0.10361 1.00524 0.2549 0.0
H507 H 0.09972 0.03723 0.24733 0.0
H508 H 0.11161 0.02068 0.15786 0.0
H509 H 0.18904 0.04351 0.48394 0.0
H510 H 0.1582 0.05396 0.49513 0.0
H511 H 0.16503 0.02273 0.51142 0.0
H512 H 0.07445 0.06479 0.50238 0.0
H513 H 0.08706 0.98896 0.53577 0.0
H514 H 0.1102 0.07342 0.32367 0.0
H515 H 0.13069 0.07914 0.40911 0.0
H516 H 0.09964 0.08917 0.41693 0.0
H517 H 0.12528 0.98022 0.36422 0.0
H518 H 0.11854 0.96842 0.46846 0.0
H519 H 0.14532 0.98654 0.45062 0.0
C520 C 0.48627 0.16497 0.21943 0.0
C521 C 0.50329 0.18404 0.22242 0.0
C522 C 0.48656 0.14544 0.27772 0.0
C523 C 0.50457 0.14425 0.34213 0.0
C524 C 0.52118 0.164 0.34814 0.0
C525 C 0.52036 0.18352 0.28882 0.0
C526 C 0.46729 0.12621 0.26785 0.0
C527 C 0.5402 0.1643 0.41681 0.0
C528 C 0.49398 0.09911 0.52795 0.0
C529 C 0.50927 0.07963 0.5074 0.0
C530 C 0.49262 0.12021 0.47647 0.0
C531 C 0.50656 0.12214 0.40058 0.0
C532 C 0.52146 0.10217 0.37819 0.0
C533 C 0.52276 0.08148 0.43156 0.0
C534 C 0.47582 0.14032 0.50253 0.0
C535 C 0.53565 0.10237 0.2962 0.0
H536 H 0.47266 0.16506 0.16978 0.0
H537 H 0.5337 0.1979 0.29255 0.0
H538 H 0.46761 0.11915 0.20182 0.0
H539 H 0.46917 0.11088 0.31256 0.0
H540 H 0.44918 0.13446 0.2778 0.0
H541 H 0.55091 0.18135 0.41686 0.0
H542 H 0.53149 0.16202 0.47996 0.0
H543 H 0.55277 0.14888 0.40786 0.0
H544 H 0.48271 0.09776 0.58407 0.0
H545 H 0.53444 0.06661 0.41345 0.0
H546 H 0.46178 0.14291 0.45296 0.0
H547 H 0.48614 0.15752 0.50797 0.0
H548 H 0.46664 0.13659 0.56405 0.0
H549 H 0.52293 0.10385 0.24185 0.0
H550 H 0.54673 0.0858 0.28788 0.0
H551 H 0.54781 0.11837 0.29407 0.0
C552 C 0.35508 0.50301 0.30881 0.0
C553 C 0.35721 0.51545 0.2311 0.0
C554 C 0.37553 0.49908 0.36235 0.0
C555 C 0.39895 0.50787 0.33884 0.0
C556 C 0.40137 0.51911 0.25815 0.0
C557 C 0.38077 0.52258 0.20589 0.0
C558 C 0.37184 0.48642 0.44619 0.0
C559 C 0.42554 0.52898 0.2288 0.0
C560 C 0.44342 0.52765 0.51507 0.0
C561 C 0.4615 0.50972 0.51436 0.0
C562 C 0.4233 0.52712 0.45935 0.0
C563 C 0.42022 0.50773 0.40124 0.0
C564 C 0.43813 0.48918 0.40099 0.0
C565 C 0.4586 0.49058 0.45613 0.0
C566 C 0.40557 0.54786 0.46133 0.0
C567 C 0.43578 0.46785 0.34194 0.0
H568 H 0.33721 0.49743 0.33002 0.0
H569 H 0.38302 0.53194 0.14585 0.0
H570 H 0.38597 0.47242 0.45553 0.0
H571 H 0.37363 0.49966 0.49874 0.0
H572 H 0.35368 0.47775 0.45071 0.0
H573 H 0.42524 0.5345 0.16094 0.0
H574 H 0.4304 0.54498 0.26783 0.0
H575 H 0.44005 0.51539 0.23755 0.0
H576 H 0.44531 0.54273 0.55806 0.0
H577 H 0.47224 0.47653 0.454 0.0
H578 H 0.38702 0.54102 0.47473 0.0
H579 H 0.40511 0.55681 0.39824 0.0
H580 H 0.4103 0.56161 0.50999 0.0
H581 H 0.41729 0.45996 0.3465 0.0
H582 H 0.44927 0.45354 0.35617 0.0
H583 H 0.43846 0.47387 0.27535 0.0
C584 C 0.01799 0.37888 0.20706 0.0
C585 C 0.02202 0.35479 0.23338 0.0
C586 C 0.02012 0.39878 0.26327 0.0
C587 C 0.02677 0.3951 0.34931 0.0
C588 C 0.03256 0.37109 0.37504 0.0
C589 C 0.02998 0.35134 0.31748 0.0
C590 C 0.01466 0.42385 0.23071 0.0
C591 C 0.04124 0.36623 0.46411 0.0
C592 C 0.04559 0.45255 0.47571 0.0
C593 C 0.02492 0.4573 0.52572 0.0
C594 C 0.04684 0.43224 0.42043 0.0
C595 C 0.0267 0.4162 0.41227 0.0
C596 C 1.00571 0.42114 0.46194 0.0
C597 C 1.0052 0.4412 0.51818 0.0
C598 C 0.06991 0.42862 0.37048 0.0
C599 C 0.98331 0.40558 0.45386 0.0
H600 H 0.01252 0.38221 0.14204 0.0
H601 H 0.03332 0.33309 0.33948 0.0
H602 H 0.99985 0.43203 0.26886 0.0
H603 H 0.03091 0.43555 0.23791 0.0
H604 H 1.00924 0.42385 0.16277 0.0
H605 H 0.04706 0.34719 0.47283 0.0
H606 H 0.05668 0.3784 0.47941 0.0
H607 H 0.02652 0.37018 0.51014 0.0
H608 H 0.06104 0.46466 0.47986 0.0
H609 H 0.98896 0.44456 0.55514 0.0
H610 H 0.07138 0.44295 0.3213 0.0
H611 H 0.07098 0.41073 0.339 0.0
H612 H 0.08578 0.4306 0.41319 0.0
H613 H 0.97688 0.4058 0.38707 0.0
H614 H 0.96833 0.41179 0.49575 0.0
H615 H 0.98764 0.38657 0.47005 0.0
C616 C 0.85442 0.99576 0.05866 0.0
C617 C 0.85724 1.00432 0.14223 0.0
C618 C 0.8737 0.99693 0.99852 0.0
C619 C 0.89649 1.00725 0.02121 0.0
C620 C 0.89905 0.01669 0.10463 0.0
C621 C 0.87968 0.01494 0.16361 0.0
C622 C 0.86994 0.98632 0.91129 0.0
C623 C 0.92253 0.02829 0.13249 0.0
C624 C 0.95562 0.99089 0.90112 0.0
C625 C 0.95877 1.01051 0.84512 0.0
C626 C 0.93538 0.98935 0.9569 0.0
C627 C 0.91769 1.00803 0.95872 0.0
C628 C 0.92085 0.0279 0.90249 0.0
C629 C 0.94102 0.02879 0.84652 0.0
C630 C 0.93298 0.96764 0.01436 0.0
C631 C 0.90305 0.04856 0.90237 0.0
H632 H 0.83746 0.98715 0.04132 0.0
H633 H 0.88225 0.02162 0.22772 0.0
H634 H 0.87388 1.00008 0.86187 0.0
H635 H 0.88276 0.97115 0.90128 0.0
H636 H 0.85115 0.97951 0.90215 0.0
H637 H 0.93727 0.01469 0.13169 0.0
H638 H 0.92777 0.04287 0.08758 0.0
H639 H 0.92129 0.03605 0.19743 0.0
H640 H 0.96897 0.97655 0.90117 0.0
H641 H 0.94304 0.04417 0.80442 0.0
H642 H 0.91497 0.95901 0.00547 0.0
H643 H 0.93414 0.97342 0.08171 0.0
H644 H 0.94728 0.95396 1.00225 0.0
H645 H 0.88452 0.04173 0.88887 0.0
H646 H 0.90775 0.06261 0.85459 0.0
H647 H 0.90255 0.05711 0.96613 0.0
C648 C 0.52385 0.88892 0.15733 0.0
C649 C 0.53311 0.86577 0.13795 0.0
C650 C 0.52217 0.90759 0.09576 0.0
C651 C 0.52986 0.90357 0.01076 0.0
C652 C 0.53867 0.8801 0.98988 0.0
C653 C 0.54009 0.86163 0.05298 0.0
C654 C 0.51232 0.93188 0.12235 0.0
C655 C 0.54721 0.87466 0.90089 0.0
C656 C 0.5059 0.94686 0.83626 0.0
C657 C 0.52505 0.96344 0.82457 0.0
C658 C 0.50738 0.9273 0.89453 0.0
C659 C 0.52855 0.92389 0.94454 0.0
C660 C 0.54798 0.94064 0.93331 0.0
C661 C 0.546 0.96002 0.87417 0.0
C662 C 0.48599 0.91042 0.90333 0.0
C663 C 0.57091 0.93835 0.98469 0.0
H664 H 0.51796 0.8926 0.22174 0.0
H665 H 0.54751 0.84415 0.03624 0.0
H666 H 0.52634 0.94606 0.11264 0.0
H667 H 0.49655 0.93673 0.08226 0.0
H668 H 0.50659 0.93216 0.19005 0.0
H669 H 0.55297 0.85555 0.89336 0.0
H670 H 0.53255 0.87847 0.85467 0.0
H671 H 0.56272 0.88663 0.88451 0.0
H672 H 0.48935 0.94941 0.80082 0.0
H673 H 0.56103 0.97251 0.86672 0.0
H674 H 0.47921 0.91067 0.96974 0.0
H675 H 0.49166 0.89162 0.88909 0.0
H676 H 0.47086 0.91532 0.8602 0.0
H677 H 0.56694 0.94232 0.05238 0.0
H678 H 0.58532 0.95096 0.9626 0.0
H679 H 0.57791 0.91958 0.98133 0.0
C680 C 0.68487 0.52921 0.04622 0.0
C681 C 0.68047 0.53086 0.13437 0.0
C682 C 0.66564 0.53019 0.98563 0.0
C683 C 0.64101 0.53234 0.01254 0.0
C684 C 0.63657 0.53464 0.10094 0.0
C685 C 0.65606 0.53446 0.15946 0.0
C686 C 0.6717 0.52858 0.89238 0.0
C687 C 0.61097 0.53658 0.13459 0.0
C688 C 0.58819 0.55188 0.86474 0.0
C689 C 0.57819 0.52967 0.8384 0.0
C690 C 0.60895 0.55303 0.91818 0.0
C691 C 0.61981 0.53149 0.9497 0.0
C692 C 0.60942 0.50904 0.92431 0.0
C693 C 0.58928 0.50842 0.86822 0.0
C694 C 0.61947 0.57744 0.94005 0.0
C695 C 0.61935 0.48552 0.9577 0.0
H696 H 0.70329 0.52654 0.02428 0.0
H697 H 0.65189 0.5369 0.22613 0.0
H698 H 0.66506 0.51114 0.86655 0.0
H699 H 0.66246 0.54323 0.85686 0.0
H700 H 0.69153 0.52988 0.8805 0.0
H701 H 0.61031 0.53768 0.20504 0.0
H702 H 0.602 0.55283 0.10817 0.0
H703 H 0.60021 0.52063 0.11403 0.0
H704 H 0.5802 0.56847 0.84138 0.0
H705 H 0.58186 0.49112 0.84869 0.0
H706 H 0.63919 0.57776 0.9258 0.0
H707 H 0.61733 0.58095 0.009 0.0
H708 H 0.61058 0.59231 0.90449 0.0
H709 H 0.63862 0.48355 0.93873 0.0
H710 H 0.60906 0.4696 0.93398 0.0
H711 H 0.61871 0.48549 0.02819 0.0
C712 C 0.99826 0.68249 0.06264 0.0
C713 C 1.0096 0.6796 0.14231 0.0
C714 C 0.99828 0.66378 1.00019 0.0
C715 C 1.00941 0.64106 0.01706 0.0
C716 C 0.02105 0.63813 0.09666 0.0
C717 C 0.02147 0.65729 0.15642 0.0
C718 C 0.98617 0.6683 0.91593 0.0
C719 C 0.03291 0.61444 0.11967 0.0
C720 C 0.99118 0.5833 0.89181 0.0
C721 C 0.01115 0.57953 0.83742 0.0
C722 C 0.99025 0.60309 0.9495 0.0
C723 C 1.00936 0.62045 0.95204 0.0
C724 C 0.02917 0.61718 0.89528 0.0
C725 C 0.02998 0.59682 0.84035 0.0
C726 C 0.96896 0.60509 0.00935 0.0
C727 C 0.04986 0.63508 0.89326 0.0
H728 H 0.9889 0.69923 0.04924 0.0
H729 H 0.03128 0.65452 0.21504 0.0
H730 H 0.99904 0.66458 0.86326 0.0
H731 H 0.97056 0.6558 0.9082 0.0
H732 H 0.97955 0.68717 0.90989 0.0
H733 H 0.04011 0.61441 0.18553 0.0
H734 H 0.01965 0.5994 0.11345 0.0
H735 H 0.04806 0.61065 0.07524 0.0
H736 H 0.97612 0.57073 0.88963 0.0
H737 H 0.04577 0.59433 0.80033 0.0
H738 H 0.95994 0.62283 1.00118 0.0
H739 H 0.97541 0.60415 0.07602 0.0
H740 H 0.95536 0.59052 0.9992 0.0
H741 H 0.04278 0.65375 0.88679 0.0
H742 H 0.06267 0.63152 0.84018 0.0
H743 H 0.06003 0.63423 0.95388 0.0
C744 C 0.05457 0.23162 0.33228 0.0
C745 C 0.06645 0.22584 0.25588 0.0
C746 C 0.05155 0.214 0.3953 0.0
C747 C 0.05971 0.19027 0.37878 0.0
C748 C 0.07702 0.18651 0.31394 0.0
C749 C 0.08087 0.2049 0.25397 0.0
C750 C 0.03523 0.21935 0.46989 0.0
C751 C 0.08764 0.16187 0.29773 0.0
C752 C 0.0286 0.14078 0.50629 0.0
C753 C 1.00668 0.13897 0.46188 0.0
C754 C 0.04687 0.15674 0.47896 0.0
C755 C 0.04337 0.1701 0.40331 0.0
C756 C 0.02217 0.16619 0.35384 0.0
C757 C 1.00388 0.15109 0.38494 0.0
C758 C 0.06889 0.16017 0.53439 0.0
C759 C 0.01805 0.17885 0.2699 0.0
H760 H 0.0444 0.24824 0.33825 0.0
H761 H 0.09188 0.2011 0.19842 0.0
H762 H 0.01627 0.21453 0.45322 0.0
H763 H 0.04057 0.20855 0.52621 0.0
H764 H 0.03576 0.23887 0.48656 0.0
H765 H 0.10538 0.16331 0.26451 0.0
H766 H 0.09005 0.15166 0.35776 0.0
H767 H 0.0751 0.15143 0.25645 0.0
H768 H 0.03101 0.13067 0.56447 0.0
H769 H 0.98711 0.14901 0.34974 0.0
H770 H 0.06423 0.17268 0.58705 0.0
H771 H 0.08455 0.16789 0.49924 0.0
H772 H 0.07437 0.14272 0.56341 0.0
H773 H 0.01502 0.19842 0.28089 0.0
H774 H 1.00204 0.17155 0.23556 0.0
H775 H 0.03413 0.17688 0.22811 0.0
C776 C 0.32306 0.09632 0.20315 0.0
C777 C 0.31044 0.07482 0.22092 0.0
C778 C 0.34584 0.1006 0.23979 0.0
C779 C 0.3556 0.08312 0.29544 0.0
C780 C 0.34022 0.06487 0.32885 0.0
C781 C 0.31754 0.0609 0.29086 0.0
C782 C 0.36103 0.12136 0.20748 0.0
C783 C 0.34944 0.04668 0.39225 0.0
C784 C 0.41624 0.05776 0.22739 0.0
C785 C 0.43116 0.06462 0.2945 0.0
C786 C 0.39175 0.06422 0.22658 0.0
C787 C 0.38218 0.07864 0.29342 0.0
C788 C 0.39774 0.08697 0.35868 0.0
C789 C 0.42207 0.07944 0.35929 0.0
C790 C 0.37609 0.05477 0.15519 0.0
C791 C 0.38876 0.10275 0.43016 0.0
H792 H 0.31715 0.10758 0.15075 0.0
H793 H 0.3075 0.0446 0.30643 0.0
H794 H 0.37346 0.12811 0.25761 0.0
H795 H 0.37221 0.11508 0.15311 0.0
H796 H 0.34946 0.13647 0.18508 0.0
H797 H 0.33431 0.03686 0.42388 0.0
H798 H 0.36097 0.03324 0.35889 0.0
H799 H 0.3607 0.05563 0.44138 0.0
H800 H 0.42344 0.04611 0.17802 0.0
H801 H 0.43379 0.0845 0.41166 0.0
H802 H 0.37197 0.06979 0.11085 0.0
H803 H 0.35874 0.04733 0.17941 0.0
H804 H 0.38514 0.04017 0.11909 0.0
H805 H 0.40332 0.11517 0.45217 0.0
H806 H 0.38355 0.09114 0.48478 0.0
H807 H 0.37276 0.11362 0.41145 0.0
C808 C 0.47597 0.33919 0.28404 0.0
C809 C 0.486 0.31605 0.27492 0.0
C810 C 0.48376 0.35431 0.34984 0.0
C811 C 0.50034 0.34509 0.41005 0.0
C812 C 0.50441 0.31995 0.4144 0.0
C813 C 0.49778 0.3056 0.3449 0.0
C814 C 0.47789 0.38092 0.34516 0.0
C815 C 0.51944 0.3091 0.48451 0.0
C816 C 0.5582 0.38137 0.42603 0.0
C817 C 0.55319 0.39647 0.49469 0.0
C818 C 0.54113 0.36439 0.39866 0.0
C819 C 0.51904 0.3616 0.44447 0.0
C820 C 0.51452 0.37599 0.51693 0.0
C821 C 0.53138 0.39387 0.53953 0.0
C822 C 0.5464 0.35038 0.31814 0.0
C823 C 0.4923 0.37248 0.57162 0.0
H824 H 0.46525 0.34674 0.23289 0.0
H825 H 0.50468 0.28731 0.34125 0.0
H826 H 0.47366 0.38822 0.40903 0.0
H827 H 0.49391 0.3909 0.32031 0.0
H828 H 0.46228 0.38451 0.30252 0.0
H829 H 0.51489 0.2897 0.4938 0.0
H830 H 0.53894 0.3104 0.46758 0.0
H831 H 0.51658 0.31898 0.54514 0.0
H832 H 0.57489 0.3839 0.3905 0.0
H833 H 0.52738 0.406 0.59159 0.0
H834 H 0.5312 0.35225 0.27253 0.0
H835 H 0.54843 0.3309 0.33303 0.0
H836 H 0.56329 0.35658 0.28619 0.0
H837 H 0.48672 0.38976 0.60173 0.0
H838 H 0.49685 0.35949 0.62281 0.0
H839 H 0.47668 0.36491 0.53618 0.0
C840 C 0.22447 0.47391 0.27265 0.0
C841 C 0.22951 0.46101 0.19805 0.0
C842 C 0.20161 0.47194 0.31119 0.0
C843 C 0.18409 0.45634 0.27471 0.0
C844 C 0.1917 0.43872 0.21546 0.0
C845 C 0.2146 0.44124 0.17718 0.0
C846 C 0.19484 0.48982 0.37951 0.0
C847 C 0.17429 0.42 0.18196 0.0
C848 C 0.12074 0.47254 0.34933 0.0
C849 C 0.1147 0.49051 0.28985 0.0
C850 C 0.14238 0.45933 0.34182 0.0
C851 C 0.15842 0.46455 0.27401 0.0
C852 C 0.1512 0.48111 0.20994 0.0
C853 C 0.12947 0.49377 0.21862 0.0
C854 C 0.14833 0.44095 0.4093 0.0
C855 C 0.16717 0.48695 0.13482 0.0
H856 H 0.23636 0.48859 0.29167 0.0
H857 H 0.21894 0.43041 0.12179 0.0
H858 H 0.18387 0.50457 0.35124 0.0
H859 H 0.18373 0.48094 0.42936 0.0
H860 H 0.21112 0.49799 0.40967 0.0
H861 H 0.18414 0.40374 0.15928 0.0
H862 H 0.16099 0.41458 0.23156 0.0
H863 H 0.16412 0.42762 0.12745 0.0
H864 H 0.10905 0.46944 0.40371 0.0
H865 H 0.12502 0.50758 0.1724 0.0
H866 H 0.15381 0.45047 0.46829 0.0
H867 H 0.16311 0.42855 0.38987 0.0
H868 H 0.13198 0.43003 0.42493 0.0
H869 H 0.15881 0.50041 0.09197 0.0
H870 H 0.17056 0.47034 0.09747 0.0
H871 H 0.18478 0.49434 0.15686 0.0
C872 C 0.95555 0.82714 0.0719 0.0
C873 C 0.9675 0.80496 0.08254 0.0
C874 C 0.95964 0.84091 0.99849 0.0
C875 C 0.97441 0.83116 0.93347 0.0
C876 C 0.97947 0.80618 0.93366 0.0
C877 C 0.97656 0.7933 0.00964 0.0
C878 C 0.95257 0.86723 0.99917 0.0
C879 C 0.99267 0.79448 0.86061 0.0
C880 C 1.00303 0.87584 0.77896 0.0
C881 C 0.02544 0.8797 0.81818 0.0
C882 C 0.98631 0.85924 0.81319 0.0
C883 C 0.99194 0.84743 0.89045 0.0
C884 C 0.01467 0.85173 0.93039 0.0
C885 C 0.03125 0.8675 0.89266 0.0
C886 C 0.96304 0.85425 0.76595 0.0
C887 C 0.02142 0.84034 0.01451 0.0
H888 H 0.9464 0.83542 0.12547 0.0
H889 H 0.98468 0.77555 0.01407 0.0
H890 H 0.9679 0.87808 0.02459 0.0
H891 H 0.94855 0.87386 0.93431 0.0
H892 H 0.93652 0.87036 0.04045 0.0
H893 H 0.98885 0.77476 0.85822 0.0
H894 H 0.98742 0.80285 0.79926 0.0
H895 H 0.0125 0.79697 0.8691 0.0
H896 H 0.99849 0.88609 0.72249 0.0
H897 H 0.04847 0.87119 0.92336 0.0
H898 H 0.94765 0.85062 0.80957 0.0
H899 H 0.96555 0.83789 0.72616 0.0
H900 H 0.95821 0.86949 0.72327 0.0
H901 H 1.00726 0.84405 0.06286 0.0
H902 H 0.03898 0.84721 0.03931 0.0
H903 H 0.02296 0.82047 0.00719 0.0
C904 C 0.70634 0.0378 0.08552 0.0
C905 C 0.72265 0.01859 0.09147 0.0
C906 C 0.68513 0.03525 0.03809 0.0
C907 C 0.68165 0.01386 0.98976 0.0
C908 C 0.70119 0.99761 0.97879 0.0
C909 C 0.72143 0.99973 0.03227 0.0
C910 C 0.66496 0.05326 0.05291 0.0
C911 C 0.69948 0.97628 0.91952 0.0
C912 C 0.61968 0.99094 0.04456 0.0
C913 C 0.60561 1.00588 0.99249 0.0
C914 C 0.64501 0.99133 0.0391 0.0
C915 C 0.65641 1.00558 0.9754 0.0
C916 C 0.6422 0.01666 0.91224 0.0
C917 C 0.61701 0.01749 0.9231 0.0
C918 C 0.65936 0.97868 0.10765 0.0
C919 C 0.6536 0.02958 0.83761 0.0
H920 H 0.70799 0.05275 0.12979 0.0
H921 H 0.73458 0.98521 0.03466 0.0
H922 H 0.65821 0.06043 0.99185 0.0
H923 H 0.64953 0.04426 0.08566 0.0
H924 H 0.67088 0.06883 0.09242 0.0
H925 H 0.71705 0.9737 0.88617 0.0
H926 H 0.69587 0.95958 0.95653 0.0
H927 H 0.68493 0.97859 0.87157 0.0
H928 H 0.61112 0.98038 0.09423 0.0
H929 H 0.60686 0.02883 0.88026 0.0
H930 H 0.67038 0.99203 0.14352 0.0
H931 H 0.67194 0.96545 0.07873 0.0
H932 H 0.64757 0.9689 0.15361 0.0
H933 H 0.65818 0.04844 0.85508 0.0
H934 H 0.64089 0.03041 0.78305 0.0
H935 H 0.67057 0.02048 0.81739 0.0
C936 C 0.53894 0.71349 0.04375 0.0
C937 C 0.52735 0.73411 0.07505 0.0
C938 C 0.53034 0.70195 0.97074 0.0
C939 C 0.50956 0.71122 0.92949 0.0
C940 C 0.4995 0.73349 0.95545 0.0
C941 C 0.50855 0.74472 0.02838 0.0
C942 C 0.54186 0.67847 0.94332 0.0
C943 C 0.47752 0.74404 0.91237 0.0
C944 C 0.48914 0.67579 0.73723 0.0
C945 C 0.47392 0.65871 0.77581 0.0
C946 C 0.49995 0.69417 0.78543 0.0
C947 C 0.49545 0.69505 0.87381 0.0
C948 C 0.47884 0.67871 0.91177 0.0
C949 C 0.46824 0.66072 0.86204 0.0
C950 C 0.51717 0.71163 0.74278 0.0
C951 C 0.47325 0.67932 0.00585 0.0
H952 H 0.55382 0.70565 0.07915 0.0
H953 H 0.49961 0.76075 0.05255 0.0
H954 H 0.52998 0.66315 0.96229 0.0
H955 H 0.54391 0.67786 0.87324 0.0
H956 H 0.55994 0.67583 0.97287 0.0
H957 H 0.47557 0.76362 0.92644 0.0
H958 H 0.47843 0.74153 0.84253 0.0
H959 H 0.46101 0.73459 0.93564 0.0
H960 H 0.49361 0.67398 0.67068 0.0
H961 H 0.45613 0.64762 0.89116 0.0
H962 H 0.53611 0.70612 0.75626 0.0
H963 H 0.5148 0.73022 0.76778 0.0
H964 H 0.51461 0.71192 0.67277 0.0
H965 H 0.48978 0.67467 0.04239 0.0
H966 H 0.45863 0.66642 0.02376 0.0
H967 H 0.46765 0.69775 0.02529 0.0
C968 C 0.83381 0.57937 0.08202 0.0
C969 C 0.81149 0.56712 0.08732 0.0
C970 C 0.85006 0.57402 0.0161 0.0
C971 C 0.84269 0.55773 0.95187 0.0
C972 C 0.81787 0.55157 0.94461 0.0
C973 C 0.80247 0.55592 0.01379 0.0
C974 C 0.87613 0.58185 0.02568 0.0
C975 C 0.8088 0.53604 0.87258 0.0
C976 C 0.88705 0.52672 0.80209 0.0
C977 C 0.89015 0.50469 0.84449 0.0
C978 C 0.87219 0.54482 0.83711 0.0
C979 C 0.86067 0.5406 0.91621 0.0
C980 C 0.86499 0.51871 0.96081 0.0
C981 C 0.87943 0.50094 0.92366 0.0
C982 C 0.86831 0.56799 0.78862 0.0
C983 C 0.85403 0.5137 0.04731 0.0
H984 H 0.84023 0.58967 0.13614 0.0
H985 H 0.78479 0.54732 0.01445 0.0
H986 H 0.88604 0.58174 0.96439 0.0
H987 H 0.87722 0.60024 0.05384 0.0
H988 H 0.88542 0.56921 0.06962 0.0
H989 H 0.78897 0.53833 0.8633 0.0
H990 H 0.81835 0.54048 0.81243 0.0
H991 H 0.81227 0.51675 0.88759 0.0
H992 H 0.89586 0.52957 0.74125 0.0
H993 H 0.88244 0.48398 0.9566 0.0
H994 H 0.86801 0.58386 0.83161 0.0
H995 H 0.85043 0.56724 0.75669 0.0
H996 H 0.8826 0.57086 0.7398 0.0
H997 H 0.85784 0.5289 0.09134 0.0
H998 H 0.86118 0.49686 0.07629 0.0
H999 H 0.83407 0.51183 0.0417 0.0
C1000 C 0.05117 0.19616 0.92821 0.0
C1001 C 0.03217 0.20681 0.9749 0.0
C1002 C 0.04841 0.17361 0.88611 0.0
C1003 C 0.02617 0.16064 0.89116 0.0
C1004 C 1.00659 0.17175 0.93548 0.0
C1005 C 1.00982 0.19447 0.97665 0.0
C1006 C 0.06978 0.16314 0.83895 0.0
C1007 C 0.9824 0.15912 0.94247 0.0
C1008 C 0.01656 0.1074 0.7331 0.0
C1009 C 0.02268 0.08687 0.78165 0.0
C1010 C 0.01672 0.13118 0.76823 0.0
C1011 C 0.02394 0.13512 0.85385 0.0
C1012 C 0.02973 0.11446 0.90342 0.0
C1013 C 0.02861 0.09093 0.86753 0.0
C1014 C 1.00934 0.15216 0.71303 0.0
C1015 C 0.03745 0.11721 0.99485 0.0
H1016 H 0.06872 0.20504 0.92787 0.0
H1017 H 0.99518 0.20193 0.01438 0.0
H1018 H 0.07547 0.14602 0.86968 0.0
H1019 H 0.06452 0.15877 0.77266 0.0
H1020 H 0.08553 0.17571 0.83744 0.0
H1021 H 0.96837 0.1708 0.97204 0.0
H1022 H 0.97604 0.15343 0.87866 0.0
H1023 H 0.98434 0.14254 0.98147 0.0
H1024 H 0.0113 0.1049 0.66754 0.0
H1025 H 0.03253 0.07564 0.9074 0.0
H1026 H 0.02584 0.16094 0.68672 0.0
H1027 H 0.99926 0.166 0.74976 0.0
H1028 H 0.99773 0.14616 0.65961 0.0
H1029 H 0.05458 0.12774 0.99792 0.0
H1030 H 0.04033 0.09952 0.02652 0.0
H1031 H 0.02356 0.12741 0.03104 0.0
C1032 C 0.33605 0.01234 0.94786 0.0
C1033 C 0.32432 0.03489 0.9494 0.0
C1034 C 0.3583 1.00893 0.90349 0.0
C1035 C 0.36948 0.02851 0.85928 0.0
C1036 C 0.35696 0.0509 0.85692 0.0
C1037 C 0.33482 0.05377 0.90156 0.0
C1038 C 0.37058 0.98466 0.90825 0.0
C1039 C 0.36777 0.07246 0.81178 0.0
C1040 C 0.43928 0.03089 0.83856 0.0
C1041 C 0.44359 0.02429 0.75344 0.0
C1042 C 0.4156 0.03208 0.87312 0.0
C1043 C 0.39506 0.02642 0.82242 0.0
C1044 C 0.39921 0.01962 0.73638 0.0
C1045 C 0.42322 0.01865 0.70314 0.0
C1046 C 0.41266 0.03923 0.96494 0.0
C1047 C 0.37821 0.01345 0.67908 0.0
H1048 H 0.32866 0.99774 0.98598 0.0
H1049 H 0.32632 0.07142 0.90319 0.0
H1050 H 0.3769 0.97895 0.84438 0.0
H1051 H 0.38678 0.98605 0.94965 0.0
H1052 H 0.35837 0.97048 0.93444 0.0
H1053 H 0.35492 0.08786 0.80839 0.0
H1054 H 0.3843 0.07853 0.84594 0.0
H1055 H 0.37333 0.0675 0.74631 0.0
H1056 H 0.45455 0.03524 0.87905 0.0
H1057 H 0.42599 0.01347 0.63745 0.0
H1058 H 0.40581 0.02345 1.00132 0.0
H1059 H 0.3992 0.05398 0.97118 0.0
H1060 H 0.42999 0.0453 0.99398 0.0
H1061 H 0.36729 0.99862 0.70752 0.0
H1062 H 0.38426 1.00784 0.61469 0.0
H1063 H 0.36612 0.02935 0.67273 0.0
C1064 C 0.49697 0.34055 0.91372 0.0
C1065 C 0.5124 0.33466 0.9817 0.0
C1066 C 0.49869 0.36311 0.87015 0.0
C1067 C 0.51623 0.38082 0.89456 0.0
C1068 C 0.53228 0.37462 0.96172 0.0
C1069 C 0.53019 0.35195 0.00375 0.0
C1070 C 0.48032 0.36838 0.80202 0.0
C1071 C 0.55072 0.39266 0.99361 0.0
C1072 C 0.5329 0.43508 0.74691 0.0
C1073 C 0.51813 0.45404 0.77739 0.0
C1074 C 0.53259 0.41153 0.78415 0.0
C1075 C 0.51701 0.40614 0.85392 0.0
C1076 C 0.50229 0.42523 0.88541 0.0
C1077 C 0.50307 0.44857 0.84743 0.0
C1078 C 0.54893 0.39222 0.74831 0.0
C1079 C 0.48555 0.42102 0.95991 0.0
H1080 H 0.48245 0.3281 0.89776 0.0
H1081 H 0.54169 0.34825 0.05797 0.0
H1082 H 0.46354 0.37531 0.83232 0.0
H1083 H 0.48687 0.38216 0.75627 0.0
H1084 H 0.47546 0.35164 0.76688 0.0
H1085 H 0.56304 0.38471 0.04181 0.0
H1086 H 0.5618 0.39977 0.94026 0.0
H1087 H 0.54119 0.40826 0.02267 0.0
H1088 H 0.54492 0.43861 0.69377 0.0
H1089 H 0.49179 0.46264 0.87341 0.0
H1090 H 0.53766 0.37753 0.72074 0.0
H1091 H 0.56002 0.38404 0.79939 0.0
H1092 H 0.56134 0.39937 0.69859 0.0
H1093 H 0.471 0.4082 0.94118 0.0
H1094 H 0.47702 0.43799 0.98265 0.0
H1095 H 0.49561 0.41271 0.01341 0.0
C1096 C 0.19453 0.527 0.98839 0.0
C1097 C 0.21138 0.5103 0.95572 0.0
C1098 C 0.17099 0.52977 0.95272 0.0
C1099 C 0.16377 0.51581 0.88109 0.0
C1100 C 0.18123 0.4999 0.84511 0.0
C1101 C 0.20441 0.49707 0.88329 0.0
C1102 C 0.15316 0.54637 0.99595 0.0
C1103 C 0.17493 0.48472 0.7687 0.0
C1104 C 0.09586 0.50048 0.84298 0.0
C1105 C 0.08832 0.51802 0.78407 0.0
C1106 C 0.11987 0.49969 0.87546 0.0
C1107 C 0.13769 0.51662 0.84738 0.0
C1108 C 0.13037 0.53412 0.78633 0.0
C1109 C 0.106 0.53482 0.75667 0.0
C1110 C 0.12557 0.48104 0.94248 0.0
C1111 C 0.14847 0.55202 0.75112 0.0
H1112 H 0.1991 0.53662 0.04621 0.0
H1113 H 0.21674 0.48352 0.85878 0.0
H1114 H 0.14647 0.56008 0.95035 0.0
H1115 H 0.13719 0.5358 0.01797 0.0
H1116 H 0.16124 0.55583 0.0514 0.0
H1117 H 0.19103 0.47532 0.74214 0.0
H1118 H 0.16123 0.47092 0.78699 0.0
H1119 H 0.16681 0.49614 0.71831 0.0
H1120 H 0.08289 0.48736 0.86505 0.0
H1121 H 0.10089 0.54843 0.71059 0.0
H1122 H 0.1226 0.48922 0.00599 0.0
H1123 H 0.14463 0.4748 0.93907 0.0
H1124 H 0.11342 0.46506 0.93726 0.0
H1125 H 0.1557 0.56349 0.80304 0.0
H1126 H 0.14042 0.56393 0.70191 0.0
H1127 H 0.16406 0.54224 0.7228 0.0
C1128 C 1.00735 0.83289 0.44043 0.0
C1129 C 1.00623 0.83365 0.35109 0.0
C1130 C 0.01088 0.85425 0.49001 0.0
C1131 C 0.0125 0.8775 0.45076 0.0
C1132 C 0.01227 0.87819 0.36068 0.0
C1133 C 1.00994 0.85658 0.3129 0.0
C1134 C 0.01192 0.85179 0.58497 0.0
C1135 C 0.01353 0.90202 0.31401 0.0
C1136 C 0.99407 0.93641 0.56928 0.0
C1137 C 0.01634 0.94833 0.58263 0.0
C1138 C 0.99259 0.91342 0.52884 0.0
C1139 C 0.01394 0.90116 0.502 0.0
C1140 C 0.03657 0.91266 0.51874 0.0
C1141 C 0.03748 0.93587 0.55785 0.0
C1142 C 0.96794 0.90254 0.51268 0.0
C1143 C 0.06 0.90038 0.49507 0.0
H1144 H 1.00472 0.81569 0.47214 0.0
H1145 H 1.01042 0.8579 0.24428 0.0
H1146 H 0.02489 0.86493 0.61278 0.0
H1147 H 0.99364 0.85547 0.61111 0.0
H1148 H 0.01722 0.83326 0.60457 0.0
H1149 H 0.01322 0.89973 0.24391 0.0
H1150 H 0.99791 0.91343 0.33288 0.0
H1151 H 0.03026 0.91199 0.33154 0.0
H1152 H 0.9776 0.94514 0.5903 0.0
H1153 H 0.05492 0.94443 0.56809 0.0
H1154 H 0.96708 0.88389 0.53843 0.0
H1155 H 0.96479 0.90139 0.44316 0.0
H1156 H 0.95313 0.91332 0.54173 0.0
H1157 H 0.0612 0.88273 0.52837 0.0
H1158 H 0.07614 0.91145 0.51166 0.0
H1159 H 0.06047 0.89659 0.42591 0.0
C1160 C 0.70167 0.02647 0.44529 0.0
C1161 C 0.70791 1.00637 0.39506 0.0
C1162 C 0.67897 0.02788 0.48832 0.0
C1163 C 0.66154 1.00895 0.48046 0.0
C1164 C 0.66824 0.98817 0.43287 0.0
C1165 C 0.69105 0.9872 0.3911 0.0
C1166 C 0.67305 0.05036 0.5383 0.0
C1167 C 0.65066 0.96748 0.42118 0.0
C1168 C 0.60561 1.00594 0.63071 0.0
C1169 C 0.58692 0.01573 0.58057 0.0
C1170 C 0.62971 1.00356 0.59941 0.0
C1171 C 0.63583 0.01158 0.51612 0.0
C1172 C 0.61705 0.02174 0.46579 0.0
C1173 C 0.59309 0.02358 0.49818 0.0
C1174 C 0.6486 0.99189 0.65494 0.0
C1175 C 0.6222 0.03055 0.37678 0.0
H1176 H 0.71394 0.04181 0.44668 0.0
H1177 H 0.69509 0.97195 0.35021 0.0
H1178 H 0.65837 0.06044 0.50588 0.0
H1179 H 0.6663 0.04546 0.60253 0.0
H1180 H 0.68901 0.06251 0.5451 0.0
H1181 H 0.65948 0.9514 0.39249 0.0
H1182 H 0.64246 0.96217 0.48287 0.0
H1183 H 0.63568 0.97326 0.37893 0.0
H1184 H 0.60128 0.99963 0.69418 0.0
H1185 H 0.57908 0.03135 0.45856 0.0
H1186 H 0.66433 1.00424 0.66276 0.0
H1187 H 0.65543 0.97522 0.62398 0.0
H1188 H 0.64137 0.98704 0.71866 0.0
H1189 H 0.63679 0.04439 0.37797 0.0
H1190 H 0.60592 0.03848 0.34614 0.0
H1191 H 0.62873 0.01534 0.33698 0.0
C1192 C 0.51156 0.70732 0.41877 0.0
C1193 C 0.53349 0.71479 0.38105 0.0
C1194 C 0.50918 0.68469 0.46139 0.0
C1195 C 0.52928 0.66854 0.4679 0.0
C1196 C 0.55161 0.67633 0.43122 0.0
C1197 C 0.55336 0.69897 0.38855 0.0
C1198 C 0.48439 0.67806 0.49446 0.0
C1199 C 0.57333 0.65987 0.43086 0.0
C1200 C 0.53318 0.61489 0.62878 0.0
C1201 C 0.52379 0.59516 0.58258 0.0
C1202 C 0.53477 0.63859 0.59363 0.0
C1203 C 0.52695 0.64328 0.50883 0.0
C1204 C 0.51713 0.62341 0.4625 0.0
C1205 C 0.51537 0.60003 0.49992 0.0
C1206 C 0.54564 0.65822 0.64806 0.0
C1207 C 0.50887 0.62672 0.37203 0.0
H1208 H 0.49568 0.71858 0.41064 0.0
H1209 H 0.57013 0.70377 0.35659 0.0
H1210 H 0.4714 0.67747 0.44071 0.0
H1211 H 0.48388 0.66039 0.52732 0.0
H1212 H 0.47794 0.69233 0.53861 0.0
H1213 H 0.58977 0.66883 0.4046 0.0
H1214 H 0.57738 0.65348 0.49604 0.0
H1215 H 0.56918 0.64374 0.39159 0.0
H1216 H 0.53975 0.61179 0.6927 0.0
H1217 H 0.50747 0.58537 0.46367 0.0
H1218 H 0.56568 0.65654 0.64686 0.0
H1219 H 0.53978 0.65609 0.71523 0.0
H1220 H 0.54079 0.6766 0.626 0.0
H1221 H 0.49394 0.64008 0.36965 0.0
H1222 H 0.50236 0.60957 0.34318 0.0
H1223 H 0.52405 0.63393 0.33299 0.0
C1224 C 0.85479 0.52083 0.32961 0.0
C1225 C 0.83367 0.53141 0.36416 0.0
C1226 C 0.8767 0.51887 0.37616 0.0
C1227 C 0.87814 0.52756 0.46091 0.0
C1228 C 0.85655 0.53712 0.4977 0.0
C1229 C 0.83477 0.53897 0.44937 0.0
C1230 C 0.89866 0.50812 0.33324 0.0
C1231 C 0.8567 0.54628 0.58758 0.0
C1232 C 0.9329 0.50686 0.59834 0.0
C1233 C 0.94945 0.52613 0.59001 0.0
C1234 C 0.90976 0.50716 0.55831 0.0
C1235 C 0.90239 0.5274 0.50882 0.0
C1236 C 0.91898 0.54709 0.50166 0.0
C1237 C 0.94206 0.54617 0.54165 0.0
C1238 C 0.89327 0.48558 0.56875 0.0
C1239 C 0.91261 0.5691 0.44983 0.0
H1240 H 0.85444 0.5149 0.26396 0.0
H1241 H 0.81895 0.5475 0.47705 0.0
H1242 H 0.91316 0.522 0.32789 0.0
H1243 H 0.90595 0.49308 0.37213 0.0
H1244 H 0.8945 0.50117 0.26865 0.0
H1245 H 0.83869 0.55318 0.60779 0.0
H1246 H 0.86215 0.53152 0.63116 0.0
H1247 H 0.87026 0.56103 0.59369 0.0
H1248 H 0.93837 0.49109 0.6341 0.0
H1249 H 0.95435 0.56133 0.53531 0.0
H1250 H 0.90329 0.46947 0.59163 0.0
H1251 H 0.88425 0.48086 0.50804 0.0
H1252 H 0.8789 0.49 0.6156 0.0
H1253 H 0.91214 0.56418 0.38151 0.0
H1254 H 0.92591 0.58401 0.45844 0.0
H1255 H 0.89432 0.57578 0.4674 0.0
loop_
_geom_bond_atom_site_label_1
_geom_bond_atom_site_label_2
_geom_bond_distance
_geom_bond_site_symmetry_2
_ccdc_geom_bond_type
H0 C1 0.949 . S
C1 H0 0.949 . S
C1 C2 1.395 . S
C1 C3 1.391 . S
C2 C1 1.395 . S
C2 C5 1.390 . S
C3 C1 1.391 . S
C3 C7 1.387 . S
C3 C8 1.491 . S
H4 C5 0.950 . S
C5 C2 1.390 . S
C5 H4 0.950 . S
C5 C6 1.378 . S
C6 C5 1.378 . S
C6 C7 1.409 . S
C7 C3 1.387 . S
C7 C6 1.409 . S
C7 H9 0.951 . S
C8 C3 1.491 . S
C8 C10 1.382 . S
C8 C12 1.404 . S
H9 C7 0.951 . S
C10 C8 1.382 . S
C10 C11 1.390 . S
C10 H15 0.949 . S
C11 C10 1.390 . S
C11 C16 1.399 . S
C12 C8 1.404 . S
C12 H13 0.950 . S
C12 C14 1.375 . S
H13 C12 0.950 . S
C14 C12 1.375 . S
C14 C16 1.382 . S
C14 H18 0.950 . S
H15 C10 0.949 . S
C16 C11 1.399 . S
C16 C14 1.382 . S
C16 H17 0.952 . S
H17 C16 0.952 . S
H18 C14 0.950 . S
H19 C20 0.949 . S
C20 H19 0.949 . S
C20 C21 1.395 . S
C20 C22 1.391 . S
C21 C20 1.395 . S
C21 C24 1.390 . S
C22 C20 1.391 . S
C22 C26 1.387 . S
C22 C27 1.491 . S
H23 C24 0.950 . S
C24 C21 1.390 . S
C24 H23 0.950 . S
C24 C25 1.378 . S
C25 C24 1.378 . S
C25 C26 1.409 . S
C26 C22 1.387 . S
C26 C25 1.409 . S
C26 H28 0.951 . S
C27 C22 1.491 . S
C27 C29 1.382 . S
C27 C31 1.404 . S
H28 C26 0.951 . S
C29 C27 1.382 . S
C29 C30 1.390 . S
C29 H34 0.949 . S
C30 C29 1.390 . S
C30 C35 1.399 . S
C31 C27 1.404 . S
C31 H32 0.950 . S
C31 C33 1.375 . S
H32 C31 0.950 . S
C33 C31 1.375 . S
C33 C35 1.382 . S
C33 H37 0.950 . S
H34 C29 0.949 . S
C35 C30 1.399 . S
C35 C33 1.382 . S
C35 H36 0.952 . S
H36 C35 0.952 . S
H37 C33 0.950 . S
H38 C39 0.949 . S
C39 H38 0.949 . S
C39 C40 1.395 . S
C39 C41 1.391 . S
C40 C39 1.395 . S
C40 C43 1.390 . S
C41 C39 1.391 . S
C41 C45 1.387 . S
C41 C46 1.491 . S
H42 C43 0.950 . S
C43 C40 1.390 . S
C43 H42 0.950 . S
C43 C44 1.378 . S
C44 C43 1.378 . S
C44 C45 1.409 . S
C45 C41 1.387 . S
C45 C44 1.409 . S
C45 H47 0.951 . S
C46 C41 1.491 . S
C46 C48 1.382 . S
C46 C50 1.404 . S
H47 C45 0.951 . S
C48 C46 1.382 . S
C48 C49 1.390 . S
C48 H53 0.949 . S
C49 C48 1.390 . S
C49 C54 1.399 . S
C50 C46 1.404 . S
C50 H51 0.950 . S
C50 C52 1.375 . S
H51 C50 0.950 . S
C52 C50 1.375 . S
C52 C54 1.382 . S
C52 H56 0.950 . S
H53 C48 0.949 . S
C54 C49 1.399 . S
C54 C52 1.382 . S
C54 H55 0.952 . S
H55 C54 0.952 . S
H56 C52 0.950 . S
H57 C58 0.949 . S
C58 H57 0.949 . S
C58 C59 1.395 . S
C58 C60 1.391 . S
C59 C58 1.395 . S
C59 C62 1.390 . S
C60 C58 1.391 . S
C60 C64 1.387 . S
C60 C65 1.491 . S
H61 C62 0.950 . S
C62 C59 1.390 . S
C62 H61 0.950 . S
C62 C63 1.378 . S
C63 C62 1.378 . S
C63 C64 1.409 . S
C64 C60 1.387 . S
C64 C63 1.409 . S
C64 H66 0.951 . S
C65 C60 1.491 . S
C65 C67 1.382 . S
C65 C69 1.404 . S
H66 C64 0.951 . S
C67 C65 1.382 . S
C67 C68 1.390 . S
C67 H72 0.949 . S
C68 C67 1.390 . S
C68 C73 1.399 . S
C69 C65 1.404 . S
C69 H70 0.950 . S
C69 C71 1.375 . S
H70 C69 0.950 . S
C71 C69 1.375 . S
C71 C73 1.382 . S
C71 H75 0.950 . S
H72 C67 0.949 . S
C73 C68 1.399 . S
C73 C71 1.382 . S
C73 H74 0.952 . S
H74 C73 0.952 . S
H75 C71 0.950 . S
H76 C77 0.949 . S
C77 H76 0.949 . S
C77 C78 1.395 . S
C77 C79 1.391 . S
C78 C77 1.395 . S
C78 C81 1.390 1_554 S
C79 C77 1.391 . S
C79 C83 1.387 1_554 S
C79 C84 1.491 . S
H80 C81 0.950 . S
C81 C78 1.390 1_556 S
C81 H80 0.950 . S
C81 C82 1.378 . S
C82 C81 1.378 . S
C82 C83 1.409 . S
C83 C79 1.387 1_556 S
C83 C82 1.409 . S
C83 H85 0.951 . S
C84 C79 1.491 . S
C84 C86 1.382 . S
C84 C88 1.404 1_554 S
H85 C83 0.951 . S
C86 C84 1.382 . S
C86 C87 1.390 . S
C86 H91 0.949 . S
C87 C86 1.390 . S
C87 C92 1.399 . S
C88 C84 1.404 1_556 S
C88 H89 0.950 . S
C88 C90 1.375 . S
H89 C88 0.950 . S
C90 C88 1.375 . S
C90 C92 1.382 1_556 S
C90 H94 0.950 . S
H91 C86 0.949 . S
C92 C87 1.399 . S
C92 C90 1.382 1_554 S
C92 H93 0.952 . S
H93 C92 0.952 . S
H94 C90 0.950 . S
H95 C96 0.949 . S
C96 H95 0.949 . S
C96 C97 1.395 . S
C96 C98 1.391 . S
C97 C96 1.395 . S
C97 C100 1.390 1_554 S
C98 C96 1.391 . S
C98 C102 1.387 1_554 S
C98 C103 1.491 . S
H99 C100 0.950 . S
C100 C97 1.390 1_556 S
C100 H99 0.950 . S
C100 C101 1.378 . S
C101 C100 1.378 . S
C101 C102 1.409 . S
C102 C98 1.387 1_556 S
C102 C101 1.409 . S
C102 H104 0.951 . S
C103 C98 1.491 . S
C103 C105 1.382 . S
C103 C107 1.404 1_554 S
H104 C102 0.951 . S
C105 C103 1.382 . S
C105 C106 1.390 . S
C105 H110 0.949 . S
C106 C105 1.390 . S
C106 C111 1.399 . S
C107 C103 1.404 1_556 S
C107 H108 0.956 . S
C107 C109 1.375 . S
H108 C107 0.956 . S
C109 C107 1.375 . S
C109 C111 1.382 1_556 S
C109 H113 0.950 1_455 S
H110 C105 0.949 . S
C111 C106 1.399 . S
C111 C109 1.382 1_554 S
C111 H112 0.952 . S
H112 C111 0.952 . S
H113 C109 0.950 1_655 S
H114 C115 0.949 . S
C115 H114 0.949 . S
C115 C116 1.395 . S
C115 C117 1.391 . S
C116 C115 1.395 . S
C116 C119 1.390 1_554 S
C117 C115 1.391 . S
C117 C121 1.387 1_554 S
C117 C122 1.491 . S
H118 C119 0.950 . S
C119 C116 1.390 1_556 S
C119 H118 0.950 . S
C119 C120 1.378 . S
C120 C119 1.378 . S
C120 C121 1.409 . S
C121 C117 1.387 1_556 S
C121 C120 1.409 . S
C121 H123 0.951 . S
C122 C117 1.491 . S
C122 C124 1.382 . S
C122 C126 1.404 1_554 S
H123 C121 0.951 . S
C124 C122 1.382 . S
C124 C125 1.390 . S
C124 H129 0.949 . S
C125 C124 1.390 . S
C125 C130 1.399 . S
C126 C122 1.404 1_556 S
C126 H127 0.950 . S
C126 C128 1.375 . S
H127 C126 0.950 . S
C128 C126 1.375 . S
C128 C130 1.382 1_556 S
C128 H132 0.950 1_545 S
H129 C124 0.949 . S
C130 C125 1.399 . S
C130 C128 1.382 1_554 S
C130 H131 0.952 . S
H131 C130 0.952 . S
H132 C128 0.950 1_565 S
H133 C134 0.949 . S
C134 H133 0.949 . S
C134 C135 1.395 . S
C134 C136 1.391 . S
C135 C134 1.395 . S
C135 C138 1.390 1_554 S
C136 C134 1.391 . S
C136 C140 1.387 1_554 S
C136 C141 1.491 . S
H137 C138 0.950 . S
C138 C135 1.390 1_556 S
C138 H137 0.950 . S
C138 C139 1.378 . S
C139 C138 1.378 . S
C139 C140 1.409 . S
C140 C136 1.387 1_556 S
C140 C139 1.409 . S
C140 H142 0.951 . S
C141 C136 1.491 . S
C141 C143 1.382 . S
C141 C145 1.404 1_554 S
H142 C140 0.951 . S
C143 C141 1.382 . S
C143 C144 1.390 . S
C143 H148 0.949 . S
C144 C143 1.390 . S
C144 C149 1.399 . S
C145 C141 1.404 1_556 S
C145 H146 0.950 . S
C145 C147 1.375 . S
H146 C145 0.950 . S
C147 C145 1.375 . S
C147 C149 1.382 1_556 S
C147 H151 0.950 . S
H148 C143 0.949 . S
C149 C144 1.399 . S
C149 C147 1.382 1_554 S
C149 H150 0.952 . S
H150 C149 0.952 . S
H151 C147 0.950 . S
C152 C154 1.422 . S
C152 C156 1.415 . S
C152 N158 1.369 . S
C153 C154 1.421 1_554 S
C153 C155 1.417 . S
C153 C165 1.422 . S
C154 C152 1.422 . S
C154 C153 1.421 1_556 S
C154 N164 1.359 . S
C155 C153 1.417 . S
C155 C157 1.329 . S
C155 H174 0.930 . S
C156 C152 1.415 . S
C156 C157 1.437 1_556 S
C156 C160 1.413 . S
C157 C155 1.329 . S
C157 C156 1.437 1_554 S
C157 H179 0.929 . S
N158 C152 1.369 . S
N158 C159 1.338 . S
N158 Gd163 2.622 1_545 S
C159 N158 1.338 . S
C159 C161 1.378 . S
C159 H171 0.929 1_545 S
C160 C156 1.413 . S
C160 C161 1.348 . S
C160 H176 0.931 . S
C161 C159 1.378 . S
C161 C160 1.348 . S
C161 H177 0.930 . S
Gd162 N182 2.622 . S
Gd162 N189 2.570 . S
Gd162 O196 2.353 1_655 S
Gd162 O197 2.468 1_655 S
Gd162 O198 2.427 . S
Gd162 O200 2.388 . S
Gd162 O201 2.386 1_545 S
Gd162 O205 2.307 1_655 S
Gd162 C215 2.805 . S
Gd163 N158 2.622 1_565 S
Gd163 N164 2.570 1_565 S
Gd163 O195 2.386 1_565 S
Gd163 O199 2.307 1_465 S
Gd163 O202 2.353 . S
Gd163 O203 2.468 . S
Gd163 O204 2.427 . S
Gd163 O206 2.393 . S
Gd163 C227 2.805 . S
N164 C154 1.359 . S
N164 Gd163 2.570 1_545 S
N164 C166 1.343 . S
C165 C153 1.422 . S
C165 C167 1.321 . S
C165 H173 0.931 . S
C166 N164 1.343 . S
C166 C167 1.390 1_556 S
C166 H168 0.931 1_455 S
C167 C165 1.321 . S
C167 C166 1.390 1_554 S
C167 H169 0.930 1_455 S
H168 C166 0.931 1_655 S
H169 C167 0.930 1_655 S
H170 C193 0.931 . S
H171 C159 0.929 1_565 S
H172 C194 0.930 . S
H173 C165 0.931 . S
H174 C155 0.930 . S
H175 C184 0.929 . S
H176 C160 0.931 . S
H177 C161 0.930 . S
H178 C216 0.930 . S
H179 C157 0.929 . S
H180 C185 0.931 . S
H181 C186 0.930 . S
N182 Gd162 2.622 . S
N182 C183 1.369 . S
N182 C184 1.338 . S
C183 N182 1.369 . S
C183 C187 1.415 1_545 S
C183 C190 1.422 . S
C184 H175 0.929 . S
C184 N182 1.338 . S
C184 C186 1.378 . S
C185 H180 0.931 . S
C185 C186 1.348 1_565 S
C185 C187 1.413 . S
C186 H181 0.930 . S
C186 C184 1.378 . S
C186 C185 1.348 1_545 S
C187 C183 1.415 1_565 S
C187 C185 1.413 . S
C187 C217 1.437 . S
H188 C217 0.929 . S
N189 Gd162 2.570 . S
N189 C190 1.359 . S
N189 C193 1.343 1_655 S
C190 C183 1.422 . S
C190 N189 1.359 . S
C190 C192 1.421 1_545 S
C191 C192 1.422 . S
C191 C194 1.321 1_655 S
C191 H218 0.931 . S
C192 C190 1.421 1_565 S
C192 C191 1.422 . S
C192 C216 1.417 . S
C193 H170 0.931 . S
C193 N189 1.343 1_455 S
C193 C194 1.390 1_545 S
C194 H172 0.930 . S
C194 C191 1.321 1_455 S
C194 C193 1.390 1_565 S
O195 Gd163 2.386 1_545 S
O195 C207 1.265 . S
O196 Gd162 2.353 1_455 S
O196 C207 1.242 . S
O197 Gd162 2.468 1_455 S
O197 C215 1.263 1_455 S
O198 Gd162 2.427 . S
O198 C215 1.252 . S
O199 Gd163 2.307 1_645 S
O199 C208 1.261 . S
O200 Gd162 2.388 . S
O200 C208 1.252 . S
O201 Gd162 2.386 1_565 S
O201 C219 1.265 . S
O202 Gd163 2.353 . S
O202 C219 1.242 1_455 S
O203 Gd163 2.468 . S
O203 C227 1.263 . S
O204 Gd163 2.427 . S
O204 C227 1.252 . S
O205 Gd162 2.307 1_455 S
O205 C220 1.261 . S
O206 Gd163 2.393 . S
O206 C220 1.227 1_565 S
C207 O195 1.265 . S
C207 O196 1.242 . S
C208 O199 1.261 . S
C208 O200 1.252 . S
C209 C212 1.394 . S
C209 C214 1.370 1_655 S
C209 C215 1.500 . S
C210 C213 1.383 . S
C210 C214 1.395 1_655 S
C211 C212 1.396 . S
C211 C213 1.365 . S
C211 H228 0.929 . S
C212 C209 1.394 . S
C212 C211 1.396 . S
C212 H229 0.930 . S
C213 C210 1.383 . S
C213 C211 1.365 . S
C213 H230 0.931 . S
C214 C209 1.370 1_455 S
C214 C210 1.395 1_455 S
C214 H231 0.930 . S
C215 Gd162 2.805 . S
C215 O197 1.263 1_655 S
C215 O198 1.252 . S
C215 C209 1.500 . S
C216 H178 0.930 . S
C216 C192 1.417 . S
C216 C217 1.329 . S
C217 C187 1.437 . S
C217 H188 0.929 . S
C217 C216 1.329 . S
H218 C191 0.931 . S
C219 O201 1.265 . S
C219 O202 1.242 1_655 S
C220 O205 1.261 . S
C220 O206 1.227 1_545 S
C221 C224 1.394 . S
C221 C226 1.370 . S
C221 C227 1.500 . S
C222 C225 1.383 . S
C222 C226 1.395 . S
C223 C224 1.396 . S
C223 C225 1.365 . S
C223 H232 0.929 . S
C224 C221 1.394 . S
C224 C223 1.396 . S
C224 H233 0.930 . S
C225 C222 1.383 . S
C225 C223 1.365 . S
C225 H234 0.932 . S
C226 C221 1.370 . S
C226 C222 1.395 . S
C226 H235 0.897 1_455 S
C227 Gd163 2.805 . S
C227 O203 1.263 . S
C227 O204 1.252 . S
C227 C221 1.500 . S
H228 C211 0.929 . S
H229 C212 0.930 . S
H230 C213 0.931 . S
H231 C214 0.930 . S
H232 C223 0.929 . S
H233 C224 0.930 . S
H234 C225 0.932 . S
H235 C226 0.897 1_655 S
C236 C238 1.422 . S
C236 C240 1.415 . S
C236 N242 1.369 . S
C237 C238 1.421 . S
C237 C239 1.417 . S
C237 C249 1.422 . S
C238 C236 1.422 . S
C238 C237 1.421 . S
C238 N248 1.359 . S
C239 C237 1.417 . S
C239 C241 1.329 . S
C239 H258 0.930 . S
C240 C236 1.415 . S
C240 C241 1.437 . S
C240 C244 1.413 . S
C241 C239 1.329 . S
C241 C240 1.437 . S
C241 H263 0.929 . S
N242 C236 1.369 . S
N242 C243 1.338 . S
N242 Gd247 2.622 . S
C243 N242 1.338 . S
C243 C245 1.378 . S
C243 H255 0.929 . S
C244 C240 1.413 . S
C244 C245 1.348 . S
C244 H260 0.931 . S
C245 C243 1.378 . S
C245 C244 1.348 . S
C245 H261 0.930 . S
Gd246 N266 2.622 . S
Gd246 N273 2.570 . S
Gd246 O280 2.353 1_545 S
Gd246 O281 2.468 . S
Gd246 O282 2.427 . S
Gd246 O284 2.388 . S
Gd246 O285 2.386 . S
Gd246 O289 2.307 . S
Gd246 C299 2.805 . S
Gd247 N242 2.622 . S
Gd247 N248 2.570 . S
Gd247 O279 2.386 . S
Gd247 O283 2.307 1_565 S
Gd247 O286 2.353 1_565 S
Gd247 O287 2.471 . S
Gd247 O288 2.427 . S
Gd247 O290 2.388 . S
Gd247 C311 2.805 . S
N248 C238 1.359 . S
N248 Gd247 2.570 . S
N248 C250 1.343 . S
C249 C237 1.422 . S
C249 C251 1.321 . S
C249 H257 0.931 . S
C250 N248 1.343 . S
C250 C251 1.390 . S
C250 H252 0.931 . S
C251 C249 1.321 . S
C251 C250 1.390 . S
C251 H253 0.930 . S
H252 C250 0.931 . S
H253 C251 0.930 . S
H254 C277 0.931 . S
H255 C243 0.929 . S
H256 C278 0.930 . S
H257 C249 0.931 . S
H258 C239 0.930 . S
H259 C268 0.929 . S
H260 C244 0.931 . S
H261 C245 0.930 . S
H262 C300 0.930 . S
H263 C241 0.929 . S
H264 C269 0.931 . S
H265 C270 0.930 . S
N266 Gd246 2.622 . S
N266 C267 1.369 . S
N266 C268 1.338 . S
C267 N266 1.369 . S
C267 C271 1.415 . S
C267 C274 1.422 . S
C268 H259 0.929 . S
C268 N266 1.338 . S
C268 C270 1.378 . S
C269 H264 0.931 . S
C269 C270 1.348 . S
C269 C271 1.413 . S
C270 H265 0.930 . S
C270 C268 1.378 . S
C270 C269 1.348 . S
C271 C267 1.415 . S
C271 C269 1.413 . S
C271 C301 1.437 . S
H272 C301 0.929 . S
N273 Gd246 2.570 . S
N273 C274 1.359 . S
N273 C277 1.343 . S
C274 C267 1.422 . S
C274 N273 1.359 . S
C274 C276 1.421 . S
C275 C276 1.422 . S
C275 C278 1.321 . S
C275 H302 0.931 . S
C276 C274 1.421 . S
C276 C275 1.422 . S
C276 C300 1.417 . S
C277 H254 0.931 . S
C277 N273 1.343 . S
C277 C278 1.390 . S
C278 H256 0.930 . S
C278 C275 1.321 . S
C278 C277 1.390 . S
O279 Gd247 2.386 . S
O279 C291 1.265 . S
O280 Gd246 2.353 1_565 S
O280 C291 1.242 . S
O281 Gd246 2.468 . S
O281 C299 1.263 . S
O282 Gd246 2.427 . S
O282 C299 1.252 . S
O283 Gd247 2.307 1_545 S
O283 C292 1.261 . S
O284 Gd246 2.388 . S
O284 C292 1.252 . S
O285 Gd246 2.386 . S
O285 C303 1.265 . S
O286 Gd247 2.353 1_545 S
O286 C303 1.242 . S
O287 Gd247 2.471 . S
O287 C311 1.265 . S
O288 Gd247 2.427 . S
O288 C311 1.252 . S
O289 Gd246 2.307 . S
O289 C304 1.261 . S
O290 Gd247 2.388 . S
O290 C304 1.252 1_565 S
C291 O279 1.265 . S
C291 O280 1.242 . S
C292 O283 1.261 . S
C292 O284 1.252 . S
C293 C296 1.394 1_556 S
C293 C298 1.370 . S
C293 C299 1.500 . S
C294 C297 1.383 . S
C294 C298 1.395 1_554 S
C295 C296 1.396 . S
C295 C297 1.365 . S
C295 H312 0.929 . S
C296 C293 1.394 1_554 S
C296 C295 1.396 . S
C296 H313 0.930 . S
C297 C294 1.383 . S
C297 C295 1.365 . S
C297 H314 0.931 . S
C298 C293 1.370 . S
C298 C294 1.395 1_556 S
C298 H315 0.930 . S
C299 Gd246 2.805 . S
C299 O281 1.263 . S
C299 O282 1.252 . S
C299 C293 1.500 . S
C300 H262 0.930 . S
C300 C276 1.417 . S
C300 C301 1.329 . S
C301 C271 1.437 . S
C301 H272 0.929 . S
C301 C300 1.329 . S
H302 C275 0.931 . S
C303 O285 1.265 . S
C303 O286 1.242 . S
C304 O289 1.261 . S
C304 O290 1.252 1_545 S
C305 C308 1.391 1_545 S
C305 C310 1.374 . S
C305 C311 1.498 1_545 S
C306 C309 1.383 . S
C306 C310 1.395 . S
C307 C308 1.396 . S
C307 C309 1.365 1_565 S
C307 H316 0.929 . S
C308 C305 1.391 1_565 S
C308 C307 1.396 . S
C308 H317 0.930 . S
C309 C306 1.383 . S
C309 C307 1.365 1_545 S
C309 H318 0.931 . S
C310 C305 1.374 . S
C310 C306 1.395 . S
C310 H319 0.930 . S
C311 Gd247 2.805 . S
C311 O287 1.265 . S
C311 O288 1.252 . S
C311 C305 1.498 1_565 S
H312 C295 0.929 . S
H313 C296 0.930 . S
H314 C297 0.931 . S
H315 C298 0.930 . S
H316 C307 0.929 . S
H317 C308 0.930 . S
H318 C309 0.931 . S
H319 C310 0.930 . S
C320 C322 1.422 . S
C320 C324 1.415 . S
C320 N326 1.369 . S
C321 C322 1.421 1_554 S
C321 C323 1.417 . S
C321 C333 1.422 . S
C322 C320 1.422 . S
C322 C321 1.421 1_556 S
C322 N332 1.359 . S
C323 C321 1.417 . S
C323 C325 1.329 . S
C323 H342 0.930 . S
C324 C320 1.415 . S
C324 C325 1.437 1_556 S
C324 C328 1.413 . S
C325 C323 1.329 . S
C325 C324 1.437 1_554 S
C325 H347 0.929 . S
N326 C320 1.369 . S
N326 C327 1.338 . S
N326 Gd331 2.622 . S
C327 N326 1.338 . S
C327 C329 1.378 . S
C327 H339 0.929 . S
C328 C324 1.413 . S
C328 C329 1.348 . S
C328 H344 0.931 . S
C329 C327 1.378 . S
C329 C328 1.348 . S
C329 H345 0.930 . S
Gd330 N350 2.622 . S
Gd330 N357 2.570 . S
Gd330 O364 2.353 . S
Gd330 O365 2.468 . S
Gd330 O366 2.427 . S
Gd330 O368 2.388 . S
Gd330 O369 2.386 . S
Gd330 O373 2.307 . S
Gd330 C383 2.805 . S
Gd331 N326 2.622 . S
Gd331 N332 2.570 . S
Gd331 O363 2.386 . S
Gd331 O367 2.307 . S
Gd331 O370 2.353 . S
Gd331 O371 2.468 . S
Gd331 O372 2.427 . S
Gd331 O374 2.388 . S
Gd331 C395 2.805 . S
N332 C322 1.359 . S
N332 Gd331 2.570 . S
N332 C334 1.343 . S
C333 C321 1.422 . S
C333 C335 1.321 . S
C333 H341 0.931 . S
C334 N332 1.343 . S
C334 C335 1.390 1_556 S
C334 H336 0.931 . S
C335 C333 1.321 . S
C335 C334 1.390 1_554 S
C335 H337 0.930 . S
H336 C334 0.931 . S
H337 C335 0.930 . S
H338 C361 0.931 . S
H339 C327 0.929 . S
H340 C362 0.930 . S
H341 C333 0.931 . S
H342 C323 0.930 . S
H343 C352 0.929 . S
H344 C328 0.931 . S
H345 C329 0.930 . S
H346 C384 0.930 . S
H347 C325 0.929 . S
H348 C353 0.931 . S
H349 C354 0.930 . S
N350 Gd330 2.622 . S
N350 C351 1.369 . S
N350 C352 1.338 . S
C351 N350 1.369 . S
C351 C355 1.415 . S
C351 C358 1.422 . S
C352 H343 0.929 . S
C352 N350 1.338 . S
C352 C354 1.378 . S
C353 H348 0.931 . S
C353 C354 1.348 . S
C353 C355 1.413 . S
C354 H349 0.930 . S
C354 C352 1.378 . S
C354 C353 1.348 . S
C355 C351 1.415 . S
C355 C353 1.413 . S
C355 C385 1.437 . S
H356 C385 0.929 . S
N357 Gd330 2.570 . S
N357 C358 1.359 . S
N357 C361 1.343 . S
C358 C351 1.422 . S
C358 N357 1.359 . S
C358 C360 1.421 . S
C359 C360 1.422 . S
C359 C362 1.321 . S
C359 H386 0.931 . S
C360 C358 1.421 . S
C360 C359 1.422 . S
C360 C384 1.417 . S
C361 H338 0.931 . S
C361 N357 1.343 . S
C361 C362 1.390 . S
C362 H340 0.930 . S
C362 C359 1.321 . S
C362 C361 1.390 . S
O363 Gd331 2.386 . S
O363 C375 1.265 . S
O364 Gd330 2.353 . S
O364 C375 1.242 . S
O365 Gd330 2.468 . S
O365 C383 1.263 . S
O366 Gd330 2.427 . S
O366 C383 1.252 . S
O367 Gd331 2.307 . S
O367 C376 1.261 . S
O368 Gd330 2.388 . S
O368 C376 1.252 . S
O369 Gd330 2.386 . S
O369 C387 1.265 . S
O370 Gd331 2.353 . S
O370 C387 1.242 . S
O371 Gd331 2.468 . S
O371 C395 1.263 . S
O372 Gd331 2.427 . S
O372 C395 1.252 . S
O373 Gd330 2.307 . S
O373 C388 1.261 . S
O374 Gd331 2.388 . S
O374 C388 1.252 . S
C375 O363 1.265 . S
C375 O364 1.242 . S
C376 O367 1.261 . S
C376 O368 1.252 . S
C377 C380 1.394 . S
C377 C382 1.370 . S
C377 C383 1.500 . S
C378 C381 1.383 . S
C378 C382 1.395 . S
C379 C380 1.396 . S
C379 C381 1.365 . S
C379 H396 0.929 . S
C380 C377 1.394 . S
C380 C379 1.396 . S
C380 H397 0.930 . S
C381 C378 1.383 . S
C381 C379 1.365 . S
C381 H398 0.931 . S
C382 C377 1.370 . S
C382 C378 1.395 . S
C382 H399 0.930 . S
C383 Gd330 2.805 . S
C383 O365 1.263 . S
C383 O366 1.252 . S
C383 C377 1.500 . S
C384 H346 0.930 . S
C384 C360 1.417 . S
C384 C385 1.329 . S
C385 C355 1.437 . S
C385 H356 0.929 . S
C385 C384 1.329 . S
H386 C359 0.931 . S
C387 O369 1.265 . S
C387 O370 1.242 . S
C388 O373 1.261 . S
C388 O374 1.252 . S
C389 C392 1.394 . S
C389 C394 1.370 . S
C389 C395 1.500 . S
C390 C393 1.383 . S
C390 C394 1.395 . S
C391 C392 1.396 . S
C391 C393 1.365 . S
C391 H400 0.929 . S
C392 C389 1.394 . S
C392 C391 1.396 . S
C392 H401 0.930 . S
C393 C390 1.383 . S
C393 C391 1.365 . S
C393 H402 0.931 1_556 S
C394 C389 1.370 . S
C394 C390 1.395 . S
C394 H403 0.930 . S
C395 Gd331 2.805 . S
C395 O371 1.263 . S
C395 O372 1.252 . S
C395 C389 1.500 . S
H396 C379 0.929 . S
H397 C380 0.930 . S
H398 C381 0.931 . S
H399 C382 0.930 . S
H400 C391 0.929 . S
H401 C392 0.930 . S
H402 C393 0.931 1_554 S
H403 C394 0.930 . S
C404 C406 1.422 . S
C404 C408 1.415 . S
C404 N410 1.369 . S
C405 C406 1.421 1_554 S
C405 C407 1.417 . S
C405 C417 1.422 . S
C406 C404 1.422 . S
C406 C405 1.421 1_556 S
C406 N416 1.359 . S
C407 C405 1.417 . S
C407 C409 1.329 . S
C407 H426 0.930 . S
C408 C404 1.415 . S
C408 C409 1.437 1_556 S
C408 C412 1.413 . S
C409 C407 1.329 . S
C409 C408 1.437 1_554 S
C409 H431 0.929 . S
N410 C404 1.369 . S
N410 C411 1.338 1_455 S
N410 Gd415 2.622 1_455 S
C411 N410 1.338 1_655 S
C411 C413 1.378 1_655 S
C411 H423 0.929 . S
C412 C408 1.413 . S
C412 C413 1.348 . S
C412 H428 0.931 . S
C413 C411 1.378 1_455 S
C413 C412 1.348 . S
C413 H429 0.930 . S
Gd414 N434 2.622 . S
Gd414 N441 2.570 . S
Gd414 O448 2.353 . S
Gd414 O449 2.468 . S
Gd414 O450 2.427 . S
Gd414 O452 2.388 . S
Gd414 O453 2.386 1_455 S
Gd414 O457 2.307 . S
Gd414 C467 2.805 . S
Gd415 N410 2.622 1_655 S
Gd415 N416 2.570 1_655 S
Gd415 O447 2.386 1_655 S
Gd415 O451 2.307 1_655 S
Gd415 O454 2.353 . S
Gd415 O455 2.468 . S
Gd415 O456 2.427 . S
Gd415 O458 2.388 . S
Gd415 C479 2.805 . S
N416 C406 1.359 . S
N416 Gd415 2.570 1_455 S
N416 C418 1.343 . S
C417 C405 1.422 . S
C417 C419 1.321 . S
C417 H425 0.931 . S
C418 N416 1.343 . S
C418 C419 1.390 1_556 S
C418 H420 0.931 . S
C419 C417 1.321 . S
C419 C418 1.390 1_554 S
C419 H421 0.930 . S
H420 C418 0.931 . S
H421 C419 0.930 . S
H422 C445 0.931 . S
H423 C411 0.929 . S
H424 C446 0.930 . S
H425 C417 0.931 . S
H426 C407 0.930 . S
H427 C436 0.929 . S
H428 C412 0.931 . S
H429 C413 0.930 . S
H430 C468 0.930 . S
H431 C409 0.929 . S
H432 C437 0.931 . S
H433 C438 0.930 . S
N434 Gd414 2.622 . S
N434 C435 1.369 . S
N434 C436 1.338 . S
C435 N434 1.369 . S
C435 C439 1.415 1_455 S
C435 C442 1.422 . S
C436 H427 0.929 . S
C436 N434 1.338 . S
C436 C438 1.378 . S
C437 H432 0.931 . S
C437 C438 1.348 1_655 S
C437 C439 1.413 . S
C438 H433 0.930 . S
C438 C436 1.378 . S
C438 C437 1.348 1_455 S
C439 C435 1.415 1_655 S
C439 C437 1.413 . S
C439 C469 1.437 . S
H440 C469 0.929 . S
N441 Gd414 2.570 . S
N441 C442 1.358 . S
N441 C445 1.343 . S
C442 C435 1.422 . S
C442 N441 1.358 . S
C442 C444 1.422 1_455 S
C443 C444 1.422 . S
C443 C446 1.321 . S
C443 H470 0.931 . S
C444 C442 1.422 1_655 S
C444 C443 1.422 . S
C444 C468 1.417 . S
C445 H422 0.931 . S
C445 N441 1.343 . S
C445 C446 1.390 1_455 S
C446 H424 0.930 . S
C446 C443 1.321 . S
C446 C445 1.390 1_655 S
O447 Gd415 2.386 1_455 S
O447 C459 1.265 . S
O448 Gd414 2.353 . S
O448 C459 1.242 . S
O449 Gd414 2.468 . S
O449 C467 1.263 . S
O450 Gd414 2.427 . S
O450 C467 1.252 . S
O451 Gd415 2.307 1_455 S
O451 C460 1.261 . S
O452 Gd414 2.388 . S
O452 C460 1.252 . S
O453 Gd414 2.386 1_655 S
O453 C471 1.265 . S
O454 Gd415 2.353 . S
O454 C471 1.242 . S
O455 Gd415 2.468 . S
O455 C479 1.263 . S
O456 Gd415 2.427 . S
O456 C479 1.252 . S
O457 Gd414 2.307 . S
O457 C472 1.261 . S
O458 Gd415 2.388 . S
O458 C472 1.252 1_655 S
C459 O447 1.265 . S
C459 O448 1.242 . S
C460 O451 1.261 . S
C460 O452 1.252 . S
C461 C464 1.394 . S
C461 C466 1.370 . S
C461 C467 1.500 . S
C462 C465 1.383 . S
C462 C466 1.395 . S
C463 C464 1.396 . S
C463 C465 1.365 . S
C463 H480 0.929 . S
C464 C461 1.394 . S
C464 C463 1.396 . S
C464 H481 0.930 . S
C465 C462 1.383 . S
C465 C463 1.365 . S
C465 H482 0.931 . S
C466 C461 1.370 . S
C466 C462 1.395 . S
C466 H483 0.930 . S
C467 Gd414 2.805 . S
C467 O449 1.263 . S
C467 O450 1.252 . S
C467 C461 1.500 . S
C468 H430 0.930 . S
C468 C444 1.417 . S
C468 C469 1.329 . S
C469 C439 1.437 . S
C469 H440 0.929 . S
C469 C468 1.329 . S
H470 C443 0.931 . S
C471 O453 1.265 . S
C471 O454 1.242 . S
C472 O457 1.261 . S
C472 O458 1.252 1_455 S
C473 C476 1.394 . S
C473 C478 1.370 . S
C473 C479 1.500 . S
C474 C477 1.383 . S
C474 C478 1.395 . S
C475 C476 1.396 . S
C475 C477 1.365 . S
C475 H484 0.929 . S
C476 C473 1.394 . S
C476 C475 1.396 . S
C476 H485 0.930 . S
C477 C474 1.383 . S
C477 C475 1.365 . S
C477 H486 0.931 1_556 S
C478 C473 1.370 . S
C478 C474 1.395 . S
C478 H487 0.930 . S
C479 Gd415 2.805 . S
C479 O455 1.263 . S
C479 O456 1.252 . S
C479 C473 1.500 . S
H480 C463 0.929 . S
H481 C464 0.930 . S
H482 C465 0.931 . S
H483 C466 0.930 . S
H484 C475 0.929 . S
H485 C476 0.930 . S
H486 C477 0.931 1_554 S
H487 C478 0.930 . S
C488 C489 1.391 . S
C488 C490 1.394 . S
C488 H504 0.931 . S
C489 C488 1.391 . S
C489 C493 1.376 . S
C490 C488 1.394 . S
C490 C491 1.369 . S
C490 C494 1.531 . S
C491 C490 1.369 . S
C491 C492 1.410 . S
C491 C499 1.503 . S
C492 C491 1.410 . S
C492 C493 1.392 . S
C492 C495 1.511 . S
C493 C489 1.376 . S
C493 C492 1.392 . S
C493 H505 0.929 . S
C494 C490 1.531 . S
C494 H506 0.960 . S
C494 H507 0.962 . S
C494 H508 0.960 . S
C495 C492 1.511 . S
C495 H509 0.961 . S
C495 H510 0.961 . S
C495 H511 0.961 1_545 S
C496 C497 1.370 . S
C496 C498 1.363 . S
C496 H512 0.931 . S
C497 C496 1.370 . S
C497 C501 1.367 1_545 S
C498 C496 1.363 . S
C498 C499 1.370 . S
C498 C502 1.524 . S
C499 C491 1.503 . S
C499 C498 1.370 . S
C499 C500 1.403 . S
C500 C499 1.403 . S
C500 C501 1.400 1_545 S
C500 C503 1.539 1_545 S
C501 C497 1.367 1_565 S
C501 C500 1.400 1_565 S
C501 H513 0.974 . S
C502 C498 1.524 . S
C502 H514 0.956 . S
C502 H515 0.961 . S
C502 H516 0.961 . S
C503 C500 1.539 1_565 S
C503 H517 0.958 . S
C503 H518 0.961 . S
C503 H519 0.960 . S
H504 C488 0.931 . S
H505 C493 0.929 . S
H506 C494 0.960 . S
H507 C494 0.962 . S
H508 C494 0.960 . S
H509 C495 0.961 . S
H510 C495 0.961 . S
H511 C495 0.961 1_565 S
H512 C496 0.931 . S
H513 C501 0.974 . S
H514 C502 0.956 . S
H515 C502 0.961 . S
H516 C502 0.961 . S
H517 C503 0.958 . S
H518 C503 0.961 . S
H519 C503 0.960 . S
C520 C521 1.391 . S
C520 C522 1.394 . S
C520 H536 0.931 . S
C521 C520 1.391 . S
C521 C525 1.376 . S
C522 C520 1.394 . S
C522 C523 1.369 . S
C522 C526 1.531 . S
C523 C522 1.369 . S
C523 C524 1.410 . S
C523 C531 1.503 . S
C524 C523 1.410 . S
C524 C525 1.392 . S
C524 C527 1.511 . S
C525 C521 1.376 . S
C525 C524 1.392 . S
C525 H537 0.929 . S
C526 C522 1.531 . S
C526 H538 0.960 . S
C526 H539 0.962 . S
C526 H540 0.960 . S
C527 C524 1.511 . S
C527 H541 0.961 . S
C527 H542 0.961 . S
C527 H543 0.961 . S
C528 C529 1.370 . S
C528 C530 1.363 . S
C528 H544 0.931 . S
C529 C528 1.370 . S
C529 C533 1.408 . S
C530 C528 1.363 . S
C530 C531 1.370 . S
C530 C534 1.524 . S
C531 C523 1.503 . S
C531 C530 1.370 . S
C531 C532 1.403 . S
C532 C531 1.403 . S
C532 C533 1.404 . S
C532 C535 1.539 . S
C533 C529 1.408 . S
C533 C532 1.404 . S
C533 H545 0.930 . S
C534 C530 1.524 . S
C534 H546 0.956 . S
C534 H547 0.961 . S
C534 H548 0.961 . S
C535 C532 1.539 . S
C535 H549 0.958 . S
C535 H550 0.961 . S
C535 H551 0.960 . S
H536 C520 0.931 . S
H537 C525 0.929 . S
H538 C526 0.960 . S
H539 C526 0.962 . S
H540 C526 0.960 . S
H541 C527 0.961 . S
H542 C527 0.961 . S
H543 C527 0.961 . S
H544 C528 0.931 . S
H545 C533 0.930 . S
H546 C534 0.956 . S
H547 C534 0.961 . S
H548 C534 0.961 . S
H549 C535 0.958 . S
H550 C535 0.961 . S
H551 C535 0.960 . S
C552 C553 1.391 . S
C552 C554 1.394 . S
C552 H568 0.931 . S
C553 C552 1.391 . S
C553 C557 1.376 . S
C554 C552 1.394 . S
C554 C555 1.369 . S
C554 C558 1.531 . S
C555 C554 1.369 . S
C555 C556 1.410 . S
C555 C563 1.503 . S
C556 C555 1.410 . S
C556 C557 1.392 . S
C556 C559 1.511 . S
C557 C553 1.376 . S
C557 C556 1.392 . S
C557 H569 0.929 . S
C558 C554 1.531 . S
C558 H570 0.960 . S
C558 H571 0.962 . S
C558 H572 0.960 . S
C559 C556 1.511 . S
C559 H573 0.961 . S
C559 H574 0.961 . S
C559 H575 0.961 . S
C560 C561 1.370 . S
C560 C562 1.363 . S
C560 H576 0.931 . S
C561 C560 1.370 . S
C561 C565 1.408 . S
C562 C560 1.363 . S
C562 C563 1.370 . S
C562 C566 1.524 . S
C563 C555 1.503 . S
C563 C562 1.370 . S
C563 C564 1.403 . S
C564 C563 1.403 . S
C564 C565 1.404 . S
C564 C567 1.539 . S
C565 C561 1.408 . S
C565 C564 1.404 . S
C565 H577 0.930 . S
C566 C562 1.524 . S
C566 H578 0.956 . S
C566 H579 0.961 . S
C566 H580 0.961 . S
C567 C564 1.539 . S
C567 H581 0.958 . S
C567 H582 0.961 . S
C567 H583 0.960 . S
H568 C552 0.931 . S
H569 C557 0.929 . S
H570 C558 0.960 . S
H571 C558 0.962 . S
H572 C558 0.960 . S
H573 C559 0.961 . S
H574 C559 0.961 . S
H575 C559 0.961 . S
H576 C560 0.931 . S
H577 C565 0.930 . S
H578 C566 0.956 . S
H579 C566 0.961 . S
H580 C566 0.961 . S
H581 C567 0.958 . S
H582 C567 0.961 . S
H583 C567 0.960 . S
C584 C585 1.391 . S
C584 C586 1.394 . S
C584 H600 0.931 . S
C585 C584 1.391 . S
C585 C589 1.376 . S
C586 C584 1.394 . S
C586 C587 1.369 . S
C586 C590 1.531 . S
C587 C586 1.369 . S
C587 C588 1.410 . S
C587 C595 1.503 . S
C588 C587 1.410 . S
C588 C589 1.392 . S
C588 C591 1.511 1_455 S
C589 C585 1.376 . S
C589 C588 1.392 . S
C589 H601 0.929 . S
C590 C586 1.531 . S
C590 H602 0.960 . S
C590 H603 0.962 . S
C590 H604 0.960 . S
C591 C588 1.511 1_655 S
C591 H605 0.961 . S
C591 H606 0.961 . S
C591 H607 0.961 . S
C592 C593 1.370 . S
C592 C594 1.363 . S
C592 H608 0.931 . S
C593 C592 1.370 . S
C593 C597 1.408 . S
C594 C592 1.363 . S
C594 C595 1.370 . S
C594 C598 1.524 . S
C595 C587 1.503 . S
C595 C594 1.370 . S
C595 C596 1.403 . S
C596 C595 1.403 . S
C596 C597 1.404 . S
C596 C599 1.539 1_455 S
C597 C593 1.408 . S
C597 C596 1.404 . S
C597 H609 0.930 1_455 S
C598 C594 1.524 . S
C598 H610 0.956 . S
C598 H611 0.961 . S
C598 H612 0.961 . S
C599 C596 1.539 1_655 S
C599 H613 0.958 1_655 S
C599 H614 0.961 . S
C599 H615 0.960 . S
H600 C584 0.931 . S
H601 C589 0.929 . S
H602 C590 0.960 . S
H603 C590 0.962 . S
H604 C590 0.960 . S
H605 C591 0.961 . S
H606 C591 0.961 . S
H607 C591 0.961 . S
H608 C592 0.931 . S
H609 C597 0.930 1_655 S
H610 C598 0.956 . S
H611 C598 0.961 . S
H612 C598 0.961 . S
H613 C599 0.958 1_455 S
H614 C599 0.961 . S
H615 C599 0.960 . S
C616 C617 1.391 . S
C616 C618 1.387 1_565 S
C616 H632 0.930 . S
C617 C616 1.391 . S
C617 C621 1.376 . S
C618 C616 1.387 1_545 S
C618 C619 1.360 1_545 S
C618 C622 1.548 1_554 S
C619 C618 1.360 1_565 S
C619 C620 1.410 . S
C619 C627 1.503 1_554 S
C620 C619 1.410 . S
C620 C621 1.392 . S
C620 C623 1.511 . S
C621 C617 1.376 . S
C621 C620 1.392 . S
C621 H633 0.929 . S
C622 C618 1.548 1_556 S
C622 H634 0.960 . S
C622 H635 0.960 1_545 S
C622 H636 0.960 . S
C623 C620 1.511 . S
C623 H637 0.961 . S
C623 H638 0.961 . S
C623 H639 0.961 . S
C624 C625 1.370 1_565 S
C624 C626 1.363 . S
C624 H640 0.931 . S
C625 C624 1.370 1_545 S
C625 C629 1.408 . S
C626 C624 1.363 . S
C626 C627 1.370 . S
C626 C630 1.524 . S
C627 C619 1.503 1_556 S
C627 C626 1.370 . S
C627 C628 1.403 1_565 S
C628 C627 1.403 1_545 S
C628 C629 1.404 . S
C628 C631 1.539 1_556 S
C629 C625 1.408 . S
C629 C628 1.404 . S
C629 H641 0.930 . S
C630 C626 1.524 . S
C630 H642 0.956 . S
C630 H643 0.961 . S
C630 H644 0.961 . S
C631 C628 1.539 1_554 S
C631 H645 0.958 1_554 S
C631 H646 0.961 . S
C631 H647 0.960 . S
H632 C616 0.930 . S
H633 C621 0.929 . S
H634 C622 0.960 . S
H635 C622 0.960 1_565 S
H636 C622 0.960 . S
H637 C623 0.961 . S
H638 C623 0.961 . S
H639 C623 0.961 . S
H640 C624 0.931 . S
H641 C629 0.930 . S
H642 C630 0.956 . S
H643 C630 0.961 . S
H644 C630 0.961 . S
H645 C631 0.958 1_556 S
H646 C631 0.961 . S
H647 C631 0.960 . S
C648 C649 1.391 . S
C648 C650 1.394 . S
C648 H664 0.931 . S
C649 C648 1.391 . S
C649 C653 1.376 . S
C650 C648 1.394 . S
C650 C651 1.369 . S
C650 C654 1.531 . S
C651 C650 1.369 . S
C651 C652 1.410 . S
C651 C659 1.503 1_554 S
C652 C651 1.410 . S
C652 C653 1.392 . S
C652 C655 1.511 1_554 S
C653 C649 1.376 . S
C653 C652 1.392 . S
C653 H665 0.929 . S
C654 C650 1.531 . S
C654 H666 0.960 . S
C654 H667 0.962 . S
C654 H668 0.960 . S
C655 C652 1.511 1_556 S
C655 H669 0.961 . S
C655 H670 0.961 . S
C655 H671 0.961 . S
C656 C657 1.370 . S
C656 C658 1.363 . S
C656 H672 0.931 . S
C657 C656 1.370 . S
C657 C661 1.408 . S
C658 C656 1.363 . S
C658 C659 1.370 . S
C658 C662 1.524 . S
C659 C651 1.503 1_556 S
C659 C658 1.370 . S
C659 C660 1.403 . S
C660 C659 1.403 . S
C660 C661 1.404 . S
C660 C663 1.539 1_556 S
C661 C657 1.408 . S
C661 C660 1.404 . S
C661 H673 0.930 . S
C662 C658 1.524 . S
C662 H674 0.956 . S
C662 H675 0.961 . S
C662 H676 0.961 . S
C663 C660 1.539 1_554 S
C663 H677 0.958 . S
C663 H678 0.961 . S
C663 H679 0.960 . S
H664 C648 0.931 . S
H665 C653 0.929 . S
H666 C654 0.960 . S
H667 C654 0.962 . S
H668 C654 0.960 . S
H669 C655 0.961 . S
H670 C655 0.961 . S
H671 C655 0.961 . S
H672 C656 0.931 . S
H673 C661 0.930 . S
H674 C662 0.956 . S
H675 C662 0.961 . S
H676 C662 0.961 . S
H677 C663 0.958 . S
H678 C663 0.961 . S
H679 C663 0.960 . S
C680 C681 1.391 . S
C680 C682 1.394 . S
C680 H696 0.931 . S
C681 C680 1.391 . S
C681 C685 1.376 . S
C682 C680 1.394 . S
C682 C683 1.369 . S
C682 C686 1.531 . S
C683 C682 1.369 . S
C683 C684 1.410 . S
C683 C691 1.503 1_554 S
C684 C683 1.410 . S
C684 C685 1.392 . S
C684 C687 1.511 . S
C685 C681 1.376 . S
C685 C684 1.392 . S
C685 H697 0.929 . S
C686 C682 1.531 . S
C686 H698 0.960 . S
C686 H699 0.962 1_554 S
C686 H700 0.960 . S
C687 C684 1.511 . S
C687 H701 0.961 . S
C687 H702 0.961 1_554 S
C687 H703 0.961 . S
C688 C689 1.370 . S
C688 C690 1.363 . S
C688 H704 0.931 . S
C689 C688 1.370 . S
C689 C693 1.408 . S
C690 C688 1.363 . S
C690 C691 1.370 . S
C690 C694 1.524 . S
C691 C683 1.503 1_556 S
C691 C690 1.370 . S
C691 C692 1.403 . S
C692 C691 1.403 . S
C692 C693 1.404 . S
C692 C695 1.539 1_556 S
C693 C689 1.408 . S
C693 C692 1.404 . S
C693 H705 0.930 . S
C694 C690 1.524 . S
C694 H706 0.956 . S
C694 H707 0.961 . S
C694 H708 0.961 . S
C695 C692 1.539 1_554 S
C695 H709 0.958 . S
C695 H710 0.961 . S
C695 H711 0.960 . S
H696 C680 0.931 . S
H697 C685 0.929 . S
H698 C686 0.960 . S
H699 C686 0.962 1_556 S
H700 C686 0.960 . S
H701 C687 0.961 . S
H702 C687 0.961 1_556 S
H703 C687 0.961 . S
H704 C688 0.931 . S
H705 C693 0.930 . S
H706 C694 0.956 . S
H707 C694 0.961 . S
H708 C694 0.961 . S
H709 C695 0.958 . S
H710 C695 0.961 . S
H711 C695 0.960 . S
C712 C713 1.391 . S
C712 C714 1.394 . S
C712 H728 0.931 . S
C713 C712 1.391 . S
C713 C717 1.376 1_655 S
C714 C712 1.394 . S
C714 C715 1.369 . S
C714 C718 1.531 1_554 S
C715 C714 1.369 . S
C715 C716 1.410 1_655 S
C715 C723 1.503 1_554 S
C716 C715 1.410 1_455 S
C716 C717 1.392 . S
C716 C719 1.511 . S
C717 C713 1.376 1_455 S
C717 C716 1.392 . S
C717 H729 0.929 . S
C718 C714 1.531 1_556 S
C718 H730 0.960 . S
C718 H731 0.962 . S
C718 H732 0.960 . S
C719 C716 1.511 . S
C719 H733 0.961 . S
C719 H734 0.961 . S
C719 H735 0.961 . S
C720 C721 1.370 . S
C720 C722 1.363 . S
C720 H736 0.931 . S
C721 C720 1.370 . S
C721 C725 1.408 1_655 S
C722 C720 1.363 . S
C722 C723 1.370 . S
C722 C726 1.524 1_556 S
C723 C715 1.503 1_556 S
C723 C722 1.370 . S
C723 C724 1.403 1_655 S
C724 C723 1.403 1_455 S
C724 C725 1.404 . S
C724 C727 1.539 . S
C725 C721 1.408 1_455 S
C725 C724 1.404 . S
C725 H737 0.930 . S
C726 C722 1.524 1_554 S
C726 H738 0.956 . S
C726 H739 0.961 . S
C726 H740 0.961 . S
C727 C724 1.539 . S
C727 H741 0.958 . S
C727 H742 0.961 . S
C727 H743 0.960 . S
H728 C712 0.931 . S
H729 C717 0.929 . S
H730 C718 0.960 . S
H731 C718 0.962 . S
H732 C718 0.960 . S
H733 C719 0.961 . S
H734 C719 0.961 . S
H735 C719 0.961 . S
H736 C720 0.931 . S
H737 C725 0.930 . S
H738 C726 0.956 . S
H739 C726 0.961 . S
H740 C726 0.961 . S
H741 C727 0.958 . S
H742 C727 0.961 . S
H743 C727 0.960 . S
C744 C745 1.391 . S
C744 C746 1.394 . S
C744 H760 0.931 . S
C745 C744 1.391 . S
C745 C749 1.376 . S
C746 C744 1.394 . S
C746 C747 1.369 . S
C746 C750 1.531 . S
C747 C746 1.369 . S
C747 C748 1.410 . S
C747 C755 1.503 . S
C748 C747 1.410 . S
C748 C749 1.392 . S
C748 C751 1.511 . S
C749 C745 1.376 . S
C749 C748 1.392 . S
C749 H761 0.929 . S
C750 C746 1.531 . S
C750 H762 0.960 1_455 S
C750 H763 0.962 . S
C750 H764 0.960 1_455 S
C751 C748 1.511 . S
C751 H765 0.961 . S
C751 H766 0.961 . S
C751 H767 0.961 . S
C752 C753 1.370 . S
C752 C754 1.363 . S
C752 H768 0.931 . S
C753 C752 1.370 . S
C753 C757 1.408 1_455 S
C754 C752 1.363 . S
C754 C755 1.370 . S
C754 C758 1.524 . S
C755 C747 1.503 . S
C755 C754 1.370 . S
C755 C756 1.403 1_455 S
C756 C755 1.403 1_655 S
C756 C757 1.404 . S
C756 C759 1.539 . S
C757 C753 1.408 1_655 S
C757 C756 1.404 . S
C757 H769 0.930 . S
C758 C754 1.524 . S
C758 H770 0.956 . S
C758 H771 0.961 . S
C758 H772 0.961 . S
C759 C756 1.539 . S
C759 H773 0.958 . S
C759 H774 0.961 . S
C759 H775 0.960 . S
H760 C744 0.931 . S
H761 C749 0.929 . S
H762 C750 0.960 1_655 S
H763 C750 0.962 . S
H764 C750 0.960 1_655 S
H765 C751 0.961 . S
H766 C751 0.961 . S
H767 C751 0.961 . S
H768 C752 0.931 . S
H769 C757 0.930 . S
H770 C758 0.956 . S
H771 C758 0.961 . S
H772 C758 0.961 . S
H773 C759 0.958 . S
H774 C759 0.961 . S
H775 C759 0.960 . S
C776 C777 1.391 . S
C776 C778 1.394 . S
C776 H792 0.931 . S
C777 C776 1.391 . S
C777 C781 1.376 . S
C778 C776 1.394 . S
C778 C779 1.369 . S
C778 C782 1.531 . S
C779 C778 1.369 . S
C779 C780 1.410 . S
C779 C787 1.503 . S
C780 C779 1.410 . S
C780 C781 1.392 . S
C780 C783 1.511 1_545 S
C781 C777 1.376 . S
C781 C780 1.392 . S
C781 H793 0.929 . S
C782 C778 1.531 . S
C782 H794 0.960 . S
C782 H795 0.962 . S
C782 H796 0.960 . S
C783 C780 1.511 1_565 S
C783 H797 0.961 . S
C783 H798 0.961 . S
C783 H799 0.961 . S
C784 C785 1.370 . S
C784 C786 1.363 . S
C784 H800 0.931 . S
C785 C784 1.370 . S
C785 C789 1.408 . S
C786 C784 1.363 . S
C786 C787 1.370 . S
C786 C790 1.524 . S
C787 C779 1.503 . S
C787 C786 1.370 . S
C787 C788 1.403 . S
C788 C787 1.403 . S
C788 C789 1.404 . S
C788 C791 1.539 . S
C789 C785 1.408 . S
C789 C788 1.404 . S
C789 H801 0.930 . S
C790 C786 1.524 . S
C790 H802 0.956 . S
C790 H803 0.961 . S
C790 H804 0.961 . S
C791 C788 1.539 . S
C791 H805 0.958 . S
C791 H806 0.961 . S
C791 H807 0.960 . S
H792 C776 0.931 . S
H793 C781 0.929 . S
H794 C782 0.960 . S
H795 C782 0.962 . S
H796 C782 0.960 . S
H797 C783 0.961 . S
H798 C783 0.961 . S
H799 C783 0.961 . S
H800 C784 0.931 . S
H801 C789 0.930 . S
H802 C790 0.956 . S
H803 C790 0.961 . S
H804 C790 0.961 . S
H805 C791 0.958 . S
H806 C791 0.961 . S
H807 C791 0.960 . S
C808 C809 1.391 . S
C808 C810 1.394 . S
C808 H824 0.931 . S
C809 C808 1.391 . S
C809 C813 1.376 . S
C810 C808 1.394 . S
C810 C811 1.369 . S
C810 C814 1.531 . S
C811 C810 1.369 . S
C811 C812 1.410 . S
C811 C819 1.503 . S
C812 C811 1.410 . S
C812 C813 1.392 . S
C812 C815 1.511 . S
C813 C809 1.376 . S
C813 C812 1.392 . S
C813 H825 0.929 . S
C814 C810 1.531 . S
C814 H826 0.960 . S
C814 H827 0.962 . S
C814 H828 0.960 . S
C815 C812 1.511 . S
C815 H829 0.961 . S
C815 H830 0.961 . S
C815 H831 0.961 . S
C816 C817 1.370 . S
C816 C818 1.363 . S
C816 H832 0.931 . S
C817 C816 1.370 . S
C817 C821 1.408 . S
C818 C816 1.363 . S
C818 C819 1.370 . S
C818 C822 1.524 . S
C819 C811 1.503 . S
C819 C818 1.370 . S
C819 C820 1.403 . S
C820 C819 1.403 . S
C820 C821 1.404 . S
C820 C823 1.539 . S
C821 C817 1.408 . S
C821 C820 1.404 . S
C821 H833 0.930 . S
C822 C818 1.524 . S
C822 H834 0.956 . S
C822 H835 0.961 . S
C822 H836 0.961 . S
C823 C820 1.539 . S
C823 H837 0.958 . S
C823 H838 0.961 . S
C823 H839 0.960 . S
H824 C808 0.931 . S
H825 C813 0.929 . S
H826 C814 0.960 . S
H827 C814 0.962 . S
H828 C814 0.960 . S
H829 C815 0.961 . S
H830 C815 0.961 . S
H831 C815 0.961 . S
H832 C816 0.931 . S
H833 C821 0.930 . S
H834 C822 0.956 . S
H835 C822 0.961 . S
H836 C822 0.961 . S
H837 C823 0.958 . S
H838 C823 0.961 . S
H839 C823 0.960 . S
C840 C841 1.391 . S
C840 C842 1.394 . S
C840 H856 0.931 . S
C841 C840 1.391 . S
C841 C845 1.376 . S
C842 C840 1.394 . S
C842 C843 1.369 . S
C842 C846 1.531 . S
C843 C842 1.369 . S
C843 C844 1.410 . S
C843 C851 1.503 . S
C844 C843 1.410 . S
C844 C845 1.392 . S
C844 C847 1.511 . S
C845 C841 1.376 . S
C845 C844 1.392 . S
C845 H857 0.929 . S
C846 C842 1.531 . S
C846 H858 0.960 . S
C846 H859 0.962 . S
C846 H860 0.960 . S
C847 C844 1.511 . S
C847 H861 0.961 . S
C847 H862 0.961 . S
C847 H863 0.961 . S
C848 C849 1.370 . S
C848 C850 1.363 . S
C848 H864 0.931 . S
C849 C848 1.370 . S
C849 C853 1.408 . S
C850 C848 1.363 . S
C850 C851 1.370 . S
C850 C854 1.524 . S
C851 C843 1.503 . S
C851 C850 1.370 . S
C851 C852 1.403 . S
C852 C851 1.403 . S
C852 C853 1.404 . S
C852 C855 1.539 . S
C853 C849 1.408 . S
C853 C852 1.404 . S
C853 H865 0.930 . S
C854 C850 1.524 . S
C854 H866 0.956 . S
C854 H867 0.961 . S
C854 H868 0.961 . S
C855 C852 1.539 . S
C855 H869 0.958 . S
C855 H870 0.961 . S
C855 H871 0.960 . S
H856 C840 0.931 . S
H857 C845 0.929 . S
H858 C846 0.960 . S
H859 C846 0.962 . S
H860 C846 0.960 . S
H861 C847 0.961 . S
H862 C847 0.961 . S
H863 C847 0.961 . S
H864 C848 0.931 . S
H865 C853 0.930 . S
H866 C854 0.956 . S
H867 C854 0.961 . S
H868 C854 0.961 . S
H869 C855 0.958 . S
H870 C855 0.961 . S
H871 C855 0.960 . S
C872 C873 1.391 . S
C872 C874 1.394 . S
C872 H888 0.931 . S
C873 C872 1.391 . S
C873 C877 1.376 1_655 S
C874 C872 1.394 . S
C874 C875 1.369 . S
C874 C878 1.531 . S
C875 C874 1.369 . S
C875 C876 1.410 1_655 S
C875 C883 1.503 . S
C876 C875 1.410 1_455 S
C876 C877 1.392 . S
C876 C879 1.511 . S
C877 C873 1.376 1_455 S
C877 C876 1.392 . S
C877 H889 0.929 . S
C878 C874 1.531 . S
C878 H890 0.960 . S
C878 H891 0.962 . S
C878 H892 0.960 . S
C879 C876 1.511 . S
C879 H893 0.961 . S
C879 H894 0.961 . S
C879 H895 0.961 . S
C880 C881 1.370 1_655 S
C880 C882 1.363 1_556 S
C880 H896 0.931 . S
C881 C880 1.370 1_455 S
C881 C885 1.408 1_556 S
C882 C880 1.363 1_554 S
C882 C883 1.370 . S
C882 C886 1.524 1_554 S
C883 C875 1.503 . S
C883 C882 1.370 . S
C883 C884 1.403 1_655 S
C884 C883 1.403 1_455 S
C884 C885 1.404 . S
C884 C887 1.539 . S
C885 C881 1.408 1_554 S
C885 C884 1.404 . S
C885 H897 0.930 . S
C886 C882 1.524 1_556 S
C886 H898 0.956 . S
C886 H899 0.961 . S
C886 H900 0.961 . S
C887 C884 1.539 . S
C887 H901 0.958 1_455 S
C887 H902 0.961 . S
C887 H903 0.960 . S
H888 C872 0.931 . S
H889 C877 0.929 . S
H890 C878 0.960 . S
H891 C878 0.962 . S
H892 C878 0.960 . S
H893 C879 0.961 . S
H894 C879 0.961 . S
H895 C879 0.961 . S
H896 C880 0.931 . S
H897 C885 0.930 . S
H898 C886 0.956 . S
H899 C886 0.961 . S
H900 C886 0.961 . S
H901 C887 0.958 1_655 S
H902 C887 0.961 . S
H903 C887 0.960 . S
C904 C905 1.391 . S
C904 C906 1.394 1_565 S
C904 H920 0.931 1_565 S
C905 C904 1.391 . S
C905 C909 1.376 . S
C906 C904 1.394 1_545 S
C906 C907 1.369 1_545 S
C906 C910 1.531 . S
C907 C906 1.369 1_565 S
C907 C908 1.410 . S
C907 C915 1.500 1_565 S
C908 C907 1.410 . S
C908 C909 1.392 . S
C908 C911 1.511 1_554 S
C909 C905 1.376 . S
C909 C908 1.392 . S
C909 H921 0.929 . S
C910 C906 1.531 . S
C910 H922 0.960 . S
C910 H923 0.962 . S
C910 H924 0.960 . S
C911 C908 1.511 1_556 S
C911 H925 0.961 . S
C911 H926 0.961 . S
C911 H927 0.961 . S
C912 C913 1.368 1_564 S
C912 C914 1.363 . S
C912 H928 0.931 . S
C913 C912 1.368 1_546 S
C913 C917 1.409 . S
C914 C912 1.363 . S
C914 C915 1.359 1_565 S
C914 C918 1.524 . S
C915 C907 1.500 1_545 S
C915 C914 1.359 1_545 S
C915 C916 1.417 . S
C916 C915 1.417 . S
C916 C917 1.404 1_554 S
C916 C919 1.539 . S
C917 C913 1.409 . S
C917 C916 1.404 1_556 S
C917 H929 0.930 . S
C918 C914 1.524 . S
C918 H930 0.956 . S
C918 H931 0.961 . S
C918 H932 0.961 . S
C919 C916 1.539 . S
C919 H933 0.958 . S
C919 H934 0.961 1_554 S
C919 H935 0.960 . S
H920 C904 0.931 1_545 S
H921 C909 0.929 . S
H922 C910 0.960 . S
H923 C910 0.962 . S
H924 C910 0.960 . S
H925 C911 0.961 . S
H926 C911 0.961 . S
H927 C911 0.961 . S
H928 C912 0.931 . S
H929 C917 0.930 . S
H930 C918 0.956 . S
H931 C918 0.961 . S
H932 C918 0.961 . S
H933 C919 0.958 . S
H934 C919 0.961 1_556 S
H935 C919 0.960 . S
C936 C937 1.391 . S
C936 C938 1.394 . S
C936 H952 0.931 . S
C937 C936 1.391 . S
C937 C941 1.376 . S
C938 C936 1.394 . S
C938 C939 1.369 . S
C938 C942 1.531 . S
C939 C938 1.369 . S
C939 C940 1.410 . S
C939 C947 1.503 . S
C940 C939 1.410 . S
C940 C941 1.392 . S
C940 C943 1.511 . S
C941 C937 1.376 . S
C941 C940 1.392 . S
C941 H953 0.929 . S
C942 C938 1.531 . S
C942 H954 0.960 . S
C942 H955 0.962 . S
C942 H956 0.960 . S
C943 C940 1.511 . S
C943 H957 0.961 . S
C943 H958 0.961 . S
C943 H959 0.961 . S
C944 C945 1.374 . S
C944 C946 1.363 1_556 S
C944 H960 0.931 . S
C945 C944 1.374 . S
C945 C949 1.398 1_556 S
C946 C944 1.363 1_554 S
C946 C947 1.370 . S
C946 C950 1.524 1_554 S
C947 C939 1.503 . S
C947 C946 1.370 . S
C947 C948 1.403 . S
C948 C947 1.403 . S
C948 C949 1.404 . S
C948 C951 1.539 . S
C949 C945 1.398 1_554 S
C949 C948 1.404 . S
C949 H961 0.930 . S
C950 C946 1.524 1_556 S
C950 H962 0.956 . S
C950 H963 0.961 1_556 S
C950 H964 0.961 . S
C951 C948 1.539 . S
C951 H965 0.958 . S
C951 H966 0.961 . S
C951 H967 0.960 . S
H952 C936 0.931 . S
H953 C941 0.929 . S
H954 C942 0.960 . S
H955 C942 0.962 . S
H956 C942 0.960 . S
H957 C943 0.961 . S
H958 C943 0.961 . S
H959 C943 0.961 . S
H960 C944 0.931 . S
H961 C949 0.930 . S
H962 C950 0.956 . S
H963 C950 0.961 1_554 S
H964 C950 0.961 . S
H965 C951 0.958 . S
H966 C951 0.961 . S
H967 C951 0.960 . S
C968 C969 1.391 . S
C968 C970 1.394 . S
C968 H984 0.931 . S
C969 C968 1.391 . S
C969 C973 1.376 . S
C970 C968 1.394 . S
C970 C971 1.369 . S
C970 C974 1.531 . S
C971 C970 1.369 . S
C971 C972 1.410 . S
C971 C979 1.503 . S
C972 C971 1.410 . S
C972 C973 1.392 . S
C972 C975 1.511 . S
C973 C969 1.376 . S
C973 C972 1.392 . S
C973 H985 0.929 . S
C974 C970 1.531 . S
C974 H986 0.960 . S
C974 H987 0.962 . S
C974 H988 0.960 . S
C975 C972 1.511 . S
C975 H989 0.961 1_554 S
C975 H990 0.961 1_554 S
C975 H991 0.961 . S
C976 C977 1.370 . S
C976 C978 1.363 1_556 S
C976 H992 0.931 . S
C977 C976 1.370 . S
C977 C981 1.408 1_556 S
C978 C976 1.363 1_554 S
C978 C979 1.370 . S
C978 C982 1.524 . S
C979 C971 1.503 . S
C979 C978 1.370 . S
C979 C980 1.403 . S
C980 C979 1.403 . S
C980 C981 1.404 . S
C980 C983 1.539 . S
C981 C977 1.408 1_554 S
C981 C980 1.404 . S
C981 H993 0.930 . S
C982 C978 1.524 . S
C982 H994 0.956 . S
C982 H995 0.961 . S
C982 H996 0.961 1_554 S
C983 C980 1.539 . S
C983 H997 0.958 . S
C983 H998 0.961 . S
C983 H999 0.960 . S
H984 C968 0.931 . S
H985 C973 0.929 . S
H986 C974 0.960 . S
H987 C974 0.962 . S
H988 C974 0.960 . S
H989 C975 0.961 1_556 S
H990 C975 0.961 1_556 S
H991 C975 0.961 . S
H992 C976 0.931 . S
H993 C981 0.930 . S
H994 C982 0.956 . S
H995 C982 0.961 . S
H996 C982 0.961 1_556 S
H997 C983 0.958 . S
H998 C983 0.961 . S
H999 C983 0.960 . S
C1000 C1001 1.391 . S
C1000 C1002 1.394 . S
C1000 H1016 0.931 . S
C1001 C1000 1.391 . S
C1001 C1005 1.376 . S
C1002 C1000 1.394 . S
C1002 C1003 1.369 . S
C1002 C1006 1.531 . S
C1003 C1002 1.369 . S
C1003 C1004 1.410 . S
C1003 C1011 1.503 . S
C1004 C1003 1.410 . S
C1004 C1005 1.392 . S
C1004 C1007 1.511 1_455 S
C1005 C1001 1.376 . S
C1005 C1004 1.392 . S
C1005 H1017 0.929 1_455 S
C1006 C1002 1.531 . S
C1006 H1018 0.960 . S
C1006 H1019 0.962 . S
C1006 H1020 0.960 . S
C1007 C1004 1.511 1_655 S
C1007 H1021 0.961 . S
C1007 H1022 0.961 . S
C1007 H1023 0.961 . S
C1008 C1009 1.370 . S
C1008 C1010 1.363 . S
C1008 H1024 0.931 . S
C1009 C1008 1.370 . S
C1009 C1013 1.408 . S
C1010 C1008 1.363 . S
C1010 C1011 1.370 . S
C1010 C1014 1.524 . S
C1011 C1003 1.503 . S
C1011 C1010 1.370 . S
C1011 C1012 1.403 . S
C1012 C1011 1.403 . S
C1012 C1013 1.404 . S
C1012 C1015 1.539 . S
C1013 C1009 1.408 . S
C1013 C1012 1.404 . S
C1013 H1025 0.930 . S
C1014 C1010 1.524 . S
C1014 H1026 0.956 . S
C1014 H1027 0.961 . S
C1014 H1028 0.961 . S
C1015 C1012 1.539 . S
C1015 H1029 0.958 . S
C1015 H1030 0.961 1_556 S
C1015 H1031 0.960 . S
H1016 C1000 0.931 . S
H1017 C1005 0.929 1_655 S
H1018 C1006 0.960 . S
H1019 C1006 0.962 . S
H1020 C1006 0.960 . S
H1021 C1007 0.961 . S
H1022 C1007 0.961 . S
H1023 C1007 0.961 . S
H1024 C1008 0.931 . S
H1025 C1013 0.930 . S
H1026 C1014 0.956 . S
H1027 C1014 0.961 . S
H1028 C1014 0.961 . S
H1029 C1015 0.958 . S
H1030 C1015 0.961 1_554 S
H1031 C1015 0.960 . S
C1032 C1033 1.391 . S
C1032 C1034 1.394 . S
C1032 H1048 0.931 . S
C1033 C1032 1.391 . S
C1033 C1037 1.376 . S
C1034 C1032 1.394 . S
C1034 C1035 1.369 . S
C1034 C1038 1.531 1_545 S
C1035 C1034 1.369 . S
C1035 C1036 1.410 . S
C1035 C1043 1.503 . S
C1036 C1035 1.410 . S
C1036 C1037 1.392 . S
C1036 C1039 1.511 . S
C1037 C1033 1.376 . S
C1037 C1036 1.392 . S
C1037 H1049 0.929 . S
C1038 C1034 1.531 1_565 S
C1038 H1050 0.960 . S
C1038 H1051 0.962 . S
C1038 H1052 0.960 . S
C1039 C1036 1.511 . S
C1039 H1053 0.961 . S
C1039 H1054 0.961 . S
C1039 H1055 0.961 . S
C1040 C1041 1.370 . S
C1040 C1042 1.363 . S
C1040 H1056 0.931 . S
C1041 C1040 1.370 . S
C1041 C1045 1.408 . S
C1042 C1040 1.363 . S
C1042 C1043 1.370 . S
C1042 C1046 1.524 . S
C1043 C1035 1.503 . S
C1043 C1042 1.370 . S
C1043 C1044 1.403 . S
C1044 C1043 1.403 . S
C1044 C1045 1.404 . S
C1044 C1047 1.539 . S
C1045 C1041 1.408 . S
C1045 C1044 1.404 . S
C1045 H1057 0.930 . S
C1046 C1042 1.524 . S
C1046 H1058 0.956 . S
C1046 H1059 0.961 . S
C1046 H1060 0.961 . S
C1047 C1044 1.539 . S
C1047 H1061 0.958 . S
C1047 H1062 0.961 . S
C1047 H1063 0.960 . S
H1048 C1032 0.931 . S
H1049 C1037 0.929 . S
H1050 C1038 0.960 . S
H1051 C1038 0.962 . S
H1052 C1038 0.960 . S
H1053 C1039 0.961 . S
H1054 C1039 0.961 . S
H1055 C1039 0.961 . S
H1056 C1040 0.931 . S
H1057 C1045 0.930 . S
H1058 C1046 0.956 . S
H1059 C1046 0.961 . S
H1060 C1046 0.961 . S
H1061 C1047 0.958 . S
H1062 C1047 0.961 . S
H1063 C1047 0.960 . S
C1064 C1065 1.391 . S
C1064 C1066 1.394 . S
C1064 H1080 0.931 . S
C1065 C1064 1.391 . S
C1065 C1069 1.376 . S
C1066 C1064 1.394 . S
C1066 C1067 1.369 . S
C1066 C1070 1.531 . S
C1067 C1066 1.369 . S
C1067 C1068 1.410 . S
C1067 C1075 1.503 . S
C1068 C1067 1.410 . S
C1068 C1069 1.392 . S
C1068 C1071 1.511 . S
C1069 C1065 1.376 . S
C1069 C1068 1.392 . S
C1069 H1081 0.929 . S
C1070 C1066 1.531 . S
C1070 H1082 0.960 . S
C1070 H1083 0.962 . S
C1070 H1084 0.960 . S
C1071 C1068 1.511 . S
C1071 H1085 0.961 . S
C1071 H1086 0.961 . S
C1071 H1087 0.961 . S
C1072 C1073 1.370 . S
C1072 C1074 1.363 . S
C1072 H1088 0.931 . S
C1073 C1072 1.370 . S
C1073 C1077 1.408 . S
C1074 C1072 1.363 . S
C1074 C1075 1.370 . S
C1074 C1078 1.524 . S
C1075 C1067 1.503 . S
C1075 C1074 1.370 . S
C1075 C1076 1.403 . S
C1076 C1075 1.403 . S
C1076 C1077 1.404 . S
C1076 C1079 1.539 . S
C1077 C1073 1.408 . S
C1077 C1076 1.404 . S
C1077 H1089 0.930 . S
C1078 C1074 1.524 . S
C1078 H1090 0.956 . S
C1078 H1091 0.961 . S
C1078 H1092 0.961 . S
C1079 C1076 1.539 . S
C1079 H1093 0.958 1_556 S
C1079 H1094 0.961 . S
C1079 H1095 0.960 . S
H1080 C1064 0.931 . S
H1081 C1069 0.929 . S
H1082 C1070 0.960 . S
H1083 C1070 0.962 . S
H1084 C1070 0.960 . S
H1085 C1071 0.961 . S
H1086 C1071 0.961 . S
H1087 C1071 0.961 . S
H1088 C1072 0.931 . S
H1089 C1077 0.930 . S
H1090 C1078 0.956 . S
H1091 C1078 0.961 . S
H1092 C1078 0.961 . S
H1093 C1079 0.958 1_554 S
H1094 C1079 0.961 . S
H1095 C1079 0.960 . S
C1096 C1097 1.391 . S
C1096 C1098 1.394 . S
C1096 H1112 0.931 . S
C1097 C1096 1.391 . S
C1097 C1101 1.376 . S
C1098 C1096 1.394 . S
C1098 C1099 1.369 . S
C1098 C1102 1.531 . S
C1099 C1098 1.369 . S
C1099 C1100 1.410 . S
C1099 C1107 1.503 . S
C1100 C1099 1.410 . S
C1100 C1101 1.392 . S
C1100 C1103 1.511 . S
C1101 C1097 1.376 . S
C1101 C1100 1.392 . S
C1101 H1113 0.929 . S
C1102 C1098 1.531 . S
C1102 H1114 0.960 . S
C1102 H1115 0.962 . S
C1102 H1116 0.960 1_556 S
C1103 C1100 1.511 . S
C1103 H1117 0.961 . S
C1103 H1118 0.961 . S
C1103 H1119 0.961 . S
C1104 C1105 1.370 . S
C1104 C1106 1.363 . S
C1104 H1120 0.931 . S
C1105 C1104 1.370 . S
C1105 C1109 1.408 . S
C1106 C1104 1.363 . S
C1106 C1107 1.370 . S
C1106 C1110 1.524 . S
C1107 C1099 1.503 . S
C1107 C1106 1.370 . S
C1107 C1108 1.403 . S
C1108 C1107 1.403 . S
C1108 C1109 1.404 . S
C1108 C1111 1.539 . S
C1109 C1105 1.408 . S
C1109 C1108 1.404 . S
C1109 H1121 0.930 . S
C1110 C1106 1.524 . S
C1110 H1122 0.956 . S
C1110 H1123 0.961 . S
C1110 H1124 0.961 . S
C1111 C1108 1.539 . S
C1111 H1125 0.958 . S
C1111 H1126 0.961 . S
C1111 H1127 0.960 . S
H1112 C1096 0.931 . S
H1113 C1101 0.929 . S
H1114 C1102 0.960 . S
H1115 C1102 0.962 . S
H1116 C1102 0.960 1_554 S
H1117 C1103 0.961 . S
H1118 C1103 0.961 . S
H1119 C1103 0.961 . S
H1120 C1104 0.931 . S
H1121 C1109 0.930 . S
H1122 C1110 0.956 . S
H1123 C1110 0.961 . S
H1124 C1110 0.961 . S
H1125 C1111 0.958 . S
H1126 C1111 0.961 . S
H1127 C1111 0.960 . S
C1128 C1129 1.391 . S
C1128 C1130 1.394 . S
C1128 H1144 0.931 . S
C1129 C1128 1.391 . S
C1129 C1133 1.376 1_655 S
C1130 C1128 1.394 . S
C1130 C1131 1.369 . S
C1130 C1134 1.531 . S
C1131 C1130 1.369 . S
C1131 C1132 1.410 1_655 S
C1131 C1139 1.503 . S
C1132 C1131 1.410 1_455 S
C1132 C1133 1.392 . S
C1132 C1135 1.511 . S
C1133 C1129 1.376 1_455 S
C1133 C1132 1.392 . S
C1133 H1145 0.929 . S
C1134 C1130 1.531 . S
C1134 H1146 0.960 . S
C1134 H1147 0.962 . S
C1134 H1148 0.960 . S
C1135 C1132 1.511 . S
C1135 H1149 0.961 . S
C1135 H1150 0.961 . S
C1135 H1151 0.961 . S
C1136 C1137 1.370 . S
C1136 C1138 1.363 . S
C1136 H1152 0.931 . S
C1137 C1136 1.370 . S
C1137 C1141 1.407 1_655 S
C1138 C1136 1.363 . S
C1138 C1139 1.370 . S
C1138 C1142 1.524 . S
C1139 C1131 1.503 . S
C1139 C1138 1.370 . S
C1139 C1140 1.403 . S
C1140 C1139 1.403 . S
C1140 C1141 1.403 1_655 S
C1140 C1143 1.539 1_655 S
C1141 C1137 1.407 1_455 S
C1141 C1140 1.403 1_455 S
C1141 H1153 0.931 . S
C1142 C1138 1.524 . S
C1142 H1154 0.956 . S
C1142 H1155 0.961 . S
C1142 H1156 0.961 . S
C1143 C1140 1.539 1_455 S
C1143 H1157 0.958 1_455 S
C1143 H1158 0.961 . S
C1143 H1159 0.960 . S
H1144 C1128 0.931 . S
H1145 C1133 0.929 . S
H1146 C1134 0.960 . S
H1147 C1134 0.962 . S
H1148 C1134 0.960 . S
H1149 C1135 0.961 . S
H1150 C1135 0.961 . S
H1151 C1135 0.961 . S
H1152 C1136 0.931 . S
H1153 C1141 0.931 . S
H1154 C1142 0.956 . S
H1155 C1142 0.961 . S
H1156 C1142 0.961 . S
H1157 C1143 0.958 1_655 S
H1158 C1143 0.961 . S
H1159 C1143 0.960 . S
C1160 C1161 1.391 1_545 S
C1160 C1162 1.394 . S
C1160 H1176 0.931 . S
C1161 C1160 1.391 1_565 S
C1161 C1165 1.376 . S
C1162 C1160 1.394 . S
C1162 C1163 1.369 1_545 S
C1162 C1166 1.531 . S
C1163 C1162 1.369 1_565 S
C1163 C1164 1.410 . S
C1163 C1171 1.503 . S
C1164 C1163 1.410 . S
C1164 C1165 1.392 . S
C1164 C1167 1.511 . S
C1165 C1161 1.376 . S
C1165 C1164 1.392 . S
C1165 H1177 0.929 . S
C1166 C1162 1.531 . S
C1166 H1178 0.960 . S
C1166 H1179 0.962 . S
C1166 H1180 0.960 . S
C1167 C1164 1.511 . S
C1167 H1181 0.961 . S
C1167 H1182 0.961 . S
C1167 H1183 0.961 . S
C1168 C1169 1.370 . S
C1168 C1170 1.363 . S
C1168 H1184 0.931 1_565 S
C1169 C1168 1.370 . S
C1169 C1173 1.408 . S
C1170 C1168 1.363 . S
C1170 C1171 1.370 . S
C1170 C1174 1.524 . S
C1171 C1163 1.503 . S
C1171 C1170 1.370 . S
C1171 C1172 1.403 . S
C1172 C1171 1.403 . S
C1172 C1173 1.404 . S
C1172 C1175 1.539 . S
C1173 C1169 1.408 . S
C1173 C1172 1.404 . S
C1173 H1185 0.930 . S
C1174 C1170 1.524 . S
C1174 H1186 0.956 1_565 S
C1174 H1187 0.961 . S
C1174 H1188 0.961 . S
C1175 C1172 1.539 . S
C1175 H1189 0.958 . S
C1175 H1190 0.961 . S
C1175 H1191 0.960 . S
H1176 C1160 0.931 . S
H1177 C1165 0.929 . S
H1178 C1166 0.960 . S
H1179 C1166 0.962 . S
H1180 C1166 0.960 . S
H1181 C1167 0.961 . S
H1182 C1167 0.961 . S
H1183 C1167 0.961 . S
H1184 C1168 0.931 1_545 S
H1185 C1173 0.930 . S
H1186 C1174 0.956 1_545 S
H1187 C1174 0.961 . S
H1188 C1174 0.961 . S
H1189 C1175 0.958 . S
H1190 C1175 0.961 . S
H1191 C1175 0.960 . S
C1192 C1193 1.391 . S
C1192 C1194 1.394 . S
C1192 H1208 0.931 . S
C1193 C1192 1.391 . S
C1193 C1197 1.376 . S
C1194 C1192 1.394 . S
C1194 C1195 1.369 . S
C1194 C1198 1.531 . S
C1195 C1194 1.369 . S
C1195 C1196 1.410 . S
C1195 C1203 1.503 . S
C1196 C1195 1.410 . S
C1196 C1197 1.392 . S
C1196 C1199 1.511 . S
C1197 C1193 1.376 . S
C1197 C1196 1.392 . S
C1197 H1209 0.929 . S
C1198 C1194 1.531 . S
C1198 H1210 0.960 . S
C1198 H1211 0.962 . S
C1198 H1212 0.960 . S
C1199 C1196 1.511 . S
C1199 H1213 0.961 . S
C1199 H1214 0.961 . S
C1199 H1215 0.961 . S
C1200 C1201 1.370 . S
C1200 C1202 1.363 . S
C1200 H1216 0.931 . S
C1201 C1200 1.370 . S
C1201 C1205 1.408 . S
C1202 C1200 1.363 . S
C1202 C1203 1.370 . S
C1202 C1206 1.524 . S
C1203 C1195 1.503 . S
C1203 C1202 1.370 . S
C1203 C1204 1.403 . S
C1204 C1203 1.403 . S
C1204 C1205 1.404 . S
C1204 C1207 1.539 . S
C1205 C1201 1.408 . S
C1205 C1204 1.404 . S
C1205 H1217 0.930 . S
C1206 C1202 1.524 . S
C1206 H1218 0.956 . S
C1206 H1219 0.961 . S
C1206 H1220 0.961 . S
C1207 C1204 1.539 . S
C1207 H1221 0.958 . S
C1207 H1222 0.961 . S
C1207 H1223 0.960 . S
H1208 C1192 0.931 . S
H1209 C1197 0.929 . S
H1210 C1198 0.960 . S
H1211 C1198 0.962 . S
H1212 C1198 0.960 . S
H1213 C1199 0.961 . S
H1214 C1199 0.961 . S
H1215 C1199 0.961 . S
H1216 C1200 0.931 . S
H1217 C1205 0.930 . S
H1218 C1206 0.956 . S
H1219 C1206 0.961 . S
H1220 C1206 0.961 . S
H1221 C1207 0.958 . S
H1222 C1207 0.961 . S
H1223 C1207 0.960 . S
C1224 C1225 1.391 . S
C1224 C1226 1.394 . S
C1224 H1240 0.931 . S
C1225 C1224 1.391 . S
C1225 C1229 1.376 . S
C1226 C1224 1.394 . S
C1226 C1227 1.369 . S
C1226 C1230 1.531 . S
C1227 C1226 1.369 . S
C1227 C1228 1.410 . S
C1227 C1235 1.503 . S
C1228 C1227 1.410 . S
C1228 C1229 1.392 . S
C1228 C1231 1.511 . S
C1229 C1225 1.376 . S
C1229 C1228 1.392 . S
C1229 H1241 0.929 . S
C1230 C1226 1.531 . S
C1230 H1242 0.960 . S
C1230 H1243 0.962 . S
C1230 H1244 0.960 . S
C1231 C1228 1.511 . S
C1231 H1245 0.961 . S
C1231 H1246 0.961 . S
C1231 H1247 0.961 . S
C1232 C1233 1.370 . S
C1232 C1234 1.363 . S
C1232 H1248 0.931 . S
C1233 C1232 1.370 . S
C1233 C1237 1.408 . S
C1234 C1232 1.363 . S
C1234 C1235 1.370 . S
C1234 C1238 1.524 . S
C1235 C1227 1.503 . S
C1235 C1234 1.370 . S
C1235 C1236 1.403 . S
C1236 C1235 1.403 . S
C1236 C1237 1.404 . S
C1236 C1239 1.539 . S
C1237 C1233 1.408 . S
C1237 C1236 1.404 . S
C1237 H1249 0.930 . S
C1238 C1234 1.524 . S
C1238 H1250 0.956 . S
C1238 H1251 0.961 . S
C1238 H1252 0.961 . S
C1239 C1236 1.539 . S
C1239 H1253 0.958 . S
C1239 H1254 0.961 . S
C1239 H1255 0.960 . S
H1240 C1224 0.931 . S
H1241 C1229 0.929 . S
H1242 C1230 0.960 . S
H1243 C1230 0.962 . S
H1244 C1230 0.960 . S
H1245 C1231 0.961 . S
H1246 C1231 0.961 . S
H1247 C1231 0.961 . S
H1248 C1232 0.931 . S
H1249 C1237 0.930 . S
H1250 C1238 0.956 . S
H1251 C1238 0.961 . S
H1252 C1238 0.961 . S
H1253 C1239 0.958 . S
H1254 C1239 0.961 . S
H1255 C1239 0.960 . S
C489 C125 1.923 . S
C497 C220 2.012 . S
C529 C303 2.032 . S
C521 C144 1.945 . S
C561 C388 2.016 . S
C553 C87 1.972 . S
C593 C472 1.994 . S
C585 C106 1.917 . S
C625 C208 2.013 . S
C617 C49 2.024 . S
C649 C68 2.005 . S
C657 C291 2.030 . S
C681 C11 2.004 . S
C689 C376 2.007 . S
C713 C30 2.000 . S
C721 C460 1.999 1_655 S
C753 C210 0.656 1_455 S
C745 C97 0.612 . S
C785 C306 0.687 . S
C777 C116 0.709 . S
C817 C378 0.640 . S
C809 C135 0.659 . S
C841 C78 0.635 . S
C849 C462 0.697 . S
C873 C21 0.597 . S
C881 C222 0.678 . S
C913 C294 0.672 1_556 S
C905 C40 0.658 . S
C945 C390 0.703 . S
C937 C59 0.619 . S
C969 C2 0.603 . S
C977 C474 0.629 . S
C1001 C101 1.904 . S
C1009 C207 2.113 . S
C1033 C120 1.974 . S
C1041 C292 2.130 . S
C1073 C375 2.134 . S
C1065 C139 1.922 . S
C1105 C459 2.135 . S
C1097 C82 1.944 . S
C1129 C25 1.975 . S
C1137 C219 2.103 . S
C1169 C304 2.128 1_565 S
C1161 C44 1.907 . S
C1201 C387 2.133 . S
C1193 C63 1.927 . S
C1225 C6 1.931 . S
C1233 C471 2.138 . S
