# Generated by pormake.
# Topology ftw, (4,12)-cn, num edge types: 1
# Building blocks:
#     Node 0, Type 0, BuildingBlock: GIZVER_clean_linker_0, # of connection points: 4
#     Node 1, Type 0, BuildingBlock: GIZVER_clean_linker_0, # of connection points: 4
#     Node 2, Type 0, BuildingBlock: GIZVER_clean_linker_0, # of connection points: 4
#     Node 3, Type 1, BuildingBlock: EZIPEK_clean_sbu_0, # of connection points: 12
#     Edge 4, Type (0, 1), BuildingBlock: UVAHIK_clean_linker_0, # of connection points: 2
#     Edge 5, Type (0, 1), BuildingBlock: UVAHIK_clean_linker_0, # of connection points: 2
#     Edge 6, Type (0, 1), BuildingBlock: UVAHIK_clean_linker_0, # of connection points: 2
#     Edge 7, Type (0, 1), BuildingBlock: UVAHIK_clean_linker_0, # of connection points: 2
#     Edge 8, Type (0, 1), BuildingBlock: UVAHIK_clean_linker_0, # of connection points: 2
#     Edge 9, Type (0, 1), BuildingBlock: UVAHIK_clean_linker_0, # of connection points: 2
#     Edge 10, Type (0, 1), BuildingBlock: UVAHIK_clean_linker_0, # of connection points: 2
#     Edge 11, Type (0, 1), BuildingBlock: UVAHIK_clean_linker_0, # of connection points: 2
#     Edge 12, Type (0, 1), BuildingBlock: UVAHIK_clean_linker_0, # of connection points: 2
#     Edge 13, Type (0, 1), BuildingBlock: UVAHIK_clean_linker_0, # of connection points: 2
#     Edge 14, Type (0, 1), BuildingBlock: UVAHIK_clean_linker_0, # of connection points: 2
#     Edge 15, Type (0, 1), BuildingBlock: UVAHIK_clean_linker_0, # of connection points: 2
# Relax obj value: 0.085
# Max RMSD: 0.239
# Mean RMSD: 0.181
data_MOF--net-ftw--node1-EZIPEK_clean_sbu_0--node2-GIZVER_clean_linker_0--edge1-UVAHIK_clean_linker_0
_symmetry_space_group_name_H-M    P1
_symmetry_Int_Tables_number       1
_symmetry_cell_setting            triclinic
loop_
_symmetry_equiv_pos_as_xyz
'x, y, z'
_cell_length_a     32.204537
_cell_length_b     30.364442
_cell_length_c     29.428374
_cell_angle_alpha  89.636053
_cell_angle_beta   90.175999
_cell_angle_gamma 89.953462
loop_
_atom_site_label
_atom_site_type_symbol
_atom_site_fract_x
_atom_site_fract_y
_atom_site_fract_z
_atom_type_partial_charge
H0 H 0.87831 0.45934 0.42093 0.0
H1 H 0.89314 0.47488 0.56542 0.0
H2 H 0.96172 0.37489 0.49479 0.0
H3 H 0.83019 0.50607 0.46306 0.0
H4 H 0.83362 0.50987 0.52381 0.0
H5 H 0.88402 0.54459 0.41423 0.0
H6 H 0.94892 0.65273 0.475 0.0
H7 H 0.87624 0.56572 0.55872 0.0
C8 C 0.89246 0.44911 0.45275 0.0
C9 C 0.92201 0.41522 0.45312 0.0
C10 C 0.88191 0.47069 0.49322 0.0
C11 C 0.9009 0.45783 0.53433 0.0
C12 C 0.93029 0.42363 0.53513 0.0
C13 C 0.94037 0.40251 0.49435 0.0
C14 C 0.85226 0.50902 0.49205 0.0
C15 C 0.87685 0.55089 0.487 0.0
C16 C 0.89192 0.56363 0.44406 0.0
C17 C 0.91833 0.60003 0.43989 0.0
C18 C 0.92865 0.6244 0.47848 0.0
C19 C 0.91307 0.61287 0.52132 0.0
C20 C 0.88776 0.57549 0.52559 0.0
H21 H 0.49543 0.08295 0.41485 0.0
H22 H 0.49567 0.09365 0.56051 0.0
H23 H 0.39673 0.02517 0.49344 0.0
H24 H 0.53688 0.14066 0.45415 0.0
H25 H 0.53894 0.14234 0.51483 0.0
H26 H 0.58012 0.08985 0.41188 0.0
H27 H 0.67954 0.0255 0.48338 0.0
H28 H 0.58076 0.08718 0.55804 0.0
C29 C 0.48125 0.07541 0.44731 0.0
C30 C 0.44418 0.05098 0.44905 0.0
C31 C 0.49979 0.09102 0.48743 0.0
C32 C 0.48155 0.08143 0.52957 0.0
C33 C 0.44478 0.05691 0.53186 0.0
C34 C 0.42642 0.04186 0.49161 0.0
C35 C 0.53785 0.11967 0.48528 0.0
C36 C 0.57645 0.09168 0.48503 0.0
C37 C 0.59443 0.0795 0.44359 0.0
C38 C 0.63126 0.05492 0.44295 0.0
C39 C 0.6498 0.04221 0.48414 0.0
C40 C 0.63211 0.05361 0.52603 0.0
C41 C 0.59498 0.07805 0.52613 0.0
H42 H 0.58151 0.44037 0.02012 0.0
H43 H 0.58374 0.58184 0.0245 0.0
H44 H 0.68938 0.51156 0.97415 0.0
H45 H 0.53896 0.48128 0.07511 0.0
H46 H 0.53887 0.53968 0.07564 0.0
H47 H 0.48805 0.44169 0.03231 0.0
H48 H 0.38598 0.51609 0.97756 0.0
H49 H 0.49861 0.58223 0.01654 0.0
C50 C 0.59722 0.47108 0.01261 0.0
C51 C 0.63771 0.47059 -0.00561 0.0
C52 C 0.57757 0.51107 0.0237 0.0
C53 C 0.5982 0.55104 0.01491 0.0
C54 C 0.63826 0.55134 -0.00392 0.0
C55 C 0.65753 0.51112 -0.01413 0.0
C56 C 0.53866 0.51081 0.05251 0.0
C57 C 0.49859 0.51164 0.02537 0.0
C58 C 0.47536 0.47268 0.02014 0.0
C59 C 0.43446 0.47416 0.00334 0.0
C60 C 0.41775 0.5149 -0.01032 0.0
C61 C 0.44029 0.55427 -0.00581 0.0
C62 C 0.48108 0.55219 0.01163 0.0
C63 C 0.03633 0.12262 0.88415 0.0
C64 C 0.03193 0.11136 0.1033 0.0
C65 C 0.03581 0.90908 0.87381 0.0
C66 C 0.03563 0.89758 0.09309 0.0
C67 C 0.14042 0.90505 -0.01431 0.0
C68 C 0.13773 0.11804 -0.00608 0.0
C69 C 0.93837 0.90255 0.983 0.0
C70 C 0.93594 0.11595 -0.00853 0.0
C71 C 0.93634 1.0041 0.09694 0.0
C72 C 0.13787 1.0081 0.09994 0.0
C73 C 0.93822 0.01615 0.87762 0.0
C74 C 0.13994 0.0153 0.88069 0.0
Eu75 Eu 0.03703 0.09337 -0.00744 0.0
O76 O 0.07401 0.04785 0.03182 0.0
O77 O 1.00121 0.05086 0.94945 0.0
Eu78 Eu 0.11618 1.01123 -0.01002 0.0
Eu79 Eu 0.95968 1.00952 -0.01247 0.0
O80 O 0.07476 0.05186 0.95048 0.0
O81 O 1.00055 0.0467 0.03041 0.0
Eu82 Eu 0.03885 0.01465 0.90236 0.0
Eu83 Eu 0.03731 1.0058 0.07501 0.0
O84 O 0.07575 0.97355 0.94672 0.0
O85 O 0.07505 0.96926 0.02811 0.0
O86 O 1.00154 0.96888 0.02654 0.0
O87 O 1.00219 0.97296 0.94598 0.0
Eu88 Eu 0.03912 0.92699 -0.01534 0.0
O89 O 0.03547 0.13357 0.92792 0.0
O90 O 0.03336 0.12663 0.06074 0.0
O91 O 0.03694 0.89363 0.91633 0.0
O92 O 0.03797 0.8867 0.04934 0.0
O93 O 0.15215 0.947 -0.01006 0.0
O94 O 0.1506 0.07633 -0.00871 0.0
O95 O 0.92545 0.94437 0.98312 0.0
O96 O 0.92384 0.07388 -0.00867 0.0
O97 O 0.97557 1.00424 0.11181 0.0
O98 O 0.09852 1.00448 0.11378 0.0
O99 O 0.97766 0.01571 0.86369 0.0
O100 O 0.10074 0.0164 0.86569 0.0
O101 O 0.97801 0.88946 0.98399 0.0
O102 O 0.10118 0.89102 0.98218 0.0
O103 O 0.97531 0.12983 -0.00869 0.0
O104 O 0.09805 0.13097 -0.0046 0.0
O105 O 0.03358 0.06897 0.11567 0.0
O106 O 0.03517 0.93863 0.10926 0.0
O107 O 0.03843 0.08175 0.86774 0.0
O108 O 0.0369 0.95154 0.86169 0.0
O109 O 0.1517 0.01313 0.92412 0.0
O110 O 0.15043 1.0116 0.05695 0.0
O111 O 0.92544 0.01477 0.92065 0.0
O112 O 0.92438 1.00526 0.05353 0.0
C113 C 0.90299 0.37548 0.38164 0.0
C114 C 0.93361 0.3919 0.41103 0.0
C115 C 0.91405 0.34851 0.34529 0.0
C116 C 0.94466 0.26668 0.29673 0.0
H117 H 0.04314 0.28676 0.22397 0.0
C118 C 1.01392 0.13146 0.18344 0.0
C119 C 0.02562 0.14443 0.13936 0.0
C120 C 1.00394 0.16301 0.21599 0.0
C121 C 1.01542 0.28082 0.24383 0.0
H122 H 0.99982 0.39543 0.424 0.0
H123 H 1.01911 0.34815 0.36097 0.0
H124 H 0.02122 0.34227 0.27847 0.0
H125 H 0.03747 0.20092 0.09556 0.0
H126 H 1.01983 0.25562 0.15216 0.0
H127 H 0.93858 0.20546 0.26177 0.0
C128 C 0.98662 0.35601 0.36578 0.0
C129 C 1.00304 0.31246 0.27523 0.0
C130 C 0.97556 0.38278 0.40209 0.0
C131 C 0.02844 0.18965 0.12909 0.0
C132 C 1.01855 0.22111 0.16163 0.0
C133 C 0.95707 0.23503 0.26538 0.0
C134 C 0.95594 0.33777 0.3376 0.0
C135 C 0.96764 0.30563 0.30217 0.0
C136 C 1.00559 0.20815 0.2052 0.0
C137 C 0.9927 0.24166 0.23875 0.0
H138 H 0.87042 0.38193 0.38788 0.0
H139 H 0.88979 0.33539 0.32372 0.0
H140 H 0.91756 0.2602 0.31741 0.0
H141 H 1.01135 0.09695 0.19254 0.0
H142 H 0.99464 0.15206 0.24955 0.0
C143 C 0.67073 1.00429 0.39209 0.0
C144 C 0.653 0.04586 0.39979 0.0
C145 C 0.69695 0.99769 0.35508 0.0
C146 C 0.7695 0.05981 0.28538 0.0
H147 H 0.77343 0.95428 0.21193 0.0
C148 C 0.91141 0.01642 0.17639 0.0
C149 C 0.903 1.00417 0.13132 0.0
C150 C 0.87924 0.01963 0.2079 0.0
C151 C 0.77255 0.98398 0.23209 0.0
H152 H 0.647 0.11248 0.3737 0.0
H153 H 0.69264 0.10086 0.30871 0.0
H154 H 0.71686 0.96421 0.2663 0.0
H155 H 0.8544 0.98411 0.08446 0.0
H156 H 0.79843 0.98962 0.13961 0.0
H157 H 0.82518 0.07956 0.25149 0.0
C158 C 0.6865 0.07352 0.33154 0.0
C159 C 0.74035 0.98956 0.26327 0.0
C160 C 0.66008 0.08004 0.36841 0.0
C161 C 0.86194 0.99391 0.11883 0.0
C162 C 0.82987 0.99677 0.15045 0.0
C163 C 0.8018 0.05408 0.25455 0.0
C164 C 0.70609 0.03264 0.32527 0.0
C165 C 0.73858 0.02751 0.29025 0.0
C166 C 0.83812 1.01028 0.19508 0.0
C167 C 0.80376 0.01605 0.22776 0.0
H168 H 0.66549 0.97732 0.41565 0.0
H169 H 0.71174 0.96589 0.35117 0.0
H170 H 0.76925 0.08911 0.30619 0.0
H171 H 0.94265 0.02464 0.1871 0.0
H172 H 0.88649 0.02965 0.24228 0.0
C173 C 0.97796 0.62026 0.39053 0.0
C174 C 0.93505 0.61409 0.39553 0.0
C175 C 0.99355 0.6423 0.35256 0.0
C176 C 1.01131 0.72246 0.29557 0.0
H177 H 0.96395 0.72144 0.17435 0.0
C178 C 0.02575 0.86937 0.17264 0.0
C179 C 0.03122 0.86088 0.12615 0.0
C180 C 1.01838 0.8349 0.20317 0.0
C181 C 0.97791 0.72176 0.20787 0.0
H182 H 0.87489 0.62325 0.36397 0.0
H183 H 0.90194 0.66269 0.2977 0.0
H184 H 0.9436 0.66492 0.22928 0.0
H185 H 0.03438 0.80902 0.07564 0.0
H186 H 0.02199 0.74909 0.12907 0.0
H187 H 0.04553 0.77923 0.27435 0.0
C188 C 0.92371 0.64998 0.32265 0.0
C189 C 0.96594 0.68964 0.23945 0.0
C190 C 0.90814 0.62747 0.36054 0.0
C191 C 0.03018 0.81695 0.11115 0.0
C192 C 0.0228 0.7825 0.14171 0.0
C193 C 0.02329 0.75445 0.26406 0.0
C194 C 0.96645 0.65911 0.31916 0.0
C195 C 0.98207 0.69002 0.28387 0.0
C196 C 1.01637 0.79114 0.18796 0.0
C197 C 1.00621 0.75494 0.22012 0.0
H198 H 0.99925 0.60981 0.41708 0.0
H199 H 0.02671 0.64784 0.35034 0.0
H200 H 0.02392 0.72421 0.32967 0.0
H201 H 0.02621 0.90272 0.18547 0.0
H202 H 1.01304 0.84271 0.23854 0.0
C203 C 0.41878 0.0675 0.36977 0.0
C204 C 0.42147 0.03827 0.40698 0.0
C205 C 0.39193 0.05871 0.33352 0.0
C206 C 0.29258 1.00984 0.31332 0.0
H207 H 0.31987 0.0141 0.18523 0.0
C208 C 0.16673 0.98487 0.17554 0.0
C209 C 0.1708 1.00882 0.13488 0.0
C210 C 0.19895 0.98452 0.20755 0.0
C211 C 0.3115 0.01348 0.22083 0.0
H212 H 0.40059 0.97502 0.43314 0.0
H213 H 0.35253 0.96081 0.37067 0.0
H214 H 0.37504 0.02051 0.24186 0.0
H215 H 0.21099 0.05224 0.09627 0.0
H216 H 0.26603 0.05363 0.15275 0.0
H217 H 0.22906 1.00535 0.29307 0.0
C218 C 0.37116 0.9905 0.36988 0.0
C219 C 0.34324 0.01676 0.25314 0.0
C220 C 0.39853 0.99883 0.40567 0.0
C221 C 0.20724 0.03302 0.12713 0.0
C222 C 0.23901 0.03346 0.15945 0.0
C223 C 0.26075 1.0075 0.28111 0.0
C224 C 0.36691 0.02088 0.3341 0.0
C225 C 0.33398 0.01507 0.29961 0.0
C226 C 0.23555 1.00892 0.19998 0.0
C227 C 0.26969 1.00954 0.23436 0.0
H228 H 0.43559 0.09837 0.36973 0.0
H229 H 0.38899 0.08269 0.30627 0.0
H230 H 0.28469 1.00903 0.34909 0.0
H231 H 0.13908 0.96558 0.18212 0.0
H232 H 0.1953 0.9646 0.2379 0.0
C233 C 0.92247 0.68649 0.55693 0.0
C234 C 0.92374 0.64039 0.56101 0.0
C235 C 0.93655 0.713 0.59216 0.0
C236 C 0.95904 0.71605 0.71407 0.0
H237 H 0.0303 0.81356 0.67938 0.0
C238 C 0.03287 0.83096 0.84698 0.0
C239 C 0.03033 0.87632 0.83727 0.0
C240 C 0.0236 0.79997 0.81362 0.0
C241 C 1.01023 0.78668 0.68958 0.0
H242 H 0.93911 0.58584 0.60585 0.0
H243 H 0.96355 0.63255 0.66811 0.0
H244 H 1.00487 0.76324 0.62148 0.0
H245 H 1.01706 0.92454 0.78435 0.0
H246 H 1.00061 0.87056 0.72647 0.0
H247 H 0.96372 0.74004 0.7821 0.0
C248 C 0.95169 0.64798 0.63742 0.0
C249 C 0.99568 0.75788 0.65646 0.0
C250 C 0.93763 0.62131 0.60194 0.0
C251 C 1.01962 0.88992 0.79302 0.0
C252 C 1.01027 0.85893 0.75973 0.0
C253 C 0.97349 0.74501 0.74727 0.0
C254 C 0.95209 0.69406 0.63238 0.0
C255 C 0.96944 0.72269 0.66825 0.0
C256 C 1.01158 0.81363 0.76984 0.0
C257 C 0.99878 0.781 0.73525 0.0
H258 H 0.91108 0.7021 0.52611 0.0
H259 H 0.93554 0.74844 0.58779 0.0
H260 H 0.93865 0.68936 0.72403 0.0
H261 H 0.04133 0.81924 0.88059 0.0
H262 H 0.02553 0.76529 0.82222 0.0
C263 C 0.41579 0.08599 0.60446 0.0
C264 C 0.42293 0.05021 0.5755 0.0
C265 C 0.38942 0.08141 0.64175 0.0
C266 C 0.33602 1.00061 0.71547 0.0
H267 H 0.25149 0.09138 0.72311 0.0
C268 C 0.21471 1.00759 0.85936 0.0
C269 C 0.17353 0.01722 0.84659 0.0
C270 C 0.24681 1.0108 0.82784 0.0
C271 C 0.27479 0.06571 0.72124 0.0
H272 H 0.41051 0.98097 0.56439 0.0
H273 H 0.36432 0.97296 0.6295 0.0
H274 H 0.30712 0.09861 0.66755 0.0
H275 H 0.13383 0.0374 0.79045 0.0
H276 H 0.19009 0.04292 0.73535 0.0
H277 H 0.3031 0.96731 0.76863 0.0
C278 C 0.37904 1.00451 0.62343 0.0
C279 C 0.30694 0.07012 0.68989 0.0
C280 C 0.40523 1.00914 0.58604 0.0
C281 C 0.16515 0.02969 0.80141 0.0
C282 C 0.19738 0.03317 0.76994 0.0
C283 C 0.30396 0.99632 0.74705 0.0
C284 C 0.36993 0.04093 0.65087 0.0
C285 C 0.33771 0.03748 0.68647 0.0
C286 C 0.23853 0.02396 0.78293 0.0
C287 C 0.27286 0.02867 0.74994 0.0
H288 H 0.42883 0.11809 0.59696 0.0
H289 H 0.38333 0.10987 0.66273 0.0
H290 H 0.35941 0.97504 0.71364 0.0
H291 H 0.22232 0.99769 0.89382 0.0
H292 H 0.27828 1.00384 0.83888 0.0
C293 C 0.92497 0.40142 0.61731 0.0
C294 C 0.94933 0.40772 0.57823 0.0
C295 C 0.94098 0.37832 0.65474 0.0
C296 C 1.00421 0.28552 0.67437 0.0
H297 H 1.00927 0.31722 0.80158 0.0
C298 C 0.05287 0.15739 0.80909 0.0
C299 C 0.03284 0.15917 0.85126 0.0
C300 C 0.0485 0.19201 0.77788 0.0
C301 C 1.00753 0.30756 0.76628 0.0
H302 H 1.01091 0.39906 0.54975 0.0
H303 H 0.03806 0.35721 0.61439 0.0
H304 H 0.98996 0.37278 0.74484 0.0
H305 H 0.99242 0.19801 0.89397 0.0
H306 H 0.98266 0.25688 0.83893 0.0
H307 H 1.01874 0.21996 0.69507 0.0
C308 C 1.00668 0.37003 0.61584 0.0
C309 C 0.99684 0.33957 0.73392 0.0
C310 C 0.99099 0.39367 0.57885 0.0
C311 C 1.00852 0.19605 0.8618 0.0
C312 C 1.00327 0.23006 0.83026 0.0
C313 C 1.01388 0.25332 0.70666 0.0
C314 C 0.98136 0.36096 0.65335 0.0
C315 C 0.99502 0.32864 0.6878 0.0
C316 C 0.02305 0.22852 0.78773 0.0
C317 C 1.01542 0.26373 0.75317 0.0
H318 H 0.89276 0.41168 0.61787 0.0
H319 H 0.92093 0.37144 0.68341 0.0
H320 H 1.00242 0.27634 0.63889 0.0
H321 H 0.0722 0.12947 0.80042 0.0
H322 H 0.06506 0.18997 0.74602 0.0
C323 C 0.65741 0.07418 0.60413 0.0
C324 C 0.6549 0.04314 0.56888 0.0
C325 C 0.68433 0.06732 0.6409 0.0
C326 C 0.78417 0.02218 0.66374 0.0
H327 H 0.75648 0.02386 0.79175 0.0
C328 C 0.9101 0.99628 0.8012 0.0
C329 C 0.90547 0.0183 0.84261 0.0
C330 C 0.87801 0.99678 0.76907 0.0
C331 C 0.76496 0.02408 0.7562 0.0
H332 H 0.67615 0.97879 0.54693 0.0
H333 H 0.72442 0.96802 0.61013 0.0
H334 H 0.70125 0.02926 0.73493 0.0
H335 H 0.86451 0.05919 0.8826 0.0
H336 H 0.80962 0.06233 0.8258 0.0
H337 H 0.84773 0.01949 0.68411 0.0
C338 C 0.70554 0.99756 0.609 0.0
C339 C 0.73319 0.02676 0.72378 0.0
C340 C 0.67809 1.00394 0.57278 0.0
C341 C 0.86865 0.04154 0.85104 0.0
C342 C 0.837 0.04295 0.81855 0.0
C343 C 0.81598 0.02052 0.69602 0.0
C344 C 0.70958 0.02967 0.64272 0.0
C345 C 0.74261 0.02569 0.67736 0.0
C346 C 0.841 0.02024 0.77723 0.0
C347 C 0.8069 0.02141 0.74278 0.0
H348 H 0.64041 0.10491 0.60216 0.0
H349 H 0.68714 0.09256 0.66658 0.0
H350 H 0.7921 0.02188 0.62799 0.0
H351 H 0.93805 0.97767 0.79416 0.0
H352 H 0.8821 0.97812 0.73819 0.0
C353 C 0.36607 0.43809 0.01978 0.0
C354 C 0.40724 0.43443 0.0044 0.0
C355 C 0.33966 0.40171 0.02007 0.0
C356 C 0.32447 0.29174 0.96922 0.0
H357 H 0.24365 0.27987 0.06599 0.0
C358 C 0.21189 0.14276 -0.01472 0.0
C359 C 0.17025 0.15276 -0.00449 0.0
C360 C 0.24256 0.17537 -0.01298 0.0
C361 C 0.26583 0.28289 0.03854 0.0
H362 H 0.45314 0.38905 0.97823 0.0
H363 H 0.40699 0.32486 0.97952 0.0
H364 H 0.29498 0.33861 0.06906 0.0
H365 H 0.12849 0.2052 0.01572 0.0
H366 H 0.18197 0.26185 0.01888 0.0
H367 H 0.29514 0.23568 0.93891 0.0
C368 C 0.39503 0.35633 -0.0094 0.0
C369 C 0.29528 0.31662 0.04024 0.0
C370 C 0.4216 0.39299 -0.00977 0.0
C371 C 0.16014 0.19621 0.00755 0.0
C372 C 0.19087 0.22868 0.00968 0.0
C373 C 0.2951 0.25774 0.96768 0.0
C374 C 0.35363 0.36031 0.00545 0.0
C375 C 0.32458 0.32201 0.00524 0.0
C376 C 0.23245 0.21866 -0.00052 0.0
C377 C 0.26504 0.25335 0.002 0.0
H378 H 0.35412 0.46923 0.03185 0.0
H379 H 0.30793 0.40634 0.03116 0.0
H380 H 0.34622 0.29511 0.94143 0.0
H381 H 0.2209 0.10973 0.97573 0.0
H382 H 0.27433 0.16651 0.97927 0.0
C383 C 0.42369 0.63267 0.01585 0.0
C384 C 0.41868 0.59722 -0.01422 0.0
C385 C 0.39806 0.66991 0.01262 0.0
C386 C 0.3164 0.72423 0.93916 0.0
H387 H 0.28233 0.77481 0.05383 0.0
C388 C 0.16817 0.83122 0.9622 0.0
C389 C 0.17392 0.87148 -0.01528 0.0
C390 C 0.20031 0.80013 0.96047 0.0
C391 C 0.29178 0.76119 0.02153 0.0
H392 H 0.38475 0.57512 0.92635 0.0
H393 H 0.33896 0.63831 0.9222 0.0
H394 H 0.3354 0.71767 0.05313 0.0
H395 H 0.21773 0.91028 0.02375 0.0
H396 H 0.27329 0.85538 0.02182 0.0
H397 H 0.27091 0.76663 0.90814 0.0
C398 C 0.36296 0.63807 0.94802 0.0
C399 C 0.32255 0.7286 0.02096 0.0
C400 C 0.38901 0.60128 0.95078 0.0
C401 C 0.21233 0.87968 0.00594 0.0
C402 C 0.24411 0.84823 0.00502 0.0
C403 C 0.28504 0.75621 0.9399 0.0
C404 C 0.3663 0.67252 0.97963 0.0
C405 C 0.33527 0.70939 0.97978 0.0
C406 C 0.23853 0.80825 0.98206 0.0
C407 C 0.27232 0.7749 0.9811 0.0
H408 H 0.44601 0.63087 0.04339 0.0
H409 H 0.40257 0.69615 0.03686 0.0
H410 H 0.32573 0.71118 0.90662 0.0
H411 H 0.13905 0.82399 0.94531 0.0
H412 H 0.19509 0.76944 0.94279 0.0
C413 C 0.65696 0.39343 0.01988 0.0
C414 C 0.66142 0.42846 -0.0113 0.0
C415 C 0.68287 0.35639 0.01785 0.0
C416 C 0.76393 0.3014 0.94526 0.0
H417 H 0.79579 0.24764 0.06007 0.0
C418 C 0.91018 0.19174 0.97157 0.0
C419 C 0.90289 0.15006 -0.00892 0.0
C420 C 0.87865 0.22349 0.96991 0.0
C421 C 0.78694 0.26219 0.02775 0.0
H422 H 0.69546 0.45004 0.92902 0.0
H423 H 0.74198 0.3875 0.92728 0.0
H424 H 0.74428 0.30643 0.05898 0.0
H425 H 0.85695 0.10944 0.02503 0.0
H426 H 0.80232 0.16571 0.02359 0.0
H427 H 0.80867 0.25836 0.91471 0.0
C428 C 0.71795 0.38783 0.95289 0.0
C429 C 0.75707 0.29575 0.02693 0.0
C430 C 0.69151 0.42438 0.95435 0.0
C431 C 0.86351 0.14114 0.00957 0.0
C432 C 0.8323 0.17332 0.0089 0.0
C433 C 0.79448 0.26855 0.94629 0.0
C434 C 0.71459 0.35351 -0.0149 0.0
C435 C 0.74511 0.31608 -0.01433 0.0
C436 C 0.83947 0.21467 -0.01128 0.0
C437 C 0.80634 0.24871 -0.01246 0.0
H438 H 0.63454 0.39517 0.04713 0.0
H439 H 0.67832 0.33035 0.04261 0.0
H440 H 0.75514 0.31517 0.91262 0.0
H441 H 0.94008 0.19961 0.95692 0.0
H442 H 0.88504 0.25522 0.95441 0.0
C443 C 0.68551 0.60169 0.95212 0.0
C444 C 0.66236 0.59294 -0.0084 0.0
C445 C 0.71224 0.63796 0.94999 0.0
C446 C 0.77528 0.70777 0.02392 0.0
H447 H 0.7855 0.78335 0.9178 0.0
C448 C 0.9151 0.82449 -0.0038 0.0
C449 C 0.90587 0.86784 0.98234 0.0
C450 C 0.88412 0.79218 -0.00304 0.0
C451 C 0.78288 0.76262 0.94774 0.0
H452 H 0.64848 0.61593 0.05944 0.0
H453 H 0.69529 0.67928 0.05577 0.0
H454 H 0.7319 0.7262 0.91971 0.0
H455 H 0.85677 0.91085 0.9576 0.0
H456 H 0.80296 0.85425 0.9584 0.0
H457 H 0.8265 0.74377 0.05177 0.0
C458 C 0.69271 0.65802 0.02648 0.0
C459 C 0.75237 0.72976 0.94872 0.0
C460 C 0.66559 0.62204 0.0284 0.0
C461 C 0.86501 0.87787 0.96864 0.0
C462 C 0.83418 0.84539 0.96883 0.0
C463 C 0.80609 0.74021 0.0227 0.0
C464 C 0.71683 0.66599 -0.01248 0.0
C465 C 0.74823 0.70196 -0.01316 0.0
C466 C 0.8433 0.80226 0.98331 0.0
C467 C 0.8103 0.76797 -0.01541 0.0
H468 H 0.68359 0.57985 0.92322 0.0
H469 H 0.73054 0.64306 0.91959 0.0
H470 H 0.77317 0.6866 0.05358 0.0
H471 H 0.94615 0.8156 0.00716 0.0
H472 H 0.8922 0.75913 0.00792 0.0
loop_
_geom_bond_atom_site_label_1
_geom_bond_atom_site_label_2
_geom_bond_distance
_geom_bond_site_symmetry_2
_ccdc_geom_bond_type
H0 C8 0.930 . S
H1 C11 0.930 . S
H2 C13 0.930 . S
H3 C14 0.970 . S
H4 C14 0.970 . S
H5 C16 0.930 . S
H6 C18 0.930 . S
H7 C20 0.930 . S
C8 H0 0.930 . S
C8 C9 1.382 . S
C8 C10 1.426 . S
C9 C8 1.382 . S
C9 C13 1.389 1_655 S
C10 C8 1.426 . S
C10 C11 1.375 . S
C10 C14 1.532 . S
C11 H1 0.930 . S
C11 C10 1.375 . S
C11 C12 1.416 . S
C12 C11 1.416 . S
C12 C13 1.371 1_655 S
C13 H2 0.930 . S
C13 C9 1.389 1_455 S
C13 C12 1.371 1_455 S
C14 H3 0.970 . S
C14 H4 0.970 . S
C14 C10 1.532 . S
C14 C15 1.499 . S
C15 C14 1.499 . S
C15 C16 1.370 . S
C15 C20 1.415 . S
C16 H5 0.930 . S
C16 C15 1.370 . S
C16 C17 1.407 . S
C17 C16 1.407 . S
C17 C18 1.365 1_655 S
C18 H6 0.930 . S
C18 C17 1.365 1_455 S
C18 C19 1.393 1_455 S
C19 C18 1.393 1_655 S
C19 C20 1.387 . S
C20 H7 0.930 . S
C20 C15 1.415 . S
C20 C19 1.387 . S
H21 C29 0.930 . S
H22 C32 0.930 . S
H23 C34 0.928 . S
H24 C35 0.970 . S
H25 C35 0.970 . S
H26 C37 0.930 . S
H27 C39 0.930 . S
H28 C41 0.930 . S
C29 H21 0.930 . S
C29 C30 1.382 . S
C29 C31 1.426 . S
C30 C29 1.382 . S
C30 C34 1.390 1_545 S
C31 C29 1.426 . S
C31 C32 1.375 . S
C31 C35 1.532 . S
C32 H22 0.930 . S
C32 C31 1.375 . S
C32 C33 1.416 . S
C33 C32 1.416 . S
C33 C34 1.372 1_545 S
C34 H23 0.928 . S
C34 C30 1.390 1_565 S
C34 C33 1.372 1_565 S
C35 H24 0.970 . S
C35 H25 0.970 . S
C35 C31 1.532 . S
C35 C36 1.499 . S
C36 C35 1.499 . S
C36 C37 1.370 . S
C36 C41 1.415 . S
C37 H26 0.930 . S
C37 C36 1.370 . S
C37 C38 1.407 . S
C38 C37 1.407 . S
C38 C39 1.365 1_545 S
C39 H27 0.930 . S
C39 C38 1.365 1_565 S
C39 C40 1.393 1_565 S
C40 C39 1.393 1_545 S
C40 C41 1.387 . S
C41 H28 0.930 . S
C41 C36 1.415 . S
C41 C40 1.387 . S
H42 C50 0.930 . S
H43 C53 0.930 . S
H44 C55 0.937 . S
H45 C56 0.970 . S
H46 C56 0.970 . S
H47 C58 0.930 . S
H48 C60 0.930 . S
H49 C62 0.930 . S
C50 H42 0.930 . S
C50 C51 1.382 . S
C50 C52 1.426 . S
C51 C50 1.382 . S
C51 C55 1.385 1_554 S
C52 C50 1.426 . S
C52 C53 1.375 . S
C52 C56 1.532 . S
C53 H43 0.930 . S
C53 C52 1.375 . S
C53 C54 1.416 . S
C54 C53 1.416 . S
C54 C55 1.368 1_554 S
C55 H44 0.937 . S
C55 C51 1.385 1_556 S
C55 C54 1.368 1_556 S
C56 H45 0.970 . S
C56 H46 0.970 . S
C56 C52 1.532 . S
C56 C57 1.499 . S
C57 C56 1.499 . S
C57 C58 1.370 . S
C57 C62 1.415 . S
C58 H47 0.930 . S
C58 C57 1.370 . S
C58 C59 1.407 . S
C59 C58 1.407 . S
C59 C60 1.365 1_554 S
C60 H48 0.930 . S
C60 C59 1.365 1_556 S
C60 C61 1.393 1_556 S
C61 C60 1.393 1_554 S
C61 C62 1.387 . S
C62 H49 0.930 . S
C62 C57 1.415 . S
C62 C61 1.387 . S
C63 O89 1.283 . S
C63 O107 1.283 . S
C64 O90 1.283 . S
C64 O105 1.283 . S
C65 O91 1.283 . S
C65 O108 1.283 . S
C66 O92 1.283 . S
C66 O106 1.283 . S
C67 O93 1.283 . S
C67 O102 1.283 . S
C68 O94 1.283 . S
C68 O104 1.283 . S
C69 O95 1.283 . S
C69 O101 1.283 . S
C70 O96 1.283 . S
C70 O103 1.283 . S
C71 O97 1.283 . S
C71 O112 1.283 . S
C72 O98 1.283 . S
C72 O110 1.283 . S
C73 O99 1.283 . S
C73 O111 1.283 . S
C74 O100 1.283 . S
C74 O109 1.283 . S
Eu75 O76 2.375 . S
Eu75 O77 2.365 1_454 S
Eu75 O80 2.375 1_554 S
Eu75 O81 2.365 1_455 S
Eu75 O89 2.363 1_554 S
Eu75 O90 2.363 . S
Eu75 O103 2.354 1_455 S
Eu75 O104 2.371 . S
O76 Eu75 2.375 . S
O76 Eu78 2.370 . S
O76 Eu83 2.369 . S
O77 Eu75 2.365 1_656 S
O77 Eu79 2.370 1_556 S
O77 Eu82 2.365 1_655 S
Eu78 O76 2.370 . S
Eu78 O80 2.370 1_554 S
Eu78 O84 2.370 1_544 S
Eu78 O85 2.370 1_545 S
Eu78 O93 2.363 1_545 S
Eu78 O94 2.363 . S
Eu78 O109 2.363 1_554 S
Eu78 O110 2.363 . S
Eu79 O77 2.370 1_554 S
Eu79 O81 2.370 . S
Eu79 O86 2.370 1_545 S
Eu79 O87 2.370 1_544 S
Eu79 O95 2.363 1_545 S
Eu79 O96 2.363 . S
Eu79 O111 2.363 1_554 S
Eu79 O112 2.363 . S
O80 Eu75 2.375 1_556 S
O80 Eu78 2.370 1_556 S
O80 Eu82 2.376 . S
O81 Eu75 2.365 1_655 S
O81 Eu79 2.370 . S
O81 Eu83 2.372 1_655 S
Eu82 O77 2.365 1_455 S
Eu82 O80 2.376 . S
Eu82 O84 2.376 1_545 S
Eu82 O87 2.365 1_445 S
Eu82 O99 2.354 1_455 S
Eu82 O100 2.372 . S
Eu82 O107 2.363 . S
Eu82 O108 2.363 1_545 S
Eu83 O76 2.369 . S
Eu83 O81 2.372 1_455 S
Eu83 O85 2.369 1_545 S
Eu83 O86 2.372 1_445 S
Eu83 O97 2.365 1_455 S
Eu83 O98 2.360 . S
Eu83 O105 2.363 . S
Eu83 O106 2.363 1_445 S
O84 Eu78 2.370 1_566 S
O84 Eu82 2.376 1_565 S
O84 Eu88 2.369 1_556 S
O85 Eu78 2.370 1_565 S
O85 Eu83 2.369 1_565 S
O85 Eu88 2.369 . S
O86 Eu79 2.370 1_565 S
O86 Eu83 2.372 1_665 S
O86 Eu88 2.371 1_655 S
O87 Eu79 2.370 1_566 S
O87 Eu82 2.365 1_665 S
O87 Eu88 2.371 1_656 S
Eu88 O84 2.369 1_554 S
Eu88 O85 2.369 . S
Eu88 O86 2.371 1_455 S
Eu88 O87 2.371 1_454 S
Eu88 O91 2.363 1_554 S
Eu88 O92 2.363 1_455 S
Eu88 O101 2.365 1_455 S
Eu88 O102 2.361 . S
O89 C63 1.283 . S
O89 Eu75 2.363 1_556 S
O90 C64 1.283 . S
O90 Eu75 2.363 . S
O91 C65 1.283 . S
O91 Eu88 2.363 1_556 S
O92 C66 1.283 . S
O92 Eu88 2.363 1_655 S
O93 C67 1.283 . S
O93 Eu78 2.363 1_565 S
O94 C68 1.283 . S
O94 Eu78 2.363 . S
O95 C69 1.283 . S
O95 Eu79 2.363 1_565 S
O96 C70 1.283 . S
O96 Eu79 2.363 . S
O97 C71 1.283 . S
O97 Eu83 2.365 1_655 S
O98 C72 1.283 . S
O98 Eu83 2.360 . S
O99 C73 1.283 . S
O99 Eu82 2.354 1_655 S
O100 C74 1.283 . S
O100 Eu82 2.372 . S
O101 C69 1.283 . S
O101 Eu88 2.365 1_655 S
O102 C67 1.283 . S
O102 Eu88 2.361 . S
O103 C70 1.283 . S
O103 Eu75 2.354 1_655 S
O104 C68 1.283 . S
O104 Eu75 2.371 . S
O105 C64 1.283 . S
O105 Eu83 2.363 . S
O106 C66 1.283 . S
O106 Eu83 2.363 1_665 S
O107 C63 1.283 . S
O107 Eu82 2.363 . S
O108 C65 1.283 . S
O108 Eu82 2.363 1_565 S
O109 C74 1.283 . S
O109 Eu78 2.363 1_556 S
O110 C72 1.283 . S
O110 Eu78 2.363 . S
O111 C73 1.283 . S
O111 Eu79 2.363 1_556 S
O112 C71 1.283 . S
O112 Eu79 2.363 . S
C113 C114 1.349 . S
C113 C115 1.327 . S
C113 H138 0.950 . S
C114 C113 1.349 . S
C114 C130 1.349 1_655 S
C115 C113 1.327 . S
C115 C134 1.429 . S
C115 H139 0.950 . S
C116 C133 1.574 . S
C116 C135 1.368 1_455 S
C116 H140 0.949 . S
H117 C121 0.949 . S
C118 C119 1.348 . S
C118 C120 1.327 . S
C118 H141 0.950 . S
C119 C118 1.348 . S
C119 C131 1.349 1_455 S
C120 C118 1.327 . S
C120 C136 1.415 1_455 S
C120 H142 0.950 . S
C121 H117 0.949 . S
C121 C129 1.574 . S
C121 C137 1.368 . S
H122 C130 0.950 . S
H123 C128 0.950 . S
H124 C129 0.949 . S
H125 C131 0.950 . S
H126 C132 0.950 . S
H127 C133 0.949 . S
C128 H123 0.950 . S
C128 C130 1.327 . S
C128 C134 1.429 1_455 S
C129 C121 1.574 . S
C129 H124 0.949 . S
C129 C135 1.368 . S
C130 C114 1.349 1_455 S
C130 H122 0.950 . S
C130 C128 1.327 . S
C131 C119 1.349 1_655 S
C131 H125 0.950 . S
C131 C132 1.327 . S
C132 H126 0.950 . S
C132 C131 1.327 . S
C132 C136 1.442 . S
C133 C116 1.574 . S
C133 H127 0.949 . S
C133 C137 1.368 1_455 S
C134 C115 1.429 . S
C134 C128 1.429 1_655 S
C134 C135 1.523 . S
C135 C116 1.368 1_655 S
C135 C129 1.368 . S
C135 C134 1.523 . S
C136 C120 1.415 1_655 S
C136 C132 1.442 . S
C136 C137 1.523 . S
C137 C121 1.368 . S
C137 C133 1.368 1_655 S
C137 C136 1.523 . S
H138 C113 0.950 . S
H139 C115 0.950 . S
H140 C116 0.949 . S
H141 C118 0.950 . S
H142 C120 0.950 . S
C143 C144 1.337 1_565 S
C143 C145 1.327 . S
C143 H168 0.950 . S
C144 C143 1.337 1_545 S
C144 C160 1.361 . S
C145 C143 1.327 . S
C145 C164 1.429 1_565 S
C145 H169 0.950 . S
C146 C163 1.574 . S
C146 C165 1.368 . S
C146 H170 0.949 . S
H147 C151 0.949 . S
C148 C149 1.349 . S
C148 C150 1.327 . S
C148 H171 0.950 . S
C149 C148 1.349 . S
C149 C161 1.349 1_545 S
C150 C148 1.327 . S
C150 C166 1.429 . S
C150 H172 0.950 . S
C151 H147 0.949 . S
C151 C159 1.574 . S
C151 C167 1.368 1_565 S
H152 C160 0.950 . S
H153 C158 0.950 . S
H154 C159 0.949 . S
H155 C161 0.950 . S
H156 C162 0.950 . S
H157 C163 0.949 . S
C158 H153 0.950 . S
C158 C160 1.327 . S
C158 C164 1.429 . S
C159 C151 1.574 . S
C159 H154 0.949 . S
C159 C165 1.368 1_565 S
C160 C144 1.361 . S
C160 H152 0.950 . S
C160 C158 1.327 . S
C161 C149 1.349 1_565 S
C161 H155 0.950 . S
C161 C162 1.327 . S
C162 H156 0.950 . S
C162 C161 1.327 . S
C162 C166 1.429 1_565 S
C163 C146 1.574 . S
C163 H157 0.949 . S
C163 C167 1.368 . S
C164 C145 1.429 1_545 S
C164 C158 1.429 . S
C164 C165 1.523 . S
C165 C146 1.368 . S
C165 C159 1.368 1_545 S
C165 C164 1.523 . S
C166 C150 1.429 . S
C166 C162 1.429 1_545 S
C166 C167 1.523 . S
C167 C151 1.368 1_545 S
C167 C163 1.368 . S
C167 C166 1.523 . S
H168 C143 0.950 . S
H169 C145 0.950 . S
H170 C146 0.949 . S
H171 C148 0.950 . S
H172 C150 0.950 . S
C173 C174 1.349 . S
C173 C175 1.327 . S
C173 H198 0.950 . S
C174 C173 1.349 . S
C174 C190 1.349 1_455 S
C175 C173 1.327 . S
C175 C194 1.429 . S
C175 H199 0.950 . S
C176 C193 1.574 . S
C176 C195 1.368 1_655 S
C176 H200 0.949 . S
H177 C181 0.949 . S
C178 C179 1.351 . S
C178 C180 1.327 . S
C178 H201 0.950 . S
C179 C178 1.351 . S
C179 C191 1.347 1_655 S
C180 C178 1.327 . S
C180 C196 1.415 1_655 S
C180 H202 0.950 . S
C181 H177 0.949 . S
C181 C189 1.574 . S
C181 C197 1.368 . S
H182 C190 0.950 . S
H183 C188 0.950 . S
H184 C189 0.949 . S
H185 C191 0.950 . S
H186 C192 0.950 . S
H187 C193 0.949 . S
C188 H183 0.950 . S
C188 C190 1.327 . S
C188 C194 1.429 1_655 S
C189 C181 1.574 . S
C189 H184 0.949 . S
C189 C195 1.368 . S
C190 C174 1.349 1_655 S
C190 H182 0.950 . S
C190 C188 1.327 . S
C191 C179 1.347 1_455 S
C191 H185 0.950 . S
C191 C192 1.327 . S
C192 H186 0.950 . S
C192 C191 1.327 . S
C192 C196 1.442 . S
C193 C176 1.574 . S
C193 H187 0.949 . S
C193 C197 1.368 1_655 S
C194 C175 1.429 . S
C194 C188 1.429 1_455 S
C194 C195 1.523 . S
C195 C176 1.368 1_455 S
C195 C189 1.368 . S
C195 C194 1.523 . S
C196 C180 1.415 1_455 S
C196 C192 1.442 . S
C196 C197 1.523 . S
C197 C181 1.368 . S
C197 C193 1.368 1_455 S
C197 C196 1.523 . S
H198 C173 0.950 . S
H199 C175 0.950 . S
H200 C176 0.949 . S
H201 C178 0.950 . S
H202 C180 0.950 . S
C203 C204 1.349 . S
C203 C205 1.327 . S
C203 H228 0.950 . S
C204 C203 1.349 . S
C204 C220 1.349 1_545 S
C205 C203 1.327 . S
C205 C224 1.429 . S
C205 H229 0.950 . S
C206 C223 1.574 . S
C206 C225 1.368 1_565 S
C206 H230 0.949 . S
H207 C211 0.949 . S
C208 C209 1.349 1_565 S
C208 C210 1.327 . S
C208 H231 0.950 . S
C209 C208 1.349 1_545 S
C209 C221 1.349 . S
C210 C208 1.327 . S
C210 C226 1.429 1_565 S
C210 H232 0.950 . S
C211 H207 0.949 . S
C211 C219 1.574 . S
C211 C227 1.368 . S
H212 C220 0.950 . S
H213 C218 0.950 . S
H214 C219 0.949 . S
H215 C221 0.950 . S
H216 C222 0.950 . S
H217 C223 0.949 . S
C218 H213 0.950 . S
C218 C220 1.327 . S
C218 C224 1.429 1_565 S
C219 C211 1.574 . S
C219 H214 0.949 . S
C219 C225 1.368 . S
C220 C204 1.349 1_565 S
C220 H212 0.950 . S
C220 C218 1.327 . S
C221 C209 1.349 . S
C221 H215 0.950 . S
C221 C222 1.327 . S
C222 H216 0.950 . S
C222 C221 1.327 . S
C222 C226 1.429 . S
C223 C206 1.574 . S
C223 H217 0.949 . S
C223 C227 1.368 1_565 S
C224 C205 1.429 . S
C224 C218 1.429 1_545 S
C224 C225 1.523 . S
C225 C206 1.368 1_545 S
C225 C219 1.368 . S
C225 C224 1.523 . S
C226 C210 1.429 1_545 S
C226 C222 1.429 . S
C226 C227 1.523 . S
C227 C211 1.368 . S
C227 C223 1.368 1_545 S
C227 C226 1.523 . S
H228 C203 0.950 . S
H229 C205 0.950 . S
H230 C206 0.949 . S
H231 C208 0.950 . S
H232 C210 0.950 . S
C233 C234 1.349 . S
C233 C235 1.327 . S
C233 H258 0.950 . S
C234 C233 1.349 . S
C234 C250 1.349 1_655 S
C235 C233 1.327 . S
C235 C254 1.429 . S
C235 H259 0.950 . S
C236 C253 1.574 . S
C236 C255 1.368 1_455 S
C236 H260 0.949 . S
H237 C241 0.949 . S
C238 C239 1.349 . S
C238 C240 1.327 . S
C238 H261 0.950 . S
C239 C238 1.349 . S
C239 C251 1.348 1_455 S
C240 C238 1.327 . S
C240 C256 1.423 1_455 S
C240 H262 0.950 . S
C241 H237 0.949 . S
C241 C249 1.574 . S
C241 C257 1.368 . S
H242 C250 0.950 . S
H243 C248 0.950 . S
H244 C249 0.949 . S
H245 C251 0.950 . S
H246 C252 0.950 . S
H247 C253 0.949 . S
C248 H243 0.950 . S
C248 C250 1.327 . S
C248 C254 1.429 1_455 S
C249 C241 1.574 . S
C249 H244 0.949 . S
C249 C255 1.368 . S
C250 C234 1.349 1_455 S
C250 H242 0.950 . S
C250 C248 1.327 . S
C251 C239 1.348 1_655 S
C251 H245 0.950 . S
C251 C252 1.327 . S
C252 H246 0.950 . S
C252 C251 1.327 . S
C252 C256 1.434 . S
C253 C236 1.574 . S
C253 H247 0.949 . S
C253 C257 1.368 1_455 S
C254 C235 1.429 . S
C254 C248 1.429 1_655 S
C254 C255 1.523 . S
C255 C236 1.368 1_655 S
C255 C249 1.368 . S
C255 C254 1.523 . S
C256 C240 1.423 1_655 S
C256 C252 1.434 . S
C256 C257 1.523 . S
C257 C241 1.368 . S
C257 C253 1.368 1_655 S
C257 C256 1.523 . S
H258 C233 0.950 . S
H259 C235 0.950 . S
H260 C236 0.949 . S
H261 C238 0.950 . S
H262 C240 0.950 . S
C263 C264 1.363 . S
C263 C265 1.327 . S
C263 H288 0.950 . S
C264 C263 1.363 . S
C264 C280 1.336 1_545 S
C265 C263 1.327 . S
C265 C284 1.429 . S
C265 H289 0.950 . S
C266 C283 1.574 . S
C266 C285 1.368 1_565 S
C266 H290 0.949 . S
H267 C271 0.949 . S
C268 C269 1.349 1_565 S
C268 C270 1.327 . S
C268 H291 0.950 . S
C269 C268 1.349 1_545 S
C269 C281 1.349 . S
C270 C268 1.327 . S
C270 C286 1.429 1_565 S
C270 H292 0.950 . S
C271 H267 0.949 . S
C271 C279 1.574 . S
C271 C287 1.368 . S
H272 C280 0.950 . S
H273 C278 0.950 . S
H274 C279 0.949 . S
H275 C281 0.950 . S
H276 C282 0.950 . S
H277 C283 0.949 . S
C278 H273 0.950 . S
C278 C280 1.327 . S
C278 C284 1.429 1_565 S
C279 C271 1.574 . S
C279 H274 0.949 . S
C279 C285 1.368 . S
C280 C264 1.336 1_565 S
C280 H272 0.950 . S
C280 C278 1.327 . S
C281 C269 1.349 . S
C281 H275 0.950 . S
C281 C282 1.327 . S
C282 H276 0.950 . S
C282 C281 1.327 . S
C282 C286 1.429 . S
C283 C266 1.574 . S
C283 H277 0.949 . S
C283 C287 1.368 1_565 S
C284 C265 1.429 . S
C284 C278 1.429 1_545 S
C284 C285 1.523 . S
C285 C266 1.368 1_545 S
C285 C279 1.368 . S
C285 C284 1.523 . S
C286 C270 1.429 1_545 S
C286 C282 1.429 . S
C286 C287 1.523 . S
C287 C271 1.368 . S
C287 C283 1.368 1_545 S
C287 C286 1.523 . S
H288 C263 0.950 . S
H289 C265 0.950 . S
H290 C266 0.949 . S
H291 C268 0.950 . S
H292 C270 0.950 . S
C293 C294 1.349 1_655 S
C293 C295 1.327 . S
C293 H318 0.950 . S
C294 C293 1.349 1_455 S
C294 C310 1.349 . S
C295 C293 1.327 . S
C295 C314 1.429 1_655 S
C295 H319 0.950 . S
C296 C313 1.574 . S
C296 C315 1.368 . S
C296 H320 0.949 . S
H297 C301 0.949 . S
C298 C299 1.361 . S
C298 C300 1.327 . S
C298 H321 0.950 . S
C299 C298 1.361 . S
C299 C311 1.337 1_455 S
C300 C298 1.327 . S
C300 C316 1.429 . S
C300 H322 0.950 . S
C301 H297 0.949 . S
C301 C309 1.574 . S
C301 C317 1.368 1_655 S
H302 C310 0.950 . S
H303 C308 0.950 . S
H304 C309 0.949 . S
H305 C311 0.950 . S
H306 C312 0.950 . S
H307 C313 0.949 . S
C308 H303 0.950 . S
C308 C310 1.327 . S
C308 C314 1.429 . S
C309 C301 1.574 . S
C309 H304 0.949 . S
C309 C315 1.368 1_655 S
C310 C294 1.349 . S
C310 H302 0.950 . S
C310 C308 1.327 . S
C311 C299 1.337 1_655 S
C311 H305 0.950 . S
C311 C312 1.327 . S
C312 H306 0.950 . S
C312 C311 1.327 . S
C312 C316 1.429 1_655 S
C313 C296 1.574 . S
C313 H307 0.949 . S
C313 C317 1.368 . S
C314 C295 1.429 1_455 S
C314 C308 1.429 . S
C314 C315 1.523 . S
C315 C296 1.368 . S
C315 C309 1.368 1_455 S
C315 C314 1.523 . S
C316 C300 1.429 . S
C316 C312 1.429 1_455 S
C316 C317 1.523 . S
C317 C301 1.368 1_455 S
C317 C313 1.368 . S
C317 C316 1.523 . S
H318 C293 0.950 . S
H319 C295 0.950 . S
H320 C296 0.949 . S
H321 C298 0.950 . S
H322 C300 0.950 . S
C323 C324 1.349 . S
C323 C325 1.327 . S
C323 H348 0.950 . S
C324 C323 1.349 . S
C324 C340 1.349 1_545 S
C325 C323 1.327 . S
C325 C344 1.429 . S
C325 H349 0.950 . S
C326 C343 1.574 . S
C326 C345 1.368 1_565 S
C326 H350 0.949 . S
H327 C331 0.949 . S
C328 C329 1.349 1_565 S
C328 C330 1.327 . S
C328 H351 0.950 . S
C329 C328 1.349 1_545 S
C329 C341 1.349 . S
C330 C328 1.327 . S
C330 C346 1.429 1_565 S
C330 H352 0.950 . S
C331 H327 0.949 . S
C331 C339 1.574 . S
C331 C347 1.368 . S
H332 C340 0.950 . S
H333 C338 0.950 . S
H334 C339 0.949 . S
H335 C341 0.950 . S
H336 C342 0.950 . S
H337 C343 0.949 . S
C338 H333 0.950 . S
C338 C340 1.327 . S
C338 C344 1.429 1_565 S
C339 C331 1.574 . S
C339 H334 0.949 . S
C339 C345 1.368 . S
C340 C324 1.349 1_565 S
C340 H332 0.950 . S
C340 C338 1.327 . S
C341 C329 1.349 . S
C341 H335 0.950 . S
C341 C342 1.327 . S
C342 H336 0.950 . S
C342 C341 1.327 . S
C342 C346 1.429 . S
C343 C326 1.574 . S
C343 H337 0.949 . S
C343 C347 1.368 1_565 S
C344 C325 1.429 . S
C344 C338 1.429 1_545 S
C344 C345 1.523 . S
C345 C326 1.368 1_545 S
C345 C339 1.368 . S
C345 C344 1.523 . S
C346 C330 1.429 1_545 S
C346 C342 1.429 . S
C346 C347 1.523 . S
C347 C331 1.368 . S
C347 C343 1.368 1_545 S
C347 C346 1.523 . S
H348 C323 0.950 . S
H349 C325 0.950 . S
H350 C326 0.949 . S
H351 C328 0.950 . S
H352 C330 0.950 . S
C353 C354 1.353 . S
C353 C355 1.327 . S
C353 H378 0.950 . S
C354 C353 1.353 . S
C354 C370 1.345 1_554 S
C355 C353 1.327 . S
C355 C374 1.445 . S
C355 H379 0.950 . S
C356 C373 1.574 . S
C356 C375 1.368 1_556 S
C356 H380 0.949 . S
H357 C361 0.949 . S
C358 C359 1.349 1_556 S
C358 C360 1.327 . S
C358 H381 0.950 . S
C359 C358 1.349 1_554 S
C359 C371 1.349 . S
C360 C358 1.327 . S
C360 C376 1.429 1_556 S
C360 H382 0.950 . S
C361 H357 0.949 . S
C361 C369 1.574 . S
C361 C377 1.368 . S
H362 C370 0.950 . S
H363 C368 0.950 . S
H364 C369 0.949 . S
H365 C371 0.950 . S
H366 C372 0.950 . S
H367 C373 0.949 . S
C368 H363 0.950 . S
C368 C370 1.327 . S
C368 C374 1.412 1_556 S
C369 C361 1.574 . S
C369 H364 0.949 . S
C369 C375 1.368 . S
C370 C354 1.345 1_556 S
C370 H362 0.950 . S
C370 C368 1.327 . S
C371 C359 1.349 . S
C371 H365 0.950 . S
C371 C372 1.327 . S
C372 H366 0.950 . S
C372 C371 1.327 . S
C372 C376 1.429 . S
C373 C356 1.574 . S
C373 H367 0.949 . S
C373 C377 1.368 1_556 S
C374 C355 1.445 . S
C374 C368 1.412 1_554 S
C374 C375 1.523 . S
C375 C356 1.368 1_554 S
C375 C369 1.368 . S
C375 C374 1.523 . S
C376 C360 1.429 1_554 S
C376 C372 1.429 . S
C376 C377 1.523 . S
C377 C361 1.368 . S
C377 C373 1.368 1_554 S
C377 C376 1.523 . S
H378 C353 0.950 . S
H379 C355 0.950 . S
H380 C356 0.949 . S
H381 C358 0.950 . S
H382 C360 0.950 . S
C383 C384 1.349 . S
C383 C385 1.327 . S
C383 H408 0.950 . S
C384 C383 1.349 . S
C384 C400 1.349 1_554 S
C385 C383 1.327 . S
C385 C404 1.429 . S
C385 H409 0.950 . S
C386 C403 1.574 . S
C386 C405 1.368 1_556 S
C386 H410 0.949 . S
H387 C391 0.949 . S
C388 C389 1.349 1_556 S
C388 C390 1.327 . S
C388 H411 0.950 . S
C389 C388 1.349 1_554 S
C389 C401 1.349 . S
C390 C388 1.327 . S
C390 C406 1.429 1_556 S
C390 H412 0.950 . S
C391 H387 0.949 . S
C391 C399 1.574 . S
C391 C407 1.368 . S
H392 C400 0.950 . S
H393 C398 0.950 . S
H394 C399 0.949 . S
H395 C401 0.950 . S
H396 C402 0.950 . S
H397 C403 0.949 . S
C398 H393 0.950 . S
C398 C400 1.327 . S
C398 C404 1.429 1_556 S
C399 C391 1.574 . S
C399 H394 0.949 . S
C399 C405 1.368 . S
C400 C384 1.349 1_556 S
C400 H392 0.950 . S
C400 C398 1.327 . S
C401 C389 1.349 . S
C401 H395 0.950 . S
C401 C402 1.327 . S
C402 H396 0.950 . S
C402 C401 1.327 . S
C402 C406 1.429 . S
C403 C386 1.574 . S
C403 H397 0.949 . S
C403 C407 1.368 1_556 S
C404 C385 1.429 . S
C404 C398 1.429 1_554 S
C404 C405 1.523 . S
C405 C386 1.368 1_554 S
C405 C399 1.368 . S
C405 C404 1.523 . S
C406 C390 1.429 1_554 S
C406 C402 1.429 . S
C406 C407 1.523 . S
C407 C391 1.368 . S
C407 C403 1.368 1_554 S
C407 C406 1.523 . S
H408 C383 0.950 . S
H409 C385 0.950 . S
H410 C386 0.949 . S
H411 C388 0.950 . S
H412 C390 0.950 . S
C413 C414 1.349 . S
C413 C415 1.327 . S
C413 H438 0.950 . S
C414 C413 1.349 . S
C414 C430 1.349 1_554 S
C415 C413 1.327 . S
C415 C434 1.429 . S
C415 H439 0.950 . S
C416 C433 1.574 . S
C416 C435 1.368 1_556 S
C416 H440 0.949 . S
H417 C421 0.949 . S
C418 C419 1.349 1_556 S
C418 C420 1.327 . S
C418 H441 0.950 . S
C419 C418 1.349 1_554 S
C419 C431 1.349 . S
C420 C418 1.327 . S
C420 C436 1.429 1_556 S
C420 H442 0.950 . S
C421 H417 0.949 . S
C421 C429 1.574 . S
C421 C437 1.368 . S
H422 C430 0.950 . S
H423 C428 0.950 . S
H424 C429 0.949 . S
H425 C431 0.950 . S
H426 C432 0.950 . S
H427 C433 0.949 . S
C428 H423 0.950 . S
C428 C430 1.327 . S
C428 C434 1.429 1_556 S
C429 C421 1.574 . S
C429 H424 0.949 . S
C429 C435 1.368 . S
C430 C414 1.349 1_556 S
C430 H422 0.950 . S
C430 C428 1.327 . S
C431 C419 1.349 . S
C431 H425 0.950 . S
C431 C432 1.327 . S
C432 H426 0.950 . S
C432 C431 1.327 . S
C432 C436 1.429 . S
C433 C416 1.574 . S
C433 H427 0.949 . S
C433 C437 1.368 1_556 S
C434 C415 1.429 . S
C434 C428 1.429 1_554 S
C434 C435 1.523 . S
C435 C416 1.368 1_554 S
C435 C429 1.368 . S
C435 C434 1.523 . S
C436 C420 1.429 1_554 S
C436 C432 1.429 . S
C436 C437 1.523 . S
C437 C421 1.368 . S
C437 C433 1.368 1_554 S
C437 C436 1.523 . S
H438 C413 0.950 . S
H439 C415 0.950 . S
H440 C416 0.949 . S
H441 C418 0.950 . S
H442 C420 0.950 . S
C443 C444 1.342 1_556 S
C443 C445 1.327 . S
C443 H468 0.950 . S
C444 C443 1.342 1_554 S
C444 C460 1.355 . S
C445 C443 1.327 . S
C445 C464 1.429 1_556 S
C445 H469 0.950 . S
C446 C463 1.574 . S
C446 C465 1.368 . S
C446 H470 0.949 . S
H447 C451 0.949 . S
C448 C449 1.349 . S
C448 C450 1.327 . S
C448 H471 0.950 . S
C449 C448 1.349 . S
C449 C461 1.349 1_554 S
C450 C448 1.327 . S
C450 C466 1.429 . S
C450 H472 0.950 . S
C451 H447 0.949 . S
C451 C459 1.574 . S
C451 C467 1.368 1_556 S
H452 C460 0.950 . S
H453 C458 0.950 . S
H454 C459 0.949 . S
H455 C461 0.950 . S
H456 C462 0.950 . S
H457 C463 0.949 . S
C458 H453 0.950 . S
C458 C460 1.327 . S
C458 C464 1.429 . S
C459 C451 1.574 . S
C459 H454 0.949 . S
C459 C465 1.368 1_556 S
C460 C444 1.355 . S
C460 H452 0.950 . S
C460 C458 1.327 . S
C461 C449 1.349 1_556 S
C461 H455 0.950 . S
C461 C462 1.327 . S
C462 H456 0.950 . S
C462 C461 1.327 . S
C462 C466 1.429 1_556 S
C463 C446 1.574 . S
C463 H457 0.949 . S
C463 C467 1.368 . S
C464 C445 1.429 1_554 S
C464 C458 1.429 . S
C464 C465 1.523 . S
C465 C446 1.368 . S
C465 C459 1.368 1_554 S
C465 C464 1.523 . S
C466 C450 1.429 . S
C466 C462 1.429 1_554 S
C466 C467 1.523 . S
C467 C451 1.368 1_554 S
C467 C463 1.368 . S
C467 C466 1.523 . S
H468 C443 0.950 . S
H469 C445 0.950 . S
H470 C446 0.949 . S
H471 C448 0.950 . S
H472 C450 0.950 . S
C119 C64 1.106 . S
C114 C9 1.082 . S
C149 C71 1.558 . S
C144 C38 1.502 . S
C179 C66 1.121 . S
C174 C17 1.089 1_455 S
C209 C72 1.540 . S
C204 C30 1.494 . S
C234 C19 1.078 . S
C239 C65 1.095 . S
C269 C74 1.553 . S
C264 C33 1.489 . S
C294 C12 1.080 1_455 S
C299 C63 1.117 . S
C324 C40 1.493 . S
C329 C73 1.529 . S
C354 C59 1.952 . S
C359 C68 2.009 . S
C384 C61 1.947 . S
C389 C67 1.980 . S
C419 C70 1.991 . S
C414 C51 1.946 . S
C449 C69 2.005 . S
C444 C54 1.937 . S
