# Generated by pormake.
# Topology zzz, (3,6)-cn, num edge types: 1
# Building blocks:
#     Node 0, Type 0, BuildingBlock: BETDAH_clean_linker_0, # of connection points: 3
#     Node 1, Type 0, BuildingBlock: BETDAH_clean_linker_0, # of connection points: 3
#     Node 2, Type 0, BuildingBlock: BETDAH_clean_linker_0, # of connection points: 3
#     Node 3, Type 0, BuildingBlock: BETDAH_clean_linker_0, # of connection points: 3
#     Node 4, Type 0, BuildingBlock: BETDAH_clean_linker_0, # of connection points: 3
#     Node 5, Type 0, BuildingBlock: BETDAH_clean_linker_0, # of connection points: 3
#     Node 6, Type 0, BuildingBlock: BETDAH_clean_linker_0, # of connection points: 3
#     Node 7, Type 0, BuildingBlock: BETDAH_clean_linker_0, # of connection points: 3
#     Node 8, Type 1, BuildingBlock: VOLQOD_clean_sbu_1, # of connection points: 6
#     Node 9, Type 1, BuildingBlock: VOLQOD_clean_sbu_1, # of connection points: 6
#     Node 10, Type 1, BuildingBlock: VOLQOD_clean_sbu_1, # of connection points: 6
#     Node 11, Type 1, BuildingBlock: VOLQOD_clean_sbu_1, # of connection points: 6
#     Edge 12, Type (0, 1), BuildingBlock: CIFDUS_clean_linker_0, # of connection points: 2
#     Edge 13, Type (0, 1), BuildingBlock: CIFDUS_clean_linker_0, # of connection points: 2
#     Edge 14, Type (0, 1), BuildingBlock: CIFDUS_clean_linker_0, # of connection points: 2
#     Edge 15, Type (0, 1), BuildingBlock: CIFDUS_clean_linker_0, # of connection points: 2
#     Edge 16, Type (0, 1), BuildingBlock: CIFDUS_clean_linker_0, # of connection points: 2
#     Edge 17, Type (0, 1), BuildingBlock: CIFDUS_clean_linker_0, # of connection points: 2
#     Edge 18, Type (0, 1), BuildingBlock: CIFDUS_clean_linker_0, # of connection points: 2
#     Edge 19, Type (0, 1), BuildingBlock: CIFDUS_clean_linker_0, # of connection points: 2
#     Edge 20, Type (0, 1), BuildingBlock: CIFDUS_clean_linker_0, # of connection points: 2
#     Edge 21, Type (0, 1), BuildingBlock: CIFDUS_clean_linker_0, # of connection points: 2
#     Edge 22, Type (0, 1), BuildingBlock: CIFDUS_clean_linker_0, # of connection points: 2
#     Edge 23, Type (0, 1), BuildingBlock: CIFDUS_clean_linker_0, # of connection points: 2
#     Edge 24, Type (0, 1), BuildingBlock: CIFDUS_clean_linker_0, # of connection points: 2
#     Edge 25, Type (0, 1), BuildingBlock: CIFDUS_clean_linker_0, # of connection points: 2
#     Edge 26, Type (0, 1), BuildingBlock: CIFDUS_clean_linker_0, # of connection points: 2
#     Edge 27, Type (0, 1), BuildingBlock: CIFDUS_clean_linker_0, # of connection points: 2
#     Edge 28, Type (0, 1), BuildingBlock: CIFDUS_clean_linker_0, # of connection points: 2
#     Edge 29, Type (0, 1), BuildingBlock: CIFDUS_clean_linker_0, # of connection points: 2
#     Edge 30, Type (0, 1), BuildingBlock: CIFDUS_clean_linker_0, # of connection points: 2
#     Edge 31, Type (0, 1), BuildingBlock: CIFDUS_clean_linker_0, # of connection points: 2
#     Edge 32, Type (0, 1), BuildingBlock: CIFDUS_clean_linker_0, # of connection points: 2
#     Edge 33, Type (0, 1), BuildingBlock: CIFDUS_clean_linker_0, # of connection points: 2
#     Edge 34, Type (0, 1), BuildingBlock: CIFDUS_clean_linker_0, # of connection points: 2
#     Edge 35, Type (0, 1), BuildingBlock: CIFDUS_clean_linker_0, # of connection points: 2
# Relax obj value: 0.193
# Max RMSD: 0.234
# Mean RMSD: 0.111
data_MOF--net-zzz--node1-VOLQOD_clean_sbu_1--node2-BETDAH_clean_linker_0--edge1-CIFDUS_clean_linker_0
_symmetry_space_group_name_H-M    P1
_symmetry_Int_Tables_number       1
_symmetry_cell_setting            triclinic
loop_
_symmetry_equiv_pos_as_xyz
'x, y, z'
_cell_length_a     45.068762
_cell_length_b     44.763947
_cell_length_c     15.422168
_cell_angle_alpha  89.99312
_cell_angle_beta   90.138304
_cell_angle_gamma 90.747342
loop_
_atom_site_label
_atom_site_type_symbol
_atom_site_fract_x
_atom_site_fract_y
_atom_site_fract_z
_atom_type_partial_charge
H0 H 0.86841 0.53441 0.06291 0.0
H1 H 0.77846 0.50777 0.0168 0.0
H2 H 0.80357 0.54357 0.26582 0.0
C3 C 0.84596 0.53217 0.08722 0.0
C4 C 0.83959 0.53912 0.17368 0.0
C5 C 0.82469 0.51875 0.03343 0.0
C6 C 0.79497 0.5179 0.05909 0.0
C7 C 0.78712 0.52879 0.14167 0.0
C8 C 0.80961 0.53802 0.19994 0.0
N9 N 0.7571 0.52909 0.16966 0.0
C10 C 0.73303 0.52729 0.11309 0.0
H11 H 0.99953 0.84507 0.11545 0.0
H12 H 0.0063 0.75891 -0.00576 0.0
H13 H 0.96115 0.76791 0.23868 0.0
C14 C 0.99544 0.82115 0.11643 0.0
C15 C 0.97919 0.80873 0.18506 0.0
C16 C 0.00531 0.80357 0.04723 0.0
C17 C 0.99933 0.7726 0.04818 0.0
C18 C 0.98368 0.75968 0.11827 0.0
C19 C 0.97374 0.77787 0.18605 0.0
N20 N 0.97645 0.72877 0.12221 0.0
C21 C 0.98643 0.70695 0.06563 0.0
H22 H 0.65904 0.0262 0.18494 0.0
H23 H 0.74336 0.04292 0.06469 0.0
H24 H 0.73762 0.98793 0.29409 0.0
C25 C 0.68293 0.02347 0.18453 0.0
C26 C 0.69609 0.00479 0.24587 0.0
C27 C 0.69964 0.03721 0.11913 0.0
C28 C 0.73047 0.033 0.11669 0.0
C29 C 0.74433 0.01584 0.18178 0.0
C30 C 0.72701 1.00193 0.24613 0.0
N31 N 0.77544 0.01138 0.18376 0.0
C32 C 0.79433 0.01672 0.11431 0.0
H33 H 0.49001 0.6627 0.2055 0.0
H34 H 0.48514 0.74726 0.07555 0.0
H35 H 0.53673 0.73878 0.3101 0.0
C36 C 0.49549 0.68636 0.20325 0.0
C37 C 0.51508 0.69837 0.26492 0.0
C38 C 0.48471 0.70364 0.13476 0.0
C39 C 0.49273 0.73403 0.12988 0.0
C40 C 0.51089 0.74698 0.19486 0.0
C41 C 0.52184 0.72904 0.26228 0.0
N42 N 0.51948 0.77761 0.19313 0.0
C43 C 0.51702 0.7961 0.12106 0.0
H44 H 0.18522 0.54685 0.1831 0.0
H45 H 0.26781 0.52782 0.30981 0.0
H46 H 0.25031 0.49488 0.05154 0.0
C47 C 0.20755 0.53809 0.18064 0.0
C48 C 0.21589 0.52153 0.1082 0.0
C49 C 0.22578 0.54014 0.25407 0.0
C50 C 0.25395 0.52696 0.25237 0.0
C51 C 0.26323 0.51123 0.17807 0.0
C52 C 0.24378 0.50806 0.1071 0.0
N53 N 0.29113 0.49691 0.17392 0.0
C54 C 0.31377 0.50005 0.2349 0.0
H55 H 0.03491 0.14917 0.191 0.0
H56 H 0.03385 0.23795 0.29641 0.0
H57 H 0.08619 0.21872 0.0693 0.0
C58 C 0.04236 0.17231 0.18912 0.0
C59 C 0.06201 0.18137 0.12413 0.0
C60 C 0.0315 0.19266 0.24998 0.0
C61 C 0.04187 0.22234 0.24849 0.0
C62 C 0.06194 0.23183 0.18356 0.0
C63 C 0.07141 0.21134 0.12055 0.0
N64 N 0.07265 0.26177 0.179 0.0
C65 C 0.06751 0.28317 0.24239 0.0
H66 H 0.34216 0.02295 0.18336 0.0
H67 H 0.25559 0.0135 0.2945 0.0
H68 H 0.26562 0.04571 0.03177 0.0
C69 C 0.31832 0.02548 0.1773 0.0
C70 C 0.30635 0.03604 0.09976 0.0
C71 C 0.30026 0.01762 0.24739 0.0
C72 C 0.2694 0.01955 0.23974 0.0
C73 C 0.25677 0.02983 0.16148 0.0
C74 C 0.27536 0.03786 0.09177 0.0
N75 N 0.22563 0.03262 0.1507 0.0
C76 C 0.20498 0.02703 0.21573 0.0
H77 H 0.46929 0.34381 0.2885 0.0
H78 H 0.50705 0.25827 0.33156 0.0
H79 H 0.47189 0.27934 0.08034 0.0
C80 C 0.47471 0.32213 0.26249 0.0
C81 C 0.46988 0.31545 0.17458 0.0
C82 C 0.48989 0.30248 0.3167 0.0
C83 C 0.49523 0.27334 0.28921 0.0
C84 C 0.48679 0.26451 0.20501 0.0
C85 C 0.4754 0.2859 0.14709 0.0
N86 N 0.49128 0.23493 0.17479 0.0
C87 C 0.4982 0.211 0.22854 0.0
O88 O 0.06206 0.00397 0.57302 0.0
Zn89 Zn 0.03361 1.0027 0.67598 0.0
O90 O 0.99184 0.00413 0.63345 0.0
Zn91 Zn 0.97165 0.03849 0.68217 0.0
Zn92 Zn 0.99015 0.00714 0.50768 0.0
Zn93 Zn 0.97012 0.96811 0.66586 0.0
O94 O 0.9363 0.02657 0.75535 0.0
O95 O 0.93506 0.97719 0.74189 0.0
O96 O 0.04359 0.03931 0.7513 0.0
O97 O 1.00018 0.06243 0.75237 0.0
O98 O 0.95944 0.06789 0.59116 0.0
O99 O 0.97191 0.04545 0.46865 0.0
O100 O 0.96909 0.97238 0.45168 0.0
O101 O 0.04089 0.96393 0.74381 0.0
O102 O 0.95682 0.94372 0.5634 0.0
O103 O 0.99695 0.9412 0.72973 0.0
C104 C 0.05755 0.00587 0.49145 0.0
C105 C 0.92446 1.00124 0.77246 0.0
C106 C 0.96121 0.06761 0.50898 0.0
C107 C 0.02742 0.06123 0.77338 0.0
C108 C 0.95782 0.94842 0.48219 0.0
C109 C 0.0237 0.94141 0.75597 0.0
O110 O 0.0314 0.00722 0.46048 0.0
O111 O 0.51021 0.07593 0.64352 0.0
Zn112 Zn 0.51016 0.0417 0.7312 0.0
O113 O 0.50512 1.00271 0.67053 0.0
Zn114 Zn 0.46837 0.98222 0.70284 0.0
Zn115 Zn 0.5046 0.0092 0.5465 0.0
Zn116 Zn 0.5371 0.97596 0.69772 0.0
O117 O 0.47481 0.94287 0.76434 0.0
O118 O 0.52389 0.94012 0.76787 0.0
O119 O 0.47503 0.04884 0.8133 0.0
O120 O 0.44734 0.00856 0.78382 0.0
O121 O 0.43883 0.97864 0.60508 0.0
O122 O 0.46357 1.00291 0.50211 0.0
O123 O 0.53483 0.98468 0.48344 0.0
O124 O 0.55079 0.0438 0.79244 0.0
O125 O 0.55854 0.96265 0.59177 0.0
O126 O 0.56788 0.99863 0.76193 0.0
C127 C 0.51255 0.07631 0.56107 0.0
C128 C 0.49838 0.9296 0.78762 0.0
C129 C 0.43986 0.9908 0.53068 0.0
C130 C 0.45112 0.03345 0.82202 0.0
C131 C 0.55546 0.96802 0.51138 0.0
C132 C 0.57147 0.02453 0.79429 0.0
O133 O 0.51273 0.05214 0.5177 0.0
O134 O 0.44327 0.50853 0.6654 0.0
Zn135 Zn 0.47526 0.51211 0.75856 0.0
O136 O 0.515 0.50507 0.70731 0.0
Zn137 Zn 0.53282 0.46973 0.75803 0.0
Zn138 Zn 0.51198 0.49975 0.58204 0.0
Zn139 Zn 0.54167 0.53874 0.72929 0.0
O140 O 0.57177 0.47901 0.81865 0.0
O141 O 0.57787 0.5278 0.79946 0.0
O142 O 0.46592 0.48101 0.85273 0.0
O143 O 0.50544 0.45176 0.84449 0.0
O144 O 0.53902 0.43773 0.66973 0.0
O145 O 0.52864 0.46022 0.54496 0.0
O146 O 0.5317 0.53358 0.51684 0.0
O147 O 0.47306 0.55454 0.80825 0.0
O148 O 0.55367 0.56005 0.62073 0.0
O149 O 0.51963 0.57022 0.79001 0.0
C150 C 0.44436 0.50387 0.58383 0.0
C151 C 0.58675 0.50304 0.8302 0.0
C152 C 0.53729 0.43754 0.58752 0.0
C153 C 0.48023 0.4579 0.87589 0.0
C154 C 0.54721 0.55602 0.54134 0.0
C155 C 0.49317 0.57479 0.81433 0.0
O156 O 0.46904 0.50007 0.54551 0.0
O157 O 1.00327 0.53784 0.49682 0.0
Zn158 Zn 0.03225 0.53234 0.59789 0.0
O159 O 0.02431 0.49375 0.65718 0.0
Zn160 Zn 0.01706 0.50072 0.77892 0.0
Zn161 Zn 0.99059 0.473 0.60579 0.0
Zn162 Zn 0.05796 0.46711 0.65097 0.0
O163 O 0.05333 0.49037 0.84825 0.0
O164 O 0.07636 0.45735 0.76625 0.0
O165 O 0.02517 0.56724 0.67954 0.0
O166 O 0.01168 0.54442 0.80122 0.0
O167 O 0.97947 0.47955 0.81838 0.0
O168 O 0.95837 0.46656 0.69296 0.0
O169 O 1.00173 0.43364 0.55014 0.0
O170 O 0.07562 0.53447 0.55792 0.0
O171 O 0.04945 0.42976 0.58261 0.0
O172 O 0.09065 0.48895 0.59306 0.0
C173 C 0.98023 0.52258 0.47587 0.0
C174 C 0.07435 0.47213 0.83624 0.0
C175 C 0.95756 0.46901 0.77505 0.0
C176 C 0.01645 0.56823 0.75806 0.0
C177 C 0.0261 0.41958 0.54594 0.0
C178 C 0.09587 0.5148 0.56218 0.0
O179 O 0.97335 0.4982 0.51332 0.0
H180 H 0.14823 0.01529 0.18074 0.0
H181 H 0.21029 0.02793 0.39052 0.0
H182 H 0.17011 0.02123 0.49652 0.0
H183 H 0.11679 0.01332 0.52838 0.0
H184 H 0.05519 1.00158 0.31558 0.0
H185 H 0.09559 0.00625 0.21224 0.0
C186 C 0.15283 0.01638 0.2498 0.0
C187 C 0.18184 0.02198 0.27856 0.0
C188 C 0.12969 0.01274 0.3097 0.0
C189 C 0.18791 0.02353 0.36762 0.0
C190 C 0.16498 0.01974 0.42796 0.0
C191 C 0.11225 0.01158 0.45948 0.0
C192 C 0.08288 0.00722 0.43015 0.0
C193 C 0.13569 0.01453 0.39971 0.0
C194 C 0.07746 0.00511 0.34038 0.0
C195 C 0.10058 0.00776 0.28091 0.0
H196 H 0.49818 0.20612 0.40309 0.0
H197 H 0.51146 0.15703 0.16638 0.0
H198 H 0.51903 0.11107 0.24919 0.0
H199 H 0.51947 0.08458 0.38767 0.0
H200 H 0.50563 0.13301 0.62597 0.0
H201 H 0.5011 0.17956 0.54408 0.0
C202 C 0.50299 0.18533 0.37017 0.0
C203 C 0.5043 0.18465 0.27922 0.0
C204 C 0.50719 0.15897 0.41838 0.0
C205 C 0.51042 0.15783 0.23656 0.0
C206 C 0.5147 0.13162 0.28382 0.0
C207 C 0.51568 0.1053 0.42212 0.0
C208 C 0.51274 0.10514 0.51307 0.0
C209 C 0.5128 0.13187 0.37465 0.0
C210 C 0.50799 0.13237 0.55613 0.0
C211 C 0.50527 0.15902 0.50927 0.0
H212 H 0.31638 0.50393 0.41 0.0
H213 H 0.36969 0.49906 0.17909 0.0
H214 H 0.41503 0.49957 0.26677 0.0
H215 H 0.43938 0.50095 0.40835 0.0
H216 H 0.38671 0.5062 0.64117 0.0
H217 H 0.3413 0.50597 0.55385 0.0
C218 C 0.33801 0.50312 0.37944 0.0
C219 C 0.34001 0.50154 0.28871 0.0
C220 C 0.364 0.50339 0.43049 0.0
C221 C 0.36789 0.50038 0.24906 0.0
C222 C 0.39373 0.50062 0.2991 0.0
C223 C 0.41802 0.50198 0.44035 0.0
C224 C 0.41658 0.50349 0.53145 0.0
C225 C 0.39206 0.502 0.38983 0.0
C226 C 0.38857 0.505 0.57127 0.0
C227 C 0.36255 0.50488 0.52133 0.0
H228 H 0.01709 0.31163 0.2813 0.0
H229 H 0.10977 0.30573 0.34685 0.0
H230 H 0.10477 0.34655 0.4515 0.0
H231 H 0.07463 0.38528 0.51868 0.0
H232 H 0.98185 0.39204 0.45183 0.0
H233 H 0.98617 0.34939 0.35408 0.0
C234 C 0.03603 0.31929 0.31919 0.0
C235 C 0.06374 0.30605 0.30704 0.0
C236 C 0.03296 0.34286 0.3787 0.0
C237 C 0.08826 0.31584 0.35574 0.0
C238 C 0.0854 0.33912 0.41531 0.0
C239 C 0.05524 0.37734 0.48338 0.0
C240 C 0.02798 0.39204 0.49253 0.0
C241 C 0.05793 0.35302 0.4266 0.0
C242 C 1.00313 0.38127 0.44614 0.0
C243 C 0.00558 0.35689 0.38994 0.0
H244 H 0.81854 0.97181 0.02774 0.0
H245 H 0.81893 0.06762 0.05174 0.0
H246 H 0.85903 0.07159 0.94455 0.0
H247 H 0.89527 0.04735 0.84916 0.0
H248 H 0.89488 0.95111 0.82753 0.0
H249 H 0.85346 0.94772 0.92837 0.0
C250 C 0.82731 0.99351 0.00849 0.0
C251 C 0.81606 0.01941 0.04642 0.0
C252 C 0.8504 0.99548 0.94782 0.0
C253 C 0.82741 0.04747 0.02238 0.0
C254 C 0.85032 0.04969 0.96153 0.0
C255 C 0.88607 0.02563 0.86611 0.0
C256 C 0.89836 0.99953 0.83087 0.0
C257 C 0.86223 0.02378 0.92456 0.0
C258 C 0.886 0.97159 0.8536 0.0
C259 C 0.86227 0.96959 0.91139 0.0
H260 H 0.47041 0.82506 0.05302 0.0
H261 H 0.56504 0.8148 0.03386 0.0
H262 H 0.56759 0.85433 0.92413 0.0
H263 H 0.54331 0.89374 0.84071 0.0
H264 H 0.4485 0.90456 0.86027 0.0
H265 H 0.44553 0.86281 0.9619 0.0
C266 C 0.49144 0.83136 0.02372 0.0
C267 C 0.51752 0.8173 0.05063 0.0
C268 C 0.49271 0.85426 0.96122 0.0
C269 C 0.54474 0.82546 0.01331 0.0
C270 C 0.54619 0.84807 0.95095 0.0
C271 C 0.52193 0.88688 0.86658 0.0
C272 C 0.49622 0.90252 0.84313 0.0
C273 C 0.52038 0.86295 0.92541 0.0
C274 C 0.4687 0.89306 0.87712 0.0
C275 C 0.46696 0.86919 0.93553 0.0
H276 H 0.69851 0.48005 0.07047 0.0
H277 H 0.71109 0.57446 0.02835 0.0
H278 H 0.66707 0.57537 0.93466 0.0
H279 H 0.62445 0.54948 0.86786 0.0
H280 H 0.61163 0.45483 0.91044 0.0
H281 H 0.65623 0.45379 0.00036 0.0
C282 C 0.69154 0.50071 0.04025 0.0
C283 C 0.7077 0.52717 0.05566 0.0
C284 C 0.66619 0.50101 0.98679 0.0
C285 C 0.69877 0.55388 0.01684 0.0
C286 C 0.67365 0.55438 0.9635 0.0
C287 C 0.63141 0.52857 0.89647 0.0
C288 C 0.61454 0.5023 0.88231 0.0
C289 C 0.65708 0.52811 0.94843 0.0
C290 C 0.62407 0.47543 0.92006 0.0
C291 C 0.64961 0.47479 0.97169 0.0
H292 H 0.99524 0.70026 0.89278 0.0
H293 H 0.99445 0.6537 0.13733 0.0
H294 H 1.004 0.60646 0.06364 0.0
H295 H 0.01102 0.57828 0.9303 0.0
H296 H 0.0126 0.62392 0.68382 0.0
H297 H 0.0044 0.67163 0.75727 0.0
C298 C 0.99747 0.67971 0.92941 0.0
C299 C 0.9943 0.68013 0.01994 0.0
C300 C 1.00291 0.65256 0.88634 0.0
C301 C 0.997 0.65364 0.06745 0.0
C302 C 1.00235 0.62669 0.02539 0.0
C303 C 0.00955 0.59861 0.89234 0.0
C304 C 0.01219 0.59743 0.80155 0.0
C305 C 0.00505 0.62585 0.9349 0.0
C306 C 0.0106 0.62415 0.75379 0.0
C307 C 0.00588 0.65144 0.79576 0.0
H308 H 0.98208 0.15961 0.22028 0.0
H309 H 0.03322 0.20042 0.42603 0.0
H310 H 0.00755 0.16894 0.53266 0.0
H311 H 0.98088 0.12169 0.56008 0.0
H312 H 0.93721 0.07576 0.34878 0.0
H313 H 0.94901 0.11739 0.25162 0.0
C314 C 0.98702 0.16208 0.28884 0.0
C315 C 0.01 0.1816 0.31536 0.0
C316 C 0.9737 0.14257 0.34843 0.0
C317 C 0.01578 0.18532 0.40418 0.0
C318 C 1.00132 0.16708 0.46493 0.0
C319 C 0.97286 0.12146 0.49367 0.0
C320 C 0.95832 0.0958 0.46107 0.0
C321 C 0.9817 0.14438 0.43698 0.0
C322 C 0.94843 0.09536 0.3748 0.0
C323 C 0.95544 0.11901 0.31925 0.0
H324 H 0.3345 0.0529 0.34318 0.0
H325 H 0.30153 0.96254 0.32517 0.0
H326 H 0.34146 0.94558 0.42173 0.0
H327 H 0.39091 0.95595 0.49025 0.0
H328 H 0.42611 0.04605 0.48341 0.0
H329 H 0.38078 0.06367 0.4166 0.0
C330 C 0.33553 0.02968 0.36323 0.0
C331 C 0.31532 0.00898 0.32815 0.0
C332 C 0.35974 0.01995 0.41155 0.0
C333 C 0.31678 0.97885 0.35285 0.0
C334 C 0.33993 0.96914 0.40644 0.0
C335 C 0.38842 0.97934 0.47393 0.0
C336 C 0.41194 0.99958 0.48937 0.0
C337 C 0.36245 0.9893 0.43245 0.0
C338 C 0.40855 0.02997 0.46948 0.0
C339 C 0.38253 0.04015 0.4323 0.0
H340 H 0.53702 0.3381 0.30786 0.0
H341 H 0.47576 0.29839 0.48924 0.0
H342 H 0.49114 0.33489 0.60015 0.0
H343 H 0.51365 0.38424 0.63189 0.0
H344 H 0.56729 0.42823 0.43789 0.0
H345 H 0.56367 0.38403 0.345 0.0
C346 C 0.52798 0.33684 0.37299 0.0
C347 C 0.50551 0.31579 0.39134 0.0
C348 C 0.53515 0.35918 0.43295 0.0
C349 C 0.49335 0.31431 0.47472 0.0
C350 C 0.50185 0.33543 0.53732 0.0
C351 C 0.52528 0.38364 0.5704 0.0
C352 C 0.54075 0.40919 0.54118 0.0
C353 C 0.52147 0.35893 0.51535 0.0
C354 C 0.55529 0.40869 0.46103 0.0
C355 C 0.55313 0.38351 0.40809 0.0
H356 H 0.22208 0.50796 0.4003 0.0
H357 H 0.1953 0.59144 0.28775 0.0
H358 H 0.15258 0.59311 0.38505 0.0
H359 H 0.11703 0.56439 0.47567 0.0
H360 H 0.14401 0.47953 0.58149 0.0
H361 H 0.19216 0.48489 0.51358 0.0
C362 C 0.20779 0.52729 0.40018 0.0
C363 C 0.21137 0.54917 0.33593 0.0
C364 C 0.18248 0.52722 0.45272 0.0
C365 C 0.19272 0.57416 0.33647 0.0
C366 C 0.16798 0.57482 0.39094 0.0
C367 C 0.13362 0.54735 0.48498 0.0
C368 C 0.12638 0.52112 0.53091 0.0
C369 C 0.16154 0.55037 0.44488 0.0
C370 C 0.14848 0.49957 0.54412 0.0
C371 C 0.17624 0.50265 0.50579 0.0
H372 H 0.04781 0.84744 0.04398 0.0
H373 H 0.98963 0.79564 0.87805 0.0
H374 H 0.99555 0.83266 0.7631 0.0
H375 H 0.00741 0.8845 0.72455 0.0
H376 H 0.06198 0.9386 0.89433 0.0
H377 H 0.06743 0.89605 -0.00684 0.0
C378 C 0.03714 0.84389 0.98163 0.0
C379 C 0.01773 0.81921 0.97021 0.0
C380 C 0.03937 0.8661 0.9176 0.0
C381 C 0.00458 0.81444 0.88868 0.0
C382 C 0.00761 0.83587 0.82335 0.0
C383 C 0.02107 0.88675 0.7823 0.0
C384 C 0.03372 0.91473 0.80351 0.0
C385 C 0.02338 0.86256 0.83937 0.0
C386 C 0.05188 0.91731 0.87719 0.0
C387 C 0.05481 0.89304 0.93383 0.0
H388 H 0.6984 0.01875 0.95413 0.0
H389 H 0.66152 0.08401 0.12647 0.0
H390 H 0.61848 0.08946 0.03097 0.0
H391 H 0.58659 0.06675 0.91689 0.0
H392 H 0.6233 0.99868 0.75193 0.0
H393 H 0.67082 1.00327 0.82525 0.0
C394 C 0.68166 0.03526 0.96829 0.0
C395 C 0.6829 0.05079 0.04703 0.0
C396 C 0.65626 0.03689 0.9159 0.0
C397 C 0.66094 0.07189 0.06566 0.0
C398 C 0.63608 0.07458 0.0119 0.0
C399 C 0.60519 0.05342 0.89607 0.0
C400 C 0.60108 0.03174 0.8311 0.0
C401 C 0.63262 0.05574 0.93982 0.0
C402 C 0.62553 0.01489 0.8038 0.0
C403 C 0.65288 0.0176 0.84526 0.0
H404 H 0.50361 0.70234 0.97025 0.0
H405 H 0.4358 0.66688 0.13879 0.0
H406 H 0.42849 0.62398 0.04248 0.0
H407 H 0.45041 0.59122 0.93082 0.0
H408 H 0.52092 0.62633 0.76992 0.0
H409 H 0.51802 0.67448 0.84171 0.0
C410 C 0.48619 0.686 0.98344 0.0
C411 C 0.47059 0.68742 0.06172 0.0
C412 C 0.48339 0.66065 0.93057 0.0
C413 C 0.44816 0.66605 0.07868 0.0
C414 C 0.44435 0.64127 0.0244 0.0
C415 C 0.46457 0.60966 0.91031 0.0
C416 C 0.48649 0.60494 0.84737 0.0
C417 C 0.46329 0.63736 0.95343 0.0
C418 C 0.50448 0.62913 0.82034 0.0
C419 C 0.50277 0.65678 0.86098 0.0
H420 H 0.85635 0.46951 0.04605 0.0
H421 H 0.82052 0.53085 0.85948 0.0
H422 H 0.85662 0.51411 0.75138 0.0
H423 H 0.90539 0.49158 0.72488 0.0
H424 H 0.94648 0.43918 0.92539 0.0
H425 H 0.90162 0.4426 0.01388 0.0
C426 C 0.85575 0.47819 0.98032 0.0
C427 C 0.83605 0.50127 0.96004 0.0
C428 C 0.87823 0.47062 0.92241 0.0
C429 C 0.83539 0.51286 0.87572 0.0
C430 C 0.85637 0.50365 0.81477 0.0
C431 C 0.90401 0.48013 0.78679 0.0
C432 C 0.92894 0.46508 0.81909 0.0
C433 C 0.87901 0.484 0.83943 0.0
C434 C 0.92744 0.45082 0.89983 0.0
C435 C 0.90188 0.45287 0.95022 0.0
H436 H 0.04767 0.18437 0.95533 0.0
H437 H 0.09048 0.12848 0.1437 0.0
H438 H 0.08787 0.08598 0.04378 0.0
H439 H 0.06497 0.06282 0.91332 0.0
H440 H 0.01791 0.11866 0.733 0.0
H441 H 0.03079 0.16291 0.81775 0.0
C442 C 0.05747 0.16318 0.97282 0.0
C443 C 0.06936 0.15946 0.05605 0.0
C444 C 0.05445 0.13858 0.91692 0.0
C445 C 0.08143 0.13177 0.0793 0.0
C446 C 0.07961 0.10741 0.02261 0.0
C447 C 0.05824 0.0848 0.8919 0.0
C448 C 0.04024 0.08754 0.81797 0.0
C449 C 0.06487 0.11018 0.94284 0.0
C450 C 0.03145 0.11606 0.79065 0.0
C451 C 0.03881 0.14138 0.83895 0.0
H452 H 0.35836 0.06757 0.10667 0.0
H453 H 0.30094 0.01897 0.93056 0.0
H454 H 0.34057 0.01802 0.82286 0.0
H455 H 0.39338 0.02311 0.7901 0.0
H456 H 0.45232 0.06842 0.96898 0.0
H457 H 0.4102 0.07852 0.06505 0.0
C458 C 0.3544 0.05722 0.04403 0.0
C459 C 0.32694 0.04281 0.02715 0.0
C460 C 0.3777 0.05563 0.98408 0.0
C461 C 0.32181 0.03017 0.94515 0.0
C462 C 0.3446 0.0293 0.88404 0.0
C463 C 0.397 0.03548 0.84979 0.0
C464 C 0.42597 0.04439 0.8738 0.0
C465 C 0.37294 0.04066 0.90467 0.0
C466 C 0.43026 0.06112 0.94977 0.0
C467 C 0.40621 0.06676 0.00462 0.0
H468 H 0.48091 0.37595 0.19381 0.0
H469 H 0.44401 0.31225 0.01007 0.0
H470 H 0.44069 0.35194 0.90257 0.0
H471 H 0.45351 0.40383 0.85671 0.0
H472 H 0.48521 0.46694 0.04747 0.0
H473 H 0.48311 0.42825 0.15919 0.0
C474 C 0.47065 0.37025 0.13253 0.0
C475 C 0.463 0.34029 0.11179 0.0
C476 C 0.46748 0.39335 0.07216 0.0
C477 C 0.45107 0.33452 0.02871 0.0
C478 C 0.44878 0.35739 0.96696 0.0
C479 C 0.45872 0.40925 0.92364 0.0
C480 C 0.46916 0.43813 0.9447 0.0
C481 C 0.45765 0.38675 0.98738 0.0
C482 C 0.47658 0.44498 0.03068 0.0
C483 C 0.47578 0.42276 0.09405 0.0
H484 H 0.1937 0.46808 0.0519 0.0
H485 H 0.18632 0.56328 0.01706 0.0
H486 H 0.14056 0.55601 0.93437 0.0
H487 H 0.10103 0.52314 0.88117 0.0
H488 H 0.10864 0.42771 0.90575 0.0
H489 H 0.15575 0.43433 0.98509 0.0
C490 C 0.18248 0.48707 0.02381 0.0
C491 C 0.1933 0.51618 0.04006 0.0
C492 C 0.15584 0.48271 0.97732 0.0
C493 C 0.17839 0.54071 0.00475 0.0
C494 C 0.15209 0.53658 0.95848 0.0
C495 C 0.11282 0.5038 0.90513 0.0
C496 C 0.10106 0.47504 0.8908 0.0
C497 C 0.14021 0.5078 0.94667 0.0
C498 C 0.11704 0.45007 0.9184 0.0
C499 C 0.14403 0.45389 0.96279 0.0
H500 H 0.95245 0.86214 0.165 0.0
H501 H 0.98095 0.79991 0.36084 0.0
H502 H 0.9709 0.83677 0.47389 0.0
H503 H 0.96205 0.88911 0.51353 0.0
H504 H 0.93915 0.95264 0.31462 0.0
H505 H 0.93886 0.91287 0.2061 0.0
C506 C 0.95629 0.85658 0.23254 0.0
C507 C 0.96806 0.82861 0.25447 0.0
C508 C 0.95167 0.87823 0.29642 0.0
C509 C 0.97202 0.82133 0.3423 0.0
C510 C 0.96649 0.84249 0.40683 0.0
C511 C 0.95617 0.89407 0.44686 0.0
C512 C 0.95077 0.92376 0.42183 0.0
C513 C 0.95742 0.87137 0.38425 0.0
C514 C 0.94352 0.92997 0.33515 0.0
C515 C 0.94349 0.90728 0.27313 0.0
H516 H 0.64505 0.97516 0.20795 0.0
H517 H 0.70359 0.997 0.42105 0.0
H518 H 0.66594 0.97947 0.52402 0.0
H519 H 0.61347 0.96823 0.55256 0.0
H520 H 0.55286 0.95484 0.33871 0.0
H521 H 0.59418 0.95855 0.23644 0.0
C522 C 0.64966 0.97584 0.27702 0.0
C523 C 0.67668 0.98816 0.30715 0.0
C524 C 0.62737 0.96746 0.33541 0.0
C525 C 0.68286 0.98787 0.39638 0.0
C526 C 0.66124 0.97808 0.45517 0.0
C527 C 0.60947 0.96507 0.48373 0.0
C528 C 0.58023 0.96132 0.45282 0.0
C529 C 0.63296 0.96927 0.42541 0.0
C530 C 0.57522 0.95775 0.36361 0.0
C531 C 0.59878 0.96011 0.30532 0.0
H532 H 0.53912 0.64465 0.23077 0.0
H533 H 0.52283 0.70605 0.44033 0.0
H534 H 0.53773 0.66797 0.54549 0.0
H535 H 0.54705 0.61506 0.57746 0.0
H536 H 0.55663 0.5524 0.3671 0.0
H537 H 0.55275 0.59315 0.26214 0.0
C538 C 0.53897 0.64977 0.29954 0.0
C539 C 0.52917 0.67786 0.32802 0.0
C540 C 0.54617 0.62743 0.3592 0.0
C541 C 0.53008 0.68454 0.41691 0.0
C542 C 0.53839 0.6627 0.47694 0.0
C543 C 0.5492 0.61047 0.50869 0.0
C544 C 0.55216 0.58079 0.47977 0.0
C545 C 0.54533 0.63374 0.44887 0.0
C546 C 0.55436 0.57506 0.39061 0.0
C547 C 0.55197 0.59831 0.33076 0.0
H548 H 0.89496 0.51511 0.16496 0.0
H549 H 0.84154 0.57203 0.32691 0.0
H550 H 0.88219 0.57496 0.43223 0.0
H551 H 0.93184 0.55785 0.4823 0.0
H552 H 0.98491 0.50455 0.31112 0.0
H553 H 0.94584 0.50569 0.20124 0.0
C554 C 0.89216 0.52951 0.22065 0.0
C555 C 0.86482 0.54365 0.23625 0.0
C556 C 0.91588 0.53213 0.27875 0.0
C557 C 0.86193 0.56053 0.31277 0.0
C558 C 0.88535 0.56248 0.37283 0.0
C559 C 0.93514 0.54757 0.41943 0.0
C560 C 0.96126 0.53157 0.40349 0.0
C561 C 0.9123 0.54801 0.35695 0.0
C562 C 0.9652 0.5175 0.3234 0.0
C563 C 0.94272 0.51781 0.26133 0.0
loop_
_geom_bond_atom_site_label_1
_geom_bond_atom_site_label_2
_geom_bond_distance
_geom_bond_site_symmetry_2
_ccdc_geom_bond_type
H0 C3 0.929 . S
H1 C6 0.929 . S
H2 C8 0.930 . S
C3 H0 0.929 . S
C3 C4 1.398 . S
C3 C5 1.396 1_554 S
C4 C3 1.398 . S
C4 C8 1.407 . S
C5 C3 1.396 1_556 S
C5 C6 1.394 . S
C6 H1 0.929 . S
C6 C5 1.394 . S
C6 C7 1.382 1_556 S
C7 C6 1.382 1_554 S
C7 C8 1.392 . S
C7 N9 1.420 . S
C8 H2 0.930 . S
C8 C4 1.407 . S
C8 C7 1.392 . S
N9 C7 1.420 . S
N9 C10 1.244 1_554 S
C10 N9 1.244 1_556 S
H11 C14 0.937 . S
H12 C17 0.929 1_556 S
H13 C19 0.930 . S
C14 H11 0.937 . S
C14 C15 1.395 1_655 S
C14 C16 1.393 1_655 S
C15 C14 1.395 1_455 S
C15 C19 1.407 . S
C16 C14 1.393 1_455 S
C16 C17 1.394 . S
C17 H12 0.929 1_554 S
C17 C16 1.394 . S
C17 C18 1.382 . S
C18 C17 1.382 . S
C18 C19 1.392 . S
C18 N20 1.420 . S
C19 H13 0.930 . S
C19 C15 1.407 . S
C19 C18 1.392 . S
N20 C18 1.420 . S
N20 C21 1.244 1_455 S
C21 N20 1.244 1_655 S
H22 C25 0.929 . S
H23 C28 0.929 . S
H24 C30 0.930 . S
C25 H22 0.929 . S
C25 C26 1.398 1_565 S
C25 C27 1.393 1_565 S
C26 C25 1.398 1_545 S
C26 C30 1.407 . S
C27 C25 1.393 1_545 S
C27 C28 1.399 1_554 S
C28 H23 0.929 . S
C28 C27 1.399 1_556 S
C28 C29 1.382 1_556 S
C29 C28 1.382 1_554 S
C29 C30 1.392 . S
C29 N31 1.420 . S
C30 H24 0.930 . S
C30 C26 1.407 . S
C30 C29 1.392 . S
N31 C29 1.420 . S
N31 C32 1.244 1_545 S
C32 N31 1.244 1_565 S
H33 C36 0.929 . S
H34 C39 0.929 . S
H35 C41 0.930 . S
C36 H33 0.929 . S
C36 C37 1.398 . S
C36 C38 1.396 1_554 S
C37 C36 1.398 . S
C37 C41 1.407 . S
C38 C36 1.396 1_556 S
C38 C39 1.394 . S
C39 H34 0.929 . S
C39 C38 1.394 . S
C39 C40 1.382 1_556 S
C40 C39 1.382 1_554 S
C40 C41 1.392 . S
C40 N42 1.420 . S
C41 H35 0.930 . S
C41 C37 1.407 . S
C41 C40 1.392 . S
N42 C40 1.420 . S
N42 C43 1.244 1_554 S
C43 N42 1.244 1_556 S
H44 C47 0.929 . S
H45 C50 0.929 . S
H46 C52 0.930 . S
C47 H44 0.929 . S
C47 C48 1.398 . S
C47 C49 1.396 . S
C48 C47 1.398 . S
C48 C52 1.407 . S
C49 C47 1.396 . S
C49 C50 1.394 . S
C50 H45 0.929 . S
C50 C49 1.394 . S
C50 C51 1.382 . S
C51 C50 1.382 . S
C51 C52 1.392 . S
C51 N53 1.420 . S
C52 H46 0.930 . S
C52 C48 1.407 . S
C52 C51 1.392 . S
N53 C51 1.420 . S
N53 C54 1.244 . S
C54 N53 1.244 . S
H55 C58 0.929 . S
H56 C61 0.929 . S
H57 C63 0.930 . S
C58 H55 0.929 . S
C58 C59 1.398 . S
C58 C60 1.396 . S
C59 C58 1.398 . S
C59 C63 1.407 . S
C60 C58 1.396 . S
C60 C61 1.394 . S
C61 H56 0.929 . S
C61 C60 1.394 . S
C61 C62 1.382 . S
C62 C61 1.382 . S
C62 C63 1.392 . S
C62 N64 1.420 . S
C63 H57 0.930 . S
C63 C59 1.407 . S
C63 C62 1.392 . S
N64 C62 1.420 . S
N64 C65 1.244 . S
C65 N64 1.244 . S
H66 C69 0.929 . S
H67 C72 0.929 . S
H68 C74 0.930 . S
C69 H66 0.929 . S
C69 C70 1.398 . S
C69 C71 1.396 . S
C70 C69 1.398 . S
C70 C74 1.407 . S
C71 C69 1.396 . S
C71 C72 1.394 . S
C72 H67 0.929 . S
C72 C71 1.394 . S
C72 C73 1.382 . S
C73 C72 1.382 . S
C73 C74 1.392 . S
C73 N75 1.420 . S
C74 H68 0.930 . S
C74 C70 1.407 . S
C74 C73 1.392 . S
N75 C73 1.420 . S
N75 C76 1.244 . S
C76 N75 1.244 . S
H77 C80 0.929 . S
H78 C83 0.929 . S
H79 C85 0.930 . S
C80 H77 0.929 . S
C80 C81 1.398 . S
C80 C82 1.396 . S
C81 C80 1.398 . S
C81 C85 1.407 . S
C82 C80 1.396 . S
C82 C83 1.394 . S
C83 H78 0.929 . S
C83 C82 1.394 . S
C83 C84 1.382 . S
C84 C83 1.382 . S
C84 C85 1.392 . S
C84 N86 1.420 . S
C85 H79 0.930 . S
C85 C81 1.407 . S
C85 C84 1.392 . S
N86 C84 1.420 . S
N86 C87 1.244 . S
C87 N86 1.244 . S
O88 Zn89 1.955 . S
O88 C104 1.225 1_545 S
Zn89 O88 1.955 . S
Zn89 O90 1.948 1_545 S
Zn89 O96 1.945 . S
Zn89 O101 1.893 1_545 S
O90 Zn89 1.948 1_565 S
O90 Zn91 1.900 1_465 S
O90 Zn92 1.952 . S
O90 Zn93 1.966 1_455 S
Zn91 O90 1.900 1_645 S
Zn91 O94 1.933 . S
Zn91 O97 1.941 1_655 S
Zn91 O98 1.965 . S
Zn92 O90 1.952 . S
Zn92 O99 1.938 1_565 S
Zn92 O100 1.906 . S
Zn92 O110 1.953 . S
Zn93 O90 1.966 1_655 S
Zn93 O95 1.932 . S
Zn93 O102 1.977 . S
Zn93 O103 1.910 1_655 S
O94 Zn91 1.933 . S
O94 C105 1.226 . S
O95 Zn93 1.932 . S
O95 C105 1.307 1_565 S
O96 Zn89 1.945 . S
O96 C107 1.253 . S
O97 Zn91 1.941 1_455 S
O97 C107 1.283 . S
O98 Zn91 1.965 . S
O98 C106 1.303 1_655 S
O99 Zn92 1.938 1_545 S
O99 C106 1.247 . S
O100 Zn92 1.906 . S
O100 C108 1.304 1_455 S
O101 Zn89 1.893 1_565 S
O101 C109 1.311 . S
O102 Zn93 1.977 . S
O102 C108 1.272 . S
O103 Zn93 1.910 1_455 S
O103 C109 1.231 . S
C104 O88 1.225 1_565 S
C104 O110 1.298 . S
C105 O94 1.226 . S
C105 O95 1.307 1_545 S
C106 O98 1.303 1_455 S
C106 O99 1.247 . S
C107 O96 1.253 . S
C107 O97 1.283 . S
C108 O100 1.304 1_655 S
C108 O102 1.272 . S
C109 O101 1.311 . S
C109 O103 1.231 . S
O110 Zn92 1.953 . S
O110 C104 1.298 . S
O111 Zn112 1.953 . S
O111 C127 1.225 . S
Zn112 O111 1.953 . S
Zn112 O113 1.949 . S
Zn112 O119 1.919 . S
Zn112 O124 1.924 . S
O113 Zn112 1.949 . S
O113 Zn114 1.923 1_545 S
O113 Zn115 1.950 . S
O113 Zn116 1.945 1_545 S
Zn114 O113 1.923 1_565 S
Zn114 O117 1.933 . S
Zn114 O120 1.941 . S
Zn114 O121 1.965 . S
Zn115 O113 1.950 . S
Zn115 O122 1.938 . S
Zn115 O123 1.906 . S
Zn115 O133 1.953 . S
Zn116 O113 1.945 1_565 S
Zn116 O118 1.932 . S
Zn116 O125 1.977 . S
Zn116 O126 1.910 1_565 S
O117 Zn114 1.933 . S
O117 C128 1.226 . S
O118 Zn116 1.932 . S
O118 C128 1.307 . S
O119 Zn112 1.919 . S
O119 C130 1.253 . S
O120 Zn114 1.941 . S
O120 C130 1.283 1_565 S
O121 Zn114 1.965 . S
O121 C129 1.303 1_565 S
O122 Zn115 1.938 . S
O122 C129 1.247 . S
O123 Zn115 1.906 . S
O123 C131 1.304 1_545 S
O124 Zn112 1.924 . S
O124 C132 1.311 . S
O125 Zn116 1.977 . S
O125 C131 1.272 . S
O126 Zn116 1.910 1_545 S
O126 C132 1.231 . S
C127 O111 1.225 . S
C127 O133 1.298 . S
C128 O117 1.226 . S
C128 O118 1.307 . S
C129 O121 1.303 1_545 S
C129 O122 1.247 . S
C130 O119 1.253 . S
C130 O120 1.283 1_545 S
C131 O123 1.304 1_565 S
C131 O125 1.272 . S
C132 O124 1.311 . S
C132 O126 1.231 . S
O133 Zn115 1.953 . S
O133 C127 1.298 . S
O134 Zn135 1.953 . S
O134 C150 1.225 . S
Zn135 O134 1.953 . S
Zn135 O136 1.949 . S
Zn135 O142 1.919 . S
Zn135 O147 1.924 . S
O136 Zn135 1.949 . S
O136 Zn137 1.923 . S
O136 Zn138 1.950 . S
O136 Zn139 1.945 . S
Zn137 O136 1.923 . S
Zn137 O140 1.933 . S
Zn137 O143 1.941 . S
Zn137 O144 1.965 . S
Zn138 O136 1.950 . S
Zn138 O145 1.938 . S
Zn138 O146 1.906 . S
Zn138 O156 1.953 . S
Zn139 O136 1.945 . S
Zn139 O141 1.932 . S
Zn139 O148 1.977 . S
Zn139 O149 1.910 . S
O140 Zn137 1.933 . S
O140 C151 1.226 . S
O141 Zn139 1.932 . S
O141 C151 1.307 . S
O142 Zn135 1.919 . S
O142 C153 1.253 . S
O143 Zn137 1.941 . S
O143 C153 1.283 . S
O144 Zn137 1.965 . S
O144 C152 1.303 . S
O145 Zn138 1.938 . S
O145 C152 1.247 . S
O146 Zn138 1.906 . S
O146 C154 1.304 . S
O147 Zn135 1.924 . S
O147 C155 1.311 . S
O148 Zn139 1.977 . S
O148 C154 1.272 . S
O149 Zn139 1.910 . S
O149 C155 1.231 . S
C150 O134 1.225 . S
C150 O156 1.298 . S
C151 O140 1.226 . S
C151 O141 1.307 . S
C152 O144 1.303 . S
C152 O145 1.247 . S
C153 O142 1.253 . S
C153 O143 1.283 . S
C154 O146 1.304 . S
C154 O148 1.272 . S
C155 O147 1.311 . S
C155 O149 1.231 . S
O156 Zn138 1.953 . S
O156 C150 1.298 . S
O157 Zn158 1.953 1_655 S
O157 C173 1.225 . S
Zn158 O157 1.953 1_455 S
Zn158 O159 1.949 . S
Zn158 O165 1.919 . S
Zn158 O170 1.924 . S
O159 Zn158 1.949 . S
O159 Zn160 1.918 1_455 S
O159 Zn161 1.929 1_455 S
O159 Zn162 1.973 . S
Zn160 O159 1.918 1_655 S
Zn160 O163 1.933 1_655 S
Zn160 O166 1.941 . S
Zn160 O167 1.965 . S
Zn161 O159 1.929 1_655 S
Zn161 O168 1.938 . S
Zn161 O169 1.906 . S
Zn161 O179 1.953 . S
Zn162 O159 1.973 . S
Zn162 O164 1.932 . S
Zn162 O171 1.977 . S
Zn162 O172 1.910 . S
O163 Zn160 1.933 1_455 S
O163 C174 1.226 . S
O164 Zn162 1.932 . S
O164 C174 1.307 . S
O165 Zn158 1.919 . S
O165 C176 1.253 . S
O166 Zn160 1.941 . S
O166 C176 1.284 1_655 S
O167 Zn160 1.965 . S
O167 C175 1.303 . S
O168 Zn161 1.938 . S
O168 C175 1.247 . S
O169 Zn161 1.906 . S
O169 C177 1.304 1_655 S
O170 Zn158 1.924 . S
O170 C178 1.311 . S
O171 Zn162 1.977 . S
O171 C177 1.272 . S
O172 Zn162 1.910 . S
O172 C178 1.231 . S
C173 O157 1.225 . S
C173 O179 1.298 . S
C174 O163 1.226 . S
C174 O164 1.307 . S
C175 O167 1.303 . S
C175 O168 1.247 . S
C176 O165 1.253 . S
C176 O166 1.284 1_455 S
C177 O169 1.304 1_455 S
C177 O171 1.272 . S
C178 O170 1.311 . S
C178 O172 1.231 . S
O179 Zn161 1.953 . S
O179 C173 1.298 . S
H180 C186 0.930 . S
H181 C189 0.930 . S
H182 C190 0.930 . S
H183 C191 0.930 . S
H184 C194 0.930 . S
H185 C195 0.930 . S
C186 H180 0.930 . S
C186 C187 1.355 1_565 S
C186 C188 1.415 . S
C187 C186 1.355 1_545 S
C187 C189 1.419 . S
C188 C186 1.415 . S
C188 C193 1.425 1_565 S
C188 C195 1.409 . S
C189 H181 0.930 . S
C189 C187 1.419 . S
C189 C190 1.362 . S
C190 H182 0.930 . S
C190 C189 1.362 . S
C190 C193 1.409 . S
C191 H183 0.930 . S
C191 C192 1.355 1_545 S
C191 C193 1.415 . S
C192 C191 1.355 1_565 S
C192 C194 1.419 . S
C193 C188 1.425 1_545 S
C193 C190 1.409 . S
C193 C191 1.415 . S
C194 H184 0.930 . S
C194 C192 1.419 . S
C194 C195 1.362 . S
C195 H185 0.930 . S
C195 C188 1.409 . S
C195 C194 1.362 . S
H196 C202 0.930 . S
H197 C205 0.930 . S
H198 C206 0.930 . S
H199 C207 0.930 . S
H200 C210 0.930 . S
H201 C211 0.930 . S
C202 H196 0.930 . S
C202 C203 1.355 . S
C202 C204 1.415 . S
C203 C202 1.355 . S
C203 C205 1.419 . S
C204 C202 1.415 . S
C204 C209 1.425 . S
C204 C211 1.409 . S
C205 H197 0.930 . S
C205 C203 1.419 . S
C205 C206 1.362 . S
C206 H198 0.930 . S
C206 C205 1.362 . S
C206 C209 1.409 . S
C207 H199 0.930 . S
C207 C208 1.355 . S
C207 C209 1.415 . S
C208 C207 1.355 . S
C208 C210 1.419 . S
C209 C204 1.425 . S
C209 C206 1.409 . S
C209 C207 1.415 . S
C210 H200 0.930 . S
C210 C208 1.419 . S
C210 C211 1.362 . S
C211 H201 0.930 . S
C211 C204 1.409 . S
C211 C210 1.362 . S
H212 C218 0.930 . S
H213 C221 0.930 . S
H214 C222 0.930 . S
H215 C223 0.930 . S
H216 C226 0.930 . S
H217 C227 0.930 . S
C218 H212 0.930 . S
C218 C219 1.355 . S
C218 C220 1.415 . S
C219 C218 1.355 . S
C219 C221 1.419 . S
C220 C218 1.415 . S
C220 C225 1.425 . S
C220 C227 1.409 . S
C221 H213 0.930 . S
C221 C219 1.419 . S
C221 C222 1.362 . S
C222 H214 0.930 . S
C222 C221 1.362 . S
C222 C225 1.409 . S
C223 H215 0.930 . S
C223 C224 1.355 . S
C223 C225 1.415 . S
C224 C223 1.355 . S
C224 C226 1.419 . S
C225 C220 1.425 . S
C225 C222 1.409 . S
C225 C223 1.415 . S
C226 H216 0.930 . S
C226 C224 1.419 . S
C226 C227 1.362 . S
C227 H217 0.930 . S
C227 C220 1.409 . S
C227 C226 1.362 . S
H228 C234 0.930 . S
H229 C237 0.930 . S
H230 C238 0.930 . S
H231 C239 0.930 . S
H232 C242 0.930 1_655 S
H233 C243 0.930 1_655 S
C234 H228 0.930 . S
C234 C235 1.355 . S
C234 C236 1.415 . S
C235 C234 1.355 . S
C235 C237 1.419 . S
C236 C234 1.415 . S
C236 C241 1.425 . S
C236 C243 1.409 . S
C237 H229 0.930 . S
C237 C235 1.419 . S
C237 C238 1.362 . S
C238 H230 0.930 . S
C238 C237 1.362 . S
C238 C241 1.409 . S
C239 H231 0.930 . S
C239 C240 1.355 . S
C239 C241 1.415 . S
C240 C239 1.355 . S
C240 C242 1.419 . S
C241 C236 1.425 . S
C241 C238 1.409 . S
C241 C239 1.415 . S
C242 H232 0.930 1_455 S
C242 C240 1.419 . S
C242 C243 1.362 . S
C243 H233 0.930 1_455 S
C243 C236 1.409 . S
C243 C242 1.362 . S
H244 C250 0.929 1_554 S
H245 C253 0.930 . S
H246 C254 0.930 . S
H247 C255 0.930 . S
H248 C258 0.930 1_565 S
H249 C259 0.933 1_554 S
C250 H244 0.929 1_556 S
C250 C251 1.354 . S
C250 C252 1.415 . S
C251 C250 1.354 . S
C251 C253 1.421 . S
C252 C250 1.415 . S
C252 C257 1.426 . S
C252 C259 1.408 1_545 S
C253 H245 0.930 . S
C253 C251 1.421 . S
C253 C254 1.362 . S
C254 H246 0.930 . S
C254 C253 1.362 . S
C254 C257 1.409 . S
C255 H247 0.930 . S
C255 C256 1.355 . S
C255 C257 1.415 . S
C256 C255 1.355 . S
C256 C258 1.419 . S
C257 C252 1.426 . S
C257 C254 1.409 . S
C257 C255 1.415 . S
C258 H248 0.930 1_545 S
C258 C256 1.419 . S
C258 C259 1.362 1_545 S
C259 H249 0.933 1_556 S
C259 C252 1.408 1_565 S
C259 C258 1.362 1_565 S
H260 C266 0.930 . S
H261 C269 0.930 . S
H262 C270 0.930 1_554 S
H263 C271 0.930 . S
H264 C274 0.930 . S
H265 C275 0.930 . S
C266 H260 0.930 . S
C266 C267 1.355 . S
C266 C268 1.415 . S
C267 C266 1.355 . S
C267 C269 1.419 1_556 S
C268 C266 1.415 . S
C268 C273 1.425 . S
C268 C275 1.409 . S
C269 H261 0.930 . S
C269 C267 1.419 1_554 S
C269 C270 1.362 1_554 S
C270 H262 0.930 1_556 S
C270 C269 1.362 1_556 S
C270 C273 1.409 . S
C271 H263 0.930 . S
C271 C272 1.355 . S
C271 C273 1.415 . S
C272 C271 1.355 . S
C272 C274 1.419 . S
C273 C268 1.425 . S
C273 C270 1.409 . S
C273 C271 1.415 . S
C274 H264 0.930 . S
C274 C272 1.419 . S
C274 C275 1.362 . S
C275 H265 0.930 . S
C275 C268 1.409 . S
C275 C274 1.362 . S
H276 C282 0.930 . S
H277 C285 0.930 . S
H278 C286 0.930 . S
H279 C287 0.930 . S
H280 C290 0.930 . S
H281 C291 0.930 . S
C282 H276 0.930 . S
C282 C283 1.355 . S
C282 C284 1.415 . S
C283 C282 1.355 . S
C283 C285 1.419 . S
C284 C282 1.415 . S
C284 C289 1.425 . S
C284 C291 1.409 . S
C285 H277 0.930 . S
C285 C283 1.419 . S
C285 C286 1.362 . S
C286 H278 0.930 . S
C286 C285 1.362 . S
C286 C289 1.409 . S
C287 H279 0.930 . S
C287 C288 1.355 . S
C287 C289 1.415 . S
C288 C287 1.355 . S
C288 C290 1.419 . S
C289 C284 1.425 . S
C289 C286 1.409 . S
C289 C287 1.415 . S
C290 H280 0.930 . S
C290 C288 1.419 . S
C290 C291 1.362 . S
C291 H281 0.930 . S
C291 C284 1.409 . S
C291 C290 1.362 . S
H292 C298 0.930 . S
H293 C301 0.930 . S
H294 C302 0.930 1_554 S
H295 C303 0.930 . S
H296 C306 0.930 . S
H297 C307 0.930 . S
C298 H292 0.930 . S
C298 C299 1.357 1_556 S
C298 C300 1.415 . S
C299 C298 1.357 1_554 S
C299 C301 1.415 1_655 S
C300 C298 1.415 . S
C300 C305 1.425 1_655 S
C300 C307 1.409 . S
C301 H293 0.930 . S
C301 C299 1.415 1_455 S
C301 C302 1.362 1_554 S
C302 H294 0.930 1_556 S
C302 C301 1.362 1_556 S
C302 C305 1.409 . S
C303 H295 0.930 . S
C303 C304 1.355 . S
C303 C305 1.415 . S
C304 C303 1.355 . S
C304 C306 1.419 1_455 S
C305 C300 1.425 1_455 S
C305 C302 1.409 . S
C305 C303 1.415 . S
C306 H296 0.930 . S
C306 C304 1.419 1_655 S
C306 C307 1.362 . S
C307 H297 0.930 . S
C307 C300 1.409 . S
C307 C306 1.362 . S
H308 C314 0.930 . S
H309 C317 0.930 . S
H310 C318 0.930 . S
H311 C319 0.930 . S
H312 C322 0.930 . S
H313 C323 0.930 . S
C314 H308 0.930 . S
C314 C315 1.355 . S
C314 C316 1.415 . S
C315 C314 1.355 . S
C315 C317 1.419 . S
C316 C314 1.415 . S
C316 C321 1.425 . S
C316 C323 1.409 1_455 S
C317 H309 0.930 . S
C317 C315 1.419 . S
C317 C318 1.362 . S
C318 H310 0.930 . S
C318 C317 1.362 . S
C318 C321 1.409 . S
C319 H311 0.930 . S
C319 C320 1.355 . S
C319 C321 1.415 . S
C320 C319 1.355 . S
C320 C322 1.419 1_455 S
C321 C316 1.425 . S
C321 C318 1.409 . S
C321 C319 1.415 . S
C322 H312 0.930 . S
C322 C320 1.419 1_655 S
C322 C323 1.362 . S
C323 H313 0.930 . S
C323 C316 1.409 1_655 S
C323 C322 1.362 . S
H324 C330 0.930 . S
H325 C333 0.930 . S
H326 C334 0.930 . S
H327 C335 0.930 1_565 S
H328 C338 0.930 . S
H329 C339 0.930 . S
C330 H324 0.930 . S
C330 C331 1.355 . S
C330 C332 1.415 . S
C331 C330 1.355 . S
C331 C333 1.419 1_545 S
C332 C330 1.415 . S
C332 C337 1.425 . S
C332 C339 1.409 . S
C333 H325 0.930 . S
C333 C331 1.419 1_565 S
C333 C334 1.362 . S
C334 H326 0.930 . S
C334 C333 1.362 . S
C334 C337 1.409 1_565 S
C335 H327 0.930 1_545 S
C335 C336 1.355 . S
C335 C337 1.415 . S
C336 C335 1.355 . S
C336 C338 1.419 . S
C337 C332 1.425 . S
C337 C334 1.409 1_545 S
C337 C335 1.415 . S
C338 H328 0.930 . S
C338 C336 1.419 . S
C338 C339 1.362 . S
C339 H329 0.930 . S
C339 C332 1.409 . S
C339 C338 1.362 . S
H340 C346 0.930 . S
H341 C349 0.930 . S
H342 C350 0.930 . S
H343 C351 0.930 . S
H344 C354 0.930 . S
H345 C355 0.930 . S
C346 H340 0.930 . S
C346 C347 1.355 . S
C346 C348 1.415 . S
C347 C346 1.355 . S
C347 C349 1.419 . S
C348 C346 1.415 . S
C348 C353 1.425 . S
C348 C355 1.409 . S
C349 H341 0.930 . S
C349 C347 1.419 . S
C349 C350 1.362 . S
C350 H342 0.930 . S
C350 C349 1.362 . S
C350 C353 1.409 . S
C351 H343 0.930 . S
C351 C352 1.355 . S
C351 C353 1.415 . S
C352 C351 1.355 . S
C352 C354 1.419 . S
C353 C348 1.425 . S
C353 C350 1.409 . S
C353 C351 1.415 . S
C354 H344 0.930 . S
C354 C352 1.419 . S
C354 C355 1.362 . S
C355 H345 0.930 . S
C355 C348 1.409 . S
C355 C354 1.362 . S
H356 C362 0.930 . S
H357 C365 0.930 . S
H358 C366 0.930 . S
H359 C367 0.930 . S
H360 C370 0.930 . S
H361 C371 0.930 . S
C362 H356 0.930 . S
C362 C363 1.355 . S
C362 C364 1.415 . S
C363 C362 1.355 . S
C363 C365 1.419 . S
C364 C362 1.415 . S
C364 C369 1.425 . S
C364 C371 1.409 . S
C365 H357 0.930 . S
C365 C363 1.419 . S
C365 C366 1.362 . S
C366 H358 0.930 . S
C366 C365 1.362 . S
C366 C369 1.409 . S
C367 H359 0.930 . S
C367 C368 1.355 . S
C367 C369 1.415 . S
C368 C367 1.355 . S
C368 C370 1.419 . S
C369 C364 1.425 . S
C369 C366 1.409 . S
C369 C367 1.415 . S
C370 H360 0.930 . S
C370 C368 1.419 . S
C370 C371 1.362 . S
C371 H361 0.930 . S
C371 C364 1.409 . S
C371 C370 1.362 . S
H372 C378 0.930 . S
H373 C381 0.930 . S
H374 C382 0.930 . S
H375 C383 0.930 . S
H376 C386 0.930 . S
H377 C387 0.922 1_654 S
C378 H372 0.930 . S
C378 C379 1.355 1_655 S
C378 C380 1.415 1_654 S
C379 C378 1.355 1_455 S
C379 C381 1.419 1_554 S
C380 C378 1.415 1_456 S
C380 C385 1.425 . S
C380 C387 1.411 . S
C381 H373 0.930 . S
C381 C379 1.419 1_556 S
C381 C382 1.362 . S
C382 H374 0.930 . S
C382 C381 1.362 . S
C382 C385 1.409 . S
C383 H375 0.930 . S
C383 C384 1.355 . S
C383 C385 1.415 . S
C384 C383 1.355 . S
C384 C386 1.419 . S
C385 C380 1.425 . S
C385 C382 1.409 . S
C385 C383 1.415 . S
C386 H376 0.930 . S
C386 C384 1.419 . S
C386 C387 1.368 . S
C387 H377 0.922 1_456 S
C387 C380 1.411 . S
C387 C386 1.368 . S
H388 C394 0.930 . S
H389 C397 0.930 . S
H390 C398 0.930 . S
H391 C399 0.930 . S
H392 C402 0.930 . S
H393 C403 0.930 . S
C394 H388 0.930 . S
C394 C395 1.355 . S
C394 C396 1.415 . S
C395 C394 1.355 . S
C395 C397 1.419 1_556 S
C396 C394 1.415 . S
C396 C401 1.425 . S
C396 C403 1.409 . S
C397 H389 0.930 . S
C397 C395 1.419 1_554 S
C397 C398 1.362 . S
C398 H390 0.930 . S
C398 C397 1.362 . S
C398 C401 1.409 1_554 S
C399 H391 0.930 . S
C399 C400 1.355 . S
C399 C401 1.415 . S
C400 C399 1.355 . S
C400 C402 1.419 . S
C401 C396 1.425 . S
C401 C398 1.409 1_556 S
C401 C399 1.415 . S
C402 H392 0.930 . S
C402 C400 1.419 . S
C402 C403 1.362 . S
C403 H393 0.930 . S
C403 C396 1.409 . S
C403 C402 1.362 . S
H404 C410 0.930 . S
H405 C413 0.930 . S
H406 C414 0.930 1_554 S
H407 C415 0.930 . S
H408 C418 0.930 . S
H409 C419 0.930 . S
C410 H404 0.930 . S
C410 C411 1.355 . S
C410 C412 1.415 . S
C411 C410 1.355 . S
C411 C413 1.419 1_556 S
C412 C410 1.415 . S
C412 C417 1.425 . S
C412 C419 1.409 . S
C413 H405 0.930 . S
C413 C411 1.419 1_554 S
C413 C414 1.362 1_554 S
C414 H406 0.930 1_556 S
C414 C413 1.362 1_556 S
C414 C417 1.409 . S
C415 H407 0.930 . S
C415 C416 1.355 . S
C415 C417 1.415 . S
C416 C415 1.355 . S
C416 C418 1.419 . S
C417 C412 1.425 . S
C417 C414 1.409 . S
C417 C415 1.415 . S
C418 H408 0.930 . S
C418 C416 1.419 . S
C418 C419 1.362 . S
C419 H409 0.930 . S
C419 C412 1.409 . S
C419 C418 1.362 . S
H420 C426 0.930 1_554 S
H421 C429 0.930 . S
H422 C430 0.930 . S
H423 C431 0.930 . S
H424 C434 0.930 . S
H425 C435 0.930 . S
C426 H420 0.930 1_556 S
C426 C427 1.355 . S
C426 C428 1.415 . S
C427 C426 1.355 . S
C427 C429 1.419 . S
C428 C426 1.415 . S
C428 C433 1.425 . S
C428 C435 1.409 . S
C429 H421 0.930 . S
C429 C427 1.419 . S
C429 C430 1.362 . S
C430 H422 0.930 . S
C430 C429 1.362 . S
C430 C433 1.409 . S
C431 H423 0.930 . S
C431 C432 1.355 . S
C431 C433 1.415 . S
C432 C431 1.355 . S
C432 C434 1.419 . S
C433 C428 1.425 . S
C433 C430 1.409 . S
C433 C431 1.415 . S
C434 H424 0.930 . S
C434 C432 1.419 . S
C434 C435 1.362 . S
C435 H425 0.930 . S
C435 C428 1.409 . S
C435 C434 1.362 . S
H436 C442 0.930 . S
H437 C445 0.930 . S
H438 C446 0.930 . S
H439 C447 0.930 . S
H440 C450 0.930 . S
H441 C451 0.930 . S
C442 H436 0.930 . S
C442 C443 1.355 . S
C442 C444 1.415 . S
C443 C442 1.355 . S
C443 C445 1.419 . S
C444 C442 1.415 . S
C444 C449 1.425 . S
C444 C451 1.409 1_455 S
C445 H437 0.930 . S
C445 C443 1.419 . S
C445 C446 1.362 . S
C446 H438 0.930 . S
C446 C445 1.362 . S
C446 C449 1.409 . S
C447 H439 0.930 . S
C447 C448 1.355 1_554 S
C447 C449 1.415 . S
C448 C447 1.355 1_556 S
C448 C450 1.419 1_455 S
C449 C444 1.425 . S
C449 C446 1.409 . S
C449 C447 1.415 . S
C450 H440 0.930 . S
C450 C448 1.419 1_655 S
C450 C451 1.362 1_556 S
C451 H441 0.930 . S
C451 C444 1.409 1_655 S
C451 C450 1.362 1_554 S
H452 C458 0.930 . S
H453 C461 0.937 . S
H454 C462 0.930 . S
H455 C463 0.930 . S
H456 C466 0.930 . S
H457 C467 0.930 . S
C458 H452 0.930 . S
C458 C459 1.355 . S
C458 C460 1.415 . S
C459 C458 1.355 . S
C459 C461 1.410 1_545 S
C460 C458 1.415 . S
C460 C465 1.425 1_554 S
C460 C467 1.409 . S
C461 H453 0.937 . S
C461 C459 1.410 1_565 S
C461 C462 1.366 1_554 S
C462 H454 0.930 . S
C462 C461 1.366 1_556 S
C462 C465 1.409 1_565 S
C463 H455 0.930 . S
C463 C464 1.355 1_565 S
C463 C465 1.415 1_565 S
C464 C463 1.355 1_545 S
C464 C466 1.419 1_556 S
C465 C460 1.425 1_556 S
C465 C462 1.409 1_545 S
C465 C463 1.415 1_545 S
C466 H456 0.930 . S
C466 C464 1.419 1_554 S
C466 C467 1.362 . S
C467 H457 0.930 . S
C467 C460 1.409 . S
C467 C466 1.362 . S
H468 C474 0.930 . S
H469 C477 0.930 . S
H470 C478 0.930 . S
H471 C479 0.930 . S
H472 C482 0.930 . S
H473 C483 0.930 . S
C474 H468 0.930 . S
C474 C475 1.355 . S
C474 C476 1.415 . S
C475 C474 1.355 . S
C475 C477 1.419 . S
C476 C474 1.415 . S
C476 C481 1.425 1_554 S
C476 C483 1.409 . S
C477 H469 0.930 . S
C477 C475 1.419 . S
C477 C478 1.362 1_554 S
C478 H470 0.930 . S
C478 C477 1.362 1_556 S
C478 C481 1.409 . S
C479 H471 0.930 . S
C479 C480 1.355 . S
C479 C481 1.415 . S
C480 C479 1.355 . S
C480 C482 1.419 . S
C481 C476 1.425 1_556 S
C481 C478 1.409 . S
C481 C479 1.415 . S
C482 H472 0.930 . S
C482 C480 1.419 . S
C482 C483 1.362 1_556 S
C483 H473 0.930 . S
C483 C476 1.409 . S
C483 C482 1.362 1_554 S
H484 C490 0.930 . S
H485 C493 0.930 . S
H486 C494 0.930 . S
H487 C495 0.930 . S
H488 C498 0.930 . S
H489 C499 0.930 . S
C490 H484 0.930 . S
C490 C491 1.355 . S
C490 C492 1.415 1_554 S
C491 C490 1.355 . S
C491 C493 1.419 . S
C492 C490 1.415 1_556 S
C492 C497 1.425 1_556 S
C492 C499 1.409 . S
C493 H485 0.930 . S
C493 C491 1.419 . S
C493 C494 1.362 . S
C494 H486 0.930 . S
C494 C493 1.362 . S
C494 C497 1.409 . S
C495 H487 0.930 . S
C495 C496 1.355 . S
C495 C497 1.415 1_556 S
C496 C495 1.355 . S
C496 C498 1.419 . S
C497 C492 1.425 1_554 S
C497 C494 1.409 . S
C497 C495 1.415 1_554 S
C498 H488 0.930 . S
C498 C496 1.419 . S
C498 C499 1.362 . S
C499 H489 0.930 . S
C499 C492 1.409 . S
C499 C498 1.362 . S
H500 C506 0.930 . S
H501 C509 0.930 . S
H502 C510 0.930 . S
H503 C511 0.930 . S
H504 C514 0.930 . S
H505 C515 0.930 . S
C506 H500 0.930 . S
C506 C507 1.355 1_655 S
C506 C508 1.415 . S
C507 C506 1.355 1_455 S
C507 C509 1.419 . S
C508 C506 1.415 . S
C508 C513 1.425 1_655 S
C508 C515 1.409 . S
C509 H501 0.930 . S
C509 C507 1.419 . S
C509 C510 1.362 . S
C510 H502 0.930 . S
C510 C509 1.362 . S
C510 C513 1.409 . S
C511 H503 0.930 . S
C511 C512 1.355 1_455 S
C511 C513 1.415 . S
C512 C511 1.355 1_655 S
C512 C514 1.419 . S
C513 C508 1.425 1_455 S
C513 C510 1.409 . S
C513 C511 1.415 . S
C514 H504 0.930 . S
C514 C512 1.419 . S
C514 C515 1.362 . S
C515 H505 0.930 . S
C515 C508 1.409 . S
C515 C514 1.362 . S
H516 C522 0.930 . S
H517 C525 0.930 . S
H518 C526 0.930 . S
H519 C527 0.930 . S
H520 C530 0.930 . S
H521 C531 0.930 . S
C522 H516 0.930 . S
C522 C523 1.368 . S
C522 C524 1.415 . S
C523 C522 1.368 . S
C523 C525 1.410 1_565 S
C524 C522 1.415 . S
C524 C529 1.425 . S
C524 C531 1.409 . S
C525 H517 0.930 . S
C525 C523 1.410 1_545 S
C525 C526 1.362 . S
C526 H518 0.930 . S
C526 C525 1.362 . S
C526 C529 1.409 1_545 S
C527 H519 0.930 . S
C527 C528 1.355 . S
C527 C529 1.415 . S
C528 C527 1.355 . S
C528 C530 1.419 . S
C529 C524 1.425 . S
C529 C526 1.409 1_565 S
C529 C527 1.415 . S
C530 H520 0.930 . S
C530 C528 1.419 . S
C530 C531 1.362 . S
C531 H521 0.930 . S
C531 C524 1.409 . S
C531 C530 1.362 . S
H532 C538 0.930 . S
H533 C541 0.930 . S
H534 C542 0.930 . S
H535 C543 0.930 . S
H536 C546 0.930 . S
H537 C547 0.930 . S
C538 H532 0.930 . S
C538 C539 1.355 . S
C538 C540 1.415 . S
C539 C538 1.355 . S
C539 C541 1.419 . S
C540 C538 1.415 . S
C540 C545 1.425 . S
C540 C547 1.409 . S
C541 H533 0.930 . S
C541 C539 1.419 . S
C541 C542 1.362 . S
C542 H534 0.930 . S
C542 C541 1.362 . S
C542 C545 1.409 . S
C543 H535 0.930 . S
C543 C544 1.355 . S
C543 C545 1.415 . S
C544 C543 1.355 . S
C544 C546 1.419 . S
C545 C540 1.425 . S
C545 C542 1.409 . S
C545 C543 1.415 . S
C546 H536 0.930 . S
C546 C544 1.419 . S
C546 C547 1.362 . S
C547 H537 0.930 . S
C547 C540 1.409 . S
C547 C546 1.362 . S
H548 C554 0.930 . S
H549 C557 0.930 . S
H550 C558 0.930 . S
H551 C559 0.930 . S
H552 C562 0.930 . S
H553 C563 0.930 . S
C554 H548 0.930 . S
C554 C555 1.355 . S
C554 C556 1.415 . S
C555 C554 1.355 . S
C555 C557 1.419 . S
C556 C554 1.415 . S
C556 C561 1.425 . S
C556 C563 1.409 . S
C557 H549 0.930 . S
C557 C555 1.419 . S
C557 C558 1.362 . S
C558 H550 0.930 . S
C558 C557 1.362 . S
C558 C561 1.409 . S
C559 H551 0.930 . S
C559 C560 1.355 . S
C559 C561 1.415 . S
C560 C559 1.355 . S
C560 C562 1.419 . S
C561 C556 1.425 . S
C561 C558 1.409 . S
C561 C559 1.415 . S
C562 H552 0.930 . S
C562 C560 1.419 . S
C562 C563 1.362 . S
C563 H553 0.930 . S
C563 C556 1.409 . S
C563 C562 1.362 . S
C187 C76 1.575 . S
C192 C104 1.602 . S
C208 C127 1.599 . S
C203 C87 1.563 . S
C224 C150 1.634 . S
C219 C54 1.610 . S
C240 C177 1.554 . S
C235 C65 1.594 . S
C256 C105 1.543 . S
C251 C32 1.506 1_546 S
C267 C43 1.508 . S
C272 C128 1.525 . S
C283 C10 1.456 . S
C288 C151 1.489 . S
C299 C21 1.594 . S
C304 C176 1.577 . S
C320 C106 0.534 . S
C315 C60 0.624 . S
C336 C129 0.578 . S
C331 C71 0.648 . S
C352 C152 0.534 . S
C347 C82 0.619 . S
C363 C49 0.636 . S
C368 C178 0.623 . S
C379 C16 0.865 . S
C384 C109 0.784 . S
C400 C132 0.769 . S
C395 C27 0.744 1_556 S
C416 C155 0.700 . S
C411 C38 0.701 . S
C427 C5 0.656 . S
C432 C175 0.518 . S
C443 C59 1.547 . S
C448 C107 1.544 . S
C459 C70 1.556 . S
C464 C130 1.554 . S
C480 C153 1.569 . S
C475 C81 1.554 . S
C496 C174 1.420 . S
C491 C48 1.359 . S
C507 C15 1.611 . S
C512 C108 1.587 . S
C528 C131 1.546 . S
C523 C26 1.600 1_565 S
C544 C154 1.506 . S
C539 C37 1.532 . S
C555 C4 1.689 . S
C560 C173 1.719 . S
