# Generated by pormake.
# Topology tsx, (6,3)-cn, num edge types: 1
# Building blocks:
#     Node 0, Type 0, BuildingBlock: VOLQOD_clean_sbu_1, # of connection points: 6
#     Node 1, Type 0, BuildingBlock: VOLQOD_clean_sbu_1, # of connection points: 6
#     Node 2, Type 1, BuildingBlock: BELTOD_clean_linker_0, # of connection points: 3
#     Node 3, Type 1, BuildingBlock: BELTOD_clean_linker_0, # of connection points: 3
#     Node 4, Type 1, BuildingBlock: BELTOD_clean_linker_0, # of connection points: 3
#     Node 5, Type 1, BuildingBlock: BELTOD_clean_linker_0, # of connection points: 3
#     Edge 6, Type (0, 1), BuildingBlock: CIFDUS_clean_linker_0, # of connection points: 2
#     Edge 7, Type (0, 1), BuildingBlock: CIFDUS_clean_linker_0, # of connection points: 2
#     Edge 8, Type (0, 1), BuildingBlock: CIFDUS_clean_linker_0, # of connection points: 2
#     Edge 9, Type (0, 1), BuildingBlock: CIFDUS_clean_linker_0, # of connection points: 2
#     Edge 10, Type (0, 1), BuildingBlock: CIFDUS_clean_linker_0, # of connection points: 2
#     Edge 11, Type (0, 1), BuildingBlock: CIFDUS_clean_linker_0, # of connection points: 2
#     Edge 12, Type (0, 1), BuildingBlock: CIFDUS_clean_linker_0, # of connection points: 2
#     Edge 13, Type (0, 1), BuildingBlock: CIFDUS_clean_linker_0, # of connection points: 2
#     Edge 14, Type (0, 1), BuildingBlock: CIFDUS_clean_linker_0, # of connection points: 2
#     Edge 15, Type (0, 1), BuildingBlock: CIFDUS_clean_linker_0, # of connection points: 2
#     Edge 16, Type (0, 1), BuildingBlock: CIFDUS_clean_linker_0, # of connection points: 2
#     Edge 17, Type (0, 1), BuildingBlock: CIFDUS_clean_linker_0, # of connection points: 2
# Relax obj value: 0.067
# Max RMSD: 0.102
# Mean RMSD: 0.074
data_MOF--net-tsx--node1-VOLQOD_clean_sbu_1--node2-BELTOD_clean_linker_0--edge1-CIFDUS_clean_linker_0
_symmetry_space_group_name_H-M    P1
_symmetry_Int_Tables_number       1
_symmetry_cell_setting            triclinic
loop_
_symmetry_equiv_pos_as_xyz
'x, y, z'
_cell_length_a     20.757052
_cell_length_b     21.504324
_cell_length_c     40.164992
_cell_angle_alpha  90.850443
_cell_angle_beta   90.050008
_cell_angle_gamma 90.179909
loop_
_atom_site_label
_atom_site_type_symbol
_atom_site_fract_x
_atom_site_fract_y
_atom_site_fract_z
_atom_type_partial_charge
O0 O 0.01293 0.98674 0.08641 0.0
Zn1 Zn 0.04046 0.98491 0.03868 0.0
O2 O 0.97256 0.01303 0.00932 0.0
Zn3 Zn 0.95179 0.94736 0.97736 0.0
Zn4 Zn 0.89639 0.03241 0.03606 0.0
Zn5 Zn 0.00208 0.08561 0.98511 0.0
O6 O 0.95346 0.97761 0.93012 0.0
O7 O 0.00614 0.06726 0.93549 0.0
O8 O 0.07368 0.90079 0.02529 0.0
O9 O 0.01821 0.87995 0.97924 0.0
O10 O 0.86741 0.90712 0.98847 0.0
O11 O 0.82926 0.96447 0.03039 0.0
O12 O 0.85966 0.11555 0.02282 0.0
O13 O 0.11597 0.04265 0.03689 0.0
O14 O 0.93874 0.15485 0.99202 0.0
O15 O 0.08997 0.1152 1.00066 0.0
C16 C 0.96584 0.01248 0.10143 0.0
C17 C 0.98149 0.0243 0.91728 0.0
C18 C 0.82464 0.91786 0.01052 0.0
C19 C 0.06201 0.86616 1.00002 0.0
C20 C 0.88412 0.15994 0.00627 0.0
C21 C 0.12944 0.09215 0.02138 0.0
O22 O 0.91913 0.03598 0.08528 0.0
O23 O 0.53719 0.47129 0.58466 0.0
Zn24 Zn 0.56281 0.46893 0.53687 0.0
O25 O 0.49161 0.48903 0.50771 0.0
Zn26 Zn 0.47656 0.4182 0.47735 0.0
Zn27 Zn 0.41565 0.50656 0.53542 0.0
Zn28 Zn 0.51352 0.56207 0.48179 0.0
O29 O 0.48067 0.44384 0.42903 0.0
O30 O 0.51939 0.54008 0.43283 0.0
O31 O 0.60014 0.38568 0.52674 0.0
O32 O 0.54546 0.35215 0.48255 0.0
O33 O 0.39132 0.37796 0.48809 0.0
O34 O 0.35084 0.43741 0.52873 0.0
O35 O 0.37457 0.58855 0.52315 0.0
O36 O 0.63422 0.53051 0.53212 0.0
O37 O 0.44451 0.6267 0.48688 0.0
O38 O 0.59854 0.60007 0.49628 0.0
C39 C 0.48781 0.49048 0.60038 0.0
C40 C 0.50239 0.4928 0.41539 0.0
C41 C 0.34726 0.39 0.50934 0.0
C42 C 0.59001 0.34514 0.50399 0.0
C43 C 0.39251 0.63138 0.50356 0.0
C44 C 0.64181 0.58043 0.51598 0.0
O45 O 0.43794 0.5092 0.58494 0.0
P46 P 0.08191 0.0946 0.40626 0.0
H47 H 0.03518 0.17373 0.46039 0.0
H48 H 0.92684 0.19986 0.4791 0.0
H49 H 0.84805 0.05958 0.41227 0.0
H50 H 0.957 0.03455 0.39321 0.0
H51 H 0.21866 0.08839 0.42137 0.0
H52 H 0.28669 0.00595 0.44262 0.0
H53 H 0.11852 0.88961 0.45557 0.0
H54 H 0.05037 0.97371 0.43528 0.0
H55 H 0.03378 0.16579 0.35072 0.0
H56 H 0.10527 0.98034 0.36632 0.0
O57 O 0.12013 0.16291 0.40887 0.0
H58 H 0.01666 0.14086 0.29173 0.0
H59 H 0.08723 0.95479 0.30771 0.0
C60 C 0.00377 0.10353 0.42482 0.0
C61 C 0.99466 0.14795 0.45016 0.0
C62 C 0.93258 0.16244 0.46102 0.0
C63 C 0.87859 0.13228 0.44687 0.0
C64 C 0.88851 0.08442 0.42319 0.0
C65 C 0.95075 0.06999 0.41235 0.0
C66 C 0.12951 0.03727 0.42702 0.0
C67 C 0.19623 0.04565 0.42943 0.0
C68 C 0.23518 -0.00187 0.44129 0.0
C69 C 0.20824 0.94075 0.45043 0.0
C70 C 0.14085 0.93339 0.44914 0.0
C71 C 0.1018 0.98133 0.43745 0.0
C72 C 0.07175 0.07538 0.36279 0.0
C73 C 0.04595 0.11978 0.34141 0.0
C74 C 0.03556 0.10525 0.3078 0.0
C75 C 0.05064 0.04583 0.29501 0.0
C76 C 0.07594 0.00123 0.31668 0.0
C77 C 0.08621 0.01582 0.35029 0.0
P78 P 0.09032 0.91541 0.61471 0.0
H79 H 0.08554 0.81596 0.56457 0.0
H80 H 0.99591 0.76401 0.53581 0.0
H81 H 0.86203 0.88839 0.58495 0.0
H82 H 0.95194 0.94027 0.61354 0.0
H83 H 0.21483 0.94339 0.58476 0.0
H84 H 0.2541 0.03042 0.55243 0.0
H85 H 0.06754 0.11812 0.56007 0.0
H86 H 0.02832 0.03023 0.59279 0.0
H87 H 0.04518 0.83671 0.66734 0.0
H88 H 0.07759 0.03294 0.65416 0.0
O89 O 0.14932 0.86319 0.61767 0.0
H90 H 0.01047 0.85645 0.7244 0.0
H91 H 0.04013 0.05364 0.71094 0.0
C92 C 0.02496 0.88064 0.59183 0.0
C93 C 0.0369 0.8321 0.56908 0.0
C94 C 0.98576 0.8026 0.55262 0.0
C95 C 0.92202 0.82183 0.5584 0.0
C96 C 0.91066 0.8728 0.57989 0.0
C97 C 0.96187 0.90205 0.59647 0.0
C98 C 0.11899 0.9809 0.59165 0.0
C99 C 0.18225 0.98125 0.5796 0.0
C100 C 0.20446 0.03079 0.56073 0.0
C101 C 0.1638 0.08103 0.55358 0.0
C102 C 0.10004 0.08022 0.56538 0.0
C103 C 0.07768 0.03021 0.5841 0.0
C104 C 0.06385 0.93321 0.65648 0.0
C105 C 0.04423 0.88422 0.67669 0.0
C106 C 0.02376 0.89572 0.70927 0.0
C107 C 0.02188 0.95678 0.72234 0.0
C108 C 0.04144 0.006 0.70186 0.0
C109 C 0.06244 0.99427 0.6692 0.0
P110 P 0.54921 0.59828 0.90543 0.0
H111 H 0.53054 0.69453 0.95643 0.0
H112 H 0.43521 0.73143 0.98598 0.0
H113 H 0.32087 0.58861 0.93687 0.0
H114 H 0.41636 0.55376 0.90636 0.0
H115 H 0.67124 0.53721 0.89387 0.0
H116 H 0.72358 0.44833 0.91914 0.0
H117 H 0.55904 0.42393 0.98376 0.0
H118 H 0.50668 0.51204 0.95786 0.0
H119 H 0.51281 0.68041 0.85197 0.0
H120 H 0.53169 0.48285 0.86584 0.0
O121 O 0.60337 0.65581 0.90567 0.0
H122 H 0.48295 0.6621 0.7937 0.0
H123 H 0.50147 0.46409 0.80766 0.0
C124 C 0.47979 0.62279 0.92856 0.0
C125 C 0.48488 0.67135 0.95198 0.0
C126 C 0.43043 0.69176 0.96923 0.0
C127 C 0.37019 0.6632 0.96366 0.0
C128 C 0.36621 0.6124 0.94126 0.0
C129 C 0.42064 0.59246 0.92379 0.0
C130 C 0.58561 0.53173 0.92421 0.0
C131 C 0.64663 0.51277 0.91356 0.0
C132 C 0.67665 0.46222 0.92829 0.0
C133 C 0.64624 0.42972 0.95414 0.0
C134 C 0.58407 0.44793 0.96409 0.0
C135 C 0.55407 0.49864 0.94929 0.0
C136 C 0.52586 0.58314 0.86294 0.0
C137 C 0.51044 0.63308 0.84243 0.0
C138 C 0.49279 0.62251 0.80924 0.0
C139 C 0.49015 0.56164 0.79602 0.0
C140 C 0.504 0.51155 0.81699 0.0
C141 C 0.52136 0.52222 0.85025 0.0
P142 P 0.59775 0.42045 0.10732 0.0
H143 H 0.58444 0.29027 0.08594 0.0
H144 H 0.49697 0.23265 0.0588 0.0
H145 H 0.3857 0.4019 0.05355 0.0
H146 H 0.47447 0.45945 0.07966 0.0
H147 H 0.60798 0.45178 0.0376 0.0
H148 H 0.63608 0.5472 0.00879 0.0
H149 H 0.65559 0.64258 0.10385 0.0
H150 H 0.62332 0.54828 0.13209 0.0
H151 H 0.47493 0.40634 0.14395 0.0
H152 H 0.67236 0.45446 0.16645 0.0
O153 O 0.66569 0.3793 0.10539 0.0
H154 H 0.44792 0.41433 0.2029 0.0
H155 H 0.64519 0.46307 0.2257 0.0
C156 C 0.53581 0.37903 0.08474 0.0
C157 C 0.5416 0.31509 0.07851 0.0
C158 C 0.49136 0.28216 0.06316 0.0
C159 C 0.43405 0.31255 0.05422 0.0
C160 C 0.42937 0.37715 0.05969 0.0
C161 C 0.47989 0.41007 0.07481 0.0
C162 C 0.61258 0.49305 0.08691 0.0
C163 C 0.61661 0.49378 0.05211 0.0
C164 C 0.63341 0.54826 0.0357 0.0
C165 C 0.64831 0.60285 0.05389 0.0
C166 C 0.64321 0.60202 0.08887 0.0
C167 C 0.62537 0.54765 0.1052 0.0
C168 C 0.5759 0.42971 0.15065 0.0
C169 C 0.51255 0.41897 0.16141 0.0
C170 C 0.49707 0.4233 0.19524 0.0
C171 C 0.54444 0.4392 0.21893 0.0
C172 C 0.60754 0.45122 0.208 0.0
C173 C 0.62315 0.4461 0.17419 0.0
H174 H 0.17627 0.19948 0.99454 0.0
H175 H 0.22221 0.0564 0.06509 0.0
H176 H 0.32124 0.11051 0.08009 0.0
H177 H 0.39191 0.20067 0.07568 0.0
H178 H 0.34866 0.34383 0.00497 0.0
H179 H 0.25119 0.28765 0.98783 0.0
C180 C 0.2081 0.17994 0.01305 0.0
C181 C 0.19134 0.12407 0.02876 0.0
C182 C 0.2653 0.21145 0.02174 0.0
C183 C 0.23346 0.0994 0.05262 0.0
C184 C 0.29026 0.13033 0.06129 0.0
C185 C 0.362 0.2191 0.05602 0.0
C186 C 0.37768 0.27641 0.04166 0.0
C187 C 0.3063 0.18663 0.04629 0.0
C188 C 0.33736 0.30014 0.01674 0.0
C189 C 0.28173 0.26794 0.00684 0.0
H190 H 0.16143 0.82399 0.03765 0.0
H191 H 0.06095 0.79035 0.94482 0.0
H192 H 0.14479 0.71823 0.92706 0.0
H193 H 0.25335 0.67725 0.93439 0.0
H194 H 0.35459 0.71045 0.02695 0.0
H195 H 0.26358 0.77077 0.04816 0.0
C196 C 0.15722 0.80011 0.01376 0.0
C197 C 0.10557 0.81358 0.99236 0.0
C198 C 0.20618 0.75946 0.0034 0.0
C199 C 0.10049 0.78148 0.96169 0.0
C200 C 0.14859 0.74036 0.95141 0.0
C201 C 0.25496 0.69605 0.95958 0.0
C202 C 0.31118 0.69013 0.97883 0.0
C203 C 0.20271 0.73081 0.97155 0.0
C204 C 0.31247 0.71553 0.0113 0.0
C205 C 0.26037 0.74982 0.02351 0.0
H206 H 0.81447 0.80391 0.98094 0.0
H207 H 0.72227 0.92374 0.05365 0.0
H208 H 0.65312 0.83772 0.07065 0.0
H209 H 0.62833 0.7258 0.06945 0.0
H210 H 0.72879 0.6054 0.99992 0.0
H211 H 0.78355 0.69464 0.9766 0.0
C212 C 0.77849 0.81176 1.0001 0.0
C213 C 0.77428 0.87014 0.01627 0.0
C214 C 0.74044 0.76171 0.01052 0.0
C215 C 0.72704 0.87921 0.04094 0.0
C216 C 0.68762 0.82993 0.05079 0.0
C217 C 0.66215 0.71899 0.04918 0.0
C218 C 0.67471 0.65853 0.03687 0.0
C219 C 0.69559 0.77044 0.03658 0.0
C220 C 0.7174 0.65111 0.00988 0.0
C221 C 0.74941 0.70221 0.99665 0.0
H222 H 0.75394 0.17542 0.00732 0.0
H223 H 0.93317 0.27484 0.99524 0.0
H224 H 0.87443 0.36922 0.98182 0.0
H225 H 0.77336 0.42093 0.96911 0.0
H226 H 0.59394 0.31977 0.97586 0.0
H227 H 0.65128 0.22954 0.99696 0.0
C228 C 0.77997 0.21804 1.00222 0.0
C229 C 0.84774 0.21812 1.002 0.0
C230 C 0.74589 0.2718 0.99353 0.0
C231 C 0.88099 0.2735 0.9952 0.0
C232 C 0.84748 0.32748 0.98755 0.0
C233 C 0.74668 0.37902 0.9749 0.0
C234 C 0.67958 0.37688 0.97016 0.0
C235 C 0.78009 0.32665 0.98577 0.0
C236 C 0.64563 0.32292 0.97916 0.0
C237 C 0.67846 0.27102 0.99101 0.0
H238 H 0.66134 0.70419 0.50584 0.0
H239 H 0.75642 0.53751 0.53851 0.0
H240 H 0.85315 0.5972 0.55195 0.0
H241 H 0.90799 0.69718 0.55825 0.0
H242 H 0.81286 0.86532 0.52831 0.0
H243 H 0.71875 0.80472 0.51003 0.0
C244 C 0.70355 0.68093 0.51552 0.0
C245 C 0.70162 0.61661 0.52131 0.0
C246 C 0.75875 0.71581 0.52391 0.0
C247 C 0.75647 0.58709 0.53409 0.0
C248 C 0.81186 0.62114 0.54177 0.0
C249 C 0.86715 0.72045 0.54713 0.0
C250 C 0.86733 0.78547 0.54449 0.0
C251 C 0.81313 0.68558 0.53731 0.0
C252 C 0.81355 0.81522 0.53071 0.0
C253 C 0.75988 0.78063 0.52025 0.0
H254 H 0.61464 0.2739 0.44886 0.0
H255 H 0.66908 0.29977 0.5519 0.0
H256 H 0.75868 0.22795 0.54435 0.0
H257 H 0.82968 0.16914 0.50687 0.0
H258 H 0.77988 0.14946 0.4029 0.0
H259 H 0.6797 0.20568 0.41265 0.0
C260 C 0.64524 0.26273 0.46983 0.0
C261 C 0.63573 0.29281 0.50075 0.0
C262 C 0.69791 0.22268 0.4651 0.0
C263 C 0.67587 0.27787 0.52769 0.0
C264 C 0.72722 0.23686 0.52341 0.0
C265 C 0.7966 0.17666 0.48641 0.0
C266 C 0.81278 0.15579 0.45417 0.0
C267 C 0.74011 0.2109 0.49194 0.0
C268 C 0.76865 0.16465 0.42805 0.0
C269 C 0.71152 0.19741 0.43352 0.0
H270 H 0.33338 0.27645 0.47925 0.0
H271 H 0.24497 0.39866 0.55214 0.0
H272 H 0.17343 0.31485 0.5692 0.0
H273 H 0.14751 0.20334 0.56917 0.0
H274 H 0.23971 0.08038 0.49827 0.0
H275 H 0.29771 0.16805 0.47445 0.0
C276 C 0.29767 0.28526 0.49843 0.0
C277 C 0.2955 0.34357 0.51477 0.0
C278 C 0.25777 0.23641 0.50876 0.0
C279 C 0.24839 0.35408 0.53938 0.0
C280 C 0.20751 0.30607 0.54926 0.0
C281 C 0.17904 0.19602 0.54796 0.0
C282 C 0.18983 0.1354 0.53566 0.0
C283 C 0.2135 0.24647 0.53501 0.0
C284 C 0.23124 0.12656 0.50835 0.0
C285 C 0.26447 0.17665 0.49479 0.0
H286 H 0.41219 0.72554 0.46064 0.0
H287 H 0.28123 0.66328 0.53675 0.0
H288 H 0.21366 0.75472 0.52806 0.0
H289 H 0.19091 0.85159 0.49785 0.0
H290 H 0.32108 0.90917 0.42019 0.0
H291 H 0.39022 0.82088 0.43104 0.0
C292 C 0.36903 0.73182 0.4755 0.0
C293 C 0.3519 0.68737 0.49927 0.0
C294 C 0.33028 0.78397 0.47021 0.0
C295 C 0.2956 0.6966 0.51819 0.0
C296 C 0.2569 0.74891 0.51325 0.0
C297 C 0.23427 0.84465 0.48323 0.0
C298 C 0.25084 0.88748 0.45841 0.0
C299 C 0.27355 0.79272 0.48912 0.0
C300 C 0.30764 0.87797 0.43994 0.0
C301 C 0.34705 0.82704 0.44589 0.0
H302 H 0.05993 0.97158 0.14264 0.0
H303 H 0.87766 0.06792 0.14318 0.0
H304 H 0.88684 0.08501 0.20331 0.0
H305 H 0.94884 0.07607 0.25538 0.0
H306 H 0.13234 0.98214 0.25383 0.0
H307 H 0.11996 0.96014 0.19444 0.0
C308 C 0.02184 0.99599 0.15583 0.0
C309 C 0.96829 0.01865 0.13826 0.0
C310 C 0.02771 0.00622 0.19026 0.0
C311 C 0.91949 0.05002 0.15597 0.0
C312 C 0.92477 0.05997 0.19037 0.0
C313 C 0.98622 0.05102 0.242 0.0
C314 C 0.0415 0.0309 0.25906 0.0
C315 C 0.97911 0.039 0.20769 0.0
C316 C 0.08899 -0.00243 0.24145 0.0
C317 C 0.08214 0.98527 0.20742 0.0
H318 H 0.91949 0.95379 0.87034 0.0
H319 H 0.0632 0.0981 0.88172 0.0
H320 H 0.08605 0.09239 0.82213 0.0
H321 H 0.07135 0.04052 0.76764 0.0
H322 H 0.92486 0.89874 0.75617 0.0
H323 H 0.89768 0.90906 0.81497 0.0
C324 C 0.95545 0.98441 0.85978 0.0
C325 C 0.98996 0.02586 0.88062 0.0
C326 C 0.96848 0.98086 0.82549 0.0
C327 C 0.03588 0.06566 0.86635 0.0
C328 C 0.04923 0.06225 0.83225 0.0
C329 C 0.03263 0.01268 0.77778 0.0
C330 C 0.00104 0.96817 0.75743 0.0
C331 C 0.01664 0.01923 0.81168 0.0
C332 C 0.95127 0.93225 0.77129 0.0
C333 C 0.93531 0.93837 0.80494 0.0
H334 H 0.41251 0.55801 0.64353 0.0
H335 H 0.5699 0.42722 0.64012 0.0
H336 H 0.58176 0.43513 0.7003 0.0
H337 H 0.55242 0.48359 0.7535 0.0
H338 H 0.39728 0.61637 0.75778 0.0
H339 H 0.37986 0.60355 0.69778 0.0
C340 C 0.44888 0.53076 0.65603 0.0
C341 C 0.4904 0.49234 0.63725 0.0
C342 C 0.45629 0.53625 0.6908 0.0
C343 C 0.53758 0.45759 0.65386 0.0
C344 C 0.54446 0.462 0.68833 0.0
C345 C 0.51406 0.50895 0.74143 0.0
C346 C 0.47624 0.55082 0.76009 0.0
C347 C 0.50478 0.50182 0.70698 0.0
C348 C 0.42751 0.58424 0.74391 0.0
C349 C 0.41739 0.57679 0.70963 0.0
H350 H 0.4634 0.40574 0.36932 0.0
H351 H 0.56199 0.58231 0.37874 0.0
H352 H 0.58301 0.58159 0.31904 0.0
H353 H 0.57629 0.52961 0.26417 0.0
H354 H 0.47664 0.35402 0.25449 0.0
H355 H 0.45292 0.35582 0.31411 0.0
C356 C 0.48924 0.44424 0.35834 0.0
C357 C 0.51128 0.49382 0.37869 0.0
C358 C 0.50115 0.4437 0.32387 0.0
C359 C 0.54438 0.54345 0.36383 0.0
C360 C 0.55664 0.54307 0.32963 0.0
C361 C 0.54951 0.49172 0.27518 0.0
C362 C 0.52847 0.44167 0.25498 0.0
C363 C 0.53582 0.49319 0.30946 0.0
C364 C 0.49297 0.39331 0.26947 0.0
C365 C 0.47964 0.39417 0.30358 0.0
loop_
_geom_bond_atom_site_label_1
_geom_bond_atom_site_label_2
_geom_bond_distance
_geom_bond_site_symmetry_2
_ccdc_geom_bond_type
O0 Zn1 1.953 . S
O0 C16 1.225 1_565 S
Zn1 O0 1.953 . S
Zn1 O2 1.949 1_565 S
Zn1 O8 1.919 . S
Zn1 O13 1.924 1_565 S
O2 Zn1 1.949 1_545 S
O2 Zn3 1.923 1_444 S
O2 Zn4 1.950 1_455 S
O2 Zn5 1.945 1_554 S
Zn3 O2 1.923 1_666 S
Zn3 O6 1.933 . S
Zn3 O9 1.941 1_655 S
Zn3 O10 1.965 . S
Zn4 O2 1.950 1_655 S
Zn4 O11 1.938 1_545 S
Zn4 O12 1.906 . S
Zn4 O22 1.953 . S
Zn5 O2 1.945 1_556 S
Zn5 O7 1.932 . S
Zn5 O14 1.977 1_455 S
Zn5 O15 1.910 . S
O6 Zn3 1.933 . S
O6 C17 1.226 1_665 S
O7 Zn5 1.932 . S
O7 C17 1.307 . S
O8 Zn1 1.919 . S
O8 C19 1.253 1_554 S
O9 Zn3 1.941 1_455 S
O9 C19 1.283 . S
O10 Zn3 1.965 . S
O10 C18 1.303 1_556 S
O11 Zn4 1.938 1_565 S
O11 C18 1.247 . S
O12 Zn4 1.906 . S
O12 C20 1.304 1_554 S
O13 Zn1 1.924 1_545 S
O13 C21 1.311 . S
O14 Zn5 1.977 1_655 S
O14 C20 1.272 . S
O15 Zn5 1.910 . S
O15 C21 1.231 1_556 S
C16 O0 1.225 1_545 S
C16 O22 1.298 1_455 S
C17 O6 1.226 1_445 S
C17 O7 1.307 . S
C18 O10 1.303 1_554 S
C18 O11 1.247 . S
C19 O8 1.253 1_556 S
C19 O9 1.283 . S
C20 O12 1.304 1_556 S
C20 O14 1.272 . S
C21 O13 1.311 . S
C21 O15 1.231 1_554 S
O22 Zn4 1.953 . S
O22 C16 1.298 1_655 S
O23 Zn24 1.953 . S
O23 C39 1.225 . S
Zn24 O23 1.953 . S
Zn24 O25 1.949 . S
Zn24 O31 1.919 . S
Zn24 O36 1.924 . S
O25 Zn24 1.949 . S
O25 Zn26 1.923 . S
O25 Zn27 1.950 . S
O25 Zn28 1.945 . S
Zn26 O25 1.923 . S
Zn26 O29 1.933 . S
Zn26 O32 1.941 . S
Zn26 O33 1.965 . S
Zn27 O25 1.950 . S
Zn27 O34 1.938 . S
Zn27 O35 1.906 . S
Zn27 O45 1.953 . S
Zn28 O25 1.945 . S
Zn28 O30 1.932 . S
Zn28 O37 1.977 . S
Zn28 O38 1.910 . S
O29 Zn26 1.933 . S
O29 C40 1.226 . S
O30 Zn28 1.932 . S
O30 C40 1.307 . S
O31 Zn24 1.919 . S
O31 C42 1.253 . S
O32 Zn26 1.941 . S
O32 C42 1.283 . S
O33 Zn26 1.965 . S
O33 C41 1.303 . S
O34 Zn27 1.938 . S
O34 C41 1.247 . S
O35 Zn27 1.906 . S
O35 C43 1.304 . S
O36 Zn24 1.924 . S
O36 C44 1.311 . S
O37 Zn28 1.977 . S
O37 C43 1.272 . S
O38 Zn28 1.910 . S
O38 C44 1.231 . S
C39 O23 1.225 . S
C39 O45 1.298 . S
C40 O29 1.226 . S
C40 O30 1.307 . S
C41 O33 1.303 . S
C41 O34 1.247 . S
C42 O31 1.253 . S
C42 O32 1.283 . S
C43 O35 1.304 . S
C43 O37 1.272 . S
C44 O36 1.311 . S
C44 O38 1.231 . S
O45 Zn27 1.953 . S
O45 C39 1.298 . S
P46 O57 1.490 . S
P46 C60 1.812 1_455 S
P46 C66 1.803 1_545 S
P46 C72 1.819 . S
H47 C61 0.941 1_455 S
H48 C62 0.939 . S
H49 C64 0.940 . S
H50 C65 0.940 . S
H51 C67 0.939 1_545 S
H52 C68 0.942 . S
H53 C70 0.940 . S
H54 C71 0.939 . S
H55 C73 0.941 . S
H56 C77 0.939 . S
O57 P46 1.490 . S
H58 C74 0.939 . S
H59 C76 0.940 . S
C60 P46 1.812 1_655 S
C60 C61 1.389 . S
C60 C65 1.391 . S
C61 H47 0.941 1_655 S
C61 C60 1.389 . S
C61 C62 1.397 . S
C62 H48 0.939 . S
C62 C61 1.397 . S
C62 C63 1.378 . S
C63 C62 1.378 . S
C63 C64 1.378 . S
C64 H49 0.940 . S
C64 C63 1.378 . S
C64 C65 1.396 . S
C65 H50 0.940 . S
C65 C60 1.391 . S
C65 C64 1.396 . S
C66 P46 1.803 1_565 S
C66 C67 1.378 . S
C66 C71 1.400 . S
C67 H51 0.939 1_565 S
C67 C66 1.378 . S
C67 C68 1.361 . S
C68 H52 0.942 . S
C68 C67 1.361 . S
C68 C69 1.369 . S
C69 C68 1.369 . S
C69 C70 1.404 . S
C70 H53 0.940 . S
C70 C69 1.404 . S
C70 C71 1.389 . S
C71 H54 0.939 . S
C71 C66 1.400 . S
C71 C70 1.389 . S
C72 P46 1.819 . S
C72 C73 1.391 . S
C72 C77 1.391 1_545 S
C73 H55 0.941 . S
C73 C72 1.391 . S
C73 C74 1.396 . S
C74 H58 0.939 . S
C74 C73 1.396 . S
C74 C75 1.397 . S
C75 C74 1.397 . S
C75 C76 1.385 1_545 S
C76 H59 0.940 . S
C76 C75 1.385 1_565 S
C76 C77 1.388 . S
C77 H56 0.939 . S
C77 C72 1.391 1_565 S
C77 C76 1.388 . S
P78 O89 1.490 . S
P78 C92 1.812 . S
P78 C98 1.803 1_565 S
P78 C104 1.819 . S
H79 C93 0.941 . S
H80 C94 0.939 . S
H81 C96 0.940 . S
H82 C97 0.940 . S
H83 C99 0.939 . S
H84 C100 0.942 . S
H85 C102 0.940 . S
H86 C103 0.939 . S
H87 C105 0.941 . S
H88 C109 0.939 . S
O89 P78 1.490 . S
H90 C106 0.939 . S
H91 C108 0.940 . S
C92 P78 1.812 . S
C92 C93 1.389 . S
C92 C97 1.391 1_455 S
C93 H79 0.941 . S
C93 C92 1.389 . S
C93 C94 1.397 1_455 S
C94 H80 0.939 . S
C94 C93 1.397 1_655 S
C94 C95 1.378 . S
C95 C94 1.378 . S
C95 C96 1.378 . S
C96 H81 0.940 . S
C96 C95 1.378 . S
C96 C97 1.396 . S
C97 H82 0.940 . S
C97 C92 1.391 1_655 S
C97 C96 1.396 . S
C98 P78 1.803 1_545 S
C98 C99 1.378 . S
C98 C103 1.400 . S
C99 H83 0.939 . S
C99 C98 1.378 . S
C99 C100 1.361 . S
C100 H84 0.942 . S
C100 C99 1.361 . S
C100 C101 1.369 . S
C101 C100 1.369 . S
C101 C102 1.404 . S
C102 H85 0.940 . S
C102 C101 1.404 . S
C102 C103 1.389 . S
C103 H86 0.939 . S
C103 C98 1.400 . S
C103 C102 1.389 . S
C104 P78 1.819 . S
C104 C105 1.391 . S
C104 C109 1.391 1_565 S
C105 H87 0.941 . S
C105 C104 1.391 . S
C105 C106 1.396 . S
C106 H90 0.939 . S
C106 C105 1.396 . S
C106 C107 1.397 . S
C107 C106 1.397 . S
C107 C108 1.385 1_565 S
C108 H91 0.940 . S
C108 C107 1.385 1_545 S
C108 C109 1.388 . S
C109 H88 0.939 . S
C109 C104 1.391 1_545 S
C109 C108 1.388 . S
P110 O121 1.490 . S
P110 C124 1.812 . S
P110 C130 1.803 . S
P110 C136 1.819 . S
H111 C125 0.941 . S
H112 C126 0.939 . S
H113 C128 0.940 . S
H114 C129 0.940 . S
H115 C131 0.939 . S
H116 C132 0.942 . S
H117 C134 0.940 . S
H118 C135 0.939 . S
H119 C137 0.941 . S
H120 C141 0.939 . S
O121 P110 1.490 . S
H122 C138 0.939 . S
H123 C140 0.940 . S
C124 P110 1.812 . S
C124 C125 1.389 . S
C124 C129 1.391 . S
C125 H111 0.941 . S
C125 C124 1.389 . S
C125 C126 1.397 . S
C126 H112 0.939 . S
C126 C125 1.397 . S
C126 C127 1.378 . S
C127 C126 1.378 . S
C127 C128 1.378 . S
C128 H113 0.940 . S
C128 C127 1.378 . S
C128 C129 1.396 . S
C129 H114 0.940 . S
C129 C124 1.391 . S
C129 C128 1.396 . S
C130 P110 1.803 . S
C130 C131 1.378 . S
C130 C135 1.400 . S
C131 H115 0.939 . S
C131 C130 1.378 . S
C131 C132 1.361 . S
C132 H116 0.942 . S
C132 C131 1.361 . S
C132 C133 1.369 . S
C133 C132 1.369 . S
C133 C134 1.404 . S
C134 H117 0.940 . S
C134 C133 1.404 . S
C134 C135 1.389 . S
C135 H118 0.939 . S
C135 C130 1.400 . S
C135 C134 1.389 . S
C136 P110 1.819 . S
C136 C137 1.391 . S
C136 C141 1.391 . S
C137 H119 0.941 . S
C137 C136 1.391 . S
C137 C138 1.396 . S
C138 H122 0.939 . S
C138 C137 1.396 . S
C138 C139 1.397 . S
C139 C138 1.397 . S
C139 C140 1.385 . S
C140 H123 0.940 . S
C140 C139 1.385 . S
C140 C141 1.388 . S
C141 H120 0.939 . S
C141 C136 1.391 . S
C141 C140 1.388 . S
P142 O153 1.490 . S
P142 C156 1.812 . S
P142 C162 1.803 . S
P142 C168 1.819 . S
H143 C157 0.941 . S
H144 C158 0.939 . S
H145 C160 0.940 . S
H146 C161 0.940 . S
H147 C163 0.939 . S
H148 C164 0.942 . S
H149 C166 0.940 . S
H150 C167 0.939 . S
H151 C169 0.941 . S
H152 C173 0.939 . S
O153 P142 1.490 . S
H154 C170 0.939 . S
H155 C172 0.940 . S
C156 P142 1.812 . S
C156 C157 1.389 . S
C156 C161 1.391 . S
C157 H143 0.941 . S
C157 C156 1.389 . S
C157 C158 1.397 . S
C158 H144 0.939 . S
C158 C157 1.397 . S
C158 C159 1.378 . S
C159 C158 1.378 . S
C159 C160 1.378 . S
C160 H145 0.940 . S
C160 C159 1.378 . S
C160 C161 1.396 . S
C161 H146 0.940 . S
C161 C156 1.391 . S
C161 C160 1.396 . S
C162 P142 1.803 . S
C162 C163 1.378 . S
C162 C167 1.400 . S
C163 H147 0.939 . S
C163 C162 1.378 . S
C163 C164 1.361 . S
C164 H148 0.942 . S
C164 C163 1.361 . S
C164 C165 1.369 . S
C165 C164 1.369 . S
C165 C166 1.404 . S
C166 H149 0.940 . S
C166 C165 1.404 . S
C166 C167 1.389 . S
C167 H150 0.939 . S
C167 C162 1.400 . S
C167 C166 1.389 . S
C168 P142 1.819 . S
C168 C169 1.391 . S
C168 C173 1.391 . S
C169 H151 0.941 . S
C169 C168 1.391 . S
C169 C170 1.396 . S
C170 H154 0.939 . S
C170 C169 1.396 . S
C170 C171 1.397 . S
C171 C170 1.397 . S
C171 C172 1.385 . S
C172 H155 0.940 . S
C172 C171 1.385 . S
C172 C173 1.388 . S
C173 H152 0.939 . S
C173 C168 1.391 . S
C173 C172 1.388 . S
H174 C180 0.930 . S
H175 C183 0.930 . S
H176 C184 0.930 . S
H177 C185 0.930 . S
H178 C188 0.930 . S
H179 C189 0.930 . S
C180 H174 0.930 . S
C180 C181 1.355 . S
C180 C182 1.415 . S
C181 C180 1.355 . S
C181 C183 1.419 . S
C182 C180 1.415 . S
C182 C187 1.425 . S
C182 C189 1.409 . S
C183 H175 0.930 . S
C183 C181 1.419 . S
C183 C184 1.362 . S
C184 H176 0.930 . S
C184 C183 1.362 . S
C184 C187 1.409 . S
C185 H177 0.930 . S
C185 C186 1.355 . S
C185 C187 1.415 . S
C186 C185 1.355 . S
C186 C188 1.419 . S
C187 C182 1.425 . S
C187 C184 1.409 . S
C187 C185 1.415 . S
C188 H178 0.930 . S
C188 C186 1.419 . S
C188 C189 1.362 . S
C189 H179 0.930 . S
C189 C182 1.409 . S
C189 C188 1.362 . S
H190 C196 0.930 1_554 S
H191 C199 0.930 . S
H192 C200 0.930 . S
H193 C201 0.930 . S
H194 C204 0.930 . S
H195 C205 0.930 1_554 S
C196 H190 0.930 1_556 S
C196 C197 1.355 . S
C196 C198 1.415 . S
C197 C196 1.355 . S
C197 C199 1.419 . S
C198 C196 1.415 . S
C198 C203 1.425 . S
C198 C205 1.409 . S
C199 H191 0.930 . S
C199 C197 1.419 . S
C199 C200 1.362 . S
C200 H192 0.930 . S
C200 C199 1.362 . S
C200 C203 1.409 . S
C201 H193 0.930 . S
C201 C202 1.355 . S
C201 C203 1.415 . S
C202 C201 1.355 . S
C202 C204 1.419 . S
C203 C198 1.425 . S
C203 C200 1.409 . S
C203 C201 1.415 . S
C204 H194 0.930 . S
C204 C202 1.419 . S
C204 C205 1.362 . S
C205 H195 0.930 1_556 S
C205 C198 1.409 . S
C205 C204 1.362 . S
H206 C212 0.930 . S
H207 C215 0.930 . S
H208 C216 0.930 . S
H209 C217 0.930 . S
H210 C220 0.930 . S
H211 C221 0.930 . S
C212 H206 0.930 . S
C212 C213 1.355 . S
C212 C214 1.415 . S
C213 C212 1.355 . S
C213 C215 1.419 . S
C214 C212 1.415 . S
C214 C219 1.425 . S
C214 C221 1.409 . S
C215 H207 0.930 . S
C215 C213 1.419 . S
C215 C216 1.362 . S
C216 H208 0.930 . S
C216 C215 1.362 . S
C216 C219 1.409 . S
C217 H209 0.930 . S
C217 C218 1.355 . S
C217 C219 1.415 . S
C218 C217 1.355 . S
C218 C220 1.419 . S
C219 C214 1.425 . S
C219 C216 1.409 . S
C219 C217 1.415 . S
C220 H210 0.930 . S
C220 C218 1.419 . S
C220 C221 1.362 . S
C221 H211 0.930 . S
C221 C214 1.409 . S
C221 C220 1.362 . S
H222 C228 0.930 . S
H223 C231 0.930 . S
H224 C232 0.930 . S
H225 C233 0.930 . S
H226 C236 0.930 . S
H227 C237 0.930 . S
C228 H222 0.930 . S
C228 C229 1.355 . S
C228 C230 1.415 . S
C229 C228 1.355 . S
C229 C231 1.419 . S
C230 C228 1.415 . S
C230 C235 1.425 . S
C230 C237 1.409 . S
C231 H223 0.930 . S
C231 C229 1.419 . S
C231 C232 1.362 . S
C232 H224 0.930 . S
C232 C231 1.362 . S
C232 C235 1.409 . S
C233 H225 0.930 . S
C233 C234 1.355 . S
C233 C235 1.415 . S
C234 C233 1.355 . S
C234 C236 1.419 . S
C235 C230 1.425 . S
C235 C232 1.409 . S
C235 C233 1.415 . S
C236 H226 0.930 . S
C236 C234 1.419 . S
C236 C237 1.362 . S
C237 H227 0.930 . S
C237 C230 1.409 . S
C237 C236 1.362 . S
H238 C244 0.930 . S
H239 C247 0.930 . S
H240 C248 0.930 . S
H241 C249 0.930 . S
H242 C252 0.930 . S
H243 C253 0.930 . S
C244 H238 0.930 . S
C244 C245 1.355 . S
C244 C246 1.415 . S
C245 C244 1.355 . S
C245 C247 1.419 . S
C246 C244 1.415 . S
C246 C251 1.425 . S
C246 C253 1.409 . S
C247 H239 0.930 . S
C247 C245 1.419 . S
C247 C248 1.362 . S
C248 H240 0.930 . S
C248 C247 1.362 . S
C248 C251 1.409 . S
C249 H241 0.930 . S
C249 C250 1.355 . S
C249 C251 1.415 . S
C250 C249 1.355 . S
C250 C252 1.419 . S
C251 C246 1.425 . S
C251 C248 1.409 . S
C251 C249 1.415 . S
C252 H242 0.930 . S
C252 C250 1.419 . S
C252 C253 1.362 . S
C253 H243 0.930 . S
C253 C246 1.409 . S
C253 C252 1.362 . S
H254 C260 0.930 . S
H255 C263 0.930 . S
H256 C264 0.930 . S
H257 C265 0.930 . S
H258 C268 0.930 . S
H259 C269 0.930 . S
C260 H254 0.930 . S
C260 C261 1.355 . S
C260 C262 1.415 . S
C261 C260 1.355 . S
C261 C263 1.419 . S
C262 C260 1.415 . S
C262 C267 1.425 . S
C262 C269 1.409 . S
C263 H255 0.930 . S
C263 C261 1.419 . S
C263 C264 1.362 . S
C264 H256 0.930 . S
C264 C263 1.362 . S
C264 C267 1.409 . S
C265 H257 0.930 . S
C265 C266 1.355 . S
C265 C267 1.415 . S
C266 C265 1.355 . S
C266 C268 1.419 . S
C267 C262 1.425 . S
C267 C264 1.409 . S
C267 C265 1.415 . S
C268 H258 0.930 . S
C268 C266 1.419 . S
C268 C269 1.362 . S
C269 H259 0.930 . S
C269 C262 1.409 . S
C269 C268 1.362 . S
H270 C276 0.930 . S
H271 C279 0.930 . S
H272 C280 0.930 . S
H273 C281 0.930 . S
H274 C284 0.930 . S
H275 C285 0.930 . S
C276 H270 0.930 . S
C276 C277 1.355 . S
C276 C278 1.415 . S
C277 C276 1.355 . S
C277 C279 1.419 . S
C278 C276 1.415 . S
C278 C283 1.425 . S
C278 C285 1.409 . S
C279 H271 0.930 . S
C279 C277 1.419 . S
C279 C280 1.362 . S
C280 H272 0.930 . S
C280 C279 1.362 . S
C280 C283 1.409 . S
C281 H273 0.930 . S
C281 C282 1.355 . S
C281 C283 1.415 . S
C282 C281 1.355 . S
C282 C284 1.419 . S
C283 C278 1.425 . S
C283 C280 1.409 . S
C283 C281 1.415 . S
C284 H274 0.930 . S
C284 C282 1.419 . S
C284 C285 1.362 . S
C285 H275 0.930 . S
C285 C278 1.409 . S
C285 C284 1.362 . S
H286 C292 0.930 . S
H287 C295 0.930 . S
H288 C296 0.930 . S
H289 C297 0.930 . S
H290 C300 0.930 . S
H291 C301 0.930 . S
C292 H286 0.930 . S
C292 C293 1.355 . S
C292 C294 1.415 . S
C293 C292 1.355 . S
C293 C295 1.419 . S
C294 C292 1.415 . S
C294 C299 1.425 . S
C294 C301 1.409 . S
C295 H287 0.930 . S
C295 C293 1.419 . S
C295 C296 1.362 . S
C296 H288 0.930 . S
C296 C295 1.362 . S
C296 C299 1.409 . S
C297 H289 0.930 . S
C297 C298 1.355 . S
C297 C299 1.415 . S
C298 C297 1.355 . S
C298 C300 1.419 . S
C299 C294 1.425 . S
C299 C296 1.409 . S
C299 C297 1.415 . S
C300 H290 0.930 . S
C300 C298 1.419 . S
C300 C301 1.362 . S
C301 H291 0.930 . S
C301 C294 1.409 . S
C301 C300 1.362 . S
H302 C308 0.929 1_565 S
H303 C311 0.930 . S
H304 C312 0.930 . S
H305 C313 0.930 . S
H306 C316 0.930 . S
H307 C317 0.930 . S
C308 H302 0.929 1_545 S
C308 C309 1.355 . S
C308 C310 1.415 . S
C309 C308 1.355 . S
C309 C311 1.419 1_455 S
C310 C308 1.415 . S
C310 C315 1.425 1_455 S
C310 C317 1.409 . S
C311 H303 0.930 . S
C311 C309 1.419 1_655 S
C311 C312 1.362 . S
C312 H304 0.930 . S
C312 C311 1.362 . S
C312 C315 1.409 . S
C313 H305 0.930 . S
C313 C314 1.355 1_655 S
C313 C315 1.415 . S
C314 C313 1.355 1_455 S
C314 C316 1.419 . S
C315 C310 1.425 1_655 S
C315 C312 1.409 . S
C315 C313 1.415 . S
C316 H306 0.930 . S
C316 C314 1.419 . S
C316 C317 1.362 . S
C317 H307 0.930 . S
C317 C310 1.409 . S
C317 C316 1.362 . S
H318 C324 0.930 . S
H319 C327 0.930 . S
H320 C328 0.930 . S
H321 C329 0.930 . S
H322 C332 0.930 . S
H323 C333 0.930 . S
C324 H318 0.930 . S
C324 C325 1.355 1_665 S
C324 C326 1.415 . S
C325 C324 1.355 1_445 S
C325 C327 1.419 . S
C326 C324 1.415 . S
C326 C331 1.425 1_665 S
C326 C333 1.409 . S
C327 H319 0.930 . S
C327 C325 1.419 . S
C327 C328 1.362 . S
C328 H320 0.930 . S
C328 C327 1.362 . S
C328 C331 1.409 . S
C329 H321 0.930 . S
C329 C330 1.355 1_545 S
C329 C331 1.415 . S
C330 C329 1.355 1_565 S
C330 C332 1.419 1_455 S
C331 C326 1.425 1_445 S
C331 C328 1.409 . S
C331 C329 1.415 . S
C332 H322 0.930 . S
C332 C330 1.419 1_655 S
C332 C333 1.362 . S
C333 H323 0.930 . S
C333 C326 1.409 . S
C333 C332 1.362 . S
H334 C340 0.930 . S
H335 C343 0.930 . S
H336 C344 0.930 . S
H337 C345 0.930 . S
H338 C348 0.930 . S
H339 C349 0.930 . S
C340 H334 0.930 . S
C340 C341 1.355 . S
C340 C342 1.415 . S
C341 C340 1.355 . S
C341 C343 1.419 . S
C342 C340 1.415 . S
C342 C347 1.425 . S
C342 C349 1.409 . S
C343 H335 0.930 . S
C343 C341 1.419 . S
C343 C344 1.362 . S
C344 H336 0.930 . S
C344 C343 1.362 . S
C344 C347 1.409 . S
C345 H337 0.930 . S
C345 C346 1.355 . S
C345 C347 1.415 . S
C346 C345 1.355 . S
C346 C348 1.419 . S
C347 C342 1.425 . S
C347 C344 1.409 . S
C347 C345 1.415 . S
C348 H338 0.930 . S
C348 C346 1.419 . S
C348 C349 1.362 . S
C349 H339 0.930 . S
C349 C342 1.409 . S
C349 C348 1.362 . S
H350 C356 0.930 . S
H351 C359 0.930 . S
H352 C360 0.930 . S
H353 C361 0.930 . S
H354 C364 0.930 . S
H355 C365 0.930 . S
C356 H350 0.930 . S
C356 C357 1.355 . S
C356 C358 1.415 . S
C357 C356 1.355 . S
C357 C359 1.419 . S
C358 C356 1.415 . S
C358 C363 1.425 . S
C358 C365 1.409 . S
C359 H351 0.930 . S
C359 C357 1.419 . S
C359 C360 1.362 . S
C360 H352 0.930 . S
C360 C359 1.362 . S
C360 C363 1.409 . S
C361 H353 0.930 . S
C361 C362 1.355 . S
C361 C363 1.415 . S
C362 C361 1.355 . S
C362 C364 1.419 . S
C363 C358 1.425 . S
C363 C360 1.409 . S
C363 C361 1.415 . S
C364 H354 0.930 . S
C364 C362 1.419 . S
C364 C365 1.362 . S
C365 H355 0.930 . S
C365 C358 1.409 . S
C365 C364 1.362 . S
C186 C159 1.452 . S
C181 C21 1.433 . S
C197 C19 1.461 . S
C202 C127 1.455 . S
C213 C18 1.394 . S
C218 C165 1.376 . S
C229 C20 1.427 . S
C234 C133 1.440 . S
C245 C44 1.431 . S
C250 C95 1.444 . S
C261 C42 1.424 . S
C266 C63 1.400 . S
C282 C101 1.392 . S
C277 C41 1.406 . S
C298 C69 1.390 . S
C293 C43 1.427 . S
C309 C16 1.492 . S
C314 C75 1.425 . S
C325 C17 1.464 . S
C330 C107 1.444 . S
C346 C139 1.457 . S
C341 C39 1.489 . S
C357 C40 1.460 . S
C362 C171 1.412 . S
