# Generated by pormake.
# Topology tsx, (6,3)-cn, num edge types: 1
# Building blocks:
#     Node 0, Type 0, BuildingBlock: CIFDUS_clean_sbu_1, # of connection points: 6
#     Node 1, Type 0, BuildingBlock: CIFDUS_clean_sbu_1, # of connection points: 6
#     Node 2, Type 1, BuildingBlock: MIDCAF_clean_linker_0, # of connection points: 3
#     Node 3, Type 1, BuildingBlock: MIDCAF_clean_linker_0, # of connection points: 3
#     Node 4, Type 1, BuildingBlock: MIDCAF_clean_linker_0, # of connection points: 3
#     Node 5, Type 1, BuildingBlock: MIDCAF_clean_linker_0, # of connection points: 3
#     Edge 6, Type (0, 1), BuildingBlock: AJUNOK_clean_linker_0, # of connection points: 2
#     Edge 7, Type (0, 1), BuildingBlock: AJUNOK_clean_linker_0, # of connection points: 2
#     Edge 8, Type (0, 1), BuildingBlock: AJUNOK_clean_linker_0, # of connection points: 2
#     Edge 9, Type (0, 1), BuildingBlock: AJUNOK_clean_linker_0, # of connection points: 2
#     Edge 10, Type (0, 1), BuildingBlock: AJUNOK_clean_linker_0, # of connection points: 2
#     Edge 11, Type (0, 1), BuildingBlock: AJUNOK_clean_linker_0, # of connection points: 2
#     Edge 12, Type (0, 1), BuildingBlock: AJUNOK_clean_linker_0, # of connection points: 2
#     Edge 13, Type (0, 1), BuildingBlock: AJUNOK_clean_linker_0, # of connection points: 2
#     Edge 14, Type (0, 1), BuildingBlock: AJUNOK_clean_linker_0, # of connection points: 2
#     Edge 15, Type (0, 1), BuildingBlock: AJUNOK_clean_linker_0, # of connection points: 2
#     Edge 16, Type (0, 1), BuildingBlock: AJUNOK_clean_linker_0, # of connection points: 2
#     Edge 17, Type (0, 1), BuildingBlock: AJUNOK_clean_linker_0, # of connection points: 2
# Relax obj value: 0.129
# Max RMSD: 0.156
# Mean RMSD: 0.119
data_MOF--net-tsx--node1-CIFDUS_clean_sbu_1--node2-MIDCAF_clean_linker_0--edge1-AJUNOK_clean_linker_0
_symmetry_space_group_name_H-M    P1
_symmetry_Int_Tables_number       1
_symmetry_cell_setting            triclinic
loop_
_symmetry_equiv_pos_as_xyz
'x, y, z'
_cell_length_a     17.085983
_cell_length_b     21.180207
_cell_length_c     35.408739
_cell_angle_alpha  97.019862
_cell_angle_beta   92.090813
_cell_angle_gamma 91.006337
loop_
_atom_site_label
_atom_site_type_symbol
_atom_site_fract_x
_atom_site_fract_y
_atom_site_fract_z
_atom_type_partial_charge
O0 O 0.98682 0.11854 0.00683 0.0
Mn1 Mn 0.05637 0.03522 0.00223 0.0
O2 O 0.86633 0.07991 0.00288 0.0
Mn3 Mn 0.89909 0.01855 0.96646 0.0
O4 O 0.1267 0.95433 0.99701 0.0
O5 O 0.15223 0.09556 0.01208 0.0
Mn6 Mn 0.21171 0.06189 0.04599 0.0
O7 O 0.04502 0.02628 0.06053 0.0
O8 O 0.24286 0.98259 0.02622 0.0
O9 O 0.0676 0.04209 0.94456 0.0
O10 O 0.9426 0.0435 0.92325 0.0
O11 O 0.26734 0.13153 0.03733 0.0
O12 O 0.15867 0.06232 0.08991 0.0
C13 C 0.90434 0.92962 0.98241 0.0
C14 C 0.91277 0.12691 0.00956 0.0
C15 C 0.19677 0.94142 0.00765 0.0
C16 C 0.20818 0.13899 0.01442 0.0
C17 C 0.08997 0.03888 0.09059 0.0
C18 C 0.01567 0.04825 0.91835 0.0
O19 O 0.96333 0.9705 0.99013 0.0
O20 O 0.84524 0.94511 0.96169 0.0
O21 O 0.49009 0.61939 0.50679 0.0
Mn22 Mn 0.55848 0.53451 0.50086 0.0
O23 O 0.37008 0.57929 0.50447 0.0
Mn24 Mn 0.39698 0.51808 0.46668 0.0
O25 O 0.62306 0.45009 0.49246 0.0
O26 O 0.65913 0.59381 0.51165 0.0
Mn27 Mn 0.70778 0.54637 0.54414 0.0
O28 O 0.54295 0.52472 0.55853 0.0
O29 O 0.73925 0.46844 0.52247 0.0
O30 O 0.56711 0.54296 0.44283 0.0
O31 O 0.4402 0.54249 0.4236 0.0
O32 O 0.77612 0.60945 0.5431 0.0
O33 O 0.65858 0.54498 0.58906 0.0
C34 C 0.40708 0.42959 0.48401 0.0
C35 C 0.41568 0.62696 0.50997 0.0
C36 C 0.69162 0.43211 0.50173 0.0
C37 C 0.7241 0.62881 0.51973 0.0
C38 C 0.58638 0.53144 0.58905 0.0
C39 C 0.5128 0.54702 0.41715 0.0
O40 O 0.46397 0.47238 0.48932 0.0
O41 O 0.3459 0.44271 0.46394 0.0
C42 C 0.81604 0.14395 0.43425 0.0
C43 C 0.83671 0.18847 0.46579 0.0
C44 C 0.90425 0.1785 0.48809 0.0
C45 C 0.95396 0.12821 0.47686 0.0
H46 H 0.11712 0.96073 0.50182 0.0
H47 H 0.20263 0.88656 0.53073 0.0
H48 H 0.32561 0.85223 0.42644 0.0
H49 H 0.23967 0.92404 0.39698 0.0
H50 H 0.0898 0.90113 0.31587 0.0
H51 H 0.08266 0.89514 0.24629 0.0
H52 H 1.00366 0.08901 0.25536 0.0
H53 H 1.00572 0.09319 0.32423 0.0
H54 H 0.84983 0.06254 0.39736 0.0
H55 H 0.76316 0.14935 0.41722 0.0
H56 H 0.92122 0.21188 0.51282 0.0
H57 H 1.00798 0.12433 0.49294 0.0
N58 N 0.05401 0.01779 0.44485 0.0
N59 N 0.10625 0.97352 0.38702 0.0
N60 N 0.99656 0.0376 0.38639 0.0
C61 C 0.10884 0.98113 0.42589 0.0
C62 C 0.05048 0.00212 0.36725 0.0
C63 C 0.99698 0.04552 0.42487 0.0
C64 C 0.16953 0.94711 0.44659 0.0
C65 C 0.16317 0.93843 0.48521 0.0
C66 C 0.21302 0.89681 0.50208 0.0
C67 C 0.27143 0.86465 0.48096 0.0
C68 C 0.28205 0.8775 0.44355 0.0
C69 C 0.23177 0.91804 0.42655 0.0
C70 C 0.04891 -0.0023 0.32534 0.0
C71 C 0.07083 0.94221 0.3028 0.0
C72 C 0.06689 0.93898 0.26303 0.0
C73 C 0.04351 0.99198 0.2452 0.0
C74 C 0.02083 0.04704 0.268 0.0
C75 C 0.02282 0.04965 0.30752 0.0
C76 C 0.937 0.08738 0.44319 0.0
C77 C 0.86559 0.09404 0.42308 0.0
C78 C 0.79903 0.91762 0.54847 0.0
C79 C 0.82336 0.88506 0.51409 0.0
C80 C 0.88828 0.9094 0.49676 0.0
C81 C 0.93204 0.96163 0.51518 0.0
H82 H 0.13183 0.10182 0.50929 0.0
H83 H 0.22577 0.17657 0.48727 0.0
H84 H 0.27642 0.25729 0.6039 0.0
H85 H 0.17712 0.18976 0.62494 0.0
H86 H 0.11201 0.14692 0.6902 0.0
H87 H 0.12245 0.1443 0.75867 0.0
H88 H 0.94731 0.99331 0.74881 0.0
H89 H 0.9371 0.99491 0.67985 0.0
H90 H 0.82632 0.98998 0.59497 0.0
H91 H 0.74978 0.89967 0.56273 0.0
H92 H 0.90855 0.88509 0.47032 0.0
H93 H 0.98414 0.97678 0.50226 0.0
N94 N 0.02759 0.06562 0.56015 0.0
N95 N 0.07756 0.10304 0.62149 0.0
N96 N 0.96802 0.0349 0.61437 0.0
C97 C 0.08142 0.10168 0.58329 0.0
C98 C 0.02193 0.07009 0.63739 0.0
C99 C 0.96992 0.03251 0.57576 0.0
C100 C 0.14387 0.14117 0.56866 0.0
C101 C 0.16136 0.13687 0.52995 0.0
C102 C 0.21727 0.17852 0.51752 0.0
C103 C 0.25907 0.2235 0.54383 0.0
C104 C 0.24457 0.22458 0.58262 0.0
C105 C 0.18744 0.18498 0.59474 0.0
C106 C 0.02366 0.07093 0.67936 0.0
C107 C 0.07529 0.11317 0.70245 0.0
C108 C 0.08122 0.11203 0.74177 0.0
C109 C 0.03572 0.06869 0.75895 0.0
C110 C 0.98351 0.0269 0.73611 0.0
C111 C 0.97726 0.02815 0.6967 0.0
C112 C 0.91312 0.9894 0.55168 0.0
C113 C 0.84367 0.96894 0.56718 0.0
C114 C 0.39832 0.71237 0.93445 0.0
C115 C 0.36009 0.7091 0.96846 0.0
C116 C 0.37799 0.65987 0.99046 0.0
C117 C 0.43047 0.61264 0.9773 0.0
H118 H 0.61504 0.45844 -0.00055 0.0
H119 H 0.69806 0.37996 0.02631 0.0
H120 H 0.82535 0.35533 0.9228 0.0
H121 H 0.74148 0.43059 0.89544 0.0
H122 H 0.65177 0.44775 0.81504 0.0
H123 H 0.64541 0.44792 0.7458 0.0
H124 H 0.42401 0.54271 0.7535 0.0
H125 H 0.43038 0.5436 0.82218 0.0
H126 H 0.47792 0.66946 0.89477 0.0
H127 H 0.38795 0.75123 0.91776 0.0
H128 H 0.35028 0.6573 0.01727 0.0
H129 H 0.44148 0.57411 0.99385 0.0
N130 N 0.56472 0.5293 0.944 0.0
N131 N 0.60329 0.47403 0.88588 0.0
N132 N 0.5057 0.54935 0.8859 0.0
C133 C 0.61085 0.4852 0.92466 0.0
C134 C 0.55001 0.50557 0.8664 0.0
C135 C 0.51245 0.562 0.92425 0.0
C136 C 0.66954 0.44893 0.94472 0.0
C137 C 0.66131 0.43686 0.98266 0.0
C138 C 0.70944 0.39264 -0.00174 0.0
C139 C 0.76732 0.36124 0.97636 0.0
C140 C 0.78063 0.37856 0.94011 0.0
C141 C 0.73197 0.4213 0.92435 0.0
C142 C 0.54239 0.49664 0.82426 0.0
C143 C 0.60127 0.46778 0.8019 0.0
C144 C 0.59756 0.46778 0.76229 0.0
C145 C 0.5349 0.4965 0.74448 0.0
C146 C 0.47386 0.52168 0.76659 0.0
C147 C 0.47762 0.52193 0.80598 0.0
C148 C 0.46582 0.61459 0.94228 0.0
C149 C 0.45041 0.66579 0.92154 0.0
C150 C 0.31128 0.40255 0.05286 0.0
C151 C 0.31915 0.37966 0.01423 0.0
C152 C 0.37968 0.4058 0.99457 0.0
C153 C 0.432 0.45221 0.01349 0.0
H154 H 0.5855 0.63407 0.00786 0.0
H155 H 0.67828 0.70817 0.98444 0.0
H156 H 0.81431 0.71803 0.09037 0.0
H157 H 0.72076 0.64716 0.11412 0.0
H158 H 0.57028 0.66012 0.18971 0.0
H159 H 0.57624 0.65882 0.25888 0.0
H160 H 0.53199 0.45554 0.24199 0.0
H161 H 0.52067 0.45788 0.17352 0.0
H162 H 0.35442 0.46416 0.10136 0.0
H163 H 0.26817 0.38206 0.06972 0.0
H164 H 0.38821 0.38886 0.96493 0.0
H165 H 0.47949 0.46943 -0.00206 0.0
N166 N 0.53394 0.55531 0.05761 0.0
N167 N 0.58725 0.59675 0.11798 0.0
N168 N 0.48651 0.52018 0.11317 0.0
C169 C 0.58646 0.59486 0.07952 0.0
C170 C 0.53803 0.55954 0.13493 0.0
C171 C 0.48307 0.51802 0.0746 0.0
C172 C 0.64497 0.63497 0.0629 0.0
C173 C 0.6355 0.65169 0.02588 0.0
C174 C 0.68928 0.69371 0.01241 0.0
C175 C 0.75444 0.71866 0.03548 0.0
C176 C 0.76468 0.70025 0.07198 0.0
C177 C 0.71073 0.65934 0.08554 0.0
C178 C 0.54388 0.5592 0.17649 0.0
C179 C 0.56199 0.6153 0.20102 0.0
C180 C 0.56655 0.61439 0.24053 0.0
C181 C 0.55518 0.557 0.25597 0.0
C182 C 0.5401 0.5007 0.23106 0.0
C183 C 0.53332 0.50195 0.19186 0.0
C184 C 0.42468 0.47375 0.05238 0.0
C185 C 0.36245 0.44911 0.07143 0.0
C186 C 0.28032 0.20787 0.97666 0.0
C187 C 0.20975 0.19561 0.99409 0.0
C188 C 0.31173 0.26988 0.97859 0.0
C189 C 0.27263 0.32181 -0.00258 0.0
H190 H 0.31719 0.16866 0.96663 0.0
H191 H 0.37103 0.27564 0.96956 0.0
S192 S 0.07303 0.31683 0.03465 0.0
N193 N 0.09313 0.24131 0.02205 0.0
N194 N 0.14915 0.35854 0.02318 0.0
C195 C 0.19517 0.31109 0.00798 0.0
C196 C 0.16413 0.24768 0.00678 0.0
C197 C 0.28294 0.85521 0.02504 0.0
C198 C 0.22663 0.87634 -0.00044 0.0
C199 C 0.3216 0.79796 0.01616 0.0
C200 C 0.30576 0.76012 0.98133 0.0
H201 H 0.29939 0.8843 0.05158 0.0
H202 H 0.36761 0.78536 0.03557 0.0
S203 S 0.15611 0.78914 0.90719 0.0
N204 N 0.151 0.85134 0.93999 0.0
N205 N 0.22422 0.74348 0.92308 0.0
C206 C 0.24569 0.7782 0.95682 0.0
C207 C 0.2058 0.83636 0.96602 0.0
C208 C 0.87507 0.87167 0.0363 0.0
C209 C 0.89685 0.86931 -0.00162 0.0
C210 C 0.83167 0.82153 0.04839 0.0
C211 C 0.80904 0.76704 0.02301 0.0
H212 H 0.88459 0.91506 0.05571 0.0
H213 H 0.8113 0.82755 0.07719 0.0
S214 S 0.86289 0.73453 0.92208 0.0
N215 N 0.89994 0.80638 0.93647 0.0
N216 N 0.82121 0.7108 0.95944 0.0
C217 C 0.83641 0.76212 0.98583 0.0
C218 C 0.87996 0.81345 0.97353 0.0
C219 C 0.89075 0.24507 0.02694 0.0
C220 C 0.87813 0.18815 0.00235 0.0
C221 C 0.85379 0.30165 0.01929 0.0
C222 C 0.80308 0.30226 0.987 0.0
H223 H 0.92836 0.24559 0.05225 0.0
H224 H 0.86556 0.34508 0.03832 0.0
S225 S 0.74615 0.16469 0.91565 0.0
N226 N 0.80927 0.13607 0.94513 0.0
N227 N 0.73818 0.24043 0.93216 0.0
C228 C 0.78845 0.24515 0.96314 0.0
C229 C 0.82639 0.18863 0.97044 0.0
C230 C 0.82395 0.70672 0.50453 0.0
C231 C 0.74372 0.68952 0.5046 0.0
C232 C 0.84889 0.76968 0.50374 0.0
C233 C 0.79478 0.81844 0.50262 0.0
H234 H 0.86855 0.672 0.50825 0.0
H235 H 0.91107 0.78084 0.50737 0.0
S236 S 0.57972 0.79656 0.48927 0.0
N237 N 0.61079 0.72444 0.49439 0.0
N238 N 0.65821 0.84386 0.49279 0.0
C239 C 0.71477 0.80114 0.4977 0.0
C240 C 0.68907 0.73633 0.49843 0.0
C241 C 0.73035 0.32649 0.51869 0.0
C242 C 0.71625 0.36651 0.49038 0.0
C243 C 0.76717 0.268 0.51037 0.0
C244 C 0.79169 0.24778 0.47347 0.0
H245 H 0.71483 0.34148 0.54777 0.0
H246 H 0.77795 0.23899 0.53311 0.0
S247 S 0.77212 0.33742 0.38989 0.0
N248 N 0.73085 0.38309 0.42447 0.0
N249 N 0.80113 0.27363 0.40861 0.0
C250 C 0.77699 0.28727 0.4448 0.0
C251 C 0.73904 0.3466 0.45331 0.0
C252 C 0.35309 0.38585 0.53788 0.0
C253 C 0.39902 0.3756 0.50581 0.0
C254 C 0.30999 0.33612 0.55023 0.0
C255 C 0.31238 0.27337 0.53161 0.0
H256 H 0.34389 0.43391 0.55118 0.0
H257 H 0.27068 0.34813 0.5732 0.0
S258 S 0.43363 0.22058 0.44916 0.0
N259 N 0.44955 0.29834 0.45706 0.0
N260 N 0.37312 0.20308 0.48193 0.0
C261 C 0.3632 0.26172 0.50116 0.0
C262 C 0.40569 0.31314 0.488 0.0
C263 C 0.41071 0.74814 0.52212 0.0
C264 C 0.37758 0.68905 0.50619 0.0
C265 C 0.37548 0.80597 0.51531 0.0
C266 C 0.30552 0.80598 0.49292 0.0
H267 H 0.46424 0.74961 0.53955 0.0
H268 H 0.40379 0.85067 0.52686 0.0
S269 S 0.19247 0.66553 0.44617 0.0
N270 N 0.26838 0.63582 0.46735 0.0
N271 N 0.20288 0.74328 0.45645 0.0
C272 C 0.27051 0.74765 0.47824 0.0
C273 C 0.30614 0.68952 0.48448 0.0
C274 C 1.00031 0.03354 0.14487 0.0
C275 C 0.06966 0.01622 0.12676 0.0
C276 C 0.98999 0.02206 0.1827 0.0
C277 C 0.0486 0.99287 0.20339 0.0
H278 H 0.95606 0.05909 0.1306 0.0
H279 H 0.93704 0.03837 0.19633 0.0
S280 S 0.23677 0.93183 0.16606 0.0
N281 N 0.1936 0.96213 0.13015 0.0
N282 N 0.17592 0.94295 0.20126 0.0
C283 C 0.11585 0.97173 0.18437 0.0
C284 C 0.12589 0.98289 0.14603 0.0
C285 C 0.05179 0.00329 0.85386 0.0
C286 C 0.03901 0.0571 0.87996 0.0
C287 C 0.05346 0.00791 0.81476 0.0
C288 C 0.04255 0.06654 0.80062 0.0
H289 H 0.05608 0.9568 0.86351 0.0
H290 H 0.06094 0.96498 0.79533 0.0
S291 S 1.01134 0.22192 0.85818 0.0
N292 N 0.01855 0.17083 0.88979 0.0
N293 N 0.02253 0.18012 0.81624 0.0
C294 C 0.03368 0.12128 0.82681 0.0
C295 C 0.03145 0.11635 0.86657 0.0
C296 C 0.56114 0.46039 0.63799 0.0
C297 C 0.55466 0.52072 0.62564 0.0
C298 C 0.55186 0.45225 0.67633 0.0
C299 C 0.53599 0.50429 0.70342 0.0
H300 H 0.57765 0.41998 0.61831 0.0
H301 H 0.55949 0.40539 0.68504 0.0
S302 S 0.51396 0.67194 0.68473 0.0
N303 N 0.53098 0.63274 0.6427 0.0
N304 N 0.51358 0.61816 0.71481 0.0
C305 C 0.5269 0.56449 0.69093 0.0
C306 C 0.53641 0.57254 0.65198 0.0
C307 C 0.47932 0.51702 0.34906 0.0
C308 C 0.53108 0.5495 0.37692 0.0
C309 C 0.48823 0.52028 0.31051 0.0
C310 C 0.54998 0.55559 0.29767 0.0
H311 H 0.43044 0.48886 0.35708 0.0
H312 H 0.4451 0.49549 0.29059 0.0
S313 S 0.70244 0.64961 0.35894 0.0
N314 N 0.64647 0.61864 0.3894 0.0
N315 N 0.66484 0.62389 0.31601 0.0
C316 C 0.60307 0.58824 0.3251 0.0
C317 C 0.59364 0.58498 0.3649 0.0
loop_
_geom_bond_atom_site_label_1
_geom_bond_atom_site_label_2
_geom_bond_distance
_geom_bond_site_symmetry_2
_ccdc_geom_bond_type
O0 Mn1 2.163 1_654 S
O0 C14 1.244 1_554 S
Mn1 O0 2.163 1_456 S
Mn1 O4 2.160 1_545 S
Mn1 O5 2.221 1_556 S
Mn1 O7 2.163 1_556 S
Mn1 O9 2.160 . S
Mn1 O19 2.221 1_445 S
O2 Mn3 2.087 . S
O2 C14 1.256 . S
Mn3 O2 2.087 . S
Mn3 O10 2.089 . S
Mn3 O19 2.290 1_545 S
Mn3 O20 2.251 1_545 S
O4 Mn1 2.160 1_565 S
O4 C15 1.239 1_556 S
O5 Mn1 2.221 1_554 S
O5 Mn6 2.290 . S
O5 C16 1.278 . S
Mn6 O5 2.290 . S
Mn6 O8 2.089 1_545 S
Mn6 O11 2.251 . S
Mn6 O12 2.087 . S
O7 Mn1 2.163 1_554 S
O7 C17 1.244 . S
O8 Mn6 2.089 1_565 S
O8 C15 1.256 . S
O9 Mn1 2.160 . S
O9 C18 1.239 . S
O10 Mn3 2.089 . S
O10 C18 1.256 1_655 S
O11 Mn6 2.251 . S
O11 C16 1.241 . S
O12 Mn6 2.087 . S
O12 C17 1.256 . S
C13 O19 1.264 1_554 S
C13 O20 1.235 1_554 S
C14 O0 1.244 1_556 S
C14 O2 1.256 . S
C15 O4 1.239 1_554 S
C15 O8 1.256 . S
C16 O5 1.278 . S
C16 O11 1.241 . S
C17 O7 1.244 . S
C17 O12 1.256 . S
C18 O9 1.239 . S
C18 O10 1.256 1_455 S
O19 Mn1 2.221 1_665 S
O19 Mn3 2.290 1_565 S
O19 C13 1.264 1_556 S
O20 Mn3 2.251 1_565 S
O20 C13 1.235 1_556 S
O21 Mn22 2.163 . S
O21 C35 1.244 . S
Mn22 O21 2.163 . S
Mn22 O25 2.160 . S
Mn22 O26 2.221 . S
Mn22 O28 2.163 . S
Mn22 O30 2.160 . S
Mn22 O40 2.221 . S
O23 Mn24 2.087 . S
O23 C35 1.256 . S
Mn24 O23 2.087 . S
Mn24 O31 2.089 . S
Mn24 O40 2.290 . S
Mn24 O41 2.251 . S
O25 Mn22 2.160 . S
O25 C36 1.239 . S
O26 Mn22 2.221 . S
O26 Mn27 2.290 . S
O26 C37 1.278 . S
Mn27 O26 2.290 . S
Mn27 O29 2.089 . S
Mn27 O32 2.251 . S
Mn27 O33 2.087 . S
O28 Mn22 2.163 . S
O28 C38 1.244 . S
O29 Mn27 2.089 . S
O29 C36 1.256 . S
O30 Mn22 2.160 . S
O30 C39 1.239 . S
O31 Mn24 2.089 . S
O31 C39 1.256 . S
O32 Mn27 2.251 . S
O32 C37 1.241 . S
O33 Mn27 2.087 . S
O33 C38 1.256 . S
C34 O40 1.278 . S
C34 O41 1.241 . S
C35 O21 1.244 . S
C35 O23 1.256 . S
C36 O25 1.239 . S
C36 O29 1.256 . S
C37 O26 1.278 . S
C37 O32 1.241 . S
C38 O28 1.244 . S
C38 O33 1.256 . S
C39 O30 1.239 . S
C39 O31 1.256 . S
O40 Mn22 2.221 . S
O40 Mn24 2.290 . S
O40 C34 1.278 . S
O41 Mn24 2.251 . S
O41 C34 1.241 . S
C42 C43 1.384 . S
C42 H55 0.947 . S
C42 C77 1.382 . S
C43 C42 1.384 . S
C43 C44 1.378 . S
C44 C43 1.378 . S
C44 C45 1.378 . S
C44 H56 0.952 . S
C45 C44 1.378 . S
C45 H57 0.950 1_655 S
C45 C76 1.383 . S
H46 C65 0.947 . S
H47 C66 0.946 . S
H48 C68 0.953 . S
H49 C69 0.945 . S
H50 C71 0.952 . S
H51 C72 0.949 . S
H52 C74 0.950 1_655 S
H53 C75 0.945 1_655 S
H54 C77 0.951 . S
H55 C42 0.947 . S
H56 C44 0.952 . S
H57 C45 0.950 1_455 S
N58 C61 1.382 1_545 S
N58 C63 1.363 . S
N59 C61 1.371 . S
N59 C62 1.372 1_565 S
N60 C62 1.361 . S
N60 C63 1.377 . S
C61 N58 1.382 1_565 S
C61 N59 1.371 . S
C61 C64 1.480 . S
C62 N59 1.372 1_545 S
C62 N60 1.361 . S
C62 C70 1.457 . S
C63 N58 1.363 . S
C63 N60 1.377 . S
C63 C76 1.479 1_455 S
C64 C61 1.480 . S
C64 C65 1.383 . S
C64 C69 1.385 . S
C65 H46 0.947 . S
C65 C64 1.383 . S
C65 C66 1.388 . S
C66 H47 0.946 . S
C66 C65 1.388 . S
C66 C67 1.384 . S
C67 C66 1.384 . S
C67 C68 1.377 . S
C68 H48 0.953 . S
C68 C67 1.377 . S
C68 C69 1.369 . S
C69 H49 0.945 . S
C69 C64 1.385 . S
C69 C68 1.369 . S
C70 C62 1.457 . S
C70 C71 1.372 1_545 S
C70 C75 1.364 . S
C71 H50 0.952 . S
C71 C70 1.372 1_565 S
C71 C72 1.389 . S
C72 H51 0.949 . S
C72 C71 1.389 . S
C72 C73 1.387 . S
C73 C72 1.387 . S
C73 C74 1.372 1_565 S
C74 H52 0.950 1_455 S
C74 C73 1.372 1_545 S
C74 C75 1.379 . S
C75 H53 0.945 1_455 S
C75 C70 1.364 . S
C75 C74 1.379 . S
C76 C45 1.383 . S
C76 C63 1.479 1_655 S
C76 C77 1.398 . S
C77 C42 1.382 . S
C77 H54 0.951 . S
C77 C76 1.398 . S
C78 C79 1.384 . S
C78 H91 0.947 . S
C78 C113 1.382 . S
C79 C78 1.384 . S
C79 C80 1.378 . S
C80 C79 1.378 . S
C80 C81 1.378 . S
C80 H92 0.952 . S
C81 C80 1.378 . S
C81 H93 0.960 . S
C81 C112 1.383 . S
H82 C101 0.947 . S
H83 C102 0.946 . S
H84 C104 0.953 . S
H85 C105 0.945 . S
H86 C107 0.952 . S
H87 C108 0.949 . S
H88 C110 0.950 . S
H89 C111 0.948 1_565 S
H90 C113 0.951 . S
H91 C78 0.947 . S
H92 C80 0.952 . S
H93 C81 0.960 . S
N94 C97 1.382 . S
N94 C99 1.363 1_455 S
N95 C97 1.371 . S
N95 C98 1.372 . S
N96 C98 1.361 1_655 S
N96 C99 1.377 . S
C97 N94 1.382 . S
C97 N95 1.371 . S
C97 C100 1.480 . S
C98 N95 1.372 . S
C98 N96 1.361 1_455 S
C98 C106 1.457 . S
C99 N94 1.363 1_655 S
C99 N96 1.377 . S
C99 C112 1.479 1_545 S
C100 C97 1.480 . S
C100 C101 1.383 . S
C100 C105 1.385 . S
C101 H82 0.947 . S
C101 C100 1.383 . S
C101 C102 1.388 . S
C102 H83 0.946 . S
C102 C101 1.388 . S
C102 C103 1.384 . S
C103 C102 1.384 . S
C103 C104 1.377 . S
C104 H84 0.953 . S
C104 C103 1.377 . S
C104 C105 1.369 . S
C105 H85 0.945 . S
C105 C100 1.385 . S
C105 C104 1.369 . S
C106 C98 1.457 . S
C106 C107 1.372 . S
C106 C111 1.364 1_455 S
C107 H86 0.952 . S
C107 C106 1.372 . S
C107 C108 1.389 . S
C108 H87 0.949 . S
C108 C107 1.389 . S
C108 C109 1.387 . S
C109 C108 1.387 . S
C109 C110 1.372 1_455 S
C110 H88 0.950 . S
C110 C109 1.372 1_655 S
C110 C111 1.379 . S
C111 H89 0.948 1_545 S
C111 C106 1.364 1_655 S
C111 C110 1.379 . S
C112 C81 1.383 . S
C112 C99 1.479 1_565 S
C112 C113 1.398 . S
C113 C78 1.382 . S
C113 H90 0.951 . S
C113 C112 1.398 . S
C114 C115 1.384 . S
C114 H127 0.947 . S
C114 C149 1.382 . S
C115 C114 1.384 . S
C115 C116 1.378 1_556 S
C116 C115 1.378 1_554 S
C116 C117 1.378 1_554 S
C116 H128 0.952 . S
C117 C116 1.378 1_556 S
C117 H129 0.950 1_556 S
C117 C148 1.383 . S
H118 C137 0.947 1_554 S
H119 C138 0.946 . S
H120 C140 0.953 . S
H121 C141 0.945 . S
H122 C143 0.952 . S
H123 C144 0.949 . S
H124 C146 0.950 . S
H125 C147 0.948 . S
H126 C149 0.951 . S
H127 C114 0.947 . S
H128 C116 0.952 . S
H129 C117 0.950 1_554 S
N130 C133 1.382 . S
N130 C135 1.363 . S
N131 C133 1.371 . S
N131 C134 1.372 . S
N132 C134 1.361 . S
N132 C135 1.377 . S
C133 N130 1.382 . S
C133 N131 1.371 . S
C133 C136 1.480 . S
C134 N131 1.372 . S
C134 N132 1.361 . S
C134 C142 1.457 . S
C135 N130 1.363 . S
C135 N132 1.377 . S
C135 C148 1.479 . S
C136 C133 1.480 . S
C136 C137 1.383 . S
C136 C141 1.385 . S
C137 H118 0.947 1_556 S
C137 C136 1.383 . S
C137 C138 1.388 1_556 S
C138 H119 0.946 . S
C138 C137 1.388 1_554 S
C138 C139 1.384 1_554 S
C139 C138 1.384 1_556 S
C139 C140 1.377 . S
C140 H120 0.953 . S
C140 C139 1.377 . S
C140 C141 1.369 . S
C141 H121 0.945 . S
C141 C136 1.385 . S
C141 C140 1.369 . S
C142 C134 1.457 . S
C142 C143 1.372 . S
C142 C147 1.364 . S
C143 H122 0.952 . S
C143 C142 1.372 . S
C143 C144 1.389 . S
C144 H123 0.949 . S
C144 C143 1.389 . S
C144 C145 1.387 . S
C145 C144 1.387 . S
C145 C146 1.372 . S
C146 H124 0.950 . S
C146 C145 1.372 . S
C146 C147 1.379 . S
C147 H125 0.948 . S
C147 C142 1.364 . S
C147 C146 1.379 . S
C148 C117 1.383 . S
C148 C135 1.479 . S
C148 C149 1.398 . S
C149 C114 1.382 . S
C149 H126 0.951 . S
C149 C148 1.398 . S
C150 C151 1.384 . S
C150 H163 0.947 . S
C150 C185 1.382 . S
C151 C150 1.384 . S
C151 C152 1.378 1_554 S
C152 C151 1.378 1_556 S
C152 C153 1.378 1_556 S
C152 H164 0.952 . S
C153 C152 1.378 1_554 S
C153 H165 0.949 . S
C153 C184 1.383 . S
H154 C173 0.947 . S
H155 C174 0.946 1_556 S
H156 C176 0.953 . S
H157 C177 0.945 . S
H158 C179 0.952 . S
H159 C180 0.949 . S
H160 C182 0.950 . S
H161 C183 0.948 . S
H162 C185 0.951 . S
H163 C150 0.947 . S
H164 C152 0.952 . S
H165 C153 0.949 . S
N166 C169 1.382 . S
N166 C171 1.363 . S
N167 C169 1.371 . S
N167 C170 1.372 . S
N168 C170 1.361 . S
N168 C171 1.377 . S
C169 N166 1.382 . S
C169 N167 1.371 . S
C169 C172 1.480 . S
C170 N167 1.372 . S
C170 N168 1.361 . S
C170 C178 1.457 . S
C171 N166 1.363 . S
C171 N168 1.377 . S
C171 C184 1.479 . S
C172 C169 1.480 . S
C172 C173 1.383 . S
C172 C177 1.385 . S
C173 H154 0.947 . S
C173 C172 1.383 . S
C173 C174 1.388 . S
C174 H155 0.946 1_554 S
C174 C173 1.388 . S
C174 C175 1.384 . S
C175 C174 1.384 . S
C175 C176 1.377 . S
C176 H156 0.953 . S
C176 C175 1.377 . S
C176 C177 1.369 . S
C177 H157 0.945 . S
C177 C172 1.385 . S
C177 C176 1.369 . S
C178 C170 1.457 . S
C178 C179 1.372 . S
C178 C183 1.364 . S
C179 H158 0.952 . S
C179 C178 1.372 . S
C179 C180 1.389 . S
C180 H159 0.949 . S
C180 C179 1.389 . S
C180 C181 1.387 . S
C181 C180 1.387 . S
C181 C182 1.372 . S
C182 H160 0.950 . S
C182 C181 1.372 . S
C182 C183 1.379 . S
C183 H161 0.948 . S
C183 C178 1.364 . S
C183 C182 1.379 . S
C184 C153 1.383 . S
C184 C171 1.479 . S
C184 C185 1.398 . S
C185 C150 1.382 . S
C185 H162 0.951 . S
C185 C184 1.398 . S
C186 C187 1.369 1_556 S
C186 C188 1.419 . S
C186 H190 0.930 . S
C187 C186 1.369 1_554 S
C187 C196 1.429 . S
C188 C186 1.419 . S
C188 C189 1.363 1_556 S
C188 H191 0.929 . S
C189 C188 1.363 1_554 S
C189 C195 1.428 . S
H190 C186 0.930 . S
H191 C188 0.929 . S
S192 N193 1.613 . S
S192 N194 1.610 . S
N193 S192 1.613 . S
N193 C196 1.350 . S
N194 S192 1.610 . S
N194 C195 1.351 . S
C195 C189 1.428 . S
C195 N194 1.351 . S
C195 C196 1.434 . S
C196 C187 1.429 . S
C196 N193 1.350 . S
C196 C195 1.434 . S
C197 C198 1.369 . S
C197 C199 1.419 . S
C197 H201 0.930 . S
C198 C197 1.369 . S
C198 C207 1.429 1_554 S
C199 C197 1.419 . S
C199 C200 1.363 . S
C199 H202 0.929 . S
C200 C199 1.363 . S
C200 C206 1.428 1_554 S
H201 C197 0.930 . S
H202 C199 0.929 . S
S203 N204 1.613 . S
S203 N205 1.610 . S
N204 S203 1.613 . S
N204 C207 1.350 . S
N205 S203 1.610 . S
N205 C206 1.351 . S
C206 C200 1.428 1_556 S
C206 N205 1.351 . S
C206 C207 1.434 . S
C207 C198 1.429 1_556 S
C207 N204 1.350 . S
C207 C206 1.434 . S
C208 C209 1.369 . S
C208 C210 1.419 . S
C208 H212 0.930 . S
C209 C208 1.369 . S
C209 C218 1.429 1_554 S
C210 C208 1.419 . S
C210 C211 1.363 . S
C210 H213 0.929 . S
C211 C210 1.363 . S
C211 C217 1.428 1_554 S
H212 C208 0.930 . S
H213 C210 0.929 . S
S214 N215 1.613 . S
S214 N216 1.610 . S
N215 S214 1.613 . S
N215 C218 1.350 . S
N216 S214 1.610 . S
N216 C217 1.351 . S
C217 C211 1.428 1_556 S
C217 N216 1.351 . S
C217 C218 1.434 . S
C218 C209 1.429 1_556 S
C218 N215 1.350 . S
C218 C217 1.434 . S
C219 C220 1.369 1_554 S
C219 C221 1.419 . S
C219 H223 0.930 . S
C220 C219 1.369 1_556 S
C220 C229 1.429 . S
C221 C219 1.419 . S
C221 C222 1.363 1_554 S
C221 H224 0.929 . S
C222 C221 1.363 1_556 S
C222 C228 1.428 . S
H223 C219 0.930 . S
H224 C221 0.929 . S
S225 N226 1.613 . S
S225 N227 1.610 . S
N226 S225 1.613 . S
N226 C229 1.350 . S
N227 S225 1.610 . S
N227 C228 1.351 . S
C228 C222 1.428 . S
C228 N227 1.351 . S
C228 C229 1.434 . S
C229 C220 1.429 . S
C229 N226 1.350 . S
C229 C228 1.434 . S
C230 C231 1.369 . S
C230 C232 1.419 . S
C230 H234 0.930 . S
C231 C230 1.369 . S
C231 C240 1.429 . S
C232 C230 1.419 . S
C232 C233 1.363 . S
C232 H235 0.929 . S
C233 C232 1.363 . S
C233 C239 1.428 . S
H234 C230 0.930 . S
H235 C232 0.929 . S
S236 N237 1.613 . S
S236 N238 1.610 . S
N237 S236 1.613 . S
N237 C240 1.350 . S
N238 S236 1.610 . S
N238 C239 1.351 . S
C239 C233 1.428 . S
C239 N238 1.351 . S
C239 C240 1.434 . S
C240 C231 1.429 . S
C240 N237 1.350 . S
C240 C239 1.434 . S
C241 C242 1.369 . S
C241 C243 1.419 . S
C241 H245 0.930 . S
C242 C241 1.369 . S
C242 C251 1.429 . S
C243 C241 1.419 . S
C243 C244 1.363 . S
C243 H246 0.929 . S
C244 C243 1.363 . S
C244 C250 1.428 . S
H245 C241 0.930 . S
H246 C243 0.929 . S
S247 N248 1.613 . S
S247 N249 1.610 . S
N248 S247 1.613 . S
N248 C251 1.350 . S
N249 S247 1.610 . S
N249 C250 1.351 . S
C250 C244 1.428 . S
C250 N249 1.351 . S
C250 C251 1.434 . S
C251 C242 1.429 . S
C251 N248 1.350 . S
C251 C250 1.434 . S
C252 C253 1.369 . S
C252 C254 1.419 . S
C252 H256 0.930 . S
C253 C252 1.369 . S
C253 C262 1.429 . S
C254 C252 1.419 . S
C254 C255 1.363 . S
C254 H257 0.929 . S
C255 C254 1.363 . S
C255 C261 1.428 . S
H256 C252 0.930 . S
H257 C254 0.929 . S
S258 N259 1.613 . S
S258 N260 1.610 . S
N259 S258 1.613 . S
N259 C262 1.350 . S
N260 S258 1.610 . S
N260 C261 1.351 . S
C261 C255 1.428 . S
C261 N260 1.351 . S
C261 C262 1.434 . S
C262 C253 1.429 . S
C262 N259 1.350 . S
C262 C261 1.434 . S
C263 C264 1.369 . S
C263 C265 1.419 . S
C263 H267 0.930 . S
C264 C263 1.369 . S
C264 C273 1.429 . S
C265 C263 1.419 . S
C265 C266 1.363 . S
C265 H268 0.929 . S
C266 C265 1.363 . S
C266 C272 1.428 . S
H267 C263 0.930 . S
H268 C265 0.929 . S
S269 N270 1.613 . S
S269 N271 1.610 . S
N270 S269 1.613 . S
N270 C273 1.350 . S
N271 S269 1.610 . S
N271 C272 1.351 . S
C272 C266 1.428 . S
C272 N271 1.351 . S
C272 C273 1.434 . S
C273 C264 1.429 . S
C273 N270 1.350 . S
C273 C272 1.434 . S
C274 C275 1.369 1_655 S
C274 C276 1.419 . S
C274 H278 0.930 . S
C275 C274 1.369 1_455 S
C275 C284 1.429 1_545 S
C276 C274 1.419 . S
C276 C277 1.363 1_645 S
C276 H279 0.929 . S
C277 C276 1.363 1_465 S
C277 C283 1.428 . S
H278 C274 0.930 . S
H279 C276 0.929 . S
S280 N281 1.613 . S
S280 N282 1.610 . S
N281 S280 1.613 . S
N281 C284 1.350 . S
N282 S280 1.610 . S
N282 C283 1.351 . S
C283 C277 1.428 . S
C283 N282 1.351 . S
C283 C284 1.434 . S
C284 C275 1.429 1_565 S
C284 N281 1.350 . S
C284 C283 1.434 . S
C285 C286 1.369 . S
C285 C287 1.419 . S
C285 H289 0.930 1_545 S
C286 C285 1.369 . S
C286 C295 1.429 . S
C287 C285 1.419 . S
C287 C288 1.363 . S
C287 H290 0.929 1_545 S
C288 C287 1.363 . S
C288 C294 1.428 . S
H289 C285 0.930 1_565 S
H290 C287 0.929 1_565 S
S291 N292 1.613 . S
S291 N293 1.610 . S
N292 S291 1.613 . S
N292 C295 1.350 . S
N293 S291 1.610 . S
N293 C294 1.351 . S
C294 C288 1.428 . S
C294 N293 1.351 . S
C294 C295 1.434 . S
C295 C286 1.429 . S
C295 N292 1.350 . S
C295 C294 1.434 . S
C296 C297 1.369 . S
C296 C298 1.419 . S
C296 H300 0.930 . S
C297 C296 1.369 . S
C297 C306 1.429 . S
C298 C296 1.419 . S
C298 C299 1.363 . S
C298 H301 0.929 . S
C299 C298 1.363 . S
C299 C305 1.428 . S
H300 C296 0.930 . S
H301 C298 0.929 . S
S302 N303 1.613 . S
S302 N304 1.610 . S
N303 S302 1.613 . S
N303 C306 1.350 . S
N304 S302 1.610 . S
N304 C305 1.351 . S
C305 C299 1.428 . S
C305 N304 1.351 . S
C305 C306 1.434 . S
C306 C297 1.429 . S
C306 N303 1.350 . S
C306 C305 1.434 . S
C307 C308 1.369 . S
C307 C309 1.419 . S
C307 H311 0.930 . S
C308 C307 1.369 . S
C308 C317 1.429 . S
C309 C307 1.419 . S
C309 C310 1.363 . S
C309 H312 0.929 . S
C310 C309 1.363 . S
C310 C316 1.428 . S
H311 C307 0.930 . S
H312 C309 0.929 . S
S313 N314 1.613 . S
S313 N315 1.610 . S
N314 S313 1.613 . S
N314 C317 1.350 . S
N315 S313 1.610 . S
N315 C316 1.351 . S
C316 C310 1.428 . S
C316 N315 1.351 . S
C316 C317 1.434 . S
C317 C308 1.429 . S
C317 N314 1.350 . S
C317 C316 1.434 . S
C189 C151 1.549 . S
C187 C16 1.502 . S
C198 C15 1.615 . S
C200 C115 1.579 1_554 S
C209 C13 1.313 . S
C211 C175 1.501 . S
C220 C14 1.413 . S
C222 C139 1.419 . S
C231 C37 1.503 . S
C233 C79 1.552 . S
C242 C36 1.615 . S
C244 C43 1.579 . S
C255 C103 1.498 . S
C253 C34 1.306 . S
C266 C67 1.419 . S
C264 C35 1.412 . S
C275 C17 1.520 . S
C277 C73 1.550 . S
C286 C18 1.406 . S
C288 C109 1.442 . S
C299 C145 1.547 . S
C297 C38 1.518 . S
C308 C39 1.408 . S
C310 C181 1.441 . S
