# Generated by pormake.
# Topology anh, (6,3)-cn, num edge types: 1
# Building blocks:
#     Node 0, Type 0, BuildingBlock: BETDAH_clean_sbu_0, # of connection points: 6
#     Node 1, Type 0, BuildingBlock: BETDAH_clean_sbu_0, # of connection points: 6
#     Node 2, Type 0, BuildingBlock: BETDAH_clean_sbu_0, # of connection points: 6
#     Node 3, Type 1, BuildingBlock: CUQRIR_clean_linker_1, # of connection points: 3
#     Node 4, Type 1, BuildingBlock: CUQRIR_clean_linker_1, # of connection points: 3
#     Node 5, Type 1, BuildingBlock: CUQRIR_clean_linker_1, # of connection points: 3
#     Node 6, Type 1, BuildingBlock: CUQRIR_clean_linker_1, # of connection points: 3
#     Node 7, Type 1, BuildingBlock: CUQRIR_clean_linker_1, # of connection points: 3
#     Node 8, Type 1, BuildingBlock: CUQRIR_clean_linker_1, # of connection points: 3
#     Edge 9, Type (0, 1), BuildingBlock: UVAHIK_clean_linker_0, # of connection points: 2
#     Edge 10, Type (0, 1), BuildingBlock: UVAHIK_clean_linker_0, # of connection points: 2
#     Edge 11, Type (0, 1), BuildingBlock: UVAHIK_clean_linker_0, # of connection points: 2
#     Edge 12, Type (0, 1), BuildingBlock: UVAHIK_clean_linker_0, # of connection points: 2
#     Edge 13, Type (0, 1), BuildingBlock: UVAHIK_clean_linker_0, # of connection points: 2
#     Edge 14, Type (0, 1), BuildingBlock: UVAHIK_clean_linker_0, # of connection points: 2
#     Edge 15, Type (0, 1), BuildingBlock: UVAHIK_clean_linker_0, # of connection points: 2
#     Edge 16, Type (0, 1), BuildingBlock: UVAHIK_clean_linker_0, # of connection points: 2
#     Edge 17, Type (0, 1), BuildingBlock: UVAHIK_clean_linker_0, # of connection points: 2
#     Edge 18, Type (0, 1), BuildingBlock: UVAHIK_clean_linker_0, # of connection points: 2
#     Edge 19, Type (0, 1), BuildingBlock: UVAHIK_clean_linker_0, # of connection points: 2
#     Edge 20, Type (0, 1), BuildingBlock: UVAHIK_clean_linker_0, # of connection points: 2
#     Edge 21, Type (0, 1), BuildingBlock: UVAHIK_clean_linker_0, # of connection points: 2
#     Edge 22, Type (0, 1), BuildingBlock: UVAHIK_clean_linker_0, # of connection points: 2
#     Edge 23, Type (0, 1), BuildingBlock: UVAHIK_clean_linker_0, # of connection points: 2
#     Edge 24, Type (0, 1), BuildingBlock: UVAHIK_clean_linker_0, # of connection points: 2
#     Edge 25, Type (0, 1), BuildingBlock: UVAHIK_clean_linker_0, # of connection points: 2
#     Edge 26, Type (0, 1), BuildingBlock: UVAHIK_clean_linker_0, # of connection points: 2
# Relax obj value: 0.169
# Max RMSD: 0.211
# Mean RMSD: 0.161
data_MOF--net-anh--node1-BETDAH_clean_sbu_0--node2-CUQRIR_clean_linker_1--edge1-UVAHIK_clean_linker_0
_symmetry_space_group_name_H-M    P1
_symmetry_Int_Tables_number       1
_symmetry_cell_setting            triclinic
loop_
_symmetry_equiv_pos_as_xyz
'x, y, z'
_cell_length_a     36.768687
_cell_length_b     44.417551
_cell_length_c     60.990016
_cell_angle_alpha  88.001315
_cell_angle_beta   89.51908
_cell_angle_gamma 128.02276
loop_
_atom_site_label
_atom_site_type_symbol
_atom_site_fract_x
_atom_site_fract_y
_atom_site_fract_z
_atom_type_partial_charge
Ho0 Ho 0.10389 0.47627 0.15525 0.0
Ho1 Ho 1.04576 0.5006 0.16185 0.0
C2 C 0.1519 0.56685 0.16151 0.0
C3 C 0.1703 0.47396 0.14609 0.0
C4 C 0.21424 0.49352 0.15741 0.0
C5 C 0.25642 0.51851 0.14554 0.0
C6 C 0.29794 0.53988 0.15652 0.0
C7 C 0.29786 0.5364 0.17953 0.0
C8 C 0.25563 0.51154 0.19138 0.0
C9 C 0.21423 0.49051 0.18046 0.0
C10 C 0.07795 0.47199 0.19752 0.0
C11 C 0.99792 0.41091 0.15444 0.0
C12 C 0.97937 0.50084 0.17503 0.0
C13 C 0.92916 0.47093 0.17374 0.0
C14 C 0.90047 0.45825 0.19266 0.0
C15 C 0.85306 0.42853 0.19177 0.0
C16 C 0.83345 0.41117 0.17186 0.0
C17 C 0.86269 0.42342 0.15308 0.0
C18 C 0.91 0.45273 0.15405 0.0
C19 C 0.07391 0.507 0.11977 0.0
O20 O 0.15552 0.54135 0.15359 0.0
O21 O 0.11189 0.55667 0.16913 0.0
O22 O 0.13321 0.44659 0.15757 0.0
O23 O 0.16458 0.49651 0.13513 0.0
O24 O 0.0809 0.44727 0.1891 0.0
O25 O 0.09132 0.49867 0.18358 0.0
O26 O 0.99502 0.43587 0.16367 0.0
O27 O 1.03752 0.42176 0.1457 0.0
O28 O 1.00251 0.51751 0.15639 0.0
O29 O 0.99986 0.49204 0.18811 0.0
O30 O 0.07063 0.53144 0.12857 0.0
O31 O 1.05959 0.4793 0.13319 0.0
H32 H 0.25719 0.52178 0.12781 0.0
H33 H 0.33016 0.55848 0.14698 0.0
H34 H 0.25464 0.50846 0.20912 0.0
H35 H 0.18221 0.47223 0.19018 0.0
H36 H 0.91476 0.47128 0.20814 0.0
H37 H 0.83174 0.41947 0.20664 0.0
H38 H 0.84896 0.41135 0.13736 0.0
H39 H 0.93147 0.46127 0.13928 0.0
Ho40 Ho 0.676 0.03453 0.48242 0.0
Ho41 Ho 0.61427 0.05682 0.47216 0.0
C42 C 0.56584 0.96864 0.47582 0.0
C43 C 0.71228 0.00473 0.49925 0.0
C44 C 0.69888 0.96612 0.50394 0.0
C45 C 0.66671 0.94158 0.52099 0.0
C46 C 0.65619 0.90589 0.52573 0.0
C47 C 0.67741 0.89397 0.51346 0.0
C48 C 0.70914 0.91836 0.49629 0.0
C49 C 0.71992 0.9541 0.49167 0.0
C50 C 0.67083 0.04758 0.43945 0.0
C51 C 0.72547 0.12322 0.47726 0.0
C52 C 0.57888 0.08806 0.45659 0.0
C53 C 0.5882 0.12456 0.46062 0.0
C54 C 0.56924 0.13775 0.4474 0.0
C55 C 0.57758 0.17226 0.45159 0.0
C56 C 0.60498 0.19404 0.46913 0.0
C57 C 0.62429 0.1807 0.48216 0.0
C58 C 0.61611 0.14638 0.47789 0.0
C59 C 0.61986 0.04451 0.51518 0.0
O60 O 0.60347 0.97797 0.48549 0.0
O61 O 0.56473 0.99484 0.4657 0.0
O62 O 0.71781 0.01592 0.47854 0.0
O63 O 0.69161 0.01471 0.51097 0.0
O64 O 0.70794 0.05601 0.44818 0.0
O65 O 0.63789 0.03043 0.4535 0.0
O66 O 0.68601 0.1135 0.46978 0.0
O67 O 0.7292 0.0975 0.48576 0.0
O68 O 0.56065 0.06321 0.47334 0.0
O69 O 0.61241 0.09076 0.44653 0.0
O70 O 0.58299 0.03637 0.50644 0.0
O71 O 0.6527 0.06144 0.50107 0.0
H72 H 0.64992 0.94999 0.53081 0.0
H73 H 0.63136 0.88757 0.53896 0.0
H74 H 0.72656 0.9102 0.48676 0.0
H75 H 0.7452 0.97258 0.47861 0.0
H76 H 0.54786 0.12131 0.4339 0.0
H77 H 0.56273 0.18193 0.44104 0.0
H78 H 0.64494 0.19633 0.49599 0.0
H79 H 0.63113 0.13659 0.48824 0.0
Ho80 Ho 0.63752 0.60183 0.83979 0.0
Ho81 Ho 0.57237 0.51641 0.85127 0.0
C82 C 0.52714 0.55846 0.8504 0.0
C83 C 0.67758 0.66966 0.82203 0.0
C84 C 0.6682 0.69741 0.81824 0.0
C85 C 0.64565 0.6964 0.79943 0.0
C86 C 0.64002 0.72442 0.79513 0.0
C87 C 0.65704 0.75424 0.80947 0.0
C88 C 0.67893 0.75486 0.82844 0.0
C89 C 0.68462 0.72691 0.83272 0.0
C90 C 0.63129 0.58181 0.8826 0.0
C91 C 0.68366 0.56029 0.84249 0.0
C92 C 0.53484 0.4479 0.86689 0.0
C93 C 0.5448 0.42138 0.86217 0.0
C94 C 0.52673 0.3888 0.87592 0.0
C95 C 0.53625 0.36359 0.87121 0.0
C96 C 0.564 0.37062 0.85263 0.0
C97 C 0.58227 0.40363 0.83903 0.0
C98 C 0.5729 0.42879 0.8438 0.0
C99 C 0.58024 0.53649 0.80825 0.0
O100 O 0.56624 0.58767 0.84019 0.0
O101 O 0.52348 0.52909 0.85942 0.0
O102 O 0.68328 0.6632 0.84232 0.0
O103 O 0.65387 0.63852 0.811 0.0
O104 O 0.6691 0.6108 0.8727 0.0
O105 O 0.59823 0.56667 0.86981 0.0
O106 O 0.64306 0.52998 0.8508 0.0
O107 O 0.68924 0.59107 0.83456 0.0
O108 O 0.51816 0.45545 0.85064 0.0
O109 O 0.56734 0.47864 0.87672 0.0
O110 O 0.54219 0.50769 0.818 0.0
O111 O 0.61263 0.55139 0.82138 0.0
H112 H 0.63312 0.67439 0.78777 0.0
H113 H 0.62354 0.72335 0.78023 0.0
H114 H 0.69191 0.7771 0.83998 0.0
H115 H 0.70253 0.72876 0.84724 0.0
H116 H 0.50526 0.38284 0.89027 0.0
H117 H 0.52214 0.33877 0.88221 0.0
H118 H 0.60313 0.40973 0.82441 0.0
H119 H 0.58728 0.45393 0.83301 0.0
C120 C 0.57673 0.98833 0.17894 0.0
N121 N 0.60224 0.01626 0.19331 0.0
N122 N 0.53969 0.95603 0.18946 0.0
C123 C 0.58608 0.99326 0.15453 0.0
C124 C 0.54366 0.96521 0.21068 0.0
N125 N 0.58129 0.00186 0.21299 0.0
C126 C 0.51261 0.93742 0.22936 0.0
H127 H 0.55389 0.97288 0.14576 0.0
H128 H 0.61084 0.98759 0.15066 0.0
H129 H 0.6017 0.02296 0.14859 0.0
H130 H 0.49635 0.90753 0.22526 0.0
H131 H 0.48486 0.93991 0.23265 0.0
H132 H 0.53218 0.94386 0.24452 0.0
C133 C 0.64291 0.53821 0.5429 0.0
N134 N 0.63947 0.55647 0.55909 0.0
N135 N 0.64063 0.50851 0.55143 0.0
C136 C 0.64949 0.55 0.51891 0.0
C137 C 0.63557 0.50933 0.57335 0.0
N138 N 0.6348 0.53846 0.57797 0.0
C139 C 0.63113 0.48156 0.59015 0.0
H140 H 0.64223 0.52713 0.50839 0.0
H141 H 0.6858 0.57578 0.51557 0.0
H142 H 0.62683 0.55773 0.51458 0.0
H143 H 0.66622 0.49236 0.59485 0.0
H144 H 0.61369 0.45306 0.58328 0.0
H145 H 0.61168 0.47871 0.60513 0.0
C146 C 0.10287 0.55496 0.85678 0.0
N147 N 0.12647 0.54961 0.87145 0.0
N148 N 1.0648 0.54804 0.86666 0.0
C149 C 0.1154 0.56487 0.83274 0.0
C150 C 1.0664 0.53864 0.88776 0.0
N151 N 0.10328 0.5393 0.89061 0.0
C152 C 1.03245 0.5298 0.90583 0.0
H153 H 0.14156 0.59637 0.83026 0.0
H154 H 0.08472 0.5555 0.82324 0.0
H155 H 0.13065 0.55151 0.82655 0.0
H156 H 1.0178 0.54504 0.90248 0.0
H157 H 1.04881 0.5378 0.92198 0.0
H158 H 1.00373 0.49858 0.90675 0.0
C159 C 0.14078 0.54807 0.45788 0.0
N160 N 0.11139 0.52126 0.44368 0.0
N161 N 0.16882 0.58309 0.44734 0.0
C162 C 0.14048 0.54056 0.4821 0.0
C163 C 0.15562 0.57654 0.42629 0.0
N164 N 0.12051 0.53914 0.42415 0.0
C165 C 0.17861 0.60634 0.4076 0.0
H166 H 0.15455 0.56671 0.49116 0.0
H167 H 0.16247 0.53168 0.48503 0.0
H168 H 0.10494 0.5171 0.4885 0.0
H169 H 0.21572 0.62891 0.41057 0.0
H170 H 0.1615 0.61992 0.40621 0.0
H171 H 0.17541 0.59341 0.39179 0.0
C172 C 0.62793 0.07898 0.77901 0.0
N173 N 0.6299 0.05927 0.7632 0.0
N174 N 0.62474 0.10546 0.76989 0.0
C175 C 0.62764 0.07194 0.80332 0.0
C176 C 0.62454 0.10105 0.74804 0.0
N177 N 0.62742 0.07283 0.74401 0.0
C178 C 0.62236 0.12482 0.73075 0.0
H179 H 0.59196 0.05647 0.81022 0.0
H180 H 0.65001 0.09963 0.81135 0.0
H181 H 0.63915 0.05454 0.80727 0.0
H182 H 0.6579 0.15132 0.72681 0.0
H183 H 0.60137 0.13319 0.73689 0.0
H184 H 0.60775 0.10939 0.71546 0.0
C185 C 0.57517 0.48027 0.14801 0.0
N186 N 0.57622 0.47027 0.12742 0.0
N187 N 0.58384 0.51469 0.1475 0.0
C188 C 0.57023 0.45832 0.16869 0.0
C189 C 0.59022 0.52524 0.12583 0.0
N190 N 0.58649 0.49861 0.11371 0.0
C191 C 0.59602 0.55978 0.11633 0.0
H192 H 0.58489 0.47705 0.18282 0.0
H193 H 0.5879 0.4454 0.16655 0.0
H194 H 0.53304 0.43482 0.17241 0.0
H195 H 0.63319 0.58484 0.11596 0.0
H196 H 0.57663 0.56621 0.1265 0.0
H197 H 0.58381 0.55538 0.09931 0.0
C198 C 0.3484 0.53497 0.20567 0.0
C199 C 0.34185 0.55606 0.19095 0.0
C200 C 0.39212 0.55094 0.21336 0.0
C201 C 0.50938 0.61907 0.19057 0.0
H202 H 0.52429 0.56271 0.23454 0.0
C203 C 0.61441 0.57315 0.16723 0.0
C204 C 0.58104 0.5335 0.1654 0.0
C205 C 0.60617 0.59266 0.18135 0.0
C206 C 0.52166 0.57978 0.22253 0.0
H207 H 0.37421 0.61177 0.17486 0.0
H208 H 0.45079 0.64033 0.18879 0.0
H209 H 0.46539 0.5711 0.24042 0.0
H210 H 0.51566 0.48256 0.17845 0.0
H211 H 0.50164 0.51608 0.20344 0.0
H212 H 0.56357 0.62573 0.1721 0.0
C213 C 0.42254 0.61096 0.19383 0.0
C214 C 0.48756 0.58424 0.22573 0.0
C215 C 0.37877 0.59468 0.18581 0.0
C216 C 0.54198 0.51308 0.17967 0.0
C217 C 0.53416 0.53237 0.19407 0.0
C218 C 0.54403 0.61534 0.18761 0.0
C219 C 0.43038 0.58857 0.20664 0.0
C220 C 0.47786 0.60029 0.20868 0.0
C221 C 0.56485 0.57255 0.19413 0.0
C222 C 0.54728 0.5924 0.20255 0.0
H223 H 0.3205 0.50511 0.20991 0.0
H224 H 0.39626 0.53232 0.22294 0.0
H225 H 0.50388 0.63225 0.17713 0.0
H226 H 0.64532 0.58927 0.15668 0.0
H227 H 0.63033 0.62361 0.18108 0.0
C228 C 0.81002 0.1761 0.48201 0.0
C229 C 0.76635 0.1642 0.47581 0.0
C230 C 0.84881 0.21468 0.47946 0.0
C231 C 0.89114 0.30315 0.4473 0.0
H232 H 0.98266 0.35471 0.49183 0.0
C233 C 1.02908 0.46628 0.44321 0.0
C234 C 0.07418 0.48138 0.44857 0.0
C235 C 0.99284 0.4274 0.44708 0.0
C236 C 0.95769 0.34058 0.47912 0.0
H237 H 0.72908 0.18385 0.46271 0.0
H238 H 0.79638 0.25076 0.45844 0.0
H239 H 0.91675 0.28697 0.49781 0.0
H240 H 0.11728 0.46838 0.46233 0.0
H241 H 1.0537 0.3998 0.46918 0.0
H242 H 0.93176 0.35646 0.42858 0.0
C243 C 0.80087 0.23025 0.46491 0.0
C244 C 0.91994 0.3018 0.48256 0.0
C245 C 0.7622 0.19184 0.46748 0.0
C246 C 0.08255 0.45715 0.45823 0.0
C247 C 1.04621 0.41808 0.46214 0.0
C248 C 0.92878 0.34176 0.44385 0.0
C249 C 0.84472 0.24209 0.4706 0.0
C250 C 0.88595 0.28281 0.46678 0.0
C251 C 1.00097 0.40271 0.4564 0.0
C252 C 0.96223 0.36111 0.45982 0.0
H253 H 0.81445 0.15557 0.48848 0.0
H254 H 0.88218 0.22289 0.48389 0.0
H255 H 0.86612 0.28915 0.4346 0.0
H256 H 1.02194 0.48475 0.43611 0.0
H257 H 0.95832 0.41673 0.4429 0.0
C258 C 0.69055 0.82353 0.80806 0.0
C259 C 0.6534 0.78528 0.80432 0.0
C260 C 0.68754 0.85286 0.80312 0.0
C261 C 0.62493 0.87701 0.76955 0.0
H262 H 0.67218 0.95741 0.81042 0.0
C263 C 0.59681 0.99169 0.76062 0.0
C264 C 0.63332 0.02889 0.76618 0.0
C265 C 0.59924 0.96175 0.76449 0.0
C266 C 0.65937 0.93548 0.79868 0.0
H267 H 0.58375 0.74793 0.79257 0.0
H268 H 0.57858 0.79925 0.78384 0.0
H269 H 0.67586 0.90541 0.81896 0.0
H270 H 0.70167 0.06494 0.77901 0.0
H271 H 0.70663 0.01285 0.78564 0.0
H272 H 0.60858 0.90721 0.74923 0.0
C273 C 0.61024 0.80652 0.7904 0.0
C274 C 0.66141 0.90561 0.8036 0.0
C275 C 0.6132 0.77712 0.79541 0.0
C276 C 0.67296 0.03617 0.77496 0.0
C277 C 0.67554 0.00636 0.77881 0.0
C278 C 0.62298 0.90697 0.76459 0.0
C279 C 0.64736 0.84472 0.79425 0.0
C280 C 0.64436 0.87608 0.78908 0.0
C281 C 0.63845 0.96866 0.7739 0.0
C282 C 0.64034 0.93665 0.77906 0.0
H283 H 0.72238 0.83097 0.81449 0.0
H284 H 0.71706 0.88205 0.80592 0.0
H285 H 0.61201 0.85493 0.7579 0.0
H286 H 0.56604 0.98577 0.75377 0.0
H287 H 0.56992 0.93307 0.76066 0.0
C288 C 0.75417 0.39021 0.18072 0.0
C289 C 0.78248 0.38379 0.16985 0.0
C290 C 0.70852 0.37107 0.17491 0.0
C291 C 0.61275 0.33081 0.15952 0.0
H292 H 0.6299 0.36139 0.09768 0.0
C293 C 0.53737 0.40112 0.12957 0.0
C294 C 0.57442 0.43826 0.12179 0.0
C295 C 0.54116 0.37169 0.12943 0.0
C296 C 0.6238 0.35188 0.11484 0.0
H297 H 0.78296 0.34814 0.14656 0.0
H298 H 0.70335 0.31564 0.13584 0.0
H299 H 0.67814 0.3472 0.11396 0.0
H300 H 0.64208 0.47326 0.10571 0.0
H301 H 0.64924 0.42252 0.10537 0.0
H302 H 0.56259 0.34023 0.16105 0.0
C303 C 0.71679 0.33577 0.14873 0.0
C304 C 0.65119 0.34332 0.12419 0.0
C305 C 0.76249 0.35467 0.15474 0.0
C306 C 0.61304 0.44471 0.11163 0.0
C307 C 0.61689 0.41541 0.11142 0.0
C308 C 0.58567 0.33971 0.15023 0.0
C309 C 0.69014 0.34529 0.15795 0.0
C310 C 0.64873 0.33615 0.14701 0.0
C311 C 0.58218 0.37915 0.12151 0.0
C312 C 0.59397 0.35371 0.12823 0.0
H313 H 0.76817 0.41248 0.19232 0.0
H314 H 0.68931 0.37954 0.18223 0.0
H315 H 0.60924 0.32427 0.17705 0.0
H316 H 0.50702 0.39567 0.13721 0.0
H317 H 0.51356 0.34398 0.13703 0.0
C318 C 0.52593 0.89845 0.48322 0.0
C319 C 0.52454 0.92796 0.47557 0.0
C320 C 0.48688 0.86007 0.48232 0.0
C321 C 0.3776 0.79908 0.45316 0.0
H322 H 0.34193 0.72285 0.49973 0.0
C323 C 0.20379 0.65023 0.45286 0.0
C324 C 0.20474 0.61933 0.45596 0.0
C325 C 0.24192 0.68702 0.45775 0.0
C326 C 0.3517 0.74383 0.48656 0.0
H327 H 0.48058 0.94028 0.46166 0.0
H328 H 0.41276 0.87384 0.46046 0.0
H329 H 0.41114 0.78912 0.50309 0.0
H330 H 0.24465 0.6017 0.46761 0.0
H331 H 0.312 0.66646 0.47639 0.0
H332 H 0.31838 0.75415 0.43666 0.0
C333 C 0.44418 0.88012 0.46666 0.0
C334 C 0.39136 0.78172 0.48844 0.0
C335 C 0.48311 0.91831 0.46745 0.0
C336 C 0.24333 0.62529 0.46527 0.0
C337 C 0.28168 0.66222 0.47023 0.0
C338 C 0.33804 0.76144 0.45136 0.0
C339 C 0.44567 0.85047 0.47381 0.0
C340 C 0.40451 0.80986 0.47182 0.0
C341 C 0.28185 0.69363 0.46585 0.0
C342 C 0.32436 0.73345 0.46809 0.0
H343 H 0.55732 0.90492 0.4896 0.0
H344 H 0.48931 0.83793 0.48781 0.0
H345 H 0.38731 0.81971 0.43979 0.0
H346 H 0.17403 0.64598 0.44588 0.0
H347 H 0.24065 0.71051 0.45463 0.0
C348 C 0.53819 0.30361 0.84989 0.0
C349 C 0.57314 0.34339 0.84705 0.0
C350 C 0.54601 0.27808 0.84339 0.0
C351 C 0.61705 0.27155 0.80459 0.0
H352 H 0.57684 0.1812 0.84018 0.0
C353 C 0.65667 0.17156 0.777 0.0
C354 C 0.62193 0.13216 0.78076 0.0
C355 C 0.65282 0.19768 0.78653 0.0
C356 C 0.58782 0.20606 0.82992 0.0
H357 H 0.64448 0.38734 0.83603 0.0
H358 H 0.65768 0.34277 0.82432 0.0
H359 H 0.5658 0.22596 0.85429 0.0
H360 H 0.55616 0.08867 0.79723 0.0
H361 H 0.54847 0.1341 0.81368 0.0
H362 H 0.63788 0.25143 0.77996 0.0
C363 C 0.62409 0.33143 0.83137 0.0
C364 C 0.5816 0.23174 0.83805 0.0
C365 C 0.61643 0.35694 0.83803 0.0
C366 C 0.58351 0.11907 0.79441 0.0
C367 C 0.57934 0.14513 0.80382 0.0
C368 C 0.62287 0.24575 0.79637 0.0
C369 C 0.58882 0.29174 0.83376 0.0
C370 C 0.59616 0.26475 0.82546 0.0
C371 C 0.61377 0.18482 0.79984 0.0
C372 C 0.60834 0.21263 0.80891 0.0
H373 H 0.50425 0.29211 0.8565 0.0
H374 H 0.51803 0.24764 0.84524 0.0
H375 H 0.62794 0.29644 0.79436 0.0
H376 H 0.68665 0.18201 0.76657 0.0
H377 H 0.68046 0.22795 0.78343 0.0
C378 C 0.66109 0.8331 0.50214 0.0
C379 C 0.66779 0.8568 0.5189 0.0
C380 C 0.65505 0.79931 0.50711 0.0
C381 C 0.62773 0.72998 0.55281 0.0
H382 H 0.6909 0.70694 0.51406 0.0
C383 C 0.6034 0.58809 0.56087 0.0
C384 C 0.64238 0.59014 0.55664 0.0
C385 C 0.60553 0.6204 0.55712 0.0
C386 C 0.67339 0.71311 0.52519 0.0
H387 H 0.67279 0.86342 0.55404 0.0
H388 H 0.66284 0.80466 0.56274 0.0
H389 H 0.69558 0.76319 0.50591 0.0
H390 H 0.71416 0.62681 0.54585 0.0
H391 H 0.71865 0.6838 0.5396 0.0
H392 H 0.60671 0.68038 0.57244 0.0
C393 C 0.66144 0.81181 0.54577 0.0
C394 C 0.67549 0.74509 0.52032 0.0
C395 C 0.66721 0.84552 0.54079 0.0
C396 C 0.68377 0.6249 0.54905 0.0
C397 C 0.68608 0.65726 0.54538 0.0
C398 C 0.62575 0.69799 0.55773 0.0
C399 C 0.65589 0.78854 0.52896 0.0
C400 C 0.6527 0.75396 0.53406 0.0
C401 C 0.64681 0.6553 0.54909 0.0
C402 C 0.6487 0.68924 0.544 0.0
H403 H 0.66064 0.84076 0.48514 0.0
H404 H 0.64986 0.78166 0.4938 0.0
H405 H 0.60942 0.73576 0.56364 0.0
H406 H 0.57105 0.56122 0.56646 0.0
H407 H 0.5745 0.61772 0.5599 0.0
C408 C 0.71699 0.52515 0.84798 0.0
C409 C 0.72361 0.5592 0.84212 0.0
C410 C 0.7544 0.52414 0.84842 0.0
C411 C 0.87864 0.57822 0.82977 0.0
H412 H 0.87611 0.51412 0.8755 0.0
C413 C 1.03803 0.58316 0.85058 0.0
C414 C 1.02888 0.54857 0.85762 0.0
C415 C 1.00151 0.58468 0.84642 0.0
C416 C 0.87729 0.53182 0.86239 0.0
H417 H 0.77546 0.61896 0.83189 0.0
H418 H 0.84071 0.61743 0.83304 0.0
H419 H 0.8121 0.51658 0.87311 0.0
H420 H 0.97486 0.4883 0.8648 0.0
H421 H 0.9113 0.49043 0.85713 0.0
H422 H 0.94453 0.59384 0.81937 0.0
C423 C 0.80639 0.5912 0.83698 0.0
C424 C 0.84029 0.53322 0.861 0.0
C425 C 0.76884 0.59215 0.83643 0.0
C426 C 0.98275 0.51526 0.85931 0.0
C427 C 0.94638 0.51669 0.85519 0.0
C428 C 0.91588 0.57692 0.83124 0.0
C429 C 0.79988 0.55722 0.84317 0.0
C430 C 0.84008 0.55625 0.8446 0.0
C431 C 0.95503 0.55159 0.84932 0.0
C432 C 0.91564 0.55347 0.8475 0.0
H433 H 0.68275 0.49904 0.85229 0.0
H434 H 0.74745 0.49716 0.85281 0.0
H435 H 0.87982 0.59602 0.81674 0.0
H436 H 0.07328 0.60932 0.8495 0.0
H437 H 1.00971 0.61212 0.84202 0.0
C438 C 0.23717 0.61893 0.15481 0.0
C439 C 0.19359 0.60751 0.16183 0.0
C440 C 0.27629 0.65741 0.15483 0.0
C441 C 0.31135 0.75558 0.15559 0.0
H442 H 0.42615 0.78219 0.17734 0.0
C443 C 0.4571 0.90561 0.18407 0.0
C444 C 0.50314 0.92018 0.18057 0.0
C445 C 0.42092 0.86857 0.17835 0.0
C446 C 0.39464 0.7753 0.17083 0.0
H447 H 0.15718 0.62775 0.17447 0.0
H448 H 0.22526 0.69456 0.17468 0.0
H449 H 0.35994 0.71503 0.17452 0.0
H450 H 0.54799 0.90851 0.16773 0.0
H451 H 0.48456 0.84339 0.15737 0.0
H452 H 0.34575 0.81578 0.15225 0.0
C453 C 0.22916 0.6739 0.16887 0.0
C454 C 0.3566 0.73675 0.16927 0.0
C455 C 0.19012 0.63547 0.16891 0.0
C456 C 0.51261 0.89773 0.17042 0.0
C457 C 0.47635 0.86047 0.16475 0.0
C458 C 0.34934 0.79408 0.15714 0.0
C459 C 0.27274 0.6854 0.16178 0.0
C460 C 0.31423 0.72639 0.16198 0.0
C461 C 0.43003 0.84519 0.16903 0.0
C462 C 0.39124 0.80444 0.16514 0.0
H463 H 0.24115 0.59818 0.14924 0.0
H464 H 0.30923 0.6653 0.14912 0.0
H465 H 0.27956 0.74866 0.14946 0.0
H466 H 0.44925 0.92258 0.19194 0.0
H467 H 0.38581 0.8577 0.18214 0.0
C468 C 0.65527 0.26139 0.48169 0.0
C469 C 0.61245 0.22994 0.4743 0.0
C470 C 0.66132 0.29408 0.48804 0.0
C471 C 0.61425 0.34685 0.48295 0.0
H472 H 0.66858 0.38504 0.53932 0.0
C473 C 0.60417 0.45417 0.52761 0.0
C474 C 0.64154 0.48125 0.54009 0.0
C475 C 0.60325 0.42563 0.51797 0.0
C476 C 0.65412 0.37528 0.52336 0.0
H477 H 0.54267 0.20869 0.46743 0.0
H478 H 0.55361 0.2661 0.47813 0.0
H479 H 0.66272 0.3318 0.52499 0.0
H480 H 0.70739 0.50078 0.55225 0.0
H481 H 0.70695 0.45164 0.53489 0.0
H482 H 0.60581 0.39041 0.48121 0.0
C483 C 0.58249 0.26538 0.47893 0.0
C484 C 0.65065 0.34465 0.51519 0.0
C485 C 0.57629 0.23252 0.47275 0.0
C486 C 0.6784 0.48 0.54257 0.0
C487 C 0.6778 0.45172 0.5328 0.0
C488 C 0.61811 0.37775 0.49102 0.0
C489 C 0.62485 0.29625 0.48694 0.0
C490 C 0.63035 0.32992 0.49499 0.0
C491 C 0.6399 0.42383 0.52061 0.0
C492 C 0.63774 0.39216 0.51143 0.0
H493 H 0.68417 0.26073 0.48267 0.0
H494 H 0.69456 0.31769 0.49385 0.0
H495 H 0.59889 0.3363 0.46722 0.0
H496 H 0.57521 0.4546 0.52585 0.0
H497 H 0.57316 0.40433 0.50905 0.0
C498 C 0.48987 0.5905 0.8438 0.0
C499 C 0.48683 0.55901 0.85216 0.0
C500 C 0.45182 0.59071 0.84543 0.0
C501 C 0.3381 0.54222 0.876 0.0
H502 H 0.31377 0.58801 0.82902 0.0
C503 C 0.16571 0.52017 0.8741 0.0
C504 C 0.16672 0.5513 0.86748 0.0
C505 C 0.20512 0.52215 0.87174 0.0
C506 C 0.32024 0.57543 0.84242 0.0
H507 H 0.44053 0.50282 0.86867 0.0
H508 H 0.37453 0.50292 0.87123 0.0
H509 H 0.38117 0.5895 0.826 0.0
H510 H 0.20986 0.6088 0.85278 0.0
H511 H 0.27904 0.61244 0.84842 0.0
H512 H 0.27714 0.52793 0.89236 0.0
C513 C 0.40654 0.52792 0.86374 0.0
C514 C 0.35911 0.57632 0.84071 0.0
C515 C 0.44453 0.52774 0.86214 0.0
C516 C 0.20796 0.58426 0.85787 0.0
C517 C 0.24757 0.58626 0.85541 0.0
C518 C 0.29927 0.54123 0.87767 0.0
C519 C 0.40946 0.55943 0.85548 0.0
C520 C 0.36856 0.55948 0.85741 0.0
C521 C 0.24693 0.55536 0.86258 0.0
C522 C 0.28943 0.55756 0.86086 0.0
H523 H 0.52178 0.61518 0.83602 0.0
H524 H 0.45593 0.61575 0.83908 0.0
H525 H 0.34444 0.5297 0.88949 0.0
H526 H 0.13417 0.4941 0.88108 0.0
H527 H 0.20265 0.49739 0.877 0.0
C528 C 0.91394 0.35941 0.16367 0.0
C529 C 0.95627 0.37013 0.15507 0.0
C530 C 0.87549 0.32089 0.16638 0.0
C531 C 0.8251 0.22336 0.14976 0.0
H532 H 0.75604 0.19281 0.20526 0.0
C533 C 0.68113 0.0641 0.17715 0.0
C534 C 0.64197 0.05544 0.18831 0.0
C535 C 0.71971 0.10223 0.17244 0.0
C536 C 0.77447 0.20083 0.18955 0.0
H537 H 0.99072 0.34861 0.1418 0.0
H538 H 0.92333 0.28109 0.14659 0.0
H539 H 0.82202 0.2595 0.19751 0.0
H540 H 0.61169 0.07925 0.203 0.0
H541 H 0.67859 0.14588 0.19468 0.0
H542 H 0.77724 0.16459 0.14175 0.0
C543 C 0.92001 0.30267 0.15117 0.0
C544 C 0.81241 0.23915 0.18511 0.0
C545 C 0.95867 0.34136 0.14847 0.0
C546 C 0.64183 0.08541 0.19461 0.0
C547 C 0.68022 0.12348 0.18988 0.0
C548 C 0.78692 0.18494 0.15416 0.0
C549 C 0.87824 0.29198 0.16057 0.0
C550 C 0.83809 0.25097 0.16513 0.0
C551 C 0.7198 0.13247 0.17879 0.0
C552 C 0.76096 0.1732 0.17409 0.0
H553 H 0.91057 0.38075 0.16874 0.0
H554 H 0.84361 0.31372 0.17324 0.0
H555 H 0.84392 0.23157 0.13414 0.0
H556 H 0.68202 0.04131 0.17235 0.0
H557 H 0.74974 0.108 0.16416 0.0
C558 C 0.07703 0.47674 0.08672 0.0
C559 C 0.08691 0.50907 0.09652 0.0
C560 C 0.08689 0.47828 0.06431 0.0
C561 C 0.15649 0.54314 0.01663 0.0
H562 H 1.05173 0.46784 0.98285 0.0
C563 C 0.14689 0.56622 0.92394 0.0
C564 C 0.11742 0.53439 0.91142 0.0
C565 C 0.15102 0.56132 0.94631 0.0
C566 C 0.08191 0.48858 0.9919 0.0
H567 H 0.11661 0.56872 0.09098 0.0
H568 H 0.13458 0.5716 0.05189 0.0
H569 H 1.04457 0.46264 0.02263 0.0
H570 H 0.0712 0.47277 0.91162 0.0
H571 H 0.0806 0.46367 0.95034 0.0
H572 H 0.19403 0.56914 0.98597 0.0
C573 C 0.11899 0.54506 0.06147 0.0
C574 C 0.07757 0.48564 0.01479 0.0
C575 C 0.1084 0.54333 0.08377 0.0
C576 C 0.0946 0.49759 0.92108 0.0
C577 C 0.09943 0.49256 0.94332 0.0
C578 C 0.16115 0.54574 0.99369 0.0
C579 C 0.10763 0.51239 0.05144 0.0
C580 C 0.11444 0.51333 0.02736 0.0
C581 C 0.12601 0.52433 0.95651 0.0
C582 C 0.12355 0.51899 0.98095 0.0
H583 H 1.06061 0.45001 0.09623 0.0
H584 H 0.07795 0.45274 0.05698 0.0
H585 H 0.1856 0.56467 0.02599 0.0
H586 H 0.16389 0.59478 0.91673 0.0
H587 H 0.17136 0.58656 0.9558 0.0
C588 C 0.70161 0.06363 0.40055 0.0
C589 C 0.6657 0.05163 0.4158 0.0
C590 C 0.69544 0.06502 0.37802 0.0
C591 C 0.60166 0.02382 0.33848 0.0
H592 H 0.7012 0.09804 0.29706 0.0
C593 C 0.56801 0.02192 0.24721 0.0
C594 C 0.59757 0.02054 0.23341 0.0
C595 C 0.57965 0.03288 0.26877 0.0
C596 C 0.67314 0.07715 0.30847 0.0
H597 H 0.59596 0.03322 0.41964 0.0
H598 H 0.58565 0.03691 0.38053 0.0
H599 H 0.71463 0.10334 0.33647 0.0
H600 H 0.66369 0.03199 0.23045 0.0
H601 H 0.68464 0.05158 0.26833 0.0
H602 H 0.56025 0.99759 0.31061 0.0
C603 C 0.61814 0.04417 0.38577 0.0
C604 C 0.68082 0.08004 0.33103 0.0
C605 C 0.62413 0.04233 0.40822 0.0
C606 C 0.6406 0.03307 0.2409 0.0
C607 C 0.65243 0.0442 0.26251 0.0
C608 C 0.59392 0.02118 0.31604 0.0
C609 C 0.65336 0.05479 0.37032 0.0
C610 C 0.6452 0.05322 0.34633 0.0
C611 C 0.62124 0.04279 0.2769 0.0
C612 C 0.62957 0.04764 0.30076 0.0
H613 H 0.73404 0.07096 0.40598 0.0
H614 H 0.72315 0.07291 0.36666 0.0
H615 H 0.57368 0.00206 0.34963 0.0
H616 H 0.53489 0.01273 0.24155 0.0
H617 H 0.55532 0.0322 0.27934 0.0
C618 C 0.54723 0.52717 0.7714 0.0
C619 C 0.58617 0.54481 0.78433 0.0
C620 C 0.5523 0.53228 0.74857 0.0
C621 C 0.63721 0.59059 0.70208 0.0
H622 H 0.55307 0.49798 0.67105 0.0
C623 C 0.66882 0.56991 0.6124 0.0
C624 C 0.63024 0.54838 0.59937 0.0
C625 C 0.66338 0.57469 0.63442 0.0
C626 C 0.57639 0.52429 0.67938 0.0
H627 H 0.661 0.58284 0.78376 0.0
H628 H 0.67003 0.59104 0.74373 0.0
H629 H 0.54385 0.49662 0.71058 0.0
H630 H 0.55629 0.51564 0.59833 0.0
H631 H 0.54632 0.52435 0.6368 0.0
H632 H 0.67053 0.61781 0.67068 0.0
C633 C 0.63552 0.57371 0.7512 0.0
C634 C 0.57109 0.52354 0.70211 0.0
C635 C 0.6304 0.56884 0.77411 0.0
C636 C 0.58636 0.53274 0.60823 0.0
C637 C 0.58079 0.53744 0.6302 0.0
C638 C 0.64266 0.59128 0.67927 0.0
C639 C 0.59646 0.55483 0.73813 0.0
C640 C 0.60146 0.5566 0.71378 0.0
C641 C 0.6191 0.55766 0.6437 0.0
C642 C 0.61234 0.55807 0.6677 0.0
H643 H 0.51274 0.50889 0.77892 0.0
H644 H 0.5215 0.51805 0.73907 0.0
H645 H 0.66092 0.61667 0.71052 0.0
H646 H 0.70279 0.58165 0.60572 0.0
H647 H 0.69347 0.59005 0.64443 0.0
C648 C 0.66731 0.05638 0.54783 0.0
C649 C 0.62417 0.04044 0.53891 0.0
C650 C 0.67113 0.05423 0.57056 0.0
C651 C 0.6018 0.00432 0.62254 0.0
H652 H 0.69903 0.09877 0.64877 0.0
C653 C 0.58885 0.03873 0.71085 0.0
C654 C 0.62897 0.06043 0.72286 0.0
C655 C 0.59114 0.0308 0.68915 0.0
C656 C 0.6722 0.07191 0.64175 0.0
H657 H 0.55109 0.00883 0.54654 0.0
H658 H 0.55768 0.00545 0.58607 0.0
H659 H 0.69817 0.09522 0.609 0.0
H660 H 0.70235 0.08953 0.72257 0.0
H661 H 0.70685 0.07568 0.68438 0.0
H662 H 0.57493 0.9815 0.6553 0.0
C663 C 0.58856 0.01921 0.57564 0.0
C664 C 0.6717 0.06987 0.61892 0.0
C665 C 0.58481 0.02143 0.55299 0.0
C666 C 0.67117 0.07273 0.71337 0.0
C667 C 0.67364 0.065 0.69159 0.0
C668 C 0.60225 0.00639 0.64536 0.0
C669 C 0.63182 0.03597 0.58475 0.0
C670 C 0.63583 0.03637 0.60901 0.0
C671 C 0.63376 0.04463 0.67909 0.0
C672 C 0.63681 0.04051 0.6552 0.0
H673 H 0.6982 0.07114 0.5373 0.0
H674 H 0.70488 0.06712 0.57704 0.0
H675 H 0.57417 0.97784 0.61545 0.0
H676 H 0.55612 0.02922 0.71807 0.0
H677 H 0.55988 0.01544 0.67995 0.0
C678 C 0.58455 0.53814 0.91529 0.0
C679 C 0.62714 0.56976 0.90589 0.0
C680 C 0.58071 0.52734 0.93752 0.0
C681 C 0.63523 0.56753 0.9896 0.0
H682 H 0.56848 0.46193 0.01087 0.0
C683 C 0.63544 0.53169 0.08038 0.0
C684 C 0.59322 0.50089 0.09032 0.0
C685 C 0.64061 0.53709 0.05759 0.0
C686 C 0.58687 0.49151 0.0052 0.0
H687 H 0.69922 0.61443 0.91209 0.0
H688 H 0.6925 0.59579 0.95092 0.0
H689 H 0.57482 0.47727 0.9714 0.0
H690 H 0.52389 0.45059 0.08476 0.0
H691 H 0.53217 0.46024 0.04459 0.0
H692 H 0.64649 0.58197 0.02315 0.0
C693 C 0.66203 0.57948 0.94119 0.0
C694 C 0.59052 0.50026 0.98262 0.0
C695 C 0.66591 0.59009 0.91897 0.0
C696 C 0.55673 0.47443 0.07721 0.0
C697 C 0.56164 0.48 0.05432 0.0
C698 C 0.63132 0.5588 0.01209 0.0
C699 C 0.61933 0.54819 0.95075 0.0
C700 C 0.61498 0.53841 0.97461 0.0
C701 C 0.60334 0.512 0.04427 0.0
C702 C 0.60738 0.52074 0.0202 0.0
H703 H 0.55411 0.52199 0.90553 0.0
H704 H 0.54731 0.50329 0.94449 0.0
H705 H 0.65349 0.59711 0.98396 0.0
H706 H 0.664 0.55209 0.09038 0.0
H707 H 0.67358 0.56143 0.05043 0.0
C708 C 1.0488 0.43993 0.23483 0.0
C709 C 0.07052 0.47314 0.22112 0.0
C710 C 1.04396 0.44138 0.25744 0.0
C711 C 1.05695 0.5055 0.30041 0.0
H712 H 0.07157 0.442 0.33828 0.0
C713 C 0.06963 0.52356 0.3935 0.0
C714 C 0.10163 0.52115 0.40384 0.0
C715 C 1.05628 0.51096 0.37228 0.0
C716 C 0.06784 0.46024 0.32799 0.0
H717 H 0.10368 0.53379 0.21998 0.0
H718 H 0.09767 0.53699 0.25942 0.0
H719 H 0.06832 0.43497 0.29899 0.0
H720 H 0.1447 0.50381 0.40086 0.0
H721 H 0.12359 0.4834 0.36339 0.0
H722 H 1.06037 0.53299 0.32915 0.0
C723 C 0.08273 0.50939 0.25289 0.0
C724 C 1.0651 0.45571 0.30536 0.0
C725 C 0.08661 0.50772 0.23024 0.0
C726 C 0.11938 0.50521 0.39307 0.0
C727 C 0.10696 0.4934 0.37167 0.0
C728 C 1.06071 0.51061 0.32297 0.0
C729 C 1.06168 0.4763 0.26687 0.0
C730 C 1.0604 0.47873 0.29118 0.0
C731 C 0.07587 0.49679 0.36077 0.0
C732 C 1.06698 0.48849 0.33707 0.0
H733 H 1.03566 0.41282 0.22808 0.0
H734 H 1.02657 0.4151 0.2675 0.0
H735 H 1.05219 0.52317 0.29019 0.0
H736 H 1.05595 0.53608 0.40171 0.0
H737 H 1.03147 0.51323 0.36474 0.0
loop_
_geom_bond_atom_site_label_1
_geom_bond_atom_site_label_2
_geom_bond_distance
_geom_bond_site_symmetry_2
_ccdc_geom_bond_type
Ho0 C3 2.811 . S
Ho0 O20 2.322 . S
Ho0 O22 2.378 . S
Ho0 O23 2.524 . S
Ho0 O24 2.381 . S
Ho0 O25 2.669 1_455 S
Ho0 O27 2.346 1_455 S
Ho0 O31 2.305 . S
Ho1 C12 2.811 . S
Ho1 O21 2.346 1_655 S
Ho1 O25 2.305 . S
Ho1 O26 2.322 . S
Ho1 O28 2.378 . S
Ho1 O29 2.524 . S
Ho1 O30 2.381 . S
Ho1 O31 2.669 1_655 S
C2 O20 1.259 . S
C2 O21 1.268 . S
C3 Ho0 2.811 . S
C3 C4 1.488 . S
C3 O22 1.215 . S
C3 O23 1.289 . S
C4 C3 1.488 . S
C4 C5 1.348 . S
C4 C9 1.413 . S
C5 C4 1.348 . S
C5 C6 1.442 . S
C5 H32 0.930 . S
C6 C5 1.442 . S
C6 C7 1.381 . S
C6 H33 0.931 . S
C7 C6 1.381 . S
C7 C8 1.321 . S
C8 C7 1.321 . S
C8 C9 1.403 . S
C8 H34 0.934 . S
C9 C4 1.413 . S
C9 C8 1.403 . S
C9 H35 0.930 . S
C10 O24 1.268 1_655 S
C10 O25 1.260 . S
C11 O26 1.259 . S
C11 O27 1.268 . S
C12 Ho1 2.811 . S
C12 C13 1.488 . S
C12 O28 1.215 . S
C12 O29 1.289 . S
C13 C12 1.488 . S
C13 C14 1.348 . S
C13 C18 1.413 . S
C14 C13 1.348 . S
C14 C15 1.442 . S
C14 H36 0.930 . S
C15 C14 1.442 . S
C15 C16 1.381 . S
C15 H37 0.931 . S
C16 C15 1.381 . S
C16 C17 1.321 . S
C17 C16 1.321 . S
C17 C18 1.403 . S
C17 H38 0.934 . S
C18 C13 1.413 . S
C18 C17 1.403 . S
C18 H39 0.930 . S
C19 O30 1.275 1_455 S
C19 O31 1.256 . S
O20 Ho0 2.322 . S
O20 C2 1.259 . S
O21 Ho1 2.346 1_455 S
O21 C2 1.268 . S
O22 Ho0 2.378 . S
O22 C3 1.215 . S
O23 Ho0 2.524 . S
O23 C3 1.289 . S
O24 Ho0 2.381 . S
O24 C10 1.268 1_455 S
O25 Ho0 2.669 1_655 S
O25 Ho1 2.305 . S
O25 C10 1.260 . S
O26 Ho1 2.322 . S
O26 C11 1.259 . S
O27 Ho0 2.346 1_655 S
O27 C11 1.268 . S
O28 Ho1 2.378 . S
O28 C12 1.215 . S
O29 Ho1 2.524 . S
O29 C12 1.289 . S
O30 Ho1 2.381 . S
O30 C19 1.275 1_655 S
O31 Ho0 2.305 . S
O31 Ho1 2.669 1_455 S
O31 C19 1.256 . S
H32 C5 0.930 . S
H33 C6 0.931 . S
H34 C8 0.934 . S
H35 C9 0.930 . S
H36 C14 0.930 . S
H37 C15 0.931 . S
H38 C17 0.934 . S
H39 C18 0.930 . S
Ho40 C43 2.811 1_545 S
Ho40 O60 2.322 1_545 S
Ho40 O62 2.378 1_545 S
Ho40 O63 2.524 1_545 S
Ho40 O64 2.381 . S
Ho40 O65 2.669 . S
Ho40 O67 2.346 . S
Ho40 O71 2.305 . S
Ho41 C52 2.811 . S
Ho41 O61 2.346 1_545 S
Ho41 O65 2.305 . S
Ho41 O66 2.322 . S
Ho41 O68 2.378 . S
Ho41 O69 2.524 . S
Ho41 O70 2.381 . S
Ho41 O71 2.669 . S
C42 O60 1.259 . S
C42 O61 1.268 . S
C43 Ho40 2.811 1_565 S
C43 C44 1.488 . S
C43 O62 1.215 . S
C43 O63 1.289 . S
C44 C43 1.488 . S
C44 C45 1.348 . S
C44 C49 1.413 . S
C45 C44 1.348 . S
C45 C46 1.442 . S
C45 H72 0.930 . S
C46 C45 1.442 . S
C46 C47 1.381 . S
C46 H73 0.931 . S
C47 C46 1.381 . S
C47 C48 1.321 . S
C48 C47 1.321 . S
C48 C49 1.403 . S
C48 H74 0.934 . S
C49 C44 1.413 . S
C49 C48 1.403 . S
C49 H75 0.930 . S
C50 O64 1.275 . S
C50 O65 1.256 . S
C51 O66 1.259 . S
C51 O67 1.268 . S
C52 Ho41 2.811 . S
C52 C53 1.488 . S
C52 O68 1.215 . S
C52 O69 1.289 . S
C53 C52 1.488 . S
C53 C54 1.348 . S
C53 C58 1.413 . S
C54 C53 1.348 . S
C54 C55 1.442 . S
C54 H76 0.930 . S
C55 C54 1.442 . S
C55 C56 1.381 . S
C55 H77 0.931 . S
C56 C55 1.381 . S
C56 C57 1.321 . S
C57 C56 1.321 . S
C57 C58 1.403 . S
C57 H78 0.934 . S
C58 C53 1.413 . S
C58 C57 1.403 . S
C58 H79 0.930 . S
C59 O70 1.275 . S
C59 O71 1.256 . S
O60 Ho40 2.322 1_565 S
O60 C42 1.259 . S
O61 Ho41 2.346 1_565 S
O61 C42 1.268 . S
O62 Ho40 2.378 1_565 S
O62 C43 1.215 . S
O63 Ho40 2.524 1_565 S
O63 C43 1.289 . S
O64 Ho40 2.381 . S
O64 C50 1.275 . S
O65 Ho40 2.669 . S
O65 Ho41 2.305 . S
O65 C50 1.256 . S
O66 Ho41 2.322 . S
O66 C51 1.259 . S
O67 Ho40 2.346 . S
O67 C51 1.268 . S
O68 Ho41 2.378 . S
O68 C52 1.215 . S
O69 Ho41 2.524 . S
O69 C52 1.289 . S
O70 Ho41 2.381 . S
O70 C59 1.275 . S
O71 Ho40 2.305 . S
O71 Ho41 2.669 . S
O71 C59 1.256 . S
H72 C45 0.930 . S
H73 C46 0.931 . S
H74 C48 0.934 . S
H75 C49 0.930 . S
H76 C54 0.930 . S
H77 C55 0.931 . S
H78 C57 0.934 . S
H79 C58 0.930 . S
Ho80 C83 2.811 . S
Ho80 O100 2.322 . S
Ho80 O102 2.378 . S
Ho80 O103 2.524 . S
Ho80 O104 2.381 . S
Ho80 O105 2.669 . S
Ho80 O107 2.346 . S
Ho80 O111 2.305 . S
Ho81 C92 2.811 . S
Ho81 O101 2.346 . S
Ho81 O105 2.305 . S
Ho81 O106 2.322 . S
Ho81 O108 2.378 . S
Ho81 O109 2.524 . S
Ho81 O110 2.381 . S
Ho81 O111 2.669 . S
C82 O100 1.259 . S
C82 O101 1.268 . S
C83 Ho80 2.811 . S
C83 C84 1.488 . S
C83 O102 1.215 . S
C83 O103 1.289 . S
C84 C83 1.488 . S
C84 C85 1.348 . S
C84 C89 1.413 . S
C85 C84 1.348 . S
C85 C86 1.442 . S
C85 H112 0.930 . S
C86 C85 1.442 . S
C86 C87 1.381 . S
C86 H113 0.931 . S
C87 C86 1.381 . S
C87 C88 1.321 . S
C88 C87 1.321 . S
C88 C89 1.403 . S
C88 H114 0.934 . S
C89 C84 1.413 . S
C89 C88 1.403 . S
C89 H115 0.930 . S
C90 O104 1.275 . S
C90 O105 1.256 . S
C91 O106 1.259 . S
C91 O107 1.268 . S
C92 Ho81 2.811 . S
C92 C93 1.488 . S
C92 O108 1.215 . S
C92 O109 1.289 . S
C93 C92 1.488 . S
C93 C94 1.348 . S
C93 C98 1.413 . S
C94 C93 1.348 . S
C94 C95 1.442 . S
C94 H116 0.930 . S
C95 C94 1.442 . S
C95 C96 1.381 . S
C95 H117 0.931 . S
C96 C95 1.381 . S
C96 C97 1.321 . S
C97 C96 1.321 . S
C97 C98 1.403 . S
C97 H118 0.934 . S
C98 C93 1.413 . S
C98 C97 1.403 . S
C98 H119 0.930 . S
C99 O110 1.275 . S
C99 O111 1.256 . S
O100 Ho80 2.322 . S
O100 C82 1.259 . S
O101 Ho81 2.346 . S
O101 C82 1.268 . S
O102 Ho80 2.378 . S
O102 C83 1.215 . S
O103 Ho80 2.524 . S
O103 C83 1.289 . S
O104 Ho80 2.381 . S
O104 C90 1.275 . S
O105 Ho80 2.669 . S
O105 Ho81 2.305 . S
O105 C90 1.256 . S
O106 Ho81 2.322 . S
O106 C91 1.259 . S
O107 Ho80 2.346 . S
O107 C91 1.268 . S
O108 Ho81 2.378 . S
O108 C92 1.215 . S
O109 Ho81 2.524 . S
O109 C92 1.289 . S
O110 Ho81 2.381 . S
O110 C99 1.275 . S
O111 Ho80 2.305 . S
O111 Ho81 2.669 . S
O111 C99 1.256 . S
H112 C85 0.930 . S
H113 C86 0.931 . S
H114 C88 0.934 . S
H115 C89 0.930 . S
H116 C94 0.930 . S
H117 C95 0.931 . S
H118 C97 0.934 . S
H119 C98 0.930 . S
C120 N121 1.317 1_565 S
C120 N122 1.348 . S
C120 C123 1.485 1_565 S
N121 C120 1.317 1_545 S
N121 N125 1.370 . S
N122 C120 1.348 . S
N122 C124 1.346 . S
C123 C120 1.485 1_545 S
C123 H127 0.960 . S
C123 H128 0.961 1_545 S
C123 H129 0.960 . S
C124 N122 1.346 . S
C124 N125 1.307 1_565 S
C124 C126 1.486 . S
N125 N121 1.370 . S
N125 C124 1.307 1_545 S
C126 C124 1.486 . S
C126 H130 0.960 . S
C126 H131 0.960 . S
C126 H132 0.959 . S
H127 C123 0.960 . S
H128 C123 0.961 1_565 S
H129 C123 0.960 . S
H130 C126 0.960 . S
H131 C126 0.960 . S
H132 C126 0.959 . S
C133 N134 1.317 . S
C133 N135 1.348 . S
C133 C136 1.485 . S
N134 C133 1.317 . S
N134 N138 1.370 . S
N135 C133 1.348 . S
N135 C137 1.346 . S
C136 C133 1.485 . S
C136 H140 0.960 . S
C136 H141 0.961 . S
C136 H142 0.960 . S
C137 N135 1.346 . S
C137 N138 1.307 . S
C137 C139 1.486 . S
N138 N134 1.370 . S
N138 C137 1.307 . S
C139 C137 1.486 . S
C139 H143 0.960 . S
C139 H144 0.960 . S
C139 H145 0.959 . S
H140 C136 0.960 . S
H141 C136 0.961 . S
H142 C136 0.960 . S
H143 C139 0.960 . S
H144 C139 0.960 . S
H145 C139 0.959 . S
C146 N147 1.317 . S
C146 N148 1.348 . S
C146 C149 1.485 . S
N147 C146 1.317 . S
N147 N151 1.370 . S
N148 C146 1.348 . S
N148 C150 1.346 . S
C149 C146 1.485 . S
C149 H153 0.960 . S
C149 H154 0.961 . S
C149 H155 0.960 . S
C150 N148 1.346 . S
C150 N151 1.307 . S
C150 C152 1.486 1_455 S
N151 N147 1.370 . S
N151 C150 1.307 . S
C152 C150 1.486 1_655 S
C152 H156 0.960 . S
C152 H157 0.960 . S
C152 H158 0.959 1_655 S
H153 C149 0.960 . S
H154 C149 0.961 . S
H155 C149 0.960 . S
H156 C152 0.960 . S
H157 C152 0.960 . S
H158 C152 0.959 1_455 S
C159 N160 1.317 . S
C159 N161 1.348 . S
C159 C162 1.485 . S
N160 C159 1.317 . S
N160 N164 1.370 . S
N161 C159 1.348 . S
N161 C163 1.346 . S
C162 C159 1.485 . S
C162 H166 0.960 . S
C162 H167 0.961 . S
C162 H168 0.960 . S
C163 N161 1.346 . S
C163 N164 1.307 . S
C163 C165 1.486 . S
N164 N160 1.370 . S
N164 C163 1.307 . S
C165 C163 1.486 . S
C165 H169 0.960 . S
C165 H170 0.960 . S
C165 H171 0.959 . S
H166 C162 0.960 . S
H167 C162 0.961 . S
H168 C162 0.960 . S
H169 C165 0.960 . S
H170 C165 0.960 . S
H171 C165 0.959 . S
C172 N173 1.317 . S
C172 N174 1.348 . S
C172 C175 1.485 . S
N173 C172 1.317 . S
N173 N177 1.370 . S
N174 C172 1.348 . S
N174 C176 1.346 . S
C175 C172 1.485 . S
C175 H179 0.960 . S
C175 H180 0.961 . S
C175 H181 0.960 . S
C176 N174 1.346 . S
C176 N177 1.307 . S
C176 C178 1.486 . S
N177 N173 1.370 . S
N177 C176 1.307 . S
C178 C176 1.486 . S
C178 H182 0.960 . S
C178 H183 0.960 . S
C178 H184 0.959 . S
H179 C175 0.960 . S
H180 C175 0.961 . S
H181 C175 0.960 . S
H182 C178 0.960 . S
H183 C178 0.960 . S
H184 C178 0.959 . S
C185 N186 1.317 . S
C185 N187 1.348 . S
C185 C188 1.485 . S
N186 C185 1.317 . S
N186 N190 1.370 . S
N187 C185 1.348 . S
N187 C189 1.346 . S
C188 C185 1.485 . S
C188 H192 0.960 . S
C188 H193 0.961 . S
C188 H194 0.960 . S
C189 N187 1.346 . S
C189 N190 1.307 . S
C189 C191 1.486 . S
N190 N186 1.370 . S
N190 C189 1.307 . S
C191 C189 1.486 . S
C191 H195 0.960 . S
C191 H196 0.960 . S
C191 H197 0.959 . S
H192 C188 0.960 . S
H193 C188 0.961 . S
H194 C188 0.960 . S
H195 C191 0.960 . S
H196 C191 0.960 . S
H197 C191 0.959 . S
C198 C199 1.349 . S
C198 C200 1.327 . S
C198 H223 0.950 . S
C199 C198 1.349 . S
C199 C215 1.349 . S
C200 C198 1.327 . S
C200 C219 1.429 . S
C200 H224 0.950 . S
C201 C218 1.574 . S
C201 C220 1.368 . S
C201 H225 0.949 . S
H202 C206 0.949 . S
C203 C204 1.349 . S
C203 C205 1.327 . S
C203 H226 0.950 . S
C204 C203 1.349 . S
C204 C216 1.349 . S
C205 C203 1.327 . S
C205 C221 1.429 . S
C205 H227 0.950 . S
C206 H202 0.949 . S
C206 C214 1.574 . S
C206 C222 1.368 . S
H207 C215 0.950 . S
H208 C213 0.950 . S
H209 C214 0.949 . S
H210 C216 0.950 . S
H211 C217 0.950 . S
H212 C218 0.949 . S
C213 H208 0.950 . S
C213 C215 1.327 . S
C213 C219 1.429 . S
C214 C206 1.574 . S
C214 H209 0.949 . S
C214 C220 1.368 . S
C215 C199 1.349 . S
C215 H207 0.950 . S
C215 C213 1.327 . S
C216 C204 1.349 . S
C216 H210 0.950 . S
C216 C217 1.327 . S
C217 H211 0.950 . S
C217 C216 1.327 . S
C217 C221 1.429 . S
C218 C201 1.574 . S
C218 H212 0.949 . S
C218 C222 1.368 . S
C219 C200 1.429 . S
C219 C213 1.429 . S
C219 C220 1.523 . S
C220 C201 1.368 . S
C220 C214 1.368 . S
C220 C219 1.523 . S
C221 C205 1.429 . S
C221 C217 1.429 . S
C221 C222 1.523 . S
C222 C206 1.368 . S
C222 C218 1.368 . S
C222 C221 1.523 . S
H223 C198 0.950 . S
H224 C200 0.950 . S
H225 C201 0.949 . S
H226 C203 0.950 . S
H227 C205 0.950 . S
C228 C229 1.349 . S
C228 C230 1.327 . S
C228 H253 0.950 . S
C229 C228 1.349 . S
C229 C245 1.349 . S
C230 C228 1.327 . S
C230 C249 1.429 . S
C230 H254 0.950 . S
C231 C248 1.574 . S
C231 C250 1.368 . S
C231 H255 0.949 . S
H232 C236 0.949 . S
C233 C234 1.349 . S
C233 C235 1.327 . S
C233 H256 0.950 . S
C234 C233 1.349 . S
C234 C246 1.349 . S
C235 C233 1.327 . S
C235 C251 1.429 . S
C235 H257 0.950 . S
C236 H232 0.949 . S
C236 C244 1.574 . S
C236 C252 1.368 . S
H237 C245 0.950 . S
H238 C243 0.950 . S
H239 C244 0.949 . S
H240 C246 0.950 . S
H241 C247 0.950 . S
H242 C248 0.949 . S
C243 H238 0.950 . S
C243 C245 1.327 . S
C243 C249 1.429 . S
C244 C236 1.574 . S
C244 H239 0.949 . S
C244 C250 1.368 . S
C245 C229 1.349 . S
C245 H237 0.950 . S
C245 C243 1.327 . S
C246 C234 1.349 . S
C246 H240 0.950 . S
C246 C247 1.327 . S
C247 H241 0.950 . S
C247 C246 1.327 . S
C247 C251 1.429 . S
C248 C231 1.574 . S
C248 H242 0.949 . S
C248 C252 1.368 . S
C249 C230 1.429 . S
C249 C243 1.429 . S
C249 C250 1.523 . S
C250 C231 1.368 . S
C250 C244 1.368 . S
C250 C249 1.523 . S
C251 C235 1.429 . S
C251 C247 1.429 . S
C251 C252 1.523 . S
C252 C236 1.368 . S
C252 C248 1.368 . S
C252 C251 1.523 . S
H253 C228 0.950 . S
H254 C230 0.950 . S
H255 C231 0.949 . S
H256 C233 0.950 . S
H257 C235 0.950 . S
C258 C259 1.349 . S
C258 C260 1.327 . S
C258 H283 0.950 . S
C259 C258 1.349 . S
C259 C275 1.349 . S
C260 C258 1.327 . S
C260 C279 1.429 . S
C260 H284 0.950 . S
C261 C278 1.574 . S
C261 C280 1.368 . S
C261 H285 0.949 . S
H262 C266 0.949 . S
C263 C264 1.349 1_565 S
C263 C265 1.327 . S
C263 H286 0.950 . S
C264 C263 1.349 1_545 S
C264 C276 1.349 . S
C265 C263 1.327 . S
C265 C281 1.429 . S
C265 H287 0.950 . S
C266 H262 0.949 . S
C266 C274 1.574 . S
C266 C282 1.368 . S
H267 C275 0.950 . S
H268 C273 0.950 . S
H269 C274 0.949 . S
H270 C276 0.950 . S
H271 C277 0.950 1_545 S
H272 C278 0.949 . S
C273 H268 0.950 . S
C273 C275 1.327 . S
C273 C279 1.429 . S
C274 C266 1.574 . S
C274 H269 0.949 . S
C274 C280 1.368 . S
C275 C259 1.349 . S
C275 H267 0.950 . S
C275 C273 1.327 . S
C276 C264 1.349 . S
C276 H270 0.950 . S
C276 C277 1.327 1_545 S
C277 H271 0.950 1_565 S
C277 C276 1.327 1_565 S
C277 C281 1.429 . S
C278 C261 1.574 . S
C278 H272 0.949 . S
C278 C282 1.368 . S
C279 C260 1.429 . S
C279 C273 1.429 . S
C279 C280 1.523 . S
C280 C261 1.368 . S
C280 C274 1.368 . S
C280 C279 1.523 . S
C281 C265 1.429 . S
C281 C277 1.429 . S
C281 C282 1.523 . S
C282 C266 1.368 . S
C282 C278 1.368 . S
C282 C281 1.523 . S
H283 C258 0.950 . S
H284 C260 0.950 . S
H285 C261 0.949 . S
H286 C263 0.950 . S
H287 C265 0.950 . S
C288 C289 1.349 . S
C288 C290 1.327 . S
C288 H313 0.950 . S
C289 C288 1.349 . S
C289 C305 1.349 . S
C290 C288 1.327 . S
C290 C309 1.429 . S
C290 H314 0.950 . S
C291 C308 1.574 . S
C291 C310 1.368 . S
C291 H315 0.949 . S
H292 C296 0.949 . S
C293 C294 1.349 . S
C293 C295 1.327 . S
C293 H316 0.950 . S
C294 C293 1.349 . S
C294 C306 1.349 . S
C295 C293 1.327 . S
C295 C311 1.429 . S
C295 H317 0.950 . S
C296 H292 0.949 . S
C296 C304 1.574 . S
C296 C312 1.368 . S
H297 C305 0.950 . S
H298 C303 0.950 . S
H299 C304 0.949 . S
H300 C306 0.950 . S
H301 C307 0.950 . S
H302 C308 0.949 . S
C303 H298 0.950 . S
C303 C305 1.327 . S
C303 C309 1.429 . S
C304 C296 1.574 . S
C304 H299 0.949 . S
C304 C310 1.368 . S
C305 C289 1.349 . S
C305 H297 0.950 . S
C305 C303 1.327 . S
C306 C294 1.349 . S
C306 H300 0.950 . S
C306 C307 1.327 . S
C307 H301 0.950 . S
C307 C306 1.327 . S
C307 C311 1.429 . S
C308 C291 1.574 . S
C308 H302 0.949 . S
C308 C312 1.368 . S
C309 C290 1.429 . S
C309 C303 1.429 . S
C309 C310 1.523 . S
C310 C291 1.368 . S
C310 C304 1.368 . S
C310 C309 1.523 . S
C311 C295 1.429 . S
C311 C307 1.429 . S
C311 C312 1.523 . S
C312 C296 1.368 . S
C312 C308 1.368 . S
C312 C311 1.523 . S
H313 C288 0.950 . S
H314 C290 0.950 . S
H315 C291 0.949 . S
H316 C293 0.950 . S
H317 C295 0.950 . S
C318 C319 1.349 . S
C318 C320 1.327 . S
C318 H343 0.950 . S
C319 C318 1.349 . S
C319 C335 1.349 . S
C320 C318 1.327 . S
C320 C339 1.429 . S
C320 H344 0.950 . S
C321 C338 1.574 . S
C321 C340 1.368 . S
C321 H345 0.949 . S
H322 C326 0.949 . S
C323 C324 1.349 . S
C323 C325 1.327 . S
C323 H346 0.950 . S
C324 C323 1.349 . S
C324 C336 1.349 . S
C325 C323 1.327 . S
C325 C341 1.429 . S
C325 H347 0.950 . S
C326 H322 0.949 . S
C326 C334 1.574 . S
C326 C342 1.368 . S
H327 C335 0.950 . S
H328 C333 0.950 . S
H329 C334 0.949 . S
H330 C336 0.950 . S
H331 C337 0.950 . S
H332 C338 0.949 . S
C333 H328 0.950 . S
C333 C335 1.327 . S
C333 C339 1.429 . S
C334 C326 1.574 . S
C334 H329 0.949 . S
C334 C340 1.368 . S
C335 C319 1.349 . S
C335 H327 0.950 . S
C335 C333 1.327 . S
C336 C324 1.349 . S
C336 H330 0.950 . S
C336 C337 1.327 . S
C337 H331 0.950 . S
C337 C336 1.327 . S
C337 C341 1.429 . S
C338 C321 1.574 . S
C338 H332 0.949 . S
C338 C342 1.368 . S
C339 C320 1.429 . S
C339 C333 1.429 . S
C339 C340 1.523 . S
C340 C321 1.368 . S
C340 C334 1.368 . S
C340 C339 1.523 . S
C341 C325 1.429 . S
C341 C337 1.429 . S
C341 C342 1.523 . S
C342 C326 1.368 . S
C342 C338 1.368 . S
C342 C341 1.523 . S
H343 C318 0.950 . S
H344 C320 0.950 . S
H345 C321 0.949 . S
H346 C323 0.950 . S
H347 C325 0.950 . S
C348 C349 1.349 . S
C348 C350 1.327 . S
C348 H373 0.950 . S
C349 C348 1.349 . S
C349 C365 1.349 . S
C350 C348 1.327 . S
C350 C369 1.429 . S
C350 H374 0.950 . S
C351 C368 1.574 . S
C351 C370 1.368 . S
C351 H375 0.949 . S
H352 C356 0.949 . S
C353 C354 1.349 . S
C353 C355 1.327 . S
C353 H376 0.950 . S
C354 C353 1.349 . S
C354 C366 1.349 . S
C355 C353 1.327 . S
C355 C371 1.429 . S
C355 H377 0.950 . S
C356 H352 0.949 . S
C356 C364 1.574 . S
C356 C372 1.368 . S
H357 C365 0.950 . S
H358 C363 0.950 . S
H359 C364 0.949 . S
H360 C366 0.950 . S
H361 C367 0.950 . S
H362 C368 0.949 . S
C363 H358 0.950 . S
C363 C365 1.327 . S
C363 C369 1.429 . S
C364 C356 1.574 . S
C364 H359 0.949 . S
C364 C370 1.368 . S
C365 C349 1.349 . S
C365 H357 0.950 . S
C365 C363 1.327 . S
C366 C354 1.349 . S
C366 H360 0.950 . S
C366 C367 1.327 . S
C367 H361 0.950 . S
C367 C366 1.327 . S
C367 C371 1.429 . S
C368 C351 1.574 . S
C368 H362 0.949 . S
C368 C372 1.368 . S
C369 C350 1.429 . S
C369 C363 1.429 . S
C369 C370 1.523 . S
C370 C351 1.368 . S
C370 C364 1.368 . S
C370 C369 1.523 . S
C371 C355 1.429 . S
C371 C367 1.429 . S
C371 C372 1.523 . S
C372 C356 1.368 . S
C372 C368 1.368 . S
C372 C371 1.523 . S
H373 C348 0.950 . S
H374 C350 0.950 . S
H375 C351 0.949 . S
H376 C353 0.950 . S
H377 C355 0.950 . S
C378 C379 1.349 . S
C378 C380 1.327 . S
C378 H403 0.950 . S
C379 C378 1.349 . S
C379 C395 1.349 . S
C380 C378 1.327 . S
C380 C399 1.429 . S
C380 H404 0.950 . S
C381 C398 1.574 . S
C381 C400 1.368 . S
C381 H405 0.949 . S
H382 C386 0.949 . S
C383 C384 1.349 . S
C383 C385 1.327 . S
C383 H406 0.950 . S
C384 C383 1.349 . S
C384 C396 1.349 . S
C385 C383 1.327 . S
C385 C401 1.429 . S
C385 H407 0.950 . S
C386 H382 0.949 . S
C386 C394 1.574 . S
C386 C402 1.368 . S
H387 C395 0.950 . S
H388 C393 0.950 . S
H389 C394 0.949 . S
H390 C396 0.950 . S
H391 C397 0.950 . S
H392 C398 0.949 . S
C393 H388 0.950 . S
C393 C395 1.327 . S
C393 C399 1.429 . S
C394 C386 1.574 . S
C394 H389 0.949 . S
C394 C400 1.368 . S
C395 C379 1.349 . S
C395 H387 0.950 . S
C395 C393 1.327 . S
C396 C384 1.349 . S
C396 H390 0.950 . S
C396 C397 1.327 . S
C397 H391 0.950 . S
C397 C396 1.327 . S
C397 C401 1.429 . S
C398 C381 1.574 . S
C398 H392 0.949 . S
C398 C402 1.368 . S
C399 C380 1.429 . S
C399 C393 1.429 . S
C399 C400 1.523 . S
C400 C381 1.368 . S
C400 C394 1.368 . S
C400 C399 1.523 . S
C401 C385 1.429 . S
C401 C397 1.429 . S
C401 C402 1.523 . S
C402 C386 1.368 . S
C402 C398 1.368 . S
C402 C401 1.523 . S
H403 C378 0.950 . S
H404 C380 0.950 . S
H405 C381 0.949 . S
H406 C383 0.950 . S
H407 C385 0.950 . S
C408 C409 1.349 . S
C408 C410 1.327 . S
C408 H433 0.950 . S
C409 C408 1.349 . S
C409 C425 1.349 . S
C410 C408 1.327 . S
C410 C429 1.429 . S
C410 H434 0.950 . S
C411 C428 1.574 . S
C411 C430 1.368 . S
C411 H435 0.949 . S
H412 C416 0.949 . S
C413 C414 1.349 . S
C413 C415 1.327 . S
C413 H436 0.950 . S
C414 C413 1.349 . S
C414 C426 1.349 . S
C415 C413 1.327 . S
C415 C431 1.429 . S
C415 H437 0.950 . S
C416 H412 0.949 . S
C416 C424 1.574 . S
C416 C432 1.368 . S
H417 C425 0.950 . S
H418 C423 0.950 . S
H419 C424 0.949 . S
H420 C426 0.950 . S
H421 C427 0.950 . S
H422 C428 0.949 . S
C423 H418 0.950 . S
C423 C425 1.327 . S
C423 C429 1.429 . S
C424 C416 1.574 . S
C424 H419 0.949 . S
C424 C430 1.368 . S
C425 C409 1.349 . S
C425 H417 0.950 . S
C425 C423 1.327 . S
C426 C414 1.349 . S
C426 H420 0.950 . S
C426 C427 1.327 . S
C427 H421 0.950 . S
C427 C426 1.327 . S
C427 C431 1.429 . S
C428 C411 1.574 . S
C428 H422 0.949 . S
C428 C432 1.368 . S
C429 C410 1.429 . S
C429 C423 1.429 . S
C429 C430 1.523 . S
C430 C411 1.368 . S
C430 C424 1.368 . S
C430 C429 1.523 . S
C431 C415 1.429 . S
C431 C427 1.429 . S
C431 C432 1.523 . S
C432 C416 1.368 . S
C432 C428 1.368 . S
C432 C431 1.523 . S
H433 C408 0.950 . S
H434 C410 0.950 . S
H435 C411 0.949 . S
H436 C413 0.950 . S
H437 C415 0.950 . S
C438 C439 1.349 . S
C438 C440 1.327 . S
C438 H463 0.950 . S
C439 C438 1.349 . S
C439 C455 1.349 . S
C440 C438 1.327 . S
C440 C459 1.429 . S
C440 H464 0.950 . S
C441 C458 1.574 . S
C441 C460 1.368 . S
C441 H465 0.949 . S
H442 C446 0.949 . S
C443 C444 1.349 . S
C443 C445 1.327 . S
C443 H466 0.950 . S
C444 C443 1.349 . S
C444 C456 1.349 . S
C445 C443 1.327 . S
C445 C461 1.429 . S
C445 H467 0.950 . S
C446 H442 0.949 . S
C446 C454 1.574 . S
C446 C462 1.368 . S
H447 C455 0.950 . S
H448 C453 0.950 . S
H449 C454 0.949 . S
H450 C456 0.950 . S
H451 C457 0.950 . S
H452 C458 0.949 . S
C453 H448 0.950 . S
C453 C455 1.327 . S
C453 C459 1.429 . S
C454 C446 1.574 . S
C454 H449 0.949 . S
C454 C460 1.368 . S
C455 C439 1.349 . S
C455 H447 0.950 . S
C455 C453 1.327 . S
C456 C444 1.349 . S
C456 H450 0.950 . S
C456 C457 1.327 . S
C457 H451 0.950 . S
C457 C456 1.327 . S
C457 C461 1.429 . S
C458 C441 1.574 . S
C458 H452 0.949 . S
C458 C462 1.368 . S
C459 C440 1.429 . S
C459 C453 1.429 . S
C459 C460 1.523 . S
C460 C441 1.368 . S
C460 C454 1.368 . S
C460 C459 1.523 . S
C461 C445 1.429 . S
C461 C457 1.429 . S
C461 C462 1.523 . S
C462 C446 1.368 . S
C462 C458 1.368 . S
C462 C461 1.523 . S
H463 C438 0.950 . S
H464 C440 0.950 . S
H465 C441 0.949 . S
H466 C443 0.950 . S
H467 C445 0.950 . S
C468 C469 1.349 . S
C468 C470 1.327 . S
C468 H493 0.950 . S
C469 C468 1.349 . S
C469 C485 1.349 . S
C470 C468 1.327 . S
C470 C489 1.429 . S
C470 H494 0.950 . S
C471 C488 1.574 . S
C471 C490 1.368 . S
C471 H495 0.949 . S
H472 C476 0.949 . S
C473 C474 1.349 . S
C473 C475 1.327 . S
C473 H496 0.950 . S
C474 C473 1.349 . S
C474 C486 1.349 . S
C475 C473 1.327 . S
C475 C491 1.429 . S
C475 H497 0.950 . S
C476 H472 0.949 . S
C476 C484 1.574 . S
C476 C492 1.368 . S
H477 C485 0.950 . S
H478 C483 0.950 . S
H479 C484 0.949 . S
H480 C486 0.950 . S
H481 C487 0.950 . S
H482 C488 0.949 . S
C483 H478 0.950 . S
C483 C485 1.327 . S
C483 C489 1.429 . S
C484 C476 1.574 . S
C484 H479 0.949 . S
C484 C490 1.368 . S
C485 C469 1.349 . S
C485 H477 0.950 . S
C485 C483 1.327 . S
C486 C474 1.349 . S
C486 H480 0.950 . S
C486 C487 1.327 . S
C487 H481 0.950 . S
C487 C486 1.327 . S
C487 C491 1.429 . S
C488 C471 1.574 . S
C488 H482 0.949 . S
C488 C492 1.368 . S
C489 C470 1.429 . S
C489 C483 1.429 . S
C489 C490 1.523 . S
C490 C471 1.368 . S
C490 C484 1.368 . S
C490 C489 1.523 . S
C491 C475 1.429 . S
C491 C487 1.429 . S
C491 C492 1.523 . S
C492 C476 1.368 . S
C492 C488 1.368 . S
C492 C491 1.523 . S
H493 C468 0.950 . S
H494 C470 0.950 . S
H495 C471 0.949 . S
H496 C473 0.950 . S
H497 C475 0.950 . S
C498 C499 1.349 . S
C498 C500 1.327 . S
C498 H523 0.950 . S
C499 C498 1.349 . S
C499 C515 1.349 . S
C500 C498 1.327 . S
C500 C519 1.429 . S
C500 H524 0.950 . S
C501 C518 1.574 . S
C501 C520 1.368 . S
C501 H525 0.949 . S
H502 C506 0.949 . S
C503 C504 1.349 . S
C503 C505 1.327 . S
C503 H526 0.950 . S
C504 C503 1.349 . S
C504 C516 1.349 . S
C505 C503 1.327 . S
C505 C521 1.429 . S
C505 H527 0.950 . S
C506 H502 0.949 . S
C506 C514 1.574 . S
C506 C522 1.368 . S
H507 C515 0.950 . S
H508 C513 0.950 . S
H509 C514 0.949 . S
H510 C516 0.950 . S
H511 C517 0.950 . S
H512 C518 0.949 . S
C513 H508 0.950 . S
C513 C515 1.327 . S
C513 C519 1.429 . S
C514 C506 1.574 . S
C514 H509 0.949 . S
C514 C520 1.368 . S
C515 C499 1.349 . S
C515 H507 0.950 . S
C515 C513 1.327 . S
C516 C504 1.349 . S
C516 H510 0.950 . S
C516 C517 1.327 . S
C517 H511 0.950 . S
C517 C516 1.327 . S
C517 C521 1.429 . S
C518 C501 1.574 . S
C518 H512 0.949 . S
C518 C522 1.368 . S
C519 C500 1.429 . S
C519 C513 1.429 . S
C519 C520 1.523 . S
C520 C501 1.368 . S
C520 C514 1.368 . S
C520 C519 1.523 . S
C521 C505 1.429 . S
C521 C517 1.429 . S
C521 C522 1.523 . S
C522 C506 1.368 . S
C522 C518 1.368 . S
C522 C521 1.523 . S
H523 C498 0.950 . S
H524 C500 0.950 . S
H525 C501 0.949 . S
H526 C503 0.950 . S
H527 C505 0.950 . S
C528 C529 1.349 . S
C528 C530 1.327 . S
C528 H553 0.950 . S
C529 C528 1.349 . S
C529 C545 1.349 . S
C530 C528 1.327 . S
C530 C549 1.429 . S
C530 H554 0.950 . S
C531 C548 1.574 . S
C531 C550 1.368 . S
C531 H555 0.949 . S
H532 C536 0.949 . S
C533 C534 1.349 . S
C533 C535 1.327 . S
C533 H556 0.950 . S
C534 C533 1.349 . S
C534 C546 1.349 . S
C535 C533 1.327 . S
C535 C551 1.429 . S
C535 H557 0.950 . S
C536 H532 0.949 . S
C536 C544 1.574 . S
C536 C552 1.368 . S
H537 C545 0.950 . S
H538 C543 0.950 . S
H539 C544 0.949 . S
H540 C546 0.950 . S
H541 C547 0.950 . S
H542 C548 0.949 . S
C543 H538 0.950 . S
C543 C545 1.327 . S
C543 C549 1.429 . S
C544 C536 1.574 . S
C544 H539 0.949 . S
C544 C550 1.368 . S
C545 C529 1.349 . S
C545 H537 0.950 . S
C545 C543 1.327 . S
C546 C534 1.349 . S
C546 H540 0.950 . S
C546 C547 1.327 . S
C547 H541 0.950 . S
C547 C546 1.327 . S
C547 C551 1.429 . S
C548 C531 1.574 . S
C548 H542 0.949 . S
C548 C552 1.368 . S
C549 C530 1.429 . S
C549 C543 1.429 . S
C549 C550 1.523 . S
C550 C531 1.368 . S
C550 C544 1.368 . S
C550 C549 1.523 . S
C551 C535 1.429 . S
C551 C547 1.429 . S
C551 C552 1.523 . S
C552 C536 1.368 . S
C552 C548 1.368 . S
C552 C551 1.523 . S
H553 C528 0.950 . S
H554 C530 0.950 . S
H555 C531 0.949 . S
H556 C533 0.950 . S
H557 C535 0.950 . S
C558 C559 1.349 1_655 S
C558 C560 1.327 . S
C558 H583 0.950 . S
C559 C558 1.349 1_455 S
C559 C575 1.349 . S
C560 C558 1.327 . S
C560 C579 1.429 1_655 S
C560 H584 0.950 . S
C561 C578 1.574 1_554 S
C561 C580 1.368 . S
C561 H585 0.949 . S
H562 C566 0.949 . S
C563 C564 1.349 . S
C563 C565 1.327 . S
C563 H586 0.950 . S
C564 C563 1.349 . S
C564 C576 1.349 . S
C565 C563 1.327 . S
C565 C581 1.429 . S
C565 H587 0.950 . S
C566 H562 0.949 . S
C566 C574 1.574 1_556 S
C566 C582 1.368 1_655 S
H567 C575 0.950 . S
H568 C573 0.950 . S
H569 C574 0.949 . S
H570 C576 0.950 1_655 S
H571 C577 0.950 1_655 S
H572 C578 0.949 . S
C573 H568 0.950 . S
C573 C575 1.327 . S
C573 C579 1.429 . S
C574 C566 1.574 1_554 S
C574 H569 0.949 . S
C574 C580 1.368 1_655 S
C575 C559 1.349 . S
C575 H567 0.950 . S
C575 C573 1.327 . S
C576 C564 1.349 . S
C576 H570 0.950 1_455 S
C576 C577 1.327 . S
C577 H571 0.950 1_455 S
C577 C576 1.327 . S
C577 C581 1.429 . S
C578 C561 1.574 1_556 S
C578 H572 0.949 . S
C578 C582 1.368 . S
C579 C560 1.429 1_455 S
C579 C573 1.429 . S
C579 C580 1.523 . S
C580 C561 1.368 . S
C580 C574 1.368 1_455 S
C580 C579 1.523 . S
C581 C565 1.429 . S
C581 C577 1.429 . S
C581 C582 1.523 . S
C582 C566 1.368 1_455 S
C582 C578 1.368 . S
C582 C581 1.523 . S
H583 C558 0.950 . S
H584 C560 0.950 . S
H585 C561 0.949 . S
H586 C563 0.950 . S
H587 C565 0.950 . S
C588 C589 1.349 . S
C588 C590 1.327 . S
C588 H613 0.950 . S
C589 C588 1.349 . S
C589 C605 1.349 . S
C590 C588 1.327 . S
C590 C609 1.429 . S
C590 H614 0.950 . S
C591 C608 1.574 . S
C591 C610 1.368 1_565 S
C591 H615 0.949 . S
H592 C596 0.949 . S
C593 C594 1.349 1_565 S
C593 C595 1.327 . S
C593 H616 0.950 . S
C594 C593 1.349 1_545 S
C594 C606 1.349 . S
C595 C593 1.327 . S
C595 C611 1.429 1_565 S
C595 H617 0.950 . S
C596 H592 0.949 . S
C596 C604 1.574 . S
C596 C612 1.368 . S
H597 C605 0.950 1_565 S
H598 C603 0.950 1_565 S
H599 C604 0.949 . S
H600 C606 0.950 . S
H601 C607 0.950 . S
H602 C608 0.949 . S
C603 H598 0.950 1_545 S
C603 C605 1.327 . S
C603 C609 1.429 . S
C604 C596 1.574 . S
C604 H599 0.949 . S
C604 C610 1.368 . S
C605 C589 1.349 . S
C605 H597 0.950 1_545 S
C605 C603 1.327 . S
C606 C594 1.349 . S
C606 H600 0.950 . S
C606 C607 1.327 . S
C607 H601 0.950 . S
C607 C606 1.327 . S
C607 C611 1.429 . S
C608 C591 1.574 . S
C608 H602 0.949 . S
C608 C612 1.368 1_565 S
C609 C590 1.429 . S
C609 C603 1.429 . S
C609 C610 1.523 . S
C610 C591 1.368 1_545 S
C610 C604 1.368 . S
C610 C609 1.523 . S
C611 C595 1.429 1_545 S
C611 C607 1.429 . S
C611 C612 1.523 . S
C612 C596 1.368 . S
C612 C608 1.368 1_545 S
C612 C611 1.523 . S
H613 C588 0.950 . S
H614 C590 0.950 . S
H615 C591 0.949 . S
H616 C593 0.950 . S
H617 C595 0.950 . S
C618 C619 1.349 . S
C618 C620 1.327 . S
C618 H643 0.950 . S
C619 C618 1.349 . S
C619 C635 1.349 . S
C620 C618 1.327 . S
C620 C639 1.429 . S
C620 H644 0.950 . S
C621 C638 1.574 . S
C621 C640 1.368 . S
C621 H645 0.949 . S
H622 C626 0.949 . S
C623 C624 1.349 . S
C623 C625 1.327 . S
C623 H646 0.950 . S
C624 C623 1.349 . S
C624 C636 1.349 . S
C625 C623 1.327 . S
C625 C641 1.429 . S
C625 H647 0.950 . S
C626 H622 0.949 . S
C626 C634 1.574 . S
C626 C642 1.368 . S
H627 C635 0.950 . S
H628 C633 0.950 . S
H629 C634 0.949 . S
H630 C636 0.950 . S
H631 C637 0.950 . S
H632 C638 0.949 . S
C633 H628 0.950 . S
C633 C635 1.327 . S
C633 C639 1.429 . S
C634 C626 1.574 . S
C634 H629 0.949 . S
C634 C640 1.368 . S
C635 C619 1.349 . S
C635 H627 0.950 . S
C635 C633 1.327 . S
C636 C624 1.349 . S
C636 H630 0.950 . S
C636 C637 1.327 . S
C637 H631 0.950 . S
C637 C636 1.327 . S
C637 C641 1.429 . S
C638 C621 1.574 . S
C638 H632 0.949 . S
C638 C642 1.368 . S
C639 C620 1.429 . S
C639 C633 1.429 . S
C639 C640 1.523 . S
C640 C621 1.368 . S
C640 C634 1.368 . S
C640 C639 1.523 . S
C641 C625 1.429 . S
C641 C637 1.429 . S
C641 C642 1.523 . S
C642 C626 1.368 . S
C642 C638 1.368 . S
C642 C641 1.523 . S
H643 C618 0.950 . S
H644 C620 0.950 . S
H645 C621 0.949 . S
H646 C623 0.950 . S
H647 C625 0.950 . S
C648 C649 1.349 . S
C648 C650 1.327 . S
C648 H673 0.950 . S
C649 C648 1.349 . S
C649 C665 1.349 . S
C650 C648 1.327 . S
C650 C669 1.429 . S
C650 H674 0.950 . S
C651 C668 1.574 . S
C651 C670 1.368 . S
C651 H675 0.949 1_545 S
H652 C656 0.949 . S
C653 C654 1.349 . S
C653 C655 1.327 . S
C653 H676 0.950 1_545 S
C654 C653 1.349 . S
C654 C666 1.349 . S
C655 C653 1.327 . S
C655 C671 1.429 . S
C655 H677 0.950 1_545 S
C656 H652 0.949 . S
C656 C664 1.574 . S
C656 C672 1.368 . S
H657 C665 0.950 1_565 S
H658 C663 0.950 1_565 S
H659 C664 0.949 . S
H660 C666 0.950 . S
H661 C667 0.950 . S
H662 C668 0.949 1_565 S
C663 H658 0.950 1_545 S
C663 C665 1.327 . S
C663 C669 1.429 . S
C664 C656 1.574 . S
C664 H659 0.949 . S
C664 C670 1.368 . S
C665 C649 1.349 . S
C665 H657 0.950 1_545 S
C665 C663 1.327 . S
C666 C654 1.349 . S
C666 H660 0.950 . S
C666 C667 1.327 . S
C667 H661 0.950 . S
C667 C666 1.327 . S
C667 C671 1.429 . S
C668 C651 1.574 . S
C668 H662 0.949 1_545 S
C668 C672 1.368 . S
C669 C650 1.429 . S
C669 C663 1.429 . S
C669 C670 1.523 . S
C670 C651 1.368 . S
C670 C664 1.368 . S
C670 C669 1.523 . S
C671 C655 1.429 . S
C671 C667 1.429 . S
C671 C672 1.523 . S
C672 C656 1.368 . S
C672 C668 1.368 . S
C672 C671 1.523 . S
H673 C648 0.950 . S
H674 C650 0.950 . S
H675 C651 0.949 1_565 S
H676 C653 0.950 1_565 S
H677 C655 0.950 1_565 S
C678 C679 1.349 . S
C678 C680 1.327 . S
C678 H703 0.950 . S
C679 C678 1.349 . S
C679 C695 1.349 . S
C680 C678 1.327 . S
C680 C699 1.429 . S
C680 H704 0.950 . S
C681 C698 1.574 1_556 S
C681 C700 1.368 . S
C681 H705 0.949 . S
H682 C686 0.949 1_554 S
C683 C684 1.349 . S
C683 C685 1.327 . S
C683 H706 0.950 . S
C684 C683 1.349 . S
C684 C696 1.349 . S
C685 C683 1.327 . S
C685 C701 1.429 . S
C685 H707 0.950 . S
C686 H682 0.949 1_556 S
C686 C694 1.574 . S
C686 C702 1.368 1_556 S
H687 C695 0.950 . S
H688 C693 0.950 . S
H689 C694 0.949 . S
H690 C696 0.950 . S
H691 C697 0.950 . S
H692 C698 0.949 . S
C693 H688 0.950 . S
C693 C695 1.327 . S
C693 C699 1.429 . S
C694 C686 1.574 . S
C694 H689 0.949 . S
C694 C700 1.368 . S
C695 C679 1.349 . S
C695 H687 0.950 . S
C695 C693 1.327 . S
C696 C684 1.349 . S
C696 H690 0.950 . S
C696 C697 1.327 . S
C697 H691 0.950 . S
C697 C696 1.327 . S
C697 C701 1.429 . S
C698 C681 1.574 1_554 S
C698 H692 0.949 . S
C698 C702 1.368 . S
C699 C680 1.429 . S
C699 C693 1.429 . S
C699 C700 1.523 . S
C700 C681 1.368 . S
C700 C694 1.368 . S
C700 C699 1.523 . S
C701 C685 1.429 . S
C701 C697 1.429 . S
C701 C702 1.523 . S
C702 C686 1.368 1_554 S
C702 C698 1.368 . S
C702 C701 1.523 . S
H703 C678 0.950 . S
H704 C680 0.950 . S
H705 C681 0.949 . S
H706 C683 0.950 . S
H707 C685 0.950 . S
C708 C709 1.349 . S
C708 C710 1.327 1_655 S
C708 H733 0.950 . S
C709 C708 1.349 . S
C709 C725 1.349 . S
C710 C708 1.327 1_455 S
C710 C729 1.429 . S
C710 H734 0.950 . S
C711 C728 1.574 . S
C711 C730 1.368 . S
C711 H735 0.949 . S
H712 C716 0.949 . S
C713 C714 1.349 . S
C713 C715 1.327 . S
C713 H736 0.950 . S
C714 C713 1.349 . S
C714 C726 1.349 . S
C715 C713 1.327 . S
C715 C731 1.429 . S
C715 H737 0.950 . S
C716 H712 0.949 . S
C716 C724 1.574 . S
C716 C732 1.368 . S
H717 C725 0.950 . S
H718 C723 0.941 . S
H719 C724 0.949 . S
H720 C726 0.950 . S
H721 C727 0.950 . S
H722 C728 0.949 . S
C723 H718 0.941 . S
C723 C725 1.327 1_455 S
C723 C729 1.437 . S
C724 C716 1.574 . S
C724 H719 0.949 . S
C724 C730 1.368 . S
C725 C709 1.349 . S
C725 H717 0.950 . S
C725 C723 1.327 1_655 S
C726 C714 1.349 . S
C726 H720 0.950 . S
C726 C727 1.327 . S
C727 H721 0.950 . S
C727 C726 1.327 . S
C727 C731 1.429 . S
C728 C711 1.574 . S
C728 H722 0.949 . S
C728 C732 1.368 . S
C729 C710 1.429 . S
C729 C723 1.437 . S
C729 C730 1.523 . S
C730 C711 1.368 . S
C730 C724 1.368 . S
C730 C729 1.523 . S
C731 C715 1.429 . S
C731 C727 1.429 . S
C731 C732 1.523 . S
C732 C716 1.368 . S
C732 C728 1.368 . S
C732 C731 1.523 . S
H733 C708 0.950 . S
H734 C710 0.950 . S
H735 C711 0.949 . S
H736 C713 0.950 . S
H737 C715 0.950 . S
C199 C7 0.258 . S
C204 N187 0.268 . S
C229 C51 1.765 . S
C234 N160 1.764 1_655 S
C259 C87 1.079 . S
C264 N173 1.077 . S
C289 C16 0.630 . S
C294 N186 0.609 . S
C324 N161 1.986 . S
C319 C42 1.979 . S
C354 N174 1.320 . S
C349 C96 1.311 . S
C379 C47 1.032 . S
C384 N134 1.031 . S
C409 C91 2.740 . S
C414 N148 2.699 1_655 S
C439 C2 1.991 . S
C444 N122 2.004 . S
C474 N135 1.368 . S
C469 C56 1.350 . S
C504 N147 3.306 . S
C499 C82 3.264 . S
C529 C11 1.760 . S
C534 N121 1.768 . S
C564 N151 1.728 . S
C559 C19 1.710 . S
C589 C50 1.477 . S
C594 N125 1.488 . S
C619 C99 1.515 . S
C624 N138 1.584 . S
C654 N177 1.545 . S
C649 C59 1.488 . S
C684 N190 1.294 . S
C679 C90 1.301 . S
C709 C10 1.457 . S
C714 N164 1.475 . S
