# Generated by pormake.
# Topology sqc, (4,8)-cn, num edge types: 1
# Building blocks:
#     Node 0, Type 0, BuildingBlock: MIFKUJ_clean_linker_1, # of connection points: 4
#     Node 1, Type 0, BuildingBlock: MIFKUJ_clean_linker_1, # of connection points: 4
#     Node 2, Type 0, BuildingBlock: MIFKUJ_clean_linker_1, # of connection points: 4
#     Node 3, Type 0, BuildingBlock: MIFKUJ_clean_linker_1, # of connection points: 4
#     Node 4, Type 0, BuildingBlock: MIFKUJ_clean_linker_1, # of connection points: 4
#     Node 5, Type 0, BuildingBlock: MIFKUJ_clean_linker_1, # of connection points: 4
#     Node 6, Type 0, BuildingBlock: MIFKUJ_clean_linker_1, # of connection points: 4
#     Node 7, Type 0, BuildingBlock: MIFKUJ_clean_linker_1, # of connection points: 4
#     Node 8, Type 1, BuildingBlock: TAGTUT_clean_sbu_3, # of connection points: 8
#     Node 9, Type 1, BuildingBlock: TAGTUT_clean_sbu_3, # of connection points: 8
#     Node 10, Type 1, BuildingBlock: TAGTUT_clean_sbu_3, # of connection points: 8
#     Node 11, Type 1, BuildingBlock: TAGTUT_clean_sbu_3, # of connection points: 8
#     Edge 12, Type (0, 1), BuildingBlock: ZUJKAS_clean_linker_0, # of connection points: 2
#     Edge 13, Type (0, 1), BuildingBlock: ZUJKAS_clean_linker_0, # of connection points: 2
#     Edge 14, Type (0, 1), BuildingBlock: ZUJKAS_clean_linker_0, # of connection points: 2
#     Edge 15, Type (0, 1), BuildingBlock: ZUJKAS_clean_linker_0, # of connection points: 2
#     Edge 16, Type (0, 1), BuildingBlock: ZUJKAS_clean_linker_0, # of connection points: 2
#     Edge 17, Type (0, 1), BuildingBlock: ZUJKAS_clean_linker_0, # of connection points: 2
#     Edge 18, Type (0, 1), BuildingBlock: ZUJKAS_clean_linker_0, # of connection points: 2
#     Edge 19, Type (0, 1), BuildingBlock: ZUJKAS_clean_linker_0, # of connection points: 2
#     Edge 20, Type (0, 1), BuildingBlock: ZUJKAS_clean_linker_0, # of connection points: 2
#     Edge 21, Type (0, 1), BuildingBlock: ZUJKAS_clean_linker_0, # of connection points: 2
#     Edge 22, Type (0, 1), BuildingBlock: ZUJKAS_clean_linker_0, # of connection points: 2
#     Edge 23, Type (0, 1), BuildingBlock: ZUJKAS_clean_linker_0, # of connection points: 2
#     Edge 24, Type (0, 1), BuildingBlock: ZUJKAS_clean_linker_0, # of connection points: 2
#     Edge 25, Type (0, 1), BuildingBlock: ZUJKAS_clean_linker_0, # of connection points: 2
#     Edge 26, Type (0, 1), BuildingBlock: ZUJKAS_clean_linker_0, # of connection points: 2
#     Edge 27, Type (0, 1), BuildingBlock: ZUJKAS_clean_linker_0, # of connection points: 2
#     Edge 28, Type (0, 1), BuildingBlock: ZUJKAS_clean_linker_0, # of connection points: 2
#     Edge 29, Type (0, 1), BuildingBlock: ZUJKAS_clean_linker_0, # of connection points: 2
#     Edge 30, Type (0, 1), BuildingBlock: ZUJKAS_clean_linker_0, # of connection points: 2
#     Edge 31, Type (0, 1), BuildingBlock: ZUJKAS_clean_linker_0, # of connection points: 2
#     Edge 32, Type (0, 1), BuildingBlock: ZUJKAS_clean_linker_0, # of connection points: 2
#     Edge 33, Type (0, 1), BuildingBlock: ZUJKAS_clean_linker_0, # of connection points: 2
#     Edge 34, Type (0, 1), BuildingBlock: ZUJKAS_clean_linker_0, # of connection points: 2
#     Edge 35, Type (0, 1), BuildingBlock: ZUJKAS_clean_linker_0, # of connection points: 2
#     Edge 36, Type (0, 1), BuildingBlock: ZUJKAS_clean_linker_0, # of connection points: 2
#     Edge 37, Type (0, 1), BuildingBlock: ZUJKAS_clean_linker_0, # of connection points: 2
#     Edge 38, Type (0, 1), BuildingBlock: ZUJKAS_clean_linker_0, # of connection points: 2
#     Edge 39, Type (0, 1), BuildingBlock: ZUJKAS_clean_linker_0, # of connection points: 2
#     Edge 40, Type (0, 1), BuildingBlock: ZUJKAS_clean_linker_0, # of connection points: 2
#     Edge 41, Type (0, 1), BuildingBlock: ZUJKAS_clean_linker_0, # of connection points: 2
#     Edge 42, Type (0, 1), BuildingBlock: ZUJKAS_clean_linker_0, # of connection points: 2
#     Edge 43, Type (0, 1), BuildingBlock: ZUJKAS_clean_linker_0, # of connection points: 2
# Relax obj value: 0.151
# Max RMSD: 0.263
# Mean RMSD: 0.182
data_MOF--net-sqc--node1-TAGTUT_clean_sbu_3--node2-MIFKUJ_clean_linker_1--edge1-ZUJKAS_clean_linker_0
_symmetry_space_group_name_H-M    P1
_symmetry_Int_Tables_number       1
_symmetry_cell_setting            triclinic
loop_
_symmetry_equiv_pos_as_xyz
'x, y, z'
_cell_length_a     34.972703
_cell_length_b     34.95429
_cell_length_c     104.24222
_cell_angle_alpha  90.88408
_cell_angle_beta   90.046971
_cell_angle_gamma 90.011061
loop_
_atom_site_label
_atom_site_type_symbol
_atom_site_fract_x
_atom_site_fract_y
_atom_site_fract_z
_atom_type_partial_charge
H0 H 0.98014 0.91943 0.48839 0.0
H1 H 0.9194 0.90122 0.47831 0.0
H2 H 0.89142 0.02069 0.47377 0.0
H3 H 0.95193 0.03861 0.48388 0.0
H4 H 0.04126 0.95857 0.48017 0.0
H5 H 0.95366 0.96959 0.51417 0.0
H6 H 0.89386 0.98703 0.5248 0.0
H7 H 0.92009 0.1067 0.51974 0.0
H8 H 0.98017 0.08896 0.50918 0.0
H9 H 0.09901 0.09252 0.50518 0.0
H10 H 0.15871 0.11852 0.51386 0.0
H11 H 0.19569 0.00422 0.52311 0.0
H12 H 0.136 0.97841 0.5143 0.0
H13 H 0.04244 0.05038 0.51697 0.0
H14 H 0.13483 0.03145 0.48231 0.0
H15 H 0.19444 0.00632 0.47329 0.0
H16 H 0.15761 0.89133 0.48167 0.0
H17 H 0.09876 0.9168 0.49109 0.0
C18 C 0.97043 0.98035 0.48699 0.0
C19 C 0.96095 0.94164 0.48518 0.0
C20 C 0.92623 0.93131 0.47942 0.0
C21 C 0.90044 0.95953 0.4753 0.0
C22 C 0.91024 0.99826 0.47705 0.0
C23 C 0.94492 0.00854 0.48278 0.0
C24 C 0.00677 0.9916 0.49339 0.0
C25 C 0.04154 0.97823 0.48832 0.0
C26 C 0.00712 0.01701 0.50408 0.0
C27 C 0.97126 0.02798 0.5108 0.0
C28 C 0.94643 -0.00041 0.51529 0.0
C29 C 0.91214 0.0096 0.52131 0.0
C30 C 0.90205 0.04826 0.52305 0.0
C31 C 0.92717 0.07667 0.51865 0.0
C32 C 0.96151 0.06661 0.51262 0.0
C33 C 0.11315 0.03354 0.50902 0.0
C34 C 0.11997 0.0731 0.50911 0.0
C35 C 0.15409 0.0879 0.51409 0.0
C36 C 0.18205 0.06345 0.51915 0.0
C37 C 0.17507 0.02379 0.51908 0.0
C38 C 0.14089 0.009 0.51411 0.0
C39 C 0.07702 0.01818 0.50353 0.0
C40 C 0.04219 0.03069 0.50883 0.0
C41 C 0.0767 0.99104 0.4933 0.0
C42 C 0.11251 0.97602 0.48749 0.0
C43 C 0.13978 0.00086 0.4823 0.0
C44 C 0.17372 0.98642 0.47706 0.0
C45 C 0.1809 0.94679 0.4768 0.0
C46 C 0.15333 0.92201 0.48191 0.0
C47 C 0.11947 0.93649 0.48718 0.0
H48 H 0.319 0.78677 0.77911 0.0
H49 H 0.29643 0.84797 0.78799 0.0
H50 H 0.2182 0.85861 0.75614 0.0
H51 H 0.24039 0.79709 0.74745 0.0
H52 H 0.28308 0.71825 0.77344 0.0
H53 H 0.35097 0.81589 0.75086 0.0
H54 H 0.36397 0.87082 0.73731 0.0
H55 H 0.29968 0.81724 0.70647 0.0
H56 H 0.28556 0.7632 0.72024 0.0
H57 H 0.30283 0.65021 0.72309 0.0
H58 H 0.33013 0.59389 0.71246 0.0
H59 H 0.40562 0.57767 0.74478 0.0
H60 H 0.3791 0.63506 0.75516 0.0
H61 H 0.33765 0.71542 0.7295 0.0
H62 H 0.26741 0.61944 0.75152 0.0
H63 H 0.2618 0.55945 0.76305 0.0
H64 H 0.33278 0.60602 0.79347 0.0
H65 H 0.33782 0.66628 0.78191 0.0
C66 C 0.28158 0.78755 0.76258 0.0
C67 C 0.29675 0.80214 0.77412 0.0
C68 C 0.2841 0.83727 0.7791 0.0
C69 C 0.25577 0.85826 0.77269 0.0
C70 C 0.23992 0.84305 0.76132 0.0
C71 C 0.25271 0.80802 0.75631 0.0
C72 C 0.29692 0.75167 0.75684 0.0
C73 C 0.29533 0.71773 0.76388 0.0
C74 C 0.3122 0.7507 0.74428 0.0
C75 C 0.31711 0.78559 0.73658 0.0
C76 C 0.33893 0.81643 0.74129 0.0
C77 C 0.34669 0.84759 0.73348 0.0
C78 C 0.33304 0.84828 0.72079 0.0
C79 C 0.31024 0.81783 0.71625 0.0
C80 C 0.3024 0.78678 0.72407 0.0
C81 C 0.33875 0.64667 0.73994 0.0
C82 C 0.32522 0.63447 0.72789 0.0
C83 C 0.34061 0.60206 0.72189 0.0
C84 C 0.36992 0.58118 0.72781 0.0
C85 C 0.38327 0.5933 0.73994 0.0
C86 C 0.36789 0.62585 0.74593 0.0
C87 C 0.3233 0.68207 0.74597 0.0
C88 C 0.32507 0.71594 0.73902 0.0
C89 C 0.30792 0.68282 0.7585 0.0
C90 C 0.3032 0.6472 0.76584 0.0
C91 C 0.28181 0.61667 0.76067 0.0
C92 C 0.2789 0.5823 0.76722 0.0
C93 C 0.29716 0.57779 0.77913 0.0
C94 C 0.31816 0.60865 0.78437 0.0
C95 C 0.32103 0.6431 0.77779 0.0
H96 H 0.55953 0.00656 0.02713 0.0
H97 H 0.5053 0.98995 0.04061 0.0
H98 H 0.46192 0.91557 0.01043 0.0
H99 H 0.51724 0.9313 0.99714 0.0
H100 H 0.61332 0.95705 0.01902 0.0
H101 H 0.52349 0.04435 0.99802 0.0
H102 H 0.46765 0.06421 0.98551 0.0
H103 H 0.49529 0.97929 0.95642 0.0
H104 H 0.55078 0.95954 0.96896 0.0
H105 H 0.67343 0.97154 0.96715 0.0
H106 H 0.72844 0.99833 0.95596 0.0
H107 H 0.75218 0.07132 0.9889 0.0
H108 H 0.69792 0.04352 0.00012 0.0
H109 H 0.61092 0.01084 0.9753 0.0
H110 H 0.70254 0.92936 0.9932 0.0
H111 H 0.75993 0.90603 0.00396 0.0
H112 H 0.72929 0.97115 0.03801 0.0
H113 H 0.67266 0.99532 0.02707 0.0
C114 C 0.54235 0.97022 0.01114 0.0
C115 C 0.53814 0.98693 0.02337 0.0
C116 C 0.50695 0.97765 0.03102 0.0
C117 C 0.47932 0.95141 0.02659 0.0
C118 C 0.48296 0.93558 0.01415 0.0
C119 C 0.5143 0.94484 0.0065 0.0
C120 C 0.5776 0.97735 0.00374 0.0
C121 C 0.61283 0.96937 0.00953 0.0
C122 C 0.57694 0.99123 0.9911 0.0
C123 C 0.54103 0.00044 0.9844 0.0
C124 C 0.51702 0.02961 0.98906 0.0
C125 C 0.48538 0.04106 0.98189 0.0
C126 C 0.47727 0.02329 0.97001 0.0
C127 C 0.50064 0.99317 0.96561 0.0
C128 C 0.5324 0.98201 0.97271 0.0
C129 C 0.6818 0.00545 0.98446 0.0
C130 C 0.69084 0.99298 0.97198 0.0
C131 C 0.7221 0.00853 0.96559 0.0
C132 C 0.74453 0.03723 0.9715 0.0
C133 C 0.73587 0.04894 0.98413 0.0
C134 C 0.70481 0.03313 0.99055 0.0
C135 C 0.64664 0.99193 0.99079 0.0
C136 C 0.61147 0.99844 0.98478 0.0
C137 C 0.64736 0.97604 0.00314 0.0
C138 C 0.68349 0.96426 0.00932 0.0
C139 C 0.70861 0.9392 0.0029 0.0
C140 C 0.74115 0.92557 0.00909 0.0
C141 C 0.74903 0.93669 0.02183 0.0
C142 C 0.72423 0.96243 0.02814 0.0
C143 C 0.69172 0.97603 0.02194 0.0
H144 H 0.28676 0.23914 0.27658 0.0
H145 H 0.29349 0.18407 0.29056 0.0
H146 H 0.36521 0.12841 0.26212 0.0
H147 H 0.3575 0.18331 0.24807 0.0
H148 H 0.34994 0.28222 0.26859 0.0
H149 H 0.24501 0.21027 0.24972 0.0
H150 H 0.21947 0.15053 0.24071 0.0
H151 H 0.30269 0.15501 0.21012 0.0
H152 H 0.32758 0.2151 0.21909 0.0
H153 H 0.34851 0.34016 0.21659 0.0
H154 H 0.33975 0.40182 0.20595 0.0
H155 H 0.27449 0.44327 0.23846 0.0
H156 H 0.28306 0.38184 0.24896 0.0
H157 H 0.29356 0.28717 0.22495 0.0
H158 H 0.3954 0.36179 0.24276 0.0
H159 H 0.42957 0.41426 0.25358 0.0
H160 H 0.35771 0.4009 0.28692 0.0
H161 H 0.32373 0.34865 0.27608 0.0
C162 C 0.32168 0.21522 0.26134 0.0
C163 C 0.30346 0.21477 0.27331 0.0
C164 C 0.30749 0.18339 0.28129 0.0
C165 C 0.33023 0.15204 0.27751 0.0
C166 C 0.34718 0.15191 0.26526 0.0
C167 C 0.34293 0.18329 0.25724 0.0
C168 C 0.321 0.25044 0.25368 0.0
C169 C 0.33713 0.28352 0.25912 0.0
C170 C 0.3058 0.25141 0.24113 0.0
C171 C 0.28835 0.21693 0.23511 0.0
C172 C 0.25759 0.19842 0.24103 0.0
C173 C 0.24319 0.16415 0.23592 0.0
C174 C 0.25921 0.14776 0.22475 0.0
C175 C 0.28939 0.167 0.21866 0.0
C176 C 0.30371 0.20133 0.22377 0.0
C177 C 0.3165 0.35652 0.23356 0.0
C178 C 0.33237 0.3626 0.2214 0.0
C179 C 0.32768 0.39787 0.21541 0.0
C180 C 0.30653 0.42729 0.22142 0.0
C181 C 0.29077 0.42105 0.2336 0.0
C182 C 0.29574 0.38603 0.2396 0.0
C183 C 0.32142 0.31953 0.24009 0.0
C184 C 0.30636 0.28599 0.23441 0.0
C185 C 0.33787 0.31795 0.25246 0.0
C186 C 0.35693 0.3514 0.2586 0.0
C187 C 0.38668 0.37056 0.25233 0.0
C188 C 0.40623 0.40044 0.25852 0.0
C189 C 0.39655 0.4114 0.27114 0.0
C190 C 0.36631 0.39259 0.27729 0.0
C191 C 0.34674 0.36287 0.27109 0.0
H192 H 0.79282 0.26316 0.22337 0.0
H193 H 0.80511 0.31956 0.21053 0.0
H194 H 0.85932 0.3747 0.2432 0.0
H195 H 0.84801 0.31747 0.2559 0.0
H196 H 0.84759 0.21884 0.23342 0.0
H197 H 0.74055 0.29204 0.24913 0.0
H198 H 0.71205 0.35061 0.25799 0.0
H199 H 0.7816 0.33972 0.29203 0.0
H200 H 0.80969 0.28103 0.28315 0.0
H201 H 0.83617 0.15768 0.28409 0.0
H202 H 0.82805 0.09469 0.29384 0.0
H203 H 0.76462 0.05599 0.26051 0.0
H204 H 0.77247 0.11889 0.25091 0.0
H205 H 0.77982 0.21152 0.27513 0.0
H206 H 0.88534 0.13591 0.25888 0.0
H207 H 0.91544 0.07993 0.24871 0.0
H208 H 0.84818 0.09806 0.21453 0.0
H209 H 0.81746 0.1531 0.22488 0.0
C210 C 0.81948 0.28618 0.24057 0.0
C211 C 0.80703 0.28757 0.2278 0.0
C212 C 0.81378 0.31995 0.2205 0.0
C213 C 0.83322 0.35158 0.22585 0.0
C214 C 0.84461 0.35061 0.23879 0.0
C215 C 0.83787 0.31811 0.24608 0.0
C216 C 0.81564 0.25022 0.24774 0.0
C217 C 0.83236 0.21718 0.24247 0.0
C218 C 0.79671 0.2484 0.25971 0.0
C219 C 0.77753 0.28241 0.26543 0.0
C220 C 0.74959 0.30229 0.25851 0.0
C221 C 0.73342 0.33582 0.26356 0.0
C222 C 0.74468 0.34999 0.27569 0.0
C223 C 0.77195 0.3294 0.28273 0.0
C224 C 0.78811 0.29587 0.27767 0.0
C225 C 0.80493 0.14281 0.26681 0.0
C226 C 0.82036 0.13562 0.27895 0.0
C227 C 0.8161 0.09958 0.28442 0.0
C228 C 0.7959 0.07044 0.27788 0.0
C229 C 0.78018 0.07795 0.26578 0.0
C230 C 0.78467 0.1138 0.26029 0.0
C231 C 0.81108 0.18005 0.2606 0.0
C232 C 0.79505 0.21331 0.2661 0.0
C233 C 0.83043 0.1822 0.24875 0.0
C234 C 0.84891 0.1484 0.24267 0.0
C235 C 0.87686 0.12753 0.24925 0.0
C236 C 0.89426 0.0958 0.24339 0.0
C237 C 0.88404 0.08451 0.23085 0.0
C238 C 0.85622 0.10567 0.22428 0.0
C239 C 0.83888 0.13732 0.23013 0.0
H240 H 0.7516 0.8493 0.73534 0.0
H241 H 0.73402 0.91057 0.72609 0.0
H242 H 0.85316 0.93363 0.71827 0.0
H243 H 0.87055 0.87249 0.72779 0.0
H244 H 0.7884 0.78601 0.7256 0.0
H245 H 0.8072 0.88049 0.75868 0.0
H246 H 0.83185 0.93695 0.77001 0.0
H247 H 0.94698 0.89366 0.76562 0.0
H248 H 0.92218 0.83804 0.75381 0.0
H249 H 0.90969 0.72067 0.75682 0.0
H250 H 0.92245 0.66765 0.77113 0.0
H251 H 0.80089 0.64827 0.77498 0.0
H252 H 0.78835 0.70257 0.76112 0.0
H253 H 0.87483 0.78474 0.76334 0.0
H254 H 0.85416 0.68604 0.73206 0.0
H255 H 0.8271 0.62628 0.72371 0.0
H256 H 0.71386 0.6755 0.72589 0.0
H257 H 0.74102 0.73469 0.73476 0.0
C258 C 0.81233 0.85642 0.73226 0.0
C259 C 0.77387 0.86745 0.73154 0.0
C260 C 0.7639 0.90249 0.72625 0.0
C261 C 0.7922 0.92705 0.72145 0.0
C262 C 0.83073 0.9157 0.72207 0.0
C263 C 0.84069 0.88067 0.72742 0.0
C264 C 0.82277 0.82021 0.73856 0.0
C265 C 0.80716 0.78566 0.73389 0.0
C266 C 0.8478 0.81974 0.7492 0.0
C267 C 0.8629 0.85526 0.75528 0.0
C268 C 0.8378 0.88359 0.7599 0.0
C269 C 0.85192 0.91563 0.76651 0.0
C270 C 0.89137 0.91971 0.76877 0.0
C271 C 0.91649 0.89164 0.76391 0.0
C272 C 0.90236 0.85969 0.75724 0.0
C273 C 0.84811 0.71545 0.75784 0.0
C274 C 0.88581 0.70478 0.76067 0.0
C275 C 0.89304 0.67425 0.76877 0.0
C276 C 0.86267 0.65374 0.77422 0.0
C277 C 0.8249 0.66378 0.77107 0.0
C278 C 0.8177 0.6945 0.76301 0.0
C279 C 0.84066 0.75042 0.7504 0.0
C280 C 0.85669 0.78485 0.75489 0.0
C281 C 0.81596 0.75065 0.73965 0.0
C282 C 0.7996 0.71477 0.73415 0.0
C283 C 0.82347 0.68385 0.73086 0.0
C284 C 0.80797 0.64978 0.72598 0.0
C285 C 0.76827 0.64602 0.72417 0.0
C286 C 0.74448 0.67718 0.72737 0.0
C287 C 0.76 0.71122 0.73229 0.0
H288 H 0.48332 0.41969 0.9907 0.0
H289 H 0.42248 0.40203 0.98047 0.0
H290 H 0.39618 0.52166 0.97556 0.0
H291 H 0.45701 0.53909 0.98566 0.0
H292 H 0.54552 0.45906 0.98212 0.0
H293 H 0.45991 0.46661 0.01605 0.0
H294 H 0.40059 0.4809 0.02744 0.0
H295 H 0.42323 0.6019 0.02415 0.0
H296 H 0.48223 0.58733 0.01236 0.0
H297 H 0.6063 0.59179 0.00593 0.0
H298 H 0.66621 0.6166 0.01505 0.0
H299 H 0.6963 0.50272 0.02702 0.0
H300 H 0.63636 0.47813 0.01789 0.0
H301 H 0.54632 0.54996 0.01919 0.0
H302 H 0.63855 0.5311 0.98396 0.0
H303 H 0.69749 0.50534 0.97462 0.0
H304 H 0.66253 0.39127 0.98499 0.0
H305 H 0.60345 0.41723 0.99409 0.0
C306 C 0.4746 0.48067 0.98898 0.0
C307 C 0.46448 0.44205 0.98737 0.0
C308 C 0.42961 0.43204 0.98165 0.0
C309 C 0.40454 0.46051 0.97727 0.0
C310 C 0.41499 0.49913 0.97878 0.0
C311 C 0.44964 0.5091 0.98459 0.0
C312 C 0.5109 0.4917 0.99541 0.0
C313 C 0.5457 0.47861 0.9903 0.0
C314 C 0.51112 0.51666 0.00621 0.0
C315 C 0.47533 0.52592 0.01324 0.0
C316 C 0.45192 0.49625 0.01766 0.0
C317 C 0.41816 0.50444 0.02426 0.0
C318 C 0.40716 0.54253 0.02669 0.0
C319 C 0.43065 0.57226 0.02227 0.0
C320 C 0.46454 0.56401 0.01565 0.0
C321 C 0.61703 0.53316 0.01122 0.0
C322 C 0.62585 0.57223 0.01053 0.0
C323 C 0.66015 0.58629 0.01564 0.0
C324 C 0.68592 0.56156 0.02171 0.0
C325 C 0.67686 0.52245 0.02246 0.0
C326 C 0.64276 0.50836 0.01722 0.0
C327 C 0.58093 0.51838 0.00561 0.0
C328 C 0.5461 0.53061 0.01095 0.0
C329 C 0.58077 0.49134 0.99537 0.0
C330 C 0.61669 0.47607 0.98974 0.0
C331 C 0.64375 0.50058 0.98428 0.0
C332 C 0.67752 0.4858 0.979 0.0
C333 C 0.68481 0.4462 0.97906 0.0
C334 C 0.65764 0.42182 0.98461 0.0
C335 C 0.62387 0.4366 0.98985 0.0
H336 H 0.04512 0.47158 0.4712 0.0
H337 H 0.99033 0.49652 0.45942 0.0
H338 H 0.97301 0.58234 0.48914 0.0
H339 H 0.02815 0.5571 0.50091 0.0
H340 H 0.10948 0.52207 0.47716 0.0
H341 H 0.01612 0.43901 0.49972 0.0
H342 H 0.96475 0.4219 0.51456 0.0
H343 H 0.01235 0.49919 0.54315 0.0
H344 H 0.06376 0.51551 0.52839 0.0
H345 H 0.17388 0.48746 0.52775 0.0
H346 H 0.22905 0.45632 0.53744 0.0
H347 H 0.25729 0.40381 0.50091 0.0
H348 H 0.2012 0.43408 0.49125 0.0
H349 H 0.11393 0.458 0.51919 0.0
H350 H 0.20501 0.53873 0.50194 0.0
H351 H 0.25935 0.56673 0.49074 0.0
H352 H 0.21929 0.51657 0.45506 0.0
H353 H 0.16532 0.48793 0.46633 0.0
C354 C 0.04042 0.51248 0.48689 0.0
C355 C 0.02903 0.49529 0.47528 0.0
C356 C 0.99769 0.50946 0.46861 0.0
C357 C 0.97754 0.54139 0.47337 0.0
C358 C 0.98825 0.55783 0.48524 0.0
C359 C 0.01945 0.54333 0.49199 0.0
C360 C 0.07658 0.5006 0.49288 0.0
C361 C 0.11065 0.50741 0.48625 0.0
C362 C 0.07801 0.48414 0.5051 0.0
C363 C 0.04365 0.47837 0.51302 0.0
C364 C 0.0149 0.4528 0.50909 0.0
C365 C 0.98564 0.44309 0.51757 0.0
C366 C 0.98491 0.45882 0.53007 0.0
C367 C 0.01264 0.48602 0.53367 0.0
C368 C 0.04183 0.49556 0.52523 0.0
C369 C 0.18332 0.4631 0.50877 0.0
C370 C 0.19191 0.4693 0.5218 0.0
C371 C 0.22334 0.45149 0.52733 0.0
C372 C 0.24699 0.42744 0.51992 0.0
C373 C 0.2394 0.42234 0.50678 0.0
C374 C 0.20756 0.43978 0.50127 0.0
C375 C 0.1474 0.47852 0.50335 0.0
C376 C 0.11326 0.47249 0.51006 0.0
C377 C 0.1462 0.4976 0.4915 0.0
C378 C 0.18123 0.51096 0.48499 0.0
C379 C 0.20841 0.53291 0.49177 0.0
C380 C 0.23934 0.54906 0.48536 0.0
C381 C 0.24325 0.544 0.47204 0.0
C382 C 0.21658 0.5213 0.46532 0.0
C383 C 0.18588 0.50485 0.47174 0.0
C384 C 0.11769 0.67864 0.14409 0.0
C385 C 0.9755 0.63197 0.13969 0.0
C386 C 0.97892 0.69124 0.10364 0.0
Mg387 Mg 0.15834 0.75441 0.13276 0.0
Mg388 Mg 0.10901 0.82952 0.12307 0.0
O389 O 0.1157 0.77654 0.12234 0.0
Mg390 Mg 0.07368 0.74199 0.12757 0.0
O391 O 0.03423 0.7044 0.13275 0.0
Mg392 Mg 0.05215 0.65939 0.12229 0.0
Mg393 Mg 0.98227 0.71675 0.13174 0.0
C394 C 0.0328 0.80613 0.10881 0.0
O395 O 0.04762 0.78372 0.14259 0.0
O396 O 0.19835 0.79513 0.12136 0.0
O397 O 0.98442 0.7705 0.14243 0.0
O398 O 0.15269 0.80138 0.149 0.0
O399 O 0.16227 0.84384 0.11431 0.0
O400 O 0.1117 0.84634 0.14269 0.0
O401 O 0.097 0.69886 0.11286 0.0
O402 O 0.1595 0.7085 0.11687 0.0
C403 C 0.1324 0.69068 0.11099 0.0
C404 C 0.19431 0.82624 0.11504 0.0
O405 O 0.03571 0.77151 0.11265 0.0
O406 O 0.00652 0.62443 0.1335 0.0
O407 O 0.05577 0.83284 0.11244 0.0
O408 O 0.00764 0.66956 0.10592 0.0
O409 O 0.96139 0.66575 0.14042 0.0
O410 O 0.96614 0.71479 0.11206 0.0
O411 O 0.11378 0.71464 0.14209 0.0
O412 O 0.09646 0.6538 0.13831 0.0
C413 C 0.13372 0.83226 0.15114 0.0
C414 C 0.01315 0.79055 0.14626 0.0
C415 C 0.63486 0.81279 0.38958 0.0
C416 C 0.70037 0.67906 0.38494 0.0
C417 C 0.63316 0.67013 0.34995 0.0
Mg418 Mg 0.55331 0.84248 0.37886 0.0
Mg419 Mg 0.48311 0.78362 0.37047 0.0
O420 O 0.53477 0.79671 0.36884 0.0
Mg421 Mg 0.57527 0.75993 0.37378 0.0
O422 O 0.61881 0.72646 0.37872 0.0
Mg423 Mg 0.65961 0.74896 0.3676 0.0
Mg424 Mg 0.61415 0.67338 0.37845 0.0
C425 C 0.51434 0.71019 0.35576 0.0
O426 O 0.53856 0.72927 0.38889 0.0
O427 O 0.50632 0.87615 0.36796 0.0
O428 O 0.56341 0.66974 0.39014 0.0
O429 O 0.51037 0.83295 0.39567 0.0
O430 O 0.46067 0.83433 0.36178 0.0
O431 O 0.46968 0.78602 0.39046 0.0
O432 O 0.61333 0.7873 0.3588 0.0
O433 O 0.59609 0.84818 0.36238 0.0
C434 C 0.61689 0.82312 0.35656 0.0
C435 C 0.47472 0.86822 0.36217 0.0
O436 O 0.54891 0.71787 0.3591 0.0
O437 O 0.70247 0.71018 0.37856 0.0
O438 O 0.4854 0.72944 0.35986 0.0
O439 O 0.6524 0.70113 0.35161 0.0
O440 O 0.66912 0.6604 0.38618 0.0
O441 O 0.6129 0.65616 0.35889 0.0
O442 O 0.59941 0.80386 0.38812 0.0
O443 O 0.6615 0.7953 0.38334 0.0
C444 C 0.48269 0.81058 0.39851 0.0
C445 C 0.53856 0.69514 0.39332 0.0
C446 C 0.61487 0.18111 0.64259 0.0
C447 C 0.47553 0.13049 0.63499 0.0
C448 C 0.48467 0.18984 0.59894 0.0
Mg449 Mg 0.65636 0.25664 0.63231 0.0
Mg450 Mg 0.60988 0.33156 0.62122 0.0
O451 O 0.61586 0.2786 0.62095 0.0
Mg452 Mg 0.5729 0.24342 0.62511 0.0
O453 O 0.53333 0.20475 0.62927 0.0
Mg454 Mg 0.55456 0.15997 0.61933 0.0
Mg455 Mg 0.48148 0.21553 0.62704 0.0
C456 C 0.53694 0.30734 0.60513 0.0
O457 O 0.5428 0.28425 0.63953 0.0
O458 O 0.69908 0.29699 0.62208 0.0
O459 O 0.48017 0.26922 0.63777 0.0
O460 O 0.64722 0.30388 0.64824 0.0
O461 O 0.66532 0.34588 0.61405 0.0
O462 O 0.60735 0.3485 0.64089 0.0
O463 O 0.59996 0.20077 0.61087 0.0
O464 O 0.66119 0.2111 0.6164 0.0
C465 C 0.63577 0.19315 0.60974 0.0
C466 C 0.69693 0.32814 0.61572 0.0
O467 O 0.53746 0.2732 0.60953 0.0
O468 O 0.50795 0.12389 0.62956 0.0
O469 O 0.56039 0.33364 0.60875 0.0
O470 O 0.51286 0.1683 0.60197 0.0
O471 O 0.46023 0.16381 0.63528 0.0
O472 O 0.47019 0.21357 0.60697 0.0
O473 O 0.61007 0.21686 0.6405 0.0
O474 O 0.59598 0.15542 0.63632 0.0
C475 C 0.62769 0.33467 0.64986 0.0
C476 C 0.50741 0.29003 0.64233 0.0
C477 C 0.14004 0.30652 0.89129 0.0
C478 C 0.19645 0.16892 0.88389 0.0
C479 C 0.13357 0.17205 0.84831 0.0
Mg480 Mg 0.06089 0.3428 0.88093 0.0
Mg481 Mg 0.98773 0.28924 0.87162 0.0
O482 O 0.04 0.29966 0.87012 0.0
Mg483 Mg 0.07814 0.25976 0.87437 0.0
O484 O 0.11927 0.22274 0.8786 0.0
Mg485 Mg 0.16187 0.24518 0.8682 0.0
Mg486 Mg 0.11054 0.17034 0.8764 0.0
C487 C 0.01409 0.21564 0.85595 0.0
O488 O 0.03977 0.22906 0.88895 0.0
O489 O 0.01637 0.38068 0.87042 0.0
O490 O 0.05744 0.1671 0.88701 0.0
O491 O 0.01672 0.33359 0.89746 0.0
O492 O 0.96829 0.34228 0.86378 0.0
O493 O 0.97393 0.2894 0.89152 0.0
O494 O 0.11809 0.28738 0.85991 0.0
O495 O 0.1046 0.34856 0.86472 0.0
C496 C 0.12384 0.3233 0.85841 0.0
C497 C 0.98435 0.37522 0.86457 0.0
O498 O 0.04926 0.22114 0.85907 0.0
O499 O 0.20104 0.2014 0.87845 0.0
O500 O 0.98657 0.23618 0.86044 0.0
O501 O 0.15412 0.20137 0.85115 0.0
O502 O 0.164 0.15192 0.88431 0.0
O503 O 0.1108 0.15751 0.85642 0.0
O504 O 0.10424 0.29997 0.88953 0.0
O505 O 0.16585 0.28843 0.88487 0.0
C506 C 0.98775 0.31244 0.89991 0.0
C507 C 0.03554 0.19349 0.89156 0.0
H508 H 0.21612 0.96995 0.45481 0.0
H509 H 0.27258 0.94226 0.44449 0.0
H510 H 0.28201 0.85994 0.4747 0.0
H511 H 0.22613 0.8883 0.48536 0.0
H512 H 0.35335 0.89206 0.46704 0.0
H513 H 0.26834 0.83794 0.42565 0.0
H514 H 0.26242 0.88826 0.42874 0.0
H515 H 0.24657 0.85443 0.44043 0.0
C516 C 0.23049 0.94636 0.45939 0.0
C517 C 0.21641 0.93118 0.47087 0.0
C518 C 0.26256 0.93034 0.4534 0.0
C519 C 0.28105 0.89868 0.45873 0.0
C520 C 0.26795 0.88421 0.4704 0.0
H521 H 0.42962 0.76362 0.40931 0.0
H522 H 0.38477 0.77994 0.42641 0.0
C523 C 0.23584 0.90024 0.47641 0.0
C524 C 0.3132 0.88001 0.45183 0.0
H525 H 0.33593 0.83672 0.42333 0.0
C526 C 0.3496 0.87962 0.45752 0.0
C527 C 0.30802 0.8631 0.43954 0.0
C528 C 0.26917 0.86054 0.43326 0.0
C529 C 0.38134 0.86408 0.451 0.0
C530 C 0.3765 0.84913 0.43841 0.0
C531 C 0.33976 0.84831 0.43295 0.0
C532 C 0.40898 0.83592 0.43032 0.0
C533 C 0.41962 0.86378 0.45766 0.0
C534 C 0.43865 0.86121 0.42719 0.0
C535 C 0.46488 0.8516 0.41754 0.0
C536 C 0.46139 0.81684 0.41065 0.0
C537 C 0.43319 0.79058 0.4144 0.0
C538 C 0.40737 0.79996 0.42416 0.0
H539 H 0.41626 0.86393 0.46826 0.0
H540 H 0.43677 0.83839 0.45473 0.0
H541 H 0.43575 0.88989 0.45508 0.0
H542 H 0.44009 0.88942 0.4316 0.0
H543 H 0.48609 0.8726 0.41486 0.0
H544 H 0.28894 0.88493 0.70302 0.0
H545 H 0.30976 0.93269 0.68755 0.0
H546 H 0.42375 0.9293 0.70329 0.0
H547 H 0.40347 0.88125 0.71862 0.0
H548 H 0.39388 0.00424 0.69932 0.0
H549 H 0.3802 0.90928 0.65624 0.0
H550 H 0.3386 0.91268 0.66632 0.0
H551 H 0.38144 0.89109 0.67236 0.0
C552 C 0.31847 0.89426 0.70315 0.0
C553 C 0.34459 0.87924 0.71203 0.0
C554 C 0.33028 0.92148 0.69432 0.0
C555 C 0.36837 0.934 0.6942 0.0
C556 C 0.39424 0.91985 0.70323 0.0
H557 H 0.50128 0.05738 0.63879 0.0
H558 H 0.47297 0.0091 0.65263 0.0
C559 C 0.38252 0.89262 0.71205 0.0
C560 C 0.38148 0.96195 0.68468 0.0
H561 H 0.39727 0.97376 0.65267 0.0
C562 C 0.39452 0.99769 0.68912 0.0
C563 C 0.38264 0.95295 0.67141 0.0
C564 C 0.37028 0.91433 0.66625 0.0
C565 C 0.40863 0.0249 0.6806 0.0
C566 C 0.40922 0.01617 0.66731 0.0
C567 C 0.39639 0.98034 0.66286 0.0
C568 C 0.42409 0.04373 0.65796 0.0
C569 C 0.42353 0.06248 0.68589 0.0
C570 C 0.40522 0.07854 0.65609 0.0
C571 C 0.42123 0.10616 0.64821 0.0
C572 C 0.45641 0.09939 0.64203 0.0
C573 C 0.47426 0.06362 0.64344 0.0
C574 C 0.45816 0.03599 0.65133 0.0
H575 H 0.4285 0.06148 0.69641 0.0
H576 H 0.4507 0.07045 0.68112 0.0
H577 H 0.40229 0.08532 0.68403 0.0
H578 H 0.37855 0.0847 0.66099 0.0
H579 H 0.40648 0.13322 0.64727 0.0
H580 H 0.46194 0.0974 0.9642 0.0
H581 H 0.41412 0.12097 0.94905 0.0
H582 H 0.37577 0.00543 0.94176 0.0
H583 H 0.42343 0.98158 0.95695 0.0
H584 H 0.40909 0.09059 0.92122 0.0
H585 H 0.27771 0.07461 0.95086 0.0
H586 H 0.32463 0.08025 0.95792 0.0
H587 H 0.31132 0.03555 0.95053 0.0
C588 C 0.44285 0.07711 0.95953 0.0
C589 C 0.44623 0.03769 0.96175 0.0
C590 C 0.41584 0.09057 0.95084 0.0
C591 C 0.39159 0.06486 0.94437 0.0
C592 C 0.39426 0.0256 0.94675 0.0
H593 H 0.20296 0.0954 0.89202 0.0
H594 H 0.25295 0.06894 0.90562 0.0
C595 C 0.42147 0.01207 0.95536 0.0
C596 C 0.36433 0.07899 0.93477 0.0
H597 H 0.2695 0.09449 0.92956 0.0
C598 C 0.37854 0.09155 0.92299 0.0
C599 C 0.32467 0.07982 0.93719 0.0
C600 C 0.30842 0.06707 0.94982 0.0
C601 C 0.35383 0.10468 0.91341 0.0
C602 C 0.31409 0.10602 0.91588 0.0
C603 C 0.29999 0.09333 0.92769 0.0
C604 C 0.28642 0.12098 0.90647 0.0
C605 C 0.37043 0.11618 0.90069 0.0
C606 C 0.28906 0.15885 0.90227 0.0
C607 C 0.26071 0.17399 0.89439 0.0
C608 C 0.22893 0.15166 0.89077 0.0
C609 C 0.22698 0.11341 0.8947 0.0
C610 C 0.25549 0.09823 0.90247 0.0
H611 H 0.39889 0.1029 0.89901 0.0
H612 H 0.35118 0.10793 0.89263 0.0
H613 H 0.37419 0.14769 0.90063 0.0
H614 H 0.31226 0.17716 0.90548 0.0
H615 H 0.26286 0.20365 0.89162 0.0
H616 H 0.23779 0.08432 0.23818 0.0
H617 H 0.21538 0.02271 0.22954 0.0
H618 H 0.22651 0.06494 0.19109 0.0
H619 H 0.24814 0.12677 0.1996 0.0
H620 H 0.15121 0.0068 0.21287 0.0
H621 H 0.28971 0.96431 0.19113 0.0
H622 H 0.28572 0.00164 0.20324 0.0
H623 H 0.27438 0.01141 0.18678 0.0
C624 C 0.23509 0.08066 0.22789 0.0
C625 C 0.24494 0.11049 0.21957 0.0
C626 C 0.2225 0.04536 0.22298 0.0
C627 C 0.21989 0.03915 0.20969 0.0
C628 C 0.2291 0.06896 0.20138 0.0
H629 H 0.09967 0.8995 0.15819 0.0
H630 H 0.11945 0.94363 0.1751 0.0
C631 C 0.24153 0.10426 0.20626 0.0
C632 C 0.20715 0.00174 0.20438 0.0
H633 H 0.23432 0.93048 0.18364 0.0
C634 C 0.1695 0.9897 0.20664 0.0
C635 C 0.23132 0.97909 0.1965 0.0
C636 C 0.27267 0.9895 0.19436 0.0
C637 C 0.15461 0.95686 0.20051 0.0
C638 C 0.17794 0.9359 0.19182 0.0
C639 C 0.21634 0.94659 0.19026 0.0
C640 C 0.16218 0.90604 0.18303 0.0
C641 C 0.11379 0.9455 0.2032 0.0
C642 C 0.17975 0.87001 0.18178 0.0
C643 C 0.16894 0.84466 0.17188 0.0
C644 C 0.14055 0.85511 0.16303 0.0
C645 C 0.12168 0.89037 0.16479 0.0
C646 C 0.13262 0.91561 0.17459 0.0
H647 H 0.10524 0.95418 0.21308 0.0
H648 H 0.0945 0.96039 0.19644 0.0
H649 H 0.10948 0.91417 0.202 0.0
H650 H 0.20288 0.86216 0.18814 0.0
H651 H 0.18409 0.81779 0.1708 0.0
H652 H 0.18966 0.12718 0.53446 0.0
H653 H 0.24767 0.15193 0.54466 0.0
H654 H 0.31303 0.05992 0.52753 0.0
H655 H 0.25519 0.03551 0.51694 0.0
H656 H 0.291 0.11042 0.56206 0.0
H657 H 0.37951 0.15512 0.52062 0.0
H658 H 0.32854 0.14736 0.51941 0.0
H659 H 0.36065 0.1073 0.51965 0.0
C660 C 0.21648 0.11263 0.53262 0.0
C661 C 0.21776 0.07937 0.52487 0.0
C662 C 0.24959 0.12673 0.53851 0.0
C663 C 0.28472 0.10804 0.53673 0.0
C664 C 0.28634 0.07518 0.52884 0.0
H665 H 0.49353 0.13045 0.5816 0.0
H666 H 0.4485 0.112 0.56455 0.0
C667 C 0.25316 0.06099 0.52294 0.0
C668 C 0.31874 0.12119 0.54405 0.0
H669 H 0.40907 0.15764 0.54116 0.0
C670 C 0.31677 0.12077 0.55748 0.0
C671 C 0.35239 0.13449 0.53803 0.0
C672 C 0.35551 0.13647 0.52363 0.0
C673 C 0.34748 0.1333 0.56508 0.0
C674 C 0.38093 0.14702 0.5591 0.0
C675 C 0.38329 0.14708 0.54567 0.0
C676 C 0.41294 0.16219 0.56691 0.0
C677 C 0.34399 0.13188 0.5795 0.0
C678 C 0.40866 0.19729 0.57341 0.0
C679 C 0.43398 0.20771 0.5832 0.0
C680 C 0.46426 0.18336 0.58661 0.0
C681 C 0.47052 0.14986 0.57924 0.0
C682 C 0.44487 0.13927 0.56948 0.0
H683 H 0.31897 0.1147 0.58256 0.0
H684 H 0.37026 0.11954 0.58377 0.0
H685 H 0.34061 0.16139 0.58342 0.0
H686 H 0.38418 0.21536 0.57152 0.0
H687 H 0.42819 0.23361 0.58866 0.0
H688 H 0.18256 0.88528 0.7748 0.0
H689 H 0.16157 0.94638 0.78413 0.0
H690 H 0.279 0.97755 0.7915 0.0
H691 H 0.30014 0.91638 0.78226 0.0
H692 H 0.23488 0.98679 0.8124 0.0
H693 H 0.1639 0.05489 0.77107 0.0
H694 H 0.14607 0.00777 0.77413 0.0
H695 H 0.195 0.01393 0.76925 0.0
C696 C 0.20392 0.90543 0.77822 0.0
C697 C 0.243 0.89598 0.77784 0.0
C698 C 0.1919 0.94043 0.78349 0.0
C699 C 0.21875 0.96684 0.78831 0.0
C700 C 0.2578 0.95769 0.78777 0.0
H701 H 0.19086 0.18258 0.83069 0.0
H702 H 0.21091 0.13674 0.81399 0.0
C703 C 0.26982 0.92263 0.78257 0.0
C704 C 0.20602 0.0024 0.79499 0.0
H705 H 0.15063 0.0824 0.79188 0.0
C706 C 0.21695 0.00794 0.80784 0.0
C707 C 0.18256 0.03 0.78903 0.0
C708 C 0.17149 0.0266 0.77507 0.0
C709 C 0.20415 0.03964 0.815 0.0
C710 C 0.17978 0.06651 0.80918 0.0
C711 C 0.16936 0.06161 0.79627 0.0
C712 C 0.16333 0.09833 0.81682 0.0
C713 C 0.21579 0.04382 0.8289 0.0
C714 C 0.12922 0.09242 0.82352 0.0
C715 C 0.11791 0.11819 0.83313 0.0
C716 C 0.14041 0.15052 0.83616 0.0
C717 C 0.17285 0.15804 0.82862 0.0
C718 C 0.18436 0.13194 0.81906 0.0
H719 H 0.23528 0.02058 0.83197 0.0
H720 H 0.23035 0.07172 0.83049 0.0
H721 H 0.18996 0.04356 0.83509 0.0
H722 H 0.11275 0.06651 0.82193 0.0
H723 H 0.0928 0.1114 0.83873 0.0
H724 H 0.43684 0.99555 0.04316 0.0
H725 H 0.39001 0.97369 0.05887 0.0
H726 H 0.40476 0.85748 0.04531 0.0
H727 H 0.45216 0.87886 0.02975 0.0
H728 H 0.32645 0.88279 0.04875 0.0
H729 H 0.41858 0.91084 0.09138 0.0
H730 H 0.41342 0.95008 0.08056 0.0
H731 H 0.43743 0.90727 0.07528 0.0
C732 C 0.43021 0.96532 0.04355 0.0
C733 C 0.44835 0.9389 0.03526 0.0
C734 C 0.40352 0.95293 0.05252 0.0
C735 C 0.39456 0.91397 0.05334 0.0
C736 C 0.41156 0.88767 0.04483 0.0
H737 H 0.26553 0.79437 0.11181 0.0
H738 H 0.31589 0.81559 0.0972 0.0
C739 C 0.43837 0.89999 0.03588 0.0
C740 C 0.36733 0.90061 0.06309 0.0
H741 H 0.35419 0.89311 0.0954 0.0
C742 C 0.3325 0.88489 0.05895 0.0
C743 C 0.3757 0.90307 0.07635 0.0
C744 C 0.41343 0.91843 0.08121 0.0
C745 C 0.30527 0.87235 0.06778 0.0
C746 C 0.31315 0.87588 0.08105 0.0
C747 C 0.34833 0.89074 0.0852 0.0
C748 C 0.28459 0.865 0.0907 0.0
C749 C 0.26823 0.85539 0.0629 0.0
C750 C 0.2511 0.88655 0.0921 0.0
C751 C 0.22244 0.87471 0.10042 0.0
C752 C 0.22677 0.84099 0.10749 0.0
C753 C 0.26123 0.82037 0.10648 0.0
C754 C 0.28999 0.83239 0.09815 0.0
H755 H 0.26979 0.84759 0.05254 0.0
H756 H 0.26056 0.8295 0.06838 0.0
H757 H 0.24493 0.87663 0.06424 0.0
H758 H 0.24678 0.9121 0.08652 0.0
H759 H 0.19646 0.8915 0.10101 0.0
H760 H 0.3454 0.1596 0.30311 0.0
H761 H 0.36435 0.10977 0.31795 0.0
H762 H 0.35473 0.025 0.28763 0.0
H763 H 0.33501 0.07473 0.27267 0.0
H764 H 0.32702 0.03921 0.32501 0.0
H765 H 0.46727 0.01795 0.30073 0.0
H766 H 0.43757 0.05929 0.298 0.0
H767 H 0.42567 0.01406 0.29064 0.0
C768 C 0.3465 0.13028 0.29962 0.0
C769 C 0.33875 0.12114 0.28668 0.0
C770 C 0.35753 0.10189 0.30812 0.0
C771 C 0.3613 0.06392 0.30383 0.0
C772 C 0.35246 0.05434 0.29105 0.0
H773 H 0.406 0.8636 0.34964 0.0
H774 H 0.37657 0.91183 0.33612 0.0
C775 C 0.34131 0.08275 0.28253 0.0
C776 C 0.37617 0.03483 0.31265 0.0
H777 H 0.45363 0.97817 0.31821 0.0
C778 C 0.35461 0.02569 0.32353 0.0
C779 C 0.41242 0.01783 0.31074 0.0
C780 C 0.43734 0.02788 0.29946 0.0
C781 C 0.36835 -0.00036 0.33255 0.0
C782 C 0.40438 0.98228 0.33053 0.0
C783 C 0.42596 0.99156 0.31968 0.0
C784 C 0.42047 0.95435 0.33955 0.0
C785 C 0.34466 0.99146 0.34428 0.0
C786 C 0.45492 0.96238 0.34594 0.0
C787 C 0.47194 0.93488 0.35366 0.0
C788 C 0.45494 0.89869 0.35502 0.0
C789 C 0.4199 0.89114 0.34882 0.0
C790 C 0.40288 0.91872 0.34113 0.0
H791 H 0.32206 0.01337 0.34586 0.0
H792 H 0.33053 0.96322 0.34302 0.0
H793 H 0.36295 0.99029 0.35297 0.0
H794 H 0.46895 0.98975 0.34478 0.0
H795 H 0.49892 0.94167 0.35827 0.0
H796 H 0.89113 0.10552 0.54082 0.0
H797 H 0.83266 0.12125 0.55254 0.0
H798 H 0.77289 0.03054 0.53246 0.0
H799 H 0.83134 0.01478 0.52053 0.0
H800 H 0.75862 0.14154 0.54307 0.0
H801 H 0.75731 0.00692 0.57102 0.0
H802 H 0.79919 0.0227 0.56248 0.0
H803 H 0.75947 0.00259 0.55381 0.0
C804 C 0.86547 0.08921 0.53875 0.0
C805 C 0.86598 0.0588 0.52977 0.0
C806 C 0.83211 0.09814 0.5455 0.0
C807 C 0.7986 0.07681 0.54346 0.0
C808 C 0.79864 0.04695 0.53431 0.0
H809 H 0.60186 0.1718 0.58691 0.0
H810 H 0.63259 0.13621 0.56916 0.0
C811 C 0.83206 0.03797 0.52754 0.0
C812 C 0.76421 0.0857 0.55123 0.0
H813 H 0.71241 0.05399 0.5767 0.0
C814 C 0.74787 0.12218 0.55026 0.0
C815 C 0.75043 0.06026 0.56058 0.0
C816 C 0.7675 0.02096 0.56216 0.0
C817 C 0.71959 0.13479 0.55888 0.0
C818 C 0.70706 0.11 0.56862 0.0
C819 C 0.72184 0.07272 0.56912 0.0
C820 C 0.6846 0.12469 0.57969 0.0
C821 C 0.70539 0.17547 0.55808 0.0
C822 C 0.70281 0.12808 0.59163 0.0
C823 C 0.68549 0.14817 0.60168 0.0
C824 C 0.64944 0.16516 0.60003 0.0
C825 C 0.6297 0.15906 0.58842 0.0
C826 C 0.6473 0.13901 0.57827 0.0
H827 H 0.72125 0.19221 0.55083 0.0
H828 H 0.67468 0.17536 0.5554 0.0
H829 H 0.70817 0.19024 0.56754 0.0
H830 H 0.73151 0.11712 0.59295 0.0
H831 H 0.70119 0.15199 0.61058 0.0
H832 H 0.84839 0.02557 0.29012 0.0
H833 H 0.83643 0.96533 0.30121 0.0
H834 H 0.71725 0.97165 0.29066 0.0
H835 H 0.72922 0.0309 0.2794 0.0
H836 H 0.79471 0.95633 0.32126 0.0
H837 H 0.73433 0.86075 0.28427 0.0
H838 H 0.75972 0.90392 0.28021 0.0
H839 H 0.70911 0.90522 0.28365 0.0
C840 C 0.81979 0.01367 0.29004 0.0
C841 C 0.78972 0.03281 0.28389 0.0
C842 C 0.81305 0.97918 0.29629 0.0
C843 C 0.77612 0.96335 0.29652 0.0
C844 C 0.74628 0.98231 0.29021 0.0
H845 H 0.63558 0.897 0.35194 0.0
H846 H 0.68427 0.92109 0.33771 0.0
C847 C 0.75306 0.01646 0.28387 0.0
C848 C 0.76709 0.93036 0.30478 0.0
H849 H 0.70659 0.85396 0.30611 0.0
C850 C 0.77651 0.93318 0.31785 0.0
C851 C 0.74434 0.8993 0.30038 0.0
C852 C 0.73677 0.89195 0.28631 0.0
C853 C 0.75992 0.90873 0.32679 0.0
C854 C 0.73256 0.88154 0.32257 0.0
C855 C 0.72686 0.8755 0.30938 0.0
C856 C 0.7046 0.86523 0.33161 0.0
C857 C 0.7699 0.91395 0.34079 0.0
C858 C 0.69897 0.82562 0.33262 0.0
C859 C 0.6706 0.81148 0.3408 0.0
C860 C 0.64725 0.8369 0.34789 0.0
C861 C 0.65301 0.87648 0.3467 0.0
C862 C 0.6812 0.89041 0.33863 0.0
H863 H 0.79995 0.92371 0.34195 0.0
H864 H 0.75115 0.93629 0.3451 0.0
H865 H 0.76596 0.88701 0.34614 0.0
H866 H 0.71642 0.80576 0.32711 0.0
H867 H 0.66678 0.78083 0.34148 0.0
H868 H 0.79898 0.97387 0.03785 0.0
H869 H 0.84979 0.94571 0.05071 0.0
H870 H 0.82479 0.83446 0.03428 0.0
H871 H 0.77295 0.86224 0.02167 0.0
H872 H 0.82919 0.83448 0.06068 0.0
H873 H 0.95517 0.90737 0.04023 0.0
H874 H 0.91835 0.94044 0.04493 0.0
H875 H 0.90933 0.90606 0.03225 0.0
C876 C 0.80439 0.94344 0.03694 0.0
C877 C 0.782 0.92027 0.02876 0.0
C878 C 0.8337 0.92747 0.04417 0.0
C879 C 0.84138 0.88813 0.04327 0.0
C880 C 0.81948 0.86495 0.035 0.0
H881 H 0.00054 0.75819 0.09105 0.0
H882 H 0.95312 0.77406 0.07468 0.0
C883 C 0.79009 0.88091 0.02775 0.0
C884 C 0.87053 0.87106 0.05169 0.0
H885 H 0.96352 0.88013 0.06109 0.0
C886 C 0.85873 0.84393 0.06066 0.0
C887 C 0.90902 0.88335 0.05155 0.0
C888 C 0.92383 0.91061 0.04163 0.0
C889 C 0.88402 0.83039 0.06999 0.0
C890 C 0.92198 0.84416 0.07023 0.0
C891 C 0.93419 0.87001 0.06093 0.0
C892 C 0.94906 0.83369 0.08043 0.0
C893 C 0.86959 0.80292 0.07991 0.0
C894 C 0.96255 0.86202 0.08897 0.0
C895 C 0.98932 0.85293 0.09836 0.0
C896 C 0.00299 0.81533 0.09936 0.0
C897 C 0.9894 0.78701 0.09079 0.0
C898 C 0.9626 0.7961 0.08138 0.0
H899 H 0.83806 0.79922 0.07946 0.0
H900 H 0.88307 0.77457 0.07828 0.0
H901 H 0.87763 0.813 0.0897 0.0
H902 H 0.95246 0.89123 0.08831 0.0
H903 H -0.00058 0.87535 0.10481 0.0
H904 H 0.86018 0.9492 0.79079 0.0
H905 H 0.88526 0.00053 0.80451 0.0
H906 H 0.98185 0.01302 0.77922 0.0
H907 H 0.9562 0.96249 0.76513 0.0
H908 H 0.9557 0.00094 0.81711 0.0
H909 H 0.94309 0.12316 0.78381 0.0
H910 H 0.9186 0.07831 0.78105 0.0
H911 H 0.96878 0.0823 0.77767 0.0
C912 C 0.88635 0.96337 0.78798 0.0
C913 C 0.90605 0.95194 0.77681 0.0
C914 C 0.90081 0.99246 0.7959 0.0
C915 C 0.93518 0.01078 0.79281 0.0
C916 C 0.95495 -0.00038 0.78166 0.0
H917 H 0.05812 0.18859 0.83622 0.0
H918 H 0.04174 0.1379 0.82059 0.0
C919 C 0.94045 0.9705 0.7737 0.0
C920 C 0.95074 0.04058 0.80158 0.0
H921 H 0.97189 0.1358 0.80395 0.0
C922 C 0.95933 0.0304 0.81423 0.0
C923 C 0.95564 0.07891 0.79774 0.0
C924 C 0.9458 0.09156 0.78436 0.0
C925 C 0.97223 0.0577 0.82322 0.0
C926 C 0.97621 0.09613 0.81947 0.0
C927 C 0.96869 0.1062 0.80674 0.0
C928 C 0.98625 0.12657 0.82883 0.0
C929 C 0.98142 0.04539 0.83668 0.0
C930 C 0.96012 0.13713 0.83844 0.0
C931 C 0.96922 0.16614 0.84727 0.0
C932 C 0.00477 0.18473 0.84669 0.0
C933 C 0.03085 0.17417 0.83702 0.0
C934 C 0.02147 0.14549 0.82807 0.0
H935 H 0.98478 0.01386 0.83729 0.0
H936 H 0.00809 0.05934 0.84017 0.0
H937 H 0.95782 0.05427 0.84318 0.0
H938 H 0.93258 0.12308 0.83905 0.0
H939 H 0.94857 0.17379 0.85462 0.0
H940 H 0.8889 0.90284 0.45738 0.0
H941 H 0.82977 0.88684 0.44605 0.0
H942 H 0.77033 0.97575 0.4671 0.0
H943 H 0.82951 0.99185 0.4786 0.0
H944 H 0.7573 0.86474 0.45576 0.0
H945 H 0.75081 0.00145 0.42905 0.0
H946 H 0.79356 0.98615 0.43722 0.0
H947 H 0.75383 0.00463 0.44626 0.0
C948 C 0.86319 0.9187 0.45974 0.0
C949 C 0.86398 0.94873 0.46886 0.0
C950 C 0.82944 0.90961 0.45322 0.0
C951 C 0.79581 0.93038 0.45564 0.0
C952 C 0.79615 0.9598 0.46494 0.0
H953 H 0.60025 0.83158 0.4125 0.0
H954 H 0.62981 0.8677 0.43039 0.0
C955 C 0.82998 0.96897 0.47148 0.0
C956 C 0.76095 0.92136 0.44809 0.0
H957 H 0.70655 0.95382 0.42332 0.0
C958 C 0.74556 0.88441 0.44884 0.0
C959 C 0.74585 0.94722 0.43909 0.0
C960 C 0.76185 0.98705 0.43773 0.0
C961 C 0.71705 0.87175 0.4403 0.0
C962 C 0.70321 0.897 0.43087 0.0
C963 C 0.71695 0.93473 0.43064 0.0
C964 C 0.68073 0.88254 0.41976 0.0
C965 C 0.70408 0.8306 0.4408 0.0
C966 C 0.69849 0.881 0.40772 0.0
C967 C 0.68179 0.86066 0.39759 0.0
C968 C 0.64684 0.84157 0.39928 0.0
C969 C 0.62725 0.84599 0.41097 0.0
C970 C 0.64422 0.86632 0.4212 0.0
H971 H 0.72092 0.81371 0.44776 0.0
H972 H 0.67358 0.82957 0.44369 0.0
H973 H 0.70662 0.81671 0.43118 0.0
H974 H 0.72656 0.89344 0.40637 0.0
H975 H 0.69731 0.85811 0.38863 0.0
H976 H 0.84966 0.02874 0.21636 0.0
H977 H 0.88021 0.9764 0.20451 0.0
H978 H 0.99025 0.01141 0.21928 0.0
H979 H 0.95991 0.06489 0.23088 0.0
H980 H 0.99039 -0.00029 0.19317 0.0
H981 H 0.92375 0.87608 0.21685 0.0
H982 H 0.88849 0.90976 0.2117 0.0
H983 H 0.92279 0.92374 0.22379 0.0
C984 C 0.88036 0.0253 0.21711 0.0
C985 C 0.9024 0.05101 0.22451 0.0
C986 C 0.89771 0.99506 0.21048 0.0
C987 C 0.93739 0.98964 0.21121 0.0
C988 C 0.95952 0.01491 0.21871 0.0
H989 H 0.06319 0.82031 0.16389 0.0
H990 H 0.05022 0.86922 0.18045 0.0
C991 C 0.94214 0.04528 0.22537 0.0
C992 C 0.95565 0.95924 0.20332 0.0
H993 H 0.9482 0.86446 0.19544 0.0
C994 C 0.98188 0.96997 0.19383 0.0
C995 C 0.94465 0.92046 0.20427 0.0
C996 C 0.91868 0.90677 0.2148 0.0
C997 C 0.99535 0.94329 0.18471 0.0
C998 C 0.98228 0.90513 0.18518 0.0
C999 C 0.95776 0.89395 0.19506 0.0
C1000 C 0.99119 0.87707 0.1749 0.0
C1001 C 0.02168 0.95635 0.1742 0.0
C1002 C 0.96223 0.86546 0.1664 0.0
C1003 C 0.96964 0.83793 0.1569 0.0
C1004 C 0.00617 0.82152 0.15576 0.0
C1005 C 0.03518 0.83336 0.16429 0.0
C1006 C 0.02775 0.86098 0.1738 0.0
H1007 H 0.02773 0.98752 0.17484 0.0
H1008 H 0.04912 0.94063 0.17481 0.0
H1009 H 0.00886 0.9496 0.16468 0.0
H1010 H 0.93379 0.87759 0.16716 0.0
H1011 H 0.94667 0.82931 0.1505 0.0
H1012 H 0.74442 0.05764 0.94631 0.0
H1013 H 0.79554 0.08839 0.93438 0.0
H1014 H 0.86502 0.09322 0.96858 0.0
H1015 H 0.81477 0.06045 0.98046 0.0
H1016 H 0.82909 0.15825 0.938 0.0
H1017 H 0.9359 0.0416 0.94294 0.0
H1018 H 0.88622 0.03549 0.94706 0.0
H1019 H 0.91791 0.06064 0.95785 0.0
C1020 C 0.77083 0.06454 0.95126 0.0
C1021 C 0.77569 0.05609 0.96431 0.0
C1022 C 0.79982 0.08256 0.94446 0.0
C1023 C 0.83418 0.09265 0.95057 0.0
C1024 C 0.83895 0.08503 0.96364 0.0
H1025 H 0.00357 0.23544 0.91114 0.0
H1026 H 0.95493 0.21417 0.92637 0.0
C1027 C 0.81005 0.06667 0.97044 0.0
C1028 C 0.86497 0.11077 0.94309 0.0
H1029 H 0.95587 0.0969 0.9322 0.0
C1030 C 0.8569 0.14498 0.93674 0.0
C1031 C 0.90108 0.09319 0.94147 0.0
C1032 C 0.91082 0.05555 0.94759 0.0
C1033 C 0.8837 0.16164 0.92853 0.0
C1034 C 0.91976 0.14398 0.92688 0.0
C1035 C 0.92818 0.11037 0.93352 0.0
C1036 C 0.94825 0.158 0.91759 0.0
C1037 C 0.87262 0.19715 0.92136 0.0
C1038 C 0.96095 0.13333 0.90775 0.0
C1039 C 0.98897 0.14518 0.8992 0.0
C1040 C 0.00458 0.18208 0.90026 0.0
C1041 C 0.99148 0.20707 0.90999 0.0
C1042 C 0.96372 0.19497 0.91868 0.0
H1043 H 0.84118 0.2017 0.92134 0.0
H1044 H 0.88609 0.22234 0.92611 0.0
H1045 H 0.88278 0.19567 0.91128 0.0
H1046 H 0.94931 0.1047 0.90673 0.0
H1047 H 0.99842 0.1254 0.89175 0.0
H1048 H 0.73162 0.94073 0.70567 0.0
H1049 H 0.71355 0.00089 0.69584 0.0
H1050 H 0.81027 0.057 0.71358 0.0
H1051 H 0.82829 0.99676 0.7238 0.0
H1052 H 0.70045 0.07717 0.70942 0.0
H1053 H 0.81746 0.07377 0.67307 0.0
H1054 H 0.80217 0.03054 0.68082 0.0
H1055 H 0.82809 0.06623 0.68977 0.0
C1056 C 0.7488 0.9659 0.70767 0.0
C1057 C 0.78135 0.96392 0.71556 0.0
C1058 C 0.7385 0.00022 0.70201 0.0
C1059 C 0.7606 0.03323 0.70401 0.0
C1060 C 0.79301 0.03168 0.7119 0.0
H1061 H 0.64838 0.22232 0.66234 0.0
H1062 H 0.69186 0.19746 0.67886 0.0
C1063 C 0.80333 0.99723 0.71765 0.0
C1064 C 0.74963 0.06854 0.69735 0.0
H1065 H 0.76536 0.11438 0.66921 0.0
C1066 C 0.71519 0.08637 0.70085 0.0
C1067 C 0.76914 0.08028 0.68623 0.0
C1068 C 0.80629 0.06186 0.68215 0.0
C1069 C 0.69799 0.1134 0.69289 0.0
C1070 C 0.71585 0.12263 0.68118 0.0
C1071 C 0.75195 0.10731 0.67825 0.0
C1072 C 0.69375 0.14016 0.67072 0.0
C1073 C 0.65918 0.12916 0.69642 0.0
C1074 C 0.68134 0.11637 0.66062 0.0
C1075 C 0.65658 0.13021 0.65135 0.0
C1076 C 0.6438 0.1683 0.65192 0.0
C1077 C 0.65765 0.19279 0.66171 0.0
C1078 C 0.68238 0.17869 0.67113 0.0
H1079 H 0.64891 0.11849 0.70579 0.0
H1080 H 0.66047 0.16086 0.69695 0.0
H1081 H 0.638 0.12112 0.6889 0.0
H1082 H 0.68977 0.08654 0.66017 0.0
H1083 H 0.6469 0.11071 0.64385 0.0
H1084 H 0.75785 0.47525 0.9798 0.0
H1085 H 0.81446 0.45052 0.96856 0.0
H1086 H 0.74816 0.35573 0.95371 0.0
H1087 H 0.69131 0.38084 0.96444 0.0
H1088 H 0.85287 0.37842 0.96953 0.0
H1089 H 0.79135 0.40587 0.92148 0.0
H1090 H 0.77141 0.42616 0.93602 0.0
H1091 H 0.76107 0.37743 0.93144 0.0
C1092 C 0.75527 0.44927 0.97407 0.0
C1093 C 0.71991 0.43022 0.97294 0.0
C1094 C 0.78772 0.43501 0.96776 0.0
C1095 C 0.78534 0.4016 0.96018 0.0
C1096 C 0.75047 0.38187 0.95937 0.0
H1097 H 0.92589 0.27227 0.90837 0.0
H1098 H 0.8804 0.29261 0.92481 0.0
C1099 C 0.71806 0.3961 0.96563 0.0
C1100 C 0.81875 0.38796 0.95267 0.0
H1101 H 0.84778 0.36821 0.92204 0.0
C1102 C 0.85196 0.37638 0.95915 0.0
C1103 C 0.81754 0.38569 0.93912 0.0
C1104 C 0.7836 0.39979 0.93158 0.0
C1105 C 0.88353 0.36132 0.9524 0.0
C1106 C 0.88171 0.35805 0.93889 0.0
C1107 C 0.84884 0.37037 0.93243 0.0
C1108 C 0.91323 0.34181 0.93106 0.0
C1109 C 0.91818 0.3481 0.9597 0.0
C1110 C 0.94743 0.36216 0.92944 0.0
C1111 C 0.9736 0.35076 0.91996 0.0
C1112 C 0.96574 0.31899 0.91191 0.0
C1113 C 0.93283 0.29703 0.9143 0.0
C1114 C 0.90675 0.30852 0.92372 0.0
H1115 H 0.91271 0.3468 0.97018 0.0
H1116 H 0.92735 0.31939 0.95618 0.0
H1117 H 0.94215 0.36827 0.95808 0.0
H1118 H 0.95273 0.3882 0.93492 0.0
H1119 H -0.00138 0.36833 0.91839 0.0
H1120 H 0.90146 0.38941 0.22526 0.0
H1121 H 0.92122 0.43888 0.21035 0.0
H1122 H 0.80979 0.43573 0.19262 0.0
H1123 H 0.78951 0.38652 0.20764 0.0
H1124 H 0.87244 0.42859 0.17528 0.0
H1125 H 0.88904 0.55246 0.20883 0.0
H1126 H 0.91319 0.50973 0.21374 0.0
H1127 H 0.86188 0.51035 0.21284 0.0
C1128 C 0.88083 0.39987 0.2184 0.0
C1129 C 0.84388 0.38413 0.21764 0.0
C1130 C 0.89222 0.42803 0.20987 0.0
C1131 C 0.86684 0.44104 0.20048 0.0
C1132 C 0.82973 0.42597 0.19983 0.0
H1133 H 0.90706 0.63594 0.15221 0.0
H1134 H 0.87862 0.58807 0.16603 0.0
C1135 C 0.81827 0.39785 0.20838 0.0
C1136 C 0.87976 0.46893 0.19092 0.0
H1137 H 0.91454 0.55942 0.18786 0.0
C1138 C 0.88141 0.45731 0.17799 0.0
C1139 C 0.89115 0.50635 0.19452 0.0
C1140 C 0.88846 0.5207 0.20822 0.0
C1141 C 0.89499 0.48202 0.16854 0.0
C1142 C 0.90753 0.51902 0.17221 0.0
C1143 C 0.90512 0.53087 0.18511 0.0
C1144 C 0.92321 0.54615 0.16286 0.0
C1145 C 0.89555 0.4685 0.15473 0.0
C1146 C 0.95751 0.53812 0.15638 0.0
C1147 C 0.97394 0.56545 0.14843 0.0
C1148 C 0.95642 0.60133 0.14694 0.0
C1149 C 0.92146 0.6087 0.15318 0.0
C1150 C 0.90511 0.58141 0.16109 0.0
H1151 H 0.87656 0.44339 0.15312 0.0
H1152 H 0.88656 0.49173 0.14824 0.0
H1153 H 0.9251 0.45993 0.1521 0.0
H1154 H 0.9722 0.51124 0.15781 0.0
H1155 H 0.00094 0.5589 0.14382 0.0
H1156 H 0.91915 0.5054 0.4607 0.0
H1157 H 0.87387 0.5338 0.44564 0.0
H1158 H 0.92316 0.64512 0.45291 0.0
H1159 H 0.96877 0.61691 0.46794 0.0
H1160 H 0.82075 0.60112 0.45069 0.0
H1161 H 0.93013 0.62222 0.41257 0.0
H1162 H 0.93654 0.58804 0.42522 0.0
H1163 H 0.94126 0.63823 0.42865 0.0
C1164 C 0.92014 0.53595 0.45914 0.0
C1165 C 0.94745 0.55898 0.46544 0.0
C1166 C 0.89431 0.55209 0.45058 0.0
C1167 C 0.89568 0.59136 0.44811 0.0
C1168 C 0.92206 0.61467 0.45466 0.0
H1169 H 0.76355 0.72043 0.39223 0.0
H1170 H 0.81311 0.70091 0.40744 0.0
C1171 C 0.94775 0.5986 0.4633 0.0
C1172 C 0.86978 0.60761 0.43848 0.0
H1173 H 0.86681 0.64002 0.40778 0.0
C1174 C 0.83074 0.60985 0.44133 0.0
C1175 C 0.88322 0.61914 0.42635 0.0
C1176 C 0.92504 0.61674 0.4229 0.0
C1177 C 0.80448 0.623 0.43227 0.0
C1178 C 0.81766 0.63314 0.41994 0.0
C1179 C 0.8569 0.63195 0.41721 0.0
C1180 C 0.79074 0.64369 0.40968 0.0
C1181 C 0.76286 0.626 0.43598 0.0
C1182 C 0.76303 0.61734 0.4055 0.0
C1183 C 0.73476 0.62835 0.3969 0.0
C1184 C 0.73398 0.66582 0.3922 0.0
C1185 C 0.76341 0.69138 0.39569 0.0
C1186 C 0.79161 0.68035 0.40441 0.0
H1187 H 0.75922 0.62786 0.44656 0.0
H1188 H 0.74928 0.65143 0.43163 0.0
H1189 H 0.7475 0.60009 0.43247 0.0
H1190 H 0.76257 0.58857 0.40922 0.0
H1191 H 0.7128 0.60784 0.39425 0.0
H1192 H 0.79698 0.60151 0.70461 0.0
H1193 H 0.76876 0.54402 0.69495 0.0
H1194 H 0.67369 0.55222 0.72115 0.0
H1195 H 0.70242 0.60915 0.73122 0.0
H1196 H 0.70183 0.47603 0.71721 0.0
H1197 H 0.67439 0.55058 0.6715 0.0
H1198 H 0.7233 0.55302 0.67669 0.0
H1199 H 0.68663 0.57585 0.68616 0.0
C1200 C 0.77038 0.59081 0.70848 0.0
C1201 C 0.75184 0.61013 0.71865 0.0
C1202 C 0.75413 0.55812 0.70287 0.0
C1203 C 0.71889 0.54425 0.70722 0.0
C1204 C 0.70082 0.56264 0.71762 0.0
H1205 H 0.5851 0.39598 0.6578 0.0
H1206 H 0.60233 0.44366 0.67406 0.0
C1207 C 0.7171 0.59535 0.72327 0.0
C1208 C 0.70025 0.51157 0.70052 0.0
H1209 H 0.66626 0.48321 0.67124 0.0
C1210 C 0.69374 0.47756 0.70718 0.0
C1211 C 0.68915 0.51394 0.68751 0.0
C1212 C 0.69334 0.55041 0.68006 0.0
C1213 C 0.67744 0.44536 0.70102 0.0
C1214 C 0.66797 0.44726 0.68785 0.0
C1215 C 0.67362 0.48167 0.68133 0.0
C1216 C 0.65309 0.41402 0.68035 0.0
C1217 C 0.67028 0.40983 0.70868 0.0
C1218 C 0.67498 0.38054 0.67888 0.0
C1219 C 0.66481 0.35271 0.66968 0.0
C1220 C 0.63301 0.35833 0.66165 0.0
C1221 C 0.60978 0.39066 0.66379 0.0
C1222 C 0.61962 0.41807 0.67308 0.0
H1223 H 0.66787 0.41659 0.7191 0.0
H1224 H 0.64378 0.39505 0.70546 0.0
H1225 H 0.69465 0.38984 0.70733 0.0
H1226 H 0.70131 0.37706 0.6842 0.0
H1227 H 0.68347 0.32831 0.66824 0.0
H1228 H 0.7379 0.61056 0.01118 0.0
H1229 H 0.79676 0.63555 0.02103 0.0
H1230 H 0.77225 0.57284 0.05539 0.0
H1231 H 0.7142 0.54715 0.0455 0.0
H1232 H 0.80827 0.67952 0.04148 0.0
H1233 H 0.88082 0.54201 0.04948 0.0
H1234 H 0.8389 0.54568 0.03947 0.0
H1235 H 0.83427 0.54142 0.05662 0.0
C1236 C 0.74528 0.60202 0.02081 0.0
C1237 C 0.7217 0.57662 0.02754 0.0
C1238 C 0.77891 0.61622 0.02641 0.0
C1239 C 0.78946 0.60538 0.03884 0.0
C1240 C 0.76549 0.58059 0.04563 0.0
H1241 H 0.90768 0.7181 0.09827 0.0
H1242 H 0.86734 0.70092 0.08015 0.0
C1243 C 0.7322 0.56606 0.03999 0.0
C1244 C 0.82448 0.62113 0.04504 0.0
H1245 H 0.90082 0.59482 0.06324 0.0
C1246 C 0.82894 0.66101 0.04604 0.0
C1247 C 0.85225 0.59714 0.05065 0.0
C1248 C 0.85154 0.55421 0.04886 0.0
C1249 C 0.85876 0.67744 0.0533 0.0
C1250 C 0.88404 0.65331 0.06006 0.0
C1251 C 0.8812 0.6135 0.05826 0.0
C1252 C 0.91078 0.66814 0.07007 0.0
C1253 C 0.8624 0.72048 0.05372 0.0
C1254 C 0.9488 0.65514 0.07063 0.0
C1255 C 0.9718 0.664 0.08128 0.0
C1256 C 0.95727 0.68629 0.0915 0.0
C1257 C 0.91994 0.70096 0.09056 0.0
C1258 C 0.89683 0.6915 0.08008 0.0
H1259 H 0.85352 0.73293 0.04444 0.0
H1260 H 0.84303 0.7323 0.06122 0.0
H1261 H 0.8921 0.72981 0.05588 0.0
H1262 H 0.96023 0.63694 0.06306 0.0
H1263 H 0.00049 0.6524 0.08167 0.0
H1264 H 0.72266 0.36632 0.30035 0.0
H1265 H 0.70031 0.42754 0.30916 0.0
H1266 H 0.70792 0.47749 0.2717 0.0
H1267 H 0.73094 0.41643 0.2628 0.0
H1268 H 0.74388 0.49824 0.30733 0.0
H1269 H 0.5988 0.50797 0.28546 0.0
H1270 H 0.62265 0.46267 0.28764 0.0
H1271 H 0.63826 0.49424 0.27531 0.0
C1272 C 0.71963 0.39029 0.29397 0.0
C1273 C 0.72874 0.3865 0.28088 0.0
C1274 C 0.70661 0.42516 0.299 0.0
C1275 C 0.70218 0.45686 0.29105 0.0
C1276 C 0.71056 0.45315 0.27794 0.0
H1277 H 0.68276 0.68146 0.32984 0.0
H1278 H 0.69838 0.63524 0.31268 0.0
C1279 C 0.72367 0.41823 0.27288 0.0
C1280 C 0.69118 0.49427 0.29676 0.0
H1281 H 0.61742 0.55787 0.29953 0.0
C1282 C 0.71647 0.51164 0.30551 0.0
C1283 C 0.65534 0.51141 0.29435 0.0
C1284 C 0.62693 0.49322 0.28524 0.0
C1285 C 0.70641 0.54508 0.3123 0.0
C1286 C 0.67026 0.56199 0.31008 0.0
C1287 C 0.64534 0.54518 0.30104 0.0
C1288 C 0.65604 0.59367 0.31839 0.0
C1289 C 0.73372 0.56072 0.32231 0.0
C1290 C 0.62554 0.58661 0.32672 0.0
C1291 C 0.61652 0.61283 0.33645 0.0
C1292 C 0.6377 0.64686 0.33803 0.0
C1293 C 0.66611 0.65542 0.32897 0.0
C1294 C 0.67518 0.62898 0.3192 0.0
H1295 H 0.75732 0.54043 0.32437 0.0
H1296 H 0.7466 0.58766 0.31884 0.0
H1297 H 0.71841 0.56725 0.33141 0.0
H1298 H 0.61023 0.55967 0.32622 0.0
H1299 H 0.5941 0.60542 0.34313 0.0
H1300 H -0.00104 0.44117 0.55499 0.0
H1301 H 0.95375 0.41769 0.57087 0.0
H1302 H 0.86322 0.42114 0.54279 0.0
H1303 H 0.90835 0.44497 0.52679 0.0
H1304 H 0.88689 0.45267 0.57986 0.0
H1305 H 0.8577 0.31159 0.55668 0.0
H1306 H 0.89779 0.34116 0.55226 0.0
H1307 H 0.85071 0.35166 0.54635 0.0
C1308 C 0.96935 0.43729 0.55221 0.0
C1309 C 0.95711 0.44507 0.53966 0.0
C1310 C 0.94366 0.42366 0.56127 0.0
C1311 C 0.90538 0.41729 0.55793 0.0
C1312 C 0.8929 0.42522 0.54545 0.0
H1313 H 0.70513 0.39645 0.60371 0.0
H1314 H 0.75933 0.41784 0.59105 0.0
C1315 C 0.91863 0.43886 0.53635 0.0
C1316 C 0.87836 0.40315 0.56763 0.0
H1317 H 0.81717 0.32998 0.57405 0.0
C1318 C 0.87181 0.42573 0.57865 0.0
C1319 C 0.85936 0.36768 0.5661 0.0
C1320 C 0.86694 0.34138 0.55477 0.0
C1321 C 0.84563 0.41435 0.58802 0.0
C1322 C 0.82526 0.37979 0.58618 0.0
C1323 C 0.83278 0.35657 0.57538 0.0
C1324 C 0.79428 0.36826 0.59491 0.0
C1325 C 0.83993 0.43941 0.59978 0.0
C1326 C 0.79602 0.33321 0.60125 0.0
C1327 C 0.76494 0.32072 0.60849 0.0
C1328 C 0.7315 0.34296 0.60935 0.0
C1329 C 0.7304 0.37856 0.60324 0.0
C1330 C 0.76146 0.39101 0.59607 0.0
H1331 H 0.86501 0.45827 0.60157 0.0
H1332 H 0.81459 0.45795 0.59832 0.0
H1333 H 0.83486 0.42194 0.60842 0.0
H1334 H 0.82113 0.3152 0.60038 0.0
H1335 H 0.76668 0.29312 0.61303 0.0
H1336 H 0.824 0.63957 0.79648 0.0
H1337 H 0.83944 0.5923 0.8127 0.0
H1338 H 0.93546 0.55365 0.79003 0.0
H1339 H 0.91917 0.59954 0.77345 0.0
H1340 H 0.89495 0.49459 0.79997 0.0
H1341 H 0.92764 0.60307 0.83789 0.0
H1342 H 0.88047 0.60693 0.83122 0.0
H1343 H 0.92149 0.61534 0.82126 0.0
C1344 C 0.84802 0.62058 0.79482 0.0
C1345 C 0.87051 0.62347 0.78369 0.0
C1346 C 0.85711 0.59397 0.8042 0.0
C1347 C 0.88908 0.57014 0.80269 0.0
C1348 C 0.91088 0.5721 0.79143 0.0
H1349 H 0.01762 0.44294 0.85795 0.0
H1350 H 0.99166 0.49108 0.84359 0.0
C1351 C 0.90168 0.5985 0.78201 0.0
C1352 C 0.90005 0.5431 0.81283 0.0
H1353 H 0.92857 0.53816 0.84409 0.0
C1354 C 0.90223 0.50405 0.80963 0.0
C1355 C 0.90999 0.55572 0.82536 0.0
C1356 C 0.91017 0.59757 0.82914 0.0
C1357 C 0.91422 0.47717 0.81862 0.0
C1358 C 0.92332 0.48965 0.83124 0.0
C1359 C 0.9211 0.5287 0.83445 0.0
C1360 C 0.9371 0.46273 0.84102 0.0
C1361 C 0.91822 0.43586 0.81438 0.0
C1362 C 0.91444 0.43171 0.84471 0.0
C1363 C 0.92927 0.40399 0.85282 0.0
C1364 C 0.96687 0.40716 0.85753 0.0
C1365 C 0.9886 0.43962 0.85447 0.0
C1366 C 0.97383 0.46713 0.84626 0.0
H1367 H 0.91954 0.43281 0.80376 0.0
H1368 H 0.94434 0.42283 0.81851 0.0
H1369 H 0.89307 0.41948 0.81775 0.0
H1370 H 0.88563 0.42837 0.84103 0.0
H1371 H 0.9116 0.3796 0.85513 0.0
H1372 H 0.3529 0.59732 0.02211 0.0
H1373 H 0.29709 0.61356 0.03537 0.0
H1374 H 0.32601 0.52319 0.06131 0.0
H1375 H 0.38205 0.50715 0.04829 0.0
H1376 H 0.23216 0.56029 0.04553 0.0
H1377 H 0.32676 0.63001 0.082 0.0
H1378 H 0.34153 0.62227 0.06557 0.0
H1379 H 0.34016 0.58293 0.07641 0.0
C1380 C 0.34731 0.58088 0.03063 0.0
C1381 C 0.37202 0.5511 0.03419 0.0
C1382 C 0.31526 0.58993 0.0381 0.0
C1383 C 0.30758 0.56951 0.04928 0.0
C1384 C 0.33151 0.53915 0.05268 0.0
H1385 H 0.17268 0.62675 0.11563 0.0
H1386 H 0.20917 0.58953 0.09981 0.0
C1387 C 0.36343 0.53 0.04521 0.0
C1388 C 0.27653 0.58189 0.058 0.0
H1389 H 0.26134 0.6269 0.08674 0.0
C1390 C 0.23833 0.5748 0.05457 0.0
C1391 C 0.2849 0.60074 0.06973 0.0
C1392 C 0.3255 0.60977 0.07369 0.0
C1393 C 0.20811 0.58572 0.06275 0.0
C1394 C 0.21651 0.60481 0.07449 0.0
C1395 C 0.25484 0.61188 0.07782 0.0
C1396 C 0.18658 0.61935 0.0834 0.0
C1397 C 0.16765 0.57618 0.05885 0.0
C1398 C 0.16006 0.64696 0.07939 0.0
C1399 C 0.13844 0.66756 0.08845 0.0
C1400 C 0.14369 0.66121 0.10158 0.0
C1401 C 0.16795 0.6317 0.10552 0.0
C1402 C 0.18892 0.61066 0.09649 0.0
H1403 H 0.16676 0.55161 0.05196 0.0
H1404 H 0.14982 0.56925 0.06731 0.0
H1405 H 0.15483 0.60124 0.05405 0.0
H1406 H 0.15831 0.65482 0.0694 0.0
H1407 H 0.12047 0.69082 0.08527 0.0
H1408 H 0.28534 0.56918 0.80481 0.0
H1409 H 0.27287 0.51017 0.81621 0.0
H1410 H 0.28588 0.44513 0.78099 0.0
H1411 H 0.29887 0.50431 0.76947 0.0
H1412 H 0.21912 0.4297 0.79331 0.0
H1413 H 0.33804 0.42125 0.82789 0.0
H1414 H 0.31702 0.46802 0.82827 0.0
H1415 H 0.34015 0.45088 0.81385 0.0
C1416 C 0.2866 0.54229 0.79953 0.0
C1417 C 0.29304 0.5415 0.78622 0.0
C1418 C 0.27959 0.5085 0.80607 0.0
C1419 C 0.27914 0.47316 0.79949 0.0
C1420 C 0.28644 0.47207 0.78626 0.0
H1421 H 0.15938 0.28372 0.8387 0.0
H1422 H 0.20494 0.30982 0.82309 0.0
C1423 C 0.29353 0.50593 0.77969 0.0
C1424 C 0.26643 0.43845 0.80626 0.0
H1425 H 0.27761 0.39253 0.83464 0.0
C1426 C 0.23253 0.42059 0.80214 0.0
C1427 C 0.28422 0.42634 0.81768 0.0
C1428 C 0.32212 0.44239 0.82209 0.0
C1429 C 0.21382 0.39386 0.80984 0.0
C1430 C 0.22972 0.38466 0.82187 0.0
C1431 C 0.26541 0.39982 0.82542 0.0
C1432 C 0.20629 0.36635 0.83184 0.0
C1433 C 0.17551 0.37827 0.8056 0.0
C1434 C 0.19298 0.38923 0.84204 0.0
C1435 C 0.16709 0.37466 0.85082 0.0
C1436 C 0.15404 0.33673 0.84965 0.0
C1437 C 0.16881 0.31311 0.83979 0.0
C1438 C 0.19471 0.32794 0.83088 0.0
H1439 H 0.16628 0.38981 0.79622 0.0
H1440 H 0.1771 0.34663 0.80471 0.0
H1441 H 0.1534 0.38538 0.8129 0.0
H1442 H 0.20159 0.41894 0.84293 0.0
H1443 H 0.15673 0.3935 0.8584 0.0
H1444 H 0.32175 0.4251 0.51245 0.0
H1445 H 0.37554 0.39706 0.52424 0.0
H1446 H 0.29741 0.35654 0.55301 0.0
H1447 H 0.2438 0.38453 0.54134 0.0
H1448 H 0.38835 0.42165 0.55108 0.0
H1449 H 0.3716 0.26415 0.54543 0.0
H1450 H 0.35256 0.29758 0.53399 0.0
H1451 H 0.32854 0.29036 0.54898 0.0
C1452 C 0.31613 0.40949 0.52115 0.0
C1453 C 0.27888 0.40714 0.52609 0.0
C1454 C 0.34672 0.39353 0.52784 0.0
C1455 C 0.34021 0.37443 0.53938 0.0
C1456 C 0.30283 0.37065 0.54401 0.0
H1457 H 0.46134 0.2894 0.60435 0.0
H1458 H 0.41533 0.3056 0.5875 0.0
C1459 C 0.27238 0.38695 0.53742 0.0
C1460 C 0.37251 0.36296 0.54753 0.0
H1461 H 0.41298 0.28628 0.56211 0.0
C1462 C 0.39427 0.39205 0.55336 0.0
C1463 C 0.37947 0.32436 0.55056 0.0
C1464 C 0.35705 0.29218 0.54436 0.0
C1465 C 0.42197 0.38371 0.5626 0.0
C1466 C 0.42881 0.34507 0.56575 0.0
C1467 C 0.40765 0.31586 0.55966 0.0
C1468 C 0.45686 0.33454 0.57569 0.0
C1469 C 0.44222 0.4165 0.56933 0.0
C1470 C 0.49533 0.34534 0.57457 0.0
C1471 C 0.52127 0.33687 0.58429 0.0
C1472 C 0.50933 0.31646 0.59505 0.0
C1473 C 0.47112 0.30479 0.59604 0.0
C1474 C 0.44496 0.31402 0.58645 0.0
H1475 H 0.42629 0.44382 0.56839 0.0
H1476 H 0.44613 0.41073 0.5797 0.0
H1477 H 0.47083 0.42042 0.56496 0.0
H1478 H 0.50526 0.36042 0.56621 0.0
H1479 H 0.5508 0.34571 0.58329 0.0
H1480 H 0.41954 0.48062 0.26189 0.0
H1481 H 0.45073 0.53289 0.27385 0.0
H1482 H 0.45181 0.46402 0.30784 0.0
H1483 H 0.42176 0.41148 0.2959 0.0
H1484 H 0.41889 0.56918 0.2944 0.0
H1485 H 0.5589 0.50931 0.30835 0.0
H1486 H 0.5299 0.48839 0.29572 0.0
H1487 H 0.52035 0.47769 0.31225 0.0
C1488 C 0.42724 0.47636 0.27183 0.0
C1489 C 0.41799 0.44208 0.27799 0.0
C1490 C 0.44496 0.50623 0.27865 0.0
C1491 C 0.45406 0.50211 0.29168 0.0
C1492 C 0.44582 0.46752 0.29772 0.0
H1493 H 0.45164 0.66434 0.35334 0.0
H1494 H 0.4397 0.61528 0.33681 0.0
C1495 C 0.4281 0.43774 0.29094 0.0
C1496 C 0.46795 0.53518 0.29939 0.0
H1497 H 0.5353 0.56178 0.32149 0.0
C1498 C 0.4447 0.56783 0.30016 0.0
C1499 C 0.50191 0.53364 0.30674 0.0
C1500 C 0.52941 0.50052 0.30562 0.0
C1501 C 0.45333 0.59809 0.30864 0.0
C1502 C 0.48557 0.59514 0.31675 0.0
C1503 C 0.51013 0.56357 0.31544 0.0
C1504 C 0.49345 0.62392 0.32696 0.0
C1505 C 0.42759 0.63275 0.3089 0.0
C1506 C 0.52813 0.64402 0.32714 0.0
C1507 C 0.53524 0.67155 0.3367 0.0
C1508 C 0.50775 0.6794 0.3462 0.0
C1509 C 0.47322 0.65893 0.34609 0.0
C1510 C 0.46631 0.63112 0.33662 0.0
H1511 H 0.41215 0.63593 0.29965 0.0
H1512 H 0.40588 0.62944 0.31656 0.0
H1513 H 0.44406 0.65934 0.31091 0.0
H1514 H 0.54941 0.63886 0.31976 0.0
H1515 H 0.56174 0.68751 0.33642 0.0
H1516 H 0.37541 0.48911 0.95513 0.0
H1517 H 0.31724 0.46946 0.94388 0.0
H1518 H 0.29277 0.38872 0.97368 0.0
H1519 H 0.35159 0.40782 0.98486 0.0
H1520 H 0.28756 0.35571 0.95105 0.0
H1521 H 0.20598 0.49052 0.94902 0.0
H1522 H 0.25324 0.49711 0.94282 0.0
H1523 H 0.24684 0.48494 0.95942 0.0
C1524 C 0.35727 0.46766 0.9594 0.0
C1525 C 0.36803 0.45 0.97087 0.0
C1526 C 0.32382 0.45665 0.95301 0.0
C1527 C 0.30005 0.42823 0.95807 0.0
C1528 C 0.31045 0.41096 0.96965 0.0
H1529 H 0.10804 0.32164 0.91487 0.0
H1530 H 0.13962 0.35502 0.93299 0.0
C1531 C 0.34415 0.4217 0.97598 0.0
C1532 C 0.26686 0.41374 0.95053 0.0
H1533 H 0.19088 0.44276 0.93244 0.0
C1534 C 0.26583 0.37462 0.94729 0.0
C1535 C 0.23826 0.4383 0.94565 0.0
C1536 C 0.2359 0.47997 0.94954 0.0
C1537 C 0.2387 0.35996 0.93862 0.0
C1538 C 0.2121 0.38506 0.933 0.0
C1539 C 0.21151 0.42369 0.93676 0.0
C1540 C 0.18886 0.37216 0.92193 0.0
C1541 C 0.23993 0.31807 0.93491 0.0
C1542 C 0.2056 0.37213 0.90974 0.0
C1543 C 0.18801 0.35297 0.89952 0.0
C1544 C 0.15318 0.33375 0.90129 0.0
C1545 C 0.13479 0.33644 0.91326 0.0
C1546 C 0.15277 0.35535 0.92359 0.0
H1547 H 0.25931 0.30155 0.94121 0.0
H1548 H 0.21082 0.3055 0.93539 0.0
H1549 H 0.25009 0.31495 0.92486 0.0
H1550 H 0.23348 0.38494 0.90832 0.0
H1551 H 0.20265 0.35155 0.89036 0.0
H1552 H 0.33331 0.52517 0.71394 0.0
H1553 H 0.36218 0.47357 0.70126 0.0
H1554 H 0.47429 0.50902 0.71399 0.0
H1555 H 0.44569 0.56185 0.72631 0.0
H1556 H 0.47064 0.49884 0.68813 0.0
H1557 H 0.40823 0.37299 0.71192 0.0
H1558 H 0.37224 0.40651 0.70721 0.0
H1559 H 0.40722 0.42031 0.7191 0.0
C1560 C 0.36411 0.52197 0.71407 0.0
C1561 C 0.38721 0.54768 0.7211 0.0
C1562 C 0.38053 0.49213 0.70696 0.0
C1563 C 0.42033 0.48708 0.70686 0.0
C1564 C 0.44348 0.51224 0.71404 0.0
H1565 H 0.55316 0.32225 0.66078 0.0
H1566 H 0.53532 0.37065 0.67698 0.0
C1567 C 0.42707 0.54223 0.72114 0.0
C1568 C 0.43771 0.45731 0.69847 0.0
H1569 H 0.4331 0.36226 0.69062 0.0
C1570 C 0.46298 0.46887 0.68881 0.0
C1571 C 0.42773 0.41823 0.69941 0.0
C1572 C 0.40268 0.40371 0.71006 0.0
C1573 C 0.4771 0.44259 0.67968 0.0
C1574 C 0.46564 0.40396 0.68028 0.0
C1575 C 0.44147 0.3921 0.69017 0.0
C1576 C 0.47699 0.37574 0.67035 0.0
C1577 C 0.50287 0.45639 0.66911 0.0
C1578 C 0.44994 0.36269 0.66139 0.0
C1579 C 0.46006 0.33537 0.6521 0.0
C1580 C 0.49746 0.32065 0.65165 0.0
C1581 C 0.5245 0.33387 0.66067 0.0
C1582 C 0.51431 0.36122 0.66997 0.0
H1583 H 0.50688 0.48792 0.66946 0.0
H1584 H 0.53127 0.44254 0.66995 0.0
H1585 H 0.49081 0.44803 0.65961 0.0
H1586 H 0.42094 0.3736 0.66161 0.0
H1587 H 0.43855 0.32565 0.64532 0.0
H1588 H 0.31902 0.54718 0.47829 0.0
H1589 H 0.37038 0.57848 0.46632 0.0
H1590 H 0.28845 0.616 0.43825 0.0
H1591 H 0.23703 0.58497 0.45016 0.0
H1592 H 0.38471 0.55974 0.43863 0.0
H1593 H 0.35439 0.71365 0.44866 0.0
H1594 H 0.33891 0.67606 0.45919 0.0
H1595 H 0.31428 0.6838 0.44436 0.0
C1596 C 0.31199 0.56249 0.46964 0.0
C1597 C 0.2742 0.56354 0.46508 0.0
C1598 C 0.34123 0.58028 0.46285 0.0
C1599 C 0.33292 0.59982 0.45153 0.0
C1600 C 0.29518 0.60144 0.44707 0.0
H1601 H 0.46242 0.71062 0.39221 0.0
H1602 H 0.41274 0.68842 0.40696 0.0
C1603 C 0.26601 0.58339 0.45379 0.0
C1604 C 0.36406 0.61585 0.44379 0.0
H1605 H 0.40127 0.69948 0.4329 0.0
C1606 C 0.38865 0.59027 0.43744 0.0
C1607 C 0.36849 0.65564 0.4422 0.0
C1608 C 0.34284 0.68406 0.44901 0.0
C1609 C 0.41732 0.60344 0.42926 0.0
C1610 C 0.42212 0.64332 0.42773 0.0
C1611 C 0.39756 0.66895 0.43415 0.0
C1612 C 0.45222 0.65881 0.41936 0.0
C1613 C 0.44132 0.57444 0.42201 0.0
C1614 C 0.49076 0.65015 0.42165 0.0
C1615 C 0.5189 0.66238 0.41319 0.0
C1616 C 0.50899 0.68432 0.40253 0.0
C1617 C 0.47065 0.69425 0.4005 0.0
C1618 C 0.44237 0.68145 0.40886 0.0
H1619 H 0.42707 0.54605 0.42143 0.0
H1620 H 0.44738 0.58404 0.41211 0.0
H1621 H 0.46895 0.5707 0.42707 0.0
H1622 H 0.499 0.63346 0.42987 0.0
H1623 H 0.54843 0.65468 0.41496 0.0
H1624 H 0.23818 0.46317 0.21886 0.0
H1625 H 0.22409 0.52084 0.20689 0.0
H1626 H 0.34346 0.53201 0.19717 0.0
H1627 H 0.35758 0.47328 0.20893 0.0
H1628 H 0.24765 0.59497 0.20858 0.0
H1629 H 0.29451 0.52875 0.16219 0.0
H1630 H 0.28965 0.50109 0.17654 0.0
H1631 H 0.32975 0.53267 0.17467 0.0
C1632 C 0.26151 0.47811 0.21428 0.0
C1633 C 0.29892 0.46363 0.21474 0.0
C1634 C 0.25346 0.51113 0.20746 0.0
C1635 C 0.28263 0.53057 0.20101 0.0
C1636 C 0.32037 0.51707 0.20185 0.0
H1637 H 0.17416 0.71915 0.15712 0.0
H1638 H 0.22432 0.69248 0.17101 0.0
C1639 C 0.3284 0.48359 0.20857 0.0
C1640 C 0.27218 0.56319 0.19276 0.0
H1641 H 0.25999 0.58555 0.16128 0.0
C1642 C 0.25112 0.59353 0.19825 0.0
C1643 C 0.27703 0.56135 0.17928 0.0
C1644 C 0.29873 0.52919 0.17275 0.0
C1645 C 0.23176 0.61991 0.19056 0.0
C1646 C 0.23413 0.61612 0.17708 0.0
C1647 C 0.25833 0.58825 0.17165 0.0
C1648 C 0.20537 0.63383 0.16861 0.0
C1649 C 0.20614 0.64941 0.19685 0.0
C1650 C 0.1785 0.60973 0.16267 0.0
C1651 C 0.15028 0.62462 0.15483 0.0
C1652 C 0.14806 0.66418 0.15267 0.0
C1653 C 0.17504 0.68857 0.15862 0.0
C1654 C 0.20363 0.67343 0.16655 0.0
H1655 H 0.20632 0.64753 0.20748 0.0
H1656 H 0.21568 0.6785 0.19418 0.0
H1657 H 0.17631 0.6457 0.19339 0.0
H1658 H 0.17915 0.57913 0.16421 0.0
H1659 H 0.13008 0.60482 0.15047 0.0
loop_
_geom_bond_atom_site_label_1
_geom_bond_atom_site_label_2
_geom_bond_distance
_geom_bond_site_symmetry_2
_ccdc_geom_bond_type
H0 C19 0.949 . S
H1 C20 0.950 . S
H2 C22 0.950 1_545 S
H3 C23 0.978 . S
H4 C25 0.950 . S
H5 C28 0.950 1_565 S
H6 C29 0.950 . S
H7 C31 0.951 . S
H8 C32 0.949 . S
H9 C34 0.949 . S
H10 C35 0.950 . S
H11 C37 0.950 1_565 S
H12 C38 0.953 1_565 S
H13 C40 0.950 . S
H14 C43 0.950 1_545 S
H15 C44 0.952 . S
H16 C46 0.951 . S
H17 C47 0.949 . S
C18 C19 1.376 . S
C18 C23 1.367 1_565 S
C18 C24 1.483 . S
C19 H0 0.949 . S
C19 C18 1.376 . S
C19 C20 1.397 . S
C20 H1 0.950 . S
C20 C19 1.397 . S
C20 C21 1.391 . S
C21 C20 1.391 . S
C21 C22 1.405 . S
C22 H2 0.950 1_565 S
C22 C21 1.405 . S
C22 C23 1.359 1_565 S
C23 H3 0.978 . S
C23 C18 1.367 1_545 S
C23 C22 1.359 1_545 S
C24 C18 1.483 . S
C24 C25 1.382 1_655 S
C24 C26 1.403 1_565 S
C25 H4 0.950 . S
C25 C24 1.382 1_455 S
C25 C41 1.411 . S
C26 C24 1.403 1_545 S
C26 C27 1.489 . S
C26 C40 1.411 1_655 S
C27 C26 1.489 . S
C27 C28 1.383 . S
C27 C32 1.382 . S
C28 H5 0.950 1_545 S
C28 C27 1.383 . S
C28 C29 1.395 . S
C29 H6 0.950 . S
C29 C28 1.395 . S
C29 C30 1.288 . S
C30 C29 1.288 . S
C30 C31 1.392 . S
C31 H7 0.951 . S
C31 C30 1.392 . S
C31 C32 1.392 . S
C32 H8 0.949 . S
C32 C27 1.382 . S
C32 C31 1.392 . S
C33 C34 1.376 . S
C33 C38 1.384 . S
C33 C39 1.483 . S
C34 H9 0.949 . S
C34 C33 1.376 . S
C34 C35 1.397 . S
C35 H10 0.950 . S
C35 C34 1.397 . S
C35 C36 1.391 . S
C36 C35 1.391 . S
C36 C37 1.405 . S
C37 H11 0.950 1_545 S
C37 C36 1.405 . S
C37 C38 1.366 . S
C38 H12 0.953 1_545 S
C38 C33 1.384 . S
C38 C37 1.366 . S
C39 C33 1.483 . S
C39 C40 1.382 . S
C39 C41 1.403 1_545 S
C40 H13 0.950 . S
C40 C26 1.411 1_455 S
C40 C39 1.382 . S
C41 C25 1.411 . S
C41 C39 1.403 1_565 S
C41 C42 1.489 . S
C42 C41 1.489 . S
C42 C43 1.383 . S
C42 C47 1.382 . S
C43 H14 0.950 1_565 S
C43 C42 1.383 . S
C43 C44 1.395 . S
C44 H15 0.952 . S
C44 C43 1.395 . S
C44 C45 1.288 . S
C45 C44 1.288 . S
C45 C46 1.392 . S
C46 H16 0.951 . S
C46 C45 1.392 . S
C46 C47 1.392 . S
C47 H17 0.949 . S
C47 C42 1.382 . S
C47 C46 1.392 . S
H48 C67 0.949 . S
H49 C68 0.950 . S
H50 C70 0.950 . S
H51 C71 0.950 . S
H52 C73 0.950 . S
H53 C76 0.950 . S
H54 C77 0.950 . S
H55 C79 0.951 . S
H56 C80 0.949 . S
H57 C82 0.949 . S
H58 C83 0.950 . S
H59 C85 0.950 . S
H60 C86 0.950 . S
H61 C88 0.950 . S
H62 C91 0.950 . S
H63 C92 0.950 . S
H64 C94 0.951 . S
H65 C95 0.949 . S
C66 C67 1.376 . S
C66 C71 1.386 . S
C66 C72 1.483 . S
C67 H48 0.949 . S
C67 C66 1.376 . S
C67 C68 1.397 . S
C68 H49 0.950 . S
C68 C67 1.397 . S
C68 C69 1.391 . S
C69 C68 1.391 . S
C69 C70 1.405 . S
C70 H50 0.950 . S
C70 C69 1.405 . S
C70 C71 1.367 . S
C71 H51 0.950 . S
C71 C66 1.386 . S
C71 C70 1.367 . S
C72 C66 1.483 . S
C72 C73 1.382 . S
C72 C74 1.403 . S
C73 H52 0.950 . S
C73 C72 1.382 . S
C73 C89 1.411 . S
C74 C72 1.403 . S
C74 C75 1.489 . S
C74 C88 1.411 . S
C75 C74 1.489 . S
C75 C76 1.383 . S
C75 C80 1.382 . S
C76 H53 0.950 . S
C76 C75 1.383 . S
C76 C77 1.395 . S
C77 H54 0.950 . S
C77 C76 1.395 . S
C77 C78 1.288 . S
C78 C77 1.288 . S
C78 C79 1.392 . S
C79 H55 0.951 . S
C79 C78 1.392 . S
C79 C80 1.392 . S
C80 H56 0.949 . S
C80 C75 1.382 . S
C80 C79 1.392 . S
C81 C82 1.376 . S
C81 C86 1.386 . S
C81 C87 1.483 . S
C82 H57 0.949 . S
C82 C81 1.376 . S
C82 C83 1.397 . S
C83 H58 0.950 . S
C83 C82 1.397 . S
C83 C84 1.391 . S
C84 C83 1.391 . S
C84 C85 1.405 . S
C85 H59 0.950 . S
C85 C84 1.405 . S
C85 C86 1.367 . S
C86 H60 0.950 . S
C86 C81 1.386 . S
C86 C85 1.367 . S
C87 C81 1.483 . S
C87 C88 1.382 . S
C87 C89 1.403 . S
C88 H61 0.950 . S
C88 C74 1.411 . S
C88 C87 1.382 . S
C89 C73 1.411 . S
C89 C87 1.403 . S
C89 C90 1.489 . S
C90 C89 1.489 . S
C90 C91 1.383 . S
C90 C95 1.382 . S
C91 H62 0.950 . S
C91 C90 1.383 . S
C91 C92 1.395 . S
C92 H63 0.950 . S
C92 C91 1.395 . S
C92 C93 1.288 . S
C93 C92 1.288 . S
C93 C94 1.392 . S
C94 H64 0.951 . S
C94 C93 1.392 . S
C94 C95 1.392 . S
C95 H65 0.949 . S
C95 C90 1.382 . S
C95 C94 1.392 . S
H96 C115 0.949 1_545 S
H97 C116 0.950 . S
H98 C118 0.950 . S
H99 C119 0.950 1_556 S
H100 C121 0.950 . S
H101 C124 0.950 1_554 S
H102 C125 0.950 . S
H103 C127 0.951 . S
H104 C128 0.949 1_565 S
H105 C130 0.949 1_565 S
H106 C131 0.950 . S
H107 C133 0.950 . S
H108 C134 0.950 1_554 S
H109 C136 0.950 . S
H110 C139 0.904 1_556 S
H111 C140 0.950 . S
H112 C142 0.951 . S
H113 C143 0.949 1_545 S
C114 C115 1.376 . S
C114 C119 1.386 . S
C114 C120 1.483 . S
C115 H96 0.949 1_565 S
C115 C114 1.376 . S
C115 C116 1.397 . S
C116 H97 0.950 . S
C116 C115 1.397 . S
C116 C117 1.391 . S
C117 C116 1.391 . S
C117 C118 1.405 . S
C118 H98 0.950 . S
C118 C117 1.405 . S
C118 C119 1.367 . S
C119 H99 0.950 1_554 S
C119 C114 1.386 . S
C119 C118 1.367 . S
C120 C114 1.483 . S
C120 C121 1.382 . S
C120 C122 1.403 1_564 S
C121 H100 0.950 . S
C121 C120 1.382 . S
C121 C137 1.411 . S
C122 C120 1.403 1_546 S
C122 C123 1.489 . S
C122 C136 1.411 . S
C123 C122 1.489 . S
C123 C124 1.383 . S
C123 C128 1.382 . S
C124 H101 0.950 1_556 S
C124 C123 1.383 . S
C124 C125 1.395 . S
C125 H102 0.950 . S
C125 C124 1.395 . S
C125 C126 1.288 . S
C126 C125 1.288 . S
C126 C127 1.392 . S
C127 H103 0.951 . S
C127 C126 1.392 . S
C127 C128 1.392 . S
C128 H104 0.949 1_545 S
C128 C123 1.382 . S
C128 C127 1.392 . S
C129 C130 1.376 . S
C129 C134 1.386 . S
C129 C135 1.483 . S
C130 H105 0.949 1_545 S
C130 C129 1.376 . S
C130 C131 1.397 . S
C131 H106 0.950 . S
C131 C130 1.397 . S
C131 C132 1.391 . S
C132 C131 1.391 . S
C132 C133 1.405 . S
C133 H107 0.950 . S
C133 C132 1.405 . S
C133 C134 1.367 . S
C134 H108 0.950 1_556 S
C134 C129 1.386 . S
C134 C133 1.367 . S
C135 C129 1.483 . S
C135 C136 1.382 . S
C135 C137 1.403 1_546 S
C136 H109 0.950 . S
C136 C122 1.411 . S
C136 C135 1.382 . S
C137 C121 1.411 . S
C137 C135 1.403 1_564 S
C137 C138 1.489 . S
C138 C137 1.489 . S
C138 C139 1.383 . S
C138 C143 1.382 . S
C139 H110 0.904 1_554 S
C139 C138 1.383 . S
C139 C140 1.395 . S
C140 H111 0.950 . S
C140 C139 1.395 . S
C140 C141 1.288 . S
C141 C140 1.288 . S
C141 C142 1.392 . S
C142 H112 0.951 . S
C142 C141 1.392 . S
C142 C143 1.392 . S
C143 H113 0.949 1_565 S
C143 C138 1.382 . S
C143 C142 1.392 . S
H144 C163 0.949 . S
H145 C164 0.950 . S
H146 C166 0.950 . S
H147 C167 0.950 . S
H148 C169 0.950 . S
H149 C172 0.950 . S
H150 C173 0.950 . S
H151 C175 0.951 . S
H152 C176 0.949 . S
H153 C178 0.949 . S
H154 C179 0.950 . S
H155 C181 0.950 . S
H156 C182 0.950 . S
H157 C184 0.950 . S
H158 C187 0.950 . S
H159 C188 0.950 . S
H160 C190 0.951 . S
H161 C191 0.949 . S
C162 C163 1.376 . S
C162 C167 1.386 . S
C162 C168 1.483 . S
C163 H144 0.949 . S
C163 C162 1.376 . S
C163 C164 1.397 . S
C164 H145 0.950 . S
C164 C163 1.397 . S
C164 C165 1.391 . S
C165 C164 1.391 . S
C165 C166 1.405 . S
C166 H146 0.950 . S
C166 C165 1.405 . S
C166 C167 1.367 . S
C167 H147 0.950 . S
C167 C162 1.386 . S
C167 C166 1.367 . S
C168 C162 1.483 . S
C168 C169 1.382 . S
C168 C170 1.403 . S
C169 H148 0.950 . S
C169 C168 1.382 . S
C169 C185 1.411 . S
C170 C168 1.403 . S
C170 C171 1.489 . S
C170 C184 1.411 . S
C171 C170 1.489 . S
C171 C172 1.383 . S
C171 C176 1.382 . S
C172 H149 0.950 . S
C172 C171 1.383 . S
C172 C173 1.395 . S
C173 H150 0.950 . S
C173 C172 1.395 . S
C173 C174 1.288 . S
C174 C173 1.288 . S
C174 C175 1.392 . S
C175 H151 0.951 . S
C175 C174 1.392 . S
C175 C176 1.392 . S
C176 H152 0.949 . S
C176 C171 1.382 . S
C176 C175 1.392 . S
C177 C178 1.376 . S
C177 C182 1.386 . S
C177 C183 1.483 . S
C178 H153 0.949 . S
C178 C177 1.376 . S
C178 C179 1.397 . S
C179 H154 0.950 . S
C179 C178 1.397 . S
C179 C180 1.391 . S
C180 C179 1.391 . S
C180 C181 1.405 . S
C181 H155 0.950 . S
C181 C180 1.405 . S
C181 C182 1.367 . S
C182 H156 0.950 . S
C182 C177 1.386 . S
C182 C181 1.367 . S
C183 C177 1.483 . S
C183 C184 1.382 . S
C183 C185 1.403 . S
C184 H157 0.950 . S
C184 C170 1.411 . S
C184 C183 1.382 . S
C185 C169 1.411 . S
C185 C183 1.403 . S
C185 C186 1.489 . S
C186 C185 1.489 . S
C186 C187 1.383 . S
C186 C191 1.382 . S
C187 H158 0.950 . S
C187 C186 1.383 . S
C187 C188 1.395 . S
C188 H159 0.950 . S
C188 C187 1.395 . S
C188 C189 1.288 . S
C189 C188 1.288 . S
C189 C190 1.392 . S
C190 H160 0.951 . S
C190 C189 1.392 . S
C190 C191 1.392 . S
C191 H161 0.949 . S
C191 C186 1.382 . S
C191 C190 1.392 . S
H192 C211 0.949 . S
H193 C212 0.950 . S
H194 C214 0.950 . S
H195 C215 0.950 . S
H196 C217 0.950 . S
H197 C220 0.950 . S
H198 C221 0.950 . S
H199 C223 0.951 . S
H200 C224 0.949 . S
H201 C226 0.949 . S
H202 C227 0.950 . S
H203 C229 0.950 . S
H204 C230 0.950 . S
H205 C232 0.950 . S
H206 C235 0.950 . S
H207 C236 0.950 . S
H208 C238 0.951 . S
H209 C239 0.949 . S
C210 C211 1.376 . S
C210 C215 1.386 . S
C210 C216 1.483 . S
C211 H192 0.949 . S
C211 C210 1.376 . S
C211 C212 1.397 . S
C212 H193 0.950 . S
C212 C211 1.397 . S
C212 C213 1.391 . S
C213 C212 1.391 . S
C213 C214 1.405 . S
C214 H194 0.950 . S
C214 C213 1.405 . S
C214 C215 1.367 . S
C215 H195 0.950 . S
C215 C210 1.386 . S
C215 C214 1.367 . S
C216 C210 1.483 . S
C216 C217 1.382 . S
C216 C218 1.403 . S
C217 H196 0.950 . S
C217 C216 1.382 . S
C217 C233 1.411 . S
C218 C216 1.403 . S
C218 C219 1.489 . S
C218 C232 1.411 . S
C219 C218 1.489 . S
C219 C220 1.383 . S
C219 C224 1.382 . S
C220 H197 0.950 . S
C220 C219 1.383 . S
C220 C221 1.395 . S
C221 H198 0.950 . S
C221 C220 1.395 . S
C221 C222 1.288 . S
C222 C221 1.288 . S
C222 C223 1.392 . S
C223 H199 0.951 . S
C223 C222 1.392 . S
C223 C224 1.392 . S
C224 H200 0.949 . S
C224 C219 1.382 . S
C224 C223 1.392 . S
C225 C226 1.376 . S
C225 C230 1.386 . S
C225 C231 1.483 . S
C226 H201 0.949 . S
C226 C225 1.376 . S
C226 C227 1.397 . S
C227 H202 0.950 . S
C227 C226 1.397 . S
C227 C228 1.391 . S
C228 C227 1.391 . S
C228 C229 1.405 . S
C229 H203 0.950 . S
C229 C228 1.405 . S
C229 C230 1.367 . S
C230 H204 0.950 . S
C230 C225 1.386 . S
C230 C229 1.367 . S
C231 C225 1.483 . S
C231 C232 1.382 . S
C231 C233 1.403 . S
C232 H205 0.950 . S
C232 C218 1.411 . S
C232 C231 1.382 . S
C233 C217 1.411 . S
C233 C231 1.403 . S
C233 C234 1.489 . S
C234 C233 1.489 . S
C234 C235 1.383 . S
C234 C239 1.382 . S
C235 H206 0.950 . S
C235 C234 1.383 . S
C235 C236 1.395 . S
C236 H207 0.950 . S
C236 C235 1.395 . S
C236 C237 1.288 . S
C237 C236 1.288 . S
C237 C238 1.392 . S
C238 H208 0.951 . S
C238 C237 1.392 . S
C238 C239 1.392 . S
C239 H209 0.949 . S
C239 C234 1.382 . S
C239 C238 1.392 . S
H240 C259 0.949 . S
H241 C260 0.950 . S
H242 C262 0.950 . S
H243 C263 0.950 . S
H244 C265 0.950 . S
H245 C268 0.950 . S
H246 C269 0.950 . S
H247 C271 0.951 . S
H248 C272 0.949 . S
H249 C274 0.949 . S
H250 C275 0.950 . S
H251 C277 0.950 . S
H252 C278 0.950 . S
H253 C280 0.950 . S
H254 C283 0.950 . S
H255 C284 0.950 . S
H256 C286 0.951 . S
H257 C287 0.949 . S
C258 C259 1.376 . S
C258 C263 1.386 . S
C258 C264 1.483 . S
C259 H240 0.949 . S
C259 C258 1.376 . S
C259 C260 1.397 . S
C260 H241 0.950 . S
C260 C259 1.397 . S
C260 C261 1.391 . S
C261 C260 1.391 . S
C261 C262 1.405 . S
C262 H242 0.950 . S
C262 C261 1.405 . S
C262 C263 1.367 . S
C263 H243 0.950 . S
C263 C258 1.386 . S
C263 C262 1.367 . S
C264 C258 1.483 . S
C264 C265 1.382 . S
C264 C266 1.403 . S
C265 H244 0.950 . S
C265 C264 1.382 . S
C265 C281 1.411 . S
C266 C264 1.403 . S
C266 C267 1.489 . S
C266 C280 1.411 . S
C267 C266 1.489 . S
C267 C268 1.383 . S
C267 C272 1.382 . S
C268 H245 0.950 . S
C268 C267 1.383 . S
C268 C269 1.395 . S
C269 H246 0.950 . S
C269 C268 1.395 . S
C269 C270 1.288 . S
C270 C269 1.288 . S
C270 C271 1.392 . S
C271 H247 0.951 . S
C271 C270 1.392 . S
C271 C272 1.392 . S
C272 H248 0.949 . S
C272 C267 1.382 . S
C272 C271 1.392 . S
C273 C274 1.376 . S
C273 C278 1.386 . S
C273 C279 1.483 . S
C274 H249 0.949 . S
C274 C273 1.376 . S
C274 C275 1.397 . S
C275 H250 0.950 . S
C275 C274 1.397 . S
C275 C276 1.391 . S
C276 C275 1.391 . S
C276 C277 1.405 . S
C277 H251 0.950 . S
C277 C276 1.405 . S
C277 C278 1.367 . S
C278 H252 0.950 . S
C278 C273 1.386 . S
C278 C277 1.367 . S
C279 C273 1.483 . S
C279 C280 1.382 . S
C279 C281 1.403 . S
C280 H253 0.950 . S
C280 C266 1.411 . S
C280 C279 1.382 . S
C281 C265 1.411 . S
C281 C279 1.403 . S
C281 C282 1.489 . S
C282 C281 1.489 . S
C282 C283 1.383 . S
C282 C287 1.382 . S
C283 H254 0.950 . S
C283 C282 1.383 . S
C283 C284 1.395 . S
C284 H255 0.950 . S
C284 C283 1.395 . S
C284 C285 1.288 . S
C285 C284 1.288 . S
C285 C286 1.392 . S
C286 H256 0.951 . S
C286 C285 1.392 . S
C286 C287 1.392 . S
C287 H257 0.949 . S
C287 C282 1.382 . S
C287 C286 1.392 . S
H288 C307 0.949 . S
H289 C308 0.950 . S
H290 C310 0.950 . S
H291 C311 0.950 . S
H292 C313 0.950 . S
H293 C316 0.950 . S
H294 C317 0.950 . S
H295 C319 0.951 . S
H296 C320 0.949 . S
H297 C322 0.949 . S
H298 C323 0.950 . S
H299 C325 0.950 . S
H300 C326 0.950 . S
H301 C328 0.950 . S
H302 C331 0.950 . S
H303 C332 0.950 . S
H304 C334 0.951 . S
H305 C335 0.949 . S
C306 C307 1.376 . S
C306 C311 1.386 . S
C306 C312 1.483 . S
C307 H288 0.949 . S
C307 C306 1.376 . S
C307 C308 1.397 . S
C308 H289 0.950 . S
C308 C307 1.397 . S
C308 C309 1.391 . S
C309 C308 1.391 . S
C309 C310 1.405 . S
C310 H290 0.950 . S
C310 C309 1.405 . S
C310 C311 1.367 . S
C311 H291 0.950 . S
C311 C306 1.386 . S
C311 C310 1.367 . S
C312 C306 1.483 . S
C312 C313 1.382 . S
C312 C314 1.403 1_556 S
C313 H292 0.950 . S
C313 C312 1.382 . S
C313 C329 1.411 . S
C314 C312 1.403 1_554 S
C314 C315 1.489 . S
C314 C328 1.411 . S
C315 C314 1.489 . S
C315 C316 1.383 . S
C315 C320 1.382 . S
C316 H293 0.950 . S
C316 C315 1.383 . S
C316 C317 1.395 . S
C317 H294 0.950 . S
C317 C316 1.395 . S
C317 C318 1.288 . S
C318 C317 1.288 . S
C318 C319 1.392 . S
C319 H295 0.951 . S
C319 C318 1.392 . S
C319 C320 1.392 . S
C320 H296 0.949 . S
C320 C315 1.382 . S
C320 C319 1.392 . S
C321 C322 1.376 . S
C321 C326 1.386 . S
C321 C327 1.483 . S
C322 H297 0.949 . S
C322 C321 1.376 . S
C322 C323 1.397 . S
C323 H298 0.950 . S
C323 C322 1.397 . S
C323 C324 1.391 . S
C324 C323 1.391 . S
C324 C325 1.405 . S
C325 H299 0.950 . S
C325 C324 1.405 . S
C325 C326 1.367 . S
C326 H300 0.950 . S
C326 C321 1.386 . S
C326 C325 1.367 . S
C327 C321 1.483 . S
C327 C328 1.382 . S
C327 C329 1.403 1_554 S
C328 H301 0.950 . S
C328 C314 1.411 . S
C328 C327 1.382 . S
C329 C313 1.411 . S
C329 C327 1.403 1_556 S
C329 C330 1.489 . S
C330 C329 1.489 . S
C330 C331 1.383 . S
C330 C335 1.382 . S
C331 H302 0.950 . S
C331 C330 1.383 . S
C331 C332 1.395 . S
C332 H303 0.950 . S
C332 C331 1.395 . S
C332 C333 1.288 . S
C333 C332 1.288 . S
C333 C334 1.392 . S
C334 H304 0.951 . S
C334 C333 1.392 . S
C334 C335 1.392 . S
C335 H305 0.949 . S
C335 C330 1.382 . S
C335 C334 1.392 . S
H336 C355 0.949 . S
H337 C356 0.950 . S
H338 C358 0.950 1_655 S
H339 C359 0.950 . S
H340 C361 0.950 . S
H341 C364 0.950 . S
H342 C365 0.950 1_655 S
H343 C367 0.951 . S
H344 C368 0.949 . S
H345 C370 0.949 . S
H346 C371 0.950 . S
H347 C373 0.950 . S
H348 C374 0.950 . S
H349 C376 0.950 . S
H350 C379 0.950 . S
H351 C380 0.950 . S
H352 C382 0.951 . S
H353 C383 0.949 . S
C354 C355 1.376 . S
C354 C359 1.386 . S
C354 C360 1.483 . S
C355 H336 0.949 . S
C355 C354 1.376 . S
C355 C356 1.397 . S
C356 H337 0.950 . S
C356 C355 1.397 . S
C356 C357 1.391 . S
C357 C356 1.391 . S
C357 C358 1.405 . S
C358 H338 0.950 1_455 S
C358 C357 1.405 . S
C358 C359 1.367 . S
C359 H339 0.950 . S
C359 C354 1.386 . S
C359 C358 1.367 . S
C360 C354 1.483 . S
C360 C361 1.382 . S
C360 C362 1.403 . S
C361 H340 0.950 . S
C361 C360 1.382 . S
C361 C377 1.411 . S
C362 C360 1.403 . S
C362 C363 1.489 . S
C362 C376 1.411 . S
C363 C362 1.489 . S
C363 C364 1.383 . S
C363 C368 1.382 . S
C364 H341 0.950 . S
C364 C363 1.383 . S
C364 C365 1.395 . S
C365 H342 0.950 1_455 S
C365 C364 1.395 . S
C365 C366 1.288 . S
C366 C365 1.288 . S
C366 C367 1.392 . S
C367 H343 0.951 . S
C367 C366 1.392 . S
C367 C368 1.392 . S
C368 H344 0.949 . S
C368 C363 1.382 . S
C368 C367 1.392 . S
C369 C370 1.376 . S
C369 C374 1.386 . S
C369 C375 1.483 . S
C370 H345 0.949 . S
C370 C369 1.376 . S
C370 C371 1.397 . S
C371 H346 0.950 . S
C371 C370 1.397 . S
C371 C372 1.391 . S
C372 C371 1.391 . S
C372 C373 1.405 . S
C373 H347 0.950 . S
C373 C372 1.405 . S
C373 C374 1.367 . S
C374 H348 0.950 . S
C374 C369 1.386 . S
C374 C373 1.367 . S
C375 C369 1.483 . S
C375 C376 1.382 . S
C375 C377 1.403 . S
C376 H349 0.950 . S
C376 C362 1.411 . S
C376 C375 1.382 . S
C377 C361 1.411 . S
C377 C375 1.403 . S
C377 C378 1.489 . S
C378 C377 1.489 . S
C378 C379 1.383 . S
C378 C383 1.382 . S
C379 H350 0.950 . S
C379 C378 1.383 . S
C379 C380 1.395 . S
C380 H351 0.950 . S
C380 C379 1.395 . S
C380 C381 1.288 . S
C381 C380 1.288 . S
C381 C382 1.392 . S
C382 H352 0.951 . S
C382 C381 1.392 . S
C382 C383 1.392 . S
C383 H353 0.949 . S
C383 C378 1.382 . S
C383 C382 1.392 . S
C384 O411 1.312 . S
C384 O412 1.208 . S
C385 O406 1.331 1_655 S
C385 O409 1.244 . S
C386 O408 1.264 1_655 S
C386 O410 1.273 . S
Mg387 O389 1.936 . S
Mg387 O396 2.081 . S
Mg387 O398 2.023 . S
Mg387 O402 2.031 . S
Mg387 O411 2.291 . S
Mg388 O389 1.963 . S
Mg388 O399 1.942 . S
Mg388 O400 1.955 . S
Mg388 O407 1.986 . S
O389 Mg387 1.936 . S
O389 Mg388 1.963 . S
O389 Mg390 1.915 . S
Mg390 O389 1.915 . S
Mg390 O391 1.915 . S
Mg390 O395 2.013 . S
Mg390 O401 2.114 . S
Mg390 O405 2.013 . S
Mg390 O411 2.114 . S
O391 Mg390 1.915 . S
O391 Mg392 1.936 . S
O391 Mg393 1.963 1_455 S
Mg392 O391 1.936 . S
Mg392 O401 2.291 . S
Mg392 O406 2.081 . S
Mg392 O408 2.023 . S
Mg392 O412 2.031 . S
Mg393 O391 1.963 1_655 S
Mg393 O397 1.986 . S
Mg393 O409 1.942 . S
Mg393 O410 1.955 . S
C394 O405 1.191 . S
C394 O407 1.307 . S
O395 Mg390 2.013 . S
O395 C414 1.191 . S
O396 Mg387 2.081 . S
O396 C404 1.331 . S
O397 Mg393 1.986 . S
O397 C414 1.307 1_655 S
O398 Mg387 2.023 . S
O398 C413 1.264 . S
O399 Mg388 1.942 . S
O399 C404 1.244 . S
O400 Mg388 1.955 . S
O400 C413 1.273 . S
O401 Mg390 2.114 . S
O401 Mg392 2.291 . S
O401 C403 1.312 . S
O402 Mg387 2.031 . S
O402 C403 1.208 . S
C403 O401 1.312 . S
C403 O402 1.208 . S
C404 O396 1.331 . S
C404 O399 1.244 . S
O405 Mg390 2.013 . S
O405 C394 1.191 . S
O406 C385 1.331 1_455 S
O406 Mg392 2.081 . S
O407 Mg388 1.986 . S
O407 C394 1.307 . S
O408 C386 1.264 1_455 S
O408 Mg392 2.023 . S
O409 C385 1.244 . S
O409 Mg393 1.942 . S
O410 C386 1.273 . S
O410 Mg393 1.955 . S
O411 C384 1.312 . S
O411 Mg387 2.291 . S
O411 Mg390 2.114 . S
O412 C384 1.208 . S
O412 Mg392 2.031 . S
C413 O398 1.264 . S
C413 O400 1.273 . S
C414 O395 1.191 . S
C414 O397 1.307 1_455 S
C415 O442 1.312 . S
C415 O443 1.208 . S
C416 O437 1.331 . S
C416 O440 1.244 . S
C417 O439 1.264 . S
C417 O441 1.273 . S
Mg418 O420 1.936 . S
Mg418 O427 2.081 . S
Mg418 O429 2.023 . S
Mg418 O433 2.031 . S
Mg418 O442 2.291 . S
Mg419 O420 1.963 . S
Mg419 O430 1.942 . S
Mg419 O431 1.955 . S
Mg419 O438 1.986 . S
O420 Mg418 1.936 . S
O420 Mg419 1.963 . S
O420 Mg421 1.915 . S
Mg421 O420 1.915 . S
Mg421 O422 1.915 . S
Mg421 O426 2.013 . S
Mg421 O432 2.114 . S
Mg421 O436 2.013 . S
Mg421 O442 2.114 . S
O422 Mg421 1.915 . S
O422 Mg423 1.936 . S
O422 Mg424 1.963 . S
Mg423 O422 1.936 . S
Mg423 O432 2.291 . S
Mg423 O437 2.081 . S
Mg423 O439 2.023 . S
Mg423 O443 2.031 . S
Mg424 O422 1.963 . S
Mg424 O428 1.986 . S
Mg424 O440 1.942 . S
Mg424 O441 1.955 . S
C425 O436 1.191 . S
C425 O438 1.307 . S
O426 Mg421 2.013 . S
O426 C445 1.191 . S
O427 Mg418 2.081 . S
O427 C435 1.331 . S
O428 Mg424 1.986 . S
O428 C445 1.307 . S
O429 Mg418 2.023 . S
O429 C444 1.264 . S
O430 Mg419 1.942 . S
O430 C435 1.244 . S
O431 Mg419 1.955 . S
O431 C444 1.273 . S
O432 Mg421 2.114 . S
O432 Mg423 2.291 . S
O432 C434 1.312 . S
O433 Mg418 2.031 . S
O433 C434 1.208 . S
C434 O432 1.312 . S
C434 O433 1.208 . S
C435 O427 1.331 . S
C435 O430 1.244 . S
O436 Mg421 2.013 . S
O436 C425 1.191 . S
O437 C416 1.331 . S
O437 Mg423 2.081 . S
O438 Mg419 1.986 . S
O438 C425 1.307 . S
O439 C417 1.264 . S
O439 Mg423 2.023 . S
O440 C416 1.244 . S
O440 Mg424 1.942 . S
O441 C417 1.273 . S
O441 Mg424 1.955 . S
O442 C415 1.312 . S
O442 Mg418 2.291 . S
O442 Mg421 2.114 . S
O443 C415 1.208 . S
O443 Mg423 2.031 . S
C444 O429 1.264 . S
C444 O431 1.273 . S
C445 O426 1.191 . S
C445 O428 1.307 . S
C446 O473 1.312 . S
C446 O474 1.208 . S
C447 O468 1.331 . S
C447 O471 1.244 . S
C448 O470 1.264 . S
C448 O472 1.273 . S
Mg449 O451 1.936 . S
Mg449 O458 2.081 . S
Mg449 O460 2.023 . S
Mg449 O464 2.031 . S
Mg449 O473 2.291 . S
Mg450 O451 1.963 . S
Mg450 O461 1.942 . S
Mg450 O462 1.955 . S
Mg450 O469 1.986 . S
O451 Mg449 1.936 . S
O451 Mg450 1.963 . S
O451 Mg452 1.915 . S
Mg452 O451 1.915 . S
Mg452 O453 1.915 . S
Mg452 O457 2.013 . S
Mg452 O463 2.114 . S
Mg452 O467 2.013 . S
Mg452 O473 2.114 . S
O453 Mg452 1.915 . S
O453 Mg454 1.936 . S
O453 Mg455 1.963 . S
Mg454 O453 1.936 . S
Mg454 O463 2.291 . S
Mg454 O468 2.081 . S
Mg454 O470 2.023 . S
Mg454 O474 2.031 . S
Mg455 O453 1.963 . S
Mg455 O459 1.986 . S
Mg455 O471 1.942 . S
Mg455 O472 1.955 . S
C456 O467 1.191 . S
C456 O469 1.307 . S
O457 Mg452 2.013 . S
O457 C476 1.191 . S
O458 Mg449 2.081 . S
O458 C466 1.331 . S
O459 Mg455 1.986 . S
O459 C476 1.307 . S
O460 Mg449 2.023 . S
O460 C475 1.264 . S
O461 Mg450 1.942 . S
O461 C466 1.244 . S
O462 Mg450 1.955 . S
O462 C475 1.273 . S
O463 Mg452 2.114 . S
O463 Mg454 2.291 . S
O463 C465 1.312 . S
O464 Mg449 2.031 . S
O464 C465 1.208 . S
C465 O463 1.312 . S
C465 O464 1.208 . S
C466 O458 1.331 . S
C466 O461 1.244 . S
O467 Mg452 2.013 . S
O467 C456 1.191 . S
O468 C447 1.331 . S
O468 Mg454 2.081 . S
O469 Mg450 1.986 . S
O469 C456 1.307 . S
O470 C448 1.264 . S
O470 Mg454 2.023 . S
O471 C447 1.244 . S
O471 Mg455 1.942 . S
O472 C448 1.273 . S
O472 Mg455 1.955 . S
O473 C446 1.312 . S
O473 Mg449 2.291 . S
O473 Mg452 2.114 . S
O474 C446 1.208 . S
O474 Mg454 2.031 . S
C475 O460 1.264 . S
C475 O462 1.273 . S
C476 O457 1.191 . S
C476 O459 1.307 . S
C477 O504 1.312 . S
C477 O505 1.208 . S
C478 O499 1.331 . S
C478 O502 1.244 . S
C479 O501 1.264 . S
C479 O503 1.273 . S
Mg480 O482 1.936 . S
Mg480 O489 2.081 . S
Mg480 O491 2.023 . S
Mg480 O495 2.031 . S
Mg480 O504 2.291 . S
Mg481 O482 1.963 1_655 S
Mg481 O492 1.942 . S
Mg481 O493 1.955 . S
Mg481 O500 1.986 . S
O482 Mg480 1.936 . S
O482 Mg481 1.963 1_455 S
O482 Mg483 1.915 . S
Mg483 O482 1.915 . S
Mg483 O484 1.915 . S
Mg483 O488 2.013 . S
Mg483 O494 2.114 . S
Mg483 O498 2.013 . S
Mg483 O504 2.114 . S
O484 Mg483 1.915 . S
O484 Mg485 1.936 . S
O484 Mg486 1.963 . S
Mg485 O484 1.936 . S
Mg485 O494 2.291 . S
Mg485 O499 2.081 . S
Mg485 O501 2.023 . S
Mg485 O505 2.031 . S
Mg486 O484 1.963 . S
Mg486 O490 1.986 . S
Mg486 O502 1.942 . S
Mg486 O503 1.955 . S
C487 O498 1.191 . S
C487 O500 1.307 1_455 S
O488 Mg483 2.013 . S
O488 C507 1.191 . S
O489 Mg480 2.081 . S
O489 C497 1.331 1_455 S
O490 Mg486 1.986 . S
O490 C507 1.307 . S
O491 Mg480 2.023 . S
O491 C506 1.264 1_455 S
O492 Mg481 1.942 . S
O492 C497 1.244 . S
O493 Mg481 1.955 . S
O493 C506 1.273 . S
O494 Mg483 2.114 . S
O494 Mg485 2.291 . S
O494 C496 1.312 . S
O495 Mg480 2.031 . S
O495 C496 1.208 . S
C496 O494 1.312 . S
C496 O495 1.208 . S
C497 O489 1.331 1_655 S
C497 O492 1.244 . S
O498 Mg483 2.013 . S
O498 C487 1.191 . S
O499 C478 1.331 . S
O499 Mg485 2.081 . S
O500 Mg481 1.986 . S
O500 C487 1.307 1_655 S
O501 C479 1.264 . S
O501 Mg485 2.023 . S
O502 C478 1.244 . S
O502 Mg486 1.942 . S
O503 C479 1.273 . S
O503 Mg486 1.955 . S
O504 C477 1.312 . S
O504 Mg480 2.291 . S
O504 Mg483 2.114 . S
O505 C477 1.208 . S
O505 Mg485 2.031 . S
C506 O491 1.264 1_655 S
C506 O493 1.273 . S
C507 O488 1.191 . S
C507 O490 1.307 . S
H508 C516 0.929 . S
H509 C518 0.930 . S
H510 C520 0.930 . S
H511 C523 0.929 . S
H512 C526 0.930 . S
H513 C528 0.960 . S
H514 C528 0.960 . S
H515 C528 0.960 . S
C516 H508 0.929 . S
C516 C517 1.377 . S
C516 C518 1.384 . S
C517 C516 1.377 . S
C517 C523 1.390 . S
C518 H509 0.930 . S
C518 C516 1.384 . S
C518 C519 1.372 . S
C519 C518 1.372 . S
C519 C520 1.400 . S
C519 C524 1.490 . S
C520 H510 0.930 . S
C520 C519 1.400 . S
C520 C523 1.386 . S
H521 C537 0.930 . S
H522 C538 0.931 . S
C523 H511 0.929 . S
C523 C517 1.390 . S
C523 C520 1.386 . S
C524 C519 1.490 . S
C524 C526 1.395 . S
C524 C527 1.403 . S
H525 C531 0.930 . S
C526 H512 0.930 . S
C526 C524 1.395 . S
C526 C529 1.403 . S
C527 C524 1.403 . S
C527 C528 1.524 . S
C527 C531 1.400 . S
C528 H513 0.960 . S
C528 H514 0.960 . S
C528 H515 0.960 . S
C528 C527 1.524 . S
C529 C526 1.403 . S
C529 C530 1.392 . S
C529 C533 1.495 . S
C530 C529 1.392 . S
C530 C531 1.385 . S
C530 C532 1.478 . S
C531 H525 0.930 . S
C531 C527 1.400 . S
C531 C530 1.385 . S
C532 C530 1.478 . S
C532 C534 1.381 . S
C532 C538 1.383 . S
C533 C529 1.495 . S
C533 H539 0.959 . S
C533 H540 0.961 . S
C533 H541 0.960 . S
C534 C532 1.381 . S
C534 C535 1.394 . S
C534 H542 0.930 . S
C535 C534 1.394 . S
C535 C536 1.383 . S
C535 H543 0.929 . S
C536 C535 1.383 . S
C536 C537 1.377 . S
C537 H521 0.930 . S
C537 C536 1.377 . S
C537 C538 1.379 . S
C538 H522 0.931 . S
C538 C532 1.383 . S
C538 C537 1.379 . S
H539 C533 0.959 . S
H540 C533 0.961 . S
H541 C533 0.960 . S
H542 C534 0.930 . S
H543 C535 0.929 . S
H544 C552 0.929 . S
H545 C554 0.930 . S
H546 C556 0.930 . S
H547 C559 0.929 . S
H548 C562 0.930 . S
H549 C564 0.960 . S
H550 C564 0.960 . S
H551 C564 0.960 . S
C552 H544 0.929 . S
C552 C553 1.377 . S
C552 C554 1.384 . S
C553 C552 1.377 . S
C553 C559 1.390 . S
C554 H545 0.930 . S
C554 C552 1.384 . S
C554 C555 1.372 . S
C555 C554 1.372 . S
C555 C556 1.400 . S
C555 C560 1.490 . S
C556 H546 0.930 . S
C556 C555 1.400 . S
C556 C559 1.386 . S
H557 C573 0.930 . S
H558 C574 0.931 . S
C559 H547 0.929 . S
C559 C553 1.390 . S
C559 C556 1.386 . S
C560 C555 1.490 . S
C560 C562 1.395 1_565 S
C560 C563 1.403 . S
H561 C567 0.930 . S
C562 H548 0.930 . S
C562 C560 1.395 1_545 S
C562 C565 1.403 . S
C563 C560 1.403 . S
C563 C564 1.524 . S
C563 C567 1.400 . S
C564 H549 0.960 . S
C564 H550 0.960 . S
C564 H551 0.960 . S
C564 C563 1.524 . S
C565 C562 1.403 . S
C565 C566 1.392 . S
C565 C569 1.495 . S
C566 C565 1.392 . S
C566 C567 1.385 1_545 S
C566 C568 1.478 . S
C567 H561 0.930 . S
C567 C563 1.400 . S
C567 C566 1.385 1_565 S
C568 C566 1.478 . S
C568 C570 1.381 . S
C568 C574 1.383 . S
C569 C565 1.495 . S
C569 H575 0.959 . S
C569 H576 0.961 . S
C569 H577 0.960 . S
C570 C568 1.381 . S
C570 C571 1.394 . S
C570 H578 0.930 . S
C571 C570 1.394 . S
C571 C572 1.383 . S
C571 H579 0.929 . S
C572 C571 1.383 . S
C572 C573 1.377 . S
C573 H557 0.930 . S
C573 C572 1.377 . S
C573 C574 1.379 . S
C574 H558 0.931 . S
C574 C568 1.383 . S
C574 C573 1.379 . S
H575 C569 0.959 . S
H576 C569 0.961 . S
H577 C569 0.960 . S
H578 C570 0.930 . S
H579 C571 0.929 . S
H580 C588 0.929 . S
H581 C590 0.930 . S
H582 C592 0.930 . S
H583 C595 0.929 . S
H584 C598 0.930 . S
H585 C600 0.960 . S
H586 C600 0.960 . S
H587 C600 0.960 . S
C588 H580 0.929 . S
C588 C589 1.377 . S
C588 C590 1.384 . S
C589 C588 1.377 . S
C589 C595 1.390 . S
C590 H581 0.930 . S
C590 C588 1.384 . S
C590 C591 1.372 . S
C591 C590 1.372 . S
C591 C592 1.400 . S
C591 C596 1.490 . S
C592 H582 0.930 . S
C592 C591 1.400 . S
C592 C595 1.386 . S
H593 C609 0.930 . S
H594 C610 0.931 . S
C595 H583 0.929 . S
C595 C589 1.390 . S
C595 C592 1.386 . S
C596 C591 1.490 . S
C596 C598 1.395 . S
C596 C599 1.403 . S
H597 C603 0.930 . S
C598 H584 0.930 . S
C598 C596 1.395 . S
C598 C601 1.403 . S
C599 C596 1.403 . S
C599 C600 1.524 . S
C599 C603 1.400 . S
C600 H585 0.960 . S
C600 H586 0.960 . S
C600 H587 0.960 . S
C600 C599 1.524 . S
C601 C598 1.403 . S
C601 C602 1.392 . S
C601 C605 1.495 . S
C602 C601 1.392 . S
C602 C603 1.385 . S
C602 C604 1.478 . S
C603 H597 0.930 . S
C603 C599 1.400 . S
C603 C602 1.385 . S
C604 C602 1.478 . S
C604 C606 1.381 . S
C604 C610 1.383 . S
C605 C601 1.495 . S
C605 H611 0.959 . S
C605 H612 0.961 . S
C605 H613 0.960 . S
C606 C604 1.381 . S
C606 C607 1.394 . S
C606 H614 0.930 . S
C607 C606 1.394 . S
C607 C608 1.383 . S
C607 H615 0.929 . S
C608 C607 1.383 . S
C608 C609 1.377 . S
C609 H593 0.930 . S
C609 C608 1.377 . S
C609 C610 1.379 . S
C610 H594 0.931 . S
C610 C604 1.383 . S
C610 C609 1.379 . S
H611 C605 0.959 . S
H612 C605 0.961 . S
H613 C605 0.960 . S
H614 C606 0.930 . S
H615 C607 0.929 . S
H616 C624 0.929 . S
H617 C626 0.930 . S
H618 C628 0.930 . S
H619 C631 0.929 . S
H620 C634 0.930 . S
H621 C636 0.960 1_565 S
H622 C636 0.960 . S
H623 C636 0.960 . S
C624 H616 0.929 . S
C624 C625 1.377 . S
C624 C626 1.384 . S
C625 C624 1.377 . S
C625 C631 1.390 . S
C626 H617 0.930 . S
C626 C624 1.384 . S
C626 C627 1.372 . S
C627 C626 1.372 . S
C627 C628 1.400 . S
C627 C632 1.490 . S
C628 H618 0.930 . S
C628 C627 1.400 . S
C628 C631 1.386 . S
H629 C645 0.930 . S
H630 C646 0.931 . S
C631 H619 0.929 . S
C631 C625 1.390 . S
C631 C628 1.386 . S
C632 C627 1.490 . S
C632 C634 1.395 . S
C632 C635 1.403 . S
H633 C639 0.930 . S
C634 H620 0.930 . S
C634 C632 1.395 . S
C634 C637 1.403 1_545 S
C635 C632 1.403 . S
C635 C636 1.524 . S
C635 C639 1.400 1_545 S
C636 H621 0.960 1_545 S
C636 H622 0.960 . S
C636 H623 0.960 . S
C636 C635 1.524 . S
C637 C634 1.403 1_565 S
C637 C638 1.392 . S
C637 C641 1.495 . S
C638 C637 1.392 . S
C638 C639 1.385 . S
C638 C640 1.478 . S
C639 H633 0.930 . S
C639 C635 1.400 1_565 S
C639 C638 1.385 . S
C640 C638 1.478 . S
C640 C642 1.381 . S
C640 C646 1.383 . S
C641 C637 1.495 . S
C641 H647 0.959 1_565 S
C641 H648 0.961 . S
C641 H649 0.960 . S
C642 C640 1.381 . S
C642 C643 1.394 . S
C642 H650 0.930 . S
C643 C642 1.394 . S
C643 C644 1.383 . S
C643 H651 0.929 . S
C644 C643 1.383 . S
C644 C645 1.377 . S
C645 H629 0.930 . S
C645 C644 1.377 . S
C645 C646 1.379 . S
C646 H630 0.931 . S
C646 C640 1.383 . S
C646 C645 1.379 . S
H647 C641 0.959 1_545 S
H648 C641 0.961 . S
H649 C641 0.960 . S
H650 C642 0.930 . S
H651 C643 0.929 . S
H652 C660 0.929 . S
H653 C662 0.930 . S
H654 C664 0.930 . S
H655 C667 0.929 . S
H656 C670 0.930 . S
H657 C672 0.960 . S
H658 C672 0.960 . S
H659 C672 0.960 . S
C660 H652 0.929 . S
C660 C661 1.377 . S
C660 C662 1.384 . S
C661 C660 1.377 . S
C661 C667 1.390 . S
C662 H653 0.930 . S
C662 C660 1.384 . S
C662 C663 1.372 . S
C663 C662 1.372 . S
C663 C664 1.400 . S
C663 C668 1.490 . S
C664 H654 0.930 . S
C664 C663 1.400 . S
C664 C667 1.386 . S
H665 C681 0.930 . S
H666 C682 0.931 . S
C667 H655 0.929 . S
C667 C661 1.390 . S
C667 C664 1.386 . S
C668 C663 1.490 . S
C668 C670 1.395 . S
C668 C671 1.403 . S
H669 C675 0.930 . S
C670 H656 0.930 . S
C670 C668 1.395 . S
C670 C673 1.403 . S
C671 C668 1.403 . S
C671 C672 1.524 . S
C671 C675 1.400 . S
C672 H657 0.960 . S
C672 H658 0.960 . S
C672 H659 0.960 . S
C672 C671 1.524 . S
C673 C670 1.403 . S
C673 C674 1.392 . S
C673 C677 1.495 . S
C674 C673 1.392 . S
C674 C675 1.385 . S
C674 C676 1.478 . S
C675 H669 0.930 . S
C675 C671 1.400 . S
C675 C674 1.385 . S
C676 C674 1.478 . S
C676 C678 1.381 . S
C676 C682 1.383 . S
C677 C673 1.495 . S
C677 H683 0.959 . S
C677 H684 0.961 . S
C677 H685 0.960 . S
C678 C676 1.381 . S
C678 C679 1.394 . S
C678 H686 0.930 . S
C679 C678 1.394 . S
C679 C680 1.383 . S
C679 H687 0.929 . S
C680 C679 1.383 . S
C680 C681 1.377 . S
C681 H665 0.930 . S
C681 C680 1.377 . S
C681 C682 1.379 . S
C682 H666 0.931 . S
C682 C676 1.383 . S
C682 C681 1.379 . S
H683 C677 0.959 . S
H684 C677 0.961 . S
H685 C677 0.960 . S
H686 C678 0.930 . S
H687 C679 0.929 . S
H688 C696 0.929 . S
H689 C698 0.930 . S
H690 C700 0.930 . S
H691 C703 0.929 . S
H692 C706 0.930 . S
H693 C708 0.960 . S
H694 C708 0.960 . S
H695 C708 0.960 1_565 S
C696 H688 0.929 . S
C696 C697 1.377 . S
C696 C698 1.384 . S
C697 C696 1.377 . S
C697 C703 1.390 . S
C698 H689 0.930 . S
C698 C696 1.384 . S
C698 C699 1.372 . S
C699 C698 1.372 . S
C699 C700 1.400 . S
C699 C704 1.490 . S
C700 H690 0.930 . S
C700 C699 1.400 . S
C700 C703 1.386 . S
H701 C717 0.930 . S
H702 C718 0.931 . S
C703 H691 0.929 . S
C703 C697 1.390 . S
C703 C700 1.386 . S
C704 C699 1.490 . S
C704 C706 1.395 . S
C704 C707 1.403 1_565 S
H705 C711 0.930 . S
C706 H692 0.930 . S
C706 C704 1.395 . S
C706 C709 1.394 1_565 S
C707 C704 1.403 1_545 S
C707 C708 1.524 . S
C707 C711 1.400 . S
C708 H693 0.960 . S
C708 H694 0.960 . S
C708 H695 0.960 1_545 S
C708 C707 1.524 . S
C709 C706 1.394 1_545 S
C709 C710 1.402 . S
C709 C713 1.495 1_545 S
C710 C709 1.402 . S
C710 C711 1.385 . S
C710 C712 1.478 . S
C711 H705 0.930 . S
C711 C707 1.400 . S
C711 C710 1.385 . S
C712 C710 1.478 . S
C712 C714 1.381 . S
C712 C718 1.383 . S
C713 C709 1.495 1_565 S
C713 H719 0.959 . S
C713 H720 0.962 . S
C713 H721 0.960 1_565 S
C714 C712 1.381 . S
C714 C715 1.394 . S
C714 H722 0.930 . S
C715 C714 1.394 . S
C715 C716 1.383 . S
C715 H723 0.929 . S
C716 C715 1.383 . S
C716 C717 1.377 . S
C717 H701 0.930 . S
C717 C716 1.377 . S
C717 C718 1.379 . S
C718 H702 0.931 . S
C718 C712 1.383 . S
C718 C717 1.379 . S
H719 C713 0.959 . S
H720 C713 0.962 . S
H721 C713 0.960 1_545 S
H722 C714 0.930 . S
H723 C715 0.929 . S
H724 C732 0.929 . S
H725 C734 0.930 . S
H726 C736 0.930 . S
H727 C739 0.929 . S
H728 C742 0.930 . S
H729 C744 0.960 . S
H730 C744 0.960 . S
H731 C744 0.960 . S
C732 H724 0.929 . S
C732 C733 1.377 . S
C732 C734 1.384 . S
C733 C732 1.377 . S
C733 C739 1.390 . S
C734 H725 0.930 . S
C734 C732 1.384 . S
C734 C735 1.372 . S
C735 C734 1.372 . S
C735 C736 1.400 . S
C735 C740 1.490 . S
C736 H726 0.930 . S
C736 C735 1.400 . S
C736 C739 1.386 . S
H737 C753 0.930 . S
H738 C754 0.931 . S
C739 H727 0.929 . S
C739 C733 1.390 . S
C739 C736 1.386 . S
C740 C735 1.490 . S
C740 C742 1.395 . S
C740 C743 1.403 . S
H741 C747 0.930 . S
C742 H728 0.930 . S
C742 C740 1.395 . S
C742 C745 1.403 . S
C743 C740 1.403 . S
C743 C744 1.524 . S
C743 C747 1.400 . S
C744 H729 0.960 . S
C744 H730 0.960 . S
C744 H731 0.960 . S
C744 C743 1.524 . S
C745 C742 1.403 . S
C745 C746 1.392 . S
C745 C749 1.495 . S
C746 C745 1.392 . S
C746 C747 1.385 . S
C746 C748 1.478 . S
C747 H741 0.930 . S
C747 C743 1.400 . S
C747 C746 1.385 . S
C748 C746 1.478 . S
C748 C750 1.381 . S
C748 C754 1.383 . S
C749 C745 1.495 . S
C749 H755 0.959 . S
C749 H756 0.961 . S
C749 H757 0.960 . S
C750 C748 1.381 . S
C750 C751 1.394 . S
C750 H758 0.930 . S
C751 C750 1.394 . S
C751 C752 1.383 . S
C751 H759 0.929 . S
C752 C751 1.383 . S
C752 C753 1.377 . S
C753 H737 0.930 . S
C753 C752 1.377 . S
C753 C754 1.379 . S
C754 H738 0.931 . S
C754 C748 1.383 . S
C754 C753 1.379 . S
H755 C749 0.959 . S
H756 C749 0.961 . S
H757 C749 0.960 . S
H758 C750 0.930 . S
H759 C751 0.929 . S
H760 C768 0.929 . S
H761 C770 0.930 . S
H762 C772 0.930 . S
H763 C775 0.929 . S
H764 C778 0.930 . S
H765 C780 0.960 . S
H766 C780 0.960 . S
H767 C780 0.960 . S
C768 H760 0.929 . S
C768 C769 1.377 . S
C768 C770 1.384 . S
C769 C768 1.377 . S
C769 C775 1.390 . S
C770 H761 0.930 . S
C770 C768 1.384 . S
C770 C771 1.372 . S
C771 C770 1.372 . S
C771 C772 1.400 . S
C771 C776 1.490 . S
C772 H762 0.930 . S
C772 C771 1.400 . S
C772 C775 1.386 . S
H773 C789 0.930 . S
H774 C790 0.931 . S
C775 H763 0.929 . S
C775 C769 1.390 . S
C775 C772 1.386 . S
C776 C771 1.490 . S
C776 C778 1.395 . S
C776 C779 1.403 . S
H777 C783 0.930 . S
C778 H764 0.930 . S
C778 C776 1.395 . S
C778 C781 1.403 1_545 S
C779 C776 1.403 . S
C779 C780 1.524 . S
C779 C783 1.400 1_545 S
C780 H765 0.960 . S
C780 H766 0.960 . S
C780 H767 0.960 . S
C780 C779 1.524 . S
C781 C778 1.403 1_565 S
C781 C782 1.392 . S
C781 C785 1.495 . S
C782 C781 1.392 . S
C782 C783 1.385 . S
C782 C784 1.478 . S
C783 H777 0.930 . S
C783 C779 1.400 1_565 S
C783 C782 1.385 . S
C784 C782 1.478 . S
C784 C786 1.381 . S
C784 C790 1.383 . S
C785 C781 1.495 . S
C785 H791 0.959 . S
C785 H792 0.961 . S
C785 H793 0.960 . S
C786 C784 1.381 . S
C786 C787 1.394 . S
C786 H794 0.930 . S
C787 C786 1.394 . S
C787 C788 1.383 . S
C787 H795 0.929 . S
C788 C787 1.383 . S
C788 C789 1.377 . S
C789 H773 0.930 . S
C789 C788 1.377 . S
C789 C790 1.379 . S
C790 H774 0.931 . S
C790 C784 1.383 . S
C790 C789 1.379 . S
H791 C785 0.959 . S
H792 C785 0.961 . S
H793 C785 0.960 . S
H794 C786 0.930 . S
H795 C787 0.929 . S
H796 C804 0.929 . S
H797 C806 0.930 . S
H798 C808 0.930 . S
H799 C811 0.929 . S
H800 C814 0.930 . S
H801 C816 0.960 . S
H802 C816 0.960 . S
H803 C816 0.960 . S
C804 H796 0.929 . S
C804 C805 1.377 . S
C804 C806 1.384 . S
C805 C804 1.377 . S
C805 C811 1.390 . S
C806 H797 0.930 . S
C806 C804 1.384 . S
C806 C807 1.372 . S
C807 C806 1.372 . S
C807 C808 1.400 . S
C807 C812 1.490 . S
C808 H798 0.930 . S
C808 C807 1.400 . S
C808 C811 1.386 . S
H809 C825 0.930 . S
H810 C826 0.931 . S
C811 H799 0.929 . S
C811 C805 1.390 . S
C811 C808 1.386 . S
C812 C807 1.490 . S
C812 C814 1.395 . S
C812 C815 1.403 . S
H813 C819 0.930 . S
C814 H800 0.930 . S
C814 C812 1.395 . S
C814 C817 1.403 . S
C815 C812 1.403 . S
C815 C816 1.524 . S
C815 C819 1.400 . S
C816 H801 0.960 . S
C816 H802 0.960 . S
C816 H803 0.960 . S
C816 C815 1.524 . S
C817 C814 1.403 . S
C817 C818 1.392 . S
C817 C821 1.495 . S
C818 C817 1.392 . S
C818 C819 1.385 . S
C818 C820 1.478 . S
C819 H813 0.930 . S
C819 C815 1.400 . S
C819 C818 1.385 . S
C820 C818 1.478 . S
C820 C822 1.381 . S
C820 C826 1.383 . S
C821 C817 1.495 . S
C821 H827 0.959 . S
C821 H828 0.961 . S
C821 H829 0.960 . S
C822 C820 1.381 . S
C822 C823 1.394 . S
C822 H830 0.930 . S
C823 C822 1.394 . S
C823 C824 1.383 . S
C823 H831 0.929 . S
C824 C823 1.383 . S
C824 C825 1.377 . S
C825 H809 0.930 . S
C825 C824 1.377 . S
C825 C826 1.379 . S
C826 H810 0.931 . S
C826 C820 1.383 . S
C826 C825 1.379 . S
H827 C821 0.959 . S
H828 C821 0.961 . S
H829 C821 0.960 . S
H830 C822 0.930 . S
H831 C823 0.929 . S
H832 C840 0.929 . S
H833 C842 0.930 . S
H834 C844 0.930 . S
H835 C847 0.929 . S
H836 C850 0.930 . S
H837 C852 0.960 . S
H838 C852 0.960 . S
H839 C852 0.960 . S
C840 H832 0.929 . S
C840 C841 1.377 . S
C840 C842 1.384 1_545 S
C841 C840 1.377 . S
C841 C847 1.390 . S
C842 H833 0.930 . S
C842 C840 1.384 1_565 S
C842 C843 1.372 . S
C843 C842 1.372 . S
C843 C844 1.400 . S
C843 C848 1.490 . S
C844 H834 0.930 . S
C844 C843 1.400 . S
C844 C847 1.386 1_565 S
H845 C861 0.930 . S
H846 C862 0.931 . S
C847 H835 0.929 . S
C847 C841 1.390 . S
C847 C844 1.386 1_545 S
C848 C843 1.490 . S
C848 C850 1.395 . S
C848 C851 1.403 . S
H849 C855 0.930 . S
C850 H836 0.930 . S
C850 C848 1.395 . S
C850 C853 1.403 . S
C851 C848 1.403 . S
C851 C852 1.524 . S
C851 C855 1.400 . S
C852 H837 0.960 . S
C852 H838 0.960 . S
C852 H839 0.960 . S
C852 C851 1.524 . S
C853 C850 1.403 . S
C853 C854 1.392 . S
C853 C857 1.495 . S
C854 C853 1.392 . S
C854 C855 1.385 . S
C854 C856 1.478 . S
C855 H849 0.930 . S
C855 C851 1.400 . S
C855 C854 1.385 . S
C856 C854 1.478 . S
C856 C858 1.381 . S
C856 C862 1.383 . S
C857 C853 1.495 . S
C857 H863 0.959 . S
C857 H864 0.961 . S
C857 H865 0.960 . S
C858 C856 1.381 . S
C858 C859 1.394 . S
C858 H866 0.930 . S
C859 C858 1.394 . S
C859 C860 1.383 . S
C859 H867 0.929 . S
C860 C859 1.383 . S
C860 C861 1.377 . S
C861 H845 0.930 . S
C861 C860 1.377 . S
C861 C862 1.379 . S
C862 H846 0.931 . S
C862 C856 1.383 . S
C862 C861 1.379 . S
H863 C857 0.959 . S
H864 C857 0.961 . S
H865 C857 0.960 . S
H866 C858 0.930 . S
H867 C859 0.929 . S
H868 C876 0.929 . S
H869 C878 0.930 . S
H870 C880 0.930 . S
H871 C883 0.929 . S
H872 C886 0.930 . S
H873 C888 0.960 . S
H874 C888 0.960 . S
H875 C888 0.960 . S
C876 H868 0.929 . S
C876 C877 1.377 . S
C876 C878 1.384 . S
C877 C876 1.377 . S
C877 C883 1.390 . S
C878 H869 0.930 . S
C878 C876 1.384 . S
C878 C879 1.372 . S
C879 C878 1.372 . S
C879 C880 1.400 . S
C879 C884 1.490 . S
C880 H870 0.930 . S
C880 C879 1.400 . S
C880 C883 1.386 . S
H881 C897 0.930 . S
H882 C898 0.931 . S
C883 H871 0.929 . S
C883 C877 1.390 . S
C883 C880 1.386 . S
C884 C879 1.490 . S
C884 C886 1.395 . S
C884 C887 1.403 . S
H885 C891 0.930 . S
C886 H872 0.930 . S
C886 C884 1.395 . S
C886 C889 1.403 . S
C887 C884 1.403 . S
C887 C888 1.524 . S
C887 C891 1.400 . S
C888 H873 0.960 . S
C888 H874 0.960 . S
C888 H875 0.960 . S
C888 C887 1.524 . S
C889 C886 1.403 . S
C889 C890 1.392 . S
C889 C893 1.495 . S
C890 C889 1.392 . S
C890 C891 1.385 . S
C890 C892 1.478 . S
C891 H885 0.930 . S
C891 C887 1.400 . S
C891 C890 1.385 . S
C892 C890 1.478 . S
C892 C894 1.381 . S
C892 C898 1.383 . S
C893 C889 1.495 . S
C893 H899 0.959 . S
C893 H900 0.961 . S
C893 H901 0.960 . S
C894 C892 1.381 . S
C894 C895 1.394 . S
C894 H902 0.930 . S
C895 C894 1.394 . S
C895 C896 1.383 1_655 S
C895 H903 0.924 1_655 S
C896 C895 1.383 1_455 S
C896 C897 1.377 . S
C897 H881 0.930 . S
C897 C896 1.377 . S
C897 C898 1.379 1_455 S
C898 H882 0.931 . S
C898 C892 1.383 . S
C898 C897 1.379 1_655 S
H899 C893 0.959 . S
H900 C893 0.961 . S
H901 C893 0.960 . S
H902 C894 0.930 . S
H903 C895 0.924 1_455 S
H904 C912 0.929 . S
H905 C914 0.930 . S
H906 C916 0.930 . S
H907 C919 0.929 . S
H908 C922 0.930 . S
H909 C924 0.960 . S
H910 C924 0.960 . S
H911 C924 0.960 . S
C912 H904 0.929 . S
C912 C913 1.377 . S
C912 C914 1.384 1_565 S
C913 C912 1.377 . S
C913 C919 1.390 . S
C914 H905 0.930 . S
C914 C912 1.384 1_545 S
C914 C915 1.372 . S
C915 C914 1.372 . S
C915 C916 1.400 . S
C915 C920 1.490 . S
C916 H906 0.930 . S
C916 C915 1.400 . S
C916 C919 1.386 1_545 S
H917 C933 0.930 . S
H918 C934 0.931 . S
C919 H907 0.929 . S
C919 C913 1.390 . S
C919 C916 1.386 1_565 S
C920 C915 1.490 . S
C920 C922 1.395 . S
C920 C923 1.403 . S
H921 C927 0.930 . S
C922 H908 0.930 . S
C922 C920 1.395 . S
C922 C925 1.403 . S
C923 C920 1.403 . S
C923 C924 1.524 . S
C923 C927 1.400 . S
C924 H909 0.960 . S
C924 H910 0.960 . S
C924 H911 0.960 . S
C924 C923 1.524 . S
C925 C922 1.403 . S
C925 C926 1.392 . S
C925 C929 1.495 . S
C926 C925 1.392 . S
C926 C927 1.385 . S
C926 C928 1.478 . S
C927 H921 0.930 . S
C927 C923 1.400 . S
C927 C926 1.385 . S
C928 C926 1.478 . S
C928 C930 1.381 . S
C928 C934 1.383 1_655 S
C929 C925 1.495 . S
C929 H935 0.959 . S
C929 H936 0.961 . S
C929 H937 0.960 . S
C930 C928 1.381 . S
C930 C931 1.394 . S
C930 H938 0.930 . S
C931 C930 1.394 . S
C931 C932 1.383 1_655 S
C931 H939 0.929 . S
C932 C931 1.383 1_455 S
C932 C933 1.377 . S
C933 H917 0.930 . S
C933 C932 1.377 . S
C933 C934 1.379 . S
C934 H918 0.931 . S
C934 C928 1.383 1_455 S
C934 C933 1.379 . S
H935 C929 0.959 . S
H936 C929 0.961 . S
H937 C929 0.960 . S
H938 C930 0.930 . S
H939 C931 0.929 . S
H940 C948 0.929 . S
H941 C950 0.930 . S
H942 C952 0.930 . S
H943 C955 0.929 . S
H944 C958 0.930 . S
H945 C960 0.960 . S
H946 C960 0.960 . S
H947 C960 0.960 . S
C948 H940 0.929 . S
C948 C949 1.377 . S
C948 C950 1.384 . S
C949 C948 1.377 . S
C949 C955 1.390 . S
C950 H941 0.930 . S
C950 C948 1.384 . S
C950 C951 1.372 . S
C951 C950 1.372 . S
C951 C952 1.400 . S
C951 C956 1.490 . S
C952 H942 0.930 . S
C952 C951 1.400 . S
C952 C955 1.386 . S
H953 C969 0.930 . S
H954 C970 0.931 . S
C955 H943 0.929 . S
C955 C949 1.390 . S
C955 C952 1.386 . S
C956 C951 1.490 . S
C956 C958 1.395 . S
C956 C959 1.403 . S
H957 C963 0.930 . S
C958 H944 0.930 . S
C958 C956 1.395 . S
C958 C961 1.403 . S
C959 C956 1.403 . S
C959 C960 1.524 . S
C959 C963 1.400 . S
C960 H945 0.960 . S
C960 H946 0.960 . S
C960 H947 0.960 . S
C960 C959 1.524 . S
C961 C958 1.403 . S
C961 C962 1.392 . S
C961 C965 1.495 . S
C962 C961 1.392 . S
C962 C963 1.385 . S
C962 C964 1.478 . S
C963 H957 0.930 . S
C963 C959 1.400 . S
C963 C962 1.385 . S
C964 C962 1.478 . S
C964 C966 1.381 . S
C964 C970 1.383 . S
C965 C961 1.495 . S
C965 H971 0.959 . S
C965 H972 0.961 . S
C965 H973 0.960 . S
C966 C964 1.381 . S
C966 C967 1.394 . S
C966 H974 0.930 . S
C967 C966 1.394 . S
C967 C968 1.383 . S
C967 H975 0.929 . S
C968 C967 1.383 . S
C968 C969 1.377 . S
C969 H953 0.930 . S
C969 C968 1.377 . S
C969 C970 1.379 . S
C970 H954 0.931 . S
C970 C964 1.383 . S
C970 C969 1.379 . S
H971 C965 0.959 . S
H972 C965 0.961 . S
H973 C965 0.960 . S
H974 C966 0.930 . S
H975 C967 0.929 . S
H976 C984 0.929 . S
H977 C986 0.930 1_565 S
H978 C988 0.930 . S
H979 C991 0.929 . S
H980 C994 0.930 . S
H981 C996 0.960 . S
H982 C996 0.960 . S
H983 C996 0.960 . S
C984 H976 0.929 . S
C984 C985 1.377 . S
C984 C986 1.388 . S
C985 C984 1.377 . S
C985 C991 1.390 . S
C986 H977 0.930 1_545 S
C986 C984 1.388 . S
C986 C987 1.368 1_545 S
C987 C986 1.368 1_565 S
C987 C988 1.400 . S
C987 C992 1.490 . S
C988 H978 0.930 . S
C988 C987 1.400 . S
C988 C991 1.386 1_565 S
H989 C1005 0.930 . S
H990 C1006 0.931 . S
C991 H979 0.929 . S
C991 C985 1.390 . S
C991 C988 1.386 1_545 S
C992 C987 1.490 . S
C992 C994 1.395 . S
C992 C995 1.403 . S
H993 C999 0.930 . S
C994 H980 0.930 . S
C994 C992 1.395 . S
C994 C997 1.403 . S
C995 C992 1.403 . S
C995 C996 1.524 . S
C995 C999 1.400 . S
C996 H981 0.960 . S
C996 H982 0.960 . S
C996 H983 0.960 . S
C996 C995 1.524 . S
C997 C994 1.403 . S
C997 C998 1.392 . S
C997 C1001 1.495 . S
C998 C997 1.392 . S
C998 C999 1.385 . S
C998 C1000 1.478 . S
C999 H993 0.930 . S
C999 C995 1.400 . S
C999 C998 1.385 . S
C1000 C998 1.478 . S
C1000 C1002 1.381 . S
C1000 C1006 1.383 1_655 S
C1001 C997 1.495 . S
C1001 H1007 0.959 . S
C1001 H1008 0.961 1_655 S
C1001 H1009 0.960 . S
C1002 C1000 1.381 . S
C1002 C1003 1.394 . S
C1002 H1010 0.930 . S
C1003 C1002 1.394 . S
C1003 C1004 1.383 1_655 S
C1003 H1011 0.929 . S
C1004 C1003 1.383 1_455 S
C1004 C1005 1.377 . S
C1005 H989 0.930 . S
C1005 C1004 1.377 . S
C1005 C1006 1.379 . S
C1006 H990 0.931 . S
C1006 C1000 1.383 1_455 S
C1006 C1005 1.379 . S
H1007 C1001 0.959 . S
H1008 C1001 0.961 1_455 S
H1009 C1001 0.960 . S
H1010 C1002 0.930 . S
H1011 C1003 0.929 . S
H1012 C1020 0.929 . S
H1013 C1022 0.930 . S
H1014 C1024 0.930 . S
H1015 C1027 0.929 . S
H1016 C1030 0.930 . S
H1017 C1032 0.960 . S
H1018 C1032 0.960 . S
H1019 C1032 0.960 . S
C1020 H1012 0.929 . S
C1020 C1021 1.377 . S
C1020 C1022 1.384 . S
C1021 C1020 1.377 . S
C1021 C1027 1.390 . S
C1022 H1013 0.930 . S
C1022 C1020 1.384 . S
C1022 C1023 1.372 . S
C1023 C1022 1.372 . S
C1023 C1024 1.400 . S
C1023 C1028 1.490 . S
C1024 H1014 0.930 . S
C1024 C1023 1.400 . S
C1024 C1027 1.386 . S
H1025 C1041 0.930 . S
H1026 C1042 0.931 . S
C1027 H1015 0.929 . S
C1027 C1021 1.390 . S
C1027 C1024 1.386 . S
C1028 C1023 1.490 . S
C1028 C1030 1.395 . S
C1028 C1031 1.403 . S
H1029 C1035 0.930 . S
C1030 H1016 0.930 . S
C1030 C1028 1.395 . S
C1030 C1033 1.403 . S
C1031 C1028 1.403 . S
C1031 C1032 1.524 . S
C1031 C1035 1.400 . S
C1032 H1017 0.960 . S
C1032 H1018 0.960 . S
C1032 H1019 0.960 . S
C1032 C1031 1.524 . S
C1033 C1030 1.403 . S
C1033 C1034 1.392 . S
C1033 C1037 1.495 . S
C1034 C1033 1.392 . S
C1034 C1035 1.385 . S
C1034 C1036 1.478 . S
C1035 H1029 0.930 . S
C1035 C1031 1.400 . S
C1035 C1034 1.385 . S
C1036 C1034 1.478 . S
C1036 C1038 1.381 . S
C1036 C1042 1.383 . S
C1037 C1033 1.495 . S
C1037 H1043 0.959 . S
C1037 H1044 0.961 . S
C1037 H1045 0.960 . S
C1038 C1036 1.381 . S
C1038 C1039 1.394 . S
C1038 H1046 0.930 . S
C1039 C1038 1.394 . S
C1039 C1040 1.383 1_655 S
C1039 H1047 0.929 . S
C1040 C1039 1.383 1_455 S
C1040 C1041 1.377 . S
C1041 H1025 0.930 . S
C1041 C1040 1.377 . S
C1041 C1042 1.379 1_455 S
C1042 H1026 0.931 . S
C1042 C1036 1.383 . S
C1042 C1041 1.379 1_655 S
H1043 C1037 0.959 . S
H1044 C1037 0.961 . S
H1045 C1037 0.960 . S
H1046 C1038 0.930 . S
H1047 C1039 0.929 . S
H1048 C1056 0.929 . S
H1049 C1058 0.930 . S
H1050 C1060 0.930 . S
H1051 C1063 0.929 . S
H1052 C1066 0.930 . S
H1053 C1068 0.960 . S
H1054 C1068 0.960 . S
H1055 C1068 0.960 . S
C1056 H1048 0.929 . S
C1056 C1057 1.377 . S
C1056 C1058 1.384 . S
C1057 C1056 1.377 . S
C1057 C1063 1.390 1_565 S
C1058 H1049 0.930 . S
C1058 C1056 1.384 . S
C1058 C1059 1.372 1_565 S
C1059 C1058 1.372 1_545 S
C1059 C1060 1.400 . S
C1059 C1064 1.490 . S
C1060 H1050 0.930 . S
C1060 C1059 1.400 . S
C1060 C1063 1.386 . S
H1061 C1077 0.930 . S
H1062 C1078 0.931 . S
C1063 H1051 0.929 . S
C1063 C1057 1.390 1_545 S
C1063 C1060 1.386 . S
C1064 C1059 1.490 . S
C1064 C1066 1.395 . S
C1064 C1067 1.403 . S
H1065 C1071 0.930 . S
C1066 H1052 0.930 . S
C1066 C1064 1.395 . S
C1066 C1069 1.403 . S
C1067 C1064 1.403 . S
C1067 C1068 1.524 . S
C1067 C1071 1.400 . S
C1068 H1053 0.960 . S
C1068 H1054 0.960 . S
C1068 H1055 0.960 . S
C1068 C1067 1.524 . S
C1069 C1066 1.403 . S
C1069 C1070 1.392 . S
C1069 C1073 1.495 . S
C1070 C1069 1.392 . S
C1070 C1071 1.385 . S
C1070 C1072 1.478 . S
C1071 H1065 0.930 . S
C1071 C1067 1.400 . S
C1071 C1070 1.385 . S
C1072 C1070 1.478 . S
C1072 C1074 1.381 . S
C1072 C1078 1.383 . S
C1073 C1069 1.495 . S
C1073 H1079 0.959 . S
C1073 H1080 0.961 . S
C1073 H1081 0.960 . S
C1074 C1072 1.381 . S
C1074 C1075 1.394 . S
C1074 H1082 0.930 . S
C1075 C1074 1.394 . S
C1075 C1076 1.383 . S
C1075 H1083 0.929 . S
C1076 C1075 1.383 . S
C1076 C1077 1.377 . S
C1077 H1061 0.930 . S
C1077 C1076 1.377 . S
C1077 C1078 1.379 . S
C1078 H1062 0.931 . S
C1078 C1072 1.383 . S
C1078 C1077 1.379 . S
H1079 C1073 0.959 . S
H1080 C1073 0.961 . S
H1081 C1073 0.960 . S
H1082 C1074 0.930 . S
H1083 C1075 0.929 . S
H1084 C1092 0.929 . S
H1085 C1094 0.930 . S
H1086 C1096 0.930 . S
H1087 C1099 0.929 . S
H1088 C1102 0.930 . S
H1089 C1104 0.960 . S
H1090 C1104 0.960 . S
H1091 C1104 0.960 . S
C1092 H1084 0.929 . S
C1092 C1093 1.377 . S
C1092 C1094 1.384 . S
C1093 C1092 1.377 . S
C1093 C1099 1.390 . S
C1094 H1085 0.930 . S
C1094 C1092 1.384 . S
C1094 C1095 1.372 . S
C1095 C1094 1.372 . S
C1095 C1096 1.400 . S
C1095 C1100 1.490 . S
C1096 H1086 0.930 . S
C1096 C1095 1.400 . S
C1096 C1099 1.386 . S
H1097 C1113 0.930 . S
H1098 C1114 0.931 . S
C1099 H1087 0.929 . S
C1099 C1093 1.390 . S
C1099 C1096 1.386 . S
C1100 C1095 1.490 . S
C1100 C1102 1.395 . S
C1100 C1103 1.403 . S
H1101 C1107 0.930 . S
C1102 H1088 0.930 . S
C1102 C1100 1.395 . S
C1102 C1105 1.403 . S
C1103 C1100 1.403 . S
C1103 C1104 1.524 . S
C1103 C1107 1.400 . S
C1104 H1089 0.960 . S
C1104 H1090 0.960 . S
C1104 H1091 0.960 . S
C1104 C1103 1.524 . S
C1105 C1102 1.403 . S
C1105 C1106 1.392 . S
C1105 C1109 1.495 . S
C1106 C1105 1.392 . S
C1106 C1107 1.385 . S
C1106 C1108 1.478 . S
C1107 H1101 0.930 . S
C1107 C1103 1.400 . S
C1107 C1106 1.385 . S
C1108 C1106 1.478 . S
C1108 C1110 1.381 . S
C1108 C1114 1.383 . S
C1109 C1105 1.495 . S
C1109 H1115 0.959 . S
C1109 H1116 0.961 . S
C1109 H1117 0.960 . S
C1110 C1108 1.381 . S
C1110 C1111 1.394 . S
C1110 H1118 0.930 . S
C1111 C1110 1.394 . S
C1111 C1112 1.383 . S
C1111 H1119 0.929 . S
C1112 C1111 1.383 . S
C1112 C1113 1.377 . S
C1113 H1097 0.930 . S
C1113 C1112 1.377 . S
C1113 C1114 1.379 . S
C1114 H1098 0.931 . S
C1114 C1108 1.383 . S
C1114 C1113 1.379 . S
H1115 C1109 0.959 . S
H1116 C1109 0.961 . S
H1117 C1109 0.960 . S
H1118 C1110 0.930 . S
H1119 C1111 0.929 . S
H1120 C1128 0.929 . S
H1121 C1130 0.930 . S
H1122 C1132 0.930 . S
H1123 C1135 0.929 . S
H1124 C1138 0.930 . S
H1125 C1140 0.960 . S
H1126 C1140 0.960 . S
H1127 C1140 0.960 . S
C1128 H1120 0.929 . S
C1128 C1129 1.377 . S
C1128 C1130 1.384 . S
C1129 C1128 1.377 . S
C1129 C1135 1.390 . S
C1130 H1121 0.930 . S
C1130 C1128 1.384 . S
C1130 C1131 1.372 . S
C1131 C1130 1.372 . S
C1131 C1132 1.400 . S
C1131 C1136 1.490 . S
C1132 H1122 0.930 . S
C1132 C1131 1.400 . S
C1132 C1135 1.386 . S
H1133 C1149 0.930 . S
H1134 C1150 0.931 . S
C1135 H1123 0.929 . S
C1135 C1129 1.390 . S
C1135 C1132 1.386 . S
C1136 C1131 1.490 . S
C1136 C1138 1.395 . S
C1136 C1139 1.403 . S
H1137 C1143 0.930 . S
C1138 H1124 0.930 . S
C1138 C1136 1.395 . S
C1138 C1141 1.403 . S
C1139 C1136 1.403 . S
C1139 C1140 1.524 . S
C1139 C1143 1.400 . S
C1140 H1125 0.960 . S
C1140 H1126 0.960 . S
C1140 H1127 0.960 . S
C1140 C1139 1.524 . S
C1141 C1138 1.403 . S
C1141 C1142 1.392 . S
C1141 C1145 1.495 . S
C1142 C1141 1.392 . S
C1142 C1143 1.385 . S
C1142 C1144 1.478 . S
C1143 H1137 0.930 . S
C1143 C1139 1.400 . S
C1143 C1142 1.385 . S
C1144 C1142 1.478 . S
C1144 C1146 1.381 . S
C1144 C1150 1.383 . S
C1145 C1141 1.495 . S
C1145 H1151 0.959 . S
C1145 H1152 0.961 . S
C1145 H1153 0.960 . S
C1146 C1144 1.381 . S
C1146 C1147 1.394 1_655 S
C1146 H1154 0.930 1_655 S
C1147 C1146 1.394 1_455 S
C1147 C1148 1.383 1_455 S
C1147 H1155 0.929 . S
C1148 C1147 1.383 1_655 S
C1148 C1149 1.377 . S
C1149 H1133 0.930 . S
C1149 C1148 1.377 . S
C1149 C1150 1.379 . S
C1150 H1134 0.931 . S
C1150 C1144 1.383 . S
C1150 C1149 1.379 . S
H1151 C1145 0.959 . S
H1152 C1145 0.961 . S
H1153 C1145 0.960 . S
H1154 C1146 0.930 1_455 S
H1155 C1147 0.929 . S
H1156 C1164 0.929 . S
H1157 C1166 0.930 . S
H1158 C1168 0.930 . S
H1159 C1171 0.929 . S
H1160 C1174 0.930 . S
H1161 C1176 0.960 . S
H1162 C1176 0.960 . S
H1163 C1176 0.960 . S
C1164 H1156 0.929 . S
C1164 C1165 1.377 . S
C1164 C1166 1.384 . S
C1165 C1164 1.377 . S
C1165 C1171 1.390 . S
C1166 H1157 0.930 . S
C1166 C1164 1.384 . S
C1166 C1167 1.372 . S
C1167 C1166 1.372 . S
C1167 C1168 1.400 . S
C1167 C1172 1.490 . S
C1168 H1158 0.930 . S
C1168 C1167 1.400 . S
C1168 C1171 1.386 . S
H1169 C1185 0.930 . S
H1170 C1186 0.931 . S
C1171 H1159 0.929 . S
C1171 C1165 1.390 . S
C1171 C1168 1.386 . S
C1172 C1167 1.490 . S
C1172 C1174 1.395 . S
C1172 C1175 1.403 . S
H1173 C1179 0.930 . S
C1174 H1160 0.930 . S
C1174 C1172 1.395 . S
C1174 C1177 1.403 . S
C1175 C1172 1.403 . S
C1175 C1176 1.524 . S
C1175 C1179 1.400 . S
C1176 H1161 0.960 . S
C1176 H1162 0.960 . S
C1176 H1163 0.960 . S
C1176 C1175 1.524 . S
C1177 C1174 1.403 . S
C1177 C1178 1.392 . S
C1177 C1181 1.495 . S
C1178 C1177 1.392 . S
C1178 C1179 1.385 . S
C1178 C1180 1.478 . S
C1179 H1173 0.930 . S
C1179 C1175 1.400 . S
C1179 C1178 1.385 . S
C1180 C1178 1.478 . S
C1180 C1182 1.381 . S
C1180 C1186 1.383 . S
C1181 C1177 1.495 . S
C1181 H1187 0.959 . S
C1181 H1188 0.961 . S
C1181 H1189 0.960 . S
C1182 C1180 1.381 . S
C1182 C1183 1.394 . S
C1182 H1190 0.930 . S
C1183 C1182 1.394 . S
C1183 C1184 1.383 . S
C1183 H1191 0.929 . S
C1184 C1183 1.383 . S
C1184 C1185 1.377 . S
C1185 H1169 0.930 . S
C1185 C1184 1.377 . S
C1185 C1186 1.379 . S
C1186 H1170 0.931 . S
C1186 C1180 1.383 . S
C1186 C1185 1.379 . S
H1187 C1181 0.959 . S
H1188 C1181 0.961 . S
H1189 C1181 0.960 . S
H1190 C1182 0.930 . S
H1191 C1183 0.929 . S
H1192 C1200 0.929 . S
H1193 C1202 0.930 . S
H1194 C1204 0.930 . S
H1195 C1207 0.929 . S
H1196 C1210 0.930 . S
H1197 C1212 0.960 . S
H1198 C1212 0.960 . S
H1199 C1212 0.960 . S
C1200 H1192 0.929 . S
C1200 C1201 1.377 . S
C1200 C1202 1.384 . S
C1201 C1200 1.377 . S
C1201 C1207 1.390 . S
C1202 H1193 0.930 . S
C1202 C1200 1.384 . S
C1202 C1203 1.372 . S
C1203 C1202 1.372 . S
C1203 C1204 1.400 . S
C1203 C1208 1.490 . S
C1204 H1194 0.930 . S
C1204 C1203 1.400 . S
C1204 C1207 1.386 . S
H1205 C1221 0.930 . S
H1206 C1222 0.931 . S
C1207 H1195 0.929 . S
C1207 C1201 1.390 . S
C1207 C1204 1.386 . S
C1208 C1203 1.490 . S
C1208 C1210 1.395 . S
C1208 C1211 1.403 . S
H1209 C1215 0.930 . S
C1210 H1196 0.930 . S
C1210 C1208 1.395 . S
C1210 C1213 1.403 . S
C1211 C1208 1.403 . S
C1211 C1212 1.524 . S
C1211 C1215 1.400 . S
C1212 H1197 0.960 . S
C1212 H1198 0.960 . S
C1212 H1199 0.960 . S
C1212 C1211 1.524 . S
C1213 C1210 1.403 . S
C1213 C1214 1.392 . S
C1213 C1217 1.495 . S
C1214 C1213 1.392 . S
C1214 C1215 1.385 . S
C1214 C1216 1.478 . S
C1215 H1209 0.930 . S
C1215 C1211 1.400 . S
C1215 C1214 1.385 . S
C1216 C1214 1.478 . S
C1216 C1218 1.381 . S
C1216 C1222 1.383 . S
C1217 C1213 1.495 . S
C1217 H1223 0.959 . S
C1217 H1224 0.961 . S
C1217 H1225 0.960 . S
C1218 C1216 1.381 . S
C1218 C1219 1.394 . S
C1218 H1226 0.930 . S
C1219 C1218 1.394 . S
C1219 C1220 1.383 . S
C1219 H1227 0.929 . S
C1220 C1219 1.383 . S
C1220 C1221 1.377 . S
C1221 H1205 0.930 . S
C1221 C1220 1.377 . S
C1221 C1222 1.379 . S
C1222 H1206 0.931 . S
C1222 C1216 1.383 . S
C1222 C1221 1.379 . S
H1223 C1217 0.959 . S
H1224 C1217 0.961 . S
H1225 C1217 0.960 . S
H1226 C1218 0.930 . S
H1227 C1219 0.929 . S
H1228 C1236 0.929 . S
H1229 C1238 0.930 . S
H1230 C1240 0.930 . S
H1231 C1243 0.929 . S
H1232 C1246 0.930 . S
H1233 C1248 0.960 . S
H1234 C1248 0.960 . S
H1235 C1248 0.960 . S
C1236 H1228 0.929 . S
C1236 C1237 1.377 . S
C1236 C1238 1.384 . S
C1237 C1236 1.377 . S
C1237 C1243 1.390 . S
C1238 H1229 0.930 . S
C1238 C1236 1.384 . S
C1238 C1239 1.372 . S
C1239 C1238 1.372 . S
C1239 C1240 1.400 . S
C1239 C1244 1.490 . S
C1240 H1230 0.930 . S
C1240 C1239 1.400 . S
C1240 C1243 1.386 . S
H1241 C1257 0.930 . S
H1242 C1258 0.931 . S
C1243 H1231 0.929 . S
C1243 C1237 1.390 . S
C1243 C1240 1.386 . S
C1244 C1239 1.490 . S
C1244 C1246 1.395 . S
C1244 C1247 1.403 . S
H1245 C1251 0.930 . S
C1246 H1232 0.930 . S
C1246 C1244 1.395 . S
C1246 C1249 1.403 . S
C1247 C1244 1.403 . S
C1247 C1248 1.524 . S
C1247 C1251 1.400 . S
C1248 H1233 0.960 . S
C1248 H1234 0.960 . S
C1248 H1235 0.960 . S
C1248 C1247 1.524 . S
C1249 C1246 1.403 . S
C1249 C1250 1.392 . S
C1249 C1253 1.495 . S
C1250 C1249 1.392 . S
C1250 C1251 1.385 . S
C1250 C1252 1.478 . S
C1251 H1245 0.930 . S
C1251 C1247 1.400 . S
C1251 C1250 1.385 . S
C1252 C1250 1.478 . S
C1252 C1254 1.381 . S
C1252 C1258 1.383 . S
C1253 C1249 1.495 . S
C1253 H1259 0.959 . S
C1253 H1260 0.961 . S
C1253 H1261 0.960 . S
C1254 C1252 1.381 . S
C1254 C1255 1.394 . S
C1254 H1262 0.930 . S
C1255 C1254 1.394 . S
C1255 C1256 1.383 . S
C1255 H1263 0.929 . S
C1256 C1255 1.383 . S
C1256 C1257 1.377 . S
C1257 H1241 0.930 . S
C1257 C1256 1.377 . S
C1257 C1258 1.379 . S
C1258 H1242 0.931 . S
C1258 C1252 1.383 . S
C1258 C1257 1.379 . S
H1259 C1253 0.959 . S
H1260 C1253 0.961 . S
H1261 C1253 0.960 . S
H1262 C1254 0.930 . S
H1263 C1255 0.929 . S
H1264 C1272 0.929 . S
H1265 C1274 0.930 . S
H1266 C1276 0.930 . S
H1267 C1279 0.929 . S
H1268 C1282 0.930 . S
H1269 C1284 0.960 . S
H1270 C1284 0.960 . S
H1271 C1284 0.960 . S
C1272 H1264 0.929 . S
C1272 C1273 1.377 . S
C1272 C1274 1.384 . S
C1273 C1272 1.377 . S
C1273 C1279 1.390 . S
C1274 H1265 0.930 . S
C1274 C1272 1.384 . S
C1274 C1275 1.372 . S
C1275 C1274 1.372 . S
C1275 C1276 1.400 . S
C1275 C1280 1.490 . S
C1276 H1266 0.930 . S
C1276 C1275 1.400 . S
C1276 C1279 1.386 . S
H1277 C1293 0.930 . S
H1278 C1294 0.931 . S
C1279 H1267 0.929 . S
C1279 C1273 1.390 . S
C1279 C1276 1.386 . S
C1280 C1275 1.490 . S
C1280 C1282 1.395 . S
C1280 C1283 1.403 . S
H1281 C1287 0.930 . S
C1282 H1268 0.930 . S
C1282 C1280 1.395 . S
C1282 C1285 1.403 . S
C1283 C1280 1.403 . S
C1283 C1284 1.524 . S
C1283 C1287 1.400 . S
C1284 H1269 0.960 . S
C1284 H1270 0.960 . S
C1284 H1271 0.960 . S
C1284 C1283 1.524 . S
C1285 C1282 1.403 . S
C1285 C1286 1.392 . S
C1285 C1289 1.495 . S
C1286 C1285 1.392 . S
C1286 C1287 1.385 . S
C1286 C1288 1.478 . S
C1287 H1281 0.930 . S
C1287 C1283 1.400 . S
C1287 C1286 1.385 . S
C1288 C1286 1.478 . S
C1288 C1290 1.381 . S
C1288 C1294 1.383 . S
C1289 C1285 1.495 . S
C1289 H1295 0.959 . S
C1289 H1296 0.961 . S
C1289 H1297 0.960 . S
C1290 C1288 1.381 . S
C1290 C1291 1.394 . S
C1290 H1298 0.930 . S
C1291 C1290 1.394 . S
C1291 C1292 1.383 . S
C1291 H1299 0.929 . S
C1292 C1291 1.383 . S
C1292 C1293 1.377 . S
C1293 H1277 0.930 . S
C1293 C1292 1.377 . S
C1293 C1294 1.379 . S
C1294 H1278 0.931 . S
C1294 C1288 1.383 . S
C1294 C1293 1.379 . S
H1295 C1289 0.959 . S
H1296 C1289 0.961 . S
H1297 C1289 0.960 . S
H1298 C1290 0.930 . S
H1299 C1291 0.929 . S
H1300 C1308 0.929 . S
H1301 C1310 0.930 . S
H1302 C1312 0.930 . S
H1303 C1315 0.929 . S
H1304 C1318 0.930 . S
H1305 C1320 0.960 . S
H1306 C1320 0.960 . S
H1307 C1320 0.960 . S
C1308 H1300 0.929 . S
C1308 C1309 1.377 . S
C1308 C1310 1.384 . S
C1309 C1308 1.377 . S
C1309 C1315 1.390 . S
C1310 H1301 0.930 . S
C1310 C1308 1.384 . S
C1310 C1311 1.372 . S
C1311 C1310 1.372 . S
C1311 C1312 1.400 . S
C1311 C1316 1.490 . S
C1312 H1302 0.930 . S
C1312 C1311 1.400 . S
C1312 C1315 1.386 . S
H1313 C1329 0.930 . S
H1314 C1330 0.931 . S
C1315 H1303 0.929 . S
C1315 C1309 1.390 . S
C1315 C1312 1.386 . S
C1316 C1311 1.490 . S
C1316 C1318 1.395 . S
C1316 C1319 1.403 . S
H1317 C1323 0.930 . S
C1318 H1304 0.930 . S
C1318 C1316 1.395 . S
C1318 C1321 1.403 . S
C1319 C1316 1.403 . S
C1319 C1320 1.524 . S
C1319 C1323 1.400 . S
C1320 H1305 0.960 . S
C1320 H1306 0.960 . S
C1320 H1307 0.960 . S
C1320 C1319 1.524 . S
C1321 C1318 1.403 . S
C1321 C1322 1.392 . S
C1321 C1325 1.495 . S
C1322 C1321 1.392 . S
C1322 C1323 1.385 . S
C1322 C1324 1.478 . S
C1323 H1317 0.930 . S
C1323 C1319 1.400 . S
C1323 C1322 1.385 . S
C1324 C1322 1.478 . S
C1324 C1326 1.381 . S
C1324 C1330 1.383 . S
C1325 C1321 1.495 . S
C1325 H1331 0.959 . S
C1325 H1332 0.961 . S
C1325 H1333 0.960 . S
C1326 C1324 1.381 . S
C1326 C1327 1.394 . S
C1326 H1334 0.930 . S
C1327 C1326 1.394 . S
C1327 C1328 1.383 . S
C1327 H1335 0.929 . S
C1328 C1327 1.383 . S
C1328 C1329 1.377 . S
C1329 H1313 0.930 . S
C1329 C1328 1.377 . S
C1329 C1330 1.379 . S
C1330 H1314 0.931 . S
C1330 C1324 1.383 . S
C1330 C1329 1.379 . S
H1331 C1325 0.959 . S
H1332 C1325 0.961 . S
H1333 C1325 0.960 . S
H1334 C1326 0.930 . S
H1335 C1327 0.929 . S
H1336 C1344 0.929 . S
H1337 C1346 0.930 . S
H1338 C1348 0.930 . S
H1339 C1351 0.929 . S
H1340 C1354 0.930 . S
H1341 C1356 0.960 . S
H1342 C1356 0.960 . S
H1343 C1356 0.960 . S
C1344 H1336 0.929 . S
C1344 C1345 1.377 . S
C1344 C1346 1.384 . S
C1345 C1344 1.377 . S
C1345 C1351 1.390 . S
C1346 H1337 0.930 . S
C1346 C1344 1.384 . S
C1346 C1347 1.372 . S
C1347 C1346 1.372 . S
C1347 C1348 1.400 . S
C1347 C1352 1.490 . S
C1348 H1338 0.930 . S
C1348 C1347 1.400 . S
C1348 C1351 1.386 . S
H1349 C1365 0.923 1_455 S
H1350 C1366 0.931 1_455 S
C1351 H1339 0.929 . S
C1351 C1345 1.390 . S
C1351 C1348 1.386 . S
C1352 C1347 1.490 . S
C1352 C1354 1.395 . S
C1352 C1355 1.403 . S
H1353 C1359 0.930 . S
C1354 H1340 0.930 . S
C1354 C1352 1.395 . S
C1354 C1357 1.403 . S
C1355 C1352 1.403 . S
C1355 C1356 1.524 . S
C1355 C1359 1.400 . S
C1356 H1341 0.960 . S
C1356 H1342 0.960 . S
C1356 H1343 0.960 . S
C1356 C1355 1.524 . S
C1357 C1354 1.403 . S
C1357 C1358 1.392 . S
C1357 C1361 1.495 . S
C1358 C1357 1.392 . S
C1358 C1359 1.385 . S
C1358 C1360 1.478 . S
C1359 H1353 0.930 . S
C1359 C1355 1.400 . S
C1359 C1358 1.385 . S
C1360 C1358 1.478 . S
C1360 C1362 1.381 . S
C1360 C1366 1.383 . S
C1361 C1357 1.495 . S
C1361 H1367 0.959 . S
C1361 H1368 0.961 . S
C1361 H1369 0.960 . S
C1362 C1360 1.381 . S
C1362 C1363 1.394 . S
C1362 H1370 0.930 . S
C1363 C1362 1.394 . S
C1363 C1364 1.383 . S
C1363 H1371 0.929 . S
C1364 C1363 1.383 . S
C1364 C1365 1.381 . S
C1365 H1349 0.923 1_655 S
C1365 C1364 1.381 . S
C1365 C1366 1.382 . S
C1366 H1350 0.931 1_655 S
C1366 C1360 1.383 . S
C1366 C1365 1.382 . S
H1367 C1361 0.959 . S
H1368 C1361 0.961 . S
H1369 C1361 0.960 . S
H1370 C1362 0.930 . S
H1371 C1363 0.929 . S
H1372 C1380 0.929 . S
H1373 C1382 0.930 . S
H1374 C1384 0.930 . S
H1375 C1387 0.929 . S
H1376 C1390 0.930 . S
H1377 C1392 0.960 . S
H1378 C1392 0.960 . S
H1379 C1392 0.960 . S
C1380 H1372 0.929 . S
C1380 C1381 1.377 . S
C1380 C1382 1.384 . S
C1381 C1380 1.377 . S
C1381 C1387 1.390 . S
C1382 H1373 0.930 . S
C1382 C1380 1.384 . S
C1382 C1383 1.372 . S
C1383 C1382 1.372 . S
C1383 C1384 1.400 . S
C1383 C1388 1.490 . S
C1384 H1374 0.930 . S
C1384 C1383 1.400 . S
C1384 C1387 1.386 . S
H1385 C1401 0.930 . S
H1386 C1402 0.931 . S
C1387 H1375 0.929 . S
C1387 C1381 1.390 . S
C1387 C1384 1.386 . S
C1388 C1383 1.490 . S
C1388 C1390 1.395 . S
C1388 C1391 1.403 . S
H1389 C1395 0.930 . S
C1390 H1376 0.930 . S
C1390 C1388 1.395 . S
C1390 C1393 1.403 . S
C1391 C1388 1.403 . S
C1391 C1392 1.524 . S
C1391 C1395 1.400 . S
C1392 H1377 0.960 . S
C1392 H1378 0.960 . S
C1392 H1379 0.960 . S
C1392 C1391 1.524 . S
C1393 C1390 1.403 . S
C1393 C1394 1.392 . S
C1393 C1397 1.495 . S
C1394 C1393 1.392 . S
C1394 C1395 1.385 . S
C1394 C1396 1.478 . S
C1395 H1389 0.930 . S
C1395 C1391 1.400 . S
C1395 C1394 1.385 . S
C1396 C1394 1.478 . S
C1396 C1398 1.381 . S
C1396 C1402 1.383 . S
C1397 C1393 1.495 . S
C1397 H1403 0.959 . S
C1397 H1404 0.961 . S
C1397 H1405 0.960 . S
C1398 C1396 1.381 . S
C1398 C1399 1.394 . S
C1398 H1406 0.930 . S
C1399 C1398 1.394 . S
C1399 C1400 1.383 . S
C1399 H1407 0.929 . S
C1400 C1399 1.383 . S
C1400 C1401 1.377 . S
C1401 H1385 0.930 . S
C1401 C1400 1.377 . S
C1401 C1402 1.379 . S
C1402 H1386 0.931 . S
C1402 C1396 1.383 . S
C1402 C1401 1.379 . S
H1403 C1397 0.959 . S
H1404 C1397 0.961 . S
H1405 C1397 0.960 . S
H1406 C1398 0.930 . S
H1407 C1399 0.929 . S
H1408 C1416 0.929 . S
H1409 C1418 0.930 . S
H1410 C1420 0.930 . S
H1411 C1423 0.929 . S
H1412 C1426 0.930 . S
H1413 C1428 0.960 . S
H1414 C1428 0.960 . S
H1415 C1428 0.960 . S
C1416 H1408 0.929 . S
C1416 C1417 1.377 . S
C1416 C1418 1.384 . S
C1417 C1416 1.377 . S
C1417 C1423 1.390 . S
C1418 H1409 0.930 . S
C1418 C1416 1.384 . S
C1418 C1419 1.372 . S
C1419 C1418 1.372 . S
C1419 C1420 1.400 . S
C1419 C1424 1.490 . S
C1420 H1410 0.930 . S
C1420 C1419 1.400 . S
C1420 C1423 1.386 . S
H1421 C1437 0.930 . S
H1422 C1438 0.931 . S
C1423 H1411 0.929 . S
C1423 C1417 1.390 . S
C1423 C1420 1.386 . S
C1424 C1419 1.490 . S
C1424 C1426 1.395 . S
C1424 C1427 1.403 . S
H1425 C1431 0.930 . S
C1426 H1412 0.930 . S
C1426 C1424 1.395 . S
C1426 C1429 1.403 . S
C1427 C1424 1.403 . S
C1427 C1428 1.524 . S
C1427 C1431 1.400 . S
C1428 H1413 0.960 . S
C1428 H1414 0.960 . S
C1428 H1415 0.960 . S
C1428 C1427 1.524 . S
C1429 C1426 1.403 . S
C1429 C1430 1.392 . S
C1429 C1433 1.495 . S
C1430 C1429 1.392 . S
C1430 C1431 1.385 . S
C1430 C1432 1.478 . S
C1431 H1425 0.930 . S
C1431 C1427 1.400 . S
C1431 C1430 1.385 . S
C1432 C1430 1.478 . S
C1432 C1434 1.381 . S
C1432 C1438 1.383 . S
C1433 C1429 1.495 . S
C1433 H1439 0.959 . S
C1433 H1440 0.961 . S
C1433 H1441 0.960 . S
C1434 C1432 1.381 . S
C1434 C1435 1.394 . S
C1434 H1442 0.930 . S
C1435 C1434 1.394 . S
C1435 C1436 1.383 . S
C1435 H1443 0.929 . S
C1436 C1435 1.383 . S
C1436 C1437 1.377 . S
C1437 H1421 0.930 . S
C1437 C1436 1.377 . S
C1437 C1438 1.379 . S
C1438 H1422 0.931 . S
C1438 C1432 1.383 . S
C1438 C1437 1.379 . S
H1439 C1433 0.959 . S
H1440 C1433 0.961 . S
H1441 C1433 0.960 . S
H1442 C1434 0.930 . S
H1443 C1435 0.929 . S
H1444 C1452 0.929 . S
H1445 C1454 0.930 . S
H1446 C1456 0.930 . S
H1447 C1459 0.929 . S
H1448 C1462 0.930 . S
H1449 C1464 0.960 . S
H1450 C1464 0.960 . S
H1451 C1464 0.960 . S
C1452 H1444 0.929 . S
C1452 C1453 1.377 . S
C1452 C1454 1.384 . S
C1453 C1452 1.377 . S
C1453 C1459 1.390 . S
C1454 H1445 0.930 . S
C1454 C1452 1.384 . S
C1454 C1455 1.372 . S
C1455 C1454 1.372 . S
C1455 C1456 1.400 . S
C1455 C1460 1.490 . S
C1456 H1446 0.930 . S
C1456 C1455 1.400 . S
C1456 C1459 1.386 . S
H1457 C1473 0.930 . S
H1458 C1474 0.931 . S
C1459 H1447 0.929 . S
C1459 C1453 1.390 . S
C1459 C1456 1.386 . S
C1460 C1455 1.490 . S
C1460 C1462 1.395 . S
C1460 C1463 1.403 . S
H1461 C1467 0.930 . S
C1462 H1448 0.930 . S
C1462 C1460 1.395 . S
C1462 C1465 1.403 . S
C1463 C1460 1.403 . S
C1463 C1464 1.524 . S
C1463 C1467 1.400 . S
C1464 H1449 0.960 . S
C1464 H1450 0.960 . S
C1464 H1451 0.960 . S
C1464 C1463 1.524 . S
C1465 C1462 1.403 . S
C1465 C1466 1.392 . S
C1465 C1469 1.495 . S
C1466 C1465 1.392 . S
C1466 C1467 1.385 . S
C1466 C1468 1.478 . S
C1467 H1461 0.930 . S
C1467 C1463 1.400 . S
C1467 C1466 1.385 . S
C1468 C1466 1.478 . S
C1468 C1470 1.381 . S
C1468 C1474 1.383 . S
C1469 C1465 1.495 . S
C1469 H1475 0.959 . S
C1469 H1476 0.961 . S
C1469 H1477 0.960 . S
C1470 C1468 1.381 . S
C1470 C1471 1.394 . S
C1470 H1478 0.930 . S
C1471 C1470 1.394 . S
C1471 C1472 1.383 . S
C1471 H1479 0.929 . S
C1472 C1471 1.383 . S
C1472 C1473 1.377 . S
C1473 H1457 0.930 . S
C1473 C1472 1.377 . S
C1473 C1474 1.379 . S
C1474 H1458 0.931 . S
C1474 C1468 1.383 . S
C1474 C1473 1.379 . S
H1475 C1469 0.959 . S
H1476 C1469 0.961 . S
H1477 C1469 0.960 . S
H1478 C1470 0.930 . S
H1479 C1471 0.929 . S
H1480 C1488 0.929 . S
H1481 C1490 0.930 . S
H1482 C1492 0.930 . S
H1483 C1495 0.929 . S
H1484 C1498 0.930 . S
H1485 C1500 0.960 . S
H1486 C1500 0.960 . S
H1487 C1500 0.960 . S
C1488 H1480 0.929 . S
C1488 C1489 1.377 . S
C1488 C1490 1.384 . S
C1489 C1488 1.377 . S
C1489 C1495 1.390 . S
C1490 H1481 0.930 . S
C1490 C1488 1.384 . S
C1490 C1491 1.372 . S
C1491 C1490 1.372 . S
C1491 C1492 1.400 . S
C1491 C1496 1.490 . S
C1492 H1482 0.930 . S
C1492 C1491 1.400 . S
C1492 C1495 1.386 . S
H1493 C1509 0.930 . S
H1494 C1510 0.931 . S
C1495 H1483 0.929 . S
C1495 C1489 1.390 . S
C1495 C1492 1.386 . S
C1496 C1491 1.490 . S
C1496 C1498 1.395 . S
C1496 C1499 1.403 . S
H1497 C1503 0.930 . S
C1498 H1484 0.930 . S
C1498 C1496 1.395 . S
C1498 C1501 1.403 . S
C1499 C1496 1.403 . S
C1499 C1500 1.524 . S
C1499 C1503 1.400 . S
C1500 H1485 0.960 . S
C1500 H1486 0.960 . S
C1500 H1487 0.960 . S
C1500 C1499 1.524 . S
C1501 C1498 1.403 . S
C1501 C1502 1.392 . S
C1501 C1505 1.495 . S
C1502 C1501 1.392 . S
C1502 C1503 1.385 . S
C1502 C1504 1.478 . S
C1503 H1497 0.930 . S
C1503 C1499 1.400 . S
C1503 C1502 1.385 . S
C1504 C1502 1.478 . S
C1504 C1506 1.381 . S
C1504 C1510 1.383 . S
C1505 C1501 1.495 . S
C1505 H1511 0.959 . S
C1505 H1512 0.961 . S
C1505 H1513 0.960 . S
C1506 C1504 1.381 . S
C1506 C1507 1.394 . S
C1506 H1514 0.930 . S
C1507 C1506 1.394 . S
C1507 C1508 1.383 . S
C1507 H1515 0.929 . S
C1508 C1507 1.383 . S
C1508 C1509 1.377 . S
C1509 H1493 0.930 . S
C1509 C1508 1.377 . S
C1509 C1510 1.379 . S
C1510 H1494 0.931 . S
C1510 C1504 1.383 . S
C1510 C1509 1.379 . S
H1511 C1505 0.959 . S
H1512 C1505 0.961 . S
H1513 C1505 0.960 . S
H1514 C1506 0.930 . S
H1515 C1507 0.929 . S
H1516 C1524 0.929 . S
H1517 C1526 0.930 . S
H1518 C1528 0.930 . S
H1519 C1531 0.929 . S
H1520 C1534 0.930 . S
H1521 C1536 0.960 . S
H1522 C1536 0.960 . S
H1523 C1536 0.960 . S
C1524 H1516 0.929 . S
C1524 C1525 1.377 . S
C1524 C1526 1.384 . S
C1525 C1524 1.377 . S
C1525 C1531 1.390 . S
C1526 H1517 0.930 . S
C1526 C1524 1.384 . S
C1526 C1527 1.372 . S
C1527 C1526 1.372 . S
C1527 C1528 1.400 . S
C1527 C1532 1.490 . S
C1528 H1518 0.930 . S
C1528 C1527 1.400 . S
C1528 C1531 1.386 . S
H1529 C1545 0.930 . S
H1530 C1546 0.931 . S
C1531 H1519 0.929 . S
C1531 C1525 1.390 . S
C1531 C1528 1.386 . S
C1532 C1527 1.490 . S
C1532 C1534 1.395 . S
C1532 C1535 1.403 . S
H1533 C1539 0.930 . S
C1534 H1520 0.930 . S
C1534 C1532 1.395 . S
C1534 C1537 1.403 . S
C1535 C1532 1.403 . S
C1535 C1536 1.524 . S
C1535 C1539 1.400 . S
C1536 H1521 0.960 . S
C1536 H1522 0.960 . S
C1536 H1523 0.960 . S
C1536 C1535 1.524 . S
C1537 C1534 1.403 . S
C1537 C1538 1.392 . S
C1537 C1541 1.495 . S
C1538 C1537 1.392 . S
C1538 C1539 1.385 . S
C1538 C1540 1.478 . S
C1539 H1533 0.930 . S
C1539 C1535 1.400 . S
C1539 C1538 1.385 . S
C1540 C1538 1.478 . S
C1540 C1542 1.381 . S
C1540 C1546 1.383 . S
C1541 C1537 1.495 . S
C1541 H1547 0.959 . S
C1541 H1548 0.961 . S
C1541 H1549 0.960 . S
C1542 C1540 1.381 . S
C1542 C1543 1.394 . S
C1542 H1550 0.930 . S
C1543 C1542 1.394 . S
C1543 C1544 1.383 . S
C1543 H1551 0.929 . S
C1544 C1543 1.383 . S
C1544 C1545 1.377 . S
C1545 H1529 0.930 . S
C1545 C1544 1.377 . S
C1545 C1546 1.379 . S
C1546 H1530 0.931 . S
C1546 C1540 1.383 . S
C1546 C1545 1.379 . S
H1547 C1541 0.959 . S
H1548 C1541 0.961 . S
H1549 C1541 0.960 . S
H1550 C1542 0.930 . S
H1551 C1543 0.929 . S
H1552 C1560 0.929 . S
H1553 C1562 0.930 . S
H1554 C1564 0.930 . S
H1555 C1567 0.929 . S
H1556 C1570 0.930 . S
H1557 C1572 0.960 . S
H1558 C1572 0.960 . S
H1559 C1572 0.960 . S
C1560 H1552 0.929 . S
C1560 C1561 1.377 . S
C1560 C1562 1.384 . S
C1561 C1560 1.377 . S
C1561 C1567 1.390 . S
C1562 H1553 0.930 . S
C1562 C1560 1.384 . S
C1562 C1563 1.372 . S
C1563 C1562 1.372 . S
C1563 C1564 1.400 . S
C1563 C1568 1.490 . S
C1564 H1554 0.930 . S
C1564 C1563 1.400 . S
C1564 C1567 1.386 . S
H1565 C1581 0.930 . S
H1566 C1582 0.931 . S
C1567 H1555 0.929 . S
C1567 C1561 1.390 . S
C1567 C1564 1.386 . S
C1568 C1563 1.490 . S
C1568 C1570 1.395 . S
C1568 C1571 1.403 . S
H1569 C1575 0.930 . S
C1570 H1556 0.930 . S
C1570 C1568 1.395 . S
C1570 C1573 1.403 . S
C1571 C1568 1.403 . S
C1571 C1572 1.524 . S
C1571 C1575 1.400 . S
C1572 H1557 0.960 . S
C1572 H1558 0.960 . S
C1572 H1559 0.960 . S
C1572 C1571 1.524 . S
C1573 C1570 1.403 . S
C1573 C1574 1.392 . S
C1573 C1577 1.495 . S
C1574 C1573 1.392 . S
C1574 C1575 1.385 . S
C1574 C1576 1.478 . S
C1575 H1569 0.930 . S
C1575 C1571 1.400 . S
C1575 C1574 1.385 . S
C1576 C1574 1.478 . S
C1576 C1578 1.381 . S
C1576 C1582 1.383 . S
C1577 C1573 1.495 . S
C1577 H1583 0.959 . S
C1577 H1584 0.961 . S
C1577 H1585 0.960 . S
C1578 C1576 1.381 . S
C1578 C1579 1.394 . S
C1578 H1586 0.930 . S
C1579 C1578 1.394 . S
C1579 C1580 1.383 . S
C1579 H1587 0.929 . S
C1580 C1579 1.383 . S
C1580 C1581 1.377 . S
C1581 H1565 0.930 . S
C1581 C1580 1.377 . S
C1581 C1582 1.379 . S
C1582 H1566 0.931 . S
C1582 C1576 1.383 . S
C1582 C1581 1.379 . S
H1583 C1577 0.959 . S
H1584 C1577 0.961 . S
H1585 C1577 0.960 . S
H1586 C1578 0.930 . S
H1587 C1579 0.929 . S
H1588 C1596 0.929 . S
H1589 C1598 0.930 . S
H1590 C1600 0.930 . S
H1591 C1603 0.929 . S
H1592 C1606 0.930 . S
H1593 C1608 0.960 . S
H1594 C1608 0.960 . S
H1595 C1608 0.960 . S
C1596 H1588 0.929 . S
C1596 C1597 1.377 . S
C1596 C1598 1.384 . S
C1597 C1596 1.377 . S
C1597 C1603 1.390 . S
C1598 H1589 0.930 . S
C1598 C1596 1.384 . S
C1598 C1599 1.372 . S
C1599 C1598 1.372 . S
C1599 C1600 1.400 . S
C1599 C1604 1.490 . S
C1600 H1590 0.930 . S
C1600 C1599 1.400 . S
C1600 C1603 1.386 . S
H1601 C1617 0.930 . S
H1602 C1618 0.931 . S
C1603 H1591 0.929 . S
C1603 C1597 1.390 . S
C1603 C1600 1.386 . S
C1604 C1599 1.490 . S
C1604 C1606 1.395 . S
C1604 C1607 1.403 . S
H1605 C1611 0.930 . S
C1606 H1592 0.930 . S
C1606 C1604 1.395 . S
C1606 C1609 1.403 . S
C1607 C1604 1.403 . S
C1607 C1608 1.524 . S
C1607 C1611 1.400 . S
C1608 H1593 0.960 . S
C1608 H1594 0.960 . S
C1608 H1595 0.960 . S
C1608 C1607 1.524 . S
C1609 C1606 1.403 . S
C1609 C1610 1.392 . S
C1609 C1613 1.495 . S
C1610 C1609 1.392 . S
C1610 C1611 1.385 . S
C1610 C1612 1.478 . S
C1611 H1605 0.930 . S
C1611 C1607 1.400 . S
C1611 C1610 1.385 . S
C1612 C1610 1.478 . S
C1612 C1614 1.381 . S
C1612 C1618 1.383 . S
C1613 C1609 1.495 . S
C1613 H1619 0.959 . S
C1613 H1620 0.961 . S
C1613 H1621 0.960 . S
C1614 C1612 1.381 . S
C1614 C1615 1.394 . S
C1614 H1622 0.930 . S
C1615 C1614 1.394 . S
C1615 C1616 1.383 . S
C1615 H1623 0.929 . S
C1616 C1615 1.383 . S
C1616 C1617 1.377 . S
C1617 H1601 0.930 . S
C1617 C1616 1.377 . S
C1617 C1618 1.379 . S
C1618 H1602 0.931 . S
C1618 C1612 1.383 . S
C1618 C1617 1.379 . S
H1619 C1613 0.959 . S
H1620 C1613 0.961 . S
H1621 C1613 0.960 . S
H1622 C1614 0.930 . S
H1623 C1615 0.929 . S
H1624 C1632 0.929 . S
H1625 C1634 0.930 . S
H1626 C1636 0.930 . S
H1627 C1639 0.929 . S
H1628 C1642 0.930 . S
H1629 C1644 0.960 . S
H1630 C1644 0.960 . S
H1631 C1644 0.960 . S
C1632 H1624 0.929 . S
C1632 C1633 1.377 . S
C1632 C1634 1.384 . S
C1633 C1632 1.377 . S
C1633 C1639 1.390 . S
C1634 H1625 0.930 . S
C1634 C1632 1.384 . S
C1634 C1635 1.372 . S
C1635 C1634 1.372 . S
C1635 C1636 1.400 . S
C1635 C1640 1.490 . S
C1636 H1626 0.930 . S
C1636 C1635 1.400 . S
C1636 C1639 1.386 . S
H1637 C1653 0.930 . S
H1638 C1654 0.931 . S
C1639 H1627 0.929 . S
C1639 C1633 1.390 . S
C1639 C1636 1.386 . S
C1640 C1635 1.490 . S
C1640 C1642 1.395 . S
C1640 C1643 1.403 . S
H1641 C1647 0.930 . S
C1642 H1628 0.930 . S
C1642 C1640 1.395 . S
C1642 C1645 1.403 . S
C1643 C1640 1.403 . S
C1643 C1644 1.524 . S
C1643 C1647 1.400 . S
C1644 H1629 0.960 . S
C1644 H1630 0.960 . S
C1644 H1631 0.960 . S
C1644 C1643 1.524 . S
C1645 C1642 1.403 . S
C1645 C1646 1.392 . S
C1645 C1649 1.495 . S
C1646 C1645 1.392 . S
C1646 C1647 1.385 . S
C1646 C1648 1.478 . S
C1647 H1641 0.930 . S
C1647 C1643 1.400 . S
C1647 C1646 1.385 . S
C1648 C1646 1.478 . S
C1648 C1650 1.381 . S
C1648 C1654 1.383 . S
C1649 C1645 1.495 . S
C1649 H1655 0.959 . S
C1649 H1656 0.961 . S
C1649 H1657 0.960 . S
C1650 C1648 1.381 . S
C1650 C1651 1.394 . S
C1650 H1658 0.930 . S
C1651 C1650 1.394 . S
C1651 C1652 1.383 . S
C1651 H1659 0.929 . S
C1652 C1651 1.383 . S
C1652 C1653 1.377 . S
C1653 H1637 0.930 . S
C1653 C1652 1.377 . S
C1653 C1654 1.379 . S
C1654 H1638 0.931 . S
C1654 C1648 1.383 . S
C1654 C1653 1.379 . S
H1655 C1649 0.959 . S
H1656 C1649 0.961 . S
H1657 C1649 0.960 . S
H1658 C1650 0.930 . S
H1659 C1651 0.929 . S
C536 C444 1.843 . S
C517 C45 1.882 . S
C553 C78 1.788 . S
C572 C447 1.776 . S
C589 C126 1.769 . S
C608 C478 1.717 . S
C644 C413 1.796 . S
C625 C174 1.848 . S
C680 C448 1.806 . S
C661 C36 1.887 . S
C716 C479 1.790 . S
C697 C69 1.861 . S
C752 C404 1.756 . S
C733 C117 1.781 . S
C788 C435 1.765 . S
C769 C165 1.804 . S
C805 C30 1.219 . S
C824 C465 1.138 . S
C841 C228 1.213 . S
C860 C434 1.094 . S
C877 C141 1.121 . S
C896 C394 1.112 . S
C932 C487 1.120 . S
C913 C270 1.143 . S
C968 C415 1.146 . S
C949 C21 1.227 . S
C985 C237 1.142 . S
C1004 C414 1.132 . S
C1021 C132 1.136 . S
C1040 C507 1.119 . S
C1076 C446 1.156 . S
C1057 C261 1.213 . S
C1093 C333 1.881 . S
C1112 C506 1.841 . S
C1129 C213 1.805 . S
C1148 C385 1.747 . S
C1165 C357 1.778 1_655 S
C1184 C416 1.756 . S
C1201 C285 1.856 . S
C1220 C475 1.814 . S
C1256 C386 1.825 . S
C1237 C324 1.889 . S
C1273 C222 1.849 . S
C1292 C417 1.783 . S
C1309 C366 1.770 1_655 S
C1328 C466 1.721 . S
C1364 C497 1.779 . S
C1345 C276 1.810 . S
C1381 C318 1.212 . S
C1400 C403 1.188 . S
C1417 C93 1.197 . S
C1436 C496 1.100 . S
C1453 C372 1.136 . S
C1472 C456 1.097 . S
C1508 C425 1.129 . S
C1489 C189 1.145 . S
C1544 C477 1.111 . S
C1525 C309 1.233 . S
C1580 C476 1.133 . S
C1561 C84 1.154 . S
C1616 C445 1.106 . S
C1597 C381 1.128 . S
C1652 C384 1.173 . S
C1633 C180 1.210 . S
