# Generated by pormake.
# Topology pts, (4,4)-cn, num edge types: 1
# Building blocks:
#     Node 0, Type 0, BuildingBlock: AZAVOO_clean_linker_0, # of connection points: 4
#     Node 1, Type 0, BuildingBlock: AZAVOO_clean_linker_0, # of connection points: 4
#     Node 2, Type 1, BuildingBlock: QUQFOY_clean_sbu_1, # of connection points: 4
#     Node 3, Type 1, BuildingBlock: QUQFOY_clean_sbu_1, # of connection points: 4
#     Edge 4, Type (0, 1), BuildingBlock: XUDNAN_clean_linker_2, # of connection points: 2
#     Edge 5, Type (0, 1), BuildingBlock: XUDNAN_clean_linker_2, # of connection points: 2
#     Edge 6, Type (0, 1), BuildingBlock: XUDNAN_clean_linker_2, # of connection points: 2
#     Edge 7, Type (0, 1), BuildingBlock: XUDNAN_clean_linker_2, # of connection points: 2
#     Edge 8, Type (0, 1), BuildingBlock: XUDNAN_clean_linker_2, # of connection points: 2
#     Edge 9, Type (0, 1), BuildingBlock: XUDNAN_clean_linker_2, # of connection points: 2
#     Edge 10, Type (0, 1), BuildingBlock: XUDNAN_clean_linker_2, # of connection points: 2
#     Edge 11, Type (0, 1), BuildingBlock: XUDNAN_clean_linker_2, # of connection points: 2
# Relax obj value: 0.198
# Max RMSD: 0.245
# Mean RMSD: 0.235
data_MOF--net-pts--node1-QUQFOY_clean_sbu_1--node2-AZAVOO_clean_linker_0--edge1-XUDNAN_clean_linker_2
_symmetry_space_group_name_H-M    P1
_symmetry_Int_Tables_number       1
_symmetry_cell_setting            triclinic
loop_
_symmetry_equiv_pos_as_xyz
'x, y, z'
_cell_length_a     24.841474
_cell_length_b     27.983383
_cell_length_c     48.86734
_cell_angle_alpha  90.837408
_cell_angle_beta   92.79172
_cell_angle_gamma 90.281991
loop_
_atom_site_label
_atom_site_type_symbol
_atom_site_fract_x
_atom_site_fract_y
_atom_site_fract_z
_atom_type_partial_charge
H0 H 0.42653 0.11724 0.82483 0.0
H1 H 0.89851 0.98927 0.02772 0.0
H2 H 0.44851 0.15981 0.96555 0.0
H3 H 0.36743 0.14962 0.93611 0.0
H4 H 0.3399 0.0117 0.97189 0.0
H5 H 0.42334 0.02106 -5e-05 0.0
H6 H 0.54662 0.14522 0.92995 0.0
H7 H 0.50408 0.14583 0.88368 0.0
H8 H 0.43192 0.00794 0.8977 0.0
H9 H 0.47487 0.00769 0.9438 0.0
H10 H 0.67521 0.12425 0.95787 0.0
H11 H 0.72937 0.10988 0.91826 0.0
H12 H 0.63631 0.98149 0.89873 0.0
H13 H 0.58687 0.99371 0.93988 0.0
H14 H 0.68631 0.13485 0.02363 0.0
H15 H 0.78198 0.12143 0.03507 0.0
H16 H 0.76493 0.97552 0.00537 0.0
H17 H 0.66917 0.98926 0.99435 0.0
H18 H 0.58997 0.15068 0.06165 0.0
H19 H 0.63388 0.14657 0.10767 0.0
H20 H 0.65935 0.99517 0.09532 0.0
H21 H 0.61438 0.99952 0.04996 0.0
H22 H 0.46497 0.16529 0.03106 0.0
H23 H 0.40326 0.17557 0.06819 0.0
H24 H 0.43597 0.03094 0.09396 0.0
H25 H 0.49566 0.02047 0.05604 0.0
O26 O 0.44426 0.11567 0.84287 0.0
O27 O 0.4065 0.04566 0.85161 0.0
O28 O 0.86741 0.07085 0.03842 0.0
O29 O 0.86088 0.99561 0.02328 0.0
C30 C 0.50124 0.08638 0.99082 0.0
C31 C 0.53589 0.07806 0.96908 0.0
C32 C 0.5914 0.07033 0.97467 0.0
C33 C 0.61243 0.07101 0.00204 0.0
C34 C 0.57755 0.07827 0.02381 0.0
C35 C 0.52191 0.08598 0.01821 0.0
C36 C 0.44256 0.09056 0.9842 0.0
C37 C 0.4236 0.12839 0.96793 0.0
C38 C 0.37706 0.12238 0.95104 0.0
C39 C 0.34828 0.07892 0.95085 0.0
C40 C 0.36239 0.04481 0.97081 0.0
C41 C 0.40956 0.05045 0.98727 0.0
C42 C 0.51344 0.07663 0.94027 0.0
C43 C 0.52198 0.11503 0.92287 0.0
C44 C 0.49746 0.11534 0.89651 0.0
C45 C 0.46413 0.07714 0.88709 0.0
C46 C 0.45695 0.0381 0.90438 0.0
C47 C 0.48147 0.03784 0.9307 0.0
C48 C 0.62679 0.06026 0.95164 0.0
C49 C 0.66744 0.09255 0.94527 0.0
C50 C 0.69772 0.08461 0.92228 0.0
C51 C 0.68698 0.04478 0.9048 0.0
C52 C 0.64664 0.01217 0.91169 0.0
C53 C 0.61765 0.0194 0.93509 0.0
C54 C 0.67088 0.06308 0.0081 0.0
C55 C 0.70335 0.10003 0.01961 0.0
C56 C 0.75797 0.09227 0.0261 0.0
C57 C 0.78112 0.04737 0.02113 0.0
C58 C 0.74843 0.01052 0.00944 0.0
C59 C 0.69377 0.0183 0.00303 0.0
C60 C 0.5994 0.07544 0.0525 0.0
C61 C 0.60429 0.11658 0.06918 0.0
C62 C 0.62958 0.11419 0.09533 0.0
C63 C 0.65011 0.07055 0.10514 0.0
C64 C 0.64327 0.02918 0.08862 0.0
C65 C 0.61805 0.03162 0.06259 0.0
C66 C 0.48499 0.09225 0.04095 0.0
C67 C 0.45858 0.13584 0.0447 0.0
C68 C 0.42372 0.14173 0.06607 0.0
C69 C 0.41479 0.10413 0.08416 0.0
C70 C 0.44139 0.06046 0.08025 0.0
C71 C 0.47595 0.05453 0.05877 0.0
C72 C 0.43656 0.07832 0.85947 0.0
C73 C 0.83906 0.03886 0.02815 0.0
H74 H 0.01731 0.44067 0.32542 0.0
H75 H 0.14306 0.86927 0.53103 0.0
H76 H 0.99049 0.45774 0.47777 0.0
H77 H 0.98609 0.37746 0.45716 0.0
H78 H 0.15868 0.36481 0.46953 0.0
H79 H 0.16283 0.44557 0.48991 0.0
H80 H 0.99065 0.51724 0.43588 0.0
H81 H 0.98538 0.48371 0.38928 0.0
H82 H 0.15948 0.48353 0.38907 0.0
H83 H 0.16404 0.51704 0.43574 0.0
H84 H 0.00059 0.61131 0.43625 0.0
H85 H 0.00029 0.66412 0.39657 0.0
H86 H 0.16902 0.69515 0.41375 0.0
H87 H 0.16983 0.64041 0.4526 0.0
H88 H 0.00484 0.66839 0.50147 0.0
H89 H 0.00573 0.75427 0.51191 0.0
H90 H 0.18 0.75379 0.51437 0.0
H91 H 0.17842 0.66794 0.50401 0.0
H92 H 0.01116 0.60509 0.55333 0.0
H93 H 0.01726 0.66954 0.58782 0.0
H94 H 0.19023 0.67238 0.58261 0.0
H95 H 0.18383 0.60767 0.54837 0.0
H96 H 0.00429 0.47251 0.53257 0.0
H97 H 0.00426 0.41794 0.57136 0.0
H98 H 0.16744 0.46072 0.59479 0.0
H99 H 0.16811 0.51379 0.55529 0.0
O100 O 0.02034 0.45373 0.34388 0.0
O101 O 0.10993 0.45182 0.34534 0.0
O102 O 0.05186 0.83444 0.5235 0.0
O103 O 0.14148 0.83568 0.52602 0.0
C104 C 0.08096 0.50967 0.49015 0.0
C105 C 0.08081 0.54009 0.46727 0.0
C106 C 0.08551 0.58993 0.47112 0.0
C107 C 0.09056 0.60944 0.49782 0.0
C108 C 0.09185 0.57913 0.52078 0.0
C109 C 0.08659 0.52908 0.51705 0.0
C110 C 0.07698 0.45739 0.48519 0.0
C111 C 0.02709 0.43698 0.47689 0.0
C112 C 0.02467 0.39133 0.46505 0.0
C113 C 0.07212 0.36528 0.46158 0.0
C114 C 0.12153 0.38408 0.47217 0.0
C115 C 0.12396 0.43006 0.48381 0.0
C116 C 0.0777 0.51953 0.43907 0.0
C117 C 0.02755 0.50986 0.42571 0.0
C118 C 0.02469 0.49075 0.39911 0.0
C119 C 0.07202 0.48107 0.38541 0.0
C120 C 0.12226 0.49063 0.39901 0.0
C121 C 0.12502 0.50978 0.42562 0.0
C122 C 0.08528 0.62192 0.44718 0.0
C123 C 0.03762 0.62901 0.43122 0.0
C124 C 0.03744 0.65918 0.40872 0.0
C125 C 0.08463 0.68354 0.40231 0.0
C126 C 0.13215 0.67688 0.41848 0.0
C127 C 0.13261 0.6458 0.44059 0.0
C128 C 0.09153 0.66214 0.50196 0.0
C129 C 0.0431 0.68708 0.504 0.0
C130 C 0.04376 0.73604 0.51005 0.0
C131 C 0.09298 0.76087 0.51407 0.0
C132 C 0.14142 0.73579 0.51142 0.0
C133 C 0.14067 0.68682 0.50542 0.0
C134 C 0.09704 0.60172 0.5484 0.0
C135 C 0.05055 0.61779 0.56076 0.0
C136 C 0.05409 0.65489 0.58027 0.0
C137 C 0.10415 0.67642 0.58742 0.0
C138 C 0.15113 0.6567 0.57718 0.0
C139 C 0.1476 0.61931 0.55794 0.0
C140 C 0.08622 0.49715 0.54105 0.0
C141 C 0.04025 0.46974 0.54589 0.0
C142 C 0.04025 0.43864 0.568 0.0
C143 C 0.08588 0.43516 0.58597 0.0
C144 C 0.13167 0.463 0.58129 0.0
C145 C 0.132 0.49342 0.55886 0.0
C146 C 0.06881 0.46135 0.35702 0.0
C147 C 0.09397 0.81254 0.52141 0.0
O148 O 0.98479 0.02619 0.23512 0.0
Cd149 Cd 0.06425 0.01675 0.24784 0.0
Cd150 Cd 0.05483 0.11159 0.26036 0.0
O151 O 0.97905 0.10409 0.24161 0.0
O152 O 0.07117 0.94615 0.24567 0.0
O153 O 0.08078 0.98718 0.28463 0.0
C154 C 0.07921 0.94637 0.27191 0.0
C155 C 0.06096 0.14513 0.30423 0.0
C156 C 0.95797 0.06461 0.23361 0.0
C157 C 0.14143 0.08539 0.22263 0.0
O158 O 0.11947 0.11871 0.23597 0.0
O159 O 0.12489 0.04248 0.2243 0.0
O160 O 0.05153 0.17089 0.28288 0.0
O161 O 0.06745 0.09969 0.30069 0.0
O162 O 0.95988 0.09796 0.76023 0.0
Cd163 Cd 0.0361 0.11586 0.74883 0.0
Cd164 Cd 0.04338 0.01797 0.73744 0.0
O165 O 0.96583 0.02105 0.75032 0.0
O166 O 0.03832 0.18684 0.74711 0.0
O167 O 0.04974 0.13994 0.71104 0.0
C168 C 0.04782 0.18254 0.72151 0.0
C169 C 0.05907 0.96259 0.70236 0.0
C170 C 0.93955 0.05616 0.75948 0.0
C171 C 0.11911 0.05996 0.7816 0.0
O172 O 0.10368 0.02326 0.76771 0.0
O173 O 0.09787 0.1004 0.77692 0.0
O174 O 0.04736 0.94933 0.72644 0.0
O175 O 0.06167 0.00787 0.69786 0.0
H176 H 0.34237 0.03895 0.10271 0.0
H177 H 0.40322 0.18334 0.11716 0.0
H178 H 0.3405 0.19405 0.15439 0.0
H179 H 0.20493 0.06279 0.11503 0.0
H180 H 0.1939 0.0071 0.13202 0.0
H181 H 0.24367 0.01079 0.10655 0.0
H182 H 0.31665 0.97996 0.14158 0.0
H183 H 0.26707 0.9761 0.16717 0.0
H184 H 0.32769 0.01078 0.17404 0.0
H185 H 0.26988 0.18953 0.18944 0.0
H186 H 0.19743 0.1697 0.22026 0.0
H187 H 0.18541 0.0272 0.18398 0.0
C188 C 0.34308 0.07266 0.11389 0.0
C189 C 0.37771 0.11036 0.10691 0.0
C190 C 0.37653 0.15417 0.12181 0.0
C191 C 0.34131 0.1605 0.14313 0.0
C192 C 0.30772 0.12261 0.14941 0.0
C193 C 0.30845 0.0795 0.1353 0.0
C194 C 0.2681 0.04453 0.14601 0.0
C195 C 0.22511 0.0305 0.12357 0.0
C196 C 0.29659 1.00023 0.15791 0.0
C197 C 0.24438 0.07479 0.1683 0.0
C198 C 0.2677 0.11974 0.16989 0.0
C199 C 0.2515 0.15436 0.18848 0.0
C200 C 0.21026 0.14276 0.20588 0.0
C201 C 0.18584 0.09684 0.20464 0.0
C202 C 0.20351 0.06248 0.18563 0.0
H203 H 0.05746 0.34037 0.58646 0.0
H204 H 0.11282 0.45836 0.63925 0.0
H205 H 0.10958 0.40619 0.67957 0.0
H206 H 0.96602 0.28851 0.63225 0.0
H207 H 0.9818 0.22762 0.62331 0.0
H208 H 0.98852 0.27414 0.5986 0.0
H209 H 0.08816 0.25061 0.59298 0.0
H210 H 0.08174 0.20395 0.61765 0.0
H211 H 0.13378 0.24875 0.62279 0.0
H212 H 0.09598 0.34281 0.71411 0.0
H213 H 0.07938 0.27046 0.74073 0.0
H214 H 0.0376 0.1917 0.66544 0.0
C215 C 0.06882 0.35509 0.60655 0.0
C216 C 0.08524 0.40333 0.60988 0.0
C217 C 0.10043 0.42139 0.63635 0.0
C218 C 0.09852 0.39211 0.65932 0.0
C219 C 0.08197 0.34475 0.65538 0.0
C220 C 0.06794 0.32613 0.62966 0.0
C221 C 0.05254 0.27375 0.63108 0.0
C222 C 0.99372 0.26554 0.6207 0.0
C223 C 0.09138 0.24242 0.61518 0.0
C224 C 0.05952 0.26598 0.66168 0.0
C225 C 0.07613 0.30755 0.67528 0.0
C226 C 0.08345 0.30993 0.70369 0.0
C227 C 0.07372 0.26869 0.71862 0.0
C228 C 0.05748 0.22546 0.70513 0.0
C229 C 0.05054 0.22413 0.67626 0.0
H230 H 0.727 0.13417 0.12505 0.0
H231 H 0.64779 0.00096 0.144 0.0
H232 H 0.71259 0.99013 0.18326 0.0
H233 H 0.85548 0.09738 0.13676 0.0
H234 H 0.88192 0.15194 0.15234 0.0
H235 H 0.82421 0.15382 0.12875 0.0
H236 H 0.76906 0.19685 0.16531 0.0
H237 H 0.82695 0.1957 0.18902 0.0
H238 H 0.76369 0.1706 0.19854 0.0
H239 H 0.79452 0.98631 0.21439 0.0
H240 H 0.88452 0.99312 0.238 0.0
H241 H 0.90774 0.13129 0.20122 0.0
C242 C 0.7219 0.10371 0.1381 0.0
C243 C 0.68239 0.06837 0.13144 0.0
C244 C 0.6781 0.02825 0.14857 0.0
C245 C 0.71446 0.02196 0.17102 0.0
C246 C 0.75426 0.05653 0.17637 0.0
C247 C 0.75762 0.0971 0.16073 0.0
C248 C 0.80697 0.12669 0.16935 0.0
C249 C 0.84433 0.13277 0.14538 0.0
C250 C 0.79068 0.17534 0.18127 0.0
C251 C 0.83221 0.09524 0.19136 0.0
C252 C 0.80091 0.05512 0.19523 0.0
C253 C 0.81866 0.01818 0.21216 0.0
C254 C 0.86987 0.0222 0.22533 0.0
C255 C 0.90242 0.06301 0.22168 0.0
C256 C 0.88289 0.10035 0.20491 0.0
H257 H 0.05712 0.70099 0.63533 0.0
H258 H 0.15509 0.75729 0.57206 0.0
H259 H 0.15272 0.83747 0.59376 0.0
H260 H 0.9727 0.80263 0.64265 0.0
H261 H 0.97028 0.79851 0.67935 0.0
H262 H 0.97995 0.74545 0.65892 0.0
H263 H 0.06775 0.72688 0.68755 0.0
H264 H 0.05809 0.77965 0.70824 0.0
H265 H 0.12019 0.77162 0.69117 0.0
H266 H 0.13581 0.91252 0.62132 0.0
H267 H 0.11301 0.97497 0.65525 0.0
H268 H 0.03005 0.8685 0.70154 0.0
C269 C 0.07836 0.7302 0.62623 0.0
C270 C 0.10643 0.72306 0.60212 0.0
C271 C 0.13386 0.762 0.59073 0.0
C272 C 0.13245 0.80769 0.6028 0.0
C273 C 0.104 0.8137 0.62645 0.0
C274 C 0.07811 0.77588 0.63828 0.0
C275 C 0.05132 0.79169 0.66401 0.0
C276 C 0.98992 0.78413 0.66104 0.0
C277 C 0.07582 0.76594 0.68923 0.0
C278 C 0.06587 0.8443 0.66471 0.0
C279 C 0.09578 0.85647 0.64273 0.0
C280 C 0.11274 0.90336 0.63875 0.0
C281 C 0.09943 0.93859 0.65801 0.0
C282 C 0.07009 0.92648 0.68105 0.0
C283 C 0.05294 0.87876 0.68424 0.0
H284 H 0.27614 0.13643 0.9219 0.0
H285 H 0.33988 0.99213 0.92457 0.0
H286 H 0.28924 0.97223 0.8815 0.0
H287 H 0.14333 0.10603 0.89203 0.0
H288 H 0.14011 0.15808 0.87072 0.0
H289 H 0.17859 0.16001 0.90292 0.0
H290 H 0.263 0.18635 0.87773 0.0
H291 H 0.22506 0.18377 0.84537 0.0
H292 H 0.2862 0.14978 0.85005 0.0
H293 H 0.23531 0.96849 0.83718 0.0
H294 H 0.17643 0.98 0.79574 0.0
H295 H 0.15025 0.12741 0.82071 0.0
C296 C 0.27903 0.1005 0.91361 0.0
C297 C 0.31151 0.06575 0.927 0.0
C298 C 0.31412 0.01913 0.91531 0.0
C299 C 0.28605 0.00755 0.89057 0.0
C300 C 0.25557 0.04294 0.87765 0.0
C301 C 0.25149 0.08835 0.88881 0.0
C302 C 0.21692 0.12002 0.87034 0.0
C303 C 0.16676 0.13702 0.88487 0.0
C304 C 0.24977 0.16249 0.86028 0.0
C305 C 0.20213 0.08519 0.84714 0.0
C306 C 0.22504 0.041 0.85174 0.0
C307 C 0.217 0.00291 0.83333 0.0
C308 C 0.18361 0.00986 0.80982 0.0
C309 C 0.15871 0.0546 0.80492 0.0
C310 C 0.16889 0.09286 0.82373 0.0
H311 H 0.02739 0.35904 0.4101 0.0
H312 H 0.11692 0.2769 0.47129 0.0
H313 H 0.11953 0.20835 0.43848 0.0
H314 H 0.9479 0.26133 0.37837 0.0
H315 H 0.95287 0.28494 0.34445 0.0
H316 H 0.95411 0.32489 0.37372 0.0
H317 H 0.04494 0.36017 0.35961 0.0
H318 H 0.04409 0.32062 0.33026 0.0
H319 H 0.1011 0.32107 0.35456 0.0
H320 H 0.11382 0.14968 0.39761 0.0
H321 H 0.10538 0.10874 0.35221 0.0
H322 H 0.02345 0.23269 0.31836 0.0
C323 C 0.04635 0.32616 0.41683 0.0
C324 C 0.07096 0.32264 0.44333 0.0
C325 C 0.09732 0.27986 0.45111 0.0
C326 C 0.09886 0.24087 0.43265 0.0
C327 C 0.07434 0.24568 0.40652 0.0
C328 C 0.04884 0.28745 0.39866 0.0
C329 C 0.02907 0.28536 0.36896 0.0
C330 C 0.96732 0.28935 0.36623 0.0
C331 C 0.05648 0.32407 0.35236 0.0
C332 C 0.04763 0.23597 0.36111 0.0
C333 C 0.07308 0.21321 0.38303 0.0
C334 C 0.09389 0.16722 0.38036 0.0
C335 C 0.08889 0.14424 0.35455 0.0
C336 C 0.06404 0.16768 0.33179 0.0
C337 C 0.04295 0.21394 0.33533 0.0
H338 H 0.72936 0.11329 0.8716 0.0
H339 H 0.71502 0.95939 0.88057 0.0
H340 H 0.76437 0.94726 0.83875 0.0
H341 H 0.72586 0.11701 0.79647 0.0
H342 H 0.77727 0.16266 0.79622 0.0
H343 H 0.73272 0.16012 0.82422 0.0
H344 H 0.81486 0.15557 0.8589 0.0
H345 H 0.85946 0.15879 0.8311 0.0
H346 H 0.86458 0.10971 0.85455 0.0
H347 H 0.82072 0.95094 0.79821 0.0
H348 H 0.89085 0.96954 0.76612 0.0
H349 H 0.87585 0.12067 0.78574 0.0
C350 C 0.73639 0.07692 0.86492 0.0
C351 C 0.71716 0.03739 0.87943 0.0
C352 C 0.72748 0.99052 0.86957 0.0
C353 C 0.75573 0.98314 0.84577 0.0
C354 C 0.77405 0.02289 0.83211 0.0
C355 C 0.76553 0.06884 0.84154 0.0
C356 C 0.79516 0.10512 0.82506 0.0
C357 C 0.75536 0.13818 0.80957 0.0
C358 C 0.83594 0.13397 0.8435 0.0
C359 C 0.82313 0.07218 0.80548 0.0
C360 C 0.80911 0.02501 0.8094 0.0
C361 C 0.83178 0.98775 0.7948 0.0
C362 C 0.87159 0.99877 0.77655 0.0
C363 C 0.88911 0.04661 0.77344 0.0
C364 C 0.86307 0.08382 0.78743 0.0
H365 H 0.11226 0.77813 0.40241 0.0
H366 H 0.05512 0.66126 0.34932 0.0
H367 H 0.05317 0.71518 0.30957 0.0
H368 H 0.02847 0.86683 0.371 0.0
H369 H 0.07784 0.91415 0.37511 0.0
H370 H 0.07868 0.8656 0.39889 0.0
H371 H 0.17811 0.84815 0.38863 0.0
H372 H 0.17753 0.89662 0.36474 0.0
H373 H 0.19588 0.83739 0.35375 0.0
H374 H 0.05669 0.78134 0.27606 0.0
H375 H 0.05785 0.8571 0.25109 0.0
H376 H 0.10816 0.93268 0.32636 0.0
C377 C 0.09997 0.76398 0.38231 0.0
C378 C 0.08427 0.71568 0.37866 0.0
C379 C 0.06732 0.69826 0.35232 0.0
C380 C 0.06635 0.7285 0.3297 0.0
C381 C 0.08193 0.77605 0.33394 0.0
C382 C 0.09792 0.79388 0.3596 0.0
C383 C 0.10934 0.84708 0.3588 0.0
C384 C 0.0713 0.87505 0.37703 0.0
C385 C 0.16875 0.85793 0.36696 0.0
C386 C 0.09693 0.85642 0.32871 0.0
C387 C 0.08197 0.81479 0.31472 0.0
C388 C 0.06835 0.81419 0.28676 0.0
C389 C 0.06927 0.85744 0.27276 0.0
C390 C 0.08305 0.90083 0.28678 0.0
C391 C 0.09749 0.90011 0.3151 0.0
loop_
_geom_bond_atom_site_label_1
_geom_bond_atom_site_label_2
_geom_bond_distance
_geom_bond_site_symmetry_2
_ccdc_geom_bond_type
H0 O26 0.856 . S
H1 O29 0.854 . S
H2 C37 0.930 . S
H3 C38 0.930 . S
H4 C40 0.930 . S
H5 C41 0.930 . S
H6 C43 0.931 . S
H7 C44 0.930 . S
H8 C46 0.930 1_565 S
H9 C47 0.929 1_565 S
H10 C49 0.930 . S
H11 C50 0.931 . S
H12 C52 0.930 1_565 S
H13 C53 0.929 1_565 S
H14 C55 0.931 . S
H15 C56 0.930 . S
H16 C58 0.930 1_565 S
H17 C59 0.932 1_566 S
H18 C61 0.930 . S
H19 C62 0.929 . S
H20 C64 0.931 . S
H21 C65 0.930 . S
H22 C67 0.929 . S
H23 C68 0.931 . S
H24 C70 0.930 1_565 S
H25 C71 0.929 . S
O26 H0 0.856 . S
O26 C72 1.300 . S
O27 C72 1.209 . S
O28 C73 1.199 . S
O29 H1 0.854 . S
O29 C73 1.297 . S
C30 C31 1.404 . S
C30 C35 1.397 1_556 S
C30 C36 1.492 . S
C31 C30 1.404 . S
C31 C32 1.396 . S
C31 C42 1.492 . S
C32 C31 1.396 . S
C32 C33 1.397 . S
C32 C48 1.509 . S
C33 C32 1.397 . S
C33 C34 1.412 1_556 S
C33 C54 1.485 1_556 S
C34 C33 1.412 1_554 S
C34 C35 1.388 . S
C34 C60 1.490 . S
C35 C30 1.397 1_554 S
C35 C34 1.388 . S
C35 C66 1.519 . S
C36 C30 1.492 . S
C36 C37 1.363 . S
C36 C41 1.390 . S
C37 H2 0.930 . S
C37 C36 1.363 . S
C37 C38 1.372 . S
C38 H3 0.930 . S
C38 C37 1.372 . S
C38 C39 1.383 . S
C39 C38 1.383 . S
C39 C40 1.395 . S
C40 H4 0.930 . S
C40 C39 1.395 . S
C40 C41 1.362 . S
C41 H5 0.930 . S
C41 C36 1.390 . S
C41 C40 1.362 . S
C42 C31 1.492 . S
C42 C43 1.377 . S
C42 C47 1.397 . S
C43 H6 0.931 . S
C43 C42 1.377 . S
C43 C44 1.376 . S
C44 H7 0.930 . S
C44 C43 1.376 . S
C44 C45 1.376 . S
C45 C44 1.376 . S
C45 C46 1.378 . S
C45 C72 1.486 . S
C46 H8 0.930 1_545 S
C46 C45 1.378 . S
C46 C47 1.376 . S
C47 H9 0.929 1_545 S
C47 C42 1.397 . S
C47 C46 1.376 . S
C48 C32 1.509 . S
C48 C49 1.391 . S
C48 C53 1.386 . S
C49 H10 0.930 . S
C49 C48 1.391 . S
C49 C50 1.375 . S
C50 H11 0.931 . S
C50 C49 1.375 . S
C50 C51 1.375 . S
C51 C50 1.375 . S
C51 C52 1.361 . S
C52 H12 0.930 1_545 S
C52 C51 1.361 . S
C52 C53 1.399 . S
C53 H13 0.929 1_545 S
C53 C48 1.386 . S
C53 C52 1.399 . S
C54 C33 1.485 1_554 S
C54 C55 1.394 . S
C54 C59 1.360 . S
C55 H14 0.931 . S
C55 C54 1.394 . S
C55 C56 1.372 . S
C56 H15 0.930 . S
C56 C55 1.372 . S
C56 C57 1.397 . S
C57 C56 1.397 . S
C57 C58 1.390 . S
C57 C73 1.476 . S
C58 H16 0.930 1_545 S
C58 C57 1.390 . S
C58 C59 1.366 . S
C59 H17 0.932 1_544 S
C59 C54 1.360 . S
C59 C58 1.366 . S
C60 C34 1.490 . S
C60 C61 1.380 . S
C60 C65 1.386 . S
C61 H18 0.930 . S
C61 C60 1.380 . S
C61 C62 1.381 . S
C62 H19 0.929 . S
C62 C61 1.381 . S
C62 C63 1.371 . S
C63 C62 1.371 . S
C63 C64 1.380 . S
C64 H20 0.931 . S
C64 C63 1.380 . S
C64 C65 1.387 . S
C65 H21 0.930 . S
C65 C60 1.386 . S
C65 C64 1.387 . S
C66 C35 1.519 . S
C66 C67 1.377 . S
C66 C71 1.361 . S
C67 H22 0.929 . S
C67 C66 1.377 . S
C67 C68 1.386 . S
C68 H23 0.931 . S
C68 C67 1.386 . S
C68 C69 1.363 . S
C69 C68 1.363 . S
C69 C70 1.385 . S
C70 H24 0.930 1_545 S
C70 C69 1.385 . S
C70 C71 1.396 . S
C71 H25 0.929 . S
C71 C66 1.361 . S
C71 C70 1.396 . S
C72 O26 1.300 . S
C72 O27 1.209 . S
C72 C45 1.486 . S
C73 O28 1.199 . S
C73 O29 1.297 . S
C73 C57 1.476 . S
H74 O100 0.856 . S
H75 O103 0.854 . S
H76 C111 0.930 1_655 S
H77 C112 0.937 . S
H78 C114 0.930 . S
H79 C115 0.930 . S
H80 C117 0.929 1_655 S
H81 C118 0.930 . S
H82 C120 0.930 . S
H83 C121 0.929 . S
H84 C123 0.930 1_655 S
H85 C124 0.931 . S
H86 C126 0.930 . S
H87 C127 0.929 . S
H88 C129 0.931 1_655 S
H89 C130 0.923 1_655 S
H90 C132 0.930 . S
H91 C133 0.932 . S
H92 C135 0.930 1_655 S
H93 C136 0.929 1_655 S
H94 C138 0.931 . S
H95 C139 0.930 . S
H96 C141 0.929 1_655 S
H97 C142 0.931 1_655 S
H98 C144 0.930 . S
H99 C145 0.929 . S
O100 H74 0.856 . S
O100 C146 1.300 . S
O101 C146 1.209 . S
O102 C147 1.199 . S
O103 H75 0.854 . S
O103 C147 1.297 . S
C104 C105 1.404 . S
C104 C109 1.397 . S
C104 C110 1.492 . S
C105 C104 1.404 . S
C105 C106 1.396 . S
C105 C116 1.492 . S
C106 C105 1.396 . S
C106 C107 1.397 . S
C106 C122 1.509 . S
C107 C106 1.397 . S
C107 C108 1.412 . S
C107 C128 1.485 . S
C108 C107 1.412 . S
C108 C109 1.388 . S
C108 C134 1.490 . S
C109 C104 1.397 . S
C109 C108 1.388 . S
C109 C140 1.519 . S
C110 C104 1.492 . S
C110 C111 1.363 . S
C110 C115 1.390 . S
C111 H76 0.930 1_455 S
C111 C110 1.363 . S
C111 C112 1.371 1_455 S
C112 H77 0.937 . S
C112 C111 1.371 1_655 S
C112 C113 1.377 1_655 S
C113 C112 1.377 1_455 S
C113 C114 1.395 . S
C114 H78 0.930 . S
C114 C113 1.395 . S
C114 C115 1.362 . S
C115 H79 0.930 . S
C115 C110 1.390 . S
C115 C114 1.362 . S
C116 C105 1.492 . S
C116 C117 1.377 . S
C116 C121 1.397 . S
C117 H80 0.929 1_455 S
C117 C116 1.377 . S
C117 C118 1.376 . S
C118 H81 0.930 . S
C118 C117 1.376 . S
C118 C119 1.376 . S
C119 C118 1.376 . S
C119 C120 1.378 . S
C119 C146 1.486 . S
C120 H82 0.930 . S
C120 C119 1.378 . S
C120 C121 1.376 . S
C121 H83 0.929 . S
C121 C116 1.397 . S
C121 C120 1.376 . S
C122 C106 1.509 . S
C122 C123 1.391 . S
C122 C127 1.386 . S
C123 H84 0.930 1_455 S
C123 C122 1.391 . S
C123 C124 1.375 . S
C124 H85 0.931 . S
C124 C123 1.375 . S
C124 C125 1.375 . S
C125 C124 1.375 . S
C125 C126 1.361 . S
C126 H86 0.930 . S
C126 C125 1.361 . S
C126 C127 1.399 . S
C127 H87 0.929 . S
C127 C122 1.386 . S
C127 C126 1.399 . S
C128 C107 1.485 . S
C128 C129 1.394 . S
C128 C133 1.360 . S
C129 H88 0.931 1_455 S
C129 C128 1.394 . S
C129 C130 1.372 . S
C130 H89 0.923 1_455 S
C130 C129 1.372 . S
C130 C131 1.397 . S
C131 C130 1.397 . S
C131 C132 1.390 . S
C131 C147 1.476 . S
C132 H90 0.930 . S
C132 C131 1.390 . S
C132 C133 1.366 . S
C133 H91 0.932 . S
C133 C128 1.360 . S
C133 C132 1.366 . S
C134 C108 1.490 . S
C134 C135 1.380 . S
C134 C139 1.386 . S
C135 H92 0.930 1_455 S
C135 C134 1.380 . S
C135 C136 1.381 . S
C136 H93 0.929 1_455 S
C136 C135 1.381 . S
C136 C137 1.371 . S
C137 C136 1.371 . S
C137 C138 1.380 . S
C138 H94 0.931 . S
C138 C137 1.380 . S
C138 C139 1.387 . S
C139 H95 0.930 . S
C139 C134 1.386 . S
C139 C138 1.387 . S
C140 C109 1.519 . S
C140 C141 1.377 . S
C140 C145 1.361 . S
C141 H96 0.929 1_455 S
C141 C140 1.377 . S
C141 C142 1.386 . S
C142 H97 0.931 1_455 S
C142 C141 1.386 . S
C142 C143 1.363 . S
C143 C142 1.363 . S
C143 C144 1.385 . S
C144 H98 0.930 . S
C144 C143 1.385 . S
C144 C145 1.396 . S
C145 H99 0.929 . S
C145 C140 1.361 . S
C145 C144 1.396 . S
C146 O100 1.300 . S
C146 O101 1.209 . S
C146 C119 1.486 . S
C147 O102 1.199 . S
C147 O103 1.297 . S
C147 C131 1.476 . S
O148 Cd149 2.223 . S
O148 C156 1.315 1_455 S
Cd149 O148 2.223 . S
Cd149 O152 2.297 1_545 S
Cd149 O153 2.439 . S
Cd149 O159 2.240 . S
Cd150 O151 2.240 1_455 S
Cd150 O158 2.223 . S
Cd150 O160 2.297 . S
Cd150 O161 2.439 . S
O151 Cd150 2.240 1_655 S
O151 C156 1.279 . S
O152 Cd149 2.297 1_565 S
O152 C154 1.247 . S
O153 Cd149 2.439 . S
O153 C154 1.208 1_545 S
C154 O152 1.247 . S
C154 O153 1.208 1_565 S
C155 O160 1.247 . S
C155 O161 1.208 . S
C156 O148 1.315 1_655 S
C156 O151 1.279 . S
C157 O158 1.315 . S
C157 O159 1.279 . S
O158 Cd150 2.223 . S
O158 C157 1.315 . S
O159 Cd149 2.240 . S
O159 C157 1.279 . S
O160 Cd150 2.297 . S
O160 C155 1.247 . S
O161 Cd150 2.439 . S
O161 C155 1.208 . S
O162 Cd163 2.223 . S
O162 C170 1.315 1_455 S
Cd163 O162 2.223 . S
Cd163 O166 2.297 . S
Cd163 O167 2.439 . S
Cd163 O173 2.240 . S
Cd164 O165 2.240 1_465 S
Cd164 O172 2.223 . S
Cd164 O174 2.297 . S
Cd164 O175 2.439 . S
O165 Cd164 2.240 1_645 S
O165 C170 1.279 . S
O166 Cd163 2.297 . S
O166 C168 1.247 . S
O167 Cd163 2.439 . S
O167 C168 1.208 . S
C168 O166 1.247 . S
C168 O167 1.208 . S
C169 O174 1.247 . S
C169 O175 1.208 . S
C170 O162 1.315 1_655 S
C170 O165 1.279 . S
C171 O172 1.315 1_545 S
C171 O173 1.279 . S
O172 Cd164 2.223 . S
O172 C171 1.315 1_565 S
O173 Cd163 2.240 . S
O173 C171 1.279 . S
O174 Cd164 2.297 . S
O174 C169 1.247 . S
O175 Cd164 2.439 . S
O175 C169 1.208 . S
H176 C188 0.930 . S
H177 C190 0.930 . S
H178 C191 0.930 . S
H179 C195 0.959 . S
H180 C195 0.959 1_565 S
H181 C195 0.961 1_565 S
H182 C196 0.960 . S
H183 C196 0.961 . S
H184 C196 0.959 . S
H185 C199 0.929 . S
H186 C200 0.931 . S
H187 C202 0.930 . S
C188 H176 0.930 . S
C188 C189 1.399 . S
C188 C193 1.399 . S
C189 C188 1.399 . S
C189 C190 1.376 . S
C190 H177 0.930 . S
C190 C189 1.376 . S
C190 C191 1.388 . S
C191 H178 0.930 . S
C191 C190 1.388 . S
C191 C192 1.390 . S
C192 C191 1.390 . S
C192 C193 1.394 . S
C192 C198 1.465 . S
C193 C188 1.399 . S
C193 C192 1.394 . S
C193 C194 1.516 . S
C194 C193 1.516 . S
C194 C195 1.502 . S
C194 C196 1.561 1_545 S
C194 C197 1.526 . S
C195 H179 0.959 . S
C195 H180 0.959 1_545 S
C195 H181 0.961 1_545 S
C195 C194 1.502 . S
C196 H182 0.960 . S
C196 H183 0.961 . S
C196 H184 0.959 . S
C196 C194 1.561 1_565 S
C197 C194 1.526 . S
C197 C198 1.396 . S
C197 C202 1.390 . S
C198 C192 1.465 . S
C198 C197 1.396 . S
C198 C199 1.399 . S
C199 H185 0.929 . S
C199 C198 1.399 . S
C199 C200 1.385 . S
C200 H186 0.931 . S
C200 C199 1.385 . S
C200 C201 1.389 . S
C201 C200 1.389 . S
C201 C202 1.387 . S
C202 H187 0.930 . S
C202 C197 1.390 . S
C202 C201 1.387 . S
H203 C215 0.930 . S
H204 C217 0.930 . S
H205 C218 0.930 . S
H206 C222 0.959 . S
H207 C222 0.959 . S
H208 C222 0.961 . S
H209 C223 0.960 . S
H210 C223 0.961 . S
H211 C223 0.959 . S
H212 C226 0.929 . S
H213 C227 0.931 . S
H214 C229 0.930 . S
C215 H203 0.930 . S
C215 C216 1.399 . S
C215 C220 1.399 . S
C216 C215 1.399 . S
C216 C217 1.376 . S
C217 H204 0.930 . S
C217 C216 1.376 . S
C217 C218 1.388 . S
C218 H205 0.930 . S
C218 C217 1.388 . S
C218 C219 1.390 . S
C219 C218 1.390 . S
C219 C220 1.394 . S
C219 C225 1.465 . S
C220 C215 1.399 . S
C220 C219 1.394 . S
C220 C221 1.516 . S
C221 C220 1.516 . S
C221 C222 1.502 1_455 S
C221 C223 1.561 . S
C221 C224 1.526 . S
C222 H206 0.959 . S
C222 H207 0.959 . S
C222 H208 0.961 . S
C222 C221 1.502 1_655 S
C223 H209 0.960 . S
C223 H210 0.961 . S
C223 H211 0.959 . S
C223 C221 1.561 . S
C224 C221 1.526 . S
C224 C225 1.396 . S
C224 C229 1.390 . S
C225 C219 1.465 . S
C225 C224 1.396 . S
C225 C226 1.399 . S
C226 H212 0.929 . S
C226 C225 1.399 . S
C226 C227 1.385 . S
C227 H213 0.931 . S
C227 C226 1.385 . S
C227 C228 1.389 . S
C228 C227 1.389 . S
C228 C229 1.387 . S
C229 H214 0.930 . S
C229 C224 1.390 . S
C229 C228 1.387 . S
H230 C242 0.930 . S
H231 C244 0.930 . S
H232 C245 0.930 1_565 S
H233 C249 0.959 . S
H234 C249 0.959 . S
H235 C249 0.961 . S
H236 C250 0.960 . S
H237 C250 0.961 . S
H238 C250 0.959 . S
H239 C253 0.942 . S
H240 C254 0.920 1_565 S
H241 C256 0.930 . S
C242 H230 0.930 . S
C242 C243 1.399 . S
C242 C247 1.399 . S
C243 C242 1.399 . S
C243 C244 1.376 . S
C244 H231 0.930 . S
C244 C243 1.376 . S
C244 C245 1.388 . S
C245 H232 0.930 1_545 S
C245 C244 1.388 . S
C245 C246 1.390 . S
C246 C245 1.390 . S
C246 C247 1.394 . S
C246 C252 1.465 . S
C247 C242 1.399 . S
C247 C246 1.394 . S
C247 C248 1.516 . S
C248 C247 1.516 . S
C248 C249 1.502 . S
C248 C250 1.561 . S
C248 C251 1.526 . S
C249 H233 0.959 . S
C249 H234 0.959 . S
C249 H235 0.961 . S
C249 C248 1.502 . S
C250 H236 0.960 . S
C250 H237 0.961 . S
C250 H238 0.959 . S
C250 C248 1.561 . S
C251 C248 1.526 . S
C251 C252 1.396 . S
C251 C256 1.390 . S
C252 C246 1.465 . S
C252 C251 1.396 . S
C252 C253 1.386 1_545 S
C253 H239 0.942 . S
C253 C252 1.386 1_565 S
C253 C254 1.385 1_565 S
C254 H240 0.920 1_545 S
C254 C253 1.385 1_545 S
C254 C255 1.400 . S
C255 C254 1.400 . S
C255 C256 1.387 . S
C256 H241 0.930 . S
C256 C251 1.390 . S
C256 C255 1.387 . S
H257 C269 0.930 . S
H258 C271 0.930 . S
H259 C272 0.930 . S
H260 C276 0.959 . S
H261 C276 0.959 . S
H262 C276 0.961 . S
H263 C277 0.960 . S
H264 C277 0.961 . S
H265 C277 0.959 . S
H266 C280 0.929 . S
H267 C281 0.931 . S
H268 C283 0.930 . S
C269 H257 0.930 . S
C269 C270 1.399 . S
C269 C274 1.399 . S
C270 C269 1.399 . S
C270 C271 1.376 . S
C271 H258 0.930 . S
C271 C270 1.376 . S
C271 C272 1.388 . S
C272 H259 0.930 . S
C272 C271 1.388 . S
C272 C273 1.390 . S
C273 C272 1.390 . S
C273 C274 1.394 . S
C273 C279 1.465 . S
C274 C269 1.399 . S
C274 C273 1.394 . S
C274 C275 1.516 . S
C275 C274 1.516 . S
C275 C276 1.502 1_455 S
C275 C277 1.561 . S
C275 C278 1.526 . S
C276 H260 0.959 . S
C276 H261 0.959 . S
C276 H262 0.961 . S
C276 C275 1.502 1_655 S
C277 H263 0.960 . S
C277 H264 0.961 . S
C277 H265 0.959 . S
C277 C275 1.561 . S
C278 C275 1.526 . S
C278 C279 1.396 . S
C278 C283 1.390 . S
C279 C273 1.465 . S
C279 C278 1.396 . S
C279 C280 1.399 . S
C280 H266 0.929 . S
C280 C279 1.399 . S
C280 C281 1.385 . S
C281 H267 0.931 . S
C281 C280 1.385 . S
C281 C282 1.389 . S
C282 C281 1.389 . S
C282 C283 1.387 . S
C283 H268 0.930 . S
C283 C278 1.390 . S
C283 C282 1.387 . S
H284 C296 0.930 . S
H285 C298 0.930 . S
H286 C299 0.930 1_565 S
H287 C303 0.959 . S
H288 C303 0.959 . S
H289 C303 0.961 . S
H290 C304 0.960 . S
H291 C304 0.961 . S
H292 C304 0.959 . S
H293 C307 0.929 . S
H294 C308 0.931 . S
H295 C310 0.930 . S
C296 H284 0.930 . S
C296 C297 1.399 . S
C296 C301 1.399 . S
C297 C296 1.399 . S
C297 C298 1.376 . S
C298 H285 0.930 . S
C298 C297 1.376 . S
C298 C299 1.388 . S
C299 H286 0.930 1_545 S
C299 C298 1.388 . S
C299 C300 1.390 . S
C300 C299 1.390 . S
C300 C301 1.394 . S
C300 C306 1.465 . S
C301 C296 1.399 . S
C301 C300 1.394 . S
C301 C302 1.516 . S
C302 C301 1.516 . S
C302 C303 1.502 . S
C302 C304 1.561 . S
C302 C305 1.526 . S
C303 H287 0.959 . S
C303 H288 0.959 . S
C303 H289 0.961 . S
C303 C302 1.502 . S
C304 H290 0.960 . S
C304 H291 0.961 . S
C304 H292 0.959 . S
C304 C302 1.561 . S
C305 C302 1.526 . S
C305 C306 1.396 . S
C305 C310 1.390 . S
C306 C300 1.465 . S
C306 C305 1.396 . S
C306 C307 1.399 1_545 S
C307 H293 0.929 . S
C307 C306 1.399 1_565 S
C307 C308 1.385 . S
C308 H294 0.931 . S
C308 C307 1.385 . S
C308 C309 1.389 1_565 S
C309 C308 1.389 1_545 S
C309 C310 1.387 . S
C310 H295 0.930 . S
C310 C305 1.390 . S
C310 C309 1.387 . S
H311 C323 0.930 . S
H312 C325 0.930 . S
H313 C326 0.930 . S
H314 C330 0.959 . S
H315 C330 0.959 . S
H316 C330 0.961 . S
H317 C331 0.960 . S
H318 C331 0.961 . S
H319 C331 0.959 . S
H320 C334 0.929 . S
H321 C335 0.931 . S
H322 C337 0.930 . S
C323 H311 0.930 . S
C323 C324 1.399 . S
C323 C328 1.399 . S
C324 C323 1.399 . S
C324 C325 1.376 . S
C325 H312 0.930 . S
C325 C324 1.376 . S
C325 C326 1.388 . S
C326 H313 0.930 . S
C326 C325 1.388 . S
C326 C327 1.390 . S
C327 C326 1.390 . S
C327 C328 1.394 . S
C327 C333 1.465 . S
C328 C323 1.399 . S
C328 C327 1.394 . S
C328 C329 1.516 . S
C329 C328 1.516 . S
C329 C330 1.502 1_455 S
C329 C331 1.561 . S
C329 C332 1.526 . S
C330 H314 0.959 . S
C330 H315 0.959 . S
C330 H316 0.961 . S
C330 C329 1.502 1_655 S
C331 H317 0.960 . S
C331 H318 0.961 . S
C331 H319 0.959 . S
C331 C329 1.561 . S
C332 C329 1.526 . S
C332 C333 1.396 . S
C332 C337 1.390 . S
C333 C327 1.465 . S
C333 C332 1.396 . S
C333 C334 1.399 . S
C334 H320 0.929 . S
C334 C333 1.399 . S
C334 C335 1.385 . S
C335 H321 0.931 . S
C335 C334 1.385 . S
C335 C336 1.389 . S
C336 C335 1.389 . S
C336 C337 1.387 . S
C337 H322 0.930 . S
C337 C332 1.390 . S
C337 C336 1.387 . S
H338 C350 0.930 . S
H339 C352 0.930 . S
H340 C353 0.930 . S
H341 C357 0.959 . S
H342 C357 0.959 . S
H343 C357 0.961 . S
H344 C358 0.960 . S
H345 C358 0.961 . S
H346 C358 0.959 . S
H347 C361 0.929 . S
H348 C362 0.931 1_565 S
H349 C364 0.930 . S
C350 H338 0.930 . S
C350 C351 1.399 . S
C350 C355 1.399 . S
C351 C350 1.399 . S
C351 C352 1.376 1_545 S
C352 H339 0.930 . S
C352 C351 1.376 1_565 S
C352 C353 1.388 . S
C353 H340 0.930 . S
C353 C352 1.388 . S
C353 C354 1.390 1_565 S
C354 C353 1.390 1_545 S
C354 C355 1.394 . S
C354 C360 1.465 . S
C355 C350 1.399 . S
C355 C354 1.394 . S
C355 C356 1.516 . S
C356 C355 1.516 . S
C356 C357 1.502 . S
C356 C358 1.561 . S
C356 C359 1.526 . S
C357 H341 0.959 . S
C357 H342 0.959 . S
C357 H343 0.961 . S
C357 C356 1.502 . S
C358 H344 0.960 . S
C358 H345 0.961 . S
C358 H346 0.959 . S
C358 C356 1.561 . S
C359 C356 1.526 . S
C359 C360 1.396 . S
C359 C364 1.390 . S
C360 C354 1.465 . S
C360 C359 1.396 . S
C360 C361 1.399 1_545 S
C361 H347 0.929 . S
C361 C360 1.399 1_565 S
C361 C362 1.385 1_565 S
C362 H348 0.931 1_545 S
C362 C361 1.385 1_545 S
C362 C363 1.389 . S
C363 C362 1.389 . S
C363 C364 1.387 . S
C364 H349 0.930 . S
C364 C359 1.390 . S
C364 C363 1.387 . S
H365 C377 0.930 . S
H366 C379 0.930 . S
H367 C380 0.930 1_655 S
H368 C384 0.959 . S
H369 C384 0.959 . S
H370 C384 0.961 . S
H371 C385 0.960 . S
H372 C385 0.961 . S
H373 C385 0.959 . S
H374 C388 0.929 . S
H375 C389 0.931 . S
H376 C391 0.930 . S
C377 H365 0.930 . S
C377 C378 1.399 . S
C377 C382 1.399 . S
C378 C377 1.399 . S
C378 C379 1.376 . S
C379 H366 0.930 . S
C379 C378 1.376 . S
C379 C380 1.388 . S
C380 H367 0.930 1_455 S
C380 C379 1.388 . S
C380 C381 1.390 . S
C381 C380 1.390 . S
C381 C382 1.394 . S
C381 C387 1.465 . S
C382 C377 1.399 . S
C382 C381 1.394 . S
C382 C383 1.516 . S
C383 C382 1.516 . S
C383 C384 1.502 . S
C383 C385 1.561 . S
C383 C386 1.526 . S
C384 H368 0.959 . S
C384 H369 0.959 . S
C384 H370 0.961 . S
C384 C383 1.502 . S
C385 H371 0.960 . S
C385 H372 0.961 . S
C385 H373 0.959 . S
C385 C383 1.561 . S
C386 C383 1.526 . S
C386 C387 1.396 . S
C386 C391 1.390 . S
C387 C381 1.465 . S
C387 C386 1.396 . S
C387 C388 1.399 1_455 S
C388 H374 0.929 . S
C388 C387 1.399 1_655 S
C388 C389 1.385 . S
C389 H375 0.931 . S
C389 C388 1.385 . S
C389 C390 1.389 1_655 S
C390 C389 1.389 1_455 S
C390 C391 1.387 . S
C391 H376 0.930 . S
C391 C386 1.390 . S
C391 C390 1.387 . S
C201 C157 2.192 . S
C189 C69 2.175 . S
C228 C168 2.190 . S
C216 C143 2.299 . S
C255 C156 1.661 . S
C243 C63 1.533 . S
C282 C169 1.628 . S
C270 C137 1.502 . S
C309 C171 1.682 . S
C297 C39 1.505 . S
C336 C155 1.523 . S
C324 C113 1.482 . S
C363 C170 0.895 . S
C351 C51 0.910 . S
C378 C125 0.937 . S
C390 C154 0.970 . S
