# Generated by pormake.
# Topology pyr, (3,6)-cn, num edge types: 1
# Building blocks:
#     Node 0, Type 0, BuildingBlock: ESEHIV_clean_linker_0, # of connection points: 3
#     Node 1, Type 0, BuildingBlock: ESEHIV_clean_linker_0, # of connection points: 3
#     Node 2, Type 0, BuildingBlock: ESEHIV_clean_linker_0, # of connection points: 3
#     Node 3, Type 0, BuildingBlock: ESEHIV_clean_linker_0, # of connection points: 3
#     Node 4, Type 0, BuildingBlock: ESEHIV_clean_linker_0, # of connection points: 3
#     Node 5, Type 0, BuildingBlock: ESEHIV_clean_linker_0, # of connection points: 3
#     Node 6, Type 0, BuildingBlock: ESEHIV_clean_linker_0, # of connection points: 3
#     Node 7, Type 0, BuildingBlock: ESEHIV_clean_linker_0, # of connection points: 3
#     Node 8, Type 1, BuildingBlock: JUFBIX_clean_sbu_0, # of connection points: 6
#     Node 9, Type 1, BuildingBlock: JUFBIX_clean_sbu_0, # of connection points: 6
#     Node 10, Type 1, BuildingBlock: JUFBIX_clean_sbu_0, # of connection points: 6
#     Node 11, Type 1, BuildingBlock: JUFBIX_clean_sbu_0, # of connection points: 6
#     Edge 12, Type (0, 1), BuildingBlock: XUDNAN_clean_linker_2, # of connection points: 2
#     Edge 13, Type (0, 1), BuildingBlock: XUDNAN_clean_linker_2, # of connection points: 2
#     Edge 14, Type (0, 1), BuildingBlock: XUDNAN_clean_linker_2, # of connection points: 2
#     Edge 15, Type (0, 1), BuildingBlock: XUDNAN_clean_linker_2, # of connection points: 2
#     Edge 16, Type (0, 1), BuildingBlock: XUDNAN_clean_linker_2, # of connection points: 2
#     Edge 17, Type (0, 1), BuildingBlock: XUDNAN_clean_linker_2, # of connection points: 2
#     Edge 18, Type (0, 1), BuildingBlock: XUDNAN_clean_linker_2, # of connection points: 2
#     Edge 19, Type (0, 1), BuildingBlock: XUDNAN_clean_linker_2, # of connection points: 2
#     Edge 20, Type (0, 1), BuildingBlock: XUDNAN_clean_linker_2, # of connection points: 2
#     Edge 21, Type (0, 1), BuildingBlock: XUDNAN_clean_linker_2, # of connection points: 2
#     Edge 22, Type (0, 1), BuildingBlock: XUDNAN_clean_linker_2, # of connection points: 2
#     Edge 23, Type (0, 1), BuildingBlock: XUDNAN_clean_linker_2, # of connection points: 2
#     Edge 24, Type (0, 1), BuildingBlock: XUDNAN_clean_linker_2, # of connection points: 2
#     Edge 25, Type (0, 1), BuildingBlock: XUDNAN_clean_linker_2, # of connection points: 2
#     Edge 26, Type (0, 1), BuildingBlock: XUDNAN_clean_linker_2, # of connection points: 2
#     Edge 27, Type (0, 1), BuildingBlock: XUDNAN_clean_linker_2, # of connection points: 2
#     Edge 28, Type (0, 1), BuildingBlock: XUDNAN_clean_linker_2, # of connection points: 2
#     Edge 29, Type (0, 1), BuildingBlock: XUDNAN_clean_linker_2, # of connection points: 2
#     Edge 30, Type (0, 1), BuildingBlock: XUDNAN_clean_linker_2, # of connection points: 2
#     Edge 31, Type (0, 1), BuildingBlock: XUDNAN_clean_linker_2, # of connection points: 2
#     Edge 32, Type (0, 1), BuildingBlock: XUDNAN_clean_linker_2, # of connection points: 2
#     Edge 33, Type (0, 1), BuildingBlock: XUDNAN_clean_linker_2, # of connection points: 2
#     Edge 34, Type (0, 1), BuildingBlock: XUDNAN_clean_linker_2, # of connection points: 2
#     Edge 35, Type (0, 1), BuildingBlock: XUDNAN_clean_linker_2, # of connection points: 2
# Relax obj value: 0.067
# Max RMSD: 0.101
# Mean RMSD: 0.035
data_MOF--net-pry--node1-JUFBIX_clean_sbu_0--node2-ESEHIV_clean_linker_0--edge1-XUDNAN_clean_linker_2
_symmetry_space_group_name_H-M    P1
_symmetry_Int_Tables_number       1
_symmetry_cell_setting            triclinic
loop_
_symmetry_equiv_pos_as_xyz
'x, y, z'
_cell_length_a     35.12715
_cell_length_b     33.393488
_cell_length_c     35.188756
_cell_angle_alpha  81.858613
_cell_angle_beta   89.627965
_cell_angle_gamma 91.861003
loop_
_atom_site_label
_atom_site_type_symbol
_atom_site_fract_x
_atom_site_fract_y
_atom_site_fract_z
_atom_type_partial_charge
H0 H 0.15276 0.18374 0.21903 0.0
H1 H 0.24144 0.09664 0.22147 0.0
H2 H 0.22742 0.18415 0.12149 0.0
C3 C 0.17653 0.17135 0.20538 0.0
C4 C 0.1872 0.18785 0.16746 0.0
C5 C 0.19615 0.13868 0.22564 0.0
C6 C 0.2269 0.12254 0.20705 0.0
C7 C 0.23769 0.13828 0.16908 0.0
C8 C 0.2182 0.17131 0.15022 0.0
H9 H 0.44519 0.96314 0.65515 0.0
H10 H 0.51283 0.86567 0.62799 0.0
H11 H 0.40385 0.88671 0.57572 0.0
C12 C 0.45062 0.93969 0.63765 0.0
C13 C 0.42148 0.92861 0.61377 0.0
C14 C 0.48355 0.91683 0.64372 0.0
C15 C 0.4885 0.88467 0.62244 0.0
C16 C 0.45958 0.87328 0.59831 0.0
C17 C 0.427 0.89664 0.59276 0.0
H18 H 0.72717 0.31711 0.92 0.0
H19 H 0.74768 0.42744 0.84158 0.0
H20 H 0.64948 0.35062 0.82851 0.0
C21 C 0.71892 0.33826 0.89548 0.0
C22 C 0.68586 0.32948 0.87546 0.0
C23 C 0.74186 0.37344 0.88354 0.0
C24 C 0.73029 0.40057 0.85144 0.0
C25 C 0.69667 0.39282 0.83154 0.0
C26 C 0.67491 0.35726 0.844 0.0
H27 H 0.91484 0.65728 0.47989 0.0
H28 H 1.02322 0.643 0.42588 0.0
H29 H 0.92765 0.56539 0.40744 0.0
C30 C 0.93303 0.64044 0.46333 0.0
C31 C 0.91694 0.60933 0.44505 0.0
C32 C 0.97181 0.65219 0.45744 0.0
C33 C 0.99436 0.63205 0.43334 0.0
C34 C 0.97835 0.6007 0.41546 0.0
C35 C 0.94027 0.58848 0.42275 0.0
H36 H 0.81151 0.90718 0.84035 0.0
H37 H 0.90036 0.82028 0.84491 0.0
H38 H 0.82629 0.82279 0.94244 0.0
C39 C 0.82615 0.8817 0.85542 0.0
C40 C 0.81564 0.86718 0.8937 0.0
C41 C 0.85677 0.86498 0.83731 0.0
C42 C 0.87662 0.83301 0.85831 0.0
C43 C 0.86628 0.81767 0.89657 0.0
C44 C 0.83533 0.83475 0.91344 0.0
H45 H 0.55263 0.19088 0.4013 0.0
H46 H 0.64613 0.11421 0.38989 0.0
H47 H 0.65423 0.20362 0.4669 0.0
C48 C 0.58072 0.18094 0.41013 0.0
C49 C 0.60152 0.20078 0.43631 0.0
C50 C 0.59668 0.14923 0.39419 0.0
C51 C 0.63353 0.13739 0.40414 0.0
C52 C 0.65492 0.15695 0.4301 0.0
C53 C 0.63847 0.18856 0.44632 0.0
H54 H 0.33901 0.69238 0.13621 0.0
H55 H 0.30087 0.60688 0.23373 0.0
H56 H 0.39991 0.68333 0.24192 0.0
C57 C 0.34148 0.67935 0.16597 0.0
C58 C 0.3725 0.69196 0.18697 0.0
C59 C 0.31415 0.64983 0.18267 0.0
C60 C 0.32063 0.63027 0.22039 0.0
C61 C 0.35283 0.6408 0.24116 0.0
C62 C 0.37721 0.67287 0.22473 0.0
H63 H 0.03108 0.34782 0.66381 0.0
H64 H 0.12371 0.31803 0.59294 0.0
H65 H 0.13617 0.41686 0.65856 0.0
C66 C 0.05962 0.35377 0.65201 0.0
C67 C 0.08165 0.38604 0.6625 0.0
C68 C 0.07453 0.32912 0.62663 0.0
C69 C 0.11182 0.33733 0.61193 0.0
C70 C 0.13449 0.36904 0.62302 0.0
C71 C 0.11883 0.39334 0.64818 0.0
Co72 Co 1.00122 1.00341 0.51218 0.0
C73 C 0.0309 0.92607 0.51611 0.0
Co74 Co 0.05104 0.99276 0.54951 0.0
C75 C 0.93107 0.0363 0.48483 0.0
C76 C 0.94917 0.99258 0.45022 0.0
N77 N 0.9592 0.01068 0.48082 0.0
N78 N 0.90417 0.03524 0.45801 0.0
C79 C 0.91501 0.00753 0.43623 0.0
H80 H 0.92988 0.0552 0.50736 0.0
H81 H 0.96561 0.97013 0.43872 0.0
C82 C 1.02083 0.06922 0.54706 0.0
N83 N 0.09166 0.98685 0.58281 0.0
C84 C 0.12783 0.9754 0.57869 0.0
C85 C 0.08986 0.99684 0.61857 0.0
N86 N 0.14849 0.97786 0.61071 0.0
C87 C 0.12447 0.9915 0.63562 0.0
C88 C 0.07056 0.02481 0.4735 0.0
O89 O 0.99819 0.05752 0.52279 0.0
O90 O 0.04576 0.04562 0.56203 0.0
O91 O 0.08427 0.01394 0.50678 0.0
O92 O 0.0346 0.02201 0.46926 0.0
O93 O 0.05598 0.93958 0.5374 0.0
H94 H 0.06508 0.00843 0.6312 0.0
H95 H 0.13871 0.96581 0.55271 0.0
O96 O 1.00472 0.9491 0.50227 0.0
O97 O 0.96782 0.98489 0.55528 0.0
O98 O 1.01739 0.97162 0.59146 0.0
C99 C 0.98144 0.97161 0.5879 0.0
H100 H 0.89979 0.99939 0.41163 0.0
H101 H 0.13155 0.99856 0.66385 0.0
Co102 Co 0.51401 1.00081 1.00061 0.0
C103 C 0.50728 0.9412 0.06455 0.0
Co104 Co 0.54108 0.01787 0.05232 0.0
C105 C 0.50877 0.98584 0.92287 0.0
C106 C 0.45842 0.96457 0.95524 0.0
N107 N 0.49182 0.98516 0.95749 0.0
N108 N 0.4876 0.96593 0.89945 0.0
C109 C 0.45599 0.95223 0.91958 0.0
H110 H 0.53735 0.99796 0.91596 0.0
H111 H 0.4384 0.95674 0.97882 0.0
C112 C 0.54827 0.07732 0.98795 0.0
N113 N 0.56401 0.0338 0.09482 0.0
C114 C 0.54914 0.03292 0.13038 0.0
C115 C 0.59791 0.05388 0.09534 0.0
N116 N 0.57217 0.05236 0.15273 0.0
C117 C 0.60289 0.06557 0.13091 0.0
C118 C 0.5907 0.9802 1.00726 0.0
O119 O 0.52979 0.05119 0.97181 0.0
O120 O 0.55526 0.06938 1.02355 0.0
O121 O 0.58818 0.9967 0.03757 0.0
O122 O 0.56116 0.97794 0.98691 0.0
O123 O 0.52717 0.96631 0.08073 0.0
H124 H 0.61698 0.06111 0.07089 0.0
H125 H 0.52109 0.02035 0.13903 0.0
O126 O 0.49824 0.95037 0.02959 0.0
O127 O 0.46713 0.02355 1.01464 0.0
O128 O 0.49354 0.03887 0.06713 0.0
C129 C 0.46425 0.03803 0.04614 0.0
H130 H 0.43382 0.93291 0.90989 0.0
H131 H 0.62672 0.08329 0.13981 0.0
Co132 Co 0.54363 0.53772 0.52388 0.0
C133 C 0.47391 0.53745 0.4855 0.0
Co134 Co 0.49544 0.51156 0.56047 0.0
C135 C 0.62034 0.5536 0.49227 0.0
C136 C 0.57889 0.59239 0.46355 0.0
N137 N 0.58284 0.56145 0.49225 0.0
N138 N 0.63958 0.57816 0.46436 0.0
C139 C 0.61361 0.60249 0.44621 0.0
H140 H 0.63319 0.53015 0.51201 0.0
H141 H 0.55245 0.60702 0.45587 0.0
C142 C 0.56509 0.51159 0.5988 0.0
N143 N 0.45565 0.4891 0.59151 0.0
C144 C 0.42799 0.46331 0.58236 0.0
C145 C 0.44521 0.49857 0.62603 0.0
N146 N 0.4005 0.45687 0.60949 0.0
C147 C 0.41091 0.47909 0.63696 0.0
C148 C 0.53241 0.45532 0.52432 0.0
O149 O 0.57752 0.52871 0.56628 0.0
O150 O 0.52983 0.50163 0.60261 0.0
O151 O 0.5053 0.46078 0.54681 0.0
O152 O 0.55419 0.48526 0.51071 0.0
O153 O 0.46113 0.52167 0.51825 0.0
H154 H 0.46058 0.51981 0.64131 0.0
H155 H 0.42675 0.45157 0.55522 0.0
O156 O 0.50931 0.5462 0.48171 0.0
O157 O 0.53249 0.59 0.53702 0.0
O158 O 0.48531 0.56243 0.57362 0.0
C159 C 0.50464 0.59369 0.55935 0.0
H160 H 0.61951 0.62633 0.42248 0.0
H161 H 0.39419 0.48216 0.66228 0.0
Co162 Co 0.04356 0.50887 1.00364 0.0
C163 C 0.97246 0.46963 1.00774 0.0
Co164 Co 1.01772 0.50244 0.06167 0.0
C165 C 0.05866 0.49326 0.92606 0.0
C166 C 0.08842 0.54633 0.9395 0.0
N167 N 0.06594 0.51465 0.95519 0.0
N168 N 0.07506 0.51083 0.89279 0.0
C169 C 0.09409 0.54404 0.90125 0.0
H170 H 0.03965 0.46684 0.92852 0.0
H171 H 0.09828 0.57091 0.95429 0.0
C172 C 0.0888 0.54187 0.05748 0.0
N173 N 0.99492 0.49856 0.10963 0.0
C174 C 1.01198 0.49859 0.14393 0.0
C175 C 0.95758 0.50267 0.11675 0.0
N176 N 0.98689 0.50361 0.17183 0.0
C177 C 0.9526 0.506 0.15492 0.0
C178 C 0.06218 0.43756 0.05173 0.0
O179 O 0.08692 0.5363 1.02257 0.0
O180 O 0.06124 0.52958 0.08003 0.0
O181 O 0.04123 0.45183 0.07589 0.0
O182 O 0.06694 0.45745 1.01815 0.0
O183 O 0.97419 0.47479 0.04282 0.0
H184 H 0.93577 0.50604 0.09508 0.0
H185 H 0.04253 0.49845 0.1478 0.0
O186 O 1.00012 0.48196 0.98531 0.0
O187 O 1.01983 0.55943 0.98954 0.0
O188 O 0.9944 0.55378 0.04707 0.0
C189 C 0.99886 0.57362 1.01359 0.0
H190 H 0.10988 0.5659 0.88095 0.0
H191 H 0.92622 0.51227 0.16869 0.0
H192 H 0.12301 0.12369 0.25626 0.0
H193 H 0.24215 0.11315 0.28668 0.0
H194 H 0.22327 0.08323 0.3526 0.0
H195 H 0.09002 0.15046 0.34699 0.0
H196 H 0.04569 0.12174 0.34691 0.0
H197 H 0.06855 0.14254 0.30214 0.0
H198 H 0.06829 0.07117 0.2814 0.0
H199 H 0.04551 0.05015 0.32613 0.0
H200 H 0.08971 0.03028 0.31199 0.0
H201 H 0.19122 0.05459 0.41615 0.0
H202 H 0.14885 0.02866 0.4711 0.0
H203 H 0.0503 0.05716 0.39978 0.0
C204 C 0.1452 0.11548 0.27682 0.0
C205 C 0.18425 0.12093 0.26589 0.0
C206 C 0.21213 0.10899 0.29387 0.0
C207 C 0.20165 0.09212 0.33159 0.0
C208 C 0.16304 0.08709 0.34129 0.0
C209 C 0.13522 0.09836 0.31467 0.0
C210 C 0.09571 0.08921 0.33239 0.0
C211 C 0.0737 0.12832 0.33209 0.0
C212 C 0.0735 0.05836 0.31174 0.0
C213 C 0.10561 0.07107 0.3731 0.0
C214 C 0.14463 0.07025 0.37767 0.0
C215 C 0.16063 0.05508 0.41279 0.0
C216 C 0.13626 0.04039 0.44395 0.0
C217 C 0.09609 0.04066 0.44006 0.0
C218 C 0.0808 0.0563 0.40391 0.0
H219 H 0.50325 0.9851 0.6761 0.0
H220 H 0.51146 0.85429 0.69374 0.0
H221 H 0.52755 0.85601 0.76083 0.0
H222 H 0.57372 0.0079 0.75506 0.0
H223 H 0.54314 0.0463 0.76791 0.0
H224 H 0.5464 0.03735 0.71864 0.0
H225 H 0.47313 0.02663 0.71776 0.0
H226 H 0.46956 0.03437 0.76707 0.0
H227 H 0.45036 0.98826 0.75248 0.0
H228 H 0.52301 0.8677 0.82778 0.0
H229 H 0.50516 0.89077 0.88914 0.0
H230 H 0.49733 0.01326 0.83127 0.0
C231 C 0.50999 0.957 0.69368 0.0
C232 C 0.50597 0.91965 0.6792 0.0
C233 C 0.51502 0.88355 0.70333 0.0
C234 C 0.52395 0.88412 0.74193 0.0
C235 C 0.52395 0.92095 0.75614 0.0
C236 C 0.51801 0.95698 0.73262 0.0
C237 C 0.51277 0.99125 0.75606 0.0
C238 C 0.546 0.02255 0.749 0.0
C239 C 0.47417 0.01125 0.74785 0.0
C240 C 0.5138 0.96823 0.79632 0.0
C241 C 0.52115 0.92786 0.79569 0.0
C242 C 0.51853 0.89944 0.82879 0.0
C243 C 0.50804 0.91256 0.86331 0.0
C244 C 0.50035 0.95359 0.86439 0.0
C245 C 0.50396 0.9819 0.8308 0.0
H246 H 0.62386 0.41333 0.80936 0.0
H247 H 0.74215 0.43298 0.77304 0.0
H248 H 0.72155 0.47064 0.71146 0.0
H249 H 0.59021 0.39143 0.72083 0.0
H250 H 0.54522 0.41527 0.72409 0.0
H251 H 0.56938 0.39497 0.76714 0.0
H252 H 0.56808 0.46476 0.79119 0.0
H253 H 0.54373 0.48527 0.74823 0.0
H254 H 0.58766 0.50898 0.76122 0.0
H255 H 0.68734 0.50118 0.65115 0.0
H256 H 0.64305 0.52157 0.59814 0.0
H257 H 0.54731 0.47849 0.67315 0.0
C258 C 0.6456 0.42573 0.78867 0.0
C259 C 0.68478 0.42003 0.79635 0.0
C260 C 0.71205 0.43737 0.76838 0.0
C261 C 0.70057 0.45862 0.73311 0.0
C262 C 0.66169 0.46239 0.72611 0.0
C263 C 0.63465 0.44651 0.75325 0.0
C264 C 0.59466 0.45211 0.73788 0.0
C265 C 0.57365 0.411 0.73746 0.0
C266 C 0.57222 0.47941 0.76101 0.0
C267 C 0.60331 0.473 0.69753 0.0
C268 C 0.64211 0.4791 0.69137 0.0
C269 C 0.65692 0.49681 0.65584 0.0
C270 C 0.63148 0.5083 0.62585 0.0
C271 C 0.5916 0.50175 0.63138 0.0
C272 C 0.57755 0.48412 0.66792 0.0
H273 H 0.96132 0.62813 0.34312 0.0
H274 H 0.03197 0.54285 0.41182 0.0
H275 H 0.04828 0.51212 0.35359 0.0
H276 H 0.91915 0.5591 0.29425 0.0
H277 H 0.91486 0.59185 0.24925 0.0
H278 H 0.91648 0.61304 0.2934 0.0
H279 H 0.97438 0.65962 0.26824 0.0
H280 H 0.97247 0.63928 0.22348 0.0
H281 H 1.01601 0.6378 0.2504 0.0
H282 H 0.04997 0.48617 0.28825 0.0
H283 H 0.0357 0.46684 0.22394 0.0
H284 H 0.95922 0.56629 0.20208 0.0
C285 C 0.98162 0.60416 0.34541 0.0
C286 C 0.99634 0.58835 0.3813 0.0
C287 C 1.0214 0.55587 0.3841 0.0
C288 C 0.03056 0.53824 0.35128 0.0
C289 C 1.01408 0.55349 0.31634 0.0
C290 C 0.99023 0.58594 0.31338 0.0
C291 C 0.97173 0.5934 0.27454 0.0
C292 C 0.92799 0.58907 0.27811 0.0
C293 C 0.98443 0.63499 0.25288 0.0
C294 C 0.98799 0.55949 0.25619 0.0
C295 C 1.01299 0.53718 0.2802 0.0
C296 C 0.03063 0.50365 0.26924 0.0
C297 C 1.02234 0.49278 0.2329 0.0
C298 C 0.99598 0.51479 0.20868 0.0
C299 C 0.97898 0.54864 0.22046 0.0
H300 H 0.3125 0.11925 0.18906 0.0
H301 H 0.22961 0.11461 0.09882 0.0
H302 H 0.27796 0.08837 0.05859 0.0
H303 H 0.39199 0.15257 0.12682 0.0
H304 H 0.42652 0.12267 0.15473 0.0
H305 H 0.38509 0.13907 0.1779 0.0
H306 H 0.36722 0.06481 0.20562 0.0
H307 H 0.40877 0.04826 0.18273 0.0
H308 H 0.36231 0.02739 0.17357 0.0
H309 H 0.3352 0.06469 0.02681 0.0
H310 H 0.39772 0.04369 1.00598 0.0
H311 H 0.44557 0.06386 0.11544 0.0
C312 C 0.3045 0.11211 0.16107 0.0
C313 C 0.26712 0.11908 0.14712 0.0
C314 C 0.25799 0.10981 0.11008 0.0
C315 C 0.28529 0.09481 0.08698 0.0
C316 C 0.32196 0.08909 0.10107 0.0
C317 C 0.33173 0.09725 0.13728 0.0
C318 C 0.3737 0.08927 0.14472 0.0
C319 C 0.39561 0.12822 0.15143 0.0
C320 C 0.37826 0.05541 0.17868 0.0
C321 C 0.38583 0.07567 0.10702 0.0
C322 C 0.35539 0.0757 0.08239 0.0
C323 C 0.35924 0.06447 0.0459 0.0
C324 C 0.39501 0.05263 0.03426 0.0
C325 C 0.42685 0.05215 0.05884 0.0
C326 C 0.42198 0.06402 0.09577 0.0
H327 H 0.36702 0.95003 0.55856 0.0
H328 H 0.38637 0.93478 0.68156 0.0
H329 H 0.3192 0.94708 0.69294 0.0
H330 H 0.29564 0.02964 0.55771 0.0
H331 H 0.26719 0.0101 0.52158 0.0
H332 H 0.31794 1.00369 0.52233 0.0
H333 H 0.3066 0.92626 0.52537 0.0
H334 H 0.25584 0.93235 0.52524 0.0
H335 H 0.27729 0.89909 0.5634 0.0
H336 H 0.25014 0.95281 0.6925 0.0
H337 H 0.18221 0.96062 0.67992 0.0
H338 H 0.20521 0.97552 0.55706 0.0
C339 C 0.35718 0.95018 0.58776 0.0
C340 C 0.38225 0.94228 0.61907 0.0
C341 C 0.36818 0.94204 0.65697 0.0
C342 C 0.32988 0.9485 0.66385 0.0
C343 C 0.30585 0.95527 0.63258 0.0
C344 C 0.3188 0.95685 0.59523 0.0
C345 C 0.28621 0.96372 0.56715 0.0
C346 C 0.2921 1.0042 0.54063 0.0
C347 C 0.2812 0.92823 0.54393 0.0
C348 C 0.25305 0.96501 0.59478 0.0
C349 C 0.26527 0.9598 0.6323 0.0
C350 C 0.24021 0.95792 0.66321 0.0
C351 C 0.20156 0.96261 0.65566 0.0
C352 C 0.18815 0.96975 0.61744 0.0
C353 C 0.21436 0.97033 0.58659 0.0
H354 H 0.7758 0.44656 0.89732 0.0
H355 H 0.79216 0.31681 0.91522 0.0
H356 H 0.85077 0.32747 0.95067 0.0
H357 H 0.87611 0.47415 0.88044 0.0
H358 H 0.8741 0.51864 0.90394 0.0
H359 H 0.83239 0.5009 0.88095 0.0
H360 H 0.79425 0.4976 0.94463 0.0
H361 H 0.83593 0.51505 0.96784 0.0
H362 H 0.81167 0.46825 0.98758 0.0
H363 H 0.90751 0.35155 0.98537 0.0
H364 H 0.96066 0.38848 1.01285 0.0
H365 H 0.91078 0.5026 0.96927 0.0
C366 C 0.79176 0.42032 0.90834 0.0
C367 C 0.77845 0.38066 0.90385 0.0
C368 C 0.8006 0.34741 0.91909 0.0
C369 C 0.83431 0.35314 0.9391 0.0
C370 C 0.84621 0.39241 0.94336 0.0
C371 C 0.82591 0.42551 0.92803 0.0
C372 C 0.84576 0.46463 0.93582 0.0
C373 C 0.85781 0.49114 0.89804 0.0
C374 C 0.82038 0.48773 0.96043 0.0
C375 C 0.88018 0.44825 0.95808 0.0
C376 C 0.87971 0.40644 0.96231 0.0
C377 C 0.90822 0.38428 0.98214 0.0
C378 C 0.93817 0.40538 0.99776 0.0
C379 C 0.93948 0.44811 0.99326 0.0
C380 C 0.91016 0.46982 0.97318 0.0
H381 H 0.8626 0.59482 0.50331 0.0
H382 H 0.87717 0.61287 0.37939 0.0
H383 H 0.80811 0.60331 0.37165 0.0
H384 H 0.7868 0.5171 0.50701 0.0
H385 H 0.76073 0.53506 0.54517 0.0
H386 H 0.81173 0.5427 0.54172 0.0
H387 H 0.80459 0.61986 0.54038 0.0
H388 H 0.75362 0.6124 0.54406 0.0
H389 H 0.77452 0.64696 0.50493 0.0
H390 H 0.73859 0.59446 0.37626 0.0
H391 H 0.67027 0.58693 0.39354 0.0
H392 H 0.69858 0.5725 0.51429 0.0
C393 C 0.85106 0.59666 0.47468 0.0
C394 C 0.87514 0.604 0.44194 0.0
C395 C 0.8592 0.60651 0.40483 0.0
C396 C 0.82005 0.60123 0.4001 0.0
C397 C 0.79709 0.59342 0.43277 0.0
C398 C 0.81174 0.59111 0.46937 0.0
C399 C 0.78015 0.58281 0.49938 0.0
C400 C 0.78516 0.54198 0.52482 0.0
C401 C 0.77811 0.61759 0.52361 0.0
C402 C 0.74565 0.58134 0.47378 0.0
C403 C 0.7563 0.58755 0.43548 0.0
C404 C 0.72979 0.58927 0.40613 0.0
C405 C 0.69117 0.58507 0.41614 0.0
C406 C 0.67944 0.57896 0.4551 0.0
C407 C 0.70704 0.57646 0.48432 0.0
H408 H 0.15476 0.25534 0.192 0.0
H409 H 0.1701 0.19631 0.09084 0.0
H410 H 0.14081 0.25333 0.05116 0.0
H411 H 0.06113 0.29538 0.16354 0.0
H412 H 0.06973 0.34186 0.18311 0.0
H413 H 0.09202 0.29624 0.20416 0.0
H414 H 0.15816 0.333 0.19457 0.0
H415 H 0.13608 0.37861 0.17325 0.0
H416 H 0.17271 0.35687 0.1473 0.0
H417 H 0.11395 0.31871 1.021 0.0
H418 H 0.08479 0.3851 1.00373 0.0
H419 H 0.08116 0.4005 0.12408 0.0
C420 C 0.15152 0.25408 0.16162 0.0
C421 C 0.16581 0.22134 0.14468 0.0
C422 C 0.16077 0.22132 0.10464 0.0
C423 C 0.14381 0.25356 0.08172 0.0
C424 C 0.13109 0.28568 0.09906 0.0
C425 C 0.13404 0.28598 0.13817 0.0
C426 C 0.11737 0.32423 0.14936 0.0
C427 C 0.08302 0.3138 0.17666 0.0
C428 C 0.14791 0.34967 0.16717 0.0
C429 C 0.1051 0.34539 0.1104 0.0
C430 C 0.11364 0.32269 0.08178 0.0
C431 C 0.10669 0.33654 0.04323 0.0
C432 C 0.09026 0.3744 0.03365 0.0
C433 C 0.08038 0.39793 0.06247 0.0
C434 C 0.08792 0.38302 0.1014 0.0
H435 H 0.66823 0.28805 0.94798 0.0
H436 H 0.65327 0.2817 0.82646 0.0
H437 H 0.61408 0.21921 0.84241 0.0
H438 H 0.67787 0.1801 0.97535 0.0
H439 H 0.65303 0.17866 1.02054 0.0
H440 H 0.67888 0.22406 0.99979 0.0
H441 H 0.61772 0.26486 1.00284 0.0
H442 H 0.59163 0.2195 1.02333 0.0
H443 H 0.57501 0.24906 0.98014 0.0
H444 H 0.57609 0.15776 0.87081 0.0
H445 H 0.54565 0.09821 0.91008 0.0
H446 H 0.58738 0.14133 1.01346 0.0
C447 C 0.65695 0.27343 0.92469 0.0
C448 C 0.6634 0.29056 0.88588 0.0
C449 C 0.64794 0.27017 0.85642 0.0
C450 C 0.62579 0.23437 0.86515 0.0
C451 C 0.61954 0.21875 0.90355 0.0
C452 C 0.63498 0.23726 0.9329 0.0
C453 C 0.62476 0.21315 0.97173 0.0
C454 C 0.66078 0.1981 0.9931 0.0
C455 C 0.60086 0.23814 0.99593 0.0
C456 C 0.60124 0.1783 0.9595 0.0
C457 C 0.59838 0.18239 0.92002 0.0
C458 C 0.57816 0.15416 0.90177 0.0
C459 C 0.56083 0.12046 0.92438 0.0
C460 C 0.56399 0.115 0.9649 0.0
C461 C 0.58429 0.14462 0.98259 0.0
H462 H 0.93873 0.7256 0.45221 0.0
H463 H 0.04029 0.663 0.49235 0.0
H464 H 0.06735 0.72656 0.51156 0.0
H465 H 0.98571 0.81789 0.41233 0.0
H466 H 0.94884 0.84946 0.42609 0.0
H467 H 0.93706 0.79879 0.41711 0.0
H468 H 0.90631 0.78191 0.48491 0.0
H469 H 0.91764 0.83267 0.49394 0.0
H470 H 0.93375 0.79008 0.52641 0.0
H471 H 0.08295 0.7977 0.52618 0.0
H472 H 0.08588 0.87006 0.53471 0.0
H473 H 0.97443 0.88517 0.48302 0.0
C474 C 0.96636 0.72504 0.46571 0.0
C475 C 0.98725 0.6893 0.47133 0.0
C476 C 1.02382 0.6901 0.48799 0.0
C477 C 0.03935 0.72599 0.49897 0.0
C478 C 1.01804 0.7608 0.49275 0.0
C479 C 0.98233 0.76053 0.47649 0.0
C480 C 0.96556 0.80205 0.47189 0.0
C481 C 0.95892 0.81797 0.42933 0.0
C482 C 0.92864 0.80164 0.49572 0.0
C483 C 0.99734 0.82583 0.48817 0.0
C484 C 0.02735 0.80159 0.5002 0.0
C485 C 0.05964 0.81696 0.51676 0.0
C486 C 0.06107 0.85808 0.52144 0.0
C487 C 0.0305 0.88333 0.50935 0.0
C488 C 0.99845 0.86683 0.49227 0.0
H489 H 0.51727 0.83265 0.56751 0.0
H490 H 0.40003 0.81897 0.60871 0.0
H491 H 0.39908 0.7473 0.60071 0.0
H492 H 0.50746 0.76045 0.49654 0.0
H493 H 0.55423 0.74095 0.50601 0.0
H494 H 0.54507 0.79266 0.5114 0.0
H495 H 0.56913 0.77977 0.58137 0.0
H496 H 0.5779 0.72793 0.57637 0.0
H497 H 0.54742 0.73926 0.61458 0.0
H498 H 0.41179 0.67691 0.59566 0.0
H499 H 0.43572 0.6106 0.58689 0.0
H500 H 0.54461 0.66727 0.54691 0.0
C501 C 0.49123 0.81467 0.574 0.0
C502 C 0.45849 0.83173 0.58793 0.0
C503 C 0.42509 0.80708 0.59681 0.0
C504 C 0.42434 0.76612 0.59277 0.0
C505 C 0.45714 0.75011 0.5797 0.0
C506 C 0.48984 0.77347 0.56986 0.0
C507 C 0.52137 0.7478 0.55764 0.0
C508 C 0.53269 0.76127 0.51538 0.0
C509 C 0.556 0.74876 0.58407 0.0
C510 C 0.50135 0.70638 0.56309 0.0
C511 C 0.46438 0.70869 0.57599 0.0
C512 C 0.4405 0.67464 0.58502 0.0
C513 C 0.45452 0.63706 0.58019 0.0
C514 C 0.492 0.63378 0.56611 0.0
C515 C 0.51576 0.66896 0.55746 0.0
H516 H 0.92966 0.87891 0.80631 0.0
H517 H 0.81038 0.88873 0.77612 0.0
H518 H 0.82902 0.91684 0.70966 0.0
H519 H 0.96305 0.97068 0.74825 0.0
H520 H 1.00707 0.95007 0.73459 0.0
H521 H 0.98442 0.93049 0.77978 0.0
H522 H 0.98368 0.85816 0.76115 0.0
H523 H 1.00641 0.87753 0.71593 0.0
H524 H 0.96193 0.84891 0.7168 0.0
H525 H 0.86087 0.94408 0.64577 0.0
H526 H 0.90317 0.96849 0.59033 0.0
H527 H 1.00182 0.94067 0.66172 0.0
C528 C 0.90738 0.88655 0.78569 0.0
C529 C 0.8684 0.88149 0.79679 0.0
C530 C 0.84037 0.89266 0.76875 0.0
C531 C 0.85071 0.90849 0.73075 0.0
C532 C 0.88929 0.91314 0.72089 0.0
C533 C 0.9172 0.9025 0.74758 0.0
C534 C 0.95665 0.91089 0.72963 0.0
C535 C 0.97911 0.94241 0.74924 0.0
C536 C 0.97845 0.87153 0.73096 0.0
C537 C 0.94659 0.92786 0.6887 0.0
C538 C 0.90757 0.92886 0.68424 0.0
C539 C 0.89146 0.94338 0.64901 0.0
C540 C 0.91578 0.95721 0.6176 0.0
C541 C 0.95593 0.95657 0.62141 0.0
C542 C 0.97131 0.9416 0.65764 0.0
H543 H 0.59196 0.1831 0.3205 0.0
H544 H 0.5625 0.07428 0.39848 0.0
H545 H 0.54287 0.03974 0.34345 0.0
H546 H 0.5187 0.17012 0.24404 0.0
H547 H 0.55253 0.18895 0.20649 0.0
H548 H 0.55468 0.20766 0.25208 0.0
H549 H 0.62528 0.18768 0.25847 0.0
H550 H 0.62326 0.16836 0.21341 0.0
H551 H 0.63742 0.13603 0.25605 0.0
H552 H 0.5352 0.01472 0.27957 0.0
H553 H 0.54347 1.00041 0.21269 0.0
H554 H 0.58274 0.12436 0.17751 0.0
C555 C 0.57964 0.15264 0.32586 0.0
C556 C 0.57745 0.13147 0.36333 0.0
C557 C 0.56322 0.09101 0.36975 0.0
C558 C 0.55208 0.07131 0.33874 0.0
C559 C 0.55575 0.09258 0.30173 0.0
C560 C 0.56913 0.13246 0.29523 0.0
C561 C 0.57608 0.14669 0.25297 0.0
C562 C 0.54887 0.18034 0.23802 0.0
C563 C 0.61799 0.16046 0.24478 0.0
C564 C 0.56633 0.10812 0.23685 0.0
C565 C 0.55355 0.07755 0.26514 0.0
C566 C 0.54467 0.03859 0.25712 0.0
C567 C 0.54948 0.03067 0.21928 0.0
C568 C 0.56396 0.06129 0.19048 0.0
C569 C 0.57185 0.10051 0.1993 0.0
H570 H 0.4234 0.62059 0.26899 0.0
H571 H 0.30371 0.61141 0.30155 0.0
H572 H 0.32103 0.57978 0.36689 0.0
H573 H 0.45319 0.52809 0.32586 0.0
H574 H 0.49805 0.55053 0.33801 0.0
H575 H 0.47562 0.56865 0.29325 0.0
H576 H 0.47767 0.64148 0.31085 0.0
H577 H 0.50004 0.62359 0.35565 0.0
H578 H 0.4565 0.65072 0.35547 0.0
H579 H 0.35287 0.55224 0.43051 0.0
H580 H 0.39548 0.5328 0.4854 0.0
H581 H 0.4938 0.56406 0.41052 0.0
C582 C 0.40064 0.61204 0.28974 0.0
C583 C 0.36209 0.61881 0.27994 0.0
C584 C 0.33339 0.60627 0.30803 0.0
C585 C 0.34301 0.58845 0.34533 0.0
C586 C 0.38144 0.58331 0.35414 0.0
C587 C 0.40973 0.59478 0.32697 0.0
C588 C 0.44899 0.58814 0.34374 0.0
C589 C 0.4702 0.55699 0.32404 0.0
C590 C 0.47215 0.62837 0.34128 0.0
C591 C 0.4386 0.57148 0.38485 0.0
C592 C 0.39954 0.56849 0.39036 0.0
C593 C 0.38346 0.55437 0.42635 0.0
C594 C 0.40791 0.54336 0.45738 0.0
C595 C 0.44804 0.54688 0.45237 0.0
C596 C 0.46331 0.56093 0.41544 0.0
H597 H 0.06472 0.36073 0.73777 0.0
H598 H 0.0716 0.46697 0.65147 0.0
H599 H 0.0629 0.51069 0.70178 0.0
H600 H 0.99594 0.40133 0.80542 0.0
H601 H 1.02056 0.37741 0.84691 0.0
H602 H 1.01914 0.35426 0.80363 0.0
H603 H 0.09284 0.35319 0.80308 0.0
H604 H 0.09459 0.37691 0.84584 0.0
H605 H 0.12011 0.39985 0.80325 0.0
H606 H 0.06402 0.54274 0.76102 0.0
H607 H 0.07167 0.56161 0.82582 0.0
H608 H 0.06558 0.4348 0.87465 0.0
C609 C 0.06258 0.39307 0.72952 0.0
C610 C 0.06788 0.41072 0.69093 0.0
C611 C 0.06678 0.45316 0.68095 0.0
C612 C 0.06193 0.4781 0.70928 0.0
C613 C 0.05828 0.45999 0.74737 0.0
C614 C 0.05811 0.41842 0.75758 0.0
C615 C 0.05824 0.40701 0.80084 0.0
C616 C 1.02126 0.38362 0.81504 0.0
C617 C 0.09355 0.38283 0.814 0.0
C618 C 0.06004 0.44864 0.81325 0.0
C619 C 0.05956 0.47871 0.78194 0.0
C620 C 0.06378 0.51951 0.78582 0.0
C621 C 0.06858 0.52991 0.82269 0.0
C622 C 0.0693 0.49964 0.85521 0.0
C623 C 0.06453 0.45853 0.85034 0.0
H624 H 0.74176 0.88751 0.87176 0.0
H625 H 0.82289 0.89199 0.96364 0.0
H626 H 0.77471 0.92157 1.00154 0.0
H627 H 0.69505 0.98202 0.88259 0.0
H628 H 0.6481 0.9627 0.87301 0.0
H629 H 0.68935 0.94332 0.85198 0.0
H630 H 0.66832 0.87055 0.8818 0.0
H631 H 0.62715 0.8898 0.90302 0.0
H632 H 0.65992 0.85938 0.93286 0.0
H633 H 0.71817 0.94946 0.03042 0.0
H634 H 0.65626 0.9741 0.04869 0.0
H635 H 0.60953 0.95113 0.93955 0.0
C636 C 0.7494 0.89518 0.89967 0.0
C637 C 0.78621 0.88726 0.91475 0.0
C638 C 0.7949 0.89736 0.9516 0.0
C639 C 0.76772 0.91432 0.97334 0.0
C640 C 0.73164 0.9211 0.95808 0.0
C641 C 0.72228 0.91194 0.92211 0.0
C642 C 0.68087 0.92148 0.91323 0.0
C643 C 0.6782 0.95434 0.87812 0.0
C644 C 0.6577 0.883 0.90739 0.0
C645 C 0.6686 0.9372 0.94985 0.0
C646 C 0.69851 0.93684 0.97516 0.0
C647 C 0.69452 0.94991 1.01083 0.0
C648 C 0.65912 0.96386 1.02098 0.0
C649 C 0.62778 0.96455 0.99574 0.0
C650 C 0.63277 0.95088 0.95965 0.0
H651 H 0.685 0.08119 0.43633 0.0
H652 H 0.71609 0.20744 0.44106 0.0
H653 H 0.7832 0.1894 0.44997 0.0
H654 H 0.75354 0.03635 0.50414 0.0
H655 H 0.76316 0.99575 0.47709 0.0
H656 H 0.71708 0.01808 0.47446 0.0
H657 H 0.72396 0.03338 0.4004 0.0
H658 H 0.77017 0.01139 0.40279 0.0
H659 H 0.7649 0.06252 0.37945 0.0
H660 H 0.84696 0.15798 0.45728 0.0
H661 H 0.90338 0.11513 0.46136 0.0
H662 H 0.8316 0.01093 0.4458 0.0
C663 C 0.70581 0.10519 0.43912 0.0
C664 C 0.69501 0.14578 0.43817 0.0
C665 C 0.72332 0.176 0.44252 0.0
C666 C 0.76163 0.16613 0.44724 0.0
C667 C 0.77125 0.12601 0.44716 0.0
C668 C 0.74419 0.09604 0.44312 0.0
C669 C 0.7622 0.05557 0.44236 0.0
C670 C 0.74816 0.02462 0.47656 0.0
C671 C 0.75487 0.03981 0.40396 0.0
C672 C 0.80371 0.06752 0.44638 0.0
C673 C 0.80824 0.10822 0.44954 0.0
C674 C 0.84381 0.12614 0.45468 0.0
C675 C 0.87557 0.1017 0.45697 0.0
C676 C 0.87155 0.06006 0.45356 0.0
C677 C 0.83526 0.04287 0.44784 0.0
H678 H 0.26888 0.57811 0.18883 0.0
H679 H 0.27747 0.70045 0.12652 0.0
H680 H 0.22355 0.68477 0.08702 0.0
H681 H 0.23862 0.5259 0.11247 0.0
H682 H 0.20407 0.49313 0.14073 0.0
H683 H 0.24522 0.51252 0.1634 0.0
H684 H 0.20149 0.54262 0.21089 0.0
H685 H 0.16021 0.52307 0.18854 0.0
H686 H 0.16469 0.57624 0.19247 0.0
H687 H 0.17111 0.65497 0.05071 0.0
H688 H 0.11723 0.616 0.02705 0.0
H689 H 0.13496 0.51729 0.11859 0.0
C690 C 0.25946 0.602 0.16732 0.0
C691 C 0.27916 0.64028 0.16043 0.0
C692 C 0.26488 0.67017 0.13164 0.0
C693 C 0.23365 0.66179 0.10911 0.0
C694 C 0.21567 0.62374 0.11621 0.0
C695 C 0.22734 0.59464 0.14524 0.0
C696 C 0.20133 0.55698 0.14819 0.0
C697 C 0.22365 0.51995 0.14075 0.0
C698 C 0.18071 0.54929 0.18735 0.0
C699 C 0.17369 0.5694 0.11592 0.0
C700 C 0.18297 0.60782 0.09745 0.0
C701 C 0.16316 0.62513 0.06533 0.0
C702 C 0.13275 0.60279 0.05199 0.0
C703 C 0.12185 0.56404 0.07127 0.0
C704 C 0.14251 0.54718 0.10372 0.0
H705 H 0.17634 0.44069 0.6088 0.0
H706 H 0.18607 0.31078 0.61258 0.0
H707 H 0.25532 0.32038 0.60216 0.0
H708 H 0.25558 0.47441 0.54153 0.0
H709 H 0.27017 0.51437 0.56829 0.0
H710 H 0.22073 0.49825 0.56788 0.0
H711 H 0.22003 0.48494 0.64229 0.0
H712 H 0.26946 0.5006 0.64296 0.0
H713 H 0.25399 0.45134 0.66677 0.0
H714 H 0.3247 0.34366 0.59705 0.0
H715 H 0.38787 0.37862 0.60111 0.0
H716 H 0.33234 0.49077 0.60948 0.0
C717 C 0.19279 0.41414 0.60712 0.0
C718 C 0.17538 0.37498 0.6114 0.0
C719 C 0.19829 0.34127 0.60851 0.0
C720 C 0.23783 0.34636 0.60286 0.0
C721 C 0.25411 0.38524 0.60048 0.0
C722 C 0.23224 0.41852 0.60263 0.0
C723 C 0.25673 0.45637 0.60393 0.0
C724 C 0.25042 0.48769 0.56827 0.0
C725 C 0.24962 0.47434 0.6412 0.0
C726 C 0.29584 0.43901 0.60325 0.0
C727 C 0.29387 0.39815 0.60025 0.0
C728 C 0.32656 0.37564 0.59933 0.0
C729 C 0.36213 0.3955 0.60175 0.0
C730 C 0.36434 0.4369 0.60611 0.0
C731 C 0.33092 0.45889 0.60664 0.0
H732 H 0.90011 0.7506 0.87292 0.0
H733 H 0.88295 0.81031 0.9734 0.0
H734 H 0.91406 0.75478 1.0134 0.0
H735 H 0.88573 0.64886 0.9187 0.0
H736 H 0.92306 0.62845 0.89258 0.0
H737 H 0.89916 0.67284 0.87114 0.0
H738 H 0.96394 0.71228 0.86053 0.0
H739 H 0.98806 0.66791 0.88175 0.0
H740 H 0.99499 0.71495 0.90075 0.0
H741 H 0.94353 0.69083 0.04387 0.0
H742 H 0.97506 0.62578 0.06135 0.0
H743 H 0.97888 0.60946 0.94125 0.0
C744 C 0.90327 0.75237 0.90322 0.0
C745 C 0.88803 0.78483 0.91985 0.0
C746 C 0.89298 0.78544 0.95982 0.0
C747 C 0.91101 0.75408 0.98291 0.0
C748 C 0.92484 0.7223 0.9658 0.0
C749 C 0.92181 0.72143 0.92679 0.0
C750 C 0.93986 0.68384 0.91576 0.0
C751 C 0.91018 0.65691 0.89853 0.0
C752 C 0.97373 0.69545 0.88806 0.0
C753 C 0.95309 0.66369 0.95471 0.0
C754 C 0.94378 0.68628 0.9832 0.0
C755 C 0.9514 0.67312 1.02173 0.0
C756 C 0.96921 0.63604 0.03143 0.0
C757 C 0.97981 0.61268 1.00272 0.0
C758 C 0.97165 0.62691 0.96382 0.0
H759 H 0.35839 0.75943 0.13366 0.0
H760 H 0.44947 0.70044 0.20101 0.0
H761 H 0.49295 0.75804 0.17824 0.0
H762 H 0.41998 0.79756 0.05112 0.0
H763 H 0.39439 0.84361 0.04008 0.0
H764 H 0.36988 0.79801 0.06247 0.0
H765 H 0.3476 0.83569 0.11772 0.0
H766 H 0.37232 0.88128 0.09571 0.0
H767 H 0.38252 0.86048 0.14454 0.0
H768 H 0.52549 0.82489 0.15225 0.0
H769 H 0.54694 0.89165 0.11741 0.0
H770 H 0.43791 0.90279 0.06055 0.0
C771 C 0.38759 0.758 0.14322 0.0
C772 C 0.39986 0.72532 0.17005 0.0
C773 C 0.43854 0.72546 0.18169 0.0
C774 C 0.46376 0.75799 0.16861 0.0
C775 C 0.45041 0.78991 0.14298 0.0
C776 C 0.41351 0.78975 0.12967 0.0
C777 C 0.40676 0.82728 0.10113 0.0
C778 C 0.39719 0.81592 0.06134 0.0
C779 C 0.37545 0.85267 0.11566 0.0
C780 C 0.44547 0.84875 0.10093 0.0
C781 C 0.47009 0.82698 0.12572 0.0
C782 C 0.50669 0.84188 0.13224 0.0
C783 C 0.51858 0.87982 0.11253 0.0
C784 C 0.49424 0.90191 0.08605 0.0
C785 C 0.45729 0.88608 0.08018 0.0
H786 H 0.06976 0.29935 0.55779 0.0
H787 H 0.03216 0.27509 0.67684 0.0
H788 H 1.00473 0.20911 0.66556 0.0
H789 H 0.98926 0.24277 0.51622 0.0
H790 H 1.02088 0.22429 0.4826 0.0
H791 H 0.03049 0.27301 0.49766 0.0
H792 H 0.09785 0.25057 0.51929 0.0
H793 H 0.08841 0.20186 0.50458 0.0
H794 H 0.1026 0.20523 0.5532 0.0
H795 H 0.99253 0.1419 0.64552 0.0
H796 H 0.99389 0.07852 0.61676 0.0
H797 H 0.03887 0.14514 0.51059 0.0
C798 C 0.05499 0.28053 0.58126 0.0
C799 C 0.05292 0.29254 0.61815 0.0
C800 C 0.03345 0.267 0.64814 0.0
C801 C 1.01787 0.22934 0.64204 0.0
C802 C 1.0217 0.21779 0.60573 0.0
C803 C 0.0394 0.24278 0.57568 0.0
C804 C 0.04345 0.22141 0.5407 0.0
C805 C 1.01959 0.24158 0.50732 0.0
C806 C 0.08557 0.21966 0.52877 0.0
C807 C 0.02701 0.17986 0.55644 0.0
C808 C 1.01411 0.17866 0.59386 0.0
C809 C 1.00148 0.14268 0.61594 0.0
C810 C 1.00246 0.10693 0.59952 0.0
C811 C 1.01574 0.10763 0.56147 0.0
C812 C 0.02756 0.14445 0.53939 0.0
H813 H 0.6345 0.27577 0.43918 0.0
H814 H 0.53122 0.20297 0.46893 0.0
H815 H 0.50287 0.2604 0.49485 0.0
H816 H 0.63518 0.32911 0.52165 0.0
H817 H 0.65204 0.37651 0.49495 0.0
H818 H 0.66458 0.32948 0.4794 0.0
H819 H 0.63657 0.35329 0.41237 0.0
H820 H 0.62386 0.40036 0.42774 0.0
H821 H 0.58797 0.36907 0.40877 0.0
H822 H 0.48623 0.32433 0.51805 0.0
H823 H 0.48055 0.39259 0.53545 0.0
H824 H 0.59395 0.42578 0.48896 0.0
C825 C 0.60605 0.27193 0.45149 0.0
C826 C 0.58499 0.23501 0.45234 0.0
C827 C 0.54764 0.23113 0.46798 0.0
C828 C 0.53142 0.26346 0.48283 0.0
C829 C 0.55286 0.29948 0.48148 0.0
C830 C 0.58926 0.30407 0.46606 0.0
C831 C 0.60568 0.34642 0.46734 0.0
C832 C 0.64149 0.3453 0.49233 0.0
C833 C 0.614 0.36859 0.42663 0.0
C834 C 0.57283 0.36484 0.48608 0.0
C835 C 0.54281 0.33704 0.49412 0.0
C836 C 0.50947 0.34642 0.51186 0.0
C837 C 0.50662 0.38531 0.5217 0.0
C838 C 0.53684 0.41455 0.51356 0.0
C839 C 0.57035 0.40414 0.49538 0.0
loop_
_geom_bond_atom_site_label_1
_geom_bond_atom_site_label_2
_geom_bond_distance
_geom_bond_site_symmetry_2
_ccdc_geom_bond_type
H0 C3 0.931 . S
H1 C6 0.928 . S
H2 C8 0.930 . S
C3 H0 0.931 . S
C3 C4 1.413 . S
C3 C5 1.360 . S
C4 C3 1.413 . S
C4 C8 1.429 . S
C5 C3 1.360 . S
C5 C6 1.372 . S
C6 H1 0.928 . S
C6 C5 1.372 . S
C6 C7 1.404 . S
C7 C6 1.404 . S
C7 C8 1.391 . S
C8 H2 0.930 . S
C8 C4 1.429 . S
C8 C7 1.391 . S
H9 C12 0.931 . S
H10 C15 0.928 . S
H11 C17 0.930 . S
C12 H9 0.931 . S
C12 C13 1.413 . S
C12 C14 1.360 . S
C13 C12 1.413 . S
C13 C17 1.429 . S
C14 C12 1.360 . S
C14 C15 1.372 . S
C15 H10 0.928 . S
C15 C14 1.372 . S
C15 C16 1.404 . S
C16 C15 1.404 . S
C16 C17 1.391 . S
C17 H11 0.930 . S
C17 C13 1.429 . S
C17 C16 1.391 . S
H18 C21 0.931 . S
H19 C24 0.928 . S
H20 C26 0.930 . S
C21 H18 0.931 . S
C21 C22 1.413 . S
C21 C23 1.360 . S
C22 C21 1.413 . S
C22 C26 1.429 . S
C23 C21 1.360 . S
C23 C24 1.372 . S
C24 H19 0.928 . S
C24 C23 1.372 . S
C24 C25 1.404 . S
C25 C24 1.404 . S
C25 C26 1.391 . S
C26 H20 0.930 . S
C26 C22 1.429 . S
C26 C25 1.391 . S
H27 C30 0.931 . S
H28 C33 0.928 . S
H29 C35 0.930 . S
C30 H27 0.931 . S
C30 C31 1.413 . S
C30 C32 1.360 . S
C31 C30 1.413 . S
C31 C35 1.429 . S
C32 C30 1.360 . S
C32 C33 1.372 . S
C33 H28 0.928 . S
C33 C32 1.372 . S
C33 C34 1.404 . S
C34 C33 1.404 . S
C34 C35 1.391 . S
C35 H29 0.930 . S
C35 C31 1.429 . S
C35 C34 1.391 . S
H36 C39 0.931 . S
H37 C42 0.928 . S
H38 C44 0.930 . S
C39 H36 0.931 . S
C39 C40 1.413 . S
C39 C41 1.360 . S
C40 C39 1.413 . S
C40 C44 1.429 . S
C41 C39 1.360 . S
C41 C42 1.372 . S
C42 H37 0.928 . S
C42 C41 1.372 . S
C42 C43 1.404 . S
C43 C42 1.404 . S
C43 C44 1.391 . S
C44 H38 0.930 . S
C44 C40 1.429 . S
C44 C43 1.391 . S
H45 C48 0.931 . S
H46 C51 0.928 . S
H47 C53 0.930 . S
C48 H45 0.931 . S
C48 C49 1.413 . S
C48 C50 1.360 . S
C49 C48 1.413 . S
C49 C53 1.429 . S
C50 C48 1.360 . S
C50 C51 1.372 . S
C51 H46 0.928 . S
C51 C50 1.372 . S
C51 C52 1.404 . S
C52 C51 1.404 . S
C52 C53 1.391 . S
C53 H47 0.930 . S
C53 C49 1.429 . S
C53 C52 1.391 . S
H54 C57 0.931 . S
H55 C60 0.928 . S
H56 C62 0.930 . S
C57 H54 0.931 . S
C57 C58 1.413 . S
C57 C59 1.360 . S
C58 C57 1.413 . S
C58 C62 1.429 . S
C59 C57 1.360 . S
C59 C60 1.372 . S
C60 H55 0.928 . S
C60 C59 1.372 . S
C60 C61 1.404 . S
C61 C60 1.404 . S
C61 C62 1.391 . S
C62 H56 0.930 . S
C62 C58 1.429 . S
C62 C61 1.391 . S
H63 C66 0.931 . S
H64 C69 0.928 . S
H65 C71 0.930 . S
C66 H63 0.931 . S
C66 C67 1.413 . S
C66 C68 1.360 . S
C67 C66 1.413 . S
C67 C71 1.429 . S
C68 C66 1.360 . S
C68 C69 1.372 . S
C69 H64 0.928 . S
C69 C68 1.372 . S
C69 C70 1.404 . S
C70 C69 1.404 . S
C70 C71 1.391 . S
C71 H65 0.930 . S
C71 C67 1.429 . S
C71 C70 1.391 . S
Co72 N77 2.057 . S
Co72 O89 2.021 . S
Co72 O92 2.062 . S
Co72 O96 2.117 1_545 S
Co72 O97 2.020 1_545 S
C73 O93 1.259 1_655 S
C73 O96 1.258 . S
Co74 N83 2.057 . S
Co74 O90 2.117 1_565 S
Co74 O91 2.020 1_565 S
Co74 O93 2.021 . S
Co74 O98 2.062 . S
C75 N77 1.316 . S
C75 N78 1.347 . S
C75 H80 0.931 . S
C76 N77 1.375 1_565 S
C76 C79 1.350 1_565 S
C76 H81 0.930 . S
N77 Co72 2.057 . S
N77 C75 1.316 . S
N77 C76 1.375 1_545 S
N78 C75 1.347 . S
N78 C79 1.373 . S
C79 C76 1.350 1_545 S
C79 N78 1.373 . S
C79 H100 0.931 . S
H80 C75 0.931 . S
H81 C76 0.930 . S
C82 O89 1.259 1_455 S
C82 O90 1.258 . S
N83 Co74 2.057 . S
N83 C84 1.316 . S
N83 C85 1.375 1_565 S
C84 N83 1.316 . S
C84 N86 1.347 . S
C84 H95 0.931 . S
C85 N83 1.375 1_545 S
C85 C87 1.350 1_545 S
C85 H94 0.930 . S
N86 C84 1.347 . S
N86 C87 1.373 . S
C87 C85 1.350 1_565 S
C87 N86 1.373 . S
C87 H101 0.931 1_565 S
C88 O91 1.256 . S
C88 O92 1.255 1_455 S
O89 Co72 2.021 . S
O89 C82 1.259 1_655 S
O90 Co74 2.117 1_545 S
O90 C82 1.258 . S
O91 Co74 2.020 1_545 S
O91 C88 1.256 . S
O92 Co72 2.062 . S
O92 C88 1.255 1_655 S
O93 C73 1.259 1_455 S
O93 Co74 2.021 . S
H94 C85 0.930 . S
H95 C84 0.931 . S
O96 Co72 2.117 1_565 S
O96 C73 1.258 . S
O97 Co72 2.020 1_565 S
O97 C99 1.256 . S
O98 Co74 2.062 . S
O98 C99 1.255 1_455 S
C99 O97 1.256 . S
C99 O98 1.255 1_655 S
H100 C79 0.931 . S
H101 C87 0.931 1_545 S
Co102 N107 2.069 . S
Co102 O119 2.000 1_565 S
Co102 O122 2.069 . S
Co102 O126 2.136 1_556 S
Co102 O127 2.011 1_565 S
C103 O123 1.259 . S
C103 O126 1.258 . S
Co104 N113 2.057 . S
Co104 O120 2.117 . S
Co104 O121 2.020 1_545 S
Co104 O123 2.021 1_545 S
Co104 O128 2.062 . S
C105 N107 1.316 . S
C105 N108 1.347 . S
C105 H110 0.931 1_565 S
C106 N107 1.375 . S
C106 C109 1.350 . S
C106 H111 0.930 . S
N107 Co102 2.069 . S
N107 C105 1.316 . S
N107 C106 1.375 . S
N108 C105 1.347 . S
N108 C109 1.373 . S
C109 C106 1.350 . S
C109 N108 1.373 . S
C109 H130 0.931 . S
H110 C105 0.931 1_545 S
H111 C106 0.930 . S
C112 O119 1.259 . S
C112 O120 1.258 1_556 S
N113 Co104 2.057 . S
N113 C114 1.316 . S
N113 C115 1.375 . S
C114 N113 1.316 . S
C114 N116 1.347 . S
C114 H125 0.909 1_545 S
C115 N113 1.375 . S
C115 C117 1.350 . S
C115 H124 0.930 . S
N116 C114 1.347 . S
N116 C117 1.373 . S
C117 C115 1.350 . S
C117 N116 1.373 . S
C117 H131 0.931 . S
C118 O121 1.256 1_556 S
C118 O122 1.255 . S
O119 Co102 2.000 1_545 S
O119 C112 1.259 . S
O120 Co104 2.117 . S
O120 C112 1.258 1_554 S
O121 Co104 2.020 1_565 S
O121 C118 1.256 1_554 S
O122 Co102 2.069 . S
O122 C118 1.255 . S
O123 C103 1.259 . S
O123 Co104 2.021 1_565 S
H124 C115 0.930 . S
H125 C114 0.909 1_565 S
O126 Co102 2.136 1_554 S
O126 C103 1.258 . S
O127 Co102 2.011 1_545 S
O127 C129 1.256 1_556 S
O128 Co104 2.062 . S
O128 C129 1.255 . S
C129 O127 1.256 1_554 S
C129 O128 1.255 . S
H130 C109 0.931 . S
H131 C117 0.931 . S
Co132 N137 2.057 . S
Co132 O149 2.021 . S
Co132 O152 2.062 . S
Co132 O156 2.117 . S
Co132 O157 2.020 . S
C133 O153 1.259 . S
C133 O156 1.258 . S
Co134 N143 2.057 . S
Co134 O150 2.117 . S
Co134 O151 2.020 . S
Co134 O153 2.021 . S
Co134 O158 2.062 . S
C135 N137 1.316 . S
C135 N138 1.347 . S
C135 H140 0.931 . S
C136 N137 1.375 . S
C136 C139 1.350 . S
C136 H141 0.930 . S
N137 Co132 2.057 . S
N137 C135 1.316 . S
N137 C136 1.375 . S
N138 C135 1.347 . S
N138 C139 1.373 . S
C139 C136 1.350 . S
C139 N138 1.373 . S
C139 H160 0.931 . S
H140 C135 0.931 . S
H141 C136 0.930 . S
C142 O149 1.259 . S
C142 O150 1.258 . S
N143 Co134 2.057 . S
N143 C144 1.316 . S
N143 C145 1.375 . S
C144 N143 1.316 . S
C144 N146 1.347 . S
C144 H155 0.931 . S
C145 N143 1.375 . S
C145 C147 1.350 . S
C145 H154 0.930 . S
N146 C144 1.347 . S
N146 C147 1.373 . S
C147 C145 1.350 . S
C147 N146 1.373 . S
C147 H161 0.931 . S
C148 O151 1.256 . S
C148 O152 1.255 . S
O149 Co132 2.021 . S
O149 C142 1.259 . S
O150 Co134 2.117 . S
O150 C142 1.258 . S
O151 Co134 2.020 . S
O151 C148 1.256 . S
O152 Co132 2.062 . S
O152 C148 1.255 . S
O153 C133 1.259 . S
O153 Co134 2.021 . S
H154 C145 0.930 . S
H155 C144 0.931 . S
O156 Co132 2.117 . S
O156 C133 1.258 . S
O157 Co132 2.020 . S
O157 C159 1.256 . S
O158 Co134 2.062 . S
O158 C159 1.255 . S
C159 O157 1.256 . S
C159 O158 1.255 . S
H160 C139 0.931 . S
H161 C147 0.931 . S
Co162 N167 2.057 . S
Co162 O179 2.021 . S
Co162 O182 2.062 . S
Co162 O186 2.117 1_455 S
Co162 O187 2.020 1_455 S
C163 O183 1.259 1_556 S
C163 O186 1.258 . S
Co164 N173 2.057 . S
Co164 O180 2.117 1_655 S
Co164 O181 2.020 1_655 S
Co164 O183 2.021 . S
Co164 O188 2.062 . S
C165 N167 1.316 . S
C165 N168 1.347 . S
C165 H170 0.931 . S
C166 N167 1.375 1_655 S
C166 C169 1.350 1_655 S
C166 H171 0.930 . S
N167 Co162 2.057 . S
N167 C165 1.316 . S
N167 C166 1.375 1_455 S
N168 C165 1.347 . S
N168 C169 1.373 . S
C169 C166 1.350 1_455 S
C169 N168 1.373 . S
C169 H190 0.931 1_455 S
H170 C165 0.931 . S
H171 C166 0.930 . S
C172 O179 1.259 1_554 S
C172 O180 1.258 . S
N173 Co164 2.057 . S
N173 C174 1.316 . S
N173 C175 1.375 1_655 S
C174 N173 1.316 . S
C174 N176 1.347 . S
C174 H185 0.931 . S
C175 N173 1.375 1_455 S
C175 C177 1.350 1_455 S
C175 H184 0.930 . S
N176 C174 1.347 . S
N176 C177 1.373 . S
C177 C175 1.350 1_655 S
C177 N176 1.373 . S
C177 H191 0.931 1_655 S
C178 O181 1.256 . S
C178 O182 1.255 1_554 S
O179 Co162 2.021 . S
O179 C172 1.259 1_556 S
O180 Co164 2.117 1_455 S
O180 C172 1.258 . S
O181 Co164 2.020 1_455 S
O181 C178 1.256 . S
O182 Co162 2.062 . S
O182 C178 1.255 1_556 S
O183 C163 1.259 1_554 S
O183 Co164 2.021 . S
H184 C175 0.930 . S
H185 C174 0.931 . S
O186 Co162 2.117 1_655 S
O186 C163 1.258 . S
O187 Co162 2.020 1_655 S
O187 C189 1.256 . S
O188 Co164 2.062 . S
O188 C189 1.255 1_554 S
C189 O187 1.256 . S
C189 O188 1.255 1_556 S
H190 C169 0.931 1_655 S
H191 C177 0.931 1_455 S
H192 C204 0.930 . S
H193 C206 0.930 . S
H194 C207 0.930 . S
H195 C211 0.959 . S
H196 C211 0.959 1_565 S
H197 C211 0.960 1_565 S
H198 C212 0.960 . S
H199 C212 0.961 . S
H200 C212 0.959 . S
H201 C215 0.929 . S
H202 C216 0.931 . S
H203 C218 0.941 . S
C204 H192 0.930 . S
C204 C205 1.399 . S
C204 C209 1.399 . S
C205 C204 1.399 . S
C205 C206 1.376 . S
C206 H193 0.930 . S
C206 C205 1.376 . S
C206 C207 1.388 . S
C207 H194 0.930 . S
C207 C206 1.388 . S
C207 C208 1.390 . S
C208 C207 1.390 . S
C208 C209 1.394 . S
C208 C214 1.465 . S
C209 C204 1.399 . S
C209 C208 1.394 . S
C209 C210 1.516 . S
C210 C209 1.516 . S
C210 C211 1.502 . S
C210 C212 1.561 1_545 S
C210 C213 1.526 . S
C211 H195 0.959 . S
C211 H196 0.959 1_545 S
C211 H197 0.960 1_545 S
C211 C210 1.502 . S
C212 H198 0.960 . S
C212 H199 0.961 . S
C212 H200 0.959 . S
C212 C210 1.561 1_565 S
C213 C210 1.526 . S
C213 C214 1.396 . S
C213 C218 1.390 . S
C214 C208 1.465 . S
C214 C213 1.396 . S
C214 C215 1.399 . S
C215 H201 0.929 . S
C215 C214 1.399 . S
C215 C216 1.385 . S
C216 H202 0.931 . S
C216 C215 1.385 . S
C216 C217 1.389 . S
C217 C216 1.389 . S
C217 C218 1.387 . S
C218 H203 0.941 . S
C218 C213 1.390 . S
C218 C217 1.387 . S
H219 C231 0.930 . S
H220 C233 0.930 . S
H221 C234 0.930 . S
H222 C238 0.959 . S
H223 C238 0.959 1_545 S
H224 C238 0.961 . S
H225 C239 0.960 . S
H226 C239 0.961 1_545 S
H227 C239 0.959 . S
H228 C242 0.929 . S
H229 C243 0.931 . S
H230 C245 0.930 . S
C231 H219 0.930 . S
C231 C232 1.399 . S
C231 C236 1.399 . S
C232 C231 1.399 . S
C232 C233 1.376 . S
C233 H220 0.930 . S
C233 C232 1.376 . S
C233 C234 1.388 . S
C234 H221 0.930 . S
C234 C233 1.388 . S
C234 C235 1.390 . S
C235 C234 1.390 . S
C235 C236 1.394 . S
C235 C241 1.465 . S
C236 C231 1.399 . S
C236 C235 1.394 . S
C236 C237 1.516 . S
C237 C236 1.516 . S
C237 C238 1.502 . S
C237 C239 1.561 . S
C237 C240 1.526 . S
C238 H222 0.959 . S
C238 H223 0.959 1_565 S
C238 H224 0.961 . S
C238 C237 1.502 . S
C239 H225 0.960 . S
C239 H226 0.961 1_565 S
C239 H227 0.959 . S
C239 C237 1.561 . S
C240 C237 1.526 . S
C240 C241 1.396 . S
C240 C245 1.390 . S
C241 C235 1.465 . S
C241 C240 1.396 . S
C241 C242 1.399 . S
C242 H228 0.929 . S
C242 C241 1.399 . S
C242 C243 1.385 . S
C243 H229 0.931 . S
C243 C242 1.385 . S
C243 C244 1.389 . S
C244 C243 1.389 . S
C244 C245 1.387 . S
C245 H230 0.930 . S
C245 C240 1.390 . S
C245 C244 1.387 . S
H246 C258 0.930 . S
H247 C260 0.930 . S
H248 C261 0.930 . S
H249 C265 0.959 . S
H250 C265 0.959 . S
H251 C265 0.961 . S
H252 C266 0.960 . S
H253 C266 0.961 . S
H254 C266 0.959 . S
H255 C269 0.929 . S
H256 C270 0.931 . S
H257 C272 0.930 . S
C258 H246 0.930 . S
C258 C259 1.399 . S
C258 C263 1.399 . S
C259 C258 1.399 . S
C259 C260 1.376 . S
C260 H247 0.930 . S
C260 C259 1.376 . S
C260 C261 1.388 . S
C261 H248 0.930 . S
C261 C260 1.388 . S
C261 C262 1.390 . S
C262 C261 1.390 . S
C262 C263 1.394 . S
C262 C268 1.465 . S
C263 C258 1.399 . S
C263 C262 1.394 . S
C263 C264 1.516 . S
C264 C263 1.516 . S
C264 C265 1.502 . S
C264 C266 1.561 . S
C264 C267 1.526 . S
C265 H249 0.959 . S
C265 H250 0.959 . S
C265 H251 0.961 . S
C265 C264 1.502 . S
C266 H252 0.960 . S
C266 H253 0.961 . S
C266 H254 0.959 . S
C266 C264 1.561 . S
C267 C264 1.526 . S
C267 C268 1.396 . S
C267 C272 1.390 . S
C268 C262 1.465 . S
C268 C267 1.396 . S
C268 C269 1.399 . S
C269 H255 0.929 . S
C269 C268 1.399 . S
C269 C270 1.385 . S
C270 H256 0.931 . S
C270 C269 1.385 . S
C270 C271 1.389 . S
C271 C270 1.389 . S
C271 C272 1.387 . S
C272 H257 0.930 . S
C272 C267 1.390 . S
C272 C271 1.387 . S
H273 C285 0.930 . S
H274 C287 0.930 . S
H275 C288 0.930 . S
H276 C292 0.959 . S
H277 C292 0.959 . S
H278 C292 0.961 . S
H279 C293 0.960 . S
H280 C293 0.961 . S
H281 C293 0.959 . S
H282 C296 0.929 . S
H283 C297 0.931 . S
H284 C299 0.930 . S
C285 H273 0.930 . S
C285 C286 1.399 . S
C285 C290 1.399 . S
C286 C285 1.399 . S
C286 C287 1.376 . S
C287 H274 0.930 . S
C287 C286 1.376 . S
C287 C288 1.388 . S
C288 H275 0.930 . S
C288 C287 1.388 . S
C288 C289 1.390 . S
C289 C288 1.390 . S
C289 C290 1.394 . S
C289 C295 1.465 . S
C290 C285 1.399 . S
C290 C289 1.394 . S
C290 C291 1.516 . S
C291 C290 1.516 . S
C291 C292 1.502 . S
C291 C293 1.561 . S
C291 C294 1.526 . S
C292 H276 0.959 . S
C292 H277 0.959 . S
C292 H278 0.961 . S
C292 C291 1.502 . S
C293 H279 0.960 . S
C293 H280 0.961 . S
C293 H281 0.959 . S
C293 C291 1.561 . S
C294 C291 1.526 . S
C294 C295 1.396 . S
C294 C299 1.390 . S
C295 C289 1.465 . S
C295 C294 1.396 . S
C295 C296 1.399 . S
C296 H282 0.929 . S
C296 C295 1.399 . S
C296 C297 1.385 . S
C297 H283 0.931 . S
C297 C296 1.385 . S
C297 C298 1.389 . S
C298 C297 1.389 . S
C298 C299 1.387 . S
C299 H284 0.930 . S
C299 C294 1.390 . S
C299 C298 1.387 . S
H300 C312 0.930 . S
H301 C314 0.930 . S
H302 C315 0.930 . S
H303 C319 0.959 . S
H304 C319 0.959 . S
H305 C319 0.961 . S
H306 C320 0.960 . S
H307 C320 0.961 . S
H308 C320 0.959 . S
H309 C323 0.929 . S
H310 C324 0.931 . S
H311 C326 0.930 . S
C312 H300 0.930 . S
C312 C313 1.399 . S
C312 C317 1.399 . S
C313 C312 1.399 . S
C313 C314 1.376 . S
C314 H301 0.930 . S
C314 C313 1.376 . S
C314 C315 1.388 . S
C315 H302 0.930 . S
C315 C314 1.388 . S
C315 C316 1.390 . S
C316 C315 1.390 . S
C316 C317 1.394 . S
C316 C322 1.465 . S
C317 C312 1.399 . S
C317 C316 1.394 . S
C317 C318 1.516 . S
C318 C317 1.516 . S
C318 C319 1.502 . S
C318 C320 1.561 . S
C318 C321 1.526 . S
C319 H303 0.959 . S
C319 H304 0.959 . S
C319 H305 0.961 . S
C319 C318 1.502 . S
C320 H306 0.960 . S
C320 H307 0.961 . S
C320 H308 0.959 . S
C320 C318 1.561 . S
C321 C318 1.526 . S
C321 C322 1.396 . S
C321 C326 1.390 . S
C322 C316 1.465 . S
C322 C321 1.396 . S
C322 C323 1.399 . S
C323 H309 0.929 . S
C323 C322 1.399 . S
C323 C324 1.385 . S
C324 H310 0.931 . S
C324 C323 1.385 . S
C324 C325 1.389 . S
C325 C324 1.389 . S
C325 C326 1.387 . S
C326 H311 0.930 . S
C326 C321 1.390 . S
C326 C325 1.387 . S
H327 C339 0.930 . S
H328 C341 0.930 . S
H329 C342 0.930 . S
H330 C346 0.959 . S
H331 C346 0.959 . S
H332 C346 0.961 . S
H333 C347 0.960 . S
H334 C347 0.961 . S
H335 C347 0.959 . S
H336 C350 0.929 . S
H337 C351 0.931 . S
H338 C353 0.930 . S
C339 H327 0.930 . S
C339 C340 1.399 . S
C339 C344 1.399 . S
C340 C339 1.399 . S
C340 C341 1.376 . S
C341 H328 0.930 . S
C341 C340 1.376 . S
C341 C342 1.388 . S
C342 H329 0.930 . S
C342 C341 1.388 . S
C342 C343 1.390 . S
C343 C342 1.390 . S
C343 C344 1.394 . S
C343 C349 1.465 . S
C344 C339 1.399 . S
C344 C343 1.394 . S
C344 C345 1.516 . S
C345 C344 1.516 . S
C345 C346 1.502 . S
C345 C347 1.561 . S
C345 C348 1.526 . S
C346 H330 0.959 . S
C346 H331 0.959 . S
C346 H332 0.961 . S
C346 C345 1.502 . S
C347 H333 0.960 . S
C347 H334 0.961 . S
C347 H335 0.959 . S
C347 C345 1.561 . S
C348 C345 1.526 . S
C348 C349 1.396 . S
C348 C353 1.390 . S
C349 C343 1.465 . S
C349 C348 1.396 . S
C349 C350 1.399 . S
C350 H336 0.929 . S
C350 C349 1.399 . S
C350 C351 1.385 . S
C351 H337 0.931 . S
C351 C350 1.385 . S
C351 C352 1.389 . S
C352 C351 1.389 . S
C352 C353 1.387 . S
C353 H338 0.930 . S
C353 C348 1.390 . S
C353 C352 1.387 . S
H354 C366 0.930 . S
H355 C368 0.930 . S
H356 C369 0.930 . S
H357 C373 0.959 . S
H358 C373 0.959 . S
H359 C373 0.961 . S
H360 C374 0.960 . S
H361 C374 0.961 . S
H362 C374 0.959 . S
H363 C377 0.929 . S
H364 C378 0.931 . S
H365 C380 0.930 . S
C366 H354 0.930 . S
C366 C367 1.399 . S
C366 C371 1.399 . S
C367 C366 1.399 . S
C367 C368 1.376 . S
C368 H355 0.930 . S
C368 C367 1.376 . S
C368 C369 1.388 . S
C369 H356 0.930 . S
C369 C368 1.388 . S
C369 C370 1.390 . S
C370 C369 1.390 . S
C370 C371 1.394 . S
C370 C376 1.465 . S
C371 C366 1.399 . S
C371 C370 1.394 . S
C371 C372 1.516 . S
C372 C371 1.516 . S
C372 C373 1.502 . S
C372 C374 1.561 . S
C372 C375 1.526 . S
C373 H357 0.959 . S
C373 H358 0.959 . S
C373 H359 0.961 . S
C373 C372 1.502 . S
C374 H360 0.960 . S
C374 H361 0.961 . S
C374 H362 0.959 . S
C374 C372 1.561 . S
C375 C372 1.526 . S
C375 C376 1.396 . S
C375 C380 1.390 . S
C376 C370 1.465 . S
C376 C375 1.396 . S
C376 C377 1.399 . S
C377 H363 0.929 . S
C377 C376 1.399 . S
C377 C378 1.385 . S
C378 H364 0.931 . S
C378 C377 1.385 . S
C378 C379 1.389 . S
C379 C378 1.389 . S
C379 C380 1.387 . S
C380 H365 0.930 . S
C380 C375 1.390 . S
C380 C379 1.387 . S
H381 C393 0.930 . S
H382 C395 0.930 . S
H383 C396 0.930 . S
H384 C400 0.959 . S
H385 C400 0.959 . S
H386 C400 0.961 . S
H387 C401 0.960 . S
H388 C401 0.961 . S
H389 C401 0.959 . S
H390 C404 0.929 . S
H391 C405 0.931 . S
H392 C407 0.930 . S
C393 H381 0.930 . S
C393 C394 1.399 . S
C393 C398 1.399 . S
C394 C393 1.399 . S
C394 C395 1.376 . S
C395 H382 0.930 . S
C395 C394 1.376 . S
C395 C396 1.388 . S
C396 H383 0.930 . S
C396 C395 1.388 . S
C396 C397 1.390 . S
C397 C396 1.390 . S
C397 C398 1.394 . S
C397 C403 1.465 . S
C398 C393 1.399 . S
C398 C397 1.394 . S
C398 C399 1.516 . S
C399 C398 1.516 . S
C399 C400 1.502 . S
C399 C401 1.561 . S
C399 C402 1.526 . S
C400 H384 0.959 . S
C400 H385 0.959 . S
C400 H386 0.961 . S
C400 C399 1.502 . S
C401 H387 0.960 . S
C401 H388 0.961 . S
C401 H389 0.959 . S
C401 C399 1.561 . S
C402 C399 1.526 . S
C402 C403 1.396 . S
C402 C407 1.390 . S
C403 C397 1.465 . S
C403 C402 1.396 . S
C403 C404 1.399 . S
C404 H390 0.929 . S
C404 C403 1.399 . S
C404 C405 1.385 . S
C405 H391 0.931 . S
C405 C404 1.385 . S
C405 C406 1.389 . S
C406 C405 1.389 . S
C406 C407 1.387 . S
C407 H392 0.930 . S
C407 C402 1.390 . S
C407 C406 1.387 . S
H408 C420 0.930 . S
H409 C422 0.930 . S
H410 C423 0.930 . S
H411 C427 0.959 . S
H412 C427 0.959 . S
H413 C427 0.961 . S
H414 C428 0.960 . S
H415 C428 0.961 . S
H416 C428 0.959 . S
H417 C431 0.929 1_556 S
H418 C432 0.931 1_556 S
H419 C434 0.930 . S
C420 H408 0.930 . S
C420 C421 1.399 . S
C420 C425 1.399 . S
C421 C420 1.399 . S
C421 C422 1.376 . S
C422 H409 0.930 . S
C422 C421 1.376 . S
C422 C423 1.388 . S
C423 H410 0.930 . S
C423 C422 1.388 . S
C423 C424 1.390 . S
C424 C423 1.390 . S
C424 C425 1.394 . S
C424 C430 1.465 . S
C425 C420 1.399 . S
C425 C424 1.394 . S
C425 C426 1.516 . S
C426 C425 1.516 . S
C426 C427 1.502 . S
C426 C428 1.561 . S
C426 C429 1.526 . S
C427 H411 0.959 . S
C427 H412 0.959 . S
C427 H413 0.961 . S
C427 C426 1.502 . S
C428 H414 0.960 . S
C428 H415 0.961 . S
C428 H416 0.959 . S
C428 C426 1.561 . S
C429 C426 1.526 . S
C429 C430 1.396 . S
C429 C434 1.390 . S
C430 C424 1.465 . S
C430 C429 1.396 . S
C430 C431 1.399 . S
C431 H417 0.929 1_554 S
C431 C430 1.399 . S
C431 C432 1.385 . S
C432 H418 0.931 1_554 S
C432 C431 1.385 . S
C432 C433 1.389 . S
C433 C432 1.389 . S
C433 C434 1.387 . S
C434 H419 0.930 . S
C434 C429 1.390 . S
C434 C433 1.387 . S
H435 C447 0.930 . S
H436 C449 0.930 . S
H437 C450 0.930 . S
H438 C454 0.944 1_556 S
H439 C454 0.978 . S
H440 C454 0.969 . S
H441 C455 0.960 . S
H442 C455 0.961 . S
H443 C455 0.959 1_556 S
H444 C458 0.929 . S
H445 C459 0.931 . S
H446 C461 0.930 1_554 S
C447 H435 0.930 . S
C447 C448 1.399 . S
C447 C452 1.399 . S
C448 C447 1.399 . S
C448 C449 1.376 . S
C449 H436 0.930 . S
C449 C448 1.376 . S
C449 C450 1.388 . S
C450 H437 0.930 . S
C450 C449 1.388 . S
C450 C451 1.390 . S
C451 C450 1.390 . S
C451 C452 1.394 . S
C451 C457 1.465 . S
C452 C447 1.399 . S
C452 C451 1.394 . S
C452 C453 1.516 . S
C453 C452 1.516 . S
C453 C454 1.490 1_556 S
C453 C455 1.561 1_556 S
C453 C456 1.526 . S
C454 H438 0.944 1_554 S
C454 H439 0.978 . S
C454 H440 0.969 . S
C454 C453 1.490 1_554 S
C455 H441 0.960 . S
C455 H442 0.961 . S
C455 H443 0.959 1_554 S
C455 C453 1.561 1_554 S
C456 C453 1.526 . S
C456 C457 1.396 . S
C456 C461 1.390 . S
C457 C451 1.465 . S
C457 C456 1.396 . S
C457 C458 1.399 . S
C458 H444 0.929 . S
C458 C457 1.399 . S
C458 C459 1.385 . S
C459 H445 0.931 . S
C459 C458 1.385 . S
C459 C460 1.389 . S
C460 C459 1.389 . S
C460 C461 1.387 . S
C461 H446 0.930 1_556 S
C461 C456 1.390 . S
C461 C460 1.387 . S
H462 C474 0.930 . S
H463 C476 0.930 . S
H464 C477 0.930 . S
H465 C481 0.959 . S
H466 C481 0.959 . S
H467 C481 0.961 . S
H468 C482 0.960 . S
H469 C482 0.961 . S
H470 C482 0.959 . S
H471 C485 0.929 . S
H472 C486 0.931 . S
H473 C488 0.926 1_455 S
C474 H462 0.930 . S
C474 C475 1.399 . S
C474 C479 1.399 . S
C475 C474 1.399 . S
C475 C476 1.376 . S
C476 H463 0.930 . S
C476 C475 1.376 . S
C476 C477 1.388 . S
C477 H464 0.930 . S
C477 C476 1.388 . S
C477 C478 1.390 . S
C478 C477 1.390 . S
C478 C479 1.394 . S
C478 C484 1.465 . S
C479 C474 1.399 . S
C479 C478 1.394 . S
C479 C480 1.516 . S
C480 C479 1.516 . S
C480 C481 1.502 1_655 S
C480 C482 1.561 . S
C480 C483 1.526 . S
C481 H465 0.959 . S
C481 H466 0.959 . S
C481 H467 0.961 . S
C481 C480 1.502 1_455 S
C482 H468 0.960 . S
C482 H469 0.961 . S
C482 H470 0.959 . S
C482 C480 1.561 . S
C483 C480 1.526 . S
C483 C484 1.396 . S
C483 C488 1.390 . S
C484 C478 1.465 . S
C484 C483 1.396 . S
C484 C485 1.399 . S
C485 H471 0.929 . S
C485 C484 1.399 . S
C485 C486 1.385 . S
C486 H472 0.931 . S
C486 C485 1.385 . S
C486 C487 1.389 . S
C487 C486 1.389 . S
C487 C488 1.387 . S
C488 H473 0.926 1_655 S
C488 C483 1.390 . S
C488 C487 1.387 . S
H489 C501 0.930 . S
H490 C503 0.930 . S
H491 C504 0.930 . S
H492 C508 0.959 . S
H493 C508 0.959 . S
H494 C508 0.961 . S
H495 C509 0.960 . S
H496 C509 0.961 . S
H497 C509 0.959 . S
H498 C512 0.929 . S
H499 C513 0.931 . S
H500 C515 0.930 . S
C501 H489 0.930 . S
C501 C502 1.399 . S
C501 C506 1.399 . S
C502 C501 1.399 . S
C502 C503 1.376 . S
C503 H490 0.930 . S
C503 C502 1.376 . S
C503 C504 1.388 . S
C504 H491 0.930 . S
C504 C503 1.388 . S
C504 C505 1.390 . S
C505 C504 1.390 . S
C505 C506 1.394 . S
C505 C511 1.465 . S
C506 C501 1.399 . S
C506 C505 1.394 . S
C506 C507 1.516 . S
C507 C506 1.516 . S
C507 C508 1.502 . S
C507 C509 1.561 . S
C507 C510 1.526 . S
C508 H492 0.959 . S
C508 H493 0.959 . S
C508 H494 0.961 . S
C508 C507 1.502 . S
C509 H495 0.960 . S
C509 H496 0.961 . S
C509 H497 0.959 . S
C509 C507 1.561 . S
C510 C507 1.526 . S
C510 C511 1.396 . S
C510 C515 1.390 . S
C511 C505 1.465 . S
C511 C510 1.396 . S
C511 C512 1.399 . S
C512 H498 0.929 . S
C512 C511 1.399 . S
C512 C513 1.385 . S
C513 H499 0.931 . S
C513 C512 1.385 . S
C513 C514 1.389 . S
C514 C513 1.389 . S
C514 C515 1.387 . S
C515 H500 0.930 . S
C515 C510 1.390 . S
C515 C514 1.387 . S
H516 C528 0.930 . S
H517 C530 0.930 . S
H518 C531 0.930 1_545 S
H519 C535 0.959 . S
H520 C535 0.959 . S
H521 C535 0.961 . S
H522 C536 0.960 . S
H523 C536 0.961 . S
H524 C536 0.959 . S
H525 C539 0.929 . S
H526 C540 0.931 . S
H527 C542 0.930 . S
C528 H516 0.930 . S
C528 C529 1.399 . S
C528 C533 1.399 . S
C529 C528 1.399 . S
C529 C530 1.376 . S
C530 H517 0.930 . S
C530 C529 1.376 . S
C530 C531 1.388 . S
C531 H518 0.930 1_565 S
C531 C530 1.388 . S
C531 C532 1.390 . S
C532 C531 1.390 . S
C532 C533 1.394 . S
C532 C538 1.465 . S
C533 C528 1.399 . S
C533 C532 1.394 . S
C533 C534 1.516 . S
C534 C533 1.516 . S
C534 C535 1.502 . S
C534 C536 1.561 . S
C534 C537 1.526 . S
C535 H519 0.959 . S
C535 H520 0.959 . S
C535 H521 0.961 . S
C535 C534 1.502 . S
C536 H522 0.960 . S
C536 H523 0.961 . S
C536 H524 0.959 . S
C536 C534 1.561 . S
C537 C534 1.526 . S
C537 C538 1.396 . S
C537 C542 1.390 . S
C538 C532 1.465 . S
C538 C537 1.396 . S
C538 C539 1.399 1_565 S
C539 H525 0.929 . S
C539 C538 1.399 1_545 S
C539 C540 1.385 . S
C540 H526 0.931 . S
C540 C539 1.385 . S
C540 C541 1.389 1_545 S
C541 C540 1.389 1_565 S
C541 C542 1.387 . S
C542 H527 0.930 . S
C542 C537 1.390 . S
C542 C541 1.387 . S
H543 C555 0.930 . S
H544 C557 0.930 . S
H545 C558 0.930 . S
H546 C562 0.959 . S
H547 C562 0.959 . S
H548 C562 0.961 . S
H549 C563 0.960 . S
H550 C563 0.961 . S
H551 C563 0.959 . S
H552 C566 0.929 . S
H553 C567 0.931 1_565 S
H554 C569 0.930 . S
C555 H543 0.930 . S
C555 C556 1.399 . S
C555 C560 1.399 . S
C556 C555 1.399 . S
C556 C557 1.376 . S
C557 H544 0.930 . S
C557 C556 1.376 . S
C557 C558 1.388 . S
C558 H545 0.930 . S
C558 C557 1.388 . S
C558 C559 1.390 . S
C559 C558 1.390 . S
C559 C560 1.394 . S
C559 C565 1.465 . S
C560 C555 1.399 . S
C560 C559 1.394 . S
C560 C561 1.516 . S
C561 C560 1.516 . S
C561 C562 1.502 . S
C561 C563 1.561 . S
C561 C564 1.526 . S
C562 H546 0.959 . S
C562 H547 0.959 . S
C562 H548 0.961 . S
C562 C561 1.502 . S
C563 H549 0.960 . S
C563 H550 0.961 . S
C563 H551 0.959 . S
C563 C561 1.561 . S
C564 C561 1.526 . S
C564 C565 1.396 . S
C564 C569 1.390 . S
C565 C559 1.465 . S
C565 C564 1.396 . S
C565 C566 1.399 . S
C566 H552 0.929 . S
C566 C565 1.399 . S
C566 C567 1.385 . S
C567 H553 0.931 1_545 S
C567 C566 1.385 . S
C567 C568 1.389 . S
C568 C567 1.389 . S
C568 C569 1.387 . S
C569 H554 0.930 . S
C569 C564 1.390 . S
C569 C568 1.387 . S
H570 C582 0.930 . S
H571 C584 0.930 . S
H572 C585 0.930 . S
H573 C589 0.959 . S
H574 C589 0.959 . S
H575 C589 0.961 . S
H576 C590 0.960 . S
H577 C590 0.961 . S
H578 C590 0.959 . S
H579 C593 0.929 . S
H580 C594 0.931 . S
H581 C596 0.930 . S
C582 H570 0.930 . S
C582 C583 1.399 . S
C582 C587 1.399 . S
C583 C582 1.399 . S
C583 C584 1.376 . S
C584 H571 0.930 . S
C584 C583 1.376 . S
C584 C585 1.388 . S
C585 H572 0.930 . S
C585 C584 1.388 . S
C585 C586 1.390 . S
C586 C585 1.390 . S
C586 C587 1.394 . S
C586 C592 1.465 . S
C587 C582 1.399 . S
C587 C586 1.394 . S
C587 C588 1.516 . S
C588 C587 1.516 . S
C588 C589 1.502 . S
C588 C590 1.561 . S
C588 C591 1.526 . S
C589 H573 0.959 . S
C589 H574 0.959 . S
C589 H575 0.961 . S
C589 C588 1.502 . S
C590 H576 0.960 . S
C590 H577 0.961 . S
C590 H578 0.959 . S
C590 C588 1.561 . S
C591 C588 1.526 . S
C591 C592 1.396 . S
C591 C596 1.390 . S
C592 C586 1.465 . S
C592 C591 1.396 . S
C592 C593 1.399 . S
C593 H579 0.929 . S
C593 C592 1.399 . S
C593 C594 1.385 . S
C594 H580 0.931 . S
C594 C593 1.385 . S
C594 C595 1.389 . S
C595 C594 1.389 . S
C595 C596 1.387 . S
C596 H581 0.930 . S
C596 C591 1.390 . S
C596 C595 1.387 . S
H597 C609 0.930 . S
H598 C611 0.930 . S
H599 C612 0.930 . S
H600 C616 0.959 . S
H601 C616 0.959 . S
H602 C616 0.961 . S
H603 C617 0.960 . S
H604 C617 0.961 . S
H605 C617 0.959 . S
H606 C620 0.929 . S
H607 C621 0.931 . S
H608 C623 0.930 . S
C609 H597 0.930 . S
C609 C610 1.399 . S
C609 C614 1.399 . S
C610 C609 1.399 . S
C610 C611 1.376 . S
C611 H598 0.930 . S
C611 C610 1.376 . S
C611 C612 1.388 . S
C612 H599 0.930 . S
C612 C611 1.388 . S
C612 C613 1.390 . S
C613 C612 1.390 . S
C613 C614 1.394 . S
C613 C619 1.465 . S
C614 C609 1.399 . S
C614 C613 1.394 . S
C614 C615 1.516 . S
C615 C614 1.516 . S
C615 C616 1.502 . S
C615 C617 1.561 . S
C615 C618 1.526 . S
C616 H600 0.959 . S
C616 H601 0.959 . S
C616 H602 0.961 . S
C616 C615 1.502 . S
C617 H603 0.960 . S
C617 H604 0.961 . S
C617 H605 0.959 . S
C617 C615 1.561 . S
C618 C615 1.526 . S
C618 C619 1.396 . S
C618 C623 1.390 . S
C619 C613 1.465 . S
C619 C618 1.396 . S
C619 C620 1.399 . S
C620 H606 0.929 . S
C620 C619 1.399 . S
C620 C621 1.385 . S
C621 H607 0.931 . S
C621 C620 1.385 . S
C621 C622 1.389 . S
C622 C621 1.389 . S
C622 C623 1.387 . S
C623 H608 0.930 . S
C623 C618 1.390 . S
C623 C622 1.387 . S
H624 C636 0.930 . S
H625 C638 0.930 . S
H626 C639 0.930 1_545 S
H627 C643 0.959 . S
H628 C643 0.959 . S
H629 C643 0.961 . S
H630 C644 0.960 . S
H631 C644 0.961 . S
H632 C644 0.959 1_554 S
H633 C647 0.932 . S
H634 C648 0.931 . S
H635 C650 0.930 . S
C636 H624 0.930 . S
C636 C637 1.399 . S
C636 C641 1.399 . S
C637 C636 1.399 . S
C637 C638 1.376 . S
C638 H625 0.930 . S
C638 C637 1.376 . S
C638 C639 1.388 . S
C639 H626 0.930 1_565 S
C639 C638 1.388 . S
C639 C640 1.390 . S
C640 C639 1.390 . S
C640 C641 1.394 . S
C640 C646 1.465 . S
C641 C636 1.399 . S
C641 C640 1.394 . S
C641 C642 1.516 . S
C642 C641 1.516 . S
C642 C643 1.502 . S
C642 C644 1.561 . S
C642 C645 1.526 . S
C643 H627 0.959 . S
C643 H628 0.959 . S
C643 H629 0.961 . S
C643 C642 1.502 . S
C644 H630 0.960 . S
C644 H631 0.961 . S
C644 H632 0.959 1_556 S
C644 C642 1.561 . S
C645 C642 1.526 . S
C645 C646 1.396 . S
C645 C650 1.390 . S
C646 C640 1.465 . S
C646 C645 1.396 . S
C646 C647 1.395 1_565 S
C647 H633 0.932 . S
C647 C646 1.395 1_545 S
C647 C648 1.385 . S
C648 H634 0.931 . S
C648 C647 1.385 . S
C648 C649 1.389 1_545 S
C649 C648 1.389 1_565 S
C649 C650 1.387 . S
C650 H635 0.930 . S
C650 C645 1.390 . S
C650 C649 1.387 . S
H651 C663 0.930 . S
H652 C665 0.930 . S
H653 C666 0.930 . S
H654 C670 0.959 . S
H655 C670 0.959 . S
H656 C670 0.961 . S
H657 C671 0.960 . S
H658 C671 0.961 . S
H659 C671 0.959 . S
H660 C674 0.929 . S
H661 C675 0.931 . S
H662 C677 0.930 . S
C663 H651 0.930 . S
C663 C664 1.399 . S
C663 C668 1.399 . S
C664 C663 1.399 . S
C664 C665 1.376 . S
C665 H652 0.930 . S
C665 C664 1.376 . S
C665 C666 1.388 . S
C666 H653 0.930 . S
C666 C665 1.388 . S
C666 C667 1.390 . S
C667 C666 1.390 . S
C667 C668 1.394 . S
C667 C673 1.465 . S
C668 C663 1.399 . S
C668 C667 1.394 . S
C668 C669 1.516 . S
C669 C668 1.516 . S
C669 C670 1.502 . S
C669 C671 1.561 . S
C669 C672 1.526 . S
C670 H654 0.959 . S
C670 H655 0.959 . S
C670 H656 0.961 . S
C670 C669 1.502 . S
C671 H657 0.960 . S
C671 H658 0.961 . S
C671 H659 0.959 . S
C671 C669 1.561 . S
C672 C669 1.526 . S
C672 C673 1.396 . S
C672 C677 1.390 . S
C673 C667 1.465 . S
C673 C672 1.396 . S
C673 C674 1.399 . S
C674 H660 0.929 . S
C674 C673 1.399 . S
C674 C675 1.385 . S
C675 H661 0.931 . S
C675 C674 1.385 . S
C675 C676 1.389 . S
C676 C675 1.389 . S
C676 C677 1.387 . S
C677 H662 0.930 . S
C677 C672 1.390 . S
C677 C676 1.387 . S
H678 C690 0.930 . S
H679 C692 0.930 . S
H680 C693 0.930 . S
H681 C697 0.959 . S
H682 C697 0.959 . S
H683 C697 0.961 . S
H684 C698 0.960 . S
H685 C698 0.961 . S
H686 C698 0.959 . S
H687 C701 0.929 . S
H688 C702 0.931 . S
H689 C704 0.930 . S
C690 H678 0.930 . S
C690 C691 1.399 . S
C690 C695 1.399 . S
C691 C690 1.399 . S
C691 C692 1.376 . S
C692 H679 0.930 . S
C692 C691 1.376 . S
C692 C693 1.388 . S
C693 H680 0.930 . S
C693 C692 1.388 . S
C693 C694 1.390 . S
C694 C693 1.390 . S
C694 C695 1.394 . S
C694 C700 1.465 . S
C695 C690 1.399 . S
C695 C694 1.394 . S
C695 C696 1.516 . S
C696 C695 1.516 . S
C696 C697 1.502 . S
C696 C698 1.561 . S
C696 C699 1.526 . S
C697 H681 0.959 . S
C697 H682 0.959 . S
C697 H683 0.961 . S
C697 C696 1.502 . S
C698 H684 0.960 . S
C698 H685 0.961 . S
C698 H686 0.959 . S
C698 C696 1.561 . S
C699 C696 1.526 . S
C699 C700 1.396 . S
C699 C704 1.390 . S
C700 C694 1.465 . S
C700 C699 1.396 . S
C700 C701 1.399 . S
C701 H687 0.929 . S
C701 C700 1.399 . S
C701 C702 1.385 . S
C702 H688 0.931 . S
C702 C701 1.385 . S
C702 C703 1.389 . S
C703 C702 1.389 . S
C703 C704 1.387 . S
C704 H689 0.930 . S
C704 C699 1.390 . S
C704 C703 1.387 . S
H705 C717 0.930 . S
H706 C719 0.930 . S
H707 C720 0.930 . S
H708 C724 0.959 . S
H709 C724 0.959 . S
H710 C724 0.961 . S
H711 C725 0.960 . S
H712 C725 0.961 . S
H713 C725 0.959 . S
H714 C728 0.929 . S
H715 C729 0.931 . S
H716 C731 0.930 . S
C717 H705 0.930 . S
C717 C718 1.399 . S
C717 C722 1.399 . S
C718 C717 1.399 . S
C718 C719 1.376 . S
C719 H706 0.930 . S
C719 C718 1.376 . S
C719 C720 1.388 . S
C720 H707 0.930 . S
C720 C719 1.388 . S
C720 C721 1.390 . S
C721 C720 1.390 . S
C721 C722 1.394 . S
C721 C727 1.465 . S
C722 C717 1.399 . S
C722 C721 1.394 . S
C722 C723 1.516 . S
C723 C722 1.516 . S
C723 C724 1.502 . S
C723 C725 1.561 . S
C723 C726 1.526 . S
C724 H708 0.959 . S
C724 H709 0.959 . S
C724 H710 0.961 . S
C724 C723 1.502 . S
C725 H711 0.960 . S
C725 H712 0.961 . S
C725 H713 0.959 . S
C725 C723 1.561 . S
C726 C723 1.526 . S
C726 C727 1.396 . S
C726 C731 1.390 . S
C727 C721 1.465 . S
C727 C726 1.396 . S
C727 C728 1.399 . S
C728 H714 0.929 . S
C728 C727 1.399 . S
C728 C729 1.385 . S
C729 H715 0.931 . S
C729 C728 1.385 . S
C729 C730 1.389 . S
C730 C729 1.389 . S
C730 C731 1.387 . S
C731 H716 0.930 . S
C731 C726 1.390 . S
C731 C730 1.387 . S
H732 C744 0.930 . S
H733 C746 0.930 . S
H734 C747 0.930 1_554 S
H735 C751 0.959 . S
H736 C751 0.959 . S
H737 C751 0.961 . S
H738 C752 0.960 . S
H739 C752 0.961 . S
H740 C752 0.963 . S
H741 C755 0.929 . S
H742 C756 0.931 . S
H743 C758 0.930 . S
C744 H732 0.930 . S
C744 C745 1.399 . S
C744 C749 1.399 . S
C745 C744 1.399 . S
C745 C746 1.376 . S
C746 H733 0.930 . S
C746 C745 1.376 . S
C746 C747 1.388 . S
C747 H734 0.930 1_556 S
C747 C746 1.388 . S
C747 C748 1.390 . S
C748 C747 1.390 . S
C748 C749 1.394 . S
C748 C754 1.465 . S
C749 C744 1.399 . S
C749 C748 1.394 . S
C749 C750 1.516 . S
C750 C749 1.516 . S
C750 C751 1.502 . S
C750 C752 1.561 . S
C750 C753 1.526 . S
C751 H735 0.959 . S
C751 H736 0.959 . S
C751 H737 0.961 . S
C751 C750 1.502 . S
C752 H738 0.960 . S
C752 H739 0.961 . S
C752 H740 0.963 . S
C752 C750 1.561 . S
C753 C750 1.526 . S
C753 C754 1.396 . S
C753 C758 1.390 . S
C754 C748 1.465 . S
C754 C753 1.396 . S
C754 C755 1.399 1_556 S
C755 H741 0.929 . S
C755 C754 1.399 1_554 S
C755 C756 1.385 . S
C756 H742 0.931 . S
C756 C755 1.385 . S
C756 C757 1.389 1_554 S
C757 C756 1.389 1_556 S
C757 C758 1.387 . S
C758 H743 0.930 . S
C758 C753 1.390 . S
C758 C757 1.387 . S
H759 C771 0.930 . S
H760 C773 0.930 . S
H761 C774 0.930 . S
H762 C778 0.959 . S
H763 C778 0.959 . S
H764 C778 0.961 . S
H765 C779 0.960 . S
H766 C779 0.961 . S
H767 C779 0.959 . S
H768 C782 0.929 . S
H769 C783 0.931 . S
H770 C785 0.930 . S
C771 H759 0.930 . S
C771 C772 1.399 . S
C771 C776 1.399 . S
C772 C771 1.399 . S
C772 C773 1.376 . S
C773 H760 0.930 . S
C773 C772 1.376 . S
C773 C774 1.388 . S
C774 H761 0.930 . S
C774 C773 1.388 . S
C774 C775 1.390 . S
C775 C774 1.390 . S
C775 C776 1.394 . S
C775 C781 1.465 . S
C776 C771 1.399 . S
C776 C775 1.394 . S
C776 C777 1.516 . S
C777 C776 1.516 . S
C777 C778 1.502 . S
C777 C779 1.561 . S
C777 C780 1.526 . S
C778 H762 0.959 . S
C778 H763 0.959 . S
C778 H764 0.961 . S
C778 C777 1.502 . S
C779 H765 0.960 . S
C779 H766 0.961 . S
C779 H767 0.959 . S
C779 C777 1.561 . S
C780 C777 1.526 . S
C780 C781 1.396 . S
C780 C785 1.390 . S
C781 C775 1.465 . S
C781 C780 1.396 . S
C781 C782 1.399 . S
C782 H768 0.929 . S
C782 C781 1.399 . S
C782 C783 1.385 . S
C783 H769 0.931 . S
C783 C782 1.385 . S
C783 C784 1.389 . S
C784 C783 1.389 . S
C784 C785 1.387 . S
C785 H770 0.930 . S
C785 C780 1.390 . S
C785 C784 1.387 . S
H786 C798 0.930 . S
H787 C800 0.930 . S
H788 C801 0.930 . S
H789 C805 0.959 1_655 S
H790 C805 0.959 . S
H791 C805 0.961 . S
H792 C806 0.960 . S
H793 C806 0.961 . S
H794 C806 0.959 . S
H795 C809 0.929 . S
H796 C810 0.931 . S
H797 C812 0.930 . S
C798 H786 0.930 . S
C798 C799 1.399 . S
C798 C803 1.399 . S
C799 C798 1.399 . S
C799 C800 1.376 . S
C800 H787 0.930 . S
C800 C799 1.376 . S
C800 C801 1.388 . S
C801 H788 0.930 . S
C801 C800 1.388 . S
C801 C802 1.390 . S
C802 C801 1.390 . S
C802 C803 1.394 . S
C802 C808 1.465 . S
C803 C798 1.399 . S
C803 C802 1.394 . S
C803 C804 1.516 . S
C804 C803 1.516 . S
C804 C805 1.502 . S
C804 C806 1.561 . S
C804 C807 1.526 . S
C805 H789 0.959 1_455 S
C805 H790 0.959 . S
C805 H791 0.961 . S
C805 C804 1.502 . S
C806 H792 0.960 . S
C806 H793 0.961 . S
C806 H794 0.959 . S
C806 C804 1.561 . S
C807 C804 1.526 . S
C807 C808 1.396 . S
C807 C812 1.390 . S
C808 C802 1.465 . S
C808 C807 1.396 . S
C808 C809 1.399 . S
C809 H795 0.929 . S
C809 C808 1.399 . S
C809 C810 1.385 . S
C810 H796 0.931 . S
C810 C809 1.385 . S
C810 C811 1.389 . S
C811 C810 1.389 . S
C811 C812 1.387 . S
C812 H797 0.930 . S
C812 C807 1.390 . S
C812 C811 1.387 . S
H813 C825 0.930 . S
H814 C827 0.930 . S
H815 C828 0.930 . S
H816 C832 0.959 . S
H817 C832 0.959 . S
H818 C832 0.961 . S
H819 C833 0.960 . S
H820 C833 0.961 . S
H821 C833 0.959 . S
H822 C836 0.929 . S
H823 C837 0.931 . S
H824 C839 0.930 . S
C825 H813 0.930 . S
C825 C826 1.399 . S
C825 C830 1.399 . S
C826 C825 1.399 . S
C826 C827 1.376 . S
C827 H814 0.930 . S
C827 C826 1.376 . S
C827 C828 1.388 . S
C828 H815 0.930 . S
C828 C827 1.388 . S
C828 C829 1.390 . S
C829 C828 1.390 . S
C829 C830 1.394 . S
C829 C835 1.465 . S
C830 C825 1.399 . S
C830 C829 1.394 . S
C830 C831 1.516 . S
C831 C830 1.516 . S
C831 C832 1.502 . S
C831 C833 1.561 . S
C831 C834 1.526 . S
C832 H816 0.959 . S
C832 H817 0.959 . S
C832 H818 0.961 . S
C832 C831 1.502 . S
C833 H819 0.960 . S
C833 H820 0.961 . S
C833 H821 0.959 . S
C833 C831 1.561 . S
C834 C831 1.526 . S
C834 C835 1.396 . S
C834 C839 1.390 . S
C835 C829 1.465 . S
C835 C834 1.396 . S
C835 C836 1.399 . S
C836 H822 0.929 . S
C836 C835 1.399 . S
C836 C837 1.385 . S
C837 H823 0.931 . S
C837 C836 1.385 . S
C837 C838 1.389 . S
C838 C837 1.389 . S
C838 C839 1.387 . S
C839 H824 0.930 . S
C839 C834 1.390 . S
C839 C838 1.387 . S
C205 C5 2.077 . S
C217 C88 2.101 . S
C232 C14 1.079 . S
C244 N108 1.022 . S
C271 C142 1.945 . S
C259 C25 1.956 . S
C286 C34 1.253 . S
C298 N176 1.128 . S
C325 C129 2.238 . S
C313 C7 2.241 . S
C352 N86 1.123 . S
C340 C13 1.106 . S
C379 C163 1.984 . S
C367 C23 1.972 . S
C406 N138 0.956 . S
C394 C31 0.951 . S
C421 C4 1.762 . S
C433 C178 1.767 . S
C460 C112 1.667 . S
C448 C22 1.652 . S
C475 C32 1.350 . S
C487 C73 1.384 . S
C502 C16 1.341 . S
C514 C159 1.370 . S
C541 C99 2.083 . S
C529 C41 2.081 . S
C556 C50 1.084 . S
C568 N116 1.103 . S
C583 C61 1.942 . S
C595 C133 1.936 . S
C610 C67 1.218 . S
C622 N168 1.196 . S
C637 C40 2.257 . S
C649 C118 2.253 . S
C676 N78 1.083 . S
C664 C52 1.104 . S
C703 C172 1.988 . S
C691 C59 1.963 . S
C730 N146 0.925 . S
C718 C70 0.943 . S
C745 C43 1.767 . S
C757 C189 1.766 . S
C784 C103 1.671 . S
C772 C58 1.657 . S
C811 C82 1.369 . S
C799 C68 1.320 . S
C826 C49 1.386 . S
C838 C148 1.368 . S
