# Generated by pormake.
# Topology bpr, (3,3)-cn, num edge types: 1
# Building blocks:
#     Node 0, Type 0, BuildingBlock: WUSLED_clean_sbu_0, # of connection points: 3
#     Node 1, Type 0, BuildingBlock: WUSLED_clean_sbu_0, # of connection points: 3
#     Node 2, Type 0, BuildingBlock: WUSLED_clean_sbu_0, # of connection points: 3
#     Node 3, Type 0, BuildingBlock: WUSLED_clean_sbu_0, # of connection points: 3
#     Node 4, Type 0, BuildingBlock: WUSLED_clean_sbu_0, # of connection points: 3
#     Node 5, Type 0, BuildingBlock: WUSLED_clean_sbu_0, # of connection points: 3
#     Node 6, Type 0, BuildingBlock: WUSLED_clean_sbu_0, # of connection points: 3
#     Node 7, Type 0, BuildingBlock: WUSLED_clean_sbu_0, # of connection points: 3
#     Node 8, Type 0, BuildingBlock: WUSLED_clean_sbu_0, # of connection points: 3
#     Node 9, Type 0, BuildingBlock: WUSLED_clean_sbu_0, # of connection points: 3
#     Node 10, Type 0, BuildingBlock: WUSLED_clean_sbu_0, # of connection points: 3
#     Node 11, Type 0, BuildingBlock: WUSLED_clean_sbu_0, # of connection points: 3
#     Node 12, Type 0, BuildingBlock: WUSLED_clean_sbu_0, # of connection points: 3
#     Node 13, Type 0, BuildingBlock: WUSLED_clean_sbu_0, # of connection points: 3
#     Node 14, Type 0, BuildingBlock: WUSLED_clean_sbu_0, # of connection points: 3
#     Node 15, Type 0, BuildingBlock: WUSLED_clean_sbu_0, # of connection points: 3
#     Node 16, Type 0, BuildingBlock: WUSLED_clean_sbu_0, # of connection points: 3
#     Node 17, Type 0, BuildingBlock: WUSLED_clean_sbu_0, # of connection points: 3
#     Node 18, Type 0, BuildingBlock: WUSLED_clean_sbu_0, # of connection points: 3
#     Node 19, Type 0, BuildingBlock: WUSLED_clean_sbu_0, # of connection points: 3
#     Node 20, Type 0, BuildingBlock: WUSLED_clean_sbu_0, # of connection points: 3
#     Node 21, Type 0, BuildingBlock: WUSLED_clean_sbu_0, # of connection points: 3
#     Node 22, Type 0, BuildingBlock: WUSLED_clean_sbu_0, # of connection points: 3
#     Node 23, Type 0, BuildingBlock: WUSLED_clean_sbu_0, # of connection points: 3
#     Node 24, Type 0, BuildingBlock: WUSLED_clean_sbu_0, # of connection points: 3
#     Node 25, Type 0, BuildingBlock: WUSLED_clean_sbu_0, # of connection points: 3
#     Node 26, Type 0, BuildingBlock: WUSLED_clean_sbu_0, # of connection points: 3
#     Node 27, Type 0, BuildingBlock: WUSLED_clean_sbu_0, # of connection points: 3
#     Node 28, Type 0, BuildingBlock: WUSLED_clean_sbu_0, # of connection points: 3
#     Node 29, Type 0, BuildingBlock: WUSLED_clean_sbu_0, # of connection points: 3
#     Node 30, Type 0, BuildingBlock: WUSLED_clean_sbu_0, # of connection points: 3
#     Node 31, Type 0, BuildingBlock: WUSLED_clean_sbu_0, # of connection points: 3
#     Node 32, Type 0, BuildingBlock: WUSLED_clean_sbu_0, # of connection points: 3
#     Node 33, Type 0, BuildingBlock: WUSLED_clean_sbu_0, # of connection points: 3
#     Node 34, Type 0, BuildingBlock: WUSLED_clean_sbu_0, # of connection points: 3
#     Node 35, Type 0, BuildingBlock: WUSLED_clean_sbu_0, # of connection points: 3
#     Node 36, Type 0, BuildingBlock: WUSLED_clean_sbu_0, # of connection points: 3
#     Node 37, Type 0, BuildingBlock: WUSLED_clean_sbu_0, # of connection points: 3
#     Node 38, Type 0, BuildingBlock: WUSLED_clean_sbu_0, # of connection points: 3
#     Node 39, Type 0, BuildingBlock: WUSLED_clean_sbu_0, # of connection points: 3
#     Node 40, Type 0, BuildingBlock: WUSLED_clean_sbu_0, # of connection points: 3
#     Node 41, Type 0, BuildingBlock: WUSLED_clean_sbu_0, # of connection points: 3
#     Node 42, Type 0, BuildingBlock: WUSLED_clean_sbu_0, # of connection points: 3
#     Node 43, Type 0, BuildingBlock: WUSLED_clean_sbu_0, # of connection points: 3
#     Node 44, Type 0, BuildingBlock: WUSLED_clean_sbu_0, # of connection points: 3
#     Node 45, Type 0, BuildingBlock: WUSLED_clean_sbu_0, # of connection points: 3
#     Node 46, Type 0, BuildingBlock: WUSLED_clean_sbu_0, # of connection points: 3
#     Node 47, Type 0, BuildingBlock: WUSLED_clean_sbu_0, # of connection points: 3
#     Node 48, Type 1, BuildingBlock: ESEHIV_clean_linker_0, # of connection points: 3
#     Node 49, Type 1, BuildingBlock: ESEHIV_clean_linker_0, # of connection points: 3
#     Node 50, Type 1, BuildingBlock: ESEHIV_clean_linker_0, # of connection points: 3
#     Node 51, Type 1, BuildingBlock: ESEHIV_clean_linker_0, # of connection points: 3
#     Node 52, Type 1, BuildingBlock: ESEHIV_clean_linker_0, # of connection points: 3
#     Node 53, Type 1, BuildingBlock: ESEHIV_clean_linker_0, # of connection points: 3
#     Node 54, Type 1, BuildingBlock: ESEHIV_clean_linker_0, # of connection points: 3
#     Node 55, Type 1, BuildingBlock: ESEHIV_clean_linker_0, # of connection points: 3
#     Node 56, Type 1, BuildingBlock: ESEHIV_clean_linker_0, # of connection points: 3
#     Node 57, Type 1, BuildingBlock: ESEHIV_clean_linker_0, # of connection points: 3
#     Node 58, Type 1, BuildingBlock: ESEHIV_clean_linker_0, # of connection points: 3
#     Node 59, Type 1, BuildingBlock: ESEHIV_clean_linker_0, # of connection points: 3
#     Node 60, Type 1, BuildingBlock: ESEHIV_clean_linker_0, # of connection points: 3
#     Node 61, Type 1, BuildingBlock: ESEHIV_clean_linker_0, # of connection points: 3
#     Node 62, Type 1, BuildingBlock: ESEHIV_clean_linker_0, # of connection points: 3
#     Node 63, Type 1, BuildingBlock: ESEHIV_clean_linker_0, # of connection points: 3
#     Node 64, Type 1, BuildingBlock: ESEHIV_clean_linker_0, # of connection points: 3
#     Node 65, Type 1, BuildingBlock: ESEHIV_clean_linker_0, # of connection points: 3
#     Node 66, Type 1, BuildingBlock: ESEHIV_clean_linker_0, # of connection points: 3
#     Node 67, Type 1, BuildingBlock: ESEHIV_clean_linker_0, # of connection points: 3
#     Node 68, Type 1, BuildingBlock: ESEHIV_clean_linker_0, # of connection points: 3
#     Node 69, Type 1, BuildingBlock: ESEHIV_clean_linker_0, # of connection points: 3
#     Node 70, Type 1, BuildingBlock: ESEHIV_clean_linker_0, # of connection points: 3
#     Node 71, Type 1, BuildingBlock: ESEHIV_clean_linker_0, # of connection points: 3
#     Node 72, Type 1, BuildingBlock: ESEHIV_clean_linker_0, # of connection points: 3
#     Node 73, Type 1, BuildingBlock: ESEHIV_clean_linker_0, # of connection points: 3
#     Node 74, Type 1, BuildingBlock: ESEHIV_clean_linker_0, # of connection points: 3
#     Node 75, Type 1, BuildingBlock: ESEHIV_clean_linker_0, # of connection points: 3
#     Node 76, Type 1, BuildingBlock: ESEHIV_clean_linker_0, # of connection points: 3
#     Node 77, Type 1, BuildingBlock: ESEHIV_clean_linker_0, # of connection points: 3
#     Node 78, Type 1, BuildingBlock: ESEHIV_clean_linker_0, # of connection points: 3
#     Node 79, Type 1, BuildingBlock: ESEHIV_clean_linker_0, # of connection points: 3
#     Node 80, Type 1, BuildingBlock: ESEHIV_clean_linker_0, # of connection points: 3
#     Node 81, Type 1, BuildingBlock: ESEHIV_clean_linker_0, # of connection points: 3
#     Node 82, Type 1, BuildingBlock: ESEHIV_clean_linker_0, # of connection points: 3
#     Node 83, Type 1, BuildingBlock: ESEHIV_clean_linker_0, # of connection points: 3
#     Node 84, Type 1, BuildingBlock: ESEHIV_clean_linker_0, # of connection points: 3
#     Node 85, Type 1, BuildingBlock: ESEHIV_clean_linker_0, # of connection points: 3
#     Node 86, Type 1, BuildingBlock: ESEHIV_clean_linker_0, # of connection points: 3
#     Node 87, Type 1, BuildingBlock: ESEHIV_clean_linker_0, # of connection points: 3
#     Node 88, Type 1, BuildingBlock: ESEHIV_clean_linker_0, # of connection points: 3
#     Node 89, Type 1, BuildingBlock: ESEHIV_clean_linker_0, # of connection points: 3
#     Node 90, Type 1, BuildingBlock: ESEHIV_clean_linker_0, # of connection points: 3
#     Node 91, Type 1, BuildingBlock: ESEHIV_clean_linker_0, # of connection points: 3
#     Node 92, Type 1, BuildingBlock: ESEHIV_clean_linker_0, # of connection points: 3
#     Node 93, Type 1, BuildingBlock: ESEHIV_clean_linker_0, # of connection points: 3
#     Node 94, Type 1, BuildingBlock: ESEHIV_clean_linker_0, # of connection points: 3
#     Node 95, Type 1, BuildingBlock: ESEHIV_clean_linker_0, # of connection points: 3
#     Edge 96, Type (0, 1), BuildingBlock: ZUJKAS_clean_linker_0, # of connection points: 2
#     Edge 97, Type (0, 1), BuildingBlock: ZUJKAS_clean_linker_0, # of connection points: 2
#     Edge 98, Type (0, 1), BuildingBlock: ZUJKAS_clean_linker_0, # of connection points: 2
#     Edge 99, Type (0, 1), BuildingBlock: ZUJKAS_clean_linker_0, # of connection points: 2
#     Edge 100, Type (0, 1), BuildingBlock: ZUJKAS_clean_linker_0, # of connection points: 2
#     Edge 101, Type (0, 1), BuildingBlock: ZUJKAS_clean_linker_0, # of connection points: 2
#     Edge 102, Type (0, 1), BuildingBlock: ZUJKAS_clean_linker_0, # of connection points: 2
#     Edge 103, Type (0, 1), BuildingBlock: ZUJKAS_clean_linker_0, # of connection points: 2
#     Edge 104, Type (0, 1), BuildingBlock: ZUJKAS_clean_linker_0, # of connection points: 2
#     Edge 105, Type (0, 1), BuildingBlock: ZUJKAS_clean_linker_0, # of connection points: 2
#     Edge 106, Type (0, 1), BuildingBlock: ZUJKAS_clean_linker_0, # of connection points: 2
#     Edge 107, Type (0, 1), BuildingBlock: ZUJKAS_clean_linker_0, # of connection points: 2
#     Edge 108, Type (0, 1), BuildingBlock: ZUJKAS_clean_linker_0, # of connection points: 2
#     Edge 109, Type (0, 1), BuildingBlock: ZUJKAS_clean_linker_0, # of connection points: 2
#     Edge 110, Type (0, 1), BuildingBlock: ZUJKAS_clean_linker_0, # of connection points: 2
#     Edge 111, Type (0, 1), BuildingBlock: ZUJKAS_clean_linker_0, # of connection points: 2
#     Edge 112, Type (0, 1), BuildingBlock: ZUJKAS_clean_linker_0, # of connection points: 2
#     Edge 113, Type (0, 1), BuildingBlock: ZUJKAS_clean_linker_0, # of connection points: 2
#     Edge 114, Type (0, 1), BuildingBlock: ZUJKAS_clean_linker_0, # of connection points: 2
#     Edge 115, Type (0, 1), BuildingBlock: ZUJKAS_clean_linker_0, # of connection points: 2
#     Edge 116, Type (0, 1), BuildingBlock: ZUJKAS_clean_linker_0, # of connection points: 2
#     Edge 117, Type (0, 1), BuildingBlock: ZUJKAS_clean_linker_0, # of connection points: 2
#     Edge 118, Type (0, 1), BuildingBlock: ZUJKAS_clean_linker_0, # of connection points: 2
#     Edge 119, Type (0, 1), BuildingBlock: ZUJKAS_clean_linker_0, # of connection points: 2
#     Edge 120, Type (0, 1), BuildingBlock: ZUJKAS_clean_linker_0, # of connection points: 2
#     Edge 121, Type (0, 1), BuildingBlock: ZUJKAS_clean_linker_0, # of connection points: 2
#     Edge 122, Type (0, 1), BuildingBlock: ZUJKAS_clean_linker_0, # of connection points: 2
#     Edge 123, Type (0, 1), BuildingBlock: ZUJKAS_clean_linker_0, # of connection points: 2
#     Edge 124, Type (0, 1), BuildingBlock: ZUJKAS_clean_linker_0, # of connection points: 2
#     Edge 125, Type (0, 1), BuildingBlock: ZUJKAS_clean_linker_0, # of connection points: 2
#     Edge 126, Type (0, 1), BuildingBlock: ZUJKAS_clean_linker_0, # of connection points: 2
#     Edge 127, Type (0, 1), BuildingBlock: ZUJKAS_clean_linker_0, # of connection points: 2
#     Edge 128, Type (0, 1), BuildingBlock: ZUJKAS_clean_linker_0, # of connection points: 2
#     Edge 129, Type (0, 1), BuildingBlock: ZUJKAS_clean_linker_0, # of connection points: 2
#     Edge 130, Type (0, 1), BuildingBlock: ZUJKAS_clean_linker_0, # of connection points: 2
#     Edge 131, Type (0, 1), BuildingBlock: ZUJKAS_clean_linker_0, # of connection points: 2
#     Edge 132, Type (0, 1), BuildingBlock: ZUJKAS_clean_linker_0, # of connection points: 2
#     Edge 133, Type (0, 1), BuildingBlock: ZUJKAS_clean_linker_0, # of connection points: 2
#     Edge 134, Type (0, 1), BuildingBlock: ZUJKAS_clean_linker_0, # of connection points: 2
#     Edge 135, Type (0, 1), BuildingBlock: ZUJKAS_clean_linker_0, # of connection points: 2
#     Edge 136, Type (0, 1), BuildingBlock: ZUJKAS_clean_linker_0, # of connection points: 2
#     Edge 137, Type (0, 1), BuildingBlock: ZUJKAS_clean_linker_0, # of connection points: 2
#     Edge 138, Type (0, 1), BuildingBlock: ZUJKAS_clean_linker_0, # of connection points: 2
#     Edge 139, Type (0, 1), BuildingBlock: ZUJKAS_clean_linker_0, # of connection points: 2
#     Edge 140, Type (0, 1), BuildingBlock: ZUJKAS_clean_linker_0, # of connection points: 2
#     Edge 141, Type (0, 1), BuildingBlock: ZUJKAS_clean_linker_0, # of connection points: 2
#     Edge 142, Type (0, 1), BuildingBlock: ZUJKAS_clean_linker_0, # of connection points: 2
#     Edge 143, Type (0, 1), BuildingBlock: ZUJKAS_clean_linker_0, # of connection points: 2
#     Edge 144, Type (0, 1), BuildingBlock: ZUJKAS_clean_linker_0, # of connection points: 2
#     Edge 145, Type (0, 1), BuildingBlock: ZUJKAS_clean_linker_0, # of connection points: 2
#     Edge 146, Type (0, 1), BuildingBlock: ZUJKAS_clean_linker_0, # of connection points: 2
#     Edge 147, Type (0, 1), BuildingBlock: ZUJKAS_clean_linker_0, # of connection points: 2
#     Edge 148, Type (0, 1), BuildingBlock: ZUJKAS_clean_linker_0, # of connection points: 2
#     Edge 149, Type (0, 1), BuildingBlock: ZUJKAS_clean_linker_0, # of connection points: 2
#     Edge 150, Type (0, 1), BuildingBlock: ZUJKAS_clean_linker_0, # of connection points: 2
#     Edge 151, Type (0, 1), BuildingBlock: ZUJKAS_clean_linker_0, # of connection points: 2
#     Edge 152, Type (0, 1), BuildingBlock: ZUJKAS_clean_linker_0, # of connection points: 2
#     Edge 153, Type (0, 1), BuildingBlock: ZUJKAS_clean_linker_0, # of connection points: 2
#     Edge 154, Type (0, 1), BuildingBlock: ZUJKAS_clean_linker_0, # of connection points: 2
#     Edge 155, Type (0, 1), BuildingBlock: ZUJKAS_clean_linker_0, # of connection points: 2
#     Edge 156, Type (0, 1), BuildingBlock: ZUJKAS_clean_linker_0, # of connection points: 2
#     Edge 157, Type (0, 1), BuildingBlock: ZUJKAS_clean_linker_0, # of connection points: 2
#     Edge 158, Type (0, 1), BuildingBlock: ZUJKAS_clean_linker_0, # of connection points: 2
#     Edge 159, Type (0, 1), BuildingBlock: ZUJKAS_clean_linker_0, # of connection points: 2
#     Edge 160, Type (0, 1), BuildingBlock: ZUJKAS_clean_linker_0, # of connection points: 2
#     Edge 161, Type (0, 1), BuildingBlock: ZUJKAS_clean_linker_0, # of connection points: 2
#     Edge 162, Type (0, 1), BuildingBlock: ZUJKAS_clean_linker_0, # of connection points: 2
#     Edge 163, Type (0, 1), BuildingBlock: ZUJKAS_clean_linker_0, # of connection points: 2
#     Edge 164, Type (0, 1), BuildingBlock: ZUJKAS_clean_linker_0, # of connection points: 2
#     Edge 165, Type (0, 1), BuildingBlock: ZUJKAS_clean_linker_0, # of connection points: 2
#     Edge 166, Type (0, 1), BuildingBlock: ZUJKAS_clean_linker_0, # of connection points: 2
#     Edge 167, Type (0, 1), BuildingBlock: ZUJKAS_clean_linker_0, # of connection points: 2
#     Edge 168, Type (0, 1), BuildingBlock: ZUJKAS_clean_linker_0, # of connection points: 2
#     Edge 169, Type (0, 1), BuildingBlock: ZUJKAS_clean_linker_0, # of connection points: 2
#     Edge 170, Type (0, 1), BuildingBlock: ZUJKAS_clean_linker_0, # of connection points: 2
#     Edge 171, Type (0, 1), BuildingBlock: ZUJKAS_clean_linker_0, # of connection points: 2
#     Edge 172, Type (0, 1), BuildingBlock: ZUJKAS_clean_linker_0, # of connection points: 2
#     Edge 173, Type (0, 1), BuildingBlock: ZUJKAS_clean_linker_0, # of connection points: 2
#     Edge 174, Type (0, 1), BuildingBlock: ZUJKAS_clean_linker_0, # of connection points: 2
#     Edge 175, Type (0, 1), BuildingBlock: ZUJKAS_clean_linker_0, # of connection points: 2
#     Edge 176, Type (0, 1), BuildingBlock: ZUJKAS_clean_linker_0, # of connection points: 2
#     Edge 177, Type (0, 1), BuildingBlock: ZUJKAS_clean_linker_0, # of connection points: 2
#     Edge 178, Type (0, 1), BuildingBlock: ZUJKAS_clean_linker_0, # of connection points: 2
#     Edge 179, Type (0, 1), BuildingBlock: ZUJKAS_clean_linker_0, # of connection points: 2
#     Edge 180, Type (0, 1), BuildingBlock: ZUJKAS_clean_linker_0, # of connection points: 2
#     Edge 181, Type (0, 1), BuildingBlock: ZUJKAS_clean_linker_0, # of connection points: 2
#     Edge 182, Type (0, 1), BuildingBlock: ZUJKAS_clean_linker_0, # of connection points: 2
#     Edge 183, Type (0, 1), BuildingBlock: ZUJKAS_clean_linker_0, # of connection points: 2
#     Edge 184, Type (0, 1), BuildingBlock: ZUJKAS_clean_linker_0, # of connection points: 2
#     Edge 185, Type (0, 1), BuildingBlock: ZUJKAS_clean_linker_0, # of connection points: 2
#     Edge 186, Type (0, 1), BuildingBlock: ZUJKAS_clean_linker_0, # of connection points: 2
#     Edge 187, Type (0, 1), BuildingBlock: ZUJKAS_clean_linker_0, # of connection points: 2
#     Edge 188, Type (0, 1), BuildingBlock: ZUJKAS_clean_linker_0, # of connection points: 2
#     Edge 189, Type (0, 1), BuildingBlock: ZUJKAS_clean_linker_0, # of connection points: 2
#     Edge 190, Type (0, 1), BuildingBlock: ZUJKAS_clean_linker_0, # of connection points: 2
#     Edge 191, Type (0, 1), BuildingBlock: ZUJKAS_clean_linker_0, # of connection points: 2
#     Edge 192, Type (0, 1), BuildingBlock: ZUJKAS_clean_linker_0, # of connection points: 2
#     Edge 193, Type (0, 1), BuildingBlock: ZUJKAS_clean_linker_0, # of connection points: 2
#     Edge 194, Type (0, 1), BuildingBlock: ZUJKAS_clean_linker_0, # of connection points: 2
#     Edge 195, Type (0, 1), BuildingBlock: ZUJKAS_clean_linker_0, # of connection points: 2
#     Edge 196, Type (0, 1), BuildingBlock: ZUJKAS_clean_linker_0, # of connection points: 2
#     Edge 197, Type (0, 1), BuildingBlock: ZUJKAS_clean_linker_0, # of connection points: 2
#     Edge 198, Type (0, 1), BuildingBlock: ZUJKAS_clean_linker_0, # of connection points: 2
#     Edge 199, Type (0, 1), BuildingBlock: ZUJKAS_clean_linker_0, # of connection points: 2
#     Edge 200, Type (0, 1), BuildingBlock: ZUJKAS_clean_linker_0, # of connection points: 2
#     Edge 201, Type (0, 1), BuildingBlock: ZUJKAS_clean_linker_0, # of connection points: 2
#     Edge 202, Type (0, 1), BuildingBlock: ZUJKAS_clean_linker_0, # of connection points: 2
#     Edge 203, Type (0, 1), BuildingBlock: ZUJKAS_clean_linker_0, # of connection points: 2
#     Edge 204, Type (0, 1), BuildingBlock: ZUJKAS_clean_linker_0, # of connection points: 2
#     Edge 205, Type (0, 1), BuildingBlock: ZUJKAS_clean_linker_0, # of connection points: 2
#     Edge 206, Type (0, 1), BuildingBlock: ZUJKAS_clean_linker_0, # of connection points: 2
#     Edge 207, Type (0, 1), BuildingBlock: ZUJKAS_clean_linker_0, # of connection points: 2
#     Edge 208, Type (0, 1), BuildingBlock: ZUJKAS_clean_linker_0, # of connection points: 2
#     Edge 209, Type (0, 1), BuildingBlock: ZUJKAS_clean_linker_0, # of connection points: 2
#     Edge 210, Type (0, 1), BuildingBlock: ZUJKAS_clean_linker_0, # of connection points: 2
#     Edge 211, Type (0, 1), BuildingBlock: ZUJKAS_clean_linker_0, # of connection points: 2
#     Edge 212, Type (0, 1), BuildingBlock: ZUJKAS_clean_linker_0, # of connection points: 2
#     Edge 213, Type (0, 1), BuildingBlock: ZUJKAS_clean_linker_0, # of connection points: 2
#     Edge 214, Type (0, 1), BuildingBlock: ZUJKAS_clean_linker_0, # of connection points: 2
#     Edge 215, Type (0, 1), BuildingBlock: ZUJKAS_clean_linker_0, # of connection points: 2
#     Edge 216, Type (0, 1), BuildingBlock: ZUJKAS_clean_linker_0, # of connection points: 2
#     Edge 217, Type (0, 1), BuildingBlock: ZUJKAS_clean_linker_0, # of connection points: 2
#     Edge 218, Type (0, 1), BuildingBlock: ZUJKAS_clean_linker_0, # of connection points: 2
#     Edge 219, Type (0, 1), BuildingBlock: ZUJKAS_clean_linker_0, # of connection points: 2
#     Edge 220, Type (0, 1), BuildingBlock: ZUJKAS_clean_linker_0, # of connection points: 2
#     Edge 221, Type (0, 1), BuildingBlock: ZUJKAS_clean_linker_0, # of connection points: 2
#     Edge 222, Type (0, 1), BuildingBlock: ZUJKAS_clean_linker_0, # of connection points: 2
#     Edge 223, Type (0, 1), BuildingBlock: ZUJKAS_clean_linker_0, # of connection points: 2
#     Edge 224, Type (0, 1), BuildingBlock: ZUJKAS_clean_linker_0, # of connection points: 2
#     Edge 225, Type (0, 1), BuildingBlock: ZUJKAS_clean_linker_0, # of connection points: 2
#     Edge 226, Type (0, 1), BuildingBlock: ZUJKAS_clean_linker_0, # of connection points: 2
#     Edge 227, Type (0, 1), BuildingBlock: ZUJKAS_clean_linker_0, # of connection points: 2
#     Edge 228, Type (0, 1), BuildingBlock: ZUJKAS_clean_linker_0, # of connection points: 2
#     Edge 229, Type (0, 1), BuildingBlock: ZUJKAS_clean_linker_0, # of connection points: 2
#     Edge 230, Type (0, 1), BuildingBlock: ZUJKAS_clean_linker_0, # of connection points: 2
#     Edge 231, Type (0, 1), BuildingBlock: ZUJKAS_clean_linker_0, # of connection points: 2
#     Edge 232, Type (0, 1), BuildingBlock: ZUJKAS_clean_linker_0, # of connection points: 2
#     Edge 233, Type (0, 1), BuildingBlock: ZUJKAS_clean_linker_0, # of connection points: 2
#     Edge 234, Type (0, 1), BuildingBlock: ZUJKAS_clean_linker_0, # of connection points: 2
#     Edge 235, Type (0, 1), BuildingBlock: ZUJKAS_clean_linker_0, # of connection points: 2
#     Edge 236, Type (0, 1), BuildingBlock: ZUJKAS_clean_linker_0, # of connection points: 2
#     Edge 237, Type (0, 1), BuildingBlock: ZUJKAS_clean_linker_0, # of connection points: 2
#     Edge 238, Type (0, 1), BuildingBlock: ZUJKAS_clean_linker_0, # of connection points: 2
#     Edge 239, Type (0, 1), BuildingBlock: ZUJKAS_clean_linker_0, # of connection points: 2
# Relax obj value: 0.091
# Max RMSD: 0.079
# Mean RMSD: 0.073
data_MOF--net-bpr--node1-WUSLED_clean_sbu_0--node2-ESEHIV_clean_linker_0--edge1-ZUJKAS_clean_linker_0
_symmetry_space_group_name_H-M    P1
_symmetry_Int_Tables_number       1
_symmetry_cell_setting            triclinic
loop_
_symmetry_equiv_pos_as_xyz
'x, y, z'
_cell_length_a     125.87896
_cell_length_b     125.3158
_cell_length_c     126.48447
_cell_angle_alpha  90.392114
_cell_angle_beta   89.928756
_cell_angle_gamma 90.224386
loop_
_atom_site_label
_atom_site_type_symbol
_atom_site_fract_x
_atom_site_fract_y
_atom_site_fract_z
_atom_type_partial_charge
C0 C 0.00672 0.37346 0.27334 0.0
C1 C 0.00631 0.37014 0.2839 0.0
C2 C 0.98997 0.38009 0.28663 0.0
C3 C 0.998 0.37339 0.29047 0.0
C4 C 0.99041 0.38343 0.27603 0.0
C5 C 0.99873 0.38011 0.26943 0.0
U6 U 0.03436 0.36271 0.27186 0.0
O7 O 0.04213 0.35118 0.2612 0.0
O8 O 0.0484 0.36751 0.26269 0.0
C9 C 0.04909 0.35823 0.25783 0.0
C10 C 0.01577 0.37036 0.26666 0.0
C11 C 0.05066 0.35863 0.24635 0.0
C12 C 0.04505 0.36373 0.22873 0.0
C13 C 0.04312 0.36322 0.23963 0.0
C14 C 0.06197 0.35494 0.23126 0.0
C15 C 0.05456 0.35969 0.22445 0.0
C16 C 0.06003 0.35444 0.2421 0.0
C17 C 0.04775 0.3561 0.29792 0.0
C18 C 0.06654 0.35191 0.29881 0.0
C19 C 0.05583 0.35183 0.31475 0.0
C20 C 0.04689 0.35457 0.30884 0.0
C21 C 0.06579 0.35061 0.30983 0.0
C22 C 0.05758 0.35462 0.2929 0.0
C23 C 0.03847 0.3597 0.29194 0.0
O24 O 0.02426 0.37639 0.26784 0.0
O25 O 0.01792 0.3601 0.26654 0.0
O26 O 0.03388 0.35245 0.28592 0.0
O27 O 0.03968 0.36894 0.28723 0.0
H28 H 0.0125 0.36512 0.2871 0.0
H29 H 0.998 0.37083 0.29863 0.0
H30 H 0.98431 0.38855 0.27285 0.0
H31 H 0.99898 0.38281 0.26131 0.0
H32 H 0.03922 0.36748 0.22369 0.0
H33 H 0.03582 0.36649 0.24282 0.0
H34 H 0.06928 0.35158 0.2282 0.0
H35 H 0.06591 0.35082 0.24719 0.0
H36 H 0.07408 0.35092 0.29478 0.0
H37 H 0.05501 0.35103 0.32324 0.0
H38 H 0.03936 0.35571 0.31283 0.0
H39 H 0.05836 0.35574 0.28445 0.0
C40 C 0.86759 0.73653 0.52465 0.0
C41 C 0.86296 0.73492 0.5346 0.0
C42 C 0.86541 0.71574 0.53279 0.0
C43 C 0.86184 0.72464 0.53861 0.0
C44 C 0.86989 0.71738 0.52272 0.0
C45 C 0.87099 0.72771 0.51869 0.0
U46 U 0.86831 0.7659 0.53058 0.0
O47 O 0.87966 0.7785 0.5263 0.0
O48 O 0.86289 0.77991 0.52168 0.0
C49 C 0.87251 0.78399 0.52109 0.0
C50 C 0.86936 0.74743 0.52081 0.0
C51 C 0.87576 0.78806 0.51071 0.0
C52 C 0.8856 0.7865 0.49422 0.0
C53 C 0.88197 0.782 0.50368 0.0
C54 C 0.87659 0.80299 0.49864 0.0
C55 C 0.88309 0.79712 0.4917 0.0
C56 C 0.87298 0.7985 0.50805 0.0
C57 C 0.86215 0.7753 0.55834 0.0
C58 C 0.86537 0.79378 0.56329 0.0
C59 C 0.85661 0.78186 0.57558 0.0
C60 C 0.85737 0.77354 0.56819 0.0
C61 C 0.86069 0.79205 0.57324 0.0
C62 C 0.86606 0.78549 0.5559 0.0
C63 C 0.86312 0.76653 0.55067 0.0
O64 O 0.86087 0.75351 0.52063 0.0
O65 O 0.87771 0.75225 0.52489 0.0
O66 O 0.87284 0.76473 0.5473 0.0
O67 O 0.85606 0.76651 0.54302 0.0
H68 H 0.86032 0.74166 0.53933 0.0
H69 H 0.8582 0.72365 0.54631 0.0
H70 H 0.87281 0.71072 0.51807 0.0
H71 H 0.87465 0.72883 0.51102 0.0
H72 H 0.89063 0.78179 0.48906 0.0
H73 H 0.88418 0.77389 0.5056 0.0
H74 H 0.87432 0.81111 0.49683 0.0
H75 H 0.86815 0.80328 0.51336 0.0
H76 H 0.86843 0.80157 0.56119 0.0
H77 H 0.85303 0.78028 0.58321 0.0
H78 H 0.8543 0.76572 0.57018 0.0
H79 H 0.86971 0.787 0.54828 0.0
C80 C 0.47819 0.63759 0.73865 0.0
C81 C 0.46799 0.64154 0.73664 0.0
C82 C 0.47077 0.63922 0.71771 0.0
C83 C 0.46431 0.64236 0.72626 0.0
C84 C 0.48103 0.63533 0.71979 0.0
C85 C 0.48471 0.63453 0.73019 0.0
U86 U 0.47206 0.63829 0.7678 0.0
O87 O 0.47655 0.6276 0.78072 0.0
O88 O 0.48107 0.64456 0.78142 0.0
C89 C 0.48189 0.6351 0.78577 0.0
C90 C 0.48186 0.63636 0.74959 0.0
C91 C 0.4925 0.63224 0.78972 0.0
C92 C 0.50821 0.62098 0.78965 0.0
C93 C 0.49849 0.62394 0.78518 0.0
C94 C 0.50618 0.63476 0.80303 0.0
C95 C 0.51212 0.62632 0.79867 0.0
C96 C 0.49647 0.63766 0.7986 0.0
C97 C 0.44428 0.64507 0.77688 0.0
C98 C 0.43955 0.64332 0.7954 0.0
C99 C 0.42702 0.65101 0.7831 0.0
C100 C 0.43434 0.64963 0.77488 0.0
C101 C 0.42952 0.6478 0.79344 0.0
C102 C 0.44687 0.642 0.7872 0.0
C103 C 0.45192 0.64353 0.76824 0.0
O104 O 0.48201 0.64519 0.75526 0.0
O105 O 0.47767 0.62823 0.75463 0.0
O106 O 0.45523 0.63367 0.76694 0.0
O107 O 0.45964 0.6506 0.76786 0.0
H108 H 0.46282 0.64386 0.74311 0.0
H109 H 0.45632 0.64523 0.72496 0.0
H110 H 0.48622 0.63292 0.71337 0.0
H111 H 0.4926 0.63145 0.73163 0.0
H112 H 0.51265 0.61451 0.78607 0.0
H113 H 0.49561 0.61966 0.77828 0.0
H114 H 0.50888 0.63893 0.81006 0.0
H115 H 0.49195 0.64404 0.80226 0.0
H116 H 0.44177 0.64091 0.8033 0.0
H117 H 0.41933 0.65441 0.78133 0.0
H118 H 0.43223 0.65206 0.76695 0.0
H119 H 0.45456 0.63854 0.78889 0.0
C120 C 0.63724 0.27595 0.02755 0.0
C121 C 0.64136 0.27812 0.03764 0.0
C122 C 0.63914 0.29718 0.03484 0.0
C123 C 0.64232 0.28864 0.04124 0.0
C124 C 0.63507 0.29495 0.02469 0.0
C125 C 0.63414 0.28441 0.02108 0.0
U126 U 0.63841 0.24672 0.03387 0.0
O127 O 0.6277 0.23337 0.03007 0.0
O128 O 0.64435 0.23287 0.02486 0.0
C129 C 0.63498 0.22821 0.02464 0.0
C130 C 0.63592 0.26485 0.02397 0.0
C131 C 0.63159 0.22385 0.01437 0.0
C132 C 0.62238 0.22538 0.99757 0.0
C133 C 0.62602 0.23002 0.00702 0.0
C134 C 0.63008 0.20849 1.0027 0.0
C135 C 0.62425 0.21452 0.99538 0.0
C136 C 0.63369 0.21312 0.0121 0.0
C137 C 0.64626 0.23841 0.06143 0.0
C138 C 0.64809 0.21961 0.06551 0.0
C139 C 0.64897 0.23284 0.07956 0.0
C140 C 0.64749 0.24094 0.07216 0.0
C141 C 0.64927 0.22208 0.07632 0.0
C142 C 0.64657 0.22771 0.05814 0.0
C143 C 0.64433 0.2469 0.05374 0.0
O144 O 0.64474 0.25927 0.02352 0.0
O145 O 0.62804 0.25968 0.02848 0.0
O146 O 0.63439 0.24787 0.05076 0.0
O147 O 0.65108 0.24727 0.04581 0.0
H148 H 0.64372 0.27167 0.04277 0.0
H149 H 0.64531 0.29005 0.04916 0.0
H150 H 0.63263 0.30136 0.01954 0.0
H151 H 0.63093 0.28285 0.01327 0.0
H152 H 0.61789 0.23022 0.99212 0.0
H153 H 0.62435 0.23834 0.00866 0.0
H154 H 0.63185 0.20017 1.00116 0.0
H155 H 0.63803 0.20826 0.01767 0.0
H156 H 0.64813 0.2114 0.06278 0.0
H157 H 0.64994 0.23499 0.08781 0.0
H158 H 0.64724 0.24917 0.07482 0.0
H159 H 0.64554 0.22562 0.04987 0.0
C160 C 0.00736 0.63543 0.23422 0.0
C161 C 0.00767 0.63817 0.22349 0.0
C162 C 0.99123 0.62836 0.22036 0.0
C163 C 0.99966 0.63471 0.21664 0.0
C164 C 0.99091 0.62571 0.23116 0.0
C165 C 0.99893 0.62921 0.23803 0.0
U166 U 0.03526 0.64558 0.23676 0.0
O167 O 0.04281 0.65728 0.24744 0.0
O168 O 0.0486 0.64077 0.24682 0.0
C169 C 0.04928 0.65017 0.25145 0.0
C170 C 0.01614 0.63861 0.24123 0.0
C171 C 0.05 0.65007 0.26303 0.0
C172 C 0.04319 0.645 0.28027 0.0
C173 C 0.04209 0.6453 0.26926 0.0
C174 C 0.06001 0.65437 0.27887 0.0
C175 C 0.0522 0.6495 0.28519 0.0
C176 C 0.0589 0.65465 0.26789 0.0
C177 C 0.05014 0.65079 0.21099 0.0
C178 C 0.06933 0.65258 0.20983 0.0
C179 C 0.0584 0.6561 0.1945 0.0
C180 C 0.04929 0.65383 0.20039 0.0
C181 C 0.06854 0.65532 0.19909 0.0
C182 C 0.0602 0.65035 0.21574 0.0
C183 C 0.04053 0.64769 0.21681 0.0
O184 O 0.02448 0.63234 0.24074 0.0
O185 O 0.01863 0.64881 0.24104 0.0
O186 O 0.03594 0.65531 0.22232 0.0
O187 O 0.04117 0.63863 0.22192 0.0
H188 H 0.01416 0.64291 0.22039 0.0
H189 H 1.00008 0.63706 0.20842 0.0
H190 H 0.98459 0.62074 0.23426 0.0
H191 H 0.99864 0.62695 0.24628 0.0
H192 H 0.037 0.64127 0.28493 0.0
H193 H 0.03513 0.64175 0.2656 0.0
H194 H 0.06713 0.65775 0.28237 0.0
H195 H 0.06509 0.65833 0.26318 0.0
H196 H 0.07701 0.65181 0.21359 0.0
H197 H 0.05749 0.65839 0.18631 0.0
H198 H 0.04157 0.65427 0.19663 0.0
H199 H 0.06099 0.64805 0.22394 0.0
C200 C 0.63763 0.73467 0.47976 0.0
C201 C 0.64221 0.73254 0.46985 0.0
C202 C 0.63975 0.71346 0.47247 0.0
C203 C 0.64329 0.72204 0.46626 0.0
C204 C 0.63523 0.71564 0.48244 0.0
C205 C 0.63419 0.72617 0.48605 0.0
U206 U 0.63785 0.76397 0.4734 0.0
O207 O 0.62674 0.77685 0.47738 0.0
O208 O 0.64343 0.77804 0.48237 0.0
C209 C 0.63391 0.7823 0.48274 0.0
C210 C 0.63606 0.74574 0.48329 0.0
C211 C 0.63054 0.78664 0.49303 0.0
C212 C 0.61985 0.78593 0.50904 0.0
C213 C 0.62347 0.78114 0.49967 0.0
C214 C 0.63057 0.80156 0.50534 0.0
C215 C 0.62324 0.79627 0.51189 0.0
C216 C 0.63416 0.7968 0.49601 0.0
C217 C 0.64503 0.77295 0.44593 0.0
C218 C 0.64294 0.79161 0.44142 0.0
C219 C 0.65078 0.77933 0.42877 0.0
C220 C 0.64957 0.771 0.43599 0.0
C221 C 0.6474 0.78971 0.43138 0.0
C222 C 0.64179 0.78331 0.44864 0.0
C223 C 0.6436 0.76421 0.45347 0.0
O224 O 0.64471 0.75165 0.4836 0.0
O225 O 0.62797 0.75059 0.47889 0.0
O226 O 0.63375 0.76264 0.45656 0.0
O227 O 0.65044 0.76411 0.46131 0.0
H228 H 0.64482 0.73903 0.46484 0.0
H229 H 0.64664 0.72066 0.45848 0.0
H230 H 0.6325 0.70921 0.48745 0.0
H231 H 0.6306 0.72769 0.49371 0.0
H232 H 0.61417 0.78166 0.51388 0.0
H233 H 0.6206 0.77326 0.49751 0.0
H234 H 0.63352 0.80944 0.50741 0.0
H235 H 0.63966 0.80114 0.49101 0.0
H236 H 0.64041 0.79955 0.44373 0.0
H237 H 0.65416 0.77761 0.42107 0.0
H238 H 0.65212 0.76304 0.4338 0.0
H239 H 0.63833 0.78496 0.45632 0.0
C240 C 0.50055 0.377 0.7329 0.0
C241 C 0.49842 0.37954 0.72233 0.0
C242 C 0.51713 0.38337 0.7193 0.0
C243 C 0.50662 0.38273 0.71561 0.0
C244 C 0.51924 0.3808 0.72991 0.0
C245 C 0.511 0.37766 0.73666 0.0
U246 U 0.47264 0.3668 0.73525 0.0
O247 O 0.4654 0.35431 0.74513 0.0
O248 O 0.45953 0.37078 0.74602 0.0
C249 C 0.45903 0.36109 0.74991 0.0
C250 C 0.4919 0.37334 0.7398 0.0
C251 C 0.45867 0.36047 0.76149 0.0
C252 C 0.46531 0.36554 0.77885 0.0
C253 C 0.46627 0.36566 0.76782 0.0
C254 C 0.44933 0.35479 0.77728 0.0
C255 C 0.45675 0.36018 0.7837 0.0
C256 C 0.45029 0.35494 0.76628 0.0
C257 C 0.4572 0.36344 0.70948 0.0
C258 C 0.43906 0.3568 0.709 0.0
C259 C 0.44753 0.36298 0.69293 0.0
C260 C 0.45677 0.36531 0.6986 0.0
C261 C 0.43855 0.35871 0.69805 0.0
C262 C 0.44832 0.35916 0.71467 0.0
C263 C 0.46689 0.36623 0.71532 0.0
O264 O 0.48357 0.37963 0.74014 0.0
O265 O 0.48938 0.3632 0.7387 0.0
O266 O 0.47169 0.35827 0.72002 0.0
O267 O 0.46623 0.37484 0.72126 0.0
H268 H 0.4904 0.37896 0.71925 0.0
H269 H 0.50475 0.38447 0.70744 0.0
H270 H 0.52725 0.38128 0.733 0.0
H271 H 0.51278 0.37567 0.74479 0.0
H272 H 0.47121 0.36968 0.78357 0.0
H273 H 0.47282 0.36994 0.76423 0.0
H274 H 0.44256 0.35073 0.78073 0.0
H275 H 0.44434 0.35092 0.7615 0.0
H276 H 0.43232 0.35343 0.71316 0.0
H277 H 0.44736 0.36473 0.68456 0.0
H278 H 0.46355 0.36868 0.6945 0.0
H279 H 0.44854 0.35769 0.7231 0.0
C280 C 0.87878 0.24097 0.00912 0.0
C281 C 0.87533 0.23031 0.00928 0.0
C282 C 0.88384 0.22773 0.02632 0.0
C283 C 0.87779 0.22377 0.01781 0.0
C284 C 0.88733 0.23841 0.02613 0.0
C285 C 0.8848 0.24499 0.01759 0.0
U286 U 0.87154 0.24196 0.98052 0.0
O287 O 0.86039 0.25182 0.97151 0.0
O288 O 0.87732 0.25166 0.96727 0.0
C289 C 0.86792 0.25579 0.96547 0.0
C290 C 0.87655 0.2476 0.99985 0.0
C291 C 0.86764 0.26737 0.96392 0.0
C292 C 0.86998 0.2856 0.9702 0.0
C293 C 0.87025 0.27458 0.97205 0.0
C294 C 0.86444 0.28218 0.95214 0.0
C295 C 0.86716 0.2895 0.96018 0.0
C296 C 0.8647 0.27123 0.954 0.0
C297 C 0.8679 0.2152 0.96651 0.0
C298 C 0.86671 0.21354 0.94741 0.0
C299 C 0.86345 0.19814 0.95846 0.0
C300 C 0.86528 0.20438 0.96747 0.0
C301 C 0.86426 0.20261 0.9483 0.0
C302 C 0.86849 0.21979 0.95644 0.0
C303 C 0.87018 0.22153 0.97605 0.0
O304 O 0.88359 0.24683 0.99221 0.0
O305 O 0.86669 0.24716 0.99644 0.0
O306 O 0.86218 0.22708 0.97983 0.0
O307 O 0.87916 0.22691 0.97586 0.0
H308 H 0.87083 0.227 1.00273 0.0
H309 H 0.87515 0.21554 0.01762 0.0
H310 H 0.89198 0.24168 0.03259 0.0
H311 H 0.8876 0.25318 0.01754 0.0
H312 H 0.87216 0.29104 0.97653 0.0
H313 H 0.87252 0.2717 0.97978 0.0
H314 H 0.86203 0.28491 0.9444 0.0
H315 H 0.86261 0.26575 0.94766 0.0
H316 H 0.8675 0.21722 0.93972 0.0
H317 H 0.86139 0.18981 0.95945 0.0
H318 H 0.86472 0.20074 0.9752 0.0
H319 H 0.87048 0.22816 0.95557 0.0
C320 C 0.23275 0.02913 0.37321 0.0
C321 C 0.23094 0.03911 0.36861 0.0
C322 C 0.21195 0.03723 0.37174 0.0
C323 C 0.22064 0.0431 0.36785 0.0
C324 C 0.21379 0.02714 0.37622 0.0
C325 C 0.22414 0.02314 0.37696 0.0
U326 U 0.26194 0.03477 0.37105 0.0
O327 O 0.2754 0.03103 0.38142 0.0
O328 O 0.27532 0.02528 0.36495 0.0
C329 C 0.28014 0.02516 0.37417 0.0
C330 C 0.24368 0.02525 0.37437 0.0
C331 C 0.28423 0.01475 0.37757 0.0
C332 C 0.28396 0.99932 0.38913 0.0
C333 C 0.27944 0.00891 0.38575 0.0
C334 C 0.2979 1.00123 0.37604 0.0
C335 C 0.29328 0.99541 0.38434 0.0
C336 C 0.29342 0.0108 0.37271 0.0
C337 C 0.27045 0.06225 0.36181 0.0
C338 C 0.28906 0.06738 0.36171 0.0
C339 C 0.27578 0.07948 0.35493 0.0
C340 C 0.26783 0.07203 0.35723 0.0
C341 C 0.28649 0.07727 0.35719 0.0
C342 C 0.28111 0.05993 0.36399 0.0
C343 C 0.26204 0.05455 0.36437 0.0
O344 O 0.24902 0.0243 0.36548 0.0
O345 O 0.24915 0.02998 0.38192 0.0
O346 O 0.26134 0.05199 0.37441 0.0
O347 O 0.26138 0.04626 0.35799 0.0
H348 H 0.23751 0.04385 0.36567 0.0
H349 H 0.21949 0.05081 0.36421 0.0
H350 H 0.20728 0.02247 0.37937 0.0
H351 H 0.22542 0.01544 0.38058 0.0
H352 H 0.28018 0.99497 0.39549 0.0
H353 H 0.2723 0.01179 0.38958 0.0
H354 H 0.30516 0.99855 0.37229 0.0
H355 H 0.29725 0.01522 0.36643 0.0
H356 H 0.2972 0.06547 0.36369 0.0
H357 H 0.27354 0.08696 0.35132 0.0
H358 H 0.25963 0.07391 0.35546 0.0
H359 H 0.28326 0.05239 0.36753 0.0
C360 C 0.24226 0.00616 0.6287 0.0
C361 C 0.2314 0.00823 0.6274 0.0
C362 C 0.22813 0.98958 0.62297 0.0
C363 C 0.22442 1.00005 0.62452 0.0
C364 C 0.23906 0.98755 0.62421 0.0
C365 C 0.24607 0.99579 0.62706 0.0
U366 U 0.24515 0.03384 0.63955 0.0
O367 O 0.25601 0.04099 0.65128 0.0
O368 O 0.25533 0.04737 0.63516 0.0
C369 C 0.26006 0.04771 0.64442 0.0
C370 C 0.24944 0.01481 0.63203 0.0
C371 C 0.2717 0.04838 0.64414 0.0
C372 C 0.28885 0.04213 0.63788 0.0
C373 C 0.2778 0.04095 0.63844 0.0
C374 C 0.28777 0.058 0.64888 0.0
C375 C 0.29395 0.05072 0.64304 0.0
C376 C 0.27675 0.05683 0.64942 0.0
C377 C 0.21935 0.0486 0.6456 0.0
C378 C 0.21857 0.06766 0.64905 0.0
C379 C 0.20271 0.05678 0.65084 0.0
C380 C 0.20853 0.04773 0.64801 0.0
C381 C 0.20764 0.06687 0.65127 0.0
C382 C 0.22439 0.05858 0.64627 0.0
C383 C 0.22515 0.03909 0.64206 0.0
O384 O 0.24911 0.02338 0.6261 0.0
O385 O 0.24924 0.017 0.64221 0.0
O386 O 0.23069 0.0342 0.64936 0.0
O387 O 0.23027 0.04008 0.63306 0.0
H388 H 0.22831 0.0162 0.62865 0.0
H389 H 0.2161 1.00195 0.62347 0.0
H390 H 0.24216 0.97956 0.62318 0.0
H391 H 0.25442 0.99405 0.62809 0.0
H392 H 0.2934 0.03634 0.6334 0.0
H393 H 0.274 0.03435 0.63434 0.0
H394 H 0.2914 0.0648 0.65281 0.0
H395 H 0.27214 0.06265 0.65382 0.0
H396 H 0.2226 0.07531 0.64942 0.0
H397 H 0.19429 0.05591 0.65236 0.0
H398 H 0.20452 0.04007 0.64751 0.0
H399 H 0.23278 0.05937 0.64448 0.0
C400 C 0.24172 1.00405 0.87907 0.0
C401 C 0.23103 1.00377 0.87599 0.0
C402 C 0.22784 0.02058 0.88519 0.0
C403 C 0.22416 0.01198 0.87898 0.0
C404 C 0.23863 0.02091 0.88811 0.0
C405 C 0.24551 0.01268 0.88509 0.0
U406 U 0.24403 0.97558 0.8702 0.0
O407 O 0.25513 0.96719 0.85965 0.0
O408 O 0.25354 0.96223 0.87622 0.0
C409 C 0.25873 0.96108 0.86726 0.0
C410 C 0.24866 0.99497 0.87658 0.0
C411 C 0.27034 0.96015 0.86817 0.0
C412 C 0.28826 0.96698 0.86551 0.0
C413 C 0.27724 0.96837 0.86496 0.0
C414 C 0.28558 0.94932 0.87274 0.0
C415 C 0.29254 0.95742 0.86938 0.0
C416 C 0.2746 0.95068 0.87212 0.0
C417 C 0.21803 0.96094 0.86424 0.0
C418 C 0.21659 0.94165 0.86278 0.0
C419 C 0.20143 0.95277 0.85874 0.0
C420 C 0.20746 0.96188 0.86098 0.0
C421 C 0.20586 0.94253 0.85978 0.0
C422 C 0.22263 0.95079 0.86498 0.0
C423 C 0.22399 0.97059 0.86722 0.0
O424 O 0.24768 0.98689 0.88307 0.0
O425 O 0.24886 0.99205 0.86657 0.0
O426 O 0.23002 0.97471 0.8598 0.0
O427 O 0.22866 0.97026 0.8765 0.0
H428 H 0.22795 0.99713 0.87139 0.0
H429 H 0.21596 0.01156 0.87644 0.0
H430 H 0.24168 0.02737 0.89298 0.0
H431 H 0.25373 0.01295 0.88762 0.0
H432 H 0.29343 0.97339 0.86294 0.0
H433 H 0.27413 0.97579 0.86194 0.0
H434 H 0.28861 0.9418 0.87561 0.0
H435 H 0.26941 0.94424 0.87461 0.0
H436 H 0.22022 0.93391 0.86374 0.0
H437 H 0.19326 0.95374 0.85625 0.0
H438 H 0.20382 0.96967 0.86031 0.0
H439 H 0.23081 0.94994 0.86748 0.0
C440 C 0.2305 0.97989 0.13379 0.0
C441 C 0.22909 0.9697 0.13808 0.0
C442 C 0.21005 0.97073 0.13498 0.0
C443 C 0.21897 0.96517 0.13869 0.0
C444 C 0.21149 0.98104 0.13083 0.0
C445 C 0.22165 0.98558 0.13023 0.0
U446 U 0.25986 0.9756 0.13582 0.0
O447 O 0.27316 0.98007 0.12548 0.0
O448 O 0.27289 0.98561 0.14202 0.0
C449 C 0.27768 0.98606 0.13279 0.0
C450 C 0.24126 0.98433 0.13272 0.0
C451 C 0.28143 0.99669 0.12951 0.0
C452 C 0.28149 0.01172 0.11743 0.0
C453 C 0.27712 1.002 0.12077 0.0
C454 C 0.29426 0.01104 0.13172 0.0
C455 C 0.29016 0.01629 0.12283 0.0
C456 C 0.28995 1.00134 0.135 0.0
C457 C 0.26956 0.94844 0.14438 0.0
C458 C 0.28834 0.94422 0.14367 0.0
C459 C 0.27587 0.93152 0.1511 0.0
C460 C 0.26753 0.93857 0.14912 0.0
C461 C 0.28636 0.93424 0.14831 0.0
C462 C 0.28001 0.95127 0.14174 0.0
C463 C 0.26076 0.95572 0.14211 0.0
O464 O 0.24655 0.98534 0.14163 0.0
O465 O 0.24692 0.98002 0.12507 0.0
O466 O 0.25984 0.95844 0.13214 0.0
O467 O 0.25982 0.96383 0.14867 0.0
H468 H 0.23586 0.96519 0.14086 0.0
H469 H 0.21813 0.9573 0.14208 0.0
H470 H 0.20479 0.98549 0.12783 0.0
H471 H 0.22263 0.99344 0.12685 0.0
H472 H 0.2781 0.01562 0.11061 0.0
H473 H 0.27051 0.99859 0.11643 0.0
H474 H 0.30104 0.01425 0.13596 0.0
H475 H 0.29343 0.99734 0.14173 0.0
H476 H 0.29635 0.94661 0.14157 0.0
H477 H 0.27409 0.92386 0.15461 0.0
H478 H 0.25949 0.93628 0.15121 0.0
H479 H 0.28171 0.95891 0.13814 0.0
C480 C 0.37081 0.23678 0.02422 0.0
C481 C 0.36597 0.23426 0.03389 0.0
C482 C 0.36899 0.21535 0.03062 0.0
C483 C 0.36504 0.22364 0.03705 0.0
C484 C 0.37378 0.21792 0.0209 0.0
C485 C 0.37467 0.22857 0.01773 0.0
U486 U 0.37011 0.26596 0.03164 0.0
O487 O 0.3642 0.28002 0.02314 0.0
O488 O 0.38094 0.27921 0.02797 0.0
C489 C 0.37364 0.28452 0.02279 0.0
C490 C 0.37218 0.24798 0.02113 0.0
C491 C 0.37686 0.28889 0.01251 0.0
C492 C 0.38669 0.28782 0.99599 0.0
C493 C 0.38327 0.28313 0.00542 0.0
C494 C 0.37708 0.30393 1.00055 0.0
C495 C 0.38374 0.29835 0.99351 0.0
C496 C 0.3737 0.29925 0.00995 0.0
C497 C 0.36283 0.27404 0.05953 0.0
C498 C 0.36383 0.29271 0.06471 0.0
C499 C 0.35752 0.27953 0.0772 0.0
C500 C 0.35895 0.2715 0.06959 0.0
C501 C 0.35997 0.29023 0.07486 0.0
C502 C 0.36523 0.28469 0.05712 0.0
C503 C 0.36447 0.26561 0.0516 0.0
O504 O 0.36342 0.25367 0.02105 0.0
O505 O 0.38019 0.25293 0.02569 0.0
O506 O 0.37434 0.26447 0.04841 0.0
O507 O 0.3576 0.26548 0.04379 0.0
H508 H 0.36304 0.24053 0.03905 0.0
H509 H 0.36147 0.22195 0.04465 0.0
H510 H 0.37683 0.21171 0.01575 0.0
H511 H 0.37845 0.23039 0.01025 0.0
H512 H 0.39186 0.28333 0.99077 0.0
H513 H 0.38577 0.27509 0.00726 0.0
H514 H 0.37448 0.31195 0.9988 0.0
H515 H 0.36871 0.30379 0.01531 0.0
H516 H 0.36595 0.30082 0.06268 0.0
H517 H 0.35442 0.27736 0.08488 0.0
H518 H 0.35703 0.26332 0.07155 0.0
H519 H 0.36826 0.28678 0.04938 0.0
C520 C 1.00067 0.8757 0.23211 0.0
C521 C 1.00019 0.87324 0.22129 0.0
C522 C 0.01711 0.88224 0.21839 0.0
C523 C 0.00834 0.87643 0.21451 0.0
C524 C 0.01758 0.88464 0.22928 0.0
C525 C 0.00941 0.8814 0.23608 0.0
U526 U 0.97239 0.86667 0.23461 0.0
O527 O 0.96458 0.85482 0.24481 0.0
O528 O 0.95941 0.87154 0.2452 0.0
C529 C 0.95848 0.862 0.24936 0.0
C530 C 0.99183 0.87268 0.23909 0.0
C531 C 0.95808 0.86172 0.26095 0.0
C532 C 0.96544 0.86611 0.27819 0.0
C533 C 0.96627 0.86607 0.26715 0.0
C534 C 0.94833 0.85725 0.27687 0.0
C535 C 0.95642 0.86175 0.28317 0.0
C536 C 0.94917 0.85724 0.26587 0.0
C537 C 0.95698 0.86299 0.20889 0.0
C538 C 0.93869 0.85675 0.2085 0.0
C539 C 0.94719 0.86278 0.19239 0.0
C540 C 0.95651 0.86489 0.19801 0.0
C541 C 0.93816 0.8587 0.19756 0.0
C542 C 0.94803 0.8589 0.21412 0.0
C543 C 0.96675 0.8656 0.21467 0.0
O544 O 0.98376 0.87931 0.23902 0.0
O545 O 0.98891 0.86261 0.23846 0.0
O546 O 0.97121 0.85764 0.21969 0.0
O547 O 0.96638 0.87444 0.2203 0.0
H548 H 0.99346 0.86889 0.21807 0.0
H549 H 0.00779 0.87428 0.20622 0.0
H550 H 0.02415 0.8892 0.23251 0.0
H551 H 0.00985 0.88344 0.24441 0.0
H552 H 0.97184 0.86955 0.28282 0.0
H553 H 0.97323 0.86954 0.26344 0.0
H554 H 0.9412 0.85399 0.28043 0.0
H555 H 0.94276 0.85387 0.26118 0.0
H556 H 0.93191 0.85352 0.2127 0.0
H557 H 0.94701 0.86456 0.18403 0.0
H558 H 0.96334 0.86813 0.19388 0.0
H559 H 0.94827 0.85741 0.22255 0.0
C560 C 0.13735 0.77651 0.52662 0.0
C561 C 0.13927 0.77862 0.53735 0.0
C562 C 0.14047 0.79766 0.53377 0.0
C563 C 0.14078 0.78909 0.5409 0.0
C564 C 0.13867 0.79547 0.52298 0.0
C565 C 0.13712 0.78497 0.51944 0.0
U566 U 0.13732 0.7472 0.53273 0.0
O567 O 0.12576 0.73447 0.52915 0.0
O568 O 0.14223 0.73313 0.52352 0.0
C569 C 0.13261 0.729 0.52346 0.0
C570 C 0.1355 0.7655 0.52301 0.0
C571 C 0.12869 0.72508 0.51321 0.0
C572 C 0.12614 0.72697 0.49428 0.0
C573 C 0.12968 0.73113 0.50397 0.0
C574 C 0.12043 0.71081 0.50307 0.0
C575 C 0.1215 0.71674 0.49373 0.0
C576 C 0.12399 0.71495 0.51271 0.0
C577 C 0.14552 0.73831 0.56003 0.0
C578 C 0.14666 0.71942 0.56395 0.0
C579 C 0.14879 0.73252 0.57799 0.0
C580 C 0.14735 0.74073 0.5707 0.0
C581 C 0.14846 0.72177 0.5747 0.0
C582 C 0.14518 0.72762 0.55669 0.0
C583 C 0.14378 0.74693 0.55244 0.0
O584 O 0.14406 0.75955 0.52237 0.0
O585 O 0.12748 0.76065 0.52762 0.0
O586 O 0.13381 0.74841 0.54974 0.0
O587 O 0.15031 0.74703 0.54433 0.0
H588 H 0.13947 0.77217 0.543 0.0
H589 H 0.14196 0.79046 0.54928 0.0
H590 H 0.1385 0.80187 0.51727 0.0
H591 H 0.13569 0.78346 0.51112 0.0
H592 H 0.127 0.73176 0.48723 0.0
H593 H 0.13325 0.73901 0.50423 0.0
H594 H 0.11706 0.70284 0.50291 0.0
H595 H 0.12319 0.71016 0.51977 0.0
H596 H 0.14621 0.71123 0.56119 0.0
H597 H 0.15025 0.73458 0.5862 0.0
H598 H 0.14762 0.74895 0.5734 0.0
H599 H 0.14369 0.72563 0.54847 0.0
C600 C 0.98558 0.62878 0.74828 0.0
C601 C 0.97493 0.62548 0.74779 0.0
C602 C 0.97116 0.63479 0.76433 0.0
C603 C 0.96781 0.6284 0.75576 0.0
C604 C 0.98188 0.63803 0.76481 0.0
C605 C 0.98903 0.63505 0.75683 0.0
U606 U 0.98894 0.6198 0.72018 0.0
O607 O 0.99949 0.62514 0.7074 0.0
O608 O 0.99981 0.60842 0.71251 0.0
C609 C 1.00406 0.61576 0.70644 0.0
C610 C 0.99288 0.6261 0.73958 0.0
C611 C 0.01571 0.61585 0.7059 0.0
C612 C 0.03301 0.62073 0.71295 0.0
C613 C 0.02192 0.62051 0.7139 0.0
C614 C 0.03169 0.6115 0.6961 0.0
C615 C 0.03802 0.61626 0.704 0.0
C616 C 0.02065 0.61131 0.69705 0.0
C617 C 0.96356 0.61464 0.7045 0.0
C618 C 0.96308 0.61309 0.68535 0.0
C619 C 0.94744 0.60876 0.6957 0.0
C620 C 0.95298 0.61118 0.70497 0.0
C621 C 0.95239 0.60979 0.68577 0.0
C622 C 0.96863 0.61546 0.69465 0.0
C623 C 0.96907 0.61761 0.71432 0.0
O624 O 0.99284 0.616 0.73667 0.0
O625 O 0.99257 0.63269 0.73155 0.0
O626 O 0.97421 0.62676 0.71409 0.0
O627 O 0.97447 0.60995 0.71885 0.0
H628 H 0.9721 0.62069 0.7412 0.0
H629 H 0.95968 0.62561 0.75521 0.0
H630 H 0.9847 0.64304 0.77123 0.0
H631 H 0.99721 0.63775 0.75727 0.0
H632 H 0.03767 0.62438 0.71921 0.0
H633 H 0.0182 0.62403 0.72081 0.0
H634 H 0.03525 0.60816 0.68902 0.0
H635 H 0.01596 0.60771 0.69079 0.0
H636 H 0.96713 0.61386 0.67784 0.0
H637 H 0.93919 0.60636 0.69628 0.0
H638 H 0.94895 0.61051 0.71252 0.0
H639 H 0.97684 0.61805 0.69416 0.0
C640 C 0.12983 0.25467 0.49489 0.0
C641 C 0.12823 0.25366 0.48396 0.0
C642 C 0.13545 0.27148 0.48126 0.0
C643 C 0.131 0.26199 0.47721 0.0
C644 C 0.13701 0.27246 0.49225 0.0
C645 C 0.13421 0.26411 0.49901 0.0
U646 U 0.1211 0.22615 0.49761 0.0
O647 O 0.12701 0.21315 0.50762 0.0
O648 O 0.1103 0.21809 0.50866 0.0
C649 C 0.1179 0.21213 0.51259 0.0
C650 C 0.12727 0.2457 0.50187 0.0
C651 C 0.11854 0.21164 0.52419 0.0
C652 C 0.11603 0.21943 0.54167 0.0
C653 C 0.11573 0.22035 0.53065 0.0
C654 C 0.1222 0.20121 0.53985 0.0
C655 C 0.11924 0.20983 0.54638 0.0
C656 C 0.12182 0.20211 0.52887 0.0
C657 C 0.11555 0.2105 0.47231 0.0
C658 C 0.11351 0.19122 0.47209 0.0
C659 C 0.11046 0.20135 0.45612 0.0
C660 C 0.11278 0.21079 0.4616 0.0
C661 C 0.11091 0.19145 0.46127 0.0
C662 C 0.11578 0.20068 0.47757 0.0
C663 C 0.11847 0.22043 0.4778 0.0
O664 O 0.11724 0.24274 0.50187 0.0
O665 O 0.13387 0.23763 0.50116 0.0
O666 O 0.12772 0.2203 0.4826 0.0
O667 O 0.11092 0.22483 0.48351 0.0
H668 H 0.12494 0.24637 0.48064 0.0
H669 H 0.12986 0.2609 0.46878 0.0
H670 H 0.14033 0.2797 0.49562 0.0
H671 H 0.13552 0.26499 0.50744 0.0
H672 H 0.11379 0.22623 0.54651 0.0
H673 H 0.11324 0.22782 0.52719 0.0
H674 H 0.12455 0.19367 0.54323 0.0
H675 H 0.12399 0.1953 0.52401 0.0
H676 H 0.11381 0.18372 0.47629 0.0
H677 H 0.10862 0.20178 0.44777 0.0
H678 H 0.11258 0.21831 0.45743 0.0
H679 H 0.11785 0.20033 0.48588 0.0
C680 C 0.48701 0.38953 0.2256 0.0
C681 C 0.48503 0.39433 0.21582 0.0
C682 C 0.46604 0.39131 0.21802 0.0
C683 C 0.47465 0.39524 0.21208 0.0
C684 C 0.46807 0.38651 0.22784 0.0
C685 C 0.47849 0.38564 0.23161 0.0
U686 U 0.51617 0.39134 0.21966 0.0
O687 O 0.52974 0.39754 0.22886 0.0
O688 O 0.52956 0.38085 0.22338 0.0
C689 C 0.53451 0.38824 0.22896 0.0
C690 C 0.49799 0.38831 0.22931 0.0
C691 C 0.53898 0.3849 0.23915 0.0
C692 C 0.53913 0.3735 0.25463 0.0
C693 C 0.53411 0.37709 0.24544 0.0
C694 C 0.55372 0.38574 0.25147 0.0
C695 C 0.5491 0.37766 0.25764 0.0
C696 C 0.54872 0.38929 0.24232 0.0
C697 C 0.52475 0.39991 0.19235 0.0
C698 C 0.54353 0.40171 0.18834 0.0
C699 C 0.53047 0.40364 0.17442 0.0
C700 C 0.52232 0.40183 0.18173 0.0
C701 C 0.54117 0.40356 0.17764 0.0
C702 C 0.53538 0.39988 0.19562 0.0
C703 C 0.51621 0.39764 0.19992 0.0
O704 O 0.50331 0.38057 0.22469 0.0
O705 O 0.50345 0.39726 0.23006 0.0
O706 O 0.51562 0.40427 0.208 0.0
O707 O 0.51536 0.38758 0.20267 0.0
H708 H 0.49154 0.39728 0.21104 0.0
H709 H 0.47339 0.3988 0.2044 0.0
H710 H 0.46161 0.38348 0.23263 0.0
H711 H 0.47989 0.38188 0.23916 0.0
H712 H 0.53538 0.36725 0.2592 0.0
H713 H 0.52656 0.37361 0.24314 0.0
H714 H 0.56127 0.38928 0.25367 0.0
H715 H 0.55258 0.39536 0.23759 0.0
H716 H 0.55168 0.40144 0.19105 0.0
H717 H 0.5284 0.40514 0.16625 0.0
H718 H 0.51414 0.40187 0.17908 0.0
H719 H 0.53739 0.39833 0.2038 0.0
C720 C 0.37958 0.75312 0.99253 0.0
C721 C 0.383 0.75328 0.98197 0.0
C722 C 0.37371 0.73657 0.97848 0.0
C723 C 0.38014 0.74506 0.97502 0.0
C724 C 0.3702 0.73648 0.98905 0.0
C725 C 0.37315 0.7447 0.99603 0.0
U726 U 0.38918 0.78132 0.99591 0.0
O727 O 0.38434 0.79435 0.00655 0.0
O728 O 0.40084 0.78865 0.00674 0.0
C729 C 0.39369 0.79487 0.01117 0.0
C730 C 0.38247 0.76191 0.99974 0.0
C731 C 0.39381 0.7954 0.02282 0.0
C732 C 0.38484 0.79465 0.03986 0.0
C733 C 0.38477 0.79297 0.02891 0.0
C734 C 0.40309 0.80074 0.03885 0.0
C735 C 0.39394 0.79876 0.04493 0.0
C736 C 0.403 0.79912 0.02792 0.0
C737 C 0.39453 0.79708 0.97076 0.0
C738 C 0.39662 0.81635 0.97049 0.0
C739 C 0.40013 0.80591 0.95468 0.0
C740 C 0.39762 0.79658 0.96013 0.0
C741 C 0.39954 0.81592 0.95976 0.0
C742 C 0.39417 0.807 0.97597 0.0
C743 C 0.39137 0.78724 0.97618 0.0
O744 O 0.39258 0.76458 0.99967 0.0
O745 O 0.37609 0.77018 0.99943 0.0
O746 O 0.38232 0.78772 0.98134 0.0
O747 O 0.39892 0.78243 0.98148 0.0
H748 H 0.38786 0.7598 0.97908 0.0
H749 H 0.38282 0.74544 0.96689 0.0
H750 H 0.36529 0.73002 0.99194 0.0
H751 H 0.37038 0.74449 0.00414 0.0
H752 H 0.37763 0.79312 0.04429 0.0
H753 H 0.37756 0.79007 0.02519 0.0
H754 H 0.4103 0.80373 0.04251 0.0
H755 H 0.41007 0.80102 0.02339 0.0
H756 H 0.3962 0.82393 0.97465 0.0
H757 H 0.40222 0.80532 0.94638 0.0
H758 H 0.39792 0.78899 0.956 0.0
H759 H 0.39186 0.80751 0.98421 0.0
C760 C 0.02008 0.39048 0.78204 0.0
C761 C 0.02227 0.3962 0.79136 0.0
C762 C 0.04119 0.39293 0.7891 0.0
C763 C 0.03273 0.39744 0.79485 0.0
C764 C 0.03896 0.38733 0.77967 0.0
C765 C 0.02848 0.38612 0.77617 0.0
U766 U 0.99106 0.39034 0.78915 0.0
O767 O 0.97671 0.3949 0.78045 0.0
O768 O 0.97849 0.37844 0.78606 0.0
C769 C 0.97284 0.38513 0.78044 0.0
C770 C 0.00904 0.38847 0.77885 0.0
C771 C 0.96883 0.38101 0.77026 0.0
C772 C 0.96815 0.3813 0.75106 0.0
C773 C 0.9727 0.38481 0.76056 0.0
C774 C 0.95612 0.36988 0.76082 0.0
C775 C 0.95973 0.37388 0.75109 0.0
C776 C 0.96061 0.37344 0.7703 0.0
C777 C 0.98298 0.39901 0.81675 0.0
C778 C 0.96484 0.39657 0.82279 0.0
C779 C 0.97756 0.40594 0.83388 0.0
C780 C 0.98539 0.40446 0.82615 0.0
C781 C 0.96723 0.40192 0.83232 0.0
C782 C 0.97265 0.39515 0.81506 0.0
C783 C 0.99128 0.39727 0.80877 0.0
O784 O 0.00445 0.38048 0.78376 0.0
O785 O 1.00298 0.39698 0.77826 0.0
O786 O 0.99091 0.40367 0.80058 0.0
O787 O 0.99287 0.38725 0.80613 0.0
H788 H 0.01586 0.3995 0.79607 0.0
H789 H 0.03415 0.40165 0.80222 0.0
H790 H 0.04531 0.38383 0.77504 0.0
H791 H 0.02691 0.38164 0.76898 0.0
H792 H 0.97117 0.38444 0.74368 0.0
H793 H 0.9791 0.39061 0.76032 0.0
H794 H 0.94957 0.36426 0.76112 0.0
H795 H 0.9575 0.37044 0.77771 0.0
H796 H 0.95692 0.39352 0.8213 0.0
H797 H 0.97966 0.41001 0.84117 0.0
H798 H 0.99334 0.4075 0.82755 0.0
H799 H 0.97065 0.39099 0.80779 0.0
C800 C 0.37796 0.25402 0.51323 0.0
C801 C 0.38064 0.25395 0.52399 0.0
C802 C 0.37067 0.27031 0.52689 0.0
C803 C 0.37707 0.26202 0.53074 0.0
C804 C 0.36812 0.27044 0.51605 0.0
C805 C 0.37172 0.26233 0.50927 0.0
U806 U 0.38907 0.22648 0.51143 0.0
O807 O 0.38443 0.21233 0.50216 0.0
O808 O 0.40058 0.21887 0.50071 0.0
C809 C 0.39364 0.21179 0.49728 0.0
C810 C 0.38123 0.24509 0.50639 0.0
C811 C 0.39313 0.21026 0.48579 0.0
C812 C 0.389 0.21655 0.46814 0.0
C813 C 0.3897 0.2184 0.47905 0.0
C814 C 0.39525 0.19847 0.47068 0.0
C815 C 0.39167 0.20651 0.46385 0.0
C816 C 0.39596 0.20034 0.48153 0.0
C817 C 0.39567 0.21309 0.5376 0.0
C818 C 0.39801 0.19397 0.5395 0.0
C819 C 0.40211 0.20587 0.55413 0.0
C820 C 0.39926 0.21462 0.54797 0.0
C821 C 0.40135 0.19542 0.55003 0.0
C822 C 0.39521 0.20274 0.53333 0.0
C823 C 0.39205 0.22232 0.53151 0.0
O824 O 0.39148 0.24308 0.50638 0.0
O825 O 0.37535 0.23646 0.50736 0.0
O826 O 0.38287 0.22106 0.52671 0.0
O827 O 0.39927 0.22697 0.52559 0.0
H828 H 0.38541 0.24756 0.52719 0.0
H829 H 0.37935 0.26177 0.53898 0.0
H830 H 0.36315 0.27667 0.51286 0.0
H831 H 0.36952 0.26245 0.501 0.0
H832 H 0.38615 0.22286 0.46309 0.0
H833 H 0.38746 0.22612 0.48225 0.0
H834 H 0.39753 0.19072 0.46761 0.0
H835 H 0.39867 0.19399 0.48663 0.0
H836 H 0.39723 0.18605 0.53611 0.0
H837 H 0.40484 0.20729 0.56213 0.0
H838 H 0.39972 0.22257 0.55137 0.0
H839 H 0.39248 0.20143 0.5253 0.0
C840 C 0.48552 0.61895 0.28476 0.0
C841 C 0.48326 0.61355 0.29417 0.0
C842 C 0.46443 0.61732 0.29209 0.0
C843 C 0.4728 0.61271 0.29779 0.0
C844 C 0.46674 0.6227 0.28262 0.0
C845 C 0.47722 0.62349 0.27898 0.0
U846 U 0.51477 0.61745 0.29084 0.0
O847 O 0.52832 0.61148 0.28153 0.0
O848 O 0.52804 0.62817 0.28697 0.0
C849 C 0.53295 0.62089 0.28127 0.0
C850 C 0.49657 0.62021 0.28122 0.0
C851 C 0.53691 0.62429 0.27088 0.0
C852 C 0.53557 0.63498 0.25497 0.0
C853 C 0.53129 0.63153 0.26459 0.0
C854 C 0.55097 0.62379 0.25776 0.0
C855 C 0.54549 0.63117 0.25148 0.0
C856 C 0.54672 0.62041 0.26736 0.0
C857 C 0.52375 0.60916 0.31799 0.0
C858 C 0.54257 0.60961 0.32212 0.0
C859 C 0.52991 0.6035 0.33523 0.0
C860 C 0.52161 0.60522 0.3281 0.0
C861 C 0.54049 0.60572 0.33233 0.0
C862 C 0.53428 0.61129 0.31501 0.0
C863 C 0.51505 0.61118 0.31057 0.0
O864 O 0.50182 0.62802 0.28586 0.0
O865 O 0.50205 0.61131 0.28055 0.0
O866 O 0.51447 0.60452 0.30252 0.0
O867 O 0.51398 0.62121 0.30782 0.0
H868 H 0.4896 0.61009 0.2988 0.0
H869 H 0.47131 0.60867 0.30519 0.0
H870 H 0.46045 0.62627 0.27802 0.0
H871 H 0.47885 0.62772 0.27171 0.0
H872 H 0.53113 0.64059 0.25026 0.0
H873 H 0.52366 0.63458 0.26715 0.0
H874 H 0.55868 0.62082 0.25537 0.0
H875 H 0.55117 0.61484 0.27213 0.0
H876 H 0.55059 0.61156 0.31968 0.0
H877 H 0.52805 0.60039 0.34298 0.0
H878 H 0.51351 0.6035 0.3305 0.0
H879 H 0.53606 0.61437 0.30722 0.0
C880 C 0.12079 0.77769 0.97976 0.0
C881 C 0.11588 0.78747 0.97766 0.0
C882 C 0.11885 0.78492 0.95879 0.0
C883 C 0.1149 0.79105 0.96728 0.0
C884 C 0.12373 0.77508 0.96094 0.0
C885 C 0.12468 0.77149 0.97136 0.0
U886 U 0.1186 0.78396 0.00877 0.0
O887 O 0.11285 0.77455 0.02228 0.0
O888 O 0.1292 0.78077 0.02214 0.0
C889 C 0.12209 0.77493 0.02709 0.0
C890 C 0.12208 0.77416 0.99073 0.0
C891 C 0.12589 0.76487 0.0316 0.0
C892 C 0.1367 0.74884 0.03092 0.0
C893 C 0.13266 0.75796 0.02601 0.0
C894 C 0.12702 0.75337 0.04689 0.0
C895 C 0.13405 0.74655 0.04148 0.0
C896 C 0.123 0.76244 0.042 0.0
C897 C 0.10892 0.81121 0.01723 0.0
C898 C 0.10636 0.81514 0.03588 0.0
C899 C 0.10518 0.82932 0.023 0.0
C900 C 0.10724 0.82198 0.01488 0.0
C901 C 0.10475 0.82598 0.0336 0.0
C902 C 0.10845 0.80782 0.02776 0.0
C903 C 0.1115 0.80361 0.00874 0.0
O904 O 0.12957 0.77919 0.99605 0.0
O905 O 0.11319 0.77314 0.9961 0.0
O906 O 0.10525 0.7952 0.00812 0.0
O907 O 0.12162 0.80124 0.00792 0.0
H908 H 0.1129 0.7924 0.98408 0.0
H909 H 0.11126 0.79874 0.96592 0.0
H910 H 0.12678 0.77015 0.95458 0.0
H911 H 0.12851 0.76393 0.97286 0.0
H912 H 0.14211 0.74375 0.02656 0.0
H913 H 0.13496 0.75972 0.01795 0.0
H914 H 0.12464 0.75172 0.05495 0.0
H915 H 0.11775 0.76766 0.04641 0.0
H916 H 0.10624 0.81234 0.04396 0.0
H917 H 0.10389 0.83761 0.02099 0.0
H918 H 0.1076 0.82472 0.00678 0.0
H919 H 0.10983 0.79954 0.02971 0.0
C920 C 0.75501 0.98955 0.62774 0.0
C921 C 0.75333 0.9803 0.63373 0.0
C922 C 0.77227 0.97654 0.63351 0.0
C923 C 0.76188 0.9739 0.63665 0.0
C924 C 0.77394 0.98582 0.62753 0.0
C925 C 0.76537 0.9923 0.6247 0.0
U926 U 0.72651 0.99051 0.619 0.0
O927 O 0.71332 1.00118 0.62305 0.0
O928 O 0.71844 0.99956 0.60651 0.0
C929 C 0.7122 1.0045 0.61328 0.0
C930 C 0.74594 0.99596 0.62414 0.0
C931 C 0.71121 0.01609 0.61203 0.0
C932 C 0.71718 0.03422 0.61559 0.0
C933 C 0.71884 0.02319 0.61612 0.0
C934 C 0.70044 0.03108 0.60662 0.0
C935 C 0.70785 0.03827 0.61101 0.0
C936 C 0.70211 0.0201 0.60714 0.0
C937 C 0.71138 0.96416 0.61798 0.0
C938 C 0.69331 0.96291 0.61134 0.0
C939 C 0.70132 0.94777 0.62005 0.0
C940 C 0.71067 0.95363 0.62153 0.0
C941 C 0.69252 0.95235 0.61498 0.0
C942 C 0.70266 0.96879 0.61287 0.0
C943 C 0.72115 0.97028 0.6199 0.0
O944 O 0.74299 0.99416 0.61433 0.0
O945 O 0.7379 0.99657 0.63077 0.0
O946 O 0.72084 0.97673 0.62812 0.0
O947 O 0.72551 0.97465 0.61152 0.0
H948 H 0.74537 0.97791 0.63603 0.0
H949 H 0.76032 0.96671 0.64111 0.0
H950 H 0.78187 0.98807 0.62504 0.0
H951 H 0.76682 0.99936 0.62001 0.0
H952 H 0.723 0.03956 0.61909 0.0
H953 H 0.72592 0.02019 0.61993 0.0
H954 H 0.69327 0.03395 0.60289 0.0
H955 H 0.69616 0.01472 0.60392 0.0
H956 H 0.68664 0.96669 0.6075 0.0
H957 H 0.701 0.93961 0.62282 0.0
H958 H 0.71733 0.94995 0.62549 0.0
H959 H 0.70307 0.97696 0.61015 0.0
C960 C 0.75358 0.98829 0.37969 0.0
C961 C 0.75442 0.97741 0.38206 0.0
C962 C 0.73731 0.97392 0.37376 0.0
C963 C 0.74635 0.97031 0.37918 0.0
C964 C 0.73648 0.98486 0.37143 0.0
C965 C 0.74457 0.99199 0.37437 0.0
U966 U 0.78208 0.99175 0.38753 0.0
O967 O 0.79452 1.00296 0.38248 0.0
O968 O 0.78996 1.00215 0.39924 0.0
C969 C 0.79567 0.00703 0.39203 0.0
C970 C 0.76231 0.99562 0.38242 0.0
C971 C 0.79598 0.01873 0.3928 0.0
C972 C 0.7904 0.03634 0.38714 0.0
C973 C 0.78945 0.02521 0.38657 0.0
C974 C 0.80418 0.03458 0.40037 0.0
C975 C 0.79784 0.04114 0.39401 0.0
C976 C 0.80326 0.02349 0.39976 0.0
C977 C 0.7985 0.9664 0.39041 0.0
C978 C 0.81773 0.96519 0.38911 0.0
C979 C 0.8077 0.95104 0.39752 0.0
C980 C 0.79828 0.95656 0.39561 0.0
C981 C 0.81751 0.95525 0.39418 0.0
C982 C 0.80831 0.97076 0.3873 0.0
C983 C 0.78844 0.97187 0.38817 0.0
O984 O 0.7656 0.99508 0.39227 0.0
O985 O 0.77013 0.99582 0.37553 0.0
O986 O 0.78821 0.9775 0.37944 0.0
O987 O 0.78398 0.97673 0.39627 0.0
H988 H 0.76136 0.9744 0.38611 0.0
H989 H 0.74718 0.96199 0.38126 0.0
H990 H 0.72968 0.98789 0.36717 0.0
H991 H 0.74384 1.00035 0.37241 0.0
H992 H 0.78535 0.04119 0.38221 0.0
H993 H 0.78373 0.02167 0.38119 0.0
H994 H 0.81011 0.03799 0.40561 0.0
H995 H 0.80838 0.01861 0.40461 0.0
H996 H 0.82519 0.96867 0.38656 0.0
H997 H 0.80728 0.94335 0.40135 0.0
H998 H 0.79079 0.95308 0.39809 0.0
H999 H 0.80868 0.97841 0.38337 0.0
C1000 C 0.77844 0.98574 0.11706 0.0
C1001 C 0.78822 0.98368 0.11214 0.0
C1002 C 0.78589 0.96464 0.11506 0.0
C1003 C 0.79189 0.97323 0.11112 0.0
C1004 C 0.77607 0.96675 0.11998 0.0
C1005 C 0.77237 0.97723 0.12095 0.0
U1006 U 0.78475 0.01512 0.1169 0.0
O1007 O 0.77594 0.02896 0.11089 0.0
O1008 O 0.7803 0.02817 0.12769 0.0
C1009 C 0.77511 0.03334 0.12032 0.0
C1010 C 0.77481 0.99679 0.11849 0.0
C1011 C 0.76452 0.0374 0.12318 0.0
C1012 C 0.74835 0.03682 0.1337 0.0
C1013 C 0.75809 0.03233 0.13073 0.0
C1014 C 0.75127 0.05128 0.12141 0.0
C1015 C 0.74487 0.04639 0.12911 0.0
C1016 C 0.761 0.04684 0.1185 0.0
C1017 C 0.81272 0.02407 0.11048 0.0
C1018 C 0.81779 0.04263 0.11288 0.0
C1019 C 0.83014 0.03018 0.10486 0.0
C1020 C 0.82264 0.02198 0.10591 0.0
C1021 C 0.82782 0.04057 0.10841 0.0
C1022 C 0.81029 0.03446 0.11387 0.0
C1023 C 0.80495 0.01542 0.1118 0.0
O1024 O 0.77898 1.00182 0.12665 0.0
O1025 O 0.77471 1.00257 0.10985 0.0
O1026 O 0.7973 0.01515 0.10475 0.0
O1027 O 0.80153 0.01408 0.12152 0.0
H1028 H 0.79307 0.99018 0.1092 0.0
H1029 H 0.79956 0.97189 0.10746 0.0
H1030 H 0.77124 0.96029 0.12303 0.0
H1031 H 0.76483 0.9787 0.12481 0.0
H1032 H 0.74354 0.03281 0.13959 0.0
H1033 H 0.76063 0.025 0.13442 0.0
H1034 H 0.7489 0.05873 0.11783 0.0
H1035 H 0.76587 0.05089 0.11269 0.0
H1036 H 0.81572 0.05059 0.11555 0.0
H1037 H 0.83783 0.02833 0.10146 0.0
H1038 H 0.82462 0.01399 0.10325 0.0
H1039 H 0.80262 0.03622 0.11735 0.0
C1040 C 0.72743 0.98562 0.89244 0.0
C1041 C 0.71687 0.98384 0.89552 0.0
C1042 C 0.71931 0.96466 0.89362 0.0
C1043 C 0.71285 0.97346 0.89612 0.0
C1044 C 0.72996 0.96649 0.89071 0.0
C1045 C 0.73398 0.9769 0.8901 0.0
U1046 U 0.72197 0.0151 0.89298 0.0
O1047 O 0.73113 0.02872 0.89933 0.0
O1048 O 0.72695 0.02805 0.88246 0.0
C1049 C 0.73223 0.03308 0.88997 0.0
C1050 C 0.73144 0.99657 0.89134 0.0
C1051 C 0.743 0.03673 0.88723 0.0
C1052 C 0.7595 0.03495 0.87737 0.0
C1053 C 0.74957 0.03089 0.88035 0.0
C1054 C 0.7565 0.05057 0.88837 0.0
C1055 C 0.76304 0.04488 0.8813 0.0
C1056 C 0.74658 0.04653 0.89128 0.0
C1057 C 0.69409 0.02457 0.89885 0.0
C1058 C 0.69001 0.04346 0.89797 0.0
C1059 C 0.67629 0.03079 0.90285 0.0
C1060 C 0.68358 0.02245 0.90183 0.0
C1061 C 0.67941 0.04139 0.9009 0.0
C1062 C 0.69728 0.03512 0.89697 0.0
C1063 C 0.70166 0.01579 0.89758 0.0
O1064 O 0.72766 1.00174 0.88317 0.0
O1065 O 0.73142 1.00229 0.9001 0.0
O1066 O 0.70914 0.01537 0.90481 0.0
O1067 O 0.70529 0.01443 0.88792 0.0
H1068 H 0.71171 0.9905 0.89736 0.0
H1069 H 0.70467 0.97234 0.89855 0.0
H1070 H 0.73511 0.95989 0.88863 0.0
H1071 H 0.74215 0.97815 0.88768 0.0
H1072 H 0.76441 0.03035 0.872 0.0
H1073 H 0.74698 0.02326 0.87717 0.0
H1074 H 0.75892 0.0583 0.89143 0.0
H1075 H 0.7416 0.05117 0.89657 0.0
H1076 H 0.69265 0.0515 0.89626 0.0
H1077 H 0.66823 0.02894 0.90524 0.0
H1078 H 0.681 0.01434 0.90334 0.0
H1079 H 0.70538 0.03688 0.89463 0.0
C1080 C 0.63405 0.75367 0.99621 0.0
C1081 C 0.63568 0.75169 0.98541 0.0
C1082 C 0.64092 0.77019 0.98279 0.0
C1083 C 0.6391 0.75985 0.97877 0.0
C1084 C 0.63925 0.77215 0.99364 0.0
C1085 C 0.63585 0.76393 1.00031 0.0
U1086 U 0.62383 0.7257 0.99812 0.0
O1087 O 0.6276 0.71243 0.0087 0.0
O1088 O 0.61122 0.71833 0.00773 0.0
C1089 C 0.61788 0.71189 0.01247 0.0
C1090 C 0.6303 0.745 1.00305 0.0
C1091 C 0.61695 0.71132 0.02403 0.0
C1092 C 0.62245 0.7167 0.0417 0.0
C1093 C 0.62302 0.71793 0.03071 0.0
C1094 C 0.60954 0.70249 0.03938 0.0
C1095 C 0.61577 0.70889 0.04614 0.0
C1096 C 0.61014 0.70369 0.02843 0.0
C1097 C 0.62087 0.71057 0.97196 0.0
C1098 C 0.61717 0.69155 0.97091 0.0
C1099 C 0.61819 0.70205 0.9549 0.0
C1100 C 0.62024 0.71119 0.96094 0.0
C1101 C 0.61675 0.69209 0.9598 0.0
C1102 C 0.61922 0.70073 0.97694 0.0
C1103 C 0.62354 0.72019 0.97808 0.0
O1104 O 0.62022 0.74248 1.00187 0.0
O1105 O 0.63655 0.73662 1.0033 0.0
O1106 O 0.63202 0.71945 0.98406 0.0
O1107 O 0.61553 0.72492 0.98283 0.0
H1108 H 0.63424 0.74381 0.9821 0.0
H1109 H 0.64011 0.75811 0.97043 0.0
H1110 H 0.64064 0.78001 0.99697 0.0
H1111 H 0.6346 0.76559 0.00863 0.0
H1112 H 0.62728 0.72182 0.0467 0.0
H1113 H 0.62829 0.72391 0.02744 0.0
H1114 H 0.60443 0.69629 0.04252 0.0
H1115 H 0.60542 0.69851 0.02338 0.0
H1116 H 0.61618 0.684 0.97491 0.0
H1117 H 0.61772 0.70278 0.94639 0.0
H1118 H 0.62145 0.71875 0.95698 0.0
H1119 H 0.61967 0.70014 0.98547 0.0
C1120 C 0.98635 0.11783 0.78315 0.0
C1121 C 0.98407 0.11233 0.79251 0.0
C1122 C 0.96525 0.11614 0.79045 0.0
C1123 C 0.97362 0.11146 0.79611 0.0
C1124 C 0.96758 0.12161 0.78103 0.0
C1125 C 0.97806 0.12243 0.77741 0.0
U1126 U 0.01545 0.11601 0.78949 0.0
O1127 O 0.02915 0.11015 0.78031 0.0
O1128 O 0.02887 0.12672 0.78615 0.0
C1129 C 0.03392 0.1195 0.78049 0.0
C1130 C 0.99742 0.11912 0.77967 0.0
C1131 C 0.03854 0.12311 0.77045 0.0
C1132 C 0.03842 0.13429 0.75481 0.0
C1133 C 0.03335 0.13043 0.76389 0.0
C1134 C 0.05373 0.12331 0.75865 0.0
C1135 C 0.04875 0.13089 0.7522 0.0
C1136 C 0.04867 0.11948 0.76768 0.0
C1137 C 0.02399 0.10709 0.81652 0.0
C1138 C 0.04282 0.10698 0.82062 0.0
C1139 C 0.02998 0.1017 0.83391 0.0
C1140 C 0.02173 0.10351 0.82675 0.0
C1141 C 0.04062 0.10346 0.83094 0.0
C1142 C 0.03458 0.10877 0.81348 0.0
C1143 C 0.01536 0.10931 0.80908 0.0
O1144 O 1.00267 0.1268 0.78453 0.0
O1145 O 1.00286 0.11022 0.77885 0.0
O1146 O 0.01485 0.10283 0.80088 0.0
O1147 O 0.01438 0.1194 0.80653 0.0
H1148 H 0.99041 0.10882 0.79711 0.0
H1149 H 0.97213 0.10736 0.80347 0.0
H1150 H 0.96129 0.12524 0.77647 0.0
H1151 H 0.9797 0.12674 0.77019 0.0
H1152 H 0.0344 0.14014 0.75002 0.0
H1153 H 0.02549 0.13331 0.7659 0.0
H1154 H 0.06158 0.12035 0.75674 0.0
H1155 H 0.05277 0.11379 0.77262 0.0
H1156 H 0.0509 0.10858 0.81812 0.0
H1157 H 0.02803 0.09889 0.84176 0.0
H1158 H 0.01358 0.10217 0.8292 0.0
H1159 H 0.03646 0.11158 0.80561 0.0
C1160 C 0.8755 0.25587 0.4923 0.0
C1161 C 0.87471 0.25815 0.48149 0.0
C1162 C 0.86854 0.24006 0.4779 0.0
C1163 C 0.87126 0.25033 0.47436 0.0
C1164 C 0.86938 0.2378 0.48876 0.0
C1165 C 0.87281 0.24567 0.49591 0.0
U1166 U 0.88657 0.28338 0.49591 0.0
O1167 O 0.88282 0.29644 0.50691 0.0
O1168 O 0.899 0.28994 0.50637 0.0
C1169 C 0.89235 0.29643 0.51116 0.0
C1170 C 0.87925 0.26417 0.49966 0.0
C1171 C 0.89276 0.29659 0.52279 0.0
C1172 C 0.88481 0.29319 0.53997 0.0
C1173 C 0.88469 0.292 0.52896 0.0
C1174 C 0.90131 0.30313 0.53879 0.0
C1175 C 0.89304 0.29891 0.54499 0.0
C1176 C 0.90115 0.302 0.5278 0.0
C1177 C 0.89101 0.29919 0.47048 0.0
C1178 C 0.89442 0.31828 0.47003 0.0
C1179 C 0.89497 0.30784 0.45384 0.0
C1180 C 0.8926 0.29863 0.45954 0.0
C1181 C 0.89575 0.3178 0.45899 0.0
C1182 C 0.89206 0.30904 0.47574 0.0
C1183 C 0.88786 0.28951 0.47615 0.0
O1184 O 0.88944 0.26637 0.49898 0.0
O1185 O 0.87328 0.27276 0.50007 0.0
O1186 O 0.87917 0.29033 0.48186 0.0
O1187 O 0.89554 0.28442 0.48098 0.0
H1188 H 0.87682 0.26598 0.47855 0.0
H1189 H 0.8709 0.25229 0.46604 0.0
H1190 H 0.86728 0.22998 0.49173 0.0
H1191 H 0.87339 0.24378 0.50423 0.0
H1192 H 0.87839 0.28975 0.54455 0.0
H1193 H 0.87817 0.28771 0.52527 0.0
H1194 H 0.90769 0.30769 0.54239 0.0
H1195 H 0.90744 0.30561 0.52317 0.0
H1196 H 0.8949 0.32583 0.47422 0.0
H1197 H 0.89615 0.30716 0.44538 0.0
H1198 H 0.89186 0.29108 0.45538 0.0
H1199 H 0.89086 0.30959 0.48421 0.0
C1200 C 0.50735 0.87852 0.77277 0.0
C1201 C 0.50957 0.88108 0.78335 0.0
C1202 C 0.49092 0.88502 0.78653 0.0
C1203 C 0.50145 0.88433 0.79015 0.0
C1204 C 0.48875 0.8826 0.77585 0.0
C1205 C 0.49692 0.87936 0.76903 0.0
U1206 U 0.53477 0.86737 0.77075 0.0
O1207 O 0.54161 0.85438 0.76113 0.0
O1208 O 0.54822 0.87061 0.76018 0.0
C1209 C 0.54838 0.86081 0.75642 0.0
C1210 C 0.51588 0.87452 0.76589 0.0
C1211 C 0.54913 0.85976 0.74487 0.0
C1212 C 0.54473 0.8656 0.72713 0.0
C1213 C 0.54316 0.86621 0.73808 0.0
C1214 C 0.55793 0.85183 0.72969 0.0
C1215 C 0.55228 0.85853 0.72283 0.0
C1216 C 0.55638 0.85246 0.7406 0.0
C1217 C 0.54955 0.86381 0.79678 0.0
C1218 C 0.56766 0.85724 0.79746 0.0
C1219 C 0.55858 0.86235 0.81362 0.0
C1220 C 0.54957 0.86499 0.80779 0.0
C1221 C 0.56775 0.85847 0.80853 0.0
C1222 C 0.55862 0.85989 0.79163 0.0
C1223 C 0.54011 0.86692 0.79079 0.0
O1224 O 0.52448 0.88051 0.76564 0.0
O1225 O 0.51796 0.86431 0.76698 0.0
O1226 O 0.53501 0.85908 0.78602 0.0
O1227 O 0.5413 0.87539 0.78483 0.0
H1228 H 0.51758 0.88044 0.7864 0.0
H1229 H 0.50344 0.8863 0.79826 0.0
H1230 H 0.48071 0.88294 0.77284 0.0
H1231 H 0.49507 0.87734 0.76089 0.0
H1232 H 0.54029 0.8709 0.72207 0.0
H1233 H 0.5375 0.87187 0.74126 0.0
H1234 H 0.56366 0.84617 0.72662 0.0
H1235 H 0.56101 0.84738 0.74573 0.0
H1236 H 0.57456 0.85419 0.79332 0.0
H1237 H 0.55843 0.86357 0.8221 0.0
H1238 H 0.54263 0.86806 0.81186 0.0
H1239 H 0.55872 0.85894 0.7831 0.0
C1240 C 0.97799 0.13933 0.23797 0.0
C1241 C 0.96708 0.14047 0.23607 0.0
C1242 C 0.97042 0.14184 0.21716 0.0
C1243 C 0.96333 0.14168 0.22577 0.0
C1244 C 0.98137 0.14076 0.21913 0.0
C1245 C 0.98512 0.13952 0.22946 0.0
U1246 U 0.97206 0.13946 0.26708 0.0
O1247 O 0.9766 0.1286 0.27985 0.0
O1248 O 0.98104 0.14557 0.2808 0.0
C1249 C 0.98188 0.13605 0.28502 0.0
C1250 C 0.98183 0.13794 0.24883 0.0
C1251 C 0.99248 0.13317 0.28896 0.0
C1252 C 0.0083 0.12207 0.28867 0.0
C1253 C 0.99861 0.12512 0.28419 0.0
C1254 C 0.00595 0.13529 0.30253 0.0
C1255 C 0.01203 0.12708 0.29795 0.0
C1256 C 0.99628 0.13828 0.29809 0.0
C1257 C 0.94423 0.14599 0.27624 0.0
C1258 C 0.9395 0.14412 0.29475 0.0
C1259 C 0.92704 0.15205 0.28253 0.0
C1260 C 0.93434 0.15065 0.27429 0.0
C1261 C 0.92953 0.14875 0.29284 0.0
C1262 C 0.9468 0.14278 0.28652 0.0
C1263 C 0.95188 0.14456 0.26759 0.0
O1264 O 0.98191 0.14668 0.25463 0.0
O1265 O 0.9778 0.12967 0.25379 0.0
O1266 O 0.95525 0.13474 0.26618 0.0
O1267 O 0.95956 0.15168 0.2673 0.0
H1268 H 0.96146 0.14035 0.24256 0.0
H1269 H 0.95484 0.14229 0.22456 0.0
H1270 H 0.98705 0.14096 0.21269 0.0
H1271 H 0.99357 0.13869 0.23082 0.0
H1272 H 0.01285 0.11578 0.28492 0.0
H1273 H 0.99586 0.12108 0.2771 0.0
H1274 H 0.00851 0.1392 0.30976 0.0
H1275 H 0.99165 0.14447 0.30193 0.0
H1276 H 0.94172 0.14164 0.30263 0.0
H1277 H 0.91939 0.15556 0.2808 0.0
H1278 H 0.93225 0.15319 0.26639 0.0
H1279 H 0.95446 0.13924 0.28818 0.0
C1280 C 0.50825 0.1329 0.73395 0.0
C1281 C 0.50831 0.13641 0.72344 0.0
C1282 C 0.49177 0.12688 0.72001 0.0
C1283 C 0.50013 0.13347 0.71656 0.0
C1284 C 0.49167 0.1235 0.73061 0.0
C1285 C 0.49986 0.12648 0.73752 0.0
U1286 U 0.53649 0.14208 0.73641 0.0
O1287 O 0.54472 0.15272 0.74762 0.0
O1288 O 0.54991 0.13609 0.74576 0.0
C1289 C 0.55103 0.14512 0.75098 0.0
C1290 C 0.51728 0.13539 0.7409 0.0
C1291 C 0.55226 0.14419 0.76249 0.0
C1292 C 0.54531 0.14509 0.78042 0.0
C1293 C 0.54371 0.14571 0.76948 0.0
C1294 C 0.56393 0.14126 0.77742 0.0
C1295 C 0.55546 0.14287 0.7845 0.0
C1296 C 0.56234 0.14192 0.76653 0.0
C1297 C 0.55113 0.14849 0.71091 0.0
C1298 C 0.56972 0.15374 0.71099 0.0
C1299 C 0.56058 0.15078 0.69436 0.0
C1300 C 0.55126 0.14833 0.69985 0.0
C1301 C 0.56995 0.15344 0.69986 0.0
C1302 C 0.56038 0.15127 0.71647 0.0
C1303 C 0.54145 0.1453 0.71654 0.0
O1304 O 0.52541 0.12893 0.73981 0.0
O1305 O 0.52007 0.14552 0.74129 0.0
O1306 O 0.53716 0.15267 0.72262 0.0
O1307 O 0.5419 0.1359 0.72104 0.0
H1308 H 0.51477 0.14132 0.72052 0.0
H1309 H 0.50038 0.13636 0.70851 0.0
H1310 H 0.48541 0.11833 0.7335 0.0
H1311 H 0.49976 0.12362 0.74558 0.0
H1312 H 0.53862 0.14629 0.78567 0.0
H1313 H 0.53584 0.14742 0.76649 0.0
H1314 H 0.57187 0.1397 0.7803 0.0
H1315 H 0.56903 0.14076 0.76126 0.0
H1316 H 0.57676 0.15586 0.71546 0.0
H1317 H 0.56051 0.1503 0.68581 0.0
H1318 H 0.54419 0.14613 0.69545 0.0
H1319 H 0.5604 0.15141 0.72504 0.0
C1320 C 0.13627 0.23465 0.97916 0.0
C1321 C 0.13765 0.23273 0.96831 0.0
C1322 C 0.1388 0.21363 0.97147 0.0
C1323 C 0.13887 0.22234 0.9645 0.0
C1324 C 0.1375 0.21561 0.98237 0.0
C1325 C 0.13624 0.22606 0.98618 0.0
U1326 U 0.13609 0.26396 0.97328 0.0
O1327 O 0.12506 0.27676 0.97771 0.0
O1328 O 0.1419 0.27797 0.98221 0.0
C1329 C 0.13237 0.28217 0.98291 0.0
C1330 C 0.13479 0.24561 0.98303 0.0
C1331 C 0.12928 0.28632 0.99337 0.0
C1332 C 0.11918 0.28513 0.00972 0.0
C1333 C 0.12263 0.28054 1.00019 0.0
C1334 C 0.12926 0.30114 0.0058 0.0
C1335 C 0.12232 0.29556 0.01254 0.0
C1336 C 0.13267 0.29657 0.99631 0.0
C1337 C 0.14227 0.27302 0.94554 0.0
C1338 C 0.13984 0.29161 0.94091 0.0
C1339 C 0.14776 0.27935 0.92828 0.0
C1340 C 0.14675 0.27107 0.93558 0.0
C1341 C 0.14425 0.2897 0.93085 0.0
C1342 C 0.13889 0.28335 0.9482 0.0
C1343 C 0.14112 0.26431 0.95316 0.0
O1344 O 0.14343 0.25154 0.98307 0.0
O1345 O 0.12649 0.25053 0.97909 0.0
O1346 O 0.13139 0.26272 0.9566 0.0
O1347 O 0.14823 0.26424 0.96075 0.0
H1348 H 0.13767 0.2393 0.96277 0.0
H1349 H 0.13966 0.22112 0.95605 0.0
H1350 H 0.13752 0.20911 0.98797 0.0
H1351 H 0.13522 0.22742 0.99459 0.0
H1352 H 0.11381 0.28065 0.01471 0.0
H1353 H 0.11994 0.27259 0.99806 0.0
H1354 H 0.13202 0.30909 0.00783 0.0
H1355 H 0.13784 0.30112 0.99116 0.0
H1356 H 0.13722 0.29952 0.94318 0.0
H1357 H 0.15111 0.27763 0.92057 0.0
H1358 H 0.14941 0.26313 0.93342 0.0
H1359 H 0.13549 0.285 0.95591 0.0
C1360 C 0.37741 0.73997 0.50967 0.0
C1361 C 0.37446 0.72916 0.50944 0.0
C1362 C 0.38319 0.72635 0.52633 0.0
C1363 C 0.37729 0.72243 0.5177 0.0
C1364 C 0.38623 0.73717 0.52649 0.0
C1365 C 0.38333 0.74394 0.51822 0.0
U1366 U 0.36866 0.7422 0.48148 0.0
O1367 O 0.35678 0.75234 0.47373 0.0
O1368 O 0.37344 0.75277 0.46852 0.0
C1369 C 0.36393 0.757 0.46773 0.0
C1370 C 0.37456 0.74692 0.50081 0.0
C1371 C 0.36337 0.76875 0.46721 0.0
C1372 C 0.37154 0.78634 0.46851 0.0
C1373 C 0.37205 0.77529 0.46995 0.0
C1374 C 0.35355 0.78451 0.46197 0.0
C1375 C 0.36233 0.79106 0.46434 0.0
C1376 C 0.35408 0.77348 0.46335 0.0
C1377 C 0.36495 0.71581 0.46647 0.0
C1378 C 0.36351 0.71425 0.44736 0.0
C1379 C 0.36051 0.69877 0.45838 0.0
C1380 C 0.36239 0.70498 0.4674 0.0
C1381 C 0.3612 0.70328 0.44824 0.0
C1382 C 0.36536 0.72046 0.45641 0.0
C1383 C 0.36753 0.72198 0.47604 0.0
O1384 O 0.38121 0.74667 0.4928 0.0
O1385 O 0.36455 0.74637 0.49788 0.0
O1386 O 0.35959 0.72715 0.48043 0.0
O1387 O 0.37634 0.72763 0.47559 0.0
H1388 H 0.37002 0.72591 0.50282 0.0
H1389 H 0.37499 0.7141 0.51725 0.0
H1390 H 0.39075 0.74041 0.53306 0.0
H1391 H 0.38572 0.75225 0.51848 0.0
H1392 H 0.37849 0.79113 0.47033 0.0
H1393 H 0.37931 0.77187 0.47297 0.0
H1394 H 0.34627 0.78788 0.45892 0.0
H1395 H 0.34728 0.76859 0.46121 0.0
H1396 H 0.36418 0.71796 0.43968 0.0
H1397 H 0.35856 0.69041 0.45935 0.0
H1398 H 0.36199 0.70128 0.47511 0.0
H1399 H 0.3673 0.72885 0.45556 0.0
C1400 C 0.73342 0.5287 0.87354 0.0
C1401 C 0.73097 0.53843 0.8687 0.0
C1402 C 0.71219 0.53571 0.87249 0.0
C1403 C 0.72045 0.54189 0.86816 0.0
C1404 C 0.71469 0.52593 0.87728 0.0
C1405 C 0.72523 0.52245 0.87779 0.0
U1406 U 0.76257 0.53498 0.87051 0.0
O1407 O 0.77628 0.53151 0.88062 0.0
O1408 O 0.77588 0.52547 0.86427 0.0
C1409 C 0.78089 0.52553 0.87338 0.0
C1410 C 0.74452 0.52525 0.87439 0.0
C1411 C 0.78497 0.51518 0.87694 0.0
C1412 C 0.78388 0.49939 0.88796 0.0
C1413 C 0.77949 0.50896 0.88438 0.0
C1414 C 0.7991 0.50207 0.87652 0.0
C1415 C 0.79375 0.49586 0.88408 0.0
C1416 C 0.79474 0.51164 0.873 0.0
C1417 C 0.77092 0.56232 0.86096 0.0
C1418 C 0.78944 0.56613 0.85708 0.0
C1419 C 0.77674 0.58058 0.85822 0.0
C1420 C 0.76864 0.57323 0.86037 0.0
C1421 C 0.78725 0.57712 0.85661 0.0
C1422 C 0.78135 0.5588 0.85928 0.0
C1423 C 0.76247 0.5547 0.8637 0.0
O1424 O 0.74962 0.52434 0.86535 0.0
O1425 O 0.75007 0.53022 0.88172 0.0
O1426 O 0.76197 0.55224 0.87377 0.0
O1427 O 0.76161 0.54636 0.8574 0.0
H1428 H 0.73722 0.5434 0.86546 0.0
H1429 H 0.71883 0.54953 0.86457 0.0
H1430 H 0.7085 0.52095 0.88061 0.0
H1431 H 0.727 0.51493 0.88156 0.0
H1432 H 0.77953 0.49473 0.89372 0.0
H1433 H 0.77189 0.51155 0.88748 0.0
H1434 H 0.80678 0.49967 0.87348 0.0
H1435 H 0.7991 0.51636 0.86728 0.0
H1436 H 0.7974 0.56317 0.85574 0.0
H1437 H 0.7748 0.58899 0.85807 0.0
H1438 H 0.76064 0.57607 0.86173 0.0
H1439 H 0.78325 0.55039 0.85974 0.0
C1440 C 0.74299 0.50536 0.13022 0.0
C1441 C 0.73262 0.50495 0.1343 0.0
C1442 C 0.72944 0.48809 0.12517 0.0
C1443 C 0.72593 0.49639 0.13184 0.0
C1444 C 0.73984 0.48852 0.12109 0.0
C1445 C 0.74657 0.4971 0.12362 0.0
U1446 U 0.74477 0.53409 0.13839 0.0
O1447 O 0.75557 0.54293 0.14893 0.0
O1448 O 0.75417 0.54756 0.13226 0.0
C1449 C 0.75909 0.54909 0.14131 0.0
C1450 C 0.74976 0.5147 0.13239 0.0
C1451 C 0.77067 0.55043 0.14068 0.0
C1452 C 0.78861 0.54331 0.14075 0.0
C1453 C 0.77759 0.54168 0.14096 0.0
C1454 C 0.78581 0.56241 0.13979 0.0
C1455 C 0.79284 0.55372 0.14027 0.0
C1456 C 0.77485 0.56077 0.14002 0.0
C1457 C 0.71855 0.54812 0.1442 0.0
C1458 C 0.71737 0.56729 0.14688 0.0
C1459 C 0.70159 0.55625 0.14836 0.0
C1460 C 0.70765 0.54718 0.14617 0.0
C1461 C 0.70635 0.56643 0.14861 0.0
C1462 C 0.72342 0.5582 0.14469 0.0
C1463 C 0.72464 0.53859 0.14129 0.0
O1464 O 0.74858 0.5226 0.12572 0.0
O1465 O 0.75 0.51788 0.14232 0.0
O1466 O 0.73071 0.53467 0.14875 0.0
O1467 O 0.72934 0.53898 0.13202 0.0
H1468 H 0.72964 0.51135 0.13928 0.0
H1469 H 0.71791 0.49639 0.13496 0.0
H1470 H 0.74277 0.48223 0.11597 0.0
H1471 H 0.75452 0.49733 0.12033 0.0
H1472 H 0.7938 0.53646 0.14117 0.0
H1473 H 0.77447 0.53363 0.14145 0.0
H1474 H 0.78879 0.5705 0.13919 0.0
H1475 H 0.76962 0.56761 0.13973 0.0
H1476 H 0.72125 0.57502 0.14693 0.0
H1477 H 0.69316 0.55529 0.14983 0.0
H1478 H 0.70378 0.53944 0.14587 0.0
H1479 H 0.73186 0.55905 0.14318 0.0
C1480 C 0.74298 0.50461 0.37917 0.0
C1481 C 0.73266 0.50501 0.37501 0.0
C1482 C 0.72959 0.52198 0.38392 0.0
C1483 C 0.72605 0.51363 0.37732 0.0
C1484 C 0.73996 0.52158 0.38806 0.0
C1485 C 0.74661 0.51295 0.38567 0.0
U1486 U 0.74425 0.47555 0.37221 0.0
O1487 O 0.75486 0.46613 0.36202 0.0
O1488 O 0.7534 0.46228 0.37889 0.0
C1489 C 0.75832 0.46032 0.36992 0.0
C1490 C 0.7496 0.49514 0.3773 0.0
C1491 C 0.76989 0.45897 0.37065 0.0
C1492 C 0.78795 0.46576 0.36932 0.0
C1493 C 0.77697 0.46744 0.3688 0.0
C1494 C 0.78482 0.44722 0.37373 0.0
C1495 C 0.79199 0.45562 0.3718 0.0
C1496 C 0.77388 0.44889 0.37315 0.0
C1497 C 0.71765 0.46155 0.36755 0.0
C1498 C 0.71617 0.44313 0.36157 0.0
C1499 C 0.70067 0.45238 0.36831 0.0
C1500 C 0.7068 0.46154 0.36998 0.0
C1501 C 0.7053 0.44305 0.36415 0.0
C1502 C 0.72232 0.45231 0.36332 0.0
C1503 C 0.724 0.47112 0.36987 0.0
O1504 O 0.74839 0.48755 0.38432 0.0
O1505 O 0.74969 0.49153 0.3675 0.0
O1506 O 0.73004 0.47462 0.36214 0.0
O1507 O 0.72882 0.47111 0.37907 0.0
H1508 H 0.72964 0.49855 0.37012 0.0
H1509 H 0.71805 0.5136 0.37417 0.0
H1510 H 0.74291 0.52792 0.39313 0.0
H1511 H 0.75452 0.51272 0.38903 0.0
H1512 H 0.79328 0.4724 0.36788 0.0
H1513 H 0.77402 0.47531 0.36691 0.0
H1514 H 0.78766 0.43928 0.37549 0.0
H1515 H 0.76853 0.44226 0.37457 0.0
H1516 H 0.71997 0.43604 0.35844 0.0
H1517 H 0.69229 0.45261 0.37024 0.0
H1518 H 0.70308 0.46861 0.37327 0.0
H1519 H 0.73073 0.45216 0.36147 0.0
C1520 C 0.73046 0.47953 0.6341 0.0
C1521 C 0.72896 0.46993 0.63954 0.0
C1522 C 0.70994 0.4707 0.6362 0.0
C1523 C 0.7188 0.46557 0.6406 0.0
C1524 C 0.71146 0.48047 0.63096 0.0
C1525 C 0.72166 0.48484 0.6299 0.0
U1526 U 0.75981 0.47473 0.63542 0.0
O1527 O 0.77263 0.47775 0.62395 0.0
O1528 O 0.77336 0.48491 0.63985 0.0
C1529 C 0.77771 0.48424 0.63041 0.0
C1530 C 0.74127 0.48358 0.63228 0.0
C1531 C 0.78153 0.49428 0.62579 0.0
C1532 C 0.78005 0.51336 0.62283 0.0
C1533 C 0.77582 0.50384 0.62681 0.0
C1534 C 0.79553 0.50377 0.61655 0.0
C1535 C 0.79 0.51344 0.61772 0.0
C1536 C 0.79133 0.4943 0.62055 0.0
C1537 C 0.76949 0.44833 0.64585 0.0
C1538 C 0.7883 0.44424 0.64512 0.0
C1539 C 0.77593 0.43148 0.6526 0.0
C1540 C 0.76753 0.43847 0.65062 0.0
C1541 C 0.78639 0.43425 0.64978 0.0
C1542 C 0.77992 0.45122 0.64318 0.0
C1543 C 0.76065 0.45551 0.64345 0.0
O1544 O 0.74694 0.48527 0.64086 0.0
O1545 O 0.74651 0.47847 0.62484 0.0
O1546 O 0.7592 0.45732 0.63334 0.0
O1547 O 0.76022 0.46422 0.64928 0.0
H1548 H 0.73568 0.46571 0.6428 0.0
H1549 H 0.71789 0.45813 0.64481 0.0
H1550 H 0.70481 0.48457 0.6274 0.0
H1551 H 0.72271 0.49223 0.62562 0.0
H1552 H 0.77556 0.52066 0.62377 0.0
H1553 H 0.7682 0.50396 0.63079 0.0
H1554 H 0.80328 0.50356 0.61282 0.0
H1555 H 0.79585 0.487 0.61972 0.0
H1556 H 0.79628 0.44668 0.64299 0.0
H1557 H 0.7742 0.4238 0.65611 0.0
H1558 H 0.75951 0.43613 0.65272 0.0
H1559 H 0.78156 0.45885 0.63952 0.0
C1560 C 0.48594 0.13068 0.24897 0.0
C1561 C 0.47505 0.12846 0.24797 0.0
C1562 C 0.47161 0.13701 0.26497 0.0
C1563 C 0.46797 0.13155 0.25591 0.0
C1564 C 0.48255 0.13917 0.26595 0.0
C1565 C 0.48966 0.13603 0.258 0.0
U1566 U 0.48928 0.12193 0.22083 0.0
O1567 O 0.50034 0.12674 0.20828 0.0
O1568 O 0.49956 0.10996 0.2132 0.0
C1569 C 0.50437 0.11711 0.20731 0.0
C1570 C 0.49324 0.1277 0.24037 0.0
C1571 C 0.51602 0.11645 0.20692 0.0
C1572 C 0.53358 0.1223 0.2125 0.0
C1573 C 0.52251 0.1227 0.21354 0.0
C1574 C 0.53172 0.10918 0.19845 0.0
C1575 C 0.5383 0.11559 0.20488 0.0
C1576 C 0.5207 0.10962 0.19947 0.0
C1577 C 0.46389 0.11851 0.20472 0.0
C1578 C 0.46372 0.11686 0.18557 0.0
C1579 C 0.44752 0.11409 0.19557 0.0
C1580 C 0.45303 0.11606 0.20497 0.0
C1581 C 0.45277 0.11457 0.18577 0.0
C1582 C 0.46925 0.11877 0.19499 0.0
C1583 C 0.46941 0.12102 0.21464 0.0
O1584 O 0.49266 0.11767 0.23732 0.0
O1585 O 0.49347 0.13441 0.23243 0.0
O1586 O 0.4751 0.12984 0.21459 0.0
O1587 O 0.47426 0.11299 0.21916 0.0
H1588 H 0.47202 0.12437 0.24102 0.0
H1589 H 0.45964 0.12957 0.25496 0.0
H1590 H 0.4856 0.14345 0.27278 0.0
H1591 H 0.49804 0.13788 0.25884 0.0
H1592 H 0.53844 0.12726 0.21763 0.0
H1593 H 0.51902 0.12798 0.2194 0.0
H1594 H 0.53508 0.10406 0.19239 0.0
H1595 H 0.5158 0.10476 0.19428 0.0
H1596 H 0.468 0.11719 0.17815 0.0
H1597 H 0.43906 0.11248 0.19598 0.0
H1598 H 0.44878 0.11582 0.21242 0.0
H1599 H 0.47767 0.12059 0.19468 0.0
C1600 C 0.98678 0.8911 0.72646 0.0
C1601 C 0.98478 0.89622 0.71684 0.0
C1602 C 0.96581 0.89302 0.71891 0.0
C1603 C 0.9744 0.8972 0.71312 0.0
C1604 C 0.96785 0.88794 0.72858 0.0
C1605 C 0.97827 0.887 0.73233 0.0
U1606 U 0.01597 0.89181 0.72022 0.0
O1607 O 0.02984 0.89753 0.72924 0.0
O1608 O 0.02893 0.8808 0.72397 0.0
C1609 C 0.03424 0.88804 0.7294 0.0
C1610 C 0.99776 0.88961 0.73006 0.0
C1611 C 0.03869 0.88465 0.73958 0.0
C1612 C 0.03846 0.8736 0.75532 0.0
C1613 C 0.0335 0.87725 0.74611 0.0
C1614 C 0.05362 0.88497 0.75167 0.0
C1615 C 0.04867 0.8773 0.75809 0.0
C1616 C 0.04869 0.88859 0.74252 0.0
C1617 C 0.02486 0.89949 0.6928 0.0
C1618 C 0.04328 0.89704 0.68767 0.0
C1619 C 0.03115 0.9061 0.67591 0.0
C1620 C 0.02294 0.90474 0.68325 0.0
C1621 C 0.04138 0.90217 0.67801 0.0
C1622 C 0.0351 0.89575 0.69502 0.0
C1623 C 0.0162 0.89784 0.70041 0.0
O1624 O 1.00276 0.88161 0.72552 0.0
O1625 O 1.00353 0.89837 0.73059 0.0
O1626 O 0.016 0.90462 0.70838 0.0
O1627 O 0.01476 0.88789 0.70331 0.0
H1628 H 0.99128 0.89933 0.71214 0.0
H1629 H 0.97313 0.90099 0.70556 0.0
H1630 H 0.9614 0.88469 0.73325 0.0
H1631 H 0.97969 0.88297 0.73975 0.0
H1632 H 0.03445 0.86767 0.76008 0.0
H1633 H 0.02575 0.87413 0.74399 0.0
H1634 H 0.06138 0.88816 0.7537 0.0
H1635 H 0.05279 0.89434 0.7376 0.0
H1636 H 0.05111 0.89407 0.68958 0.0
H1637 H 0.02944 0.91002 0.6685 0.0
H1638 H 0.01507 0.90769 0.68144 0.0
H1639 H 0.03674 0.89176 0.70241 0.0
C1640 C 0.52112 0.88863 0.28183 0.0
C1641 C 0.52333 0.8935 0.2916 0.0
C1642 C 0.54225 0.89054 0.28897 0.0
C1643 C 0.5338 0.89446 0.29514 0.0
C1644 C 0.54 0.88583 0.27908 0.0
C1645 C 0.5295 0.88489 0.27554 0.0
U1646 U 0.49206 0.88889 0.28875 0.0
O1647 O 0.47787 0.89389 0.28003 0.0
O1648 O 0.47929 0.8773 0.28537 0.0
C1649 C 0.47381 0.8842 0.27983 0.0
C1650 C 0.51007 0.8869 0.27852 0.0
C1651 C 0.46975 0.88032 0.26957 0.0
C1652 C 0.46886 0.88111 0.25039 0.0
C1653 C 0.47345 0.88444 0.25994 0.0
C1654 C 0.4571 0.86925 0.25996 0.0
C1655 C 0.46056 0.87356 0.25031 0.0
C1656 C 0.46163 0.87263 0.26949 0.0
C1657 C 0.48385 0.89714 0.31638 0.0
C1658 C 0.46534 0.89594 0.3216 0.0
C1659 C 0.47838 0.90309 0.33384 0.0
C1660 C 0.48636 0.90152 0.32628 0.0
C1661 C 0.46778 0.9003 0.33159 0.0
C1662 C 0.4733 0.89439 0.31406 0.0
C1663 C 0.49224 0.89539 0.30851 0.0
O1664 O 0.50529 0.87889 0.28324 0.0
O1665 O 0.50419 0.89554 0.27809 0.0
O1666 O 0.49212 0.90196 0.30045 0.0
O1667 O 0.49364 0.88538 0.30568 0.0
H1668 H 0.51693 0.89633 0.29661 0.0
H1669 H 0.53523 0.89797 0.30285 0.0
H1670 H 0.54634 0.88281 0.27411 0.0
H1671 H 0.52792 0.88108 0.26799 0.0
H1672 H 0.47176 0.88449 0.24307 0.0
H1673 H 0.47976 0.89034 0.25979 0.0
H1674 H 0.45064 0.86352 0.26019 0.0
H1675 H 0.45865 0.86938 0.27684 0.0
H1676 H 0.45729 0.89354 0.31965 0.0
H1677 H 0.48051 0.90658 0.34141 0.0
H1678 H 0.49447 0.90372 0.32817 0.0
H1679 H 0.47125 0.89097 0.30643 0.0
C1680 C 0.87836 0.75462 0.01191 0.0
C1681 C 0.882 0.75544 0.02237 0.0
C1682 C 0.87172 0.77165 0.02497 0.0
C1683 C 0.87875 0.7639 0.02882 0.0
C1684 C 0.86803 0.77076 0.0145 0.0
C1685 C 0.87135 0.76231 0.00801 0.0
U1686 U 0.88949 0.72692 0.01033 0.0
O1687 O 0.88492 0.71284 1.0009 0.0
O1688 O 0.90107 0.71941 0.99961 0.0
C1689 C 0.89413 0.71242 0.996 0.0
C1690 C 0.88155 0.74549 0.00529 0.0
C1691 C 0.89364 0.71132 0.98446 0.0
C1692 C 0.88872 0.71795 0.96715 0.0
C1693 C 0.88919 0.71929 0.97814 0.0
C1694 C 0.89722 0.70072 0.96876 0.0
C1695 C 0.89273 0.70864 0.96234 0.0
C1696 C 0.89767 0.70206 0.97971 0.0
C1697 C 0.89651 0.7136 0.0364 0.0
C1698 C 0.90063 0.69473 0.03765 0.0
C1699 C 0.90182 0.70608 0.0532 0.0
C1700 C 0.89876 0.71485 0.04718 0.0
C1701 C 0.90267 0.69589 0.04853 0.0
C1702 C 0.89759 0.70352 0.03162 0.0
C1703 C 0.89267 0.72276 0.03037 0.0
O1704 O 0.8918 0.74349 0.00517 0.0
O1705 O 0.87569 0.73688 0.00647 0.0
O1706 O 0.88349 0.72132 0.02563 0.0
O1707 O 0.89977 0.72754 0.0244 0.0
H1708 H 0.88729 0.74948 0.02557 0.0
H1709 H 0.88159 0.76426 0.0369 0.0
H1710 H 0.86266 0.77664 0.01131 0.0
H1711 H 0.86841 0.76174 0.99998 0.0
H1712 H 0.88529 0.72423 0.96242 0.0
H1713 H 0.88606 0.72651 0.98171 0.0
H1714 H 0.90021 0.69337 0.96534 0.0
H1715 H 0.90111 0.69582 0.9845 0.0
H1716 H 0.90131 0.68701 0.03381 0.0
H1717 H 0.9032 0.70723 0.06158 0.0
H1718 H 0.89793 0.72258 0.05098 0.0
H1719 H 0.89593 0.70244 0.02328 0.0
C1720 C 0.62075 0.27785 0.47968 0.0
C1721 C 0.61472 0.28693 0.47737 0.0
C1722 C 0.61868 0.28482 0.45864 0.0
C1723 C 0.61366 0.29036 0.46695 0.0
C1724 C 0.62467 0.27568 0.46099 0.0
C1725 C 0.62568 0.27221 0.47144 0.0
U1726 U 0.61881 0.28458 0.50864 0.0
O1727 O 0.61349 0.27528 0.52238 0.0
O1728 O 0.6297 0.28183 0.52189 0.0
C1729 C 0.62278 0.27596 0.52706 0.0
C1730 C 0.62225 0.27457 0.49071 0.0
C1731 C 0.62687 0.26608 0.53168 0.0
C1732 C 0.63648 0.24933 0.53047 0.0
C1733 C 0.63227 0.2584 0.52561 0.0
C1734 C 0.62977 0.25553 0.54739 0.0
C1735 C 0.63538 0.24787 0.54145 0.0
C1736 C 0.62558 0.26453 0.54255 0.0
C1737 C 0.60879 0.31169 0.51698 0.0
C1738 C 0.60641 0.3156 0.53566 0.0
C1739 C 0.6052 0.32981 0.52282 0.0
C1740 C 0.60714 0.32247 0.51466 0.0
C1741 C 0.60485 0.32646 0.53341 0.0
C1742 C 0.6084 0.30829 0.52752 0.0
C1743 C 0.61133 0.30408 0.50848 0.0
O1744 O 0.6297 0.27985 0.49583 0.0
O1745 O 0.61345 0.27344 0.49622 0.0
O1746 O 0.60523 0.29555 0.50804 0.0
O1747 O 0.62148 0.30189 0.50749 0.0
H1748 H 0.61095 0.29145 0.48366 0.0
H1749 H 0.60915 0.29753 0.46543 0.0
H1750 H 0.62857 0.2712 0.45475 0.0
H1751 H 0.6304 0.26521 0.4731 0.0
H1752 H 0.64078 0.24358 0.52569 0.0
H1753 H 0.63333 0.2595 0.51719 0.0
H1754 H 0.62858 0.25454 0.55581 0.0
H1755 H 0.62139 0.27037 0.54733 0.0
H1756 H 0.60636 0.31279 0.54374 0.0
H1757 H 0.60394 0.3381 0.52083 0.0
H1758 H 0.60746 0.32522 0.50657 0.0
H1759 H 0.60976 0.29999 0.52945 0.0
C1760 C 0.25549 0.48873 0.12538 0.0
C1761 C 0.25573 0.47804 0.122 0.0
C1762 C 0.27273 0.47553 0.13076 0.0
C1763 C 0.26428 0.47152 0.12462 0.0
C1764 C 0.27244 0.48624 0.13418 0.0
C1765 C 0.26388 0.49279 0.13149 0.0
U1766 U 0.22695 0.49031 0.11704 0.0
O1767 O 0.21364 0.50015 0.12266 0.0
O1768 O 0.21854 0.50077 0.106 0.0
C1769 C 0.21232 0.50468 0.11341 0.0
C1770 C 0.24628 0.49543 0.1229 0.0
C1771 C 0.21118 0.51633 0.11359 0.0
C1772 C 0.21837 0.5342 0.11604 0.0
C1773 C 0.21979 0.52311 0.11583 0.0
C1774 C 0.19976 0.53173 0.11172 0.0
C1775 C 0.20831 0.53862 0.11406 0.0
C1776 C 0.2012 0.5207 0.1115 0.0
C1777 C 0.21237 0.46406 0.11223 0.0
C1778 C 0.19322 0.46318 0.11007 0.0
C1779 C 0.20384 0.44722 0.10786 0.0
C1780 C 0.21303 0.45313 0.10998 0.0
C1781 C 0.19382 0.45215 0.10798 0.0
C1782 C 0.20243 0.46909 0.11215 0.0
C1783 C 0.22204 0.47004 0.11495 0.0
O1784 O 0.24324 0.49518 0.11296 0.0
O1785 O 0.23832 0.4946 0.12959 0.0
O1786 O 0.22171 0.47519 0.12403 0.0
O1787 O 0.22621 0.47571 0.10728 0.0
H1788 H 0.24924 0.47471 0.1174 0.0
H1789 H 0.26418 0.46327 0.12201 0.0
H1790 H 0.27886 0.48956 0.13887 0.0
H1791 H 0.26378 0.501 0.13422 0.0
H1792 H 0.22509 0.53929 0.11794 0.0
H1793 H 0.22757 0.51983 0.11747 0.0
H1794 H 0.19196 0.53487 0.10998 0.0
H1795 H 0.19448 0.51556 0.1097 0.0
H1796 H 0.18563 0.46722 0.11011 0.0
H1797 H 0.20456 0.43873 0.10641 0.0
H1798 H 0.22065 0.44914 0.11004 0.0
H1799 H 0.2018 0.47756 0.11382 0.0
C1800 C 0.27841 0.52239 0.89046 0.0
C1801 C 0.2884 0.52445 0.89493 0.0
C1802 C 0.28586 0.54353 0.8926 0.0
C1803 C 0.29208 0.53492 0.89603 0.0
C1804 C 0.27582 0.54142 0.88814 0.0
C1805 C 0.27212 0.53091 0.8871 0.0
U1806 U 0.28472 0.49305 0.89007 0.0
O1807 O 0.27597 0.47908 0.89603 0.0
O1808 O 0.28008 0.48014 0.87917 0.0
C1809 C 0.27495 0.47485 0.88654 0.0
C1810 C 0.27476 0.51134 0.88894 0.0
C1811 C 0.26426 0.47095 0.88379 0.0
C1812 C 0.24779 0.47214 0.87384 0.0
C1813 C 0.25769 0.47641 0.8767 0.0
C1814 C 0.25084 0.45708 0.88535 0.0
C1815 C 0.24429 0.4624 0.87811 0.0
C1816 C 0.26073 0.46132 0.88814 0.0
C1817 C 0.31285 0.48429 0.89583 0.0
C1818 C 0.318 0.46582 0.89314 0.0
C1819 C 0.33038 0.47837 0.9011 0.0
C1820 C 0.32282 0.48647 0.90026 0.0
C1821 C 0.32808 0.46798 0.89747 0.0
C1822 C 0.31044 0.4739 0.89235 0.0
C1823 C 0.30501 0.49285 0.89477 0.0
O1824 O 0.27878 0.50645 0.88064 0.0
O1825 O 0.27483 0.50543 0.8975 0.0
O1826 O 0.29747 0.49293 0.90197 0.0
O1827 O 0.30142 0.49428 0.88513 0.0
H1828 H 0.29341 0.51793 0.89747 0.0
H1829 H 0.29992 0.53626 0.89932 0.0
H1830 H 0.27082 0.54788 0.8855 0.0
H1831 H 0.2644 0.52944 0.88358 0.0
H1832 H 0.24288 0.47646 0.86831 0.0
H1833 H 0.26023 0.4839 0.87328 0.0
H1834 H 0.24845 0.4495 0.88867 0.0
H1835 H 0.2657 0.45697 0.89361 0.0
H1836 H 0.31594 0.45787 0.89041 0.0
H1837 H 0.3381 0.48029 0.90439 0.0
H1838 H 0.32478 0.49445 0.90299 0.0
H1839 H 0.30273 0.47207 0.88898 0.0
C1840 C 0.27847 0.48605 0.61758 0.0
C1841 C 0.28867 0.4843 0.61346 0.0
C1842 C 0.28637 0.46513 0.61544 0.0
C1843 C 0.29257 0.47394 0.61237 0.0
C1844 C 0.27605 0.46691 0.61935 0.0
C1845 C 0.27214 0.4773 0.62043 0.0
U1846 U 0.28465 0.51538 0.61841 0.0
O1847 O 0.27577 0.52954 0.61342 0.0
O1848 O 0.28055 0.52786 0.63004 0.0
C1849 C 0.27514 0.53339 0.6231 0.0
C1850 C 0.27474 0.49699 0.61943 0.0
C1851 C 0.26465 0.53724 0.62664 0.0
C1852 C 0.24549 0.53859 0.62464 0.0
C1853 C 0.25519 0.53411 0.62158 0.0
C1854 C 0.25451 0.5491 0.63806 0.0
C1855 C 0.24506 0.54622 0.63285 0.0
C1856 C 0.2642 0.54468 0.63496 0.0
C1857 C 0.31267 0.52431 0.6118 0.0
C1858 C 0.31731 0.54313 0.6121 0.0
C1859 C 0.33093 0.52986 0.60896 0.0
C1860 C 0.3233 0.52177 0.60978 0.0
C1861 C 0.32803 0.54064 0.61016 0.0
C1862 C 0.3097 0.53503 0.61293 0.0
C1863 C 0.30476 0.51577 0.61295 0.0
O1864 O 0.279 0.50173 0.62771 0.0
O1865 O 0.27451 0.5031 0.61102 0.0
O1866 O 0.29696 0.5159 0.60606 0.0
O1867 O 0.30152 0.51412 0.62268 0.0
H1868 H 0.29367 0.49098 0.61124 0.0
H1869 H 0.30049 0.47285 0.60919 0.0
H1870 H 0.27112 0.4603 0.62187 0.0
H1871 H 0.26427 0.47853 0.62369 0.0
H1872 H 0.23832 0.53614 0.62055 0.0
H1873 H 0.25531 0.52834 0.61517 0.0
H1874 H 0.25448 0.55505 0.64431 0.0
H1875 H 0.27141 0.54724 0.63893 0.0
H1876 H 0.31478 0.55134 0.61292 0.0
H1877 H 0.33913 0.52766 0.60759 0.0
H1878 H 0.32572 0.51351 0.60893 0.0
H1879 H 0.3015 0.53712 0.6145 0.0
C1880 C 0.25328 0.51865 0.38374 0.0
C1881 C 0.25234 0.52973 0.38506 0.0
C1882 C 0.27037 0.53225 0.37856 0.0
C1883 C 0.2608 0.53646 0.3825 0.0
C1884 C 0.27126 0.52112 0.37722 0.0
C1885 C 0.26277 0.51437 0.37981 0.0
U1886 U 0.22475 0.51665 0.39173 0.0
O1887 O 0.21157 0.50655 0.38616 0.0
O1888 O 0.21625 0.50627 0.40288 0.0
C1889 C 0.21018 0.50213 0.39546 0.0
C1890 C 0.24421 0.51172 0.38626 0.0
C1891 C 0.20925 0.49046 0.3954 0.0
C1892 C 0.21652 0.4728 0.39214 0.0
C1893 C 0.2178 0.48391 0.39247 0.0
C1894 C 0.19822 0.47476 0.39779 0.0
C1895 C 0.20667 0.46812 0.39469 0.0
C1896 C 0.1995 0.48582 0.39813 0.0
C1897 C 0.21008 0.54296 0.39567 0.0
C1898 C 0.19092 0.54392 0.3977 0.0
C1899 C 0.20165 0.55995 0.39932 0.0
C1900 C 0.21081 0.55397 0.39747 0.0
C1901 C 0.19159 0.55502 0.39936 0.0
C1902 C 0.20011 0.53793 0.39589 0.0
C1903 C 0.21975 0.53691 0.39325 0.0
O1904 O 0.24102 0.51219 0.39616 0.0
O1905 O 0.23634 0.51217 0.37947 0.0
O1906 O 0.21954 0.53152 0.3843 0.0
O1907 O 0.22376 0.53147 0.40113 0.0
H1908 H 0.24502 0.53318 0.388 0.0
H1909 H 0.25978 0.54499 0.38345 0.0
H1910 H 0.27856 0.51764 0.37427 0.0
H1911 H 0.26359 0.50583 0.37872 0.0
H1912 H 0.22315 0.4679 0.38966 0.0
H1913 H 0.22538 0.4874 0.39033 0.0
H1914 H 0.19059 0.47141 0.39997 0.0
H1915 H 0.19285 0.49077 0.40045 0.0
H1916 H 0.1833 0.53988 0.39779 0.0
H1917 H 0.20243 0.5685 0.40042 0.0
H1918 H 0.21846 0.55796 0.3973 0.0
H1919 H 0.19943 0.5294 0.39455 0.0
H1920 H 0.11095 0.37102 0.09333 0.0
H1921 H 0.10201 0.38223 0.12423 0.0
H1922 H 0.08818 0.35337 0.11169 0.0
C1923 C 0.10607 0.37028 0.10036 0.0
C1924 C 0.09918 0.36149 0.10137 0.0
C1925 C 0.10724 0.37774 0.10861 0.0
C1926 C 0.10127 0.37642 0.11789 0.0
C1927 C 0.0944 0.36765 0.1191 0.0
C1928 C 0.09335 0.36024 0.11077 0.0
H1929 H 0.89679 0.87302 0.41168 0.0
H1930 H 0.90995 0.88521 0.38281 0.0
H1931 H 0.92118 0.85549 0.39534 0.0
C1932 C 0.90246 0.87241 0.40526 0.0
C1933 C 0.9091 0.86344 0.40458 0.0
C1934 C 0.90267 0.88029 0.39743 0.0
C1935 C 0.90977 0.87919 0.38891 0.0
C1936 C 0.91642 0.87024 0.38805 0.0
C1937 C 0.91602 0.86237 0.39591 0.0
H1938 H 0.3948 0.63651 0.59591 0.0
H1939 H 0.40961 0.62287 0.62319 0.0
H1940 H 0.41844 0.65441 0.61316 0.0
C1941 C 0.40034 0.63719 0.60243 0.0
C1942 C 0.40639 0.64656 0.60372 0.0
C1943 C 0.40147 0.62859 0.60939 0.0
C1944 C 0.40892 0.62935 0.61761 0.0
C1945 C 0.41511 0.63861 0.61901 0.0
C1946 C 0.41378 0.6472 0.61204 0.0
H1947 H 0.61184 0.13704 0.91568 0.0
H1948 H 0.60118 0.12528 0.88552 0.0
H1949 H 0.58984 0.15544 0.89733 0.0
C1950 C 0.607 0.13795 0.90867 0.0
C1951 C 0.60084 0.14719 0.90746 0.0
C1952 C 0.60713 0.12997 0.90083 0.0
C1953 C 0.60085 0.13124 0.89176 0.0
C1954 C 0.5946 0.1404 0.89041 0.0
C1955 C 0.59468 0.14838 0.89828 0.0
H1956 H 0.11216 0.63781 0.41359 0.0
H1957 H 0.09953 0.62565 0.38437 0.0
H1958 H 0.08788 0.65525 0.39729 0.0
C1959 C 0.10655 0.63842 0.40713 0.0
C1960 C 0.0999 0.64737 0.40652 0.0
C1961 C 0.10649 0.63056 0.39918 0.0
C1962 C 0.09954 0.63164 0.39059 0.0
C1963 C 0.09283 0.64054 0.3898 0.0
C1964 C 0.09307 0.6484 0.3978 0.0
H1965 H 0.61049 0.87219 0.59343 0.0
H1966 H 0.60017 0.88231 0.62428 0.0
H1967 H 0.58716 0.85374 0.61032 0.0
C1968 C 0.60535 0.87116 0.60023 0.0
C1969 C 0.59854 0.86225 0.60071 0.0
C1970 C 0.60607 0.87838 0.60874 0.0
C1971 C 0.59976 0.87669 0.61774 0.0
C1972 C 0.59295 0.86782 0.6184 0.0
C1973 C 0.59231 0.86067 0.60982 0.0
H1974 H 0.39667 0.37432 0.91263 0.0
H1975 H 0.40863 0.38521 0.88276 0.0
H1976 H 0.41967 0.35554 0.89559 0.0
C1977 C 0.40194 0.37329 0.90592 0.0
C1978 C 0.40825 0.36408 0.90516 0.0
C1979 C 0.40198 0.38091 0.89785 0.0
C1980 C 0.40858 0.37936 0.88903 0.0
C1981 C 0.41498 0.37023 0.88812 0.0
C1982 C 0.41471 0.36258 0.89619 0.0
H1983 H 0.89402 0.1365 0.09548 0.0
H1984 H 0.90763 0.12432 0.12405 0.0
H1985 H 0.91655 0.15549 0.1131 0.0
C1986 C 0.89935 0.13748 0.10214 0.0
C1987 C 0.90526 0.14697 0.10329 0.0
C1988 C 0.90006 0.12933 0.10966 0.0
C1989 C 0.90691 0.13066 0.11831 0.0
C1990 C 0.91295 0.14002 0.11956 0.0
C1991 C 0.91215 0.14812 0.11198 0.0
H1992 H 0.09057 0.11416 0.3773 0.0
H1993 H 0.11882 0.09987 0.38969 0.0
H1994 H 0.1066 0.08968 0.35946 0.0
C1995 C 0.09701 0.10849 0.3765 0.0
C1996 C 0.09762 0.10197 0.36744 0.0
C1997 C 0.10462 0.10779 0.38455 0.0
C1998 C 0.11284 0.10034 0.38356 0.0
C1999 C 0.11364 0.09375 0.37454 0.0
C2000 C 0.1059 0.09451 0.36657 0.0
H2001 H 0.12472 0.89017 0.59887 0.0
H2002 H 0.13804 0.91818 0.61355 0.0
H2003 H 0.15554 0.9015 0.58932 0.0
C2004 C 0.13119 0.89586 0.59966 0.0
C2005 C 0.14022 0.89482 0.59321 0.0
C2006 C 0.13033 0.90425 0.60701 0.0
C2007 C 0.13863 0.91172 0.60783 0.0
C2008 C 0.14775 0.91082 0.60146 0.0
C2009 C 0.14844 0.9024 0.59408 0.0
H2010 H 0.42014 0.89328 0.87567 0.0
H2011 H 0.39131 0.90587 0.88886 0.0
H2012 H 0.40222 0.91664 0.8585 0.0
C2013 C 0.41336 0.89856 0.8751 0.0
C2014 C 0.41216 0.90501 0.86613 0.0
C2015 C 0.4059 0.89884 0.88334 0.0
C2016 C 0.3972 0.90576 0.88261 0.0
C2017 C 0.39581 0.91223 0.87369 0.0
C2018 C 0.40341 0.91192 0.86554 0.0
H2019 H 0.36925 0.09548 0.10867 0.0
H2020 H 0.38351 0.12197 0.09257 0.0
H2021 H 0.35318 0.10973 0.08232 0.0
C2022 C 0.36897 0.10143 0.10249 0.0
C2023 C 0.36019 0.10175 0.09567 0.0
C2024 C 0.37744 0.10864 0.10141 0.0
C2025 C 0.37716 0.11614 0.09323 0.0
C2026 C 0.36844 0.11661 0.08631 0.0
C2027 C 0.35998 0.10935 0.08755 0.0
H2028 H 0.08853 0.89193 0.12986 0.0
H2029 H 0.11698 0.90568 0.11685 0.0
H2030 H 0.10566 0.91603 0.1473 0.0
C2031 C 0.09502 0.89762 0.13037 0.0
C2032 C 0.09604 0.90409 0.13944 0.0
C2033 C 0.10261 0.89803 0.12224 0.0
C2034 C 0.11121 0.90514 0.12319 0.0
C2035 C 0.1124 0.91165 0.13221 0.0
C2036 C 0.10475 0.91111 0.14028 0.0
H2037 H 0.37324 0.91779 0.39894 0.0
H2038 H 0.38567 0.88906 0.41235 0.0
H2039 H 0.35472 0.90031 0.42163 0.0
C2040 C 0.37235 0.91104 0.40419 0.0
C2041 C 0.36303 0.90997 0.41022 0.0
C2042 C 0.38054 0.90352 0.40487 0.0
C2043 C 0.37941 0.89494 0.41186 0.0
C2044 C 0.37014 0.89369 0.41797 0.0
C2045 C 0.36202 0.90134 0.41719 0.0
H2046 H 0.39261 0.10196 0.61799 0.0
H2047 H 0.42082 0.11603 0.63128 0.0
H2048 H 0.40429 0.09124 0.64802 0.0
C2049 C 0.39851 0.10233 0.62421 0.0
C2050 C 0.39743 0.09571 0.63308 0.0
C2051 C 0.40695 0.10965 0.62345 0.0
C2052 C 0.41449 0.11015 0.63162 0.0
C2053 C 0.41357 0.10358 0.64054 0.0
C2054 C 0.40501 0.09638 0.6412 0.0
H2055 H 0.12369 0.11793 0.90885 0.0
H2056 H 0.13741 0.08899 0.89666 0.0
H2057 H 0.15454 0.10805 0.91942 0.0
C2058 C 0.13011 0.1122 0.90869 0.0
C2059 C 0.13913 0.11401 0.91498 0.0
C2060 C 0.12939 0.10319 0.90206 0.0
C2061 C 0.13785 0.09591 0.90182 0.0
C2062 C 0.14697 0.09761 0.90803 0.0
C2063 C 0.14752 0.10665 0.91465 0.0
H2064 H 0.87394 0.4191 0.90035 0.0
H2065 H 0.88522 0.38946 0.91284 0.0
H2066 H 0.85432 0.40101 0.9217 0.0
C2067 C 0.87279 0.41224 0.90541 0.0
C2068 C 0.86325 0.41112 0.91111 0.0
C2069 C 0.8807 0.40441 0.9059 0.0
C2070 C 0.87909 0.39548 0.91233 0.0
C2071 C 0.86962 0.39418 0.91808 0.0
C2072 C 0.86178 0.40212 0.91755 0.0
H2073 H 0.89242 0.60437 0.11833 0.0
H2074 H 0.92121 0.61693 0.13183 0.0
H2075 H 0.9036 0.59254 0.14813 0.0
C2076 C 0.89827 0.60446 0.12462 0.0
C2077 C 0.89692 0.59767 0.13331 0.0
C2078 C 0.90699 0.61143 0.12399 0.0
C2079 C 0.91465 0.6113 0.13206 0.0
C2080 C 0.91352 0.60449 0.14078 0.0
C2081 C 0.90464 0.59766 0.14133 0.0
H2082 H 0.6243 0.61802 0.41061 0.0
H2083 H 0.63824 0.59049 0.39577 0.0
H2084 H 0.65588 0.60835 0.41909 0.0
C2085 C 0.63081 0.61243 0.40987 0.0
C2086 C 0.64002 0.614 0.41595 0.0
C2087 C 0.63013 0.60405 0.40247 0.0
C2088 C 0.63881 0.59714 0.40127 0.0
C2089 C 0.64816 0.59864 0.40717 0.0
C2090 C 0.64869 0.60708 0.41454 0.0
H2091 H 0.9215 0.39556 0.37707 0.0
H2092 H 0.89273 0.40919 0.38929 0.0
H2093 H 0.90427 0.41848 0.35866 0.0
C2094 C 0.91483 0.40092 0.37617 0.0
C2095 C 0.9138 0.40687 0.36685 0.0
C2096 C 0.9073 0.40172 0.38432 0.0
C2097 C 0.89881 0.40886 0.38322 0.0
C2098 C 0.89767 0.41499 0.37402 0.0
C2099 C 0.90523 0.41396 0.36587 0.0
H2100 H 0.59194 0.61404 0.87703 0.0
H2101 H 0.61922 0.59842 0.89003 0.0
H2102 H 0.60656 0.58809 0.86004 0.0
C2103 C 0.59806 0.608 0.87643 0.0
C2104 C 0.59839 0.60125 0.86752 0.0
C2105 C 0.60551 0.60702 0.88461 0.0
C2106 C 0.61322 0.599 0.88392 0.0
C2107 C 0.61366 0.59211 0.87511 0.0
C2108 C 0.60619 0.59327 0.86693 0.0
H2109 H 0.86877 0.65994 0.86363 0.0
H2110 H 0.88117 0.64493 0.8356 0.0
H2111 H 0.89907 0.66971 0.85124 0.0
C2112 C 0.87491 0.65927 0.85766 0.0
C2113 C 0.88403 0.66573 0.85842 0.0
C2114 C 0.87378 0.65174 0.84946 0.0
C2115 C 0.88182 0.65091 0.84179 0.0
C2116 C 0.89099 0.65734 0.84238 0.0
C2117 C 0.89205 0.6647 0.85075 0.0
H2118 H 0.13645 0.15899 0.64247 0.0
H2119 H 0.12617 0.14691 0.67251 0.0
H2120 H 0.10786 0.171 0.6568 0.0
C2121 C 0.13082 0.15899 0.64896 0.0
C2122 C 0.12196 0.16576 0.6486 0.0
C2123 C 0.13246 0.15221 0.65759 0.0
C2124 C 0.1252 0.15242 0.66601 0.0
C2125 C 0.11631 0.15918 0.66583 0.0
C2126 C 0.11477 0.16588 0.6571 0.0
H2127 H 0.62562 0.36229 0.33887 0.0
H2128 H 0.63618 0.34773 0.3676 0.0
H2129 H 0.60796 0.33608 0.35207 0.0
C2130 C 0.62475 0.35614 0.34481 0.0
C2131 C 0.61602 0.34913 0.34435 0.0
C2132 C 0.63203 0.35572 0.35318 0.0
C2133 C 0.63062 0.34803 0.36107 0.0
C2134 C 0.62197 0.34091 0.36076 0.0
C2135 C 0.61465 0.34155 0.35239 0.0
H2136 H 0.3692 0.85434 0.1409 0.0
H2137 H 0.38048 0.86721 0.17037 0.0
H2138 H 0.39873 0.84332 0.15392 0.0
C2139 C 0.37517 0.85461 0.14707 0.0
C2140 C 0.38411 0.84796 0.14635 0.0
C2141 C 0.37382 0.8616 0.15567 0.0
C2142 C 0.38144 0.86177 0.16375 0.0
C2143 C 0.39043 0.85516 0.16321 0.0
C2144 C 0.39166 0.8482 0.15453 0.0
H2145 H 0.86912 0.35404 0.64125 0.0
H2146 H 0.87995 0.36656 0.67104 0.0
H2147 H 0.8988 0.34339 0.65426 0.0
C2148 C 0.87504 0.35431 0.64747 0.0
C2149 C 0.88413 0.34788 0.64667 0.0
C2150 C 0.87348 0.36109 0.6562 0.0
C2151 C 0.88106 0.36127 0.66432 0.0
C2152 C 0.89018 0.35485 0.66373 0.0
C2153 C 0.89162 0.3481 0.65492 0.0
H2154 H 0.36817 0.15759 0.3638 0.0
H2155 H 0.38065 0.14606 0.33425 0.0
H2156 H 0.39909 0.16781 0.35337 0.0
C2157 C 0.37444 0.1575 0.35792 0.0
C2158 C 0.38372 0.16351 0.35967 0.0
C2159 C 0.37326 0.15116 0.34881 0.0
C2160 C 0.38146 0.15102 0.34127 0.0
C2161 C 0.39079 0.15704 0.34282 0.0
C2162 C 0.39186 0.16328 0.35205 0.0
H2163 H 0.63574 0.65797 0.14399 0.0
H2164 H 0.62373 0.64476 0.1729 0.0
H2165 H 0.60602 0.66899 0.15682 0.0
C2166 C 0.62985 0.65791 0.15024 0.0
C2167 C 0.62093 0.6646 0.14953 0.0
C2168 C 0.6309 0.65067 0.1586 0.0
C2169 C 0.62292 0.65022 0.16634 0.0
C2170 C 0.61388 0.65672 0.16572 0.0
C2171 C 0.613 0.66399 0.15736 0.0
H2172 H 0.12601 0.86139 0.83796 0.0
H2173 H 0.13716 0.84724 0.86669 0.0
H2174 H 0.10791 0.83633 0.8526 0.0
C2175 C 0.12516 0.85547 0.84412 0.0
C2176 C 0.11617 0.84879 0.84418 0.0
C2177 C 0.13276 0.855 0.8522 0.0
C2178 C 0.13136 0.8476 0.86038 0.0
C2179 C 0.12241 0.84085 0.86062 0.0
C2180 C 0.11481 0.84154 0.85251 0.0
H2181 H 0.84598 0.88807 0.63939 0.0
H2182 H 0.87387 0.87542 0.65423 0.0
H2183 H 0.86123 0.90564 0.66451 0.0
C2184 C 0.8522 0.88874 0.64528 0.0
C2185 C 0.85268 0.8978 0.65186 0.0
C2186 C 0.8598 0.88062 0.64611 0.0
C2187 C 0.86791 0.88161 0.65367 0.0
C2188 C 0.8685 0.89059 0.66036 0.0
C2189 C 0.86081 0.89864 0.65944 0.0
H2190 H 0.84799 0.14011 0.37447 0.0
H2191 H 0.86164 0.16935 0.38612 0.0
H2192 H 0.83728 0.15341 0.40404 0.0
C2193 C 0.84827 0.14638 0.3804 0.0
C2194 C 0.84161 0.14581 0.3893 0.0
C2195 C 0.85551 0.15483 0.3792 0.0
C2196 C 0.85601 0.16285 0.38699 0.0
C2197 C 0.84951 0.16238 0.39602 0.0
C2198 C 0.84226 0.15387 0.39707 0.0
H2199 H 0.63684 0.138 0.15561 0.0
H2200 H 0.66576 0.12667 0.14149 0.0
H2201 H 0.64992 0.10788 0.16512 0.0
C2202 C 0.64302 0.13203 0.15506 0.0
C2203 C 0.64239 0.12283 0.16133 0.0
C2204 C 0.65142 0.1335 0.14789 0.0
C2205 C 0.6593 0.12564 0.14708 0.0
C2206 C 0.65882 0.11635 0.15323 0.0
C2207 C 0.65038 0.11505 0.1604 0.0
H2208 H 0.65787 0.86834 0.87865 0.0
H2209 H 0.64573 0.83948 0.89232 0.0
H2210 H 0.66868 0.85848 0.90931 0.0
C2211 C 0.65776 0.86264 0.88506 0.0
C2212 C 0.66424 0.86439 0.89395 0.0
C2213 C 0.65096 0.85375 0.88446 0.0
C2214 C 0.6508 0.84647 0.89284 0.0
C2215 C 0.65718 0.84807 0.90183 0.0
C2216 C 0.66395 0.85702 0.90229 0.0
H2217 H 0.8448 0.12132 0.86871 0.0
H2218 H 0.87243 0.13409 0.85328 0.0
H2219 H 0.85964 0.10372 0.84344 0.0
C2220 C 0.85091 0.12068 0.8627 0.0
C2221 C 0.85125 0.11157 0.85616 0.0
C2222 C 0.85851 0.12884 0.86173 0.0
C2223 C 0.86646 0.12788 0.85399 0.0
C2224 C 0.86694 0.11886 0.84735 0.0
C2225 C 0.85927 0.11075 0.84846 0.0
H2226 H 0.66064 0.14007 0.63082 0.0
H2227 H 0.65174 0.17086 0.61917 0.0
H2228 H 0.67308 0.15113 0.6011 0.0
C2229 C 0.66127 0.14622 0.62487 0.0
C2230 C 0.66766 0.14449 0.61589 0.0
C2231 C 0.65544 0.15567 0.62609 0.0
C2232 C 0.65627 0.16357 0.61832 0.0
C2233 C 0.66262 0.16202 0.6093 0.0
C2234 C 0.66831 0.15245 0.60812 0.0
H2235 H 0.63578 0.87214 0.35122 0.0
H2236 H 0.66456 0.88461 0.36479 0.0
H2237 H 0.64826 0.90228 0.34072 0.0
C2238 C 0.64184 0.8783 0.35158 0.0
C2239 C 0.64101 0.8873 0.34507 0.0
C2240 C 0.65032 0.87725 0.35869 0.0
C2241 C 0.65813 0.88526 0.35915 0.0
C2242 C 0.6574 0.89437 0.35276 0.0
C2243 C 0.6488 0.89534 0.34576 0.0
H2244 H 0.85879 0.83971 0.11548 0.0
H2245 H 0.8458 0.86822 0.12935 0.0
H2246 H 0.83531 0.85771 0.09865 0.0
C2247 C 0.8535 0.8465 0.11505 0.0
C2248 C 0.84722 0.84789 0.10599 0.0
C2249 C 0.85306 0.85377 0.12353 0.0
C2250 C 0.84594 0.86235 0.12302 0.0
C2251 C 0.83943 0.86379 0.11412 0.0
C2252 C 0.84013 0.85652 0.10563 0.0
H2253 H 0.16225 0.64042 0.13237 0.0
H2254 H 0.15119 0.67006 0.11978 0.0
H2255 H 0.17354 0.65116 0.10208 0.0
C2256 C 0.16228 0.64628 0.12612 0.0
C2257 C 0.16859 0.64459 0.11708 0.0
C2258 C 0.15596 0.65542 0.12716 0.0
C2259 C 0.15631 0.66315 0.11921 0.0
C2260 C 0.16271 0.66175 0.11019 0.0
C2261 C 0.1688 0.65241 0.10914 0.0
H2262 H 0.13373 0.37336 0.85072 0.0
H2263 H 0.16252 0.38438 0.86541 0.0
H2264 H 0.14731 0.40354 0.84175 0.0
C2265 C 0.13996 0.37931 0.85145 0.0
C2266 C 0.1396 0.38855 0.84524 0.0
C2267 C 0.14819 0.37776 0.85875 0.0
C2268 C 0.15616 0.38554 0.85976 0.0
C2269 C 0.1559 0.39491 0.85371 0.0
C2270 C 0.14761 0.39633 0.84642 0.0
H2271 H 0.3579 0.33911 0.61637 0.0
H2272 H 0.34695 0.36853 0.6301 0.0
H2273 H 0.33517 0.35825 0.59975 0.0
C2274 C 0.35289 0.34612 0.61602 0.0
C2275 C 0.34642 0.34772 0.60714 0.0
C2276 C 0.3532 0.35361 0.62432 0.0
C2277 C 0.34673 0.36268 0.62375 0.0
C2278 C 0.34017 0.36444 0.61494 0.0
C2279 C 0.34007 0.3569 0.60665 0.0
H2280 H 0.13657 0.6388 0.65478 0.0
H2281 H 0.16443 0.62588 0.63988 0.0
H2282 H 0.14887 0.60851 0.66475 0.0
C2283 C 0.14248 0.63256 0.65414 0.0
C2284 C 0.14177 0.6236 0.66073 0.0
C2285 C 0.15061 0.63346 0.64659 0.0
C2286 C 0.15816 0.62528 0.64573 0.0
C2287 C 0.1576 0.61625 0.65224 0.0
C2288 C 0.1494 0.61549 0.65975 0.0
H2289 H 0.34429 0.38635 0.14103 0.0
H2290 H 0.37254 0.37371 0.15519 0.0
H2291 H 0.36137 0.40483 0.16429 0.0
C2292 C 0.35092 0.38723 0.14643 0.0
C2293 C 0.35199 0.39666 0.15243 0.0
C2294 C 0.35825 0.37888 0.14741 0.0
C2295 C 0.36664 0.37996 0.15465 0.0
C2296 C 0.3678 0.38926 0.16082 0.0
C2297 C 0.36044 0.39758 0.15966 0.0
H2298 H 0.62411 0.39147 0.09738 0.0
H2299 H 0.63806 0.41817 0.11376 0.0
H2300 H 0.65552 0.40215 0.08908 0.0
C2301 C 0.63067 0.39699 0.09848 0.0
C2302 C 0.63983 0.39594 0.0922 0.0
C2303 C 0.62999 0.40494 0.10631 0.0
C2304 C 0.63856 0.41201 0.10773 0.0
C2305 C 0.64783 0.41108 0.10157 0.0
C2306 C 0.64839 0.40301 0.0938 0.0
H2307 H 0.8705 0.59201 0.60642 0.0
H2308 H 0.88245 0.62156 0.59412 0.0
H2309 H 0.85282 0.60873 0.58266 0.0
C2310 C 0.86981 0.59858 0.60093 0.0
C2311 C 0.86085 0.59924 0.59435 0.0
C2312 C 0.87757 0.60664 0.60098 0.0
C2313 C 0.87639 0.61539 0.59422 0.0
C2314 C 0.86749 0.61623 0.58758 0.0
C2315 C 0.85977 0.60809 0.58766 0.0
H2316 H 0.58878 0.39172 0.62999 0.0
H2317 H 0.61737 0.40565 0.61751 0.0
H2318 H 0.60521 0.41625 0.64755 0.0
C2319 C 0.59518 0.3975 0.63061 0.0
C2320 C 0.59591 0.40408 0.63965 0.0
C2321 C 0.60292 0.39795 0.62262 0.0
C2322 C 0.61145 0.40512 0.62372 0.0
C2323 C 0.61238 0.4117 0.63271 0.0
C2324 C 0.60452 0.4112 0.64059 0.0
H2325 H 0.3478 0.63777 0.87507 0.0
H2326 H 0.36235 0.66637 0.88721 0.0
H2327 H 0.33856 0.65002 0.90555 0.0
C2328 C 0.34845 0.64381 0.88122 0.0
C2329 C 0.34215 0.643 0.89036 0.0
C2330 C 0.35577 0.65219 0.88005 0.0
C2331 C 0.35668 0.65991 0.88809 0.0
C2332 C 0.35054 0.65919 0.89736 0.0
C2333 C 0.34326 0.65072 0.8984 0.0
H2334 H 0.15963 0.36565 0.3759 0.0
H2335 H 0.14735 0.33785 0.3914 0.0
H2336 H 0.17182 0.35668 0.40632 0.0
C2337 C 0.15965 0.36029 0.38259 0.0
C2338 C 0.16649 0.36233 0.39114 0.0
C2339 C 0.1527 0.35151 0.38261 0.0
C2340 C 0.15296 0.34443 0.39115 0.0
C2341 C 0.1599 0.34616 0.3997 0.0
C2342 C 0.16664 0.35515 0.39964 0.0
H2343 H 0.34239 0.62122 0.36821 0.0
H2344 H 0.37029 0.63461 0.35378 0.0
H2345 H 0.35781 0.60458 0.34264 0.0
C2346 C 0.3485 0.62091 0.36217 0.0
C2347 C 0.34906 0.612 0.35538 0.0
C2348 C 0.35612 0.6291 0.36166 0.0
C2349 C 0.36431 0.62837 0.35414 0.0
C2350 C 0.36505 0.61952 0.34731 0.0
C2351 C 0.35736 0.61138 0.34796 0.0
H2352 H 0.19034 0.43639 0.09328 0.0
H2353 H 0.17474 0.42478 0.09163 0.0
H2354 H 0.15971 0.44154 0.11748 0.0
H2355 H 0.17525 0.45318 0.11916 0.0
H2356 H 0.16742 0.41137 0.10677 0.0
H2357 H 0.13581 0.43992 0.09594 0.0
H2358 H 0.14977 0.44319 0.09506 0.0
H2359 H 0.143 0.44388 0.10758 0.0
C2360 C 0.18367 0.43765 0.09856 0.0
C2361 C 0.18403 0.4457 0.10636 0.0
C2362 C 0.17475 0.43105 0.09758 0.0
C2363 C 0.166 0.43239 0.10434 0.0
C2364 C 0.16625 0.44054 0.112 0.0
H2365 H 0.12103 0.38465 0.12387 0.0
H2366 H 0.13491 0.39821 0.12233 0.0
C2367 C 0.17515 0.44717 0.11297 0.0
C2368 C 0.15704 0.42469 0.104 0.0
H2369 H 0.13003 0.42275 0.10198 0.0
C2370 C 0.15926 0.41385 0.10562 0.0
C2371 C 0.1464 0.42792 0.10239 0.0
C2372 C 0.14359 0.43935 0.10004 0.0
C2373 C 0.15111 0.40621 0.10599 0.0
C2374 C 0.14044 0.40951 0.10491 0.0
C2375 C 0.13822 0.42028 0.10294 0.0
C2376 C 0.13152 0.40187 0.106 0.0
C2377 C 0.15401 0.39464 0.10753 0.0
C2378 C 0.12476 0.39972 0.09743 0.0
C2379 C 0.11672 0.39204 0.09831 0.0
C2380 C 0.11526 0.38644 0.10782 0.0
C2381 C 0.12186 0.38888 0.11648 0.0
C2382 C 0.12988 0.39655 0.11558 0.0
H2383 H 0.16243 0.39309 0.10539 0.0
H2384 H 0.15292 0.39254 0.11597 0.0
H2385 H 0.14883 0.38932 0.10271 0.0
H2386 H 0.12586 0.40382 0.08999 0.0
H2387 H 0.11168 0.39044 0.09154 0.0
H2388 H 0.82409 0.94478 0.4119 0.0
H2389 H 0.8399 0.93364 0.41388 0.0
H2390 H 0.84883 0.9403 0.38164 0.0
H2391 H 0.83316 0.95157 0.37969 0.0
H2392 H 0.84441 0.91576 0.40321 0.0
H2393 H 0.87671 0.94503 0.39645 0.0
H2394 H 0.86317 0.94902 0.39893 0.0
H2395 H 0.86724 0.94487 0.38588 0.0
C2396 C 0.82949 0.94394 0.40527 0.0
C2397 C 0.82742 0.94907 0.39565 0.0
C2398 C 0.83853 0.93761 0.40642 0.0
C2399 C 0.84565 0.93627 0.39796 0.0
C2400 C 0.84363 0.94146 0.38837 0.0
H2401 H 0.89142 0.8889 0.38108 0.0
H2402 H 0.87819 0.90312 0.38195 0.0
C2403 C 0.83465 0.94786 0.38725 0.0
C2404 C 0.85471 0.9288 0.39888 0.0
H2405 H 0.88149 0.9265 0.39503 0.0
C2406 C 0.85253 0.91815 0.40157 0.0
C2407 C 0.86532 0.93193 0.39676 0.0
C2408 C 0.86827 0.94336 0.39445 0.0
C2409 C 0.86062 0.9105 0.40183 0.0
C2410 C 0.87111 0.91356 0.39932 0.0
C2411 C 0.87338 0.92421 0.39688 0.0
C2412 C 0.87971 0.90561 0.3988 0.0
C2413 C 0.85791 0.8991 0.40453 0.0
C2414 C 0.885 0.90246 0.408 0.0
C2415 C 0.89264 0.8944 0.40754 0.0
C2416 C 0.89508 0.88935 0.39786 0.0
C2417 C 0.88987 0.89272 0.38863 0.0
C2418 C 0.88227 0.9008 0.38911 0.0
H2419 H 0.8493 0.89796 0.40612 0.0
H2420 H 0.86028 0.89374 0.39791 0.0
H2421 H 0.86245 0.89664 0.41162 0.0
H2422 H 0.88309 0.90613 0.41554 0.0
H2423 H 0.8966 0.89208 0.41476 0.0
H2424 H 0.34471 0.54231 0.59629 0.0
H2425 H 0.35825 0.55637 0.59558 0.0
H2426 H 0.34309 0.57264 0.62166 0.0
H2427 H 0.32976 0.55846 0.62266 0.0
H2428 H 0.3557 0.57807 0.59219 0.0
H2429 H 0.37398 0.57077 0.63131 0.0
H2430 H 0.36518 0.56128 0.62498 0.0
H2431 H 0.35986 0.57262 0.63195 0.0
C2432 C 0.34434 0.54881 0.60196 0.0
C2433 C 0.33618 0.54923 0.60957 0.0
C2434 C 0.35204 0.55687 0.6015 0.0
C2435 C 0.35176 0.56545 0.60867 0.0
C2436 C 0.34357 0.56597 0.61618 0.0
H2437 H 0.38016 0.62786 0.60537 0.0
H2438 H 0.36867 0.61213 0.60439 0.0
C2439 C 0.33588 0.55793 0.61666 0.0
C2440 C 0.35988 0.57402 0.60816 0.0
H2441 H 0.37854 0.58717 0.62292 0.0
C2442 C 0.36076 0.58002 0.59887 0.0
C2443 C 0.36659 0.57643 0.61683 0.0
C2444 C 0.36645 0.56987 0.62679 0.0
C2445 C 0.36792 0.5886 0.59814 0.0
C2446 C 0.37423 0.59135 0.607 0.0
C2447 C 0.37361 0.58512 0.61617 0.0
C2448 C 0.38131 0.60082 0.60707 0.0
C2449 C 0.36869 0.59461 0.58787 0.0
C2450 C 0.39221 0.5997 0.60908 0.0
C2451 C 0.3988 0.60869 0.60968 0.0
C2452 C 0.3946 0.61897 0.60832 0.0
C2453 C 0.38368 0.62005 0.60626 0.0
C2454 C 0.3771 0.61106 0.60568 0.0
H2455 H 0.36582 0.58971 0.58109 0.0
H2456 H 0.36366 0.60185 0.58837 0.0
H2457 H 0.37699 0.59716 0.58626 0.0
H2458 H 0.39561 0.59186 0.61022 0.0
H2459 H 0.40719 0.6076 0.6112 0.0
H2460 H 0.65867 0.04154 0.89435 0.0
H2461 H 0.64612 0.0564 0.89515 0.0
H2462 H 0.67 0.07617 0.90999 0.0
H2463 H 0.68256 0.06133 0.90936 0.0
H2464 H 0.63893 0.06865 0.91316 0.0
H2465 H 0.66057 0.0933 0.88372 0.0
H2466 H 0.66299 0.07921 0.8853 0.0
H2467 H 0.66848 0.08865 0.89456 0.0
C2468 C 0.66122 0.04901 0.8979 0.0
C2469 C 0.67164 0.05027 0.90173 0.0
C2470 C 0.65406 0.0575 0.8983 0.0
C2471 C 0.6572 0.06741 0.90248 0.0
C2472 C 0.6675 0.06863 0.90654 0.0
H2473 H 0.62764 0.12948 0.90795 0.0
H2474 H 0.63941 0.11406 0.90905 0.0
C2475 C 0.67466 0.06015 0.90616 0.0
C2476 C 0.64974 0.0765 0.90252 0.0
H2477 H 0.64603 0.1014 0.89245 0.0
C2478 C 0.64044 0.07581 0.90862 0.0
C2479 C 0.65177 0.08581 0.89658 0.0
C2480 C 0.66144 0.0868 0.88959 0.0
C2481 C 0.63319 0.08429 0.90909 0.0
C2482 C 0.63522 0.0936 0.90314 0.0
C2483 C 0.64451 0.09427 0.89703 0.0
C2484 C 0.62781 0.10276 0.90306 0.0
C2485 C 0.62355 0.0833 0.91612 0.0
C2486 C 0.61738 0.10152 0.89932 0.0
C2487 C 0.6106 0.11031 0.89877 0.0
C2488 C 0.61415 0.12052 0.90188 0.0
C2489 C 0.62459 0.1217 0.90566 0.0
C2490 C 0.63136 0.11292 0.90623 0.0
H2491 H 0.62463 0.07707 0.92223 0.0
H2492 H 0.62177 0.091 0.92013 0.0
H2493 H 0.61658 0.08102 0.91124 0.0
H2494 H 0.61455 0.0938 0.89664 0.0
H2495 H 0.60258 0.10911 0.89588 0.0
H2496 H 0.18827 0.5714 0.41338 0.0
H2497 H 0.17281 0.58313 0.41453 0.0
H2498 H 0.15755 0.56525 0.38952 0.0
H2499 H 0.17298 0.5535 0.3883 0.0
H2500 H 0.16558 0.59576 0.39839 0.0
H2501 H 0.13386 0.56798 0.41152 0.0
H2502 H 0.14781 0.56483 0.41253 0.0
H2503 H 0.14104 0.56342 0.40009 0.0
C2504 C 0.18159 0.56992 0.40817 0.0
C2505 C 0.18185 0.56154 0.40073 0.0
C2506 C 0.17275 0.57659 0.40887 0.0
C2507 C 0.16399 0.57498 0.4022 0.0
C2508 C 0.16412 0.56648 0.39492 0.0
H2509 H 0.11853 0.62253 0.383 0.0
H2510 H 0.13205 0.60861 0.38391 0.0
C2511 C 0.17295 0.55979 0.39422 0.0
C2512 C 0.15512 0.58272 0.40226 0.0
H2513 H 0.12825 0.585 0.40532 0.0
C2514 C 0.15743 0.59342 0.39997 0.0
C2515 C 0.1445 0.57965 0.4044 0.0
C2516 C 0.14164 0.56836 0.40737 0.0
C2517 C 0.14939 0.60111 0.39956 0.0
C2518 C 0.13873 0.59798 0.40133 0.0
C2519 C 0.13643 0.58733 0.40385 0.0
C2520 C 0.12993 0.60573 0.40062 0.0
C2521 C 0.15238 0.61256 0.39734 0.0
C2522 C 0.12402 0.60843 0.40965 0.0
C2523 C 0.11622 0.61632 0.40914 0.0
C2524 C 0.11416 0.62159 0.39957 0.0
C2525 C 0.11985 0.61857 0.39047 0.0
C2526 C 0.12765 0.61069 0.39099 0.0
H2527 H 0.16097 0.61408 0.39869 0.0
H2528 H 0.15061 0.61436 0.38894 0.0
H2529 H 0.14772 0.61812 0.40237 0.0
H2530 H 0.12563 0.60463 0.41714 0.0
H2531 H 0.11187 0.61838 0.41626 0.0
H2532 H 0.67988 0.95094 0.59739 0.0
H2533 H 0.66368 0.94022 0.59512 0.0
H2534 H 0.66665 0.92886 0.62709 0.0
H2535 H 0.68266 0.93967 0.62948 0.0
H2536 H 0.66206 0.91779 0.5972 0.0
H2537 H 0.63556 0.93868 0.6255 0.0
H2538 H 0.64764 0.94462 0.62047 0.0
H2539 H 0.64817 0.93516 0.63108 0.0
C2540 C 0.67698 0.94627 0.60398 0.0
C2541 C 0.68254 0.94614 0.61362 0.0
C2542 C 0.66776 0.94013 0.60266 0.0
C2543 C 0.6639 0.93387 0.61098 0.0
C2544 C 0.6694 0.93378 0.62062 0.0
H2545 H 0.61921 0.88498 0.62467 0.0
H2546 H 0.63252 0.89919 0.62424 0.0
C2547 C 0.67861 0.93987 0.62194 0.0
C2548 C 0.65446 0.92694 0.6095 0.0
H2549 H 0.63016 0.92114 0.62005 0.0
C2550 C 0.655 0.9186 0.60207 0.0
C2551 C 0.64528 0.92806 0.61586 0.0
C2552 C 0.64405 0.93718 0.62361 0.0
C2553 C 0.64682 0.91099 0.60121 0.0
C2554 C 0.63781 0.91188 0.60785 0.0
C2555 C 0.6371 0.92046 0.615 0.0
C2556 C 0.6294 0.9036 0.60803 0.0
C2557 C 0.64812 0.90178 0.59357 0.0
C2558 C 0.62311 0.90147 0.5991 0.0
C2559 C 0.61545 0.89335 0.59932 0.0
C2560 C 0.6139 0.88729 0.60853 0.0
C2561 C 0.6201 0.8896 0.61751 0.0
C2562 C 0.62774 0.89768 0.61726 0.0
H2563 H 0.6564 0.90112 0.59059 0.0
H2564 H 0.64588 0.89413 0.59737 0.0
H2565 H 0.64281 0.90296 0.58669 0.0
H2566 H 0.62414 0.90608 0.59195 0.0
H2567 H 0.61071 0.89185 0.59233 0.0
H2568 H 0.34131 0.46331 0.91397 0.0
H2569 H 0.3547 0.44917 0.91477 0.0
H2570 H 0.34642 0.43916 0.88315 0.0
H2571 H 0.33317 0.45333 0.88222 0.0
H2572 H 0.35108 0.42644 0.9118 0.0
H2573 H 0.37922 0.4433 0.88242 0.0
H2574 H 0.36914 0.45123 0.88889 0.0
H2575 H 0.36565 0.44253 0.87808 0.0
C2576 C 0.34242 0.45816 0.90716 0.0
C2577 C 0.3362 0.45944 0.89803 0.0
C2578 C 0.35003 0.45007 0.90765 0.0
C2579 C 0.35162 0.44322 0.89897 0.0
C2580 C 0.3454 0.44446 0.88987 0.0
H2581 H 0.38957 0.38897 0.88214 0.0
H2582 H 0.37764 0.40429 0.88309 0.0
C2583 C 0.33777 0.45249 0.88939 0.0
C2584 C 0.35958 0.4346 0.89948 0.0
H2585 H 0.38218 0.42539 0.88768 0.0
C2586 C 0.35795 0.42623 0.90661 0.0
C2587 C 0.3685 0.43439 0.89268 0.0
C2588 C 0.37083 0.44338 0.88514 0.0
C2589 C 0.36481 0.41742 0.90686 0.0
C2590 C 0.37365 0.41713 0.89994 0.0
C2591 C 0.37539 0.42562 0.89296 0.0
C2592 C 0.38097 0.4079 0.89951 0.0
C2593 C 0.36231 0.40834 0.91425 0.0
C2594 C 0.3869 0.40493 0.9084 0.0
C2595 C 0.39373 0.39616 0.90788 0.0
C2596 C 0.39484 0.3903 0.89842 0.0
C2597 C 0.38899 0.3934 0.8895 0.0
C2598 C 0.38213 0.40212 0.89004 0.0
H2599 H 0.35395 0.40861 0.91709 0.0
H2600 H 0.36368 0.40052 0.91031 0.0
H2601 H 0.36759 0.40888 0.92125 0.0
H2602 H 0.3863 0.40943 0.91571 0.0
H2603 H 0.39825 0.39405 0.91484 0.0
H2604 H 0.83306 0.05531 0.12353 0.0
H2605 H 0.84619 0.06969 0.12233 0.0
H2606 H 0.85411 0.05967 0.09062 0.0
H2607 H 0.84085 0.0453 0.09169 0.0
H2608 H 0.869 0.06717 0.11737 0.0
H2609 H 0.84702 0.09244 0.08874 0.0
H2610 H 0.84049 0.08233 0.09656 0.0
H2611 H 0.84859 0.07852 0.0855 0.0
C2612 C 0.83752 0.05622 0.11626 0.0
C2613 C 0.83588 0.04922 0.10768 0.0
C2614 C 0.84506 0.06439 0.11562 0.0
C2615 C 0.85103 0.06577 0.10636 0.0
C2616 C 0.84949 0.05877 0.09779 0.0
H2617 H 0.89612 0.11716 0.09197 0.0
H2618 H 0.88491 0.10116 0.09062 0.0
C2619 C 0.84198 0.05054 0.09845 0.0
C2620 C 0.85893 0.07451 0.1058 0.0
H2621 H 0.86357 0.09885 0.09472 0.0
C2622 C 0.86786 0.07408 0.11238 0.0
C2623 C 0.85743 0.08344 0.09921 0.0
C2624 C 0.84785 0.08432 0.09212 0.0
C2625 C 0.87531 0.08243 0.11266 0.0
C2626 C 0.87362 0.09156 0.10637 0.0
C2627 C 0.86483 0.09185 0.09956 0.0
C2628 C 0.88055 0.10112 0.10717 0.0
C2629 C 0.88495 0.08135 0.11965 0.0
C2630 C 0.88168 0.10648 0.11688 0.0
C2631 C 0.88805 0.11559 0.11767 0.0
C2632 C 0.89336 0.11959 0.10874 0.0
C2633 C 0.8921 0.11429 0.09898 0.0
C2634 C 0.88574 0.10514 0.0982 0.0
H2635 H 0.8868 0.07285 0.12121 0.0
H2636 H 0.89204 0.08519 0.11604 0.0
H2637 H 0.88336 0.0853 0.12736 0.0
H2638 H 0.8775 0.10371 0.12384 0.0
H2639 H 0.88868 0.11961 0.12525 0.0
H2640 H 0.09551 0.18721 0.44656 0.0
H2641 H 0.09374 0.17128 0.43539 0.0
H2642 H 0.12051 0.15707 0.45112 0.0
H2643 H 0.12247 0.17306 0.46218 0.0
H2644 H 0.12213 0.15735 0.42901 0.0
H2645 H 0.08327 0.14078 0.44177 0.0
H2646 H 0.08297 0.15476 0.4387 0.0
H2647 H 0.09074 0.15023 0.44969 0.0
C2648 C 0.10097 0.18065 0.44769 0.0
C2649 C 0.10914 0.1814 0.45523 0.0
C2650 C 0.09987 0.17152 0.44139 0.0
C2651 C 0.10692 0.16295 0.44253 0.0
C2652 C 0.11494 0.16356 0.4502 0.0
H2653 H 0.10753 0.1034 0.40556 0.0
H2654 H 0.10805 0.11621 0.42036 0.0
C2655 C 0.11601 0.17268 0.45654 0.0
C2656 C 0.10651 0.15382 0.43505 0.0
H2657 H 0.09031 0.1341 0.42542 0.0
C2658 C 0.11523 0.15218 0.42832 0.0
C2659 C 0.09751 0.14707 0.4342 0.0
C2660 C 0.08812 0.14821 0.44154 0.0
C2661 C 0.11502 0.14423 0.42048 0.0
C2662 C 0.10586 0.13778 0.41935 0.0
C2663 C 0.09728 0.13914 0.4263 0.0
C2664 C 0.10495 0.12996 0.41063 0.0
C2665 C 0.1245 0.14286 0.41329 0.0
C2666 C 0.10292 0.13351 0.40035 0.0
C2667 C 0.10261 0.12626 0.39193 0.0
C2668 C 0.10436 0.11533 0.39364 0.0
C2669 C 0.10623 0.11178 0.404 0.0
C2670 C 0.10648 0.11905 0.41245 0.0
H2671 H 0.13154 0.14738 0.41617 0.0
H2672 H 0.12661 0.13429 0.41258 0.0
H2673 H 0.12246 0.14574 0.40527 0.0
H2674 H 0.10175 0.14192 0.39883 0.0
H2675 H 0.10129 0.12926 0.38403 0.0
H2676 H 0.04679 0.91973 0.66635 0.0
H2677 H 0.06124 0.92131 0.65339 0.0
H2678 H 0.06995 0.88859 0.65897 0.0
H2679 H 0.05551 0.88691 0.67181 0.0
H2680 H 0.08389 0.91717 0.65734 0.0
H2681 H 0.06653 0.891 0.6262 0.0
H2682 H 0.05863 0.89702 0.63655 0.0
H2683 H 0.0665 0.88544 0.63926 0.0
C2684 C 0.05173 0.91286 0.66473 0.0
C2685 C 0.05003 0.9032 0.67009 0.0
C2686 C 0.06 0.91379 0.65738 0.0
C2687 C 0.06657 0.90503 0.65517 0.0
C2688 C 0.06488 0.8954 0.66049 0.0
H2689 H 0.12067 0.88815 0.61784 0.0
H2690 H 0.10505 0.88924 0.62927 0.0
C2691 C 0.05669 0.89448 0.66788 0.0
C2692 C 0.0754 0.90596 0.6475 0.0
H2693 H 0.08478 0.89559 0.62432 0.0
C2694 C 0.08406 0.91256 0.65005 0.0
C2695 C 0.07556 0.89992 0.63803 0.0
C2696 C 0.06628 0.89301 0.63476 0.0
C2697 C 0.09313 0.91293 0.64356 0.0
C2698 C 0.09339 0.9067 0.63419 0.0
C2699 C 0.08458 0.90033 0.63152 0.0
C2700 C 0.1029 0.90624 0.62729 0.0
C2701 C 0.1025 0.91963 0.64703 0.0
C2702 C 0.10684 0.91542 0.62231 0.0
C2703 C 0.1158 0.91482 0.61578 0.0
C2704 C 0.12088 0.905 0.61401 0.0
C2705 C 0.11686 0.89581 0.61895 0.0
C2706 C 0.10796 0.89643 0.62551 0.0
H2707 H 0.102 0.92186 0.65554 0.0
H2708 H 0.11008 0.91533 0.64564 0.0
H2709 H 0.10269 0.9271 0.64237 0.0
H2710 H 0.10292 0.92303 0.62339 0.0
H2711 H 0.11864 0.922 0.61196 0.0
H2712 H 0.4154 0.8199 0.94549 0.0
H2713 H 0.41746 0.83559 0.93424 0.0
H2714 H 0.39014 0.85002 0.94904 0.0
H2715 H 0.3879 0.83428 0.96019 0.0
H2716 H 0.38928 0.84909 0.9268 0.0
H2717 H 0.42749 0.86639 0.94072 0.0
H2718 H 0.42794 0.85233 0.93786 0.0
H2719 H 0.41977 0.85714 0.94852 0.0
C2720 C 0.40989 0.82646 0.9464 0.0
C2721 C 0.40148 0.82585 0.95371 0.0
C2722 C 0.41114 0.83546 0.94005 0.0
C2723 C 0.40403 0.84401 0.9409 0.0
C2724 C 0.39577 0.84353 0.94834 0.0
H2725 H 0.40296 0.90311 0.90443 0.0
H2726 H 0.4028 0.89027 0.91902 0.0
C2727 C 0.39453 0.83456 0.95473 0.0
C2728 C 0.40462 0.85297 0.93336 0.0
H2729 H 0.42084 0.87282 0.92425 0.0
C2730 C 0.39613 0.85435 0.92632 0.0
C2731 C 0.41355 0.85983 0.93278 0.0
C2732 C 0.42268 0.85894 0.94043 0.0
C2733 C 0.39649 0.8622 0.91848 0.0
C2734 C 0.40557 0.86879 0.91767 0.0
C2735 C 0.41393 0.86766 0.92489 0.0
C2736 C 0.40655 0.87668 0.90911 0.0
C2737 C 0.38724 0.86334 0.91101 0.0
C2738 C 0.40888 0.87324 0.8988 0.0
C2739 C 0.40898 0.88052 0.89048 0.0
C2740 C 0.40671 0.89135 0.89235 0.0
C2741 C 0.40465 0.8948 0.90276 0.0
C2742 C 0.40462 0.88751 0.91109 0.0
H2743 H 0.38021 0.85865 0.9136 0.0
H2744 H 0.38495 0.87185 0.91034 0.0
H2745 H 0.38962 0.8605 0.90302 0.0
H2746 H 0.41037 0.86489 0.89716 0.0
H2747 H 0.41047 0.87759 0.88254 0.0
H2748 H 0.45416 0.12644 0.16774 0.0
H2749 H 0.44302 0.12504 0.15193 0.0
H2750 H 0.4264 0.09829 0.16552 0.0
H2751 H 0.43762 0.09951 0.18129 0.0
H2752 H 0.43201 0.09635 0.1429 0.0
H2753 H 0.41094 0.13388 0.15367 0.0
H2754 H 0.42521 0.13454 0.15316 0.0
H2755 H 0.41882 0.12657 0.16306 0.0
C2756 C 0.44827 0.12014 0.16729 0.0
C2757 C 0.44671 0.11313 0.1758 0.0
C2758 C 0.44187 0.1194 0.15828 0.0
C2759 C 0.43383 0.11164 0.15764 0.0
C2760 C 0.43255 0.10435 0.16591 0.0
H2761 H 0.3759 0.10721 0.12284 0.0
H2762 H 0.39028 0.10773 0.13581 0.0
C2763 C 0.43891 0.10511 0.17493 0.0
C2764 C 0.42633 0.11149 0.14866 0.0
H2765 H 0.40558 0.12517 0.13802 0.0
C2766 C 0.42628 0.10268 0.14175 0.0
C2767 C 0.41882 0.11972 0.14729 0.0
C2768 C 0.41833 0.1292 0.1547 0.0
C2769 C 0.41884 0.10186 0.13352 0.0
C2770 C 0.4113 0.11007 0.1322 0.0
C2771 C 0.41142 0.11892 0.13904 0.0
C2772 C 0.40278 0.10936 0.12419 0.0
C2773 C 0.41883 0.09209 0.12649 0.0
C2774 C 0.40509 0.11014 0.11336 0.0
C2775 C 0.39688 0.10984 0.10592 0.0
C2776 C 0.38625 0.10872 0.1092 0.0
C2777 C 0.38401 0.10791 0.12006 0.0
C2778 C 0.3922 0.10827 0.12747 0.0
H2779 H 0.42415 0.08575 0.12952 0.0
H2780 H 0.41066 0.08879 0.12574 0.0
H2781 H 0.42157 0.09433 0.11846 0.0
H2782 H 0.41322 0.11111 0.1107 0.0
H2783 H 0.39883 0.11045 0.0976 0.0
H2784 H 0.09202 0.82371 0.05101 0.0
H2785 H 0.08988 0.83621 0.06581 0.0
H2786 H 0.11138 0.85828 0.05075 0.0
H2787 H 0.11354 0.84585 0.03593 0.0
H2788 H 0.10533 0.84336 0.07916 0.0
H2789 H 0.08674 0.87756 0.05884 0.0
H2790 H 0.08754 0.86443 0.05292 0.0
H2791 H 0.09884 0.87326 0.05265 0.0
C2792 C 0.09626 0.83125 0.05083 0.0
C2793 C 0.10294 0.8338 0.04229 0.0
C2794 C 0.09499 0.83839 0.05927 0.0
C2795 C 0.10034 0.84824 0.05931 0.0
C2796 C 0.10695 0.85085 0.05076 0.0
H2797 H 0.11864 0.88695 0.11264 0.0
H2798 H 0.11743 0.87487 0.09745 0.0
C2799 C 0.1082 0.84373 0.0423 0.0
C2800 C 0.09958 0.85546 0.06862 0.0
H2801 H 0.09382 0.88103 0.07609 0.0
C2802 C 0.10272 0.85157 0.07851 0.0
C2803 C 0.09604 0.86613 0.06778 0.0
C2804 C 0.09199 0.87057 0.0575 0.0
C2805 C 0.10275 0.85815 0.08752 0.0
C2806 C 0.09974 0.86896 0.08657 0.0
C2807 C 0.09625 0.87277 0.07677 0.0
C2808 C 0.10043 0.8765 0.09562 0.0
C2809 C 0.10597 0.85345 0.09799 0.0
C2810 C 0.09131 0.88166 0.09944 0.0
C2811 C 0.09199 0.88869 0.10806 0.0
C2812 C 0.10183 0.89073 0.11295 0.0
C2813 C 0.11096 0.88564 0.10899 0.0
C2814 C 0.11027 0.87864 0.10039 0.0
H2815 H 0.10508 0.84463 0.09799 0.0
H2816 H 0.11445 0.85536 0.09951 0.0
H2817 H 0.10117 0.85683 0.10457 0.0
H2818 H 0.08365 0.88018 0.0958 0.0
H2819 H 0.08484 0.89259 0.11084 0.0
H2820 H 0.44749 0.90746 0.32856 0.0
H2821 H 0.43325 0.90886 0.34165 0.0
H2822 H 0.45454 0.89792 0.36591 0.0
H2823 H 0.46882 0.89633 0.35285 0.0
H2824 H 0.42546 0.89159 0.35407 0.0
H2825 H 0.44078 0.92499 0.37896 0.0
H2826 H 0.4456 0.92241 0.36573 0.0
H2827 H 0.44993 0.91427 0.37652 0.0
C2828 C 0.44916 0.90534 0.33668 0.0
C2829 C 0.45929 0.90175 0.33965 0.0
C2830 C 0.44102 0.90621 0.34415 0.0
C2831 C 0.44288 0.9036 0.35475 0.0
C2832 C 0.45301 0.90017 0.3578 0.0
H2833 H 0.40144 0.89982 0.40979 0.0
H2834 H 0.4167 0.89983 0.39773 0.0
C2835 C 0.46116 0.89927 0.35033 0.0
C2836 C 0.43403 0.90389 0.36246 0.0
H2837 H 0.4253 0.91612 0.38504 0.0
C2838 C 0.4254 0.89697 0.36083 0.0
C2839 C 0.43405 0.91086 0.37129 0.0
C2840 C 0.44303 0.91863 0.37324 0.0
C2841 C 0.41677 0.89678 0.36785 0.0
C2842 C 0.41669 0.90387 0.3766 0.0
C2843 C 0.42538 0.91072 0.3783 0.0
C2844 C 0.40757 0.90434 0.38399 0.0
C2845 C 0.40792 0.88885 0.36593 0.0
C2846 C 0.39745 0.9071 0.3803 0.0
C2847 C 0.38873 0.907 0.38712 0.0
C2848 C 0.38997 0.90425 0.39782 0.0
C2849 C 0.4002 0.90182 0.40157 0.0
C2850 C 0.40892 0.90189 0.39471 0.0
H2851 H 0.41051 0.88216 0.36074 0.0
H2852 H 0.40495 0.88549 0.37349 0.0
H2853 H 0.40122 0.89293 0.36197 0.0
H2854 H 0.39628 0.9092 0.37209 0.0
H2855 H 0.38097 0.90882 0.38394 0.0
H2856 H 0.39604 0.1928 0.57081 0.0
H2857 H 0.39926 0.17734 0.58195 0.0
H2858 H 0.41454 0.16121 0.55589 0.0
H2859 H 0.41155 0.17678 0.54467 0.0
H2860 H 0.39889 0.14886 0.56652 0.0
H2861 H 0.42764 0.16705 0.59456 0.0
H2862 H 0.41581 0.17482 0.59284 0.0
H2863 H 0.42468 0.17282 0.58185 0.0
C2864 C 0.40028 0.18607 0.56748 0.0
C2865 C 0.40361 0.18608 0.55685 0.0
C2866 C 0.40209 0.17722 0.57386 0.0
C2867 C 0.40727 0.1682 0.56978 0.0
C2868 C 0.41058 0.16813 0.55919 0.0
H2869 H 0.4246 0.11613 0.61242 0.0
H2870 H 0.42552 0.12949 0.59837 0.0
C2871 C 0.4088 0.177 0.55278 0.0
C2872 C 0.40876 0.15872 0.57652 0.0
H2873 H 0.41927 0.15081 0.60004 0.0
C2874 C 0.40346 0.14922 0.57378 0.0
C2875 C 0.41485 0.15917 0.5859 0.0
C2876 C 0.42116 0.16898 0.58893 0.0
C2877 C 0.40366 0.14033 0.58047 0.0
C2878 C 0.40919 0.14103 0.59017 0.0
C2879 C 0.41494 0.15033 0.59264 0.0
C2880 C 0.40861 0.13246 0.59817 0.0
C2881 C 0.39783 0.13031 0.57714 0.0
C2882 C 0.3988 0.12978 0.60274 0.0
C2883 C 0.39826 0.12224 0.61079 0.0
C2884 C 0.40752 0.11724 0.61448 0.0
C2885 C 0.41733 0.11989 0.60982 0.0
C2886 C 0.41787 0.12747 0.60176 0.0
H2887 H 0.39676 0.12992 0.56843 0.0
H2888 H 0.40214 0.12307 0.57974 0.0
H2889 H 0.38984 0.13025 0.58085 0.0
H2890 H 0.3916 0.13374 0.60027 0.0
H2891 H 0.39061 0.12057 0.61436 0.0
H2892 H 0.04106 0.10894 0.85196 0.0
H2893 H 0.05598 0.10743 0.86424 0.0
H2894 H 0.07504 0.09323 0.83959 0.0
H2895 H 0.06013 0.09453 0.82729 0.0
H2896 H 0.06842 0.08876 0.87031 0.0
H2897 H 0.09216 0.11992 0.84979 0.0
H2898 H 0.07805 0.11827 0.84774 0.0
H2899 H 0.08724 0.10926 0.84155 0.0
C2900 C 0.04836 0.10534 0.84918 0.0
C2901 C 0.04942 0.10194 0.83861 0.0
C2902 C 0.05689 0.10453 0.8562 0.0
C2903 C 0.06663 0.10036 0.85276 0.0
C2904 C 0.06763 0.09664 0.84233 0.0
H2905 H 0.12909 0.09662 0.88137 0.0
H2906 H 0.11371 0.09491 0.8697 0.0
C2907 C 0.05911 0.09743 0.83531 0.0
C2908 C 0.07585 0.10017 0.86 0.0
H2909 H 0.10047 0.11098 0.86388 0.0
C2910 C 0.07544 0.09361 0.86893 0.0
C2911 C 0.08497 0.10651 0.85814 0.0
C2912 C 0.08566 0.11397 0.84884 0.0
C2913 C 0.08401 0.09311 0.87601 0.0
C2914 C 0.09311 0.09952 0.8742 0.0
C2915 C 0.0935 0.10605 0.86523 0.0
C2916 C 0.10226 0.09975 0.88156 0.0
C2917 C 0.08333 0.08558 0.88525 0.0
C2918 C 0.10093 0.10302 0.89211 0.0
C2919 C 0.1097 0.1039 0.89883 0.0
C2920 C 0.11999 0.10163 0.89511 0.0
C2921 C 0.12127 0.09827 0.88455 0.0
C2922 C 0.1125 0.09736 0.87784 0.0
H2923 H 0.07739 0.07914 0.88382 0.0
H2924 H 0.09115 0.08187 0.88688 0.0
H2925 H 0.08082 0.09009 0.8924 0.0
H2926 H 0.09314 0.10513 0.89508 0.0
H2927 H 0.10842 0.10643 0.90694 0.0
H2928 H 0.96265 0.41966 0.84425 0.0
H2929 H 0.94899 0.42144 0.85802 0.0
H2930 H 0.93952 0.38873 0.8528 0.0
H2931 H 0.95321 0.38682 0.83921 0.0
H2932 H 0.92644 0.41787 0.85557 0.0
H2933 H 0.94444 0.39095 0.88516 0.0
H2934 H 0.95194 0.39662 0.87437 0.0
H2935 H 0.94344 0.38527 0.87212 0.0
C2936 C 0.95772 0.41282 0.84613 0.0
C2937 C 0.959 0.40309 0.84066 0.0
C2938 C 0.94991 0.41387 0.85394 0.0
C2939 C 0.94336 0.40518 0.8565 0.0
C2940 C 0.94461 0.39548 0.85104 0.0
H2941 H 0.88986 0.38859 0.89416 0.0
H2942 H 0.90547 0.38981 0.88276 0.0
C2943 C 0.95236 0.39444 0.84321 0.0
C2944 C 0.93498 0.40625 0.86464 0.0
H2945 H 0.92628 0.39561 0.88786 0.0
C2946 C 0.92645 0.41313 0.86272 0.0
C2947 C 0.93506 0.40005 0.87393 0.0
C2948 C 0.94425 0.39287 0.8766 0.0
C2949 C 0.9177 0.4136 0.86961 0.0
C2950 C 0.91763 0.40714 0.87875 0.0
C2951 C 0.92634 0.40053 0.88084 0.0
C2952 C 0.9083 0.40657 0.88588 0.0
C2953 C 0.90841 0.42061 0.86681 0.0
C2954 C 0.9048 0.41558 0.89152 0.0
C2955 C 0.89586 0.41491 0.89808 0.0
C2956 C 0.89036 0.40518 0.89917 0.0
C2957 C 0.894 0.39616 0.89361 0.0
C2958 C 0.90289 0.39685 0.88705 0.0
H2959 H 0.90876 0.42329 0.85847 0.0
H2960 H 0.90078 0.41633 0.8681 0.0
H2961 H 0.90848 0.4278 0.87198 0.0
H2962 H 0.90899 0.42311 0.89088 0.0
H2963 H 0.89331 0.42196 0.90236 0.0
H2964 H 0.89325 0.6762 0.04787 0.0
H2965 H 0.89598 0.66132 0.05997 0.0
H2966 H 0.9202 0.67938 0.07633 0.0
H2967 H 0.91754 0.69431 0.06424 0.0
H2968 H 0.91413 0.64913 0.06566 0.0
H2969 H 0.89797 0.67278 0.09935 0.0
H2970 H 0.89658 0.67692 0.08579 0.0
H2971 H 0.90899 0.67879 0.09255 0.0
C2972 C 0.8993 0.67694 0.05392 0.0
C2973 C 0.90511 0.68648 0.05516 0.0
C2974 C 0.90082 0.66844 0.06084 0.0
C2975 C 0.90817 0.66933 0.06913 0.0
C2976 C 0.91435 0.67863 0.0701 0.0
H2977 H 0.92461 0.61772 0.11274 0.0
H2978 H 0.92562 0.63158 0.09916 0.0
C2979 C 0.9128 0.68714 0.0632 0.0
C2980 C 0.90889 0.66077 0.07711 0.0
H2981 H 0.90406 0.65547 0.10311 0.0
C2982 C 0.91199 0.6505 0.07387 0.0
C2983 C 0.90595 0.66258 0.08777 0.0
C2984 C 0.9021 0.67333 0.0916 0.0
C2985 C 0.9122 0.64198 0.08102 0.0
C2986 C 0.90933 0.64383 0.09169 0.0
C2987 C 0.90631 0.65411 0.09493 0.0
C2988 C 0.90882 0.63513 0.09955 0.0
C2989 C 0.91516 0.631 0.07706 0.0
C2990 C 0.89908 0.63266 0.10435 0.0
C2991 C 0.89849 0.62486 0.11215 0.0
C2992 C 0.90766 0.61938 0.11534 0.0
C2993 C 0.91742 0.62183 0.11048 0.0
C2994 C 0.918 0.62966 0.10265 0.0
H2995 H 0.91502 0.63049 0.06829 0.0
H2996 H 0.92332 0.62908 0.07975 0.0
H2997 H 0.90968 0.62488 0.0803 0.0
H2998 H 0.89192 0.63685 0.10211 0.0
H2999 H 0.89089 0.62333 0.11586 0.0
H3000 H 0.54073 0.61044 0.35353 0.0
H3001 H 0.55568 0.60894 0.36579 0.0
H3002 H 0.57523 0.59636 0.34067 0.0
H3003 H 0.5603 0.59763 0.3284 0.0
H3004 H 0.56884 0.59024 0.371 0.0
H3005 H 0.59129 0.62337 0.35215 0.0
H3006 H 0.57723 0.62133 0.3501 0.0
H3007 H 0.58667 0.61301 0.34336 0.0
C3008 C 0.54815 0.6072 0.35064 0.0
C3009 C 0.54934 0.60423 0.33995 0.0
C3010 C 0.55669 0.60639 0.35765 0.0
C3011 C 0.56656 0.60268 0.35408 0.0
C3012 C 0.5677 0.59941 0.34352 0.0
H3013 H 0.6294 0.59908 0.38138 0.0
H3014 H 0.61377 0.59785 0.37002 0.0
C3015 C 0.55918 0.60018 0.33652 0.0
C3016 C 0.57578 0.60249 0.36132 0.0
H3017 H 0.60005 0.6139 0.36562 0.0
C3018 C 0.57567 0.59542 0.36987 0.0
C3019 C 0.58464 0.60926 0.35978 0.0
C3020 C 0.58499 0.61725 0.35091 0.0
C3021 C 0.58433 0.59479 0.37683 0.0
C3022 C 0.5932 0.60158 0.3753 0.0
C3023 C 0.59326 0.60868 0.36676 0.0
C3024 C 0.60253 0.60155 0.38245 0.0
C3025 C 0.58401 0.58668 0.3856 0.0
C3026 C 0.6014 0.60401 0.39324 0.0
C3027 C 0.61032 0.60459 0.3998 0.0
C3028 C 0.62056 0.60284 0.39567 0.0
C3029 C 0.62163 0.6003 0.38487 0.0
C3030 C 0.61271 0.59967 0.37834 0.0
H3031 H 0.5782 0.5802 0.3839 0.0
H3032 H 0.59194 0.58307 0.38685 0.0
H3033 H 0.58155 0.59069 0.39305 0.0
H3034 H 0.59364 0.6057 0.39654 0.0
H3035 H 0.6092 0.60649 0.40809 0.0
H3036 H 0.88684 0.32309 0.4401 0.0
H3037 H 0.89013 0.33896 0.42952 0.0
H3038 H 0.91166 0.35098 0.4533 0.0
H3039 H 0.90868 0.33488 0.46384 0.0
H3040 H 0.88682 0.36038 0.43479 0.0
H3041 H 0.92935 0.35214 0.42593 0.0
H3042 H 0.92051 0.34211 0.4312 0.0
H3043 H 0.92567 0.35245 0.43967 0.0
C3044 C 0.89239 0.32903 0.44304 0.0
C3045 C 0.8976 0.32765 0.45276 0.0
C3046 C 0.89418 0.33814 0.43702 0.0
C3047 C 0.90123 0.34608 0.44057 0.0
C3048 C 0.90631 0.34487 0.45035 0.0
H3049 H 0.90364 0.40649 0.40523 0.0
H3050 H 0.90294 0.39402 0.42008 0.0
C3051 C 0.90452 0.33571 0.4564 0.0
C3052 C 0.90318 0.35555 0.43389 0.0
H3053 H 0.92194 0.36753 0.41841 0.0
C3054 C 0.89452 0.36204 0.43129 0.0
C3055 C 0.91323 0.35762 0.42931 0.0
C3056 C 0.92273 0.35069 0.43157 0.0
C3057 C 0.89555 0.37035 0.42398 0.0
C3058 C 0.90556 0.37231 0.41927 0.0
C3059 C 0.9143 0.36603 0.4221 0.0
C3060 C 0.90685 0.38013 0.41062 0.0
C3061 C 0.88579 0.37659 0.42095 0.0
C3062 C 0.90963 0.3765 0.40048 0.0
C3063 C 0.91005 0.38358 0.39202 0.0
C3064 C 0.90775 0.39445 0.39354 0.0
C3065 C 0.90531 0.39814 0.40379 0.0
C3066 C 0.90491 0.39103 0.41227 0.0
H3067 H 0.87836 0.37273 0.42377 0.0
H3068 H 0.88625 0.38468 0.42454 0.0
H3069 H 0.88531 0.3775 0.41224 0.0
H3070 H 0.91113 0.36811 0.39903 0.0
H3071 H 0.91181 0.38045 0.38421 0.0
H3072 H 0.62689 0.68655 0.9415 0.0
H3073 H 0.62387 0.67081 0.93042 0.0
H3074 H 0.60027 0.65947 0.95243 0.0
H3075 H 0.60298 0.67544 0.96342 0.0
H3076 H 0.62604 0.64925 0.93547 0.0
H3077 H 0.58459 0.65906 0.92391 0.0
H3078 H 0.59337 0.66873 0.92998 0.0
H3079 H 0.58718 0.65859 0.93787 0.0
C3080 C 0.62096 0.68079 0.94393 0.0
C3081 C 0.61509 0.68232 0.95328 0.0
C3082 C 0.61932 0.67175 0.93764 0.0
C3083 C 0.61176 0.66405 0.94054 0.0
C3084 C 0.60602 0.66541 0.94997 0.0
H3085 H 0.60848 0.603 0.90571 0.0
H3086 H 0.60944 0.61604 0.92023 0.0
C3087 C 0.60766 0.67448 0.95629 0.0
C3088 C 0.60996 0.65467 0.93358 0.0
H3089 H 0.5918 0.64318 0.91696 0.0
C3090 C 0.61853 0.64784 0.93149 0.0
C3091 C 0.60017 0.65294 0.92836 0.0
C3092 C 0.5908 0.66024 0.93004 0.0
C3093 C 0.61766 0.63946 0.92412 0.0
C3094 C 0.6079 0.63779 0.91883 0.0
C3095 C 0.59925 0.64446 0.9211 0.0
C3096 C 0.60678 0.62974 0.91027 0.0
C3097 C 0.62733 0.63277 0.92172 0.0
C3098 C 0.60469 0.63311 0.89993 0.0
C3099 C 0.60413 0.62571 0.89165 0.0
C3100 C 0.6056 0.61477 0.89355 0.0
C3101 C 0.60746 0.61139 0.90397 0.0
C3102 C 0.60801 0.61881 0.91227 0.0
H3103 H 0.63472 0.63643 0.92491 0.0
H3104 H 0.62634 0.6248 0.92536 0.0
H3105 H 0.62828 0.63161 0.91306 0.0
H3106 H 0.60374 0.64151 0.89822 0.0
H3107 H 0.60282 0.6286 0.88371 0.0
H3108 H 0.80748 0.57682 0.86454 0.0
H3109 H 0.82166 0.58987 0.86179 0.0
H3110 H 0.80096 0.60836 0.84197 0.0
H3111 H 0.78674 0.59521 0.84448 0.0
H3112 H 0.83083 0.59721 0.84193 0.0
H3113 H 0.81158 0.62944 0.86554 0.0
H3114 H 0.80764 0.61561 0.86656 0.0
H3115 H 0.80366 0.6233 0.85533 0.0
C3116 C 0.80596 0.58357 0.85947 0.0
C3117 C 0.79595 0.58496 0.85474 0.0
C3118 C 0.81406 0.59105 0.85796 0.0
C3119 C 0.81231 0.60011 0.85176 0.0
C3120 C 0.8024 0.60148 0.8469 0.0
H3121 H 0.86212 0.64511 0.83226 0.0
H3122 H 0.847 0.63271 0.83205 0.0
C3123 C 0.79429 0.59398 0.84838 0.0
C3124 C 0.82085 0.60814 0.85053 0.0
H3125 H 0.82805 0.63349 0.85761 0.0
C3126 C 0.83022 0.60517 0.84528 0.0
C3127 C 0.82001 0.61848 0.855 0.0
C3128 C 0.81023 0.62193 0.861 0.0
C3129 C 0.83884 0.61227 0.84444 0.0
C3130 C 0.83801 0.62259 0.84894 0.0
C3131 C 0.82861 0.62559 0.85412 0.0
C3132 C 0.84706 0.63016 0.84895 0.0
C3133 C 0.84889 0.60858 0.83906 0.0
C3134 C 0.85197 0.6329 0.85852 0.0
C3135 C 0.86062 0.6399 0.85867 0.0
C3136 C 0.86447 0.6444 0.84924 0.0
C3137 C 0.85944 0.64169 0.83965 0.0
C3138 C 0.8508 0.63464 0.83951 0.0
H3139 H 0.84888 0.59982 0.8376 0.0
H3140 H 0.84971 0.61266 0.83135 0.0
H3141 H 0.85594 0.61069 0.84393 0.0
H3142 H 0.84921 0.62949 0.86588 0.0
H3143 H 0.86441 0.64164 0.86618 0.0
H3144 H 0.19219 0.06951 0.66631 0.0
H3145 H 0.18038 0.08482 0.66866 0.0
H3146 H 0.1967 0.10136 0.64362 0.0
H3147 H 0.20853 0.08609 0.64119 0.0
H3148 H 0.19158 0.11451 0.66128 0.0
H3149 H 0.15694 0.09094 0.64689 0.0
H3150 H 0.16383 0.08522 0.65789 0.0
H3151 H 0.17045 0.08642 0.64535 0.0
C3152 C 0.19328 0.07642 0.66133 0.0
C3153 C 0.20122 0.07655 0.65349 0.0
C3154 C 0.18654 0.08516 0.66269 0.0
C3155 C 0.18757 0.09413 0.65619 0.0
C3156 C 0.19578 0.09449 0.6487 0.0
H3157 H 0.13947 0.14012 0.64095 0.0
H3158 H 0.15347 0.12671 0.64092 0.0
C3159 C 0.20255 0.08577 0.64735 0.0
C3160 C 0.17974 0.1029 0.6568 0.0
H3161 H 0.15352 0.10846 0.65292 0.0
C3162 C 0.18325 0.11321 0.65948 0.0
C3163 C 0.16892 0.10117 0.65429 0.0
C3164 C 0.16479 0.09037 0.65085 0.0
C3165 C 0.17619 0.12186 0.65978 0.0
C3166 C 0.16533 0.12008 0.65746 0.0
C3167 C 0.16184 0.10978 0.65476 0.0
C3168 C 0.15744 0.12882 0.65744 0.0
C3169 C 0.18043 0.13285 0.66233 0.0
C3170 C 0.15506 0.1345 0.66674 0.0
C3171 C 0.14711 0.14227 0.66676 0.0
C3172 C 0.14135 0.14444 0.65749 0.0
C3173 C 0.14386 0.13879 0.64818 0.0
C3174 C 0.15181 0.13106 0.64816 0.0
H3175 H 0.1892 0.13329 0.66142 0.0
H3176 H 0.17676 0.13894 0.65716 0.0
H3177 H 0.17846 0.1349 0.67065 0.0
H3178 H 0.15919 0.13277 0.67403 0.0
H3179 H 0.14541 0.14652 0.67405 0.0
H3180 H 0.69094 0.43458 0.37793 0.0
H3181 H 0.6796 0.41892 0.37532 0.0
H3182 H 0.69341 0.4138 0.34448 0.0
H3183 H 0.70487 0.42946 0.34708 0.0
H3184 H 0.66465 0.41609 0.35988 0.0
H3185 H 0.69509 0.38417 0.35738 0.0
H3186 H 0.69808 0.39741 0.36227 0.0
H3187 H 0.69699 0.39496 0.34829 0.0
C3188 C 0.69158 0.43011 0.37059 0.0
C3189 C 0.69877 0.43327 0.36269 0.0
C3190 C 0.68513 0.42114 0.36914 0.0
C3191 C 0.68574 0.41513 0.35976 0.0
C3192 C 0.69297 0.41819 0.35187 0.0
H3193 H 0.64536 0.36268 0.33752 0.0
H3194 H 0.65876 0.37694 0.33871 0.0
C3195 C 0.69949 0.42715 0.35335 0.0
C3196 C 0.67837 0.40601 0.35811 0.0
H3197 H 0.67724 0.37905 0.35397 0.0
C3198 C 0.66741 0.40799 0.3586 0.0
C3199 C 0.682 0.39547 0.35638 0.0
C3200 C 0.69368 0.39281 0.35613 0.0
C3201 C 0.65998 0.39971 0.35748 0.0
C3202 C 0.6636 0.38916 0.35591 0.0
C3203 C 0.67453 0.38717 0.35519 0.0
C3204 C 0.65607 0.3801 0.35532 0.0
C3205 C 0.64828 0.40228 0.35795 0.0
C3206 C 0.65032 0.37708 0.36432 0.0
C3207 C 0.6427 0.36898 0.36367 0.0
C3208 C 0.64069 0.36376 0.354 0.0
C3209 C 0.64667 0.36663 0.34505 0.0
C3210 C 0.65435 0.37471 0.34572 0.0
H3211 H 0.64679 0.41096 0.35701 0.0
H3212 H 0.64387 0.39785 0.35171 0.0
H3213 H 0.64506 0.39981 0.36573 0.0
H3214 H 0.6516 0.38112 0.37181 0.0
H3215 H 0.63815 0.36702 0.37068 0.0
H3216 H 0.30246 0.92924 0.13472 0.0
H3217 H 0.31706 0.91678 0.13751 0.0
H3218 H 0.30491 0.90965 0.16858 0.0
H3219 H 0.29022 0.92209 0.16582 0.0
H3220 H 0.33255 0.91726 0.15288 0.0
H3221 H 0.30856 0.88003 0.1556 0.0
H3222 H 0.30315 0.89237 0.15073 0.0
H3223 H 0.3048 0.89043 0.16469 0.0
C3224 C 0.30292 0.92505 0.14216 0.0
C3225 C 0.29519 0.92664 0.15004 0.0
C3226 C 0.31123 0.9179 0.14373 0.0
C3227 C 0.31199 0.91218 0.1532 0.0
C3228 C 0.30435 0.9138 0.16113 0.0
H3229 H 0.36066 0.86625 0.17236 0.0
H3230 H 0.34571 0.87879 0.17264 0.0
C3231 C 0.29598 0.92092 0.15954 0.0
C3232 C 0.32095 0.90473 0.15476 0.0
H3233 H 0.32705 0.87847 0.15842 0.0
C3234 C 0.33135 0.90879 0.15412 0.0
C3235 C 0.31935 0.89368 0.15643 0.0
C3236 C 0.30837 0.88882 0.15682 0.0
C3237 C 0.34018 0.90207 0.15496 0.0
C3238 C 0.33858 0.89101 0.1564 0.0
C3239 C 0.32822 0.88697 0.15733 0.0
C3240 C 0.34756 0.88345 0.15631 0.0
C3241 C 0.35119 0.90684 0.15428 0.0
C3242 C 0.35343 0.88187 0.147 0.0
C3243 C 0.36191 0.87474 0.14681 0.0
C3244 C 0.36469 0.86905 0.15593 0.0
C3245 C 0.35876 0.8706 0.16525 0.0
C3246 C 0.35021 0.87771 0.16541 0.0
H3247 H 0.35112 0.91559 0.15575 0.0
H3248 H 0.3566 0.90305 0.16006 0.0
H3249 H 0.35444 0.90542 0.14624 0.0
H3250 H 0.35142 0.88616 0.13987 0.0
H3251 H 0.36639 0.87379 0.13955 0.0
H3252 H 0.79028 0.42186 0.66713 0.0
H3253 H 0.80507 0.40949 0.66978 0.0
H3254 H 0.81721 0.41711 0.63883 0.0
H3255 H 0.80251 0.42944 0.63613 0.0
H3256 H 0.81085 0.3916 0.65812 0.0
H3257 H 0.84309 0.4218 0.65756 0.0
H3258 H 0.82928 0.42535 0.65902 0.0
H3259 H 0.83468 0.42245 0.64614 0.0
C3260 C 0.79609 0.42087 0.66089 0.0
C3261 C 0.79528 0.4267 0.65146 0.0
C3262 C 0.80455 0.41384 0.66243 0.0
C3263 C 0.81235 0.41255 0.65459 0.0
C3264 C 0.81144 0.41821 0.6451 0.0
H3265 H 0.86582 0.37336 0.64023 0.0
H3266 H 0.85072 0.38556 0.64076 0.0
C3267 C 0.80303 0.42525 0.64357 0.0
C3268 C 0.8213 0.40509 0.65614 0.0
H3269 H 0.84837 0.40358 0.65546 0.0
C3270 C 0.81906 0.39422 0.65769 0.0
C3271 C 0.832 0.40855 0.65562 0.0
C3272 C 0.83493 0.42019 0.6546 0.0
C3273 C 0.82724 0.38666 0.65826 0.0
C3274 C 0.8379 0.3901 0.65733 0.0
C3275 C 0.84016 0.40098 0.65609 0.0
C3276 C 0.84684 0.38248 0.65712 0.0
C3277 C 0.82444 0.37501 0.65944 0.0
C3278 C 0.84966 0.37675 0.66618 0.0
C3279 C 0.85829 0.36975 0.6659 0.0
C3280 C 0.8642 0.36836 0.65655 0.0
C3281 C 0.86132 0.37413 0.64751 0.0
C3282 C 0.85275 0.38115 0.64781 0.0
H3283 H 0.8158 0.3735 0.65837 0.0
H3284 H 0.82891 0.37011 0.65361 0.0
H3285 H 0.82672 0.37233 0.66746 0.0
H3286 H 0.84525 0.37777 0.67347 0.0
H3287 H 0.86031 0.36538 0.67298 0.0
H3288 H 0.30646 0.07389 0.34919 0.0
H3289 H 0.32062 0.08706 0.34664 0.0
H3290 H 0.29969 0.11204 0.35741 0.0
H3291 H 0.28562 0.0989 0.36036 0.0
H3292 H 0.32137 0.10547 0.33408 0.0
H3293 H 0.32552 0.11537 0.37676 0.0
H3294 H 0.31826 0.10381 0.37211 0.0
H3295 H 0.3123 0.11681 0.37167 0.0
C3296 C 0.3049 0.08218 0.3511 0.0
C3297 C 0.29493 0.08532 0.35507 0.0
C3298 C 0.31297 0.0897 0.34956 0.0
C3299 C 0.31125 0.10049 0.35199 0.0
C3300 C 0.30123 0.10372 0.35566 0.0
H3301 H 0.35249 0.15625 0.35272 0.0
H3302 H 0.33711 0.14424 0.3525 0.0
C3303 C 0.29316 0.0962 0.35723 0.0
C3304 C 0.32 0.10835 0.35083 0.0
H3305 H 0.33548 0.12584 0.36481 0.0
C3306 C 0.32447 0.10993 0.34079 0.0
C3307 C 0.32402 0.11412 0.35961 0.0
C3308 C 0.31986 0.1124 0.37067 0.0
C3309 C 0.33281 0.11725 0.33927 0.0
C3310 C 0.33684 0.123 0.34805 0.0
C3311 C 0.33232 0.12145 0.35808 0.0
C3312 C 0.34595 0.13046 0.34715 0.0
C3313 C 0.33714 0.11887 0.32827 0.0
C3314 C 0.356 0.12669 0.34415 0.0
C3315 C 0.36481 0.13352 0.34431 0.0
C3316 C 0.36374 0.14422 0.34756 0.0
C3317 C 0.35359 0.14803 0.35029 0.0
C3318 C 0.3448 0.1412 0.35013 0.0
H3319 H 0.33145 0.11608 0.32212 0.0
H3320 H 0.33901 0.12741 0.32687 0.0
H3321 H 0.34458 0.11424 0.32734 0.0
H3322 H 0.35711 0.11838 0.34204 0.0
H3323 H 0.37254 0.13029 0.34232 0.0
H3324 H 0.68695 0.57069 0.14005 0.0
H3325 H 0.676 0.58652 0.14273 0.0
H3326 H 0.69986 0.60003 0.16332 0.0
H3327 H 0.71082 0.58404 0.16087 0.0
H3328 H 0.67863 0.60118 0.17128 0.0
H3329 H 0.68167 0.61641 0.13034 0.0
H3330 H 0.67783 0.60261 0.13101 0.0
H3331 H 0.69076 0.60667 0.13561 0.0
C3332 C 0.68985 0.57699 0.14522 0.0
C3333 C 0.69975 0.5761 0.15026 0.0
C3334 C 0.68363 0.58608 0.14664 0.0
C3335 C 0.6872 0.5945 0.15309 0.0
C3336 C 0.69702 0.59364 0.15823 0.0
H3337 H 0.65186 0.65473 0.15405 0.0
H3338 H 0.66655 0.64195 0.15362 0.0
C3339 C 0.70329 0.58454 0.15679 0.0
C3340 C 0.68047 0.60404 0.15461 0.0
H3341 H 0.66771 0.62362 0.14104 0.0
C3342 C 0.67634 0.60618 0.16471 0.0
C3343 C 0.67763 0.61065 0.14605 0.0
C3344 C 0.68228 0.60905 0.13516 0.0
C3345 C 0.66901 0.61445 0.16636 0.0
C3346 C 0.66566 0.62061 0.15766 0.0
C3347 C 0.67021 0.61881 0.14768 0.0
C3348 C 0.65698 0.62851 0.15858 0.0
C3349 C 0.66483 0.61643 0.17738 0.0
C3350 C 0.64674 0.62515 0.16143 0.0
C3351 C 0.63833 0.63239 0.1616 0.0
C3352 C 0.63999 0.64314 0.15889 0.0
C3353 C 0.6503 0.64649 0.1561 0.0
C3354 C 0.65871 0.63923 0.15591 0.0
H3355 H 0.67035 0.61336 0.18348 0.0
H3356 H 0.66351 0.62508 0.17884 0.0
H3357 H 0.65711 0.61223 0.17832 0.0
H3358 H 0.64517 0.61686 0.16325 0.0
H3359 H 0.63047 0.62947 0.16356 0.0
H3360 H 0.18531 0.93938 0.86602 0.0
H3361 H 0.17432 0.92349 0.86352 0.0
H3362 H 0.20024 0.90774 0.84757 0.0
H3363 H 0.21131 0.92372 0.84989 0.0
H3364 H 0.16877 0.91315 0.84409 0.0
H3365 H 0.19115 0.88673 0.8713 0.0
H3366 H 0.19261 0.90107 0.87152 0.0
H3367 H 0.19876 0.89335 0.86122 0.0
C3368 C 0.18866 0.9326 0.86187 0.0
C3369 C 0.19919 0.93285 0.85813 0.0
C3370 C 0.18238 0.9235 0.86051 0.0
C3371 C 0.1865 0.91442 0.85545 0.0
C3372 C 0.19697 0.91462 0.85164 0.0
H3373 H 0.14526 0.86136 0.83563 0.0
H3374 H 0.15909 0.87518 0.83575 0.0
C3375 C 0.20328 0.92375 0.85299 0.0
C3376 C 0.17971 0.90484 0.85414 0.0
H3377 H 0.17631 0.87923 0.86259 0.0
C3378 C 0.17045 0.90569 0.84805 0.0
C3379 C 0.18191 0.89518 0.85941 0.0
C3380 C 0.1916 0.89398 0.8663 0.0
C3381 C 0.16323 0.89718 0.8472 0.0
C3382 C 0.1654 0.88753 0.8525 0.0
C3383 C 0.17473 0.88662 0.85848 0.0
C3384 C 0.1577 0.87857 0.85249 0.0
C3385 C 0.15313 0.89871 0.84096 0.0
C3386 C 0.1526 0.8757 0.86191 0.0
C3387 C 0.14469 0.86784 0.86187 0.0
C3388 C 0.14179 0.86268 0.85239 0.0
C3389 C 0.1472 0.86532 0.84302 0.0
C3390 C 0.15511 0.87319 0.84308 0.0
H3391 H 0.15171 0.90724 0.83911 0.0
H3392 H 0.15371 0.89423 0.83339 0.0
H3393 H 0.14618 0.89557 0.84538 0.0
H3394 H 0.15449 0.87978 0.86925 0.0
H3395 H 0.1406 0.86609 0.8692 0.0
H3396 H 0.87636 0.80623 0.57851 0.0
H3397 H 0.87548 0.82092 0.59129 0.0
H3398 H 0.84301 0.81256 0.59851 0.0
H3399 H 0.84387 0.79777 0.58578 0.0
H3400 H 0.86234 0.8382 0.59125 0.0
H3401 H 0.85613 0.81462 0.62777 0.0
H3402 H 0.86028 0.80861 0.61544 0.0
H3403 H 0.84657 0.81198 0.61755 0.0
C3404 C 0.86902 0.80752 0.58281 0.0
C3405 C 0.86018 0.80084 0.58115 0.0
C3406 C 0.86855 0.81589 0.59014 0.0
C3407 C 0.85923 0.81775 0.59596 0.0
C3408 C 0.85036 0.81112 0.59429 0.0
H3409 H 0.84255 0.86844 0.6406 0.0
H3410 H 0.84205 0.85321 0.6283 0.0
C3411 C 0.85085 0.80269 0.587 0.0
C3412 C 0.85875 0.82686 0.60348 0.0
H3413 H 0.85485 0.83345 0.62945 0.0
C3414 C 0.86072 0.83716 0.5996 0.0
C3415 C 0.85661 0.82548 0.61437 0.0
C3416 C 0.85487 0.81457 0.61907 0.0
C3417 C 0.8606 0.84611 0.60632 0.0
C3418 C 0.85853 0.84471 0.6172 0.0
C3419 C 0.85641 0.83446 0.62108 0.0
C3420 C 0.85885 0.85379 0.62472 0.0
C3421 C 0.8626 0.85701 0.60173 0.0
C3422 C 0.86848 0.85903 0.62685 0.0
C3423 C 0.86879 0.86769 0.63385 0.0
C3424 C 0.85947 0.87127 0.63885 0.0
C3425 C 0.84984 0.86593 0.63677 0.0
C3426 C 0.84954 0.85721 0.62981 0.0
H3427 H 0.86174 0.85701 0.59299 0.0
H3428 H 0.85704 0.86296 0.60516 0.0
H3429 H 0.87081 0.85959 0.60368 0.0
H3430 H 0.87576 0.85642 0.62307 0.0
H3431 H 0.87631 0.8717 0.63522 0.0
H3432 H 0.91708 0.1661 0.2973 0.0
H3433 H 0.90453 0.16828 0.31199 0.0
H3434 H 0.91179 0.13653 0.32268 0.0
H3435 H 0.92435 0.13431 0.30809 0.0
H3436 H 0.88662 0.15666 0.31709 0.0
H3437 H 0.91629 0.15426 0.3493 0.0
H3438 H 0.92001 0.15614 0.33566 0.0
H3439 H 0.91678 0.14303 0.34045 0.0
C3440 C 0.91597 0.15958 0.30277 0.0
C3441 C 0.92177 0.15007 0.3016 0.0
C3442 C 0.90883 0.16085 0.31117 0.0
C3443 C 0.90739 0.15265 0.31854 0.0
C3444 C 0.913 0.14307 0.31725 0.0
H3445 H 0.86718 0.1383 0.37131 0.0
H3446 H 0.87952 0.13851 0.35635 0.0
C3447 C 0.92016 0.14181 0.3089 0.0
C3448 C 0.89987 0.15398 0.32748 0.0
H3449 H 0.89806 0.15263 0.35437 0.0
C3450 C 0.88913 0.1559 0.32525 0.0
C3451 C 0.90319 0.15304 0.33812 0.0
C3452 C 0.91471 0.15162 0.34105 0.0
C3453 C 0.88153 0.1565 0.33338 0.0
C3454 C 0.88482 0.15522 0.34397 0.0
C3455 C 0.89558 0.15354 0.34622 0.0
C3456 C 0.87715 0.15519 0.35284 0.0
C3457 C 0.87001 0.15814 0.33059 0.0
C3458 C 0.8718 0.16454 0.35583 0.0
C3459 C 0.86474 0.16445 0.36438 0.0
C3460 C 0.8629 0.15499 0.37004 0.0
C3461 C 0.8683 0.14566 0.367 0.0
C3462 C 0.87539 0.14578 0.35851 0.0
H3463 H 0.86855 0.15723 0.32197 0.0
H3464 H 0.8649 0.15237 0.33489 0.0
H3465 H 0.86759 0.1663 0.33302 0.0
H3466 H 0.87316 0.17192 0.35161 0.0
H3467 H 0.86065 0.17175 0.36652 0.0
H3468 H 0.63963 0.22022 0.09562 0.0
H3469 H 0.64114 0.20553 0.10815 0.0
H3470 H 0.66319 0.18963 0.08728 0.0
H3471 H 0.66172 0.20429 0.07469 0.0
H3472 H 0.64731 0.17642 0.09409 0.0
H3473 H 0.66526 0.19796 0.12812 0.0
H3474 H 0.65332 0.20403 0.12335 0.0
H3475 H 0.66487 0.2035 0.11499 0.0
C3476 C 0.64494 0.21368 0.09378 0.0
C3477 C 0.65057 0.21342 0.08417 0.0
C3478 C 0.64581 0.2053 0.10096 0.0
C3479 C 0.65239 0.19656 0.09872 0.0
C3480 C 0.65809 0.19632 0.08917 0.0
H3481 H 0.66863 0.14588 0.14271 0.0
H3482 H 0.66917 0.16106 0.13061 0.0
C3483 C 0.6572 0.20467 0.08197 0.0
C3484 C 0.65289 0.1874 0.10604 0.0
H3485 H 0.65845 0.18051 0.13152 0.0
C3486 C 0.64981 0.1773 0.10226 0.0
C3487 C 0.65628 0.18854 0.11666 0.0
C3488 C 0.66022 0.19907 0.12101 0.0
C3489 C 0.64979 0.16835 0.10886 0.0
C3490 C 0.65273 0.16958 0.11959 0.0
C3491 C 0.65607 0.17962 0.12332 0.0
C3492 C 0.65236 0.16053 0.12706 0.0
C3493 C 0.64671 0.15764 0.10425 0.0
C3494 C 0.64272 0.15533 0.12919 0.0
C3495 C 0.6424 0.14663 0.13601 0.0
C3496 C 0.65172 0.143 0.14092 0.0
C3497 C 0.66135 0.14838 0.13894 0.0
C3498 C 0.66165 0.15709 0.13209 0.0
H3499 H 0.64752 0.1575 0.0955 0.0
H3500 H 0.65166 0.15117 0.10759 0.0
H3501 H 0.63828 0.15593 0.10621 0.0
H3502 H 0.63542 0.15798 0.12552 0.0
H3503 H 0.63488 0.14261 0.13728 0.0
H3504 H 0.58847 0.86306 0.80362 0.0
H3505 H 0.60422 0.86014 0.81455 0.0
H3506 H 0.58457 0.84597 0.83868 0.0
H3507 H 0.56889 0.84849 0.82766 0.0
H3508 H 0.60762 0.86894 0.83395 0.0
H3509 H 0.60885 0.82495 0.83699 0.0
H3510 H 0.60096 0.8317 0.82719 0.0
H3511 H 0.59609 0.83023 0.84049 0.0
C3512 C 0.58754 0.85909 0.81114 0.0
C3513 C 0.57742 0.85602 0.81478 0.0
C3514 C 0.59654 0.85748 0.8174 0.0
C3515 C 0.59559 0.85271 0.82737 0.0
C3516 C 0.58553 0.84946 0.83092 0.0
H3517 H 0.63009 0.84763 0.88489 0.0
H3518 H 0.61764 0.84669 0.8701 0.0
C3519 C 0.57655 0.85104 0.82467 0.0
C3520 C 0.60492 0.85198 0.83446 0.0
H3521 H 0.61867 0.8348 0.85016 0.0
C3522 C 0.61017 0.86146 0.83736 0.0
C3523 C 0.60822 0.8422 0.8389 0.0
C3524 C 0.6033 0.83168 0.83565 0.0
C3525 C 0.61828 0.8615 0.84495 0.0
C3526 C 0.6213 0.85177 0.84967 0.0
C3527 C 0.61629 0.84224 0.84654 0.0
C3528 C 0.62916 0.85148 0.85834 0.0
C3529 C 0.62325 0.87199 0.84822 0.0
C3530 C 0.63982 0.85424 0.85655 0.0
C3531 C 0.64699 0.85472 0.86498 0.0
C3532 C 0.64361 0.85243 0.87534 0.0
C3533 C 0.63299 0.84933 0.87701 0.0
C3534 C 0.62585 0.84883 0.86858 0.0
H3535 H 0.61875 0.87893 0.84518 0.0
H3536 H 0.62371 0.87264 0.85696 0.0
H3537 H 0.63146 0.87244 0.84505 0.0
H3538 H 0.64255 0.85616 0.84867 0.0
H3539 H 0.65515 0.85696 0.8634 0.0
H3540 H 0.85407 0.20768 0.92981 0.0
H3541 H 0.85186 0.19642 0.91404 0.0
H3542 H 0.86881 0.17101 0.92934 0.0
H3543 H 0.87126 0.18223 0.94502 0.0
H3544 H 0.86821 0.18634 0.90143 0.0
H3545 H 0.84043 0.15715 0.91945 0.0
H3546 H 0.84294 0.17017 0.92516 0.0
H3547 H 0.85229 0.15954 0.92701 0.0
C3548 C 0.85739 0.19972 0.9298 0.0
C3549 C 0.86278 0.19583 0.93872 0.0
C3550 C 0.85607 0.19329 0.9208 0.0
C3551 C 0.86004 0.18285 0.92061 0.0
C3552 C 0.86551 0.17898 0.92943 0.0
H3553 H 0.87547 0.13809 0.87176 0.0
H3554 H 0.87521 0.1523 0.88508 0.0
C3555 C 0.86686 0.1854 0.93839 0.0
C3556 C 0.85867 0.17599 0.91114 0.0
H3557 H 0.84825 0.15216 0.90298 0.0
C3558 C 0.86376 0.17891 0.90171 0.0
C3559 C 0.85274 0.1664 0.91151 0.0
C3560 C 0.8467 0.16314 0.92129 0.0
C3561 C 0.86344 0.17224 0.89275 0.0
C3562 C 0.85797 0.16238 0.89331 0.0
C3563 C 0.85251 0.15969 0.9026 0.0
C3564 C 0.85818 0.1545 0.88454 0.0
C3565 C 0.86899 0.17577 0.88279 0.0
C3566 C 0.84868 0.15098 0.87986 0.0
C3567 C 0.8488 0.14287 0.87222 0.0
C3568 C 0.85843 0.13806 0.86919 0.0
C3569 C 0.86795 0.14175 0.87377 0.0
C3570 C 0.86782 0.14987 0.88139 0.0
H3571 H 0.87015 0.18457 0.88266 0.0
H3572 H 0.87693 0.17198 0.88237 0.0
H3573 H 0.86443 0.17333 0.87566 0.0
H3574 H 0.84115 0.15443 0.88222 0.0
H3575 H 0.84135 0.1403 0.86876 0.0
H3576 H 0.59001 0.14669 0.70479 0.0
H3577 H 0.60624 0.14892 0.69438 0.0
H3578 H 0.58872 0.16645 0.67097 0.0
H3579 H 0.57256 0.16463 0.68151 0.0
H3580 H 0.60929 0.14115 0.67456 0.0
H3581 H 0.61489 0.18496 0.67443 0.0
H3582 H 0.60609 0.17836 0.6836 0.0
H3583 H 0.60179 0.1811 0.67033 0.0
C3584 C 0.58966 0.15126 0.69756 0.0
C3585 C 0.57998 0.15548 0.69398 0.0
C3586 C 0.59893 0.15247 0.69159 0.0
C3587 C 0.59873 0.15797 0.68197 0.0
C3588 C 0.58912 0.16237 0.67848 0.0
H3589 H 0.63529 0.16369 0.62569 0.0
H3590 H 0.62256 0.16476 0.64025 0.0
C3591 C 0.57986 0.16119 0.68445 0.0
C3592 C 0.60827 0.1583 0.6751 0.0
H3593 H 0.62413 0.1751 0.66088 0.0
C3594 C 0.61266 0.14858 0.6717 0.0
C3595 C 0.61265 0.168 0.6714 0.0
C3596 C 0.60868 0.17869 0.67522 0.0
C3597 C 0.62097 0.14828 0.66431 0.0
C3598 C 0.62508 0.15796 0.66032 0.0
C3599 C 0.62093 0.1677 0.66395 0.0
C3600 C 0.63319 0.15809 0.65185 0.0
C3601 C 0.62498 0.13759 0.66048 0.0
C3602 C 0.64346 0.1542 0.65364 0.0
C3603 C 0.6508 0.15364 0.64534 0.0
C3604 C 0.64799 0.15699 0.63513 0.0
C3605 C 0.63777 0.16118 0.63348 0.0
C3606 C 0.63047 0.16175 0.64177 0.0
H3607 H 0.61972 0.13092 0.66294 0.0
H3608 H 0.62567 0.13748 0.65172 0.0
H3609 H 0.63301 0.13617 0.6638 0.0
H3610 H 0.64575 0.15147 0.66142 0.0
H3611 H 0.65865 0.15052 0.64691 0.0
H3612 H 0.66434 0.79448 0.4186 0.0
H3613 H 0.66598 0.80937 0.40621 0.0
H3614 H 0.63429 0.81959 0.41426 0.0
H3615 H 0.63262 0.80481 0.42666 0.0
H3616 H 0.65401 0.81444 0.3887 0.0
H3617 H 0.65148 0.84672 0.41873 0.0
H3618 H 0.65369 0.83297 0.4222 0.0
H3619 H 0.64049 0.83759 0.41936 0.0
C3620 C 0.65771 0.79989 0.41769 0.0
C3621 C 0.64838 0.79854 0.42368 0.0
C3622 C 0.65868 0.8084 0.41065 0.0
C3623 C 0.65034 0.81571 0.40948 0.0
C3624 C 0.64093 0.81422 0.41526 0.0
H3625 H 0.63416 0.86877 0.37035 0.0
H3626 H 0.63489 0.8536 0.38241 0.0
C3627 C 0.63998 0.80576 0.42232 0.0
C3628 C 0.65135 0.82479 0.4021 0.0
H3629 H 0.64936 0.85191 0.4007 0.0
C3630 C 0.65312 0.82264 0.39133 0.0
C3631 C 0.65024 0.83549 0.40557 0.0
C3632 C 0.64898 0.83836 0.41711 0.0
C3633 C 0.65339 0.8309 0.38388 0.0
C3634 C 0.65193 0.84154 0.38732 0.0
C3635 C 0.65041 0.84371 0.3981 0.0
C3636 C 0.65158 0.85053 0.37982 0.0
C3637 C 0.65489 0.82818 0.37233 0.0
C3638 C 0.66076 0.85383 0.37444 0.0
C3639 C 0.66037 0.8625 0.36754 0.0
C3640 C 0.65078 0.86797 0.3659 0.0
C3641 C 0.64162 0.86462 0.37133 0.0
C3642 C 0.64203 0.85601 0.37826 0.0
H3643 H 0.65423 0.81947 0.37078 0.0
H3644 H 0.64891 0.83239 0.36745 0.0
H3645 H 0.66288 0.83089 0.36975 0.0
H3646 H 0.66823 0.84976 0.37564 0.0
H3647 H 0.66755 0.86488 0.36344 0.0
H3648 H 0.93611 0.85006 0.17774 0.0
H3649 H 0.91993 0.84816 0.16726 0.0
H3650 H 0.90142 0.86039 0.19334 0.0
H3651 H 0.91764 0.86276 0.20375 0.0
H3652 H 0.9014 0.83667 0.1706 0.0
H3653 H 0.89336 0.88028 0.16931 0.0
H3654 H 0.90585 0.87498 0.17382 0.0
H3655 H 0.89439 0.87469 0.1823 0.0
C3656 C 0.92861 0.85243 0.18124 0.0
C3657 C 0.9282 0.8567 0.19154 0.0
C3658 C 0.91936 0.85125 0.17526 0.0
C3659 C 0.9095 0.8543 0.17945 0.0
C3660 C 0.90898 0.85818 0.18988 0.0
H3661 H 0.84916 0.85748 0.14465 0.0
H3662 H 0.86191 0.85686 0.15927 0.0
C3663 C 0.91825 0.85941 0.19586 0.0
C3664 C 0.89989 0.85367 0.17273 0.0
H3665 H 0.88137 0.869 0.16033 0.0
C3666 C 0.89696 0.84372 0.16843 0.0
C3667 C 0.8941 0.86288 0.16992 0.0
C3668 C 0.8971 0.87384 0.17399 0.0
C3669 C 0.88855 0.84279 0.1612 0.0
C3670 C 0.88301 0.85205 0.15814 0.0
C3671 C 0.88565 0.86192 0.16274 0.0
C3672 C 0.8751 0.85183 0.14949 0.0
C3673 C 0.88574 0.83192 0.1568 0.0
C3674 C 0.87834 0.8493 0.13917 0.0
C3675 C 0.87115 0.84978 0.13081 0.0
C3676 C 0.86053 0.85278 0.13259 0.0
C3677 C 0.85729 0.85523 0.14298 0.0
C3678 C 0.86453 0.85481 0.15135 0.0
H3679 H 0.8886 0.82543 0.16201 0.0
H3680 H 0.87701 0.83107 0.15578 0.0
H3681 H 0.88955 0.83091 0.14895 0.0
H3682 H 0.88653 0.84722 0.13754 0.0
H3683 H 0.87401 0.84809 0.1229 0.0
H3684 H 0.07196 0.64849 0.17882 0.0
H3685 H 0.08799 0.65053 0.16816 0.0
H3686 H 0.10329 0.66735 0.19383 0.0
H3687 H 0.08715 0.66551 0.20457 0.0
H3688 H 0.09892 0.66989 0.16237 0.0
H3689 H 0.12374 0.6423 0.18617 0.0
H3690 H 0.10943 0.64249 0.18712 0.0
H3691 H 0.11715 0.65293 0.19317 0.0
C3692 C 0.07866 0.65277 0.18217 0.0
C3693 C 0.07825 0.65686 0.19255 0.0
C3694 C 0.08784 0.65387 0.17608 0.0
C3695 C 0.09683 0.65901 0.18025 0.0
C3696 C 0.09646 0.66322 0.19054 0.0
H3697 H 0.15118 0.67343 0.13872 0.0
H3698 H 0.13757 0.67533 0.15249 0.0
C3699 C 0.08725 0.66215 0.19666 0.0
C3700 C 0.10656 0.6598 0.17373 0.0
H3701 H 0.13161 0.64978 0.17104 0.0
C3702 C 0.10613 0.66562 0.16431 0.0
C3703 C 0.11589 0.65413 0.17629 0.0
C3704 C 0.11664 0.64754 0.18619 0.0
C3705 C 0.11471 0.6657 0.15721 0.0
C3706 C 0.12398 0.65989 0.15968 0.0
C3707 C 0.12451 0.65428 0.16923 0.0
C3708 C 0.13277 0.65874 0.15199 0.0
C3709 C 0.11361 0.6716 0.14691 0.0
C3710 C 0.13474 0.64874 0.14739 0.0
C3711 C 0.14245 0.64763 0.13952 0.0
C3712 C 0.14839 0.65651 0.13614 0.0
C3713 C 0.14663 0.66647 0.14103 0.0
C3714 C 0.13889 0.66757 0.14891 0.0
H3715 H 0.10531 0.67417 0.14545 0.0
H3716 H 0.11874 0.67882 0.1471 0.0
H3717 H 0.11625 0.66652 0.14018 0.0
H3718 H 0.13008 0.64183 0.14965 0.0
H3719 H 0.14348 0.63988 0.13583 0.0
H3720 H 0.16108 0.29459 0.91798 0.0
H3721 H 0.16251 0.30942 0.90551 0.0
H3722 H 0.13072 0.31931 0.91359 0.0
H3723 H 0.12926 0.30458 0.92609 0.0
H3724 H 0.15045 0.31432 0.888 0.0
H3725 H 0.14767 0.34662 0.91802 0.0
H3726 H 0.15001 0.33288 0.9215 0.0
H3727 H 0.13677 0.33737 0.91863 0.0
C3728 C 0.15439 0.29991 0.91706 0.0
C3729 C 0.1451 0.29849 0.92309 0.0
C3730 C 0.15523 0.30839 0.90997 0.0
C3731 C 0.14681 0.31559 0.90879 0.0
C3732 C 0.13743 0.31402 0.9146 0.0
H3733 H 0.13154 0.36929 0.86974 0.0
H3734 H 0.13168 0.35386 0.8815 0.0
C3735 C 0.1366 0.3056 0.92172 0.0
C3736 C 0.14772 0.32466 0.90139 0.0
H3737 H 0.14577 0.35179 0.9 0.0
C3738 C 0.14953 0.32252 0.89063 0.0
C3739 C 0.14657 0.33536 0.90486 0.0
C3740 C 0.14525 0.33823 0.91639 0.0
C3741 C 0.14986 0.33078 0.88318 0.0
C3742 C 0.14842 0.34142 0.88663 0.0
C3743 C 0.1468 0.34359 0.8974 0.0
C3744 C 0.14835 0.35045 0.87917 0.0
C3745 C 0.15145 0.32808 0.87165 0.0
C3746 C 0.1577 0.35362 0.874 0.0
C3747 C 0.15764 0.36244 0.86728 0.0
C3748 C 0.14823 0.3682 0.86561 0.0
C3749 C 0.13887 0.36493 0.87076 0.0
C3750 C 0.13895 0.35617 0.87752 0.0
H3751 H 0.15065 0.31938 0.87007 0.0
H3752 H 0.14562 0.33241 0.8667 0.0
H3753 H 0.15953 0.33063 0.86919 0.0
H3754 H 0.16505 0.34937 0.87528 0.0
H3755 H 0.16496 0.36475 0.86338 0.0
H3756 H 0.43677 0.34994 0.67826 0.0
H3757 H 0.42068 0.34778 0.66767 0.0
H3758 H 0.40183 0.35985 0.69357 0.0
H3759 H 0.41795 0.36245 0.7041 0.0
H3760 H 0.40208 0.33611 0.67097 0.0
H3761 H 0.39402 0.3797 0.66934 0.0
H3762 H 0.4065 0.37443 0.67392 0.0
H3763 H 0.39502 0.37422 0.68238 0.0
C3764 C 0.42921 0.3522 0.68169 0.0
C3765 C 0.42867 0.35651 0.69198 0.0
C3766 C 0.42002 0.35087 0.67566 0.0
C3767 C 0.41009 0.35382 0.67977 0.0
C3768 C 0.40944 0.35771 0.69018 0.0
H3769 H 0.34975 0.35764 0.64543 0.0
H3770 H 0.3627 0.35678 0.65984 0.0
C3771 C 0.41865 0.35908 0.69622 0.0
C3772 C 0.40054 0.35311 0.67297 0.0
H3773 H 0.382 0.36834 0.66051 0.0
C3774 C 0.39763 0.34314 0.66873 0.0
C3775 C 0.39475 0.36231 0.67009 0.0
C3776 C 0.39775 0.37329 0.67408 0.0
C3777 C 0.38919 0.34214 0.66155 0.0
C3778 C 0.38362 0.35137 0.65844 0.0
C3779 C 0.38628 0.36128 0.66294 0.0
C3780 C 0.37554 0.35108 0.64995 0.0
C3781 C 0.38634 0.33122 0.6573 0.0
C3782 C 0.37849 0.3482 0.63962 0.0
C3783 C 0.37117 0.34879 0.63137 0.0
C3784 C 0.36073 0.35229 0.63327 0.0
C3785 C 0.35775 0.35501 0.64367 0.0
C3786 C 0.36511 0.35446 0.65193 0.0
H3787 H 0.38915 0.3248 0.66262 0.0
H3788 H 0.37762 0.33038 0.65624 0.0
H3789 H 0.39019 0.33006 0.64948 0.0
H3790 H 0.38658 0.34583 0.63788 0.0
H3791 H 0.37381 0.34685 0.62344 0.0
H3792 H 0.13973 0.7202 0.59445 0.0
H3793 H 0.14133 0.70542 0.60686 0.0
H3794 H 0.16167 0.68876 0.58486 0.0
H3795 H 0.16009 0.70351 0.57239 0.0
H3796 H 0.14574 0.6761 0.5925 0.0
H3797 H 0.16617 0.69695 0.62554 0.0
H3798 H 0.15421 0.70346 0.62141 0.0
H3799 H 0.16528 0.70252 0.61244 0.0
C3800 C 0.14468 0.71346 0.59232 0.0
C3801 C 0.1498 0.71302 0.58244 0.0
C3802 C 0.1456 0.70503 0.59944 0.0
C3803 C 0.15174 0.69606 0.59685 0.0
C3804 C 0.15692 0.69563 0.58702 0.0
H3805 H 0.16809 0.64498 0.64041 0.0
H3806 H 0.16871 0.65996 0.62808 0.0
C3807 C 0.15597 0.70403 0.57989 0.0
C3808 C 0.1523 0.68687 0.60414 0.0
H3809 H 0.15885 0.67978 0.62932 0.0
C3810 C 0.14867 0.67689 0.60053 0.0
C3811 C 0.15626 0.68788 0.61457 0.0
C3812 C 0.1608 0.69826 0.6187 0.0
C3813 C 0.14865 0.66795 0.60714 0.0
C3814 C 0.15216 0.66907 0.61771 0.0
C3815 C 0.15605 0.67898 0.62125 0.0
C3816 C 0.15176 0.66007 0.62523 0.0
C3817 C 0.14496 0.65735 0.60271 0.0
C3818 C 0.14202 0.65527 0.62781 0.0
C3819 C 0.14165 0.64668 0.63477 0.0
C3820 C 0.15101 0.64276 0.63936 0.0
C3821 C 0.16075 0.64771 0.6369 0.0
C3822 C 0.16111 0.6563 0.62991 0.0
H3823 H 0.14539 0.65716 0.59393 0.0
H3824 H 0.14979 0.65069 0.60585 0.0
H3825 H 0.13656 0.65599 0.60502 0.0
H3826 H 0.13469 0.65818 0.62442 0.0
H3827 H 0.13403 0.643 0.63642 0.0
H3828 H 0.36476 0.28937 0.09597 0.0
H3829 H 0.36313 0.30364 0.10916 0.0
H3830 H 0.35118 0.32479 0.08524 0.0
H3831 H 0.35238 0.31048 0.0721 0.0
H3832 H 0.37332 0.32299 0.10913 0.0
H3833 H 0.32973 0.32898 0.10886 0.0
H3834 H 0.33593 0.31736 0.10307 0.0
H3835 H 0.33558 0.32974 0.09595 0.0
C3836 C 0.36158 0.29699 0.09356 0.0
C3837 C 0.35867 0.29877 0.08297 0.0
C3838 C 0.36072 0.30516 0.10109 0.0
C3839 C 0.35689 0.31523 0.09822 0.0
C3840 C 0.35395 0.31702 0.08769 0.0
H3841 H 0.35321 0.37781 0.12638 0.0
H3842 H 0.35255 0.36197 0.115 0.0
C3843 C 0.35478 0.30886 0.08015 0.0
C3844 C 0.35653 0.32405 0.10609 0.0
H3845 H 0.34011 0.3426 0.11729 0.0
C3846 C 0.36604 0.3272 0.11101 0.0
C3847 C 0.34702 0.32954 0.10852 0.0
C3848 C 0.33646 0.32618 0.1039 0.0
C3849 C 0.36636 0.33591 0.11803 0.0
C3850 C 0.35689 0.34152 0.12029 0.0
C3851 C 0.34735 0.33829 0.1155 0.0
C3852 C 0.35681 0.35097 0.12738 0.0
C3853 C 0.37688 0.33926 0.12274 0.0
C3854 C 0.35923 0.34998 0.13815 0.0
C3855 C 0.35954 0.35901 0.1447 0.0
C3856 C 0.35741 0.36919 0.14059 0.0
C3857 C 0.35476 0.37009 0.12983 0.0
C3858 C 0.35443 0.36106 0.1233 0.0
H3859 H 0.3837 0.33552 0.11855 0.0
H3860 H 0.37784 0.34807 0.12247 0.0
H3861 H 0.37716 0.33681 0.13114 0.0
H3862 H 0.36091 0.34223 0.14147 0.0
H3863 H 0.36143 0.35802 0.15298 0.0
H3864 H 0.55932 0.41545 0.18 0.0
H3865 H 0.5741 0.41716 0.16753 0.0
H3866 H 0.55757 0.39684 0.1453 0.0
H3867 H 0.54278 0.39507 0.15772 0.0
H3868 H 0.58654 0.40092 0.1598 0.0
H3869 H 0.56664 0.42192 0.1269 0.0
H3870 H 0.56095 0.42109 0.13999 0.0
H3871 H 0.55984 0.41001 0.13094 0.0
C3872 C 0.55882 0.41137 0.17244 0.0
C3873 C 0.54987 0.40513 0.16985 0.0
C3874 C 0.56724 0.4124 0.16531 0.0
C3875 C 0.56687 0.40725 0.15543 0.0
C3876 C 0.55792 0.40109 0.15277 0.0
H3877 H 0.61933 0.3885 0.1157 0.0
H3878 H 0.604 0.38954 0.12753 0.0
C3879 C 0.54948 0.40008 0.15989 0.0
C3880 C 0.57612 0.40777 0.1482 0.0
H3881 H 0.58364 0.41436 0.12311 0.0
C3882 C 0.58592 0.40393 0.15181 0.0
C3883 C 0.57533 0.41181 0.13781 0.0
C3884 C 0.56515 0.41654 0.1337 0.0
C3885 C 0.59489 0.40376 0.14522 0.0
C3886 C 0.59398 0.40736 0.13469 0.0
C3887 C 0.58427 0.41149 0.13116 0.0
C3888 C 0.603 0.40677 0.12719 0.0
C3889 C 0.60528 0.39978 0.1496 0.0
C3890 C 0.60732 0.41609 0.12283 0.0
C3891 C 0.61603 0.41552 0.11597 0.0
C3892 C 0.62051 0.40559 0.11329 0.0
C3893 C 0.61601 0.39626 0.11753 0.0
C3894 C 0.60732 0.39684 0.12438 0.0
H3895 H 0.60536 0.40004 0.15839 0.0
H3896 H 0.60646 0.39138 0.14707 0.0
H3897 H 0.61206 0.40458 0.14661 0.0
H3898 H 0.60403 0.42382 0.12485 0.0
H3899 H 0.61923 0.42284 0.11274 0.0
H3900 H 0.93849 0.59348 0.68153 0.0
H3901 H 0.92714 0.59129 0.66596 0.0
H3902 H 0.94088 0.61964 0.65234 0.0
H3903 H 0.95225 0.62187 0.66786 0.0
H3904 H 0.91221 0.60572 0.65968 0.0
H3905 H 0.9413 0.59885 0.62741 0.0
H3906 H 0.94473 0.59758 0.64121 0.0
H3907 H 0.94412 0.61054 0.63522 0.0
C3908 C 0.93915 0.5992 0.67517 0.0
C3909 C 0.94625 0.60786 0.67593 0.0
C3910 C 0.9327 0.59791 0.66627 0.0
C3911 C 0.93325 0.60523 0.65794 0.0
C3912 C 0.9405 0.61375 0.65855 0.0
H3913 H 0.88513 0.62283 0.61342 0.0
H3914 H 0.89907 0.62195 0.62684 0.0
C3915 C 0.94698 0.61502 0.66744 0.0
C3916 C 0.92558 0.60452 0.64908 0.0
H3917 H 0.92358 0.60326 0.62216 0.0
C3918 C 0.9147 0.60508 0.65148 0.0
C3919 C 0.92884 0.60362 0.6384 0.0
C3920 C 0.94038 0.60251 0.63539 0.0
C3921 C 0.90701 0.60508 0.64348 0.0
C3922 C 0.91029 0.60461 0.63281 0.0
C3923 C 0.92113 0.60373 0.63037 0.0
C3924 C 0.9025 0.60527 0.62411 0.0
C3925 C 0.89542 0.60564 0.64647 0.0
C3926 C 0.90002 0.59621 0.61801 0.0
C3927 C 0.89205 0.59669 0.61033 0.0
C3928 C 0.88654 0.60625 0.60858 0.0
C3929 C 0.8893 0.61538 0.61451 0.0
C3930 C 0.89721 0.61488 0.62221 0.0
H3931 H 0.89412 0.60389 0.65498 0.0
H3932 H 0.89241 0.61377 0.64487 0.0
H3933 H 0.89068 0.5999 0.64166 0.0
H3934 H 0.90406 0.58873 0.61938 0.0
H3935 H 0.89015 0.58956 0.60582 0.0
H3936 H 0.59227 0.32424 0.55093 0.0
H3937 H 0.5904 0.33669 0.56581 0.0
H3938 H 0.61194 0.35863 0.55062 0.0
H3939 H 0.61383 0.34625 0.53572 0.0
H3940 H 0.60608 0.34365 0.57903 0.0
H3941 H 0.58752 0.37807 0.55903 0.0
H3942 H 0.58816 0.36496 0.55305 0.0
H3943 H 0.59954 0.37369 0.55273 0.0
C3944 C 0.59657 0.33174 0.55074 0.0
C3945 C 0.60319 0.33427 0.54214 0.0
C3946 C 0.59546 0.33885 0.55922 0.0
C3947 C 0.60091 0.34865 0.55926 0.0
C3948 C 0.60745 0.35124 0.55064 0.0
H3949 H 0.61912 0.38698 0.61311 0.0
H3950 H 0.61811 0.37506 0.59779 0.0
C3951 C 0.60853 0.34414 0.54214 0.0
C3952 C 0.6003 0.35583 0.5686 0.0
H3953 H 0.5946 0.38136 0.57628 0.0
C3954 C 0.60349 0.35187 0.57844 0.0
C3955 C 0.59679 0.36651 0.56785 0.0
C3956 C 0.5927 0.37105 0.55762 0.0
C3957 C 0.60355 0.35838 0.58751 0.0
C3958 C 0.60053 0.3692 0.58666 0.0
C3959 C 0.59703 0.37309 0.57688 0.0
C3960 C 0.60112 0.37664 0.59579 0.0
C3961 C 0.6068 0.35359 0.59793 0.0
C3962 C 0.59195 0.38173 0.59956 0.0
C3963 C 0.59251 0.38868 0.60825 0.0
C3964 C 0.60229 0.3907 0.61328 0.0
C3965 C 0.61148 0.38568 0.60937 0.0
C3966 C 0.61091 0.37876 0.60069 0.0
H3967 H 0.60594 0.34476 0.59785 0.0
H3968 H 0.61527 0.35553 0.59947 0.0
H3969 H 0.60198 0.35688 0.60454 0.0
H3970 H 0.58433 0.38026 0.59583 0.0
H3971 H 0.58532 0.39253 0.61098 0.0
H3972 H 0.41678 0.66496 0.79786 0.0
H3973 H 0.40414 0.66692 0.8125 0.0
H3974 H 0.41183 0.63526 0.82316 0.0
H3975 H 0.42448 0.63327 0.80863 0.0
H3976 H 0.38638 0.6551 0.8176 0.0
H3977 H 0.41606 0.65298 0.84981 0.0
H3978 H 0.41977 0.65493 0.83617 0.0
H3979 H 0.41673 0.64176 0.84095 0.0
C3980 C 0.41574 0.65841 0.80331 0.0
C3981 C 0.4217 0.64899 0.80215 0.0
C3982 C 0.40856 0.65956 0.81168 0.0
C3983 C 0.40721 0.65133 0.81904 0.0
C3984 C 0.41296 0.64183 0.81775 0.0
H3985 H 0.36697 0.63575 0.87135 0.0
H3986 H 0.37913 0.63631 0.85625 0.0
C3987 C 0.42017 0.6407 0.80943 0.0
C3988 C 0.39967 0.65253 0.82798 0.0
H3989 H 0.39785 0.65091 0.85486 0.0
C3990 C 0.3889 0.65432 0.82576 0.0
C3991 C 0.40299 0.65156 0.83862 0.0
C3992 C 0.41453 0.65031 0.84155 0.0
C3993 C 0.38129 0.65474 0.83389 0.0
C3994 C 0.38458 0.65339 0.84447 0.0
C3995 C 0.39537 0.65187 0.84671 0.0
C3996 C 0.37691 0.65313 0.85332 0.0
C3997 C 0.36975 0.65627 0.83113 0.0
C3998 C 0.37169 0.66243 0.85666 0.0
C3999 C 0.36474 0.66214 0.8653 0.0
C4000 C 0.36289 0.65253 0.87069 0.0
C4001 C 0.36811 0.64323 0.86726 0.0
C4002 C 0.3751 0.64354 0.85869 0.0
H4003 H 0.36832 0.65569 0.82247 0.0
H4004 H 0.36476 0.65021 0.83517 0.0
H4005 H 0.36714 0.66426 0.83391 0.0
H4006 H 0.37308 0.66992 0.85266 0.0
H4007 H 0.36079 0.66942 0.86774 0.0
H4008 H 0.06798 0.33683 0.32641 0.0
H4009 H 0.08333 0.33496 0.33812 0.0
H4010 H 0.10065 0.358 0.31962 0.0
H4011 H 0.08536 0.35994 0.30791 0.0
H4012 H 0.11299 0.34019 0.32601 0.0
H4013 H 0.09088 0.35883 0.35941 0.0
H4014 H 0.08463 0.34732 0.35356 0.0
H4015 H 0.0862 0.35928 0.34595 0.0
C4016 C 0.07507 0.34147 0.32482 0.0
C4017 C 0.07542 0.34861 0.31629 0.0
C4018 C 0.08383 0.34038 0.3315 0.0
C4019 C 0.09305 0.34646 0.32982 0.0
C4020 C 0.0936 0.35324 0.32105 0.0
H4021 H 0.1407 0.36711 0.37365 0.0
H4022 H 0.12677 0.3651 0.3604 0.0
C4023 C 0.08486 0.35431 0.31435 0.0
C4024 C 0.1019 0.34628 0.33751 0.0
H4025 H 0.10829 0.35302 0.36291 0.0
C4026 C 0.11198 0.34293 0.3341 0.0
C4027 C 0.10055 0.35 0.34801 0.0
C4028 C 0.09002 0.35415 0.35197 0.0
C4029 C 0.12077 0.34324 0.34094 0.0
C4030 C 0.11938 0.34689 0.35145 0.0
C4031 C 0.10929 0.35016 0.35486 0.0
C4032 C 0.12837 0.34798 0.35893 0.0
C4033 C 0.13153 0.33997 0.33678 0.0
C4034 C 0.13393 0.339 0.36246 0.0
C4035 C 0.14199 0.34012 0.37001 0.0
C4036 C 0.14459 0.35025 0.37415 0.0
C4037 C 0.13904 0.35922 0.37049 0.0
C4038 C 0.13102 0.35808 0.36297 0.0
H4039 H 0.13166 0.33946 0.32801 0.0
H4040 H 0.13775 0.34571 0.33941 0.0
H4041 H 0.13357 0.332 0.33995 0.0
H4042 H 0.13189 0.3311 0.35955 0.0
H4043 H 0.14614 0.33307 0.37264 0.0
H4044 H 0.36873 0.68311 0.44495 0.0
H4045 H 0.36657 0.67183 0.42929 0.0
H4046 H 0.34876 0.69668 0.41405 0.0
H4047 H 0.35074 0.70803 0.4298 0.0
H4048 H 0.34714 0.66497 0.41971 0.0
H4049 H 0.37255 0.68879 0.39253 0.0
H4050 H 0.37304 0.69041 0.40672 0.0
H4051 H 0.36219 0.69588 0.39937 0.0
C4052 C 0.36426 0.68617 0.43832 0.0
C4053 C 0.35988 0.69648 0.43865 0.0
C4054 C 0.36309 0.67972 0.42936 0.0
C4055 C 0.35759 0.68346 0.4205 0.0
C4056 C 0.35317 0.69372 0.42076 0.0
H4057 H 0.33884 0.64041 0.36866 0.0
H4058 H 0.33843 0.65429 0.3824 0.0
C4059 C 0.35433 0.70019 0.42976 0.0
C4060 C 0.35642 0.67646 0.41109 0.0
H4061 H 0.36446 0.67331 0.38547 0.0
C4062 C 0.35084 0.66682 0.41219 0.0
C4063 C 0.36134 0.67889 0.40134 0.0
C4064 C 0.36769 0.68901 0.39987 0.0
C4065 C 0.35018 0.65944 0.40382 0.0
C4066 C 0.35514 0.66184 0.39408 0.0
C4067 C 0.3606 0.67155 0.39293 0.0
C4068 C 0.35537 0.65402 0.38525 0.0
C4069 C 0.34453 0.64896 0.40559 0.0
C4070 C 0.36506 0.64951 0.38212 0.0
C4071 C 0.36532 0.64158 0.37432 0.0
C4072 C 0.35589 0.63805 0.36944 0.0
C4073 C 0.34622 0.64283 0.37238 0.0
C4074 C 0.34597 0.65077 0.38021 0.0
H4075 H 0.34294 0.64751 0.41411 0.0
H4076 H 0.3368 0.64902 0.40138 0.0
H4077 H 0.34928 0.64221 0.4024 0.0
H4078 H 0.3724 0.6519 0.38594 0.0
H4079 H 0.37288 0.63798 0.37235 0.0
H4080 H 0.1156 0.31613 0.01486 0.0
H4081 H 0.10973 0.32512 0.031 0.0
H4082 H 0.11332 0.29585 0.04835 0.0
H4083 H 0.11959 0.28684 0.03225 0.0
H4084 H 0.09264 0.32076 0.04445 0.0
H4085 H 0.13139 0.31721 0.06527 0.0
H4086 H 0.13001 0.31468 0.05128 0.0
H4087 H 0.12558 0.30492 0.06065 0.0
C4088 C 0.11526 0.31161 0.02213 0.0
C4089 C 0.11822 0.3008 0.0223 0.0
C4090 C 0.1118 0.31674 0.03132 0.0
C4091 C 0.11123 0.31119 0.04089 0.0
C4092 C 0.11387 0.30032 0.04107 0.0
H4093 H 0.10004 0.33978 0.10339 0.0
H4094 H 0.10135 0.32644 0.08919 0.0
C4095 C 0.11736 0.29516 0.03185 0.0
C4096 C 0.10809 0.31698 0.05066 0.0
H4097 H 0.11771 0.3262 0.07424 0.0
C4098 C 0.09808 0.32187 0.05102 0.0
C4099 C 0.11519 0.31839 0.05922 0.0
C4100 C 0.12618 0.3136 0.05911 0.0
C4101 C 0.09507 0.32834 0.05961 0.0
C4102 C 0.10232 0.33006 0.06797 0.0
C4103 C 0.11217 0.32484 0.06781 0.0
C4104 C 0.10027 0.33791 0.07654 0.0
C4105 C 0.08419 0.33335 0.05961 0.0
C4106 C 0.09913 0.34876 0.07412 0.0
C4107 C 0.09837 0.35638 0.08219 0.0
C4108 C 0.09876 0.35329 0.09285 0.0
C4109 C 0.09957 0.34239 0.09526 0.0
C4110 C 0.10039 0.33477 0.08717 0.0
H4111 H 0.07857 0.32879 0.05453 0.0
H4112 H 0.08088 0.33385 0.06774 0.0
H4113 H 0.08481 0.34157 0.05643 0.0
H4114 H 0.09923 0.35139 0.06598 0.0
H4115 H 0.0977 0.36471 0.0801 0.0
H4116 H 0.94864 0.84629 0.29631 0.0
H4117 H 0.9445 0.84798 0.31515 0.0
H4118 H 0.95736 0.87992 0.31539 0.0
H4119 H 0.96121 0.87844 0.29646 0.0
H4120 H 0.95707 0.85292 0.33328 0.0
H4121 H 0.92646 0.88375 0.32537 0.0
H4122 H 0.93218 0.87564 0.315 0.0
H4123 H 0.93952 0.8867 0.32043 0.0
C4124 C 0.95059 0.85368 0.30037 0.0
C4125 C 0.95512 0.86229 0.29485 0.0
C4126 C 0.9483 0.85459 0.31115 0.0
C4127 C 0.95047 0.86413 0.3166 0.0
C4128 C 0.95548 0.87255 0.31127 0.0
H4129 H 0.92902 0.88534 0.37875 0.0
H4130 H 0.93877 0.88379 0.36206 0.0
C4131 C 0.95777 0.87165 0.30048 0.0
C4132 C 0.94689 0.86544 0.32769 0.0
H4133 H 0.92931 0.87917 0.34313 0.0
C4134 C 0.95104 0.85869 0.33547 0.0
C4135 C 0.93901 0.87296 0.3305 0.0
C4136 C 0.93394 0.88013 0.3224 0.0
C4137 C 0.94751 0.85928 0.346 0.0
C4138 C 0.93949 0.86668 0.34875 0.0
C4139 C 0.93549 0.87354 0.341 0.0
C4140 C 0.93474 0.86718 0.35947 0.0
C4141 C 0.95243 0.85202 0.35408 0.0
C4142 C 0.92933 0.85832 0.36361 0.0
C4143 C 0.92374 0.85918 0.37313 0.0
C4144 C 0.92337 0.86897 0.37863 0.0
C4145 C 0.92907 0.87773 0.37463 0.0
C4146 C 0.93468 0.87685 0.36513 0.0
H4147 H 0.96041 0.84925 0.35154 0.0
H4148 H 0.95318 0.85609 0.36188 0.0
H4149 H 0.94729 0.84489 0.35509 0.0
H4150 H 0.92905 0.85085 0.35925 0.0
H4151 H 0.91931 0.85234 0.37593 0.0
H4152 H 0.40252 0.72457 0.53613 0.0
H4153 H 0.40767 0.71159 0.54961 0.0
H4154 H 0.37579 0.69885 0.54968 0.0
H4155 H 0.37063 0.7117 0.5362 0.0
H4156 H 0.39995 0.70758 0.56988 0.0
H4157 H 0.39373 0.67252 0.54366 0.0
H4158 H 0.39424 0.68599 0.53872 0.0
H4159 H 0.38223 0.68088 0.54458 0.0
C4160 C 0.3966 0.71906 0.53909 0.0
C4161 C 0.3862 0.71906 0.53502 0.0
C4162 C 0.39955 0.71163 0.54676 0.0
C4163 C 0.39217 0.70411 0.55046 0.0
C4164 C 0.38169 0.70439 0.54671 0.0
H4165 H 0.38766 0.65416 0.59592 0.0
H4166 H 0.3851 0.66847 0.58317 0.0
C4167 C 0.37875 0.71175 0.53903 0.0
C4168 C 0.39537 0.69588 0.55819 0.0
H4169 H 0.39565 0.66894 0.56208 0.0
C4170 C 0.39913 0.69913 0.56815 0.0
C4171 C 0.39437 0.68485 0.55587 0.0
C4172 C 0.39103 0.68084 0.54509 0.0
C4173 C 0.4015 0.69163 0.57602 0.0
C4174 C 0.4001 0.68065 0.5738 0.0
C4175 C 0.39662 0.67739 0.56376 0.0
C4176 C 0.40179 0.67238 0.5819 0.0
C4177 C 0.40513 0.69547 0.58675 0.0
C4178 C 0.41205 0.66986 0.5854 0.0
C4179 C 0.41356 0.66158 0.59261 0.0
C4180 C 0.40484 0.65568 0.59642 0.0
C4181 C 0.39457 0.6584 0.59301 0.0
C4182 C 0.39307 0.66662 0.58578 0.0
H4183 H 0.40443 0.70427 0.58765 0.0
H4184 H 0.4004 0.69157 0.59306 0.0
H4185 H 0.41357 0.69325 0.58791 0.0
H4186 H 0.41888 0.67415 0.58237 0.0
H4187 H 0.42158 0.65962 0.59497 0.0
H4188 H 0.56734 0.12839 0.7953 0.0
H4189 H 0.57201 0.12871 0.81404 0.0
H4190 H 0.55272 0.15672 0.81866 0.0
H4191 H 0.54805 0.15649 0.79985 0.0
H4192 H 0.58258 0.1458 0.82397 0.0
H4193 H 0.54383 0.13701 0.84328 0.0
H4194 H 0.54633 0.13419 0.82948 0.0
H4195 H 0.54377 0.14762 0.83377 0.0
C4196 C 0.56404 0.13459 0.80031 0.0
C4197 C 0.55738 0.14246 0.79608 0.0
C4198 C 0.56668 0.13473 0.81102 0.0
C4199 C 0.56267 0.1427 0.81774 0.0
C4200 C 0.55576 0.1504 0.81364 0.0
H4201 H 0.59282 0.15828 0.87821 0.0
H4202 H 0.58412 0.15979 0.86097 0.0
C4203 C 0.5531 0.15026 0.8029 0.0
C4204 C 0.56637 0.14332 0.82884 0.0
H4205 H 0.55827 0.14131 0.85454 0.0
C4206 C 0.57726 0.14486 0.83066 0.0
C4207 C 0.55941 0.14204 0.83753 0.0
C4208 C 0.54769 0.14004 0.83598 0.0
C4209 C 0.58142 0.14506 0.84094 0.0
C4210 C 0.57446 0.14385 0.84964 0.0
C4211 C 0.56355 0.14236 0.84784 0.0
C4212 C 0.57854 0.14343 0.8606 0.0
C4213 C 0.59327 0.14623 0.84239 0.0
C4214 C 0.57791 0.13387 0.86627 0.0
C4215 C 0.58281 0.13301 0.87613 0.0
C4216 C 0.58839 0.14171 0.88052 0.0
C4217 C 0.58855 0.15145 0.87506 0.0
C4218 C 0.58366 0.1523 0.86518 0.0
H4219 H 0.59768 0.1449 0.83488 0.0
H4220 H 0.59509 0.15443 0.84525 0.0
H4221 H 0.59623 0.14052 0.84837 0.0
H4222 H 0.57396 0.12696 0.86289 0.0
H4223 H 0.5824 0.12546 0.88022 0.0
H4224 H 0.13204 0.71735 0.47479 0.0
H4225 H 0.12737 0.70795 0.45839 0.0
H4226 H 0.09904 0.69562 0.47321 0.0
H4227 H 0.10347 0.70523 0.48949 0.0
H4228 H 0.12567 0.68629 0.45673 0.0
H4229 H 0.08785 0.70497 0.44458 0.0
H4230 H 0.09672 0.71108 0.45409 0.0
H4231 H 0.0877 0.70069 0.45809 0.0
C4232 C 0.12467 0.71286 0.47446 0.0
C4233 C 0.11814 0.71201 0.48345 0.0
C4234 C 0.12205 0.70746 0.46511 0.0
C4235 C 0.1128 0.70118 0.46454 0.0
C4236 C 0.1061 0.70058 0.47339 0.0
H4237 H 0.10093 0.6447 0.4279 0.0
H4238 H 0.10389 0.6584 0.44145 0.0
C4239 C 0.10872 0.70597 0.48274 0.0
C4240 C 0.1107 0.69439 0.45512 0.0
H4241 H 0.09177 0.68786 0.43681 0.0
C4242 C 0.11831 0.68673 0.45229 0.0
C4243 C 0.10114 0.69503 0.44928 0.0
C4244 C 0.09293 0.70346 0.45159 0.0
C4245 C 0.11646 0.67942 0.44406 0.0
C4246 C 0.10666 0.67967 0.43861 0.0
C4247 C 0.09922 0.6876 0.44112 0.0
C4248 C 0.10397 0.67156 0.43047 0.0
C4249 C 0.12498 0.67143 0.44129 0.0
C4250 C 0.10263 0.67449 0.41987 0.0
C4251 C 0.10094 0.66666 0.41209 0.0
C4252 C 0.10053 0.6558 0.41482 0.0
C4253 C 0.1014 0.65298 0.42553 0.0
C4254 C 0.10309 0.66079 0.43327 0.0
H4255 H 0.1329 0.67403 0.44423 0.0
H4256 H 0.12304 0.66367 0.44501 0.0
H4257 H 0.12547 0.67016 0.43261 0.0
H4258 H 0.10324 0.68278 0.41757 0.0
H4259 H 0.10036 0.66908 0.40391 0.0
H4260 H 0.53831 0.85958 0.70615 0.0
H4261 H 0.54261 0.85954 0.68721 0.0
H4262 H 0.57595 0.8575 0.69466 0.0
H4263 H 0.57177 0.85759 0.71347 0.0
H4264 H 0.55519 0.87381 0.67585 0.0
H4265 H 0.57205 0.83318 0.67348 0.0
H4266 H 0.56409 0.83763 0.68453 0.0
H4267 H 0.578 0.84095 0.68387 0.0
C4268 C 0.54655 0.85912 0.70374 0.0
C4269 C 0.55469 0.85845 0.71132 0.0
C4270 C 0.54898 0.85905 0.69292 0.0
C4271 C 0.55958 0.85827 0.68954 0.0
C4272 C 0.5677 0.85778 0.69709 0.0
H4273 H 0.60052 0.86883 0.63851 0.0
H4274 H 0.59079 0.86591 0.65498 0.0
C4275 C 0.56529 0.85784 0.70785 0.0
C4276 C 0.56234 0.85841 0.67814 0.0
H4277 H 0.5772 0.8453 0.6596 0.0
C4278 C 0.55979 0.86747 0.67221 0.0
C4279 C 0.56828 0.8501 0.67339 0.0
C4280 C 0.57067 0.83987 0.67912 0.0
C4281 C 0.56365 0.86875 0.66186 0.0
C4282 C 0.57017 0.86074 0.6574 0.0
C4283 C 0.57224 0.85144 0.66311 0.0
C4284 C 0.57583 0.86239 0.64731 0.0
C4285 C 0.56126 0.87886 0.65595 0.0
C4286 C 0.5706 0.86129 0.63757 0.0
C4287 C 0.57616 0.86295 0.62811 0.0
C4288 C 0.58698 0.86581 0.62831 0.0
C4289 C 0.59216 0.8668 0.63811 0.0
C4290 C 0.58663 0.86508 0.64751 0.0
H4291 H 0.55628 0.88446 0.66064 0.0
H4292 H 0.5688 0.88295 0.65381 0.0
H4293 H 0.55705 0.87688 0.64848 0.0
H4294 H 0.56226 0.85917 0.6373 0.0
H4295 H 0.57198 0.86216 0.62067 0.0
H4296 H 0.39075 0.31888 0.99146 0.0
H4297 H 0.3964 0.32794 0.97539 0.0
H4298 H 0.39195 0.29884 0.95752 0.0
H4299 H 0.38588 0.28977 0.97356 0.0
H4300 H 0.4131 0.32361 0.96163 0.0
H4301 H 0.37407 0.32036 0.9412 0.0
H4302 H 0.3756 0.31769 0.95511 0.0
H4303 H 0.37977 0.30799 0.94546 0.0
C4304 C 0.39086 0.31441 0.9841 0.0
C4305 C 0.38771 0.30363 0.98377 0.0
C4306 C 0.39418 0.31959 0.97494 0.0
C4307 C 0.39444 0.31411 0.96524 0.0
C4308 C 0.39162 0.30326 0.9649 0.0
H4309 H 0.40657 0.34238 0.90298 0.0
H4310 H 0.40449 0.32918 0.91708 0.0
C4311 C 0.38826 0.29807 0.97409 0.0
C4312 C 0.39754 0.31992 0.95553 0.0
H4313 H 0.38782 0.32918 0.93213 0.0
C4314 C 0.40761 0.32476 0.95513 0.0
C4315 C 0.39036 0.32138 0.94706 0.0
C4316 C 0.37931 0.31666 0.9472 0.0
C4317 C 0.41062 0.33121 0.9466 0.0
C4318 C 0.40331 0.33296 0.93832 0.0
C4319 C 0.3934 0.3278 0.93851 0.0
C4320 C 0.40545 0.34075 0.92982 0.0
C4321 C 0.42156 0.33617 0.94656 0.0
C4322 C 0.40669 0.35161 0.93232 0.0
C4323 C 0.40786 0.35914 0.92432 0.0
C4324 C 0.4078 0.35596 0.91364 0.0
C4325 C 0.40677 0.34505 0.91114 0.0
C4326 C 0.40553 0.33751 0.91917 0.0
H4327 H 0.42715 0.33168 0.95165 0.0
H4328 H 0.42485 0.33651 0.93842 0.0
H4329 H 0.42105 0.34444 0.9497 0.0
H4330 H 0.40646 0.3543 0.94048 0.0
H4331 H 0.40871 0.36748 0.92649 0.0
H4332 H 0.9543 0.15462 0.21022 0.0
H4333 H 0.9463 0.15491 0.19265 0.0
H4334 H 0.96944 0.13214 0.18154 0.0
H4335 H 0.9772 0.13141 0.19924 0.0
H4336 H 0.95393 0.15981 0.17284 0.0
H4337 H 0.94144 0.11728 0.17488 0.0
H4338 H 0.94635 0.12452 0.18624 0.0
H4339 H 0.95545 0.11951 0.17645 0.0
C4340 C 0.95766 0.14961 0.20406 0.0
C4341 C 0.96629 0.14286 0.2062 0.0
C4342 C 0.95314 0.14987 0.19399 0.0
C4343 C 0.95715 0.1434 0.18584 0.0
C4344 C 0.96609 0.13704 0.18778 0.0
H4345 H 0.93354 0.14718 0.12043 0.0
H4346 H 0.94502 0.14839 0.13608 0.0
C4347 C 0.97058 0.13673 0.19788 0.0
C4348 C 0.95163 0.14301 0.17549 0.0
H4349 H 0.9376 0.1264 0.15914 0.0
C4350 C 0.9504 0.1525 0.1698 0.0
C4351 C 0.94694 0.13348 0.17162 0.0
C4352 C 0.94751 0.12313 0.17764 0.0
C4353 C 0.94448 0.15276 0.16039 0.0
C4354 C 0.93984 0.14321 0.1565 0.0
C4355 C 0.94122 0.13369 0.16211 0.0
C4356 C 0.93294 0.14297 0.14701 0.0
C4357 C 0.94292 0.16329 0.15492 0.0
C4358 C 0.9224 0.13941 0.14795 0.0
C4359 C 0.9159 0.13863 0.13906 0.0
C4360 C 0.9198 0.14138 0.12902 0.0
C4361 C 0.93031 0.14511 0.12809 0.0
C4362 C 0.93685 0.14583 0.13702 0.0
H4363 H 0.94489 0.17016 0.16017 0.0
H4364 H 0.94821 0.16368 0.1479 0.0
H4365 H 0.93459 0.16414 0.15217 0.0
H4366 H 0.91921 0.13719 0.15559 0.0
H4367 H 0.90779 0.13587 0.14004 0.0
H4368 H 0.01879 0.1066 0.30121 0.0
H4369 H 0.0341 0.10087 0.3117 0.0
H4370 H 0.04285 0.13374 0.3171 0.0
H4371 H 0.02767 0.13954 0.30658 0.0
H4372 H 0.05699 0.10582 0.31035 0.0
H4373 H 0.0377 0.12084 0.34702 0.0
H4374 H 0.03048 0.11866 0.33486 0.0
H4375 H 0.03851 0.13043 0.33655 0.0
C4376 C 0.0241 0.1126 0.30446 0.0
C4377 C 0.02195 0.12353 0.30318 0.0
C4378 C 0.03281 0.10931 0.31047 0.0
C4379 C 0.03947 0.11689 0.3153 0.0
C4380 C 0.03767 0.12778 0.31358 0.0
H4381 H 0.0907 0.12069 0.35914 0.0
H4382 H 0.07687 0.12327 0.34591 0.0
C4383 C 0.02899 0.13107 0.30759 0.0
C4384 C 0.04794 0.11354 0.32264 0.0
H4385 H 0.0558 0.1158 0.34836 0.0
C4386 C 0.05672 0.1079 0.31868 0.0
C4387 C 0.04748 0.1162 0.33351 0.0
C4388 C 0.038 0.12178 0.33829 0.0
C4389 C 0.06531 0.10527 0.32527 0.0
C4390 C 0.06498 0.10825 0.33607 0.0
C4391 C 0.05605 0.1136 0.34006 0.0
C4392 C 0.07398 0.10642 0.34335 0.0
C4393 C 0.07482 0.09968 0.32058 0.0
C4394 C 0.07702 0.09607 0.34622 0.0
C4395 C 0.08493 0.09456 0.35384 0.0
C4396 C 0.08983 0.10339 0.35877 0.0
C4397 C 0.08694 0.11372 0.35563 0.0
C4398 C 0.07909 0.11522 0.34803 0.0
H4399 H 0.07468 0.09972 0.3118 0.0
H4400 H 0.0823 0.10352 0.32333 0.0
H4401 H 0.07488 0.09126 0.32324 0.0
H4402 H 0.07305 0.08918 0.34281 0.0
H4403 H 0.08694 0.08651 0.35615 0.0
H4404 H 0.12956 0.81544 0.52754 0.0
H4405 H 0.13066 0.83345 0.53502 0.0
H4406 H 0.15472 0.82299 0.55682 0.0
H4407 H 0.15407 0.80514 0.54906 0.0
H4408 H 0.12579 0.83895 0.55474 0.0
H4409 H 0.16743 0.85072 0.54714 0.0
H4410 H 0.16125 0.83945 0.5406 0.0
H4411 H 0.16668 0.83811 0.5537 0.0
C4412 C 0.1353 0.81704 0.53373 0.0
C4413 C 0.14171 0.80882 0.53771 0.0
C4414 C 0.13586 0.82733 0.53804 0.0
C4415 C 0.14287 0.82962 0.54639 0.0
C4416 C 0.14943 0.8215 0.55023 0.0
H4417 H 0.13562 0.87398 0.59723 0.0
H4418 H 0.13624 0.85887 0.58498 0.0
C4419 C 0.14892 0.81123 0.54588 0.0
C4420 C 0.14261 0.84018 0.55178 0.0
H4421 H 0.15842 0.86037 0.56108 0.0
C4422 C 0.13291 0.84371 0.55598 0.0
C4423 C 0.15185 0.84649 0.55328 0.0
C4424 C 0.16236 0.84355 0.54833 0.0
C4425 C 0.13228 0.85308 0.56206 0.0
C4426 C 0.14165 0.85896 0.56421 0.0
C4427 C 0.15127 0.85575 0.55957 0.0
C4428 C 0.14168 0.86815 0.57164 0.0
C4429 C 0.12157 0.85655 0.5662 0.0
C4430 C 0.14493 0.87833 0.56833 0.0
C4431 C 0.14463 0.887 0.57536 0.0
C4432 C 0.14109 0.88562 0.58581 0.0
C4433 C 0.13815 0.87535 0.58917 0.0
C4434 C 0.13849 0.86671 0.58217 0.0
H4435 H 0.115 0.85327 0.56127 0.0
H4436 H 0.1205 0.85351 0.57435 0.0
H4437 H 0.12092 0.86538 0.56642 0.0
H4438 H 0.1475 0.87959 0.56025 0.0
H4439 H 0.14693 0.89483 0.57255 0.0
H4440 H 0.48835 0.87853 0.80695 0.0
H4441 H 0.47437 0.88356 0.81939 0.0
H4442 H 0.45975 0.903 0.79552 0.0
H4443 H 0.47385 0.89814 0.783 0.0
H4444 H 0.46867 0.90464 0.82622 0.0
H4445 H 0.43552 0.88308 0.80616 0.0
H4446 H 0.4493 0.88025 0.80336 0.0
H4447 H 0.44323 0.89203 0.79815 0.0
C4448 C 0.48223 0.88396 0.80435 0.0
C4449 C 0.48225 0.88797 0.79398 0.0
C4450 C 0.47422 0.88678 0.81146 0.0
C4451 C 0.46601 0.89359 0.80835 0.0
C4452 C 0.46595 0.89762 0.79802 0.0
H4453 H 0.42119 0.92107 0.85448 0.0
H4454 H 0.43391 0.91927 0.83985 0.0
C4455 C 0.47399 0.89481 0.79088 0.0
C4456 C 0.45759 0.89647 0.81603 0.0
H4457 H 0.43135 0.89259 0.82174 0.0
C4458 C 0.46048 0.90211 0.82521 0.0
C4459 C 0.44695 0.89306 0.81469 0.0
C4460 C 0.44351 0.8867 0.80511 0.0
C4461 C 0.45304 0.90427 0.83321 0.0
C4462 C 0.44242 0.90079 0.83192 0.0
C4463 C 0.43949 0.89531 0.82265 0.0
C4464 C 0.43445 0.90203 0.84045 0.0
C4465 C 0.45668 0.9099 0.84316 0.0
C4466 C 0.4304 0.89293 0.84546 0.0
C4467 C 0.42315 0.89392 0.85375 0.0
C4468 C 0.41975 0.90405 0.85718 0.0
C4469 C 0.42365 0.91316 0.852 0.0
C4470 C 0.43096 0.91216 0.8437 0.0
H4471 H 0.46547 0.91037 0.84369 0.0
H4472 H 0.4535 0.91815 0.84327 0.0
H4473 H 0.4536 0.90575 0.85027 0.0
H4474 H 0.43296 0.88504 0.84302 0.0
H4475 H 0.42014 0.88674 0.85744 0.0
H4476 H 0.38449 0.20014 0.02946 0.0
H4477 H 0.38402 0.18207 0.03667 0.0
H4478 H 0.35198 0.18722 0.04763 0.0
H4479 H 0.3523 0.20521 0.04024 0.0
H4480 H 0.38078 0.17761 0.05818 0.0
H4481 H 0.35023 0.15769 0.03326 0.0
H4482 H 0.35681 0.16989 0.02939 0.0
H4483 H 0.34617 0.17024 0.03887 0.0
C4484 C 0.37726 0.19735 0.0332 0.0
C4485 C 0.36843 0.20411 0.03428 0.0
C4486 C 0.37703 0.18704 0.03735 0.0
C4487 C 0.36793 0.18327 0.04257 0.0
C4488 C 0.35902 0.1899 0.04347 0.0
H4489 H 0.35171 0.12969 0.08192 0.0
H4490 H 0.35171 0.14534 0.07043 0.0
C4491 C 0.35926 0.20022 0.03935 0.0
C4492 C 0.36806 0.17275 0.04784 0.0
H4493 H 0.35552 0.14855 0.04885 0.0
C4494 C 0.37534 0.17121 0.05607 0.0
C4495 C 0.36089 0.16446 0.04511 0.0
C4496 C 0.35314 0.16558 0.03611 0.0
C4497 C 0.37546 0.1617 0.06186 0.0
C4498 C 0.36827 0.15341 0.05917 0.0
C4499 C 0.36105 0.15491 0.05087 0.0
C4500 C 0.36793 0.14328 0.06516 0.0
C4501 C 0.38305 0.16079 0.07105 0.0
C4502 C 0.37693 0.13673 0.0657 0.0
C4503 C 0.37696 0.12782 0.07228 0.0
C4504 C 0.36795 0.12522 0.07833 0.0
C4505 C 0.35875 0.13145 0.07731 0.0
C4506 C 0.35875 0.14041 0.07077 0.0
H4507 H 0.38604 0.16872 0.07369 0.0
H4508 H 0.37918 0.15681 0.07787 0.0
H4509 H 0.38998 0.15593 0.0686 0.0
H4510 H 0.38402 0.13866 0.06123 0.0
H4511 H 0.38411 0.12306 0.07279 0.0
H4512 H 0.03865 0.88245 0.22176 0.0
H4513 H 0.05263 0.88781 0.20939 0.0
H4514 H 0.0289 0.89488 0.18591 0.0
H4515 H 0.01491 0.89002 0.19834 0.0
H4516 H 0.05724 0.87887 0.19033 0.0
H4517 H 0.04711 0.92142 0.18482 0.0
H4518 H 0.04159 0.91353 0.1954 0.0
H4519 H 0.03604 0.91271 0.1823 0.0
C4520 C 0.0364 0.88536 0.21404 0.0
C4521 C 0.02565 0.88581 0.21106 0.0
C4522 C 0.0444 0.88835 0.20696 0.0
C4523 C 0.04181 0.8919 0.19678 0.0
C4524 C 0.03109 0.89239 0.1938 0.0
H4525 H 0.07439 0.90317 0.13806 0.0
H4526 H 0.06162 0.90057 0.15247 0.0
C4527 C 0.0231 0.88945 0.20087 0.0
C4528 C 0.0503 0.89448 0.18905 0.0
H4529 H 0.05892 0.91372 0.17201 0.0
C4530 C 0.0577 0.88653 0.18643 0.0
C4531 C 0.05087 0.9045 0.18395 0.0
C4532 C 0.04354 0.91356 0.18683 0.0
C4533 C 0.06543 0.8882 0.1786 0.0
C4534 C 0.06581 0.8981 0.17333 0.0
C4535 C 0.05855 0.90612 0.17606 0.0
C4536 C 0.07354 0.90015 0.16476 0.0
C4537 C 0.07294 0.87926 0.17579 0.0
C4538 C 0.08444 0.90094 0.16695 0.0
C4539 C 0.09174 0.90243 0.15875 0.0
C4540 C 0.08826 0.90313 0.14822 0.0
C4541 C 0.07731 0.90255 0.14609 0.0
C4542 C 0.07001 0.90112 0.1543 0.0
H4543 H 0.07042 0.87154 0.17928 0.0
H4544 H 0.07349 0.87828 0.16707 0.0
H4545 H 0.08099 0.88124 0.17879 0.0
H4546 H 0.08729 0.90029 0.175 0.0
H4547 H 0.10013 0.90276 0.16063 0.0
H4548 H 0.37061 0.80776 0.47598 0.0
H4549 H 0.37106 0.82669 0.47121 0.0
H4550 H 0.35406 0.81949 0.44245 0.0
H4551 H 0.35372 0.80064 0.44702 0.0
H4552 H 0.38045 0.83522 0.45329 0.0
H4553 H 0.33764 0.84501 0.45432 0.0
H4554 H 0.34301 0.83328 0.46058 0.0
H4555 H 0.34033 0.83325 0.4466 0.0
C4556 C 0.36694 0.81021 0.46865 0.0
C4557 C 0.36208 0.80267 0.46191 0.0
C4558 C 0.36714 0.82104 0.46599 0.0
C4559 C 0.36241 0.82451 0.45658 0.0
C4560 C 0.35749 0.81703 0.44989 0.0
H4561 H 0.37533 0.87315 0.41295 0.0
H4562 H 0.37369 0.85734 0.42395 0.0
C4563 C 0.35731 0.80623 0.45252 0.0
C4564 C 0.36335 0.83579 0.45323 0.0
H4565 H 0.3488 0.85669 0.444 0.0
C4566 C 0.37353 0.84 0.45144 0.0
C4567 C 0.35433 0.84207 0.45096 0.0
C4568 C 0.34321 0.83822 0.45332 0.0
C4569 C 0.37492 0.85005 0.44682 0.0
C4570 C 0.36589 0.85597 0.4438 0.0
C4571 C 0.35571 0.85207 0.44621 0.0
C4572 C 0.36686 0.86571 0.43732 0.0
C4573 C 0.38604 0.85415 0.44495 0.0
C4574 C 0.3633 0.87563 0.4411 0.0
C4575 C 0.3643 0.88475 0.43483 0.0
C4576 C 0.36881 0.88406 0.42466 0.0
C4577 C 0.3721 0.87403 0.42085 0.0
C4578 C 0.37115 0.86497 0.42711 0.0
H4579 H 0.39184 0.85033 0.45034 0.0
H4580 H 0.38844 0.85226 0.4367 0.0
H4581 H 0.38648 0.86294 0.44607 0.0
H4582 H 0.35989 0.87632 0.44894 0.0
H4583 H 0.36171 0.89236 0.438 0.0
H4584 H 0.47031 0.12514 0.72362 0.0
H4585 H 0.45652 0.11964 0.71105 0.0
H4586 H 0.48029 0.11571 0.68677 0.0
H4587 H 0.49413 0.12077 0.69934 0.0
H4588 H 0.45105 0.1293 0.69245 0.0
H4589 H 0.46402 0.08783 0.68449 0.0
H4590 H 0.46901 0.0956 0.6955 0.0
H4591 H 0.47442 0.09744 0.68246 0.0
C4592 C 0.47262 0.12293 0.71565 0.0
C4593 C 0.48334 0.1234 0.7125 0.0
C4594 C 0.46472 0.11985 0.70847 0.0
C4595 C 0.46739 0.1171 0.69802 0.0
C4596 C 0.47806 0.11757 0.69485 0.0
H4597 H 0.4352 0.10525 0.63918 0.0
H4598 H 0.44784 0.10816 0.65364 0.0
C4599 C 0.48596 0.12062 0.70201 0.0
C4600 C 0.459 0.11427 0.69026 0.0
H4601 H 0.45146 0.09516 0.67236 0.0
C4602 C 0.45105 0.12178 0.68816 0.0
C4603 C 0.45903 0.10445 0.68466 0.0
C4604 C 0.46702 0.09582 0.68696 0.0
C4605 C 0.44336 0.11991 0.68033 0.0
C4606 C 0.44355 0.1102 0.67456 0.0
C4607 C 0.45137 0.1026 0.67679 0.0
C4608 C 0.4359 0.10797 0.66595 0.0
C4609 C 0.43528 0.12845 0.67804 0.0
C4610 C 0.42504 0.1067 0.66813 0.0
C4611 C 0.41781 0.10505 0.6599 0.0
C4612 C 0.42132 0.10464 0.64934 0.0
C4613 C 0.43224 0.10566 0.64722 0.0
C4614 C 0.43947 0.10726 0.65546 0.0
H4615 H 0.43746 0.13622 0.68174 0.0
H4616 H 0.43442 0.12959 0.66938 0.0
H4617 H 0.42744 0.12596 0.68122 0.0
H4618 H 0.42216 0.1071 0.6762 0.0
H4619 H 0.40943 0.10437 0.66178 0.0
H4620 H 0.15184 0.20651 0.95559 0.0
H4621 H 0.15223 0.18876 0.94752 0.0
H4622 H 0.12894 0.17776 0.97003 0.0
H4623 H 0.12812 0.19565 0.97785 0.0
H4624 H 0.15693 0.16888 0.95517 0.0
H4625 H 0.11492 0.17077 0.94188 0.0
H4626 H 0.12196 0.18228 0.94692 0.0
H4627 H 0.11674 0.17248 0.95586 0.0
C4628 C 0.14674 0.20035 0.95879 0.0
C4629 C 0.13982 0.20256 0.96727 0.0
C4630 C 0.14705 0.19018 0.95423 0.0
C4631 C 0.14047 0.182 0.95805 0.0
C4632 C 0.13393 0.18402 0.96682 0.0
H4633 H 0.1454 0.11561 0.93567 0.0
H4634 H 0.14597 0.13174 0.94676 0.0
C4635 C 0.13356 0.19422 0.97136 0.0
C4636 C 0.14025 0.17151 0.95255 0.0
H4637 H 0.1241 0.15475 0.93844 0.0
C4638 C 0.14975 0.16575 0.95155 0.0
C4639 C 0.13089 0.16753 0.94772 0.0
C4640 C 0.12056 0.17361 0.94804 0.0
C4641 C 0.15017 0.15615 0.94576 0.0
C4642 C 0.14078 0.15212 0.94102 0.0
C4643 C 0.13127 0.15782 0.94214 0.0
C4644 C 0.14072 0.14232 0.93438 0.0
C4645 C 0.16072 0.15062 0.94445 0.0
C4646 C 0.13741 0.14289 0.92381 0.0
C4647 C 0.13698 0.13371 0.91752 0.0
C4648 C 0.13986 0.12376 0.92167 0.0
C4649 C 0.14326 0.1232 0.93223 0.0
C4650 C 0.14361 0.1324 0.93856 0.0
H4651 H 0.16749 0.15603 0.94633 0.0
H4652 H 0.16107 0.14374 0.94991 0.0
H4653 H 0.16172 0.14756 0.93625 0.0
H4654 H 0.13515 0.15047 0.92042 0.0
H4655 H 0.13446 0.13442 0.90937 0.0
H4656 H 0.29499 0.02174 0.10243 0.0
H4657 H 0.30542 0.03715 0.09649 0.0
H4658 H 0.30756 0.04857 0.12864 0.0
H4659 H 0.29708 0.03329 0.13464 0.0
H4660 H 0.30286 0.06034 0.09953 0.0
H4661 H 0.33883 0.04383 0.11874 0.0
H4662 H 0.32709 0.03589 0.11618 0.0
H4663 H 0.32745 0.04494 0.12726 0.0
C4664 C 0.2975 0.02765 0.1082 0.0
C4665 C 0.29532 0.02624 0.11902 0.0
C4666 C 0.30348 0.03642 0.1048 0.0
C4667 C 0.30739 0.04387 0.11215 0.0
C4668 C 0.30476 0.04279 0.12287 0.0
H4669 H 0.35055 0.09671 0.11427 0.0
H4670 H 0.33705 0.08304 0.11737 0.0
C4671 C 0.2988 0.03405 0.12628 0.0
C4672 C 0.31476 0.05243 0.1088 0.0
H4673 H 0.34013 0.06147 0.11225 0.0
C4674 C 0.31103 0.06059 0.10223 0.0
C4675 C 0.32543 0.05264 0.11228 0.0
C4676 C 0.33 0.04382 0.11893 0.0
C4677 C 0.31763 0.0692 0.09939 0.0
C4678 C 0.32821 0.06953 0.10312 0.0
C4679 C 0.33198 0.06123 0.10947 0.0
C4680 C 0.33551 0.07855 0.1009 0.0
C4681 C 0.31314 0.07803 0.09272 0.0
C4682 C 0.33901 0.08065 0.09057 0.0
C4683 C 0.34677 0.08848 0.08877 0.0
C4684 C 0.3512 0.09422 0.0973 0.0
C4685 C 0.3474 0.09231 0.10757 0.0
C4686 C 0.33966 0.08453 0.10934 0.0
H4687 H 0.30433 0.07769 0.09233 0.0
H4688 H 0.31558 0.08596 0.09589 0.0
H4689 H 0.31629 0.07729 0.08455 0.0
H4690 H 0.33604 0.07599 0.08396 0.0
H4691 H 0.34961 0.08974 0.08079 0.0
H4692 H 0.80386 0.4804 0.87259 0.0
H4693 H 0.81343 0.46492 0.87923 0.0
H4694 H 0.80435 0.4732 0.91112 0.0
H4695 H 0.79496 0.48892 0.90455 0.0
H4696 H 0.82589 0.46941 0.90886 0.0
H4697 H 0.80275 0.43652 0.8906 0.0
H4698 H 0.8067 0.44638 0.88115 0.0
H4699 H 0.79772 0.44996 0.89167 0.0
C4700 C 0.80385 0.4789 0.88102 0.0
C4701 C 0.79868 0.48591 0.88805 0.0
C4702 C 0.80921 0.46998 0.88479 0.0
C4703 C 0.80946 0.46782 0.89565 0.0
C4704 C 0.80416 0.47468 0.90269 0.0
H4705 H 0.85058 0.42016 0.9264 0.0
H4706 H 0.83656 0.4335 0.92393 0.0
C4707 C 0.79876 0.48361 0.89892 0.0
C4708 C 0.81598 0.45887 0.89963 0.0
H4709 H 0.8205 0.43223 0.89621 0.0
C4710 C 0.82461 0.46124 0.90627 0.0
C4711 C 0.81426 0.44822 0.89626 0.0
C4712 C 0.80479 0.44509 0.88961 0.0
C4713 C 0.83194 0.45334 0.90912 0.0
C4714 C 0.83049 0.4428 0.90533 0.0
C4715 C 0.8216 0.44034 0.89907 0.0
C4716 C 0.83859 0.43443 0.90697 0.0
C4717 C 0.84148 0.45645 0.91569 0.0
C4718 C 0.84418 0.43039 0.89824 0.0
C4719 C 0.85211 0.42279 0.89961 0.0
C4720 C 0.85461 0.41903 0.90975 0.0
C4721 C 0.84883 0.42291 0.91849 0.0
C4722 C 0.84088 0.43057 0.9171 0.0
H4723 H 0.84233 0.46524 0.91652 0.0
H4724 H 0.84065 0.45301 0.92371 0.0
H4725 H 0.84887 0.45321 0.91211 0.0
H4726 H 0.84248 0.43323 0.89034 0.0
H4727 H 0.85626 0.4198 0.89269 0.0
H4728 H 0.80375 0.56924 0.15099 0.0
H4729 H 0.82263 0.57352 0.14984 0.0
H4730 H 0.82741 0.5466 0.12897 0.0
H4731 H 0.80837 0.54249 0.12974 0.0
H4732 H 0.84084 0.56213 0.15457 0.0
H4733 H 0.83868 0.57166 0.1117 0.0
H4734 H 0.82696 0.56981 0.1197 0.0
H4735 H 0.83449 0.55846 0.11533 0.0
C4736 C 0.80879 0.56425 0.14609 0.0
C4737 C 0.80451 0.55564 0.1403 0.0
C4738 C 0.81961 0.56665 0.14553 0.0
C4739 C 0.8264 0.56048 0.13919 0.0
C4740 C 0.82227 0.55158 0.13377 0.0
H4741 H 0.89497 0.57675 0.13948 0.0
H4742 H 0.87855 0.56617 0.14086 0.0
C4743 C 0.81141 0.54918 0.13429 0.0
C4744 C 0.83764 0.56382 0.13795 0.0
H4745 H 0.85505 0.57444 0.12014 0.0
C4746 C 0.84402 0.56469 0.14702 0.0
C4747 C 0.84172 0.56723 0.1281 0.0
C4748 C 0.83511 0.56684 0.11814 0.0
C4749 C 0.85423 0.56925 0.14658 0.0
C4750 C 0.85819 0.57286 0.13677 0.0
C4751 C 0.85198 0.57161 0.12764 0.0
C4752 C 0.86824 0.57901 0.13595 0.0
C4753 C 0.86045 0.57066 0.15669 0.0
C4754 C 0.86789 0.58964 0.13261 0.0
C4755 C 0.8772 0.59565 0.1318 0.0
C4756 C 0.88709 0.59114 0.13426 0.0
C4757 C 0.88745 0.58046 0.13762 0.0
C4758 C 0.87809 0.57442 0.13841 0.0
H4759 H 0.8555 0.56916 0.16381 0.0
H4760 H 0.86717 0.56496 0.15673 0.0
H4761 H 0.86379 0.57886 0.15724 0.0
H4762 H 0.86037 0.59335 0.13073 0.0
H4763 H 0.87662 0.6039 0.12936 0.0
H4764 H 0.72629 0.53113 0.40339 0.0
H4765 H 0.7131 0.54468 0.40816 0.0
H4766 H 0.70323 0.54639 0.37558 0.0
H4767 H 0.71635 0.53287 0.37076 0.0
H4768 H 0.70976 0.56565 0.40111 0.0
H4769 H 0.67562 0.53934 0.39118 0.0
H4770 H 0.68899 0.53437 0.3925 0.0
H4771 H 0.68492 0.54082 0.38052 0.0
C4772 C 0.7214 0.53449 0.39723 0.0
C4773 C 0.72228 0.53085 0.38672 0.0
C4774 C 0.71384 0.5422 0.39997 0.0
C4775 C 0.70705 0.54637 0.39226 0.0
C4776 C 0.70822 0.54308 0.38169 0.0
H4777 H 0.65584 0.59112 0.38833 0.0
H4778 H 0.67045 0.57868 0.38542 0.0
C4779 C 0.71573 0.53536 0.37896 0.0
C4780 C 0.69857 0.55401 0.39523 0.0
H4781 H 0.67173 0.55766 0.39431 0.0
C4782 C 0.70144 0.56389 0.39971 0.0
C4783 C 0.68772 0.55164 0.39347 0.0
C4784 C 0.6841 0.54093 0.38925 0.0
C4785 C 0.69373 0.57163 0.40211 0.0
C4786 C 0.68292 0.56935 0.40007 0.0
C4787 C 0.68005 0.55939 0.3958 0.0
C4788 C 0.67442 0.57728 0.40198 0.0
C4789 C 0.69722 0.58229 0.40651 0.0
C4790 C 0.67182 0.5806 0.41227 0.0
C4791 C 0.66339 0.58766 0.41399 0.0
C4792 C 0.6574 0.59147 0.40543 0.0
C4793 C 0.66016 0.58821 0.39512 0.0
C4794 C 0.66855 0.58115 0.39343 0.0
H4795 H 0.70593 0.58352 0.40576 0.0
H4796 H 0.69308 0.58889 0.4024 0.0
H4797 H 0.6951 0.58276 0.41502 0.0
H4798 H 0.67616 0.57755 0.41899 0.0
H4799 H 0.66139 0.58991 0.42203 0.0
H4800 H 0.19095 0.97982 0.1404 0.0
H4801 H 0.17349 0.97107 0.14115 0.0
H4802 H 0.1876 0.94148 0.13083 0.0
H4803 H 0.20498 0.95012 0.12997 0.0
H4804 H 0.16204 0.96027 0.12498 0.0
H4805 H 0.17178 0.9332 0.158 0.0
H4806 H 0.17976 0.94475 0.15484 0.0
H4807 H 0.1812 0.93258 0.14736 0.0
C4808 C 0.19031 0.97146 0.13823 0.0
C4809 C 0.19938 0.96563 0.13524 0.0
C4810 C 0.18035 0.96648 0.13872 0.0
C4811 C 0.17931 0.95559 0.13626 0.0
C4812 C 0.18829 0.94983 0.13303 0.0
H4813 H 0.13302 0.90677 0.12772 0.0
H4814 H 0.14861 0.91835 0.1292 0.0
C4815 C 0.19822 0.95478 0.13255 0.0
C4816 C 0.16885 0.95018 0.13686 0.0
H4817 H 0.15625 0.92884 0.14795 0.0
C4818 C 0.16069 0.9535 0.1301 0.0
C4819 C 0.16712 0.94138 0.1436 0.0
C4820 C 0.17539 0.93782 0.15144 0.0
C4821 C 0.15102 0.94789 0.12952 0.0
C4822 C 0.14947 0.93883 0.13596 0.0
C4823 C 0.15749 0.93576 0.14299 0.0
C4824 C 0.13989 0.93201 0.13506 0.0
C4825 C 0.14271 0.95138 0.1217 0.0
C4826 C 0.12983 0.93584 0.13795 0.0
C4827 C 0.12087 0.92924 0.13708 0.0
C4828 C 0.12185 0.91871 0.13328 0.0
C4829 C 0.13197 0.9149 0.1305 0.0
C4830 C 0.1409 0.92147 0.13141 0.0
H4831 H 0.14586 0.95737 0.11605 0.0
H4832 H 0.13962 0.94442 0.11715 0.0
H4833 H 0.13594 0.95501 0.12603 0.0
H4834 H 0.12892 0.94391 0.14093 0.0
H4835 H 0.11317 0.93241 0.13924 0.0
H4836 H 0.20815 0.98632 0.63088 0.0
H4837 H 0.19543 0.97241 0.62596 0.0
H4838 H 0.21814 0.95901 0.60411 0.0
H4839 H 0.23091 0.97308 0.60882 0.0
H4840 H 0.18749 0.96786 0.60488 0.0
H4841 H 0.20842 0.93356 0.62315 0.0
H4842 H 0.21126 0.94724 0.62678 0.0
H4843 H 0.21612 0.94191 0.6145 0.0
C4844 C 0.21044 0.98048 0.62496 0.0
C4845 C 0.22055 0.98085 0.62021 0.0
C4846 C 0.20317 0.9725 0.6222 0.0
C4847 C 0.20587 0.96467 0.61473 0.0
C4848 C 0.21596 0.96493 0.61 0.0
H4849 H 0.15939 0.92081 0.58606 0.0
H4850 H 0.17399 0.93363 0.5885 0.0
C4851 C 0.22325 0.97295 0.61273 0.0
C4852 C 0.198 0.95636 0.61181 0.0
H4853 H 0.19241 0.9298 0.61418 0.0
C4854 C 0.18858 0.95952 0.60683 0.0
C4855 C 0.19945 0.94552 0.61446 0.0
C4856 C 0.20931 0.9418 0.62008 0.0
C4857 C 0.1805 0.95212 0.60451 0.0
C4858 C 0.18193 0.94129 0.60719 0.0
C4859 C 0.1914 0.93811 0.61208 0.0
C4860 C 0.1734 0.93327 0.60559 0.0
C4861 C 0.17034 0.95599 0.59953 0.0
C4862 C 0.16842 0.9287 0.61439 0.0
C4863 C 0.16012 0.9214 0.61303 0.0
C4864 C 0.1567 0.91846 0.60283 0.0
C4865 C 0.16187 0.9229 0.59401 0.0
C4866 C 0.17015 0.93026 0.59539 0.0
H4867 H 0.16977 0.96483 0.59964 0.0
H4868 H 0.17001 0.95324 0.59117 0.0
H4869 H 0.16333 0.95262 0.60369 0.0
H4870 H 0.17086 0.9309 0.62232 0.0
H4871 H 0.15642 0.91799 0.61997 0.0
H4872 H 0.80292 0.44418 0.38648 0.0
H4873 H 0.82173 0.43943 0.38623 0.0
H4874 H 0.82617 0.45768 0.35777 0.0
H4875 H 0.8073 0.46246 0.35794 0.0
H4876 H 0.83139 0.4281 0.36981 0.0
H4877 H 0.85128 0.46723 0.37657 0.0
H4878 H 0.83741 0.46499 0.37952 0.0
H4879 H 0.84164 0.46691 0.3661 0.0
C4880 C 0.80791 0.44724 0.38019 0.0
C4881 C 0.80361 0.45364 0.37219 0.0
C4882 C 0.81866 0.44456 0.38009 0.0
C4883 C 0.82535 0.44826 0.37202 0.0
C4884 C 0.82118 0.4549 0.36417 0.0
H4885 H 0.88505 0.41664 0.3565 0.0
H4886 H 0.86797 0.42579 0.35513 0.0
C4887 C 0.8104 0.45761 0.36428 0.0
C4888 C 0.83647 0.44445 0.37145 0.0
H4889 H 0.86241 0.4525 0.37259 0.0
C4890 C 0.83817 0.43344 0.37039 0.0
C4891 C 0.84528 0.45144 0.37227 0.0
C4892 C 0.84387 0.4633 0.37377 0.0
C4893 C 0.84845 0.42919 0.37018 0.0
C4894 C 0.85728 0.43617 0.37088 0.0
C4895 C 0.85561 0.4472 0.37193 0.0
C4896 C 0.86828 0.43202 0.37112 0.0
C4897 C 0.84978 0.41724 0.36952 0.0
C4898 C 0.8743 0.43291 0.3804 0.0
C4899 C 0.8841 0.42777 0.38118 0.0
C4900 C 0.88806 0.42168 0.37267 0.0
C4901 C 0.88226 0.42132 0.36317 0.0
C4902 C 0.87246 0.42646 0.3624 0.0
H4903 H 0.84225 0.41293 0.37126 0.0
H4904 H 0.85234 0.41499 0.36141 0.0
H4905 H 0.85597 0.4145 0.37512 0.0
H4906 H 0.87122 0.43721 0.3872 0.0
H4907 H 0.88845 0.42832 0.38855 0.0
H4908 H 0.69747 0.53513 0.88841 0.0
H4909 H 0.67956 0.54267 0.88841 0.0
H4910 H 0.68402 0.55312 0.85629 0.0
H4911 H 0.70183 0.54537 0.85613 0.0
H4912 H 0.67513 0.56431 0.88517 0.0
H4913 H 0.65456 0.53888 0.85542 0.0
H4914 H 0.66685 0.535 0.86163 0.0
H4915 H 0.66695 0.54445 0.85101 0.0
C4916 C 0.69456 0.53883 0.88127 0.0
C4917 C 0.70107 0.53965 0.87227 0.0
C4918 C 0.68435 0.54318 0.8813 0.0
C4919 C 0.68042 0.54834 0.87231 0.0
C4920 C 0.68682 0.549 0.86325 0.0
H4921 H 0.62635 0.58796 0.858 0.0
H4922 H 0.64211 0.57655 0.85737 0.0
C4923 C 0.69704 0.54468 0.86322 0.0
C4924 C 0.66998 0.55375 0.87269 0.0
H4925 H 0.64558 0.55467 0.86094 0.0
C4926 C 0.66862 0.56214 0.87995 0.0
C4927 C 0.66156 0.55094 0.8658 0.0
C4928 C 0.66248 0.54177 0.85808 0.0
C4929 C 0.65915 0.56799 0.88036 0.0
C4930 C 0.65072 0.56521 0.87347 0.0
C4931 C 0.65205 0.55677 0.86623 0.0
C4932 C 0.64058 0.57117 0.87352 0.0
C4933 C 0.6584 0.57732 0.88793 0.0
C4934 C 0.6343 0.57162 0.88269 0.0
C4935 C 0.62532 0.57813 0.88307 0.0
C4936 C 0.62239 0.58422 0.87426 0.0
C4937 C 0.62837 0.58331 0.8649 0.0
C4938 C 0.63739 0.57683 0.86454 0.0
H4939 H 0.66636 0.58003 0.89066 0.0
H4940 H 0.6543 0.58416 0.88422 0.0
H4941 H 0.65377 0.57489 0.89499 0.0
H4942 H 0.63648 0.56712 0.88963 0.0
H4943 H 0.62077 0.57855 0.89034 0.0
H4944 H 0.87606 0.71323 0.94922 0.0
H4945 H 0.8744 0.70897 0.93037 0.0
H4946 H 0.90594 0.69567 0.9304 0.0
H4947 H 0.90781 0.70023 0.94913 0.0
H4948 H 0.90139 0.70797 0.91229 0.0
H4949 H 0.86979 0.67799 0.92056 0.0
H4950 H 0.86717 0.69127 0.92532 0.0
H4951 H 0.87793 0.68377 0.93086 0.0
C4952 C 0.88272 0.70958 0.94517 0.0
C4953 C 0.89202 0.70695 0.95071 0.0
C4954 C 0.88171 0.70706 0.93443 0.0
C4955 C 0.88997 0.70183 0.92905 0.0
C4956 C 0.89945 0.69964 0.93443 0.0
H4957 H 0.90169 0.66873 0.87067 0.0
H4958 H 0.9031 0.67908 0.88706 0.0
C4959 C 0.90046 0.70217 0.94515 0.0
C4960 C 0.8886 0.6981 0.918 0.0
H4961 H 0.87464 0.68037 0.90279 0.0
C4962 C 0.89551 0.70199 0.91018 0.0
C4963 C 0.88093 0.69028 0.91529 0.0
C4964 C 0.87358 0.68549 0.92344 0.0
C4965 C 0.89496 0.69821 0.8997 0.0
C4966 C 0.88743 0.69023 0.89706 0.0
C4967 C 0.88038 0.68652 0.90483 0.0
C4968 C 0.88703 0.68513 0.88645 0.0
C4969 C 0.90242 0.70281 0.89157 0.0
C4970 C 0.87753 0.6851 0.88065 0.0
C4971 C 0.87669 0.67916 0.8713 0.0
C4972 C 0.88532 0.67308 0.8676 0.0
C4973 C 0.89495 0.67344 0.87323 0.0
C4974 C 0.89577 0.67937 0.88259 0.0
H4975 H 0.90535 0.71084 0.89398 0.0
H4976 H 0.90941 0.6975 0.89071 0.0
H4977 H 0.8985 0.70344 0.88374 0.0
H4978 H 0.87068 0.68946 0.88351 0.0
H4979 H 0.86921 0.67914 0.86708 0.0
H4980 H 0.0695 0.13715 0.75133 0.0
H4981 H 0.07946 0.14335 0.73598 0.0
H4982 H 0.05118 0.14116 0.71688 0.0
H4983 H 0.04111 0.1348 0.73225 0.0
H4984 H 0.08159 0.1313 0.71688 0.0
H4985 H 0.06367 0.17122 0.71015 0.0
H4986 H 0.06248 0.16434 0.7226 0.0
H4987 H 0.05464 0.16014 0.71148 0.0
C4988 C 0.06538 0.13797 0.74387 0.0
C4989 C 0.05453 0.13538 0.74298 0.0
C4990 C 0.07107 0.14159 0.73513 0.0
C4991 C 0.06605 0.14278 0.72533 0.0
C4992 C 0.05517 0.14045 0.72443 0.0
H4993 H 0.09464 0.15809 0.66414 0.0
H4994 H 0.08181 0.15467 0.67835 0.0
C4995 C 0.04943 0.13681 0.7332 0.0
C4996 C 0.07247 0.14575 0.71598 0.0
H4997 H 0.07692 0.1656 0.6981 0.0
C4998 C 0.08056 0.13879 0.71276 0.0
C4999 C 0.07102 0.15548 0.71058 0.0
C5000 C 0.06253 0.1633 0.71387 0.0
C5001 C 0.08734 0.14133 0.70435 0.0
C5002 C 0.08613 0.15121 0.69916 0.0
C5003 C 0.07785 0.15807 0.70217 0.0
C5004 C 0.09361 0.15457 0.69077 0.0
C5005 C 0.09573 0.13339 0.70106 0.0
C5006 C 0.10441 0.15603 0.69313 0.0
C5007 C 0.11172 0.15799 0.68506 0.0
C5008 C 0.10837 0.1586 0.67449 0.0
C5009 C 0.09745 0.15773 0.67222 0.0
C5010 C 0.09013 0.15574 0.68031 0.0
H5011 H 0.09383 0.12522 0.70389 0.0
H5012 H 0.09662 0.13313 0.69233 0.0
H5013 H 0.10347 0.13581 0.70453 0.0
H5014 H 0.10722 0.15536 0.70119 0.0
H5015 H 0.12005 0.15879 0.68707 0.0
H5016 H 0.63462 0.28643 0.44399 0.0
H5017 H 0.6337 0.29438 0.4264 0.0
H5018 H 0.60026 0.30028 0.43081 0.0
H5019 H 0.60111 0.29236 0.44842 0.0
H5020 H 0.62134 0.28954 0.40845 0.0
H5021 H 0.6123 0.32993 0.42443 0.0
H5022 H 0.61692 0.31922 0.43268 0.0
H5023 H 0.60328 0.31962 0.42854 0.0
C5024 C 0.62704 0.28929 0.44116 0.0
C5025 C 0.61796 0.28885 0.44764 0.0
C5026 C 0.62653 0.29386 0.43112 0.0
C5027 C 0.61695 0.29809 0.42738 0.0
C5028 C 0.60778 0.29728 0.43365 0.0
H5029 H 0.60361 0.33615 0.37138 0.0
H5030 H 0.60158 0.32464 0.38685 0.0
C5031 C 0.60828 0.29275 0.4437 0.0
C5032 C 0.61667 0.30364 0.41707 0.0
H5033 H 0.61243 0.32797 0.40588 0.0
C5034 C 0.61937 0.29794 0.40787 0.0
C5035 C 0.61409 0.31459 0.41635 0.0
C5036 C 0.61157 0.32125 0.42602 0.0
C5037 C 0.61956 0.30291 0.39795 0.0
C5038 C 0.61711 0.31388 0.39726 0.0
C5039 C 0.61424 0.31953 0.40643 0.0
C5040 C 0.61807 0.31987 0.38723 0.0
C5041 C 0.62231 0.29636 0.38828 0.0
C5042 C 0.628 0.32093 0.38229 0.0
C5043 C 0.62918 0.32747 0.37347 0.0
C5044 C 0.62046 0.33313 0.36944 0.0
C5045 C 0.61045 0.33181 0.37423 0.0
C5046 C 0.60929 0.32529 0.38309 0.0
H5047 H 0.62097 0.2877 0.38963 0.0
H5048 H 0.61755 0.29886 0.38135 0.0
H5049 H 0.63084 0.29754 0.38636 0.0
H5050 H 0.63492 0.31698 0.38547 0.0
H5051 H 0.63697 0.32827 0.3699 0.0
H5052 H 0.45449 0.8536 0.24366 0.0
H5053 H 0.44424 0.84892 0.22783 0.0
H5054 H 0.44381 0.88204 0.21878 0.0
H5055 H 0.45411 0.88675 0.2345 0.0
H5056 H 0.42447 0.85555 0.22304 0.0
H5057 H 0.45204 0.86788 0.19124 0.0
H5058 H 0.45625 0.86644 0.2048 0.0
H5059 H 0.44967 0.87842 0.20061 0.0
C5060 C 0.45229 0.85987 0.23823 0.0
C5061 C 0.45513 0.87054 0.2403 0.0
C5062 C 0.44647 0.85718 0.22919 0.0
C5063 C 0.4434 0.8651 0.22203 0.0
C5064 C 0.44634 0.87574 0.22402 0.0
H5065 H 0.39903 0.87324 0.17181 0.0
H5066 H 0.4123 0.87463 0.18587 0.0
C5067 C 0.45221 0.87843 0.23303 0.0
C5068 C 0.43644 0.86239 0.21293 0.0
H5069 H 0.43378 0.8654 0.18624 0.0
C5070 C 0.42657 0.85755 0.21497 0.0
C5071 C 0.4392 0.86499 0.2024 0.0
C5072 C 0.44992 0.86962 0.19961 0.0
C5073 C 0.41921 0.85565 0.20684 0.0
C5074 C 0.42184 0.8586 0.19639 0.0
C5075 C 0.4318 0.86318 0.19429 0.0
C5076 C 0.41409 0.85758 0.18765 0.0
C5077 C 0.40852 0.8509 0.20952 0.0
C5078 C 0.41081 0.84752 0.18393 0.0
C5079 C 0.40321 0.8467 0.1759 0.0
C5080 C 0.39874 0.85593 0.17151 0.0
C5081 C 0.4022 0.86599 0.17516 0.0
C5082 C 0.40982 0.8668 0.18313 0.0
H5083 H 0.40711 0.85063 0.21818 0.0
H5084 H 0.40206 0.85557 0.2058 0.0
H5085 H 0.40807 0.84263 0.20635 0.0
H5086 H 0.4141 0.84032 0.18727 0.0
H5087 H 0.40068 0.83885 0.17325 0.0
H5088 H 0.8759 0.30512 0.55672 0.0
H5089 H 0.87571 0.31105 0.57516 0.0
H5090 H 0.90909 0.30391 0.5778 0.0
H5091 H 0.90935 0.29801 0.55929 0.0
H5092 H 0.88101 0.30166 0.59442 0.0
H5093 H 0.90775 0.33574 0.58497 0.0
H5094 H 0.90152 0.32767 0.57485 0.0
H5095 H 0.91293 0.32277 0.5818 0.0
C5096 C 0.88316 0.30461 0.56128 0.0
C5097 C 0.89267 0.30119 0.55652 0.0
C5098 C 0.88304 0.30804 0.57181 0.0
C5099 C 0.89243 0.3081 0.57779 0.0
C5100 C 0.90181 0.30414 0.57325 0.0
H5101 H 0.89172 0.32737 0.64511 0.0
H5102 H 0.89459 0.31685 0.62892 0.0
C5103 C 0.90195 0.30077 0.56269 0.0
C5104 C 0.89244 0.31296 0.58851 0.0
H5105 H 0.90204 0.33423 0.60259 0.0
C5106 C 0.88567 0.30872 0.59626 0.0
C5107 C 0.89847 0.32224 0.59083 0.0
C5108 C 0.90551 0.32745 0.58267 0.0
C5109 C 0.88461 0.31365 0.60622 0.0
C5110 C 0.89059 0.32296 0.6085 0.0
C5111 C 0.89753 0.32705 0.60083 0.0
C5112 C 0.88907 0.32918 0.61839 0.0
C5113 C 0.87676 0.30913 0.61405 0.0
C5114 C 0.88527 0.33967 0.61781 0.0
C5115 C 0.88374 0.3457 0.62698 0.0
C5116 C 0.88598 0.34138 0.63697 0.0
C5117 C 0.88994 0.33092 0.63754 0.0
C5118 C 0.89148 0.32487 0.62831 0.0
H5119 H 0.87134 0.30318 0.61033 0.0
H5120 H 0.88115 0.30512 0.62049 0.0
H5121 H 0.87191 0.31559 0.61764 0.0
H5122 H 0.88343 0.34318 0.61023 0.0
H5123 H 0.88089 0.3538 0.62624 0.0
H5124 H 0.45168 0.14523 0.26231 0.0
H5125 H 0.43862 0.14963 0.27595 0.0
H5126 H 0.46105 0.14105 0.30014 0.0
H5127 H 0.47413 0.13638 0.28653 0.0
H5128 H 0.43116 0.13456 0.29179 0.0
H5129 H 0.44948 0.17111 0.30925 0.0
H5130 H 0.45284 0.16626 0.29618 0.0
H5131 H 0.458 0.15971 0.30763 0.0
C5132 C 0.45385 0.14424 0.27052 0.0
C5133 C 0.46395 0.14038 0.27331 0.0
C5134 C 0.4464 0.14683 0.2783 0.0
C5135 C 0.44891 0.14574 0.28903 0.0
C5136 C 0.45903 0.1421 0.29189 0.0
H5137 H 0.41198 0.15427 0.34664 0.0
H5138 H 0.4262 0.15178 0.33362 0.0
C5139 C 0.46649 0.13945 0.2841 0.0
C5140 C 0.4407 0.14781 0.29716 0.0
H5141 H 0.43401 0.16445 0.31757 0.0
C5142 C 0.43176 0.1411 0.29742 0.0
C5143 C 0.44157 0.1563 0.30452 0.0
C5144 C 0.45094 0.16383 0.3044 0.0
C5145 C 0.42367 0.14261 0.30491 0.0
C5146 C 0.42442 0.15123 0.31217 0.0
C5147 C 0.43342 0.15789 0.31197 0.0
C5148 C 0.41593 0.15343 0.32002 0.0
C5149 C 0.41451 0.13479 0.30513 0.0
C5150 C 0.40551 0.15548 0.31669 0.0
C5151 C 0.39738 0.15687 0.3241 0.0
C5152 C 0.39955 0.15637 0.33499 0.0
C5153 C 0.41008 0.15476 0.33831 0.0
C5154 C 0.4182 0.15329 0.33088 0.0
H5155 H 0.4166 0.12712 0.30122 0.0
H5156 H 0.41197 0.13313 0.31337 0.0
H5157 H 0.40767 0.13823 0.30083 0.0
H5158 H 0.40363 0.1559 0.30835 0.0
H5159 H 0.38938 0.15828 0.32132 0.0
H5160 H 0.63272 0.70836 0.05968 0.0
H5161 H 0.63267 0.70309 0.07829 0.0
H5162 H 0.5986 0.69961 0.07737 0.0
H5163 H 0.59855 0.70497 0.0588 0.0
H5164 H 0.62122 0.71112 0.0969 0.0
H5165 H 0.61014 0.66963 0.08538 0.0
H5166 H 0.61512 0.67921 0.07599 0.0
H5167 H 0.60159 0.67993 0.08047 0.0
C5168 C 0.62519 0.70669 0.06349 0.0
C5169 C 0.61564 0.70697 0.05773 0.0
C5170 C 0.62519 0.70365 0.07411 0.0
C5171 C 0.61565 0.70081 0.07912 0.0
C5172 C 0.60606 0.7016 0.07357 0.0
H5173 H 0.60283 0.66815 0.1381 0.0
H5174 H 0.60106 0.67828 0.12177 0.0
C5175 C 0.60605 0.70464 0.06296 0.0
C5176 C 0.61582 0.69636 0.08993 0.0
H5177 H 0.61139 0.67339 0.1036 0.0
C5178 C 0.61906 0.70289 0.0984 0.0
C5179 C 0.613 0.68561 0.09182 0.0
C5180 C 0.60984 0.67813 0.08295 0.0
C5181 C 0.61945 0.69895 0.10877 0.0
C5182 C 0.61672 0.68815 0.11064 0.0
C5183 C 0.61342 0.68167 0.10216 0.0
C5184 C 0.61755 0.68322 0.12124 0.0
C5185 C 0.62262 0.70641 0.11764 0.0
C5186 C 0.62737 0.68273 0.12643 0.0
C5187 C 0.62838 0.67704 0.13584 0.0
C5188 C 0.61961 0.67161 0.14018 0.0
C5189 C 0.60971 0.67236 0.13509 0.0
C5190 C 0.6087 0.67809 0.1257 0.0
H5191 H 0.62132 0.71489 0.11548 0.0
H5192 H 0.6181 0.70466 0.12497 0.0
H5193 H 0.63121 0.70539 0.11932 0.0
H5194 H 0.63436 0.68644 0.12303 0.0
H5195 H 0.6361 0.6767 0.13961 0.0
H5196 H 0.06952 0.87167 0.75937 0.0
H5197 H 0.07928 0.86573 0.77489 0.0
H5198 H 0.05057 0.86711 0.79347 0.0
H5199 H 0.0407 0.87321 0.77792 0.0
H5200 H 0.08075 0.87776 0.79418 0.0
H5201 H 0.06348 0.83726 0.80016 0.0
H5202 H 0.06249 0.8442 0.78772 0.0
H5203 H 0.05432 0.84814 0.79869 0.0
C5204 C 0.06526 0.87074 0.76675 0.0
C5205 C 0.05435 0.87302 0.76743 0.0
C5206 C 0.07084 0.86727 0.77559 0.0
C5207 C 0.06564 0.86592 0.7853 0.0
C5208 C 0.0547 0.86795 0.786 0.0
H5209 H 0.09449 0.84963 0.84624 0.0
H5210 H 0.08147 0.85342 0.83234 0.0
C5211 C 0.04908 0.87144 0.77712 0.0
C5212 C 0.07191 0.86303 0.79474 0.0
H5213 H 0.07659 0.84298 0.81229 0.0
C5214 C 0.07981 0.87018 0.79817 0.0
C5215 C 0.07059 0.85318 0.79997 0.0
C5216 C 0.06231 0.84518 0.79645 0.0
C5217 C 0.08656 0.86767 0.80659 0.0
C5218 C 0.08552 0.85765 0.81157 0.0
C5219 C 0.0774 0.85063 0.80839 0.0
C5220 C 0.09313 0.85425 0.81979 0.0
C5221 C 0.09477 0.87577 0.81006 0.0
C5222 C 0.10391 0.85309 0.81725 0.0
C5223 C 0.11133 0.85092 0.82512 0.0
C5224 C 0.1081 0.8498 0.8357 0.0
C5225 C 0.09721 0.85041 0.83815 0.0
C5226 C 0.08977 0.85261 0.83024 0.0
H5227 H 0.09267 0.88395 0.80747 0.0
H5228 H 0.09568 0.8758 0.81879 0.0
H5229 H 0.10255 0.87369 0.80649 0.0
H5230 H 0.10662 0.85411 0.80918 0.0
H5231 H 0.11964 0.85031 0.82297 0.0
H5232 H 0.95633 0.91001 0.70932 0.0
H5233 H 0.93883 0.91054 0.70095 0.0
H5234 H 0.93308 0.87798 0.71024 0.0
H5235 H 0.95057 0.87738 0.71862 0.0
H5236 H 0.93235 0.89765 0.68446 0.0
H5237 H 0.90547 0.89258 0.71886 0.0
H5238 H 0.9193 0.8962 0.72029 0.0
H5239 H 0.91556 0.88254 0.71785 0.0
C5240 C 0.95131 0.90298 0.70964 0.0
C5241 C 0.95485 0.89365 0.71462 0.0
C5242 C 0.9413 0.90332 0.70489 0.0
C5243 C 0.9346 0.89435 0.70508 0.0
C5244 C 0.93801 0.88508 0.71022 0.0
H5245 H 0.87686 0.87531 0.67326 0.0
H5246 H 0.89266 0.87676 0.68445 0.0
C5247 C 0.94802 0.88474 0.71499 0.0
C5248 C 0.92442 0.89443 0.6992 0.0
H5249 H 0.89764 0.89068 0.70178 0.0
C5250 C 0.92475 0.89623 0.68827 0.0
C5251 C 0.91452 0.89252 0.70417 0.0
C5252 C 0.91364 0.89095 0.71596 0.0
C5253 C 0.91548 0.89593 0.68212 0.0
C5254 C 0.9056 0.89395 0.68707 0.0
C5255 C 0.90524 0.89221 0.69802 0.0
C5256 C 0.8956 0.89337 0.68092 0.0
C5257 C 0.9164 0.89741 0.67031 0.0
C5258 C 0.89189 0.90231 0.67545 0.0
C5259 C 0.88291 0.9015 0.66899 0.0
C5260 C 0.87746 0.89172 0.66794 0.0
C5261 C 0.88098 0.8829 0.67377 0.0
C5262 C 0.88996 0.88373 0.68022 0.0
H5263 H 0.9247 0.8964 0.66749 0.0
H5264 H 0.91122 0.89164 0.66602 0.0
H5265 H 0.9138 0.90559 0.66826 0.0
H5266 H 0.89606 0.90987 0.67601 0.0
H5267 H 0.88045 0.90842 0.66456 0.0
H5268 H 0.85496 0.24235 0.46121 0.0
H5269 H 0.8503 0.22905 0.44774 0.0
H5270 H 0.86964 0.20576 0.46356 0.0
H5271 H 0.87438 0.21903 0.47705 0.0
H5272 H 0.86434 0.21881 0.43436 0.0
H5273 H 0.84187 0.18945 0.45832 0.0
H5274 H 0.84467 0.20284 0.46293 0.0
H5275 H 0.85473 0.19273 0.46358 0.0
C5276 C 0.85819 0.23438 0.46185 0.0
C5277 C 0.86507 0.23175 0.47019 0.0
C5278 C 0.85548 0.22678 0.45417 0.0
C5279 C 0.85953 0.21639 0.45471 0.0
C5280 C 0.86624 0.21367 0.46312 0.0
H5281 H 0.86786 0.17078 0.40412 0.0
H5282 H 0.86979 0.18412 0.41816 0.0
C5283 C 0.86896 0.22127 0.47082 0.0
C5284 C 0.85727 0.20862 0.4461 0.0
H5285 H 0.84695 0.18389 0.44096 0.0
C5286 C 0.86047 0.2112 0.43579 0.0
C5287 C 0.85212 0.19876 0.44797 0.0
C5288 C 0.84805 0.19579 0.45878 0.0
C5289 C 0.8589 0.20407 0.42734 0.0
C5290 C 0.85415 0.19403 0.42927 0.0
C5291 C 0.85068 0.19156 0.43952 0.0
C5292 C 0.8529 0.18593 0.42078 0.0
C5293 C 0.8623 0.20737 0.41638 0.0
C5294 C 0.84277 0.18236 0.41776 0.0
C5295 C 0.84163 0.17474 0.40969 0.0
C5296 C 0.85062 0.17053 0.40456 0.0
C5297 C 0.86077 0.17404 0.40774 0.0
C5298 C 0.86189 0.18164 0.41578 0.0
H5299 H 0.86315 0.21617 0.41575 0.0
H5300 H 0.87012 0.20375 0.41454 0.0
H5301 H 0.85651 0.20457 0.41035 0.0
H5302 H 0.83574 0.18555 0.42156 0.0
H5303 H 0.83371 0.17225 0.40739 0.0
H5304 H 0.55181 0.13278 0.20451 0.0
H5305 H 0.5706 0.13292 0.19948 0.0
H5306 H 0.56997 0.09867 0.19612 0.0
H5307 H 0.55122 0.09842 0.20126 0.0
H5308 H 0.58936 0.12133 0.20766 0.0
H5309 H 0.5782 0.11059 0.16636 0.0
H5310 H 0.56869 0.11559 0.17584 0.0
H5311 H 0.57308 0.102 0.17651 0.0
C5312 C 0.55572 0.12525 0.20293 0.0
C5313 C 0.54999 0.11559 0.20316 0.0
C5314 C 0.56645 0.12536 0.20003 0.0
C5315 C 0.5716 0.11582 0.19729 0.0
C5316 C 0.56607 0.10612 0.19806 0.0
H5317 H 0.6311 0.10437 0.16433 0.0
H5318 H 0.61471 0.10204 0.17444 0.0
C5319 C 0.55536 0.106 0.20096 0.0
C5320 C 0.5825 0.1161 0.19292 0.0
H5321 H 0.59643 0.11215 0.17009 0.0
C5322 C 0.59095 0.1193 0.19946 0.0
C5323 C 0.5845 0.11344 0.18222 0.0
C5324 C 0.57565 0.11029 0.17477 0.0
C5325 C 0.6014 0.11983 0.19557 0.0
C5326 C 0.60338 0.11731 0.18482 0.0
C5327 C 0.59492 0.11402 0.17834 0.0
C5328 C 0.61404 0.11842 0.17992 0.0
C5329 C 0.61023 0.12295 0.20304 0.0
C5330 C 0.61919 0.12837 0.17975 0.0
C5331 C 0.62863 0.1297 0.17408 0.0
C5332 C 0.63305 0.12113 0.16834 0.0
C5333 C 0.62802 0.1111 0.16877 0.0
C5334 C 0.6186 0.10977 0.17449 0.0
H5335 H 0.60804 0.12133 0.21139 0.0
H5336 H 0.61767 0.1186 0.20115 0.0
H5337 H 0.61181 0.13163 0.20233 0.0
H5338 H 0.61572 0.13522 0.18369 0.0
H5339 H 0.63236 0.1375 0.17401 0.0
H5340 H 0.6557 0.76916 0.96695 0.0
H5341 H 0.66012 0.78292 0.95404 0.0
H5342 H 0.63822 0.80451 0.96924 0.0
H5343 H 0.63371 0.79077 0.98217 0.0
H5344 H 0.64591 0.79193 0.9402 0.0
H5345 H 0.66474 0.82312 0.96533 0.0
H5346 H 0.66288 0.80955 0.96971 0.0
H5347 H 0.65197 0.81877 0.97001 0.0
C5348 C 0.65186 0.77686 0.96758 0.0
C5349 C 0.64432 0.77886 0.97556 0.0
C5350 C 0.65444 0.78472 0.96023 0.0
C5351 C 0.64958 0.79477 0.96074 0.0
C5352 C 0.64223 0.79689 0.96883 0.0
H5353 H 0.63928 0.83917 0.91029 0.0
H5354 H 0.63804 0.82624 0.92459 0.0
C5355 C 0.63965 0.78903 0.97621 0.0
C5356 C 0.65158 0.80269 0.95231 0.0
H5357 H 0.65996 0.82823 0.94781 0.0
C5358 C 0.64906 0.79984 0.94186 0.0
C5359 C 0.65579 0.81296 0.95447 0.0
C5360 C 0.6591 0.81628 0.96547 0.0
C5361 C 0.65036 0.80707 0.93355 0.0
C5362 C 0.65415 0.81748 0.93577 0.0
C5363 C 0.65697 0.82026 0.94616 0.0
C5364 C 0.65497 0.82564 0.92739 0.0
C5365 C 0.64769 0.80351 0.92244 0.0
C5366 C 0.66489 0.8298 0.92442 0.0
C5367 C 0.66564 0.83718 0.91619 0.0
C5368 C 0.65647 0.84054 0.91084 0.0
C5369 C 0.64652 0.83656 0.91407 0.0
C5370 C 0.64579 0.8292 0.92227 0.0
H5371 H 0.6475 0.79467 0.9217 0.0
H5372 H 0.63972 0.80656 0.9203 0.0
H5373 H 0.65353 0.80671 0.91668 0.0
H5374 H 0.67207 0.82717 0.92832 0.0
H5375 H 0.67342 0.84006 0.91386 0.0
H5376 H 0.95052 0.13215 0.79133 0.0
H5377 H 0.93292 0.13161 0.79957 0.0
H5378 H 0.93746 0.09847 0.80726 0.0
H5379 H 0.95505 0.09893 0.79903 0.0
H5380 H 0.91477 0.11859 0.7959 0.0
H5381 H 0.93157 0.11265 0.83603 0.0
H5382 H 0.93961 0.11673 0.82494 0.0
H5383 H 0.93574 0.10299 0.82635 0.0
C5384 C 0.94771 0.12471 0.79464 0.0
C5385 C 0.95422 0.11561 0.79462 0.0
C5386 C 0.93767 0.12443 0.79938 0.0
C5387 C 0.93398 0.11506 0.80419 0.0
C5388 C 0.94026 0.10585 0.80379 0.0
H5389 H 0.87895 0.10113 0.84339 0.0
H5390 H 0.89455 0.09969 0.83191 0.0
C5391 C 0.95031 0.10612 0.79909 0.0
C5392 C 0.92372 0.11504 0.80994 0.0
H5393 H 0.91289 0.11191 0.83448 0.0
C5394 C 0.91434 0.11713 0.80434 0.0
C5395 C 0.9232 0.11315 0.82094 0.0
C5396 C 0.93306 0.11134 0.82746 0.0
C5397 C 0.90442 0.11727 0.80945 0.0
C5398 C 0.90392 0.11542 0.82046 0.0
C5399 C 0.9133 0.11327 0.82603 0.0
C5400 C 0.89384 0.11601 0.82648 0.0
C5401 C 0.89455 0.11926 0.80301 0.0
C5402 C 0.88823 0.12564 0.82718 0.0
C5403 C 0.87929 0.12647 0.83369 0.0
C5404 C 0.87583 0.1177 0.83968 0.0
C5405 C 0.88133 0.10799 0.83877 0.0
C5406 C 0.89027 0.10717 0.83227 0.0
H5407 H 0.89591 0.11763 0.79447 0.0
H5408 H 0.88784 0.11423 0.80579 0.0
H5409 H 0.89223 0.12775 0.80389 0.0
H5410 H 0.89095 0.13261 0.82293 0.0
H5411 H 0.87518 0.13404 0.83416 0.0
H5412 H 0.63531 0.22689 0.53493 0.0
H5413 H 0.64161 0.21137 0.54487 0.0
H5414 H 0.65221 0.23219 0.57002 0.0
H5415 H 0.64611 0.24768 0.56016 0.0
H5416 H 0.6631 0.20679 0.55489 0.0
H5417 H 0.62948 0.21111 0.5831 0.0
H5418 H 0.62943 0.21708 0.57015 0.0
H5419 H 0.63694 0.22312 0.58069 0.0
C5420 C 0.63915 0.22816 0.5425 0.0
C5421 C 0.64006 0.2385 0.54684 0.0
C5422 C 0.64272 0.2193 0.54816 0.0
C5423 C 0.64723 0.22066 0.55822 0.0
C5424 C 0.64861 0.23098 0.56233 0.0
H5425 H 0.66512 0.18351 0.61174 0.0
H5426 H 0.66236 0.19728 0.59844 0.0
C5427 C 0.64507 0.23981 0.5567 0.0
C5428 C 0.64994 0.21135 0.5648 0.0
H5429 H 0.64309 0.19906 0.5878 0.0
C5430 C 0.6587 0.20501 0.56204 0.0
C5431 C 0.64413 0.20906 0.57408 0.0
C5432 C 0.63441 0.21538 0.57717 0.0
C5433 C 0.66205 0.19665 0.56861 0.0
C5434 C 0.65639 0.19456 0.57805 0.0
C5435 C 0.64747 0.20075 0.58061 0.0
C5436 C 0.65958 0.18615 0.58557 0.0
C5437 C 0.6718 0.19036 0.5656 0.0
C5438 C 0.65917 0.17531 0.5827 0.0
C5439 C 0.66076 0.16741 0.5903 0.0
C5440 C 0.66268 0.17024 0.60091 0.0
C5441 C 0.66355 0.1811 0.60365 0.0
C5442 C 0.66201 0.18897 0.59605 0.0
H5443 H 0.67655 0.19444 0.55941 0.0
H5444 H 0.67691 0.18903 0.57261 0.0
H5445 H 0.66932 0.18244 0.56246 0.0
H5446 H 0.65712 0.17296 0.5747 0.0
H5447 H 0.65992 0.15911 0.588 0.0
H5448 H 0.55727 0.87484 0.28792 0.0
H5449 H 0.57491 0.87486 0.29601 0.0
H5450 H 0.56973 0.90677 0.30783 0.0
H5451 H 0.55216 0.90694 0.29953 0.0
H5452 H 0.5906 0.90297 0.29901 0.0
H5453 H 0.57853 0.87251 0.32847 0.0
H5454 H 0.57615 0.86888 0.31491 0.0
H5455 H 0.56902 0.87983 0.32073 0.0
C5456 C 0.55995 0.88194 0.29208 0.0
C5457 C 0.55328 0.89087 0.29314 0.0
C5458 C 0.56999 0.88189 0.29678 0.0
C5459 C 0.57353 0.89075 0.30265 0.0
C5460 C 0.56709 0.89983 0.30339 0.0
H5461 H 0.62866 0.90487 0.34168 0.0
H5462 H 0.61273 0.90605 0.33066 0.0
C5463 C 0.55704 0.89988 0.2987 0.0
C5464 C 0.58378 0.89038 0.30835 0.0
H5465 H 0.5966 0.87761 0.32834 0.0
C5466 C 0.59194 0.89744 0.30543 0.0
C5467 C 0.58545 0.88318 0.31674 0.0
C5468 C 0.57681 0.87572 0.32049 0.0
C5469 C 0.60183 0.89735 0.31057 0.0
C5470 C 0.6035 0.89013 0.31896 0.0
C5471 C 0.59532 0.8831 0.32187 0.0
C5472 C 0.6136 0.88975 0.32494 0.0
C5473 C 0.61047 0.90481 0.30685 0.0
C5474 C 0.61932 0.88019 0.32546 0.0
C5475 C 0.62838 0.87948 0.33178 0.0
C5476 C 0.63186 0.88832 0.33776 0.0
C5477 C 0.62625 0.89797 0.33706 0.0
C5478 C 0.61716 0.89866 0.33075 0.0
H5479 H 0.60896 0.90766 0.29869 0.0
H5480 H 0.61077 0.91188 0.31216 0.0
H5481 H 0.61835 0.90087 0.30704 0.0
H5482 H 0.6167 0.87321 0.32106 0.0
H5483 H 0.6326 0.87197 0.33206 0.0
H5484 H 0.85159 0.77949 0.02759 0.0
H5485 H 0.84579 0.79358 0.03985 0.0
H5486 H 0.87806 0.79767 0.05058 0.0
H5487 H 0.88393 0.78378 0.03826 0.0
H5488 H 0.84848 0.79341 0.06231 0.0
H5489 H 0.86828 0.82833 0.04404 0.0
H5490 H 0.86603 0.81595 0.03697 0.0
H5491 H 0.87695 0.81718 0.04605 0.0
C5492 C 0.85746 0.78353 0.03244 0.0
C5493 C 0.86822 0.78054 0.03196 0.0
C5494 C 0.85413 0.79152 0.03947 0.0
C5495 C 0.86152 0.79674 0.04602 0.0
C5496 C 0.87226 0.79386 0.04547 0.0
H5497 H 0.86572 0.84015 0.09774 0.0
H5498 H 0.86799 0.82791 0.08285 0.0
C5499 C 0.87558 0.78585 0.0385 0.0
C5500 C 0.85801 0.80482 0.05386 0.0
H5501 H 0.86224 0.83055 0.06184 0.0
C5502 C 0.85134 0.80158 0.06215 0.0
C5503 C 0.86177 0.81546 0.05359 0.0
C5504 C 0.86857 0.81949 0.04463 0.0
C5505 C 0.84877 0.80856 0.07049 0.0
C5506 C 0.85282 0.81911 0.0704 0.0
C5507 C 0.85917 0.82245 0.06191 0.0
C5508 C 0.85121 0.82659 0.07939 0.0
C5509 C 0.84217 0.80444 0.07957 0.0
C5510 C 0.841 0.82999 0.08234 0.0
C5511 C 0.83966 0.83693 0.09097 0.0
C5512 C 0.84851 0.8406 0.09675 0.0
C5513 C 0.85872 0.8373 0.09361 0.0
C5514 C 0.86004 0.83038 0.08504 0.0
H5515 H 0.84158 0.79559 0.0795 0.0
H5516 H 0.84559 0.80705 0.08726 0.0
H5517 H 0.83402 0.80771 0.079 0.0
H5518 H 0.83409 0.82731 0.07797 0.0
H5519 H 0.8317 0.8393 0.09319 0.0
H5520 H 0.72852 0.94641 0.90117 0.0
H5521 H 0.72095 0.92833 0.90127 0.0
H5522 H 0.69235 0.94013 0.8868 0.0
H5523 H 0.69993 0.95807 0.88639 0.0
H5524 H 0.70202 0.92122 0.91105 0.0
H5525 H 0.70062 0.915 0.86767 0.0
H5526 H 0.70848 0.92542 0.87378 0.0
H5527 H 0.69444 0.92721 0.87183 0.0
C5528 C 0.72067 0.94511 0.8979 0.0
C5529 C 0.71483 0.95368 0.89376 0.0
C5530 C 0.71634 0.93481 0.89802 0.0
C5531 C 0.70616 0.93288 0.8939 0.0
C5532 C 0.7003 0.94141 0.88984 0.0
H5533 H 0.65882 0.88471 0.88852 0.0
H5534 H 0.66999 0.90066 0.8889 0.0
C5535 C 0.7046 0.95169 0.88973 0.0
C5536 C 0.70146 0.92203 0.89406 0.0
H5537 H 0.69002 0.90316 0.87811 0.0
C5538 C 0.69953 0.91717 0.90385 0.0
C5539 C 0.69827 0.91677 0.88465 0.0
C5540 C 0.70065 0.92131 0.87388 0.0
C5541 C 0.694 0.90743 0.9045 0.0
C5542 C 0.69044 0.90241 0.89511 0.0
C5543 C 0.69271 0.90708 0.88531 0.0
C5544 C 0.68375 0.89267 0.89525 0.0
C5545 C 0.6916 0.90281 0.91523 0.0
C5546 C 0.68781 0.88289 0.89871 0.0
C5547 C 0.68145 0.87369 0.89844 0.0
C5548 C 0.67096 0.87415 0.89464 0.0
C5549 C 0.66692 0.88403 0.89131 0.0
C5550 C 0.67327 0.89317 0.89157 0.0
H5551 H 0.69336 0.90855 0.92174 0.0
H5552 H 0.68312 0.90039 0.91575 0.0
H5553 H 0.69651 0.89559 0.91642 0.0
H5554 H 0.69594 0.88232 0.90145 0.0
H5555 H 0.68481 0.86619 0.90096 0.0
H5556 H 0.19165 0.54917 0.12306 0.0
H5557 H 0.18809 0.56828 0.12294 0.0
H5558 H 0.21755 0.57384 0.10639 0.0
H5559 H 0.22105 0.55458 0.10621 0.0
H5560 H 0.20019 0.58524 0.13128 0.0
H5561 H 0.19523 0.58852 0.08765 0.0
H5562 H 0.19518 0.57582 0.0943 0.0
H5563 H 0.20745 0.58285 0.0923 0.0
C5564 C 0.19735 0.55443 0.11932 0.0
C5565 C 0.20657 0.55034 0.11453 0.0
C5566 C 0.19534 0.56536 0.11932 0.0
C5567 C 0.20248 0.57246 0.11453 0.0
C5568 C 0.21185 0.56847 0.10998 0.0
H5569 H 0.1889 0.64158 0.10949 0.0
H5570 H 0.19879 0.62471 0.1085 0.0
C5571 C 0.21389 0.55749 0.10998 0.0
C5572 C 0.19989 0.58398 0.1143 0.0
H5573 H 0.19178 0.60387 0.09784 0.0
C5574 C 0.1985 0.58936 0.12396 0.0
C5575 C 0.19774 0.58935 0.10473 0.0
C5576 C 0.19889 0.58387 0.09413 0.0
C5577 C 0.1946 0.59982 0.12434 0.0
C5578 C 0.19193 0.60498 0.11481 0.0
C5579 C 0.19385 0.59985 0.10512 0.0
C5580 C 0.186 0.61515 0.1149 0.0
C5581 C 0.19302 0.60517 0.13494 0.0
C5582 C 0.1755 0.61524 0.11855 0.0
C5583 C 0.16983 0.62476 0.11901 0.0
C5584 C 0.17456 0.63443 0.11589 0.0
C5585 C 0.18502 0.63427 0.11193 0.0
C5586 C 0.19069 0.62467 0.11141 0.0
H5587 H 0.19785 0.60135 0.1412 0.0
H5588 H 0.19515 0.61377 0.13456 0.0
H5589 H 0.18453 0.60456 0.13724 0.0
H5590 H 0.17169 0.60793 0.12109 0.0
H5591 H 0.1617 0.62454 0.12184 0.0
H5592 H 0.23616 0.46072 0.8581 0.0
H5593 H 0.21993 0.45137 0.85257 0.0
H5594 H 0.2133 0.4434 0.88504 0.0
H5595 H 0.22934 0.45291 0.89064 0.0
H5596 H 0.21593 0.42964 0.8559 0.0
H5597 H 0.18465 0.45448 0.87449 0.0
H5598 H 0.19807 0.45923 0.87255 0.0
H5599 H 0.19495 0.4507 0.88351 0.0
C5600 C 0.23111 0.45717 0.86408 0.0
C5601 C 0.23403 0.45754 0.87481 0.0
C5602 C 0.22188 0.45179 0.8609 0.0
C5603 C 0.21535 0.44681 0.8684 0.0
C5604 C 0.21812 0.44736 0.87913 0.0
H5605 H 0.16417 0.4023 0.87234 0.0
H5606 H 0.17836 0.41541 0.87488 0.0
C5607 C 0.22735 0.45269 0.88231 0.0
C5608 C 0.20609 0.4403 0.86501 0.0
H5609 H 0.17947 0.43691 0.86895 0.0
C5610 C 0.20792 0.43131 0.8586 0.0
C5611 C 0.19568 0.4425 0.86858 0.0
C5612 C 0.19318 0.45231 0.87508 0.0
C5613 C 0.19968 0.42415 0.85608 0.0
C5614 C 0.18931 0.42618 0.85991 0.0
C5615 C 0.18743 0.43536 0.86604 0.0
C5616 C 0.18047 0.41853 0.8582 0.0
C5617 C 0.20224 0.41423 0.84975 0.0
C5618 C 0.17683 0.41605 0.84798 0.0
C5619 C 0.16878 0.40846 0.8465 0.0
C5620 C 0.16419 0.40326 0.85522 0.0
C5621 C 0.16768 0.406 0.86545 0.0
C5622 C 0.17572 0.41356 0.86692 0.0
H5623 H 0.21093 0.41274 0.84935 0.0
H5624 H 0.19829 0.40713 0.85321 0.0
H5625 H 0.19928 0.41518 0.84155 0.0
H5626 H 0.18028 0.41993 0.84116 0.0
H5627 H 0.16629 0.40652 0.83852 0.0
H5628 H 0.30633 0.45887 0.621 0.0
H5629 H 0.31384 0.44096 0.62024 0.0
H5630 H 0.28408 0.42857 0.60847 0.0
H5631 H 0.27655 0.44659 0.60894 0.0
H5632 H 0.30625 0.42266 0.63092 0.0
H5633 H 0.30631 0.41695 0.58723 0.0
H5634 H 0.30491 0.42992 0.59336 0.0
H5635 H 0.29389 0.42079 0.59315 0.0
C5636 C 0.30141 0.45238 0.6181 0.0
C5637 C 0.29086 0.45418 0.61494 0.0
C5638 C 0.3057 0.44213 0.61774 0.0
C5639 C 0.29956 0.43347 0.61418 0.0
C5640 C 0.289 0.43518 0.61109 0.0
H5641 H 0.31952 0.36652 0.60833 0.0
H5642 H 0.3088 0.38285 0.60808 0.0
C5643 C 0.28468 0.44546 0.61146 0.0
C5644 C 0.30423 0.42264 0.61402 0.0
H5645 H 0.3127 0.40272 0.59751 0.0
C5646 C 0.30761 0.41827 0.62363 0.0
C5647 C 0.30592 0.41691 0.60449 0.0
C5648 C 0.30265 0.42137 0.59394 0.0
C5649 C 0.3128 0.4084 0.62395 0.0
C5650 C 0.31483 0.40285 0.61439 0.0
C5651 C 0.31115 0.40703 0.60482 0.0
C5652 C 0.32133 0.39302 0.61417 0.0
C5653 C 0.31612 0.40402 0.63452 0.0
C5654 C 0.33197 0.39342 0.61742 0.0
C5655 C 0.33809 0.38417 0.61752 0.0
C5656 C 0.33372 0.37432 0.61434 0.0
C5657 C 0.32313 0.37399 0.6108 0.0
C5658 C 0.31699 0.38329 0.61069 0.0
H5659 H 0.31144 0.40759 0.6411 0.0
H5660 H 0.31515 0.39521 0.63473 0.0
H5661 H 0.32462 0.40593 0.6359 0.0
H5662 H 0.33553 0.40091 0.61989 0.0
H5663 H 0.34629 0.38475 0.62005 0.0
H5664 H 0.77802 0.05502 0.89341 0.0
H5665 H 0.79404 0.06428 0.88736 0.0
H5666 H 0.7874 0.05451 0.85528 0.0
H5667 H 0.77121 0.04541 0.86123 0.0
H5668 H 0.81216 0.05657 0.8755 0.0
H5669 H 0.78915 0.0876 0.8542 0.0
H5670 H 0.78312 0.07892 0.86385 0.0
H5671 H 0.7862 0.07394 0.85087 0.0
C5672 C 0.77997 0.05483 0.88506 0.0
C5673 C 0.7733 0.04957 0.87778 0.0
C5674 C 0.78915 0.06007 0.88163 0.0
C5675 C 0.7918 0.06019 0.87086 0.0
C5676 C 0.7854 0.05461 0.86361 0.0
H5677 H 0.84034 0.10038 0.84092 0.0
H5678 H 0.8267 0.08662 0.84356 0.0
C5679 C 0.77622 0.04934 0.86704 0.0
C5680 C 0.80105 0.06653 0.86726 0.0
H5681 H 0.80774 0.08924 0.85403 0.0
C5682 C 0.81122 0.06367 0.87073 0.0
C5683 C 0.79979 0.07575 0.86101 0.0
C5684 C 0.78898 0.07933 0.8573 0.0
C5685 C 0.82017 0.06989 0.86824 0.0
C5686 C 0.81885 0.07934 0.86233 0.0
C5687 C 0.80872 0.082 0.85856 0.0
C5688 C 0.82768 0.087 0.86064 0.0
C5689 C 0.83094 0.06631 0.872 0.0
C5690 C 0.83273 0.09178 0.86935 0.0
C5691 C 0.84052 0.09958 0.86787 0.0
C5692 C 0.84336 0.10286 0.85763 0.0
C5693 C 0.8384 0.09796 0.84889 0.0
C5694 C 0.83058 0.09014 0.85039 0.0
H5695 H 0.83113 0.05754 0.87325 0.0
H5696 H 0.83727 0.06848 0.86628 0.0
H5697 H 0.83275 0.07025 0.87968 0.0
H5698 H 0.83047 0.08966 0.87733 0.0
H5699 H 0.84428 0.1031 0.87477 0.0
H5700 H 0.79865 0.05478 0.37719 0.0
H5701 H 0.8036 0.0737 0.37745 0.0
H5702 H 0.80585 0.07295 0.41144 0.0
H5703 H 0.8008 0.05407 0.41129 0.0
H5704 H 0.79498 0.09246 0.38895 0.0
H5705 H 0.83611 0.08139 0.40054 0.0
H5706 H 0.82676 0.0718 0.39522 0.0
H5707 H 0.82564 0.07619 0.40872 0.0
C5708 C 0.79997 0.05869 0.38474 0.0
C5709 C 0.79946 0.05289 0.39422 0.0
C5710 C 0.80282 0.06949 0.38487 0.0
C5711 C 0.80523 0.07464 0.39445 0.0
C5712 C 0.80417 0.06905 0.40395 0.0
H5713 H 0.83789 0.13451 0.40741 0.0
H5714 H 0.82761 0.11805 0.40927 0.0
C5715 C 0.80132 0.05827 0.40384 0.0
C5716 C 0.80961 0.08562 0.39445 0.0
H5717 H 0.83239 0.09969 0.39915 0.0
C5718 C 0.80315 0.09408 0.39121 0.0
C5719 C 0.82026 0.08766 0.39739 0.0
C5720 C 0.82766 0.0788 0.40059 0.0
C5721 C 0.80705 0.1046 0.39092 0.0
C5722 C 0.81776 0.10662 0.39374 0.0
C5723 C 0.82417 0.09814 0.39706 0.0
C5724 C 0.82271 0.11734 0.39289 0.0
C5725 C 0.79965 0.11345 0.38774 0.0
C5726 C 0.82325 0.1225 0.38309 0.0
C5727 C 0.82902 0.13198 0.38203 0.0
C5728 C 0.83448 0.13643 0.39071 0.0
C5729 C 0.83367 0.1314 0.40059 0.0
C5730 C 0.82785 0.12194 0.40166 0.0
H5731 H 0.79121 0.11121 0.38908 0.0
H5732 H 0.80139 0.12092 0.39219 0.0
H5733 H 0.80067 0.11505 0.37918 0.0
H5734 H 0.81954 0.119 0.37616 0.0
H5735 H 0.82939 0.13571 0.37433 0.0
H5736 H 0.23004 0.55403 0.61939 0.0
H5737 H 0.21424 0.56439 0.62395 0.0
H5738 H 0.22139 0.56103 0.65709 0.0
H5739 H 0.23725 0.55068 0.6526 0.0
H5740 H 0.19635 0.55994 0.63626 0.0
H5741 H 0.21999 0.59334 0.65347 0.0
H5742 H 0.22593 0.58282 0.64568 0.0
H5743 H 0.22243 0.58054 0.65926 0.0
C5744 C 0.22817 0.55536 0.62766 0.0
C5745 C 0.23494 0.55161 0.63564 0.0
C5746 C 0.21916 0.56132 0.63024 0.0
C5747 C 0.21676 0.56365 0.64085 0.0
C5748 C 0.22324 0.55953 0.64885 0.0
H5749 H 0.16834 0.60576 0.66784 0.0
H5750 H 0.18205 0.59205 0.66567 0.0
C5751 C 0.23228 0.55362 0.64627 0.0
C5752 C 0.20766 0.57067 0.64346 0.0
H5753 H 0.20134 0.5948 0.65446 0.0
C5754 C 0.19743 0.56754 0.64027 0.0
C5755 C 0.20909 0.58059 0.64869 0.0
C5756 C 0.21996 0.5846 0.6519 0.0
C5757 C 0.18859 0.5741 0.64214 0.0
C5758 C 0.19006 0.58408 0.64722 0.0
C5759 C 0.20024 0.58711 0.65061 0.0
C5760 C 0.18126 0.59178 0.64859 0.0
C5761 C 0.17774 0.57027 0.6387 0.0
C5762 C 0.17631 0.59617 0.6397 0.0
C5763 C 0.16851 0.60398 0.64091 0.0
C5764 C 0.16554 0.60759 0.65104 0.0
C5765 C 0.1704 0.60307 0.65994 0.0
C5766 C 0.17825 0.59528 0.65872 0.0
H5767 H 0.1775 0.56147 0.63766 0.0
H5768 H 0.17156 0.57264 0.64453 0.0
H5769 H 0.17574 0.57395 0.631 0.0
H5770 H 0.17865 0.59372 0.63181 0.0
H5771 H 0.16484 0.60724 0.6339 0.0
H5772 H 0.2833 0.46144 0.11801 0.0
H5773 H 0.29744 0.44911 0.12296 0.0
H5774 H 0.29671 0.46135 0.15489 0.0
H5775 H 0.28242 0.47363 0.15004 0.0
H5776 H 0.31805 0.45416 0.13242 0.0
H5777 H 0.29253 0.42832 0.15765 0.0
H5778 H 0.28706 0.43737 0.14805 0.0
H5779 H 0.29222 0.44244 0.16032 0.0
C5780 C 0.28612 0.46148 0.1261 0.0
C5781 C 0.2817 0.46846 0.13365 0.0
C5782 C 0.29423 0.45448 0.12889 0.0
C5783 C 0.29802 0.45425 0.13931 0.0
C5784 C 0.29379 0.46133 0.14684 0.0
H5785 H 0.34295 0.40955 0.16759 0.0
H5786 H 0.33052 0.42429 0.16493 0.0
C5787 C 0.28571 0.4684 0.14403 0.0
C5788 C 0.30634 0.4465 0.14223 0.0
H5789 H 0.31057 0.42365 0.15614 0.0
C5790 C 0.31645 0.44752 0.13765 0.0
C5791 C 0.30422 0.43789 0.14909 0.0
C5792 C 0.29341 0.43633 0.15404 0.0
C5793 C 0.32449 0.44008 0.13969 0.0
C5794 C 0.32227 0.43127 0.14628 0.0
C5795 C 0.31224 0.43041 0.15107 0.0
C5796 C 0.33007 0.42258 0.1479 0.0
C5797 C 0.3353 0.44179 0.1348 0.0
C5798 C 0.33385 0.41668 0.13922 0.0
C5799 C 0.341 0.40833 0.14071 0.0
C5800 C 0.34444 0.40563 0.15092 0.0
C5801 C 0.34058 0.41152 0.15961 0.0
C5802 C 0.33343 0.4199 0.15811 0.0
H5803 H 0.33667 0.45032 0.13286 0.0
H5804 H 0.34172 0.4391 0.14016 0.0
H5805 H 0.33583 0.43712 0.12733 0.0
H5806 H 0.33119 0.41845 0.13129 0.0
H5807 H 0.34389 0.40404 0.13383 0.0
H5808 H 0.61716 0.81707 0.51391 0.0
H5809 H 0.61116 0.82637 0.52983 0.0
H5810 H 0.61322 0.7971 0.54742 0.0
H5811 H 0.61962 0.78777 0.53156 0.0
H5812 H 0.59356 0.82271 0.54282 0.0
H5813 H 0.63152 0.8179 0.56476 0.0
H5814 H 0.63045 0.81534 0.55074 0.0
H5815 H 0.62546 0.80578 0.56004 0.0
C5816 C 0.61645 0.81262 0.52118 0.0
C5817 C 0.61903 0.80171 0.5215 0.0
C5818 C 0.61292 0.81793 0.53025 0.0
C5819 C 0.61189 0.81246 0.53984 0.0
C5820 C 0.61414 0.8015 0.54014 0.0
H5821 H 0.59923 0.84049 0.60221 0.0
H5822 H 0.60097 0.82748 0.58777 0.0
C5823 C 0.61769 0.79617 0.53105 0.0
C5824 C 0.60867 0.8184 0.54949 0.0
H5825 H 0.61781 0.82718 0.57343 0.0
C5826 C 0.59882 0.82363 0.54955 0.0
C5827 C 0.61555 0.81956 0.55826 0.0
C5828 C 0.62638 0.81443 0.55848 0.0
C5829 C 0.59574 0.83013 0.55809 0.0
C5830 C 0.60276 0.83156 0.56671 0.0
C5831 C 0.61245 0.82605 0.5668 0.0
C5832 C 0.60057 0.83927 0.57537 0.0
C5833 C 0.58502 0.83546 0.55779 0.0
C5834 C 0.59971 0.85019 0.57316 0.0
C5835 C 0.59868 0.85763 0.58138 0.0
C5836 C 0.59855 0.85428 0.59197 0.0
C5837 C 0.59916 0.8433 0.59414 0.0
C5838 C 0.60022 0.83587 0.58591 0.0
H5839 H 0.57945 0.83116 0.55244 0.0
H5840 H 0.58143 0.83591 0.56581 0.0
H5841 H 0.58598 0.84371 0.5548 0.0
H5842 H 0.60017 0.85301 0.5651 0.0
H5843 H 0.59818 0.86602 0.57946 0.0
H5844 H 0.45925 0.37747 0.7968 0.0
H5845 H 0.45482 0.37878 0.81559 0.0
H5846 H 0.44568 0.34557 0.8156 0.0
H5847 H 0.45042 0.34411 0.7969 0.0
H5848 H 0.43465 0.37529 0.82333 0.0
H5849 H 0.46319 0.34805 0.84264 0.0
H5850 H 0.46513 0.353 0.82939 0.0
H5851 H 0.45615 0.34207 0.83176 0.0
C5852 C 0.45658 0.37037 0.80086 0.0
C5853 C 0.45517 0.36069 0.79534 0.0
C5854 C 0.45399 0.37115 0.81159 0.0
C5855 C 0.45002 0.36225 0.81702 0.0
C5856 C 0.44892 0.35249 0.81162 0.0
H5857 H 0.41725 0.35205 0.87622 0.0
H5858 H 0.42667 0.35013 0.85933 0.0
C5859 C 0.4515 0.3517 0.8009 0.0
C5860 C 0.44604 0.36345 0.828 0.0
H5861 H 0.44837 0.35371 0.85306 0.0
C5862 C 0.43773 0.37066 0.82986 0.0
C5863 C 0.45001 0.35733 0.83647 0.0
C5864 C 0.45918 0.34974 0.83502 0.0
C5865 C 0.43312 0.37175 0.8399 0.0
C5866 C 0.43704 0.3656 0.84836 0.0
C5867 C 0.44539 0.35842 0.84655 0.0
C5868 C 0.43239 0.36643 0.85909 0.0
C5869 C 0.42385 0.37925 0.84128 0.0
C5870 C 0.4328 0.37612 0.86469 0.0
C5871 C 0.42744 0.37724 0.87431 0.0
C5872 C 0.42163 0.36866 0.87854 0.0
C5873 C 0.4217 0.35879 0.87318 0.0
C5874 C 0.42704 0.35768 0.86353 0.0
H5875 H 0.42023 0.38141 0.83358 0.0
H5876 H 0.41762 0.37565 0.84637 0.0
H5877 H 0.42666 0.38672 0.84516 0.0
H5878 H 0.43707 0.38289 0.8615 0.0
H5879 H 0.4277 0.38488 0.87836 0.0
H5880 H 0.87086 0.21365 0.03652 0.0
H5881 H 0.87572 0.20078 0.05008 0.0
H5882 H 0.90797 0.21254 0.04964 0.0
H5883 H 0.90313 0.2255 0.03605 0.0
H5884 H 0.89066 0.18481 0.04774 0.0
H5885 H 0.90124 0.21171 0.08127 0.0
H5886 H 0.89387 0.21624 0.06993 0.0
H5887 H 0.90799 0.21444 0.06906 0.0
C5888 C 0.87897 0.21354 0.03935 0.0
C5889 C 0.88662 0.22057 0.0352 0.0
C5890 C 0.88173 0.20621 0.04712 0.0
C5891 C 0.89218 0.20576 0.05094 0.0
C5892 C 0.89981 0.21289 0.04697 0.0
H5893 H 0.92058 0.16006 0.0948 0.0
H5894 H 0.9181 0.17448 0.08201 0.0
C5895 C 0.89704 0.22028 0.0392 0.0
C5896 C 0.89514 0.19737 0.05859 0.0
H5897 H 0.90419 0.19323 0.08368 0.0
C5898 C 0.89363 0.18666 0.0556 0.0
C5899 C 0.89909 0.1998 0.0688 0.0
C5900 C 0.90058 0.21116 0.07253 0.0
C5901 C 0.89585 0.17832 0.06257 0.0
C5902 C 0.89956 0.18075 0.07285 0.0
C5903 C 0.90134 0.19143 0.07578 0.0
C5904 C 0.90109 0.1723 0.08081 0.0
C5905 C 0.89421 0.16695 0.05889 0.0
C5906 C 0.89233 0.16647 0.08449 0.0
C5907 C 0.89369 0.15832 0.09181 0.0
C5908 C 0.90387 0.15581 0.09562 0.0
C5909 C 0.91264 0.16182 0.09207 0.0
C5910 C 0.91124 0.17002 0.08474 0.0
H5911 H 0.89393 0.16633 0.05012 0.0
H5912 H 0.90065 0.16172 0.06184 0.0
H5913 H 0.88655 0.16392 0.06205 0.0
H5914 H 0.8844 0.16825 0.08169 0.0
H5915 H 0.88674 0.15404 0.09457 0.0
H5916 H 0.0598 0.66495 0.29863 0.0
H5917 H 0.06427 0.6631 0.31734 0.0
H5918 H 0.05231 0.63081 0.31689 0.0
H5919 H 0.04814 0.63246 0.29807 0.0
H5920 H 0.05205 0.65768 0.33542 0.0
H5921 H 0.0833 0.62764 0.32656 0.0
H5922 H 0.0773 0.63568 0.31643 0.0
H5923 H 0.07027 0.62439 0.32169 0.0
C5924 C 0.05813 0.65744 0.30251 0.0
C5925 C 0.05375 0.6488 0.29682 0.0
C5926 C 0.0606 0.65644 0.31322 0.0
C5927 C 0.05878 0.64677 0.31844 0.0
C5928 C 0.05394 0.63829 0.31295 0.0
H5929 H 0.08056 0.62534 0.38006 0.0
H5930 H 0.07093 0.6269 0.36334 0.0
C5931 C 0.05146 0.63928 0.30222 0.0
C5932 C 0.06246 0.64543 0.32947 0.0
H5933 H 0.08039 0.63191 0.34447 0.0
C5934 C 0.05821 0.65202 0.33743 0.0
C5935 C 0.07052 0.63806 0.33204 0.0
C5936 C 0.0757 0.63109 0.32374 0.0
C5937 C 0.06181 0.6514 0.34792 0.0
C5938 C 0.06998 0.64413 0.35045 0.0
C5939 C 0.07409 0.63744 0.34252 0.0
C5940 C 0.07474 0.64358 0.36115 0.0
C5941 C 0.05678 0.65847 0.35622 0.0
C5942 C 0.08 0.65248 0.3655 0.0
C5943 C 0.08553 0.65161 0.37504 0.0
C5944 C 0.08598 0.64179 0.38033 0.0
C5945 C 0.08045 0.63298 0.3761 0.0
C5946 C 0.07491 0.63386 0.36659 0.0
H5947 H 0.04876 0.66116 0.35376 0.0
H5948 H 0.05609 0.65428 0.36389 0.0
H5949 H 0.06181 0.66566 0.35741 0.0
H5950 H 0.0802 0.65999 0.36132 0.0
H5951 H 0.08984 0.65849 0.37802 0.0
H5952 H 0.62401 0.22242 0.97517 0.0
H5953 H 0.61777 0.21334 0.95907 0.0
H5954 H 0.60917 0.18576 0.97746 0.0
H5955 H 0.61502 0.19485 0.99354 0.0
H5956 H 0.62556 0.19467 0.95074 0.0
H5957 H 0.5828 0.18983 0.95965 0.0
H5958 H 0.59125 0.19894 0.96694 0.0
H5959 H 0.59101 0.18495 0.97012 0.0
C5960 C 0.62059 0.2145 0.9758 0.0
C5961 C 0.62004 0.20934 0.98563 0.0
C5962 C 0.61708 0.20931 0.9666 0.0
C5963 C 0.61285 0.19894 0.96709 0.0
C5964 C 0.61218 0.19385 0.97691 0.0
H5965 H 0.59965 0.14478 0.92887 0.0
H5966 H 0.60185 0.15854 0.94251 0.0
C5967 C 0.61568 0.19901 0.98608 0.0
C5968 C 0.60985 0.19306 0.95732 0.0
H5969 H 0.58999 0.17804 0.94633 0.0
C5970 C 0.61772 0.1912 0.94965 0.0
C5971 C 0.59962 0.18855 0.95592 0.0
C5972 C 0.59066 0.19076 0.96355 0.0
C5973 C 0.61581 0.18447 0.94094 0.0
C5974 C 0.60572 0.17958 0.93982 0.0
C5975 C 0.59773 0.18177 0.94724 0.0
C5976 C 0.60362 0.17152 0.93146 0.0
C5977 C 0.62474 0.1822 0.93329 0.0
C5978 C 0.60364 0.17432 0.92073 0.0
C5979 C 0.60241 0.16646 0.91291 0.0
C5980 C 0.60115 0.15568 0.9157 0.0
C5981 C 0.60076 0.15299 0.92647 0.0
C5982 C 0.60195 0.16084 0.93427 0.0
H5983 H 0.63251 0.18521 0.93624 0.0
H5984 H 0.6254 0.17349 0.93176 0.0
H5985 H 0.62305 0.18614 0.92565 0.0
H5986 H 0.60479 0.18255 0.91842 0.0
H5987 H 0.60279 0.16877 0.90468 0.0
H5988 H 0.07339 0.3652 0.21528 0.0
H5989 H 0.07776 0.36552 0.19648 0.0
H5990 H 0.04559 0.35648 0.18877 0.0
H5991 H 0.04114 0.35603 0.20767 0.0
H5992 H 0.07564 0.34762 0.1823 0.0
H5993 H 0.05194 0.38277 0.16969 0.0
H5994 H 0.05529 0.38047 0.18337 0.0
H5995 H 0.04519 0.37256 0.17707 0.0
C5996 C 0.06723 0.36325 0.2096 0.0
C5997 C 0.05694 0.36051 0.21297 0.0
C5998 C 0.06973 0.36349 0.19886 0.0
C5999 C 0.06199 0.36107 0.19125 0.0
C6000 C 0.05164 0.35851 0.19453 0.0
H6001 H 0.0736 0.36183 0.12241 0.0
H6002 H 0.06464 0.35914 0.13948 0.0
C6003 C 0.04912 0.35826 0.20532 0.0
C6004 C 0.06504 0.36083 0.17994 0.0
H6005 H 0.06255 0.3744 0.15676 0.0
C6006 C 0.0727 0.3534 0.17668 0.0
C6007 C 0.0611 0.36832 0.17263 0.0
C6008 C 0.05297 0.37655 0.17581 0.0
C6009 C 0.0768 0.35348 0.16638 0.0
C6010 C 0.07328 0.36131 0.15921 0.0
C6011 C 0.06525 0.36843 0.1623 0.0
C6012 C 0.07855 0.36283 0.14886 0.0
C6013 C 0.08502 0.34529 0.16329 0.0
C6014 C 0.08926 0.36589 0.14854 0.0
C6015 C 0.09437 0.36742 0.13887 0.0
C6016 C 0.08884 0.36597 0.12932 0.0
C6017 C 0.07807 0.36292 0.12965 0.0
C6018 C 0.07294 0.36144 0.13936 0.0
H6019 H 0.08456 0.33813 0.16841 0.0
H6020 H 0.08403 0.34275 0.15492 0.0
H6021 H 0.09306 0.34884 0.1642 0.0
H6022 H 0.09369 0.36714 0.15579 0.0
H6023 H 0.10269 0.36964 0.13889 0.0
H6024 H 0.88484 0.78865 0.47167 0.0
H6025 H 0.89153 0.79756 0.45575 0.0
H6026 H 0.8975 0.82614 0.47402 0.0
H6027 H 0.8912 0.81724 0.48992 0.0
H6028 H 0.8834 0.81569 0.44655 0.0
H6029 H 0.92524 0.82264 0.45803 0.0
H6030 H 0.91673 0.81333 0.46489 0.0
H6031 H 0.91615 0.82738 0.46791 0.0
C6032 C 0.88776 0.79677 0.47231 0.0
C6033 C 0.88746 0.80225 0.48205 0.0
C6034 C 0.89153 0.80186 0.46321 0.0
C6035 C 0.89517 0.81246 0.46374 0.0
C6036 C 0.89495 0.81789 0.47347 0.0
H6037 H 0.90841 0.86626 0.42597 0.0
H6038 H 0.90581 0.85265 0.43951 0.0
C6039 C 0.89119 0.81283 0.48253 0.0
C6040 C 0.89855 0.81817 0.45407 0.0
H6041 H 0.91844 0.83379 0.44415 0.0
C6042 C 0.89113 0.81948 0.44591 0.0
C6043 C 0.90866 0.82308 0.45325 0.0
C6044 C 0.91719 0.82145 0.46144 0.0
C6045 C 0.89333 0.82608 0.43725 0.0
C6046 C 0.90324 0.8314 0.4367 0.0
C6047 C 0.91083 0.82973 0.44462 0.0
C6048 C 0.90552 0.83941 0.42845 0.0
C6049 C 0.88483 0.82778 0.42902 0.0
C6050 C 0.90644 0.83642 0.41777 0.0
C6051 C 0.90791 0.8442 0.41001 0.0
C6052 C 0.90846 0.85507 0.41282 0.0
C6053 C 0.90787 0.85797 0.42356 0.0
C6054 C 0.90645 0.8502 0.4313 0.0
H6055 H 0.87705 0.82439 0.43146 0.0
H6056 H 0.88382 0.83642 0.42745 0.0
H6057 H 0.88726 0.82386 0.42151 0.0
H6058 H 0.90586 0.82811 0.41544 0.0
H6059 H 0.90829 0.84174 0.40179 0.0
H6060 H 0.45916 0.65516 0.70864 0.0
H6061 H 0.45116 0.65524 0.691 0.0
H6062 H 0.46517 0.6246 0.68423 0.0
H6063 H 0.47297 0.62431 0.70194 0.0
H6064 H 0.46071 0.65334 0.67039 0.0
H6065 H 0.43297 0.61996 0.67941 0.0
H6066 H 0.44002 0.62724 0.68959 0.0
H6067 H 0.44677 0.61729 0.68184 0.0
C6068 C 0.46052 0.64842 0.70341 0.0
C6069 C 0.46662 0.63968 0.70673 0.0
C6070 C 0.45601 0.64852 0.69332 0.0
C6071 C 0.45747 0.63986 0.68639 0.0
C6072 C 0.46384 0.63129 0.68953 0.0
H6073 H 0.42905 0.62349 0.62584 0.0
H6074 H 0.44023 0.62413 0.64164 0.0
C6075 C 0.46837 0.63119 0.69961 0.0
C6076 C 0.45203 0.63967 0.67601 0.0
H6077 H 0.43292 0.62642 0.66194 0.0
C6078 C 0.45464 0.64746 0.66852 0.0
C6079 C 0.44411 0.63199 0.67363 0.0
C6080 C 0.44071 0.62369 0.68155 0.0
C6081 C 0.4496 0.6477 0.65861 0.0
C6082 C 0.44162 0.64006 0.65626 0.0
C6083 C 0.43907 0.63224 0.66375 0.0
C6084 C 0.43559 0.64013 0.6462 0.0
C6085 C 0.45298 0.65601 0.6507 0.0
C6086 C 0.42932 0.64893 0.64348 0.0
C6087 C 0.42292 0.64858 0.63445 0.0
C6088 C 0.4226 0.63938 0.62804 0.0
C6089 C 0.42905 0.63065 0.63068 0.0
C6090 C 0.43547 0.63102 0.63968 0.0
H6091 H 0.46105 0.65917 0.65247 0.0
H6092 H 0.45294 0.6527 0.64254 0.0
H6093 H 0.44734 0.66278 0.65103 0.0
H6094 H 0.4291 0.65594 0.64853 0.0
H6095 H 0.41792 0.65536 0.63272 0.0
H6096 H 0.51877 0.60594 0.80265 0.0
H6097 H 0.53425 0.60049 0.81303 0.0
H6098 H 0.5434 0.63347 0.81692 0.0
H6099 H 0.52802 0.63898 0.80653 0.0
H6100 H 0.5569 0.60482 0.81096 0.0
H6101 H 0.53924 0.62219 0.84742 0.0
H6102 H 0.53159 0.61974 0.83558 0.0
H6103 H 0.54005 0.63129 0.83653 0.0
C6104 C 0.52419 0.61201 0.80555 0.0
C6105 C 0.52211 0.6229 0.80388 0.0
C6106 C 0.533 0.60889 0.8115 0.0
C6107 C 0.53983 0.61659 0.81588 0.0
C6108 C 0.53808 0.62742 0.81377 0.0
H6109 H 0.59235 0.62003 0.85867 0.0
H6110 H 0.57849 0.62289 0.84551 0.0
C6111 C 0.52929 0.63055 0.80786 0.0
C6112 C 0.54849 0.61343 0.82312 0.0
H6113 H 0.55718 0.61662 0.84849 0.0
C6114 C 0.55696 0.60731 0.81919 0.0
C6115 C 0.54846 0.61663 0.83386 0.0
C6116 C 0.53931 0.62274 0.83866 0.0
C6117 C 0.56563 0.60468 0.82565 0.0
C6118 C 0.56572 0.60815 0.83631 0.0
C6119 C 0.55712 0.61404 0.84028 0.0
C6120 C 0.57477 0.60613 0.84349 0.0
C6121 C 0.57479 0.59852 0.82097 0.0
C6122 C 0.57735 0.59574 0.84664 0.0
C6123 C 0.58527 0.59407 0.85421 0.0
C6124 C 0.59065 0.6028 0.85882 0.0
C6125 C 0.58823 0.61316 0.8554 0.0
C6126 C 0.58036 0.61481 0.84784 0.0
H6127 H 0.57449 0.59831 0.81219 0.0
H6128 H 0.58249 0.60205 0.82348 0.0
H6129 H 0.57449 0.59018 0.82385 0.0
H6130 H 0.57301 0.58895 0.8435 0.0
H6131 H 0.58691 0.58601 0.85676 0.0
H6132 H 0.65524 0.30648 0.0462 0.0
H6133 H 0.65554 0.32429 0.05427 0.0
H6134 H 0.62493 0.33099 0.04061 0.0
H6135 H 0.62443 0.31309 0.03276 0.0
H6136 H 0.65374 0.34508 0.04517 0.0
H6137 H 0.62053 0.3357 0.07265 0.0
H6138 H 0.62763 0.3255 0.06544 0.0
H6139 H 0.61777 0.3334 0.05889 0.0
C6140 C 0.64856 0.31173 0.04493 0.0
C6141 C 0.63976 0.30832 0.03893 0.0
C6142 C 0.64878 0.32193 0.04948 0.0
C6143 C 0.64019 0.32888 0.04815 0.0
C6144 C 0.63158 0.32567 0.04185 0.0
H6145 H 0.62471 0.38954 0.07799 0.0
H6146 H 0.62513 0.37391 0.0663 0.0
C6147 C 0.63135 0.31548 0.03729 0.0
C6148 C 0.6401 0.33932 0.05371 0.0
H6149 H 0.62716 0.35331 0.07303 0.0
C6150 C 0.64793 0.34691 0.05125 0.0
C6151 C 0.63251 0.34165 0.06165 0.0
C6152 C 0.62417 0.33362 0.06491 0.0
C6153 C 0.64831 0.35685 0.05647 0.0
C6154 C 0.64078 0.35913 0.06447 0.0
C6155 C 0.6329 0.35156 0.06686 0.0
C6156 C 0.64102 0.36918 0.07073 0.0
C6157 C 0.65668 0.36485 0.05327 0.0
C6158 C 0.64985 0.37176 0.07703 0.0
C6159 C 0.64963 0.38069 0.08372 0.0
C6160 C 0.64052 0.38713 0.08431 0.0
C6161 C 0.6318 0.38467 0.07779 0.0
C6162 C 0.63204 0.37577 0.07108 0.0
H6163 H 0.65975 0.36319 0.04519 0.0
H6164 H 0.65351 0.37311 0.05352 0.0
H6165 H 0.66346 0.3644 0.05884 0.0
H6166 H 0.65677 0.36666 0.07707 0.0
H6167 H 0.65641 0.38229 0.08876 0.0
H6168 H 0.97884 0.36813 0.30084 0.0
H6169 H 0.96559 0.37425 0.31363 0.0
H6170 H 0.96834 0.40626 0.30158 0.0
H6171 H 0.98164 0.40018 0.28873 0.0
H6172 H 0.96902 0.38967 0.32925 0.0
H6173 H 0.93607 0.40142 0.30253 0.0
H6174 H 0.94693 0.39309 0.29818 0.0
H6175 H 0.94882 0.40723 0.29965 0.0
C6176 C 0.9766 0.37647 0.30088 0.0
C6177 C 0.98131 0.38368 0.2938 0.0
C6178 C 0.969 0.37994 0.30816 0.0
C6179 C 0.96592 0.39069 0.30849 0.0
C6180 C 0.97045 0.39789 0.30132 0.0
H6181 H 0.92283 0.4219 0.35383 0.0
H6182 H 0.93565 0.41886 0.33948 0.0
C6183 C 0.97805 0.39441 0.29399 0.0
C6184 C 0.95841 0.39435 0.31678 0.0
H6185 H 0.93365 0.4047 0.32081 0.0
C6186 C 0.9613 0.39299 0.3274 0.0
C6187 C 0.94839 0.39876 0.31434 0.0
C6188 C 0.94479 0.40016 0.30306 0.0
C6189 C 0.95437 0.39574 0.33565 0.0
C6190 C 0.94423 0.39985 0.33321 0.0
C6191 C 0.94144 0.40154 0.32262 0.0
C6192 C 0.93621 0.40176 0.34157 0.0
C6193 C 0.95792 0.39419 0.34692 0.0
C6194 C 0.93215 0.39313 0.3473 0.0
C6195 C 0.92482 0.39481 0.35541 0.0
C6196 C 0.92139 0.40519 0.35798 0.0
C6197 C 0.92529 0.41382 0.35204 0.0
C6198 C 0.93263 0.41211 0.34387 0.0
H6199 H 0.96671 0.39363 0.34752 0.0
H6200 H 0.95516 0.40085 0.35206 0.0
H6201 H 0.95446 0.38666 0.34998 0.0
H6202 H 0.93467 0.38506 0.3455 0.0
H6203 H 0.92178 0.38796 0.35963 0.0
H6204 H 0.85986 0.69693 0.52288 0.0
H6205 H 0.85867 0.67911 0.53075 0.0
H6206 H 0.8683 0.69221 0.56087 0.0
H6207 H 0.86964 0.70992 0.5531 0.0
H6208 H 0.87472 0.66728 0.54128 0.0
H6209 H 0.84071 0.67596 0.56778 0.0
H6210 H 0.84417 0.68435 0.55674 0.0
H6211 H 0.85134 0.68548 0.56899 0.0
C6212 C 0.86177 0.696 0.53117 0.0
C6213 C 0.86473 0.70487 0.53739 0.0
C6214 C 0.86104 0.68583 0.53565 0.0
C6215 C 0.86319 0.6844 0.54643 0.0
C6216 C 0.86634 0.69319 0.5526 0.0
H6217 H 0.87086 0.637 0.59324 0.0
H6218 H 0.86918 0.65284 0.58225 0.0
C6219 C 0.86709 0.70332 0.54814 0.0
C6220 C 0.86244 0.6737 0.55129 0.0
H6221 H 0.8508 0.66032 0.57169 0.0
C6222 C 0.86938 0.66567 0.54782 0.0
C6223 C 0.85543 0.67164 0.55978 0.0
C6224 C 0.84741 0.67978 0.56349 0.0
C6225 C 0.86991 0.65581 0.55302 0.0
C6226 C 0.8632 0.65393 0.5618 0.0
C6227 C 0.85597 0.66181 0.56499 0.0
C6228 C 0.86409 0.64419 0.56829 0.0
C6229 C 0.87797 0.64768 0.54941 0.0
C6230 C 0.86167 0.63407 0.5641 0.0
C6231 C 0.86269 0.62495 0.57036 0.0
C6232 C 0.86614 0.62584 0.58091 0.0
C6233 C 0.86838 0.63602 0.58509 0.0
C6234 C 0.86735 0.64509 0.57885 0.0
H6235 H 0.8838 0.6511 0.54376 0.0
H6236 H 0.88235 0.64442 0.55628 0.0
H6237 H 0.87381 0.64095 0.54543 0.0
H6238 H 0.85899 0.63322 0.556 0.0
H6239 H 0.86093 0.61722 0.56691 0.0
H6240 H 0.51717 0.39941 0.70474 0.0
H6241 H 0.53098 0.40355 0.69173 0.0
H6242 H 0.55062 0.37859 0.70435 0.0
H6243 H 0.53676 0.37424 0.71726 0.0
H6244 H 0.55305 0.40921 0.69473 0.0
H6245 H 0.54742 0.37126 0.67234 0.0
H6246 H 0.53778 0.37618 0.68175 0.0
H6247 H 0.5497 0.36988 0.6863 0.0
C6248 C 0.52442 0.39478 0.70473 0.0
C6249 C 0.52584 0.38644 0.71197 0.0
C6250 C 0.53232 0.39721 0.69734 0.0
C6251 C 0.54174 0.39128 0.69701 0.0
C6252 C 0.54334 0.38316 0.70441 0.0
H6253 H 0.59931 0.40404 0.66105 0.0
H6254 H 0.58617 0.40159 0.6751 0.0
C6255 C 0.53546 0.38075 0.71184 0.0
C6256 C 0.54976 0.39344 0.68871 0.0
H6257 H 0.56147 0.3825 0.66684 0.0
C6258 C 0.55492 0.40338 0.68863 0.0
C6259 C 0.55205 0.38585 0.6807 0.0
C6260 C 0.5464 0.37522 0.68017 0.0
C6261 C 0.56243 0.4059 0.6808 0.0
C6262 C 0.56487 0.39823 0.67292 0.0
C6263 C 0.55962 0.38834 0.67294 0.0
C6264 C 0.57276 0.40033 0.66448 0.0
C6265 C 0.56757 0.4168 0.6809 0.0
C6266 C 0.56957 0.40036 0.65386 0.0
C6267 C 0.57705 0.4018 0.64581 0.0
C6268 C 0.58788 0.40315 0.64824 0.0
C6269 C 0.59102 0.40321 0.65891 0.0
C6270 C 0.58352 0.40179 0.66696 0.0
H6271 H 0.56313 0.42253 0.68597 0.0
H6272 H 0.57576 0.41614 0.68405 0.0
H6273 H 0.56809 0.42006 0.67277 0.0
H6274 H 0.56129 0.39923 0.65179 0.0
H6275 H 0.57435 0.40184 0.63769 0.0
H6276 H 0.87448 0.29952 0.94253 0.0
H6277 H 0.87306 0.31838 0.9381 0.0
H6278 H 0.85838 0.3248 0.96828 0.0
H6279 H 0.85961 0.30579 0.97275 0.0
H6280 H 0.85245 0.32996 0.93809 0.0
H6281 H 0.8832 0.34762 0.96475 0.0
H6282 H 0.88353 0.33373 0.96083 0.0
H6283 H 0.87373 0.33826 0.97009 0.0
C6284 C 0.87093 0.30492 0.94824 0.0
C6285 C 0.86706 0.30113 0.95796 0.0
C6286 C 0.87018 0.3157 0.94571 0.0
C6287 C 0.86563 0.32295 0.95287 0.0
C6288 C 0.86201 0.31931 0.9627 0.0
H6289 H 0.86166 0.39177 0.93818 0.0
H6290 H 0.85909 0.37497 0.94785 0.0
C6291 C 0.86273 0.30847 0.96524 0.0
C6292 C 0.86431 0.33419 0.94965 0.0
H6293 H 0.87519 0.35905 0.95243 0.0
C6294 C 0.8573 0.33636 0.94133 0.0
C6295 C 0.87057 0.34252 0.95397 0.0
C6296 C 0.87823 0.3405 0.96289 0.0
C6297 C 0.85672 0.34656 0.9369 0.0
C6298 C 0.86348 0.35473 0.94076 0.0
C6299 C 0.87005 0.35274 0.94948 0.0
C6300 C 0.86471 0.36493 0.93504 0.0
C6301 C 0.84909 0.34843 0.92792 0.0
C6302 C 0.86879 0.36481 0.92473 0.0
C6303 C 0.87026 0.37431 0.91924 0.0
C6304 C 0.86775 0.38416 0.92398 0.0
C6305 C 0.86361 0.38429 0.93432 0.0
C6306 C 0.86218 0.37473 0.93985 0.0
H6307 H 0.84238 0.34265 0.92808 0.0
H6308 H 0.84585 0.35666 0.9282 0.0
H6309 H 0.85335 0.34736 0.9203 0.0
H6310 H 0.87093 0.35734 0.92093 0.0
H6311 H 0.87334 0.37393 0.91125 0.0
H6312 H 0.96972 0.62694 0.22373 0.0
H6313 H 0.95605 0.62101 0.21123 0.0
H6314 H 0.98014 0.61555 0.18755 0.0
H6315 H 0.99385 0.62101 0.20009 0.0
H6316 H 0.95107 0.62999 0.19234 0.0
H6317 H 0.9633 0.58806 0.18583 0.0
H6318 H 0.96836 0.59608 0.19663 0.0
H6319 H 0.97391 0.59737 0.18357 0.0
C6320 C 0.97213 0.62428 0.21593 0.0
C6321 C 0.98289 0.62446 0.21292 0.0
C6322 C 0.9643 0.62095 0.20878 0.0
C6323 C 0.96709 0.61768 0.1985 0.0
C6324 C 0.97782 0.61781 0.1955 0.0
H6325 H 0.9352 0.60537 0.13955 0.0
H6326 H 0.94783 0.60803 0.15407 0.0
C6327 C 0.98564 0.6211 0.20264 0.0
C6328 C 0.95875 0.61475 0.19071 0.0
H6329 H 0.95107 0.59525 0.17327 0.0
C6330 C 0.95098 0.62235 0.18827 0.0
C6331 C 0.95867 0.60476 0.1854 0.0
C6332 C 0.96645 0.59606 0.18806 0.0
C6333 C 0.94335 0.62038 0.18041 0.0
C6334 C 0.94343 0.6105 0.17494 0.0
C6335 C 0.95107 0.60283 0.17748 0.0
C6336 C 0.93581 0.60817 0.16631 0.0
C6337 C 0.93547 0.629 0.17777 0.0
C6338 C 0.92492 0.60714 0.16844 0.0
C6339 C 0.9177 0.60563 0.16017 0.0
C6340 C 0.92125 0.60512 0.14963 0.0
C6341 C 0.93222 0.60584 0.14757 0.0
C6342 C 0.93943 0.6073 0.15585 0.0
H6343 H 0.93772 0.63683 0.1813 0.0
H6344 H 0.93477 0.62992 0.16907 0.0
H6345 H 0.92753 0.62673 0.18087 0.0
H6346 H 0.922 0.60769 0.17648 0.0
H6347 H 0.9093 0.6052 0.162 0.0
H6348 H 0.62469 0.69771 0.47366 0.0
H6349 H 0.62535 0.67982 0.46582 0.0
H6350 H 0.65675 0.68634 0.45377 0.0
H6351 H 0.65627 0.70414 0.46181 0.0
H6352 H 0.62775 0.67569 0.44417 0.0
H6353 H 0.66005 0.65678 0.46717 0.0
H6354 H 0.65333 0.66871 0.47161 0.0
H6355 H 0.66348 0.6695 0.46163 0.0
C6356 C 0.63183 0.69526 0.46954 0.0
C6357 C 0.64043 0.70235 0.46836 0.0
C6358 C 0.63217 0.68505 0.46502 0.0
C6359 C 0.64115 0.68171 0.45932 0.0
C6360 C 0.64982 0.68869 0.45829 0.0
H6361 H 0.65647 0.62813 0.41862 0.0
H6362 H 0.65675 0.64422 0.42975 0.0
C6363 C 0.64948 0.6989 0.46279 0.0
C6364 C 0.64111 0.67125 0.45377 0.0
H6365 H 0.65421 0.64751 0.45172 0.0
C6366 C 0.63347 0.66948 0.44588 0.0
C6367 C 0.64863 0.66323 0.45598 0.0
C6368 C 0.65679 0.66458 0.46462 0.0
C6369 C 0.63329 0.65998 0.43995 0.0
C6370 C 0.64083 0.65194 0.44214 0.0
C6371 C 0.64844 0.65369 0.45007 0.0
C6372 C 0.64099 0.64175 0.43614 0.0
C6373 C 0.62524 0.65877 0.43119 0.0
C6374 C 0.63216 0.63488 0.4363 0.0
C6375 C 0.63197 0.62571 0.42996 0.0
C6376 C 0.64066 0.62319 0.42341 0.0
C6377 C 0.64969 0.62983 0.42363 0.0
C6378 C 0.64985 0.63903 0.42995 0.0
H6379 H 0.62191 0.66659 0.4288 0.0
H6380 H 0.62882 0.65488 0.42413 0.0
H6381 H 0.61857 0.6537 0.43397 0.0
H6382 H 0.62534 0.6367 0.44121 0.0
H6383 H 0.62498 0.62064 0.43009 0.0
H6384 H 0.79049 0.53272 0.62802 0.0
H6385 H 0.80034 0.54876 0.62294 0.0
H6386 H 0.81096 0.53293 0.59447 0.0
H6387 H 0.80088 0.517 0.59931 0.0
H6388 H 0.82187 0.54939 0.62058 0.0
H6389 H 0.80256 0.56212 0.58344 0.0
H6390 H 0.79637 0.5529 0.5925 0.0
H6391 H 0.80626 0.54831 0.58327 0.0
C6392 C 0.79468 0.53275 0.62053 0.0
C6393 C 0.79493 0.52357 0.61408 0.0
C6394 C 0.80035 0.54191 0.61767 0.0
C6395 C 0.8063 0.54208 0.60828 0.0
C6396 C 0.80627 0.53306 0.60165 0.0
H6397 H 0.8633 0.57761 0.59522 0.0
H6398 H 0.84955 0.56414 0.59833 0.0
C6399 C 0.80061 0.52391 0.6045 0.0
C6400 C 0.81339 0.55125 0.60593 0.0
H6401 H 0.81989 0.56939 0.58692 0.0
C6402 C 0.82136 0.55384 0.61327 0.0
C6403 C 0.81266 0.5571 0.59643 0.0
C6404 C 0.80393 0.55505 0.5885 0.0
C6405 C 0.82884 0.56188 0.61122 0.0
C6406 C 0.82844 0.56736 0.60149 0.0
C6407 C 0.82026 0.56506 0.5943 0.0
C6408 C 0.83658 0.57542 0.59867 0.0
C6409 C 0.83711 0.56444 0.6195 0.0
C6410 C 0.83378 0.58616 0.59742 0.0
C6411 C 0.84162 0.59388 0.59563 0.0
C6412 C 0.8524 0.59097 0.59504 0.0
C6413 C 0.85509 0.58012 0.59583 0.0
C6414 C 0.84726 0.57243 0.5976 0.0
H6415 H 0.83469 0.56156 0.62743 0.0
H6416 H 0.84467 0.56046 0.61733 0.0
H6417 H 0.83861 0.57317 0.61999 0.0
H6418 H 0.82557 0.58861 0.59818 0.0
H6419 H 0.8393 0.60218 0.59515 0.0
H6420 H 0.29652 0.98913 0.40481 0.0
H6421 H 0.30696 0.97385 0.41089 0.0
H6422 H 0.31233 0.96424 0.37854 0.0
H6423 H 0.30184 0.97935 0.37241 0.0
H6424 H 0.30546 0.95037 0.40591 0.0
H6425 H 0.34243 0.97013 0.39194 0.0
H6426 H 0.33019 0.97731 0.39408 0.0
H6427 H 0.33194 0.96937 0.38233 0.0
C6428 C 0.29974 0.98363 0.399 0.0
C6429 C 0.29847 0.98552 0.38812 0.0
C6430 C 0.30573 0.97494 0.40249 0.0
C6431 C 0.31053 0.96805 0.39515 0.0
C6432 C 0.30881 0.96959 0.38432 0.0
H6433 H 0.35509 0.91731 0.39166 0.0
H6434 H 0.34173 0.93111 0.3891 0.0
C6435 C 0.30285 0.97824 0.38083 0.0
C6436 C 0.31789 0.95962 0.39867 0.0
H6437 H 0.34381 0.95198 0.39692 0.0
C6438 C 0.31387 0.95073 0.40406 0.0
C6439 C 0.32885 0.9602 0.39629 0.0
C6440 C 0.33367 0.9698 0.39092 0.0
C6441 C 0.32049 0.94213 0.40671 0.0
C6442 C 0.33139 0.94257 0.404 0.0
C6443 C 0.33544 0.95164 0.39893 0.0
C6444 C 0.33871 0.93353 0.40578 0.0
C6445 C 0.31572 0.93248 0.41199 0.0
C6446 C 0.34136 0.93023 0.41603 0.0
C6447 C 0.34904 0.92232 0.41752 0.0
C6448 C 0.35425 0.9177 0.40879 0.0
C6449 C 0.35134 0.92084 0.39855 0.0
C6450 C 0.34368 0.92869 0.39707 0.0
H6451 H 0.3069 0.93252 0.41171 0.0
H6452 H 0.31862 0.92502 0.40819 0.0
H6453 H 0.31819 0.93237 0.42041 0.0
H6454 H 0.33774 0.93399 0.42287 0.0
H6455 H 0.35118 0.92009 0.4255 0.0
H6456 H 0.30622 0.04862 0.62526 0.0
H6457 H 0.32502 0.05323 0.6232 0.0
H6458 H 0.32665 0.06187 0.65622 0.0
H6459 H 0.308 0.05695 0.65843 0.0
H6460 H 0.33308 0.07324 0.62647 0.0
H6461 H 0.35363 0.04462 0.65251 0.0
H6462 H 0.34008 0.04269 0.64822 0.0
H6463 H 0.34305 0.05155 0.65909 0.0
C6464 C 0.31065 0.05123 0.63215 0.0
C6465 C 0.3056 0.05244 0.64201 0.0
C6466 C 0.32138 0.05391 0.63094 0.0
C6467 C 0.32727 0.05778 0.63958 0.0
C6468 C 0.32233 0.0587 0.64949 0.0
H6469 H 0.385 0.09249 0.65053 0.0
H6470 H 0.36851 0.08216 0.65164 0.0
C6471 C 0.31162 0.05602 0.65071 0.0
C6472 C 0.33824 0.06185 0.63803 0.0
H6473 H 0.36362 0.06011 0.64739 0.0
C6474 C 0.33979 0.07026 0.63092 0.0
C6475 C 0.34697 0.05798 0.64389 0.0
C6476 C 0.34589 0.04864 0.65128 0.0
C6477 C 0.34975 0.07519 0.6298 0.0
C6478 C 0.35842 0.07149 0.63583 0.0
C6479 C 0.35694 0.06293 0.64279 0.0
C6480 C 0.36895 0.07678 0.63536 0.0
C6481 C 0.3508 0.08461 0.62248 0.0
C6482 C 0.37481 0.0769 0.62592 0.0
C6483 C 0.38424 0.08278 0.62526 0.0
C6484 C 0.38802 0.08858 0.63406 0.0
C6485 C 0.38236 0.08804 0.64364 0.0
C6486 C 0.37292 0.08217 0.64428 0.0
H6487 H 0.34294 0.08784 0.62017 0.0
H6488 H 0.35551 0.0911 0.62625 0.0
H6489 H 0.355 0.08207 0.61518 0.0
H6490 H 0.37197 0.07262 0.61901 0.0
H6491 H 0.38852 0.08289 0.61783 0.0
H6492 H 0.23123 0.04222 0.88617 0.0
H6493 H 0.21864 0.05604 0.89174 0.0
H6494 H 0.19486 0.03188 0.89739 0.0
H6495 H 0.20745 0.01804 0.89225 0.0
H6496 H 0.19939 0.06072 0.88268 0.0
H6497 H 0.19356 0.0493 0.92451 0.0
H6498 H 0.20439 0.04424 0.91658 0.0
H6499 H 0.19134 0.03841 0.9155 0.0
C6500 C 0.22338 0.03985 0.88877 0.0
C6501 C 0.22035 0.02903 0.88875 0.0
C6502 C 0.21618 0.04775 0.8919 0.0
C6503 C 0.20587 0.04498 0.89514 0.0
C6504 C 0.20284 0.03419 0.89514 0.0
H6505 H 0.14641 0.07578 0.90776 0.0
H6506 H 0.1613 0.06353 0.90506 0.0
C6507 C 0.21001 0.0263 0.89205 0.0
C6508 C 0.19805 0.05335 0.89795 0.0
H6509 H 0.18069 0.06122 0.91724 0.0
C6510 C 0.1954 0.06093 0.89028 0.0
C6511 C 0.19286 0.05359 0.90788 0.0
C6512 C 0.19575 0.04602 0.91663 0.0
C6513 C 0.1874 0.0685 0.89213 0.0
C6514 C 0.18203 0.06855 0.90195 0.0
C6515 C 0.18482 0.06112 0.9097 0.0
C6516 C 0.17319 0.076 0.90415 0.0
C6517 C 0.1845 0.07613 0.88342 0.0
C6518 C 0.175 0.08704 0.90474 0.0
C6519 C 0.16652 0.09405 0.90625 0.0
C6520 C 0.15607 0.09014 0.90721 0.0
C6521 C 0.15434 0.07904 0.90691 0.0
C6522 C 0.16284 0.07204 0.90543 0.0
H6523 H 0.18793 0.07369 0.87568 0.0
H6524 H 0.17573 0.07668 0.88261 0.0
H6525 H 0.18758 0.0842 0.88542 0.0
H6526 H 0.18296 0.09023 0.90389 0.0
H6527 H 0.1681 0.10256 0.90637 0.0
H6528 H 0.69071 0.48021 0.64025 0.0
H6529 H 0.67319 0.47158 0.64112 0.0
H6530 H 0.68758 0.44119 0.63404 0.0
H6531 H 0.70501 0.4497 0.63311 0.0
H6532 H 0.66239 0.45984 0.6256 0.0
H6533 H 0.67033 0.43483 0.6606 0.0
H6534 H 0.6787 0.44596 0.65701 0.0
H6535 H 0.6802 0.43325 0.65047 0.0
C6536 C 0.69012 0.47169 0.63886 0.0
C6537 C 0.69927 0.46562 0.63673 0.0
C6538 C 0.68013 0.46677 0.63941 0.0
C6539 C 0.67913 0.45571 0.63787 0.0
C6540 C 0.68821 0.44968 0.63555 0.0
H6541 H 0.63313 0.4068 0.62901 0.0
H6542 H 0.64865 0.41845 0.63081 0.0
C6543 C 0.69817 0.45457 0.63502 0.0
C6544 C 0.6686 0.45041 0.63834 0.0
H6545 H 0.65537 0.42973 0.64994 0.0
C6546 C 0.66077 0.45337 0.63103 0.0
C6547 C 0.6665 0.44202 0.64547 0.0
C6548 C 0.67434 0.43889 0.65391 0.0
C6549 C 0.65111 0.44777 0.6303 0.0
C6550 C 0.64923 0.43907 0.63713 0.0
C6551 C 0.65688 0.43637 0.64469 0.0
C6552 C 0.6397 0.43219 0.63608 0.0
C6553 C 0.64317 0.45085 0.62195 0.0
C6554 C 0.62954 0.43606 0.63854 0.0
C6555 C 0.62063 0.42942 0.6375 0.0
C6556 C 0.62176 0.41881 0.63396 0.0
C6557 C 0.63198 0.41497 0.6316 0.0
C6558 C 0.64086 0.42159 0.63268 0.0
H6559 H 0.6465 0.45673 0.61629 0.0
H6560 H 0.64047 0.44369 0.61747 0.0
H6561 H 0.63611 0.45445 0.6258 0.0
H6562 H 0.62852 0.4442 0.64129 0.0
H6563 H 0.61286 0.4326 0.63934 0.0
H6564 H 0.71608 0.47712 0.13825 0.0
H6565 H 0.70308 0.46341 0.1334 0.0
H6566 H 0.71302 0.46541 0.10083 0.0
H6567 H 0.7261 0.47911 0.10564 0.0
H6568 H 0.68638 0.46584 0.11969 0.0
H6569 H 0.71289 0.43331 0.10575 0.0
H6570 H 0.71771 0.44458 0.11335 0.0
H6571 H 0.71507 0.44593 0.09946 0.0
C6572 C 0.71554 0.4746 0.13006 0.0
C6573 C 0.72211 0.4792 0.12233 0.0
C6574 C 0.70813 0.46674 0.12731 0.0
C6575 C 0.70715 0.4633 0.11677 0.0
C6576 C 0.7138 0.46777 0.10904 0.0
H6577 H 0.6606 0.42081 0.08686 0.0
H6578 H 0.6752 0.43343 0.09012 0.0
C6579 C 0.72126 0.47561 0.1118 0.0
C6580 C 0.69873 0.45551 0.11386 0.0
H6581 H 0.69439 0.43075 0.10317 0.0
C6582 C 0.68814 0.45816 0.1161 0.0
C6583 C 0.70104 0.44552 0.10911 0.0
C6584 C 0.7123 0.44209 0.10685 0.0
C6585 C 0.67979 0.4511 0.11375 0.0
C6586 C 0.6821 0.44107 0.10914 0.0
C6587 C 0.69266 0.43846 0.10671 0.0
C6588 C 0.67365 0.43306 0.10714 0.0
C6589 C 0.66853 0.45445 0.11615 0.0
C6590 C 0.66814 0.42853 0.11564 0.0
C6591 C 0.65988 0.42129 0.11383 0.0
C6592 C 0.65695 0.41843 0.10345 0.0
C6593 C 0.66269 0.42279 0.09494 0.0
C6594 C 0.671 0.43003 0.09678 0.0
H6595 H 0.66788 0.46322 0.1173 0.0
H6596 H 0.66308 0.45195 0.10968 0.0
H6597 H 0.66584 0.45052 0.12353 0.0
H6598 H 0.67021 0.43063 0.12371 0.0
H6599 H 0.6558 0.4179 0.12056 0.0
H6600 H 0.30713 0.96211 0.85399 0.0
H6601 H 0.32601 0.95735 0.85366 0.0
H6602 H 0.32304 0.9437 0.88473 0.0
H6603 H 0.30426 0.94862 0.88522 0.0
H6604 H 0.34225 0.95605 0.88122 0.0
H6605 H 0.33442 0.92542 0.85002 0.0
H6606 H 0.33024 0.93883 0.84727 0.0
H6607 H 0.32388 0.93146 0.85765 0.0
C6608 C 0.31055 0.95828 0.86084 0.0
C6609 C 0.30419 0.95563 0.86959 0.0
C6610 C 0.32131 0.95551 0.8606 0.0
C6611 C 0.32585 0.95005 0.86911 0.0
C6612 C 0.31966 0.94787 0.87807 0.0
H6613 H 0.37549 0.90594 0.87774 0.0
H6614 H 0.35924 0.91635 0.87601 0.0
C6615 C 0.30892 0.95061 0.8783 0.0
C6616 C 0.33684 0.94592 0.8685 0.0
H6617 H 0.35177 0.92649 0.85673 0.0
C6618 C 0.34441 0.94969 0.87577 0.0
C6619 C 0.33955 0.93756 0.86143 0.0
C6620 C 0.33161 0.93299 0.85368 0.0
C6621 C 0.35457 0.94514 0.87633 0.0
C6622 C 0.35719 0.93663 0.86942 0.0
C6623 C 0.34972 0.93306 0.86196 0.0
C6624 C 0.36719 0.9306 0.8705 0.0
C6625 C 0.36228 0.94908 0.88461 0.0
C6626 C 0.37705 0.93517 0.86792 0.0
C6627 C 0.38639 0.92924 0.86893 0.0
C6628 C 0.386 0.91866 0.87259 0.0
C6629 C 0.37608 0.91413 0.87509 0.0
C6630 C 0.36679 0.92003 0.87404 0.0
H6631 H 0.35856 0.95485 0.89019 0.0
H6632 H 0.36546 0.94227 0.88919 0.0
H6633 H 0.36909 0.95308 0.88069 0.0
H6634 H 0.37749 0.9433 0.86507 0.0
H6635 H 0.39392 0.93293 0.86695 0.0
H6636 H 0.19323 0.02703 0.36669 0.0
H6637 H 0.17543 0.03489 0.36563 0.0
H6638 H 0.18833 0.06549 0.37483 0.0
H6639 H 0.20602 0.05773 0.37602 0.0
H6640 H 0.16351 0.04585 0.38147 0.0
H6641 H 0.17226 0.07187 0.3473 0.0
H6642 H 0.18062 0.06079 0.35088 0.0
H6643 H 0.18173 0.07332 0.35782 0.0
C6644 C 0.19225 0.03542 0.36855 0.0
C6645 C 0.20107 0.04179 0.37132 0.0
C6646 C 0.1821 0.03989 0.36789 0.0
C6647 C 0.18062 0.05081 0.36994 0.0
C6648 C 0.18935 0.05711 0.37295 0.0
H6649 H 0.13439 0.09862 0.37834 0.0
H6650 H 0.14982 0.08702 0.3765 0.0
C6651 C 0.19946 0.05266 0.37361 0.0
C6652 C 0.16996 0.0557 0.36914 0.0
H6653 H 0.15678 0.07625 0.35749 0.0
C6654 C 0.16194 0.05237 0.37611 0.0
C6655 C 0.16795 0.06416 0.36208 0.0
C6656 C 0.17606 0.06769 0.35402 0.0
C6657 C 0.15216 0.05772 0.37664 0.0
C6658 C 0.15037 0.06652 0.36994 0.0
C6659 C 0.15821 0.06953 0.36265 0.0
C6660 C 0.14084 0.07333 0.371 0.0
C6661 C 0.14402 0.0543 0.38471 0.0
C6662 C 0.13067 0.06947 0.36843 0.0
C6663 C 0.12179 0.0761 0.36951 0.0
C6664 C 0.12296 0.08665 0.37322 0.0
C6665 C 0.13319 0.09047 0.37566 0.0
C6666 C 0.14203 0.08388 0.37454 0.0
H6667 H 0.14724 0.04833 0.3903 0.0
H6668 H 0.14115 0.06131 0.38929 0.0
H6669 H 0.13709 0.0507 0.38059 0.0
H6670 H 0.12962 0.06138 0.36555 0.0
H6671 H 0.11401 0.07294 0.36757 0.0
H6672 H 0.3833 0.18867 0.45461 0.0
H6673 H 0.38221 0.18436 0.4358 0.0
H6674 H 0.39602 0.21491 0.42821 0.0
H6675 H 0.39738 0.21921 0.44714 0.0
H6676 H 0.37155 0.19572 0.41949 0.0
H6677 H 0.4152 0.19294 0.41261 0.0
H6678 H 0.40951 0.19271 0.42572 0.0
H6679 H 0.41026 0.20501 0.41858 0.0
C6680 C 0.38619 0.19445 0.44896 0.0
C6681 C 0.39054 0.20423 0.45237 0.0
C6682 C 0.38549 0.19201 0.43821 0.0
C6683 C 0.38916 0.19926 0.43063 0.0
C6684 C 0.39329 0.20915 0.43395 0.0
H6685 H 0.39183 0.18376 0.36242 0.0
H6686 H 0.3932 0.19397 0.37903 0.0
C6687 C 0.39397 0.21162 0.44475 0.0
C6688 C 0.38864 0.19627 0.4193 0.0
H6689 H 0.40401 0.18831 0.39843 0.0
C6690 C 0.37864 0.19424 0.41483 0.0
C6691 C 0.39791 0.1944 0.41324 0.0
C6692 C 0.40886 0.1963 0.41774 0.0
C6693 C 0.37766 0.19001 0.40458 0.0
C6694 C 0.38693 0.1876 0.39874 0.0
C6695 C 0.39693 0.19015 0.40297 0.0
C6696 C 0.38639 0.1815 0.38869 0.0
C6697 C 0.3667 0.18795 0.40018 0.0
C6698 C 0.38239 0.17105 0.3887 0.0
C6699 C 0.38168 0.1652 0.37931 0.0
C6700 C 0.38497 0.16968 0.36968 0.0
C6701 C 0.38926 0.18008 0.36972 0.0
C6702 C 0.38999 0.18593 0.37917 0.0
H6703 H 0.36064 0.193 0.40416 0.0
H6704 H 0.36645 0.18949 0.39155 0.0
H6705 H 0.36453 0.17947 0.40149 0.0
H6706 H 0.37982 0.16739 0.39602 0.0
H6707 H 0.3786 0.15713 0.37962 0.0
H6708 H 0.55564 0.61942 0.23629 0.0
H6709 H 0.56515 0.62597 0.22076 0.0
H6710 H 0.55569 0.65815 0.22838 0.0
H6711 H 0.54634 0.65168 0.24412 0.0
H6712 H 0.55802 0.63817 0.2031 0.0
H6713 H 0.58853 0.65957 0.22715 0.0
H6714 H 0.57969 0.64975 0.23277 0.0
H6715 H 0.57488 0.66285 0.22977 0.0
C6716 C 0.55558 0.62789 0.23467 0.0
C6717 C 0.55033 0.63504 0.2415 0.0
C6718 C 0.56096 0.63161 0.22576 0.0
C6719 C 0.56124 0.64255 0.22352 0.0
C6720 C 0.55568 0.64969 0.23007 0.0
H6721 H 0.6027 0.67245 0.17601 0.0
H6722 H 0.58867 0.67016 0.18932 0.0
C6723 C 0.55027 0.64597 0.23899 0.0
C6724 C 0.56773 0.64642 0.21455 0.0
H6725 H 0.59068 0.65975 0.20871 0.0
C6726 C 0.5651 0.64299 0.2043 0.0
C6727 C 0.57694 0.65273 0.21615 0.0
C6728 C 0.58027 0.65641 0.22705 0.0
C6729 C 0.57158 0.64549 0.19562 0.0
C6730 C 0.58103 0.6514 0.19729 0.0
C6731 C 0.58343 0.65522 0.20747 0.0
C6732 C 0.589 0.6529 0.18879 0.0
C6733 C 0.56831 0.64168 0.18476 0.0
C6734 C 0.59387 0.64397 0.18417 0.0
C6735 C 0.60184 0.64525 0.17661 0.0
C6736 C 0.60518 0.6555 0.17356 0.0
C6737 C 0.60024 0.66446 0.17814 0.0
C6738 C 0.59226 0.66316 0.18576 0.0
H6739 H 0.55959 0.64038 0.18427 0.0
H6740 H 0.5707 0.64748 0.17858 0.0
H6741 H 0.57225 0.63396 0.18302 0.0
H6742 H 0.59164 0.63598 0.18655 0.0
H6743 H 0.6054 0.63819 0.17314 0.0
H6744 H 0.10198 0.7948 0.9494 0.0
H6745 H 0.1013 0.80269 0.93178 0.0
H6746 H 0.13338 0.7923 0.92578 0.0
H6747 H 0.13414 0.78441 0.94339 0.0
H6748 H 0.1142 0.81874 0.92453 0.0
H6749 H 0.11817 0.78294 0.89886 0.0
H6750 H 0.11484 0.7821 0.91272 0.0
H6751 H 0.12841 0.78407 0.90867 0.0
C6752 C 0.10888 0.79415 0.94431 0.0
C6753 C 0.11812 0.78898 0.9478 0.0
C6754 C 0.10845 0.79861 0.93423 0.0
C6755 C 0.11723 0.79796 0.92741 0.0
C6756 C 0.12641 0.79267 0.9308 0.0
H6757 H 0.13719 0.82789 0.8697 0.0
H6758 H 0.13516 0.81706 0.88561 0.0
C6759 C 0.12684 0.78818 0.94088 0.0
C6760 C 0.11707 0.80351 0.91709 0.0
H6761 H 0.12059 0.79984 0.89053 0.0
C6762 C 0.11547 0.81459 0.91708 0.0
C6763 C 0.11876 0.79808 0.90739 0.0
C6764 C 0.12004 0.78612 0.90686 0.0
C6765 C 0.11584 0.82044 0.90767 0.0
C6766 C 0.11769 0.81504 0.898 0.0
C6767 C 0.11916 0.80394 0.89797 0.0
C6768 C 0.11858 0.82089 0.8879 0.0
C6769 C 0.11459 0.83241 0.90819 0.0
C6770 C 0.10984 0.82641 0.88378 0.0
C6771 C 0.11099 0.83263 0.87471 0.0
C6772 C 0.12089 0.83344 0.86962 0.0
C6773 C 0.12951 0.82755 0.87354 0.0
C6774 C 0.12835 0.82131 0.88259 0.0
H6775 H 0.11539 0.83554 0.9164 0.0
H6776 H 0.1206 0.83641 0.90312 0.0
H6777 H 0.1066 0.83459 0.90524 0.0
H6778 H 0.1022 0.82606 0.88771 0.0
H6779 H 0.10422 0.83711 0.87191 0.0
H6780 H 0.95343 0.35386 0.74484 0.0
H6781 H 0.94329 0.34896 0.72901 0.0
H6782 H 0.9434 0.38187 0.71922 0.0
H6783 H 0.95361 0.38679 0.73493 0.0
H6784 H 0.9237 0.35563 0.7238 0.0
H6785 H 0.95173 0.36709 0.69209 0.0
H6786 H 0.95578 0.36592 0.70572 0.0
H6787 H 0.94937 0.37786 0.70119 0.0
C6788 C 0.95137 0.36003 0.73925 0.0
C6789 C 0.95435 0.37071 0.74111 0.0
C6790 C 0.94561 0.35721 0.7302 0.0
C6791 C 0.94273 0.36501 0.72283 0.0
C6792 C 0.94579 0.37566 0.72462 0.0
H6793 H 0.89848 0.37294 0.67258 0.0
H6794 H 0.91167 0.37434 0.68672 0.0
C6795 C 0.95161 0.37847 0.73363 0.0
C6796 C 0.93584 0.36219 0.71371 0.0
H6797 H 0.93346 0.36483 0.68695 0.0
C6798 C 0.92591 0.35748 0.71573 0.0
C6799 C 0.93874 0.36459 0.70317 0.0
C6800 C 0.94953 0.36904 0.70039 0.0
C6801 C 0.91861 0.35553 0.70755 0.0
C6802 C 0.92136 0.35832 0.69709 0.0
C6803 C 0.93139 0.36275 0.69501 0.0
C6804 C 0.91366 0.3573 0.68832 0.0
C6805 C 0.90785 0.35091 0.71018 0.0
C6806 C 0.91052 0.34723 0.68448 0.0
C6807 C 0.90298 0.34641 0.6764 0.0
C6808 C 0.89842 0.35564 0.67209 0.0
C6809 C 0.90172 0.36569 0.67587 0.0
C6810 C 0.9093 0.36651 0.68388 0.0
H6811 H 0.90644 0.35054 0.71884 0.0
H6812 H 0.90147 0.35574 0.70652 0.0
H6813 H 0.90726 0.3427 0.70689 0.0
H6814 H 0.91387 0.34004 0.68778 0.0
H6815 H 0.90056 0.33856 0.67365 0.0
H6816 H 0.38475 0.78773 0.06133 0.0
H6817 H 0.38349 0.79331 0.07991 0.0
H6818 H 0.40127 0.82187 0.0729 0.0
H6819 H 0.40246 0.81647 0.05438 0.0
H6820 H 0.40769 0.81142 0.0918 0.0
H6821 H 0.364 0.81799 0.08976 0.0
H6822 H 0.36869 0.805 0.0859 0.0
H6823 H 0.37208 0.81641 0.07806 0.0
C6824 C 0.38838 0.7952 0.06375 0.0
C6825 C 0.39369 0.80166 0.05635 0.0
C6826 C 0.38767 0.79836 0.07437 0.0
C6827 C 0.39221 0.80804 0.07774 0.0
C6828 C 0.39775 0.81435 0.07045 0.0
H6829 H 0.38084 0.85349 0.12581 0.0
H6830 H 0.38288 0.8424 0.11003 0.0
C6831 C 0.39846 0.81122 0.05987 0.0
C6832 C 0.39088 0.81196 0.08874 0.0
H6833 H 0.37251 0.82246 0.10569 0.0
C6834 C 0.39999 0.8137 0.09492 0.0
C6835 C 0.38083 0.81499 0.09272 0.0
C6836 C 0.37082 0.8136 0.08628 0.0
C6837 C 0.39934 0.8187 0.10488 0.0
C6838 C 0.38931 0.82195 0.10874 0.0
C6839 C 0.38017 0.81989 0.1027 0.0
C6840 C 0.38822 0.82847 0.11848 0.0
C6841 C 0.40941 0.82094 0.11096 0.0
C6842 C 0.39056 0.8243 0.12847 0.0
C6843 C 0.38934 0.83063 0.13757 0.0
C6844 C 0.3857 0.8412 0.13678 0.0
C6845 C 0.38346 0.84533 0.12672 0.0
C6846 C 0.38467 0.83902 0.11768 0.0
H6847 H 0.41664 0.81933 0.10617 0.0
H6848 H 0.40962 0.82938 0.11369 0.0
H6849 H 0.40964 0.8158 0.11807 0.0
H6850 H 0.39319 0.81613 0.12925 0.0
H6851 H 0.39104 0.8272 0.14521 0.0
H6852 H 0.95049 0.64094 0.76167 0.0
H6853 H 0.93749 0.64545 0.77533 0.0
H6854 H 0.96122 0.6409 0.7994 0.0
H6855 H 0.97427 0.63612 0.7858 0.0
H6856 H 0.93162 0.63152 0.79283 0.0
H6857 H 0.94777 0.67083 0.80598 0.0
H6858 H 0.95106 0.66494 0.79332 0.0
H6859 H 0.95703 0.65995 0.80516 0.0
C6860 C 0.95296 0.64083 0.76987 0.0
C6861 C 0.96343 0.63809 0.77263 0.0
C6862 C 0.94553 0.64349 0.77765 0.0
C6863 C 0.94843 0.64359 0.78834 0.0
C6864 C 0.95889 0.64103 0.79116 0.0
H6865 H 0.91239 0.65606 0.8459 0.0
H6866 H 0.92644 0.65281 0.83286 0.0
C6867 C 0.96633 0.63831 0.78338 0.0
C6868 C 0.94033 0.64587 0.79654 0.0
H6869 H 0.933 0.66405 0.81537 0.0
C6870 C 0.9319 0.63864 0.79776 0.0
C6871 C 0.94079 0.65512 0.80298 0.0
C6872 C 0.94959 0.66323 0.8018 0.0
C6873 C 0.92392 0.64036 0.80532 0.0
C6874 C 0.92424 0.64972 0.81164 0.0
C6875 C 0.93275 0.65691 0.81049 0.0
C6876 C 0.91578 0.65219 0.81945 0.0
C6877 C 0.91534 0.63202 0.80661 0.0
C6878 C 0.90518 0.65319 0.81621 0.0
C6879 C 0.89715 0.65501 0.82364 0.0
C6880 C 0.89959 0.65601 0.83444 0.0
C6881 C 0.91027 0.65539 0.83763 0.0
C6882 C 0.91829 0.65349 0.8302 0.0
H6883 H 0.91789 0.62413 0.80347 0.0
H6884 H 0.91308 0.63109 0.81504 0.0
H6885 H 0.90819 0.63448 0.80214 0.0
H6886 H 0.90309 0.6525 0.80793 0.0
H6887 H 0.88902 0.65564 0.82093 0.0
H6888 H 0.10386 0.21605 0.56043 0.0
H6889 H 0.10303 0.21227 0.57941 0.0
H6890 H 0.13345 0.19664 0.5775 0.0
H6891 H 0.13443 0.20058 0.55864 0.0
H6892 H 0.1029 0.19186 0.5876 0.0
H6893 H 0.13659 0.21499 0.60414 0.0
H6894 H 0.13098 0.21773 0.5913 0.0
H6895 H 0.1404 0.20709 0.59288 0.0
C6896 C 0.11049 0.21205 0.56412 0.0
C6897 C 0.1192 0.20858 0.55805 0.0
C6898 C 0.10998 0.20985 0.57494 0.0
C6899 C 0.11824 0.20429 0.57989 0.0
C6900 C 0.12709 0.20113 0.5739 0.0
H6901 H 0.12272 0.15913 0.62812 0.0
H6902 H 0.12044 0.16984 0.61222 0.0
C6903 C 0.12758 0.20327 0.5631 0.0
C6904 C 0.11719 0.20077 0.591 0.0
H6905 H 0.13049 0.20002 0.61449 0.0
C6906 C 0.10881 0.19382 0.59355 0.0
C6907 C 0.12483 0.20342 0.59879 0.0
C6908 C 0.13364 0.21131 0.59668 0.0
C6909 C 0.10828 0.1889 0.60346 0.0
C6910 C 0.11637 0.19092 0.61095 0.0
C6911 C 0.12435 0.19841 0.60867 0.0
C6912 C 0.11727 0.18454 0.6207 0.0
C6913 C 0.09925 0.1813 0.60573 0.0
C6914 C 0.11633 0.18931 0.63073 0.0
C6915 C 0.11763 0.18318 0.63986 0.0
C6916 C 0.12006 0.17226 0.63905 0.0
C6917 C 0.12094 0.16755 0.62897 0.0
C6918 C 0.11956 0.17363 0.6199 0.0
H6919 H 0.0923 0.18284 0.60056 0.0
H6920 H 0.10193 0.173 0.60425 0.0
H6921 H 0.09669 0.18193 0.61412 0.0
H6922 H 0.11464 0.19775 0.63148 0.0
H6923 H 0.11697 0.18701 0.64753 0.0
H6924 H 0.57022 0.37316 0.25909 0.0
H6925 H 0.58005 0.36717 0.27456 0.0
H6926 H 0.55104 0.36645 0.29271 0.0
H6927 H 0.5411 0.37258 0.27722 0.0
H6928 H 0.58082 0.37838 0.29424 0.0
H6929 H 0.56509 0.33704 0.29852 0.0
H6930 H 0.56387 0.34445 0.28638 0.0
H6931 H 0.55547 0.34756 0.29744 0.0
C6932 C 0.56591 0.37176 0.26637 0.0
C6933 C 0.55488 0.37344 0.26695 0.0
C6934 C 0.57154 0.36827 0.27518 0.0
C6935 C 0.56626 0.3663 0.28474 0.0
C6936 C 0.55523 0.36776 0.28534 0.0
H6937 H 0.59428 0.34903 0.34573 0.0
H6938 H 0.58154 0.35279 0.33157 0.0
C6939 C 0.54957 0.37127 0.2765 0.0
C6940 C 0.57253 0.36332 0.29417 0.0
H6941 H 0.57763 0.34291 0.31119 0.0
C6942 C 0.58009 0.37064 0.29797 0.0
C6943 C 0.57149 0.35325 0.29906 0.0
C6944 C 0.5636 0.34506 0.29514 0.0
C6945 C 0.58677 0.36812 0.30644 0.0
C6946 C 0.58601 0.35792 0.3111 0.0
C6947 C 0.57823 0.3507 0.30753 0.0
C6948 C 0.59353 0.35457 0.31944 0.0
C6949 C 0.5946 0.37641 0.31033 0.0
C6950 C 0.60442 0.35395 0.3172 0.0
C6951 C 0.61168 0.3518 0.32522 0.0
C6952 C 0.60818 0.35015 0.33565 0.0
C6953 C 0.59721 0.35022 0.33777 0.0
C6954 C 0.58993 0.3524 0.32971 0.0
H6955 H 0.59225 0.38459 0.30794 0.0
H6956 H 0.59532 0.37622 0.31908 0.0
H6957 H 0.60253 0.37475 0.30687 0.0
H6958 H 0.60733 0.35537 0.30926 0.0
H6959 H 0.62007 0.3516 0.32331 0.0
H6960 H 0.45679 0.40815 0.20796 0.0
H6961 H 0.43924 0.40873 0.1997 0.0
H6962 H 0.43297 0.3766 0.21005 0.0
H6963 H 0.45052 0.37594 0.21831 0.0
H6964 H 0.43236 0.39532 0.18366 0.0
H6965 H 0.40575 0.39216 0.21851 0.0
H6966 H 0.41966 0.39559 0.21965 0.0
H6967 H 0.41567 0.38192 0.21775 0.0
C6968 C 0.45165 0.40122 0.20853 0.0
C6969 C 0.45506 0.39199 0.21377 0.0
C6970 C 0.44161 0.40159 0.20385 0.0
C6971 C 0.43475 0.39276 0.20437 0.0
C6972 C 0.43804 0.38359 0.20976 0.0
H6973 H 0.37592 0.37429 0.1742 0.0
H6974 H 0.39198 0.37566 0.18503 0.0
C6975 C 0.44808 0.38323 0.21446 0.0
C6976 C 0.42452 0.39286 0.19858 0.0
H6977 H 0.39769 0.38996 0.20159 0.0
C6978 C 0.42477 0.39425 0.18759 0.0
C6979 C 0.41464 0.3914 0.20373 0.0
C6980 C 0.41386 0.39028 0.21557 0.0
C6981 C 0.41543 0.39398 0.18155 0.0
C6982 C 0.40555 0.39247 0.18668 0.0
C6983 C 0.40528 0.39114 0.19769 0.0
C6984 C 0.39546 0.39196 0.18067 0.0
C6985 C 0.41625 0.39499 0.16969 0.0
C6986 C 0.39198 0.40076 0.17484 0.0
C6987 C 0.38285 0.39998 0.16858 0.0
C6988 C 0.37702 0.3904 0.1681 0.0
C6989 C 0.38033 0.38173 0.17428 0.0
C6990 C 0.38946 0.38251 0.18052 0.0
H6991 H 0.42447 0.39356 0.16681 0.0
H6992 H 0.41082 0.38927 0.16566 0.0
H6993 H 0.41394 0.40318 0.16736 0.0
H6994 H 0.39642 0.40818 0.17498 0.0
H6995 H 0.38056 0.40679 0.16388 0.0
H6996 H 0.3541 0.72743 0.97566 0.0
H6997 H 0.34909 0.71355 0.96279 0.0
H6998 H 0.38139 0.71246 0.95146 0.0
H6999 H 0.38648 0.72618 0.96434 0.0
H7000 H 0.35187 0.71491 0.93995 0.0
H7001 H 0.37345 0.68079 0.95752 0.0
H7002 H 0.37023 0.69272 0.96495 0.0
H7003 H 0.38126 0.69271 0.95592 0.0
C7004 C 0.36015 0.72412 0.97052 0.0
C7005 C 0.37069 0.72788 0.97101 0.0
C7006 C 0.35727 0.71625 0.96315 0.0
C7007 C 0.36489 0.71192 0.95627 0.0
C7008 C 0.37542 0.7156 0.9568 0.0
H7009 H 0.36928 0.66747 0.90473 0.0
H7010 H 0.37191 0.68035 0.91905 0.0
C7011 C 0.37829 0.7235 0.9641 0.0
C7012 C 0.36184 0.70384 0.94823 0.0
H7013 H 0.3669 0.67837 0.94004 0.0
C7014 C 0.35505 0.70687 0.94 0.0
C7015 C 0.36603 0.6934 0.94834 0.0
C7016 C 0.37308 0.68964 0.9572 0.0
C7017 C 0.35265 0.69984 0.93163 0.0
C7018 C 0.357 0.68944 0.93165 0.0
C7019 C 0.3636 0.68635 0.94002 0.0
C7020 C 0.35521 0.68177 0.92284 0.0
C7021 C 0.34585 0.70375 0.92265 0.0
C7022 C 0.34494 0.67824 0.92024 0.0
C7023 C 0.34338 0.67097 0.91193 0.0
C7024 C 0.35209 0.66703 0.90613 0.0
C7025 C 0.36238 0.6705 0.90887 0.0
C7026 C 0.36391 0.67779 0.91713 0.0
H7027 H 0.34535 0.7126 0.92256 0.0
H7028 H 0.34902 0.70097 0.91491 0.0
H7029 H 0.33768 0.70054 0.92356 0.0
H7030 H 0.33812 0.68104 0.92467 0.0
H7031 H 0.33536 0.66849 0.91 0.0
H7032 H 0.05128 0.63312 0.7084 0.0
H7033 H 0.07023 0.63466 0.70427 0.0
H7034 H 0.07012 0.60248 0.69198 0.0
H7035 H 0.05129 0.60073 0.69643 0.0
H7036 H 0.08846 0.60757 0.70378 0.0
H7037 H 0.07968 0.63825 0.67347 0.0
H7038 H 0.07514 0.64134 0.6866 0.0
H7039 H 0.06941 0.63026 0.67951 0.0
C7040 C 0.05534 0.62629 0.70502 0.0
C7041 C 0.04974 0.61685 0.70261 0.0
C7042 C 0.06614 0.62722 0.70257 0.0
C7043 C 0.07151 0.61876 0.69762 0.0
C7044 C 0.06609 0.60914 0.69572 0.0
H7045 H 0.12939 0.60599 0.66424 0.0
H7046 H 0.11315 0.60492 0.6748 0.0
C7047 C 0.05532 0.60819 0.69819 0.0
C7048 C 0.08257 0.62007 0.6938 0.0
H7049 H 0.09756 0.63351 0.67572 0.0
C7050 C 0.09048 0.61329 0.6977 0.0
C7051 C 0.08517 0.62752 0.68584 0.0
C7052 C 0.07691 0.63471 0.68102 0.0
C7053 C 0.10093 0.61372 0.6938 0.0
C7054 C 0.10346 0.62101 0.68568 0.0
C7055 C 0.0956 0.62796 0.68197 0.0
C7056 C 0.11401 0.62125 0.68046 0.0
C7057 C 0.10917 0.60638 0.6984 0.0
C7058 C 0.11989 0.63077 0.68013 0.0
C7059 C 0.12916 0.63141 0.67407 0.0
C7060 C 0.13268 0.62255 0.66817 0.0
C7061 C 0.12698 0.61291 0.66881 0.0
C7062 C 0.1177 0.61228 0.67487 0.0
H7063 H 0.1069 0.6037 0.70645 0.0
H7064 H 0.1099 0.5992 0.69328 0.0
H7065 H 0.11706 0.61035 0.69882 0.0
H7066 H 0.11716 0.63779 0.68435 0.0
H7067 H 0.13345 0.63891 0.67383 0.0
H7068 H 0.1535 0.28379 0.48186 0.0
H7069 H 0.15888 0.29772 0.46943 0.0
H7070 H 0.13014 0.2925 0.45158 0.0
H7071 H 0.12455 0.27883 0.46411 0.0
H7072 H 0.16244 0.29551 0.44787 0.0
H7073 H 0.13049 0.32482 0.45563 0.0
H7074 H 0.13327 0.31392 0.46446 0.0
H7075 H 0.12551 0.3117 0.45271 0.0
C7076 C 0.14823 0.28575 0.4754 0.0
C7077 C 0.13858 0.28022 0.47399 0.0
C7078 C 0.15136 0.29365 0.46827 0.0
C7079 C 0.14485 0.29623 0.45967 0.0
C7080 C 0.1352 0.29077 0.45827 0.0
H7081 H 0.15859 0.32437 0.39965 0.0
H7082 H 0.15606 0.31265 0.41482 0.0
C7083 C 0.13207 0.28287 0.46538 0.0
C7084 C 0.14831 0.3043 0.45186 0.0
H7085 H 0.14049 0.32719 0.43971 0.0
C7086 C 0.15771 0.30251 0.44616 0.0
C7087 C 0.14221 0.3135 0.44975 0.0
C7088 C 0.13236 0.31618 0.45603 0.0
C7089 C 0.16096 0.30945 0.4381 0.0
C7090 C 0.15454 0.31831 0.43558 0.0
C7091 C 0.14536 0.32034 0.44158 0.0
C7092 C 0.1569 0.32534 0.42649 0.0
C7093 C 0.17122 0.30721 0.43234 0.0
C7094 C 0.1581 0.33639 0.42799 0.0
C7095 C 0.15942 0.34313 0.41932 0.0
C7096 C 0.1595 0.33894 0.40897 0.0
C7097 C 0.15851 0.32785 0.40752 0.0
C7098 C 0.15718 0.32112 0.41619 0.0
H7099 H 0.17668 0.30232 0.4372 0.0
H7100 H 0.16947 0.30268 0.42497 0.0
H7101 H 0.17535 0.31473 0.43016 0.0
H7102 H 0.15782 0.33981 0.43588 0.0
H7103 H 0.16 0.35165 0.42071 0.0
H7104 H 0.44971 0.63333 0.29286 0.0
H7105 H 0.43203 0.6328 0.30094 0.0
H7106 H 0.43653 0.59969 0.30876 0.0
H7107 H 0.45422 0.60015 0.30072 0.0
H7108 H 0.41403 0.61993 0.29703 0.0
H7109 H 0.43007 0.61367 0.3374 0.0
H7110 H 0.43834 0.61771 0.32646 0.0
H7111 H 0.43435 0.60399 0.32779 0.0
C7112 C 0.44688 0.6259 0.29618 0.0
C7113 C 0.4534 0.6168 0.29624 0.0
C7114 C 0.4368 0.62562 0.30082 0.0
C7115 C 0.43307 0.61626 0.30561 0.0
C7116 C 0.43937 0.60706 0.30532 0.0
H7117 H 0.37715 0.60188 0.34333 0.0
H7118 H 0.39305 0.60065 0.33225 0.0
C7119 C 0.44946 0.60734 0.30072 0.0
C7120 C 0.42271 0.61622 0.31119 0.0
H7121 H 0.41141 0.61291 0.3355 0.0
C7122 C 0.41344 0.6184 0.30544 0.0
C7123 C 0.42198 0.61425 0.32217 0.0
C7124 C 0.43171 0.61237 0.32886 0.0
C7125 C 0.40343 0.61853 0.31037 0.0
C7126 C 0.40273 0.61657 0.32134 0.0
C7127 C 0.41198 0.61435 0.32707 0.0
C7128 C 0.39253 0.61709 0.32717 0.0
C7129 C 0.39369 0.62062 0.30378 0.0
C7130 C 0.38694 0.62673 0.32794 0.0
C7131 C 0.37783 0.62745 0.33423 0.0
C7132 C 0.37417 0.61854 0.33991 0.0
C7133 C 0.37967 0.60884 0.33894 0.0
C7134 C 0.38879 0.60813 0.33267 0.0
H7135 H 0.39521 0.61917 0.29523 0.0
H7136 H 0.38694 0.6155 0.30632 0.0
H7137 H 0.39131 0.62908 0.30479 0.0
H7138 H 0.38979 0.63378 0.32391 0.0
H7139 H 0.37373 0.63501 0.33476 0.0
H7140 H 0.14182 0.74604 0.06157 0.0
H7141 H 0.14815 0.7306 0.07134 0.0
H7142 H 0.14328 0.71061 0.04388 0.0
H7143 H 0.13681 0.72608 0.03401 0.0
H7144 H 0.13538 0.71195 0.07464 0.0
H7145 H 0.17368 0.70272 0.05453 0.0
H7146 H 0.16739 0.71562 0.05357 0.0
H7147 H 0.16217 0.70445 0.04629 0.0
C7148 C 0.1421 0.73836 0.05758 0.0
C7149 C 0.1387 0.73726 0.04704 0.0
C7150 C 0.14578 0.72957 0.06316 0.0
C7151 C 0.14624 0.71948 0.05832 0.0
C7152 C 0.14315 0.71836 0.04771 0.0
H7153 H 0.16029 0.65845 0.08887 0.0
H7154 H 0.15687 0.67203 0.07539 0.0
C7155 C 0.13944 0.7272 0.04209 0.0
C7156 C 0.14918 0.71011 0.06474 0.0
H7157 H 0.16853 0.69148 0.06858 0.0
C7158 C 0.1426 0.70744 0.07328 0.0
C7159 C 0.15856 0.7042 0.06287 0.0
C7160 C 0.16593 0.70688 0.05386 0.0
C7161 C 0.14524 0.69915 0.08016 0.0
C7162 C 0.15481 0.6935 0.07856 0.0
C7163 C 0.16124 0.6959 0.0698 0.0
C7164 C 0.15836 0.68538 0.08622 0.0
C7165 C 0.13776 0.69653 0.08912 0.0
C7166 C 0.16074 0.68845 0.09663 0.0
C7167 C 0.16269 0.68076 0.10431 0.0
C7168 C 0.16235 0.66984 0.10169 0.0
C7169 C 0.16064 0.6668 0.0911 0.0
C7170 C 0.15866 0.67453 0.08341 0.0
H7171 H 0.12965 0.69965 0.08768 0.0
H7172 H 0.13725 0.68778 0.09034 0.0
H7173 H 0.14079 0.70024 0.09653 0.0
H7174 H 0.16072 0.6968 0.09891 0.0
H7175 H 0.16414 0.68334 0.11237 0.0
H7176 H 0.05612 0.37715 0.78974 0.0
H7177 H 0.07371 0.3779 0.79793 0.0
H7178 H 0.06874 0.41096 0.80614 0.0
H7179 H 0.05114 0.41029 0.79795 0.0
H7180 H 0.09161 0.39108 0.79432 0.0
H7181 H 0.07497 0.39692 0.83468 0.0
H7182 H 0.0669 0.39279 0.82359 0.0
H7183 H 0.07076 0.40654 0.8251 0.0
C7184 C 0.05883 0.38463 0.79314 0.0
C7185 C 0.0522 0.39364 0.79327 0.0
C7186 C 0.06886 0.38503 0.79786 0.0
C7187 C 0.07244 0.39443 0.8028 0.0
C7188 C 0.06603 0.40356 0.80257 0.0
H7189 H 0.12801 0.40672 0.84225 0.0
H7190 H 0.11236 0.40894 0.831 0.0
C7191 C 0.05599 0.40316 0.79789 0.0
C7192 C 0.08273 0.39455 0.80848 0.0
H7193 H 0.09363 0.39728 0.83306 0.0
C7194 C 0.09208 0.39246 0.80279 0.0
C7195 C 0.08328 0.39635 0.81952 0.0
C7196 C 0.07345 0.39819 0.82613 0.0
C7197 C 0.102 0.39216 0.80785 0.0
C7198 C 0.10253 0.39382 0.81891 0.0
C7199 C 0.0932 0.39606 0.82457 0.0
C7200 C 0.11258 0.39278 0.82489 0.0
C7201 C 0.11182 0.39013 0.80131 0.0
C7202 C 0.1179 0.38297 0.82515 0.0
C7203 C 0.12685 0.38169 0.83152 0.0
C7204 C 0.13062 0.39019 0.83782 0.0
C7205 C 0.12539 0.40007 0.83739 0.0
C7206 C 0.11642 0.40134 0.83102 0.0
H7207 H 0.11052 0.39207 0.79285 0.0
H7208 H 0.11866 0.39489 0.80429 0.0
H7209 H 0.11393 0.38156 0.80179 0.0
H7210 H 0.11495 0.3762 0.82064 0.0
H7211 H 0.13075 0.374 0.83162 0.0
H7212 H 0.36292 0.2676 0.54688 0.0
H7213 H 0.35748 0.28136 0.55951 0.0
H7214 H 0.36365 0.30565 0.5363 0.0
H7215 H 0.36929 0.29191 0.52361 0.0
H7216 H 0.37109 0.29857 0.56627 0.0
H7217 H 0.33353 0.31289 0.54817 0.0
H7218 H 0.33927 0.3001 0.54487 0.0
H7219 H 0.34494 0.31211 0.53962 0.0
C7220 C 0.36314 0.27586 0.54444 0.0
C7221 C 0.36663 0.27866 0.53425 0.0
C7222 C 0.35996 0.2837 0.55165 0.0
C7223 C 0.36009 0.29449 0.54881 0.0
C7224 C 0.36332 0.29734 0.53858 0.0
H7225 H 0.34846 0.3521 0.58607 0.0
H7226 H 0.35133 0.33932 0.57158 0.0
C7227 C 0.36655 0.28948 0.53135 0.0
C7228 C 0.35753 0.30275 0.55684 0.0
H7229 H 0.33953 0.32199 0.56349 0.0
C7230 C 0.36418 0.30369 0.56568 0.0
C7231 C 0.34858 0.30945 0.55596 0.0
C7232 C 0.34109 0.30859 0.54669 0.0
C7233 C 0.36213 0.31117 0.57371 0.0
C7234 C 0.35303 0.31771 0.57299 0.0
C7235 C 0.34646 0.3169 0.56405 0.0
C7236 C 0.35023 0.32537 0.58152 0.0
C7237 C 0.36984 0.31211 0.5828 0.0
C7238 C 0.34828 0.32173 0.59181 0.0
C7239 C 0.34667 0.32899 0.60007 0.0
C7240 C 0.34685 0.34003 0.59817 0.0
C7241 C 0.34822 0.34364 0.58776 0.0
C7242 C 0.3499 0.33636 0.57949 0.0
H7243 H 0.37775 0.30876 0.58073 0.0
H7244 H 0.37091 0.32056 0.58529 0.0
H7245 H 0.36671 0.30757 0.58964 0.0
H7246 H 0.34824 0.31327 0.59349 0.0
H7247 H 0.34546 0.32598 0.60799 0.0
H7248 H 0.18962 0.45761 0.38633 0.0
H7249 H 0.18632 0.43842 0.38579 0.0
H7250 H 0.21674 0.4328 0.40033 0.0
H7251 H 0.22001 0.45213 0.40116 0.0
H7252 H 0.19848 0.42209 0.37596 0.0
H7253 H 0.1954 0.41687 0.4196 0.0
H7254 H 0.19473 0.42983 0.4135 0.0
H7255 H 0.20725 0.42312 0.41457 0.0
C7256 C 0.19559 0.45232 0.3895 0.0
C7257 C 0.20502 0.4564 0.39391 0.0
C7258 C 0.19372 0.44135 0.38911 0.0
C7259 C 0.20123 0.43421 0.39313 0.0
C7260 C 0.21079 0.4382 0.39731 0.0
H7261 H 0.18708 0.36517 0.39806 0.0
H7262 H 0.19738 0.38188 0.39846 0.0
C7263 C 0.21267 0.44922 0.3977 0.0
C7264 C 0.19881 0.42264 0.39298 0.0
H7265 H 0.19137 0.402 0.40891 0.0
C7266 C 0.19709 0.41764 0.38317 0.0
C7267 C 0.19706 0.41684 0.40239 0.0
C7268 C 0.19863 0.4219 0.41314 0.0
C7269 C 0.19321 0.40716 0.38251 0.0
C7270 C 0.19086 0.40159 0.39192 0.0
C7271 C 0.19317 0.40633 0.40173 0.0
C7272 C 0.18486 0.39142 0.3917 0.0
C7273 C 0.19134 0.40222 0.37176 0.0
C7274 C 0.17438 0.39135 0.38798 0.0
C7275 C 0.16847 0.38192 0.38785 0.0
C7276 C 0.17292 0.37232 0.39141 0.0
C7277 C 0.18341 0.37243 0.39529 0.0
C7278 C 0.18932 0.38194 0.39547 0.0
H7279 H 0.19627 0.40611 0.3656 0.0
H7280 H 0.19311 0.39354 0.3718 0.0
H7281 H 0.18287 0.40323 0.36957 0.0
H7282 H 0.17071 0.39865 0.38528 0.0
H7283 H 0.16034 0.38221 0.38509 0.0
H7284 H 0.68906 0.04777 0.61599 0.0
H7285 H 0.68495 0.06678 0.61632 0.0
H7286 H 0.71719 0.07417 0.60736 0.0
H7287 H 0.72136 0.05503 0.60681 0.0
H7288 H 0.69568 0.08298 0.62901 0.0
H7289 H 0.69799 0.09047 0.58567 0.0
H7290 H 0.69632 0.07721 0.59094 0.0
H7291 H 0.70896 0.08378 0.59187 0.0
C7292 C 0.69526 0.05341 0.61395 0.0
C7293 C 0.70551 0.04989 0.61127 0.0
C7294 C 0.69292 0.06427 0.61422 0.0
C7295 C 0.70074 0.07185 0.61176 0.0
C7296 C 0.71102 0.06842 0.60915 0.0
H7297 H 0.68816 0.14109 0.6092 0.0
H7298 H 0.6976 0.12397 0.60814 0.0
C7299 C 0.7134 0.05751 0.60893 0.0
C7300 C 0.698 0.08332 0.61216 0.0
H7301 H 0.69237 0.10469 0.59652 0.0
C7302 C 0.69508 0.08778 0.62193 0.0
C7303 C 0.69731 0.08956 0.60291 0.0
C7304 C 0.70025 0.08506 0.59221 0.0
C7305 C 0.69114 0.0982 0.62267 0.0
C7306 C 0.68989 0.10424 0.61335 0.0
C7307 C 0.6933 0.1 0.60363 0.0
C7308 C 0.68421 0.11457 0.61349 0.0
C7309 C 0.68816 0.1026 0.6334 0.0
C7310 C 0.6735 0.11487 0.61654 0.0
C7311 C 0.66812 0.12456 0.61709 0.0
C7312 C 0.67331 0.13417 0.61459 0.0
C7313 C 0.68395 0.13382 0.61117 0.0
C7314 C 0.68935 0.12407 0.6106 0.0
H7315 H 0.69243 0.09841 0.63983 0.0
H7316 H 0.68994 0.11127 0.63398 0.0
H7317 H 0.67951 0.10145 0.63468 0.0
H7318 H 0.66932 0.10759 0.61854 0.0
H7319 H 0.65986 0.12452 0.61951 0.0
H7320 H 0.71568 0.97676 0.3743 0.0
H7321 H 0.70184 0.96371 0.36976 0.0
H7322 H 0.72586 0.94063 0.36169 0.0
H7323 H 0.73974 0.95365 0.36592 0.0
H7324 H 0.69924 0.95104 0.34934 0.0
H7325 H 0.70629 0.92672 0.38528 0.0
H7326 H 0.7104 0.94051 0.38433 0.0
H7327 H 0.71784 0.93029 0.37767 0.0
C7328 C 0.71803 0.96897 0.37142 0.0
C7329 C 0.72883 0.96623 0.37058 0.0
C7330 C 0.71011 0.96151 0.36888 0.0
C7331 C 0.71286 0.9512 0.36552 0.0
C7332 C 0.7236 0.94852 0.36441 0.0
H7333 H 0.67897 0.89223 0.35355 0.0
H7334 H 0.69228 0.90632 0.35599 0.0
C7335 C 0.73151 0.95596 0.36689 0.0
C7336 C 0.70453 0.94311 0.3634 0.0
H7337 H 0.69426 0.91976 0.37269 0.0
C7338 C 0.69809 0.94422 0.35444 0.0
C7339 C 0.70313 0.93423 0.37008 0.0
C7340 C 0.70971 0.93284 0.37993 0.0
C7341 C 0.69038 0.93649 0.35185 0.0
C7342 C 0.68895 0.92759 0.35855 0.0
C7343 C 0.69538 0.92657 0.36755 0.0
C7344 C 0.68087 0.9192 0.35641 0.0
C7345 C 0.68407 0.93778 0.34181 0.0
C7346 C 0.67004 0.92175 0.35584 0.0
C7347 C 0.66243 0.91372 0.3544 0.0
C7348 C 0.66551 0.90296 0.35366 0.0
C7349 C 0.67636 0.90043 0.35418 0.0
C7350 C 0.68397 0.90847 0.35554 0.0
H7351 H 0.68813 0.94319 0.33616 0.0
H7352 H 0.68269 0.92996 0.33785 0.0
H7353 H 0.67623 0.94131 0.34375 0.0
H7354 H 0.66744 0.92993 0.35676 0.0
H7355 H 0.65411 0.91588 0.35419 0.0
H7356 H 0.78568 0.94921 0.13029 0.0
H7357 H 0.79368 0.93144 0.12937 0.0
H7358 H 0.80349 0.93732 0.09725 0.0
H7359 H 0.79553 0.95508 0.0981 0.0
H7360 H 0.79024 0.91399 0.11567 0.0
H7361 H 0.83134 0.92983 0.11204 0.0
H7362 H 0.82027 0.9381 0.11591 0.0
H7363 H 0.82231 0.93469 0.10223 0.0
C7364 C 0.78943 0.94667 0.12298 0.0
C7365 C 0.79006 0.95359 0.11429 0.0
C7366 C 0.79403 0.93653 0.12249 0.0
C7367 C 0.79934 0.93315 0.11331 0.0
C7368 C 0.79964 0.93987 0.10449 0.0
H7369 H 0.83661 0.87712 0.09732 0.0
H7370 H 0.82601 0.89344 0.09674 0.0
C7371 C 0.79509 0.95001 0.10499 0.0
C7372 C 0.80478 0.92268 0.11304 0.0
H7373 H 0.82915 0.91116 0.11011 0.0
C7374 C 0.79875 0.91336 0.11447 0.0
C7375 C 0.81589 0.92189 0.1115 0.0
C7376 C 0.82287 0.93165 0.11043 0.0
C7377 C 0.80351 0.90324 0.11425 0.0
C7378 C 0.81461 0.90247 0.11269 0.0
C7379 C 0.82063 0.91178 0.11124 0.0
C7380 C 0.82024 0.89211 0.1128 0.0
C7381 C 0.79662 0.89345 0.11553 0.0
C7382 C 0.82046 0.88594 0.12201 0.0
C7383 C 0.82648 0.87659 0.12235 0.0
C7384 C 0.83241 0.87327 0.1135 0.0
C7385 C 0.83201 0.87938 0.10422 0.0
C7386 C 0.82601 0.88873 0.1039 0.0
H7387 H 0.78813 0.89519 0.11392 0.0
H7388 H 0.79926 0.88693 0.11016 0.0
H7389 H 0.79725 0.89057 0.12378 0.0
H7390 H 0.81621 0.88849 0.12903 0.0
H7391 H 0.82658 0.87203 0.12959 0.0
H7392 H 0.2775 0.54962 0.38968 0.0
H7393 H 0.2914 0.56226 0.38462 0.0
H7394 H 0.29757 0.54389 0.35634 0.0
H7395 H 0.28343 0.53133 0.36119 0.0
H7396 H 0.31305 0.55879 0.38075 0.0
H7397 H 0.29231 0.57425 0.34524 0.0
H7398 H 0.28562 0.56644 0.35519 0.0
H7399 H 0.29402 0.56002 0.3456 0.0
C7400 C 0.28176 0.5483 0.38234 0.0
C7401 C 0.27929 0.53952 0.37578 0.0
C7402 C 0.28974 0.55549 0.3795 0.0
C7403 C 0.2954 0.55409 0.37004 0.0
C7404 C 0.29317 0.5452 0.3636 0.0
H7405 H 0.3529 0.59049 0.35501 0.0
H7406 H 0.34014 0.57599 0.35781 0.0
C7407 C 0.28517 0.53798 0.36644 0.0
C7408 C 0.30359 0.56201 0.36697 0.0
H7409 H 0.30951 0.58102 0.34864 0.0
C7410 C 0.31232 0.56362 0.3737 0.0
C7411 C 0.30253 0.56837 0.35784 0.0
C7412 C 0.29308 0.56729 0.35057 0.0
C7413 C 0.32001 0.57146 0.37156 0.0
C7414 C 0.319 0.57774 0.36237 0.0
C7415 C 0.3103 0.57611 0.35562 0.0
C7416 C 0.32663 0.58641 0.35993 0.0
C7417 C 0.32895 0.57318 0.37933 0.0
C7418 C 0.32318 0.59704 0.35983 0.0
C7419 C 0.33042 0.60534 0.35813 0.0
C7420 C 0.34125 0.60315 0.35644 0.0
C7421 C 0.34461 0.59245 0.35621 0.0
C7422 C 0.33735 0.58416 0.35792 0.0
H7423 H 0.3273 0.56934 0.38706 0.0
H7424 H 0.33634 0.56965 0.37606 0.0
H7425 H 0.33039 0.58182 0.38069 0.0
H7426 H 0.31492 0.59894 0.3613 0.0
H7427 H 0.32756 0.61348 0.35821 0.0
H7428 H 0.29645 0.55279 0.90919 0.0
H7429 H 0.30449 0.57059 0.90994 0.0
H7430 H 0.29294 0.57703 0.87855 0.0
H7431 H 0.28487 0.55926 0.87774 0.0
H7432 H 0.32001 0.57804 0.89664 0.0
H7433 H 0.28452 0.60401 0.89455 0.0
H7434 H 0.28366 0.58997 0.8976 0.0
H7435 H 0.28517 0.59423 0.88413 0.0
C7436 C 0.29557 0.55802 0.90247 0.0
C7437 C 0.29003 0.55461 0.8934 0.0
C7438 C 0.30012 0.5682 0.90293 0.0
C7439 C 0.29919 0.57519 0.89436 0.0
C7440 C 0.29353 0.57188 0.88536 0.0
H7441 H 0.32862 0.63438 0.87567 0.0
H7442 H 0.31785 0.61815 0.87726 0.0
C7443 C 0.28894 0.5617 0.8849 0.0
C7444 C 0.30483 0.5856 0.89453 0.0
H7445 H 0.30133 0.61247 0.89192 0.0
C7446 C 0.31592 0.58558 0.89572 0.0
C7447 C 0.29947 0.59541 0.89328 0.0
C7448 C 0.28754 0.59596 0.89242 0.0
C7449 C 0.32183 0.59509 0.89542 0.0
C7450 C 0.31648 0.60489 0.89407 0.0
C7451 C 0.30539 0.60493 0.89297 0.0
C7452 C 0.32236 0.61512 0.89346 0.0
C7453 C 0.33378 0.59453 0.89623 0.0
C7454 C 0.32825 0.61891 0.90212 0.0
C7455 C 0.33445 0.62814 0.90122 0.0
C7456 C 0.33484 0.63376 0.89164 0.0
C7457 C 0.3286 0.63014 0.8831 0.0
C7458 C 0.3224 0.62092 0.88402 0.0
H7459 H 0.33677 0.5863 0.89489 0.0
H7460 H 0.3376 0.59993 0.89042 0.0
H7461 H 0.33626 0.59713 0.90427 0.0
H7462 H 0.3282 0.61461 0.90953 0.0
H7463 H 0.33921 0.63067 0.90792 0.0
H7464 H 0.73735 0.04899 0.14929 0.0
H7465 H 0.72151 0.05882 0.15494 0.0
H7466 H 0.71412 0.06559 0.12239 0.0
H7467 H 0.72974 0.05558 0.11668 0.0
H7468 H 0.7179 0.08032 0.1511 0.0
H7469 H 0.68553 0.05563 0.13403 0.0
H7470 H 0.69889 0.0507 0.13567 0.0
H7471 H 0.69562 0.05896 0.12456 0.0
C7472 C 0.73221 0.05237 0.14333 0.0
C7473 C 0.7348 0.05151 0.13253 0.0
C7474 C 0.72321 0.05803 0.14657 0.0
C7475 C 0.71657 0.06283 0.13908 0.0
C7476 C 0.71901 0.06179 0.1283 0.0
H7477 H 0.66696 0.10857 0.13472 0.0
H7478 H 0.68076 0.09511 0.13238 0.0
C7479 C 0.72801 0.05616 0.12505 0.0
C7480 C 0.70758 0.06963 0.1425 0.0
H7481 H 0.681 0.07356 0.13897 0.0
C7482 C 0.7098 0.07877 0.1486 0.0
C7483 C 0.69703 0.06758 0.13922 0.0
C7484 C 0.69409 0.05763 0.13309 0.0
C7485 C 0.70183 0.08619 0.15108 0.0
C7486 C 0.69134 0.08431 0.14749 0.0
C7487 C 0.68906 0.07499 0.14168 0.0
C7488 C 0.68278 0.09224 0.1491 0.0
C7489 C 0.70478 0.09621 0.15708 0.0
C7490 C 0.67925 0.09499 0.15928 0.0
C7491 C 0.6714 0.10276 0.16066 0.0
C7492 C 0.66695 0.10789 0.15186 0.0
C7493 C 0.67037 0.10492 0.14167 0.0
C7494 C 0.67819 0.09717 0.14031 0.0
H7495 H 0.71352 0.09745 0.15741 0.0
H7496 H 0.7011 0.10332 0.15341 0.0
H7497 H 0.70178 0.09563 0.16531 0.0
H7498 H 0.68259 0.09115 0.16617 0.0
H7499 H 0.66895 0.10489 0.16861 0.0
H7500 H 0.78815 0.96957 0.62046 0.0
H7501 H 0.80217 0.95675 0.6245 0.0
H7502 H 0.79072 0.9546 0.65658 0.0
H7503 H 0.77658 0.96728 0.65253 0.0
H7504 H 0.81835 0.95702 0.63874 0.0
H7505 H 0.79073 0.92361 0.64757 0.0
H7506 H 0.78636 0.93581 0.64151 0.0
H7507 H 0.78849 0.93528 0.65556 0.0
C7508 C 0.78868 0.96643 0.6284 0.0
C7509 C 0.78122 0.96937 0.63616 0.0
C7510 C 0.79667 0.95908 0.63069 0.0
C7511 C 0.79736 0.95454 0.64078 0.0
C7512 C 0.79016 0.95776 0.64866 0.0
H7513 H 0.84145 0.9082 0.66733 0.0
H7514 H 0.8283 0.92243 0.66506 0.0
C7515 C 0.78212 0.96504 0.64635 0.0
C7516 C 0.80557 0.9464 0.64301 0.0
H7517 H 0.809 0.92062 0.65093 0.0
C7518 C 0.8163 0.94906 0.64139 0.0
C7519 C 0.80288 0.936 0.64645 0.0
C7520 C 0.79149 0.93245 0.64778 0.0
C7521 C 0.8244 0.94162 0.64317 0.0
C7522 C 0.8217 0.93126 0.64661 0.0
C7523 C 0.81101 0.92861 0.64835 0.0
C7524 C 0.82982 0.92291 0.64804 0.0
C7525 C 0.83582 0.94486 0.64139 0.0
C7526 C 0.83493 0.91846 0.6392 0.0
C7527 C 0.84236 0.91032 0.64046 0.0
C7528 C 0.84484 0.90652 0.65059 0.0
C7529 C 0.83975 0.91104 0.65944 0.0
C7530 C 0.83224 0.91912 0.65816 0.0
H7531 H 0.83673 0.95365 0.64071 0.0
H7532 H 0.8409 0.94202 0.64796 0.0
H7533 H 0.83874 0.94112 0.63397 0.0
H7534 H 0.83309 0.92122 0.63132 0.0
H7535 H 0.84623 0.90705 0.63351 0.0
loop_
_geom_bond_atom_site_label_1
_geom_bond_atom_site_label_2
_geom_bond_distance
_geom_bond_site_symmetry_2
_ccdc_geom_bond_type
C0 C1 1.264 . S
C0 C5 1.479 . S
C0 C10 1.465 1_655 S
C1 C0 1.264 . S
C1 C3 1.339 . S
C1 H28 0.931 1_655 S
C2 C3 1.395 . S
C2 C4 1.320 . S
C3 C1 1.339 . S
C3 C2 1.395 . S
C3 H29 0.929 . S
C4 C2 1.320 . S
C4 C5 1.405 . S
C4 H30 0.930 . S
C5 C0 1.479 . S
C5 C4 1.405 . S
C5 H31 0.931 . S
U6 O7 2.454 . S
U6 O8 2.458 . S
U6 C9 2.984 . S
U6 C10 2.847 . S
U6 C23 2.882 . S
U6 O24 2.441 . S
U6 O25 2.420 . S
U6 O26 2.455 . S
U6 O27 2.449 . S
O7 U6 2.454 . S
O7 C9 1.353 . S
O8 U6 2.458 . S
O8 C9 1.286 . S
C9 U6 2.984 . S
C9 O7 1.353 . S
C9 O8 1.286 . S
C9 C11 1.363 . S
C10 C0 1.465 1_455 S
C10 U6 2.847 . S
C10 O24 1.249 . S
C10 O25 1.202 . S
C11 C9 1.363 . S
C11 C13 1.408 . S
C11 C16 1.342 . S
C12 C13 1.310 . S
C12 C15 1.461 . S
C12 H32 0.932 . S
C13 C11 1.408 . S
C13 C12 1.310 . S
C13 H33 0.930 . S
C14 C15 1.474 . S
C14 C16 1.285 . S
C14 H34 0.929 . S
C15 C12 1.461 . S
C15 C14 1.474 . S
C16 C11 1.342 . S
C16 C14 1.285 . S
C16 H35 0.930 . S
C17 C20 1.424 . S
C17 C22 1.245 . S
C17 C23 1.428 . S
C18 C21 1.260 . S
C18 C22 1.477 . S
C18 H36 0.932 . S
C19 C20 1.384 . S
C19 C21 1.479 . S
C19 H37 0.929 . S
C20 C17 1.424 . S
C20 C19 1.384 . S
C20 H38 0.928 . S
C21 C18 1.260 . S
C21 C19 1.479 . S
C22 C17 1.245 . S
C22 C18 1.477 . S
C22 H39 0.932 . S
C23 U6 2.882 . S
C23 C17 1.428 . S
C23 O26 1.301 . S
C23 O27 1.282 . S
O24 U6 2.441 . S
O24 C10 1.249 . S
O25 U6 2.420 . S
O25 C10 1.202 . S
O26 U6 2.455 . S
O26 C23 1.301 . S
O27 U6 2.449 . S
O27 C23 1.282 . S
H28 C1 0.931 1_455 S
H29 C3 0.929 . S
H30 C4 0.930 . S
H31 C5 0.931 . S
H32 C12 0.932 . S
H33 C13 0.930 . S
H34 C14 0.929 . S
H35 C16 0.930 . S
H36 C18 0.932 . S
H37 C19 0.929 . S
H38 C20 0.928 . S
H39 C22 0.932 . S
C40 C41 1.264 . S
C40 C45 1.479 . S
C40 C50 1.465 . S
C41 C40 1.264 . S
C41 C43 1.339 . S
C41 H68 0.931 . S
C42 C43 1.395 . S
C42 C44 1.320 . S
C43 C41 1.339 . S
C43 C42 1.395 . S
C43 H69 0.929 . S
C44 C42 1.320 . S
C44 C45 1.405 . S
C44 H70 0.930 . S
C45 C40 1.479 . S
C45 C44 1.405 . S
C45 H71 0.931 . S
U46 O47 2.454 . S
U46 O48 2.458 . S
U46 C49 2.984 . S
U46 C50 2.847 . S
U46 C63 2.882 . S
U46 O64 2.441 . S
U46 O65 2.420 . S
U46 O66 2.455 . S
U46 O67 2.449 . S
O47 U46 2.454 . S
O47 C49 1.353 . S
O48 U46 2.458 . S
O48 C49 1.286 . S
C49 U46 2.984 . S
C49 O47 1.353 . S
C49 O48 1.286 . S
C49 C51 1.363 . S
C50 C40 1.465 . S
C50 U46 2.847 . S
C50 O64 1.249 . S
C50 O65 1.202 . S
C51 C49 1.363 . S
C51 C53 1.408 . S
C51 C56 1.342 . S
C52 C53 1.310 . S
C52 C55 1.461 . S
C52 H72 0.932 . S
C53 C51 1.408 . S
C53 C52 1.310 . S
C53 H73 0.930 . S
C54 C55 1.474 . S
C54 C56 1.285 . S
C54 H74 0.929 . S
C55 C52 1.461 . S
C55 C54 1.474 . S
C56 C51 1.342 . S
C56 C54 1.285 . S
C56 H75 0.930 . S
C57 C60 1.424 . S
C57 C62 1.245 . S
C57 C63 1.428 . S
C58 C61 1.260 . S
C58 C62 1.477 . S
C58 H76 0.932 . S
C59 C60 1.384 . S
C59 C61 1.479 . S
C59 H77 0.929 . S
C60 C57 1.424 . S
C60 C59 1.384 . S
C60 H78 0.928 . S
C61 C58 1.260 . S
C61 C59 1.479 . S
C62 C57 1.245 . S
C62 C58 1.477 . S
C62 H79 0.932 . S
C63 U46 2.882 . S
C63 C57 1.428 . S
C63 O66 1.301 . S
C63 O67 1.282 . S
O64 U46 2.441 . S
O64 C50 1.249 . S
O65 U46 2.420 . S
O65 C50 1.202 . S
O66 U46 2.455 . S
O66 C63 1.301 . S
O67 U46 2.449 . S
O67 C63 1.282 . S
H68 C41 0.931 . S
H69 C43 0.929 . S
H70 C44 0.930 . S
H71 C45 0.931 . S
H72 C52 0.932 . S
H73 C53 0.930 . S
H74 C54 0.929 . S
H75 C56 0.930 . S
H76 C58 0.932 . S
H77 C59 0.929 . S
H78 C60 0.928 . S
H79 C62 0.932 . S
C80 C81 1.264 . S
C80 C85 1.479 . S
C80 C90 1.465 . S
C81 C80 1.264 . S
C81 C83 1.339 . S
C81 H108 0.931 . S
C82 C83 1.395 . S
C82 C84 1.320 . S
C83 C81 1.339 . S
C83 C82 1.395 . S
C83 H109 0.929 . S
C84 C82 1.320 . S
C84 C85 1.405 . S
C84 H110 0.930 . S
C85 C80 1.479 . S
C85 C84 1.405 . S
C85 H111 0.931 . S
U86 O87 2.454 . S
U86 O88 2.458 . S
U86 C89 2.984 . S
U86 C90 2.847 . S
U86 C103 2.882 . S
U86 O104 2.441 . S
U86 O105 2.420 . S
U86 O106 2.455 . S
U86 O107 2.449 . S
O87 U86 2.454 . S
O87 C89 1.353 . S
O88 U86 2.458 . S
O88 C89 1.286 . S
C89 U86 2.984 . S
C89 O87 1.353 . S
C89 O88 1.286 . S
C89 C91 1.363 . S
C90 C80 1.465 . S
C90 U86 2.847 . S
C90 O104 1.249 . S
C90 O105 1.202 . S
C91 C89 1.363 . S
C91 C93 1.408 . S
C91 C96 1.342 . S
C92 C93 1.310 . S
C92 C95 1.461 . S
C92 H112 0.932 . S
C93 C91 1.408 . S
C93 C92 1.310 . S
C93 H113 0.930 . S
C94 C95 1.474 . S
C94 C96 1.285 . S
C94 H114 0.929 . S
C95 C92 1.461 . S
C95 C94 1.474 . S
C96 C91 1.342 . S
C96 C94 1.285 . S
C96 H115 0.930 . S
C97 C100 1.424 . S
C97 C102 1.245 . S
C97 C103 1.428 . S
C98 C101 1.260 . S
C98 C102 1.477 . S
C98 H116 0.932 . S
C99 C100 1.384 . S
C99 C101 1.479 . S
C99 H117 0.929 . S
C100 C97 1.424 . S
C100 C99 1.384 . S
C100 H118 0.928 . S
C101 C98 1.260 . S
C101 C99 1.479 . S
C102 C97 1.245 . S
C102 C98 1.477 . S
C102 H119 0.932 . S
C103 U86 2.882 . S
C103 C97 1.428 . S
C103 O106 1.301 . S
C103 O107 1.282 . S
O104 U86 2.441 . S
O104 C90 1.249 . S
O105 U86 2.420 . S
O105 C90 1.202 . S
O106 U86 2.455 . S
O106 C103 1.301 . S
O107 U86 2.449 . S
O107 C103 1.282 . S
H108 C81 0.931 . S
H109 C83 0.929 . S
H110 C84 0.930 . S
H111 C85 0.931 . S
H112 C92 0.932 . S
H113 C93 0.930 . S
H114 C94 0.929 . S
H115 C96 0.930 . S
H116 C98 0.932 . S
H117 C99 0.929 . S
H118 C100 0.928 . S
H119 C102 0.932 . S
C120 C121 1.264 . S
C120 C125 1.479 . S
C120 C130 1.465 . S
C121 C120 1.264 . S
C121 C123 1.339 . S
C121 H148 0.931 . S
C122 C123 1.395 . S
C122 C124 1.320 . S
C123 C121 1.339 . S
C123 C122 1.395 . S
C123 H149 0.929 . S
C124 C122 1.320 . S
C124 C125 1.405 . S
C124 H150 0.930 . S
C125 C120 1.479 . S
C125 C124 1.405 . S
C125 H151 0.931 . S
U126 O127 2.454 . S
U126 O128 2.458 . S
U126 C129 2.984 . S
U126 C130 2.847 . S
U126 C143 2.882 . S
U126 O144 2.441 . S
U126 O145 2.420 . S
U126 O146 2.455 . S
U126 O147 2.449 . S
O127 U126 2.454 . S
O127 C129 1.353 . S
O128 U126 2.458 . S
O128 C129 1.286 . S
C129 U126 2.984 . S
C129 O127 1.353 . S
C129 O128 1.286 . S
C129 C131 1.363 1_554 S
C130 C120 1.465 . S
C130 U126 2.847 . S
C130 O144 1.249 . S
C130 O145 1.202 . S
C131 C129 1.363 1_556 S
C131 C133 1.408 . S
C131 C136 1.342 . S
C132 C133 1.310 . S
C132 C135 1.461 . S
C132 H152 0.932 . S
C133 C131 1.408 . S
C133 C132 1.310 . S
C133 H153 0.930 . S
C134 C135 1.474 . S
C134 C136 1.285 . S
C134 H154 0.929 . S
C135 C132 1.461 . S
C135 C134 1.474 . S
C136 C131 1.342 . S
C136 C134 1.285 . S
C136 H155 0.846 1_556 S
C137 C140 1.424 . S
C137 C142 1.245 . S
C137 C143 1.428 . S
C138 C141 1.260 . S
C138 C142 1.477 . S
C138 H156 0.932 . S
C139 C140 1.384 . S
C139 C141 1.479 . S
C139 H157 0.929 . S
C140 C137 1.424 . S
C140 C139 1.384 . S
C140 H158 0.928 . S
C141 C138 1.260 . S
C141 C139 1.479 . S
C142 C137 1.245 . S
C142 C138 1.477 . S
C142 H159 0.932 . S
C143 U126 2.882 . S
C143 C137 1.428 . S
C143 O146 1.301 . S
C143 O147 1.282 . S
O144 U126 2.441 . S
O144 C130 1.249 . S
O145 U126 2.420 . S
O145 C130 1.202 . S
O146 U126 2.455 . S
O146 C143 1.301 . S
O147 U126 2.449 . S
O147 C143 1.282 . S
H148 C121 0.931 . S
H149 C123 0.929 . S
H150 C124 0.930 . S
H151 C125 0.931 . S
H152 C132 0.932 . S
H153 C133 0.930 . S
H154 C134 0.929 . S
H155 C136 0.846 1_554 S
H156 C138 0.932 . S
H157 C139 0.929 . S
H158 C140 0.928 . S
H159 C142 0.932 . S
C160 C161 1.268 . S
C160 C165 1.479 1_455 S
C160 C170 1.465 . S
C161 C160 1.268 . S
C161 C163 1.297 1_455 S
C161 H188 0.972 . S
C162 C163 1.395 . S
C162 C164 1.320 . S
C163 C161 1.297 1_655 S
C163 C162 1.395 . S
C163 H189 0.929 . S
C164 C162 1.320 . S
C164 C165 1.405 . S
C164 H190 0.930 . S
C165 C160 1.479 1_655 S
C165 C164 1.405 . S
C165 H191 0.931 . S
U166 O167 2.454 . S
U166 O168 2.458 . S
U166 C169 2.984 . S
U166 C170 2.847 . S
U166 C183 2.882 . S
U166 O184 2.441 . S
U166 O185 2.420 . S
U166 O186 2.455 . S
U166 O187 2.449 . S
O167 U166 2.454 . S
O167 C169 1.353 . S
O168 U166 2.458 . S
O168 C169 1.286 . S
C169 U166 2.984 . S
C169 O167 1.353 . S
C169 O168 1.286 . S
C169 C171 1.363 . S
C170 C160 1.465 . S
C170 U166 2.847 . S
C170 O184 1.249 . S
C170 O185 1.202 . S
C171 C169 1.363 . S
C171 C173 1.408 . S
C171 C176 1.342 . S
C172 C173 1.310 . S
C172 C175 1.461 . S
C172 H192 0.932 . S
C173 C171 1.408 . S
C173 C172 1.310 . S
C173 H193 0.930 . S
C174 C175 1.474 . S
C174 C176 1.285 . S
C174 H194 0.929 . S
C175 C172 1.461 . S
C175 C174 1.474 . S
C176 C171 1.342 . S
C176 C174 1.285 . S
C176 H195 0.930 . S
C177 C180 1.424 . S
C177 C182 1.245 . S
C177 C183 1.428 . S
C178 C181 1.260 . S
C178 C182 1.477 . S
C178 H196 0.932 . S
C179 C180 1.384 . S
C179 C181 1.479 . S
C179 H197 0.929 . S
C180 C177 1.424 . S
C180 C179 1.384 . S
C180 H198 0.928 . S
C181 C178 1.260 . S
C181 C179 1.479 . S
C182 C177 1.245 . S
C182 C178 1.477 . S
C182 H199 0.932 . S
C183 U166 2.882 . S
C183 C177 1.428 . S
C183 O186 1.301 . S
C183 O187 1.282 . S
O184 U166 2.441 . S
O184 C170 1.249 . S
O185 U166 2.420 . S
O185 C170 1.202 . S
O186 U166 2.455 . S
O186 C183 1.301 . S
O187 U166 2.449 . S
O187 C183 1.282 . S
H188 C161 0.972 . S
H189 C163 0.929 . S
H190 C164 0.930 . S
H191 C165 0.931 . S
H192 C172 0.932 . S
H193 C173 0.930 . S
H194 C174 0.929 . S
H195 C176 0.930 . S
H196 C178 0.932 . S
H197 C179 0.929 . S
H198 C180 0.928 . S
H199 C182 0.932 . S
C200 C201 1.264 . S
C200 C205 1.479 . S
C200 C210 1.465 . S
C201 C200 1.264 . S
C201 C203 1.339 . S
C201 H228 0.931 . S
C202 C203 1.395 . S
C202 C204 1.320 . S
C203 C201 1.339 . S
C203 C202 1.395 . S
C203 H229 0.929 . S
C204 C202 1.320 . S
C204 C205 1.405 . S
C204 H230 0.930 . S
C205 C200 1.479 . S
C205 C204 1.405 . S
C205 H231 0.931 . S
U206 O207 2.454 . S
U206 O208 2.458 . S
U206 C209 2.984 . S
U206 C210 2.847 . S
U206 C223 2.882 . S
U206 O224 2.441 . S
U206 O225 2.420 . S
U206 O226 2.455 . S
U206 O227 2.449 . S
O207 U206 2.454 . S
O207 C209 1.353 . S
O208 U206 2.458 . S
O208 C209 1.286 . S
C209 U206 2.984 . S
C209 O207 1.353 . S
C209 O208 1.286 . S
C209 C211 1.363 . S
C210 C200 1.465 . S
C210 U206 2.847 . S
C210 O224 1.249 . S
C210 O225 1.202 . S
C211 C209 1.363 . S
C211 C213 1.408 . S
C211 C216 1.342 . S
C212 C213 1.310 . S
C212 C215 1.461 . S
C212 H232 0.932 . S
C213 C211 1.408 . S
C213 C212 1.310 . S
C213 H233 0.930 . S
C214 C215 1.474 . S
C214 C216 1.285 . S
C214 H234 0.929 . S
C215 C212 1.461 . S
C215 C214 1.474 . S
C216 C211 1.342 . S
C216 C214 1.285 . S
C216 H235 0.930 . S
C217 C220 1.424 . S
C217 C222 1.245 . S
C217 C223 1.428 . S
C218 C221 1.260 . S
C218 C222 1.477 . S
C218 H236 0.932 . S
C219 C220 1.384 . S
C219 C221 1.479 . S
C219 H237 0.929 . S
C220 C217 1.424 . S
C220 C219 1.384 . S
C220 H238 0.928 . S
C221 C218 1.260 . S
C221 C219 1.479 . S
C222 C217 1.245 . S
C222 C218 1.477 . S
C222 H239 0.932 . S
C223 U206 2.882 . S
C223 C217 1.428 . S
C223 O226 1.301 . S
C223 O227 1.282 . S
O224 U206 2.441 . S
O224 C210 1.249 . S
O225 U206 2.420 . S
O225 C210 1.202 . S
O226 U206 2.455 . S
O226 C223 1.301 . S
O227 U206 2.449 . S
O227 C223 1.282 . S
H228 C201 0.931 . S
H229 C203 0.929 . S
H230 C204 0.930 . S
H231 C205 0.931 . S
H232 C212 0.932 . S
H233 C213 0.930 . S
H234 C214 0.929 . S
H235 C216 0.930 . S
H236 C218 0.932 . S
H237 C219 0.929 . S
H238 C220 0.928 . S
H239 C222 0.932 . S
C240 C241 1.264 . S
C240 C245 1.479 . S
C240 C250 1.465 . S
C241 C240 1.264 . S
C241 C243 1.339 . S
C241 H268 0.931 . S
C242 C243 1.395 . S
C242 C244 1.320 . S
C243 C241 1.339 . S
C243 C242 1.395 . S
C243 H269 0.929 . S
C244 C242 1.320 . S
C244 C245 1.405 . S
C244 H270 0.930 . S
C245 C240 1.479 . S
C245 C244 1.405 . S
C245 H271 0.931 . S
U246 O247 2.454 . S
U246 O248 2.458 . S
U246 C249 2.984 . S
U246 C250 2.847 . S
U246 C263 2.882 . S
U246 O264 2.441 . S
U246 O265 2.420 . S
U246 O266 2.455 . S
U246 O267 2.449 . S
O247 U246 2.454 . S
O247 C249 1.353 . S
O248 U246 2.458 . S
O248 C249 1.286 . S
C249 U246 2.984 . S
C249 O247 1.353 . S
C249 O248 1.286 . S
C249 C251 1.363 . S
C250 C240 1.465 . S
C250 U246 2.847 . S
C250 O264 1.249 . S
C250 O265 1.202 . S
C251 C249 1.363 . S
C251 C253 1.408 . S
C251 C256 1.342 . S
C252 C253 1.310 . S
C252 C255 1.461 . S
C252 H272 0.932 . S
C253 C251 1.408 . S
C253 C252 1.310 . S
C253 H273 0.930 . S
C254 C255 1.474 . S
C254 C256 1.285 . S
C254 H274 0.929 . S
C255 C252 1.461 . S
C255 C254 1.474 . S
C256 C251 1.342 . S
C256 C254 1.285 . S
C256 H275 0.930 . S
C257 C260 1.424 . S
C257 C262 1.245 . S
C257 C263 1.428 . S
C258 C261 1.260 . S
C258 C262 1.477 . S
C258 H276 0.932 . S
C259 C260 1.384 . S
C259 C261 1.479 . S
C259 H277 0.929 . S
C260 C257 1.424 . S
C260 C259 1.384 . S
C260 H278 0.928 . S
C261 C258 1.260 . S
C261 C259 1.479 . S
C262 C257 1.245 . S
C262 C258 1.477 . S
C262 H279 0.932 . S
C263 U246 2.882 . S
C263 C257 1.428 . S
C263 O266 1.301 . S
C263 O267 1.282 . S
O264 U246 2.441 . S
O264 C250 1.249 . S
O265 U246 2.420 . S
O265 C250 1.202 . S
O266 U246 2.455 . S
O266 C263 1.301 . S
O267 U246 2.449 . S
O267 C263 1.282 . S
H268 C241 0.931 . S
H269 C243 0.929 . S
H270 C244 0.930 . S
H271 C245 0.931 . S
H272 C252 0.932 . S
H273 C253 0.930 . S
H274 C254 0.929 . S
H275 C256 0.930 . S
H276 C258 0.932 . S
H277 C259 0.929 . S
H278 C260 0.928 . S
H279 C262 0.932 . S
C280 C281 1.264 . S
C280 C285 1.479 . S
C280 C290 1.475 . S
C281 C280 1.264 . S
C281 C283 1.339 . S
C281 H308 0.931 . S
C282 C283 1.395 . S
C282 C284 1.320 . S
C283 C281 1.339 . S
C283 C282 1.395 . S
C283 H309 0.929 . S
C284 C282 1.320 . S
C284 C285 1.405 . S
C284 H310 0.930 . S
C285 C280 1.479 . S
C285 C284 1.405 . S
C285 H311 0.931 . S
U286 O287 2.454 . S
U286 O288 2.458 . S
U286 C289 2.984 . S
U286 C290 2.836 1_556 S
U286 C303 2.882 . S
U286 O304 2.441 . S
U286 O305 2.420 . S
U286 O306 2.455 . S
U286 O307 2.449 . S
O287 U286 2.454 . S
O287 C289 1.353 . S
O288 U286 2.458 . S
O288 C289 1.286 . S
C289 U286 2.984 . S
C289 O287 1.353 . S
C289 O288 1.286 . S
C289 C291 1.363 . S
C290 C280 1.475 . S
C290 U286 2.836 1_554 S
C290 O304 1.247 1_554 S
C290 O305 1.192 1_554 S
C291 C289 1.363 . S
C291 C293 1.408 . S
C291 C296 1.342 . S
C292 C293 1.310 . S
C292 C295 1.461 . S
C292 H312 0.932 . S
C293 C291 1.408 . S
C293 C292 1.310 . S
C293 H313 0.930 . S
C294 C295 1.474 . S
C294 C296 1.285 . S
C294 H314 0.929 . S
C295 C292 1.461 . S
C295 C294 1.474 . S
C296 C291 1.342 . S
C296 C294 1.285 . S
C296 H315 0.930 . S
C297 C300 1.424 . S
C297 C302 1.245 . S
C297 C303 1.428 . S
C298 C301 1.260 . S
C298 C302 1.477 . S
C298 H316 0.932 . S
C299 C300 1.384 . S
C299 C301 1.479 . S
C299 H317 0.929 . S
C300 C297 1.424 . S
C300 C299 1.384 . S
C300 H318 0.928 . S
C301 C298 1.260 . S
C301 C299 1.479 . S
C302 C297 1.245 . S
C302 C298 1.477 . S
C302 H319 0.932 . S
C303 U286 2.882 . S
C303 C297 1.428 . S
C303 O306 1.301 . S
C303 O307 1.282 . S
O304 U286 2.441 . S
O304 C290 1.247 1_556 S
O305 U286 2.420 . S
O305 C290 1.192 1_556 S
O306 U286 2.455 . S
O306 C303 1.301 . S
O307 U286 2.449 . S
O307 C303 1.282 . S
H308 C281 0.931 . S
H309 C283 0.929 . S
H310 C284 0.930 . S
H311 C285 0.931 . S
H312 C292 0.932 . S
H313 C293 0.930 . S
H314 C294 0.929 . S
H315 C296 0.930 . S
H316 C298 0.932 . S
H317 C299 0.929 . S
H318 C300 0.928 . S
H319 C302 0.932 . S
C320 C321 1.264 . S
C320 C325 1.479 . S
C320 C330 1.465 . S
C321 C320 1.264 . S
C321 C323 1.339 . S
C321 H348 0.931 . S
C322 C323 1.395 . S
C322 C324 1.320 . S
C323 C321 1.339 . S
C323 C322 1.395 . S
C323 H349 0.929 . S
C324 C322 1.320 . S
C324 C325 1.405 . S
C324 H350 0.930 . S
C325 C320 1.479 . S
C325 C324 1.405 . S
C325 H351 0.931 . S
U326 O327 2.454 . S
U326 O328 2.458 . S
U326 C329 2.984 . S
U326 C330 2.847 . S
U326 C343 2.882 . S
U326 O344 2.441 . S
U326 O345 2.420 . S
U326 O346 2.455 . S
U326 O347 2.449 . S
O327 U326 2.454 . S
O327 C329 1.353 . S
O328 U326 2.458 . S
O328 C329 1.286 . S
C329 U326 2.984 . S
C329 O327 1.353 . S
C329 O328 1.286 . S
C329 C331 1.363 1_545 S
C330 C320 1.465 . S
C330 U326 2.847 . S
C330 O344 1.249 . S
C330 O345 1.202 . S
C331 C329 1.363 1_565 S
C331 C333 1.408 . S
C331 C336 1.342 . S
C332 C333 1.310 . S
C332 C335 1.461 . S
C332 H352 0.932 . S
C333 C331 1.408 . S
C333 C332 1.310 . S
C333 H353 0.930 . S
C334 C335 1.474 . S
C334 C336 1.285 . S
C334 H354 0.929 . S
C335 C332 1.461 . S
C335 C334 1.474 . S
C336 C331 1.342 . S
C336 C334 1.285 . S
C336 H355 0.930 1_565 S
C337 C340 1.424 . S
C337 C342 1.245 . S
C337 C343 1.428 . S
C338 C341 1.260 . S
C338 C342 1.477 . S
C338 H356 0.932 . S
C339 C340 1.384 . S
C339 C341 1.479 . S
C339 H357 0.929 . S
C340 C337 1.424 . S
C340 C339 1.384 . S
C340 H358 0.928 . S
C341 C338 1.260 . S
C341 C339 1.479 . S
C342 C337 1.245 . S
C342 C338 1.477 . S
C342 H359 0.932 . S
C343 U326 2.882 . S
C343 C337 1.428 . S
C343 O346 1.301 . S
C343 O347 1.282 . S
O344 U326 2.441 . S
O344 C330 1.249 . S
O345 U326 2.420 . S
O345 C330 1.202 . S
O346 U326 2.455 . S
O346 C343 1.301 . S
O347 U326 2.449 . S
O347 C343 1.282 . S
H348 C321 0.931 . S
H349 C323 0.929 . S
H350 C324 0.930 . S
H351 C325 0.931 . S
H352 C332 0.932 . S
H353 C333 0.930 . S
H354 C334 0.929 . S
H355 C336 0.930 1_545 S
H356 C338 0.932 . S
H357 C339 0.929 . S
H358 C340 0.928 . S
H359 C342 0.932 . S
C360 C361 1.264 . S
C360 C365 1.479 . S
C360 C370 1.465 1_565 S
C361 C360 1.264 . S
C361 C363 1.339 . S
C361 H388 0.931 1_565 S
C362 C363 1.395 . S
C362 C364 1.320 . S
C363 C361 1.339 . S
C363 C362 1.395 . S
C363 H389 0.929 . S
C364 C362 1.320 . S
C364 C365 1.405 . S
C364 H390 0.930 . S
C365 C360 1.479 . S
C365 C364 1.405 . S
C365 H391 0.931 . S
U366 O367 2.454 . S
U366 O368 2.458 . S
U366 C369 2.984 . S
U366 C370 2.847 . S
U366 C383 2.882 . S
U366 O384 2.441 . S
U366 O385 2.420 . S
U366 O386 2.455 . S
U366 O387 2.449 . S
O367 U366 2.454 . S
O367 C369 1.353 . S
O368 U366 2.458 . S
O368 C369 1.286 . S
C369 U366 2.984 . S
C369 O367 1.353 . S
C369 O368 1.286 . S
C369 C371 1.363 . S
C370 C360 1.465 1_545 S
C370 U366 2.847 . S
C370 O384 1.249 . S
C370 O385 1.202 . S
C371 C369 1.363 . S
C371 C373 1.408 . S
C371 C376 1.342 . S
C372 C373 1.310 . S
C372 C375 1.461 . S
C372 H392 0.932 . S
C373 C371 1.408 . S
C373 C372 1.310 . S
C373 H393 0.930 . S
C374 C375 1.474 . S
C374 C376 1.285 . S
C374 H394 0.929 . S
C375 C372 1.461 . S
C375 C374 1.474 . S
C376 C371 1.342 . S
C376 C374 1.285 . S
C376 H395 0.930 . S
C377 C380 1.424 . S
C377 C382 1.245 . S
C377 C383 1.428 . S
C378 C381 1.260 . S
C378 C382 1.477 . S
C378 H396 0.932 . S
C379 C380 1.384 . S
C379 C381 1.479 . S
C379 H397 0.929 . S
C380 C377 1.424 . S
C380 C379 1.384 . S
C380 H398 0.928 . S
C381 C378 1.260 . S
C381 C379 1.479 . S
C382 C377 1.245 . S
C382 C378 1.477 . S
C382 H399 0.932 . S
C383 U366 2.882 . S
C383 C377 1.428 . S
C383 O386 1.301 . S
C383 O387 1.282 . S
O384 U366 2.441 . S
O384 C370 1.249 . S
O385 U366 2.420 . S
O385 C370 1.202 . S
O386 U366 2.455 . S
O386 C383 1.301 . S
O387 U366 2.449 . S
O387 C383 1.282 . S
H388 C361 0.931 1_545 S
H389 C363 0.929 . S
H390 C364 0.930 . S
H391 C365 0.931 . S
H392 C372 0.932 . S
H393 C373 0.930 . S
H394 C374 0.929 . S
H395 C376 0.930 . S
H396 C378 0.932 . S
H397 C379 0.929 . S
H398 C380 0.928 . S
H399 C382 0.932 . S
C400 C401 1.264 . S
C400 C405 1.479 . S
C400 C410 1.465 1_545 S
C401 C400 1.264 . S
C401 C403 1.339 . S
C401 H428 0.931 1_545 S
C402 C403 1.395 . S
C402 C404 1.320 . S
C403 C401 1.339 . S
C403 C402 1.395 . S
C403 H429 0.929 . S
C404 C402 1.320 . S
C404 C405 1.405 . S
C404 H430 0.930 . S
C405 C400 1.479 . S
C405 C404 1.405 . S
C405 H431 0.931 . S
U406 O407 2.454 . S
U406 O408 2.458 . S
U406 C409 2.984 . S
U406 C410 2.847 . S
U406 C423 2.882 . S
U406 O424 2.441 . S
U406 O425 2.420 . S
U406 O426 2.455 . S
U406 O427 2.449 . S
O407 U406 2.454 . S
O407 C409 1.353 . S
O408 U406 2.458 . S
O408 C409 1.286 . S
C409 U406 2.984 . S
C409 O407 1.353 . S
C409 O408 1.286 . S
C409 C411 1.363 . S
C410 C400 1.465 1_565 S
C410 U406 2.847 . S
C410 O424 1.249 . S
C410 O425 1.202 . S
C411 C409 1.363 . S
C411 C413 1.408 . S
C411 C416 1.342 . S
C412 C413 1.310 . S
C412 C415 1.461 . S
C412 H432 0.932 . S
C413 C411 1.408 . S
C413 C412 1.310 . S
C413 H433 0.930 . S
C414 C415 1.474 . S
C414 C416 1.285 . S
C414 H434 0.929 . S
C415 C412 1.461 . S
C415 C414 1.474 . S
C416 C411 1.342 . S
C416 C414 1.285 . S
C416 H435 0.930 . S
C417 C420 1.424 . S
C417 C422 1.245 . S
C417 C423 1.428 . S
C418 C421 1.260 . S
C418 C422 1.477 . S
C418 H436 0.932 . S
C419 C420 1.384 . S
C419 C421 1.479 . S
C419 H437 0.929 . S
C420 C417 1.424 . S
C420 C419 1.384 . S
C420 H438 0.928 . S
C421 C418 1.260 . S
C421 C419 1.479 . S
C422 C417 1.245 . S
C422 C418 1.477 . S
C422 H439 0.932 . S
C423 U406 2.882 . S
C423 C417 1.428 . S
C423 O426 1.301 . S
C423 O427 1.282 . S
O424 U406 2.441 . S
O424 C410 1.249 . S
O425 U406 2.420 . S
O425 C410 1.202 . S
O426 U406 2.455 . S
O426 C423 1.301 . S
O427 U406 2.449 . S
O427 C423 1.282 . S
H428 C401 0.931 1_565 S
H429 C403 0.929 . S
H430 C404 0.930 . S
H431 C405 0.931 . S
H432 C412 0.932 . S
H433 C413 0.930 . S
H434 C414 0.929 . S
H435 C416 0.930 . S
H436 C418 0.932 . S
H437 C419 0.929 . S
H438 C420 0.928 . S
H439 C422 0.932 . S
C440 C441 1.264 . S
C440 C445 1.479 . S
C440 C450 1.465 . S
C441 C440 1.264 . S
C441 C443 1.339 . S
C441 H468 0.931 . S
C442 C443 1.395 . S
C442 C444 1.320 . S
C443 C441 1.339 . S
C443 C442 1.395 . S
C443 H469 0.929 . S
C444 C442 1.320 . S
C444 C445 1.405 . S
C444 H470 0.930 . S
C445 C440 1.479 . S
C445 C444 1.405 . S
C445 H471 0.931 . S
U446 O447 2.454 . S
U446 O448 2.458 . S
U446 C449 2.984 . S
U446 C450 2.847 . S
U446 C463 2.882 . S
U446 O464 2.441 . S
U446 O465 2.420 . S
U446 O466 2.455 . S
U446 O467 2.449 . S
O447 U446 2.454 . S
O447 C449 1.353 . S
O448 U446 2.458 . S
O448 C449 1.286 . S
C449 U446 2.984 . S
C449 O447 1.353 . S
C449 O448 1.286 . S
C449 C451 1.363 1_565 S
C450 C440 1.465 . S
C450 U446 2.847 . S
C450 O464 1.249 . S
C450 O465 1.202 . S
C451 C449 1.363 1_545 S
C451 C453 1.408 . S
C451 C456 1.342 . S
C452 C453 1.310 . S
C452 C455 1.461 . S
C452 H472 0.932 . S
C453 C451 1.408 . S
C453 C452 1.310 . S
C453 H473 0.930 . S
C454 C455 1.474 . S
C454 C456 1.285 . S
C454 H474 0.929 . S
C455 C452 1.461 . S
C455 C454 1.474 . S
C456 C451 1.342 . S
C456 C454 1.285 . S
C456 H475 0.930 1_545 S
C457 C460 1.424 . S
C457 C462 1.245 . S
C457 C463 1.428 . S
C458 C461 1.260 . S
C458 C462 1.477 . S
C458 H476 0.932 . S
C459 C460 1.384 . S
C459 C461 1.479 . S
C459 H477 0.929 . S
C460 C457 1.424 . S
C460 C459 1.384 . S
C460 H478 0.928 . S
C461 C458 1.260 . S
C461 C459 1.479 . S
C462 C457 1.245 . S
C462 C458 1.477 . S
C462 H479 0.932 . S
C463 U446 2.882 . S
C463 C457 1.428 . S
C463 O466 1.301 . S
C463 O467 1.282 . S
O464 U446 2.441 . S
O464 C450 1.249 . S
O465 U446 2.420 . S
O465 C450 1.202 . S
O466 U446 2.455 . S
O466 C463 1.301 . S
O467 U446 2.449 . S
O467 C463 1.282 . S
H468 C441 0.931 . S
H469 C443 0.929 . S
H470 C444 0.930 . S
H471 C445 0.931 . S
H472 C452 0.932 . S
H473 C453 0.930 . S
H474 C454 0.929 . S
H475 C456 0.930 1_565 S
H476 C458 0.932 . S
H477 C459 0.929 . S
H478 C460 0.928 . S
H479 C462 0.932 . S
C480 C481 1.264 . S
C480 C485 1.479 . S
C480 C490 1.465 . S
C481 C480 1.264 . S
C481 C483 1.339 . S
C481 H508 0.931 . S
C482 C483 1.395 . S
C482 C484 1.320 . S
C483 C481 1.339 . S
C483 C482 1.395 . S
C483 H509 0.929 . S
C484 C482 1.320 . S
C484 C485 1.405 . S
C484 H510 0.930 . S
C485 C480 1.479 . S
C485 C484 1.405 . S
C485 H511 0.931 . S
U486 O487 2.454 . S
U486 O488 2.458 . S
U486 C489 2.984 . S
U486 C490 2.847 . S
U486 C503 2.882 . S
U486 O504 2.441 . S
U486 O505 2.420 . S
U486 O506 2.455 . S
U486 O507 2.449 . S
O487 U486 2.454 . S
O487 C489 1.353 . S
O488 U486 2.458 . S
O488 C489 1.286 . S
C489 U486 2.984 . S
C489 O487 1.353 . S
C489 O488 1.286 . S
C489 C491 1.363 1_554 S
C490 C480 1.465 . S
C490 U486 2.847 . S
C490 O504 1.249 . S
C490 O505 1.202 . S
C491 C489 1.363 1_556 S
C491 C493 1.408 . S
C491 C496 1.342 . S
C492 C493 1.310 . S
C492 C495 1.461 . S
C492 H512 0.932 . S
C493 C491 1.408 . S
C493 C492 1.310 . S
C493 H513 0.930 . S
C494 C495 1.474 . S
C494 C496 1.285 . S
C494 H514 0.929 . S
C495 C492 1.461 . S
C495 C494 1.474 . S
C496 C491 1.342 . S
C496 C494 1.285 . S
C496 H515 0.930 . S
C497 C500 1.424 . S
C497 C502 1.245 . S
C497 C503 1.428 . S
C498 C501 1.260 . S
C498 C502 1.477 . S
C498 H516 0.932 . S
C499 C500 1.384 . S
C499 C501 1.479 . S
C499 H517 0.929 . S
C500 C497 1.424 . S
C500 C499 1.384 . S
C500 H518 0.928 . S
C501 C498 1.260 . S
C501 C499 1.479 . S
C502 C497 1.245 . S
C502 C498 1.477 . S
C502 H519 0.932 . S
C503 U486 2.882 . S
C503 C497 1.428 . S
C503 O506 1.301 . S
C503 O507 1.282 . S
O504 U486 2.441 . S
O504 C490 1.249 . S
O505 U486 2.420 . S
O505 C490 1.202 . S
O506 U486 2.455 . S
O506 C503 1.301 . S
O507 U486 2.449 . S
O507 C503 1.282 . S
H508 C481 0.931 . S
H509 C483 0.929 . S
H510 C484 0.930 . S
H511 C485 0.931 . S
H512 C492 0.932 . S
H513 C493 0.930 . S
H514 C494 0.929 . S
H515 C496 0.930 . S
H516 C498 0.932 . S
H517 C499 0.929 . S
H518 C500 0.928 . S
H519 C502 0.932 . S
C520 C521 1.262 . S
C520 C525 1.514 . S
C520 C530 1.430 1_455 S
C521 C520 1.262 . S
C521 C523 1.431 . S
C521 H548 0.849 1_455 S
C522 C523 1.395 . S
C522 C524 1.320 . S
C523 C521 1.431 . S
C523 C522 1.395 . S
C523 H549 0.929 . S
C524 C522 1.320 . S
C524 C525 1.405 . S
C524 H550 0.930 . S
C525 C520 1.514 . S
C525 C524 1.405 . S
C525 H551 0.931 . S
U526 O527 2.454 . S
U526 O528 2.458 . S
U526 C529 2.984 . S
U526 C530 2.847 . S
U526 C543 2.882 . S
U526 O544 2.441 . S
U526 O545 2.420 . S
U526 O546 2.455 . S
U526 O547 2.449 . S
O527 U526 2.454 . S
O527 C529 1.353 . S
O528 U526 2.458 . S
O528 C529 1.286 . S
C529 U526 2.984 . S
C529 O527 1.353 . S
C529 O528 1.286 . S
C529 C531 1.363 . S
C530 C520 1.430 1_655 S
C530 U526 2.847 . S
C530 O544 1.249 . S
C530 O545 1.202 . S
C531 C529 1.363 . S
C531 C533 1.408 . S
C531 C536 1.342 . S
C532 C533 1.310 . S
C532 C535 1.461 . S
C532 H552 0.932 . S
C533 C531 1.408 . S
C533 C532 1.310 . S
C533 H553 0.930 . S
C534 C535 1.474 . S
C534 C536 1.285 . S
C534 H554 0.929 . S
C535 C532 1.461 . S
C535 C534 1.474 . S
C536 C531 1.342 . S
C536 C534 1.285 . S
C536 H555 0.930 . S
C537 C540 1.424 . S
C537 C542 1.245 . S
C537 C543 1.428 . S
C538 C541 1.260 . S
C538 C542 1.477 . S
C538 H556 0.932 . S
C539 C540 1.384 . S
C539 C541 1.479 . S
C539 H557 0.929 . S
C540 C537 1.424 . S
C540 C539 1.384 . S
C540 H558 0.928 . S
C541 C538 1.260 . S
C541 C539 1.479 . S
C542 C537 1.245 . S
C542 C538 1.477 . S
C542 H559 0.932 . S
C543 U526 2.882 . S
C543 C537 1.428 . S
C543 O546 1.301 . S
C543 O547 1.282 . S
O544 U526 2.441 . S
O544 C530 1.249 . S
O545 U526 2.420 . S
O545 C530 1.202 . S
O546 U526 2.455 . S
O546 C543 1.301 . S
O547 U526 2.449 . S
O547 C543 1.282 . S
H548 C521 0.849 1_655 S
H549 C523 0.929 . S
H550 C524 0.930 . S
H551 C525 0.931 . S
H552 C532 0.932 . S
H553 C533 0.930 . S
H554 C534 0.929 . S
H555 C536 0.930 . S
H556 C538 0.932 . S
H557 C539 0.929 . S
H558 C540 0.928 . S
H559 C542 0.932 . S
C560 C561 1.264 . S
C560 C565 1.479 . S
C560 C570 1.465 . S
C561 C560 1.264 . S
C561 C563 1.339 . S
C561 H588 0.931 . S
C562 C563 1.395 . S
C562 C564 1.320 . S
C563 C561 1.339 . S
C563 C562 1.395 . S
C563 H589 0.929 . S
C564 C562 1.320 . S
C564 C565 1.405 . S
C564 H590 0.930 . S
C565 C560 1.479 . S
C565 C564 1.405 . S
C565 H591 0.931 . S
U566 O567 2.454 . S
U566 O568 2.458 . S
U566 C569 2.984 . S
U566 C570 2.847 . S
U566 C583 2.882 . S
U566 O584 2.441 . S
U566 O585 2.420 . S
U566 O586 2.455 . S
U566 O587 2.449 . S
O567 U566 2.454 . S
O567 C569 1.353 . S
O568 U566 2.458 . S
O568 C569 1.286 . S
C569 U566 2.984 . S
C569 O567 1.353 . S
C569 O568 1.286 . S
C569 C571 1.363 . S
C570 C560 1.465 . S
C570 U566 2.847 . S
C570 O584 1.249 . S
C570 O585 1.202 . S
C571 C569 1.363 . S
C571 C573 1.408 . S
C571 C576 1.342 . S
C572 C573 1.310 . S
C572 C575 1.461 . S
C572 H592 0.932 . S
C573 C571 1.408 . S
C573 C572 1.310 . S
C573 H593 0.930 . S
C574 C575 1.474 . S
C574 C576 1.285 . S
C574 H594 0.929 . S
C575 C572 1.461 . S
C575 C574 1.474 . S
C576 C571 1.342 . S
C576 C574 1.285 . S
C576 H595 0.930 . S
C577 C580 1.424 . S
C577 C582 1.245 . S
C577 C583 1.428 . S
C578 C581 1.260 . S
C578 C582 1.477 . S
C578 H596 0.932 . S
C579 C580 1.384 . S
C579 C581 1.479 . S
C579 H597 0.929 . S
C580 C577 1.424 . S
C580 C579 1.384 . S
C580 H598 0.928 . S
C581 C578 1.260 . S
C581 C579 1.479 . S
C582 C577 1.245 . S
C582 C578 1.477 . S
C582 H599 0.932 . S
C583 U566 2.882 . S
C583 C577 1.428 . S
C583 O586 1.301 . S
C583 O587 1.282 . S
O584 U566 2.441 . S
O584 C570 1.249 . S
O585 U566 2.420 . S
O585 C570 1.202 . S
O586 U566 2.455 . S
O586 C583 1.301 . S
O587 U566 2.449 . S
O587 C583 1.282 . S
H588 C561 0.931 . S
H589 C563 0.929 . S
H590 C564 0.930 . S
H591 C565 0.931 . S
H592 C572 0.932 . S
H593 C573 0.930 . S
H594 C574 0.929 . S
H595 C576 0.930 . S
H596 C578 0.932 . S
H597 C579 0.929 . S
H598 C580 0.928 . S
H599 C582 0.932 . S
C600 C601 1.264 . S
C600 C605 1.479 . S
C600 C610 1.465 . S
C601 C600 1.264 . S
C601 C603 1.339 . S
C601 H628 0.931 . S
C602 C603 1.395 . S
C602 C604 1.320 . S
C603 C601 1.339 . S
C603 C602 1.395 . S
C603 H629 0.929 . S
C604 C602 1.320 . S
C604 C605 1.405 . S
C604 H630 0.930 . S
C605 C600 1.479 . S
C605 C604 1.405 . S
C605 H631 0.931 . S
U606 O607 2.454 1_655 S
U606 O608 2.458 1_655 S
U606 C609 2.984 1_655 S
U606 C610 2.847 . S
U606 C623 2.882 . S
U606 O624 2.441 . S
U606 O625 2.420 . S
U606 O626 2.455 . S
U606 O627 2.449 . S
O607 U606 2.454 1_455 S
O607 C609 1.353 . S
O608 U606 2.458 1_455 S
O608 C609 1.286 . S
C609 U606 2.984 1_455 S
C609 O607 1.353 . S
C609 O608 1.286 . S
C609 C611 1.363 . S
C610 C600 1.465 . S
C610 U606 2.847 . S
C610 O624 1.249 . S
C610 O625 1.202 . S
C611 C609 1.363 . S
C611 C613 1.408 . S
C611 C616 1.342 . S
C612 C613 1.310 . S
C612 C615 1.461 . S
C612 H632 0.932 . S
C613 C611 1.408 . S
C613 C612 1.310 . S
C613 H633 0.930 . S
C614 C615 1.474 . S
C614 C616 1.285 . S
C614 H634 0.929 . S
C615 C612 1.461 . S
C615 C614 1.474 . S
C616 C611 1.342 . S
C616 C614 1.285 . S
C616 H635 0.930 . S
C617 C620 1.424 . S
C617 C622 1.245 . S
C617 C623 1.428 . S
C618 C621 1.260 . S
C618 C622 1.477 . S
C618 H636 0.932 . S
C619 C620 1.384 . S
C619 C621 1.479 . S
C619 H637 0.929 . S
C620 C617 1.424 . S
C620 C619 1.384 . S
C620 H638 0.928 . S
C621 C618 1.260 . S
C621 C619 1.479 . S
C622 C617 1.245 . S
C622 C618 1.477 . S
C622 H639 0.932 . S
C623 U606 2.882 . S
C623 C617 1.428 . S
C623 O626 1.301 . S
C623 O627 1.282 . S
O624 U606 2.441 . S
O624 C610 1.249 . S
O625 U606 2.420 . S
O625 C610 1.202 . S
O626 U606 2.455 . S
O626 C623 1.301 . S
O627 U606 2.449 . S
O627 C623 1.282 . S
H628 C601 0.931 . S
H629 C603 0.929 . S
H630 C604 0.930 . S
H631 C605 0.931 . S
H632 C612 0.932 . S
H633 C613 0.930 . S
H634 C614 0.929 . S
H635 C616 0.930 . S
H636 C618 0.932 . S
H637 C619 0.929 . S
H638 C620 0.928 . S
H639 C622 0.932 . S
C640 C641 1.264 . S
C640 C645 1.479 . S
C640 C650 1.465 . S
C641 C640 1.264 . S
C641 C643 1.339 . S
C641 H668 0.931 . S
C642 C643 1.395 . S
C642 C644 1.320 . S
C643 C641 1.339 . S
C643 C642 1.395 . S
C643 H669 0.929 . S
C644 C642 1.320 . S
C644 C645 1.405 . S
C644 H670 0.930 . S
C645 C640 1.479 . S
C645 C644 1.405 . S
C645 H671 0.931 . S
U646 O647 2.454 . S
U646 O648 2.458 . S
U646 C649 2.984 . S
U646 C650 2.847 . S
U646 C663 2.882 . S
U646 O664 2.441 . S
U646 O665 2.420 . S
U646 O666 2.455 . S
U646 O667 2.449 . S
O647 U646 2.454 . S
O647 C649 1.353 . S
O648 U646 2.458 . S
O648 C649 1.286 . S
C649 U646 2.984 . S
C649 O647 1.353 . S
C649 O648 1.286 . S
C649 C651 1.363 . S
C650 C640 1.465 . S
C650 U646 2.847 . S
C650 O664 1.249 . S
C650 O665 1.202 . S
C651 C649 1.363 . S
C651 C653 1.408 . S
C651 C656 1.342 . S
C652 C653 1.310 . S
C652 C655 1.461 . S
C652 H672 0.932 . S
C653 C651 1.408 . S
C653 C652 1.310 . S
C653 H673 0.930 . S
C654 C655 1.474 . S
C654 C656 1.285 . S
C654 H674 0.929 . S
C655 C652 1.461 . S
C655 C654 1.474 . S
C656 C651 1.342 . S
C656 C654 1.285 . S
C656 H675 0.930 . S
C657 C660 1.424 . S
C657 C662 1.245 . S
C657 C663 1.428 . S
C658 C661 1.260 . S
C658 C662 1.477 . S
C658 H676 0.932 . S
C659 C660 1.384 . S
C659 C661 1.479 . S
C659 H677 0.929 . S
C660 C657 1.424 . S
C660 C659 1.384 . S
C660 H678 0.928 . S
C661 C658 1.260 . S
C661 C659 1.479 . S
C662 C657 1.245 . S
C662 C658 1.477 . S
C662 H679 0.932 . S
C663 U646 2.882 . S
C663 C657 1.428 . S
C663 O666 1.301 . S
C663 O667 1.282 . S
O664 U646 2.441 . S
O664 C650 1.249 . S
O665 U646 2.420 . S
O665 C650 1.202 . S
O666 U646 2.455 . S
O666 C663 1.301 . S
O667 U646 2.449 . S
O667 C663 1.282 . S
H668 C641 0.931 . S
H669 C643 0.929 . S
H670 C644 0.930 . S
H671 C645 0.931 . S
H672 C652 0.932 . S
H673 C653 0.930 . S
H674 C654 0.929 . S
H675 C656 0.930 . S
H676 C658 0.932 . S
H677 C659 0.929 . S
H678 C660 0.928 . S
H679 C662 0.932 . S
C680 C681 1.264 . S
C680 C685 1.479 . S
C680 C690 1.465 . S
C681 C680 1.264 . S
C681 C683 1.339 . S
C681 H708 0.931 . S
C682 C683 1.395 . S
C682 C684 1.320 . S
C683 C681 1.339 . S
C683 C682 1.395 . S
C683 H709 0.929 . S
C684 C682 1.320 . S
C684 C685 1.405 . S
C684 H710 0.930 . S
C685 C680 1.479 . S
C685 C684 1.405 . S
C685 H711 0.931 . S
U686 O687 2.454 . S
U686 O688 2.458 . S
U686 C689 2.984 . S
U686 C690 2.847 . S
U686 C703 2.882 . S
U686 O704 2.441 . S
U686 O705 2.420 . S
U686 O706 2.455 . S
U686 O707 2.449 . S
O687 U686 2.454 . S
O687 C689 1.353 . S
O688 U686 2.458 . S
O688 C689 1.286 . S
C689 U686 2.984 . S
C689 O687 1.353 . S
C689 O688 1.286 . S
C689 C691 1.363 . S
C690 C680 1.465 . S
C690 U686 2.847 . S
C690 O704 1.249 . S
C690 O705 1.202 . S
C691 C689 1.363 . S
C691 C693 1.408 . S
C691 C696 1.342 . S
C692 C693 1.310 . S
C692 C695 1.461 . S
C692 H712 0.932 . S
C693 C691 1.408 . S
C693 C692 1.310 . S
C693 H713 0.930 . S
C694 C695 1.474 . S
C694 C696 1.285 . S
C694 H714 0.929 . S
C695 C692 1.461 . S
C695 C694 1.474 . S
C696 C691 1.342 . S
C696 C694 1.285 . S
C696 H715 0.930 . S
C697 C700 1.424 . S
C697 C702 1.245 . S
C697 C703 1.428 . S
C698 C701 1.260 . S
C698 C702 1.477 . S
C698 H716 0.932 . S
C699 C700 1.384 . S
C699 C701 1.479 . S
C699 H717 0.929 . S
C700 C697 1.424 . S
C700 C699 1.384 . S
C700 H718 0.928 . S
C701 C698 1.260 . S
C701 C699 1.479 . S
C702 C697 1.245 . S
C702 C698 1.477 . S
C702 H719 0.932 . S
C703 U686 2.882 . S
C703 C697 1.428 . S
C703 O706 1.301 . S
C703 O707 1.282 . S
O704 U686 2.441 . S
O704 C690 1.249 . S
O705 U686 2.420 . S
O705 C690 1.202 . S
O706 U686 2.455 . S
O706 C703 1.301 . S
O707 U686 2.449 . S
O707 C703 1.282 . S
H708 C681 0.931 . S
H709 C683 0.929 . S
H710 C684 0.930 . S
H711 C685 0.931 . S
H712 C692 0.932 . S
H713 C693 0.930 . S
H714 C694 0.929 . S
H715 C696 0.930 . S
H716 C698 0.932 . S
H717 C699 0.929 . S
H718 C700 0.928 . S
H719 C702 0.932 . S
C720 C721 1.264 . S
C720 C725 1.479 . S
C720 C730 1.465 . S
C721 C720 1.264 . S
C721 C723 1.339 . S
C721 H748 0.931 . S
C722 C723 1.395 . S
C722 C724 1.320 . S
C723 C721 1.339 . S
C723 C722 1.395 . S
C723 H749 0.929 . S
C724 C722 1.320 . S
C724 C725 1.405 . S
C724 H750 0.930 . S
C725 C720 1.479 . S
C725 C724 1.405 . S
C725 H751 0.931 . S
U726 O727 2.454 1_556 S
U726 O728 2.458 1_556 S
U726 C729 2.984 1_556 S
U726 C730 2.847 . S
U726 C743 2.882 . S
U726 O744 2.441 . S
U726 O745 2.420 . S
U726 O746 2.455 . S
U726 O747 2.449 . S
O727 U726 2.454 1_554 S
O727 C729 1.353 . S
O728 U726 2.458 1_554 S
O728 C729 1.286 . S
C729 U726 2.984 1_554 S
C729 O727 1.353 . S
C729 O728 1.286 . S
C729 C731 1.363 . S
C730 C720 1.465 . S
C730 U726 2.847 . S
C730 O744 1.249 . S
C730 O745 1.202 . S
C731 C729 1.363 . S
C731 C733 1.408 . S
C731 C736 1.342 . S
C732 C733 1.310 . S
C732 C735 1.461 . S
C732 H752 0.932 . S
C733 C731 1.408 . S
C733 C732 1.310 . S
C733 H753 0.930 . S
C734 C735 1.474 . S
C734 C736 1.285 . S
C734 H754 0.929 . S
C735 C732 1.461 . S
C735 C734 1.474 . S
C736 C731 1.342 . S
C736 C734 1.285 . S
C736 H755 0.930 . S
C737 C740 1.424 . S
C737 C742 1.245 . S
C737 C743 1.428 . S
C738 C741 1.260 . S
C738 C742 1.477 . S
C738 H756 0.932 . S
C739 C740 1.384 . S
C739 C741 1.479 . S
C739 H757 0.929 . S
C740 C737 1.424 . S
C740 C739 1.384 . S
C740 H758 0.928 . S
C741 C738 1.260 . S
C741 C739 1.479 . S
C742 C737 1.245 . S
C742 C738 1.477 . S
C742 H759 0.932 . S
C743 U726 2.882 . S
C743 C737 1.428 . S
C743 O746 1.301 . S
C743 O747 1.282 . S
O744 U726 2.441 . S
O744 C730 1.249 . S
O745 U726 2.420 . S
O745 C730 1.202 . S
O746 U726 2.455 . S
O746 C743 1.301 . S
O747 U726 2.449 . S
O747 C743 1.282 . S
H748 C721 0.931 . S
H749 C723 0.929 . S
H750 C724 0.930 . S
H751 C725 0.931 . S
H752 C732 0.932 . S
H753 C733 0.930 . S
H754 C734 0.929 . S
H755 C736 0.930 . S
H756 C738 0.932 . S
H757 C739 0.929 . S
H758 C740 0.928 . S
H759 C742 0.932 . S
C760 C761 1.264 . S
C760 C765 1.479 . S
C760 C770 1.465 . S
C761 C760 1.264 . S
C761 C763 1.339 . S
C761 H788 0.931 . S
C762 C763 1.395 . S
C762 C764 1.320 . S
C763 C761 1.339 . S
C763 C762 1.395 . S
C763 H789 0.929 . S
C764 C762 1.320 . S
C764 C765 1.405 . S
C764 H790 0.930 . S
C765 C760 1.479 . S
C765 C764 1.405 . S
C765 H791 0.931 . S
U766 O767 2.454 . S
U766 O768 2.458 . S
U766 C769 2.984 . S
U766 C770 2.847 1_655 S
U766 C783 2.882 . S
U766 O784 2.441 1_655 S
U766 O785 2.420 1_655 S
U766 O786 2.455 . S
U766 O787 2.449 . S
O767 U766 2.454 . S
O767 C769 1.353 . S
O768 U766 2.458 . S
O768 C769 1.286 . S
C769 U766 2.984 . S
C769 O767 1.353 . S
C769 O768 1.286 . S
C769 C771 1.363 . S
C770 C760 1.465 . S
C770 U766 2.847 1_455 S
C770 O784 1.249 . S
C770 O785 1.202 . S
C771 C769 1.363 . S
C771 C773 1.408 . S
C771 C776 1.342 . S
C772 C773 1.310 . S
C772 C775 1.461 . S
C772 H792 0.932 . S
C773 C771 1.408 . S
C773 C772 1.310 . S
C773 H793 0.930 . S
C774 C775 1.474 . S
C774 C776 1.285 . S
C774 H794 0.929 . S
C775 C772 1.461 . S
C775 C774 1.474 . S
C776 C771 1.342 . S
C776 C774 1.285 . S
C776 H795 0.930 . S
C777 C780 1.424 . S
C777 C782 1.245 . S
C777 C783 1.428 . S
C778 C781 1.260 . S
C778 C782 1.477 . S
C778 H796 0.932 . S
C779 C780 1.384 . S
C779 C781 1.479 . S
C779 H797 0.929 . S
C780 C777 1.424 . S
C780 C779 1.384 . S
C780 H798 0.928 . S
C781 C778 1.260 . S
C781 C779 1.479 . S
C782 C777 1.245 . S
C782 C778 1.477 . S
C782 H799 0.932 . S
C783 U766 2.882 . S
C783 C777 1.428 . S
C783 O786 1.301 . S
C783 O787 1.282 . S
O784 U766 2.441 1_455 S
O784 C770 1.249 . S
O785 U766 2.420 1_455 S
O785 C770 1.202 . S
O786 U766 2.455 . S
O786 C783 1.301 . S
O787 U766 2.449 . S
O787 C783 1.282 . S
H788 C761 0.931 . S
H789 C763 0.929 . S
H790 C764 0.930 . S
H791 C765 0.931 . S
H792 C772 0.932 . S
H793 C773 0.930 . S
H794 C774 0.929 . S
H795 C776 0.930 . S
H796 C778 0.932 . S
H797 C779 0.929 . S
H798 C780 0.928 . S
H799 C782 0.932 . S
C800 C801 1.264 . S
C800 C805 1.479 . S
C800 C810 1.465 . S
C801 C800 1.264 . S
C801 C803 1.339 . S
C801 H828 0.931 . S
C802 C803 1.395 . S
C802 C804 1.320 . S
C803 C801 1.339 . S
C803 C802 1.395 . S
C803 H829 0.929 . S
C804 C802 1.320 . S
C804 C805 1.405 . S
C804 H830 0.930 . S
C805 C800 1.479 . S
C805 C804 1.405 . S
C805 H831 0.931 . S
U806 O807 2.454 . S
U806 O808 2.458 . S
U806 C809 2.984 . S
U806 C810 2.847 . S
U806 C823 2.882 . S
U806 O824 2.441 . S
U806 O825 2.420 . S
U806 O826 2.455 . S
U806 O827 2.449 . S
O807 U806 2.454 . S
O807 C809 1.353 . S
O808 U806 2.458 . S
O808 C809 1.286 . S
C809 U806 2.984 . S
C809 O807 1.353 . S
C809 O808 1.286 . S
C809 C811 1.363 . S
C810 C800 1.465 . S
C810 U806 2.847 . S
C810 O824 1.249 . S
C810 O825 1.202 . S
C811 C809 1.363 . S
C811 C813 1.408 . S
C811 C816 1.342 . S
C812 C813 1.310 . S
C812 C815 1.461 . S
C812 H832 0.932 . S
C813 C811 1.408 . S
C813 C812 1.310 . S
C813 H833 0.930 . S
C814 C815 1.474 . S
C814 C816 1.285 . S
C814 H834 0.929 . S
C815 C812 1.461 . S
C815 C814 1.474 . S
C816 C811 1.342 . S
C816 C814 1.285 . S
C816 H835 0.930 . S
C817 C820 1.424 . S
C817 C822 1.245 . S
C817 C823 1.428 . S
C818 C821 1.260 . S
C818 C822 1.477 . S
C818 H836 0.932 . S
C819 C820 1.384 . S
C819 C821 1.479 . S
C819 H837 0.929 . S
C820 C817 1.424 . S
C820 C819 1.384 . S
C820 H838 0.928 . S
C821 C818 1.260 . S
C821 C819 1.479 . S
C822 C817 1.245 . S
C822 C818 1.477 . S
C822 H839 0.932 . S
C823 U806 2.882 . S
C823 C817 1.428 . S
C823 O826 1.301 . S
C823 O827 1.282 . S
O824 U806 2.441 . S
O824 C810 1.249 . S
O825 U806 2.420 . S
O825 C810 1.202 . S
O826 U806 2.455 . S
O826 C823 1.301 . S
O827 U806 2.449 . S
O827 C823 1.282 . S
H828 C801 0.931 . S
H829 C803 0.929 . S
H830 C804 0.930 . S
H831 C805 0.931 . S
H832 C812 0.932 . S
H833 C813 0.930 . S
H834 C814 0.929 . S
H835 C816 0.930 . S
H836 C818 0.932 . S
H837 C819 0.929 . S
H838 C820 0.928 . S
H839 C822 0.932 . S
C840 C841 1.264 . S
C840 C845 1.479 . S
C840 C850 1.465 . S
C841 C840 1.264 . S
C841 C843 1.339 . S
C841 H868 0.931 . S
C842 C843 1.395 . S
C842 C844 1.320 . S
C843 C841 1.339 . S
C843 C842 1.395 . S
C843 H869 0.929 . S
C844 C842 1.320 . S
C844 C845 1.405 . S
C844 H870 0.930 . S
C845 C840 1.479 . S
C845 C844 1.405 . S
C845 H871 0.931 . S
U846 O847 2.454 . S
U846 O848 2.458 . S
U846 C849 2.984 . S
U846 C850 2.847 . S
U846 C863 2.882 . S
U846 O864 2.441 . S
U846 O865 2.420 . S
U846 O866 2.455 . S
U846 O867 2.449 . S
O847 U846 2.454 . S
O847 C849 1.353 . S
O848 U846 2.458 . S
O848 C849 1.286 . S
C849 U846 2.984 . S
C849 O847 1.353 . S
C849 O848 1.286 . S
C849 C851 1.363 . S
C850 C840 1.465 . S
C850 U846 2.847 . S
C850 O864 1.249 . S
C850 O865 1.202 . S
C851 C849 1.363 . S
C851 C853 1.408 . S
C851 C856 1.342 . S
C852 C853 1.310 . S
C852 C855 1.461 . S
C852 H872 0.932 . S
C853 C851 1.408 . S
C853 C852 1.310 . S
C853 H873 0.930 . S
C854 C855 1.474 . S
C854 C856 1.285 . S
C854 H874 0.929 . S
C855 C852 1.461 . S
C855 C854 1.474 . S
C856 C851 1.342 . S
C856 C854 1.285 . S
C856 H875 0.930 . S
C857 C860 1.424 . S
C857 C862 1.245 . S
C857 C863 1.428 . S
C858 C861 1.260 . S
C858 C862 1.477 . S
C858 H876 0.932 . S
C859 C860 1.384 . S
C859 C861 1.479 . S
C859 H877 0.929 . S
C860 C857 1.424 . S
C860 C859 1.384 . S
C860 H878 0.928 . S
C861 C858 1.260 . S
C861 C859 1.479 . S
C862 C857 1.245 . S
C862 C858 1.477 . S
C862 H879 0.932 . S
C863 U846 2.882 . S
C863 C857 1.428 . S
C863 O866 1.301 . S
C863 O867 1.282 . S
O864 U846 2.441 . S
O864 C850 1.249 . S
O865 U846 2.420 . S
O865 C850 1.202 . S
O866 U846 2.455 . S
O866 C863 1.301 . S
O867 U846 2.449 . S
O867 C863 1.282 . S
H868 C841 0.931 . S
H869 C843 0.929 . S
H870 C844 0.930 . S
H871 C845 0.931 . S
H872 C852 0.932 . S
H873 C853 0.930 . S
H874 C854 0.929 . S
H875 C856 0.930 . S
H876 C858 0.932 . S
H877 C859 0.929 . S
H878 C860 0.928 . S
H879 C862 0.932 . S
C880 C881 1.264 . S
C880 C885 1.479 . S
C880 C890 1.465 . S
C881 C880 1.264 . S
C881 C883 1.339 . S
C881 H908 0.931 . S
C882 C883 1.395 . S
C882 C884 1.320 . S
C883 C881 1.339 . S
C883 C882 1.395 . S
C883 H909 0.929 . S
C884 C882 1.320 . S
C884 C885 1.405 . S
C884 H910 0.930 . S
C885 C880 1.479 . S
C885 C884 1.405 . S
C885 H911 0.931 . S
U886 O887 2.454 . S
U886 O888 2.458 . S
U886 C889 2.984 . S
U886 C890 2.847 1_554 S
U886 C903 2.882 . S
U886 O904 2.441 1_554 S
U886 O905 2.420 1_554 S
U886 O906 2.455 . S
U886 O907 2.449 . S
O887 U886 2.454 . S
O887 C889 1.353 . S
O888 U886 2.458 . S
O888 C889 1.286 . S
C889 U886 2.984 . S
C889 O887 1.353 . S
C889 O888 1.286 . S
C889 C891 1.363 . S
C890 C880 1.465 . S
C890 U886 2.847 1_556 S
C890 O904 1.249 . S
C890 O905 1.202 . S
C891 C889 1.363 . S
C891 C893 1.408 . S
C891 C896 1.342 . S
C892 C893 1.310 . S
C892 C895 1.461 . S
C892 H912 0.932 . S
C893 C891 1.408 . S
C893 C892 1.310 . S
C893 H913 0.930 . S
C894 C895 1.474 . S
C894 C896 1.285 . S
C894 H914 0.929 . S
C895 C892 1.461 . S
C895 C894 1.474 . S
C896 C891 1.342 . S
C896 C894 1.285 . S
C896 H915 0.930 . S
C897 C900 1.424 . S
C897 C902 1.245 . S
C897 C903 1.428 . S
C898 C901 1.260 . S
C898 C902 1.477 . S
C898 H916 0.932 . S
C899 C900 1.384 . S
C899 C901 1.479 . S
C899 H917 0.929 . S
C900 C897 1.424 . S
C900 C899 1.384 . S
C900 H918 0.928 . S
C901 C898 1.260 . S
C901 C899 1.479 . S
C902 C897 1.245 . S
C902 C898 1.477 . S
C902 H919 0.932 . S
C903 U886 2.882 . S
C903 C897 1.428 . S
C903 O906 1.301 . S
C903 O907 1.282 . S
O904 U886 2.441 1_556 S
O904 C890 1.249 . S
O905 U886 2.420 1_556 S
O905 C890 1.202 . S
O906 U886 2.455 . S
O906 C903 1.301 . S
O907 U886 2.449 . S
O907 C903 1.282 . S
H908 C881 0.931 . S
H909 C883 0.929 . S
H910 C884 0.930 . S
H911 C885 0.931 . S
H912 C892 0.932 . S
H913 C893 0.930 . S
H914 C894 0.929 . S
H915 C896 0.930 . S
H916 C898 0.932 . S
H917 C899 0.929 . S
H918 C900 0.928 . S
H919 C902 0.932 . S
C920 C921 1.264 . S
C920 C925 1.479 . S
C920 C930 1.465 . S
C921 C920 1.264 . S
C921 C923 1.339 . S
C921 H948 0.931 . S
C922 C923 1.395 . S
C922 C924 1.320 . S
C923 C921 1.339 . S
C923 C922 1.395 . S
C923 H949 0.929 . S
C924 C922 1.320 . S
C924 C925 1.405 . S
C924 H950 0.930 . S
C925 C920 1.479 . S
C925 C924 1.405 . S
C925 H951 0.931 . S
U926 O927 2.454 1_565 S
U926 O928 2.458 1_565 S
U926 C929 2.984 1_565 S
U926 C930 2.847 . S
U926 C943 2.882 . S
U926 O944 2.441 . S
U926 O945 2.420 . S
U926 O946 2.455 . S
U926 O947 2.449 . S
O927 U926 2.454 1_545 S
O927 C929 1.353 . S
O928 U926 2.458 1_545 S
O928 C929 1.286 . S
C929 U926 2.984 1_545 S
C929 O927 1.353 . S
C929 O928 1.286 . S
C929 C931 1.363 . S
C930 C920 1.465 . S
C930 U926 2.847 . S
C930 O944 1.249 . S
C930 O945 1.202 . S
C931 C929 1.363 . S
C931 C933 1.408 . S
C931 C936 1.342 . S
C932 C933 1.310 . S
C932 C935 1.461 . S
C932 H952 0.932 . S
C933 C931 1.408 . S
C933 C932 1.310 . S
C933 H953 0.930 . S
C934 C935 1.474 . S
C934 C936 1.285 . S
C934 H954 0.929 . S
C935 C932 1.461 . S
C935 C934 1.474 . S
C936 C931 1.342 . S
C936 C934 1.285 . S
C936 H955 0.930 . S
C937 C940 1.424 . S
C937 C942 1.245 . S
C937 C943 1.428 . S
C938 C941 1.260 . S
C938 C942 1.477 . S
C938 H956 0.932 . S
C939 C940 1.384 . S
C939 C941 1.479 . S
C939 H957 0.929 . S
C940 C937 1.424 . S
C940 C939 1.384 . S
C940 H958 0.928 . S
C941 C938 1.260 . S
C941 C939 1.479 . S
C942 C937 1.245 . S
C942 C938 1.477 . S
C942 H959 0.932 . S
C943 U926 2.882 . S
C943 C937 1.428 . S
C943 O946 1.301 . S
C943 O947 1.282 . S
O944 U926 2.441 . S
O944 C930 1.249 . S
O945 U926 2.420 . S
O945 C930 1.202 . S
O946 U926 2.455 . S
O946 C943 1.301 . S
O947 U926 2.449 . S
O947 C943 1.282 . S
H948 C921 0.931 . S
H949 C923 0.929 . S
H950 C924 0.930 . S
H951 C925 0.931 . S
H952 C932 0.932 . S
H953 C933 0.930 . S
H954 C934 0.929 . S
H955 C936 0.930 . S
H956 C938 0.932 . S
H957 C939 0.929 . S
H958 C940 0.928 . S
H959 C942 0.932 . S
C960 C961 1.264 . S
C960 C965 1.479 . S
C960 C970 1.465 . S
C961 C960 1.264 . S
C961 C963 1.339 . S
C961 H988 0.931 . S
C962 C963 1.395 . S
C962 C964 1.320 . S
C963 C961 1.339 . S
C963 C962 1.395 . S
C963 H989 0.929 . S
C964 C962 1.320 . S
C964 C965 1.405 . S
C964 H990 0.930 . S
C965 C960 1.479 . S
C965 C964 1.405 . S
C965 H991 0.931 . S
U966 O967 2.454 1_565 S
U966 O968 2.458 1_565 S
U966 C969 2.984 1_565 S
U966 C970 2.847 . S
U966 C983 2.882 . S
U966 O984 2.441 . S
U966 O985 2.420 . S
U966 O986 2.455 . S
U966 O987 2.449 . S
O967 U966 2.454 1_545 S
O967 C969 1.353 . S
O968 U966 2.458 1_545 S
O968 C969 1.286 . S
C969 U966 2.984 1_545 S
C969 O967 1.353 . S
C969 O968 1.286 . S
C969 C971 1.363 . S
C970 C960 1.465 . S
C970 U966 2.847 . S
C970 O984 1.249 . S
C970 O985 1.202 . S
C971 C969 1.363 . S
C971 C973 1.408 . S
C971 C976 1.342 . S
C972 C973 1.310 . S
C972 C975 1.461 . S
C972 H992 0.932 . S
C973 C971 1.408 . S
C973 C972 1.310 . S
C973 H993 0.930 . S
C974 C975 1.474 . S
C974 C976 1.285 . S
C974 H994 0.929 . S
C975 C972 1.461 . S
C975 C974 1.474 . S
C976 C971 1.342 . S
C976 C974 1.285 . S
C976 H995 0.930 . S
C977 C980 1.424 . S
C977 C982 1.245 . S
C977 C983 1.428 . S
C978 C981 1.260 . S
C978 C982 1.477 . S
C978 H996 0.932 . S
C979 C980 1.384 . S
C979 C981 1.479 . S
C979 H997 0.929 . S
C980 C977 1.424 . S
C980 C979 1.384 . S
C980 H998 0.928 . S
C981 C978 1.260 . S
C981 C979 1.479 . S
C982 C977 1.245 . S
C982 C978 1.477 . S
C982 H999 0.932 . S
C983 U966 2.882 . S
C983 C977 1.428 . S
C983 O986 1.301 . S
C983 O987 1.282 . S
O984 U966 2.441 . S
O984 C970 1.249 . S
O985 U966 2.420 . S
O985 C970 1.202 . S
O986 U966 2.455 . S
O986 C983 1.301 . S
O987 U966 2.449 . S
O987 C983 1.282 . S
H988 C961 0.931 . S
H989 C963 0.929 . S
H990 C964 0.930 . S
H991 C965 0.931 . S
H992 C972 0.932 . S
H993 C973 0.930 . S
H994 C974 0.929 . S
H995 C976 0.930 . S
H996 C978 0.932 . S
H997 C979 0.929 . S
H998 C980 0.928 . S
H999 C982 0.932 . S
C1000 C1001 1.264 . S
C1000 C1005 1.479 . S
C1000 C1010 1.465 . S
C1001 C1000 1.264 . S
C1001 C1003 1.339 . S
C1001 H1028 0.931 . S
C1002 C1003 1.395 . S
C1002 C1004 1.320 . S
C1003 C1001 1.339 . S
C1003 C1002 1.395 . S
C1003 H1029 0.929 . S
C1004 C1002 1.320 . S
C1004 C1005 1.405 . S
C1004 H1030 0.930 . S
C1005 C1000 1.479 . S
C1005 C1004 1.405 . S
C1005 H1031 0.931 . S
U1006 O1007 2.454 . S
U1006 O1008 2.458 . S
U1006 C1009 2.984 . S
U1006 C1010 2.847 1_545 S
U1006 C1023 2.882 . S
U1006 O1024 2.441 1_545 S
U1006 O1025 2.420 1_545 S
U1006 O1026 2.455 . S
U1006 O1027 2.449 . S
O1007 U1006 2.454 . S
O1007 C1009 1.353 . S
O1008 U1006 2.458 . S
O1008 C1009 1.286 . S
C1009 U1006 2.984 . S
C1009 O1007 1.353 . S
C1009 O1008 1.286 . S
C1009 C1011 1.363 . S
C1010 C1000 1.465 . S
C1010 U1006 2.847 1_565 S
C1010 O1024 1.249 . S
C1010 O1025 1.202 . S
C1011 C1009 1.363 . S
C1011 C1013 1.408 . S
C1011 C1016 1.342 . S
C1012 C1013 1.310 . S
C1012 C1015 1.461 . S
C1012 H1032 0.932 . S
C1013 C1011 1.408 . S
C1013 C1012 1.310 . S
C1013 H1033 0.930 . S
C1014 C1015 1.474 . S
C1014 C1016 1.285 . S
C1014 H1034 0.929 . S
C1015 C1012 1.461 . S
C1015 C1014 1.474 . S
C1016 C1011 1.342 . S
C1016 C1014 1.285 . S
C1016 H1035 0.930 . S
C1017 C1020 1.424 . S
C1017 C1022 1.245 . S
C1017 C1023 1.428 . S
C1018 C1021 1.260 . S
C1018 C1022 1.477 . S
C1018 H1036 0.932 . S
C1019 C1020 1.384 . S
C1019 C1021 1.479 . S
C1019 H1037 0.929 . S
C1020 C1017 1.424 . S
C1020 C1019 1.384 . S
C1020 H1038 0.928 . S
C1021 C1018 1.260 . S
C1021 C1019 1.479 . S
C1022 C1017 1.245 . S
C1022 C1018 1.477 . S
C1022 H1039 0.932 . S
C1023 U1006 2.882 . S
C1023 C1017 1.428 . S
C1023 O1026 1.301 . S
C1023 O1027 1.282 . S
O1024 U1006 2.441 1_565 S
O1024 C1010 1.249 . S
O1025 U1006 2.420 1_565 S
O1025 C1010 1.202 . S
O1026 U1006 2.455 . S
O1026 C1023 1.301 . S
O1027 U1006 2.449 . S
O1027 C1023 1.282 . S
H1028 C1001 0.931 . S
H1029 C1003 0.929 . S
H1030 C1004 0.930 . S
H1031 C1005 0.931 . S
H1032 C1012 0.932 . S
H1033 C1013 0.930 . S
H1034 C1014 0.929 . S
H1035 C1016 0.930 . S
H1036 C1018 0.932 . S
H1037 C1019 0.929 . S
H1038 C1020 0.928 . S
H1039 C1022 0.932 . S
C1040 C1041 1.264 . S
C1040 C1045 1.479 . S
C1040 C1050 1.465 . S
C1041 C1040 1.264 . S
C1041 C1043 1.339 . S
C1041 H1068 0.931 . S
C1042 C1043 1.395 . S
C1042 C1044 1.320 . S
C1043 C1041 1.339 . S
C1043 C1042 1.395 . S
C1043 H1069 0.929 . S
C1044 C1042 1.320 . S
C1044 C1045 1.405 . S
C1044 H1070 0.930 . S
C1045 C1040 1.479 . S
C1045 C1044 1.405 . S
C1045 H1071 0.931 . S
U1046 O1047 2.454 . S
U1046 O1048 2.458 . S
U1046 C1049 2.984 . S
U1046 C1050 2.847 1_545 S
U1046 C1063 2.882 . S
U1046 O1064 2.441 1_545 S
U1046 O1065 2.420 1_545 S
U1046 O1066 2.455 . S
U1046 O1067 2.449 . S
O1047 U1046 2.454 . S
O1047 C1049 1.353 . S
O1048 U1046 2.458 . S
O1048 C1049 1.286 . S
C1049 U1046 2.984 . S
C1049 O1047 1.353 . S
C1049 O1048 1.286 . S
C1049 C1051 1.363 . S
C1050 C1040 1.465 . S
C1050 U1046 2.847 1_565 S
C1050 O1064 1.249 . S
C1050 O1065 1.202 . S
C1051 C1049 1.363 . S
C1051 C1053 1.408 . S
C1051 C1056 1.342 . S
C1052 C1053 1.310 . S
C1052 C1055 1.461 . S
C1052 H1072 0.932 . S
C1053 C1051 1.408 . S
C1053 C1052 1.310 . S
C1053 H1073 0.930 . S
C1054 C1055 1.474 . S
C1054 C1056 1.285 . S
C1054 H1074 0.929 . S
C1055 C1052 1.461 . S
C1055 C1054 1.474 . S
C1056 C1051 1.342 . S
C1056 C1054 1.285 . S
C1056 H1075 0.930 . S
C1057 C1060 1.424 . S
C1057 C1062 1.245 . S
C1057 C1063 1.428 . S
C1058 C1061 1.260 . S
C1058 C1062 1.477 . S
C1058 H1076 0.932 . S
C1059 C1060 1.384 . S
C1059 C1061 1.479 . S
C1059 H1077 0.929 . S
C1060 C1057 1.424 . S
C1060 C1059 1.384 . S
C1060 H1078 0.928 . S
C1061 C1058 1.260 . S
C1061 C1059 1.479 . S
C1062 C1057 1.245 . S
C1062 C1058 1.477 . S
C1062 H1079 0.932 . S
C1063 U1046 2.882 . S
C1063 C1057 1.428 . S
C1063 O1066 1.301 . S
C1063 O1067 1.282 . S
O1064 U1046 2.441 1_565 S
O1064 C1050 1.249 . S
O1065 U1046 2.420 1_565 S
O1065 C1050 1.202 . S
O1066 U1046 2.455 . S
O1066 C1063 1.301 . S
O1067 U1046 2.449 . S
O1067 C1063 1.282 . S
H1068 C1041 0.931 . S
H1069 C1043 0.929 . S
H1070 C1044 0.930 . S
H1071 C1045 0.931 . S
H1072 C1052 0.932 . S
H1073 C1053 0.930 . S
H1074 C1054 0.929 . S
H1075 C1056 0.930 . S
H1076 C1058 0.932 . S
H1077 C1059 0.929 . S
H1078 C1060 0.928 . S
H1079 C1062 0.932 . S
C1080 C1081 1.264 . S
C1080 C1085 1.479 . S
C1080 C1090 1.465 . S
C1081 C1080 1.264 . S
C1081 C1083 1.339 . S
C1081 H1108 0.931 . S
C1082 C1083 1.395 . S
C1082 C1084 1.320 . S
C1083 C1081 1.339 . S
C1083 C1082 1.395 . S
C1083 H1109 0.929 . S
C1084 C1082 1.320 . S
C1084 C1085 1.405 . S
C1084 H1110 0.930 . S
C1085 C1080 1.479 . S
C1085 C1084 1.405 . S
C1085 H1111 0.931 . S
U1086 O1087 2.454 1_556 S
U1086 O1088 2.458 1_556 S
U1086 C1089 2.984 1_556 S
U1086 C1090 2.847 . S
U1086 C1103 2.882 . S
U1086 O1104 2.441 . S
U1086 O1105 2.420 . S
U1086 O1106 2.455 . S
U1086 O1107 2.449 . S
O1087 U1086 2.454 1_554 S
O1087 C1089 1.353 . S
O1088 U1086 2.458 1_554 S
O1088 C1089 1.286 . S
C1089 U1086 2.984 1_554 S
C1089 O1087 1.353 . S
C1089 O1088 1.286 . S
C1089 C1091 1.363 . S
C1090 C1080 1.465 . S
C1090 U1086 2.847 . S
C1090 O1104 1.249 . S
C1090 O1105 1.202 . S
C1091 C1089 1.363 . S
C1091 C1093 1.408 . S
C1091 C1096 1.342 . S
C1092 C1093 1.310 . S
C1092 C1095 1.461 . S
C1092 H1112 0.932 . S
C1093 C1091 1.408 . S
C1093 C1092 1.310 . S
C1093 H1113 0.930 . S
C1094 C1095 1.474 . S
C1094 C1096 1.285 . S
C1094 H1114 0.929 . S
C1095 C1092 1.461 . S
C1095 C1094 1.474 . S
C1096 C1091 1.342 . S
C1096 C1094 1.285 . S
C1096 H1115 0.930 . S
C1097 C1100 1.424 . S
C1097 C1102 1.245 . S
C1097 C1103 1.428 . S
C1098 C1101 1.260 . S
C1098 C1102 1.477 . S
C1098 H1116 0.932 . S
C1099 C1100 1.384 . S
C1099 C1101 1.479 . S
C1099 H1117 0.929 . S
C1100 C1097 1.424 . S
C1100 C1099 1.384 . S
C1100 H1118 0.928 . S
C1101 C1098 1.260 . S
C1101 C1099 1.479 . S
C1102 C1097 1.245 . S
C1102 C1098 1.477 . S
C1102 H1119 0.932 . S
C1103 U1086 2.882 . S
C1103 C1097 1.428 . S
C1103 O1106 1.301 . S
C1103 O1107 1.282 . S
O1104 U1086 2.441 . S
O1104 C1090 1.249 . S
O1105 U1086 2.420 . S
O1105 C1090 1.202 . S
O1106 U1086 2.455 . S
O1106 C1103 1.301 . S
O1107 U1086 2.449 . S
O1107 C1103 1.282 . S
H1108 C1081 0.931 . S
H1109 C1083 0.929 . S
H1110 C1084 0.930 . S
H1111 C1085 0.931 . S
H1112 C1092 0.932 . S
H1113 C1093 0.930 . S
H1114 C1094 0.929 . S
H1115 C1096 0.930 . S
H1116 C1098 0.932 . S
H1117 C1099 0.929 . S
H1118 C1100 0.928 . S
H1119 C1102 0.932 . S
C1120 C1121 1.264 . S
C1120 C1125 1.479 . S
C1120 C1130 1.465 . S
C1121 C1120 1.264 . S
C1121 C1123 1.339 . S
C1121 H1148 0.931 . S
C1122 C1123 1.395 . S
C1122 C1124 1.320 . S
C1123 C1121 1.339 . S
C1123 C1122 1.395 . S
C1123 H1149 0.929 . S
C1124 C1122 1.320 . S
C1124 C1125 1.405 . S
C1124 H1150 0.930 . S
C1125 C1120 1.479 . S
C1125 C1124 1.405 . S
C1125 H1151 0.931 . S
U1126 O1127 2.454 . S
U1126 O1128 2.458 . S
U1126 C1129 2.984 . S
U1126 C1130 2.847 1_455 S
U1126 C1143 2.882 . S
U1126 O1144 2.441 1_455 S
U1126 O1145 2.420 1_455 S
U1126 O1146 2.455 . S
U1126 O1147 2.449 . S
O1127 U1126 2.454 . S
O1127 C1129 1.353 . S
O1128 U1126 2.458 . S
O1128 C1129 1.286 . S
C1129 U1126 2.984 . S
C1129 O1127 1.353 . S
C1129 O1128 1.286 . S
C1129 C1131 1.363 . S
C1130 C1120 1.465 . S
C1130 U1126 2.847 1_655 S
C1130 O1144 1.249 . S
C1130 O1145 1.202 . S
C1131 C1129 1.363 . S
C1131 C1133 1.408 . S
C1131 C1136 1.342 . S
C1132 C1133 1.310 . S
C1132 C1135 1.461 . S
C1132 H1152 0.932 . S
C1133 C1131 1.408 . S
C1133 C1132 1.310 . S
C1133 H1153 0.930 . S
C1134 C1135 1.474 . S
C1134 C1136 1.285 . S
C1134 H1154 0.929 . S
C1135 C1132 1.461 . S
C1135 C1134 1.474 . S
C1136 C1131 1.342 . S
C1136 C1134 1.285 . S
C1136 H1155 0.930 . S
C1137 C1140 1.424 . S
C1137 C1142 1.245 . S
C1137 C1143 1.428 . S
C1138 C1141 1.260 . S
C1138 C1142 1.477 . S
C1138 H1156 0.932 . S
C1139 C1140 1.384 . S
C1139 C1141 1.479 . S
C1139 H1157 0.929 . S
C1140 C1137 1.424 . S
C1140 C1139 1.384 . S
C1140 H1158 0.928 . S
C1141 C1138 1.260 . S
C1141 C1139 1.479 . S
C1142 C1137 1.245 . S
C1142 C1138 1.477 . S
C1142 H1159 0.932 . S
C1143 U1126 2.882 . S
C1143 C1137 1.428 . S
C1143 O1146 1.301 . S
C1143 O1147 1.282 . S
O1144 U1126 2.441 1_655 S
O1144 C1130 1.249 . S
O1145 U1126 2.420 1_655 S
O1145 C1130 1.202 . S
O1146 U1126 2.455 . S
O1146 C1143 1.301 . S
O1147 U1126 2.449 . S
O1147 C1143 1.282 . S
H1148 C1121 0.931 . S
H1149 C1123 0.929 . S
H1150 C1124 0.930 . S
H1151 C1125 0.931 . S
H1152 C1132 0.932 . S
H1153 C1133 0.930 . S
H1154 C1134 0.929 . S
H1155 C1136 0.930 . S
H1156 C1138 0.932 . S
H1157 C1139 0.929 . S
H1158 C1140 0.928 . S
H1159 C1142 0.932 . S
C1160 C1161 1.264 . S
C1160 C1165 1.479 . S
C1160 C1170 1.465 . S
C1161 C1160 1.264 . S
C1161 C1163 1.339 . S
C1161 H1188 0.931 . S
C1162 C1163 1.395 . S
C1162 C1164 1.320 . S
C1163 C1161 1.339 . S
C1163 C1162 1.395 . S
C1163 H1189 0.929 . S
C1164 C1162 1.320 . S
C1164 C1165 1.405 . S
C1164 H1190 0.930 . S
C1165 C1160 1.479 . S
C1165 C1164 1.405 . S
C1165 H1191 0.931 . S
U1166 O1167 2.454 . S
U1166 O1168 2.458 . S
U1166 C1169 2.984 . S
U1166 C1170 2.847 . S
U1166 C1183 2.882 . S
U1166 O1184 2.441 . S
U1166 O1185 2.420 . S
U1166 O1186 2.455 . S
U1166 O1187 2.449 . S
O1167 U1166 2.454 . S
O1167 C1169 1.353 . S
O1168 U1166 2.458 . S
O1168 C1169 1.286 . S
C1169 U1166 2.984 . S
C1169 O1167 1.353 . S
C1169 O1168 1.286 . S
C1169 C1171 1.363 . S
C1170 C1160 1.465 . S
C1170 U1166 2.847 . S
C1170 O1184 1.249 . S
C1170 O1185 1.202 . S
C1171 C1169 1.363 . S
C1171 C1173 1.408 . S
C1171 C1176 1.342 . S
C1172 C1173 1.310 . S
C1172 C1175 1.461 . S
C1172 H1192 0.932 . S
C1173 C1171 1.408 . S
C1173 C1172 1.310 . S
C1173 H1193 0.930 . S
C1174 C1175 1.474 . S
C1174 C1176 1.285 . S
C1174 H1194 0.929 . S
C1175 C1172 1.461 . S
C1175 C1174 1.474 . S
C1176 C1171 1.342 . S
C1176 C1174 1.285 . S
C1176 H1195 0.930 . S
C1177 C1180 1.424 . S
C1177 C1182 1.245 . S
C1177 C1183 1.428 . S
C1178 C1181 1.260 . S
C1178 C1182 1.477 . S
C1178 H1196 0.932 . S
C1179 C1180 1.384 . S
C1179 C1181 1.479 . S
C1179 H1197 0.929 . S
C1180 C1177 1.424 . S
C1180 C1179 1.384 . S
C1180 H1198 0.928 . S
C1181 C1178 1.260 . S
C1181 C1179 1.479 . S
C1182 C1177 1.245 . S
C1182 C1178 1.477 . S
C1182 H1199 0.932 . S
C1183 U1166 2.882 . S
C1183 C1177 1.428 . S
C1183 O1186 1.301 . S
C1183 O1187 1.282 . S
O1184 U1166 2.441 . S
O1184 C1170 1.249 . S
O1185 U1166 2.420 . S
O1185 C1170 1.202 . S
O1186 U1166 2.455 . S
O1186 C1183 1.301 . S
O1187 U1166 2.449 . S
O1187 C1183 1.282 . S
H1188 C1161 0.931 . S
H1189 C1163 0.929 . S
H1190 C1164 0.930 . S
H1191 C1165 0.931 . S
H1192 C1172 0.932 . S
H1193 C1173 0.930 . S
H1194 C1174 0.929 . S
H1195 C1176 0.930 . S
H1196 C1178 0.932 . S
H1197 C1179 0.929 . S
H1198 C1180 0.928 . S
H1199 C1182 0.932 . S
C1200 C1201 1.264 . S
C1200 C1205 1.479 . S
C1200 C1210 1.465 . S
C1201 C1200 1.264 . S
C1201 C1203 1.339 . S
C1201 H1228 0.931 . S
C1202 C1203 1.395 . S
C1202 C1204 1.320 . S
C1203 C1201 1.339 . S
C1203 C1202 1.395 . S
C1203 H1229 0.929 . S
C1204 C1202 1.320 . S
C1204 C1205 1.405 . S
C1204 H1230 0.930 . S
C1205 C1200 1.479 . S
C1205 C1204 1.405 . S
C1205 H1231 0.931 . S
U1206 O1207 2.454 . S
U1206 O1208 2.458 . S
U1206 C1209 2.984 . S
U1206 C1210 2.847 . S
U1206 C1223 2.882 . S
U1206 O1224 2.441 . S
U1206 O1225 2.420 . S
U1206 O1226 2.455 . S
U1206 O1227 2.449 . S
O1207 U1206 2.454 . S
O1207 C1209 1.353 . S
O1208 U1206 2.458 . S
O1208 C1209 1.286 . S
C1209 U1206 2.984 . S
C1209 O1207 1.353 . S
C1209 O1208 1.286 . S
C1209 C1211 1.363 . S
C1210 C1200 1.465 . S
C1210 U1206 2.847 . S
C1210 O1224 1.249 . S
C1210 O1225 1.202 . S
C1211 C1209 1.363 . S
C1211 C1213 1.408 . S
C1211 C1216 1.342 . S
C1212 C1213 1.310 . S
C1212 C1215 1.461 . S
C1212 H1232 0.932 . S
C1213 C1211 1.408 . S
C1213 C1212 1.310 . S
C1213 H1233 0.930 . S
C1214 C1215 1.474 . S
C1214 C1216 1.285 . S
C1214 H1234 0.929 . S
C1215 C1212 1.461 . S
C1215 C1214 1.474 . S
C1216 C1211 1.342 . S
C1216 C1214 1.285 . S
C1216 H1235 0.930 . S
C1217 C1220 1.424 . S
C1217 C1222 1.245 . S
C1217 C1223 1.428 . S
C1218 C1221 1.260 . S
C1218 C1222 1.477 . S
C1218 H1236 0.932 . S
C1219 C1220 1.384 . S
C1219 C1221 1.479 . S
C1219 H1237 0.929 . S
C1220 C1217 1.424 . S
C1220 C1219 1.384 . S
C1220 H1238 0.928 . S
C1221 C1218 1.260 . S
C1221 C1219 1.479 . S
C1222 C1217 1.245 . S
C1222 C1218 1.477 . S
C1222 H1239 0.932 . S
C1223 U1206 2.882 . S
C1223 C1217 1.428 . S
C1223 O1226 1.301 . S
C1223 O1227 1.282 . S
O1224 U1206 2.441 . S
O1224 C1210 1.249 . S
O1225 U1206 2.420 . S
O1225 C1210 1.202 . S
O1226 U1206 2.455 . S
O1226 C1223 1.301 . S
O1227 U1206 2.449 . S
O1227 C1223 1.282 . S
H1228 C1201 0.931 . S
H1229 C1203 0.929 . S
H1230 C1204 0.930 . S
H1231 C1205 0.931 . S
H1232 C1212 0.932 . S
H1233 C1213 0.930 . S
H1234 C1214 0.929 . S
H1235 C1216 0.930 . S
H1236 C1218 0.932 . S
H1237 C1219 0.929 . S
H1238 C1220 0.928 . S
H1239 C1222 0.932 . S
C1240 C1241 1.264 . S
C1240 C1245 1.479 . S
C1240 C1250 1.465 . S
C1241 C1240 1.264 . S
C1241 C1243 1.339 . S
C1241 H1268 0.931 . S
C1242 C1243 1.395 . S
C1242 C1244 1.320 . S
C1243 C1241 1.339 . S
C1243 C1242 1.395 . S
C1243 H1269 0.929 . S
C1244 C1242 1.320 . S
C1244 C1245 1.405 . S
C1244 H1270 0.930 . S
C1245 C1240 1.479 . S
C1245 C1244 1.405 . S
C1245 H1271 0.931 . S
U1246 O1247 2.454 . S
U1246 O1248 2.458 . S
U1246 C1249 2.984 . S
U1246 C1250 2.847 . S
U1246 C1263 2.882 . S
U1246 O1264 2.441 . S
U1246 O1265 2.420 . S
U1246 O1266 2.455 . S
U1246 O1267 2.449 . S
O1247 U1246 2.454 . S
O1247 C1249 1.353 . S
O1248 U1246 2.458 . S
O1248 C1249 1.286 . S
C1249 U1246 2.984 . S
C1249 O1247 1.353 . S
C1249 O1248 1.286 . S
C1249 C1251 1.363 1_655 S
C1250 C1240 1.465 . S
C1250 U1246 2.847 . S
C1250 O1264 1.249 . S
C1250 O1265 1.202 . S
C1251 C1249 1.363 1_455 S
C1251 C1253 1.408 . S
C1251 C1256 1.342 . S
C1252 C1253 1.310 . S
C1252 C1255 1.461 . S
C1252 H1272 0.932 . S
C1253 C1251 1.408 . S
C1253 C1252 1.310 . S
C1253 H1273 0.930 . S
C1254 C1255 1.474 . S
C1254 C1256 1.285 . S
C1254 H1274 0.929 . S
C1255 C1252 1.461 . S
C1255 C1254 1.474 . S
C1256 C1251 1.342 . S
C1256 C1254 1.285 . S
C1256 H1275 0.930 1_455 S
C1257 C1260 1.424 . S
C1257 C1262 1.245 . S
C1257 C1263 1.428 . S
C1258 C1261 1.260 . S
C1258 C1262 1.477 . S
C1258 H1276 0.932 . S
C1259 C1260 1.384 . S
C1259 C1261 1.479 . S
C1259 H1277 0.929 . S
C1260 C1257 1.424 . S
C1260 C1259 1.384 . S
C1260 H1278 0.928 . S
C1261 C1258 1.260 . S
C1261 C1259 1.479 . S
C1262 C1257 1.245 . S
C1262 C1258 1.477 . S
C1262 H1279 0.932 . S
C1263 U1246 2.882 . S
C1263 C1257 1.428 . S
C1263 O1266 1.301 . S
C1263 O1267 1.282 . S
O1264 U1246 2.441 . S
O1264 C1250 1.249 . S
O1265 U1246 2.420 . S
O1265 C1250 1.202 . S
O1266 U1246 2.455 . S
O1266 C1263 1.301 . S
O1267 U1246 2.449 . S
O1267 C1263 1.282 . S
H1268 C1241 0.931 . S
H1269 C1243 0.929 . S
H1270 C1244 0.930 . S
H1271 C1245 0.931 . S
H1272 C1252 0.932 . S
H1273 C1253 0.930 . S
H1274 C1254 0.929 . S
H1275 C1256 0.930 1_655 S
H1276 C1258 0.932 . S
H1277 C1259 0.929 . S
H1278 C1260 0.928 . S
H1279 C1262 0.932 . S
C1280 C1281 1.264 . S
C1280 C1285 1.479 . S
C1280 C1290 1.465 . S
C1281 C1280 1.264 . S
C1281 C1283 1.339 . S
C1281 H1308 0.931 . S
C1282 C1283 1.395 . S
C1282 C1284 1.320 . S
C1283 C1281 1.339 . S
C1283 C1282 1.395 . S
C1283 H1309 0.929 . S
C1284 C1282 1.320 . S
C1284 C1285 1.405 . S
C1284 H1310 0.930 . S
C1285 C1280 1.479 . S
C1285 C1284 1.405 . S
C1285 H1311 0.931 . S
U1286 O1287 2.454 . S
U1286 O1288 2.458 . S
U1286 C1289 2.984 . S
U1286 C1290 2.847 . S
U1286 C1303 2.882 . S
U1286 O1304 2.441 . S
U1286 O1305 2.420 . S
U1286 O1306 2.455 . S
U1286 O1307 2.449 . S
O1287 U1286 2.454 . S
O1287 C1289 1.353 . S
O1288 U1286 2.458 . S
O1288 C1289 1.286 . S
C1289 U1286 2.984 . S
C1289 O1287 1.353 . S
C1289 O1288 1.286 . S
C1289 C1291 1.363 . S
C1290 C1280 1.465 . S
C1290 U1286 2.847 . S
C1290 O1304 1.249 . S
C1290 O1305 1.202 . S
C1291 C1289 1.363 . S
C1291 C1293 1.408 . S
C1291 C1296 1.342 . S
C1292 C1293 1.310 . S
C1292 C1295 1.461 . S
C1292 H1312 0.932 . S
C1293 C1291 1.408 . S
C1293 C1292 1.310 . S
C1293 H1313 0.930 . S
C1294 C1295 1.474 . S
C1294 C1296 1.285 . S
C1294 H1314 0.929 . S
C1295 C1292 1.461 . S
C1295 C1294 1.474 . S
C1296 C1291 1.342 . S
C1296 C1294 1.285 . S
C1296 H1315 0.930 . S
C1297 C1300 1.424 . S
C1297 C1302 1.245 . S
C1297 C1303 1.428 . S
C1298 C1301 1.260 . S
C1298 C1302 1.477 . S
C1298 H1316 0.932 . S
C1299 C1300 1.384 . S
C1299 C1301 1.479 . S
C1299 H1317 0.929 . S
C1300 C1297 1.424 . S
C1300 C1299 1.384 . S
C1300 H1318 0.928 . S
C1301 C1298 1.260 . S
C1301 C1299 1.479 . S
C1302 C1297 1.245 . S
C1302 C1298 1.477 . S
C1302 H1319 0.932 . S
C1303 U1286 2.882 . S
C1303 C1297 1.428 . S
C1303 O1306 1.301 . S
C1303 O1307 1.282 . S
O1304 U1286 2.441 . S
O1304 C1290 1.249 . S
O1305 U1286 2.420 . S
O1305 C1290 1.202 . S
O1306 U1286 2.455 . S
O1306 C1303 1.301 . S
O1307 U1286 2.449 . S
O1307 C1303 1.282 . S
H1308 C1281 0.931 . S
H1309 C1283 0.929 . S
H1310 C1284 0.930 . S
H1311 C1285 0.931 . S
H1312 C1292 0.932 . S
H1313 C1293 0.930 . S
H1314 C1294 0.929 . S
H1315 C1296 0.930 . S
H1316 C1298 0.932 . S
H1317 C1299 0.929 . S
H1318 C1300 0.928 . S
H1319 C1302 0.932 . S
C1320 C1321 1.264 . S
C1320 C1325 1.479 . S
C1320 C1330 1.465 . S
C1321 C1320 1.264 . S
C1321 C1323 1.339 . S
C1321 H1348 0.931 . S
C1322 C1323 1.395 . S
C1322 C1324 1.320 . S
C1323 C1321 1.339 . S
C1323 C1322 1.395 . S
C1323 H1349 0.929 . S
C1324 C1322 1.320 . S
C1324 C1325 1.405 . S
C1324 H1350 0.930 . S
C1325 C1320 1.479 . S
C1325 C1324 1.405 . S
C1325 H1351 0.931 . S
U1326 O1327 2.454 . S
U1326 O1328 2.458 . S
U1326 C1329 2.984 . S
U1326 C1330 2.847 . S
U1326 C1343 2.882 . S
U1326 O1344 2.441 . S
U1326 O1345 2.420 . S
U1326 O1346 2.455 . S
U1326 O1347 2.449 . S
O1327 U1326 2.454 . S
O1327 C1329 1.353 . S
O1328 U1326 2.458 . S
O1328 C1329 1.286 . S
C1329 U1326 2.984 . S
C1329 O1327 1.353 . S
C1329 O1328 1.286 . S
C1329 C1331 1.363 1_556 S
C1330 C1320 1.465 . S
C1330 U1326 2.847 . S
C1330 O1344 1.249 . S
C1330 O1345 1.202 . S
C1331 C1329 1.363 1_554 S
C1331 C1333 1.408 . S
C1331 C1336 1.342 . S
C1332 C1333 1.310 . S
C1332 C1335 1.461 . S
C1332 H1352 0.932 . S
C1333 C1331 1.408 . S
C1333 C1332 1.310 . S
C1333 H1353 0.930 . S
C1334 C1335 1.474 . S
C1334 C1336 1.285 . S
C1334 H1354 0.929 . S
C1335 C1332 1.461 . S
C1335 C1334 1.474 . S
C1336 C1331 1.342 . S
C1336 C1334 1.285 . S
C1336 H1355 0.930 1_554 S
C1337 C1340 1.424 . S
C1337 C1342 1.245 . S
C1337 C1343 1.428 . S
C1338 C1341 1.260 . S
C1338 C1342 1.477 . S
C1338 H1356 0.932 . S
C1339 C1340 1.384 . S
C1339 C1341 1.479 . S
C1339 H1357 0.929 . S
C1340 C1337 1.424 . S
C1340 C1339 1.384 . S
C1340 H1358 0.928 . S
C1341 C1338 1.260 . S
C1341 C1339 1.479 . S
C1342 C1337 1.245 . S
C1342 C1338 1.477 . S
C1342 H1359 0.932 . S
C1343 U1326 2.882 . S
C1343 C1337 1.428 . S
C1343 O1346 1.301 . S
C1343 O1347 1.282 . S
O1344 U1326 2.441 . S
O1344 C1330 1.249 . S
O1345 U1326 2.420 . S
O1345 C1330 1.202 . S
O1346 U1326 2.455 . S
O1346 C1343 1.301 . S
O1347 U1326 2.449 . S
O1347 C1343 1.282 . S
H1348 C1321 0.931 . S
H1349 C1323 0.929 . S
H1350 C1324 0.930 . S
H1351 C1325 0.931 . S
H1352 C1332 0.932 . S
H1353 C1333 0.930 . S
H1354 C1334 0.929 . S
H1355 C1336 0.930 1_556 S
H1356 C1338 0.932 . S
H1357 C1339 0.929 . S
H1358 C1340 0.928 . S
H1359 C1342 0.932 . S
C1360 C1361 1.264 . S
C1360 C1365 1.479 . S
C1360 C1370 1.465 . S
C1361 C1360 1.264 . S
C1361 C1363 1.339 . S
C1361 H1388 0.931 . S
C1362 C1363 1.395 . S
C1362 C1364 1.320 . S
C1363 C1361 1.339 . S
C1363 C1362 1.395 . S
C1363 H1389 0.929 . S
C1364 C1362 1.320 . S
C1364 C1365 1.405 . S
C1364 H1390 0.930 . S
C1365 C1360 1.479 . S
C1365 C1364 1.405 . S
C1365 H1391 0.931 . S
U1366 O1367 2.454 . S
U1366 O1368 2.458 . S
U1366 C1369 2.984 . S
U1366 C1370 2.847 . S
U1366 C1383 2.882 . S
U1366 O1384 2.441 . S
U1366 O1385 2.420 . S
U1366 O1386 2.455 . S
U1366 O1387 2.449 . S
O1367 U1366 2.454 . S
O1367 C1369 1.353 . S
O1368 U1366 2.458 . S
O1368 C1369 1.286 . S
C1369 U1366 2.984 . S
C1369 O1367 1.353 . S
C1369 O1368 1.286 . S
C1369 C1371 1.363 . S
C1370 C1360 1.465 . S
C1370 U1366 2.847 . S
C1370 O1384 1.249 . S
C1370 O1385 1.202 . S
C1371 C1369 1.363 . S
C1371 C1373 1.408 . S
C1371 C1376 1.342 . S
C1372 C1373 1.310 . S
C1372 C1375 1.461 . S
C1372 H1392 0.932 . S
C1373 C1371 1.408 . S
C1373 C1372 1.310 . S
C1373 H1393 0.930 . S
C1374 C1375 1.474 . S
C1374 C1376 1.285 . S
C1374 H1394 0.929 . S
C1375 C1372 1.461 . S
C1375 C1374 1.474 . S
C1376 C1371 1.342 . S
C1376 C1374 1.285 . S
C1376 H1395 0.930 . S
C1377 C1380 1.424 . S
C1377 C1382 1.245 . S
C1377 C1383 1.428 . S
C1378 C1381 1.260 . S
C1378 C1382 1.477 . S
C1378 H1396 0.932 . S
C1379 C1380 1.384 . S
C1379 C1381 1.479 . S
C1379 H1397 0.929 . S
C1380 C1377 1.424 . S
C1380 C1379 1.384 . S
C1380 H1398 0.928 . S
C1381 C1378 1.260 . S
C1381 C1379 1.479 . S
C1382 C1377 1.245 . S
C1382 C1378 1.477 . S
C1382 H1399 0.932 . S
C1383 U1366 2.882 . S
C1383 C1377 1.428 . S
C1383 O1386 1.301 . S
C1383 O1387 1.282 . S
O1384 U1366 2.441 . S
O1384 C1370 1.249 . S
O1385 U1366 2.420 . S
O1385 C1370 1.202 . S
O1386 U1366 2.455 . S
O1386 C1383 1.301 . S
O1387 U1366 2.449 . S
O1387 C1383 1.282 . S
H1388 C1361 0.931 . S
H1389 C1363 0.929 . S
H1390 C1364 0.930 . S
H1391 C1365 0.931 . S
H1392 C1372 0.932 . S
H1393 C1373 0.930 . S
H1394 C1374 0.929 . S
H1395 C1376 0.930 . S
H1396 C1378 0.932 . S
H1397 C1379 0.929 . S
H1398 C1380 0.928 . S
H1399 C1382 0.932 . S
C1400 C1401 1.264 . S
C1400 C1405 1.479 . S
C1400 C1410 1.465 . S
C1401 C1400 1.264 . S
C1401 C1403 1.339 . S
C1401 H1428 0.931 . S
C1402 C1403 1.395 . S
C1402 C1404 1.320 . S
C1403 C1401 1.339 . S
C1403 C1402 1.395 . S
C1403 H1429 0.929 . S
C1404 C1402 1.320 . S
C1404 C1405 1.405 . S
C1404 H1430 0.930 . S
C1405 C1400 1.479 . S
C1405 C1404 1.405 . S
C1405 H1431 0.931 . S
U1406 O1407 2.454 . S
U1406 O1408 2.458 . S
U1406 C1409 2.984 . S
U1406 C1410 2.847 . S
U1406 C1423 2.882 . S
U1406 O1424 2.441 . S
U1406 O1425 2.420 . S
U1406 O1426 2.455 . S
U1406 O1427 2.449 . S
O1407 U1406 2.454 . S
O1407 C1409 1.353 . S
O1408 U1406 2.458 . S
O1408 C1409 1.286 . S
C1409 U1406 2.984 . S
C1409 O1407 1.353 . S
C1409 O1408 1.286 . S
C1409 C1411 1.363 . S
C1410 C1400 1.465 . S
C1410 U1406 2.847 . S
C1410 O1424 1.249 . S
C1410 O1425 1.202 . S
C1411 C1409 1.363 . S
C1411 C1413 1.408 . S
C1411 C1416 1.342 . S
C1412 C1413 1.310 . S
C1412 C1415 1.461 . S
C1412 H1432 0.932 . S
C1413 C1411 1.408 . S
C1413 C1412 1.310 . S
C1413 H1433 0.930 . S
C1414 C1415 1.474 . S
C1414 C1416 1.285 . S
C1414 H1434 0.929 . S
C1415 C1412 1.461 . S
C1415 C1414 1.474 . S
C1416 C1411 1.342 . S
C1416 C1414 1.285 . S
C1416 H1435 0.930 . S
C1417 C1420 1.424 . S
C1417 C1422 1.245 . S
C1417 C1423 1.428 . S
C1418 C1421 1.260 . S
C1418 C1422 1.477 . S
C1418 H1436 0.932 . S
C1419 C1420 1.384 . S
C1419 C1421 1.479 . S
C1419 H1437 0.929 . S
C1420 C1417 1.424 . S
C1420 C1419 1.384 . S
C1420 H1438 0.928 . S
C1421 C1418 1.260 . S
C1421 C1419 1.479 . S
C1422 C1417 1.245 . S
C1422 C1418 1.477 . S
C1422 H1439 0.932 . S
C1423 U1406 2.882 . S
C1423 C1417 1.428 . S
C1423 O1426 1.301 . S
C1423 O1427 1.282 . S
O1424 U1406 2.441 . S
O1424 C1410 1.249 . S
O1425 U1406 2.420 . S
O1425 C1410 1.202 . S
O1426 U1406 2.455 . S
O1426 C1423 1.301 . S
O1427 U1406 2.449 . S
O1427 C1423 1.282 . S
H1428 C1401 0.931 . S
H1429 C1403 0.929 . S
H1430 C1404 0.930 . S
H1431 C1405 0.931 . S
H1432 C1412 0.932 . S
H1433 C1413 0.930 . S
H1434 C1414 0.929 . S
H1435 C1416 0.930 . S
H1436 C1418 0.932 . S
H1437 C1419 0.929 . S
H1438 C1420 0.928 . S
H1439 C1422 0.932 . S
C1440 C1441 1.264 . S
C1440 C1445 1.479 . S
C1440 C1450 1.465 . S
C1441 C1440 1.264 . S
C1441 C1443 1.339 . S
C1441 H1468 0.931 . S
C1442 C1443 1.395 . S
C1442 C1444 1.320 . S
C1443 C1441 1.339 . S
C1443 C1442 1.395 . S
C1443 H1469 0.929 . S
C1444 C1442 1.320 . S
C1444 C1445 1.405 . S
C1444 H1470 0.930 . S
C1445 C1440 1.479 . S
C1445 C1444 1.405 . S
C1445 H1471 0.931 . S
U1446 O1447 2.454 . S
U1446 O1448 2.458 . S
U1446 C1449 2.984 . S
U1446 C1450 2.847 . S
U1446 C1463 2.882 . S
U1446 O1464 2.441 . S
U1446 O1465 2.420 . S
U1446 O1466 2.455 . S
U1446 O1467 2.449 . S
O1447 U1446 2.454 . S
O1447 C1449 1.353 . S
O1448 U1446 2.458 . S
O1448 C1449 1.286 . S
C1449 U1446 2.984 . S
C1449 O1447 1.353 . S
C1449 O1448 1.286 . S
C1449 C1451 1.363 . S
C1450 C1440 1.465 . S
C1450 U1446 2.847 . S
C1450 O1464 1.249 . S
C1450 O1465 1.202 . S
C1451 C1449 1.363 . S
C1451 C1453 1.408 . S
C1451 C1456 1.342 . S
C1452 C1453 1.310 . S
C1452 C1455 1.461 . S
C1452 H1472 0.932 . S
C1453 C1451 1.408 . S
C1453 C1452 1.310 . S
C1453 H1473 0.930 . S
C1454 C1455 1.474 . S
C1454 C1456 1.285 . S
C1454 H1474 0.929 . S
C1455 C1452 1.461 . S
C1455 C1454 1.474 . S
C1456 C1451 1.342 . S
C1456 C1454 1.285 . S
C1456 H1475 0.930 . S
C1457 C1460 1.424 . S
C1457 C1462 1.245 . S
C1457 C1463 1.428 . S
C1458 C1461 1.260 . S
C1458 C1462 1.477 . S
C1458 H1476 0.932 . S
C1459 C1460 1.384 . S
C1459 C1461 1.479 . S
C1459 H1477 0.929 . S
C1460 C1457 1.424 . S
C1460 C1459 1.384 . S
C1460 H1478 0.928 . S
C1461 C1458 1.260 . S
C1461 C1459 1.479 . S
C1462 C1457 1.245 . S
C1462 C1458 1.477 . S
C1462 H1479 0.932 . S
C1463 U1446 2.882 . S
C1463 C1457 1.428 . S
C1463 O1466 1.301 . S
C1463 O1467 1.282 . S
O1464 U1446 2.441 . S
O1464 C1450 1.249 . S
O1465 U1446 2.420 . S
O1465 C1450 1.202 . S
O1466 U1446 2.455 . S
O1466 C1463 1.301 . S
O1467 U1446 2.449 . S
O1467 C1463 1.282 . S
H1468 C1441 0.931 . S
H1469 C1443 0.929 . S
H1470 C1444 0.930 . S
H1471 C1445 0.931 . S
H1472 C1452 0.932 . S
H1473 C1453 0.930 . S
H1474 C1454 0.929 . S
H1475 C1456 0.930 . S
H1476 C1458 0.932 . S
H1477 C1459 0.929 . S
H1478 C1460 0.928 . S
H1479 C1462 0.932 . S
C1480 C1481 1.264 . S
C1480 C1485 1.479 . S
C1480 C1490 1.465 . S
C1481 C1480 1.264 . S
C1481 C1483 1.339 . S
C1481 H1508 0.931 . S
C1482 C1483 1.395 . S
C1482 C1484 1.320 . S
C1483 C1481 1.339 . S
C1483 C1482 1.395 . S
C1483 H1509 0.929 . S
C1484 C1482 1.320 . S
C1484 C1485 1.405 . S
C1484 H1510 0.930 . S
C1485 C1480 1.479 . S
C1485 C1484 1.405 . S
C1485 H1511 0.931 . S
U1486 O1487 2.454 . S
U1486 O1488 2.458 . S
U1486 C1489 2.984 . S
U1486 C1490 2.847 . S
U1486 C1503 2.882 . S
U1486 O1504 2.441 . S
U1486 O1505 2.420 . S
U1486 O1506 2.455 . S
U1486 O1507 2.449 . S
O1487 U1486 2.454 . S
O1487 C1489 1.353 . S
O1488 U1486 2.458 . S
O1488 C1489 1.286 . S
C1489 U1486 2.984 . S
C1489 O1487 1.353 . S
C1489 O1488 1.286 . S
C1489 C1491 1.363 . S
C1490 C1480 1.465 . S
C1490 U1486 2.847 . S
C1490 O1504 1.249 . S
C1490 O1505 1.202 . S
C1491 C1489 1.363 . S
C1491 C1493 1.408 . S
C1491 C1496 1.342 . S
C1492 C1493 1.310 . S
C1492 C1495 1.461 . S
C1492 H1512 0.932 . S
C1493 C1491 1.408 . S
C1493 C1492 1.310 . S
C1493 H1513 0.930 . S
C1494 C1495 1.474 . S
C1494 C1496 1.285 . S
C1494 H1514 0.929 . S
C1495 C1492 1.461 . S
C1495 C1494 1.474 . S
C1496 C1491 1.342 . S
C1496 C1494 1.285 . S
C1496 H1515 0.930 . S
C1497 C1500 1.424 . S
C1497 C1502 1.245 . S
C1497 C1503 1.428 . S
C1498 C1501 1.260 . S
C1498 C1502 1.477 . S
C1498 H1516 0.932 . S
C1499 C1500 1.384 . S
C1499 C1501 1.479 . S
C1499 H1517 0.929 . S
C1500 C1497 1.424 . S
C1500 C1499 1.384 . S
C1500 H1518 0.928 . S
C1501 C1498 1.260 . S
C1501 C1499 1.479 . S
C1502 C1497 1.245 . S
C1502 C1498 1.477 . S
C1502 H1519 0.932 . S
C1503 U1486 2.882 . S
C1503 C1497 1.428 . S
C1503 O1506 1.301 . S
C1503 O1507 1.282 . S
O1504 U1486 2.441 . S
O1504 C1490 1.249 . S
O1505 U1486 2.420 . S
O1505 C1490 1.202 . S
O1506 U1486 2.455 . S
O1506 C1503 1.301 . S
O1507 U1486 2.449 . S
O1507 C1503 1.282 . S
H1508 C1481 0.931 . S
H1509 C1483 0.929 . S
H1510 C1484 0.930 . S
H1511 C1485 0.931 . S
H1512 C1492 0.932 . S
H1513 C1493 0.930 . S
H1514 C1494 0.929 . S
H1515 C1496 0.930 . S
H1516 C1498 0.932 . S
H1517 C1499 0.929 . S
H1518 C1500 0.928 . S
H1519 C1502 0.932 . S
C1520 C1521 1.264 . S
C1520 C1525 1.479 . S
C1520 C1530 1.465 . S
C1521 C1520 1.264 . S
C1521 C1523 1.339 . S
C1521 H1548 0.931 . S
C1522 C1523 1.395 . S
C1522 C1524 1.320 . S
C1523 C1521 1.339 . S
C1523 C1522 1.395 . S
C1523 H1549 0.929 . S
C1524 C1522 1.320 . S
C1524 C1525 1.405 . S
C1524 H1550 0.930 . S
C1525 C1520 1.479 . S
C1525 C1524 1.405 . S
C1525 H1551 0.931 . S
U1526 O1527 2.454 . S
U1526 O1528 2.458 . S
U1526 C1529 2.984 . S
U1526 C1530 2.847 . S
U1526 C1543 2.882 . S
U1526 O1544 2.441 . S
U1526 O1545 2.420 . S
U1526 O1546 2.455 . S
U1526 O1547 2.449 . S
O1527 U1526 2.454 . S
O1527 C1529 1.353 . S
O1528 U1526 2.458 . S
O1528 C1529 1.286 . S
C1529 U1526 2.984 . S
C1529 O1527 1.353 . S
C1529 O1528 1.286 . S
C1529 C1531 1.363 . S
C1530 C1520 1.465 . S
C1530 U1526 2.847 . S
C1530 O1544 1.249 . S
C1530 O1545 1.202 . S
C1531 C1529 1.363 . S
C1531 C1533 1.408 . S
C1531 C1536 1.342 . S
C1532 C1533 1.310 . S
C1532 C1535 1.461 . S
C1532 H1552 0.932 . S
C1533 C1531 1.408 . S
C1533 C1532 1.310 . S
C1533 H1553 0.930 . S
C1534 C1535 1.474 . S
C1534 C1536 1.285 . S
C1534 H1554 0.929 . S
C1535 C1532 1.461 . S
C1535 C1534 1.474 . S
C1536 C1531 1.342 . S
C1536 C1534 1.285 . S
C1536 H1555 0.930 . S
C1537 C1540 1.424 . S
C1537 C1542 1.245 . S
C1537 C1543 1.428 . S
C1538 C1541 1.260 . S
C1538 C1542 1.477 . S
C1538 H1556 0.932 . S
C1539 C1540 1.384 . S
C1539 C1541 1.479 . S
C1539 H1557 0.929 . S
C1540 C1537 1.424 . S
C1540 C1539 1.384 . S
C1540 H1558 0.928 . S
C1541 C1538 1.260 . S
C1541 C1539 1.479 . S
C1542 C1537 1.245 . S
C1542 C1538 1.477 . S
C1542 H1559 0.932 . S
C1543 U1526 2.882 . S
C1543 C1537 1.428 . S
C1543 O1546 1.301 . S
C1543 O1547 1.282 . S
O1544 U1526 2.441 . S
O1544 C1530 1.249 . S
O1545 U1526 2.420 . S
O1545 C1530 1.202 . S
O1546 U1526 2.455 . S
O1546 C1543 1.301 . S
O1547 U1526 2.449 . S
O1547 C1543 1.282 . S
H1548 C1521 0.931 . S
H1549 C1523 0.929 . S
H1550 C1524 0.930 . S
H1551 C1525 0.931 . S
H1552 C1532 0.932 . S
H1553 C1533 0.930 . S
H1554 C1534 0.929 . S
H1555 C1536 0.930 . S
H1556 C1538 0.932 . S
H1557 C1539 0.929 . S
H1558 C1540 0.928 . S
H1559 C1542 0.932 . S
C1560 C1561 1.264 . S
C1560 C1565 1.479 . S
C1560 C1570 1.465 . S
C1561 C1560 1.264 . S
C1561 C1563 1.339 . S
C1561 H1588 0.931 . S
C1562 C1563 1.395 . S
C1562 C1564 1.320 . S
C1563 C1561 1.339 . S
C1563 C1562 1.395 . S
C1563 H1589 0.929 . S
C1564 C1562 1.320 . S
C1564 C1565 1.405 . S
C1564 H1590 0.930 . S
C1565 C1560 1.479 . S
C1565 C1564 1.405 . S
C1565 H1591 0.931 . S
U1566 O1567 2.454 . S
U1566 O1568 2.458 . S
U1566 C1569 2.984 . S
U1566 C1570 2.847 . S
U1566 C1583 2.882 . S
U1566 O1584 2.441 . S
U1566 O1585 2.420 . S
U1566 O1586 2.455 . S
U1566 O1587 2.449 . S
O1567 U1566 2.454 . S
O1567 C1569 1.353 . S
O1568 U1566 2.458 . S
O1568 C1569 1.286 . S
C1569 U1566 2.984 . S
C1569 O1567 1.353 . S
C1569 O1568 1.286 . S
C1569 C1571 1.363 . S
C1570 C1560 1.465 . S
C1570 U1566 2.847 . S
C1570 O1584 1.249 . S
C1570 O1585 1.202 . S
C1571 C1569 1.363 . S
C1571 C1573 1.408 . S
C1571 C1576 1.342 . S
C1572 C1573 1.310 . S
C1572 C1575 1.461 . S
C1572 H1592 0.932 . S
C1573 C1571 1.408 . S
C1573 C1572 1.310 . S
C1573 H1593 0.930 . S
C1574 C1575 1.474 . S
C1574 C1576 1.285 . S
C1574 H1594 0.929 . S
C1575 C1572 1.461 . S
C1575 C1574 1.474 . S
C1576 C1571 1.342 . S
C1576 C1574 1.285 . S
C1576 H1595 0.930 . S
C1577 C1580 1.424 . S
C1577 C1582 1.245 . S
C1577 C1583 1.428 . S
C1578 C1581 1.260 . S
C1578 C1582 1.477 . S
C1578 H1596 0.932 . S
C1579 C1580 1.384 . S
C1579 C1581 1.479 . S
C1579 H1597 0.929 . S
C1580 C1577 1.424 . S
C1580 C1579 1.384 . S
C1580 H1598 0.928 . S
C1581 C1578 1.260 . S
C1581 C1579 1.479 . S
C1582 C1577 1.245 . S
C1582 C1578 1.477 . S
C1582 H1599 0.932 . S
C1583 U1566 2.882 . S
C1583 C1577 1.428 . S
C1583 O1586 1.301 . S
C1583 O1587 1.282 . S
O1584 U1566 2.441 . S
O1584 C1570 1.249 . S
O1585 U1566 2.420 . S
O1585 C1570 1.202 . S
O1586 U1566 2.455 . S
O1586 C1583 1.301 . S
O1587 U1566 2.449 . S
O1587 C1583 1.282 . S
H1588 C1561 0.931 . S
H1589 C1563 0.929 . S
H1590 C1564 0.930 . S
H1591 C1565 0.931 . S
H1592 C1572 0.932 . S
H1593 C1573 0.930 . S
H1594 C1574 0.929 . S
H1595 C1576 0.930 . S
H1596 C1578 0.932 . S
H1597 C1579 0.929 . S
H1598 C1580 0.928 . S
H1599 C1582 0.932 . S
C1600 C1601 1.264 . S
C1600 C1605 1.479 . S
C1600 C1610 1.465 . S
C1601 C1600 1.264 . S
C1601 C1603 1.339 . S
C1601 H1628 0.931 . S
C1602 C1603 1.395 . S
C1602 C1604 1.320 . S
C1603 C1601 1.339 . S
C1603 C1602 1.395 . S
C1603 H1629 0.929 . S
C1604 C1602 1.320 . S
C1604 C1605 1.405 . S
C1604 H1630 0.930 . S
C1605 C1600 1.479 . S
C1605 C1604 1.405 . S
C1605 H1631 0.931 . S
U1606 O1607 2.454 . S
U1606 O1608 2.458 . S
U1606 C1609 2.984 . S
U1606 C1610 2.847 1_455 S
U1606 C1623 2.882 . S
U1606 O1624 2.441 1_455 S
U1606 O1625 2.420 1_455 S
U1606 O1626 2.455 . S
U1606 O1627 2.449 . S
O1607 U1606 2.454 . S
O1607 C1609 1.353 . S
O1608 U1606 2.458 . S
O1608 C1609 1.286 . S
C1609 U1606 2.984 . S
C1609 O1607 1.353 . S
C1609 O1608 1.286 . S
C1609 C1611 1.363 . S
C1610 C1600 1.465 . S
C1610 U1606 2.847 1_655 S
C1610 O1624 1.249 . S
C1610 O1625 1.202 . S
C1611 C1609 1.363 . S
C1611 C1613 1.408 . S
C1611 C1616 1.342 . S
C1612 C1613 1.310 . S
C1612 C1615 1.461 . S
C1612 H1632 0.932 . S
C1613 C1611 1.408 . S
C1613 C1612 1.310 . S
C1613 H1633 0.930 . S
C1614 C1615 1.474 . S
C1614 C1616 1.285 . S
C1614 H1634 0.929 . S
C1615 C1612 1.461 . S
C1615 C1614 1.474 . S
C1616 C1611 1.342 . S
C1616 C1614 1.285 . S
C1616 H1635 0.930 . S
C1617 C1620 1.424 . S
C1617 C1622 1.245 . S
C1617 C1623 1.428 . S
C1618 C1621 1.260 . S
C1618 C1622 1.477 . S
C1618 H1636 0.932 . S
C1619 C1620 1.384 . S
C1619 C1621 1.479 . S
C1619 H1637 0.929 . S
C1620 C1617 1.424 . S
C1620 C1619 1.384 . S
C1620 H1638 0.928 . S
C1621 C1618 1.260 . S
C1621 C1619 1.479 . S
C1622 C1617 1.245 . S
C1622 C1618 1.477 . S
C1622 H1639 0.932 . S
C1623 U1606 2.882 . S
C1623 C1617 1.428 . S
C1623 O1626 1.301 . S
C1623 O1627 1.282 . S
O1624 U1606 2.441 1_655 S
O1624 C1610 1.249 . S
O1625 U1606 2.420 1_655 S
O1625 C1610 1.202 . S
O1626 U1606 2.455 . S
O1626 C1623 1.301 . S
O1627 U1606 2.449 . S
O1627 C1623 1.282 . S
H1628 C1601 0.931 . S
H1629 C1603 0.929 . S
H1630 C1604 0.930 . S
H1631 C1605 0.931 . S
H1632 C1612 0.932 . S
H1633 C1613 0.930 . S
H1634 C1614 0.929 . S
H1635 C1616 0.930 . S
H1636 C1618 0.932 . S
H1637 C1619 0.929 . S
H1638 C1620 0.928 . S
H1639 C1622 0.932 . S
C1640 C1641 1.264 . S
C1640 C1645 1.479 . S
C1640 C1650 1.465 . S
C1641 C1640 1.264 . S
C1641 C1643 1.339 . S
C1641 H1668 0.931 . S
C1642 C1643 1.395 . S
C1642 C1644 1.320 . S
C1643 C1641 1.339 . S
C1643 C1642 1.395 . S
C1643 H1669 0.929 . S
C1644 C1642 1.320 . S
C1644 C1645 1.405 . S
C1644 H1670 0.930 . S
C1645 C1640 1.479 . S
C1645 C1644 1.405 . S
C1645 H1671 0.931 . S
U1646 O1647 2.454 . S
U1646 O1648 2.458 . S
U1646 C1649 2.984 . S
U1646 C1650 2.847 . S
U1646 C1663 2.882 . S
U1646 O1664 2.441 . S
U1646 O1665 2.420 . S
U1646 O1666 2.455 . S
U1646 O1667 2.449 . S
O1647 U1646 2.454 . S
O1647 C1649 1.353 . S
O1648 U1646 2.458 . S
O1648 C1649 1.286 . S
C1649 U1646 2.984 . S
C1649 O1647 1.353 . S
C1649 O1648 1.286 . S
C1649 C1651 1.363 . S
C1650 C1640 1.465 . S
C1650 U1646 2.847 . S
C1650 O1664 1.249 . S
C1650 O1665 1.202 . S
C1651 C1649 1.363 . S
C1651 C1653 1.408 . S
C1651 C1656 1.342 . S
C1652 C1653 1.310 . S
C1652 C1655 1.461 . S
C1652 H1672 0.932 . S
C1653 C1651 1.408 . S
C1653 C1652 1.310 . S
C1653 H1673 0.930 . S
C1654 C1655 1.474 . S
C1654 C1656 1.285 . S
C1654 H1674 0.929 . S
C1655 C1652 1.461 . S
C1655 C1654 1.474 . S
C1656 C1651 1.342 . S
C1656 C1654 1.285 . S
C1656 H1675 0.930 . S
C1657 C1660 1.424 . S
C1657 C1662 1.245 . S
C1657 C1663 1.428 . S
C1658 C1661 1.260 . S
C1658 C1662 1.477 . S
C1658 H1676 0.932 . S
C1659 C1660 1.384 . S
C1659 C1661 1.479 . S
C1659 H1677 0.929 . S
C1660 C1657 1.424 . S
C1660 C1659 1.384 . S
C1660 H1678 0.928 . S
C1661 C1658 1.260 . S
C1661 C1659 1.479 . S
C1662 C1657 1.245 . S
C1662 C1658 1.477 . S
C1662 H1679 0.932 . S
C1663 U1646 2.882 . S
C1663 C1657 1.428 . S
C1663 O1666 1.301 . S
C1663 O1667 1.282 . S
O1664 U1646 2.441 . S
O1664 C1650 1.249 . S
O1665 U1646 2.420 . S
O1665 C1650 1.202 . S
O1666 U1646 2.455 . S
O1666 C1663 1.301 . S
O1667 U1646 2.449 . S
O1667 C1663 1.282 . S
H1668 C1641 0.931 . S
H1669 C1643 0.929 . S
H1670 C1644 0.930 . S
H1671 C1645 0.931 . S
H1672 C1652 0.932 . S
H1673 C1653 0.930 . S
H1674 C1654 0.929 . S
H1675 C1656 0.930 . S
H1676 C1658 0.932 . S
H1677 C1659 0.929 . S
H1678 C1660 0.928 . S
H1679 C1662 0.932 . S
C1680 C1681 1.264 . S
C1680 C1685 1.479 . S
C1680 C1690 1.465 . S
C1681 C1680 1.264 . S
C1681 C1683 1.339 . S
C1681 H1708 0.931 . S
C1682 C1683 1.395 . S
C1682 C1684 1.320 . S
C1683 C1681 1.339 . S
C1683 C1682 1.395 . S
C1683 H1709 0.929 . S
C1684 C1682 1.320 . S
C1684 C1685 1.405 . S
C1684 H1710 0.930 . S
C1685 C1680 1.479 . S
C1685 C1684 1.405 . S
C1685 H1711 0.931 . S
U1686 O1687 2.454 1_554 S
U1686 O1688 2.458 1_554 S
U1686 C1689 2.984 1_554 S
U1686 C1690 2.847 . S
U1686 C1703 2.882 . S
U1686 O1704 2.441 . S
U1686 O1705 2.420 . S
U1686 O1706 2.455 . S
U1686 O1707 2.449 . S
O1687 U1686 2.454 1_556 S
O1687 C1689 1.353 . S
O1688 U1686 2.458 1_556 S
O1688 C1689 1.286 . S
C1689 U1686 2.984 1_556 S
C1689 O1687 1.353 . S
C1689 O1688 1.286 . S
C1689 C1691 1.363 . S
C1690 C1680 1.465 . S
C1690 U1686 2.847 . S
C1690 O1704 1.249 . S
C1690 O1705 1.202 . S
C1691 C1689 1.363 . S
C1691 C1693 1.408 . S
C1691 C1696 1.342 . S
C1692 C1693 1.310 . S
C1692 C1695 1.461 . S
C1692 H1712 0.932 . S
C1693 C1691 1.408 . S
C1693 C1692 1.310 . S
C1693 H1713 0.930 . S
C1694 C1695 1.474 . S
C1694 C1696 1.285 . S
C1694 H1714 0.929 . S
C1695 C1692 1.461 . S
C1695 C1694 1.474 . S
C1696 C1691 1.342 . S
C1696 C1694 1.285 . S
C1696 H1715 0.930 . S
C1697 C1700 1.424 . S
C1697 C1702 1.245 . S
C1697 C1703 1.428 . S
C1698 C1701 1.260 . S
C1698 C1702 1.477 . S
C1698 H1716 0.932 . S
C1699 C1700 1.384 . S
C1699 C1701 1.479 . S
C1699 H1717 0.929 . S
C1700 C1697 1.424 . S
C1700 C1699 1.384 . S
C1700 H1718 0.928 . S
C1701 C1698 1.260 . S
C1701 C1699 1.479 . S
C1702 C1697 1.245 . S
C1702 C1698 1.477 . S
C1702 H1719 0.932 . S
C1703 U1686 2.882 . S
C1703 C1697 1.428 . S
C1703 O1706 1.301 . S
C1703 O1707 1.282 . S
O1704 U1686 2.441 . S
O1704 C1690 1.249 . S
O1705 U1686 2.420 . S
O1705 C1690 1.202 . S
O1706 U1686 2.455 . S
O1706 C1703 1.301 . S
O1707 U1686 2.449 . S
O1707 C1703 1.282 . S
H1708 C1681 0.931 . S
H1709 C1683 0.929 . S
H1710 C1684 0.930 . S
H1711 C1685 0.931 . S
H1712 C1692 0.932 . S
H1713 C1693 0.930 . S
H1714 C1694 0.929 . S
H1715 C1696 0.930 . S
H1716 C1698 0.932 . S
H1717 C1699 0.929 . S
H1718 C1700 0.928 . S
H1719 C1702 0.932 . S
C1720 C1721 1.264 . S
C1720 C1725 1.479 . S
C1720 C1730 1.465 . S
C1721 C1720 1.264 . S
C1721 C1723 1.339 . S
C1721 H1748 0.931 . S
C1722 C1723 1.395 . S
C1722 C1724 1.320 . S
C1723 C1721 1.339 . S
C1723 C1722 1.395 . S
C1723 H1749 0.929 . S
C1724 C1722 1.320 . S
C1724 C1725 1.405 . S
C1724 H1750 0.930 . S
C1725 C1720 1.479 . S
C1725 C1724 1.405 . S
C1725 H1751 0.931 . S
U1726 O1727 2.454 . S
U1726 O1728 2.458 . S
U1726 C1729 2.984 . S
U1726 C1730 2.847 . S
U1726 C1743 2.882 . S
U1726 O1744 2.441 . S
U1726 O1745 2.420 . S
U1726 O1746 2.455 . S
U1726 O1747 2.449 . S
O1727 U1726 2.454 . S
O1727 C1729 1.353 . S
O1728 U1726 2.458 . S
O1728 C1729 1.286 . S
C1729 U1726 2.984 . S
C1729 O1727 1.353 . S
C1729 O1728 1.286 . S
C1729 C1731 1.363 . S
C1730 C1720 1.465 . S
C1730 U1726 2.847 . S
C1730 O1744 1.249 . S
C1730 O1745 1.202 . S
C1731 C1729 1.363 . S
C1731 C1733 1.408 . S
C1731 C1736 1.342 . S
C1732 C1733 1.310 . S
C1732 C1735 1.461 . S
C1732 H1752 0.932 . S
C1733 C1731 1.408 . S
C1733 C1732 1.310 . S
C1733 H1753 0.930 . S
C1734 C1735 1.474 . S
C1734 C1736 1.285 . S
C1734 H1754 0.929 . S
C1735 C1732 1.461 . S
C1735 C1734 1.474 . S
C1736 C1731 1.342 . S
C1736 C1734 1.285 . S
C1736 H1755 0.930 . S
C1737 C1740 1.424 . S
C1737 C1742 1.245 . S
C1737 C1743 1.428 . S
C1738 C1741 1.260 . S
C1738 C1742 1.477 . S
C1738 H1756 0.932 . S
C1739 C1740 1.384 . S
C1739 C1741 1.479 . S
C1739 H1757 0.929 . S
C1740 C1737 1.424 . S
C1740 C1739 1.384 . S
C1740 H1758 0.928 . S
C1741 C1738 1.260 . S
C1741 C1739 1.479 . S
C1742 C1737 1.245 . S
C1742 C1738 1.477 . S
C1742 H1759 0.932 . S
C1743 U1726 2.882 . S
C1743 C1737 1.428 . S
C1743 O1746 1.301 . S
C1743 O1747 1.282 . S
O1744 U1726 2.441 . S
O1744 C1730 1.249 . S
O1745 U1726 2.420 . S
O1745 C1730 1.202 . S
O1746 U1726 2.455 . S
O1746 C1743 1.301 . S
O1747 U1726 2.449 . S
O1747 C1743 1.282 . S
H1748 C1721 0.931 . S
H1749 C1723 0.929 . S
H1750 C1724 0.930 . S
H1751 C1725 0.931 . S
H1752 C1732 0.932 . S
H1753 C1733 0.930 . S
H1754 C1734 0.929 . S
H1755 C1736 0.930 . S
H1756 C1738 0.932 . S
H1757 C1739 0.929 . S
H1758 C1740 0.928 . S
H1759 C1742 0.932 . S
C1760 C1761 1.264 . S
C1760 C1765 1.479 . S
C1760 C1770 1.465 . S
C1761 C1760 1.264 . S
C1761 C1763 1.339 . S
C1761 H1788 0.931 . S
C1762 C1763 1.395 . S
C1762 C1764 1.320 . S
C1763 C1761 1.339 . S
C1763 C1762 1.395 . S
C1763 H1789 0.929 . S
C1764 C1762 1.320 . S
C1764 C1765 1.405 . S
C1764 H1790 0.930 . S
C1765 C1760 1.479 . S
C1765 C1764 1.405 . S
C1765 H1791 0.931 . S
U1766 O1767 2.454 . S
U1766 O1768 2.458 . S
U1766 C1769 2.984 . S
U1766 C1770 2.847 . S
U1766 C1783 2.882 . S
U1766 O1784 2.441 . S
U1766 O1785 2.420 . S
U1766 O1786 2.455 . S
U1766 O1787 2.449 . S
O1767 U1766 2.454 . S
O1767 C1769 1.353 . S
O1768 U1766 2.458 . S
O1768 C1769 1.286 . S
C1769 U1766 2.984 . S
C1769 O1767 1.353 . S
C1769 O1768 1.286 . S
C1769 C1771 1.363 . S
C1770 C1760 1.465 . S
C1770 U1766 2.847 . S
C1770 O1784 1.249 . S
C1770 O1785 1.202 . S
C1771 C1769 1.363 . S
C1771 C1773 1.408 . S
C1771 C1776 1.342 . S
C1772 C1773 1.310 . S
C1772 C1775 1.461 . S
C1772 H1792 0.932 . S
C1773 C1771 1.408 . S
C1773 C1772 1.310 . S
C1773 H1793 0.930 . S
C1774 C1775 1.474 . S
C1774 C1776 1.285 . S
C1774 H1794 0.929 . S
C1775 C1772 1.461 . S
C1775 C1774 1.474 . S
C1776 C1771 1.342 . S
C1776 C1774 1.285 . S
C1776 H1795 0.930 . S
C1777 C1780 1.424 . S
C1777 C1782 1.245 . S
C1777 C1783 1.428 . S
C1778 C1781 1.260 . S
C1778 C1782 1.477 . S
C1778 H1796 0.932 . S
C1779 C1780 1.384 . S
C1779 C1781 1.479 . S
C1779 H1797 0.929 . S
C1780 C1777 1.424 . S
C1780 C1779 1.384 . S
C1780 H1798 0.928 . S
C1781 C1778 1.260 . S
C1781 C1779 1.479 . S
C1782 C1777 1.245 . S
C1782 C1778 1.477 . S
C1782 H1799 0.932 . S
C1783 U1766 2.882 . S
C1783 C1777 1.428 . S
C1783 O1786 1.301 . S
C1783 O1787 1.282 . S
O1784 U1766 2.441 . S
O1784 C1770 1.249 . S
O1785 U1766 2.420 . S
O1785 C1770 1.202 . S
O1786 U1766 2.455 . S
O1786 C1783 1.301 . S
O1787 U1766 2.449 . S
O1787 C1783 1.282 . S
H1788 C1761 0.931 . S
H1789 C1763 0.929 . S
H1790 C1764 0.930 . S
H1791 C1765 0.931 . S
H1792 C1772 0.932 . S
H1793 C1773 0.930 . S
H1794 C1774 0.929 . S
H1795 C1776 0.930 . S
H1796 C1778 0.932 . S
H1797 C1779 0.929 . S
H1798 C1780 0.928 . S
H1799 C1782 0.932 . S
C1800 C1801 1.264 . S
C1800 C1805 1.479 . S
C1800 C1810 1.465 . S
C1801 C1800 1.264 . S
C1801 C1803 1.339 . S
C1801 H1828 0.931 . S
C1802 C1803 1.395 . S
C1802 C1804 1.320 . S
C1803 C1801 1.339 . S
C1803 C1802 1.395 . S
C1803 H1829 0.929 . S
C1804 C1802 1.320 . S
C1804 C1805 1.405 . S
C1804 H1830 0.930 . S
C1805 C1800 1.479 . S
C1805 C1804 1.405 . S
C1805 H1831 0.931 . S
U1806 O1807 2.454 . S
U1806 O1808 2.458 . S
U1806 C1809 2.984 . S
U1806 C1810 2.847 . S
U1806 C1823 2.882 . S
U1806 O1824 2.441 . S
U1806 O1825 2.420 . S
U1806 O1826 2.455 . S
U1806 O1827 2.449 . S
O1807 U1806 2.454 . S
O1807 C1809 1.353 . S
O1808 U1806 2.458 . S
O1808 C1809 1.286 . S
C1809 U1806 2.984 . S
C1809 O1807 1.353 . S
C1809 O1808 1.286 . S
C1809 C1811 1.363 . S
C1810 C1800 1.465 . S
C1810 U1806 2.847 . S
C1810 O1824 1.249 . S
C1810 O1825 1.202 . S
C1811 C1809 1.363 . S
C1811 C1813 1.408 . S
C1811 C1816 1.342 . S
C1812 C1813 1.310 . S
C1812 C1815 1.461 . S
C1812 H1832 0.932 . S
C1813 C1811 1.408 . S
C1813 C1812 1.310 . S
C1813 H1833 0.930 . S
C1814 C1815 1.474 . S
C1814 C1816 1.285 . S
C1814 H1834 0.929 . S
C1815 C1812 1.461 . S
C1815 C1814 1.474 . S
C1816 C1811 1.342 . S
C1816 C1814 1.285 . S
C1816 H1835 0.930 . S
C1817 C1820 1.424 . S
C1817 C1822 1.245 . S
C1817 C1823 1.428 . S
C1818 C1821 1.260 . S
C1818 C1822 1.477 . S
C1818 H1836 0.932 . S
C1819 C1820 1.384 . S
C1819 C1821 1.479 . S
C1819 H1837 0.929 . S
C1820 C1817 1.424 . S
C1820 C1819 1.384 . S
C1820 H1838 0.928 . S
C1821 C1818 1.260 . S
C1821 C1819 1.479 . S
C1822 C1817 1.245 . S
C1822 C1818 1.477 . S
C1822 H1839 0.932 . S
C1823 U1806 2.882 . S
C1823 C1817 1.428 . S
C1823 O1826 1.301 . S
C1823 O1827 1.282 . S
O1824 U1806 2.441 . S
O1824 C1810 1.249 . S
O1825 U1806 2.420 . S
O1825 C1810 1.202 . S
O1826 U1806 2.455 . S
O1826 C1823 1.301 . S
O1827 U1806 2.449 . S
O1827 C1823 1.282 . S
H1828 C1801 0.931 . S
H1829 C1803 0.929 . S
H1830 C1804 0.930 . S
H1831 C1805 0.931 . S
H1832 C1812 0.932 . S
H1833 C1813 0.930 . S
H1834 C1814 0.929 . S
H1835 C1816 0.930 . S
H1836 C1818 0.932 . S
H1837 C1819 0.929 . S
H1838 C1820 0.928 . S
H1839 C1822 0.932 . S
C1840 C1841 1.264 . S
C1840 C1845 1.479 . S
C1840 C1850 1.465 . S
C1841 C1840 1.264 . S
C1841 C1843 1.339 . S
C1841 H1868 0.931 . S
C1842 C1843 1.395 . S
C1842 C1844 1.320 . S
C1843 C1841 1.339 . S
C1843 C1842 1.395 . S
C1843 H1869 0.929 . S
C1844 C1842 1.320 . S
C1844 C1845 1.405 . S
C1844 H1870 0.930 . S
C1845 C1840 1.479 . S
C1845 C1844 1.405 . S
C1845 H1871 0.931 . S
U1846 O1847 2.454 . S
U1846 O1848 2.458 . S
U1846 C1849 2.984 . S
U1846 C1850 2.847 . S
U1846 C1863 2.882 . S
U1846 O1864 2.441 . S
U1846 O1865 2.420 . S
U1846 O1866 2.455 . S
U1846 O1867 2.449 . S
O1847 U1846 2.454 . S
O1847 C1849 1.353 . S
O1848 U1846 2.458 . S
O1848 C1849 1.286 . S
C1849 U1846 2.984 . S
C1849 O1847 1.353 . S
C1849 O1848 1.286 . S
C1849 C1851 1.363 . S
C1850 C1840 1.465 . S
C1850 U1846 2.847 . S
C1850 O1864 1.249 . S
C1850 O1865 1.202 . S
C1851 C1849 1.363 . S
C1851 C1853 1.408 . S
C1851 C1856 1.342 . S
C1852 C1853 1.310 . S
C1852 C1855 1.461 . S
C1852 H1872 0.932 . S
C1853 C1851 1.408 . S
C1853 C1852 1.310 . S
C1853 H1873 0.930 . S
C1854 C1855 1.474 . S
C1854 C1856 1.285 . S
C1854 H1874 0.929 . S
C1855 C1852 1.461 . S
C1855 C1854 1.474 . S
C1856 C1851 1.342 . S
C1856 C1854 1.285 . S
C1856 H1875 0.930 . S
C1857 C1860 1.424 . S
C1857 C1862 1.245 . S
C1857 C1863 1.428 . S
C1858 C1861 1.260 . S
C1858 C1862 1.477 . S
C1858 H1876 0.932 . S
C1859 C1860 1.384 . S
C1859 C1861 1.479 . S
C1859 H1877 0.929 . S
C1860 C1857 1.424 . S
C1860 C1859 1.384 . S
C1860 H1878 0.928 . S
C1861 C1858 1.260 . S
C1861 C1859 1.479 . S
C1862 C1857 1.245 . S
C1862 C1858 1.477 . S
C1862 H1879 0.932 . S
C1863 U1846 2.882 . S
C1863 C1857 1.428 . S
C1863 O1866 1.301 . S
C1863 O1867 1.282 . S
O1864 U1846 2.441 . S
O1864 C1850 1.249 . S
O1865 U1846 2.420 . S
O1865 C1850 1.202 . S
O1866 U1846 2.455 . S
O1866 C1863 1.301 . S
O1867 U1846 2.449 . S
O1867 C1863 1.282 . S
H1868 C1841 0.931 . S
H1869 C1843 0.929 . S
H1870 C1844 0.930 . S
H1871 C1845 0.931 . S
H1872 C1852 0.932 . S
H1873 C1853 0.930 . S
H1874 C1854 0.929 . S
H1875 C1856 0.930 . S
H1876 C1858 0.932 . S
H1877 C1859 0.929 . S
H1878 C1860 0.928 . S
H1879 C1862 0.932 . S
C1880 C1881 1.264 . S
C1880 C1885 1.479 . S
C1880 C1890 1.465 . S
C1881 C1880 1.264 . S
C1881 C1883 1.339 . S
C1881 H1908 0.931 . S
C1882 C1883 1.395 . S
C1882 C1884 1.320 . S
C1883 C1881 1.339 . S
C1883 C1882 1.395 . S
C1883 H1909 0.929 . S
C1884 C1882 1.320 . S
C1884 C1885 1.405 . S
C1884 H1910 0.930 . S
C1885 C1880 1.479 . S
C1885 C1884 1.405 . S
C1885 H1911 0.931 . S
U1886 O1887 2.454 . S
U1886 O1888 2.458 . S
U1886 C1889 2.984 . S
U1886 C1890 2.847 . S
U1886 C1903 2.882 . S
U1886 O1904 2.441 . S
U1886 O1905 2.420 . S
U1886 O1906 2.455 . S
U1886 O1907 2.449 . S
O1887 U1886 2.454 . S
O1887 C1889 1.353 . S
O1888 U1886 2.458 . S
O1888 C1889 1.286 . S
C1889 U1886 2.984 . S
C1889 O1887 1.353 . S
C1889 O1888 1.286 . S
C1889 C1891 1.363 . S
C1890 C1880 1.465 . S
C1890 U1886 2.847 . S
C1890 O1904 1.249 . S
C1890 O1905 1.202 . S
C1891 C1889 1.363 . S
C1891 C1893 1.408 . S
C1891 C1896 1.342 . S
C1892 C1893 1.310 . S
C1892 C1895 1.461 . S
C1892 H1912 0.932 . S
C1893 C1891 1.408 . S
C1893 C1892 1.310 . S
C1893 H1913 0.930 . S
C1894 C1895 1.474 . S
C1894 C1896 1.285 . S
C1894 H1914 0.929 . S
C1895 C1892 1.461 . S
C1895 C1894 1.474 . S
C1896 C1891 1.342 . S
C1896 C1894 1.285 . S
C1896 H1915 0.930 . S
C1897 C1900 1.424 . S
C1897 C1902 1.245 . S
C1897 C1903 1.428 . S
C1898 C1901 1.260 . S
C1898 C1902 1.477 . S
C1898 H1916 0.932 . S
C1899 C1900 1.384 . S
C1899 C1901 1.479 . S
C1899 H1917 0.929 . S
C1900 C1897 1.424 . S
C1900 C1899 1.384 . S
C1900 H1918 0.928 . S
C1901 C1898 1.260 . S
C1901 C1899 1.479 . S
C1902 C1897 1.245 . S
C1902 C1898 1.477 . S
C1902 H1919 0.932 . S
C1903 U1886 2.882 . S
C1903 C1897 1.428 . S
C1903 O1906 1.301 . S
C1903 O1907 1.282 . S
O1904 U1886 2.441 . S
O1904 C1890 1.249 . S
O1905 U1886 2.420 . S
O1905 C1890 1.202 . S
O1906 U1886 2.455 . S
O1906 C1903 1.301 . S
O1907 U1886 2.449 . S
O1907 C1903 1.282 . S
H1908 C1881 0.931 . S
H1909 C1883 0.929 . S
H1910 C1884 0.930 . S
H1911 C1885 0.931 . S
H1912 C1892 0.932 . S
H1913 C1893 0.930 . S
H1914 C1894 0.929 . S
H1915 C1896 0.930 . S
H1916 C1898 0.932 . S
H1917 C1899 0.929 . S
H1918 C1900 0.928 . S
H1919 C1902 0.932 . S
H1920 C1923 0.931 . S
H1921 C1926 0.928 . S
H1922 C1928 0.930 . S
C1923 H1920 0.931 . S
C1923 C1924 1.413 . S
C1923 C1925 1.360 . S
C1924 C1923 1.413 . S
C1924 C1928 1.429 . S
C1925 C1923 1.360 . S
C1925 C1926 1.372 . S
C1926 H1921 0.928 . S
C1926 C1925 1.372 . S
C1926 C1927 1.404 . S
C1927 C1926 1.404 . S
C1927 C1928 1.391 . S
C1928 H1922 0.930 . S
C1928 C1924 1.429 . S
C1928 C1927 1.391 . S
H1929 C1932 0.931 . S
H1930 C1935 0.928 . S
H1931 C1937 0.930 . S
C1932 H1929 0.931 . S
C1932 C1933 1.413 . S
C1932 C1934 1.360 . S
C1933 C1932 1.413 . S
C1933 C1937 1.429 . S
C1934 C1932 1.360 . S
C1934 C1935 1.372 . S
C1935 H1930 0.928 . S
C1935 C1934 1.372 . S
C1935 C1936 1.404 . S
C1936 C1935 1.404 . S
C1936 C1937 1.391 . S
C1937 H1931 0.930 . S
C1937 C1933 1.429 . S
C1937 C1936 1.391 . S
H1938 C1941 0.931 . S
H1939 C1944 0.928 . S
H1940 C1946 0.930 . S
C1941 H1938 0.931 . S
C1941 C1942 1.413 . S
C1941 C1943 1.360 . S
C1942 C1941 1.413 . S
C1942 C1946 1.429 . S
C1943 C1941 1.360 . S
C1943 C1944 1.372 . S
C1944 H1939 0.928 . S
C1944 C1943 1.372 . S
C1944 C1945 1.404 . S
C1945 C1944 1.404 . S
C1945 C1946 1.391 . S
C1946 H1940 0.930 . S
C1946 C1942 1.429 . S
C1946 C1945 1.391 . S
H1947 C1950 0.931 . S
H1948 C1953 0.928 . S
H1949 C1955 0.930 . S
C1950 H1947 0.931 . S
C1950 C1951 1.413 . S
C1950 C1952 1.360 . S
C1951 C1950 1.413 . S
C1951 C1955 1.429 . S
C1952 C1950 1.360 . S
C1952 C1953 1.372 . S
C1953 H1948 0.928 . S
C1953 C1952 1.372 . S
C1953 C1954 1.404 . S
C1954 C1953 1.404 . S
C1954 C1955 1.391 . S
C1955 H1949 0.930 . S
C1955 C1951 1.429 . S
C1955 C1954 1.391 . S
H1956 C1959 0.931 . S
H1957 C1962 0.928 . S
H1958 C1964 0.930 . S
C1959 H1956 0.931 . S
C1959 C1960 1.413 . S
C1959 C1961 1.360 . S
C1960 C1959 1.413 . S
C1960 C1964 1.429 . S
C1961 C1959 1.360 . S
C1961 C1962 1.372 . S
C1962 H1957 0.928 . S
C1962 C1961 1.372 . S
C1962 C1963 1.404 . S
C1963 C1962 1.404 . S
C1963 C1964 1.391 . S
C1964 H1958 0.930 . S
C1964 C1960 1.429 . S
C1964 C1963 1.391 . S
H1965 C1968 0.931 . S
H1966 C1971 0.928 . S
H1967 C1973 0.930 . S
C1968 H1965 0.931 . S
C1968 C1969 1.413 . S
C1968 C1970 1.360 . S
C1969 C1968 1.413 . S
C1969 C1973 1.429 . S
C1970 C1968 1.360 . S
C1970 C1971 1.372 . S
C1971 H1966 0.928 . S
C1971 C1970 1.372 . S
C1971 C1972 1.404 . S
C1972 C1971 1.404 . S
C1972 C1973 1.391 . S
C1973 H1967 0.930 . S
C1973 C1969 1.429 . S
C1973 C1972 1.391 . S
H1974 C1977 0.931 . S
H1975 C1980 0.928 . S
H1976 C1982 0.930 . S
C1977 H1974 0.931 . S
C1977 C1978 1.413 . S
C1977 C1979 1.360 . S
C1978 C1977 1.413 . S
C1978 C1982 1.429 . S
C1979 C1977 1.360 . S
C1979 C1980 1.372 . S
C1980 H1975 0.928 . S
C1980 C1979 1.372 . S
C1980 C1981 1.404 . S
C1981 C1980 1.404 . S
C1981 C1982 1.391 . S
C1982 H1976 0.930 . S
C1982 C1978 1.429 . S
C1982 C1981 1.391 . S
H1983 C1986 0.931 . S
H1984 C1989 0.928 . S
H1985 C1991 0.930 . S
C1986 H1983 0.931 . S
C1986 C1987 1.413 . S
C1986 C1988 1.360 . S
C1987 C1986 1.413 . S
C1987 C1991 1.429 . S
C1988 C1986 1.360 . S
C1988 C1989 1.372 . S
C1989 H1984 0.928 . S
C1989 C1988 1.372 . S
C1989 C1990 1.404 . S
C1990 C1989 1.404 . S
C1990 C1991 1.391 . S
C1991 H1985 0.930 . S
C1991 C1987 1.429 . S
C1991 C1990 1.391 . S
H1992 C1995 0.931 . S
H1993 C1998 0.928 . S
H1994 C2000 0.930 . S
C1995 H1992 0.931 . S
C1995 C1996 1.413 . S
C1995 C1997 1.360 . S
C1996 C1995 1.413 . S
C1996 C2000 1.429 . S
C1997 C1995 1.360 . S
C1997 C1998 1.372 . S
C1998 H1993 0.928 . S
C1998 C1997 1.372 . S
C1998 C1999 1.404 . S
C1999 C1998 1.404 . S
C1999 C2000 1.391 . S
C2000 H1994 0.930 . S
C2000 C1996 1.429 . S
C2000 C1999 1.391 . S
H2001 C2004 0.931 . S
H2002 C2007 0.928 . S
H2003 C2009 0.930 . S
C2004 H2001 0.931 . S
C2004 C2005 1.413 . S
C2004 C2006 1.360 . S
C2005 C2004 1.413 . S
C2005 C2009 1.429 . S
C2006 C2004 1.360 . S
C2006 C2007 1.372 . S
C2007 H2002 0.928 . S
C2007 C2006 1.372 . S
C2007 C2008 1.404 . S
C2008 C2007 1.404 . S
C2008 C2009 1.391 . S
C2009 H2003 0.930 . S
C2009 C2005 1.429 . S
C2009 C2008 1.391 . S
H2010 C2013 0.931 . S
H2011 C2016 0.928 . S
H2012 C2018 0.930 . S
C2013 H2010 0.931 . S
C2013 C2014 1.413 . S
C2013 C2015 1.360 . S
C2014 C2013 1.413 . S
C2014 C2018 1.429 . S
C2015 C2013 1.360 . S
C2015 C2016 1.372 . S
C2016 H2011 0.928 . S
C2016 C2015 1.372 . S
C2016 C2017 1.404 . S
C2017 C2016 1.404 . S
C2017 C2018 1.391 . S
C2018 H2012 0.930 . S
C2018 C2014 1.429 . S
C2018 C2017 1.391 . S
H2019 C2022 0.931 . S
H2020 C2025 0.928 . S
H2021 C2027 0.930 . S
C2022 H2019 0.931 . S
C2022 C2023 1.413 . S
C2022 C2024 1.360 . S
C2023 C2022 1.413 . S
C2023 C2027 1.429 . S
C2024 C2022 1.360 . S
C2024 C2025 1.372 . S
C2025 H2020 0.928 . S
C2025 C2024 1.372 . S
C2025 C2026 1.404 . S
C2026 C2025 1.404 . S
C2026 C2027 1.391 . S
C2027 H2021 0.930 . S
C2027 C2023 1.429 . S
C2027 C2026 1.391 . S
H2028 C2031 0.931 . S
H2029 C2034 0.928 . S
H2030 C2036 0.930 . S
C2031 H2028 0.931 . S
C2031 C2032 1.413 . S
C2031 C2033 1.360 . S
C2032 C2031 1.413 . S
C2032 C2036 1.429 . S
C2033 C2031 1.360 . S
C2033 C2034 1.372 . S
C2034 H2029 0.928 . S
C2034 C2033 1.372 . S
C2034 C2035 1.404 . S
C2035 C2034 1.404 . S
C2035 C2036 1.391 . S
C2036 H2030 0.930 . S
C2036 C2032 1.429 . S
C2036 C2035 1.391 . S
H2037 C2040 0.931 . S
H2038 C2043 0.928 . S
H2039 C2045 0.930 . S
C2040 H2037 0.931 . S
C2040 C2041 1.413 . S
C2040 C2042 1.360 . S
C2041 C2040 1.413 . S
C2041 C2045 1.429 . S
C2042 C2040 1.360 . S
C2042 C2043 1.372 . S
C2043 H2038 0.928 . S
C2043 C2042 1.372 . S
C2043 C2044 1.404 . S
C2044 C2043 1.404 . S
C2044 C2045 1.391 . S
C2045 H2039 0.930 . S
C2045 C2041 1.429 . S
C2045 C2044 1.391 . S
H2046 C2049 0.931 . S
H2047 C2052 0.928 . S
H2048 C2054 0.930 . S
C2049 H2046 0.931 . S
C2049 C2050 1.413 . S
C2049 C2051 1.360 . S
C2050 C2049 1.413 . S
C2050 C2054 1.429 . S
C2051 C2049 1.360 . S
C2051 C2052 1.372 . S
C2052 H2047 0.928 . S
C2052 C2051 1.372 . S
C2052 C2053 1.404 . S
C2053 C2052 1.404 . S
C2053 C2054 1.391 . S
C2054 H2048 0.930 . S
C2054 C2050 1.429 . S
C2054 C2053 1.391 . S
H2055 C2058 0.931 . S
H2056 C2061 0.928 . S
H2057 C2063 0.930 . S
C2058 H2055 0.931 . S
C2058 C2059 1.413 . S
C2058 C2060 1.360 . S
C2059 C2058 1.413 . S
C2059 C2063 1.429 . S
C2060 C2058 1.360 . S
C2060 C2061 1.372 . S
C2061 H2056 0.928 . S
C2061 C2060 1.372 . S
C2061 C2062 1.404 . S
C2062 C2061 1.404 . S
C2062 C2063 1.391 . S
C2063 H2057 0.930 . S
C2063 C2059 1.429 . S
C2063 C2062 1.391 . S
H2064 C2067 0.931 . S
H2065 C2070 0.928 . S
H2066 C2072 0.930 . S
C2067 H2064 0.931 . S
C2067 C2068 1.413 . S
C2067 C2069 1.360 . S
C2068 C2067 1.413 . S
C2068 C2072 1.429 . S
C2069 C2067 1.360 . S
C2069 C2070 1.372 . S
C2070 H2065 0.928 . S
C2070 C2069 1.372 . S
C2070 C2071 1.404 . S
C2071 C2070 1.404 . S
C2071 C2072 1.391 . S
C2072 H2066 0.930 . S
C2072 C2068 1.429 . S
C2072 C2071 1.391 . S
H2073 C2076 0.931 . S
H2074 C2079 0.928 . S
H2075 C2081 0.930 . S
C2076 H2073 0.931 . S
C2076 C2077 1.413 . S
C2076 C2078 1.360 . S
C2077 C2076 1.413 . S
C2077 C2081 1.429 . S
C2078 C2076 1.360 . S
C2078 C2079 1.372 . S
C2079 H2074 0.928 . S
C2079 C2078 1.372 . S
C2079 C2080 1.404 . S
C2080 C2079 1.404 . S
C2080 C2081 1.391 . S
C2081 H2075 0.930 . S
C2081 C2077 1.429 . S
C2081 C2080 1.391 . S
H2082 C2085 0.931 . S
H2083 C2088 0.928 . S
H2084 C2090 0.930 . S
C2085 H2082 0.931 . S
C2085 C2086 1.413 . S
C2085 C2087 1.360 . S
C2086 C2085 1.413 . S
C2086 C2090 1.429 . S
C2087 C2085 1.360 . S
C2087 C2088 1.372 . S
C2088 H2083 0.928 . S
C2088 C2087 1.372 . S
C2088 C2089 1.404 . S
C2089 C2088 1.404 . S
C2089 C2090 1.391 . S
C2090 H2084 0.930 . S
C2090 C2086 1.429 . S
C2090 C2089 1.391 . S
H2091 C2094 0.931 . S
H2092 C2097 0.928 . S
H2093 C2099 0.930 . S
C2094 H2091 0.931 . S
C2094 C2095 1.413 . S
C2094 C2096 1.360 . S
C2095 C2094 1.413 . S
C2095 C2099 1.429 . S
C2096 C2094 1.360 . S
C2096 C2097 1.372 . S
C2097 H2092 0.928 . S
C2097 C2096 1.372 . S
C2097 C2098 1.404 . S
C2098 C2097 1.404 . S
C2098 C2099 1.391 . S
C2099 H2093 0.930 . S
C2099 C2095 1.429 . S
C2099 C2098 1.391 . S
H2100 C2103 0.931 . S
H2101 C2106 0.928 . S
H2102 C2108 0.930 . S
C2103 H2100 0.931 . S
C2103 C2104 1.413 . S
C2103 C2105 1.360 . S
C2104 C2103 1.413 . S
C2104 C2108 1.429 . S
C2105 C2103 1.360 . S
C2105 C2106 1.372 . S
C2106 H2101 0.928 . S
C2106 C2105 1.372 . S
C2106 C2107 1.404 . S
C2107 C2106 1.404 . S
C2107 C2108 1.391 . S
C2108 H2102 0.930 . S
C2108 C2104 1.429 . S
C2108 C2107 1.391 . S
H2109 C2112 0.931 . S
H2110 C2115 0.928 . S
H2111 C2117 0.930 . S
C2112 H2109 0.931 . S
C2112 C2113 1.413 . S
C2112 C2114 1.360 . S
C2113 C2112 1.413 . S
C2113 C2117 1.429 . S
C2114 C2112 1.360 . S
C2114 C2115 1.372 . S
C2115 H2110 0.928 . S
C2115 C2114 1.372 . S
C2115 C2116 1.404 . S
C2116 C2115 1.404 . S
C2116 C2117 1.391 . S
C2117 H2111 0.930 . S
C2117 C2113 1.429 . S
C2117 C2116 1.391 . S
H2118 C2121 0.931 . S
H2119 C2124 0.928 . S
H2120 C2126 0.930 . S
C2121 H2118 0.931 . S
C2121 C2122 1.413 . S
C2121 C2123 1.360 . S
C2122 C2121 1.413 . S
C2122 C2126 1.429 . S
C2123 C2121 1.360 . S
C2123 C2124 1.372 . S
C2124 H2119 0.928 . S
C2124 C2123 1.372 . S
C2124 C2125 1.404 . S
C2125 C2124 1.404 . S
C2125 C2126 1.391 . S
C2126 H2120 0.930 . S
C2126 C2122 1.429 . S
C2126 C2125 1.391 . S
H2127 C2130 0.931 . S
H2128 C2133 0.928 . S
H2129 C2135 0.930 . S
C2130 H2127 0.931 . S
C2130 C2131 1.413 . S
C2130 C2132 1.360 . S
C2131 C2130 1.413 . S
C2131 C2135 1.429 . S
C2132 C2130 1.360 . S
C2132 C2133 1.372 . S
C2133 H2128 0.928 . S
C2133 C2132 1.372 . S
C2133 C2134 1.404 . S
C2134 C2133 1.404 . S
C2134 C2135 1.391 . S
C2135 H2129 0.930 . S
C2135 C2131 1.429 . S
C2135 C2134 1.391 . S
H2136 C2139 0.931 . S
H2137 C2142 0.928 . S
H2138 C2144 0.930 . S
C2139 H2136 0.931 . S
C2139 C2140 1.413 . S
C2139 C2141 1.360 . S
C2140 C2139 1.413 . S
C2140 C2144 1.429 . S
C2141 C2139 1.360 . S
C2141 C2142 1.372 . S
C2142 H2137 0.928 . S
C2142 C2141 1.372 . S
C2142 C2143 1.404 . S
C2143 C2142 1.404 . S
C2143 C2144 1.391 . S
C2144 H2138 0.930 . S
C2144 C2140 1.429 . S
C2144 C2143 1.391 . S
H2145 C2148 0.931 . S
H2146 C2151 0.928 . S
H2147 C2153 0.930 . S
C2148 H2145 0.931 . S
C2148 C2149 1.413 . S
C2148 C2150 1.360 . S
C2149 C2148 1.413 . S
C2149 C2153 1.429 . S
C2150 C2148 1.360 . S
C2150 C2151 1.372 . S
C2151 H2146 0.928 . S
C2151 C2150 1.372 . S
C2151 C2152 1.404 . S
C2152 C2151 1.404 . S
C2152 C2153 1.391 . S
C2153 H2147 0.930 . S
C2153 C2149 1.429 . S
C2153 C2152 1.391 . S
H2154 C2157 0.931 . S
H2155 C2160 0.928 . S
H2156 C2162 0.930 . S
C2157 H2154 0.931 . S
C2157 C2158 1.413 . S
C2157 C2159 1.360 . S
C2158 C2157 1.413 . S
C2158 C2162 1.429 . S
C2159 C2157 1.360 . S
C2159 C2160 1.372 . S
C2160 H2155 0.928 . S
C2160 C2159 1.372 . S
C2160 C2161 1.404 . S
C2161 C2160 1.404 . S
C2161 C2162 1.391 . S
C2162 H2156 0.930 . S
C2162 C2158 1.429 . S
C2162 C2161 1.391 . S
H2163 C2166 0.931 . S
H2164 C2169 0.928 . S
H2165 C2171 0.930 . S
C2166 H2163 0.931 . S
C2166 C2167 1.413 . S
C2166 C2168 1.360 . S
C2167 C2166 1.413 . S
C2167 C2171 1.429 . S
C2168 C2166 1.360 . S
C2168 C2169 1.372 . S
C2169 H2164 0.928 . S
C2169 C2168 1.372 . S
C2169 C2170 1.404 . S
C2170 C2169 1.404 . S
C2170 C2171 1.391 . S
C2171 H2165 0.930 . S
C2171 C2167 1.429 . S
C2171 C2170 1.391 . S
H2172 C2175 0.931 . S
H2173 C2178 0.928 . S
H2174 C2180 0.930 . S
C2175 H2172 0.931 . S
C2175 C2176 1.413 . S
C2175 C2177 1.360 . S
C2176 C2175 1.413 . S
C2176 C2180 1.429 . S
C2177 C2175 1.360 . S
C2177 C2178 1.372 . S
C2178 H2173 0.928 . S
C2178 C2177 1.372 . S
C2178 C2179 1.404 . S
C2179 C2178 1.404 . S
C2179 C2180 1.391 . S
C2180 H2174 0.930 . S
C2180 C2176 1.429 . S
C2180 C2179 1.391 . S
H2181 C2184 0.931 . S
H2182 C2187 0.928 . S
H2183 C2189 0.930 . S
C2184 H2181 0.931 . S
C2184 C2185 1.413 . S
C2184 C2186 1.360 . S
C2185 C2184 1.413 . S
C2185 C2189 1.429 . S
C2186 C2184 1.360 . S
C2186 C2187 1.372 . S
C2187 H2182 0.928 . S
C2187 C2186 1.372 . S
C2187 C2188 1.404 . S
C2188 C2187 1.404 . S
C2188 C2189 1.391 . S
C2189 H2183 0.930 . S
C2189 C2185 1.429 . S
C2189 C2188 1.391 . S
H2190 C2193 0.931 . S
H2191 C2196 0.928 . S
H2192 C2198 0.930 . S
C2193 H2190 0.931 . S
C2193 C2194 1.413 . S
C2193 C2195 1.360 . S
C2194 C2193 1.413 . S
C2194 C2198 1.429 . S
C2195 C2193 1.360 . S
C2195 C2196 1.372 . S
C2196 H2191 0.928 . S
C2196 C2195 1.372 . S
C2196 C2197 1.404 . S
C2197 C2196 1.404 . S
C2197 C2198 1.391 . S
C2198 H2192 0.930 . S
C2198 C2194 1.429 . S
C2198 C2197 1.391 . S
H2199 C2202 0.931 . S
H2200 C2205 0.928 . S
H2201 C2207 0.930 . S
C2202 H2199 0.931 . S
C2202 C2203 1.413 . S
C2202 C2204 1.360 . S
C2203 C2202 1.413 . S
C2203 C2207 1.429 . S
C2204 C2202 1.360 . S
C2204 C2205 1.372 . S
C2205 H2200 0.928 . S
C2205 C2204 1.372 . S
C2205 C2206 1.404 . S
C2206 C2205 1.404 . S
C2206 C2207 1.391 . S
C2207 H2201 0.930 . S
C2207 C2203 1.429 . S
C2207 C2206 1.391 . S
H2208 C2211 0.931 . S
H2209 C2214 0.928 . S
H2210 C2216 0.930 . S
C2211 H2208 0.931 . S
C2211 C2212 1.413 . S
C2211 C2213 1.360 . S
C2212 C2211 1.413 . S
C2212 C2216 1.429 . S
C2213 C2211 1.360 . S
C2213 C2214 1.372 . S
C2214 H2209 0.928 . S
C2214 C2213 1.372 . S
C2214 C2215 1.404 . S
C2215 C2214 1.404 . S
C2215 C2216 1.391 . S
C2216 H2210 0.930 . S
C2216 C2212 1.429 . S
C2216 C2215 1.391 . S
H2217 C2220 0.931 . S
H2218 C2223 0.928 . S
H2219 C2225 0.930 . S
C2220 H2217 0.931 . S
C2220 C2221 1.413 . S
C2220 C2222 1.360 . S
C2221 C2220 1.413 . S
C2221 C2225 1.429 . S
C2222 C2220 1.360 . S
C2222 C2223 1.372 . S
C2223 H2218 0.928 . S
C2223 C2222 1.372 . S
C2223 C2224 1.404 . S
C2224 C2223 1.404 . S
C2224 C2225 1.391 . S
C2225 H2219 0.930 . S
C2225 C2221 1.429 . S
C2225 C2224 1.391 . S
H2226 C2229 0.931 . S
H2227 C2232 0.928 . S
H2228 C2234 0.930 . S
C2229 H2226 0.931 . S
C2229 C2230 1.413 . S
C2229 C2231 1.360 . S
C2230 C2229 1.413 . S
C2230 C2234 1.429 . S
C2231 C2229 1.360 . S
C2231 C2232 1.372 . S
C2232 H2227 0.928 . S
C2232 C2231 1.372 . S
C2232 C2233 1.404 . S
C2233 C2232 1.404 . S
C2233 C2234 1.391 . S
C2234 H2228 0.930 . S
C2234 C2230 1.429 . S
C2234 C2233 1.391 . S
H2235 C2238 0.931 . S
H2236 C2241 0.928 . S
H2237 C2243 0.930 . S
C2238 H2235 0.931 . S
C2238 C2239 1.413 . S
C2238 C2240 1.360 . S
C2239 C2238 1.413 . S
C2239 C2243 1.429 . S
C2240 C2238 1.360 . S
C2240 C2241 1.372 . S
C2241 H2236 0.928 . S
C2241 C2240 1.372 . S
C2241 C2242 1.404 . S
C2242 C2241 1.404 . S
C2242 C2243 1.391 . S
C2243 H2237 0.930 . S
C2243 C2239 1.429 . S
C2243 C2242 1.391 . S
H2244 C2247 0.931 . S
H2245 C2250 0.928 . S
H2246 C2252 0.930 . S
C2247 H2244 0.931 . S
C2247 C2248 1.413 . S
C2247 C2249 1.360 . S
C2248 C2247 1.413 . S
C2248 C2252 1.429 . S
C2249 C2247 1.360 . S
C2249 C2250 1.372 . S
C2250 H2245 0.928 . S
C2250 C2249 1.372 . S
C2250 C2251 1.404 . S
C2251 C2250 1.404 . S
C2251 C2252 1.391 . S
C2252 H2246 0.930 . S
C2252 C2248 1.429 . S
C2252 C2251 1.391 . S
H2253 C2256 0.931 . S
H2254 C2259 0.928 . S
H2255 C2261 0.930 . S
C2256 H2253 0.931 . S
C2256 C2257 1.413 . S
C2256 C2258 1.360 . S
C2257 C2256 1.413 . S
C2257 C2261 1.429 . S
C2258 C2256 1.360 . S
C2258 C2259 1.372 . S
C2259 H2254 0.928 . S
C2259 C2258 1.372 . S
C2259 C2260 1.404 . S
C2260 C2259 1.404 . S
C2260 C2261 1.391 . S
C2261 H2255 0.930 . S
C2261 C2257 1.429 . S
C2261 C2260 1.391 . S
H2262 C2265 0.931 . S
H2263 C2268 0.928 . S
H2264 C2270 0.930 . S
C2265 H2262 0.931 . S
C2265 C2266 1.413 . S
C2265 C2267 1.360 . S
C2266 C2265 1.413 . S
C2266 C2270 1.429 . S
C2267 C2265 1.360 . S
C2267 C2268 1.372 . S
C2268 H2263 0.928 . S
C2268 C2267 1.372 . S
C2268 C2269 1.404 . S
C2269 C2268 1.404 . S
C2269 C2270 1.391 . S
C2270 H2264 0.930 . S
C2270 C2266 1.429 . S
C2270 C2269 1.391 . S
H2271 C2274 0.931 . S
H2272 C2277 0.928 . S
H2273 C2279 0.930 . S
C2274 H2271 0.931 . S
C2274 C2275 1.413 . S
C2274 C2276 1.360 . S
C2275 C2274 1.413 . S
C2275 C2279 1.429 . S
C2276 C2274 1.360 . S
C2276 C2277 1.372 . S
C2277 H2272 0.928 . S
C2277 C2276 1.372 . S
C2277 C2278 1.404 . S
C2278 C2277 1.404 . S
C2278 C2279 1.391 . S
C2279 H2273 0.930 . S
C2279 C2275 1.429 . S
C2279 C2278 1.391 . S
H2280 C2283 0.931 . S
H2281 C2286 0.928 . S
H2282 C2288 0.930 . S
C2283 H2280 0.931 . S
C2283 C2284 1.413 . S
C2283 C2285 1.360 . S
C2284 C2283 1.413 . S
C2284 C2288 1.429 . S
C2285 C2283 1.360 . S
C2285 C2286 1.372 . S
C2286 H2281 0.928 . S
C2286 C2285 1.372 . S
C2286 C2287 1.404 . S
C2287 C2286 1.404 . S
C2287 C2288 1.391 . S
C2288 H2282 0.930 . S
C2288 C2284 1.429 . S
C2288 C2287 1.391 . S
H2289 C2292 0.931 . S
H2290 C2295 0.928 . S
H2291 C2297 0.930 . S
C2292 H2289 0.931 . S
C2292 C2293 1.413 . S
C2292 C2294 1.360 . S
C2293 C2292 1.413 . S
C2293 C2297 1.429 . S
C2294 C2292 1.360 . S
C2294 C2295 1.372 . S
C2295 H2290 0.928 . S
C2295 C2294 1.372 . S
C2295 C2296 1.404 . S
C2296 C2295 1.404 . S
C2296 C2297 1.391 . S
C2297 H2291 0.930 . S
C2297 C2293 1.429 . S
C2297 C2296 1.391 . S
H2298 C2301 0.931 . S
H2299 C2304 0.928 . S
H2300 C2306 0.930 . S
C2301 H2298 0.931 . S
C2301 C2302 1.413 . S
C2301 C2303 1.360 . S
C2302 C2301 1.413 . S
C2302 C2306 1.429 . S
C2303 C2301 1.360 . S
C2303 C2304 1.372 . S
C2304 H2299 0.928 . S
C2304 C2303 1.372 . S
C2304 C2305 1.404 . S
C2305 C2304 1.404 . S
C2305 C2306 1.391 . S
C2306 H2300 0.930 . S
C2306 C2302 1.429 . S
C2306 C2305 1.391 . S
H2307 C2310 0.931 . S
H2308 C2313 0.928 . S
H2309 C2315 0.930 . S
C2310 H2307 0.931 . S
C2310 C2311 1.413 . S
C2310 C2312 1.360 . S
C2311 C2310 1.413 . S
C2311 C2315 1.429 . S
C2312 C2310 1.360 . S
C2312 C2313 1.372 . S
C2313 H2308 0.928 . S
C2313 C2312 1.372 . S
C2313 C2314 1.404 . S
C2314 C2313 1.404 . S
C2314 C2315 1.391 . S
C2315 H2309 0.930 . S
C2315 C2311 1.429 . S
C2315 C2314 1.391 . S
H2316 C2319 0.931 . S
H2317 C2322 0.928 . S
H2318 C2324 0.930 . S
C2319 H2316 0.931 . S
C2319 C2320 1.413 . S
C2319 C2321 1.360 . S
C2320 C2319 1.413 . S
C2320 C2324 1.429 . S
C2321 C2319 1.360 . S
C2321 C2322 1.372 . S
C2322 H2317 0.928 . S
C2322 C2321 1.372 . S
C2322 C2323 1.404 . S
C2323 C2322 1.404 . S
C2323 C2324 1.391 . S
C2324 H2318 0.930 . S
C2324 C2320 1.429 . S
C2324 C2323 1.391 . S
H2325 C2328 0.931 . S
H2326 C2331 0.928 . S
H2327 C2333 0.930 . S
C2328 H2325 0.931 . S
C2328 C2329 1.413 . S
C2328 C2330 1.360 . S
C2329 C2328 1.413 . S
C2329 C2333 1.429 . S
C2330 C2328 1.360 . S
C2330 C2331 1.372 . S
C2331 H2326 0.928 . S
C2331 C2330 1.372 . S
C2331 C2332 1.404 . S
C2332 C2331 1.404 . S
C2332 C2333 1.391 . S
C2333 H2327 0.930 . S
C2333 C2329 1.429 . S
C2333 C2332 1.391 . S
H2334 C2337 0.931 . S
H2335 C2340 0.928 . S
H2336 C2342 0.930 . S
C2337 H2334 0.931 . S
C2337 C2338 1.413 . S
C2337 C2339 1.360 . S
C2338 C2337 1.413 . S
C2338 C2342 1.429 . S
C2339 C2337 1.360 . S
C2339 C2340 1.372 . S
C2340 H2335 0.928 . S
C2340 C2339 1.372 . S
C2340 C2341 1.404 . S
C2341 C2340 1.404 . S
C2341 C2342 1.391 . S
C2342 H2336 0.930 . S
C2342 C2338 1.429 . S
C2342 C2341 1.391 . S
H2343 C2346 0.931 . S
H2344 C2349 0.928 . S
H2345 C2351 0.930 . S
C2346 H2343 0.931 . S
C2346 C2347 1.413 . S
C2346 C2348 1.360 . S
C2347 C2346 1.413 . S
C2347 C2351 1.429 . S
C2348 C2346 1.360 . S
C2348 C2349 1.372 . S
C2349 H2344 0.928 . S
C2349 C2348 1.372 . S
C2349 C2350 1.404 . S
C2350 C2349 1.404 . S
C2350 C2351 1.391 . S
C2351 H2345 0.930 . S
C2351 C2347 1.429 . S
C2351 C2350 1.391 . S
H2352 C2360 0.929 . S
H2353 C2362 0.930 . S
H2354 C2364 0.930 . S
H2355 C2367 0.929 . S
H2356 C2370 0.930 . S
H2357 C2372 0.960 . S
H2358 C2372 0.960 . S
H2359 C2372 0.960 . S
C2360 H2352 0.929 . S
C2360 C2361 1.377 . S
C2360 C2362 1.384 . S
C2361 C2360 1.377 . S
C2361 C2367 1.390 . S
C2362 H2353 0.930 . S
C2362 C2360 1.384 . S
C2362 C2363 1.372 . S
C2363 C2362 1.372 . S
C2363 C2364 1.400 . S
C2363 C2368 1.490 . S
C2364 H2354 0.930 . S
C2364 C2363 1.400 . S
C2364 C2367 1.386 . S
H2365 C2381 0.930 . S
H2366 C2382 0.931 . S
C2367 H2355 0.929 . S
C2367 C2361 1.390 . S
C2367 C2364 1.386 . S
C2368 C2363 1.490 . S
C2368 C2370 1.395 . S
C2368 C2371 1.403 . S
H2369 C2375 0.930 . S
C2370 H2356 0.930 . S
C2370 C2368 1.395 . S
C2370 C2373 1.403 . S
C2371 C2368 1.403 . S
C2371 C2372 1.524 . S
C2371 C2375 1.400 . S
C2372 H2357 0.960 . S
C2372 H2358 0.960 . S
C2372 H2359 0.960 . S
C2372 C2371 1.524 . S
C2373 C2370 1.403 . S
C2373 C2374 1.392 . S
C2373 C2377 1.495 . S
C2374 C2373 1.392 . S
C2374 C2375 1.385 . S
C2374 C2376 1.478 . S
C2375 H2369 0.930 . S
C2375 C2371 1.400 . S
C2375 C2374 1.385 . S
C2376 C2374 1.478 . S
C2376 C2378 1.381 . S
C2376 C2382 1.383 . S
C2377 C2373 1.495 . S
C2377 H2383 0.959 . S
C2377 H2384 0.961 . S
C2377 H2385 0.960 . S
C2378 C2376 1.381 . S
C2378 C2379 1.394 . S
C2378 H2386 0.930 . S
C2379 C2378 1.394 . S
C2379 C2380 1.383 . S
C2379 H2387 0.929 . S
C2380 C2379 1.383 . S
C2380 C2381 1.377 . S
C2381 H2365 0.930 . S
C2381 C2380 1.377 . S
C2381 C2382 1.379 . S
C2382 H2366 0.931 . S
C2382 C2376 1.383 . S
C2382 C2381 1.379 . S
H2383 C2377 0.959 . S
H2384 C2377 0.961 . S
H2385 C2377 0.960 . S
H2386 C2378 0.930 . S
H2387 C2379 0.929 . S
H2388 C2396 0.929 . S
H2389 C2398 0.930 . S
H2390 C2400 0.930 . S
H2391 C2403 0.929 . S
H2392 C2406 0.930 . S
H2393 C2408 0.960 . S
H2394 C2408 0.960 . S
H2395 C2408 0.960 . S
C2396 H2388 0.929 . S
C2396 C2397 1.377 . S
C2396 C2398 1.384 . S
C2397 C2396 1.377 . S
C2397 C2403 1.390 . S
C2398 H2389 0.930 . S
C2398 C2396 1.384 . S
C2398 C2399 1.372 . S
C2399 C2398 1.372 . S
C2399 C2400 1.400 . S
C2399 C2404 1.490 . S
C2400 H2390 0.930 . S
C2400 C2399 1.400 . S
C2400 C2403 1.386 . S
H2401 C2417 0.930 . S
H2402 C2418 0.931 . S
C2403 H2391 0.929 . S
C2403 C2397 1.390 . S
C2403 C2400 1.386 . S
C2404 C2399 1.490 . S
C2404 C2406 1.395 . S
C2404 C2407 1.403 . S
H2405 C2411 0.930 . S
C2406 H2392 0.930 . S
C2406 C2404 1.395 . S
C2406 C2409 1.403 . S
C2407 C2404 1.403 . S
C2407 C2408 1.524 . S
C2407 C2411 1.400 . S
C2408 H2393 0.960 . S
C2408 H2394 0.960 . S
C2408 H2395 0.960 . S
C2408 C2407 1.524 . S
C2409 C2406 1.403 . S
C2409 C2410 1.392 . S
C2409 C2413 1.495 . S
C2410 C2409 1.392 . S
C2410 C2411 1.385 . S
C2410 C2412 1.478 . S
C2411 H2405 0.930 . S
C2411 C2407 1.400 . S
C2411 C2410 1.385 . S
C2412 C2410 1.478 . S
C2412 C2414 1.381 . S
C2412 C2418 1.383 . S
C2413 C2409 1.495 . S
C2413 H2419 0.959 . S
C2413 H2420 0.961 . S
C2413 H2421 0.960 . S
C2414 C2412 1.381 . S
C2414 C2415 1.394 . S
C2414 H2422 0.930 . S
C2415 C2414 1.394 . S
C2415 C2416 1.383 . S
C2415 H2423 0.929 . S
C2416 C2415 1.383 . S
C2416 C2417 1.377 . S
C2417 H2401 0.930 . S
C2417 C2416 1.377 . S
C2417 C2418 1.379 . S
C2418 H2402 0.931 . S
C2418 C2412 1.383 . S
C2418 C2417 1.379 . S
H2419 C2413 0.959 . S
H2420 C2413 0.961 . S
H2421 C2413 0.960 . S
H2422 C2414 0.930 . S
H2423 C2415 0.929 . S
H2424 C2432 0.929 . S
H2425 C2434 0.930 . S
H2426 C2436 0.930 . S
H2427 C2439 0.929 . S
H2428 C2442 0.930 . S
H2429 C2444 0.960 . S
H2430 C2444 0.960 . S
H2431 C2444 0.960 . S
C2432 H2424 0.929 . S
C2432 C2433 1.377 . S
C2432 C2434 1.384 . S
C2433 C2432 1.377 . S
C2433 C2439 1.390 . S
C2434 H2425 0.930 . S
C2434 C2432 1.384 . S
C2434 C2435 1.372 . S
C2435 C2434 1.372 . S
C2435 C2436 1.400 . S
C2435 C2440 1.490 . S
C2436 H2426 0.930 . S
C2436 C2435 1.400 . S
C2436 C2439 1.386 . S
H2437 C2453 0.930 . S
H2438 C2454 0.931 . S
C2439 H2427 0.929 . S
C2439 C2433 1.390 . S
C2439 C2436 1.386 . S
C2440 C2435 1.490 . S
C2440 C2442 1.395 . S
C2440 C2443 1.403 . S
H2441 C2447 0.930 . S
C2442 H2428 0.930 . S
C2442 C2440 1.395 . S
C2442 C2445 1.403 . S
C2443 C2440 1.403 . S
C2443 C2444 1.524 . S
C2443 C2447 1.400 . S
C2444 H2429 0.960 . S
C2444 H2430 0.960 . S
C2444 H2431 0.960 . S
C2444 C2443 1.524 . S
C2445 C2442 1.403 . S
C2445 C2446 1.392 . S
C2445 C2449 1.495 . S
C2446 C2445 1.392 . S
C2446 C2447 1.385 . S
C2446 C2448 1.478 . S
C2447 H2441 0.930 . S
C2447 C2443 1.400 . S
C2447 C2446 1.385 . S
C2448 C2446 1.478 . S
C2448 C2450 1.381 . S
C2448 C2454 1.383 . S
C2449 C2445 1.495 . S
C2449 H2455 0.959 . S
C2449 H2456 0.961 . S
C2449 H2457 0.960 . S
C2450 C2448 1.381 . S
C2450 C2451 1.394 . S
C2450 H2458 0.930 . S
C2451 C2450 1.394 . S
C2451 C2452 1.383 . S
C2451 H2459 0.929 . S
C2452 C2451 1.383 . S
C2452 C2453 1.377 . S
C2453 H2437 0.930 . S
C2453 C2452 1.377 . S
C2453 C2454 1.379 . S
C2454 H2438 0.931 . S
C2454 C2448 1.383 . S
C2454 C2453 1.379 . S
H2455 C2449 0.959 . S
H2456 C2449 0.961 . S
H2457 C2449 0.960 . S
H2458 C2450 0.930 . S
H2459 C2451 0.929 . S
H2460 C2468 0.929 . S
H2461 C2470 0.930 . S
H2462 C2472 0.930 . S
H2463 C2475 0.929 . S
H2464 C2478 0.930 . S
H2465 C2480 0.960 . S
H2466 C2480 0.960 . S
H2467 C2480 0.960 . S
C2468 H2460 0.929 . S
C2468 C2469 1.377 . S
C2468 C2470 1.384 . S
C2469 C2468 1.377 . S
C2469 C2475 1.390 . S
C2470 H2461 0.930 . S
C2470 C2468 1.384 . S
C2470 C2471 1.372 . S
C2471 C2470 1.372 . S
C2471 C2472 1.400 . S
C2471 C2476 1.490 . S
C2472 H2462 0.930 . S
C2472 C2471 1.400 . S
C2472 C2475 1.386 . S
H2473 C2489 0.930 . S
H2474 C2490 0.931 . S
C2475 H2463 0.929 . S
C2475 C2469 1.390 . S
C2475 C2472 1.386 . S
C2476 C2471 1.490 . S
C2476 C2478 1.395 . S
C2476 C2479 1.403 . S
H2477 C2483 0.930 . S
C2478 H2464 0.930 . S
C2478 C2476 1.395 . S
C2478 C2481 1.403 . S
C2479 C2476 1.403 . S
C2479 C2480 1.524 . S
C2479 C2483 1.400 . S
C2480 H2465 0.960 . S
C2480 H2466 0.960 . S
C2480 H2467 0.960 . S
C2480 C2479 1.524 . S
C2481 C2478 1.403 . S
C2481 C2482 1.392 . S
C2481 C2485 1.495 . S
C2482 C2481 1.392 . S
C2482 C2483 1.385 . S
C2482 C2484 1.478 . S
C2483 H2477 0.930 . S
C2483 C2479 1.400 . S
C2483 C2482 1.385 . S
C2484 C2482 1.478 . S
C2484 C2486 1.381 . S
C2484 C2490 1.383 . S
C2485 C2481 1.495 . S
C2485 H2491 0.959 . S
C2485 H2492 0.961 . S
C2485 H2493 0.960 . S
C2486 C2484 1.381 . S
C2486 C2487 1.394 . S
C2486 H2494 0.930 . S
C2487 C2486 1.394 . S
C2487 C2488 1.383 . S
C2487 H2495 0.929 . S
C2488 C2487 1.383 . S
C2488 C2489 1.377 . S
C2489 H2473 0.930 . S
C2489 C2488 1.377 . S
C2489 C2490 1.379 . S
C2490 H2474 0.931 . S
C2490 C2484 1.383 . S
C2490 C2489 1.379 . S
H2491 C2485 0.959 . S
H2492 C2485 0.961 . S
H2493 C2485 0.960 . S
H2494 C2486 0.930 . S
H2495 C2487 0.929 . S
H2496 C2504 0.929 . S
H2497 C2506 0.930 . S
H2498 C2508 0.930 . S
H2499 C2511 0.929 . S
H2500 C2514 0.930 . S
H2501 C2516 0.960 . S
H2502 C2516 0.960 . S
H2503 C2516 0.960 . S
C2504 H2496 0.929 . S
C2504 C2505 1.377 . S
C2504 C2506 1.384 . S
C2505 C2504 1.377 . S
C2505 C2511 1.390 . S
C2506 H2497 0.930 . S
C2506 C2504 1.384 . S
C2506 C2507 1.372 . S
C2507 C2506 1.372 . S
C2507 C2508 1.400 . S
C2507 C2512 1.490 . S
C2508 H2498 0.930 . S
C2508 C2507 1.400 . S
C2508 C2511 1.386 . S
H2509 C2525 0.930 . S
H2510 C2526 0.931 . S
C2511 H2499 0.929 . S
C2511 C2505 1.390 . S
C2511 C2508 1.386 . S
C2512 C2507 1.490 . S
C2512 C2514 1.395 . S
C2512 C2515 1.403 . S
H2513 C2519 0.930 . S
C2514 H2500 0.930 . S
C2514 C2512 1.395 . S
C2514 C2517 1.403 . S
C2515 C2512 1.403 . S
C2515 C2516 1.524 . S
C2515 C2519 1.400 . S
C2516 H2501 0.960 . S
C2516 H2502 0.960 . S
C2516 H2503 0.960 . S
C2516 C2515 1.524 . S
C2517 C2514 1.403 . S
C2517 C2518 1.392 . S
C2517 C2521 1.495 . S
C2518 C2517 1.392 . S
C2518 C2519 1.385 . S
C2518 C2520 1.478 . S
C2519 H2513 0.930 . S
C2519 C2515 1.400 . S
C2519 C2518 1.385 . S
C2520 C2518 1.478 . S
C2520 C2522 1.381 . S
C2520 C2526 1.383 . S
C2521 C2517 1.495 . S
C2521 H2527 0.959 . S
C2521 H2528 0.961 . S
C2521 H2529 0.960 . S
C2522 C2520 1.381 . S
C2522 C2523 1.394 . S
C2522 H2530 0.930 . S
C2523 C2522 1.394 . S
C2523 C2524 1.383 . S
C2523 H2531 0.929 . S
C2524 C2523 1.383 . S
C2524 C2525 1.377 . S
C2525 H2509 0.930 . S
C2525 C2524 1.377 . S
C2525 C2526 1.379 . S
C2526 H2510 0.931 . S
C2526 C2520 1.383 . S
C2526 C2525 1.379 . S
H2527 C2521 0.959 . S
H2528 C2521 0.961 . S
H2529 C2521 0.960 . S
H2530 C2522 0.930 . S
H2531 C2523 0.929 . S
H2532 C2540 0.929 . S
H2533 C2542 0.930 . S
H2534 C2544 0.930 . S
H2535 C2547 0.929 . S
H2536 C2550 0.930 . S
H2537 C2552 0.960 . S
H2538 C2552 0.960 . S
H2539 C2552 0.960 . S
C2540 H2532 0.929 . S
C2540 C2541 1.377 . S
C2540 C2542 1.384 . S
C2541 C2540 1.377 . S
C2541 C2547 1.390 . S
C2542 H2533 0.930 . S
C2542 C2540 1.384 . S
C2542 C2543 1.372 . S
C2543 C2542 1.372 . S
C2543 C2544 1.400 . S
C2543 C2548 1.490 . S
C2544 H2534 0.930 . S
C2544 C2543 1.400 . S
C2544 C2547 1.386 . S
H2545 C2561 0.930 . S
H2546 C2562 0.931 . S
C2547 H2535 0.929 . S
C2547 C2541 1.390 . S
C2547 C2544 1.386 . S
C2548 C2543 1.490 . S
C2548 C2550 1.395 . S
C2548 C2551 1.403 . S
H2549 C2555 0.930 . S
C2550 H2536 0.930 . S
C2550 C2548 1.395 . S
C2550 C2553 1.403 . S
C2551 C2548 1.403 . S
C2551 C2552 1.524 . S
C2551 C2555 1.400 . S
C2552 H2537 0.960 . S
C2552 H2538 0.960 . S
C2552 H2539 0.960 . S
C2552 C2551 1.524 . S
C2553 C2550 1.403 . S
C2553 C2554 1.392 . S
C2553 C2557 1.495 . S
C2554 C2553 1.392 . S
C2554 C2555 1.385 . S
C2554 C2556 1.478 . S
C2555 H2549 0.930 . S
C2555 C2551 1.400 . S
C2555 C2554 1.385 . S
C2556 C2554 1.478 . S
C2556 C2558 1.381 . S
C2556 C2562 1.383 . S
C2557 C2553 1.495 . S
C2557 H2563 0.959 . S
C2557 H2564 0.961 . S
C2557 H2565 0.960 . S
C2558 C2556 1.381 . S
C2558 C2559 1.394 . S
C2558 H2566 0.930 . S
C2559 C2558 1.394 . S
C2559 C2560 1.383 . S
C2559 H2567 0.929 . S
C2560 C2559 1.383 . S
C2560 C2561 1.377 . S
C2561 H2545 0.930 . S
C2561 C2560 1.377 . S
C2561 C2562 1.379 . S
C2562 H2546 0.931 . S
C2562 C2556 1.383 . S
C2562 C2561 1.379 . S
H2563 C2557 0.959 . S
H2564 C2557 0.961 . S
H2565 C2557 0.960 . S
H2566 C2558 0.930 . S
H2567 C2559 0.929 . S
H2568 C2576 0.929 . S
H2569 C2578 0.930 . S
H2570 C2580 0.930 . S
H2571 C2583 0.929 . S
H2572 C2586 0.930 . S
H2573 C2588 0.960 . S
H2574 C2588 0.960 . S
H2575 C2588 0.960 . S
C2576 H2568 0.929 . S
C2576 C2577 1.377 . S
C2576 C2578 1.384 . S
C2577 C2576 1.377 . S
C2577 C2583 1.390 . S
C2578 H2569 0.930 . S
C2578 C2576 1.384 . S
C2578 C2579 1.372 . S
C2579 C2578 1.372 . S
C2579 C2580 1.400 . S
C2579 C2584 1.490 . S
C2580 H2570 0.930 . S
C2580 C2579 1.400 . S
C2580 C2583 1.386 . S
H2581 C2597 0.930 . S
H2582 C2598 0.931 . S
C2583 H2571 0.929 . S
C2583 C2577 1.390 . S
C2583 C2580 1.386 . S
C2584 C2579 1.490 . S
C2584 C2586 1.395 . S
C2584 C2587 1.403 . S
H2585 C2591 0.930 . S
C2586 H2572 0.930 . S
C2586 C2584 1.395 . S
C2586 C2589 1.403 . S
C2587 C2584 1.403 . S
C2587 C2588 1.524 . S
C2587 C2591 1.400 . S
C2588 H2573 0.960 . S
C2588 H2574 0.960 . S
C2588 H2575 0.960 . S
C2588 C2587 1.524 . S
C2589 C2586 1.403 . S
C2589 C2590 1.392 . S
C2589 C2593 1.495 . S
C2590 C2589 1.392 . S
C2590 C2591 1.385 . S
C2590 C2592 1.478 . S
C2591 H2585 0.930 . S
C2591 C2587 1.400 . S
C2591 C2590 1.385 . S
C2592 C2590 1.478 . S
C2592 C2594 1.381 . S
C2592 C2598 1.383 . S
C2593 C2589 1.495 . S
C2593 H2599 0.959 . S
C2593 H2600 0.961 . S
C2593 H2601 0.960 . S
C2594 C2592 1.381 . S
C2594 C2595 1.394 . S
C2594 H2602 0.930 . S
C2595 C2594 1.394 . S
C2595 C2596 1.383 . S
C2595 H2603 0.929 . S
C2596 C2595 1.383 . S
C2596 C2597 1.377 . S
C2597 H2581 0.930 . S
C2597 C2596 1.377 . S
C2597 C2598 1.379 . S
C2598 H2582 0.931 . S
C2598 C2592 1.383 . S
C2598 C2597 1.379 . S
H2599 C2593 0.959 . S
H2600 C2593 0.961 . S
H2601 C2593 0.960 . S
H2602 C2594 0.930 . S
H2603 C2595 0.929 . S
H2604 C2612 0.929 . S
H2605 C2614 0.930 . S
H2606 C2616 0.930 . S
H2607 C2619 0.929 . S
H2608 C2622 0.930 . S
H2609 C2624 0.960 . S
H2610 C2624 0.960 . S
H2611 C2624 0.960 . S
C2612 H2604 0.929 . S
C2612 C2613 1.377 . S
C2612 C2614 1.384 . S
C2613 C2612 1.377 . S
C2613 C2619 1.390 . S
C2614 H2605 0.930 . S
C2614 C2612 1.384 . S
C2614 C2615 1.372 . S
C2615 C2614 1.372 . S
C2615 C2616 1.400 . S
C2615 C2620 1.490 . S
C2616 H2606 0.930 . S
C2616 C2615 1.400 . S
C2616 C2619 1.386 . S
H2617 C2633 0.930 . S
H2618 C2634 0.931 . S
C2619 H2607 0.929 . S
C2619 C2613 1.390 . S
C2619 C2616 1.386 . S
C2620 C2615 1.490 . S
C2620 C2622 1.395 . S
C2620 C2623 1.403 . S
H2621 C2627 0.930 . S
C2622 H2608 0.930 . S
C2622 C2620 1.395 . S
C2622 C2625 1.403 . S
C2623 C2620 1.403 . S
C2623 C2624 1.524 . S
C2623 C2627 1.400 . S
C2624 H2609 0.960 . S
C2624 H2610 0.960 . S
C2624 H2611 0.960 . S
C2624 C2623 1.524 . S
C2625 C2622 1.403 . S
C2625 C2626 1.392 . S
C2625 C2629 1.495 . S
C2626 C2625 1.392 . S
C2626 C2627 1.385 . S
C2626 C2628 1.478 . S
C2627 H2621 0.930 . S
C2627 C2623 1.400 . S
C2627 C2626 1.385 . S
C2628 C2626 1.478 . S
C2628 C2630 1.381 . S
C2628 C2634 1.383 . S
C2629 C2625 1.495 . S
C2629 H2635 0.959 . S
C2629 H2636 0.961 . S
C2629 H2637 0.960 . S
C2630 C2628 1.381 . S
C2630 C2631 1.394 . S
C2630 H2638 0.930 . S
C2631 C2630 1.394 . S
C2631 C2632 1.383 . S
C2631 H2639 0.929 . S
C2632 C2631 1.383 . S
C2632 C2633 1.377 . S
C2633 H2617 0.930 . S
C2633 C2632 1.377 . S
C2633 C2634 1.379 . S
C2634 H2618 0.931 . S
C2634 C2628 1.383 . S
C2634 C2633 1.379 . S
H2635 C2629 0.959 . S
H2636 C2629 0.961 . S
H2637 C2629 0.960 . S
H2638 C2630 0.930 . S
H2639 C2631 0.929 . S
H2640 C2648 0.929 . S
H2641 C2650 0.930 . S
H2642 C2652 0.930 . S
H2643 C2655 0.929 . S
H2644 C2658 0.930 . S
H2645 C2660 0.960 . S
H2646 C2660 0.960 . S
H2647 C2660 0.960 . S
C2648 H2640 0.929 . S
C2648 C2649 1.377 . S
C2648 C2650 1.384 . S
C2649 C2648 1.377 . S
C2649 C2655 1.390 . S
C2650 H2641 0.930 . S
C2650 C2648 1.384 . S
C2650 C2651 1.372 . S
C2651 C2650 1.372 . S
C2651 C2652 1.400 . S
C2651 C2656 1.490 . S
C2652 H2642 0.930 . S
C2652 C2651 1.400 . S
C2652 C2655 1.386 . S
H2653 C2669 0.930 . S
H2654 C2670 0.931 . S
C2655 H2643 0.929 . S
C2655 C2649 1.390 . S
C2655 C2652 1.386 . S
C2656 C2651 1.490 . S
C2656 C2658 1.395 . S
C2656 C2659 1.403 . S
H2657 C2663 0.930 . S
C2658 H2644 0.930 . S
C2658 C2656 1.395 . S
C2658 C2661 1.403 . S
C2659 C2656 1.403 . S
C2659 C2660 1.524 . S
C2659 C2663 1.400 . S
C2660 H2645 0.960 . S
C2660 H2646 0.960 . S
C2660 H2647 0.960 . S
C2660 C2659 1.524 . S
C2661 C2658 1.403 . S
C2661 C2662 1.392 . S
C2661 C2665 1.495 . S
C2662 C2661 1.392 . S
C2662 C2663 1.385 . S
C2662 C2664 1.478 . S
C2663 H2657 0.930 . S
C2663 C2659 1.400 . S
C2663 C2662 1.385 . S
C2664 C2662 1.478 . S
C2664 C2666 1.381 . S
C2664 C2670 1.383 . S
C2665 C2661 1.495 . S
C2665 H2671 0.959 . S
C2665 H2672 0.961 . S
C2665 H2673 0.960 . S
C2666 C2664 1.381 . S
C2666 C2667 1.394 . S
C2666 H2674 0.930 . S
C2667 C2666 1.394 . S
C2667 C2668 1.383 . S
C2667 H2675 0.929 . S
C2668 C2667 1.383 . S
C2668 C2669 1.377 . S
C2669 H2653 0.930 . S
C2669 C2668 1.377 . S
C2669 C2670 1.379 . S
C2670 H2654 0.931 . S
C2670 C2664 1.383 . S
C2670 C2669 1.379 . S
H2671 C2665 0.959 . S
H2672 C2665 0.961 . S
H2673 C2665 0.960 . S
H2674 C2666 0.930 . S
H2675 C2667 0.929 . S
H2676 C2684 0.929 . S
H2677 C2686 0.930 . S
H2678 C2688 0.930 . S
H2679 C2691 0.929 . S
H2680 C2694 0.930 . S
H2681 C2696 0.960 . S
H2682 C2696 0.960 . S
H2683 C2696 0.960 . S
C2684 H2676 0.929 . S
C2684 C2685 1.377 . S
C2684 C2686 1.384 . S
C2685 C2684 1.377 . S
C2685 C2691 1.390 . S
C2686 H2677 0.930 . S
C2686 C2684 1.384 . S
C2686 C2687 1.372 . S
C2687 C2686 1.372 . S
C2687 C2688 1.400 . S
C2687 C2692 1.490 . S
C2688 H2678 0.930 . S
C2688 C2687 1.400 . S
C2688 C2691 1.386 . S
H2689 C2705 0.930 . S
H2690 C2706 0.931 . S
C2691 H2679 0.929 . S
C2691 C2685 1.390 . S
C2691 C2688 1.386 . S
C2692 C2687 1.490 . S
C2692 C2694 1.395 . S
C2692 C2695 1.403 . S
H2693 C2699 0.930 . S
C2694 H2680 0.930 . S
C2694 C2692 1.395 . S
C2694 C2697 1.403 . S
C2695 C2692 1.403 . S
C2695 C2696 1.524 . S
C2695 C2699 1.400 . S
C2696 H2681 0.960 . S
C2696 H2682 0.960 . S
C2696 H2683 0.960 . S
C2696 C2695 1.524 . S
C2697 C2694 1.403 . S
C2697 C2698 1.392 . S
C2697 C2701 1.495 . S
C2698 C2697 1.392 . S
C2698 C2699 1.385 . S
C2698 C2700 1.478 . S
C2699 H2693 0.930 . S
C2699 C2695 1.400 . S
C2699 C2698 1.385 . S
C2700 C2698 1.478 . S
C2700 C2702 1.381 . S
C2700 C2706 1.383 . S
C2701 C2697 1.495 . S
C2701 H2707 0.959 . S
C2701 H2708 0.961 . S
C2701 H2709 0.960 . S
C2702 C2700 1.381 . S
C2702 C2703 1.394 . S
C2702 H2710 0.930 . S
C2703 C2702 1.394 . S
C2703 C2704 1.383 . S
C2703 H2711 0.929 . S
C2704 C2703 1.383 . S
C2704 C2705 1.377 . S
C2705 H2689 0.930 . S
C2705 C2704 1.377 . S
C2705 C2706 1.379 . S
C2706 H2690 0.931 . S
C2706 C2700 1.383 . S
C2706 C2705 1.379 . S
H2707 C2701 0.959 . S
H2708 C2701 0.961 . S
H2709 C2701 0.960 . S
H2710 C2702 0.930 . S
H2711 C2703 0.929 . S
H2712 C2720 0.929 . S
H2713 C2722 0.930 . S
H2714 C2724 0.930 . S
H2715 C2727 0.929 . S
H2716 C2730 0.930 . S
H2717 C2732 0.960 . S
H2718 C2732 0.960 . S
H2719 C2732 0.960 . S
C2720 H2712 0.929 . S
C2720 C2721 1.377 . S
C2720 C2722 1.384 . S
C2721 C2720 1.377 . S
C2721 C2727 1.390 . S
C2722 H2713 0.930 . S
C2722 C2720 1.384 . S
C2722 C2723 1.372 . S
C2723 C2722 1.372 . S
C2723 C2724 1.400 . S
C2723 C2728 1.490 . S
C2724 H2714 0.930 . S
C2724 C2723 1.400 . S
C2724 C2727 1.386 . S
H2725 C2741 0.930 . S
H2726 C2742 0.931 . S
C2727 H2715 0.929 . S
C2727 C2721 1.390 . S
C2727 C2724 1.386 . S
C2728 C2723 1.490 . S
C2728 C2730 1.395 . S
C2728 C2731 1.403 . S
H2729 C2735 0.930 . S
C2730 H2716 0.930 . S
C2730 C2728 1.395 . S
C2730 C2733 1.403 . S
C2731 C2728 1.403 . S
C2731 C2732 1.524 . S
C2731 C2735 1.400 . S
C2732 H2717 0.960 . S
C2732 H2718 0.960 . S
C2732 H2719 0.960 . S
C2732 C2731 1.524 . S
C2733 C2730 1.403 . S
C2733 C2734 1.392 . S
C2733 C2737 1.495 . S
C2734 C2733 1.392 . S
C2734 C2735 1.385 . S
C2734 C2736 1.478 . S
C2735 H2729 0.930 . S
C2735 C2731 1.400 . S
C2735 C2734 1.385 . S
C2736 C2734 1.478 . S
C2736 C2738 1.381 . S
C2736 C2742 1.383 . S
C2737 C2733 1.495 . S
C2737 H2743 0.959 . S
C2737 H2744 0.961 . S
C2737 H2745 0.960 . S
C2738 C2736 1.381 . S
C2738 C2739 1.394 . S
C2738 H2746 0.930 . S
C2739 C2738 1.394 . S
C2739 C2740 1.383 . S
C2739 H2747 0.929 . S
C2740 C2739 1.383 . S
C2740 C2741 1.377 . S
C2741 H2725 0.930 . S
C2741 C2740 1.377 . S
C2741 C2742 1.379 . S
C2742 H2726 0.931 . S
C2742 C2736 1.383 . S
C2742 C2741 1.379 . S
H2743 C2737 0.959 . S
H2744 C2737 0.961 . S
H2745 C2737 0.960 . S
H2746 C2738 0.930 . S
H2747 C2739 0.929 . S
H2748 C2756 0.929 . S
H2749 C2758 0.930 . S
H2750 C2760 0.930 . S
H2751 C2763 0.929 . S
H2752 C2766 0.930 . S
H2753 C2768 0.960 . S
H2754 C2768 0.960 . S
H2755 C2768 0.960 . S
C2756 H2748 0.929 . S
C2756 C2757 1.377 . S
C2756 C2758 1.384 . S
C2757 C2756 1.377 . S
C2757 C2763 1.390 . S
C2758 H2749 0.930 . S
C2758 C2756 1.384 . S
C2758 C2759 1.372 . S
C2759 C2758 1.372 . S
C2759 C2760 1.400 . S
C2759 C2764 1.490 . S
C2760 H2750 0.930 . S
C2760 C2759 1.400 . S
C2760 C2763 1.386 . S
H2761 C2777 0.930 . S
H2762 C2778 0.931 . S
C2763 H2751 0.929 . S
C2763 C2757 1.390 . S
C2763 C2760 1.386 . S
C2764 C2759 1.490 . S
C2764 C2766 1.395 . S
C2764 C2767 1.403 . S
H2765 C2771 0.930 . S
C2766 H2752 0.930 . S
C2766 C2764 1.395 . S
C2766 C2769 1.403 . S
C2767 C2764 1.403 . S
C2767 C2768 1.524 . S
C2767 C2771 1.400 . S
C2768 H2753 0.960 . S
C2768 H2754 0.960 . S
C2768 H2755 0.960 . S
C2768 C2767 1.524 . S
C2769 C2766 1.403 . S
C2769 C2770 1.392 . S
C2769 C2773 1.495 . S
C2770 C2769 1.392 . S
C2770 C2771 1.385 . S
C2770 C2772 1.478 . S
C2771 H2765 0.930 . S
C2771 C2767 1.400 . S
C2771 C2770 1.385 . S
C2772 C2770 1.478 . S
C2772 C2774 1.381 . S
C2772 C2778 1.383 . S
C2773 C2769 1.495 . S
C2773 H2779 0.959 . S
C2773 H2780 0.961 . S
C2773 H2781 0.960 . S
C2774 C2772 1.381 . S
C2774 C2775 1.394 . S
C2774 H2782 0.930 . S
C2775 C2774 1.394 . S
C2775 C2776 1.383 . S
C2775 H2783 0.929 . S
C2776 C2775 1.383 . S
C2776 C2777 1.377 . S
C2777 H2761 0.930 . S
C2777 C2776 1.377 . S
C2777 C2778 1.379 . S
C2778 H2762 0.931 . S
C2778 C2772 1.383 . S
C2778 C2777 1.379 . S
H2779 C2773 0.959 . S
H2780 C2773 0.961 . S
H2781 C2773 0.960 . S
H2782 C2774 0.930 . S
H2783 C2775 0.929 . S
H2784 C2792 0.929 . S
H2785 C2794 0.930 . S
H2786 C2796 0.930 . S
H2787 C2799 0.929 . S
H2788 C2802 0.930 . S
H2789 C2804 0.960 . S
H2790 C2804 0.960 . S
H2791 C2804 0.960 . S
C2792 H2784 0.929 . S
C2792 C2793 1.377 . S
C2792 C2794 1.384 . S
C2793 C2792 1.377 . S
C2793 C2799 1.390 . S
C2794 H2785 0.930 . S
C2794 C2792 1.384 . S
C2794 C2795 1.372 . S
C2795 C2794 1.372 . S
C2795 C2796 1.400 . S
C2795 C2800 1.490 . S
C2796 H2786 0.930 . S
C2796 C2795 1.400 . S
C2796 C2799 1.386 . S
H2797 C2813 0.930 . S
H2798 C2814 0.931 . S
C2799 H2787 0.929 . S
C2799 C2793 1.390 . S
C2799 C2796 1.386 . S
C2800 C2795 1.490 . S
C2800 C2802 1.395 . S
C2800 C2803 1.403 . S
H2801 C2807 0.930 . S
C2802 H2788 0.930 . S
C2802 C2800 1.395 . S
C2802 C2805 1.403 . S
C2803 C2800 1.403 . S
C2803 C2804 1.524 . S
C2803 C2807 1.400 . S
C2804 H2789 0.960 . S
C2804 H2790 0.960 . S
C2804 H2791 0.960 . S
C2804 C2803 1.524 . S
C2805 C2802 1.403 . S
C2805 C2806 1.392 . S
C2805 C2809 1.495 . S
C2806 C2805 1.392 . S
C2806 C2807 1.385 . S
C2806 C2808 1.478 . S
C2807 H2801 0.930 . S
C2807 C2803 1.400 . S
C2807 C2806 1.385 . S
C2808 C2806 1.478 . S
C2808 C2810 1.381 . S
C2808 C2814 1.383 . S
C2809 C2805 1.495 . S
C2809 H2815 0.959 . S
C2809 H2816 0.961 . S
C2809 H2817 0.960 . S
C2810 C2808 1.381 . S
C2810 C2811 1.394 . S
C2810 H2818 0.930 . S
C2811 C2810 1.394 . S
C2811 C2812 1.383 . S
C2811 H2819 0.929 . S
C2812 C2811 1.383 . S
C2812 C2813 1.377 . S
C2813 H2797 0.930 . S
C2813 C2812 1.377 . S
C2813 C2814 1.379 . S
C2814 H2798 0.931 . S
C2814 C2808 1.383 . S
C2814 C2813 1.379 . S
H2815 C2809 0.959 . S
H2816 C2809 0.961 . S
H2817 C2809 0.960 . S
H2818 C2810 0.930 . S
H2819 C2811 0.929 . S
H2820 C2828 0.929 . S
H2821 C2830 0.930 . S
H2822 C2832 0.930 . S
H2823 C2835 0.929 . S
H2824 C2838 0.930 . S
H2825 C2840 0.960 . S
H2826 C2840 0.960 . S
H2827 C2840 0.960 . S
C2828 H2820 0.929 . S
C2828 C2829 1.377 . S
C2828 C2830 1.384 . S
C2829 C2828 1.377 . S
C2829 C2835 1.390 . S
C2830 H2821 0.930 . S
C2830 C2828 1.384 . S
C2830 C2831 1.372 . S
C2831 C2830 1.372 . S
C2831 C2832 1.400 . S
C2831 C2836 1.490 . S
C2832 H2822 0.930 . S
C2832 C2831 1.400 . S
C2832 C2835 1.386 . S
H2833 C2849 0.930 . S
H2834 C2850 0.931 . S
C2835 H2823 0.929 . S
C2835 C2829 1.390 . S
C2835 C2832 1.386 . S
C2836 C2831 1.490 . S
C2836 C2838 1.395 . S
C2836 C2839 1.403 . S
H2837 C2843 0.930 . S
C2838 H2824 0.930 . S
C2838 C2836 1.395 . S
C2838 C2841 1.403 . S
C2839 C2836 1.403 . S
C2839 C2840 1.524 . S
C2839 C2843 1.400 . S
C2840 H2825 0.960 . S
C2840 H2826 0.960 . S
C2840 H2827 0.960 . S
C2840 C2839 1.524 . S
C2841 C2838 1.403 . S
C2841 C2842 1.392 . S
C2841 C2845 1.495 . S
C2842 C2841 1.392 . S
C2842 C2843 1.385 . S
C2842 C2844 1.478 . S
C2843 H2837 0.930 . S
C2843 C2839 1.400 . S
C2843 C2842 1.385 . S
C2844 C2842 1.478 . S
C2844 C2846 1.381 . S
C2844 C2850 1.383 . S
C2845 C2841 1.495 . S
C2845 H2851 0.959 . S
C2845 H2852 0.961 . S
C2845 H2853 0.960 . S
C2846 C2844 1.381 . S
C2846 C2847 1.394 . S
C2846 H2854 0.930 . S
C2847 C2846 1.394 . S
C2847 C2848 1.383 . S
C2847 H2855 0.929 . S
C2848 C2847 1.383 . S
C2848 C2849 1.377 . S
C2849 H2833 0.930 . S
C2849 C2848 1.377 . S
C2849 C2850 1.379 . S
C2850 H2834 0.931 . S
C2850 C2844 1.383 . S
C2850 C2849 1.379 . S
H2851 C2845 0.959 . S
H2852 C2845 0.961 . S
H2853 C2845 0.960 . S
H2854 C2846 0.930 . S
H2855 C2847 0.929 . S
H2856 C2864 0.929 . S
H2857 C2866 0.930 . S
H2858 C2868 0.930 . S
H2859 C2871 0.929 . S
H2860 C2874 0.930 . S
H2861 C2876 0.960 . S
H2862 C2876 0.960 . S
H2863 C2876 0.960 . S
C2864 H2856 0.929 . S
C2864 C2865 1.377 . S
C2864 C2866 1.384 . S
C2865 C2864 1.377 . S
C2865 C2871 1.390 . S
C2866 H2857 0.930 . S
C2866 C2864 1.384 . S
C2866 C2867 1.372 . S
C2867 C2866 1.372 . S
C2867 C2868 1.400 . S
C2867 C2872 1.490 . S
C2868 H2858 0.930 . S
C2868 C2867 1.400 . S
C2868 C2871 1.386 . S
H2869 C2885 0.930 . S
H2870 C2886 0.931 . S
C2871 H2859 0.929 . S
C2871 C2865 1.390 . S
C2871 C2868 1.386 . S
C2872 C2867 1.490 . S
C2872 C2874 1.395 . S
C2872 C2875 1.403 . S
H2873 C2879 0.930 . S
C2874 H2860 0.930 . S
C2874 C2872 1.395 . S
C2874 C2877 1.403 . S
C2875 C2872 1.403 . S
C2875 C2876 1.524 . S
C2875 C2879 1.400 . S
C2876 H2861 0.960 . S
C2876 H2862 0.960 . S
C2876 H2863 0.960 . S
C2876 C2875 1.524 . S
C2877 C2874 1.403 . S
C2877 C2878 1.392 . S
C2877 C2881 1.495 . S
C2878 C2877 1.392 . S
C2878 C2879 1.385 . S
C2878 C2880 1.478 . S
C2879 H2873 0.930 . S
C2879 C2875 1.400 . S
C2879 C2878 1.385 . S
C2880 C2878 1.478 . S
C2880 C2882 1.381 . S
C2880 C2886 1.383 . S
C2881 C2877 1.495 . S
C2881 H2887 0.959 . S
C2881 H2888 0.961 . S
C2881 H2889 0.960 . S
C2882 C2880 1.381 . S
C2882 C2883 1.394 . S
C2882 H2890 0.930 . S
C2883 C2882 1.394 . S
C2883 C2884 1.383 . S
C2883 H2891 0.929 . S
C2884 C2883 1.383 . S
C2884 C2885 1.377 . S
C2885 H2869 0.930 . S
C2885 C2884 1.377 . S
C2885 C2886 1.379 . S
C2886 H2870 0.931 . S
C2886 C2880 1.383 . S
C2886 C2885 1.379 . S
H2887 C2881 0.959 . S
H2888 C2881 0.961 . S
H2889 C2881 0.960 . S
H2890 C2882 0.930 . S
H2891 C2883 0.929 . S
H2892 C2900 0.929 . S
H2893 C2902 0.930 . S
H2894 C2904 0.930 . S
H2895 C2907 0.929 . S
H2896 C2910 0.930 . S
H2897 C2912 0.960 . S
H2898 C2912 0.960 . S
H2899 C2912 0.960 . S
C2900 H2892 0.929 . S
C2900 C2901 1.377 . S
C2900 C2902 1.384 . S
C2901 C2900 1.377 . S
C2901 C2907 1.390 . S
C2902 H2893 0.930 . S
C2902 C2900 1.384 . S
C2902 C2903 1.372 . S
C2903 C2902 1.372 . S
C2903 C2904 1.400 . S
C2903 C2908 1.490 . S
C2904 H2894 0.930 . S
C2904 C2903 1.400 . S
C2904 C2907 1.386 . S
H2905 C2921 0.930 . S
H2906 C2922 0.931 . S
C2907 H2895 0.929 . S
C2907 C2901 1.390 . S
C2907 C2904 1.386 . S
C2908 C2903 1.490 . S
C2908 C2910 1.395 . S
C2908 C2911 1.403 . S
H2909 C2915 0.930 . S
C2910 H2896 0.930 . S
C2910 C2908 1.395 . S
C2910 C2913 1.403 . S
C2911 C2908 1.403 . S
C2911 C2912 1.524 . S
C2911 C2915 1.400 . S
C2912 H2897 0.960 . S
C2912 H2898 0.960 . S
C2912 H2899 0.960 . S
C2912 C2911 1.524 . S
C2913 C2910 1.403 . S
C2913 C2914 1.392 . S
C2913 C2917 1.495 . S
C2914 C2913 1.392 . S
C2914 C2915 1.385 . S
C2914 C2916 1.478 . S
C2915 H2909 0.930 . S
C2915 C2911 1.400 . S
C2915 C2914 1.385 . S
C2916 C2914 1.478 . S
C2916 C2918 1.381 . S
C2916 C2922 1.383 . S
C2917 C2913 1.495 . S
C2917 H2923 0.959 . S
C2917 H2924 0.961 . S
C2917 H2925 0.960 . S
C2918 C2916 1.381 . S
C2918 C2919 1.394 . S
C2918 H2926 0.930 . S
C2919 C2918 1.394 . S
C2919 C2920 1.383 . S
C2919 H2927 0.929 . S
C2920 C2919 1.383 . S
C2920 C2921 1.377 . S
C2921 H2905 0.930 . S
C2921 C2920 1.377 . S
C2921 C2922 1.379 . S
C2922 H2906 0.931 . S
C2922 C2916 1.383 . S
C2922 C2921 1.379 . S
H2923 C2917 0.959 . S
H2924 C2917 0.961 . S
H2925 C2917 0.960 . S
H2926 C2918 0.930 . S
H2927 C2919 0.929 . S
H2928 C2936 0.929 . S
H2929 C2938 0.930 . S
H2930 C2940 0.930 . S
H2931 C2943 0.929 . S
H2932 C2946 0.930 . S
H2933 C2948 0.960 . S
H2934 C2948 0.960 . S
H2935 C2948 0.960 . S
C2936 H2928 0.929 . S
C2936 C2937 1.377 . S
C2936 C2938 1.384 . S
C2937 C2936 1.377 . S
C2937 C2943 1.390 . S
C2938 H2929 0.930 . S
C2938 C2936 1.384 . S
C2938 C2939 1.372 . S
C2939 C2938 1.372 . S
C2939 C2940 1.400 . S
C2939 C2944 1.490 . S
C2940 H2930 0.930 . S
C2940 C2939 1.400 . S
C2940 C2943 1.386 . S
H2941 C2957 0.930 . S
H2942 C2958 0.931 . S
C2943 H2931 0.929 . S
C2943 C2937 1.390 . S
C2943 C2940 1.386 . S
C2944 C2939 1.490 . S
C2944 C2946 1.395 . S
C2944 C2947 1.403 . S
H2945 C2951 0.930 . S
C2946 H2932 0.930 . S
C2946 C2944 1.395 . S
C2946 C2949 1.403 . S
C2947 C2944 1.403 . S
C2947 C2948 1.524 . S
C2947 C2951 1.400 . S
C2948 H2933 0.960 . S
C2948 H2934 0.960 . S
C2948 H2935 0.960 . S
C2948 C2947 1.524 . S
C2949 C2946 1.403 . S
C2949 C2950 1.392 . S
C2949 C2953 1.495 . S
C2950 C2949 1.392 . S
C2950 C2951 1.385 . S
C2950 C2952 1.478 . S
C2951 H2945 0.930 . S
C2951 C2947 1.400 . S
C2951 C2950 1.385 . S
C2952 C2950 1.478 . S
C2952 C2954 1.381 . S
C2952 C2958 1.383 . S
C2953 C2949 1.495 . S
C2953 H2959 0.959 . S
C2953 H2960 0.961 . S
C2953 H2961 0.960 . S
C2954 C2952 1.381 . S
C2954 C2955 1.394 . S
C2954 H2962 0.930 . S
C2955 C2954 1.394 . S
C2955 C2956 1.383 . S
C2955 H2963 0.929 . S
C2956 C2955 1.383 . S
C2956 C2957 1.377 . S
C2957 H2941 0.930 . S
C2957 C2956 1.377 . S
C2957 C2958 1.379 . S
C2958 H2942 0.931 . S
C2958 C2952 1.383 . S
C2958 C2957 1.379 . S
H2959 C2953 0.959 . S
H2960 C2953 0.961 . S
H2961 C2953 0.960 . S
H2962 C2954 0.930 . S
H2963 C2955 0.929 . S
H2964 C2972 0.929 . S
H2965 C2974 0.930 . S
H2966 C2976 0.930 . S
H2967 C2979 0.929 . S
H2968 C2982 0.930 . S
H2969 C2984 0.960 . S
H2970 C2984 0.960 . S
H2971 C2984 0.960 . S
C2972 H2964 0.929 . S
C2972 C2973 1.377 . S
C2972 C2974 1.384 . S
C2973 C2972 1.377 . S
C2973 C2979 1.390 . S
C2974 H2965 0.930 . S
C2974 C2972 1.384 . S
C2974 C2975 1.372 . S
C2975 C2974 1.372 . S
C2975 C2976 1.400 . S
C2975 C2980 1.490 . S
C2976 H2966 0.930 . S
C2976 C2975 1.400 . S
C2976 C2979 1.386 . S
H2977 C2993 0.930 . S
H2978 C2994 0.931 . S
C2979 H2967 0.929 . S
C2979 C2973 1.390 . S
C2979 C2976 1.386 . S
C2980 C2975 1.490 . S
C2980 C2982 1.395 . S
C2980 C2983 1.403 . S
H2981 C2987 0.930 . S
C2982 H2968 0.930 . S
C2982 C2980 1.395 . S
C2982 C2985 1.403 . S
C2983 C2980 1.403 . S
C2983 C2984 1.524 . S
C2983 C2987 1.400 . S
C2984 H2969 0.960 . S
C2984 H2970 0.960 . S
C2984 H2971 0.960 . S
C2984 C2983 1.524 . S
C2985 C2982 1.403 . S
C2985 C2986 1.392 . S
C2985 C2989 1.495 . S
C2986 C2985 1.392 . S
C2986 C2987 1.385 . S
C2986 C2988 1.478 . S
C2987 H2981 0.930 . S
C2987 C2983 1.400 . S
C2987 C2986 1.385 . S
C2988 C2986 1.478 . S
C2988 C2990 1.381 . S
C2988 C2994 1.383 . S
C2989 C2985 1.495 . S
C2989 H2995 0.959 . S
C2989 H2996 0.961 . S
C2989 H2997 0.960 . S
C2990 C2988 1.381 . S
C2990 C2991 1.394 . S
C2990 H2998 0.930 . S
C2991 C2990 1.394 . S
C2991 C2992 1.383 . S
C2991 H2999 0.929 . S
C2992 C2991 1.383 . S
C2992 C2993 1.377 . S
C2993 H2977 0.930 . S
C2993 C2992 1.377 . S
C2993 C2994 1.379 . S
C2994 H2978 0.931 . S
C2994 C2988 1.383 . S
C2994 C2993 1.379 . S
H2995 C2989 0.959 . S
H2996 C2989 0.961 . S
H2997 C2989 0.960 . S
H2998 C2990 0.930 . S
H2999 C2991 0.929 . S
H3000 C3008 0.929 . S
H3001 C3010 0.930 . S
H3002 C3012 0.930 . S
H3003 C3015 0.929 . S
H3004 C3018 0.930 . S
H3005 C3020 0.960 . S
H3006 C3020 0.960 . S
H3007 C3020 0.960 . S
C3008 H3000 0.929 . S
C3008 C3009 1.377 . S
C3008 C3010 1.384 . S
C3009 C3008 1.377 . S
C3009 C3015 1.390 . S
C3010 H3001 0.930 . S
C3010 C3008 1.384 . S
C3010 C3011 1.372 . S
C3011 C3010 1.372 . S
C3011 C3012 1.400 . S
C3011 C3016 1.490 . S
C3012 H3002 0.930 . S
C3012 C3011 1.400 . S
C3012 C3015 1.386 . S
H3013 C3029 0.930 . S
H3014 C3030 0.931 . S
C3015 H3003 0.929 . S
C3015 C3009 1.390 . S
C3015 C3012 1.386 . S
C3016 C3011 1.490 . S
C3016 C3018 1.395 . S
C3016 C3019 1.403 . S
H3017 C3023 0.930 . S
C3018 H3004 0.930 . S
C3018 C3016 1.395 . S
C3018 C3021 1.403 . S
C3019 C3016 1.403 . S
C3019 C3020 1.524 . S
C3019 C3023 1.400 . S
C3020 H3005 0.960 . S
C3020 H3006 0.960 . S
C3020 H3007 0.960 . S
C3020 C3019 1.524 . S
C3021 C3018 1.403 . S
C3021 C3022 1.392 . S
C3021 C3025 1.495 . S
C3022 C3021 1.392 . S
C3022 C3023 1.385 . S
C3022 C3024 1.478 . S
C3023 H3017 0.930 . S
C3023 C3019 1.400 . S
C3023 C3022 1.385 . S
C3024 C3022 1.478 . S
C3024 C3026 1.381 . S
C3024 C3030 1.383 . S
C3025 C3021 1.495 . S
C3025 H3031 0.959 . S
C3025 H3032 0.961 . S
C3025 H3033 0.960 . S
C3026 C3024 1.381 . S
C3026 C3027 1.394 . S
C3026 H3034 0.930 . S
C3027 C3026 1.394 . S
C3027 C3028 1.383 . S
C3027 H3035 0.929 . S
C3028 C3027 1.383 . S
C3028 C3029 1.377 . S
C3029 H3013 0.930 . S
C3029 C3028 1.377 . S
C3029 C3030 1.379 . S
C3030 H3014 0.931 . S
C3030 C3024 1.383 . S
C3030 C3029 1.379 . S
H3031 C3025 0.959 . S
H3032 C3025 0.961 . S
H3033 C3025 0.960 . S
H3034 C3026 0.930 . S
H3035 C3027 0.929 . S
H3036 C3044 0.929 . S
H3037 C3046 0.930 . S
H3038 C3048 0.930 . S
H3039 C3051 0.929 . S
H3040 C3054 0.930 . S
H3041 C3056 0.960 . S
H3042 C3056 0.960 . S
H3043 C3056 0.960 . S
C3044 H3036 0.929 . S
C3044 C3045 1.377 . S
C3044 C3046 1.384 . S
C3045 C3044 1.377 . S
C3045 C3051 1.390 . S
C3046 H3037 0.930 . S
C3046 C3044 1.384 . S
C3046 C3047 1.372 . S
C3047 C3046 1.372 . S
C3047 C3048 1.400 . S
C3047 C3052 1.490 . S
C3048 H3038 0.930 . S
C3048 C3047 1.400 . S
C3048 C3051 1.386 . S
H3049 C3065 0.930 . S
H3050 C3066 0.931 . S
C3051 H3039 0.929 . S
C3051 C3045 1.390 . S
C3051 C3048 1.386 . S
C3052 C3047 1.490 . S
C3052 C3054 1.395 . S
C3052 C3055 1.403 . S
H3053 C3059 0.930 . S
C3054 H3040 0.930 . S
C3054 C3052 1.395 . S
C3054 C3057 1.403 . S
C3055 C3052 1.403 . S
C3055 C3056 1.524 . S
C3055 C3059 1.400 . S
C3056 H3041 0.960 . S
C3056 H3042 0.960 . S
C3056 H3043 0.960 . S
C3056 C3055 1.524 . S
C3057 C3054 1.403 . S
C3057 C3058 1.392 . S
C3057 C3061 1.495 . S
C3058 C3057 1.392 . S
C3058 C3059 1.385 . S
C3058 C3060 1.478 . S
C3059 H3053 0.930 . S
C3059 C3055 1.400 . S
C3059 C3058 1.385 . S
C3060 C3058 1.478 . S
C3060 C3062 1.381 . S
C3060 C3066 1.383 . S
C3061 C3057 1.495 . S
C3061 H3067 0.959 . S
C3061 H3068 0.961 . S
C3061 H3069 0.960 . S
C3062 C3060 1.381 . S
C3062 C3063 1.394 . S
C3062 H3070 0.930 . S
C3063 C3062 1.394 . S
C3063 C3064 1.383 . S
C3063 H3071 0.929 . S
C3064 C3063 1.383 . S
C3064 C3065 1.377 . S
C3065 H3049 0.930 . S
C3065 C3064 1.377 . S
C3065 C3066 1.379 . S
C3066 H3050 0.931 . S
C3066 C3060 1.383 . S
C3066 C3065 1.379 . S
H3067 C3061 0.959 . S
H3068 C3061 0.961 . S
H3069 C3061 0.960 . S
H3070 C3062 0.930 . S
H3071 C3063 0.929 . S
H3072 C3080 0.929 . S
H3073 C3082 0.930 . S
H3074 C3084 0.930 . S
H3075 C3087 0.929 . S
H3076 C3090 0.930 . S
H3077 C3092 0.960 . S
H3078 C3092 0.960 . S
H3079 C3092 0.960 . S
C3080 H3072 0.929 . S
C3080 C3081 1.377 . S
C3080 C3082 1.384 . S
C3081 C3080 1.377 . S
C3081 C3087 1.390 . S
C3082 H3073 0.930 . S
C3082 C3080 1.384 . S
C3082 C3083 1.372 . S
C3083 C3082 1.372 . S
C3083 C3084 1.400 . S
C3083 C3088 1.490 . S
C3084 H3074 0.930 . S
C3084 C3083 1.400 . S
C3084 C3087 1.386 . S
H3085 C3101 0.930 . S
H3086 C3102 0.931 . S
C3087 H3075 0.929 . S
C3087 C3081 1.390 . S
C3087 C3084 1.386 . S
C3088 C3083 1.490 . S
C3088 C3090 1.395 . S
C3088 C3091 1.403 . S
H3089 C3095 0.930 . S
C3090 H3076 0.930 . S
C3090 C3088 1.395 . S
C3090 C3093 1.403 . S
C3091 C3088 1.403 . S
C3091 C3092 1.524 . S
C3091 C3095 1.400 . S
C3092 H3077 0.960 . S
C3092 H3078 0.960 . S
C3092 H3079 0.960 . S
C3092 C3091 1.524 . S
C3093 C3090 1.403 . S
C3093 C3094 1.392 . S
C3093 C3097 1.495 . S
C3094 C3093 1.392 . S
C3094 C3095 1.385 . S
C3094 C3096 1.478 . S
C3095 H3089 0.930 . S
C3095 C3091 1.400 . S
C3095 C3094 1.385 . S
C3096 C3094 1.478 . S
C3096 C3098 1.381 . S
C3096 C3102 1.383 . S
C3097 C3093 1.495 . S
C3097 H3103 0.959 . S
C3097 H3104 0.961 . S
C3097 H3105 0.960 . S
C3098 C3096 1.381 . S
C3098 C3099 1.394 . S
C3098 H3106 0.930 . S
C3099 C3098 1.394 . S
C3099 C3100 1.383 . S
C3099 H3107 0.929 . S
C3100 C3099 1.383 . S
C3100 C3101 1.377 . S
C3101 H3085 0.930 . S
C3101 C3100 1.377 . S
C3101 C3102 1.379 . S
C3102 H3086 0.931 . S
C3102 C3096 1.383 . S
C3102 C3101 1.379 . S
H3103 C3097 0.959 . S
H3104 C3097 0.961 . S
H3105 C3097 0.960 . S
H3106 C3098 0.930 . S
H3107 C3099 0.929 . S
H3108 C3116 0.929 . S
H3109 C3118 0.930 . S
H3110 C3120 0.930 . S
H3111 C3123 0.929 . S
H3112 C3126 0.930 . S
H3113 C3128 0.960 . S
H3114 C3128 0.960 . S
H3115 C3128 0.960 . S
C3116 H3108 0.929 . S
C3116 C3117 1.377 . S
C3116 C3118 1.384 . S
C3117 C3116 1.377 . S
C3117 C3123 1.390 . S
C3118 H3109 0.930 . S
C3118 C3116 1.384 . S
C3118 C3119 1.372 . S
C3119 C3118 1.372 . S
C3119 C3120 1.400 . S
C3119 C3124 1.490 . S
C3120 H3110 0.930 . S
C3120 C3119 1.400 . S
C3120 C3123 1.386 . S
H3121 C3137 0.930 . S
H3122 C3138 0.931 . S
C3123 H3111 0.929 . S
C3123 C3117 1.390 . S
C3123 C3120 1.386 . S
C3124 C3119 1.490 . S
C3124 C3126 1.395 . S
C3124 C3127 1.403 . S
H3125 C3131 0.930 . S
C3126 H3112 0.930 . S
C3126 C3124 1.395 . S
C3126 C3129 1.403 . S
C3127 C3124 1.403 . S
C3127 C3128 1.524 . S
C3127 C3131 1.400 . S
C3128 H3113 0.960 . S
C3128 H3114 0.960 . S
C3128 H3115 0.960 . S
C3128 C3127 1.524 . S
C3129 C3126 1.403 . S
C3129 C3130 1.392 . S
C3129 C3133 1.495 . S
C3130 C3129 1.392 . S
C3130 C3131 1.385 . S
C3130 C3132 1.478 . S
C3131 H3125 0.930 . S
C3131 C3127 1.400 . S
C3131 C3130 1.385 . S
C3132 C3130 1.478 . S
C3132 C3134 1.381 . S
C3132 C3138 1.383 . S
C3133 C3129 1.495 . S
C3133 H3139 0.959 . S
C3133 H3140 0.961 . S
C3133 H3141 0.960 . S
C3134 C3132 1.381 . S
C3134 C3135 1.394 . S
C3134 H3142 0.930 . S
C3135 C3134 1.394 . S
C3135 C3136 1.383 . S
C3135 H3143 0.929 . S
C3136 C3135 1.383 . S
C3136 C3137 1.377 . S
C3137 H3121 0.930 . S
C3137 C3136 1.377 . S
C3137 C3138 1.379 . S
C3138 H3122 0.931 . S
C3138 C3132 1.383 . S
C3138 C3137 1.379 . S
H3139 C3133 0.959 . S
H3140 C3133 0.961 . S
H3141 C3133 0.960 . S
H3142 C3134 0.930 . S
H3143 C3135 0.929 . S
H3144 C3152 0.929 . S
H3145 C3154 0.930 . S
H3146 C3156 0.930 . S
H3147 C3159 0.929 . S
H3148 C3162 0.930 . S
H3149 C3164 0.960 . S
H3150 C3164 0.960 . S
H3151 C3164 0.960 . S
C3152 H3144 0.929 . S
C3152 C3153 1.377 . S
C3152 C3154 1.384 . S
C3153 C3152 1.377 . S
C3153 C3159 1.390 . S
C3154 H3145 0.930 . S
C3154 C3152 1.384 . S
C3154 C3155 1.372 . S
C3155 C3154 1.372 . S
C3155 C3156 1.400 . S
C3155 C3160 1.490 . S
C3156 H3146 0.930 . S
C3156 C3155 1.400 . S
C3156 C3159 1.386 . S
H3157 C3173 0.930 . S
H3158 C3174 0.931 . S
C3159 H3147 0.929 . S
C3159 C3153 1.390 . S
C3159 C3156 1.386 . S
C3160 C3155 1.490 . S
C3160 C3162 1.395 . S
C3160 C3163 1.403 . S
H3161 C3167 0.930 . S
C3162 H3148 0.930 . S
C3162 C3160 1.395 . S
C3162 C3165 1.403 . S
C3163 C3160 1.403 . S
C3163 C3164 1.524 . S
C3163 C3167 1.400 . S
C3164 H3149 0.960 . S
C3164 H3150 0.960 . S
C3164 H3151 0.960 . S
C3164 C3163 1.524 . S
C3165 C3162 1.403 . S
C3165 C3166 1.392 . S
C3165 C3169 1.495 . S
C3166 C3165 1.392 . S
C3166 C3167 1.385 . S
C3166 C3168 1.478 . S
C3167 H3161 0.930 . S
C3167 C3163 1.400 . S
C3167 C3166 1.385 . S
C3168 C3166 1.478 . S
C3168 C3170 1.381 . S
C3168 C3174 1.383 . S
C3169 C3165 1.495 . S
C3169 H3175 0.959 . S
C3169 H3176 0.961 . S
C3169 H3177 0.960 . S
C3170 C3168 1.381 . S
C3170 C3171 1.394 . S
C3170 H3178 0.930 . S
C3171 C3170 1.394 . S
C3171 C3172 1.383 . S
C3171 H3179 0.929 . S
C3172 C3171 1.383 . S
C3172 C3173 1.377 . S
C3173 H3157 0.930 . S
C3173 C3172 1.377 . S
C3173 C3174 1.379 . S
C3174 H3158 0.931 . S
C3174 C3168 1.383 . S
C3174 C3173 1.379 . S
H3175 C3169 0.959 . S
H3176 C3169 0.961 . S
H3177 C3169 0.960 . S
H3178 C3170 0.930 . S
H3179 C3171 0.929 . S
H3180 C3188 0.929 . S
H3181 C3190 0.930 . S
H3182 C3192 0.930 . S
H3183 C3195 0.929 . S
H3184 C3198 0.930 . S
H3185 C3200 0.960 . S
H3186 C3200 0.960 . S
H3187 C3200 0.960 . S
C3188 H3180 0.929 . S
C3188 C3189 1.377 . S
C3188 C3190 1.384 . S
C3189 C3188 1.377 . S
C3189 C3195 1.390 . S
C3190 H3181 0.930 . S
C3190 C3188 1.384 . S
C3190 C3191 1.372 . S
C3191 C3190 1.372 . S
C3191 C3192 1.400 . S
C3191 C3196 1.490 . S
C3192 H3182 0.930 . S
C3192 C3191 1.400 . S
C3192 C3195 1.386 . S
H3193 C3209 0.930 . S
H3194 C3210 0.931 . S
C3195 H3183 0.929 . S
C3195 C3189 1.390 . S
C3195 C3192 1.386 . S
C3196 C3191 1.490 . S
C3196 C3198 1.395 . S
C3196 C3199 1.403 . S
H3197 C3203 0.930 . S
C3198 H3184 0.930 . S
C3198 C3196 1.395 . S
C3198 C3201 1.403 . S
C3199 C3196 1.403 . S
C3199 C3200 1.524 . S
C3199 C3203 1.400 . S
C3200 H3185 0.960 . S
C3200 H3186 0.960 . S
C3200 H3187 0.960 . S
C3200 C3199 1.524 . S
C3201 C3198 1.403 . S
C3201 C3202 1.392 . S
C3201 C3205 1.495 . S
C3202 C3201 1.392 . S
C3202 C3203 1.385 . S
C3202 C3204 1.478 . S
C3203 H3197 0.930 . S
C3203 C3199 1.400 . S
C3203 C3202 1.385 . S
C3204 C3202 1.478 . S
C3204 C3206 1.381 . S
C3204 C3210 1.383 . S
C3205 C3201 1.495 . S
C3205 H3211 0.959 . S
C3205 H3212 0.961 . S
C3205 H3213 0.960 . S
C3206 C3204 1.381 . S
C3206 C3207 1.394 . S
C3206 H3214 0.930 . S
C3207 C3206 1.394 . S
C3207 C3208 1.383 . S
C3207 H3215 0.929 . S
C3208 C3207 1.383 . S
C3208 C3209 1.377 . S
C3209 H3193 0.930 . S
C3209 C3208 1.377 . S
C3209 C3210 1.379 . S
C3210 H3194 0.931 . S
C3210 C3204 1.383 . S
C3210 C3209 1.379 . S
H3211 C3205 0.959 . S
H3212 C3205 0.961 . S
H3213 C3205 0.960 . S
H3214 C3206 0.930 . S
H3215 C3207 0.929 . S
H3216 C3224 0.929 . S
H3217 C3226 0.930 . S
H3218 C3228 0.930 . S
H3219 C3231 0.929 . S
H3220 C3234 0.930 . S
H3221 C3236 0.960 . S
H3222 C3236 0.960 . S
H3223 C3236 0.960 . S
C3224 H3216 0.929 . S
C3224 C3225 1.377 . S
C3224 C3226 1.384 . S
C3225 C3224 1.377 . S
C3225 C3231 1.390 . S
C3226 H3217 0.930 . S
C3226 C3224 1.384 . S
C3226 C3227 1.372 . S
C3227 C3226 1.372 . S
C3227 C3228 1.400 . S
C3227 C3232 1.490 . S
C3228 H3218 0.930 . S
C3228 C3227 1.400 . S
C3228 C3231 1.386 . S
H3229 C3245 0.930 . S
H3230 C3246 0.931 . S
C3231 H3219 0.929 . S
C3231 C3225 1.390 . S
C3231 C3228 1.386 . S
C3232 C3227 1.490 . S
C3232 C3234 1.395 . S
C3232 C3235 1.403 . S
H3233 C3239 0.930 . S
C3234 H3220 0.930 . S
C3234 C3232 1.395 . S
C3234 C3237 1.403 . S
C3235 C3232 1.403 . S
C3235 C3236 1.524 . S
C3235 C3239 1.400 . S
C3236 H3221 0.960 . S
C3236 H3222 0.960 . S
C3236 H3223 0.960 . S
C3236 C3235 1.524 . S
C3237 C3234 1.403 . S
C3237 C3238 1.392 . S
C3237 C3241 1.495 . S
C3238 C3237 1.392 . S
C3238 C3239 1.385 . S
C3238 C3240 1.478 . S
C3239 H3233 0.930 . S
C3239 C3235 1.400 . S
C3239 C3238 1.385 . S
C3240 C3238 1.478 . S
C3240 C3242 1.381 . S
C3240 C3246 1.383 . S
C3241 C3237 1.495 . S
C3241 H3247 0.959 . S
C3241 H3248 0.961 . S
C3241 H3249 0.960 . S
C3242 C3240 1.381 . S
C3242 C3243 1.394 . S
C3242 H3250 0.930 . S
C3243 C3242 1.394 . S
C3243 C3244 1.383 . S
C3243 H3251 0.929 . S
C3244 C3243 1.383 . S
C3244 C3245 1.377 . S
C3245 H3229 0.930 . S
C3245 C3244 1.377 . S
C3245 C3246 1.379 . S
C3246 H3230 0.931 . S
C3246 C3240 1.383 . S
C3246 C3245 1.379 . S
H3247 C3241 0.959 . S
H3248 C3241 0.961 . S
H3249 C3241 0.960 . S
H3250 C3242 0.930 . S
H3251 C3243 0.929 . S
H3252 C3260 0.929 . S
H3253 C3262 0.930 . S
H3254 C3264 0.930 . S
H3255 C3267 0.929 . S
H3256 C3270 0.930 . S
H3257 C3272 0.960 . S
H3258 C3272 0.960 . S
H3259 C3272 0.960 . S
C3260 H3252 0.929 . S
C3260 C3261 1.377 . S
C3260 C3262 1.384 . S
C3261 C3260 1.377 . S
C3261 C3267 1.390 . S
C3262 H3253 0.930 . S
C3262 C3260 1.384 . S
C3262 C3263 1.372 . S
C3263 C3262 1.372 . S
C3263 C3264 1.400 . S
C3263 C3268 1.490 . S
C3264 H3254 0.930 . S
C3264 C3263 1.400 . S
C3264 C3267 1.386 . S
H3265 C3281 0.930 . S
H3266 C3282 0.931 . S
C3267 H3255 0.929 . S
C3267 C3261 1.390 . S
C3267 C3264 1.386 . S
C3268 C3263 1.490 . S
C3268 C3270 1.395 . S
C3268 C3271 1.403 . S
H3269 C3275 0.930 . S
C3270 H3256 0.930 . S
C3270 C3268 1.395 . S
C3270 C3273 1.403 . S
C3271 C3268 1.403 . S
C3271 C3272 1.524 . S
C3271 C3275 1.400 . S
C3272 H3257 0.960 . S
C3272 H3258 0.960 . S
C3272 H3259 0.960 . S
C3272 C3271 1.524 . S
C3273 C3270 1.403 . S
C3273 C3274 1.392 . S
C3273 C3277 1.495 . S
C3274 C3273 1.392 . S
C3274 C3275 1.385 . S
C3274 C3276 1.478 . S
C3275 H3269 0.930 . S
C3275 C3271 1.400 . S
C3275 C3274 1.385 . S
C3276 C3274 1.478 . S
C3276 C3278 1.381 . S
C3276 C3282 1.383 . S
C3277 C3273 1.495 . S
C3277 H3283 0.959 . S
C3277 H3284 0.961 . S
C3277 H3285 0.960 . S
C3278 C3276 1.381 . S
C3278 C3279 1.394 . S
C3278 H3286 0.930 . S
C3279 C3278 1.394 . S
C3279 C3280 1.383 . S
C3279 H3287 0.929 . S
C3280 C3279 1.383 . S
C3280 C3281 1.377 . S
C3281 H3265 0.930 . S
C3281 C3280 1.377 . S
C3281 C3282 1.379 . S
C3282 H3266 0.931 . S
C3282 C3276 1.383 . S
C3282 C3281 1.379 . S
H3283 C3277 0.959 . S
H3284 C3277 0.961 . S
H3285 C3277 0.960 . S
H3286 C3278 0.930 . S
H3287 C3279 0.929 . S
H3288 C3296 0.929 . S
H3289 C3298 0.930 . S
H3290 C3300 0.930 . S
H3291 C3303 0.929 . S
H3292 C3306 0.930 . S
H3293 C3308 0.960 . S
H3294 C3308 0.960 . S
H3295 C3308 0.960 . S
C3296 H3288 0.929 . S
C3296 C3297 1.377 . S
C3296 C3298 1.384 . S
C3297 C3296 1.377 . S
C3297 C3303 1.390 . S
C3298 H3289 0.930 . S
C3298 C3296 1.384 . S
C3298 C3299 1.372 . S
C3299 C3298 1.372 . S
C3299 C3300 1.400 . S
C3299 C3304 1.490 . S
C3300 H3290 0.930 . S
C3300 C3299 1.400 . S
C3300 C3303 1.386 . S
H3301 C3317 0.930 . S
H3302 C3318 0.931 . S
C3303 H3291 0.929 . S
C3303 C3297 1.390 . S
C3303 C3300 1.386 . S
C3304 C3299 1.490 . S
C3304 C3306 1.395 . S
C3304 C3307 1.403 . S
H3305 C3311 0.930 . S
C3306 H3292 0.930 . S
C3306 C3304 1.395 . S
C3306 C3309 1.403 . S
C3307 C3304 1.403 . S
C3307 C3308 1.524 . S
C3307 C3311 1.400 . S
C3308 H3293 0.960 . S
C3308 H3294 0.960 . S
C3308 H3295 0.960 . S
C3308 C3307 1.524 . S
C3309 C3306 1.403 . S
C3309 C3310 1.392 . S
C3309 C3313 1.495 . S
C3310 C3309 1.392 . S
C3310 C3311 1.385 . S
C3310 C3312 1.478 . S
C3311 H3305 0.930 . S
C3311 C3307 1.400 . S
C3311 C3310 1.385 . S
C3312 C3310 1.478 . S
C3312 C3314 1.381 . S
C3312 C3318 1.383 . S
C3313 C3309 1.495 . S
C3313 H3319 0.959 . S
C3313 H3320 0.961 . S
C3313 H3321 0.960 . S
C3314 C3312 1.381 . S
C3314 C3315 1.394 . S
C3314 H3322 0.930 . S
C3315 C3314 1.394 . S
C3315 C3316 1.383 . S
C3315 H3323 0.929 . S
C3316 C3315 1.383 . S
C3316 C3317 1.377 . S
C3317 H3301 0.930 . S
C3317 C3316 1.377 . S
C3317 C3318 1.379 . S
C3318 H3302 0.931 . S
C3318 C3312 1.383 . S
C3318 C3317 1.379 . S
H3319 C3313 0.959 . S
H3320 C3313 0.961 . S
H3321 C3313 0.960 . S
H3322 C3314 0.930 . S
H3323 C3315 0.929 . S
H3324 C3332 0.929 . S
H3325 C3334 0.930 . S
H3326 C3336 0.930 . S
H3327 C3339 0.929 . S
H3328 C3342 0.930 . S
H3329 C3344 0.960 . S
H3330 C3344 0.960 . S
H3331 C3344 0.960 . S
C3332 H3324 0.929 . S
C3332 C3333 1.377 . S
C3332 C3334 1.384 . S
C3333 C3332 1.377 . S
C3333 C3339 1.390 . S
C3334 H3325 0.930 . S
C3334 C3332 1.384 . S
C3334 C3335 1.372 . S
C3335 C3334 1.372 . S
C3335 C3336 1.400 . S
C3335 C3340 1.490 . S
C3336 H3326 0.930 . S
C3336 C3335 1.400 . S
C3336 C3339 1.386 . S
H3337 C3353 0.930 . S
H3338 C3354 0.931 . S
C3339 H3327 0.929 . S
C3339 C3333 1.390 . S
C3339 C3336 1.386 . S
C3340 C3335 1.490 . S
C3340 C3342 1.395 . S
C3340 C3343 1.403 . S
H3341 C3347 0.930 . S
C3342 H3328 0.930 . S
C3342 C3340 1.395 . S
C3342 C3345 1.403 . S
C3343 C3340 1.403 . S
C3343 C3344 1.524 . S
C3343 C3347 1.400 . S
C3344 H3329 0.960 . S
C3344 H3330 0.960 . S
C3344 H3331 0.960 . S
C3344 C3343 1.524 . S
C3345 C3342 1.403 . S
C3345 C3346 1.392 . S
C3345 C3349 1.495 . S
C3346 C3345 1.392 . S
C3346 C3347 1.385 . S
C3346 C3348 1.478 . S
C3347 H3341 0.930 . S
C3347 C3343 1.400 . S
C3347 C3346 1.385 . S
C3348 C3346 1.478 . S
C3348 C3350 1.381 . S
C3348 C3354 1.383 . S
C3349 C3345 1.495 . S
C3349 H3355 0.959 . S
C3349 H3356 0.961 . S
C3349 H3357 0.960 . S
C3350 C3348 1.381 . S
C3350 C3351 1.394 . S
C3350 H3358 0.930 . S
C3351 C3350 1.394 . S
C3351 C3352 1.383 . S
C3351 H3359 0.929 . S
C3352 C3351 1.383 . S
C3352 C3353 1.377 . S
C3353 H3337 0.930 . S
C3353 C3352 1.377 . S
C3353 C3354 1.379 . S
C3354 H3338 0.931 . S
C3354 C3348 1.383 . S
C3354 C3353 1.379 . S
H3355 C3349 0.959 . S
H3356 C3349 0.961 . S
H3357 C3349 0.960 . S
H3358 C3350 0.930 . S
H3359 C3351 0.929 . S
H3360 C3368 0.929 . S
H3361 C3370 0.930 . S
H3362 C3372 0.930 . S
H3363 C3375 0.929 . S
H3364 C3378 0.930 . S
H3365 C3380 0.960 . S
H3366 C3380 0.960 . S
H3367 C3380 0.960 . S
C3368 H3360 0.929 . S
C3368 C3369 1.377 . S
C3368 C3370 1.384 . S
C3369 C3368 1.377 . S
C3369 C3375 1.390 . S
C3370 H3361 0.930 . S
C3370 C3368 1.384 . S
C3370 C3371 1.372 . S
C3371 C3370 1.372 . S
C3371 C3372 1.400 . S
C3371 C3376 1.490 . S
C3372 H3362 0.930 . S
C3372 C3371 1.400 . S
C3372 C3375 1.386 . S
H3373 C3389 0.930 . S
H3374 C3390 0.931 . S
C3375 H3363 0.929 . S
C3375 C3369 1.390 . S
C3375 C3372 1.386 . S
C3376 C3371 1.490 . S
C3376 C3378 1.395 . S
C3376 C3379 1.403 . S
H3377 C3383 0.930 . S
C3378 H3364 0.930 . S
C3378 C3376 1.395 . S
C3378 C3381 1.403 . S
C3379 C3376 1.403 . S
C3379 C3380 1.524 . S
C3379 C3383 1.400 . S
C3380 H3365 0.960 . S
C3380 H3366 0.960 . S
C3380 H3367 0.960 . S
C3380 C3379 1.524 . S
C3381 C3378 1.403 . S
C3381 C3382 1.392 . S
C3381 C3385 1.495 . S
C3382 C3381 1.392 . S
C3382 C3383 1.385 . S
C3382 C3384 1.478 . S
C3383 H3377 0.930 . S
C3383 C3379 1.400 . S
C3383 C3382 1.385 . S
C3384 C3382 1.478 . S
C3384 C3386 1.381 . S
C3384 C3390 1.383 . S
C3385 C3381 1.495 . S
C3385 H3391 0.959 . S
C3385 H3392 0.961 . S
C3385 H3393 0.960 . S
C3386 C3384 1.381 . S
C3386 C3387 1.394 . S
C3386 H3394 0.930 . S
C3387 C3386 1.394 . S
C3387 C3388 1.383 . S
C3387 H3395 0.929 . S
C3388 C3387 1.383 . S
C3388 C3389 1.377 . S
C3389 H3373 0.930 . S
C3389 C3388 1.377 . S
C3389 C3390 1.379 . S
C3390 H3374 0.931 . S
C3390 C3384 1.383 . S
C3390 C3389 1.379 . S
H3391 C3385 0.959 . S
H3392 C3385 0.961 . S
H3393 C3385 0.960 . S
H3394 C3386 0.930 . S
H3395 C3387 0.929 . S
H3396 C3404 0.929 . S
H3397 C3406 0.930 . S
H3398 C3408 0.930 . S
H3399 C3411 0.929 . S
H3400 C3414 0.930 . S
H3401 C3416 0.960 . S
H3402 C3416 0.960 . S
H3403 C3416 0.960 . S
C3404 H3396 0.929 . S
C3404 C3405 1.377 . S
C3404 C3406 1.384 . S
C3405 C3404 1.377 . S
C3405 C3411 1.390 . S
C3406 H3397 0.930 . S
C3406 C3404 1.384 . S
C3406 C3407 1.372 . S
C3407 C3406 1.372 . S
C3407 C3408 1.400 . S
C3407 C3412 1.490 . S
C3408 H3398 0.930 . S
C3408 C3407 1.400 . S
C3408 C3411 1.386 . S
H3409 C3425 0.930 . S
H3410 C3426 0.931 . S
C3411 H3399 0.929 . S
C3411 C3405 1.390 . S
C3411 C3408 1.386 . S
C3412 C3407 1.490 . S
C3412 C3414 1.395 . S
C3412 C3415 1.403 . S
H3413 C3419 0.930 . S
C3414 H3400 0.930 . S
C3414 C3412 1.395 . S
C3414 C3417 1.403 . S
C3415 C3412 1.403 . S
C3415 C3416 1.524 . S
C3415 C3419 1.400 . S
C3416 H3401 0.960 . S
C3416 H3402 0.960 . S
C3416 H3403 0.960 . S
C3416 C3415 1.524 . S
C3417 C3414 1.403 . S
C3417 C3418 1.392 . S
C3417 C3421 1.495 . S
C3418 C3417 1.392 . S
C3418 C3419 1.385 . S
C3418 C3420 1.478 . S
C3419 H3413 0.930 . S
C3419 C3415 1.400 . S
C3419 C3418 1.385 . S
C3420 C3418 1.478 . S
C3420 C3422 1.381 . S
C3420 C3426 1.383 . S
C3421 C3417 1.495 . S
C3421 H3427 0.959 . S
C3421 H3428 0.961 . S
C3421 H3429 0.960 . S
C3422 C3420 1.381 . S
C3422 C3423 1.394 . S
C3422 H3430 0.930 . S
C3423 C3422 1.394 . S
C3423 C3424 1.383 . S
C3423 H3431 0.929 . S
C3424 C3423 1.383 . S
C3424 C3425 1.377 . S
C3425 H3409 0.930 . S
C3425 C3424 1.377 . S
C3425 C3426 1.379 . S
C3426 H3410 0.931 . S
C3426 C3420 1.383 . S
C3426 C3425 1.379 . S
H3427 C3421 0.959 . S
H3428 C3421 0.961 . S
H3429 C3421 0.960 . S
H3430 C3422 0.930 . S
H3431 C3423 0.929 . S
H3432 C3440 0.929 . S
H3433 C3442 0.930 . S
H3434 C3444 0.930 . S
H3435 C3447 0.929 . S
H3436 C3450 0.930 . S
H3437 C3452 0.960 . S
H3438 C3452 0.960 . S
H3439 C3452 0.960 . S
C3440 H3432 0.929 . S
C3440 C3441 1.377 . S
C3440 C3442 1.384 . S
C3441 C3440 1.377 . S
C3441 C3447 1.390 . S
C3442 H3433 0.930 . S
C3442 C3440 1.384 . S
C3442 C3443 1.372 . S
C3443 C3442 1.372 . S
C3443 C3444 1.400 . S
C3443 C3448 1.490 . S
C3444 H3434 0.930 . S
C3444 C3443 1.400 . S
C3444 C3447 1.386 . S
H3445 C3461 0.930 . S
H3446 C3462 0.931 . S
C3447 H3435 0.929 . S
C3447 C3441 1.390 . S
C3447 C3444 1.386 . S
C3448 C3443 1.490 . S
C3448 C3450 1.395 . S
C3448 C3451 1.403 . S
H3449 C3455 0.930 . S
C3450 H3436 0.930 . S
C3450 C3448 1.395 . S
C3450 C3453 1.403 . S
C3451 C3448 1.403 . S
C3451 C3452 1.524 . S
C3451 C3455 1.400 . S
C3452 H3437 0.960 . S
C3452 H3438 0.960 . S
C3452 H3439 0.960 . S
C3452 C3451 1.524 . S
C3453 C3450 1.403 . S
C3453 C3454 1.392 . S
C3453 C3457 1.495 . S
C3454 C3453 1.392 . S
C3454 C3455 1.385 . S
C3454 C3456 1.478 . S
C3455 H3449 0.930 . S
C3455 C3451 1.400 . S
C3455 C3454 1.385 . S
C3456 C3454 1.478 . S
C3456 C3458 1.381 . S
C3456 C3462 1.383 . S
C3457 C3453 1.495 . S
C3457 H3463 0.959 . S
C3457 H3464 0.961 . S
C3457 H3465 0.960 . S
C3458 C3456 1.381 . S
C3458 C3459 1.394 . S
C3458 H3466 0.930 . S
C3459 C3458 1.394 . S
C3459 C3460 1.383 . S
C3459 H3467 0.929 . S
C3460 C3459 1.383 . S
C3460 C3461 1.377 . S
C3461 H3445 0.930 . S
C3461 C3460 1.377 . S
C3461 C3462 1.379 . S
C3462 H3446 0.931 . S
C3462 C3456 1.383 . S
C3462 C3461 1.379 . S
H3463 C3457 0.959 . S
H3464 C3457 0.961 . S
H3465 C3457 0.960 . S
H3466 C3458 0.930 . S
H3467 C3459 0.929 . S
H3468 C3476 0.929 . S
H3469 C3478 0.930 . S
H3470 C3480 0.930 . S
H3471 C3483 0.929 . S
H3472 C3486 0.930 . S
H3473 C3488 0.960 . S
H3474 C3488 0.960 . S
H3475 C3488 0.960 . S
C3476 H3468 0.929 . S
C3476 C3477 1.377 . S
C3476 C3478 1.384 . S
C3477 C3476 1.377 . S
C3477 C3483 1.390 . S
C3478 H3469 0.930 . S
C3478 C3476 1.384 . S
C3478 C3479 1.372 . S
C3479 C3478 1.372 . S
C3479 C3480 1.400 . S
C3479 C3484 1.490 . S
C3480 H3470 0.930 . S
C3480 C3479 1.400 . S
C3480 C3483 1.386 . S
H3481 C3497 0.930 . S
H3482 C3498 0.931 . S
C3483 H3471 0.929 . S
C3483 C3477 1.390 . S
C3483 C3480 1.386 . S
C3484 C3479 1.490 . S
C3484 C3486 1.395 . S
C3484 C3487 1.403 . S
H3485 C3491 0.930 . S
C3486 H3472 0.930 . S
C3486 C3484 1.395 . S
C3486 C3489 1.403 . S
C3487 C3484 1.403 . S
C3487 C3488 1.524 . S
C3487 C3491 1.400 . S
C3488 H3473 0.960 . S
C3488 H3474 0.960 . S
C3488 H3475 0.960 . S
C3488 C3487 1.524 . S
C3489 C3486 1.403 . S
C3489 C3490 1.392 . S
C3489 C3493 1.495 . S
C3490 C3489 1.392 . S
C3490 C3491 1.385 . S
C3490 C3492 1.478 . S
C3491 H3485 0.930 . S
C3491 C3487 1.400 . S
C3491 C3490 1.385 . S
C3492 C3490 1.478 . S
C3492 C3494 1.381 . S
C3492 C3498 1.383 . S
C3493 C3489 1.495 . S
C3493 H3499 0.959 . S
C3493 H3500 0.961 . S
C3493 H3501 0.960 . S
C3494 C3492 1.381 . S
C3494 C3495 1.394 . S
C3494 H3502 0.930 . S
C3495 C3494 1.394 . S
C3495 C3496 1.383 . S
C3495 H3503 0.929 . S
C3496 C3495 1.383 . S
C3496 C3497 1.377 . S
C3497 H3481 0.930 . S
C3497 C3496 1.377 . S
C3497 C3498 1.379 . S
C3498 H3482 0.931 . S
C3498 C3492 1.383 . S
C3498 C3497 1.379 . S
H3499 C3493 0.959 . S
H3500 C3493 0.961 . S
H3501 C3493 0.960 . S
H3502 C3494 0.930 . S
H3503 C3495 0.929 . S
H3504 C3512 0.929 . S
H3505 C3514 0.930 . S
H3506 C3516 0.930 . S
H3507 C3519 0.929 . S
H3508 C3522 0.930 . S
H3509 C3524 0.960 . S
H3510 C3524 0.960 . S
H3511 C3524 0.960 . S
C3512 H3504 0.929 . S
C3512 C3513 1.377 . S
C3512 C3514 1.384 . S
C3513 C3512 1.377 . S
C3513 C3519 1.390 . S
C3514 H3505 0.930 . S
C3514 C3512 1.384 . S
C3514 C3515 1.372 . S
C3515 C3514 1.372 . S
C3515 C3516 1.400 . S
C3515 C3520 1.490 . S
C3516 H3506 0.930 . S
C3516 C3515 1.400 . S
C3516 C3519 1.386 . S
H3517 C3533 0.930 . S
H3518 C3534 0.931 . S
C3519 H3507 0.929 . S
C3519 C3513 1.390 . S
C3519 C3516 1.386 . S
C3520 C3515 1.490 . S
C3520 C3522 1.395 . S
C3520 C3523 1.403 . S
H3521 C3527 0.930 . S
C3522 H3508 0.930 . S
C3522 C3520 1.395 . S
C3522 C3525 1.403 . S
C3523 C3520 1.403 . S
C3523 C3524 1.524 . S
C3523 C3527 1.400 . S
C3524 H3509 0.960 . S
C3524 H3510 0.960 . S
C3524 H3511 0.960 . S
C3524 C3523 1.524 . S
C3525 C3522 1.403 . S
C3525 C3526 1.392 . S
C3525 C3529 1.495 . S
C3526 C3525 1.392 . S
C3526 C3527 1.385 . S
C3526 C3528 1.478 . S
C3527 H3521 0.930 . S
C3527 C3523 1.400 . S
C3527 C3526 1.385 . S
C3528 C3526 1.478 . S
C3528 C3530 1.381 . S
C3528 C3534 1.383 . S
C3529 C3525 1.495 . S
C3529 H3535 0.959 . S
C3529 H3536 0.961 . S
C3529 H3537 0.960 . S
C3530 C3528 1.381 . S
C3530 C3531 1.394 . S
C3530 H3538 0.930 . S
C3531 C3530 1.394 . S
C3531 C3532 1.383 . S
C3531 H3539 0.929 . S
C3532 C3531 1.383 . S
C3532 C3533 1.377 . S
C3533 H3517 0.930 . S
C3533 C3532 1.377 . S
C3533 C3534 1.379 . S
C3534 H3518 0.931 . S
C3534 C3528 1.383 . S
C3534 C3533 1.379 . S
H3535 C3529 0.959 . S
H3536 C3529 0.961 . S
H3537 C3529 0.960 . S
H3538 C3530 0.930 . S
H3539 C3531 0.929 . S
H3540 C3548 0.929 . S
H3541 C3550 0.930 . S
H3542 C3552 0.930 . S
H3543 C3555 0.929 . S
H3544 C3558 0.930 . S
H3545 C3560 0.960 . S
H3546 C3560 0.960 . S
H3547 C3560 0.960 . S
C3548 H3540 0.929 . S
C3548 C3549 1.377 . S
C3548 C3550 1.384 . S
C3549 C3548 1.377 . S
C3549 C3555 1.390 . S
C3550 H3541 0.930 . S
C3550 C3548 1.384 . S
C3550 C3551 1.372 . S
C3551 C3550 1.372 . S
C3551 C3552 1.400 . S
C3551 C3556 1.490 . S
C3552 H3542 0.930 . S
C3552 C3551 1.400 . S
C3552 C3555 1.386 . S
H3553 C3569 0.930 . S
H3554 C3570 0.931 . S
C3555 H3543 0.929 . S
C3555 C3549 1.390 . S
C3555 C3552 1.386 . S
C3556 C3551 1.490 . S
C3556 C3558 1.395 . S
C3556 C3559 1.403 . S
H3557 C3563 0.930 . S
C3558 H3544 0.930 . S
C3558 C3556 1.395 . S
C3558 C3561 1.403 . S
C3559 C3556 1.403 . S
C3559 C3560 1.524 . S
C3559 C3563 1.400 . S
C3560 H3545 0.960 . S
C3560 H3546 0.960 . S
C3560 H3547 0.960 . S
C3560 C3559 1.524 . S
C3561 C3558 1.403 . S
C3561 C3562 1.392 . S
C3561 C3565 1.495 . S
C3562 C3561 1.392 . S
C3562 C3563 1.385 . S
C3562 C3564 1.478 . S
C3563 H3557 0.930 . S
C3563 C3559 1.400 . S
C3563 C3562 1.385 . S
C3564 C3562 1.478 . S
C3564 C3566 1.381 . S
C3564 C3570 1.383 . S
C3565 C3561 1.495 . S
C3565 H3571 0.959 . S
C3565 H3572 0.961 . S
C3565 H3573 0.960 . S
C3566 C3564 1.381 . S
C3566 C3567 1.394 . S
C3566 H3574 0.930 . S
C3567 C3566 1.394 . S
C3567 C3568 1.383 . S
C3567 H3575 0.929 . S
C3568 C3567 1.383 . S
C3568 C3569 1.377 . S
C3569 H3553 0.930 . S
C3569 C3568 1.377 . S
C3569 C3570 1.379 . S
C3570 H3554 0.931 . S
C3570 C3564 1.383 . S
C3570 C3569 1.379 . S
H3571 C3565 0.959 . S
H3572 C3565 0.961 . S
H3573 C3565 0.960 . S
H3574 C3566 0.930 . S
H3575 C3567 0.929 . S
H3576 C3584 0.929 . S
H3577 C3586 0.930 . S
H3578 C3588 0.930 . S
H3579 C3591 0.929 . S
H3580 C3594 0.930 . S
H3581 C3596 0.960 . S
H3582 C3596 0.960 . S
H3583 C3596 0.960 . S
C3584 H3576 0.929 . S
C3584 C3585 1.377 . S
C3584 C3586 1.384 . S
C3585 C3584 1.377 . S
C3585 C3591 1.390 . S
C3586 H3577 0.930 . S
C3586 C3584 1.384 . S
C3586 C3587 1.372 . S
C3587 C3586 1.372 . S
C3587 C3588 1.400 . S
C3587 C3592 1.490 . S
C3588 H3578 0.930 . S
C3588 C3587 1.400 . S
C3588 C3591 1.386 . S
H3589 C3605 0.930 . S
H3590 C3606 0.931 . S
C3591 H3579 0.929 . S
C3591 C3585 1.390 . S
C3591 C3588 1.386 . S
C3592 C3587 1.490 . S
C3592 C3594 1.395 . S
C3592 C3595 1.403 . S
H3593 C3599 0.930 . S
C3594 H3580 0.930 . S
C3594 C3592 1.395 . S
C3594 C3597 1.403 . S
C3595 C3592 1.403 . S
C3595 C3596 1.524 . S
C3595 C3599 1.400 . S
C3596 H3581 0.960 . S
C3596 H3582 0.960 . S
C3596 H3583 0.960 . S
C3596 C3595 1.524 . S
C3597 C3594 1.403 . S
C3597 C3598 1.392 . S
C3597 C3601 1.495 . S
C3598 C3597 1.392 . S
C3598 C3599 1.385 . S
C3598 C3600 1.478 . S
C3599 H3593 0.930 . S
C3599 C3595 1.400 . S
C3599 C3598 1.385 . S
C3600 C3598 1.478 . S
C3600 C3602 1.381 . S
C3600 C3606 1.383 . S
C3601 C3597 1.495 . S
C3601 H3607 0.959 . S
C3601 H3608 0.961 . S
C3601 H3609 0.960 . S
C3602 C3600 1.381 . S
C3602 C3603 1.394 . S
C3602 H3610 0.930 . S
C3603 C3602 1.394 . S
C3603 C3604 1.383 . S
C3603 H3611 0.929 . S
C3604 C3603 1.383 . S
C3604 C3605 1.377 . S
C3605 H3589 0.930 . S
C3605 C3604 1.377 . S
C3605 C3606 1.379 . S
C3606 H3590 0.931 . S
C3606 C3600 1.383 . S
C3606 C3605 1.379 . S
H3607 C3601 0.959 . S
H3608 C3601 0.961 . S
H3609 C3601 0.960 . S
H3610 C3602 0.930 . S
H3611 C3603 0.929 . S
H3612 C3620 0.929 . S
H3613 C3622 0.930 . S
H3614 C3624 0.930 . S
H3615 C3627 0.929 . S
H3616 C3630 0.930 . S
H3617 C3632 0.960 . S
H3618 C3632 0.960 . S
H3619 C3632 0.960 . S
C3620 H3612 0.929 . S
C3620 C3621 1.377 . S
C3620 C3622 1.384 . S
C3621 C3620 1.377 . S
C3621 C3627 1.390 . S
C3622 H3613 0.930 . S
C3622 C3620 1.384 . S
C3622 C3623 1.372 . S
C3623 C3622 1.372 . S
C3623 C3624 1.400 . S
C3623 C3628 1.490 . S
C3624 H3614 0.930 . S
C3624 C3623 1.400 . S
C3624 C3627 1.386 . S
H3625 C3641 0.930 . S
H3626 C3642 0.931 . S
C3627 H3615 0.929 . S
C3627 C3621 1.390 . S
C3627 C3624 1.386 . S
C3628 C3623 1.490 . S
C3628 C3630 1.395 . S
C3628 C3631 1.403 . S
H3629 C3635 0.930 . S
C3630 H3616 0.930 . S
C3630 C3628 1.395 . S
C3630 C3633 1.403 . S
C3631 C3628 1.403 . S
C3631 C3632 1.524 . S
C3631 C3635 1.400 . S
C3632 H3617 0.960 . S
C3632 H3618 0.960 . S
C3632 H3619 0.960 . S
C3632 C3631 1.524 . S
C3633 C3630 1.403 . S
C3633 C3634 1.392 . S
C3633 C3637 1.495 . S
C3634 C3633 1.392 . S
C3634 C3635 1.385 . S
C3634 C3636 1.478 . S
C3635 H3629 0.930 . S
C3635 C3631 1.400 . S
C3635 C3634 1.385 . S
C3636 C3634 1.478 . S
C3636 C3638 1.381 . S
C3636 C3642 1.383 . S
C3637 C3633 1.495 . S
C3637 H3643 0.959 . S
C3637 H3644 0.961 . S
C3637 H3645 0.960 . S
C3638 C3636 1.381 . S
C3638 C3639 1.394 . S
C3638 H3646 0.930 . S
C3639 C3638 1.394 . S
C3639 C3640 1.383 . S
C3639 H3647 0.929 . S
C3640 C3639 1.383 . S
C3640 C3641 1.377 . S
C3641 H3625 0.930 . S
C3641 C3640 1.377 . S
C3641 C3642 1.379 . S
C3642 H3626 0.931 . S
C3642 C3636 1.383 . S
C3642 C3641 1.379 . S
H3643 C3637 0.959 . S
H3644 C3637 0.961 . S
H3645 C3637 0.960 . S
H3646 C3638 0.930 . S
H3647 C3639 0.929 . S
H3648 C3656 0.929 . S
H3649 C3658 0.930 . S
H3650 C3660 0.930 . S
H3651 C3663 0.929 . S
H3652 C3666 0.930 . S
H3653 C3668 0.960 . S
H3654 C3668 0.960 . S
H3655 C3668 0.960 . S
C3656 H3648 0.929 . S
C3656 C3657 1.377 . S
C3656 C3658 1.384 . S
C3657 C3656 1.377 . S
C3657 C3663 1.390 . S
C3658 H3649 0.930 . S
C3658 C3656 1.384 . S
C3658 C3659 1.372 . S
C3659 C3658 1.372 . S
C3659 C3660 1.400 . S
C3659 C3664 1.490 . S
C3660 H3650 0.930 . S
C3660 C3659 1.400 . S
C3660 C3663 1.386 . S
H3661 C3677 0.930 . S
H3662 C3678 0.931 . S
C3663 H3651 0.929 . S
C3663 C3657 1.390 . S
C3663 C3660 1.386 . S
C3664 C3659 1.490 . S
C3664 C3666 1.395 . S
C3664 C3667 1.403 . S
H3665 C3671 0.930 . S
C3666 H3652 0.930 . S
C3666 C3664 1.395 . S
C3666 C3669 1.403 . S
C3667 C3664 1.403 . S
C3667 C3668 1.524 . S
C3667 C3671 1.400 . S
C3668 H3653 0.960 . S
C3668 H3654 0.960 . S
C3668 H3655 0.960 . S
C3668 C3667 1.524 . S
C3669 C3666 1.403 . S
C3669 C3670 1.392 . S
C3669 C3673 1.495 . S
C3670 C3669 1.392 . S
C3670 C3671 1.385 . S
C3670 C3672 1.478 . S
C3671 H3665 0.930 . S
C3671 C3667 1.400 . S
C3671 C3670 1.385 . S
C3672 C3670 1.478 . S
C3672 C3674 1.381 . S
C3672 C3678 1.383 . S
C3673 C3669 1.495 . S
C3673 H3679 0.959 . S
C3673 H3680 0.961 . S
C3673 H3681 0.960 . S
C3674 C3672 1.381 . S
C3674 C3675 1.394 . S
C3674 H3682 0.930 . S
C3675 C3674 1.394 . S
C3675 C3676 1.383 . S
C3675 H3683 0.929 . S
C3676 C3675 1.383 . S
C3676 C3677 1.377 . S
C3677 H3661 0.930 . S
C3677 C3676 1.377 . S
C3677 C3678 1.379 . S
C3678 H3662 0.931 . S
C3678 C3672 1.383 . S
C3678 C3677 1.379 . S
H3679 C3673 0.959 . S
H3680 C3673 0.961 . S
H3681 C3673 0.960 . S
H3682 C3674 0.930 . S
H3683 C3675 0.929 . S
H3684 C3692 0.929 . S
H3685 C3694 0.930 . S
H3686 C3696 0.930 . S
H3687 C3699 0.929 . S
H3688 C3702 0.930 . S
H3689 C3704 0.960 . S
H3690 C3704 0.960 . S
H3691 C3704 0.960 . S
C3692 H3684 0.929 . S
C3692 C3693 1.377 . S
C3692 C3694 1.384 . S
C3693 C3692 1.377 . S
C3693 C3699 1.390 . S
C3694 H3685 0.930 . S
C3694 C3692 1.384 . S
C3694 C3695 1.372 . S
C3695 C3694 1.372 . S
C3695 C3696 1.400 . S
C3695 C3700 1.490 . S
C3696 H3686 0.930 . S
C3696 C3695 1.400 . S
C3696 C3699 1.386 . S
H3697 C3713 0.930 . S
H3698 C3714 0.931 . S
C3699 H3687 0.929 . S
C3699 C3693 1.390 . S
C3699 C3696 1.386 . S
C3700 C3695 1.490 . S
C3700 C3702 1.395 . S
C3700 C3703 1.403 . S
H3701 C3707 0.930 . S
C3702 H3688 0.930 . S
C3702 C3700 1.395 . S
C3702 C3705 1.403 . S
C3703 C3700 1.403 . S
C3703 C3704 1.524 . S
C3703 C3707 1.400 . S
C3704 H3689 0.960 . S
C3704 H3690 0.960 . S
C3704 H3691 0.960 . S
C3704 C3703 1.524 . S
C3705 C3702 1.403 . S
C3705 C3706 1.392 . S
C3705 C3709 1.495 . S
C3706 C3705 1.392 . S
C3706 C3707 1.385 . S
C3706 C3708 1.478 . S
C3707 H3701 0.930 . S
C3707 C3703 1.400 . S
C3707 C3706 1.385 . S
C3708 C3706 1.478 . S
C3708 C3710 1.381 . S
C3708 C3714 1.383 . S
C3709 C3705 1.495 . S
C3709 H3715 0.959 . S
C3709 H3716 0.961 . S
C3709 H3717 0.960 . S
C3710 C3708 1.381 . S
C3710 C3711 1.394 . S
C3710 H3718 0.930 . S
C3711 C3710 1.394 . S
C3711 C3712 1.383 . S
C3711 H3719 0.929 . S
C3712 C3711 1.383 . S
C3712 C3713 1.377 . S
C3713 H3697 0.930 . S
C3713 C3712 1.377 . S
C3713 C3714 1.379 . S
C3714 H3698 0.931 . S
C3714 C3708 1.383 . S
C3714 C3713 1.379 . S
H3715 C3709 0.959 . S
H3716 C3709 0.961 . S
H3717 C3709 0.960 . S
H3718 C3710 0.930 . S
H3719 C3711 0.929 . S
H3720 C3728 0.929 . S
H3721 C3730 0.930 . S
H3722 C3732 0.930 . S
H3723 C3735 0.929 . S
H3724 C3738 0.930 . S
H3725 C3740 0.960 . S
H3726 C3740 0.960 . S
H3727 C3740 0.960 . S
C3728 H3720 0.929 . S
C3728 C3729 1.377 . S
C3728 C3730 1.384 . S
C3729 C3728 1.377 . S
C3729 C3735 1.390 . S
C3730 H3721 0.930 . S
C3730 C3728 1.384 . S
C3730 C3731 1.372 . S
C3731 C3730 1.372 . S
C3731 C3732 1.400 . S
C3731 C3736 1.490 . S
C3732 H3722 0.930 . S
C3732 C3731 1.400 . S
C3732 C3735 1.386 . S
H3733 C3749 0.930 . S
H3734 C3750 0.931 . S
C3735 H3723 0.929 . S
C3735 C3729 1.390 . S
C3735 C3732 1.386 . S
C3736 C3731 1.490 . S
C3736 C3738 1.395 . S
C3736 C3739 1.403 . S
H3737 C3743 0.930 . S
C3738 H3724 0.930 . S
C3738 C3736 1.395 . S
C3738 C3741 1.403 . S
C3739 C3736 1.403 . S
C3739 C3740 1.524 . S
C3739 C3743 1.400 . S
C3740 H3725 0.960 . S
C3740 H3726 0.960 . S
C3740 H3727 0.960 . S
C3740 C3739 1.524 . S
C3741 C3738 1.403 . S
C3741 C3742 1.392 . S
C3741 C3745 1.495 . S
C3742 C3741 1.392 . S
C3742 C3743 1.385 . S
C3742 C3744 1.478 . S
C3743 H3737 0.930 . S
C3743 C3739 1.400 . S
C3743 C3742 1.385 . S
C3744 C3742 1.478 . S
C3744 C3746 1.381 . S
C3744 C3750 1.383 . S
C3745 C3741 1.495 . S
C3745 H3751 0.959 . S
C3745 H3752 0.961 . S
C3745 H3753 0.960 . S
C3746 C3744 1.381 . S
C3746 C3747 1.394 . S
C3746 H3754 0.930 . S
C3747 C3746 1.394 . S
C3747 C3748 1.383 . S
C3747 H3755 0.929 . S
C3748 C3747 1.383 . S
C3748 C3749 1.377 . S
C3749 H3733 0.930 . S
C3749 C3748 1.377 . S
C3749 C3750 1.379 . S
C3750 H3734 0.931 . S
C3750 C3744 1.383 . S
C3750 C3749 1.379 . S
H3751 C3745 0.959 . S
H3752 C3745 0.961 . S
H3753 C3745 0.960 . S
H3754 C3746 0.930 . S
H3755 C3747 0.929 . S
H3756 C3764 0.929 . S
H3757 C3766 0.930 . S
H3758 C3768 0.930 . S
H3759 C3771 0.929 . S
H3760 C3774 0.930 . S
H3761 C3776 0.960 . S
H3762 C3776 0.960 . S
H3763 C3776 0.960 . S
C3764 H3756 0.929 . S
C3764 C3765 1.377 . S
C3764 C3766 1.384 . S
C3765 C3764 1.377 . S
C3765 C3771 1.390 . S
C3766 H3757 0.930 . S
C3766 C3764 1.384 . S
C3766 C3767 1.372 . S
C3767 C3766 1.372 . S
C3767 C3768 1.400 . S
C3767 C3772 1.490 . S
C3768 H3758 0.930 . S
C3768 C3767 1.400 . S
C3768 C3771 1.386 . S
H3769 C3785 0.930 . S
H3770 C3786 0.931 . S
C3771 H3759 0.929 . S
C3771 C3765 1.390 . S
C3771 C3768 1.386 . S
C3772 C3767 1.490 . S
C3772 C3774 1.395 . S
C3772 C3775 1.403 . S
H3773 C3779 0.930 . S
C3774 H3760 0.930 . S
C3774 C3772 1.395 . S
C3774 C3777 1.403 . S
C3775 C3772 1.403 . S
C3775 C3776 1.524 . S
C3775 C3779 1.400 . S
C3776 H3761 0.960 . S
C3776 H3762 0.960 . S
C3776 H3763 0.960 . S
C3776 C3775 1.524 . S
C3777 C3774 1.403 . S
C3777 C3778 1.392 . S
C3777 C3781 1.495 . S
C3778 C3777 1.392 . S
C3778 C3779 1.385 . S
C3778 C3780 1.478 . S
C3779 H3773 0.930 . S
C3779 C3775 1.400 . S
C3779 C3778 1.385 . S
C3780 C3778 1.478 . S
C3780 C3782 1.381 . S
C3780 C3786 1.383 . S
C3781 C3777 1.495 . S
C3781 H3787 0.959 . S
C3781 H3788 0.961 . S
C3781 H3789 0.960 . S
C3782 C3780 1.381 . S
C3782 C3783 1.394 . S
C3782 H3790 0.930 . S
C3783 C3782 1.394 . S
C3783 C3784 1.383 . S
C3783 H3791 0.929 . S
C3784 C3783 1.383 . S
C3784 C3785 1.377 . S
C3785 H3769 0.930 . S
C3785 C3784 1.377 . S
C3785 C3786 1.379 . S
C3786 H3770 0.931 . S
C3786 C3780 1.383 . S
C3786 C3785 1.379 . S
H3787 C3781 0.959 . S
H3788 C3781 0.961 . S
H3789 C3781 0.960 . S
H3790 C3782 0.930 . S
H3791 C3783 0.929 . S
H3792 C3800 0.929 . S
H3793 C3802 0.930 . S
H3794 C3804 0.930 . S
H3795 C3807 0.929 . S
H3796 C3810 0.930 . S
H3797 C3812 0.960 . S
H3798 C3812 0.960 . S
H3799 C3812 0.960 . S
C3800 H3792 0.929 . S
C3800 C3801 1.377 . S
C3800 C3802 1.384 . S
C3801 C3800 1.377 . S
C3801 C3807 1.390 . S
C3802 H3793 0.930 . S
C3802 C3800 1.384 . S
C3802 C3803 1.372 . S
C3803 C3802 1.372 . S
C3803 C3804 1.400 . S
C3803 C3808 1.490 . S
C3804 H3794 0.930 . S
C3804 C3803 1.400 . S
C3804 C3807 1.386 . S
H3805 C3821 0.930 . S
H3806 C3822 0.931 . S
C3807 H3795 0.929 . S
C3807 C3801 1.390 . S
C3807 C3804 1.386 . S
C3808 C3803 1.490 . S
C3808 C3810 1.395 . S
C3808 C3811 1.403 . S
H3809 C3815 0.930 . S
C3810 H3796 0.930 . S
C3810 C3808 1.395 . S
C3810 C3813 1.403 . S
C3811 C3808 1.403 . S
C3811 C3812 1.524 . S
C3811 C3815 1.400 . S
C3812 H3797 0.960 . S
C3812 H3798 0.960 . S
C3812 H3799 0.960 . S
C3812 C3811 1.524 . S
C3813 C3810 1.403 . S
C3813 C3814 1.392 . S
C3813 C3817 1.495 . S
C3814 C3813 1.392 . S
C3814 C3815 1.385 . S
C3814 C3816 1.478 . S
C3815 H3809 0.930 . S
C3815 C3811 1.400 . S
C3815 C3814 1.385 . S
C3816 C3814 1.478 . S
C3816 C3818 1.381 . S
C3816 C3822 1.383 . S
C3817 C3813 1.495 . S
C3817 H3823 0.959 . S
C3817 H3824 0.961 . S
C3817 H3825 0.960 . S
C3818 C3816 1.381 . S
C3818 C3819 1.394 . S
C3818 H3826 0.930 . S
C3819 C3818 1.394 . S
C3819 C3820 1.383 . S
C3819 H3827 0.929 . S
C3820 C3819 1.383 . S
C3820 C3821 1.377 . S
C3821 H3805 0.930 . S
C3821 C3820 1.377 . S
C3821 C3822 1.379 . S
C3822 H3806 0.931 . S
C3822 C3816 1.383 . S
C3822 C3821 1.379 . S
H3823 C3817 0.959 . S
H3824 C3817 0.961 . S
H3825 C3817 0.960 . S
H3826 C3818 0.930 . S
H3827 C3819 0.929 . S
H3828 C3836 0.929 . S
H3829 C3838 0.930 . S
H3830 C3840 0.930 . S
H3831 C3843 0.929 . S
H3832 C3846 0.930 . S
H3833 C3848 0.960 . S
H3834 C3848 0.960 . S
H3835 C3848 0.960 . S
C3836 H3828 0.929 . S
C3836 C3837 1.377 . S
C3836 C3838 1.384 . S
C3837 C3836 1.377 . S
C3837 C3843 1.390 . S
C3838 H3829 0.930 . S
C3838 C3836 1.384 . S
C3838 C3839 1.372 . S
C3839 C3838 1.372 . S
C3839 C3840 1.400 . S
C3839 C3844 1.490 . S
C3840 H3830 0.930 . S
C3840 C3839 1.400 . S
C3840 C3843 1.386 . S
H3841 C3857 0.930 . S
H3842 C3858 0.931 . S
C3843 H3831 0.929 . S
C3843 C3837 1.390 . S
C3843 C3840 1.386 . S
C3844 C3839 1.490 . S
C3844 C3846 1.395 . S
C3844 C3847 1.403 . S
H3845 C3851 0.930 . S
C3846 H3832 0.930 . S
C3846 C3844 1.395 . S
C3846 C3849 1.403 . S
C3847 C3844 1.403 . S
C3847 C3848 1.524 . S
C3847 C3851 1.400 . S
C3848 H3833 0.960 . S
C3848 H3834 0.960 . S
C3848 H3835 0.960 . S
C3848 C3847 1.524 . S
C3849 C3846 1.403 . S
C3849 C3850 1.392 . S
C3849 C3853 1.495 . S
C3850 C3849 1.392 . S
C3850 C3851 1.385 . S
C3850 C3852 1.478 . S
C3851 H3845 0.930 . S
C3851 C3847 1.400 . S
C3851 C3850 1.385 . S
C3852 C3850 1.478 . S
C3852 C3854 1.381 . S
C3852 C3858 1.383 . S
C3853 C3849 1.495 . S
C3853 H3859 0.959 . S
C3853 H3860 0.961 . S
C3853 H3861 0.960 . S
C3854 C3852 1.381 . S
C3854 C3855 1.394 . S
C3854 H3862 0.930 . S
C3855 C3854 1.394 . S
C3855 C3856 1.383 . S
C3855 H3863 0.929 . S
C3856 C3855 1.383 . S
C3856 C3857 1.377 . S
C3857 H3841 0.930 . S
C3857 C3856 1.377 . S
C3857 C3858 1.379 . S
C3858 H3842 0.931 . S
C3858 C3852 1.383 . S
C3858 C3857 1.379 . S
H3859 C3853 0.959 . S
H3860 C3853 0.961 . S
H3861 C3853 0.960 . S
H3862 C3854 0.930 . S
H3863 C3855 0.929 . S
H3864 C3872 0.929 . S
H3865 C3874 0.930 . S
H3866 C3876 0.930 . S
H3867 C3879 0.929 . S
H3868 C3882 0.930 . S
H3869 C3884 0.960 . S
H3870 C3884 0.960 . S
H3871 C3884 0.960 . S
C3872 H3864 0.929 . S
C3872 C3873 1.377 . S
C3872 C3874 1.384 . S
C3873 C3872 1.377 . S
C3873 C3879 1.390 . S
C3874 H3865 0.930 . S
C3874 C3872 1.384 . S
C3874 C3875 1.372 . S
C3875 C3874 1.372 . S
C3875 C3876 1.400 . S
C3875 C3880 1.490 . S
C3876 H3866 0.930 . S
C3876 C3875 1.400 . S
C3876 C3879 1.386 . S
H3877 C3893 0.930 . S
H3878 C3894 0.931 . S
C3879 H3867 0.929 . S
C3879 C3873 1.390 . S
C3879 C3876 1.386 . S
C3880 C3875 1.490 . S
C3880 C3882 1.395 . S
C3880 C3883 1.403 . S
H3881 C3887 0.930 . S
C3882 H3868 0.930 . S
C3882 C3880 1.395 . S
C3882 C3885 1.403 . S
C3883 C3880 1.403 . S
C3883 C3884 1.524 . S
C3883 C3887 1.400 . S
C3884 H3869 0.960 . S
C3884 H3870 0.960 . S
C3884 H3871 0.960 . S
C3884 C3883 1.524 . S
C3885 C3882 1.403 . S
C3885 C3886 1.392 . S
C3885 C3889 1.495 . S
C3886 C3885 1.392 . S
C3886 C3887 1.385 . S
C3886 C3888 1.478 . S
C3887 H3881 0.930 . S
C3887 C3883 1.400 . S
C3887 C3886 1.385 . S
C3888 C3886 1.478 . S
C3888 C3890 1.381 . S
C3888 C3894 1.383 . S
C3889 C3885 1.495 . S
C3889 H3895 0.959 . S
C3889 H3896 0.961 . S
C3889 H3897 0.960 . S
C3890 C3888 1.381 . S
C3890 C3891 1.394 . S
C3890 H3898 0.930 . S
C3891 C3890 1.394 . S
C3891 C3892 1.383 . S
C3891 H3899 0.929 . S
C3892 C3891 1.383 . S
C3892 C3893 1.377 . S
C3893 H3877 0.930 . S
C3893 C3892 1.377 . S
C3893 C3894 1.379 . S
C3894 H3878 0.931 . S
C3894 C3888 1.383 . S
C3894 C3893 1.379 . S
H3895 C3889 0.959 . S
H3896 C3889 0.961 . S
H3897 C3889 0.960 . S
H3898 C3890 0.930 . S
H3899 C3891 0.929 . S
H3900 C3908 0.929 . S
H3901 C3910 0.930 . S
H3902 C3912 0.930 . S
H3903 C3915 0.929 . S
H3904 C3918 0.930 . S
H3905 C3920 0.960 . S
H3906 C3920 0.960 . S
H3907 C3920 0.960 . S
C3908 H3900 0.929 . S
C3908 C3909 1.377 . S
C3908 C3910 1.384 . S
C3909 C3908 1.377 . S
C3909 C3915 1.390 . S
C3910 H3901 0.930 . S
C3910 C3908 1.384 . S
C3910 C3911 1.372 . S
C3911 C3910 1.372 . S
C3911 C3912 1.400 . S
C3911 C3916 1.490 . S
C3912 H3902 0.930 . S
C3912 C3911 1.400 . S
C3912 C3915 1.386 . S
H3913 C3929 0.930 . S
H3914 C3930 0.931 . S
C3915 H3903 0.929 . S
C3915 C3909 1.390 . S
C3915 C3912 1.386 . S
C3916 C3911 1.490 . S
C3916 C3918 1.395 . S
C3916 C3919 1.403 . S
H3917 C3923 0.930 . S
C3918 H3904 0.930 . S
C3918 C3916 1.395 . S
C3918 C3921 1.403 . S
C3919 C3916 1.403 . S
C3919 C3920 1.524 . S
C3919 C3923 1.400 . S
C3920 H3905 0.960 . S
C3920 H3906 0.960 . S
C3920 H3907 0.960 . S
C3920 C3919 1.524 . S
C3921 C3918 1.403 . S
C3921 C3922 1.392 . S
C3921 C3925 1.495 . S
C3922 C3921 1.392 . S
C3922 C3923 1.385 . S
C3922 C3924 1.478 . S
C3923 H3917 0.930 . S
C3923 C3919 1.400 . S
C3923 C3922 1.385 . S
C3924 C3922 1.478 . S
C3924 C3926 1.381 . S
C3924 C3930 1.383 . S
C3925 C3921 1.495 . S
C3925 H3931 0.959 . S
C3925 H3932 0.961 . S
C3925 H3933 0.960 . S
C3926 C3924 1.381 . S
C3926 C3927 1.394 . S
C3926 H3934 0.930 . S
C3927 C3926 1.394 . S
C3927 C3928 1.383 . S
C3927 H3935 0.929 . S
C3928 C3927 1.383 . S
C3928 C3929 1.377 . S
C3929 H3913 0.930 . S
C3929 C3928 1.377 . S
C3929 C3930 1.379 . S
C3930 H3914 0.931 . S
C3930 C3924 1.383 . S
C3930 C3929 1.379 . S
H3931 C3925 0.959 . S
H3932 C3925 0.961 . S
H3933 C3925 0.960 . S
H3934 C3926 0.930 . S
H3935 C3927 0.929 . S
H3936 C3944 0.929 . S
H3937 C3946 0.930 . S
H3938 C3948 0.930 . S
H3939 C3951 0.929 . S
H3940 C3954 0.930 . S
H3941 C3956 0.960 . S
H3942 C3956 0.960 . S
H3943 C3956 0.960 . S
C3944 H3936 0.929 . S
C3944 C3945 1.377 . S
C3944 C3946 1.384 . S
C3945 C3944 1.377 . S
C3945 C3951 1.390 . S
C3946 H3937 0.930 . S
C3946 C3944 1.384 . S
C3946 C3947 1.372 . S
C3947 C3946 1.372 . S
C3947 C3948 1.400 . S
C3947 C3952 1.490 . S
C3948 H3938 0.930 . S
C3948 C3947 1.400 . S
C3948 C3951 1.386 . S
H3949 C3965 0.930 . S
H3950 C3966 0.931 . S
C3951 H3939 0.929 . S
C3951 C3945 1.390 . S
C3951 C3948 1.386 . S
C3952 C3947 1.490 . S
C3952 C3954 1.395 . S
C3952 C3955 1.403 . S
H3953 C3959 0.930 . S
C3954 H3940 0.930 . S
C3954 C3952 1.395 . S
C3954 C3957 1.403 . S
C3955 C3952 1.403 . S
C3955 C3956 1.524 . S
C3955 C3959 1.400 . S
C3956 H3941 0.960 . S
C3956 H3942 0.960 . S
C3956 H3943 0.960 . S
C3956 C3955 1.524 . S
C3957 C3954 1.403 . S
C3957 C3958 1.392 . S
C3957 C3961 1.495 . S
C3958 C3957 1.392 . S
C3958 C3959 1.385 . S
C3958 C3960 1.478 . S
C3959 H3953 0.930 . S
C3959 C3955 1.400 . S
C3959 C3958 1.385 . S
C3960 C3958 1.478 . S
C3960 C3962 1.381 . S
C3960 C3966 1.383 . S
C3961 C3957 1.495 . S
C3961 H3967 0.959 . S
C3961 H3968 0.961 . S
C3961 H3969 0.960 . S
C3962 C3960 1.381 . S
C3962 C3963 1.394 . S
C3962 H3970 0.930 . S
C3963 C3962 1.394 . S
C3963 C3964 1.383 . S
C3963 H3971 0.929 . S
C3964 C3963 1.383 . S
C3964 C3965 1.377 . S
C3965 H3949 0.930 . S
C3965 C3964 1.377 . S
C3965 C3966 1.379 . S
C3966 H3950 0.931 . S
C3966 C3960 1.383 . S
C3966 C3965 1.379 . S
H3967 C3961 0.959 . S
H3968 C3961 0.961 . S
H3969 C3961 0.960 . S
H3970 C3962 0.930 . S
H3971 C3963 0.929 . S
H3972 C3980 0.929 . S
H3973 C3982 0.930 . S
H3974 C3984 0.930 . S
H3975 C3987 0.929 . S
H3976 C3990 0.930 . S
H3977 C3992 0.960 . S
H3978 C3992 0.960 . S
H3979 C3992 0.960 . S
C3980 H3972 0.929 . S
C3980 C3981 1.377 . S
C3980 C3982 1.384 . S
C3981 C3980 1.377 . S
C3981 C3987 1.390 . S
C3982 H3973 0.930 . S
C3982 C3980 1.384 . S
C3982 C3983 1.372 . S
C3983 C3982 1.372 . S
C3983 C3984 1.400 . S
C3983 C3988 1.490 . S
C3984 H3974 0.930 . S
C3984 C3983 1.400 . S
C3984 C3987 1.386 . S
H3985 C4001 0.930 . S
H3986 C4002 0.931 . S
C3987 H3975 0.929 . S
C3987 C3981 1.390 . S
C3987 C3984 1.386 . S
C3988 C3983 1.490 . S
C3988 C3990 1.395 . S
C3988 C3991 1.403 . S
H3989 C3995 0.930 . S
C3990 H3976 0.930 . S
C3990 C3988 1.395 . S
C3990 C3993 1.403 . S
C3991 C3988 1.403 . S
C3991 C3992 1.524 . S
C3991 C3995 1.400 . S
C3992 H3977 0.960 . S
C3992 H3978 0.960 . S
C3992 H3979 0.960 . S
C3992 C3991 1.524 . S
C3993 C3990 1.403 . S
C3993 C3994 1.392 . S
C3993 C3997 1.495 . S
C3994 C3993 1.392 . S
C3994 C3995 1.385 . S
C3994 C3996 1.478 . S
C3995 H3989 0.930 . S
C3995 C3991 1.400 . S
C3995 C3994 1.385 . S
C3996 C3994 1.478 . S
C3996 C3998 1.381 . S
C3996 C4002 1.383 . S
C3997 C3993 1.495 . S
C3997 H4003 0.959 . S
C3997 H4004 0.961 . S
C3997 H4005 0.960 . S
C3998 C3996 1.381 . S
C3998 C3999 1.394 . S
C3998 H4006 0.930 . S
C3999 C3998 1.394 . S
C3999 C4000 1.383 . S
C3999 H4007 0.929 . S
C4000 C3999 1.383 . S
C4000 C4001 1.377 . S
C4001 H3985 0.930 . S
C4001 C4000 1.377 . S
C4001 C4002 1.379 . S
C4002 H3986 0.931 . S
C4002 C3996 1.383 . S
C4002 C4001 1.379 . S
H4003 C3997 0.959 . S
H4004 C3997 0.961 . S
H4005 C3997 0.960 . S
H4006 C3998 0.930 . S
H4007 C3999 0.929 . S
H4008 C4016 0.929 . S
H4009 C4018 0.930 . S
H4010 C4020 0.930 . S
H4011 C4023 0.929 . S
H4012 C4026 0.930 . S
H4013 C4028 0.960 . S
H4014 C4028 0.960 . S
H4015 C4028 0.960 . S
C4016 H4008 0.929 . S
C4016 C4017 1.377 . S
C4016 C4018 1.384 . S
C4017 C4016 1.377 . S
C4017 C4023 1.390 . S
C4018 H4009 0.930 . S
C4018 C4016 1.384 . S
C4018 C4019 1.372 . S
C4019 C4018 1.372 . S
C4019 C4020 1.400 . S
C4019 C4024 1.490 . S
C4020 H4010 0.930 . S
C4020 C4019 1.400 . S
C4020 C4023 1.386 . S
H4021 C4037 0.930 . S
H4022 C4038 0.931 . S
C4023 H4011 0.929 . S
C4023 C4017 1.390 . S
C4023 C4020 1.386 . S
C4024 C4019 1.490 . S
C4024 C4026 1.395 . S
C4024 C4027 1.403 . S
H4025 C4031 0.930 . S
C4026 H4012 0.930 . S
C4026 C4024 1.395 . S
C4026 C4029 1.403 . S
C4027 C4024 1.403 . S
C4027 C4028 1.524 . S
C4027 C4031 1.400 . S
C4028 H4013 0.960 . S
C4028 H4014 0.960 . S
C4028 H4015 0.960 . S
C4028 C4027 1.524 . S
C4029 C4026 1.403 . S
C4029 C4030 1.392 . S
C4029 C4033 1.495 . S
C4030 C4029 1.392 . S
C4030 C4031 1.385 . S
C4030 C4032 1.478 . S
C4031 H4025 0.930 . S
C4031 C4027 1.400 . S
C4031 C4030 1.385 . S
C4032 C4030 1.478 . S
C4032 C4034 1.381 . S
C4032 C4038 1.383 . S
C4033 C4029 1.495 . S
C4033 H4039 0.959 . S
C4033 H4040 0.961 . S
C4033 H4041 0.960 . S
C4034 C4032 1.381 . S
C4034 C4035 1.394 . S
C4034 H4042 0.930 . S
C4035 C4034 1.394 . S
C4035 C4036 1.383 . S
C4035 H4043 0.929 . S
C4036 C4035 1.383 . S
C4036 C4037 1.377 . S
C4037 H4021 0.930 . S
C4037 C4036 1.377 . S
C4037 C4038 1.379 . S
C4038 H4022 0.931 . S
C4038 C4032 1.383 . S
C4038 C4037 1.379 . S
H4039 C4033 0.959 . S
H4040 C4033 0.961 . S
H4041 C4033 0.960 . S
H4042 C4034 0.930 . S
H4043 C4035 0.929 . S
H4044 C4052 0.929 . S
H4045 C4054 0.930 . S
H4046 C4056 0.930 . S
H4047 C4059 0.929 . S
H4048 C4062 0.930 . S
H4049 C4064 0.960 . S
H4050 C4064 0.960 . S
H4051 C4064 0.960 . S
C4052 H4044 0.929 . S
C4052 C4053 1.377 . S
C4052 C4054 1.384 . S
C4053 C4052 1.377 . S
C4053 C4059 1.390 . S
C4054 H4045 0.930 . S
C4054 C4052 1.384 . S
C4054 C4055 1.372 . S
C4055 C4054 1.372 . S
C4055 C4056 1.400 . S
C4055 C4060 1.490 . S
C4056 H4046 0.930 . S
C4056 C4055 1.400 . S
C4056 C4059 1.386 . S
H4057 C4073 0.930 . S
H4058 C4074 0.931 . S
C4059 H4047 0.929 . S
C4059 C4053 1.390 . S
C4059 C4056 1.386 . S
C4060 C4055 1.490 . S
C4060 C4062 1.395 . S
C4060 C4063 1.403 . S
H4061 C4067 0.930 . S
C4062 H4048 0.930 . S
C4062 C4060 1.395 . S
C4062 C4065 1.403 . S
C4063 C4060 1.403 . S
C4063 C4064 1.524 . S
C4063 C4067 1.400 . S
C4064 H4049 0.960 . S
C4064 H4050 0.960 . S
C4064 H4051 0.960 . S
C4064 C4063 1.524 . S
C4065 C4062 1.403 . S
C4065 C4066 1.392 . S
C4065 C4069 1.495 . S
C4066 C4065 1.392 . S
C4066 C4067 1.385 . S
C4066 C4068 1.478 . S
C4067 H4061 0.930 . S
C4067 C4063 1.400 . S
C4067 C4066 1.385 . S
C4068 C4066 1.478 . S
C4068 C4070 1.381 . S
C4068 C4074 1.383 . S
C4069 C4065 1.495 . S
C4069 H4075 0.959 . S
C4069 H4076 0.961 . S
C4069 H4077 0.960 . S
C4070 C4068 1.381 . S
C4070 C4071 1.394 . S
C4070 H4078 0.930 . S
C4071 C4070 1.394 . S
C4071 C4072 1.383 . S
C4071 H4079 0.929 . S
C4072 C4071 1.383 . S
C4072 C4073 1.377 . S
C4073 H4057 0.930 . S
C4073 C4072 1.377 . S
C4073 C4074 1.379 . S
C4074 H4058 0.931 . S
C4074 C4068 1.383 . S
C4074 C4073 1.379 . S
H4075 C4069 0.959 . S
H4076 C4069 0.961 . S
H4077 C4069 0.960 . S
H4078 C4070 0.930 . S
H4079 C4071 0.929 . S
H4080 C4088 0.929 . S
H4081 C4090 0.930 . S
H4082 C4092 0.930 . S
H4083 C4095 0.929 . S
H4084 C4098 0.930 . S
H4085 C4100 0.960 . S
H4086 C4100 0.960 . S
H4087 C4100 0.960 . S
C4088 H4080 0.929 . S
C4088 C4089 1.377 . S
C4088 C4090 1.384 . S
C4089 C4088 1.377 . S
C4089 C4095 1.390 . S
C4090 H4081 0.930 . S
C4090 C4088 1.384 . S
C4090 C4091 1.372 . S
C4091 C4090 1.372 . S
C4091 C4092 1.400 . S
C4091 C4096 1.490 . S
C4092 H4082 0.930 . S
C4092 C4091 1.400 . S
C4092 C4095 1.386 . S
H4093 C4109 0.930 . S
H4094 C4110 0.931 . S
C4095 H4083 0.929 . S
C4095 C4089 1.390 . S
C4095 C4092 1.386 . S
C4096 C4091 1.490 . S
C4096 C4098 1.395 . S
C4096 C4099 1.403 . S
H4097 C4103 0.930 . S
C4098 H4084 0.930 . S
C4098 C4096 1.395 . S
C4098 C4101 1.403 . S
C4099 C4096 1.403 . S
C4099 C4100 1.524 . S
C4099 C4103 1.400 . S
C4100 H4085 0.960 . S
C4100 H4086 0.960 . S
C4100 H4087 0.960 . S
C4100 C4099 1.524 . S
C4101 C4098 1.403 . S
C4101 C4102 1.392 . S
C4101 C4105 1.495 . S
C4102 C4101 1.392 . S
C4102 C4103 1.385 . S
C4102 C4104 1.478 . S
C4103 H4097 0.930 . S
C4103 C4099 1.400 . S
C4103 C4102 1.385 . S
C4104 C4102 1.478 . S
C4104 C4106 1.381 . S
C4104 C4110 1.383 . S
C4105 C4101 1.495 . S
C4105 H4111 0.959 . S
C4105 H4112 0.961 . S
C4105 H4113 0.960 . S
C4106 C4104 1.381 . S
C4106 C4107 1.394 . S
C4106 H4114 0.930 . S
C4107 C4106 1.394 . S
C4107 C4108 1.383 . S
C4107 H4115 0.929 . S
C4108 C4107 1.383 . S
C4108 C4109 1.377 . S
C4109 H4093 0.930 . S
C4109 C4108 1.377 . S
C4109 C4110 1.379 . S
C4110 H4094 0.931 . S
C4110 C4104 1.383 . S
C4110 C4109 1.379 . S
H4111 C4105 0.959 . S
H4112 C4105 0.961 . S
H4113 C4105 0.960 . S
H4114 C4106 0.930 . S
H4115 C4107 0.929 . S
H4116 C4124 0.929 . S
H4117 C4126 0.930 . S
H4118 C4128 0.930 . S
H4119 C4131 0.929 . S
H4120 C4134 0.930 . S
H4121 C4136 0.960 . S
H4122 C4136 0.960 . S
H4123 C4136 0.960 . S
C4124 H4116 0.929 . S
C4124 C4125 1.377 . S
C4124 C4126 1.384 . S
C4125 C4124 1.377 . S
C4125 C4131 1.390 . S
C4126 H4117 0.930 . S
C4126 C4124 1.384 . S
C4126 C4127 1.372 . S
C4127 C4126 1.372 . S
C4127 C4128 1.400 . S
C4127 C4132 1.490 . S
C4128 H4118 0.930 . S
C4128 C4127 1.400 . S
C4128 C4131 1.386 . S
H4129 C4145 0.930 . S
H4130 C4146 0.931 . S
C4131 H4119 0.929 . S
C4131 C4125 1.390 . S
C4131 C4128 1.386 . S
C4132 C4127 1.490 . S
C4132 C4134 1.395 . S
C4132 C4135 1.403 . S
H4133 C4139 0.930 . S
C4134 H4120 0.930 . S
C4134 C4132 1.395 . S
C4134 C4137 1.403 . S
C4135 C4132 1.403 . S
C4135 C4136 1.524 . S
C4135 C4139 1.400 . S
C4136 H4121 0.960 . S
C4136 H4122 0.960 . S
C4136 H4123 0.960 . S
C4136 C4135 1.524 . S
C4137 C4134 1.403 . S
C4137 C4138 1.392 . S
C4137 C4141 1.495 . S
C4138 C4137 1.392 . S
C4138 C4139 1.385 . S
C4138 C4140 1.478 . S
C4139 H4133 0.930 . S
C4139 C4135 1.400 . S
C4139 C4138 1.385 . S
C4140 C4138 1.478 . S
C4140 C4142 1.381 . S
C4140 C4146 1.383 . S
C4141 C4137 1.495 . S
C4141 H4147 0.959 . S
C4141 H4148 0.961 . S
C4141 H4149 0.960 . S
C4142 C4140 1.381 . S
C4142 C4143 1.394 . S
C4142 H4150 0.930 . S
C4143 C4142 1.394 . S
C4143 C4144 1.383 . S
C4143 H4151 0.929 . S
C4144 C4143 1.383 . S
C4144 C4145 1.377 . S
C4145 H4129 0.930 . S
C4145 C4144 1.377 . S
C4145 C4146 1.379 . S
C4146 H4130 0.931 . S
C4146 C4140 1.383 . S
C4146 C4145 1.379 . S
H4147 C4141 0.959 . S
H4148 C4141 0.961 . S
H4149 C4141 0.960 . S
H4150 C4142 0.930 . S
H4151 C4143 0.929 . S
H4152 C4160 0.929 . S
H4153 C4162 0.930 . S
H4154 C4164 0.930 . S
H4155 C4167 0.929 . S
H4156 C4170 0.930 . S
H4157 C4172 0.960 . S
H4158 C4172 0.960 . S
H4159 C4172 0.960 . S
C4160 H4152 0.929 . S
C4160 C4161 1.377 . S
C4160 C4162 1.384 . S
C4161 C4160 1.377 . S
C4161 C4167 1.390 . S
C4162 H4153 0.930 . S
C4162 C4160 1.384 . S
C4162 C4163 1.372 . S
C4163 C4162 1.372 . S
C4163 C4164 1.400 . S
C4163 C4168 1.490 . S
C4164 H4154 0.930 . S
C4164 C4163 1.400 . S
C4164 C4167 1.386 . S
H4165 C4181 0.930 . S
H4166 C4182 0.931 . S
C4167 H4155 0.929 . S
C4167 C4161 1.390 . S
C4167 C4164 1.386 . S
C4168 C4163 1.490 . S
C4168 C4170 1.395 . S
C4168 C4171 1.403 . S
H4169 C4175 0.930 . S
C4170 H4156 0.930 . S
C4170 C4168 1.395 . S
C4170 C4173 1.403 . S
C4171 C4168 1.403 . S
C4171 C4172 1.524 . S
C4171 C4175 1.400 . S
C4172 H4157 0.960 . S
C4172 H4158 0.960 . S
C4172 H4159 0.960 . S
C4172 C4171 1.524 . S
C4173 C4170 1.403 . S
C4173 C4174 1.392 . S
C4173 C4177 1.495 . S
C4174 C4173 1.392 . S
C4174 C4175 1.385 . S
C4174 C4176 1.478 . S
C4175 H4169 0.930 . S
C4175 C4171 1.400 . S
C4175 C4174 1.385 . S
C4176 C4174 1.478 . S
C4176 C4178 1.381 . S
C4176 C4182 1.383 . S
C4177 C4173 1.495 . S
C4177 H4183 0.959 . S
C4177 H4184 0.961 . S
C4177 H4185 0.960 . S
C4178 C4176 1.381 . S
C4178 C4179 1.394 . S
C4178 H4186 0.930 . S
C4179 C4178 1.394 . S
C4179 C4180 1.383 . S
C4179 H4187 0.929 . S
C4180 C4179 1.383 . S
C4180 C4181 1.377 . S
C4181 H4165 0.930 . S
C4181 C4180 1.377 . S
C4181 C4182 1.379 . S
C4182 H4166 0.931 . S
C4182 C4176 1.383 . S
C4182 C4181 1.379 . S
H4183 C4177 0.959 . S
H4184 C4177 0.961 . S
H4185 C4177 0.960 . S
H4186 C4178 0.930 . S
H4187 C4179 0.929 . S
H4188 C4196 0.929 . S
H4189 C4198 0.930 . S
H4190 C4200 0.930 . S
H4191 C4203 0.929 . S
H4192 C4206 0.930 . S
H4193 C4208 0.960 . S
H4194 C4208 0.960 . S
H4195 C4208 0.960 . S
C4196 H4188 0.929 . S
C4196 C4197 1.377 . S
C4196 C4198 1.384 . S
C4197 C4196 1.377 . S
C4197 C4203 1.390 . S
C4198 H4189 0.930 . S
C4198 C4196 1.384 . S
C4198 C4199 1.372 . S
C4199 C4198 1.372 . S
C4199 C4200 1.400 . S
C4199 C4204 1.490 . S
C4200 H4190 0.930 . S
C4200 C4199 1.400 . S
C4200 C4203 1.386 . S
H4201 C4217 0.930 . S
H4202 C4218 0.931 . S
C4203 H4191 0.929 . S
C4203 C4197 1.390 . S
C4203 C4200 1.386 . S
C4204 C4199 1.490 . S
C4204 C4206 1.395 . S
C4204 C4207 1.403 . S
H4205 C4211 0.930 . S
C4206 H4192 0.930 . S
C4206 C4204 1.395 . S
C4206 C4209 1.403 . S
C4207 C4204 1.403 . S
C4207 C4208 1.524 . S
C4207 C4211 1.400 . S
C4208 H4193 0.960 . S
C4208 H4194 0.960 . S
C4208 H4195 0.960 . S
C4208 C4207 1.524 . S
C4209 C4206 1.403 . S
C4209 C4210 1.392 . S
C4209 C4213 1.495 . S
C4210 C4209 1.392 . S
C4210 C4211 1.385 . S
C4210 C4212 1.478 . S
C4211 H4205 0.930 . S
C4211 C4207 1.400 . S
C4211 C4210 1.385 . S
C4212 C4210 1.478 . S
C4212 C4214 1.381 . S
C4212 C4218 1.383 . S
C4213 C4209 1.495 . S
C4213 H4219 0.959 . S
C4213 H4220 0.961 . S
C4213 H4221 0.960 . S
C4214 C4212 1.381 . S
C4214 C4215 1.394 . S
C4214 H4222 0.930 . S
C4215 C4214 1.394 . S
C4215 C4216 1.383 . S
C4215 H4223 0.929 . S
C4216 C4215 1.383 . S
C4216 C4217 1.377 . S
C4217 H4201 0.930 . S
C4217 C4216 1.377 . S
C4217 C4218 1.379 . S
C4218 H4202 0.931 . S
C4218 C4212 1.383 . S
C4218 C4217 1.379 . S
H4219 C4213 0.959 . S
H4220 C4213 0.961 . S
H4221 C4213 0.960 . S
H4222 C4214 0.930 . S
H4223 C4215 0.929 . S
H4224 C4232 0.929 . S
H4225 C4234 0.930 . S
H4226 C4236 0.930 . S
H4227 C4239 0.929 . S
H4228 C4242 0.930 . S
H4229 C4244 0.960 . S
H4230 C4244 0.960 . S
H4231 C4244 0.960 . S
C4232 H4224 0.929 . S
C4232 C4233 1.377 . S
C4232 C4234 1.384 . S
C4233 C4232 1.377 . S
C4233 C4239 1.390 . S
C4234 H4225 0.930 . S
C4234 C4232 1.384 . S
C4234 C4235 1.372 . S
C4235 C4234 1.372 . S
C4235 C4236 1.400 . S
C4235 C4240 1.490 . S
C4236 H4226 0.930 . S
C4236 C4235 1.400 . S
C4236 C4239 1.386 . S
H4237 C4253 0.930 . S
H4238 C4254 0.931 . S
C4239 H4227 0.929 . S
C4239 C4233 1.390 . S
C4239 C4236 1.386 . S
C4240 C4235 1.490 . S
C4240 C4242 1.395 . S
C4240 C4243 1.403 . S
H4241 C4247 0.930 . S
C4242 H4228 0.930 . S
C4242 C4240 1.395 . S
C4242 C4245 1.403 . S
C4243 C4240 1.403 . S
C4243 C4244 1.524 . S
C4243 C4247 1.400 . S
C4244 H4229 0.960 . S
C4244 H4230 0.960 . S
C4244 H4231 0.960 . S
C4244 C4243 1.524 . S
C4245 C4242 1.403 . S
C4245 C4246 1.392 . S
C4245 C4249 1.495 . S
C4246 C4245 1.392 . S
C4246 C4247 1.385 . S
C4246 C4248 1.478 . S
C4247 H4241 0.930 . S
C4247 C4243 1.400 . S
C4247 C4246 1.385 . S
C4248 C4246 1.478 . S
C4248 C4250 1.381 . S
C4248 C4254 1.383 . S
C4249 C4245 1.495 . S
C4249 H4255 0.959 . S
C4249 H4256 0.961 . S
C4249 H4257 0.960 . S
C4250 C4248 1.381 . S
C4250 C4251 1.394 . S
C4250 H4258 0.930 . S
C4251 C4250 1.394 . S
C4251 C4252 1.383 . S
C4251 H4259 0.929 . S
C4252 C4251 1.383 . S
C4252 C4253 1.377 . S
C4253 H4237 0.930 . S
C4253 C4252 1.377 . S
C4253 C4254 1.379 . S
C4254 H4238 0.931 . S
C4254 C4248 1.383 . S
C4254 C4253 1.379 . S
H4255 C4249 0.959 . S
H4256 C4249 0.961 . S
H4257 C4249 0.960 . S
H4258 C4250 0.930 . S
H4259 C4251 0.929 . S
H4260 C4268 0.929 . S
H4261 C4270 0.930 . S
H4262 C4272 0.930 . S
H4263 C4275 0.929 . S
H4264 C4278 0.930 . S
H4265 C4280 0.960 . S
H4266 C4280 0.960 . S
H4267 C4280 0.960 . S
C4268 H4260 0.929 . S
C4268 C4269 1.377 . S
C4268 C4270 1.384 . S
C4269 C4268 1.377 . S
C4269 C4275 1.390 . S
C4270 H4261 0.930 . S
C4270 C4268 1.384 . S
C4270 C4271 1.372 . S
C4271 C4270 1.372 . S
C4271 C4272 1.400 . S
C4271 C4276 1.490 . S
C4272 H4262 0.930 . S
C4272 C4271 1.400 . S
C4272 C4275 1.386 . S
H4273 C4289 0.930 . S
H4274 C4290 0.931 . S
C4275 H4263 0.929 . S
C4275 C4269 1.390 . S
C4275 C4272 1.386 . S
C4276 C4271 1.490 . S
C4276 C4278 1.395 . S
C4276 C4279 1.403 . S
H4277 C4283 0.930 . S
C4278 H4264 0.930 . S
C4278 C4276 1.395 . S
C4278 C4281 1.403 . S
C4279 C4276 1.403 . S
C4279 C4280 1.524 . S
C4279 C4283 1.400 . S
C4280 H4265 0.960 . S
C4280 H4266 0.960 . S
C4280 H4267 0.960 . S
C4280 C4279 1.524 . S
C4281 C4278 1.403 . S
C4281 C4282 1.392 . S
C4281 C4285 1.495 . S
C4282 C4281 1.392 . S
C4282 C4283 1.385 . S
C4282 C4284 1.478 . S
C4283 H4277 0.930 . S
C4283 C4279 1.400 . S
C4283 C4282 1.385 . S
C4284 C4282 1.478 . S
C4284 C4286 1.381 . S
C4284 C4290 1.383 . S
C4285 C4281 1.495 . S
C4285 H4291 0.959 . S
C4285 H4292 0.961 . S
C4285 H4293 0.960 . S
C4286 C4284 1.381 . S
C4286 C4287 1.394 . S
C4286 H4294 0.930 . S
C4287 C4286 1.394 . S
C4287 C4288 1.383 . S
C4287 H4295 0.929 . S
C4288 C4287 1.383 . S
C4288 C4289 1.377 . S
C4289 H4273 0.930 . S
C4289 C4288 1.377 . S
C4289 C4290 1.379 . S
C4290 H4274 0.931 . S
C4290 C4284 1.383 . S
C4290 C4289 1.379 . S
H4291 C4285 0.959 . S
H4292 C4285 0.961 . S
H4293 C4285 0.960 . S
H4294 C4286 0.930 . S
H4295 C4287 0.929 . S
H4296 C4304 0.929 . S
H4297 C4306 0.930 . S
H4298 C4308 0.930 . S
H4299 C4311 0.929 . S
H4300 C4314 0.930 . S
H4301 C4316 0.960 . S
H4302 C4316 0.960 . S
H4303 C4316 0.960 . S
C4304 H4296 0.929 . S
C4304 C4305 1.377 . S
C4304 C4306 1.384 . S
C4305 C4304 1.377 . S
C4305 C4311 1.390 . S
C4306 H4297 0.930 . S
C4306 C4304 1.384 . S
C4306 C4307 1.372 . S
C4307 C4306 1.372 . S
C4307 C4308 1.400 . S
C4307 C4312 1.490 . S
C4308 H4298 0.930 . S
C4308 C4307 1.400 . S
C4308 C4311 1.386 . S
H4309 C4325 0.930 . S
H4310 C4326 0.931 . S
C4311 H4299 0.929 . S
C4311 C4305 1.390 . S
C4311 C4308 1.386 . S
C4312 C4307 1.490 . S
C4312 C4314 1.395 . S
C4312 C4315 1.403 . S
H4313 C4319 0.930 . S
C4314 H4300 0.930 . S
C4314 C4312 1.395 . S
C4314 C4317 1.403 . S
C4315 C4312 1.403 . S
C4315 C4316 1.524 . S
C4315 C4319 1.400 . S
C4316 H4301 0.960 . S
C4316 H4302 0.960 . S
C4316 H4303 0.960 . S
C4316 C4315 1.524 . S
C4317 C4314 1.403 . S
C4317 C4318 1.392 . S
C4317 C4321 1.495 . S
C4318 C4317 1.392 . S
C4318 C4319 1.385 . S
C4318 C4320 1.478 . S
C4319 H4313 0.930 . S
C4319 C4315 1.400 . S
C4319 C4318 1.385 . S
C4320 C4318 1.478 . S
C4320 C4322 1.381 . S
C4320 C4326 1.383 . S
C4321 C4317 1.495 . S
C4321 H4327 0.959 . S
C4321 H4328 0.961 . S
C4321 H4329 0.960 . S
C4322 C4320 1.381 . S
C4322 C4323 1.394 . S
C4322 H4330 0.930 . S
C4323 C4322 1.394 . S
C4323 C4324 1.383 . S
C4323 H4331 0.929 . S
C4324 C4323 1.383 . S
C4324 C4325 1.377 . S
C4325 H4309 0.930 . S
C4325 C4324 1.377 . S
C4325 C4326 1.379 . S
C4326 H4310 0.931 . S
C4326 C4320 1.383 . S
C4326 C4325 1.379 . S
H4327 C4321 0.959 . S
H4328 C4321 0.961 . S
H4329 C4321 0.960 . S
H4330 C4322 0.930 . S
H4331 C4323 0.929 . S
H4332 C4340 0.929 . S
H4333 C4342 0.930 . S
H4334 C4344 0.930 . S
H4335 C4347 0.929 . S
H4336 C4350 0.930 . S
H4337 C4352 0.960 . S
H4338 C4352 0.960 . S
H4339 C4352 0.960 . S
C4340 H4332 0.929 . S
C4340 C4341 1.377 . S
C4340 C4342 1.384 . S
C4341 C4340 1.377 . S
C4341 C4347 1.390 . S
C4342 H4333 0.930 . S
C4342 C4340 1.384 . S
C4342 C4343 1.372 . S
C4343 C4342 1.372 . S
C4343 C4344 1.400 . S
C4343 C4348 1.490 . S
C4344 H4334 0.930 . S
C4344 C4343 1.400 . S
C4344 C4347 1.386 . S
H4345 C4361 0.930 . S
H4346 C4362 0.931 . S
C4347 H4335 0.929 . S
C4347 C4341 1.390 . S
C4347 C4344 1.386 . S
C4348 C4343 1.490 . S
C4348 C4350 1.395 . S
C4348 C4351 1.403 . S
H4349 C4355 0.930 . S
C4350 H4336 0.930 . S
C4350 C4348 1.395 . S
C4350 C4353 1.403 . S
C4351 C4348 1.403 . S
C4351 C4352 1.524 . S
C4351 C4355 1.400 . S
C4352 H4337 0.960 . S
C4352 H4338 0.960 . S
C4352 H4339 0.960 . S
C4352 C4351 1.524 . S
C4353 C4350 1.403 . S
C4353 C4354 1.392 . S
C4353 C4357 1.495 . S
C4354 C4353 1.392 . S
C4354 C4355 1.385 . S
C4354 C4356 1.478 . S
C4355 H4349 0.930 . S
C4355 C4351 1.400 . S
C4355 C4354 1.385 . S
C4356 C4354 1.478 . S
C4356 C4358 1.381 . S
C4356 C4362 1.383 . S
C4357 C4353 1.495 . S
C4357 H4363 0.959 . S
C4357 H4364 0.961 . S
C4357 H4365 0.960 . S
C4358 C4356 1.381 . S
C4358 C4359 1.394 . S
C4358 H4366 0.930 . S
C4359 C4358 1.394 . S
C4359 C4360 1.383 . S
C4359 H4367 0.929 . S
C4360 C4359 1.383 . S
C4360 C4361 1.377 . S
C4361 H4345 0.930 . S
C4361 C4360 1.377 . S
C4361 C4362 1.379 . S
C4362 H4346 0.931 . S
C4362 C4356 1.383 . S
C4362 C4361 1.379 . S
H4363 C4357 0.959 . S
H4364 C4357 0.961 . S
H4365 C4357 0.960 . S
H4366 C4358 0.930 . S
H4367 C4359 0.929 . S
H4368 C4376 0.929 . S
H4369 C4378 0.930 . S
H4370 C4380 0.930 . S
H4371 C4383 0.929 . S
H4372 C4386 0.930 . S
H4373 C4388 0.960 . S
H4374 C4388 0.960 . S
H4375 C4388 0.960 . S
C4376 H4368 0.929 . S
C4376 C4377 1.377 . S
C4376 C4378 1.384 . S
C4377 C4376 1.377 . S
C4377 C4383 1.390 . S
C4378 H4369 0.930 . S
C4378 C4376 1.384 . S
C4378 C4379 1.372 . S
C4379 C4378 1.372 . S
C4379 C4380 1.400 . S
C4379 C4384 1.490 . S
C4380 H4370 0.930 . S
C4380 C4379 1.400 . S
C4380 C4383 1.386 . S
H4381 C4397 0.930 . S
H4382 C4398 0.931 . S
C4383 H4371 0.929 . S
C4383 C4377 1.390 . S
C4383 C4380 1.386 . S
C4384 C4379 1.490 . S
C4384 C4386 1.395 . S
C4384 C4387 1.403 . S
H4385 C4391 0.930 . S
C4386 H4372 0.930 . S
C4386 C4384 1.395 . S
C4386 C4389 1.403 . S
C4387 C4384 1.403 . S
C4387 C4388 1.524 . S
C4387 C4391 1.400 . S
C4388 H4373 0.960 . S
C4388 H4374 0.960 . S
C4388 H4375 0.960 . S
C4388 C4387 1.524 . S
C4389 C4386 1.403 . S
C4389 C4390 1.392 . S
C4389 C4393 1.495 . S
C4390 C4389 1.392 . S
C4390 C4391 1.385 . S
C4390 C4392 1.478 . S
C4391 H4385 0.930 . S
C4391 C4387 1.400 . S
C4391 C4390 1.385 . S
C4392 C4390 1.478 . S
C4392 C4394 1.381 . S
C4392 C4398 1.383 . S
C4393 C4389 1.495 . S
C4393 H4399 0.959 . S
C4393 H4400 0.961 . S
C4393 H4401 0.960 . S
C4394 C4392 1.381 . S
C4394 C4395 1.394 . S
C4394 H4402 0.930 . S
C4395 C4394 1.394 . S
C4395 C4396 1.383 . S
C4395 H4403 0.929 . S
C4396 C4395 1.383 . S
C4396 C4397 1.377 . S
C4397 H4381 0.930 . S
C4397 C4396 1.377 . S
C4397 C4398 1.379 . S
C4398 H4382 0.931 . S
C4398 C4392 1.383 . S
C4398 C4397 1.379 . S
H4399 C4393 0.959 . S
H4400 C4393 0.961 . S
H4401 C4393 0.960 . S
H4402 C4394 0.930 . S
H4403 C4395 0.929 . S
H4404 C4412 0.929 . S
H4405 C4414 0.930 . S
H4406 C4416 0.930 . S
H4407 C4419 0.929 . S
H4408 C4422 0.930 . S
H4409 C4424 0.960 . S
H4410 C4424 0.960 . S
H4411 C4424 0.960 . S
C4412 H4404 0.929 . S
C4412 C4413 1.377 . S
C4412 C4414 1.384 . S
C4413 C4412 1.377 . S
C4413 C4419 1.390 . S
C4414 H4405 0.930 . S
C4414 C4412 1.384 . S
C4414 C4415 1.372 . S
C4415 C4414 1.372 . S
C4415 C4416 1.400 . S
C4415 C4420 1.490 . S
C4416 H4406 0.930 . S
C4416 C4415 1.400 . S
C4416 C4419 1.386 . S
H4417 C4433 0.930 . S
H4418 C4434 0.931 . S
C4419 H4407 0.929 . S
C4419 C4413 1.390 . S
C4419 C4416 1.386 . S
C4420 C4415 1.490 . S
C4420 C4422 1.395 . S
C4420 C4423 1.403 . S
H4421 C4427 0.930 . S
C4422 H4408 0.930 . S
C4422 C4420 1.395 . S
C4422 C4425 1.403 . S
C4423 C4420 1.403 . S
C4423 C4424 1.524 . S
C4423 C4427 1.400 . S
C4424 H4409 0.960 . S
C4424 H4410 0.960 . S
C4424 H4411 0.960 . S
C4424 C4423 1.524 . S
C4425 C4422 1.403 . S
C4425 C4426 1.392 . S
C4425 C4429 1.495 . S
C4426 C4425 1.392 . S
C4426 C4427 1.385 . S
C4426 C4428 1.478 . S
C4427 H4421 0.930 . S
C4427 C4423 1.400 . S
C4427 C4426 1.385 . S
C4428 C4426 1.478 . S
C4428 C4430 1.381 . S
C4428 C4434 1.383 . S
C4429 C4425 1.495 . S
C4429 H4435 0.959 . S
C4429 H4436 0.961 . S
C4429 H4437 0.960 . S
C4430 C4428 1.381 . S
C4430 C4431 1.394 . S
C4430 H4438 0.930 . S
C4431 C4430 1.394 . S
C4431 C4432 1.383 . S
C4431 H4439 0.929 . S
C4432 C4431 1.383 . S
C4432 C4433 1.377 . S
C4433 H4417 0.930 . S
C4433 C4432 1.377 . S
C4433 C4434 1.379 . S
C4434 H4418 0.931 . S
C4434 C4428 1.383 . S
C4434 C4433 1.379 . S
H4435 C4429 0.959 . S
H4436 C4429 0.961 . S
H4437 C4429 0.960 . S
H4438 C4430 0.930 . S
H4439 C4431 0.929 . S
H4440 C4448 0.929 . S
H4441 C4450 0.930 . S
H4442 C4452 0.930 . S
H4443 C4455 0.929 . S
H4444 C4458 0.930 . S
H4445 C4460 0.960 . S
H4446 C4460 0.960 . S
H4447 C4460 0.960 . S
C4448 H4440 0.929 . S
C4448 C4449 1.377 . S
C4448 C4450 1.384 . S
C4449 C4448 1.377 . S
C4449 C4455 1.390 . S
C4450 H4441 0.930 . S
C4450 C4448 1.384 . S
C4450 C4451 1.372 . S
C4451 C4450 1.372 . S
C4451 C4452 1.400 . S
C4451 C4456 1.490 . S
C4452 H4442 0.930 . S
C4452 C4451 1.400 . S
C4452 C4455 1.386 . S
H4453 C4469 0.930 . S
H4454 C4470 0.931 . S
C4455 H4443 0.929 . S
C4455 C4449 1.390 . S
C4455 C4452 1.386 . S
C4456 C4451 1.490 . S
C4456 C4458 1.395 . S
C4456 C4459 1.403 . S
H4457 C4463 0.930 . S
C4458 H4444 0.930 . S
C4458 C4456 1.395 . S
C4458 C4461 1.403 . S
C4459 C4456 1.403 . S
C4459 C4460 1.524 . S
C4459 C4463 1.400 . S
C4460 H4445 0.960 . S
C4460 H4446 0.960 . S
C4460 H4447 0.960 . S
C4460 C4459 1.524 . S
C4461 C4458 1.403 . S
C4461 C4462 1.392 . S
C4461 C4465 1.495 . S
C4462 C4461 1.392 . S
C4462 C4463 1.385 . S
C4462 C4464 1.478 . S
C4463 H4457 0.930 . S
C4463 C4459 1.400 . S
C4463 C4462 1.385 . S
C4464 C4462 1.478 . S
C4464 C4466 1.381 . S
C4464 C4470 1.383 . S
C4465 C4461 1.495 . S
C4465 H4471 0.959 . S
C4465 H4472 0.961 . S
C4465 H4473 0.960 . S
C4466 C4464 1.381 . S
C4466 C4467 1.394 . S
C4466 H4474 0.930 . S
C4467 C4466 1.394 . S
C4467 C4468 1.383 . S
C4467 H4475 0.929 . S
C4468 C4467 1.383 . S
C4468 C4469 1.377 . S
C4469 H4453 0.930 . S
C4469 C4468 1.377 . S
C4469 C4470 1.379 . S
C4470 H4454 0.931 . S
C4470 C4464 1.383 . S
C4470 C4469 1.379 . S
H4471 C4465 0.959 . S
H4472 C4465 0.961 . S
H4473 C4465 0.960 . S
H4474 C4466 0.930 . S
H4475 C4467 0.929 . S
H4476 C4484 0.929 . S
H4477 C4486 0.930 . S
H4478 C4488 0.930 . S
H4479 C4491 0.929 . S
H4480 C4494 0.930 . S
H4481 C4496 0.960 . S
H4482 C4496 0.960 . S
H4483 C4496 0.960 . S
C4484 H4476 0.929 . S
C4484 C4485 1.377 . S
C4484 C4486 1.384 . S
C4485 C4484 1.377 . S
C4485 C4491 1.390 . S
C4486 H4477 0.930 . S
C4486 C4484 1.384 . S
C4486 C4487 1.372 . S
C4487 C4486 1.372 . S
C4487 C4488 1.400 . S
C4487 C4492 1.490 . S
C4488 H4478 0.930 . S
C4488 C4487 1.400 . S
C4488 C4491 1.386 . S
H4489 C4505 0.930 . S
H4490 C4506 0.931 . S
C4491 H4479 0.929 . S
C4491 C4485 1.390 . S
C4491 C4488 1.386 . S
C4492 C4487 1.490 . S
C4492 C4494 1.395 . S
C4492 C4495 1.403 . S
H4493 C4499 0.930 . S
C4494 H4480 0.930 . S
C4494 C4492 1.395 . S
C4494 C4497 1.403 . S
C4495 C4492 1.403 . S
C4495 C4496 1.524 . S
C4495 C4499 1.400 . S
C4496 H4481 0.960 . S
C4496 H4482 0.960 . S
C4496 H4483 0.960 . S
C4496 C4495 1.524 . S
C4497 C4494 1.403 . S
C4497 C4498 1.392 . S
C4497 C4501 1.495 . S
C4498 C4497 1.392 . S
C4498 C4499 1.385 . S
C4498 C4500 1.478 . S
C4499 H4493 0.930 . S
C4499 C4495 1.400 . S
C4499 C4498 1.385 . S
C4500 C4498 1.478 . S
C4500 C4502 1.381 . S
C4500 C4506 1.383 . S
C4501 C4497 1.495 . S
C4501 H4507 0.959 . S
C4501 H4508 0.961 . S
C4501 H4509 0.960 . S
C4502 C4500 1.381 . S
C4502 C4503 1.394 . S
C4502 H4510 0.930 . S
C4503 C4502 1.394 . S
C4503 C4504 1.383 . S
C4503 H4511 0.929 . S
C4504 C4503 1.383 . S
C4504 C4505 1.377 . S
C4505 H4489 0.930 . S
C4505 C4504 1.377 . S
C4505 C4506 1.379 . S
C4506 H4490 0.931 . S
C4506 C4500 1.383 . S
C4506 C4505 1.379 . S
H4507 C4501 0.959 . S
H4508 C4501 0.961 . S
H4509 C4501 0.960 . S
H4510 C4502 0.930 . S
H4511 C4503 0.929 . S
H4512 C4520 0.929 . S
H4513 C4522 0.930 . S
H4514 C4524 0.930 . S
H4515 C4527 0.929 . S
H4516 C4530 0.930 . S
H4517 C4532 0.960 . S
H4518 C4532 0.960 . S
H4519 C4532 0.960 . S
C4520 H4512 0.929 . S
C4520 C4521 1.377 . S
C4520 C4522 1.384 . S
C4521 C4520 1.377 . S
C4521 C4527 1.390 . S
C4522 H4513 0.930 . S
C4522 C4520 1.384 . S
C4522 C4523 1.372 . S
C4523 C4522 1.372 . S
C4523 C4524 1.400 . S
C4523 C4528 1.490 . S
C4524 H4514 0.930 . S
C4524 C4523 1.400 . S
C4524 C4527 1.386 . S
H4525 C4541 0.930 . S
H4526 C4542 0.931 . S
C4527 H4515 0.929 . S
C4527 C4521 1.390 . S
C4527 C4524 1.386 . S
C4528 C4523 1.490 . S
C4528 C4530 1.395 . S
C4528 C4531 1.403 . S
H4529 C4535 0.930 . S
C4530 H4516 0.930 . S
C4530 C4528 1.395 . S
C4530 C4533 1.403 . S
C4531 C4528 1.403 . S
C4531 C4532 1.524 . S
C4531 C4535 1.400 . S
C4532 H4517 0.960 . S
C4532 H4518 0.960 . S
C4532 H4519 0.960 . S
C4532 C4531 1.524 . S
C4533 C4530 1.403 . S
C4533 C4534 1.392 . S
C4533 C4537 1.495 . S
C4534 C4533 1.392 . S
C4534 C4535 1.385 . S
C4534 C4536 1.478 . S
C4535 H4529 0.930 . S
C4535 C4531 1.400 . S
C4535 C4534 1.385 . S
C4536 C4534 1.478 . S
C4536 C4538 1.381 . S
C4536 C4542 1.383 . S
C4537 C4533 1.495 . S
C4537 H4543 0.959 . S
C4537 H4544 0.961 . S
C4537 H4545 0.960 . S
C4538 C4536 1.381 . S
C4538 C4539 1.394 . S
C4538 H4546 0.930 . S
C4539 C4538 1.394 . S
C4539 C4540 1.383 . S
C4539 H4547 0.929 . S
C4540 C4539 1.383 . S
C4540 C4541 1.377 . S
C4541 H4525 0.930 . S
C4541 C4540 1.377 . S
C4541 C4542 1.379 . S
C4542 H4526 0.931 . S
C4542 C4536 1.383 . S
C4542 C4541 1.379 . S
H4543 C4537 0.959 . S
H4544 C4537 0.961 . S
H4545 C4537 0.960 . S
H4546 C4538 0.930 . S
H4547 C4539 0.929 . S
H4548 C4556 0.929 . S
H4549 C4558 0.930 . S
H4550 C4560 0.930 . S
H4551 C4563 0.929 . S
H4552 C4566 0.930 . S
H4553 C4568 0.960 . S
H4554 C4568 0.960 . S
H4555 C4568 0.960 . S
C4556 H4548 0.929 . S
C4556 C4557 1.377 . S
C4556 C4558 1.384 . S
C4557 C4556 1.377 . S
C4557 C4563 1.390 . S
C4558 H4549 0.930 . S
C4558 C4556 1.384 . S
C4558 C4559 1.372 . S
C4559 C4558 1.372 . S
C4559 C4560 1.400 . S
C4559 C4564 1.490 . S
C4560 H4550 0.930 . S
C4560 C4559 1.400 . S
C4560 C4563 1.386 . S
H4561 C4577 0.930 . S
H4562 C4578 0.931 . S
C4563 H4551 0.929 . S
C4563 C4557 1.390 . S
C4563 C4560 1.386 . S
C4564 C4559 1.490 . S
C4564 C4566 1.395 . S
C4564 C4567 1.403 . S
H4565 C4571 0.930 . S
C4566 H4552 0.930 . S
C4566 C4564 1.395 . S
C4566 C4569 1.403 . S
C4567 C4564 1.403 . S
C4567 C4568 1.524 . S
C4567 C4571 1.400 . S
C4568 H4553 0.960 . S
C4568 H4554 0.960 . S
C4568 H4555 0.960 . S
C4568 C4567 1.524 . S
C4569 C4566 1.403 . S
C4569 C4570 1.392 . S
C4569 C4573 1.495 . S
C4570 C4569 1.392 . S
C4570 C4571 1.385 . S
C4570 C4572 1.478 . S
C4571 H4565 0.930 . S
C4571 C4567 1.400 . S
C4571 C4570 1.385 . S
C4572 C4570 1.478 . S
C4572 C4574 1.381 . S
C4572 C4578 1.383 . S
C4573 C4569 1.495 . S
C4573 H4579 0.959 . S
C4573 H4580 0.961 . S
C4573 H4581 0.960 . S
C4574 C4572 1.381 . S
C4574 C4575 1.394 . S
C4574 H4582 0.930 . S
C4575 C4574 1.394 . S
C4575 C4576 1.383 . S
C4575 H4583 0.929 . S
C4576 C4575 1.383 . S
C4576 C4577 1.377 . S
C4577 H4561 0.930 . S
C4577 C4576 1.377 . S
C4577 C4578 1.379 . S
C4578 H4562 0.931 . S
C4578 C4572 1.383 . S
C4578 C4577 1.379 . S
H4579 C4573 0.959 . S
H4580 C4573 0.961 . S
H4581 C4573 0.960 . S
H4582 C4574 0.930 . S
H4583 C4575 0.929 . S
H4584 C4592 0.929 . S
H4585 C4594 0.930 . S
H4586 C4596 0.930 . S
H4587 C4599 0.929 . S
H4588 C4602 0.930 . S
H4589 C4604 0.960 . S
H4590 C4604 0.960 . S
H4591 C4604 0.960 . S
C4592 H4584 0.929 . S
C4592 C4593 1.377 . S
C4592 C4594 1.384 . S
C4593 C4592 1.377 . S
C4593 C4599 1.390 . S
C4594 H4585 0.930 . S
C4594 C4592 1.384 . S
C4594 C4595 1.372 . S
C4595 C4594 1.372 . S
C4595 C4596 1.400 . S
C4595 C4600 1.490 . S
C4596 H4586 0.930 . S
C4596 C4595 1.400 . S
C4596 C4599 1.386 . S
H4597 C4613 0.930 . S
H4598 C4614 0.931 . S
C4599 H4587 0.929 . S
C4599 C4593 1.390 . S
C4599 C4596 1.386 . S
C4600 C4595 1.490 . S
C4600 C4602 1.395 . S
C4600 C4603 1.403 . S
H4601 C4607 0.930 . S
C4602 H4588 0.930 . S
C4602 C4600 1.395 . S
C4602 C4605 1.403 . S
C4603 C4600 1.403 . S
C4603 C4604 1.524 . S
C4603 C4607 1.400 . S
C4604 H4589 0.960 . S
C4604 H4590 0.960 . S
C4604 H4591 0.960 . S
C4604 C4603 1.524 . S
C4605 C4602 1.403 . S
C4605 C4606 1.392 . S
C4605 C4609 1.495 . S
C4606 C4605 1.392 . S
C4606 C4607 1.385 . S
C4606 C4608 1.478 . S
C4607 H4601 0.930 . S
C4607 C4603 1.400 . S
C4607 C4606 1.385 . S
C4608 C4606 1.478 . S
C4608 C4610 1.381 . S
C4608 C4614 1.383 . S
C4609 C4605 1.495 . S
C4609 H4615 0.959 . S
C4609 H4616 0.961 . S
C4609 H4617 0.960 . S
C4610 C4608 1.381 . S
C4610 C4611 1.394 . S
C4610 H4618 0.930 . S
C4611 C4610 1.394 . S
C4611 C4612 1.383 . S
C4611 H4619 0.929 . S
C4612 C4611 1.383 . S
C4612 C4613 1.377 . S
C4613 H4597 0.930 . S
C4613 C4612 1.377 . S
C4613 C4614 1.379 . S
C4614 H4598 0.931 . S
C4614 C4608 1.383 . S
C4614 C4613 1.379 . S
H4615 C4609 0.959 . S
H4616 C4609 0.961 . S
H4617 C4609 0.960 . S
H4618 C4610 0.930 . S
H4619 C4611 0.929 . S
H4620 C4628 0.929 . S
H4621 C4630 0.930 . S
H4622 C4632 0.930 . S
H4623 C4635 0.929 . S
H4624 C4638 0.930 . S
H4625 C4640 0.960 . S
H4626 C4640 0.960 . S
H4627 C4640 0.960 . S
C4628 H4620 0.929 . S
C4628 C4629 1.377 . S
C4628 C4630 1.384 . S
C4629 C4628 1.377 . S
C4629 C4635 1.390 . S
C4630 H4621 0.930 . S
C4630 C4628 1.384 . S
C4630 C4631 1.372 . S
C4631 C4630 1.372 . S
C4631 C4632 1.400 . S
C4631 C4636 1.490 . S
C4632 H4622 0.930 . S
C4632 C4631 1.400 . S
C4632 C4635 1.386 . S
H4633 C4649 0.930 . S
H4634 C4650 0.931 . S
C4635 H4623 0.929 . S
C4635 C4629 1.390 . S
C4635 C4632 1.386 . S
C4636 C4631 1.490 . S
C4636 C4638 1.395 . S
C4636 C4639 1.403 . S
H4637 C4643 0.930 . S
C4638 H4624 0.930 . S
C4638 C4636 1.395 . S
C4638 C4641 1.403 . S
C4639 C4636 1.403 . S
C4639 C4640 1.524 . S
C4639 C4643 1.400 . S
C4640 H4625 0.960 . S
C4640 H4626 0.960 . S
C4640 H4627 0.960 . S
C4640 C4639 1.524 . S
C4641 C4638 1.403 . S
C4641 C4642 1.392 . S
C4641 C4645 1.495 . S
C4642 C4641 1.392 . S
C4642 C4643 1.385 . S
C4642 C4644 1.478 . S
C4643 H4637 0.930 . S
C4643 C4639 1.400 . S
C4643 C4642 1.385 . S
C4644 C4642 1.478 . S
C4644 C4646 1.381 . S
C4644 C4650 1.383 . S
C4645 C4641 1.495 . S
C4645 H4651 0.959 . S
C4645 H4652 0.961 . S
C4645 H4653 0.960 . S
C4646 C4644 1.381 . S
C4646 C4647 1.394 . S
C4646 H4654 0.930 . S
C4647 C4646 1.394 . S
C4647 C4648 1.383 . S
C4647 H4655 0.929 . S
C4648 C4647 1.383 . S
C4648 C4649 1.377 . S
C4649 H4633 0.930 . S
C4649 C4648 1.377 . S
C4649 C4650 1.379 . S
C4650 H4634 0.931 . S
C4650 C4644 1.383 . S
C4650 C4649 1.379 . S
H4651 C4645 0.959 . S
H4652 C4645 0.961 . S
H4653 C4645 0.960 . S
H4654 C4646 0.930 . S
H4655 C4647 0.929 . S
H4656 C4664 0.929 . S
H4657 C4666 0.930 . S
H4658 C4668 0.930 . S
H4659 C4671 0.929 . S
H4660 C4674 0.930 . S
H4661 C4676 0.960 . S
H4662 C4676 0.960 . S
H4663 C4676 0.960 . S
C4664 H4656 0.929 . S
C4664 C4665 1.377 . S
C4664 C4666 1.384 . S
C4665 C4664 1.377 . S
C4665 C4671 1.390 . S
C4666 H4657 0.930 . S
C4666 C4664 1.384 . S
C4666 C4667 1.372 . S
C4667 C4666 1.372 . S
C4667 C4668 1.400 . S
C4667 C4672 1.490 . S
C4668 H4658 0.930 . S
C4668 C4667 1.400 . S
C4668 C4671 1.386 . S
H4669 C4685 0.930 . S
H4670 C4686 0.931 . S
C4671 H4659 0.929 . S
C4671 C4665 1.390 . S
C4671 C4668 1.386 . S
C4672 C4667 1.490 . S
C4672 C4674 1.395 . S
C4672 C4675 1.403 . S
H4673 C4679 0.930 . S
C4674 H4660 0.930 . S
C4674 C4672 1.395 . S
C4674 C4677 1.403 . S
C4675 C4672 1.403 . S
C4675 C4676 1.524 . S
C4675 C4679 1.400 . S
C4676 H4661 0.960 . S
C4676 H4662 0.960 . S
C4676 H4663 0.960 . S
C4676 C4675 1.524 . S
C4677 C4674 1.403 . S
C4677 C4678 1.392 . S
C4677 C4681 1.495 . S
C4678 C4677 1.392 . S
C4678 C4679 1.385 . S
C4678 C4680 1.478 . S
C4679 H4673 0.930 . S
C4679 C4675 1.400 . S
C4679 C4678 1.385 . S
C4680 C4678 1.478 . S
C4680 C4682 1.381 . S
C4680 C4686 1.383 . S
C4681 C4677 1.495 . S
C4681 H4687 0.959 . S
C4681 H4688 0.961 . S
C4681 H4689 0.960 . S
C4682 C4680 1.381 . S
C4682 C4683 1.394 . S
C4682 H4690 0.930 . S
C4683 C4682 1.394 . S
C4683 C4684 1.383 . S
C4683 H4691 0.929 . S
C4684 C4683 1.383 . S
C4684 C4685 1.377 . S
C4685 H4669 0.930 . S
C4685 C4684 1.377 . S
C4685 C4686 1.379 . S
C4686 H4670 0.931 . S
C4686 C4680 1.383 . S
C4686 C4685 1.379 . S
H4687 C4681 0.959 . S
H4688 C4681 0.961 . S
H4689 C4681 0.960 . S
H4690 C4682 0.930 . S
H4691 C4683 0.929 . S
H4692 C4700 0.929 . S
H4693 C4702 0.930 . S
H4694 C4704 0.930 . S
H4695 C4707 0.929 . S
H4696 C4710 0.930 . S
H4697 C4712 0.960 . S
H4698 C4712 0.960 . S
H4699 C4712 0.960 . S
C4700 H4692 0.929 . S
C4700 C4701 1.377 . S
C4700 C4702 1.384 . S
C4701 C4700 1.377 . S
C4701 C4707 1.390 . S
C4702 H4693 0.930 . S
C4702 C4700 1.384 . S
C4702 C4703 1.372 . S
C4703 C4702 1.372 . S
C4703 C4704 1.400 . S
C4703 C4708 1.490 . S
C4704 H4694 0.930 . S
C4704 C4703 1.400 . S
C4704 C4707 1.386 . S
H4705 C4721 0.930 . S
H4706 C4722 0.931 . S
C4707 H4695 0.929 . S
C4707 C4701 1.390 . S
C4707 C4704 1.386 . S
C4708 C4703 1.490 . S
C4708 C4710 1.395 . S
C4708 C4711 1.403 . S
H4709 C4715 0.930 . S
C4710 H4696 0.930 . S
C4710 C4708 1.395 . S
C4710 C4713 1.403 . S
C4711 C4708 1.403 . S
C4711 C4712 1.524 . S
C4711 C4715 1.400 . S
C4712 H4697 0.960 . S
C4712 H4698 0.960 . S
C4712 H4699 0.960 . S
C4712 C4711 1.524 . S
C4713 C4710 1.403 . S
C4713 C4714 1.392 . S
C4713 C4717 1.495 . S
C4714 C4713 1.392 . S
C4714 C4715 1.385 . S
C4714 C4716 1.478 . S
C4715 H4709 0.930 . S
C4715 C4711 1.400 . S
C4715 C4714 1.385 . S
C4716 C4714 1.478 . S
C4716 C4718 1.381 . S
C4716 C4722 1.383 . S
C4717 C4713 1.495 . S
C4717 H4723 0.959 . S
C4717 H4724 0.961 . S
C4717 H4725 0.960 . S
C4718 C4716 1.381 . S
C4718 C4719 1.394 . S
C4718 H4726 0.930 . S
C4719 C4718 1.394 . S
C4719 C4720 1.383 . S
C4719 H4727 0.929 . S
C4720 C4719 1.383 . S
C4720 C4721 1.377 . S
C4721 H4705 0.930 . S
C4721 C4720 1.377 . S
C4721 C4722 1.379 . S
C4722 H4706 0.931 . S
C4722 C4716 1.383 . S
C4722 C4721 1.379 . S
H4723 C4717 0.959 . S
H4724 C4717 0.961 . S
H4725 C4717 0.960 . S
H4726 C4718 0.930 . S
H4727 C4719 0.929 . S
H4728 C4736 0.929 . S
H4729 C4738 0.930 . S
H4730 C4740 0.930 . S
H4731 C4743 0.929 . S
H4732 C4746 0.930 . S
H4733 C4748 0.960 . S
H4734 C4748 0.960 . S
H4735 C4748 0.960 . S
C4736 H4728 0.929 . S
C4736 C4737 1.377 . S
C4736 C4738 1.384 . S
C4737 C4736 1.377 . S
C4737 C4743 1.390 . S
C4738 H4729 0.930 . S
C4738 C4736 1.384 . S
C4738 C4739 1.372 . S
C4739 C4738 1.372 . S
C4739 C4740 1.400 . S
C4739 C4744 1.490 . S
C4740 H4730 0.930 . S
C4740 C4739 1.400 . S
C4740 C4743 1.386 . S
H4741 C4757 0.930 . S
H4742 C4758 0.931 . S
C4743 H4731 0.929 . S
C4743 C4737 1.390 . S
C4743 C4740 1.386 . S
C4744 C4739 1.490 . S
C4744 C4746 1.395 . S
C4744 C4747 1.403 . S
H4745 C4751 0.930 . S
C4746 H4732 0.930 . S
C4746 C4744 1.395 . S
C4746 C4749 1.403 . S
C4747 C4744 1.403 . S
C4747 C4748 1.524 . S
C4747 C4751 1.400 . S
C4748 H4733 0.960 . S
C4748 H4734 0.960 . S
C4748 H4735 0.960 . S
C4748 C4747 1.524 . S
C4749 C4746 1.403 . S
C4749 C4750 1.392 . S
C4749 C4753 1.495 . S
C4750 C4749 1.392 . S
C4750 C4751 1.385 . S
C4750 C4752 1.478 . S
C4751 H4745 0.930 . S
C4751 C4747 1.400 . S
C4751 C4750 1.385 . S
C4752 C4750 1.478 . S
C4752 C4754 1.381 . S
C4752 C4758 1.383 . S
C4753 C4749 1.495 . S
C4753 H4759 0.959 . S
C4753 H4760 0.961 . S
C4753 H4761 0.960 . S
C4754 C4752 1.381 . S
C4754 C4755 1.394 . S
C4754 H4762 0.930 . S
C4755 C4754 1.394 . S
C4755 C4756 1.383 . S
C4755 H4763 0.929 . S
C4756 C4755 1.383 . S
C4756 C4757 1.377 . S
C4757 H4741 0.930 . S
C4757 C4756 1.377 . S
C4757 C4758 1.379 . S
C4758 H4742 0.931 . S
C4758 C4752 1.383 . S
C4758 C4757 1.379 . S
H4759 C4753 0.959 . S
H4760 C4753 0.961 . S
H4761 C4753 0.960 . S
H4762 C4754 0.930 . S
H4763 C4755 0.929 . S
H4764 C4772 0.929 . S
H4765 C4774 0.930 . S
H4766 C4776 0.930 . S
H4767 C4779 0.929 . S
H4768 C4782 0.930 . S
H4769 C4784 0.960 . S
H4770 C4784 0.960 . S
H4771 C4784 0.960 . S
C4772 H4764 0.929 . S
C4772 C4773 1.377 . S
C4772 C4774 1.384 . S
C4773 C4772 1.377 . S
C4773 C4779 1.390 . S
C4774 H4765 0.930 . S
C4774 C4772 1.384 . S
C4774 C4775 1.372 . S
C4775 C4774 1.372 . S
C4775 C4776 1.400 . S
C4775 C4780 1.490 . S
C4776 H4766 0.930 . S
C4776 C4775 1.400 . S
C4776 C4779 1.386 . S
H4777 C4793 0.930 . S
H4778 C4794 0.931 . S
C4779 H4767 0.929 . S
C4779 C4773 1.390 . S
C4779 C4776 1.386 . S
C4780 C4775 1.490 . S
C4780 C4782 1.395 . S
C4780 C4783 1.403 . S
H4781 C4787 0.930 . S
C4782 H4768 0.930 . S
C4782 C4780 1.395 . S
C4782 C4785 1.403 . S
C4783 C4780 1.403 . S
C4783 C4784 1.524 . S
C4783 C4787 1.400 . S
C4784 H4769 0.960 . S
C4784 H4770 0.960 . S
C4784 H4771 0.960 . S
C4784 C4783 1.524 . S
C4785 C4782 1.403 . S
C4785 C4786 1.392 . S
C4785 C4789 1.495 . S
C4786 C4785 1.392 . S
C4786 C4787 1.385 . S
C4786 C4788 1.478 . S
C4787 H4781 0.930 . S
C4787 C4783 1.400 . S
C4787 C4786 1.385 . S
C4788 C4786 1.478 . S
C4788 C4790 1.381 . S
C4788 C4794 1.383 . S
C4789 C4785 1.495 . S
C4789 H4795 0.959 . S
C4789 H4796 0.961 . S
C4789 H4797 0.960 . S
C4790 C4788 1.381 . S
C4790 C4791 1.394 . S
C4790 H4798 0.930 . S
C4791 C4790 1.394 . S
C4791 C4792 1.383 . S
C4791 H4799 0.929 . S
C4792 C4791 1.383 . S
C4792 C4793 1.377 . S
C4793 H4777 0.930 . S
C4793 C4792 1.377 . S
C4793 C4794 1.379 . S
C4794 H4778 0.931 . S
C4794 C4788 1.383 . S
C4794 C4793 1.379 . S
H4795 C4789 0.959 . S
H4796 C4789 0.961 . S
H4797 C4789 0.960 . S
H4798 C4790 0.930 . S
H4799 C4791 0.929 . S
H4800 C4808 0.929 . S
H4801 C4810 0.930 . S
H4802 C4812 0.930 . S
H4803 C4815 0.929 . S
H4804 C4818 0.930 . S
H4805 C4820 0.960 . S
H4806 C4820 0.960 . S
H4807 C4820 0.960 . S
C4808 H4800 0.929 . S
C4808 C4809 1.377 . S
C4808 C4810 1.384 . S
C4809 C4808 1.377 . S
C4809 C4815 1.390 . S
C4810 H4801 0.930 . S
C4810 C4808 1.384 . S
C4810 C4811 1.372 . S
C4811 C4810 1.372 . S
C4811 C4812 1.400 . S
C4811 C4816 1.490 . S
C4812 H4802 0.930 . S
C4812 C4811 1.400 . S
C4812 C4815 1.386 . S
H4813 C4829 0.930 . S
H4814 C4830 0.931 . S
C4815 H4803 0.929 . S
C4815 C4809 1.390 . S
C4815 C4812 1.386 . S
C4816 C4811 1.490 . S
C4816 C4818 1.395 . S
C4816 C4819 1.403 . S
H4817 C4823 0.930 . S
C4818 H4804 0.930 . S
C4818 C4816 1.395 . S
C4818 C4821 1.403 . S
C4819 C4816 1.403 . S
C4819 C4820 1.524 . S
C4819 C4823 1.400 . S
C4820 H4805 0.960 . S
C4820 H4806 0.960 . S
C4820 H4807 0.960 . S
C4820 C4819 1.524 . S
C4821 C4818 1.403 . S
C4821 C4822 1.392 . S
C4821 C4825 1.495 . S
C4822 C4821 1.392 . S
C4822 C4823 1.385 . S
C4822 C4824 1.478 . S
C4823 H4817 0.930 . S
C4823 C4819 1.400 . S
C4823 C4822 1.385 . S
C4824 C4822 1.478 . S
C4824 C4826 1.381 . S
C4824 C4830 1.383 . S
C4825 C4821 1.495 . S
C4825 H4831 0.959 . S
C4825 H4832 0.961 . S
C4825 H4833 0.960 . S
C4826 C4824 1.381 . S
C4826 C4827 1.394 . S
C4826 H4834 0.930 . S
C4827 C4826 1.394 . S
C4827 C4828 1.383 . S
C4827 H4835 0.929 . S
C4828 C4827 1.383 . S
C4828 C4829 1.377 . S
C4829 H4813 0.930 . S
C4829 C4828 1.377 . S
C4829 C4830 1.379 . S
C4830 H4814 0.931 . S
C4830 C4824 1.383 . S
C4830 C4829 1.379 . S
H4831 C4825 0.959 . S
H4832 C4825 0.961 . S
H4833 C4825 0.960 . S
H4834 C4826 0.930 . S
H4835 C4827 0.929 . S
H4836 C4844 0.929 . S
H4837 C4846 0.930 . S
H4838 C4848 0.930 . S
H4839 C4851 0.929 . S
H4840 C4854 0.930 . S
H4841 C4856 0.960 . S
H4842 C4856 0.960 . S
H4843 C4856 0.960 . S
C4844 H4836 0.929 . S
C4844 C4845 1.377 . S
C4844 C4846 1.384 . S
C4845 C4844 1.377 . S
C4845 C4851 1.390 . S
C4846 H4837 0.930 . S
C4846 C4844 1.384 . S
C4846 C4847 1.372 . S
C4847 C4846 1.372 . S
C4847 C4848 1.400 . S
C4847 C4852 1.490 . S
C4848 H4838 0.930 . S
C4848 C4847 1.400 . S
C4848 C4851 1.386 . S
H4849 C4865 0.930 . S
H4850 C4866 0.931 . S
C4851 H4839 0.929 . S
C4851 C4845 1.390 . S
C4851 C4848 1.386 . S
C4852 C4847 1.490 . S
C4852 C4854 1.395 . S
C4852 C4855 1.403 . S
H4853 C4859 0.930 . S
C4854 H4840 0.930 . S
C4854 C4852 1.395 . S
C4854 C4857 1.403 . S
C4855 C4852 1.403 . S
C4855 C4856 1.524 . S
C4855 C4859 1.400 . S
C4856 H4841 0.960 . S
C4856 H4842 0.960 . S
C4856 H4843 0.960 . S
C4856 C4855 1.524 . S
C4857 C4854 1.403 . S
C4857 C4858 1.392 . S
C4857 C4861 1.495 . S
C4858 C4857 1.392 . S
C4858 C4859 1.385 . S
C4858 C4860 1.478 . S
C4859 H4853 0.930 . S
C4859 C4855 1.400 . S
C4859 C4858 1.385 . S
C4860 C4858 1.478 . S
C4860 C4862 1.381 . S
C4860 C4866 1.383 . S
C4861 C4857 1.495 . S
C4861 H4867 0.959 . S
C4861 H4868 0.961 . S
C4861 H4869 0.960 . S
C4862 C4860 1.381 . S
C4862 C4863 1.394 . S
C4862 H4870 0.930 . S
C4863 C4862 1.394 . S
C4863 C4864 1.383 . S
C4863 H4871 0.929 . S
C4864 C4863 1.383 . S
C4864 C4865 1.377 . S
C4865 H4849 0.930 . S
C4865 C4864 1.377 . S
C4865 C4866 1.379 . S
C4866 H4850 0.931 . S
C4866 C4860 1.383 . S
C4866 C4865 1.379 . S
H4867 C4861 0.959 . S
H4868 C4861 0.961 . S
H4869 C4861 0.960 . S
H4870 C4862 0.930 . S
H4871 C4863 0.929 . S
H4872 C4880 0.929 . S
H4873 C4882 0.930 . S
H4874 C4884 0.930 . S
H4875 C4887 0.929 . S
H4876 C4890 0.930 . S
H4877 C4892 0.960 . S
H4878 C4892 0.960 . S
H4879 C4892 0.960 . S
C4880 H4872 0.929 . S
C4880 C4881 1.377 . S
C4880 C4882 1.384 . S
C4881 C4880 1.377 . S
C4881 C4887 1.390 . S
C4882 H4873 0.930 . S
C4882 C4880 1.384 . S
C4882 C4883 1.372 . S
C4883 C4882 1.372 . S
C4883 C4884 1.400 . S
C4883 C4888 1.490 . S
C4884 H4874 0.930 . S
C4884 C4883 1.400 . S
C4884 C4887 1.386 . S
H4885 C4901 0.930 . S
H4886 C4902 0.931 . S
C4887 H4875 0.929 . S
C4887 C4881 1.390 . S
C4887 C4884 1.386 . S
C4888 C4883 1.490 . S
C4888 C4890 1.395 . S
C4888 C4891 1.403 . S
H4889 C4895 0.930 . S
C4890 H4876 0.930 . S
C4890 C4888 1.395 . S
C4890 C4893 1.403 . S
C4891 C4888 1.403 . S
C4891 C4892 1.524 . S
C4891 C4895 1.400 . S
C4892 H4877 0.960 . S
C4892 H4878 0.960 . S
C4892 H4879 0.960 . S
C4892 C4891 1.524 . S
C4893 C4890 1.403 . S
C4893 C4894 1.392 . S
C4893 C4897 1.495 . S
C4894 C4893 1.392 . S
C4894 C4895 1.385 . S
C4894 C4896 1.478 . S
C4895 H4889 0.930 . S
C4895 C4891 1.400 . S
C4895 C4894 1.385 . S
C4896 C4894 1.478 . S
C4896 C4898 1.381 . S
C4896 C4902 1.383 . S
C4897 C4893 1.495 . S
C4897 H4903 0.959 . S
C4897 H4904 0.961 . S
C4897 H4905 0.960 . S
C4898 C4896 1.381 . S
C4898 C4899 1.394 . S
C4898 H4906 0.930 . S
C4899 C4898 1.394 . S
C4899 C4900 1.383 . S
C4899 H4907 0.929 . S
C4900 C4899 1.383 . S
C4900 C4901 1.377 . S
C4901 H4885 0.930 . S
C4901 C4900 1.377 . S
C4901 C4902 1.379 . S
C4902 H4886 0.931 . S
C4902 C4896 1.383 . S
C4902 C4901 1.379 . S
H4903 C4897 0.959 . S
H4904 C4897 0.961 . S
H4905 C4897 0.960 . S
H4906 C4898 0.930 . S
H4907 C4899 0.929 . S
H4908 C4916 0.929 . S
H4909 C4918 0.930 . S
H4910 C4920 0.930 . S
H4911 C4923 0.929 . S
H4912 C4926 0.930 . S
H4913 C4928 0.960 . S
H4914 C4928 0.960 . S
H4915 C4928 0.960 . S
C4916 H4908 0.929 . S
C4916 C4917 1.377 . S
C4916 C4918 1.384 . S
C4917 C4916 1.377 . S
C4917 C4923 1.390 . S
C4918 H4909 0.930 . S
C4918 C4916 1.384 . S
C4918 C4919 1.372 . S
C4919 C4918 1.372 . S
C4919 C4920 1.400 . S
C4919 C4924 1.490 . S
C4920 H4910 0.930 . S
C4920 C4919 1.400 . S
C4920 C4923 1.386 . S
H4921 C4937 0.930 . S
H4922 C4938 0.931 . S
C4923 H4911 0.929 . S
C4923 C4917 1.390 . S
C4923 C4920 1.386 . S
C4924 C4919 1.490 . S
C4924 C4926 1.395 . S
C4924 C4927 1.403 . S
H4925 C4931 0.930 . S
C4926 H4912 0.930 . S
C4926 C4924 1.395 . S
C4926 C4929 1.403 . S
C4927 C4924 1.403 . S
C4927 C4928 1.524 . S
C4927 C4931 1.400 . S
C4928 H4913 0.960 . S
C4928 H4914 0.960 . S
C4928 H4915 0.960 . S
C4928 C4927 1.524 . S
C4929 C4926 1.403 . S
C4929 C4930 1.392 . S
C4929 C4933 1.495 . S
C4930 C4929 1.392 . S
C4930 C4931 1.385 . S
C4930 C4932 1.478 . S
C4931 H4925 0.930 . S
C4931 C4927 1.400 . S
C4931 C4930 1.385 . S
C4932 C4930 1.478 . S
C4932 C4934 1.381 . S
C4932 C4938 1.383 . S
C4933 C4929 1.495 . S
C4933 H4939 0.959 . S
C4933 H4940 0.961 . S
C4933 H4941 0.960 . S
C4934 C4932 1.381 . S
C4934 C4935 1.394 . S
C4934 H4942 0.930 . S
C4935 C4934 1.394 . S
C4935 C4936 1.383 . S
C4935 H4943 0.929 . S
C4936 C4935 1.383 . S
C4936 C4937 1.377 . S
C4937 H4921 0.930 . S
C4937 C4936 1.377 . S
C4937 C4938 1.379 . S
C4938 H4922 0.931 . S
C4938 C4932 1.383 . S
C4938 C4937 1.379 . S
H4939 C4933 0.959 . S
H4940 C4933 0.961 . S
H4941 C4933 0.960 . S
H4942 C4934 0.930 . S
H4943 C4935 0.929 . S
H4944 C4952 0.929 . S
H4945 C4954 0.930 . S
H4946 C4956 0.930 . S
H4947 C4959 0.929 . S
H4948 C4962 0.930 . S
H4949 C4964 0.960 . S
H4950 C4964 0.960 . S
H4951 C4964 0.960 . S
C4952 H4944 0.929 . S
C4952 C4953 1.377 . S
C4952 C4954 1.384 . S
C4953 C4952 1.377 . S
C4953 C4959 1.390 . S
C4954 H4945 0.930 . S
C4954 C4952 1.384 . S
C4954 C4955 1.372 . S
C4955 C4954 1.372 . S
C4955 C4956 1.400 . S
C4955 C4960 1.490 . S
C4956 H4946 0.930 . S
C4956 C4955 1.400 . S
C4956 C4959 1.386 . S
H4957 C4973 0.930 . S
H4958 C4974 0.931 . S
C4959 H4947 0.929 . S
C4959 C4953 1.390 . S
C4959 C4956 1.386 . S
C4960 C4955 1.490 . S
C4960 C4962 1.395 . S
C4960 C4963 1.403 . S
H4961 C4967 0.930 . S
C4962 H4948 0.930 . S
C4962 C4960 1.395 . S
C4962 C4965 1.403 . S
C4963 C4960 1.403 . S
C4963 C4964 1.524 . S
C4963 C4967 1.400 . S
C4964 H4949 0.960 . S
C4964 H4950 0.960 . S
C4964 H4951 0.960 . S
C4964 C4963 1.524 . S
C4965 C4962 1.403 . S
C4965 C4966 1.392 . S
C4965 C4969 1.495 . S
C4966 C4965 1.392 . S
C4966 C4967 1.385 . S
C4966 C4968 1.478 . S
C4967 H4961 0.930 . S
C4967 C4963 1.400 . S
C4967 C4966 1.385 . S
C4968 C4966 1.478 . S
C4968 C4970 1.381 . S
C4968 C4974 1.383 . S
C4969 C4965 1.495 . S
C4969 H4975 0.959 . S
C4969 H4976 0.961 . S
C4969 H4977 0.960 . S
C4970 C4968 1.381 . S
C4970 C4971 1.394 . S
C4970 H4978 0.930 . S
C4971 C4970 1.394 . S
C4971 C4972 1.383 . S
C4971 H4979 0.929 . S
C4972 C4971 1.383 . S
C4972 C4973 1.377 . S
C4973 H4957 0.930 . S
C4973 C4972 1.377 . S
C4973 C4974 1.379 . S
C4974 H4958 0.931 . S
C4974 C4968 1.383 . S
C4974 C4973 1.379 . S
H4975 C4969 0.959 . S
H4976 C4969 0.961 . S
H4977 C4969 0.960 . S
H4978 C4970 0.930 . S
H4979 C4971 0.929 . S
H4980 C4988 0.929 . S
H4981 C4990 0.930 . S
H4982 C4992 0.930 . S
H4983 C4995 0.929 . S
H4984 C4998 0.930 . S
H4985 C5000 0.960 . S
H4986 C5000 0.960 . S
H4987 C5000 0.960 . S
C4988 H4980 0.929 . S
C4988 C4989 1.377 . S
C4988 C4990 1.384 . S
C4989 C4988 1.377 . S
C4989 C4995 1.390 . S
C4990 H4981 0.930 . S
C4990 C4988 1.384 . S
C4990 C4991 1.372 . S
C4991 C4990 1.372 . S
C4991 C4992 1.400 . S
C4991 C4996 1.490 . S
C4992 H4982 0.930 . S
C4992 C4991 1.400 . S
C4992 C4995 1.386 . S
H4993 C5009 0.930 . S
H4994 C5010 0.931 . S
C4995 H4983 0.929 . S
C4995 C4989 1.390 . S
C4995 C4992 1.386 . S
C4996 C4991 1.490 . S
C4996 C4998 1.395 . S
C4996 C4999 1.403 . S
H4997 C5003 0.930 . S
C4998 H4984 0.930 . S
C4998 C4996 1.395 . S
C4998 C5001 1.403 . S
C4999 C4996 1.403 . S
C4999 C5000 1.524 . S
C4999 C5003 1.400 . S
C5000 H4985 0.960 . S
C5000 H4986 0.960 . S
C5000 H4987 0.960 . S
C5000 C4999 1.524 . S
C5001 C4998 1.403 . S
C5001 C5002 1.392 . S
C5001 C5005 1.495 . S
C5002 C5001 1.392 . S
C5002 C5003 1.385 . S
C5002 C5004 1.478 . S
C5003 H4997 0.930 . S
C5003 C4999 1.400 . S
C5003 C5002 1.385 . S
C5004 C5002 1.478 . S
C5004 C5006 1.381 . S
C5004 C5010 1.383 . S
C5005 C5001 1.495 . S
C5005 H5011 0.959 . S
C5005 H5012 0.961 . S
C5005 H5013 0.960 . S
C5006 C5004 1.381 . S
C5006 C5007 1.394 . S
C5006 H5014 0.930 . S
C5007 C5006 1.394 . S
C5007 C5008 1.383 . S
C5007 H5015 0.929 . S
C5008 C5007 1.383 . S
C5008 C5009 1.377 . S
C5009 H4993 0.930 . S
C5009 C5008 1.377 . S
C5009 C5010 1.379 . S
C5010 H4994 0.931 . S
C5010 C5004 1.383 . S
C5010 C5009 1.379 . S
H5011 C5005 0.959 . S
H5012 C5005 0.961 . S
H5013 C5005 0.960 . S
H5014 C5006 0.930 . S
H5015 C5007 0.929 . S
H5016 C5024 0.929 . S
H5017 C5026 0.930 . S
H5018 C5028 0.930 . S
H5019 C5031 0.929 . S
H5020 C5034 0.930 . S
H5021 C5036 0.960 . S
H5022 C5036 0.960 . S
H5023 C5036 0.960 . S
C5024 H5016 0.929 . S
C5024 C5025 1.377 . S
C5024 C5026 1.384 . S
C5025 C5024 1.377 . S
C5025 C5031 1.390 . S
C5026 H5017 0.930 . S
C5026 C5024 1.384 . S
C5026 C5027 1.372 . S
C5027 C5026 1.372 . S
C5027 C5028 1.400 . S
C5027 C5032 1.490 . S
C5028 H5018 0.930 . S
C5028 C5027 1.400 . S
C5028 C5031 1.386 . S
H5029 C5045 0.930 . S
H5030 C5046 0.931 . S
C5031 H5019 0.929 . S
C5031 C5025 1.390 . S
C5031 C5028 1.386 . S
C5032 C5027 1.490 . S
C5032 C5034 1.395 . S
C5032 C5035 1.403 . S
H5033 C5039 0.930 . S
C5034 H5020 0.930 . S
C5034 C5032 1.395 . S
C5034 C5037 1.403 . S
C5035 C5032 1.403 . S
C5035 C5036 1.524 . S
C5035 C5039 1.400 . S
C5036 H5021 0.960 . S
C5036 H5022 0.960 . S
C5036 H5023 0.960 . S
C5036 C5035 1.524 . S
C5037 C5034 1.403 . S
C5037 C5038 1.392 . S
C5037 C5041 1.495 . S
C5038 C5037 1.392 . S
C5038 C5039 1.385 . S
C5038 C5040 1.478 . S
C5039 H5033 0.930 . S
C5039 C5035 1.400 . S
C5039 C5038 1.385 . S
C5040 C5038 1.478 . S
C5040 C5042 1.381 . S
C5040 C5046 1.383 . S
C5041 C5037 1.495 . S
C5041 H5047 0.959 . S
C5041 H5048 0.961 . S
C5041 H5049 0.960 . S
C5042 C5040 1.381 . S
C5042 C5043 1.394 . S
C5042 H5050 0.930 . S
C5043 C5042 1.394 . S
C5043 C5044 1.383 . S
C5043 H5051 0.929 . S
C5044 C5043 1.383 . S
C5044 C5045 1.377 . S
C5045 H5029 0.930 . S
C5045 C5044 1.377 . S
C5045 C5046 1.379 . S
C5046 H5030 0.931 . S
C5046 C5040 1.383 . S
C5046 C5045 1.379 . S
H5047 C5041 0.959 . S
H5048 C5041 0.961 . S
H5049 C5041 0.960 . S
H5050 C5042 0.930 . S
H5051 C5043 0.929 . S
H5052 C5060 0.929 . S
H5053 C5062 0.930 . S
H5054 C5064 0.930 . S
H5055 C5067 0.929 . S
H5056 C5070 0.930 . S
H5057 C5072 0.960 . S
H5058 C5072 0.960 . S
H5059 C5072 0.960 . S
C5060 H5052 0.929 . S
C5060 C5061 1.377 . S
C5060 C5062 1.384 . S
C5061 C5060 1.377 . S
C5061 C5067 1.390 . S
C5062 H5053 0.930 . S
C5062 C5060 1.384 . S
C5062 C5063 1.372 . S
C5063 C5062 1.372 . S
C5063 C5064 1.400 . S
C5063 C5068 1.490 . S
C5064 H5054 0.930 . S
C5064 C5063 1.400 . S
C5064 C5067 1.386 . S
H5065 C5081 0.930 . S
H5066 C5082 0.931 . S
C5067 H5055 0.929 . S
C5067 C5061 1.390 . S
C5067 C5064 1.386 . S
C5068 C5063 1.490 . S
C5068 C5070 1.395 . S
C5068 C5071 1.403 . S
H5069 C5075 0.930 . S
C5070 H5056 0.930 . S
C5070 C5068 1.395 . S
C5070 C5073 1.403 . S
C5071 C5068 1.403 . S
C5071 C5072 1.524 . S
C5071 C5075 1.400 . S
C5072 H5057 0.960 . S
C5072 H5058 0.960 . S
C5072 H5059 0.960 . S
C5072 C5071 1.524 . S
C5073 C5070 1.403 . S
C5073 C5074 1.392 . S
C5073 C5077 1.495 . S
C5074 C5073 1.392 . S
C5074 C5075 1.385 . S
C5074 C5076 1.478 . S
C5075 H5069 0.930 . S
C5075 C5071 1.400 . S
C5075 C5074 1.385 . S
C5076 C5074 1.478 . S
C5076 C5078 1.381 . S
C5076 C5082 1.383 . S
C5077 C5073 1.495 . S
C5077 H5083 0.959 . S
C5077 H5084 0.961 . S
C5077 H5085 0.960 . S
C5078 C5076 1.381 . S
C5078 C5079 1.394 . S
C5078 H5086 0.930 . S
C5079 C5078 1.394 . S
C5079 C5080 1.383 . S
C5079 H5087 0.929 . S
C5080 C5079 1.383 . S
C5080 C5081 1.377 . S
C5081 H5065 0.930 . S
C5081 C5080 1.377 . S
C5081 C5082 1.379 . S
C5082 H5066 0.931 . S
C5082 C5076 1.383 . S
C5082 C5081 1.379 . S
H5083 C5077 0.959 . S
H5084 C5077 0.961 . S
H5085 C5077 0.960 . S
H5086 C5078 0.930 . S
H5087 C5079 0.929 . S
H5088 C5096 0.929 . S
H5089 C5098 0.930 . S
H5090 C5100 0.930 . S
H5091 C5103 0.929 . S
H5092 C5106 0.930 . S
H5093 C5108 0.960 . S
H5094 C5108 0.960 . S
H5095 C5108 0.960 . S
C5096 H5088 0.929 . S
C5096 C5097 1.377 . S
C5096 C5098 1.384 . S
C5097 C5096 1.377 . S
C5097 C5103 1.390 . S
C5098 H5089 0.930 . S
C5098 C5096 1.384 . S
C5098 C5099 1.372 . S
C5099 C5098 1.372 . S
C5099 C5100 1.400 . S
C5099 C5104 1.490 . S
C5100 H5090 0.930 . S
C5100 C5099 1.400 . S
C5100 C5103 1.386 . S
H5101 C5117 0.930 . S
H5102 C5118 0.931 . S
C5103 H5091 0.929 . S
C5103 C5097 1.390 . S
C5103 C5100 1.386 . S
C5104 C5099 1.490 . S
C5104 C5106 1.395 . S
C5104 C5107 1.403 . S
H5105 C5111 0.930 . S
C5106 H5092 0.930 . S
C5106 C5104 1.395 . S
C5106 C5109 1.403 . S
C5107 C5104 1.403 . S
C5107 C5108 1.524 . S
C5107 C5111 1.400 . S
C5108 H5093 0.960 . S
C5108 H5094 0.960 . S
C5108 H5095 0.960 . S
C5108 C5107 1.524 . S
C5109 C5106 1.403 . S
C5109 C5110 1.392 . S
C5109 C5113 1.495 . S
C5110 C5109 1.392 . S
C5110 C5111 1.385 . S
C5110 C5112 1.478 . S
C5111 H5105 0.930 . S
C5111 C5107 1.400 . S
C5111 C5110 1.385 . S
C5112 C5110 1.478 . S
C5112 C5114 1.381 . S
C5112 C5118 1.383 . S
C5113 C5109 1.495 . S
C5113 H5119 0.959 . S
C5113 H5120 0.961 . S
C5113 H5121 0.960 . S
C5114 C5112 1.381 . S
C5114 C5115 1.394 . S
C5114 H5122 0.930 . S
C5115 C5114 1.394 . S
C5115 C5116 1.383 . S
C5115 H5123 0.929 . S
C5116 C5115 1.383 . S
C5116 C5117 1.377 . S
C5117 H5101 0.930 . S
C5117 C5116 1.377 . S
C5117 C5118 1.379 . S
C5118 H5102 0.931 . S
C5118 C5112 1.383 . S
C5118 C5117 1.379 . S
H5119 C5113 0.959 . S
H5120 C5113 0.961 . S
H5121 C5113 0.960 . S
H5122 C5114 0.930 . S
H5123 C5115 0.929 . S
H5124 C5132 0.929 . S
H5125 C5134 0.930 . S
H5126 C5136 0.930 . S
H5127 C5139 0.929 . S
H5128 C5142 0.930 . S
H5129 C5144 0.960 . S
H5130 C5144 0.960 . S
H5131 C5144 0.960 . S
C5132 H5124 0.929 . S
C5132 C5133 1.377 . S
C5132 C5134 1.384 . S
C5133 C5132 1.377 . S
C5133 C5139 1.390 . S
C5134 H5125 0.930 . S
C5134 C5132 1.384 . S
C5134 C5135 1.372 . S
C5135 C5134 1.372 . S
C5135 C5136 1.400 . S
C5135 C5140 1.490 . S
C5136 H5126 0.930 . S
C5136 C5135 1.400 . S
C5136 C5139 1.386 . S
H5137 C5153 0.930 . S
H5138 C5154 0.931 . S
C5139 H5127 0.929 . S
C5139 C5133 1.390 . S
C5139 C5136 1.386 . S
C5140 C5135 1.490 . S
C5140 C5142 1.395 . S
C5140 C5143 1.403 . S
H5141 C5147 0.930 . S
C5142 H5128 0.930 . S
C5142 C5140 1.395 . S
C5142 C5145 1.403 . S
C5143 C5140 1.403 . S
C5143 C5144 1.524 . S
C5143 C5147 1.400 . S
C5144 H5129 0.960 . S
C5144 H5130 0.960 . S
C5144 H5131 0.960 . S
C5144 C5143 1.524 . S
C5145 C5142 1.403 . S
C5145 C5146 1.392 . S
C5145 C5149 1.495 . S
C5146 C5145 1.392 . S
C5146 C5147 1.385 . S
C5146 C5148 1.478 . S
C5147 H5141 0.930 . S
C5147 C5143 1.400 . S
C5147 C5146 1.385 . S
C5148 C5146 1.478 . S
C5148 C5150 1.381 . S
C5148 C5154 1.383 . S
C5149 C5145 1.495 . S
C5149 H5155 0.959 . S
C5149 H5156 0.961 . S
C5149 H5157 0.960 . S
C5150 C5148 1.381 . S
C5150 C5151 1.394 . S
C5150 H5158 0.930 . S
C5151 C5150 1.394 . S
C5151 C5152 1.383 . S
C5151 H5159 0.929 . S
C5152 C5151 1.383 . S
C5152 C5153 1.377 . S
C5153 H5137 0.930 . S
C5153 C5152 1.377 . S
C5153 C5154 1.379 . S
C5154 H5138 0.931 . S
C5154 C5148 1.383 . S
C5154 C5153 1.379 . S
H5155 C5149 0.959 . S
H5156 C5149 0.961 . S
H5157 C5149 0.960 . S
H5158 C5150 0.930 . S
H5159 C5151 0.929 . S
H5160 C5168 0.929 . S
H5161 C5170 0.930 . S
H5162 C5172 0.930 . S
H5163 C5175 0.929 . S
H5164 C5178 0.930 . S
H5165 C5180 0.960 . S
H5166 C5180 0.960 . S
H5167 C5180 0.960 . S
C5168 H5160 0.929 . S
C5168 C5169 1.377 . S
C5168 C5170 1.384 . S
C5169 C5168 1.377 . S
C5169 C5175 1.390 . S
C5170 H5161 0.930 . S
C5170 C5168 1.384 . S
C5170 C5171 1.372 . S
C5171 C5170 1.372 . S
C5171 C5172 1.400 . S
C5171 C5176 1.490 . S
C5172 H5162 0.930 . S
C5172 C5171 1.400 . S
C5172 C5175 1.386 . S
H5173 C5189 0.930 . S
H5174 C5190 0.931 . S
C5175 H5163 0.929 . S
C5175 C5169 1.390 . S
C5175 C5172 1.386 . S
C5176 C5171 1.490 . S
C5176 C5178 1.395 . S
C5176 C5179 1.403 . S
H5177 C5183 0.930 . S
C5178 H5164 0.930 . S
C5178 C5176 1.395 . S
C5178 C5181 1.403 . S
C5179 C5176 1.403 . S
C5179 C5180 1.524 . S
C5179 C5183 1.400 . S
C5180 H5165 0.960 . S
C5180 H5166 0.960 . S
C5180 H5167 0.960 . S
C5180 C5179 1.524 . S
C5181 C5178 1.403 . S
C5181 C5182 1.392 . S
C5181 C5185 1.495 . S
C5182 C5181 1.392 . S
C5182 C5183 1.385 . S
C5182 C5184 1.478 . S
C5183 H5177 0.930 . S
C5183 C5179 1.400 . S
C5183 C5182 1.385 . S
C5184 C5182 1.478 . S
C5184 C5186 1.381 . S
C5184 C5190 1.383 . S
C5185 C5181 1.495 . S
C5185 H5191 0.959 . S
C5185 H5192 0.961 . S
C5185 H5193 0.960 . S
C5186 C5184 1.381 . S
C5186 C5187 1.394 . S
C5186 H5194 0.930 . S
C5187 C5186 1.394 . S
C5187 C5188 1.383 . S
C5187 H5195 0.929 . S
C5188 C5187 1.383 . S
C5188 C5189 1.377 . S
C5189 H5173 0.930 . S
C5189 C5188 1.377 . S
C5189 C5190 1.379 . S
C5190 H5174 0.931 . S
C5190 C5184 1.383 . S
C5190 C5189 1.379 . S
H5191 C5185 0.959 . S
H5192 C5185 0.961 . S
H5193 C5185 0.960 . S
H5194 C5186 0.930 . S
H5195 C5187 0.929 . S
H5196 C5204 0.929 . S
H5197 C5206 0.930 . S
H5198 C5208 0.930 . S
H5199 C5211 0.929 . S
H5200 C5214 0.930 . S
H5201 C5216 0.960 . S
H5202 C5216 0.960 . S
H5203 C5216 0.960 . S
C5204 H5196 0.929 . S
C5204 C5205 1.377 . S
C5204 C5206 1.384 . S
C5205 C5204 1.377 . S
C5205 C5211 1.390 . S
C5206 H5197 0.930 . S
C5206 C5204 1.384 . S
C5206 C5207 1.372 . S
C5207 C5206 1.372 . S
C5207 C5208 1.400 . S
C5207 C5212 1.490 . S
C5208 H5198 0.930 . S
C5208 C5207 1.400 . S
C5208 C5211 1.386 . S
H5209 C5225 0.930 . S
H5210 C5226 0.931 . S
C5211 H5199 0.929 . S
C5211 C5205 1.390 . S
C5211 C5208 1.386 . S
C5212 C5207 1.490 . S
C5212 C5214 1.395 . S
C5212 C5215 1.403 . S
H5213 C5219 0.930 . S
C5214 H5200 0.930 . S
C5214 C5212 1.395 . S
C5214 C5217 1.403 . S
C5215 C5212 1.403 . S
C5215 C5216 1.524 . S
C5215 C5219 1.400 . S
C5216 H5201 0.960 . S
C5216 H5202 0.960 . S
C5216 H5203 0.960 . S
C5216 C5215 1.524 . S
C5217 C5214 1.403 . S
C5217 C5218 1.392 . S
C5217 C5221 1.495 . S
C5218 C5217 1.392 . S
C5218 C5219 1.385 . S
C5218 C5220 1.478 . S
C5219 H5213 0.930 . S
C5219 C5215 1.400 . S
C5219 C5218 1.385 . S
C5220 C5218 1.478 . S
C5220 C5222 1.381 . S
C5220 C5226 1.383 . S
C5221 C5217 1.495 . S
C5221 H5227 0.959 . S
C5221 H5228 0.961 . S
C5221 H5229 0.960 . S
C5222 C5220 1.381 . S
C5222 C5223 1.394 . S
C5222 H5230 0.930 . S
C5223 C5222 1.394 . S
C5223 C5224 1.383 . S
C5223 H5231 0.929 . S
C5224 C5223 1.383 . S
C5224 C5225 1.377 . S
C5225 H5209 0.930 . S
C5225 C5224 1.377 . S
C5225 C5226 1.379 . S
C5226 H5210 0.931 . S
C5226 C5220 1.383 . S
C5226 C5225 1.379 . S
H5227 C5221 0.959 . S
H5228 C5221 0.961 . S
H5229 C5221 0.960 . S
H5230 C5222 0.930 . S
H5231 C5223 0.929 . S
H5232 C5240 0.929 . S
H5233 C5242 0.930 . S
H5234 C5244 0.930 . S
H5235 C5247 0.929 . S
H5236 C5250 0.930 . S
H5237 C5252 0.960 . S
H5238 C5252 0.960 . S
H5239 C5252 0.960 . S
C5240 H5232 0.929 . S
C5240 C5241 1.377 . S
C5240 C5242 1.384 . S
C5241 C5240 1.377 . S
C5241 C5247 1.390 . S
C5242 H5233 0.930 . S
C5242 C5240 1.384 . S
C5242 C5243 1.372 . S
C5243 C5242 1.372 . S
C5243 C5244 1.400 . S
C5243 C5248 1.490 . S
C5244 H5234 0.930 . S
C5244 C5243 1.400 . S
C5244 C5247 1.386 . S
H5245 C5261 0.930 . S
H5246 C5262 0.931 . S
C5247 H5235 0.929 . S
C5247 C5241 1.390 . S
C5247 C5244 1.386 . S
C5248 C5243 1.490 . S
C5248 C5250 1.395 . S
C5248 C5251 1.403 . S
H5249 C5255 0.930 . S
C5250 H5236 0.930 . S
C5250 C5248 1.395 . S
C5250 C5253 1.403 . S
C5251 C5248 1.403 . S
C5251 C5252 1.524 . S
C5251 C5255 1.400 . S
C5252 H5237 0.960 . S
C5252 H5238 0.960 . S
C5252 H5239 0.960 . S
C5252 C5251 1.524 . S
C5253 C5250 1.403 . S
C5253 C5254 1.392 . S
C5253 C5257 1.495 . S
C5254 C5253 1.392 . S
C5254 C5255 1.385 . S
C5254 C5256 1.478 . S
C5255 H5249 0.930 . S
C5255 C5251 1.400 . S
C5255 C5254 1.385 . S
C5256 C5254 1.478 . S
C5256 C5258 1.381 . S
C5256 C5262 1.383 . S
C5257 C5253 1.495 . S
C5257 H5263 0.959 . S
C5257 H5264 0.961 . S
C5257 H5265 0.960 . S
C5258 C5256 1.381 . S
C5258 C5259 1.394 . S
C5258 H5266 0.930 . S
C5259 C5258 1.394 . S
C5259 C5260 1.383 . S
C5259 H5267 0.929 . S
C5260 C5259 1.383 . S
C5260 C5261 1.377 . S
C5261 H5245 0.930 . S
C5261 C5260 1.377 . S
C5261 C5262 1.379 . S
C5262 H5246 0.931 . S
C5262 C5256 1.383 . S
C5262 C5261 1.379 . S
H5263 C5257 0.959 . S
H5264 C5257 0.961 . S
H5265 C5257 0.960 . S
H5266 C5258 0.930 . S
H5267 C5259 0.929 . S
H5268 C5276 0.929 . S
H5269 C5278 0.930 . S
H5270 C5280 0.930 . S
H5271 C5283 0.929 . S
H5272 C5286 0.930 . S
H5273 C5288 0.960 . S
H5274 C5288 0.960 . S
H5275 C5288 0.960 . S
C5276 H5268 0.929 . S
C5276 C5277 1.377 . S
C5276 C5278 1.384 . S
C5277 C5276 1.377 . S
C5277 C5283 1.390 . S
C5278 H5269 0.930 . S
C5278 C5276 1.384 . S
C5278 C5279 1.372 . S
C5279 C5278 1.372 . S
C5279 C5280 1.400 . S
C5279 C5284 1.490 . S
C5280 H5270 0.930 . S
C5280 C5279 1.400 . S
C5280 C5283 1.386 . S
H5281 C5297 0.930 . S
H5282 C5298 0.931 . S
C5283 H5271 0.929 . S
C5283 C5277 1.390 . S
C5283 C5280 1.386 . S
C5284 C5279 1.490 . S
C5284 C5286 1.395 . S
C5284 C5287 1.403 . S
H5285 C5291 0.930 . S
C5286 H5272 0.930 . S
C5286 C5284 1.395 . S
C5286 C5289 1.403 . S
C5287 C5284 1.403 . S
C5287 C5288 1.524 . S
C5287 C5291 1.400 . S
C5288 H5273 0.960 . S
C5288 H5274 0.960 . S
C5288 H5275 0.960 . S
C5288 C5287 1.524 . S
C5289 C5286 1.403 . S
C5289 C5290 1.392 . S
C5289 C5293 1.495 . S
C5290 C5289 1.392 . S
C5290 C5291 1.385 . S
C5290 C5292 1.478 . S
C5291 H5285 0.930 . S
C5291 C5287 1.400 . S
C5291 C5290 1.385 . S
C5292 C5290 1.478 . S
C5292 C5294 1.381 . S
C5292 C5298 1.383 . S
C5293 C5289 1.495 . S
C5293 H5299 0.959 . S
C5293 H5300 0.961 . S
C5293 H5301 0.960 . S
C5294 C5292 1.381 . S
C5294 C5295 1.394 . S
C5294 H5302 0.930 . S
C5295 C5294 1.394 . S
C5295 C5296 1.383 . S
C5295 H5303 0.929 . S
C5296 C5295 1.383 . S
C5296 C5297 1.377 . S
C5297 H5281 0.930 . S
C5297 C5296 1.377 . S
C5297 C5298 1.379 . S
C5298 H5282 0.931 . S
C5298 C5292 1.383 . S
C5298 C5297 1.379 . S
H5299 C5293 0.959 . S
H5300 C5293 0.961 . S
H5301 C5293 0.960 . S
H5302 C5294 0.930 . S
H5303 C5295 0.929 . S
H5304 C5312 0.929 . S
H5305 C5314 0.930 . S
H5306 C5316 0.930 . S
H5307 C5319 0.929 . S
H5308 C5322 0.930 . S
H5309 C5324 0.960 . S
H5310 C5324 0.960 . S
H5311 C5324 0.960 . S
C5312 H5304 0.929 . S
C5312 C5313 1.377 . S
C5312 C5314 1.384 . S
C5313 C5312 1.377 . S
C5313 C5319 1.390 . S
C5314 H5305 0.930 . S
C5314 C5312 1.384 . S
C5314 C5315 1.372 . S
C5315 C5314 1.372 . S
C5315 C5316 1.400 . S
C5315 C5320 1.490 . S
C5316 H5306 0.930 . S
C5316 C5315 1.400 . S
C5316 C5319 1.386 . S
H5317 C5333 0.930 . S
H5318 C5334 0.931 . S
C5319 H5307 0.929 . S
C5319 C5313 1.390 . S
C5319 C5316 1.386 . S
C5320 C5315 1.490 . S
C5320 C5322 1.395 . S
C5320 C5323 1.403 . S
H5321 C5327 0.930 . S
C5322 H5308 0.930 . S
C5322 C5320 1.395 . S
C5322 C5325 1.403 . S
C5323 C5320 1.403 . S
C5323 C5324 1.524 . S
C5323 C5327 1.400 . S
C5324 H5309 0.960 . S
C5324 H5310 0.960 . S
C5324 H5311 0.960 . S
C5324 C5323 1.524 . S
C5325 C5322 1.403 . S
C5325 C5326 1.392 . S
C5325 C5329 1.495 . S
C5326 C5325 1.392 . S
C5326 C5327 1.385 . S
C5326 C5328 1.478 . S
C5327 H5321 0.930 . S
C5327 C5323 1.400 . S
C5327 C5326 1.385 . S
C5328 C5326 1.478 . S
C5328 C5330 1.381 . S
C5328 C5334 1.383 . S
C5329 C5325 1.495 . S
C5329 H5335 0.959 . S
C5329 H5336 0.961 . S
C5329 H5337 0.960 . S
C5330 C5328 1.381 . S
C5330 C5331 1.394 . S
C5330 H5338 0.930 . S
C5331 C5330 1.394 . S
C5331 C5332 1.383 . S
C5331 H5339 0.929 . S
C5332 C5331 1.383 . S
C5332 C5333 1.377 . S
C5333 H5317 0.930 . S
C5333 C5332 1.377 . S
C5333 C5334 1.379 . S
C5334 H5318 0.931 . S
C5334 C5328 1.383 . S
C5334 C5333 1.379 . S
H5335 C5329 0.959 . S
H5336 C5329 0.961 . S
H5337 C5329 0.960 . S
H5338 C5330 0.930 . S
H5339 C5331 0.929 . S
H5340 C5348 0.929 . S
H5341 C5350 0.930 . S
H5342 C5352 0.930 . S
H5343 C5355 0.929 . S
H5344 C5358 0.930 . S
H5345 C5360 0.960 . S
H5346 C5360 0.960 . S
H5347 C5360 0.960 . S
C5348 H5340 0.929 . S
C5348 C5349 1.377 . S
C5348 C5350 1.384 . S
C5349 C5348 1.377 . S
C5349 C5355 1.390 . S
C5350 H5341 0.930 . S
C5350 C5348 1.384 . S
C5350 C5351 1.372 . S
C5351 C5350 1.372 . S
C5351 C5352 1.400 . S
C5351 C5356 1.490 . S
C5352 H5342 0.930 . S
C5352 C5351 1.400 . S
C5352 C5355 1.386 . S
H5353 C5369 0.930 . S
H5354 C5370 0.931 . S
C5355 H5343 0.929 . S
C5355 C5349 1.390 . S
C5355 C5352 1.386 . S
C5356 C5351 1.490 . S
C5356 C5358 1.395 . S
C5356 C5359 1.403 . S
H5357 C5363 0.930 . S
C5358 H5344 0.930 . S
C5358 C5356 1.395 . S
C5358 C5361 1.403 . S
C5359 C5356 1.403 . S
C5359 C5360 1.524 . S
C5359 C5363 1.400 . S
C5360 H5345 0.960 . S
C5360 H5346 0.960 . S
C5360 H5347 0.960 . S
C5360 C5359 1.524 . S
C5361 C5358 1.403 . S
C5361 C5362 1.392 . S
C5361 C5365 1.495 . S
C5362 C5361 1.392 . S
C5362 C5363 1.385 . S
C5362 C5364 1.478 . S
C5363 H5357 0.930 . S
C5363 C5359 1.400 . S
C5363 C5362 1.385 . S
C5364 C5362 1.478 . S
C5364 C5366 1.381 . S
C5364 C5370 1.383 . S
C5365 C5361 1.495 . S
C5365 H5371 0.959 . S
C5365 H5372 0.961 . S
C5365 H5373 0.960 . S
C5366 C5364 1.381 . S
C5366 C5367 1.394 . S
C5366 H5374 0.930 . S
C5367 C5366 1.394 . S
C5367 C5368 1.383 . S
C5367 H5375 0.929 . S
C5368 C5367 1.383 . S
C5368 C5369 1.377 . S
C5369 H5353 0.930 . S
C5369 C5368 1.377 . S
C5369 C5370 1.379 . S
C5370 H5354 0.931 . S
C5370 C5364 1.383 . S
C5370 C5369 1.379 . S
H5371 C5365 0.959 . S
H5372 C5365 0.961 . S
H5373 C5365 0.960 . S
H5374 C5366 0.930 . S
H5375 C5367 0.929 . S
H5376 C5384 0.929 . S
H5377 C5386 0.930 . S
H5378 C5388 0.930 . S
H5379 C5391 0.929 . S
H5380 C5394 0.930 . S
H5381 C5396 0.960 . S
H5382 C5396 0.960 . S
H5383 C5396 0.960 . S
C5384 H5376 0.929 . S
C5384 C5385 1.377 . S
C5384 C5386 1.384 . S
C5385 C5384 1.377 . S
C5385 C5391 1.390 . S
C5386 H5377 0.930 . S
C5386 C5384 1.384 . S
C5386 C5387 1.372 . S
C5387 C5386 1.372 . S
C5387 C5388 1.400 . S
C5387 C5392 1.490 . S
C5388 H5378 0.930 . S
C5388 C5387 1.400 . S
C5388 C5391 1.386 . S
H5389 C5405 0.930 . S
H5390 C5406 0.931 . S
C5391 H5379 0.929 . S
C5391 C5385 1.390 . S
C5391 C5388 1.386 . S
C5392 C5387 1.490 . S
C5392 C5394 1.395 . S
C5392 C5395 1.403 . S
H5393 C5399 0.930 . S
C5394 H5380 0.930 . S
C5394 C5392 1.395 . S
C5394 C5397 1.403 . S
C5395 C5392 1.403 . S
C5395 C5396 1.524 . S
C5395 C5399 1.400 . S
C5396 H5381 0.960 . S
C5396 H5382 0.960 . S
C5396 H5383 0.960 . S
C5396 C5395 1.524 . S
C5397 C5394 1.403 . S
C5397 C5398 1.392 . S
C5397 C5401 1.495 . S
C5398 C5397 1.392 . S
C5398 C5399 1.385 . S
C5398 C5400 1.478 . S
C5399 H5393 0.930 . S
C5399 C5395 1.400 . S
C5399 C5398 1.385 . S
C5400 C5398 1.478 . S
C5400 C5402 1.381 . S
C5400 C5406 1.383 . S
C5401 C5397 1.495 . S
C5401 H5407 0.959 . S
C5401 H5408 0.961 . S
C5401 H5409 0.960 . S
C5402 C5400 1.381 . S
C5402 C5403 1.394 . S
C5402 H5410 0.930 . S
C5403 C5402 1.394 . S
C5403 C5404 1.383 . S
C5403 H5411 0.929 . S
C5404 C5403 1.383 . S
C5404 C5405 1.377 . S
C5405 H5389 0.930 . S
C5405 C5404 1.377 . S
C5405 C5406 1.379 . S
C5406 H5390 0.931 . S
C5406 C5400 1.383 . S
C5406 C5405 1.379 . S
H5407 C5401 0.959 . S
H5408 C5401 0.961 . S
H5409 C5401 0.960 . S
H5410 C5402 0.930 . S
H5411 C5403 0.929 . S
H5412 C5420 0.929 . S
H5413 C5422 0.930 . S
H5414 C5424 0.930 . S
H5415 C5427 0.929 . S
H5416 C5430 0.930 . S
H5417 C5432 0.960 . S
H5418 C5432 0.960 . S
H5419 C5432 0.960 . S
C5420 H5412 0.929 . S
C5420 C5421 1.377 . S
C5420 C5422 1.384 . S
C5421 C5420 1.377 . S
C5421 C5427 1.390 . S
C5422 H5413 0.930 . S
C5422 C5420 1.384 . S
C5422 C5423 1.372 . S
C5423 C5422 1.372 . S
C5423 C5424 1.400 . S
C5423 C5428 1.490 . S
C5424 H5414 0.930 . S
C5424 C5423 1.400 . S
C5424 C5427 1.386 . S
H5425 C5441 0.930 . S
H5426 C5442 0.931 . S
C5427 H5415 0.929 . S
C5427 C5421 1.390 . S
C5427 C5424 1.386 . S
C5428 C5423 1.490 . S
C5428 C5430 1.395 . S
C5428 C5431 1.403 . S
H5429 C5435 0.930 . S
C5430 H5416 0.930 . S
C5430 C5428 1.395 . S
C5430 C5433 1.403 . S
C5431 C5428 1.403 . S
C5431 C5432 1.524 . S
C5431 C5435 1.400 . S
C5432 H5417 0.960 . S
C5432 H5418 0.960 . S
C5432 H5419 0.960 . S
C5432 C5431 1.524 . S
C5433 C5430 1.403 . S
C5433 C5434 1.392 . S
C5433 C5437 1.495 . S
C5434 C5433 1.392 . S
C5434 C5435 1.385 . S
C5434 C5436 1.478 . S
C5435 H5429 0.930 . S
C5435 C5431 1.400 . S
C5435 C5434 1.385 . S
C5436 C5434 1.478 . S
C5436 C5438 1.381 . S
C5436 C5442 1.383 . S
C5437 C5433 1.495 . S
C5437 H5443 0.959 . S
C5437 H5444 0.961 . S
C5437 H5445 0.960 . S
C5438 C5436 1.381 . S
C5438 C5439 1.394 . S
C5438 H5446 0.930 . S
C5439 C5438 1.394 . S
C5439 C5440 1.383 . S
C5439 H5447 0.929 . S
C5440 C5439 1.383 . S
C5440 C5441 1.377 . S
C5441 H5425 0.930 . S
C5441 C5440 1.377 . S
C5441 C5442 1.379 . S
C5442 H5426 0.931 . S
C5442 C5436 1.383 . S
C5442 C5441 1.379 . S
H5443 C5437 0.959 . S
H5444 C5437 0.961 . S
H5445 C5437 0.960 . S
H5446 C5438 0.930 . S
H5447 C5439 0.929 . S
H5448 C5456 0.929 . S
H5449 C5458 0.930 . S
H5450 C5460 0.930 . S
H5451 C5463 0.929 . S
H5452 C5466 0.930 . S
H5453 C5468 0.960 . S
H5454 C5468 0.960 . S
H5455 C5468 0.960 . S
C5456 H5448 0.929 . S
C5456 C5457 1.377 . S
C5456 C5458 1.384 . S
C5457 C5456 1.377 . S
C5457 C5463 1.390 . S
C5458 H5449 0.930 . S
C5458 C5456 1.384 . S
C5458 C5459 1.372 . S
C5459 C5458 1.372 . S
C5459 C5460 1.400 . S
C5459 C5464 1.490 . S
C5460 H5450 0.930 . S
C5460 C5459 1.400 . S
C5460 C5463 1.386 . S
H5461 C5477 0.930 . S
H5462 C5478 0.931 . S
C5463 H5451 0.929 . S
C5463 C5457 1.390 . S
C5463 C5460 1.386 . S
C5464 C5459 1.490 . S
C5464 C5466 1.395 . S
C5464 C5467 1.403 . S
H5465 C5471 0.930 . S
C5466 H5452 0.930 . S
C5466 C5464 1.395 . S
C5466 C5469 1.403 . S
C5467 C5464 1.403 . S
C5467 C5468 1.524 . S
C5467 C5471 1.400 . S
C5468 H5453 0.960 . S
C5468 H5454 0.960 . S
C5468 H5455 0.960 . S
C5468 C5467 1.524 . S
C5469 C5466 1.403 . S
C5469 C5470 1.392 . S
C5469 C5473 1.495 . S
C5470 C5469 1.392 . S
C5470 C5471 1.385 . S
C5470 C5472 1.478 . S
C5471 H5465 0.930 . S
C5471 C5467 1.400 . S
C5471 C5470 1.385 . S
C5472 C5470 1.478 . S
C5472 C5474 1.381 . S
C5472 C5478 1.383 . S
C5473 C5469 1.495 . S
C5473 H5479 0.959 . S
C5473 H5480 0.961 . S
C5473 H5481 0.960 . S
C5474 C5472 1.381 . S
C5474 C5475 1.394 . S
C5474 H5482 0.930 . S
C5475 C5474 1.394 . S
C5475 C5476 1.383 . S
C5475 H5483 0.929 . S
C5476 C5475 1.383 . S
C5476 C5477 1.377 . S
C5477 H5461 0.930 . S
C5477 C5476 1.377 . S
C5477 C5478 1.379 . S
C5478 H5462 0.931 . S
C5478 C5472 1.383 . S
C5478 C5477 1.379 . S
H5479 C5473 0.959 . S
H5480 C5473 0.961 . S
H5481 C5473 0.960 . S
H5482 C5474 0.930 . S
H5483 C5475 0.929 . S
H5484 C5492 0.929 . S
H5485 C5494 0.930 . S
H5486 C5496 0.930 . S
H5487 C5499 0.929 . S
H5488 C5502 0.930 . S
H5489 C5504 0.960 . S
H5490 C5504 0.960 . S
H5491 C5504 0.960 . S
C5492 H5484 0.929 . S
C5492 C5493 1.377 . S
C5492 C5494 1.384 . S
C5493 C5492 1.377 . S
C5493 C5499 1.390 . S
C5494 H5485 0.930 . S
C5494 C5492 1.384 . S
C5494 C5495 1.372 . S
C5495 C5494 1.372 . S
C5495 C5496 1.400 . S
C5495 C5500 1.490 . S
C5496 H5486 0.930 . S
C5496 C5495 1.400 . S
C5496 C5499 1.386 . S
H5497 C5513 0.930 . S
H5498 C5514 0.931 . S
C5499 H5487 0.929 . S
C5499 C5493 1.390 . S
C5499 C5496 1.386 . S
C5500 C5495 1.490 . S
C5500 C5502 1.395 . S
C5500 C5503 1.403 . S
H5501 C5507 0.930 . S
C5502 H5488 0.930 . S
C5502 C5500 1.395 . S
C5502 C5505 1.403 . S
C5503 C5500 1.403 . S
C5503 C5504 1.524 . S
C5503 C5507 1.400 . S
C5504 H5489 0.960 . S
C5504 H5490 0.960 . S
C5504 H5491 0.960 . S
C5504 C5503 1.524 . S
C5505 C5502 1.403 . S
C5505 C5506 1.392 . S
C5505 C5509 1.495 . S
C5506 C5505 1.392 . S
C5506 C5507 1.385 . S
C5506 C5508 1.478 . S
C5507 H5501 0.930 . S
C5507 C5503 1.400 . S
C5507 C5506 1.385 . S
C5508 C5506 1.478 . S
C5508 C5510 1.381 . S
C5508 C5514 1.383 . S
C5509 C5505 1.495 . S
C5509 H5515 0.959 . S
C5509 H5516 0.961 . S
C5509 H5517 0.960 . S
C5510 C5508 1.381 . S
C5510 C5511 1.394 . S
C5510 H5518 0.930 . S
C5511 C5510 1.394 . S
C5511 C5512 1.383 . S
C5511 H5519 0.929 . S
C5512 C5511 1.383 . S
C5512 C5513 1.377 . S
C5513 H5497 0.930 . S
C5513 C5512 1.377 . S
C5513 C5514 1.379 . S
C5514 H5498 0.931 . S
C5514 C5508 1.383 . S
C5514 C5513 1.379 . S
H5515 C5509 0.959 . S
H5516 C5509 0.961 . S
H5517 C5509 0.960 . S
H5518 C5510 0.930 . S
H5519 C5511 0.929 . S
H5520 C5528 0.929 . S
H5521 C5530 0.930 . S
H5522 C5532 0.930 . S
H5523 C5535 0.929 . S
H5524 C5538 0.930 . S
H5525 C5540 0.960 . S
H5526 C5540 0.960 . S
H5527 C5540 0.960 . S
C5528 H5520 0.929 . S
C5528 C5529 1.377 . S
C5528 C5530 1.384 . S
C5529 C5528 1.377 . S
C5529 C5535 1.390 . S
C5530 H5521 0.930 . S
C5530 C5528 1.384 . S
C5530 C5531 1.372 . S
C5531 C5530 1.372 . S
C5531 C5532 1.400 . S
C5531 C5536 1.490 . S
C5532 H5522 0.930 . S
C5532 C5531 1.400 . S
C5532 C5535 1.386 . S
H5533 C5549 0.930 . S
H5534 C5550 0.931 . S
C5535 H5523 0.929 . S
C5535 C5529 1.390 . S
C5535 C5532 1.386 . S
C5536 C5531 1.490 . S
C5536 C5538 1.395 . S
C5536 C5539 1.403 . S
H5537 C5543 0.930 . S
C5538 H5524 0.930 . S
C5538 C5536 1.395 . S
C5538 C5541 1.403 . S
C5539 C5536 1.403 . S
C5539 C5540 1.524 . S
C5539 C5543 1.400 . S
C5540 H5525 0.960 . S
C5540 H5526 0.960 . S
C5540 H5527 0.960 . S
C5540 C5539 1.524 . S
C5541 C5538 1.403 . S
C5541 C5542 1.392 . S
C5541 C5545 1.495 . S
C5542 C5541 1.392 . S
C5542 C5543 1.385 . S
C5542 C5544 1.478 . S
C5543 H5537 0.930 . S
C5543 C5539 1.400 . S
C5543 C5542 1.385 . S
C5544 C5542 1.478 . S
C5544 C5546 1.381 . S
C5544 C5550 1.383 . S
C5545 C5541 1.495 . S
C5545 H5551 0.959 . S
C5545 H5552 0.961 . S
C5545 H5553 0.960 . S
C5546 C5544 1.381 . S
C5546 C5547 1.394 . S
C5546 H5554 0.930 . S
C5547 C5546 1.394 . S
C5547 C5548 1.383 . S
C5547 H5555 0.929 . S
C5548 C5547 1.383 . S
C5548 C5549 1.377 . S
C5549 H5533 0.930 . S
C5549 C5548 1.377 . S
C5549 C5550 1.379 . S
C5550 H5534 0.931 . S
C5550 C5544 1.383 . S
C5550 C5549 1.379 . S
H5551 C5545 0.959 . S
H5552 C5545 0.961 . S
H5553 C5545 0.960 . S
H5554 C5546 0.930 . S
H5555 C5547 0.929 . S
H5556 C5564 0.929 . S
H5557 C5566 0.930 . S
H5558 C5568 0.930 . S
H5559 C5571 0.929 . S
H5560 C5574 0.930 . S
H5561 C5576 0.960 . S
H5562 C5576 0.960 . S
H5563 C5576 0.960 . S
C5564 H5556 0.929 . S
C5564 C5565 1.377 . S
C5564 C5566 1.384 . S
C5565 C5564 1.377 . S
C5565 C5571 1.390 . S
C5566 H5557 0.930 . S
C5566 C5564 1.384 . S
C5566 C5567 1.372 . S
C5567 C5566 1.372 . S
C5567 C5568 1.400 . S
C5567 C5572 1.490 . S
C5568 H5558 0.930 . S
C5568 C5567 1.400 . S
C5568 C5571 1.386 . S
H5569 C5585 0.930 . S
H5570 C5586 0.931 . S
C5571 H5559 0.929 . S
C5571 C5565 1.390 . S
C5571 C5568 1.386 . S
C5572 C5567 1.490 . S
C5572 C5574 1.395 . S
C5572 C5575 1.403 . S
H5573 C5579 0.930 . S
C5574 H5560 0.930 . S
C5574 C5572 1.395 . S
C5574 C5577 1.403 . S
C5575 C5572 1.403 . S
C5575 C5576 1.524 . S
C5575 C5579 1.400 . S
C5576 H5561 0.960 . S
C5576 H5562 0.960 . S
C5576 H5563 0.960 . S
C5576 C5575 1.524 . S
C5577 C5574 1.403 . S
C5577 C5578 1.392 . S
C5577 C5581 1.495 . S
C5578 C5577 1.392 . S
C5578 C5579 1.385 . S
C5578 C5580 1.478 . S
C5579 H5573 0.930 . S
C5579 C5575 1.400 . S
C5579 C5578 1.385 . S
C5580 C5578 1.478 . S
C5580 C5582 1.381 . S
C5580 C5586 1.383 . S
C5581 C5577 1.495 . S
C5581 H5587 0.959 . S
C5581 H5588 0.961 . S
C5581 H5589 0.960 . S
C5582 C5580 1.381 . S
C5582 C5583 1.394 . S
C5582 H5590 0.930 . S
C5583 C5582 1.394 . S
C5583 C5584 1.383 . S
C5583 H5591 0.929 . S
C5584 C5583 1.383 . S
C5584 C5585 1.377 . S
C5585 H5569 0.930 . S
C5585 C5584 1.377 . S
C5585 C5586 1.379 . S
C5586 H5570 0.931 . S
C5586 C5580 1.383 . S
C5586 C5585 1.379 . S
H5587 C5581 0.959 . S
H5588 C5581 0.961 . S
H5589 C5581 0.960 . S
H5590 C5582 0.930 . S
H5591 C5583 0.929 . S
H5592 C5600 0.929 . S
H5593 C5602 0.930 . S
H5594 C5604 0.930 . S
H5595 C5607 0.929 . S
H5596 C5610 0.930 . S
H5597 C5612 0.960 . S
H5598 C5612 0.960 . S
H5599 C5612 0.960 . S
C5600 H5592 0.929 . S
C5600 C5601 1.377 . S
C5600 C5602 1.384 . S
C5601 C5600 1.377 . S
C5601 C5607 1.390 . S
C5602 H5593 0.930 . S
C5602 C5600 1.384 . S
C5602 C5603 1.372 . S
C5603 C5602 1.372 . S
C5603 C5604 1.400 . S
C5603 C5608 1.490 . S
C5604 H5594 0.930 . S
C5604 C5603 1.400 . S
C5604 C5607 1.386 . S
H5605 C5621 0.930 . S
H5606 C5622 0.931 . S
C5607 H5595 0.929 . S
C5607 C5601 1.390 . S
C5607 C5604 1.386 . S
C5608 C5603 1.490 . S
C5608 C5610 1.395 . S
C5608 C5611 1.403 . S
H5609 C5615 0.930 . S
C5610 H5596 0.930 . S
C5610 C5608 1.395 . S
C5610 C5613 1.403 . S
C5611 C5608 1.403 . S
C5611 C5612 1.524 . S
C5611 C5615 1.400 . S
C5612 H5597 0.960 . S
C5612 H5598 0.960 . S
C5612 H5599 0.960 . S
C5612 C5611 1.524 . S
C5613 C5610 1.403 . S
C5613 C5614 1.392 . S
C5613 C5617 1.495 . S
C5614 C5613 1.392 . S
C5614 C5615 1.385 . S
C5614 C5616 1.478 . S
C5615 H5609 0.930 . S
C5615 C5611 1.400 . S
C5615 C5614 1.385 . S
C5616 C5614 1.478 . S
C5616 C5618 1.381 . S
C5616 C5622 1.383 . S
C5617 C5613 1.495 . S
C5617 H5623 0.959 . S
C5617 H5624 0.961 . S
C5617 H5625 0.960 . S
C5618 C5616 1.381 . S
C5618 C5619 1.394 . S
C5618 H5626 0.930 . S
C5619 C5618 1.394 . S
C5619 C5620 1.383 . S
C5619 H5627 0.929 . S
C5620 C5619 1.383 . S
C5620 C5621 1.377 . S
C5621 H5605 0.930 . S
C5621 C5620 1.377 . S
C5621 C5622 1.379 . S
C5622 H5606 0.931 . S
C5622 C5616 1.383 . S
C5622 C5621 1.379 . S
H5623 C5617 0.959 . S
H5624 C5617 0.961 . S
H5625 C5617 0.960 . S
H5626 C5618 0.930 . S
H5627 C5619 0.929 . S
H5628 C5636 0.929 . S
H5629 C5638 0.930 . S
H5630 C5640 0.930 . S
H5631 C5643 0.929 . S
H5632 C5646 0.930 . S
H5633 C5648 0.960 . S
H5634 C5648 0.960 . S
H5635 C5648 0.960 . S
C5636 H5628 0.929 . S
C5636 C5637 1.377 . S
C5636 C5638 1.384 . S
C5637 C5636 1.377 . S
C5637 C5643 1.390 . S
C5638 H5629 0.930 . S
C5638 C5636 1.384 . S
C5638 C5639 1.372 . S
C5639 C5638 1.372 . S
C5639 C5640 1.400 . S
C5639 C5644 1.490 . S
C5640 H5630 0.930 . S
C5640 C5639 1.400 . S
C5640 C5643 1.386 . S
H5641 C5657 0.930 . S
H5642 C5658 0.931 . S
C5643 H5631 0.929 . S
C5643 C5637 1.390 . S
C5643 C5640 1.386 . S
C5644 C5639 1.490 . S
C5644 C5646 1.395 . S
C5644 C5647 1.403 . S
H5645 C5651 0.930 . S
C5646 H5632 0.930 . S
C5646 C5644 1.395 . S
C5646 C5649 1.403 . S
C5647 C5644 1.403 . S
C5647 C5648 1.524 . S
C5647 C5651 1.400 . S
C5648 H5633 0.960 . S
C5648 H5634 0.960 . S
C5648 H5635 0.960 . S
C5648 C5647 1.524 . S
C5649 C5646 1.403 . S
C5649 C5650 1.392 . S
C5649 C5653 1.495 . S
C5650 C5649 1.392 . S
C5650 C5651 1.385 . S
C5650 C5652 1.478 . S
C5651 H5645 0.930 . S
C5651 C5647 1.400 . S
C5651 C5650 1.385 . S
C5652 C5650 1.478 . S
C5652 C5654 1.381 . S
C5652 C5658 1.383 . S
C5653 C5649 1.495 . S
C5653 H5659 0.959 . S
C5653 H5660 0.961 . S
C5653 H5661 0.960 . S
C5654 C5652 1.381 . S
C5654 C5655 1.394 . S
C5654 H5662 0.930 . S
C5655 C5654 1.394 . S
C5655 C5656 1.383 . S
C5655 H5663 0.929 . S
C5656 C5655 1.383 . S
C5656 C5657 1.377 . S
C5657 H5641 0.930 . S
C5657 C5656 1.377 . S
C5657 C5658 1.379 . S
C5658 H5642 0.931 . S
C5658 C5652 1.383 . S
C5658 C5657 1.379 . S
H5659 C5653 0.959 . S
H5660 C5653 0.961 . S
H5661 C5653 0.960 . S
H5662 C5654 0.930 . S
H5663 C5655 0.929 . S
H5664 C5672 0.929 . S
H5665 C5674 0.930 . S
H5666 C5676 0.930 . S
H5667 C5679 0.929 . S
H5668 C5682 0.930 . S
H5669 C5684 0.960 . S
H5670 C5684 0.960 . S
H5671 C5684 0.960 . S
C5672 H5664 0.929 . S
C5672 C5673 1.377 . S
C5672 C5674 1.384 . S
C5673 C5672 1.377 . S
C5673 C5679 1.390 . S
C5674 H5665 0.930 . S
C5674 C5672 1.384 . S
C5674 C5675 1.372 . S
C5675 C5674 1.372 . S
C5675 C5676 1.400 . S
C5675 C5680 1.490 . S
C5676 H5666 0.930 . S
C5676 C5675 1.400 . S
C5676 C5679 1.386 . S
H5677 C5693 0.930 . S
H5678 C5694 0.931 . S
C5679 H5667 0.929 . S
C5679 C5673 1.390 . S
C5679 C5676 1.386 . S
C5680 C5675 1.490 . S
C5680 C5682 1.395 . S
C5680 C5683 1.403 . S
H5681 C5687 0.930 . S
C5682 H5668 0.930 . S
C5682 C5680 1.395 . S
C5682 C5685 1.403 . S
C5683 C5680 1.403 . S
C5683 C5684 1.524 . S
C5683 C5687 1.400 . S
C5684 H5669 0.960 . S
C5684 H5670 0.960 . S
C5684 H5671 0.960 . S
C5684 C5683 1.524 . S
C5685 C5682 1.403 . S
C5685 C5686 1.392 . S
C5685 C5689 1.495 . S
C5686 C5685 1.392 . S
C5686 C5687 1.385 . S
C5686 C5688 1.478 . S
C5687 H5681 0.930 . S
C5687 C5683 1.400 . S
C5687 C5686 1.385 . S
C5688 C5686 1.478 . S
C5688 C5690 1.381 . S
C5688 C5694 1.383 . S
C5689 C5685 1.495 . S
C5689 H5695 0.959 . S
C5689 H5696 0.961 . S
C5689 H5697 0.960 . S
C5690 C5688 1.381 . S
C5690 C5691 1.394 . S
C5690 H5698 0.930 . S
C5691 C5690 1.394 . S
C5691 C5692 1.383 . S
C5691 H5699 0.929 . S
C5692 C5691 1.383 . S
C5692 C5693 1.377 . S
C5693 H5677 0.930 . S
C5693 C5692 1.377 . S
C5693 C5694 1.379 . S
C5694 H5678 0.931 . S
C5694 C5688 1.383 . S
C5694 C5693 1.379 . S
H5695 C5689 0.959 . S
H5696 C5689 0.961 . S
H5697 C5689 0.960 . S
H5698 C5690 0.930 . S
H5699 C5691 0.929 . S
H5700 C5708 0.929 . S
H5701 C5710 0.930 . S
H5702 C5712 0.930 . S
H5703 C5715 0.929 . S
H5704 C5718 0.930 . S
H5705 C5720 0.960 . S
H5706 C5720 0.960 . S
H5707 C5720 0.960 . S
C5708 H5700 0.929 . S
C5708 C5709 1.377 . S
C5708 C5710 1.384 . S
C5709 C5708 1.377 . S
C5709 C5715 1.390 . S
C5710 H5701 0.930 . S
C5710 C5708 1.384 . S
C5710 C5711 1.372 . S
C5711 C5710 1.372 . S
C5711 C5712 1.400 . S
C5711 C5716 1.490 . S
C5712 H5702 0.930 . S
C5712 C5711 1.400 . S
C5712 C5715 1.386 . S
H5713 C5729 0.930 . S
H5714 C5730 0.931 . S
C5715 H5703 0.929 . S
C5715 C5709 1.390 . S
C5715 C5712 1.386 . S
C5716 C5711 1.490 . S
C5716 C5718 1.395 . S
C5716 C5719 1.403 . S
H5717 C5723 0.930 . S
C5718 H5704 0.930 . S
C5718 C5716 1.395 . S
C5718 C5721 1.403 . S
C5719 C5716 1.403 . S
C5719 C5720 1.524 . S
C5719 C5723 1.400 . S
C5720 H5705 0.960 . S
C5720 H5706 0.960 . S
C5720 H5707 0.960 . S
C5720 C5719 1.524 . S
C5721 C5718 1.403 . S
C5721 C5722 1.392 . S
C5721 C5725 1.495 . S
C5722 C5721 1.392 . S
C5722 C5723 1.385 . S
C5722 C5724 1.478 . S
C5723 H5717 0.930 . S
C5723 C5719 1.400 . S
C5723 C5722 1.385 . S
C5724 C5722 1.478 . S
C5724 C5726 1.381 . S
C5724 C5730 1.383 . S
C5725 C5721 1.495 . S
C5725 H5731 0.959 . S
C5725 H5732 0.961 . S
C5725 H5733 0.960 . S
C5726 C5724 1.381 . S
C5726 C5727 1.394 . S
C5726 H5734 0.930 . S
C5727 C5726 1.394 . S
C5727 C5728 1.383 . S
C5727 H5735 0.929 . S
C5728 C5727 1.383 . S
C5728 C5729 1.377 . S
C5729 H5713 0.930 . S
C5729 C5728 1.377 . S
C5729 C5730 1.379 . S
C5730 H5714 0.931 . S
C5730 C5724 1.383 . S
C5730 C5729 1.379 . S
H5731 C5725 0.959 . S
H5732 C5725 0.961 . S
H5733 C5725 0.960 . S
H5734 C5726 0.930 . S
H5735 C5727 0.929 . S
H5736 C5744 0.929 . S
H5737 C5746 0.930 . S
H5738 C5748 0.930 . S
H5739 C5751 0.929 . S
H5740 C5754 0.930 . S
H5741 C5756 0.960 . S
H5742 C5756 0.960 . S
H5743 C5756 0.960 . S
C5744 H5736 0.929 . S
C5744 C5745 1.377 . S
C5744 C5746 1.384 . S
C5745 C5744 1.377 . S
C5745 C5751 1.390 . S
C5746 H5737 0.930 . S
C5746 C5744 1.384 . S
C5746 C5747 1.372 . S
C5747 C5746 1.372 . S
C5747 C5748 1.400 . S
C5747 C5752 1.490 . S
C5748 H5738 0.930 . S
C5748 C5747 1.400 . S
C5748 C5751 1.386 . S
H5749 C5765 0.930 . S
H5750 C5766 0.931 . S
C5751 H5739 0.929 . S
C5751 C5745 1.390 . S
C5751 C5748 1.386 . S
C5752 C5747 1.490 . S
C5752 C5754 1.395 . S
C5752 C5755 1.403 . S
H5753 C5759 0.930 . S
C5754 H5740 0.930 . S
C5754 C5752 1.395 . S
C5754 C5757 1.403 . S
C5755 C5752 1.403 . S
C5755 C5756 1.524 . S
C5755 C5759 1.400 . S
C5756 H5741 0.960 . S
C5756 H5742 0.960 . S
C5756 H5743 0.960 . S
C5756 C5755 1.524 . S
C5757 C5754 1.403 . S
C5757 C5758 1.392 . S
C5757 C5761 1.495 . S
C5758 C5757 1.392 . S
C5758 C5759 1.385 . S
C5758 C5760 1.478 . S
C5759 H5753 0.930 . S
C5759 C5755 1.400 . S
C5759 C5758 1.385 . S
C5760 C5758 1.478 . S
C5760 C5762 1.381 . S
C5760 C5766 1.383 . S
C5761 C5757 1.495 . S
C5761 H5767 0.959 . S
C5761 H5768 0.961 . S
C5761 H5769 0.960 . S
C5762 C5760 1.381 . S
C5762 C5763 1.394 . S
C5762 H5770 0.930 . S
C5763 C5762 1.394 . S
C5763 C5764 1.383 . S
C5763 H5771 0.929 . S
C5764 C5763 1.383 . S
C5764 C5765 1.377 . S
C5765 H5749 0.930 . S
C5765 C5764 1.377 . S
C5765 C5766 1.379 . S
C5766 H5750 0.931 . S
C5766 C5760 1.383 . S
C5766 C5765 1.379 . S
H5767 C5761 0.959 . S
H5768 C5761 0.961 . S
H5769 C5761 0.960 . S
H5770 C5762 0.930 . S
H5771 C5763 0.929 . S
H5772 C5780 0.929 . S
H5773 C5782 0.930 . S
H5774 C5784 0.930 . S
H5775 C5787 0.929 . S
H5776 C5790 0.930 . S
H5777 C5792 0.960 . S
H5778 C5792 0.960 . S
H5779 C5792 0.960 . S
C5780 H5772 0.929 . S
C5780 C5781 1.377 . S
C5780 C5782 1.384 . S
C5781 C5780 1.377 . S
C5781 C5787 1.390 . S
C5782 H5773 0.930 . S
C5782 C5780 1.384 . S
C5782 C5783 1.372 . S
C5783 C5782 1.372 . S
C5783 C5784 1.400 . S
C5783 C5788 1.490 . S
C5784 H5774 0.930 . S
C5784 C5783 1.400 . S
C5784 C5787 1.386 . S
H5785 C5801 0.930 . S
H5786 C5802 0.931 . S
C5787 H5775 0.929 . S
C5787 C5781 1.390 . S
C5787 C5784 1.386 . S
C5788 C5783 1.490 . S
C5788 C5790 1.395 . S
C5788 C5791 1.403 . S
H5789 C5795 0.930 . S
C5790 H5776 0.930 . S
C5790 C5788 1.395 . S
C5790 C5793 1.403 . S
C5791 C5788 1.403 . S
C5791 C5792 1.524 . S
C5791 C5795 1.400 . S
C5792 H5777 0.960 . S
C5792 H5778 0.960 . S
C5792 H5779 0.960 . S
C5792 C5791 1.524 . S
C5793 C5790 1.403 . S
C5793 C5794 1.392 . S
C5793 C5797 1.495 . S
C5794 C5793 1.392 . S
C5794 C5795 1.385 . S
C5794 C5796 1.478 . S
C5795 H5789 0.930 . S
C5795 C5791 1.400 . S
C5795 C5794 1.385 . S
C5796 C5794 1.478 . S
C5796 C5798 1.381 . S
C5796 C5802 1.383 . S
C5797 C5793 1.495 . S
C5797 H5803 0.959 . S
C5797 H5804 0.961 . S
C5797 H5805 0.960 . S
C5798 C5796 1.381 . S
C5798 C5799 1.394 . S
C5798 H5806 0.930 . S
C5799 C5798 1.394 . S
C5799 C5800 1.383 . S
C5799 H5807 0.929 . S
C5800 C5799 1.383 . S
C5800 C5801 1.377 . S
C5801 H5785 0.930 . S
C5801 C5800 1.377 . S
C5801 C5802 1.379 . S
C5802 H5786 0.931 . S
C5802 C5796 1.383 . S
C5802 C5801 1.379 . S
H5803 C5797 0.959 . S
H5804 C5797 0.961 . S
H5805 C5797 0.960 . S
H5806 C5798 0.930 . S
H5807 C5799 0.929 . S
H5808 C5816 0.929 . S
H5809 C5818 0.930 . S
H5810 C5820 0.930 . S
H5811 C5823 0.929 . S
H5812 C5826 0.930 . S
H5813 C5828 0.960 . S
H5814 C5828 0.960 . S
H5815 C5828 0.960 . S
C5816 H5808 0.929 . S
C5816 C5817 1.377 . S
C5816 C5818 1.384 . S
C5817 C5816 1.377 . S
C5817 C5823 1.390 . S
C5818 H5809 0.930 . S
C5818 C5816 1.384 . S
C5818 C5819 1.372 . S
C5819 C5818 1.372 . S
C5819 C5820 1.400 . S
C5819 C5824 1.490 . S
C5820 H5810 0.930 . S
C5820 C5819 1.400 . S
C5820 C5823 1.386 . S
H5821 C5837 0.930 . S
H5822 C5838 0.931 . S
C5823 H5811 0.929 . S
C5823 C5817 1.390 . S
C5823 C5820 1.386 . S
C5824 C5819 1.490 . S
C5824 C5826 1.395 . S
C5824 C5827 1.403 . S
H5825 C5831 0.930 . S
C5826 H5812 0.930 . S
C5826 C5824 1.395 . S
C5826 C5829 1.403 . S
C5827 C5824 1.403 . S
C5827 C5828 1.524 . S
C5827 C5831 1.400 . S
C5828 H5813 0.960 . S
C5828 H5814 0.960 . S
C5828 H5815 0.960 . S
C5828 C5827 1.524 . S
C5829 C5826 1.403 . S
C5829 C5830 1.392 . S
C5829 C5833 1.495 . S
C5830 C5829 1.392 . S
C5830 C5831 1.385 . S
C5830 C5832 1.478 . S
C5831 H5825 0.930 . S
C5831 C5827 1.400 . S
C5831 C5830 1.385 . S
C5832 C5830 1.478 . S
C5832 C5834 1.381 . S
C5832 C5838 1.383 . S
C5833 C5829 1.495 . S
C5833 H5839 0.959 . S
C5833 H5840 0.961 . S
C5833 H5841 0.960 . S
C5834 C5832 1.381 . S
C5834 C5835 1.394 . S
C5834 H5842 0.930 . S
C5835 C5834 1.394 . S
C5835 C5836 1.383 . S
C5835 H5843 0.929 . S
C5836 C5835 1.383 . S
C5836 C5837 1.377 . S
C5837 H5821 0.930 . S
C5837 C5836 1.377 . S
C5837 C5838 1.379 . S
C5838 H5822 0.931 . S
C5838 C5832 1.383 . S
C5838 C5837 1.379 . S
H5839 C5833 0.959 . S
H5840 C5833 0.961 . S
H5841 C5833 0.960 . S
H5842 C5834 0.930 . S
H5843 C5835 0.929 . S
H5844 C5852 0.929 . S
H5845 C5854 0.930 . S
H5846 C5856 0.930 . S
H5847 C5859 0.929 . S
H5848 C5862 0.930 . S
H5849 C5864 0.960 . S
H5850 C5864 0.960 . S
H5851 C5864 0.960 . S
C5852 H5844 0.929 . S
C5852 C5853 1.377 . S
C5852 C5854 1.384 . S
C5853 C5852 1.377 . S
C5853 C5859 1.390 . S
C5854 H5845 0.930 . S
C5854 C5852 1.384 . S
C5854 C5855 1.372 . S
C5855 C5854 1.372 . S
C5855 C5856 1.400 . S
C5855 C5860 1.490 . S
C5856 H5846 0.930 . S
C5856 C5855 1.400 . S
C5856 C5859 1.386 . S
H5857 C5873 0.930 . S
H5858 C5874 0.931 . S
C5859 H5847 0.929 . S
C5859 C5853 1.390 . S
C5859 C5856 1.386 . S
C5860 C5855 1.490 . S
C5860 C5862 1.395 . S
C5860 C5863 1.403 . S
H5861 C5867 0.930 . S
C5862 H5848 0.930 . S
C5862 C5860 1.395 . S
C5862 C5865 1.403 . S
C5863 C5860 1.403 . S
C5863 C5864 1.524 . S
C5863 C5867 1.400 . S
C5864 H5849 0.960 . S
C5864 H5850 0.960 . S
C5864 H5851 0.960 . S
C5864 C5863 1.524 . S
C5865 C5862 1.403 . S
C5865 C5866 1.392 . S
C5865 C5869 1.495 . S
C5866 C5865 1.392 . S
C5866 C5867 1.385 . S
C5866 C5868 1.478 . S
C5867 H5861 0.930 . S
C5867 C5863 1.400 . S
C5867 C5866 1.385 . S
C5868 C5866 1.478 . S
C5868 C5870 1.381 . S
C5868 C5874 1.383 . S
C5869 C5865 1.495 . S
C5869 H5875 0.959 . S
C5869 H5876 0.961 . S
C5869 H5877 0.960 . S
C5870 C5868 1.381 . S
C5870 C5871 1.394 . S
C5870 H5878 0.930 . S
C5871 C5870 1.394 . S
C5871 C5872 1.383 . S
C5871 H5879 0.929 . S
C5872 C5871 1.383 . S
C5872 C5873 1.377 . S
C5873 H5857 0.930 . S
C5873 C5872 1.377 . S
C5873 C5874 1.379 . S
C5874 H5858 0.931 . S
C5874 C5868 1.383 . S
C5874 C5873 1.379 . S
H5875 C5869 0.959 . S
H5876 C5869 0.961 . S
H5877 C5869 0.960 . S
H5878 C5870 0.930 . S
H5879 C5871 0.929 . S
H5880 C5888 0.929 . S
H5881 C5890 0.930 . S
H5882 C5892 0.930 . S
H5883 C5895 0.929 . S
H5884 C5898 0.930 . S
H5885 C5900 0.960 . S
H5886 C5900 0.960 . S
H5887 C5900 0.960 . S
C5888 H5880 0.929 . S
C5888 C5889 1.377 . S
C5888 C5890 1.384 . S
C5889 C5888 1.377 . S
C5889 C5895 1.390 . S
C5890 H5881 0.930 . S
C5890 C5888 1.384 . S
C5890 C5891 1.372 . S
C5891 C5890 1.372 . S
C5891 C5892 1.400 . S
C5891 C5896 1.490 . S
C5892 H5882 0.930 . S
C5892 C5891 1.400 . S
C5892 C5895 1.386 . S
H5893 C5909 0.930 . S
H5894 C5910 0.931 . S
C5895 H5883 0.929 . S
C5895 C5889 1.390 . S
C5895 C5892 1.386 . S
C5896 C5891 1.490 . S
C5896 C5898 1.395 . S
C5896 C5899 1.403 . S
H5897 C5903 0.930 . S
C5898 H5884 0.930 . S
C5898 C5896 1.395 . S
C5898 C5901 1.403 . S
C5899 C5896 1.403 . S
C5899 C5900 1.524 . S
C5899 C5903 1.400 . S
C5900 H5885 0.960 . S
C5900 H5886 0.960 . S
C5900 H5887 0.960 . S
C5900 C5899 1.524 . S
C5901 C5898 1.403 . S
C5901 C5902 1.392 . S
C5901 C5905 1.495 . S
C5902 C5901 1.392 . S
C5902 C5903 1.385 . S
C5902 C5904 1.478 . S
C5903 H5897 0.930 . S
C5903 C5899 1.400 . S
C5903 C5902 1.385 . S
C5904 C5902 1.478 . S
C5904 C5906 1.381 . S
C5904 C5910 1.383 . S
C5905 C5901 1.495 . S
C5905 H5911 0.959 . S
C5905 H5912 0.961 . S
C5905 H5913 0.960 . S
C5906 C5904 1.381 . S
C5906 C5907 1.394 . S
C5906 H5914 0.930 . S
C5907 C5906 1.394 . S
C5907 C5908 1.383 . S
C5907 H5915 0.929 . S
C5908 C5907 1.383 . S
C5908 C5909 1.377 . S
C5909 H5893 0.930 . S
C5909 C5908 1.377 . S
C5909 C5910 1.379 . S
C5910 H5894 0.931 . S
C5910 C5904 1.383 . S
C5910 C5909 1.379 . S
H5911 C5905 0.959 . S
H5912 C5905 0.961 . S
H5913 C5905 0.960 . S
H5914 C5906 0.930 . S
H5915 C5907 0.929 . S
H5916 C5924 0.929 . S
H5917 C5926 0.930 . S
H5918 C5928 0.930 . S
H5919 C5931 0.929 . S
H5920 C5934 0.930 . S
H5921 C5936 0.960 . S
H5922 C5936 0.960 . S
H5923 C5936 0.960 . S
C5924 H5916 0.929 . S
C5924 C5925 1.377 . S
C5924 C5926 1.384 . S
C5925 C5924 1.377 . S
C5925 C5931 1.390 . S
C5926 H5917 0.930 . S
C5926 C5924 1.384 . S
C5926 C5927 1.372 . S
C5927 C5926 1.372 . S
C5927 C5928 1.400 . S
C5927 C5932 1.490 . S
C5928 H5918 0.930 . S
C5928 C5927 1.400 . S
C5928 C5931 1.386 . S
H5929 C5945 0.930 . S
H5930 C5946 0.931 . S
C5931 H5919 0.929 . S
C5931 C5925 1.390 . S
C5931 C5928 1.386 . S
C5932 C5927 1.490 . S
C5932 C5934 1.395 . S
C5932 C5935 1.403 . S
H5933 C5939 0.930 . S
C5934 H5920 0.930 . S
C5934 C5932 1.395 . S
C5934 C5937 1.403 . S
C5935 C5932 1.403 . S
C5935 C5936 1.524 . S
C5935 C5939 1.400 . S
C5936 H5921 0.960 . S
C5936 H5922 0.960 . S
C5936 H5923 0.960 . S
C5936 C5935 1.524 . S
C5937 C5934 1.403 . S
C5937 C5938 1.392 . S
C5937 C5941 1.495 . S
C5938 C5937 1.392 . S
C5938 C5939 1.385 . S
C5938 C5940 1.478 . S
C5939 H5933 0.930 . S
C5939 C5935 1.400 . S
C5939 C5938 1.385 . S
C5940 C5938 1.478 . S
C5940 C5942 1.381 . S
C5940 C5946 1.383 . S
C5941 C5937 1.495 . S
C5941 H5947 0.959 . S
C5941 H5948 0.961 . S
C5941 H5949 0.960 . S
C5942 C5940 1.381 . S
C5942 C5943 1.394 . S
C5942 H5950 0.930 . S
C5943 C5942 1.394 . S
C5943 C5944 1.383 . S
C5943 H5951 0.929 . S
C5944 C5943 1.383 . S
C5944 C5945 1.377 . S
C5945 H5929 0.930 . S
C5945 C5944 1.377 . S
C5945 C5946 1.379 . S
C5946 H5930 0.931 . S
C5946 C5940 1.383 . S
C5946 C5945 1.379 . S
H5947 C5941 0.959 . S
H5948 C5941 0.961 . S
H5949 C5941 0.960 . S
H5950 C5942 0.930 . S
H5951 C5943 0.929 . S
H5952 C5960 0.929 . S
H5953 C5962 0.930 . S
H5954 C5964 0.930 . S
H5955 C5967 0.929 . S
H5956 C5970 0.930 . S
H5957 C5972 0.960 . S
H5958 C5972 0.960 . S
H5959 C5972 0.960 . S
C5960 H5952 0.929 . S
C5960 C5961 1.377 . S
C5960 C5962 1.384 . S
C5961 C5960 1.377 . S
C5961 C5967 1.390 . S
C5962 H5953 0.930 . S
C5962 C5960 1.384 . S
C5962 C5963 1.372 . S
C5963 C5962 1.372 . S
C5963 C5964 1.400 . S
C5963 C5968 1.490 . S
C5964 H5954 0.930 . S
C5964 C5963 1.400 . S
C5964 C5967 1.386 . S
H5965 C5981 0.930 . S
H5966 C5982 0.931 . S
C5967 H5955 0.929 . S
C5967 C5961 1.390 . S
C5967 C5964 1.386 . S
C5968 C5963 1.490 . S
C5968 C5970 1.395 . S
C5968 C5971 1.403 . S
H5969 C5975 0.930 . S
C5970 H5956 0.930 . S
C5970 C5968 1.395 . S
C5970 C5973 1.403 . S
C5971 C5968 1.403 . S
C5971 C5972 1.524 . S
C5971 C5975 1.400 . S
C5972 H5957 0.960 . S
C5972 H5958 0.960 . S
C5972 H5959 0.960 . S
C5972 C5971 1.524 . S
C5973 C5970 1.403 . S
C5973 C5974 1.392 . S
C5973 C5977 1.495 . S
C5974 C5973 1.392 . S
C5974 C5975 1.385 . S
C5974 C5976 1.478 . S
C5975 H5969 0.930 . S
C5975 C5971 1.400 . S
C5975 C5974 1.385 . S
C5976 C5974 1.478 . S
C5976 C5978 1.381 . S
C5976 C5982 1.383 . S
C5977 C5973 1.495 . S
C5977 H5983 0.959 . S
C5977 H5984 0.961 . S
C5977 H5985 0.960 . S
C5978 C5976 1.381 . S
C5978 C5979 1.394 . S
C5978 H5986 0.930 . S
C5979 C5978 1.394 . S
C5979 C5980 1.383 . S
C5979 H5987 0.929 . S
C5980 C5979 1.383 . S
C5980 C5981 1.377 . S
C5981 H5965 0.930 . S
C5981 C5980 1.377 . S
C5981 C5982 1.379 . S
C5982 H5966 0.931 . S
C5982 C5976 1.383 . S
C5982 C5981 1.379 . S
H5983 C5977 0.959 . S
H5984 C5977 0.961 . S
H5985 C5977 0.960 . S
H5986 C5978 0.930 . S
H5987 C5979 0.929 . S
H5988 C5996 0.929 . S
H5989 C5998 0.930 . S
H5990 C6000 0.930 . S
H5991 C6003 0.929 . S
H5992 C6006 0.930 . S
H5993 C6008 0.960 . S
H5994 C6008 0.960 . S
H5995 C6008 0.960 . S
C5996 H5988 0.929 . S
C5996 C5997 1.377 . S
C5996 C5998 1.384 . S
C5997 C5996 1.377 . S
C5997 C6003 1.390 . S
C5998 H5989 0.930 . S
C5998 C5996 1.384 . S
C5998 C5999 1.372 . S
C5999 C5998 1.372 . S
C5999 C6000 1.400 . S
C5999 C6004 1.490 . S
C6000 H5990 0.930 . S
C6000 C5999 1.400 . S
C6000 C6003 1.386 . S
H6001 C6017 0.930 . S
H6002 C6018 0.931 . S
C6003 H5991 0.929 . S
C6003 C5997 1.390 . S
C6003 C6000 1.386 . S
C6004 C5999 1.490 . S
C6004 C6006 1.395 . S
C6004 C6007 1.403 . S
H6005 C6011 0.930 . S
C6006 H5992 0.930 . S
C6006 C6004 1.395 . S
C6006 C6009 1.403 . S
C6007 C6004 1.403 . S
C6007 C6008 1.524 . S
C6007 C6011 1.400 . S
C6008 H5993 0.960 . S
C6008 H5994 0.960 . S
C6008 H5995 0.960 . S
C6008 C6007 1.524 . S
C6009 C6006 1.403 . S
C6009 C6010 1.392 . S
C6009 C6013 1.495 . S
C6010 C6009 1.392 . S
C6010 C6011 1.385 . S
C6010 C6012 1.478 . S
C6011 H6005 0.930 . S
C6011 C6007 1.400 . S
C6011 C6010 1.385 . S
C6012 C6010 1.478 . S
C6012 C6014 1.381 . S
C6012 C6018 1.383 . S
C6013 C6009 1.495 . S
C6013 H6019 0.959 . S
C6013 H6020 0.961 . S
C6013 H6021 0.960 . S
C6014 C6012 1.381 . S
C6014 C6015 1.394 . S
C6014 H6022 0.930 . S
C6015 C6014 1.394 . S
C6015 C6016 1.383 . S
C6015 H6023 0.929 . S
C6016 C6015 1.383 . S
C6016 C6017 1.377 . S
C6017 H6001 0.930 . S
C6017 C6016 1.377 . S
C6017 C6018 1.379 . S
C6018 H6002 0.931 . S
C6018 C6012 1.383 . S
C6018 C6017 1.379 . S
H6019 C6013 0.959 . S
H6020 C6013 0.961 . S
H6021 C6013 0.960 . S
H6022 C6014 0.930 . S
H6023 C6015 0.929 . S
H6024 C6032 0.929 . S
H6025 C6034 0.930 . S
H6026 C6036 0.930 . S
H6027 C6039 0.929 . S
H6028 C6042 0.930 . S
H6029 C6044 0.960 . S
H6030 C6044 0.960 . S
H6031 C6044 0.960 . S
C6032 H6024 0.929 . S
C6032 C6033 1.377 . S
C6032 C6034 1.384 . S
C6033 C6032 1.377 . S
C6033 C6039 1.390 . S
C6034 H6025 0.930 . S
C6034 C6032 1.384 . S
C6034 C6035 1.372 . S
C6035 C6034 1.372 . S
C6035 C6036 1.400 . S
C6035 C6040 1.490 . S
C6036 H6026 0.930 . S
C6036 C6035 1.400 . S
C6036 C6039 1.386 . S
H6037 C6053 0.930 . S
H6038 C6054 0.931 . S
C6039 H6027 0.929 . S
C6039 C6033 1.390 . S
C6039 C6036 1.386 . S
C6040 C6035 1.490 . S
C6040 C6042 1.395 . S
C6040 C6043 1.403 . S
H6041 C6047 0.930 . S
C6042 H6028 0.930 . S
C6042 C6040 1.395 . S
C6042 C6045 1.403 . S
C6043 C6040 1.403 . S
C6043 C6044 1.524 . S
C6043 C6047 1.400 . S
C6044 H6029 0.960 . S
C6044 H6030 0.960 . S
C6044 H6031 0.960 . S
C6044 C6043 1.524 . S
C6045 C6042 1.403 . S
C6045 C6046 1.392 . S
C6045 C6049 1.495 . S
C6046 C6045 1.392 . S
C6046 C6047 1.385 . S
C6046 C6048 1.478 . S
C6047 H6041 0.930 . S
C6047 C6043 1.400 . S
C6047 C6046 1.385 . S
C6048 C6046 1.478 . S
C6048 C6050 1.381 . S
C6048 C6054 1.383 . S
C6049 C6045 1.495 . S
C6049 H6055 0.959 . S
C6049 H6056 0.961 . S
C6049 H6057 0.960 . S
C6050 C6048 1.381 . S
C6050 C6051 1.394 . S
C6050 H6058 0.930 . S
C6051 C6050 1.394 . S
C6051 C6052 1.383 . S
C6051 H6059 0.929 . S
C6052 C6051 1.383 . S
C6052 C6053 1.377 . S
C6053 H6037 0.930 . S
C6053 C6052 1.377 . S
C6053 C6054 1.379 . S
C6054 H6038 0.931 . S
C6054 C6048 1.383 . S
C6054 C6053 1.379 . S
H6055 C6049 0.959 . S
H6056 C6049 0.961 . S
H6057 C6049 0.960 . S
H6058 C6050 0.930 . S
H6059 C6051 0.929 . S
H6060 C6068 0.929 . S
H6061 C6070 0.930 . S
H6062 C6072 0.930 . S
H6063 C6075 0.929 . S
H6064 C6078 0.930 . S
H6065 C6080 0.960 . S
H6066 C6080 0.960 . S
H6067 C6080 0.960 . S
C6068 H6060 0.929 . S
C6068 C6069 1.377 . S
C6068 C6070 1.384 . S
C6069 C6068 1.377 . S
C6069 C6075 1.390 . S
C6070 H6061 0.930 . S
C6070 C6068 1.384 . S
C6070 C6071 1.372 . S
C6071 C6070 1.372 . S
C6071 C6072 1.400 . S
C6071 C6076 1.490 . S
C6072 H6062 0.930 . S
C6072 C6071 1.400 . S
C6072 C6075 1.386 . S
H6073 C6089 0.930 . S
H6074 C6090 0.931 . S
C6075 H6063 0.929 . S
C6075 C6069 1.390 . S
C6075 C6072 1.386 . S
C6076 C6071 1.490 . S
C6076 C6078 1.395 . S
C6076 C6079 1.403 . S
H6077 C6083 0.930 . S
C6078 H6064 0.930 . S
C6078 C6076 1.395 . S
C6078 C6081 1.403 . S
C6079 C6076 1.403 . S
C6079 C6080 1.524 . S
C6079 C6083 1.400 . S
C6080 H6065 0.960 . S
C6080 H6066 0.960 . S
C6080 H6067 0.960 . S
C6080 C6079 1.524 . S
C6081 C6078 1.403 . S
C6081 C6082 1.392 . S
C6081 C6085 1.495 . S
C6082 C6081 1.392 . S
C6082 C6083 1.385 . S
C6082 C6084 1.478 . S
C6083 H6077 0.930 . S
C6083 C6079 1.400 . S
C6083 C6082 1.385 . S
C6084 C6082 1.478 . S
C6084 C6086 1.381 . S
C6084 C6090 1.383 . S
C6085 C6081 1.495 . S
C6085 H6091 0.959 . S
C6085 H6092 0.961 . S
C6085 H6093 0.960 . S
C6086 C6084 1.381 . S
C6086 C6087 1.394 . S
C6086 H6094 0.930 . S
C6087 C6086 1.394 . S
C6087 C6088 1.383 . S
C6087 H6095 0.929 . S
C6088 C6087 1.383 . S
C6088 C6089 1.377 . S
C6089 H6073 0.930 . S
C6089 C6088 1.377 . S
C6089 C6090 1.379 . S
C6090 H6074 0.931 . S
C6090 C6084 1.383 . S
C6090 C6089 1.379 . S
H6091 C6085 0.959 . S
H6092 C6085 0.961 . S
H6093 C6085 0.960 . S
H6094 C6086 0.930 . S
H6095 C6087 0.929 . S
H6096 C6104 0.929 . S
H6097 C6106 0.930 . S
H6098 C6108 0.930 . S
H6099 C6111 0.929 . S
H6100 C6114 0.930 . S
H6101 C6116 0.960 . S
H6102 C6116 0.960 . S
H6103 C6116 0.960 . S
C6104 H6096 0.929 . S
C6104 C6105 1.377 . S
C6104 C6106 1.384 . S
C6105 C6104 1.377 . S
C6105 C6111 1.390 . S
C6106 H6097 0.930 . S
C6106 C6104 1.384 . S
C6106 C6107 1.372 . S
C6107 C6106 1.372 . S
C6107 C6108 1.400 . S
C6107 C6112 1.490 . S
C6108 H6098 0.930 . S
C6108 C6107 1.400 . S
C6108 C6111 1.386 . S
H6109 C6125 0.930 . S
H6110 C6126 0.931 . S
C6111 H6099 0.929 . S
C6111 C6105 1.390 . S
C6111 C6108 1.386 . S
C6112 C6107 1.490 . S
C6112 C6114 1.395 . S
C6112 C6115 1.403 . S
H6113 C6119 0.930 . S
C6114 H6100 0.930 . S
C6114 C6112 1.395 . S
C6114 C6117 1.403 . S
C6115 C6112 1.403 . S
C6115 C6116 1.524 . S
C6115 C6119 1.400 . S
C6116 H6101 0.960 . S
C6116 H6102 0.960 . S
C6116 H6103 0.960 . S
C6116 C6115 1.524 . S
C6117 C6114 1.403 . S
C6117 C6118 1.392 . S
C6117 C6121 1.495 . S
C6118 C6117 1.392 . S
C6118 C6119 1.385 . S
C6118 C6120 1.478 . S
C6119 H6113 0.930 . S
C6119 C6115 1.400 . S
C6119 C6118 1.385 . S
C6120 C6118 1.478 . S
C6120 C6122 1.381 . S
C6120 C6126 1.383 . S
C6121 C6117 1.495 . S
C6121 H6127 0.959 . S
C6121 H6128 0.961 . S
C6121 H6129 0.960 . S
C6122 C6120 1.381 . S
C6122 C6123 1.394 . S
C6122 H6130 0.930 . S
C6123 C6122 1.394 . S
C6123 C6124 1.383 . S
C6123 H6131 0.929 . S
C6124 C6123 1.383 . S
C6124 C6125 1.377 . S
C6125 H6109 0.930 . S
C6125 C6124 1.377 . S
C6125 C6126 1.379 . S
C6126 H6110 0.931 . S
C6126 C6120 1.383 . S
C6126 C6125 1.379 . S
H6127 C6121 0.959 . S
H6128 C6121 0.961 . S
H6129 C6121 0.960 . S
H6130 C6122 0.930 . S
H6131 C6123 0.929 . S
H6132 C6140 0.929 . S
H6133 C6142 0.930 . S
H6134 C6144 0.930 . S
H6135 C6147 0.929 . S
H6136 C6150 0.930 . S
H6137 C6152 0.960 . S
H6138 C6152 0.960 . S
H6139 C6152 0.960 . S
C6140 H6132 0.929 . S
C6140 C6141 1.377 . S
C6140 C6142 1.384 . S
C6141 C6140 1.377 . S
C6141 C6147 1.390 . S
C6142 H6133 0.930 . S
C6142 C6140 1.384 . S
C6142 C6143 1.372 . S
C6143 C6142 1.372 . S
C6143 C6144 1.400 . S
C6143 C6148 1.490 . S
C6144 H6134 0.930 . S
C6144 C6143 1.400 . S
C6144 C6147 1.386 . S
H6145 C6161 0.930 . S
H6146 C6162 0.931 . S
C6147 H6135 0.929 . S
C6147 C6141 1.390 . S
C6147 C6144 1.386 . S
C6148 C6143 1.490 . S
C6148 C6150 1.395 . S
C6148 C6151 1.403 . S
H6149 C6155 0.930 . S
C6150 H6136 0.930 . S
C6150 C6148 1.395 . S
C6150 C6153 1.403 . S
C6151 C6148 1.403 . S
C6151 C6152 1.524 . S
C6151 C6155 1.400 . S
C6152 H6137 0.960 . S
C6152 H6138 0.960 . S
C6152 H6139 0.960 . S
C6152 C6151 1.524 . S
C6153 C6150 1.403 . S
C6153 C6154 1.392 . S
C6153 C6157 1.495 . S
C6154 C6153 1.392 . S
C6154 C6155 1.385 . S
C6154 C6156 1.478 . S
C6155 H6149 0.930 . S
C6155 C6151 1.400 . S
C6155 C6154 1.385 . S
C6156 C6154 1.478 . S
C6156 C6158 1.381 . S
C6156 C6162 1.383 . S
C6157 C6153 1.495 . S
C6157 H6163 0.959 . S
C6157 H6164 0.961 . S
C6157 H6165 0.960 . S
C6158 C6156 1.381 . S
C6158 C6159 1.394 . S
C6158 H6166 0.930 . S
C6159 C6158 1.394 . S
C6159 C6160 1.383 . S
C6159 H6167 0.929 . S
C6160 C6159 1.383 . S
C6160 C6161 1.377 . S
C6161 H6145 0.930 . S
C6161 C6160 1.377 . S
C6161 C6162 1.379 . S
C6162 H6146 0.931 . S
C6162 C6156 1.383 . S
C6162 C6161 1.379 . S
H6163 C6157 0.959 . S
H6164 C6157 0.961 . S
H6165 C6157 0.960 . S
H6166 C6158 0.930 . S
H6167 C6159 0.929 . S
H6168 C6176 0.929 . S
H6169 C6178 0.930 . S
H6170 C6180 0.930 . S
H6171 C6183 0.929 . S
H6172 C6186 0.930 . S
H6173 C6188 0.960 . S
H6174 C6188 0.960 . S
H6175 C6188 0.960 . S
C6176 H6168 0.929 . S
C6176 C6177 1.377 . S
C6176 C6178 1.384 . S
C6177 C6176 1.377 . S
C6177 C6183 1.390 . S
C6178 H6169 0.930 . S
C6178 C6176 1.384 . S
C6178 C6179 1.372 . S
C6179 C6178 1.372 . S
C6179 C6180 1.400 . S
C6179 C6184 1.490 . S
C6180 H6170 0.930 . S
C6180 C6179 1.400 . S
C6180 C6183 1.386 . S
H6181 C6197 0.930 . S
H6182 C6198 0.931 . S
C6183 H6171 0.929 . S
C6183 C6177 1.390 . S
C6183 C6180 1.386 . S
C6184 C6179 1.490 . S
C6184 C6186 1.395 . S
C6184 C6187 1.403 . S
H6185 C6191 0.930 . S
C6186 H6172 0.930 . S
C6186 C6184 1.395 . S
C6186 C6189 1.403 . S
C6187 C6184 1.403 . S
C6187 C6188 1.524 . S
C6187 C6191 1.400 . S
C6188 H6173 0.960 . S
C6188 H6174 0.960 . S
C6188 H6175 0.960 . S
C6188 C6187 1.524 . S
C6189 C6186 1.403 . S
C6189 C6190 1.392 . S
C6189 C6193 1.495 . S
C6190 C6189 1.392 . S
C6190 C6191 1.385 . S
C6190 C6192 1.478 . S
C6191 H6185 0.930 . S
C6191 C6187 1.400 . S
C6191 C6190 1.385 . S
C6192 C6190 1.478 . S
C6192 C6194 1.381 . S
C6192 C6198 1.383 . S
C6193 C6189 1.495 . S
C6193 H6199 0.959 . S
C6193 H6200 0.961 . S
C6193 H6201 0.960 . S
C6194 C6192 1.381 . S
C6194 C6195 1.394 . S
C6194 H6202 0.930 . S
C6195 C6194 1.394 . S
C6195 C6196 1.383 . S
C6195 H6203 0.929 . S
C6196 C6195 1.383 . S
C6196 C6197 1.377 . S
C6197 H6181 0.930 . S
C6197 C6196 1.377 . S
C6197 C6198 1.379 . S
C6198 H6182 0.931 . S
C6198 C6192 1.383 . S
C6198 C6197 1.379 . S
H6199 C6193 0.959 . S
H6200 C6193 0.961 . S
H6201 C6193 0.960 . S
H6202 C6194 0.930 . S
H6203 C6195 0.929 . S
H6204 C6212 0.929 . S
H6205 C6214 0.930 . S
H6206 C6216 0.930 . S
H6207 C6219 0.929 . S
H6208 C6222 0.930 . S
H6209 C6224 0.960 . S
H6210 C6224 0.960 . S
H6211 C6224 0.960 . S
C6212 H6204 0.929 . S
C6212 C6213 1.377 . S
C6212 C6214 1.384 . S
C6213 C6212 1.377 . S
C6213 C6219 1.390 . S
C6214 H6205 0.930 . S
C6214 C6212 1.384 . S
C6214 C6215 1.372 . S
C6215 C6214 1.372 . S
C6215 C6216 1.400 . S
C6215 C6220 1.490 . S
C6216 H6206 0.930 . S
C6216 C6215 1.400 . S
C6216 C6219 1.386 . S
H6217 C6233 0.930 . S
H6218 C6234 0.931 . S
C6219 H6207 0.929 . S
C6219 C6213 1.390 . S
C6219 C6216 1.386 . S
C6220 C6215 1.490 . S
C6220 C6222 1.395 . S
C6220 C6223 1.403 . S
H6221 C6227 0.930 . S
C6222 H6208 0.930 . S
C6222 C6220 1.395 . S
C6222 C6225 1.403 . S
C6223 C6220 1.403 . S
C6223 C6224 1.524 . S
C6223 C6227 1.400 . S
C6224 H6209 0.960 . S
C6224 H6210 0.960 . S
C6224 H6211 0.960 . S
C6224 C6223 1.524 . S
C6225 C6222 1.403 . S
C6225 C6226 1.392 . S
C6225 C6229 1.495 . S
C6226 C6225 1.392 . S
C6226 C6227 1.385 . S
C6226 C6228 1.478 . S
C6227 H6221 0.930 . S
C6227 C6223 1.400 . S
C6227 C6226 1.385 . S
C6228 C6226 1.478 . S
C6228 C6230 1.381 . S
C6228 C6234 1.383 . S
C6229 C6225 1.495 . S
C6229 H6235 0.959 . S
C6229 H6236 0.961 . S
C6229 H6237 0.960 . S
C6230 C6228 1.381 . S
C6230 C6231 1.394 . S
C6230 H6238 0.930 . S
C6231 C6230 1.394 . S
C6231 C6232 1.383 . S
C6231 H6239 0.929 . S
C6232 C6231 1.383 . S
C6232 C6233 1.377 . S
C6233 H6217 0.930 . S
C6233 C6232 1.377 . S
C6233 C6234 1.379 . S
C6234 H6218 0.931 . S
C6234 C6228 1.383 . S
C6234 C6233 1.379 . S
H6235 C6229 0.959 . S
H6236 C6229 0.961 . S
H6237 C6229 0.960 . S
H6238 C6230 0.930 . S
H6239 C6231 0.929 . S
H6240 C6248 0.929 . S
H6241 C6250 0.930 . S
H6242 C6252 0.930 . S
H6243 C6255 0.929 . S
H6244 C6258 0.930 . S
H6245 C6260 0.960 . S
H6246 C6260 0.960 . S
H6247 C6260 0.960 . S
C6248 H6240 0.929 . S
C6248 C6249 1.377 . S
C6248 C6250 1.384 . S
C6249 C6248 1.377 . S
C6249 C6255 1.390 . S
C6250 H6241 0.930 . S
C6250 C6248 1.384 . S
C6250 C6251 1.372 . S
C6251 C6250 1.372 . S
C6251 C6252 1.400 . S
C6251 C6256 1.490 . S
C6252 H6242 0.930 . S
C6252 C6251 1.400 . S
C6252 C6255 1.386 . S
H6253 C6269 0.930 . S
H6254 C6270 0.931 . S
C6255 H6243 0.929 . S
C6255 C6249 1.390 . S
C6255 C6252 1.386 . S
C6256 C6251 1.490 . S
C6256 C6258 1.395 . S
C6256 C6259 1.403 . S
H6257 C6263 0.930 . S
C6258 H6244 0.930 . S
C6258 C6256 1.395 . S
C6258 C6261 1.403 . S
C6259 C6256 1.403 . S
C6259 C6260 1.524 . S
C6259 C6263 1.400 . S
C6260 H6245 0.960 . S
C6260 H6246 0.960 . S
C6260 H6247 0.960 . S
C6260 C6259 1.524 . S
C6261 C6258 1.403 . S
C6261 C6262 1.392 . S
C6261 C6265 1.495 . S
C6262 C6261 1.392 . S
C6262 C6263 1.385 . S
C6262 C6264 1.478 . S
C6263 H6257 0.930 . S
C6263 C6259 1.400 . S
C6263 C6262 1.385 . S
C6264 C6262 1.478 . S
C6264 C6266 1.381 . S
C6264 C6270 1.383 . S
C6265 C6261 1.495 . S
C6265 H6271 0.959 . S
C6265 H6272 0.961 . S
C6265 H6273 0.960 . S
C6266 C6264 1.381 . S
C6266 C6267 1.394 . S
C6266 H6274 0.930 . S
C6267 C6266 1.394 . S
C6267 C6268 1.383 . S
C6267 H6275 0.929 . S
C6268 C6267 1.383 . S
C6268 C6269 1.377 . S
C6269 H6253 0.930 . S
C6269 C6268 1.377 . S
C6269 C6270 1.379 . S
C6270 H6254 0.931 . S
C6270 C6264 1.383 . S
C6270 C6269 1.379 . S
H6271 C6265 0.959 . S
H6272 C6265 0.961 . S
H6273 C6265 0.960 . S
H6274 C6266 0.930 . S
H6275 C6267 0.929 . S
H6276 C6284 0.929 . S
H6277 C6286 0.930 . S
H6278 C6288 0.930 . S
H6279 C6291 0.929 . S
H6280 C6294 0.930 . S
H6281 C6296 0.960 . S
H6282 C6296 0.960 . S
H6283 C6296 0.960 . S
C6284 H6276 0.929 . S
C6284 C6285 1.377 . S
C6284 C6286 1.384 . S
C6285 C6284 1.377 . S
C6285 C6291 1.390 . S
C6286 H6277 0.930 . S
C6286 C6284 1.384 . S
C6286 C6287 1.372 . S
C6287 C6286 1.372 . S
C6287 C6288 1.400 . S
C6287 C6292 1.490 . S
C6288 H6278 0.930 . S
C6288 C6287 1.400 . S
C6288 C6291 1.386 . S
H6289 C6305 0.930 . S
H6290 C6306 0.931 . S
C6291 H6279 0.929 . S
C6291 C6285 1.390 . S
C6291 C6288 1.386 . S
C6292 C6287 1.490 . S
C6292 C6294 1.395 . S
C6292 C6295 1.403 . S
H6293 C6299 0.930 . S
C6294 H6280 0.930 . S
C6294 C6292 1.395 . S
C6294 C6297 1.403 . S
C6295 C6292 1.403 . S
C6295 C6296 1.524 . S
C6295 C6299 1.400 . S
C6296 H6281 0.960 . S
C6296 H6282 0.960 . S
C6296 H6283 0.960 . S
C6296 C6295 1.524 . S
C6297 C6294 1.403 . S
C6297 C6298 1.392 . S
C6297 C6301 1.495 . S
C6298 C6297 1.392 . S
C6298 C6299 1.385 . S
C6298 C6300 1.478 . S
C6299 H6293 0.930 . S
C6299 C6295 1.400 . S
C6299 C6298 1.385 . S
C6300 C6298 1.478 . S
C6300 C6302 1.381 . S
C6300 C6306 1.383 . S
C6301 C6297 1.495 . S
C6301 H6307 0.959 . S
C6301 H6308 0.961 . S
C6301 H6309 0.960 . S
C6302 C6300 1.381 . S
C6302 C6303 1.394 . S
C6302 H6310 0.930 . S
C6303 C6302 1.394 . S
C6303 C6304 1.383 . S
C6303 H6311 0.929 . S
C6304 C6303 1.383 . S
C6304 C6305 1.377 . S
C6305 H6289 0.930 . S
C6305 C6304 1.377 . S
C6305 C6306 1.379 . S
C6306 H6290 0.931 . S
C6306 C6300 1.383 . S
C6306 C6305 1.379 . S
H6307 C6301 0.959 . S
H6308 C6301 0.961 . S
H6309 C6301 0.960 . S
H6310 C6302 0.930 . S
H6311 C6303 0.929 . S
H6312 C6320 0.929 . S
H6313 C6322 0.930 . S
H6314 C6324 0.930 . S
H6315 C6327 0.929 . S
H6316 C6330 0.930 . S
H6317 C6332 0.960 . S
H6318 C6332 0.960 . S
H6319 C6332 0.960 . S
C6320 H6312 0.929 . S
C6320 C6321 1.377 . S
C6320 C6322 1.384 . S
C6321 C6320 1.377 . S
C6321 C6327 1.390 . S
C6322 H6313 0.930 . S
C6322 C6320 1.384 . S
C6322 C6323 1.372 . S
C6323 C6322 1.372 . S
C6323 C6324 1.400 . S
C6323 C6328 1.490 . S
C6324 H6314 0.930 . S
C6324 C6323 1.400 . S
C6324 C6327 1.386 . S
H6325 C6341 0.930 . S
H6326 C6342 0.931 . S
C6327 H6315 0.929 . S
C6327 C6321 1.390 . S
C6327 C6324 1.386 . S
C6328 C6323 1.490 . S
C6328 C6330 1.395 . S
C6328 C6331 1.403 . S
H6329 C6335 0.930 . S
C6330 H6316 0.930 . S
C6330 C6328 1.395 . S
C6330 C6333 1.403 . S
C6331 C6328 1.403 . S
C6331 C6332 1.524 . S
C6331 C6335 1.400 . S
C6332 H6317 0.960 . S
C6332 H6318 0.960 . S
C6332 H6319 0.960 . S
C6332 C6331 1.524 . S
C6333 C6330 1.403 . S
C6333 C6334 1.392 . S
C6333 C6337 1.495 . S
C6334 C6333 1.392 . S
C6334 C6335 1.385 . S
C6334 C6336 1.478 . S
C6335 H6329 0.930 . S
C6335 C6331 1.400 . S
C6335 C6334 1.385 . S
C6336 C6334 1.478 . S
C6336 C6338 1.381 . S
C6336 C6342 1.383 . S
C6337 C6333 1.495 . S
C6337 H6343 0.959 . S
C6337 H6344 0.961 . S
C6337 H6345 0.960 . S
C6338 C6336 1.381 . S
C6338 C6339 1.394 . S
C6338 H6346 0.930 . S
C6339 C6338 1.394 . S
C6339 C6340 1.383 . S
C6339 H6347 0.929 . S
C6340 C6339 1.383 . S
C6340 C6341 1.377 . S
C6341 H6325 0.930 . S
C6341 C6340 1.377 . S
C6341 C6342 1.379 . S
C6342 H6326 0.931 . S
C6342 C6336 1.383 . S
C6342 C6341 1.379 . S
H6343 C6337 0.959 . S
H6344 C6337 0.961 . S
H6345 C6337 0.960 . S
H6346 C6338 0.930 . S
H6347 C6339 0.929 . S
H6348 C6356 0.929 . S
H6349 C6358 0.930 . S
H6350 C6360 0.930 . S
H6351 C6363 0.929 . S
H6352 C6366 0.930 . S
H6353 C6368 0.960 . S
H6354 C6368 0.960 . S
H6355 C6368 0.960 . S
C6356 H6348 0.929 . S
C6356 C6357 1.377 . S
C6356 C6358 1.384 . S
C6357 C6356 1.377 . S
C6357 C6363 1.390 . S
C6358 H6349 0.930 . S
C6358 C6356 1.384 . S
C6358 C6359 1.372 . S
C6359 C6358 1.372 . S
C6359 C6360 1.400 . S
C6359 C6364 1.490 . S
C6360 H6350 0.930 . S
C6360 C6359 1.400 . S
C6360 C6363 1.386 . S
H6361 C6377 0.930 . S
H6362 C6378 0.931 . S
C6363 H6351 0.929 . S
C6363 C6357 1.390 . S
C6363 C6360 1.386 . S
C6364 C6359 1.490 . S
C6364 C6366 1.395 . S
C6364 C6367 1.403 . S
H6365 C6371 0.930 . S
C6366 H6352 0.930 . S
C6366 C6364 1.395 . S
C6366 C6369 1.403 . S
C6367 C6364 1.403 . S
C6367 C6368 1.524 . S
C6367 C6371 1.400 . S
C6368 H6353 0.960 . S
C6368 H6354 0.960 . S
C6368 H6355 0.960 . S
C6368 C6367 1.524 . S
C6369 C6366 1.403 . S
C6369 C6370 1.392 . S
C6369 C6373 1.495 . S
C6370 C6369 1.392 . S
C6370 C6371 1.385 . S
C6370 C6372 1.478 . S
C6371 H6365 0.930 . S
C6371 C6367 1.400 . S
C6371 C6370 1.385 . S
C6372 C6370 1.478 . S
C6372 C6374 1.381 . S
C6372 C6378 1.383 . S
C6373 C6369 1.495 . S
C6373 H6379 0.959 . S
C6373 H6380 0.961 . S
C6373 H6381 0.960 . S
C6374 C6372 1.381 . S
C6374 C6375 1.394 . S
C6374 H6382 0.930 . S
C6375 C6374 1.394 . S
C6375 C6376 1.383 . S
C6375 H6383 0.929 . S
C6376 C6375 1.383 . S
C6376 C6377 1.377 . S
C6377 H6361 0.930 . S
C6377 C6376 1.377 . S
C6377 C6378 1.379 . S
C6378 H6362 0.931 . S
C6378 C6372 1.383 . S
C6378 C6377 1.379 . S
H6379 C6373 0.959 . S
H6380 C6373 0.961 . S
H6381 C6373 0.960 . S
H6382 C6374 0.930 . S
H6383 C6375 0.929 . S
H6384 C6392 0.929 . S
H6385 C6394 0.930 . S
H6386 C6396 0.930 . S
H6387 C6399 0.929 . S
H6388 C6402 0.930 . S
H6389 C6404 0.960 . S
H6390 C6404 0.960 . S
H6391 C6404 0.960 . S
C6392 H6384 0.929 . S
C6392 C6393 1.377 . S
C6392 C6394 1.384 . S
C6393 C6392 1.377 . S
C6393 C6399 1.390 . S
C6394 H6385 0.930 . S
C6394 C6392 1.384 . S
C6394 C6395 1.372 . S
C6395 C6394 1.372 . S
C6395 C6396 1.400 . S
C6395 C6400 1.490 . S
C6396 H6386 0.930 . S
C6396 C6395 1.400 . S
C6396 C6399 1.386 . S
H6397 C6413 0.930 . S
H6398 C6414 0.931 . S
C6399 H6387 0.929 . S
C6399 C6393 1.390 . S
C6399 C6396 1.386 . S
C6400 C6395 1.490 . S
C6400 C6402 1.395 . S
C6400 C6403 1.403 . S
H6401 C6407 0.930 . S
C6402 H6388 0.930 . S
C6402 C6400 1.395 . S
C6402 C6405 1.403 . S
C6403 C6400 1.403 . S
C6403 C6404 1.524 . S
C6403 C6407 1.400 . S
C6404 H6389 0.960 . S
C6404 H6390 0.960 . S
C6404 H6391 0.960 . S
C6404 C6403 1.524 . S
C6405 C6402 1.403 . S
C6405 C6406 1.392 . S
C6405 C6409 1.495 . S
C6406 C6405 1.392 . S
C6406 C6407 1.385 . S
C6406 C6408 1.478 . S
C6407 H6401 0.930 . S
C6407 C6403 1.400 . S
C6407 C6406 1.385 . S
C6408 C6406 1.478 . S
C6408 C6410 1.381 . S
C6408 C6414 1.383 . S
C6409 C6405 1.495 . S
C6409 H6415 0.959 . S
C6409 H6416 0.961 . S
C6409 H6417 0.960 . S
C6410 C6408 1.381 . S
C6410 C6411 1.394 . S
C6410 H6418 0.930 . S
C6411 C6410 1.394 . S
C6411 C6412 1.383 . S
C6411 H6419 0.929 . S
C6412 C6411 1.383 . S
C6412 C6413 1.377 . S
C6413 H6397 0.930 . S
C6413 C6412 1.377 . S
C6413 C6414 1.379 . S
C6414 H6398 0.931 . S
C6414 C6408 1.383 . S
C6414 C6413 1.379 . S
H6415 C6409 0.959 . S
H6416 C6409 0.961 . S
H6417 C6409 0.960 . S
H6418 C6410 0.930 . S
H6419 C6411 0.929 . S
H6420 C6428 0.929 . S
H6421 C6430 0.930 . S
H6422 C6432 0.930 . S
H6423 C6435 0.929 . S
H6424 C6438 0.930 . S
H6425 C6440 0.960 . S
H6426 C6440 0.960 . S
H6427 C6440 0.960 . S
C6428 H6420 0.929 . S
C6428 C6429 1.377 . S
C6428 C6430 1.384 . S
C6429 C6428 1.377 . S
C6429 C6435 1.390 . S
C6430 H6421 0.930 . S
C6430 C6428 1.384 . S
C6430 C6431 1.372 . S
C6431 C6430 1.372 . S
C6431 C6432 1.400 . S
C6431 C6436 1.490 . S
C6432 H6422 0.930 . S
C6432 C6431 1.400 . S
C6432 C6435 1.386 . S
H6433 C6449 0.930 . S
H6434 C6450 0.931 . S
C6435 H6423 0.929 . S
C6435 C6429 1.390 . S
C6435 C6432 1.386 . S
C6436 C6431 1.490 . S
C6436 C6438 1.395 . S
C6436 C6439 1.403 . S
H6437 C6443 0.930 . S
C6438 H6424 0.930 . S
C6438 C6436 1.395 . S
C6438 C6441 1.403 . S
C6439 C6436 1.403 . S
C6439 C6440 1.524 . S
C6439 C6443 1.400 . S
C6440 H6425 0.960 . S
C6440 H6426 0.960 . S
C6440 H6427 0.960 . S
C6440 C6439 1.524 . S
C6441 C6438 1.403 . S
C6441 C6442 1.392 . S
C6441 C6445 1.495 . S
C6442 C6441 1.392 . S
C6442 C6443 1.385 . S
C6442 C6444 1.478 . S
C6443 H6437 0.930 . S
C6443 C6439 1.400 . S
C6443 C6442 1.385 . S
C6444 C6442 1.478 . S
C6444 C6446 1.381 . S
C6444 C6450 1.383 . S
C6445 C6441 1.495 . S
C6445 H6451 0.959 . S
C6445 H6452 0.961 . S
C6445 H6453 0.960 . S
C6446 C6444 1.381 . S
C6446 C6447 1.394 . S
C6446 H6454 0.930 . S
C6447 C6446 1.394 . S
C6447 C6448 1.383 . S
C6447 H6455 0.929 . S
C6448 C6447 1.383 . S
C6448 C6449 1.377 . S
C6449 H6433 0.930 . S
C6449 C6448 1.377 . S
C6449 C6450 1.379 . S
C6450 H6434 0.931 . S
C6450 C6444 1.383 . S
C6450 C6449 1.379 . S
H6451 C6445 0.959 . S
H6452 C6445 0.961 . S
H6453 C6445 0.960 . S
H6454 C6446 0.930 . S
H6455 C6447 0.929 . S
H6456 C6464 0.929 . S
H6457 C6466 0.930 . S
H6458 C6468 0.930 . S
H6459 C6471 0.929 . S
H6460 C6474 0.930 . S
H6461 C6476 0.960 . S
H6462 C6476 0.960 . S
H6463 C6476 0.960 . S
C6464 H6456 0.929 . S
C6464 C6465 1.377 . S
C6464 C6466 1.384 . S
C6465 C6464 1.377 . S
C6465 C6471 1.390 . S
C6466 H6457 0.930 . S
C6466 C6464 1.384 . S
C6466 C6467 1.372 . S
C6467 C6466 1.372 . S
C6467 C6468 1.400 . S
C6467 C6472 1.490 . S
C6468 H6458 0.930 . S
C6468 C6467 1.400 . S
C6468 C6471 1.386 . S
H6469 C6485 0.930 . S
H6470 C6486 0.931 . S
C6471 H6459 0.929 . S
C6471 C6465 1.390 . S
C6471 C6468 1.386 . S
C6472 C6467 1.490 . S
C6472 C6474 1.395 . S
C6472 C6475 1.403 . S
H6473 C6479 0.930 . S
C6474 H6460 0.930 . S
C6474 C6472 1.395 . S
C6474 C6477 1.403 . S
C6475 C6472 1.403 . S
C6475 C6476 1.524 . S
C6475 C6479 1.400 . S
C6476 H6461 0.960 . S
C6476 H6462 0.960 . S
C6476 H6463 0.960 . S
C6476 C6475 1.524 . S
C6477 C6474 1.403 . S
C6477 C6478 1.392 . S
C6477 C6481 1.495 . S
C6478 C6477 1.392 . S
C6478 C6479 1.385 . S
C6478 C6480 1.478 . S
C6479 H6473 0.930 . S
C6479 C6475 1.400 . S
C6479 C6478 1.385 . S
C6480 C6478 1.478 . S
C6480 C6482 1.381 . S
C6480 C6486 1.383 . S
C6481 C6477 1.495 . S
C6481 H6487 0.959 . S
C6481 H6488 0.961 . S
C6481 H6489 0.960 . S
C6482 C6480 1.381 . S
C6482 C6483 1.394 . S
C6482 H6490 0.930 . S
C6483 C6482 1.394 . S
C6483 C6484 1.383 . S
C6483 H6491 0.929 . S
C6484 C6483 1.383 . S
C6484 C6485 1.377 . S
C6485 H6469 0.930 . S
C6485 C6484 1.377 . S
C6485 C6486 1.379 . S
C6486 H6470 0.931 . S
C6486 C6480 1.383 . S
C6486 C6485 1.379 . S
H6487 C6481 0.959 . S
H6488 C6481 0.961 . S
H6489 C6481 0.960 . S
H6490 C6482 0.930 . S
H6491 C6483 0.929 . S
H6492 C6500 0.929 . S
H6493 C6502 0.930 . S
H6494 C6504 0.930 . S
H6495 C6507 0.929 . S
H6496 C6510 0.930 . S
H6497 C6512 0.960 . S
H6498 C6512 0.960 . S
H6499 C6512 0.960 . S
C6500 H6492 0.929 . S
C6500 C6501 1.377 . S
C6500 C6502 1.384 . S
C6501 C6500 1.377 . S
C6501 C6507 1.390 . S
C6502 H6493 0.930 . S
C6502 C6500 1.384 . S
C6502 C6503 1.372 . S
C6503 C6502 1.372 . S
C6503 C6504 1.400 . S
C6503 C6508 1.490 . S
C6504 H6494 0.930 . S
C6504 C6503 1.400 . S
C6504 C6507 1.386 . S
H6505 C6521 0.930 . S
H6506 C6522 0.931 . S
C6507 H6495 0.929 . S
C6507 C6501 1.390 . S
C6507 C6504 1.386 . S
C6508 C6503 1.490 . S
C6508 C6510 1.395 . S
C6508 C6511 1.403 . S
H6509 C6515 0.930 . S
C6510 H6496 0.930 . S
C6510 C6508 1.395 . S
C6510 C6513 1.403 . S
C6511 C6508 1.403 . S
C6511 C6512 1.524 . S
C6511 C6515 1.400 . S
C6512 H6497 0.960 . S
C6512 H6498 0.960 . S
C6512 H6499 0.960 . S
C6512 C6511 1.524 . S
C6513 C6510 1.403 . S
C6513 C6514 1.392 . S
C6513 C6517 1.495 . S
C6514 C6513 1.392 . S
C6514 C6515 1.385 . S
C6514 C6516 1.478 . S
C6515 H6509 0.930 . S
C6515 C6511 1.400 . S
C6515 C6514 1.385 . S
C6516 C6514 1.478 . S
C6516 C6518 1.381 . S
C6516 C6522 1.383 . S
C6517 C6513 1.495 . S
C6517 H6523 0.959 . S
C6517 H6524 0.961 . S
C6517 H6525 0.960 . S
C6518 C6516 1.381 . S
C6518 C6519 1.394 . S
C6518 H6526 0.930 . S
C6519 C6518 1.394 . S
C6519 C6520 1.383 . S
C6519 H6527 0.929 . S
C6520 C6519 1.383 . S
C6520 C6521 1.377 . S
C6521 H6505 0.930 . S
C6521 C6520 1.377 . S
C6521 C6522 1.379 . S
C6522 H6506 0.931 . S
C6522 C6516 1.383 . S
C6522 C6521 1.379 . S
H6523 C6517 0.959 . S
H6524 C6517 0.961 . S
H6525 C6517 0.960 . S
H6526 C6518 0.930 . S
H6527 C6519 0.929 . S
H6528 C6536 0.929 . S
H6529 C6538 0.930 . S
H6530 C6540 0.930 . S
H6531 C6543 0.929 . S
H6532 C6546 0.930 . S
H6533 C6548 0.960 . S
H6534 C6548 0.960 . S
H6535 C6548 0.960 . S
C6536 H6528 0.929 . S
C6536 C6537 1.377 . S
C6536 C6538 1.384 . S
C6537 C6536 1.377 . S
C6537 C6543 1.390 . S
C6538 H6529 0.930 . S
C6538 C6536 1.384 . S
C6538 C6539 1.372 . S
C6539 C6538 1.372 . S
C6539 C6540 1.400 . S
C6539 C6544 1.490 . S
C6540 H6530 0.930 . S
C6540 C6539 1.400 . S
C6540 C6543 1.386 . S
H6541 C6557 0.930 . S
H6542 C6558 0.931 . S
C6543 H6531 0.929 . S
C6543 C6537 1.390 . S
C6543 C6540 1.386 . S
C6544 C6539 1.490 . S
C6544 C6546 1.395 . S
C6544 C6547 1.403 . S
H6545 C6551 0.930 . S
C6546 H6532 0.930 . S
C6546 C6544 1.395 . S
C6546 C6549 1.403 . S
C6547 C6544 1.403 . S
C6547 C6548 1.524 . S
C6547 C6551 1.400 . S
C6548 H6533 0.960 . S
C6548 H6534 0.960 . S
C6548 H6535 0.960 . S
C6548 C6547 1.524 . S
C6549 C6546 1.403 . S
C6549 C6550 1.392 . S
C6549 C6553 1.495 . S
C6550 C6549 1.392 . S
C6550 C6551 1.385 . S
C6550 C6552 1.478 . S
C6551 H6545 0.930 . S
C6551 C6547 1.400 . S
C6551 C6550 1.385 . S
C6552 C6550 1.478 . S
C6552 C6554 1.381 . S
C6552 C6558 1.383 . S
C6553 C6549 1.495 . S
C6553 H6559 0.959 . S
C6553 H6560 0.961 . S
C6553 H6561 0.960 . S
C6554 C6552 1.381 . S
C6554 C6555 1.394 . S
C6554 H6562 0.930 . S
C6555 C6554 1.394 . S
C6555 C6556 1.383 . S
C6555 H6563 0.929 . S
C6556 C6555 1.383 . S
C6556 C6557 1.377 . S
C6557 H6541 0.930 . S
C6557 C6556 1.377 . S
C6557 C6558 1.379 . S
C6558 H6542 0.931 . S
C6558 C6552 1.383 . S
C6558 C6557 1.379 . S
H6559 C6553 0.959 . S
H6560 C6553 0.961 . S
H6561 C6553 0.960 . S
H6562 C6554 0.930 . S
H6563 C6555 0.929 . S
H6564 C6572 0.929 . S
H6565 C6574 0.930 . S
H6566 C6576 0.930 . S
H6567 C6579 0.929 . S
H6568 C6582 0.930 . S
H6569 C6584 0.960 . S
H6570 C6584 0.960 . S
H6571 C6584 0.960 . S
C6572 H6564 0.929 . S
C6572 C6573 1.377 . S
C6572 C6574 1.384 . S
C6573 C6572 1.377 . S
C6573 C6579 1.390 . S
C6574 H6565 0.930 . S
C6574 C6572 1.384 . S
C6574 C6575 1.372 . S
C6575 C6574 1.372 . S
C6575 C6576 1.400 . S
C6575 C6580 1.490 . S
C6576 H6566 0.930 . S
C6576 C6575 1.400 . S
C6576 C6579 1.386 . S
H6577 C6593 0.930 . S
H6578 C6594 0.931 . S
C6579 H6567 0.929 . S
C6579 C6573 1.390 . S
C6579 C6576 1.386 . S
C6580 C6575 1.490 . S
C6580 C6582 1.395 . S
C6580 C6583 1.403 . S
H6581 C6587 0.930 . S
C6582 H6568 0.930 . S
C6582 C6580 1.395 . S
C6582 C6585 1.403 . S
C6583 C6580 1.403 . S
C6583 C6584 1.524 . S
C6583 C6587 1.400 . S
C6584 H6569 0.960 . S
C6584 H6570 0.960 . S
C6584 H6571 0.960 . S
C6584 C6583 1.524 . S
C6585 C6582 1.403 . S
C6585 C6586 1.392 . S
C6585 C6589 1.495 . S
C6586 C6585 1.392 . S
C6586 C6587 1.385 . S
C6586 C6588 1.478 . S
C6587 H6581 0.930 . S
C6587 C6583 1.400 . S
C6587 C6586 1.385 . S
C6588 C6586 1.478 . S
C6588 C6590 1.381 . S
C6588 C6594 1.383 . S
C6589 C6585 1.495 . S
C6589 H6595 0.959 . S
C6589 H6596 0.961 . S
C6589 H6597 0.960 . S
C6590 C6588 1.381 . S
C6590 C6591 1.394 . S
C6590 H6598 0.930 . S
C6591 C6590 1.394 . S
C6591 C6592 1.383 . S
C6591 H6599 0.929 . S
C6592 C6591 1.383 . S
C6592 C6593 1.377 . S
C6593 H6577 0.930 . S
C6593 C6592 1.377 . S
C6593 C6594 1.379 . S
C6594 H6578 0.931 . S
C6594 C6588 1.383 . S
C6594 C6593 1.379 . S
H6595 C6589 0.959 . S
H6596 C6589 0.961 . S
H6597 C6589 0.960 . S
H6598 C6590 0.930 . S
H6599 C6591 0.929 . S
H6600 C6608 0.929 . S
H6601 C6610 0.930 . S
H6602 C6612 0.930 . S
H6603 C6615 0.929 . S
H6604 C6618 0.930 . S
H6605 C6620 0.960 . S
H6606 C6620 0.960 . S
H6607 C6620 0.960 . S
C6608 H6600 0.929 . S
C6608 C6609 1.377 . S
C6608 C6610 1.384 . S
C6609 C6608 1.377 . S
C6609 C6615 1.390 . S
C6610 H6601 0.930 . S
C6610 C6608 1.384 . S
C6610 C6611 1.372 . S
C6611 C6610 1.372 . S
C6611 C6612 1.400 . S
C6611 C6616 1.490 . S
C6612 H6602 0.930 . S
C6612 C6611 1.400 . S
C6612 C6615 1.386 . S
H6613 C6629 0.930 . S
H6614 C6630 0.931 . S
C6615 H6603 0.929 . S
C6615 C6609 1.390 . S
C6615 C6612 1.386 . S
C6616 C6611 1.490 . S
C6616 C6618 1.395 . S
C6616 C6619 1.403 . S
H6617 C6623 0.930 . S
C6618 H6604 0.930 . S
C6618 C6616 1.395 . S
C6618 C6621 1.403 . S
C6619 C6616 1.403 . S
C6619 C6620 1.524 . S
C6619 C6623 1.400 . S
C6620 H6605 0.960 . S
C6620 H6606 0.960 . S
C6620 H6607 0.960 . S
C6620 C6619 1.524 . S
C6621 C6618 1.403 . S
C6621 C6622 1.392 . S
C6621 C6625 1.495 . S
C6622 C6621 1.392 . S
C6622 C6623 1.385 . S
C6622 C6624 1.478 . S
C6623 H6617 0.930 . S
C6623 C6619 1.400 . S
C6623 C6622 1.385 . S
C6624 C6622 1.478 . S
C6624 C6626 1.381 . S
C6624 C6630 1.383 . S
C6625 C6621 1.495 . S
C6625 H6631 0.959 . S
C6625 H6632 0.961 . S
C6625 H6633 0.960 . S
C6626 C6624 1.381 . S
C6626 C6627 1.394 . S
C6626 H6634 0.930 . S
C6627 C6626 1.394 . S
C6627 C6628 1.383 . S
C6627 H6635 0.929 . S
C6628 C6627 1.383 . S
C6628 C6629 1.377 . S
C6629 H6613 0.930 . S
C6629 C6628 1.377 . S
C6629 C6630 1.379 . S
C6630 H6614 0.931 . S
C6630 C6624 1.383 . S
C6630 C6629 1.379 . S
H6631 C6625 0.959 . S
H6632 C6625 0.961 . S
H6633 C6625 0.960 . S
H6634 C6626 0.930 . S
H6635 C6627 0.929 . S
H6636 C6644 0.929 . S
H6637 C6646 0.930 . S
H6638 C6648 0.930 . S
H6639 C6651 0.929 . S
H6640 C6654 0.930 . S
H6641 C6656 0.960 . S
H6642 C6656 0.960 . S
H6643 C6656 0.960 . S
C6644 H6636 0.929 . S
C6644 C6645 1.377 . S
C6644 C6646 1.384 . S
C6645 C6644 1.377 . S
C6645 C6651 1.390 . S
C6646 H6637 0.930 . S
C6646 C6644 1.384 . S
C6646 C6647 1.372 . S
C6647 C6646 1.372 . S
C6647 C6648 1.400 . S
C6647 C6652 1.490 . S
C6648 H6638 0.930 . S
C6648 C6647 1.400 . S
C6648 C6651 1.386 . S
H6649 C6665 0.930 . S
H6650 C6666 0.931 . S
C6651 H6639 0.929 . S
C6651 C6645 1.390 . S
C6651 C6648 1.386 . S
C6652 C6647 1.490 . S
C6652 C6654 1.395 . S
C6652 C6655 1.403 . S
H6653 C6659 0.930 . S
C6654 H6640 0.930 . S
C6654 C6652 1.395 . S
C6654 C6657 1.403 . S
C6655 C6652 1.403 . S
C6655 C6656 1.524 . S
C6655 C6659 1.400 . S
C6656 H6641 0.960 . S
C6656 H6642 0.960 . S
C6656 H6643 0.960 . S
C6656 C6655 1.524 . S
C6657 C6654 1.403 . S
C6657 C6658 1.392 . S
C6657 C6661 1.495 . S
C6658 C6657 1.392 . S
C6658 C6659 1.385 . S
C6658 C6660 1.478 . S
C6659 H6653 0.930 . S
C6659 C6655 1.400 . S
C6659 C6658 1.385 . S
C6660 C6658 1.478 . S
C6660 C6662 1.381 . S
C6660 C6666 1.383 . S
C6661 C6657 1.495 . S
C6661 H6667 0.959 . S
C6661 H6668 0.961 . S
C6661 H6669 0.960 . S
C6662 C6660 1.381 . S
C6662 C6663 1.394 . S
C6662 H6670 0.930 . S
C6663 C6662 1.394 . S
C6663 C6664 1.383 . S
C6663 H6671 0.929 . S
C6664 C6663 1.383 . S
C6664 C6665 1.377 . S
C6665 H6649 0.930 . S
C6665 C6664 1.377 . S
C6665 C6666 1.379 . S
C6666 H6650 0.931 . S
C6666 C6660 1.383 . S
C6666 C6665 1.379 . S
H6667 C6661 0.959 . S
H6668 C6661 0.961 . S
H6669 C6661 0.960 . S
H6670 C6662 0.930 . S
H6671 C6663 0.929 . S
H6672 C6680 0.929 . S
H6673 C6682 0.930 . S
H6674 C6684 0.930 . S
H6675 C6687 0.929 . S
H6676 C6690 0.930 . S
H6677 C6692 0.960 . S
H6678 C6692 0.960 . S
H6679 C6692 0.960 . S
C6680 H6672 0.929 . S
C6680 C6681 1.377 . S
C6680 C6682 1.384 . S
C6681 C6680 1.377 . S
C6681 C6687 1.390 . S
C6682 H6673 0.930 . S
C6682 C6680 1.384 . S
C6682 C6683 1.372 . S
C6683 C6682 1.372 . S
C6683 C6684 1.400 . S
C6683 C6688 1.490 . S
C6684 H6674 0.930 . S
C6684 C6683 1.400 . S
C6684 C6687 1.386 . S
H6685 C6701 0.930 . S
H6686 C6702 0.931 . S
C6687 H6675 0.929 . S
C6687 C6681 1.390 . S
C6687 C6684 1.386 . S
C6688 C6683 1.490 . S
C6688 C6690 1.395 . S
C6688 C6691 1.403 . S
H6689 C6695 0.930 . S
C6690 H6676 0.930 . S
C6690 C6688 1.395 . S
C6690 C6693 1.403 . S
C6691 C6688 1.403 . S
C6691 C6692 1.524 . S
C6691 C6695 1.400 . S
C6692 H6677 0.960 . S
C6692 H6678 0.960 . S
C6692 H6679 0.960 . S
C6692 C6691 1.524 . S
C6693 C6690 1.403 . S
C6693 C6694 1.392 . S
C6693 C6697 1.495 . S
C6694 C6693 1.392 . S
C6694 C6695 1.385 . S
C6694 C6696 1.478 . S
C6695 H6689 0.930 . S
C6695 C6691 1.400 . S
C6695 C6694 1.385 . S
C6696 C6694 1.478 . S
C6696 C6698 1.381 . S
C6696 C6702 1.383 . S
C6697 C6693 1.495 . S
C6697 H6703 0.959 . S
C6697 H6704 0.961 . S
C6697 H6705 0.960 . S
C6698 C6696 1.381 . S
C6698 C6699 1.394 . S
C6698 H6706 0.930 . S
C6699 C6698 1.394 . S
C6699 C6700 1.383 . S
C6699 H6707 0.929 . S
C6700 C6699 1.383 . S
C6700 C6701 1.377 . S
C6701 H6685 0.930 . S
C6701 C6700 1.377 . S
C6701 C6702 1.379 . S
C6702 H6686 0.931 . S
C6702 C6696 1.383 . S
C6702 C6701 1.379 . S
H6703 C6697 0.959 . S
H6704 C6697 0.961 . S
H6705 C6697 0.960 . S
H6706 C6698 0.930 . S
H6707 C6699 0.929 . S
H6708 C6716 0.929 . S
H6709 C6718 0.930 . S
H6710 C6720 0.930 . S
H6711 C6723 0.929 . S
H6712 C6726 0.930 . S
H6713 C6728 0.960 . S
H6714 C6728 0.960 . S
H6715 C6728 0.960 . S
C6716 H6708 0.929 . S
C6716 C6717 1.377 . S
C6716 C6718 1.384 . S
C6717 C6716 1.377 . S
C6717 C6723 1.390 . S
C6718 H6709 0.930 . S
C6718 C6716 1.384 . S
C6718 C6719 1.372 . S
C6719 C6718 1.372 . S
C6719 C6720 1.400 . S
C6719 C6724 1.490 . S
C6720 H6710 0.930 . S
C6720 C6719 1.400 . S
C6720 C6723 1.386 . S
H6721 C6737 0.930 . S
H6722 C6738 0.931 . S
C6723 H6711 0.929 . S
C6723 C6717 1.390 . S
C6723 C6720 1.386 . S
C6724 C6719 1.490 . S
C6724 C6726 1.395 . S
C6724 C6727 1.403 . S
H6725 C6731 0.930 . S
C6726 H6712 0.930 . S
C6726 C6724 1.395 . S
C6726 C6729 1.403 . S
C6727 C6724 1.403 . S
C6727 C6728 1.524 . S
C6727 C6731 1.400 . S
C6728 H6713 0.960 . S
C6728 H6714 0.960 . S
C6728 H6715 0.960 . S
C6728 C6727 1.524 . S
C6729 C6726 1.403 . S
C6729 C6730 1.392 . S
C6729 C6733 1.495 . S
C6730 C6729 1.392 . S
C6730 C6731 1.385 . S
C6730 C6732 1.478 . S
C6731 H6725 0.930 . S
C6731 C6727 1.400 . S
C6731 C6730 1.385 . S
C6732 C6730 1.478 . S
C6732 C6734 1.381 . S
C6732 C6738 1.383 . S
C6733 C6729 1.495 . S
C6733 H6739 0.959 . S
C6733 H6740 0.961 . S
C6733 H6741 0.960 . S
C6734 C6732 1.381 . S
C6734 C6735 1.394 . S
C6734 H6742 0.930 . S
C6735 C6734 1.394 . S
C6735 C6736 1.383 . S
C6735 H6743 0.929 . S
C6736 C6735 1.383 . S
C6736 C6737 1.377 . S
C6737 H6721 0.930 . S
C6737 C6736 1.377 . S
C6737 C6738 1.379 . S
C6738 H6722 0.931 . S
C6738 C6732 1.383 . S
C6738 C6737 1.379 . S
H6739 C6733 0.959 . S
H6740 C6733 0.961 . S
H6741 C6733 0.960 . S
H6742 C6734 0.930 . S
H6743 C6735 0.929 . S
H6744 C6752 0.929 . S
H6745 C6754 0.930 . S
H6746 C6756 0.930 . S
H6747 C6759 0.929 . S
H6748 C6762 0.930 . S
H6749 C6764 0.960 . S
H6750 C6764 0.960 . S
H6751 C6764 0.960 . S
C6752 H6744 0.929 . S
C6752 C6753 1.377 . S
C6752 C6754 1.384 . S
C6753 C6752 1.377 . S
C6753 C6759 1.390 . S
C6754 H6745 0.930 . S
C6754 C6752 1.384 . S
C6754 C6755 1.372 . S
C6755 C6754 1.372 . S
C6755 C6756 1.400 . S
C6755 C6760 1.490 . S
C6756 H6746 0.930 . S
C6756 C6755 1.400 . S
C6756 C6759 1.386 . S
H6757 C6773 0.930 . S
H6758 C6774 0.931 . S
C6759 H6747 0.929 . S
C6759 C6753 1.390 . S
C6759 C6756 1.386 . S
C6760 C6755 1.490 . S
C6760 C6762 1.395 . S
C6760 C6763 1.403 . S
H6761 C6767 0.930 . S
C6762 H6748 0.930 . S
C6762 C6760 1.395 . S
C6762 C6765 1.403 . S
C6763 C6760 1.403 . S
C6763 C6764 1.524 . S
C6763 C6767 1.400 . S
C6764 H6749 0.960 . S
C6764 H6750 0.960 . S
C6764 H6751 0.960 . S
C6764 C6763 1.524 . S
C6765 C6762 1.403 . S
C6765 C6766 1.392 . S
C6765 C6769 1.495 . S
C6766 C6765 1.392 . S
C6766 C6767 1.385 . S
C6766 C6768 1.478 . S
C6767 H6761 0.930 . S
C6767 C6763 1.400 . S
C6767 C6766 1.385 . S
C6768 C6766 1.478 . S
C6768 C6770 1.381 . S
C6768 C6774 1.383 . S
C6769 C6765 1.495 . S
C6769 H6775 0.959 . S
C6769 H6776 0.961 . S
C6769 H6777 0.960 . S
C6770 C6768 1.381 . S
C6770 C6771 1.394 . S
C6770 H6778 0.930 . S
C6771 C6770 1.394 . S
C6771 C6772 1.383 . S
C6771 H6779 0.929 . S
C6772 C6771 1.383 . S
C6772 C6773 1.377 . S
C6773 H6757 0.930 . S
C6773 C6772 1.377 . S
C6773 C6774 1.379 . S
C6774 H6758 0.931 . S
C6774 C6768 1.383 . S
C6774 C6773 1.379 . S
H6775 C6769 0.959 . S
H6776 C6769 0.961 . S
H6777 C6769 0.960 . S
H6778 C6770 0.930 . S
H6779 C6771 0.929 . S
H6780 C6788 0.929 . S
H6781 C6790 0.930 . S
H6782 C6792 0.930 . S
H6783 C6795 0.929 . S
H6784 C6798 0.930 . S
H6785 C6800 0.960 . S
H6786 C6800 0.960 . S
H6787 C6800 0.960 . S
C6788 H6780 0.929 . S
C6788 C6789 1.377 . S
C6788 C6790 1.384 . S
C6789 C6788 1.377 . S
C6789 C6795 1.390 . S
C6790 H6781 0.930 . S
C6790 C6788 1.384 . S
C6790 C6791 1.372 . S
C6791 C6790 1.372 . S
C6791 C6792 1.400 . S
C6791 C6796 1.490 . S
C6792 H6782 0.930 . S
C6792 C6791 1.400 . S
C6792 C6795 1.386 . S
H6793 C6809 0.930 . S
H6794 C6810 0.931 . S
C6795 H6783 0.929 . S
C6795 C6789 1.390 . S
C6795 C6792 1.386 . S
C6796 C6791 1.490 . S
C6796 C6798 1.395 . S
C6796 C6799 1.403 . S
H6797 C6803 0.930 . S
C6798 H6784 0.930 . S
C6798 C6796 1.395 . S
C6798 C6801 1.403 . S
C6799 C6796 1.403 . S
C6799 C6800 1.524 . S
C6799 C6803 1.400 . S
C6800 H6785 0.960 . S
C6800 H6786 0.960 . S
C6800 H6787 0.960 . S
C6800 C6799 1.524 . S
C6801 C6798 1.403 . S
C6801 C6802 1.392 . S
C6801 C6805 1.495 . S
C6802 C6801 1.392 . S
C6802 C6803 1.385 . S
C6802 C6804 1.478 . S
C6803 H6797 0.930 . S
C6803 C6799 1.400 . S
C6803 C6802 1.385 . S
C6804 C6802 1.478 . S
C6804 C6806 1.381 . S
C6804 C6810 1.383 . S
C6805 C6801 1.495 . S
C6805 H6811 0.959 . S
C6805 H6812 0.961 . S
C6805 H6813 0.960 . S
C6806 C6804 1.381 . S
C6806 C6807 1.394 . S
C6806 H6814 0.930 . S
C6807 C6806 1.394 . S
C6807 C6808 1.383 . S
C6807 H6815 0.929 . S
C6808 C6807 1.383 . S
C6808 C6809 1.377 . S
C6809 H6793 0.930 . S
C6809 C6808 1.377 . S
C6809 C6810 1.379 . S
C6810 H6794 0.931 . S
C6810 C6804 1.383 . S
C6810 C6809 1.379 . S
H6811 C6805 0.959 . S
H6812 C6805 0.961 . S
H6813 C6805 0.960 . S
H6814 C6806 0.930 . S
H6815 C6807 0.929 . S
H6816 C6824 0.929 . S
H6817 C6826 0.930 . S
H6818 C6828 0.930 . S
H6819 C6831 0.929 . S
H6820 C6834 0.930 . S
H6821 C6836 0.960 . S
H6822 C6836 0.960 . S
H6823 C6836 0.960 . S
C6824 H6816 0.929 . S
C6824 C6825 1.377 . S
C6824 C6826 1.384 . S
C6825 C6824 1.377 . S
C6825 C6831 1.390 . S
C6826 H6817 0.930 . S
C6826 C6824 1.384 . S
C6826 C6827 1.372 . S
C6827 C6826 1.372 . S
C6827 C6828 1.400 . S
C6827 C6832 1.490 . S
C6828 H6818 0.930 . S
C6828 C6827 1.400 . S
C6828 C6831 1.386 . S
H6829 C6845 0.930 . S
H6830 C6846 0.931 . S
C6831 H6819 0.929 . S
C6831 C6825 1.390 . S
C6831 C6828 1.386 . S
C6832 C6827 1.490 . S
C6832 C6834 1.395 . S
C6832 C6835 1.403 . S
H6833 C6839 0.930 . S
C6834 H6820 0.930 . S
C6834 C6832 1.395 . S
C6834 C6837 1.403 . S
C6835 C6832 1.403 . S
C6835 C6836 1.524 . S
C6835 C6839 1.400 . S
C6836 H6821 0.960 . S
C6836 H6822 0.960 . S
C6836 H6823 0.960 . S
C6836 C6835 1.524 . S
C6837 C6834 1.403 . S
C6837 C6838 1.392 . S
C6837 C6841 1.495 . S
C6838 C6837 1.392 . S
C6838 C6839 1.385 . S
C6838 C6840 1.478 . S
C6839 H6833 0.930 . S
C6839 C6835 1.400 . S
C6839 C6838 1.385 . S
C6840 C6838 1.478 . S
C6840 C6842 1.381 . S
C6840 C6846 1.383 . S
C6841 C6837 1.495 . S
C6841 H6847 0.959 . S
C6841 H6848 0.961 . S
C6841 H6849 0.960 . S
C6842 C6840 1.381 . S
C6842 C6843 1.394 . S
C6842 H6850 0.930 . S
C6843 C6842 1.394 . S
C6843 C6844 1.383 . S
C6843 H6851 0.929 . S
C6844 C6843 1.383 . S
C6844 C6845 1.377 . S
C6845 H6829 0.930 . S
C6845 C6844 1.377 . S
C6845 C6846 1.379 . S
C6846 H6830 0.931 . S
C6846 C6840 1.383 . S
C6846 C6845 1.379 . S
H6847 C6841 0.959 . S
H6848 C6841 0.961 . S
H6849 C6841 0.960 . S
H6850 C6842 0.930 . S
H6851 C6843 0.929 . S
H6852 C6860 0.929 . S
H6853 C6862 0.930 . S
H6854 C6864 0.930 . S
H6855 C6867 0.929 . S
H6856 C6870 0.930 . S
H6857 C6872 0.960 . S
H6858 C6872 0.960 . S
H6859 C6872 0.960 . S
C6860 H6852 0.929 . S
C6860 C6861 1.377 . S
C6860 C6862 1.384 . S
C6861 C6860 1.377 . S
C6861 C6867 1.390 . S
C6862 H6853 0.930 . S
C6862 C6860 1.384 . S
C6862 C6863 1.372 . S
C6863 C6862 1.372 . S
C6863 C6864 1.400 . S
C6863 C6868 1.490 . S
C6864 H6854 0.930 . S
C6864 C6863 1.400 . S
C6864 C6867 1.386 . S
H6865 C6881 0.930 . S
H6866 C6882 0.931 . S
C6867 H6855 0.929 . S
C6867 C6861 1.390 . S
C6867 C6864 1.386 . S
C6868 C6863 1.490 . S
C6868 C6870 1.395 . S
C6868 C6871 1.403 . S
H6869 C6875 0.930 . S
C6870 H6856 0.930 . S
C6870 C6868 1.395 . S
C6870 C6873 1.403 . S
C6871 C6868 1.403 . S
C6871 C6872 1.524 . S
C6871 C6875 1.400 . S
C6872 H6857 0.960 . S
C6872 H6858 0.960 . S
C6872 H6859 0.960 . S
C6872 C6871 1.524 . S
C6873 C6870 1.403 . S
C6873 C6874 1.392 . S
C6873 C6877 1.495 . S
C6874 C6873 1.392 . S
C6874 C6875 1.385 . S
C6874 C6876 1.478 . S
C6875 H6869 0.930 . S
C6875 C6871 1.400 . S
C6875 C6874 1.385 . S
C6876 C6874 1.478 . S
C6876 C6878 1.381 . S
C6876 C6882 1.383 . S
C6877 C6873 1.495 . S
C6877 H6883 0.959 . S
C6877 H6884 0.961 . S
C6877 H6885 0.960 . S
C6878 C6876 1.381 . S
C6878 C6879 1.394 . S
C6878 H6886 0.930 . S
C6879 C6878 1.394 . S
C6879 C6880 1.383 . S
C6879 H6887 0.929 . S
C6880 C6879 1.383 . S
C6880 C6881 1.377 . S
C6881 H6865 0.930 . S
C6881 C6880 1.377 . S
C6881 C6882 1.379 . S
C6882 H6866 0.931 . S
C6882 C6876 1.383 . S
C6882 C6881 1.379 . S
H6883 C6877 0.959 . S
H6884 C6877 0.961 . S
H6885 C6877 0.960 . S
H6886 C6878 0.930 . S
H6887 C6879 0.929 . S
H6888 C6896 0.929 . S
H6889 C6898 0.930 . S
H6890 C6900 0.930 . S
H6891 C6903 0.929 . S
H6892 C6906 0.930 . S
H6893 C6908 0.960 . S
H6894 C6908 0.960 . S
H6895 C6908 0.960 . S
C6896 H6888 0.929 . S
C6896 C6897 1.377 . S
C6896 C6898 1.384 . S
C6897 C6896 1.377 . S
C6897 C6903 1.390 . S
C6898 H6889 0.930 . S
C6898 C6896 1.384 . S
C6898 C6899 1.372 . S
C6899 C6898 1.372 . S
C6899 C6900 1.400 . S
C6899 C6904 1.490 . S
C6900 H6890 0.930 . S
C6900 C6899 1.400 . S
C6900 C6903 1.386 . S
H6901 C6917 0.930 . S
H6902 C6918 0.931 . S
C6903 H6891 0.929 . S
C6903 C6897 1.390 . S
C6903 C6900 1.386 . S
C6904 C6899 1.490 . S
C6904 C6906 1.395 . S
C6904 C6907 1.403 . S
H6905 C6911 0.930 . S
C6906 H6892 0.930 . S
C6906 C6904 1.395 . S
C6906 C6909 1.403 . S
C6907 C6904 1.403 . S
C6907 C6908 1.524 . S
C6907 C6911 1.400 . S
C6908 H6893 0.960 . S
C6908 H6894 0.960 . S
C6908 H6895 0.960 . S
C6908 C6907 1.524 . S
C6909 C6906 1.403 . S
C6909 C6910 1.392 . S
C6909 C6913 1.495 . S
C6910 C6909 1.392 . S
C6910 C6911 1.385 . S
C6910 C6912 1.478 . S
C6911 H6905 0.930 . S
C6911 C6907 1.400 . S
C6911 C6910 1.385 . S
C6912 C6910 1.478 . S
C6912 C6914 1.381 . S
C6912 C6918 1.383 . S
C6913 C6909 1.495 . S
C6913 H6919 0.959 . S
C6913 H6920 0.961 . S
C6913 H6921 0.960 . S
C6914 C6912 1.381 . S
C6914 C6915 1.394 . S
C6914 H6922 0.930 . S
C6915 C6914 1.394 . S
C6915 C6916 1.383 . S
C6915 H6923 0.929 . S
C6916 C6915 1.383 . S
C6916 C6917 1.377 . S
C6917 H6901 0.930 . S
C6917 C6916 1.377 . S
C6917 C6918 1.379 . S
C6918 H6902 0.931 . S
C6918 C6912 1.383 . S
C6918 C6917 1.379 . S
H6919 C6913 0.959 . S
H6920 C6913 0.961 . S
H6921 C6913 0.960 . S
H6922 C6914 0.930 . S
H6923 C6915 0.929 . S
H6924 C6932 0.929 . S
H6925 C6934 0.930 . S
H6926 C6936 0.930 . S
H6927 C6939 0.929 . S
H6928 C6942 0.930 . S
H6929 C6944 0.960 . S
H6930 C6944 0.960 . S
H6931 C6944 0.960 . S
C6932 H6924 0.929 . S
C6932 C6933 1.377 . S
C6932 C6934 1.384 . S
C6933 C6932 1.377 . S
C6933 C6939 1.390 . S
C6934 H6925 0.930 . S
C6934 C6932 1.384 . S
C6934 C6935 1.372 . S
C6935 C6934 1.372 . S
C6935 C6936 1.400 . S
C6935 C6940 1.490 . S
C6936 H6926 0.930 . S
C6936 C6935 1.400 . S
C6936 C6939 1.386 . S
H6937 C6953 0.930 . S
H6938 C6954 0.931 . S
C6939 H6927 0.929 . S
C6939 C6933 1.390 . S
C6939 C6936 1.386 . S
C6940 C6935 1.490 . S
C6940 C6942 1.395 . S
C6940 C6943 1.403 . S
H6941 C6947 0.930 . S
C6942 H6928 0.930 . S
C6942 C6940 1.395 . S
C6942 C6945 1.403 . S
C6943 C6940 1.403 . S
C6943 C6944 1.524 . S
C6943 C6947 1.400 . S
C6944 H6929 0.960 . S
C6944 H6930 0.960 . S
C6944 H6931 0.960 . S
C6944 C6943 1.524 . S
C6945 C6942 1.403 . S
C6945 C6946 1.392 . S
C6945 C6949 1.495 . S
C6946 C6945 1.392 . S
C6946 C6947 1.385 . S
C6946 C6948 1.478 . S
C6947 H6941 0.930 . S
C6947 C6943 1.400 . S
C6947 C6946 1.385 . S
C6948 C6946 1.478 . S
C6948 C6950 1.381 . S
C6948 C6954 1.383 . S
C6949 C6945 1.495 . S
C6949 H6955 0.959 . S
C6949 H6956 0.961 . S
C6949 H6957 0.960 . S
C6950 C6948 1.381 . S
C6950 C6951 1.394 . S
C6950 H6958 0.930 . S
C6951 C6950 1.394 . S
C6951 C6952 1.383 . S
C6951 H6959 0.929 . S
C6952 C6951 1.383 . S
C6952 C6953 1.377 . S
C6953 H6937 0.930 . S
C6953 C6952 1.377 . S
C6953 C6954 1.379 . S
C6954 H6938 0.931 . S
C6954 C6948 1.383 . S
C6954 C6953 1.379 . S
H6955 C6949 0.959 . S
H6956 C6949 0.961 . S
H6957 C6949 0.960 . S
H6958 C6950 0.930 . S
H6959 C6951 0.929 . S
H6960 C6968 0.929 . S
H6961 C6970 0.930 . S
H6962 C6972 0.930 . S
H6963 C6975 0.929 . S
H6964 C6978 0.930 . S
H6965 C6980 0.960 . S
H6966 C6980 0.960 . S
H6967 C6980 0.960 . S
C6968 H6960 0.929 . S
C6968 C6969 1.377 . S
C6968 C6970 1.384 . S
C6969 C6968 1.377 . S
C6969 C6975 1.390 . S
C6970 H6961 0.930 . S
C6970 C6968 1.384 . S
C6970 C6971 1.372 . S
C6971 C6970 1.372 . S
C6971 C6972 1.400 . S
C6971 C6976 1.490 . S
C6972 H6962 0.930 . S
C6972 C6971 1.400 . S
C6972 C6975 1.386 . S
H6973 C6989 0.930 . S
H6974 C6990 0.931 . S
C6975 H6963 0.929 . S
C6975 C6969 1.390 . S
C6975 C6972 1.386 . S
C6976 C6971 1.490 . S
C6976 C6978 1.395 . S
C6976 C6979 1.403 . S
H6977 C6983 0.930 . S
C6978 H6964 0.930 . S
C6978 C6976 1.395 . S
C6978 C6981 1.403 . S
C6979 C6976 1.403 . S
C6979 C6980 1.524 . S
C6979 C6983 1.400 . S
C6980 H6965 0.960 . S
C6980 H6966 0.960 . S
C6980 H6967 0.960 . S
C6980 C6979 1.524 . S
C6981 C6978 1.403 . S
C6981 C6982 1.392 . S
C6981 C6985 1.495 . S
C6982 C6981 1.392 . S
C6982 C6983 1.385 . S
C6982 C6984 1.478 . S
C6983 H6977 0.930 . S
C6983 C6979 1.400 . S
C6983 C6982 1.385 . S
C6984 C6982 1.478 . S
C6984 C6986 1.381 . S
C6984 C6990 1.383 . S
C6985 C6981 1.495 . S
C6985 H6991 0.959 . S
C6985 H6992 0.961 . S
C6985 H6993 0.960 . S
C6986 C6984 1.381 . S
C6986 C6987 1.394 . S
C6986 H6994 0.930 . S
C6987 C6986 1.394 . S
C6987 C6988 1.383 . S
C6987 H6995 0.929 . S
C6988 C6987 1.383 . S
C6988 C6989 1.377 . S
C6989 H6973 0.930 . S
C6989 C6988 1.377 . S
C6989 C6990 1.379 . S
C6990 H6974 0.931 . S
C6990 C6984 1.383 . S
C6990 C6989 1.379 . S
H6991 C6985 0.959 . S
H6992 C6985 0.961 . S
H6993 C6985 0.960 . S
H6994 C6986 0.930 . S
H6995 C6987 0.929 . S
H6996 C7004 0.929 . S
H6997 C7006 0.930 . S
H6998 C7008 0.930 . S
H6999 C7011 0.929 . S
H7000 C7014 0.930 . S
H7001 C7016 0.960 . S
H7002 C7016 0.960 . S
H7003 C7016 0.960 . S
C7004 H6996 0.929 . S
C7004 C7005 1.377 . S
C7004 C7006 1.384 . S
C7005 C7004 1.377 . S
C7005 C7011 1.390 . S
C7006 H6997 0.930 . S
C7006 C7004 1.384 . S
C7006 C7007 1.372 . S
C7007 C7006 1.372 . S
C7007 C7008 1.400 . S
C7007 C7012 1.490 . S
C7008 H6998 0.930 . S
C7008 C7007 1.400 . S
C7008 C7011 1.386 . S
H7009 C7025 0.930 . S
H7010 C7026 0.931 . S
C7011 H6999 0.929 . S
C7011 C7005 1.390 . S
C7011 C7008 1.386 . S
C7012 C7007 1.490 . S
C7012 C7014 1.395 . S
C7012 C7015 1.403 . S
H7013 C7019 0.930 . S
C7014 H7000 0.930 . S
C7014 C7012 1.395 . S
C7014 C7017 1.403 . S
C7015 C7012 1.403 . S
C7015 C7016 1.524 . S
C7015 C7019 1.400 . S
C7016 H7001 0.960 . S
C7016 H7002 0.960 . S
C7016 H7003 0.960 . S
C7016 C7015 1.524 . S
C7017 C7014 1.403 . S
C7017 C7018 1.392 . S
C7017 C7021 1.495 . S
C7018 C7017 1.392 . S
C7018 C7019 1.385 . S
C7018 C7020 1.478 . S
C7019 H7013 0.930 . S
C7019 C7015 1.400 . S
C7019 C7018 1.385 . S
C7020 C7018 1.478 . S
C7020 C7022 1.381 . S
C7020 C7026 1.383 . S
C7021 C7017 1.495 . S
C7021 H7027 0.959 . S
C7021 H7028 0.961 . S
C7021 H7029 0.960 . S
C7022 C7020 1.381 . S
C7022 C7023 1.394 . S
C7022 H7030 0.930 . S
C7023 C7022 1.394 . S
C7023 C7024 1.383 . S
C7023 H7031 0.929 . S
C7024 C7023 1.383 . S
C7024 C7025 1.377 . S
C7025 H7009 0.930 . S
C7025 C7024 1.377 . S
C7025 C7026 1.379 . S
C7026 H7010 0.931 . S
C7026 C7020 1.383 . S
C7026 C7025 1.379 . S
H7027 C7021 0.959 . S
H7028 C7021 0.961 . S
H7029 C7021 0.960 . S
H7030 C7022 0.930 . S
H7031 C7023 0.929 . S
H7032 C7040 0.929 . S
H7033 C7042 0.930 . S
H7034 C7044 0.930 . S
H7035 C7047 0.929 . S
H7036 C7050 0.930 . S
H7037 C7052 0.960 . S
H7038 C7052 0.960 . S
H7039 C7052 0.960 . S
C7040 H7032 0.929 . S
C7040 C7041 1.377 . S
C7040 C7042 1.384 . S
C7041 C7040 1.377 . S
C7041 C7047 1.390 . S
C7042 H7033 0.930 . S
C7042 C7040 1.384 . S
C7042 C7043 1.372 . S
C7043 C7042 1.372 . S
C7043 C7044 1.400 . S
C7043 C7048 1.490 . S
C7044 H7034 0.930 . S
C7044 C7043 1.400 . S
C7044 C7047 1.386 . S
H7045 C7061 0.930 . S
H7046 C7062 0.931 . S
C7047 H7035 0.929 . S
C7047 C7041 1.390 . S
C7047 C7044 1.386 . S
C7048 C7043 1.490 . S
C7048 C7050 1.395 . S
C7048 C7051 1.403 . S
H7049 C7055 0.930 . S
C7050 H7036 0.930 . S
C7050 C7048 1.395 . S
C7050 C7053 1.403 . S
C7051 C7048 1.403 . S
C7051 C7052 1.524 . S
C7051 C7055 1.400 . S
C7052 H7037 0.960 . S
C7052 H7038 0.960 . S
C7052 H7039 0.960 . S
C7052 C7051 1.524 . S
C7053 C7050 1.403 . S
C7053 C7054 1.392 . S
C7053 C7057 1.495 . S
C7054 C7053 1.392 . S
C7054 C7055 1.385 . S
C7054 C7056 1.478 . S
C7055 H7049 0.930 . S
C7055 C7051 1.400 . S
C7055 C7054 1.385 . S
C7056 C7054 1.478 . S
C7056 C7058 1.381 . S
C7056 C7062 1.383 . S
C7057 C7053 1.495 . S
C7057 H7063 0.959 . S
C7057 H7064 0.961 . S
C7057 H7065 0.960 . S
C7058 C7056 1.381 . S
C7058 C7059 1.394 . S
C7058 H7066 0.930 . S
C7059 C7058 1.394 . S
C7059 C7060 1.383 . S
C7059 H7067 0.929 . S
C7060 C7059 1.383 . S
C7060 C7061 1.377 . S
C7061 H7045 0.930 . S
C7061 C7060 1.377 . S
C7061 C7062 1.379 . S
C7062 H7046 0.931 . S
C7062 C7056 1.383 . S
C7062 C7061 1.379 . S
H7063 C7057 0.959 . S
H7064 C7057 0.961 . S
H7065 C7057 0.960 . S
H7066 C7058 0.930 . S
H7067 C7059 0.929 . S
H7068 C7076 0.929 . S
H7069 C7078 0.930 . S
H7070 C7080 0.930 . S
H7071 C7083 0.929 . S
H7072 C7086 0.930 . S
H7073 C7088 0.960 . S
H7074 C7088 0.960 . S
H7075 C7088 0.960 . S
C7076 H7068 0.929 . S
C7076 C7077 1.377 . S
C7076 C7078 1.384 . S
C7077 C7076 1.377 . S
C7077 C7083 1.390 . S
C7078 H7069 0.930 . S
C7078 C7076 1.384 . S
C7078 C7079 1.372 . S
C7079 C7078 1.372 . S
C7079 C7080 1.400 . S
C7079 C7084 1.490 . S
C7080 H7070 0.930 . S
C7080 C7079 1.400 . S
C7080 C7083 1.386 . S
H7081 C7097 0.930 . S
H7082 C7098 0.931 . S
C7083 H7071 0.929 . S
C7083 C7077 1.390 . S
C7083 C7080 1.386 . S
C7084 C7079 1.490 . S
C7084 C7086 1.395 . S
C7084 C7087 1.403 . S
H7085 C7091 0.930 . S
C7086 H7072 0.930 . S
C7086 C7084 1.395 . S
C7086 C7089 1.403 . S
C7087 C7084 1.403 . S
C7087 C7088 1.524 . S
C7087 C7091 1.400 . S
C7088 H7073 0.960 . S
C7088 H7074 0.960 . S
C7088 H7075 0.960 . S
C7088 C7087 1.524 . S
C7089 C7086 1.403 . S
C7089 C7090 1.392 . S
C7089 C7093 1.495 . S
C7090 C7089 1.392 . S
C7090 C7091 1.385 . S
C7090 C7092 1.478 . S
C7091 H7085 0.930 . S
C7091 C7087 1.400 . S
C7091 C7090 1.385 . S
C7092 C7090 1.478 . S
C7092 C7094 1.381 . S
C7092 C7098 1.383 . S
C7093 C7089 1.495 . S
C7093 H7099 0.959 . S
C7093 H7100 0.961 . S
C7093 H7101 0.960 . S
C7094 C7092 1.381 . S
C7094 C7095 1.394 . S
C7094 H7102 0.930 . S
C7095 C7094 1.394 . S
C7095 C7096 1.383 . S
C7095 H7103 0.929 . S
C7096 C7095 1.383 . S
C7096 C7097 1.377 . S
C7097 H7081 0.930 . S
C7097 C7096 1.377 . S
C7097 C7098 1.379 . S
C7098 H7082 0.931 . S
C7098 C7092 1.383 . S
C7098 C7097 1.379 . S
H7099 C7093 0.959 . S
H7100 C7093 0.961 . S
H7101 C7093 0.960 . S
H7102 C7094 0.930 . S
H7103 C7095 0.929 . S
H7104 C7112 0.929 . S
H7105 C7114 0.930 . S
H7106 C7116 0.930 . S
H7107 C7119 0.929 . S
H7108 C7122 0.930 . S
H7109 C7124 0.960 . S
H7110 C7124 0.960 . S
H7111 C7124 0.960 . S
C7112 H7104 0.929 . S
C7112 C7113 1.377 . S
C7112 C7114 1.384 . S
C7113 C7112 1.377 . S
C7113 C7119 1.390 . S
C7114 H7105 0.930 . S
C7114 C7112 1.384 . S
C7114 C7115 1.372 . S
C7115 C7114 1.372 . S
C7115 C7116 1.400 . S
C7115 C7120 1.490 . S
C7116 H7106 0.930 . S
C7116 C7115 1.400 . S
C7116 C7119 1.386 . S
H7117 C7133 0.930 . S
H7118 C7134 0.931 . S
C7119 H7107 0.929 . S
C7119 C7113 1.390 . S
C7119 C7116 1.386 . S
C7120 C7115 1.490 . S
C7120 C7122 1.395 . S
C7120 C7123 1.403 . S
H7121 C7127 0.930 . S
C7122 H7108 0.930 . S
C7122 C7120 1.395 . S
C7122 C7125 1.403 . S
C7123 C7120 1.403 . S
C7123 C7124 1.524 . S
C7123 C7127 1.400 . S
C7124 H7109 0.960 . S
C7124 H7110 0.960 . S
C7124 H7111 0.960 . S
C7124 C7123 1.524 . S
C7125 C7122 1.403 . S
C7125 C7126 1.392 . S
C7125 C7129 1.495 . S
C7126 C7125 1.392 . S
C7126 C7127 1.385 . S
C7126 C7128 1.478 . S
C7127 H7121 0.930 . S
C7127 C7123 1.400 . S
C7127 C7126 1.385 . S
C7128 C7126 1.478 . S
C7128 C7130 1.381 . S
C7128 C7134 1.383 . S
C7129 C7125 1.495 . S
C7129 H7135 0.959 . S
C7129 H7136 0.961 . S
C7129 H7137 0.960 . S
C7130 C7128 1.381 . S
C7130 C7131 1.394 . S
C7130 H7138 0.930 . S
C7131 C7130 1.394 . S
C7131 C7132 1.383 . S
C7131 H7139 0.929 . S
C7132 C7131 1.383 . S
C7132 C7133 1.377 . S
C7133 H7117 0.930 . S
C7133 C7132 1.377 . S
C7133 C7134 1.379 . S
C7134 H7118 0.931 . S
C7134 C7128 1.383 . S
C7134 C7133 1.379 . S
H7135 C7129 0.959 . S
H7136 C7129 0.961 . S
H7137 C7129 0.960 . S
H7138 C7130 0.930 . S
H7139 C7131 0.929 . S
H7140 C7148 0.929 . S
H7141 C7150 0.930 . S
H7142 C7152 0.930 . S
H7143 C7155 0.929 . S
H7144 C7158 0.930 . S
H7145 C7160 0.960 . S
H7146 C7160 0.960 . S
H7147 C7160 0.960 . S
C7148 H7140 0.929 . S
C7148 C7149 1.377 . S
C7148 C7150 1.384 . S
C7149 C7148 1.377 . S
C7149 C7155 1.390 . S
C7150 H7141 0.930 . S
C7150 C7148 1.384 . S
C7150 C7151 1.372 . S
C7151 C7150 1.372 . S
C7151 C7152 1.400 . S
C7151 C7156 1.490 . S
C7152 H7142 0.930 . S
C7152 C7151 1.400 . S
C7152 C7155 1.386 . S
H7153 C7169 0.930 . S
H7154 C7170 0.931 . S
C7155 H7143 0.929 . S
C7155 C7149 1.390 . S
C7155 C7152 1.386 . S
C7156 C7151 1.490 . S
C7156 C7158 1.395 . S
C7156 C7159 1.403 . S
H7157 C7163 0.930 . S
C7158 H7144 0.930 . S
C7158 C7156 1.395 . S
C7158 C7161 1.403 . S
C7159 C7156 1.403 . S
C7159 C7160 1.524 . S
C7159 C7163 1.400 . S
C7160 H7145 0.960 . S
C7160 H7146 0.960 . S
C7160 H7147 0.960 . S
C7160 C7159 1.524 . S
C7161 C7158 1.403 . S
C7161 C7162 1.392 . S
C7161 C7165 1.495 . S
C7162 C7161 1.392 . S
C7162 C7163 1.385 . S
C7162 C7164 1.478 . S
C7163 H7157 0.930 . S
C7163 C7159 1.400 . S
C7163 C7162 1.385 . S
C7164 C7162 1.478 . S
C7164 C7166 1.381 . S
C7164 C7170 1.383 . S
C7165 C7161 1.495 . S
C7165 H7171 0.959 . S
C7165 H7172 0.961 . S
C7165 H7173 0.960 . S
C7166 C7164 1.381 . S
C7166 C7167 1.394 . S
C7166 H7174 0.930 . S
C7167 C7166 1.394 . S
C7167 C7168 1.383 . S
C7167 H7175 0.929 . S
C7168 C7167 1.383 . S
C7168 C7169 1.377 . S
C7169 H7153 0.930 . S
C7169 C7168 1.377 . S
C7169 C7170 1.379 . S
C7170 H7154 0.931 . S
C7170 C7164 1.383 . S
C7170 C7169 1.379 . S
H7171 C7165 0.959 . S
H7172 C7165 0.961 . S
H7173 C7165 0.960 . S
H7174 C7166 0.930 . S
H7175 C7167 0.929 . S
H7176 C7184 0.929 . S
H7177 C7186 0.930 . S
H7178 C7188 0.930 . S
H7179 C7191 0.929 . S
H7180 C7194 0.930 . S
H7181 C7196 0.960 . S
H7182 C7196 0.960 . S
H7183 C7196 0.960 . S
C7184 H7176 0.929 . S
C7184 C7185 1.377 . S
C7184 C7186 1.384 . S
C7185 C7184 1.377 . S
C7185 C7191 1.390 . S
C7186 H7177 0.930 . S
C7186 C7184 1.384 . S
C7186 C7187 1.372 . S
C7187 C7186 1.372 . S
C7187 C7188 1.400 . S
C7187 C7192 1.490 . S
C7188 H7178 0.930 . S
C7188 C7187 1.400 . S
C7188 C7191 1.386 . S
H7189 C7205 0.930 . S
H7190 C7206 0.931 . S
C7191 H7179 0.929 . S
C7191 C7185 1.390 . S
C7191 C7188 1.386 . S
C7192 C7187 1.490 . S
C7192 C7194 1.395 . S
C7192 C7195 1.403 . S
H7193 C7199 0.930 . S
C7194 H7180 0.930 . S
C7194 C7192 1.395 . S
C7194 C7197 1.403 . S
C7195 C7192 1.403 . S
C7195 C7196 1.524 . S
C7195 C7199 1.400 . S
C7196 H7181 0.960 . S
C7196 H7182 0.960 . S
C7196 H7183 0.960 . S
C7196 C7195 1.524 . S
C7197 C7194 1.403 . S
C7197 C7198 1.392 . S
C7197 C7201 1.495 . S
C7198 C7197 1.392 . S
C7198 C7199 1.385 . S
C7198 C7200 1.478 . S
C7199 H7193 0.930 . S
C7199 C7195 1.400 . S
C7199 C7198 1.385 . S
C7200 C7198 1.478 . S
C7200 C7202 1.381 . S
C7200 C7206 1.383 . S
C7201 C7197 1.495 . S
C7201 H7207 0.959 . S
C7201 H7208 0.961 . S
C7201 H7209 0.960 . S
C7202 C7200 1.381 . S
C7202 C7203 1.394 . S
C7202 H7210 0.930 . S
C7203 C7202 1.394 . S
C7203 C7204 1.383 . S
C7203 H7211 0.929 . S
C7204 C7203 1.383 . S
C7204 C7205 1.377 . S
C7205 H7189 0.930 . S
C7205 C7204 1.377 . S
C7205 C7206 1.379 . S
C7206 H7190 0.931 . S
C7206 C7200 1.383 . S
C7206 C7205 1.379 . S
H7207 C7201 0.959 . S
H7208 C7201 0.961 . S
H7209 C7201 0.960 . S
H7210 C7202 0.930 . S
H7211 C7203 0.929 . S
H7212 C7220 0.929 . S
H7213 C7222 0.930 . S
H7214 C7224 0.930 . S
H7215 C7227 0.929 . S
H7216 C7230 0.930 . S
H7217 C7232 0.960 . S
H7218 C7232 0.960 . S
H7219 C7232 0.960 . S
C7220 H7212 0.929 . S
C7220 C7221 1.377 . S
C7220 C7222 1.384 . S
C7221 C7220 1.377 . S
C7221 C7227 1.390 . S
C7222 H7213 0.930 . S
C7222 C7220 1.384 . S
C7222 C7223 1.372 . S
C7223 C7222 1.372 . S
C7223 C7224 1.400 . S
C7223 C7228 1.490 . S
C7224 H7214 0.930 . S
C7224 C7223 1.400 . S
C7224 C7227 1.386 . S
H7225 C7241 0.930 . S
H7226 C7242 0.931 . S
C7227 H7215 0.929 . S
C7227 C7221 1.390 . S
C7227 C7224 1.386 . S
C7228 C7223 1.490 . S
C7228 C7230 1.395 . S
C7228 C7231 1.403 . S
H7229 C7235 0.930 . S
C7230 H7216 0.930 . S
C7230 C7228 1.395 . S
C7230 C7233 1.403 . S
C7231 C7228 1.403 . S
C7231 C7232 1.524 . S
C7231 C7235 1.400 . S
C7232 H7217 0.960 . S
C7232 H7218 0.960 . S
C7232 H7219 0.960 . S
C7232 C7231 1.524 . S
C7233 C7230 1.403 . S
C7233 C7234 1.392 . S
C7233 C7237 1.495 . S
C7234 C7233 1.392 . S
C7234 C7235 1.385 . S
C7234 C7236 1.478 . S
C7235 H7229 0.930 . S
C7235 C7231 1.400 . S
C7235 C7234 1.385 . S
C7236 C7234 1.478 . S
C7236 C7238 1.381 . S
C7236 C7242 1.383 . S
C7237 C7233 1.495 . S
C7237 H7243 0.959 . S
C7237 H7244 0.961 . S
C7237 H7245 0.960 . S
C7238 C7236 1.381 . S
C7238 C7239 1.394 . S
C7238 H7246 0.930 . S
C7239 C7238 1.394 . S
C7239 C7240 1.383 . S
C7239 H7247 0.929 . S
C7240 C7239 1.383 . S
C7240 C7241 1.377 . S
C7241 H7225 0.930 . S
C7241 C7240 1.377 . S
C7241 C7242 1.379 . S
C7242 H7226 0.931 . S
C7242 C7236 1.383 . S
C7242 C7241 1.379 . S
H7243 C7237 0.959 . S
H7244 C7237 0.961 . S
H7245 C7237 0.960 . S
H7246 C7238 0.930 . S
H7247 C7239 0.929 . S
H7248 C7256 0.929 . S
H7249 C7258 0.930 . S
H7250 C7260 0.930 . S
H7251 C7263 0.929 . S
H7252 C7266 0.930 . S
H7253 C7268 0.960 . S
H7254 C7268 0.960 . S
H7255 C7268 0.960 . S
C7256 H7248 0.929 . S
C7256 C7257 1.377 . S
C7256 C7258 1.384 . S
C7257 C7256 1.377 . S
C7257 C7263 1.390 . S
C7258 H7249 0.930 . S
C7258 C7256 1.384 . S
C7258 C7259 1.372 . S
C7259 C7258 1.372 . S
C7259 C7260 1.400 . S
C7259 C7264 1.490 . S
C7260 H7250 0.930 . S
C7260 C7259 1.400 . S
C7260 C7263 1.386 . S
H7261 C7277 0.930 . S
H7262 C7278 0.931 . S
C7263 H7251 0.929 . S
C7263 C7257 1.390 . S
C7263 C7260 1.386 . S
C7264 C7259 1.490 . S
C7264 C7266 1.395 . S
C7264 C7267 1.403 . S
H7265 C7271 0.930 . S
C7266 H7252 0.930 . S
C7266 C7264 1.395 . S
C7266 C7269 1.403 . S
C7267 C7264 1.403 . S
C7267 C7268 1.524 . S
C7267 C7271 1.400 . S
C7268 H7253 0.960 . S
C7268 H7254 0.960 . S
C7268 H7255 0.960 . S
C7268 C7267 1.524 . S
C7269 C7266 1.403 . S
C7269 C7270 1.392 . S
C7269 C7273 1.495 . S
C7270 C7269 1.392 . S
C7270 C7271 1.385 . S
C7270 C7272 1.478 . S
C7271 H7265 0.930 . S
C7271 C7267 1.400 . S
C7271 C7270 1.385 . S
C7272 C7270 1.478 . S
C7272 C7274 1.381 . S
C7272 C7278 1.383 . S
C7273 C7269 1.495 . S
C7273 H7279 0.959 . S
C7273 H7280 0.961 . S
C7273 H7281 0.960 . S
C7274 C7272 1.381 . S
C7274 C7275 1.394 . S
C7274 H7282 0.930 . S
C7275 C7274 1.394 . S
C7275 C7276 1.383 . S
C7275 H7283 0.929 . S
C7276 C7275 1.383 . S
C7276 C7277 1.377 . S
C7277 H7261 0.930 . S
C7277 C7276 1.377 . S
C7277 C7278 1.379 . S
C7278 H7262 0.931 . S
C7278 C7272 1.383 . S
C7278 C7277 1.379 . S
H7279 C7273 0.959 . S
H7280 C7273 0.961 . S
H7281 C7273 0.960 . S
H7282 C7274 0.930 . S
H7283 C7275 0.929 . S
H7284 C7292 0.929 . S
H7285 C7294 0.930 . S
H7286 C7296 0.930 . S
H7287 C7299 0.929 . S
H7288 C7302 0.930 . S
H7289 C7304 0.960 . S
H7290 C7304 0.960 . S
H7291 C7304 0.960 . S
C7292 H7284 0.929 . S
C7292 C7293 1.377 . S
C7292 C7294 1.384 . S
C7293 C7292 1.377 . S
C7293 C7299 1.390 . S
C7294 H7285 0.930 . S
C7294 C7292 1.384 . S
C7294 C7295 1.372 . S
C7295 C7294 1.372 . S
C7295 C7296 1.400 . S
C7295 C7300 1.490 . S
C7296 H7286 0.930 . S
C7296 C7295 1.400 . S
C7296 C7299 1.386 . S
H7297 C7313 0.930 . S
H7298 C7314 0.931 . S
C7299 H7287 0.929 . S
C7299 C7293 1.390 . S
C7299 C7296 1.386 . S
C7300 C7295 1.490 . S
C7300 C7302 1.395 . S
C7300 C7303 1.403 . S
H7301 C7307 0.930 . S
C7302 H7288 0.930 . S
C7302 C7300 1.395 . S
C7302 C7305 1.403 . S
C7303 C7300 1.403 . S
C7303 C7304 1.524 . S
C7303 C7307 1.400 . S
C7304 H7289 0.960 . S
C7304 H7290 0.960 . S
C7304 H7291 0.960 . S
C7304 C7303 1.524 . S
C7305 C7302 1.403 . S
C7305 C7306 1.392 . S
C7305 C7309 1.495 . S
C7306 C7305 1.392 . S
C7306 C7307 1.385 . S
C7306 C7308 1.478 . S
C7307 H7301 0.930 . S
C7307 C7303 1.400 . S
C7307 C7306 1.385 . S
C7308 C7306 1.478 . S
C7308 C7310 1.381 . S
C7308 C7314 1.383 . S
C7309 C7305 1.495 . S
C7309 H7315 0.959 . S
C7309 H7316 0.961 . S
C7309 H7317 0.960 . S
C7310 C7308 1.381 . S
C7310 C7311 1.394 . S
C7310 H7318 0.930 . S
C7311 C7310 1.394 . S
C7311 C7312 1.383 . S
C7311 H7319 0.929 . S
C7312 C7311 1.383 . S
C7312 C7313 1.377 . S
C7313 H7297 0.930 . S
C7313 C7312 1.377 . S
C7313 C7314 1.379 . S
C7314 H7298 0.931 . S
C7314 C7308 1.383 . S
C7314 C7313 1.379 . S
H7315 C7309 0.959 . S
H7316 C7309 0.961 . S
H7317 C7309 0.960 . S
H7318 C7310 0.930 . S
H7319 C7311 0.929 . S
H7320 C7328 0.929 . S
H7321 C7330 0.930 . S
H7322 C7332 0.930 . S
H7323 C7335 0.929 . S
H7324 C7338 0.930 . S
H7325 C7340 0.960 . S
H7326 C7340 0.960 . S
H7327 C7340 0.960 . S
C7328 H7320 0.929 . S
C7328 C7329 1.377 . S
C7328 C7330 1.384 . S
C7329 C7328 1.377 . S
C7329 C7335 1.390 . S
C7330 H7321 0.930 . S
C7330 C7328 1.384 . S
C7330 C7331 1.372 . S
C7331 C7330 1.372 . S
C7331 C7332 1.400 . S
C7331 C7336 1.490 . S
C7332 H7322 0.930 . S
C7332 C7331 1.400 . S
C7332 C7335 1.386 . S
H7333 C7349 0.930 . S
H7334 C7350 0.931 . S
C7335 H7323 0.929 . S
C7335 C7329 1.390 . S
C7335 C7332 1.386 . S
C7336 C7331 1.490 . S
C7336 C7338 1.395 . S
C7336 C7339 1.403 . S
H7337 C7343 0.930 . S
C7338 H7324 0.930 . S
C7338 C7336 1.395 . S
C7338 C7341 1.403 . S
C7339 C7336 1.403 . S
C7339 C7340 1.524 . S
C7339 C7343 1.400 . S
C7340 H7325 0.960 . S
C7340 H7326 0.960 . S
C7340 H7327 0.960 . S
C7340 C7339 1.524 . S
C7341 C7338 1.403 . S
C7341 C7342 1.392 . S
C7341 C7345 1.495 . S
C7342 C7341 1.392 . S
C7342 C7343 1.385 . S
C7342 C7344 1.478 . S
C7343 H7337 0.930 . S
C7343 C7339 1.400 . S
C7343 C7342 1.385 . S
C7344 C7342 1.478 . S
C7344 C7346 1.381 . S
C7344 C7350 1.383 . S
C7345 C7341 1.495 . S
C7345 H7351 0.959 . S
C7345 H7352 0.961 . S
C7345 H7353 0.960 . S
C7346 C7344 1.381 . S
C7346 C7347 1.394 . S
C7346 H7354 0.930 . S
C7347 C7346 1.394 . S
C7347 C7348 1.383 . S
C7347 H7355 0.929 . S
C7348 C7347 1.383 . S
C7348 C7349 1.377 . S
C7349 H7333 0.930 . S
C7349 C7348 1.377 . S
C7349 C7350 1.379 . S
C7350 H7334 0.931 . S
C7350 C7344 1.383 . S
C7350 C7349 1.379 . S
H7351 C7345 0.959 . S
H7352 C7345 0.961 . S
H7353 C7345 0.960 . S
H7354 C7346 0.930 . S
H7355 C7347 0.929 . S
H7356 C7364 0.929 . S
H7357 C7366 0.930 . S
H7358 C7368 0.930 . S
H7359 C7371 0.929 . S
H7360 C7374 0.930 . S
H7361 C7376 0.960 . S
H7362 C7376 0.960 . S
H7363 C7376 0.960 . S
C7364 H7356 0.929 . S
C7364 C7365 1.377 . S
C7364 C7366 1.384 . S
C7365 C7364 1.377 . S
C7365 C7371 1.390 . S
C7366 H7357 0.930 . S
C7366 C7364 1.384 . S
C7366 C7367 1.372 . S
C7367 C7366 1.372 . S
C7367 C7368 1.400 . S
C7367 C7372 1.490 . S
C7368 H7358 0.930 . S
C7368 C7367 1.400 . S
C7368 C7371 1.386 . S
H7369 C7385 0.930 . S
H7370 C7386 0.931 . S
C7371 H7359 0.929 . S
C7371 C7365 1.390 . S
C7371 C7368 1.386 . S
C7372 C7367 1.490 . S
C7372 C7374 1.395 . S
C7372 C7375 1.403 . S
H7373 C7379 0.930 . S
C7374 H7360 0.930 . S
C7374 C7372 1.395 . S
C7374 C7377 1.403 . S
C7375 C7372 1.403 . S
C7375 C7376 1.524 . S
C7375 C7379 1.400 . S
C7376 H7361 0.960 . S
C7376 H7362 0.960 . S
C7376 H7363 0.960 . S
C7376 C7375 1.524 . S
C7377 C7374 1.403 . S
C7377 C7378 1.392 . S
C7377 C7381 1.495 . S
C7378 C7377 1.392 . S
C7378 C7379 1.385 . S
C7378 C7380 1.478 . S
C7379 H7373 0.930 . S
C7379 C7375 1.400 . S
C7379 C7378 1.385 . S
C7380 C7378 1.478 . S
C7380 C7382 1.381 . S
C7380 C7386 1.383 . S
C7381 C7377 1.495 . S
C7381 H7387 0.959 . S
C7381 H7388 0.961 . S
C7381 H7389 0.960 . S
C7382 C7380 1.381 . S
C7382 C7383 1.394 . S
C7382 H7390 0.930 . S
C7383 C7382 1.394 . S
C7383 C7384 1.383 . S
C7383 H7391 0.929 . S
C7384 C7383 1.383 . S
C7384 C7385 1.377 . S
C7385 H7369 0.930 . S
C7385 C7384 1.377 . S
C7385 C7386 1.379 . S
C7386 H7370 0.931 . S
C7386 C7380 1.383 . S
C7386 C7385 1.379 . S
H7387 C7381 0.959 . S
H7388 C7381 0.961 . S
H7389 C7381 0.960 . S
H7390 C7382 0.930 . S
H7391 C7383 0.929 . S
H7392 C7400 0.929 . S
H7393 C7402 0.930 . S
H7394 C7404 0.930 . S
H7395 C7407 0.929 . S
H7396 C7410 0.930 . S
H7397 C7412 0.960 . S
H7398 C7412 0.960 . S
H7399 C7412 0.960 . S
C7400 H7392 0.929 . S
C7400 C7401 1.377 . S
C7400 C7402 1.384 . S
C7401 C7400 1.377 . S
C7401 C7407 1.390 . S
C7402 H7393 0.930 . S
C7402 C7400 1.384 . S
C7402 C7403 1.372 . S
C7403 C7402 1.372 . S
C7403 C7404 1.400 . S
C7403 C7408 1.490 . S
C7404 H7394 0.930 . S
C7404 C7403 1.400 . S
C7404 C7407 1.386 . S
H7405 C7421 0.930 . S
H7406 C7422 0.931 . S
C7407 H7395 0.929 . S
C7407 C7401 1.390 . S
C7407 C7404 1.386 . S
C7408 C7403 1.490 . S
C7408 C7410 1.395 . S
C7408 C7411 1.403 . S
H7409 C7415 0.930 . S
C7410 H7396 0.930 . S
C7410 C7408 1.395 . S
C7410 C7413 1.403 . S
C7411 C7408 1.403 . S
C7411 C7412 1.524 . S
C7411 C7415 1.400 . S
C7412 H7397 0.960 . S
C7412 H7398 0.960 . S
C7412 H7399 0.960 . S
C7412 C7411 1.524 . S
C7413 C7410 1.403 . S
C7413 C7414 1.392 . S
C7413 C7417 1.495 . S
C7414 C7413 1.392 . S
C7414 C7415 1.385 . S
C7414 C7416 1.478 . S
C7415 H7409 0.930 . S
C7415 C7411 1.400 . S
C7415 C7414 1.385 . S
C7416 C7414 1.478 . S
C7416 C7418 1.381 . S
C7416 C7422 1.383 . S
C7417 C7413 1.495 . S
C7417 H7423 0.959 . S
C7417 H7424 0.961 . S
C7417 H7425 0.960 . S
C7418 C7416 1.381 . S
C7418 C7419 1.394 . S
C7418 H7426 0.930 . S
C7419 C7418 1.394 . S
C7419 C7420 1.383 . S
C7419 H7427 0.929 . S
C7420 C7419 1.383 . S
C7420 C7421 1.377 . S
C7421 H7405 0.930 . S
C7421 C7420 1.377 . S
C7421 C7422 1.379 . S
C7422 H7406 0.931 . S
C7422 C7416 1.383 . S
C7422 C7421 1.379 . S
H7423 C7417 0.959 . S
H7424 C7417 0.961 . S
H7425 C7417 0.960 . S
H7426 C7418 0.930 . S
H7427 C7419 0.929 . S
H7428 C7436 0.929 . S
H7429 C7438 0.930 . S
H7430 C7440 0.930 . S
H7431 C7443 0.929 . S
H7432 C7446 0.930 . S
H7433 C7448 0.960 . S
H7434 C7448 0.960 . S
H7435 C7448 0.960 . S
C7436 H7428 0.929 . S
C7436 C7437 1.377 . S
C7436 C7438 1.384 . S
C7437 C7436 1.377 . S
C7437 C7443 1.390 . S
C7438 H7429 0.930 . S
C7438 C7436 1.384 . S
C7438 C7439 1.372 . S
C7439 C7438 1.372 . S
C7439 C7440 1.400 . S
C7439 C7444 1.490 . S
C7440 H7430 0.930 . S
C7440 C7439 1.400 . S
C7440 C7443 1.386 . S
H7441 C7457 0.930 . S
H7442 C7458 0.931 . S
C7443 H7431 0.929 . S
C7443 C7437 1.390 . S
C7443 C7440 1.386 . S
C7444 C7439 1.490 . S
C7444 C7446 1.395 . S
C7444 C7447 1.403 . S
H7445 C7451 0.930 . S
C7446 H7432 0.930 . S
C7446 C7444 1.395 . S
C7446 C7449 1.403 . S
C7447 C7444 1.403 . S
C7447 C7448 1.524 . S
C7447 C7451 1.400 . S
C7448 H7433 0.960 . S
C7448 H7434 0.960 . S
C7448 H7435 0.960 . S
C7448 C7447 1.524 . S
C7449 C7446 1.403 . S
C7449 C7450 1.392 . S
C7449 C7453 1.495 . S
C7450 C7449 1.392 . S
C7450 C7451 1.385 . S
C7450 C7452 1.478 . S
C7451 H7445 0.930 . S
C7451 C7447 1.400 . S
C7451 C7450 1.385 . S
C7452 C7450 1.478 . S
C7452 C7454 1.381 . S
C7452 C7458 1.383 . S
C7453 C7449 1.495 . S
C7453 H7459 0.959 . S
C7453 H7460 0.961 . S
C7453 H7461 0.960 . S
C7454 C7452 1.381 . S
C7454 C7455 1.394 . S
C7454 H7462 0.930 . S
C7455 C7454 1.394 . S
C7455 C7456 1.383 . S
C7455 H7463 0.929 . S
C7456 C7455 1.383 . S
C7456 C7457 1.377 . S
C7457 H7441 0.930 . S
C7457 C7456 1.377 . S
C7457 C7458 1.379 . S
C7458 H7442 0.931 . S
C7458 C7452 1.383 . S
C7458 C7457 1.379 . S
H7459 C7453 0.959 . S
H7460 C7453 0.961 . S
H7461 C7453 0.960 . S
H7462 C7454 0.930 . S
H7463 C7455 0.929 . S
H7464 C7472 0.929 . S
H7465 C7474 0.930 . S
H7466 C7476 0.930 . S
H7467 C7479 0.929 . S
H7468 C7482 0.930 . S
H7469 C7484 0.960 . S
H7470 C7484 0.960 . S
H7471 C7484 0.960 . S
C7472 H7464 0.929 . S
C7472 C7473 1.377 . S
C7472 C7474 1.384 . S
C7473 C7472 1.377 . S
C7473 C7479 1.390 . S
C7474 H7465 0.930 . S
C7474 C7472 1.384 . S
C7474 C7475 1.372 . S
C7475 C7474 1.372 . S
C7475 C7476 1.400 . S
C7475 C7480 1.490 . S
C7476 H7466 0.930 . S
C7476 C7475 1.400 . S
C7476 C7479 1.386 . S
H7477 C7493 0.930 . S
H7478 C7494 0.931 . S
C7479 H7467 0.929 . S
C7479 C7473 1.390 . S
C7479 C7476 1.386 . S
C7480 C7475 1.490 . S
C7480 C7482 1.395 . S
C7480 C7483 1.403 . S
H7481 C7487 0.930 . S
C7482 H7468 0.930 . S
C7482 C7480 1.395 . S
C7482 C7485 1.403 . S
C7483 C7480 1.403 . S
C7483 C7484 1.524 . S
C7483 C7487 1.400 . S
C7484 H7469 0.960 . S
C7484 H7470 0.960 . S
C7484 H7471 0.960 . S
C7484 C7483 1.524 . S
C7485 C7482 1.403 . S
C7485 C7486 1.392 . S
C7485 C7489 1.495 . S
C7486 C7485 1.392 . S
C7486 C7487 1.385 . S
C7486 C7488 1.478 . S
C7487 H7481 0.930 . S
C7487 C7483 1.400 . S
C7487 C7486 1.385 . S
C7488 C7486 1.478 . S
C7488 C7490 1.381 . S
C7488 C7494 1.383 . S
C7489 C7485 1.495 . S
C7489 H7495 0.959 . S
C7489 H7496 0.961 . S
C7489 H7497 0.960 . S
C7490 C7488 1.381 . S
C7490 C7491 1.394 . S
C7490 H7498 0.930 . S
C7491 C7490 1.394 . S
C7491 C7492 1.383 . S
C7491 H7499 0.929 . S
C7492 C7491 1.383 . S
C7492 C7493 1.377 . S
C7493 H7477 0.930 . S
C7493 C7492 1.377 . S
C7493 C7494 1.379 . S
C7494 H7478 0.931 . S
C7494 C7488 1.383 . S
C7494 C7493 1.379 . S
H7495 C7489 0.959 . S
H7496 C7489 0.961 . S
H7497 C7489 0.960 . S
H7498 C7490 0.930 . S
H7499 C7491 0.929 . S
H7500 C7508 0.929 . S
H7501 C7510 0.930 . S
H7502 C7512 0.930 . S
H7503 C7515 0.929 . S
H7504 C7518 0.930 . S
H7505 C7520 0.960 . S
H7506 C7520 0.960 . S
H7507 C7520 0.960 . S
C7508 H7500 0.929 . S
C7508 C7509 1.377 . S
C7508 C7510 1.384 . S
C7509 C7508 1.377 . S
C7509 C7515 1.390 . S
C7510 H7501 0.930 . S
C7510 C7508 1.384 . S
C7510 C7511 1.372 . S
C7511 C7510 1.372 . S
C7511 C7512 1.400 . S
C7511 C7516 1.490 . S
C7512 H7502 0.930 . S
C7512 C7511 1.400 . S
C7512 C7515 1.386 . S
H7513 C7529 0.930 . S
H7514 C7530 0.931 . S
C7515 H7503 0.929 . S
C7515 C7509 1.390 . S
C7515 C7512 1.386 . S
C7516 C7511 1.490 . S
C7516 C7518 1.395 . S
C7516 C7519 1.403 . S
H7517 C7523 0.930 . S
C7518 H7504 0.930 . S
C7518 C7516 1.395 . S
C7518 C7521 1.403 . S
C7519 C7516 1.403 . S
C7519 C7520 1.524 . S
C7519 C7523 1.400 . S
C7520 H7505 0.960 . S
C7520 H7506 0.960 . S
C7520 H7507 0.960 . S
C7520 C7519 1.524 . S
C7521 C7518 1.403 . S
C7521 C7522 1.392 . S
C7521 C7525 1.495 . S
C7522 C7521 1.392 . S
C7522 C7523 1.385 . S
C7522 C7524 1.478 . S
C7523 H7517 0.930 . S
C7523 C7519 1.400 . S
C7523 C7522 1.385 . S
C7524 C7522 1.478 . S
C7524 C7526 1.381 . S
C7524 C7530 1.383 . S
C7525 C7521 1.495 . S
C7525 H7531 0.959 . S
C7525 H7532 0.961 . S
C7525 H7533 0.960 . S
C7526 C7524 1.381 . S
C7526 C7527 1.394 . S
C7526 H7534 0.930 . S
C7527 C7526 1.394 . S
C7527 C7528 1.383 . S
C7527 H7535 0.929 . S
C7528 C7527 1.383 . S
C7528 C7529 1.377 . S
C7529 H7513 0.930 . S
C7529 C7528 1.377 . S
C7529 C7530 1.379 . S
C7530 H7514 0.931 . S
C7530 C7524 1.383 . S
C7530 C7529 1.379 . S
H7531 C7525 0.959 . S
H7532 C7525 0.961 . S
H7533 C7525 0.960 . S
H7534 C7526 0.930 . S
H7535 C7527 0.929 . S
C2361 C1781 1.562 . S
C2380 C1925 1.570 . S
C2397 C981 1.563 . S
C2416 C1934 1.574 . S
C2452 C1943 1.581 . S
C2433 C1861 1.596 . S
C2469 C1061 1.623 . S
C2488 C1952 1.616 . S
C2505 C1901 1.578 . S
C2524 C1961 1.588 . S
C2541 C941 1.556 . S
C2560 C1970 1.578 . S
C2577 C1821 1.608 . S
C2596 C1979 1.577 . S
C2613 C1021 1.597 . S
C2632 C1988 1.582 . S
C2649 C661 1.591 . S
C2668 C1997 1.608 . S
C2685 C1621 1.626 . S
C2704 C2006 1.599 . S
C2721 C741 1.596 . S
C2740 C2015 1.612 . S
C2757 C1581 1.556 . S
C2776 C2024 1.599 . S
C2793 C901 1.648 . S
C2812 C2033 1.615 . S
C2848 C2042 1.579 . S
C2829 C1661 1.612 . S
C2884 C2051 1.656 . S
C2865 C821 1.614 . S
C2901 C1141 1.609 . S
C2920 C2060 1.602 . S
C2956 C2069 1.571 . S
C2937 C781 1.604 . S
C2992 C2078 1.668 . S
C2973 C1701 1.612 . S
C3009 C861 1.617 . S
C3028 C2087 1.612 . S
C3045 C1181 1.586 . S
C3064 C2096 1.618 . S
C3100 C2105 1.621 . S
C3081 C1101 1.596 . S
C3117 C1421 1.582 . S
C3136 C2114 1.608 . S
C3172 C2123 1.617 . S
C3153 C381 1.626 . S
C3208 C2132 1.617 . S
C3189 C1501 1.641 . S
C3244 C2141 1.641 . S
C3225 C461 1.617 . S
C3280 C2150 1.660 . S
C3261 C1541 1.618 . S
C3297 C341 1.586 . S
C3316 C2159 1.616 . S
C3352 C2168 1.605 . S
C3333 C1461 1.634 . S
C3369 C421 1.637 . S
C3388 C2177 1.617 . S
C3424 C2186 1.602 . S
C3405 C61 1.575 . S
C3460 C2195 1.624 . S
C3441 C1261 1.586 . S
C3477 C141 1.580 . S
C3496 C2204 1.597 . S
C3532 C2213 1.581 . S
C3513 C1221 1.606 . S
C3568 C2222 1.615 . S
C3549 C301 1.616 . S
C3585 C1301 1.604 . S
C3604 C2231 1.586 . S
C3640 C2240 1.635 . S
C3621 C221 1.601 . S
C3676 C2249 1.588 . S
C3657 C541 1.604 . S
C3693 C181 1.596 . S
C3712 C2258 1.563 . S
C3748 C2267 1.632 . S
C3729 C1341 1.600 . S
C3765 C261 1.611 . S
C3784 C2276 1.602 . S
C3820 C2285 1.607 . S
C3801 C581 1.588 . S
C3837 C501 1.573 . S
C3856 C2294 1.605 . S
C3873 C701 1.629 . S
C3892 C2303 1.601 . S
C3928 C2312 1.575 . S
C3909 C621 1.561 . S
C3945 C1741 1.644 . S
C3964 C2321 1.611 . S
C3981 C101 1.576 . S
C4000 C2330 1.613 . S
C4036 C2339 1.608 . S
C4017 C21 1.616 . S
C4072 C2348 1.599 . S
C4053 C1381 1.621 . S
C4089 C1335 1.738 . S
C4108 C1924 1.750 . S
C4125 C535 1.487 . S
C4144 C1936 1.495 . S
C4161 C1362 1.811 . S
C4180 C1942 1.764 . S
C4216 C1954 1.465 . S
C4197 C1295 1.480 . S
C4233 C575 1.769 . S
C4252 C1960 1.748 . S
C4269 C1215 1.483 . S
C4288 C1972 1.494 . S
C4324 C1978 1.799 . S
C4305 C495 1.786 . S
C4341 C1242 1.457 . S
C4360 C1990 1.482 . S
C4377 C1255 1.817 . S
C4396 C1996 1.803 . S
C4432 C2005 1.471 . S
C4413 C562 1.444 . S
C4449 C1202 1.854 . S
C4468 C2014 1.825 . S
C4504 C2026 1.459 . S
C4485 C482 1.441 . S
C4521 C522 1.884 . S
C4540 C2032 1.816 . S
C4557 C1375 1.483 . S
C4576 C2044 1.485 . S
C4612 C2053 1.792 . S
C4593 C1282 1.852 . S
C4648 C2059 1.452 . S
C4629 C1322 1.430 . S
C4665 C455 1.809 . S
C4684 C2023 1.798 . S
C4701 C1415 1.819 . S
C4720 C2068 1.825 . S
C4737 C1455 1.505 . S
C4756 C2077 1.513 . S
C4792 C2089 1.823 . S
C4773 C1482 1.863 . S
C4828 C2035 1.532 . S
C4809 C442 1.498 . S
C4845 C362 1.859 . S
C4864 C2008 1.827 . S
C4881 C1495 1.510 . S
C4900 C2098 1.501 . S
C4936 C2107 1.486 . S
C4917 C1402 1.467 . S
C4972 C2113 1.521 . S
C4953 C1695 1.500 . S
C4989 C1135 1.838 . S
C5008 C2125 1.818 . S
C5044 C2134 1.508 . S
C5025 C1722 1.507 . S
C5080 C2143 1.846 . S
C5061 C1655 1.853 . S
C5097 C1175 1.498 . S
C5116 C2149 1.523 . S
C5133 C1562 1.799 . S
C5152 C2161 1.816 . S
C5169 C1095 1.470 . S
C5188 C2167 1.495 . S
C5224 C2176 1.813 . S
C5205 C1615 1.820 . S
C5260 C2188 1.485 . S
C5241 C1602 1.508 . S
C5277 C1162 1.795 . S
C5296 C2197 1.816 . S
C5332 C2203 1.493 . S
C5313 C1575 1.470 . S
C5349 C1082 1.767 . S
C5368 C2215 1.790 . S
C5404 C2224 1.483 . S
C5385 C1122 1.484 . S
C5421 C1735 1.816 . S
C5440 C2233 1.806 . S
C5476 C2239 1.498 . S
C5457 C1642 1.504 . S
C5493 C1682 1.770 . S
C5512 C2248 1.811 . S
C5529 C1042 1.473 . S
C5548 C2212 1.463 . S
C5565 C1775 1.439 . S
C5584 C2257 1.445 . S
C5601 C1815 1.793 . S
C5620 C2269 1.792 . S
C5656 C2278 1.461 . S
C5637 C1842 1.467 . S
C5673 C1055 1.759 . S
C5692 C2221 1.746 . S
C5709 C975 1.459 . S
C5728 C2194 1.480 . S
C5764 C2287 1.769 . S
C5745 C1855 1.788 . S
C5781 C1762 1.736 . S
C5800 C2293 1.740 . S
C5836 C1969 1.763 . S
C5817 C215 1.747 . S
C5872 C1981 1.492 . S
C5853 C255 1.501 . S
C5908 C1987 1.771 . S
C5889 C282 1.807 . S
C5944 C1963 1.476 . S
C5925 C175 1.468 . S
C5980 C1951 1.763 . S
C5961 C135 1.788 . S
C5997 C15 1.481 . S
C6016 C1927 1.475 . S
C6033 C55 1.767 . S
C6052 C1933 1.742 . S
C6069 C82 1.460 . S
C6088 C1945 1.495 . S
C6105 C95 1.802 . S
C6124 C2104 1.796 . S
C6141 C122 1.442 . S
C6160 C2302 1.471 . S
C6177 C2 1.870 . S
C6196 C2095 1.832 . S
C6213 C42 1.435 . S
C6232 C2314 1.462 . S
C6249 C242 1.875 . S
C6268 C2320 1.838 . S
C6304 C2071 1.458 . S
C6285 C295 1.469 . S
C6321 C162 1.857 . S
C6340 C2080 1.797 . S
C6357 C202 1.445 . S
C6376 C2086 1.462 . S
C6412 C2311 1.792 . S
C6393 C1535 1.812 . S
C6429 C335 1.821 . S
C6448 C2041 1.827 . S
C6465 C375 1.502 . S
C6484 C2050 1.499 . S
C6501 C402 1.858 . S
C6520 C2062 1.793 . S
C6556 C2323 1.523 . S
C6537 C1522 1.490 . S
C6592 C2305 1.820 . S
C6573 C1442 1.864 . S
C6628 C2017 1.518 . S
C6609 C415 1.503 . S
C6645 C322 1.481 . S
C6664 C1999 1.518 . S
C6681 C815 1.504 . S
C6700 C2158 1.519 . S
C6717 C855 1.840 . S
C6736 C2170 1.816 . S
C6753 C882 1.504 . S
C6772 C2179 1.483 . S
C6789 C775 1.850 . S
C6808 C2152 1.838 . S
C6844 C2140 1.517 . S
C6825 C735 1.503 . S
C6880 C2116 1.805 . S
C6861 C602 1.795 . S
C6916 C2122 1.474 . S
C6897 C655 1.474 . S
C6933 C695 1.823 . S
C6952 C2131 1.812 . S
C6988 C2296 1.485 . S
C6969 C682 1.509 . S
C7005 C722 1.802 . S
C7024 C2332 1.834 . S
C7041 C615 1.471 . S
C7060 C2284 1.488 . S
C7096 C2341 1.803 . S
C7077 C642 1.773 . S
C7113 C842 1.499 . S
C7132 C2350 1.500 . S
C7168 C2260 1.790 . S
C7149 C895 1.804 . S
C7185 C762 1.488 . S
C7204 C2266 1.486 . S
C7221 C802 1.771 . S
C7240 C2275 1.792 . S
C7257 C1895 1.458 . S
C7276 C2338 1.467 . S
C7312 C2230 1.449 . S
C7293 C935 1.443 . S
C7329 C962 1.773 . S
C7348 C2242 1.781 . S
C7365 C1002 1.463 . S
C7384 C2251 1.460 . S
C7401 C1882 1.734 . S
C7420 C2347 1.741 . S
C7437 C1802 1.476 . S
C7456 C2329 1.446 . S
C7492 C2206 1.786 . S
C7473 C1015 1.789 . S
C7528 C2185 1.742 . S
C7509 C922 1.737 . S
