# Generated by pormake.
# Topology zzz, (3,6)-cn, num edge types: 1
# Building blocks:
#     Node 0, Type 0, BuildingBlock: VETTIZ_charged_linker_0, # of connection points: 3
#     Node 1, Type 0, BuildingBlock: VETTIZ_charged_linker_0, # of connection points: 3
#     Node 2, Type 0, BuildingBlock: VETTIZ_charged_linker_0, # of connection points: 3
#     Node 3, Type 0, BuildingBlock: VETTIZ_charged_linker_0, # of connection points: 3
#     Node 4, Type 0, BuildingBlock: VETTIZ_charged_linker_0, # of connection points: 3
#     Node 5, Type 0, BuildingBlock: VETTIZ_charged_linker_0, # of connection points: 3
#     Node 6, Type 0, BuildingBlock: VETTIZ_charged_linker_0, # of connection points: 3
#     Node 7, Type 0, BuildingBlock: VETTIZ_charged_linker_0, # of connection points: 3
#     Node 8, Type 1, BuildingBlock: FUNLAD_clean_sbu_0, # of connection points: 6
#     Node 9, Type 1, BuildingBlock: FUNLAD_clean_sbu_0, # of connection points: 6
#     Node 10, Type 1, BuildingBlock: FUNLAD_clean_sbu_0, # of connection points: 6
#     Node 11, Type 1, BuildingBlock: FUNLAD_clean_sbu_0, # of connection points: 6
#     Edge 12, Type (0, 1), BuildingBlock: XIVTED_clean_linker_0, # of connection points: 2
#     Edge 13, Type (0, 1), BuildingBlock: XIVTED_clean_linker_0, # of connection points: 2
#     Edge 14, Type (0, 1), BuildingBlock: XIVTED_clean_linker_0, # of connection points: 2
#     Edge 15, Type (0, 1), BuildingBlock: XIVTED_clean_linker_0, # of connection points: 2
#     Edge 16, Type (0, 1), BuildingBlock: XIVTED_clean_linker_0, # of connection points: 2
#     Edge 17, Type (0, 1), BuildingBlock: XIVTED_clean_linker_0, # of connection points: 2
#     Edge 18, Type (0, 1), BuildingBlock: XIVTED_clean_linker_0, # of connection points: 2
#     Edge 19, Type (0, 1), BuildingBlock: XIVTED_clean_linker_0, # of connection points: 2
#     Edge 20, Type (0, 1), BuildingBlock: XIVTED_clean_linker_0, # of connection points: 2
#     Edge 21, Type (0, 1), BuildingBlock: XIVTED_clean_linker_0, # of connection points: 2
#     Edge 22, Type (0, 1), BuildingBlock: XIVTED_clean_linker_0, # of connection points: 2
#     Edge 23, Type (0, 1), BuildingBlock: XIVTED_clean_linker_0, # of connection points: 2
#     Edge 24, Type (0, 1), BuildingBlock: XIVTED_clean_linker_0, # of connection points: 2
#     Edge 25, Type (0, 1), BuildingBlock: XIVTED_clean_linker_0, # of connection points: 2
#     Edge 26, Type (0, 1), BuildingBlock: XIVTED_clean_linker_0, # of connection points: 2
#     Edge 27, Type (0, 1), BuildingBlock: XIVTED_clean_linker_0, # of connection points: 2
#     Edge 28, Type (0, 1), BuildingBlock: XIVTED_clean_linker_0, # of connection points: 2
#     Edge 29, Type (0, 1), BuildingBlock: XIVTED_clean_linker_0, # of connection points: 2
#     Edge 30, Type (0, 1), BuildingBlock: XIVTED_clean_linker_0, # of connection points: 2
#     Edge 31, Type (0, 1), BuildingBlock: XIVTED_clean_linker_0, # of connection points: 2
#     Edge 32, Type (0, 1), BuildingBlock: XIVTED_clean_linker_0, # of connection points: 2
#     Edge 33, Type (0, 1), BuildingBlock: XIVTED_clean_linker_0, # of connection points: 2
#     Edge 34, Type (0, 1), BuildingBlock: XIVTED_clean_linker_0, # of connection points: 2
#     Edge 35, Type (0, 1), BuildingBlock: XIVTED_clean_linker_0, # of connection points: 2
# Relax obj value: 0.286
# Max RMSD: 0.230
# Mean RMSD: 0.195
data_MOF--net-zzz--node1-FUNLAD_clean_sbu_0--node2-VETTIZ_charged_linker_0--edge1-XIVTED_clean_linker_0
_symmetry_space_group_name_H-M    P1
_symmetry_Int_Tables_number       1
_symmetry_cell_setting            triclinic
loop_
_symmetry_equiv_pos_as_xyz
'x, y, z'
_cell_length_a     57.209994
_cell_length_b     62.257974
_cell_length_c     22.569934
_cell_angle_alpha  86.693406
_cell_angle_beta   86.397581
_cell_angle_gamma 92.246388
loop_
_atom_site_label
_atom_site_type_symbol
_atom_site_fract_x
_atom_site_fract_y
_atom_site_fract_z
_atom_type_partial_charge
C0 C 0.83201 0.45797 0.35202 0.0
C1 C 0.85269 0.45092 0.37648 0.0
C2 C 0.86452 0.43394 0.35115 0.0
C3 C 0.83624 0.43175 0.2767 0.0
C4 C 0.82384 0.44779 0.30255 0.0
C5 C 0.80163 0.45191 0.27143 0.0
H6 H 0.73205 0.42628 0.04857 0.0
C7 C 0.8239 0.42461 0.2257 0.0
C8 C 0.80308 0.43576 0.22303 0.0
H9 H 0.72036 0.47491 0.17468 0.0
H10 H 0.756 0.46552 0.22183 0.0
H11 H 0.77892 0.43834 0.01446 0.0
H12 H 0.75243 0.38857 0.14075 0.0
H13 H 0.7756 0.37833 0.09676 0.0
H14 H 0.75076 0.389 0.06146 0.0
H15 H 0.77664 0.41112 0.9938 0.0
H16 H 0.80325 0.42232 0.02077 0.0
C17 C 0.80315 0.47543 0.24503 0.0
C18 C 0.78045 0.44667 0.31656 0.0
C19 C 0.86792 0.38518 0.06806 0.0
C20 C 0.86207 0.38031 0.01055 0.0
C21 C 0.83815 0.37837 0.99892 0.0
C22 C 0.82081 0.38465 0.04025 0.0
C23 C 0.82751 0.39293 0.09352 0.0
C24 C 0.85044 0.39167 0.10858 0.0
C25 C 0.85425 0.40099 0.16745 0.0
C26 C 0.8305 0.41042 0.18122 0.0
C27 C 0.81503 0.40575 0.13759 0.0
C28 C 0.87423 0.41869 0.15818 0.0
C29 C 0.85924 0.38223 0.2127 0.0
C30 C 0.7369 0.43463 0.08711 0.0
C31 C 0.72326 0.45106 0.10864 0.0
C32 C 0.73062 0.46211 0.15751 0.0
C33 C 0.75125 0.45661 0.18476 0.0
C34 C 0.76484 0.44018 0.16211 0.0
C35 C 0.75756 0.42968 0.11369 0.0
C36 C 0.77485 0.41404 0.09156 0.0
C37 C 0.79351 0.41625 0.13581 0.0
C38 C 0.7876 0.43143 0.17761 0.0
C39 C 0.78388 0.42166 0.0269 0.0
C40 C 0.76286 0.39122 0.09746 0.0
H41 H 0.8663 0.41162 0.28453 0.0
H42 H 0.82239 0.47077 0.37134 0.0
H43 H 0.78302 0.43152 0.34353 0.0
H44 H 0.7639 0.44397 0.29503 0.0
H45 H 0.77822 0.45977 0.34759 0.0
H46 H 0.82114 0.4798 0.2253 0.0
H47 H 0.79897 0.48681 0.27995 0.0
H48 H 0.79149 0.47814 0.20848 0.0
H49 H 0.88604 0.38646 0.07902 0.0
H50 H 0.83302 0.37384 0.95581 0.0
H51 H 0.80307 0.38416 0.02754 0.0
H52 H 0.87157 0.42947 0.11834 0.0
H53 H 0.89156 0.41146 0.15152 0.0
H54 H 0.87522 0.42921 0.19558 0.0
H55 H 0.85489 0.36616 0.19612 0.0
H56 H 0.84836 0.3828 0.25503 0.0
H57 H 0.87803 0.38239 0.22257 0.0
H58 H 0.88046 0.42829 0.36914 0.0
C59 C 0.85635 0.42429 0.30187 0.0
C60 C 0.93203 0.82957 0.98932 0.0
C61 C 0.93211 0.85092 0.00696 0.0
C62 C 0.91879 0.85538 0.05924 0.0
C63 C 0.9113 0.81732 0.0826 0.0
C64 C 0.92173 0.81298 0.02814 0.0
C65 C 0.92245 0.78912 0.02043 0.0
H66 H 0.93389 0.69063 0.14888 0.0
C67 C 0.90791 0.79692 0.11902 0.0
C68 C 0.9141 0.78022 0.08302 0.0
H69 H 0.92913 0.70917 0.96243 0.0
H70 H 0.91788 0.74456 0.9874 0.0
H71 H 0.95954 0.73465 0.18327 0.0
H72 H 0.88503 0.71821 0.19727 0.0
H73 H 0.89483 0.72746 0.26475 0.0
H74 H 0.90578 0.70304 0.23714 0.0
H75 H 0.94679 0.71528 0.23933 0.0
H76 H 0.94681 0.74381 0.24955 0.0
C77 C 0.94806 0.7835 0.00361 0.0
C78 C 0.90505 0.78318 0.97322 0.0
C79 C 0.90042 0.80322 0.34057 0.0
C80 C 0.90846 0.79072 0.38793 0.0
C81 C 0.91475 0.76941 0.37867 0.0
C82 C 0.91368 0.76108 0.32196 0.0
C83 C 0.90746 0.77461 0.27371 0.0
C84 C 0.90116 0.79537 0.28394 0.0
C85 C 0.89999 0.80922 0.2279 0.0
C86 C 0.9052 0.79311 0.18165 0.0
C87 C 0.90919 0.77267 0.20825 0.0
C88 C 0.91934 0.8277 0.22708 0.0
C89 C 0.87475 0.8171 0.22504 0.0
C90 C 0.93032 0.70237 0.11367 0.0
C91 C 0.93302 0.69736 0.05346 0.0
C92 C 0.92784 0.71288 0.00883 0.0
C93 C 0.92143 0.7334 0.02313 0.0
C94 C 0.92069 0.73877 0.08248 0.0
C95 C 0.92394 0.72327 0.12718 0.0
C96 C 0.92091 0.73232 0.1879 0.0
C97 C 0.91465 0.75544 0.17146 0.0
C98 C 0.91574 0.75913 0.10932 0.0
C99 C 0.94463 0.7314 0.21711 0.0
C100 C 0.90061 0.71959 0.22414 0.0
H101 H 0.89841 0.84298 0.13593 0.0
H102 H 0.94088 0.82575 0.9477 0.0
H103 H 0.89454 0.797 0.95889 0.0
H104 H 0.89203 0.77032 0.99085 0.0
H105 H 0.91437 0.77779 0.93239 0.0
H106 H 0.96005 0.78986 0.03603 0.0
H107 H 0.95396 0.79059 0.95862 0.0
H108 H 0.95043 0.76604 0.00305 0.0
H109 H 0.89656 0.81996 0.34565 0.0
H110 H 0.92137 0.7596 0.41458 0.0
H111 H 0.91894 0.74488 0.31707 0.0
H112 H 0.93097 0.82591 0.26458 0.0
H113 H 0.91161 0.84371 0.23021 0.0
H114 H 0.93163 0.82801 0.18708 0.0
H115 H 0.86165 0.80381 0.23919 0.0
H116 H 0.87067 0.82252 0.17945 0.0
H117 H 0.8718 0.83044 0.25491 0.0
H118 H 0.91795 0.87159 0.07389 0.0
C119 C 0.90794 0.83869 0.09632 0.0
C120 C 0.80716 0.00483 0.07849 0.0
C121 C 0.81714 0.01131 0.02089 0.0
C122 C 0.8056 0.0262 0.98528 0.0
C123 C 0.77438 0.02775 0.06209 0.0
C124 C 0.78557 0.0133 0.09826 0.0
C125 C 0.77135 0.00828 0.15707 0.0
H126 H 0.67374 0.03123 0.33286 0.0
C127 C 0.75256 0.0338 0.09394 0.0
C128 C 0.75061 0.0229 0.15063 0.0
H129 H 0.72291 0.98285 0.37536 0.0
H130 H 0.74586 0.99264 0.28151 0.0
H131 H 0.71093 0.06864 0.27256 0.0
H132 H 0.66629 0.01825 0.21759 0.0
H133 H 0.66966 0.03554 0.15354 0.0
H134 H 0.6563 0.045 0.22124 0.0
H135 H 0.67952 0.06866 0.27416 0.0
H136 H 0.69753 0.07919 0.20968 0.0
C137 C 0.7863 0.01448 0.20843 0.0
C138 C 0.76344 0.98424 0.16075 0.0
C139 C 0.69293 0.07444 0.98086 0.0
C140 C 0.6697 0.07925 0.9977 0.0
C141 C 0.66306 0.08026 0.05861 0.0
C142 C 0.67811 0.07346 0.1018 0.0
C143 C 0.69981 0.06528 0.08383 0.0
C144 C 0.70758 0.06719 0.0246 0.0
C145 C 0.73114 0.05766 0.01399 0.0
C146 C 0.73491 0.04767 0.07569 0.0
C147 C 0.71641 0.05205 0.11597 0.0
C148 C 0.74929 0.07638 0.99496 0.0
C149 C 0.72888 0.04031 0.96769 0.0
C150 C 0.68966 0.0229 0.32269 0.0
C151 C 0.69671 0.00656 0.3619 0.0
C152 C 0.71713 0.9956 0.3458 0.0
C153 C 0.73036 0.00128 0.29139 0.0
C154 C 0.7227 0.01768 0.2522 0.0
C155 C 0.70245 0.02792 0.26868 0.0
C156 C 0.69501 0.0434 0.22126 0.0
C157 C 0.71432 0.04141 0.17334 0.0
C158 C 0.73095 0.02656 0.19102 0.0
C159 C 0.69556 0.06622 0.24543 0.0
C160 C 0.67058 0.03535 0.20239 0.0
H161 H 0.77675 0.04568 0.97574 0.0
H162 H 0.81575 0.99338 0.10678 0.0
H163 H 0.75663 0.97967 0.11791 0.0
H164 H 0.74905 0.98034 0.19493 0.0
H165 H 0.77833 0.97392 0.17026 0.0
H166 H 0.79386 0.03119 0.2 0.0
H167 H 0.801 0.00348 0.21293 0.0
H168 H 0.77593 0.01399 0.25142 0.0
H169 H 0.69869 0.07411 0.93429 0.0
H170 H 0.64539 0.08412 0.07306 0.0
H171 H 0.67151 0.07334 0.14729 0.0
H172 H 0.7429 0.09226 0.00751 0.0
H173 H 0.7533 0.07756 0.94606 0.0
H174 H 0.76585 0.07471 0.01751 0.0
H175 H 0.7122 0.03055 0.97679 0.0
H176 H 0.74281 0.02858 0.96855 0.0
H177 H 0.72892 0.04786 0.92187 0.0
H178 H 0.81303 0.03147 0.94122 0.0
C179 C 0.78453 0.03452 0.00559 0.0
C180 C 0.56927 0.68723 0.40134 0.0
C181 C 0.57649 0.66608 0.41506 0.0
C182 C 0.58574 0.65408 0.36868 0.0
C183 C 0.57425 0.68091 0.29674 0.0
C184 C 0.56919 0.69464 0.34099 0.0
C185 C 0.56416 0.71681 0.31419 0.0
H186 H 0.5332 0.77402 0.06463 0.0
C187 C 0.56772 0.69072 0.2402 0.0
C188 C 0.5628 0.71231 0.24843 0.0
H189 H 0.55196 0.80079 0.22835 0.0
H190 H 0.55868 0.76466 0.27041 0.0
H191 H 0.57401 0.74108 0.05293 0.0
H192 H 0.50256 0.73625 0.12314 0.0
H193 H 0.50809 0.71036 0.1006 0.0
H194 H 0.51007 0.73288 0.04614 0.0
H195 H 0.549 0.74312 0.00895 0.0
H196 H 0.56091 0.71745 0.02774 0.0
C197 C 0.58525 0.73219 0.3241 0.0
C198 C 0.5407 0.72418 0.34175 0.0
C199 C 0.53817 0.63946 0.0931 0.0
C200 C 0.52658 0.64242 0.04036 0.0
C201 C 0.52389 0.66356 0.0166 0.0
C202 C 0.5321 0.68137 0.04584 0.0
C203 C 0.54297 0.67804 0.09962 0.0
C204 C 0.54623 0.65734 0.1217 0.0
C205 C 0.5584 0.65667 0.17879 0.0
C206 C 0.5608 0.68063 0.18901 0.0
C207 C 0.55152 0.69292 0.14295 0.0
C208 C 0.58247 0.64631 0.16812 0.0
C209 C 0.54199 0.64416 0.22728 0.0
C210 C 0.53868 0.77224 0.10967 0.0
C211 C 0.54193 0.79026 0.14322 0.0
C212 C 0.54948 0.78714 0.20141 0.0
C213 C 0.55354 0.76626 0.22552 0.0
C214 C 0.55044 0.74845 0.19062 0.0
C215 C 0.54308 0.75178 0.13372 0.0
C216 C 0.54044 0.73139 0.10228 0.0
C217 C 0.54906 0.71531 0.14777 0.0
C218 C 0.5546 0.72513 0.20014 0.0
C219 C 0.55679 0.73326 0.04464 0.0
C220 C 0.51403 0.72744 0.09203 0.0
H221 H 0.59151 0.65165 0.27575 0.0
H222 H 0.56325 0.69726 0.43632 0.0
H223 H 0.52653 0.71171 0.33774 0.0
H224 H 0.53529 0.73927 0.31943 0.0
H225 H 0.54197 0.72693 0.38966 0.0
H226 H 0.602 0.72372 0.32038 0.0
H227 H 0.58357 0.7386 0.36903 0.0
H228 H 0.58745 0.74573 0.29026 0.0
H229 H 0.54051 0.62348 0.11274 0.0
H230 H 0.51552 0.66635 0.97529 0.0
H231 H 0.52949 0.69705 0.02569 0.0
H232 H 0.58594 0.64196 0.12136 0.0
H233 H 0.58352 0.63121 0.19637 0.0
H234 H 0.59724 0.65754 0.17705 0.0
H235 H 0.52486 0.65194 0.23222 0.0
H236 H 0.54931 0.64322 0.27123 0.0
H237 H 0.53862 0.62728 0.21569 0.0
H238 H 0.592 0.63809 0.37773 0.0
C239 C 0.58487 0.66155 0.30958 0.0
C240 C 0.28942 0.5554 0.2642 0.0
C241 C 0.30082 0.56568 0.30941 0.0
C242 C 0.29068 0.58382 0.33352 0.0
C243 C 0.25757 0.5799 0.27343 0.0
C244 C 0.2679 0.56303 0.24632 0.0
C245 C 0.25306 0.55467 0.19866 0.0
H246 H 0.14791 0.55588 0.07227 0.0
C247 C 0.23461 0.58311 0.2494 0.0
C248 C 0.23196 0.56892 0.20379 0.0
H249 H 0.20513 0.51518 0.02905 0.0
H250 H 0.22927 0.53376 0.09719 0.0
H251 H 0.14662 0.55076 0.19248 0.0
H252 H 0.17978 0.60135 0.0805 0.0
H253 H 0.16627 0.61318 0.14232 0.0
H254 H 0.14887 0.59647 0.09761 0.0
H255 H 0.1331 0.57597 0.18481 0.0
H256 H 0.15177 0.56987 0.24462 0.0
C257 C 0.24624 0.53072 0.21524 0.0
C258 C 0.26701 0.55862 0.1379 0.0
C259 C 0.1725 0.61792 0.37497 0.0
C260 C 0.14801 0.61689 0.37135 0.0
C261 C 0.13901 0.61516 0.31498 0.0
C262 C 0.15376 0.61059 0.26591 0.0
C263 C 0.17748 0.60708 0.27385 0.0
C264 C 0.18691 0.61227 0.32623 0.0
C265 C 0.21238 0.60701 0.32704 0.0
C266 C 0.21571 0.59555 0.26931 0.0
C267 C 0.19511 0.59549 0.23896 0.0
C268 C 0.21542 0.59176 0.38264 0.0
C269 C 0.22726 0.62846 0.32535 0.0
C270 C 0.1657 0.55097 0.07714 0.0
C271 C 0.17451 0.53386 0.04619 0.0
C272 C 0.1979 0.52826 0.05291 0.0
C273 C 0.21178 0.53897 0.09268 0.0
C274 C 0.20208 0.55536 0.12589 0.0
C275 C 0.17947 0.56121 0.11674 0.0
C276 C 0.17112 0.57806 0.15675 0.0
C277 C 0.19257 0.58183 0.19138 0.0
C278 C 0.21078 0.56851 0.17363 0.0
C279 C 0.14955 0.56837 0.19661 0.0
C280 C 0.16605 0.59838 0.11754 0.0
H281 H 0.26259 0.60481 0.33565 0.0
H282 H 0.29697 0.54176 0.24364 0.0
H283 H 0.2765 0.57463 0.13486 0.0
H284 H 0.25562 0.55893 0.10021 0.0
H285 H 0.2802 0.54619 0.13151 0.0
H286 H 0.24026 0.52841 0.26314 0.0
H287 H 0.26146 0.52048 0.20721 0.0
H288 H 0.23163 0.5246 0.19054 0.0
H289 H 0.17996 0.62025 0.41715 0.0
H290 H 0.12031 0.61484 0.30992 0.0
H291 H 0.14576 0.60813 0.22508 0.0
H292 H 0.20183 0.57838 0.38604 0.0
H293 H 0.21373 0.60056 0.42401 0.0
H294 H 0.23243 0.58412 0.38214 0.0
H295 H 0.2169 0.64271 0.31402 0.0
H296 H 0.24195 0.62899 0.29065 0.0
H297 H 0.2345 0.63104 0.36904 0.0
H298 H 0.29871 0.59204 0.36857 0.0
C299 C 0.26945 0.59112 0.3151 0.0
C300 C 0.08552 0.16449 0.43042 0.0
C301 C 0.08767 0.14279 0.41646 0.0
C302 C 0.10547 0.13788 0.37359 0.0
C303 C 0.11224 0.17559 0.3464 0.0
C304 C 0.09825 0.18071 0.39487 0.0
C305 C 0.09709 0.20474 0.39835 0.0
H306 H 0.08864 0.29998 0.2625 0.0
C307 C 0.11671 0.19493 0.30666 0.0
C308 C 0.11023 0.2125 0.33906 0.0
H309 H 0.11379 0.28832 0.43826 0.0
H310 H 0.1218 0.25149 0.41484 0.0
H311 H 0.13157 0.27159 0.19897 0.0
H312 H 0.05949 0.25155 0.25268 0.0
H313 H 0.06766 0.24299 0.18155 0.0
H314 H 0.06656 0.27138 0.19252 0.0
H315 H 0.10724 0.28423 0.16661 0.0
H316 H 0.11739 0.25917 0.14138 0.0
C317 C 0.10939 0.21138 0.45385 0.0
C318 C 0.07133 0.21136 0.40091 0.0
C319 C 0.10941 0.17972 0.09171 0.0
C320 C 0.09664 0.18969 0.0479 0.0
C321 C 0.09088 0.21134 0.05288 0.0
C322 C 0.09628 0.22221 0.1039 0.0
C323 C 0.10658 0.21093 0.15092 0.0
C324 C 0.11276 0.18991 0.14407 0.0
C325 C 0.11905 0.17857 0.20088 0.0
C326 C 0.11643 0.19649 0.2435 0.0
C327 C 0.10966 0.21563 0.2138 0.0
C328 C 0.14477 0.17204 0.19316 0.0
C329 C 0.10132 0.15901 0.21635 0.0
C330 C 0.09475 0.28927 0.29719 0.0
C331 C 0.09963 0.29691 0.35317 0.0
C332 C 0.10909 0.28279 0.3958 0.0
C333 C 0.11255 0.26132 0.38425 0.0
C334 C 0.10541 0.25366 0.33123 0.0
C335 C 0.09847 0.26756 0.28666 0.0
C336 C 0.09727 0.25643 0.22877 0.0
C337 C 0.10562 0.23409 0.24693 0.0
C338 C 0.1083 0.2326 0.30815 0.0
C339 C 0.11418 0.26847 0.18099 0.0
C340 C 0.07145 0.25558 0.21242 0.0
H341 H 0.13143 0.15013 0.30684 0.0
H342 H 0.07329 0.16879 0.4659 0.0
H343 H 0.06233 0.20565 0.36211 0.0
H344 H 0.07033 0.22914 0.4005 0.0
H345 H 0.06161 0.20451 0.44229 0.0
H346 H 0.10575 0.1992 0.49164 0.0
H347 H 0.10267 0.22655 0.47024 0.0
H348 H 0.1287 0.21307 0.4446 0.0
H349 H 0.11393 0.16304 0.08874 0.0
H350 H 0.08097 0.21933 0.01938 0.0
H351 H 0.09103 0.23851 0.10639 0.0
H352 H 0.15611 0.18558 0.17156 0.0
H353 H 0.14627 0.15805 0.16494 0.0
H354 H 0.15214 0.16791 0.23626 0.0
H355 H 0.08793 0.16251 0.25187 0.0
H356 H 0.11029 0.14418 0.22938 0.0
H357 H 0.09105 0.15446 0.17856 0.0
H358 H 0.10842 0.12147 0.36274 0.0
C359 C 0.11827 0.15433 0.33967 0.0
C360 C 0.30173 0.01054 0.04434 0.0
C361 C 0.32443 0.01967 0.02548 0.0
C362 C 0.33641 0.03238 0.06449 0.0
C363 C 0.30809 0.02077 0.14347 0.0
C364 C 0.29337 0.01236 0.10434 0.0
C365 C 0.26924 0.00716 0.13641 0.0
H366 H 0.21188 0.99315 0.41682 0.0
C367 C 0.29825 0.0161 0.20358 0.0
C368 C 0.27457 0.00962 0.20192 0.0
H369 H 0.17788 0.99631 0.25087 0.0
H370 H 0.2163 1.00013 0.1963 0.0
H371 H 0.2467 0.96092 0.37496 0.0
H372 H 0.25237 0.02895 0.39065 0.0
H373 H 0.27712 0.01715 0.42033 0.0
H374 H 0.24824 0.0088 0.45113 0.0
H375 H 0.25706 0.97185 0.44044 0.0
H376 H 0.27693 0.9661 0.37863 0.0
C377 C 0.26059 0.98414 0.12541 0.0
C378 C 0.25259 0.0243 0.1142 0.0
C379 C 0.35693 0.98961 0.34483 0.0
C380 C 0.35527 0.98197 0.40474 0.0
C381 C 0.33332 0.98177 0.43704 0.0
C382 C 0.31344 0.98897 0.40961 0.0
C383 C 0.31557 0.99649 0.34945 0.0
C384 C 0.33722 0.99728 0.31874 0.0
C385 C 0.3368 0.00707 0.25656 0.0
C386 C 0.31068 0.01099 0.25416 0.0
C387 C 0.29838 0.00391 0.30752 0.0
C388 C 0.34507 0.99036 0.21245 0.0
C389 C 0.35258 0.02802 0.25062 0.0
C390 C 0.21226 0.99455 0.36878 0.0
C391 C 0.19144 0.99455 0.33886 0.0
C392 C 0.19344 0.99675 0.27576 0.0
C393 C 0.21567 0.9992 0.24397 0.0
C394 C 0.23613 0.99966 0.2754 0.0
C395 C 0.234 0.9968 0.33683 0.0
C396 C 0.25718 0.99587 0.36394 0.0
C397 C 0.27365 0.00116 0.3097 0.0
C398 C 0.26155 0.00333 0.2571 0.0
C399 C 0.25969 0.97261 0.39117 0.0
C400 C 0.2589 0.01353 0.40925 0.0
H401 H 0.33689 0.04358 0.15208 0.0
H402 H 0.29131 0.00209 0.01396 0.0
H403 H 0.26044 0.04077 0.11773 0.0
H404 H 0.23562 0.02358 0.14011 0.0
H405 H 0.24925 0.02233 0.06679 0.0
H406 H 0.27367 0.97238 0.13901 0.0
H407 H 0.25783 0.98256 0.07755 0.0
H408 H 0.24382 0.97975 0.15122 0.0
H409 H 0.3734 0.98983 0.3184 0.0
H410 H 0.33157 0.97645 0.48369 0.0
H411 H 0.29722 0.98866 0.4363 0.0
H412 H 0.33354 0.97548 0.21799 0.0
H413 H 0.36332 0.98589 0.21964 0.0
H414 H 0.34502 0.99667 0.16566 0.0
H415 H 0.36584 0.02834 0.28453 0.0
H416 H 0.34205 0.04248 0.25607 0.0
H417 H 0.36297 0.02966 0.2073 0.0
H418 H 0.35302 0.04063 0.05027 0.0
C419 C 0.328 0.03328 0.12341 0.0
C420 C 0.44476 0.30821 0.02212 0.0
C421 C 0.43709 0.32917 0.00791 0.0
C422 C 0.42746 0.34112 0.05392 0.0
C423 C 0.43923 0.31466 0.12653 0.0
C424 C 0.44475 0.30094 0.08259 0.0
C425 C 0.4501 0.27891 0.10983 0.0
H426 H 0.47269 0.22115 0.36713 0.0
C427 C 0.44546 0.30499 0.18348 0.0
C428 C 0.45076 0.28347 0.17573 0.0
H429 H 0.46134 0.19498 0.19794 0.0
H430 H 0.45758 0.23134 0.15328 0.0
H431 H 0.50703 0.25737 0.31392 0.0
H432 H 0.43406 0.25665 0.36955 0.0
H433 H 0.44827 0.27924 0.39795 0.0
H434 H 0.45752 0.25267 0.41784 0.0
H435 H 0.49759 0.26281 0.38841 0.0
H436 H 0.50221 0.28409 0.33051 0.0
C437 C 0.474 0.27207 0.08353 0.0
C438 C 0.42954 0.26314 0.09866 0.0
C439 C 0.47295 0.35643 0.33224 0.0
C440 C 0.48392 0.35354 0.38591 0.0
C441 C 0.48621 0.33245 0.41046 0.0
C442 C 0.47821 0.31459 0.38107 0.0
C443 C 0.46799 0.31784 0.32635 0.0
C444 C 0.46514 0.33852 0.30346 0.0
C445 C 0.45363 0.33912 0.24544 0.0
C446 C 0.45149 0.31514 0.23529 0.0
C447 C 0.46003 0.3029 0.28252 0.0
C448 C 0.47041 0.35163 0.1978 0.0
C449 C 0.42943 0.3494 0.25443 0.0
C450 C 0.46901 0.2232 0.32066 0.0
C451 C 0.46659 0.20531 0.28639 0.0
C452 C 0.46283 0.20861 0.22538 0.0
C453 C 0.46031 0.22959 0.19988 0.0
C454 C 0.46169 0.24729 0.23586 0.0
C455 C 0.46661 0.24382 0.29485 0.0
C456 C 0.46918 0.26427 0.32611 0.0
C457 C 0.46246 0.28048 0.2784 0.0
C458 C 0.45823 0.27069 0.22509 0.0
C459 C 0.49523 0.26736 0.34092 0.0
C460 C 0.45145 0.26324 0.38107 0.0
H461 H 0.42126 0.34363 0.14667 0.0
H462 H 0.45113 0.29821 0.98742 0.0
H463 H 0.41248 0.271 0.10459 0.0
H464 H 0.42814 0.24893 0.1303 0.0
H465 H 0.43117 0.25772 0.05259 0.0
H466 H 0.48766 0.28505 0.08703 0.0
H467 H 0.4731 0.2688 0.03583 0.0
H468 H 0.47994 0.25746 0.1072 0.0
H469 H 0.47092 0.37239 0.31206 0.0
H470 H 0.49409 0.32975 0.45249 0.0
H471 H 0.48034 0.29894 0.40197 0.0
H472 H 0.48764 0.34398 0.19419 0.0
H473 H 0.47347 0.36857 0.20928 0.0
H474 H 0.46353 0.35239 0.15329 0.0
H475 H 0.42564 0.35414 0.30072 0.0
H476 H 0.41482 0.33798 0.24559 0.0
H477 H 0.42845 0.36428 0.22522 0.0
H478 H 0.42087 0.35695 0.04446 0.0
C479 C 0.42829 0.33381 0.11315 0.0
C480 C 0.01759 0.96671 0.76999 0.0
N481 N 0.98188 0.95791 0.61799 0.0
C482 C 0.9965 0.94128 0.61332 0.0
C483 C 0.98855 0.92158 0.5942 0.0
C484 C 0.96529 0.91875 0.57867 0.0
C485 C 0.95064 0.93638 0.58246 0.0
C486 C 0.9593 0.95588 0.60259 0.0
Zn487 Zn 0.99514 0.98425 0.65815 0.0
C488 C 0.96225 0.99851 0.75626 0.0
N489 N 0.02652 0.03387 0.75411 0.0
C490 C 0.04759 0.03309 0.77882 0.0
C491 C 0.01407 0.05209 0.75428 0.0
C492 C 0.02284 0.07052 0.77911 0.0
C493 C 0.04438 0.07012 0.8053 0.0
C494 C 0.05679 0.05108 0.80537 0.0
Zn495 Zn 0.01272 0.00804 0.71313 0.0
O496 O 0.00724 0.96259 0.72359 0.0
C497 C 0.04566 0.99394 0.61537 0.0
O498 O 0.02304 0.98608 0.77972 0.0
H499 H 0.99722 0.05238 0.73517 0.0
H500 H 0.01429 0.943 0.62647 0.0
H501 H 0.05727 0.01852 0.77797 0.0
O502 O 0.02715 0.98335 0.60432 0.0
O503 O 0.04534 0.00528 0.66065 0.0
H504 H 0.94787 0.9692 0.60713 0.0
O505 O 1.00177 0.02944 0.64642 0.0
O506 O 0.9837 0.00643 0.59271 0.0
O507 O 0.9804 0.01015 0.76442 0.0
O508 O 0.96293 0.98599 0.71341 0.0
C509 C 0.99038 0.02565 0.60144 0.0
H510 H 1.00047 0.90851 0.59347 0.0
H511 H 0.93266 0.93514 0.57027 0.0
H512 H 0.01257 0.08478 0.77918 0.0
H513 H 0.07347 0.05019 0.82539 0.0
C514 C 0.49075 0.97434 0.63301 0.0
N515 N 0.50511 0.04086 0.62822 0.0
C516 C 0.50999 0.03913 0.56889 0.0
C517 C 0.50568 0.05599 0.52799 0.0
C518 C 0.49625 0.07498 0.54801 0.0
C519 C 0.49166 0.07644 0.60966 0.0
C520 C 0.49621 0.05913 0.6491 0.0
Zn521 Zn 0.51035 0.01454 0.68488 0.0
C522 C 0.46964 0.00372 0.77186 0.0
N523 N 0.52068 0.95679 0.79188 0.0
C524 C 0.5017 0.94353 0.809 0.0
C525 C 0.54194 0.9532 0.81365 0.0
C526 C 0.54463 0.93575 0.85442 0.0
C527 C 0.52522 0.92189 0.8734 0.0
C528 C 0.50354 0.9261 0.84995 0.0
Zn529 Zn 0.51575 0.98341 0.73595 0.0
O530 O 0.49444 0.9946 0.62586 0.0
C531 C 0.55616 0.99468 0.6476 0.0
O532 O 0.49753 0.96417 0.67867 0.0
H533 H 0.55681 0.96398 0.79978 0.0
H534 H 0.51696 0.02447 0.55298 0.0
H535 H 0.4849 0.94664 0.79155 0.0
O536 O 0.54363 0.01094 0.6404 0.0
O537 O 0.54871 0.97927 0.68458 0.0
H538 H 0.49245 0.06021 0.69637 0.0
O539 O 0.53391 0.00326 0.79236 0.0
O540 O 0.52687 0.03389 0.74472 0.0
O541 O 0.48278 0.98828 0.78465 0.0
O542 O 0.47682 0.01777 0.73085 0.0
C543 C 0.53634 0.0237 0.78669 0.0
H544 H 0.50921 0.05392 0.48102 0.0
H545 H 0.48472 0.09085 0.6274 0.0
H546 H 0.56178 0.93309 0.87046 0.0
H547 H 0.48791 0.91626 0.8638 0.0
C548 C 0.52332 0.47677 0.616 0.0
N549 N 0.46026 0.50721 0.64981 0.0
C550 C 0.44876 0.49098 0.62411 0.0
C551 C 0.4306 0.49539 0.58703 0.0
C552 C 0.42444 0.51682 0.57492 0.0
C553 C 0.43641 0.53314 0.60328 0.0
C554 C 0.45401 0.52794 0.6411 0.0
Zn555 Zn 0.48973 0.5011 0.69503 0.0
C556 C 0.48779 0.45836 0.76005 0.0
N557 N 0.55375 0.48837 0.77684 0.0
C558 C 0.57606 0.4935 0.75447 0.0
C559 C 0.54945 0.47974 0.83348 0.0
C560 C 0.5678 0.47571 0.86971 0.0
C561 C 0.59098 0.48082 0.8481 0.0
C562 C 0.59506 0.48994 0.78971 0.0
Zn563 Zn 0.52462 0.49441 0.73032 0.0
O564 O 0.50338 0.485 0.62217 0.0
C565 C 0.52682 0.53698 0.6649 0.0
O566 O 0.53775 0.47842 0.65628 0.0
H567 H 0.53164 0.47618 0.85117 0.0
H568 H 0.45406 0.47459 0.6311 0.0
H569 H 0.57913 0.50049 0.70953 0.0
O570 O 0.50581 0.53067 0.6581 0.0
O571 O 0.53992 0.52465 0.69366 0.0
H572 H 0.46324 0.54068 0.66188 0.0
O573 O 0.5107 0.5102 0.80373 0.0
O574 O 0.47679 0.51748 0.76846 0.0
O575 O 0.50898 0.46452 0.76493 0.0
O576 O 0.47429 0.47098 0.73358 0.0
C577 C 0.49094 0.51873 0.80941 0.0
H578 H 0.42173 0.4821 0.56768 0.0
H579 H 0.43291 0.54996 0.59506 0.0
H580 H 0.56382 0.46902 0.91474 0.0
H581 H 0.61272 0.49404 0.77134 0.0
C582 C 0.03791 0.52563 0.63732 0.0
N583 N 0.03557 0.45803 0.63462 0.0
C584 C 0.05836 0.45963 0.61302 0.0
C585 C 0.06724 0.4443 0.57557 0.0
C586 C 0.05253 0.42713 0.56017 0.0
C587 C 0.02917 0.42582 0.58381 0.0
C588 C 0.02103 0.44148 0.62086 0.0
Zn589 Zn 0.02162 0.48138 0.68535 0.0
C590 C 0.04947 0.49342 0.78284 0.0
N591 N 0.98961 0.53082 0.78237 0.0
C592 C 0.98315 0.54948 0.75486 0.0
C593 C 0.98834 0.528 0.8428 0.0
C594 C 0.98106 0.54458 0.878 0.0
C595 C 0.97522 0.56433 0.85074 0.0
C596 C 0.97593 0.5665 0.7883 0.0
Zn597 Zn 1.00384 0.50754 0.73203 0.0
O598 O 0.03983 0.5057 0.62943 0.0
C599 C 0.97567 0.4949 0.63565 0.0
O600 O 0.0237 0.53145 0.6782 0.0
H601 H 0.99367 0.51309 0.86383 0.0
H602 H 0.06962 0.47296 0.62419 0.0
H603 H 0.98421 0.55139 0.70682 0.0
O604 O 0.99241 0.4821 0.6317 0.0
O605 O 0.97596 0.50915 0.67378 0.0
H606 H 1.00295 0.44048 0.63825 0.0
O607 O 0.98402 0.48323 0.78395 0.0
O608 O 1.00318 0.45745 0.74266 0.0
O609 O 0.032 0.5053 0.78994 0.0
O610 O 0.05035 0.48101 0.74005 0.0
C611 C 0.98721 0.46329 0.7792 0.0
H612 H 0.08531 0.44611 0.55807 0.0
H613 H 0.01727 0.4127 0.57427 0.0
H614 H 0.98094 0.54228 0.92595 0.0
H615 H 0.97126 0.58135 0.76546 0.0
H616 H 0.14899 0.01223 0.31346 0.0
H617 H 0.09191 0.99658 0.64143 0.0
H618 H 0.18028 0.97208 0.44686 0.0
H619 H 0.0477 0.99119 0.49472 0.0
H620 H 0.12657 0.99567 0.57135 0.0
H621 H 0.11289 0.01163 0.37893 0.0
C622 C 0.14838 0.00318 0.35597 0.0
C623 C 0.16822 0.9926 0.37461 0.0
C624 C 0.10924 0.99471 0.55466 0.0
C625 C 0.12713 0.99259 0.45051 0.0
C626 C 0.08951 0.9953 0.59452 0.0
C627 C 0.06691 0.99374 0.57396 0.0
C628 C 0.10639 0.99328 0.49355 0.0
C629 C 0.06483 0.99216 0.51252 0.0
C630 C 0.12779 0.003 0.39346 0.0
C631 C 0.16606 0.98127 0.43085 0.0
N632 N 0.08429 0.99219 0.47438 0.0
N633 N 0.14618 0.98189 0.46694 0.0
H634 H 0.43971 0.18857 0.38242 0.0
H635 H 0.52132 0.08954 0.44408 0.0
H636 H 0.49657 0.17318 0.25992 0.0
H637 H 0.45885 0.1014 0.55268 0.0
H638 H 0.51208 0.11902 0.3742 0.0
H639 H 0.44555 0.15556 0.44243 0.0
C640 C 0.45322 0.17798 0.36776 0.0
C641 C 0.4677 0.18356 0.31626 0.0
C642 C 0.50035 0.1151 0.41319 0.0
C643 C 0.47488 0.14587 0.38546 0.0
C644 C 0.50557 0.0982 0.45315 0.0
C645 C 0.49092 0.09294 0.50481 0.0
C646 C 0.48037 0.12695 0.42486 0.0
C647 C 0.47095 0.10504 0.51428 0.0
C648 C 0.45662 0.15917 0.40212 0.0
C649 C 0.48496 0.16935 0.29917 0.0
N650 N 0.46634 0.12146 0.47492 0.0
N651 N 0.48828 0.15125 0.33412 0.0
H652 H 0.33875 0.58895 0.3439 0.0
H653 H 0.41176 0.49515 0.47667 0.0
H654 H 0.31213 0.52347 0.334 0.0
H655 H 0.39522 0.55114 0.57376 0.0
H656 H 0.38309 0.50561 0.40537 0.0
H657 H 0.36923 0.57587 0.40596 0.0
C658 C 0.33941 0.57178 0.3542 0.0
C659 C 0.32236 0.55735 0.33496 0.0
C660 C 0.38592 0.51549 0.44243 0.0
C661 C 0.35773 0.54233 0.40477 0.0
C662 C 0.40214 0.5095 0.48368 0.0
C663 C 0.40632 0.5223 0.53186 0.0
C664 C 0.37428 0.53469 0.44831 0.0
C665 C 0.39342 0.54098 0.53692 0.0
C666 C 0.35684 0.56438 0.38957 0.0
C667 C 0.32478 0.5352 0.34803 0.0
N668 N 0.37827 0.5467 0.49541 0.0
N669 N 0.34206 0.52833 0.38261 0.0
H670 H 0.06035 0.31959 0.33419 0.0
H671 H 0.09574 0.40922 0.55594 0.0
H672 H 0.12779 0.32496 0.40871 0.0
H673 H 0.02964 0.40699 0.47364 0.0
H674 H 0.10902 0.38044 0.49484 0.0
H675 H 0.05015 0.35374 0.37608 0.0
C676 C 0.07318 0.32816 0.35835 0.0
C677 C 0.09481 0.31926 0.36873 0.0
C678 C 0.09166 0.38633 0.48981 0.0
C679 C 0.08315 0.3581 0.41763 0.0
C680 C 0.08409 0.40289 0.52456 0.0
C681 C 0.06142 0.41049 0.52052 0.0
C682 C 0.07646 0.37716 0.45072 0.0
C683 C 0.04706 0.40137 0.47937 0.0
C684 C 0.06729 0.34756 0.38268 0.0
C685 C 0.11071 0.331 0.4007 0.0
N686 N 0.05475 0.38511 0.44645 0.0
N687 N 0.10448 0.34965 0.4245 0.0
H688 H 0.82273 0.98275 0.93495 0.0
H689 H 0.95682 0.02136 0.85611 0.0
H690 H 0.86191 0.02376 0.04358 0.0
H691 H 0.91966 0.97604 0.75458 0.0
H692 H 0.92288 0.02103 0.92739 0.0
H693 H 0.85866 0.97773 0.87297 0.0
C694 C 0.83913 0.99009 0.9469 0.0
C695 C 0.83948 0.00331 0.99519 0.0
C696 C 0.92211 0.01111 0.88964 0.0
C697 C 0.88056 0.99848 0.92282 0.0
C698 C 0.9415 0.01137 0.84855 0.0
C699 C 0.94116 0.99882 0.7987 0.0
C700 C 0.90198 0.99827 0.88115 0.0
C701 C 0.92075 0.98609 0.79197 0.0
C702 C 0.85959 0.98746 0.91106 0.0
C703 C 0.86101 0.01305 0.00759 0.0
N704 N 0.90201 0.98622 0.83248 0.0
N705 N 0.88061 0.01063 0.97133 0.0
H706 H 0.56956 0.82769 0.14146 0.0
H707 H 0.50234 0.88216 0.87715 0.0
H708 H 0.50482 0.80202 0.08046 0.0
H709 H 0.55315 0.91845 0.96925 0.0
H710 H 0.5048 0.85215 0.94974 0.0
H711 H 0.56512 0.861 0.07961 0.0
C712 C 0.55422 0.82922 0.11604 0.0
C713 C 0.5377 0.81193 0.11551 0.0
C714 C 0.51534 0.86671 0.9544 0.0
C715 C 0.53278 0.84965 0.04393 0.0
C716 C 0.51388 0.88399 0.91291 0.0
C717 C 0.52736 0.90314 0.917 0.0
C718 C 0.53065 0.86824 1.00037 0.0
C719 C 0.54255 0.90402 0.96368 0.0
C720 C 0.55178 0.84814 0.08043 0.0
C721 C 0.51823 0.81474 0.08136 0.0
N722 N 0.54384 0.88682 0.00342 0.0
N723 N 0.51648 0.83305 0.04657 0.0
H724 H 0.71097 0.49094 0.0658 0.0
H725 H 0.59714 0.44453 0.91811 0.0
H726 H 0.68774 0.42403 0.07977 0.0
H727 H 0.62904 0.50736 0.86726 0.0
H728 H 0.62796 0.43817 0.9862 0.0
H729 H 0.67838 0.49888 0.00299 0.0
C730 C 0.69877 0.47802 0.05647 0.0
C731 C 0.70201 0.4568 0.07785 0.0
C732 C 0.62829 0.45335 0.96015 0.0
C733 C 0.66501 0.46565 0.00587 0.0
C734 C 0.61066 0.45701 0.92135 0.0
C735 C 0.6105 0.47652 0.88699 0.0
C736 C 0.64592 0.46936 0.96521 0.0
C737 C 0.62862 0.49202 0.89256 0.0
C738 C 0.68035 0.4825 0.0202 0.0
C739 C 0.68591 0.44058 0.06388 0.0
N740 N 0.64556 0.48816 0.93118 0.0
N741 N 0.66817 0.44533 0.02878 0.0
H742 H 0.96998 0.69216 0.97574 0.0
H743 H 0.94725 0.56511 0.9547 0.0
H744 H 0.91682 0.65586 0.08766 0.0
H745 H 0.9913 0.60604 0.82939 0.0
H746 H 0.93891 0.59658 0.01232 0.0
H747 H 0.98166 0.65911 0.93176 0.0
C748 C 0.96093 0.67709 0.99147 0.0
C749 C 0.94227 0.67672 0.03488 0.0
C750 C 0.95041 0.59861 0.97225 0.0
C751 C 0.95534 0.63868 0.98408 0.0
C752 C 0.95522 0.58067 0.93944 0.0
C753 C 0.96981 0.58299 0.88676 0.0
C754 C 0.9605 0.61891 0.95254 0.0
C755 C 0.9796 0.60353 0.869 0.0
C756 C 0.96754 0.65822 0.9662 0.0
C757 C 0.93131 0.65676 0.05423 0.0
N758 N 0.97478 0.62062 0.90173 0.0
N759 N 0.93784 0.63849 0.02817 0.0
H760 H 0.09373 0.09941 0.4404 0.0
H761 H 0.97693 0.06678 0.60884 0.0
H762 H 0.04075 0.14708 0.44635 0.0
H763 H 0.00986 0.02354 0.49026 0.0
H764 H 0.99813 0.09722 0.55308 0.0
H765 H 0.06331 0.07146 0.46688 0.0
C766 C 0.07578 0.10411 0.44695 0.0
C767 C 0.06996 0.1258 0.44055 0.0
C768 C 0.99996 0.08115 0.5378 0.0
C769 C 0.03508 0.0937 0.47204 0.0
C770 C 0.98759 0.06385 0.56895 0.0
C771 C 0.99167 0.04271 0.55385 0.0
C772 C 0.01693 0.07704 0.49282 0.0
C773 C 1.00611 0.03964 0.50284 0.0
C774 C 0.05841 0.08807 0.46185 0.0
C775 C 0.04631 0.13071 0.4517 0.0
N776 N 0.01895 0.05658 0.47534 0.0
N777 N 0.02975 0.1148 0.46747 0.0
H778 H 0.3995 1.0 0.38396 0.0
H779 H 0.45274 0.94705 0.66091 0.0
H780 H 0.36035 0.9494 0.49124 0.0
H781 H 0.49374 0.97961 0.51337 0.0
H782 H 0.41998 0.94267 0.59681 0.0
H783 H 0.43479 0.98939 0.42814 0.0
C784 C 0.39831 0.98634 0.41611 0.0
C785 C 0.3768 0.97542 0.43319 0.0
C786 C 0.43645 0.95003 0.5779 0.0
C787 C 0.41757 0.96361 0.48626 0.0
C788 C 0.45518 0.95233 0.61426 0.0
C789 C 0.47565 0.96399 0.59218 0.0
C790 C 0.43848 0.95961 0.5198 0.0
C791 C 0.47802 0.97078 0.53193 0.0
C792 C 0.41862 0.98029 0.4416 0.0
C793 C 0.37648 0.95843 0.47712 0.0
N794 N 0.45946 0.96886 0.49806 0.0
N795 N 0.39657 0.95319 0.50281 0.0
H796 H 0.46391 0.39249 0.39416 0.0
H797 H 0.54923 0.44068 0.61561 0.0
H798 H 0.52451 0.3582 0.44454 0.0
H799 H 0.50467 0.479 0.5086 0.0
H800 H 0.54336 0.4108 0.55108 0.0
H801 H 0.47976 0.42438 0.43656 0.0
C802 C 0.48069 0.39169 0.41365 0.0
C803 C 0.49297 0.37262 0.41519 0.0
C804 C 0.53543 0.42597 0.54082 0.0
C805 C 0.51111 0.40922 0.46519 0.0
C806 C 0.53897 0.44308 0.57722 0.0
C807 C 0.52706 0.46213 0.56783 0.0
C808 C 0.5198 0.42809 0.49547 0.0
C809 C 0.51384 0.46441 0.51785 0.0
C810 C 0.48977 0.40997 0.43791 0.0
C811 C 0.51431 0.37247 0.44288 0.0
N812 N 0.51018 0.44742 0.48424 0.0
N813 N 0.52267 0.3905 0.46723 0.0
H814 H 0.10205 0.62768 0.39822 0.0
H815 H 0.08029 0.51879 0.58301 0.0
H816 H 0.15812 0.59114 0.46727 0.0
H817 H 0.0316 0.56882 0.61394 0.0
H818 H 0.10748 0.54532 0.52979 0.0
H819 H 0.07438 0.60763 0.47108 0.0
C820 C 0.10868 0.61596 0.42955 0.0
C821 C 0.13247 0.61092 0.42565 0.0
C822 C 0.09088 0.55054 0.54843 0.0
C823 C 0.10101 0.58791 0.50779 0.0
C824 C 0.07526 0.53537 0.57819 0.0
C825 C 0.05366 0.54164 0.60264 0.0
C826 C 0.08475 0.57211 0.54186 0.0
C827 C 0.04814 0.56341 0.59561 0.0
C828 C 0.09289 0.60457 0.47102 0.0
C829 C 0.14008 0.59576 0.4681 0.0
N830 N 0.06353 0.57793 0.56508 0.0
N831 N 0.12433 0.58448 0.5063 0.0
H832 H 0.92513 0.89444 0.99128 0.0
H833 H 0.02693 0.9246 0.75939 0.0
H834 H 0.97559 0.84654 0.95108 0.0
H835 H 1.0042 0.9699 0.88618 0.0
H836 H 0.00944 0.89511 0.82622 0.0
H837 H 0.95309 0.9223 0.94724 0.0
C838 C 0.94205 0.8897 0.97356 0.0
C839 C 0.94788 0.86797 0.9751 0.0
C840 C 0.00901 0.91144 0.8403 0.0
C841 C 0.97981 0.89989 0.92381 0.0
C842 C 0.01919 0.92821 0.80257 0.0
C843 C 0.01693 0.94961 0.81751 0.0
C844 C 0.99592 0.91632 0.89205 0.0
C845 C 0.00642 0.95357 0.87336 0.0
C846 C 0.95803 0.90566 0.94864 0.0
C847 C 0.96999 0.86295 0.94987 0.0
N848 N 0.99559 0.93709 0.90795 0.0
N849 N 0.98506 0.87877 0.9247 0.0
H850 H 0.6303 0.10322 0.98515 0.0
H851 H 0.56472 0.00528 0.86532 0.0
H852 H 0.66627 0.04941 0.91563 0.0
H853 H 0.54664 0.06734 0.78969 0.0
H854 H 0.59734 0.02262 0.91075 0.0
H855 H 0.59557 0.09226 0.93274 0.0
C856 C 0.63113 0.08952 0.95773 0.0
C857 C 0.65122 0.0772 0.95491 0.0
C858 C 0.58604 0.03243 0.88465 0.0
C859 C 0.61176 0.06445 0.89716 0.0
C860 C 0.5673 0.02262 0.85907 0.0
C861 C 0.55307 0.03485 0.82299 0.0
C862 C 0.59045 0.05468 0.87508 0.0
C863 C 0.55733 0.05732 0.81685 0.0
C864 C 0.61138 0.08332 0.92812 0.0
C865 C 0.65138 0.05958 0.91879 0.0
N866 N 0.57581 0.06661 0.8426 0.0
N867 N 0.63178 0.05348 0.89248 0.0
H868 H 0.48558 0.63794 0.98324 0.0
H869 H 0.50926 0.51594 0.91726 0.0
H870 H 0.54638 0.60337 0.03085 0.0
H871 H 0.46484 0.5547 0.81095 0.0
H872 H 0.51357 0.5454 0.98279 0.0
H873 H 0.47058 0.6057 0.93784 0.0
C874 C 0.4958 0.62367 0.98411 0.0
C875 C 0.51729 0.62341 0.01113 0.0
C876 C 0.5025 0.54733 0.94579 0.0
C877 C 0.49981 0.58646 0.96135 0.0
C878 C 0.49986 0.53047 0.90874 0.0
C879 C 0.48703 0.5331 0.85816 0.0
C880 C 0.49242 0.56702 0.93182 0.0
C881 C 0.47501 0.55213 0.84941 0.0
C882 C 0.48708 0.60526 0.95883 0.0
C883 C 0.52953 0.6043 0.01178 0.0
N884 N 0.4784 0.56866 0.88527 0.0
N885 N 0.5206 0.58665 0.98741 0.0
H886 H 0.85796 0.40052 0.90159 0.0
H887 H 0.99371 0.42072 0.81228 0.0
H888 H 0.90834 0.36832 0.00634 0.0
H889 H 0.94192 0.46931 0.81281 0.0
H890 H 0.96347 0.39429 0.85779 0.0
H891 H 0.88987 0.41673 0.83631 0.0
C892 C 0.87563 0.3961 0.90983 0.0
C893 C 0.8804 0.38336 0.96072 0.0
C894 C 0.95893 0.41076 0.84759 0.0
C895 C 0.91708 0.40253 0.88644 0.0
C896 C 0.97606 0.4258 0.82208 0.0
C897 C 0.9703 0.44725 0.80965 0.0
C898 C 0.93591 0.41722 0.85839 0.0
C899 C 0.94721 0.45304 0.82256 0.0
C900 C 0.89388 0.40568 0.8728 0.0
C901 C 0.90389 0.37853 0.96862 0.0
N902 N 0.93085 0.43808 0.84576 0.0
N903 N 0.9215 0.38852 0.93255 0.0
H904 H 0.0669 0.15592 0.0785 0.0
H905 H 0.04952 0.11227 0.7615 0.0
H906 H 0.10132 0.19069 0.92449 0.0
H907 H 0.05827 0.07112 0.91816 0.0
H908 H 0.06109 0.14374 0.81634 0.0
H909 H 0.05428 0.12767 0.01579 0.0
C910 C 0.07146 0.15773 0.03107 0.0
C911 C 0.08539 0.17549 0.00658 0.0
C912 C 0.06061 0.12778 0.83826 0.0
C913 C 0.07101 0.14314 0.93458 0.0
C914 C 0.054 0.10989 0.80727 0.0
C915 C 0.05302 0.08911 0.8355 0.0
C916 C 0.06557 0.1248 0.89816 0.0
C917 C 0.05899 0.08682 0.89468 0.0
C918 C 0.06441 0.14155 0.99549 0.0
C919 C 0.09062 0.1772 0.94486 0.0
N920 N 0.06473 0.10446 0.92423 0.0
N921 N 0.0835 0.16106 0.91067 0.0
H922 H 0.33954 0.04752 0.93162 0.0
H923 H 0.44652 0.97365 0.85087 0.0
H924 H 0.34237 0.98147 0.99743 0.0
H925 H 0.43826 0.03605 0.76307 0.0
H926 H 0.40746 0.97552 0.90063 0.0
H927 H 0.37344 0.0426 0.86252 0.0
C928 C 0.34669 0.0317 0.9296 0.0
C929 C 0.33783 0.01477 0.96962 0.0
C930 C 0.4141 0.98877 0.87026 0.0
C931 C 0.37756 0.00928 0.89282 0.0
C932 C 0.43654 0.98779 0.84205 0.0
C933 C 0.44591 0.0048 0.80292 0.0
C934 C 0.40082 0.00699 0.85987 0.0
C935 C 0.43191 0.02258 0.79303 0.0
C936 C 0.36631 0.02897 0.89084 0.0
C937 C 0.3483 0.9948 0.9665 0.0
N938 N 0.41023 0.02327 0.82154 0.0
N939 N 0.36781 0.99271 0.92968 0.0
H940 H 0.40711 0.35158 0.93985 0.0
H941 H 0.51457 0.4258 0.79874 0.0
H942 H 0.47925 0.33453 0.94489 0.0
H943 H 0.44257 0.44067 0.77511 0.0
H944 H 0.50155 0.39026 0.84152 0.0
H945 H 0.41897 0.38107 0.86632 0.0
C946 C 0.42536 0.35356 0.92371 0.0
C947 C 0.44226 0.34069 0.94883 0.0
C948 C 0.48854 0.40116 0.82662 0.0
C949 C 0.45608 0.37484 0.86622 0.0
C950 C 0.49596 0.42159 0.80246 0.0
C951 C 0.47961 0.43644 0.78398 0.0
C952 C 0.4645 0.39542 0.83325 0.0
C953 C 0.45577 0.42984 0.78922 0.0
C954 C 0.43216 0.37055 0.88223 0.0
C955 C 0.46564 0.344 0.92659 0.0
N956 N 0.44891 0.40992 0.81404 0.0
N957 N 0.47193 0.36103 0.88757 0.0
H958 H 0.13088 0.51755 0.08108 0.0
H959 H 0.09568 0.48407 0.76077 0.0
H960 H 0.18101 0.52277 0.92956 0.0
H961 H 0.04742 0.50641 0.89606 0.0
H962 H 0.12792 0.4897 0.82637 0.0
H963 H 0.10119 0.5039 0.01835 0.0
C964 C 0.1357 0.51555 0.03457 0.0
C965 C 0.15831 0.52168 0.01016 0.0
C966 C 0.11022 0.49316 0.84165 0.0
C967 C 0.12429 0.50605 0.93795 0.0
C968 C 0.09183 0.48987 0.80451 0.0
C969 C 0.06886 0.49487 0.82301 0.0
C970 C 0.10544 0.50104 0.89799 0.0
C971 C 0.06486 0.50248 0.87986 0.0
C972 C 0.11872 0.50781 0.9988 0.0
C973 C 0.16374 0.51832 0.94995 0.0
N974 N 0.08292 0.50528 0.91526 0.0
N975 N 0.14672 0.51095 0.91552 0.0
H976 H 0.88045 0.8138 0.46111 0.0
H977 H 0.9895 0.8897 0.51393 0.0
H978 H 0.95178 0.79557 0.42914 0.0
H979 H 0.92123 0.89882 0.59962 0.0
H980 H 0.97567 0.85457 0.48579 0.0
H981 H 0.89432 0.84336 0.51884 0.0
C982 C 0.89894 0.8155 0.46846 0.0
C983 C 0.91501 0.80223 0.44048 0.0
C984 C 0.96375 0.86414 0.51127 0.0
C985 C 0.9311 0.83651 0.504 0.0
C986 C 0.97165 0.8843 0.52753 0.0
C987 C 0.9566 0.89743 0.55961 0.0
C988 C 0.94044 0.85699 0.52606 0.0
C989 C 0.93343 0.88954 0.57417 0.0
C990 C 0.90689 0.83252 0.50075 0.0
C991 C 0.93882 0.80531 0.45042 0.0
N992 N 0.92603 0.86993 0.55691 0.0
N993 N 0.9462 0.82243 0.4802 0.0
H994 H 0.67412 0.96792 0.40235 0.0
H995 H 0.58294 0.02948 0.60298 0.0
H996 H 0.6839 0.03395 0.44624 0.0
H997 H 0.58254 0.96008 0.61523 0.0
H998 H 0.61999 0.03043 0.54386 0.0
H999 H 0.64161 0.9632 0.47998 0.0
C1000 C 0.66993 0.98119 0.42957 0.0
C1001 C 0.68172 0.00137 0.41781 0.0
C1002 C 0.61201 0.01492 0.55964 0.0
C1003 C 0.64424 0.99632 0.50511 0.0
C1004 C 0.59069 0.01436 0.5933 0.0
C1005 C 0.57946 0.99466 0.61402 0.0
C1006 C 0.6223 0.99563 0.54513 0.0
C1007 C 0.59059 0.97563 0.60024 0.0
C1008 C 0.65125 0.97856 0.47344 0.0
C1009 C 0.67526 0.01814 0.45366 0.0
N1010 N 0.61126 0.97656 0.56596 0.0
N1011 N 0.65686 0.01533 0.49483 0.0
H1012 H 0.53452 0.66191 0.47929 0.0
H1013 H 0.57208 0.55444 0.65431 0.0
H1014 H 0.60594 0.64249 0.48195 0.0
H1015 H 0.50089 0.56938 0.62073 0.0
H1016 H 0.58528 0.59016 0.61002 0.0
H1017 H 0.52271 0.63263 0.55341 0.0
C1018 C 0.54787 0.65203 0.4973 0.0
C1019 C 0.5712 0.65452 0.47407 0.0
C1020 C 0.56676 0.58565 0.61287 0.0
C1021 C 0.55773 0.62047 0.55731 0.0
C1022 C 0.55922 0.56524 0.63798 0.0
C1023 C 0.53538 0.55874 0.64049 0.0
C1024 C 0.55031 0.59973 0.59061 0.0
C1025 C 0.51949 0.57351 0.61902 0.0
C1026 C 0.54107 0.63506 0.53889 0.0
C1027 C 0.58772 0.641 0.49841 0.0
N1028 N 0.52724 0.5932 0.59484 0.0
N1029 N 0.58062 0.62432 0.53787 0.0
H1030 H 0.86228 0.43068 0.48093 0.0
H1031 H 0.94315 0.52386 0.59932 0.0
H1032 H 0.8676 0.49302 0.3865 0.0
H1033 H 0.96067 0.45716 0.59472 0.0
H1034 H 0.9082 0.51569 0.54391 0.0
H1035 H 0.88967 0.44368 0.55094 0.0
C1036 C 0.8687 0.44734 0.47613 0.0
C1037 C 0.86291 0.46076 0.4277 0.0
C1038 C 0.91979 0.50297 0.55535 0.0
C1039 C 0.89451 0.47562 0.50695 0.0
C1040 C 0.93965 0.50758 0.58671 0.0
C1041 C 0.95494 0.4912 0.601 0.0
C1042 C 0.91495 0.48174 0.54034 0.0
C1043 C 0.94958 0.47035 0.58399 0.0
C1044 C 0.88445 0.45468 0.51569 0.0
C1045 C 0.87167 0.48222 0.42342 0.0
N1046 N 0.93 0.46622 0.55509 0.0
N1047 N 0.88742 0.48898 0.46212 0.0
loop_
_geom_bond_atom_site_label_1
_geom_bond_atom_site_label_2
_geom_bond_distance
_geom_bond_site_symmetry_2
_ccdc_geom_bond_type
C0 C1 1.391 . S
C0 C4 1.391 . S
C0 H42 0.948 . S
C1 C0 1.391 . S
C1 C2 1.391 . S
C2 C1 1.391 . S
C2 H58 0.947 . S
C2 C59 1.392 . S
C3 C4 1.391 . S
C3 C7 1.397 . S
C3 C59 1.419 . S
C4 C0 1.391 . S
C4 C3 1.391 . S
C4 C5 1.399 . S
C5 C4 1.399 . S
C5 C8 1.396 . S
C5 C17 1.453 . S
C5 C18 1.684 . S
H6 C30 0.948 . S
C7 C3 1.397 . S
C7 C8 1.394 . S
C7 C26 1.723 . S
C8 C5 1.396 . S
C8 C7 1.394 . S
C8 C38 1.723 . S
H9 C32 0.947 . S
H10 C33 0.948 . S
H11 C39 0.982 1_554 S
H12 C40 0.979 1_554 S
H13 C40 0.980 . S
H14 C40 0.983 . S
H15 C39 0.979 . S
H16 C39 0.977 . S
C17 C5 1.453 . S
C17 H46 0.982 . S
C17 H47 0.979 . S
C17 H48 0.977 . S
C18 C5 1.684 . S
C18 H43 0.979 . S
C18 H44 0.980 . S
C18 H45 0.983 . S
C19 C20 1.391 1_554 S
C19 C24 1.391 . S
C19 H49 0.948 . S
C20 C19 1.391 1_556 S
C20 C21 1.391 . S
C21 C20 1.391 . S
C21 C22 1.392 . S
C21 H50 0.947 . S
C22 C21 1.392 . S
C22 C23 1.419 1_556 S
C22 H51 0.948 . S
C23 C22 1.419 1_554 S
C23 C24 1.391 . S
C23 C27 1.397 . S
C24 C19 1.391 . S
C24 C23 1.391 . S
C24 C25 1.399 . S
C25 C24 1.399 . S
C25 C26 1.396 . S
C25 C28 1.453 . S
C25 C29 1.684 . S
C26 C7 1.723 . S
C26 C25 1.396 . S
C26 C27 1.394 . S
C27 C23 1.397 . S
C27 C26 1.394 . S
C27 C37 1.723 . S
C28 C25 1.453 . S
C28 H52 0.982 . S
C28 H53 0.979 . S
C28 H54 0.977 . S
C29 C25 1.684 . S
C29 H55 0.979 . S
C29 H56 0.980 . S
C29 H57 0.983 . S
C30 H6 0.948 . S
C30 C31 1.391 . S
C30 C35 1.391 . S
C31 C30 1.391 . S
C31 C32 1.391 . S
C32 H9 0.947 . S
C32 C31 1.391 . S
C32 C33 1.392 . S
C33 H10 0.948 . S
C33 C32 1.392 . S
C33 C34 1.419 . S
C34 C33 1.419 . S
C34 C35 1.391 . S
C34 C38 1.397 . S
C35 C30 1.391 . S
C35 C34 1.391 . S
C35 C36 1.399 . S
C36 C35 1.399 . S
C36 C37 1.396 . S
C36 C39 1.453 1_554 S
C36 C40 1.684 1_554 S
C37 C27 1.723 . S
C37 C36 1.396 . S
C37 C38 1.394 . S
C38 C8 1.723 . S
C38 C34 1.397 . S
C38 C37 1.394 . S
C39 H11 0.982 1_556 S
C39 H15 0.979 . S
C39 H16 0.977 . S
C39 C36 1.453 1_556 S
C40 H12 0.979 1_556 S
C40 H13 0.980 . S
C40 H14 0.983 . S
C40 C36 1.684 1_556 S
H41 C59 0.948 . S
H42 C0 0.948 . S
H43 C18 0.979 . S
H44 C18 0.980 . S
H45 C18 0.983 . S
H46 C17 0.982 . S
H47 C17 0.979 . S
H48 C17 0.977 . S
H49 C19 0.948 . S
H50 C21 0.947 . S
H51 C22 0.948 . S
H52 C28 0.982 . S
H53 C28 0.979 . S
H54 C28 0.977 . S
H55 C29 0.979 . S
H56 C29 0.980 . S
H57 C29 0.983 . S
H58 C2 0.947 . S
C59 C2 1.392 . S
C59 C3 1.419 . S
C59 H41 0.948 . S
C60 C61 1.391 . S
C60 C64 1.391 . S
C60 H102 0.948 . S
C61 C60 1.391 . S
C61 C62 1.391 . S
C62 C61 1.391 . S
C62 H118 0.947 . S
C62 C119 1.392 . S
C63 C64 1.391 . S
C63 C67 1.397 . S
C63 C119 1.419 . S
C64 C60 1.391 . S
C64 C63 1.391 . S
C64 C65 1.399 . S
C65 C64 1.399 . S
C65 C68 1.396 . S
C65 C77 1.453 . S
C65 C78 1.684 . S
H66 C90 0.948 1_554 S
C67 C63 1.397 . S
C67 C68 1.394 . S
C67 C86 1.723 1_556 S
C68 C65 1.396 . S
C68 C67 1.394 . S
C68 C98 1.723 . S
H69 C92 0.947 . S
H70 C93 0.948 . S
H71 C99 0.982 . S
H72 C100 0.979 . S
H73 C100 0.980 . S
H74 C100 0.983 . S
H75 C99 0.979 . S
H76 C99 0.977 . S
C77 C65 1.453 . S
C77 H106 0.982 . S
C77 H107 0.979 . S
C77 H108 0.977 . S
C78 C65 1.684 . S
C78 H103 0.979 . S
C78 H104 0.980 . S
C78 H105 0.983 . S
C79 C80 1.391 . S
C79 C84 1.391 . S
C79 H109 0.948 . S
C80 C79 1.391 . S
C80 C81 1.391 . S
C81 C80 1.391 . S
C81 C82 1.392 . S
C81 H110 0.947 . S
C82 C81 1.392 . S
C82 C83 1.419 . S
C82 H111 0.948 . S
C83 C82 1.419 . S
C83 C84 1.391 . S
C83 C87 1.397 . S
C84 C79 1.391 . S
C84 C83 1.391 . S
C84 C85 1.399 . S
C85 C84 1.399 . S
C85 C86 1.396 . S
C85 C88 1.453 . S
C85 C89 1.684 . S
C86 C67 1.723 1_554 S
C86 C85 1.396 . S
C86 C87 1.394 . S
C87 C83 1.397 . S
C87 C86 1.394 . S
C87 C97 1.723 . S
C88 C85 1.453 . S
C88 H112 0.982 . S
C88 H113 0.979 . S
C88 H114 0.977 . S
C89 C85 1.684 . S
C89 H115 0.979 . S
C89 H116 0.980 . S
C89 H117 0.983 . S
C90 H66 0.948 1_556 S
C90 C91 1.391 . S
C90 C95 1.391 1_556 S
C91 C90 1.391 . S
C91 C92 1.391 . S
C92 H69 0.947 . S
C92 C91 1.391 . S
C92 C93 1.392 . S
C93 H70 0.948 . S
C93 C92 1.392 . S
C93 C94 1.419 . S
C94 C93 1.419 . S
C94 C95 1.391 1_556 S
C94 C98 1.397 . S
C95 C90 1.391 1_554 S
C95 C94 1.391 1_554 S
C95 C96 1.399 . S
C96 C95 1.399 . S
C96 C97 1.396 . S
C96 C99 1.453 . S
C96 C100 1.684 . S
C97 C87 1.723 . S
C97 C96 1.396 . S
C97 C98 1.394 1_554 S
C98 C68 1.723 . S
C98 C94 1.397 . S
C98 C97 1.394 1_556 S
C99 H71 0.982 . S
C99 H75 0.979 . S
C99 H76 0.977 . S
C99 C96 1.453 . S
C100 H72 0.979 . S
C100 H73 0.980 . S
C100 H74 0.983 . S
C100 C96 1.684 . S
H101 C119 0.948 . S
H102 C60 0.948 . S
H103 C78 0.979 . S
H104 C78 0.980 . S
H105 C78 0.983 . S
H106 C77 0.982 . S
H107 C77 0.979 . S
H108 C77 0.977 . S
H109 C79 0.948 . S
H110 C81 0.947 . S
H111 C82 0.948 . S
H112 C88 0.982 . S
H113 C88 0.979 . S
H114 C88 0.977 . S
H115 C89 0.979 . S
H116 C89 0.980 . S
H117 C89 0.983 . S
H118 C62 0.947 . S
C119 C62 1.392 . S
C119 C63 1.419 . S
C119 H101 0.948 . S
C120 C121 1.391 . S
C120 C124 1.391 . S
C120 H162 0.948 . S
C121 C120 1.391 . S
C121 C122 1.391 1_554 S
C122 C121 1.391 1_556 S
C122 H178 0.947 . S
C122 C179 1.392 . S
C123 C124 1.391 . S
C123 C127 1.397 1_565 S
C123 C179 1.419 1_554 S
C124 C120 1.391 . S
C124 C123 1.391 . S
C124 C125 1.399 . S
C125 C124 1.399 . S
C125 C128 1.396 1_565 S
C125 C137 1.453 1_565 S
C125 C138 1.684 . S
H126 C150 0.948 . S
C127 C123 1.397 1_545 S
C127 C128 1.394 . S
C127 C146 1.723 . S
C128 C125 1.396 1_545 S
C128 C127 1.394 . S
C128 C158 1.723 . S
H129 C152 0.947 . S
H130 C153 0.948 . S
H131 C159 0.982 . S
H132 C160 0.979 . S
H133 C160 0.980 . S
H134 C160 0.983 . S
H135 C159 0.979 . S
H136 C159 0.977 . S
C137 C125 1.453 1_545 S
C137 H166 0.982 . S
C137 H167 0.979 . S
C137 H168 0.977 . S
C138 C125 1.684 . S
C138 H163 0.979 . S
C138 H164 0.980 . S
C138 H165 0.983 . S
C139 C140 1.391 . S
C139 C144 1.391 . S
C139 H169 0.948 . S
C140 C139 1.391 . S
C140 C141 1.391 . S
C141 C140 1.391 . S
C141 C142 1.392 1_556 S
C141 H170 0.947 . S
C142 C141 1.392 1_554 S
C142 C143 1.419 . S
C142 H171 0.948 . S
C143 C142 1.419 . S
C143 C144 1.391 1_554 S
C143 C147 1.397 1_565 S
C144 C139 1.391 . S
C144 C143 1.391 1_556 S
C144 C145 1.399 . S
C145 C144 1.399 . S
C145 C146 1.396 1_566 S
C145 C148 1.453 1_565 S
C145 C149 1.684 . S
C146 C127 1.723 . S
C146 C145 1.396 1_544 S
C146 C147 1.394 . S
C147 C143 1.397 1_545 S
C147 C146 1.394 . S
C147 C157 1.722 . S
C148 C145 1.453 1_545 S
C148 H172 0.982 . S
C148 H173 0.979 . S
C148 H174 0.977 . S
C149 C145 1.684 . S
C149 H175 0.979 . S
C149 H176 0.980 . S
C149 H177 0.983 . S
C150 H126 0.948 . S
C150 C151 1.391 . S
C150 C155 1.391 . S
C151 C150 1.391 . S
C151 C152 1.391 . S
C152 H129 0.947 . S
C152 C151 1.391 . S
C152 C153 1.392 . S
C153 H130 0.948 . S
C153 C152 1.392 . S
C153 C154 1.419 . S
C154 C153 1.419 . S
C154 C155 1.391 . S
C154 C158 1.397 1_565 S
C155 C150 1.391 . S
C155 C154 1.391 . S
C155 C156 1.399 . S
C156 C155 1.399 . S
C156 C157 1.396 1_565 S
C156 C159 1.453 1_565 S
C156 C160 1.684 . S
C157 C147 1.722 . S
C157 C156 1.396 1_545 S
C157 C158 1.394 . S
C158 C128 1.723 . S
C158 C154 1.397 1_545 S
C158 C157 1.394 . S
C159 H131 0.982 . S
C159 H135 0.979 . S
C159 H136 0.977 . S
C159 C156 1.453 1_545 S
C160 H132 0.979 . S
C160 H133 0.980 . S
C160 H134 0.983 . S
C160 C156 1.684 . S
H161 C179 0.948 . S
H162 C120 0.948 . S
H163 C138 0.979 . S
H164 C138 0.980 . S
H165 C138 0.983 . S
H166 C137 0.982 . S
H167 C137 0.979 . S
H168 C137 0.977 . S
H169 C139 0.948 . S
H170 C141 0.947 . S
H171 C142 0.948 . S
H172 C148 0.982 . S
H173 C148 0.979 . S
H174 C148 0.977 . S
H175 C149 0.979 . S
H176 C149 0.980 . S
H177 C149 0.983 . S
H178 C122 0.947 . S
C179 C122 1.392 . S
C179 C123 1.419 1_556 S
C179 H161 0.948 . S
C180 C181 1.391 . S
C180 C184 1.391 . S
C180 H222 0.948 . S
C181 C180 1.391 . S
C181 C182 1.391 . S
C182 C181 1.391 . S
C182 H238 0.947 . S
C182 C239 1.392 . S
C183 C184 1.391 . S
C183 C187 1.397 . S
C183 C239 1.419 . S
C184 C180 1.391 . S
C184 C183 1.391 . S
C184 C185 1.399 . S
C185 C184 1.399 . S
C185 C188 1.396 . S
C185 C197 1.453 . S
C185 C198 1.684 . S
H186 C210 0.948 1_556 S
C187 C183 1.397 . S
C187 C188 1.394 . S
C187 C206 1.723 . S
C188 C185 1.396 . S
C188 C187 1.394 . S
C188 C218 1.723 . S
H189 C212 0.947 . S
H190 C213 0.948 . S
H191 C219 0.982 . S
H192 C220 0.979 . S
H193 C220 0.980 . S
H194 C220 0.983 . S
H195 C219 0.979 . S
H196 C219 0.977 . S
C197 C185 1.453 . S
C197 H226 0.982 . S
C197 H227 0.979 . S
C197 H228 0.977 . S
C198 C185 1.684 . S
C198 H223 0.979 . S
C198 H224 0.980 . S
C198 H225 0.983 . S
C199 C200 1.391 . S
C199 C204 1.391 1_556 S
C199 H229 0.948 . S
C200 C199 1.391 . S
C200 C201 1.391 . S
C201 C200 1.391 . S
C201 C202 1.392 . S
C201 H230 0.947 . S
C202 C201 1.392 . S
C202 C203 1.419 . S
C202 H231 0.948 . S
C203 C202 1.419 . S
C203 C204 1.391 1_556 S
C203 C207 1.397 1_556 S
C204 C199 1.391 1_554 S
C204 C203 1.391 1_554 S
C204 C205 1.399 . S
C205 C204 1.399 . S
C205 C206 1.396 . S
C205 C208 1.453 . S
C205 C209 1.684 . S
C206 C187 1.723 . S
C206 C205 1.396 . S
C206 C207 1.394 . S
C207 C203 1.397 1_554 S
C207 C206 1.394 . S
C207 C217 1.723 . S
C208 C205 1.453 . S
C208 H232 0.982 . S
C208 H233 0.979 . S
C208 H234 0.977 . S
C209 C205 1.684 . S
C209 H235 0.979 . S
C209 H236 0.980 . S
C209 H237 0.983 . S
C210 H186 0.948 1_554 S
C210 C211 1.391 . S
C210 C215 1.391 . S
C211 C210 1.391 . S
C211 C212 1.391 . S
C212 H189 0.947 . S
C212 C211 1.391 . S
C212 C213 1.392 . S
C213 H190 0.948 . S
C213 C212 1.392 . S
C213 C214 1.419 . S
C214 C213 1.419 . S
C214 C215 1.391 . S
C214 C218 1.397 . S
C215 C210 1.391 . S
C215 C214 1.391 . S
C215 C216 1.399 1_554 S
C216 C215 1.399 1_556 S
C216 C217 1.396 1_556 S
C216 C219 1.453 . S
C216 C220 1.684 . S
C217 C207 1.723 . S
C217 C216 1.396 1_554 S
C217 C218 1.394 . S
C218 C188 1.723 . S
C218 C214 1.397 . S
C218 C217 1.394 . S
C219 H191 0.982 . S
C219 H195 0.979 . S
C219 H196 0.977 . S
C219 C216 1.453 . S
C220 H192 0.979 . S
C220 H193 0.980 . S
C220 H194 0.983 . S
C220 C216 1.684 . S
H221 C239 0.948 . S
H222 C180 0.948 . S
H223 C198 0.979 . S
H224 C198 0.980 . S
H225 C198 0.983 . S
H226 C197 0.982 . S
H227 C197 0.979 . S
H228 C197 0.977 . S
H229 C199 0.948 . S
H230 C201 0.947 . S
H231 C202 0.948 . S
H232 C208 0.982 . S
H233 C208 0.979 . S
H234 C208 0.977 . S
H235 C209 0.979 . S
H236 C209 0.980 . S
H237 C209 0.983 . S
H238 C182 0.947 . S
C239 C182 1.392 . S
C239 C183 1.419 . S
C239 H221 0.948 . S
C240 C241 1.391 . S
C240 C244 1.391 . S
C240 H282 0.948 . S
C241 C240 1.391 . S
C241 C242 1.391 . S
C242 C241 1.391 . S
C242 H298 0.947 . S
C242 C299 1.392 . S
C243 C244 1.391 . S
C243 C247 1.397 . S
C243 C299 1.419 . S
C244 C240 1.391 . S
C244 C243 1.391 . S
C244 C245 1.399 . S
C245 C244 1.399 . S
C245 C248 1.396 . S
C245 C257 1.453 . S
C245 C258 1.684 . S
H246 C270 0.948 . S
C247 C243 1.397 . S
C247 C248 1.394 . S
C247 C266 1.723 . S
C248 C245 1.396 . S
C248 C247 1.394 . S
C248 C278 1.723 . S
H249 C272 0.932 1_556 S
H250 C273 0.948 . S
H251 C279 0.982 . S
H252 C280 0.979 . S
H253 C280 0.980 . S
H254 C280 0.983 . S
H255 C279 0.979 . S
H256 C279 0.977 . S
C257 C245 1.453 . S
C257 H286 0.982 . S
C257 H287 0.979 . S
C257 H288 0.977 . S
C258 C245 1.684 . S
C258 H283 0.979 . S
C258 H284 0.980 . S
C258 H285 0.983 . S
C259 C260 1.391 . S
C259 C264 1.391 . S
C259 H289 0.948 . S
C260 C259 1.391 . S
C260 C261 1.391 . S
C261 C260 1.391 . S
C261 C262 1.392 . S
C261 H290 0.947 . S
C262 C261 1.392 . S
C262 C263 1.419 . S
C262 H291 0.948 . S
C263 C262 1.419 . S
C263 C264 1.391 . S
C263 C267 1.397 . S
C264 C259 1.391 . S
C264 C263 1.391 . S
C264 C265 1.399 . S
C265 C264 1.399 . S
C265 C266 1.396 . S
C265 C268 1.453 . S
C265 C269 1.684 . S
C266 C247 1.723 . S
C266 C265 1.396 . S
C266 C267 1.394 . S
C267 C263 1.397 . S
C267 C266 1.394 . S
C267 C277 1.723 . S
C268 C265 1.453 . S
C268 H292 0.982 . S
C268 H293 0.979 . S
C268 H294 0.977 . S
C269 C265 1.684 . S
C269 H295 0.979 . S
C269 H296 0.980 . S
C269 H297 0.983 . S
C270 H246 0.948 . S
C270 C271 1.391 . S
C270 C275 1.391 . S
C271 C270 1.391 . S
C271 C272 1.391 . S
C272 H249 0.932 1_554 S
C272 C271 1.391 . S
C272 C273 1.392 . S
C273 H250 0.948 . S
C273 C272 1.392 . S
C273 C274 1.419 . S
C274 C273 1.419 . S
C274 C275 1.391 . S
C274 C278 1.397 . S
C275 C270 1.391 . S
C275 C274 1.391 . S
C275 C276 1.399 . S
C276 C275 1.399 . S
C276 C277 1.396 . S
C276 C279 1.453 . S
C276 C280 1.684 . S
C277 C267 1.723 . S
C277 C276 1.396 . S
C277 C278 1.394 . S
C278 C248 1.723 . S
C278 C274 1.397 . S
C278 C277 1.394 . S
C279 H251 0.982 . S
C279 H255 0.979 . S
C279 H256 0.977 . S
C279 C276 1.453 . S
C280 H252 0.979 . S
C280 H253 0.980 . S
C280 H254 0.983 . S
C280 C276 1.684 . S
H281 C299 0.948 . S
H282 C240 0.948 . S
H283 C258 0.979 . S
H284 C258 0.980 . S
H285 C258 0.983 . S
H286 C257 0.982 . S
H287 C257 0.979 . S
H288 C257 0.977 . S
H289 C259 0.948 . S
H290 C261 0.947 . S
H291 C262 0.948 . S
H292 C268 0.982 . S
H293 C268 0.979 . S
H294 C268 0.977 . S
H295 C269 0.979 . S
H296 C269 0.980 . S
H297 C269 0.983 . S
H298 C242 0.947 . S
C299 C242 1.392 . S
C299 C243 1.419 . S
C299 H281 0.948 . S
C300 C301 1.391 . S
C300 C304 1.391 . S
C300 H342 0.948 . S
C301 C300 1.391 . S
C301 C302 1.391 . S
C302 C301 1.391 . S
C302 H358 0.947 . S
C302 C359 1.392 . S
C303 C304 1.391 . S
C303 C307 1.397 . S
C303 C359 1.419 . S
C304 C300 1.391 . S
C304 C303 1.391 . S
C304 C305 1.399 . S
C305 C304 1.399 . S
C305 C308 1.396 . S
C305 C317 1.453 . S
C305 C318 1.684 . S
H306 C330 0.948 . S
C307 C303 1.397 . S
C307 C308 1.394 . S
C307 C326 1.723 . S
C308 C305 1.396 . S
C308 C307 1.394 . S
C308 C338 1.723 . S
H309 C332 0.947 . S
H310 C333 0.948 . S
H311 C339 0.982 . S
H312 C340 0.979 . S
H313 C340 0.980 . S
H314 C340 0.983 . S
H315 C339 0.979 . S
H316 C339 0.977 . S
C317 C305 1.453 . S
C317 H346 0.982 . S
C317 H347 0.979 . S
C317 H348 0.977 . S
C318 C305 1.684 . S
C318 H343 0.979 . S
C318 H344 0.980 . S
C318 H345 0.983 . S
C319 C320 1.391 . S
C319 C324 1.391 . S
C319 H349 0.948 . S
C320 C319 1.391 . S
C320 C321 1.391 . S
C321 C320 1.391 . S
C321 C322 1.392 . S
C321 H350 0.947 . S
C322 C321 1.392 . S
C322 C323 1.419 . S
C322 H351 0.948 . S
C323 C322 1.419 . S
C323 C324 1.391 . S
C323 C327 1.397 . S
C324 C319 1.391 . S
C324 C323 1.391 . S
C324 C325 1.399 . S
C325 C324 1.399 . S
C325 C326 1.396 . S
C325 C328 1.453 . S
C325 C329 1.684 . S
C326 C307 1.723 . S
C326 C325 1.396 . S
C326 C327 1.394 . S
C327 C323 1.397 . S
C327 C326 1.394 . S
C327 C337 1.723 . S
C328 C325 1.453 . S
C328 H352 0.982 . S
C328 H353 0.979 . S
C328 H354 0.977 . S
C329 C325 1.684 . S
C329 H355 0.979 . S
C329 H356 0.980 . S
C329 H357 0.983 . S
C330 H306 0.948 . S
C330 C331 1.391 . S
C330 C335 1.391 . S
C331 C330 1.391 . S
C331 C332 1.391 . S
C332 H309 0.947 . S
C332 C331 1.391 . S
C332 C333 1.392 . S
C333 H310 0.948 . S
C333 C332 1.392 . S
C333 C334 1.419 . S
C334 C333 1.419 . S
C334 C335 1.391 . S
C334 C338 1.397 . S
C335 C330 1.391 . S
C335 C334 1.391 . S
C335 C336 1.399 . S
C336 C335 1.399 . S
C336 C337 1.396 . S
C336 C339 1.453 . S
C336 C340 1.684 . S
C337 C327 1.723 . S
C337 C336 1.396 . S
C337 C338 1.394 . S
C338 C308 1.723 . S
C338 C334 1.397 . S
C338 C337 1.394 . S
C339 H311 0.982 . S
C339 H315 0.979 . S
C339 H316 0.977 . S
C339 C336 1.453 . S
C340 H312 0.979 . S
C340 H313 0.980 . S
C340 H314 0.983 . S
C340 C336 1.684 . S
H341 C359 0.948 . S
H342 C300 0.948 . S
H343 C318 0.979 . S
H344 C318 0.980 . S
H345 C318 0.983 . S
H346 C317 0.982 . S
H347 C317 0.979 . S
H348 C317 0.977 . S
H349 C319 0.948 . S
H350 C321 0.947 . S
H351 C322 0.948 . S
H352 C328 0.982 . S
H353 C328 0.979 . S
H354 C328 0.977 . S
H355 C329 0.979 . S
H356 C329 0.980 . S
H357 C329 0.983 . S
H358 C302 0.947 . S
C359 C302 1.392 . S
C359 C303 1.419 . S
C359 H341 0.948 . S
C360 C361 1.391 . S
C360 C364 1.391 . S
C360 H402 0.948 . S
C361 C360 1.391 . S
C361 C362 1.391 . S
C362 C361 1.391 . S
C362 H418 0.947 . S
C362 C419 1.392 . S
C363 C364 1.391 . S
C363 C367 1.397 1_545 S
C363 C419 1.419 . S
C364 C360 1.391 . S
C364 C363 1.391 . S
C364 C365 1.399 . S
C365 C364 1.399 . S
C365 C368 1.396 1_545 S
C365 C377 1.453 1_545 S
C365 C378 1.684 . S
H366 C390 0.948 . S
C367 C363 1.397 1_565 S
C367 C368 1.394 . S
C367 C386 1.723 . S
C368 C365 1.396 1_565 S
C368 C367 1.394 . S
C368 C398 1.722 . S
H369 C392 0.947 . S
H370 C393 0.948 . S
H371 C399 0.982 . S
H372 C400 0.979 . S
H373 C400 0.980 . S
H374 C400 0.983 . S
H375 C399 0.979 . S
H376 C399 0.977 . S
C377 C365 1.453 1_565 S
C377 H406 0.982 . S
C377 H407 0.979 . S
C377 H408 0.977 . S
C378 C365 1.684 . S
C378 H403 0.979 . S
C378 H404 0.980 . S
C378 H405 0.983 . S
C379 C380 1.391 . S
C379 C384 1.391 . S
C379 H409 0.948 . S
C380 C379 1.391 . S
C380 C381 1.391 . S
C381 C380 1.391 . S
C381 C382 1.392 . S
C381 H410 0.947 . S
C382 C381 1.392 . S
C382 C383 1.419 . S
C382 H411 0.948 . S
C383 C382 1.419 . S
C383 C384 1.391 . S
C383 C387 1.397 1_545 S
C384 C379 1.391 . S
C384 C383 1.391 . S
C384 C385 1.399 . S
C385 C384 1.399 . S
C385 C386 1.396 1_545 S
C385 C388 1.453 1_545 S
C385 C389 1.684 . S
C386 C367 1.723 . S
C386 C385 1.396 1_565 S
C386 C387 1.394 . S
C387 C383 1.397 1_565 S
C387 C386 1.394 . S
C387 C397 1.723 . S
C388 C385 1.453 1_565 S
C388 H412 0.982 . S
C388 H413 0.979 . S
C388 H414 0.977 . S
C389 C385 1.684 . S
C389 H415 0.979 . S
C389 H416 0.980 . S
C389 H417 0.983 . S
C390 H366 0.948 . S
C390 C391 1.391 . S
C390 C395 1.391 . S
C391 C390 1.391 . S
C391 C392 1.391 . S
C392 H369 0.947 . S
C392 C391 1.391 . S
C392 C393 1.392 . S
C393 H370 0.948 . S
C393 C392 1.392 . S
C393 C394 1.419 . S
C394 C393 1.419 . S
C394 C395 1.391 . S
C394 C398 1.397 1_545 S
C395 C390 1.391 . S
C395 C394 1.391 . S
C395 C396 1.399 . S
C396 C395 1.399 . S
C396 C397 1.396 1_545 S
C396 C399 1.453 1_545 S
C396 C400 1.684 . S
C397 C387 1.723 . S
C397 C396 1.396 1_565 S
C397 C398 1.394 . S
C398 C368 1.722 . S
C398 C394 1.397 1_565 S
C398 C397 1.394 . S
C399 H371 0.982 . S
C399 H375 0.979 . S
C399 H376 0.977 . S
C399 C396 1.453 1_565 S
C400 H372 0.979 . S
C400 H373 0.980 . S
C400 H374 0.983 . S
C400 C396 1.684 . S
H401 C419 0.948 . S
H402 C360 0.948 . S
H403 C378 0.979 . S
H404 C378 0.980 . S
H405 C378 0.983 . S
H406 C377 0.982 . S
H407 C377 0.979 . S
H408 C377 0.977 . S
H409 C379 0.948 . S
H410 C381 0.947 . S
H411 C382 0.948 . S
H412 C388 0.982 . S
H413 C388 0.979 . S
H414 C388 0.977 . S
H415 C389 0.979 . S
H416 C389 0.980 . S
H417 C389 0.983 . S
H418 C362 0.947 . S
C419 C362 1.392 . S
C419 C363 1.419 . S
C419 H401 0.948 . S
C420 C421 1.391 . S
C420 C424 1.391 . S
C420 H462 0.948 . S
C421 C420 1.391 . S
C421 C422 1.391 . S
C422 C421 1.391 . S
C422 H478 0.947 . S
C422 C479 1.392 . S
C423 C424 1.391 . S
C423 C427 1.397 . S
C423 C479 1.419 . S
C424 C420 1.391 . S
C424 C423 1.391 . S
C424 C425 1.399 . S
C425 C424 1.399 . S
C425 C428 1.396 . S
C425 C437 1.453 . S
C425 C438 1.684 . S
H426 C450 0.948 . S
C427 C423 1.397 . S
C427 C428 1.394 . S
C427 C446 1.723 . S
C428 C425 1.396 . S
C428 C427 1.394 . S
C428 C458 1.723 . S
H429 C452 0.947 . S
H430 C453 0.948 . S
H431 C459 0.982 . S
H432 C460 0.979 . S
H433 C460 0.980 . S
H434 C460 0.983 . S
H435 C459 0.979 . S
H436 C459 0.977 . S
C437 C425 1.453 . S
C437 H466 0.982 . S
C437 H467 0.979 . S
C437 H468 0.977 . S
C438 C425 1.684 . S
C438 H463 0.979 . S
C438 H464 0.980 . S
C438 H465 0.983 . S
C439 C440 1.391 . S
C439 C444 1.391 . S
C439 H469 0.948 . S
C440 C439 1.391 . S
C440 C441 1.391 . S
C441 C440 1.391 . S
C441 C442 1.392 . S
C441 H470 0.947 . S
C442 C441 1.392 . S
C442 C443 1.419 . S
C442 H471 0.948 . S
C443 C442 1.419 . S
C443 C444 1.391 . S
C443 C447 1.397 . S
C444 C439 1.391 . S
C444 C443 1.391 . S
C444 C445 1.399 . S
C445 C444 1.399 . S
C445 C446 1.396 . S
C445 C448 1.453 . S
C445 C449 1.684 . S
C446 C427 1.723 . S
C446 C445 1.396 . S
C446 C447 1.394 . S
C447 C443 1.397 . S
C447 C446 1.394 . S
C447 C457 1.723 . S
C448 C445 1.453 . S
C448 H472 0.982 . S
C448 H473 0.979 . S
C448 H474 0.977 . S
C449 C445 1.684 . S
C449 H475 0.979 . S
C449 H476 0.980 . S
C449 H477 0.983 . S
C450 H426 0.948 . S
C450 C451 1.391 . S
C450 C455 1.391 . S
C451 C450 1.391 . S
C451 C452 1.391 . S
C452 H429 0.947 . S
C452 C451 1.391 . S
C452 C453 1.392 . S
C453 H430 0.948 . S
C453 C452 1.392 . S
C453 C454 1.419 . S
C454 C453 1.419 . S
C454 C455 1.391 . S
C454 C458 1.397 . S
C455 C450 1.391 . S
C455 C454 1.391 . S
C455 C456 1.399 . S
C456 C455 1.399 . S
C456 C457 1.396 . S
C456 C459 1.453 . S
C456 C460 1.684 . S
C457 C447 1.723 . S
C457 C456 1.396 . S
C457 C458 1.394 . S
C458 C428 1.723 . S
C458 C454 1.397 . S
C458 C457 1.394 . S
C459 H431 0.982 . S
C459 H435 0.979 . S
C459 H436 0.977 . S
C459 C456 1.453 . S
C460 H432 0.979 . S
C460 H433 0.980 . S
C460 H434 0.983 . S
C460 C456 1.684 . S
H461 C479 0.948 . S
H462 C420 0.948 . S
H463 C438 0.979 . S
H464 C438 0.980 . S
H465 C438 0.983 . S
H466 C437 0.982 . S
H467 C437 0.979 . S
H468 C437 0.977 . S
H469 C439 0.948 . S
H470 C441 0.947 . S
H471 C442 0.948 . S
H472 C448 0.982 . S
H473 C448 0.979 . S
H474 C448 0.977 . S
H475 C449 0.979 . S
H476 C449 0.980 . S
H477 C449 0.983 . S
H478 C422 0.947 . S
C479 C422 1.392 . S
C479 C423 1.419 . S
C479 H461 0.948 . S
C480 O496 1.251 . S
C480 O498 1.254 1_655 S
N481 C482 1.333 . S
N481 C486 1.307 . S
N481 Zn487 2.020 . S
C482 N481 1.333 . S
C482 C483 1.379 . S
C482 H500 0.952 . S
C483 C482 1.379 . S
C483 C484 1.390 . S
C483 H510 0.949 . S
C484 C483 1.390 . S
C484 C485 1.357 . S
C485 C484 1.357 . S
C485 C486 1.370 . S
C485 H511 0.950 . S
C486 N481 1.307 . S
C486 C485 1.370 . S
C486 H504 0.954 1_565 S
Zn487 N481 2.020 . S
Zn487 O496 2.039 . S
Zn487 O502 2.034 1_655 S
Zn487 O506 2.022 1_665 S
Zn487 O508 2.034 . S
C488 O507 1.246 . S
C488 O508 1.236 1_545 S
N489 C490 1.307 . S
N489 C491 1.333 . S
N489 Zn495 2.020 . S
C490 N489 1.307 . S
C490 C494 1.370 . S
C490 H501 0.954 . S
C491 N489 1.333 . S
C491 C492 1.379 . S
C491 H499 0.952 . S
C492 C491 1.379 . S
C492 C493 1.390 . S
C492 H512 0.949 . S
C493 C492 1.390 . S
C493 C494 1.357 . S
C494 C490 1.370 . S
C494 C493 1.357 . S
C494 H513 0.950 . S
Zn495 N489 2.020 . S
Zn495 O498 2.025 1_545 S
Zn495 O503 2.038 . S
Zn495 O505 2.039 . S
Zn495 O507 2.034 1_455 S
O496 C480 1.251 . S
O496 Zn487 2.039 . S
C497 O502 1.246 . S
C497 O503 1.230 1_565 S
O498 C480 1.254 1_455 S
O498 Zn495 2.025 1_565 S
H499 C491 0.952 . S
H500 C482 0.952 . S
H501 C490 0.954 . S
O502 Zn487 2.034 1_455 S
O502 C497 1.246 . S
O503 Zn495 2.038 . S
O503 C497 1.230 1_545 S
H504 C486 0.954 1_545 S
O505 Zn495 2.039 . S
O505 C509 1.251 . S
O506 Zn487 2.022 1_445 S
O506 C509 1.266 . S
O507 C488 1.246 . S
O507 Zn495 2.034 1_655 S
O508 Zn487 2.034 . S
O508 C488 1.236 1_565 S
C509 O505 1.251 . S
C509 O506 1.266 . S
H510 C483 0.949 . S
H511 C485 0.950 . S
H512 C492 0.949 . S
H513 C494 0.950 . S
C514 O530 1.251 1_565 S
C514 O532 1.254 . S
N515 C516 1.333 . S
N515 C520 1.307 . S
N515 Zn521 2.020 . S
C516 N515 1.333 . S
C516 C517 1.379 . S
C516 H534 0.952 . S
C517 C516 1.379 . S
C517 C518 1.390 . S
C517 H544 0.949 . S
C518 C517 1.390 . S
C518 C519 1.357 . S
C519 C518 1.357 . S
C519 C520 1.370 . S
C519 H545 0.950 . S
C520 N515 1.307 . S
C520 C519 1.370 . S
C520 H538 0.948 . S
Zn521 N515 2.020 . S
Zn521 O530 2.039 . S
Zn521 O536 2.034 . S
Zn521 O540 2.025 . S
Zn521 O542 2.024 . S
C522 O541 1.246 1_545 S
C522 O542 1.249 . S
N523 C524 1.307 . S
N523 C525 1.333 . S
N523 Zn529 2.020 . S
C524 N523 1.307 . S
C524 C528 1.370 . S
C524 H535 0.948 . S
C525 N523 1.333 . S
C525 C526 1.379 . S
C525 H533 0.952 . S
C526 C525 1.379 . S
C526 C527 1.390 . S
C526 H546 0.949 . S
C527 C526 1.390 . S
C527 C528 1.357 . S
C528 C524 1.370 . S
C528 C527 1.357 . S
C528 H547 0.950 . S
Zn529 N523 2.020 . S
Zn529 O532 2.025 . S
Zn529 O537 2.024 . S
Zn529 O539 2.039 . S
Zn529 O541 2.034 . S
O530 C514 1.251 1_545 S
O530 Zn521 2.039 . S
C531 O536 1.246 1_565 S
C531 O537 1.249 . S
O532 C514 1.254 . S
O532 Zn529 2.025 . S
H533 C525 0.952 . S
H534 C516 0.952 . S
H535 C524 0.948 . S
O536 Zn521 2.034 . S
O536 C531 1.246 1_545 S
O537 Zn529 2.024 . S
O537 C531 1.249 . S
H538 C520 0.948 . S
O539 Zn529 2.039 . S
O539 C543 1.251 1_565 S
O540 Zn521 2.025 . S
O540 C543 1.254 . S
O541 C522 1.246 1_565 S
O541 Zn529 2.034 . S
O542 Zn521 2.024 . S
O542 C522 1.249 . S
C543 O539 1.251 1_545 S
C543 O540 1.254 . S
H544 C517 0.949 . S
H545 C519 0.950 . S
H546 C526 0.949 . S
H547 C528 0.950 . S
C548 O564 1.251 . S
C548 O566 1.254 . S
N549 C550 1.333 . S
N549 C554 1.307 . S
N549 Zn555 2.020 . S
C550 N549 1.333 . S
C550 C551 1.379 . S
C550 H568 0.952 . S
C551 C550 1.379 . S
C551 C552 1.390 . S
C551 H578 0.949 . S
C552 C551 1.390 . S
C552 C553 1.357 . S
C553 C552 1.357 . S
C553 C554 1.370 . S
C553 H579 0.950 . S
C554 N549 1.307 . S
C554 C553 1.370 . S
C554 H572 0.948 . S
Zn555 N549 2.020 . S
Zn555 O564 2.039 . S
Zn555 O570 2.034 . S
Zn555 O574 2.025 . S
Zn555 O576 2.024 . S
C556 O575 1.246 . S
C556 O576 1.249 . S
N557 C558 1.307 . S
N557 C559 1.333 . S
N557 Zn563 2.020 . S
C558 N557 1.307 . S
C558 C562 1.370 . S
C558 H569 0.948 . S
C559 N557 1.333 . S
C559 C560 1.379 . S
C559 H567 0.952 . S
C560 C559 1.379 . S
C560 C561 1.390 . S
C560 H580 0.949 . S
C561 C560 1.390 . S
C561 C562 1.357 . S
C562 C558 1.370 . S
C562 C561 1.357 . S
C562 H581 0.950 . S
Zn563 N557 2.020 . S
Zn563 O566 2.025 . S
Zn563 O571 2.024 . S
Zn563 O573 2.039 . S
Zn563 O575 2.034 . S
O564 C548 1.251 . S
O564 Zn555 2.039 . S
C565 O570 1.246 . S
C565 O571 1.249 . S
O566 C548 1.254 . S
O566 Zn563 2.025 . S
H567 C559 0.952 . S
H568 C550 0.952 . S
H569 C558 0.948 . S
O570 Zn555 2.034 . S
O570 C565 1.246 . S
O571 Zn563 2.024 . S
O571 C565 1.249 . S
H572 C554 0.948 . S
O573 Zn563 2.039 . S
O573 C577 1.251 . S
O574 Zn555 2.025 . S
O574 C577 1.254 . S
O575 C556 1.246 . S
O575 Zn563 2.034 . S
O576 Zn555 2.024 . S
O576 C556 1.249 . S
C577 O573 1.251 . S
C577 O574 1.254 . S
H578 C551 0.949 . S
H579 C553 0.950 . S
H580 C560 0.949 . S
H581 C562 0.950 . S
C582 O598 1.251 . S
C582 O600 1.254 . S
N583 C584 1.333 . S
N583 C588 1.307 . S
N583 Zn589 2.020 . S
C584 N583 1.333 . S
C584 C585 1.379 . S
C584 H602 0.952 . S
C585 C584 1.379 . S
C585 C586 1.390 . S
C585 H612 0.949 . S
C586 C585 1.390 . S
C586 C587 1.357 . S
C587 C586 1.357 . S
C587 C588 1.370 . S
C587 H613 0.950 . S
C588 N583 1.307 . S
C588 C587 1.370 . S
C588 H606 0.948 . S
Zn589 N583 2.020 . S
Zn589 O598 2.039 . S
Zn589 O604 2.034 1_455 S
Zn589 O608 2.025 1_455 S
Zn589 O610 2.024 . S
C590 O609 1.246 . S
C590 O610 1.249 . S
N591 C592 1.307 . S
N591 C593 1.333 . S
N591 Zn597 2.020 . S
C592 N591 1.307 . S
C592 C596 1.370 . S
C592 H603 0.948 . S
C593 N591 1.333 . S
C593 C594 1.379 . S
C593 H601 0.952 . S
C594 C593 1.379 . S
C594 C595 1.390 . S
C594 H614 0.949 . S
C595 C594 1.390 . S
C595 C596 1.357 . S
C596 C592 1.370 . S
C596 C595 1.357 . S
C596 H615 0.950 . S
Zn597 N591 2.020 . S
Zn597 O600 2.025 1_655 S
Zn597 O605 2.024 . S
Zn597 O607 2.039 . S
Zn597 O609 2.034 1_655 S
O598 C582 1.251 . S
O598 Zn589 2.039 . S
C599 O604 1.246 . S
C599 O605 1.249 . S
O600 C582 1.254 . S
O600 Zn597 2.025 1_455 S
H601 C593 0.952 . S
H602 C584 0.952 . S
H603 C592 0.948 . S
O604 Zn589 2.034 1_655 S
O604 C599 1.246 . S
O605 Zn597 2.024 . S
O605 C599 1.249 . S
H606 C588 0.948 . S
O607 Zn597 2.039 . S
O607 C611 1.251 . S
O608 Zn589 2.025 1_655 S
O608 C611 1.254 . S
O609 C590 1.246 . S
O609 Zn597 2.034 1_455 S
O610 Zn589 2.024 . S
O610 C590 1.249 . S
C611 O607 1.251 . S
C611 O608 1.254 . S
H612 C585 0.949 . S
H613 C587 0.950 . S
H614 C594 0.949 . S
H615 C596 0.950 . S
H616 C622 0.930 . S
H617 C626 0.930 . S
H618 C631 0.929 . S
H619 C629 0.929 . S
H620 C624 0.929 . S
H621 C630 0.929 . S
C622 H616 0.930 . S
C622 C623 1.350 1_545 S
C622 C630 1.378 . S
C623 C622 1.350 1_565 S
C623 C631 1.452 . S
C624 H620 0.929 . S
C624 C626 1.378 . S
C624 C628 1.350 . S
C625 C628 1.463 . S
C625 C630 1.350 1_565 S
C625 N633 1.427 . S
C626 H617 0.930 . S
C626 C624 1.378 . S
C626 C627 1.367 . S
C627 C626 1.367 . S
C627 C629 1.433 1_565 S
C628 C624 1.350 . S
C628 C625 1.463 . S
C628 N632 1.427 1_565 S
C629 H619 0.929 . S
C629 C627 1.433 1_545 S
C629 N632 1.384 . S
C630 H621 0.929 . S
C630 C622 1.378 . S
C630 C625 1.350 1_545 S
C631 H618 0.929 . S
C631 C623 1.452 . S
C631 N633 1.384 . S
N632 C628 1.427 1_545 S
N632 C629 1.384 . S
N633 C625 1.427 . S
N633 C631 1.384 . S
H634 C640 0.930 . S
H635 C644 0.930 . S
H636 C649 0.929 . S
H637 C647 0.929 . S
H638 C642 0.929 . S
H639 C648 0.929 . S
C640 H634 0.930 . S
C640 C641 1.367 . S
C640 C648 1.378 . S
C641 C640 1.367 . S
C641 C649 1.433 . S
C642 H638 0.929 . S
C642 C644 1.378 . S
C642 C646 1.350 . S
C643 C646 1.463 . S
C643 C648 1.350 . S
C643 N651 1.427 . S
C644 H635 0.930 . S
C644 C642 1.378 . S
C644 C645 1.367 . S
C645 C644 1.367 . S
C645 C647 1.433 . S
C646 C642 1.350 . S
C646 C643 1.463 . S
C646 N650 1.427 . S
C647 H637 0.929 . S
C647 C645 1.433 . S
C647 N650 1.384 . S
C648 H639 0.929 . S
C648 C640 1.378 . S
C648 C643 1.350 . S
C649 H636 0.929 . S
C649 C641 1.433 . S
C649 N651 1.384 . S
N650 C646 1.427 . S
N650 C647 1.384 . S
N651 C643 1.427 . S
N651 C649 1.384 . S
H652 C658 0.930 . S
H653 C662 0.930 . S
H654 C667 0.929 . S
H655 C665 0.929 . S
H656 C660 0.929 . S
H657 C666 0.929 . S
C658 H652 0.930 . S
C658 C659 1.367 . S
C658 C666 1.378 . S
C659 C658 1.367 . S
C659 C667 1.433 . S
C660 H656 0.929 . S
C660 C662 1.378 . S
C660 C664 1.350 . S
C661 C664 1.463 . S
C661 C666 1.350 . S
C661 N669 1.427 . S
C662 H653 0.930 . S
C662 C660 1.378 . S
C662 C663 1.367 . S
C663 C662 1.367 . S
C663 C665 1.433 . S
C664 C660 1.350 . S
C664 C661 1.463 . S
C664 N668 1.427 . S
C665 H655 0.929 . S
C665 C663 1.433 . S
C665 N668 1.384 . S
C666 H657 0.929 . S
C666 C658 1.378 . S
C666 C661 1.350 . S
C667 H654 0.929 . S
C667 C659 1.433 . S
C667 N669 1.384 . S
N668 C664 1.427 . S
N668 C665 1.384 . S
N669 C661 1.427 . S
N669 C667 1.384 . S
H670 C676 0.930 . S
H671 C680 0.930 . S
H672 C685 0.929 . S
H673 C683 0.929 . S
H674 C678 0.929 . S
H675 C684 0.929 . S
C676 H670 0.930 . S
C676 C677 1.367 . S
C676 C684 1.378 . S
C677 C676 1.367 . S
C677 C685 1.433 . S
C678 H674 0.929 . S
C678 C680 1.378 . S
C678 C682 1.350 . S
C679 C682 1.463 . S
C679 C684 1.350 . S
C679 N687 1.427 . S
C680 H671 0.930 . S
C680 C678 1.378 . S
C680 C681 1.367 . S
C681 C680 1.367 . S
C681 C683 1.433 . S
C682 C678 1.350 . S
C682 C679 1.463 . S
C682 N686 1.427 . S
C683 H673 0.929 . S
C683 C681 1.433 . S
C683 N686 1.384 . S
C684 H675 0.929 . S
C684 C676 1.378 . S
C684 C679 1.350 . S
C685 H672 0.929 . S
C685 C677 1.433 . S
C685 N687 1.384 . S
N686 C682 1.427 . S
N686 C683 1.384 . S
N687 C679 1.427 . S
N687 C685 1.384 . S
H688 C694 0.930 . S
H689 C698 0.930 . S
H690 C703 0.929 1_554 S
H691 C701 0.929 . S
H692 C696 0.929 . S
H693 C702 0.929 . S
C694 H688 0.930 . S
C694 C695 1.339 1_565 S
C694 C702 1.378 . S
C695 C694 1.339 1_545 S
C695 C703 1.463 . S
C696 H692 0.929 . S
C696 C698 1.378 . S
C696 C700 1.350 . S
C697 C700 1.463 . S
C697 C702 1.350 1_545 S
C697 N705 1.427 . S
C698 H689 0.930 . S
C698 C696 1.378 . S
C698 C699 1.367 . S
C699 C698 1.367 . S
C699 C701 1.433 1_545 S
C700 C696 1.350 . S
C700 C697 1.463 . S
C700 N704 1.427 1_545 S
C701 H691 0.929 . S
C701 C699 1.433 1_565 S
C701 N704 1.384 . S
C702 H693 0.929 . S
C702 C694 1.378 . S
C702 C697 1.350 1_565 S
C703 H690 0.929 1_556 S
C703 C695 1.463 . S
C703 N705 1.384 . S
N704 C700 1.427 1_565 S
N704 C701 1.384 . S
N705 C697 1.427 . S
N705 C703 1.384 . S
H706 C712 0.930 . S
H707 C716 0.930 . S
H708 C721 0.929 . S
H709 C719 0.929 . S
H710 C714 0.929 . S
H711 C720 0.929 . S
C712 H706 0.930 . S
C712 C713 1.367 1_554 S
C712 C720 1.378 1_554 S
C713 C712 1.367 1_556 S
C713 C721 1.433 . S
C714 H710 0.929 . S
C714 C716 1.378 . S
C714 C718 1.350 . S
C715 C718 1.463 . S
C715 C720 1.350 . S
C715 N723 1.427 . S
C716 H707 0.930 . S
C716 C714 1.378 . S
C716 C717 1.367 . S
C717 C716 1.367 . S
C717 C719 1.433 . S
C718 C714 1.350 . S
C718 C715 1.463 . S
C718 N722 1.427 . S
C719 H709 0.929 . S
C719 C717 1.433 . S
C719 N722 1.384 . S
C720 H711 0.929 . S
C720 C712 1.378 1_556 S
C720 C715 1.350 . S
C721 H708 0.929 . S
C721 C713 1.433 . S
C721 N723 1.384 . S
N722 C718 1.427 . S
N722 C719 1.384 . S
N723 C715 1.427 . S
N723 C721 1.384 . S
H724 C730 0.930 . S
H725 C734 0.930 . S
H726 C739 0.929 . S
H727 C737 0.929 . S
H728 C732 0.929 . S
H729 C738 0.929 . S
C730 H724 0.930 . S
C730 C731 1.367 . S
C730 C738 1.378 1_554 S
C731 C730 1.367 . S
C731 C739 1.433 . S
C732 H728 0.929 . S
C732 C734 1.378 . S
C732 C736 1.350 . S
C733 C736 1.463 . S
C733 C738 1.350 . S
C733 N741 1.439 . S
C734 H725 0.930 . S
C734 C732 1.378 . S
C734 C735 1.367 . S
C735 C734 1.367 . S
C735 C737 1.433 . S
C736 C732 1.350 . S
C736 C733 1.463 . S
C736 N740 1.427 . S
C737 H727 0.929 . S
C737 C735 1.433 . S
C737 N740 1.384 . S
C738 H729 0.929 . S
C738 C730 1.378 1_556 S
C738 C733 1.350 . S
C739 H726 0.929 . S
C739 C731 1.433 . S
C739 N741 1.369 1_554 S
N740 C736 1.427 . S
N740 C737 1.384 . S
N741 C733 1.439 . S
N741 C739 1.369 1_556 S
H742 C748 0.930 . S
H743 C752 0.930 . S
H744 C757 0.929 . S
H745 C755 0.929 . S
H746 C750 0.929 . S
H747 C756 0.929 . S
C748 H742 0.930 . S
C748 C749 1.367 . S
C748 C756 1.378 . S
C749 C748 1.367 . S
C749 C757 1.433 . S
C750 H746 0.929 . S
C750 C752 1.378 . S
C750 C754 1.350 . S
C751 C754 1.463 . S
C751 C756 1.350 . S
C751 N759 1.427 . S
C752 H743 0.930 . S
C752 C750 1.378 . S
C752 C753 1.367 . S
C753 C752 1.367 . S
C753 C755 1.433 . S
C754 C750 1.350 . S
C754 C751 1.463 . S
C754 N758 1.427 . S
C755 H745 0.929 . S
C755 C753 1.433 . S
C755 N758 1.384 . S
C756 H747 0.929 . S
C756 C748 1.378 . S
C756 C751 1.350 . S
C757 H744 0.929 . S
C757 C749 1.433 . S
C757 N759 1.384 . S
N758 C754 1.427 . S
N758 C755 1.384 . S
N759 C751 1.427 . S
N759 C757 1.384 . S
H760 C766 0.930 . S
H761 C770 0.930 . S
H762 C775 0.929 . S
H763 C773 0.929 . S
H764 C768 0.929 . S
H765 C774 0.929 . S
C766 H760 0.930 . S
C766 C767 1.367 . S
C766 C774 1.378 . S
C767 C766 1.367 . S
C767 C775 1.433 . S
C768 H764 0.929 . S
C768 C770 1.378 . S
C768 C772 1.350 . S
C769 C772 1.463 . S
C769 C774 1.350 . S
C769 N777 1.427 . S
C770 H761 0.930 . S
C770 C768 1.378 . S
C770 C771 1.367 . S
C771 C770 1.367 . S
C771 C773 1.433 . S
C772 C768 1.350 . S
C772 C769 1.463 . S
C772 N776 1.427 . S
C773 H763 0.929 . S
C773 C771 1.433 . S
C773 N776 1.384 . S
C774 H765 0.929 . S
C774 C766 1.378 . S
C774 C769 1.350 . S
C775 H762 0.929 . S
C775 C767 1.433 . S
C775 N777 1.384 . S
N776 C772 1.427 . S
N776 C773 1.384 . S
N777 C769 1.427 . S
N777 C775 1.384 . S
H778 C784 0.930 . S
H779 C788 0.930 . S
H780 C793 0.929 . S
H781 C791 0.929 . S
H782 C786 0.929 . S
H783 C792 0.929 . S
C784 H778 0.930 . S
C784 C785 1.367 . S
C784 C792 1.378 . S
C785 C784 1.367 . S
C785 C793 1.433 1_545 S
C786 H782 0.929 . S
C786 C788 1.378 . S
C786 C790 1.350 . S
C787 C790 1.463 . S
C787 C792 1.350 1_565 S
C787 N795 1.427 . S
C788 H779 0.930 . S
C788 C786 1.378 . S
C788 C789 1.367 . S
C789 C788 1.367 . S
C789 C791 1.433 1_565 S
C790 C786 1.350 . S
C790 C787 1.463 . S
C790 N794 1.427 1_565 S
C791 H781 0.929 . S
C791 C789 1.433 1_545 S
C791 N794 1.384 . S
C792 H783 0.929 . S
C792 C784 1.378 . S
C792 C787 1.350 1_545 S
C793 H780 0.929 . S
C793 C785 1.433 1_565 S
C793 N795 1.384 . S
N794 C790 1.427 1_545 S
N794 C791 1.384 . S
N795 C787 1.427 . S
N795 C793 1.384 . S
H796 C802 0.930 . S
H797 C806 0.930 . S
H798 C811 0.929 . S
H799 C809 0.929 . S
H800 C804 0.929 . S
H801 C810 0.929 . S
C802 H796 0.930 . S
C802 C803 1.367 . S
C802 C810 1.378 . S
C803 C802 1.367 . S
C803 C811 1.433 . S
C804 H800 0.929 . S
C804 C806 1.378 . S
C804 C808 1.350 . S
C805 C808 1.463 . S
C805 C810 1.350 . S
C805 N813 1.427 . S
C806 H797 0.930 . S
C806 C804 1.378 . S
C806 C807 1.367 . S
C807 C806 1.367 . S
C807 C809 1.433 . S
C808 C804 1.350 . S
C808 C805 1.463 . S
C808 N812 1.427 . S
C809 H799 0.929 . S
C809 C807 1.433 . S
C809 N812 1.384 . S
C810 H801 0.929 . S
C810 C802 1.378 . S
C810 C805 1.350 . S
C811 H798 0.929 . S
C811 C803 1.433 . S
C811 N813 1.384 . S
N812 C808 1.427 . S
N812 C809 1.384 . S
N813 C805 1.427 . S
N813 C811 1.384 . S
H814 C820 0.930 . S
H815 C824 0.930 . S
H816 C829 0.929 . S
H817 C827 0.929 . S
H818 C822 0.929 . S
H819 C828 0.929 . S
C820 H814 0.930 . S
C820 C821 1.367 . S
C820 C828 1.378 . S
C821 C820 1.367 . S
C821 C829 1.433 . S
C822 H818 0.929 . S
C822 C824 1.378 . S
C822 C826 1.350 . S
C823 C826 1.463 . S
C823 C828 1.350 . S
C823 N831 1.427 . S
C824 H815 0.930 . S
C824 C822 1.378 . S
C824 C825 1.367 . S
C825 C824 1.367 . S
C825 C827 1.433 . S
C826 C822 1.350 . S
C826 C823 1.463 . S
C826 N830 1.427 . S
C827 H817 0.929 . S
C827 C825 1.433 . S
C827 N830 1.384 . S
C828 H819 0.929 . S
C828 C820 1.378 . S
C828 C823 1.350 . S
C829 H816 0.929 . S
C829 C821 1.433 . S
C829 N831 1.384 . S
N830 C826 1.427 . S
N830 C827 1.384 . S
N831 C823 1.427 . S
N831 C829 1.384 . S
H832 C838 0.930 . S
H833 C842 0.930 1_455 S
H834 C847 0.929 . S
H835 C845 0.929 . S
H836 C840 0.929 . S
H837 C846 0.929 . S
C838 H832 0.930 . S
C838 C839 1.367 . S
C838 C846 1.378 . S
C839 C838 1.367 . S
C839 C847 1.433 . S
C840 H836 0.929 . S
C840 C842 1.378 . S
C840 C844 1.350 . S
C841 C844 1.463 . S
C841 C846 1.350 . S
C841 N849 1.427 . S
C842 H833 0.930 1_655 S
C842 C840 1.378 . S
C842 C843 1.367 . S
C843 C842 1.367 . S
C843 C845 1.433 . S
C844 C840 1.350 . S
C844 C841 1.463 . S
C844 N848 1.427 . S
C845 H835 0.929 . S
C845 C843 1.433 . S
C845 N848 1.384 . S
C846 H837 0.929 . S
C846 C838 1.378 . S
C846 C841 1.350 . S
C847 H834 0.929 . S
C847 C839 1.433 . S
C847 N849 1.384 . S
N848 C844 1.427 . S
N848 C845 1.384 . S
N849 C841 1.427 . S
N849 C847 1.384 . S
H850 C856 0.930 . S
H851 C860 0.930 . S
H852 C865 0.929 . S
H853 C863 0.929 . S
H854 C858 0.929 . S
H855 C864 0.929 . S
C856 H850 0.930 . S
C856 C857 1.368 1_545 S
C856 C864 1.378 . S
C857 C856 1.368 1_565 S
C857 C865 1.432 . S
C858 H854 0.929 . S
C858 C860 1.378 . S
C858 C862 1.350 1_565 S
C859 C862 1.463 . S
C859 C864 1.350 . S
C859 N867 1.427 1_545 S
C860 H851 0.930 . S
C860 C858 1.378 . S
C860 C861 1.367 1_565 S
C861 C860 1.367 1_545 S
C861 C863 1.433 . S
C862 C858 1.350 1_545 S
C862 C859 1.463 . S
C862 N866 1.427 . S
C863 H853 0.929 . S
C863 C861 1.433 . S
C863 N866 1.384 . S
C864 H855 0.929 . S
C864 C856 1.378 . S
C864 C859 1.350 . S
C865 H852 0.929 . S
C865 C857 1.432 . S
C865 N867 1.384 . S
N866 C862 1.427 . S
N866 C863 1.384 . S
N867 C859 1.427 1_565 S
N867 C865 1.384 . S
H868 C874 0.930 . S
H869 C878 0.930 . S
H870 C883 0.929 . S
H871 C881 0.929 . S
H872 C876 0.929 . S
H873 C882 0.929 . S
C874 H868 0.930 . S
C874 C875 1.367 . S
C874 C882 1.378 . S
C875 C874 1.367 . S
C875 C883 1.433 . S
C876 H872 0.929 . S
C876 C878 1.378 . S
C876 C880 1.350 . S
C877 C880 1.463 . S
C877 C882 1.350 . S
C877 N885 1.427 . S
C878 H869 0.930 . S
C878 C876 1.378 . S
C878 C879 1.367 . S
C879 C878 1.367 . S
C879 C881 1.433 . S
C880 C876 1.350 . S
C880 C877 1.463 . S
C880 N884 1.427 . S
C881 H871 0.929 . S
C881 C879 1.433 . S
C881 N884 1.384 . S
C882 H873 0.929 . S
C882 C874 1.378 . S
C882 C877 1.350 . S
C883 H870 0.929 . S
C883 C875 1.433 . S
C883 N885 1.384 . S
N884 C880 1.427 . S
N884 C881 1.384 . S
N885 C877 1.427 . S
N885 C883 1.384 . S
H886 C892 0.930 1_554 S
H887 C896 0.930 . S
H888 C901 0.929 . S
H889 C899 0.929 . S
H890 C894 0.929 . S
H891 C900 0.929 . S
C892 H886 0.930 1_556 S
C892 C893 1.367 . S
C892 C900 1.378 . S
C893 C892 1.367 . S
C893 C901 1.433 . S
C894 H890 0.929 . S
C894 C896 1.378 . S
C894 C898 1.350 . S
C895 C898 1.463 . S
C895 C900 1.350 . S
C895 N903 1.427 . S
C896 H887 0.930 . S
C896 C894 1.378 . S
C896 C897 1.367 . S
C897 C896 1.367 . S
C897 C899 1.433 . S
C898 C894 1.350 . S
C898 C895 1.463 . S
C898 N902 1.427 . S
C899 H889 0.929 . S
C899 C897 1.433 . S
C899 N902 1.384 . S
C900 H891 0.929 . S
C900 C892 1.378 . S
C900 C895 1.350 . S
C901 H888 0.929 . S
C901 C893 1.433 . S
C901 N903 1.384 . S
N902 C898 1.427 . S
N902 C899 1.384 . S
N903 C895 1.427 . S
N903 C901 1.384 . S
H904 C910 0.930 . S
H905 C914 0.930 . S
H906 C919 0.929 . S
H907 C917 0.929 . S
H908 C912 0.929 . S
H909 C918 0.929 . S
C910 H904 0.930 . S
C910 C911 1.367 . S
C910 C918 1.378 . S
C911 C910 1.367 . S
C911 C919 1.433 . S
C912 H908 0.929 . S
C912 C914 1.378 . S
C912 C916 1.350 1_556 S
C913 C916 1.463 . S
C913 C918 1.350 . S
C913 N921 1.427 . S
C914 H905 0.930 . S
C914 C912 1.378 . S
C914 C915 1.367 . S
C915 C914 1.367 . S
C915 C917 1.433 1_556 S
C916 C912 1.350 1_554 S
C916 C913 1.463 . S
C916 N920 1.427 . S
C917 H907 0.929 . S
C917 C915 1.433 1_554 S
C917 N920 1.384 . S
C918 H909 0.929 . S
C918 C910 1.378 . S
C918 C913 1.350 . S
C919 H906 0.929 . S
C919 C911 1.433 . S
C919 N921 1.384 . S
N920 C916 1.427 . S
N920 C917 1.384 . S
N921 C913 1.427 . S
N921 C919 1.384 . S
H922 C928 0.930 . S
H923 C932 0.930 . S
H924 C937 0.929 . S
H925 C935 0.929 . S
H926 C930 0.929 . S
H927 C936 0.929 . S
C928 H922 0.930 . S
C928 C929 1.404 . S
C928 C936 1.378 1_554 S
C929 C928 1.404 . S
C929 C937 1.394 1_544 S
C930 H926 0.929 . S
C930 C932 1.378 . S
C930 C934 1.350 1_565 S
C931 C934 1.463 . S
C931 C936 1.350 . S
C931 N939 1.427 1_545 S
C932 H923 0.930 . S
C932 C930 1.378 . S
C932 C933 1.367 1_565 S
C933 C932 1.367 1_545 S
C933 C935 1.433 . S
C934 C930 1.350 1_545 S
C934 C931 1.463 . S
C934 N938 1.427 . S
C935 H925 0.929 . S
C935 C933 1.433 . S
C935 N938 1.384 . S
C936 H927 0.929 . S
C936 C928 1.378 1_556 S
C936 C931 1.350 . S
C937 H924 0.929 . S
C937 C929 1.394 1_566 S
C937 N939 1.384 . S
N938 C934 1.427 . S
N938 C935 1.384 . S
N939 C931 1.427 1_565 S
N939 C937 1.384 . S
H940 C946 0.930 . S
H941 C950 0.930 . S
H942 C955 0.929 . S
H943 C953 0.929 . S
H944 C948 0.929 . S
H945 C954 0.929 . S
C946 H940 0.930 . S
C946 C947 1.367 1_556 S
C946 C954 1.378 . S
C947 C946 1.367 1_554 S
C947 C955 1.433 . S
C948 H944 0.929 . S
C948 C950 1.378 . S
C948 C952 1.350 . S
C949 C952 1.463 . S
C949 C954 1.350 . S
C949 N957 1.427 1_556 S
C950 H941 0.930 . S
C950 C948 1.378 . S
C950 C951 1.367 . S
C951 C950 1.367 . S
C951 C953 1.433 . S
C952 C948 1.350 . S
C952 C949 1.463 . S
C952 N956 1.427 . S
C953 H943 0.929 . S
C953 C951 1.433 . S
C953 N956 1.384 . S
C954 H945 0.929 . S
C954 C946 1.378 . S
C954 C949 1.350 . S
C955 H942 0.929 . S
C955 C947 1.433 . S
C955 N957 1.384 . S
N956 C952 1.427 . S
N956 C953 1.384 . S
N957 C949 1.427 1_554 S
N957 C955 1.384 . S
H958 C964 0.930 . S
H959 C968 0.930 . S
H960 C973 0.929 . S
H961 C971 0.929 . S
H962 C966 0.929 . S
H963 C972 0.929 . S
C964 H958 0.930 . S
C964 C965 1.367 1_554 S
C964 C972 1.378 1_554 S
C965 C964 1.367 1_556 S
C965 C973 1.433 . S
C966 H962 0.929 . S
C966 C968 1.378 . S
C966 C970 1.350 . S
C967 C970 1.463 . S
C967 C972 1.350 . S
C967 N975 1.427 . S
C968 H959 0.930 . S
C968 C966 1.378 . S
C968 C969 1.367 . S
C969 C968 1.367 . S
C969 C971 1.433 . S
C970 C966 1.350 . S
C970 C967 1.463 . S
C970 N974 1.427 . S
C971 H961 0.929 . S
C971 C969 1.433 . S
C971 N974 1.384 . S
C972 H963 0.929 . S
C972 C964 1.378 1_556 S
C972 C967 1.350 . S
C973 H960 0.929 . S
C973 C965 1.433 . S
C973 N975 1.384 . S
N974 C970 1.427 . S
N974 C971 1.384 . S
N975 C967 1.427 . S
N975 C973 1.384 . S
H976 C982 0.930 . S
H977 C986 0.930 . S
H978 C991 0.929 . S
H979 C989 0.929 . S
H980 C984 0.929 . S
H981 C990 0.929 . S
C982 H976 0.930 . S
C982 C983 1.367 . S
C982 C990 1.378 . S
C983 C982 1.367 . S
C983 C991 1.433 . S
C984 H980 0.929 . S
C984 C986 1.378 . S
C984 C988 1.350 . S
C985 C988 1.463 . S
C985 C990 1.350 . S
C985 N993 1.427 . S
C986 H977 0.930 . S
C986 C984 1.378 . S
C986 C987 1.367 . S
C987 C986 1.367 . S
C987 C989 1.433 . S
C988 C984 1.350 . S
C988 C985 1.463 . S
C988 N992 1.427 . S
C989 H979 0.929 . S
C989 C987 1.433 . S
C989 N992 1.384 . S
C990 H981 0.929 . S
C990 C982 1.378 . S
C990 C985 1.350 . S
C991 H978 0.929 . S
C991 C983 1.433 . S
C991 N993 1.384 . S
N992 C988 1.427 . S
N992 C989 1.384 . S
N993 C985 1.427 . S
N993 C991 1.384 . S
H994 C1000 0.930 . S
H995 C1004 0.930 . S
H996 C1009 0.929 . S
H997 C1007 0.929 . S
H998 C1002 0.929 . S
H999 C1008 0.929 . S
C1000 H994 0.930 . S
C1000 C1001 1.407 . S
C1000 C1008 1.378 . S
C1001 C1000 1.407 . S
C1001 C1009 1.391 1_565 S
C1002 H998 0.929 . S
C1002 C1004 1.378 . S
C1002 C1006 1.350 1_545 S
C1003 C1006 1.463 . S
C1003 C1008 1.350 . S
C1003 N1011 1.427 1_565 S
C1004 H995 0.930 . S
C1004 C1002 1.378 . S
C1004 C1005 1.367 1_545 S
C1005 C1004 1.367 1_565 S
C1005 C1007 1.433 . S
C1006 C1002 1.350 1_565 S
C1006 C1003 1.463 . S
C1006 N1010 1.427 . S
C1007 H997 0.929 . S
C1007 C1005 1.433 . S
C1007 N1010 1.384 . S
C1008 H999 0.929 . S
C1008 C1000 1.378 . S
C1008 C1003 1.350 . S
C1009 H996 0.929 . S
C1009 C1001 1.391 1_545 S
C1009 N1011 1.384 . S
N1010 C1006 1.427 . S
N1010 C1007 1.384 . S
N1011 C1003 1.427 1_545 S
N1011 C1009 1.384 . S
H1012 C1018 0.930 . S
H1013 C1022 0.930 . S
H1014 C1027 0.929 . S
H1015 C1025 0.929 . S
H1016 C1020 0.929 . S
H1017 C1026 0.929 . S
C1018 H1012 0.930 . S
C1018 C1019 1.367 . S
C1018 C1026 1.378 . S
C1019 C1018 1.367 . S
C1019 C1027 1.433 . S
C1020 H1016 0.929 . S
C1020 C1022 1.378 . S
C1020 C1024 1.350 . S
C1021 C1024 1.463 . S
C1021 C1026 1.350 . S
C1021 N1029 1.427 . S
C1022 H1013 0.930 . S
C1022 C1020 1.378 . S
C1022 C1023 1.367 . S
C1023 C1022 1.367 . S
C1023 C1025 1.433 . S
C1024 C1020 1.350 . S
C1024 C1021 1.463 . S
C1024 N1028 1.427 . S
C1025 H1015 0.929 . S
C1025 C1023 1.433 . S
C1025 N1028 1.384 . S
C1026 H1017 0.929 . S
C1026 C1018 1.378 . S
C1026 C1021 1.350 . S
C1027 H1014 0.929 . S
C1027 C1019 1.433 . S
C1027 N1029 1.384 . S
N1028 C1024 1.427 . S
N1028 C1025 1.384 . S
N1029 C1021 1.427 . S
N1029 C1027 1.384 . S
H1030 C1036 0.930 . S
H1031 C1040 0.930 . S
H1032 C1045 0.929 . S
H1033 C1043 0.929 . S
H1034 C1038 0.929 . S
H1035 C1044 0.929 . S
C1036 H1030 0.930 . S
C1036 C1037 1.367 . S
C1036 C1044 1.378 . S
C1037 C1036 1.367 . S
C1037 C1045 1.433 . S
C1038 H1034 0.929 . S
C1038 C1040 1.378 . S
C1038 C1042 1.350 . S
C1039 C1042 1.463 . S
C1039 C1044 1.350 . S
C1039 N1047 1.427 . S
C1040 H1031 0.930 . S
C1040 C1038 1.378 . S
C1040 C1041 1.367 . S
C1041 C1040 1.367 . S
C1041 C1043 1.433 . S
C1042 C1038 1.350 . S
C1042 C1039 1.463 . S
C1042 N1046 1.427 . S
C1043 H1033 0.929 . S
C1043 C1041 1.433 . S
C1043 N1046 1.384 . S
C1044 H1035 0.929 . S
C1044 C1036 1.378 . S
C1044 C1039 1.350 . S
C1045 H1032 0.929 . S
C1045 C1037 1.433 . S
C1045 N1047 1.384 . S
N1046 C1042 1.427 . S
N1046 C1043 1.384 . S
N1047 C1039 1.427 . S
N1047 C1045 1.384 . S
C623 C391 1.912 1_565 S
C627 C497 1.900 . S
C645 C518 1.745 . S
C641 C451 1.766 . S
C663 C552 1.566 . S
C659 C241 1.445 . S
C681 C586 1.719 . S
C677 C331 1.586 . S
C699 C488 1.894 . S
C695 C121 1.776 1_546 S
C713 C211 1.718 1_556 S
C717 C527 1.757 . S
C731 C31 1.608 . S
C735 C561 1.566 . S
C749 C91 1.639 . S
C753 C595 1.713 . S
C771 C509 0.624 . S
C767 C301 0.717 . S
C789 C514 0.440 . S
C785 C380 0.401 . S
C807 C548 0.612 . S
C803 C440 0.608 . S
C821 C260 0.373 . S
C825 C582 0.163 . S
C839 C61 0.717 . S
C843 C480 0.669 . S
C861 C543 0.417 . S
C857 C140 0.526 . S
C879 C577 0.605 . S
C875 C200 0.628 . S
C893 C20 0.209 . S
C897 C611 0.144 . S
C911 C320 1.691 . S
C915 C493 1.762 . S
C929 C361 1.902 . S
C933 C522 2.152 . S
C951 C556 1.898 . S
C947 C421 1.703 . S
C969 C590 1.947 . S
C965 C271 1.913 1_556 S
C983 C80 1.755 . S
C987 C484 1.771 . S
C1005 C531 2.153 . S
C1001 C151 2.116 . S
C1023 C565 1.898 . S
C1019 C181 1.646 . S
C1037 C1 1.731 . S
C1041 C599 1.950 . S
