# Generated by pormake.
# Topology ptr, (4,4)-cn, num edge types: 1
# Building blocks:
#     Node 0, Type 0, BuildingBlock: AZAVOO_clean_sbu_0, # of connection points: 4
#     Node 1, Type 0, BuildingBlock: AZAVOO_clean_sbu_0, # of connection points: 4
#     Node 2, Type 0, BuildingBlock: AZAVOO_clean_sbu_0, # of connection points: 4
#     Node 3, Type 0, BuildingBlock: AZAVOO_clean_sbu_0, # of connection points: 4
#     Node 4, Type 0, BuildingBlock: AZAVOO_clean_sbu_0, # of connection points: 4
#     Node 5, Type 0, BuildingBlock: AZAVOO_clean_sbu_0, # of connection points: 4
#     Node 6, Type 0, BuildingBlock: AZAVOO_clean_sbu_0, # of connection points: 4
#     Node 7, Type 0, BuildingBlock: AZAVOO_clean_sbu_0, # of connection points: 4
#     Node 8, Type 0, BuildingBlock: AZAVOO_clean_sbu_0, # of connection points: 4
#     Node 9, Type 0, BuildingBlock: AZAVOO_clean_sbu_0, # of connection points: 4
#     Node 10, Type 0, BuildingBlock: AZAVOO_clean_sbu_0, # of connection points: 4
#     Node 11, Type 0, BuildingBlock: AZAVOO_clean_sbu_0, # of connection points: 4
#     Node 12, Type 0, BuildingBlock: AZAVOO_clean_sbu_0, # of connection points: 4
#     Node 13, Type 0, BuildingBlock: AZAVOO_clean_sbu_0, # of connection points: 4
#     Node 14, Type 0, BuildingBlock: AZAVOO_clean_sbu_0, # of connection points: 4
#     Node 15, Type 0, BuildingBlock: AZAVOO_clean_sbu_0, # of connection points: 4
#     Node 16, Type 0, BuildingBlock: AZAVOO_clean_sbu_0, # of connection points: 4
#     Node 17, Type 0, BuildingBlock: AZAVOO_clean_sbu_0, # of connection points: 4
#     Node 18, Type 1, BuildingBlock: AZAVOO_clean_linker_0, # of connection points: 4
#     Node 19, Type 1, BuildingBlock: AZAVOO_clean_linker_0, # of connection points: 4
#     Node 20, Type 1, BuildingBlock: AZAVOO_clean_linker_0, # of connection points: 4
#     Node 21, Type 1, BuildingBlock: AZAVOO_clean_linker_0, # of connection points: 4
#     Node 22, Type 1, BuildingBlock: AZAVOO_clean_linker_0, # of connection points: 4
#     Node 23, Type 1, BuildingBlock: AZAVOO_clean_linker_0, # of connection points: 4
#     Node 24, Type 1, BuildingBlock: AZAVOO_clean_linker_0, # of connection points: 4
#     Node 25, Type 1, BuildingBlock: AZAVOO_clean_linker_0, # of connection points: 4
#     Node 26, Type 1, BuildingBlock: AZAVOO_clean_linker_0, # of connection points: 4
#     Node 27, Type 1, BuildingBlock: AZAVOO_clean_linker_0, # of connection points: 4
#     Node 28, Type 1, BuildingBlock: AZAVOO_clean_linker_0, # of connection points: 4
#     Node 29, Type 1, BuildingBlock: AZAVOO_clean_linker_0, # of connection points: 4
#     Node 30, Type 1, BuildingBlock: AZAVOO_clean_linker_0, # of connection points: 4
#     Node 31, Type 1, BuildingBlock: AZAVOO_clean_linker_0, # of connection points: 4
#     Node 32, Type 1, BuildingBlock: AZAVOO_clean_linker_0, # of connection points: 4
#     Node 33, Type 1, BuildingBlock: AZAVOO_clean_linker_0, # of connection points: 4
#     Node 34, Type 1, BuildingBlock: AZAVOO_clean_linker_0, # of connection points: 4
#     Node 35, Type 1, BuildingBlock: AZAVOO_clean_linker_0, # of connection points: 4
#     Edge 36, Type (0, 1), BuildingBlock: TEMPAE_clean_linker_10, # of connection points: 2
#     Edge 37, Type (0, 1), BuildingBlock: TEMPAE_clean_linker_10, # of connection points: 2
#     Edge 38, Type (0, 1), BuildingBlock: TEMPAE_clean_linker_10, # of connection points: 2
#     Edge 39, Type (0, 1), BuildingBlock: TEMPAE_clean_linker_10, # of connection points: 2
#     Edge 40, Type (0, 1), BuildingBlock: TEMPAE_clean_linker_10, # of connection points: 2
#     Edge 41, Type (0, 1), BuildingBlock: TEMPAE_clean_linker_10, # of connection points: 2
#     Edge 42, Type (0, 1), BuildingBlock: TEMPAE_clean_linker_10, # of connection points: 2
#     Edge 43, Type (0, 1), BuildingBlock: TEMPAE_clean_linker_10, # of connection points: 2
#     Edge 44, Type (0, 1), BuildingBlock: TEMPAE_clean_linker_10, # of connection points: 2
#     Edge 45, Type (0, 1), BuildingBlock: TEMPAE_clean_linker_10, # of connection points: 2
#     Edge 46, Type (0, 1), BuildingBlock: TEMPAE_clean_linker_10, # of connection points: 2
#     Edge 47, Type (0, 1), BuildingBlock: TEMPAE_clean_linker_10, # of connection points: 2
#     Edge 48, Type (0, 1), BuildingBlock: TEMPAE_clean_linker_10, # of connection points: 2
#     Edge 49, Type (0, 1), BuildingBlock: TEMPAE_clean_linker_10, # of connection points: 2
#     Edge 50, Type (0, 1), BuildingBlock: TEMPAE_clean_linker_10, # of connection points: 2
#     Edge 51, Type (0, 1), BuildingBlock: TEMPAE_clean_linker_10, # of connection points: 2
#     Edge 52, Type (0, 1), BuildingBlock: TEMPAE_clean_linker_10, # of connection points: 2
#     Edge 53, Type (0, 1), BuildingBlock: TEMPAE_clean_linker_10, # of connection points: 2
#     Edge 54, Type (0, 1), BuildingBlock: TEMPAE_clean_linker_10, # of connection points: 2
#     Edge 55, Type (0, 1), BuildingBlock: TEMPAE_clean_linker_10, # of connection points: 2
#     Edge 56, Type (0, 1), BuildingBlock: TEMPAE_clean_linker_10, # of connection points: 2
#     Edge 57, Type (0, 1), BuildingBlock: TEMPAE_clean_linker_10, # of connection points: 2
#     Edge 58, Type (0, 1), BuildingBlock: TEMPAE_clean_linker_10, # of connection points: 2
#     Edge 59, Type (0, 1), BuildingBlock: TEMPAE_clean_linker_10, # of connection points: 2
#     Edge 60, Type (0, 1), BuildingBlock: TEMPAE_clean_linker_10, # of connection points: 2
#     Edge 61, Type (0, 1), BuildingBlock: TEMPAE_clean_linker_10, # of connection points: 2
#     Edge 62, Type (0, 1), BuildingBlock: TEMPAE_clean_linker_10, # of connection points: 2
#     Edge 63, Type (0, 1), BuildingBlock: TEMPAE_clean_linker_10, # of connection points: 2
#     Edge 64, Type (0, 1), BuildingBlock: TEMPAE_clean_linker_10, # of connection points: 2
#     Edge 65, Type (0, 1), BuildingBlock: TEMPAE_clean_linker_10, # of connection points: 2
#     Edge 66, Type (0, 1), BuildingBlock: TEMPAE_clean_linker_10, # of connection points: 2
#     Edge 67, Type (0, 1), BuildingBlock: TEMPAE_clean_linker_10, # of connection points: 2
#     Edge 68, Type (0, 1), BuildingBlock: TEMPAE_clean_linker_10, # of connection points: 2
#     Edge 69, Type (0, 1), BuildingBlock: TEMPAE_clean_linker_10, # of connection points: 2
#     Edge 70, Type (0, 1), BuildingBlock: TEMPAE_clean_linker_10, # of connection points: 2
#     Edge 71, Type (0, 1), BuildingBlock: TEMPAE_clean_linker_10, # of connection points: 2
#     Edge 72, Type (0, 1), BuildingBlock: TEMPAE_clean_linker_10, # of connection points: 2
#     Edge 73, Type (0, 1), BuildingBlock: TEMPAE_clean_linker_10, # of connection points: 2
#     Edge 74, Type (0, 1), BuildingBlock: TEMPAE_clean_linker_10, # of connection points: 2
#     Edge 75, Type (0, 1), BuildingBlock: TEMPAE_clean_linker_10, # of connection points: 2
#     Edge 76, Type (0, 1), BuildingBlock: TEMPAE_clean_linker_10, # of connection points: 2
#     Edge 77, Type (0, 1), BuildingBlock: TEMPAE_clean_linker_10, # of connection points: 2
#     Edge 78, Type (0, 1), BuildingBlock: TEMPAE_clean_linker_10, # of connection points: 2
#     Edge 79, Type (0, 1), BuildingBlock: TEMPAE_clean_linker_10, # of connection points: 2
#     Edge 80, Type (0, 1), BuildingBlock: TEMPAE_clean_linker_10, # of connection points: 2
#     Edge 81, Type (0, 1), BuildingBlock: TEMPAE_clean_linker_10, # of connection points: 2
#     Edge 82, Type (0, 1), BuildingBlock: TEMPAE_clean_linker_10, # of connection points: 2
#     Edge 83, Type (0, 1), BuildingBlock: TEMPAE_clean_linker_10, # of connection points: 2
#     Edge 84, Type (0, 1), BuildingBlock: TEMPAE_clean_linker_10, # of connection points: 2
#     Edge 85, Type (0, 1), BuildingBlock: TEMPAE_clean_linker_10, # of connection points: 2
#     Edge 86, Type (0, 1), BuildingBlock: TEMPAE_clean_linker_10, # of connection points: 2
#     Edge 87, Type (0, 1), BuildingBlock: TEMPAE_clean_linker_10, # of connection points: 2
#     Edge 88, Type (0, 1), BuildingBlock: TEMPAE_clean_linker_10, # of connection points: 2
#     Edge 89, Type (0, 1), BuildingBlock: TEMPAE_clean_linker_10, # of connection points: 2
#     Edge 90, Type (0, 1), BuildingBlock: TEMPAE_clean_linker_10, # of connection points: 2
#     Edge 91, Type (0, 1), BuildingBlock: TEMPAE_clean_linker_10, # of connection points: 2
#     Edge 92, Type (0, 1), BuildingBlock: TEMPAE_clean_linker_10, # of connection points: 2
#     Edge 93, Type (0, 1), BuildingBlock: TEMPAE_clean_linker_10, # of connection points: 2
#     Edge 94, Type (0, 1), BuildingBlock: TEMPAE_clean_linker_10, # of connection points: 2
#     Edge 95, Type (0, 1), BuildingBlock: TEMPAE_clean_linker_10, # of connection points: 2
#     Edge 96, Type (0, 1), BuildingBlock: TEMPAE_clean_linker_10, # of connection points: 2
#     Edge 97, Type (0, 1), BuildingBlock: TEMPAE_clean_linker_10, # of connection points: 2
#     Edge 98, Type (0, 1), BuildingBlock: TEMPAE_clean_linker_10, # of connection points: 2
#     Edge 99, Type (0, 1), BuildingBlock: TEMPAE_clean_linker_10, # of connection points: 2
#     Edge 100, Type (0, 1), BuildingBlock: TEMPAE_clean_linker_10, # of connection points: 2
#     Edge 101, Type (0, 1), BuildingBlock: TEMPAE_clean_linker_10, # of connection points: 2
#     Edge 102, Type (0, 1), BuildingBlock: TEMPAE_clean_linker_10, # of connection points: 2
#     Edge 103, Type (0, 1), BuildingBlock: TEMPAE_clean_linker_10, # of connection points: 2
#     Edge 104, Type (0, 1), BuildingBlock: TEMPAE_clean_linker_10, # of connection points: 2
#     Edge 105, Type (0, 1), BuildingBlock: TEMPAE_clean_linker_10, # of connection points: 2
#     Edge 106, Type (0, 1), BuildingBlock: TEMPAE_clean_linker_10, # of connection points: 2
#     Edge 107, Type (0, 1), BuildingBlock: TEMPAE_clean_linker_10, # of connection points: 2
# Relax obj value: 0.122
# Max RMSD: 0.324
# Mean RMSD: 0.192
data_MOF--net-ptr--node1-AZAVOO_clean_sbu_0--node2-AZAVOO_clean_linker_0--edge1-TEMPAE_clean_linker_10
_symmetry_space_group_name_H-M    P1
_symmetry_Int_Tables_number       1
_symmetry_cell_setting            triclinic
loop_
_symmetry_equiv_pos_as_xyz
'x, y, z'
_cell_length_a     83.471692
_cell_length_b     81.019045
_cell_length_c     67.522528
_cell_angle_alpha  93.608347
_cell_angle_beta   93.577177
_cell_angle_gamma 120.10892
loop_
_atom_site_label
_atom_site_type_symbol
_atom_site_fract_x
_atom_site_fract_y
_atom_site_fract_z
_atom_type_partial_charge
Mg0 Mg 0.01745 0.35384 0.99283 0.0
O1 O 0.00219 0.36276 0.01438 0.0
O2 O 0.9814 0.36687 0.99624 0.0
Mg3 Mg 0.98276 0.35983 0.96326 0.0
C4 C 0.98953 0.36723 0.01307 0.0
C5 C 0.04687 0.351 0.02038 0.0
O6 O 0.0572 0.36242 0.00768 0.0
O7 O 0.99237 0.32349 0.98653 0.0
O8 O 0.97247 0.32824 0.96757 0.0
O9 O 0.03777 0.38499 0.99105 0.0
O10 O 0.0119 0.36759 0.97068 0.0
C11 C 0.97677 0.31709 0.976 0.0
C12 C 0.02629 0.38411 0.97663 0.0
O13 O 0.02951 0.34501 0.0186 0.0
Mg14 Mg 0.64575 0.63139 0.09449 0.0
O15 O 0.62401 0.62479 0.06825 0.0
O16 O 0.59808 0.62108 0.07984 0.0
Mg17 Mg 0.60358 0.62555 0.11408 0.0
C18 C 0.60731 0.62136 0.06535 0.0
C19 C 0.68387 0.65547 0.0781 0.0
O20 O 0.68739 0.66489 0.09589 0.0
O21 O 0.65114 0.66173 0.10009 0.0
O22 O 0.62569 0.65746 0.11347 0.0
O23 O 0.63431 0.59998 0.09567 0.0
O24 O 0.62498 0.61726 0.1127 0.0
C25 C 0.64179 0.66841 0.10801 0.0
C26 C 0.62315 0.60076 0.10771 0.0
O27 O 0.66791 0.64071 0.07308 0.0
Mg28 Mg 0.37251 0.98916 0.00485 0.0
O29 O 0.39518 0.0026 0.0311 0.0
O30 O 0.42079 0.02725 0.02202 0.0
Mg31 Mg 0.41421 0.02907 0.98892 0.0
C32 C 0.41194 0.01637 0.03511 0.0
C33 C 0.33526 0.95986 0.02088 0.0
O34 O 0.33085 0.9527 0.00204 0.0
O35 O 0.36762 0.01423 0.00818 0.0
O36 O 0.39248 0.03752 0.99622 0.0
O37 O 0.38304 0.96981 0.99442 0.0
O38 O 0.39218 0.99851 0.98485 0.0
C39 C 0.37677 0.03122 0.00318 0.0
C40 C 0.39353 0.98338 0.98398 0.0
O41 O 0.35141 0.97408 0.02646 0.0
Mg42 Mg 0.99029 0.65319 0.07423 0.0
O43 O 0.0048 0.6448 0.05109 0.0
O44 O 0.02662 0.64109 0.0676 0.0
Mg45 Mg 0.02634 0.64735 0.101 0.0
C46 C 0.01773 0.6407 0.05133 0.0
C47 C 0.95976 0.65389 0.04568 0.0
O48 O 0.94926 0.63928 0.05539 0.0
O49 O 0.01516 0.68362 0.08065 0.0
O50 O 0.03613 0.67906 0.0978 0.0
O51 O 0.97026 0.62202 0.07577 0.0
O52 O 0.99678 0.63902 0.09522 0.0
C53 C 0.03115 0.69012 0.09034 0.0
C54 C 0.98218 0.62258 0.08943 0.0
O55 O 0.97735 0.6625 0.04976 0.0
Mg56 Mg 0.35598 0.37524 0.97159 0.0
O57 O 0.37783 0.38041 0.99727 0.0
O58 O 0.40399 0.38581 0.98472 0.0
Mg59 Mg 0.39789 0.38188 0.95069 0.0
C60 C 0.39473 0.38439 0.9995 0.0
C61 C 0.329 0.37564 0.00142 0.0
O62 O 0.33654 0.39345 0.99714 0.0
O63 O 0.35016 0.3451 0.96385 0.0
O64 O 0.37582 0.34975 0.95067 0.0
O65 O 0.3674 0.40673 0.97243 0.0
O66 O 0.37682 0.39055 0.95368 0.0
C67 C 0.35957 0.33864 0.9557 0.0
C68 C 0.37866 0.40681 0.96003 0.0
O69 O 0.33403 0.36469 0.99318 0.0
Mg70 Mg 0.63414 0.02155 0.06543 0.0
O71 O 0.61241 0.0074 0.03819 0.0
O72 O 0.58706 0.98199 0.04694 0.0
Mg73 Mg 0.59333 0.97949 0.07978 0.0
C74 C 0.5959 0.99315 0.03405 0.0
C75 C 0.67264 0.04246 0.05129 0.0
O76 O 0.67604 0.03872 0.06922 0.0
O77 O 0.64092 0.99797 0.06212 0.0
O78 O 0.61652 0.97299 0.07268 0.0
O79 O 0.62187 0.03933 0.07529 0.0
O80 O 0.61358 0.01065 0.08441 0.0
C81 C 0.63257 0.98068 0.0663 0.0
C82 C 0.61128 0.02522 0.08509 0.0
O83 O 0.65615 0.03815 0.04527 0.0
Mg84 Mg 0.6763 0.68851 0.32949 0.0
O85 O 0.6632 0.69827 0.35322 0.0
O86 O 0.64315 0.70473 0.33698 0.0
Mg87 Mg 0.64353 0.69954 0.30335 0.0
C88 C 0.65126 0.70376 0.35318 0.0
C89 C 0.69688 0.68647 0.36921 0.0
O90 O 0.699 0.70354 0.37347 0.0
O91 O 0.64948 0.65948 0.3226 0.0
O92 O 0.63107 0.66716 0.305 0.0
O93 O 0.69903 0.71892 0.32836 0.0
O94 O 0.67195 0.70487 0.30967 0.0
C95 C 0.63416 0.6547 0.31227 0.0
C96 C 0.68774 0.72015 0.31531 0.0
O97 O 0.68787 0.67677 0.35271 0.0
Mg98 Mg 0.30921 0.9631 0.43063 0.0
O99 O 0.28728 0.95753 0.40509 0.0
O100 O 0.26211 0.95508 0.41747 0.0
Mg101 Mg 0.2683 0.95916 0.45168 0.0
C102 C 0.27088 0.95495 0.40267 0.0
C103 C 0.34693 0.98526 0.41227 0.0
O104 O 0.35164 0.99587 0.42951 0.0
O105 O 0.31606 0.99399 0.43649 0.0
O106 O 0.29145 0.99066 0.45109 0.0
O107 O 0.29674 0.93158 0.43171 0.0
O108 O 0.28876 0.9497 0.44943 0.0
C109 C 0.30745 0.00117 0.44518 0.0
C110 C 0.28622 0.93293 0.44426 0.0
O111 O 0.33053 0.97092 0.40842 0.0
Mg112 Mg 0.04885 0.32176 0.34105 0.0
O113 O 0.06994 0.33333 0.36891 0.0
O114 O 0.09756 0.35492 0.36003 0.0
Mg115 Mg 0.09436 0.35569 0.32618 0.0
C116 C 0.08722 0.3457 0.37325 0.0
C117 C 0.01085 0.31169 0.35459 0.0
O118 O 0.01082 0.31958 0.33818 0.0
O119 O 0.04945 0.34998 0.34168 0.0
O120 O 0.07609 0.36942 0.32946 0.0
O121 O 0.0542 0.2978 0.33366 0.0
O122 O 0.0697 0.32654 0.32329 0.0
C123 C 0.06066 0.36602 0.33567 0.0
C124 C 0.06733 0.30961 0.3238 0.0
O125 O 0.02485 0.31017 0.36009 0.0
Mg126 Mg 0.65313 0.97394 0.40366 0.0
O127 O 0.66938 0.96561 0.38278 0.0
O128 O 0.69051 0.96276 0.40194 0.0
Mg129 Mg 0.68813 0.96935 0.43458 0.0
C130 C 0.68261 0.96199 0.38481 0.0
C131 C 0.62448 0.97013 0.36889 0.0
O132 O 0.61547 0.95292 0.3748 0.0
O133 O 0.67771 0.00465 0.41011 0.0
O134 O 0.698 0.00067 0.42944 0.0
O135 O 0.63318 0.94283 0.40567 0.0
O136 O 0.65878 0.96055 0.42628 0.0
C137 C 0.69337 0.01141 0.42063 0.0
C138 C 0.64447 0.94392 0.42041 0.0
O139 O 0.64069 0.98208 0.37743 0.0
Mg140 Mg 0.03125 0.71101 0.31355 0.0
O141 O 0.05251 0.71686 0.34021 0.0
O142 O 0.07969 0.72438 0.32883 0.0
Mg143 Mg 0.07508 0.72151 0.2947 0.0
C144 C 0.06968 0.72186 0.34314 0.0
C145 C 0.99173 0.68599 0.32589 0.0
O146 O 0.98873 0.68062 0.3066 0.0
O147 O 0.02772 0.68185 0.30547 0.0
O148 O 0.05438 0.68881 0.29316 0.0
O149 O 0.04065 0.74213 0.315 0.0
O150 O 0.05247 0.72798 0.29689 0.0
C151 C 0.03816 0.67665 0.29749 0.0
C152 C 0.05281 0.74351 0.30317 0.0
O153 O 0.00808 0.69851 0.33351 0.0
Mg154 Mg 0.29225 0.35368 0.40227 0.0
O155 O 0.26927 0.33711 0.37655 0.0
O156 O 0.24466 0.31289 0.38789 0.0
Mg157 Mg 0.25264 0.31377 0.42124 0.0
C158 C 0.25276 0.32265 0.37378 0.0
C159 C 0.32965 0.37326 0.38472 0.0
O160 O 0.33461 0.37093 0.40271 0.0
O161 O 0.29905 0.33001 0.40114 0.0
O162 O 0.27543 0.30658 0.41449 0.0
O163 O 0.28035 0.3722 0.41062 0.0
O164 O 0.27288 0.34483 0.42273 0.0
C165 C 0.29102 0.3134 0.40715 0.0
C166 C 0.27051 0.3593 0.42205 0.0
O167 O 0.31274 0.36825 0.37992 0.0
Mg168 Mg 0.34792 0.02606 0.6603 0.0
O169 O 0.33276 0.03498 0.682 0.0
O170 O 0.31211 0.03939 0.66398 0.0
Mg171 Mg 0.31357 0.03272 0.63095 0.0
C172 C 0.32012 0.03949 0.68077 0.0
C173 C 0.3778 0.02422 0.68757 0.0
O174 O 0.38752 0.03565 0.67454 0.0
O175 O 0.32256 0.99581 0.65403 0.0
O176 O 0.30296 0.00103 0.63512 0.0
O177 O 0.36861 0.05703 0.65853 0.0
O178 O 0.34262 0.04016 0.63825 0.0
C179 C 0.307 0.98967 0.64349 0.0
C180 C 0.35732 0.05649 0.64411 0.0
O181 O 0.36029 0.01743 0.68604 0.0
Mg182 Mg 0.96961 0.29164 0.75382 0.0
O183 O 0.94896 0.2838 0.72603 0.0
O184 O 0.92134 0.27641 0.73602 0.0
Mg185 Mg 0.92417 0.27846 0.77026 0.0
C186 C 0.93182 0.27868 0.7222 0.0
C187 C 0.00834 0.32112 0.74118 0.0
O188 O 0.00926 0.32995 0.75858 0.0
O189 O 0.97061 0.31999 0.76019 0.0
O190 O 0.94371 0.31127 0.77283 0.0
O191 O 0.96258 0.26118 0.75406 0.0
O192 O 0.94795 0.27374 0.76951 0.0
C193 C 0.95955 0.32418 0.76837 0.0
C194 C 0.94931 0.25891 0.7646 0.0
O195 O 0.99379 0.30514 0.73506 0.0
Mg196 Mg 0.71437 0.65699 0.67329 0.0
O197 O 0.73773 0.67231 0.6988 0.0
O198 O 0.76174 0.69768 0.6883 0.0
Mg199 Mg 0.75391 0.69748 0.65501 0.0
C200 C 0.75404 0.68706 0.70201 0.0
C201 C 0.6786 0.62649 0.68995 0.0
O202 O 0.67487 0.61913 0.67118 0.0
O203 O 0.70784 0.68095 0.67609 0.0
O204 O 0.73125 0.70445 0.66253 0.0
O205 O 0.72583 0.6385 0.66313 0.0
O206 O 0.73331 0.66648 0.65256 0.0
C207 C 0.71585 0.69766 0.67023 0.0
C208 C 0.73544 0.65182 0.65201 0.0
O209 O 0.69413 0.6416 0.69556 0.0
Mg210 Mg 0.32406 0.31492 0.73645 0.0
O211 O 0.33933 0.30674 0.71407 0.0
O212 O 0.36007 0.30212 0.73161 0.0
Mg213 Mg 0.3586 0.30788 0.7648 0.0
C214 C 0.35205 0.30232 0.71497 0.0
C215 C 0.30568 0.33548 0.71681 0.0
O216 O 0.30727 0.34108 0.73589 0.0
O217 O 0.34914 0.34515 0.7437 0.0
O218 O 0.36913 0.33979 0.76173 0.0
O219 O 0.30342 0.28383 0.73726 0.0
O220 O 0.3294 0.30018 0.75769 0.0
C221 C 0.36479 0.35121 0.754 0.0
C222 C 0.31469 0.28396 0.75144 0.0
O223 O 0.31176 0.32446 0.71161 0.0
Mg224 Mg 0.69906 0.04231 0.64533 0.0
O225 O 0.7206 0.04747 0.67133 0.0
O226 O 0.74512 0.04817 0.65904 0.0
Mg227 Mg 0.73925 0.04393 0.62494 0.0
C228 C 0.73669 0.04922 0.67378 0.0
C229 C 0.66023 0.02613 0.66033 0.0
O230 O 0.65547 0.02113 0.64104 0.0
O231 O 0.69085 0.01107 0.63954 0.0
O232 O 0.7153 0.01282 0.62587 0.0
O233 O 0.71225 0.07372 0.64412 0.0
O234 O 0.72002 0.05515 0.62688 0.0
C235 C 0.69904 0.00308 0.63149 0.0
C236 C 0.72291 0.07211 0.63195 0.0
O237 O 0.67738 0.03511 0.66693 0.0
Mg238 Mg 0.954 0.68569 0.7301 0.0
O239 O 0.93228 0.67279 0.7028 0.0
O240 O 0.90458 0.65262 0.71278 0.0
Mg241 Mg 0.90889 0.65272 0.74668 0.0
C242 C 0.91483 0.66087 0.69913 0.0
C243 C 0.99254 0.69766 0.7168 0.0
O244 O 0.99448 0.69385 0.73513 0.0
O245 O 0.95353 0.65766 0.7306 0.0
O246 O 0.92689 0.63864 0.74311 0.0
O247 O 0.9486 0.70983 0.73646 0.0
O248 O 0.93357 0.68166 0.74817 0.0
C249 C 0.94222 0.64178 0.73684 0.0
C250 C 0.93569 0.69839 0.74677 0.0
O251 O 0.97722 0.69608 0.71009 0.0
H252 H 0.16806 0.34575 0.03207 0.0
H253 H 0.27963 0.3039 0.18475 0.0
H254 H 0.15888 0.33837 0.14134 0.0
H255 H 0.13467 0.34274 0.1248 0.0
H256 H 0.09867 0.28117 0.11364 0.0
H257 H 0.12329 0.27697 0.13022 0.0
H258 H 0.18999 0.34362 0.11542 0.0
H259 H 0.18477 0.3502 0.08148 0.0
H260 H 0.1434 0.29021 0.06609 0.0
H261 H 0.14893 0.2838 0.10002 0.0
H262 H 0.22262 0.34387 0.14085 0.0
H263 H 0.24677 0.35377 0.11812 0.0
H264 H 0.21387 0.29919 0.08195 0.0
H265 H 0.18976 0.28937 0.10487 0.0
H266 H 0.21988 0.3359 0.18464 0.0
H267 H 0.24971 0.3394 0.19707 0.0
H268 H 0.23606 0.28773 0.15973 0.0
H269 H 0.20618 0.28429 0.14759 0.0
H270 H 0.1798 0.32649 0.20243 0.0
H271 H 0.18752 0.32612 0.2376 0.0
H272 H 0.19697 0.27914 0.22263 0.0
H273 H 0.18693 0.27819 0.18768 0.0
H274 H 0.14815 0.32401 0.17804 0.0
H275 H 0.12776 0.31763 0.20444 0.0
H276 H 0.12291 0.26224 0.20747 0.0
H277 H 0.14286 0.26842 0.18041 0.0
O278 O 0.17002 0.3428 0.04535 0.0
O279 O 0.14879 0.31183 0.03823 0.0
O280 O 0.27423 0.32928 0.1991 0.0
O281 O 0.26791 0.30285 0.18011 0.0
C282 C 0.15892 0.30538 0.14383 0.0
C283 C 0.17277 0.30934 0.13087 0.0
C284 C 0.18959 0.31041 0.13785 0.0
C285 C 0.19268 0.30763 0.15785 0.0
C286 C 0.17871 0.30334 0.1708 0.0
C287 C 0.16158 0.30169 0.16357 0.0
C288 C 0.14278 0.30737 0.13705 0.0
C289 C 0.14559 0.32582 0.13577 0.0
C290 C 0.1317 0.32827 0.12636 0.0
C291 C 0.11473 0.3123 0.1179 0.0
C292 C 0.11165 0.29375 0.11992 0.0
C293 C 0.12558 0.29131 0.1295 0.0
C294 C 0.1699 0.31322 0.11012 0.0
C295 C 0.17992 0.3319 0.10464 0.0
C296 C 0.17686 0.33563 0.08527 0.0
C297 C 0.16366 0.32073 0.07107 0.0
C298 C 0.15366 0.30201 0.07665 0.0
C299 C 0.15678 0.2983 0.09601 0.0
C300 C 0.20453 0.31588 0.12453 0.0
C301 C 0.22076 0.33397 0.12816 0.0
C302 C 0.23452 0.33958 0.1152 0.0
C303 C 0.23218 0.32723 0.09829 0.0
C304 C 0.21594 0.30904 0.09478 0.0
C305 C 0.20223 0.30339 0.10785 0.0
C306 C 0.21084 0.30979 0.16531 0.0
C307 C 0.22333 0.32531 0.17924 0.0
C308 C 0.24037 0.32729 0.18627 0.0
C309 C 0.24526 0.31382 0.17941 0.0
C310 C 0.23273 0.29835 0.16534 0.0
C311 C 0.21567 0.29636 0.15836 0.0
C312 C 0.18272 0.30234 0.19239 0.0
C313 C 0.18301 0.31575 0.2068 0.0
C314 C 0.18782 0.31575 0.22695 0.0
C315 C 0.19326 0.30283 0.23316 0.0
C316 C 0.19266 0.28918 0.21865 0.0
C317 C 0.18717 0.28875 0.19853 0.0
C318 C 0.1468 0.29658 0.17708 0.0
C319 C 0.14208 0.31017 0.18375 0.0
C320 C 0.13056 0.30657 0.19895 0.0
C321 C 0.12382 0.28945 0.20795 0.0
C322 C 0.12799 0.27555 0.20078 0.0
C323 C 0.13927 0.27903 0.18531 0.0
C324 C 0.16033 0.32477 0.05055 0.0
C325 C 0.26335 0.31585 0.18684 0.0
H326 H 0.68452 0.84954 0.0528 0.0
H327 H 0.74801 0.0044 0.22636 0.0
H328 H 0.67885 0.83815 0.15702 0.0
H329 H 0.67021 0.8059 0.14303 0.0
H330 H 0.72473 0.8165 0.16459 0.0
H331 H 0.73344 0.84911 0.17839 0.0
H332 H 0.68227 0.86974 0.13685 0.0
H333 H 0.67808 0.86074 0.10084 0.0
H334 H 0.73232 0.86581 0.10478 0.0
H335 H 0.73642 0.87504 0.14077 0.0
H336 H 0.68588 0.90276 0.16952 0.0
H337 H 0.67835 0.92039 0.14636 0.0
H338 H 0.72695 0.93286 0.11672 0.0
H339 H 0.73499 0.91572 0.14073 0.0
H340 H 0.69339 0.90914 0.21076 0.0
H341 H 0.69861 0.94031 0.2245 0.0
H342 H 0.75282 0.96817 0.20282 0.0
H343 H 0.74754 0.93684 0.18945 0.0
H344 H 0.68757 0.8717 0.22658 0.0
H345 H 0.68464 0.88351 0.25949 0.0
H346 H 0.74254 0.9283 0.26459 0.0
H347 H 0.74528 0.91639 0.23142 0.0
H348 H 0.68377 0.83583 0.20136 0.0
H349 H 0.68194 0.81205 0.22318 0.0
H350 H 0.73889 0.85085 0.24795 0.0
H351 H 0.74094 0.87438 0.22544 0.0
O352 O 0.6865 0.85319 0.06706 0.0
O353 O 0.71442 0.85587 0.06991 0.0
O354 O 0.71771 0.97683 0.23214 0.0
O355 O 0.74556 0.99189 0.22101 0.0
C356 C 0.71178 0.86568 0.1766 0.0
C357 C 0.71231 0.87868 0.16328 0.0
C358 C 0.71463 0.8965 0.17078 0.0
C359 C 0.71736 0.90173 0.19159 0.0
C360 C 0.71682 0.88873 0.20497 0.0
C361 C 0.71398 0.87066 0.19749 0.0
C362 C 0.70684 0.84605 0.16848 0.0
C363 C 0.68902 0.83362 0.15851 0.0
C364 C 0.68412 0.81523 0.15051 0.0
C365 C 0.69688 0.8088 0.15253 0.0
C366 C 0.71466 0.82114 0.16283 0.0
C367 C 0.71964 0.8397 0.17067 0.0
C368 C 0.70974 0.87324 0.14137 0.0
C369 C 0.69329 0.86905 0.12988 0.0
C370 C 0.69091 0.86384 0.10932 0.0
C371 C 0.70489 0.86259 0.09992 0.0
C372 C 0.7213 0.86667 0.11154 0.0
C373 C 0.72368 0.87194 0.13209 0.0
C374 C 0.71116 0.90826 0.15706 0.0
C375 C 0.6952 0.90969 0.15838 0.0
C376 C 0.69086 0.91964 0.1451 0.0
C377 C 0.70218 0.92804 0.12994 0.0
C378 C 0.7181 0.92651 0.12838 0.0
C379 C 0.72269 0.91682 0.14205 0.0
C380 C 0.7202 0.92072 0.19934 0.0
C381 C 0.70643 0.92198 0.20911 0.0
C382 C 0.70942 0.93981 0.21688 0.0
C383 C 0.72617 0.95674 0.21483 0.0
C384 C 0.73979 0.95542 0.20472 0.0
C385 C 0.73681 0.93756 0.19703 0.0
C386 C 0.71662 0.8932 0.2266 0.0
C387 C 0.69979 0.88366 0.23508 0.0
C388 C 0.69813 0.89049 0.25388 0.0
C389 C 0.71331 0.907 0.26456 0.0
C390 C 0.73052 0.91574 0.25658 0.0
C391 C 0.73218 0.90886 0.23776 0.0
C392 C 0.7126 0.85669 0.21152 0.0
C393 C 0.69593 0.83913 0.21131 0.0
C394 C 0.69487 0.82562 0.2238 0.0
C395 C 0.71032 0.82963 0.23708 0.0
C396 C 0.72681 0.84747 0.23781 0.0
C397 C 0.72798 0.86086 0.225 0.0
C398 C 0.70229 0.85702 0.07808 0.0
C399 C 0.72948 0.97571 0.2232 0.0
H400 H 0.14702 0.85686 0.04744 0.0
H401 H 0.3085 0.9793 0.20631 0.0
H402 H 0.13931 0.87354 0.14803 0.0
H403 H 0.11168 0.84328 0.13349 0.0
H404 H 0.12984 0.81183 0.16872 0.0
H405 H 0.1577 0.84187 0.18248 0.0
H406 H 0.17505 0.9018 0.12583 0.0
H407 H 0.16362 0.88782 0.09112 0.0
H408 H 0.16147 0.83563 0.10593 0.0
H409 H 0.17319 0.84989 0.1405 0.0
H410 H 0.21725 0.93502 0.14683 0.0
H411 H 0.24009 0.94477 0.12247 0.0
H412 H 0.23406 0.88839 0.11851 0.0
H413 H 0.2122 0.87926 0.1436 0.0
H414 H 0.21688 0.94553 0.19521 0.0
H415 H 0.24868 0.97234 0.20451 0.0
H416 H 0.27001 0.93453 0.19098 0.0
H417 H 0.23815 0.90783 0.18194 0.0
H418 H 0.18419 0.92097 0.2232 0.0
H419 H 0.19514 0.93097 0.25893 0.0
H420 H 0.2304 0.90633 0.2545 0.0
H421 H 0.21931 0.89628 0.21904 0.0
H422 H 0.14325 0.8843 0.1995 0.0
H423 H 0.12235 0.86678 0.22426 0.0
H424 H 0.16001 0.84771 0.24422 0.0
H425 H 0.18064 0.86516 0.21961 0.0
O426 O 0.15173 0.8622 0.06119 0.0
O427 O 0.15061 0.83558 0.06967 0.0
O428 O 0.28411 0.98776 0.20963 0.0
O429 O 0.29579 0.96895 0.20278 0.0
C430 C 0.16909 0.87756 0.17183 0.0
C431 C 0.18122 0.88521 0.1569 0.0
C432 C 0.19969 0.90046 0.16215 0.0
C433 C 0.20589 0.90862 0.18222 0.0
C434 C 0.19384 0.90097 0.19718 0.0
C435 C 0.17549 0.88536 0.19201 0.0
C436 C 0.15052 0.85995 0.16638 0.0
C437 C 0.1371 0.86014 0.15291 0.0
C438 C 0.12141 0.8429 0.14457 0.0
C439 C 0.1187 0.82529 0.14999 0.0
C440 C 0.13151 0.82524 0.16446 0.0
C441 C 0.14737 0.8424 0.17244 0.0
C442 C 0.17479 0.87681 0.1357 0.0
C443 C 0.17219 0.88739 0.12151 0.0
C444 C 0.16562 0.87935 0.10171 0.0
C445 C 0.16154 0.86057 0.09576 0.0
C446 C 0.1644 0.8501 0.11002 0.0
C447 C 0.17105 0.85819 0.12978 0.0
C448 C 0.21305 0.90643 0.14691 0.0
C449 C 0.22096 0.92486 0.14071 0.0
C450 C 0.23387 0.93032 0.12668 0.0
C451 C 0.23892 0.91736 0.11854 0.0
C452 C 0.23074 0.89884 0.12469 0.0
C453 C 0.21807 0.89351 0.13885 0.0
C454 C 0.22524 0.9248 0.18777 0.0
C455 C 0.22845 0.94309 0.19428 0.0
C456 C 0.24662 0.95836 0.19956 0.0
C457 C 0.2619 0.95559 0.19843 0.0
C458 C 0.25858 0.93719 0.19197 0.0
C459 C 0.2404 0.92192 0.18674 0.0
C460 C 0.20104 0.908 0.21853 0.0
C461 C 0.19436 0.91786 0.22998 0.0
C462 C 0.20064 0.92358 0.25031 0.0
C463 C 0.21354 0.91932 0.2595 0.0
C464 C 0.22029 0.90959 0.24789 0.0
C465 C 0.21412 0.90402 0.22761 0.0
C466 C 0.16349 0.87609 0.20789 0.0
C467 C 0.14703 0.87653 0.20944 0.0
C468 C 0.13515 0.86652 0.22353 0.0
C469 C 0.1396 0.85597 0.23626 0.0
C470 C 0.15637 0.85603 0.23495 0.0
C471 C 0.16816 0.86594 0.22085 0.0
C472 C 0.15431 0.85197 0.07479 0.0
C473 C 0.28123 0.97178 0.20397 0.0
H474 H 0.28679 0.16599 0.00749 0.0
H475 H 0.31947 0.03079 0.87668 0.0
H476 H 0.27199 0.15373 0.90383 0.0
H477 H 0.27861 0.18629 0.91474 0.0
H478 H 0.33034 0.21013 0.88819 0.0
H479 H 0.32428 0.17779 0.87839 0.0
H480 H 0.27102 0.12107 0.93009 0.0
H481 H 0.27257 0.13549 0.96364 0.0
H482 H 0.32734 0.18286 0.95696 0.0
H483 H 0.32573 0.16814 0.92358 0.0
H484 H 0.27456 0.08285 0.91335 0.0
H485 H 0.28233 0.06746 0.93949 0.0
H486 H 0.33604 0.11899 0.95414 0.0
H487 H 0.32846 0.134 0.92775 0.0
H488 H 0.26996 0.07424 0.8655 0.0
H489 H 0.27206 0.04518 0.86125 0.0
H490 H 0.32952 0.07756 0.88722 0.0
H491 H 0.3273 0.10655 0.8911 0.0
H492 H 0.26778 0.09906 0.83438 0.0
H493 H 0.27006 0.08534 0.80186 0.0
H494 H 0.32892 0.1087 0.81824 0.0
H495 H 0.32651 0.12235 0.85049 0.0
H496 H 0.26546 0.13939 0.85353 0.0
H497 H 0.26516 0.1599 0.82858 0.0
H498 H 0.32165 0.17605 0.81875 0.0
H499 H 0.32159 0.15514 0.84331 0.0
O500 O 0.28654 0.16044 0.99426 0.0
O501 O 0.31455 0.18459 0.98997 0.0
O502 O 0.28888 0.0262 0.86422 0.0
O503 O 0.31831 0.0421 0.87797 0.0
C504 C 0.29567 0.1441 0.88707 0.0
C505 C 0.29695 0.13499 0.90381 0.0
C506 C 0.29761 0.11794 0.90106 0.0
C507 C 0.29698 0.10997 0.88157 0.0
C508 C 0.29564 0.11902 0.86484 0.0
C509 C 0.29471 0.13593 0.86756 0.0
C510 C 0.29762 0.16337 0.89025 0.0
C511 C 0.28459 0.16599 0.90009 0.0
C512 C 0.28837 0.1845 0.90631 0.0
C513 C 0.30494 0.20056 0.90222 0.0
C514 C 0.31738 0.19792 0.89129 0.0
C515 C 0.31386 0.17947 0.88557 0.0
C516 C 0.29819 0.14362 0.92436 0.0
C517 C 0.28337 0.13451 0.93595 0.0
C518 C 0.28428 0.14281 0.95508 0.0
C519 C 0.30005 0.16037 0.96295 0.0
C520 C 0.31497 0.16936 0.95133 0.0
C521 C 0.31407 0.16101 0.93225 0.0
C522 C 0.30096 0.10952 0.91864 0.0
C523 C 0.28786 0.09089 0.92244 0.0
C524 C 0.29228 0.08217 0.93735 0.0
C525 C 0.30973 0.09211 0.94885 0.0
C526 C 0.32237 0.11113 0.94573 0.0
C527 C 0.31808 0.11971 0.93065 0.0
C528 C 0.29844 0.09245 0.87868 0.0
C529 C 0.28301 0.07503 0.87016 0.0
C530 C 0.28424 0.05846 0.8678 0.0
C531 C 0.30096 0.05904 0.87396 0.0
C532 C 0.31644 0.07659 0.88236 0.0
C533 C 0.3152 0.09317 0.88463 0.0
C534 C 0.29699 0.11168 0.84471 0.0
C535 C 0.28116 0.10132 0.83081 0.0
C536 C 0.28247 0.09342 0.81236 0.0
C537 C 0.29968 0.09597 0.80753 0.0
C538 C 0.31553 0.10668 0.82143 0.0
C539 C 0.31418 0.11441 0.83986 0.0
C540 C 0.29352 0.14575 0.85017 0.0
C541 C 0.27758 0.14702 0.8456 0.0
C542 C 0.27751 0.15887 0.83148 0.0
C543 C 0.29345 0.16979 0.8218 0.0
C544 C 0.30906 0.16768 0.82571 0.0
C545 C 0.30906 0.15573 0.83975 0.0
C546 C 0.30089 0.16925 0.98319 0.0
C547 C 0.30228 0.04143 0.87171 0.0
H548 H 0.83219 0.1449 0.02836 0.0
H549 H 0.72016 0.99401 0.85505 0.0
H550 H 0.83694 0.15483 0.92343 0.0
H551 H 0.86308 0.18552 0.93857 0.0
H552 H 0.90126 0.16644 0.92397 0.0
H553 H 0.87476 0.13535 0.90904 0.0
H554 H 0.80807 0.12732 0.94268 0.0
H555 H 0.81426 0.13628 0.97878 0.0
H556 H 0.85605 0.11959 0.98121 0.0
H557 H 0.84951 0.11041 0.94511 0.0
H558 H 0.77677 0.09906 0.9104 0.0
H559 H 0.75383 0.08869 0.93451 0.0
H560 H 0.78132 0.06283 0.96495 0.0
H561 H 0.80433 0.07324 0.94056 0.0
H562 H 0.77535 0.0893 0.86746 0.0
H563 H 0.74615 0.06081 0.85314 0.0
H564 H 0.76372 0.02479 0.88047 0.0
H565 H 0.79297 0.05341 0.8945 0.0
H566 H 0.80923 0.12142 0.85169 0.0
H567 H 0.79838 0.11214 0.81617 0.0
H568 H 0.80444 0.06233 0.81886 0.0
H569 H 0.81497 0.07162 0.85462 0.0
H570 H 0.84287 0.15499 0.87981 0.0
H571 H 0.86439 0.17591 0.85747 0.0
H572 H 0.87568 0.13128 0.83821 0.0
H573 H 0.8546 0.11055 0.86129 0.0
O574 O 0.82991 0.14117 0.01411 0.0
O575 O 0.85133 0.13251 0.01454 0.0
O576 O 0.72326 0.02467 0.84668 0.0
O577 O 0.73159 0.00551 0.86051 0.0
C578 C 0.83763 0.12402 0.90677 0.0
C579 C 0.82443 0.1125 0.91938 0.0
C580 C 0.8075 0.09616 0.91108 0.0
C581 C 0.80419 0.09066 0.89033 0.0
C582 C 0.81752 0.10194 0.87768 0.0
C583 C 0.83419 0.11873 0.88589 0.0
C584 C 0.85392 0.14275 0.9154 0.0
C585 C 0.85092 0.15715 0.92371 0.0
C586 C 0.86585 0.17465 0.93238 0.0
C587 C 0.88417 0.17825 0.9327 0.0
C588 C 0.88726 0.16399 0.92398 0.0
C589 C 0.8722 0.14629 0.91546 0.0
C590 C 0.82817 0.11798 0.94133 0.0
C591 C 0.81842 0.12542 0.95107 0.0
C592 C 0.82205 0.13062 0.97168 0.0
C593 C 0.83562 0.12861 0.9829 0.0
C594 C 0.84547 0.12128 0.97303 0.0
C595 C 0.84178 0.11603 0.95242 0.0
C596 C 0.79214 0.08684 0.92375 0.0
C597 C 0.77758 0.09074 0.92198 0.0
C598 C 0.76464 0.08502 0.93585 0.0
C599 C 0.766 0.0752 0.95166 0.0
C600 C 0.78 0.07037 0.95283 0.0
C601 C 0.79308 0.07624 0.93897 0.0
C602 C 0.78635 0.07339 0.88182 0.0
C603 C 0.77292 0.07524 0.87021 0.0
C604 C 0.75623 0.05895 0.86211 0.0
C605 C 0.75262 0.04051 0.86561 0.0
C606 C 0.76606 0.03876 0.87744 0.0
C607 C 0.78277 0.05507 0.88549 0.0
C608 C 0.81295 0.09724 0.8557 0.0
C609 C 0.80852 0.10869 0.84452 0.0
C610 C 0.80236 0.10337 0.8242 0.0
C611 C 0.80051 0.08647 0.81464 0.0
C612 C 0.80547 0.0753 0.82581 0.0
C613 C 0.81162 0.08063 0.84618 0.0
C614 C 0.84742 0.13138 0.87244 0.0
C615 C 0.85024 0.14984 0.87108 0.0
C616 C 0.86244 0.16171 0.85828 0.0
C617 C 0.87171 0.15517 0.84629 0.0
C618 C 0.86866 0.13658 0.84736 0.0
C619 C 0.8567 0.12481 0.86049 0.0
C620 C 0.83948 0.13419 0.00479 0.0
C621 C 0.73493 0.02314 0.857 0.0
H622 H 0.86679 0.71008 0.05334 0.0
H623 H 0.72029 0.6882 0.885 0.0
H624 H 0.88289 0.73476 0.94993 0.0
H625 H 0.90672 0.72913 0.96587 0.0
H626 H 0.8748 0.66965 0.94107 0.0
H627 H 0.85116 0.6754 0.92541 0.0
H628 H 0.85118 0.73255 0.9771 0.0
H629 H 0.85931 0.72863 0.01126 0.0
H630 H 0.84044 0.66901 0.99296 0.0
H631 H 0.83221 0.67312 0.95893 0.0
H632 H 0.81383 0.73182 0.95995 0.0
H633 H 0.7912 0.72482 0.98434 0.0
H634 H 0.77431 0.66474 0.97529 0.0
H635 H 0.79696 0.67191 0.9511 0.0
H636 H 0.81033 0.73871 0.92031 0.0
H637 H 0.78107 0.73763 0.91029 0.0
H638 H 0.75406 0.67618 0.89534 0.0
H639 H 0.78343 0.67752 0.90541 0.0
H640 H 0.82945 0.74031 0.88703 0.0
H641 H 0.82053 0.74022 0.85164 0.0
H642 H 0.80709 0.68129 0.84053 0.0
H643 H 0.81609 0.6816 0.87575 0.0
H644 H 0.8673 0.74321 0.89428 0.0
H645 H 0.8847 0.74652 0.86532 0.0
H646 H 0.86876 0.68681 0.86349 0.0
H647 H 0.8508 0.68338 0.89177 0.0
O648 O 0.86326 0.71125 0.0398 0.0
O649 O 0.85348 0.68073 0.0296 0.0
O650 O 0.74658 0.72067 0.89693 0.0
O651 O 0.73203 0.68905 0.88907 0.0
C652 C 0.84926 0.70772 0.93039 0.0
C653 C 0.83701 0.70585 0.94476 0.0
C654 C 0.82071 0.7064 0.93933 0.0
C655 C 0.81663 0.70891 0.91956 0.0
C656 C 0.82883 0.7108 0.90519 0.0
C657 C 0.84532 0.71052 0.91067 0.0
C658 C 0.86552 0.70559 0.93614 0.0
C659 C 0.88141 0.7207 0.94742 0.0
C660 C 0.89487 0.71741 0.95666 0.0
C661 C 0.89262 0.69894 0.95473 0.0
C662 C 0.87713 0.68411 0.94256 0.0
C663 C 0.86365 0.68739 0.93347 0.0
C664 C 0.84123 0.70316 0.96559 0.0
C665 C 0.84874 0.71865 0.98056 0.0
C666 C 0.85341 0.71637 3e-05 0.0
C667 C 0.8506 0.69852 0.00483 0.0
C668 C 0.84283 0.68296 0.98977 0.0
C669 C 0.83814 0.68526 0.97032 0.0
C670 C 0.80699 0.70236 0.95387 0.0
C671 C 0.80517 0.71717 0.96325 0.0
C672 C 0.79225 0.71314 0.97708 0.0
C673 C 0.78106 0.69424 0.98177 0.0
C674 C 0.78293 0.67947 0.97221 0.0
C675 C 0.79577 0.6835 0.95836 0.0
C676 C 0.79891 0.7082 0.91356 0.0
C677 C 0.79805 0.72505 0.91487 0.0
C678 C 0.78134 0.72438 0.90914 0.0
C679 C 0.76521 0.7068 0.902 0.0
C680 C 0.7662 0.68994 0.90075 0.0
C681 C 0.78292 0.69065 0.90649 0.0
C682 C 0.82338 0.71096 0.88389 0.0
C683 C 0.82453 0.72741 0.87691 0.0
C684 C 0.81945 0.72732 0.85674 0.0
C685 C 0.81321 0.71078 0.84328 0.0
C686 C 0.81215 0.69436 0.85042 0.0
C687 C 0.81715 0.69445 0.87054 0.0
C688 C 0.8582 0.71317 0.89546 0.0
C689 C 0.8679 0.73096 0.88785 0.0
C690 C 0.87767 0.73281 0.87129 0.0
C691 C 0.8781 0.71694 0.86235 0.0
C692 C 0.86886 0.69931 0.87037 0.0
C693 C 0.8588 0.69738 0.88665 0.0
C694 C 0.85583 0.69622 0.02545 0.0
C695 C 0.74743 0.70601 0.89587 0.0
H696 H 0.82452 0.66736 0.35003 0.0
H697 H 0.93762 0.62449 0.49971 0.0
H698 H 0.82752 0.67479 0.46133 0.0
H699 H 0.80365 0.68128 0.44782 0.0
H700 H 0.76213 0.62126 0.44661 0.0
H701 H 0.78626 0.61492 0.46044 0.0
H702 H 0.85318 0.67252 0.43285 0.0
H703 H 0.8455 0.67588 0.39833 0.0
H704 H 0.79965 0.6172 0.3915 0.0
H705 H 0.80763 0.614 0.426 0.0
H706 H 0.88468 0.67239 0.45589 0.0
H707 H 0.90673 0.67749 0.43144 0.0
H708 H 0.87037 0.6195 0.4037 0.0
H709 H 0.84831 0.61449 0.42839 0.0
H710 H 0.88743 0.66774 0.50097 0.0
H711 H 0.91633 0.66813 0.51091 0.0
H712 H 0.89325 0.61146 0.47938 0.0
H713 H 0.86436 0.61119 0.46973 0.0
H714 H 0.85338 0.66703 0.52244 0.0
H715 H 0.86249 0.66874 0.55767 0.0
H716 H 0.86027 0.61432 0.54699 0.0
H717 H 0.84891 0.61178 0.51205 0.0
H718 H 0.82385 0.66746 0.50419 0.0
H719 H 0.80802 0.66683 0.53383 0.0
H720 H 0.78864 0.60649 0.53445 0.0
H721 H 0.80493 0.60727 0.50509 0.0
O722 O 0.8274 0.66568 0.36359 0.0
O723 O 0.80398 0.63546 0.36087 0.0
O724 O 0.93753 0.6538 0.51207 0.0
O725 O 0.92634 0.62471 0.49602 0.0
C726 C 0.82379 0.64054 0.46735 0.0
C727 C 0.83551 0.64106 0.4529 0.0
C728 C 0.85172 0.64042 0.45861 0.0
C729 C 0.85625 0.63917 0.47874 0.0
C730 C 0.8444 0.63838 0.49318 0.0
C731 C 0.82793 0.63862 0.48734 0.0
C732 C 0.8086 0.64439 0.46177 0.0
C733 C 0.81321 0.66309 0.45844 0.0
C734 C 0.7996 0.66674 0.45059 0.0
C735 C 0.78106 0.65173 0.4459 0.0
C736 C 0.77628 0.63311 0.45015 0.0
C737 C 0.79 0.62946 0.45802 0.0
C738 C 0.83106 0.64297 0.43183 0.0
C739 C 0.8416 0.66037 0.4238 0.0
C740 C 0.83712 0.66226 0.40411 0.0
C741 C 0.82196 0.6468 0.39214 0.0
C742 C 0.81142 0.62938 0.4003 0.0
C743 C 0.81594 0.62751 0.41998 0.0
C744 C 0.86499 0.64308 0.44387 0.0
C745 C 0.88152 0.66079 0.44456 0.0
C746 C 0.894 0.6637 0.43055 0.0
C747 C 0.89017 0.64891 0.41566 0.0
C748 C 0.87365 0.63108 0.41511 0.0
C749 C 0.86107 0.62822 0.42908 0.0
C750 C 0.87379 0.63939 0.48474 0.0
C751 C 0.88862 0.6554 0.49632 0.0
C752 C 0.90512 0.65559 0.50193 0.0
C753 C 0.90709 0.6398 0.49596 0.0
C754 C 0.8922 0.62384 0.48425 0.0
C755 C 0.87569 0.62365 0.4787 0.0
C756 C 0.85011 0.63912 0.5147 0.0
C757 C 0.85433 0.65521 0.52782 0.0
C758 C 0.85997 0.65634 0.54796 0.0
C759 C 0.86238 0.64177 0.55536 0.0
C760 C 0.85829 0.62569 0.54206 0.0
C761 C 0.852 0.62428 0.52198 0.0
C762 C 0.81546 0.6374 0.50253 0.0
C763 C 0.81583 0.65402 0.51043 0.0
C764 C 0.80699 0.65369 0.5274 0.0
C765 C 0.79736 0.63665 0.53633 0.0
C766 C 0.79605 0.61976 0.52772 0.0
C767 C 0.80521 0.62017 0.51098 0.0
C768 C 0.81718 0.64889 0.37126 0.0
C769 C 0.92459 0.63993 0.50188 0.0
H770 H 0.36287 0.15892 0.389 0.0
H771 H 0.38545 0.32913 0.53855 0.0
H772 H 0.34523 0.16552 0.50965 0.0
H773 H 0.33738 0.13296 0.4975 0.0
H774 H 0.39403 0.1544 0.4845 0.0
H775 H 0.40183 0.18727 0.49642 0.0
H776 H 0.34902 0.17768 0.46878 0.0
H777 H 0.34946 0.16536 0.43495 0.0
H778 H 0.40631 0.21155 0.43492 0.0
H779 H 0.40576 0.22355 0.46892 0.0
H780 H 0.34587 0.21004 0.46922 0.0
H781 H 0.33723 0.2261 0.44507 0.0
H782 H 0.39062 0.27789 0.46053 0.0
H783 H 0.39941 0.26146 0.4845 0.0
H784 H 0.34623 0.23594 0.50702 0.0
H785 H 0.34378 0.26474 0.51205 0.0
H786 H 0.40143 0.2971 0.53742 0.0
H787 H 0.40375 0.26824 0.532 0.0
H788 H 0.34594 0.217 0.54636 0.0
H789 H 0.34306 0.23058 0.57842 0.0
H790 H 0.40246 0.25733 0.59408 0.0
H791 H 0.40519 0.24365 0.56179 0.0
H792 H 0.34932 0.1839 0.54933 0.0
H793 H 0.34839 0.16203 0.57323 0.0
H794 H 0.40618 0.18071 0.56743 0.0
H795 H 0.40678 0.20219 0.54318 0.0
O796 O 0.36301 0.16404 0.40238 0.0
O797 O 0.39215 0.18817 0.40304 0.0
O798 O 0.35654 0.30031 0.52296 0.0
O799 O 0.38601 0.3175 0.53648 0.0
C800 C 0.37748 0.19841 0.50821 0.0
C801 C 0.37736 0.20866 0.4921 0.0
C802 C 0.37673 0.22566 0.49564 0.0
C803 C 0.37679 0.2327 0.51537 0.0
C804 C 0.37745 0.22272 0.53154 0.0
C805 C 0.37791 0.20562 0.52797 0.0
C806 C 0.3741 0.17868 0.50397 0.0
C807 C 0.35606 0.16316 0.5046 0.0
C808 C 0.35157 0.14467 0.49753 0.0
C809 C 0.36511 0.14138 0.49 0.0
C810 C 0.38343 0.15673 0.49029 0.0
C811 C 0.38789 0.17538 0.49712 0.0
C812 C 0.37744 0.20137 0.47138 0.0
C813 C 0.3616 0.18502 0.4615 0.0
C814 C 0.36187 0.17807 0.44214 0.0
C815 C 0.37795 0.18743 0.43224 0.0
C816 C 0.39372 0.20396 0.44213 0.0
C817 C 0.39344 0.21086 0.46153 0.0
C818 C 0.37328 0.23457 0.47858 0.0
C819 C 0.35601 0.22461 0.46685 0.0
C820 C 0.35109 0.23381 0.45306 0.0
C821 C 0.36326 0.25324 0.45095 0.0
C822 C 0.38098 0.26291 0.46192 0.0
C823 C 0.38601 0.25358 0.47556 0.0
C824 C 0.37519 0.25006 0.51906 0.0
C825 C 0.35831 0.24928 0.51363 0.0
C826 C 0.35695 0.26574 0.51654 0.0
C827 C 0.37243 0.28324 0.5251 0.0
C828 C 0.38925 0.28387 0.53076 0.0
C829 C 0.39061 0.26741 0.52774 0.0
C830 C 0.37575 0.22929 0.55186 0.0
C831 C 0.35827 0.22555 0.55686 0.0
C832 C 0.35666 0.23329 0.57516 0.0
C833 C 0.37254 0.24504 0.58874 0.0
C834 C 0.39002 0.24846 0.58383 0.0
C835 C 0.39159 0.24055 0.56553 0.0
C836 C 0.37815 0.19468 0.54465 0.0
C837 C 0.36188 0.18356 0.5536 0.0
C838 C 0.36139 0.17109 0.56725 0.0
C839 C 0.37719 0.16954 0.57217 0.0
C840 C 0.3937 0.18135 0.56375 0.0
C841 C 0.39413 0.19374 0.55005 0.0
C842 C 0.3782 0.17997 0.41169 0.0
C843 C 0.3711 0.30081 0.52809 0.0
H844 H 0.81334 0.18812 0.36425 0.0
H845 H 0.96968 0.31719 0.5233 0.0
H846 H 0.80383 0.19663 0.46656 0.0
H847 H 0.77641 0.16544 0.45376 0.0
H848 H 0.79982 0.13665 0.48582 0.0
H849 H 0.82752 0.16763 0.4977 0.0
H850 H 0.83689 0.22883 0.44479 0.0
H851 H 0.82651 0.21631 0.40959 0.0
H852 H 0.83212 0.16729 0.42033 0.0
H853 H 0.84271 0.18009 0.45544 0.0
H854 H 0.87553 0.26482 0.46638 0.0
H855 H 0.89825 0.28019 0.44242 0.0
H856 H 0.90396 0.23006 0.43498 0.0
H857 H 0.88133 0.2149 0.45876 0.0
H858 H 0.87677 0.27188 0.5153 0.0
H859 H 0.90696 0.30113 0.52479 0.0
H860 H 0.93483 0.27067 0.50687 0.0
H861 H 0.90457 0.24148 0.49767 0.0
H862 H 0.84697 0.24314 0.54258 0.0
H863 H 0.85837 0.25263 0.57824 0.0
H864 H 0.89859 0.23474 0.57033 0.0
H865 H 0.88704 0.22518 0.53488 0.0
H866 H 0.8083 0.20523 0.5186 0.0
H867 H 0.78916 0.18577 0.54352 0.0
H868 H 0.83072 0.1706 0.55961 0.0
H869 H 0.84975 0.19021 0.53491 0.0
O870 O 0.81758 0.19286 0.37821 0.0
O871 O 0.82059 0.16789 0.38455 0.0
O872 O 0.94257 0.32078 0.52893 0.0
O873 O 0.95757 0.30581 0.51975 0.0
C874 C 0.83529 0.20304 0.48898 0.0
C875 C 0.84657 0.21292 0.47409 0.0
C876 C 0.86403 0.22975 0.47957 0.0
C877 C 0.87013 0.23696 0.49989 0.0
C878 C 0.85898 0.22706 0.51479 0.0
C879 C 0.84159 0.21011 0.50934 0.0
C880 C 0.81765 0.18445 0.4832 0.0
C881 C 0.80296 0.18359 0.47094 0.0
C882 C 0.78737 0.16584 0.46364 0.0
C883 C 0.78606 0.14875 0.46891 0.0
C884 C 0.80044 0.14967 0.48176 0.0
C885 C 0.8162 0.16735 0.48864 0.0
C886 C 0.84044 0.20531 0.45268 0.0
C887 C 0.83592 0.21542 0.43949 0.0
C888 C 0.82996 0.20822 0.4194 0.0
C889 C 0.82843 0.19076 0.41215 0.0
C890 C 0.8331 0.18074 0.42543 0.0
C891 C 0.8391 0.18799 0.44549 0.0
C892 C 0.87676 0.23874 0.46419 0.0
C893 C 0.88161 0.25716 0.4594 0.0
C894 C 0.8946 0.26591 0.44581 0.0
C895 C 0.90282 0.25629 0.43679 0.0
C896 C 0.89763 0.2377 0.44141 0.0
C897 C 0.88475 0.22903 0.45501 0.0
C898 C 0.88851 0.25463 0.50568 0.0
C899 C 0.88943 0.27157 0.51348 0.0
C900 C 0.90668 0.28825 0.51886 0.0
C901 C 0.92332 0.28825 0.51654 0.0
C902 C 0.9223 0.27118 0.50881 0.0
C903 C 0.90504 0.25451 0.50348 0.0
C904 C 0.86623 0.23355 0.53619 0.0
C905 C 0.85829 0.24137 0.54859 0.0
C906 C 0.86485 0.24682 0.56887 0.0
C907 C 0.87932 0.24435 0.57705 0.0
C908 C 0.88729 0.23661 0.56449 0.0
C909 C 0.88082 0.2313 0.54425 0.0
C910 C 0.83041 0.19917 0.52506 0.0
C911 C 0.81329 0.19782 0.52767 0.0
C912 C 0.80238 0.18667 0.54183 0.0
C913 C 0.80845 0.17668 0.55355 0.0
C914 C 0.8258 0.17839 0.55108 0.0
C915 C 0.83667 0.18952 0.53695 0.0
C916 C 0.82198 0.18309 0.39083 0.0
C917 C 0.94168 0.30596 0.52214 0.0
H918 H 0.9867 0.51028 0.3422 0.0
H919 H 0.00858 0.3752 0.19623 0.0
H920 H 0.95923 0.49372 0.23976 0.0
H921 H 0.96487 0.52546 0.25255 0.0
H922 H 0.01351 0.55236 0.22079 0.0
H923 H 0.00839 0.52079 0.20888 0.0
H924 H 0.9638 0.46378 0.26476 0.0
H925 H 0.96867 0.47879 0.2989 0.0
H926 H 0.02083 0.52676 0.2862 0.0
H927 H 0.01592 0.51145 0.25223 0.0
H928 H 0.96572 0.42631 0.24507 0.0
H929 H 0.97574 0.41154 0.2699 0.0
H930 H 0.03028 0.46264 0.27897 0.0
H931 H 0.02029 0.47714 0.25399 0.0
H932 H 0.95664 0.41651 0.19773 0.0
H933 H 0.95908 0.38786 0.19089 0.0
H934 H 0.01839 0.42164 0.20885 0.0
H935 H 0.01578 0.4502 0.21535 0.0
H936 H 0.9501 0.43929 0.16866 0.0
H937 H 0.94876 0.42337 0.13587 0.0
H938 H 0.00872 0.44979 0.14332 0.0
H939 H 0.00988 0.46568 0.17581 0.0
H940 H 0.94835 0.47924 0.18924 0.0
H941 H 0.94426 0.49872 0.16541 0.0
H942 H -0.00014 0.51816 0.14933 0.0
H943 H 0.00348 0.49812 0.17265 0.0
O944 O 0.98516 0.50449 0.32871 0.0
O945 O 0.01173 0.52893 0.32131 0.0
O946 O 0.97674 0.36966 0.18927 0.0
O947 O 0.00723 0.38632 0.19868 0.0
C948 C 0.98245 0.48624 0.21912 0.0
C949 C 0.98611 0.47768 0.2351 0.0
C950 C 0.98705 0.4609 0.23116 0.0
C951 C 0.98443 0.45271 0.21128 0.0
C952 C 0.98094 0.46133 0.1953 0.0
C953 C 0.97969 0.47795 0.19922 0.0
C954 C 0.98338 0.50494 0.22335 0.0
C955 C 0.97089 0.50647 0.23526 0.0
C956 C 0.97413 0.52452 0.24258 0.0
C957 C 0.98963 0.54124 0.23764 0.0
C958 C 0.00138 0.53965 0.22464 0.0
C959 C 0.99839 0.52164 0.21772 0.0
C960 C 0.98944 0.48658 0.25601 0.0
C961 C 0.97631 0.47747 0.26944 0.0
C962 C 0.97911 0.48611 0.2889 0.0
C963 C 0.9951 0.50402 0.29526 0.0
C964 C 0.00834 0.51299 0.28178 0.0
C965 C 0.00556 0.5043 0.26236 0.0
C966 C 0.99229 0.45276 0.24773 0.0
C967 C 0.97974 0.43436 0.25262 0.0
C968 C 0.98547 0.42599 0.26676 0.0
C969 C 0.00377 0.43598 0.27633 0.0
C970 C 0.01603 0.45473 0.27203 0.0
C971 C 0.01036 0.463 0.25775 0.0
C972 C 0.98602 0.43538 0.20707 0.0
C973 C 0.97015 0.41768 0.20009 0.0
C974 C 0.97158 0.40135 0.19625 0.0
C975 C 0.98894 0.40245 0.19937 0.0
C976 C 0.00482 0.42027 0.20632 0.0
C977 C 0.00337 0.4366 0.21008 0.0
C978 C 0.98009 0.45365 0.17451 0.0
C979 C 0.96292 0.44187 0.16298 0.0
C980 C 0.96219 0.43268 0.14439 0.0
C981 C 0.97864 0.4353 0.13705 0.0
C982 C 0.99583 0.44766 0.14843 0.0
C983 C 0.99653 0.45672 0.167 0.0
C984 C 0.97618 0.48725 0.18261 0.0
C985 C 0.95944 0.48736 0.18018 0.0
C986 C 0.95722 0.49864 0.16671 0.0
C987 C 0.97181 0.51019 0.15559 0.0
C988 C 0.98824 0.50928 0.15741 0.0
C989 C 0.99037 0.49785 0.17076 0.0
C990 C 0.9979 0.51328 0.31585 0.0
C991 C 0.99052 0.38512 0.19544 0.0
H992 H 0.4861 0.48934 0.35529 0.0
H993 H 0.37013 0.33642 0.1854 0.0
H994 H 0.49014 0.49673 0.24891 0.0
H995 H 0.51637 0.52714 0.26466 0.0
H996 H 0.55389 0.50634 0.2534 0.0
H997 H 0.52734 0.4756 0.23785 0.0
H998 H 0.46091 0.46915 0.26989 0.0
H999 H 0.4675 0.47915 0.30581 0.0
H1000 H 0.50963 0.46294 0.30894 0.0
H1001 H 0.5027 0.45274 0.27302 0.0
H1002 H 0.42885 0.43928 0.24012 0.0
H1003 H 0.40615 0.427 0.26446 0.0
H1004 H 0.43621 0.40258 0.29254 0.0
H1005 H 0.45889 0.41486 0.26795 0.0
H1006 H 0.42863 0.43117 0.1948 0.0
H1007 H 0.39878 0.40317 0.18109 0.0
H1008 H 0.41407 0.36633 0.2104 0.0
H1009 H 0.44396 0.39443 0.22382 0.0
H1010 H 0.46597 0.46311 0.17733 0.0
H1011 H 0.45676 0.45369 0.14177 0.0
H1012 H 0.45202 0.39875 0.14912 0.0
H1013 H 0.46347 0.40938 0.18435 0.0
H1014 H 0.49377 0.49355 0.20246 0.0
H1015 H 0.51616 0.51332 0.18004 0.0
H1016 H 0.53341 0.47143 0.17226 0.0
H1017 H 0.51064 0.45145 0.1945 0.0
O1018 O 0.48365 0.4852 0.34112 0.0
O1019 O 0.50522 0.47674 0.3419 0.0
O1020 O 0.37467 0.36729 0.17577 0.0
O1021 O 0.38183 0.34773 0.1906 0.0
C1022 C 0.49042 0.4651 0.2342 0.0
C1023 C 0.47727 0.45402 0.24706 0.0
C1024 C 0.46028 0.43759 0.2391 0.0
C1025 C 0.45668 0.43179 0.21837 0.0
C1026 C 0.47008 0.44252 0.20548 0.0
C1027 C 0.48695 0.45922 0.21347 0.0
C1028 C 0.50682 0.4839 0.24242 0.0
C1029 C 0.50401 0.4987 0.24988 0.0
C1030 C 0.51898 0.51601 0.25895 0.0
C1031 C 0.53712 0.51898 0.26049 0.0
C1032 C 0.54003 0.50438 0.25242 0.0
C1033 C 0.52494 0.48689 0.24353 0.0
C1034 C 0.48118 0.46002 0.26891 0.0
C1035 C 0.47142 0.46759 0.2784 0.0
C1036 C 0.47528 0.47338 0.2989 0.0
C1037 C 0.48907 0.47181 0.31027 0.0
C1038 C 0.4989 0.46431 0.30065 0.0
C1039 C 0.49498 0.45848 0.28015 0.0
C1040 C 0.44544 0.4279 0.25229 0.0
C1041 C 0.43032 0.43096 0.25129 0.0
C1042 C 0.41751 0.42412 0.26528 0.0
C1043 C 0.41957 0.41401 0.28045 0.0
C1044 C 0.43429 0.41026 0.28093 0.0
C1045 C 0.44721 0.41724 0.26696 0.0
C1046 C 0.43849 0.4148 0.21018 0.0
C1047 C 0.42553 0.41702 0.19815 0.0
C1048 C 0.40848 0.40102 0.19039 0.0
C1049 C 0.40405 0.3825 0.19462 0.0
C1050 C 0.41704 0.38037 0.20682 0.0
C1051 C 0.43411 0.39639 0.21453 0.0
C1052 C 0.46568 0.43708 0.18349 0.0
C1053 C 0.46361 0.44932 0.17114 0.0
C1054 C 0.45787 0.44365 0.1508 0.0
C1055 C 0.45326 0.42525 0.14238 0.0
C1056 C 0.45564 0.41312 0.15481 0.0
C1057 C 0.46202 0.41909 0.17507 0.0
C1058 C 0.50063 0.47112 0.20004 0.0
C1059 C 0.50235 0.48863 0.19587 0.0
C1060 C 0.515 0.49979 0.183 0.0
C1061 C 0.52634 0.49375 0.17438 0.0
C1062 C 0.52476 0.47631 0.17874 0.0
C1063 C 0.51183 0.46495 0.19136 0.0
C1064 C 0.49319 0.47804 0.33204 0.0
C1065 C 0.38596 0.36544 0.1864 0.0
H1066 H 0.5221 0.0158 0.38198 0.0
H1067 H 0.37551 0.00086 0.22447 0.0
H1068 H 0.53609 0.04287 0.28342 0.0
H1069 H 0.56068 0.03797 0.29833 0.0
H1070 H 0.53658 0.9834 0.26218 0.0
H1071 H 0.51196 0.98838 0.24742 0.0
H1072 H 0.5039 0.03935 0.30774 0.0
H1073 H 0.51242 0.03464 0.34139 0.0
H1074 H 0.50107 0.97809 0.31938 0.0
H1075 H 0.49233 0.98288 0.28589 0.0
H1076 H 0.47078 0.04256 0.2864 0.0
H1077 H 0.44968 0.03889 0.3116 0.0
H1078 H 0.43298 0.97895 0.31079 0.0
H1079 H 0.45436 0.98288 0.28587 0.0
H1080 H 0.4684 0.04775 0.23996 0.0
H1081 H 0.43959 0.04788 0.23102 0.0
H1082 H 0.40761 0.98736 0.23801 0.0
H1083 H 0.43653 0.9874 0.24672 0.0
H1084 H 0.49812 0.05134 0.21469 0.0
H1085 H 0.48904 0.05358 0.18006 0.0
H1086 H 0.44865 0.99286 0.17309 0.0
H1087 H 0.4577 0.99079 0.20766 0.0
H1088 H 0.53404 0.05017 0.23512 0.0
H1089 H 0.55272 0.05483 0.20708 0.0
H1090 H 0.51258 0.99735 0.18046 0.0
H1091 H 0.49406 0.99288 0.20847 0.0
O1092 O 0.51843 0.01727 0.36863 0.0
O1093 O 0.51269 0.98843 0.35648 0.0
O1094 O 0.4042 0.03231 0.22448 0.0
O1095 O 0.38712 0.00122 0.22793 0.0
C1096 C 0.50512 0.01683 0.25909 0.0
C1097 C 0.49307 0.01464 0.27384 0.0
C1098 C 0.47665 0.01519 0.26896 0.0
C1099 C 0.47204 0.01753 0.24928 0.0
C1100 C 0.48389 0.01943 0.2345 0.0
C1101 C 0.50047 0.01916 0.23942 0.0
C1102 C 0.5222 0.01594 0.26442 0.0
C1103 C 0.53641 0.0301 0.27835 0.0
C1104 C 0.55035 0.02721 0.28694 0.0
C1105 C 0.5504 0.01019 0.2816 0.0
C1106 C 0.53695 0.99669 0.26651 0.0
C1107 C 0.52292 -0.00046 0.25802 0.0
C1108 C 0.49753 0.01147 0.2944 0.0
C1109 C 0.50312 0.0259 0.31027 0.0
C1110 C 0.50804 0.0232 0.32945 0.0
C1111 C 0.50748 0.00601 0.33307 0.0
C1112 C 0.50169 0.99151 0.31712 0.0
C1113 C 0.4967 0.99421 0.29798 0.0
C1114 C 0.46408 0.013 0.28441 0.0
C1115 C 0.46257 0.02867 0.29174 0.0
C1116 C 0.45046 0.02652 0.30603 0.0
C1117 C 0.43967 0.00863 0.31318 0.0
C1118 C 0.44131 0.99297 0.3058 0.0
C1119 C 0.45343 0.99515 0.29153 0.0
C1120 C 0.45452 0.01758 0.244 0.0
C1121 C 0.45515 0.03454 0.2395 0.0
C1122 C 0.43868 0.03457 0.23443 0.0
C1123 C 0.42128 0.01762 0.23382 0.0
C1124 C 0.42075 0.00066 0.23836 0.0
C1125 C 0.43724 0.00064 0.24338 0.0
C1126 C 0.47852 0.02091 0.21361 0.0
C1127 C 0.48732 0.03856 0.20564 0.0
C1128 C 0.48211 0.03982 0.18595 0.0
C1129 C 0.46821 0.02337 0.17392 0.0
C1130 C 0.45955 0.0057 0.18197 0.0
C1131 C 0.4646 0.00451 0.20169 0.0
C1132 C 0.51275 0.02121 0.22374 0.0
C1133 C 0.52947 0.03854 0.22333 0.0
C1134 C 0.54004 0.04118 0.20732 0.0
C1135 C 0.53395 0.02653 0.19149 0.0
C1136 C 0.5174 0.00902 0.19225 0.0
C1137 C 0.50693 0.00637 0.20829 0.0
C1138 C 0.51299 0.0033 0.35339 0.0
C1139 C 0.40374 0.01757 0.22845 0.0
H1140 H 0.49642 0.02616 0.69805 0.0
H1141 H 0.61813 0.98312 0.83697 0.0
H1142 H 0.4975 0.02295 0.80779 0.0
H1143 H 0.47199 0.02589 0.79221 0.0
H1144 H 0.43679 0.96411 0.78525 0.0
H1145 H 0.46266 0.96135 0.80072 0.0
H1146 H 0.52681 0.02634 0.77857 0.0
H1147 H 0.51827 0.03189 0.74534 0.0
H1148 H 0.4752 0.97206 0.7341 0.0
H1149 H 0.48406 0.96669 0.76726 0.0
H1150 H 0.56084 0.0253 0.79802 0.0
H1151 H 0.58257 0.03026 0.77318 0.0
H1152 H 0.54444 0.97325 0.74394 0.0
H1153 H 0.52292 0.96832 0.76909 0.0
H1154 H 0.56227 0.0195 0.84432 0.0
H1155 H 0.59226 0.02181 0.85325 0.0
H1156 H 0.57314 0.96805 0.81701 0.0
H1157 H 0.54315 0.96581 0.80839 0.0
H1158 H 0.52628 0.01241 0.86817 0.0
H1159 H 0.53573 0.01062 0.90232 0.0
H1160 H 0.53843 0.96023 0.88263 0.0
H1161 H 0.52657 0.96083 0.84895 0.0
H1162 H 0.49666 0.01354 0.8497 0.0
H1163 H 0.47832 0.00871 0.87806 0.0
H1164 H 0.46197 0.9488 0.87277 0.0
H1165 H 0.4808 0.9538 0.84469 0.0
O1166 O 0.49975 0.02359 0.711 0.0
O1167 O 0.47774 0.99273 0.70602 0.0
O1168 O 0.61551 0.01007 0.85224 0.0
O1169 O 0.60639 0.98254 0.83371 0.0
C1170 C 0.4986 0.99041 0.81047 0.0
C1171 C 0.51074 0.99302 0.79577 0.0
C1172 C 0.52754 0.9933 0.80071 0.0
C1173 C 0.53235 0.99112 0.82041 0.0
C1174 C 0.52005 0.98814 0.83508 0.0
C1175 C 0.50301 0.98749 0.82995 0.0
C1176 C 0.48189 0.99196 0.80538 0.0
C1177 C 0.4841 0.01009 0.80345 0.0
C1178 C 0.46949 0.01172 0.79456 0.0
C1179 C 0.45238 0.99522 0.78737 0.0
C1180 C 0.44987 0.97707 0.79045 0.0
C1181 C 0.46452 0.97546 0.79945 0.0
C1182 C 0.50607 0.99612 0.77526 0.0
C1183 C 0.51565 0.01444 0.76882 0.0
C1184 C 0.51069 0.01757 0.74987 0.0
C1185 C 0.49601 0.00243 0.73708 0.0
C1186 C 0.48655 0.98404 0.74358 0.0
C1187 C 0.49158 0.98093 0.7625 0.0
C1188 C 0.5404 0.99644 0.78534 0.0
C1189 C 0.55722 0.01392 0.78623 0.0
C1190 C 0.56952 0.01675 0.77199 0.0
C1191 C 0.56518 0.00213 0.75664 0.0
C1192 C 0.54822 0.98468 0.75573 0.0
C1193 C 0.5359 0.98188 0.76995 0.0
C1194 C 0.55055 0.99248 0.82574 0.0
C1195 C 0.56458 0.00821 0.83839 0.0
C1196 C 0.58169 0.00951 0.84343 0.0
C1197 C 0.5851 0.99511 0.83584 0.0
C1198 C 0.57099 0.97939 0.82311 0.0
C1199 C 0.55386 0.97808 0.81813 0.0
C1200 C 0.52547 0.98662 0.85603 0.0
C1201 C 0.52833 0.00063 0.87136 0.0
C1202 C 0.53419 -0.0002 0.89088 0.0
C1203 C 0.53817 0.98541 0.89546 0.0
C1204 C 0.53525 0.97136 0.87997 0.0
C1205 C 0.52869 0.9718 0.86056 0.0
C1206 C 0.48999 0.98401 0.8452 0.0
C1207 C 0.48892 0.99933 0.85449 0.0
C1208 C 0.47863 0.99661 0.87072 0.0
C1209 C 0.46898 0.97845 0.87756 0.0
C1210 C 0.46939 0.96292 0.8677 0.0
C1211 C 0.48001 0.96574 0.85171 0.0
C1212 C 0.49057 0.00587 0.71709 0.0
C1213 C 0.60326 0.99643 0.84113 0.0
H1214 H 0.98069 0.46677 0.72973 0.0
H1215 H 0.03399 0.65056 0.87729 0.0
H1216 H 0.98531 0.48255 0.84798 0.0
H1217 H 0.97778 0.4504 0.83435 0.0
H1218 H 0.0344 0.47329 0.82053 0.0
H1219 H 0.04179 0.50567 0.83378 0.0
H1220 H 0.98177 0.49497 0.81194 0.0
H1221 H 0.97585 0.47931 0.77796 0.0
H1222 H 0.03255 0.51969 0.76792 0.0
H1223 H 0.03834 0.53505 0.80209 0.0
H1224 H 0.9808 0.52824 0.81462 0.0
H1225 H 0.97064 0.54327 0.7905 0.0
H1226 H 0.02691 0.59135 0.7944 0.0
H1227 H 0.03709 0.57597 0.81834 0.0
H1228 H 0.9887 0.55525 0.85631 0.0
H1229 H 0.98797 0.58488 0.86331 0.0
H1230 H 0.0482 0.61751 0.86894 0.0
H1231 H 0.04868 0.58777 0.86177 0.0
H1232 H 0.99472 0.53373 0.89376 0.0
H1233 H 0.99664 0.55086 0.92576 0.0
H1234 H 0.05601 0.58737 0.92462 0.0
H1235 H 0.05386 0.57015 0.8924 0.0
H1236 H 0.99523 0.49794 0.88659 0.0
H1237 H -0.00016 0.47868 0.91029 0.0
H1238 H 0.05911 0.5107 0.90588 0.0
H1239 H 0.05419 0.52947 0.88168 0.0
O1240 O 0.98331 0.47324 0.74307 0.0
O1241 O 0.01247 0.49458 0.73851 0.0
O1242 O 0.00292 0.62121 0.87132 0.0
O1243 O 0.03387 0.63862 0.87448 0.0
C1244 C 0.01717 0.51591 0.84622 0.0
C1245 C 0.01435 0.52504 0.83037 0.0
C1246 C 0.0151 0.5427 0.83439 0.0
C1247 C 0.01908 0.55144 0.85423 0.0
C1248 C 0.02216 0.54242 0.87006 0.0
C1249 C 0.02124 0.52466 0.86604 0.0
C1250 C 0.01409 0.49634 0.84193 0.0
C1251 C 0.99621 0.48055 0.84249 0.0
C1252 C 0.9919 0.4623 0.83459 0.0
C1253 C 0.00552 0.45958 0.82635 0.0
C1254 C 0.02374 0.47517 0.82688 0.0
C1255 C 0.02798 0.49355 0.83449 0.0
C1256 C 0.01053 0.51602 0.80949 0.0
C1257 C 0.99291 0.50035 0.8024 0.0
C1258 C 0.98956 0.49147 0.78296 0.0
C1259 C 0.00375 0.49821 0.77023 0.0
C1260 C 0.02133 0.51412 0.77735 0.0
C1261 C 0.02467 0.52294 0.79682 0.0
C1262 C 0.00968 0.551 0.81816 0.0
C1263 C 0.99103 0.54176 0.80985 0.0
C1264 C 0.98526 0.55034 0.79607 0.0
C1265 C 0.99801 0.56844 0.79059 0.0
C1266 C 0.01682 0.57741 0.79845 0.0
C1267 C 0.02263 0.56868 0.81208 0.0
C1268 C 0.01874 0.56943 0.85859 0.0
C1269 C 0.0017 0.56883 0.85906 0.0
C1270 C 0.00134 0.58576 0.86307 0.0
C1271 C 0.01804 0.60358 0.86671 0.0
C1272 C 0.03509 0.60405 0.86623 0.0
C1273 C 0.03542 0.5871 0.86218 0.0
C1274 C 0.02416 0.55066 0.89089 0.0
C1275 C 0.0082 0.54513 0.90068 0.0
C1276 C 0.00933 0.55495 0.91894 0.0
C1277 C 0.02647 0.57055 0.92768 0.0
C1278 C 0.04259 0.57557 0.91814 0.0
C1279 C 0.04143 0.56566 0.89988 0.0
C1280 C 0.02438 0.515 0.88245 0.0
C1281 C 0.00922 0.50095 0.89102 0.0
C1282 C 0.01192 0.49005 0.90463 0.0
C1283 C 0.02986 0.4931 0.90994 0.0
C1284 C 0.04511 0.50782 0.90191 0.0
C1285 C 0.04236 0.51865 0.88822 0.0
C1286 C 0.00018 0.48864 0.74965 0.0
C1287 C 0.01774 0.62161 0.87096 0.0
H1288 H 0.48873 0.51824 0.70912 0.0
H1289 H 0.64592 0.63844 0.87256 0.0
H1290 H 0.47775 0.53457 0.80882 0.0
H1291 H 0.44969 0.50459 0.79444 0.0
H1292 H 0.46606 0.47263 0.83109 0.0
H1293 H 0.49434 0.50236 0.8447 0.0
H1294 H 0.51435 0.56263 0.78786 0.0
H1295 H 0.50402 0.5489 0.75295 0.0
H1296 H 0.5008 0.4964 0.76843 0.0
H1297 H 0.5114 0.5104 0.80321 0.0
H1298 H 0.5555 0.59575 0.81051 0.0
H1299 H 0.57931 0.60633 0.78725 0.0
H1300 H 0.57402 0.55028 0.78296 0.0
H1301 H 0.55105 0.54026 0.80694 0.0
H1302 H 0.5546 0.60582 0.85837 0.0
H1303 H 0.58638 0.6323 0.86862 0.0
H1304 H 0.60737 0.594 0.85619 0.0
H1305 H 0.57551 0.56763 0.84621 0.0
H1306 H 0.52127 0.58193 0.88488 0.0
H1307 H 0.53204 0.59266 0.92054 0.0
H1308 H 0.56617 0.56656 0.91818 0.0
H1309 H 0.55518 0.55573 0.8828 0.0
H1310 H 0.4809 0.54665 0.85997 0.0
H1311 H 0.4585 0.52957 0.88363 0.0
H1312 H 0.49311 0.50747 0.90544 0.0
H1313 H 0.51541 0.52479 0.88211 0.0
O1314 O 0.49298 0.52346 0.72297 0.0
O1315 O 0.49136 0.49671 0.73176 0.0
O1316 O 0.62171 0.64728 0.87494 0.0
O1317 O 0.63322 0.62822 0.86865 0.0
C1318 C 0.5067 0.53813 0.83381 0.0
C1319 C 0.51934 0.54575 0.81933 0.0
C1320 C 0.53775 0.56093 0.82513 0.0
C1321 C 0.54345 0.56887 0.8453 0.0
C1322 C 0.53088 0.56124 0.8598 0.0
C1323 C 0.51252 0.54589 0.85406 0.0
C1324 C 0.48808 0.5207 0.8279 0.0
C1325 C 0.47509 0.52112 0.81398 0.0
C1326 C 0.45915 0.50405 0.80575 0.0
C1327 C 0.45577 0.48636 0.81169 0.0
C1328 C 0.46824 0.4861 0.82644 0.0
C1329 C 0.48434 0.50309 0.83432 0.0
C1330 C 0.51349 0.53747 0.79807 0.0
C1331 C 0.51148 0.5482 0.78365 0.0
C1332 C 0.50554 0.5403 0.76373 0.0
C1333 C 0.50151 0.52152 0.75791 0.0
C1334 C 0.50373 0.51088 0.77241 0.0
C1335 C 0.50974 0.51882 0.79229 0.0
C1336 C 0.55154 0.56725 0.81035 0.0
C1337 C 0.55955 0.58583 0.80453 0.0
C1338 C 0.57302 0.59176 0.79114 0.0
C1339 C 0.57859 0.57915 0.78326 0.0
C1340 C 0.57029 0.56045 0.78897 0.0
C1341 C 0.557 0.55462 0.80248 0.0
C1342 C 0.56279 0.58487 0.85143 0.0
C1343 C 0.56609 0.6032 0.8579 0.0
C1344 C 0.58425 0.61828 0.86372 0.0
C1345 C 0.59943 0.61527 0.86318 0.0
C1346 C 0.59602 0.59683 0.85675 0.0
C1347 C 0.57785 0.58175 0.85097 0.0
C1348 C 0.53752 0.56814 0.88127 0.0
C1349 C 0.53108 0.57858 0.89212 0.0
C1350 C 0.53729 0.58474 0.91241 0.0
C1351 C 0.54989 0.58038 0.92216 0.0
C1352 C 0.55628 0.56992 0.91117 0.0
C1353 C 0.55015 0.56387 0.89093 0.0
C1354 C 0.49976 0.53698 0.86942 0.0
C1355 C 0.48371 0.53833 0.87011 0.0
C1356 C 0.47094 0.52854 0.88356 0.0
C1357 C 0.47404 0.51719 0.89644 0.0
C1358 C 0.49046 0.51638 0.89604 0.0
C1359 C 0.5032 0.52619 0.88266 0.0
C1360 C 0.49499 0.51309 0.73679 0.0
C1361 C 0.61875 0.63126 0.86929 0.0
H1362 H 0.62009 0.8318 0.68115 0.0
H1363 H 0.6555 0.6969 0.55594 0.0
H1364 H 0.60557 0.81798 0.57778 0.0
H1365 H 0.61192 0.85036 0.58906 0.0
H1366 H 0.66382 0.8749 0.56282 0.0
H1367 H 0.65801 0.84274 0.55263 0.0
H1368 H 0.60508 0.78606 0.60446 0.0
H1369 H 0.60634 0.80079 0.63774 0.0
H1370 H 0.66097 0.84836 0.63095 0.0
H1371 H 0.65964 0.83333 0.59785 0.0
H1372 H 0.60898 0.74798 0.58804 0.0
H1373 H 0.61714 0.73228 0.61347 0.0
H1374 H 0.67071 0.78395 0.62832 0.0
H1375 H 0.66271 0.7993 0.60266 0.0
H1376 H 0.60525 0.73901 0.54057 0.0
H1377 H 0.60782 0.71018 0.53765 0.0
H1378 H 0.66509 0.74372 0.56403 0.0
H1379 H 0.66242 0.77247 0.56653 0.0
H1380 H 0.60262 0.76347 0.50905 0.0
H1381 H 0.60507 0.74939 0.47686 0.0
H1382 H 0.664 0.7734 0.49345 0.0
H1383 H 0.66142 0.78744 0.52539 0.0
H1384 H 0.59936 0.80305 0.5273 0.0
H1385 H 0.59853 0.82278 0.50172 0.0
H1386 H 0.65555 0.84043 0.49277 0.0
H1387 H 0.65599 0.8202 0.51789 0.0
O1388 O 0.61997 0.82612 0.66805 0.0
O1389 O 0.64789 0.85038 0.66367 0.0
O1390 O 0.625 0.69169 0.54213 0.0
O1391 O 0.65421 0.70814 0.55653 0.0
C1392 C 0.62973 0.80885 0.56136 0.0
C1393 C 0.63109 0.79995 0.57825 0.0
C1394 C 0.63201 0.78304 0.57575 0.0
C1395 C 0.63174 0.77508 0.55638 0.0
C1396 C 0.63035 0.78393 0.5395 0.0
C1397 C 0.62905 0.80064 0.54195 0.0
C1398 C 0.63131 0.82798 0.56432 0.0
C1399 C 0.61813 0.83036 0.57413 0.0
C1400 C 0.62176 0.84877 0.58059 0.0
C1401 C 0.63833 0.86499 0.57675 0.0
C1402 C 0.65086 0.86258 0.56574 0.0
C1403 C 0.64748 0.84423 0.55978 0.0
C1404 C 0.6322 0.80869 0.5987 0.0
C1405 C 0.61734 0.79961 0.61025 0.0
C1406 C 0.61808 0.80808 0.62922 0.0
C1407 C 0.63372 0.8258 0.63698 0.0
C1408 C 0.64869 0.83474 0.62542 0.0
C1409 C 0.64796 0.82621 0.60649 0.0
C1410 C 0.63529 0.77474 0.59347 0.0
C1411 C 0.6223 0.75601 0.59711 0.0
C1412 C 0.62695 0.7471 0.6116 0.0
C1413 C 0.64453 0.75694 0.62283 0.0
C1414 C 0.65696 0.77614 0.6201 0.0
C1415 C 0.65242 0.78492 0.60543 0.0
C1416 C 0.63361 0.75779 0.55384 0.0
C1417 C 0.61837 0.74011 0.54555 0.0
C1418 C 0.61987 0.72367 0.54396 0.0
C1419 C 0.63665 0.72463 0.5507 0.0
C1420 C 0.65196 0.74245 0.55876 0.0
C1421 C 0.65047 0.75889 0.56022 0.0
C1422 C 0.63185 0.77647 0.51948 0.0
C1423 C 0.61605 0.7658 0.50559 0.0
C1424 C 0.61746 0.75768 0.48733 0.0
C1425 C 0.63473 0.76028 0.48266 0.0
C1426 C 0.65056 0.77131 0.49652 0.0
C1427 C 0.64911 0.77928 0.51478 0.0
C1428 C 0.62771 0.81018 0.5244 0.0
C1429 C 0.6115 0.81085 0.51945 0.0
C1430 C 0.61113 0.82226 0.50497 0.0
C1431 C 0.62704 0.83337 0.49533 0.0
C1432 C 0.64297 0.8319 0.49969 0.0
C1433 C 0.64327 0.82036 0.51406 0.0
C1434 C 0.63436 0.83489 0.65702 0.0
C1435 C 0.6382 0.70713 0.54947 0.0
H1436 H 0.16374 0.81686 0.70198 0.0
H1437 H 0.04376 0.6672 0.53153 0.0
H1438 H 0.16383 0.82728 0.59604 0.0
H1439 H 0.19038 0.85825 0.60999 0.0
H1440 H 0.22791 0.83876 0.59383 0.0
H1441 H 0.20105 0.80751 0.58001 0.0
H1442 H 0.13591 0.7992 0.61718 0.0
H1443 H 0.14365 0.80815 0.65324 0.0
H1444 H 0.18575 0.79199 0.6522 0.0
H1445 H 0.17769 0.78285 0.61616 0.0
H1446 H 0.10363 0.77091 0.58725 0.0
H1447 H 0.08073 0.75738 0.6112 0.0
H1448 H 0.10978 0.73056 0.63607 0.0
H1449 H 0.13282 0.74428 0.61193 0.0
H1450 H 0.10116 0.76217 0.54186 0.0
H1451 H 0.07118 0.73406 0.52871 0.0
H1452 H 0.08829 0.69728 0.55508 0.0
H1453 H 0.11829 0.7255 0.56795 0.0
H1454 H 0.13703 0.79478 0.52376 0.0
H1455 H 0.12741 0.78626 0.48817 0.0
H1456 H 0.12488 0.73194 0.49272 0.0
H1457 H 0.13667 0.74175 0.52798 0.0
H1458 H 0.16508 0.82518 0.54908 0.0
H1459 H 0.18556 0.84573 0.52567 0.0
H1460 H 0.20404 0.80535 0.51352 0.0
H1461 H 0.18315 0.78455 0.53674 0.0
O1462 O 0.16085 0.81315 0.68772 0.0
O1463 O 0.18238 0.80473 0.68636 0.0
O1464 O 0.04741 0.69809 0.52319 0.0
O1465 O 0.05551 0.67856 0.53652 0.0
C1466 C 0.16403 0.79627 0.57911 0.0
C1467 C 0.15145 0.78473 0.5922 0.0
C1468 C 0.13435 0.76835 0.58444 0.0
C1469 C 0.13017 0.76291 0.56364 0.0
C1470 C 0.14297 0.77411 0.55048 0.0
C1471 C 0.15986 0.79088 0.55828 0.0
C1472 C 0.1805 0.81509 0.58719 0.0
C1473 C 0.17777 0.82961 0.59568 0.0
C1474 C 0.19294 0.84726 0.6037 0.0
C1475 C 0.21121 0.85085 0.60321 0.0
C1476 C 0.21397 0.83638 0.5944 0.0
C1477 C 0.1987 0.81857 0.58653 0.0
C1478 C 0.15609 0.79016 0.61412 0.0
C1479 C 0.14667 0.79743 0.62481 0.0
C1480 C 0.15118 0.80262 0.64538 0.0
C1481 C 0.16529 0.80074 0.65562 0.0
C1482 C 0.17478 0.79357 0.64479 0.0
C1483 C 0.17022 0.78834 0.62422 0.0
C1484 C 0.1198 0.75851 0.59788 0.0
C1485 C 0.10492 0.76192 0.5977 0.0
C1486 C 0.09198 0.75434 0.61146 0.0
C1487 C 0.09364 0.7431 0.62553 0.0
C1488 C 0.10823 0.73916 0.6253 0.0
C1489 C 0.12133 0.74695 0.6116 0.0
C1490 C 0.11193 0.74584 0.55571 0.0
C1491 C 0.09844 0.74802 0.54467 0.0
C1492 C 0.08131 0.73195 0.53723 0.0
C1493 C 0.07735 0.71341 0.54082 0.0
C1494 C 0.09089 0.71133 0.55202 0.0
C1495 C 0.10803 0.72742 0.55941 0.0
C1496 C 0.1379 0.76908 0.52849 0.0
C1497 C 0.13503 0.78134 0.51694 0.0
C1498 C 0.12905 0.77617 0.49659 0.0
C1499 C 0.12505 0.75823 0.48737 0.0
C1500 C 0.12807 0.746 0.49904 0.0
C1501 C 0.13465 0.75149 0.51931 0.0
C1502 C 0.17269 0.80343 0.54455 0.0
C1503 C 0.17355 0.82078 0.54137 0.0
C1504 C 0.1851 0.83239 0.52794 0.0
C1505 C 0.19619 0.82696 0.51778 0.0
C1506 C 0.19555 0.80974 0.52121 0.0
C1507 C 0.18371 0.79793 0.5344 0.0
C1508 C 0.17008 0.80631 0.67748 0.0
C1509 C 0.05918 0.69628 0.53295 0.0
H1510 H 0.20564 0.38503 0.72767 0.0
H1511 H 0.05021 0.35543 0.57521 0.0
H1512 H 0.2142 0.39941 0.62468 0.0
H1513 H 0.23872 0.39391 0.63858 0.0
H1514 H 0.20969 0.33667 0.60739 0.0
H1515 H 0.18505 0.34216 0.59394 0.0
H1516 H 0.18303 0.40038 0.65047 0.0
H1517 H 0.19358 0.39932 0.68477 0.0
H1518 H 0.18164 0.34138 0.66899 0.0
H1519 H 0.17088 0.34254 0.63485 0.0
H1520 H 0.14546 0.39895 0.63081 0.0
H1521 H 0.12333 0.39424 0.65521 0.0
H1522 H 0.11199 0.33625 0.65823 0.0
H1523 H 0.13413 0.34115 0.63407 0.0
H1524 H 0.14315 0.40193 0.58282 0.0
H1525 H 0.11396 0.40161 0.57493 0.0
H1526 H 0.08302 0.34284 0.5886 0.0
H1527 H 0.1123 0.3433 0.59622 0.0
H1528 H 0.17105 0.40123 0.55438 0.0
H1529 H 0.16039 0.39805 0.51884 0.0
H1530 H 0.11901 0.3387 0.52207 0.0
H1531 H 0.12973 0.34199 0.55747 0.0
H1532 H 0.20785 0.4024 0.57483 0.0
H1533 H 0.22364 0.40324 0.5451 0.0
H1534 H 0.18155 0.34419 0.52611 0.0
H1535 H 0.16597 0.34348 0.55582 0.0
O1536 O 0.20126 0.38508 0.71408 0.0
O1537 O 0.19506 0.35539 0.70514 0.0
O1538 O 0.0785 0.38611 0.57118 0.0
O1539 O 0.06195 0.35593 0.57817 0.0
C1540 C 0.18108 0.3728 0.60375 0.0
C1541 C 0.17031 0.37247 0.61927 0.0
C1542 C 0.15356 0.37252 0.61486 0.0
C1543 C 0.14758 0.37299 0.59498 0.0
C1544 C 0.15825 0.3732 0.57951 0.0
C1545 C 0.17499 0.37312 0.58388 0.0
C1546 C 0.19783 0.37117 0.60836 0.0
C1547 C 0.21342 0.38588 0.62044 0.0
C1548 C 0.22741 0.38271 0.62834 0.0
C1549 C 0.22603 0.36477 0.62425 0.0
C1550 C 0.21101 0.35054 0.61102 0.0
C1551 C 0.19704 0.35373 0.60314 0.0
C1552 C 0.17632 0.37159 0.64017 0.0
C1553 C 0.18264 0.38745 0.65449 0.0
C1554 C 0.18869 0.38682 0.67405 0.0
C1555 C 0.18851 0.37029 0.67961 0.0
C1556 C 0.18201 0.35435 0.6652 0.0
C1557 C 0.1759 0.35499 0.64568 0.0
C1558 C 0.14143 0.37042 0.63079 0.0
C1559 C 0.13832 0.38533 0.63696 0.0
C1560 C 0.12564 0.38258 0.65078 0.0
C1561 C 0.11594 0.36489 0.65865 0.0
C1562 C 0.11946 0.35015 0.65271 0.0
C1563 C 0.13207 0.3529 0.63889 0.0
C1564 C 0.12982 0.37269 0.59019 0.0
C1565 C 0.13004 0.389 0.58406 0.0
C1566 C 0.11336 0.38878 0.57959 0.0
C1567 C 0.09615 0.3722 0.58118 0.0
C1568 C 0.09602 0.35585 0.58726 0.0
C1569 C 0.11271 0.35608 0.59167 0.0
C1570 C 0.1511 0.37186 0.55844 0.0
C1571 C 0.15959 0.38762 0.5474 0.0
C1572 C 0.15349 0.38579 0.52719 0.0
C1573 C 0.13896 0.36809 0.51773 0.0
C1574 C 0.13037 0.35242 0.52894 0.0
C1575 C 0.13635 0.35432 0.54915 0.0
C1576 C 0.18579 0.37291 0.56738 0.0
C1577 C 0.20225 0.3896 0.56437 0.0
C1578 C 0.21117 0.39006 0.54739 0.0
C1579 C 0.20365 0.37386 0.53318 0.0
C1580 C 0.18744 0.357 0.53661 0.0
C1581 C 0.17863 0.35651 0.55362 0.0
C1582 C 0.19512 0.36973 0.70034 0.0
C1583 C 0.07839 0.37191 0.57652 0.0
C1584 C 0.9945 0.37607 0.05015 0.0
C1585 C 0.98522 0.37461 0.03147 0.0
C1586 C 0.99204 0.38489 0.06733 0.0
C1587 C 0.98002 0.39246 0.06584 0.0
C1588 C 0.97006 0.39039 0.04723 0.0
C1589 C 0.97276 0.38148 0.03028 0.0
C1590 C 0.00283 0.38672 0.08695 0.0
C1591 C 0.95709 0.39824 0.04505 0.0
C1592 C 0.96513 0.40484 0.114 0.0
C1593 C 0.97798 0.42457 0.11806 0.0
C1594 C 0.96538 0.39422 0.09687 0.0
C1595 C 0.9788 0.40358 0.0835 0.0
C1596 C 0.99149 0.42358 0.08726 0.0
C1597 C 0.99093 0.43382 0.10449 0.0
C1598 C 0.95164 0.37292 0.09337 0.0
C1599 C 0.00592 0.43412 0.07329 0.0
H1600 H 0.0041 0.37076 0.0513 0.0
H1601 H 0.96547 0.38042 0.01598 0.0
H1602 H 0.01292 0.4021 0.09187 0.0
H1603 H 0.99327 0.38105 0.09867 0.0
H1604 H 0.01062 0.37896 0.08589 0.0
H1605 H 0.94936 0.39424 0.0299 0.0
H1606 H 0.94689 0.39289 0.0562 0.0
H1607 H 0.9652 0.41412 0.04798 0.0
H1608 H 0.95524 0.39757 0.12456 0.0
H1609 H 0.00075 0.44911 0.10745 0.0
H1610 H 0.95922 0.36494 0.09396 0.0
H1611 H 0.94387 0.36914 0.07829 0.0
H1612 H 0.94149 0.368 0.10463 0.0
H1613 H 0.01544 0.42832 0.07261 0.0
H1614 H 0.01437 0.4498 0.07803 0.0
H1615 H 0.99906 0.43187 0.05796 0.0
C1616 C 0.60336 0.565 0.1068 0.0
C1617 C 0.60859 0.58343 0.11544 0.0
C1618 C 0.58972 0.54859 0.11449 0.0
C1619 C 0.58143 0.55077 0.13138 0.0
C1620 C 0.58675 0.56936 0.14016 0.0
C1621 C 0.60014 0.58544 0.13199 0.0
C1622 C 0.58413 0.52896 0.10458 0.0
C1623 C 0.57842 0.57231 0.15835 0.0
C1624 C 0.53476 0.51306 0.14545 0.0
C1625 C 0.54021 0.50614 0.16146 0.0
C1626 C 0.54804 0.52667 0.13454 0.0
C1627 C 0.56719 0.53377 0.14011 0.0
C1628 C 0.57269 0.52614 0.1557 0.0
C1629 C 0.55907 0.51227 0.16612 0.0
C1630 C 0.54161 0.53421 0.11779 0.0
C1631 C 0.59299 0.53353 0.16226 0.0
H1632 H 0.60984 0.5634 0.09396 0.0
H1633 H 0.60424 0.59966 0.13884 0.0
H1634 H 0.58706 0.52076 0.11534 0.0
H1635 H 0.56892 0.52077 0.09985 0.0
H1636 H 0.59161 0.52972 0.09131 0.0
H1637 H 0.58433 0.58774 0.16357 0.0
H1638 H 0.56312 0.5656 0.15495 0.0
H1639 H 0.58091 0.56523 0.17074 0.0
H1640 H 0.52011 0.50813 0.14177 0.0
H1641 H 0.56324 0.50696 0.1786 0.0
H1642 H 0.54876 0.53447 0.1044 0.0
H1643 H 0.54527 0.54918 0.12244 0.0
H1644 H 0.52632 0.52544 0.11361 0.0
H1645 H 0.60049 0.53371 0.14921 0.0
H1646 H 0.59487 0.52475 0.17313 0.0
H1647 H 0.59958 0.54853 0.16935 0.0
C1648 C 0.44069 0.03161 0.05975 0.0
C1649 C 0.42135 0.01941 0.05551 0.0
C1650 C 0.44971 0.03374 0.07883 0.0
C1651 C 0.43912 0.02355 0.09404 0.0
C1652 C 0.41957 0.01156 0.08997 0.0
C1653 C 0.41095 0.00959 0.07078 0.0
C1654 C 0.4706 0.04657 0.08261 0.0
C1655 C 0.40774 0.00056 0.10582 0.0
C1656 C 0.46054 0.01117 0.13765 0.0
C1657 C 0.46237 0.02456 0.15313 0.0
C1658 C 0.45372 0.0112 0.11815 0.0
C1659 C 0.4484 0.02483 0.11408 0.0
C1660 C 0.45074 0.03875 0.12955 0.0
C1661 C 0.4578 0.03851 0.14889 0.0
C1662 C 0.45166 0.99627 0.10202 0.0
C1663 C 0.44507 0.05339 0.12585 0.0
H1664 H 0.44885 0.03923 0.04807 0.0
H1665 H 0.39599 0.00023 0.06773 0.0
H1666 H 0.47432 0.0575 0.09549 0.0
H1667 H 0.47703 0.03793 0.08653 0.0
H1668 H 0.47674 0.05404 0.06944 0.0
H1669 H 0.39264 0.99246 0.10046 0.0
H1670 H 0.41187 0.99027 0.11068 0.0
H1671 H 0.41005 0.01056 0.11913 0.0
H1672 H 0.4643 0.00053 0.14088 0.0
H1673 H 0.45909 0.04879 0.16088 0.0
H1674 H 0.45848 0.00322 0.0889 0.0
H1675 H 0.43668 0.98635 0.09694 0.0
H1676 H 0.45779 0.9877 0.10726 0.0
H1677 H 0.4516 0.0611 0.11296 0.0
H1678 H 0.44903 0.06408 0.13906 0.0
H1679 H 0.42975 0.04601 0.12203 0.0
C1680 C 0.41301 0.99415 0.95598 0.0
C1681 C 0.40606 0.98156 0.97066 0.0
C1682 C 0.42366 0.99203 0.94196 0.0
C1683 C 0.42781 0.97716 0.94283 0.0
C1684 C 0.42135 0.96472 0.95799 0.0
C1685 C 0.41033 0.96694 0.97166 0.0
C1686 C 0.43006 0.00546 0.92587 0.0
C1687 C 0.42591 0.949 0.95961 0.0
C1688 C 0.43934 0.96372 0.89326 0.0
C1689 C 0.45867 0.97591 0.89512 0.0
C1690 C 0.4291 0.96307 0.90919 0.0
C1691 C 0.43857 0.97463 0.92743 0.0
C1692 C 0.45826 0.98593 0.92975 0.0
C1693 C 0.46808 0.98663 0.91342 0.0
C1694 C 0.40811 0.95112 0.90601 0.0
C1695 C 0.46887 0.99812 0.94908 0.0
H1696 H 0.40965 0.00539 0.955 0.0
H1697 H 0.40502 0.95721 0.98302 0.0
H1698 H 0.44548 0.01327 0.9266 0.0
H1699 H 0.42449 0.9971 0.91093 0.0
H1700 H 0.42548 0.01616 0.92721 0.0
H1701 H 0.42084 0.94135 0.97299 0.0
H1702 H 0.41948 0.93842 0.94613 0.0
H1703 H 0.44119 0.95508 0.96031 0.0
H1704 H 0.43216 0.95547 0.87901 0.0
H1705 H 0.4831 0.99589 0.9148 0.0
H1706 H 0.40224 0.96074 0.9056 0.0
H1707 H 0.40264 0.94234 0.91856 0.0
H1708 H 0.40304 0.94142 0.89183 0.0
H1709 H 0.46682 0.01062 0.95089 0.0
H1710 H 0.48405 0.00355 0.94949 0.0
H1711 H 0.46358 0.98982 0.96199 0.0
C1712 C 0.01703 0.39966 0.95121 0.0
C1713 C 0.02865 0.40153 0.96816 0.0
C1714 C 0.01857 0.41582 0.94309 0.0
C1715 C 0.03217 0.43437 0.95205 0.0
C1716 C 0.0441 0.43642 0.96906 0.0
C1717 C 0.04221 0.41994 0.97693 0.0
C1718 C 0.00559 0.41299 0.9249 0.0
C1719 C 0.05881 0.456 0.97893 0.0
C1720 C 0.04404 0.47297 0.91733 0.0
C1721 C 0.03235 0.47997 0.92253 0.0
C1722 C 0.04493 0.45887 0.92759 0.0
C1723 C 0.03377 0.45149 0.94335 0.0
C1724 C 0.02262 0.45913 0.9493 0.0
C1725 C 0.02207 0.47331 0.93884 0.0
C1726 C 0.05703 0.45113 0.92082 0.0
C1727 C 0.01053 0.45165 0.96606 0.0
H1728 H 0.0067 0.38551 0.94416 0.0
H1729 H 0.05125 0.42148 0.99002 0.0
H1730 H 0.99748 0.42008 0.92822 0.0
H1731 H 0.01377 0.4198 0.91244 0.0
H1732 H 0.99569 0.39759 0.91984 0.0
H1733 H 0.06705 0.45515 0.99197 0.0
H1734 H 0.06844 0.46421 0.96802 0.0
H1735 H 0.05218 0.46422 0.98399 0.0
H1736 H 0.05187 0.47784 0.90461 0.0
H1737 H 0.01324 0.47888 0.94316 0.0
H1738 H 0.04808 0.43622 0.91358 0.0
H1739 H 0.06557 0.45064 0.93378 0.0
H1740 H 0.06647 0.4599 0.91 0.0
H1741 H -0.00078 0.43663 0.96147 0.0
H1742 H 0.00413 0.46037 0.97015 0.0
H1743 H 0.0188 0.4515 0.97949 0.0
C1744 C 0.57915 0.61026 0.04062 0.0
C1745 C 0.59827 0.6169 0.04453 0.0
C1746 C 0.57031 0.6049 0.02098 0.0
C1747 C 0.58082 0.60629 0.00486 0.0
C1748 C 0.60019 0.61348 0.00865 0.0
C1749 C 0.60866 0.61865 0.0284 0.0
C1750 C 0.54962 0.59728 0.01752 0.0
C1751 C 0.61192 0.61527 0.99186 0.0
C1752 C 0.55755 0.57406 0.95624 0.0
C1753 C 0.55654 0.58673 0.9437 0.0
C1754 C 0.56493 0.58011 0.97632 0.0
C1755 C 0.57151 0.59934 0.98407 0.0
C1756 C 0.57005 0.61207 0.97163 0.0
C1757 C 0.56254 0.6056 0.95159 0.0
C1758 C 0.5661 0.56604 0.98912 0.0
C1759 C 0.57697 0.63269 0.97933 0.0
H1760 H 0.57098 0.60885 0.05294 0.0
H1761 H 0.62344 0.62388 0.03118 0.0
H1762 H 0.54671 0.60547 0.00672 0.0
H1763 H 0.54236 0.58208 0.01091 0.0
H1764 H 0.54363 0.59809 0.03154 0.0
H1765 H 0.62695 0.62202 0.99723 0.0
H1766 H 0.60714 0.60084 0.98405 0.0
H1767 H 0.61027 0.62396 0.98072 0.0
H1768 H 0.55265 0.55938 0.95029 0.0
H1769 H 0.5619 0.61548 0.94191 0.0
H1770 H 0.55922 0.56535 0.00284 0.0
H1771 H 0.58091 0.57096 0.99389 0.0
H1772 H 0.55949 0.55136 0.98113 0.0
H1773 H 0.57065 0.63335 0.99311 0.0
H1774 H 0.57373 0.64039 0.96816 0.0
H1775 H 0.59228 0.64034 0.98329 0.0
C1776 C 0.00941 0.629 0.01479 0.0
C1777 C 0.0214 0.63352 0.03235 0.0
C1778 C 0.01134 0.61996 0.99742 0.0
C1779 C 0.02567 0.61542 0.99755 0.0
C1780 C 0.03834 0.62074 0.0149 0.0
C1781 C 0.03604 0.62968 0.03209 0.0
C1782 C 0.99755 0.61453 0.97919 0.0
C1783 C 0.05391 0.61632 0.01556 0.0
C1784 C 0.01704 0.573 0.96178 0.0
C1785 C 0.02724 0.58208 0.94611 0.0
C1786 C 0.0166 0.58371 0.97867 0.0
C1787 C 0.02663 0.60401 0.97998 0.0
C1788 C 0.03725 0.61329 0.96441 0.0
C1789 C 0.03741 0.60221 0.94765 0.0
C1790 C 0.00517 0.57326 0.99501 0.0
C1791 C 0.04812 0.6349 0.96527 0.0
H1792 H 0.99806 0.63189 0.01479 0.0
H1793 H 0.04547 0.63322 0.0455 0.0
H1794 H 0.00498 0.61996 0.96588 0.0
H1795 H 0.98903 0.59866 0.97617 0.0
H1796 H 0.98804 0.62025 0.98103 0.0
H1797 H 0.06346 0.62276 0.02961 0.0
H1798 H 0.04796 0.60055 0.01426 0.0
H1799 H 0.06213 0.62173 0.00275 0.0
H1800 H 0.00933 0.55746 0.96078 0.0
H1801 H 0.0451 0.60933 0.93547 0.0
H1802 H 0.99419 0.57696 0.99684 0.0
H1803 H 0.01413 0.57786 0.00943 0.0
H1804 H 0.99841 0.55743 0.99185 0.0
H1805 H 0.03845 0.64053 0.96551 0.0
H1806 H 0.0563 0.63991 0.95234 0.0
H1807 H 0.0578 0.64119 0.97922 0.0
C1808 C 0.3947 0.44249 0.95971 0.0
C1809 C 0.39325 0.42489 0.95345 0.0
C1810 C 0.40777 0.45952 0.95248 0.0
C1811 C 0.41967 0.45888 0.93881 0.0
C1812 C 0.41857 0.44124 0.93286 0.0
C1813 C 0.4053 0.42447 0.94015 0.0
C1814 C 0.40849 0.47807 0.95902 0.0
C1815 C 0.43112 0.43999 0.9184 0.0
C1816 C 0.44081 0.49418 0.90092 0.0
C1817 C 0.45956 0.50478 0.90895 0.0
C1818 C 0.42735 0.48006 0.91121 0.0
C1819 C 0.43282 0.47634 0.92989 0.0
C1820 C 0.45145 0.48783 0.93868 0.0
C1821 C 0.46461 0.50199 0.92812 0.0
C1822 C 0.40756 0.4682 0.90142 0.0
C1823 C 0.4578 0.48431 0.95859 0.0
H1824 H 0.38539 0.44291 0.96996 0.0
H1825 H 0.40419 0.41096 0.93508 0.0
H1826 H 0.42292 0.48929 0.96489 0.0
H1827 H 0.40435 0.48331 0.94599 0.0
H1828 H 0.39912 0.47637 0.97069 0.0
H1829 H 0.42912 0.42534 0.91608 0.0
H1830 H 0.42832 0.44404 0.90374 0.0
H1831 H 0.44594 0.45022 0.92394 0.0
H1832 H 0.43681 0.49611 0.88605 0.0
H1833 H 0.47901 0.5104 0.93457 0.0
H1834 H 0.39757 0.46672 0.91224 0.0
H1835 H 0.4046 0.45356 0.89631 0.0
H1836 H 0.40504 0.47456 0.88833 0.0
H1837 H 0.44803 0.48284 0.96968 0.0
H1838 H 0.47202 0.49603 0.96455 0.0
H1839 H 0.45789 0.47064 0.95688 0.0
C1840 C 0.5964 0.99187 0.99718 0.0
C1841 C 0.58656 0.9899 0.01377 0.0
C1842 C 0.58797 0.9897 0.97781 0.0
C1843 C 0.56953 0.98625 0.97511 0.0
C1844 C 0.55953 0.98418 0.99186 0.0
C1845 C 0.56807 0.98567 0.011 0.0
C1846 C 0.59888 0.99134 0.96028 0.0
C1847 C 0.54011 0.9812 0.98968 0.0
C1848 C 0.55738 0.00287 0.92819 0.0
C1849 C 0.54587 0.98546 0.91608 0.0
C1850 C 0.56469 0.00324 0.94759 0.0
C1851 C 0.56113 0.98586 0.95488 0.0
C1852 C 0.54983 0.96826 0.94275 0.0
C1853 C 0.54204 0.96823 0.92369 0.0
C1854 C 0.5763 0.0223 0.96025 0.0
C1855 C 0.54616 0.94947 0.94981 0.0
H1856 H 0.61068 0.99501 0.99938 0.0
H1857 H 0.56056 0.98435 0.0239 0.0
H1858 H 0.59058 0.9788 0.9489 0.0
H1859 H 0.6018 0.00437 0.95309 0.0
H1860 H 0.61234 0.99222 0.96477 0.0
H1861 H 0.53408 0.97945 0.00414 0.0
H1862 H 0.54043 0.99369 0.98341 0.0
H1863 H 0.53074 0.96833 0.97907 0.0
H1864 H 0.56096 0.01636 0.92249 0.0
H1865 H 0.53292 0.95463 0.91479 0.0
H1866 H 0.59083 0.02545 0.96326 0.0
H1867 H 0.57078 0.02172 0.97488 0.0
H1868 H 0.57655 0.03433 0.95296 0.0
H1869 H 0.55957 0.9501 0.95385 0.0
H1870 H 0.53761 0.93709 0.9383 0.0
H1871 H 0.53884 0.94689 0.96343 0.0
C1872 C 0.58736 0.01077 0.10873 0.0
C1873 C 0.59773 0.02603 0.09761 0.0
C1874 C 0.57615 0.01202 0.12261 0.0
C1875 C 0.5753 0.02899 0.12551 0.0
C1876 C 0.58506 0.04416 0.11374 0.0
C1877 C 0.59621 0.04251 0.0999 0.0
C1878 C 0.5659 0.99548 0.13482 0.0
C1879 C 0.58434 0.06241 0.11637 0.0
C1880 C 0.53589 0.02324 0.15476 0.0
C1881 C 0.54489 0.02928 0.17428 0.0
C1882 C 0.54583 0.02413 0.13848 0.0
C1883 C 0.56517 0.03112 0.14187 0.0
C1884 C 0.57448 0.03811 0.16144 0.0
C1885 C 0.56421 0.03712 0.17743 0.0
C1886 C 0.53546 0.0167 0.11781 0.0
C1887 C 0.5951 0.04563 0.16566 0.0
H1888 H 0.58847 0.99802 0.10717 0.0
H1889 H 0.60419 0.05437 0.09136 0.0
H1890 H 0.57155 0.00011 0.15077 0.0
H1891 H 0.5509 0.99094 0.13379 0.0
H1892 H 0.56715 0.98287 0.1299 0.0
H1893 H 0.59104 0.07193 0.10465 0.0
H1894 H 0.5697 0.05905 0.11603 0.0
H1895 H 0.5916 0.07035 0.13116 0.0
H1896 H 0.52099 0.0175 0.15226 0.0
H1897 H 0.57118 0.04172 0.19251 0.0
H1898 H 0.53476 0.00303 0.11279 0.0
H1899 H 0.54294 0.02703 0.10701 0.0
H1900 H 0.52103 0.01406 0.11735 0.0
H1901 H 0.59786 0.03368 0.1629 0.0
H1902 H 0.60052 0.05221 0.18132 0.0
H1903 H 0.60298 0.05648 0.15548 0.0
C1904 C 0.96394 0.58695 0.09076 0.0
C1905 C 0.97962 0.60492 0.0975 0.0
C1906 C 0.96125 0.57024 0.09874 0.0
C1907 C 0.97463 0.57153 0.11368 0.0
C1908 C 0.99058 0.58958 0.12034 0.0
C1909 C 0.9928 0.60604 0.11229 0.0
C1910 C 0.94396 0.55126 0.09145 0.0
C1911 C 0.00524 0.59157 0.13617 0.0
C1912 C 0.96271 0.53496 0.15085 0.0
C1913 C 0.97059 0.52436 0.1435 0.0
C1914 C 0.9631 0.54973 0.14073 0.0
C1915 C 0.97182 0.55422 0.12295 0.0
C1916 C 0.97923 0.54318 0.11504 0.0
C1917 C 0.97844 0.52831 0.12536 0.0
C1918 C 0.95494 0.5611 0.1496 0.0
C1919 C 0.98871 0.5476 0.09616 0.0
H1920 H 0.95365 0.58596 0.07938 0.0
H1921 H 0.00482 0.61983 0.11781 0.0
H1922 H 0.94785 0.54073 0.08583 0.0
H1923 H 0.93555 0.54535 0.10403 0.0
H1924 H 0.93515 0.55259 0.07937 0.0
H1925 H 0.01723 0.6065 0.13907 0.0
H1926 H 0.99904 0.58717 0.15035 0.0
H1927 H 0.01052 0.58193 0.13159 0.0
H1928 H 0.95688 0.53227 0.165 0.0
H1929 H 0.98431 0.52002 0.1194 0.0
H1930 H 0.94558 0.56225 0.13808 0.0
H1931 H 0.96631 0.57589 0.15501 0.0
H1932 H 0.94697 0.55454 0.1623 0.0
H1933 H 0.97957 0.54827 0.08398 0.0
H1934 H 0.99245 0.53676 0.09114 0.0
H1935 H 0.00162 0.56189 0.09873 0.0
C1936 C 0.42281 0.40322 0.02426 0.0
C1937 C 0.40415 0.38858 0.01996 0.0
C1938 C 0.43144 0.40871 0.04397 0.0
C1939 C 0.42131 0.39889 0.05962 0.0
C1940 C 0.40273 0.38346 0.05518 0.0
C1941 C 0.39426 0.37873 0.03544 0.0
C1942 C 0.45105 0.42562 0.04814 0.0
C1943 C 0.39167 0.37224 0.07135 0.0
C1944 C 0.44867 0.40564 0.10968 0.0
C1945 C 0.44532 0.41855 0.12102 0.0
C1946 C 0.44073 0.39886 0.08978 0.0
C1947 C 0.42967 0.40562 0.08074 0.0
C1948 C 0.42648 0.41886 0.09192 0.0
C1949 C 0.434 0.42483 0.11195 0.0
C1950 C 0.44404 0.38435 0.07849 0.0
C1951 C 0.41508 0.42674 0.08272 0.0
H1952 H 0.43042 0.41097 0.01231 0.0
H1953 H 0.37986 0.36731 0.03208 0.0
H1954 H 0.45101 0.43736 0.0575 0.0
H1955 H 0.4601 0.42155 0.05667 0.0
H1956 H 0.45727 0.43121 0.03424 0.0
H1957 H 0.37817 0.35944 0.06517 0.0
H1958 H 0.39981 0.36748 0.08049 0.0
H1959 H 0.3888 0.38154 0.08149 0.0
H1960 H 0.45758 0.40084 0.11627 0.0
H1961 H 0.43076 0.43432 0.12054 0.0
H1962 H 0.45149 0.3904 0.06537 0.0
H1963 H 0.43051 0.37139 0.07277 0.0
H1964 H 0.45233 0.37993 0.08791 0.0
H1965 H 0.42078 0.43315 0.06893 0.0
H1966 H 0.41488 0.43783 0.09306 0.0
H1967 H 0.40053 0.41495 0.07841 0.0
C1968 C 0.63602 0.71845 0.37263 0.0
C1969 C 0.64739 0.71025 0.37245 0.0
C1970 C 0.63323 0.7259 0.39056 0.0
C1971 C 0.64192 0.72506 0.40884 0.0
C1972 C 0.65299 0.71636 0.40887 0.0
C1973 C 0.65564 0.7091 0.39069 0.0
C1974 C 0.62138 0.73513 0.38989 0.0
C1975 C 0.66238 0.71508 0.42809 0.0
C1976 C 0.65103 0.7619 0.4523 0.0
C1977 C 0.63629 0.75131 0.46356 0.0
C1978 C 0.65302 0.75351 0.4345 0.0
C1979 C 0.64001 0.73402 0.42782 0.0
C1980 C 0.62508 0.72324 0.43911 0.0
C1981 C 0.62337 0.73204 0.45681 0.0
C1982 C 0.66901 0.76555 0.42279 0.0
C1983 C 0.61101 0.7024 0.43255 0.0
H1984 H 0.62957 0.71944 0.35867 0.0
H1985 H 0.66439 0.70276 0.39077 0.0
H1986 H 0.61007 0.72832 0.39964 0.0
H1987 H 0.63 0.75054 0.39567 0.0
H1988 H 0.61504 0.734 0.37453 0.0
H1989 H 0.66975 0.70701 0.42567 0.0
H1990 H 0.67261 0.72972 0.43525 0.0
H1991 H 0.65194 0.70795 0.4387 0.0
H1992 H 0.66095 0.77685 0.45735 0.0
H1993 H 0.61209 0.72374 0.4656 0.0
H1994 H 0.66358 0.76605 0.40756 0.0
H1995 H 0.67779 0.75895 0.42112 0.0
H1996 H 0.67794 0.78048 0.43005 0.0
H1997 H 0.60391 0.70094 0.41755 0.0
H1998 H 0.6003 0.69599 0.44307 0.0
H1999 H 0.61817 0.69402 0.4313 0.0
C2000 C 0.26433 0.91848 0.46978 0.0
C2001 C 0.27188 0.91595 0.45268 0.0
C2002 C 0.25164 0.90273 0.47895 0.0
C2003 C 0.24611 0.88394 0.47059 0.0
C2004 C 0.25328 0.88123 0.45301 0.0
C2005 C 0.26626 0.89732 0.44434 0.0
C2006 C 0.24448 0.90623 0.49784 0.0
C2007 C 0.24739 0.86137 0.4435 0.0
C2008 C 0.22788 0.84661 0.50715 0.0
C2009 C 0.20872 0.83966 0.50404 0.0
C2010 C 0.24022 0.86051 0.49575 0.0
C2011 C 0.23312 0.86728 0.4807 0.0
C2012 C 0.21365 0.85946 0.47677 0.0
C2013 C 0.20168 0.84586 0.48867 0.0
C2014 C 0.26091 0.86873 0.5006 0.0
C2015 C 0.20554 0.86606 0.46061 0.0
H2016 H 0.26872 0.93286 0.47638 0.0
H2017 H 0.27202 0.89532 0.43106 0.0
H2018 H 0.22907 0.89898 0.49574 0.0
H2019 H 0.24828 0.90001 0.51021 0.0
H2020 H 0.25019 0.92174 0.50239 0.0
H2021 H 0.2535 0.8617 0.42928 0.0
H2022 H 0.25176 0.85394 0.4539 0.0
H2023 H 0.23198 0.85271 0.44051 0.0
H2024 H 0.23326 0.84184 0.51916 0.0
H2025 H 0.1868 0.8403 0.48621 0.0
H2026 H 0.26751 0.884 0.50684 0.0
H2027 H 0.26739 0.86836 0.48686 0.0
H2028 H 0.26407 0.86085 0.51161 0.0
H2029 H 0.20912 0.88104 0.46501 0.0
H2030 H 0.19014 0.85691 0.45784 0.0
H2031 H 0.21158 0.86596 0.44646 0.0
C2032 C 0.11486 0.36083 0.39927 0.0
C2033 C 0.09549 0.34955 0.39431 0.0
C2034 C 0.12282 0.36448 0.41915 0.0
C2035 C 0.11113 0.35681 0.43444 0.0
C2036 C 0.09159 0.34553 0.42957 0.0
C2037 C 0.08402 0.34198 0.40958 0.0
C2038 C 0.14373 0.37645 0.42377 0.0
C2039 C 0.07867 0.33719 0.4455 0.0
C2040 C 0.13033 0.35004 0.48374 0.0
C2041 C 0.13277 0.36582 0.49619 0.0
C2042 C 0.12372 0.34719 0.46349 0.0
C2043 C 0.11929 0.36035 0.45556 0.0
C2044 C 0.12205 0.37651 0.46798 0.0
C2045 C 0.12885 0.37911 0.48816 0.0
C2046 C 0.12121 0.32993 0.45066 0.0
C2047 C 0.11738 0.39079 0.46008 0.0
H2048 H 0.12386 0.3667 0.38759 0.0
H2049 H 0.06904 0.33333 0.40594 0.0
H2050 H 0.14754 0.3892 0.43438 0.0
H2051 H 0.14905 0.36799 0.4311 0.0
H2052 H 0.15087 0.38139 0.41017 0.0
H2053 H 0.06377 0.329 0.43928 0.0
H2054 H 0.08195 0.32747 0.4534 0.0
H2055 H 0.08073 0.34885 0.45677 0.0
H2056 H 0.13362 0.33991 0.48989 0.0
H2057 H 0.13063 0.39125 0.49782 0.0
H2058 H 0.12895 0.33453 0.4374 0.0
H2059 H 0.10627 0.32035 0.44512 0.0
H2060 H 0.1261 0.32156 0.4589 0.0
H2061 H 0.12496 0.39662 0.44697 0.0
H2062 H 0.12094 0.40294 0.47151 0.0
H2063 H 0.10227 0.38352 0.45499 0.0
C2064 C 0.06966 0.28405 0.30391 0.0
C2065 C 0.07773 0.30337 0.31151 0.0
C2066 C 0.07716 0.27861 0.28846 0.0
C2067 C 0.09313 0.29285 0.28071 0.0
C2068 C 0.10231 0.31206 0.2897 0.0
C2069 C 0.09443 0.31709 0.30495 0.0
C2070 C 0.06709 0.25797 0.27937 0.0
C2071 C 0.11961 0.32763 0.28215 0.0
C2072 C 0.12016 0.28282 0.24348 0.0
C2073 C 0.11386 0.28704 0.22584 0.0
C2074 C 0.1128 0.28354 0.26143 0.0
C2075 C 0.0988 0.28852 0.26158 0.0
C2076 C 0.09158 0.29156 0.24351 0.0
C2077 C 0.09929 0.29089 0.22586 0.0
C2078 C 0.12086 0.28023 0.28037 0.0
C2079 C 0.07648 0.29667 0.243 0.0
H2080 H 0.05675 0.27337 0.30898 0.0
H2081 H 0.10092 0.33196 0.31105 0.0
H2082 H 0.05924 0.25663 0.2649 0.0
H2083 H 0.07711 0.25316 0.27632 0.0
H2084 H 0.05708 0.24822 0.2892 0.0
H2085 H 0.1263 0.34123 0.29229 0.0
H2086 H 0.12991 0.32295 0.28042 0.0
H2087 H 0.11589 0.33055 0.26723 0.0
H2088 H 0.13156 0.27999 0.24348 0.0
H2089 H 0.09433 0.29397 0.21214 0.0
H2090 H 0.10965 0.27106 0.28942 0.0
H2091 H 0.13 0.29419 0.28952 0.0
H2092 H 0.12925 0.27339 0.27726 0.0
H2093 H 0.06462 0.28635 0.25061 0.0
H2094 H 0.07119 0.29675 0.22751 0.0
H2095 H 0.08202 0.31114 0.25111 0.0
C2096 C 0.67894 0.74287 0.30208 0.0
C2097 C 0.69272 0.73834 0.30705 0.0
C2098 C 0.68301 0.75905 0.29226 0.0
C2099 C 0.70123 0.77078 0.28698 0.0
C2100 C 0.71539 0.76669 0.29265 0.0
C2101 C 0.71099 0.75058 0.30285 0.0
C2102 C 0.66763 0.76319 0.28691 0.0
C2103 C 0.73492 0.77871 0.28707 0.0
C2104 C 0.70332 0.79643 0.2413 0.0
C2105 C 0.70918 0.81502 0.24988 0.0
C2106 C 0.70135 0.78209 0.2532 0.0
C2107 C 0.70499 0.78639 0.27423 0.0
C2108 C 0.71121 0.80526 0.28296 0.0
C2109 C 0.71341 0.81944 0.27063 0.0
C2110 C 0.69499 0.76224 0.24328 0.0
C2111 C 0.71493 0.81031 0.30531 0.0
H2112 H 0.66493 0.73371 0.30577 0.0
H2113 H 0.72164 0.74705 0.30668 0.0
H2114 H 0.67223 0.77837 0.29192 0.0
H2115 H 0.66426 0.76106 0.27046 0.0
H2116 H 0.65472 0.75375 0.2937 0.0
H2117 H 0.74464 0.77456 0.29395 0.0
H2118 H 0.73474 0.77702 0.2706 0.0
H2119 H 0.74037 0.79414 0.29173 0.0
H2120 H 0.70026 0.79311 0.22522 0.0
H2121 H 0.71786 0.83383 0.27722 0.0
H2122 H 0.6811 0.75188 0.24759 0.0
H2123 H 0.70477 0.75747 0.24839 0.0
H2124 H 0.69403 0.76163 0.22674 0.0
H2125 H 0.7018 0.80204 0.31218 0.0
H2126 H 0.72062 0.82585 0.30967 0.0
H2127 H 0.72491 0.80626 0.31162 0.0
C2128 C 0.24259 0.94478 0.37844 0.0
C2129 C 0.26168 0.95119 0.38201 0.0
C2130 C 0.23364 0.94014 0.35887 0.0
C2131 C 0.24404 0.94207 0.3425 0.0
C2132 C 0.26339 0.94906 0.34599 0.0
C2133 C 0.27194 0.95347 0.36566 0.0
C2134 C 0.21297 0.93268 0.35573 0.0
C2135 C 0.27501 0.95144 0.32894 0.0
C2136 C 0.22087 0.91162 0.29294 0.0
C2137 C 0.21997 0.92483 0.28115 0.0
C2138 C 0.22807 0.91688 0.31312 0.0
C2139 C 0.23464 0.93586 0.32171 0.0
C2140 C 0.23326 0.94912 0.31004 0.0
C2141 C 0.22587 0.94342 0.28989 0.0
C2142 C 0.22912 0.90225 0.32509 0.0
C2143 C 0.24018 0.9695 0.31865 0.0
H2144 H 0.23452 0.94296 0.39094 0.0
H2145 H 0.28672 0.95856 0.3682 0.0
H2146 H 0.21006 0.94128 0.3455 0.0
H2147 H 0.20561 0.91766 0.34857 0.0
H2148 H 0.20709 0.93305 0.36995 0.0
H2149 H 0.29004 0.95799 0.33415 0.0
H2150 H 0.27012 0.93725 0.32051 0.0
H2151 H 0.27336 0.96059 0.31841 0.0
H2152 H 0.21603 0.89714 0.28631 0.0
H2153 H 0.22529 0.9537 0.28078 0.0
H2154 H 0.22235 0.90115 0.33896 0.0
H2155 H 0.24392 0.90691 0.32959 0.0
H2156 H 0.22235 0.88779 0.31655 0.0
H2157 H 0.23394 0.96964 0.33264 0.0
H2158 H 0.23688 0.97762 0.30807 0.0
H2159 H 0.25551 0.97708 0.32248 0.0
C2160 C 0.70458 0.95433 0.36847 0.0
C2161 C 0.68847 0.95576 0.36689 0.0
C2162 C 0.70969 0.94724 0.35203 0.0
C2163 C 0.69836 0.9413 0.33357 0.0
C2164 C 0.68231 0.94307 0.33172 0.0
C2165 C 0.6776 0.95036 0.34838 0.0
C2166 C 0.72703 0.94577 0.35453 0.0
C2167 C 0.66984 0.9368 0.31227 0.0
C2168 C 0.71799 0.93582 0.28592 0.0
C2169 C 0.71064 0.91591 0.28303 0.0
C2170 C 0.71434 0.94433 0.30245 0.0
C2171 C 0.70297 0.93263 0.31637 0.0
C2172 C 0.69576 0.91257 0.31373 0.0
C2173 C 0.69973 0.90446 0.29712 0.0
C2174 C 0.72234 0.96579 0.3048 0.0
C2175 C 0.68359 0.89961 0.32826 0.0
H2176 H 0.71316 0.95858 0.38266 0.0
H2177 H 0.66511 0.95135 0.347 0.0
H2178 H 0.72321 0.93051 0.35206 0.0
H2179 H 0.73643 0.95345 0.34322 0.0
H2180 H 0.7348 0.95184 0.36961 0.0
H2181 H 0.65823 0.93972 0.3131 0.0
H2182 H 0.67805 0.94429 0.30009 0.0
H2183 H 0.66386 0.92118 0.30819 0.0
H2184 H 0.72615 0.94473 0.27491 0.0
H2185 H 0.69415 0.88909 0.29508 0.0
H2186 H 0.73048 0.97211 0.31965 0.0
H2187 H 0.71088 0.969 0.30403 0.0
H2188 H 0.73151 0.97293 0.29309 0.0
H2189 H 0.69111 0.90423 0.34352 0.0
H2190 H 0.67928 0.88434 0.3242 0.0
H2191 H 0.6709 0.90071 0.32876 0.0
C2192 C 0.07899 0.76299 0.28344 0.0
C2193 C 0.06643 0.76217 0.29673 0.0
C2194 C 0.09099 0.78014 0.2758 0.0
C2195 C 0.09035 0.7969 0.28149 0.0
C2196 C 0.0781 0.79635 0.29534 0.0
C2197 C 0.06626 0.77895 0.30284 0.0
C2198 C 0.10395 0.78015 0.26113 0.0
C2199 C 0.07706 0.81396 0.30173 0.0
C2200 C 0.13246 0.84185 0.26875 0.0
C2201 C 0.12617 0.84343 0.24959 0.0
C2202 C 0.12053 0.82754 0.28005 0.0
C2203 C 0.1019 0.81457 0.27196 0.0
C2204 C 0.09512 0.81703 0.2533 0.0
C2205 C 0.10736 0.83143 0.24231 0.0
C2206 C 0.12823 0.82547 0.29996 0.0
C2207 C 0.07531 0.80354 0.24422 0.0
H2208 H 0.07917 0.75011 0.27853 0.0
H2209 H 0.05657 0.77841 0.3131 0.0
H2210 H 0.10019 0.78341 0.24642 0.0
H2211 H 0.11851 0.79151 0.26631 0.0
H2212 H 0.10338 0.76615 0.25904 0.0
H2213 H 0.06803 0.8116 0.3139 0.0
H2214 H 0.09119 0.82628 0.30684 0.0
H2215 H 0.07143 0.81801 0.28879 0.0
H2216 H 0.14693 0.85134 0.27457 0.0
H2217 H 0.10244 0.83248 0.22746 0.0
H2218 H 0.12996 0.81274 0.29848 0.0
H2219 H 0.11845 0.8231 0.31131 0.0
H2220 H 0.14197 0.83827 0.30545 0.0
H2221 H 0.07356 0.78931 0.23947 0.0
H2222 H 0.07155 0.8089 0.231 0.0
H2223 H 0.0654 0.80139 0.25535 0.0
C2224 C 0.22377 0.31129 0.35075 0.0
C2225 C 0.24276 0.3173 0.35353 0.0
C2226 C 0.21456 0.30777 0.33147 0.0
C2227 C 0.22448 0.30971 0.31466 0.0
C2228 C 0.24346 0.31492 0.31745 0.0
C2229 C 0.25246 0.31899 0.33686 0.0
C2230 C 0.19449 0.30284 0.32913 0.0
C2231 C 0.25438 0.31659 0.29992 0.0
C2232 C 0.19779 0.28792 0.26319 0.0
C2233 C 0.20038 0.30427 0.25445 0.0
C2234 C 0.20548 0.28941 0.2828 0.0
C2235 C 0.21547 0.30759 0.29421 0.0
C2236 C 0.21758 0.32402 0.28579 0.0
C2237 C 0.21036 0.32223 0.26597 0.0
C2238 C 0.20332 0.27162 0.29112 0.0
C2239 C 0.22781 0.34363 0.29761 0.0
H2240 H 0.21632 0.31014 0.36367 0.0
H2241 H 0.26712 0.32347 0.33904 0.0
H2242 H 0.19349 0.31445 0.32231 0.0
H2243 H 0.18587 0.28945 0.31894 0.0
H2244 H 0.18851 0.301 0.34363 0.0
H2245 H 0.26844 0.31894 0.3046 0.0
H2246 H 0.24673 0.30339 0.28924 0.0
H2247 H 0.25607 0.32877 0.29183 0.0
H2248 H 0.18983 0.27391 0.25471 0.0
H2249 H 0.21296 0.3351 0.25942 0.0
H2250 H 0.19646 0.26944 0.30504 0.0
H2251 H 0.21726 0.27343 0.29503 0.0
H2252 H 0.19502 0.25853 0.28038 0.0
H2253 H 0.22218 0.34306 0.31218 0.0
H2254 H 0.22671 0.35462 0.28955 0.0
H2255 H 0.24276 0.34831 0.30079 0.0
C2256 C 0.25663 0.37819 0.43592 0.0
C2257 C 0.25789 0.36153 0.43496 0.0
C2258 C 0.2467 0.38147 0.45021 0.0
C2259 C 0.23793 0.36779 0.4638 0.0
C2260 C 0.23839 0.35054 0.46221 0.0
C2261 C 0.24835 0.34764 0.44783 0.0
C2262 C 0.24634 0.39994 0.45137 0.0
C2263 C 0.22915 0.33554 0.47637 0.0
C2264 C 0.23202 0.38179 0.51618 0.0
C2265 C 0.21274 0.37432 0.51491 0.0
C2266 C 0.24056 0.38067 0.49933 0.0
C2267 C 0.22955 0.37194 0.48078 0.0
C2268 C 0.21023 0.36529 0.47919 0.0
C2269 C 0.20203 0.3665 0.49632 0.0
C2270 C 0.26121 0.38789 0.50164 0.0
C2271 C 0.19807 0.3561 0.45963 0.0
H2272 H 0.26395 0.38899 0.42601 0.0
H2273 H 0.24925 0.33475 0.44728 0.0
H2274 H 0.23195 0.39702 0.45234 0.0
H2275 H 0.25499 0.40926 0.46509 0.0
H2276 H 0.2518 0.40794 0.43828 0.0
H2277 H 0.22974 0.32237 0.47227 0.0
H2278 H 0.23614 0.34152 0.49176 0.0
H2279 H 0.21435 0.33146 0.47659 0.0
H2280 H 0.24031 0.38777 0.53055 0.0
H2281 H 0.18716 0.36103 0.49525 0.0
H2282 H 0.26811 0.39748 0.49007 0.0
H2283 H 0.2635 0.37556 0.49953 0.0
H2284 H 0.26804 0.39582 0.51658 0.0
H2285 H 0.20453 0.36499 0.44741 0.0
H2286 H 0.18391 0.35401 0.4603 0.0
H2287 H 0.19667 0.34189 0.45574 0.0
C2288 C 0.65378 0.92829 0.44585 0.0
C2289 C 0.64146 0.92664 0.42971 0.0
C2290 C 0.65092 0.91221 0.4552 0.0
C2291 C 0.63521 0.89401 0.44844 0.0
C2292 C 0.62276 0.89217 0.43207 0.0
C2293 C 0.62607 0.90851 0.42285 0.0
C2294 C 0.66458 0.91476 0.47257 0.0
C2295 C 0.60576 0.87303 0.42458 0.0
C2296 C 0.637 0.85093 0.46491 0.0
C2297 C 0.62759 0.84759 0.48206 0.0
C2298 C 0.63911 0.86562 0.45342 0.0
C2299 C 0.6315 0.87715 0.45914 0.0
C2300 C 0.62139 0.87339 0.47597 0.0
C2301 C 0.61965 0.85875 0.48728 0.0
C2302 C 0.65004 0.86926 0.43561 0.0
C2303 C 0.613 0.88531 0.48252 0.0
H2304 H 0.66558 0.94223 0.45143 0.0
H2305 H 0.61645 0.90711 0.41041 0.0
H2306 H 0.65744 0.91106 0.48631 0.0
H2307 H 0.66996 0.90488 0.46974 0.0
H2308 H 0.67658 0.92969 0.47535 0.0
H2309 H 0.59783 0.87387 0.41123 0.0
H2310 H 0.60988 0.86226 0.42075 0.0
H2311 H 0.5964 0.86773 0.43653 0.0
H2312 H 0.64296 0.84222 0.46061 0.0
H2313 H 0.61264 0.85654 0.50068 0.0
H2314 H 0.66291 0.88357 0.43838 0.0
H2315 H 0.6418 0.86944 0.42217 0.0
H2316 H 0.65403 0.85826 0.43239 0.0
H2317 H 0.62428 0.90022 0.48762 0.0
H2318 H 0.60423 0.87951 0.49488 0.0
H2319 H 0.60435 0.88599 0.4698 0.0
C2320 C 0.0683 0.71485 0.37869 0.0
C2321 C 0.07844 0.72576 0.36388 0.0
C2322 C 0.07621 0.71902 0.39864 0.0
C2323 C 0.09442 0.73491 0.40397 0.0
C2324 C 0.10474 0.74588 0.38901 0.0
C2325 C 0.09673 0.74096 0.36908 0.0
C2326 C 0.06498 0.70661 0.41404 0.0
C2327 C 0.12395 0.76329 0.39417 0.0
C2328 C 0.10546 0.75814 0.45742 0.0
C2329 C 0.11724 0.75214 0.46591 0.0
C2330 C 0.09824 0.7529 0.43725 0.0
C2331 C 0.10225 0.74071 0.42533 0.0
C2332 C 0.11374 0.73419 0.4338 0.0
C2333 C 0.12134 0.74024 0.45386 0.0
C2334 C 0.08637 0.76051 0.42868 0.0
C2335 C 0.11793 0.72077 0.42168 0.0
H2336 H 0.0542 0.703 0.37464 0.0
H2337 H 0.10451 0.74952 0.35765 0.0
H2338 H 0.07326 0.70174 0.42276 0.0
H2339 H 0.06155 0.71506 0.42471 0.0
H2340 H 0.05177 0.69381 0.40719 0.0
H2341 H 0.1303 0.77003 0.38073 0.0
H2342 H 0.12315 0.77411 0.40432 0.0
H2343 H 0.13331 0.75931 0.4022 0.0
H2344 H 0.10166 0.76685 0.46655 0.0
H2345 H 0.13062 0.73569 0.46001 0.0
H2346 H 0.07209 0.74845 0.42365 0.0
H2347 H 0.09222 0.76796 0.41542 0.0
H2348 H 0.08539 0.77068 0.43967 0.0
H2349 H 0.10474 0.70779 0.41515 0.0
H2350 H 0.12631 0.71621 0.43075 0.0
H2351 H 0.12569 0.72787 0.40909 0.0
C2352 C 0.30355 0.05378 0.69828 0.0
C2353 C 0.31527 0.04601 0.69932 0.0
C2354 C 0.29988 0.06127 0.7156 0.0
C2355 C 0.30802 0.06089 0.73445 0.0
C2356 C 0.31941 0.05257 0.73569 0.0
C2357 C 0.32294 0.04529 0.71812 0.0
C2358 C 0.28771 0.07008 0.71367 0.0
C2359 C 0.32824 0.05178 0.75555 0.0
C2360 C 0.31594 0.0979 0.77712 0.0
C2361 C 0.30117 0.0872 0.78828 0.0
C2362 C 0.31817 0.08956 0.75944 0.0
C2363 C 0.30536 0.07001 0.75281 0.0
C2364 C 0.29026 0.05919 0.76387 0.0
C2365 C 0.28831 0.06794 0.78145 0.0
C2366 C 0.33434 0.10165 0.74797 0.0
C2367 C 0.2764 0.03828 0.75733 0.0
H2368 H 0.29754 0.05444 0.68386 0.0
H2369 H 0.33194 0.03924 0.71914 0.0
H2370 H 0.27613 0.06337 0.72312 0.0
H2371 H 0.29599 0.08561 0.71906 0.0
H2372 H 0.28172 0.06844 0.69801 0.0
H2373 H 0.33589 0.04389 0.75406 0.0
H2374 H 0.33814 0.06657 0.76262 0.0
H2375 H 0.31743 0.04471 0.7658 0.0
H2376 H 0.32579 0.11285 0.78224 0.0
H2377 H 0.27699 0.05957 0.79016 0.0
H2378 H 0.32917 0.10157 0.7324 0.0
H2379 H 0.34355 0.09547 0.74722 0.0
H2380 H 0.34277 0.11676 0.75487 0.0
H2381 H 0.26996 0.03656 0.74189 0.0
H2382 H 0.26516 0.03202 0.76729 0.0
H2383 H 0.28364 0.02995 0.75716 0.0
C2384 C 0.91911 0.23587 0.77647 0.0
C2385 C 0.93686 0.24032 0.77185 0.0
C2386 C 0.90829 0.21984 0.7864 0.0
C2387 C 0.91555 0.20816 0.7921 0.0
C2388 C 0.93299 0.21189 0.78636 0.0
C2389 C 0.94341 0.2279 0.77613 0.0
C2390 C 0.88956 0.21611 0.79186 0.0
C2391 C 0.94122 0.19981 0.79224 0.0
C2392 C 0.89838 0.18649 0.83982 0.0
C2393 C 0.88432 0.16783 0.83256 0.0
C2394 C 0.90931 0.19944 0.82682 0.0
C2395 C 0.90586 0.19363 0.80603 0.0
C2396 C 0.89213 0.17455 0.79868 0.0
C2397 C 0.88155 0.16179 0.81211 0.0
C2398 C 0.92402 0.21958 0.83529 0.0
C2399 C 0.88795 0.16791 0.77661 0.0
H2400 H 0.91382 0.24518 0.77279 0.0
H2401 H 0.95716 0.23132 0.77257 0.0
H2402 H 0.87881 0.20078 0.78781 0.0
H2403 H 0.89035 0.21927 0.80824 0.0
H2404 H 0.885 0.2251 0.78433 0.0
H2405 H 0.95355 0.20288 0.78433 0.0
H2406 H 0.9456 0.20278 0.80855 0.0
H2407 H 0.93071 0.1843 0.78907 0.0
H2408 H 0.90059 0.19104 0.8557 0.0
H2409 H 0.87057 0.14735 0.80654 0.0
H2410 H 0.91994 0.2299 0.83041 0.0
H2411 H 0.93753 0.22349 0.8296 0.0
H2412 H 0.92604 0.22125 0.85187 0.0
H2413 H 0.88134 0.17517 0.76915 0.0
H2414 H 0.87842 0.15215 0.77352 0.0
H2415 H 0.901 0.17189 0.7698 0.0
C2416 C 0.78141 0.7089 0.7272 0.0
C2417 C 0.76416 0.69191 0.72233 0.0
C2418 C 0.79088 0.71362 0.74652 0.0
C2419 C 0.78294 0.70102 0.76126 0.0
C2420 C 0.76561 0.68381 0.75641 0.0
C2421 C 0.75644 0.6795 0.73706 0.0
C2422 C 0.8093 0.73213 0.75119 0.0
C2423 C 0.75672 0.66994 0.77168 0.0
C2424 C 0.812 0.70132 0.80692 0.0
C2425 C 0.80718 0.71025 0.82197 0.0
C2426 C 0.80484 0.69893 0.78693 0.0
C2427 C 0.79258 0.70568 0.78185 0.0
C2428 C 0.78836 0.71551 0.79683 0.0
C2429 C 0.79569 0.71765 0.81672 0.0
C2430 C 0.80975 0.68846 0.77139 0.0
C2431 C 0.77542 0.723 0.79199 0.0
H2432 H 0.7875 0.71861 0.71597 0.0
H2433 H 0.74315 0.66631 0.7335 0.0
H2434 H 0.80835 0.7413 0.76343 0.0
H2435 H 0.8203 0.72907 0.75649 0.0
H2436 H 0.81366 0.74032 0.73804 0.0
H2437 H 0.74325 0.65711 0.76547 0.0
H2438 H 0.76626 0.66509 0.77741 0.0
H2439 H 0.75422 0.6772 0.7846 0.0
H2440 H 0.82116 0.69588 0.81085 0.0
H2441 H 0.7918 0.72445 0.82829 0.0
H2442 H 0.81462 0.69685 0.75847 0.0
H2443 H 0.79716 0.67451 0.76573 0.0
H2444 H 0.82075 0.68566 0.77744 0.0
H2445 H 0.77982 0.73174 0.77926 0.0
H2446 H 0.77496 0.73188 0.80492 0.0
H2447 H 0.76111 0.71076 0.78744 0.0
C2448 C 0.75379 0.66232 0.62306 0.0
C2449 C 0.74733 0.64981 0.63788 0.0
C2450 C 0.76292 0.65936 0.60775 0.0
C2451 C 0.76598 0.64369 0.60744 0.0
C2452 C 0.76037 0.63156 0.62292 0.0
C2453 C 0.75091 0.63465 0.6379 0.0
C2454 C 0.76851 0.67253 0.59142 0.0
C2455 C 0.76385 0.61501 0.62329 0.0
C2456 C 0.7701 0.62634 0.55567 0.0
C2457 C 0.78938 0.63679 0.5551 0.0
C2458 C 0.76228 0.62777 0.57302 0.0
C2459 C 0.77413 0.63961 0.59021 0.0
C2460 C 0.7937 0.64928 0.58998 0.0
C2461 C 0.8011 0.64794 0.57228 0.0
C2462 C 0.74134 0.61749 0.57259 0.0
C2463 C 0.80678 0.66166 0.60812 0.0
H2464 H 0.75101 0.67402 0.62286 0.0
H2465 H 0.746 0.62499 0.64937 0.0
H2466 H 0.78361 0.67894 0.59006 0.0
H2467 H 0.7609 0.66417 0.57689 0.0
H2468 H 0.76551 0.68433 0.59415 0.0
H2469 H 0.76049 0.60826 0.63742 0.0
H2470 H 0.75518 0.60393 0.61067 0.0
H2471 H 0.77863 0.61993 0.62136 0.0
H2472 H 0.76114 0.61771 0.54229 0.0
H2473 H 0.81606 0.6558 0.57175 0.0
H2474 H 0.73676 0.62818 0.57392 0.0
H2475 H 0.73682 0.60894 0.58545 0.0
H2476 H 0.73416 0.60777 0.55859 0.0
H2477 H 0.806 0.67489 0.61067 0.0
H2478 H 0.82146 0.66589 0.60639 0.0
H2479 H 0.80265 0.654 0.62163 0.0
C2480 C 0.3487 0.07279 0.61888 0.0
C2481 C 0.3607 0.07405 0.63516 0.0
C2482 C 0.35185 0.08912 0.60985 0.0
C2483 C 0.36751 0.10719 0.61712 0.0
C2484 C 0.37964 0.10864 0.63363 0.0
C2485 C 0.37608 0.09204 0.64248 0.0
C2486 C 0.33856 0.08698 0.59229 0.0
C2487 C 0.39654 0.12765 0.64171 0.0
C2488 C 0.38413 0.14371 0.57954 0.0
C2489 C 0.37604 0.15469 0.58485 0.0
C2490 C 0.38203 0.12866 0.59038 0.0
C2491 C 0.37146 0.12437 0.60687 0.0
C2492 C 0.36366 0.13569 0.61266 0.0
C2493 C 0.36607 0.15075 0.6016 0.0
C2494 C 0.39057 0.11692 0.58371 0.0
C2495 C 0.35228 0.13153 0.63015 0.0
H2496 H 0.33691 0.05896 0.61295 0.0
H2497 H 0.38544 0.09314 0.65503 0.0
H2498 H 0.33305 0.09672 0.59525 0.0
H2499 H 0.34605 0.09114 0.57881 0.0
H2500 H 0.32663 0.07205 0.58898 0.0
H2501 H 0.40423 0.12648 0.65507 0.0
H2502 H 0.40615 0.13331 0.63003 0.0
H2503 H 0.39233 0.13831 0.64575 0.0
H2504 H 0.39159 0.14642 0.56643 0.0
H2505 H 0.35998 0.15932 0.60594 0.0
H2506 H 0.37937 0.10206 0.57827 0.0
H2507 H 0.39905 0.11603 0.59647 0.0
H2508 H 0.39954 0.12301 0.57156 0.0
H2509 H 0.33948 0.11721 0.62691 0.0
H2510 H 0.34816 0.1424 0.6335 0.0
H2511 H 0.36026 0.13108 0.64366 0.0
C2512 C 0.93532 0.27934 0.68559 0.0
C2513 C 0.92374 0.27475 0.70103 0.0
C2514 C 0.92785 0.27502 0.66549 0.0
C2515 C 0.90831 0.26575 0.66064 0.0
C2516 C 0.89655 0.26133 0.67611 0.0
C2517 C 0.90441 0.26594 0.6961 0.0
C2518 C 0.94085 0.2801 0.64941 0.0
C2519 C 0.87565 0.25134 0.67152 0.0
C2520 C 0.88998 0.26732 0.6082 0.0
C2521 C 0.88607 0.24962 0.59864 0.0
C2522 C 0.89708 0.27272 0.62844 0.0
C2523 C 0.90018 0.26004 0.63938 0.0
C2524 C 0.8959 0.242 0.62989 0.0
C2525 C 0.88896 0.23704 0.60962 0.0
C2526 C 0.90158 0.29212 0.63801 0.0
C2527 C 0.89882 0.22799 0.64108 0.0
H2528 H 0.95027 0.28625 0.6892 0.0
H2529 H 0.89532 0.26228 0.70788 0.0
H2530 H 0.93801 0.26682 0.64034 0.0
H2531 H 0.93843 0.28901 0.63919 0.0
H2532 H 0.95574 0.28805 0.65566 0.0
H2533 H 0.86848 0.24949 0.68523 0.0
H2534 H 0.87183 0.25963 0.66177 0.0
H2535 H 0.87036 0.23699 0.66326 0.0
H2536 H 0.8879 0.27713 0.5997 0.0
H2537 H 0.88569 0.22323 0.60235 0.0
H2538 H 0.91669 0.30089 0.64318 0.0
H2539 H 0.89399 0.29044 0.65134 0.0
H2540 H 0.8979 0.30008 0.6276 0.0
H2541 H 0.91378 0.23449 0.64653 0.0
H2542 H 0.89427 0.21432 0.63167 0.0
H2543 H 0.89099 0.22472 0.65436 0.0
C2544 C 0.34845 0.296 0.67758 0.0
C2545 C 0.35686 0.29601 0.69625 0.0
C2546 C 0.35182 0.28866 0.65993 0.0
C2547 C 0.36384 0.28106 0.66096 0.0
C2548 C 0.37277 0.2815 0.67966 0.0
C2549 C 0.36922 0.289 0.69704 0.0
C2550 C 0.34215 0.28857 0.64023 0.0
C2551 C 0.38564 0.2735 0.68138 0.0
C2552 C 0.35646 0.24341 0.61927 0.0
C2553 C 0.37082 0.25414 0.60765 0.0
C2554 C 0.35411 0.25199 0.6367 0.0
C2555 C 0.36638 0.27181 0.64261 0.0
C2556 C 0.381 0.2827 0.63104 0.0
C2557 C 0.38309 0.27371 0.61371 0.0
C2558 C 0.33846 0.23984 0.64874 0.0
C2559 C 0.39428 0.30388 0.6368 0.0
H2560 H 0.33894 0.30144 0.67674 0.0
H2561 H 0.37583 0.28893 0.71134 0.0
H2562 H 0.35249 0.29559 0.62951 0.0
H2563 H 0.33245 0.27355 0.63368 0.0
H2564 H 0.33412 0.29603 0.64183 0.0
H2565 H 0.39219 0.27574 0.6969 0.0
H2566 H 0.37775 0.25787 0.67643 0.0
H2567 H 0.39682 0.28032 0.67148 0.0
H2568 H 0.34706 0.22824 0.61474 0.0
H2569 H 0.39406 0.28211 0.60463 0.0
H2570 H 0.3289 0.24558 0.64964 0.0
H2571 H 0.34416 0.24043 0.66423 0.0
H2572 H 0.33027 0.22459 0.64222 0.0
H2573 H 0.38643 0.3116 0.6371 0.0
H2574 H 0.40504 0.31026 0.62632 0.0
H2575 H 0.40137 0.30631 0.65205 0.0
C2576 C 0.7485 0.08685 0.61005 0.0
C2577 C 0.73744 0.08903 0.62358 0.0
C2578 C 0.76097 0.10232 0.60036 0.0
C2579 C 0.76232 0.12038 0.60418 0.0
C2580 C 0.75173 0.12288 0.61837 0.0
C2581 C 0.73943 0.10716 0.62795 0.0
C2582 C 0.77215 0.09913 0.58541 0.0
C2583 C 0.75281 0.14194 0.6228 0.0
C2584 C 0.80391 0.16268 0.58621 0.0
C2585 C 0.79633 0.16359 0.56746 0.0
C2586 C 0.79287 0.14907 0.59868 0.0
C2587 C 0.77382 0.13615 0.59223 0.0
C2588 C 0.76593 0.13747 0.57364 0.0
C2589 C 0.7773 0.15115 0.56146 0.0
C2590 C 0.80173 0.14809 0.61842 0.0
C2591 C 0.74564 0.12395 0.56626 0.0
H2592 H 0.74705 0.07291 0.60654 0.0
H2593 H 0.73093 0.10896 0.6384 0.0
H2594 H 0.7676 0.10075 0.57023 0.0
H2595 H 0.78715 0.11007 0.58881 0.0
H2596 H 0.77053 0.08465 0.58526 0.0
H2597 H 0.74494 0.14198 0.63547 0.0
H2598 H 0.76753 0.15362 0.62635 0.0
H2599 H 0.74702 0.14526 0.6094 0.0
H2600 H 0.81857 0.17245 0.59103 0.0
H2601 H 0.77141 0.15161 0.54688 0.0
H2602 H 0.80162 0.13432 0.6181 0.0
H2603 H 0.79362 0.14844 0.63068 0.0
H2604 H 0.81636 0.16006 0.6219 0.0
H2605 H 0.74296 0.10907 0.56369 0.0
H2606 H 0.7414 0.12774 0.55213 0.0
H2607 H 0.73669 0.12406 0.57769 0.0
C2608 C 0.91594 0.65491 0.66277 0.0
C2609 C 0.90629 0.65653 0.67831 0.0
C2610 C 0.90822 0.65118 0.64282 0.0
C2611 C 0.89074 0.64974 0.63832 0.0
C2612 C 0.88092 0.65135 0.65399 0.0
C2613 C 0.88868 0.65439 0.67387 0.0
C2614 C 0.91885 0.64895 0.62657 0.0
C2615 C 0.86254 0.65053 0.64975 0.0
C2616 C 0.88223 0.66185 0.58683 0.0
C2617 C 0.86953 0.64366 0.57672 0.0
C2618 C 0.88882 0.66401 0.60698 0.0
C2619 C 0.88322 0.64756 0.61717 0.0
C2620 C 0.87073 0.62913 0.60706 0.0
C2621 C 0.86379 0.62743 0.58708 0.0
C2622 C 0.90182 0.68397 0.61735 0.0
C2623 C 0.86484 0.61122 0.61731 0.0
H2624 H 0.92949 0.65639 0.66626 0.0
H2625 H 0.8813 0.65578 0.68592 0.0
H2626 H 0.90977 0.6354 0.61673 0.0
H2627 H 0.9232 0.66091 0.61713 0.0
H2628 H 0.93147 0.64887 0.63267 0.0
H2629 H 0.85654 0.65172 0.66364 0.0
H2630 H 0.8645 0.66241 0.64095 0.0
H2631 H 0.85234 0.6369 0.64063 0.0
H2632 H 0.88725 0.6745 0.579 0.0
H2633 H 0.85378 0.61332 0.57966 0.0
H2634 H 0.91563 0.68569 0.62185 0.0
H2635 H 0.89629 0.68621 0.63115 0.0
H2636 H 0.90381 0.69532 0.6077 0.0
H2637 H 0.87732 0.61071 0.62308 0.0
H2638 H 0.85556 0.59792 0.60715 0.0
H2639 H 0.85744 0.61143 0.63031 0.0
C2640 C 0.90727 0.69129 0.76285 0.0
C2641 C 0.92509 0.70476 0.75847 0.0
C2642 C 0.89886 0.69582 0.77789 0.0
C2643 C 0.90868 0.71418 0.78896 0.0
C2644 C 0.92591 0.72841 0.7833 0.0
C2645 C 0.9339 0.72355 0.76794 0.0
C2646 C 0.88022 0.68037 0.78311 0.0
C2647 C 0.93675 0.74818 0.79466 0.0
C2648 C 0.88264 0.72479 0.82721 0.0
C2649 C 0.88743 0.71837 0.84414 0.0
C2650 C 0.88994 0.72421 0.80916 0.0
C2651 C 0.9024 0.7172 0.80824 0.0
C2652 C 0.90789 0.71153 0.82562 0.0
C2653 C 0.90021 0.71206 0.84333 0.0
C2654 C 0.88362 0.73017 0.79093 0.0
C2655 C 0.92133 0.70419 0.82533 0.0
H2656 H 0.90027 0.6769 0.75519 0.0
H2657 H 0.9477 0.734 0.76454 0.0
H2658 H 0.88225 0.67504 0.79724 0.0
H2659 H 0.87089 0.68621 0.78548 0.0
H2660 H 0.8732 0.66802 0.77129 0.0
H2661 H 0.94806 0.75845 0.78636 0.0
H2662 H 0.92744 0.75387 0.79785 0.0
H2663 H 0.94312 0.74733 0.8092 0.0
H2664 H 0.87259 0.7295 0.82786 0.0
H2665 H 0.90397 0.70723 0.85652 0.0
H2666 H 0.87406 0.71723 0.78048 0.0
H2667 H 0.89564 0.73952 0.78292 0.0
H2668 H 0.87616 0.73788 0.79478 0.0
H2669 H 0.91495 0.69046 0.8155 0.0
H2670 H 0.92519 0.70172 0.84044 0.0
H2671 H 0.93423 0.71457 0.81917 0.0
C2672 C 0.29522 0.24843 0.75273 0.0
C2673 C 0.31112 0.2661 0.75984 0.0
C2674 C 0.29133 0.23159 0.76125 0.0
C2675 C 0.3037 0.23245 0.77717 0.0
C2676 C 0.31994 0.25017 0.78413 0.0
C2677 C 0.32339 0.26677 0.77547 0.0
C2678 C 0.2738 0.21297 0.75355 0.0
C2679 C 0.33352 0.25169 0.80103 0.0
C2680 C 0.28724 0.19622 0.81502 0.0
C2681 C 0.29443 0.18453 0.80906 0.0
C2682 C 0.2895 0.21137 0.80427 0.0
C2683 C 0.29936 0.21509 0.78724 0.0
C2684 C 0.30616 0.20302 0.78077 0.0
C2685 C 0.30357 0.18785 0.79173 0.0
C2686 C 0.28199 0.22389 0.81165 0.0
C2687 C 0.31678 0.20657 0.7627 0.0
H2688 H 0.28564 0.24779 0.74069 0.0
H2689 H 0.3356 0.28034 0.78122 0.0
H2690 H 0.27724 0.20178 0.74916 0.0
H2691 H 0.26451 0.20778 0.76557 0.0
H2692 H 0.26606 0.21454 0.74051 0.0
H2693 H 0.34597 0.26633 0.804 0.0
H2694 H 0.32655 0.24796 0.81487 0.0
H2695 H 0.33821 0.24132 0.79754 0.0
H2696 H 0.28045 0.19402 0.82857 0.0
H2697 H 0.30896 0.17874 0.78688 0.0
H2698 H 0.2735 0.22531 0.7993 0.0
H2699 H 0.29374 0.23851 0.81698 0.0
H2700 H 0.2733 0.2181 0.82407 0.0
H2701 H 0.30866 0.20752 0.74963 0.0
H2702 H 0.32003 0.19512 0.75882 0.0
H2703 H 0.33005 0.22051 0.76562 0.0
C2704 C 0.76266 0.05283 0.69795 0.0
C2705 C 0.74615 0.0533 0.69436 0.0
C2706 C 0.77209 0.05742 0.71725 0.0
C2707 C 0.76495 0.06279 0.73332 0.0
C2708 C 0.7482 0.06309 0.72985 0.0
C2709 C 0.73896 0.05826 0.71046 0.0
C2710 C 0.78979 0.05671 0.72042 0.0
C2711 C 0.7402 0.06887 0.74658 0.0
C2712 C 0.77948 0.06077 0.78715 0.0
C2713 C 0.79256 0.08013 0.79336 0.0
C2714 C 0.7708 0.05481 0.76748 0.0
C2715 C 0.77516 0.06857 0.75372 0.0
C2716 C 0.78869 0.08804 0.75973 0.0
C2717 C 0.79728 0.09357 0.77944 0.0
C2718 C 0.75656 0.03388 0.76159 0.0
C2719 C 0.7937 0.10316 0.7455 0.0
H2720 H 0.76829 0.04893 0.68565 0.0
H2721 H 0.72626 0.05873 0.70787 0.0
H2722 H 0.80164 0.07122 0.72594 0.0
H2723 H 0.78855 0.04711 0.73199 0.0
H2724 H 0.79312 0.05154 0.70652 0.0
H2725 H 0.72689 0.06806 0.74146 0.0
H2726 H 0.7377 0.05946 0.75866 0.0
H2727 H 0.75033 0.08379 0.75312 0.0
H2728 H 0.77556 0.05031 0.79785 0.0
H2729 H 0.80759 0.1085 0.78401 0.0
H2730 H 0.75995 0.0285 0.74789 0.0
H2731 H 0.74261 0.03218 0.75812 0.0
H2732 H 0.75576 0.0248 0.77358 0.0
H2733 H 0.79824 0.09912 0.73185 0.0
H2734 H 0.80499 0.11755 0.7523 0.0
H2735 H 0.78126 0.10413 0.74079 0.0
C2736 C 0.04412 0.33101 0.04836 0.0
C2737 C 0.05528 0.34465 0.03596 0.0
C2738 C 0.05197 0.32447 0.06266 0.0
C2739 C 0.07143 0.3318 0.06465 0.0
C2740 C 0.08277 0.34573 0.05234 0.0
C2741 C 0.07456 0.35196 0.03815 0.0
C2742 C 0.03944 0.30957 0.07549 0.0
C2743 C 0.1036 0.35398 0.05406 0.0
C2744 C 0.0976 0.32987 0.11165 0.0
C2745 C 0.10119 0.31527 0.10555 0.0
C2746 C 0.08715 0.33482 0.09882 0.0
C2747 C 0.0801 0.32489 0.07943 0.0
C2748 C 0.0828 0.30944 0.07359 0.0
C2749 C 0.09333 0.30483 0.08671 0.0
C2750 C 0.08451 0.35132 0.10566 0.0
C2751 C 0.07545 0.29846 0.05306 0.0
H2752 H 0.0292 0.32526 0.04675 0.0
H2753 H 0.08331 0.36253 0.02869 0.0
H2754 H 0.04039 0.29645 0.0729 0.0
H2755 H 0.04406 0.31502 0.09151 0.0
H2756 H 0.02463 0.30559 0.07237 0.0
H2757 H 0.11048 0.3649 0.04357 0.0
H2758 H 0.10982 0.36073 0.0695 0.0
H2759 H 0.10673 0.34234 0.05096 0.0
H2760 H 0.10342 0.33782 0.1263 0.0
H2761 H 0.09622 0.29367 0.08179 0.0
H2762 H 0.06963 0.34709 0.10293 0.0
H2763 H 0.0925 0.36353 0.09693 0.0
H2764 H 0.08929 0.35632 0.12177 0.0
H2765 H 0.06051 0.29378 0.04966 0.0
H2766 H 0.07703 0.28562 0.05158 0.0
H2767 H 0.08311 0.30794 0.0417 0.0
C2768 C 0.66843 0.70198 0.10744 0.0
C2769 C 0.65037 0.68951 0.11226 0.0
C2770 C 0.67723 0.72186 0.11285 0.0
C2771 C 0.66776 0.72942 0.12333 0.0
C2772 C 0.6494 0.71699 0.12783 0.0
C2773 C 0.64093 0.69721 0.12221 0.0
C2774 C 0.69678 0.73471 0.10769 0.0
C2775 C 0.63883 0.72454 0.13894 0.0
C2776 C 0.6942 0.77699 0.15607 0.0
C2777 C 0.69125 0.78905 0.14428 0.0
C2778 C 0.68716 0.75765 0.14915 0.0
C2779 C 0.67706 0.75029 0.12996 0.0
C2780 C 0.67475 0.76263 0.11768 0.0
C2781 C 0.68185 0.78186 0.12502 0.0
C2782 C 0.68985 0.7449 0.16271 0.0
C2783 C 0.6642 0.75536 0.09708 0.0
H2784 H 0.67586 0.69621 0.09973 0.0
H2785 H 0.62698 0.68775 0.126 0.0
H2786 H 0.69731 0.74618 0.09911 0.0
H2787 H 0.7064 0.74186 0.12158 0.0
H2788 H 0.70193 0.72667 0.09878 0.0
H2789 H 0.62452 0.71301 0.14093 0.0
H2790 H 0.64642 0.73162 0.15388 0.0
H2791 H 0.63785 0.73553 0.13079 0.0
H2792 H 0.70134 0.78249 0.17103 0.0
H2793 H 0.67978 0.79126 0.11578 0.0
H2794 H 0.69593 0.73726 0.15484 0.0
H2795 H 0.67614 0.73384 0.16682 0.0
H2796 H 0.69906 0.7531 0.17663 0.0
H2797 H 0.66979 0.74777 0.08822 0.0
H2798 H 0.66494 0.76713 0.08884 0.0
H2799 H 0.64935 0.74487 0.09829 0.0
C2800 C 0.30399 0.93569 0.03016 0.0
C2801 C 0.32116 0.95267 0.03522 0.0
C2802 C 0.29027 0.92927 0.04342 0.0
C2803 C 0.29378 0.94023 0.06201 0.0
C2804 C 0.31112 0.95733 0.06723 0.0
C2805 C 0.32464 0.96326 0.05383 0.0
C2806 C 0.27202 0.91081 0.03751 0.0
C2807 C 0.3153 0.9695 0.08686 0.0
C2808 C 0.25297 0.93442 0.08892 0.0
C2809 C 0.25285 0.92311 0.10387 0.0
C2810 C 0.26614 0.93999 0.07508 0.0
C2811 C 0.27935 0.93391 0.07609 0.0
C2812 C 0.27918 0.92232 0.09097 0.0
C2813 C 0.26604 0.91719 0.10478 0.0
C2814 C 0.26602 0.95253 0.05951 0.0
C2815 C 0.29301 0.91549 0.09245 0.0
H2816 H 0.30124 0.92742 0.01583 0.0
H2817 H 0.33785 0.97647 0.05782 0.0
H2818 H 0.26958 0.90068 0.04884 0.0
H2819 H 0.26036 0.91372 0.03701 0.0
H2820 H 0.27164 0.90374 0.02271 0.0
H2821 H 0.32948 0.98242 0.08862 0.0
H2822 H 0.30496 0.97421 0.08798 0.0
H2823 H 0.31409 0.96094 0.09946 0.0
H2824 H 0.24266 0.93882 0.08792 0.0
H2825 H 0.26628 0.90874 0.11648 0.0
H2826 H 0.26421 0.94529 0.04435 0.0
H2827 H 0.2796 0.96619 0.0611 0.0
H2828 H 0.25475 0.95593 0.06067 0.0
H2829 H 0.29238 0.90778 0.07798 0.0
H2830 H 0.29042 0.90578 0.10429 0.0
H2831 H 0.30736 0.92798 0.09573 0.0
C2832 C 0.35017 0.03629 0.00953 0.0
C2833 C 0.36762 0.04285 0.00246 0.0
C2834 C 0.33957 0.04488 0.005 0.0
C2835 C 0.3465 0.06016 0.99291 0.0
C2836 C 0.36473 0.06786 0.98719 0.0
C2837 C 0.37513 0.05922 0.9922 0.0
C2838 C 0.32044 0.03669 0.01191 0.0
C2839 C 0.37266 0.08418 0.9743 0.0
C2840 C 0.31463 0.06489 0.95444 0.0
C2841 C 0.31593 0.08204 0.96206 0.0
C2842 C 0.32365 0.05697 0.96499 0.0
C2843 C 0.33399 0.06632 0.98373 0.0
C2844 C 0.33412 0.08282 0.9922 0.0
C2845 C 0.32524 0.09064 0.98113 0.0
C2846 C 0.32326 0.03942 0.95533 0.0
C2847 C 0.34454 0.09288 0.01237 0.0
H2848 H 0.34435 0.02384 0.01775 0.0
H2849 H 0.38866 0.06456 0.98684 0.0
H2850 H 0.31778 0.04832 0.01696 0.0
H2851 H 0.30975 0.02762 0.99928 0.0
H2852 H 0.31865 0.02768 0.02427 0.0
H2853 H 0.3876 0.08962 0.97267 0.0
H2854 H 0.36476 0.07921 0.95921 0.0
H2855 H 0.37121 0.09626 0.98066 0.0
H2856 H 0.30762 0.05835 0.9396 0.0
H2857 H 0.32612 0.10386 0.98706 0.0
H2858 H 0.31913 0.0283 0.9658 0.0
H2859 H 0.33743 0.04335 0.9516 0.0
H2860 H 0.31349 0.0331 0.94142 0.0
H2861 H 0.34232 0.08233 0.02316 0.0
H2862 H 0.34022 0.10292 0.0185 0.0
H2863 H 0.3597 0.10123 0.01098 0.0
C2864 C 0.94663 0.28894 0.96039 0.0
C2865 C 0.96365 0.29606 0.97224 0.0
C2866 C 0.93462 0.26919 0.95528 0.0
C2867 C 0.93966 0.25613 0.96224 0.0
C2868 C 0.95658 0.26311 0.97461 0.0
C2869 C 0.9684 0.28301 0.97946 0.0
C2870 C 0.91665 0.26232 0.94211 0.0
C2871 C 0.96233 0.24958 0.98241 0.0
C2872 C 0.89881 0.20538 0.96005 0.0
C2873 C 0.89986 0.19716 0.94162 0.0
C2874 C 0.9123 0.22425 0.96753 0.0
C2875 C 0.92714 0.2352 0.95626 0.0
C2876 C 0.92882 0.22664 0.93815 0.0
C2877 C 0.91516 0.20766 0.93106 0.0
C2878 C 0.9101 0.23279 0.98699 0.0
C2879 C 0.94443 0.23786 0.92567 0.0
H2880 H 0.94275 0.29883 0.95475 0.0
H2881 H 0.98151 0.28833 0.98863 0.0
H2882 H 0.91649 0.25426 0.92812 0.0
H2883 H 0.90461 0.25234 0.94975 0.0
H2884 H 0.91467 0.27433 0.93816 0.0
H2885 H 0.97553 0.25723 0.99255 0.0
H2886 H 0.95123 0.23888 0.99057 0.0
H2887 H 0.96419 0.24152 0.96974 0.0
H2888 H 0.88712 0.19716 0.96838 0.0
H2889 H 0.91596 0.20138 0.91676 0.0
H2890 H 0.90636 0.24382 0.984 0.0
H2891 H 0.92342 0.24002 0.99688 0.0
H2892 H 0.89909 0.22178 0.99502 0.0
H2893 H 0.9426 0.24923 0.91945 0.0
H2894 H 0.94484 0.2286 0.91308 0.0
H2895 H 0.95806 0.24506 0.93501 0.0
C2896 C 0.7158 0.67844 0.06947 0.0
C2897 C 0.69826 0.66198 0.06406 0.0
C2898 C 0.72963 0.68464 0.05637 0.0
C2899 C 0.72581 0.67413 0.03743 0.0
C2900 C 0.70808 0.65763 0.03179 0.0
C2901 C 0.69452 0.65175 0.04517 0.0
C2902 C 0.74838 0.70233 0.06286 0.0
C2903 C 0.70351 0.64605 0.0117 0.0
C2904 C 0.75572 0.69757 0.99608 0.0
C2905 C 0.76744 0.68982 0.99656 0.0
C2906 C 0.74224 0.69279 0.00949 0.0
C2907 C 0.74052 0.68002 0.0237 0.0
C2908 C 0.75254 0.67244 0.02448 0.0
C2909 C 0.76586 0.67744 0.01089 0.0
C2910 C 0.72962 0.70111 0.00821 0.0
C2911 C 0.75118 0.65886 0.03949 0.0
H2912 H 0.71879 0.68647 0.08401 0.0
H2913 H 0.68099 0.63905 0.04084 0.0
H2914 H 0.75942 0.6985 0.06322 0.0
H2915 H 0.75165 0.71299 0.05196 0.0
H2916 H 0.74895 0.70919 0.07787 0.0
H2917 H 0.6889 0.63388 0.00939 0.0
H2918 H 0.70573 0.65538 0.99958 0.0
H2919 H 0.71298 0.64025 0.0103 0.0
H2920 H 0.75679 0.707 0.9849 0.0
H2921 H 0.77509 0.67166 0.0115 0.0
H2922 H 0.73045 0.70862 0.02289 0.0
H2923 H 0.71495 0.68939 0.0044 0.0
H2924 H 0.73323 0.71138 0.9968 0.0
H2925 H 0.75281 0.66562 0.05485 0.0
H2926 H 0.76189 0.65463 0.03845 0.0
H2927 H 0.7372 0.64569 0.0371 0.0
C2928 C 0.93173 0.65113 0.0265 0.0
C2929 C 0.95115 0.66079 0.03096 0.0
C2930 C 0.92326 0.65793 0.01331 0.0
C2931 C 0.93447 0.67482 0.00435 0.0
C2932 C 0.9541 0.68447 0.00849 0.0
C2933 C 0.96221 0.67733 0.02173 0.0
C2934 C 0.90228 0.64718 0.00922 0.0
C2935 C 0.9665 0.70252 0.99922 0.0
C2936 C 0.91111 0.68242 0.95853 0.0
C2937 C 0.90524 0.69455 0.96684 0.0
C2938 C 0.92122 0.6764 0.97043 0.0
C2939 C 0.92551 0.68262 0.99113 0.0
C2940 C 0.92019 0.69541 0.99946 0.0
C2941 C 0.91013 0.70122 0.98722 0.0
C2942 C 0.92672 0.66285 0.96097 0.0
C2943 C 0.92445 0.70234 0.02148 0.0
H2944 H 0.92307 0.63831 0.03348 0.0
H2945 H 0.97723 0.68489 0.02507 0.0
H2946 H 0.89687 0.65659 0.01422 0.0
H2947 H 0.89803 0.6431 0.99295 0.0
H2948 H 0.89559 0.63398 0.01694 0.0
H2949 H 0.98153 0.70789 0.00335 0.0
H2950 H 0.96358 0.69984 0.98271 0.0
H2951 H 0.9635 0.71393 0.00409 0.0
H2952 H 0.9075 0.67736 0.94275 0.0
H2953 H 0.90538 0.71034 0.99381 0.0
H2954 H 0.91915 0.64878 0.96699 0.0
H2955 H 0.94183 0.66851 0.96474 0.0
H2956 H 0.92356 0.66049 0.94447 0.0
H2957 H 0.91675 0.69002 0.03018 0.0
H2958 H 0.9205 0.71325 0.02536 0.0
H2959 H 0.93952 0.70862 0.02622 0.0
C2960 C 0.33128 0.30603 0.94807 0.0
C2961 C 0.35077 0.31769 0.95038 0.0
C2962 C 0.3226 0.2865 0.94101 0.0
C2963 C 0.33369 0.27839 0.93653 0.0
C2964 C 0.35336 0.28989 0.93964 0.0
C2965 C 0.36167 0.30947 0.94634 0.0
C2966 C 0.3016 0.27476 0.93759 0.0
C2967 C 0.36563 0.28161 0.93544 0.0
C2968 C 0.31227 0.22427 0.93156 0.0
C2969 C 0.31028 0.22004 0.91081 0.0
C2970 C 0.31964 0.24321 0.94019 0.0
C2971 C 0.32478 0.2581 0.9277 0.0
C2972 C 0.32207 0.25371 0.90668 0.0
C2973 C 0.31505 0.23471 0.89848 0.0
C2974 C 0.32263 0.24738 0.96265 0.0
C2975 C 0.32702 0.26914 0.89286 0.0
H2976 H 0.32275 0.31232 0.95104 0.0
H2977 H 0.37673 0.31838 0.94824 0.0
H2978 H 0.29712 0.26987 0.92144 0.0
H2979 H 0.29633 0.26174 0.94554 0.0
H2980 H 0.29498 0.283 0.94268 0.0
H2981 H 0.38061 0.29211 0.94005 0.0
H2982 H 0.36149 0.26871 0.94339 0.0
H2983 H 0.36386 0.27701 0.91924 0.0
H2984 H 0.30881 0.21287 0.94104 0.0
H2985 H 0.31349 0.23132 0.88243 0.0
H2986 H 0.31576 0.25536 0.96763 0.0
H2987 H 0.33775 0.25663 0.96757 0.0
H2988 H 0.31716 0.23408 0.97021 0.0
H2989 H 0.32018 0.27749 0.89653 0.0
H2990 H 0.32282 0.26313 0.87691 0.0
H2991 H 0.34228 0.27929 0.89489 0.0
C2992 C 0.68245 0.04861 0.01706 0.0
C2993 C 0.68719 0.04918 0.03749 0.0
C2994 C 0.69573 0.05319 0.00349 0.0
C2995 C 0.71423 0.05867 0.01056 0.0
C2996 C 0.71924 0.0598 0.03122 0.0
C2997 C 0.70562 0.05493 0.04444 0.0
C2998 C 0.68987 0.05174 0.98153 0.0
C2999 C 0.73892 0.06586 0.0393 0.0
C3000 C 0.7435 0.05249 0.97326 0.0
C3001 C 0.75338 0.071 0.9674 0.0
C3002 C 0.73084 0.0483 0.98753 0.0
C3003 C 0.72827 0.06307 0.99624 0.0
C3004 C 0.73865 0.08191 0.99078 0.0
C3005 C 0.75103 0.08562 0.97633 0.0
C3006 C 0.71988 0.02801 0.99291 0.0
C3007 C 0.73649 0.09807 -2e-05 0.0
H3008 H 0.66821 0.04409 0.01156 0.0
H3009 H 0.70938 0.05544 0.06022 0.0
H3010 H 0.69847 0.06574 0.97572 0.0
H3011 H 0.69223 0.04109 0.97307 0.0
H3012 H 0.67496 0.04739 0.97849 0.0
H3013 H 0.7407 0.06674 0.05585 0.0
H3014 H 0.74273 0.05547 0.03302 0.0
H3015 H 0.74883 0.08007 0.03465 0.0
H3016 H 0.74533 0.04121 0.96628 0.0
H3017 H 0.75892 0.10002 0.972 0.0
H3018 H 0.70478 0.02223 0.98886 0.0
H3019 H 0.72202 0.02782 0.00925 0.0
H3020 H 0.72389 0.01833 0.98517 0.0
H3021 H 0.72205 0.09493 0.99615 0.0
H3022 H 0.74628 0.11208 0.9948 0.0
H3023 H 0.73893 0.09935 0.01649 0.0
C3024 C 0.66193 0.9799 0.06323 0.0
C3025 C 0.64315 0.97047 0.06696 0.0
C3026 C 0.67352 0.97272 0.06891 0.0
C3027 C 0.66612 0.95576 0.07849 0.0
C3028 C 0.64674 0.94503 0.08007 0.0
C3029 C 0.63546 0.95251 0.07426 0.0
C3030 C 0.69401 0.98432 0.06647 0.0
C3031 C 0.63822 0.92664 0.08986 0.0
C3032 C 0.69256 0.93138 0.09534 0.0
C3033 C 0.69671 0.9379 0.11574 0.0
C3034 C 0.6836 0.93797 0.08249 0.0
C3035 C 0.67876 0.9513 0.0904 0.0
C3036 C 0.68428 0.95897 0.11073 0.0
C3037 C 0.69315 0.95211 0.12315 0.0
C3038 C 0.67818 0.92967 0.06088 0.0
C3039 C 0.67966 0.97342 0.11975 0.0
H3040 H 0.66797 0.99362 0.0572 0.0
H3041 H 0.6209 0.9449 0.07682 0.0
H3042 H 0.70178 0.99279 0.0809 0.0
H3043 H 0.69954 0.97484 0.06221 0.0
H3044 H 0.69678 0.99446 0.05505 0.0
H3045 H 0.62276 0.91865 0.0873 0.0
H3046 H 0.64333 0.91718 0.08415 0.0
H3047 H 0.64243 0.93005 0.10619 0.0
H3048 H 0.69528 0.92029 0.08968 0.0
H3049 H 0.69654 0.9572 0.13894 0.0
H3050 H 0.67993 0.94077 0.05101 0.0
H3051 H 0.66327 0.91825 0.05881 0.0
H3052 H 0.68653 0.92323 0.0561 0.0
H3053 H 0.68433 0.9857 0.11071 0.0
H3054 H 0.68625 0.97904 0.13534 0.0
H3055 H 0.66434 0.96662 0.11975 0.0
C3056 C 0.06265 0.71866 0.10116 0.0
C3057 C 0.04371 0.71114 0.09488 0.0
C3058 C 0.07425 0.73812 0.10822 0.0
C3059 C 0.06669 0.75032 0.10931 0.0
C3060 C 0.0478 0.74305 0.10215 0.0
C3061 C 0.03655 0.72354 0.09488 0.0
C3062 C 0.09443 0.7454 0.11535 0.0
C3063 C 0.03921 0.75558 0.10318 0.0
C3064 C 0.09216 0.79184 0.15019 0.0
C3065 C 0.1036 0.80688 0.1394 0.0
C3066 C 0.07938 0.77358 0.14043 0.0
C3067 C 0.07828 0.77023 0.1194 0.0
C3068 C 0.08934 0.78559 0.10837 0.0
C3069 C 0.10182 0.80379 0.11852 0.0
C3070 C 0.06762 0.75766 0.15272 0.0
C3071 C 0.08873 0.78256 0.08598 0.0
H3072 H 0.06833 0.70921 0.10102 0.0
H3073 H 0.02191 0.71783 0.09013 0.0
H3074 H 0.10364 0.75856 0.10844 0.0
H3075 H 0.09686 0.74928 0.13176 0.0
H3076 H 0.09854 0.73455 0.11181 0.0
H3077 H 0.02492 0.74831 0.09522 0.0
H3078 H 0.0385 0.75945 0.11903 0.0
H3079 H 0.04796 0.76916 0.09669 0.0
H3080 H 0.0935 0.79429 0.16634 0.0
H3081 H 0.11085 0.81539 0.11019 0.0
H3082 H 0.07195 0.74675 0.15198 0.0
H3083 H 0.05274 0.75037 0.1466 0.0
H3084 H 0.06892 0.76301 0.16864 0.0
H3085 H 0.09454 0.77323 0.08218 0.0
H3086 H 0.09686 0.79629 0.07945 0.0
H3087 H 0.07414 0.77513 0.0789 0.0
C3088 C 0.3086 0.38006 0.02415 0.0
C3089 C 0.31488 0.36836 0.01572 0.0
C3090 C 0.29517 0.37328 0.03768 0.0
C3091 C 0.28792 0.35438 0.04294 0.0
C3092 C 0.29425 0.34252 0.03457 0.0
C3093 C 0.30764 0.34964 0.02104 0.0
C3094 C 0.28869 0.38631 0.04631 0.0
C3095 C 0.28687 0.3223 0.03991 0.0
C3096 C 0.26541 0.34287 0.09114 0.0
C3097 C 0.24644 0.33359 0.0841 0.0
C3098 C 0.27908 0.34957 0.07788 0.0
C3099 C 0.27361 0.34697 0.05713 0.0
C3100 C 0.25447 0.33746 0.04992 0.0
C3101 C 0.2411 0.33085 0.06352 0.0
C3102 C 0.29937 0.35952 0.08608 0.0
C3103 C 0.24814 0.33451 0.02789 0.0
H3104 H 0.31412 0.39454 0.02012 0.0
H3105 H 0.31246 0.34051 0.01464 0.0
H3106 H 0.27343 0.37963 0.04252 0.0
H3107 H 0.29142 0.38832 0.06283 0.0
H3108 H 0.29574 0.40063 0.0407 0.0
H3109 H 0.29338 0.315 0.03222 0.0
H3110 H 0.28946 0.32249 0.05626 0.0
H3111 H 0.27157 0.3137 0.03584 0.0
H3112 H 0.26955 0.34481 0.10704 0.0
H3113 H 0.22645 0.32389 0.05806 0.0
H3114 H 0.30678 0.37439 0.08191 0.0
H3115 H 0.30608 0.35195 0.07945 0.0
H3116 H 0.30127 0.36011 0.10259 0.0
H3117 H 0.2538 0.34861 0.02192 0.0
H3118 H 0.23271 0.32658 0.02472 0.0
H3119 H 0.25361 0.32642 0.01969 0.0
C3120 C 0.70575 0.66205 0.37688 0.0
C3121 C 0.70648 0.67942 0.38246 0.0
C3122 C 0.71637 0.6562 0.38816 0.0
C3123 C 0.72796 0.66797 0.40546 0.0
C3124 C 0.72806 0.68504 0.41171 0.0
C3125 C 0.71733 0.69057 0.40013 0.0
C3126 C 0.71585 0.63788 0.38101 0.0
C3127 C 0.74017 0.69794 0.43013 0.0
C3128 C 0.74921 0.64799 0.44149 0.0
C3129 C 0.76716 0.65548 0.43555 0.0
C3130 C 0.73623 0.65189 0.43186 0.0
C3131 C 0.74132 0.66344 0.41586 0.0
C3132 C 0.75935 0.67081 0.40968 0.0
C3133 C 0.77201 0.66674 0.41958 0.0
C3134 C 0.71714 0.64383 0.43888 0.0
C3135 C 0.7653 0.68304 0.39258 0.0
H3136 H 0.69733 0.65326 0.36332 0.0
H3137 H 0.71788 0.70394 0.40465 0.0
H3138 H 0.72951 0.64137 0.37598 0.0
H3139 H 0.71343 0.62879 0.39337 0.0
H3140 H 0.70483 0.62945 0.36842 0.0
H3141 H 0.7373 0.70967 0.43405 0.0
H3142 H 0.738 0.6895 0.44304 0.0
H3143 H 0.75505 0.70446 0.4276 0.0
H3144 H 0.74544 0.63935 0.45389 0.0
H3145 H 0.78574 0.67225 0.41467 0.0
H3146 H 0.70626 0.63495 0.42635 0.0
H3147 H 0.71487 0.65571 0.44396 0.0
H3148 H 0.71526 0.63489 0.45132 0.0
H3149 H 0.75581 0.67499 0.37881 0.0
H3150 H 0.77979 0.68755 0.38955 0.0
H3151 H 0.76436 0.69609 0.39595 0.0
C3152 C 0.30994 0.03022 0.46361 0.0
C3153 C 0.31674 0.02228 0.44974 0.0
C3154 C 0.31916 0.05005 0.46916 0.0
C3155 C 0.33545 0.06233 0.46043 0.0
C3156 C 0.34223 0.05452 0.44615 0.0
C3157 C 0.33287 0.03455 0.44106 0.0
C3158 C 0.31156 0.05783 0.48458 0.0
C3159 C 0.35939 0.06724 0.4363 0.0
C3160 C 0.34634 0.1138 0.46415 0.0
C3161 C 0.35958 0.12201 0.48093 0.0
C3162 C 0.33917 0.09463 0.45656 0.0
C3163 C 0.34515 0.08337 0.46628 0.0
C3164 C 0.35909 0.09187 0.4828 0.0
C3165 C 0.36628 0.11122 0.48986 0.0
C3166 C 0.32456 0.08621 0.43873 0.0
C3167 C 0.36565 0.08026 0.49369 0.0
H3168 H 0.29759 0.02088 0.47051 0.0
H3169 H 0.33819 0.02855 0.43029 0.0
H3170 H 0.32232 0.06593 0.49744 0.0
H3171 H 0.30799 0.06798 0.4781 0.0
H3172 H 0.29892 0.0463 0.49018 0.0
H3173 H 0.36268 0.05893 0.42524 0.0
H3174 H 0.35739 0.07789 0.42864 0.0
H3175 H 0.37155 0.07539 0.44776 0.0
H3176 H 0.3413 0.12232 0.45726 0.0
H3177 H 0.37647 0.11768 0.50292 0.0
H3178 H 0.3109 0.07579 0.44349 0.0
H3179 H 0.32809 0.07829 0.42748 0.0
H3180 H 0.32306 0.09739 0.43153 0.0
H3181 H 0.35407 0.06938 0.50121 0.0
H3182 H 0.37766 0.08936 0.50513 0.0
H3183 H 0.36974 0.07242 0.48301 0.0
C3184 C 0.99408 0.29473 0.38293 0.0
C3185 C 0.99476 0.30461 0.3664 0.0
C3186 C 0.97876 0.28763 0.39403 0.0
C3187 C 0.96381 0.29057 0.38852 0.0
C3188 C 0.96451 0.30076 0.37202 0.0
C3189 C 0.97998 0.30763 0.36112 0.0
C3190 C 0.97847 0.27677 0.41153 0.0
C3191 C 0.94886 0.30424 0.3658 0.0
C3192 C 0.91756 0.25548 0.4059 0.0
C3193 C 0.91744 0.2658 0.4233 0.0
C3194 C 0.93232 0.2636 0.39409 0.0
C3195 C 0.94727 0.28252 0.39979 0.0
C3196 C 0.94688 0.2933 0.41689 0.0
C3197 C 0.93195 0.28479 0.42848 0.0
C3198 C 0.93222 0.25169 0.3759 0.0
C3199 C 0.96256 0.31355 0.42337 0.0
H3200 H 0.00546 0.29236 0.38712 0.0
H3201 H 0.98045 0.31536 0.34843 0.0
H3202 H 0.97683 0.28374 0.42531 0.0
H3203 H 0.96635 0.26193 0.40893 0.0
H3204 H 0.99136 0.27603 0.41408 0.0
H3205 H 0.95181 0.31293 0.35299 0.0
H3206 H 0.93577 0.29033 0.36156 0.0
H3207 H 0.9464 0.31177 0.3785 0.0
H3208 H 0.90621 0.24089 0.4017 0.0
H3209 H 0.93201 0.29276 0.44203 0.0
H3210 H 0.94401 0.24905 0.37804 0.0
H3211 H 0.93418 0.25955 0.36255 0.0
H3212 H 0.91906 0.23762 0.3729 0.0
H3213 H 0.97548 0.31341 0.42795 0.0
H3214 H 0.95943 0.32049 0.43607 0.0
H3215 H 0.9654 0.32243 0.41076 0.0
C3216 C 0.06352 0.39496 0.32134 0.0
C3217 C 0.05431 0.37994 0.33314 0.0
C3218 C 0.05548 0.40562 0.31512 0.0
C3219 C 0.03794 0.4013 0.32106 0.0
C3220 C 0.0294 0.38738 0.33445 0.0
C3221 C 0.03765 0.37678 0.34027 0.0
C3222 C 0.06505 0.42039 0.30084 0.0
C3223 C 0.01089 0.38266 0.34145 0.0
C3224 C 0.02165 0.43566 0.30739 0.0
C3225 C 0.01072 0.42629 0.2892 0.0
C3226 C 0.02997 0.42732 0.31852 0.0
C3227 C 0.0275 0.40939 0.31104 0.0
C3228 C 0.01595 0.39961 0.293 0.0
C3229 C 0.00764 0.40814 0.28235 0.0
C3230 C 0.04189 0.43798 0.33788 0.0
C3231 C 0.01307 0.38051 0.28442 0.0
H3232 H 0.07645 0.39762 0.31586 0.0
H3233 H 0.03054 0.36537 0.34963 0.0
H3234 H 0.057 0.41501 0.28584 0.0
H3235 H 0.06553 0.43396 0.30576 0.0
H3236 H 0.07948 0.42355 0.29943 0.0
H3237 H 0.00771 0.37399 0.3543 0.0
H3238 H 0.01066 0.39596 0.34583 0.0
H3239 H -0.00035 0.37434 0.32906 0.0
H3240 H 0.02392 0.44965 0.31275 0.0
H3241 H -0.0006 0.401 0.26815 0.0
H3242 H 0.05672 0.44315 0.33599 0.0
H3243 H 0.03805 0.42828 0.34983 0.0
H3244 H 0.04056 0.45054 0.34282 0.0
H3245 H 0.02657 0.38224 0.28075 0.0
H3246 H 0.00306 0.37444 0.27068 0.0
H3247 H 0.00782 0.37002 0.29558 0.0
C3248 C 0.62294 0.61967 0.31402 0.0
C3249 C 0.61997 0.63405 0.30722 0.0
C3250 C 0.61021 0.60015 0.30792 0.0
C3251 C 0.59419 0.59491 0.29464 0.0
C3252 C 0.59092 0.60931 0.28807 0.0
C3253 C 0.60378 0.62865 0.29448 0.0
C3254 C 0.61404 0.58516 0.31538 0.0
C3255 C 0.57399 0.60433 0.27391 0.0
C3256 C 0.569 0.54776 0.26102 0.0
C3257 C 0.55281 0.53744 0.27037 0.0
C3258 C 0.58302 0.56623 0.26923 0.0
C3259 C 0.58083 0.57443 0.28728 0.0
C3260 C 0.56495 0.56364 0.29729 0.0
C3261 C 0.55109 0.5453 0.28867 0.0
C3262 C 0.59971 0.57733 0.25805 0.0
C3263 C 0.56219 0.57177 0.31667 0.0
H3264 H 0.63538 0.62366 0.32388 0.0
H3265 H 0.60128 0.63957 0.28912 0.0
H3266 H 0.60195 0.57452 0.32249 0.0
H3267 H 0.61598 0.57724 0.30264 0.0
H3268 H 0.62666 0.59152 0.32635 0.0
H3269 H 0.57338 0.61722 0.27038 0.0
H3270 H 0.5741 0.59666 0.25975 0.0
H3271 H 0.5611 0.59453 0.28047 0.0
H3272 H 0.57031 0.54175 0.24683 0.0
H3273 H 0.5387 0.5372 0.29608 0.0
H3274 H 0.61279 0.58317 0.26818 0.0
H3275 H 0.59933 0.5897 0.2524 0.0
H3276 H 0.60013 0.56835 0.24519 0.0
H3277 H 0.57485 0.57765 0.32746 0.0
H3278 H 0.5501 0.56084 0.32358 0.0
H3279 H 0.55984 0.58379 0.31391 0.0
C3280 C 0.3558 0.9775 0.37981 0.0
C3281 C 0.36064 0.98961 0.39765 0.0
C3282 C 0.36876 0.98108 0.36603 0.0
C3283 C 0.38697 0.99718 0.37016 0.0
C3284 C 0.39188 0.00962 0.38798 0.0
C3285 C 0.37865 0.00566 0.40155 0.0
C3286 C 0.36303 0.96748 0.34718 0.0
C3287 C 0.41115 0.02699 0.3928 0.0
C3288 C 0.42505 0.99535 0.34403 0.0
C3289 C 0.42657 0.00621 0.32814 0.0
C3290 C 0.41235 0.99247 0.35795 0.0
C3291 C 0.40097 0.00074 0.35596 0.0
C3292 C 0.40261 0.01196 0.34013 0.0
C3293 C 0.41538 0.01452 0.32637 0.0
C3294 C 0.41096 0.9804 0.37464 0.0
C3295 C 0.3907 0.02099 0.33756 0.0
H3296 H 0.34191 0.96508 0.37666 0.0
H3297 H 0.38247 0.01512 0.41526 0.0
H3298 H 0.36516 0.97545 0.3339 0.0
H3299 H 0.37189 0.96088 0.34672 0.0
H3300 H 0.34821 0.95583 0.34603 0.0
H3301 H 0.4126 0.03551 0.40704 0.0
H3302 H 0.42165 0.02241 0.3939 0.0
H3303 H 0.41446 0.0364 0.38061 0.0
H3304 H 0.43386 0.98913 0.34564 0.0
H3305 H 0.41632 0.02273 0.31397 0.0
H3306 H 0.39667 0.96776 0.37361 0.0
H3307 H 0.41355 0.98882 0.38929 0.0
H3308 H 0.42103 0.97526 0.37427 0.0
H3309 H 0.37579 0.00963 0.33488 0.0
H3310 H 0.3942 0.02991 0.32491 0.0
H3311 H 0.39244 0.03012 0.3514 0.0
C3312 C 0.62437 0.99455 0.34781 0.0
C3313 C 0.61516 0.97598 0.35376 0.0
C3314 C 0.61508 0.00065 0.33475 0.0
C3315 C 0.59613 0.98793 0.32757 0.0
C3316 C 0.58697 0.96897 0.33298 0.0
C3317 C 0.5966 0.96322 0.34595 0.0
C3318 C 0.62536 0.02092 0.32919 0.0
C3319 C 0.56676 0.95497 0.32568 0.0
C3320 C 0.56516 0.00828 0.31404 0.0
C3321 C 0.56321 0.00567 0.29311 0.0
C3322 C 0.5761 0.00289 0.32537 0.0
C3323 C 0.58544 0.99476 0.31557 0.0
C3324 C 0.58386 0.99244 0.29443 0.0
C3325 C 0.57265 0.99782 0.28344 0.0
C3326 C 0.57722 0.00541 0.34787 0.0
C3327 C 0.59372 0.98397 0.28345 0.0
H3328 H 0.63873 0.00448 0.35367 0.0
H3329 H 0.58937 0.94882 0.35038 0.0
H3330 H 0.62384 0.02088 0.31274 0.0
H3331 H 0.61924 0.02916 0.33565 0.0
H3332 H 0.64044 0.0285 0.33464 0.0
H3333 H 0.56199 0.94043 0.3303 0.0
H3334 H 0.55791 0.96029 0.33169 0.0
H3335 H 0.56452 0.95377 0.30917 0.0
H3336 H 0.5576 0.014 0.32159 0.0
H3337 H 0.57123 0.99584 0.26726 0.0
H3338 H 0.59198 0.01414 0.35438 0.0
H3339 H 0.57131 0.9912 0.35365 0.0
H3340 H 0.56956 0.01247 0.35318 0.0
H3341 H 0.60883 0.99204 0.2887 0.0
H3342 H 0.59193 0.98413 0.26704 0.0
H3343 H 0.58824 0.96891 0.28668 0.0
C3344 C 0.04239 0.64915 0.28633 0.0
C3345 C 0.03056 0.65597 0.29143 0.0
C3346 C 0.03514 0.62992 0.27877 0.0
C3347 C 0.0156 0.61733 0.27592 0.0
C3348 C 0.0036 0.62399 0.28154 0.0
C3349 C 0.01123 0.64319 0.28939 0.0
C3350 C 0.04839 0.62322 0.27331 0.0
C3351 C 0.98269 0.61104 0.27851 0.0
C3352 C 0.99825 0.57534 0.23589 0.0
C3353 C 0.99462 0.56028 0.24737 0.0
C3354 C 0.00459 0.59389 0.24504 0.0
C3355 C 0.00772 0.59748 0.26615 0.0
C3356 C 0.00383 0.58222 0.2778 0.0
C3357 C 0.99717 0.56373 0.26824 0.0
C3358 C 0.00826 0.60973 0.23213 0.0
C3359 C 0.00729 0.58554 0.3003 0.0
H3360 H 0.05733 0.6589 0.28801 0.0
H3361 H 0.00197 0.64835 0.2932 0.0
H3362 H 0.04528 0.61014 0.28052 0.0
H3363 H 0.04653 0.61935 0.25694 0.0
H3364 H 0.06318 0.63438 0.27784 0.0
H3365 H 0.97533 0.61815 0.28459 0.0
H3366 H 0.978 0.60664 0.26233 0.0
H3367 H 0.97848 0.59777 0.28579 0.0
H3368 H 0.99625 0.57259 0.21974 0.0
H3369 H 0.99461 0.55207 0.27707 0.0
H3370 H 0.0233 0.62073 0.23417 0.0
H3371 H 0.00054 0.61695 0.23669 0.0
H3372 H 0.0041 0.60433 0.21603 0.0
H3373 H 0.02232 0.59563 0.30495 0.0
H3374 H 0.003 0.57202 0.30717 0.0
H3375 H -0.00041 0.59227 0.30629 0.0
C3376 C 0.33712 0.37886 0.34963 0.0
C3377 C 0.34321 0.38016 0.36981 0.0
C3378 C 0.34967 0.38435 0.33516 0.0
C3379 C 0.36877 0.39149 0.34104 0.0
C3380 C 0.37506 0.3931 0.36141 0.0
C3381 C 0.36217 0.38733 0.37555 0.0
C3382 C 0.34245 0.38231 0.31354 0.0
C3383 C 0.39538 0.40086 0.36824 0.0
C3384 C 0.3985 0.38951 0.30168 0.0
C3385 C 0.40682 0.40821 0.2962 0.0
C3386 C 0.38611 0.38386 0.31635 0.0
C3387 C 0.38218 0.39733 0.32584 0.0
C3388 C 0.39081 0.41632 0.32058 0.0
C3389 C 0.40298 0.42151 0.30575 0.0
C3390 C 0.37703 0.36344 0.32149 0.0
C3391 C 0.38714 0.43114 0.33056 0.0
H3392 H 0.32247 0.37324 0.34507 0.0
H3393 H 0.36698 0.38839 0.39112 0.0
H3394 H 0.34945 0.39649 0.30766 0.0
H3395 H 0.34573 0.37271 0.30446 0.0
H3396 H 0.32715 0.37639 0.31143 0.0
H3397 H 0.39805 0.40152 0.38468 0.0
H3398 H 0.40015 0.39168 0.36094 0.0
H3399 H 0.40395 0.41549 0.36373 0.0
H3400 H 0.40141 0.37922 0.29422 0.0
H3401 H 0.40965 0.43607 0.30172 0.0
H3402 H 0.36167 0.35642 0.31837 0.0
H3403 H 0.38021 0.36328 0.33765 0.0
H3404 H 0.38175 0.35481 0.3129 0.0
H3405 H 0.37213 0.42639 0.32778 0.0
H3406 H 0.39536 0.44542 0.3251 0.0
H3407 H 0.39061 0.43269 0.34695 0.0
C3408 C 0.31826 0.30985 0.39977 0.0
C3409 C 0.30116 0.30275 0.40781 0.0
C3410 C 0.32952 0.3018 0.40324 0.0
C3411 C 0.32359 0.28644 0.41516 0.0
C3412 C 0.30584 0.27842 0.4222 0.0
C3413 C 0.29479 0.28661 0.41834 0.0
C3414 C 0.3482 0.31048 0.39515 0.0
C3415 C 0.299 0.26199 0.43495 0.0
C3416 C 0.3458 0.25589 0.42096 0.0
C3417 C 0.35624 0.26382 0.43967 0.0
C3418 C 0.33604 0.26391 0.41201 0.0
C3419 C 0.33658 0.28002 0.42219 0.0
C3420 C 0.34805 0.28877 0.44048 0.0
C3421 C 0.35781 0.28059 0.44896 0.0
C3422 C 0.32426 0.25443 0.3923 0.0
C3423 C 0.34895 0.30593 0.45187 0.0
H3424 H 0.32323 0.32219 0.39141 0.0
H3425 H 0.28158 0.28093 0.42452 0.0
H3426 H 0.35943 0.31884 0.40754 0.0
H3427 H 0.35051 0.29908 0.38848 0.0
H3428 H 0.34948 0.32023 0.38371 0.0
H3429 H 0.28433 0.25647 0.43795 0.0
H3430 H 0.30007 0.25 0.42759 0.0
H3431 H 0.30789 0.26683 0.44945 0.0
H3432 H 0.3447 0.24299 0.4137 0.0
H3433 H 0.36566 0.2866 0.46355 0.0
H3434 H 0.32608 0.26534 0.38213 0.0
H3435 H 0.30934 0.24644 0.39483 0.0
H3436 H 0.32773 0.24418 0.38482 0.0
H3437 H 0.35203 0.31736 0.44199 0.0
H3438 H 0.35972 0.31197 0.46497 0.0
H3439 H 0.33523 0.30164 0.45723 0.0
C3440 C 0.72539 0.03974 0.42869 0.0
C3441 C 0.70627 0.03241 0.42398 0.0
C3442 C 0.73765 0.05939 0.43421 0.0
C3443 C 0.73055 0.07201 0.43548 0.0
C3444 C 0.71135 0.06482 0.43007 0.0
C3445 C 0.69943 0.04509 0.42417 0.0
C3446 C 0.75811 0.06654 0.43942 0.0
C3447 C 0.70323 0.07777 0.43149 0.0
C3448 C 0.76006 0.11592 0.47278 0.0
C3449 C 0.77029 0.12985 0.46028 0.0
C3450 C 0.74635 0.09728 0.46481 0.0
C3451 C 0.74312 0.09238 0.44385 0.0
C3452 C 0.75304 0.1066 0.43114 0.0
C3453 C 0.76643 0.12526 0.43953 0.0
C3454 C 0.73582 0.08264 0.47887 0.0
C3455 C 0.75024 0.10188 0.40876 0.0
H3456 H 0.73076 0.03001 0.42837 0.0
H3457 H 0.68463 0.03947 0.42066 0.0
H3458 H 0.76668 0.07895 0.43118 0.0
H3459 H 0.76204 0.07156 0.45559 0.0
H3460 H 0.76163 0.05523 0.43591 0.0
H3461 H 0.68839 0.07032 0.42512 0.0
H3462 H 0.7042 0.08293 0.44738 0.0
H3463 H 0.71128 0.0906 0.42359 0.0
H3464 H 0.76302 0.11956 0.48884 0.0
H3465 H 0.77451 0.13604 0.4299 0.0
H3466 H 0.73986 0.0715 0.47822 0.0
H3467 H 0.72061 0.0753 0.4743 0.0
H3468 H 0.73865 0.0892 0.49457 0.0
H3469 H 0.75532 0.09194 0.40475 0.0
H3470 H 0.75779 0.11489 0.40091 0.0
H3471 H 0.73522 0.09445 0.40323 0.0
C3472 C 0.95774 0.66664 0.32975 0.0
C3473 C 0.97619 0.67823 0.33847 0.0
C3474 C 0.94282 0.66019 0.34145 0.0
C3475 C 0.94651 0.66539 0.36233 0.0
C3476 C 0.96513 0.67654 0.37129 0.0
C3477 C 0.97975 0.68288 0.35924 0.0
C3478 C 0.92313 0.64836 0.3314 0.0
C3479 C 0.9696 0.68225 0.39355 0.0
C3480 C 0.91084 0.66905 0.39132 0.0
C3481 C 0.9035 0.65225 0.40082 0.0
C3482 C 0.92446 0.67319 0.37827 0.0
C3483 C 0.93094 0.66025 0.37475 0.0
C3484 C 0.92321 0.64299 0.38388 0.0
C3485 C 0.90949 0.63915 0.39679 0.0
C3486 C 0.93224 0.69166 0.36865 0.0
C3487 C 0.92988 0.62893 0.38055 0.0
H3488 H 0.95489 0.66295 0.31371 0.0
H3489 H 0.99398 0.6917 0.36611 0.0
H3490 H 0.91533 0.63497 0.33855 0.0
H3491 H 0.91579 0.65651 0.33321 0.0
H3492 H 0.92266 0.64451 0.3152 0.0
H3493 H 0.98481 0.68992 0.3983 0.0
H3494 H 0.96416 0.69175 0.39812 0.0
H3495 H 0.96267 0.66936 0.40167 0.0
H3496 H 0.90601 0.67905 0.39423 0.0
H3497 H 0.90389 0.62622 0.40426 0.0
H3498 H 0.93107 0.68862 0.35221 0.0
H3499 H 0.94725 0.70106 0.37395 0.0
H3500 H 0.92495 0.69964 0.37209 0.0
H3501 H 0.9291 0.62498 0.36434 0.0
H3502 H 0.92161 0.61562 0.38772 0.0
H3503 H 0.9447 0.63571 0.38673 0.0
C3504 C 0.37697 0.00644 0.71706 0.0
C3505 C 0.38719 0.01921 0.70348 0.0
C3506 C 0.38585 0.00141 0.73188 0.0
C3507 C 0.4054 0.00936 0.73315 0.0
C3508 C 0.41578 0.02238 0.7196 0.0
C3509 C 0.40657 0.02713 0.70495 0.0
C3510 C 0.37433 0.98748 0.74607 0.0
C3511 C 0.43666 0.03121 0.72046 0.0
C3512 C 0.43427 0.01166 0.78011 0.0
C3513 C 0.43812 0.99705 0.77494 0.0
C3514 C 0.42287 0.01524 0.76705 0.0
C3515 C 0.41515 0.00396 0.74837 0.0
C3516 C 0.41822 0.98858 0.7435 0.0
C3517 C 0.42968 0.98533 0.75683 0.0
C3518 C 0.41987 0.03172 0.77284 0.0
C3519 C 0.41025 0.97623 0.72373 0.0
H3520 H 0.36199 0.00025 0.71604 0.0
H3521 H 0.41461 0.03703 0.69458 0.0
H3522 H 0.37573 0.97456 0.74444 0.0
H3523 H 0.37951 0.99411 0.76171 0.0
H3524 H 0.35933 0.98289 0.7434 0.0
H3525 H 0.44272 0.04129 0.709 0.0
H3526 H 0.44338 0.03911 0.73541 0.0
H3527 H 0.44018 0.01977 0.71816 0.0
H3528 H 0.44059 0.02062 0.79419 0.0
H3529 H 0.43278 0.97419 0.75258 0.0
H3530 H 0.40483 0.02696 0.77064 0.0
H3531 H 0.42708 0.04324 0.76308 0.0
H3532 H 0.42526 0.03787 0.78862 0.0
H3533 H 0.39513 0.97095 0.72089 0.0
H3534 H 0.41231 0.96369 0.72308 0.0
H3535 H 0.4171 0.98491 0.71151 0.0
C3536 C 0.98161 0.3593 0.76709 0.0
C3537 C 0.96596 0.34461 0.7745 0.0
C3538 C 0.98871 0.37864 0.77415 0.0
C3539 C 0.98013 0.38333 0.78919 0.0
C3540 C 0.96416 0.3686 0.79648 0.0
C3541 C 0.95718 0.34945 0.78892 0.0
C3542 C 0.00553 0.39401 0.76574 0.0
C3543 C 0.95474 0.37302 0.81267 0.0
C3544 C 0.00776 0.42999 0.82335 0.0
C3545 C 0.00022 0.4407 0.81605 0.0
C3546 C 0.00163 0.41137 0.81445 0.0
C3547 C 0.98796 0.40359 0.79767 0.0
C3548 C 0.98092 0.41476 0.78979 0.0
C3549 C 0.987 0.43314 0.79924 0.0
C3550 C 0.00925 0.39978 0.82346 0.0
C3551 C 0.96663 0.40714 0.7717 0.0
H3552 H 0.98843 0.35569 0.75589 0.0
H3553 H 0.94516 0.3382 0.79484 0.0
H3554 H 0.00246 0.40482 0.76012 0.0
H3555 H 0.01734 0.40164 0.77768 0.0
H3556 H 0.00997 0.38806 0.75338 0.0
H3557 H 0.9424 0.35991 0.81664 0.0
H3558 H 0.96475 0.38027 0.82629 0.0
H3559 H 0.95022 0.38302 0.80781 0.0
H3560 H 0.01797 0.43595 0.83641 0.0
H3561 H 0.98136 0.44163 0.79358 0.0
H3562 H 0.01502 0.39452 0.81193 0.0
H3563 H 0.99782 0.38699 0.82909 0.0
H3564 H 0.02034 0.4082 0.83599 0.0
H3565 H 0.97139 0.4016 0.75932 0.0
H3566 H 0.96386 0.41827 0.76641 0.0
H3567 H 0.95335 0.39496 0.77535 0.0
C3568 C 0.66697 0.62863 0.72263 0.0
C3569 C 0.6643 0.61842 0.70398 0.0
C3570 C 0.65305 0.62192 0.73558 0.0
C3571 C 0.63613 0.60449 0.72982 0.0
C3572 C 0.6335 0.59387 0.71124 0.0
C3573 C 0.6476 0.60102 0.69847 0.0
C3574 C 0.65629 0.63371 0.75523 0.0
C3575 C 0.61571 0.57509 0.70475 0.0
C3576 C 0.60672 0.58005 0.77106 0.0
C3577 C 0.59319 0.58548 0.76937 0.0
C3578 C 0.62059 0.58586 0.75806 0.0
C3579 C 0.62109 0.59758 0.74317 0.0
C3580 C 0.6075 0.60313 0.74136 0.0
C3581 C 0.59366 0.59693 0.75443 0.0
C3582 C 0.63481 0.5796 0.76037 0.0
C3583 C 0.60768 0.61574 0.72573 0.0
H3584 H 0.67981 0.64212 0.72698 0.0
H3585 H 0.64548 0.59304 0.68411 0.0
H3586 H 0.6457 0.63813 0.75578 0.0
H3587 H 0.65469 0.62497 0.76777 0.0
H3588 H 0.67036 0.64679 0.75761 0.0
H3589 H 0.61613 0.56824 0.69016 0.0
H3590 H 0.61309 0.56497 0.71613 0.0
H3591 H 0.60375 0.57751 0.70348 0.0
H3592 H 0.60665 0.57147 0.78277 0.0
H3593 H 0.5831 0.60095 0.75284 0.0
H3594 H 0.64894 0.59235 0.76419 0.0
H3595 H 0.63493 0.57216 0.74607 0.0
H3596 H 0.63202 0.56983 0.77218 0.0
H3597 H 0.62106 0.62961 0.72788 0.0
H3598 H 0.59608 0.61871 0.72625 0.0
H3599 H 0.60663 0.60879 0.71063 0.0
C3600 C 0.71236 0.72475 0.65961 0.0
C3601 C 0.7058 0.70842 0.66987 0.0
C3602 C 0.70132 0.73289 0.65552 0.0
C3603 C 0.68338 0.72467 0.66211 0.0
C3604 C 0.67733 0.70925 0.67398 0.0
C3605 C 0.68857 0.70121 0.67763 0.0
C3606 C 0.70832 0.74937 0.64281 0.0
C3607 C 0.65849 0.70044 0.68171 0.0
C3608 C 0.66105 0.75478 0.65395 0.0
C3609 C 0.65117 0.74658 0.63502 0.0
C3610 C 0.67049 0.74688 0.66383 0.0
C3611 C 0.67031 0.73071 0.65431 0.0
C3612 C 0.65937 0.7217 0.63578 0.0
C3613 C 0.64984 0.7297 0.62641 0.0
C3614 C 0.68162 0.75658 0.6838 0.0
C3615 C 0.65891 0.70451 0.62503 0.0
H3616 H 0.72571 0.73057 0.65369 0.0
H3617 H 0.68346 0.68874 0.68582 0.0
H3618 H 0.69976 0.74446 0.6281 0.0
H3619 H 0.70692 0.76122 0.64993 0.0
H3620 H 0.72313 0.75509 0.64026 0.0
H3621 H 0.65729 0.6911 0.69356 0.0
H3622 H 0.65576 0.71176 0.68773 0.0
H3623 H 0.64748 0.69161 0.66926 0.0
H3624 H 0.66197 0.76778 0.66065 0.0
H3625 H 0.64241 0.72349 0.61166 0.0
H3626 H 0.69664 0.76502 0.68179 0.0
H3627 H 0.67985 0.74581 0.69414 0.0
H3628 H 0.67751 0.76649 0.69083 0.0
H3629 H 0.67285 0.70883 0.6203 0.0
H3630 H 0.64853 0.69828 0.61159 0.0
H3631 H 0.65555 0.6932 0.63514 0.0
C3632 C 0.27638 0.96192 0.62828 0.0
C3633 C 0.29349 0.9687 0.63985 0.0
C3634 C 0.26386 0.94222 0.6235 0.0
C3635 C 0.26847 0.92885 0.63047 0.0
C3636 C 0.28552 0.9355 0.64247 0.0
C3637 C 0.29785 0.95536 0.64702 0.0
C3638 C 0.24578 0.93573 0.61071 0.0
C3639 C 0.29084 0.92165 0.65024 0.0
C3640 C 0.2268 0.87874 0.62976 0.0
C3641 C 0.22719 0.86991 0.6114 0.0
C3642 C 0.24071 0.89762 0.63669 0.0
C3643 C 0.25534 0.90795 0.62492 0.0
C3644 C 0.25631 0.89879 0.60683 0.0
C3645 C 0.24223 0.87984 0.6003 0.0
C3646 C 0.23926 0.9068 0.65614 0.0
C3647 C 0.27167 0.90934 0.59383 0.0
H3648 H 0.27279 0.97203 0.62268 0.0
H3649 H 0.31102 0.96041 0.65596 0.0
H3650 H 0.24505 0.92726 0.59676 0.0
H3651 H 0.2338 0.92623 0.6187 0.0
H3652 H 0.2442 0.94796 0.60666 0.0
H3653 H 0.3043 0.92909 0.65995 0.0
H3654 H 0.27985 0.91145 0.65887 0.0
H3655 H 0.29197 0.91304 0.63755 0.0
H3656 H 0.21534 0.87098 0.63854 0.0
H3657 H 0.24253 0.87311 0.58604 0.0
H3658 H 0.23603 0.91818 0.6531 0.0
H3659 H 0.25272 0.91374 0.66576 0.0
H3660 H 0.2282 0.89625 0.66449 0.0
H3661 H 0.27011 0.92086 0.58756 0.0
H3662 H 0.27146 0.89967 0.58126 0.0
H3663 H 0.28547 0.91631 0.6028 0.0
C3664 C 0.0239 0.31892 0.71151 0.0
C3665 C 0.02431 0.32929 0.72916 0.0
C3666 C 0.0392 0.32605 0.70038 0.0
C3667 C 0.05528 0.34402 0.70701 0.0
C3668 C 0.05564 0.35477 0.72457 0.0
C3669 C 0.04015 0.34724 0.73548 0.0
C3670 C 0.03831 0.31415 0.68174 0.0
C3671 C 0.07251 0.37405 0.73198 0.0
C3672 C 0.10008 0.35111 0.68873 0.0
C3673 C 0.10152 0.36131 0.67227 0.0
C3674 C 0.0854 0.34592 0.70056 0.0
C3675 C 0.07189 0.35115 0.69587 0.0
C3676 C 0.07367 0.36212 0.67977 0.0
C3677 C 0.08846 0.36704 0.66812 0.0
C3678 C 0.08399 0.33425 0.71765 0.0
C3679 C 0.05956 0.368 0.67437 0.0
H3680 H 0.0117 0.30506 0.7065 0.0
H3681 H 0.04054 0.35539 0.74904 0.0
H3682 H 0.04102 0.32259 0.66877 0.0
H3683 H 0.04929 0.31029 0.68354 0.0
H3684 H 0.02458 0.30073 0.67832 0.0
H3685 H 0.07025 0.38099 0.74538 0.0
H3686 H 0.08467 0.37232 0.73578 0.0
H3687 H 0.07612 0.38378 0.72006 0.0
H3688 H 0.11031 0.34691 0.69218 0.0
H3689 H 0.08939 0.37475 0.65528 0.0
H3690 H 0.07121 0.31988 0.71462 0.0
H3691 H 0.08281 0.34129 0.73166 0.0
H3692 H 0.0962 0.33229 0.72002 0.0
H3693 H 0.04592 0.35507 0.66895 0.0
H3694 H 0.06382 0.3779 0.66256 0.0
H3695 H 0.05748 0.37513 0.68772 0.0
C3696 C 0.28772 0.35162 0.70815 0.0
C3697 C 0.29593 0.34101 0.70187 0.0
C3698 C 0.27741 0.35598 0.69445 0.0
C3699 C 0.27532 0.34969 0.67392 0.0
C3700 C 0.28403 0.33948 0.66737 0.0
C3701 C 0.2942 0.33521 0.68144 0.0
C3702 C 0.26828 0.36683 0.70205 0.0
C3703 C 0.28222 0.33266 0.64559 0.0
C3704 C 0.23208 0.34304 0.64403 0.0
C3705 C 0.23909 0.36029 0.63531 0.0
C3706 C 0.24384 0.33918 0.65612 0.0
C3707 C 0.26311 0.35288 0.65957 0.0
C3708 C 0.27039 0.37007 0.65031 0.0
C3709 C 0.25827 0.37361 0.63835 0.0
C3710 C 0.23548 0.32075 0.66583 0.0
C3711 C 0.29088 0.38495 0.6535 0.0
H3712 H 0.289 0.35621 0.72388 0.0
H3713 H 0.30056 0.32709 0.67644 0.0
H3714 H 0.27253 0.37976 0.69412 0.0
H3715 H 0.25291 0.35766 0.69897 0.0
H3716 H 0.27189 0.3714 0.71835 0.0
H3717 H 0.2909 0.3261 0.64275 0.0
H3718 H 0.26746 0.32185 0.64044 0.0
H3719 H 0.28636 0.3448 0.63644 0.0
H3720 H 0.21723 0.33283 0.64204 0.0
H3721 H 0.26376 0.3869 0.63153 0.0
H3722 H 0.23711 0.32407 0.68228 0.0
H3723 H 0.24293 0.31293 0.66253 0.0
H3724 H 0.22043 0.31111 0.66071 0.0
H3725 H 0.29485 0.3911 0.66938 0.0
H3726 H 0.29455 0.39683 0.64405 0.0
H3727 H 0.29931 0.37822 0.65015 0.0
C3728 C 0.69845 0.97232 0.62286 0.0
C3729 C 0.68879 0.98196 0.62683 0.0
C3730 C 0.68887 0.95265 0.61621 0.0
C3731 C 0.66915 0.94246 0.6131 0.0
C3732 C 0.65929 0.95194 0.61774 0.0
C3733 C 0.66924 0.97156 0.62473 0.0
C3734 C 0.69988 0.94294 0.61183 0.0
C3735 C 0.63829 0.94162 0.6144 0.0
C3736 C 0.64908 0.89946 0.57396 0.0
C3737 C 0.64366 0.88435 0.58583 0.0
C3738 C 0.65656 0.91838 0.58267 0.0
C3739 C 0.65904 0.92225 0.60375 0.0
C3740 C 0.65303 0.90692 0.61576 0.0
C3741 C 0.64525 0.88808 0.60662 0.0
C3742 C 0.66247 0.93429 0.56934 0.0
C3743 C 0.65571 0.9105 0.63826 0.0
H3744 H 0.71356 0.98023 0.62462 0.0
H3745 H 0.66167 0.97894 0.62767 0.0
H3746 H 0.69465 0.92971 0.61945 0.0
H3747 H 0.69806 0.93859 0.59556 0.0
H3748 H 0.715 0.95244 0.61667 0.0
H3749 H 0.63267 0.95061 0.62019 0.0
H3750 H 0.63368 0.93752 0.59817 0.0
H3751 H 0.63213 0.92818 0.62171 0.0
H3752 H 0.64781 0.89648 0.55788 0.0
H3753 H 0.64129 0.87636 0.61576 0.0
H3754 H 0.67786 0.9436 0.57139 0.0
H3755 H 0.65652 0.94343 0.57344 0.0
H3756 H 0.65803 0.9287 0.5533 0.0
H3757 H 0.67082 0.91843 0.6435 0.0
H3758 H 0.64894 0.89694 0.64538 0.0
H3759 H 0.64998 0.91956 0.64342 0.0
C3760 C 0.02566 0.70796 0.71224 0.0
C3761 C 0.00789 0.70348 0.70407 0.0
C3762 C 0.04041 0.71384 0.70036 0.0
C3763 C 0.03723 0.71507 0.67982 0.0
C3764 C 0.01924 0.71017 0.67141 0.0
C3765 C 0.0048 0.70453 0.68365 0.0
C3766 C 0.05947 0.71911 0.70986 0.0
C3767 C 0.01529 0.71117 0.64951 0.0
C3768 C 0.07658 0.74874 0.65157 0.0
C3769 C 0.08032 0.736 0.64065 0.0
C3770 C 0.06303 0.74217 0.66492 0.0
C3771 C 0.05286 0.72236 0.66723 0.0
C3772 C 0.05697 0.7095 0.65667 0.0
C3773 C 0.07078 0.71652 0.64354 0.0
C3774 C 0.05924 0.75637 0.67613 0.0
C3775 C 0.04631 0.68826 0.65867 0.0
H3776 H 0.02814 0.70717 0.728 0.0
H3777 H 0.99107 0.70093 0.6772 0.0
H3778 H 0.0646 0.71061 0.70184 0.0
H3779 H 0.06949 0.73447 0.70867 0.0
H3780 H 0.05945 0.71665 0.72586 0.0
H3781 H 0.00034 0.70597 0.64511 0.0
H3782 H 0.02364 0.7262 0.64599 0.0
H3783 H 0.01948 0.70244 0.64027 0.0
H3784 H 0.08419 0.76386 0.64951 0.0
H3785 H 0.07366 0.70669 0.63501 0.0
H3786 H 0.06003 0.75509 0.69238 0.0
H3787 H 0.04493 0.75316 0.67127 0.0
H3788 H 0.06922 0.77143 0.67365 0.0
H3789 H 0.04663 0.68576 0.67462 0.0
H3790 H 0.05199 0.68039 0.65042 0.0
H3791 H 0.03149 0.68214 0.65282 0.0
C3792 C 0.9639 0.62963 0.73047 0.0
C3793 C 0.94825 0.62761 0.73919 0.0
C3794 C 0.97187 0.61859 0.73554 0.0
C3795 C 0.96415 0.60545 0.74983 0.0
C3796 C 0.94762 0.60239 0.75761 0.0
C3797 C 0.93978 0.61341 0.75207 0.0
C3798 C 0.98925 0.62193 0.72659 0.0
C3799 C 0.939 0.58852 0.77296 0.0
C3800 C 0.97867 0.56924 0.76119 0.0
C3801 C 0.9912 0.57868 0.77843 0.0
C3802 C 0.97037 0.57813 0.75105 0.0
C3803 C 0.9745 0.59669 0.75858 0.0
C3804 C 0.98768 0.60653 0.77556 0.0
C3805 C 0.99593 0.59742 0.78521 0.0
C3806 C 0.95668 0.56738 0.73277 0.0
C3807 C 0.99236 0.62631 0.78415 0.0
H3808 H 0.9704 0.6404 0.72029 0.0
H3809 H 0.92767 0.6117 0.75884 0.0
H3810 H 0.00148 0.63007 0.73797 0.0
H3811 H 0.98833 0.60808 0.72192 0.0
H3812 H 0.99172 0.63021 0.71348 0.0
H3813 H 0.92524 0.58646 0.77609 0.0
H3814 H 0.93721 0.57436 0.76789 0.0
H3815 H 0.94842 0.59404 0.78712 0.0
H3816 H 0.97511 0.55477 0.75588 0.0
H3817 H 0.00542 0.60463 0.79869 0.0
H3818 H 0.95989 0.57667 0.72049 0.0
H3819 H 0.94242 0.56326 0.73627 0.0
H3820 H 0.95673 0.55415 0.72745 0.0
H3821 H 0.99695 0.63631 0.77249 0.0
H3822 H 0.00351 0.6323 0.79687 0.0
H3823 H 0.97974 0.62567 0.78941 0.0
C3824 C 0.39656 0.37913 0.76523 0.0
C3825 C 0.37777 0.37214 0.75868 0.0
C3826 C 0.4086 0.39856 0.7721 0.0
C3827 C 0.40164 0.4113 0.77274 0.0
C3828 C 0.38287 0.40452 0.76542 0.0
C3829 C 0.37118 0.38502 0.75833 0.0
C3830 C 0.42862 0.40528 0.77941 0.0
C3831 C 0.37491 0.41763 0.766 0.0
C3832 C 0.42839 0.45353 0.81265 0.0
C3833 C 0.44019 0.46802 0.80149 0.0
C3834 C 0.41507 0.43527 0.80331 0.0
C3835 C 0.41377 0.43133 0.78234 0.0
C3836 C 0.4252 0.44615 0.77092 0.0
C3837 C 0.43822 0.46439 0.78064 0.0
C3838 C 0.40293 0.41996 0.816 0.0
C3839 C 0.4244 0.44248 0.74858 0.0
H3840 H 0.40179 0.36929 0.76537 0.0
H3841 H 0.35665 0.37972 0.75338 0.0
H3842 H 0.43817 0.41806 0.77217 0.0
H3843 H 0.43112 0.4096 0.79574 0.0
H3844 H 0.43222 0.39396 0.77637 0.0
H3845 H 0.36059 0.4106 0.75815 0.0
H3846 H 0.37447 0.42206 0.78176 0.0
H3847 H 0.38393 0.43088 0.75912 0.0
H3848 H 0.42986 0.45641 0.82877 0.0
H3849 H 0.44751 0.47555 0.77203 0.0
H3850 H 0.40674 0.40865 0.81575 0.0
H3851 H 0.38808 0.413 0.80987 0.0
H3852 H 0.40442 0.42581 0.83176 0.0
H3853 H 0.42969 0.43261 0.74515 0.0
H3854 H 0.43288 0.45591 0.74168 0.0
H3855 H 0.40981 0.43538 0.74156 0.0
C3856 C 0.62702 0.01302 0.66682 0.0
C3857 C 0.64589 0.02178 0.67417 0.0
C3858 C 0.61336 0.00927 0.67978 0.0
C3859 C 0.61872 0.01436 0.70056 0.0
C3860 C 0.6377 0.02301 0.7081 0.0
C3861 C 0.65107 0.02664 0.69481 0.0
C3862 C 0.59323 5e-05 0.67123 0.0
C3863 C 0.64392 0.02857 0.73019 0.0
C3864 C 0.58724 0.02227 0.73312 0.0
C3865 C 0.57846 0.00501 0.74181 0.0
C3866 C 0.60021 0.0254 0.71946 0.0
C3867 C 0.60451 0.01094 0.71444 0.0
C3868 C 0.59556 0.99342 0.72302 0.0
C3869 C 0.5826 0.99065 0.73659 0.0
C3870 C 0.60941 0.04424 0.71052 0.0
C3871 C 0.59989 0.97772 0.7181 0.0
H3872 H 0.62291 0.00922 0.6509 0.0
H3873 H 0.66561 0.03337 0.70062 0.0
H3874 H 0.58463 0.98657 0.67795 0.0
H3875 H 0.58782 0.00975 0.67499 0.0
H3876 H 0.59134 0.9967 0.65474 0.0
H3877 H 0.65917 0.0348 0.73366 0.0
H3878 H 0.64022 0.03924 0.73586 0.0
H3879 H 0.63658 0.01582 0.73842 0.0
H3880 H 0.58388 0.0333 0.73694 0.0
H3881 H 0.57599 0.97738 0.74347 0.0
H3882 H 0.60691 0.04159 0.69399 0.0
H3883 H 0.6247 0.05182 0.71461 0.0
H3884 H 0.6042 0.05381 0.71564 0.0
H3885 H 0.59738 0.97354 0.70175 0.0
H3886 H 0.59135 0.96475 0.72566 0.0
H3887 H 0.61483 0.98306 0.72268 0.0
loop_
_geom_bond_atom_site_label_1
_geom_bond_atom_site_label_2
_geom_bond_distance
_geom_bond_site_symmetry_2
_ccdc_geom_bond_type
Mg0 O1 2.028 . S
Mg0 O7 1.986 1_455 S
Mg0 O9 2.114 . S
Mg0 O10 2.251 1_554 S
Mg0 O13 2.010 . S
O1 Mg0 2.028 . S
O1 C4 1.250 1_455 S
O2 Mg3 2.028 . S
O2 C4 1.248 . S
Mg3 O2 2.028 . S
Mg3 O8 2.032 . S
Mg3 O10 2.079 1_654 S
C4 O1 1.250 1_655 S
C4 O2 1.248 . S
C5 O6 1.264 . S
C5 O13 1.249 . S
O6 C5 1.264 . S
O7 Mg0 1.986 1_655 S
O7 C11 1.246 . S
O8 Mg3 2.032 . S
O8 C11 1.259 . S
O9 Mg0 2.114 . S
O9 C12 1.252 1_554 S
O10 Mg0 2.251 1_556 S
O10 Mg3 2.079 1_456 S
O10 C12 1.273 . S
C11 O7 1.246 . S
C11 O8 1.259 . S
C12 O9 1.252 1_556 S
C12 O10 1.273 . S
O13 Mg0 2.010 . S
O13 C5 1.249 . S
Mg14 O15 2.028 . S
Mg14 O21 1.986 . S
Mg14 O23 2.114 . S
Mg14 O24 2.251 . S
Mg14 O27 2.010 . S
O15 Mg14 2.028 . S
O15 C18 1.250 . S
O16 Mg17 2.028 . S
O16 C18 1.248 . S
Mg17 O16 2.028 . S
Mg17 O22 2.032 . S
Mg17 O24 2.079 . S
C18 O15 1.250 . S
C18 O16 1.248 . S
C19 O20 1.264 . S
C19 O27 1.249 . S
O20 C19 1.264 . S
O21 Mg14 1.986 . S
O21 C25 1.246 . S
O22 Mg17 2.032 . S
O22 C25 1.259 . S
O23 Mg14 2.114 . S
O23 C26 1.252 . S
O24 Mg14 2.251 . S
O24 Mg17 2.079 . S
O24 C26 1.273 . S
C25 O21 1.246 . S
C25 O22 1.259 . S
C26 O23 1.252 . S
C26 O24 1.273 . S
O27 Mg14 2.010 . S
O27 C19 1.249 . S
Mg28 O29 2.028 1_565 S
Mg28 O35 1.986 1_565 S
Mg28 O37 2.114 . S
Mg28 O38 2.251 1_564 S
Mg28 O41 2.010 . S
O29 Mg28 2.028 1_545 S
O29 C32 1.250 . S
O30 Mg31 2.028 . S
O30 C32 1.248 . S
Mg31 O30 2.028 . S
Mg31 O36 2.032 . S
Mg31 O38 2.079 1_554 S
C32 O29 1.250 . S
C32 O30 1.248 . S
C33 O34 1.264 . S
C33 O41 1.249 . S
O34 C33 1.264 . S
O35 Mg28 1.986 1_545 S
O35 C39 1.246 . S
O36 Mg31 2.032 . S
O36 C39 1.259 . S
O37 Mg28 2.114 . S
O37 C40 1.252 1_554 S
O38 Mg28 2.251 1_546 S
O38 Mg31 2.079 1_556 S
O38 C40 1.273 1_545 S
C39 O35 1.246 . S
C39 O36 1.259 . S
C40 O37 1.252 1_556 S
C40 O38 1.273 1_565 S
O41 Mg28 2.010 . S
O41 C33 1.249 . S
Mg42 O43 2.017 1_655 S
Mg42 O49 1.986 1_655 S
Mg42 O51 2.114 . S
Mg42 O52 2.251 1_655 S
Mg42 O55 2.010 . S
O43 Mg42 2.017 1_455 S
O43 C46 1.276 . S
O44 Mg45 2.028 . S
O44 C46 1.248 . S
Mg45 O44 2.028 . S
Mg45 O50 2.032 . S
Mg45 O52 2.079 . S
C46 O43 1.276 . S
C46 O44 1.248 . S
C47 O48 1.264 . S
C47 O55 1.249 . S
O48 C47 1.264 . S
O49 Mg42 1.986 1_455 S
O49 C53 1.246 . S
O50 Mg45 2.032 . S
O50 C53 1.259 . S
O51 Mg42 2.114 . S
O51 C54 1.252 . S
O52 Mg42 2.251 1_455 S
O52 Mg45 2.079 . S
O52 C54 1.273 1_455 S
C53 O49 1.246 . S
C53 O50 1.259 . S
C54 O51 1.252 . S
C54 O52 1.273 1_655 S
O55 Mg42 2.010 . S
O55 C47 1.249 . S
Mg56 O57 2.028 1_556 S
Mg56 O63 1.986 . S
Mg56 O65 2.114 . S
Mg56 O66 2.251 . S
Mg56 O69 2.010 1_556 S
O57 Mg56 2.028 1_554 S
O57 C60 1.250 . S
O58 Mg59 2.028 1_554 S
O58 C60 1.248 . S
Mg59 O58 2.028 1_556 S
Mg59 O64 2.032 . S
Mg59 O66 2.079 . S
C60 O57 1.250 . S
C60 O58 1.248 . S
C61 O62 1.264 . S
C61 O69 1.249 . S
O62 C61 1.264 . S
O63 Mg56 1.986 . S
O63 C67 1.246 . S
O64 Mg59 2.032 . S
O64 C67 1.259 . S
O65 Mg56 2.114 . S
O65 C68 1.252 . S
O66 Mg56 2.251 . S
O66 Mg59 2.079 . S
O66 C68 1.273 . S
C67 O63 1.246 . S
C67 O64 1.259 . S
C68 O65 1.252 . S
C68 O66 1.273 . S
O69 Mg56 2.010 1_554 S
O69 C61 1.249 . S
Mg70 O71 2.028 . S
Mg70 O77 1.986 1_545 S
Mg70 O79 2.114 . S
Mg70 O80 2.251 . S
Mg70 O83 2.010 . S
O71 Mg70 2.028 . S
O71 C74 1.250 . S
O72 Mg73 2.028 . S
O72 C74 1.248 1_565 S
Mg73 O72 2.028 . S
Mg73 O78 2.032 . S
Mg73 O80 2.079 1_565 S
C74 O71 1.250 . S
C74 O72 1.248 1_545 S
C75 O76 1.264 . S
C75 O83 1.249 . S
O76 C75 1.264 . S
O77 Mg70 1.986 1_565 S
O77 C81 1.246 . S
O78 Mg73 2.032 . S
O78 C81 1.259 . S
O79 Mg70 2.114 . S
O79 C82 1.252 . S
O80 Mg70 2.251 . S
O80 Mg73 2.079 1_545 S
O80 C82 1.273 . S
C81 O77 1.246 . S
C81 O78 1.259 . S
C82 O79 1.252 . S
C82 O80 1.273 . S
O83 Mg70 2.010 . S
O83 C75 1.249 . S
Mg84 O85 2.028 . S
Mg84 O91 1.986 . S
Mg84 O93 2.114 . S
Mg84 O94 2.251 . S
Mg84 O97 2.010 . S
O85 Mg84 2.028 . S
O85 C88 1.250 . S
O86 Mg87 2.028 . S
O86 C88 1.248 . S
Mg87 O86 2.028 . S
Mg87 O92 2.032 . S
Mg87 O94 2.079 . S
C88 O85 1.250 . S
C88 O86 1.248 . S
C89 O90 1.264 . S
C89 O97 1.249 . S
O90 C89 1.264 . S
O91 Mg84 1.986 . S
O91 C95 1.246 . S
O92 Mg87 2.032 . S
O92 C95 1.259 . S
O93 Mg84 2.114 . S
O93 C96 1.252 . S
O94 Mg84 2.251 . S
O94 Mg87 2.079 . S
O94 C96 1.273 . S
C95 O91 1.246 . S
C95 O92 1.259 . S
C96 O93 1.252 . S
C96 O94 1.273 . S
O97 Mg84 2.010 . S
O97 C89 1.249 . S
Mg98 O99 2.028 . S
Mg98 O105 1.986 . S
Mg98 O107 2.114 . S
Mg98 O108 2.251 . S
Mg98 O111 2.010 . S
O99 Mg98 2.028 . S
O99 C102 1.250 . S
O100 Mg101 2.028 . S
O100 C102 1.248 . S
Mg101 O100 2.028 . S
Mg101 O106 2.032 . S
Mg101 O108 2.079 . S
C102 O99 1.250 . S
C102 O100 1.248 . S
C103 O104 1.264 . S
C103 O111 1.249 . S
O104 C103 1.264 . S
O105 Mg98 1.986 . S
O105 C109 1.205 1_565 S
O106 Mg101 2.032 . S
O106 C109 1.259 1_565 S
O107 Mg98 2.114 . S
O107 C110 1.252 . S
O108 Mg98 2.251 . S
O108 Mg101 2.079 . S
O108 C110 1.273 . S
C109 O105 1.205 1_545 S
C109 O106 1.259 1_545 S
C110 O107 1.252 . S
C110 O108 1.273 . S
O111 Mg98 2.010 . S
O111 C103 1.249 . S
Mg112 O113 2.028 . S
Mg112 O119 1.986 . S
Mg112 O121 2.114 . S
Mg112 O122 2.251 . S
Mg112 O125 2.010 . S
O113 Mg112 2.028 . S
O113 C116 1.250 . S
O114 Mg115 2.028 . S
O114 C116 1.248 . S
Mg115 O114 2.028 . S
Mg115 O120 2.032 . S
Mg115 O122 2.079 . S
C116 O113 1.250 . S
C116 O114 1.248 . S
C117 O118 1.264 . S
C117 O125 1.249 1_655 S
O118 C117 1.264 . S
O119 Mg112 1.986 . S
O119 C123 1.246 . S
O120 Mg115 2.032 . S
O120 C123 1.259 . S
O121 Mg112 2.114 . S
O121 C124 1.252 . S
O122 Mg112 2.251 . S
O122 Mg115 2.079 . S
O122 C124 1.273 . S
C123 O119 1.246 . S
C123 O120 1.259 . S
C124 O121 1.252 . S
C124 O122 1.273 . S
O125 Mg112 2.010 . S
O125 C117 1.249 1_455 S
Mg126 O127 2.028 . S
Mg126 O133 1.986 . S
Mg126 O135 2.114 . S
Mg126 O136 2.251 . S
Mg126 O139 2.010 . S
O127 Mg126 2.028 . S
O127 C130 1.250 . S
O128 Mg129 2.028 . S
O128 C130 1.248 . S
Mg129 O128 2.028 . S
Mg129 O134 2.032 . S
Mg129 O136 2.079 . S
C130 O127 1.250 . S
C130 O128 1.248 . S
C131 O132 1.264 . S
C131 O139 1.249 . S
O132 C131 1.264 . S
O133 Mg126 1.986 . S
O133 C137 1.245 . S
O134 Mg129 2.032 . S
O134 C137 1.261 . S
O135 Mg126 2.114 . S
O135 C138 1.252 . S
O136 Mg126 2.251 . S
O136 Mg129 2.079 . S
O136 C138 1.273 . S
C137 O133 1.245 . S
C137 O134 1.261 . S
C138 O135 1.252 . S
C138 O136 1.273 . S
O139 Mg126 2.010 . S
O139 C131 1.249 . S
Mg140 O141 2.028 . S
Mg140 O147 1.986 . S
Mg140 O149 2.114 . S
Mg140 O150 2.251 . S
Mg140 O153 2.010 . S
O141 Mg140 2.028 . S
O141 C144 1.250 . S
O142 Mg143 2.028 . S
O142 C144 1.248 . S
Mg143 O142 2.028 . S
Mg143 O148 2.032 . S
Mg143 O150 2.079 . S
C144 O141 1.250 . S
C144 O142 1.248 . S
C145 O146 1.264 . S
C145 O153 1.249 1_655 S
O146 C145 1.264 . S
O147 Mg140 1.986 . S
O147 C151 1.246 . S
O148 Mg143 2.032 . S
O148 C151 1.259 . S
O149 Mg140 2.114 . S
O149 C152 1.252 . S
O150 Mg140 2.251 . S
O150 Mg143 2.079 . S
O150 C152 1.273 . S
C151 O147 1.246 . S
C151 O148 1.259 . S
C152 O149 1.252 . S
C152 O150 1.273 . S
O153 Mg140 2.010 . S
O153 C145 1.249 1_455 S
Mg154 O155 2.028 . S
Mg154 O161 1.986 . S
Mg154 O163 2.114 . S
Mg154 O164 2.251 . S
Mg154 O167 2.010 . S
O155 Mg154 2.028 . S
O155 C158 1.250 . S
O156 Mg157 2.028 . S
O156 C158 1.248 . S
Mg157 O156 2.028 . S
Mg157 O162 2.032 . S
Mg157 O164 2.079 . S
C158 O155 1.250 . S
C158 O156 1.248 . S
C159 O160 1.264 . S
C159 O167 1.249 . S
O160 C159 1.264 . S
O161 Mg154 1.986 . S
O161 C165 1.246 . S
O162 Mg157 2.032 . S
O162 C165 1.259 . S
O163 Mg154 2.114 . S
O163 C166 1.252 . S
O164 Mg154 2.251 . S
O164 Mg157 2.079 . S
O164 C166 1.273 . S
C165 O161 1.246 . S
C165 O162 1.259 . S
C166 O163 1.252 . S
C166 O164 1.273 . S
O167 Mg154 2.010 . S
O167 C159 1.249 . S
Mg168 O169 2.028 . S
Mg168 O175 1.986 . S
Mg168 O177 2.114 . S
Mg168 O178 2.251 . S
Mg168 O181 2.010 . S
O169 Mg168 2.028 . S
O169 C172 1.250 . S
O170 Mg171 2.028 . S
O170 C172 1.248 . S
Mg171 O170 2.028 . S
Mg171 O176 2.032 . S
Mg171 O178 2.079 . S
C172 O169 1.250 . S
C172 O170 1.248 . S
C173 O174 1.264 . S
C173 O181 1.249 . S
O174 C173 1.264 . S
O175 Mg168 1.986 . S
O175 C179 1.246 . S
O176 Mg171 2.032 . S
O176 C179 1.259 . S
O177 Mg168 2.114 . S
O177 C180 1.252 . S
O178 Mg168 2.251 . S
O178 Mg171 2.079 . S
O178 C180 1.273 . S
C179 O175 1.246 . S
C179 O176 1.259 . S
C180 O177 1.252 . S
C180 O178 1.273 . S
O181 Mg168 2.010 . S
O181 C173 1.249 . S
Mg182 O183 2.028 . S
Mg182 O189 1.986 . S
Mg182 O191 2.114 . S
Mg182 O192 2.251 . S
Mg182 O195 2.010 . S
O183 Mg182 2.028 . S
O183 C186 1.250 . S
O184 Mg185 2.028 . S
O184 C186 1.248 . S
Mg185 O184 2.028 . S
Mg185 O190 2.032 . S
Mg185 O192 2.079 . S
C186 O183 1.250 . S
C186 O184 1.248 . S
C187 O188 1.264 . S
C187 O195 1.249 1_455 S
O188 C187 1.264 . S
O189 Mg182 1.986 . S
O189 C193 1.246 . S
O190 Mg185 2.032 . S
O190 C193 1.259 . S
O191 Mg182 2.114 . S
O191 C194 1.252 . S
O192 Mg182 2.251 . S
O192 Mg185 2.079 . S
O192 C194 1.273 . S
C193 O189 1.246 . S
C193 O190 1.259 . S
C194 O191 1.252 . S
C194 O192 1.273 . S
O195 Mg182 2.010 . S
O195 C187 1.249 1_655 S
Mg196 O197 2.028 . S
Mg196 O203 1.986 . S
Mg196 O205 2.114 . S
Mg196 O206 2.251 . S
Mg196 O209 2.010 . S
O197 Mg196 2.028 . S
O197 C200 1.250 . S
O198 Mg199 2.028 . S
O198 C200 1.248 . S
Mg199 O198 2.028 . S
Mg199 O204 2.032 . S
Mg199 O206 2.079 . S
C200 O197 1.250 . S
C200 O198 1.248 . S
C201 O202 1.264 . S
C201 O209 1.249 . S
O202 C201 1.264 . S
O203 Mg196 1.986 . S
O203 C207 1.246 . S
O204 Mg199 2.032 . S
O204 C207 1.259 . S
O205 Mg196 2.114 . S
O205 C208 1.252 . S
O206 Mg196 2.251 . S
O206 Mg199 2.079 . S
O206 C208 1.273 . S
C207 O203 1.246 . S
C207 O204 1.259 . S
C208 O205 1.252 . S
C208 O206 1.273 . S
O209 Mg196 2.010 . S
O209 C201 1.249 . S
Mg210 O211 2.028 . S
Mg210 O217 1.986 . S
Mg210 O219 2.114 . S
Mg210 O220 2.251 . S
Mg210 O223 2.010 . S
O211 Mg210 2.028 . S
O211 C214 1.250 . S
O212 Mg213 2.028 . S
O212 C214 1.248 . S
Mg213 O212 2.028 . S
Mg213 O218 2.032 . S
Mg213 O220 2.079 . S
C214 O211 1.250 . S
C214 O212 1.248 . S
C215 O216 1.264 . S
C215 O223 1.249 . S
O216 C215 1.264 . S
O217 Mg210 1.986 . S
O217 C221 1.246 . S
O218 Mg213 2.032 . S
O218 C221 1.259 . S
O219 Mg210 2.114 . S
O219 C222 1.252 . S
O220 Mg210 2.251 . S
O220 Mg213 2.079 . S
O220 C222 1.273 . S
C221 O217 1.246 . S
C221 O218 1.259 . S
C222 O219 1.252 . S
C222 O220 1.273 . S
O223 Mg210 2.010 . S
O223 C215 1.249 . S
Mg224 O225 2.028 . S
Mg224 O231 1.986 . S
Mg224 O233 2.114 . S
Mg224 O234 2.251 . S
Mg224 O237 2.010 . S
O225 Mg224 2.028 . S
O225 C228 1.250 . S
O226 Mg227 2.028 . S
O226 C228 1.248 . S
Mg227 O226 2.028 . S
Mg227 O232 2.032 . S
Mg227 O234 2.079 . S
C228 O225 1.250 . S
C228 O226 1.248 . S
C229 O230 1.264 . S
C229 O237 1.249 . S
O230 C229 1.264 . S
O231 Mg224 1.986 . S
O231 C235 1.246 . S
O232 Mg227 2.032 . S
O232 C235 1.259 . S
O233 Mg224 2.114 . S
O233 C236 1.252 . S
O234 Mg224 2.251 . S
O234 Mg227 2.079 . S
O234 C236 1.273 . S
C235 O231 1.246 . S
C235 O232 1.259 . S
C236 O233 1.252 . S
C236 O234 1.273 . S
O237 Mg224 2.010 . S
O237 C229 1.249 . S
Mg238 O239 2.028 . S
Mg238 O245 1.986 . S
Mg238 O247 2.114 . S
Mg238 O248 2.251 . S
Mg238 O251 2.010 . S
O239 Mg238 2.028 . S
O239 C242 1.250 . S
O240 Mg241 2.028 . S
O240 C242 1.248 . S
Mg241 O240 2.028 . S
Mg241 O246 2.032 . S
Mg241 O248 2.079 . S
C242 O239 1.250 . S
C242 O240 1.248 . S
C243 O244 1.264 . S
C243 O251 1.249 1_455 S
O244 C243 1.264 . S
O245 Mg238 1.986 . S
O245 C249 1.246 . S
O246 Mg241 2.032 . S
O246 C249 1.259 . S
O247 Mg238 2.114 . S
O247 C250 1.252 . S
O248 Mg238 2.251 . S
O248 Mg241 2.079 . S
O248 C250 1.273 . S
C249 O245 1.246 . S
C249 O246 1.259 . S
C250 O247 1.252 . S
C250 O248 1.273 . S
O251 Mg238 2.010 . S
O251 C243 1.249 1_655 S
H252 O278 0.856 . S
H253 O281 0.854 . S
H254 C289 0.930 . S
H255 C290 0.930 . S
H256 C292 0.930 . S
H257 C293 0.930 . S
H258 C295 0.931 . S
H259 C296 0.930 . S
H260 C298 0.930 . S
H261 C299 0.929 . S
H262 C301 0.930 . S
H263 C302 0.931 . S
H264 C304 0.930 . S
H265 C305 0.929 . S
H266 C307 0.931 . S
H267 C308 0.930 . S
H268 C310 0.930 . S
H269 C311 0.932 . S
H270 C313 0.930 . S
H271 C314 0.929 . S
H272 C316 0.931 . S
H273 C317 0.930 . S
H274 C319 0.929 . S
H275 C320 0.931 . S
H276 C322 0.930 . S
H277 C323 0.929 . S
O278 H252 0.856 . S
O278 C324 1.300 . S
O279 C324 1.209 . S
O280 C325 1.199 . S
O281 H253 0.854 . S
O281 C325 1.297 . S
C282 C283 1.404 . S
C282 C287 1.397 . S
C282 C288 1.492 . S
C283 C282 1.404 . S
C283 C284 1.396 . S
C283 C294 1.492 . S
C284 C283 1.396 . S
C284 C285 1.397 . S
C284 C300 1.509 . S
C285 C284 1.397 . S
C285 C286 1.412 . S
C285 C306 1.485 . S
C286 C285 1.412 . S
C286 C287 1.388 . S
C286 C312 1.490 . S
C287 C282 1.397 . S
C287 C286 1.388 . S
C287 C318 1.519 . S
C288 C282 1.492 . S
C288 C289 1.363 . S
C288 C293 1.390 . S
C289 H254 0.930 . S
C289 C288 1.363 . S
C289 C290 1.372 . S
C290 H255 0.930 . S
C290 C289 1.372 . S
C290 C291 1.383 . S
C291 C290 1.383 . S
C291 C292 1.395 . S
C292 H256 0.930 . S
C292 C291 1.395 . S
C292 C293 1.362 . S
C293 H257 0.930 . S
C293 C288 1.390 . S
C293 C292 1.362 . S
C294 C283 1.492 . S
C294 C295 1.377 . S
C294 C299 1.397 . S
C295 H258 0.931 . S
C295 C294 1.377 . S
C295 C296 1.376 . S
C296 H259 0.930 . S
C296 C295 1.376 . S
C296 C297 1.376 . S
C297 C296 1.376 . S
C297 C298 1.378 . S
C297 C324 1.486 . S
C298 H260 0.930 . S
C298 C297 1.378 . S
C298 C299 1.376 . S
C299 H261 0.929 . S
C299 C294 1.397 . S
C299 C298 1.376 . S
C300 C284 1.509 . S
C300 C301 1.391 . S
C300 C305 1.386 . S
C301 H262 0.930 . S
C301 C300 1.391 . S
C301 C302 1.375 . S
C302 H263 0.931 . S
C302 C301 1.375 . S
C302 C303 1.375 . S
C303 C302 1.375 . S
C303 C304 1.361 . S
C304 H264 0.930 . S
C304 C303 1.361 . S
C304 C305 1.399 . S
C305 H265 0.929 . S
C305 C300 1.386 . S
C305 C304 1.399 . S
C306 C285 1.485 . S
C306 C307 1.394 . S
C306 C311 1.360 . S
C307 H266 0.931 . S
C307 C306 1.394 . S
C307 C308 1.372 . S
C308 H267 0.930 . S
C308 C307 1.372 . S
C308 C309 1.397 . S
C309 C308 1.397 . S
C309 C310 1.390 . S
C309 C325 1.476 . S
C310 H268 0.930 . S
C310 C309 1.390 . S
C310 C311 1.366 . S
C311 H269 0.932 . S
C311 C306 1.360 . S
C311 C310 1.366 . S
C312 C286 1.490 . S
C312 C313 1.380 . S
C312 C317 1.386 . S
C313 H270 0.930 . S
C313 C312 1.380 . S
C313 C314 1.381 . S
C314 H271 0.929 . S
C314 C313 1.381 . S
C314 C315 1.371 . S
C315 C314 1.371 . S
C315 C316 1.380 . S
C316 H272 0.931 . S
C316 C315 1.380 . S
C316 C317 1.387 . S
C317 H273 0.930 . S
C317 C312 1.386 . S
C317 C316 1.387 . S
C318 C287 1.519 . S
C318 C319 1.377 . S
C318 C323 1.361 . S
C319 H274 0.929 . S
C319 C318 1.377 . S
C319 C320 1.386 . S
C320 H275 0.931 . S
C320 C319 1.386 . S
C320 C321 1.363 . S
C321 C320 1.363 . S
C321 C322 1.385 . S
C322 H276 0.930 . S
C322 C321 1.385 . S
C322 C323 1.396 . S
C323 H277 0.929 . S
C323 C318 1.361 . S
C323 C322 1.396 . S
C324 O278 1.300 . S
C324 O279 1.209 . S
C324 C297 1.486 . S
C325 O280 1.199 . S
C325 O281 1.297 . S
C325 C309 1.476 . S
H326 O352 0.856 . S
H327 O355 0.854 . S
H328 C363 0.930 . S
H329 C364 0.930 . S
H330 C366 0.930 . S
H331 C367 0.930 . S
H332 C369 0.931 . S
H333 C370 0.930 . S
H334 C372 0.930 . S
H335 C373 0.929 . S
H336 C375 0.930 . S
H337 C376 0.931 . S
H338 C378 0.930 . S
H339 C379 0.929 . S
H340 C381 0.931 . S
H341 C382 0.930 . S
H342 C384 0.930 . S
H343 C385 0.932 . S
H344 C387 0.930 . S
H345 C388 0.929 . S
H346 C390 0.931 . S
H347 C391 0.930 . S
H348 C393 0.929 . S
H349 C394 0.931 . S
H350 C396 0.930 . S
H351 C397 0.929 . S
O352 H326 0.856 . S
O352 C398 1.300 . S
O353 C398 1.209 . S
O354 C399 1.199 . S
O355 H327 0.854 . S
O355 C399 1.297 . S
C356 C357 1.404 . S
C356 C361 1.397 . S
C356 C362 1.492 . S
C357 C356 1.404 . S
C357 C358 1.396 . S
C357 C368 1.492 . S
C358 C357 1.396 . S
C358 C359 1.397 . S
C358 C374 1.509 . S
C359 C358 1.397 . S
C359 C360 1.412 . S
C359 C380 1.485 . S
C360 C359 1.412 . S
C360 C361 1.388 . S
C360 C386 1.490 . S
C361 C356 1.397 . S
C361 C360 1.388 . S
C361 C392 1.519 . S
C362 C356 1.492 . S
C362 C363 1.363 . S
C362 C367 1.390 . S
C363 H328 0.930 . S
C363 C362 1.363 . S
C363 C364 1.372 . S
C364 H329 0.930 . S
C364 C363 1.372 . S
C364 C365 1.383 . S
C365 C364 1.383 . S
C365 C366 1.395 . S
C366 H330 0.930 . S
C366 C365 1.395 . S
C366 C367 1.362 . S
C367 H331 0.930 . S
C367 C362 1.390 . S
C367 C366 1.362 . S
C368 C357 1.492 . S
C368 C369 1.377 . S
C368 C373 1.397 . S
C369 H332 0.931 . S
C369 C368 1.377 . S
C369 C370 1.376 . S
C370 H333 0.930 . S
C370 C369 1.376 . S
C370 C371 1.376 . S
C371 C370 1.376 . S
C371 C372 1.378 . S
C371 C398 1.486 . S
C372 H334 0.930 . S
C372 C371 1.378 . S
C372 C373 1.376 . S
C373 H335 0.929 . S
C373 C368 1.397 . S
C373 C372 1.376 . S
C374 C358 1.509 . S
C374 C375 1.391 . S
C374 C379 1.386 . S
C375 H336 0.930 . S
C375 C374 1.391 . S
C375 C376 1.375 . S
C376 H337 0.931 . S
C376 C375 1.375 . S
C376 C377 1.375 . S
C377 C376 1.375 . S
C377 C378 1.361 . S
C378 H338 0.930 . S
C378 C377 1.361 . S
C378 C379 1.399 . S
C379 H339 0.929 . S
C379 C374 1.386 . S
C379 C378 1.399 . S
C380 C359 1.485 . S
C380 C381 1.394 . S
C380 C385 1.360 . S
C381 H340 0.931 . S
C381 C380 1.394 . S
C381 C382 1.372 . S
C382 H341 0.930 . S
C382 C381 1.372 . S
C382 C383 1.397 . S
C383 C382 1.397 . S
C383 C384 1.390 . S
C383 C399 1.476 . S
C384 H342 0.930 . S
C384 C383 1.390 . S
C384 C385 1.366 . S
C385 H343 0.932 . S
C385 C380 1.360 . S
C385 C384 1.366 . S
C386 C360 1.490 . S
C386 C387 1.380 . S
C386 C391 1.386 . S
C387 H344 0.930 . S
C387 C386 1.380 . S
C387 C388 1.381 . S
C388 H345 0.929 . S
C388 C387 1.381 . S
C388 C389 1.371 . S
C389 C388 1.371 . S
C389 C390 1.380 . S
C390 H346 0.931 . S
C390 C389 1.380 . S
C390 C391 1.387 . S
C391 H347 0.930 . S
C391 C386 1.386 . S
C391 C390 1.387 . S
C392 C361 1.519 . S
C392 C393 1.377 . S
C392 C397 1.361 . S
C393 H348 0.929 . S
C393 C392 1.377 . S
C393 C394 1.386 . S
C394 H349 0.931 . S
C394 C393 1.386 . S
C394 C395 1.363 . S
C395 C394 1.363 . S
C395 C396 1.385 . S
C396 H350 0.930 . S
C396 C395 1.385 . S
C396 C397 1.396 . S
C397 H351 0.929 . S
C397 C392 1.361 . S
C397 C396 1.396 . S
C398 O352 1.300 . S
C398 O353 1.209 . S
C398 C371 1.486 . S
C399 O354 1.199 . S
C399 O355 1.297 . S
C399 C383 1.476 . S
H400 O426 0.856 . S
H401 O429 0.854 . S
H402 C437 0.930 . S
H403 C438 0.930 . S
H404 C440 0.930 . S
H405 C441 0.930 . S
H406 C443 0.931 . S
H407 C444 0.930 . S
H408 C446 0.930 . S
H409 C447 0.929 . S
H410 C449 0.930 . S
H411 C450 0.931 . S
H412 C452 0.930 . S
H413 C453 0.929 . S
H414 C455 0.931 . S
H415 C456 0.930 . S
H416 C458 0.930 . S
H417 C459 0.932 . S
H418 C461 0.930 . S
H419 C462 0.929 . S
H420 C464 0.931 . S
H421 C465 0.930 . S
H422 C467 0.929 . S
H423 C468 0.931 . S
H424 C470 0.930 . S
H425 C471 0.929 . S
O426 H400 0.856 . S
O426 C472 1.300 . S
O427 C472 1.209 . S
O428 C473 1.199 . S
O429 H401 0.854 . S
O429 C473 1.297 . S
C430 C431 1.404 . S
C430 C435 1.397 . S
C430 C436 1.492 . S
C431 C430 1.404 . S
C431 C432 1.396 . S
C431 C442 1.492 . S
C432 C431 1.396 . S
C432 C433 1.397 . S
C432 C448 1.509 . S
C433 C432 1.397 . S
C433 C434 1.412 . S
C433 C454 1.485 . S
C434 C433 1.412 . S
C434 C435 1.388 . S
C434 C460 1.490 . S
C435 C430 1.397 . S
C435 C434 1.388 . S
C435 C466 1.519 . S
C436 C430 1.492 . S
C436 C437 1.363 . S
C436 C441 1.390 . S
C437 H402 0.930 . S
C437 C436 1.363 . S
C437 C438 1.372 . S
C438 H403 0.930 . S
C438 C437 1.372 . S
C438 C439 1.383 . S
C439 C438 1.383 . S
C439 C440 1.395 . S
C440 H404 0.930 . S
C440 C439 1.395 . S
C440 C441 1.362 . S
C441 H405 0.930 . S
C441 C436 1.390 . S
C441 C440 1.362 . S
C442 C431 1.492 . S
C442 C443 1.377 . S
C442 C447 1.397 . S
C443 H406 0.931 . S
C443 C442 1.377 . S
C443 C444 1.376 . S
C444 H407 0.930 . S
C444 C443 1.376 . S
C444 C445 1.376 . S
C445 C444 1.376 . S
C445 C446 1.378 . S
C445 C472 1.486 . S
C446 H408 0.930 . S
C446 C445 1.378 . S
C446 C447 1.376 . S
C447 H409 0.929 . S
C447 C442 1.397 . S
C447 C446 1.376 . S
C448 C432 1.509 . S
C448 C449 1.391 . S
C448 C453 1.386 . S
C449 H410 0.930 . S
C449 C448 1.391 . S
C449 C450 1.375 . S
C450 H411 0.931 . S
C450 C449 1.375 . S
C450 C451 1.375 . S
C451 C450 1.375 . S
C451 C452 1.361 . S
C452 H412 0.930 . S
C452 C451 1.361 . S
C452 C453 1.399 . S
C453 H413 0.929 . S
C453 C448 1.386 . S
C453 C452 1.399 . S
C454 C433 1.485 . S
C454 C455 1.394 . S
C454 C459 1.360 . S
C455 H414 0.931 . S
C455 C454 1.394 . S
C455 C456 1.372 . S
C456 H415 0.930 . S
C456 C455 1.372 . S
C456 C457 1.397 . S
C457 C456 1.397 . S
C457 C458 1.390 . S
C457 C473 1.476 . S
C458 H416 0.930 . S
C458 C457 1.390 . S
C458 C459 1.366 . S
C459 H417 0.932 . S
C459 C454 1.360 . S
C459 C458 1.366 . S
C460 C434 1.490 . S
C460 C461 1.380 . S
C460 C465 1.386 . S
C461 H418 0.930 . S
C461 C460 1.380 . S
C461 C462 1.381 . S
C462 H419 0.929 . S
C462 C461 1.381 . S
C462 C463 1.371 . S
C463 C462 1.371 . S
C463 C464 1.380 . S
C464 H420 0.931 . S
C464 C463 1.380 . S
C464 C465 1.387 . S
C465 H421 0.930 . S
C465 C460 1.386 . S
C465 C464 1.387 . S
C466 C435 1.519 . S
C466 C467 1.377 . S
C466 C471 1.361 . S
C467 H422 0.929 . S
C467 C466 1.377 . S
C467 C468 1.386 . S
C468 H423 0.931 . S
C468 C467 1.386 . S
C468 C469 1.363 . S
C469 C468 1.363 . S
C469 C470 1.385 . S
C470 H424 0.930 . S
C470 C469 1.385 . S
C470 C471 1.396 . S
C471 H425 0.929 . S
C471 C466 1.361 . S
C471 C470 1.396 . S
C472 O426 1.300 . S
C472 O427 1.209 . S
C472 C445 1.486 . S
C473 O428 1.199 . S
C473 O429 1.297 . S
C473 C457 1.476 . S
H474 O500 0.856 . S
H475 O503 0.854 . S
H476 C511 0.930 . S
H477 C512 0.930 . S
H478 C514 0.930 . S
H479 C515 0.930 . S
H480 C517 0.931 . S
H481 C518 0.930 . S
H482 C520 0.930 . S
H483 C521 0.929 . S
H484 C523 0.930 . S
H485 C524 0.931 . S
H486 C526 0.930 . S
H487 C527 0.929 . S
H488 C529 0.931 . S
H489 C530 0.930 . S
H490 C532 0.930 . S
H491 C533 0.932 . S
H492 C535 0.930 . S
H493 C536 0.929 . S
H494 C538 0.931 . S
H495 C539 0.930 . S
H496 C541 0.929 . S
H497 C542 0.931 . S
H498 C544 0.930 . S
H499 C545 0.929 . S
O500 H474 0.856 . S
O500 C546 1.300 1_554 S
O501 C546 1.209 1_554 S
O502 C547 1.199 . S
O503 H475 0.854 . S
O503 C547 1.297 . S
C504 C505 1.404 . S
C504 C509 1.397 . S
C504 C510 1.492 . S
C505 C504 1.404 . S
C505 C506 1.396 . S
C505 C516 1.492 . S
C506 C505 1.396 . S
C506 C507 1.397 . S
C506 C522 1.509 . S
C507 C506 1.397 . S
C507 C508 1.412 . S
C507 C528 1.485 . S
C508 C507 1.412 . S
C508 C509 1.388 . S
C508 C534 1.490 . S
C509 C504 1.397 . S
C509 C508 1.388 . S
C509 C540 1.519 . S
C510 C504 1.492 . S
C510 C511 1.363 . S
C510 C515 1.390 . S
C511 H476 0.930 . S
C511 C510 1.363 . S
C511 C512 1.372 . S
C512 H477 0.930 . S
C512 C511 1.372 . S
C512 C513 1.383 . S
C513 C512 1.383 . S
C513 C514 1.395 . S
C514 H478 0.930 . S
C514 C513 1.395 . S
C514 C515 1.362 . S
C515 H479 0.930 . S
C515 C510 1.390 . S
C515 C514 1.362 . S
C516 C505 1.492 . S
C516 C517 1.377 . S
C516 C521 1.397 . S
C517 H480 0.931 . S
C517 C516 1.377 . S
C517 C518 1.376 . S
C518 H481 0.930 . S
C518 C517 1.376 . S
C518 C519 1.376 . S
C519 C518 1.376 . S
C519 C520 1.378 . S
C519 C546 1.486 . S
C520 H482 0.930 . S
C520 C519 1.378 . S
C520 C521 1.376 . S
C521 H483 0.929 . S
C521 C516 1.397 . S
C521 C520 1.376 . S
C522 C506 1.509 . S
C522 C523 1.391 . S
C522 C527 1.386 . S
C523 H484 0.930 . S
C523 C522 1.391 . S
C523 C524 1.375 . S
C524 H485 0.931 . S
C524 C523 1.375 . S
C524 C525 1.375 . S
C525 C524 1.375 . S
C525 C526 1.361 . S
C526 H486 0.930 . S
C526 C525 1.361 . S
C526 C527 1.399 . S
C527 H487 0.929 . S
C527 C522 1.386 . S
C527 C526 1.399 . S
C528 C507 1.485 . S
C528 C529 1.394 . S
C528 C533 1.360 . S
C529 H488 0.931 . S
C529 C528 1.394 . S
C529 C530 1.372 . S
C530 H489 0.930 . S
C530 C529 1.372 . S
C530 C531 1.397 . S
C531 C530 1.397 . S
C531 C532 1.390 . S
C531 C547 1.476 . S
C532 H490 0.930 . S
C532 C531 1.390 . S
C532 C533 1.366 . S
C533 H491 0.932 . S
C533 C528 1.360 . S
C533 C532 1.366 . S
C534 C508 1.490 . S
C534 C535 1.380 . S
C534 C539 1.386 . S
C535 H492 0.930 . S
C535 C534 1.380 . S
C535 C536 1.381 . S
C536 H493 0.929 . S
C536 C535 1.381 . S
C536 C537 1.371 . S
C537 C536 1.371 . S
C537 C538 1.380 . S
C538 H494 0.931 . S
C538 C537 1.380 . S
C538 C539 1.387 . S
C539 H495 0.930 . S
C539 C534 1.386 . S
C539 C538 1.387 . S
C540 C509 1.519 . S
C540 C541 1.377 . S
C540 C545 1.361 . S
C541 H496 0.929 . S
C541 C540 1.377 . S
C541 C542 1.386 . S
C542 H497 0.931 . S
C542 C541 1.386 . S
C542 C543 1.363 . S
C543 C542 1.363 . S
C543 C544 1.385 . S
C544 H498 0.930 . S
C544 C543 1.385 . S
C544 C545 1.396 . S
C545 H499 0.929 . S
C545 C540 1.361 . S
C545 C544 1.396 . S
C546 O500 1.300 1_556 S
C546 O501 1.209 1_556 S
C546 C519 1.486 . S
C547 O502 1.199 . S
C547 O503 1.297 . S
C547 C531 1.476 . S
H548 O574 0.856 . S
H549 O577 0.854 . S
H550 C585 0.930 . S
H551 C586 0.930 . S
H552 C588 0.930 . S
H553 C589 0.930 . S
H554 C591 0.931 . S
H555 C592 0.930 . S
H556 C594 0.930 . S
H557 C595 0.929 . S
H558 C597 0.930 . S
H559 C598 0.931 . S
H560 C600 0.930 . S
H561 C601 0.929 . S
H562 C603 0.931 . S
H563 C604 0.930 . S
H564 C606 0.930 . S
H565 C607 0.932 . S
H566 C609 0.930 . S
H567 C610 0.929 . S
H568 C612 0.931 . S
H569 C613 0.930 . S
H570 C615 0.929 . S
H571 C616 0.931 . S
H572 C618 0.930 . S
H573 C619 0.929 . S
O574 H548 0.856 . S
O574 C620 1.300 . S
O575 C620 1.209 . S
O576 C621 1.199 . S
O577 H549 0.854 . S
O577 C621 1.297 . S
C578 C579 1.404 . S
C578 C583 1.397 . S
C578 C584 1.492 . S
C579 C578 1.404 . S
C579 C580 1.396 . S
C579 C590 1.492 . S
C580 C579 1.396 . S
C580 C581 1.397 . S
C580 C596 1.509 . S
C581 C580 1.397 . S
C581 C582 1.412 . S
C581 C602 1.485 . S
C582 C581 1.412 . S
C582 C583 1.388 . S
C582 C608 1.490 . S
C583 C578 1.397 . S
C583 C582 1.388 . S
C583 C614 1.519 . S
C584 C578 1.492 . S
C584 C585 1.363 . S
C584 C589 1.390 . S
C585 H550 0.930 . S
C585 C584 1.363 . S
C585 C586 1.372 . S
C586 H551 0.930 . S
C586 C585 1.372 . S
C586 C587 1.383 . S
C587 C586 1.383 . S
C587 C588 1.395 . S
C588 H552 0.930 . S
C588 C587 1.395 . S
C588 C589 1.362 . S
C589 H553 0.930 . S
C589 C584 1.390 . S
C589 C588 1.362 . S
C590 C579 1.492 . S
C590 C591 1.377 . S
C590 C595 1.397 . S
C591 H554 0.931 . S
C591 C590 1.377 . S
C591 C592 1.376 . S
C592 H555 0.930 . S
C592 C591 1.376 . S
C592 C593 1.376 . S
C593 C592 1.376 . S
C593 C594 1.378 . S
C593 C620 1.486 1_556 S
C594 H556 0.930 . S
C594 C593 1.378 . S
C594 C595 1.376 . S
C595 H557 0.929 . S
C595 C590 1.397 . S
C595 C594 1.376 . S
C596 C580 1.509 . S
C596 C597 1.391 . S
C596 C601 1.386 . S
C597 H558 0.930 . S
C597 C596 1.391 . S
C597 C598 1.375 . S
C598 H559 0.931 . S
C598 C597 1.375 . S
C598 C599 1.375 . S
C599 C598 1.375 . S
C599 C600 1.361 . S
C600 H560 0.930 . S
C600 C599 1.361 . S
C600 C601 1.399 . S
C601 H561 0.929 . S
C601 C596 1.386 . S
C601 C600 1.399 . S
C602 C581 1.485 . S
C602 C603 1.394 . S
C602 C607 1.360 . S
C603 H562 0.931 . S
C603 C602 1.394 . S
C603 C604 1.372 . S
C604 H563 0.930 . S
C604 C603 1.372 . S
C604 C605 1.397 . S
C605 C604 1.397 . S
C605 C606 1.390 . S
C605 C621 1.476 . S
C606 H564 0.930 . S
C606 C605 1.390 . S
C606 C607 1.366 . S
C607 H565 0.932 . S
C607 C602 1.360 . S
C607 C606 1.366 . S
C608 C582 1.490 . S
C608 C609 1.380 . S
C608 C613 1.386 . S
C609 H566 0.930 . S
C609 C608 1.380 . S
C609 C610 1.381 . S
C610 H567 0.929 . S
C610 C609 1.381 . S
C610 C611 1.371 . S
C611 C610 1.371 . S
C611 C612 1.380 . S
C612 H568 0.931 . S
C612 C611 1.380 . S
C612 C613 1.387 . S
C613 H569 0.930 . S
C613 C608 1.386 . S
C613 C612 1.387 . S
C614 C583 1.519 . S
C614 C615 1.377 . S
C614 C619 1.361 . S
C615 H570 0.929 . S
C615 C614 1.377 . S
C615 C616 1.386 . S
C616 H571 0.931 . S
C616 C615 1.386 . S
C616 C617 1.363 . S
C617 C616 1.363 . S
C617 C618 1.385 . S
C618 H572 0.930 . S
C618 C617 1.385 . S
C618 C619 1.396 . S
C619 H573 0.929 . S
C619 C614 1.361 . S
C619 C618 1.396 . S
C620 O574 1.300 . S
C620 O575 1.209 . S
C620 C593 1.486 1_554 S
C621 O576 1.199 . S
C621 O577 1.297 . S
C621 C605 1.476 . S
H622 O648 0.856 . S
H623 O651 0.854 . S
H624 C659 0.930 . S
H625 C660 0.930 . S
H626 C662 0.930 . S
H627 C663 0.930 . S
H628 C665 0.931 . S
H629 C666 0.930 1_554 S
H630 C668 0.930 . S
H631 C669 0.929 . S
H632 C671 0.930 . S
H633 C672 0.931 . S
H634 C674 0.930 . S
H635 C675 0.929 . S
H636 C677 0.931 . S
H637 C678 0.930 . S
H638 C680 0.930 . S
H639 C681 0.932 . S
H640 C683 0.930 . S
H641 C684 0.929 . S
H642 C686 0.931 . S
H643 C687 0.930 . S
H644 C689 0.929 . S
H645 C690 0.931 . S
H646 C692 0.930 . S
H647 C693 0.929 . S
O648 H622 0.856 . S
O648 C694 1.300 . S
O649 C694 1.209 . S
O650 C695 1.199 . S
O651 H623 0.854 . S
O651 C695 1.297 . S
C652 C653 1.404 . S
C652 C657 1.397 . S
C652 C658 1.492 . S
C653 C652 1.404 . S
C653 C654 1.396 . S
C653 C664 1.492 . S
C654 C653 1.396 . S
C654 C655 1.397 . S
C654 C670 1.509 . S
C655 C654 1.397 . S
C655 C656 1.412 . S
C655 C676 1.485 . S
C656 C655 1.412 . S
C656 C657 1.388 . S
C656 C682 1.490 . S
C657 C652 1.397 . S
C657 C656 1.388 . S
C657 C688 1.519 . S
C658 C652 1.492 . S
C658 C659 1.363 . S
C658 C663 1.390 . S
C659 H624 0.930 . S
C659 C658 1.363 . S
C659 C660 1.372 . S
C660 H625 0.930 . S
C660 C659 1.372 . S
C660 C661 1.383 . S
C661 C660 1.383 . S
C661 C662 1.395 . S
C662 H626 0.930 . S
C662 C661 1.395 . S
C662 C663 1.362 . S
C663 H627 0.930 . S
C663 C658 1.390 . S
C663 C662 1.362 . S
C664 C653 1.492 . S
C664 C665 1.377 . S
C664 C669 1.397 . S
C665 H628 0.931 . S
C665 C664 1.377 . S
C665 C666 1.376 . S
C666 H629 0.930 1_556 S
C666 C665 1.376 . S
C666 C667 1.376 . S
C667 C666 1.376 . S
C667 C668 1.378 . S
C667 C694 1.486 1_556 S
C668 H630 0.930 . S
C668 C667 1.378 . S
C668 C669 1.376 . S
C669 H631 0.929 . S
C669 C664 1.397 . S
C669 C668 1.376 . S
C670 C654 1.509 . S
C670 C671 1.391 . S
C670 C675 1.386 . S
C671 H632 0.930 . S
C671 C670 1.391 . S
C671 C672 1.375 . S
C672 H633 0.931 . S
C672 C671 1.375 . S
C672 C673 1.375 . S
C673 C672 1.375 . S
C673 C674 1.361 . S
C674 H634 0.930 . S
C674 C673 1.361 . S
C674 C675 1.399 . S
C675 H635 0.929 . S
C675 C670 1.386 . S
C675 C674 1.399 . S
C676 C655 1.485 . S
C676 C677 1.394 . S
C676 C681 1.360 . S
C677 H636 0.931 . S
C677 C676 1.394 . S
C677 C678 1.372 . S
C678 H637 0.930 . S
C678 C677 1.372 . S
C678 C679 1.397 . S
C679 C678 1.397 . S
C679 C680 1.390 . S
C679 C695 1.476 . S
C680 H638 0.930 . S
C680 C679 1.390 . S
C680 C681 1.366 . S
C681 H639 0.932 . S
C681 C676 1.360 . S
C681 C680 1.366 . S
C682 C656 1.490 . S
C682 C683 1.380 . S
C682 C687 1.386 . S
C683 H640 0.930 . S
C683 C682 1.380 . S
C683 C684 1.381 . S
C684 H641 0.929 . S
C684 C683 1.381 . S
C684 C685 1.371 . S
C685 C684 1.371 . S
C685 C686 1.380 . S
C686 H642 0.931 . S
C686 C685 1.380 . S
C686 C687 1.387 . S
C687 H643 0.930 . S
C687 C682 1.386 . S
C687 C686 1.387 . S
C688 C657 1.519 . S
C688 C689 1.377 . S
C688 C693 1.361 . S
C689 H644 0.929 . S
C689 C688 1.377 . S
C689 C690 1.386 . S
C690 H645 0.931 . S
C690 C689 1.386 . S
C690 C691 1.363 . S
C691 C690 1.363 . S
C691 C692 1.385 . S
C692 H646 0.930 . S
C692 C691 1.385 . S
C692 C693 1.396 . S
C693 H647 0.929 . S
C693 C688 1.361 . S
C693 C692 1.396 . S
C694 O648 1.300 . S
C694 O649 1.209 . S
C694 C667 1.486 1_554 S
C695 O650 1.199 . S
C695 O651 1.297 . S
C695 C679 1.476 . S
H696 O722 0.856 . S
H697 O725 0.854 . S
H698 C733 0.930 . S
H699 C734 0.930 . S
H700 C736 0.930 . S
H701 C737 0.930 . S
H702 C739 0.931 . S
H703 C740 0.930 . S
H704 C742 0.930 . S
H705 C743 0.929 . S
H706 C745 0.930 . S
H707 C746 0.931 . S
H708 C748 0.930 . S
H709 C749 0.929 . S
H710 C751 0.931 . S
H711 C752 0.930 . S
H712 C754 0.930 . S
H713 C755 0.932 . S
H714 C757 0.930 . S
H715 C758 0.929 . S
H716 C760 0.931 . S
H717 C761 0.930 . S
H718 C763 0.929 . S
H719 C764 0.931 . S
H720 C766 0.930 . S
H721 C767 0.929 . S
O722 H696 0.856 . S
O722 C768 1.300 . S
O723 C768 1.209 . S
O724 C769 1.199 . S
O725 H697 0.854 . S
O725 C769 1.297 . S
C726 C727 1.404 . S
C726 C731 1.397 . S
C726 C732 1.492 . S
C727 C726 1.404 . S
C727 C728 1.396 . S
C727 C738 1.492 . S
C728 C727 1.396 . S
C728 C729 1.397 . S
C728 C744 1.509 . S
C729 C728 1.397 . S
C729 C730 1.412 . S
C729 C750 1.485 . S
C730 C729 1.412 . S
C730 C731 1.388 . S
C730 C756 1.490 . S
C731 C726 1.397 . S
C731 C730 1.388 . S
C731 C762 1.519 . S
C732 C726 1.492 . S
C732 C733 1.363 . S
C732 C737 1.390 . S
C733 H698 0.930 . S
C733 C732 1.363 . S
C733 C734 1.372 . S
C734 H699 0.930 . S
C734 C733 1.372 . S
C734 C735 1.383 . S
C735 C734 1.383 . S
C735 C736 1.395 . S
C736 H700 0.930 . S
C736 C735 1.395 . S
C736 C737 1.362 . S
C737 H701 0.930 . S
C737 C732 1.390 . S
C737 C736 1.362 . S
C738 C727 1.492 . S
C738 C739 1.377 . S
C738 C743 1.397 . S
C739 H702 0.931 . S
C739 C738 1.377 . S
C739 C740 1.376 . S
C740 H703 0.930 . S
C740 C739 1.376 . S
C740 C741 1.376 . S
C741 C740 1.376 . S
C741 C742 1.378 . S
C741 C768 1.486 . S
C742 H704 0.930 . S
C742 C741 1.378 . S
C742 C743 1.376 . S
C743 H705 0.929 . S
C743 C738 1.397 . S
C743 C742 1.376 . S
C744 C728 1.509 . S
C744 C745 1.391 . S
C744 C749 1.386 . S
C745 H706 0.930 . S
C745 C744 1.391 . S
C745 C746 1.375 . S
C746 H707 0.931 . S
C746 C745 1.375 . S
C746 C747 1.375 . S
C747 C746 1.375 . S
C747 C748 1.361 . S
C748 H708 0.930 . S
C748 C747 1.361 . S
C748 C749 1.399 . S
C749 H709 0.929 . S
C749 C744 1.386 . S
C749 C748 1.399 . S
C750 C729 1.485 . S
C750 C751 1.394 . S
C750 C755 1.360 . S
C751 H710 0.931 . S
C751 C750 1.394 . S
C751 C752 1.372 . S
C752 H711 0.930 . S
C752 C751 1.372 . S
C752 C753 1.397 . S
C753 C752 1.397 . S
C753 C754 1.390 . S
C753 C769 1.476 . S
C754 H712 0.930 . S
C754 C753 1.390 . S
C754 C755 1.366 . S
C755 H713 0.932 . S
C755 C750 1.360 . S
C755 C754 1.366 . S
C756 C730 1.490 . S
C756 C757 1.380 . S
C756 C761 1.386 . S
C757 H714 0.930 . S
C757 C756 1.380 . S
C757 C758 1.381 . S
C758 H715 0.929 . S
C758 C757 1.381 . S
C758 C759 1.371 . S
C759 C758 1.371 . S
C759 C760 1.380 . S
C760 H716 0.931 . S
C760 C759 1.380 . S
C760 C761 1.387 . S
C761 H717 0.930 . S
C761 C756 1.386 . S
C761 C760 1.387 . S
C762 C731 1.519 . S
C762 C763 1.377 . S
C762 C767 1.361 . S
C763 H718 0.929 . S
C763 C762 1.377 . S
C763 C764 1.386 . S
C764 H719 0.931 . S
C764 C763 1.386 . S
C764 C765 1.363 . S
C765 C764 1.363 . S
C765 C766 1.385 . S
C766 H720 0.930 . S
C766 C765 1.385 . S
C766 C767 1.396 . S
C767 H721 0.929 . S
C767 C762 1.361 . S
C767 C766 1.396 . S
C768 O722 1.300 . S
C768 O723 1.209 . S
C768 C741 1.486 . S
C769 O724 1.199 . S
C769 O725 1.297 . S
C769 C753 1.476 . S
H770 O796 0.856 . S
H771 O799 0.854 . S
H772 C807 0.930 . S
H773 C808 0.930 . S
H774 C810 0.930 . S
H775 C811 0.930 . S
H776 C813 0.931 . S
H777 C814 0.930 . S
H778 C816 0.930 . S
H779 C817 0.929 . S
H780 C819 0.930 . S
H781 C820 0.931 . S
H782 C822 0.930 . S
H783 C823 0.929 . S
H784 C825 0.931 . S
H785 C826 0.930 . S
H786 C828 0.930 . S
H787 C829 0.932 . S
H788 C831 0.930 . S
H789 C832 0.929 . S
H790 C834 0.931 . S
H791 C835 0.930 . S
H792 C837 0.929 . S
H793 C838 0.931 . S
H794 C840 0.930 . S
H795 C841 0.929 . S
O796 H770 0.856 . S
O796 C842 1.300 . S
O797 C842 1.209 . S
O798 C843 1.199 . S
O799 H771 0.854 . S
O799 C843 1.297 . S
C800 C801 1.404 . S
C800 C805 1.397 . S
C800 C806 1.492 . S
C801 C800 1.404 . S
C801 C802 1.396 . S
C801 C812 1.492 . S
C802 C801 1.396 . S
C802 C803 1.397 . S
C802 C818 1.509 . S
C803 C802 1.397 . S
C803 C804 1.412 . S
C803 C824 1.485 . S
C804 C803 1.412 . S
C804 C805 1.388 . S
C804 C830 1.490 . S
C805 C800 1.397 . S
C805 C804 1.388 . S
C805 C836 1.519 . S
C806 C800 1.492 . S
C806 C807 1.363 . S
C806 C811 1.390 . S
C807 H772 0.930 . S
C807 C806 1.363 . S
C807 C808 1.372 . S
C808 H773 0.930 . S
C808 C807 1.372 . S
C808 C809 1.383 . S
C809 C808 1.383 . S
C809 C810 1.395 . S
C810 H774 0.930 . S
C810 C809 1.395 . S
C810 C811 1.362 . S
C811 H775 0.930 . S
C811 C806 1.390 . S
C811 C810 1.362 . S
C812 C801 1.492 . S
C812 C813 1.377 . S
C812 C817 1.397 . S
C813 H776 0.931 . S
C813 C812 1.377 . S
C813 C814 1.376 . S
C814 H777 0.930 . S
C814 C813 1.376 . S
C814 C815 1.376 . S
C815 C814 1.376 . S
C815 C816 1.378 . S
C815 C842 1.486 . S
C816 H778 0.930 . S
C816 C815 1.378 . S
C816 C817 1.376 . S
C817 H779 0.929 . S
C817 C812 1.397 . S
C817 C816 1.376 . S
C818 C802 1.509 . S
C818 C819 1.391 . S
C818 C823 1.386 . S
C819 H780 0.930 . S
C819 C818 1.391 . S
C819 C820 1.375 . S
C820 H781 0.931 . S
C820 C819 1.375 . S
C820 C821 1.375 . S
C821 C820 1.375 . S
C821 C822 1.361 . S
C822 H782 0.930 . S
C822 C821 1.361 . S
C822 C823 1.399 . S
C823 H783 0.929 . S
C823 C818 1.386 . S
C823 C822 1.399 . S
C824 C803 1.485 . S
C824 C825 1.394 . S
C824 C829 1.360 . S
C825 H784 0.931 . S
C825 C824 1.394 . S
C825 C826 1.372 . S
C826 H785 0.930 . S
C826 C825 1.372 . S
C826 C827 1.397 . S
C827 C826 1.397 . S
C827 C828 1.390 . S
C827 C843 1.476 . S
C828 H786 0.930 . S
C828 C827 1.390 . S
C828 C829 1.366 . S
C829 H787 0.932 . S
C829 C824 1.360 . S
C829 C828 1.366 . S
C830 C804 1.490 . S
C830 C831 1.380 . S
C830 C835 1.386 . S
C831 H788 0.930 . S
C831 C830 1.380 . S
C831 C832 1.381 . S
C832 H789 0.929 . S
C832 C831 1.381 . S
C832 C833 1.371 . S
C833 C832 1.371 . S
C833 C834 1.380 . S
C834 H790 0.931 . S
C834 C833 1.380 . S
C834 C835 1.387 . S
C835 H791 0.930 . S
C835 C830 1.386 . S
C835 C834 1.387 . S
C836 C805 1.519 . S
C836 C837 1.377 . S
C836 C841 1.361 . S
C837 H792 0.929 . S
C837 C836 1.377 . S
C837 C838 1.386 . S
C838 H793 0.931 . S
C838 C837 1.386 . S
C838 C839 1.363 . S
C839 C838 1.363 . S
C839 C840 1.385 . S
C840 H794 0.930 . S
C840 C839 1.385 . S
C840 C841 1.396 . S
C841 H795 0.929 . S
C841 C836 1.361 . S
C841 C840 1.396 . S
C842 O796 1.300 . S
C842 O797 1.209 . S
C842 C815 1.486 . S
C843 O798 1.199 . S
C843 O799 1.297 . S
C843 C827 1.476 . S
H844 O870 0.856 . S
H845 O873 0.854 . S
H846 C881 0.930 . S
H847 C882 0.930 . S
H848 C884 0.930 . S
H849 C885 0.930 . S
H850 C887 0.931 . S
H851 C888 0.930 . S
H852 C890 0.930 . S
H853 C891 0.929 . S
H854 C893 0.930 . S
H855 C894 0.931 . S
H856 C896 0.930 . S
H857 C897 0.929 . S
H858 C899 0.931 . S
H859 C900 0.930 . S
H860 C902 0.930 . S
H861 C903 0.932 . S
H862 C905 0.930 . S
H863 C906 0.929 . S
H864 C908 0.931 . S
H865 C909 0.930 . S
H866 C911 0.929 . S
H867 C912 0.931 . S
H868 C914 0.930 . S
H869 C915 0.929 . S
O870 H844 0.856 . S
O870 C916 1.300 . S
O871 C916 1.209 . S
O872 C917 1.199 . S
O873 H845 0.854 . S
O873 C917 1.297 . S
C874 C875 1.404 . S
C874 C879 1.397 . S
C874 C880 1.492 . S
C875 C874 1.404 . S
C875 C876 1.396 . S
C875 C886 1.492 . S
C876 C875 1.396 . S
C876 C877 1.397 . S
C876 C892 1.509 . S
C877 C876 1.397 . S
C877 C878 1.412 . S
C877 C898 1.485 . S
C878 C877 1.412 . S
C878 C879 1.388 . S
C878 C904 1.490 . S
C879 C874 1.397 . S
C879 C878 1.388 . S
C879 C910 1.519 . S
C880 C874 1.492 . S
C880 C881 1.363 . S
C880 C885 1.390 . S
C881 H846 0.930 . S
C881 C880 1.363 . S
C881 C882 1.372 . S
C882 H847 0.930 . S
C882 C881 1.372 . S
C882 C883 1.383 . S
C883 C882 1.383 . S
C883 C884 1.395 . S
C884 H848 0.930 . S
C884 C883 1.395 . S
C884 C885 1.362 . S
C885 H849 0.930 . S
C885 C880 1.390 . S
C885 C884 1.362 . S
C886 C875 1.492 . S
C886 C887 1.377 . S
C886 C891 1.397 . S
C887 H850 0.931 . S
C887 C886 1.377 . S
C887 C888 1.376 . S
C888 H851 0.930 . S
C888 C887 1.376 . S
C888 C889 1.376 . S
C889 C888 1.376 . S
C889 C890 1.378 . S
C889 C916 1.486 . S
C890 H852 0.930 . S
C890 C889 1.378 . S
C890 C891 1.376 . S
C891 H853 0.929 . S
C891 C886 1.397 . S
C891 C890 1.376 . S
C892 C876 1.509 . S
C892 C893 1.391 . S
C892 C897 1.386 . S
C893 H854 0.930 . S
C893 C892 1.391 . S
C893 C894 1.375 . S
C894 H855 0.931 . S
C894 C893 1.375 . S
C894 C895 1.375 . S
C895 C894 1.375 . S
C895 C896 1.361 . S
C896 H856 0.930 . S
C896 C895 1.361 . S
C896 C897 1.399 . S
C897 H857 0.929 . S
C897 C892 1.386 . S
C897 C896 1.399 . S
C898 C877 1.485 . S
C898 C899 1.394 . S
C898 C903 1.360 . S
C899 H858 0.931 . S
C899 C898 1.394 . S
C899 C900 1.372 . S
C900 H859 0.930 . S
C900 C899 1.372 . S
C900 C901 1.397 . S
C901 C900 1.397 . S
C901 C902 1.390 . S
C901 C917 1.476 . S
C902 H860 0.930 . S
C902 C901 1.390 . S
C902 C903 1.366 . S
C903 H861 0.932 . S
C903 C898 1.360 . S
C903 C902 1.366 . S
C904 C878 1.490 . S
C904 C905 1.380 . S
C904 C909 1.386 . S
C905 H862 0.930 . S
C905 C904 1.380 . S
C905 C906 1.381 . S
C906 H863 0.929 . S
C906 C905 1.381 . S
C906 C907 1.371 . S
C907 C906 1.371 . S
C907 C908 1.380 . S
C908 H864 0.931 . S
C908 C907 1.380 . S
C908 C909 1.387 . S
C909 H865 0.930 . S
C909 C904 1.386 . S
C909 C908 1.387 . S
C910 C879 1.519 . S
C910 C911 1.377 . S
C910 C915 1.361 . S
C911 H866 0.929 . S
C911 C910 1.377 . S
C911 C912 1.386 . S
C912 H867 0.931 . S
C912 C911 1.386 . S
C912 C913 1.363 . S
C913 C912 1.363 . S
C913 C914 1.385 . S
C914 H868 0.930 . S
C914 C913 1.385 . S
C914 C915 1.396 . S
C915 H869 0.929 . S
C915 C910 1.361 . S
C915 C914 1.396 . S
C916 O870 1.300 . S
C916 O871 1.209 . S
C916 C889 1.486 . S
C917 O872 1.199 . S
C917 O873 1.297 . S
C917 C901 1.476 . S
H918 O944 0.856 . S
H919 O947 0.854 . S
H920 C955 0.930 . S
H921 C956 0.930 . S
H922 C958 0.930 . S
H923 C959 0.930 . S
H924 C961 0.931 . S
H925 C962 0.931 1_655 S
H926 C964 0.930 . S
H927 C965 0.929 . S
H928 C967 0.930 . S
H929 C968 0.932 . S
H930 C970 0.930 . S
H931 C971 0.929 . S
H932 C973 0.931 . S
H933 C974 0.930 . S
H934 C976 0.930 . S
H935 C977 0.932 . S
H936 C979 0.930 . S
H937 C980 0.929 . S
H938 C982 0.931 . S
H939 C983 0.930 . S
H940 C985 0.929 . S
H941 C986 0.931 . S
H942 C988 0.930 . S
H943 C989 0.929 . S
O944 H918 0.856 . S
O944 C990 1.300 . S
O945 C990 1.209 . S
O946 C991 1.199 1_655 S
O947 H919 0.854 . S
O947 C991 1.297 . S
C948 C949 1.404 . S
C948 C953 1.393 . S
C948 C954 1.492 . S
C949 C948 1.404 . S
C949 C950 1.396 . S
C949 C960 1.492 . S
C950 C949 1.396 . S
C950 C951 1.397 . S
C950 C966 1.509 . S
C951 C950 1.397 . S
C951 C952 1.426 . S
C951 C972 1.485 . S
C952 C951 1.426 . S
C952 C953 1.400 . S
C952 C978 1.491 1_455 S
C953 C948 1.393 . S
C953 C952 1.400 . S
C953 C984 1.496 1_455 S
C954 C948 1.492 . S
C954 C955 1.363 1_455 S
C954 C959 1.390 . S
C955 H920 0.930 . S
C955 C954 1.363 1_655 S
C955 C956 1.372 . S
C956 H921 0.930 . S
C956 C955 1.372 . S
C956 C957 1.383 . S
C957 C956 1.383 . S
C957 C958 1.395 1_655 S
C958 H922 0.930 . S
C958 C957 1.395 1_455 S
C958 C959 1.362 . S
C959 H923 0.930 . S
C959 C954 1.390 . S
C959 C958 1.362 . S
C960 C949 1.492 . S
C960 C961 1.377 1_455 S
C960 C965 1.397 . S
C961 H924 0.931 . S
C961 C960 1.377 1_655 S
C961 C962 1.375 1_655 S
C962 H925 0.931 1_455 S
C962 C961 1.375 1_455 S
C962 C963 1.375 . S
C963 C962 1.375 . S
C963 C964 1.378 . S
C963 C990 1.486 . S
C964 H926 0.930 . S
C964 C963 1.378 . S
C964 C965 1.376 . S
C965 H927 0.929 . S
C965 C960 1.397 . S
C965 C964 1.376 . S
C966 C950 1.509 . S
C966 C967 1.391 1_455 S
C966 C971 1.386 . S
C967 H928 0.930 . S
C967 C966 1.391 1_655 S
C967 C968 1.377 . S
C968 H929 0.932 . S
C968 C967 1.377 . S
C968 C969 1.372 1_655 S
C969 C968 1.372 1_455 S
C969 C970 1.361 . S
C970 H930 0.930 . S
C970 C969 1.361 . S
C970 C971 1.399 . S
C971 H931 0.929 . S
C971 C966 1.386 . S
C971 C970 1.399 . S
C972 C951 1.485 . S
C972 C973 1.394 1_455 S
C972 C977 1.360 . S
C973 H932 0.931 . S
C973 C972 1.394 1_655 S
C973 C974 1.372 . S
C974 H933 0.930 . S
C974 C973 1.372 . S
C974 C975 1.397 1_655 S
C975 C974 1.397 1_455 S
C975 C976 1.390 . S
C975 C991 1.476 . S
C976 H934 0.930 . S
C976 C975 1.390 . S
C976 C977 1.366 . S
C977 H935 0.932 . S
C977 C972 1.360 . S
C977 C976 1.366 . S
C978 C952 1.491 1_655 S
C978 C979 1.380 . S
C978 C983 1.386 1_655 S
C979 H936 0.930 . S
C979 C978 1.380 . S
C979 C980 1.381 . S
C980 H937 0.929 . S
C980 C979 1.381 . S
C980 C981 1.371 . S
C981 C980 1.371 . S
C981 C982 1.380 1_655 S
C982 H938 0.931 . S
C982 C981 1.380 1_455 S
C982 C983 1.387 . S
C983 H939 0.930 . S
C983 C978 1.386 1_455 S
C983 C982 1.387 . S
C984 C953 1.496 1_655 S
C984 C985 1.393 . S
C984 C989 1.350 1_655 S
C985 H940 0.929 . S
C985 C984 1.393 . S
C985 C986 1.386 . S
C986 H941 0.931 . S
C986 C985 1.386 . S
C986 C987 1.360 1_655 S
C987 C986 1.360 1_455 S
C987 C988 1.390 . S
C988 H942 0.930 . S
C988 C987 1.390 . S
C988 C989 1.396 . S
C989 H943 0.929 . S
C989 C984 1.350 1_455 S
C989 C988 1.396 . S
C990 O944 1.300 . S
C990 O945 1.209 . S
C990 C963 1.486 . S
C991 O946 1.199 1_455 S
C991 O947 1.297 . S
C991 C975 1.476 . S
H992 O1018 0.856 . S
H993 O1021 0.854 . S
H994 C1029 0.930 . S
H995 C1030 0.930 . S
H996 C1032 0.930 . S
H997 C1033 0.930 . S
H998 C1035 0.931 . S
H999 C1036 0.930 . S
H1000 C1038 0.930 . S
H1001 C1039 0.929 . S
H1002 C1041 0.930 . S
H1003 C1042 0.931 . S
H1004 C1044 0.930 . S
H1005 C1045 0.929 . S
H1006 C1047 0.931 . S
H1007 C1048 0.930 . S
H1008 C1050 0.930 . S
H1009 C1051 0.932 . S
H1010 C1053 0.930 . S
H1011 C1054 0.929 . S
H1012 C1056 0.931 . S
H1013 C1057 0.930 . S
H1014 C1059 0.929 . S
H1015 C1060 0.931 . S
H1016 C1062 0.930 . S
H1017 C1063 0.929 . S
O1018 H992 0.856 . S
O1018 C1064 1.300 . S
O1019 C1064 1.209 . S
O1020 C1065 1.199 . S
O1021 H993 0.854 . S
O1021 C1065 1.297 . S
C1022 C1023 1.404 . S
C1022 C1027 1.397 . S
C1022 C1028 1.492 . S
C1023 C1022 1.404 . S
C1023 C1024 1.396 . S
C1023 C1034 1.492 . S
C1024 C1023 1.396 . S
C1024 C1025 1.397 . S
C1024 C1040 1.509 . S
C1025 C1024 1.397 . S
C1025 C1026 1.412 . S
C1025 C1046 1.485 . S
C1026 C1025 1.412 . S
C1026 C1027 1.388 . S
C1026 C1052 1.490 . S
C1027 C1022 1.397 . S
C1027 C1026 1.388 . S
C1027 C1058 1.519 . S
C1028 C1022 1.492 . S
C1028 C1029 1.363 . S
C1028 C1033 1.390 . S
C1029 H994 0.930 . S
C1029 C1028 1.363 . S
C1029 C1030 1.372 . S
C1030 H995 0.930 . S
C1030 C1029 1.372 . S
C1030 C1031 1.383 . S
C1031 C1030 1.383 . S
C1031 C1032 1.395 . S
C1032 H996 0.930 . S
C1032 C1031 1.395 . S
C1032 C1033 1.362 . S
C1033 H997 0.930 . S
C1033 C1028 1.390 . S
C1033 C1032 1.362 . S
C1034 C1023 1.492 . S
C1034 C1035 1.377 . S
C1034 C1039 1.397 . S
C1035 H998 0.931 . S
C1035 C1034 1.377 . S
C1035 C1036 1.376 . S
C1036 H999 0.930 . S
C1036 C1035 1.376 . S
C1036 C1037 1.376 . S
C1037 C1036 1.376 . S
C1037 C1038 1.378 . S
C1037 C1064 1.486 . S
C1038 H1000 0.930 . S
C1038 C1037 1.378 . S
C1038 C1039 1.376 . S
C1039 H1001 0.929 . S
C1039 C1034 1.397 . S
C1039 C1038 1.376 . S
C1040 C1024 1.509 . S
C1040 C1041 1.391 . S
C1040 C1045 1.386 . S
C1041 H1002 0.930 . S
C1041 C1040 1.391 . S
C1041 C1042 1.375 . S
C1042 H1003 0.931 . S
C1042 C1041 1.375 . S
C1042 C1043 1.375 . S
C1043 C1042 1.375 . S
C1043 C1044 1.361 . S
C1044 H1004 0.930 . S
C1044 C1043 1.361 . S
C1044 C1045 1.399 . S
C1045 H1005 0.929 . S
C1045 C1040 1.386 . S
C1045 C1044 1.399 . S
C1046 C1025 1.485 . S
C1046 C1047 1.394 . S
C1046 C1051 1.360 . S
C1047 H1006 0.931 . S
C1047 C1046 1.394 . S
C1047 C1048 1.372 . S
C1048 H1007 0.930 . S
C1048 C1047 1.372 . S
C1048 C1049 1.397 . S
C1049 C1048 1.397 . S
C1049 C1050 1.390 . S
C1049 C1065 1.476 . S
C1050 H1008 0.930 . S
C1050 C1049 1.390 . S
C1050 C1051 1.366 . S
C1051 H1009 0.932 . S
C1051 C1046 1.360 . S
C1051 C1050 1.366 . S
C1052 C1026 1.490 . S
C1052 C1053 1.380 . S
C1052 C1057 1.386 . S
C1053 H1010 0.930 . S
C1053 C1052 1.380 . S
C1053 C1054 1.381 . S
C1054 H1011 0.929 . S
C1054 C1053 1.381 . S
C1054 C1055 1.371 . S
C1055 C1054 1.371 . S
C1055 C1056 1.380 . S
C1056 H1012 0.931 . S
C1056 C1055 1.380 . S
C1056 C1057 1.387 . S
C1057 H1013 0.930 . S
C1057 C1052 1.386 . S
C1057 C1056 1.387 . S
C1058 C1027 1.519 . S
C1058 C1059 1.377 . S
C1058 C1063 1.361 . S
C1059 H1014 0.929 . S
C1059 C1058 1.377 . S
C1059 C1060 1.386 . S
C1060 H1015 0.931 . S
C1060 C1059 1.386 . S
C1060 C1061 1.363 . S
C1061 C1060 1.363 . S
C1061 C1062 1.385 . S
C1062 H1016 0.930 . S
C1062 C1061 1.385 . S
C1062 C1063 1.396 . S
C1063 H1017 0.929 . S
C1063 C1058 1.361 . S
C1063 C1062 1.396 . S
C1064 O1018 1.300 . S
C1064 O1019 1.209 . S
C1064 C1037 1.486 . S
C1065 O1020 1.199 . S
C1065 O1021 1.297 . S
C1065 C1049 1.476 . S
H1066 O1092 0.856 . S
H1067 O1095 0.854 . S
H1068 C1103 0.930 . S
H1069 C1104 0.930 . S
H1070 C1106 0.930 . S
H1071 C1107 0.930 . S
H1072 C1109 0.931 . S
H1073 C1110 0.932 1_545 S
H1074 C1112 0.930 . S
H1075 C1113 0.929 . S
H1076 C1115 0.930 . S
H1077 C1116 0.940 . S
H1078 C1118 0.930 . S
H1079 C1119 0.929 . S
H1080 C1121 0.931 . S
H1081 C1122 0.930 . S
H1082 C1124 0.930 . S
H1083 C1125 0.932 . S
H1084 C1127 0.930 . S
H1085 C1128 0.929 . S
H1086 C1130 0.931 . S
H1087 C1131 0.930 . S
H1088 C1133 0.929 . S
H1089 C1134 0.931 . S
H1090 C1136 0.930 . S
H1091 C1137 0.929 . S
O1092 H1066 0.856 . S
O1092 C1138 1.300 . S
O1093 C1138 1.209 . S
O1094 C1139 1.199 1_545 S
O1095 H1067 0.854 . S
O1095 C1139 1.297 . S
C1096 C1097 1.404 . S
C1096 C1101 1.415 . S
C1096 C1102 1.492 . S
C1097 C1096 1.404 . S
C1097 C1098 1.396 . S
C1097 C1108 1.492 . S
C1098 C1097 1.396 . S
C1098 C1099 1.397 . S
C1098 C1114 1.509 . S
C1099 C1098 1.397 . S
C1099 C1100 1.408 . S
C1099 C1120 1.485 . S
C1100 C1099 1.408 . S
C1100 C1101 1.375 . S
C1100 C1126 1.481 1_565 S
C1101 C1096 1.415 . S
C1101 C1100 1.375 . S
C1101 C1132 1.538 1_565 S
C1102 C1096 1.492 . S
C1102 C1103 1.363 1_565 S
C1102 C1107 1.390 . S
C1103 H1068 0.930 . S
C1103 C1102 1.363 1_545 S
C1103 C1104 1.372 . S
C1104 H1069 0.930 . S
C1104 C1103 1.372 . S
C1104 C1105 1.383 . S
C1105 C1104 1.383 . S
C1105 C1106 1.395 1_545 S
C1106 H1070 0.930 . S
C1106 C1105 1.395 1_565 S
C1106 C1107 1.362 . S
C1107 H1071 0.930 . S
C1107 C1102 1.390 . S
C1107 C1106 1.362 . S
C1108 C1097 1.492 . S
C1108 C1109 1.377 1_565 S
C1108 C1113 1.397 . S
C1109 H1072 0.931 . S
C1109 C1108 1.377 1_545 S
C1109 C1110 1.377 1_545 S
C1110 H1073 0.932 1_565 S
C1110 C1109 1.377 1_565 S
C1110 C1111 1.373 . S
C1111 C1110 1.373 . S
C1111 C1112 1.378 . S
C1111 C1138 1.486 . S
C1112 H1074 0.930 . S
C1112 C1111 1.378 . S
C1112 C1113 1.376 . S
C1113 H1075 0.929 . S
C1113 C1108 1.397 . S
C1113 C1112 1.376 . S
C1114 C1098 1.509 . S
C1114 C1115 1.391 1_565 S
C1114 C1119 1.386 . S
C1115 H1076 0.930 . S
C1115 C1114 1.391 1_545 S
C1115 C1116 1.373 . S
C1116 H1077 0.940 . S
C1116 C1115 1.373 . S
C1116 C1117 1.367 1_545 S
C1117 C1116 1.367 1_565 S
C1117 C1118 1.361 . S
C1118 H1078 0.930 . S
C1118 C1117 1.361 . S
C1118 C1119 1.399 . S
C1119 H1079 0.929 . S
C1119 C1114 1.386 . S
C1119 C1118 1.399 . S
C1120 C1099 1.485 . S
C1120 C1121 1.394 1_565 S
C1120 C1125 1.360 . S
C1121 H1080 0.931 . S
C1121 C1120 1.394 1_545 S
C1121 C1122 1.372 . S
C1122 H1081 0.930 . S
C1122 C1121 1.372 . S
C1122 C1123 1.397 1_545 S
C1123 C1122 1.397 1_565 S
C1123 C1124 1.390 . S
C1123 C1139 1.476 . S
C1124 H1082 0.930 . S
C1124 C1123 1.390 . S
C1124 C1125 1.366 . S
C1125 H1083 0.932 . S
C1125 C1120 1.360 . S
C1125 C1124 1.366 . S
C1126 C1100 1.481 1_545 S
C1126 C1127 1.380 . S
C1126 C1131 1.386 1_545 S
C1127 H1084 0.930 . S
C1127 C1126 1.380 . S
C1127 C1128 1.381 . S
C1128 H1085 0.929 . S
C1128 C1127 1.381 . S
C1128 C1129 1.371 . S
C1129 C1128 1.371 . S
C1129 C1130 1.380 1_545 S
C1130 H1086 0.931 . S
C1130 C1129 1.380 1_565 S
C1130 C1131 1.387 . S
C1131 H1087 0.930 . S
C1131 C1126 1.386 1_565 S
C1131 C1130 1.387 . S
C1132 C1101 1.538 1_545 S
C1132 C1133 1.383 . S
C1132 C1137 1.350 1_545 S
C1133 H1088 0.929 . S
C1133 C1132 1.383 . S
C1133 C1134 1.386 . S
C1134 H1089 0.931 . S
C1134 C1133 1.386 . S
C1134 C1135 1.357 1_545 S
C1135 C1134 1.357 1_565 S
C1135 C1136 1.389 . S
C1136 H1090 0.930 . S
C1136 C1135 1.389 . S
C1136 C1137 1.396 . S
C1137 H1091 0.929 . S
C1137 C1132 1.350 1_565 S
C1137 C1136 1.396 . S
C1138 O1092 1.300 . S
C1138 O1093 1.209 . S
C1138 C1111 1.486 . S
C1139 O1094 1.199 1_565 S
C1139 O1095 1.297 . S
C1139 C1123 1.476 . S
H1140 O1166 0.856 . S
H1141 O1169 0.854 . S
H1142 C1177 0.930 . S
H1143 C1178 0.930 . S
H1144 C1180 0.930 . S
H1145 C1181 0.930 . S
H1146 C1183 0.931 . S
H1147 C1184 0.930 . S
H1148 C1186 0.930 . S
H1149 C1187 0.929 . S
H1150 C1189 0.930 . S
H1151 C1190 0.931 . S
H1152 C1192 0.930 . S
H1153 C1193 0.929 . S
H1154 C1195 0.931 . S
H1155 C1196 0.930 . S
H1156 C1198 0.930 . S
H1157 C1199 0.932 . S
H1158 C1201 0.930 . S
H1159 C1202 0.929 . S
H1160 C1204 0.931 . S
H1161 C1205 0.930 . S
H1162 C1207 0.929 . S
H1163 C1208 0.931 . S
H1164 C1210 0.930 . S
H1165 C1211 0.929 . S
O1166 H1140 0.856 . S
O1166 C1212 1.300 . S
O1167 C1212 1.209 1_565 S
O1168 C1213 1.199 1_545 S
O1169 H1141 0.854 . S
O1169 C1213 1.297 . S
C1170 C1171 1.404 . S
C1170 C1175 1.397 1_545 S
C1170 C1176 1.492 . S
C1171 C1170 1.404 . S
C1171 C1172 1.425 . S
C1171 C1182 1.492 . S
C1172 C1171 1.425 . S
C1172 C1173 1.383 1_545 S
C1172 C1188 1.503 . S
C1173 C1172 1.383 1_565 S
C1173 C1174 1.415 . S
C1173 C1194 1.490 . S
C1174 C1173 1.415 . S
C1174 C1175 1.378 . S
C1174 C1200 1.493 . S
C1175 C1170 1.397 1_565 S
C1175 C1174 1.378 . S
C1175 C1206 1.519 . S
C1176 C1170 1.492 . S
C1176 C1177 1.363 . S
C1176 C1181 1.390 1_545 S
C1177 H1142 0.930 . S
C1177 C1176 1.363 . S
C1177 C1178 1.372 . S
C1178 H1143 0.930 . S
C1178 C1177 1.372 . S
C1178 C1179 1.383 . S
C1179 C1178 1.383 . S
C1179 C1180 1.395 1_545 S
C1180 H1144 0.930 . S
C1180 C1179 1.395 1_565 S
C1180 C1181 1.362 . S
C1181 H1145 0.930 . S
C1181 C1176 1.390 1_565 S
C1181 C1180 1.362 . S
C1182 C1171 1.492 . S
C1182 C1183 1.377 . S
C1182 C1187 1.397 1_545 S
C1183 H1146 0.931 . S
C1183 C1182 1.377 . S
C1183 C1184 1.376 . S
C1184 H1147 0.930 . S
C1184 C1183 1.376 . S
C1184 C1185 1.376 . S
C1185 C1184 1.376 . S
C1185 C1186 1.378 1_545 S
C1185 C1212 1.486 . S
C1186 H1148 0.930 . S
C1186 C1185 1.378 1_565 S
C1186 C1187 1.376 . S
C1187 H1149 0.929 . S
C1187 C1182 1.397 1_565 S
C1187 C1186 1.376 . S
C1188 C1172 1.503 . S
C1188 C1189 1.406 . S
C1188 C1193 1.361 1_545 S
C1189 H1150 0.930 . S
C1189 C1188 1.406 . S
C1189 C1190 1.375 . S
C1190 H1151 0.931 . S
C1190 C1189 1.375 . S
C1190 C1191 1.370 . S
C1191 C1190 1.370 . S
C1191 C1192 1.365 1_545 S
C1192 H1152 0.930 . S
C1192 C1191 1.365 1_565 S
C1192 C1193 1.399 . S
C1193 H1153 0.929 . S
C1193 C1188 1.361 1_565 S
C1193 C1192 1.399 . S
C1194 C1173 1.490 . S
C1194 C1195 1.394 1_565 S
C1194 C1199 1.360 . S
C1195 H1154 0.931 . S
C1195 C1194 1.394 1_545 S
C1195 C1196 1.372 . S
C1196 H1155 0.930 . S
C1196 C1195 1.372 . S
C1196 C1197 1.397 1_545 S
C1197 C1196 1.397 1_565 S
C1197 C1198 1.390 . S
C1197 C1213 1.476 . S
C1198 H1156 0.930 . S
C1198 C1197 1.390 . S
C1198 C1199 1.366 . S
C1199 H1157 0.932 . S
C1199 C1194 1.360 . S
C1199 C1198 1.366 . S
C1200 C1174 1.493 . S
C1200 C1201 1.377 1_565 S
C1200 C1205 1.390 . S
C1201 H1158 0.930 . S
C1201 C1200 1.377 1_545 S
C1201 C1202 1.381 . S
C1202 H1159 0.929 . S
C1202 C1201 1.381 . S
C1202 C1203 1.371 . S
C1203 C1202 1.371 . S
C1203 C1204 1.380 1_545 S
C1204 H1160 0.931 . S
C1204 C1203 1.380 1_565 S
C1204 C1205 1.387 . S
C1205 H1161 0.930 . S
C1205 C1200 1.390 . S
C1205 C1204 1.387 . S
C1206 C1175 1.519 . S
C1206 C1207 1.377 1_565 S
C1206 C1211 1.361 . S
C1207 H1162 0.929 . S
C1207 C1206 1.377 1_545 S
C1207 C1208 1.386 . S
C1208 H1163 0.931 . S
C1208 C1207 1.386 . S
C1208 C1209 1.363 1_545 S
C1209 C1208 1.363 1_565 S
C1209 C1210 1.385 . S
C1210 H1164 0.930 . S
C1210 C1209 1.385 . S
C1210 C1211 1.396 . S
C1211 H1165 0.929 . S
C1211 C1206 1.361 . S
C1211 C1210 1.396 . S
C1212 O1166 1.300 . S
C1212 O1167 1.209 1_545 S
C1212 C1185 1.486 . S
C1213 O1168 1.199 1_565 S
C1213 O1169 1.297 . S
C1213 C1197 1.476 . S
H1214 O1240 0.856 . S
H1215 O1243 0.854 . S
H1216 C1251 0.930 . S
H1217 C1252 0.930 . S
H1218 C1254 0.930 . S
H1219 C1255 0.930 . S
H1220 C1257 0.931 . S
H1221 C1258 0.930 . S
H1222 C1260 0.930 . S
H1223 C1261 0.929 . S
H1224 C1263 0.930 . S
H1225 C1264 0.931 . S
H1226 C1266 0.930 . S
H1227 C1267 0.929 . S
H1228 C1269 0.931 . S
H1229 C1270 0.930 . S
H1230 C1272 0.930 . S
H1231 C1273 0.932 . S
H1232 C1275 0.930 . S
H1233 C1276 0.929 . S
H1234 C1278 0.931 . S
H1235 C1279 0.930 . S
H1236 C1281 0.929 . S
H1237 C1282 0.931 . S
H1238 C1284 0.930 . S
H1239 C1285 0.929 . S
O1240 H1214 0.856 . S
O1240 C1286 1.300 . S
O1241 C1286 1.209 1_455 S
O1242 C1287 1.199 1_655 S
O1243 H1215 0.854 . S
O1243 C1287 1.297 . S
C1244 C1245 1.404 . S
C1244 C1249 1.396 1_655 S
C1244 C1250 1.492 . S
C1245 C1244 1.404 . S
C1245 C1246 1.396 . S
C1245 C1256 1.492 . S
C1246 C1245 1.396 . S
C1246 C1247 1.397 . S
C1246 C1262 1.509 . S
C1247 C1246 1.397 . S
C1247 C1248 1.398 1_655 S
C1247 C1268 1.487 1_655 S
C1248 C1247 1.398 1_455 S
C1248 C1249 1.412 . S
C1248 C1274 1.485 . S
C1249 C1244 1.396 1_455 S
C1249 C1248 1.412 . S
C1249 C1280 1.515 . S
C1250 C1244 1.492 . S
C1250 C1251 1.363 . S
C1250 C1255 1.390 1_655 S
C1251 H1216 0.930 . S
C1251 C1250 1.363 . S
C1251 C1252 1.372 . S
C1252 H1217 0.930 . S
C1252 C1251 1.372 . S
C1252 C1253 1.383 . S
C1253 C1252 1.383 . S
C1253 C1254 1.395 1_655 S
C1254 H1218 0.930 . S
C1254 C1253 1.395 1_455 S
C1254 C1255 1.362 . S
C1255 H1219 0.930 . S
C1255 C1250 1.390 1_455 S
C1255 C1254 1.362 . S
C1256 C1245 1.492 . S
C1256 C1257 1.377 . S
C1256 C1261 1.397 1_655 S
C1257 H1220 0.931 . S
C1257 C1256 1.377 . S
C1257 C1258 1.376 . S
C1258 H1221 0.930 . S
C1258 C1257 1.376 . S
C1258 C1259 1.376 . S
C1259 C1258 1.376 . S
C1259 C1260 1.378 1_655 S
C1259 C1286 1.486 . S
C1260 H1222 0.930 . S
C1260 C1259 1.378 1_455 S
C1260 C1261 1.376 . S
C1261 H1223 0.929 . S
C1261 C1256 1.397 1_455 S
C1261 C1260 1.376 . S
C1262 C1246 1.509 . S
C1262 C1263 1.391 . S
C1262 C1267 1.386 1_655 S
C1263 H1224 0.930 . S
C1263 C1262 1.391 . S
C1263 C1264 1.375 . S
C1264 H1225 0.931 . S
C1264 C1263 1.375 . S
C1264 C1265 1.375 . S
C1265 C1264 1.375 . S
C1265 C1266 1.361 1_655 S
C1266 H1226 0.930 . S
C1266 C1265 1.361 1_455 S
C1266 C1267 1.399 . S
C1267 H1227 0.929 . S
C1267 C1262 1.386 1_455 S
C1267 C1266 1.399 . S
C1268 C1247 1.487 1_455 S
C1268 C1269 1.394 1_455 S
C1268 C1273 1.360 . S
C1269 H1228 0.931 . S
C1269 C1268 1.394 1_655 S
C1269 C1270 1.372 . S
C1270 H1229 0.930 . S
C1270 C1269 1.372 . S
C1270 C1271 1.397 1_655 S
C1271 C1270 1.397 1_455 S
C1271 C1272 1.390 . S
C1271 C1287 1.476 . S
C1272 H1230 0.930 . S
C1272 C1271 1.390 . S
C1272 C1273 1.366 . S
C1273 H1231 0.932 . S
C1273 C1268 1.360 . S
C1273 C1272 1.366 . S
C1274 C1248 1.485 . S
C1274 C1275 1.380 1_455 S
C1274 C1279 1.386 . S
C1275 H1232 0.930 . S
C1275 C1274 1.380 1_655 S
C1275 C1276 1.381 . S
C1276 H1233 0.929 . S
C1276 C1275 1.381 . S
C1276 C1277 1.371 1_655 S
C1277 C1276 1.371 1_455 S
C1277 C1278 1.380 . S
C1278 H1234 0.931 . S
C1278 C1277 1.380 . S
C1278 C1279 1.387 . S
C1279 H1235 0.930 . S
C1279 C1274 1.386 . S
C1279 C1278 1.387 . S
C1280 C1249 1.515 . S
C1280 C1281 1.377 1_455 S
C1280 C1285 1.361 . S
C1281 H1236 0.929 . S
C1281 C1280 1.377 1_655 S
C1281 C1282 1.386 . S
C1282 H1237 0.931 . S
C1282 C1281 1.386 . S
C1282 C1283 1.363 1_655 S
C1283 C1282 1.363 1_455 S
C1283 C1284 1.385 . S
C1284 H1238 0.930 . S
C1284 C1283 1.385 . S
C1284 C1285 1.396 . S
C1285 H1239 0.929 . S
C1285 C1280 1.361 . S
C1285 C1284 1.396 . S
C1286 O1240 1.300 . S
C1286 O1241 1.209 1_655 S
C1286 C1259 1.486 . S
C1287 O1242 1.199 1_455 S
C1287 O1243 1.297 . S
C1287 C1271 1.476 . S
H1288 O1314 0.856 . S
H1289 O1317 0.854 . S
H1290 C1325 0.930 . S
H1291 C1326 0.930 . S
H1292 C1328 0.930 . S
H1293 C1329 0.930 . S
H1294 C1331 0.931 . S
H1295 C1332 0.930 . S
H1296 C1334 0.930 . S
H1297 C1335 0.929 . S
H1298 C1337 0.930 . S
H1299 C1338 0.931 . S
H1300 C1340 0.930 . S
H1301 C1341 0.929 . S
H1302 C1343 0.931 . S
H1303 C1344 0.930 . S
H1304 C1346 0.930 . S
H1305 C1347 0.932 . S
H1306 C1349 0.930 . S
H1307 C1350 0.929 . S
H1308 C1352 0.931 . S
H1309 C1353 0.930 . S
H1310 C1355 0.929 . S
H1311 C1356 0.931 . S
H1312 C1358 0.930 . S
H1313 C1359 0.929 . S
O1314 H1288 0.856 . S
O1314 C1360 1.300 . S
O1315 C1360 1.209 . S
O1316 C1361 1.199 . S
O1317 H1289 0.854 . S
O1317 C1361 1.297 . S
C1318 C1319 1.404 . S
C1318 C1323 1.397 . S
C1318 C1324 1.492 . S
C1319 C1318 1.404 . S
C1319 C1320 1.396 . S
C1319 C1330 1.492 . S
C1320 C1319 1.396 . S
C1320 C1321 1.397 . S
C1320 C1336 1.509 . S
C1321 C1320 1.397 . S
C1321 C1322 1.412 . S
C1321 C1342 1.485 . S
C1322 C1321 1.412 . S
C1322 C1323 1.388 . S
C1322 C1348 1.490 . S
C1323 C1318 1.397 . S
C1323 C1322 1.388 . S
C1323 C1354 1.519 . S
C1324 C1318 1.492 . S
C1324 C1325 1.363 . S
C1324 C1329 1.390 . S
C1325 H1290 0.930 . S
C1325 C1324 1.363 . S
C1325 C1326 1.372 . S
C1326 H1291 0.930 . S
C1326 C1325 1.372 . S
C1326 C1327 1.383 . S
C1327 C1326 1.383 . S
C1327 C1328 1.395 . S
C1328 H1292 0.930 . S
C1328 C1327 1.395 . S
C1328 C1329 1.362 . S
C1329 H1293 0.930 . S
C1329 C1324 1.390 . S
C1329 C1328 1.362 . S
C1330 C1319 1.492 . S
C1330 C1331 1.377 . S
C1330 C1335 1.397 . S
C1331 H1294 0.931 . S
C1331 C1330 1.377 . S
C1331 C1332 1.376 . S
C1332 H1295 0.930 . S
C1332 C1331 1.376 . S
C1332 C1333 1.376 . S
C1333 C1332 1.376 . S
C1333 C1334 1.378 . S
C1333 C1360 1.486 . S
C1334 H1296 0.930 . S
C1334 C1333 1.378 . S
C1334 C1335 1.376 . S
C1335 H1297 0.929 . S
C1335 C1330 1.397 . S
C1335 C1334 1.376 . S
C1336 C1320 1.509 . S
C1336 C1337 1.391 . S
C1336 C1341 1.386 . S
C1337 H1298 0.930 . S
C1337 C1336 1.391 . S
C1337 C1338 1.375 . S
C1338 H1299 0.931 . S
C1338 C1337 1.375 . S
C1338 C1339 1.375 . S
C1339 C1338 1.375 . S
C1339 C1340 1.361 . S
C1340 H1300 0.930 . S
C1340 C1339 1.361 . S
C1340 C1341 1.399 . S
C1341 H1301 0.929 . S
C1341 C1336 1.386 . S
C1341 C1340 1.399 . S
C1342 C1321 1.485 . S
C1342 C1343 1.394 . S
C1342 C1347 1.360 . S
C1343 H1302 0.931 . S
C1343 C1342 1.394 . S
C1343 C1344 1.372 . S
C1344 H1303 0.930 . S
C1344 C1343 1.372 . S
C1344 C1345 1.397 . S
C1345 C1344 1.397 . S
C1345 C1346 1.390 . S
C1345 C1361 1.476 . S
C1346 H1304 0.930 . S
C1346 C1345 1.390 . S
C1346 C1347 1.366 . S
C1347 H1305 0.932 . S
C1347 C1342 1.360 . S
C1347 C1346 1.366 . S
C1348 C1322 1.490 . S
C1348 C1349 1.380 . S
C1348 C1353 1.386 . S
C1349 H1306 0.930 . S
C1349 C1348 1.380 . S
C1349 C1350 1.381 . S
C1350 H1307 0.929 . S
C1350 C1349 1.381 . S
C1350 C1351 1.371 . S
C1351 C1350 1.371 . S
C1351 C1352 1.380 . S
C1352 H1308 0.931 . S
C1352 C1351 1.380 . S
C1352 C1353 1.387 . S
C1353 H1309 0.930 . S
C1353 C1348 1.386 . S
C1353 C1352 1.387 . S
C1354 C1323 1.519 . S
C1354 C1355 1.377 . S
C1354 C1359 1.361 . S
C1355 H1310 0.929 . S
C1355 C1354 1.377 . S
C1355 C1356 1.386 . S
C1356 H1311 0.931 . S
C1356 C1355 1.386 . S
C1356 C1357 1.363 . S
C1357 C1356 1.363 . S
C1357 C1358 1.385 . S
C1358 H1312 0.930 . S
C1358 C1357 1.385 . S
C1358 C1359 1.396 . S
C1359 H1313 0.929 . S
C1359 C1354 1.361 . S
C1359 C1358 1.396 . S
C1360 O1314 1.300 . S
C1360 O1315 1.209 . S
C1360 C1333 1.486 . S
C1361 O1316 1.199 . S
C1361 O1317 1.297 . S
C1361 C1345 1.476 . S
H1362 O1388 0.856 . S
H1363 O1391 0.854 . S
H1364 C1399 0.930 . S
H1365 C1400 0.930 . S
H1366 C1402 0.930 . S
H1367 C1403 0.930 . S
H1368 C1405 0.931 . S
H1369 C1406 0.930 . S
H1370 C1408 0.930 . S
H1371 C1409 0.929 . S
H1372 C1411 0.930 . S
H1373 C1412 0.931 . S
H1374 C1414 0.930 . S
H1375 C1415 0.929 . S
H1376 C1417 0.931 . S
H1377 C1418 0.930 . S
H1378 C1420 0.930 . S
H1379 C1421 0.932 . S
H1380 C1423 0.930 . S
H1381 C1424 0.929 . S
H1382 C1426 0.931 . S
H1383 C1427 0.930 . S
H1384 C1429 0.929 . S
H1385 C1430 0.931 . S
H1386 C1432 0.930 . S
H1387 C1433 0.929 . S
O1388 H1362 0.856 . S
O1388 C1434 1.300 . S
O1389 C1434 1.209 . S
O1390 C1435 1.199 . S
O1391 H1363 0.854 . S
O1391 C1435 1.297 . S
C1392 C1393 1.404 . S
C1392 C1397 1.397 . S
C1392 C1398 1.492 . S
C1393 C1392 1.404 . S
C1393 C1394 1.396 . S
C1393 C1404 1.492 . S
C1394 C1393 1.396 . S
C1394 C1395 1.397 . S
C1394 C1410 1.509 . S
C1395 C1394 1.397 . S
C1395 C1396 1.412 . S
C1395 C1416 1.485 . S
C1396 C1395 1.412 . S
C1396 C1397 1.388 . S
C1396 C1422 1.490 . S
C1397 C1392 1.397 . S
C1397 C1396 1.388 . S
C1397 C1428 1.519 . S
C1398 C1392 1.492 . S
C1398 C1399 1.363 . S
C1398 C1403 1.390 . S
C1399 H1364 0.930 . S
C1399 C1398 1.363 . S
C1399 C1400 1.372 . S
C1400 H1365 0.930 . S
C1400 C1399 1.372 . S
C1400 C1401 1.383 . S
C1401 C1400 1.383 . S
C1401 C1402 1.395 . S
C1402 H1366 0.930 . S
C1402 C1401 1.395 . S
C1402 C1403 1.362 . S
C1403 H1367 0.930 . S
C1403 C1398 1.390 . S
C1403 C1402 1.362 . S
C1404 C1393 1.492 . S
C1404 C1405 1.377 . S
C1404 C1409 1.397 . S
C1405 H1368 0.931 . S
C1405 C1404 1.377 . S
C1405 C1406 1.376 . S
C1406 H1369 0.930 . S
C1406 C1405 1.376 . S
C1406 C1407 1.376 . S
C1407 C1406 1.376 . S
C1407 C1408 1.378 . S
C1407 C1434 1.486 . S
C1408 H1370 0.930 . S
C1408 C1407 1.378 . S
C1408 C1409 1.376 . S
C1409 H1371 0.929 . S
C1409 C1404 1.397 . S
C1409 C1408 1.376 . S
C1410 C1394 1.509 . S
C1410 C1411 1.391 . S
C1410 C1415 1.386 . S
C1411 H1372 0.930 . S
C1411 C1410 1.391 . S
C1411 C1412 1.375 . S
C1412 H1373 0.931 . S
C1412 C1411 1.375 . S
C1412 C1413 1.375 . S
C1413 C1412 1.375 . S
C1413 C1414 1.361 . S
C1414 H1374 0.930 . S
C1414 C1413 1.361 . S
C1414 C1415 1.399 . S
C1415 H1375 0.929 . S
C1415 C1410 1.386 . S
C1415 C1414 1.399 . S
C1416 C1395 1.485 . S
C1416 C1417 1.394 . S
C1416 C1421 1.360 . S
C1417 H1376 0.931 . S
C1417 C1416 1.394 . S
C1417 C1418 1.372 . S
C1418 H1377 0.930 . S
C1418 C1417 1.372 . S
C1418 C1419 1.397 . S
C1419 C1418 1.397 . S
C1419 C1420 1.390 . S
C1419 C1435 1.476 . S
C1420 H1378 0.930 . S
C1420 C1419 1.390 . S
C1420 C1421 1.366 . S
C1421 H1379 0.932 . S
C1421 C1416 1.360 . S
C1421 C1420 1.366 . S
C1422 C1396 1.490 . S
C1422 C1423 1.380 . S
C1422 C1427 1.386 . S
C1423 H1380 0.930 . S
C1423 C1422 1.380 . S
C1423 C1424 1.381 . S
C1424 H1381 0.929 . S
C1424 C1423 1.381 . S
C1424 C1425 1.371 . S
C1425 C1424 1.371 . S
C1425 C1426 1.380 . S
C1426 H1382 0.931 . S
C1426 C1425 1.380 . S
C1426 C1427 1.387 . S
C1427 H1383 0.930 . S
C1427 C1422 1.386 . S
C1427 C1426 1.387 . S
C1428 C1397 1.519 . S
C1428 C1429 1.377 . S
C1428 C1433 1.361 . S
C1429 H1384 0.929 . S
C1429 C1428 1.377 . S
C1429 C1430 1.386 . S
C1430 H1385 0.931 . S
C1430 C1429 1.386 . S
C1430 C1431 1.363 . S
C1431 C1430 1.363 . S
C1431 C1432 1.385 . S
C1432 H1386 0.930 . S
C1432 C1431 1.385 . S
C1432 C1433 1.396 . S
C1433 H1387 0.929 . S
C1433 C1428 1.361 . S
C1433 C1432 1.396 . S
C1434 O1388 1.300 . S
C1434 O1389 1.209 . S
C1434 C1407 1.486 . S
C1435 O1390 1.199 . S
C1435 O1391 1.297 . S
C1435 C1419 1.476 . S
H1436 O1462 0.856 . S
H1437 O1465 0.854 . S
H1438 C1473 0.930 . S
H1439 C1474 0.930 . S
H1440 C1476 0.930 . S
H1441 C1477 0.930 . S
H1442 C1479 0.931 . S
H1443 C1480 0.930 . S
H1444 C1482 0.930 . S
H1445 C1483 0.929 . S
H1446 C1485 0.930 . S
H1447 C1486 0.931 . S
H1448 C1488 0.930 . S
H1449 C1489 0.929 . S
H1450 C1491 0.931 . S
H1451 C1492 0.930 . S
H1452 C1494 0.930 . S
H1453 C1495 0.932 . S
H1454 C1497 0.930 . S
H1455 C1498 0.929 . S
H1456 C1500 0.931 . S
H1457 C1501 0.930 . S
H1458 C1503 0.929 . S
H1459 C1504 0.931 . S
H1460 C1506 0.930 . S
H1461 C1507 0.929 . S
O1462 H1436 0.856 . S
O1462 C1508 1.300 . S
O1463 C1508 1.209 . S
O1464 C1509 1.199 . S
O1465 H1437 0.854 . S
O1465 C1509 1.297 . S
C1466 C1467 1.404 . S
C1466 C1471 1.397 . S
C1466 C1472 1.492 . S
C1467 C1466 1.404 . S
C1467 C1468 1.396 . S
C1467 C1478 1.492 . S
C1468 C1467 1.396 . S
C1468 C1469 1.397 . S
C1468 C1484 1.509 . S
C1469 C1468 1.397 . S
C1469 C1470 1.412 . S
C1469 C1490 1.485 . S
C1470 C1469 1.412 . S
C1470 C1471 1.388 . S
C1470 C1496 1.490 . S
C1471 C1466 1.397 . S
C1471 C1470 1.388 . S
C1471 C1502 1.519 . S
C1472 C1466 1.492 . S
C1472 C1473 1.363 . S
C1472 C1477 1.390 . S
C1473 H1438 0.930 . S
C1473 C1472 1.363 . S
C1473 C1474 1.372 . S
C1474 H1439 0.930 . S
C1474 C1473 1.372 . S
C1474 C1475 1.383 . S
C1475 C1474 1.383 . S
C1475 C1476 1.395 . S
C1476 H1440 0.930 . S
C1476 C1475 1.395 . S
C1476 C1477 1.362 . S
C1477 H1441 0.930 . S
C1477 C1472 1.390 . S
C1477 C1476 1.362 . S
C1478 C1467 1.492 . S
C1478 C1479 1.377 . S
C1478 C1483 1.397 . S
C1479 H1442 0.931 . S
C1479 C1478 1.377 . S
C1479 C1480 1.376 . S
C1480 H1443 0.930 . S
C1480 C1479 1.376 . S
C1480 C1481 1.376 . S
C1481 C1480 1.376 . S
C1481 C1482 1.378 . S
C1481 C1508 1.486 . S
C1482 H1444 0.930 . S
C1482 C1481 1.378 . S
C1482 C1483 1.376 . S
C1483 H1445 0.929 . S
C1483 C1478 1.397 . S
C1483 C1482 1.376 . S
C1484 C1468 1.509 . S
C1484 C1485 1.391 . S
C1484 C1489 1.386 . S
C1485 H1446 0.930 . S
C1485 C1484 1.391 . S
C1485 C1486 1.375 . S
C1486 H1447 0.931 . S
C1486 C1485 1.375 . S
C1486 C1487 1.375 . S
C1487 C1486 1.375 . S
C1487 C1488 1.361 . S
C1488 H1448 0.930 . S
C1488 C1487 1.361 . S
C1488 C1489 1.399 . S
C1489 H1449 0.929 . S
C1489 C1484 1.386 . S
C1489 C1488 1.399 . S
C1490 C1469 1.485 . S
C1490 C1491 1.394 . S
C1490 C1495 1.360 . S
C1491 H1450 0.931 . S
C1491 C1490 1.394 . S
C1491 C1492 1.372 . S
C1492 H1451 0.930 . S
C1492 C1491 1.372 . S
C1492 C1493 1.397 . S
C1493 C1492 1.397 . S
C1493 C1494 1.390 . S
C1493 C1509 1.476 . S
C1494 H1452 0.930 . S
C1494 C1493 1.390 . S
C1494 C1495 1.366 . S
C1495 H1453 0.932 . S
C1495 C1490 1.360 . S
C1495 C1494 1.366 . S
C1496 C1470 1.490 . S
C1496 C1497 1.380 . S
C1496 C1501 1.386 . S
C1497 H1454 0.930 . S
C1497 C1496 1.380 . S
C1497 C1498 1.381 . S
C1498 H1455 0.929 . S
C1498 C1497 1.381 . S
C1498 C1499 1.371 . S
C1499 C1498 1.371 . S
C1499 C1500 1.380 . S
C1500 H1456 0.931 . S
C1500 C1499 1.380 . S
C1500 C1501 1.387 . S
C1501 H1457 0.930 . S
C1501 C1496 1.386 . S
C1501 C1500 1.387 . S
C1502 C1471 1.519 . S
C1502 C1503 1.377 . S
C1502 C1507 1.361 . S
C1503 H1458 0.929 . S
C1503 C1502 1.377 . S
C1503 C1504 1.386 . S
C1504 H1459 0.931 . S
C1504 C1503 1.386 . S
C1504 C1505 1.363 . S
C1505 C1504 1.363 . S
C1505 C1506 1.385 . S
C1506 H1460 0.930 . S
C1506 C1505 1.385 . S
C1506 C1507 1.396 . S
C1507 H1461 0.929 . S
C1507 C1502 1.361 . S
C1507 C1506 1.396 . S
C1508 O1462 1.300 . S
C1508 O1463 1.209 . S
C1508 C1481 1.486 . S
C1509 O1464 1.199 . S
C1509 O1465 1.297 . S
C1509 C1493 1.476 . S
H1510 O1536 0.856 . S
H1511 O1539 0.854 . S
H1512 C1547 0.930 . S
H1513 C1548 0.930 . S
H1514 C1550 0.930 . S
H1515 C1551 0.930 . S
H1516 C1553 0.931 . S
H1517 C1554 0.930 . S
H1518 C1556 0.930 . S
H1519 C1557 0.929 . S
H1520 C1559 0.930 . S
H1521 C1560 0.931 . S
H1522 C1562 0.930 . S
H1523 C1563 0.929 . S
H1524 C1565 0.931 . S
H1525 C1566 0.930 . S
H1526 C1568 0.930 . S
H1527 C1569 0.932 . S
H1528 C1571 0.930 . S
H1529 C1572 0.929 . S
H1530 C1574 0.931 . S
H1531 C1575 0.930 . S
H1532 C1577 0.929 . S
H1533 C1578 0.931 . S
H1534 C1580 0.930 . S
H1535 C1581 0.929 . S
O1536 H1510 0.856 . S
O1536 C1582 1.300 . S
O1537 C1582 1.209 . S
O1538 C1583 1.199 . S
O1539 H1511 0.854 . S
O1539 C1583 1.297 . S
C1540 C1541 1.404 . S
C1540 C1545 1.397 . S
C1540 C1546 1.492 . S
C1541 C1540 1.404 . S
C1541 C1542 1.396 . S
C1541 C1552 1.492 . S
C1542 C1541 1.396 . S
C1542 C1543 1.397 . S
C1542 C1558 1.509 . S
C1543 C1542 1.397 . S
C1543 C1544 1.412 . S
C1543 C1564 1.485 . S
C1544 C1543 1.412 . S
C1544 C1545 1.388 . S
C1544 C1570 1.490 . S
C1545 C1540 1.397 . S
C1545 C1544 1.388 . S
C1545 C1576 1.519 . S
C1546 C1540 1.492 . S
C1546 C1547 1.363 . S
C1546 C1551 1.390 . S
C1547 H1512 0.930 . S
C1547 C1546 1.363 . S
C1547 C1548 1.372 . S
C1548 H1513 0.930 . S
C1548 C1547 1.372 . S
C1548 C1549 1.383 . S
C1549 C1548 1.383 . S
C1549 C1550 1.395 . S
C1550 H1514 0.930 . S
C1550 C1549 1.395 . S
C1550 C1551 1.362 . S
C1551 H1515 0.930 . S
C1551 C1546 1.390 . S
C1551 C1550 1.362 . S
C1552 C1541 1.492 . S
C1552 C1553 1.377 . S
C1552 C1557 1.397 . S
C1553 H1516 0.931 . S
C1553 C1552 1.377 . S
C1553 C1554 1.376 . S
C1554 H1517 0.930 . S
C1554 C1553 1.376 . S
C1554 C1555 1.376 . S
C1555 C1554 1.376 . S
C1555 C1556 1.378 . S
C1555 C1582 1.486 . S
C1556 H1518 0.930 . S
C1556 C1555 1.378 . S
C1556 C1557 1.376 . S
C1557 H1519 0.929 . S
C1557 C1552 1.397 . S
C1557 C1556 1.376 . S
C1558 C1542 1.509 . S
C1558 C1559 1.391 . S
C1558 C1563 1.386 . S
C1559 H1520 0.930 . S
C1559 C1558 1.391 . S
C1559 C1560 1.375 . S
C1560 H1521 0.931 . S
C1560 C1559 1.375 . S
C1560 C1561 1.375 . S
C1561 C1560 1.375 . S
C1561 C1562 1.361 . S
C1562 H1522 0.930 . S
C1562 C1561 1.361 . S
C1562 C1563 1.399 . S
C1563 H1523 0.929 . S
C1563 C1558 1.386 . S
C1563 C1562 1.399 . S
C1564 C1543 1.485 . S
C1564 C1565 1.394 . S
C1564 C1569 1.360 . S
C1565 H1524 0.931 . S
C1565 C1564 1.394 . S
C1565 C1566 1.372 . S
C1566 H1525 0.930 . S
C1566 C1565 1.372 . S
C1566 C1567 1.397 . S
C1567 C1566 1.397 . S
C1567 C1568 1.390 . S
C1567 C1583 1.476 . S
C1568 H1526 0.930 . S
C1568 C1567 1.390 . S
C1568 C1569 1.366 . S
C1569 H1527 0.932 . S
C1569 C1564 1.360 . S
C1569 C1568 1.366 . S
C1570 C1544 1.490 . S
C1570 C1571 1.380 . S
C1570 C1575 1.386 . S
C1571 H1528 0.930 . S
C1571 C1570 1.380 . S
C1571 C1572 1.381 . S
C1572 H1529 0.929 . S
C1572 C1571 1.381 . S
C1572 C1573 1.371 . S
C1573 C1572 1.371 . S
C1573 C1574 1.380 . S
C1574 H1530 0.931 . S
C1574 C1573 1.380 . S
C1574 C1575 1.387 . S
C1575 H1531 0.930 . S
C1575 C1570 1.386 . S
C1575 C1574 1.387 . S
C1576 C1545 1.519 . S
C1576 C1577 1.377 . S
C1576 C1581 1.361 . S
C1577 H1532 0.929 . S
C1577 C1576 1.377 . S
C1577 C1578 1.386 . S
C1578 H1533 0.931 . S
C1578 C1577 1.386 . S
C1578 C1579 1.363 . S
C1579 C1578 1.363 . S
C1579 C1580 1.385 . S
C1580 H1534 0.930 . S
C1580 C1579 1.385 . S
C1580 C1581 1.396 . S
C1581 H1535 0.929 . S
C1581 C1576 1.361 . S
C1581 C1580 1.396 . S
C1582 O1536 1.300 . S
C1582 O1537 1.209 . S
C1582 C1555 1.486 . S
C1583 O1538 1.199 . S
C1583 O1539 1.297 . S
C1583 C1567 1.476 . S
C1584 C1585 1.368 1_455 S
C1584 C1586 1.394 . S
C1584 H1600 0.931 . S
C1585 C1584 1.368 1_655 S
C1585 C1589 1.426 . S
C1586 C1584 1.394 . S
C1586 C1587 1.369 1_455 S
C1586 C1590 1.531 . S
C1587 C1586 1.369 1_655 S
C1587 C1588 1.410 . S
C1587 C1595 1.503 . S
C1588 C1587 1.410 . S
C1588 C1589 1.392 . S
C1588 C1591 1.511 . S
C1589 C1585 1.426 . S
C1589 C1588 1.392 . S
C1589 H1601 0.929 . S
C1590 C1586 1.531 . S
C1590 H1602 0.960 . S
C1590 H1603 0.962 . S
C1590 H1604 0.960 . S
C1591 C1588 1.511 . S
C1591 H1605 0.961 . S
C1591 H1606 0.961 . S
C1591 H1607 0.961 . S
C1592 C1593 1.370 . S
C1592 C1594 1.363 . S
C1592 H1608 0.931 . S
C1593 C1592 1.370 . S
C1593 C1597 1.408 . S
C1594 C1592 1.363 . S
C1594 C1595 1.370 . S
C1594 C1598 1.524 . S
C1595 C1587 1.503 . S
C1595 C1594 1.370 . S
C1595 C1596 1.403 . S
C1596 C1595 1.403 . S
C1596 C1597 1.404 . S
C1596 C1599 1.539 1_655 S
C1597 C1593 1.408 . S
C1597 C1596 1.404 . S
C1597 H1609 0.930 . S
C1598 C1594 1.524 . S
C1598 H1610 0.956 . S
C1598 H1611 0.961 . S
C1598 H1612 0.961 . S
C1599 C1596 1.539 1_455 S
C1599 H1613 0.958 . S
C1599 H1614 0.961 . S
C1599 H1615 0.960 . S
H1600 C1584 0.931 . S
H1601 C1589 0.929 . S
H1602 C1590 0.960 . S
H1603 C1590 0.962 . S
H1604 C1590 0.960 . S
H1605 C1591 0.961 . S
H1606 C1591 0.961 . S
H1607 C1591 0.961 . S
H1608 C1592 0.931 . S
H1609 C1597 0.930 . S
H1610 C1598 0.956 . S
H1611 C1598 0.961 . S
H1612 C1598 0.961 . S
H1613 C1599 0.958 . S
H1614 C1599 0.961 . S
H1615 C1599 0.960 . S
C1616 C1617 1.391 . S
C1616 C1618 1.394 . S
C1616 H1632 0.931 . S
C1617 C1616 1.391 . S
C1617 C1621 1.376 . S
C1618 C1616 1.394 . S
C1618 C1619 1.369 . S
C1618 C1622 1.531 . S
C1619 C1618 1.369 . S
C1619 C1620 1.410 . S
C1619 C1627 1.503 . S
C1620 C1619 1.410 . S
C1620 C1621 1.392 . S
C1620 C1623 1.511 . S
C1621 C1617 1.376 . S
C1621 C1620 1.392 . S
C1621 H1633 0.929 . S
C1622 C1618 1.531 . S
C1622 H1634 0.960 . S
C1622 H1635 0.962 . S
C1622 H1636 0.960 . S
C1623 C1620 1.511 . S
C1623 H1637 0.961 . S
C1623 H1638 0.961 . S
C1623 H1639 0.961 . S
C1624 C1625 1.370 . S
C1624 C1626 1.363 . S
C1624 H1640 0.931 . S
C1625 C1624 1.370 . S
C1625 C1629 1.408 . S
C1626 C1624 1.363 . S
C1626 C1627 1.370 . S
C1626 C1630 1.524 . S
C1627 C1619 1.503 . S
C1627 C1626 1.370 . S
C1627 C1628 1.403 . S
C1628 C1627 1.403 . S
C1628 C1629 1.404 . S
C1628 C1631 1.539 . S
C1629 C1625 1.408 . S
C1629 C1628 1.404 . S
C1629 H1641 0.930 . S
C1630 C1626 1.524 . S
C1630 H1642 0.956 . S
C1630 H1643 0.961 . S
C1630 H1644 0.961 . S
C1631 C1628 1.539 . S
C1631 H1645 0.958 . S
C1631 H1646 0.961 . S
C1631 H1647 0.960 . S
H1632 C1616 0.931 . S
H1633 C1621 0.929 . S
H1634 C1622 0.960 . S
H1635 C1622 0.962 . S
H1636 C1622 0.960 . S
H1637 C1623 0.961 . S
H1638 C1623 0.961 . S
H1639 C1623 0.961 . S
H1640 C1624 0.931 . S
H1641 C1629 0.930 . S
H1642 C1630 0.956 . S
H1643 C1630 0.961 . S
H1644 C1630 0.961 . S
H1645 C1631 0.958 . S
H1646 C1631 0.961 . S
H1647 C1631 0.960 . S
C1648 C1649 1.391 . S
C1648 C1650 1.394 . S
C1648 H1664 0.931 . S
C1649 C1648 1.391 . S
C1649 C1653 1.376 1_545 S
C1650 C1648 1.394 . S
C1650 C1651 1.369 . S
C1650 C1654 1.531 . S
C1651 C1650 1.369 . S
C1651 C1652 1.410 1_545 S
C1651 C1659 1.503 . S
C1652 C1651 1.410 1_565 S
C1652 C1653 1.392 . S
C1652 C1655 1.511 . S
C1653 C1649 1.376 1_565 S
C1653 C1652 1.392 . S
C1653 H1665 0.929 . S
C1654 C1650 1.531 . S
C1654 H1666 0.960 . S
C1654 H1667 0.962 . S
C1654 H1668 0.960 . S
C1655 C1652 1.511 . S
C1655 H1669 0.961 . S
C1655 H1670 0.961 . S
C1655 H1671 0.961 . S
C1656 C1657 1.370 . S
C1656 C1658 1.363 . S
C1656 H1672 0.931 . S
C1657 C1656 1.370 . S
C1657 C1661 1.408 . S
C1658 C1656 1.363 . S
C1658 C1659 1.370 . S
C1658 C1662 1.524 . S
C1659 C1651 1.503 . S
C1659 C1658 1.370 . S
C1659 C1660 1.403 . S
C1660 C1659 1.403 . S
C1660 C1661 1.404 . S
C1660 C1663 1.539 . S
C1661 C1657 1.408 . S
C1661 C1660 1.404 . S
C1661 H1673 0.930 . S
C1662 C1658 1.524 . S
C1662 H1674 0.956 . S
C1662 H1675 0.961 . S
C1662 H1676 0.961 . S
C1663 C1660 1.539 . S
C1663 H1677 0.958 . S
C1663 H1678 0.961 1_545 S
C1663 H1679 0.960 1_545 S
H1664 C1648 0.931 . S
H1665 C1653 0.929 . S
H1666 C1654 0.960 . S
H1667 C1654 0.962 . S
H1668 C1654 0.960 . S
H1669 C1655 0.961 . S
H1670 C1655 0.961 . S
H1671 C1655 0.961 . S
H1672 C1656 0.931 . S
H1673 C1661 0.930 . S
H1674 C1662 0.956 . S
H1675 C1662 0.961 . S
H1676 C1662 0.961 . S
H1677 C1663 0.958 . S
H1678 C1663 0.961 1_565 S
H1679 C1663 0.960 1_565 S
C1680 C1681 1.391 . S
C1680 C1682 1.394 . S
C1680 H1696 0.931 1_565 S
C1681 C1680 1.391 . S
C1681 C1685 1.376 . S
C1682 C1680 1.394 . S
C1682 C1683 1.369 . S
C1682 C1686 1.531 1_565 S
C1683 C1682 1.369 . S
C1683 C1684 1.410 . S
C1683 C1691 1.503 . S
C1684 C1683 1.410 . S
C1684 C1685 1.392 . S
C1684 C1687 1.511 . S
C1685 C1681 1.376 . S
C1685 C1684 1.392 . S
C1685 H1697 0.929 . S
C1686 C1682 1.531 1_545 S
C1686 H1698 0.960 . S
C1686 H1699 0.943 1_545 S
C1686 H1700 0.960 . S
C1687 C1684 1.511 . S
C1687 H1701 0.961 . S
C1687 H1702 0.961 . S
C1687 H1703 0.961 . S
C1688 C1689 1.370 . S
C1688 C1690 1.363 . S
C1688 H1704 0.931 . S
C1689 C1688 1.370 . S
C1689 C1693 1.408 1_565 S
C1690 C1688 1.363 . S
C1690 C1691 1.370 . S
C1690 C1694 1.524 . S
C1691 C1683 1.503 . S
C1691 C1690 1.370 . S
C1691 C1692 1.403 1_565 S
C1692 C1691 1.403 1_545 S
C1692 C1693 1.404 . S
C1692 C1695 1.539 . S
C1693 C1689 1.408 1_545 S
C1693 C1692 1.404 . S
C1693 H1705 0.930 . S
C1694 C1690 1.524 . S
C1694 H1706 0.956 . S
C1694 H1707 0.961 . S
C1694 H1708 0.961 . S
C1695 C1692 1.539 . S
C1695 H1709 0.958 . S
C1695 H1710 0.961 . S
C1695 H1711 0.960 . S
H1696 C1680 0.931 1_545 S
H1697 C1685 0.929 . S
H1698 C1686 0.960 . S
H1699 C1686 0.943 1_565 S
H1700 C1686 0.960 . S
H1701 C1687 0.961 . S
H1702 C1687 0.961 . S
H1703 C1687 0.961 . S
H1704 C1688 0.931 . S
H1705 C1693 0.930 . S
H1706 C1694 0.956 . S
H1707 C1694 0.961 . S
H1708 C1694 0.961 . S
H1709 C1695 0.958 . S
H1710 C1695 0.961 . S
H1711 C1695 0.960 . S
C1712 C1713 1.391 . S
C1712 C1714 1.394 . S
C1712 H1728 0.931 1_455 S
C1713 C1712 1.391 . S
C1713 C1717 1.376 . S
C1714 C1712 1.394 . S
C1714 C1715 1.369 . S
C1714 C1718 1.531 1_455 S
C1715 C1714 1.369 . S
C1715 C1716 1.410 . S
C1715 C1723 1.503 . S
C1716 C1715 1.410 . S
C1716 C1717 1.392 . S
C1716 C1719 1.511 . S
C1717 C1713 1.376 . S
C1717 C1716 1.392 . S
C1717 H1729 0.929 . S
C1718 C1714 1.531 1_655 S
C1718 H1730 0.960 . S
C1718 H1731 0.962 . S
C1718 H1732 0.960 . S
C1719 C1716 1.511 . S
C1719 H1733 0.961 . S
C1719 H1734 0.961 . S
C1719 H1735 0.961 . S
C1720 C1721 1.370 . S
C1720 C1722 1.363 . S
C1720 H1736 0.931 . S
C1721 C1720 1.370 . S
C1721 C1725 1.408 . S
C1722 C1720 1.363 . S
C1722 C1723 1.370 . S
C1722 C1726 1.524 . S
C1723 C1715 1.503 . S
C1723 C1722 1.370 . S
C1723 C1724 1.403 . S
C1724 C1723 1.403 . S
C1724 C1725 1.404 . S
C1724 C1727 1.539 1_455 S
C1725 C1721 1.408 . S
C1725 C1724 1.404 . S
C1725 H1737 0.930 1_455 S
C1726 C1722 1.524 . S
C1726 H1738 0.956 . S
C1726 H1739 0.961 . S
C1726 H1740 0.961 . S
C1727 C1724 1.539 1_655 S
C1727 H1741 0.958 . S
C1727 H1742 0.961 . S
C1727 H1743 0.957 . S
H1728 C1712 0.931 1_655 S
H1729 C1717 0.929 . S
H1730 C1718 0.960 . S
H1731 C1718 0.962 . S
H1732 C1718 0.960 . S
H1733 C1719 0.961 . S
H1734 C1719 0.961 . S
H1735 C1719 0.961 . S
H1736 C1720 0.931 . S
H1737 C1725 0.930 1_655 S
H1738 C1726 0.956 . S
H1739 C1726 0.961 . S
H1740 C1726 0.961 . S
H1741 C1727 0.958 . S
H1742 C1727 0.961 . S
H1743 C1727 0.957 . S
C1744 C1745 1.391 . S
C1744 C1746 1.394 . S
C1744 H1760 0.931 . S
C1745 C1744 1.391 . S
C1745 C1749 1.376 . S
C1746 C1744 1.394 . S
C1746 C1747 1.369 1_554 S
C1746 C1750 1.531 . S
C1747 C1746 1.369 1_556 S
C1747 C1748 1.410 . S
C1747 C1755 1.503 . S
C1748 C1747 1.410 . S
C1748 C1749 1.392 1_556 S
C1748 C1751 1.511 . S
C1749 C1745 1.376 . S
C1749 C1748 1.392 1_554 S
C1749 H1761 0.920 1_554 S
C1750 C1746 1.531 . S
C1750 H1762 0.960 1_554 S
C1750 H1763 0.962 . S
C1750 H1764 0.960 . S
C1751 C1748 1.511 . S
C1751 H1765 0.961 . S
C1751 H1766 0.961 . S
C1751 H1767 0.961 . S
C1752 C1753 1.370 . S
C1752 C1754 1.363 . S
C1752 H1768 0.931 . S
C1753 C1752 1.370 . S
C1753 C1757 1.408 . S
C1754 C1752 1.363 . S
C1754 C1755 1.370 . S
C1754 C1758 1.524 . S
C1755 C1747 1.503 . S
C1755 C1754 1.370 . S
C1755 C1756 1.403 . S
C1756 C1755 1.403 . S
C1756 C1757 1.404 . S
C1756 C1759 1.539 . S
C1757 C1753 1.408 . S
C1757 C1756 1.404 . S
C1757 H1769 0.930 . S
C1758 C1754 1.524 . S
C1758 H1770 0.956 . S
C1758 H1771 0.961 . S
C1758 H1772 0.961 . S
C1759 C1756 1.539 . S
C1759 H1773 0.958 . S
C1759 H1774 0.961 . S
C1759 H1775 0.960 . S
H1760 C1744 0.931 . S
H1761 C1749 0.920 1_556 S
H1762 C1750 0.960 1_556 S
H1763 C1750 0.962 . S
H1764 C1750 0.960 . S
H1765 C1751 0.961 . S
H1766 C1751 0.961 . S
H1767 C1751 0.961 . S
H1768 C1752 0.931 . S
H1769 C1757 0.930 . S
H1770 C1758 0.956 . S
H1771 C1758 0.961 . S
H1772 C1758 0.961 . S
H1773 C1759 0.958 . S
H1774 C1759 0.961 . S
H1775 C1759 0.960 . S
C1776 C1777 1.383 1_656 S
C1776 C1778 1.414 . S
C1776 H1792 0.920 1_556 S
C1777 C1776 1.383 1_454 S
C1777 C1781 1.391 . S
C1778 C1776 1.414 . S
C1778 C1779 1.369 1_655 S
C1778 C1782 1.531 . S
C1779 C1778 1.369 1_455 S
C1779 C1780 1.410 . S
C1779 C1787 1.503 . S
C1780 C1779 1.410 . S
C1780 C1781 1.367 1_556 S
C1780 C1783 1.511 . S
C1781 C1777 1.391 . S
C1781 C1780 1.367 1_554 S
C1781 H1793 0.940 . S
C1782 C1778 1.531 . S
C1782 H1794 0.960 . S
C1782 H1795 0.962 . S
C1782 H1796 0.960 . S
C1783 C1780 1.511 . S
C1783 H1797 0.961 . S
C1783 H1798 0.961 . S
C1783 H1799 0.961 . S
C1784 C1785 1.370 . S
C1784 C1786 1.363 . S
C1784 H1800 0.931 . S
C1785 C1784 1.370 . S
C1785 C1789 1.408 . S
C1786 C1784 1.363 . S
C1786 C1787 1.370 . S
C1786 C1790 1.524 . S
C1787 C1779 1.503 . S
C1787 C1786 1.370 . S
C1787 C1788 1.403 . S
C1788 C1787 1.403 . S
C1788 C1789 1.404 . S
C1788 C1791 1.539 . S
C1789 C1785 1.408 . S
C1789 C1788 1.404 . S
C1789 H1801 0.930 . S
C1790 C1786 1.524 . S
C1790 H1802 0.956 1_455 S
C1790 H1803 0.965 . S
C1790 H1804 0.961 . S
C1791 C1788 1.539 . S
C1791 H1805 0.958 1_455 S
C1791 H1806 0.961 . S
C1791 H1807 0.960 . S
H1792 C1776 0.920 1_554 S
H1793 C1781 0.940 . S
H1794 C1782 0.960 . S
H1795 C1782 0.962 . S
H1796 C1782 0.960 . S
H1797 C1783 0.961 . S
H1798 C1783 0.961 . S
H1799 C1783 0.961 . S
H1800 C1784 0.931 . S
H1801 C1789 0.930 . S
H1802 C1790 0.956 1_655 S
H1803 C1790 0.965 . S
H1804 C1790 0.961 . S
H1805 C1791 0.958 1_655 S
H1806 C1791 0.961 . S
H1807 C1791 0.960 . S
C1808 C1809 1.391 . S
C1808 C1810 1.394 . S
C1808 H1824 0.931 . S
C1809 C1808 1.391 . S
C1809 C1813 1.376 . S
C1810 C1808 1.394 . S
C1810 C1811 1.369 . S
C1810 C1814 1.531 . S
C1811 C1810 1.369 . S
C1811 C1812 1.410 . S
C1811 C1819 1.503 . S
C1812 C1811 1.410 . S
C1812 C1813 1.392 . S
C1812 C1815 1.511 . S
C1813 C1809 1.376 . S
C1813 C1812 1.392 . S
C1813 H1825 0.929 . S
C1814 C1810 1.531 . S
C1814 H1826 0.960 . S
C1814 H1827 0.962 . S
C1814 H1828 0.960 . S
C1815 C1812 1.511 . S
C1815 H1829 0.961 . S
C1815 H1830 0.961 . S
C1815 H1831 0.961 . S
C1816 C1817 1.370 . S
C1816 C1818 1.363 . S
C1816 H1832 0.931 . S
C1817 C1816 1.370 . S
C1817 C1821 1.408 . S
C1818 C1816 1.363 . S
C1818 C1819 1.370 . S
C1818 C1822 1.524 . S
C1819 C1811 1.503 . S
C1819 C1818 1.370 . S
C1819 C1820 1.403 . S
C1820 C1819 1.403 . S
C1820 C1821 1.404 . S
C1820 C1823 1.539 . S
C1821 C1817 1.408 . S
C1821 C1820 1.404 . S
C1821 H1833 0.930 . S
C1822 C1818 1.524 . S
C1822 H1834 0.956 . S
C1822 H1835 0.961 . S
C1822 H1836 0.961 . S
C1823 C1820 1.539 . S
C1823 H1837 0.958 . S
C1823 H1838 0.961 . S
C1823 H1839 0.960 . S
H1824 C1808 0.931 . S
H1825 C1813 0.929 . S
H1826 C1814 0.960 . S
H1827 C1814 0.962 . S
H1828 C1814 0.960 . S
H1829 C1815 0.961 . S
H1830 C1815 0.961 . S
H1831 C1815 0.961 . S
H1832 C1816 0.931 . S
H1833 C1821 0.930 . S
H1834 C1822 0.956 . S
H1835 C1822 0.961 . S
H1836 C1822 0.961 . S
H1837 C1823 0.958 . S
H1838 C1823 0.961 . S
H1839 C1823 0.960 . S
C1840 C1841 1.398 1_556 S
C1840 C1842 1.394 . S
C1840 H1856 0.931 . S
C1841 C1840 1.398 1_554 S
C1841 C1845 1.363 1_565 S
C1842 C1840 1.394 . S
C1842 C1843 1.369 . S
C1842 C1846 1.531 . S
C1843 C1842 1.369 . S
C1843 C1844 1.410 1_565 S
C1843 C1851 1.503 . S
C1844 C1843 1.410 1_545 S
C1844 C1845 1.392 1_556 S
C1844 C1847 1.511 1_556 S
C1845 C1841 1.363 1_545 S
C1845 C1844 1.392 1_554 S
C1845 H1857 0.929 . S
C1846 C1842 1.531 . S
C1846 H1858 0.960 . S
C1846 H1859 0.962 . S
C1846 H1860 0.960 . S
C1847 C1844 1.511 1_554 S
C1847 H1861 0.961 . S
C1847 H1862 0.961 1_554 S
C1847 H1863 0.970 . S
C1848 C1849 1.370 . S
C1848 C1850 1.363 . S
C1848 H1864 0.931 . S
C1849 C1848 1.370 . S
C1849 C1853 1.408 1_545 S
C1850 C1848 1.363 . S
C1850 C1851 1.370 1_545 S
C1850 C1854 1.524 . S
C1851 C1843 1.503 . S
C1851 C1850 1.370 1_565 S
C1851 C1852 1.403 . S
C1852 C1851 1.403 . S
C1852 C1853 1.404 . S
C1852 C1855 1.539 . S
C1853 C1849 1.408 1_565 S
C1853 C1852 1.404 . S
C1853 H1865 0.930 . S
C1854 C1850 1.524 . S
C1854 H1866 0.956 . S
C1854 H1867 0.961 . S
C1854 H1868 0.961 . S
C1855 C1852 1.539 . S
C1855 H1869 0.958 . S
C1855 H1870 0.961 . S
C1855 H1871 0.960 . S
H1856 C1840 0.931 . S
H1857 C1845 0.929 . S
H1858 C1846 0.960 . S
H1859 C1846 0.962 . S
H1860 C1846 0.960 . S
H1861 C1847 0.961 . S
H1862 C1847 0.961 1_556 S
H1863 C1847 0.970 . S
H1864 C1848 0.931 . S
H1865 C1853 0.930 . S
H1866 C1854 0.956 . S
H1867 C1854 0.961 . S
H1868 C1854 0.961 . S
H1869 C1855 0.958 . S
H1870 C1855 0.961 . S
H1871 C1855 0.960 . S
C1872 C1873 1.391 . S
C1872 C1874 1.394 . S
C1872 H1888 0.931 . S
C1873 C1872 1.391 . S
C1873 C1877 1.376 . S
C1874 C1872 1.394 . S
C1874 C1875 1.369 . S
C1874 C1878 1.531 1_545 S
C1875 C1874 1.369 . S
C1875 C1876 1.410 . S
C1875 C1883 1.503 . S
C1876 C1875 1.410 . S
C1876 C1877 1.392 . S
C1876 C1879 1.511 . S
C1877 C1873 1.376 . S
C1877 C1876 1.392 . S
C1877 H1889 0.929 . S
C1878 C1874 1.531 1_565 S
C1878 H1890 0.960 . S
C1878 H1891 0.962 . S
C1878 H1892 0.960 . S
C1879 C1876 1.511 . S
C1879 H1893 0.961 . S
C1879 H1894 0.961 . S
C1879 H1895 0.961 . S
C1880 C1881 1.370 . S
C1880 C1882 1.363 . S
C1880 H1896 0.931 . S
C1881 C1880 1.370 . S
C1881 C1885 1.408 1_545 S
C1882 C1880 1.363 . S
C1882 C1883 1.370 . S
C1882 C1886 1.524 . S
C1883 C1875 1.503 . S
C1883 C1882 1.370 . S
C1883 C1884 1.403 1_545 S
C1884 C1883 1.403 1_565 S
C1884 C1885 1.404 . S
C1884 C1887 1.539 . S
C1885 C1881 1.408 1_565 S
C1885 C1884 1.404 . S
C1885 H1897 0.930 . S
C1886 C1882 1.524 . S
C1886 H1898 0.956 . S
C1886 H1899 0.961 . S
C1886 H1900 0.961 . S
C1887 C1884 1.539 . S
C1887 H1901 0.958 . S
C1887 H1902 0.961 . S
C1887 H1903 0.960 . S
H1888 C1872 0.931 . S
H1889 C1877 0.929 . S
H1890 C1878 0.960 . S
H1891 C1878 0.962 . S
H1892 C1878 0.960 . S
H1893 C1879 0.961 . S
H1894 C1879 0.961 . S
H1895 C1879 0.961 . S
H1896 C1880 0.931 . S
H1897 C1885 0.930 . S
H1898 C1886 0.956 . S
H1899 C1886 0.961 . S
H1900 C1886 0.961 . S
H1901 C1887 0.958 . S
H1902 C1887 0.961 . S
H1903 C1887 0.960 . S
C1904 C1905 1.391 . S
C1904 C1906 1.394 . S
C1904 H1920 0.931 . S
C1905 C1904 1.391 . S
C1905 C1909 1.376 1_655 S
C1906 C1904 1.394 . S
C1906 C1907 1.369 . S
C1906 C1910 1.531 . S
C1907 C1906 1.369 . S
C1907 C1908 1.410 1_655 S
C1907 C1915 1.503 . S
C1908 C1907 1.410 1_455 S
C1908 C1909 1.392 . S
C1908 C1911 1.511 . S
C1909 C1905 1.376 1_455 S
C1909 C1908 1.392 . S
C1909 H1921 0.929 . S
C1910 C1906 1.531 . S
C1910 H1922 0.960 . S
C1910 H1923 0.962 . S
C1910 H1924 0.960 . S
C1911 C1908 1.511 . S
C1911 H1925 0.961 . S
C1911 H1926 0.961 . S
C1911 H1927 0.961 . S
C1912 C1913 1.409 1_455 S
C1912 C1914 1.343 1_455 S
C1912 H1928 0.928 . S
C1913 C1912 1.409 1_655 S
C1913 C1917 1.407 . S
C1914 C1912 1.343 1_655 S
C1914 C1915 1.370 . S
C1914 C1918 1.524 1_655 S
C1915 C1907 1.503 . S
C1915 C1914 1.370 . S
C1915 C1916 1.403 . S
C1916 C1915 1.403 . S
C1916 C1917 1.404 . S
C1916 C1919 1.539 . S
C1917 C1913 1.407 . S
C1917 C1916 1.404 . S
C1917 H1929 0.930 . S
C1918 C1914 1.524 1_455 S
C1918 H1930 0.956 1_455 S
C1918 H1931 0.961 . S
C1918 H1932 0.961 . S
C1919 C1916 1.539 . S
C1919 H1933 0.958 . S
C1919 H1934 0.961 . S
C1919 H1935 0.960 . S
H1920 C1904 0.931 . S
H1921 C1909 0.929 . S
H1922 C1910 0.960 . S
H1923 C1910 0.962 . S
H1924 C1910 0.960 . S
H1925 C1911 0.961 . S
H1926 C1911 0.961 . S
H1927 C1911 0.961 . S
H1928 C1912 0.928 . S
H1929 C1917 0.930 . S
H1930 C1918 0.956 1_655 S
H1931 C1918 0.961 . S
H1932 C1918 0.961 . S
H1933 C1919 0.958 . S
H1934 C1919 0.961 . S
H1935 C1919 0.960 . S
C1936 C1937 1.391 . S
C1936 C1938 1.394 . S
C1936 H1952 0.931 . S
C1937 C1936 1.391 . S
C1937 C1941 1.376 . S
C1938 C1936 1.394 . S
C1938 C1939 1.369 . S
C1938 C1942 1.531 . S
C1939 C1938 1.369 . S
C1939 C1940 1.410 . S
C1939 C1947 1.503 . S
C1940 C1939 1.410 . S
C1940 C1941 1.392 . S
C1940 C1943 1.511 . S
C1941 C1937 1.376 . S
C1941 C1940 1.392 . S
C1941 H1953 0.929 . S
C1942 C1938 1.531 . S
C1942 H1954 0.960 . S
C1942 H1955 0.962 . S
C1942 H1956 0.960 . S
C1943 C1940 1.511 . S
C1943 H1957 0.961 . S
C1943 H1958 0.961 . S
C1943 H1959 0.961 . S
C1944 C1945 1.370 . S
C1944 C1946 1.363 . S
C1944 H1960 0.931 . S
C1945 C1944 1.370 . S
C1945 C1949 1.408 . S
C1946 C1944 1.363 . S
C1946 C1947 1.370 . S
C1946 C1950 1.524 . S
C1947 C1939 1.503 . S
C1947 C1946 1.370 . S
C1947 C1948 1.403 . S
C1948 C1947 1.403 . S
C1948 C1949 1.404 . S
C1948 C1951 1.539 . S
C1949 C1945 1.408 . S
C1949 C1948 1.404 . S
C1949 H1961 0.930 . S
C1950 C1946 1.524 . S
C1950 H1962 0.956 . S
C1950 H1963 0.961 . S
C1950 H1964 0.961 . S
C1951 C1948 1.539 . S
C1951 H1965 0.958 . S
C1951 H1966 0.961 . S
C1951 H1967 0.960 . S
H1952 C1936 0.931 . S
H1953 C1941 0.929 . S
H1954 C1942 0.960 . S
H1955 C1942 0.962 . S
H1956 C1942 0.960 . S
H1957 C1943 0.961 . S
H1958 C1943 0.961 . S
H1959 C1943 0.961 . S
H1960 C1944 0.931 . S
H1961 C1949 0.930 . S
H1962 C1950 0.956 . S
H1963 C1950 0.961 . S
H1964 C1950 0.961 . S
H1965 C1951 0.958 . S
H1966 C1951 0.961 . S
H1967 C1951 0.960 . S
C1968 C1969 1.391 . S
C1968 C1970 1.394 . S
C1968 H1984 0.931 . S
C1969 C1968 1.391 . S
C1969 C1973 1.376 . S
C1970 C1968 1.394 . S
C1970 C1971 1.369 . S
C1970 C1974 1.531 . S
C1971 C1970 1.369 . S
C1971 C1972 1.410 . S
C1971 C1979 1.503 . S
C1972 C1971 1.410 . S
C1972 C1973 1.392 . S
C1972 C1975 1.511 . S
C1973 C1969 1.376 . S
C1973 C1972 1.392 . S
C1973 H1985 0.929 . S
C1974 C1970 1.531 . S
C1974 H1986 0.960 . S
C1974 H1987 0.962 . S
C1974 H1988 0.960 . S
C1975 C1972 1.511 . S
C1975 H1989 0.961 . S
C1975 H1990 0.961 . S
C1975 H1991 0.961 . S
C1976 C1977 1.370 . S
C1976 C1978 1.363 . S
C1976 H1992 0.931 . S
C1977 C1976 1.370 . S
C1977 C1981 1.408 . S
C1978 C1976 1.363 . S
C1978 C1979 1.370 . S
C1978 C1982 1.524 . S
C1979 C1971 1.503 . S
C1979 C1978 1.370 . S
C1979 C1980 1.403 . S
C1980 C1979 1.403 . S
C1980 C1981 1.404 . S
C1980 C1983 1.539 . S
C1981 C1977 1.408 . S
C1981 C1980 1.404 . S
C1981 H1993 0.930 . S
C1982 C1978 1.524 . S
C1982 H1994 0.956 . S
C1982 H1995 0.961 . S
C1982 H1996 0.961 . S
C1983 C1980 1.539 . S
C1983 H1997 0.958 . S
C1983 H1998 0.961 . S
C1983 H1999 0.960 . S
H1984 C1968 0.931 . S
H1985 C1973 0.929 . S
H1986 C1974 0.960 . S
H1987 C1974 0.962 . S
H1988 C1974 0.960 . S
H1989 C1975 0.961 . S
H1990 C1975 0.961 . S
H1991 C1975 0.961 . S
H1992 C1976 0.931 . S
H1993 C1981 0.930 . S
H1994 C1982 0.956 . S
H1995 C1982 0.961 . S
H1996 C1982 0.961 . S
H1997 C1983 0.958 . S
H1998 C1983 0.961 . S
H1999 C1983 0.960 . S
C2000 C2001 1.391 . S
C2000 C2002 1.394 . S
C2000 H2016 0.931 . S
C2001 C2000 1.391 . S
C2001 C2005 1.376 . S
C2002 C2000 1.394 . S
C2002 C2003 1.369 . S
C2002 C2006 1.531 . S
C2003 C2002 1.369 . S
C2003 C2004 1.410 . S
C2003 C2011 1.503 . S
C2004 C2003 1.410 . S
C2004 C2005 1.392 . S
C2004 C2007 1.511 . S
C2005 C2001 1.376 . S
C2005 C2004 1.392 . S
C2005 H2017 0.929 . S
C2006 C2002 1.531 . S
C2006 H2018 0.960 . S
C2006 H2019 0.962 . S
C2006 H2020 0.960 . S
C2007 C2004 1.511 . S
C2007 H2021 0.961 . S
C2007 H2022 0.961 . S
C2007 H2023 0.961 . S
C2008 C2009 1.370 . S
C2008 C2010 1.363 . S
C2008 H2024 0.931 . S
C2009 C2008 1.370 . S
C2009 C2013 1.408 . S
C2010 C2008 1.363 . S
C2010 C2011 1.370 . S
C2010 C2014 1.524 . S
C2011 C2003 1.503 . S
C2011 C2010 1.370 . S
C2011 C2012 1.403 . S
C2012 C2011 1.403 . S
C2012 C2013 1.404 . S
C2012 C2015 1.539 . S
C2013 C2009 1.408 . S
C2013 C2012 1.404 . S
C2013 H2025 0.930 . S
C2014 C2010 1.524 . S
C2014 H2026 0.956 . S
C2014 H2027 0.961 . S
C2014 H2028 0.961 . S
C2015 C2012 1.539 . S
C2015 H2029 0.958 . S
C2015 H2030 0.961 . S
C2015 H2031 0.960 . S
H2016 C2000 0.931 . S
H2017 C2005 0.929 . S
H2018 C2006 0.960 . S
H2019 C2006 0.962 . S
H2020 C2006 0.960 . S
H2021 C2007 0.961 . S
H2022 C2007 0.961 . S
H2023 C2007 0.961 . S
H2024 C2008 0.931 . S
H2025 C2013 0.930 . S
H2026 C2014 0.956 . S
H2027 C2014 0.961 . S
H2028 C2014 0.961 . S
H2029 C2015 0.958 . S
H2030 C2015 0.961 . S
H2031 C2015 0.960 . S
C2032 C2033 1.391 . S
C2032 C2034 1.394 . S
C2032 H2048 0.931 . S
C2033 C2032 1.391 . S
C2033 C2037 1.376 . S
C2034 C2032 1.394 . S
C2034 C2035 1.369 . S
C2034 C2038 1.531 . S
C2035 C2034 1.369 . S
C2035 C2036 1.410 . S
C2035 C2043 1.503 . S
C2036 C2035 1.410 . S
C2036 C2037 1.392 . S
C2036 C2039 1.511 . S
C2037 C2033 1.376 . S
C2037 C2036 1.392 . S
C2037 H2049 0.929 . S
C2038 C2034 1.531 . S
C2038 H2050 0.960 . S
C2038 H2051 0.962 . S
C2038 H2052 0.960 . S
C2039 C2036 1.511 . S
C2039 H2053 0.961 . S
C2039 H2054 0.961 . S
C2039 H2055 0.961 . S
C2040 C2041 1.370 . S
C2040 C2042 1.363 . S
C2040 H2056 0.931 . S
C2041 C2040 1.370 . S
C2041 C2045 1.408 . S
C2042 C2040 1.363 . S
C2042 C2043 1.370 . S
C2042 C2046 1.524 . S
C2043 C2035 1.503 . S
C2043 C2042 1.370 . S
C2043 C2044 1.403 . S
C2044 C2043 1.403 . S
C2044 C2045 1.404 . S
C2044 C2047 1.539 . S
C2045 C2041 1.408 . S
C2045 C2044 1.404 . S
C2045 H2057 0.930 . S
C2046 C2042 1.524 . S
C2046 H2058 0.956 . S
C2046 H2059 0.961 . S
C2046 H2060 0.961 . S
C2047 C2044 1.539 . S
C2047 H2061 0.958 . S
C2047 H2062 0.961 . S
C2047 H2063 0.960 . S
H2048 C2032 0.931 . S
H2049 C2037 0.929 . S
H2050 C2038 0.960 . S
H2051 C2038 0.962 . S
H2052 C2038 0.960 . S
H2053 C2039 0.961 . S
H2054 C2039 0.961 . S
H2055 C2039 0.961 . S
H2056 C2040 0.931 . S
H2057 C2045 0.930 . S
H2058 C2046 0.956 . S
H2059 C2046 0.961 . S
H2060 C2046 0.961 . S
H2061 C2047 0.958 . S
H2062 C2047 0.961 . S
H2063 C2047 0.960 . S
C2064 C2065 1.391 . S
C2064 C2066 1.394 . S
C2064 H2080 0.931 . S
C2065 C2064 1.391 . S
C2065 C2069 1.376 . S
C2066 C2064 1.394 . S
C2066 C2067 1.369 . S
C2066 C2070 1.531 . S
C2067 C2066 1.369 . S
C2067 C2068 1.410 . S
C2067 C2075 1.503 . S
C2068 C2067 1.410 . S
C2068 C2069 1.392 . S
C2068 C2071 1.511 . S
C2069 C2065 1.376 . S
C2069 C2068 1.392 . S
C2069 H2081 0.929 . S
C2070 C2066 1.531 . S
C2070 H2082 0.960 . S
C2070 H2083 0.962 . S
C2070 H2084 0.960 . S
C2071 C2068 1.511 . S
C2071 H2085 0.961 . S
C2071 H2086 0.961 . S
C2071 H2087 0.961 . S
C2072 C2073 1.370 . S
C2072 C2074 1.363 . S
C2072 H2088 0.931 . S
C2073 C2072 1.370 . S
C2073 C2077 1.408 . S
C2074 C2072 1.363 . S
C2074 C2075 1.370 . S
C2074 C2078 1.524 . S
C2075 C2067 1.503 . S
C2075 C2074 1.370 . S
C2075 C2076 1.403 . S
C2076 C2075 1.403 . S
C2076 C2077 1.404 . S
C2076 C2079 1.539 . S
C2077 C2073 1.408 . S
C2077 C2076 1.404 . S
C2077 H2089 0.930 . S
C2078 C2074 1.524 . S
C2078 H2090 0.956 . S
C2078 H2091 0.961 . S
C2078 H2092 0.961 . S
C2079 C2076 1.539 . S
C2079 H2093 0.958 . S
C2079 H2094 0.961 . S
C2079 H2095 0.960 . S
H2080 C2064 0.931 . S
H2081 C2069 0.929 . S
H2082 C2070 0.960 . S
H2083 C2070 0.962 . S
H2084 C2070 0.960 . S
H2085 C2071 0.961 . S
H2086 C2071 0.961 . S
H2087 C2071 0.961 . S
H2088 C2072 0.931 . S
H2089 C2077 0.930 . S
H2090 C2078 0.956 . S
H2091 C2078 0.961 . S
H2092 C2078 0.961 . S
H2093 C2079 0.958 . S
H2094 C2079 0.961 . S
H2095 C2079 0.960 . S
C2096 C2097 1.391 . S
C2096 C2098 1.394 . S
C2096 H2112 0.931 . S
C2097 C2096 1.391 . S
C2097 C2101 1.376 . S
C2098 C2096 1.394 . S
C2098 C2099 1.369 . S
C2098 C2102 1.531 . S
C2099 C2098 1.369 . S
C2099 C2100 1.410 . S
C2099 C2107 1.503 . S
C2100 C2099 1.410 . S
C2100 C2101 1.392 . S
C2100 C2103 1.511 . S
C2101 C2097 1.376 . S
C2101 C2100 1.392 . S
C2101 H2113 0.929 . S
C2102 C2098 1.531 . S
C2102 H2114 0.960 . S
C2102 H2115 0.962 . S
C2102 H2116 0.960 . S
C2103 C2100 1.511 . S
C2103 H2117 0.961 . S
C2103 H2118 0.961 . S
C2103 H2119 0.961 . S
C2104 C2105 1.370 . S
C2104 C2106 1.363 . S
C2104 H2120 0.931 . S
C2105 C2104 1.370 . S
C2105 C2109 1.408 . S
C2106 C2104 1.363 . S
C2106 C2107 1.370 . S
C2106 C2110 1.524 . S
C2107 C2099 1.503 . S
C2107 C2106 1.370 . S
C2107 C2108 1.403 . S
C2108 C2107 1.403 . S
C2108 C2109 1.404 . S
C2108 C2111 1.539 . S
C2109 C2105 1.408 . S
C2109 C2108 1.404 . S
C2109 H2121 0.930 . S
C2110 C2106 1.524 . S
C2110 H2122 0.956 . S
C2110 H2123 0.961 . S
C2110 H2124 0.961 . S
C2111 C2108 1.539 . S
C2111 H2125 0.958 . S
C2111 H2126 0.961 . S
C2111 H2127 0.960 . S
H2112 C2096 0.931 . S
H2113 C2101 0.929 . S
H2114 C2102 0.960 . S
H2115 C2102 0.962 . S
H2116 C2102 0.960 . S
H2117 C2103 0.961 . S
H2118 C2103 0.961 . S
H2119 C2103 0.961 . S
H2120 C2104 0.931 . S
H2121 C2109 0.930 . S
H2122 C2110 0.956 . S
H2123 C2110 0.961 . S
H2124 C2110 0.961 . S
H2125 C2111 0.958 . S
H2126 C2111 0.961 . S
H2127 C2111 0.960 . S
C2128 C2129 1.391 . S
C2128 C2130 1.394 . S
C2128 H2144 0.931 . S
C2129 C2128 1.391 . S
C2129 C2133 1.376 . S
C2130 C2128 1.394 . S
C2130 C2131 1.369 . S
C2130 C2134 1.531 . S
C2131 C2130 1.369 . S
C2131 C2132 1.410 . S
C2131 C2139 1.503 . S
C2132 C2131 1.410 . S
C2132 C2133 1.392 . S
C2132 C2135 1.511 . S
C2133 C2129 1.376 . S
C2133 C2132 1.392 . S
C2133 H2145 0.929 . S
C2134 C2130 1.531 . S
C2134 H2146 0.960 . S
C2134 H2147 0.962 . S
C2134 H2148 0.960 . S
C2135 C2132 1.511 . S
C2135 H2149 0.961 . S
C2135 H2150 0.961 . S
C2135 H2151 0.961 . S
C2136 C2137 1.370 . S
C2136 C2138 1.363 . S
C2136 H2152 0.931 . S
C2137 C2136 1.370 . S
C2137 C2141 1.408 . S
C2138 C2136 1.363 . S
C2138 C2139 1.370 . S
C2138 C2142 1.524 . S
C2139 C2131 1.503 . S
C2139 C2138 1.370 . S
C2139 C2140 1.403 . S
C2140 C2139 1.403 . S
C2140 C2141 1.404 . S
C2140 C2143 1.539 . S
C2141 C2137 1.408 . S
C2141 C2140 1.404 . S
C2141 H2153 0.930 . S
C2142 C2138 1.524 . S
C2142 H2154 0.956 . S
C2142 H2155 0.961 . S
C2142 H2156 0.961 . S
C2143 C2140 1.539 . S
C2143 H2157 0.958 . S
C2143 H2158 0.961 . S
C2143 H2159 0.960 . S
H2144 C2128 0.931 . S
H2145 C2133 0.929 . S
H2146 C2134 0.960 . S
H2147 C2134 0.962 . S
H2148 C2134 0.960 . S
H2149 C2135 0.961 . S
H2150 C2135 0.961 . S
H2151 C2135 0.961 . S
H2152 C2136 0.931 . S
H2153 C2141 0.930 . S
H2154 C2142 0.956 . S
H2155 C2142 0.961 . S
H2156 C2142 0.961 . S
H2157 C2143 0.958 . S
H2158 C2143 0.961 . S
H2159 C2143 0.960 . S
C2160 C2161 1.391 . S
C2160 C2162 1.394 . S
C2160 H2176 0.931 . S
C2161 C2160 1.391 . S
C2161 C2165 1.376 . S
C2162 C2160 1.394 . S
C2162 C2163 1.369 . S
C2162 C2166 1.531 . S
C2163 C2162 1.369 . S
C2163 C2164 1.410 . S
C2163 C2171 1.503 . S
C2164 C2163 1.410 . S
C2164 C2165 1.392 . S
C2164 C2167 1.511 . S
C2165 C2161 1.376 . S
C2165 C2164 1.392 . S
C2165 H2177 0.929 . S
C2166 C2162 1.531 . S
C2166 H2178 0.960 . S
C2166 H2179 0.962 . S
C2166 H2180 0.960 . S
C2167 C2164 1.511 . S
C2167 H2181 0.961 . S
C2167 H2182 0.961 . S
C2167 H2183 0.961 . S
C2168 C2169 1.370 . S
C2168 C2170 1.363 . S
C2168 H2184 0.931 . S
C2169 C2168 1.370 . S
C2169 C2173 1.408 . S
C2170 C2168 1.363 . S
C2170 C2171 1.370 . S
C2170 C2174 1.524 . S
C2171 C2163 1.503 . S
C2171 C2170 1.370 . S
C2171 C2172 1.403 . S
C2172 C2171 1.403 . S
C2172 C2173 1.404 . S
C2172 C2175 1.539 . S
C2173 C2169 1.408 . S
C2173 C2172 1.404 . S
C2173 H2185 0.930 . S
C2174 C2170 1.524 . S
C2174 H2186 0.956 . S
C2174 H2187 0.961 . S
C2174 H2188 0.961 . S
C2175 C2172 1.539 . S
C2175 H2189 0.958 . S
C2175 H2190 0.961 . S
C2175 H2191 0.960 . S
H2176 C2160 0.931 . S
H2177 C2165 0.929 . S
H2178 C2166 0.960 . S
H2179 C2166 0.962 . S
H2180 C2166 0.960 . S
H2181 C2167 0.961 . S
H2182 C2167 0.961 . S
H2183 C2167 0.961 . S
H2184 C2168 0.931 . S
H2185 C2173 0.930 . S
H2186 C2174 0.956 . S
H2187 C2174 0.961 . S
H2188 C2174 0.961 . S
H2189 C2175 0.958 . S
H2190 C2175 0.961 . S
H2191 C2175 0.960 . S
C2192 C2193 1.391 . S
C2192 C2194 1.394 . S
C2192 H2208 0.931 . S
C2193 C2192 1.391 . S
C2193 C2197 1.376 . S
C2194 C2192 1.394 . S
C2194 C2195 1.369 . S
C2194 C2198 1.531 . S
C2195 C2194 1.369 . S
C2195 C2196 1.410 . S
C2195 C2203 1.503 . S
C2196 C2195 1.410 . S
C2196 C2197 1.392 . S
C2196 C2199 1.511 . S
C2197 C2193 1.376 . S
C2197 C2196 1.392 . S
C2197 H2209 0.929 . S
C2198 C2194 1.531 . S
C2198 H2210 0.960 . S
C2198 H2211 0.962 . S
C2198 H2212 0.960 . S
C2199 C2196 1.511 . S
C2199 H2213 0.961 . S
C2199 H2214 0.961 . S
C2199 H2215 0.961 . S
C2200 C2201 1.370 . S
C2200 C2202 1.363 . S
C2200 H2216 0.931 . S
C2201 C2200 1.370 . S
C2201 C2205 1.408 . S
C2202 C2200 1.363 . S
C2202 C2203 1.370 . S
C2202 C2206 1.524 . S
C2203 C2195 1.503 . S
C2203 C2202 1.370 . S
C2203 C2204 1.403 . S
C2204 C2203 1.403 . S
C2204 C2205 1.404 . S
C2204 C2207 1.539 . S
C2205 C2201 1.408 . S
C2205 C2204 1.404 . S
C2205 H2217 0.930 . S
C2206 C2202 1.524 . S
C2206 H2218 0.956 . S
C2206 H2219 0.961 . S
C2206 H2220 0.961 . S
C2207 C2204 1.539 . S
C2207 H2221 0.958 . S
C2207 H2222 0.961 . S
C2207 H2223 0.960 . S
H2208 C2192 0.931 . S
H2209 C2197 0.929 . S
H2210 C2198 0.960 . S
H2211 C2198 0.962 . S
H2212 C2198 0.960 . S
H2213 C2199 0.961 . S
H2214 C2199 0.961 . S
H2215 C2199 0.961 . S
H2216 C2200 0.931 . S
H2217 C2205 0.930 . S
H2218 C2206 0.956 . S
H2219 C2206 0.961 . S
H2220 C2206 0.961 . S
H2221 C2207 0.958 . S
H2222 C2207 0.961 . S
H2223 C2207 0.960 . S
C2224 C2225 1.391 . S
C2224 C2226 1.394 . S
C2224 H2240 0.931 . S
C2225 C2224 1.391 . S
C2225 C2229 1.376 . S
C2226 C2224 1.394 . S
C2226 C2227 1.369 . S
C2226 C2230 1.531 . S
C2227 C2226 1.369 . S
C2227 C2228 1.410 . S
C2227 C2235 1.503 . S
C2228 C2227 1.410 . S
C2228 C2229 1.392 . S
C2228 C2231 1.511 . S
C2229 C2225 1.376 . S
C2229 C2228 1.392 . S
C2229 H2241 0.929 . S
C2230 C2226 1.531 . S
C2230 H2242 0.960 . S
C2230 H2243 0.962 . S
C2230 H2244 0.960 . S
C2231 C2228 1.511 . S
C2231 H2245 0.961 . S
C2231 H2246 0.961 . S
C2231 H2247 0.961 . S
C2232 C2233 1.370 . S
C2232 C2234 1.363 . S
C2232 H2248 0.931 . S
C2233 C2232 1.370 . S
C2233 C2237 1.408 . S
C2234 C2232 1.363 . S
C2234 C2235 1.370 . S
C2234 C2238 1.524 . S
C2235 C2227 1.503 . S
C2235 C2234 1.370 . S
C2235 C2236 1.403 . S
C2236 C2235 1.403 . S
C2236 C2237 1.404 . S
C2236 C2239 1.539 . S
C2237 C2233 1.408 . S
C2237 C2236 1.404 . S
C2237 H2249 0.930 . S
C2238 C2234 1.524 . S
C2238 H2250 0.956 . S
C2238 H2251 0.961 . S
C2238 H2252 0.961 . S
C2239 C2236 1.539 . S
C2239 H2253 0.958 . S
C2239 H2254 0.961 . S
C2239 H2255 0.960 . S
H2240 C2224 0.931 . S
H2241 C2229 0.929 . S
H2242 C2230 0.960 . S
H2243 C2230 0.962 . S
H2244 C2230 0.960 . S
H2245 C2231 0.961 . S
H2246 C2231 0.961 . S
H2247 C2231 0.961 . S
H2248 C2232 0.931 . S
H2249 C2237 0.930 . S
H2250 C2238 0.956 . S
H2251 C2238 0.961 . S
H2252 C2238 0.961 . S
H2253 C2239 0.958 . S
H2254 C2239 0.961 . S
H2255 C2239 0.960 . S
C2256 C2257 1.391 . S
C2256 C2258 1.394 . S
C2256 H2272 0.931 . S
C2257 C2256 1.391 . S
C2257 C2261 1.376 . S
C2258 C2256 1.394 . S
C2258 C2259 1.369 . S
C2258 C2262 1.531 . S
C2259 C2258 1.369 . S
C2259 C2260 1.410 . S
C2259 C2267 1.503 . S
C2260 C2259 1.410 . S
C2260 C2261 1.392 . S
C2260 C2263 1.511 . S
C2261 C2257 1.376 . S
C2261 C2260 1.392 . S
C2261 H2273 0.929 . S
C2262 C2258 1.531 . S
C2262 H2274 0.960 . S
C2262 H2275 0.962 . S
C2262 H2276 0.960 . S
C2263 C2260 1.511 . S
C2263 H2277 0.961 . S
C2263 H2278 0.961 . S
C2263 H2279 0.961 . S
C2264 C2265 1.370 . S
C2264 C2266 1.363 . S
C2264 H2280 0.931 . S
C2265 C2264 1.370 . S
C2265 C2269 1.408 . S
C2266 C2264 1.363 . S
C2266 C2267 1.370 . S
C2266 C2270 1.524 . S
C2267 C2259 1.503 . S
C2267 C2266 1.370 . S
C2267 C2268 1.403 . S
C2268 C2267 1.403 . S
C2268 C2269 1.404 . S
C2268 C2271 1.539 . S
C2269 C2265 1.408 . S
C2269 C2268 1.404 . S
C2269 H2281 0.930 . S
C2270 C2266 1.524 . S
C2270 H2282 0.956 . S
C2270 H2283 0.961 . S
C2270 H2284 0.961 . S
C2271 C2268 1.539 . S
C2271 H2285 0.958 . S
C2271 H2286 0.961 . S
C2271 H2287 0.960 . S
H2272 C2256 0.931 . S
H2273 C2261 0.929 . S
H2274 C2262 0.960 . S
H2275 C2262 0.962 . S
H2276 C2262 0.960 . S
H2277 C2263 0.961 . S
H2278 C2263 0.961 . S
H2279 C2263 0.961 . S
H2280 C2264 0.931 . S
H2281 C2269 0.930 . S
H2282 C2270 0.956 . S
H2283 C2270 0.961 . S
H2284 C2270 0.961 . S
H2285 C2271 0.958 . S
H2286 C2271 0.961 . S
H2287 C2271 0.960 . S
C2288 C2289 1.391 . S
C2288 C2290 1.394 . S
C2288 H2304 0.931 . S
C2289 C2288 1.391 . S
C2289 C2293 1.376 . S
C2290 C2288 1.394 . S
C2290 C2291 1.369 . S
C2290 C2294 1.531 . S
C2291 C2290 1.369 . S
C2291 C2292 1.410 . S
C2291 C2299 1.503 . S
C2292 C2291 1.410 . S
C2292 C2293 1.392 . S
C2292 C2295 1.511 . S
C2293 C2289 1.376 . S
C2293 C2292 1.392 . S
C2293 H2305 0.929 . S
C2294 C2290 1.531 . S
C2294 H2306 0.960 . S
C2294 H2307 0.962 . S
C2294 H2308 0.960 . S
C2295 C2292 1.511 . S
C2295 H2309 0.961 . S
C2295 H2310 0.961 . S
C2295 H2311 0.961 . S
C2296 C2297 1.370 . S
C2296 C2298 1.363 . S
C2296 H2312 0.931 . S
C2297 C2296 1.370 . S
C2297 C2301 1.408 . S
C2298 C2296 1.363 . S
C2298 C2299 1.370 . S
C2298 C2302 1.524 . S
C2299 C2291 1.503 . S
C2299 C2298 1.370 . S
C2299 C2300 1.403 . S
C2300 C2299 1.403 . S
C2300 C2301 1.404 . S
C2300 C2303 1.539 . S
C2301 C2297 1.408 . S
C2301 C2300 1.404 . S
C2301 H2313 0.930 . S
C2302 C2298 1.524 . S
C2302 H2314 0.956 . S
C2302 H2315 0.961 . S
C2302 H2316 0.961 . S
C2303 C2300 1.539 . S
C2303 H2317 0.958 . S
C2303 H2318 0.961 . S
C2303 H2319 0.960 . S
H2304 C2288 0.931 . S
H2305 C2293 0.929 . S
H2306 C2294 0.960 . S
H2307 C2294 0.962 . S
H2308 C2294 0.960 . S
H2309 C2295 0.961 . S
H2310 C2295 0.961 . S
H2311 C2295 0.961 . S
H2312 C2296 0.931 . S
H2313 C2301 0.930 . S
H2314 C2302 0.956 . S
H2315 C2302 0.961 . S
H2316 C2302 0.961 . S
H2317 C2303 0.958 . S
H2318 C2303 0.961 . S
H2319 C2303 0.960 . S
C2320 C2321 1.391 . S
C2320 C2322 1.394 . S
C2320 H2336 0.931 . S
C2321 C2320 1.391 . S
C2321 C2325 1.376 . S
C2322 C2320 1.394 . S
C2322 C2323 1.369 . S
C2322 C2326 1.531 . S
C2323 C2322 1.369 . S
C2323 C2324 1.410 . S
C2323 C2331 1.503 . S
C2324 C2323 1.410 . S
C2324 C2325 1.392 . S
C2324 C2327 1.511 . S
C2325 C2321 1.376 . S
C2325 C2324 1.392 . S
C2325 H2337 0.929 . S
C2326 C2322 1.531 . S
C2326 H2338 0.960 . S
C2326 H2339 0.962 . S
C2326 H2340 0.960 . S
C2327 C2324 1.511 . S
C2327 H2341 0.961 . S
C2327 H2342 0.961 . S
C2327 H2343 0.961 . S
C2328 C2329 1.370 . S
C2328 C2330 1.363 . S
C2328 H2344 0.931 . S
C2329 C2328 1.370 . S
C2329 C2333 1.408 . S
C2330 C2328 1.363 . S
C2330 C2331 1.370 . S
C2330 C2334 1.524 . S
C2331 C2323 1.503 . S
C2331 C2330 1.370 . S
C2331 C2332 1.403 . S
C2332 C2331 1.403 . S
C2332 C2333 1.404 . S
C2332 C2335 1.539 . S
C2333 C2329 1.408 . S
C2333 C2332 1.404 . S
C2333 H2345 0.930 . S
C2334 C2330 1.524 . S
C2334 H2346 0.956 . S
C2334 H2347 0.961 . S
C2334 H2348 0.961 . S
C2335 C2332 1.539 . S
C2335 H2349 0.958 . S
C2335 H2350 0.961 . S
C2335 H2351 0.960 . S
H2336 C2320 0.931 . S
H2337 C2325 0.929 . S
H2338 C2326 0.960 . S
H2339 C2326 0.962 . S
H2340 C2326 0.960 . S
H2341 C2327 0.961 . S
H2342 C2327 0.961 . S
H2343 C2327 0.961 . S
H2344 C2328 0.931 . S
H2345 C2333 0.930 . S
H2346 C2334 0.956 . S
H2347 C2334 0.961 . S
H2348 C2334 0.961 . S
H2349 C2335 0.958 . S
H2350 C2335 0.961 . S
H2351 C2335 0.960 . S
C2352 C2353 1.391 . S
C2352 C2354 1.394 . S
C2352 H2368 0.931 . S
C2353 C2352 1.391 . S
C2353 C2357 1.376 . S
C2354 C2352 1.394 . S
C2354 C2355 1.369 . S
C2354 C2358 1.531 . S
C2355 C2354 1.369 . S
C2355 C2356 1.410 . S
C2355 C2363 1.503 . S
C2356 C2355 1.410 . S
C2356 C2357 1.392 . S
C2356 C2359 1.511 . S
C2357 C2353 1.376 . S
C2357 C2356 1.392 . S
C2357 H2369 0.929 . S
C2358 C2354 1.531 . S
C2358 H2370 0.960 . S
C2358 H2371 0.962 . S
C2358 H2372 0.960 . S
C2359 C2356 1.511 . S
C2359 H2373 0.961 . S
C2359 H2374 0.961 . S
C2359 H2375 0.961 . S
C2360 C2361 1.370 . S
C2360 C2362 1.363 . S
C2360 H2376 0.931 . S
C2361 C2360 1.370 . S
C2361 C2365 1.408 . S
C2362 C2360 1.363 . S
C2362 C2363 1.370 . S
C2362 C2366 1.524 . S
C2363 C2355 1.503 . S
C2363 C2362 1.370 . S
C2363 C2364 1.403 . S
C2364 C2363 1.403 . S
C2364 C2365 1.404 . S
C2364 C2367 1.539 . S
C2365 C2361 1.408 . S
C2365 C2364 1.404 . S
C2365 H2377 0.930 . S
C2366 C2362 1.524 . S
C2366 H2378 0.956 . S
C2366 H2379 0.961 . S
C2366 H2380 0.961 . S
C2367 C2364 1.539 . S
C2367 H2381 0.958 . S
C2367 H2382 0.961 . S
C2367 H2383 0.960 . S
H2368 C2352 0.931 . S
H2369 C2357 0.929 . S
H2370 C2358 0.960 . S
H2371 C2358 0.962 . S
H2372 C2358 0.960 . S
H2373 C2359 0.961 . S
H2374 C2359 0.961 . S
H2375 C2359 0.961 . S
H2376 C2360 0.931 . S
H2377 C2365 0.930 . S
H2378 C2366 0.956 . S
H2379 C2366 0.961 . S
H2380 C2366 0.961 . S
H2381 C2367 0.958 . S
H2382 C2367 0.961 . S
H2383 C2367 0.960 . S
C2384 C2385 1.391 . S
C2384 C2386 1.394 . S
C2384 H2400 0.931 . S
C2385 C2384 1.391 . S
C2385 C2389 1.376 . S
C2386 C2384 1.394 . S
C2386 C2387 1.369 . S
C2386 C2390 1.531 . S
C2387 C2386 1.369 . S
C2387 C2388 1.410 . S
C2387 C2395 1.503 . S
C2388 C2387 1.410 . S
C2388 C2389 1.392 . S
C2388 C2391 1.511 . S
C2389 C2385 1.376 . S
C2389 C2388 1.392 . S
C2389 H2401 0.929 . S
C2390 C2386 1.531 . S
C2390 H2402 0.960 . S
C2390 H2403 0.962 . S
C2390 H2404 0.960 . S
C2391 C2388 1.511 . S
C2391 H2405 0.961 . S
C2391 H2406 0.961 . S
C2391 H2407 0.961 . S
C2392 C2393 1.370 . S
C2392 C2394 1.363 . S
C2392 H2408 0.931 . S
C2393 C2392 1.370 . S
C2393 C2397 1.408 . S
C2394 C2392 1.363 . S
C2394 C2395 1.370 . S
C2394 C2398 1.524 . S
C2395 C2387 1.503 . S
C2395 C2394 1.370 . S
C2395 C2396 1.403 . S
C2396 C2395 1.403 . S
C2396 C2397 1.404 . S
C2396 C2399 1.539 . S
C2397 C2393 1.408 . S
C2397 C2396 1.404 . S
C2397 H2409 0.930 . S
C2398 C2394 1.524 . S
C2398 H2410 0.956 . S
C2398 H2411 0.961 . S
C2398 H2412 0.961 . S
C2399 C2396 1.539 . S
C2399 H2413 0.958 . S
C2399 H2414 0.961 . S
C2399 H2415 0.960 . S
H2400 C2384 0.931 . S
H2401 C2389 0.929 . S
H2402 C2390 0.960 . S
H2403 C2390 0.962 . S
H2404 C2390 0.960 . S
H2405 C2391 0.961 . S
H2406 C2391 0.961 . S
H2407 C2391 0.961 . S
H2408 C2392 0.931 . S
H2409 C2397 0.930 . S
H2410 C2398 0.956 . S
H2411 C2398 0.961 . S
H2412 C2398 0.961 . S
H2413 C2399 0.958 . S
H2414 C2399 0.961 . S
H2415 C2399 0.960 . S
C2416 C2417 1.391 . S
C2416 C2418 1.394 . S
C2416 H2432 0.931 . S
C2417 C2416 1.391 . S
C2417 C2421 1.376 . S
C2418 C2416 1.394 . S
C2418 C2419 1.369 . S
C2418 C2422 1.531 . S
C2419 C2418 1.369 . S
C2419 C2420 1.410 . S
C2419 C2427 1.503 . S
C2420 C2419 1.410 . S
C2420 C2421 1.392 . S
C2420 C2423 1.511 . S
C2421 C2417 1.376 . S
C2421 C2420 1.392 . S
C2421 H2433 0.929 . S
C2422 C2418 1.531 . S
C2422 H2434 0.960 . S
C2422 H2435 0.962 . S
C2422 H2436 0.960 . S
C2423 C2420 1.511 . S
C2423 H2437 0.961 . S
C2423 H2438 0.961 . S
C2423 H2439 0.961 . S
C2424 C2425 1.370 . S
C2424 C2426 1.363 . S
C2424 H2440 0.931 . S
C2425 C2424 1.370 . S
C2425 C2429 1.408 . S
C2426 C2424 1.363 . S
C2426 C2427 1.370 . S
C2426 C2430 1.524 . S
C2427 C2419 1.503 . S
C2427 C2426 1.370 . S
C2427 C2428 1.403 . S
C2428 C2427 1.403 . S
C2428 C2429 1.404 . S
C2428 C2431 1.539 . S
C2429 C2425 1.408 . S
C2429 C2428 1.404 . S
C2429 H2441 0.930 . S
C2430 C2426 1.524 . S
C2430 H2442 0.956 . S
C2430 H2443 0.961 . S
C2430 H2444 0.961 . S
C2431 C2428 1.539 . S
C2431 H2445 0.958 . S
C2431 H2446 0.961 . S
C2431 H2447 0.960 . S
H2432 C2416 0.931 . S
H2433 C2421 0.929 . S
H2434 C2422 0.960 . S
H2435 C2422 0.962 . S
H2436 C2422 0.960 . S
H2437 C2423 0.961 . S
H2438 C2423 0.961 . S
H2439 C2423 0.961 . S
H2440 C2424 0.931 . S
H2441 C2429 0.930 . S
H2442 C2430 0.956 . S
H2443 C2430 0.961 . S
H2444 C2430 0.961 . S
H2445 C2431 0.958 . S
H2446 C2431 0.961 . S
H2447 C2431 0.960 . S
C2448 C2449 1.391 . S
C2448 C2450 1.394 . S
C2448 H2464 0.931 . S
C2449 C2448 1.391 . S
C2449 C2453 1.376 . S
C2450 C2448 1.394 . S
C2450 C2451 1.369 . S
C2450 C2454 1.531 . S
C2451 C2450 1.369 . S
C2451 C2452 1.410 . S
C2451 C2459 1.503 . S
C2452 C2451 1.410 . S
C2452 C2453 1.392 . S
C2452 C2455 1.511 . S
C2453 C2449 1.376 . S
C2453 C2452 1.392 . S
C2453 H2465 0.929 . S
C2454 C2450 1.531 . S
C2454 H2466 0.960 . S
C2454 H2467 0.962 . S
C2454 H2468 0.960 . S
C2455 C2452 1.511 . S
C2455 H2469 0.961 . S
C2455 H2470 0.961 . S
C2455 H2471 0.961 . S
C2456 C2457 1.370 . S
C2456 C2458 1.363 . S
C2456 H2472 0.931 . S
C2457 C2456 1.370 . S
C2457 C2461 1.408 . S
C2458 C2456 1.363 . S
C2458 C2459 1.370 . S
C2458 C2462 1.524 . S
C2459 C2451 1.503 . S
C2459 C2458 1.370 . S
C2459 C2460 1.403 . S
C2460 C2459 1.403 . S
C2460 C2461 1.404 . S
C2460 C2463 1.539 . S
C2461 C2457 1.408 . S
C2461 C2460 1.404 . S
C2461 H2473 0.930 . S
C2462 C2458 1.524 . S
C2462 H2474 0.956 . S
C2462 H2475 0.961 . S
C2462 H2476 0.961 . S
C2463 C2460 1.539 . S
C2463 H2477 0.958 . S
C2463 H2478 0.961 . S
C2463 H2479 0.960 . S
H2464 C2448 0.931 . S
H2465 C2453 0.929 . S
H2466 C2454 0.960 . S
H2467 C2454 0.962 . S
H2468 C2454 0.960 . S
H2469 C2455 0.961 . S
H2470 C2455 0.961 . S
H2471 C2455 0.961 . S
H2472 C2456 0.931 . S
H2473 C2461 0.930 . S
H2474 C2462 0.956 . S
H2475 C2462 0.961 . S
H2476 C2462 0.961 . S
H2477 C2463 0.958 . S
H2478 C2463 0.961 . S
H2479 C2463 0.960 . S
C2480 C2481 1.391 . S
C2480 C2482 1.394 . S
C2480 H2496 0.931 . S
C2481 C2480 1.391 . S
C2481 C2485 1.376 . S
C2482 C2480 1.394 . S
C2482 C2483 1.369 . S
C2482 C2486 1.531 . S
C2483 C2482 1.369 . S
C2483 C2484 1.410 . S
C2483 C2491 1.503 . S
C2484 C2483 1.410 . S
C2484 C2485 1.392 . S
C2484 C2487 1.511 . S
C2485 C2481 1.376 . S
C2485 C2484 1.392 . S
C2485 H2497 0.929 . S
C2486 C2482 1.531 . S
C2486 H2498 0.960 . S
C2486 H2499 0.962 . S
C2486 H2500 0.960 . S
C2487 C2484 1.511 . S
C2487 H2501 0.961 . S
C2487 H2502 0.961 . S
C2487 H2503 0.961 . S
C2488 C2489 1.370 . S
C2488 C2490 1.363 . S
C2488 H2504 0.931 . S
C2489 C2488 1.370 . S
C2489 C2493 1.408 . S
C2490 C2488 1.363 . S
C2490 C2491 1.370 . S
C2490 C2494 1.524 . S
C2491 C2483 1.503 . S
C2491 C2490 1.370 . S
C2491 C2492 1.403 . S
C2492 C2491 1.403 . S
C2492 C2493 1.404 . S
C2492 C2495 1.539 . S
C2493 C2489 1.408 . S
C2493 C2492 1.404 . S
C2493 H2505 0.930 . S
C2494 C2490 1.524 . S
C2494 H2506 0.956 . S
C2494 H2507 0.961 . S
C2494 H2508 0.961 . S
C2495 C2492 1.539 . S
C2495 H2509 0.958 . S
C2495 H2510 0.961 . S
C2495 H2511 0.960 . S
H2496 C2480 0.931 . S
H2497 C2485 0.929 . S
H2498 C2486 0.960 . S
H2499 C2486 0.962 . S
H2500 C2486 0.960 . S
H2501 C2487 0.961 . S
H2502 C2487 0.961 . S
H2503 C2487 0.961 . S
H2504 C2488 0.931 . S
H2505 C2493 0.930 . S
H2506 C2494 0.956 . S
H2507 C2494 0.961 . S
H2508 C2494 0.961 . S
H2509 C2495 0.958 . S
H2510 C2495 0.961 . S
H2511 C2495 0.960 . S
C2512 C2513 1.391 . S
C2512 C2514 1.394 . S
C2512 H2528 0.931 . S
C2513 C2512 1.391 . S
C2513 C2517 1.376 . S
C2514 C2512 1.394 . S
C2514 C2515 1.369 . S
C2514 C2518 1.531 . S
C2515 C2514 1.369 . S
C2515 C2516 1.410 . S
C2515 C2523 1.503 . S
C2516 C2515 1.410 . S
C2516 C2517 1.392 . S
C2516 C2519 1.511 . S
C2517 C2513 1.376 . S
C2517 C2516 1.392 . S
C2517 H2529 0.929 . S
C2518 C2514 1.531 . S
C2518 H2530 0.960 . S
C2518 H2531 0.962 . S
C2518 H2532 0.960 . S
C2519 C2516 1.511 . S
C2519 H2533 0.961 . S
C2519 H2534 0.961 . S
C2519 H2535 0.961 . S
C2520 C2521 1.370 . S
C2520 C2522 1.363 . S
C2520 H2536 0.931 . S
C2521 C2520 1.370 . S
C2521 C2525 1.408 . S
C2522 C2520 1.363 . S
C2522 C2523 1.370 . S
C2522 C2526 1.524 . S
C2523 C2515 1.503 . S
C2523 C2522 1.370 . S
C2523 C2524 1.403 . S
C2524 C2523 1.403 . S
C2524 C2525 1.404 . S
C2524 C2527 1.539 . S
C2525 C2521 1.408 . S
C2525 C2524 1.404 . S
C2525 H2537 0.930 . S
C2526 C2522 1.524 . S
C2526 H2538 0.956 . S
C2526 H2539 0.961 . S
C2526 H2540 0.961 . S
C2527 C2524 1.539 . S
C2527 H2541 0.958 . S
C2527 H2542 0.961 . S
C2527 H2543 0.960 . S
H2528 C2512 0.931 . S
H2529 C2517 0.929 . S
H2530 C2518 0.960 . S
H2531 C2518 0.962 . S
H2532 C2518 0.960 . S
H2533 C2519 0.961 . S
H2534 C2519 0.961 . S
H2535 C2519 0.961 . S
H2536 C2520 0.931 . S
H2537 C2525 0.930 . S
H2538 C2526 0.956 . S
H2539 C2526 0.961 . S
H2540 C2526 0.961 . S
H2541 C2527 0.958 . S
H2542 C2527 0.961 . S
H2543 C2527 0.960 . S
C2544 C2545 1.391 . S
C2544 C2546 1.394 . S
C2544 H2560 0.931 . S
C2545 C2544 1.391 . S
C2545 C2549 1.376 . S
C2546 C2544 1.394 . S
C2546 C2547 1.369 . S
C2546 C2550 1.531 . S
C2547 C2546 1.369 . S
C2547 C2548 1.410 . S
C2547 C2555 1.503 . S
C2548 C2547 1.410 . S
C2548 C2549 1.392 . S
C2548 C2551 1.511 . S
C2549 C2545 1.376 . S
C2549 C2548 1.392 . S
C2549 H2561 0.929 . S
C2550 C2546 1.531 . S
C2550 H2562 0.960 . S
C2550 H2563 0.962 . S
C2550 H2564 0.960 . S
C2551 C2548 1.511 . S
C2551 H2565 0.961 . S
C2551 H2566 0.961 . S
C2551 H2567 0.961 . S
C2552 C2553 1.370 . S
C2552 C2554 1.363 . S
C2552 H2568 0.931 . S
C2553 C2552 1.370 . S
C2553 C2557 1.408 . S
C2554 C2552 1.363 . S
C2554 C2555 1.370 . S
C2554 C2558 1.524 . S
C2555 C2547 1.503 . S
C2555 C2554 1.370 . S
C2555 C2556 1.403 . S
C2556 C2555 1.403 . S
C2556 C2557 1.404 . S
C2556 C2559 1.539 . S
C2557 C2553 1.408 . S
C2557 C2556 1.404 . S
C2557 H2569 0.930 . S
C2558 C2554 1.524 . S
C2558 H2570 0.956 . S
C2558 H2571 0.961 . S
C2558 H2572 0.961 . S
C2559 C2556 1.539 . S
C2559 H2573 0.958 . S
C2559 H2574 0.961 . S
C2559 H2575 0.960 . S
H2560 C2544 0.931 . S
H2561 C2549 0.929 . S
H2562 C2550 0.960 . S
H2563 C2550 0.962 . S
H2564 C2550 0.960 . S
H2565 C2551 0.961 . S
H2566 C2551 0.961 . S
H2567 C2551 0.961 . S
H2568 C2552 0.931 . S
H2569 C2557 0.930 . S
H2570 C2558 0.956 . S
H2571 C2558 0.961 . S
H2572 C2558 0.961 . S
H2573 C2559 0.958 . S
H2574 C2559 0.961 . S
H2575 C2559 0.960 . S
C2576 C2577 1.391 . S
C2576 C2578 1.394 . S
C2576 H2592 0.931 . S
C2577 C2576 1.391 . S
C2577 C2581 1.376 . S
C2578 C2576 1.394 . S
C2578 C2579 1.369 . S
C2578 C2582 1.531 . S
C2579 C2578 1.369 . S
C2579 C2580 1.410 . S
C2579 C2587 1.503 . S
C2580 C2579 1.410 . S
C2580 C2581 1.392 . S
C2580 C2583 1.511 . S
C2581 C2577 1.376 . S
C2581 C2580 1.392 . S
C2581 H2593 0.929 . S
C2582 C2578 1.531 . S
C2582 H2594 0.960 . S
C2582 H2595 0.962 . S
C2582 H2596 0.960 . S
C2583 C2580 1.511 . S
C2583 H2597 0.961 . S
C2583 H2598 0.961 . S
C2583 H2599 0.961 . S
C2584 C2585 1.370 . S
C2584 C2586 1.363 . S
C2584 H2600 0.931 . S
C2585 C2584 1.370 . S
C2585 C2589 1.408 . S
C2586 C2584 1.363 . S
C2586 C2587 1.370 . S
C2586 C2590 1.524 . S
C2587 C2579 1.503 . S
C2587 C2586 1.370 . S
C2587 C2588 1.403 . S
C2588 C2587 1.403 . S
C2588 C2589 1.404 . S
C2588 C2591 1.539 . S
C2589 C2585 1.408 . S
C2589 C2588 1.404 . S
C2589 H2601 0.930 . S
C2590 C2586 1.524 . S
C2590 H2602 0.956 . S
C2590 H2603 0.961 . S
C2590 H2604 0.961 . S
C2591 C2588 1.539 . S
C2591 H2605 0.958 . S
C2591 H2606 0.961 . S
C2591 H2607 0.960 . S
H2592 C2576 0.931 . S
H2593 C2581 0.929 . S
H2594 C2582 0.960 . S
H2595 C2582 0.962 . S
H2596 C2582 0.960 . S
H2597 C2583 0.961 . S
H2598 C2583 0.961 . S
H2599 C2583 0.961 . S
H2600 C2584 0.931 . S
H2601 C2589 0.930 . S
H2602 C2590 0.956 . S
H2603 C2590 0.961 . S
H2604 C2590 0.961 . S
H2605 C2591 0.958 . S
H2606 C2591 0.961 . S
H2607 C2591 0.960 . S
C2608 C2609 1.391 . S
C2608 C2610 1.394 . S
C2608 H2624 0.931 . S
C2609 C2608 1.391 . S
C2609 C2613 1.376 . S
C2610 C2608 1.394 . S
C2610 C2611 1.369 . S
C2610 C2614 1.531 . S
C2611 C2610 1.369 . S
C2611 C2612 1.410 . S
C2611 C2619 1.503 . S
C2612 C2611 1.410 . S
C2612 C2613 1.392 . S
C2612 C2615 1.511 . S
C2613 C2609 1.376 . S
C2613 C2612 1.392 . S
C2613 H2625 0.929 . S
C2614 C2610 1.531 . S
C2614 H2626 0.960 . S
C2614 H2627 0.962 . S
C2614 H2628 0.960 . S
C2615 C2612 1.511 . S
C2615 H2629 0.961 . S
C2615 H2630 0.961 . S
C2615 H2631 0.961 . S
C2616 C2617 1.370 . S
C2616 C2618 1.363 . S
C2616 H2632 0.931 . S
C2617 C2616 1.370 . S
C2617 C2621 1.408 . S
C2618 C2616 1.363 . S
C2618 C2619 1.370 . S
C2618 C2622 1.524 . S
C2619 C2611 1.503 . S
C2619 C2618 1.370 . S
C2619 C2620 1.403 . S
C2620 C2619 1.403 . S
C2620 C2621 1.404 . S
C2620 C2623 1.539 . S
C2621 C2617 1.408 . S
C2621 C2620 1.404 . S
C2621 H2633 0.930 . S
C2622 C2618 1.524 . S
C2622 H2634 0.956 . S
C2622 H2635 0.961 . S
C2622 H2636 0.961 . S
C2623 C2620 1.539 . S
C2623 H2637 0.958 . S
C2623 H2638 0.961 . S
C2623 H2639 0.960 . S
H2624 C2608 0.931 . S
H2625 C2613 0.929 . S
H2626 C2614 0.960 . S
H2627 C2614 0.962 . S
H2628 C2614 0.960 . S
H2629 C2615 0.961 . S
H2630 C2615 0.961 . S
H2631 C2615 0.961 . S
H2632 C2616 0.931 . S
H2633 C2621 0.930 . S
H2634 C2622 0.956 . S
H2635 C2622 0.961 . S
H2636 C2622 0.961 . S
H2637 C2623 0.958 . S
H2638 C2623 0.961 . S
H2639 C2623 0.960 . S
C2640 C2641 1.391 . S
C2640 C2642 1.394 . S
C2640 H2656 0.931 . S
C2641 C2640 1.391 . S
C2641 C2645 1.376 . S
C2642 C2640 1.394 . S
C2642 C2643 1.369 . S
C2642 C2646 1.531 . S
C2643 C2642 1.369 . S
C2643 C2644 1.410 . S
C2643 C2651 1.503 . S
C2644 C2643 1.410 . S
C2644 C2645 1.392 . S
C2644 C2647 1.511 . S
C2645 C2641 1.376 . S
C2645 C2644 1.392 . S
C2645 H2657 0.929 . S
C2646 C2642 1.531 . S
C2646 H2658 0.960 . S
C2646 H2659 0.962 . S
C2646 H2660 0.960 . S
C2647 C2644 1.511 . S
C2647 H2661 0.961 . S
C2647 H2662 0.961 . S
C2647 H2663 0.961 . S
C2648 C2649 1.370 . S
C2648 C2650 1.363 . S
C2648 H2664 0.931 . S
C2649 C2648 1.370 . S
C2649 C2653 1.408 . S
C2650 C2648 1.363 . S
C2650 C2651 1.370 . S
C2650 C2654 1.524 . S
C2651 C2643 1.503 . S
C2651 C2650 1.370 . S
C2651 C2652 1.403 . S
C2652 C2651 1.403 . S
C2652 C2653 1.404 . S
C2652 C2655 1.539 . S
C2653 C2649 1.408 . S
C2653 C2652 1.404 . S
C2653 H2665 0.930 . S
C2654 C2650 1.524 . S
C2654 H2666 0.956 . S
C2654 H2667 0.961 . S
C2654 H2668 0.961 . S
C2655 C2652 1.539 . S
C2655 H2669 0.958 . S
C2655 H2670 0.961 . S
C2655 H2671 0.960 . S
H2656 C2640 0.931 . S
H2657 C2645 0.929 . S
H2658 C2646 0.960 . S
H2659 C2646 0.962 . S
H2660 C2646 0.960 . S
H2661 C2647 0.961 . S
H2662 C2647 0.961 . S
H2663 C2647 0.961 . S
H2664 C2648 0.931 . S
H2665 C2653 0.930 . S
H2666 C2654 0.956 . S
H2667 C2654 0.961 . S
H2668 C2654 0.961 . S
H2669 C2655 0.958 . S
H2670 C2655 0.961 . S
H2671 C2655 0.960 . S
C2672 C2673 1.391 . S
C2672 C2674 1.394 . S
C2672 H2688 0.931 . S
C2673 C2672 1.391 . S
C2673 C2677 1.376 . S
C2674 C2672 1.394 . S
C2674 C2675 1.369 . S
C2674 C2678 1.531 . S
C2675 C2674 1.369 . S
C2675 C2676 1.410 . S
C2675 C2683 1.503 . S
C2676 C2675 1.410 . S
C2676 C2677 1.392 . S
C2676 C2679 1.511 . S
C2677 C2673 1.376 . S
C2677 C2676 1.392 . S
C2677 H2689 0.929 . S
C2678 C2674 1.531 . S
C2678 H2690 0.960 . S
C2678 H2691 0.962 . S
C2678 H2692 0.960 . S
C2679 C2676 1.511 . S
C2679 H2693 0.961 . S
C2679 H2694 0.961 . S
C2679 H2695 0.961 . S
C2680 C2681 1.370 . S
C2680 C2682 1.363 . S
C2680 H2696 0.931 . S
C2681 C2680 1.370 . S
C2681 C2685 1.408 . S
C2682 C2680 1.363 . S
C2682 C2683 1.370 . S
C2682 C2686 1.524 . S
C2683 C2675 1.503 . S
C2683 C2682 1.370 . S
C2683 C2684 1.403 . S
C2684 C2683 1.403 . S
C2684 C2685 1.404 . S
C2684 C2687 1.539 . S
C2685 C2681 1.408 . S
C2685 C2684 1.404 . S
C2685 H2697 0.930 . S
C2686 C2682 1.524 . S
C2686 H2698 0.956 . S
C2686 H2699 0.961 . S
C2686 H2700 0.961 . S
C2687 C2684 1.539 . S
C2687 H2701 0.958 . S
C2687 H2702 0.961 . S
C2687 H2703 0.960 . S
H2688 C2672 0.931 . S
H2689 C2677 0.929 . S
H2690 C2678 0.960 . S
H2691 C2678 0.962 . S
H2692 C2678 0.960 . S
H2693 C2679 0.961 . S
H2694 C2679 0.961 . S
H2695 C2679 0.961 . S
H2696 C2680 0.931 . S
H2697 C2685 0.930 . S
H2698 C2686 0.956 . S
H2699 C2686 0.961 . S
H2700 C2686 0.961 . S
H2701 C2687 0.958 . S
H2702 C2687 0.961 . S
H2703 C2687 0.960 . S
C2704 C2705 1.391 . S
C2704 C2706 1.394 . S
C2704 H2720 0.931 . S
C2705 C2704 1.391 . S
C2705 C2709 1.376 . S
C2706 C2704 1.394 . S
C2706 C2707 1.369 . S
C2706 C2710 1.531 . S
C2707 C2706 1.369 . S
C2707 C2708 1.410 . S
C2707 C2715 1.503 . S
C2708 C2707 1.410 . S
C2708 C2709 1.392 . S
C2708 C2711 1.511 . S
C2709 C2705 1.376 . S
C2709 C2708 1.392 . S
C2709 H2721 0.929 . S
C2710 C2706 1.531 . S
C2710 H2722 0.960 . S
C2710 H2723 0.962 . S
C2710 H2724 0.960 . S
C2711 C2708 1.511 . S
C2711 H2725 0.961 . S
C2711 H2726 0.961 . S
C2711 H2727 0.961 . S
C2712 C2713 1.370 . S
C2712 C2714 1.363 . S
C2712 H2728 0.931 . S
C2713 C2712 1.370 . S
C2713 C2717 1.408 . S
C2714 C2712 1.363 . S
C2714 C2715 1.370 . S
C2714 C2718 1.524 . S
C2715 C2707 1.503 . S
C2715 C2714 1.370 . S
C2715 C2716 1.403 . S
C2716 C2715 1.403 . S
C2716 C2717 1.404 . S
C2716 C2719 1.539 . S
C2717 C2713 1.408 . S
C2717 C2716 1.404 . S
C2717 H2729 0.930 . S
C2718 C2714 1.524 . S
C2718 H2730 0.956 . S
C2718 H2731 0.961 . S
C2718 H2732 0.961 . S
C2719 C2716 1.539 . S
C2719 H2733 0.958 . S
C2719 H2734 0.961 . S
C2719 H2735 0.960 . S
H2720 C2704 0.931 . S
H2721 C2709 0.929 . S
H2722 C2710 0.960 . S
H2723 C2710 0.962 . S
H2724 C2710 0.960 . S
H2725 C2711 0.961 . S
H2726 C2711 0.961 . S
H2727 C2711 0.961 . S
H2728 C2712 0.931 . S
H2729 C2717 0.930 . S
H2730 C2718 0.956 . S
H2731 C2718 0.961 . S
H2732 C2718 0.961 . S
H2733 C2719 0.958 . S
H2734 C2719 0.961 . S
H2735 C2719 0.960 . S
C2736 C2737 1.391 . S
C2736 C2738 1.394 . S
C2736 H2752 0.931 . S
C2737 C2736 1.391 . S
C2737 C2741 1.376 . S
C2738 C2736 1.394 . S
C2738 C2739 1.369 . S
C2738 C2742 1.531 . S
C2739 C2738 1.369 . S
C2739 C2740 1.410 . S
C2739 C2747 1.503 . S
C2740 C2739 1.410 . S
C2740 C2741 1.392 . S
C2740 C2743 1.511 . S
C2741 C2737 1.376 . S
C2741 C2740 1.392 . S
C2741 H2753 0.929 . S
C2742 C2738 1.531 . S
C2742 H2754 0.960 . S
C2742 H2755 0.962 . S
C2742 H2756 0.960 . S
C2743 C2740 1.511 . S
C2743 H2757 0.961 . S
C2743 H2758 0.961 . S
C2743 H2759 0.961 . S
C2744 C2745 1.370 . S
C2744 C2746 1.363 . S
C2744 H2760 0.931 . S
C2745 C2744 1.370 . S
C2745 C2749 1.408 . S
C2746 C2744 1.363 . S
C2746 C2747 1.370 . S
C2746 C2750 1.524 . S
C2747 C2739 1.503 . S
C2747 C2746 1.370 . S
C2747 C2748 1.403 . S
C2748 C2747 1.403 . S
C2748 C2749 1.404 . S
C2748 C2751 1.539 . S
C2749 C2745 1.408 . S
C2749 C2748 1.404 . S
C2749 H2761 0.930 . S
C2750 C2746 1.524 . S
C2750 H2762 0.956 . S
C2750 H2763 0.961 . S
C2750 H2764 0.961 . S
C2751 C2748 1.539 . S
C2751 H2765 0.958 . S
C2751 H2766 0.961 . S
C2751 H2767 0.960 . S
H2752 C2736 0.931 . S
H2753 C2741 0.929 . S
H2754 C2742 0.960 . S
H2755 C2742 0.962 . S
H2756 C2742 0.960 . S
H2757 C2743 0.961 . S
H2758 C2743 0.961 . S
H2759 C2743 0.961 . S
H2760 C2744 0.931 . S
H2761 C2749 0.930 . S
H2762 C2750 0.956 . S
H2763 C2750 0.961 . S
H2764 C2750 0.961 . S
H2765 C2751 0.958 . S
H2766 C2751 0.961 . S
H2767 C2751 0.960 . S
C2768 C2769 1.391 . S
C2768 C2770 1.394 . S
C2768 H2784 0.931 . S
C2769 C2768 1.391 . S
C2769 C2773 1.376 . S
C2770 C2768 1.394 . S
C2770 C2771 1.369 . S
C2770 C2774 1.531 . S
C2771 C2770 1.369 . S
C2771 C2772 1.410 . S
C2771 C2779 1.503 . S
C2772 C2771 1.410 . S
C2772 C2773 1.392 . S
C2772 C2775 1.511 . S
C2773 C2769 1.376 . S
C2773 C2772 1.392 . S
C2773 H2785 0.929 . S
C2774 C2770 1.531 . S
C2774 H2786 0.960 . S
C2774 H2787 0.962 . S
C2774 H2788 0.960 . S
C2775 C2772 1.511 . S
C2775 H2789 0.961 . S
C2775 H2790 0.961 . S
C2775 H2791 0.961 . S
C2776 C2777 1.370 . S
C2776 C2778 1.363 . S
C2776 H2792 0.931 . S
C2777 C2776 1.370 . S
C2777 C2781 1.408 . S
C2778 C2776 1.363 . S
C2778 C2779 1.370 . S
C2778 C2782 1.524 . S
C2779 C2771 1.503 . S
C2779 C2778 1.370 . S
C2779 C2780 1.403 . S
C2780 C2779 1.403 . S
C2780 C2781 1.404 . S
C2780 C2783 1.539 . S
C2781 C2777 1.408 . S
C2781 C2780 1.404 . S
C2781 H2793 0.930 . S
C2782 C2778 1.524 . S
C2782 H2794 0.956 . S
C2782 H2795 0.961 . S
C2782 H2796 0.961 . S
C2783 C2780 1.539 . S
C2783 H2797 0.958 . S
C2783 H2798 0.961 . S
C2783 H2799 0.960 . S
H2784 C2768 0.931 . S
H2785 C2773 0.929 . S
H2786 C2774 0.960 . S
H2787 C2774 0.962 . S
H2788 C2774 0.960 . S
H2789 C2775 0.961 . S
H2790 C2775 0.961 . S
H2791 C2775 0.961 . S
H2792 C2776 0.931 . S
H2793 C2781 0.930 . S
H2794 C2782 0.956 . S
H2795 C2782 0.961 . S
H2796 C2782 0.961 . S
H2797 C2783 0.958 . S
H2798 C2783 0.961 . S
H2799 C2783 0.960 . S
C2800 C2801 1.391 . S
C2800 C2802 1.394 . S
C2800 H2816 0.931 . S
C2801 C2800 1.391 . S
C2801 C2805 1.376 . S
C2802 C2800 1.394 . S
C2802 C2803 1.369 . S
C2802 C2806 1.531 . S
C2803 C2802 1.369 . S
C2803 C2804 1.410 . S
C2803 C2811 1.503 . S
C2804 C2803 1.410 . S
C2804 C2805 1.392 . S
C2804 C2807 1.511 . S
C2805 C2801 1.376 . S
C2805 C2804 1.392 . S
C2805 H2817 0.929 . S
C2806 C2802 1.531 . S
C2806 H2818 0.960 . S
C2806 H2819 0.962 . S
C2806 H2820 0.960 . S
C2807 C2804 1.511 . S
C2807 H2821 0.961 . S
C2807 H2822 0.961 . S
C2807 H2823 0.961 . S
C2808 C2809 1.370 . S
C2808 C2810 1.363 . S
C2808 H2824 0.931 . S
C2809 C2808 1.370 . S
C2809 C2813 1.408 . S
C2810 C2808 1.363 . S
C2810 C2811 1.370 . S
C2810 C2814 1.524 . S
C2811 C2803 1.503 . S
C2811 C2810 1.370 . S
C2811 C2812 1.403 . S
C2812 C2811 1.403 . S
C2812 C2813 1.404 . S
C2812 C2815 1.539 . S
C2813 C2809 1.408 . S
C2813 C2812 1.404 . S
C2813 H2825 0.930 . S
C2814 C2810 1.524 . S
C2814 H2826 0.956 . S
C2814 H2827 0.961 . S
C2814 H2828 0.961 . S
C2815 C2812 1.539 . S
C2815 H2829 0.958 . S
C2815 H2830 0.961 . S
C2815 H2831 0.960 . S
H2816 C2800 0.931 . S
H2817 C2805 0.929 . S
H2818 C2806 0.960 . S
H2819 C2806 0.962 . S
H2820 C2806 0.960 . S
H2821 C2807 0.961 . S
H2822 C2807 0.961 . S
H2823 C2807 0.961 . S
H2824 C2808 0.931 . S
H2825 C2813 0.930 . S
H2826 C2814 0.956 . S
H2827 C2814 0.961 . S
H2828 C2814 0.961 . S
H2829 C2815 0.958 . S
H2830 C2815 0.961 . S
H2831 C2815 0.960 . S
C2832 C2833 1.391 . S
C2832 C2834 1.383 1_554 S
C2832 H2848 0.931 . S
C2833 C2832 1.391 . S
C2833 C2837 1.376 . S
C2834 C2832 1.383 1_556 S
C2834 C2835 1.381 . S
C2834 C2838 1.530 . S
C2835 C2834 1.381 . S
C2835 C2836 1.410 . S
C2835 C2843 1.503 . S
C2836 C2835 1.410 . S
C2836 C2837 1.392 1_556 S
C2836 C2839 1.511 . S
C2837 C2833 1.376 . S
C2837 C2836 1.392 1_554 S
C2837 H2849 0.929 . S
C2838 C2834 1.530 . S
C2838 H2850 0.961 . S
C2838 H2851 0.962 . S
C2838 H2852 0.960 1_556 S
C2839 C2836 1.511 . S
C2839 H2853 0.961 . S
C2839 H2854 0.961 . S
C2839 H2855 0.924 1_556 S
C2840 C2841 1.370 . S
C2840 C2842 1.363 . S
C2840 H2856 0.931 . S
C2841 C2840 1.370 . S
C2841 C2845 1.408 . S
C2842 C2840 1.363 . S
C2842 C2843 1.370 . S
C2842 C2846 1.524 . S
C2843 C2835 1.503 . S
C2843 C2842 1.370 . S
C2843 C2844 1.403 . S
C2844 C2843 1.403 . S
C2844 C2845 1.404 . S
C2844 C2847 1.539 1_556 S
C2845 C2841 1.408 . S
C2845 C2844 1.404 . S
C2845 H2857 0.930 . S
C2846 C2842 1.524 . S
C2846 H2858 0.956 . S
C2846 H2859 0.961 . S
C2846 H2860 0.961 . S
C2847 C2844 1.539 1_554 S
C2847 H2861 0.958 . S
C2847 H2862 0.961 . S
C2847 H2863 0.960 . S
H2848 C2832 0.931 . S
H2849 C2837 0.929 . S
H2850 C2838 0.961 . S
H2851 C2838 0.962 . S
H2852 C2838 0.960 1_554 S
H2853 C2839 0.961 . S
H2854 C2839 0.961 . S
H2855 C2839 0.924 1_554 S
H2856 C2840 0.931 . S
H2857 C2845 0.930 . S
H2858 C2846 0.956 . S
H2859 C2846 0.961 . S
H2860 C2846 0.961 . S
H2861 C2847 0.958 . S
H2862 C2847 0.961 . S
H2863 C2847 0.960 . S
C2864 C2865 1.391 . S
C2864 C2866 1.394 . S
C2864 H2880 0.931 . S
C2865 C2864 1.391 . S
C2865 C2869 1.376 1_556 S
C2866 C2864 1.394 . S
C2866 C2867 1.369 . S
C2866 C2870 1.531 . S
C2867 C2866 1.369 . S
C2867 C2868 1.410 . S
C2867 C2875 1.503 . S
C2868 C2867 1.410 . S
C2868 C2869 1.392 1_556 S
C2868 C2871 1.525 . S
C2869 C2865 1.376 1_554 S
C2869 C2868 1.392 1_554 S
C2869 H2881 0.929 . S
C2870 C2866 1.531 . S
C2870 H2882 0.960 . S
C2870 H2883 0.962 . S
C2870 H2884 0.960 . S
C2871 C2868 1.525 . S
C2871 H2885 0.930 1_556 S
C2871 H2886 0.969 . S
C2871 H2887 0.971 . S
C2872 C2873 1.370 . S
C2872 C2874 1.363 . S
C2872 H2888 0.931 . S
C2873 C2872 1.370 . S
C2873 C2877 1.408 . S
C2874 C2872 1.363 . S
C2874 C2875 1.370 . S
C2874 C2878 1.524 . S
C2875 C2867 1.503 . S
C2875 C2874 1.370 . S
C2875 C2876 1.403 . S
C2876 C2875 1.403 . S
C2876 C2877 1.404 . S
C2876 C2879 1.539 . S
C2877 C2873 1.408 . S
C2877 C2876 1.404 . S
C2877 H2889 0.930 . S
C2878 C2874 1.524 . S
C2878 H2890 0.956 . S
C2878 H2891 0.961 . S
C2878 H2892 0.961 . S
C2879 C2876 1.539 . S
C2879 H2893 0.958 . S
C2879 H2894 0.961 . S
C2879 H2895 0.960 . S
H2880 C2864 0.931 . S
H2881 C2869 0.929 . S
H2882 C2870 0.960 . S
H2883 C2870 0.962 . S
H2884 C2870 0.960 . S
H2885 C2871 0.930 1_554 S
H2886 C2871 0.969 . S
H2887 C2871 0.971 . S
H2888 C2872 0.931 . S
H2889 C2877 0.930 . S
H2890 C2878 0.956 . S
H2891 C2878 0.961 . S
H2892 C2878 0.961 . S
H2893 C2879 0.958 . S
H2894 C2879 0.961 . S
H2895 C2879 0.960 . S
C2896 C2897 1.391 . S
C2896 C2898 1.394 . S
C2896 H2912 0.931 . S
C2897 C2896 1.391 . S
C2897 C2901 1.376 . S
C2898 C2896 1.394 . S
C2898 C2899 1.369 . S
C2898 C2902 1.531 . S
C2899 C2898 1.369 . S
C2899 C2900 1.410 . S
C2899 C2907 1.503 . S
C2900 C2899 1.410 . S
C2900 C2901 1.392 . S
C2900 C2903 1.511 1_554 S
C2901 C2897 1.376 . S
C2901 C2900 1.392 . S
C2901 H2913 0.929 . S
C2902 C2898 1.531 . S
C2902 H2914 0.960 . S
C2902 H2915 0.962 . S
C2902 H2916 0.960 . S
C2903 C2900 1.511 1_556 S
C2903 H2917 0.961 . S
C2903 H2918 0.961 . S
C2903 H2919 0.961 . S
C2904 C2905 1.370 . S
C2904 C2906 1.363 . S
C2904 H2920 0.931 . S
C2905 C2904 1.370 . S
C2905 C2909 1.408 . S
C2906 C2904 1.363 . S
C2906 C2907 1.370 1_556 S
C2906 C2910 1.524 . S
C2907 C2899 1.503 . S
C2907 C2906 1.370 1_554 S
C2907 C2908 1.403 . S
C2908 C2907 1.403 . S
C2908 C2909 1.404 1_554 S
C2908 C2911 1.539 . S
C2909 C2905 1.408 . S
C2909 C2908 1.404 1_556 S
C2909 H2921 0.930 . S
C2910 C2906 1.524 . S
C2910 H2922 0.956 1_556 S
C2910 H2923 0.961 . S
C2910 H2924 0.961 . S
C2911 C2908 1.539 . S
C2911 H2925 0.958 . S
C2911 H2926 0.961 . S
C2911 H2927 0.960 . S
H2912 C2896 0.931 . S
H2913 C2901 0.929 . S
H2914 C2902 0.960 . S
H2915 C2902 0.962 . S
H2916 C2902 0.960 . S
H2917 C2903 0.961 . S
H2918 C2903 0.961 . S
H2919 C2903 0.961 . S
H2920 C2904 0.931 . S
H2921 C2909 0.930 . S
H2922 C2910 0.956 1_554 S
H2923 C2910 0.961 . S
H2924 C2910 0.961 . S
H2925 C2911 0.958 . S
H2926 C2911 0.961 . S
H2927 C2911 0.960 . S
C2928 C2929 1.391 1_556 S
C2928 C2930 1.394 . S
C2928 H2944 0.931 . S
C2929 C2928 1.391 1_554 S
C2929 C2933 1.376 . S
C2930 C2928 1.394 . S
C2930 C2931 1.369 . S
C2930 C2934 1.531 . S
C2931 C2930 1.369 . S
C2931 C2932 1.410 1_556 S
C2931 C2939 1.503 . S
C2932 C2931 1.410 1_554 S
C2932 C2933 1.392 . S
C2932 C2935 1.511 . S
C2933 C2929 1.376 . S
C2933 C2932 1.392 . S
C2933 H2945 0.929 . S
C2934 C2930 1.531 . S
C2934 H2946 0.960 . S
C2934 H2947 0.962 . S
C2934 H2948 0.960 . S
C2935 C2932 1.511 . S
C2935 H2949 0.961 . S
C2935 H2950 0.961 . S
C2935 H2951 0.961 . S
C2936 C2937 1.370 . S
C2936 C2938 1.363 . S
C2936 H2952 0.931 . S
C2937 C2936 1.370 . S
C2937 C2941 1.408 . S
C2938 C2936 1.363 . S
C2938 C2939 1.370 . S
C2938 C2942 1.524 . S
C2939 C2931 1.503 . S
C2939 C2938 1.370 . S
C2939 C2940 1.403 . S
C2940 C2939 1.403 . S
C2940 C2941 1.404 . S
C2940 C2943 1.539 1_556 S
C2941 C2937 1.408 . S
C2941 C2940 1.404 . S
C2941 H2953 0.930 . S
C2942 C2938 1.524 . S
C2942 H2954 0.956 . S
C2942 H2955 0.961 . S
C2942 H2956 0.961 . S
C2943 C2940 1.539 1_554 S
C2943 H2957 0.953 1_554 S
C2943 H2958 0.961 . S
C2943 H2959 0.960 . S
H2944 C2928 0.931 . S
H2945 C2933 0.929 . S
H2946 C2934 0.960 . S
H2947 C2934 0.962 . S
H2948 C2934 0.960 . S
H2949 C2935 0.961 . S
H2950 C2935 0.961 . S
H2951 C2935 0.961 . S
H2952 C2936 0.931 . S
H2953 C2941 0.930 . S
H2954 C2942 0.956 . S
H2955 C2942 0.961 . S
H2956 C2942 0.961 . S
H2957 C2943 0.953 1_556 S
H2958 C2943 0.961 . S
H2959 C2943 0.960 . S
C2960 C2961 1.391 . S
C2960 C2962 1.394 . S
C2960 H2976 0.931 . S
C2961 C2960 1.391 . S
C2961 C2965 1.376 . S
C2962 C2960 1.394 . S
C2962 C2963 1.369 . S
C2962 C2966 1.531 . S
C2963 C2962 1.369 . S
C2963 C2964 1.410 . S
C2963 C2971 1.503 . S
C2964 C2963 1.410 . S
C2964 C2965 1.392 . S
C2964 C2967 1.511 . S
C2965 C2961 1.376 . S
C2965 C2964 1.392 . S
C2965 H2977 0.929 . S
C2966 C2962 1.531 . S
C2966 H2978 0.960 . S
C2966 H2979 0.962 . S
C2966 H2980 0.960 . S
C2967 C2964 1.511 . S
C2967 H2981 0.961 . S
C2967 H2982 0.961 . S
C2967 H2983 0.961 . S
C2968 C2969 1.370 . S
C2968 C2970 1.363 . S
C2968 H2984 0.931 . S
C2969 C2968 1.370 . S
C2969 C2973 1.408 . S
C2970 C2968 1.363 . S
C2970 C2971 1.370 . S
C2970 C2974 1.524 . S
C2971 C2963 1.503 . S
C2971 C2970 1.370 . S
C2971 C2972 1.403 . S
C2972 C2971 1.403 . S
C2972 C2973 1.404 . S
C2972 C2975 1.539 . S
C2973 C2969 1.408 . S
C2973 C2972 1.404 . S
C2973 H2985 0.930 . S
C2974 C2970 1.524 . S
C2974 H2986 0.956 . S
C2974 H2987 0.961 . S
C2974 H2988 0.961 . S
C2975 C2972 1.539 . S
C2975 H2989 0.958 . S
C2975 H2990 0.961 . S
C2975 H2991 0.960 . S
H2976 C2960 0.931 . S
H2977 C2965 0.929 . S
H2978 C2966 0.960 . S
H2979 C2966 0.962 . S
H2980 C2966 0.960 . S
H2981 C2967 0.961 . S
H2982 C2967 0.961 . S
H2983 C2967 0.961 . S
H2984 C2968 0.931 . S
H2985 C2973 0.930 . S
H2986 C2974 0.956 . S
H2987 C2974 0.961 . S
H2988 C2974 0.961 . S
H2989 C2975 0.958 . S
H2990 C2975 0.961 . S
H2991 C2975 0.960 . S
C2992 C2993 1.391 . S
C2992 C2994 1.394 1_554 S
C2992 H3008 0.914 1_554 S
C2993 C2992 1.391 . S
C2993 C2997 1.376 . S
C2994 C2992 1.394 1_556 S
C2994 C2995 1.369 1_556 S
C2994 C2998 1.531 . S
C2995 C2994 1.369 1_554 S
C2995 C2996 1.410 . S
C2995 C3003 1.503 1_554 S
C2996 C2995 1.410 . S
C2996 C2997 1.392 . S
C2996 C2999 1.511 . S
C2997 C2993 1.376 . S
C2997 C2996 1.392 . S
C2997 H3009 0.929 . S
C2998 C2994 1.531 . S
C2998 H3010 0.960 . S
C2998 H3011 0.962 . S
C2998 H3012 0.960 . S
C2999 C2996 1.511 . S
C2999 H3013 0.961 . S
C2999 H3014 0.961 . S
C2999 H3015 0.961 . S
C3000 C3001 1.370 . S
C3000 C3002 1.363 . S
C3000 H3016 0.931 . S
C3001 C3000 1.370 . S
C3001 C3005 1.408 . S
C3002 C3000 1.363 . S
C3002 C3003 1.370 . S
C3002 C3006 1.524 1_556 S
C3003 C2995 1.503 1_556 S
C3003 C3002 1.370 . S
C3003 C3004 1.403 . S
C3004 C3003 1.403 . S
C3004 C3005 1.404 . S
C3004 C3007 1.539 . S
C3005 C3001 1.408 . S
C3005 C3004 1.404 . S
C3005 H3017 0.930 . S
C3006 C3002 1.524 1_554 S
C3006 H3018 0.956 . S
C3006 H3019 0.961 . S
C3006 H3020 0.961 . S
C3007 C3004 1.539 . S
C3007 H3021 0.958 . S
C3007 H3022 0.961 . S
C3007 H3023 0.960 . S
H3008 C2992 0.914 1_556 S
H3009 C2997 0.929 . S
H3010 C2998 0.960 . S
H3011 C2998 0.962 . S
H3012 C2998 0.960 . S
H3013 C2999 0.961 . S
H3014 C2999 0.961 . S
H3015 C2999 0.961 . S
H3016 C3000 0.931 . S
H3017 C3005 0.930 . S
H3018 C3006 0.956 . S
H3019 C3006 0.961 . S
H3020 C3006 0.961 . S
H3021 C3007 0.958 . S
H3022 C3007 0.961 . S
H3023 C3007 0.960 . S
C3024 C3025 1.391 . S
C3024 C3026 1.394 . S
C3024 H3040 0.931 . S
C3025 C3024 1.391 . S
C3025 C3029 1.376 . S
C3026 C3024 1.394 . S
C3026 C3027 1.369 . S
C3026 C3030 1.531 . S
C3027 C3026 1.369 . S
C3027 C3028 1.410 . S
C3027 C3035 1.503 . S
C3028 C3027 1.410 . S
C3028 C3029 1.392 . S
C3028 C3031 1.511 . S
C3029 C3025 1.376 . S
C3029 C3028 1.392 . S
C3029 H3041 0.929 . S
C3030 C3026 1.531 . S
C3030 H3042 0.960 . S
C3030 H3043 0.962 . S
C3030 H3044 0.960 1_565 S
C3031 C3028 1.511 . S
C3031 H3045 0.961 . S
C3031 H3046 0.961 . S
C3031 H3047 0.961 . S
C3032 C3033 1.370 . S
C3032 C3034 1.363 . S
C3032 H3048 0.931 . S
C3033 C3032 1.370 . S
C3033 C3037 1.408 . S
C3034 C3032 1.363 . S
C3034 C3035 1.370 . S
C3034 C3038 1.524 . S
C3035 C3027 1.503 . S
C3035 C3034 1.370 . S
C3035 C3036 1.403 . S
C3036 C3035 1.403 . S
C3036 C3037 1.404 . S
C3036 C3039 1.539 . S
C3037 C3033 1.408 . S
C3037 C3036 1.404 . S
C3037 H3049 0.930 . S
C3038 C3034 1.524 . S
C3038 H3050 0.956 . S
C3038 H3051 0.961 . S
C3038 H3052 0.961 . S
C3039 C3036 1.539 . S
C3039 H3053 0.958 . S
C3039 H3054 0.961 . S
C3039 H3055 0.960 . S
H3040 C3024 0.931 . S
H3041 C3029 0.929 . S
H3042 C3030 0.960 . S
H3043 C3030 0.962 . S
H3044 C3030 0.960 1_545 S
H3045 C3031 0.961 . S
H3046 C3031 0.961 . S
H3047 C3031 0.961 . S
H3048 C3032 0.931 . S
H3049 C3037 0.930 . S
H3050 C3038 0.956 . S
H3051 C3038 0.961 . S
H3052 C3038 0.961 . S
H3053 C3039 0.958 . S
H3054 C3039 0.961 . S
H3055 C3039 0.960 . S
C3056 C3057 1.391 . S
C3056 C3058 1.394 . S
C3056 H3072 0.931 . S
C3057 C3056 1.391 . S
C3057 C3061 1.376 . S
C3058 C3056 1.394 . S
C3058 C3059 1.369 . S
C3058 C3062 1.531 . S
C3059 C3058 1.369 . S
C3059 C3060 1.410 . S
C3059 C3067 1.503 . S
C3060 C3059 1.410 . S
C3060 C3061 1.392 . S
C3060 C3063 1.511 . S
C3061 C3057 1.376 . S
C3061 C3060 1.392 . S
C3061 H3073 0.929 . S
C3062 C3058 1.531 . S
C3062 H3074 0.960 . S
C3062 H3075 0.962 . S
C3062 H3076 0.960 . S
C3063 C3060 1.511 . S
C3063 H3077 0.961 . S
C3063 H3078 0.961 . S
C3063 H3079 0.961 . S
C3064 C3065 1.370 . S
C3064 C3066 1.363 . S
C3064 H3080 0.931 . S
C3065 C3064 1.370 . S
C3065 C3069 1.408 . S
C3066 C3064 1.363 . S
C3066 C3067 1.370 . S
C3066 C3070 1.524 . S
C3067 C3059 1.503 . S
C3067 C3066 1.370 . S
C3067 C3068 1.403 . S
C3068 C3067 1.403 . S
C3068 C3069 1.404 . S
C3068 C3071 1.539 . S
C3069 C3065 1.408 . S
C3069 C3068 1.404 . S
C3069 H3081 0.930 . S
C3070 C3066 1.524 . S
C3070 H3082 0.956 . S
C3070 H3083 0.961 . S
C3070 H3084 0.961 . S
C3071 C3068 1.539 . S
C3071 H3085 0.958 . S
C3071 H3086 0.961 . S
C3071 H3087 0.960 . S
H3072 C3056 0.931 . S
H3073 C3061 0.929 . S
H3074 C3062 0.960 . S
H3075 C3062 0.962 . S
H3076 C3062 0.960 . S
H3077 C3063 0.961 . S
H3078 C3063 0.961 . S
H3079 C3063 0.961 . S
H3080 C3064 0.931 . S
H3081 C3069 0.930 . S
H3082 C3070 0.956 . S
H3083 C3070 0.961 . S
H3084 C3070 0.961 . S
H3085 C3071 0.958 . S
H3086 C3071 0.961 . S
H3087 C3071 0.960 . S
C3088 C3089 1.391 . S
C3088 C3090 1.394 . S
C3088 H3104 0.931 . S
C3089 C3088 1.391 . S
C3089 C3093 1.376 . S
C3090 C3088 1.394 . S
C3090 C3091 1.369 . S
C3090 C3094 1.531 . S
C3091 C3090 1.369 . S
C3091 C3092 1.410 . S
C3091 C3099 1.503 . S
C3092 C3091 1.410 . S
C3092 C3093 1.392 . S
C3092 C3095 1.511 . S
C3093 C3089 1.376 . S
C3093 C3092 1.392 . S
C3093 H3105 0.929 . S
C3094 C3090 1.531 . S
C3094 H3106 0.960 . S
C3094 H3107 0.962 . S
C3094 H3108 0.960 . S
C3095 C3092 1.511 . S
C3095 H3109 0.961 . S
C3095 H3110 0.961 . S
C3095 H3111 0.961 . S
C3096 C3097 1.370 . S
C3096 C3098 1.363 . S
C3096 H3112 0.931 . S
C3097 C3096 1.370 . S
C3097 C3101 1.408 . S
C3098 C3096 1.363 . S
C3098 C3099 1.370 . S
C3098 C3102 1.524 . S
C3099 C3091 1.503 . S
C3099 C3098 1.370 . S
C3099 C3100 1.403 . S
C3100 C3099 1.403 . S
C3100 C3101 1.404 . S
C3100 C3103 1.539 . S
C3101 C3097 1.408 . S
C3101 C3100 1.404 . S
C3101 H3113 0.930 . S
C3102 C3098 1.524 . S
C3102 H3114 0.956 . S
C3102 H3115 0.961 . S
C3102 H3116 0.961 . S
C3103 C3100 1.539 . S
C3103 H3117 0.958 . S
C3103 H3118 0.961 . S
C3103 H3119 0.960 . S
H3104 C3088 0.931 . S
H3105 C3093 0.929 . S
H3106 C3094 0.960 . S
H3107 C3094 0.962 . S
H3108 C3094 0.960 . S
H3109 C3095 0.961 . S
H3110 C3095 0.961 . S
H3111 C3095 0.961 . S
H3112 C3096 0.931 . S
H3113 C3101 0.930 . S
H3114 C3102 0.956 . S
H3115 C3102 0.961 . S
H3116 C3102 0.961 . S
H3117 C3103 0.958 . S
H3118 C3103 0.961 . S
H3119 C3103 0.960 . S
C3120 C3121 1.391 . S
C3120 C3122 1.394 . S
C3120 H3136 0.931 . S
C3121 C3120 1.391 . S
C3121 C3125 1.376 . S
C3122 C3120 1.394 . S
C3122 C3123 1.369 . S
C3122 C3126 1.531 . S
C3123 C3122 1.369 . S
C3123 C3124 1.410 . S
C3123 C3131 1.503 . S
C3124 C3123 1.410 . S
C3124 C3125 1.392 . S
C3124 C3127 1.511 . S
C3125 C3121 1.376 . S
C3125 C3124 1.392 . S
C3125 H3137 0.929 . S
C3126 C3122 1.531 . S
C3126 H3138 0.960 . S
C3126 H3139 0.962 . S
C3126 H3140 0.960 . S
C3127 C3124 1.511 . S
C3127 H3141 0.961 . S
C3127 H3142 0.961 . S
C3127 H3143 0.961 . S
C3128 C3129 1.370 . S
C3128 C3130 1.363 . S
C3128 H3144 0.931 . S
C3129 C3128 1.370 . S
C3129 C3133 1.408 . S
C3130 C3128 1.363 . S
C3130 C3131 1.370 . S
C3130 C3134 1.524 . S
C3131 C3123 1.503 . S
C3131 C3130 1.370 . S
C3131 C3132 1.403 . S
C3132 C3131 1.403 . S
C3132 C3133 1.404 . S
C3132 C3135 1.539 . S
C3133 C3129 1.408 . S
C3133 C3132 1.404 . S
C3133 H3145 0.930 . S
C3134 C3130 1.524 . S
C3134 H3146 0.956 . S
C3134 H3147 0.961 . S
C3134 H3148 0.961 . S
C3135 C3132 1.539 . S
C3135 H3149 0.958 . S
C3135 H3150 0.961 . S
C3135 H3151 0.960 . S
H3136 C3120 0.931 . S
H3137 C3125 0.929 . S
H3138 C3126 0.960 . S
H3139 C3126 0.962 . S
H3140 C3126 0.960 . S
H3141 C3127 0.961 . S
H3142 C3127 0.961 . S
H3143 C3127 0.961 . S
H3144 C3128 0.931 . S
H3145 C3133 0.930 . S
H3146 C3134 0.956 . S
H3147 C3134 0.961 . S
H3148 C3134 0.961 . S
H3149 C3135 0.958 . S
H3150 C3135 0.961 . S
H3151 C3135 0.960 . S
C3152 C3153 1.391 . S
C3152 C3154 1.394 . S
C3152 H3168 0.931 . S
C3153 C3152 1.391 . S
C3153 C3157 1.376 . S
C3154 C3152 1.394 . S
C3154 C3155 1.369 . S
C3154 C3158 1.531 . S
C3155 C3154 1.369 . S
C3155 C3156 1.410 . S
C3155 C3163 1.503 . S
C3156 C3155 1.410 . S
C3156 C3157 1.392 . S
C3156 C3159 1.511 . S
C3157 C3153 1.376 . S
C3157 C3156 1.392 . S
C3157 H3169 0.929 . S
C3158 C3154 1.531 . S
C3158 H3170 0.960 . S
C3158 H3171 0.962 . S
C3158 H3172 0.960 . S
C3159 C3156 1.511 . S
C3159 H3173 0.961 . S
C3159 H3174 0.961 . S
C3159 H3175 0.961 . S
C3160 C3161 1.370 . S
C3160 C3162 1.363 . S
C3160 H3176 0.931 . S
C3161 C3160 1.370 . S
C3161 C3165 1.408 . S
C3162 C3160 1.363 . S
C3162 C3163 1.370 . S
C3162 C3166 1.524 . S
C3163 C3155 1.503 . S
C3163 C3162 1.370 . S
C3163 C3164 1.403 . S
C3164 C3163 1.403 . S
C3164 C3165 1.404 . S
C3164 C3167 1.539 . S
C3165 C3161 1.408 . S
C3165 C3164 1.404 . S
C3165 H3177 0.930 . S
C3166 C3162 1.524 . S
C3166 H3178 0.956 . S
C3166 H3179 0.961 . S
C3166 H3180 0.961 . S
C3167 C3164 1.539 . S
C3167 H3181 0.958 . S
C3167 H3182 0.961 . S
C3167 H3183 0.960 . S
H3168 C3152 0.931 . S
H3169 C3157 0.929 . S
H3170 C3158 0.960 . S
H3171 C3158 0.962 . S
H3172 C3158 0.960 . S
H3173 C3159 0.961 . S
H3174 C3159 0.961 . S
H3175 C3159 0.961 . S
H3176 C3160 0.931 . S
H3177 C3165 0.930 . S
H3178 C3166 0.956 . S
H3179 C3166 0.961 . S
H3180 C3166 0.961 . S
H3181 C3167 0.958 . S
H3182 C3167 0.961 . S
H3183 C3167 0.960 . S
C3184 C3185 1.391 . S
C3184 C3186 1.394 . S
C3184 H3200 0.956 . S
C3185 C3184 1.391 . S
C3185 C3189 1.376 . S
C3186 C3184 1.394 . S
C3186 C3187 1.369 . S
C3186 C3190 1.531 . S
C3187 C3186 1.369 . S
C3187 C3188 1.410 . S
C3187 C3195 1.503 . S
C3188 C3187 1.410 . S
C3188 C3189 1.392 . S
C3188 C3191 1.511 . S
C3189 C3185 1.376 . S
C3189 C3188 1.392 . S
C3189 H3201 0.929 . S
C3190 C3186 1.531 . S
C3190 H3202 0.960 . S
C3190 H3203 0.962 . S
C3190 H3204 0.960 . S
C3191 C3188 1.511 . S
C3191 H3205 0.961 . S
C3191 H3206 0.961 . S
C3191 H3207 0.961 . S
C3192 C3193 1.370 . S
C3192 C3194 1.363 . S
C3192 H3208 0.931 . S
C3193 C3192 1.370 . S
C3193 C3197 1.408 . S
C3194 C3192 1.363 . S
C3194 C3195 1.370 . S
C3194 C3198 1.524 . S
C3195 C3187 1.503 . S
C3195 C3194 1.370 . S
C3195 C3196 1.403 . S
C3196 C3195 1.403 . S
C3196 C3197 1.404 . S
C3196 C3199 1.539 . S
C3197 C3193 1.408 . S
C3197 C3196 1.404 . S
C3197 H3209 0.930 . S
C3198 C3194 1.524 . S
C3198 H3210 0.956 . S
C3198 H3211 0.961 . S
C3198 H3212 0.961 . S
C3199 C3196 1.539 . S
C3199 H3213 0.958 . S
C3199 H3214 0.961 . S
C3199 H3215 0.960 . S
H3200 C3184 0.956 . S
H3201 C3189 0.929 . S
H3202 C3190 0.960 . S
H3203 C3190 0.962 . S
H3204 C3190 0.960 . S
H3205 C3191 0.961 . S
H3206 C3191 0.961 . S
H3207 C3191 0.961 . S
H3208 C3192 0.931 . S
H3209 C3197 0.930 . S
H3210 C3198 0.956 . S
H3211 C3198 0.961 . S
H3212 C3198 0.961 . S
H3213 C3199 0.958 . S
H3214 C3199 0.961 . S
H3215 C3199 0.960 . S
C3216 C3217 1.391 . S
C3216 C3218 1.394 . S
C3216 H3232 0.931 . S
C3217 C3216 1.391 . S
C3217 C3221 1.376 . S
C3218 C3216 1.394 . S
C3218 C3219 1.369 . S
C3218 C3222 1.531 . S
C3219 C3218 1.369 . S
C3219 C3220 1.410 . S
C3219 C3227 1.503 . S
C3220 C3219 1.410 . S
C3220 C3221 1.392 . S
C3220 C3223 1.526 . S
C3221 C3217 1.376 . S
C3221 C3220 1.392 . S
C3221 H3233 0.929 . S
C3222 C3218 1.531 . S
C3222 H3234 0.960 . S
C3222 H3235 0.962 . S
C3222 H3236 0.960 . S
C3223 C3220 1.526 . S
C3223 H3237 0.959 1_455 S
C3223 H3238 0.955 . S
C3223 H3239 0.954 1_455 S
C3224 C3225 1.370 . S
C3224 C3226 1.363 . S
C3224 H3240 0.931 . S
C3225 C3224 1.370 . S
C3225 C3229 1.408 . S
C3226 C3224 1.363 . S
C3226 C3227 1.370 . S
C3226 C3230 1.524 . S
C3227 C3219 1.503 . S
C3227 C3226 1.370 . S
C3227 C3228 1.403 . S
C3228 C3227 1.403 . S
C3228 C3229 1.404 . S
C3228 C3231 1.539 . S
C3229 C3225 1.408 . S
C3229 C3228 1.404 . S
C3229 H3241 0.930 . S
C3230 C3226 1.524 . S
C3230 H3242 0.956 . S
C3230 H3243 0.961 . S
C3230 H3244 0.961 . S
C3231 C3228 1.539 . S
C3231 H3245 0.958 . S
C3231 H3246 0.961 1_455 S
C3231 H3247 0.960 . S
H3232 C3216 0.931 . S
H3233 C3221 0.929 . S
H3234 C3222 0.960 . S
H3235 C3222 0.962 . S
H3236 C3222 0.960 . S
H3237 C3223 0.959 1_655 S
H3238 C3223 0.955 . S
H3239 C3223 0.954 1_655 S
H3240 C3224 0.931 . S
H3241 C3229 0.930 . S
H3242 C3230 0.956 . S
H3243 C3230 0.961 . S
H3244 C3230 0.961 . S
H3245 C3231 0.958 . S
H3246 C3231 0.961 1_655 S
H3247 C3231 0.960 . S
C3248 C3249 1.391 . S
C3248 C3250 1.394 . S
C3248 H3264 0.931 . S
C3249 C3248 1.391 . S
C3249 C3253 1.376 . S
C3250 C3248 1.394 . S
C3250 C3251 1.369 . S
C3250 C3254 1.531 . S
C3251 C3250 1.369 . S
C3251 C3252 1.410 . S
C3251 C3259 1.503 . S
C3252 C3251 1.410 . S
C3252 C3253 1.392 . S
C3252 C3255 1.511 . S
C3253 C3249 1.376 . S
C3253 C3252 1.392 . S
C3253 H3265 0.929 . S
C3254 C3250 1.531 . S
C3254 H3266 0.960 . S
C3254 H3267 0.962 . S
C3254 H3268 0.960 . S
C3255 C3252 1.511 . S
C3255 H3269 0.961 . S
C3255 H3270 0.961 . S
C3255 H3271 0.961 . S
C3256 C3257 1.370 . S
C3256 C3258 1.363 . S
C3256 H3272 0.931 . S
C3257 C3256 1.370 . S
C3257 C3261 1.408 . S
C3258 C3256 1.363 . S
C3258 C3259 1.370 . S
C3258 C3262 1.524 . S
C3259 C3251 1.503 . S
C3259 C3258 1.370 . S
C3259 C3260 1.403 . S
C3260 C3259 1.403 . S
C3260 C3261 1.404 . S
C3260 C3263 1.539 . S
C3261 C3257 1.408 . S
C3261 C3260 1.404 . S
C3261 H3273 0.930 . S
C3262 C3258 1.524 . S
C3262 H3274 0.956 . S
C3262 H3275 0.961 . S
C3262 H3276 0.961 . S
C3263 C3260 1.539 . S
C3263 H3277 0.958 . S
C3263 H3278 0.961 . S
C3263 H3279 0.960 . S
H3264 C3248 0.931 . S
H3265 C3253 0.929 . S
H3266 C3254 0.960 . S
H3267 C3254 0.962 . S
H3268 C3254 0.960 . S
H3269 C3255 0.961 . S
H3270 C3255 0.961 . S
H3271 C3255 0.961 . S
H3272 C3256 0.931 . S
H3273 C3261 0.930 . S
H3274 C3262 0.956 . S
H3275 C3262 0.961 . S
H3276 C3262 0.961 . S
H3277 C3263 0.958 . S
H3278 C3263 0.961 . S
H3279 C3263 0.960 . S
C3280 C3281 1.391 . S
C3280 C3282 1.394 . S
C3280 H3296 0.931 . S
C3281 C3280 1.391 . S
C3281 C3285 1.376 . S
C3282 C3280 1.394 . S
C3282 C3283 1.369 . S
C3282 C3286 1.531 . S
C3283 C3282 1.369 . S
C3283 C3284 1.410 . S
C3283 C3291 1.503 . S
C3284 C3283 1.410 . S
C3284 C3285 1.392 . S
C3284 C3287 1.511 . S
C3285 C3281 1.376 . S
C3285 C3284 1.392 . S
C3285 H3297 0.929 . S
C3286 C3282 1.531 . S
C3286 H3298 0.960 . S
C3286 H3299 0.962 . S
C3286 H3300 0.960 . S
C3287 C3284 1.511 . S
C3287 H3301 0.961 . S
C3287 H3302 0.961 . S
C3287 H3303 0.974 . S
C3288 C3289 1.370 . S
C3288 C3290 1.363 . S
C3288 H3304 0.931 . S
C3289 C3288 1.370 . S
C3289 C3293 1.408 . S
C3290 C3288 1.363 . S
C3290 C3291 1.370 . S
C3290 C3294 1.524 . S
C3291 C3283 1.503 . S
C3291 C3290 1.370 . S
C3291 C3292 1.403 . S
C3292 C3291 1.403 . S
C3292 C3293 1.404 . S
C3292 C3295 1.539 1_565 S
C3293 C3289 1.408 . S
C3293 C3292 1.404 . S
C3293 H3305 0.930 1_565 S
C3294 C3290 1.524 . S
C3294 H3306 0.956 . S
C3294 H3307 0.961 . S
C3294 H3308 0.961 . S
C3295 C3292 1.539 1_545 S
C3295 H3309 0.958 . S
C3295 H3310 0.961 . S
C3295 H3311 0.960 . S
H3296 C3280 0.931 . S
H3297 C3285 0.929 . S
H3298 C3286 0.960 . S
H3299 C3286 0.962 . S
H3300 C3286 0.960 . S
H3301 C3287 0.961 . S
H3302 C3287 0.961 . S
H3303 C3287 0.974 . S
H3304 C3288 0.931 . S
H3305 C3293 0.930 1_545 S
H3306 C3294 0.956 . S
H3307 C3294 0.961 . S
H3308 C3294 0.961 . S
H3309 C3295 0.958 . S
H3310 C3295 0.961 . S
H3311 C3295 0.960 . S
C3312 C3313 1.391 . S
C3312 C3314 1.394 . S
C3312 H3328 0.947 . S
C3313 C3312 1.391 . S
C3313 C3317 1.376 . S
C3314 C3312 1.394 . S
C3314 C3315 1.369 . S
C3314 C3318 1.531 1_565 S
C3315 C3314 1.369 . S
C3315 C3316 1.410 . S
C3315 C3323 1.503 . S
C3316 C3315 1.410 . S
C3316 C3317 1.392 . S
C3316 C3319 1.511 . S
C3317 C3313 1.376 . S
C3317 C3316 1.392 . S
C3317 H3329 0.929 . S
C3318 C3314 1.531 1_545 S
C3318 H3330 0.960 . S
C3318 H3331 0.962 . S
C3318 H3332 0.960 . S
C3319 C3316 1.511 . S
C3319 H3333 0.961 . S
C3319 H3334 0.961 . S
C3319 H3335 0.961 . S
C3320 C3321 1.372 . S
C3320 C3322 1.363 . S
C3320 H3336 0.889 1_565 S
C3321 C3320 1.372 . S
C3321 C3325 1.420 . S
C3322 C3320 1.363 . S
C3322 C3323 1.370 . S
C3322 C3326 1.524 . S
C3323 C3315 1.503 . S
C3323 C3322 1.370 . S
C3323 C3324 1.403 . S
C3324 C3323 1.403 . S
C3324 C3325 1.404 . S
C3324 C3327 1.539 . S
C3325 C3321 1.420 . S
C3325 C3324 1.404 . S
C3325 H3337 0.930 . S
C3326 C3322 1.524 . S
C3326 H3338 0.973 . S
C3326 H3339 0.961 . S
C3326 H3340 0.961 . S
C3327 C3324 1.539 . S
C3327 H3341 0.958 . S
C3327 H3342 0.961 . S
C3327 H3343 0.960 . S
H3328 C3312 0.947 . S
H3329 C3317 0.929 . S
H3330 C3318 0.960 . S
H3331 C3318 0.962 . S
H3332 C3318 0.960 . S
H3333 C3319 0.961 . S
H3334 C3319 0.961 . S
H3335 C3319 0.961 . S
H3336 C3320 0.889 1_545 S
H3337 C3325 0.930 . S
H3338 C3326 0.973 . S
H3339 C3326 0.961 . S
H3340 C3326 0.961 . S
H3341 C3327 0.958 . S
H3342 C3327 0.961 . S
H3343 C3327 0.960 . S
C3344 C3345 1.391 . S
C3344 C3346 1.394 . S
C3344 H3360 0.931 . S
C3345 C3344 1.391 . S
C3345 C3349 1.376 . S
C3346 C3344 1.394 . S
C3346 C3347 1.369 . S
C3346 C3350 1.531 . S
C3347 C3346 1.369 . S
C3347 C3348 1.410 . S
C3347 C3355 1.503 . S
C3348 C3347 1.410 . S
C3348 C3349 1.392 . S
C3348 C3351 1.511 . S
C3349 C3345 1.376 . S
C3349 C3348 1.392 . S
C3349 H3361 0.929 . S
C3350 C3346 1.531 . S
C3350 H3362 0.960 . S
C3350 H3363 0.962 . S
C3350 H3364 0.960 . S
C3351 C3348 1.511 . S
C3351 H3365 0.961 . S
C3351 H3366 0.961 . S
C3351 H3367 0.961 1_455 S
C3352 C3353 1.370 1_455 S
C3352 C3354 1.363 . S
C3352 H3368 0.931 . S
C3353 C3352 1.370 1_655 S
C3353 C3357 1.408 . S
C3354 C3352 1.363 . S
C3354 C3355 1.370 . S
C3354 C3358 1.524 . S
C3355 C3347 1.503 . S
C3355 C3354 1.370 . S
C3355 C3356 1.403 1_455 S
C3356 C3355 1.403 1_655 S
C3356 C3357 1.404 . S
C3356 C3359 1.539 . S
C3357 C3353 1.408 . S
C3357 C3356 1.404 . S
C3357 H3369 0.930 . S
C3358 C3354 1.524 . S
C3358 H3370 0.956 . S
C3358 H3371 0.961 . S
C3358 H3372 0.961 . S
C3359 C3356 1.539 . S
C3359 H3373 0.958 . S
C3359 H3374 0.961 . S
C3359 H3375 0.960 . S
H3360 C3344 0.931 . S
H3361 C3349 0.929 . S
H3362 C3350 0.960 . S
H3363 C3350 0.962 . S
H3364 C3350 0.960 . S
H3365 C3351 0.961 . S
H3366 C3351 0.961 . S
H3367 C3351 0.961 1_655 S
H3368 C3352 0.931 . S
H3369 C3357 0.930 . S
H3370 C3358 0.956 . S
H3371 C3358 0.961 . S
H3372 C3358 0.961 . S
H3373 C3359 0.958 . S
H3374 C3359 0.961 . S
H3375 C3359 0.960 . S
C3376 C3377 1.391 . S
C3376 C3378 1.394 . S
C3376 H3392 0.931 . S
C3377 C3376 1.391 . S
C3377 C3381 1.376 . S
C3378 C3376 1.394 . S
C3378 C3379 1.369 . S
C3378 C3382 1.531 . S
C3379 C3378 1.369 . S
C3379 C3380 1.410 . S
C3379 C3387 1.503 . S
C3380 C3379 1.410 . S
C3380 C3381 1.392 . S
C3380 C3383 1.511 . S
C3381 C3377 1.376 . S
C3381 C3380 1.392 . S
C3381 H3393 0.929 . S
C3382 C3378 1.531 . S
C3382 H3394 0.960 . S
C3382 H3395 0.962 . S
C3382 H3396 0.960 . S
C3383 C3380 1.511 . S
C3383 H3397 0.961 . S
C3383 H3398 0.961 . S
C3383 H3399 0.961 . S
C3384 C3385 1.370 . S
C3384 C3386 1.363 . S
C3384 H3400 0.931 . S
C3385 C3384 1.370 . S
C3385 C3389 1.408 . S
C3386 C3384 1.363 . S
C3386 C3387 1.370 . S
C3386 C3390 1.524 . S
C3387 C3379 1.503 . S
C3387 C3386 1.370 . S
C3387 C3388 1.403 . S
C3388 C3387 1.403 . S
C3388 C3389 1.404 . S
C3388 C3391 1.539 . S
C3389 C3385 1.408 . S
C3389 C3388 1.404 . S
C3389 H3401 0.930 . S
C3390 C3386 1.524 . S
C3390 H3402 0.956 . S
C3390 H3403 0.961 . S
C3390 H3404 0.961 . S
C3391 C3388 1.539 . S
C3391 H3405 0.958 . S
C3391 H3406 0.961 . S
C3391 H3407 0.960 . S
H3392 C3376 0.931 . S
H3393 C3381 0.929 . S
H3394 C3382 0.960 . S
H3395 C3382 0.962 . S
H3396 C3382 0.960 . S
H3397 C3383 0.961 . S
H3398 C3383 0.961 . S
H3399 C3383 0.961 . S
H3400 C3384 0.931 . S
H3401 C3389 0.930 . S
H3402 C3390 0.956 . S
H3403 C3390 0.961 . S
H3404 C3390 0.961 . S
H3405 C3391 0.958 . S
H3406 C3391 0.961 . S
H3407 C3391 0.960 . S
C3408 C3409 1.391 . S
C3408 C3410 1.394 . S
C3408 H3424 0.931 . S
C3409 C3408 1.391 . S
C3409 C3413 1.376 . S
C3410 C3408 1.394 . S
C3410 C3411 1.369 . S
C3410 C3414 1.531 . S
C3411 C3410 1.369 . S
C3411 C3412 1.410 . S
C3411 C3419 1.503 . S
C3412 C3411 1.410 . S
C3412 C3413 1.392 . S
C3412 C3415 1.511 . S
C3413 C3409 1.376 . S
C3413 C3412 1.392 . S
C3413 H3425 0.929 . S
C3414 C3410 1.531 . S
C3414 H3426 0.960 . S
C3414 H3427 0.962 . S
C3414 H3428 0.960 . S
C3415 C3412 1.511 . S
C3415 H3429 0.961 . S
C3415 H3430 0.961 . S
C3415 H3431 0.961 . S
C3416 C3417 1.370 . S
C3416 C3418 1.363 . S
C3416 H3432 0.931 . S
C3417 C3416 1.370 . S
C3417 C3421 1.408 . S
C3418 C3416 1.363 . S
C3418 C3419 1.370 . S
C3418 C3422 1.524 . S
C3419 C3411 1.503 . S
C3419 C3418 1.370 . S
C3419 C3420 1.403 . S
C3420 C3419 1.403 . S
C3420 C3421 1.404 . S
C3420 C3423 1.539 . S
C3421 C3417 1.408 . S
C3421 C3420 1.404 . S
C3421 H3433 0.930 . S
C3422 C3418 1.524 . S
C3422 H3434 0.956 . S
C3422 H3435 0.961 . S
C3422 H3436 0.961 . S
C3423 C3420 1.539 . S
C3423 H3437 0.958 . S
C3423 H3438 0.961 . S
C3423 H3439 0.960 . S
H3424 C3408 0.931 . S
H3425 C3413 0.929 . S
H3426 C3414 0.960 . S
H3427 C3414 0.962 . S
H3428 C3414 0.960 . S
H3429 C3415 0.961 . S
H3430 C3415 0.961 . S
H3431 C3415 0.961 . S
H3432 C3416 0.931 . S
H3433 C3421 0.930 . S
H3434 C3422 0.956 . S
H3435 C3422 0.961 . S
H3436 C3422 0.961 . S
H3437 C3423 0.958 . S
H3438 C3423 0.961 . S
H3439 C3423 0.960 . S
C3440 C3441 1.391 . S
C3440 C3442 1.394 . S
C3440 H3456 0.931 . S
C3441 C3440 1.391 . S
C3441 C3445 1.376 . S
C3442 C3440 1.394 . S
C3442 C3443 1.369 . S
C3442 C3446 1.531 . S
C3443 C3442 1.369 . S
C3443 C3444 1.410 . S
C3443 C3451 1.503 . S
C3444 C3443 1.410 . S
C3444 C3445 1.392 . S
C3444 C3447 1.511 . S
C3445 C3441 1.376 . S
C3445 C3444 1.392 . S
C3445 H3457 0.929 . S
C3446 C3442 1.531 . S
C3446 H3458 0.960 . S
C3446 H3459 0.962 . S
C3446 H3460 0.960 . S
C3447 C3444 1.511 . S
C3447 H3461 0.961 . S
C3447 H3462 0.961 . S
C3447 H3463 0.961 . S
C3448 C3449 1.370 . S
C3448 C3450 1.363 . S
C3448 H3464 0.931 . S
C3449 C3448 1.370 . S
C3449 C3453 1.408 . S
C3450 C3448 1.363 . S
C3450 C3451 1.370 . S
C3450 C3454 1.524 . S
C3451 C3443 1.503 . S
C3451 C3450 1.370 . S
C3451 C3452 1.403 . S
C3452 C3451 1.403 . S
C3452 C3453 1.404 . S
C3452 C3455 1.539 . S
C3453 C3449 1.408 . S
C3453 C3452 1.404 . S
C3453 H3465 0.930 . S
C3454 C3450 1.524 . S
C3454 H3466 0.956 . S
C3454 H3467 0.961 . S
C3454 H3468 0.961 . S
C3455 C3452 1.539 . S
C3455 H3469 0.958 . S
C3455 H3470 0.961 . S
C3455 H3471 0.960 . S
H3456 C3440 0.931 . S
H3457 C3445 0.929 . S
H3458 C3446 0.960 . S
H3459 C3446 0.962 . S
H3460 C3446 0.960 . S
H3461 C3447 0.961 . S
H3462 C3447 0.961 . S
H3463 C3447 0.961 . S
H3464 C3448 0.931 . S
H3465 C3453 0.930 . S
H3466 C3454 0.956 . S
H3467 C3454 0.961 . S
H3468 C3454 0.961 . S
H3469 C3455 0.958 . S
H3470 C3455 0.961 . S
H3471 C3455 0.960 . S
C3472 C3473 1.391 . S
C3472 C3474 1.394 . S
C3472 H3488 0.931 . S
C3473 C3472 1.391 . S
C3473 C3477 1.376 . S
C3474 C3472 1.394 . S
C3474 C3475 1.369 . S
C3474 C3478 1.531 . S
C3475 C3474 1.369 . S
C3475 C3476 1.410 . S
C3475 C3483 1.503 . S
C3476 C3475 1.410 . S
C3476 C3477 1.392 . S
C3476 C3479 1.511 . S
C3477 C3473 1.376 . S
C3477 C3476 1.392 . S
C3477 H3489 0.929 . S
C3478 C3474 1.531 . S
C3478 H3490 0.960 . S
C3478 H3491 0.962 . S
C3478 H3492 0.960 . S
C3479 C3476 1.511 . S
C3479 H3493 0.961 . S
C3479 H3494 0.961 . S
C3479 H3495 0.961 . S
C3480 C3481 1.370 . S
C3480 C3482 1.363 . S
C3480 H3496 0.931 . S
C3481 C3480 1.370 . S
C3481 C3485 1.408 . S
C3482 C3480 1.363 . S
C3482 C3483 1.370 . S
C3482 C3486 1.524 . S
C3483 C3475 1.503 . S
C3483 C3482 1.370 . S
C3483 C3484 1.403 . S
C3484 C3483 1.403 . S
C3484 C3485 1.404 . S
C3484 C3487 1.539 . S
C3485 C3481 1.408 . S
C3485 C3484 1.404 . S
C3485 H3497 0.930 . S
C3486 C3482 1.524 . S
C3486 H3498 0.956 . S
C3486 H3499 0.961 . S
C3486 H3500 0.961 . S
C3487 C3484 1.539 . S
C3487 H3501 0.958 . S
C3487 H3502 0.961 . S
C3487 H3503 0.960 . S
H3488 C3472 0.931 . S
H3489 C3477 0.929 . S
H3490 C3478 0.960 . S
H3491 C3478 0.962 . S
H3492 C3478 0.960 . S
H3493 C3479 0.961 . S
H3494 C3479 0.961 . S
H3495 C3479 0.961 . S
H3496 C3480 0.931 . S
H3497 C3485 0.930 . S
H3498 C3486 0.956 . S
H3499 C3486 0.961 . S
H3500 C3486 0.961 . S
H3501 C3487 0.958 . S
H3502 C3487 0.961 . S
H3503 C3487 0.960 . S
C3504 C3505 1.391 . S
C3504 C3506 1.394 . S
C3504 H3520 0.931 . S
C3505 C3504 1.391 . S
C3505 C3509 1.376 . S
C3506 C3504 1.394 . S
C3506 C3507 1.369 . S
C3506 C3510 1.531 . S
C3507 C3506 1.369 . S
C3507 C3508 1.410 . S
C3507 C3515 1.503 . S
C3508 C3507 1.410 . S
C3508 C3509 1.392 . S
C3508 C3511 1.511 . S
C3509 C3505 1.376 . S
C3509 C3508 1.392 . S
C3509 H3521 0.929 . S
C3510 C3506 1.531 . S
C3510 H3522 0.960 . S
C3510 H3523 0.962 . S
C3510 H3524 0.960 . S
C3511 C3508 1.511 . S
C3511 H3525 0.961 . S
C3511 H3526 0.961 . S
C3511 H3527 0.961 . S
C3512 C3513 1.370 . S
C3512 C3514 1.363 . S
C3512 H3528 0.931 . S
C3513 C3512 1.370 . S
C3513 C3517 1.408 1_545 S
C3514 C3512 1.363 . S
C3514 C3515 1.370 . S
C3514 C3518 1.524 . S
C3515 C3507 1.503 . S
C3515 C3514 1.370 . S
C3515 C3516 1.428 . S
C3516 C3515 1.428 . S
C3516 C3517 1.389 1_545 S
C3516 C3519 1.527 1_545 S
C3517 C3513 1.408 1_565 S
C3517 C3516 1.389 1_565 S
C3517 H3529 0.930 . S
C3518 C3514 1.524 . S
C3518 H3530 0.956 . S
C3518 H3531 0.961 . S
C3518 H3532 0.961 . S
C3519 C3516 1.527 1_565 S
C3519 H3533 0.958 . S
C3519 H3534 0.961 . S
C3519 H3535 0.960 . S
H3520 C3504 0.931 . S
H3521 C3509 0.929 . S
H3522 C3510 0.960 . S
H3523 C3510 0.962 . S
H3524 C3510 0.960 . S
H3525 C3511 0.961 . S
H3526 C3511 0.961 . S
H3527 C3511 0.961 . S
H3528 C3512 0.931 . S
H3529 C3517 0.930 . S
H3530 C3518 0.956 . S
H3531 C3518 0.961 . S
H3532 C3518 0.961 . S
H3533 C3519 0.958 . S
H3534 C3519 0.961 . S
H3535 C3519 0.960 . S
C3536 C3537 1.391 . S
C3536 C3538 1.394 . S
C3536 H3552 0.931 . S
C3537 C3536 1.391 . S
C3537 C3541 1.376 . S
C3538 C3536 1.394 . S
C3538 C3539 1.369 . S
C3538 C3542 1.531 1_655 S
C3539 C3538 1.369 . S
C3539 C3540 1.410 . S
C3539 C3547 1.503 . S
C3540 C3539 1.410 . S
C3540 C3541 1.392 . S
C3540 C3543 1.511 . S
C3541 C3537 1.376 . S
C3541 C3540 1.392 . S
C3541 H3553 0.929 . S
C3542 C3538 1.531 1_455 S
C3542 H3554 0.960 . S
C3542 H3555 0.962 . S
C3542 H3556 0.960 . S
C3543 C3540 1.511 . S
C3543 H3557 0.961 . S
C3543 H3558 0.961 . S
C3543 H3559 0.961 . S
C3544 C3545 1.370 . S
C3544 C3546 1.363 . S
C3544 H3560 0.931 . S
C3545 C3544 1.370 . S
C3545 C3549 1.408 . S
C3546 C3544 1.363 . S
C3546 C3547 1.370 . S
C3546 C3550 1.524 . S
C3547 C3539 1.503 . S
C3547 C3546 1.370 . S
C3547 C3548 1.403 . S
C3548 C3547 1.403 . S
C3548 C3549 1.404 . S
C3548 C3551 1.539 . S
C3549 C3545 1.408 . S
C3549 C3548 1.404 . S
C3549 H3561 0.930 . S
C3550 C3546 1.524 . S
C3550 H3562 0.956 . S
C3550 H3563 0.961 . S
C3550 H3564 0.961 . S
C3551 C3548 1.539 . S
C3551 H3565 0.958 . S
C3551 H3566 0.961 . S
C3551 H3567 0.960 . S
H3552 C3536 0.931 . S
H3553 C3541 0.929 . S
H3554 C3542 0.960 . S
H3555 C3542 0.962 . S
H3556 C3542 0.960 . S
H3557 C3543 0.961 . S
H3558 C3543 0.961 . S
H3559 C3543 0.961 . S
H3560 C3544 0.931 . S
H3561 C3549 0.930 . S
H3562 C3550 0.956 . S
H3563 C3550 0.961 . S
H3564 C3550 0.961 . S
H3565 C3551 0.958 . S
H3566 C3551 0.961 . S
H3567 C3551 0.960 . S
C3568 C3569 1.391 . S
C3568 C3570 1.394 . S
C3568 H3584 0.931 . S
C3569 C3568 1.391 . S
C3569 C3573 1.376 . S
C3570 C3568 1.394 . S
C3570 C3571 1.369 . S
C3570 C3574 1.531 . S
C3571 C3570 1.369 . S
C3571 C3572 1.410 . S
C3571 C3579 1.503 . S
C3572 C3571 1.410 . S
C3572 C3573 1.392 . S
C3572 C3575 1.511 . S
C3573 C3569 1.376 . S
C3573 C3572 1.392 . S
C3573 H3585 0.929 . S
C3574 C3570 1.531 . S
C3574 H3586 0.960 . S
C3574 H3587 0.962 . S
C3574 H3588 0.960 . S
C3575 C3572 1.511 . S
C3575 H3589 0.961 . S
C3575 H3590 0.961 . S
C3575 H3591 0.961 . S
C3576 C3577 1.370 . S
C3576 C3578 1.363 . S
C3576 H3592 0.931 . S
C3577 C3576 1.370 . S
C3577 C3581 1.408 . S
C3578 C3576 1.363 . S
C3578 C3579 1.370 . S
C3578 C3582 1.524 . S
C3579 C3571 1.503 . S
C3579 C3578 1.370 . S
C3579 C3580 1.403 . S
C3580 C3579 1.403 . S
C3580 C3581 1.404 . S
C3580 C3583 1.539 . S
C3581 C3577 1.408 . S
C3581 C3580 1.404 . S
C3581 H3593 0.930 . S
C3582 C3578 1.524 . S
C3582 H3594 0.956 . S
C3582 H3595 0.961 . S
C3582 H3596 0.961 . S
C3583 C3580 1.539 . S
C3583 H3597 0.958 . S
C3583 H3598 0.961 . S
C3583 H3599 0.960 . S
H3584 C3568 0.931 . S
H3585 C3573 0.929 . S
H3586 C3574 0.960 . S
H3587 C3574 0.962 . S
H3588 C3574 0.960 . S
H3589 C3575 0.961 . S
H3590 C3575 0.961 . S
H3591 C3575 0.961 . S
H3592 C3576 0.931 . S
H3593 C3581 0.930 . S
H3594 C3582 0.956 . S
H3595 C3582 0.961 . S
H3596 C3582 0.961 . S
H3597 C3583 0.958 . S
H3598 C3583 0.961 . S
H3599 C3583 0.960 . S
C3600 C3601 1.391 . S
C3600 C3602 1.394 . S
C3600 H3616 0.931 . S
C3601 C3600 1.391 . S
C3601 C3605 1.376 . S
C3602 C3600 1.394 . S
C3602 C3603 1.369 . S
C3602 C3606 1.531 . S
C3603 C3602 1.369 . S
C3603 C3604 1.410 . S
C3603 C3611 1.503 . S
C3604 C3603 1.410 . S
C3604 C3605 1.392 . S
C3604 C3607 1.511 . S
C3605 C3601 1.376 . S
C3605 C3604 1.392 . S
C3605 H3617 0.929 . S
C3606 C3602 1.531 . S
C3606 H3618 0.960 . S
C3606 H3619 0.962 . S
C3606 H3620 0.960 . S
C3607 C3604 1.511 . S
C3607 H3621 0.961 . S
C3607 H3622 0.961 . S
C3607 H3623 0.961 . S
C3608 C3609 1.370 . S
C3608 C3610 1.363 . S
C3608 H3624 0.931 . S
C3609 C3608 1.370 . S
C3609 C3613 1.408 . S
C3610 C3608 1.363 . S
C3610 C3611 1.370 . S
C3610 C3614 1.524 . S
C3611 C3603 1.503 . S
C3611 C3610 1.370 . S
C3611 C3612 1.403 . S
C3612 C3611 1.403 . S
C3612 C3613 1.404 . S
C3612 C3615 1.539 . S
C3613 C3609 1.408 . S
C3613 C3612 1.404 . S
C3613 H3625 0.930 . S
C3614 C3610 1.524 . S
C3614 H3626 0.956 . S
C3614 H3627 0.961 . S
C3614 H3628 0.961 . S
C3615 C3612 1.539 . S
C3615 H3629 0.958 . S
C3615 H3630 0.961 . S
C3615 H3631 0.960 . S
H3616 C3600 0.931 . S
H3617 C3605 0.929 . S
H3618 C3606 0.960 . S
H3619 C3606 0.962 . S
H3620 C3606 0.960 . S
H3621 C3607 0.961 . S
H3622 C3607 0.961 . S
H3623 C3607 0.961 . S
H3624 C3608 0.931 . S
H3625 C3613 0.930 . S
H3626 C3614 0.956 . S
H3627 C3614 0.961 . S
H3628 C3614 0.961 . S
H3629 C3615 0.958 . S
H3630 C3615 0.961 . S
H3631 C3615 0.960 . S
C3632 C3633 1.391 . S
C3632 C3634 1.394 . S
C3632 H3648 0.931 . S
C3633 C3632 1.391 . S
C3633 C3637 1.376 . S
C3634 C3632 1.394 . S
C3634 C3635 1.369 . S
C3634 C3638 1.531 . S
C3635 C3634 1.369 . S
C3635 C3636 1.410 . S
C3635 C3643 1.503 . S
C3636 C3635 1.410 . S
C3636 C3637 1.392 . S
C3636 C3639 1.511 . S
C3637 C3633 1.376 . S
C3637 C3636 1.392 . S
C3637 H3649 0.929 . S
C3638 C3634 1.531 . S
C3638 H3650 0.960 . S
C3638 H3651 0.962 . S
C3638 H3652 0.960 . S
C3639 C3636 1.511 . S
C3639 H3653 0.961 . S
C3639 H3654 0.961 . S
C3639 H3655 0.961 . S
C3640 C3641 1.370 . S
C3640 C3642 1.363 . S
C3640 H3656 0.931 . S
C3641 C3640 1.370 . S
C3641 C3645 1.408 . S
C3642 C3640 1.363 . S
C3642 C3643 1.370 . S
C3642 C3646 1.524 . S
C3643 C3635 1.503 . S
C3643 C3642 1.370 . S
C3643 C3644 1.403 . S
C3644 C3643 1.403 . S
C3644 C3645 1.404 . S
C3644 C3647 1.539 . S
C3645 C3641 1.408 . S
C3645 C3644 1.404 . S
C3645 H3657 0.930 . S
C3646 C3642 1.524 . S
C3646 H3658 0.956 . S
C3646 H3659 0.961 . S
C3646 H3660 0.961 . S
C3647 C3644 1.539 . S
C3647 H3661 0.958 . S
C3647 H3662 0.961 . S
C3647 H3663 0.960 . S
H3648 C3632 0.931 . S
H3649 C3637 0.929 . S
H3650 C3638 0.960 . S
H3651 C3638 0.962 . S
H3652 C3638 0.960 . S
H3653 C3639 0.961 . S
H3654 C3639 0.961 . S
H3655 C3639 0.961 . S
H3656 C3640 0.931 . S
H3657 C3645 0.930 . S
H3658 C3646 0.956 . S
H3659 C3646 0.961 . S
H3660 C3646 0.961 . S
H3661 C3647 0.958 . S
H3662 C3647 0.961 . S
H3663 C3647 0.960 . S
C3664 C3665 1.391 . S
C3664 C3666 1.394 . S
C3664 H3680 0.931 . S
C3665 C3664 1.391 . S
C3665 C3669 1.376 . S
C3666 C3664 1.394 . S
C3666 C3667 1.369 . S
C3666 C3670 1.531 . S
C3667 C3666 1.369 . S
C3667 C3668 1.410 . S
C3667 C3675 1.503 . S
C3668 C3667 1.410 . S
C3668 C3669 1.392 . S
C3668 C3671 1.511 . S
C3669 C3665 1.376 . S
C3669 C3668 1.392 . S
C3669 H3681 0.929 . S
C3670 C3666 1.531 . S
C3670 H3682 0.960 . S
C3670 H3683 0.962 . S
C3670 H3684 0.960 . S
C3671 C3668 1.511 . S
C3671 H3685 0.961 . S
C3671 H3686 0.961 . S
C3671 H3687 0.961 . S
C3672 C3673 1.370 . S
C3672 C3674 1.363 . S
C3672 H3688 0.931 . S
C3673 C3672 1.370 . S
C3673 C3677 1.408 . S
C3674 C3672 1.363 . S
C3674 C3675 1.370 . S
C3674 C3678 1.524 . S
C3675 C3667 1.503 . S
C3675 C3674 1.370 . S
C3675 C3676 1.403 . S
C3676 C3675 1.403 . S
C3676 C3677 1.404 . S
C3676 C3679 1.539 . S
C3677 C3673 1.408 . S
C3677 C3676 1.404 . S
C3677 H3689 0.930 . S
C3678 C3674 1.524 . S
C3678 H3690 0.956 . S
C3678 H3691 0.961 . S
C3678 H3692 0.961 . S
C3679 C3676 1.539 . S
C3679 H3693 0.958 . S
C3679 H3694 0.961 . S
C3679 H3695 0.960 . S
H3680 C3664 0.931 . S
H3681 C3669 0.929 . S
H3682 C3670 0.960 . S
H3683 C3670 0.962 . S
H3684 C3670 0.960 . S
H3685 C3671 0.961 . S
H3686 C3671 0.961 . S
H3687 C3671 0.961 . S
H3688 C3672 0.931 . S
H3689 C3677 0.930 . S
H3690 C3678 0.956 . S
H3691 C3678 0.961 . S
H3692 C3678 0.961 . S
H3693 C3679 0.958 . S
H3694 C3679 0.961 . S
H3695 C3679 0.960 . S
C3696 C3697 1.391 . S
C3696 C3698 1.394 . S
C3696 H3712 0.931 . S
C3697 C3696 1.391 . S
C3697 C3701 1.376 . S
C3698 C3696 1.394 . S
C3698 C3699 1.369 . S
C3698 C3702 1.531 . S
C3699 C3698 1.369 . S
C3699 C3700 1.410 . S
C3699 C3707 1.503 . S
C3700 C3699 1.410 . S
C3700 C3701 1.392 . S
C3700 C3703 1.511 . S
C3701 C3697 1.376 . S
C3701 C3700 1.392 . S
C3701 H3713 0.929 . S
C3702 C3698 1.531 . S
C3702 H3714 0.960 . S
C3702 H3715 0.962 . S
C3702 H3716 0.960 . S
C3703 C3700 1.511 . S
C3703 H3717 0.961 . S
C3703 H3718 0.961 . S
C3703 H3719 0.961 . S
C3704 C3705 1.370 . S
C3704 C3706 1.363 . S
C3704 H3720 0.931 . S
C3705 C3704 1.370 . S
C3705 C3709 1.408 . S
C3706 C3704 1.363 . S
C3706 C3707 1.370 . S
C3706 C3710 1.524 . S
C3707 C3699 1.503 . S
C3707 C3706 1.370 . S
C3707 C3708 1.403 . S
C3708 C3707 1.403 . S
C3708 C3709 1.404 . S
C3708 C3711 1.539 . S
C3709 C3705 1.408 . S
C3709 C3708 1.404 . S
C3709 H3721 0.930 . S
C3710 C3706 1.524 . S
C3710 H3722 0.956 . S
C3710 H3723 0.961 . S
C3710 H3724 0.961 . S
C3711 C3708 1.539 . S
C3711 H3725 0.958 . S
C3711 H3726 0.961 . S
C3711 H3727 0.960 . S
H3712 C3696 0.931 . S
H3713 C3701 0.929 . S
H3714 C3702 0.960 . S
H3715 C3702 0.962 . S
H3716 C3702 0.960 . S
H3717 C3703 0.961 . S
H3718 C3703 0.961 . S
H3719 C3703 0.961 . S
H3720 C3704 0.931 . S
H3721 C3709 0.930 . S
H3722 C3710 0.956 . S
H3723 C3710 0.961 . S
H3724 C3710 0.961 . S
H3725 C3711 0.958 . S
H3726 C3711 0.961 . S
H3727 C3711 0.960 . S
C3728 C3729 1.391 . S
C3728 C3730 1.394 . S
C3728 H3744 0.931 . S
C3729 C3728 1.391 . S
C3729 C3733 1.376 . S
C3730 C3728 1.394 . S
C3730 C3731 1.369 . S
C3730 C3734 1.531 . S
C3731 C3730 1.369 . S
C3731 C3732 1.410 . S
C3731 C3739 1.503 . S
C3732 C3731 1.410 . S
C3732 C3733 1.392 . S
C3732 C3735 1.511 . S
C3733 C3729 1.376 . S
C3733 C3732 1.392 . S
C3733 H3745 0.929 . S
C3734 C3730 1.531 . S
C3734 H3746 0.960 . S
C3734 H3747 0.962 . S
C3734 H3748 0.960 . S
C3735 C3732 1.511 . S
C3735 H3749 0.961 . S
C3735 H3750 0.961 . S
C3735 H3751 0.961 . S
C3736 C3737 1.370 . S
C3736 C3738 1.363 . S
C3736 H3752 0.931 . S
C3737 C3736 1.370 . S
C3737 C3741 1.408 . S
C3738 C3736 1.363 . S
C3738 C3739 1.370 . S
C3738 C3742 1.524 . S
C3739 C3731 1.503 . S
C3739 C3738 1.370 . S
C3739 C3740 1.403 . S
C3740 C3739 1.403 . S
C3740 C3741 1.404 . S
C3740 C3743 1.539 . S
C3741 C3737 1.408 . S
C3741 C3740 1.404 . S
C3741 H3753 0.930 . S
C3742 C3738 1.524 . S
C3742 H3754 0.956 . S
C3742 H3755 0.961 . S
C3742 H3756 0.961 . S
C3743 C3740 1.539 . S
C3743 H3757 0.958 . S
C3743 H3758 0.961 . S
C3743 H3759 0.960 . S
H3744 C3728 0.931 . S
H3745 C3733 0.929 . S
H3746 C3734 0.960 . S
H3747 C3734 0.962 . S
H3748 C3734 0.960 . S
H3749 C3735 0.961 . S
H3750 C3735 0.961 . S
H3751 C3735 0.961 . S
H3752 C3736 0.931 . S
H3753 C3741 0.930 . S
H3754 C3742 0.956 . S
H3755 C3742 0.961 . S
H3756 C3742 0.961 . S
H3757 C3743 0.958 . S
H3758 C3743 0.961 . S
H3759 C3743 0.960 . S
C3760 C3761 1.391 . S
C3760 C3762 1.394 . S
C3760 H3776 0.931 . S
C3761 C3760 1.391 . S
C3761 C3765 1.376 . S
C3762 C3760 1.394 . S
C3762 C3763 1.369 . S
C3762 C3766 1.531 . S
C3763 C3762 1.369 . S
C3763 C3764 1.410 . S
C3763 C3771 1.503 . S
C3764 C3763 1.410 . S
C3764 C3765 1.392 . S
C3764 C3767 1.511 . S
C3765 C3761 1.376 . S
C3765 C3764 1.392 . S
C3765 H3777 0.929 . S
C3766 C3762 1.531 . S
C3766 H3778 0.960 . S
C3766 H3779 0.962 . S
C3766 H3780 0.960 . S
C3767 C3764 1.511 . S
C3767 H3781 0.961 . S
C3767 H3782 0.961 . S
C3767 H3783 0.961 . S
C3768 C3769 1.370 . S
C3768 C3770 1.363 . S
C3768 H3784 0.931 . S
C3769 C3768 1.370 . S
C3769 C3773 1.408 . S
C3770 C3768 1.363 . S
C3770 C3771 1.370 . S
C3770 C3774 1.524 . S
C3771 C3763 1.503 . S
C3771 C3770 1.370 . S
C3771 C3772 1.403 . S
C3772 C3771 1.403 . S
C3772 C3773 1.404 . S
C3772 C3775 1.539 . S
C3773 C3769 1.408 . S
C3773 C3772 1.404 . S
C3773 H3785 0.930 . S
C3774 C3770 1.524 . S
C3774 H3786 0.956 . S
C3774 H3787 0.961 . S
C3774 H3788 0.961 . S
C3775 C3772 1.539 . S
C3775 H3789 0.958 . S
C3775 H3790 0.961 . S
C3775 H3791 0.960 . S
H3776 C3760 0.931 . S
H3777 C3765 0.929 . S
H3778 C3766 0.960 . S
H3779 C3766 0.962 . S
H3780 C3766 0.960 . S
H3781 C3767 0.961 . S
H3782 C3767 0.961 . S
H3783 C3767 0.961 . S
H3784 C3768 0.931 . S
H3785 C3773 0.930 . S
H3786 C3774 0.956 . S
H3787 C3774 0.961 . S
H3788 C3774 0.961 . S
H3789 C3775 0.958 . S
H3790 C3775 0.961 . S
H3791 C3775 0.960 . S
C3792 C3793 1.391 . S
C3792 C3794 1.394 . S
C3792 H3808 0.931 . S
C3793 C3792 1.391 . S
C3793 C3797 1.376 . S
C3794 C3792 1.394 . S
C3794 C3795 1.369 . S
C3794 C3798 1.531 . S
C3795 C3794 1.369 . S
C3795 C3796 1.410 . S
C3795 C3803 1.503 . S
C3796 C3795 1.410 . S
C3796 C3797 1.392 . S
C3796 C3799 1.511 . S
C3797 C3793 1.376 . S
C3797 C3796 1.392 . S
C3797 H3809 0.929 . S
C3798 C3794 1.531 . S
C3798 H3810 0.960 . S
C3798 H3811 0.962 . S
C3798 H3812 0.960 . S
C3799 C3796 1.511 . S
C3799 H3813 0.961 . S
C3799 H3814 0.961 . S
C3799 H3815 0.961 . S
C3800 C3801 1.370 . S
C3800 C3802 1.363 . S
C3800 H3816 0.931 . S
C3801 C3800 1.370 . S
C3801 C3805 1.408 1_655 S
C3802 C3800 1.363 . S
C3802 C3803 1.370 . S
C3802 C3806 1.524 . S
C3803 C3795 1.503 . S
C3803 C3802 1.370 . S
C3803 C3804 1.403 1_655 S
C3804 C3803 1.403 1_455 S
C3804 C3805 1.404 . S
C3804 C3807 1.539 . S
C3805 C3801 1.408 1_455 S
C3805 C3804 1.404 . S
C3805 H3817 0.930 . S
C3806 C3802 1.524 . S
C3806 H3818 0.956 . S
C3806 H3819 0.961 . S
C3806 H3820 0.961 . S
C3807 C3804 1.539 . S
C3807 H3821 0.958 . S
C3807 H3822 0.961 . S
C3807 H3823 0.960 . S
H3808 C3792 0.931 . S
H3809 C3797 0.929 . S
H3810 C3798 0.960 . S
H3811 C3798 0.962 . S
H3812 C3798 0.960 . S
H3813 C3799 0.961 . S
H3814 C3799 0.961 . S
H3815 C3799 0.961 . S
H3816 C3800 0.931 . S
H3817 C3805 0.930 . S
H3818 C3806 0.956 . S
H3819 C3806 0.961 . S
H3820 C3806 0.961 . S
H3821 C3807 0.958 . S
H3822 C3807 0.961 . S
H3823 C3807 0.960 . S
C3824 C3825 1.391 . S
C3824 C3826 1.394 . S
C3824 H3840 0.931 . S
C3825 C3824 1.391 . S
C3825 C3829 1.376 . S
C3826 C3824 1.394 . S
C3826 C3827 1.369 . S
C3826 C3830 1.531 . S
C3827 C3826 1.369 . S
C3827 C3828 1.410 . S
C3827 C3835 1.503 . S
C3828 C3827 1.410 . S
C3828 C3829 1.392 . S
C3828 C3831 1.511 . S
C3829 C3825 1.376 . S
C3829 C3828 1.392 . S
C3829 H3841 0.929 . S
C3830 C3826 1.531 . S
C3830 H3842 0.960 . S
C3830 H3843 0.962 . S
C3830 H3844 0.960 . S
C3831 C3828 1.511 . S
C3831 H3845 0.961 . S
C3831 H3846 0.961 . S
C3831 H3847 0.961 . S
C3832 C3833 1.370 . S
C3832 C3834 1.363 . S
C3832 H3848 0.931 . S
C3833 C3832 1.370 . S
C3833 C3837 1.408 . S
C3834 C3832 1.363 . S
C3834 C3835 1.370 . S
C3834 C3838 1.524 . S
C3835 C3827 1.503 . S
C3835 C3834 1.370 . S
C3835 C3836 1.403 . S
C3836 C3835 1.403 . S
C3836 C3837 1.404 . S
C3836 C3839 1.539 . S
C3837 C3833 1.408 . S
C3837 C3836 1.404 . S
C3837 H3849 0.930 . S
C3838 C3834 1.524 . S
C3838 H3850 0.956 . S
C3838 H3851 0.961 . S
C3838 H3852 0.961 . S
C3839 C3836 1.539 . S
C3839 H3853 0.958 . S
C3839 H3854 0.961 . S
C3839 H3855 0.960 . S
H3840 C3824 0.931 . S
H3841 C3829 0.929 . S
H3842 C3830 0.960 . S
H3843 C3830 0.962 . S
H3844 C3830 0.960 . S
H3845 C3831 0.961 . S
H3846 C3831 0.961 . S
H3847 C3831 0.961 . S
H3848 C3832 0.931 . S
H3849 C3837 0.930 . S
H3850 C3838 0.956 . S
H3851 C3838 0.961 . S
H3852 C3838 0.961 . S
H3853 C3839 0.958 . S
H3854 C3839 0.961 . S
H3855 C3839 0.960 . S
C3856 C3857 1.391 . S
C3856 C3858 1.394 . S
C3856 H3872 0.931 . S
C3857 C3856 1.391 . S
C3857 C3861 1.376 . S
C3858 C3856 1.394 . S
C3858 C3859 1.369 . S
C3858 C3862 1.531 . S
C3859 C3858 1.369 . S
C3859 C3860 1.410 . S
C3859 C3867 1.503 . S
C3860 C3859 1.410 . S
C3860 C3861 1.392 . S
C3860 C3863 1.511 . S
C3861 C3857 1.376 . S
C3861 C3860 1.392 . S
C3861 H3873 0.929 . S
C3862 C3858 1.531 . S
C3862 H3874 0.960 1_545 S
C3862 H3875 0.962 . S
C3862 H3876 0.960 1_545 S
C3863 C3860 1.511 . S
C3863 H3877 0.961 . S
C3863 H3878 0.961 . S
C3863 H3879 0.961 . S
C3864 C3865 1.370 . S
C3864 C3866 1.363 . S
C3864 H3880 0.931 . S
C3865 C3864 1.370 . S
C3865 C3869 1.408 1_545 S
C3866 C3864 1.363 . S
C3866 C3867 1.370 . S
C3866 C3870 1.524 . S
C3867 C3859 1.503 . S
C3867 C3866 1.370 . S
C3867 C3868 1.403 1_545 S
C3868 C3867 1.403 1_565 S
C3868 C3869 1.404 . S
C3868 C3871 1.539 . S
C3869 C3865 1.408 1_565 S
C3869 C3868 1.404 . S
C3869 H3881 0.930 . S
C3870 C3866 1.524 . S
C3870 H3882 0.956 . S
C3870 H3883 0.961 . S
C3870 H3884 0.961 . S
C3871 C3868 1.539 . S
C3871 H3885 0.958 . S
C3871 H3886 0.961 . S
C3871 H3887 0.960 . S
H3872 C3856 0.931 . S
H3873 C3861 0.929 . S
H3874 C3862 0.960 1_565 S
H3875 C3862 0.962 . S
H3876 C3862 0.960 1_565 S
H3877 C3863 0.961 . S
H3878 C3863 0.961 . S
H3879 C3863 0.961 . S
H3880 C3864 0.931 . S
H3881 C3869 0.930 . S
H3882 C3870 0.956 . S
H3883 C3870 0.961 . S
H3884 C3870 0.961 . S
H3885 C3871 0.958 . S
H3886 C3871 0.961 . S
H3887 C3871 0.960 . S
C1585 C4 1.136 . S
C1593 C981 1.169 . S
C1617 C26 1.592 . S
C1625 C1061 1.558 . S
C1657 C1129 1.223 . S
C1649 C32 1.280 . S
C1681 C40 1.605 . S
C1689 C1209 1.630 . S
C1713 C12 1.443 . S
C1721 C1283 1.470 . S
C1745 C18 1.517 . S
C1753 C1351 1.482 . S
C1777 C46 1.137 . S
C1785 C1277 1.066 . S
C1817 C1357 1.451 . S
C1809 C68 1.431 . S
C1849 C1203 1.279 . S
C1841 C74 1.275 1_565 S
C1873 C82 1.588 . S
C1881 C1135 1.656 1_545 S
C1913 C987 1.476 1_655 S
C1905 C54 1.464 . S
C1937 C60 1.374 . S
C1945 C1055 1.369 . S
C1969 C88 1.371 . S
C1977 C1425 1.346 . S
C2001 C110 1.620 . S
C2009 C1505 1.564 . S
C2041 C1573 1.523 . S
C2033 C116 1.571 . S
C2065 C124 1.747 . S
C2073 C321 1.722 . S
C2097 C96 1.628 . S
C2105 C395 1.596 . S
C2129 C102 1.555 . S
C2137 C463 1.478 . S
C2161 C130 1.095 . S
C2169 C389 1.107 . S
C2193 C152 1.516 . S
C2201 C469 1.526 . S
C2233 C315 1.390 . S
C2225 C158 1.399 . S
C2265 C1579 1.715 . S
C2257 C166 1.713 . S
C2297 C1431 1.456 . S
C2289 C138 1.454 . S
C2329 C1499 1.430 . S
C2321 C144 1.398 . S
C2353 C172 1.332 . S
C2361 C537 1.251 . S
C2385 C194 1.664 . S
C2393 C617 1.620 . S
C2417 C200 1.592 . S
C2425 C685 1.523 . S
C2449 C208 1.794 . S
C2457 C765 1.764 . S
C2489 C839 1.566 . S
C2481 C180 1.610 . S
C2521 C907 1.538 . S
C2513 C186 1.581 . S
C2553 C833 1.228 . S
C2545 C214 1.232 . S
C2585 C913 1.489 . S
C2577 C236 1.486 . S
C2609 C242 1.320 . S
C2617 C759 1.355 . S
C2649 C691 1.622 . S
C2641 C250 1.585 . S
C2673 C222 1.503 . S
C2681 C543 1.511 . S
C2713 C611 1.389 . S
C2705 C228 1.389 . S
C2745 C291 1.905 . S
C2737 C5 1.708 . S
C2769 C25 1.392 . S
C2777 C365 1.360 . S
C2809 C451 1.509 . S
C2801 C33 1.377 . S
C2841 C525 1.116 . S
C2833 C39 1.130 . S
C2873 C587 1.516 . S
C2865 C11 1.509 1_556 S
C2905 C673 1.485 . S
C2897 C19 1.281 . S
C2929 C47 1.906 . S
C2937 C661 2.051 . S
C2961 C67 1.601 . S
C2969 C513 1.513 . S
C2993 C75 1.578 . S
C3001 C599 1.721 . S
C3025 C81 1.431 . S
C3033 C377 1.343 . S
C3065 C439 1.651 . S
C3057 C53 1.763 . S
C3089 C61 1.438 . S
C3097 C303 1.667 . S
C3129 C735 1.834 . S
C3121 C89 1.621 . S
C3153 C109 1.529 . S
C3161 C809 1.490 . S
C3185 C117 1.323 . S
C3193 C895 1.509 . S
C3225 C969 0.943 . S
C3217 C123 0.955 . S
C3249 C95 1.412 . S
C3257 C1031 1.386 . S
C3281 C103 1.165 . S
C3289 C1117 1.314 . S
C3313 C131 1.599 . S
C3321 C1105 1.678 1_565 S
C3345 C151 1.326 . S
C3353 C957 1.294 . S
C3385 C1043 1.581 . S
C3377 C159 1.421 . S
C3409 C165 1.417 . S
C3417 C821 1.343 . S
C3441 C137 1.754 1_545 S
C3449 C883 1.666 . S
C3481 C747 1.733 . S
C3473 C145 1.528 . S
C3513 C1179 1.677 . S
C3505 C173 1.501 . S
C3537 C193 1.158 . S
C3545 C1253 1.145 . S
C3569 C201 1.148 . S
C3577 C1339 1.397 . S
C3609 C1413 1.090 . S
C3601 C207 1.117 . S
C3641 C1475 1.544 . S
C3633 C179 1.537 1_565 S
C3665 C187 1.355 . S
C3673 C1561 1.559 . S
C3697 C215 1.824 . S
C3705 C1549 2.011 . S
C3729 C235 1.714 1_565 S
C3737 C1401 1.619 . S
C3769 C1487 1.694 . S
C3761 C243 1.444 . S
C3801 C1265 1.015 . S
C3793 C249 1.030 . S
C3833 C1327 1.556 . S
C3825 C221 1.634 . S
C3857 C229 1.251 . S
C3865 C1191 1.430 . S
