# Generated by pormake.
# Topology pyr, (3,6)-cn, num edge types: 1
# Building blocks:
#     Node 0, Type 0, BuildingBlock: PAMTOO_clean_linker_0, # of connection points: 3
#     Node 1, Type 0, BuildingBlock: PAMTOO_clean_linker_0, # of connection points: 3
#     Node 2, Type 0, BuildingBlock: PAMTOO_clean_linker_0, # of connection points: 3
#     Node 3, Type 0, BuildingBlock: PAMTOO_clean_linker_0, # of connection points: 3
#     Node 4, Type 0, BuildingBlock: PAMTOO_clean_linker_0, # of connection points: 3
#     Node 5, Type 0, BuildingBlock: PAMTOO_clean_linker_0, # of connection points: 3
#     Node 6, Type 0, BuildingBlock: PAMTOO_clean_linker_0, # of connection points: 3
#     Node 7, Type 0, BuildingBlock: PAMTOO_clean_linker_0, # of connection points: 3
#     Node 8, Type 1, BuildingBlock: BETFEN_clean_sbu_0, # of connection points: 6
#     Node 9, Type 1, BuildingBlock: BETFEN_clean_sbu_0, # of connection points: 6
#     Node 10, Type 1, BuildingBlock: BETFEN_clean_sbu_0, # of connection points: 6
#     Node 11, Type 1, BuildingBlock: BETFEN_clean_sbu_0, # of connection points: 6
#     Edge 12, Type (0, 1), BuildingBlock: XUDNAN_clean_linker_2, # of connection points: 2
#     Edge 13, Type (0, 1), BuildingBlock: XUDNAN_clean_linker_2, # of connection points: 2
#     Edge 14, Type (0, 1), BuildingBlock: XUDNAN_clean_linker_2, # of connection points: 2
#     Edge 15, Type (0, 1), BuildingBlock: XUDNAN_clean_linker_2, # of connection points: 2
#     Edge 16, Type (0, 1), BuildingBlock: XUDNAN_clean_linker_2, # of connection points: 2
#     Edge 17, Type (0, 1), BuildingBlock: XUDNAN_clean_linker_2, # of connection points: 2
#     Edge 18, Type (0, 1), BuildingBlock: XUDNAN_clean_linker_2, # of connection points: 2
#     Edge 19, Type (0, 1), BuildingBlock: XUDNAN_clean_linker_2, # of connection points: 2
#     Edge 20, Type (0, 1), BuildingBlock: XUDNAN_clean_linker_2, # of connection points: 2
#     Edge 21, Type (0, 1), BuildingBlock: XUDNAN_clean_linker_2, # of connection points: 2
#     Edge 22, Type (0, 1), BuildingBlock: XUDNAN_clean_linker_2, # of connection points: 2
#     Edge 23, Type (0, 1), BuildingBlock: XUDNAN_clean_linker_2, # of connection points: 2
#     Edge 24, Type (0, 1), BuildingBlock: XUDNAN_clean_linker_2, # of connection points: 2
#     Edge 25, Type (0, 1), BuildingBlock: XUDNAN_clean_linker_2, # of connection points: 2
#     Edge 26, Type (0, 1), BuildingBlock: XUDNAN_clean_linker_2, # of connection points: 2
#     Edge 27, Type (0, 1), BuildingBlock: XUDNAN_clean_linker_2, # of connection points: 2
#     Edge 28, Type (0, 1), BuildingBlock: XUDNAN_clean_linker_2, # of connection points: 2
#     Edge 29, Type (0, 1), BuildingBlock: XUDNAN_clean_linker_2, # of connection points: 2
#     Edge 30, Type (0, 1), BuildingBlock: XUDNAN_clean_linker_2, # of connection points: 2
#     Edge 31, Type (0, 1), BuildingBlock: XUDNAN_clean_linker_2, # of connection points: 2
#     Edge 32, Type (0, 1), BuildingBlock: XUDNAN_clean_linker_2, # of connection points: 2
#     Edge 33, Type (0, 1), BuildingBlock: XUDNAN_clean_linker_2, # of connection points: 2
#     Edge 34, Type (0, 1), BuildingBlock: XUDNAN_clean_linker_2, # of connection points: 2
#     Edge 35, Type (0, 1), BuildingBlock: XUDNAN_clean_linker_2, # of connection points: 2
# Relax obj value: 0.181
# Max RMSD: 0.292
# Mean RMSD: 0.147
data_MOF--net-pyr--node1-BETFEN_clean_sbu_0--node2-PAMTOO_clean_linker_0--edge1-XUDNAN_clean_linker_2
_symmetry_space_group_name_H-M    P1
_symmetry_Int_Tables_number       1
_symmetry_cell_setting            triclinic
loop_
_symmetry_equiv_pos_as_xyz
'x, y, z'
_cell_length_a     35.743891
_cell_length_b     41.082057
_cell_length_c     37.997
_cell_angle_alpha  92.025181
_cell_angle_beta   101.06414
_cell_angle_gamma 114.73915
loop_
_atom_site_label
_atom_site_type_symbol
_atom_site_fract_x
_atom_site_fract_y
_atom_site_fract_z
_atom_type_partial_charge
H0 H 0.3464 0.33272 0.2938 0.0
H1 H 0.45907 0.33627 0.36213 0.0
H2 H 0.46224 0.36902 0.25648 0.0
H3 H 0.51298 0.32083 0.34054 0.0
C4 C 0.5243 0.33827 0.31951 0.0
O5 O 0.50706 0.36277 0.31652 0.0
H6 H 0.55911 0.35353 0.32939 0.0
C7 C 0.37941 0.33812 0.29796 0.0
C8 C 0.40156 0.3518 0.27089 0.0
C9 C 0.39958 0.33178 0.3307 0.0
C10 C 0.44271 0.34004 0.33666 0.0
C11 C 0.46502 0.35311 0.30978 0.0
C12 C 0.44441 0.35853 0.27684 0.0
H13 H 0.31513 0.90124 0.73173 0.0
H14 H 0.3126 0.84352 0.63384 0.0
H15 H 0.39229 0.84369 0.73389 0.0
H16 H 0.4252 0.86392 0.66319 0.0
C17 C 0.40327 0.83604 0.64966 0.0
O18 O 0.36848 0.82132 0.66471 0.0
H19 H 0.39248 0.83808 0.62071 0.0
C20 C 0.32617 0.88465 0.7179 0.0
C21 C 0.35544 0.87372 0.7376 0.0
C22 C 0.31042 0.87388 0.68053 0.0
C23 C 0.32458 0.85221 0.66266 0.0
C24 C 0.3546 0.84194 0.68192 0.0
C25 C 0.36978 0.85251 0.71925 0.0
H26 H 0.70989 0.31548 0.90117 0.0
H27 H 0.60253 0.27609 0.81069 0.0
H28 H 0.70125 0.38303 0.81898 0.0
H29 H 0.61128 0.37033 0.79683 0.0
C30 C 0.60673 0.35275 0.77189 0.0
O31 O 0.63189 0.3345 0.77783 0.0
H32 H 0.57306 0.3325 0.76464 0.0
C33 C 0.69245 0.32034 0.87694 0.0
C34 C 0.71053 0.35317 0.86286 0.0
C35 C 0.65325 0.29248 0.85888 0.0
C36 C 0.63216 0.29755 0.82561 0.0
C37 C 0.64987 0.33029 0.81119 0.0
C38 C 0.68838 0.35793 0.83018 0.0
H39 H 0.89549 0.70282 0.3998 0.0
H40 H 0.88513 0.6122 0.33083 0.0
H41 H 0.98344 0.7186 0.33194 0.0
H42 H 0.92156 0.65503 0.25507 0.0
C43 C 0.93352 0.63621 0.26782 0.0
O44 O 0.95222 0.64943 0.30446 0.0
H45 H 0.90538 0.61004 0.26597 0.0
C46 C 0.90528 0.69195 0.37879 0.0
C47 C 0.94084 0.71549 0.36684 0.0
C48 C 0.8843 0.65458 0.36633 0.0
C49 C 0.90015 0.64077 0.34069 0.0
C50 C 0.93545 0.66366 0.32736 0.0
C51 C 0.95561 0.70104 0.34089 0.0
H52 H 0.72244 0.75141 0.8137 0.0
H53 H 0.64026 0.66275 0.86022 0.0
H54 H 0.70466 0.6429 0.78367 0.0
H55 H 0.64719 0.56978 0.85219 0.0
C56 C 0.66484 0.59971 0.85708 0.0
O57 O 0.65345 0.61342 0.82617 0.0
H58 H 0.6543 0.60872 0.87971 0.0
C59 C 0.70776 0.72276 0.81592 0.0
C60 C 0.71622 0.69874 0.7951 0.0
C61 C 0.68092 0.71022 0.8399 0.0
C62 C 0.66144 0.67302 0.84216 0.0
C63 C 0.67059 0.64897 0.82235 0.0
C64 C 0.69786 0.66178 0.79887 0.0
H65 H 0.84053 0.14522 0.35319 0.0
H66 H 0.78059 0.21684 0.35685 0.0
H67 H 0.83596 0.19045 0.45531 0.0
H68 H 0.76315 0.20863 0.46736 0.0
C69 C 0.7563 0.21038 0.43787 0.0
O70 O 0.79411 0.22601 0.42714 0.0
H71 H 0.7365 0.18219 0.42411 0.0
C72 C 0.8326 0.1633 0.36841 0.0
C73 C 0.84187 0.16639 0.40636 0.0
C74 C 0.80995 0.18105 0.35012 0.0
C75 C 0.79813 0.203 0.37034 0.0
C76 C 0.80777 0.20651 0.4081 0.0
C77 C 0.82966 0.18833 0.42605 0.0
H78 H 0.44555 0.73823 0.15456 0.0
H79 H 0.43314 0.67141 0.23957 0.0
H80 H 0.5204 0.78338 0.26332 0.0
H81 H 0.55398 0.73589 0.31246 0.0
C82 C 0.52472 0.71131 0.29969 0.0
O83 O 0.49223 0.72148 0.28925 0.0
H84 H 0.53092 0.69949 0.27585 0.0
C85 C 0.45486 0.73588 0.18279 0.0
C86 C 0.48522 0.76632 0.20712 0.0
C87 C 0.4352 0.70197 0.19441 0.0
C88 C 0.44773 0.69756 0.23045 0.0
C89 C 0.47954 0.72665 0.25475 0.0
C90 C 0.49747 0.76105 0.24342 0.0
H91 H 0.14275 0.3151 0.77704 0.0
H92 H 0.22846 0.42223 0.76148 0.0
H93 H 0.21988 0.33007 0.69851 0.0
H94 H 0.30652 0.39046 0.73028 0.0
C95 C 0.2988 0.41205 0.71883 0.0
O96 O 0.25517 0.40023 0.70946 0.0
H97 H 0.31253 0.43576 0.74012 0.0
C98 C 0.1669 0.33263 0.76412 0.0
C99 C 0.17899 0.31724 0.7364 0.0
C100 C 0.18416 0.37084 0.77351 0.0
C101 C 0.21499 0.39309 0.75538 0.0
C102 C 0.22789 0.37837 0.72857 0.0
C103 C 0.2097 0.34082 0.71933 0.0
Pr104 Pr 0.03161 0.9946 0.5828 0.0
Pr105 Pr 0.08672 0.02816 0.54144 0.0
C106 C 0.96654 0.95637 0.61305 0.0
C107 C 0.9441 0.92062 0.62456 0.0
C108 C 0.96331 0.90909 0.6542 0.0
C109 C 0.94005 0.87697 0.66706 0.0
C110 C 0.8972 0.85569 0.6505 0.0
C111 C 0.87849 0.8666 0.62007 0.0
C112 C 0.90167 0.89881 0.60734 0.0
C113 C 0.08646 0.06563 0.61789 0.0
C114 C 0.11214 0.97817 0.59762 0.0
C115 C 0.15377 0.06569 0.51312 0.0
C116 C 0.17737 0.09947 0.49923 0.0
C117 C 0.19501 0.09759 0.4698 0.0
C118 C 0.21911 0.129 0.45655 0.0
C119 C 0.22623 0.16308 0.47259 0.0
C120 C 0.20791 0.16491 0.50183 0.0
C121 C 0.18366 0.1333 0.51511 0.0
C122 C 0.03242 0.95594 0.50761 0.0
C123 C 1.00227 0.03873 0.52181 0.0
O124 O 0.96203 0.95833 0.57835 0.0
O125 O 1.00466 0.97732 0.63173 0.0
O126 O 0.06888 0.05791 0.58438 0.0
O127 O 0.07891 0.03624 0.63261 0.0
O128 O 0.1283 1.00928 0.58495 0.0
O129 O 0.07119 0.96209 0.59466 0.0
O130 O 0.15567 0.06673 0.54784 0.0
O131 O 0.11666 0.04376 0.49345 0.0
O132 O 0.05044 0.96554 0.54075 0.0
O133 O 0.04042 0.98453 0.49139 0.0
O134 O 0.98886 1.00965 0.53801 0.0
O135 O 0.04279 0.05625 0.52292 0.0
H136 H 0.99599 0.92525 0.66807 0.0
H137 H 0.9554 0.86907 0.69037 0.0
H138 H 0.8454 0.85105 0.60702 0.0
H139 H 0.88601 0.90723 0.58465 0.0
H140 H 0.19034 0.07171 0.45713 0.0
H141 H 0.2319 0.12653 0.4335 0.0
H142 H 0.21292 0.19076 0.51481 0.0
H143 H 0.17019 0.1353 0.53786 0.0
Pr144 Pr 0.54906 0.04671 0.05522 0.0
Pr145 Pr 0.61076 0.02768 0.03127 0.0
C146 C 0.48711 0.05675 0.07788 0.0
C147 C 0.48395 0.08746 0.09667 0.0
C148 C 0.47885 0.1146 0.07758 0.0
C149 C 0.47896 0.1448 0.09585 0.0
C150 C 0.48407 0.14856 0.13362 0.0
C151 C 0.48768 0.12078 0.15252 0.0
C152 C 0.48747 0.09054 0.13424 0.0
C153 C 0.59373 0.09651 1.0123 0.0
C154 C 0.64458 0.08821 0.10284 0.0
C155 C 0.6726 0.01668 1.00978 0.0
C156 C 0.67525 0.98518 0.99268 0.0
C157 C 0.70749 0.97574 1.00852 0.0
C158 C 0.70806 0.94387 0.99515 0.0
C159 C 0.67652 0.92101 0.96547 0.0
C160 C 0.64499 0.93106 0.94886 0.0
C161 C 0.64415 0.96275 0.9625 0.0
C162 C 0.56408 0.97732 0.07279 0.0
C163 C 0.51645 0.98687 0.98263 0.0
O164 O 0.50994 0.04273 0.09673 0.0
O165 O 0.49229 0.05924 0.04481 0.0
O166 O 0.57918 0.0626 1.00576 0.0
O167 O 0.58658 0.10569 0.04245 0.0
O168 O 0.65463 0.07901 0.07367 0.0
O169 O 0.60482 0.07566 0.10494 0.0
O170 O 0.64978 0.03022 0.9901 0.0
O171 O 0.66737 1.01492 0.04285 0.0
O172 O 0.58014 1.01124 0.08039 0.0
O173 O 0.57112 0.96855 0.04248 0.0
O174 O 0.50561 0.99586 1.01151 0.0
O175 O 0.55632 0.99987 0.98099 0.0
H176 H 0.47549 0.11292 0.04855 0.0
H177 H 0.47536 0.16536 0.08038 0.0
H178 H 0.49207 0.1229 0.18166 0.0
H179 H 0.49107 0.06996 0.1497 0.0
H180 H 0.73167 0.99258 0.03187 0.0
H181 H 0.73298 0.93694 1.0082 0.0
H182 H 0.62012 0.91377 0.92613 0.0
H183 H 0.61858 0.96915 0.95 0.0
Pr184 Pr 0.58971 0.55714 0.5436 0.0
Pr185 Pr 0.55264 0.48408 0.49997 0.0
C186 C 0.60398 0.62339 0.57253 0.0
C187 C 0.58382 0.64114 0.5915 0.0
C188 C 0.60908 0.67325 0.61503 0.0
C189 C 0.59053 0.69278 0.62989 0.0
C190 C 0.54634 0.68061 0.62124 0.0
C191 C 0.52105 0.64765 0.59873 0.0
C192 C 0.5396 0.62802 0.5841 0.0
C193 C 0.61454 0.50839 0.57882 0.0
C194 C 0.49423 0.49422 0.55239 0.0
C195 C 0.53518 0.41815 0.46763 0.0
C196 C 0.55792 0.39886 0.45557 0.0
C197 C 0.53516 0.3654 0.43378 0.0
C198 C 0.55614 0.34565 0.42399 0.0
C199 C 0.60026 0.359 0.43608 0.0
C200 C 0.62305 0.39295 0.45737 0.0
C201 C 0.60205 0.41277 0.46697 0.0
C202 C 0.5272 0.53327 0.46624 0.0
C203 C 0.64867 0.54442 0.49324 0.0
O204 O 0.58523 0.60989 0.53879 0.0
O205 O 0.61894 0.60306 0.59023 0.0
O206 O 0.57768 0.50124 0.56121 0.0
O207 O 0.64049 0.542 0.57855 0.0
O208 O 0.49941 0.47065 0.53177 0.0
O209 O 0.522 0.5288 0.55864 0.0
O210 O 0.54224 0.42621 0.50259 0.0
O211 O 0.53356 0.44421 0.44961 0.0
O212 O 0.56428 0.53992 0.48262 0.0
O213 O 0.50133 0.49973 0.46642 0.0
O214 O 0.64068 0.56954 0.50841 0.0
O215 O 0.62347 0.50976 0.49263 0.0
H216 H 0.64325 0.68385 0.621 0.0
H217 H 0.61089 0.71817 0.64693 0.0
H218 H 0.48691 0.6373 0.59201 0.0
H219 H 0.51945 0.60314 0.56616 0.0
H220 H 0.50104 0.35419 0.42505 0.0
H221 H 0.53768 0.31938 0.408 0.0
H222 H 0.65709 0.40408 0.46679 0.0
H223 H 0.62012 0.43861 0.48383 0.0
Pr224 Pr 0.07888 0.54776 1.00313 0.0
Pr225 Pr 0.07868 0.4894 0.04837 0.0
C226 C 0.0601 0.59457 0.96386 0.0
C227 C 1.0231 0.60232 0.95489 0.0
C228 C 1.02655 0.63408 0.94042 0.0
C229 C 0.99077 0.64057 0.93024 0.0
C230 C 0.95102 0.61512 0.93403 0.0
C231 C 0.94789 0.58352 0.94899 0.0
C232 C 0.98371 0.57733 0.9596 0.0
C233 C 0.15997 0.55925 0.03866 0.0
C234 C 0.0497 0.54795 0.08335 0.0
C235 C 0.09717 0.44278 0.08818 0.0
C236 C 0.13011 0.42988 0.09529 0.0
C237 C 0.13151 0.40948 0.12381 0.0
C238 C 0.16502 0.40007 0.13353 0.0
C239 C 0.19783 0.41089 0.11483 0.0
C240 C 0.1956 0.43053 0.08549 0.0
C241 C 0.16203 0.44003 0.07585 0.0
C242 C 0.99863 0.47708 1.00825 0.0
C243 C 0.10063 0.48603 0.96539 0.0
O244 O 0.05435 0.56282 0.95006 0.0
O245 O 0.08132 0.60345 0.99753 0.0
O246 O 0.12836 0.54842 0.05286 0.0
O247 O 0.15073 0.56668 1.00619 0.0
O248 O 0.06265 0.52264 0.09111 0.0
O249 O 0.04903 0.55882 0.05085 0.0
O250 O 0.10929 0.47662 0.10029 0.0
O251 O 0.0719 0.43287 0.05599 0.0
O252 O 0.03232 0.48886 0.99745 0.0
O253 O 1.00452 0.46836 0.04069 0.0
O254 O 0.08531 0.51005 0.95916 0.0
O255 O 0.10617 0.47662 0.99852 0.0
H256 H 0.05676 0.65364 0.93664 0.0
H257 H 0.99399 0.66508 0.9187 0.0
H258 H 0.91778 0.56372 0.95272 0.0
H259 H 0.98062 0.55288 0.97119 0.0
H260 H 0.10731 0.40176 0.1393 0.0
H261 H 0.16603 0.38556 0.15667 0.0
H262 H 0.2201 0.43901 0.07033 0.0
H263 H 0.1615 0.45601 0.05384 0.0
H264 H 0.40057 0.27613 0.36748 0.0
H265 H 0.34245 0.35017 0.35474 0.0
H266 H 0.29614 0.31857 0.39524 0.0
H267 H 0.30881 0.19895 0.36359 0.0
H268 H 0.33191 0.17828 0.3967 0.0
H269 H 0.36425 0.20958 0.37087 0.0
H270 H 0.41569 0.24901 0.43002 0.0
H271 H 0.38364 0.21761 0.45612 0.0
H272 H 0.39538 0.26481 0.46343 0.0
H273 H 0.25136 0.27503 0.43199 0.0
H274 H 0.2113 0.22271 0.46129 0.0
H275 H 0.29983 0.17804 0.45074 0.0
C276 C 0.37895 0.28633 0.37406 0.0
C277 C 0.37514 0.31563 0.3581 0.0
C278 C 0.34567 0.3276 0.36656 0.0
C279 C 0.31946 0.30999 0.3897 0.0
C280 C 0.3233 0.2806 0.40431 0.0
C281 C 0.3525 0.269 0.39697 0.0
C282 C 0.34806 0.23504 0.41364 0.0
C283 C 0.33763 0.20363 0.38446 0.0
C284 C 0.38807 0.24205 0.44253 0.0
C285 C 0.31093 0.22868 0.43052 0.0
C286 C 0.29743 0.25548 0.42531 0.0
C287 C 0.26206 0.25418 0.43674 0.0
C288 C 0.23958 0.22443 0.45346 0.0
C289 C 0.25238 0.19626 0.45829 0.0
C290 C 0.28904 0.19898 0.44723 0.0
H291 H 0.43686 0.89906 0.77734 0.0
H292 H 0.3089 0.87332 0.78728 0.0
H293 H 0.3353 0.89504 0.85271 0.0
H294 H 0.47243 0.87424 0.86557 0.0
H295 H 0.52464 0.91093 0.87289 0.0
H296 H 0.49504 0.89047 0.82755 0.0
H297 H 0.50356 0.95325 0.8101 0.0
H298 H 0.5331 0.97383 0.85531 0.0
H299 H 0.48657 0.97984 0.83615 0.0
H300 H 0.37662 0.92376 0.91632 0.0
H301 H 0.42977 0.95798 0.97243 0.0
H302 H 0.52986 0.96349 0.92023 0.0
C303 C 0.41428 0.89725 0.79342 0.0
C304 C 0.37086 0.88452 0.77726 0.0
C305 C 0.3424 0.88334 0.79908 0.0
C306 C 0.35703 0.89534 0.83629 0.0
C307 C 0.40015 0.90821 0.85129 0.0
C308 C 0.42832 0.9091 0.83054 0.0
C309 C 0.47336 0.92617 0.85268 0.0
C310 C 0.49248 0.89881 0.8548 0.0
C311 C 0.50073 0.96029 0.83766 0.0
C312 C 0.46622 0.93547 0.88892 0.0
C313 C 0.42381 0.92463 0.88777 0.0
C314 C 0.40991 0.93202 0.91767 0.0
C315 C 0.44029 0.95146 0.9494 0.0
C316 C 0.48394 0.96337 0.95079 0.0
C317 C 0.49675 0.95464 0.92024 0.0
H318 H 0.55207 0.35796 0.71239 0.0
H319 H 0.68509 0.40259 0.76526 0.0
H320 H 0.70213 0.44473 0.71978 0.0
H321 H 0.56625 0.36442 0.61932 0.0
H322 H 0.52346 0.37687 0.60513 0.0
H323 H 0.522 0.34874 0.64065 0.0
H324 H 0.51287 0.39422 0.68327 0.0
H325 H 0.51434 0.42244 0.6479 0.0
H326 H 0.551 0.44099 0.69114 0.0
H327 H 0.70426 0.48474 0.67038 0.0
H328 H 0.69102 0.51909 0.62104 0.0
H329 H 0.55686 0.44774 0.59938 0.0
C330 C 0.58486 0.37617 0.71398 0.0
C331 C 0.61738 0.37644 0.74211 0.0
C332 C 0.65975 0.40137 0.74376 0.0
C333 C 0.66972 0.42549 0.71799 0.0
C334 C 0.63696 0.42451 0.69064 0.0
C335 C 0.59536 0.40041 0.68839 0.0
C336 C 0.56592 0.40585 0.65712 0.0
C337 C 0.54306 0.37195 0.62888 0.0
C338 C 0.53417 0.41651 0.67068 0.0
C339 C 0.59739 0.43701 0.64242 0.0
C340 C 0.63823 0.44736 0.66209 0.0
C341 C 0.67244 0.47661 0.65457 0.0
C342 C 0.66466 0.49596 0.62651 0.0
C343 C 0.62304 0.48597 0.6062 0.0
C344 C 0.58914 0.45578 0.61409 0.0
H345 H 0.94029 0.57243 0.24686 0.0
H346 H 0.99079 0.68639 0.23511 0.0
H347 H 1.02632 0.67633 0.18876 0.0
H348 H 0.03548 0.56061 0.23374 0.0
H349 H 1.00423 0.51588 0.20933 0.0
H350 H 0.98512 0.53234 0.24328 0.0
H351 H 0.91626 0.51913 0.19617 0.0
H352 H 0.93533 0.50303 0.16198 0.0
H353 H 0.91935 0.53891 0.15459 0.0
H354 H 0.04925 0.65246 0.13759 0.0
H355 H 0.06605 0.61908 0.09252 0.0
H356 H 1.00653 0.52035 0.1388 0.0
C357 C 0.95988 0.59549 0.23533 0.0
C358 C 0.96281 0.63054 0.24529 0.0
C359 C 0.98823 0.65954 0.22866 0.0
C360 C 1.00832 0.65392 0.20191 0.0
C361 C 1.00362 0.61904 0.1919 0.0
C362 C 0.9808 0.59038 0.2087 0.0
C363 C 0.9806 0.55552 0.1925 0.0
C364 C 1.00267 0.54018 0.22144 0.0
C365 C 0.93518 0.52749 0.1753 0.0
C366 C 1.00617 0.56887 0.1636 0.0
C367 C 1.01867 0.60562 0.16358 0.0
C368 C 0.04018 0.62385 0.13799 0.0
C369 C 0.04948 0.60447 0.11218 0.0
C370 C 0.03831 0.56695 0.11185 0.0
C371 C 1.01637 0.54906 0.13837 0.0
H372 H 0.4743 0.26546 0.30022 0.0
H373 H 0.55475 0.36103 0.25955 0.0
H374 H 0.54703 0.32325 0.20384 0.0
H375 H 0.51542 0.20916 0.27273 0.0
H376 H 0.46611 0.16892 0.26027 0.0
H377 H 0.47263 0.2038 0.29407 0.0
H378 H 0.4064 0.2084 0.25731 0.0
H379 H 0.39938 0.17321 0.22344 0.0
H380 H 0.4035 0.21622 0.21069 0.0
H381 H 0.53766 0.27434 0.15666 0.0
H382 H 0.52659 0.21848 0.12092 0.0
H383 H 0.45109 0.15459 0.19204 0.0
C384 C 0.48943 0.27842 0.27914 0.0
C385 C 0.51509 0.31602 0.28387 0.0
C386 C 0.53486 0.33221 0.25609 0.0
C387 C 0.53058 0.31099 0.22447 0.0
C388 C 0.50606 0.27374 0.22105 0.0
C389 C 0.48545 0.25763 0.24748 0.0
C390 C 0.46361 0.21687 0.2385 0.0
C391 C 0.48048 0.19864 0.26815 0.0
C392 C 0.41535 0.20285 0.2321 0.0
C393 C 0.47668 0.21242 0.2037 0.0
C394 C 0.50059 0.24555 0.19379 0.0
C395 C 0.51828 0.24826 0.16376 0.0
C396 C 0.51166 0.21633 0.14353 0.0
C397 C 0.48774 0.18204 0.15348 0.0
C398 C 0.46962 0.1803 0.18374 0.0
H399 H 0.31267 0.94145 0.67988 0.0
H400 H 0.23366 0.82852 0.63821 0.0
H401 H 0.17513 0.84363 0.61135 0.0
H402 H 0.23404 0.96201 0.70391 0.0
H403 H 0.25244 1.00644 0.68984 0.0
H404 H 0.28919 0.98741 0.70396 0.0
H405 H 0.31207 0.99644 0.64298 0.0
H406 H 0.27571 1.01588 0.62879 0.0
H407 H 0.27252 0.97779 0.60121 0.0
H408 H 0.1235 0.8696 0.59507 0.0
H409 H 0.08343 0.90586 0.58331 0.0
H410 H 0.19665 1.00331 0.63155 0.0
C411 C 0.28318 0.92007 0.66463 0.0
C412 C 0.27748 0.88381 0.66099 0.0
C413 C 0.23864 0.85646 0.64092 0.0
C414 C 0.20524 0.86478 0.62578 0.0
C415 C 0.21154 0.90066 0.63049 0.0
C416 C 0.24974 0.92802 0.64879 0.0
C417 C 0.24794 0.96431 0.65003 0.0
C418 C 0.2564 0.98101 0.68927 0.0
C419 C 0.2789 0.99013 0.62952 0.0
C420 C 0.20238 0.9529 0.63037 0.0
C421 C 0.18201 0.91599 0.61962 0.0
C422 C 0.13923 0.89857 0.60289 0.0
C423 C 0.11668 0.91939 0.59662 0.0
C424 C 0.137 0.95736 0.60657 0.0
C425 C 0.1805 0.97437 0.62347 0.0
H426 H 0.74932 0.37014 0.93594 0.0
H427 H 0.77155 0.39857 0.83016 0.0
H428 H 0.84485 0.44037 0.85842 0.0
H429 H 0.82422 0.45879 0.98996 0.0
H430 H 0.84158 0.43775 0.02637 0.0
H431 H 0.78825 0.41546 0.99928 0.0
H432 H 0.79965 0.35869 0.98449 0.0
H433 H 0.85292 0.38076 1.01138 0.0
H434 H 0.84331 0.36318 0.96473 0.0
H435 H 0.91724 0.47293 0.89571 0.0
H436 H 0.98517 0.49244 0.93961 0.0
H437 H 0.91904 0.44035 0.02125 0.0
C438 C 0.76932 0.38533 0.91861 0.0
C439 C 0.75392 0.38108 0.88065 0.0
C440 C 0.7816 0.40185 0.85931 0.0
C441 C 0.82364 0.42565 0.87512 0.0
C442 C 0.8379 0.42833 0.91231 0.0
C443 C 0.81171 0.40871 0.93385 0.0
C444 C 0.83633 0.41338 0.97243 0.0
C445 C 0.82172 0.43249 0.99855 0.0
C446 C 0.83284 0.37683 0.98391 0.0
C447 C 0.88072 0.43749 0.96875 0.0
C448 C 0.88059 0.44639 0.93398 0.0
C449 C 0.91774 0.46655 0.92314 0.0
C450 C 0.95618 0.47737 0.94826 0.0
C451 C 0.95727 0.46791 0.9838 0.0
C452 C 0.91901 0.44823 0.99436 0.0
H453 H 0.82441 0.67103 0.39087 0.0
H454 H 0.86041 0.58317 0.37909 0.0
H455 H 0.80433 0.54579 0.409 0.0
H456 H 0.80693 0.65838 0.48023 0.0
H457 H 0.76296 0.67005 0.47306 0.0
H458 H 0.80369 0.689 0.44824 0.0
H459 H 0.74727 0.66428 0.38788 0.0
H460 H 0.70639 0.64545 0.41257 0.0
H461 H 0.71166 0.6168 0.3787 0.0
H462 H 0.74398 0.51775 0.44195 0.0
H463 H 0.68639 0.50231 0.47452 0.0
H464 H 0.69308 0.60985 0.46913 0.0
C465 C 0.82103 0.64404 0.39463 0.0
C466 C 0.84769 0.63051 0.3822 0.0
C467 C 0.84057 0.59448 0.38742 0.0
C468 C 0.80881 0.57298 0.40483 0.0
C469 C 0.78406 0.5876 0.41734 0.0
C470 C 0.78987 0.62238 0.41243 0.0
C471 C 0.75995 0.63218 0.42936 0.0
C472 C 0.78488 0.66431 0.45951 0.0
C473 C 0.72952 0.64014 0.4004 0.0
C474 C 0.73645 0.59756 0.44476 0.0
C475 C 0.75058 0.57204 0.43725 0.0
C476 C 0.73296 0.53769 0.44802 0.0
C477 C 0.70014 0.52915 0.46663 0.0
C478 C 0.68516 0.55484 0.47495 0.0
C479 C 0.704 0.58963 0.46384 0.0
H480 H 0.31966 0.3146 0.23142 0.0
H481 H 0.43504 0.41189 0.23698 0.0
H482 H 0.39677 0.43307 0.18924 0.0
H483 H 0.27208 0.30663 0.13248 0.0
H484 H 0.21977 0.29205 0.14064 0.0
H485 H 0.25804 0.28091 0.16925 0.0
H486 H 0.24759 0.3106 0.2256 0.0
H487 H 0.20966 0.32205 0.19727 0.0
H488 H 0.25527 0.35695 0.22763 0.0
H489 H 0.34392 0.44853 0.14907 0.0
H490 H 0.28122 0.45677 0.11983 0.0
H491 H 0.19978 0.34981 0.14076 0.0
C492 C 0.33714 0.34003 0.22209 0.0
C493 C 0.38046 0.3615 0.23798 0.0
C494 C 0.4021 0.39457 0.22486 0.0
C495 C 0.38055 0.40693 0.19779 0.0
C496 C 0.33743 0.38581 0.18389 0.0
C497 C 0.31604 0.35286 0.19536 0.0
C498 C 0.26892 0.33731 0.17936 0.0
C499 C 0.25382 0.30214 0.15391 0.0
C500 C 0.24392 0.33141 0.20925 0.0
C501 C 0.26688 0.36745 0.1585 0.0
C502 C 0.30678 0.39487 0.16084 0.0
C503 C 0.31259 0.42687 0.14632 0.0
C504 C 0.27671 0.43125 0.12961 0.0
C505 C 0.23547 0.40388 0.12778 0.0
C506 C 0.2308 0.37127 0.1417 0.0
H507 H 0.64888 0.28292 0.92929 0.0
H508 H 0.62195 0.22351 0.82384 0.0
H509 H 0.60407 0.16671 0.85151 0.0
H510 H 0.69854 0.23532 0.97922 0.0
H511 H 0.67678 0.23598 1.01814 0.0
H512 H 0.68468 0.27139 0.98977 0.0
H513 H 0.60564 0.25819 0.9799 0.0
H514 H 0.5976 0.22305 1.00865 0.0
H515 H 0.56545 0.21294 0.96333 0.0
H516 H 0.59446 0.11702 0.89202 0.0
H517 H 0.58668 0.07774 0.94061 0.0
H518 H 0.6191 0.16986 1.01937 0.0
C519 C 0.63873 0.25788 0.91193 0.0
C520 C 0.63677 0.25765 0.87434 0.0
C521 C 0.62319 0.2243 0.85257 0.0
C522 C 0.61333 0.19197 0.86813 0.0
C523 C 0.61684 0.19338 0.90546 0.0
C524 C 0.62859 0.22544 0.92697 0.0
C525 C 0.63032 0.21987 0.96638 0.0
C526 C 0.67525 0.24195 0.98974 0.0
C527 C 0.59781 0.22905 0.98038 0.0
C528 C 0.61819 0.17968 0.96388 0.0
C529 C 0.61072 0.16488 0.92854 0.0
C530 C 0.5999 0.12833 0.9197 0.0
C531 C 0.59578 0.10626 0.94753 0.0
C532 C 0.60219 0.1207 0.98378 0.0
C533 C 0.61393 0.158 0.99193 0.0
H534 H 0.90794 0.76464 0.37725 0.0
H535 H 1.02538 0.75371 0.39887 0.0
H536 H 0.06109 0.81339 0.43681 0.0
H537 H 0.95683 0.863 0.37219 0.0
H538 H 0.9195 0.8707 0.39302 0.0
H539 H 0.90386 0.82788 0.36667 0.0
H540 H 0.8814 0.79501 0.42123 0.0
H541 H 0.89741 0.83773 0.44788 0.0
H542 H 0.91924 0.80718 0.46397 0.0
H543 H 0.0822 0.87196 0.47809 0.0
H544 H 0.08972 0.92802 0.51149 0.0
H545 H 0.96055 0.9044 0.45966 0.0
C546 C 0.94139 0.77511 0.38944 0.0
C547 C 0.96385 0.75426 0.38472 0.0
C548 C 1.00753 0.76909 0.40144 0.0
C549 C 1.028 0.80294 0.42339 0.0
C550 C 1.00473 0.82232 0.42811 0.0
C551 C 0.96256 0.80927 0.4109 0.0
C552 C 0.94486 0.83566 0.42013 0.0
C553 C 0.93041 0.85017 0.38597 0.0
C554 C 0.90858 0.81782 0.43945 0.0
C555 C 0.98341 0.86539 0.44564 0.0
C556 C 1.01747 0.85685 0.45025 0.0
C557 C 0.05587 0.87905 0.47409 0.0
C558 C 0.05982 0.91084 0.49315 0.0
C559 C 1.02594 0.9209 0.4881 0.0
C560 C 0.9872 0.89772 0.46388 0.0
H561 H 0.40159 0.78641 0.59793 0.0
H562 H 0.45722 0.83335 0.71001 0.0
H563 H 0.49795 0.79679 0.71619 0.0
H564 H 0.39242 0.69601 0.61 0.0
H565 H 0.40555 0.68962 0.5676 0.0
H566 H 0.37967 0.7183 0.57268 0.0
H567 H 0.43997 0.77124 0.55328 0.0
H568 H 0.46597 0.74273 0.5481 0.0
H569 H 0.49395 0.78513 0.57736 0.0
H570 H 0.53531 0.75734 0.70882 0.0
H571 H 0.56513 0.71711 0.68903 0.0
H572 H 0.48448 0.69599 0.58175 0.0
C573 C 0.42221 0.78878 0.62378 0.0
C574 C 0.42678 0.81285 0.65346 0.0
C575 C 0.45374 0.81518 0.68697 0.0
C576 C 0.47685 0.79453 0.69068 0.0
C577 C 0.47225 0.77146 0.66069 0.0
C578 C 0.44544 0.76836 0.62792 0.0
C579 C 0.44692 0.74228 0.59964 0.0
C580 C 0.40356 0.70961 0.58673 0.0
C581 C 0.46265 0.7615 0.56772 0.0
C582 C 0.47905 0.73145 0.62145 0.0
C583 C 0.49328 0.7485 0.65661 0.0
C584 C 0.52416 0.74365 0.68142 0.0
C585 C 0.54105 0.72089 0.66991 0.0
C586 C 0.52694 0.70321 0.63394 0.0
C587 C 0.49533 0.70852 0.60961 0.0
H588 H 0.79148 0.75928 0.80649 0.0
H589 H 0.70225 0.67015 0.72494 0.0
H590 H 0.74365 0.69752 0.67975 0.0
H591 H 0.80326 0.82681 0.75171 0.0
H592 H 0.85875 0.85395 0.77106 0.0
H593 H 0.82569 0.82475 0.79784 0.0
H594 H 0.87556 0.7933 0.81056 0.0
H595 H 0.90893 0.82253 0.78383 0.0
H596 H 0.88752 0.77416 0.77321 0.0
H597 H 0.78994 0.73861 0.64201 0.0
H598 H 0.83821 0.78906 0.61533 0.0
H599 H 0.89617 0.85119 0.72185 0.0
C600 C 0.78099 0.74524 0.77925 0.0
C601 C 0.74369 0.7126 0.76918 0.0
C602 C 0.73106 0.69495 0.73332 0.0
C603 C 0.7543 0.71036 0.70747 0.0
C604 C 0.79031 0.74316 0.71808 0.0
C605 C 0.80378 0.76019 0.75324 0.0
C606 C 0.8416 0.79643 0.75727 0.0
C607 C 0.83171 0.82729 0.77022 0.0
C608 C 0.88072 0.79659 0.78272 0.0
C609 C 0.84656 0.79774 0.71864 0.0
C610 C 0.81698 0.76665 0.69646 0.0
C611 C 0.81365 0.76282 0.65922 0.0
C612 C 0.841 0.79165 0.64429 0.0
C613 C 0.87118 0.82388 0.66656 0.0
C614 C 0.87419 0.82657 0.70425 0.0
H615 H 0.73075 0.16535 0.31081 0.0
H616 H 0.85476 0.1791 0.29945 0.0
H617 H 0.82757 0.1629 0.23312 0.0
H618 H 0.67295 0.08864 0.2476 0.0
H619 H 0.63008 0.10028 0.23062 0.0
H620 H 0.66064 0.11692 0.27626 0.0
H621 H 0.67776 0.18266 0.26359 0.0
H622 H 0.64717 0.16616 0.21779 0.0
H623 H 0.70156 0.19927 0.22623 0.0
H624 H 0.78506 0.14085 0.16856 0.0
H625 H 0.73043 0.11192 0.11203 0.0
H626 H 0.63463 0.11273 0.16665 0.0
C627 C 0.75252 0.16592 0.2943 0.0
C628 C 0.79501 0.17391 0.31017 0.0
C629 C 0.82211 0.17311 0.28776 0.0
C630 C 0.80701 0.16418 0.2501 0.0
C631 C 0.76478 0.15614 0.23537 0.0
C632 C 0.73795 0.15692 0.25685 0.0
C633 C 0.69317 0.14436 0.23495 0.0
C634 C 0.66242 0.11055 0.24814 0.0
C635 C 0.6791 0.17494 0.23568 0.0
C636 C 0.6987 0.1356 0.19785 0.0
C637 C 0.74029 0.14302 0.19847 0.0
C638 C 0.7525 0.13532 0.16769 0.0
C639 C 0.72123 0.11892 0.13567 0.0
C640 C 0.67823 0.11011 0.13484 0.0
C641 C 0.66721 0.11933 0.16624 0.0
H642 H 0.57994 0.70277 0.35548 0.0
H643 H 0.44732 0.65518 0.30079 0.0
H644 H 0.4328 0.60643 0.3398 0.0
H645 H 0.58835 0.62058 0.3633 0.0
H646 H 0.62401 0.6351 0.40728 0.0
H647 H 0.62344 0.66779 0.37713 0.0
H648 H 0.60928 0.70373 0.42625 0.0
H649 H 0.61 0.67118 0.45663 0.0
H650 H 0.56477 0.68106 0.44626 0.0
H651 H 0.43356 0.56083 0.3828 0.0
H652 H 0.44975 0.52197 0.42566 0.0
H653 H 0.58191 0.59934 0.45236 0.0
C654 C 0.54769 0.68252 0.35232 0.0
C655 C 0.51453 0.68342 0.3258 0.0
C656 C 0.47302 0.65564 0.32151 0.0
C657 C 0.46451 0.62777 0.34352 0.0
C658 C 0.49791 0.62779 0.36951 0.0
C659 C 0.5387 0.6545 0.37403 0.0
C660 C 0.56932 0.64737 0.4027 0.0
C661 C 0.60327 0.64241 0.38663 0.0
C662 C 0.58952 0.67764 0.43486 0.0
C663 C 0.53951 0.61224 0.41327 0.0
C664 C 0.49841 0.60145 0.39397 0.0
C665 C 0.46558 0.56918 0.39825 0.0
C666 C 0.47505 0.54727 0.42263 0.0
C667 C 0.517 0.55765 0.4424 0.0
C668 C 0.54945 0.59079 0.43783 0.0
H669 H 0.17419 0.36093 0.84578 0.0
H670 H 0.15666 0.42229 0.75864 0.0
H671 H 0.13408 0.45617 0.79768 0.0
H672 H 0.08392 0.35671 0.88299 0.0
H673 H 0.11094 0.36248 0.92961 0.0
H674 H 0.12461 0.34138 0.89489 0.0
H675 H 0.20268 0.38831 0.91594 0.0
H676 H 0.1892 0.40962 0.95062 0.0
H677 H 0.21558 0.43583 0.91826 0.0
H678 H 0.11465 0.48498 0.8452 0.0
H679 H 0.09867 0.50715 0.89827 0.0
H680 H 0.12811 0.43002 0.95927 0.0
C681 C 0.16512 0.38122 0.83484 0.0
C682 C 0.16751 0.38871 0.79858 0.0
C683 C 0.15565 0.41592 0.78596 0.0
C684 C 0.14261 0.43541 0.80808 0.0
C685 C 0.14132 0.42797 0.84349 0.0
C686 C 0.15213 0.40154 0.85704 0.0
C687 C 0.14842 0.4001 0.89672 0.0
C688 C 0.11498 0.36295 0.90133 0.0
C689 C 0.19154 0.40899 0.92188 0.0
C690 C 0.13403 0.42982 0.90311 0.0
C691 C 0.13016 0.44521 0.87167 0.0
C692 C 0.11752 0.47302 0.86991 0.0
C693 C 0.10841 0.48551 0.90064 0.0
C694 C 0.11177 0.47073 0.93377 0.0
C695 C 0.12505 0.44226 0.93477 0.0
H696 H 0.66679 0.76906 0.82223 0.0
H697 H 0.68437 0.71091 0.91234 0.0
H698 H 0.68218 0.75731 0.95395 0.0
H699 H 0.73254 0.85669 0.86817 0.0
H700 H 0.69984 0.87719 0.84666 0.0
H701 H 0.69941 0.83802 0.82347 0.0
H702 H 0.61812 0.80431 0.81545 0.0
H703 H 0.61824 0.84348 0.83845 0.0
H704 H 0.59562 0.80026 0.85459 0.0
H705 H 0.68396 0.8123 0.98629 0.0
H706 H 0.68517 0.87055 1.00685 0.0
H707 H 0.66596 0.89284 0.89573 0.0
C708 C 0.66979 0.76595 0.85068 0.0
C709 C 0.67556 0.73631 0.86407 0.0
C710 C 0.67924 0.73309 0.90144 0.0
C711 C 0.67831 0.75942 0.92529 0.0
C712 C 0.67335 0.78862 0.9113 0.0
C713 C 0.66871 0.79187 0.87482 0.0
C714 C 0.665 0.82642 0.86691 0.0
C715 C 0.70137 0.85103 0.85033 0.0
C716 C 0.62166 0.81811 0.8424 0.0
C717 C 0.66903 0.84241 0.90474 0.0
C718 C 0.67384 0.82017 0.92993 0.0
C719 C 0.67984 0.8298 0.9668 0.0
C720 C 0.68079 0.863 0.97823 0.0
C721 C 0.67563 0.88609 0.95286 0.0
C722 C 0.66948 0.87549 0.91565 0.0
H723 H 0.91862 0.1654 0.40734 0.0
H724 H 0.80476 0.11583 0.448 0.0
H725 H 0.8326 0.07636 0.47977 0.0
H726 H 0.93588 0.08519 0.39455 0.0
H727 H 0.99256 0.10875 0.41005 0.0
H728 H 0.96313 0.13216 0.38904 0.0
H729 H 0.99522 0.18074 0.44534 0.0
H730 H 1.02481 0.15753 0.46645 0.0
H731 H 0.99001 0.16694 0.48935 0.0
H732 H 0.87155 0.04206 0.50616 0.0
H733 H 0.92196 0.01763 0.53036 0.0
H734 H 1.01354 0.09137 0.4761 0.0
C735 C 0.89968 0.14607 0.42286 0.0
C736 C 0.85957 0.1434 0.42531 0.0
C737 C 0.83562 0.1182 0.44604 0.0
C738 C 0.85108 0.09564 0.46398 0.0
C739 C 0.89076 0.09891 0.46122 0.0
C740 C 0.91503 0.1237 0.44156 0.0
C741 C 0.95749 0.12264 0.44456 0.0
C742 C 0.96254 0.11152 0.40733 0.0
C743 C 0.99404 0.15913 0.4625 0.0
C744 C 0.95315 0.09339 0.46894 0.0
C745 C 0.91415 0.07987 0.47777 0.0
C746 C 0.90226 0.05247 0.49956 0.0
C747 C 0.93115 0.0387 0.51308 0.0
C748 C 0.97177 0.05259 0.50518 0.0
C749 C 0.98279 0.08026 0.48268 0.0
H750 H 0.35573 0.66111 0.20394 0.0
H751 H 0.43488 0.67673 0.12687 0.0
H752 H 0.37315 0.63348 0.08082 0.0
H753 H 0.28173 0.56269 0.16997 0.0
H754 H 0.23673 0.56888 0.17752 0.0
H755 H 0.28836 0.59533 0.20643 0.0
H756 H 0.28166 0.65407 0.19188 0.0
H757 H 0.23033 0.62791 0.16281 0.0
H758 H 0.27119 0.66189 0.14538 0.0
H759 H 0.30241 0.59714 0.04099 0.0
H760 H 0.22697 0.56972 1.00972 0.0
H761 H 0.19241 0.57656 0.11211 0.0
C762 C 0.36023 0.65428 0.17776 0.0
C763 C 0.40001 0.67187 0.16893 0.0
C764 C 0.40463 0.66336 0.13409 0.0
C765 C 0.36982 0.63872 0.10789 0.0
C766 C 0.33068 0.6227 0.11702 0.0
C767 C 0.32567 0.62987 0.1512 0.0
C768 C 0.27937 0.61232 0.15272 0.0
C769 C 0.27107 0.58306 0.17817 0.0
C770 C 0.26481 0.64075 0.16384 0.0
C771 C 0.25901 0.5957 0.11365 0.0
C772 C 0.2893 0.60149 0.09373 0.0
C773 C 0.27841 0.59175 0.05642 0.0
C774 C 0.23554 0.57636 0.03888 0.0
C775 C 0.20407 0.57089 0.05859 0.0
C776 C 0.21588 0.57982 0.09656 0.0
H777 H 0.37284 0.47133 0.715 0.0
H778 H 0.27269 0.37401 0.65046 0.0
H779 H 0.30951 0.38664 0.60002 0.0
H780 H 0.3938 0.52696 0.64064 0.0
H781 H 0.45018 0.54866 0.6587 0.0
H782 H 0.41471 0.53335 0.68878 0.0
H783 H 0.45267 0.49525 0.71591 0.0
H784 H 0.48821 0.51049 0.68594 0.0
H785 H 0.45771 0.46279 0.68628 0.0
H786 H 0.35988 0.40763 0.55806 0.0
H787 H 0.4187 0.4353 0.52755 0.0
H788 H 0.48669 0.5204 0.61816 0.0
C789 C 0.35817 0.45314 0.68991 0.0
C790 C 0.31904 0.42211 0.68638 0.0
C791 C 0.30186 0.39835 0.65353 0.0
C792 C 0.32273 0.40529 0.62478 0.0
C793 C 0.36113 0.43608 0.62913 0.0
C794 C 0.37865 0.45974 0.66086 0.0
C795 C 0.4212 0.49004 0.65909 0.0
C796 C 0.41988 0.52694 0.66197 0.0
C797 C 0.45706 0.4896 0.68855 0.0
C798 C 0.42508 0.47965 0.62153 0.0
C799 C 0.39003 0.44837 0.60481 0.0
C800 C 0.38715 0.43234 0.57081 0.0
C801 C 0.42088 0.44832 0.55364 0.0
C802 C 0.45732 0.48037 0.57005 0.0
C803 C 0.45901 0.49641 0.60441 0.0
H804 H 0.7077 0.55927 0.84619 0.0
H805 H 0.72726 0.66433 0.89348 0.0
H806 H 0.80375 0.68155 0.91412 0.0
H807 H 0.77682 0.54672 0.91822 0.0
H808 H 0.79609 0.52379 0.89019 0.0
H809 H 0.74393 0.5213 0.87527 0.0
H810 H 0.76275 0.54602 0.81605 0.0
H811 H 0.81498 0.54846 0.83077 0.0
H812 H 0.80866 0.58815 0.81848 0.0
H813 H 0.87729 0.68611 0.93235 0.0
H814 H 0.94209 0.67669 0.94925 0.0
H815 H 0.87381 0.56745 0.89303 0.0
C816 C 0.72829 0.58606 0.86041 0.0
C817 C 0.71187 0.61072 0.86784 0.0
C818 C 0.73948 0.64534 0.88705 0.0
C819 C 0.78288 0.65529 0.89892 0.0
C820 C 0.79803 0.63016 0.89167 0.0
C821 C 0.77157 0.59619 0.873 0.0
C822 C 0.79529 0.5733 0.87114 0.0
C823 C 0.77694 0.53928 0.88983 0.0
C824 C 0.79543 0.56341 0.83177 0.0
C825 C 0.83902 0.59949 0.89219 0.0
C826 C 0.8401 0.63232 0.90332 0.0
C827 C 0.87691 0.66059 0.92362 0.0
C828 C 0.91352 0.65505 0.93301 0.0
C829 C 0.91283 0.62137 0.92249 0.0
C830 C 0.8751 0.59339 0.90163 0.0
H831 H 0.44932 0.79171 0.14899 0.0
H832 H 0.56265 0.82569 0.23535 0.0
H833 H 0.59139 0.88505 0.21381 0.0
H834 H 0.5067 0.83063 0.08208 0.0
H835 H 0.46614 0.84199 0.05789 0.0
H836 H 0.4521 0.80391 0.08297 0.0
H837 H 0.41478 0.83109 0.11878 0.0
H838 H 0.4291 0.86948 0.09405 0.0
H839 H 0.44399 0.87619 0.14277 0.0
H840 H 0.60809 0.94174 0.18225 0.0
H841 H 0.61541 0.98662 0.13897 0.0
H842 H 0.49704 0.91147 0.06833 0.0
C843 C 0.48053 0.81093 0.16343 0.0
C844 C 0.5032 0.80305 0.19437 0.0
C845 C 0.54354 0.83052 0.21231 0.0
C846 C 0.56049 0.86454 0.20006 0.0
C847 C 0.53737 0.87081 0.1693 0.0
C848 C 0.49862 0.84444 0.15085 0.0
C849 C 0.48165 0.85658 0.11664 0.0
C850 C 0.47635 0.83181 0.08291 0.0
C851 C 0.4399 0.85845 0.11817 0.0
C852 C 0.51702 0.89398 0.11858 0.0
C853 C 0.54841 0.90208 0.14965 0.0
C854 C 0.5838 0.93551 0.15778 0.0
C855 C 0.5876 0.9609 0.1332 0.0
C856 C 0.55674 0.95239 0.10049 0.0
C857 C 0.52099 0.91857 0.09322 0.0
H858 H 0.15473 0.28028 0.66669 0.0
H859 H 0.16219 0.26204 0.77907 0.0
H860 H 0.13964 0.19698 0.76069 0.0
H861 H 0.06164 0.19499 0.6287 0.0
H862 H 0.08041 0.18909 0.58928 0.0
H863 H 0.09571 0.23391 0.61103 0.0
H864 H 0.17451 0.24779 0.61787 0.0
H865 H 0.15948 0.20294 0.59639 0.0
H866 H 0.19456 0.21863 0.64061 0.0
H867 H 0.12127 0.13427 0.73048 0.0
H868 H 0.10179 0.07812 0.6912 0.0
H869 H 0.10297 0.13479 0.59688 0.0
C870 C 0.15149 0.26265 0.68755 0.0
C871 C 0.16059 0.27685 0.72466 0.0
C872 C 0.1552 0.25229 0.75063 0.0
C873 C 0.14267 0.21517 0.74037 0.0
C874 C 0.13497 0.20241 0.70381 0.0
C875 C 0.13857 0.22533 0.67769 0.0
C876 C 0.12815 0.20455 0.64018 0.0
C877 C 0.08916 0.20571 0.61586 0.0
C878 C 0.16646 0.21937 0.62274 0.0
C879 C 0.11858 0.16636 0.64926 0.0
C880 C 0.12305 0.16597 0.68623 0.0
C881 C 0.1173 0.13437 0.70153 0.0
C882 C 0.10628 0.10241 0.67877 0.0
C883 C 0.10043 0.10144 0.64062 0.0
C884 C 0.10687 0.13423 0.62578 0.0
H885 H 0.7507 0.26038 0.48404 0.0
H886 H 0.70761 0.21007 0.37265 0.0
H887 H 0.66497 0.24453 0.35893 0.0
H888 H 0.65315 0.25896 0.49355 0.0
H889 H 0.67696 0.30201 0.52163 0.0
H890 H 0.70558 0.27487 0.52192 0.0
H891 H 0.76785 0.32836 0.50535 0.0
H892 H 0.73939 0.35567 0.50503 0.0
H893 H 0.75798 0.34905 0.46573 0.0
H894 H 0.6237 0.28174 0.3587 0.0
H895 H 0.58908 0.32047 0.37131 0.0
H896 H 0.66003 0.34668 0.48284 0.0
C897 C 0.73245 0.25687 0.45674 0.0
C898 C 0.73188 0.23243 0.42939 0.0
C899 C 0.70799 0.22856 0.39391 0.0
C900 C 0.68381 0.248 0.38593 0.0
C901 C 0.68431 0.27139 0.41372 0.0
C902 C 0.70822 0.27605 0.44836 0.0
C903 C 0.70246 0.30209 0.47357 0.0
C904 C 0.6834 0.28335 0.50448 0.0
C905 C 0.74442 0.33579 0.48827 0.0
C906 C 0.67132 0.31115 0.44781 0.0
C907 C 0.66119 0.29318 0.41342 0.0
C908 C 0.63171 0.2962 0.38545 0.0
C909 C 0.61208 0.31812 0.39288 0.0
C910 C 0.62216 0.33687 0.42793 0.0
C911 C 0.65233 0.33332 0.45559 0.0
loop_
_geom_bond_atom_site_label_1
_geom_bond_atom_site_label_2
_geom_bond_distance
_geom_bond_site_symmetry_2
_ccdc_geom_bond_type
H0 C7 0.929 . S
H1 C10 0.930 . S
H2 C12 0.929 . S
H3 C4 0.969 . S
C4 H3 0.969 . S
C4 O5 1.550 . S
C4 H6 0.973 . S
O5 C4 1.550 . S
O5 C11 1.412 . S
H6 C4 0.973 . S
C7 H0 0.929 . S
C7 C8 1.400 . S
C7 C9 1.364 . S
C8 C7 1.400 . S
C8 C12 1.377 . S
C9 C7 1.364 . S
C9 C10 1.374 . S
C10 H1 0.930 . S
C10 C9 1.374 . S
C10 C11 1.383 . S
C11 O5 1.412 . S
C11 C10 1.383 . S
C11 C12 1.394 . S
C12 H2 0.929 . S
C12 C8 1.377 . S
C12 C11 1.394 . S
H13 C20 0.929 . S
H14 C23 0.930 . S
H15 C25 0.929 . S
H16 C17 0.969 . S
C17 H16 0.969 . S
C17 O18 1.550 . S
C17 H19 0.973 . S
O18 C17 1.550 . S
O18 C24 1.412 . S
H19 C17 0.973 . S
C20 H13 0.929 . S
C20 C21 1.400 . S
C20 C22 1.364 . S
C21 C20 1.400 . S
C21 C25 1.377 . S
C22 C20 1.364 . S
C22 C23 1.374 . S
C23 H14 0.930 . S
C23 C22 1.374 . S
C23 C24 1.383 . S
C24 O18 1.412 . S
C24 C23 1.383 . S
C24 C25 1.394 . S
C25 H15 0.929 . S
C25 C21 1.377 . S
C25 C24 1.394 . S
H26 C33 0.929 . S
H27 C36 0.930 . S
H28 C38 0.929 . S
H29 C30 0.969 . S
C30 H29 0.969 . S
C30 O31 1.550 . S
C30 H32 0.973 . S
O31 C30 1.550 . S
O31 C37 1.412 . S
H32 C30 0.973 . S
C33 H26 0.929 . S
C33 C34 1.400 . S
C33 C35 1.364 . S
C34 C33 1.400 . S
C34 C38 1.377 . S
C35 C33 1.364 . S
C35 C36 1.374 . S
C36 H27 0.930 . S
C36 C35 1.374 . S
C36 C37 1.383 . S
C37 O31 1.412 . S
C37 C36 1.383 . S
C37 C38 1.394 . S
C38 H28 0.929 . S
C38 C34 1.377 . S
C38 C37 1.394 . S
H39 C46 0.929 . S
H40 C49 0.930 . S
H41 C51 0.929 . S
H42 C43 0.969 . S
C43 H42 0.969 . S
C43 O44 1.550 . S
C43 H45 0.973 . S
O44 C43 1.550 . S
O44 C50 1.412 . S
H45 C43 0.973 . S
C46 H39 0.929 . S
C46 C47 1.400 . S
C46 C48 1.364 . S
C47 C46 1.400 . S
C47 C51 1.377 . S
C48 C46 1.364 . S
C48 C49 1.374 . S
C49 H40 0.930 . S
C49 C48 1.374 . S
C49 C50 1.383 . S
C50 O44 1.412 . S
C50 C49 1.383 . S
C50 C51 1.394 . S
C51 H41 0.929 . S
C51 C47 1.377 . S
C51 C50 1.394 . S
H52 C59 0.929 . S
H53 C62 0.930 . S
H54 C64 0.929 . S
H55 C56 0.969 . S
C56 H55 0.969 . S
C56 O57 1.550 . S
C56 H58 0.973 . S
O57 C56 1.550 . S
O57 C63 1.412 . S
H58 C56 0.973 . S
C59 H52 0.929 . S
C59 C60 1.400 . S
C59 C61 1.364 . S
C60 C59 1.400 . S
C60 C64 1.377 . S
C61 C59 1.364 . S
C61 C62 1.374 . S
C62 H53 0.930 . S
C62 C61 1.374 . S
C62 C63 1.383 . S
C63 O57 1.412 . S
C63 C62 1.383 . S
C63 C64 1.394 . S
C64 H54 0.929 . S
C64 C60 1.377 . S
C64 C63 1.394 . S
H65 C72 0.929 . S
H66 C75 0.930 . S
H67 C77 0.929 . S
H68 C69 0.969 . S
C69 H68 0.969 . S
C69 O70 1.550 . S
C69 H71 0.973 . S
O70 C69 1.550 . S
O70 C76 1.412 . S
H71 C69 0.973 . S
C72 H65 0.929 . S
C72 C73 1.400 . S
C72 C74 1.364 . S
C73 C72 1.400 . S
C73 C77 1.377 . S
C74 C72 1.364 . S
C74 C75 1.374 . S
C75 H66 0.930 . S
C75 C74 1.374 . S
C75 C76 1.383 . S
C76 O70 1.412 . S
C76 C75 1.383 . S
C76 C77 1.394 . S
C77 H67 0.929 . S
C77 C73 1.377 . S
C77 C76 1.394 . S
H78 C85 0.929 . S
H79 C88 0.930 . S
H80 C90 0.929 . S
H81 C82 0.969 . S
C82 H81 0.969 . S
C82 O83 1.550 . S
C82 H84 0.973 . S
O83 C82 1.550 . S
O83 C89 1.412 . S
H84 C82 0.973 . S
C85 H78 0.929 . S
C85 C86 1.400 . S
C85 C87 1.364 . S
C86 C85 1.400 . S
C86 C90 1.377 . S
C87 C85 1.364 . S
C87 C88 1.374 . S
C88 H79 0.930 . S
C88 C87 1.374 . S
C88 C89 1.383 . S
C89 O83 1.412 . S
C89 C88 1.383 . S
C89 C90 1.394 . S
C90 H80 0.929 . S
C90 C86 1.377 . S
C90 C89 1.394 . S
H91 C98 0.929 . S
H92 C101 0.930 . S
H93 C103 0.929 . S
H94 C95 0.969 . S
C95 H94 0.969 . S
C95 O96 1.550 . S
C95 H97 0.973 . S
O96 C95 1.550 . S
O96 C102 1.412 . S
H97 C95 0.973 . S
C98 H91 0.929 . S
C98 C99 1.400 . S
C98 C100 1.364 . S
C99 C98 1.400 . S
C99 C103 1.377 . S
C100 C98 1.364 . S
C100 C101 1.374 . S
C101 H92 0.930 . S
C101 C100 1.374 . S
C101 C102 1.383 . S
C102 O96 1.412 . S
C102 C101 1.383 . S
C102 C103 1.394 . S
C103 H93 0.929 . S
C103 C99 1.377 . S
C103 C102 1.394 . S
Pr104 C106 2.889 . S
Pr104 O124 2.576 . S
Pr104 O125 2.493 . S
Pr104 O126 2.689 1_665 S
Pr104 O127 2.503 1_665 S
Pr104 O129 2.446 1_655 S
Pr104 O132 2.444 . S
Pr104 O134 2.428 1_565 S
Pr105 C115 2.880 . S
Pr105 O126 2.436 . S
Pr105 O128 2.438 1_545 S
Pr105 O130 2.562 . S
Pr105 O131 2.490 . S
Pr105 O132 2.695 1_445 S
Pr105 O133 2.512 1_545 S
Pr105 O135 2.437 . S
C106 Pr104 2.889 . S
C106 C107 1.491 . S
C106 O124 1.254 . S
C106 O125 1.225 . S
C107 C106 1.491 . S
C107 C108 1.392 . S
C107 C112 1.356 . S
C108 C107 1.392 . S
C108 C109 1.368 . S
C108 H136 0.929 . S
C109 C108 1.368 . S
C109 C110 1.386 . S
C109 H137 0.929 . S
C110 C109 1.386 . S
C110 C111 1.373 . S
C111 C110 1.373 . S
C111 C112 1.409 . S
C111 H138 0.931 . S
C112 C107 1.356 . S
C112 C111 1.409 . S
C112 H139 0.930 . S
C113 O126 1.270 . S
C113 O127 1.248 . S
C114 O128 1.267 . S
C114 O129 1.278 . S
C115 Pr105 2.880 . S
C115 C116 1.491 . S
C115 O130 1.254 . S
C115 O131 1.225 . S
C116 C115 1.491 . S
C116 C117 1.392 . S
C116 C121 1.356 . S
C117 C116 1.392 . S
C117 C118 1.368 . S
C117 H140 0.929 . S
C118 C117 1.368 . S
C118 C119 1.386 . S
C118 H141 0.929 . S
C119 C118 1.386 . S
C119 C120 1.373 . S
C120 C119 1.373 . S
C120 C121 1.409 . S
C120 H142 0.931 . S
C121 C116 1.356 . S
C121 C120 1.409 . S
C121 H143 0.930 . S
C122 O132 1.270 . S
C122 O133 1.248 1_655 S
C123 O134 1.267 . S
C123 O135 1.278 1_655 S
O124 Pr104 2.576 . S
O124 C106 1.254 . S
O125 Pr104 2.493 . S
O125 C106 1.225 . S
O126 Pr104 2.689 1_445 S
O126 Pr105 2.436 . S
O126 C113 1.270 . S
O127 Pr104 2.503 1_445 S
O127 C113 1.248 . S
O128 Pr105 2.438 1_565 S
O128 C114 1.267 . S
O129 Pr104 2.446 1_455 S
O129 C114 1.278 . S
O130 Pr105 2.562 . S
O130 C115 1.254 . S
O131 Pr105 2.490 . S
O131 C115 1.225 . S
O132 Pr104 2.444 . S
O132 Pr105 2.695 1_665 S
O132 C122 1.270 . S
O133 Pr105 2.512 1_565 S
O133 C122 1.248 1_455 S
O134 Pr104 2.428 1_545 S
O134 C123 1.267 . S
O135 Pr105 2.437 . S
O135 C123 1.278 1_455 S
H136 C108 0.929 . S
H137 C109 0.929 . S
H138 C111 0.931 . S
H139 C112 0.930 . S
H140 C117 0.929 . S
H141 C118 0.929 . S
H142 C120 0.931 . S
H143 C121 0.930 . S
Pr144 C146 2.880 . S
Pr144 O164 2.562 . S
Pr144 O165 2.490 . S
Pr144 O166 2.695 1_554 S
Pr144 O167 2.512 1_554 S
Pr144 O169 2.437 . S
Pr144 O172 2.436 1_545 S
Pr144 O174 2.438 1_544 S
Pr145 C155 2.880 1_554 S
Pr145 O166 2.436 1_564 S
Pr145 O168 2.438 1_565 S
Pr145 O170 2.562 1_554 S
Pr145 O171 2.490 1_554 S
Pr145 O172 2.695 . S
Pr145 O173 2.512 . S
Pr145 O175 2.437 1_554 S
C146 Pr144 2.880 . S
C146 C147 1.491 . S
C146 O164 1.254 . S
C146 O165 1.225 . S
C147 C146 1.491 . S
C147 C148 1.392 . S
C147 C152 1.356 . S
C148 C147 1.392 . S
C148 C149 1.368 . S
C148 H176 0.929 . S
C149 C148 1.368 . S
C149 C150 1.386 . S
C149 H177 0.929 . S
C150 C149 1.386 . S
C150 C151 1.373 . S
C151 C150 1.373 . S
C151 C152 1.409 . S
C151 H178 0.931 . S
C152 C147 1.356 . S
C152 C151 1.409 . S
C152 H179 0.930 . S
C153 O166 1.270 . S
C153 O167 1.248 . S
C154 O168 1.267 . S
C154 O169 1.278 . S
C155 Pr145 2.880 1_556 S
C155 C156 1.491 . S
C155 O170 1.254 . S
C155 O171 1.225 . S
C156 C155 1.491 . S
C156 C157 1.392 . S
C156 C161 1.356 . S
C157 C156 1.392 . S
C157 C158 1.368 . S
C157 H180 0.929 . S
C158 C157 1.368 . S
C158 C159 1.386 . S
C158 H181 0.929 . S
C159 C158 1.386 . S
C159 C160 1.373 . S
C160 C159 1.373 . S
C160 C161 1.409 . S
C160 H182 0.931 . S
C161 C156 1.356 . S
C161 C160 1.409 . S
C161 H183 0.930 . S
C162 O172 1.270 . S
C162 O173 1.248 . S
C163 O174 1.267 . S
C163 O175 1.278 . S
O164 Pr144 2.562 . S
O164 C146 1.254 . S
O165 Pr144 2.490 . S
O165 C146 1.225 . S
O166 Pr144 2.695 1_556 S
O166 Pr145 2.436 1_546 S
O166 C153 1.270 . S
O167 Pr144 2.512 1_556 S
O167 C153 1.248 . S
O168 Pr145 2.438 1_545 S
O168 C154 1.267 . S
O169 Pr144 2.437 . S
O169 C154 1.278 . S
O170 Pr145 2.562 1_556 S
O170 C155 1.254 . S
O171 Pr145 2.490 1_556 S
O171 C155 1.225 . S
O172 Pr144 2.436 1_565 S
O172 Pr145 2.695 . S
O172 C162 1.270 . S
O173 Pr145 2.512 . S
O173 C162 1.248 . S
O174 Pr144 2.438 1_566 S
O174 C163 1.267 . S
O175 Pr145 2.437 1_556 S
O175 C163 1.278 . S
H176 C148 0.929 . S
H177 C149 0.929 . S
H178 C151 0.931 . S
H179 C152 0.930 . S
H180 C157 0.929 . S
H181 C158 0.929 . S
H182 C160 0.931 . S
H183 C161 0.930 . S
Pr184 C186 2.880 . S
Pr184 O204 2.562 . S
Pr184 O205 2.490 . S
Pr184 O206 2.695 . S
Pr184 O207 2.512 . S
Pr184 O209 2.437 . S
Pr184 O212 2.436 . S
Pr184 O214 2.438 . S
Pr185 C195 2.880 . S
Pr185 O206 2.436 . S
Pr185 O208 2.438 . S
Pr185 O210 2.562 . S
Pr185 O211 2.490 . S
Pr185 O212 2.695 . S
Pr185 O213 2.512 . S
Pr185 O215 2.437 . S
C186 Pr184 2.880 . S
C186 C187 1.491 . S
C186 O204 1.254 . S
C186 O205 1.225 . S
C187 C186 1.491 . S
C187 C188 1.392 . S
C187 C192 1.356 . S
C188 C187 1.392 . S
C188 C189 1.368 . S
C188 H216 0.929 . S
C189 C188 1.368 . S
C189 C190 1.386 . S
C189 H217 0.929 . S
C190 C189 1.386 . S
C190 C191 1.373 . S
C191 C190 1.373 . S
C191 C192 1.409 . S
C191 H218 0.931 . S
C192 C187 1.356 . S
C192 C191 1.409 . S
C192 H219 0.930 . S
C193 O206 1.270 . S
C193 O207 1.248 . S
C194 O208 1.267 . S
C194 O209 1.278 . S
C195 Pr185 2.880 . S
C195 C196 1.491 . S
C195 O210 1.254 . S
C195 O211 1.225 . S
C196 C195 1.491 . S
C196 C197 1.392 . S
C196 C201 1.356 . S
C197 C196 1.392 . S
C197 C198 1.368 . S
C197 H220 0.929 . S
C198 C197 1.368 . S
C198 C199 1.386 . S
C198 H221 0.929 . S
C199 C198 1.386 . S
C199 C200 1.373 . S
C200 C199 1.373 . S
C200 C201 1.409 . S
C200 H222 0.931 . S
C201 C196 1.356 . S
C201 C200 1.409 . S
C201 H223 0.930 . S
C202 O212 1.270 . S
C202 O213 1.248 . S
C203 O214 1.267 . S
C203 O215 1.278 . S
O204 Pr184 2.562 . S
O204 C186 1.254 . S
O205 Pr184 2.490 . S
O205 C186 1.225 . S
O206 Pr184 2.695 . S
O206 Pr185 2.436 . S
O206 C193 1.270 . S
O207 Pr184 2.512 . S
O207 C193 1.248 . S
O208 Pr185 2.438 . S
O208 C194 1.267 . S
O209 Pr184 2.437 . S
O209 C194 1.278 . S
O210 Pr185 2.562 . S
O210 C195 1.254 . S
O211 Pr185 2.490 . S
O211 C195 1.225 . S
O212 Pr184 2.436 . S
O212 Pr185 2.695 . S
O212 C202 1.270 . S
O213 Pr185 2.512 . S
O213 C202 1.248 . S
O214 Pr184 2.438 . S
O214 C203 1.267 . S
O215 Pr185 2.437 . S
O215 C203 1.278 . S
H216 C188 0.929 . S
H217 C189 0.929 . S
H218 C191 0.931 . S
H219 C192 0.930 . S
H220 C197 0.929 . S
H221 C198 0.929 . S
H222 C200 0.931 . S
H223 C201 0.930 . S
Pr224 C226 2.880 1_454 S
Pr224 O244 2.562 1_454 S
Pr224 O245 2.490 1_554 S
Pr224 O246 2.695 . S
Pr224 O247 2.512 . S
Pr224 O249 2.437 1_455 S
Pr224 O252 2.436 1_455 S
Pr224 O254 2.438 1_554 S
Pr225 C235 2.880 . S
Pr225 O246 2.436 . S
Pr225 O248 2.438 1_455 S
Pr225 O250 2.562 . S
Pr225 O251 2.490 . S
Pr225 O252 2.695 1_455 S
Pr225 O253 2.512 1_455 S
Pr225 O255 2.437 . S
C226 Pr224 2.880 1_656 S
C226 C227 1.491 . S
C226 O244 1.254 . S
C226 O245 1.225 1_655 S
C227 C226 1.491 . S
C227 C228 1.392 . S
C227 C232 1.356 . S
C228 C227 1.392 . S
C228 C229 1.368 . S
C228 H256 0.929 . S
C229 C228 1.368 . S
C229 C230 1.386 . S
C229 H257 0.929 . S
C230 C229 1.386 . S
C230 C231 1.373 . S
C231 C230 1.373 . S
C231 C232 1.409 . S
C231 H258 0.931 . S
C232 C227 1.356 . S
C232 C231 1.409 . S
C232 H259 0.930 . S
C233 O246 1.270 . S
C233 O247 1.248 . S
C234 O248 1.267 . S
C234 O249 1.278 . S
C235 Pr225 2.880 . S
C235 C236 1.491 . S
C235 O250 1.254 . S
C235 O251 1.225 . S
C236 C235 1.491 . S
C236 C237 1.392 . S
C236 C241 1.356 . S
C237 C236 1.392 . S
C237 C238 1.368 . S
C237 H260 0.929 . S
C238 C237 1.368 . S
C238 C239 1.386 . S
C238 H261 0.929 . S
C239 C238 1.386 . S
C239 C240 1.373 . S
C240 C239 1.373 . S
C240 C241 1.409 . S
C240 H262 0.931 . S
C241 C236 1.356 . S
C241 C240 1.409 . S
C241 H263 0.930 . S
C242 O252 1.270 . S
C242 O253 1.248 . S
C243 O254 1.267 1_554 S
C243 O255 1.278 . S
O244 Pr224 2.562 1_656 S
O244 C226 1.254 . S
O245 Pr224 2.490 1_556 S
O245 C226 1.225 1_455 S
O246 Pr224 2.695 . S
O246 Pr225 2.436 . S
O246 C233 1.270 . S
O247 Pr224 2.512 . S
O247 C233 1.248 . S
O248 Pr225 2.438 1_655 S
O248 C234 1.267 . S
O249 Pr224 2.437 1_655 S
O249 C234 1.278 . S
O250 Pr225 2.562 . S
O250 C235 1.254 . S
O251 Pr225 2.490 . S
O251 C235 1.225 . S
O252 Pr224 2.436 1_655 S
O252 Pr225 2.695 1_655 S
O252 C242 1.270 . S
O253 Pr225 2.512 1_655 S
O253 C242 1.248 . S
O254 Pr224 2.438 1_556 S
O254 C243 1.267 1_556 S
O255 Pr225 2.437 . S
O255 C243 1.278 . S
H256 C228 0.929 . S
H257 C229 0.929 . S
H258 C231 0.931 . S
H259 C232 0.930 . S
H260 C237 0.929 . S
H261 C238 0.929 . S
H262 C240 0.931 . S
H263 C241 0.930 . S
H264 C276 0.930 . S
H265 C278 0.930 . S
H266 C279 0.930 . S
H267 C283 0.959 . S
H268 C283 0.959 . S
H269 C283 0.961 . S
H270 C284 0.960 . S
H271 C284 0.961 . S
H272 C284 0.959 . S
H273 C287 0.929 . S
H274 C288 0.931 . S
H275 C290 0.930 . S
C276 H264 0.930 . S
C276 C277 1.399 . S
C276 C281 1.399 . S
C277 C276 1.399 . S
C277 C278 1.376 . S
C278 H265 0.930 . S
C278 C277 1.376 . S
C278 C279 1.388 . S
C279 H266 0.930 . S
C279 C278 1.388 . S
C279 C280 1.390 . S
C280 C279 1.390 . S
C280 C281 1.394 . S
C280 C286 1.465 . S
C281 C276 1.399 . S
C281 C280 1.394 . S
C281 C282 1.516 . S
C282 C281 1.516 . S
C282 C283 1.502 . S
C282 C284 1.561 . S
C282 C285 1.526 . S
C283 H267 0.959 . S
C283 H268 0.959 . S
C283 H269 0.961 . S
C283 C282 1.502 . S
C284 H270 0.960 . S
C284 H271 0.961 . S
C284 H272 0.959 . S
C284 C282 1.561 . S
C285 C282 1.526 . S
C285 C286 1.396 . S
C285 C290 1.390 . S
C286 C280 1.465 . S
C286 C285 1.396 . S
C286 C287 1.399 . S
C287 H273 0.929 . S
C287 C286 1.399 . S
C287 C288 1.385 . S
C288 H274 0.931 . S
C288 C287 1.385 . S
C288 C289 1.389 . S
C289 C288 1.389 . S
C289 C290 1.387 . S
C290 H275 0.930 . S
C290 C285 1.390 . S
C290 C289 1.387 . S
H291 C303 0.930 . S
H292 C305 0.930 . S
H293 C306 0.930 . S
H294 C310 0.959 . S
H295 C310 0.959 . S
H296 C310 0.961 . S
H297 C311 0.960 . S
H298 C311 0.961 . S
H299 C311 0.959 . S
H300 C314 0.929 . S
H301 C315 0.931 . S
H302 C317 0.930 . S
C303 H291 0.930 . S
C303 C304 1.399 . S
C303 C308 1.399 . S
C304 C303 1.399 . S
C304 C305 1.376 . S
C305 H292 0.930 . S
C305 C304 1.376 . S
C305 C306 1.388 . S
C306 H293 0.930 . S
C306 C305 1.388 . S
C306 C307 1.390 . S
C307 C306 1.390 . S
C307 C308 1.394 . S
C307 C313 1.465 . S
C308 C303 1.399 . S
C308 C307 1.394 . S
C308 C309 1.516 . S
C309 C308 1.516 . S
C309 C310 1.502 . S
C309 C311 1.561 . S
C309 C312 1.526 . S
C310 H294 0.959 . S
C310 H295 0.959 . S
C310 H296 0.961 . S
C310 C309 1.502 . S
C311 H297 0.960 . S
C311 H298 0.961 . S
C311 H299 0.959 . S
C311 C309 1.561 . S
C312 C309 1.526 . S
C312 C313 1.396 . S
C312 C317 1.390 . S
C313 C307 1.465 . S
C313 C312 1.396 . S
C313 C314 1.399 . S
C314 H300 0.929 . S
C314 C313 1.399 . S
C314 C315 1.385 . S
C315 H301 0.931 . S
C315 C314 1.385 . S
C315 C316 1.389 . S
C316 C315 1.389 . S
C316 C317 1.387 . S
C317 H302 0.930 . S
C317 C312 1.390 . S
C317 C316 1.387 . S
H318 C330 0.930 . S
H319 C332 0.930 . S
H320 C333 0.930 . S
H321 C337 0.959 . S
H322 C337 0.959 . S
H323 C337 0.961 . S
H324 C338 0.960 . S
H325 C338 0.961 . S
H326 C338 0.959 . S
H327 C341 0.929 . S
H328 C342 0.931 . S
H329 C344 0.930 . S
C330 H318 0.930 . S
C330 C331 1.399 . S
C330 C335 1.399 . S
C331 C330 1.399 . S
C331 C332 1.376 . S
C332 H319 0.930 . S
C332 C331 1.376 . S
C332 C333 1.388 . S
C333 H320 0.930 . S
C333 C332 1.388 . S
C333 C334 1.390 . S
C334 C333 1.390 . S
C334 C335 1.394 . S
C334 C340 1.465 . S
C335 C330 1.399 . S
C335 C334 1.394 . S
C335 C336 1.516 . S
C336 C335 1.516 . S
C336 C337 1.502 . S
C336 C338 1.561 . S
C336 C339 1.526 . S
C337 H321 0.959 . S
C337 H322 0.959 . S
C337 H323 0.961 . S
C337 C336 1.502 . S
C338 H324 0.960 . S
C338 H325 0.961 . S
C338 H326 0.959 . S
C338 C336 1.561 . S
C339 C336 1.526 . S
C339 C340 1.396 . S
C339 C344 1.390 . S
C340 C334 1.465 . S
C340 C339 1.396 . S
C340 C341 1.399 . S
C341 H327 0.929 . S
C341 C340 1.399 . S
C341 C342 1.385 . S
C342 H328 0.931 . S
C342 C341 1.385 . S
C342 C343 1.389 . S
C343 C342 1.389 . S
C343 C344 1.387 . S
C344 H329 0.930 . S
C344 C339 1.390 . S
C344 C343 1.387 . S
H345 C357 0.930 . S
H346 C359 0.930 . S
H347 C360 0.930 . S
H348 C364 0.959 . S
H349 C364 0.959 1_455 S
H350 C364 0.961 . S
H351 C365 0.960 . S
H352 C365 0.961 . S
H353 C365 0.959 . S
H354 C368 0.929 . S
H355 C369 0.931 . S
H356 C371 0.930 . S
C357 H345 0.930 . S
C357 C358 1.399 . S
C357 C362 1.399 . S
C358 C357 1.399 . S
C358 C359 1.376 . S
C359 H346 0.930 . S
C359 C358 1.376 . S
C359 C360 1.388 . S
C360 H347 0.930 . S
C360 C359 1.388 . S
C360 C361 1.390 . S
C361 C360 1.390 . S
C361 C362 1.394 . S
C361 C367 1.465 . S
C362 C357 1.399 . S
C362 C361 1.394 . S
C362 C363 1.516 . S
C363 C362 1.516 . S
C363 C364 1.502 . S
C363 C365 1.561 . S
C363 C366 1.526 . S
C364 H348 0.959 . S
C364 H349 0.959 1_655 S
C364 H350 0.961 . S
C364 C363 1.502 . S
C365 H351 0.960 . S
C365 H352 0.961 . S
C365 H353 0.959 . S
C365 C363 1.561 . S
C366 C363 1.526 . S
C366 C367 1.396 . S
C366 C371 1.390 . S
C367 C361 1.465 . S
C367 C366 1.396 . S
C367 C368 1.399 . S
C368 H354 0.929 . S
C368 C367 1.399 . S
C368 C369 1.385 . S
C369 H355 0.931 . S
C369 C368 1.385 . S
C369 C370 1.389 . S
C370 C369 1.389 . S
C370 C371 1.387 . S
C371 H356 0.930 . S
C371 C366 1.390 . S
C371 C370 1.387 . S
H372 C384 0.930 . S
H373 C386 0.930 . S
H374 C387 0.930 . S
H375 C391 0.959 . S
H376 C391 0.959 . S
H377 C391 0.961 . S
H378 C392 0.960 . S
H379 C392 0.961 . S
H380 C392 0.959 . S
H381 C395 0.929 . S
H382 C396 0.931 . S
H383 C398 0.930 . S
C384 H372 0.930 . S
C384 C385 1.399 . S
C384 C389 1.399 . S
C385 C384 1.399 . S
C385 C386 1.376 . S
C386 H373 0.930 . S
C386 C385 1.376 . S
C386 C387 1.388 . S
C387 H374 0.930 . S
C387 C386 1.388 . S
C387 C388 1.390 . S
C388 C387 1.390 . S
C388 C389 1.394 . S
C388 C394 1.465 . S
C389 C384 1.399 . S
C389 C388 1.394 . S
C389 C390 1.516 . S
C390 C389 1.516 . S
C390 C391 1.502 . S
C390 C392 1.561 . S
C390 C393 1.526 . S
C391 H375 0.959 . S
C391 H376 0.959 . S
C391 H377 0.961 . S
C391 C390 1.502 . S
C392 H378 0.960 . S
C392 H379 0.961 . S
C392 H380 0.959 . S
C392 C390 1.561 . S
C393 C390 1.526 . S
C393 C394 1.396 . S
C393 C398 1.390 . S
C394 C388 1.465 . S
C394 C393 1.396 . S
C394 C395 1.399 . S
C395 H381 0.929 . S
C395 C394 1.399 . S
C395 C396 1.385 . S
C396 H382 0.931 . S
C396 C395 1.385 . S
C396 C397 1.389 . S
C397 C396 1.389 . S
C397 C398 1.387 . S
C398 H383 0.930 . S
C398 C393 1.390 . S
C398 C397 1.387 . S
H399 C411 0.930 . S
H400 C413 0.930 . S
H401 C414 0.930 . S
H402 C418 0.959 . S
H403 C418 0.959 . S
H404 C418 0.961 . S
H405 C419 0.960 . S
H406 C419 0.961 . S
H407 C419 0.959 . S
H408 C422 0.929 . S
H409 C423 0.931 . S
H410 C425 0.930 . S
C411 H399 0.930 . S
C411 C412 1.399 . S
C411 C416 1.399 . S
C412 C411 1.399 . S
C412 C413 1.376 . S
C413 H400 0.930 . S
C413 C412 1.376 . S
C413 C414 1.388 . S
C414 H401 0.930 . S
C414 C413 1.388 . S
C414 C415 1.390 . S
C415 C414 1.390 . S
C415 C416 1.394 . S
C415 C421 1.465 . S
C416 C411 1.399 . S
C416 C415 1.394 . S
C416 C417 1.516 . S
C417 C416 1.516 . S
C417 C418 1.502 . S
C417 C419 1.561 . S
C417 C420 1.526 . S
C418 H402 0.959 . S
C418 H403 0.959 . S
C418 H404 0.961 . S
C418 C417 1.502 . S
C419 H405 0.960 . S
C419 H406 0.961 . S
C419 H407 0.959 . S
C419 C417 1.561 . S
C420 C417 1.526 . S
C420 C421 1.396 . S
C420 C425 1.390 . S
C421 C415 1.465 . S
C421 C420 1.396 . S
C421 C422 1.399 . S
C422 H408 0.929 . S
C422 C421 1.399 . S
C422 C423 1.385 . S
C423 H409 0.931 . S
C423 C422 1.385 . S
C423 C424 1.389 . S
C424 C423 1.389 . S
C424 C425 1.387 . S
C425 H410 0.930 . S
C425 C420 1.390 . S
C425 C424 1.387 . S
H426 C438 0.930 . S
H427 C440 0.930 . S
H428 C441 0.930 . S
H429 C445 0.959 . S
H430 C445 0.959 . S
H431 C445 0.961 . S
H432 C446 0.960 . S
H433 C446 0.961 . S
H434 C446 0.959 . S
H435 C449 0.929 . S
H436 C450 0.931 . S
H437 C452 0.930 . S
C438 H426 0.930 . S
C438 C439 1.399 . S
C438 C443 1.399 . S
C439 C438 1.399 . S
C439 C440 1.376 . S
C440 H427 0.930 . S
C440 C439 1.376 . S
C440 C441 1.388 . S
C441 H428 0.930 . S
C441 C440 1.388 . S
C441 C442 1.390 . S
C442 C441 1.390 . S
C442 C443 1.394 . S
C442 C448 1.465 . S
C443 C438 1.399 . S
C443 C442 1.394 . S
C443 C444 1.516 . S
C444 C443 1.516 . S
C444 C445 1.502 . S
C444 C446 1.561 . S
C444 C447 1.526 . S
C445 H429 0.959 . S
C445 H430 0.959 . S
C445 H431 0.961 . S
C445 C444 1.502 . S
C446 H432 0.960 . S
C446 H433 0.961 . S
C446 H434 0.959 . S
C446 C444 1.561 . S
C447 C444 1.526 . S
C447 C448 1.396 . S
C447 C452 1.390 . S
C448 C442 1.465 . S
C448 C447 1.396 . S
C448 C449 1.399 . S
C449 H435 0.929 . S
C449 C448 1.399 . S
C449 C450 1.385 . S
C450 H436 0.931 . S
C450 C449 1.385 . S
C450 C451 1.389 . S
C451 C450 1.389 . S
C451 C452 1.387 . S
C452 H437 0.930 . S
C452 C447 1.390 . S
C452 C451 1.387 . S
H453 C465 0.930 . S
H454 C467 0.930 . S
H455 C468 0.930 . S
H456 C472 0.959 . S
H457 C472 0.959 . S
H458 C472 0.961 . S
H459 C473 0.960 . S
H460 C473 0.961 . S
H461 C473 0.959 . S
H462 C476 0.929 . S
H463 C477 0.931 . S
H464 C479 0.930 . S
C465 H453 0.930 . S
C465 C466 1.399 . S
C465 C470 1.399 . S
C466 C465 1.399 . S
C466 C467 1.376 . S
C467 H454 0.930 . S
C467 C466 1.376 . S
C467 C468 1.388 . S
C468 H455 0.930 . S
C468 C467 1.388 . S
C468 C469 1.390 . S
C469 C468 1.390 . S
C469 C470 1.394 . S
C469 C475 1.465 . S
C470 C465 1.399 . S
C470 C469 1.394 . S
C470 C471 1.516 . S
C471 C470 1.516 . S
C471 C472 1.502 . S
C471 C473 1.561 . S
C471 C474 1.526 . S
C472 H456 0.959 . S
C472 H457 0.959 . S
C472 H458 0.961 . S
C472 C471 1.502 . S
C473 H459 0.960 . S
C473 H460 0.961 . S
C473 H461 0.959 . S
C473 C471 1.561 . S
C474 C471 1.526 . S
C474 C475 1.396 . S
C474 C479 1.390 . S
C475 C469 1.465 . S
C475 C474 1.396 . S
C475 C476 1.399 . S
C476 H462 0.929 . S
C476 C475 1.399 . S
C476 C477 1.385 . S
C477 H463 0.931 . S
C477 C476 1.385 . S
C477 C478 1.389 . S
C478 C477 1.389 . S
C478 C479 1.387 . S
C479 H464 0.930 . S
C479 C474 1.390 . S
C479 C478 1.387 . S
H480 C492 0.930 . S
H481 C494 0.930 . S
H482 C495 0.930 . S
H483 C499 0.959 . S
H484 C499 0.959 . S
H485 C499 0.961 . S
H486 C500 0.960 . S
H487 C500 0.961 . S
H488 C500 0.959 . S
H489 C503 0.929 . S
H490 C504 0.931 . S
H491 C506 0.930 . S
C492 H480 0.930 . S
C492 C493 1.399 . S
C492 C497 1.399 . S
C493 C492 1.399 . S
C493 C494 1.376 . S
C494 H481 0.930 . S
C494 C493 1.376 . S
C494 C495 1.388 . S
C495 H482 0.930 . S
C495 C494 1.388 . S
C495 C496 1.390 . S
C496 C495 1.390 . S
C496 C497 1.394 . S
C496 C502 1.465 . S
C497 C492 1.399 . S
C497 C496 1.394 . S
C497 C498 1.516 . S
C498 C497 1.516 . S
C498 C499 1.502 . S
C498 C500 1.561 . S
C498 C501 1.526 . S
C499 H483 0.959 . S
C499 H484 0.959 . S
C499 H485 0.961 . S
C499 C498 1.502 . S
C500 H486 0.960 . S
C500 H487 0.961 . S
C500 H488 0.959 . S
C500 C498 1.561 . S
C501 C498 1.526 . S
C501 C502 1.396 . S
C501 C506 1.390 . S
C502 C496 1.465 . S
C502 C501 1.396 . S
C502 C503 1.399 . S
C503 H489 0.929 . S
C503 C502 1.399 . S
C503 C504 1.385 . S
C504 H490 0.931 . S
C504 C503 1.385 . S
C504 C505 1.389 . S
C505 C504 1.389 . S
C505 C506 1.387 . S
C506 H491 0.930 . S
C506 C501 1.390 . S
C506 C505 1.387 . S
H507 C519 0.930 . S
H508 C521 0.930 . S
H509 C522 0.930 . S
H510 C526 0.959 . S
H511 C526 0.959 . S
H512 C526 0.961 . S
H513 C527 0.960 . S
H514 C527 0.961 . S
H515 C527 0.959 . S
H516 C530 0.929 . S
H517 C531 0.931 . S
H518 C533 0.930 . S
C519 H507 0.930 . S
C519 C520 1.399 . S
C519 C524 1.399 . S
C520 C519 1.399 . S
C520 C521 1.376 . S
C521 H508 0.930 . S
C521 C520 1.376 . S
C521 C522 1.388 . S
C522 H509 0.930 . S
C522 C521 1.388 . S
C522 C523 1.390 . S
C523 C522 1.390 . S
C523 C524 1.394 . S
C523 C529 1.465 . S
C524 C519 1.399 . S
C524 C523 1.394 . S
C524 C525 1.516 . S
C525 C524 1.516 . S
C525 C526 1.502 . S
C525 C527 1.561 . S
C525 C528 1.526 . S
C526 H510 0.959 . S
C526 H511 0.959 . S
C526 H512 0.961 . S
C526 C525 1.502 . S
C527 H513 0.960 . S
C527 H514 0.961 . S
C527 H515 0.959 . S
C527 C525 1.561 . S
C528 C525 1.526 . S
C528 C529 1.396 . S
C528 C533 1.390 . S
C529 C523 1.465 . S
C529 C528 1.396 . S
C529 C530 1.399 . S
C530 H516 0.929 . S
C530 C529 1.399 . S
C530 C531 1.385 . S
C531 H517 0.931 . S
C531 C530 1.385 . S
C531 C532 1.389 . S
C532 C531 1.389 . S
C532 C533 1.387 . S
C533 H518 0.930 . S
C533 C528 1.390 . S
C533 C532 1.387 . S
H534 C546 0.930 . S
H535 C548 0.930 . S
H536 C549 0.930 . S
H537 C553 0.959 . S
H538 C553 0.959 . S
H539 C553 0.961 . S
H540 C554 0.960 . S
H541 C554 0.961 . S
H542 C554 0.959 . S
H543 C557 0.929 . S
H544 C558 0.931 . S
H545 C560 0.930 . S
C546 H534 0.930 . S
C546 C547 1.399 . S
C546 C551 1.399 . S
C547 C546 1.399 . S
C547 C548 1.376 . S
C548 H535 0.930 . S
C548 C547 1.376 . S
C548 C549 1.388 . S
C549 H536 0.930 . S
C549 C548 1.388 . S
C549 C550 1.390 . S
C550 C549 1.390 . S
C550 C551 1.394 . S
C550 C556 1.465 . S
C551 C546 1.399 . S
C551 C550 1.394 . S
C551 C552 1.516 . S
C552 C551 1.516 . S
C552 C553 1.502 . S
C552 C554 1.561 . S
C552 C555 1.526 . S
C553 H537 0.959 . S
C553 H538 0.959 . S
C553 H539 0.961 . S
C553 C552 1.502 . S
C554 H540 0.960 . S
C554 H541 0.961 . S
C554 H542 0.959 . S
C554 C552 1.561 . S
C555 C552 1.526 . S
C555 C556 1.396 . S
C555 C560 1.390 . S
C556 C550 1.465 . S
C556 C555 1.396 . S
C556 C557 1.399 . S
C557 H543 0.929 . S
C557 C556 1.399 . S
C557 C558 1.385 . S
C558 H544 0.931 . S
C558 C557 1.385 . S
C558 C559 1.389 . S
C559 C558 1.389 . S
C559 C560 1.387 . S
C560 H545 0.930 . S
C560 C555 1.390 . S
C560 C559 1.387 . S
H561 C573 0.930 . S
H562 C575 0.930 . S
H563 C576 0.930 . S
H564 C580 0.959 . S
H565 C580 0.959 . S
H566 C580 0.961 . S
H567 C581 0.960 . S
H568 C581 0.961 . S
H569 C581 0.959 . S
H570 C584 0.929 . S
H571 C585 0.931 . S
H572 C587 0.930 . S
C573 H561 0.930 . S
C573 C574 1.399 . S
C573 C578 1.399 . S
C574 C573 1.399 . S
C574 C575 1.376 . S
C575 H562 0.930 . S
C575 C574 1.376 . S
C575 C576 1.388 . S
C576 H563 0.930 . S
C576 C575 1.388 . S
C576 C577 1.390 . S
C577 C576 1.390 . S
C577 C578 1.394 . S
C577 C583 1.465 . S
C578 C573 1.399 . S
C578 C577 1.394 . S
C578 C579 1.516 . S
C579 C578 1.516 . S
C579 C580 1.502 . S
C579 C581 1.561 . S
C579 C582 1.526 . S
C580 H564 0.959 . S
C580 H565 0.959 . S
C580 H566 0.961 . S
C580 C579 1.502 . S
C581 H567 0.960 . S
C581 H568 0.961 . S
C581 H569 0.959 . S
C581 C579 1.561 . S
C582 C579 1.526 . S
C582 C583 1.396 . S
C582 C587 1.390 . S
C583 C577 1.465 . S
C583 C582 1.396 . S
C583 C584 1.399 . S
C584 H570 0.929 . S
C584 C583 1.399 . S
C584 C585 1.385 . S
C585 H571 0.931 . S
C585 C584 1.385 . S
C585 C586 1.389 . S
C586 C585 1.389 . S
C586 C587 1.387 . S
C587 H572 0.930 . S
C587 C582 1.390 . S
C587 C586 1.387 . S
H588 C600 0.930 . S
H589 C602 0.930 . S
H590 C603 0.930 . S
H591 C607 0.959 . S
H592 C607 0.959 . S
H593 C607 0.961 . S
H594 C608 0.960 . S
H595 C608 0.961 . S
H596 C608 0.959 . S
H597 C611 0.929 . S
H598 C612 0.931 . S
H599 C614 0.930 . S
C600 H588 0.930 . S
C600 C601 1.399 . S
C600 C605 1.399 . S
C601 C600 1.399 . S
C601 C602 1.376 . S
C602 H589 0.930 . S
C602 C601 1.376 . S
C602 C603 1.388 . S
C603 H590 0.930 . S
C603 C602 1.388 . S
C603 C604 1.390 . S
C604 C603 1.390 . S
C604 C605 1.394 . S
C604 C610 1.465 . S
C605 C600 1.399 . S
C605 C604 1.394 . S
C605 C606 1.516 . S
C606 C605 1.516 . S
C606 C607 1.502 . S
C606 C608 1.561 . S
C606 C609 1.526 . S
C607 H591 0.959 . S
C607 H592 0.959 . S
C607 H593 0.961 . S
C607 C606 1.502 . S
C608 H594 0.960 . S
C608 H595 0.961 . S
C608 H596 0.959 . S
C608 C606 1.561 . S
C609 C606 1.526 . S
C609 C610 1.396 . S
C609 C614 1.390 . S
C610 C604 1.465 . S
C610 C609 1.396 . S
C610 C611 1.399 . S
C611 H597 0.929 . S
C611 C610 1.399 . S
C611 C612 1.385 . S
C612 H598 0.931 . S
C612 C611 1.385 . S
C612 C613 1.389 . S
C613 C612 1.389 . S
C613 C614 1.387 . S
C614 H599 0.930 . S
C614 C609 1.390 . S
C614 C613 1.387 . S
H615 C627 0.930 . S
H616 C629 0.930 . S
H617 C630 0.930 . S
H618 C634 0.959 . S
H619 C634 0.959 . S
H620 C634 0.961 . S
H621 C635 0.960 . S
H622 C635 0.961 . S
H623 C635 0.959 . S
H624 C638 0.929 . S
H625 C639 0.931 . S
H626 C641 0.930 . S
C627 H615 0.930 . S
C627 C628 1.399 . S
C627 C632 1.399 . S
C628 C627 1.399 . S
C628 C629 1.376 . S
C629 H616 0.930 . S
C629 C628 1.376 . S
C629 C630 1.388 . S
C630 H617 0.930 . S
C630 C629 1.388 . S
C630 C631 1.390 . S
C631 C630 1.390 . S
C631 C632 1.394 . S
C631 C637 1.465 . S
C632 C627 1.399 . S
C632 C631 1.394 . S
C632 C633 1.516 . S
C633 C632 1.516 . S
C633 C634 1.502 . S
C633 C635 1.561 . S
C633 C636 1.526 . S
C634 H618 0.959 . S
C634 H619 0.959 . S
C634 H620 0.961 . S
C634 C633 1.502 . S
C635 H621 0.960 . S
C635 H622 0.961 . S
C635 H623 0.959 . S
C635 C633 1.561 . S
C636 C633 1.526 . S
C636 C637 1.396 . S
C636 C641 1.390 . S
C637 C631 1.465 . S
C637 C636 1.396 . S
C637 C638 1.399 . S
C638 H624 0.929 . S
C638 C637 1.399 . S
C638 C639 1.385 . S
C639 H625 0.931 . S
C639 C638 1.385 . S
C639 C640 1.389 . S
C640 C639 1.389 . S
C640 C641 1.387 . S
C641 H626 0.930 . S
C641 C636 1.390 . S
C641 C640 1.387 . S
H642 C654 0.930 . S
H643 C656 0.930 . S
H644 C657 0.930 . S
H645 C661 0.959 . S
H646 C661 0.959 . S
H647 C661 0.961 . S
H648 C662 0.960 . S
H649 C662 0.961 . S
H650 C662 0.959 . S
H651 C665 0.929 . S
H652 C666 0.931 . S
H653 C668 0.930 . S
C654 H642 0.930 . S
C654 C655 1.399 . S
C654 C659 1.399 . S
C655 C654 1.399 . S
C655 C656 1.376 . S
C656 H643 0.930 . S
C656 C655 1.376 . S
C656 C657 1.388 . S
C657 H644 0.930 . S
C657 C656 1.388 . S
C657 C658 1.390 . S
C658 C657 1.390 . S
C658 C659 1.394 . S
C658 C664 1.465 . S
C659 C654 1.399 . S
C659 C658 1.394 . S
C659 C660 1.516 . S
C660 C659 1.516 . S
C660 C661 1.502 . S
C660 C662 1.561 . S
C660 C663 1.526 . S
C661 H645 0.959 . S
C661 H646 0.959 . S
C661 H647 0.961 . S
C661 C660 1.502 . S
C662 H648 0.960 . S
C662 H649 0.961 . S
C662 H650 0.959 . S
C662 C660 1.561 . S
C663 C660 1.526 . S
C663 C664 1.396 . S
C663 C668 1.390 . S
C664 C658 1.465 . S
C664 C663 1.396 . S
C664 C665 1.399 . S
C665 H651 0.929 . S
C665 C664 1.399 . S
C665 C666 1.385 . S
C666 H652 0.931 . S
C666 C665 1.385 . S
C666 C667 1.389 . S
C667 C666 1.389 . S
C667 C668 1.387 . S
C668 H653 0.930 . S
C668 C663 1.390 . S
C668 C667 1.387 . S
H669 C681 0.930 . S
H670 C683 0.930 . S
H671 C684 0.930 . S
H672 C688 0.959 . S
H673 C688 0.959 . S
H674 C688 0.961 . S
H675 C689 0.960 . S
H676 C689 0.961 . S
H677 C689 0.959 . S
H678 C692 0.929 . S
H679 C693 0.931 . S
H680 C695 0.930 . S
C681 H669 0.930 . S
C681 C682 1.399 . S
C681 C686 1.399 . S
C682 C681 1.399 . S
C682 C683 1.376 . S
C683 H670 0.930 . S
C683 C682 1.376 . S
C683 C684 1.388 . S
C684 H671 0.930 . S
C684 C683 1.388 . S
C684 C685 1.390 . S
C685 C684 1.390 . S
C685 C686 1.394 . S
C685 C691 1.465 . S
C686 C681 1.399 . S
C686 C685 1.394 . S
C686 C687 1.516 . S
C687 C686 1.516 . S
C687 C688 1.502 . S
C687 C689 1.561 . S
C687 C690 1.526 . S
C688 H672 0.959 . S
C688 H673 0.959 . S
C688 H674 0.961 . S
C688 C687 1.502 . S
C689 H675 0.960 . S
C689 H676 0.961 . S
C689 H677 0.959 . S
C689 C687 1.561 . S
C690 C687 1.526 . S
C690 C691 1.396 . S
C690 C695 1.390 . S
C691 C685 1.465 . S
C691 C690 1.396 . S
C691 C692 1.399 . S
C692 H678 0.929 . S
C692 C691 1.399 . S
C692 C693 1.385 . S
C693 H679 0.931 . S
C693 C692 1.385 . S
C693 C694 1.389 . S
C694 C693 1.389 . S
C694 C695 1.387 . S
C695 H680 0.930 . S
C695 C690 1.390 . S
C695 C694 1.387 . S
H696 C708 0.930 . S
H697 C710 0.930 . S
H698 C711 0.930 . S
H699 C715 0.959 . S
H700 C715 0.959 . S
H701 C715 0.961 . S
H702 C716 0.960 . S
H703 C716 0.961 . S
H704 C716 0.959 . S
H705 C719 0.929 . S
H706 C720 0.931 . S
H707 C722 0.930 . S
C708 H696 0.930 . S
C708 C709 1.399 . S
C708 C713 1.399 . S
C709 C708 1.399 . S
C709 C710 1.376 . S
C710 H697 0.930 . S
C710 C709 1.376 . S
C710 C711 1.388 . S
C711 H698 0.930 . S
C711 C710 1.388 . S
C711 C712 1.390 . S
C712 C711 1.390 . S
C712 C713 1.394 . S
C712 C718 1.465 . S
C713 C708 1.399 . S
C713 C712 1.394 . S
C713 C714 1.516 . S
C714 C713 1.516 . S
C714 C715 1.502 . S
C714 C716 1.561 . S
C714 C717 1.526 . S
C715 H699 0.959 . S
C715 H700 0.959 . S
C715 H701 0.961 . S
C715 C714 1.502 . S
C716 H702 0.960 . S
C716 H703 0.961 . S
C716 H704 0.959 . S
C716 C714 1.561 . S
C717 C714 1.526 . S
C717 C718 1.396 . S
C717 C722 1.390 . S
C718 C712 1.465 . S
C718 C717 1.396 . S
C718 C719 1.399 . S
C719 H705 0.929 . S
C719 C718 1.399 . S
C719 C720 1.385 . S
C720 H706 0.931 . S
C720 C719 1.385 . S
C720 C721 1.389 . S
C721 C720 1.389 . S
C721 C722 1.387 . S
C722 H707 0.930 . S
C722 C717 1.390 . S
C722 C721 1.387 . S
H723 C735 0.930 . S
H724 C737 0.930 . S
H725 C738 0.930 . S
H726 C742 0.959 . S
H727 C742 0.959 . S
H728 C742 0.961 . S
H729 C743 0.960 . S
H730 C743 0.961 . S
H731 C743 0.959 . S
H732 C746 0.929 . S
H733 C747 0.931 . S
H734 C749 0.930 1_455 S
C735 H723 0.930 . S
C735 C736 1.399 . S
C735 C740 1.399 . S
C736 C735 1.399 . S
C736 C737 1.376 . S
C737 H724 0.930 . S
C737 C736 1.376 . S
C737 C738 1.388 . S
C738 H725 0.930 . S
C738 C737 1.388 . S
C738 C739 1.390 . S
C739 C738 1.390 . S
C739 C740 1.394 . S
C739 C745 1.465 . S
C740 C735 1.399 . S
C740 C739 1.394 . S
C740 C741 1.516 . S
C741 C740 1.516 . S
C741 C742 1.502 1_655 S
C741 C743 1.561 . S
C741 C744 1.526 . S
C742 H726 0.959 . S
C742 H727 0.959 . S
C742 H728 0.961 . S
C742 C741 1.502 1_455 S
C743 H729 0.960 . S
C743 H730 0.961 . S
C743 H731 0.959 . S
C743 C741 1.561 . S
C744 C741 1.526 . S
C744 C745 1.396 . S
C744 C749 1.390 . S
C745 C739 1.465 . S
C745 C744 1.396 . S
C745 C746 1.399 . S
C746 H732 0.929 . S
C746 C745 1.399 . S
C746 C747 1.385 . S
C747 H733 0.931 . S
C747 C746 1.385 . S
C747 C748 1.389 . S
C748 C747 1.389 . S
C748 C749 1.387 . S
C749 H734 0.930 1_655 S
C749 C744 1.390 . S
C749 C748 1.387 . S
H750 C762 0.930 . S
H751 C764 0.930 . S
H752 C765 0.930 . S
H753 C769 0.959 . S
H754 C769 0.959 . S
H755 C769 0.961 . S
H756 C770 0.960 . S
H757 C770 0.961 . S
H758 C770 0.959 . S
H759 C773 0.929 . S
H760 C774 0.931 . S
H761 C776 0.930 . S
C762 H750 0.930 . S
C762 C763 1.399 . S
C762 C767 1.399 . S
C763 C762 1.399 . S
C763 C764 1.376 . S
C764 H751 0.930 . S
C764 C763 1.376 . S
C764 C765 1.388 . S
C765 H752 0.930 . S
C765 C764 1.388 . S
C765 C766 1.390 . S
C766 C765 1.390 . S
C766 C767 1.394 . S
C766 C772 1.465 . S
C767 C762 1.399 . S
C767 C766 1.394 . S
C767 C768 1.516 . S
C768 C767 1.516 . S
C768 C769 1.502 . S
C768 C770 1.561 . S
C768 C771 1.526 . S
C769 H753 0.959 . S
C769 H754 0.959 . S
C769 H755 0.961 . S
C769 C768 1.502 . S
C770 H756 0.960 . S
C770 H757 0.961 . S
C770 H758 0.959 . S
C770 C768 1.561 . S
C771 C768 1.526 . S
C771 C772 1.396 . S
C771 C776 1.390 . S
C772 C766 1.465 . S
C772 C771 1.396 . S
C772 C773 1.399 . S
C773 H759 0.929 . S
C773 C772 1.399 . S
C773 C774 1.385 . S
C774 H760 0.931 . S
C774 C773 1.385 . S
C774 C775 1.389 . S
C775 C774 1.389 . S
C775 C776 1.387 . S
C776 H761 0.930 . S
C776 C771 1.390 . S
C776 C775 1.387 . S
H777 C789 0.930 . S
H778 C791 0.930 . S
H779 C792 0.930 . S
H780 C796 0.959 . S
H781 C796 0.959 . S
H782 C796 0.961 . S
H783 C797 0.960 . S
H784 C797 0.961 . S
H785 C797 0.959 . S
H786 C800 0.929 . S
H787 C801 0.931 . S
H788 C803 0.930 . S
C789 H777 0.930 . S
C789 C790 1.399 . S
C789 C794 1.399 . S
C790 C789 1.399 . S
C790 C791 1.376 . S
C791 H778 0.930 . S
C791 C790 1.376 . S
C791 C792 1.388 . S
C792 H779 0.930 . S
C792 C791 1.388 . S
C792 C793 1.390 . S
C793 C792 1.390 . S
C793 C794 1.394 . S
C793 C799 1.465 . S
C794 C789 1.399 . S
C794 C793 1.394 . S
C794 C795 1.516 . S
C795 C794 1.516 . S
C795 C796 1.502 . S
C795 C797 1.561 . S
C795 C798 1.526 . S
C796 H780 0.959 . S
C796 H781 0.959 . S
C796 H782 0.961 . S
C796 C795 1.502 . S
C797 H783 0.960 . S
C797 H784 0.961 . S
C797 H785 0.959 . S
C797 C795 1.561 . S
C798 C795 1.526 . S
C798 C799 1.396 . S
C798 C803 1.390 . S
C799 C793 1.465 . S
C799 C798 1.396 . S
C799 C800 1.399 . S
C800 H786 0.929 . S
C800 C799 1.399 . S
C800 C801 1.385 . S
C801 H787 0.931 . S
C801 C800 1.385 . S
C801 C802 1.389 . S
C802 C801 1.389 . S
C802 C803 1.387 . S
C803 H788 0.930 . S
C803 C798 1.390 . S
C803 C802 1.387 . S
H804 C816 0.930 . S
H805 C818 0.930 . S
H806 C819 0.930 . S
H807 C823 0.959 . S
H808 C823 0.959 . S
H809 C823 0.961 . S
H810 C824 0.960 . S
H811 C824 0.961 . S
H812 C824 0.959 . S
H813 C827 0.929 . S
H814 C828 0.931 . S
H815 C830 0.930 . S
C816 H804 0.930 . S
C816 C817 1.399 . S
C816 C821 1.399 . S
C817 C816 1.399 . S
C817 C818 1.376 . S
C818 H805 0.930 . S
C818 C817 1.376 . S
C818 C819 1.388 . S
C819 H806 0.930 . S
C819 C818 1.388 . S
C819 C820 1.390 . S
C820 C819 1.390 . S
C820 C821 1.394 . S
C820 C826 1.465 . S
C821 C816 1.399 . S
C821 C820 1.394 . S
C821 C822 1.516 . S
C822 C821 1.516 . S
C822 C823 1.502 . S
C822 C824 1.561 . S
C822 C825 1.526 . S
C823 H807 0.959 . S
C823 H808 0.959 . S
C823 H809 0.961 . S
C823 C822 1.502 . S
C824 H810 0.960 . S
C824 H811 0.961 . S
C824 H812 0.959 . S
C824 C822 1.561 . S
C825 C822 1.526 . S
C825 C826 1.396 . S
C825 C830 1.390 . S
C826 C820 1.465 . S
C826 C825 1.396 . S
C826 C827 1.399 . S
C827 H813 0.929 . S
C827 C826 1.399 . S
C827 C828 1.385 . S
C828 H814 0.931 . S
C828 C827 1.385 . S
C828 C829 1.389 . S
C829 C828 1.389 . S
C829 C830 1.387 . S
C830 H815 0.930 . S
C830 C825 1.390 . S
C830 C829 1.387 . S
H831 C843 0.930 . S
H832 C845 0.930 . S
H833 C846 0.930 . S
H834 C850 0.959 . S
H835 C850 0.959 . S
H836 C850 0.961 . S
H837 C851 0.960 . S
H838 C851 0.961 . S
H839 C851 0.959 . S
H840 C854 0.929 . S
H841 C855 0.931 . S
H842 C857 0.930 . S
C843 H831 0.930 . S
C843 C844 1.399 . S
C843 C848 1.399 . S
C844 C843 1.399 . S
C844 C845 1.376 . S
C845 H832 0.930 . S
C845 C844 1.376 . S
C845 C846 1.388 . S
C846 H833 0.930 . S
C846 C845 1.388 . S
C846 C847 1.390 . S
C847 C846 1.390 . S
C847 C848 1.394 . S
C847 C853 1.465 . S
C848 C843 1.399 . S
C848 C847 1.394 . S
C848 C849 1.516 . S
C849 C848 1.516 . S
C849 C850 1.502 . S
C849 C851 1.561 . S
C849 C852 1.526 . S
C850 H834 0.959 . S
C850 H835 0.959 . S
C850 H836 0.961 . S
C850 C849 1.502 . S
C851 H837 0.960 . S
C851 H838 0.961 . S
C851 H839 0.959 . S
C851 C849 1.561 . S
C852 C849 1.526 . S
C852 C853 1.396 . S
C852 C857 1.390 . S
C853 C847 1.465 . S
C853 C852 1.396 . S
C853 C854 1.399 . S
C854 H840 0.929 . S
C854 C853 1.399 . S
C854 C855 1.385 . S
C855 H841 0.931 . S
C855 C854 1.385 . S
C855 C856 1.389 . S
C856 C855 1.389 . S
C856 C857 1.387 . S
C857 H842 0.930 . S
C857 C852 1.390 . S
C857 C856 1.387 . S
H858 C870 0.930 . S
H859 C872 0.930 . S
H860 C873 0.930 . S
H861 C877 0.959 . S
H862 C877 0.959 . S
H863 C877 0.961 . S
H864 C878 0.960 . S
H865 C878 0.961 . S
H866 C878 0.959 . S
H867 C881 0.929 . S
H868 C882 0.931 . S
H869 C884 0.930 . S
C870 H858 0.930 . S
C870 C871 1.399 . S
C870 C875 1.399 . S
C871 C870 1.399 . S
C871 C872 1.376 . S
C872 H859 0.930 . S
C872 C871 1.376 . S
C872 C873 1.388 . S
C873 H860 0.930 . S
C873 C872 1.388 . S
C873 C874 1.390 . S
C874 C873 1.390 . S
C874 C875 1.394 . S
C874 C880 1.465 . S
C875 C870 1.399 . S
C875 C874 1.394 . S
C875 C876 1.516 . S
C876 C875 1.516 . S
C876 C877 1.502 . S
C876 C878 1.561 . S
C876 C879 1.526 . S
C877 H861 0.959 . S
C877 H862 0.959 . S
C877 H863 0.961 . S
C877 C876 1.502 . S
C878 H864 0.960 . S
C878 H865 0.961 . S
C878 H866 0.959 . S
C878 C876 1.561 . S
C879 C876 1.526 . S
C879 C880 1.396 . S
C879 C884 1.390 . S
C880 C874 1.465 . S
C880 C879 1.396 . S
C880 C881 1.399 . S
C881 H867 0.929 . S
C881 C880 1.399 . S
C881 C882 1.385 . S
C882 H868 0.931 . S
C882 C881 1.385 . S
C882 C883 1.389 . S
C883 C882 1.389 . S
C883 C884 1.387 . S
C884 H869 0.930 . S
C884 C879 1.390 . S
C884 C883 1.387 . S
H885 C897 0.930 . S
H886 C899 0.930 . S
H887 C900 0.930 . S
H888 C904 0.959 . S
H889 C904 0.959 . S
H890 C904 0.961 . S
H891 C905 0.960 . S
H892 C905 0.961 . S
H893 C905 0.959 . S
H894 C908 0.929 . S
H895 C909 0.931 . S
H896 C911 0.930 . S
C897 H885 0.930 . S
C897 C898 1.399 . S
C897 C902 1.399 . S
C898 C897 1.399 . S
C898 C899 1.376 . S
C899 H886 0.930 . S
C899 C898 1.376 . S
C899 C900 1.388 . S
C900 H887 0.930 . S
C900 C899 1.388 . S
C900 C901 1.390 . S
C901 C900 1.390 . S
C901 C902 1.394 . S
C901 C907 1.465 . S
C902 C897 1.399 . S
C902 C901 1.394 . S
C902 C903 1.516 . S
C903 C902 1.516 . S
C903 C904 1.502 . S
C903 C905 1.561 . S
C903 C906 1.526 . S
C904 H888 0.959 . S
C904 H889 0.959 . S
C904 H890 0.961 . S
C904 C903 1.502 . S
C905 H891 0.960 . S
C905 H892 0.961 . S
C905 H893 0.959 . S
C905 C903 1.561 . S
C906 C903 1.526 . S
C906 C907 1.396 . S
C906 C911 1.390 . S
C907 C901 1.465 . S
C907 C906 1.396 . S
C907 C908 1.399 . S
C908 H894 0.929 . S
C908 C907 1.399 . S
C908 C909 1.385 . S
C909 H895 0.931 . S
C909 C908 1.385 . S
C909 C910 1.389 . S
C910 C909 1.389 . S
C910 C911 1.387 . S
C911 H896 0.930 . S
C911 C906 1.390 . S
C911 C910 1.387 . S
C277 C9 1.396 . S
C289 C119 1.425 . S
C304 C21 1.427 . S
C316 C163 1.361 . S
C343 C193 2.013 . S
C331 C30 1.953 . S
C358 C43 2.469 . S
C370 C234 2.522 . S
C397 C150 0.704 . S
C385 C4 0.838 . S
C424 C114 2.946 . S
C412 C22 2.926 . S
C451 C242 0.869 1_556 S
C439 C34 0.893 . S
C478 C203 1.979 . S
C466 C48 1.972 . S
C493 C8 1.221 . S
C505 C239 1.162 . S
C532 C153 1.770 . S
C520 C35 1.834 . S
C547 C47 2.155 . S
C559 C122 2.097 . S
C574 C17 1.984 . S
C586 C190 2.028 . S
C613 C110 0.922 . S
C601 C60 0.892 . S
C628 C74 1.489 . S
C640 C154 1.487 . S
C655 C82 1.463 . S
C667 C202 1.658 . S
C682 C100 3.011 . S
C694 C243 2.967 1_556 S
C709 C61 1.148 . S
C721 C159 1.091 . S
C748 C123 2.315 . S
C736 C73 2.272 . S
C775 C233 1.361 . S
C763 C87 1.391 . S
C802 C194 1.973 . S
C790 C95 2.106 . S
C817 C56 0.955 . S
C829 C230 1.015 . S
C856 C162 2.116 . S
C844 C86 2.185 . S
C883 C113 2.013 . S
C871 C99 1.999 . S
C898 C69 1.693 . S
C910 C199 1.835 . S
