# Generated by pormake.
# Topology anh, (6,3)-cn, num edge types: 1
# Building blocks:
#     Node 0, Type 0, BuildingBlock: VOLQOD_clean_sbu_1, # of connection points: 6
#     Node 1, Type 0, BuildingBlock: VOLQOD_clean_sbu_1, # of connection points: 6
#     Node 2, Type 0, BuildingBlock: VOLQOD_clean_sbu_1, # of connection points: 6
#     Node 3, Type 1, BuildingBlock: CUQRIR_clean_linker_1, # of connection points: 3
#     Node 4, Type 1, BuildingBlock: CUQRIR_clean_linker_1, # of connection points: 3
#     Node 5, Type 1, BuildingBlock: CUQRIR_clean_linker_1, # of connection points: 3
#     Node 6, Type 1, BuildingBlock: CUQRIR_clean_linker_1, # of connection points: 3
#     Node 7, Type 1, BuildingBlock: CUQRIR_clean_linker_1, # of connection points: 3
#     Node 8, Type 1, BuildingBlock: CUQRIR_clean_linker_1, # of connection points: 3
#     Edge 9, Type (0, 1), BuildingBlock: XUDNAN_clean_linker_2, # of connection points: 2
#     Edge 10, Type (0, 1), BuildingBlock: XUDNAN_clean_linker_2, # of connection points: 2
#     Edge 11, Type (0, 1), BuildingBlock: XUDNAN_clean_linker_2, # of connection points: 2
#     Edge 12, Type (0, 1), BuildingBlock: XUDNAN_clean_linker_2, # of connection points: 2
#     Edge 13, Type (0, 1), BuildingBlock: XUDNAN_clean_linker_2, # of connection points: 2
#     Edge 14, Type (0, 1), BuildingBlock: XUDNAN_clean_linker_2, # of connection points: 2
#     Edge 15, Type (0, 1), BuildingBlock: XUDNAN_clean_linker_2, # of connection points: 2
#     Edge 16, Type (0, 1), BuildingBlock: XUDNAN_clean_linker_2, # of connection points: 2
#     Edge 17, Type (0, 1), BuildingBlock: XUDNAN_clean_linker_2, # of connection points: 2
#     Edge 18, Type (0, 1), BuildingBlock: XUDNAN_clean_linker_2, # of connection points: 2
#     Edge 19, Type (0, 1), BuildingBlock: XUDNAN_clean_linker_2, # of connection points: 2
#     Edge 20, Type (0, 1), BuildingBlock: XUDNAN_clean_linker_2, # of connection points: 2
#     Edge 21, Type (0, 1), BuildingBlock: XUDNAN_clean_linker_2, # of connection points: 2
#     Edge 22, Type (0, 1), BuildingBlock: XUDNAN_clean_linker_2, # of connection points: 2
#     Edge 23, Type (0, 1), BuildingBlock: XUDNAN_clean_linker_2, # of connection points: 2
#     Edge 24, Type (0, 1), BuildingBlock: XUDNAN_clean_linker_2, # of connection points: 2
#     Edge 25, Type (0, 1), BuildingBlock: XUDNAN_clean_linker_2, # of connection points: 2
#     Edge 26, Type (0, 1), BuildingBlock: XUDNAN_clean_linker_2, # of connection points: 2
# Relax obj value: 0.187
# Max RMSD: 0.221
# Mean RMSD: 0.170
data_MOF--net-anh--node1-VOLQOD_clean_sbu_1--node2-CUQRIR_clean_linker_1--edge1-XUDNAN_clean_linker_2
_symmetry_space_group_name_H-M    P1
_symmetry_Int_Tables_number       1
_symmetry_cell_setting            triclinic
loop_
_symmetry_equiv_pos_as_xyz
'x, y, z'
_cell_length_a     27.210536
_cell_length_b     27.115072
_cell_length_c     53.335257
_cell_angle_alpha  85.259839
_cell_angle_beta   89.62162
_cell_angle_gamma 120.29221
loop_
_atom_site_label
_atom_site_type_symbol
_atom_site_fract_x
_atom_site_fract_y
_atom_site_fract_z
_atom_type_partial_charge
O0 O -0.00631 0.51959 0.22094 0.0
Zn1 Zn 0.99249 0.5475 0.18457 0.0
O2 O -0.0007 0.49767 0.16258 0.0
Zn3 Zn 0.93246 0.45561 0.14426 0.0
Zn4 Zn 0.01441 0.44374 0.18185 0.0
Zn5 Zn 0.05735 0.54273 0.13692 0.0
O6 O 0.95296 0.45371 0.10774 0.0
O7 O 0.02658 0.54268 0.10283 0.0
O8 O 0.92107 0.55148 0.17667 0.0
O9 O 0.88949 0.49739 0.14453 0.0
O10 O 0.88128 0.37676 0.16261 0.0
O11 O 0.93985 0.36983 0.18968 0.0
O12 O 0.07438 0.43326 0.16333 0.0
O13 O 0.0628 0.62728 0.1795 0.0
O14 O 0.10265 0.50516 0.13302 0.0
O15 O 0.10875 0.62228 0.14615 0.0
C16 C 0.01866 0.49347 0.2301 0.0
C17 C 0.98945 0.49764 0.0935 0.0
C18 C 0.89075 0.34974 0.18084 0.0
C19 C 0.8872 0.5316 0.15887 0.0
C20 C 0.10554 0.46301 0.14362 0.0
C21 C 0.1056 0.64993 0.16366 0.0
O22 O 0.03692 0.46925 0.21624 0.0
O23 O 0.52493 0.03303 0.45407 0.0
Zn24 Zn 0.50188 0.02781 0.491 0.0
O25 O 0.55984 0.02722 0.51241 0.0
Zn26 Zn 0.59495 0.09363 0.53088 0.0
Zn27 Zn 0.61869 0.02496 0.49196 0.0
Zn28 Zn 0.52444 0.96286 0.53759 0.0
O29 O 0.59855 0.07542 0.56834 0.0
O30 O 0.52933 0.98433 0.57288 0.0
O31 O 0.48701 0.09196 0.49845 0.0
O32 O 0.54976 0.13215 0.52764 0.0
O33 O 0.67007 0.15139 0.51403 0.0
O34 O 0.69033 0.10327 0.48802 0.0
O35 O 0.63427 0.96228 0.50644 0.0
O36 O 0.42821 0.95235 0.49732 0.0
O37 O 0.56548 0.92053 0.5368 0.0
O38 O 0.44404 0.90827 0.53047 0.0
C39 C 0.55957 0.02126 0.44351 0.0
C40 C 0.56491 0.02973 0.58239 0.0
C41 C 0.70258 0.14965 0.49734 0.0
C42 C 0.51005 0.12907 0.51426 0.0
C43 C 0.60727 0.92345 0.52462 0.0
C44 C 0.41163 0.9092 0.51361 0.0
O45 O 0.59416 0.01205 0.45627 0.0
O46 O 0.54318 0.64792 0.77788 0.0
Zn47 Zn 0.53134 0.61858 0.81513 0.0
O48 O 0.60106 0.66092 0.83299 0.0
Zn49 Zn 0.59019 0.6984 0.85962 0.0
Zn50 Zn 0.6609 0.71995 0.80958 0.0
Zn51 Zn 0.62264 0.60812 0.84871 0.0
O52 O 0.61886 0.68379 0.89253 0.0
O53 O 0.61977 0.60409 0.88692 0.0
O54 O 0.46353 0.61497 0.83389 0.0
O55 O 0.50701 0.66551 0.86579 0.0
O56 O 0.62379 0.78272 0.84973 0.0
O57 O 0.67088 0.79835 0.81308 0.0
O58 O 0.73503 0.72017 0.81374 0.0
O59 O 0.51529 0.53828 0.81288 0.0
O60 O 0.70303 0.63696 0.83732 0.0
O61 O 0.57717 0.52952 0.83699 0.0
C62 C 0.58995 0.6757 0.76443 0.0
C63 C 0.62333 0.64108 0.9012 0.0
C64 C 0.65338 0.81619 0.83049 0.0
C65 C 0.46183 0.63472 0.85464 0.0
C66 C 0.74281 0.68103 0.82446 0.0
C67 C 0.5367 0.50899 0.82211 0.0
O68 O 0.63776 0.70178 0.77447 0.0
C69 C 0.47954 0.01559 0.22477 0.0
N70 N 0.51661 0.03481 0.24335 0.0
N71 N 0.43243 0.96466 0.23263 0.0
C72 C 0.48609 0.04976 0.19994 0.0
C73 C 0.44145 0.95428 0.25698 0.0
N74 N 0.49224 -0.00289 0.26356 0.0
C75 C 0.40338 0.89997 0.27367 0.0
H76 H 0.44375 0.03961 0.19326 0.0
H77 H 0.50775 0.03891 0.18555 0.0
H78 H 0.51207 0.09649 0.20172 0.0
H79 H 0.38365 0.86244 0.26252 0.0
H80 H 0.36886 0.90392 0.28272 0.0
H81 H 0.42741 0.89225 0.2887 0.0
C82 C 0.5533 0.51324 0.56144 0.0
N83 N 0.57098 0.55618 0.5765 0.0
N84 N 0.53146 0.46205 0.5754 0.0
C85 C 0.55322 0.52049 0.53314 0.0
C86 C 0.53615 0.47516 0.59956 0.0
N87 N 0.55975 0.53259 0.60026 0.0
C88 C 0.52221 0.4325 0.6222 0.0
H89 H 0.51947 0.48069 0.5259 0.0
H90 H 0.59507 0.53012 0.52494 0.0
H91 H 0.54642 0.55651 0.52681 0.0
H92 H 0.5502 0.45303 0.63772 0.0
H93 H 0.52681 0.39598 0.61733 0.0
H94 H 0.47731 0.41536 0.62892 0.0
C95 C 0.07909 0.60467 0.87246 0.0
N96 N 0.09048 0.58075 0.8933 0.0
N97 N 0.03117 0.60665 0.87673 0.0
C98 C 0.11644 0.62944 0.84852 0.0
C99 C 0.01401 0.58388 0.90085 0.0
N100 N 0.05023 0.56852 0.911 0.0
C101 C 0.96422 0.58031 0.91513 0.0
H102 H 0.16212 0.65174 0.85282 0.0
H103 H 0.10753 0.6599 0.83717 0.0
H104 H 0.10819 0.59406 0.83699 0.0
H105 H 0.9319 0.57937 0.90234 0.0
H106 H 0.97996 0.6186 0.92571 0.0
H107 H 0.94397 0.54161 0.92895 0.0
C108 C 0.06016 0.53133 0.4503 0.0
N109 N 0.03575 0.50172 0.43046 0.0
N110 N 0.1097 0.58002 0.44273 0.0
C111 C 0.03362 0.51429 0.47676 0.0
C112 C 0.11389 0.57915 0.41742 0.0
N113 N 0.06846 0.53162 0.40998 0.0
C114 C 0.16405 0.62222 0.40027 0.0
H115 H 0.98641 0.49048 0.47672 0.0
H116 H 0.04763 0.55245 0.48727 0.0
H117 H 0.04665 0.48549 0.48672 0.0
H118 H 0.20375 0.64159 0.41062 0.0
H119 H 0.15624 0.65688 0.39272 0.0
H120 H 0.16978 0.60195 0.38412 0.0
C121 C 0.60561 0.18112 0.78115 0.0
N122 N 0.6062 0.13594 0.77221 0.0
N123 N 0.56822 0.1925 0.76903 0.0
C124 C 0.6472 0.21874 0.79928 0.0
C125 C 0.54653 0.15287 0.75223 0.0
N126 N 0.56979 0.11901 0.75395 0.0
C127 C 0.50145 0.14565 0.73425 0.0
H128 H 0.62657 0.20664 0.81854 0.0
H129 H 0.66091 0.26446 0.79389 0.0
H130 H 0.68526 0.21377 0.79962 0.0
H131 H 0.5223 0.17197 0.71617 0.0
H132 H 0.47277 0.15925 0.74206 0.0
H133 H 0.47566 0.10018 0.73021 0.0
C134 C 0.49338 0.50187 0.10846 0.0
N135 N 0.54432 0.51306 0.09816 0.0
N136 N 0.4505 0.47028 0.0937 0.0
C137 C 0.48736 0.53499 0.12848 0.0
C138 C 0.47739 0.46465 0.07367 0.0
N139 N 0.53481 0.49379 0.0754 0.0
C140 C 0.44755 0.43229 0.05164 0.0
H141 H 0.46947 0.50667 0.14635 0.0
H142 H 0.45741 0.54987 0.12285 0.0
H143 H 0.5289 0.57327 0.13163 0.0
H144 H 0.45419 0.46308 0.0351 0.0
H145 H 0.4012 0.4034 0.05614 0.0
H146 H 0.46552 0.40557 0.0465 0.0
H147 H 0.17173 0.42224 0.16583 0.0
H148 H 0.13 0.47459 0.09381 0.0
H149 H 0.20767 0.47009 0.07258 0.0
H150 H 0.31665 0.50408 0.15617 0.0
H151 H 0.3345 0.45323 0.17079 0.0
H152 H 0.26928 0.44979 0.18044 0.0
H153 H 0.21111 0.34388 0.17051 0.0
H154 H 0.27636 0.34671 0.16114 0.0
H155 H 0.21971 0.32546 0.13971 0.0
H156 H 0.29944 0.4815 0.06058 0.0
H157 H 0.39574 0.49533 0.05724 0.0
H158 H 0.37712 0.42597 0.13516 0.0
C159 C 0.17781 0.43056 0.14551 0.0
C160 C 0.14506 0.44887 0.13144 0.0
C161 C 0.15491 0.46084 0.10494 0.0
C162 C 0.19877 0.45817 0.09266 0.0
C163 C 0.23213 0.44276 0.10707 0.0
C164 C 0.22178 0.42797 0.13281 0.0
C165 C 0.26758 0.4177 0.14383 0.0
C166 C 0.29883 0.45865 0.16399 0.0
C167 C 0.24216 0.35468 0.15442 0.0
C168 C 0.30633 0.43189 0.12047 0.0
C169 C 0.2847 0.44601 0.09952 0.0
C170 C 0.31577 0.46797 0.07649 0.0
C171 C 0.37033 0.47531 0.07471 0.0
C172 C 0.39285 0.45927 0.09559 0.0
C173 C 0.36018 0.43703 0.11874 0.0
H174 H 0.81481 0.18451 0.48484 0.0
H175 H 0.68876 0.23749 0.48029 0.0
H176 H 0.75842 0.32823 0.45591 0.0
H177 H 0.92834 0.32166 0.49653 0.0
H178 H 0.98222 0.31642 0.47908 0.0
H179 H 0.92026 0.25236 0.49313 0.0
H180 H 0.89893 0.21262 0.44943 0.0
H181 H 0.96038 0.2773 0.43521 0.0
H182 H 0.89105 0.25405 0.42321 0.0
H183 H 0.84089 0.41377 0.43352 0.0
H184 H 0.93716 0.4971 0.42144 0.0
H185 H 0.0125 0.394 0.4434 0.0
C186 C 0.80215 0.21525 0.47849 0.0
C187 C 0.74674 0.20439 0.48427 0.0
C188 C 0.73137 0.24555 0.4761 0.0
C189 C 0.7703 0.29677 0.46199 0.0
C190 C 0.82466 0.30646 0.45647 0.0
C191 C 0.84117 0.26761 0.46492 0.0
C192 C 0.90426 0.29207 0.45907 0.0
C193 C 0.9356 0.29587 0.4834 0.0
C194 C 0.91422 0.25689 0.44063 0.0
C195 C 0.9206 0.35103 0.44665 0.0
C196 C 0.87357 0.35761 0.44459 0.0
C197 C 0.87802 0.40907 0.43476 0.0
C198 C 0.9324 0.45586 0.4278 0.0
C199 C 0.98104 0.45079 0.43119 0.0
C200 C 0.9752 0.39768 0.44014 0.0
H201 H 0.68205 0.88915 0.7868 0.0
H202 H 0.64024 0.87425 0.86683 0.0
H203 H 0.6362 0.963 0.8608 0.0
H204 H 0.76752 0.05155 0.77789 0.0
H205 H 0.7402 0.05352 0.74735 0.0
H206 H 0.74948 0.99419 0.75835 0.0
H207 H 0.6434 0.9234 0.75107 0.0
H208 H 0.63368 0.98244 0.74039 0.0
H209 H 0.5888 0.93163 0.76616 0.0
H210 H 0.61787 0.03979 0.84553 0.0
H211 H 0.59448 0.10643 0.8223 0.0
H212 H 0.65734 0.08108 0.75237 0.0
C213 C 0.67409 0.90571 0.80318 0.0
C214 C 0.66166 0.87477 0.82733 0.0
C215 C 0.64997 0.89712 0.84818 0.0
C216 C 0.6477 0.94765 0.84496 0.0
C217 C 0.65784 0.97582 0.82082 0.0
C218 C 0.67172 0.95638 0.80029 0.0
C219 C 0.67574 0.99233 0.77609 0.0
C220 C 0.73689 0.02484 0.76422 0.0
C221 C 0.63285 0.95522 0.75734 0.0
C222 C 0.65951 0.0332 0.78618 0.0
C223 C 0.64968 0.0229 0.81205 0.0
C224 C 0.62764 0.04997 0.82541 0.0
C225 C 0.61497 0.08833 0.81203 0.0
C226 C 0.62539 0.10058 0.78553 0.0
C227 C 0.64889 0.0731 0.77255 0.0
H228 H 0.85064 0.55198 0.11412 0.0
H229 H 0.82025 0.53963 0.19487 0.0
H230 H 0.73262 0.54425 0.18793 0.0
H231 H 0.79363 0.65107 0.09722 0.0
H232 H 0.76424 0.61673 0.06911 0.0
H233 H 0.82831 0.62081 0.0805 0.0
H234 H 0.78063 0.51029 0.08142 0.0
H235 H 0.7165 0.50587 0.07026 0.0
H236 H 0.71373 0.46495 0.0992 0.0
H237 H 0.63929 0.52745 0.17216 0.0
H238 H 0.5549 0.50662 0.14957 0.0
H239 H 0.65206 0.54336 0.07854 0.0
C240 C 0.82636 0.55202 0.13029 0.0
C241 C 0.84188 0.54556 0.15502 0.0
C242 C 0.80919 0.54525 0.1758 0.0
C243 C 0.75937 0.54765 0.17201 0.0
C244 C 0.74409 0.55199 0.14733 0.0
C245 C 0.77748 0.55579 0.1268 0.0
C246 C 0.75012 0.55705 0.10231 0.0
C247 C 0.78623 0.61487 0.08635 0.0
C248 C 0.73962 0.50653 0.08745 0.0
C249 C 0.69472 0.55044 0.1123 0.0
C250 C 0.69209 0.54761 0.13826 0.0
C251 C 0.64213 0.53324 0.15178 0.0
C252 C 0.59406 0.5225 0.13846 0.0
C253 C 0.59601 0.52827 0.1116 0.0
C254 C 0.64773 0.5418 0.09866 0.0
H255 H 0.33447 0.89047 0.47738 0.0
H256 H 0.36678 0.80695 0.543 0.0
H257 H 0.287 0.7138 0.5335 0.0
H258 H 0.17506 0.79373 0.48177 0.0
H259 H 0.1724 0.79552 0.44796 0.0
H260 H 0.22633 0.85686 0.46211 0.0
H261 H 0.30432 0.85343 0.43546 0.0
H262 H 0.25093 0.79143 0.42165 0.0
H263 H 0.30769 0.7885 0.43762 0.0
H264 H 0.21709 0.62912 0.51294 0.0
H265 H 0.15113 0.55829 0.48533 0.0
H266 H 0.15835 0.69564 0.43482 0.0
C267 C 0.32366 0.85292 0.49023 0.0
C268 C 0.35705 0.85608 0.51088 0.0
C269 C 0.34188 0.80574 0.52705 0.0
C270 C 0.29662 0.75252 0.52182 0.0
C271 C 0.26639 0.75053 0.50063 0.0
C272 C 0.27831 0.79945 0.48538 0.0
C273 C 0.24162 0.78487 0.46285 0.0
C274 C 0.20145 0.80918 0.46374 0.0
C275 C 0.27835 0.8058 0.43794 0.0
C276 C 0.20898 0.72005 0.46732 0.0
C277 C 0.22392 0.7012 0.48924 0.0
C278 C 0.20358 0.64322 0.49617 0.0
C279 C 0.16624 0.60339 0.48045 0.0
C280 C 0.14912 0.62168 0.45831 0.0
C281 C 0.17072 0.68073 0.45173 0.0
H282 H 0.53563 0.41417 0.84532 0.0
H283 H 0.51076 0.48555 0.77395 0.0
H284 H 0.51049 0.40807 0.75276 0.0
H285 H 0.62791 0.37442 0.82398 0.0
H286 H 0.59918 0.30693 0.84321 0.0
H287 H 0.5905 0.36352 0.85381 0.0
H288 H 0.48087 0.29625 0.85824 0.0
H289 H 0.4892 0.23884 0.84825 0.0
H290 H 0.44355 0.25929 0.8318 0.0
H291 H 0.53481 0.33741 0.73828 0.0
H292 H 0.55983 0.2633 0.73249 0.0
H293 H 0.5515 0.22576 0.81352 0.0
C294 C 0.52815 0.41218 0.82541 0.0
C295 C 0.523 0.45556 0.81127 0.0
C296 C 0.51395 0.45221 0.78519 0.0
C297 C 0.51417 0.40863 0.77294 0.0
C298 C 0.52166 0.36779 0.7872 0.0
C299 C 0.52635 0.3678 0.813 0.0
C300 C 0.53499 0.31935 0.82373 0.0
C301 C 0.5915 0.34248 0.83696 0.0
C302 C 0.48411 0.27584 0.84156 0.0
C303 C 0.53712 0.29398 0.79978 0.0
C304 C 0.53009 0.32307 0.77891 0.0
C305 C 0.53771 0.31245 0.75451 0.0
C306 C 0.55158 0.27004 0.75139 0.0
C307 C 0.55582 0.23741 0.77252 0.0
C308 C 0.54833 0.2497 0.797 0.0
H309 H 0.5583 0.83945 0.56335 0.0
H310 H 0.68647 0.90386 0.50145 0.0
H311 H 0.69949 0.82025 0.51136 0.0
H312 H 0.62102 0.77397 0.6061 0.0
H313 H 0.55166 0.71421 0.61646 0.0
H314 H 0.56028 0.78378 0.60732 0.0
H315 H 0.48259 0.73913 0.57491 0.0
H316 H 0.47389 0.66972 0.58385 0.0
H317 H 0.49072 0.69938 0.55134 0.0
H318 H 0.69112 0.72418 0.52606 0.0
H319 H 0.65939 0.62382 0.54274 0.0
H320 H 0.53127 0.62227 0.59179 0.0
C321 C 0.59012 0.83702 0.55207 0.0
C322 C 0.62146 0.87833 0.53159 0.0
C323 C 0.6622 0.87288 0.5173 0.0
C324 C 0.66993 0.82565 0.52285 0.0
C325 C 0.63677 0.78479 0.54275 0.0
C326 C 0.59781 0.79036 0.55715 0.0
C327 C 0.56282 0.73825 0.57571 0.0
C328 C 0.57468 0.75349 0.60301 0.0
C329 C 0.49875 0.70998 0.57115 0.0
C330 C 0.58651 0.70121 0.56891 0.0
C331 C 0.63013 0.72909 0.55035 0.0
C332 C 0.65724 0.70221 0.54066 0.0
C333 C 0.63874 0.6453 0.55002 0.0
C334 C 0.59285 0.61582 0.56838 0.0
C335 C 0.56695 0.64438 0.57803 0.0
H336 H 0.76204 0.59315 0.82324 0.0
H337 H 0.84887 0.77823 0.82235 0.0
H338 H 0.94063 0.78088 0.82772 0.0
H339 H 0.827 0.56901 0.87107 0.0
H340 H 0.83151 0.51084 0.85938 0.0
H341 H 0.77668 0.52494 0.84928 0.0
H342 H 0.81048 0.53512 0.80259 0.0
H343 H 0.86544 0.52049 0.81257 0.0
H344 H 0.88393 0.58498 0.79254 0.0
H345 H 0.01652 0.76046 0.84289 0.0
H346 H 0.07002 0.71904 0.86455 0.0
H347 H 0.93384 0.54825 0.85418 0.0
C348 C 0.80075 0.63443 0.82333 0.0
C349 C 0.79882 0.68548 0.82246 0.0
C350 C 0.84989 0.73875 0.82277 0.0
C351 C 0.90203 0.74056 0.82578 0.0
C352 C 0.90205 0.68886 0.82781 0.0
C353 C 0.8527 0.63684 0.8261 0.0
C354 C 0.86193 0.58674 0.83198 0.0
C355 C 0.82195 0.54555 0.85425 0.0
C356 C 0.85505 0.55498 0.80851 0.0
C357 C 0.92322 0.61826 0.83895 0.0
C358 C 0.9462 0.67722 0.83598 0.0
C359 C -0.00028 0.7146 0.84446 0.0
C360 C 0.02973 0.691 0.85672 0.0
C361 C 0.00585 0.63091 0.86034 0.0
C362 C 0.953 0.59437 0.85077 0.0
H363 H 0.12434 0.71584 0.20323 0.0
H364 H 0.20151 0.7115 0.13247 0.0
H365 H 0.29126 0.79693 0.14126 0.0
H366 H 0.20169 0.87639 0.20184 0.0
H367 H 0.20874 0.87376 0.23543 0.0
H368 H 0.14793 0.81648 0.22222 0.0
H369 H 0.17152 0.74297 0.24453 0.0
H370 H 0.23281 0.79995 0.25748 0.0
H371 H 0.24105 0.7518 0.23887 0.0
H372 H 0.37592 0.87097 0.16044 0.0
H373 H 0.44885 0.93753 0.18706 0.0
H374 H 0.31753 0.9022 0.24384 0.0
C375 C 0.15957 0.73382 0.18924 0.0
C376 C 0.15571 0.70674 0.16715 0.0
C377 C 0.20321 0.73126 0.14952 0.0
C378 C 0.2545 0.7799 0.15433 0.0
C379 C 0.25754 0.80417 0.17667 0.0
C380 C 0.21119 0.78281 0.19366 0.0
C381 C 0.22721 0.8154 0.21689 0.0
C382 C 0.19444 0.84742 0.21922 0.0
C383 C 0.21757 0.77511 0.24085 0.0
C384 C 0.2902 0.85692 0.21061 0.0
C385 C 0.30661 0.84954 0.1873 0.0
C386 C 0.36337 0.87867 0.17833 0.0
C387 C 0.40448 0.91672 0.19349 0.0
C388 C 0.38876 0.92627 0.21717 0.0
C389 C 0.33069 0.89612 0.22573 0.0
H390 H 0.57945 0.24284 0.50677 0.0
H391 H 0.40628 0.11162 0.53041 0.0
H392 H 0.38935 0.18553 0.54651 0.0
H393 H 0.60869 0.31481 0.55821 0.0
H394 H 0.65134 0.38618 0.54248 0.0
H395 H 0.64633 0.32593 0.52843 0.0
H396 H 0.61033 0.35278 0.48763 0.0
H397 H 0.61665 0.41426 0.50124 0.0
H398 H 0.54974 0.3627 0.48956 0.0
H399 H 0.39823 0.27188 0.5665 0.0
H400 H 0.42853 0.36492 0.58388 0.0
H401 H 0.59541 0.43733 0.54652 0.0
C402 C 0.53722 0.23028 0.51431 0.0
C403 C 0.49371 0.17225 0.51701 0.0
C404 C 0.43946 0.15638 0.52767 0.0
C405 C 0.42978 0.19796 0.53701 0.0
C406 C 0.47469 0.25483 0.53514 0.0
C407 C 0.52696 0.27108 0.52346 0.0
C408 C 0.56989 0.33352 0.52557 0.0
C409 C 0.6221 0.34045 0.5395 0.0
C410 C 0.58767 0.36784 0.49944 0.0
C411 C 0.53452 0.34958 0.54109 0.0
C412 C 0.47963 0.30396 0.5464 0.0
C413 C 0.44071 0.30813 0.56199 0.0
C414 C 0.45822 0.36059 0.57195 0.0
C415 C 0.51392 0.40763 0.56623 0.0
C416 C 0.55234 0.40187 0.55073 0.0
H417 H 0.35317 0.5719 0.8377 0.0
H418 H 0.44623 0.66912 0.89913 0.0
H419 H 0.357 0.65208 0.91917 0.0
H420 H 0.26028 0.62472 0.83269 0.0
H421 H 0.19864 0.55829 0.82608 0.0
H422 H 0.26891 0.5719 0.8179 0.0
H423 H 0.24598 0.47717 0.84418 0.0
H424 H 0.17562 0.46358 0.85259 0.0
H425 H 0.2221 0.46547 0.87688 0.0
H426 H 0.26176 0.63721 0.9297 0.0
H427 H 0.16607 0.62608 0.92914 0.0
H428 H 0.13081 0.53173 0.86361 0.0
C429 C 0.35462 0.5888 0.85555 0.0
C430 C 0.40691 0.62188 0.86674 0.0
C431 C 0.40691 0.64368 0.89004 0.0
C432 C 0.3563 0.63393 0.90176 0.0
C433 C 0.30567 0.60173 0.89018 0.0
C434 C 0.3042 0.57921 0.86766 0.0
C435 C 0.24446 0.54995 0.85832 0.0
C436 C 0.24302 0.57791 0.83221 0.0
C437 C 0.22064 0.48519 0.85798 0.0
C438 C 0.21345 0.56184 0.87853 0.0
C439 C 0.24945 0.59115 0.8969 0.0
C440 C 0.23252 0.61272 0.9159 0.0
C441 C 0.17791 0.60573 0.91564 0.0
C442 C 0.14097 0.57712 0.89665 0.0
C443 C 0.15829 0.55314 0.87848 0.0
H444 H 0.80827 0.24672 0.16554 0.0
H445 H 0.86207 0.3472 0.22948 0.0
H446 H 0.77322 0.27532 0.25383 0.0
H447 H 0.66282 0.19856 0.17147 0.0
H448 H 0.63848 0.1266 0.16376 0.0
H449 H 0.70734 0.18441 0.15164 0.0
H450 H 0.75539 0.12981 0.17137 0.0
H451 H 0.6865 0.07141 0.18326 0.0
H452 H 0.74268 0.10551 0.20453 0.0
H453 H 0.67178 0.19996 0.26851 0.0
H454 H 0.57234 0.11862 0.27478 0.0
H455 H 0.59254 0.0585 0.20478 0.0
C456 C 0.80162 0.2527 0.18484 0.0
C457 C 0.84167 0.30205 0.19577 0.0
C458 C 0.83185 0.30909 0.22098 0.0
C459 C 0.78149 0.26874 0.23488 0.0
C460 C 0.74219 0.22079 0.22351 0.0
C461 C 0.75245 0.2117 0.19934 0.0
C462 C 0.7036 0.15615 0.1917 0.0
C463 C 0.67648 0.16713 0.16826 0.0
C464 C 0.72322 0.11318 0.18747 0.0
C465 C 0.6636 0.1367 0.21494 0.0
C466 C 0.68614 0.17485 0.23297 0.0
C467 C 0.65432 0.16876 0.25487 0.0
C468 C 0.59804 0.12233 0.25838 0.0
C469 C 0.57483 0.08195 0.24039 0.0
C470 C 0.60878 0.08899 0.21872 0.0
H471 H 0.03556 0.58839 0.0572 0.0
H472 H 0.95107 0.40255 0.06761 0.0
H473 H 0.96476 0.40076 0.02179 0.0
H474 H 0.97398 0.59613 0.99861 0.0
H475 H 0.03735 0.66076 0.98582 0.0
H476 H 0.0217 0.6464 0.01936 0.0
H477 H 0.12091 0.65678 0.02543 0.0
H478 H 0.13636 0.67007 0.99185 0.0
H479 H 0.14027 0.61253 0.00939 0.0
H480 H 0.99003 0.42036 0.97447 0.0
H481 H 0.01314 0.45915 0.9293 0.0
H482 H 0.077 0.63062 0.95048 0.0
C483 C 0.01979 0.54726 0.04985 0.0
C484 C 0.99244 0.4956 0.06594 0.0
C485 C 0.97187 0.44263 0.05557 0.0
C486 C 0.97992 0.44124 0.02963 0.0
C487 C 0.00808 0.49316 0.01435 0.0
C488 C 0.02676 0.54508 0.02407 0.0
C489 C 0.05325 0.59468 0.00363 0.0
C490 C 0.01954 0.62633 1.00174 0.0
C491 C 0.11645 0.63594 0.00784 0.0
C492 C 0.04664 0.5627 0.98082 0.0
C493 C 0.02126 0.50423 0.98734 0.0
C494 C 0.0101 0.46607 0.96921 0.0
C495 C 0.0237 0.48824 0.94374 0.0
C496 C 0.04762 0.54761 0.93685 0.0
C497 C 0.05981 0.58519 0.9556 0.0
H498 H 0.48137 0.0198 0.41062 0.0
H499 H 0.63898 0.01619 0.41358 0.0
H500 H 0.64019 0.01152 0.36758 0.0
H501 H 0.41927 0.91994 0.3642 0.0
H502 H 0.38615 0.95652 0.34879 0.0
H503 H 0.39847 0.96101 0.38187 0.0
H504 H 0.45525 0.07212 0.37418 0.0
H505 H 0.44308 0.06794 0.34107 0.0
H506 H 0.51479 0.10693 0.35127 0.0
H507 H 0.62407 0.00712 0.32079 0.0
H508 H 0.58934 0.00031 0.27746 0.0
H509 H 0.44263 0.00551 0.3054 0.0
C510 C 0.51631 0.01829 0.40162 0.0
C511 C 0.56015 0.01855 0.4158 0.0
C512 C 0.6048 0.01598 0.40321 0.0
C513 C 0.60597 0.01344 0.37704 0.0
C514 C 0.56209 0.01322 0.36366 0.0
C515 C 0.51796 0.01533 0.37555 0.0
C516 C 0.47529 0.01326 0.35696 0.0
C517 C 0.41631 0.95948 0.36334 0.0
C518 C 0.47194 0.06835 0.35581 0.0
C519 C 0.50231 0.00975 0.33277 0.0
C520 C 0.5525 0.01 0.33694 0.0
C521 C 0.58485 0.00696 0.31732 0.0
C522 C 0.56511 0.00326 0.29286 0.0
C523 C 0.5137 0.00263 0.28838 0.0
C524 C 0.48211 0.00596 0.30857 0.0
H525 H 0.50478 0.5968 0.7373 0.0
H526 H 0.67741 0.74285 0.72957 0.0
H527 H 0.68634 0.72439 0.68582 0.0
H528 H 0.53124 0.50665 0.70507 0.0
H529 H 0.46527 0.47358 0.68936 0.0
H530 H 0.46837 0.50216 0.71897 0.0
H531 H 0.43148 0.56697 0.69893 0.0
H532 H 0.42698 0.5376 0.66935 0.0
H533 H 0.46784 0.61414 0.6708 0.0
H534 H 0.68208 0.68239 0.64546 0.0
H535 H 0.66034 0.62532 0.60899 0.0
H536 H 0.48922 0.50972 0.64135 0.0
C537 C 0.54373 0.62609 0.72614 0.0
C538 C 0.59032 0.67144 0.7369 0.0
C539 C 0.64108 0.7079 0.72178 0.0
C540 C 0.64664 0.69774 0.69689 0.0
C541 C 0.60091 0.65123 0.68723 0.0
C542 C 0.55001 0.61658 0.70116 0.0
C543 C 0.50872 0.5675 0.6867 0.0
C544 C 0.49247 0.50904 0.70087 0.0
C545 C 0.45561 0.57183 0.68111 0.0
C546 C 0.54496 0.57918 0.6628 0.0
C547 C 0.598 0.6277 0.66353 0.0
C548 C 0.64024 0.6451 0.64441 0.0
C549 C 0.62761 0.61253 0.62381 0.0
C550 C 0.57304 0.56367 0.6223 0.0
C551 C 0.53131 0.54684 0.64211 0.0
H552 H 0.62981 0.11962 0.61028 0.0
H553 H 0.50159 0.93831 0.61761 0.0
H554 H 0.49857 0.93816 0.66381 0.0
H555 H 0.70355 0.1166 0.66822 0.0
H556 H 0.71559 0.18554 0.67537 0.0
H557 H 0.71291 0.16978 0.64305 0.0
H558 H 0.63312 0.19446 0.63607 0.0
H559 H 0.63593 0.21059 0.66822 0.0
H560 H 0.56937 0.15817 0.6566 0.0
H561 H 0.50093 0.96043 0.70902 0.0
H562 H 0.50798 0.00525 0.74876 0.0
H563 H 0.63563 0.16978 0.71196 0.0
C564 C 0.60186 0.0796 0.62159 0.0
C565 C 0.56604 0.02904 0.61023 0.0
C566 C 0.52955 0.97773 0.62579 0.0
C567 C 0.5277 0.97706 0.65211 0.0
C568 C 0.56297 0.02786 0.66269 0.0
C569 C 0.59955 0.07813 0.64788 0.0
C570 C 0.62968 0.12795 0.66368 0.0
C571 C 0.69427 0.15133 0.6625 0.0
C572 C 0.61618 0.17556 0.65566 0.0
C573 C 0.60286 0.09834 0.6895 0.0
C574 C 0.565 0.0404 0.68871 0.0
C575 C 0.53138 0.00547 0.70998 0.0
C576 C 0.53559 0.0309 0.73242 0.0
C577 C 0.5731 0.09028 0.73317 0.0
C578 C 0.60796 0.1239 0.71171 0.0
H579 H 0.60592 0.5432 0.92946 0.0
H580 H 0.65235 0.72019 0.93517 0.0
H581 H 0.65138 0.7045 0.98133 0.0
H582 H 0.50741 0.48457 0.9794 0.0
H583 H 0.52319 0.42999 0.99092 0.0
H584 H 0.53775 0.45724 0.9582 0.0
H585 H 0.6433 0.48435 0.96165 0.0
H586 H 0.62892 0.45699 0.99448 0.0
H587 H 0.68489 0.5297 0.98526 0.0
H588 H 0.62977 0.66673 0.02617 0.0
H589 H 0.58724 0.60855 0.06672 0.0
H590 H 0.56026 0.45681 0.0336 0.0
C591 C 0.6176 0.57912 0.94038 0.0
C592 C 0.62947 0.63304 0.92863 0.0
C593 C 0.64317 0.67853 0.94367 0.0
C594 C 0.64311 0.67015 0.96994 0.0
C595 C 0.62973 0.61616 0.98098 0.0
C596 C 0.61759 0.57141 0.96673 0.0
C597 C 0.59845 0.51606 0.98349 0.0
C598 C 0.53814 0.46924 0.97765 0.0
C599 C 0.64147 0.49558 0.98107 0.0
C600 C 0.59893 0.53612 0.00926 0.0
C601 C 0.61806 0.59427 0.00734 0.0
C602 C 0.61614 0.62152 0.02803 0.0
C603 C 0.59211 0.5882 0.05102 0.0
C604 C 0.57043 0.52822 0.05329 0.0
C605 C 0.57632 0.50247 0.03237 0.0
H606 H 0.02351 0.56657 0.26402 0.0
H607 H 0.02827 0.41031 0.25806 0.0
H608 H 0.03787 0.40137 0.30392 0.0
H609 H 0.12946 0.62145 0.30988 0.0
H610 H 0.09549 0.65238 0.3266 0.0
H611 H 0.08623 0.64516 0.29343 0.0
H612 H 0.97652 0.58747 0.30208 0.0
H613 H 0.98548 0.59441 0.33528 0.0
H614 H 0.94481 0.52429 0.32436 0.0
H615 H 0.04577 0.40845 0.35036 0.0
H616 H 0.05941 0.43609 0.39409 0.0
H617 H 0.05428 0.58953 0.36976 0.0
C618 C 0.02622 0.53033 0.27242 0.0
C619 C 0.02489 0.48898 0.25754 0.0
C620 C 0.0294 0.44258 0.26912 0.0
C621 C 0.03457 0.43696 0.29516 0.0
C622 C 0.0358 0.47842 0.30931 0.0
C623 C 0.03236 0.52455 0.29836 0.0
C624 C 0.03737 0.56447 0.31772 0.0
C625 C 0.09029 0.6244 0.31153 0.0
C626 C 0.98279 0.56783 0.31999 0.0
C627 C 0.04413 0.53353 0.34122 0.0
C628 C 0.04242 0.48361 0.33599 0.0
C629 C 0.04728 0.44747 0.35469 0.0
C630 C 0.05474 0.46317 0.37937 0.0
C631 C 0.05783 0.51464 0.38491 0.0
C632 C 0.05221 0.55008 0.36569 0.0
loop_
_geom_bond_atom_site_label_1
_geom_bond_atom_site_label_2
_geom_bond_distance
_geom_bond_site_symmetry_2
_ccdc_geom_bond_type
O0 Zn1 1.953 . S
O0 C16 1.225 . S
Zn1 O0 1.953 . S
Zn1 O2 1.949 . S
Zn1 O8 1.919 1_455 S
Zn1 O13 1.924 . S
O2 Zn1 1.949 . S
O2 Zn3 1.923 1_455 S
O2 Zn4 1.950 . S
O2 Zn5 1.945 . S
Zn3 O2 1.923 1_655 S
Zn3 O6 1.933 . S
Zn3 O9 1.941 . S
Zn3 O10 1.965 . S
Zn4 O2 1.950 . S
Zn4 O11 1.938 1_455 S
Zn4 O12 1.906 . S
Zn4 O22 1.953 . S
Zn5 O2 1.945 . S
Zn5 O7 1.932 . S
Zn5 O14 1.977 . S
Zn5 O15 1.910 . S
O6 Zn3 1.933 . S
O6 C17 1.226 1_655 S
O7 Zn5 1.932 . S
O7 C17 1.307 . S
O8 Zn1 1.919 1_655 S
O8 C19 1.253 . S
O9 Zn3 1.941 . S
O9 C19 1.283 . S
O10 Zn3 1.965 . S
O10 C18 1.303 . S
O11 Zn4 1.938 1_655 S
O11 C18 1.247 . S
O12 Zn4 1.906 . S
O12 C20 1.304 . S
O13 Zn1 1.924 . S
O13 C21 1.311 . S
O14 Zn5 1.977 . S
O14 C20 1.272 . S
O15 Zn5 1.910 . S
O15 C21 1.231 . S
C16 O0 1.225 . S
C16 O22 1.298 . S
C17 O6 1.226 1_455 S
C17 O7 1.307 . S
C18 O10 1.303 . S
C18 O11 1.247 . S
C19 O8 1.253 . S
C19 O9 1.283 . S
C20 O12 1.304 . S
C20 O14 1.272 . S
C21 O13 1.311 . S
C21 O15 1.231 . S
O22 Zn4 1.953 . S
O22 C16 1.298 . S
O23 Zn24 1.953 . S
O23 C39 1.225 . S
Zn24 O23 1.953 . S
Zn24 O25 1.949 . S
Zn24 O31 1.919 . S
Zn24 O36 1.924 . S
O25 Zn24 1.949 . S
O25 Zn26 1.923 . S
O25 Zn27 1.950 . S
O25 Zn28 1.945 1_545 S
Zn26 O25 1.923 . S
Zn26 O29 1.933 . S
Zn26 O32 1.941 . S
Zn26 O33 1.965 . S
Zn27 O25 1.950 . S
Zn27 O34 1.938 . S
Zn27 O35 1.906 1_545 S
Zn27 O45 1.953 . S
Zn28 O25 1.945 1_565 S
Zn28 O30 1.932 1_565 S
Zn28 O37 1.977 . S
Zn28 O38 1.910 . S
O29 Zn26 1.933 . S
O29 C40 1.226 . S
O30 Zn28 1.932 1_545 S
O30 C40 1.307 . S
O31 Zn24 1.919 . S
O31 C42 1.253 . S
O32 Zn26 1.941 . S
O32 C42 1.283 . S
O33 Zn26 1.965 . S
O33 C41 1.303 . S
O34 Zn27 1.938 . S
O34 C41 1.247 . S
O35 Zn27 1.906 1_565 S
O35 C43 1.304 . S
O36 Zn24 1.924 . S
O36 C44 1.311 1_545 S
O37 Zn28 1.977 . S
O37 C43 1.272 . S
O38 Zn28 1.910 . S
O38 C44 1.231 . S
C39 O23 1.225 . S
C39 O45 1.298 . S
C40 O29 1.226 . S
C40 O30 1.307 . S
C41 O33 1.303 . S
C41 O34 1.247 . S
C42 O31 1.253 . S
C42 O32 1.283 . S
C43 O35 1.304 . S
C43 O37 1.272 . S
C44 O36 1.311 1_565 S
C44 O38 1.231 . S
O45 Zn27 1.953 . S
O45 C39 1.298 . S
O46 Zn47 1.953 . S
O46 C62 1.225 . S
Zn47 O46 1.953 . S
Zn47 O48 1.949 . S
Zn47 O54 1.919 . S
Zn47 O59 1.924 . S
O48 Zn47 1.949 . S
O48 Zn49 1.923 . S
O48 Zn50 1.950 . S
O48 Zn51 1.945 . S
Zn49 O48 1.923 . S
Zn49 O52 1.933 . S
Zn49 O55 1.941 . S
Zn49 O56 1.965 . S
Zn50 O48 1.950 . S
Zn50 O57 1.938 . S
Zn50 O58 1.906 . S
Zn50 O68 1.953 . S
Zn51 O48 1.945 . S
Zn51 O53 1.932 . S
Zn51 O60 1.977 . S
Zn51 O61 1.910 . S
O52 Zn49 1.933 . S
O52 C63 1.226 . S
O53 Zn51 1.932 . S
O53 C63 1.307 . S
O54 Zn47 1.919 . S
O54 C65 1.253 . S
O55 Zn49 1.941 . S
O55 C65 1.283 . S
O56 Zn49 1.965 . S
O56 C64 1.303 . S
O57 Zn50 1.938 . S
O57 C64 1.247 . S
O58 Zn50 1.906 . S
O58 C66 1.304 . S
O59 Zn47 1.924 . S
O59 C67 1.311 . S
O60 Zn51 1.977 . S
O60 C66 1.272 . S
O61 Zn51 1.910 . S
O61 C67 1.231 . S
C62 O46 1.225 . S
C62 O68 1.298 . S
C63 O52 1.226 . S
C63 O53 1.307 . S
C64 O56 1.303 . S
C64 O57 1.247 . S
C65 O54 1.253 . S
C65 O55 1.283 . S
C66 O58 1.304 . S
C66 O60 1.272 . S
C67 O59 1.311 . S
C67 O61 1.231 . S
O68 Zn50 1.953 . S
O68 C62 1.298 . S
C69 N70 1.317 . S
C69 N71 1.348 1_545 S
C69 C72 1.485 . S
N70 C69 1.317 . S
N70 N74 1.370 . S
N71 C69 1.348 1_565 S
N71 C73 1.346 . S
C72 C69 1.485 . S
C72 H76 0.960 . S
C72 H77 0.961 . S
C72 H78 0.960 . S
C73 N71 1.346 . S
C73 N74 1.307 1_565 S
C73 C75 1.486 . S
N74 N70 1.370 . S
N74 C73 1.307 1_545 S
C75 C73 1.486 . S
C75 H79 0.960 . S
C75 H80 0.960 . S
C75 H81 0.959 . S
H76 C72 0.960 . S
H77 C72 0.961 . S
H78 C72 0.960 . S
H79 C75 0.960 . S
H80 C75 0.960 . S
H81 C75 0.959 . S
C82 N83 1.317 . S
C82 N84 1.348 . S
C82 C85 1.485 . S
N83 C82 1.317 . S
N83 N87 1.370 . S
N84 C82 1.348 . S
N84 C86 1.346 . S
C85 C82 1.485 . S
C85 H89 0.960 . S
C85 H90 0.961 . S
C85 H91 0.960 . S
C86 N84 1.346 . S
C86 N87 1.307 . S
C86 C88 1.486 . S
N87 N83 1.370 . S
N87 C86 1.307 . S
C88 C86 1.486 . S
C88 H92 0.960 . S
C88 H93 0.960 . S
C88 H94 0.959 . S
H89 C85 0.960 . S
H90 C85 0.961 . S
H91 C85 0.960 . S
H92 C88 0.960 . S
H93 C88 0.960 . S
H94 C88 0.959 . S
C95 N96 1.317 . S
C95 N97 1.348 . S
C95 C98 1.485 . S
N96 C95 1.317 . S
N96 N100 1.370 . S
N97 C95 1.348 . S
N97 C99 1.346 . S
C98 C95 1.485 . S
C98 H102 0.960 . S
C98 H103 0.961 . S
C98 H104 0.960 . S
C99 N97 1.346 . S
C99 N100 1.307 . S
C99 C101 1.486 1_455 S
N100 N96 1.370 . S
N100 C99 1.307 . S
C101 C99 1.486 1_655 S
C101 H105 0.960 . S
C101 H106 0.960 . S
C101 H107 0.959 . S
H102 C98 0.960 . S
H103 C98 0.961 . S
H104 C98 0.960 . S
H105 C101 0.960 . S
H106 C101 0.960 . S
H107 C101 0.959 . S
C108 N109 1.317 . S
C108 N110 1.348 . S
C108 C111 1.485 . S
N109 C108 1.317 . S
N109 N113 1.370 . S
N110 C108 1.348 . S
N110 C112 1.346 . S
C111 C108 1.485 . S
C111 H115 0.960 . S
C111 H116 0.961 . S
C111 H117 0.960 . S
C112 N110 1.346 . S
C112 N113 1.307 . S
C112 C114 1.486 . S
N113 N109 1.370 . S
N113 C112 1.307 . S
C114 C112 1.486 . S
C114 H118 0.960 . S
C114 H119 0.960 . S
C114 H120 0.959 . S
H115 C111 0.960 . S
H116 C111 0.961 . S
H117 C111 0.960 . S
H118 C114 0.960 . S
H119 C114 0.960 . S
H120 C114 0.959 . S
C121 N122 1.317 . S
C121 N123 1.348 . S
C121 C124 1.485 . S
N122 C121 1.317 . S
N122 N126 1.370 . S
N123 C121 1.348 . S
N123 C125 1.346 . S
C124 C121 1.485 . S
C124 H128 0.960 . S
C124 H129 0.961 . S
C124 H130 0.960 . S
C125 N123 1.346 . S
C125 N126 1.307 . S
C125 C127 1.486 . S
N126 N122 1.370 . S
N126 C125 1.307 . S
C127 C125 1.486 . S
C127 H131 0.960 . S
C127 H132 0.960 . S
C127 H133 0.959 . S
H128 C124 0.960 . S
H129 C124 0.961 . S
H130 C124 0.960 . S
H131 C127 0.960 . S
H132 C127 0.960 . S
H133 C127 0.959 . S
C134 N135 1.317 . S
C134 N136 1.348 . S
C134 C137 1.485 . S
N135 C134 1.317 . S
N135 N139 1.370 . S
N136 C134 1.348 . S
N136 C138 1.346 . S
C137 C134 1.485 . S
C137 H141 0.960 . S
C137 H142 0.961 . S
C137 H143 0.960 . S
C138 N136 1.346 . S
C138 N139 1.307 . S
C138 C140 1.486 . S
N139 N135 1.370 . S
N139 C138 1.307 . S
C140 C138 1.486 . S
C140 H144 0.960 . S
C140 H145 0.960 . S
C140 H146 0.959 . S
H141 C137 0.960 . S
H142 C137 0.961 . S
H143 C137 0.960 . S
H144 C140 0.960 . S
H145 C140 0.960 . S
H146 C140 0.959 . S
H147 C159 0.930 . S
H148 C161 0.930 . S
H149 C162 0.930 . S
H150 C166 0.959 . S
H151 C166 0.959 . S
H152 C166 0.961 . S
H153 C167 0.960 . S
H154 C167 0.961 . S
H155 C167 0.959 . S
H156 C170 0.929 . S
H157 C171 0.931 . S
H158 C173 0.930 . S
C159 H147 0.930 . S
C159 C160 1.399 . S
C159 C164 1.399 . S
C160 C159 1.399 . S
C160 C161 1.376 . S
C161 H148 0.930 . S
C161 C160 1.376 . S
C161 C162 1.388 . S
C162 H149 0.930 . S
C162 C161 1.388 . S
C162 C163 1.390 . S
C163 C162 1.390 . S
C163 C164 1.394 . S
C163 C169 1.465 . S
C164 C159 1.399 . S
C164 C163 1.394 . S
C164 C165 1.516 . S
C165 C164 1.516 . S
C165 C166 1.502 . S
C165 C167 1.561 . S
C165 C168 1.526 . S
C166 H150 0.959 . S
C166 H151 0.959 . S
C166 H152 0.961 . S
C166 C165 1.502 . S
C167 H153 0.960 . S
C167 H154 0.961 . S
C167 H155 0.959 . S
C167 C165 1.561 . S
C168 C165 1.526 . S
C168 C169 1.396 . S
C168 C173 1.390 . S
C169 C163 1.465 . S
C169 C168 1.396 . S
C169 C170 1.399 . S
C170 H156 0.929 . S
C170 C169 1.399 . S
C170 C171 1.385 . S
C171 H157 0.931 . S
C171 C170 1.385 . S
C171 C172 1.389 . S
C172 C171 1.389 . S
C172 C173 1.387 . S
C173 H158 0.930 . S
C173 C168 1.390 . S
C173 C172 1.387 . S
H174 C186 0.930 . S
H175 C188 0.930 . S
H176 C189 0.930 . S
H177 C193 0.959 . S
H178 C193 0.959 . S
H179 C193 0.961 . S
H180 C194 0.960 . S
H181 C194 0.961 . S
H182 C194 0.959 . S
H183 C197 0.929 . S
H184 C198 0.931 1_455 S
H185 C200 0.930 . S
C186 H174 0.930 . S
C186 C187 1.399 . S
C186 C191 1.399 . S
C187 C186 1.399 . S
C187 C188 1.376 . S
C188 H175 0.930 . S
C188 C187 1.376 . S
C188 C189 1.388 . S
C189 H176 0.930 . S
C189 C188 1.388 . S
C189 C190 1.390 . S
C190 C189 1.390 . S
C190 C191 1.394 . S
C190 C196 1.465 . S
C191 C186 1.399 . S
C191 C190 1.394 . S
C191 C192 1.516 . S
C192 C191 1.516 . S
C192 C193 1.502 . S
C192 C194 1.561 . S
C192 C195 1.526 . S
C193 H177 0.959 . S
C193 H178 0.959 . S
C193 H179 0.961 . S
C193 C192 1.502 . S
C194 H180 0.960 . S
C194 H181 0.961 . S
C194 H182 0.959 . S
C194 C192 1.561 . S
C195 C192 1.526 . S
C195 C196 1.396 . S
C195 C200 1.390 . S
C196 C190 1.465 . S
C196 C195 1.396 . S
C196 C197 1.399 . S
C197 H183 0.929 . S
C197 C196 1.399 . S
C197 C198 1.385 . S
C198 H184 0.931 1_655 S
C198 C197 1.385 . S
C198 C199 1.389 . S
C199 C198 1.389 . S
C199 C200 1.387 . S
C200 H185 0.930 . S
C200 C195 1.390 . S
C200 C199 1.387 . S
H201 C213 0.930 . S
H202 C215 0.930 . S
H203 C216 0.930 . S
H204 C220 0.959 . S
H205 C220 0.959 . S
H206 C220 0.961 . S
H207 C221 0.960 . S
H208 C221 0.961 . S
H209 C221 0.959 . S
H210 C224 0.929 . S
H211 C225 0.931 1_545 S
H212 C227 0.930 . S
C213 H201 0.930 . S
C213 C214 1.399 . S
C213 C218 1.399 . S
C214 C213 1.399 . S
C214 C215 1.376 . S
C215 H202 0.930 . S
C215 C214 1.376 . S
C215 C216 1.388 . S
C216 H203 0.930 . S
C216 C215 1.388 . S
C216 C217 1.390 . S
C217 C216 1.390 . S
C217 C218 1.394 . S
C217 C223 1.465 . S
C218 C213 1.399 . S
C218 C217 1.394 . S
C218 C219 1.516 . S
C219 C218 1.516 . S
C219 C220 1.502 . S
C219 C221 1.561 . S
C219 C222 1.526 . S
C220 H204 0.959 . S
C220 H205 0.959 . S
C220 H206 0.961 . S
C220 C219 1.502 . S
C221 H207 0.960 . S
C221 H208 0.961 . S
C221 H209 0.959 . S
C221 C219 1.561 . S
C222 C219 1.526 . S
C222 C223 1.396 . S
C222 C227 1.390 . S
C223 C217 1.465 . S
C223 C222 1.396 . S
C223 C224 1.399 . S
C224 H210 0.929 . S
C224 C223 1.399 . S
C224 C225 1.385 . S
C225 H211 0.931 1_565 S
C225 C224 1.385 . S
C225 C226 1.389 1_565 S
C226 C225 1.389 1_545 S
C226 C227 1.387 1_545 S
C227 H212 0.930 . S
C227 C222 1.390 . S
C227 C226 1.387 1_565 S
H228 C240 0.930 . S
H229 C242 0.930 . S
H230 C243 0.930 . S
H231 C247 0.959 . S
H232 C247 0.959 . S
H233 C247 0.961 . S
H234 C248 0.960 . S
H235 C248 0.961 . S
H236 C248 0.959 . S
H237 C251 0.929 . S
H238 C252 0.931 . S
H239 C254 0.930 . S
C240 H228 0.930 . S
C240 C241 1.399 . S
C240 C245 1.399 . S
C241 C240 1.399 . S
C241 C242 1.376 . S
C242 H229 0.930 . S
C242 C241 1.376 . S
C242 C243 1.388 . S
C243 H230 0.930 . S
C243 C242 1.388 . S
C243 C244 1.390 . S
C244 C243 1.390 . S
C244 C245 1.394 . S
C244 C250 1.465 . S
C245 C240 1.399 . S
C245 C244 1.394 . S
C245 C246 1.516 . S
C246 C245 1.516 . S
C246 C247 1.502 . S
C246 C248 1.561 . S
C246 C249 1.526 . S
C247 H231 0.959 . S
C247 H232 0.959 . S
C247 H233 0.961 . S
C247 C246 1.502 . S
C248 H234 0.960 . S
C248 H235 0.961 . S
C248 H236 0.959 . S
C248 C246 1.561 . S
C249 C246 1.526 . S
C249 C250 1.396 . S
C249 C254 1.390 . S
C250 C244 1.465 . S
C250 C249 1.396 . S
C250 C251 1.399 . S
C251 H237 0.929 . S
C251 C250 1.399 . S
C251 C252 1.385 . S
C252 H238 0.931 . S
C252 C251 1.385 . S
C252 C253 1.389 . S
C253 C252 1.389 . S
C253 C254 1.387 . S
C254 H239 0.930 . S
C254 C249 1.390 . S
C254 C253 1.387 . S
H255 C267 0.930 . S
H256 C269 0.930 . S
H257 C270 0.930 . S
H258 C274 0.959 . S
H259 C274 0.959 . S
H260 C274 0.961 . S
H261 C275 0.960 . S
H262 C275 0.961 . S
H263 C275 0.959 . S
H264 C278 0.929 . S
H265 C279 0.931 . S
H266 C281 0.930 . S
C267 H255 0.930 . S
C267 C268 1.399 . S
C267 C272 1.399 . S
C268 C267 1.399 . S
C268 C269 1.376 . S
C269 H256 0.930 . S
C269 C268 1.376 . S
C269 C270 1.388 . S
C270 H257 0.930 . S
C270 C269 1.388 . S
C270 C271 1.390 . S
C271 C270 1.390 . S
C271 C272 1.394 . S
C271 C277 1.465 . S
C272 C267 1.399 . S
C272 C271 1.394 . S
C272 C273 1.516 . S
C273 C272 1.516 . S
C273 C274 1.502 . S
C273 C275 1.561 . S
C273 C276 1.526 . S
C274 H258 0.959 . S
C274 H259 0.959 . S
C274 H260 0.961 . S
C274 C273 1.502 . S
C275 H261 0.960 . S
C275 H262 0.961 . S
C275 H263 0.959 . S
C275 C273 1.561 . S
C276 C273 1.526 . S
C276 C277 1.396 . S
C276 C281 1.390 . S
C277 C271 1.465 . S
C277 C276 1.396 . S
C277 C278 1.399 . S
C278 H264 0.929 . S
C278 C277 1.399 . S
C278 C279 1.385 . S
C279 H265 0.931 . S
C279 C278 1.385 . S
C279 C280 1.389 . S
C280 C279 1.389 . S
C280 C281 1.387 . S
C281 H266 0.930 . S
C281 C276 1.390 . S
C281 C280 1.387 . S
H282 C294 0.930 . S
H283 C296 0.930 . S
H284 C297 0.930 . S
H285 C301 0.959 . S
H286 C301 0.959 . S
H287 C301 0.961 . S
H288 C302 0.960 . S
H289 C302 0.961 . S
H290 C302 0.959 . S
H291 C305 0.929 . S
H292 C306 0.931 . S
H293 C308 0.930 . S
C294 H282 0.930 . S
C294 C295 1.399 . S
C294 C299 1.399 . S
C295 C294 1.399 . S
C295 C296 1.376 . S
C296 H283 0.930 . S
C296 C295 1.376 . S
C296 C297 1.388 . S
C297 H284 0.930 . S
C297 C296 1.388 . S
C297 C298 1.390 . S
C298 C297 1.390 . S
C298 C299 1.394 . S
C298 C304 1.465 . S
C299 C294 1.399 . S
C299 C298 1.394 . S
C299 C300 1.516 . S
C300 C299 1.516 . S
C300 C301 1.502 . S
C300 C302 1.561 . S
C300 C303 1.526 . S
C301 H285 0.959 . S
C301 H286 0.959 . S
C301 H287 0.961 . S
C301 C300 1.502 . S
C302 H288 0.960 . S
C302 H289 0.961 . S
C302 H290 0.959 . S
C302 C300 1.561 . S
C303 C300 1.526 . S
C303 C304 1.396 . S
C303 C308 1.390 . S
C304 C298 1.465 . S
C304 C303 1.396 . S
C304 C305 1.399 . S
C305 H291 0.929 . S
C305 C304 1.399 . S
C305 C306 1.385 . S
C306 H292 0.931 . S
C306 C305 1.385 . S
C306 C307 1.389 . S
C307 C306 1.389 . S
C307 C308 1.387 . S
C308 H293 0.930 . S
C308 C303 1.390 . S
C308 C307 1.387 . S
H309 C321 0.930 . S
H310 C323 0.930 . S
H311 C324 0.930 . S
H312 C328 0.959 . S
H313 C328 0.959 . S
H314 C328 0.961 . S
H315 C329 0.960 . S
H316 C329 0.961 . S
H317 C329 0.959 . S
H318 C332 0.929 . S
H319 C333 0.931 . S
H320 C335 0.930 . S
C321 H309 0.930 . S
C321 C322 1.399 . S
C321 C326 1.399 . S
C322 C321 1.399 . S
C322 C323 1.376 . S
C323 H310 0.930 . S
C323 C322 1.376 . S
C323 C324 1.388 . S
C324 H311 0.930 . S
C324 C323 1.388 . S
C324 C325 1.390 . S
C325 C324 1.390 . S
C325 C326 1.394 . S
C325 C331 1.465 . S
C326 C321 1.399 . S
C326 C325 1.394 . S
C326 C327 1.516 . S
C327 C326 1.516 . S
C327 C328 1.502 . S
C327 C329 1.561 . S
C327 C330 1.526 . S
C328 H312 0.959 . S
C328 H313 0.959 . S
C328 H314 0.961 . S
C328 C327 1.502 . S
C329 H315 0.960 . S
C329 H316 0.961 . S
C329 H317 0.959 . S
C329 C327 1.561 . S
C330 C327 1.526 . S
C330 C331 1.396 . S
C330 C335 1.390 . S
C331 C325 1.465 . S
C331 C330 1.396 . S
C331 C332 1.399 . S
C332 H318 0.929 . S
C332 C331 1.399 . S
C332 C333 1.385 . S
C333 H319 0.931 . S
C333 C332 1.385 . S
C333 C334 1.389 . S
C334 C333 1.389 . S
C334 C335 1.387 . S
C335 H320 0.930 . S
C335 C330 1.390 . S
C335 C334 1.387 . S
H336 C348 0.930 . S
H337 C350 0.930 . S
H338 C351 0.930 . S
H339 C355 0.959 . S
H340 C355 0.959 . S
H341 C355 0.961 . S
H342 C356 0.960 . S
H343 C356 0.961 . S
H344 C356 0.959 . S
H345 C359 0.929 . S
H346 C360 0.931 1_455 S
H347 C362 0.930 . S
C348 H336 0.930 . S
C348 C349 1.399 . S
C348 C353 1.399 . S
C349 C348 1.399 . S
C349 C350 1.376 . S
C350 H337 0.930 . S
C350 C349 1.376 . S
C350 C351 1.388 . S
C351 H338 0.930 . S
C351 C350 1.388 . S
C351 C352 1.390 . S
C352 C351 1.390 . S
C352 C353 1.394 . S
C352 C358 1.465 . S
C353 C348 1.399 . S
C353 C352 1.394 . S
C353 C354 1.516 . S
C354 C353 1.516 . S
C354 C355 1.502 . S
C354 C356 1.561 . S
C354 C357 1.526 . S
C355 H339 0.959 . S
C355 H340 0.959 . S
C355 H341 0.961 . S
C355 C354 1.502 . S
C356 H342 0.960 . S
C356 H343 0.961 . S
C356 H344 0.959 . S
C356 C354 1.561 . S
C357 C354 1.526 . S
C357 C358 1.396 . S
C357 C362 1.390 . S
C358 C352 1.465 . S
C358 C357 1.396 . S
C358 C359 1.399 . S
C359 H345 0.929 . S
C359 C358 1.399 . S
C359 C360 1.385 . S
C360 H346 0.931 1_655 S
C360 C359 1.385 . S
C360 C361 1.389 . S
C361 C360 1.389 . S
C361 C362 1.387 . S
C362 H347 0.930 . S
C362 C357 1.390 . S
C362 C361 1.387 . S
H363 C375 0.930 . S
H364 C377 0.930 . S
H365 C378 0.930 . S
H366 C382 0.959 . S
H367 C382 0.959 . S
H368 C382 0.961 . S
H369 C383 0.960 . S
H370 C383 0.961 . S
H371 C383 0.959 . S
H372 C386 0.929 . S
H373 C387 0.931 . S
H374 C389 0.930 . S
C375 H363 0.930 . S
C375 C376 1.399 . S
C375 C380 1.399 . S
C376 C375 1.399 . S
C376 C377 1.376 . S
C377 H364 0.930 . S
C377 C376 1.376 . S
C377 C378 1.388 . S
C378 H365 0.930 . S
C378 C377 1.388 . S
C378 C379 1.390 . S
C379 C378 1.390 . S
C379 C380 1.394 . S
C379 C385 1.465 . S
C380 C375 1.399 . S
C380 C379 1.394 . S
C380 C381 1.516 . S
C381 C380 1.516 . S
C381 C382 1.502 . S
C381 C383 1.561 . S
C381 C384 1.526 . S
C382 H366 0.959 . S
C382 H367 0.959 . S
C382 H368 0.961 . S
C382 C381 1.502 . S
C383 H369 0.960 . S
C383 H370 0.961 . S
C383 H371 0.959 . S
C383 C381 1.561 . S
C384 C381 1.526 . S
C384 C385 1.396 . S
C384 C389 1.390 . S
C385 C379 1.465 . S
C385 C384 1.396 . S
C385 C386 1.399 . S
C386 H372 0.929 . S
C386 C385 1.399 . S
C386 C387 1.385 . S
C387 H373 0.931 . S
C387 C386 1.385 . S
C387 C388 1.389 . S
C388 C387 1.389 . S
C388 C389 1.387 . S
C389 H374 0.930 . S
C389 C384 1.390 . S
C389 C388 1.387 . S
H390 C402 0.930 . S
H391 C404 0.930 . S
H392 C405 0.930 . S
H393 C409 0.959 . S
H394 C409 0.959 . S
H395 C409 0.961 . S
H396 C410 0.960 . S
H397 C410 0.961 . S
H398 C410 0.959 . S
H399 C413 0.929 . S
H400 C414 0.931 . S
H401 C416 0.930 . S
C402 H390 0.930 . S
C402 C403 1.399 . S
C402 C407 1.399 . S
C403 C402 1.399 . S
C403 C404 1.376 . S
C404 H391 0.930 . S
C404 C403 1.376 . S
C404 C405 1.388 . S
C405 H392 0.930 . S
C405 C404 1.388 . S
C405 C406 1.390 . S
C406 C405 1.390 . S
C406 C407 1.394 . S
C406 C412 1.465 . S
C407 C402 1.399 . S
C407 C406 1.394 . S
C407 C408 1.516 . S
C408 C407 1.516 . S
C408 C409 1.502 . S
C408 C410 1.561 . S
C408 C411 1.526 . S
C409 H393 0.959 . S
C409 H394 0.959 . S
C409 H395 0.961 . S
C409 C408 1.502 . S
C410 H396 0.960 . S
C410 H397 0.961 . S
C410 H398 0.959 . S
C410 C408 1.561 . S
C411 C408 1.526 . S
C411 C412 1.396 . S
C411 C416 1.390 . S
C412 C406 1.465 . S
C412 C411 1.396 . S
C412 C413 1.399 . S
C413 H399 0.929 . S
C413 C412 1.399 . S
C413 C414 1.385 . S
C414 H400 0.931 . S
C414 C413 1.385 . S
C414 C415 1.389 . S
C415 C414 1.389 . S
C415 C416 1.387 . S
C416 H401 0.930 . S
C416 C411 1.390 . S
C416 C415 1.387 . S
H417 C429 0.930 . S
H418 C431 0.930 . S
H419 C432 0.930 . S
H420 C436 0.959 . S
H421 C436 0.959 . S
H422 C436 0.961 . S
H423 C437 0.960 . S
H424 C437 0.961 . S
H425 C437 0.959 . S
H426 C440 0.929 . S
H427 C441 0.931 . S
H428 C443 0.930 . S
C429 H417 0.930 . S
C429 C430 1.399 . S
C429 C434 1.399 . S
C430 C429 1.399 . S
C430 C431 1.376 . S
C431 H418 0.930 . S
C431 C430 1.376 . S
C431 C432 1.388 . S
C432 H419 0.930 . S
C432 C431 1.388 . S
C432 C433 1.390 . S
C433 C432 1.390 . S
C433 C434 1.394 . S
C433 C439 1.465 . S
C434 C429 1.399 . S
C434 C433 1.394 . S
C434 C435 1.516 . S
C435 C434 1.516 . S
C435 C436 1.502 . S
C435 C437 1.561 . S
C435 C438 1.526 . S
C436 H420 0.959 . S
C436 H421 0.959 . S
C436 H422 0.961 . S
C436 C435 1.502 . S
C437 H423 0.960 . S
C437 H424 0.961 . S
C437 H425 0.959 . S
C437 C435 1.561 . S
C438 C435 1.526 . S
C438 C439 1.396 . S
C438 C443 1.390 . S
C439 C433 1.465 . S
C439 C438 1.396 . S
C439 C440 1.399 . S
C440 H426 0.929 . S
C440 C439 1.399 . S
C440 C441 1.385 . S
C441 H427 0.931 . S
C441 C440 1.385 . S
C441 C442 1.389 . S
C442 C441 1.389 . S
C442 C443 1.387 . S
C443 H428 0.930 . S
C443 C438 1.390 . S
C443 C442 1.387 . S
H444 C456 0.930 . S
H445 C458 0.930 . S
H446 C459 0.930 . S
H447 C463 0.959 . S
H448 C463 0.959 . S
H449 C463 0.961 . S
H450 C464 0.960 . S
H451 C464 0.961 . S
H452 C464 0.959 . S
H453 C467 0.929 . S
H454 C468 0.931 . S
H455 C470 0.930 . S
C456 H444 0.930 . S
C456 C457 1.399 . S
C456 C461 1.399 . S
C457 C456 1.399 . S
C457 C458 1.376 . S
C458 H445 0.930 . S
C458 C457 1.376 . S
C458 C459 1.388 . S
C459 H446 0.930 . S
C459 C458 1.388 . S
C459 C460 1.390 . S
C460 C459 1.390 . S
C460 C461 1.394 . S
C460 C466 1.465 . S
C461 C456 1.399 . S
C461 C460 1.394 . S
C461 C462 1.516 . S
C462 C461 1.516 . S
C462 C463 1.502 . S
C462 C464 1.561 . S
C462 C465 1.526 . S
C463 H447 0.959 . S
C463 H448 0.959 . S
C463 H449 0.961 . S
C463 C462 1.502 . S
C464 H450 0.960 . S
C464 H451 0.961 . S
C464 H452 0.959 . S
C464 C462 1.561 . S
C465 C462 1.526 . S
C465 C466 1.396 . S
C465 C470 1.390 . S
C466 C460 1.465 . S
C466 C465 1.396 . S
C466 C467 1.399 . S
C467 H453 0.929 . S
C467 C466 1.399 . S
C467 C468 1.385 . S
C468 H454 0.931 . S
C468 C467 1.385 . S
C468 C469 1.389 . S
C469 C468 1.389 . S
C469 C470 1.387 . S
C470 H455 0.930 . S
C470 C465 1.390 . S
C470 C469 1.387 . S
H471 C483 0.930 . S
H472 C485 0.930 . S
H473 C486 0.930 . S
H474 C490 0.959 1_655 S
H475 C490 0.959 1_556 S
H476 C490 0.961 . S
H477 C491 0.960 . S
H478 C491 0.961 1_556 S
H479 C491 0.959 . S
H480 C494 0.929 . S
H481 C495 0.931 . S
H482 C497 0.930 . S
C483 H471 0.930 . S
C483 C484 1.399 . S
C483 C488 1.399 . S
C484 C483 1.399 . S
C484 C485 1.376 . S
C485 H472 0.930 . S
C485 C484 1.376 . S
C485 C486 1.388 . S
C486 H473 0.930 . S
C486 C485 1.388 . S
C486 C487 1.390 . S
C487 C486 1.390 . S
C487 C488 1.394 . S
C487 C493 1.465 1_554 S
C488 C483 1.399 . S
C488 C487 1.394 . S
C488 C489 1.516 . S
C489 C488 1.516 . S
C489 C490 1.502 . S
C489 C491 1.561 . S
C489 C492 1.526 1_554 S
C490 H474 0.959 1_455 S
C490 H475 0.959 1_554 S
C490 H476 0.961 . S
C490 C489 1.502 . S
C491 H477 0.960 . S
C491 H478 0.961 1_554 S
C491 H479 0.959 . S
C491 C489 1.561 . S
C492 C489 1.526 1_556 S
C492 C493 1.396 . S
C492 C497 1.390 . S
C493 C487 1.465 1_556 S
C493 C492 1.396 . S
C493 C494 1.399 . S
C494 H480 0.929 . S
C494 C493 1.399 . S
C494 C495 1.385 . S
C495 H481 0.931 . S
C495 C494 1.385 . S
C495 C496 1.389 . S
C496 C495 1.389 . S
C496 C497 1.387 . S
C497 H482 0.930 . S
C497 C492 1.390 . S
C497 C496 1.387 . S
H498 C510 0.930 . S
H499 C512 0.930 1_565 S
H500 C513 0.930 . S
H501 C517 0.959 . S
H502 C517 0.959 . S
H503 C517 0.961 . S
H504 C518 0.960 . S
H505 C518 0.961 . S
H506 C518 0.959 . S
H507 C521 0.929 . S
H508 C522 0.931 . S
H509 C524 0.930 . S
C510 H498 0.930 . S
C510 C511 1.399 . S
C510 C515 1.399 . S
C511 C510 1.399 . S
C511 C512 1.376 . S
C512 H499 0.930 1_545 S
C512 C511 1.376 . S
C512 C513 1.388 1_545 S
C513 H500 0.930 . S
C513 C512 1.388 1_565 S
C513 C514 1.390 1_565 S
C514 C513 1.390 1_545 S
C514 C515 1.394 . S
C514 C520 1.465 . S
C515 C510 1.399 . S
C515 C514 1.394 . S
C515 C516 1.516 . S
C516 C515 1.516 . S
C516 C517 1.502 . S
C516 C518 1.561 . S
C516 C519 1.526 . S
C517 H501 0.959 . S
C517 H502 0.959 . S
C517 H503 0.961 . S
C517 C516 1.502 . S
C518 H504 0.960 . S
C518 H505 0.961 . S
C518 H506 0.959 . S
C518 C516 1.561 . S
C519 C516 1.526 . S
C519 C520 1.396 . S
C519 C524 1.390 . S
C520 C514 1.465 . S
C520 C519 1.396 . S
C520 C521 1.399 1_545 S
C521 H507 0.929 . S
C521 C520 1.399 1_565 S
C521 C522 1.385 . S
C522 H508 0.931 . S
C522 C521 1.385 . S
C522 C523 1.389 1_565 S
C523 C522 1.389 1_545 S
C523 C524 1.387 . S
C524 H509 0.930 . S
C524 C519 1.390 . S
C524 C523 1.387 . S
H525 C537 0.930 . S
H526 C539 0.930 . S
H527 C540 0.930 . S
H528 C544 0.959 . S
H529 C544 0.959 . S
H530 C544 0.961 . S
H531 C545 0.960 . S
H532 C545 0.961 . S
H533 C545 0.959 . S
H534 C548 0.929 . S
H535 C549 0.931 . S
H536 C551 0.930 . S
C537 H525 0.930 . S
C537 C538 1.399 . S
C537 C542 1.399 . S
C538 C537 1.399 . S
C538 C539 1.376 . S
C539 H526 0.930 . S
C539 C538 1.376 . S
C539 C540 1.388 . S
C540 H527 0.930 . S
C540 C539 1.388 . S
C540 C541 1.390 . S
C541 C540 1.390 . S
C541 C542 1.394 . S
C541 C547 1.465 . S
C542 C537 1.399 . S
C542 C541 1.394 . S
C542 C543 1.516 . S
C543 C542 1.516 . S
C543 C544 1.502 . S
C543 C545 1.561 . S
C543 C546 1.526 . S
C544 H528 0.959 . S
C544 H529 0.959 . S
C544 H530 0.961 . S
C544 C543 1.502 . S
C545 H531 0.960 . S
C545 H532 0.961 . S
C545 H533 0.959 . S
C545 C543 1.561 . S
C546 C543 1.526 . S
C546 C547 1.396 . S
C546 C551 1.390 . S
C547 C541 1.465 . S
C547 C546 1.396 . S
C547 C548 1.399 . S
C548 H534 0.929 . S
C548 C547 1.399 . S
C548 C549 1.385 . S
C549 H535 0.931 . S
C549 C548 1.385 . S
C549 C550 1.389 . S
C550 C549 1.389 . S
C550 C551 1.387 . S
C551 H536 0.930 . S
C551 C546 1.390 . S
C551 C550 1.387 . S
H552 C564 0.930 . S
H553 C566 0.930 1_565 S
H554 C567 0.934 . S
H555 C571 0.959 . S
H556 C571 0.959 . S
H557 C571 0.961 . S
H558 C572 0.960 . S
H559 C572 0.961 . S
H560 C572 0.959 . S
H561 C575 0.929 1_565 S
H562 C576 0.931 1_565 S
H563 C578 0.930 . S
C564 H552 0.930 . S
C564 C565 1.399 . S
C564 C569 1.399 . S
C565 C564 1.399 . S
C565 C566 1.376 . S
C566 H553 0.930 1_545 S
C566 C565 1.376 . S
C566 C567 1.391 1_545 S
C567 H554 0.934 . S
C567 C566 1.391 1_565 S
C567 C568 1.384 1_565 S
C568 C567 1.384 1_545 S
C568 C569 1.394 . S
C568 C574 1.465 . S
C569 C564 1.399 . S
C569 C568 1.394 . S
C569 C570 1.516 . S
C570 C569 1.516 . S
C570 C571 1.502 . S
C570 C572 1.561 . S
C570 C573 1.526 . S
C571 H555 0.959 . S
C571 H556 0.959 . S
C571 H557 0.961 . S
C571 C570 1.502 . S
C572 H558 0.960 . S
C572 H559 0.961 . S
C572 H560 0.959 . S
C572 C570 1.561 . S
C573 C570 1.526 . S
C573 C574 1.396 . S
C573 C578 1.390 . S
C574 C568 1.465 . S
C574 C573 1.396 . S
C574 C575 1.399 . S
C575 H561 0.929 1_545 S
C575 C574 1.399 . S
C575 C576 1.385 . S
C576 H562 0.931 1_545 S
C576 C575 1.385 . S
C576 C577 1.389 . S
C577 C576 1.389 . S
C577 C578 1.387 . S
C578 H563 0.930 . S
C578 C573 1.390 . S
C578 C577 1.387 . S
H579 C591 0.930 . S
H580 C593 0.930 . S
H581 C594 0.930 . S
H582 C598 0.959 . S
H583 C598 0.959 1_554 S
H584 C598 0.961 . S
H585 C599 0.960 . S
H586 C599 0.961 1_554 S
H587 C599 0.959 . S
H588 C602 0.929 . S
H589 C603 0.931 . S
H590 C605 0.930 . S
C591 H579 0.930 . S
C591 C592 1.399 . S
C591 C596 1.399 . S
C592 C591 1.399 . S
C592 C593 1.376 . S
C593 H580 0.930 . S
C593 C592 1.376 . S
C593 C594 1.388 . S
C594 H581 0.930 . S
C594 C593 1.388 . S
C594 C595 1.390 . S
C595 C594 1.390 . S
C595 C596 1.394 . S
C595 C601 1.465 1_556 S
C596 C591 1.399 . S
C596 C595 1.394 . S
C596 C597 1.516 . S
C597 C596 1.516 . S
C597 C598 1.502 . S
C597 C599 1.561 . S
C597 C600 1.526 1_556 S
C598 H582 0.959 . S
C598 H583 0.959 1_556 S
C598 H584 0.961 . S
C598 C597 1.502 . S
C599 H585 0.960 . S
C599 H586 0.961 1_556 S
C599 H587 0.959 . S
C599 C597 1.561 . S
C600 C597 1.526 1_554 S
C600 C601 1.396 . S
C600 C605 1.390 . S
C601 C595 1.465 1_554 S
C601 C600 1.396 . S
C601 C602 1.399 . S
C602 H588 0.929 . S
C602 C601 1.399 . S
C602 C603 1.385 . S
C603 H589 0.931 . S
C603 C602 1.385 . S
C603 C604 1.389 . S
C604 C603 1.389 . S
C604 C605 1.387 . S
C605 H590 0.930 . S
C605 C600 1.390 . S
C605 C604 1.387 . S
H606 C618 0.930 . S
H607 C620 0.930 . S
H608 C621 0.930 . S
H609 C625 0.959 . S
H610 C625 0.959 . S
H611 C625 0.961 . S
H612 C626 0.960 . S
H613 C626 0.961 . S
H614 C626 0.959 . S
H615 C629 0.929 . S
H616 C630 0.931 1_655 S
H617 C632 0.930 . S
C618 H606 0.930 . S
C618 C619 1.399 . S
C618 C623 1.399 . S
C619 C618 1.399 . S
C619 C620 1.376 1_455 S
C620 H607 0.930 . S
C620 C619 1.376 1_655 S
C620 C621 1.388 . S
C621 H608 0.930 . S
C621 C620 1.388 . S
C621 C622 1.390 1_655 S
C622 C621 1.390 1_455 S
C622 C623 1.394 . S
C622 C628 1.465 . S
C623 C618 1.399 . S
C623 C622 1.394 . S
C623 C624 1.516 . S
C624 C623 1.516 . S
C624 C625 1.502 . S
C624 C626 1.561 . S
C624 C627 1.526 . S
C625 H609 0.959 . S
C625 H610 0.959 . S
C625 H611 0.961 . S
C625 C624 1.502 . S
C626 H612 0.960 . S
C626 H613 0.961 . S
C626 H614 0.959 . S
C626 C624 1.561 . S
C627 C624 1.526 . S
C627 C628 1.396 . S
C627 C632 1.390 . S
C628 C622 1.465 . S
C628 C627 1.396 . S
C628 C629 1.399 1_455 S
C629 H615 0.929 . S
C629 C628 1.399 1_655 S
C629 C630 1.385 1_655 S
C630 H616 0.931 1_455 S
C630 C629 1.385 1_455 S
C630 C631 1.389 . S
C631 C630 1.389 . S
C631 C632 1.387 . S
C632 H617 0.930 . S
C632 C627 1.390 . S
C632 C631 1.387 . S
C160 C20 0.993 . S
C172 N136 1.014 . S
C187 C41 1.298 . S
C199 N109 1.298 1_655 S
C214 C64 1.298 . S
C226 N122 1.306 . S
C241 C19 1.526 . S
C253 N135 1.594 . S
C280 N110 1.342 . S
C268 C44 1.322 . S
C307 N123 1.319 . S
C295 C67 1.327 . S
C322 C43 1.272 . S
C334 N83 1.249 . S
C349 C66 1.061 . S
C361 N97 1.011 1_655 S
C376 C21 1.315 . S
C388 N71 1.340 . S
C415 N84 1.324 . S
C403 C42 1.339 . S
C442 N96 1.581 . S
C430 C65 1.517 . S
C457 C18 1.295 . S
C469 N70 1.308 . S
C496 N100 1.502 . S
C484 C17 1.527 . S
C511 C39 1.546 . S
C523 N74 1.518 . S
C538 C62 1.525 . S
C550 N87 1.514 . S
C577 N126 1.532 . S
C565 C40 1.526 . S
C604 N139 1.503 . S
C592 C63 1.526 . S
C619 C16 1.535 . S
C631 N113 1.537 . S
