# Generated by pormake.
# Topology rtl, (3,6)-cn, num edge types: 1
# Building blocks:
#     Node 0, Type 0, BuildingBlock: INOVEN_clean_linker_0, # of connection points: 3
#     Node 1, Type 0, BuildingBlock: INOVEN_clean_linker_0, # of connection points: 3
#     Node 2, Type 0, BuildingBlock: INOVEN_clean_linker_0, # of connection points: 3
#     Node 3, Type 0, BuildingBlock: INOVEN_clean_linker_0, # of connection points: 3
#     Node 4, Type 1, BuildingBlock: CIFDUS_clean_sbu_1, # of connection points: 6
#     Node 5, Type 1, BuildingBlock: CIFDUS_clean_sbu_1, # of connection points: 6
#     Edge 6, Type (0, 1), BuildingBlock: UVAHIK_clean_linker_0, # of connection points: 2
#     Edge 7, Type (0, 1), BuildingBlock: UVAHIK_clean_linker_0, # of connection points: 2
#     Edge 8, Type (0, 1), BuildingBlock: UVAHIK_clean_linker_0, # of connection points: 2
#     Edge 9, Type (0, 1), BuildingBlock: UVAHIK_clean_linker_0, # of connection points: 2
#     Edge 10, Type (0, 1), BuildingBlock: UVAHIK_clean_linker_0, # of connection points: 2
#     Edge 11, Type (0, 1), BuildingBlock: UVAHIK_clean_linker_0, # of connection points: 2
#     Edge 12, Type (0, 1), BuildingBlock: UVAHIK_clean_linker_0, # of connection points: 2
#     Edge 13, Type (0, 1), BuildingBlock: UVAHIK_clean_linker_0, # of connection points: 2
#     Edge 14, Type (0, 1), BuildingBlock: UVAHIK_clean_linker_0, # of connection points: 2
#     Edge 15, Type (0, 1), BuildingBlock: UVAHIK_clean_linker_0, # of connection points: 2
#     Edge 16, Type (0, 1), BuildingBlock: UVAHIK_clean_linker_0, # of connection points: 2
#     Edge 17, Type (0, 1), BuildingBlock: UVAHIK_clean_linker_0, # of connection points: 2
# Relax obj value: 0.015
# Max RMSD: 0.115
# Mean RMSD: 0.084
data_MOF--net-rtl--node1-CIFDUS_clean_sbu_1--node2-INOVEN_clean_linker_0--edge1-UVAHIK_clean_linker_0
_symmetry_space_group_name_H-M    P1
_symmetry_Int_Tables_number       1
_symmetry_cell_setting            triclinic
loop_
_symmetry_equiv_pos_as_xyz
'x, y, z'
_cell_length_a     45.951526
_cell_length_b     46.170327
_cell_length_c     29.120208
_cell_angle_alpha  91.334877
_cell_angle_beta   98.661386
_cell_angle_gamma 89.987833
loop_
_atom_site_label
_atom_site_type_symbol
_atom_site_fract_x
_atom_site_fract_y
_atom_site_fract_z
_atom_type_partial_charge
H0 H 0.20639 0.81645 -0.00237 0.0
H1 H 0.15151 0.8731 0.06646 0.0
H2 H 0.21416 0.81767 0.14693 0.0
N3 N 0.23571 0.7934 0.07237 0.0
N4 N 0.24294 0.77643 0.10497 0.0
C5 C 0.19947 0.82495 0.02926 0.0
C6 C 0.17682 0.84563 0.02664 0.0
C7 C 0.21272 0.81427 0.07223 0.0
C8 C 0.20363 0.82522 0.11356 0.0
C9 C 0.18197 0.84707 0.11173 0.0
C10 C 0.16849 0.85667 0.06811 0.0
H11 H 0.71333 0.71138 0.66825 0.0
H12 H 0.64777 0.66126 0.57876 0.0
H13 H 0.70152 0.72244 0.52019 0.0
N14 N 0.7325 0.74142 0.60214 0.0
N15 N 0.73387 0.76091 0.57341 0.0
C16 C 0.70195 0.70568 0.63389 0.0
C17 C 0.67946 0.68448 0.62853 0.0
C18 C 0.70986 0.71978 0.59517 0.0
C19 C 0.69539 0.71201 0.55029 0.0
C20 C 0.67303 0.69077 0.54412 0.0
C21 C 0.66517 0.67739 0.58343 0.0
H22 H 0.7941 0.20955 0.91513 0.0
H23 H 0.85728 0.15846 0.00267 0.0
H24 H 0.80431 0.22106 0.06394 0.0
N25 N 0.77439 0.23987 0.98222 0.0
N26 N 0.77243 0.25942 0.01205 0.0
C27 C 0.80489 0.20381 0.94939 0.0
C28 C 0.82678 0.18223 0.95398 0.0
C29 C 0.79674 0.21815 0.98868 0.0
C30 C 0.81057 0.21039 0.03338 0.0
C31 C 0.83249 0.1888 0.03867 0.0
C32 C 0.8404 0.17501 -0.00122 0.0
H33 H 0.29454 0.31787 0.40859 0.0
H34 H 0.35395 0.37224 0.50193 0.0
H35 H 0.30005 0.30962 0.55657 0.0
N36 N 0.27227 0.28923 0.47278 0.0
N37 N 0.26416 0.27523 0.50491 0.0
C38 C 0.30393 0.32489 0.44342 0.0
C39 C 0.32589 0.34665 0.45009 0.0
C40 C 0.29433 0.31142 0.48144 0.0
C41 C 0.30699 0.31998 0.52702 0.0
C42 C 0.32899 0.34158 0.5346 0.0
C43 C 0.33791 0.35485 0.49597 0.0
O44 O 0.98229 0.04011 0.47556 0.0
Mn45 Mn 0.00253 0.01432 0.53074 0.0
O46 O 0.95352 0.01031 0.42641 0.0
Mn47 Mn 0.96805 0.9769 0.45505 0.0
O48 O 0.02276 0.98845 0.58591 0.0
O49 O 0.03386 0.0468 0.5451 0.0
Mn50 Mn 0.03745 0.05135 0.60653 0.0
O51 O 0.97448 0.03382 0.57425 0.0
O52 O 0.05254 0.0179 0.63412 0.0
O53 O 0.03074 0.99471 0.4874 0.0
O54 O 0.00314 0.96294 0.44035 0.0
O55 O 0.06297 0.07756 0.59017 0.0
O56 O 0.00243 0.06471 0.62256 0.0
C57 C 0.95073 0.96173 0.51272 0.0
C58 C 0.96307 0.03553 0.43905 0.0
C59 C 0.04252 0.99282 0.6218 0.0
C60 C 0.0538 0.06742 0.54867 0.0
C61 C 0.97757 0.05367 0.60652 0.0
C62 C 0.02792 0.97427 0.45606 0.0
O63 O 0.97099 0.98204 0.51633 0.0
O64 O 0.94202 0.95116 0.47135 0.0
O65 O 0.52196 0.54252 0.09558 0.0
Mn66 Mn 0.5024 0.51512 0.03994 0.0
O67 O 0.54904 0.5138 0.14645 0.0
Mn68 Mn 0.53501 0.47963 0.117 0.0
O69 O 0.48286 0.48726 0.9846 0.0
O70 O 0.47163 0.54742 0.02374 0.0
Mn71 Mn 0.46787 0.54879 0.96207 0.0
O72 O 0.53121 0.53322 -0.00234 0.0
O73 O 0.45219 0.51439 0.93627 0.0
O74 O 0.47312 0.49722 0.08194 0.0
O75 O 0.49938 0.46616 0.12947 0.0
O76 O 0.44289 0.57641 0.97744 0.0
O77 O 0.50323 0.56035 0.94527 0.0
C78 C 0.55388 0.46287 0.06083 0.0
C79 C 0.54022 0.53874 0.13312 0.0
C80 C 0.46275 0.48998 0.949 0.0
C81 C 0.45218 0.56838 0.01941 0.0
C82 C 0.52815 0.55081 0.96351 0.0
C83 C 0.47503 0.4775 0.11288 0.0
O84 O 0.53365 0.48313 0.056 0.0
O85 O 0.56149 0.45337 0.1024 0.0
C86 C 0.23624 0.23727 0.53542 0.0
C87 C 0.24223 0.25294 0.49728 0.0
C88 C 0.21513 0.21507 0.52997 0.0
C89 C 0.1492 0.18674 0.45241 0.0
H90 H 0.16535 0.11812 0.52605 0.0
C91 C 0.0942 0.06987 0.50169 0.0
C92 C 0.06671 0.08018 0.51023 0.0
C93 C 0.11482 0.0887 0.48703 0.0
C94 C 0.16048 0.13682 0.50449 0.0
H95 H 0.23034 0.25782 0.4229 0.0
H96 H 0.19321 0.21898 0.4132 0.0
H97 H 0.20307 0.15518 0.52794 0.0
H98 H 0.03848 0.11775 0.5064 0.0
H99 H 0.07383 0.15036 0.47991 0.0
H100 H 0.10636 0.16837 0.42943 0.0
C101 C 0.20492 0.2239 0.44761 0.0
C102 C 0.1821 0.1584 0.50617 0.0
C103 C 0.22631 0.24609 0.4531 0.0
C104 C 0.05913 0.1089 0.49881 0.0
C105 C 0.0797 0.12777 0.48417 0.0
C106 C 0.12743 0.16514 0.45091 0.0
C107 C 0.19916 0.20791 0.48599 0.0
C108 C 0.17667 0.18395 0.48085 0.0
C109 C 0.1085 0.11838 0.48081 0.0
C110 C 0.13258 0.13998 0.47745 0.0
H111 H 0.24808 0.24227 0.56974 0.0
H112 H 0.21105 0.20373 0.56052 0.0
H113 H 0.14411 0.2061 0.43251 0.0
H114 H 0.101 0.04808 0.5113 0.0
H115 H 0.13647 0.0804 0.48377 0.0
C116 C 0.26714 0.7311 0.13081 0.0
C117 C 0.2663 0.75602 0.10403 0.0
C118 C 0.28929 0.71022 0.1294 0.0
C119 C 0.3492 0.68824 0.05951 0.0
H120 H 0.3721 0.63692 0.1622 0.0
C121 C 0.44943 0.61428 0.06292 0.0
C122 C 0.4414 0.58487 0.05757 0.0
C123 C 0.43032 0.6348 0.07818 0.0
C124 C 0.36591 0.65115 0.13332 0.0
H125 H 0.28902 0.77942 0.05638 0.0
H126 H 0.32844 0.74435 0.05584 0.0
H127 H 0.33485 0.67411 0.16828 0.0
H128 H 0.40792 0.55372 0.06755 0.0
H129 H 0.37511 0.58947 0.09683 0.0
H130 H 0.38122 0.66585 0.02557 0.0
C131 C 0.31129 0.73971 0.0763 0.0
C132 C 0.34428 0.67243 0.13647 0.0
C133 C 0.28871 0.76016 0.07683 0.0
C134 C 0.41521 0.57604 0.07274 0.0
C135 C 0.3962 0.5966 0.08882 0.0
C136 C 0.37124 0.66754 0.05695 0.0
C137 C 0.31183 0.71404 0.10199 0.0
C138 C 0.33539 0.69138 0.09947 0.0
C139 C 0.40286 0.62637 0.08915 0.0
C140 C 0.37984 0.6487 0.09368 0.0
H141 H 0.25012 0.72745 0.15204 0.0
H142 H 0.28823 0.69083 0.14922 0.0
H143 H 0.34276 0.70141 0.02946 0.0
H144 H 0.469 0.62189 0.05025 0.0
H145 H 0.4361 0.65755 0.07823 0.0
C146 C 0.75124 0.80837 0.55478 0.0
C147 C 0.75645 0.78255 0.57883 0.0
C148 C 0.77297 0.82989 0.55753 0.0
C149 C 0.84808 0.85232 0.62115 0.0
H150 H 0.84597 0.90115 0.51427 0.0
C151 C 0.94396 0.92388 0.56914 0.0
C152 C 0.9357 0.95103 0.55049 0.0
C153 C 0.92298 0.90544 0.58391 0.0
C154 C 0.84672 0.88795 0.5447 0.0
H155 H 0.78896 0.75865 0.62456 0.0
H156 H 0.82766 0.79538 0.62758 0.0
H157 H 0.80874 0.8641 0.51432 0.0
H158 H 0.89943 0.98087 0.53595 0.0
H159 H 0.86298 0.94903 0.56194 0.0
H160 H 0.88764 0.87557 0.6497 0.0
C161 C 0.80632 0.79982 0.6078 0.0
C162 C 0.82511 0.86661 0.54499 0.0
C163 C 0.78415 0.77853 0.60594 0.0
C164 C 0.90671 0.96047 0.55136 0.0
C165 C 0.88567 0.94196 0.56541 0.0
C166 C 0.87022 0.87336 0.62032 0.0
C167 C 0.80122 0.82588 0.58331 0.0
C168 C 0.82506 0.8485 0.58338 0.0
C169 C 0.8932 0.91364 0.5795 0.0
C170 C 0.8696 0.89165 0.58223 0.0
H171 H 0.73003 0.81199 0.53391 0.0
H172 H 0.76736 0.84973 0.53929 0.0
H173 H 0.84898 0.8393 0.65173 0.0
H174 H 0.96585 0.91557 0.56749 0.0
H175 H 0.9295 0.88375 0.59444 0.0
C176 C 0.72312 0.27705 0.97662 0.0
C177 C 0.75 0.28107 0.00639 0.0
C178 C 0.70109 0.29844 0.97385 0.0
C179 C 0.68034 0.36605 0.03744 0.0
H180 H 0.6218 0.37419 0.92785 0.0
C181 C 0.59945 0.46055 0.02629 0.0
C182 C 0.57015 0.4513 0.02438 0.0
C183 C 0.62097 0.44163 0.01377 0.0
C184 C 0.6381 0.37221 0.9586 0.0
H185 H 0.77514 0.31062 0.05529 0.0
H186 H 0.73811 0.34856 0.04858 0.0
H187 H 0.6605 0.33769 0.92811 0.0
H188 H 0.5401 0.41566 0.00409 0.0
H189 H 0.57738 0.38307 0.9797 0.0
H190 H 0.65836 0.40111 0.06723 0.0
C191 C 0.73298 0.32862 0.02878 0.0
C192 C 0.66024 0.35103 0.95908 0.0
C193 C 0.75455 0.30699 0.03237 0.0
C194 C 0.56226 0.42381 0.00452 0.0
C195 C 0.58375 0.40495 0.99125 0.0
C196 C 0.65875 0.38753 0.03648 0.0
C197 C 0.70555 0.32466 9e-05 0.0
C198 C 0.6818 0.34749 -0.00135 0.0
C199 C 0.61363 0.41307 -0.00158 0.0
C200 C 0.6373 0.39091 -0.00281 0.0
H201 H 0.71882 0.25711 0.95642 0.0
H202 H 0.68036 0.294 0.95186 0.0
H203 H 0.69553 0.36379 0.06933 0.0
H204 H 0.60643 0.48122 0.04272 0.0
H205 H 0.64376 0.44862 0.01939 0.0
C206 C 0.1728 0.89118 0.15958 0.0
C207 C 0.17351 0.86082 0.15476 0.0
C208 C 0.16248 0.90456 0.19765 0.0
C209 C 0.14089 0.8902 0.31482 0.0
H210 H 0.09639 0.96105 0.29093 0.0
C211 C 0.05589 0.93316 0.42748 0.0
C212 C 0.05348 0.96317 0.43534 0.0
C213 C 0.0756 0.92205 0.39938 0.0
C214 C 0.10917 0.94156 0.29851 0.0
H215 H 0.16444 0.8207 0.18682 0.0
H216 H 0.14548 0.84386 0.25264 0.0
H217 H 0.11988 0.93864 0.22966 0.0
H218 H 0.0706 0.0051 0.42098 0.0
H219 H 0.10503 0.98569 0.37091 0.0
H220 H 0.12874 0.89263 0.38319 0.0
C221 C 0.15355 0.85753 0.2276 0.0
C222 C 0.12277 0.92859 0.26325 0.0
C223 C 0.16435 0.84413 0.18972 0.0
C224 C 0.07226 0.98187 0.41605 0.0
C225 C 0.0917 0.97074 0.387 0.0
C226 C 0.12694 0.90301 0.3499 0.0
C227 C 0.15204 0.88802 0.23187 0.0
C228 C 0.13868 0.90253 0.27059 0.0
C229 C 0.09312 0.94069 0.37751 0.0
C230 C 0.11066 0.92872 0.34209 0.0
H231 H 0.18009 0.90467 0.13353 0.0
H232 H 0.16258 0.92799 0.19997 0.0
H233 H 0.15335 0.87055 0.32249 0.0
H234 H 0.04152 0.91824 0.4416 0.0
H235 H 0.07586 0.89889 0.39265 0.0
C236 C 0.66642 0.68584 0.70999 0.0
C237 C 0.67031 0.66989 0.6696 0.0
C238 C 0.65553 0.67248 0.74681 0.0
C239 C 0.64268 0.60048 0.79664 0.0
H240 H 0.58234 0.64166 0.85115 0.0
C241 C 0.56518 0.54448 0.9093 0.0
C242 C 0.55386 0.56118 0.94341 0.0
C243 C 0.58354 0.55715 0.88078 0.0
C244 C 0.59956 0.62993 0.83717 0.0
H245 H 0.66697 0.62691 0.63755 0.0
H246 H 0.64787 0.60376 0.70133 0.0
H247 H 0.60638 0.6649 0.79289 0.0
H248 H 0.55355 0.6038 0.97557 0.0
H249 H 0.58658 0.62563 0.92775 0.0
H250 H 0.63566 0.56538 0.84078 0.0
C251 C 0.65323 0.62662 0.70469 0.0
C252 C 0.61336 0.64334 0.80346 0.0
C253 C 0.66393 0.64001 0.6678 0.0
C254 C 0.5624 0.59033 0.95005 0.0
C255 C 0.58094 0.60293 0.92196 0.0
C256 C 0.62896 0.58708 0.83062 0.0
C257 C 0.64844 0.64272 0.74449 0.0
C258 C 0.63496 0.62878 0.78237 0.0
C259 C 0.59094 0.58686 0.88569 0.0
C260 C 0.607 0.60151 0.85124 0.0
H261 H 0.67094 0.70889 0.71259 0.0
H262 H 0.65249 0.68555 0.77708 0.0
H263 H 0.65946 0.58867 0.78167 0.0
H264 H 0.55827 0.52215 0.90264 0.0
H265 H 0.59045 0.54401 0.85312 0.0
C266 C 0.87794 0.17862 0.09572 0.0
C267 C 0.84709 0.18 0.08557 0.0
C268 C 0.89179 0.1681 0.13825 0.0
C269 C 0.87736 0.14623 0.25702 0.0
H270 H 0.94954 0.10284 0.2561 0.0
C271 C 0.92092 0.06024 0.3919 0.0
C272 C 0.95119 0.0597 0.40912 0.0
C273 C 0.90958 0.07956 0.35747 0.0
C274 C 0.92964 0.11526 0.25715 0.0
H275 H 0.80658 0.17159 0.11235 0.0
H276 H 0.83042 0.15213 0.18568 0.0
H277 H 0.92692 0.12659 0.18594 0.0
H278 H 0.9933 0.07943 0.40432 0.0
H279 H 0.97351 0.11295 0.34275 0.0
H280 H 0.87947 0.1332 0.32777 0.0
C281 C 0.84422 0.16001 0.16164 0.0
C282 C 0.91657 0.12905 0.2168 0.0
C283 C 0.8304 0.17108 0.11937 0.0
C284 C 0.96984 0.07963 0.39211 0.0
C285 C 0.95854 0.09859 0.35664 0.0
C286 C 0.89017 0.13197 0.29709 0.0
C287 C 0.8752 0.15802 0.17168 0.0
C288 C 0.89002 0.14458 0.2158 0.0
C289 C 0.92831 0.09843 0.33844 0.0
C290 C 0.91633 0.11611 0.29755 0.0
H291 H 0.89141 0.1856 0.07051 0.0
H292 H 0.9156 0.16779 0.14467 0.0
H293 H 0.85739 0.15842 0.25848 0.0
H294 H 0.90606 0.045 0.40416 0.0
H295 H 0.88628 0.07869 0.34405 0.0
C296 C 0.3257 0.35628 0.61791 0.0
C297 C 0.34288 0.35066 0.58261 0.0
C298 C 0.33872 0.36697 0.66177 0.0
C299 C 0.41038 0.37556 0.74021 0.0
H300 H 0.37177 0.44049 0.79194 0.0
C301 C 0.46868 0.45036 0.89082 0.0
C302 C 0.45119 0.46467 0.91976 0.0
C303 C 0.45565 0.43233 0.85376 0.0
C304 C 0.38271 0.42199 0.7788 0.0
H305 H 0.38748 0.35069 0.56669 0.0
H306 H 0.41009 0.36924 0.6429 0.0
H307 H 0.34855 0.41686 0.72042 0.0
H308 H 0.40678 0.47021 0.93444 0.0
H309 H 0.38424 0.43765 0.87209 0.0
H310 H 0.44463 0.38073 0.79863 0.0
C311 C 0.38655 0.36546 0.63678 0.0
C312 C 0.36931 0.40845 0.73743 0.0
C313 C 0.37352 0.35507 0.59287 0.0
C314 C 0.42079 0.45919 0.91288 0.0
C315 C 0.40784 0.4409 0.8765 0.0
C316 C 0.42372 0.38896 0.78193 0.0
C317 C 0.36931 0.37199 0.67166 0.0
C318 C 0.38303 0.3852 0.71729 0.0
C319 C 0.42484 0.42814 0.84506 0.0
C320 C 0.41018 0.41255 0.80179 0.0
H321 H 0.30206 0.35327 0.61119 0.0
H322 H 0.32478 0.37146 0.68791 0.0
H323 H 0.42147 0.35751 0.72598 0.0
H324 H 0.4921 0.45475 0.89473 0.0
H325 H 0.46958 0.42316 0.83036 0.0
C326 C 0.6271 0.68009 0.48734 0.0
C327 C 0.65797 0.68192 0.4968 0.0
C328 C 0.6129 0.66977 0.44405 0.0
C329 C 0.62601 0.65016 0.32235 0.0
H330 H 0.55503 0.60453 0.32085 0.0
C331 C 0.58239 0.56539 0.17878 0.0
C332 C 0.55193 0.56359 0.16348 0.0
C333 C 0.59381 0.58473 0.21468 0.0
C334 C 0.57457 0.6176 0.32049 0.0
H335 H 0.69813 0.67449 0.468 0.0
H336 H 0.67368 0.65551 0.3932 0.0
H337 H 0.57811 0.62775 0.39308 0.0
H338 H 0.50951 0.58101 0.17313 0.0
H339 H 0.52948 0.61465 0.23703 0.0
H340 H 0.6231 0.63843 0.24999 0.0
C341 C 0.66014 0.66283 0.41851 0.0
C342 C 0.58789 0.63106 0.36205 0.0
C343 C 0.6743 0.67363 0.4616 0.0
C344 C 0.53311 0.58231 0.18376 0.0
C345 C 0.54453 0.6013 0.22059 0.0
C346 C 0.61293 0.63628 0.28098 0.0
C347 C 0.62917 0.66044 0.40909 0.0
C348 C 0.61404 0.64737 0.36388 0.0
C349 C 0.575 0.60231 0.23705 0.0
C350 C 0.58719 0.61961 0.27962 0.0
H351 H 0.61388 0.68661 0.51359 0.0
H352 H 0.58909 0.66908 0.43819 0.0
H353 H 0.64565 0.66298 0.32165 0.0
H354 H 0.59733 0.55095 0.1641 0.0
H355 H 0.6173 0.58474 0.22668 0.0
C356 C 0.84293 0.18319 0.87493 0.0
C357 C 0.83586 0.16727 0.91232 0.0
C358 C 0.85351 0.16922 0.83743 0.0
C359 C 0.88722 0.09901 0.80467 0.0
H360 H 0.87502 0.13166 0.68187 0.0
C361 C 0.93484 0.04513 0.64945 0.0
C362 C 0.95219 0.06423 0.6281 0.0
C363 C 0.9159 0.0559 0.67955 0.0
C364 C 0.87854 0.12221 0.71595 0.0
H365 H 0.83315 0.12402 0.93857 0.0
H366 H 0.85042 0.09955 0.87275 0.0
H367 H 0.85119 0.1537 0.74341 0.0
H368 H 0.96223 0.10939 0.61947 0.0
H369 H 0.92852 0.12813 0.67013 0.0
H370 H 0.91445 0.06741 0.77674 0.0
C371 C 0.84891 0.12294 0.87282 0.0
C372 C 0.86507 0.13501 0.75153 0.0
C373 C 0.83878 0.13696 0.9106 0.0
C374 C 0.94887 0.0942 0.63507 0.0
C375 C 0.92956 0.10494 0.66417 0.0
C376 C 0.90032 0.08598 0.76889 0.0
C377 C 0.85692 0.13883 0.83586 0.0
C378 C 0.8696 0.12396 0.79679 0.0
C379 C 0.91353 0.08596 0.68801 0.0
C380 C 0.89658 0.09769 0.72428 0.0
H381 H 0.84122 0.20659 0.87541 0.0
H382 H 0.85983 0.18247 0.81037 0.0
H383 H 0.89185 0.08997 0.83895 0.0
H384 H 0.93733 0.02193 0.6453 0.0
H385 H 0.90373 0.04072 0.69723 0.0
C386 C 0.31752 0.36656 0.36834 0.0
C387 C 0.33663 0.36091 0.40977 0.0
C388 C 0.32768 0.38089 0.33167 0.0
C389 C 0.38628 0.43068 0.3073 0.0
H390 H 0.37021 0.40034 0.18076 0.0
C391 C 0.43289 0.48649 0.15726 0.0
C392 C 0.44887 0.46743 0.13229 0.0
C393 C 0.41378 0.47561 0.18629 0.0
C394 C 0.37469 0.40923 0.21586 0.0
H395 H 0.38203 0.36508 0.44336 0.0
H396 H 0.39922 0.39063 0.38051 0.0
H397 H 0.34828 0.3769 0.2421 0.0
H398 H 0.45628 0.42231 0.1161 0.0
H399 H 0.42232 0.40341 0.16501 0.0
H400 H 0.41313 0.46263 0.28144 0.0
C401 C 0.37626 0.3843 0.37664 0.0
C402 C 0.36202 0.39587 0.25097 0.0
C403 C 0.36628 0.36967 0.41289 0.0
C404 C 0.4439 0.43749 0.13445 0.0
C405 C 0.42446 0.42667 0.1626 0.0
C406 C 0.39857 0.44429 0.27214 0.0
C407 C 0.35712 0.39028 0.33564 0.0
C408 C 0.3682 0.40603 0.29735 0.0
C409 C 0.40994 0.44549 0.19023 0.0
C410 C 0.39346 0.4334 0.2261 0.0
H411 H 0.29451 0.36051 0.36451 0.0
H412 H 0.31233 0.3852 0.30058 0.0
H413 H 0.39125 0.43926 0.34256 0.0
H414 H 0.43673 0.50963 0.15691 0.0
H415 H 0.4028 0.49071 0.20692 0.0
C416 C 0.17799 0.86455 0.94626 0.0
C417 C 0.16175 0.85588 0.98082 0.0
C418 C 0.16373 0.87525 0.90403 0.0
C419 C 0.09121 0.90544 0.84889 0.0
H420 H 0.1261 0.89625 0.73627 0.0
C421 C 0.03563 0.95042 0.672 0.0
C422 C 0.05432 0.96869 0.65173 0.0
C423 C 0.04721 0.93229 0.70845 0.0
C424 C 0.11602 0.89892 0.76742 0.0
H425 H 0.11768 0.85067 -0.00269 0.0
H426 H 0.09276 0.86824 0.92344 0.0
H427 H 0.14907 0.87333 0.80724 0.0
H428 H 0.09972 0.98125 0.65187 0.0
H429 H 0.11994 0.94899 0.71376 0.0
H430 H 0.05804 0.93087 0.80855 0.0
C431 C 0.11658 0.86783 0.92922 0.0
C432 C 0.12935 0.88598 0.80839 0.0
C433 C 0.13087 0.85756 0.97167 0.0
C434 C 0.08483 0.96719 0.66658 0.0
C435 C 0.09641 0.94871 0.70209 0.0
C436 C 0.07767 0.918 0.80772 0.0
C437 C 0.13275 0.87717 0.89479 0.0
C438 C 0.11748 0.88944 0.85011 0.0
C439 C 0.07774 0.93167 0.7245 0.0
C440 C 0.09016 0.91532 0.76665 0.0
H441 H 0.20182 0.8638 0.95238 0.0
H442 H 0.17718 0.88265 0.87913 0.0
H443 H 0.08149 0.90918 0.88011 0.0
H444 H 0.012 0.95147 0.66171 0.0
H445 H 0.03226 0.91931 0.72489 0.0
loop_
_geom_bond_atom_site_label_1
_geom_bond_atom_site_label_2
_geom_bond_distance
_geom_bond_site_symmetry_2
_ccdc_geom_bond_type
H0 C5 0.935 . S
H1 C10 0.931 . S
H2 C8 0.930 . S
N3 N4 1.234 . S
N3 C7 1.453 . S
N4 N3 1.234 . S
C5 H0 0.935 . S
C5 C6 1.373 . S
C5 C7 1.368 . S
C6 C5 1.373 . S
C6 C10 1.397 . S
C7 N3 1.453 . S
C7 C5 1.368 . S
C7 C8 1.373 . S
C8 H2 0.930 . S
C8 C7 1.373 . S
C8 C9 1.371 . S
C9 C8 1.371 . S
C9 C10 1.383 . S
C10 H1 0.931 . S
C10 C6 1.397 . S
C10 C9 1.383 . S
H11 C16 0.929 . S
H12 C21 0.931 . S
H13 C19 0.930 . S
N14 N15 1.234 . S
N14 C18 1.453 . S
N15 N14 1.234 . S
C16 H11 0.929 . S
C16 C17 1.373 . S
C16 C18 1.368 . S
C17 C16 1.373 . S
C17 C21 1.397 . S
C18 N14 1.453 . S
C18 C16 1.368 . S
C18 C19 1.373 . S
C19 H13 0.930 . S
C19 C18 1.373 . S
C19 C20 1.371 . S
C20 C19 1.371 . S
C20 C21 1.383 . S
C21 H12 0.931 . S
C21 C17 1.397 . S
C21 C20 1.383 . S
H22 C27 0.929 . S
H23 C32 0.931 . S
H24 C30 0.930 . S
N25 N26 1.234 1_556 S
N25 C29 1.453 . S
N26 N25 1.234 1_554 S
C27 H22 0.929 . S
C27 C28 1.373 . S
C27 C29 1.368 . S
C28 C27 1.373 . S
C28 C32 1.397 1_556 S
C29 N25 1.453 . S
C29 C27 1.368 . S
C29 C30 1.373 1_556 S
C30 H24 0.930 . S
C30 C29 1.373 1_554 S
C30 C31 1.371 . S
C31 C30 1.371 . S
C31 C32 1.383 . S
C32 H23 0.931 . S
C32 C28 1.397 1_554 S
C32 C31 1.383 . S
H33 C38 0.929 . S
H34 C43 0.931 . S
H35 C41 0.930 . S
N36 N37 1.234 . S
N36 C40 1.453 . S
N37 N36 1.234 . S
C38 H33 0.929 . S
C38 C39 1.373 . S
C38 C40 1.368 . S
C39 C38 1.373 . S
C39 C43 1.397 . S
C40 N36 1.453 . S
C40 C38 1.368 . S
C40 C41 1.373 . S
C41 H35 0.930 . S
C41 C40 1.373 . S
C41 C42 1.371 . S
C42 C41 1.371 . S
C42 C43 1.383 . S
C43 H34 0.931 . S
C43 C39 1.397 . S
C43 C42 1.383 . S
O44 Mn45 2.163 1_655 S
O44 C58 1.244 . S
Mn45 O44 2.163 1_455 S
Mn45 O48 2.160 1_545 S
Mn45 O49 2.221 . S
Mn45 O51 2.163 1_455 S
Mn45 O53 2.160 1_545 S
Mn45 O63 2.221 1_445 S
O46 Mn47 2.087 1_545 S
O46 C58 1.256 . S
Mn47 O46 2.087 1_565 S
Mn47 O54 2.089 1_655 S
Mn47 O63 2.290 . S
Mn47 O64 2.251 . S
O48 Mn45 2.160 1_565 S
O48 C59 1.239 . S
O49 Mn45 2.221 . S
O49 Mn50 2.290 . S
O49 C60 1.278 . S
Mn50 O49 2.290 . S
Mn50 O52 2.089 . S
Mn50 O55 2.251 . S
Mn50 O56 2.087 . S
O51 Mn45 2.163 1_655 S
O51 C61 1.244 . S
O52 Mn50 2.089 . S
O52 C59 1.256 1_545 S
O53 Mn45 2.160 1_565 S
O53 C62 1.239 . S
O54 Mn47 2.089 1_455 S
O54 C62 1.256 . S
O55 Mn50 2.251 . S
O55 C60 1.241 . S
O56 Mn50 2.087 . S
O56 C61 1.256 1_455 S
C57 O63 1.278 . S
C57 O64 1.241 . S
C58 O44 1.244 . S
C58 O46 1.256 . S
C59 O48 1.239 . S
C59 O52 1.256 1_565 S
C60 O49 1.278 . S
C60 O55 1.241 . S
C61 O51 1.244 . S
C61 O56 1.256 1_655 S
C62 O53 1.239 . S
C62 O54 1.256 . S
O63 Mn45 2.221 1_665 S
O63 Mn47 2.290 . S
O63 C57 1.278 . S
O64 Mn47 2.251 . S
O64 C57 1.241 . S
O65 Mn66 2.163 . S
O65 C79 1.244 . S
Mn66 O65 2.163 . S
Mn66 O69 2.160 1_554 S
Mn66 O70 2.221 . S
Mn66 O72 2.163 . S
Mn66 O74 2.160 . S
Mn66 O84 2.221 . S
O67 Mn68 2.087 . S
O67 C79 1.256 . S
Mn68 O67 2.087 . S
Mn68 O75 2.089 . S
Mn68 O84 2.290 . S
Mn68 O85 2.251 . S
O69 Mn66 2.160 1_556 S
O69 C80 1.239 . S
O70 Mn66 2.221 . S
O70 Mn71 2.290 1_554 S
O70 C81 1.278 . S
Mn71 O70 2.290 1_556 S
Mn71 O73 2.089 . S
Mn71 O76 2.251 1_556 S
Mn71 O77 2.087 . S
O72 Mn66 2.163 . S
O72 C82 1.244 1_554 S
O73 Mn71 2.089 . S
O73 C80 1.256 . S
O74 Mn66 2.160 . S
O74 C83 1.239 . S
O75 Mn68 2.089 . S
O75 C83 1.256 . S
O76 Mn71 2.251 1_554 S
O76 C81 1.241 . S
O77 Mn71 2.087 . S
O77 C82 1.256 . S
C78 O84 1.278 . S
C78 O85 1.241 . S
C79 O65 1.244 . S
C79 O67 1.256 . S
C80 O69 1.239 . S
C80 O73 1.256 . S
C81 O70 1.278 . S
C81 O76 1.241 . S
C82 O72 1.244 1_556 S
C82 O77 1.256 . S
C83 O74 1.239 . S
C83 O75 1.256 . S
O84 Mn66 2.221 . S
O84 Mn68 2.290 . S
O84 C78 1.278 . S
O85 Mn68 2.251 . S
O85 C78 1.241 . S
C86 C87 1.349 . S
C86 C88 1.327 . S
C86 H111 0.950 . S
C87 C86 1.349 . S
C87 C103 1.349 . S
C88 C86 1.327 . S
C88 C107 1.429 . S
C88 H112 0.950 . S
C89 C106 1.574 . S
C89 C108 1.368 . S
C89 H113 0.949 . S
H90 C94 0.949 . S
C91 C92 1.349 . S
C91 C93 1.327 . S
C91 H114 0.950 . S
C92 C91 1.349 . S
C92 C104 1.349 . S
C93 C91 1.327 . S
C93 C109 1.429 . S
C93 H115 0.950 . S
C94 H90 0.949 . S
C94 C102 1.574 . S
C94 C110 1.368 . S
H95 C103 0.950 . S
H96 C101 0.950 . S
H97 C102 0.949 . S
H98 C104 0.950 . S
H99 C105 0.950 . S
H100 C106 0.949 . S
C101 H96 0.950 . S
C101 C103 1.327 . S
C101 C107 1.429 . S
C102 C94 1.574 . S
C102 H97 0.949 . S
C102 C108 1.368 . S
C103 C87 1.349 . S
C103 H95 0.950 . S
C103 C101 1.327 . S
C104 C92 1.349 . S
C104 H98 0.950 . S
C104 C105 1.327 . S
C105 H99 0.950 . S
C105 C104 1.327 . S
C105 C109 1.429 . S
C106 C89 1.574 . S
C106 H100 0.949 . S
C106 C110 1.368 . S
C107 C88 1.429 . S
C107 C101 1.429 . S
C107 C108 1.523 . S
C108 C89 1.368 . S
C108 C102 1.368 . S
C108 C107 1.523 . S
C109 C93 1.429 . S
C109 C105 1.429 . S
C109 C110 1.523 . S
C110 C94 1.368 . S
C110 C106 1.368 . S
C110 C109 1.523 . S
H111 C86 0.950 . S
H112 C88 0.950 . S
H113 C89 0.949 . S
H114 C91 0.950 . S
H115 C93 0.950 . S
C116 C117 1.349 . S
C116 C118 1.327 . S
C116 H141 0.950 . S
C117 C116 1.349 . S
C117 C133 1.349 . S
C118 C116 1.327 . S
C118 C137 1.429 . S
C118 H142 0.950 . S
C119 C136 1.574 . S
C119 C138 1.368 . S
C119 H143 0.949 . S
H120 C124 0.949 . S
C121 C122 1.349 . S
C121 C123 1.327 . S
C121 H144 0.950 . S
C122 C121 1.349 . S
C122 C134 1.349 . S
C123 C121 1.327 . S
C123 C139 1.429 . S
C123 H145 0.950 . S
C124 H120 0.949 . S
C124 C132 1.574 . S
C124 C140 1.368 . S
H125 C133 0.950 . S
H126 C131 0.950 . S
H127 C132 0.949 . S
H128 C134 0.950 . S
H129 C135 0.950 . S
H130 C136 0.949 . S
C131 H126 0.950 . S
C131 C133 1.327 . S
C131 C137 1.429 . S
C132 C124 1.574 . S
C132 H127 0.949 . S
C132 C138 1.368 . S
C133 C117 1.349 . S
C133 H125 0.950 . S
C133 C131 1.327 . S
C134 C122 1.349 . S
C134 H128 0.950 . S
C134 C135 1.327 . S
C135 H129 0.950 . S
C135 C134 1.327 . S
C135 C139 1.429 . S
C136 C119 1.574 . S
C136 H130 0.949 . S
C136 C140 1.368 . S
C137 C118 1.429 . S
C137 C131 1.429 . S
C137 C138 1.523 . S
C138 C119 1.368 . S
C138 C132 1.368 . S
C138 C137 1.523 . S
C139 C123 1.429 . S
C139 C135 1.429 . S
C139 C140 1.523 . S
C140 C124 1.368 . S
C140 C136 1.368 . S
C140 C139 1.523 . S
H141 C116 0.950 . S
H142 C118 0.950 . S
H143 C119 0.949 . S
H144 C121 0.950 . S
H145 C123 0.950 . S
C146 C147 1.349 . S
C146 C148 1.327 . S
C146 H171 0.950 . S
C147 C146 1.349 . S
C147 C163 1.349 . S
C148 C146 1.327 . S
C148 C167 1.429 . S
C148 H172 0.950 . S
C149 C166 1.574 . S
C149 C168 1.368 . S
C149 H173 0.949 . S
H150 C154 0.949 . S
C151 C152 1.349 . S
C151 C153 1.327 . S
C151 H174 0.950 . S
C152 C151 1.349 . S
C152 C164 1.349 . S
C153 C151 1.327 . S
C153 C169 1.429 . S
C153 H175 0.950 . S
C154 H150 0.949 . S
C154 C162 1.574 . S
C154 C170 1.368 . S
H155 C163 0.950 . S
H156 C161 0.950 . S
H157 C162 0.949 . S
H158 C164 0.950 . S
H159 C165 0.950 . S
H160 C166 0.949 . S
C161 H156 0.950 . S
C161 C163 1.327 . S
C161 C167 1.429 . S
C162 C154 1.574 . S
C162 H157 0.949 . S
C162 C168 1.368 . S
C163 C147 1.349 . S
C163 H155 0.950 . S
C163 C161 1.327 . S
C164 C152 1.349 . S
C164 H158 0.950 . S
C164 C165 1.327 . S
C165 H159 0.950 . S
C165 C164 1.327 . S
C165 C169 1.429 . S
C166 C149 1.574 . S
C166 H160 0.949 . S
C166 C170 1.368 . S
C167 C148 1.429 . S
C167 C161 1.429 . S
C167 C168 1.523 . S
C168 C149 1.368 . S
C168 C162 1.368 . S
C168 C167 1.523 . S
C169 C153 1.429 . S
C169 C165 1.429 . S
C169 C170 1.523 . S
C170 C154 1.368 . S
C170 C166 1.368 . S
C170 C169 1.523 . S
H171 C146 0.950 . S
H172 C148 0.950 . S
H173 C149 0.949 . S
H174 C151 0.950 . S
H175 C153 0.950 . S
C176 C177 1.349 1_556 S
C176 C178 1.327 . S
C176 H201 0.950 . S
C177 C176 1.349 1_554 S
C177 C193 1.349 . S
C178 C176 1.327 . S
C178 C197 1.429 1_556 S
C178 H202 0.950 . S
C179 C196 1.574 . S
C179 C198 1.368 . S
C179 H203 0.949 . S
H180 C184 0.949 . S
C181 C182 1.349 . S
C181 C183 1.327 . S
C181 H204 0.950 . S
C182 C181 1.349 . S
C182 C194 1.349 1_554 S
C183 C181 1.327 . S
C183 C199 1.429 . S
C183 H205 0.950 . S
C184 H180 0.949 . S
C184 C192 1.574 . S
C184 C200 1.368 1_556 S
H185 C193 0.950 . S
H186 C191 0.950 . S
H187 C192 0.949 . S
H188 C194 0.950 . S
H189 C195 0.950 . S
H190 C196 0.949 . S
C191 H186 0.950 . S
C191 C193 1.327 . S
C191 C197 1.429 . S
C192 C184 1.574 . S
C192 H187 0.949 . S
C192 C198 1.368 1_556 S
C193 C177 1.349 . S
C193 H185 0.950 . S
C193 C191 1.327 . S
C194 C182 1.349 1_556 S
C194 H188 0.950 . S
C194 C195 1.327 . S
C195 H189 0.950 . S
C195 C194 1.327 . S
C195 C199 1.429 1_556 S
C196 C179 1.574 . S
C196 H190 0.949 . S
C196 C200 1.368 . S
C197 C178 1.429 1_554 S
C197 C191 1.429 . S
C197 C198 1.523 . S
C198 C179 1.368 . S
C198 C192 1.368 1_554 S
C198 C197 1.523 . S
C199 C183 1.429 . S
C199 C195 1.429 1_554 S
C199 C200 1.523 . S
C200 C184 1.368 1_554 S
C200 C196 1.368 . S
C200 C199 1.523 . S
H201 C176 0.950 . S
H202 C178 0.950 . S
H203 C179 0.949 . S
H204 C181 0.950 . S
H205 C183 0.950 . S
C206 C207 1.349 . S
C206 C208 1.327 . S
C206 H231 0.950 . S
C207 C206 1.349 . S
C207 C223 1.349 . S
C208 C206 1.327 . S
C208 C227 1.429 . S
C208 H232 0.950 . S
C209 C226 1.574 . S
C209 C228 1.368 . S
C209 H233 0.949 . S
H210 C214 0.949 . S
C211 C212 1.349 . S
C211 C213 1.327 . S
C211 H234 0.950 . S
C212 C211 1.349 . S
C212 C224 1.349 . S
C213 C211 1.327 . S
C213 C229 1.429 . S
C213 H235 0.950 . S
C214 H210 0.949 . S
C214 C222 1.574 . S
C214 C230 1.368 . S
H215 C223 0.950 . S
H216 C221 0.950 . S
H217 C222 0.949 . S
H218 C224 0.950 1_545 S
H219 C225 0.950 . S
H220 C226 0.949 . S
C221 H216 0.950 . S
C221 C223 1.327 . S
C221 C227 1.429 . S
C222 C214 1.574 . S
C222 H217 0.949 . S
C222 C228 1.368 . S
C223 C207 1.349 . S
C223 H215 0.950 . S
C223 C221 1.327 . S
C224 C212 1.349 . S
C224 H218 0.950 1_565 S
C224 C225 1.327 . S
C225 H219 0.950 . S
C225 C224 1.327 . S
C225 C229 1.429 . S
C226 C209 1.574 . S
C226 H220 0.949 . S
C226 C230 1.368 . S
C227 C208 1.429 . S
C227 C221 1.429 . S
C227 C228 1.523 . S
C228 C209 1.368 . S
C228 C222 1.368 . S
C228 C227 1.523 . S
C229 C213 1.429 . S
C229 C225 1.429 . S
C229 C230 1.523 . S
C230 C214 1.368 . S
C230 C226 1.368 . S
C230 C229 1.523 . S
H231 C206 0.950 . S
H232 C208 0.950 . S
H233 C209 0.949 . S
H234 C211 0.950 . S
H235 C213 0.950 . S
C236 C237 1.349 . S
C236 C238 1.327 . S
C236 H261 0.950 . S
C237 C236 1.349 . S
C237 C253 1.349 . S
C238 C236 1.327 . S
C238 C257 1.429 . S
C238 H262 0.950 . S
C239 C256 1.574 . S
C239 C258 1.368 . S
C239 H263 0.949 . S
H240 C244 0.949 . S
C241 C242 1.349 . S
C241 C243 1.327 . S
C241 H264 0.950 . S
C242 C241 1.349 . S
C242 C254 1.349 . S
C243 C241 1.327 . S
C243 C259 1.429 . S
C243 H265 0.950 . S
C244 H240 0.949 . S
C244 C252 1.574 . S
C244 C260 1.368 . S
H245 C253 0.950 . S
H246 C251 0.950 . S
H247 C252 0.949 . S
H248 C254 0.950 . S
H249 C255 0.950 . S
H250 C256 0.949 . S
C251 H246 0.950 . S
C251 C253 1.327 . S
C251 C257 1.429 . S
C252 C244 1.574 . S
C252 H247 0.949 . S
C252 C258 1.368 . S
C253 C237 1.349 . S
C253 H245 0.950 . S
C253 C251 1.327 . S
C254 C242 1.349 . S
C254 H248 0.950 . S
C254 C255 1.327 . S
C255 H249 0.950 . S
C255 C254 1.327 . S
C255 C259 1.429 . S
C256 C239 1.574 . S
C256 H250 0.949 . S
C256 C260 1.368 . S
C257 C238 1.429 . S
C257 C251 1.429 . S
C257 C258 1.523 . S
C258 C239 1.368 . S
C258 C252 1.368 . S
C258 C257 1.523 . S
C259 C243 1.429 . S
C259 C255 1.429 . S
C259 C260 1.523 . S
C260 C244 1.368 . S
C260 C256 1.368 . S
C260 C259 1.523 . S
H261 C236 0.950 . S
H262 C238 0.950 . S
H263 C239 0.949 . S
H264 C241 0.950 . S
H265 C243 0.950 . S
C266 C267 1.349 . S
C266 C268 1.327 . S
C266 H291 0.950 . S
C267 C266 1.349 . S
C267 C283 1.349 . S
C268 C266 1.327 . S
C268 C287 1.429 . S
C268 H292 0.950 . S
C269 C286 1.574 . S
C269 C288 1.368 . S
C269 H293 0.949 . S
H270 C274 0.949 . S
C271 C272 1.349 . S
C271 C273 1.327 . S
C271 H294 0.950 . S
C272 C271 1.349 . S
C272 C284 1.349 . S
C273 C271 1.327 . S
C273 C289 1.429 . S
C273 H295 0.950 . S
C274 H270 0.949 . S
C274 C282 1.574 . S
C274 C290 1.368 . S
H275 C283 0.950 . S
H276 C281 0.950 . S
H277 C282 0.949 . S
H278 C284 0.950 . S
H279 C285 0.950 . S
H280 C286 0.949 . S
C281 H276 0.950 . S
C281 C283 1.327 . S
C281 C287 1.429 . S
C282 C274 1.574 . S
C282 H277 0.949 . S
C282 C288 1.368 . S
C283 C267 1.349 . S
C283 H275 0.950 . S
C283 C281 1.327 . S
C284 C272 1.349 . S
C284 H278 0.950 . S
C284 C285 1.327 . S
C285 H279 0.950 . S
C285 C284 1.327 . S
C285 C289 1.429 . S
C286 C269 1.574 . S
C286 H280 0.949 . S
C286 C290 1.368 . S
C287 C268 1.429 . S
C287 C281 1.429 . S
C287 C288 1.523 . S
C288 C269 1.368 . S
C288 C282 1.368 . S
C288 C287 1.523 . S
C289 C273 1.429 . S
C289 C285 1.429 . S
C289 C290 1.523 . S
C290 C274 1.368 . S
C290 C286 1.368 . S
C290 C289 1.523 . S
H291 C266 0.950 . S
H292 C268 0.950 . S
H293 C269 0.949 . S
H294 C271 0.950 . S
H295 C273 0.950 . S
C296 C297 1.349 . S
C296 C298 1.327 . S
C296 H321 0.950 . S
C297 C296 1.349 . S
C297 C313 1.349 . S
C298 C296 1.327 . S
C298 C317 1.429 . S
C298 H322 0.950 . S
C299 C316 1.574 . S
C299 C318 1.368 . S
C299 H323 0.949 . S
H300 C304 0.949 . S
C301 C302 1.349 . S
C301 C303 1.327 . S
C301 H324 0.950 . S
C302 C301 1.349 . S
C302 C314 1.349 . S
C303 C301 1.327 . S
C303 C319 1.429 . S
C303 H325 0.950 . S
C304 H300 0.949 . S
C304 C312 1.574 . S
C304 C320 1.368 . S
H305 C313 0.950 . S
H306 C311 0.950 . S
H307 C312 0.949 . S
H308 C314 0.950 . S
H309 C315 0.950 . S
H310 C316 0.949 . S
C311 H306 0.950 . S
C311 C313 1.327 . S
C311 C317 1.429 . S
C312 C304 1.574 . S
C312 H307 0.949 . S
C312 C318 1.368 . S
C313 C297 1.349 . S
C313 H305 0.950 . S
C313 C311 1.327 . S
C314 C302 1.349 . S
C314 H308 0.950 . S
C314 C315 1.327 . S
C315 H309 0.950 . S
C315 C314 1.327 . S
C315 C319 1.429 . S
C316 C299 1.574 . S
C316 H310 0.949 . S
C316 C320 1.368 . S
C317 C298 1.429 . S
C317 C311 1.429 . S
C317 C318 1.523 . S
C318 C299 1.368 . S
C318 C312 1.368 . S
C318 C317 1.523 . S
C319 C303 1.429 . S
C319 C315 1.429 . S
C319 C320 1.523 . S
C320 C304 1.368 . S
C320 C316 1.368 . S
C320 C319 1.523 . S
H321 C296 0.950 . S
H322 C298 0.950 . S
H323 C299 0.949 . S
H324 C301 0.950 . S
H325 C303 0.950 . S
C326 C327 1.349 . S
C326 C328 1.327 . S
C326 H351 0.950 . S
C327 C326 1.349 . S
C327 C343 1.349 . S
C328 C326 1.327 . S
C328 C347 1.429 . S
C328 H352 0.950 . S
C329 C346 1.574 . S
C329 C348 1.368 . S
C329 H353 0.949 . S
H330 C334 0.949 . S
C331 C332 1.349 . S
C331 C333 1.327 . S
C331 H354 0.950 . S
C332 C331 1.349 . S
C332 C344 1.349 . S
C333 C331 1.327 . S
C333 C349 1.429 . S
C333 H355 0.950 . S
C334 H330 0.949 . S
C334 C342 1.574 . S
C334 C350 1.368 . S
H335 C343 0.950 . S
H336 C341 0.950 . S
H337 C342 0.949 . S
H338 C344 0.950 . S
H339 C345 0.950 . S
H340 C346 0.949 . S
C341 H336 0.950 . S
C341 C343 1.327 . S
C341 C347 1.429 . S
C342 C334 1.574 . S
C342 H337 0.949 . S
C342 C348 1.368 . S
C343 C327 1.349 . S
C343 H335 0.950 . S
C343 C341 1.327 . S
C344 C332 1.349 . S
C344 H338 0.950 . S
C344 C345 1.327 . S
C345 H339 0.950 . S
C345 C344 1.327 . S
C345 C349 1.429 . S
C346 C329 1.574 . S
C346 H340 0.949 . S
C346 C350 1.368 . S
C347 C328 1.429 . S
C347 C341 1.429 . S
C347 C348 1.523 . S
C348 C329 1.368 . S
C348 C342 1.368 . S
C348 C347 1.523 . S
C349 C333 1.429 . S
C349 C345 1.429 . S
C349 C350 1.523 . S
C350 C334 1.368 . S
C350 C346 1.368 . S
C350 C349 1.523 . S
H351 C326 0.950 . S
H352 C328 0.950 . S
H353 C329 0.949 . S
H354 C331 0.950 . S
H355 C333 0.950 . S
C356 C357 1.349 . S
C356 C358 1.327 . S
C356 H381 0.950 . S
C357 C356 1.349 . S
C357 C373 1.349 . S
C358 C356 1.327 . S
C358 C377 1.429 . S
C358 H382 0.950 . S
C359 C376 1.574 . S
C359 C378 1.368 . S
C359 H383 0.949 . S
H360 C364 0.949 . S
C361 C362 1.349 . S
C361 C363 1.327 . S
C361 H384 0.950 . S
C362 C361 1.349 . S
C362 C374 1.349 . S
C363 C361 1.327 . S
C363 C379 1.429 . S
C363 H385 0.950 . S
C364 H360 0.949 . S
C364 C372 1.574 . S
C364 C380 1.368 . S
H365 C373 0.950 . S
H366 C371 0.950 . S
H367 C372 0.949 . S
H368 C374 0.950 . S
H369 C375 0.950 . S
H370 C376 0.949 . S
C371 H366 0.950 . S
C371 C373 1.327 . S
C371 C377 1.429 . S
C372 C364 1.574 . S
C372 H367 0.949 . S
C372 C378 1.368 . S
C373 C357 1.349 . S
C373 H365 0.950 . S
C373 C371 1.327 . S
C374 C362 1.349 . S
C374 H368 0.950 . S
C374 C375 1.327 . S
C375 H369 0.950 . S
C375 C374 1.327 . S
C375 C379 1.429 . S
C376 C359 1.574 . S
C376 H370 0.949 . S
C376 C380 1.368 . S
C377 C358 1.429 . S
C377 C371 1.429 . S
C377 C378 1.523 . S
C378 C359 1.368 . S
C378 C372 1.368 . S
C378 C377 1.523 . S
C379 C363 1.429 . S
C379 C375 1.429 . S
C379 C380 1.523 . S
C380 C364 1.368 . S
C380 C376 1.368 . S
C380 C379 1.523 . S
H381 C356 0.950 . S
H382 C358 0.950 . S
H383 C359 0.949 . S
H384 C361 0.950 . S
H385 C363 0.950 . S
C386 C387 1.349 . S
C386 C388 1.327 . S
C386 H411 0.950 . S
C387 C386 1.349 . S
C387 C403 1.349 . S
C388 C386 1.327 . S
C388 C407 1.429 . S
C388 H412 0.950 . S
C389 C406 1.574 . S
C389 C408 1.368 . S
C389 H413 0.949 . S
H390 C394 0.949 . S
C391 C392 1.349 . S
C391 C393 1.327 . S
C391 H414 0.950 . S
C392 C391 1.349 . S
C392 C404 1.349 . S
C393 C391 1.327 . S
C393 C409 1.429 . S
C393 H415 0.950 . S
C394 H390 0.949 . S
C394 C402 1.574 . S
C394 C410 1.368 . S
H395 C403 0.950 . S
H396 C401 0.950 . S
H397 C402 0.949 . S
H398 C404 0.950 . S
H399 C405 0.950 . S
H400 C406 0.949 . S
C401 H396 0.950 . S
C401 C403 1.327 . S
C401 C407 1.429 . S
C402 C394 1.574 . S
C402 H397 0.949 . S
C402 C408 1.368 . S
C403 C387 1.349 . S
C403 H395 0.950 . S
C403 C401 1.327 . S
C404 C392 1.349 . S
C404 H398 0.950 . S
C404 C405 1.327 . S
C405 H399 0.950 . S
C405 C404 1.327 . S
C405 C409 1.429 . S
C406 C389 1.574 . S
C406 H400 0.949 . S
C406 C410 1.368 . S
C407 C388 1.429 . S
C407 C401 1.429 . S
C407 C408 1.523 . S
C408 C389 1.368 . S
C408 C402 1.368 . S
C408 C407 1.523 . S
C409 C393 1.429 . S
C409 C405 1.429 . S
C409 C410 1.523 . S
C410 C394 1.368 . S
C410 C406 1.368 . S
C410 C409 1.523 . S
H411 C386 0.950 . S
H412 C388 0.950 . S
H413 C389 0.949 . S
H414 C391 0.950 . S
H415 C393 0.950 . S
C416 C417 1.349 . S
C416 C418 1.327 . S
C416 H441 0.950 . S
C417 C416 1.349 . S
C417 C433 1.349 . S
C418 C416 1.327 . S
C418 C437 1.429 . S
C418 H442 0.950 . S
C419 C436 1.574 . S
C419 C438 1.368 . S
C419 H443 0.949 . S
H420 C424 0.949 . S
C421 C422 1.349 . S
C421 C423 1.327 . S
C421 H444 0.950 . S
C422 C421 1.349 . S
C422 C434 1.349 . S
C423 C421 1.327 . S
C423 C439 1.429 . S
C423 H445 0.950 . S
C424 H420 0.949 . S
C424 C432 1.574 . S
C424 C440 1.368 . S
H425 C433 0.950 1_554 S
H426 C431 0.950 . S
H427 C432 0.949 . S
H428 C434 0.950 . S
H429 C435 0.950 . S
H430 C436 0.949 . S
C431 H426 0.950 . S
C431 C433 1.327 . S
C431 C437 1.429 . S
C432 C424 1.574 . S
C432 H427 0.949 . S
C432 C438 1.368 . S
C433 C417 1.349 . S
C433 H425 0.950 1_556 S
C433 C431 1.327 . S
C434 C422 1.349 . S
C434 H428 0.950 . S
C434 C435 1.327 . S
C435 H429 0.950 . S
C435 C434 1.327 . S
C435 C439 1.429 . S
C436 C419 1.574 . S
C436 H430 0.949 . S
C436 C440 1.368 . S
C437 C418 1.429 . S
C437 C431 1.429 . S
C437 C438 1.523 . S
C438 C419 1.368 . S
C438 C432 1.368 . S
C438 C437 1.523 . S
C439 C423 1.429 . S
C439 C435 1.429 . S
C439 C440 1.523 . S
C440 C424 1.368 . S
C440 C436 1.368 . S
C440 C439 1.523 . S
H441 C416 0.950 . S
H442 C418 0.950 . S
H443 C419 0.949 . S
H444 C421 0.950 . S
H445 C423 0.950 . S
C92 C60 1.232 . S
C87 N37 1.412 . S
C117 N4 1.447 . S
C122 C81 1.254 . S
C147 N15 1.621 . S
C152 C57 1.429 . S
C177 N26 1.620 . S
C182 C78 1.414 . S
C212 C62 1.511 . S
C207 C9 1.521 . S
C242 C82 1.561 . S
C237 C17 1.621 . S
C267 C31 1.595 . S
C272 C58 1.562 . S
C297 C42 1.528 . S
C302 C80 1.481 . S
C332 C79 1.468 . S
C327 C20 1.503 . S
C362 C61 1.470 . S
C357 C28 1.524 . S
C392 C83 1.415 . S
C387 C39 1.451 . S
C417 C6 1.450 1_556 S
C422 C59 1.399 . S
