# Generated by pormake.
# Topology zzz, (3,6)-cn, num edge types: 1
# Building blocks:
#     Node 0, Type 0, BuildingBlock: QEWDON_clean_linker_0, # of connection points: 3
#     Node 1, Type 0, BuildingBlock: QEWDON_clean_linker_0, # of connection points: 3
#     Node 2, Type 0, BuildingBlock: QEWDON_clean_linker_0, # of connection points: 3
#     Node 3, Type 0, BuildingBlock: QEWDON_clean_linker_0, # of connection points: 3
#     Node 4, Type 0, BuildingBlock: QEWDON_clean_linker_0, # of connection points: 3
#     Node 5, Type 0, BuildingBlock: QEWDON_clean_linker_0, # of connection points: 3
#     Node 6, Type 0, BuildingBlock: QEWDON_clean_linker_0, # of connection points: 3
#     Node 7, Type 0, BuildingBlock: QEWDON_clean_linker_0, # of connection points: 3
#     Node 8, Type 1, BuildingBlock: FUNLAD_clean_sbu_0, # of connection points: 6
#     Node 9, Type 1, BuildingBlock: FUNLAD_clean_sbu_0, # of connection points: 6
#     Node 10, Type 1, BuildingBlock: FUNLAD_clean_sbu_0, # of connection points: 6
#     Node 11, Type 1, BuildingBlock: FUNLAD_clean_sbu_0, # of connection points: 6
#     Edge 12, Type (0, 1), BuildingBlock: MIFKUJ_clean_linker_0, # of connection points: 2
#     Edge 13, Type (0, 1), BuildingBlock: MIFKUJ_clean_linker_0, # of connection points: 2
#     Edge 14, Type (0, 1), BuildingBlock: MIFKUJ_clean_linker_0, # of connection points: 2
#     Edge 15, Type (0, 1), BuildingBlock: MIFKUJ_clean_linker_0, # of connection points: 2
#     Edge 16, Type (0, 1), BuildingBlock: MIFKUJ_clean_linker_0, # of connection points: 2
#     Edge 17, Type (0, 1), BuildingBlock: MIFKUJ_clean_linker_0, # of connection points: 2
#     Edge 18, Type (0, 1), BuildingBlock: MIFKUJ_clean_linker_0, # of connection points: 2
#     Edge 19, Type (0, 1), BuildingBlock: MIFKUJ_clean_linker_0, # of connection points: 2
#     Edge 20, Type (0, 1), BuildingBlock: MIFKUJ_clean_linker_0, # of connection points: 2
#     Edge 21, Type (0, 1), BuildingBlock: MIFKUJ_clean_linker_0, # of connection points: 2
#     Edge 22, Type (0, 1), BuildingBlock: MIFKUJ_clean_linker_0, # of connection points: 2
#     Edge 23, Type (0, 1), BuildingBlock: MIFKUJ_clean_linker_0, # of connection points: 2
#     Edge 24, Type (0, 1), BuildingBlock: MIFKUJ_clean_linker_0, # of connection points: 2
#     Edge 25, Type (0, 1), BuildingBlock: MIFKUJ_clean_linker_0, # of connection points: 2
#     Edge 26, Type (0, 1), BuildingBlock: MIFKUJ_clean_linker_0, # of connection points: 2
#     Edge 27, Type (0, 1), BuildingBlock: MIFKUJ_clean_linker_0, # of connection points: 2
#     Edge 28, Type (0, 1), BuildingBlock: MIFKUJ_clean_linker_0, # of connection points: 2
#     Edge 29, Type (0, 1), BuildingBlock: MIFKUJ_clean_linker_0, # of connection points: 2
#     Edge 30, Type (0, 1), BuildingBlock: MIFKUJ_clean_linker_0, # of connection points: 2
#     Edge 31, Type (0, 1), BuildingBlock: MIFKUJ_clean_linker_0, # of connection points: 2
#     Edge 32, Type (0, 1), BuildingBlock: MIFKUJ_clean_linker_0, # of connection points: 2
#     Edge 33, Type (0, 1), BuildingBlock: MIFKUJ_clean_linker_0, # of connection points: 2
#     Edge 34, Type (0, 1), BuildingBlock: MIFKUJ_clean_linker_0, # of connection points: 2
#     Edge 35, Type (0, 1), BuildingBlock: MIFKUJ_clean_linker_0, # of connection points: 2
# Relax obj value: 0.086
# Max RMSD: 0.173
# Mean RMSD: 0.067
data_MOF--net-zzz--node1-FUNLAD_clean_sbu_0--node2-QEWDON_clean_linker_0--edge1-MIFKUJ_clean_linker_0
_symmetry_space_group_name_H-M    P1
_symmetry_Int_Tables_number       1
_symmetry_cell_setting            triclinic
loop_
_symmetry_equiv_pos_as_xyz
'x, y, z'
_cell_length_a     70.179552
_cell_length_b     76.007756
_cell_length_c     21.940033
_cell_angle_alpha  86.048646
_cell_angle_beta   85.922329
_cell_angle_gamma 89.001172
loop_
_atom_site_label
_atom_site_type_symbol
_atom_site_fract_x
_atom_site_fract_y
_atom_site_fract_z
_atom_type_partial_charge
H0 H 0.80122 0.52723 0.13019 0.0
C1 C 0.80746 0.52461 0.17374 0.0
C2 C 0.82549 0.51651 0.17455 0.0
C3 C 0.7981 0.53027 0.22811 0.0
H4 H 0.84869 0.50838 0.22894 0.0
C5 C 0.83433 0.51394 0.2295 0.0
C6 C 0.82566 0.51988 0.28387 0.0
C7 C 0.80748 0.52794 0.2832 0.0
C8 C 0.77933 0.53976 0.22589 0.0
H9 H 0.8008 0.53247 0.32543 0.0
C10 C 0.76573 0.53508 0.18551 0.0
C11 C 0.74877 0.54501 0.17946 0.0
C12 C 0.7753 0.55423 0.26161 0.0
H13 H 0.78548 0.55849 0.29218 0.0
C14 C 0.75828 0.56385 0.25678 0.0
H15 H 0.76849 0.52394 0.15773 0.0
C16 C 0.74516 0.55938 0.21574 0.0
H17 H 0.73214 0.56715 0.21245 0.0
H18 H 0.7554 0.575 0.28432 0.0
H19 H 1.00111 0.78521 0.00761 0.0
C20 C 1.00053 0.79176 0.05005 0.0
C21 C 0.0115 0.8069 0.05323 0.0
C22 C 0.98787 0.78584 0.09973 0.0
H23 H 0.01751 0.82823 0.10819 0.0
C24 C 0.00997 0.81594 0.10697 0.0
C25 C 0.99708 0.8107 0.15616 0.0
C26 C 0.98623 0.7955 0.15271 0.0
C27 C 0.9751 0.77065 0.0938 0.0
H28 H 0.97632 0.79139 0.19095 0.0
C29 C 0.98165 0.75583 0.06252 0.0
C30 C 0.96913 0.74208 0.0536 0.0
C31 C 0.95589 0.7713 0.11698 0.0
H32 H 0.9502 0.78261 0.13997 0.0
C33 C 0.94356 0.75757 0.10918 0.0
H34 H 0.99638 0.75509 0.04427 0.0
C35 C 0.95007 0.7431 0.07755 0.0
H36 H 0.94018 0.73263 0.07207 0.0
H37 H 0.92882 0.75825 0.12714 0.0
H38 H 0.74271 0.99405 0.03678 0.0
C39 C 0.73515 0.99654 0.0802 0.0
C40 C 0.71645 0.00346 0.0807 0.0
C41 C 0.74361 0.99196 0.13572 0.0
H42 H 0.69142 0.0105 0.13614 0.0
C43 C 0.70614 0.00588 0.13644 0.0
C44 C 0.71379 1.00092 0.19225 0.0
C45 C 0.73261 0.99414 0.19177 0.0
C46 C 0.763 0.98326 0.13535 0.0
H47 H 0.73854 0.99043 0.23513 0.0
C48 C 0.77808 0.98807 0.09077 0.0
C49 C 0.79587 0.9789 0.09027 0.0
C50 C 0.76624 0.9693 0.17916 0.0
H51 H 0.75504 0.96482 0.21282 0.0
C52 C 0.78381 0.96053 0.17944 0.0
H53 H 0.77596 0.9987 0.05636 0.0
C54 C 0.79846 0.96523 0.13558 0.0
H55 H 0.81196 0.95814 0.13725 0.0
H56 H 0.78603 0.94986 0.2136 0.0
H57 H 0.52848 0.70913 0.03138 0.0
C58 C 0.52756 0.70285 0.07736 0.0
C59 C 0.51783 0.68684 0.08905 0.0
C60 C 0.53706 0.71017 0.12394 0.0
H61 H 0.51072 0.66547 0.15564 0.0
C62 C 0.51741 0.67827 0.14773 0.0
C63 C 0.52718 0.685 0.19435 0.0
C64 C 0.53684 0.70104 0.18237 0.0
C65 C 0.54887 0.72626 0.10991 0.0
H66 H 0.54445 0.70626 0.21831 0.0
C67 C 0.54226 0.74104 0.07425 0.0
C68 C 0.55411 0.75577 0.05928 0.0
C69 C 0.56737 0.72655 0.13068 0.0
H70 H 0.57302 0.71534 0.15712 0.0
C71 C 0.57902 0.74112 0.11632 0.0
H72 H 0.52805 0.74105 0.05784 0.0
C73 C 0.57251 0.75559 0.08083 0.0
H74 H 0.58184 0.76678 0.07065 0.0
H75 H 0.59324 0.74115 0.13251 0.0
H76 H 0.24243 0.5192 0.24607 0.0
C77 C 0.23486 0.51452 0.20915 0.0
C78 C 0.21488 0.51414 0.21529 0.0
C79 C 0.24487 0.50932 0.15502 0.0
H80 H 0.18924 0.50829 0.17294 0.0
C81 C 0.20474 0.50853 0.16789 0.0
C82 C 0.21427 0.50336 0.11392 0.0
C83 C 0.23429 0.50376 0.10729 0.0
C84 C 0.26619 0.51003 0.14806 0.0
H85 H 0.2415 0.49952 0.06541 0.0
C86 C 0.27727 0.50671 0.19907 0.0
C87 C 0.29734 0.50774 0.19258 0.0
C88 C 0.27567 0.51435 0.09036 0.0
H89 H 0.26775 0.51748 0.05035 0.0
C90 C 0.29556 0.51511 0.0836 0.0
H91 H 0.2704 0.50303 0.24378 0.0
C92 C 0.30635 0.51183 0.13421 0.0
H93 H 0.32175 0.51288 0.1279 0.0
H94 H 0.30264 0.51849 0.03899 0.0
H95 H 0.03001 0.22544 0.38694 0.0
C96 C 0.03495 0.21908 0.3459 0.0
C97 C 0.04377 0.20238 0.3516 0.0
C98 C 0.03115 0.22692 0.28783 0.0
H99 H 0.05502 0.18041 0.30272 0.0
C100 C 0.04929 0.19375 0.29858 0.0
C101 C 0.04525 0.20104 0.24061 0.0
C102 C 0.0363 0.21768 0.23526 0.0
C103 C 0.01992 0.24373 0.28298 0.0
H104 H 0.03301 0.2232 0.19031 0.0
C105 C 0.02295 0.25751 0.32109 0.0
C106 C 0.01119 0.27272 0.31964 0.0
C107 C 0.00524 0.24565 0.24244 0.0
H108 H 1.00222 0.23523 0.21343 0.0
C109 C 0.99379 0.26083 0.24026 0.0
H110 H 0.03418 0.2563 0.35261 0.0
C111 C 0.99663 0.27423 0.27881 0.0
H112 H 0.98748 0.28586 0.27652 0.0
H113 H 0.98248 0.26211 0.20909 0.0
H114 H 0.28841 0.99664 0.37219 0.0
C115 C 0.29815 0.99896 0.33205 0.0
C116 C 0.31785 0.99733 0.33859 0.0
C117 C 0.29121 0.00285 0.27357 0.0
H118 H 0.34585 0.99807 0.29337 0.0
C119 C 0.33072 0.99944 0.28715 0.0
C120 C 0.32457 0.00366 0.22868 0.0
C121 C 0.30477 0.00577 0.22236 0.0
C122 C 0.27006 0.00274 0.26503 0.0
H123 H 0.30002 0.00931 0.17725 0.0
C124 C 0.25595 0.00703 0.31185 0.0
C125 C 0.23622 0.00647 0.30208 0.0
C126 C 0.26378 0.99752 0.20944 0.0
H127 H 0.27376 0.9933 0.17333 0.0
C128 C 0.24441 0.99711 0.19969 0.0
H129 H 0.26016 0.01109 0.35522 0.0
C130 C 0.23077 1.00158 0.24531 0.0
H131 H 0.21581 1.00078 0.23663 0.0
H132 H 0.23993 0.99305 0.15665 0.0
H133 H 0.531 0.30233 0.36022 0.0
C134 C 0.5265 0.30897 0.31823 0.0
C135 C 0.51915 0.32629 0.31904 0.0
C136 C 0.52914 0.30064 0.2627 0.0
H137 H 0.50911 0.3487 0.26381 0.0
C138 C 0.51398 0.33506 0.26416 0.0
C139 C 0.51686 0.3272 0.20849 0.0
C140 C 0.52444 0.31 0.20774 0.0
C141 C 0.53874 0.28303 0.26119 0.0
H142 H 0.527 0.30408 0.16431 0.0
C143 C 0.53363 0.26905 0.30492 0.0
C144 C 0.54368 0.25281 0.30443 0.0
C145 C 0.55379 0.28038 0.2168 0.0
H146 H 0.55825 0.29089 0.18325 0.0
C147 C 0.56366 0.26431 0.21615 0.0
H148 H 0.52204 0.27083 0.33938 0.0
C149 C 0.55873 0.25065 0.25975 0.0
H150 H 0.56659 0.23826 0.25826 0.0
H151 H 0.57528 0.26248 0.18192 0.0
C152 C 0.02424 0.97254 0.76263 0.0
N153 N 0.00575 0.98499 0.58954 0.0
C154 C 0.01866 0.97201 0.5761 0.0
C155 C 0.01479 0.9596 0.5352 0.0
C156 C 0.9974 0.96035 0.50728 0.0
C157 C 0.9844 0.97411 0.52066 0.0
C158 C 0.98891 0.98639 0.56221 0.0
Zn159 Zn 0.01225 0.99946 0.66084 0.0
C160 C 0.97931 0.00278 0.75296 0.0
N161 N 0.0287 0.02461 0.81678 0.0
C162 C 0.04689 0.02557 0.83427 0.0
C163 C 0.01472 0.0357 0.83831 0.0
C164 C 0.01879 0.04854 0.8776 0.0
C165 C 0.03754 0.0504 0.89382 0.0
C166 C 0.0517 0.03861 0.87248 0.0
Zn167 Zn 0.02215 0.01006 0.74527 0.0
O168 O 0.01717 0.97537 0.71114 0.0
C169 C 0.05504 0.00656 0.65287 0.0
O170 O 0.02905 0.98554 0.79153 0.0
H171 H 1.00055 0.0354 0.82232 0.0
H172 H 0.03172 0.97068 0.59936 0.0
H173 H 0.0579 0.01683 0.81634 0.0
O174 O 0.04164 1.00034 0.62504 0.0
O175 O 0.05109 0.01218 0.70564 0.0
H176 H 0.97871 0.99665 0.57412 0.0
O177 O 0.01532 0.03419 0.69789 0.0
O178 O 0.00749 0.02394 0.61196 0.0
O179 O 0.99301 0.00741 0.78312 0.0
O180 O 0.98294 0.99893 0.6977 0.0
C181 C 0.01014 0.03696 0.64371 0.0
H182 H 0.02504 0.94901 0.52783 0.0
H183 H 0.97083 0.97519 0.50007 0.0
H184 H 0.00757 0.0576 0.89234 0.0
H185 H 0.06635 0.03972 0.88414 0.0
C186 C 0.48829 1.00103 0.62375 0.0
N187 N 0.51652 0.04704 0.66329 0.0
C188 C 0.51395 0.05176 0.60338 0.0
C189 C 0.51403 0.0695 0.58187 0.0
C190 C 0.51715 0.0826 0.62195 0.0
C191 C 0.51986 0.07742 0.68351 0.0
C192 C 0.51933 0.05949 0.70344 0.0
Zn193 Zn 0.51691 0.02039 0.69025 0.0
C194 C 0.48775 0.01032 0.79069 0.0
N195 N 0.51773 0.96444 0.73714 0.0
C196 C 0.51998 0.95195 0.69551 0.0
C197 C 0.51615 0.95977 0.79832 0.0
C198 C 0.51677 0.94204 0.81974 0.0
C199 C 0.51924 0.92885 0.778 0.0
C200 C 0.52087 0.934 0.71504 0.0
Zn201 Zn 0.51721 0.99105 0.7102 0.0
O202 O 0.4947 0.01611 0.63278 0.0
C203 C 0.54615 1.00125 0.60887 0.0
O204 O 0.49597 0.98727 0.64837 0.0
H205 H 0.5146 0.96985 0.83083 0.0
H206 H 0.51208 0.04174 0.57177 0.0
H207 H 0.52121 0.95589 0.64709 0.0
O208 O 0.53852 0.01624 0.6183 0.0
O209 O 0.53978 0.98767 0.64065 0.0
H210 H 0.52134 0.05552 0.75086 0.0
O211 O 0.53853 0.99532 0.77165 0.0
O212 O 0.53907 0.0239 0.7488 0.0
O213 O 0.49446 0.99519 0.77845 0.0
O214 O 0.49527 0.02403 0.76281 0.0
C215 C 0.54578 0.0103 0.77734 0.0
H216 H 0.51217 0.0729 0.53388 0.0
H217 H 0.52225 0.08714 0.71592 0.0
H218 H 0.51576 0.93872 0.86866 0.0
H219 H 0.5227 0.92427 0.68123 0.0
C220 C 0.53153 0.48125 0.62661 0.0
N221 N 0.47857 0.50578 0.66223 0.0
C222 C 0.47817 0.50599 0.60026 0.0
C223 C 0.46096 0.5047 0.57315 0.0
C224 C 0.44378 0.50316 0.60983 0.0
C225 C 0.44446 0.50332 0.67374 0.0
C226 C 0.46214 0.50458 0.69918 0.0
Zn227 Zn 0.50527 0.50674 0.69488 0.0
C228 C 0.51245 0.47998 0.79363 0.0
N229 N 0.56287 0.50846 0.74692 0.0
C230 C 0.57891 0.51136 0.70905 0.0
C231 C 0.56382 0.50673 0.80884 0.0
C232 C 0.58128 0.50766 0.83489 0.0
C233 C 0.59799 0.51081 0.79717 0.0
C234 C 0.59672 0.51277 0.73344 0.0
Zn235 Zn 0.53606 0.50738 0.71474 0.0
O236 O 0.51471 0.48753 0.63435 0.0
C237 C 0.52895 0.53411 0.61596 0.0
O238 O 0.54485 0.48736 0.65516 0.0
H239 H 0.55094 0.50487 0.83847 0.0
H240 H 0.49131 0.50703 0.57146 0.0
H241 H 0.57787 0.51279 0.66 0.0
O242 O 0.51243 0.52757 0.62761 0.0
O243 O 0.54282 0.52769 0.64497 0.0
H244 H 0.46276 0.50442 0.74834 0.0
O245 O 0.52672 0.52736 0.7733 0.0
O246 O 0.49634 0.52613 0.75602 0.0
O247 O 0.52873 0.48708 0.78337 0.0
O248 O 0.49866 0.48582 0.76305 0.0
C249 C 0.50969 0.53314 0.7819 0.0
H250 H 0.46111 0.50501 0.52368 0.0
H251 H 0.43154 0.50213 0.70371 0.0
H252 H 0.58163 0.50642 0.88429 0.0
H253 H 0.60935 0.51527 0.70294 0.0
C254 C 0.04837 0.5136 0.61062 0.0
N255 N 0.02163 0.46572 0.66883 0.0
C256 C 0.02433 0.46312 0.60801 0.0
C257 C 0.02544 0.4461 0.58786 0.0
C258 C 0.02339 0.43152 0.63047 0.0
C259 C 0.02034 0.43449 0.69293 0.0
C260 C 0.01968 0.45181 0.71129 0.0
Zn261 Zn 0.02032 0.49138 0.69353 0.0
C262 C 0.04891 0.49941 0.77877 0.0
N263 N 0.01834 0.54582 0.73261 0.0
C264 C 0.01592 0.55957 0.69059 0.0
C265 C 0.01938 0.54856 0.79295 0.0
C266 C 0.01785 0.56556 0.81318 0.0
C267 C 0.01509 0.57999 0.77112 0.0
C268 C 0.01417 0.57684 0.70899 0.0
Zn269 Zn 0.01961 0.5202 0.708 0.0
O270 O 0.04242 0.49812 0.62588 0.0
C271 C 0.99109 0.5123 0.62234 0.0
O272 O 0.04047 0.52664 0.63605 0.0
H273 H 0.02109 0.53747 0.82581 0.0
H274 H 0.02551 0.47429 0.57477 0.0
H275 H 0.01513 0.55712 0.64285 0.0
O276 O 0.99878 0.49712 0.63076 0.0
O277 O 0.99729 0.52516 0.64904 0.0
H278 H 0.01755 0.45413 0.75939 0.0
O279 O 0.99872 0.5134 0.7796 0.0
O280 O 0.99832 0.48533 0.76201 0.0
O281 O 0.04205 0.5147 0.766 0.0
O282 O 0.04178 0.4861 0.75695 0.0
C283 C 0.9917 0.49814 0.79162 0.0
H284 H 0.0275 0.44435 0.53923 0.0
H285 H 0.01869 0.42355 0.72712 0.0
H286 H 0.01832 0.56733 0.86161 0.0
H287 H 0.01216 0.5876 0.67499 0.0
H288 H 0.23174 0.99244 0.42118 0.0
H289 H 0.20303 0.99418 0.49176 0.0
H290 H 0.17675 0.03006 0.3608 0.0
H291 H 0.20536 0.02851 0.29092 0.0
H292 H 0.16651 0.03914 0.47487 0.0
H293 H 0.16846 0.98593 0.36646 0.0
H294 H 0.1825 0.95788 0.3334 0.0
H295 H 0.18217 0.93739 0.52083 0.0
H296 H 0.16837 0.96544 0.55504 0.0
H297 H 0.06836 0.99325 0.54486 0.0
H298 H 0.10062 0.99473 0.49531 0.0
H299 H 0.11928 0.0227 0.64435 0.0
H300 H 0.08686 0.02141 0.69413 0.0
H301 H 0.13428 0.98195 0.52722 0.0
H302 H 0.1548 0.05168 0.58567 0.0
H303 H 0.13902 0.07979 0.61087 0.0
H304 H 0.09142 0.06757 0.50937 0.0
H305 H 0.10706 0.03953 0.4827 0.0
C306 C 0.22005 1.00108 0.4083 0.0
C307 C 0.22081 0.01026 0.35028 0.0
C308 C 0.20355 1.00196 0.44843 0.0
C309 C 0.18749 0.01204 0.43138 0.0
C310 C 0.18882 0.02215 0.37523 0.0
C311 C 0.20521 0.02121 0.33515 0.0
C312 C 0.16878 0.01099 0.46891 0.0
C313 C 0.15959 0.0266 0.48689 0.0
C314 C 0.1594 0.99473 0.48379 0.0
C315 C 0.1676 0.97784 0.46332 0.0
C316 C 0.17151 0.97549 0.40063 0.0
C317 C 0.17941 0.95958 0.38168 0.0
C318 C 0.18327 0.94587 0.425 0.0
C319 C 0.1792 0.94803 0.48734 0.0
C320 C 0.17134 0.96393 0.50654 0.0
C321 C 0.07928 0.99973 0.56727 0.0
C322 C 0.07491 0.00726 0.62354 0.0
C323 C 0.09781 1.0005 0.5389 0.0
C324 C 0.11248 0.00892 0.56566 0.0
C325 C 0.10823 0.0163 0.62224 0.0
C326 C 0.08966 0.01549 0.65083 0.0
C327 C 0.13206 0.01007 0.53366 0.0
C328 C 0.14136 0.99447 0.51636 0.0
C329 C 0.14135 0.02637 0.5185 0.0
C330 C 0.13203 0.04342 0.53281 0.0
C331 C 0.14102 0.05504 0.56848 0.0
C332 C 0.13209 0.07095 0.58302 0.0
C333 C 0.11421 0.07544 0.56186 0.0
C334 C 0.10525 0.06406 0.52584 0.0
C335 C 0.11414 0.04815 0.51104 0.0
H336 H 0.1073 0.08774 0.57329 0.0
H337 H 0.18938 0.93357 0.41024 0.0
H338 H 0.56715 0.23567 0.38265 0.0
H339 H 0.56093 0.20838 0.44611 0.0
H340 H 0.50339 0.20819 0.38862 0.0
H341 H 0.50945 0.23602 0.32686 0.0
H342 H 0.50317 0.19553 0.50314 0.0
H343 H 0.54021 0.18351 0.31969 0.0
H344 H 0.56696 0.18671 0.24075 0.0
H345 H 0.60666 0.17091 0.37496 0.0
H346 H 0.58015 0.16787 0.45495 0.0
H347 H 0.49225 0.10114 0.55063 0.0
H348 H 0.49515 0.13159 0.50637 0.0
H349 H 0.54747 0.13692 0.59486 0.0
H350 H 0.54451 0.10654 0.63986 0.0
H351 H 0.54969 0.14685 0.46595 0.0
H352 H 0.51037 0.15782 0.64873 0.0
H353 H 0.48231 0.15368 0.72222 0.0
H354 H 0.44518 0.16992 0.58089 0.0
H355 H 0.47302 0.17392 0.50628 0.0
C356 C 0.55307 0.22995 0.38452 0.0
C357 C 0.53881 0.23786 0.34969 0.0
C358 C 0.54955 0.21428 0.42041 0.0
C359 C 0.53184 0.20589 0.42095 0.0
C360 C 0.51721 0.2143 0.38876 0.0
C361 C 0.52065 0.23021 0.35355 0.0
C362 C 0.52906 0.18794 0.45228 0.0
C363 C 0.51324 0.18485 0.49444 0.0
C364 C 0.54223 0.17392 0.44146 0.0
C365 C 0.55821 0.17563 0.39343 0.0
C366 C 0.55465 0.18084 0.33246 0.0
C367 C 0.56977 0.18261 0.28752 0.0
C368 C 0.5885 0.17906 0.30286 0.0
C369 C 0.59215 0.17368 0.36317 0.0
C370 C 0.57708 0.17192 0.40832 0.0
C371 C 0.50428 0.10886 0.56102 0.0
C372 C 0.51816 0.10146 0.59872 0.0
C373 C 0.50588 0.12627 0.53595 0.0
C374 C 0.5215 0.13654 0.54745 0.0
C375 C 0.53527 0.12924 0.58554 0.0
C376 C 0.53352 0.11193 0.61146 0.0
C377 C 0.52398 0.15456 0.51715 0.0
C378 C 0.5397 0.15758 0.47481 0.0
C379 C 0.51053 0.16835 0.52695 0.0
C380 C 0.49378 0.16599 0.57177 0.0
C381 C 0.49622 0.16035 0.63317 0.0
C382 C 0.48035 0.15806 0.67506 0.0
C383 C 0.46197 0.16149 0.6562 0.0
C384 C 0.45942 0.16725 0.59542 0.0
C385 C 0.47524 0.16955 0.55333 0.0
H386 H 0.4497 0.15971 0.68871 0.0
H387 H 0.60019 0.18044 0.268 0.0
H388 H 0.32996 0.48792 0.20275 0.0
H389 H 0.3506 0.48556 0.28827 0.0
H390 H 0.31187 0.51929 0.38977 0.0
H391 H 0.29117 0.5218 0.30392 0.0
H392 H 0.3493 0.52982 0.38754 0.0
H393 H 0.31459 0.4768 0.43564 0.0
H394 H 0.3005 0.44844 0.41585 0.0
H395 H 0.35639 0.42732 0.36931 0.0
H396 H 0.3708 0.45565 0.38792 0.0
H397 H 0.40925 0.51952 0.63692 0.0
H398 H 0.38025 0.51861 0.58107 0.0
H399 H 0.40827 0.48235 0.45984 0.0
H400 H 0.43692 0.48278 0.51637 0.0
H401 H 0.37203 0.47329 0.48562 0.0
H402 H 0.40599 0.52701 0.42127 0.0
H403 H 0.42073 0.55543 0.43678 0.0
H404 H 0.36677 0.57515 0.51011 0.0
H405 H 0.35176 0.54673 0.49575 0.0
C406 C 0.32578 0.49474 0.24345 0.0
C407 C 0.30897 0.50507 0.2466 0.0
C408 C 0.33751 0.49328 0.29246 0.0
C409 C 0.33271 0.50216 0.3456 0.0
C410 C 0.31579 0.51228 0.34929 0.0
C411 C 0.30394 0.51361 0.30042 0.0
C412 C 0.34602 0.50162 0.39545 0.0
C413 C 0.35396 0.51749 0.41005 0.0
C414 C 0.35236 0.48551 0.42392 0.0
C415 C 0.34377 0.46842 0.41278 0.0
C416 C 0.32387 0.46616 0.42072 0.0
C417 C 0.31583 0.45008 0.40979 0.0
C418 C 0.32754 0.4361 0.39123 0.0
C419 C 0.34733 0.43817 0.38367 0.0
C420 C 0.35545 0.45423 0.39448 0.0
C421 C 0.40908 0.51111 0.59908 0.0
C422 C 0.42548 0.50141 0.58056 0.0
C423 C 0.39255 0.5107 0.56689 0.0
C424 C 0.39217 0.50063 0.51559 0.0
C425 C 0.40822 0.49029 0.49903 0.0
C426 C 0.42467 0.49068 0.53108 0.0
C427 C 0.37561 0.50145 0.47672 0.0
C428 C 0.3671 0.48564 0.46403 0.0
C429 C 0.36883 0.51761 0.4496 0.0
C430 C 0.37782 0.53469 0.45817 0.0
C431 C 0.39731 0.53736 0.44116 0.0
C432 C 0.4057 0.55347 0.44967 0.0
C433 C 0.39471 0.56707 0.47462 0.0
C434 C 0.37528 0.56459 0.49094 0.0
C435 C 0.36682 0.54849 0.48262 0.0
H436 H 0.40123 0.57954 0.48114 0.0
H437 H 0.32128 0.42366 0.38281 0.0
H438 H 0.04391 0.29032 0.33619 0.0
H439 H 0.04714 0.31575 0.39741 0.0
H440 H 0.98738 0.31239 0.45858 0.0
H441 H 0.98403 0.28749 0.39553 0.0
H442 H 0.99458 0.34442 0.42747 0.0
H443 H 0.02553 0.30057 0.55359 0.0
H444 H 0.04847 0.27664 0.57829 0.0
H445 H 0.09523 0.31133 0.52455 0.0
H446 H 0.07257 0.33542 0.4987 0.0
H447 H 0.99742 0.40537 0.65895 0.0
H448 H 0.99662 0.37662 0.61458 0.0
H449 H 0.04967 0.38818 0.50922 0.0
H450 H 0.05038 0.41704 0.55268 0.0
H451 H 0.046 0.35184 0.56716 0.0
H452 H 0.01345 0.39514 0.43762 0.0
H453 H 0.98961 0.4187 0.41811 0.0
H454 H 0.94446 0.38365 0.48612 0.0
H455 H 0.96808 0.35995 0.50695 0.0
C456 C 0.03156 0.29492 0.36337 0.0
C457 C 0.01371 0.28701 0.36105 0.0
C458 C 0.03341 0.30941 0.39857 0.0
C459 C 0.01754 0.31598 0.43327 0.0
C460 C 0.99983 0.3077 0.43212 0.0
C461 C 0.99792 0.29344 0.39618 0.0
C462 C 0.01901 0.33205 0.46797 0.0
C463 C 0.00567 0.34582 0.45877 0.0
C464 C 0.03366 0.33419 0.5081 0.0
C465 C 0.04734 0.31975 0.52365 0.0
C466 C 0.04071 0.30306 0.54658 0.0
C467 C 0.05366 0.28947 0.56087 0.0
C468 C 0.0733 0.29245 0.55284 0.0
C469 C 0.08002 0.30904 0.53066 0.0
C470 C 0.06712 0.32267 0.51624 0.0
C471 C 0.00905 0.40164 0.62709 0.0
C472 C 0.02392 0.41342 0.60899 0.0
C473 C 0.00856 0.38527 0.60171 0.0
C474 C 0.02306 0.38033 0.55854 0.0
C475 C 0.03838 0.39174 0.54257 0.0
C476 C 0.03871 0.40823 0.56711 0.0
C477 C 0.02154 0.36389 0.52665 0.0
C478 C 0.03489 0.3502 0.53617 0.0
C479 C 0.00676 0.36166 0.48747 0.0
C480 C 0.99254 0.37585 0.47449 0.0
C481 C 0.99845 0.39251 0.44894 0.0
C482 C 0.98498 0.40588 0.43754 0.0
C483 C 0.96553 0.40269 0.45104 0.0
C484 C 0.95952 0.38611 0.4758 0.0
C485 C 0.97295 0.3727 0.48738 0.0
H486 H 0.95512 0.41306 0.44217 0.0
H487 H 0.0833 0.28192 0.56394 0.0
H488 H 0.81166 0.01119 0.0518 0.0
H489 H 0.84147 0.01657 0.98757 0.0
H490 H 0.84655 0.96102 0.95984 0.0
H491 H 0.81707 0.95565 0.02374 0.0
H492 H 0.87902 0.97201 0.99283 0.0
H493 H 0.83532 0.99224 0.84402 0.0
H494 H 0.80885 0.0102 0.80353 0.0
H495 H 0.83971 0.0575 0.82368 0.0
H496 H 0.86627 0.03982 0.86508 0.0
H497 H 0.94594 0.9954 0.70118 0.0
H498 H 0.9137 0.99266 0.75189 0.0
H499 H 0.93548 0.00484 0.92268 0.0
H500 H 0.96762 0.0076 0.87259 0.0
H501 H 0.88932 0.01532 0.81434 0.0
H502 H 0.91234 0.97907 0.0384 0.0
H503 H 0.93807 0.95914 0.0735 0.0
H504 H 0.94716 0.94051 0.89323 0.0
H505 H 0.92131 0.96012 0.85732 0.0
C506 C 0.81894 1.00022 0.03084 0.0
C507 C 0.81203 0.98298 0.04334 0.0
C508 C 0.83604 0.00328 0.99423 0.0
C509 C 0.84647 0.98918 0.9689 0.0
C510 C 0.83902 0.97212 0.9792 0.0
C511 C 0.82207 0.96907 0.0157 0.0
C512 C 0.86559 0.99181 0.93457 0.0
C513 C 0.8812 0.98155 0.95395 0.0
C514 C 0.86861 0.00406 0.88317 0.0
C515 C 0.85269 0.01471 0.85824 0.0
C516 C 0.83639 0.00648 0.84029 0.0
C517 C 0.82139 0.0166 0.81708 0.0
C518 C 0.82258 0.03498 0.8112 0.0
C519 C 0.8388 0.04326 0.82835 0.0
C520 C 0.85383 0.0332 0.85165 0.0
C521 C 0.94387 0.99756 0.74949 0.0
C522 C 0.95949 1.00162 0.78273 0.0
C523 C 0.92538 0.99607 0.77841 0.0
C524 C 0.92209 0.9984 0.84135 0.0
C525 C 0.9376 0.00279 0.87428 0.0
C526 C 0.95603 0.00438 0.84542 0.0
C527 C 0.90266 0.99566 0.87322 0.0
C528 C 0.88707 0.00588 0.85348 0.0
C529 C 0.89954 0.98317 0.92381 0.0
C530 C 0.91502 0.97122 0.94506 0.0
C531 C 0.9198 0.97068 0.00632 0.0
C532 C 0.9344 0.95944 0.02635 0.0
C533 C 0.94429 0.94861 0.98557 0.0
C534 C 0.93955 0.94895 0.92472 0.0
C535 C 0.92493 0.96015 0.90449 0.0
H536 H 0.95559 0.93992 0.00117 0.0
H537 H 0.81095 0.0428 0.79321 0.0
H538 H 0.5209 0.77504 0.07508 0.0
H539 H 0.51282 0.80334 0.02171 0.0
H540 H 0.56485 0.80028 0.90543 0.0
H541 H 0.57312 0.77234 0.95961 0.0
H542 H 0.56226 0.83112 0.94716 0.0
H543 H 0.51877 0.79512 0.85358 0.0
H544 H 0.49292 0.77369 0.85072 0.0
H545 H 0.45398 0.80807 0.94684 0.0
H546 H 0.47967 0.82962 0.95101 0.0
H547 H 0.54461 0.90365 0.73752 0.0
H548 H 0.54831 0.87319 0.77958 0.0
H549 H 0.50102 0.88079 0.91202 0.0
H550 H 0.49711 0.91123 0.86983 0.0
H551 H 0.50043 0.84785 0.86165 0.0
H552 H 0.54454 0.88343 0.95585 0.0
H553 H 0.57051 0.90484 0.95674 0.0
H554 H 0.60854 0.87065 0.85636 0.0
H555 H 0.5827 0.84914 0.85409 0.0
C556 C 0.53039 0.78028 0.03734 0.0
C557 C 0.54768 0.77153 0.02169 0.0
C558 C 0.52578 0.79646 0.00677 0.0
C559 C 0.5382 0.80403 0.95924 0.0
C560 C 0.55508 0.79486 0.94212 0.0
C561 C 0.55978 0.77885 0.97302 0.0
C562 C 0.53438 0.82195 0.92982 0.0
C563 C 0.54882 0.83461 0.92761 0.0
C564 C 0.51668 0.82682 0.90564 0.0
C565 C 0.5012 0.8139 0.90315 0.0
C566 C 0.50473 0.79805 0.87454 0.0
C567 C 0.4901 0.7859 0.87261 0.0
C568 C 0.47183 0.7895 0.89873 0.0
C569 C 0.46815 0.80529 0.92671 0.0
C570 C 0.48273 0.81748 0.92882 0.0
C571 C 0.53481 0.89877 0.77499 0.0
C572 C 0.52063 0.90993 0.80053 0.0
C573 C 0.53701 0.88138 0.79924 0.0
C574 C 0.52505 0.87474 0.84936 0.0
C575 C 0.51043 0.88562 0.87346 0.0
C576 C 0.50832 0.90306 0.84958 0.0
C577 C 0.5284 0.85676 0.87846 0.0
C578 C 0.51387 0.8442 0.88094 0.0
C579 C 0.54604 0.8519 0.90264 0.0
C580 C 0.56163 0.86477 0.90426 0.0
C581 C 0.5584 0.88055 0.93353 0.0
C582 C 0.5731 0.89268 0.93436 0.0
C583 C 0.59115 0.88913 0.90648 0.0
C584 C 0.59454 0.8734 0.87785 0.0
C585 C 0.57988 0.86123 0.87682 0.0
H586 H 0.60251 0.89854 0.90717 0.0
H587 H 0.46053 0.78007 0.89718 0.0
H588 H 0.73412 0.51281 0.16061 0.0
H589 H 0.71054 0.50627 0.08845 0.0
H590 H 0.70931 0.56113 0.02302 0.0
H591 H 0.73239 0.56774 0.09631 0.0
H592 H 0.67493 0.5503 0.03819 0.0
H593 H 0.73193 0.52752 0.93863 0.0
H594 H 0.76158 0.50975 0.92902 0.0
H595 H 0.72942 0.46225 0.96768 0.0
H596 H 0.69958 0.47976 0.97839 0.0
H597 H 0.6231 0.53798 0.77767 0.0
H598 H 0.65108 0.54299 0.83511 0.0
H599 H 0.6421 0.49305 0.93793 0.0
H600 H 0.61397 0.48813 0.88136 0.0
H601 H 0.68221 0.50148 0.89905 0.0
H602 H 0.62541 0.52569 0.00284 0.0
H603 H 0.59621 0.54421 0.00798 0.0
H604 H 0.6295 0.59033 0.95492 0.0
H605 H 0.65888 0.57202 0.9485 0.0
C606 C 0.7289 0.52342 0.13044 0.0
C607 C 0.73504 0.54079 0.13419 0.0
C608 C 0.71548 0.51968 0.089 0.0
C609 C 0.70825 0.53317 0.04956 0.0
C610 C 0.71458 0.55049 0.05294 0.0
C611 C 0.72777 0.55426 0.09489 0.0
C612 C 0.69354 0.52945 0.00648 0.0
C613 C 0.67675 0.5398 0.00713 0.0
C614 C 0.69563 0.51555 0.96644 0.0
C615 C 0.71353 0.50497 0.95989 0.0
C616 C 0.73119 0.51329 0.94555 0.0
C617 C 0.74803 0.50326 0.93983 0.0
C618 C 0.74739 0.48488 0.94789 0.0
C619 C 0.7299 0.47649 0.96153 0.0
C620 C 0.71301 0.48646 0.96738 0.0
C621 C 0.62735 0.52794 0.81167 0.0
C622 C 0.61638 0.51271 0.82531 0.0
C623 C 0.64326 0.53083 0.84454 0.0
C624 C 0.64858 0.51842 0.8909 0.0
C625 C 0.63825 0.50276 0.90225 0.0
C626 C 0.62217 0.50001 0.87016 0.0
C627 C 0.66388 0.52239 0.931 0.0
C628 C 0.68063 0.51205 0.9299 0.0
C629 C 0.66192 0.53643 0.97011 0.0
C630 C 0.6443 0.54746 0.9745 0.0
C631 C 0.62648 0.53976 0.99172 0.0
C632 C 0.6099 0.55022 0.99497 0.0
C633 C 0.61099 0.56843 0.98161 0.0
C634 C 0.62867 0.57622 0.96515 0.0
C635 C 0.64529 0.56581 0.96172 0.0
H636 H 0.59815 0.57651 0.98416 0.0
H637 H 0.76045 0.47714 0.94343 0.0
H638 H 1.00169 0.72201 0.06514 0.0
H639 H 0.01113 0.69559 0.01182 0.0
H640 H 0.96085 0.70135 0.90947 0.0
H641 H 0.95122 0.72748 0.96344 0.0
H642 H 0.96426 0.66876 0.95099 0.0
H643 H 0.00704 0.7108 0.84449 0.0
H644 H 0.03172 0.73372 0.8344 0.0
H645 H 0.07124 0.69757 0.91881 0.0
H646 H 0.04671 0.67449 0.93019 0.0
H647 H 0.98877 0.60515 0.73733 0.0
H648 H 0.98276 0.63387 0.77952 0.0
H649 H 0.02906 0.62424 0.89708 0.0
H650 H 0.03536 0.59561 0.85439 0.0
H651 H 0.02819 0.65878 0.84655 0.0
H652 H 0.98478 0.61708 0.95414 0.0
H653 H 0.96003 0.59424 0.96248 0.0
H654 H 0.92147 0.63033 0.87326 0.0
H655 H 0.94611 0.65332 0.86358 0.0
C656 C 0.9928 0.71773 0.03073 0.0
C657 C 0.97567 0.72676 0.01866 0.0
C658 C 0.99821 0.70265 1.00017 0.0
C659 C 0.98678 0.6965 0.95618 0.0
C660 C 0.96987 0.70574 0.94334 0.0
C661 C 0.96437 0.72068 0.97426 0.0
C662 C 0.99189 0.68004 0.92534 0.0
C663 C 0.97816 0.66674 0.92735 0.0
C664 C 0.01017 0.67713 0.89568 0.0
C665 C 0.02497 0.69097 0.88873 0.0
C666 C 0.02095 0.70777 0.86134 0.0
C667 C 0.03492 0.72079 0.85531 0.0
C668 C 0.05302 0.71711 0.87609 0.0
C669 C 0.0572 0.7004 0.90281 0.0
C670 C 0.04328 0.68734 0.90901 0.0
C671 C 0.99788 0.60927 0.77139 0.0
C672 C 0.01246 0.59805 0.7928 0.0
C673 C 0.99435 0.62563 0.79577 0.0
C674 C 0.00532 0.6311 0.84197 0.0
C675 C 0.02038 0.62026 0.86163 0.0
C676 C 0.02386 0.60386 0.83752 0.0
C677 C 1.0005 0.64771 0.87187 0.0
C678 C 0.01429 0.66093 0.86994 0.0
C679 C 0.98224 0.65062 0.90139 0.0
C680 C 0.96736 0.63686 0.90758 0.0
C681 C 0.97108 0.6201 0.93588 0.0
C682 C 0.95706 0.60714 0.94091 0.0
C683 C 0.93921 0.61082 0.91827 0.0
C684 C 0.93531 0.62749 0.89069 0.0
C685 C 0.94929 0.6405 0.88546 0.0
H686 H 0.92837 0.60076 0.92221 0.0
H687 H 0.06382 0.72721 0.87138 0.0
H688 H 0.07249 0.18178 0.39758 0.0
H689 H 0.06714 0.15544 0.46644 0.0
H690 H 0.00911 0.17258 0.50876 0.0
H691 H 0.01414 0.19857 0.43843 0.0
H692 H 0.05314 0.14112 0.57883 0.0
H693 H 0.98041 0.13906 0.46618 0.0
H694 H 0.96549 0.15288 0.37592 0.0
H695 H 0.0209 0.16192 0.28411 0.0
H696 H 0.03609 0.14797 0.37328 0.0
H697 H 0.00496 0.0665 0.70573 0.0
H698 H 0.01064 0.09685 0.66611 0.0
H699 H 0.02081 0.07943 0.48342 0.0
H700 H 0.01474 0.0489 0.52285 0.0
H701 H 1.00273 0.11044 0.48038 0.0
H702 H 0.05743 0.08561 0.56877 0.0
H703 H 0.07553 0.06979 0.64825 0.0
H704 H 0.06288 0.11131 0.76859 0.0
H705 H 0.04456 0.12734 0.68975 0.0
C706 C 0.05886 0.18032 0.42374 0.0
C707 C 0.04356 0.19192 0.41122 0.0
C708 C 0.05584 0.16528 0.46328 0.0
C709 C 0.03754 0.16182 0.4909 0.0
C710 C 0.02324 0.17492 0.4868 0.0
C711 C 0.02619 0.18987 0.44685 0.0
C712 C 0.03232 0.14344 0.5112 0.0
C713 C 0.04197 0.13446 0.55798 0.0
C714 C 0.01848 0.13447 0.48136 0.0
C715 C 0.00939 0.14261 0.42684 0.0
C716 C 0.9894 0.14393 0.42665 0.0
C717 C 0.98089 0.15181 0.37566 0.0
C718 C 0.99223 0.15835 0.32442 0.0
C719 C 0.01211 0.15696 0.32394 0.0
C720 C 0.02067 0.14909 0.37476 0.0
C721 C 0.00801 0.06916 0.65688 0.0
C722 C 0.00957 0.05533 0.61736 0.0
C723 C 0.01137 0.0865 0.6344 0.0
C724 C 0.01664 0.09033 0.57213 0.0
C725 C 0.0169 0.07673 0.53177 0.0
C726 C 0.01335 0.05931 0.55424 0.0
C727 C 0.02288 0.10833 0.55015 0.0
C728 C 0.01365 0.11717 0.50216 0.0
C729 C 0.03769 0.11686 0.57711 0.0
C730 C 0.04927 0.10753 0.62381 0.0
C731 C 0.05836 0.09132 0.61234 0.0
C732 C 0.06871 0.08233 0.6572 0.0
C733 C 0.07028 0.08951 0.71353 0.0
C734 C 0.0616 0.10575 0.72497 0.0
C735 C 0.05123 0.11479 0.68022 0.0
H736 H 0.07829 0.08252 0.74821 0.0
H737 H 0.98562 0.16445 0.28503 0.0
H738 H 0.32048 0.0204 0.42636 0.0
H739 H 0.34619 0.0197 0.49647 0.0
H740 H 0.36137 0.96682 0.44995 0.0
H741 H 0.33556 0.96745 0.3806 0.0
H742 H 0.37085 0.97481 0.57192 0.0
H743 H 0.37959 0.99947 0.35525 0.0
H744 H 0.36936 0.02031 0.27193 0.0
H745 H 0.37471 0.06359 0.38495 0.0
H746 H 0.38514 0.04306 0.46864 0.0
H747 H 0.4712 0.97147 0.58834 0.0
H748 H 0.4392 0.96966 0.55138 0.0
H749 H 0.43225 0.02606 0.55742 0.0
H750 H 0.46432 0.02805 0.59127 0.0
H751 H 0.41696 0.01714 0.46407 0.0
H752 H 0.41564 0.99511 0.67053 0.0
H753 H 0.42328 0.97659 0.76215 0.0
H754 H 0.40194 0.93112 0.68461 0.0
H755 H 0.3943 0.94937 0.59204 0.0
C756 C 0.32853 0.00825 0.43418 0.0
C757 C 0.32609 0.99397 0.39838 0.0
C758 C 0.34335 0.00791 0.47371 0.0
C759 C 0.35594 0.99335 0.47725 0.0
C760 C 0.35185 0.97819 0.44783 0.0
C761 C 0.33703 0.97852 0.40847 0.0
C762 C 0.37523 0.99518 0.49957 0.0
C763 C 0.38104 0.98396 0.54846 0.0
C764 C 0.38831 0.00744 0.46966 0.0
C765 C 0.38296 0.01976 0.41824 0.0
C766 C 0.37854 0.01343 0.36228 0.0
C767 C 0.37261 0.02516 0.3152 0.0
C768 C 0.37108 0.04319 0.32358 0.0
C769 C 0.37578 0.0496 0.37869 0.0
C770 C 0.38177 0.03795 0.42585 0.0
C771 C 0.46297 0.9835 0.5806 0.0
C772 C 0.47031 0.99988 0.59292 0.0
C773 C 0.44461 0.98244 0.56006 0.0
C774 C 0.4331 0.99768 0.55295 0.0
C775 C 0.44077 0.0141 0.56268 0.0
C776 C 0.45918 0.0152 0.58206 0.0
C777 C 0.41293 0.99665 0.53673 0.0
C778 C 0.40692 0.00799 0.4884 0.0
C779 C 0.39963 0.98478 0.56847 0.0
C780 C 0.40443 0.97366 0.62397 0.0
C781 C 0.41263 0.98116 0.67272 0.0
C782 C 0.41698 0.9707 0.72491 0.0
C783 C 0.41312 0.95268 0.72919 0.0
C784 C 0.40491 0.94509 0.68124 0.0
C785 C 0.40054 0.95551 0.62889 0.0
H786 H 0.41648 0.94459 0.76967 0.0
H787 H 0.36644 0.05222 0.2871 0.0
H788 H 0.54859 0.3294 0.3926 0.0
H789 H 0.55262 0.35347 0.45932 0.0
H790 H 0.49507 0.37148 0.43215 0.0
H791 H 0.49082 0.34732 0.36666 0.0
H792 H 0.52636 0.39452 0.38422 0.0
H793 H 0.50284 0.36079 0.56724 0.0
H794 H 0.50221 0.33595 0.64575 0.0
H795 H 0.55921 0.3478 0.68788 0.0
H796 H 0.56028 0.37258 0.60898 0.0
H797 H 0.5081 0.4698 0.545 0.0
H798 H 0.50942 0.44163 0.49881 0.0
H799 H 0.56259 0.42876 0.57986 0.0
H800 H 0.56116 0.4571 0.62768 0.0
H801 H 0.53804 0.4021 0.60096 0.0
H802 H 0.5611 0.43719 0.42491 0.0
H803 H 0.56267 0.4617 0.34516 0.0
H804 H 0.50858 0.44684 0.28586 0.0
H805 H 0.50647 0.42247 0.36603 0.0
C806 C 0.5365 0.33797 0.40332 0.0
C807 C 0.51946 0.33664 0.37389 0.0
C808 C 0.53885 0.35175 0.44123 0.0
C809 C 0.52419 0.3643 0.45007 0.0
C810 C 0.50655 0.36192 0.42574 0.0
C811 C 0.50414 0.34813 0.38835 0.0
C812 C 0.52828 0.3815 0.47368 0.0
C813 C 0.52876 0.39627 0.4317 0.0
C814 C 0.53224 0.38348 0.53501 0.0
C815 C 0.53175 0.36837 0.58151 0.0
C816 C 0.51534 0.35795 0.59262 0.0
C817 C 0.51487 0.34393 0.63739 0.0
C818 C 0.53069 0.34025 0.67161 0.0
C819 C 0.54699 0.35063 0.66123 0.0
C820 C 0.54753 0.36467 0.61651 0.0
C821 C 0.52029 0.46116 0.55219 0.0
C822 C 0.53454 0.46569 0.59004 0.0
C823 C 0.52106 0.44504 0.52548 0.0
C824 C 0.53616 0.4331 0.53548 0.0
C825 C 0.55082 0.43781 0.57146 0.0
C826 C 0.55008 0.45405 0.59828 0.0
C827 C 0.53567 0.41532 0.51156 0.0
C828 C 0.53593 0.40041 0.55321 0.0
C829 C 0.53258 0.41312 0.44949 0.0
C830 C 0.53356 0.42807 0.40201 0.0
C831 C 0.54942 0.43927 0.39539 0.0
C832 C 0.55043 0.45313 0.34998 0.0
C833 C 0.53571 0.45586 0.31057 0.0
C834 C 0.51995 0.44474 0.31651 0.0
C835 C 0.51884 0.43091 0.36197 0.0
H836 H 0.53654 0.46656 0.27535 0.0
H837 H 0.53029 0.3294 0.70629 0.0
H838 H 0.19424 0.54411 0.23131 0.0
H839 H 0.16813 0.54775 0.31013 0.0
H840 H 0.18343 0.49779 0.40015 0.0
H841 H 0.20972 0.4943 0.32191 0.0
H842 H 0.14614 0.50083 0.34951 0.0
H843 H 0.18605 0.53107 0.47794 0.0
H844 H 0.20801 0.55438 0.50028 0.0
H845 H 0.16573 0.59393 0.4571 0.0
H846 H 0.1436 0.57086 0.43361 0.0
H847 H 0.07479 0.48851 0.58283 0.0
H848 H 0.10485 0.49209 0.52192 0.0
H849 H 0.09172 0.54724 0.48277 0.0
H850 H 0.06172 0.5439 0.54721 0.0
H851 H 0.12772 0.54381 0.5041 0.0
H852 H 0.08804 0.51586 0.37405 0.0
H853 H 0.06534 0.49408 0.34468 0.0
H854 H 0.10603 0.45237 0.37903 0.0
H855 H 0.12889 0.47387 0.40942 0.0
C856 C 0.19255 0.53438 0.26973 0.0
C857 C 0.20395 0.51902 0.27137 0.0
C858 C 0.17765 0.53643 0.31448 0.0
C859 C 0.17389 0.52301 0.36068 0.0
C860 C 0.18623 0.50831 0.36495 0.0
C861 C 0.20127 0.50637 0.32065 0.0
C862 C 0.15533 0.52271 0.39683 0.0
C863 C 0.14218 0.51003 0.3841 0.0
C864 C 0.14994 0.53537 0.43921 0.0
C865 C 0.16324 0.54924 0.45338 0.0
C866 C 0.1815 0.54474 0.47259 0.0
C867 C 0.19396 0.55791 0.48562 0.0
C868 C 0.18829 0.57563 0.47995 0.0
C869 C 0.17012 0.58021 0.4614 0.0
C870 C 0.1576 0.56709 0.44828 0.0
C871 C 0.07813 0.5014 0.5608 0.0
C872 C 0.06576 0.51589 0.56909 0.0
C873 C 0.09537 0.50342 0.52581 0.0
C874 C 0.10039 0.51984 0.49652 0.0
C875 C 0.08809 0.53441 0.50469 0.0
C876 C 0.07092 0.53247 0.54107 0.0
C877 C 0.11861 0.52156 0.45803 0.0
C878 C 0.13162 0.53459 0.4696 0.0
C879 C 0.12379 0.50947 0.41321 0.0
C880 C 0.11014 0.49648 0.39443 0.0
C881 C 0.09211 0.50203 0.37569 0.0
C882 C 0.07921 0.48974 0.35882 0.0
C883 C 0.08422 0.47185 0.3601 0.0
C884 C 0.10216 0.46623 0.37809 0.0
C885 C 0.11511 0.47847 0.39505 0.0
H886 H 0.07421 0.46235 0.34706 0.0
H887 H 0.19796 0.58581 0.49007 0.0
H888 H 0.04695 0.82176 0.04178 0.0
H889 H 0.05515 0.84752 0.97272 0.0
H890 H 0.00637 0.83847 0.87073 0.0
H891 H 0.99769 0.81317 0.94078 0.0
H892 H 0.05864 0.86258 0.84762 0.0
H893 H 0.97783 0.87392 0.88607 0.0
H894 H 0.95079 0.86184 0.95335 0.0
H895 H 0.98828 0.84968 0.09709 0.0
H896 H 0.01548 0.86187 0.03106 0.0
H897 H 1.00385 0.94479 0.73431 0.0
H898 H 0.00671 0.91403 0.772 0.0
H899 H 0.05178 0.9274 0.88362 0.0
H900 H 0.04872 0.95864 0.84678 0.0
H901 H 1.00303 0.90122 0.90177 0.0
H902 H 0.08392 0.88939 0.86308 0.0
H903 H 0.1112 0.90059 0.79499 0.0
H904 H 0.07353 0.91433 0.65276 0.0
H905 H 0.04612 0.903 0.71965 0.0
C906 C 0.03851 0.82476 0.0028 0.0
C907 C 0.02133 0.81585 0.99784 0.0
C908 C 0.04327 0.83946 0.96321 0.0
C909 C 0.03098 0.84518 0.91808 0.0
C910 C 0.01584 0.83437 0.9061 0.0
C911 C 0.01096 0.8198 0.94606 0.0
C912 C 0.03086 0.86399 0.89569 0.0
C913 C 0.04657 0.87107 0.85968 0.0
C914 C 0.01514 0.87508 0.91196 0.0
C915 C 0.99871 0.86859 0.95328 0.0
C916 C 0.98027 0.86874 0.93214 0.0
C917 C 0.96494 0.86181 0.96999 0.0
C918 C 0.96789 0.85475 0.02914 0.0
C919 C 0.98611 0.85483 0.05087 0.0
C920 C 1.00146 0.86182 0.01337 0.0
C921 C 0.01439 0.94125 0.76697 0.0
C922 C 0.02607 0.95412 0.78773 0.0
C923 C 0.01597 0.92367 0.78841 0.0
C924 C 0.02952 0.9185 0.83011 0.0
C925 C 0.04132 0.93122 0.85103 0.0
C926 C 0.03949 0.949 0.83034 0.0
C927 C 0.03065 0.89979 0.85278 0.0
C928 C 0.01512 0.89276 0.88957 0.0
C929 C 0.04656 0.88887 0.83746 0.0
C930 C 0.06296 0.89558 0.79671 0.0
C931 C 0.08148 0.89478 0.81725 0.0
C932 C 0.09696 0.90114 0.77886 0.0
C933 C 0.09409 0.90824 0.71969 0.0
C934 C 0.07573 0.90892 0.69871 0.0
C935 C 0.06022 0.90257 0.7369 0.0
H936 H 0.10609 0.91316 0.69005 0.0
H937 H 0.95601 0.8494 0.05839 0.0
H938 H 0.70207 0.97788 0.01881 0.0
H939 H 0.67549 0.98139 0.95292 0.0
H940 H 0.67945 0.03801 0.95394 0.0
H941 H 0.70548 0.03433 0.02273 0.0
H942 H 0.6454 0.02951 0.98637 0.0
H943 H 0.68735 0.01399 0.81819 0.0
H944 H 0.71202 0.9968 0.7617 0.0
H945 H 0.67606 0.95135 0.78265 0.0
H946 H 0.65127 0.96818 0.84 0.0
H947 H 0.56638 0.03976 0.79382 0.0
H948 H 0.59788 0.04073 0.83477 0.0
H949 H 0.59702 0.98434 0.87358 0.0
H950 H 0.56563 0.98321 0.83285 0.0
H951 H 0.63061 0.99566 0.81075 0.0
H952 H 0.59034 0.01133 0.98784 0.0
H953 H 0.56585 0.02912 0.04273 0.0
H954 H 0.59956 0.07554 1.00027 0.0
H955 H 0.62415 0.05805 0.94443 0.0
C956 C 0.69781 0.99105 0.00255 0.0
C957 C 0.70594 0.00585 0.02481 0.0
C958 C 0.68255 0.99309 0.96494 0.0
C959 C 0.6754 0.01 0.94801 0.0
C960 C 0.68463 0.02483 0.96637 0.0
C961 C 0.69966 0.02277 0.00493 0.0
C962 C 0.65685 0.01205 0.91892 0.0
C963 C 0.64239 0.02242 0.94696 0.0
C964 C 0.65261 0.00252 0.86838 0.0
C965 C 0.66749 0.99234 0.83379 0.0
C966 C 0.68475 1.00029 0.81114 0.0
C967 C 0.69875 0.99062 0.77889 0.0
C968 C 0.69563 0.97299 0.76868 0.0
C969 C 0.67847 0.96501 0.79059 0.0
C970 C 0.66442 0.97462 0.82289 0.0
C971 C 0.57275 0.0276 0.812 0.0
C972 C 0.56345 0.01141 0.81006 0.0
C973 C 0.59078 0.02818 0.83521 0.0
C974 C 0.59983 0.01259 0.85694 0.0
C975 C 0.59035 0.99651 0.85664 0.0
C976 C 0.57232 0.99592 0.83376 0.0
C977 C 0.61935 0.01289 0.87878 0.0
C978 C 0.63388 0.00294 0.84945 0.0
C979 C 0.62374 0.02293 0.9277 0.0
C980 C 0.60897 0.03343 0.96138 0.0
C981 C 0.59245 0.02536 0.98977 0.0
C982 C 0.57857 0.03538 0.02115 0.0
C983 C 0.58112 0.05346 0.02483 0.0
C984 C 0.59758 0.06154 0.99729 0.0
C985 C 0.6115 0.05158 0.96581 0.0
H986 H 0.57035 0.0612 0.04914 0.0
H987 H 0.70649 0.96552 0.74371 0.0
H988 H 0.53808 0.67703 0.98687 0.0
H989 H 0.52978 0.65378 0.92268 0.0
H990 H 0.47346 0.65096 0.01567 0.0
H991 H 0.48217 0.67378 0.08185 0.0
H992 H 0.48765 0.62037 0.02042 0.0
H993 H 0.48181 0.66264 0.85517 0.0
H994 H 0.48963 0.68808 0.78243 0.0
H995 H 0.54058 0.6615 0.71555 0.0
H996 H 0.53326 0.636 0.78856 0.0
H997 H 0.47527 0.54794 0.82134 0.0
H998 H 0.47021 0.5767 0.86554 0.0
H999 H 0.53111 0.58415 0.85692 0.0
H1000 H 0.53634 0.55551 0.81474 0.0
H1001 H 0.50687 0.61343 0.80144 0.0
H1002 H 0.51372 0.57406 0.98563 0.0
H1003 H 0.50408 0.54863 0.05636 0.0
H1004 H 0.44767 0.57089 0.08245 0.0
H1005 H 0.45693 0.59635 0.01112 0.0
C1006 C 0.52368 0.67194 0.99184 0.0
C1007 C 0.51074 0.67718 0.03908 0.0
C1008 C 0.5189 0.65861 0.95507 0.0
C1009 C 0.50093 0.65054 0.96403 0.0
C1010 C 0.48743 0.65688 0.00794 0.0
C1011 C 0.49234 0.67001 0.0454 0.0
C1012 C 0.49744 0.63394 0.93437 0.0
C1013 C 0.49136 0.61907 0.97207 0.0
C1014 C 0.50237 0.63201 0.87139 0.0
C1015 C 0.50701 0.64741 0.82771 0.0
C1016 C 0.49477 0.66227 0.82535 0.0
C1017 C 0.4991 0.6767 0.78398 0.0
C1018 C 0.5156 0.67642 0.74444 0.0
C1019 C 0.5278 0.6617 0.7462 0.0
C1020 C 0.52355 0.64724 0.78753 0.0
C1021 C 0.48756 0.55561 0.82973 0.0
C1022 C 0.50619 0.5494 0.81472 0.0
C1023 C 0.48464 0.57204 0.8546 0.0
C1024 C 0.50031 0.58255 0.86372 0.0
C1025 C 0.51886 0.57626 0.84967 0.0
C1026 C 0.52179 0.5598 0.82605 0.0
C1027 C 0.49769 0.60017 0.88799 0.0
C1028 C 0.50267 0.61508 0.84928 0.0
C1029 C 0.49146 0.60223 0.94964 0.0
C1030 C 0.48593 0.58695 0.99243 0.0
C1031 C 0.4992 0.57343 0.00593 0.0
C1032 C 0.49383 0.55904 0.04625 0.0
C1033 C 0.47525 0.55811 0.0737 0.0
C1034 C 0.46203 0.5716 0.06103 0.0
C1035 C 0.46734 0.58601 0.02069 0.0
H1036 H 0.47111 0.54697 0.10492 0.0
H1037 H 0.51891 0.68759 0.71239 0.0
H1038 H 0.84868 0.53936 0.10858 0.0
H1039 H 0.87332 0.53251 0.0295 0.0
H1040 H 0.85302 0.47905 0.03483 0.0
H1041 H 0.82876 0.48588 0.11667 0.0
H1042 H 0.88915 0.47816 0.04347 0.0
H1043 H 0.85044 0.50907 0.90325 0.0
H1044 H 0.82962 0.53285 0.86238 0.0
H1045 H 0.87537 0.5697 0.86043 0.0
H1046 H 0.8964 0.54623 0.90211 0.0
H1047 H 0.96796 0.46965 0.81056 0.0
H1048 H 0.93628 0.46891 0.86564 0.0
H1049 H 0.94431 0.52156 0.92029 0.0
H1050 H 0.97577 0.52245 0.86576 0.0
H1051 H 0.91056 0.51776 0.86349 0.0
H1052 H 0.94649 0.48671 0.02189 0.0
H1053 H 0.96686 0.46238 0.06159 0.0
H1054 H 0.92502 0.4248 0.02361 0.0
H1055 H 0.90451 0.44892 0.98298 0.0
C1056 C 0.84913 0.52633 0.09125 0.0
C1057 C 0.8368 0.51319 0.1175 0.0
C1058 C 0.86316 0.5224 0.04592 0.0
C1059 C 0.86489 0.5053 0.02528 0.0
C1060 C 0.85189 0.49234 0.04971 0.0
C1061 C 0.83797 0.49625 0.09589 0.0
C1062 C 0.88168 0.50069 0.98411 0.0
C1063 C 0.89355 0.48656 0.00311 0.0
C1064 C 0.88756 0.51165 0.93157 0.0
C1065 C 0.875 0.52585 0.90601 0.0
C1066 C 0.85604 0.52226 0.89442 0.0
C1067 C 0.8442 0.53569 0.87106 0.0
C1068 C 0.85116 0.55278 0.85884 0.0
C1069 C 0.87 0.55646 0.86985 0.0
C1070 C 0.8819 0.54308 0.89322 0.0
C1071 C 0.96313 0.48091 0.83544 0.0
C1072 C 0.97432 0.49615 0.8335 0.0
C1073 C 0.94501 0.48048 0.86661 0.0
C1074 C 0.93792 0.49526 0.89637 0.0
C1075 C 0.94946 0.5101 0.89697 0.0
C1076 C 0.96749 0.51054 0.86606 0.0
C1077 C 0.91819 0.49585 0.92478 0.0
C1078 C 0.90582 0.50916 0.90299 0.0
C1079 C 0.91177 0.48403 0.97415 0.0
C1080 C 0.92409 0.46959 0.99872 0.0
C1081 C 0.94172 0.47325 0.02151 0.0
C1082 C 0.95327 0.4595 0.04429 0.0
C1083 C 0.94727 0.44205 0.04492 0.0
C1084 C 0.92967 0.43832 0.02297 0.0
C1085 C 0.91808 0.45202 1.0001 0.0
H1086 H 0.95622 0.43142 0.06258 0.0
H1087 H 0.84197 0.56316 0.8408 0.0
H1088 H 0.01826 0.19163 0.16625 0.0
H1089 H 0.02044 0.16711 0.09895 0.0
H1090 H 0.08001 0.1598 0.13178 0.0
H1091 H 0.07773 0.18395 0.20044 0.0
H1092 H 0.04223 0.1581 0.99501 0.0
H1093 H 0.08889 0.12711 0.16126 0.0
H1094 H 0.09409 0.12284 0.27161 0.0
H1095 H 0.03354 0.11922 0.31391 0.0
H1096 H 0.02801 0.12449 0.20425 0.0
H1097 H 0.06407 0.07579 0.86198 0.0
H1098 H 0.0686 0.10296 0.91353 0.0
H1099 H 0.0256 0.08629 0.05508 0.0
H1100 H 0.02088 0.05931 0.00327 0.0
H1101 H 0.05698 0.10028 0.10178 0.0
H1102 H 0.01321 0.11438 0.9487 0.0
H1103 H 1.00132 0.11703 0.84541 0.0
H1104 H 0.04734 0.15169 0.78273 0.0
H1105 H 0.05973 0.149 0.88557 0.0
C1106 C 0.03195 0.18513 0.15754 0.0
C1107 C 0.04784 0.18966 0.18839 0.0
C1108 C 0.03315 0.17104 0.11951 0.0
C1109 C 0.05026 0.16133 0.11165 0.0
C1110 C 0.06652 0.16677 0.13861 0.0
C1111 C 0.06529 0.1807 0.1771 0.0
C1112 C 0.05071 0.14485 0.07894 0.0
C1113 C 0.04579 0.14549 0.0179 0.0
C1114 C 0.05476 0.12832 0.10923 0.0
C1115 C 0.05806 0.12645 0.17507 0.0
C1116 C 0.07671 0.12573 0.19438 0.0
C1117 C 0.0797 0.12324 0.25676 0.0
C1118 C 0.06414 0.12103 0.29989 0.0
C1119 C 0.04556 0.12135 0.28069 0.0
C1120 C 0.04248 0.12425 0.21854 0.0
C1121 C 0.05588 0.07782 0.90471 0.0
C1122 C 0.0422 0.06548 0.929 0.0
C1123 C 0.05836 0.09337 0.93379 0.0
C1124 C 0.04736 0.09665 0.98791 0.0
C1125 C 0.03425 0.08398 0.01341 0.0
C1126 C 0.03156 0.06861 0.98389 0.0
C1127 C 0.04894 0.11351 0.01729 0.0
C1128 C 0.05403 0.11292 0.078 0.0
C1129 C 0.04461 0.12999 0.98691 0.0
C1130 C 0.03753 0.13131 0.92464 0.0
C1131 C 0.02095 0.12238 0.91271 0.0
C1132 C 0.01408 0.12394 0.85431 0.0
C1133 C 0.02355 0.13454 0.80759 0.0
C1134 C 0.04 0.14351 0.81904 0.0
C1135 C 0.04697 0.14196 0.87736 0.0
H1136 H 0.0181 0.13583 0.76257 0.0
H1137 H 0.06646 0.11892 0.34811 0.0
H1138 H 0.35615 0.98286 0.20677 0.0
H1139 H 0.38249 0.98765 0.12938 0.0
H1140 H 0.35307 0.03303 0.05082 0.0
H1141 H 0.32663 0.02865 0.13025 0.0
H1142 H 0.36997 0.01065 0.96221 0.0
H1143 H 0.39341 0.04454 0.12142 0.0
H1144 H 0.401 0.05051 0.2261 0.0
H1145 H 0.43187 1.00132 0.24255 0.0
H1146 H 0.42508 0.99544 0.13688 0.0
H1147 H 0.47494 0.03854 0.85504 0.0
H1148 H 0.44559 0.04054 0.92261 0.0
H1149 H 0.43119 0.98755 0.88626 0.0
H1150 H 0.46064 0.98528 0.82032 0.0
H1151 H 0.43514 0.01882 0.029 0.0
H1152 H 0.37996 0.98842 0.88036 0.0
H1153 H 0.37223 0.98842 0.77243 0.0
H1154 H 0.40358 0.0362 0.72981 0.0
H1155 H 0.41121 0.0367 0.8376 0.0
C1156 C 0.35523 0.99397 0.17342 0.0
C1157 C 0.3393 0.00554 0.17565 0.0
C1158 C 0.37037 0.99668 0.12906 0.0
C1159 C 0.37 0.0109 0.0849 0.0
C1160 C 0.35376 0.02204 0.08478 0.0
C1161 C 0.33858 0.01944 0.12992 0.0
C1162 C 0.38665 0.01378 0.03917 0.0
C1163 C 0.38422 0.01245 0.97668 0.0
C1164 C 0.40522 0.01651 0.05763 0.0
C1165 C 0.40861 0.0195 0.12178 0.0
C1166 C 0.40173 0.03498 0.14759 0.0
C1167 C 0.40602 0.03841 0.20683 0.0
C1168 C 0.41679 0.02625 0.24116 0.0
C1169 C 0.4235 0.01072 0.21597 0.0
C1170 C 0.41959 0.0074 0.15623 0.0
C1171 C 0.46556 0.0273 0.8617 0.0
C1172 C 0.47027 0.01168 0.83286 0.0
C1173 C 0.44877 0.02847 0.90016 0.0
C1174 C 0.43608 0.01425 0.90917 0.0
C1175 C 0.44064 0.99875 0.8797 0.0
C1176 C 0.4576 0.99743 0.84244 0.0
C1177 C 0.41863 0.01516 0.95192 0.0
C1178 C 0.42092 0.01706 0.01411 0.0
C1179 C 0.39994 0.0132 0.93272 0.0
C1180 C 0.39629 0.0125 0.86712 0.0
C1181 C 0.38521 0.99893 0.84798 0.0
C1182 C 0.38076 0.99889 0.78688 0.0
C1183 C 0.38728 0.01238 0.74445 0.0
C1184 C 0.39849 0.0258 0.7628 0.0
C1185 C 0.40294 0.02593 0.82389 0.0
H1186 H 0.38374 0.01237 0.69721 0.0
H1187 H 0.41994 0.02886 0.28725 0.0
H1188 H 0.54471 0.3404 0.12731 0.0
H1189 H 0.54147 0.36509 0.05026 0.0
H1190 H 0.48031 0.36456 0.08686 0.0
H1191 H 0.48359 0.34025 0.16556 0.0
H1192 H 0.50138 0.37074 0.94633 0.0
H1193 H 0.49302 0.3906 0.15677 0.0
H1194 H 0.50353 0.39182 0.26137 0.0
H1195 H 0.55745 0.41276 0.18806 0.0
H1196 H 0.54744 0.41125 0.083 0.0
H1197 H 0.48185 0.45761 0.81533 0.0
H1198 H 0.48035 0.43003 0.8806 0.0
H1199 H 0.53733 0.43872 0.93325 0.0
H1200 H 0.53879 0.46622 0.86953 0.0
H1201 H 0.51643 0.42763 0.02915 0.0
H1202 H 0.52859 0.40918 0.82725 0.0
H1203 H 0.52395 0.40621 0.71809 0.0
H1204 H 0.4698 0.38173 0.76651 0.0
H1205 H 0.47401 0.38476 0.87603 0.0
C1206 C 0.53056 0.34516 0.11724 0.0
C1207 C 0.51437 0.33834 0.15156 0.0
C1208 C 0.52872 0.35929 0.0736 0.0
C1209 C 0.51066 0.36662 0.06307 0.0
C1210 C 0.49435 0.35899 0.09413 0.0
C1211 C 0.49621 0.34509 0.13876 0.0
C1212 C 0.5091 0.38347 0.02541 0.0
C1213 C 0.50429 0.38326 0.9645 0.0
C1214 C 0.51365 0.39964 0.04872 0.0
C1215 C 0.51957 0.40057 0.11201 0.0
C1216 C 0.50721 0.39523 0.16292 0.0
C1217 C 0.51306 0.39602 0.2223 0.0
C1218 C 0.53117 0.40231 0.23129 0.0
C1219 C 0.54345 0.40785 0.18099 0.0
C1220 C 0.5377 0.40701 0.12155 0.0
C1221 C 0.49395 0.45373 0.84142 0.0
C1222 C 0.51043 0.46415 0.83713 0.0
C1223 C 0.49316 0.43787 0.87827 0.0
C1224 C 0.50883 0.43214 0.91136 0.0
C1225 C 0.52505 0.4428 0.90827 0.0
C1226 C 0.52585 0.45857 0.87164 0.0
C1227 C 0.50854 0.41512 0.94947 0.0
C1228 C 0.51314 0.41524 0.01073 0.0
C1229 C 0.50435 0.39883 0.92574 0.0
C1230 C 0.5015 0.39742 0.85986 0.0
C1231 C 0.51558 0.40336 0.81462 0.0
C1232 C 0.51307 0.40161 0.75267 0.0
C1233 C 0.49657 0.39383 0.73536 0.0
C1234 C 0.48256 0.38779 0.77998 0.0
C1235 C 0.485 0.38951 0.84201 0.0
H1236 H 0.49469 0.39242 0.68739 0.0
H1237 H 0.5357 0.40295 0.27717 0.0
H1238 H 0.19316 0.47386 0.11155 0.0
H1239 H 0.16689 0.46994 0.04573 0.0
H1240 H 0.18134 0.51903 0.94392 0.0
H1241 H 0.20785 0.52275 0.009 0.0
H1242 H 0.1433 0.51668 0.00492 0.0
H1243 H 0.18626 0.48406 0.87088 0.0
H1244 H 0.20935 0.46024 0.84722 0.0
H1245 H 0.16758 0.42146 0.91214 0.0
H1246 H 0.14432 0.44506 0.93703 0.0
H1247 H 0.07425 0.52501 0.79295 0.0
H1248 H 0.10377 0.52257 0.84432 0.0
H1249 H 0.09263 0.46767 0.89568 0.0
H1250 H 0.06324 0.46985 0.84071 0.0
H1251 H 0.12873 0.47096 0.86488 0.0
H1252 H 0.08599 0.50106 0.00056 0.0
H1253 H 0.06201 0.52329 0.03261 0.0
H1254 H 0.10184 0.56466 0.97829 0.0
H1255 H 0.12599 0.54268 0.94511 0.0
C1256 C 0.1912 0.48337 0.07334 0.0
C1257 C 0.20259 0.49848 0.06452 0.0
C1258 C 0.17617 0.48118 0.03605 0.0
C1259 C 0.17219 0.49421 0.9901 0.0
C1260 C 0.18428 0.50879 0.97899 0.0
C1261 C 0.19947 0.51085 0.01571 0.0
C1262 C 0.154 0.49391 0.95976 0.0
C1263 C 0.1402 0.50686 0.97349 0.0
C1264 C 0.14965 0.48052 0.92155 0.0
C1265 C 0.16361 0.46633 0.90641 0.0
C1266 C 0.18205 0.47046 0.88067 0.0
C1267 C 0.19516 0.45699 0.8669 0.0
C1268 C 0.18995 0.43935 0.87832 0.0
C1269 C 0.17161 0.43513 0.90338 0.0
C1270 C 0.15845 0.44855 0.91727 0.0
C1271 C 0.07794 0.51242 0.81557 0.0
C1272 C 0.06625 0.49767 0.81354 0.0
C1273 C 0.09486 0.51105 0.84519 0.0
C1274 C 0.10028 0.49505 0.87541 0.0
C1275 C 0.08872 0.4802 0.87308 0.0
C1276 C 0.07189 0.48147 0.84202 0.0
C1277 C 0.11809 0.49406 0.90873 0.0
C1278 C 0.13176 0.48081 0.89623 0.0
C1279 C 0.1222 0.50693 0.94957 0.0
C1280 C 0.10776 0.52022 0.96991 0.0
C1281 C 0.0896 0.5149 0.99509 0.0
C1282 C 0.07598 0.52746 0.0135 0.0
C1283 C 0.08039 0.54538 0.00737 0.0
C1284 C 0.09845 0.55077 0.98297 0.0
C1285 C 0.11211 0.53827 0.96443 0.0
H1286 H 0.06982 0.55508 0.02162 0.0
H1287 H 0.20012 0.42895 0.86762 0.0
H1288 H 0.9627 0.82261 0.20564 0.0
H1289 H 0.95738 0.84666 0.27411 0.0
H1290 H 0.01829 0.85098 0.2843 0.0
H1291 H 0.02357 0.82657 0.21828 0.0
H1292 H 1.00179 0.85582 0.39083 0.0
H1293 H 0.99294 0.88611 0.18534 0.0
H1294 H 0.97846 0.89063 0.08597 0.0
H1295 H 0.92248 0.88483 0.17696 0.0
H1296 H 0.93665 0.88108 0.27711 0.0
H1297 H 0.02128 0.94446 0.42322 0.0
H1298 H 0.01562 0.91754 0.37322 0.0
H1299 H 0.9574 0.91688 0.45025 0.0
H1300 H 0.96313 0.94358 0.50297 0.0
H1301 H 0.96651 0.90891 0.31299 0.0
H1302 H 0.98035 0.891 0.52068 0.0
H1303 H 0.99876 0.89221 0.61192 0.0
H1304 H 0.04948 0.8757 0.50903 0.0
H1305 H 0.03145 0.87469 0.41684 0.0
C1306 C 0.97489 0.82836 0.22404 0.0
C1307 C 0.99356 0.82271 0.20659 0.0
C1308 C 0.97187 0.84234 0.26222 0.0
C1309 C 0.98744 0.85096 0.28327 0.0
C1310 C 0.00601 0.84465 0.26851 0.0
C1311 C 0.00903 0.83068 0.23073 0.0
C1312 C 0.98473 0.86683 0.31925 0.0
C1313 C 0.99399 0.86737 0.37382 0.0
C1314 C 0.97433 0.88191 0.29802 0.0
C1315 C 0.96582 0.88305 0.23824 0.0
C1316 C 0.97755 0.88568 0.18394 0.0
C1317 C 0.96941 0.88825 0.12764 0.0
C1318 C 0.94958 0.88781 0.12507 0.0
C1319 C 0.93784 0.88507 0.17896 0.0
C1320 C 0.9459 0.88288 0.23553 0.0
C1321 C 0.00722 0.93867 0.42952 0.0
C1322 C 0.99275 0.94603 0.468 0.0
C1323 C 1.00401 0.92333 0.40067 0.0
C1324 C 0.9862 0.91515 0.40888 0.0
C1325 C 0.97127 0.92303 0.44369 0.0
C1326 C 0.97454 0.93833 0.47339 0.0
C1327 C 0.98383 0.89787 0.38341 0.0
C1328 C 0.97375 0.89714 0.33088 0.0
C1329 C 0.99376 0.88272 0.40596 0.0
C1330 C 0.00456 0.88289 0.46172 0.0
C1331 C 0.99546 0.88774 0.51738 0.0
C1332 C 0.00582 0.88838 0.5693 0.0
C1333 C 0.02529 0.88406 0.56625 0.0
C1334 C 0.03441 0.87904 0.51132 0.0
C1335 C 0.02411 0.87841 0.45924 0.0
H1336 H 0.03329 0.88459 0.60647 0.0
H1337 H 0.94333 0.88967 0.08136 0.0
H1338 H 0.69206 0.02846 0.23257 0.0
H1339 H 0.66564 0.02728 0.3116 0.0
H1340 H 0.67887 0.97255 0.3575 0.0
H1341 H 0.70537 0.97371 0.27785 0.0
H1342 H 0.64128 0.97737 0.33795 0.0
H1343 H 0.68555 0.00354 0.45855 0.0
H1344 H 0.70961 0.02481 0.48238 0.0
H1345 H 0.66897 0.06725 0.46029 0.0
H1346 H 0.64472 0.04626 0.43547 0.0
H1347 H 0.56872 0.97214 0.58618 0.0
H1348 H 0.59875 0.97103 0.52239 0.0
H1349 H 0.59288 0.02649 0.46994 0.0
H1350 H 0.56308 0.02775 0.53423 0.0
H1351 H 0.62823 0.01943 0.49933 0.0
H1352 H 0.58494 0.99384 0.37097 0.0
H1353 H 0.56079 0.97287 0.34543 0.0
H1354 H 0.59957 0.92963 0.38067 0.0
H1355 H 0.62387 0.95035 0.40721 0.0
C1356 C 0.68966 0.01631 0.26066 0.0
C1357 C 0.70089 1.00121 0.24924 0.0
C1358 C 0.67452 0.01563 0.30587 0.0
C1359 C 0.67018 0.99982 0.34078 0.0
C1360 C 0.68189 0.9849 0.33125 0.0
C1361 C 0.69719 0.98563 0.28624 0.0
C1362 C 0.65261 0.99867 0.3836 0.0
C1363 C 0.6386 0.98634 0.37407 0.0
C1364 C 0.64881 0.01064 0.42979 0.0
C1365 C 0.66335 0.02333 0.44465 0.0
C1366 C 0.68178 0.01743 0.45827 0.0
C1367 C 0.69545 0.02943 0.47206 0.0
C1368 C 0.69083 0.04738 0.47272 0.0
C1369 C 0.67252 0.05335 0.45971 0.0
C1370 C 0.6588 0.0414 0.44586 0.0
C1371 C 0.57369 0.98406 0.5605 0.0
C1372 C 0.56337 1.00003 0.56534 0.0
C1373 C 0.5909 0.98341 0.52392 0.0
C1374 C 0.59815 0.99867 0.4909 0.0
C1375 C 0.58771 0.01454 0.495 0.0
C1376 C 0.57055 0.01521 0.5316 0.0
C1377 C 0.61678 0.99828 0.45317 0.0
C1378 C 0.63097 0.01034 0.46361 0.0
C1379 C 0.62073 0.9861 0.40767 0.0
C1380 C 0.60614 0.97363 0.39175 0.0
C1381 C 0.58826 0.97985 0.37377 0.0
C1382 C 0.57455 0.96801 0.35902 0.0
C1383 C 0.57862 0.94992 0.36161 0.0
C1384 C 0.59642 0.94365 0.3788 0.0
C1385 C 0.61017 0.95543 0.39366 0.0
H1386 H 0.56799 0.94078 0.35015 0.0
H1387 H 0.70144 0.05665 0.48341 0.0
H1388 H 0.49874 0.66803 0.26546 0.0
H1389 H 0.50232 0.64499 0.34716 0.0
H1390 H 0.56318 0.65325 0.33508 0.0
H1391 H 0.55965 0.67617 0.25213 0.0
H1392 H 0.55577 0.61926 0.32973 0.0
H1393 H 0.5354 0.66315 0.46399 0.0
H1394 H 0.51565 0.6874 0.50474 0.0
H1395 H 0.46697 0.65355 0.52877 0.0
H1396 H 0.48635 0.62915 0.4874 0.0
H1397 H 0.5618 0.55259 0.58088 0.0
H1398 H 0.56458 0.58037 0.51692 0.0
H1399 H 0.50425 0.57954 0.49145 0.0
H1400 H 0.50133 0.55195 0.55465 0.0
H1401 H 0.51576 0.61174 0.52512 0.0
H1402 H 0.53611 0.56919 0.37831 0.0
H1403 H 0.55642 0.54509 0.33899 0.0
H1404 H 0.60612 0.57713 0.34144 0.0
H1405 H 0.58612 0.60135 0.38158 0.0
C1406 C 0.51284 0.6652 0.28113 0.0
C1407 C 0.52891 0.6739 0.25233 0.0
C1408 C 0.51488 0.65206 0.32808 0.0
C1409 C 0.53303 0.64737 0.34757 0.0
C1410 C 0.54903 0.65664 0.3209 0.0
C1411 C 0.54698 0.66986 0.27394 0.0
C1412 C 0.5353 0.63175 0.39144 0.0
C1413 C 0.54734 0.6178 0.37315 0.0
C1414 C 0.52413 0.62966 0.44774 0.0
C1415 C 0.51232 0.64435 0.47214 0.0
C1416 C 0.52044 0.66091 0.47745 0.0
C1417 C 0.50932 0.67468 0.50079 0.0
C1418 C 0.49006 0.67202 0.51923 0.0
C1419 C 0.48189 0.65559 0.51444 0.0
C1420 C 0.49295 0.64178 0.49114 0.0
C1421 C 0.54917 0.55823 0.56108 0.0
C1422 C 0.53135 0.55001 0.57294 0.0
C1423 C 0.55078 0.57412 0.52462 0.0
C1424 C 0.5346 0.58206 0.49956 0.0
C1425 C 0.5169 0.57372 0.5106 0.0
C1426 C 0.5153 0.55786 0.54654 0.0
C1427 C 0.5358 0.5992 0.46252 0.0
C1428 C 0.52441 0.61338 0.48218 0.0
C1429 C 0.54764 0.60154 0.40774 0.0
C1430 C 0.55966 0.58699 0.38367 0.0
C1431 C 0.5514 0.57103 0.37101 0.0
C1432 C 0.56285 0.55737 0.34846 0.0
C1433 C 0.58256 0.55956 0.33792 0.0
C1434 C 0.59086 0.57544 0.34975 0.0
C1435 C 0.57947 0.58914 0.37238 0.0
H1436 H 0.5914 0.54897 0.32043 0.0
H1437 H 0.48148 0.68269 0.53732 0.0
H1438 H 0.84386 0.49148 0.33676 0.0
H1439 H 0.86919 0.49202 0.40744 0.0
H1440 H 0.85953 0.54784 0.42191 0.0
H1441 H 0.83418 0.54733 0.35053 0.0
H1442 H 0.89638 0.54052 0.38896 0.0
H1443 H 0.85096 0.51926 0.54653 0.0
H1444 H 0.82542 0.5003 0.59628 0.0
H1445 H 0.86257 0.45499 0.58483 0.0
H1446 H 0.88827 0.47364 0.53419 0.0
H1447 H 0.97029 0.54256 0.59843 0.0
H1448 H 0.9399 0.54535 0.55022 0.0
H1449 H 0.94216 0.48988 0.51968 0.0
H1450 H 0.97244 0.48692 0.56809 0.0
H1451 H 0.90736 0.4997 0.56969 0.0
H1452 H 0.9513 0.52054 0.40254 0.0
H1453 H 0.97681 0.53938 0.35181 0.0
H1454 H 0.94208 0.5855 0.38136 0.0
H1455 H 0.91645 0.56693 0.43303 0.0
C1456 C 0.84674 0.50374 0.35661 0.0
C1457 C 0.83706 0.51935 0.33835 0.0
C1458 C 0.86121 0.50405 0.39703 0.0
C1459 C 0.8663 0.51998 0.42002 0.0
C1460 C 0.85584 0.5354 0.40475 0.0
C1461 C 0.84124 0.53507 0.36453 0.0
C1462 C 0.88383 0.52073 0.45399 0.0
C1463 C 0.89861 0.53188 0.42937 0.0
C1464 C 0.88694 0.50915 0.50576 0.0
C1465 C 0.87151 0.49785 0.53611 0.0
C1466 C 0.85364 0.50523 0.55414 0.0
C1467 C 0.83914 0.49454 0.58261 0.0
C1468 C 0.84236 0.47645 0.5936 0.0
C1469 C 0.8601 0.46901 0.57625 0.0
C1470 C 0.87465 0.47964 0.54774 0.0
C1471 C 0.96445 0.53099 0.58077 0.0
C1472 C 0.97384 0.51452 0.58706 0.0
C1473 C 0.94705 0.53261 0.55327 0.0
C1474 C 0.93874 0.51782 0.53135 0.0
C1475 C 0.94826 0.50145 0.53654 0.0
C1476 C 0.96565 0.49982 0.56386 0.0
C1477 C 0.91995 0.51926 0.504 0.0
C1478 C 0.90499 0.50851 0.52983 0.0
C1479 C 0.91666 0.53119 0.45332 0.0
C1480 C 0.93205 0.54236 0.42229 0.0
C1481 C 0.94917 0.53471 0.39871 0.0
C1482 C 0.96364 0.54534 0.36968 0.0
C1483 C 0.96109 0.56363 0.36354 0.0
C1484 C 0.94405 0.57133 0.38626 0.0
C1485 C 0.92954 0.56076 0.41539 0.0
H1486 H 0.97231 0.57183 0.34104 0.0
H1487 H 0.83111 0.4682 0.61566 0.0
loop_
_geom_bond_atom_site_label_1
_geom_bond_atom_site_label_2
_geom_bond_distance
_geom_bond_site_symmetry_2
_ccdc_geom_bond_type
H0 C1 0.949 . S
C1 H0 0.949 . S
C1 C2 1.395 . S
C1 C3 1.391 . S
C2 C1 1.395 . S
C2 C5 1.390 . S
C3 C1 1.391 . S
C3 C7 1.387 . S
C3 C8 1.491 . S
H4 C5 0.950 . S
C5 C2 1.390 . S
C5 H4 0.950 . S
C5 C6 1.378 . S
C6 C5 1.378 . S
C6 C7 1.409 . S
C7 C3 1.387 . S
C7 C6 1.409 . S
C7 H9 0.951 . S
C8 C3 1.491 . S
C8 C10 1.382 . S
C8 C12 1.404 . S
H9 C7 0.951 . S
C10 C8 1.382 . S
C10 C11 1.390 . S
C10 H15 0.949 . S
C11 C10 1.390 . S
C11 C16 1.399 . S
C12 C8 1.404 . S
C12 H13 0.950 . S
C12 C14 1.375 . S
H13 C12 0.950 . S
C14 C12 1.375 . S
C14 C16 1.382 . S
C14 H18 0.950 . S
H15 C10 0.949 . S
C16 C11 1.399 . S
C16 C14 1.382 . S
C16 H17 0.952 . S
H17 C16 0.952 . S
H18 C14 0.950 . S
H19 C20 0.949 . S
C20 H19 0.949 . S
C20 C21 1.395 . S
C20 C22 1.391 1_556 S
C21 C20 1.395 . S
C21 C24 1.390 1_556 S
C22 C20 1.391 1_554 S
C22 C26 1.387 . S
C22 C27 1.491 . S
H23 C24 0.950 . S
C24 C21 1.390 1_554 S
C24 H23 0.950 . S
C24 C25 1.378 . S
C25 C24 1.378 . S
C25 C26 1.409 . S
C26 C22 1.387 . S
C26 C25 1.409 . S
C26 H28 0.951 . S
C27 C22 1.491 . S
C27 C29 1.382 1_554 S
C27 C31 1.404 . S
H28 C26 0.951 . S
C29 C27 1.382 1_556 S
C29 C30 1.390 . S
C29 H34 0.949 . S
C30 C29 1.390 . S
C30 C35 1.399 1_556 S
C31 C27 1.404 . S
C31 H32 0.950 . S
C31 C33 1.375 . S
H32 C31 0.950 . S
C33 C31 1.375 . S
C33 C35 1.382 . S
C33 H37 0.950 . S
H34 C29 0.949 . S
C35 C30 1.399 1_554 S
C35 C33 1.382 . S
C35 H36 0.952 . S
H36 C35 0.952 . S
H37 C33 0.950 . S
H38 C39 0.949 1_556 S
C39 H38 0.949 1_554 S
C39 C40 1.395 . S
C39 C41 1.391 . S
C40 C39 1.395 . S
C40 C43 1.390 . S
C41 C39 1.391 . S
C41 C45 1.387 . S
C41 C46 1.491 . S
H42 C43 0.958 . S
C43 C40 1.390 . S
C43 H42 0.958 . S
C43 C44 1.378 . S
C44 C43 1.378 . S
C44 C45 1.409 . S
C45 C41 1.387 . S
C45 C44 1.409 . S
C45 H47 0.951 . S
C46 C41 1.491 . S
C46 C48 1.382 . S
C46 C50 1.404 . S
H47 C45 0.951 . S
C48 C46 1.382 . S
C48 C49 1.390 . S
C48 H53 0.949 1_565 S
C49 C48 1.390 . S
C49 C54 1.399 . S
C50 C46 1.404 . S
C50 H51 0.950 . S
C50 C52 1.375 . S
H51 C50 0.950 . S
C52 C50 1.375 . S
C52 C54 1.382 . S
C52 H56 0.950 . S
H53 C48 0.949 1_545 S
C54 C49 1.399 . S
C54 C52 1.382 . S
C54 H55 0.952 . S
H55 C54 0.952 . S
H56 C52 0.950 . S
H57 C58 0.949 1_556 S
C58 H57 0.949 1_554 S
C58 C59 1.395 . S
C58 C60 1.391 . S
C59 C58 1.395 . S
C59 C62 1.390 . S
C60 C58 1.391 . S
C60 C64 1.387 . S
C60 C65 1.491 . S
H61 C62 0.950 . S
C62 C59 1.390 . S
C62 H61 0.950 . S
C62 C63 1.378 . S
C63 C62 1.378 . S
C63 C64 1.409 . S
C64 C60 1.387 . S
C64 C63 1.409 . S
C64 H66 0.951 . S
C65 C60 1.491 . S
C65 C67 1.382 . S
C65 C69 1.404 . S
H66 C64 0.951 . S
C67 C65 1.382 . S
C67 C68 1.390 . S
C67 H72 0.949 . S
C68 C67 1.390 . S
C68 C73 1.399 . S
C69 C65 1.404 . S
C69 H70 0.950 . S
C69 C71 1.375 . S
H70 C69 0.950 . S
C71 C69 1.375 . S
C71 C73 1.382 . S
C71 H75 0.950 . S
H72 C67 0.949 . S
C73 C68 1.399 . S
C73 C71 1.382 . S
C73 H74 0.952 . S
H74 C73 0.952 . S
H75 C71 0.950 . S
H76 C77 0.949 . S
C77 H76 0.949 . S
C77 C78 1.395 . S
C77 C79 1.391 . S
C78 C77 1.395 . S
C78 C81 1.390 . S
C79 C77 1.391 . S
C79 C83 1.387 . S
C79 C84 1.491 . S
H80 C81 0.950 . S
C81 C78 1.390 . S
C81 H80 0.950 . S
C81 C82 1.378 . S
C82 C81 1.378 . S
C82 C83 1.409 . S
C83 C79 1.387 . S
C83 C82 1.409 . S
C83 H85 0.951 . S
C84 C79 1.491 . S
C84 C86 1.382 . S
C84 C88 1.404 . S
H85 C83 0.951 . S
C86 C84 1.382 . S
C86 C87 1.390 . S
C86 H91 0.949 . S
C87 C86 1.390 . S
C87 C92 1.399 . S
C88 C84 1.404 . S
C88 H89 0.950 . S
C88 C90 1.375 . S
H89 C88 0.950 . S
C90 C88 1.375 . S
C90 C92 1.382 . S
C90 H94 0.950 . S
H91 C86 0.949 . S
C92 C87 1.399 . S
C92 C90 1.382 . S
C92 H93 0.952 . S
H93 C92 0.952 . S
H94 C90 0.950 . S
H95 C96 0.949 . S
C96 H95 0.949 . S
C96 C97 1.395 . S
C96 C98 1.391 . S
C97 C96 1.395 . S
C97 C100 1.390 . S
C98 C96 1.391 . S
C98 C102 1.387 . S
C98 C103 1.491 . S
H99 C100 0.950 . S
C100 C97 1.390 . S
C100 H99 0.950 . S
C100 C101 1.378 . S
C101 C100 1.378 . S
C101 C102 1.409 . S
C102 C98 1.387 . S
C102 C101 1.409 . S
C102 H104 0.951 . S
C103 C98 1.491 . S
C103 C105 1.382 . S
C103 C107 1.404 . S
H104 C102 0.951 . S
C105 C103 1.382 . S
C105 C106 1.390 . S
C105 H110 0.949 . S
C106 C105 1.390 . S
C106 C111 1.399 . S
C107 C103 1.404 . S
C107 H108 0.950 . S
C107 C109 1.375 . S
H108 C107 0.950 . S
C109 C107 1.375 . S
C109 C111 1.382 . S
C109 H113 0.950 . S
H110 C105 0.949 . S
C111 C106 1.399 . S
C111 C109 1.382 . S
C111 H112 0.952 . S
H112 C111 0.952 . S
H113 C109 0.950 . S
H114 C115 0.949 . S
C115 H114 0.949 . S
C115 C116 1.395 . S
C115 C117 1.391 . S
C116 C115 1.395 . S
C116 C119 1.390 . S
C117 C115 1.391 . S
C117 C121 1.387 . S
C117 C122 1.491 . S
H118 C119 0.950 . S
C119 C116 1.390 . S
C119 H118 0.950 . S
C119 C120 1.378 . S
C120 C119 1.378 . S
C120 C121 1.409 . S
C121 C117 1.387 . S
C121 C120 1.409 . S
C121 H123 0.951 . S
C122 C117 1.491 . S
C122 C124 1.382 . S
C122 C126 1.404 1_545 S
H123 C121 0.951 . S
C124 C122 1.382 . S
C124 C125 1.390 . S
C124 H129 0.949 . S
C125 C124 1.390 . S
C125 C130 1.399 1_545 S
C126 C122 1.404 1_565 S
C126 H127 0.950 . S
C126 C128 1.375 . S
H127 C126 0.950 . S
C128 C126 1.375 . S
C128 C130 1.382 . S
C128 H132 0.950 . S
H129 C124 0.949 . S
C130 C125 1.399 1_565 S
C130 C128 1.382 . S
C130 H131 0.952 . S
H131 C130 0.952 . S
H132 C128 0.950 . S
H133 C134 0.949 . S
C134 H133 0.949 . S
C134 C135 1.395 . S
C134 C136 1.391 . S
C135 C134 1.395 . S
C135 C138 1.390 . S
C136 C134 1.391 . S
C136 C140 1.387 . S
C136 C141 1.491 . S
H137 C138 0.950 . S
C138 C135 1.390 . S
C138 H137 0.950 . S
C138 C139 1.378 . S
C139 C138 1.378 . S
C139 C140 1.409 . S
C140 C136 1.387 . S
C140 C139 1.409 . S
C140 H142 0.951 . S
C141 C136 1.491 . S
C141 C143 1.382 . S
C141 C145 1.404 . S
H142 C140 0.951 . S
C143 C141 1.382 . S
C143 C144 1.390 . S
C143 H148 0.949 . S
C144 C143 1.390 . S
C144 C149 1.399 . S
C145 C141 1.404 . S
C145 H146 0.950 . S
C145 C147 1.375 . S
H146 C145 0.950 . S
C147 C145 1.375 . S
C147 C149 1.382 . S
C147 H151 0.950 . S
H148 C143 0.949 . S
C149 C144 1.399 . S
C149 C147 1.382 . S
C149 H150 0.952 . S
H150 C149 0.952 . S
H151 C147 0.950 . S
C152 O168 1.251 . S
C152 O170 1.254 . S
N153 C154 1.333 . S
N153 C158 1.307 1_455 S
N153 Zn159 2.020 . S
C154 N153 1.333 . S
C154 C155 1.379 . S
C154 H172 0.952 . S
C155 C154 1.379 . S
C155 C156 1.390 . S
C155 H182 0.949 . S
C156 C155 1.390 . S
C156 C157 1.357 1_455 S
C157 C156 1.357 1_655 S
C157 C158 1.370 . S
C157 H183 0.950 . S
C158 N153 1.307 1_655 S
C158 C157 1.370 . S
C158 H176 0.948 . S
Zn159 N153 2.020 . S
Zn159 O168 2.039 . S
Zn159 O174 2.034 . S
Zn159 O178 2.025 1_565 S
Zn159 O180 2.024 1_455 S
C160 O179 1.246 . S
C160 O180 1.249 1_545 S
N161 C162 1.307 . S
N161 C163 1.333 . S
N161 Zn167 2.020 . S
C162 N161 1.307 . S
C162 C166 1.370 . S
C162 H173 0.948 . S
C163 N161 1.333 . S
C163 C164 1.379 . S
C163 H171 0.952 . S
C164 C163 1.379 . S
C164 C165 1.390 . S
C164 H184 0.949 . S
C165 C164 1.390 . S
C165 C166 1.357 . S
C166 C162 1.370 . S
C166 C165 1.357 . S
C166 H185 0.950 . S
Zn167 N161 2.020 . S
Zn167 O170 2.025 1_545 S
Zn167 O175 2.024 . S
Zn167 O177 2.039 . S
Zn167 O179 2.034 1_455 S
O168 C152 1.251 . S
O168 Zn159 2.039 . S
C169 O174 1.246 1_545 S
C169 O175 1.249 . S
O170 C152 1.254 . S
O170 Zn167 2.025 1_565 S
H171 C163 0.952 . S
H172 C154 0.952 . S
H173 C162 0.948 . S
O174 Zn159 2.034 . S
O174 C169 1.246 1_565 S
O175 Zn167 2.024 . S
O175 C169 1.249 . S
H176 C158 0.948 . S
O177 Zn167 2.039 . S
O177 C181 1.251 . S
O178 Zn159 2.025 1_545 S
O178 C181 1.254 . S
O179 C160 1.246 . S
O179 Zn167 2.034 1_655 S
O180 Zn159 2.024 1_655 S
O180 C160 1.249 1_565 S
C181 O177 1.251 . S
C181 O178 1.254 . S
H182 C155 0.949 . S
H183 C157 0.950 . S
H184 C164 0.949 . S
H185 C166 0.950 . S
C186 O202 1.251 . S
C186 O204 1.254 1_545 S
N187 C188 1.333 . S
N187 C192 1.307 . S
N187 Zn193 2.020 . S
C188 N187 1.333 . S
C188 C189 1.379 . S
C188 H206 0.952 . S
C189 C188 1.379 . S
C189 C190 1.390 . S
C189 H216 0.949 . S
C190 C189 1.390 . S
C190 C191 1.357 . S
C191 C190 1.357 . S
C191 C192 1.370 . S
C191 H217 0.950 . S
C192 N187 1.307 . S
C192 C191 1.370 . S
C192 H210 0.948 . S
Zn193 N187 2.020 . S
Zn193 O202 2.039 . S
Zn193 O208 2.034 . S
Zn193 O212 2.025 . S
Zn193 O214 2.024 . S
C194 O213 1.246 1_545 S
C194 O214 1.249 . S
N195 C196 1.307 . S
N195 C197 1.333 . S
N195 Zn201 2.020 . S
C196 N195 1.307 . S
C196 C200 1.370 . S
C196 H207 0.948 . S
C197 N195 1.333 . S
C197 C198 1.379 . S
C197 H205 0.952 . S
C198 C197 1.379 . S
C198 C199 1.390 . S
C198 H218 0.949 . S
C199 C198 1.390 . S
C199 C200 1.357 . S
C200 C196 1.370 . S
C200 C199 1.357 . S
C200 H219 0.950 . S
Zn201 N195 2.020 . S
Zn201 O204 2.025 . S
Zn201 O209 2.024 . S
Zn201 O211 2.039 . S
Zn201 O213 2.034 . S
O202 C186 1.251 . S
O202 Zn193 2.039 . S
C203 O208 1.270 . S
C203 O209 1.227 1_545 S
O204 C186 1.254 1_565 S
O204 Zn201 2.025 . S
H205 C197 0.952 . S
H206 C188 0.952 . S
H207 C196 0.948 . S
O208 Zn193 2.034 . S
O208 C203 1.270 . S
O209 Zn201 2.024 . S
O209 C203 1.227 1_565 S
H210 C192 0.948 . S
O211 Zn201 2.039 . S
O211 C215 1.251 1_565 S
O212 Zn193 2.025 . S
O212 C215 1.254 . S
O213 C194 1.246 1_565 S
O213 Zn201 2.034 . S
O214 Zn193 2.024 . S
O214 C194 1.249 . S
C215 O211 1.251 1_545 S
C215 O212 1.254 . S
H216 C189 0.949 . S
H217 C191 0.950 . S
H218 C198 0.949 . S
H219 C200 0.950 . S
C220 O236 1.251 . S
C220 O238 1.254 . S
N221 C222 1.333 . S
N221 C226 1.307 . S
N221 Zn227 2.020 . S
C222 N221 1.333 . S
C222 C223 1.379 . S
C222 H240 0.952 . S
C223 C222 1.379 . S
C223 C224 1.390 . S
C223 H250 0.949 . S
C224 C223 1.390 . S
C224 C225 1.357 . S
C225 C224 1.357 . S
C225 C226 1.370 . S
C225 H251 0.950 . S
C226 N221 1.307 . S
C226 C225 1.370 . S
C226 H244 0.948 . S
Zn227 N221 2.020 . S
Zn227 O236 2.039 . S
Zn227 O242 2.034 . S
Zn227 O246 2.025 . S
Zn227 O248 2.024 . S
C228 O247 1.246 . S
C228 O248 1.249 . S
N229 C230 1.307 . S
N229 C231 1.333 . S
N229 Zn235 2.020 . S
C230 N229 1.307 . S
C230 C234 1.370 . S
C230 H241 0.948 . S
C231 N229 1.333 . S
C231 C232 1.379 . S
C231 H239 0.952 . S
C232 C231 1.379 . S
C232 C233 1.390 . S
C232 H252 0.949 . S
C233 C232 1.390 . S
C233 C234 1.357 . S
C234 C230 1.370 . S
C234 C233 1.357 . S
C234 H253 0.950 . S
Zn235 N229 2.020 . S
Zn235 O238 2.025 . S
Zn235 O243 2.024 . S
Zn235 O245 2.039 . S
Zn235 O247 2.034 . S
O236 C220 1.251 . S
O236 Zn227 2.039 . S
C237 O242 1.246 . S
C237 O243 1.249 . S
O238 C220 1.254 . S
O238 Zn235 2.025 . S
H239 C231 0.952 . S
H240 C222 0.952 . S
H241 C230 0.948 . S
O242 Zn227 2.034 . S
O242 C237 1.246 . S
O243 Zn235 2.024 . S
O243 C237 1.249 . S
H244 C226 0.948 . S
O245 Zn235 2.039 . S
O245 C249 1.251 . S
O246 Zn227 2.025 . S
O246 C249 1.254 . S
O247 C228 1.246 . S
O247 Zn235 2.034 . S
O248 Zn227 2.024 . S
O248 C228 1.249 . S
C249 O245 1.251 . S
C249 O246 1.254 . S
H250 C223 0.949 . S
H251 C225 0.950 . S
H252 C232 0.949 . S
H253 C234 0.950 . S
C254 O270 1.251 . S
C254 O272 1.254 . S
N255 C256 1.333 . S
N255 C260 1.307 . S
N255 Zn261 2.020 . S
C256 N255 1.333 . S
C256 C257 1.379 . S
C256 H274 0.952 . S
C257 C256 1.379 . S
C257 C258 1.390 . S
C257 H284 0.949 . S
C258 C257 1.390 . S
C258 C259 1.357 . S
C259 C258 1.357 . S
C259 C260 1.370 . S
C259 H285 0.950 . S
C260 N255 1.307 . S
C260 C259 1.370 . S
C260 H278 0.948 . S
Zn261 N255 2.020 . S
Zn261 O270 2.039 . S
Zn261 O276 2.034 1_455 S
Zn261 O280 2.025 1_455 S
Zn261 O282 2.024 . S
C262 O281 1.246 . S
C262 O282 1.249 . S
N263 C264 1.307 . S
N263 C265 1.333 . S
N263 Zn269 2.020 . S
C264 N263 1.307 . S
C264 C268 1.370 . S
C264 H275 0.948 . S
C265 N263 1.333 . S
C265 C266 1.379 . S
C265 H273 0.972 . S
C266 C265 1.379 . S
C266 C267 1.390 . S
C266 H286 0.935 1_455 S
C267 C266 1.390 . S
C267 C268 1.357 . S
C268 C264 1.370 . S
C268 C267 1.357 . S
C268 H287 0.950 . S
Zn269 N263 2.020 . S
Zn269 O272 2.025 . S
Zn269 O277 2.024 1_455 S
Zn269 O279 2.039 1_455 S
Zn269 O281 2.034 . S
O270 C254 1.251 . S
O270 Zn261 2.039 . S
C271 O276 1.246 . S
C271 O277 1.249 . S
O272 C254 1.254 . S
O272 Zn269 2.025 . S
H273 C265 0.972 . S
H274 C256 0.952 . S
H275 C264 0.948 . S
O276 Zn261 2.034 1_655 S
O276 C271 1.246 . S
O277 Zn269 2.024 1_655 S
O277 C271 1.249 . S
H278 C260 0.948 . S
O279 Zn269 2.039 1_655 S
O279 C283 1.251 . S
O280 Zn261 2.025 1_655 S
O280 C283 1.254 . S
O281 C262 1.246 . S
O281 Zn269 2.034 . S
O282 Zn261 2.024 . S
O282 C262 1.249 . S
C283 O279 1.251 . S
C283 O280 1.254 . S
H284 C257 0.949 . S
H285 C259 0.950 . S
H286 C266 0.935 1_655 S
H287 C268 0.950 . S
H288 C306 0.951 . S
H289 C308 0.951 . S
H290 C310 0.950 . S
H291 C311 0.950 . S
H292 C313 0.950 . S
H293 C316 0.950 . S
H294 C317 0.950 . S
H295 C319 0.950 . S
H296 C320 0.950 . S
H297 C321 0.951 . S
H298 C323 0.951 . S
H299 C325 0.950 . S
H300 C326 0.950 . S
H301 C328 0.950 . S
H302 C331 0.950 . S
H303 C332 0.950 . S
H304 C334 0.950 . S
H305 C335 0.950 . S
C306 H288 0.951 . S
C306 C307 1.366 1_565 S
C306 C308 1.388 . S
C307 C306 1.366 1_545 S
C307 C311 1.385 . S
C308 H289 0.951 . S
C308 C306 1.388 . S
C308 C309 1.366 1_565 S
C309 C308 1.366 1_545 S
C309 C310 1.414 . S
C309 C312 1.499 . S
C310 H290 0.950 . S
C310 C309 1.414 . S
C310 C311 1.374 . S
C311 H291 0.950 . S
C311 C307 1.385 . S
C311 C310 1.374 . S
C312 C309 1.499 . S
C312 C313 1.373 . S
C312 C314 1.389 1_545 S
C313 H292 0.950 . S
C313 C312 1.373 . S
C313 C329 1.377 . S
C314 C312 1.389 1_565 S
C314 C315 1.524 . S
C314 C328 1.377 . S
C315 C314 1.524 . S
C315 C316 1.397 . S
C315 C320 1.363 . S
C316 H293 0.950 . S
C316 C315 1.397 . S
C316 C317 1.334 . S
C317 H294 0.950 . S
C317 C316 1.334 . S
C317 C318 1.287 . S
C318 C317 1.287 . S
C318 C319 1.524 . S
C318 H337 0.913 . S
C319 H295 0.950 . S
C319 C318 1.524 . S
C319 C320 1.415 . S
C320 H296 0.950 . S
C320 C315 1.363 . S
C320 C319 1.415 . S
C321 H297 0.951 . S
C321 C322 1.366 . S
C321 C323 1.388 . S
C322 C321 1.366 . S
C322 C326 1.385 1_545 S
C323 H298 0.951 . S
C323 C321 1.388 . S
C323 C324 1.366 . S
C324 C323 1.366 . S
C324 C325 1.414 1_545 S
C324 C327 1.499 . S
C325 H299 0.950 . S
C325 C324 1.414 1_565 S
C325 C326 1.374 . S
C326 H300 0.950 . S
C326 C322 1.385 1_565 S
C326 C325 1.374 . S
C327 C324 1.499 . S
C327 C328 1.373 1_545 S
C327 C329 1.389 . S
C328 H301 0.950 . S
C328 C314 1.377 . S
C328 C327 1.373 1_565 S
C329 C313 1.377 . S
C329 C327 1.389 . S
C329 C330 1.524 . S
C330 C329 1.524 . S
C330 C331 1.397 . S
C330 C335 1.363 . S
C331 H302 0.950 . S
C331 C330 1.397 . S
C331 C332 1.334 . S
C332 H303 0.950 . S
C332 C331 1.334 . S
C332 C333 1.287 . S
C333 C332 1.287 . S
C333 C334 1.524 . S
C333 H336 0.999 . S
C334 H304 0.950 . S
C334 C333 1.524 . S
C334 C335 1.415 . S
C335 H305 0.950 . S
C335 C330 1.363 . S
C335 C334 1.415 . S
H336 C333 0.999 . S
H337 C318 0.913 . S
H338 C356 0.951 . S
H339 C358 0.951 . S
H340 C360 0.950 . S
H341 C361 0.950 . S
H342 C363 0.950 . S
H343 C366 0.950 . S
H344 C367 0.950 . S
H345 C369 0.950 . S
H346 C370 0.950 . S
H347 C371 0.951 . S
H348 C373 0.951 . S
H349 C375 0.950 . S
H350 C376 0.950 . S
H351 C378 0.950 . S
H352 C381 0.950 . S
H353 C382 0.950 . S
H354 C384 0.950 . S
H355 C385 0.950 . S
C356 H338 0.951 . S
C356 C357 1.366 . S
C356 C358 1.388 . S
C357 C356 1.366 . S
C357 C361 1.385 . S
C358 H339 0.951 . S
C358 C356 1.388 . S
C358 C359 1.366 . S
C359 C358 1.366 . S
C359 C360 1.414 . S
C359 C362 1.499 . S
C360 H340 0.950 . S
C360 C359 1.414 . S
C360 C361 1.374 . S
C361 H341 0.950 . S
C361 C357 1.385 . S
C361 C360 1.374 . S
C362 C359 1.499 . S
C362 C363 1.373 . S
C362 C364 1.389 . S
C363 H342 0.950 . S
C363 C362 1.373 . S
C363 C379 1.377 . S
C364 C362 1.389 . S
C364 C365 1.524 . S
C364 C378 1.377 . S
C365 C364 1.524 . S
C365 C366 1.397 . S
C365 C370 1.363 . S
C366 H343 0.950 . S
C366 C365 1.397 . S
C366 C367 1.334 . S
C367 H344 0.950 . S
C367 C366 1.334 . S
C367 C368 1.287 . S
C368 C367 1.287 . S
C368 C369 1.524 . S
C368 H387 0.913 . S
C369 H345 0.950 . S
C369 C368 1.524 . S
C369 C370 1.415 . S
C370 H346 0.950 . S
C370 C365 1.363 . S
C370 C369 1.415 . S
C371 H347 0.951 . S
C371 C372 1.366 . S
C371 C373 1.388 . S
C372 C371 1.366 . S
C372 C376 1.385 . S
C373 H348 0.951 . S
C373 C371 1.388 . S
C373 C374 1.366 . S
C374 C373 1.366 . S
C374 C375 1.414 . S
C374 C377 1.499 . S
C375 H349 0.950 . S
C375 C374 1.414 . S
C375 C376 1.374 . S
C376 H350 0.950 . S
C376 C372 1.385 . S
C376 C375 1.374 . S
C377 C374 1.499 . S
C377 C378 1.373 . S
C377 C379 1.389 . S
C378 H351 0.950 . S
C378 C364 1.377 . S
C378 C377 1.373 . S
C379 C363 1.377 . S
C379 C377 1.389 . S
C379 C380 1.524 . S
C380 C379 1.524 . S
C380 C381 1.397 . S
C380 C385 1.363 . S
C381 H352 0.950 . S
C381 C380 1.397 . S
C381 C382 1.334 . S
C382 H353 0.950 . S
C382 C381 1.334 . S
C382 C383 1.287 . S
C383 C382 1.287 . S
C383 C384 1.524 . S
C383 H386 0.999 . S
C384 H354 0.950 . S
C384 C383 1.524 . S
C384 C385 1.415 . S
C385 H355 0.950 . S
C385 C380 1.363 . S
C385 C384 1.415 . S
H386 C383 0.999 . S
H387 C368 0.913 . S
H388 C406 0.951 . S
H389 C408 0.951 . S
H390 C410 0.950 . S
H391 C411 0.950 . S
H392 C413 0.950 . S
H393 C416 0.950 . S
H394 C417 0.950 . S
H395 C419 0.950 . S
H396 C420 0.950 . S
H397 C421 0.951 . S
H398 C423 0.951 . S
H399 C425 0.950 . S
H400 C426 0.950 . S
H401 C428 0.950 . S
H402 C431 0.950 . S
H403 C432 0.950 . S
H404 C434 0.950 . S
H405 C435 0.950 . S
C406 H388 0.951 . S
C406 C407 1.366 . S
C406 C408 1.388 . S
C407 C406 1.366 . S
C407 C411 1.385 . S
C408 H389 0.951 . S
C408 C406 1.388 . S
C408 C409 1.366 . S
C409 C408 1.366 . S
C409 C410 1.414 . S
C409 C412 1.499 . S
C410 H390 0.950 . S
C410 C409 1.414 . S
C410 C411 1.374 . S
C411 H391 0.950 . S
C411 C407 1.385 . S
C411 C410 1.374 . S
C412 C409 1.499 . S
C412 C413 1.373 . S
C412 C414 1.389 . S
C413 H392 0.950 . S
C413 C412 1.373 . S
C413 C429 1.377 . S
C414 C412 1.389 . S
C414 C415 1.524 . S
C414 C428 1.377 . S
C415 C414 1.524 . S
C415 C416 1.397 . S
C415 C420 1.363 . S
C416 H393 0.950 . S
C416 C415 1.397 . S
C416 C417 1.334 . S
C417 H394 0.950 . S
C417 C416 1.334 . S
C417 C418 1.287 . S
C418 C417 1.287 . S
C418 C419 1.524 . S
C418 H437 0.913 . S
C419 H395 0.950 . S
C419 C418 1.524 . S
C419 C420 1.415 . S
C420 H396 0.950 . S
C420 C415 1.363 . S
C420 C419 1.415 . S
C421 H397 0.951 . S
C421 C422 1.366 . S
C421 C423 1.388 . S
C422 C421 1.366 . S
C422 C426 1.385 . S
C423 H398 0.951 . S
C423 C421 1.388 . S
C423 C424 1.366 . S
C424 C423 1.366 . S
C424 C425 1.414 . S
C424 C427 1.499 . S
C425 H399 0.950 . S
C425 C424 1.414 . S
C425 C426 1.374 . S
C426 H400 0.950 . S
C426 C422 1.385 . S
C426 C425 1.374 . S
C427 C424 1.499 . S
C427 C428 1.373 . S
C427 C429 1.389 . S
C428 H401 0.950 . S
C428 C414 1.377 . S
C428 C427 1.373 . S
C429 C413 1.377 . S
C429 C427 1.389 . S
C429 C430 1.524 . S
C430 C429 1.524 . S
C430 C431 1.397 . S
C430 C435 1.363 . S
C431 H402 0.950 . S
C431 C430 1.397 . S
C431 C432 1.334 . S
C432 H403 0.950 . S
C432 C431 1.334 . S
C432 C433 1.287 . S
C433 C432 1.287 . S
C433 C434 1.524 . S
C433 H436 0.999 . S
C434 H404 0.950 . S
C434 C433 1.524 . S
C434 C435 1.415 . S
C435 H405 0.950 . S
C435 C430 1.363 . S
C435 C434 1.415 . S
H436 C433 0.999 . S
H437 C418 0.913 . S
H438 C456 0.951 . S
H439 C458 0.951 . S
H440 C460 0.950 . S
H441 C461 0.950 . S
H442 C463 0.950 . S
H443 C466 0.950 . S
H444 C467 0.950 . S
H445 C469 0.950 . S
H446 C470 0.950 . S
H447 C471 0.951 1_655 S
H448 C473 0.951 1_655 S
H449 C475 0.950 . S
H450 C476 0.950 . S
H451 C478 0.950 . S
H452 C481 0.950 . S
H453 C482 0.950 . S
H454 C484 0.950 . S
H455 C485 0.950 . S
C456 H438 0.951 . S
C456 C457 1.366 . S
C456 C458 1.388 . S
C457 C456 1.366 . S
C457 C461 1.385 . S
C458 H439 0.951 . S
C458 C456 1.388 . S
C458 C459 1.366 . S
C459 C458 1.366 . S
C459 C460 1.414 . S
C459 C462 1.499 . S
C460 H440 0.950 . S
C460 C459 1.414 . S
C460 C461 1.374 . S
C461 H441 0.950 . S
C461 C457 1.385 . S
C461 C460 1.374 . S
C462 C459 1.499 . S
C462 C463 1.373 . S
C462 C464 1.389 . S
C463 H442 0.950 . S
C463 C462 1.373 . S
C463 C479 1.377 . S
C464 C462 1.389 . S
C464 C465 1.524 . S
C464 C478 1.377 . S
C465 C464 1.524 . S
C465 C466 1.397 . S
C465 C470 1.363 . S
C466 H443 0.950 . S
C466 C465 1.397 . S
C466 C467 1.334 . S
C467 H444 0.950 . S
C467 C466 1.334 . S
C467 C468 1.287 . S
C468 C467 1.287 . S
C468 C469 1.524 . S
C468 H487 0.913 . S
C469 H445 0.950 . S
C469 C468 1.524 . S
C469 C470 1.415 . S
C470 H446 0.950 . S
C470 C465 1.363 . S
C470 C469 1.415 . S
C471 H447 0.951 1_455 S
C471 C472 1.366 . S
C471 C473 1.388 . S
C472 C471 1.366 . S
C472 C476 1.385 . S
C473 H448 0.951 1_455 S
C473 C471 1.388 . S
C473 C474 1.366 . S
C474 C473 1.366 . S
C474 C475 1.414 . S
C474 C477 1.499 . S
C475 H449 0.950 . S
C475 C474 1.414 . S
C475 C476 1.374 . S
C476 H450 0.950 . S
C476 C472 1.385 . S
C476 C475 1.374 . S
C477 C474 1.499 . S
C477 C478 1.373 . S
C477 C479 1.389 . S
C478 H451 0.950 . S
C478 C464 1.377 . S
C478 C477 1.373 . S
C479 C463 1.377 . S
C479 C477 1.389 . S
C479 C480 1.524 . S
C480 C479 1.524 . S
C480 C481 1.397 . S
C480 C485 1.363 1_455 S
C481 H452 0.950 . S
C481 C480 1.397 . S
C481 C482 1.334 . S
C482 H453 0.950 . S
C482 C481 1.334 . S
C482 C483 1.287 . S
C483 C482 1.287 . S
C483 C484 1.524 1_455 S
C483 H486 0.999 1_455 S
C484 H454 0.950 . S
C484 C483 1.524 1_655 S
C484 C485 1.415 . S
C485 H455 0.950 . S
C485 C480 1.363 1_655 S
C485 C484 1.415 . S
H486 C483 0.999 1_655 S
H487 C468 0.913 . S
H488 C506 0.951 . S
H489 C508 0.951 . S
H490 C510 0.950 . S
H491 C511 0.950 1_554 S
H492 C513 0.950 . S
H493 C516 0.941 1_565 S
H494 C517 0.950 1_565 S
H495 C519 0.950 . S
H496 C520 0.950 . S
H497 C521 0.951 . S
H498 C523 0.951 . S
H499 C525 0.950 . S
H500 C526 0.950 . S
H501 C528 0.950 . S
H502 C531 0.950 . S
H503 C532 0.950 1_544 S
H504 C534 0.950 . S
H505 C535 0.950 . S
C506 H488 0.951 . S
C506 C507 1.366 1_545 S
C506 C508 1.388 . S
C507 C506 1.366 1_565 S
C507 C511 1.385 . S
C508 H489 0.951 . S
C508 C506 1.388 . S
C508 C509 1.366 1_545 S
C509 C508 1.366 1_565 S
C509 C510 1.414 . S
C509 C512 1.499 . S
C510 H490 0.950 . S
C510 C509 1.414 . S
C510 C511 1.374 . S
C511 H491 0.950 1_556 S
C511 C507 1.385 . S
C511 C510 1.374 . S
C512 C509 1.499 . S
C512 C513 1.373 . S
C512 C514 1.389 1_565 S
C513 H492 0.950 . S
C513 C512 1.373 . S
C513 C529 1.377 . S
C514 C512 1.389 1_545 S
C514 C515 1.524 . S
C514 C528 1.377 . S
C515 C514 1.524 . S
C515 C516 1.403 . S
C515 C520 1.363 . S
C516 H493 0.941 1_545 S
C516 C515 1.403 . S
C516 C517 1.336 . S
C517 H494 0.950 1_545 S
C517 C516 1.336 . S
C517 C518 1.287 . S
C518 C517 1.287 . S
C518 C519 1.524 . S
C518 H537 0.913 . S
C519 H495 0.950 . S
C519 C518 1.524 . S
C519 C520 1.415 . S
C520 H496 0.950 . S
C520 C515 1.363 . S
C520 C519 1.415 . S
C521 H497 0.951 . S
C521 C522 1.366 1_565 S
C521 C523 1.388 . S
C522 C521 1.366 1_545 S
C522 C526 1.385 . S
C523 H498 0.951 . S
C523 C521 1.388 . S
C523 C524 1.366 1_565 S
C524 C523 1.366 1_545 S
C524 C525 1.414 . S
C524 C527 1.499 . S
C525 H499 0.950 . S
C525 C524 1.414 . S
C525 C526 1.374 . S
C526 H500 0.950 . S
C526 C522 1.385 . S
C526 C525 1.374 . S
C527 C524 1.499 . S
C527 C528 1.373 . S
C527 C529 1.389 1_545 S
C528 H501 0.950 . S
C528 C514 1.377 . S
C528 C527 1.373 . S
C529 C513 1.377 . S
C529 C527 1.389 1_565 S
C529 C530 1.524 . S
C530 C529 1.524 . S
C530 C531 1.397 1_565 S
C530 C535 1.363 . S
C531 H502 0.950 . S
C531 C530 1.397 1_545 S
C531 C532 1.334 1_545 S
C532 H503 0.950 1_566 S
C532 C531 1.334 1_565 S
C532 C533 1.287 1_556 S
C533 C532 1.287 1_554 S
C533 C534 1.524 . S
C533 H536 0.999 . S
C534 H504 0.950 . S
C534 C533 1.524 . S
C534 C535 1.415 1_554 S
C535 H505 0.950 . S
C535 C530 1.363 . S
C535 C534 1.415 1_556 S
H536 C533 0.999 . S
H537 C518 0.913 . S
H538 C556 0.951 1_554 S
H539 C558 0.951 . S
H540 C560 0.950 . S
H541 C561 0.950 . S
H542 C563 0.950 . S
H543 C566 0.950 . S
H544 C567 0.950 . S
H545 C569 0.950 . S
H546 C570 0.950 . S
H547 C571 0.951 . S
H548 C573 0.951 . S
H549 C575 0.950 . S
H550 C576 0.950 . S
H551 C578 0.950 . S
H552 C581 0.950 . S
H553 C582 0.950 1_554 S
H554 C584 0.950 . S
H555 C585 0.950 . S
C556 H538 0.951 1_556 S
C556 C557 1.366 . S
C556 C558 1.388 . S
C557 C556 1.366 . S
C557 C561 1.385 . S
C558 H539 0.951 . S
C558 C556 1.388 . S
C558 C559 1.366 . S
C559 C558 1.366 . S
C559 C560 1.414 . S
C559 C562 1.499 . S
C560 H540 0.950 . S
C560 C559 1.414 . S
C560 C561 1.374 . S
C561 H541 0.950 . S
C561 C557 1.385 . S
C561 C560 1.374 . S
C562 C559 1.499 . S
C562 C563 1.373 . S
C562 C564 1.389 . S
C563 H542 0.950 . S
C563 C562 1.373 . S
C563 C579 1.377 . S
C564 C562 1.389 . S
C564 C565 1.524 . S
C564 C578 1.377 . S
C565 C564 1.524 . S
C565 C566 1.397 . S
C565 C570 1.363 . S
C566 H543 0.950 . S
C566 C565 1.397 . S
C566 C567 1.334 . S
C567 H544 0.950 . S
C567 C566 1.334 . S
C567 C568 1.287 . S
C568 C567 1.287 . S
C568 C569 1.524 . S
C568 H587 0.913 . S
C569 H545 0.950 . S
C569 C568 1.524 . S
C569 C570 1.415 . S
C570 H546 0.950 . S
C570 C565 1.363 . S
C570 C569 1.415 . S
C571 H547 0.951 . S
C571 C572 1.366 . S
C571 C573 1.388 . S
C572 C571 1.366 . S
C572 C576 1.385 . S
C573 H548 0.951 . S
C573 C571 1.388 . S
C573 C574 1.366 . S
C574 C573 1.366 . S
C574 C575 1.414 . S
C574 C577 1.499 . S
C575 H549 0.950 . S
C575 C574 1.414 . S
C575 C576 1.374 . S
C576 H550 0.950 . S
C576 C572 1.385 . S
C576 C575 1.374 . S
C577 C574 1.499 . S
C577 C578 1.373 . S
C577 C579 1.389 . S
C578 H551 0.950 . S
C578 C564 1.377 . S
C578 C577 1.373 . S
C579 C563 1.377 . S
C579 C577 1.389 . S
C579 C580 1.524 . S
C580 C579 1.524 . S
C580 C581 1.397 . S
C580 C585 1.363 . S
C581 H552 0.950 . S
C581 C580 1.397 . S
C581 C582 1.334 . S
C582 H553 0.950 1_556 S
C582 C581 1.334 . S
C582 C583 1.288 . S
C583 C582 1.288 . S
C583 C584 1.531 . S
C583 H586 0.991 1_556 S
C584 H554 0.950 . S
C584 C583 1.531 . S
C584 C585 1.415 . S
C585 H555 0.950 . S
C585 C580 1.363 . S
C585 C584 1.415 . S
H586 C583 0.991 1_554 S
H587 C568 0.913 . S
H588 C606 0.951 . S
H589 C608 0.956 . S
H590 C610 0.950 . S
H591 C611 0.950 . S
H592 C613 0.950 . S
H593 C616 0.950 . S
H594 C617 0.950 . S
H595 C619 0.950 . S
H596 C620 0.950 . S
H597 C621 0.951 . S
H598 C623 0.951 . S
H599 C625 0.950 . S
H600 C626 0.950 . S
H601 C628 0.950 . S
H602 C631 0.950 . S
H603 C632 0.950 . S
H604 C634 0.947 1_554 S
H605 C635 0.950 . S
C606 H588 0.951 . S
C606 C607 1.366 . S
C606 C608 1.377 1_554 S
C607 C606 1.366 . S
C607 C611 1.385 . S
C608 H589 0.956 . S
C608 C606 1.377 1_556 S
C608 C609 1.372 . S
C609 C608 1.372 . S
C609 C610 1.414 . S
C609 C612 1.499 . S
C610 H590 0.950 . S
C610 C609 1.414 . S
C610 C611 1.374 1_556 S
C611 H591 0.950 . S
C611 C607 1.385 . S
C611 C610 1.374 1_554 S
C612 C609 1.499 . S
C612 C613 1.373 . S
C612 C614 1.389 . S
C613 H592 0.950 . S
C613 C612 1.373 . S
C613 C629 1.377 . S
C614 C612 1.389 . S
C614 C615 1.524 . S
C614 C628 1.377 . S
C615 C614 1.524 . S
C615 C616 1.397 . S
C615 C620 1.363 . S
C616 H593 0.950 . S
C616 C615 1.397 . S
C616 C617 1.334 . S
C617 H594 0.950 . S
C617 C616 1.334 . S
C617 C618 1.287 . S
C618 C617 1.287 . S
C618 C619 1.524 . S
C618 H637 0.913 . S
C619 H595 0.950 . S
C619 C618 1.524 . S
C619 C620 1.415 . S
C620 H596 0.950 . S
C620 C615 1.363 . S
C620 C619 1.415 . S
C621 H597 0.951 . S
C621 C622 1.366 . S
C621 C623 1.388 . S
C622 C621 1.366 . S
C622 C626 1.385 . S
C623 H598 0.951 . S
C623 C621 1.388 . S
C623 C624 1.366 . S
C624 C623 1.366 . S
C624 C625 1.414 . S
C624 C627 1.499 . S
C625 H599 0.950 . S
C625 C624 1.414 . S
C625 C626 1.374 . S
C626 H600 0.950 . S
C626 C622 1.385 . S
C626 C625 1.374 . S
C627 C624 1.499 . S
C627 C628 1.373 . S
C627 C629 1.389 . S
C628 H601 0.950 . S
C628 C614 1.377 . S
C628 C627 1.373 . S
C629 C613 1.377 . S
C629 C627 1.389 . S
C629 C630 1.524 . S
C630 C629 1.524 . S
C630 C631 1.397 . S
C630 C635 1.363 . S
C631 H602 0.950 . S
C631 C630 1.397 . S
C631 C632 1.334 1_556 S
C632 H603 0.950 . S
C632 C631 1.334 1_554 S
C632 C633 1.287 . S
C633 C632 1.287 . S
C633 C634 1.522 1_554 S
C633 H636 0.999 . S
C634 H604 0.947 1_556 S
C634 C633 1.522 1_556 S
C634 C635 1.420 . S
C635 H605 0.950 . S
C635 C630 1.363 . S
C635 C634 1.420 . S
H636 C633 0.999 . S
H637 C618 0.913 . S
H638 C656 0.959 . S
H639 C658 0.951 . S
H640 C660 0.950 . S
H641 C661 0.950 . S
H642 C663 0.950 . S
H643 C666 0.950 . S
H644 C667 0.950 . S
H645 C669 0.950 . S
H646 C670 0.950 . S
H647 C671 0.951 . S
H648 C673 0.951 . S
H649 C675 0.950 . S
H650 C676 0.950 . S
H651 C678 0.950 . S
H652 C681 0.950 . S
H653 C682 0.950 . S
H654 C684 0.950 . S
H655 C685 0.950 . S
C656 H638 0.959 . S
C656 C657 1.366 1_455 S
C656 C658 1.388 . S
C657 C656 1.366 1_655 S
C657 C661 1.385 . S
C658 H639 0.951 . S
C658 C656 1.388 . S
C658 C659 1.366 1_455 S
C659 C658 1.366 1_655 S
C659 C660 1.414 . S
C659 C662 1.501 . S
C660 H640 0.950 . S
C660 C659 1.414 . S
C660 C661 1.374 . S
C661 H641 0.950 . S
C661 C657 1.385 . S
C661 C660 1.374 . S
C662 C659 1.501 . S
C662 C663 1.405 . S
C662 C664 1.357 1_655 S
C663 H642 0.950 . S
C663 C662 1.405 . S
C663 C679 1.377 . S
C664 C662 1.357 1_455 S
C664 C665 1.524 . S
C664 C678 1.377 . S
C665 C664 1.524 . S
C665 C666 1.397 . S
C665 C670 1.363 . S
C666 H643 0.950 . S
C666 C665 1.397 . S
C666 C667 1.334 . S
C667 H644 0.950 . S
C667 C666 1.334 . S
C667 C668 1.287 . S
C668 C667 1.287 . S
C668 C669 1.524 . S
C668 H687 0.913 . S
C669 H645 0.950 . S
C669 C668 1.524 . S
C669 C670 1.415 . S
C670 H646 0.950 . S
C670 C665 1.363 . S
C670 C669 1.415 . S
C671 H647 0.951 . S
C671 C672 1.366 1_655 S
C671 C673 1.388 . S
C672 C671 1.366 1_455 S
C672 C676 1.385 . S
C673 H648 0.951 . S
C673 C671 1.388 . S
C673 C674 1.366 1_655 S
C674 C673 1.366 1_455 S
C674 C675 1.414 . S
C674 C677 1.499 . S
C675 H649 0.950 . S
C675 C674 1.414 . S
C675 C676 1.374 . S
C676 H650 0.950 . S
C676 C672 1.385 . S
C676 C675 1.374 . S
C677 C674 1.499 . S
C677 C678 1.373 . S
C677 C679 1.389 1_455 S
C678 H651 0.950 . S
C678 C664 1.377 . S
C678 C677 1.373 . S
C679 C663 1.377 . S
C679 C677 1.389 1_655 S
C679 C680 1.524 . S
C680 C679 1.524 . S
C680 C681 1.397 . S
C680 C685 1.363 . S
C681 H652 0.950 . S
C681 C680 1.397 . S
C681 C682 1.334 . S
C682 H653 0.950 . S
C682 C681 1.334 . S
C682 C683 1.287 . S
C683 C682 1.287 . S
C683 C684 1.524 . S
C683 H686 0.999 . S
C684 H654 0.950 . S
C684 C683 1.524 . S
C684 C685 1.415 . S
C685 H655 0.950 . S
C685 C680 1.363 . S
C685 C684 1.415 . S
H686 C683 0.999 . S
H687 C668 0.913 . S
H688 C706 0.951 . S
H689 C708 0.951 . S
H690 C710 0.950 . S
H691 C711 0.950 . S
H692 C713 0.950 . S
H693 C716 0.950 . S
H694 C717 0.950 . S
H695 C719 0.951 1_455 S
H696 C720 0.950 . S
H697 C721 0.951 . S
H698 C723 0.951 . S
H699 C725 0.950 . S
H700 C726 0.950 . S
H701 C728 0.950 . S
H702 C731 0.950 . S
H703 C732 0.950 . S
H704 C734 0.950 . S
H705 C735 0.950 . S
C706 H688 0.951 . S
C706 C707 1.366 . S
C706 C708 1.388 . S
C707 C706 1.366 . S
C707 C711 1.385 . S
C708 H689 0.951 . S
C708 C706 1.388 . S
C708 C709 1.366 . S
C709 C708 1.366 . S
C709 C710 1.414 . S
C709 C712 1.499 . S
C710 H690 0.950 . S
C710 C709 1.414 . S
C710 C711 1.374 . S
C711 H691 0.950 . S
C711 C707 1.385 . S
C711 C710 1.374 . S
C712 C709 1.499 . S
C712 C713 1.373 . S
C712 C714 1.389 . S
C713 H692 0.950 . S
C713 C712 1.373 . S
C713 C729 1.377 . S
C714 C712 1.389 . S
C714 C715 1.524 . S
C714 C728 1.377 . S
C715 C714 1.524 . S
C715 C716 1.397 1_455 S
C715 C720 1.363 . S
C716 H693 0.950 . S
C716 C715 1.397 1_655 S
C716 C717 1.334 . S
C717 H694 0.950 . S
C717 C716 1.334 . S
C717 C718 1.287 . S
C718 C717 1.287 . S
C718 C719 1.526 . S
C718 H737 0.913 . S
C719 H695 0.951 1_655 S
C719 C718 1.526 . S
C719 C720 1.413 1_655 S
C720 H696 0.950 . S
C720 C715 1.363 . S
C720 C719 1.413 1_455 S
C721 H697 0.951 . S
C721 C722 1.366 . S
C721 C723 1.388 . S
C722 C721 1.366 . S
C722 C726 1.385 . S
C723 H698 0.951 . S
C723 C721 1.388 . S
C723 C724 1.366 . S
C724 C723 1.366 . S
C724 C725 1.414 . S
C724 C727 1.499 . S
C725 H699 0.950 . S
C725 C724 1.414 . S
C725 C726 1.374 . S
C726 H700 0.950 . S
C726 C722 1.385 . S
C726 C725 1.374 . S
C727 C724 1.499 . S
C727 C728 1.373 . S
C727 C729 1.389 . S
C728 H701 0.950 . S
C728 C714 1.377 . S
C728 C727 1.373 . S
C729 C713 1.377 . S
C729 C727 1.389 . S
C729 C730 1.524 . S
C730 C729 1.524 . S
C730 C731 1.397 . S
C730 C735 1.363 . S
C731 H702 0.950 . S
C731 C730 1.397 . S
C731 C732 1.334 . S
C732 H703 0.950 . S
C732 C731 1.334 . S
C732 C733 1.287 . S
C733 C732 1.287 . S
C733 C734 1.524 . S
C733 H736 0.999 . S
C734 H704 0.950 . S
C734 C733 1.524 . S
C734 C735 1.415 . S
C735 H705 0.950 . S
C735 C730 1.363 . S
C735 C734 1.415 . S
H736 C733 0.999 . S
H737 C718 0.913 . S
H738 C756 0.951 . S
H739 C758 0.951 . S
H740 C760 0.939 1_565 S
H741 C761 0.950 1_565 S
H742 C763 0.950 . S
H743 C766 0.950 . S
H744 C767 0.950 . S
H745 C769 0.950 . S
H746 C770 0.950 . S
H747 C771 0.951 . S
H748 C773 0.951 . S
H749 C775 0.950 . S
H750 C776 0.950 . S
H751 C778 0.950 . S
H752 C781 0.950 . S
H753 C782 0.950 . S
H754 C784 0.950 . S
H755 C785 0.950 . S
C756 H738 0.951 . S
C756 C757 1.366 . S
C756 C758 1.388 . S
C757 C756 1.366 . S
C757 C761 1.385 . S
C758 H739 0.951 . S
C758 C756 1.388 . S
C758 C759 1.366 . S
C759 C758 1.366 . S
C759 C760 1.425 . S
C759 C762 1.499 . S
C760 H740 0.939 1_545 S
C760 C759 1.425 . S
C760 C761 1.374 . S
C761 H741 0.950 1_545 S
C761 C757 1.385 . S
C761 C760 1.374 . S
C762 C759 1.499 . S
C762 C763 1.373 1_545 S
C762 C764 1.389 . S
C763 H742 0.950 . S
C763 C762 1.373 1_565 S
C763 C779 1.377 . S
C764 C762 1.389 . S
C764 C765 1.524 . S
C764 C778 1.377 . S
C765 C764 1.524 . S
C765 C766 1.397 . S
C765 C770 1.363 . S
C766 H743 0.950 . S
C766 C765 1.397 . S
C766 C767 1.334 . S
C767 H744 0.950 . S
C767 C766 1.334 . S
C767 C768 1.287 . S
C768 C767 1.287 . S
C768 C769 1.524 . S
C768 H787 0.913 . S
C769 H745 0.950 . S
C769 C768 1.524 . S
C769 C770 1.415 . S
C770 H746 0.950 . S
C770 C765 1.363 . S
C770 C769 1.415 . S
C771 H747 0.951 . S
C771 C772 1.366 1_565 S
C771 C773 1.388 . S
C772 C771 1.366 1_545 S
C772 C776 1.385 . S
C773 H748 0.951 . S
C773 C771 1.388 . S
C773 C774 1.366 1_565 S
C774 C773 1.366 1_545 S
C774 C775 1.414 . S
C774 C777 1.499 . S
C775 H749 0.950 . S
C775 C774 1.414 . S
C775 C776 1.374 . S
C776 H750 0.950 . S
C776 C772 1.385 . S
C776 C775 1.374 . S
C777 C774 1.499 . S
C777 C778 1.373 . S
C777 C779 1.389 1_545 S
C778 H751 0.950 . S
C778 C764 1.377 . S
C778 C777 1.373 . S
C779 C763 1.377 . S
C779 C777 1.389 1_565 S
C779 C780 1.524 . S
C780 C779 1.524 . S
C780 C781 1.397 . S
C780 C785 1.363 . S
C781 H752 0.950 . S
C781 C780 1.397 . S
C781 C782 1.334 . S
C782 H753 0.950 . S
C782 C781 1.334 . S
C782 C783 1.287 . S
C783 C782 1.287 . S
C783 C784 1.524 . S
C783 H786 0.999 . S
C784 H754 0.950 . S
C784 C783 1.524 . S
C784 C785 1.415 . S
C785 H755 0.950 . S
C785 C780 1.363 . S
C785 C784 1.415 . S
H786 C783 0.999 . S
H787 C768 0.913 . S
H788 C806 0.951 . S
H789 C808 0.951 . S
H790 C810 0.950 . S
H791 C811 0.950 . S
H792 C813 0.950 . S
H793 C816 0.950 . S
H794 C817 0.950 . S
H795 C819 0.950 . S
H796 C820 0.950 . S
H797 C821 0.951 . S
H798 C823 0.951 . S
H799 C825 0.950 . S
H800 C826 0.950 . S
H801 C828 0.950 . S
H802 C831 0.950 . S
H803 C832 0.950 . S
H804 C834 0.950 . S
H805 C835 0.950 . S
C806 H788 0.951 . S
C806 C807 1.366 . S
C806 C808 1.388 . S
C807 C806 1.366 . S
C807 C811 1.385 . S
C808 H789 0.951 . S
C808 C806 1.388 . S
C808 C809 1.366 . S
C809 C808 1.366 . S
C809 C810 1.414 . S
C809 C812 1.499 . S
C810 H790 0.950 . S
C810 C809 1.414 . S
C810 C811 1.374 . S
C811 H791 0.950 . S
C811 C807 1.385 . S
C811 C810 1.374 . S
C812 C809 1.499 . S
C812 C813 1.373 . S
C812 C814 1.389 . S
C813 H792 0.950 . S
C813 C812 1.373 . S
C813 C829 1.377 . S
C814 C812 1.389 . S
C814 C815 1.524 . S
C814 C828 1.377 . S
C815 C814 1.524 . S
C815 C816 1.397 . S
C815 C820 1.363 . S
C816 H793 0.950 . S
C816 C815 1.397 . S
C816 C817 1.334 . S
C817 H794 0.950 . S
C817 C816 1.334 . S
C817 C818 1.287 . S
C818 C817 1.287 . S
C818 C819 1.524 . S
C818 H837 0.913 . S
C819 H795 0.950 . S
C819 C818 1.524 . S
C819 C820 1.415 . S
C820 H796 0.950 . S
C820 C815 1.363 . S
C820 C819 1.415 . S
C821 H797 0.951 . S
C821 C822 1.366 . S
C821 C823 1.388 . S
C822 C821 1.366 . S
C822 C826 1.385 . S
C823 H798 0.951 . S
C823 C821 1.388 . S
C823 C824 1.366 . S
C824 C823 1.366 . S
C824 C825 1.414 . S
C824 C827 1.499 . S
C825 H799 0.950 . S
C825 C824 1.414 . S
C825 C826 1.374 . S
C826 H800 0.950 . S
C826 C822 1.385 . S
C826 C825 1.374 . S
C827 C824 1.499 . S
C827 C828 1.373 . S
C827 C829 1.389 . S
C828 H801 0.950 . S
C828 C814 1.377 . S
C828 C827 1.373 . S
C829 C813 1.377 . S
C829 C827 1.389 . S
C829 C830 1.524 . S
C830 C829 1.524 . S
C830 C831 1.397 . S
C830 C835 1.363 . S
C831 H802 0.950 . S
C831 C830 1.397 . S
C831 C832 1.334 . S
C832 H803 0.950 . S
C832 C831 1.334 . S
C832 C833 1.287 . S
C833 C832 1.287 . S
C833 C834 1.524 . S
C833 H836 0.999 . S
C834 H804 0.950 . S
C834 C833 1.524 . S
C834 C835 1.415 . S
C835 H805 0.950 . S
C835 C830 1.363 . S
C835 C834 1.415 . S
H836 C833 0.999 . S
H837 C818 0.913 . S
H838 C856 0.951 . S
H839 C858 0.951 . S
H840 C860 0.950 . S
H841 C861 0.950 . S
H842 C863 0.950 . S
H843 C866 0.950 . S
H844 C867 0.950 . S
H845 C869 0.950 . S
H846 C870 0.950 . S
H847 C871 0.951 . S
H848 C873 0.951 . S
H849 C875 0.950 . S
H850 C876 0.950 . S
H851 C878 0.950 . S
H852 C881 0.950 . S
H853 C882 0.950 . S
H854 C884 0.950 . S
H855 C885 0.950 . S
C856 H838 0.951 . S
C856 C857 1.366 . S
C856 C858 1.388 . S
C857 C856 1.366 . S
C857 C861 1.385 . S
C858 H839 0.951 . S
C858 C856 1.388 . S
C858 C859 1.366 . S
C859 C858 1.366 . S
C859 C860 1.414 . S
C859 C862 1.499 . S
C860 H840 0.950 . S
C860 C859 1.414 . S
C860 C861 1.374 . S
C861 H841 0.950 . S
C861 C857 1.385 . S
C861 C860 1.374 . S
C862 C859 1.499 . S
C862 C863 1.373 . S
C862 C864 1.389 . S
C863 H842 0.950 . S
C863 C862 1.373 . S
C863 C879 1.377 . S
C864 C862 1.389 . S
C864 C865 1.524 . S
C864 C878 1.377 . S
C865 C864 1.524 . S
C865 C866 1.397 . S
C865 C870 1.363 . S
C866 H843 0.950 . S
C866 C865 1.397 . S
C866 C867 1.334 . S
C867 H844 0.950 . S
C867 C866 1.334 . S
C867 C868 1.287 . S
C868 C867 1.287 . S
C868 C869 1.524 . S
C868 H887 0.913 . S
C869 H845 0.950 . S
C869 C868 1.524 . S
C869 C870 1.415 . S
C870 H846 0.950 . S
C870 C865 1.363 . S
C870 C869 1.415 . S
C871 H847 0.951 . S
C871 C872 1.366 . S
C871 C873 1.388 . S
C872 C871 1.366 . S
C872 C876 1.385 . S
C873 H848 0.951 . S
C873 C871 1.388 . S
C873 C874 1.366 . S
C874 C873 1.366 . S
C874 C875 1.414 . S
C874 C877 1.499 . S
C875 H849 0.950 . S
C875 C874 1.414 . S
C875 C876 1.374 . S
C876 H850 0.950 . S
C876 C872 1.385 . S
C876 C875 1.374 . S
C877 C874 1.499 . S
C877 C878 1.373 . S
C877 C879 1.389 . S
C878 H851 0.950 . S
C878 C864 1.377 . S
C878 C877 1.373 . S
C879 C863 1.377 . S
C879 C877 1.389 . S
C879 C880 1.524 . S
C880 C879 1.524 . S
C880 C881 1.397 . S
C880 C885 1.363 . S
C881 H852 0.950 . S
C881 C880 1.397 . S
C881 C882 1.334 . S
C882 H853 0.950 . S
C882 C881 1.334 . S
C882 C883 1.287 . S
C883 C882 1.287 . S
C883 C884 1.524 . S
C883 H886 0.999 . S
C884 H854 0.950 . S
C884 C883 1.524 . S
C884 C885 1.415 . S
C885 H855 0.950 . S
C885 C880 1.363 . S
C885 C884 1.415 . S
H886 C883 0.999 . S
H887 C868 0.913 . S
H888 C906 0.932 1_454 S
H889 C908 0.951 . S
H890 C910 0.950 . S
H891 C911 0.950 . S
H892 C913 0.950 . S
H893 C916 0.950 . S
H894 C917 0.950 . S
H895 C919 0.950 . S
H896 C920 0.950 1_455 S
H897 C921 0.951 . S
H898 C923 0.951 1_655 S
H899 C925 0.950 . S
H900 C926 0.950 . S
H901 C928 0.952 . S
H902 C931 0.950 . S
H903 C932 0.950 . S
H904 C934 0.950 . S
H905 C935 0.950 . S
C906 H888 0.932 1_656 S
C906 C907 1.393 . S
C906 C908 1.382 1_655 S
C907 C906 1.393 . S
C907 C911 1.385 . S
C908 H889 0.951 . S
C908 C906 1.382 1_455 S
C908 C909 1.366 1_455 S
C909 C908 1.366 1_655 S
C909 C910 1.414 . S
C909 C912 1.499 . S
C910 H890 0.950 . S
C910 C909 1.414 . S
C910 C911 1.374 . S
C911 H891 0.950 . S
C911 C907 1.385 . S
C911 C910 1.374 . S
C912 C909 1.499 . S
C912 C913 1.373 1_655 S
C912 C914 1.389 . S
C913 H892 0.950 . S
C913 C912 1.373 1_455 S
C913 C929 1.377 . S
C914 C912 1.389 . S
C914 C915 1.524 . S
C914 C928 1.380 . S
C915 C914 1.524 . S
C915 C916 1.397 . S
C915 C920 1.363 1_556 S
C916 H893 0.950 . S
C916 C915 1.397 . S
C916 C917 1.334 1_556 S
C917 H894 0.950 . S
C917 C916 1.334 1_554 S
C917 C918 1.287 . S
C918 C917 1.287 . S
C918 C919 1.524 . S
C918 H937 0.913 . S
C919 H895 0.950 . S
C919 C918 1.524 . S
C919 C920 1.415 . S
C920 H896 0.950 1_655 S
C920 C915 1.363 1_554 S
C920 C919 1.415 . S
C921 H897 0.951 . S
C921 C922 1.366 . S
C921 C923 1.388 . S
C922 C921 1.366 . S
C922 C926 1.385 . S
C923 H898 0.951 1_455 S
C923 C921 1.388 . S
C923 C924 1.366 . S
C924 C923 1.366 . S
C924 C925 1.414 . S
C924 C927 1.499 . S
C925 H899 0.950 . S
C925 C924 1.414 . S
C925 C926 1.374 . S
C926 H900 0.950 . S
C926 C922 1.385 . S
C926 C925 1.374 . S
C927 C924 1.499 . S
C927 C928 1.369 1_455 S
C927 C929 1.389 . S
C928 H901 0.952 . S
C928 C914 1.380 . S
C928 C927 1.369 1_655 S
C929 C913 1.377 . S
C929 C927 1.389 . S
C929 C930 1.524 . S
C930 C929 1.524 . S
C930 C931 1.397 . S
C930 C935 1.363 . S
C931 H902 0.950 . S
C931 C930 1.397 . S
C931 C932 1.334 . S
C932 H903 0.950 . S
C932 C931 1.334 . S
C932 C933 1.287 . S
C933 C932 1.287 . S
C933 C934 1.524 . S
C933 H936 0.999 . S
C934 H904 0.950 . S
C934 C933 1.524 . S
C934 C935 1.415 . S
C935 H905 0.950 . S
C935 C930 1.363 . S
C935 C934 1.415 . S
H936 C933 0.999 . S
H937 C918 0.913 . S
H938 C956 0.951 . S
H939 C958 0.951 . S
H940 C960 0.950 1_545 S
H941 C961 0.950 . S
H942 C963 0.950 . S
H943 C966 0.950 . S
H944 C967 0.950 1_556 S
H945 C969 0.950 . S
H946 C970 0.950 . S
H947 C971 0.951 . S
H948 C973 0.951 . S
H949 C975 0.950 . S
H950 C976 0.950 . S
H951 C978 0.950 . S
H952 C981 0.950 . S
H953 C982 0.950 . S
H954 C984 0.950 . S
H955 C985 0.950 . S
C956 H938 0.951 . S
C956 C957 1.366 . S
C956 C958 1.388 . S
C957 C956 1.366 . S
C957 C961 1.385 1_554 S
C958 H939 0.951 . S
C958 C956 1.388 . S
C958 C959 1.366 1_554 S
C959 C958 1.366 1_556 S
C959 C960 1.414 . S
C959 C962 1.500 . S
C960 H940 0.950 1_565 S
C960 C959 1.414 . S
C960 C961 1.374 . S
C961 H941 0.950 . S
C961 C957 1.385 1_556 S
C961 C960 1.374 . S
C962 C959 1.500 . S
C962 C963 1.339 1_565 S
C962 C964 1.420 . S
C963 H942 0.950 . S
C963 C962 1.339 1_545 S
C963 C979 1.377 . S
C964 C962 1.420 . S
C964 C965 1.524 . S
C964 C978 1.377 . S
C965 C964 1.524 . S
C965 C966 1.397 . S
C965 C970 1.363 1_556 S
C966 H943 0.950 . S
C966 C965 1.397 . S
C966 C967 1.334 1_556 S
C967 H944 0.950 1_554 S
C967 C966 1.334 1_554 S
C967 C968 1.287 . S
C968 C967 1.287 . S
C968 C969 1.524 . S
C968 H987 0.913 . S
C969 H945 0.950 . S
C969 C968 1.524 . S
C969 C970 1.415 . S
C970 H946 0.950 . S
C970 C965 1.363 1_554 S
C970 C969 1.415 . S
C971 H947 0.951 . S
C971 C972 1.366 . S
C971 C973 1.388 . S
C972 C971 1.366 . S
C972 C976 1.385 . S
C973 H948 0.951 . S
C973 C971 1.388 . S
C973 C974 1.366 . S
C974 C973 1.366 . S
C974 C975 1.414 . S
C974 C977 1.499 . S
C975 H949 0.950 . S
C975 C974 1.414 . S
C975 C976 1.374 . S
C976 H950 0.950 . S
C976 C972 1.385 . S
C976 C975 1.374 . S
C977 C974 1.499 . S
C977 C978 1.373 1_545 S
C977 C979 1.389 . S
C978 H951 0.950 . S
C978 C964 1.377 . S
C978 C977 1.373 1_565 S
C979 C963 1.377 . S
C979 C977 1.389 . S
C979 C980 1.524 . S
C980 C979 1.524 . S
C980 C981 1.397 . S
C980 C985 1.363 . S
C981 H952 0.950 . S
C981 C980 1.397 . S
C981 C982 1.334 . S
C982 H953 0.950 . S
C982 C981 1.334 . S
C982 C983 1.287 . S
C983 C982 1.287 . S
C983 C984 1.524 . S
C983 H986 0.999 . S
C984 H954 0.950 . S
C984 C983 1.524 . S
C984 C985 1.415 . S
C985 H955 0.950 . S
C985 C980 1.363 . S
C985 C984 1.415 . S
H986 C983 0.999 . S
H987 C968 0.913 . S
H988 C1006 0.951 . S
H989 C1008 0.951 . S
H990 C1010 0.950 . S
H991 C1011 0.950 . S
H992 C1013 0.932 1_554 S
H993 C1016 0.950 . S
H994 C1017 0.950 . S
H995 C1019 0.950 . S
H996 C1020 0.950 . S
H997 C1021 0.951 . S
H998 C1023 0.951 . S
H999 C1025 0.950 . S
H1000 C1026 0.950 . S
H1001 C1028 0.950 . S
H1002 C1031 0.950 . S
H1003 C1032 0.950 . S
H1004 C1034 0.950 . S
H1005 C1035 0.950 . S
C1006 H988 0.951 . S
C1006 C1007 1.366 1_556 S
C1006 C1008 1.388 . S
C1007 C1006 1.366 1_554 S
C1007 C1011 1.385 . S
C1008 H989 0.951 . S
C1008 C1006 1.388 . S
C1008 C1009 1.366 . S
C1009 C1008 1.366 . S
C1009 C1010 1.414 1_556 S
C1009 C1012 1.499 . S
C1010 H990 0.950 . S
C1010 C1009 1.414 1_554 S
C1010 C1011 1.374 . S
C1011 H991 0.950 . S
C1011 C1007 1.385 . S
C1011 C1010 1.374 . S
C1012 C1009 1.499 . S
C1012 C1013 1.373 . S
C1012 C1014 1.389 . S
C1013 H992 0.932 1_556 S
C1013 C1012 1.373 . S
C1013 C1029 1.377 . S
C1014 C1012 1.389 . S
C1014 C1015 1.524 . S
C1014 C1028 1.377 . S
C1015 C1014 1.524 . S
C1015 C1016 1.397 . S
C1015 C1020 1.363 . S
C1016 H993 0.950 . S
C1016 C1015 1.397 . S
C1016 C1017 1.334 . S
C1017 H994 0.950 . S
C1017 C1016 1.334 . S
C1017 C1018 1.287 . S
C1018 C1017 1.287 . S
C1018 C1019 1.524 . S
C1018 H1037 0.913 . S
C1019 H995 0.950 . S
C1019 C1018 1.524 . S
C1019 C1020 1.415 . S
C1020 H996 0.950 . S
C1020 C1015 1.363 . S
C1020 C1019 1.415 . S
C1021 H997 0.951 . S
C1021 C1022 1.366 . S
C1021 C1023 1.388 . S
C1022 C1021 1.366 . S
C1022 C1026 1.385 . S
C1023 H998 0.951 . S
C1023 C1021 1.388 . S
C1023 C1024 1.366 . S
C1024 C1023 1.366 . S
C1024 C1025 1.414 . S
C1024 C1027 1.499 . S
C1025 H999 0.950 . S
C1025 C1024 1.414 . S
C1025 C1026 1.374 . S
C1026 H1000 0.950 . S
C1026 C1022 1.385 . S
C1026 C1025 1.374 . S
C1027 C1024 1.499 . S
C1027 C1028 1.373 . S
C1027 C1029 1.389 . S
C1028 H1001 0.950 . S
C1028 C1014 1.377 . S
C1028 C1027 1.373 . S
C1029 C1013 1.377 . S
C1029 C1027 1.389 . S
C1029 C1030 1.524 . S
C1030 C1029 1.524 . S
C1030 C1031 1.397 . S
C1030 C1035 1.363 1_556 S
C1031 H1002 0.950 . S
C1031 C1030 1.397 . S
C1031 C1032 1.334 . S
C1032 H1003 0.950 . S
C1032 C1031 1.334 . S
C1032 C1033 1.287 1_556 S
C1033 C1032 1.287 1_554 S
C1033 C1034 1.524 . S
C1033 H1036 0.999 . S
C1034 H1004 0.950 . S
C1034 C1033 1.524 . S
C1034 C1035 1.415 . S
C1035 H1005 0.950 . S
C1035 C1030 1.363 1_554 S
C1035 C1034 1.415 . S
H1036 C1033 0.999 . S
H1037 C1018 0.913 . S
H1038 C1056 0.951 . S
H1039 C1058 0.951 . S
H1040 C1060 0.950 . S
H1041 C1061 0.940 1_556 S
H1042 C1063 0.950 . S
H1043 C1066 0.950 . S
H1044 C1067 0.950 . S
H1045 C1069 0.950 . S
H1046 C1070 0.950 . S
H1047 C1071 0.951 . S
H1048 C1073 0.951 . S
H1049 C1075 0.950 . S
H1050 C1076 0.950 . S
H1051 C1078 0.950 . S
H1052 C1081 0.950 . S
H1053 C1082 0.950 . S
H1054 C1084 0.950 . S
H1055 C1085 0.950 . S
C1056 H1038 0.951 . S
C1056 C1057 1.366 . S
C1056 C1058 1.388 . S
C1057 C1056 1.366 . S
C1057 C1061 1.404 . S
C1058 H1039 0.951 . S
C1058 C1056 1.388 . S
C1058 C1059 1.366 1_554 S
C1059 C1058 1.366 1_556 S
C1059 C1060 1.414 . S
C1059 C1062 1.499 . S
C1060 H1040 0.950 . S
C1060 C1059 1.414 . S
C1060 C1061 1.364 1_556 S
C1061 H1041 0.940 1_554 S
C1061 C1057 1.404 . S
C1061 C1060 1.364 1_554 S
C1062 C1059 1.499 . S
C1062 C1063 1.373 . S
C1062 C1064 1.389 . S
C1063 H1042 0.950 . S
C1063 C1062 1.373 . S
C1063 C1079 1.377 . S
C1064 C1062 1.389 . S
C1064 C1065 1.524 1_556 S
C1064 C1078 1.377 . S
C1065 C1064 1.524 1_554 S
C1065 C1066 1.397 1_554 S
C1065 C1070 1.363 . S
C1066 H1043 0.950 . S
C1066 C1065 1.397 1_556 S
C1066 C1067 1.334 1_556 S
C1067 H1044 0.950 . S
C1067 C1066 1.334 1_554 S
C1067 C1068 1.287 . S
C1068 C1067 1.287 . S
C1068 C1069 1.524 . S
C1068 H1087 0.913 . S
C1069 H1045 0.950 . S
C1069 C1068 1.524 . S
C1069 C1070 1.415 . S
C1070 H1046 0.950 . S
C1070 C1065 1.363 . S
C1070 C1069 1.415 . S
C1071 H1047 0.951 . S
C1071 C1072 1.366 . S
C1071 C1073 1.388 . S
C1072 C1071 1.366 . S
C1072 C1076 1.385 . S
C1073 H1048 0.951 . S
C1073 C1071 1.388 . S
C1073 C1074 1.366 . S
C1074 C1073 1.366 . S
C1074 C1075 1.414 . S
C1074 C1077 1.499 . S
C1075 H1049 0.950 . S
C1075 C1074 1.414 . S
C1075 C1076 1.374 . S
C1076 H1050 0.950 . S
C1076 C1072 1.385 . S
C1076 C1075 1.374 . S
C1077 C1074 1.499 . S
C1077 C1078 1.373 . S
C1077 C1079 1.389 . S
C1078 H1051 0.950 . S
C1078 C1064 1.377 . S
C1078 C1077 1.373 . S
C1079 C1063 1.377 . S
C1079 C1077 1.389 . S
C1079 C1080 1.524 . S
C1080 C1079 1.524 . S
C1080 C1081 1.397 . S
C1080 C1085 1.363 . S
C1081 H1052 0.950 . S
C1081 C1080 1.397 . S
C1081 C1082 1.334 . S
C1082 H1053 0.950 . S
C1082 C1081 1.334 . S
C1082 C1083 1.287 . S
C1083 C1082 1.287 . S
C1083 C1084 1.524 . S
C1083 H1086 0.999 . S
C1084 H1054 0.950 . S
C1084 C1083 1.524 . S
C1084 C1085 1.415 . S
C1085 H1055 0.950 . S
C1085 C1080 1.363 . S
C1085 C1084 1.415 . S
H1086 C1083 0.999 . S
H1087 C1068 0.913 . S
H1088 C1106 0.951 . S
H1089 C1108 0.951 . S
H1090 C1110 0.950 . S
H1091 C1111 0.950 . S
H1092 C1113 0.950 . S
H1093 C1116 0.950 . S
H1094 C1117 0.950 . S
H1095 C1119 0.950 . S
H1096 C1120 0.950 . S
H1097 C1121 0.951 . S
H1098 C1123 0.951 . S
H1099 C1125 0.950 . S
H1100 C1126 0.950 . S
H1101 C1128 0.950 . S
H1102 C1131 0.950 . S
H1103 C1132 0.950 . S
H1104 C1134 0.950 . S
H1105 C1135 0.950 . S
C1106 H1088 0.951 . S
C1106 C1107 1.366 . S
C1106 C1108 1.388 . S
C1107 C1106 1.366 . S
C1107 C1111 1.385 . S
C1108 H1089 0.951 . S
C1108 C1106 1.388 . S
C1108 C1109 1.366 . S
C1109 C1108 1.366 . S
C1109 C1110 1.414 . S
C1109 C1112 1.499 . S
C1110 H1090 0.950 . S
C1110 C1109 1.414 . S
C1110 C1111 1.374 . S
C1111 H1091 0.950 . S
C1111 C1107 1.385 . S
C1111 C1110 1.374 . S
C1112 C1109 1.499 . S
C1112 C1113 1.373 . S
C1112 C1114 1.389 . S
C1113 H1092 0.950 . S
C1113 C1112 1.373 . S
C1113 C1129 1.377 . S
C1114 C1112 1.389 . S
C1114 C1115 1.524 . S
C1114 C1128 1.377 . S
C1115 C1114 1.524 . S
C1115 C1116 1.397 . S
C1115 C1120 1.363 . S
C1116 H1093 0.950 . S
C1116 C1115 1.397 . S
C1116 C1117 1.334 . S
C1117 H1094 0.950 . S
C1117 C1116 1.334 . S
C1117 C1118 1.287 . S
C1118 C1117 1.287 . S
C1118 C1119 1.524 . S
C1118 H1137 0.913 . S
C1119 H1095 0.950 . S
C1119 C1118 1.524 . S
C1119 C1120 1.415 . S
C1120 H1096 0.950 . S
C1120 C1115 1.363 . S
C1120 C1119 1.415 . S
C1121 H1097 0.951 . S
C1121 C1122 1.366 . S
C1121 C1123 1.388 . S
C1122 C1121 1.366 . S
C1122 C1126 1.385 1_556 S
C1123 H1098 0.951 . S
C1123 C1121 1.388 . S
C1123 C1124 1.366 1_556 S
C1124 C1123 1.366 1_554 S
C1124 C1125 1.414 . S
C1124 C1127 1.499 . S
C1125 H1099 0.950 . S
C1125 C1124 1.414 . S
C1125 C1126 1.374 . S
C1126 H1100 0.950 . S
C1126 C1122 1.385 1_554 S
C1126 C1125 1.374 . S
C1127 C1124 1.499 . S
C1127 C1128 1.373 . S
C1127 C1129 1.389 . S
C1128 H1101 0.950 . S
C1128 C1114 1.377 . S
C1128 C1127 1.373 . S
C1129 C1113 1.377 . S
C1129 C1127 1.389 . S
C1129 C1130 1.524 . S
C1130 C1129 1.524 . S
C1130 C1131 1.397 1_455 S
C1130 C1135 1.363 1_554 S
C1131 H1102 0.950 . S
C1131 C1130 1.397 1_655 S
C1131 C1132 1.334 1_554 S
C1132 H1103 0.950 . S
C1132 C1131 1.334 1_556 S
C1132 C1133 1.287 . S
C1133 C1132 1.287 . S
C1133 C1134 1.524 1_655 S
C1133 H1136 0.999 . S
C1134 H1104 0.950 . S
C1134 C1133 1.524 1_455 S
C1134 C1135 1.415 . S
C1135 H1105 0.950 . S
C1135 C1130 1.363 1_556 S
C1135 C1134 1.415 . S
H1136 C1133 0.999 . S
H1137 C1118 0.913 . S
H1138 C1156 0.951 . S
H1139 C1158 0.951 . S
H1140 C1160 0.950 . S
H1141 C1161 0.950 . S
H1142 C1163 0.950 1_565 S
H1143 C1166 0.950 . S
H1144 C1167 0.950 . S
H1145 C1169 0.950 . S
H1146 C1170 0.950 . S
H1147 C1171 0.951 . S
H1148 C1173 0.951 . S
H1149 C1175 0.950 . S
H1150 C1176 0.950 . S
H1151 C1178 0.950 . S
H1152 C1181 0.950 . S
H1153 C1182 0.950 . S
H1154 C1184 0.950 . S
H1155 C1185 0.950 . S
C1156 H1138 0.951 . S
C1156 C1157 1.366 . S
C1156 C1158 1.388 . S
C1157 C1156 1.366 . S
C1157 C1161 1.385 . S
C1158 H1139 0.951 . S
C1158 C1156 1.388 . S
C1158 C1159 1.366 . S
C1159 C1158 1.366 . S
C1159 C1160 1.414 . S
C1159 C1162 1.499 . S
C1160 H1140 0.950 . S
C1160 C1159 1.414 . S
C1160 C1161 1.374 . S
C1161 H1141 0.950 . S
C1161 C1157 1.385 . S
C1161 C1160 1.374 . S
C1162 C1159 1.499 . S
C1162 C1163 1.373 . S
C1162 C1164 1.389 . S
C1163 H1142 0.950 1_545 S
C1163 C1162 1.373 . S
C1163 C1179 1.380 1_554 S
C1164 C1162 1.389 . S
C1164 C1165 1.524 . S
C1164 C1178 1.377 . S
C1165 C1164 1.524 . S
C1165 C1166 1.397 . S
C1165 C1170 1.363 . S
C1166 H1143 0.950 . S
C1166 C1165 1.397 . S
C1166 C1167 1.334 . S
C1167 H1144 0.950 . S
C1167 C1166 1.334 . S
C1167 C1168 1.287 . S
C1168 C1167 1.287 . S
C1168 C1169 1.524 . S
C1168 H1187 0.913 . S
C1169 H1145 0.950 . S
C1169 C1168 1.524 . S
C1169 C1170 1.415 . S
C1170 H1146 0.950 . S
C1170 C1165 1.363 . S
C1170 C1169 1.415 . S
C1171 H1147 0.951 . S
C1171 C1172 1.366 . S
C1171 C1173 1.388 . S
C1172 C1171 1.366 . S
C1172 C1176 1.385 . S
C1173 H1148 0.951 . S
C1173 C1171 1.388 . S
C1173 C1174 1.366 . S
C1174 C1173 1.366 . S
C1174 C1175 1.414 . S
C1174 C1177 1.499 . S
C1175 H1149 0.950 . S
C1175 C1174 1.414 . S
C1175 C1176 1.374 . S
C1176 H1150 0.950 . S
C1176 C1172 1.385 . S
C1176 C1175 1.374 . S
C1177 C1174 1.499 . S
C1177 C1178 1.373 1_556 S
C1177 C1179 1.403 . S
C1178 H1151 0.950 . S
C1178 C1164 1.377 . S
C1178 C1177 1.373 1_554 S
C1179 C1163 1.380 1_556 S
C1179 C1177 1.403 . S
C1179 C1180 1.506 1_545 S
C1180 C1179 1.506 1_565 S
C1180 C1181 1.397 . S
C1180 C1185 1.363 . S
C1181 H1152 0.950 . S
C1181 C1180 1.397 . S
C1181 C1182 1.334 . S
C1182 H1153 0.950 . S
C1182 C1181 1.334 . S
C1182 C1183 1.287 . S
C1183 C1182 1.287 . S
C1183 C1184 1.524 . S
C1183 H1186 0.999 . S
C1184 H1154 0.950 . S
C1184 C1183 1.524 . S
C1184 C1185 1.415 . S
C1185 H1155 0.950 . S
C1185 C1180 1.363 . S
C1185 C1184 1.415 . S
H1186 C1183 0.999 . S
H1187 C1168 0.913 . S
H1188 C1206 0.951 . S
H1189 C1208 0.951 . S
H1190 C1210 0.950 . S
H1191 C1211 0.950 . S
H1192 C1213 0.950 . S
H1193 C1216 0.950 . S
H1194 C1217 0.950 . S
H1195 C1219 0.950 . S
H1196 C1220 0.950 1_556 S
H1197 C1221 0.951 . S
H1198 C1223 0.951 . S
H1199 C1225 0.950 . S
H1200 C1226 0.950 . S
H1201 C1228 0.950 . S
H1202 C1231 0.950 . S
H1203 C1232 0.950 . S
H1204 C1234 0.950 . S
H1205 C1235 0.955 . S
C1206 H1188 0.951 . S
C1206 C1207 1.366 . S
C1206 C1208 1.388 . S
C1207 C1206 1.366 . S
C1207 C1211 1.385 . S
C1208 H1189 0.951 . S
C1208 C1206 1.388 . S
C1208 C1209 1.366 . S
C1209 C1208 1.366 . S
C1209 C1210 1.414 . S
C1209 C1212 1.499 . S
C1210 H1190 0.950 . S
C1210 C1209 1.414 . S
C1210 C1211 1.374 . S
C1211 H1191 0.950 . S
C1211 C1207 1.385 . S
C1211 C1210 1.374 . S
C1212 C1209 1.499 . S
C1212 C1213 1.373 . S
C1212 C1214 1.389 . S
C1213 H1192 0.950 . S
C1213 C1212 1.373 . S
C1213 C1229 1.377 1_554 S
C1214 C1212 1.389 . S
C1214 C1215 1.524 . S
C1214 C1228 1.377 1_554 S
C1215 C1214 1.524 . S
C1215 C1216 1.397 . S
C1215 C1220 1.363 . S
C1216 H1193 0.950 . S
C1216 C1215 1.397 . S
C1216 C1217 1.334 . S
C1217 H1194 0.950 . S
C1217 C1216 1.334 . S
C1217 C1218 1.287 . S
C1218 C1217 1.287 . S
C1218 C1219 1.524 . S
C1218 H1237 0.913 . S
C1219 H1195 0.950 . S
C1219 C1218 1.524 . S
C1219 C1220 1.415 . S
C1220 H1196 0.950 1_554 S
C1220 C1215 1.363 . S
C1220 C1219 1.415 . S
C1221 H1197 0.951 . S
C1221 C1222 1.366 . S
C1221 C1223 1.388 . S
C1222 C1221 1.366 . S
C1222 C1226 1.385 . S
C1223 H1198 0.951 . S
C1223 C1221 1.388 . S
C1223 C1224 1.366 . S
C1224 C1223 1.366 . S
C1224 C1225 1.414 . S
C1224 C1227 1.499 . S
C1225 H1199 0.950 . S
C1225 C1224 1.414 . S
C1225 C1226 1.374 . S
C1226 H1200 0.950 . S
C1226 C1222 1.385 . S
C1226 C1225 1.374 . S
C1227 C1224 1.499 . S
C1227 C1228 1.373 . S
C1227 C1229 1.389 . S
C1228 H1201 0.950 . S
C1228 C1214 1.377 1_556 S
C1228 C1227 1.373 . S
C1229 C1213 1.377 1_556 S
C1229 C1227 1.389 . S
C1229 C1230 1.524 . S
C1230 C1229 1.524 . S
C1230 C1231 1.397 . S
C1230 C1235 1.360 1_556 S
C1231 H1202 0.950 . S
C1231 C1230 1.397 . S
C1231 C1232 1.334 . S
C1232 H1203 0.950 . S
C1232 C1231 1.334 . S
C1232 C1233 1.287 . S
C1233 C1232 1.287 . S
C1233 C1234 1.524 . S
C1233 H1236 0.999 . S
C1234 H1204 0.950 . S
C1234 C1233 1.524 . S
C1234 C1235 1.413 1_556 S
C1235 H1205 0.955 . S
C1235 C1230 1.360 1_554 S
C1235 C1234 1.413 1_554 S
H1236 C1233 0.999 . S
H1237 C1218 0.913 . S
H1238 C1256 0.951 . S
H1239 C1258 0.951 . S
H1240 C1260 0.950 . S
H1241 C1261 0.950 . S
H1242 C1263 0.950 . S
H1243 C1266 0.950 . S
H1244 C1267 0.950 . S
H1245 C1269 0.950 . S
H1246 C1270 0.950 . S
H1247 C1271 0.951 . S
H1248 C1273 0.951 . S
H1249 C1275 0.950 . S
H1250 C1276 0.950 . S
H1251 C1278 0.950 . S
H1252 C1281 0.950 . S
H1253 C1282 0.950 . S
H1254 C1284 0.950 . S
H1255 C1285 0.950 . S
C1256 H1238 0.951 . S
C1256 C1257 1.366 . S
C1256 C1258 1.388 . S
C1257 C1256 1.366 . S
C1257 C1261 1.385 . S
C1258 H1239 0.951 . S
C1258 C1256 1.388 . S
C1258 C1259 1.366 . S
C1259 C1258 1.366 . S
C1259 C1260 1.414 . S
C1259 C1262 1.499 . S
C1260 H1240 0.950 . S
C1260 C1259 1.414 . S
C1260 C1261 1.374 . S
C1261 H1241 0.950 . S
C1261 C1257 1.385 . S
C1261 C1260 1.374 . S
C1262 C1259 1.499 . S
C1262 C1263 1.373 . S
C1262 C1264 1.389 . S
C1263 H1242 0.950 . S
C1263 C1262 1.373 . S
C1263 C1279 1.377 1_554 S
C1264 C1262 1.389 . S
C1264 C1265 1.524 . S
C1264 C1278 1.377 1_554 S
C1265 C1264 1.524 . S
C1265 C1266 1.397 . S
C1265 C1270 1.363 . S
C1266 H1243 0.950 . S
C1266 C1265 1.397 . S
C1266 C1267 1.334 . S
C1267 H1244 0.950 . S
C1267 C1266 1.334 . S
C1267 C1268 1.287 . S
C1268 C1267 1.287 . S
C1268 C1269 1.524 . S
C1268 H1287 0.913 . S
C1269 H1245 0.950 . S
C1269 C1268 1.524 . S
C1269 C1270 1.415 . S
C1270 H1246 0.950 . S
C1270 C1265 1.363 . S
C1270 C1269 1.415 . S
C1271 H1247 0.951 . S
C1271 C1272 1.366 . S
C1271 C1273 1.388 . S
C1272 C1271 1.366 . S
C1272 C1276 1.385 . S
C1273 H1248 0.951 . S
C1273 C1271 1.388 . S
C1273 C1274 1.366 . S
C1274 C1273 1.366 . S
C1274 C1275 1.414 . S
C1274 C1277 1.499 . S
C1275 H1249 0.950 . S
C1275 C1274 1.414 . S
C1275 C1276 1.374 . S
C1276 H1250 0.950 . S
C1276 C1272 1.385 . S
C1276 C1275 1.374 . S
C1277 C1274 1.499 . S
C1277 C1278 1.373 . S
C1277 C1279 1.389 . S
C1278 H1251 0.950 . S
C1278 C1264 1.377 1_556 S
C1278 C1277 1.373 . S
C1279 C1263 1.377 1_556 S
C1279 C1277 1.389 . S
C1279 C1280 1.524 . S
C1280 C1279 1.524 . S
C1280 C1281 1.397 . S
C1280 C1285 1.363 . S
C1281 H1252 0.950 . S
C1281 C1280 1.397 . S
C1281 C1282 1.334 . S
C1282 H1253 0.950 . S
C1282 C1281 1.334 . S
C1282 C1283 1.287 . S
C1283 C1282 1.287 . S
C1283 C1284 1.524 . S
C1283 H1286 0.999 . S
C1284 H1254 0.950 . S
C1284 C1283 1.524 . S
C1284 C1285 1.415 . S
C1285 H1255 0.950 . S
C1285 C1280 1.363 . S
C1285 C1284 1.415 . S
H1286 C1283 0.999 . S
H1287 C1268 0.913 . S
H1288 C1306 0.951 . S
H1289 C1308 0.951 . S
H1290 C1310 0.950 . S
H1291 C1311 0.950 . S
H1292 C1313 0.950 . S
H1293 C1316 0.950 1_455 S
H1294 C1317 0.950 . S
H1295 C1319 0.950 . S
H1296 C1320 0.950 . S
H1297 C1321 0.951 . S
H1298 C1323 0.951 . S
H1299 C1325 0.950 . S
H1300 C1326 0.950 . S
H1301 C1328 0.950 . S
H1302 C1331 1.002 . S
H1303 C1332 0.950 1_655 S
H1304 C1334 0.950 . S
H1305 C1335 0.950 . S
C1306 H1288 0.951 . S
C1306 C1307 1.366 . S
C1306 C1308 1.388 . S
C1307 C1306 1.366 . S
C1307 C1311 1.385 1_655 S
C1308 H1289 0.951 . S
C1308 C1306 1.388 . S
C1308 C1309 1.366 . S
C1309 C1308 1.366 . S
C1309 C1310 1.414 1_655 S
C1309 C1312 1.499 . S
C1310 H1290 0.950 . S
C1310 C1309 1.414 1_455 S
C1310 C1311 1.374 . S
C1311 H1291 0.950 . S
C1311 C1307 1.385 1_455 S
C1311 C1310 1.374 . S
C1312 C1309 1.499 . S
C1312 C1313 1.373 1_655 S
C1312 C1314 1.389 . S
C1313 H1292 0.950 . S
C1313 C1312 1.373 1_455 S
C1313 C1329 1.377 . S
C1314 C1312 1.389 . S
C1314 C1315 1.524 . S
C1314 C1328 1.377 . S
C1315 C1314 1.524 . S
C1315 C1316 1.397 . S
C1315 C1320 1.363 . S
C1316 H1293 0.950 1_655 S
C1316 C1315 1.397 . S
C1316 C1317 1.334 . S
C1317 H1294 0.950 . S
C1317 C1316 1.334 . S
C1317 C1318 1.287 . S
C1318 C1317 1.287 . S
C1318 C1319 1.524 . S
C1318 H1337 0.913 . S
C1319 H1295 0.950 . S
C1319 C1318 1.524 . S
C1319 C1320 1.415 . S
C1320 H1296 0.950 . S
C1320 C1315 1.363 . S
C1320 C1319 1.415 . S
C1321 H1297 0.951 . S
C1321 C1322 1.342 1_455 S
C1321 C1323 1.388 . S
C1322 C1321 1.342 1_655 S
C1322 C1326 1.412 . S
C1323 H1298 0.951 . S
C1323 C1321 1.388 . S
C1323 C1324 1.366 1_455 S
C1324 C1323 1.366 1_655 S
C1324 C1325 1.414 . S
C1324 C1327 1.499 . S
C1325 H1299 0.950 . S
C1325 C1324 1.414 . S
C1325 C1326 1.374 . S
C1326 H1300 0.950 . S
C1326 C1322 1.412 . S
C1326 C1325 1.374 . S
C1327 C1324 1.499 . S
C1327 C1328 1.373 . S
C1327 C1329 1.389 1_655 S
C1328 H1301 0.950 . S
C1328 C1314 1.377 . S
C1328 C1327 1.373 . S
C1329 C1313 1.377 . S
C1329 C1327 1.389 1_455 S
C1329 C1330 1.524 . S
C1330 C1329 1.524 . S
C1330 C1331 1.365 1_455 S
C1330 C1335 1.363 . S
C1331 H1302 1.002 . S
C1331 C1330 1.365 1_655 S
C1331 C1332 1.316 1_655 S
C1332 H1303 0.950 1_455 S
C1332 C1331 1.316 1_455 S
C1332 C1333 1.287 . S
C1333 C1332 1.287 . S
C1333 C1334 1.524 . S
C1333 H1336 0.999 . S
C1334 H1304 0.950 . S
C1334 C1333 1.524 . S
C1334 C1335 1.415 . S
C1335 H1305 0.950 . S
C1335 C1330 1.363 . S
C1335 C1334 1.415 . S
H1336 C1333 0.999 . S
H1337 C1318 0.913 . S
H1338 C1356 0.951 . S
H1339 C1358 0.951 . S
H1340 C1360 0.950 . S
H1341 C1361 0.950 . S
H1342 C1363 0.950 . S
H1343 C1366 0.950 . S
H1344 C1367 0.950 . S
H1345 C1369 0.950 . S
H1346 C1370 0.950 . S
H1347 C1371 0.951 . S
H1348 C1373 0.951 . S
H1349 C1375 0.950 . S
H1350 C1376 0.950 . S
H1351 C1378 0.942 1_545 S
H1352 C1381 0.950 . S
H1353 C1382 0.950 . S
H1354 C1384 0.950 . S
H1355 C1385 0.950 . S
C1356 H1338 0.951 . S
C1356 C1357 1.366 1_545 S
C1356 C1358 1.388 . S
C1357 C1356 1.366 1_565 S
C1357 C1361 1.385 . S
C1358 H1339 0.951 . S
C1358 C1356 1.388 . S
C1358 C1359 1.366 1_545 S
C1359 C1358 1.366 1_565 S
C1359 C1360 1.414 . S
C1359 C1362 1.499 . S
C1360 H1340 0.950 . S
C1360 C1359 1.414 . S
C1360 C1361 1.374 . S
C1361 H1341 0.950 . S
C1361 C1357 1.385 . S
C1361 C1360 1.374 . S
C1362 C1359 1.499 . S
C1362 C1363 1.373 . S
C1362 C1364 1.389 . S
C1363 H1342 0.950 . S
C1363 C1362 1.373 . S
C1363 C1379 1.377 . S
C1364 C1362 1.389 . S
C1364 C1365 1.524 . S
C1364 C1378 1.379 . S
C1365 C1364 1.524 . S
C1365 C1366 1.397 . S
C1365 C1370 1.363 1_565 S
C1366 H1343 0.950 . S
C1366 C1365 1.397 . S
C1366 C1367 1.334 . S
C1367 H1344 0.950 . S
C1367 C1366 1.334 . S
C1367 C1368 1.287 . S
C1368 C1367 1.287 . S
C1368 C1369 1.524 1_565 S
C1368 H1387 0.913 . S
C1369 H1345 0.950 . S
C1369 C1368 1.524 1_545 S
C1369 C1370 1.415 . S
C1370 H1346 0.950 . S
C1370 C1365 1.363 1_545 S
C1370 C1369 1.415 . S
C1371 H1347 0.951 . S
C1371 C1372 1.379 . S
C1371 C1373 1.388 . S
C1372 C1371 1.379 . S
C1372 C1376 1.372 1_565 S
C1373 H1348 0.951 . S
C1373 C1371 1.388 . S
C1373 C1374 1.385 . S
C1374 C1373 1.385 . S
C1374 C1375 1.394 1_565 S
C1374 C1377 1.499 . S
C1375 H1349 0.950 . S
C1375 C1374 1.394 1_545 S
C1375 C1376 1.374 . S
C1376 H1350 0.950 . S
C1376 C1372 1.372 1_545 S
C1376 C1375 1.374 . S
C1377 C1374 1.499 . S
C1377 C1378 1.373 . S
C1377 C1379 1.393 . S
C1378 H1351 0.942 1_565 S
C1378 C1364 1.379 . S
C1378 C1377 1.373 . S
C1379 C1363 1.377 . S
C1379 C1377 1.393 . S
C1379 C1380 1.525 . S
C1380 C1379 1.525 . S
C1380 C1381 1.375 1_565 S
C1380 C1385 1.382 . S
C1381 H1352 0.950 . S
C1381 C1380 1.375 1_545 S
C1381 C1382 1.334 . S
C1382 H1353 0.950 . S
C1382 C1381 1.334 . S
C1382 C1383 1.287 . S
C1383 C1382 1.287 . S
C1383 C1384 1.524 1_545 S
C1383 H1386 0.999 . S
C1384 H1354 0.950 . S
C1384 C1383 1.524 1_565 S
C1384 C1385 1.415 . S
C1385 H1355 0.950 . S
C1385 C1380 1.382 . S
C1385 C1384 1.415 . S
H1386 C1383 0.999 . S
H1387 C1368 0.913 . S
H1388 C1406 0.951 . S
H1389 C1408 0.951 . S
H1390 C1410 0.950 . S
H1391 C1411 0.950 . S
H1392 C1413 0.950 . S
H1393 C1416 0.950 . S
H1394 C1417 0.950 . S
H1395 C1419 0.950 . S
H1396 C1420 0.950 . S
H1397 C1421 0.951 . S
H1398 C1423 0.951 . S
H1399 C1425 0.950 . S
H1400 C1426 0.950 . S
H1401 C1428 0.950 . S
H1402 C1431 0.950 . S
H1403 C1432 0.950 . S
H1404 C1434 0.950 . S
H1405 C1435 0.950 . S
C1406 H1388 0.951 . S
C1406 C1407 1.366 . S
C1406 C1408 1.388 . S
C1407 C1406 1.366 . S
C1407 C1411 1.385 . S
C1408 H1389 0.951 . S
C1408 C1406 1.388 . S
C1408 C1409 1.366 . S
C1409 C1408 1.366 . S
C1409 C1410 1.414 . S
C1409 C1412 1.499 . S
C1410 H1390 0.950 . S
C1410 C1409 1.414 . S
C1410 C1411 1.374 . S
C1411 H1391 0.950 . S
C1411 C1407 1.385 . S
C1411 C1410 1.374 . S
C1412 C1409 1.499 . S
C1412 C1413 1.373 . S
C1412 C1414 1.389 . S
C1413 H1392 0.950 . S
C1413 C1412 1.373 . S
C1413 C1429 1.377 . S
C1414 C1412 1.389 . S
C1414 C1415 1.524 . S
C1414 C1428 1.377 . S
C1415 C1414 1.524 . S
C1415 C1416 1.397 . S
C1415 C1420 1.363 . S
C1416 H1393 0.950 . S
C1416 C1415 1.397 . S
C1416 C1417 1.334 . S
C1417 H1394 0.950 . S
C1417 C1416 1.334 . S
C1417 C1418 1.287 . S
C1418 C1417 1.287 . S
C1418 C1419 1.524 . S
C1418 H1437 0.913 . S
C1419 H1395 0.950 . S
C1419 C1418 1.524 . S
C1419 C1420 1.415 . S
C1420 H1396 0.950 . S
C1420 C1415 1.363 . S
C1420 C1419 1.415 . S
C1421 H1397 0.951 . S
C1421 C1422 1.366 . S
C1421 C1423 1.388 . S
C1422 C1421 1.366 . S
C1422 C1426 1.385 . S
C1423 H1398 0.951 . S
C1423 C1421 1.388 . S
C1423 C1424 1.366 . S
C1424 C1423 1.366 . S
C1424 C1425 1.414 . S
C1424 C1427 1.499 . S
C1425 H1399 0.950 . S
C1425 C1424 1.414 . S
C1425 C1426 1.374 . S
C1426 H1400 0.950 . S
C1426 C1422 1.385 . S
C1426 C1425 1.374 . S
C1427 C1424 1.499 . S
C1427 C1428 1.373 . S
C1427 C1429 1.389 . S
C1428 H1401 0.950 . S
C1428 C1414 1.377 . S
C1428 C1427 1.373 . S
C1429 C1413 1.377 . S
C1429 C1427 1.389 . S
C1429 C1430 1.524 . S
C1430 C1429 1.524 . S
C1430 C1431 1.397 . S
C1430 C1435 1.363 . S
C1431 H1402 0.950 . S
C1431 C1430 1.397 . S
C1431 C1432 1.334 . S
C1432 H1403 0.950 . S
C1432 C1431 1.334 . S
C1432 C1433 1.287 . S
C1433 C1432 1.287 . S
C1433 C1434 1.524 . S
C1433 H1436 0.999 . S
C1434 H1404 0.950 . S
C1434 C1433 1.524 . S
C1434 C1435 1.415 . S
C1435 H1405 0.950 . S
C1435 C1430 1.363 . S
C1435 C1434 1.415 . S
H1436 C1433 0.999 . S
H1437 C1418 0.913 . S
H1438 C1456 0.951 . S
H1439 C1458 0.951 . S
H1440 C1460 0.950 . S
H1441 C1461 0.950 . S
H1442 C1463 0.950 . S
H1443 C1466 0.950 . S
H1444 C1467 0.950 . S
H1445 C1469 0.950 . S
H1446 C1470 0.950 . S
H1447 C1471 0.951 . S
H1448 C1473 0.951 . S
H1449 C1475 0.950 . S
H1450 C1476 0.950 . S
H1451 C1478 0.950 . S
H1452 C1481 0.950 . S
H1453 C1482 0.950 . S
H1454 C1484 0.950 . S
H1455 C1485 0.950 . S
C1456 H1438 0.951 . S
C1456 C1457 1.366 . S
C1456 C1458 1.388 . S
C1457 C1456 1.366 . S
C1457 C1461 1.385 . S
C1458 H1439 0.951 . S
C1458 C1456 1.388 . S
C1458 C1459 1.366 . S
C1459 C1458 1.366 . S
C1459 C1460 1.414 . S
C1459 C1462 1.499 . S
C1460 H1440 0.950 . S
C1460 C1459 1.414 . S
C1460 C1461 1.374 . S
C1461 H1441 0.950 . S
C1461 C1457 1.385 . S
C1461 C1460 1.374 . S
C1462 C1459 1.499 . S
C1462 C1463 1.373 . S
C1462 C1464 1.389 . S
C1463 H1442 0.950 . S
C1463 C1462 1.373 . S
C1463 C1479 1.377 . S
C1464 C1462 1.389 . S
C1464 C1465 1.524 . S
C1464 C1478 1.377 . S
C1465 C1464 1.524 . S
C1465 C1466 1.397 . S
C1465 C1470 1.363 . S
C1466 H1443 0.950 . S
C1466 C1465 1.397 . S
C1466 C1467 1.334 . S
C1467 H1444 0.950 . S
C1467 C1466 1.334 . S
C1467 C1468 1.287 . S
C1468 C1467 1.287 . S
C1468 C1469 1.524 . S
C1468 H1487 0.913 . S
C1469 H1445 0.950 . S
C1469 C1468 1.524 . S
C1469 C1470 1.415 . S
C1470 H1446 0.950 . S
C1470 C1465 1.363 . S
C1470 C1469 1.415 . S
C1471 H1447 0.951 . S
C1471 C1472 1.366 . S
C1471 C1473 1.388 . S
C1472 C1471 1.366 . S
C1472 C1476 1.385 . S
C1473 H1448 0.951 . S
C1473 C1471 1.388 . S
C1473 C1474 1.366 . S
C1474 C1473 1.366 . S
C1474 C1475 1.414 . S
C1474 C1477 1.499 . S
C1475 H1449 0.950 . S
C1475 C1474 1.414 . S
C1475 C1476 1.374 . S
C1476 H1450 0.950 . S
C1476 C1472 1.385 . S
C1476 C1475 1.374 . S
C1477 C1474 1.499 . S
C1477 C1478 1.373 . S
C1477 C1479 1.389 . S
C1478 H1451 0.950 . S
C1478 C1464 1.377 . S
C1478 C1477 1.373 . S
C1479 C1463 1.377 . S
C1479 C1477 1.389 . S
C1479 C1480 1.524 . S
C1480 C1479 1.524 . S
C1480 C1481 1.397 . S
C1480 C1485 1.363 . S
C1481 H1452 0.950 . S
C1481 C1480 1.397 . S
C1481 C1482 1.334 . S
C1482 H1453 0.950 . S
C1482 C1481 1.334 . S
C1482 C1483 1.287 . S
C1483 C1482 1.287 . S
C1483 C1484 1.524 . S
C1483 H1486 0.999 . S
C1484 H1454 0.950 . S
C1484 C1483 1.524 . S
C1484 C1485 1.415 . S
C1485 H1455 0.950 . S
C1485 C1480 1.363 . S
C1485 C1484 1.415 . S
H1486 C1483 0.999 . S
H1487 C1468 0.913 . S
C307 C125 1.811 . S
C322 C169 1.921 . S
C372 C190 1.570 . S
C357 C144 1.474 . S
C422 C224 1.349 . S
C407 C87 1.295 . S
C472 C258 1.543 . S
C457 C106 1.432 . S
C522 C160 1.921 . S
C507 C49 1.832 1_556 S
C557 C68 1.492 1_556 S
C572 C199 1.570 . S
C607 C11 1.312 . S
C622 C233 1.348 . S
C657 C30 1.474 . S
C672 C267 1.543 . S
C722 C181 0.351 . S
C707 C97 0.506 . S
C772 C186 0.846 . S
C757 C116 0.836 . S
C822 C220 0.754 . S
C807 C135 0.753 . S
C857 C78 0.357 . S
C872 C254 0.256 . S
C907 C21 0.504 . S
C922 C152 0.351 . S
C972 C215 0.846 . S
C957 C40 0.835 . S
C1022 C249 0.754 . S
C1007 C59 0.753 . S
C1057 C2 0.356 . S
C1072 C283 0.255 . S
C1107 C101 1.281 . S
C1122 C165 1.305 . S
C1157 C120 1.730 . S
C1172 C194 1.764 . S
C1222 C228 1.575 . S
C1207 C139 1.550 . S
C1272 C262 1.669 . S
C1257 C82 1.633 . S
C1307 C25 1.282 . S
C1322 C156 1.299 1_655 S
C1372 C203 1.762 1_565 S
C1357 C44 1.731 . S
C1422 C237 1.575 . S
C1407 C63 1.549 . S
C1457 C6 1.633 . S
C1472 C271 1.669 . S
