# Generated by pormake.
# Topology pyr, (3,6)-cn, num edge types: 1
# Building blocks:
#     Node 0, Type 0, BuildingBlock: MIDCAF_clean_linker_0, # of connection points: 3
#     Node 1, Type 0, BuildingBlock: MIDCAF_clean_linker_0, # of connection points: 3
#     Node 2, Type 0, BuildingBlock: MIDCAF_clean_linker_0, # of connection points: 3
#     Node 3, Type 0, BuildingBlock: MIDCAF_clean_linker_0, # of connection points: 3
#     Node 4, Type 0, BuildingBlock: MIDCAF_clean_linker_0, # of connection points: 3
#     Node 5, Type 0, BuildingBlock: MIDCAF_clean_linker_0, # of connection points: 3
#     Node 6, Type 0, BuildingBlock: MIDCAF_clean_linker_0, # of connection points: 3
#     Node 7, Type 0, BuildingBlock: MIDCAF_clean_linker_0, # of connection points: 3
#     Node 8, Type 1, BuildingBlock: PAMTUU_clean_sbu_0, # of connection points: 6
#     Node 9, Type 1, BuildingBlock: PAMTUU_clean_sbu_0, # of connection points: 6
#     Node 10, Type 1, BuildingBlock: PAMTUU_clean_sbu_0, # of connection points: 6
#     Node 11, Type 1, BuildingBlock: PAMTUU_clean_sbu_0, # of connection points: 6
#     Edge 12, Type (0, 1), BuildingBlock: UVAHIK_clean_linker_0, # of connection points: 2
#     Edge 13, Type (0, 1), BuildingBlock: UVAHIK_clean_linker_0, # of connection points: 2
#     Edge 14, Type (0, 1), BuildingBlock: UVAHIK_clean_linker_0, # of connection points: 2
#     Edge 15, Type (0, 1), BuildingBlock: UVAHIK_clean_linker_0, # of connection points: 2
#     Edge 16, Type (0, 1), BuildingBlock: UVAHIK_clean_linker_0, # of connection points: 2
#     Edge 17, Type (0, 1), BuildingBlock: UVAHIK_clean_linker_0, # of connection points: 2
#     Edge 18, Type (0, 1), BuildingBlock: UVAHIK_clean_linker_0, # of connection points: 2
#     Edge 19, Type (0, 1), BuildingBlock: UVAHIK_clean_linker_0, # of connection points: 2
#     Edge 20, Type (0, 1), BuildingBlock: UVAHIK_clean_linker_0, # of connection points: 2
#     Edge 21, Type (0, 1), BuildingBlock: UVAHIK_clean_linker_0, # of connection points: 2
#     Edge 22, Type (0, 1), BuildingBlock: UVAHIK_clean_linker_0, # of connection points: 2
#     Edge 23, Type (0, 1), BuildingBlock: UVAHIK_clean_linker_0, # of connection points: 2
#     Edge 24, Type (0, 1), BuildingBlock: UVAHIK_clean_linker_0, # of connection points: 2
#     Edge 25, Type (0, 1), BuildingBlock: UVAHIK_clean_linker_0, # of connection points: 2
#     Edge 26, Type (0, 1), BuildingBlock: UVAHIK_clean_linker_0, # of connection points: 2
#     Edge 27, Type (0, 1), BuildingBlock: UVAHIK_clean_linker_0, # of connection points: 2
#     Edge 28, Type (0, 1), BuildingBlock: UVAHIK_clean_linker_0, # of connection points: 2
#     Edge 29, Type (0, 1), BuildingBlock: UVAHIK_clean_linker_0, # of connection points: 2
#     Edge 30, Type (0, 1), BuildingBlock: UVAHIK_clean_linker_0, # of connection points: 2
#     Edge 31, Type (0, 1), BuildingBlock: UVAHIK_clean_linker_0, # of connection points: 2
#     Edge 32, Type (0, 1), BuildingBlock: UVAHIK_clean_linker_0, # of connection points: 2
#     Edge 33, Type (0, 1), BuildingBlock: UVAHIK_clean_linker_0, # of connection points: 2
#     Edge 34, Type (0, 1), BuildingBlock: UVAHIK_clean_linker_0, # of connection points: 2
#     Edge 35, Type (0, 1), BuildingBlock: UVAHIK_clean_linker_0, # of connection points: 2
# Relax obj value: 0.065
# Max RMSD: 0.112
# Mean RMSD: 0.048
data_MOF--net-pyr--node1-PAMTUU_clean_sbu_0--node2-MIDCAF_clean_linker_0--edge1-UVAHIK_clean_linker_0
_symmetry_space_group_name_H-M    P1
_symmetry_Int_Tables_number       1
_symmetry_cell_setting            triclinic
loop_
_symmetry_equiv_pos_as_xyz
'x, y, z'
_cell_length_a     57.576172
_cell_length_b     58.590489
_cell_length_c     56.951081
_cell_angle_alpha  90.208149
_cell_angle_beta   89.505555
_cell_angle_gamma 98.799287
loop_
_atom_site_label
_atom_site_type_symbol
_atom_site_fract_x
_atom_site_fract_y
_atom_site_fract_z
_atom_type_partial_charge
C0 C 0.26075 0.24639 0.28073 0.0
C1 C 0.27059 0.23003 0.29384 0.0
C2 C 0.2933 0.22573 0.28792 0.0
C3 C 0.30529 0.23651 0.26854 0.0
H4 H 0.36272 0.23296 0.22183 0.0
H5 H 0.38807 0.20851 0.20307 0.0
H6 H 0.36407 0.22703 0.13497 0.0
H7 H 0.33969 0.25228 0.15372 0.0
H8 H 0.31308 0.29754 0.1526 0.0
H9 H 0.29155 0.32258 0.12987 0.0
H10 H 0.24965 0.33288 0.1912 0.0
H11 H 0.27132 0.30853 0.21395 0.0
H12 H 0.26425 0.26917 0.25132 0.0
H13 H 0.24321 0.24998 0.28455 0.0
H14 H 0.30164 0.2136 0.29795 0.0
H15 H 0.32242 0.23221 0.26402 0.0
N16 N 0.32348 0.25096 0.22248 0.0
N17 N 0.32247 0.27363 0.18871 0.0
N18 N 0.29696 0.2774 0.22028 0.0
C19 C 0.33184 0.25723 0.20069 0.0
C20 C 0.30518 0.284 0.19855 0.0
C21 C 0.306 0.26096 0.23239 0.0
C22 C 0.34911 0.24445 0.18927 0.0
C23 C 0.36314 0.23203 0.20283 0.0
C24 C 0.37754 0.21787 0.19206 0.0
C25 C 0.37796 0.21549 0.16747 0.0
C26 C 0.36452 0.22861 0.15391 0.0
C27 C 0.35041 0.24305 0.16468 0.0
C28 C 0.29384 0.30084 0.18509 0.0
C29 C 0.2995 0.30541 0.16131 0.0
C30 C 0.28709 0.31966 0.14824 0.0
C31 C 0.26885 0.32969 0.15869 0.0
C32 C 0.26381 0.32574 0.18265 0.0
C33 C 0.27616 0.31155 0.19568 0.0
C34 C 0.29493 0.25201 0.25477 0.0
C35 C 0.27282 0.25735 0.26152 0.0
C36 C 0.14126 0.81707 0.68847 0.0
C37 C 0.14111 0.81603 0.66383 0.0
C38 C 0.1546 0.80124 0.65234 0.0
C39 C 0.16841 0.78819 0.66521 0.0
H40 H 0.21864 0.74484 0.65781 0.0
H41 H 0.24592 0.72235 0.63896 0.0
H42 H 0.26519 0.69901 0.70695 0.0
H43 H 0.2385 0.72192 0.7258 0.0
H44 H 0.24149 0.76159 0.7655 0.0
H45 H 0.25822 0.78055 0.80077 0.0
H46 H 0.20553 0.82572 0.80031 0.0
H47 H 0.18905 0.80715 0.76457 0.0
H48 H 0.15529 0.80584 0.72028 0.0
H49 H 0.13119 0.82845 0.6978 0.0
H50 H 0.15462 0.79992 0.63337 0.0
H51 H 0.17894 0.77732 0.65577 0.0
N52 N 0.1969 0.76172 0.69294 0.0
N53 N 0.21759 0.75804 0.72765 0.0
N54 N 0.19054 0.78398 0.72605 0.0
C55 C 0.21282 0.7516 0.70506 0.0
C56 C 0.20657 0.7742 0.7383 0.0
C57 C 0.18549 0.77776 0.70342 0.0
C58 C 0.22665 0.73546 0.69333 0.0
C59 C 0.22845 0.73465 0.66871 0.0
C60 C 0.24404 0.72169 0.65789 0.0
C61 C 0.25801 0.70916 0.67147 0.0
C62 C 0.25513 0.70893 0.696 0.0
C63 C 0.23973 0.72199 0.70681 0.0
C64 C 0.21414 0.78308 0.76188 0.0
C65 C 0.23319 0.77532 0.77304 0.0
C66 C 0.24273 0.78611 0.79343 0.0
C67 C 0.2334 0.80485 0.80322 0.0
C68 C 0.21342 0.81163 0.79294 0.0
C69 C 0.2039 0.80088 0.77249 0.0
C70 C 0.16921 0.78985 0.68985 0.0
C71 C 0.15521 0.8042 0.70133 0.0
C72 C 0.63705 0.28676 0.89199 0.0
C73 C 0.62206 0.27005 0.87912 0.0
C74 C 0.61697 0.27552 0.85575 0.0
C75 C 0.6268 0.29675 0.84561 0.0
H76 H 0.61533 0.34884 0.79477 0.0
H77 H 0.59905 0.36594 0.76087 0.0
H78 H 0.65879 0.42036 0.75967 0.0
H79 H 0.67474 0.40363 0.79389 0.0
H80 H 0.71436 0.40666 0.83469 0.0
H81 H 0.75078 0.42494 0.85311 0.0
H82 H 0.74252 0.37201 0.90638 0.0
H83 H 0.70667 0.3536 0.8879 0.0
H84 H 0.65866 0.31988 0.89238 0.0
H85 H 0.64102 0.2838 0.91016 0.0
H86 H 0.60578 0.2632 0.84502 0.0
H87 H 0.62272 0.30014 0.82754 0.0
N88 N 0.64534 0.34423 0.82807 0.0
N89 N 0.67635 0.37554 0.82884 0.0
N90 N 0.67391 0.34662 0.8575 0.0
C91 C 0.65632 0.36452 0.81858 0.0
C92 C 0.68531 0.3667 0.84832 0.0
C93 C 0.65403 0.33519 0.84762 0.0
C94 C 0.64645 0.37474 0.79734 0.0
C95 C 0.62506 0.36445 0.78733 0.0
C96 C 0.61574 0.37425 0.76766 0.0
C97 C 0.62747 0.39468 0.75725 0.0
C98 C 0.64891 0.40489 0.76724 0.0
C99 C 0.65821 0.39513 0.78691 0.0
C100 C 0.70741 0.3785 0.85962 0.0
C101 C 0.7203 0.3989 0.85033 0.0
C102 C 0.7412 0.40949 0.861 0.0
C103 C 0.74987 0.39996 0.88125 0.0
C104 C 0.73681 0.3797 0.8906 0.0
C105 C 0.71601 0.36917 0.87999 0.0
C106 C 0.64228 0.31305 0.85839 0.0
C107 C 0.64711 0.30773 0.88177 0.0
C108 C 0.77988 0.64995 0.38809 0.0
C109 C 0.76804 0.62883 0.37949 0.0
C110 C 0.77767 0.6188 0.35987 0.0
C111 C 0.79846 0.6297 0.3491 0.0
H112 H 0.84552 0.62343 0.29517 0.0
H113 H 0.86173 0.60611 0.26115 0.0
H114 H 0.91989 0.66218 0.25927 0.0
H115 H 0.90336 0.67989 0.29314 0.0
H116 H 0.90907 0.71632 0.3421 0.0
H117 H 0.92645 0.75249 0.36086 0.0
H118 H 0.8581 0.76104 0.38842 0.0
H119 H 0.84122 0.7247 0.37074 0.0
H120 H 0.80905 0.67703 0.38466 0.0
H121 H 0.77332 0.65803 0.4034 0.0
H122 H 0.76896 0.60267 0.35259 0.0
H123 H 0.80525 0.62151 0.33399 0.0
N124 N 0.84231 0.65314 0.32787 0.0
N125 N 0.87298 0.68471 0.32665 0.0
N126 N 0.84278 0.68349 0.3548 0.0
C127 C 0.86262 0.66395 0.31778 0.0
C128 C 0.86304 0.69463 0.34516 0.0
C129 C 0.8323 0.66275 0.34644 0.0
C130 C 0.87304 0.65318 0.2971 0.0
C131 C 0.86179 0.63215 0.28762 0.0
C132 C 0.87121 0.62206 0.26807 0.0
C133 C 0.89223 0.63261 0.25732 0.0
C134 C 0.90353 0.65363 0.26681 0.0
C135 C 0.89409 0.66375 0.2864 0.0
C136 C 0.87378 0.7174 0.35505 0.0
C137 C 0.8978 0.726 0.35213 0.0
C138 C 0.90774 0.74686 0.36286 0.0
C139 C 0.89384 0.75981 0.37653 0.0
C140 C 0.86966 0.75142 0.37873 0.0
C141 C 0.85987 0.73052 0.36835 0.0
C142 C 0.81019 0.6509 0.35768 0.0
C143 C 0.80057 0.66082 0.37736 0.0
C144 C 0.64626 0.81707 0.85632 0.0
C145 C 0.64476 0.81605 0.88092 0.0
C146 C 0.65663 0.80046 0.89293 0.0
C147 C 0.67022 0.78652 0.88058 0.0
H148 H 0.70813 0.73199 0.88761 0.0
H149 H 0.72941 0.70469 0.90738 0.0
H150 H 0.76494 0.69331 0.84221 0.0
H151 H 0.74349 0.71995 0.82242 0.0
H152 H 0.74691 0.75652 0.78285 0.0
H153 H 0.76886 0.77628 0.75019 0.0
H154 H 0.72546 0.83015 0.75374 0.0
H155 H 0.70362 0.81066 0.78659 0.0
H156 H 0.66127 0.805 0.82508 0.0
H157 H 0.63744 0.82906 0.84662 0.0
H158 H 0.65559 0.79922 0.91189 0.0
H159 H 0.67958 0.77504 0.89038 0.0
N160 N 0.6974 0.75752 0.85328 0.0
N161 N 0.72127 0.75436 0.82023 0.0
N162 N 0.69676 0.7827 0.82144 0.0
C163 C 0.71351 0.74676 0.84183 0.0
C164 C 0.71301 0.7723 0.80988 0.0
C165 C 0.68878 0.77538 0.84306 0.0
C166 C 0.72424 0.72837 0.85345 0.0
C167 C 0.7202 0.72338 0.87742 0.0
C168 C 0.73248 0.70783 0.88879 0.0
C169 C 0.74893 0.69689 0.87641 0.0
C170 C 0.75218 0.70117 0.85225 0.0
C171 C 0.73998 0.71668 0.84092 0.0
C172 C 0.72372 0.78217 0.78767 0.0
C173 C 0.74175 0.77239 0.77648 0.0
C174 C 0.75428 0.78364 0.75764 0.0
C175 C 0.74907 0.80491 0.74962 0.0
C176 C 0.73012 0.81397 0.75984 0.0
C177 C 0.71755 0.80271 0.77861 0.0
C178 C 0.67245 0.78818 0.85601 0.0
C179 C 0.66004 0.80336 0.844 0.0
C180 C 0.79491 0.20555 0.24376 0.0
C181 C 0.77888 0.21595 0.23062 0.0
C182 C 0.77458 0.23813 0.2369 0.0
C183 C 0.78511 0.24916 0.25679 0.0
H184 H 0.77655 0.30017 0.30386 0.0
H185 H 0.75308 0.32636 0.32233 0.0
H186 H 0.78351 0.3149 0.38951 0.0
H187 H 0.80689 0.28822 0.37108 0.0
H188 H 0.84636 0.25434 0.37307 0.0
H189 H 0.8721 0.2331 0.39536 0.0
H190 H 0.88043 0.19088 0.33443 0.0
H191 H 0.85538 0.21223 0.31209 0.0
H192 H 0.81732 0.20777 0.27361 0.0
H193 H 0.79867 0.18853 0.23913 0.0
H194 H 0.76218 0.24646 0.22712 0.0
H195 H 0.78075 0.26588 0.26169 0.0
N196 N 0.7994 0.26596 0.30317 0.0
N197 N 0.82187 0.2641 0.33712 0.0
N198 N 0.82521 0.2389 0.3056 0.0
C199 C 0.8057 0.27394 0.325 0.0
C200 C 0.83186 0.24665 0.32739 0.0
C201 C 0.80907 0.24845 0.29334 0.0
C202 C 0.79349 0.29186 0.33599 0.0
C203 C 0.77847 0.30333 0.32254 0.0
C204 C 0.7651 0.31854 0.33311 0.0
C205 C 0.76636 0.32267 0.35741 0.0
C206 C 0.78197 0.31186 0.37078 0.0
C207 C 0.79547 0.29668 0.36017 0.0
C208 C 0.84865 0.23498 0.34078 0.0
C209 C 0.85388 0.24069 0.36436 0.0
C210 C 0.86853 0.22843 0.37719 0.0
C211 C 0.87831 0.21026 0.36669 0.0
C212 C 0.8735 0.20497 0.34299 0.0
C213 C 0.85892 0.21716 0.3302 0.0
C214 C 0.80031 0.23828 0.27063 0.0
C215 C 0.80563 0.21665 0.26347 0.0
C216 C 0.27526 0.62093 0.17411 0.0
C217 C 0.26899 0.62832 0.15183 0.0
C218 C 0.28379 0.64675 0.14114 0.0
C219 C 0.3041 0.6576 0.15238 0.0
H220 H 0.34011 0.72561 0.16493 0.0
H221 H 0.35699 0.76248 0.14758 0.0
H222 H 0.42563 0.75305 0.17184 0.0
H223 H 0.40859 0.71607 0.18978 0.0
H224 H 0.39582 0.68401 0.2462 0.0
H225 H 0.4122 0.66661 0.28002 0.0
H226 H 0.36758 0.60202 0.2659 0.0
H227 H 0.35115 0.61933 0.23216 0.0
H228 H 0.30009 0.62545 0.20238 0.0
H229 H 0.26437 0.60669 0.18283 0.0
H230 H 0.27946 0.6531 0.12414 0.0
H231 H 0.31486 0.67181 0.14349 0.0
N232 N 0.34254 0.68324 0.17839 0.0
N233 N 0.3719 0.68488 0.20698 0.0
N234 N 0.34182 0.65275 0.2051 0.0
C235 C 0.36232 0.6947 0.1884 0.0
C236 C 0.36171 0.66388 0.21555 0.0
C237 C 0.33215 0.6623 0.18643 0.0
C238 C 0.37295 0.71775 0.17882 0.0
C239 C 0.35881 0.73136 0.16674 0.0
C240 C 0.36846 0.75262 0.15684 0.0
C241 C 0.39267 0.76077 0.15826 0.0
C242 C 0.40692 0.74722 0.17032 0.0
C243 C 0.39714 0.7261 0.18073 0.0
C244 C 0.37205 0.65319 0.23623 0.0
C245 C 0.38947 0.66608 0.25022 0.0
C246 C 0.39881 0.65611 0.26979 0.0
C247 C 0.39129 0.63283 0.27585 0.0
C248 C 0.37403 0.6199 0.26175 0.0
C249 C 0.36448 0.62993 0.24238 0.0
C250 C 0.3105 0.65023 0.17462 0.0
C251 C 0.29584 0.63161 0.18528 0.0
C252 C 0.14578 0.27733 0.64725 0.0
C253 C 0.1239 0.26592 0.65529 0.0
C254 C 0.11303 0.27573 0.67431 0.0
C255 C 0.12364 0.29649 0.68473 0.0
H256 H 0.12403 0.33962 0.74588 0.0
H257 H 0.10809 0.35656 0.78062 0.0
H258 H 0.15549 0.42008 0.76891 0.0
H259 H 0.17139 0.40331 0.73424 0.0
H260 H 0.22187 0.3954 0.70328 0.0
H261 H 0.25769 0.41426 0.68352 0.0
H262 H 0.23721 0.37597 0.62025 0.0
H263 H 0.20171 0.35698 0.63987 0.0
H264 H 0.17313 0.30611 0.65064 0.0
H265 H 0.15503 0.27016 0.63304 0.0
H266 H 0.09609 0.26759 0.68091 0.0
H267 H 0.11466 0.30362 0.69915 0.0
N268 N 0.14806 0.33942 0.70646 0.0
N269 N 0.17853 0.37117 0.7049 0.0
N270 N 0.17638 0.34207 0.67632 0.0
C271 C 0.15881 0.35988 0.71566 0.0
C272 C 0.1874 0.36238 0.68518 0.0
C273 C 0.15681 0.33037 0.68676 0.0
C274 C 0.14906 0.37002 0.73708 0.0
C275 C 0.13109 0.35721 0.75067 0.0
C276 C 0.12201 0.36689 0.77072 0.0
C277 C 0.13044 0.38974 0.77762 0.0
C278 C 0.14836 0.40254 0.76402 0.0
C279 C 0.1576 0.39281 0.74415 0.0
C280 C 0.20886 0.37461 0.67322 0.0
C281 C 0.22496 0.39107 0.68513 0.0
C282 C 0.24555 0.40178 0.67386 0.0
C283 C 0.25028 0.39662 0.6503 0.0
C284 C 0.23401 0.38047 0.63833 0.0
C285 C 0.21369 0.36948 0.64967 0.0
C286 C 0.14538 0.30801 0.67637 0.0
C287 C 0.15629 0.29801 0.65754 0.0
Tb288 Tb 0.03088 0.01577 0.498 0.0
Tb289 Tb 0.98618 1.01039 0.53502 0.0
C290 C 0.98899 0.97443 0.49358 0.0
C291 C 0.07977 0.0393 0.4571 0.0
C292 C 0.10945 0.07399 0.43246 0.0
C293 C 0.10388 0.05162 0.423 0.0
C294 C 0.08925 0.03443 0.43526 0.0
C295 C 0.08453 0.06179 0.46628 0.0
C296 C 0.09932 0.07897 0.4541 0.0
C297 C 0.06573 0.0205 0.47032 0.0
O298 O 1.00382 0.03187 0.48104 0.0
O299 O 0.98312 0.04028 0.5137 0.0
O300 O 0.01425 0.03538 0.55013 0.0
O301 O 0.0339 0.04864 0.51655 0.0
O302 O 0.94992 1.00893 0.54103 0.0
O303 O 0.97408 1.00869 0.56984 0.0
O304 O 1.00458 0.98186 0.54299 0.0
O305 O 0.04082 0.99786 0.52889 0.0
O306 O 0.01167 0.98151 0.49124 0.0
O307 O 0.97551 0.98548 0.50691 0.0
C308 C 0.98865 0.04326 0.49143 0.0
O309 O 0.06737 0.02162 0.49312 0.0
O310 O 0.04412 0.01435 0.46356 0.0
C311 C 0.02868 0.05127 0.5388 0.0
C312 C 0.93598 0.98832 0.575 0.0
C313 C 0.90592 0.95413 0.59975 0.0
C314 C 0.90067 0.97674 0.5981 0.0
C315 C 0.91561 0.99368 0.58587 0.0
C316 C 0.94101 0.96565 0.57588 0.0
C317 C 0.92606 0.94865 0.58819 0.0
C318 C 0.95213 1.00683 0.56364 0.0
C319 C 0.0274 0.98247 0.54172 0.0
H320 H 0.11096 0.04732 0.40615 0.0
H321 H 0.08559 0.01721 0.42784 0.0
H322 H 0.07724 0.06594 0.48309 0.0
H323 H 0.10337 0.09595 0.46199 0.0
H324 H 0.88506 0.98139 0.60643 0.0
H325 H 0.91144 1.01109 0.5852 0.0
H326 H 0.9567 0.96125 0.56748 0.0
H327 H 0.93066 0.93144 0.58927 0.0
Tb328 Tb 0.52574 0.01868 0.0367 0.0
Tb329 Tb 0.48291 0.01181 0.99835 0.0
C330 C 0.52691 0.98761 0.99217 0.0
C331 C 0.57981 0.0427 0.06955 0.0
C332 C 0.61816 0.07644 0.08136 0.0
C333 C 0.61763 0.05333 0.08821 0.0
C334 C 0.59854 0.03661 0.08241 0.0
C335 C 0.58084 0.06549 0.06157 0.0
C336 C 0.59984 0.08226 0.06753 0.0
C337 C 0.55864 0.0256 0.06618 0.0
O338 O 0.53126 0.05051 0.01609 0.0
O339 O 0.50971 0.03836 0.98321 0.0
O340 O 0.48022 0.04197 0.01961 0.0
O341 O 0.49425 0.02823 0.05287 0.0
O342 O 0.47065 1.00684 0.96387 0.0
O343 O 0.44704 0.0122 0.99252 0.0
O344 O 0.47199 0.98567 0.02549 0.0
O345 O 0.50704 0.98436 0.0445 0.0
O346 O 0.53874 1.00404 1.00495 0.0
O347 O 0.50395 0.98506 0.99083 0.0
C348 C 0.52524 0.05352 0.99417 0.0
O349 O 0.53872 0.03334 0.06842 0.0
O350 O 0.55866 0.01178 0.04824 0.0
C351 C 0.48196 0.04218 0.04245 0.0
C352 C 0.43093 0.98907 0.96106 0.0
C353 C 0.39586 0.9554 0.94207 0.0
C354 C 0.39116 0.97778 0.94709 0.0
C355 C 0.40856 0.99444 0.95642 0.0
C356 C 0.43565 0.96662 0.95668 0.0
C357 C 0.41824 0.94992 0.94719 0.0
C358 C 0.44889 1.00732 0.97028 0.0
C359 C 0.48499 0.97578 0.04023 0.0
H360 H 0.63138 0.04839 0.09908 0.0
H361 H 0.59801 0.0191 0.08869 0.0
H362 H 0.56659 0.07049 0.05145 0.0
H363 H 0.59992 0.0999 0.06185 0.0
H364 H 0.374 0.98246 0.94384 0.0
H365 H 0.40456 1.01162 0.9599 0.0
H366 H 0.45282 0.9621 0.96031 0.0
H367 H 0.42248 0.9329 0.94339 0.0
Tb368 Tb 0.51015 0.48716 0.5012 0.0
Tb369 Tb 0.50907 0.53571 0.52932 0.0
C370 C 0.48829 0.52838 0.47876 0.0
C371 C 0.53351 0.44203 0.46682 0.0
C372 C 0.5732 0.42603 0.44727 0.0
C373 C 0.57255 0.44986 0.44935 0.0
C374 C 0.55288 0.45778 0.45909 0.0
C375 C 0.53378 0.4183 0.4642 0.0
C376 C 0.55343 0.41035 0.45446 0.0
C377 C 0.51404 0.45005 0.47965 0.0
O378 O 0.54597 0.5056 0.49863 0.0
O379 O 0.53874 0.54256 0.50509 0.0
O380 O 0.5335 0.51729 0.54819 0.0
O381 O 0.51587 0.4811 0.53843 0.0
O382 O 0.51005 0.57169 0.52879 0.0
O383 O 0.50794 0.55307 0.56149 0.0
O384 O 0.47827 0.51257 0.54197 0.0
O385 O 0.47391 0.48404 0.51363 0.0
O386 O 0.50149 0.51217 0.47535 0.0
O387 O 0.48489 0.5361 0.50002 0.0
C388 C 0.55235 0.52808 0.49728 0.0
O389 O 0.51749 0.45318 0.50201 0.0
O390 O 0.50524 0.46709 0.4704 0.0
C391 C 0.52952 0.49499 0.55242 0.0
C392 C 0.48681 0.58406 0.55884 0.0
C393 C 0.44867 0.60538 0.57404 0.0
C394 C 0.47195 0.61641 0.57711 0.0
C395 C 0.49087 0.60579 0.56959 0.0
C396 C 0.46368 0.57308 0.55543 0.0
C397 C 0.44476 0.58361 0.56302 0.0
C398 C 0.50667 0.57274 0.55138 0.0
C399 C 0.46601 0.49437 0.53196 0.0
H400 H 0.58755 0.46239 0.44422 0.0
H401 H 0.55303 0.47619 0.46114 0.0
H402 H 0.51902 0.40591 0.47019 0.0
H403 H 0.55324 0.3919 0.45277 0.0
H404 H 0.47557 0.63332 0.58519 0.0
H405 H 0.50865 0.61452 0.57222 0.0
H406 H 0.46028 0.55627 0.54707 0.0
H407 H 0.4271 0.5745 0.56064 0.0
Tb408 Tb 0.0104 0.53688 1.0011 0.0
Tb409 Tb 0.00973 0.48874 0.03013 0.0
C410 C 0.03383 0.49537 0.98056 0.0
C411 C 0.98794 0.58556 0.97355 0.0
C412 C 0.94702 0.60347 0.96148 0.0
C413 C 0.9657 0.6041 0.94531 0.0
C414 C 0.98603 0.59526 0.95134 0.0
C415 C 0.96957 0.58544 0.98998 0.0
C416 C 0.94933 0.59451 0.98404 0.0
C417 C 0.00777 0.57325 0.97831 0.0
O418 O 0.97408 0.5194 0.99964 0.0
O419 O 0.98073 0.48228 1.00533 0.0
O420 O 0.98492 0.50714 0.04884 0.0
O421 O 0.99971 0.54382 0.0369 0.0
O422 O 1.00582 0.45254 0.03023 0.0
O423 O 0.01234 0.47195 0.06235 0.0
O424 O 0.03976 0.51242 0.04345 0.0
O425 O 0.04643 0.53897 1.01357 0.0
O426 O 0.02181 0.51223 0.97637 0.0
O427 O 0.03521 0.48716 1.00185 0.0
C428 C 0.96735 0.49699 0.99782 0.0
O429 O 0.01482 0.57316 0.99999 0.0
O430 O 1.00601 0.55283 0.96885 0.0
C431 C 0.98716 0.52966 0.05164 0.0
C432 C 0.03181 0.43994 0.05737 0.0
C433 C 0.07237 0.4211 0.06898 0.0
C434 C 0.05413 0.42131 0.08553 0.0
C435 C 0.03397 0.43061 0.07972 0.0
C436 C 0.04988 0.43944 0.04071 0.0
C437 C 0.0699 0.42996 0.04642 0.0
C438 C 0.01178 0.45191 0.05222 0.0
C439 C 0.05311 0.52968 0.03292 0.0
H440 H 0.9644 0.61109 0.92787 0.0
H441 H 0.99993 0.59528 0.93839 0.0
H442 H 0.97051 0.57765 1.0071 0.0
H443 H 0.9351 0.59363 0.99672 0.0
H444 H 0.05553 0.41443 0.103 0.0
H445 H 0.02031 0.43102 0.09286 0.0
H446 H 0.04882 0.44687 0.02345 0.0
H447 H 0.0838 0.43029 0.03343 0.0
C448 C 0.24069 0.22619 0.32671 0.0
C449 C 0.25644 0.21624 0.3123 0.0
C450 C 0.22574 0.21257 0.34236 0.0
C451 C 0.21714 0.15693 0.37348 0.0
H452 H 0.15074 0.16144 0.37014 0.0
C453 C 0.14653 0.0855 0.40921 0.0
C454 C 0.12647 0.09173 0.42023 0.0
C455 C 0.16275 0.10205 0.39791 0.0
C456 C 0.16925 0.16021 0.37162 0.0
H457 H 0.26894 0.18411 0.30342 0.0
H458 H 0.24333 0.1606 0.33107 0.0
H459 H 0.1791 0.18841 0.34793 0.0
H460 H 0.10772 0.12035 0.42787 0.0
H461 H 0.13644 0.14942 0.40867 0.0
H462 H 0.20742 0.12874 0.39707 0.0
C463 C 0.24266 0.17896 0.33032 0.0
C464 C 0.18547 0.17565 0.35888 0.0
C465 C 0.25742 0.1925 0.31453 0.0
C466 C 0.12308 0.11499 0.41974 0.0
C467 C 0.13942 0.13161 0.40851 0.0
C468 C 0.20096 0.14162 0.38635 0.0
C469 C 0.22642 0.18878 0.34412 0.0
C470 C 0.20953 0.1739 0.35938 0.0
C471 C 0.15946 0.12533 0.39749 0.0
C472 C 0.17678 0.14278 0.38524 0.0
H473 H 0.23973 0.24447 0.32573 0.0
H474 H 0.21355 0.22061 0.353 0.0
H475 H 0.23563 0.1554 0.37441 0.0
H476 H 0.14989 0.06781 0.40953 0.0
H477 H 0.17778 0.09651 0.38928 0.0
C478 C 0.24889 0.84283 0.82185 0.0
C479 C 0.24585 0.81858 0.82259 0.0
C480 C 0.2627 0.856 0.83848 0.0
C481 C 0.31216 0.85293 0.87781 0.0
H482 H 0.29714 0.91155 0.90029 0.0
C483 C 0.37426 0.91483 0.9378 0.0
C484 C 0.37756 0.93817 0.93099 0.0
C485 C 0.3568 0.89885 0.92736 0.0
C486 C 0.30159 0.89524 0.89411 0.0
H487 H 0.25414 0.78916 0.84207 0.0
H488 H 0.27838 0.81226 0.87119 0.0
H489 H 0.26816 0.88587 0.8778 0.0
H490 H 0.36554 0.96281 0.90734 0.0
H491 H 0.33509 0.93508 0.8894 0.0
H492 H 0.34581 0.86259 0.89377 0.0
C493 C 0.27026 0.82102 0.8575 0.0
C494 C 0.285 0.88054 0.88124 0.0
C495 C 0.25637 0.80781 0.84084 0.0
C496 C 0.36313 0.9451 0.91341 0.0
C497 C 0.34567 0.9292 0.90311 0.0
C498 C 0.32875 0.86764 0.89076 0.0
C499 C 0.27386 0.84527 0.85628 0.0
C500 C 0.29029 0.85947 0.87246 0.0
C501 C 0.34224 0.90593 0.91 0.0
C502 C 0.32383 0.88919 0.89855 0.0
H503 H 0.24145 0.85172 0.80778 0.0
H504 H 0.26544 0.87463 0.83676 0.0
H505 H 0.31688 0.83693 0.87109 0.0
H506 H 0.38492 0.90898 0.95145 0.0
H507 H 0.35448 0.88103 0.93308 0.0
C508 C 0.62013 0.42946 0.73328 0.0
C509 C 0.61743 0.40529 0.7362 0.0
C510 C 0.61085 0.43934 0.71366 0.0
C511 C 0.5665 0.42628 0.66586 0.0
H512 H 0.60142 0.48064 0.63642 0.0
C513 C 0.53681 0.46116 0.57728 0.0
C514 C 0.54005 0.48518 0.57345 0.0
C515 C 0.54632 0.45177 0.59703 0.0
C516 C 0.5912 0.46564 0.64453 0.0
H517 H 0.60286 0.37275 0.71994 0.0
H518 H 0.58665 0.38988 0.68604 0.0
H519 H 0.61755 0.46381 0.6706 0.0
H520 H 0.55608 0.51809 0.58781 0.0
H521 H 0.57236 0.50184 0.62235 0.0
H522 H 0.54008 0.42813 0.63997 0.0
C523 C 0.5957 0.40128 0.69915 0.0
C524 C 0.60053 0.45592 0.66424 0.0
C525 C 0.60505 0.39139 0.71874 0.0
C526 C 0.55323 0.49952 0.59002 0.0
C527 C 0.56272 0.49012 0.60986 0.0
C528 C 0.55714 0.43603 0.64622 0.0
C529 C 0.59844 0.42543 0.69624 0.0
C530 C 0.58838 0.43601 0.67522 0.0
C531 C 0.55938 0.46606 0.61377 0.0
C532 C 0.56934 0.45585 0.6351 0.0
H533 H 0.62912 0.44089 0.7464 0.0
H534 H 0.61307 0.45798 0.71238 0.0
H535 H 0.55632 0.41124 0.67395 0.0
H536 H 0.52692 0.44945 0.56494 0.0
H537 H 0.54363 0.43318 0.59898 0.0
C538 C 0.91274 0.63542 0.21763 0.0
C539 C 0.90211 0.62178 0.23626 0.0
C540 C 0.9215 0.62523 0.19774 0.0
C541 C 0.94025 0.57043 0.17629 0.0
H542 H 0.93287 0.5966 0.11489 0.0
C543 C 0.96456 0.52537 0.09011 0.0
C544 C 0.97591 0.5396 0.07227 0.0
C545 C 0.95498 0.535 0.10992 0.0
C546 C 0.93532 0.58916 0.1319 0.0
H547 H 0.89294 0.58648 0.24844 0.0
H548 H 0.90768 0.56878 0.21372 0.0
H549 H 0.91782 0.61411 0.14958 0.0
H550 H 0.98569 0.57526 0.06138 0.0
H551 H 0.96921 0.59189 0.09574 0.0
H552 H 0.95775 0.54546 0.15855 0.0
C553 C 0.90947 0.58743 0.21453 0.0
C554 C 0.92669 0.59927 0.15189 0.0
C555 C 0.9007 0.59762 0.23441 0.0
C556 C 0.9771 0.56368 0.07468 0.0
C557 C 0.96748 0.57327 0.09441 0.0
C558 C 0.94886 0.5603 0.15628 0.0
C559 C 0.91994 0.60105 0.19583 0.0
C560 C 0.92908 0.59013 0.17443 0.0
C561 C 0.95637 0.55911 0.11242 0.0
C562 C 0.94662 0.56955 0.13377 0.0
H563 H 0.91399 0.65404 0.21821 0.0
H564 H 0.92969 0.63638 0.18392 0.0
H565 H 0.94279 0.56303 0.19329 0.0
H566 H 0.96327 0.50677 0.08891 0.0
H567 H 0.94633 0.52348 0.12324 0.0
C568 C 0.40175 0.20291 0.13383 0.0
C569 C 0.39121 0.19847 0.15607 0.0
C570 C 0.4124 0.18609 0.12231 0.0
C571 C 0.43972 0.13461 0.13071 0.0
H572 H 0.41809 0.1183 0.0677 0.0
C573 C 0.46785 0.05705 0.08052 0.0
C574 C 0.47141 0.05945 0.05618 0.0
C575 C 0.45805 0.07373 0.09329 0.0
C576 C 0.42467 0.12285 0.08512 0.0
H577 H 0.38414 0.1728 0.18372 0.0
H578 H 0.40355 0.1439 0.1639 0.0
H579 H 0.40248 0.14884 0.08888 0.0
H580 H 0.46805 0.0814 0.02619 0.0
H581 H 0.45193 0.11075 0.04841 0.0
H582 H 0.46243 0.10914 0.12682 0.0
C583 C 0.40339 0.16041 0.15545 0.0
C584 C 0.41562 0.1403 0.09725 0.0
C585 C 0.3924 0.17707 0.16683 0.0
C586 C 0.46522 0.07889 0.0449 0.0
C587 C 0.45582 0.0957 0.05767 0.0
C588 C 0.44909 0.11737 0.11842 0.0
C589 C 0.41311 0.16463 0.13294 0.0
C590 C 0.42308 0.14634 0.12012 0.0
C591 C 0.45196 0.09332 0.08201 0.0
C592 C 0.44171 0.11129 0.09543 0.0
H593 H 0.40164 0.21932 0.12519 0.0
H594 H 0.42005 0.18982 0.10504 0.0
H595 H 0.44579 0.13906 0.14834 0.0
H596 H 0.47239 0.04218 0.08965 0.0
H597 H 0.45503 0.07112 0.11194 0.0
C598 C 0.13844 0.84372 0.63094 0.0
C599 C 0.12783 0.83119 0.6502 0.0
C600 C 0.12656 0.85909 0.61891 0.0
C601 C 0.07772 0.89301 0.62608 0.0
H602 H 0.08537 0.90079 0.55872 0.0
C603 C 0.02522 0.95038 0.57107 0.0
C604 C 0.03832 0.96504 0.55464 0.0
C605 C 0.03545 0.93355 0.58281 0.0
C606 C 0.0832 0.8989 0.57756 0.0
H607 H 0.09619 0.82438 0.67153 0.0
H608 H 0.0752 0.8509 0.65024 0.0
H609 H 0.10394 0.87162 0.57861 0.0
H610 H 0.07246 0.97352 0.5377 0.0
H611 H 0.0902 0.94411 0.55812 0.0
H612 H 0.05677 0.92023 0.62487 0.0
C613 C 0.09293 0.84927 0.64475 0.0
C614 C 0.09387 0.88222 0.58898 0.0
C615 C 0.1049 0.83401 0.6569 0.0
C616 C 0.06187 0.96255 0.55027 0.0
C617 C 0.072 0.94559 0.56183 0.0
C618 C 0.06688 0.90957 0.6146 0.0
C619 C 0.1037 0.86218 0.62574 0.0
C620 C 0.09145 0.87921 0.61342 0.0
C621 C 0.05889 0.93089 0.57817 0.0
C622 C 0.0697 0.91282 0.59027 0.0
H623 H 0.15624 0.84217 0.6256 0.0
H624 H 0.13558 0.86902 0.60463 0.0
H625 H 0.07577 0.89144 0.64496 0.0
H626 H 1.00703 0.95184 0.57486 0.0
H627 H 0.02489 0.92235 0.59521 0.0
C628 C 0.77855 0.43501 0.89426 0.0
C629 C 0.77238 0.41084 0.89263 0.0
C630 C 0.79926 0.44499 0.90562 0.0
C631 C 0.84373 0.43115 0.94868 0.0
H632 H 0.88157 0.48668 0.92464 0.0
C633 C 0.93688 0.46395 0.98452 0.0
C634 C 0.94433 0.4879 0.98662 0.0
C635 C 0.91569 0.45525 0.97343 0.0
C636 C 0.8711 0.47133 0.93182 0.0
H637 H 0.78407 0.37837 0.9011 0.0
H638 H 0.81987 0.39562 0.92073 0.0
H639 H 0.84551 0.4704 0.90451 0.0
H640 H 0.9349 0.52144 0.97856 0.0
H641 H 0.89786 0.50628 0.95946 0.0
H642 H 0.86923 0.432 0.97595 0.0
C643 C 0.80846 0.40696 0.91372 0.0
C644 C 0.85033 0.46195 0.92022 0.0
C645 C 0.78781 0.39701 0.90239 0.0
C646 C 0.92982 0.5029 0.97734 0.0
C647 C 0.90859 0.49417 0.96619 0.0
C648 C 0.86444 0.44051 0.96027 0.0
C649 C 0.81447 0.43111 0.9157 0.0
C650 C 0.83639 0.44159 0.92836 0.0
C651 C 0.90118 0.47018 0.96403 0.0
C652 C 0.87859 0.46067 0.95196 0.0
H653 H 0.76708 0.44629 0.88725 0.0
H654 H 0.80307 0.46362 0.90695 0.0
H655 H 0.83331 0.41577 0.95586 0.0
H656 H 0.94754 0.45179 0.99129 0.0
H657 H 0.91092 0.43671 0.97186 0.0
C658 C 0.72922 0.63083 0.39967 0.0
C659 C 0.7458 0.61748 0.39104 0.0
C660 C 0.70878 0.62045 0.41125 0.0
C661 C 0.6696 0.56454 0.41973 0.0
H662 H 0.64869 0.59518 0.4747 0.0
C663 C 0.59072 0.52283 0.47768 0.0
C664 C 0.57531 0.53753 0.4861 0.0
C665 C 0.61194 0.53189 0.46649 0.0
C666 C 0.65408 0.58647 0.45924 0.0
H667 H 0.75354 0.58251 0.38784 0.0
H668 H 0.7178 0.5644 0.40793 0.0
H669 H 0.68441 0.61212 0.45418 0.0
H670 H 0.57039 0.5734 0.48929 0.0
H671 H 0.60702 0.58905 0.46975 0.0
H672 H 0.63912 0.53896 0.42473 0.0
C673 C 0.72058 0.58295 0.40555 0.0
C674 C 0.67464 0.59622 0.44744 0.0
C675 C 0.7411 0.59336 0.39398 0.0
C676 C 0.58179 0.5615 0.48319 0.0
C677 C 0.60295 0.57053 0.47204 0.0
C678 C 0.64898 0.55479 0.43152 0.0
C679 C 0.70423 0.59638 0.41452 0.0
C680 C 0.68261 0.58551 0.42741 0.0
C681 C 0.61835 0.55589 0.46348 0.0
C682 C 0.64082 0.56572 0.45135 0.0
H683 H 0.73191 0.64938 0.39733 0.0
H684 H 0.6964 0.63133 0.41746 0.0
H685 H 0.67505 0.55591 0.40424 0.0
H686 H 0.58642 0.50429 0.47967 0.0
H687 H 0.62343 0.52006 0.46041 0.0
C688 C 0.24568 0.36232 0.15415 0.0
C689 C 0.25391 0.34289 0.14456 0.0
C690 C 0.22888 0.3727 0.1424 0.0
C691 C 0.18142 0.35785 0.09967 0.0
H692 H 0.17689 0.42304 0.1048 0.0
C693 C 0.10468 0.39802 0.06021 0.0
C694 C 0.09437 0.41258 0.07546 0.0
C695 C 0.12577 0.3905 0.06613 0.0
C696 C 0.17793 0.40478 0.10328 0.0
H697 H 0.25191 0.31994 0.11442 0.0
H698 H 0.22314 0.33852 0.09354 0.0
H699 H 0.21219 0.40898 0.11843 0.0
H700 H 0.09816 0.43098 0.10863 0.0
H701 H 0.13493 0.41776 0.11903 0.0
H702 H 0.14705 0.35368 0.08469 0.0
C703 C 0.22929 0.3454 0.11044 0.0
C704 C 0.19812 0.39672 0.1111 0.0
C705 C 0.24602 0.33494 0.12227 0.0
C706 C 0.10558 0.41956 0.09667 0.0
C707 C 0.12676 0.41223 0.10248 0.0
C708 C 0.16133 0.36595 0.09169 0.0
C709 C 0.22002 0.36399 0.12068 0.0
C710 C 0.19991 0.37308 0.10983 0.0
C711 C 0.13705 0.39762 0.08728 0.0
C712 C 0.15919 0.38941 0.09386 0.0
H713 H 0.2517 0.36911 0.17112 0.0
H714 H 0.22206 0.38687 0.15092 0.0
H715 H 0.182 0.33948 0.09876 0.0
H716 H 0.09635 0.39232 0.04378 0.0
H717 H 0.13337 0.37931 0.05406 0.0
C718 C 0.62486 0.23688 0.90708 0.0
C719 C 0.6121 0.24715 0.89008 0.0
C720 C 0.61553 0.2159 0.91781 0.0
C721 C 0.55881 0.1753 0.92715 0.0
H722 H 0.6008 0.1339 0.94818 0.0
C723 C 0.5254 0.08208 0.96098 0.0
C724 C 0.53567 0.07515 0.98162 0.0
C725 C 0.53464 0.10279 0.94963 0.0
C726 C 0.58881 0.14533 0.94257 0.0
H727 H 0.57914 0.24256 0.87117 0.0
H728 H 0.56347 0.20564 0.88887 0.0
H729 H 0.61682 0.16967 0.92831 0.0
H730 H 0.56408 0.08472 1.00619 0.0
H731 H 0.58041 0.12053 0.98615 0.0
H732 H 0.53077 0.15043 0.94096 0.0
C733 C 0.58054 0.21416 0.89448 0.0
C734 C 0.59802 0.16604 0.93121 0.0
C735 C 0.58977 0.23534 0.88394 0.0
C736 C 0.55566 0.08942 0.99038 0.0
C737 C 0.56511 0.10995 0.97881 0.0
C738 C 0.5496 0.15442 0.93822 0.0
C739 C 0.59319 0.20408 0.91173 0.0
C740 C 0.58322 0.18153 0.9234 0.0
C741 C 0.55464 0.11703 0.95835 0.0
C742 C 0.56447 0.13918 0.94622 0.0
H743 H 0.64228 0.24493 0.91213 0.0
H744 H 0.62587 0.20916 0.93117 0.0
H745 H 0.54669 0.18674 0.92195 0.0
H746 H 0.50996 0.07166 0.95371 0.0
H747 H 0.52622 0.10754 0.93383 0.0
C748 C 0.89523 0.788 0.41049 0.0
C749 C 0.90427 0.78179 0.3887 0.0
C750 C 0.90431 0.80878 0.42162 0.0
C751 C 0.94134 0.86623 0.41044 0.0
H752 H 0.94144 0.86977 0.47845 0.0
C753 C 0.99067 0.94426 0.46234 0.0
C754 C 0.97858 0.95286 0.4812 0.0
C755 C 0.98131 0.92374 0.45088 0.0
C756 C 0.94135 0.86912 0.45944 0.0
H757 H 0.9305 0.793 0.36188 0.0
H758 H 0.94706 0.82853 0.38177 0.0
H759 H 0.92682 0.83329 0.45914 0.0
H760 H 0.94709 0.94637 0.50281 0.0
H761 H 0.93094 0.91028 0.48303 0.0
H762 H 0.9566 0.90202 0.41095 0.0
C763 C 0.9324 0.81761 0.38999 0.0
C764 C 0.93286 0.84816 0.44827 0.0
C765 C 0.9231 0.79691 0.37868 0.0
C766 C 0.95684 0.94034 0.48831 0.0
C767 C 0.94765 0.91957 0.47707 0.0
C768 C 0.95014 0.8871 0.42163 0.0
C769 C 0.92305 0.82398 0.41159 0.0
C770 C 0.9326 0.84635 0.42356 0.0
C771 C 0.95976 0.91103 0.45819 0.0
C772 C 0.95018 0.88884 0.44627 0.0
H773 H 0.8811 0.77676 0.41916 0.0
H774 H 0.89629 0.813 0.43801 0.0
H775 H 0.94109 0.86586 0.39144 0.0
H776 H 1.00742 0.95343 0.45633 0.0
H777 H 0.99119 0.91758 0.43655 0.0
C778 C 0.27293 0.68594 0.63883 0.0
C779 C 0.27666 0.69772 0.66035 0.0
C780 C 0.29098 0.67599 0.62819 0.0
C781 C 0.3557 0.67965 0.62803 0.0
H782 H 0.34353 0.61879 0.59962 0.0
C783 C 0.4299 0.62808 0.60429 0.0
C784 C 0.42857 0.61634 0.58266 0.0
C785 C 0.41101 0.63827 0.61254 0.0
C786 C 0.34714 0.63592 0.60724 0.0
H787 H 0.3024 0.70845 0.6874 0.0
H788 H 0.33347 0.69062 0.66928 0.0
H789 H 0.31095 0.63597 0.61629 0.0
H790 H 0.40632 0.60633 0.55263 0.0
H791 H 0.37321 0.62397 0.56721 0.0
H792 H 0.39189 0.67949 0.61931 0.0
C793 C 0.31673 0.68927 0.66044 0.0
C794 C 0.32849 0.64576 0.61676 0.0
C795 C 0.29877 0.69921 0.67102 0.0
C796 C 0.40782 0.61497 0.56951 0.0
C797 C 0.38886 0.62509 0.57783 0.0
C798 C 0.37431 0.66979 0.61861 0.0
C799 C 0.31315 0.6777 0.63882 0.0
C800 C 0.33262 0.66763 0.62752 0.0
C801 C 0.39029 0.6369 0.5994 0.0
C802 C 0.37028 0.64772 0.60835 0.0
H803 H 0.25605 0.68436 0.63024 0.0
H804 H 0.2877 0.6673 0.61146 0.0
H805 H 0.35942 0.69674 0.63572 0.0
H806 H 0.44542 0.62908 0.61508 0.0
H807 H 0.41249 0.64691 0.62943 0.0
C808 C 0.77219 0.84224 0.73634 0.0
C809 C 0.76467 0.81861 0.73228 0.0
C810 C 0.78824 0.85504 0.72117 0.0
C811 C 0.81251 0.85729 0.66153 0.0
H812 H 0.86371 0.89868 0.68989 0.0
C813 C 0.88495 0.91373 0.60665 0.0
C814 C 0.89089 0.93671 0.61431 0.0
C815 C 0.87062 0.89755 0.62053 0.0
C816 C 0.84942 0.88734 0.68169 0.0
H817 H 0.76766 0.78997 0.70881 0.0
H818 H 0.79583 0.81252 0.68207 0.0
H819 H 0.83613 0.87379 0.71479 0.0
H820 H 0.88693 0.96056 0.64278 0.0
H821 H 0.86163 0.93263 0.66661 0.0
H822 H 0.82554 0.87128 0.62841 0.0
C823 C 0.78922 0.82104 0.69707 0.0
C824 C 0.83366 0.87307 0.69595 0.0
C825 C 0.77323 0.80814 0.71241 0.0
C826 C 0.88241 0.94309 0.6362 0.0
C827 C 0.86816 0.92698 0.65002 0.0
C828 C 0.82826 0.87169 0.64721 0.0
C829 C 0.79711 0.84454 0.70152 0.0
C830 C 0.81479 0.85822 0.68607 0.0
C831 C 0.8621 0.90403 0.64238 0.0
C832 C 0.84662 0.88719 0.6572 0.0
H833 H 0.76617 0.85074 0.75166 0.0
H834 H 0.79378 0.8732 0.72486 0.0
H835 H 0.79805 0.84605 0.65347 0.0
H836 H 0.89111 0.90834 0.5898 0.0
H837 H 0.86638 0.87995 0.61424 0.0
C838 C 0.76195 0.21292 0.19 0.0
C839 C 0.76502 0.20281 0.21187 0.0
C840 C 0.74744 0.20078 0.17307 0.0
C841 C 0.69569 0.1575 0.16871 0.0
H842 H 0.71491 0.14699 0.1046 0.0
C843 C 0.62995 0.11448 0.10118 0.0
C844 C 0.63648 0.09463 0.09071 0.0
C845 C 0.64649 0.1301 0.11312 0.0
C846 C 0.70935 0.14994 0.12243 0.0
H847 H 0.75546 0.1722 0.23323 0.0
H848 H 0.7299 0.1512 0.20383 0.0
H849 H 0.74278 0.16936 0.13163 0.0
H850 H 0.66567 0.07629 0.08324 0.0
H851 H 0.69473 0.10382 0.10404 0.0
H852 H 0.6624 0.13812 0.15977 0.0
C853 C 0.73886 0.16836 0.19971 0.0
C854 C 0.72519 0.16276 0.13779 0.0
C855 C 0.7536 0.1803 0.21642 0.0
C856 C 0.66016 0.09138 0.0913 0.0
C857 C 0.67679 0.10718 0.10303 0.0
C858 C 0.6798 0.14508 0.15332 0.0
C859 C 0.73546 0.17857 0.17801 0.0
C860 C 0.71856 0.16631 0.16115 0.0
C861 C 0.66993 0.12631 0.11461 0.0
C862 C 0.68653 0.14095 0.13012 0.0
H863 H 0.77062 0.23024 0.18608 0.0
H864 H 0.74499 0.20899 0.15646 0.0
H865 H 0.69015 0.16016 0.18661 0.0
H866 H 0.6118 0.11734 0.1012 0.0
H867 H 0.64082 0.14481 0.12181 0.0
C868 C 0.40525 0.63422 0.31812 0.0
C869 C 0.40131 0.62209 0.29675 0.0
C870 C 0.4143 0.62405 0.33772 0.0
C871 C 0.44839 0.57768 0.35494 0.0
H872 H 0.4218 0.58481 0.41676 0.0
C873 C 0.47752 0.5284 0.43569 0.0
C874 C 0.47764 0.53868 0.45809 0.0
C875 C 0.46795 0.53831 0.41623 0.0
C876 C 0.42982 0.58286 0.39977 0.0
H877 H 0.40437 0.58965 0.27947 0.0
H878 H 0.42027 0.57207 0.31346 0.0
H879 H 0.4063 0.60271 0.38295 0.0
H880 H 0.46776 0.5678 0.47724 0.0
H881 H 0.45187 0.58539 0.44347 0.0
H882 H 0.47227 0.55835 0.37162 0.0
C883 C 0.41628 0.58948 0.3151 0.0
C884 C 0.42078 0.59314 0.38024 0.0
C885 C 0.40694 0.59952 0.2956 0.0
C886 C 0.46787 0.55921 0.46038 0.0
C887 C 0.45856 0.56927 0.44087 0.0
C888 C 0.45763 0.56763 0.37449 0.0
C889 C 0.42004 0.60153 0.33653 0.0
C890 C 0.42985 0.59067 0.35748 0.0
C891 C 0.4584 0.55904 0.41837 0.0
C892 C 0.44849 0.56994 0.39732 0.0
H893 H 0.401 0.65153 0.31984 0.0
H894 H 0.41709 0.634 0.35379 0.0
H895 H 0.45611 0.57562 0.3378 0.0
H896 H 0.48472 0.51254 0.43316 0.0
H897 H 0.46787 0.52944 0.39952 0.0
C898 C 0.11578 0.42314 0.79819 0.0
C899 C 0.12056 0.40029 0.79878 0.0
C900 C 0.10661 0.43311 0.81797 0.0
C901 C 0.10121 0.42846 0.88274 0.0
H902 H 0.05111 0.46496 0.87489 0.0
C903 C 0.05345 0.46355 0.96274 0.0
C904 C 0.0453 0.48488 0.96045 0.0
C905 C 0.06294 0.45314 0.94336 0.0
C906 C 0.06536 0.45516 0.87749 0.0
H907 H 0.11959 0.37017 0.82096 0.0
H908 H 0.10366 0.38759 0.85548 0.0
H909 H 0.0669 0.44724 0.84077 0.0
H910 H 0.04148 0.51224 0.93591 0.0
H911 H 0.05857 0.49462 0.90253 0.0
H912 H 0.10002 0.43667 0.91938 0.0
C913 C 0.10703 0.3978 0.83966 0.0
C914 C 0.07437 0.44488 0.85782 0.0
C915 C 0.11596 0.38773 0.81977 0.0
C916 C 0.04738 0.49572 0.93837 0.0
C917 C 0.05705 0.48545 0.91908 0.0
C918 C 0.09235 0.43893 0.90242 0.0
C919 C 0.10216 0.42062 0.83902 0.0
C920 C 0.09244 0.4314 0.86013 0.0
C921 C 0.06474 0.46384 0.92113 0.0
C922 C 0.07428 0.45251 0.90013 0.0
H923 H 0.11889 0.43329 0.7823 0.0
H924 H 0.10328 0.45077 0.81684 0.0
H925 H 0.11531 0.41842 0.88519 0.0
H926 H 0.05201 0.45457 0.97939 0.0
H927 H 0.06832 0.43639 0.94574 0.0
C928 C 0.64226 0.8448 0.91311 0.0
C929 C 0.6318 0.83212 0.89394 0.0
C930 C 0.63088 0.86132 0.92425 0.0
C931 C 0.57312 0.8791 0.93373 0.0
H932 H 0.60883 0.93988 0.94438 0.0
C933 C 0.52801 0.95564 0.96315 0.0
C934 C 0.53959 0.97096 0.97983 0.0
C935 C 0.53951 0.93895 0.95251 0.0
C936 C 0.59867 0.92293 0.94184 0.0
H937 H 0.60098 0.82621 0.87187 0.0
H938 H 0.58097 0.855 0.89148 0.0
H939 H 0.6282 0.90949 0.92719 0.0
H940 H 0.57241 0.98091 0.99828 0.0
H941 H 0.5923 0.95147 0.98013 0.0
H942 H 0.54367 0.89228 0.94867 0.0
C943 C 0.59799 0.85219 0.89783 0.0
C944 C 0.60977 0.90554 0.93196 0.0
C945 C 0.60948 0.83584 0.88653 0.0
C946 C 0.56304 0.96946 0.98537 0.0
C947 C 0.57448 0.95262 0.97489 0.0
C948 C 0.56206 0.8964 0.94381 0.0
C949 C 0.60872 0.8653 0.91659 0.0
C950 C 0.59708 0.8835 0.92771 0.0
C951 C 0.56279 0.93702 0.95846 0.0
C952 C 0.57466 0.91858 0.94787 0.0
H953 H 0.65955 0.84243 0.91904 0.0
H954 H 0.63944 0.87106 0.93881 0.0
H955 H 0.56299 0.86217 0.93089 0.0
H956 H 0.50999 0.95645 0.95836 0.0
H957 H 0.53013 0.92756 0.93958 0.0
C958 C 0.91228 0.18824 0.37031 0.0
C959 C 0.89259 0.19607 0.3805 0.0
C960 C 0.92437 0.17309 0.38244 0.0
C961 C 0.93392 0.15042 0.4414 0.0
H962 H 0.94829 0.09694 0.40706 0.0
C963 C 0.9606 0.07176 0.48839 0.0
C964 C 0.97831 0.06085 0.47811 0.0
C965 C 0.95124 0.08888 0.4763 0.0
C966 C 0.94473 0.11193 0.41684 0.0
H967 H 0.87051 0.19448 0.41169 0.0
H968 H 0.89178 0.16823 0.43296 0.0
H969 H 0.93065 0.12644 0.38666 0.0
H970 H 1.00003 0.0594 0.44699 0.0
H971 H 0.98384 0.08952 0.42597 0.0
H972 H 0.94794 0.13593 0.4716 0.0
C973 C 0.89794 0.17395 0.41562 0.0
C974 C 0.9346 0.12884 0.40514 0.0
C975 C 0.88578 0.18904 0.40345 0.0
C976 C 0.98632 0.06736 0.45537 0.0
C977 C 0.97699 0.08458 0.44329 0.0
C978 C 0.94413 0.13357 0.45308 0.0
C979 C 0.91712 0.16551 0.40509 0.0
C980 C 0.92891 0.14817 0.41734 0.0
C981 C 0.9594 0.09562 0.45367 0.0
C982 C 0.94945 0.114 0.44099 0.0
H983 H 0.91825 0.19366 0.35283 0.0
H984 H 0.93934 0.16721 0.37404 0.0
H985 H 0.93003 0.16528 0.4512 0.0
H986 H 0.95389 0.06708 0.50582 0.0
H987 H 0.9374 0.09668 0.48465 0.0
C988 C 0.22566 0.61187 0.152 0.0
C989 C 0.24711 0.61711 0.13972 0.0
C990 C 0.20499 0.60232 0.14035 0.0
C991 C 0.17931 0.59298 0.07982 0.0
H992 H 0.13117 0.55151 0.11279 0.0
C993 C 0.08795 0.5613 0.03796 0.0
C994 C 0.0761 0.53923 0.04385 0.0
C995 C 0.10885 0.57066 0.04935 0.0
C996 C 0.14447 0.56282 0.10309 0.0
H997 H 0.2636 0.6156 0.10553 0.0
H998 H 0.22801 0.59841 0.08542 0.0
H999 H 0.1672 0.56699 0.13284 0.0
H1000 H 0.07759 0.50945 0.06598 0.0
H1001 H 0.11417 0.52525 0.08507 0.0
H1002 H 0.157 0.58804 0.04976 0.0
C1003 C 0.22679 0.60233 0.10393 0.0
C1004 C 0.16515 0.57209 0.11483 0.0
C1005 C 0.24736 0.61212 0.11553 0.0
C1006 C 0.08604 0.5266 0.06108 0.0
C1007 C 0.10705 0.53581 0.07224 0.0
C1008 C 0.15873 0.58351 0.068 0.0
C1009 C 0.20515 0.59742 0.11606 0.0
C1010 C 0.18297 0.58738 0.10344 0.0
C1011 C 0.11873 0.55813 0.06681 0.0
C1012 C 0.14089 0.56826 0.07942 0.0
H1013 H 0.2247 0.61572 0.17057 0.0
H1014 H 0.18878 0.59925 0.15039 0.0
H1015 H 0.19226 0.60492 0.07037 0.0
H1016 H 0.08078 0.57163 0.02492 0.0
H1017 H 0.11693 0.588 0.04477 0.0
C1018 C 0.29421 0.40878 0.64901 0.0
C1019 C 0.27219 0.40774 0.63821 0.0
C1020 C 0.31488 0.41825 0.63715 0.0
C1021 C 0.33763 0.45845 0.5899 0.0
H1022 H 0.39075 0.42494 0.58861 0.0
C1023 C 0.43107 0.49835 0.55761 0.0
C1024 C 0.44282 0.48477 0.54248 0.0
C1025 C 0.4098 0.4891 0.56848 0.0
C1026 C 0.37604 0.43446 0.58874 0.0
H1027 H 0.25463 0.41638 0.60669 0.0
H1028 H 0.29067 0.43331 0.58617 0.0
H1029 H 0.35471 0.40879 0.60963 0.0
H1030 H 0.44123 0.45073 0.52695 0.0
H1031 H 0.40427 0.43447 0.54631 0.0
H1032 H 0.35907 0.48426 0.56927 0.0
C1033 C 0.29195 0.42662 0.60375 0.0
C1034 C 0.35547 0.42531 0.60094 0.0
C1035 C 0.27132 0.41681 0.61544 0.0
C1036 C 0.43263 0.46172 0.5384 0.0
C1037 C 0.41154 0.45235 0.54961 0.0
C1038 C 0.35834 0.46779 0.57803 0.0
C1039 C 0.314 0.42728 0.61436 0.0
C1040 C 0.33599 0.43716 0.60162 0.0
C1041 C 0.39991 0.46592 0.56484 0.0
C1042 C 0.37777 0.45587 0.57724 0.0
H1043 H 0.29549 0.4018 0.66645 0.0
H1044 H 0.33158 0.41865 0.64587 0.0
H1045 H 0.32299 0.46807 0.59019 0.0
H1046 H 0.43836 0.51618 0.56116 0.0
H1047 H 0.40137 0.49997 0.58021 0.0
C1048 C 0.77038 0.66274 0.87782 0.0
C1049 C 0.76413 0.68252 0.8887 0.0
C1050 C 0.78763 0.65139 0.88751 0.0
C1051 C 0.82224 0.64477 0.94055 0.0
H1052 H 0.87126 0.63636 0.89565 0.0
C1053 C 0.91366 0.62563 0.96875 0.0
C1054 C 0.92473 0.61096 0.95434 0.0
C1055 C 0.89268 0.63273 0.96174 0.0
C1056 C 0.85759 0.63816 0.90839 0.0
H1057 H 0.77018 0.70509 0.91905 0.0
H1058 H 0.80009 0.68503 0.93613 0.0
H1059 H 0.83601 0.65024 0.88227 0.0
H1060 H 0.92214 0.59141 0.92187 0.0
H1061 H 0.88534 0.60329 0.90984 0.0
H1062 H 0.84385 0.63261 0.9667 0.0
C1063 C 0.79159 0.67833 0.92009 0.0
C1064 C 0.83738 0.64615 0.9007 0.0
C1065 C 0.77441 0.68979 0.91032 0.0
C1066 C 0.9142 0.60311 0.93307 0.0
C1067 C 0.89313 0.60997 0.92619 0.0
C1068 C 0.84242 0.63653 0.94825 0.0
C1069 C 0.79889 0.65949 0.90837 0.0
C1070 C 0.81955 0.64965 0.91668 0.0
C1071 C 0.88222 0.62507 0.94029 0.0
C1072 C 0.86041 0.63324 0.93226 0.0
H1073 H 0.76243 0.65642 0.8614 0.0
H1074 H 0.79264 0.63664 0.87833 0.0
H1075 H 0.8087 0.64723 0.95321 0.0
H1076 H 0.92149 0.63196 0.98522 0.0
H1077 H 0.88494 0.6446 0.97289 0.0
C1078 C 0.42263 0.78476 0.13203 0.0
C1079 C 0.40281 0.7832 0.14693 0.0
C1080 C 0.43126 0.80551 0.1204 0.0
C1081 C 0.43336 0.86865 0.12368 0.0
H1082 H 0.44643 0.86833 0.05676 0.0
C1083 C 0.48441 0.9476 0.07365 0.0
C1084 C 0.47463 0.95401 0.05253 0.0
C1085 C 0.47517 0.92702 0.08515 0.0
C1086 C 0.4428 0.86873 0.07544 0.0
H1087 H 0.37693 0.80253 0.16163 0.0
H1088 H 0.39237 0.83884 0.14191 0.0
H1089 H 0.43189 0.83198 0.07701 0.0
H1090 H 0.44748 0.94342 0.0269 0.0
H1091 H 0.43174 0.90711 0.04671 0.0
H1092 H 0.4447 0.9053 0.12223 0.0
C1093 C 0.40108 0.82393 0.139 0.0
C1094 C 0.43465 0.84787 0.08708 0.0
C1095 C 0.39217 0.80308 0.15024 0.0
C1096 C 0.45538 0.93913 0.04317 0.0
C1097 C 0.44645 0.91825 0.05445 0.0
C1098 C 0.44198 0.88942 0.11215 0.0
C1099 C 0.42061 0.8254 0.12375 0.0
C1100 C 0.42971 0.84756 0.11135 0.0
C1101 C 0.45618 0.91195 0.07565 0.0
C1102 C 0.44674 0.88978 0.08785 0.0
H1103 H 0.43115 0.76976 0.12895 0.0
H1104 H 0.44642 0.80606 0.1089 0.0
H1105 H 0.42985 0.86906 0.14238 0.0
H1106 H 0.49919 0.9586 0.08143 0.0
H1107 H 0.48319 0.92268 0.10134 0.0
C1108 C 0.10036 0.22565 0.65687 0.0
C1109 C 0.11267 0.24399 0.6437 0.0
C1110 C 0.09066 0.20488 0.64594 0.0
C1111 C 0.0734 0.17934 0.58712 0.0
H1112 H 0.07612 0.12122 0.6185 0.0
C1113 C 0.05217 0.09129 0.53902 0.0
C1114 C 0.03869 0.07297 0.55124 0.0
C1115 C 0.0609 0.11199 0.55054 0.0
C1116 C 0.075 0.13729 0.60956 0.0
H1117 H 0.12363 0.25481 0.60838 0.0
H1118 H 0.10747 0.21866 0.58959 0.0
H1119 H 0.09134 0.15747 0.63808 0.0
H1120 H 0.0241 0.06216 0.5854 0.0
H1121 H 0.03935 0.09816 0.60542 0.0
H1122 H 0.05732 0.15912 0.55851 0.0
C1123 C 0.10503 0.2203 0.60836 0.0
C1124 C 0.08369 0.15815 0.62084 0.0
C1125 C 0.11465 0.24103 0.61925 0.0
C1126 C 0.03443 0.07583 0.57538 0.0
C1127 C 0.04328 0.09649 0.58692 0.0
C1128 C 0.06484 0.15849 0.57582 0.0
C1129 C 0.09296 0.20184 0.62151 0.0
C1130 C 0.08311 0.17952 0.60976 0.0
C1131 C 0.05652 0.11492 0.57464 0.0
C1132 C 0.06557 0.13716 0.58683 0.0
H1133 H 0.09859 0.22714 0.67573 0.0
H1134 H 0.08125 0.19124 0.65668 0.0
H1135 H 0.07217 0.19536 0.57814 0.0
H1136 H 0.05587 0.08977 0.52045 0.0
H1137 H 0.07128 0.12566 0.54056 0.0
C1138 C 0.73836 0.32965 0.38972 0.0
C1139 C 0.75026 0.33702 0.36879 0.0
C1140 C 0.72132 0.34176 0.39912 0.0
C1141 C 0.68023 0.38051 0.3809 0.0
H1142 H 0.67113 0.3875 0.44792 0.0
C1143 C 0.60751 0.42815 0.41928 0.0
C1144 C 0.5947 0.41752 0.43848 0.0
C1145 C 0.62782 0.42013 0.41121 0.0
C1146 C 0.67335 0.38554 0.42916 0.0
H1147 H 0.7545 0.36358 0.34201 0.0
H1148 H 0.72482 0.38478 0.35848 0.0
H1149 H 0.70486 0.3708 0.43347 0.0
H1150 H 0.59352 0.39045 0.46455 0.0
H1151 H 0.6286 0.37621 0.45019 0.0
H1152 H 0.64856 0.39493 0.37659 0.0
C1153 C 0.72834 0.36938 0.36737 0.0
C1154 C 0.69269 0.37599 0.42088 0.0
C1155 C 0.74537 0.35726 0.35796 0.0
C1156 C 0.60277 0.39882 0.44951 0.0
C1157 C 0.62308 0.39086 0.44148 0.0
C1158 C 0.66091 0.39007 0.38918 0.0
C1159 C 0.71581 0.36152 0.38782 0.0
C1160 C 0.69621 0.37313 0.39666 0.0
C1161 C 0.63583 0.40138 0.42222 0.0
C1162 C 0.6571 0.39245 0.41341 0.0
H1163 H 0.74148 0.31396 0.39832 0.0
H1164 H 0.71181 0.33507 0.41473 0.0
H1165 H 0.6822 0.37822 0.36215 0.0
H1166 H 0.60168 0.44251 0.41032 0.0
H1167 H 0.63735 0.42874 0.39644 0.0
loop_
_geom_bond_atom_site_label_1
_geom_bond_atom_site_label_2
_geom_bond_distance
_geom_bond_site_symmetry_2
_ccdc_geom_bond_type
C0 C1 1.384 . S
C0 H13 0.947 . S
C0 C35 1.382 . S
C1 C0 1.384 . S
C1 C2 1.378 . S
C2 C1 1.378 . S
C2 C3 1.378 . S
C2 H14 0.952 . S
C3 C2 1.378 . S
C3 H15 0.950 . S
C3 C34 1.383 . S
H4 C23 0.947 . S
H5 C24 0.946 . S
H6 C26 0.953 . S
H7 C27 0.945 . S
H8 C29 0.952 . S
H9 C30 0.949 . S
H10 C32 0.950 . S
H11 C33 0.948 . S
H12 C35 0.951 . S
H13 C0 0.947 . S
H14 C2 0.952 . S
H15 C3 0.950 . S
N16 C19 1.382 . S
N16 C21 1.363 . S
N17 C19 1.371 . S
N17 C20 1.372 . S
N18 C20 1.361 . S
N18 C21 1.377 . S
C19 N16 1.382 . S
C19 N17 1.371 . S
C19 C22 1.480 . S
C20 N17 1.372 . S
C20 N18 1.361 . S
C20 C28 1.457 . S
C21 N16 1.363 . S
C21 N18 1.377 . S
C21 C34 1.479 . S
C22 C19 1.480 . S
C22 C23 1.383 . S
C22 C27 1.385 . S
C23 H4 0.947 . S
C23 C22 1.383 . S
C23 C24 1.388 . S
C24 H5 0.946 . S
C24 C23 1.388 . S
C24 C25 1.384 . S
C25 C24 1.384 . S
C25 C26 1.377 . S
C26 H6 0.953 . S
C26 C25 1.377 . S
C26 C27 1.369 . S
C27 H7 0.945 . S
C27 C22 1.385 . S
C27 C26 1.369 . S
C28 C20 1.457 . S
C28 C29 1.372 . S
C28 C33 1.364 . S
C29 H8 0.952 . S
C29 C28 1.372 . S
C29 C30 1.389 . S
C30 H9 0.949 . S
C30 C29 1.389 . S
C30 C31 1.387 . S
C31 C30 1.387 . S
C31 C32 1.372 . S
C32 H10 0.950 . S
C32 C31 1.372 . S
C32 C33 1.379 . S
C33 H11 0.948 . S
C33 C28 1.364 . S
C33 C32 1.379 . S
C34 C3 1.383 . S
C34 C21 1.479 . S
C34 C35 1.398 . S
C35 C0 1.382 . S
C35 H12 0.951 . S
C35 C34 1.398 . S
C36 C37 1.384 . S
C36 H49 0.947 . S
C36 C71 1.382 . S
C37 C36 1.384 . S
C37 C38 1.378 . S
C38 C37 1.378 . S
C38 C39 1.378 . S
C38 H50 0.952 . S
C39 C38 1.378 . S
C39 H51 0.950 . S
C39 C70 1.383 . S
H40 C59 0.947 . S
H41 C60 0.946 . S
H42 C62 0.953 . S
H43 C63 0.945 . S
H44 C65 0.952 . S
H45 C66 0.949 . S
H46 C68 0.950 . S
H47 C69 0.948 . S
H48 C71 0.951 . S
H49 C36 0.947 . S
H50 C38 0.952 . S
H51 C39 0.950 . S
N52 C55 1.382 . S
N52 C57 1.363 . S
N53 C55 1.371 . S
N53 C56 1.372 . S
N54 C56 1.361 . S
N54 C57 1.377 . S
C55 N52 1.382 . S
C55 N53 1.371 . S
C55 C58 1.480 . S
C56 N53 1.372 . S
C56 N54 1.361 . S
C56 C64 1.457 . S
C57 N52 1.363 . S
C57 N54 1.377 . S
C57 C70 1.479 . S
C58 C55 1.480 . S
C58 C59 1.383 . S
C58 C63 1.385 . S
C59 H40 0.947 . S
C59 C58 1.383 . S
C59 C60 1.388 . S
C60 H41 0.946 . S
C60 C59 1.388 . S
C60 C61 1.384 . S
C61 C60 1.384 . S
C61 C62 1.377 . S
C62 H42 0.953 . S
C62 C61 1.377 . S
C62 C63 1.369 . S
C63 H43 0.945 . S
C63 C58 1.385 . S
C63 C62 1.369 . S
C64 C56 1.457 . S
C64 C65 1.372 . S
C64 C69 1.364 . S
C65 H44 0.952 . S
C65 C64 1.372 . S
C65 C66 1.389 . S
C66 H45 0.949 . S
C66 C65 1.389 . S
C66 C67 1.387 . S
C67 C66 1.387 . S
C67 C68 1.372 . S
C68 H46 0.950 . S
C68 C67 1.372 . S
C68 C69 1.379 . S
C69 H47 0.948 . S
C69 C64 1.364 . S
C69 C68 1.379 . S
C70 C39 1.383 . S
C70 C57 1.479 . S
C70 C71 1.398 . S
C71 C36 1.382 . S
C71 H48 0.951 . S
C71 C70 1.398 . S
C72 C73 1.384 . S
C72 H85 0.947 . S
C72 C107 1.382 . S
C73 C72 1.384 . S
C73 C74 1.378 . S
C74 C73 1.378 . S
C74 C75 1.378 . S
C74 H86 0.952 . S
C75 C74 1.378 . S
C75 H87 0.950 . S
C75 C106 1.383 . S
H76 C95 0.947 . S
H77 C96 0.946 . S
H78 C98 0.953 . S
H79 C99 0.945 . S
H80 C101 0.952 . S
H81 C102 0.949 . S
H82 C104 0.950 . S
H83 C105 0.948 . S
H84 C107 0.951 . S
H85 C72 0.947 . S
H86 C74 0.952 . S
H87 C75 0.950 . S
N88 C91 1.382 . S
N88 C93 1.363 . S
N89 C91 1.371 . S
N89 C92 1.372 . S
N90 C92 1.361 . S
N90 C93 1.377 . S
C91 N88 1.382 . S
C91 N89 1.371 . S
C91 C94 1.480 . S
C92 N89 1.372 . S
C92 N90 1.361 . S
C92 C100 1.457 . S
C93 N88 1.363 . S
C93 N90 1.377 . S
C93 C106 1.479 . S
C94 C91 1.480 . S
C94 C95 1.383 . S
C94 C99 1.385 . S
C95 H76 0.947 . S
C95 C94 1.383 . S
C95 C96 1.388 . S
C96 H77 0.946 . S
C96 C95 1.388 . S
C96 C97 1.384 . S
C97 C96 1.384 . S
C97 C98 1.377 . S
C98 H78 0.953 . S
C98 C97 1.377 . S
C98 C99 1.369 . S
C99 H79 0.945 . S
C99 C94 1.385 . S
C99 C98 1.369 . S
C100 C92 1.457 . S
C100 C101 1.372 . S
C100 C105 1.364 . S
C101 H80 0.952 . S
C101 C100 1.372 . S
C101 C102 1.389 . S
C102 H81 0.949 . S
C102 C101 1.389 . S
C102 C103 1.387 . S
C103 C102 1.387 . S
C103 C104 1.372 . S
C104 H82 0.950 . S
C104 C103 1.372 . S
C104 C105 1.379 . S
C105 H83 0.948 . S
C105 C100 1.364 . S
C105 C104 1.379 . S
C106 C75 1.383 . S
C106 C93 1.479 . S
C106 C107 1.398 . S
C107 C72 1.382 . S
C107 H84 0.951 . S
C107 C106 1.398 . S
C108 C109 1.384 . S
C108 H121 0.947 . S
C108 C143 1.382 . S
C109 C108 1.384 . S
C109 C110 1.378 . S
C110 C109 1.378 . S
C110 C111 1.378 . S
C110 H122 0.952 . S
C111 C110 1.378 . S
C111 H123 0.950 . S
C111 C142 1.383 . S
H112 C131 0.947 . S
H113 C132 0.946 . S
H114 C134 0.953 . S
H115 C135 0.945 . S
H116 C137 0.952 . S
H117 C138 0.949 . S
H118 C140 0.950 . S
H119 C141 0.948 . S
H120 C143 0.951 . S
H121 C108 0.947 . S
H122 C110 0.952 . S
H123 C111 0.950 . S
N124 C127 1.382 . S
N124 C129 1.363 . S
N125 C127 1.371 . S
N125 C128 1.372 . S
N126 C128 1.361 . S
N126 C129 1.377 . S
C127 N124 1.382 . S
C127 N125 1.371 . S
C127 C130 1.480 . S
C128 N125 1.372 . S
C128 N126 1.361 . S
C128 C136 1.457 . S
C129 N124 1.363 . S
C129 N126 1.377 . S
C129 C142 1.479 . S
C130 C127 1.480 . S
C130 C131 1.383 . S
C130 C135 1.385 . S
C131 H112 0.947 . S
C131 C130 1.383 . S
C131 C132 1.388 . S
C132 H113 0.946 . S
C132 C131 1.388 . S
C132 C133 1.384 . S
C133 C132 1.384 . S
C133 C134 1.377 . S
C134 H114 0.953 . S
C134 C133 1.377 . S
C134 C135 1.369 . S
C135 H115 0.945 . S
C135 C130 1.385 . S
C135 C134 1.369 . S
C136 C128 1.457 . S
C136 C137 1.372 . S
C136 C141 1.364 . S
C137 H116 0.952 . S
C137 C136 1.372 . S
C137 C138 1.389 . S
C138 H117 0.949 . S
C138 C137 1.389 . S
C138 C139 1.387 . S
C139 C138 1.387 . S
C139 C140 1.372 . S
C140 H118 0.950 . S
C140 C139 1.372 . S
C140 C141 1.379 . S
C141 H119 0.948 . S
C141 C136 1.364 . S
C141 C140 1.379 . S
C142 C111 1.383 . S
C142 C129 1.479 . S
C142 C143 1.398 . S
C143 C108 1.382 . S
C143 H120 0.951 . S
C143 C142 1.398 . S
C144 C145 1.384 . S
C144 H157 0.947 . S
C144 C179 1.382 . S
C145 C144 1.384 . S
C145 C146 1.378 . S
C146 C145 1.378 . S
C146 C147 1.378 . S
C146 H158 0.952 . S
C147 C146 1.378 . S
C147 H159 0.950 . S
C147 C178 1.383 . S
H148 C167 0.947 . S
H149 C168 0.946 . S
H150 C170 0.953 . S
H151 C171 0.945 . S
H152 C173 0.952 . S
H153 C174 0.949 . S
H154 C176 0.950 . S
H155 C177 0.948 . S
H156 C179 0.951 . S
H157 C144 0.947 . S
H158 C146 0.952 . S
H159 C147 0.950 . S
N160 C163 1.382 . S
N160 C165 1.363 . S
N161 C163 1.371 . S
N161 C164 1.372 . S
N162 C164 1.361 . S
N162 C165 1.377 . S
C163 N160 1.382 . S
C163 N161 1.371 . S
C163 C166 1.480 . S
C164 N161 1.372 . S
C164 N162 1.361 . S
C164 C172 1.457 . S
C165 N160 1.363 . S
C165 N162 1.377 . S
C165 C178 1.479 . S
C166 C163 1.480 . S
C166 C167 1.383 . S
C166 C171 1.385 . S
C167 H148 0.947 . S
C167 C166 1.383 . S
C167 C168 1.388 . S
C168 H149 0.946 . S
C168 C167 1.388 . S
C168 C169 1.384 . S
C169 C168 1.384 . S
C169 C170 1.377 . S
C170 H150 0.953 . S
C170 C169 1.377 . S
C170 C171 1.369 . S
C171 H151 0.945 . S
C171 C166 1.385 . S
C171 C170 1.369 . S
C172 C164 1.457 . S
C172 C173 1.372 . S
C172 C177 1.364 . S
C173 H152 0.952 . S
C173 C172 1.372 . S
C173 C174 1.389 . S
C174 H153 0.949 . S
C174 C173 1.389 . S
C174 C175 1.387 . S
C175 C174 1.387 . S
C175 C176 1.372 . S
C176 H154 0.950 . S
C176 C175 1.372 . S
C176 C177 1.379 . S
C177 H155 0.948 . S
C177 C172 1.364 . S
C177 C176 1.379 . S
C178 C147 1.383 . S
C178 C165 1.479 . S
C178 C179 1.398 . S
C179 C144 1.382 . S
C179 H156 0.951 . S
C179 C178 1.398 . S
C180 C181 1.384 . S
C180 H193 0.947 . S
C180 C215 1.382 . S
C181 C180 1.384 . S
C181 C182 1.378 . S
C182 C181 1.378 . S
C182 C183 1.378 . S
C182 H194 0.952 . S
C183 C182 1.378 . S
C183 H195 0.950 . S
C183 C214 1.383 . S
H184 C203 0.947 . S
H185 C204 0.946 . S
H186 C206 0.953 . S
H187 C207 0.945 . S
H188 C209 0.952 . S
H189 C210 0.949 . S
H190 C212 0.950 . S
H191 C213 0.948 . S
H192 C215 0.951 . S
H193 C180 0.947 . S
H194 C182 0.952 . S
H195 C183 0.950 . S
N196 C199 1.382 . S
N196 C201 1.363 . S
N197 C199 1.371 . S
N197 C200 1.372 . S
N198 C200 1.361 . S
N198 C201 1.377 . S
C199 N196 1.382 . S
C199 N197 1.371 . S
C199 C202 1.480 . S
C200 N197 1.372 . S
C200 N198 1.361 . S
C200 C208 1.457 . S
C201 N196 1.363 . S
C201 N198 1.377 . S
C201 C214 1.479 . S
C202 C199 1.480 . S
C202 C203 1.383 . S
C202 C207 1.385 . S
C203 H184 0.947 . S
C203 C202 1.383 . S
C203 C204 1.388 . S
C204 H185 0.946 . S
C204 C203 1.388 . S
C204 C205 1.384 . S
C205 C204 1.384 . S
C205 C206 1.377 . S
C206 H186 0.953 . S
C206 C205 1.377 . S
C206 C207 1.369 . S
C207 H187 0.945 . S
C207 C202 1.385 . S
C207 C206 1.369 . S
C208 C200 1.457 . S
C208 C209 1.372 . S
C208 C213 1.364 . S
C209 H188 0.952 . S
C209 C208 1.372 . S
C209 C210 1.389 . S
C210 H189 0.949 . S
C210 C209 1.389 . S
C210 C211 1.387 . S
C211 C210 1.387 . S
C211 C212 1.372 . S
C212 H190 0.950 . S
C212 C211 1.372 . S
C212 C213 1.379 . S
C213 H191 0.948 . S
C213 C208 1.364 . S
C213 C212 1.379 . S
C214 C183 1.383 . S
C214 C201 1.479 . S
C214 C215 1.398 . S
C215 C180 1.382 . S
C215 H192 0.951 . S
C215 C214 1.398 . S
C216 C217 1.384 . S
C216 H229 0.947 . S
C216 C251 1.382 . S
C217 C216 1.384 . S
C217 C218 1.378 . S
C218 C217 1.378 . S
C218 C219 1.378 . S
C218 H230 0.952 . S
C219 C218 1.378 . S
C219 H231 0.950 . S
C219 C250 1.383 . S
H220 C239 0.947 . S
H221 C240 0.946 . S
H222 C242 0.953 . S
H223 C243 0.945 . S
H224 C245 0.952 . S
H225 C246 0.949 . S
H226 C248 0.950 . S
H227 C249 0.948 . S
H228 C251 0.951 . S
H229 C216 0.947 . S
H230 C218 0.952 . S
H231 C219 0.950 . S
N232 C235 1.382 . S
N232 C237 1.363 . S
N233 C235 1.371 . S
N233 C236 1.372 . S
N234 C236 1.361 . S
N234 C237 1.377 . S
C235 N232 1.382 . S
C235 N233 1.371 . S
C235 C238 1.480 . S
C236 N233 1.372 . S
C236 N234 1.361 . S
C236 C244 1.457 . S
C237 N232 1.363 . S
C237 N234 1.377 . S
C237 C250 1.479 . S
C238 C235 1.480 . S
C238 C239 1.383 . S
C238 C243 1.385 . S
C239 H220 0.947 . S
C239 C238 1.383 . S
C239 C240 1.388 . S
C240 H221 0.946 . S
C240 C239 1.388 . S
C240 C241 1.384 . S
C241 C240 1.384 . S
C241 C242 1.377 . S
C242 H222 0.953 . S
C242 C241 1.377 . S
C242 C243 1.369 . S
C243 H223 0.945 . S
C243 C238 1.385 . S
C243 C242 1.369 . S
C244 C236 1.457 . S
C244 C245 1.372 . S
C244 C249 1.364 . S
C245 H224 0.952 . S
C245 C244 1.372 . S
C245 C246 1.389 . S
C246 H225 0.949 . S
C246 C245 1.389 . S
C246 C247 1.387 . S
C247 C246 1.387 . S
C247 C248 1.372 . S
C248 H226 0.950 . S
C248 C247 1.372 . S
C248 C249 1.379 . S
C249 H227 0.948 . S
C249 C244 1.364 . S
C249 C248 1.379 . S
C250 C219 1.383 . S
C250 C237 1.479 . S
C250 C251 1.398 . S
C251 C216 1.382 . S
C251 H228 0.951 . S
C251 C250 1.398 . S
C252 C253 1.384 . S
C252 H265 0.947 . S
C252 C287 1.382 . S
C253 C252 1.384 . S
C253 C254 1.378 . S
C254 C253 1.378 . S
C254 C255 1.378 . S
C254 H266 0.952 . S
C255 C254 1.378 . S
C255 H267 0.950 . S
C255 C286 1.383 . S
H256 C275 0.947 . S
H257 C276 0.946 . S
H258 C278 0.953 . S
H259 C279 0.945 . S
H260 C281 0.952 . S
H261 C282 0.949 . S
H262 C284 0.950 . S
H263 C285 0.948 . S
H264 C287 0.951 . S
H265 C252 0.947 . S
H266 C254 0.952 . S
H267 C255 0.950 . S
N268 C271 1.382 . S
N268 C273 1.363 . S
N269 C271 1.371 . S
N269 C272 1.372 . S
N270 C272 1.361 . S
N270 C273 1.377 . S
C271 N268 1.382 . S
C271 N269 1.371 . S
C271 C274 1.480 . S
C272 N269 1.372 . S
C272 N270 1.361 . S
C272 C280 1.457 . S
C273 N268 1.363 . S
C273 N270 1.377 . S
C273 C286 1.479 . S
C274 C271 1.480 . S
C274 C275 1.383 . S
C274 C279 1.385 . S
C275 H256 0.947 . S
C275 C274 1.383 . S
C275 C276 1.388 . S
C276 H257 0.946 . S
C276 C275 1.388 . S
C276 C277 1.384 . S
C277 C276 1.384 . S
C277 C278 1.377 . S
C278 H258 0.953 . S
C278 C277 1.377 . S
C278 C279 1.369 . S
C279 H259 0.945 . S
C279 C274 1.385 . S
C279 C278 1.369 . S
C280 C272 1.457 . S
C280 C281 1.372 . S
C280 C285 1.364 . S
C281 H260 0.952 . S
C281 C280 1.372 . S
C281 C282 1.389 . S
C282 H261 0.949 . S
C282 C281 1.389 . S
C282 C283 1.387 . S
C283 C282 1.387 . S
C283 C284 1.372 . S
C284 H262 0.950 . S
C284 C283 1.372 . S
C284 C285 1.379 . S
C285 H263 0.948 . S
C285 C280 1.364 . S
C285 C284 1.379 . S
C286 C255 1.383 . S
C286 C273 1.479 . S
C286 C287 1.398 . S
C287 C252 1.382 . S
C287 H264 0.951 . S
C287 C286 1.398 . S
Tb288 C297 2.764 . S
Tb288 O298 2.325 1_455 S
Tb288 O301 2.303 . S
Tb288 O305 2.322 1_545 S
Tb288 O306 2.349 1_545 S
Tb288 O309 2.415 . S
Tb288 O310 2.399 . S
Tb289 O299 2.351 . S
Tb289 O300 2.384 . S
Tb289 O302 2.378 1_545 S
Tb289 O303 2.395 1_545 S
Tb289 O304 2.302 1_645 S
Tb289 O307 2.277 1_545 S
Tb289 C318 2.741 1_545 S
C290 O306 1.261 1_655 S
C290 O307 1.257 . S
C291 C294 1.358 . S
C291 C295 1.332 . S
C291 C297 1.504 . S
C292 C293 1.373 . S
C292 C296 1.308 . S
C293 C292 1.373 . S
C293 C294 1.429 . S
C293 H320 0.932 . S
C294 C291 1.358 . S
C294 C293 1.429 . S
C294 H321 0.930 . S
C295 C291 1.332 . S
C295 C296 1.394 . S
C295 H322 0.932 . S
C296 C292 1.308 . S
C296 C295 1.394 . S
C296 H323 0.929 . S
C297 Tb288 2.764 . S
C297 C291 1.504 . S
C297 O309 1.239 . S
C297 O310 1.263 . S
O298 Tb288 2.325 1_655 S
O298 C308 1.236 . S
O299 Tb289 2.351 . S
O299 C308 1.257 . S
O300 Tb289 2.384 . S
O300 C311 1.261 1_655 S
O301 Tb288 2.303 . S
O301 C311 1.257 . S
O302 Tb289 2.378 1_565 S
O302 C318 1.239 . S
O303 Tb289 2.395 1_565 S
O303 C318 1.263 . S
O304 Tb289 2.302 1_465 S
O304 C319 1.236 . S
O305 Tb288 2.322 1_565 S
O305 C319 1.257 . S
O306 Tb288 2.349 1_565 S
O306 C290 1.261 1_455 S
O307 Tb289 2.277 1_565 S
O307 C290 1.257 . S
C308 O298 1.236 . S
C308 O299 1.257 . S
O309 Tb288 2.415 . S
O309 C297 1.239 . S
O310 Tb288 2.399 . S
O310 C297 1.263 . S
C311 O300 1.261 1_455 S
C311 O301 1.257 . S
C312 C315 1.358 . S
C312 C316 1.332 . S
C312 C318 1.504 . S
C313 C314 1.373 . S
C313 C317 1.308 . S
C314 C313 1.373 . S
C314 C315 1.429 . S
C314 H324 0.932 . S
C315 C312 1.358 . S
C315 C314 1.429 . S
C315 H325 0.930 . S
C316 C312 1.332 . S
C316 C317 1.394 . S
C316 H326 0.932 . S
C317 C313 1.308 . S
C317 C316 1.394 . S
C317 H327 0.929 . S
C318 Tb289 2.741 1_565 S
C318 O302 1.239 . S
C318 O303 1.263 . S
C318 C312 1.504 . S
C319 O304 1.236 . S
C319 O305 1.257 . S
H320 C293 0.932 . S
H321 C294 0.930 . S
H322 C295 0.932 . S
H323 C296 0.929 . S
H324 C314 0.932 . S
H325 C315 0.930 . S
H326 C316 0.932 . S
H327 C317 0.929 . S
Tb328 C337 2.764 . S
Tb328 O338 2.325 1_554 S
Tb328 O341 2.303 . S
Tb328 O345 2.322 1_545 S
Tb328 O346 2.368 1_545 S
Tb328 O349 2.415 . S
Tb328 O350 2.399 . S
Tb329 O339 2.301 1_565 S
Tb329 O340 2.327 1_566 S
Tb329 O342 2.437 . S
Tb329 O343 2.407 . S
Tb329 O344 2.344 1_556 S
Tb329 O347 2.315 . S
Tb329 C358 2.781 . S
C330 O346 1.236 1_556 S
C330 O347 1.257 . S
C331 C334 1.358 . S
C331 C335 1.332 . S
C331 C337 1.504 . S
C332 C333 1.373 . S
C332 C336 1.308 . S
C333 C332 1.373 . S
C333 C334 1.429 . S
C333 H360 0.932 . S
C334 C331 1.358 . S
C334 C333 1.429 . S
C334 H361 0.930 . S
C335 C331 1.332 . S
C335 C336 1.394 . S
C335 H362 0.932 . S
C336 C332 1.308 . S
C336 C335 1.394 . S
C336 H363 0.929 . S
C337 Tb328 2.764 . S
C337 C331 1.504 . S
C337 O349 1.239 . S
C337 O350 1.263 . S
O338 Tb328 2.325 1_556 S
O338 C348 1.236 . S
O339 Tb329 2.301 1_545 S
O339 C348 1.257 . S
O340 Tb329 2.327 1_544 S
O340 C351 1.269 . S
O341 Tb328 2.303 . S
O341 C351 1.257 . S
O342 Tb329 2.437 . S
O342 C358 1.239 . S
O343 Tb329 2.407 . S
O343 C358 1.263 . S
O344 Tb329 2.344 1_554 S
O344 C359 1.236 . S
O345 Tb328 2.322 1_565 S
O345 C359 1.257 . S
O346 Tb328 2.368 1_565 S
O346 C330 1.236 1_554 S
O347 Tb329 2.315 . S
O347 C330 1.257 . S
C348 O338 1.236 . S
C348 O339 1.257 . S
O349 Tb328 2.415 . S
O349 C337 1.239 . S
O350 Tb328 2.399 . S
O350 C337 1.263 . S
C351 O340 1.269 . S
C351 O341 1.257 . S
C352 C355 1.358 . S
C352 C356 1.332 . S
C352 C358 1.504 . S
C353 C354 1.373 . S
C353 C357 1.308 . S
C354 C353 1.373 . S
C354 C355 1.429 . S
C354 H364 0.932 . S
C355 C352 1.358 . S
C355 C354 1.429 . S
C355 H365 0.930 . S
C356 C352 1.332 . S
C356 C357 1.394 . S
C356 H366 0.932 . S
C357 C353 1.308 . S
C357 C356 1.394 . S
C357 H367 0.929 . S
C358 Tb329 2.781 . S
C358 O342 1.239 . S
C358 O343 1.263 . S
C358 C352 1.504 . S
C359 O344 1.236 . S
C359 O345 1.257 . S
H360 C333 0.932 . S
H361 C334 0.930 . S
H362 C335 0.932 . S
H363 C336 0.929 . S
H364 C354 0.932 . S
H365 C355 0.930 . S
H366 C356 0.932 . S
H367 C357 0.929 . S
Tb368 C377 2.764 . S
Tb368 O378 2.325 . S
Tb368 O381 2.303 . S
Tb368 O385 2.322 . S
Tb368 O386 2.349 . S
Tb368 O389 2.415 . S
Tb368 O390 2.399 . S
Tb369 O379 2.322 . S
Tb369 O380 2.349 . S
Tb369 O382 2.415 . S
Tb369 O383 2.399 . S
Tb369 O384 2.325 . S
Tb369 O387 2.303 . S
Tb369 C398 2.764 . S
C370 O386 1.261 . S
C370 O387 1.257 . S
C371 C374 1.358 . S
C371 C375 1.332 . S
C371 C377 1.504 . S
C372 C373 1.373 . S
C372 C376 1.308 . S
C373 C372 1.373 . S
C373 C374 1.429 . S
C373 H400 0.932 . S
C374 C371 1.358 . S
C374 C373 1.429 . S
C374 H401 0.930 . S
C375 C371 1.332 . S
C375 C376 1.394 . S
C375 H402 0.932 . S
C376 C372 1.308 . S
C376 C375 1.394 . S
C376 H403 0.929 . S
C377 Tb368 2.764 . S
C377 C371 1.504 . S
C377 O389 1.239 . S
C377 O390 1.263 . S
O378 Tb368 2.325 . S
O378 C388 1.236 . S
O379 Tb369 2.322 . S
O379 C388 1.257 . S
O380 Tb369 2.349 . S
O380 C391 1.261 . S
O381 Tb368 2.303 . S
O381 C391 1.257 . S
O382 Tb369 2.415 . S
O382 C398 1.239 . S
O383 Tb369 2.399 . S
O383 C398 1.263 . S
O384 Tb369 2.325 . S
O384 C399 1.236 . S
O385 Tb368 2.322 . S
O385 C399 1.257 . S
O386 Tb368 2.349 . S
O386 C370 1.261 . S
O387 Tb369 2.303 . S
O387 C370 1.257 . S
C388 O378 1.236 . S
C388 O379 1.257 . S
O389 Tb368 2.415 . S
O389 C377 1.239 . S
O390 Tb368 2.399 . S
O390 C377 1.263 . S
C391 O380 1.261 . S
C391 O381 1.257 . S
C392 C395 1.358 . S
C392 C396 1.332 . S
C392 C398 1.504 . S
C393 C394 1.373 . S
C393 C397 1.308 . S
C394 C393 1.373 . S
C394 C395 1.429 . S
C394 H404 0.932 . S
C395 C392 1.358 . S
C395 C394 1.429 . S
C395 H405 0.930 . S
C396 C392 1.332 . S
C396 C397 1.394 . S
C396 H406 0.932 . S
C397 C393 1.308 . S
C397 C396 1.394 . S
C397 H407 0.929 . S
C398 Tb369 2.764 . S
C398 O382 1.239 . S
C398 O383 1.263 . S
C398 C392 1.504 . S
C399 O384 1.236 . S
C399 O385 1.257 . S
H400 C373 0.932 . S
H401 C374 0.930 . S
H402 C375 0.932 . S
H403 C376 0.929 . S
H404 C394 0.932 . S
H405 C395 0.930 . S
H406 C396 0.932 . S
H407 C397 0.929 . S
Tb408 C417 2.780 . S
Tb408 O418 2.339 . S
Tb408 O421 2.307 1_556 S
Tb408 O425 2.287 1_656 S
Tb408 O426 2.340 1_655 S
Tb408 O429 2.433 . S
Tb408 O430 2.409 . S
Tb409 O419 2.322 1_455 S
Tb409 O420 2.349 1_455 S
Tb409 O422 2.415 . S
Tb409 O423 2.399 . S
Tb409 O424 2.325 . S
Tb409 O427 2.303 1_554 S
Tb409 C438 2.764 . S
C410 O426 1.261 . S
C410 O427 1.257 . S
C411 C414 1.358 . S
C411 C415 1.332 . S
C411 C417 1.504 . S
C412 C413 1.373 . S
C412 C416 1.308 . S
C413 C412 1.373 . S
C413 C414 1.429 . S
C413 H440 0.932 . S
C414 C411 1.358 . S
C414 C413 1.429 . S
C414 H441 0.930 . S
C415 C411 1.332 . S
C415 C416 1.394 . S
C415 H442 0.932 . S
C416 C412 1.308 . S
C416 C415 1.394 . S
C416 H443 0.929 . S
C417 Tb408 2.780 . S
C417 C411 1.504 . S
C417 O429 1.239 . S
C417 O430 1.263 . S
O418 Tb408 2.339 . S
O418 C428 1.236 . S
O419 Tb409 2.322 1_655 S
O419 C428 1.257 1_554 S
O420 Tb409 2.349 1_655 S
O420 C431 1.261 . S
O421 Tb408 2.307 1_554 S
O421 C431 1.257 . S
O422 Tb409 2.415 . S
O422 C438 1.239 . S
O423 Tb409 2.399 . S
O423 C438 1.263 . S
O424 Tb409 2.325 . S
O424 C439 1.236 . S
O425 Tb408 2.287 1_454 S
O425 C439 1.284 . S
O426 Tb408 2.340 1_455 S
O426 C410 1.261 . S
O427 Tb409 2.303 1_556 S
O427 C410 1.257 . S
C428 O418 1.236 . S
C428 O419 1.257 1_556 S
O429 Tb408 2.433 . S
O429 C417 1.239 . S
O430 Tb408 2.409 . S
O430 C417 1.263 . S
C431 O420 1.261 . S
C431 O421 1.257 . S
C432 C435 1.358 . S
C432 C436 1.332 . S
C432 C438 1.504 . S
C433 C434 1.373 . S
C433 C437 1.308 . S
C434 C433 1.373 . S
C434 C435 1.429 . S
C434 H444 0.932 . S
C435 C432 1.358 . S
C435 C434 1.429 . S
C435 H445 0.930 . S
C436 C432 1.332 . S
C436 C437 1.394 . S
C436 H446 0.932 . S
C437 C433 1.308 . S
C437 C436 1.394 . S
C437 H447 0.929 . S
C438 Tb409 2.764 . S
C438 O422 1.239 . S
C438 O423 1.263 . S
C438 C432 1.504 . S
C439 O424 1.236 . S
C439 O425 1.284 . S
H440 C413 0.932 . S
H441 C414 0.930 . S
H442 C415 0.932 . S
H443 C416 0.929 . S
H444 C434 0.932 . S
H445 C435 0.930 . S
H446 C436 0.932 . S
H447 C437 0.929 . S
C448 C449 1.349 . S
C448 C450 1.327 . S
C448 H473 0.950 . S
C449 C448 1.349 . S
C449 C465 1.349 . S
C450 C448 1.327 . S
C450 C469 1.429 . S
C450 H474 0.950 . S
C451 C468 1.574 . S
C451 C470 1.368 . S
C451 H475 0.949 . S
H452 C456 0.949 . S
C453 C454 1.349 . S
C453 C455 1.327 . S
C453 H476 0.950 . S
C454 C453 1.349 . S
C454 C466 1.349 . S
C455 C453 1.327 . S
C455 C471 1.429 . S
C455 H477 0.950 . S
C456 H452 0.949 . S
C456 C464 1.574 . S
C456 C472 1.368 . S
H457 C465 0.950 . S
H458 C463 0.950 . S
H459 C464 0.949 . S
H460 C466 0.950 . S
H461 C467 0.950 . S
H462 C468 0.949 . S
C463 H458 0.950 . S
C463 C465 1.327 . S
C463 C469 1.429 . S
C464 C456 1.574 . S
C464 H459 0.949 . S
C464 C470 1.368 . S
C465 C449 1.349 . S
C465 H457 0.950 . S
C465 C463 1.327 . S
C466 C454 1.349 . S
C466 H460 0.950 . S
C466 C467 1.327 . S
C467 H461 0.950 . S
C467 C466 1.327 . S
C467 C471 1.429 . S
C468 C451 1.574 . S
C468 H462 0.949 . S
C468 C472 1.368 . S
C469 C450 1.429 . S
C469 C463 1.429 . S
C469 C470 1.523 . S
C470 C451 1.368 . S
C470 C464 1.368 . S
C470 C469 1.523 . S
C471 C455 1.429 . S
C471 C467 1.429 . S
C471 C472 1.523 . S
C472 C456 1.368 . S
C472 C468 1.368 . S
C472 C471 1.523 . S
H473 C448 0.950 . S
H474 C450 0.950 . S
H475 C451 0.949 . S
H476 C453 0.950 . S
H477 C455 0.950 . S
C478 C479 1.349 . S
C478 C480 1.327 . S
C478 H503 0.950 . S
C479 C478 1.349 . S
C479 C495 1.349 . S
C480 C478 1.327 . S
C480 C499 1.429 . S
C480 H504 0.950 . S
C481 C498 1.574 . S
C481 C500 1.368 . S
C481 H505 0.949 . S
H482 C486 0.949 . S
C483 C484 1.349 . S
C483 C485 1.327 . S
C483 H506 0.950 . S
C484 C483 1.349 . S
C484 C496 1.349 . S
C485 C483 1.327 . S
C485 C501 1.429 . S
C485 H507 0.950 . S
C486 H482 0.949 . S
C486 C494 1.574 . S
C486 C502 1.368 . S
H487 C495 0.950 . S
H488 C493 0.950 . S
H489 C494 0.949 . S
H490 C496 0.950 . S
H491 C497 0.950 . S
H492 C498 0.949 . S
C493 H488 0.950 . S
C493 C495 1.327 . S
C493 C499 1.429 . S
C494 C486 1.574 . S
C494 H489 0.949 . S
C494 C500 1.368 . S
C495 C479 1.349 . S
C495 H487 0.950 . S
C495 C493 1.327 . S
C496 C484 1.349 . S
C496 H490 0.950 . S
C496 C497 1.327 . S
C497 H491 0.950 . S
C497 C496 1.327 . S
C497 C501 1.429 . S
C498 C481 1.574 . S
C498 H492 0.949 . S
C498 C502 1.368 . S
C499 C480 1.429 . S
C499 C493 1.429 . S
C499 C500 1.523 . S
C500 C481 1.368 . S
C500 C494 1.368 . S
C500 C499 1.523 . S
C501 C485 1.429 . S
C501 C497 1.429 . S
C501 C502 1.523 . S
C502 C486 1.368 . S
C502 C498 1.368 . S
C502 C501 1.523 . S
H503 C478 0.950 . S
H504 C480 0.950 . S
H505 C481 0.949 . S
H506 C483 0.950 . S
H507 C485 0.950 . S
C508 C509 1.349 . S
C508 C510 1.327 . S
C508 H533 0.950 . S
C509 C508 1.349 . S
C509 C525 1.349 . S
C510 C508 1.327 . S
C510 C529 1.429 . S
C510 H534 0.950 . S
C511 C528 1.574 . S
C511 C530 1.368 . S
C511 H535 0.949 . S
H512 C516 0.949 . S
C513 C514 1.349 . S
C513 C515 1.327 . S
C513 H536 0.950 . S
C514 C513 1.349 . S
C514 C526 1.349 . S
C515 C513 1.327 . S
C515 C531 1.429 . S
C515 H537 0.950 . S
C516 H512 0.949 . S
C516 C524 1.574 . S
C516 C532 1.368 . S
H517 C525 0.950 . S
H518 C523 0.950 . S
H519 C524 0.949 . S
H520 C526 0.950 . S
H521 C527 0.950 . S
H522 C528 0.949 . S
C523 H518 0.950 . S
C523 C525 1.327 . S
C523 C529 1.429 . S
C524 C516 1.574 . S
C524 H519 0.949 . S
C524 C530 1.368 . S
C525 C509 1.349 . S
C525 H517 0.950 . S
C525 C523 1.327 . S
C526 C514 1.349 . S
C526 H520 0.950 . S
C526 C527 1.327 . S
C527 H521 0.950 . S
C527 C526 1.327 . S
C527 C531 1.429 . S
C528 C511 1.574 . S
C528 H522 0.949 . S
C528 C532 1.368 . S
C529 C510 1.429 . S
C529 C523 1.429 . S
C529 C530 1.523 . S
C530 C511 1.368 . S
C530 C524 1.368 . S
C530 C529 1.523 . S
C531 C515 1.429 . S
C531 C527 1.429 . S
C531 C532 1.523 . S
C532 C516 1.368 . S
C532 C528 1.368 . S
C532 C531 1.523 . S
H533 C508 0.950 . S
H534 C510 0.950 . S
H535 C511 0.949 . S
H536 C513 0.950 . S
H537 C515 0.950 . S
C538 C539 1.349 . S
C538 C540 1.327 . S
C538 H563 0.950 . S
C539 C538 1.349 . S
C539 C555 1.349 . S
C540 C538 1.327 . S
C540 C559 1.429 . S
C540 H564 0.950 . S
C541 C558 1.574 . S
C541 C560 1.368 . S
C541 H565 0.949 . S
H542 C546 0.949 . S
C543 C544 1.349 . S
C543 C545 1.327 . S
C543 H566 0.950 . S
C544 C543 1.349 . S
C544 C556 1.349 . S
C545 C543 1.327 . S
C545 C561 1.429 . S
C545 H567 0.950 . S
C546 H542 0.949 . S
C546 C554 1.574 . S
C546 C562 1.368 . S
H547 C555 0.950 . S
H548 C553 0.950 . S
H549 C554 0.949 . S
H550 C556 0.950 . S
H551 C557 0.950 . S
H552 C558 0.949 . S
C553 H548 0.950 . S
C553 C555 1.327 . S
C553 C559 1.429 . S
C554 C546 1.574 . S
C554 H549 0.949 . S
C554 C560 1.368 . S
C555 C539 1.349 . S
C555 H547 0.950 . S
C555 C553 1.327 . S
C556 C544 1.349 . S
C556 H550 0.950 . S
C556 C557 1.327 . S
C557 H551 0.950 . S
C557 C556 1.327 . S
C557 C561 1.429 . S
C558 C541 1.574 . S
C558 H552 0.949 . S
C558 C562 1.368 . S
C559 C540 1.429 . S
C559 C553 1.429 . S
C559 C560 1.523 . S
C560 C541 1.368 . S
C560 C554 1.368 . S
C560 C559 1.523 . S
C561 C545 1.429 . S
C561 C557 1.429 . S
C561 C562 1.523 . S
C562 C546 1.368 . S
C562 C558 1.368 . S
C562 C561 1.523 . S
H563 C538 0.950 . S
H564 C540 0.950 . S
H565 C541 0.949 . S
H566 C543 0.950 . S
H567 C545 0.950 . S
C568 C569 1.349 . S
C568 C570 1.327 . S
C568 H593 0.950 . S
C569 C568 1.349 . S
C569 C585 1.349 . S
C570 C568 1.327 . S
C570 C589 1.429 . S
C570 H594 0.950 . S
C571 C588 1.574 . S
C571 C590 1.368 . S
C571 H595 0.949 . S
H572 C576 0.949 . S
C573 C574 1.349 . S
C573 C575 1.327 . S
C573 H596 0.950 . S
C574 C573 1.349 . S
C574 C586 1.349 . S
C575 C573 1.327 . S
C575 C591 1.429 . S
C575 H597 0.950 . S
C576 H572 0.949 . S
C576 C584 1.574 . S
C576 C592 1.368 . S
H577 C585 0.950 . S
H578 C583 0.950 . S
H579 C584 0.949 . S
H580 C586 0.950 . S
H581 C587 0.950 . S
H582 C588 0.949 . S
C583 H578 0.950 . S
C583 C585 1.327 . S
C583 C589 1.429 . S
C584 C576 1.574 . S
C584 H579 0.949 . S
C584 C590 1.368 . S
C585 C569 1.349 . S
C585 H577 0.950 . S
C585 C583 1.327 . S
C586 C574 1.349 . S
C586 H580 0.950 . S
C586 C587 1.327 . S
C587 H581 0.950 . S
C587 C586 1.327 . S
C587 C591 1.429 . S
C588 C571 1.574 . S
C588 H582 0.949 . S
C588 C592 1.368 . S
C589 C570 1.429 . S
C589 C583 1.429 . S
C589 C590 1.523 . S
C590 C571 1.368 . S
C590 C584 1.368 . S
C590 C589 1.523 . S
C591 C575 1.429 . S
C591 C587 1.429 . S
C591 C592 1.523 . S
C592 C576 1.368 . S
C592 C588 1.368 . S
C592 C591 1.523 . S
H593 C568 0.950 . S
H594 C570 0.950 . S
H595 C571 0.949 . S
H596 C573 0.950 . S
H597 C575 0.950 . S
C598 C599 1.349 . S
C598 C600 1.327 . S
C598 H623 0.950 . S
C599 C598 1.349 . S
C599 C615 1.349 . S
C600 C598 1.327 . S
C600 C619 1.429 . S
C600 H624 0.950 . S
C601 C618 1.574 . S
C601 C620 1.368 . S
C601 H625 0.949 . S
H602 C606 0.949 . S
C603 C604 1.349 . S
C603 C605 1.327 . S
C603 H626 0.950 . S
C604 C603 1.349 . S
C604 C616 1.349 . S
C605 C603 1.327 . S
C605 C621 1.429 . S
C605 H627 0.950 . S
C606 H602 0.949 . S
C606 C614 1.574 . S
C606 C622 1.368 . S
H607 C615 0.950 . S
H608 C613 0.950 . S
H609 C614 0.949 . S
H610 C616 0.950 . S
H611 C617 0.950 . S
H612 C618 0.949 . S
C613 H608 0.950 . S
C613 C615 1.327 . S
C613 C619 1.429 . S
C614 C606 1.574 . S
C614 H609 0.949 . S
C614 C620 1.368 . S
C615 C599 1.349 . S
C615 H607 0.950 . S
C615 C613 1.327 . S
C616 C604 1.349 . S
C616 H610 0.950 . S
C616 C617 1.327 . S
C617 H611 0.950 . S
C617 C616 1.327 . S
C617 C621 1.429 . S
C618 C601 1.574 . S
C618 H612 0.949 . S
C618 C622 1.368 . S
C619 C600 1.429 . S
C619 C613 1.429 . S
C619 C620 1.523 . S
C620 C601 1.368 . S
C620 C614 1.368 . S
C620 C619 1.523 . S
C621 C605 1.429 . S
C621 C617 1.429 . S
C621 C622 1.523 . S
C622 C606 1.368 . S
C622 C618 1.368 . S
C622 C621 1.523 . S
H623 C598 0.950 . S
H624 C600 0.950 . S
H625 C601 0.949 . S
H626 C603 0.950 . S
H627 C605 0.950 . S
C628 C629 1.349 . S
C628 C630 1.327 . S
C628 H653 0.950 . S
C629 C628 1.349 . S
C629 C645 1.349 . S
C630 C628 1.327 . S
C630 C649 1.429 . S
C630 H654 0.950 . S
C631 C648 1.574 . S
C631 C650 1.368 . S
C631 H655 0.949 . S
H632 C636 0.949 . S
C633 C634 1.349 . S
C633 C635 1.327 . S
C633 H656 0.950 . S
C634 C633 1.349 . S
C634 C646 1.349 . S
C635 C633 1.327 . S
C635 C651 1.429 . S
C635 H657 0.950 . S
C636 H632 0.949 . S
C636 C644 1.574 . S
C636 C652 1.368 . S
H637 C645 0.950 . S
H638 C643 0.950 . S
H639 C644 0.949 . S
H640 C646 0.950 . S
H641 C647 0.950 . S
H642 C648 0.949 . S
C643 H638 0.950 . S
C643 C645 1.327 . S
C643 C649 1.429 . S
C644 C636 1.574 . S
C644 H639 0.949 . S
C644 C650 1.368 . S
C645 C629 1.349 . S
C645 H637 0.950 . S
C645 C643 1.327 . S
C646 C634 1.349 . S
C646 H640 0.950 . S
C646 C647 1.327 . S
C647 H641 0.950 . S
C647 C646 1.327 . S
C647 C651 1.429 . S
C648 C631 1.574 . S
C648 H642 0.949 . S
C648 C652 1.368 . S
C649 C630 1.429 . S
C649 C643 1.429 . S
C649 C650 1.523 . S
C650 C631 1.368 . S
C650 C644 1.368 . S
C650 C649 1.523 . S
C651 C635 1.429 . S
C651 C647 1.429 . S
C651 C652 1.523 . S
C652 C636 1.368 . S
C652 C648 1.368 . S
C652 C651 1.523 . S
H653 C628 0.950 . S
H654 C630 0.950 . S
H655 C631 0.949 . S
H656 C633 0.950 . S
H657 C635 0.950 . S
C658 C659 1.349 . S
C658 C660 1.327 . S
C658 H683 0.950 . S
C659 C658 1.349 . S
C659 C675 1.349 . S
C660 C658 1.327 . S
C660 C679 1.429 . S
C660 H684 0.950 . S
C661 C678 1.574 . S
C661 C680 1.368 . S
C661 H685 0.949 . S
H662 C666 0.949 . S
C663 C664 1.349 . S
C663 C665 1.327 . S
C663 H686 0.950 . S
C664 C663 1.349 . S
C664 C676 1.349 . S
C665 C663 1.327 . S
C665 C681 1.429 . S
C665 H687 0.950 . S
C666 H662 0.949 . S
C666 C674 1.574 . S
C666 C682 1.368 . S
H667 C675 0.950 . S
H668 C673 0.950 . S
H669 C674 0.949 . S
H670 C676 0.950 . S
H671 C677 0.950 . S
H672 C678 0.949 . S
C673 H668 0.950 . S
C673 C675 1.327 . S
C673 C679 1.429 . S
C674 C666 1.574 . S
C674 H669 0.949 . S
C674 C680 1.368 . S
C675 C659 1.349 . S
C675 H667 0.950 . S
C675 C673 1.327 . S
C676 C664 1.349 . S
C676 H670 0.950 . S
C676 C677 1.327 . S
C677 H671 0.950 . S
C677 C676 1.327 . S
C677 C681 1.429 . S
C678 C661 1.574 . S
C678 H672 0.949 . S
C678 C682 1.368 . S
C679 C660 1.429 . S
C679 C673 1.429 . S
C679 C680 1.523 . S
C680 C661 1.368 . S
C680 C674 1.368 . S
C680 C679 1.523 . S
C681 C665 1.429 . S
C681 C677 1.429 . S
C681 C682 1.523 . S
C682 C666 1.368 . S
C682 C678 1.368 . S
C682 C681 1.523 . S
H683 C658 0.950 . S
H684 C660 0.950 . S
H685 C661 0.949 . S
H686 C663 0.950 . S
H687 C665 0.950 . S
C688 C689 1.349 . S
C688 C690 1.327 . S
C688 H713 0.950 . S
C689 C688 1.349 . S
C689 C705 1.349 . S
C690 C688 1.327 . S
C690 C709 1.429 . S
C690 H714 0.950 . S
C691 C708 1.574 . S
C691 C710 1.368 . S
C691 H715 0.949 . S
H692 C696 0.949 . S
C693 C694 1.349 . S
C693 C695 1.327 . S
C693 H716 0.950 . S
C694 C693 1.349 . S
C694 C706 1.349 . S
C695 C693 1.327 . S
C695 C711 1.429 . S
C695 H717 0.950 . S
C696 H692 0.949 . S
C696 C704 1.574 . S
C696 C712 1.368 . S
H697 C705 0.950 . S
H698 C703 0.950 . S
H699 C704 0.949 . S
H700 C706 0.950 . S
H701 C707 0.950 . S
H702 C708 0.949 . S
C703 H698 0.950 . S
C703 C705 1.327 . S
C703 C709 1.429 . S
C704 C696 1.574 . S
C704 H699 0.949 . S
C704 C710 1.368 . S
C705 C689 1.349 . S
C705 H697 0.950 . S
C705 C703 1.327 . S
C706 C694 1.349 . S
C706 H700 0.950 . S
C706 C707 1.327 . S
C707 H701 0.950 . S
C707 C706 1.327 . S
C707 C711 1.429 . S
C708 C691 1.574 . S
C708 H702 0.949 . S
C708 C712 1.368 . S
C709 C690 1.429 . S
C709 C703 1.429 . S
C709 C710 1.523 . S
C710 C691 1.368 . S
C710 C704 1.368 . S
C710 C709 1.523 . S
C711 C695 1.429 . S
C711 C707 1.429 . S
C711 C712 1.523 . S
C712 C696 1.368 . S
C712 C708 1.368 . S
C712 C711 1.523 . S
H713 C688 0.950 . S
H714 C690 0.950 . S
H715 C691 0.949 . S
H716 C693 0.950 . S
H717 C695 0.950 . S
C718 C719 1.349 . S
C718 C720 1.327 . S
C718 H743 0.950 . S
C719 C718 1.349 . S
C719 C735 1.349 . S
C720 C718 1.327 . S
C720 C739 1.429 . S
C720 H744 0.950 . S
C721 C738 1.574 . S
C721 C740 1.368 . S
C721 H745 0.949 . S
H722 C726 0.949 . S
C723 C724 1.349 . S
C723 C725 1.327 . S
C723 H746 0.950 . S
C724 C723 1.349 . S
C724 C736 1.349 . S
C725 C723 1.327 . S
C725 C741 1.429 . S
C725 H747 0.950 . S
C726 H722 0.949 . S
C726 C734 1.574 . S
C726 C742 1.368 . S
H727 C735 0.950 . S
H728 C733 0.950 . S
H729 C734 0.949 . S
H730 C736 0.950 . S
H731 C737 0.950 . S
H732 C738 0.949 . S
C733 H728 0.950 . S
C733 C735 1.327 . S
C733 C739 1.429 . S
C734 C726 1.574 . S
C734 H729 0.949 . S
C734 C740 1.368 . S
C735 C719 1.349 . S
C735 H727 0.950 . S
C735 C733 1.327 . S
C736 C724 1.349 . S
C736 H730 0.950 . S
C736 C737 1.327 . S
C737 H731 0.950 . S
C737 C736 1.327 . S
C737 C741 1.429 . S
C738 C721 1.574 . S
C738 H732 0.949 . S
C738 C742 1.368 . S
C739 C720 1.429 . S
C739 C733 1.429 . S
C739 C740 1.523 . S
C740 C721 1.368 . S
C740 C734 1.368 . S
C740 C739 1.523 . S
C741 C725 1.429 . S
C741 C737 1.429 . S
C741 C742 1.523 . S
C742 C726 1.368 . S
C742 C738 1.368 . S
C742 C741 1.523 . S
H743 C718 0.950 . S
H744 C720 0.950 . S
H745 C721 0.949 . S
H746 C723 0.950 . S
H747 C725 0.950 . S
C748 C749 1.349 . S
C748 C750 1.327 . S
C748 H773 0.950 . S
C749 C748 1.349 . S
C749 C765 1.349 . S
C750 C748 1.327 . S
C750 C769 1.429 . S
C750 H774 0.950 . S
C751 C768 1.574 . S
C751 C770 1.368 . S
C751 H775 0.949 . S
H752 C756 0.949 . S
C753 C754 1.349 . S
C753 C755 1.327 . S
C753 H776 0.950 . S
C754 C753 1.349 . S
C754 C766 1.349 . S
C755 C753 1.327 . S
C755 C771 1.429 . S
C755 H777 0.950 . S
C756 H752 0.949 . S
C756 C764 1.574 . S
C756 C772 1.368 . S
H757 C765 0.950 . S
H758 C763 0.950 . S
H759 C764 0.949 . S
H760 C766 0.950 . S
H761 C767 0.950 . S
H762 C768 0.949 . S
C763 H758 0.950 . S
C763 C765 1.327 . S
C763 C769 1.429 . S
C764 C756 1.574 . S
C764 H759 0.949 . S
C764 C770 1.368 . S
C765 C749 1.349 . S
C765 H757 0.950 . S
C765 C763 1.327 . S
C766 C754 1.349 . S
C766 H760 0.950 . S
C766 C767 1.327 . S
C767 H761 0.950 . S
C767 C766 1.327 . S
C767 C771 1.429 . S
C768 C751 1.574 . S
C768 H762 0.949 . S
C768 C772 1.368 . S
C769 C750 1.429 . S
C769 C763 1.429 . S
C769 C770 1.523 . S
C770 C751 1.368 . S
C770 C764 1.368 . S
C770 C769 1.523 . S
C771 C755 1.429 . S
C771 C767 1.429 . S
C771 C772 1.523 . S
C772 C756 1.368 . S
C772 C768 1.368 . S
C772 C771 1.523 . S
H773 C748 0.950 . S
H774 C750 0.950 . S
H775 C751 0.949 . S
H776 C753 0.950 . S
H777 C755 0.950 . S
C778 C779 1.349 . S
C778 C780 1.327 . S
C778 H803 0.950 . S
C779 C778 1.349 . S
C779 C795 1.349 . S
C780 C778 1.327 . S
C780 C799 1.429 . S
C780 H804 0.950 . S
C781 C798 1.574 . S
C781 C800 1.368 . S
C781 H805 0.949 . S
H782 C786 0.949 . S
C783 C784 1.349 . S
C783 C785 1.327 . S
C783 H806 0.950 . S
C784 C783 1.349 . S
C784 C796 1.349 . S
C785 C783 1.327 . S
C785 C801 1.429 . S
C785 H807 0.950 . S
C786 H782 0.949 . S
C786 C794 1.574 . S
C786 C802 1.368 . S
H787 C795 0.950 . S
H788 C793 0.950 . S
H789 C794 0.949 . S
H790 C796 0.950 . S
H791 C797 0.950 . S
H792 C798 0.949 . S
C793 H788 0.950 . S
C793 C795 1.327 . S
C793 C799 1.429 . S
C794 C786 1.574 . S
C794 H789 0.949 . S
C794 C800 1.368 . S
C795 C779 1.349 . S
C795 H787 0.950 . S
C795 C793 1.327 . S
C796 C784 1.349 . S
C796 H790 0.950 . S
C796 C797 1.327 . S
C797 H791 0.950 . S
C797 C796 1.327 . S
C797 C801 1.429 . S
C798 C781 1.574 . S
C798 H792 0.949 . S
C798 C802 1.368 . S
C799 C780 1.429 . S
C799 C793 1.429 . S
C799 C800 1.523 . S
C800 C781 1.368 . S
C800 C794 1.368 . S
C800 C799 1.523 . S
C801 C785 1.429 . S
C801 C797 1.429 . S
C801 C802 1.523 . S
C802 C786 1.368 . S
C802 C798 1.368 . S
C802 C801 1.523 . S
H803 C778 0.950 . S
H804 C780 0.950 . S
H805 C781 0.949 . S
H806 C783 0.950 . S
H807 C785 0.950 . S
C808 C809 1.349 . S
C808 C810 1.327 . S
C808 H833 0.950 . S
C809 C808 1.349 . S
C809 C825 1.349 . S
C810 C808 1.327 . S
C810 C829 1.429 . S
C810 H834 0.950 . S
C811 C828 1.574 . S
C811 C830 1.368 . S
C811 H835 0.949 . S
H812 C816 0.949 . S
C813 C814 1.349 . S
C813 C815 1.327 . S
C813 H836 0.950 . S
C814 C813 1.349 . S
C814 C826 1.349 . S
C815 C813 1.327 . S
C815 C831 1.429 . S
C815 H837 0.950 . S
C816 H812 0.949 . S
C816 C824 1.574 . S
C816 C832 1.368 . S
H817 C825 0.950 . S
H818 C823 0.950 . S
H819 C824 0.949 . S
H820 C826 0.950 . S
H821 C827 0.950 . S
H822 C828 0.949 . S
C823 H818 0.950 . S
C823 C825 1.327 . S
C823 C829 1.429 . S
C824 C816 1.574 . S
C824 H819 0.949 . S
C824 C830 1.368 . S
C825 C809 1.349 . S
C825 H817 0.950 . S
C825 C823 1.327 . S
C826 C814 1.349 . S
C826 H820 0.950 . S
C826 C827 1.327 . S
C827 H821 0.950 . S
C827 C826 1.327 . S
C827 C831 1.429 . S
C828 C811 1.574 . S
C828 H822 0.949 . S
C828 C832 1.368 . S
C829 C810 1.429 . S
C829 C823 1.429 . S
C829 C830 1.523 . S
C830 C811 1.368 . S
C830 C824 1.368 . S
C830 C829 1.523 . S
C831 C815 1.429 . S
C831 C827 1.429 . S
C831 C832 1.523 . S
C832 C816 1.368 . S
C832 C828 1.368 . S
C832 C831 1.523 . S
H833 C808 0.950 . S
H834 C810 0.950 . S
H835 C811 0.949 . S
H836 C813 0.950 . S
H837 C815 0.950 . S
C838 C839 1.349 . S
C838 C840 1.327 . S
C838 H863 0.950 . S
C839 C838 1.349 . S
C839 C855 1.349 . S
C840 C838 1.327 . S
C840 C859 1.429 . S
C840 H864 0.950 . S
C841 C858 1.574 . S
C841 C860 1.368 . S
C841 H865 0.949 . S
H842 C846 0.949 . S
C843 C844 1.349 . S
C843 C845 1.327 . S
C843 H866 0.950 . S
C844 C843 1.349 . S
C844 C856 1.349 . S
C845 C843 1.327 . S
C845 C861 1.429 . S
C845 H867 0.950 . S
C846 H842 0.949 . S
C846 C854 1.574 . S
C846 C862 1.368 . S
H847 C855 0.950 . S
H848 C853 0.950 . S
H849 C854 0.949 . S
H850 C856 0.950 . S
H851 C857 0.950 . S
H852 C858 0.949 . S
C853 H848 0.950 . S
C853 C855 1.327 . S
C853 C859 1.429 . S
C854 C846 1.574 . S
C854 H849 0.949 . S
C854 C860 1.368 . S
C855 C839 1.349 . S
C855 H847 0.950 . S
C855 C853 1.327 . S
C856 C844 1.349 . S
C856 H850 0.950 . S
C856 C857 1.327 . S
C857 H851 0.950 . S
C857 C856 1.327 . S
C857 C861 1.429 . S
C858 C841 1.574 . S
C858 H852 0.949 . S
C858 C862 1.368 . S
C859 C840 1.429 . S
C859 C853 1.429 . S
C859 C860 1.523 . S
C860 C841 1.368 . S
C860 C854 1.368 . S
C860 C859 1.523 . S
C861 C845 1.429 . S
C861 C857 1.429 . S
C861 C862 1.523 . S
C862 C846 1.368 . S
C862 C858 1.368 . S
C862 C861 1.523 . S
H863 C838 0.950 . S
H864 C840 0.950 . S
H865 C841 0.949 . S
H866 C843 0.950 . S
H867 C845 0.950 . S
C868 C869 1.349 . S
C868 C870 1.327 . S
C868 H893 0.950 . S
C869 C868 1.349 . S
C869 C885 1.349 . S
C870 C868 1.327 . S
C870 C889 1.429 . S
C870 H894 0.950 . S
C871 C888 1.574 . S
C871 C890 1.368 . S
C871 H895 0.949 . S
H872 C876 0.949 . S
C873 C874 1.349 . S
C873 C875 1.327 . S
C873 H896 0.950 . S
C874 C873 1.349 . S
C874 C886 1.349 . S
C875 C873 1.327 . S
C875 C891 1.429 . S
C875 H897 0.950 . S
C876 H872 0.949 . S
C876 C884 1.574 . S
C876 C892 1.368 . S
H877 C885 0.950 . S
H878 C883 0.950 . S
H879 C884 0.949 . S
H880 C886 0.950 . S
H881 C887 0.950 . S
H882 C888 0.949 . S
C883 H878 0.950 . S
C883 C885 1.327 . S
C883 C889 1.429 . S
C884 C876 1.574 . S
C884 H879 0.949 . S
C884 C890 1.368 . S
C885 C869 1.349 . S
C885 H877 0.950 . S
C885 C883 1.327 . S
C886 C874 1.349 . S
C886 H880 0.950 . S
C886 C887 1.327 . S
C887 H881 0.950 . S
C887 C886 1.327 . S
C887 C891 1.429 . S
C888 C871 1.574 . S
C888 H882 0.949 . S
C888 C892 1.368 . S
C889 C870 1.429 . S
C889 C883 1.429 . S
C889 C890 1.523 . S
C890 C871 1.368 . S
C890 C884 1.368 . S
C890 C889 1.523 . S
C891 C875 1.429 . S
C891 C887 1.429 . S
C891 C892 1.523 . S
C892 C876 1.368 . S
C892 C888 1.368 . S
C892 C891 1.523 . S
H893 C868 0.950 . S
H894 C870 0.950 . S
H895 C871 0.949 . S
H896 C873 0.950 . S
H897 C875 0.950 . S
C898 C899 1.349 . S
C898 C900 1.327 . S
C898 H923 0.950 . S
C899 C898 1.349 . S
C899 C915 1.349 . S
C900 C898 1.327 . S
C900 C919 1.429 . S
C900 H924 0.950 . S
C901 C918 1.574 . S
C901 C920 1.368 . S
C901 H925 0.949 . S
H902 C906 0.949 . S
C903 C904 1.349 . S
C903 C905 1.327 . S
C903 H926 0.950 . S
C904 C903 1.349 . S
C904 C916 1.349 . S
C905 C903 1.327 . S
C905 C921 1.429 . S
C905 H927 0.950 . S
C906 H902 0.949 . S
C906 C914 1.574 . S
C906 C922 1.368 . S
H907 C915 0.950 . S
H908 C913 0.950 . S
H909 C914 0.949 . S
H910 C916 0.950 . S
H911 C917 0.950 . S
H912 C918 0.949 . S
C913 H908 0.950 . S
C913 C915 1.327 . S
C913 C919 1.429 . S
C914 C906 1.574 . S
C914 H909 0.949 . S
C914 C920 1.368 . S
C915 C899 1.349 . S
C915 H907 0.950 . S
C915 C913 1.327 . S
C916 C904 1.349 . S
C916 H910 0.950 . S
C916 C917 1.327 . S
C917 H911 0.950 . S
C917 C916 1.327 . S
C917 C921 1.429 . S
C918 C901 1.574 . S
C918 H912 0.949 . S
C918 C922 1.368 . S
C919 C900 1.429 . S
C919 C913 1.429 . S
C919 C920 1.523 . S
C920 C901 1.368 . S
C920 C914 1.368 . S
C920 C919 1.523 . S
C921 C905 1.429 . S
C921 C917 1.429 . S
C921 C922 1.523 . S
C922 C906 1.368 . S
C922 C918 1.368 . S
C922 C921 1.523 . S
H923 C898 0.950 . S
H924 C900 0.950 . S
H925 C901 0.949 . S
H926 C903 0.950 . S
H927 C905 0.950 . S
C928 C929 1.349 . S
C928 C930 1.327 . S
C928 H953 0.950 . S
C929 C928 1.349 . S
C929 C945 1.349 . S
C930 C928 1.327 . S
C930 C949 1.429 . S
C930 H954 0.950 . S
C931 C948 1.574 . S
C931 C950 1.368 . S
C931 H955 0.949 . S
H932 C936 0.949 . S
C933 C934 1.349 . S
C933 C935 1.327 . S
C933 H956 0.950 . S
C934 C933 1.349 . S
C934 C946 1.349 . S
C935 C933 1.327 . S
C935 C951 1.429 . S
C935 H957 0.950 . S
C936 H932 0.949 . S
C936 C944 1.574 . S
C936 C952 1.368 . S
H937 C945 0.950 . S
H938 C943 0.950 . S
H939 C944 0.949 . S
H940 C946 0.950 . S
H941 C947 0.950 . S
H942 C948 0.949 . S
C943 H938 0.950 . S
C943 C945 1.327 . S
C943 C949 1.429 . S
C944 C936 1.574 . S
C944 H939 0.949 . S
C944 C950 1.368 . S
C945 C929 1.349 . S
C945 H937 0.950 . S
C945 C943 1.327 . S
C946 C934 1.349 . S
C946 H940 0.950 . S
C946 C947 1.327 . S
C947 H941 0.950 . S
C947 C946 1.327 . S
C947 C951 1.429 . S
C948 C931 1.574 . S
C948 H942 0.949 . S
C948 C952 1.368 . S
C949 C930 1.429 . S
C949 C943 1.429 . S
C949 C950 1.523 . S
C950 C931 1.368 . S
C950 C944 1.368 . S
C950 C949 1.523 . S
C951 C935 1.429 . S
C951 C947 1.429 . S
C951 C952 1.523 . S
C952 C936 1.368 . S
C952 C948 1.368 . S
C952 C951 1.523 . S
H953 C928 0.950 . S
H954 C930 0.950 . S
H955 C931 0.949 . S
H956 C933 0.950 . S
H957 C935 0.950 . S
C958 C959 1.349 . S
C958 C960 1.327 . S
C958 H983 0.950 . S
C959 C958 1.349 . S
C959 C975 1.349 . S
C960 C958 1.327 . S
C960 C979 1.429 . S
C960 H984 0.950 . S
C961 C978 1.574 . S
C961 C980 1.368 . S
C961 H985 0.949 . S
H962 C966 0.949 . S
C963 C964 1.349 . S
C963 C965 1.327 . S
C963 H986 0.950 . S
C964 C963 1.349 . S
C964 C976 1.349 . S
C965 C963 1.327 . S
C965 C981 1.429 . S
C965 H987 0.950 . S
C966 H962 0.949 . S
C966 C974 1.574 . S
C966 C982 1.368 . S
H967 C975 0.950 . S
H968 C973 0.950 . S
H969 C974 0.949 . S
H970 C976 0.950 . S
H971 C977 0.950 . S
H972 C978 0.949 . S
C973 H968 0.950 . S
C973 C975 1.327 . S
C973 C979 1.429 . S
C974 C966 1.574 . S
C974 H969 0.949 . S
C974 C980 1.368 . S
C975 C959 1.349 . S
C975 H967 0.950 . S
C975 C973 1.327 . S
C976 C964 1.349 . S
C976 H970 0.950 . S
C976 C977 1.327 . S
C977 H971 0.950 . S
C977 C976 1.327 . S
C977 C981 1.429 . S
C978 C961 1.574 . S
C978 H972 0.949 . S
C978 C982 1.368 . S
C979 C960 1.429 . S
C979 C973 1.429 . S
C979 C980 1.523 . S
C980 C961 1.368 . S
C980 C974 1.368 . S
C980 C979 1.523 . S
C981 C965 1.429 . S
C981 C977 1.429 . S
C981 C982 1.523 . S
C982 C966 1.368 . S
C982 C978 1.368 . S
C982 C981 1.523 . S
H983 C958 0.950 . S
H984 C960 0.950 . S
H985 C961 0.949 . S
H986 C963 0.950 . S
H987 C965 0.950 . S
C988 C989 1.349 . S
C988 C990 1.327 . S
C988 H1013 0.950 . S
C989 C988 1.349 . S
C989 C1005 1.349 . S
C990 C988 1.327 . S
C990 C1009 1.429 . S
C990 H1014 0.950 . S
C991 C1008 1.574 . S
C991 C1010 1.368 . S
C991 H1015 0.949 . S
H992 C996 0.949 . S
C993 C994 1.349 . S
C993 C995 1.327 . S
C993 H1016 0.950 1_554 S
C994 C993 1.349 . S
C994 C1006 1.349 . S
C995 C993 1.327 . S
C995 C1011 1.429 . S
C995 H1017 0.950 . S
C996 H992 0.949 . S
C996 C1004 1.574 . S
C996 C1012 1.368 . S
H997 C1005 0.950 . S
H998 C1003 0.950 . S
H999 C1004 0.949 . S
H1000 C1006 0.950 . S
H1001 C1007 0.950 . S
H1002 C1008 0.949 . S
C1003 H998 0.950 . S
C1003 C1005 1.327 . S
C1003 C1009 1.429 . S
C1004 C996 1.574 . S
C1004 H999 0.949 . S
C1004 C1010 1.368 . S
C1005 C989 1.349 . S
C1005 H997 0.950 . S
C1005 C1003 1.327 . S
C1006 C994 1.349 . S
C1006 H1000 0.950 . S
C1006 C1007 1.327 . S
C1007 H1001 0.950 . S
C1007 C1006 1.327 . S
C1007 C1011 1.429 . S
C1008 C991 1.574 . S
C1008 H1002 0.949 . S
C1008 C1012 1.368 . S
C1009 C990 1.429 . S
C1009 C1003 1.429 . S
C1009 C1010 1.523 . S
C1010 C991 1.368 . S
C1010 C1004 1.368 . S
C1010 C1009 1.523 . S
C1011 C995 1.429 . S
C1011 C1007 1.429 . S
C1011 C1012 1.523 . S
C1012 C996 1.368 . S
C1012 C1008 1.368 . S
C1012 C1011 1.523 . S
H1013 C988 0.950 . S
H1014 C990 0.950 . S
H1015 C991 0.949 . S
H1016 C993 0.950 1_556 S
H1017 C995 0.950 . S
C1018 C1019 1.349 . S
C1018 C1020 1.327 . S
C1018 H1043 0.950 . S
C1019 C1018 1.349 . S
C1019 C1035 1.349 . S
C1020 C1018 1.327 . S
C1020 C1039 1.429 . S
C1020 H1044 0.950 . S
C1021 C1038 1.574 . S
C1021 C1040 1.368 . S
C1021 H1045 0.949 . S
H1022 C1026 0.949 . S
C1023 C1024 1.349 . S
C1023 C1025 1.327 . S
C1023 H1046 0.950 . S
C1024 C1023 1.349 . S
C1024 C1036 1.349 . S
C1025 C1023 1.327 . S
C1025 C1041 1.429 . S
C1025 H1047 0.950 . S
C1026 H1022 0.949 . S
C1026 C1034 1.574 . S
C1026 C1042 1.368 . S
H1027 C1035 0.950 . S
H1028 C1033 0.950 . S
H1029 C1034 0.949 . S
H1030 C1036 0.950 . S
H1031 C1037 0.950 . S
H1032 C1038 0.949 . S
C1033 H1028 0.950 . S
C1033 C1035 1.327 . S
C1033 C1039 1.429 . S
C1034 C1026 1.574 . S
C1034 H1029 0.949 . S
C1034 C1040 1.368 . S
C1035 C1019 1.349 . S
C1035 H1027 0.950 . S
C1035 C1033 1.327 . S
C1036 C1024 1.349 . S
C1036 H1030 0.950 . S
C1036 C1037 1.327 . S
C1037 H1031 0.950 . S
C1037 C1036 1.327 . S
C1037 C1041 1.429 . S
C1038 C1021 1.574 . S
C1038 H1032 0.949 . S
C1038 C1042 1.368 . S
C1039 C1020 1.429 . S
C1039 C1033 1.429 . S
C1039 C1040 1.523 . S
C1040 C1021 1.368 . S
C1040 C1034 1.368 . S
C1040 C1039 1.523 . S
C1041 C1025 1.429 . S
C1041 C1037 1.429 . S
C1041 C1042 1.523 . S
C1042 C1026 1.368 . S
C1042 C1038 1.368 . S
C1042 C1041 1.523 . S
H1043 C1018 0.950 . S
H1044 C1020 0.950 . S
H1045 C1021 0.949 . S
H1046 C1023 0.950 . S
H1047 C1025 0.950 . S
C1048 C1049 1.349 . S
C1048 C1050 1.327 . S
C1048 H1073 0.950 . S
C1049 C1048 1.349 . S
C1049 C1065 1.349 . S
C1050 C1048 1.327 . S
C1050 C1069 1.429 . S
C1050 H1074 0.950 . S
C1051 C1068 1.574 . S
C1051 C1070 1.368 . S
C1051 H1075 0.949 . S
H1052 C1056 0.949 . S
C1053 C1054 1.349 . S
C1053 C1055 1.327 . S
C1053 H1076 0.950 . S
C1054 C1053 1.349 . S
C1054 C1066 1.349 . S
C1055 C1053 1.327 . S
C1055 C1071 1.429 . S
C1055 H1077 0.950 . S
C1056 H1052 0.949 . S
C1056 C1064 1.574 . S
C1056 C1072 1.368 . S
H1057 C1065 0.950 . S
H1058 C1063 0.950 . S
H1059 C1064 0.949 . S
H1060 C1066 0.950 . S
H1061 C1067 0.950 . S
H1062 C1068 0.949 . S
C1063 H1058 0.950 . S
C1063 C1065 1.327 . S
C1063 C1069 1.429 . S
C1064 C1056 1.574 . S
C1064 H1059 0.949 . S
C1064 C1070 1.368 . S
C1065 C1049 1.349 . S
C1065 H1057 0.950 . S
C1065 C1063 1.327 . S
C1066 C1054 1.349 . S
C1066 H1060 0.950 . S
C1066 C1067 1.327 . S
C1067 H1061 0.950 . S
C1067 C1066 1.327 . S
C1067 C1071 1.429 . S
C1068 C1051 1.574 . S
C1068 H1062 0.949 . S
C1068 C1072 1.368 . S
C1069 C1050 1.429 . S
C1069 C1063 1.429 . S
C1069 C1070 1.523 . S
C1070 C1051 1.368 . S
C1070 C1064 1.368 . S
C1070 C1069 1.523 . S
C1071 C1055 1.429 . S
C1071 C1067 1.429 . S
C1071 C1072 1.523 . S
C1072 C1056 1.368 . S
C1072 C1068 1.368 . S
C1072 C1071 1.523 . S
H1073 C1048 0.950 . S
H1074 C1050 0.950 . S
H1075 C1051 0.949 . S
H1076 C1053 0.950 . S
H1077 C1055 0.950 . S
C1078 C1079 1.349 . S
C1078 C1080 1.327 . S
C1078 H1103 0.950 . S
C1079 C1078 1.349 . S
C1079 C1095 1.349 . S
C1080 C1078 1.327 . S
C1080 C1099 1.429 . S
C1080 H1104 0.950 . S
C1081 C1098 1.574 . S
C1081 C1100 1.368 . S
C1081 H1105 0.949 . S
H1082 C1086 0.949 . S
C1083 C1084 1.349 . S
C1083 C1085 1.327 . S
C1083 H1106 0.950 . S
C1084 C1083 1.349 . S
C1084 C1096 1.349 . S
C1085 C1083 1.327 . S
C1085 C1101 1.429 . S
C1085 H1107 0.950 . S
C1086 H1082 0.949 . S
C1086 C1094 1.574 . S
C1086 C1102 1.368 . S
H1087 C1095 0.950 . S
H1088 C1093 0.950 . S
H1089 C1094 0.949 . S
H1090 C1096 0.950 . S
H1091 C1097 0.950 . S
H1092 C1098 0.949 . S
C1093 H1088 0.950 . S
C1093 C1095 1.327 . S
C1093 C1099 1.429 . S
C1094 C1086 1.574 . S
C1094 H1089 0.949 . S
C1094 C1100 1.368 . S
C1095 C1079 1.349 . S
C1095 H1087 0.950 . S
C1095 C1093 1.327 . S
C1096 C1084 1.349 . S
C1096 H1090 0.950 . S
C1096 C1097 1.327 . S
C1097 H1091 0.950 . S
C1097 C1096 1.327 . S
C1097 C1101 1.429 . S
C1098 C1081 1.574 . S
C1098 H1092 0.949 . S
C1098 C1102 1.368 . S
C1099 C1080 1.429 . S
C1099 C1093 1.429 . S
C1099 C1100 1.523 . S
C1100 C1081 1.368 . S
C1100 C1094 1.368 . S
C1100 C1099 1.523 . S
C1101 C1085 1.429 . S
C1101 C1097 1.429 . S
C1101 C1102 1.523 . S
C1102 C1086 1.368 . S
C1102 C1098 1.368 . S
C1102 C1101 1.523 . S
H1103 C1078 0.950 . S
H1104 C1080 0.950 . S
H1105 C1081 0.949 . S
H1106 C1083 0.950 . S
H1107 C1085 0.950 . S
C1108 C1109 1.349 . S
C1108 C1110 1.327 . S
C1108 H1133 0.950 . S
C1109 C1108 1.349 . S
C1109 C1125 1.349 . S
C1110 C1108 1.327 . S
C1110 C1129 1.429 . S
C1110 H1134 0.950 . S
C1111 C1128 1.574 . S
C1111 C1130 1.368 . S
C1111 H1135 0.949 . S
H1112 C1116 0.949 . S
C1113 C1114 1.349 . S
C1113 C1115 1.327 . S
C1113 H1136 0.950 . S
C1114 C1113 1.349 . S
C1114 C1126 1.349 . S
C1115 C1113 1.327 . S
C1115 C1131 1.429 . S
C1115 H1137 0.950 . S
C1116 H1112 0.949 . S
C1116 C1124 1.574 . S
C1116 C1132 1.368 . S
H1117 C1125 0.950 . S
H1118 C1123 0.950 . S
H1119 C1124 0.949 . S
H1120 C1126 0.950 . S
H1121 C1127 0.950 . S
H1122 C1128 0.949 . S
C1123 H1118 0.950 . S
C1123 C1125 1.327 . S
C1123 C1129 1.429 . S
C1124 C1116 1.574 . S
C1124 H1119 0.949 . S
C1124 C1130 1.368 . S
C1125 C1109 1.349 . S
C1125 H1117 0.950 . S
C1125 C1123 1.327 . S
C1126 C1114 1.349 . S
C1126 H1120 0.950 . S
C1126 C1127 1.327 . S
C1127 H1121 0.950 . S
C1127 C1126 1.327 . S
C1127 C1131 1.429 . S
C1128 C1111 1.574 . S
C1128 H1122 0.949 . S
C1128 C1132 1.368 . S
C1129 C1110 1.429 . S
C1129 C1123 1.429 . S
C1129 C1130 1.523 . S
C1130 C1111 1.368 . S
C1130 C1124 1.368 . S
C1130 C1129 1.523 . S
C1131 C1115 1.429 . S
C1131 C1127 1.429 . S
C1131 C1132 1.523 . S
C1132 C1116 1.368 . S
C1132 C1128 1.368 . S
C1132 C1131 1.523 . S
H1133 C1108 0.950 . S
H1134 C1110 0.950 . S
H1135 C1111 0.949 . S
H1136 C1113 0.950 . S
H1137 C1115 0.950 . S
C1138 C1139 1.349 . S
C1138 C1140 1.327 . S
C1138 H1163 0.950 . S
C1139 C1138 1.349 . S
C1139 C1155 1.349 . S
C1140 C1138 1.327 . S
C1140 C1159 1.429 . S
C1140 H1164 0.950 . S
C1141 C1158 1.574 . S
C1141 C1160 1.368 . S
C1141 H1165 0.949 . S
H1142 C1146 0.949 . S
C1143 C1144 1.349 . S
C1143 C1145 1.327 . S
C1143 H1166 0.950 . S
C1144 C1143 1.349 . S
C1144 C1156 1.349 . S
C1145 C1143 1.327 . S
C1145 C1161 1.429 . S
C1145 H1167 0.950 . S
C1146 H1142 0.949 . S
C1146 C1154 1.574 . S
C1146 C1162 1.368 . S
H1147 C1155 0.950 . S
H1148 C1153 0.950 . S
H1149 C1154 0.949 . S
H1150 C1156 0.950 . S
H1151 C1157 0.950 . S
H1152 C1158 0.949 . S
C1153 H1148 0.950 . S
C1153 C1155 1.327 . S
C1153 C1159 1.429 . S
C1154 C1146 1.574 . S
C1154 H1149 0.949 . S
C1154 C1160 1.368 . S
C1155 C1139 1.349 . S
C1155 H1147 0.950 . S
C1155 C1153 1.327 . S
C1156 C1144 1.349 . S
C1156 H1150 0.950 . S
C1156 C1157 1.327 . S
C1157 H1151 0.950 . S
C1157 C1156 1.327 . S
C1157 C1161 1.429 . S
C1158 C1141 1.574 . S
C1158 H1152 0.949 . S
C1158 C1162 1.368 . S
C1159 C1140 1.429 . S
C1159 C1153 1.429 . S
C1159 C1160 1.523 . S
C1160 C1141 1.368 . S
C1160 C1154 1.368 . S
C1160 C1159 1.523 . S
C1161 C1145 1.429 . S
C1161 C1157 1.429 . S
C1161 C1162 1.523 . S
C1162 C1146 1.368 . S
C1162 C1158 1.368 . S
C1162 C1161 1.523 . S
H1163 C1138 0.950 . S
H1164 C1140 0.950 . S
H1165 C1141 0.949 . S
H1166 C1143 0.950 . S
H1167 C1145 0.950 . S
C449 C1 0.849 . S
C454 C292 0.849 . S
C479 C67 1.229 . S
C484 C353 1.242 . S
C514 C391 2.476 . S
C509 C97 2.525 . S
C539 C133 2.295 . S
C544 C431 2.245 . S
C574 C351 1.237 . S
C569 C25 1.248 . S
C604 C319 2.129 . S
C599 C37 2.087 . S
C634 C428 1.679 . S
C629 C103 1.676 . S
C664 C388 1.791 . S
C659 C109 1.806 . S
C689 C31 0.983 . S
C694 C433 0.990 . S
C724 C348 2.384 . S
C719 C73 2.374 . S
C749 C139 2.153 . S
C754 C290 2.119 . S
C779 C61 1.492 . S
C784 C393 1.518 . S
C814 C313 0.851 . S
C809 C175 0.843 . S
C839 C181 1.204 . S
C844 C332 1.227 . S
C869 C247 2.568 . S
C874 C370 2.498 . S
C899 C277 2.283 . S
C904 C410 2.235 . S
C929 C145 1.210 . S
C934 C330 1.223 . S
C964 C308 2.133 . S
C959 C211 2.093 . S
C994 C439 1.664 . S
C989 C217 1.670 . S
C1024 C399 1.814 . S
C1019 C283 1.824 . S
C1049 C169 0.961 . S
C1054 C412 0.983 . S
C1084 C359 2.392 . S
C1079 C241 2.396 . S
C1114 C311 2.104 . S
C1109 C253 2.141 . S
C1139 C205 1.513 . S
C1144 C372 1.525 . S
