# Generated by pormake.
# Topology tsx, (6,3)-cn, num edge types: 1
# Building blocks:
#     Node 0, Type 0, BuildingBlock: LEVNOQ01_clean_sbu_1, # of connection points: 6
#     Node 1, Type 0, BuildingBlock: LEVNOQ01_clean_sbu_1, # of connection points: 6
#     Node 2, Type 1, BuildingBlock: KAKCAD_clean_linker_0, # of connection points: 3
#     Node 3, Type 1, BuildingBlock: KAKCAD_clean_linker_0, # of connection points: 3
#     Node 4, Type 1, BuildingBlock: KAKCAD_clean_linker_0, # of connection points: 3
#     Node 5, Type 1, BuildingBlock: KAKCAD_clean_linker_0, # of connection points: 3
#     Edge 6, Type (0, 1), BuildingBlock: OJICUG_clean_linker_0, # of connection points: 2
#     Edge 7, Type (0, 1), BuildingBlock: OJICUG_clean_linker_0, # of connection points: 2
#     Edge 8, Type (0, 1), BuildingBlock: OJICUG_clean_linker_0, # of connection points: 2
#     Edge 9, Type (0, 1), BuildingBlock: OJICUG_clean_linker_0, # of connection points: 2
#     Edge 10, Type (0, 1), BuildingBlock: OJICUG_clean_linker_0, # of connection points: 2
#     Edge 11, Type (0, 1), BuildingBlock: OJICUG_clean_linker_0, # of connection points: 2
#     Edge 12, Type (0, 1), BuildingBlock: OJICUG_clean_linker_0, # of connection points: 2
#     Edge 13, Type (0, 1), BuildingBlock: OJICUG_clean_linker_0, # of connection points: 2
#     Edge 14, Type (0, 1), BuildingBlock: OJICUG_clean_linker_0, # of connection points: 2
#     Edge 15, Type (0, 1), BuildingBlock: OJICUG_clean_linker_0, # of connection points: 2
#     Edge 16, Type (0, 1), BuildingBlock: OJICUG_clean_linker_0, # of connection points: 2
#     Edge 17, Type (0, 1), BuildingBlock: OJICUG_clean_linker_0, # of connection points: 2
# Relax obj value: 0.130
# Max RMSD: 0.158
# Mean RMSD: 0.120
data_MOF--net-tsx--node1-LEVNOQ01_clean_sbu_1--node2-KAKCAD_clean_linker_0--edge1-OJICUG_clean_linker_0
_symmetry_space_group_name_H-M    P1
_symmetry_Int_Tables_number       1
_symmetry_cell_setting            triclinic
loop_
_symmetry_equiv_pos_as_xyz
'x, y, z'
_cell_length_a     17.389942
_cell_length_b     21.418855
_cell_length_c     35.665369
_cell_angle_alpha  97.604294
_cell_angle_beta   90.930374
_cell_angle_gamma 91.010057
loop_
_atom_site_label
_atom_site_type_symbol
_atom_site_fract_x
_atom_site_fract_y
_atom_site_fract_z
_atom_type_partial_charge
O0 O 0.15124 0.04648 0.08861 0.0
Mg1 Mg 0.21083 0.0514 0.03879 0.0
O2 O 0.04197 0.01432 0.05847 0.0
Mg3 Mg 0.05476 0.01941 -0.00629 0.0
O4 O 0.1512 0.09526 0.00115 0.0
O5 O 0.26331 0.13213 0.02759 0.0
O6 O 0.06859 0.0215 0.92896 0.0
O7 O 0.98073 0.11274 -3e-05 0.0
Mg8 Mg 0.91367 0.01621 0.96603 0.0
O9 O 0.95595 0.93914 0.9869 0.0
O10 O 0.94941 0.0422 0.91402 0.0
O11 O 0.86188 0.08232 0.00574 0.0
O12 O 0.84515 0.9406 0.9532 0.0
C13 C 0.20886 0.92277 -0.00394 0.0
C14 C 0.08253 0.0261 0.08882 0.0
C15 C 0.20547 0.1381 0.00528 0.0
C16 C 0.0189 0.03544 0.90501 0.0
C17 C 0.91147 0.12619 0.00847 0.0
C18 C 0.89204 0.91182 0.97302 0.0
O19 O 0.25076 0.96635 0.01356 0.0
O20 O 0.13814 0.93189 0.98804 0.0
O21 O 0.65359 0.55253 0.58685 0.0
Mg22 Mg 0.70834 0.55201 0.53552 0.0
O23 O 0.54529 0.51408 0.55843 0.0
Mg24 Mg 0.55312 0.5196 0.49314 0.0
O25 O 0.64964 0.59616 0.4979 0.0
O26 O 0.76449 0.62972 0.52315 0.0
O27 O 0.56436 0.52198 0.42762 0.0
O28 O 0.47737 0.61139 0.50099 0.0
Mg29 Mg 0.40824 0.50858 0.46073 0.0
O30 O 0.45413 0.44023 0.48868 0.0
O31 O 0.44446 0.51832 0.40646 0.0
O32 O 0.35601 0.58296 0.49336 0.0
O33 O 0.34106 0.43237 0.45603 0.0
C34 C 0.70511 0.42147 0.49608 0.0
C35 C 0.58699 0.52836 0.58827 0.0
C36 C 0.70586 0.63742 0.50165 0.0
C37 C 0.51554 0.52173 0.40055 0.0
C38 C 0.40637 0.62502 0.50334 0.0
C39 C 0.39066 0.40939 0.47741 0.0
O40 O 0.7475 0.46514 0.51307 0.0
O41 O 0.63533 0.43162 0.48692 0.0
C42 C 0.03438 0.92077 0.25426 0.0
C43 C 0.03396 0.97831 0.23933 0.0
C44 C 0.03734 0.92014 0.29346 0.0
C45 C 0.04054 0.97706 0.3181 0.0
C46 C 0.04338 0.03431 0.3029 0.0
C47 C 0.03961 0.03492 0.26398 0.0
C48 C 0.03631 0.97789 0.35958 0.0
C49 C 0.08164 0.93862 0.37899 0.0
C50 C 0.07978 0.94294 0.41883 0.0
C51 C 0.03135 -0.01292 0.43892 0.0
C52 C 0.98667 0.02645 0.41947 0.0
C53 C 0.98844 0.02103 0.38012 0.0
C54 C 0.94532 0.07947 0.43936 0.0
C55 C 0.87173 0.07108 0.45363 0.0
C56 C 0.97533 0.14027 0.43849 0.0
C57 C 0.93171 0.19237 0.45085 0.0
C58 C 0.85718 0.18463 0.46437 0.0
C59 C 0.13163 0.9038 0.43919 0.0
C60 C 0.14686 0.84165 0.42351 0.0
C61 C 0.16912 0.92886 0.47339 0.0
C62 C 0.22204 0.89302 0.4909 0.0
C63 C 0.23886 0.83209 0.47416 0.0
C64 C 0.20035 0.80639 0.44069 0.0
C65 C 0.82763 0.12362 0.46613 0.0
H66 H 0.03128 0.87649 0.23565 0.0
H67 H 0.03512 0.8754 0.30448 0.0
H68 H 0.0481 0.07888 0.32118 0.0
H69 H 0.04228 0.0798 0.25311 0.0
H70 H 0.12081 0.90684 0.36314 0.0
H71 H 0.9534 0.052 0.36551 0.0
H72 H 0.02958 -0.00806 0.46951 0.0
H73 H 0.84759 0.02416 0.45378 0.0
H74 H 0.0315 0.14736 0.4268 0.0
H75 H 0.95544 0.23886 0.4487 0.0
H76 H 0.11779 0.82025 0.39779 0.0
H77 H 0.15943 0.9767 0.48607 0.0
H78 H 0.77054 0.11671 0.47674 0.0
H79 H 0.21184 0.75884 0.4278 0.0
H80 H 0.25096 0.91324 0.51694 0.0
C81 C 0.00685 0.10933 0.73524 0.0
C82 C 0.03327 0.05281 0.74656 0.0
C83 C 0.99323 0.11405 0.69701 0.0
C84 C 0.00449 0.06211 0.66944 0.0
C85 C 0.03181 0.00598 0.68047 0.0
C86 C 0.04667 0.00152 0.71861 0.0
C87 C 0.99167 0.06738 0.62899 0.0
C88 C 0.03229 0.11342 0.61258 0.0
C89 C 0.02813 0.11483 0.57339 0.0
C90 C 0.97931 0.07195 0.55082 0.0
C91 C 0.93746 0.02643 0.56709 0.0
C92 C 0.94449 0.0236 0.60609 0.0
C93 C 0.8939 0.97692 0.54285 0.0
C94 C 0.81791 -0.01368 0.53144 0.0
C95 C 0.92774 0.91852 0.53272 0.0
C96 C 0.8851 0.86897 0.51277 0.0
C97 C 0.80756 0.87685 0.50271 0.0
C98 C 0.08346 0.1548 0.55604 0.0
C99 C 0.09764 0.2174 0.57207 0.0
C100 C 0.12938 0.12796 0.52638 0.0
C101 C 0.1909 0.16215 0.51417 0.0
C102 C 0.20709 0.22406 0.53118 0.0
C103 C 0.15873 0.2518 0.55967 0.0
C104 C 0.77474 0.93641 0.5116 0.0
H105 H 0.99462 0.14946 0.75592 0.0
H106 H 0.97259 0.15794 0.68898 0.0
H107 H 0.04268 0.96584 0.65951 0.0
H108 H 0.0685 0.95774 0.72617 0.0
H109 H 0.07173 0.14513 0.63003 0.0
H110 H 0.91433 -0.01323 0.61843 0.0
H111 H 0.97648 0.07224 0.5205 0.0
H112 H 0.79136 0.03153 0.53894 0.0
H113 H 0.98644 0.91069 0.54138 0.0
H114 H 0.91173 0.82341 0.50721 0.0
H115 H 0.06235 0.23926 0.59471 0.0
H116 H 0.11996 0.07956 0.51383 0.0
H117 H 0.7152 0.94372 0.50428 0.0
H118 H 0.16797 0.3002 0.57237 0.0
H119 H 0.22685 0.13954 0.49206 0.0
C120 C 0.53389 0.41004 0.75113 0.0
C121 C 0.53474 0.46749 0.73621 0.0
C122 C 0.53421 0.4097 0.7904 0.0
C123 C 0.5365 0.46685 0.8149 0.0
C124 C 0.54062 0.52395 0.79951 0.0
C125 C 0.539 0.52423 0.7606 0.0
C126 C 0.53122 0.46851 0.85639 0.0
C127 C 0.57638 0.4302 0.87652 0.0
C128 C 0.5757 0.4372 0.91648 0.0
C129 C 0.52933 0.48373 0.93598 0.0
C130 C 0.48491 0.52232 0.91574 0.0
C131 C 0.48428 0.51303 0.8763 0.0
C132 C 0.44706 0.5786 0.93434 0.0
C133 C 0.38157 0.57415 0.95631 0.0
C134 C 0.47139 0.63739 0.92534 0.0
C135 C 0.42999 0.6909 0.93721 0.0
C136 C 0.36386 0.68717 0.95899 0.0
C137 C 0.6273 0.39848 0.93731 0.0
C138 C 0.64029 0.33539 0.92271 0.0
C139 C 0.6673 0.42476 0.97056 0.0
C140 C 0.72075 0.3892 0.98801 0.0
C141 C 0.73559 0.32731 0.97214 0.0
C142 C 0.69432 0.30043 0.93976 0.0
C143 C 0.34023 0.62836 0.96881 0.0
H144 H 0.5326 0.36579 0.73247 0.0
H145 H 0.53131 0.36511 0.80157 0.0
H146 H 0.54501 0.56868 0.81765 0.0
H147 H 0.54264 0.56886 0.74946 0.0
H148 H 0.61482 0.39724 0.86108 0.0
H149 H 0.44907 0.54295 0.86101 0.0
H150 H 0.52937 0.49124 0.96661 0.0
H151 H 0.36145 0.52874 0.96274 0.0
H152 H 0.52115 0.64153 0.90784 0.0
H153 H 0.44889 0.73512 0.92844 0.0
H154 H 0.60926 0.31309 0.89778 0.0
H155 H 0.65937 0.47332 0.98241 0.0
H156 H 0.28982 0.62429 0.98582 0.0
H157 H 0.70421 0.25224 0.92754 0.0
H158 H 0.75191 0.41044 0.01317 0.0
C159 C 0.51344 0.60559 0.23419 0.0
C160 C 0.54018 0.54819 0.24409 0.0
C161 C 0.49909 0.6125 0.19626 0.0
C162 C 0.5102 0.56188 0.16777 0.0
C163 C 0.53851 0.50516 0.17746 0.0
C164 C 0.55386 0.4985 0.21521 0.0
C165 C 0.49512 0.56837 0.12768 0.0
C166 C 0.5366 0.61329 0.11069 0.0
C167 C 0.53161 0.61402 0.0714 0.0
C168 C 0.48147 0.57131 0.04945 0.0
C169 C 0.43838 0.52726 0.06639 0.0
C170 C 0.4459 0.52542 0.10542 0.0
C171 C 0.39378 0.47745 0.04286 0.0
C172 C 0.31727 0.48662 0.03216 0.0
C173 C 0.42713 0.41879 0.033 0.0
C174 C 0.38384 0.36895 0.01378 0.0
C175 C 0.30608 0.37677 0.00409 0.0
C176 C 0.58594 0.65407 0.05328 0.0
C177 C 0.60183 0.71632 0.06958 0.0
C178 C 0.62787 0.6283 0.02176 0.0
C179 C 0.68669 0.66336 0.00776 0.0
C180 C 0.70462 0.72472 0.0251 0.0
C181 C 0.66063 0.7513 0.05564 0.0
C182 C 0.27351 0.43646 0.01291 0.0
H183 H 0.50117 0.64445 0.25577 0.0
H184 H 0.47764 0.65678 0.18924 0.0
H185 H 0.54915 0.46606 0.15574 0.0
H186 H 0.57568 0.45411 0.22183 0.0
H187 H 0.57722 0.64445 0.12774 0.0
H188 H 0.41513 0.48944 0.11826 0.0
H189 H 0.4783 0.57067 0.01909 0.0
H190 H 0.29095 0.53194 0.03958 0.0
H191 H 0.48605 0.411 0.04133 0.0
H192 H 0.41027 0.32329 0.00844 0.0
H193 H 0.5695 0.73761 0.09351 0.0
H194 H 0.61731 0.58021 0.00886 0.0
H195 H 0.2138 0.44376 0.00591 0.0
H196 H 0.67159 0.79927 0.06874 0.0
H197 H 0.71943 0.64193 0.98403 0.0
C198 C 0.16152 0.24652 0.00803 0.0
C199 C 0.2015 0.1965 0.9884 0.0
H200 H 0.16431 0.34495 0.02857 0.0
C201 C 0.26132 0.20958 0.96458 0.0
H202 H 0.11568 0.23722 0.02689 0.0
C203 C 0.28917 0.27122 0.96532 0.0
C204 C 0.25807 0.32013 -0.00963 0.0
H205 H 0.29318 0.17148 0.94939 0.0
H206 H 0.34068 0.27931 0.94982 0.0
C207 C 0.18989 0.30826 0.00916 0.0
C208 C 0.3257 0.8581 -0.01002 0.0
C209 C 0.24523 0.86101 0.9863 0.0
H210 H 0.42494 0.80126 0.98602 0.0
C211 C 0.20253 0.80498 0.97554 0.0
H212 H 0.36081 0.90004 -0.00156 0.0
C213 C 0.24038 0.74738 0.96791 0.0
C214 C 0.32116 0.74543 0.97089 0.0
H215 H 0.1404 0.80565 0.9731 0.0
H216 H 0.20684 0.70486 0.95874 0.0
C217 C 0.36288 0.80126 0.98274 0.0
C218 C 0.81925 0.81106 0.95877 0.0
C219 C 0.86466 0.85212 0.98439 0.0
H220 H 0.73281 0.73801 0.9517 0.0
C221 C 0.86653 0.84402 0.02275 0.0
H222 H 0.81676 0.81686 0.92905 0.0
C223 C 0.81744 0.79966 0.03585 0.0
C224 C 0.76682 0.7624 0.01064 0.0
H225 H 0.90033 0.87577 0.04306 0.0
H226 H 0.81604 0.79684 0.06594 0.0
C227 C 0.77104 0.76618 0.97175 0.0
C228 C 0.90485 0.22277 0.97769 0.0
C229 C 0.88359 0.19039 0.0078 0.0
H230 H 0.87253 0.29191 0.94237 0.0
C231 C 0.8217 0.212 0.03046 0.0
H232 H 0.95138 0.20617 0.95934 0.0
C233 C 0.77753 0.26188 0.02113 0.0
C234 C 0.79393 0.28947 0.98858 0.0
H235 H 0.80403 0.18724 0.05358 0.0
H236 H 0.72679 0.27505 0.03731 0.0
C237 C 0.85958 0.27145 0.96782 0.0
C238 C 0.6631 0.74627 0.50571 0.0
C239 C 0.70285 0.69661 0.48559 0.0
H240 H 0.66623 0.84435 0.52714 0.0
C241 C 0.76289 0.71017 0.46202 0.0
H242 H 0.61726 0.73656 0.52448 0.0
C243 C 0.79091 0.77186 0.46331 0.0
C244 C 0.75976 0.82031 0.48867 0.0
H245 H 0.79462 0.67232 0.44651 0.0
H246 H 0.84247 0.78031 0.44794 0.0
C247 C 0.69166 0.80803 0.5074 0.0
C248 C 0.7007 0.30641 0.4681 0.0
C249 C 0.73868 0.35808 0.48946 0.0
H250 H 0.70884 0.20949 0.44345 0.0
C251 C 0.8115 0.34934 0.50561 0.0
H252 H 0.6441 0.31143 0.45586 0.0
C253 C 0.84733 0.2918 0.49907 0.0
C254 C 0.81181 0.24122 0.47604 0.0
H255 H 0.8421 0.38738 0.52304 0.0
H256 H 0.90423 0.28736 0.51119 0.0
C257 C 0.73725 0.24814 0.46137 0.0
C258 C 0.3637 0.34849 0.53017 0.0
C259 C 0.36874 0.35047 0.4912 0.0
H260 H 0.30787 0.30575 0.57371 0.0
C261 C 0.33189 0.30343 0.46574 0.0
H262 H 0.39104 0.38492 0.55023 0.0
C263 C 0.28356 0.25907 0.47893 0.0
C264 C 0.27122 0.26125 0.51787 0.0
H265 H 0.33491 0.30458 0.43551 0.0
H266 H 0.25092 0.22678 0.45846 0.0
C267 C 0.31496 0.30406 0.54348 0.0
C268 C 0.40867 0.72915 0.48095 0.0
C269 C 0.38166 0.69061 0.50702 0.0
H270 H 0.3824 0.80518 0.44962 0.0
C271 C 0.31611 0.70812 0.52805 0.0
H272 H 0.45822 0.71576 0.46388 0.0
C273 C 0.27361 0.75985 0.52035 0.0
C274 C 0.29562 0.79357 0.49106 0.0
H275 H 0.29404 0.67853 0.54798 0.0
H276 H 0.21976 0.76957 0.53462 0.0
C277 C 0.36519 0.77994 0.47262 0.0
C278 C 0.10086 0.9596 0.13915 0.0
C279 C 0.05674 0.00464 0.12383 0.0
H280 H 0.12705 0.91509 0.18792 0.0
C281 C 0.9969 0.03406 0.14466 0.0
H282 H 0.14733 0.93642 0.12324 0.0
C283 C 0.98572 0.02225 0.18186 0.0
C284 C 0.03375 0.98045 0.19817 0.0
H285 H 0.96252 0.06899 0.13318 0.0
H286 H 0.94221 0.04803 0.19853 0.0
C287 C 0.0891 0.94718 0.17597 0.0
C288 C 0.06495 0.09223 0.85292 0.0
C289 C 0.03823 0.03658 0.86536 0.0
H290 H 0.08625 0.14079 0.80521 0.0
C291 C 0.01626 0.98493 0.83889 0.0
H292 H 0.08078 0.13293 0.87313 0.0
C293 C 0.01799 -0.01056 0.80029 0.0
C294 C 0.04143 0.04597 0.7874 0.0
H295 H 0.99399 0.94204 0.84816 0.0
H296 H 0.99675 0.94966 0.78073 0.0
C297 C 0.06692 0.09684 0.81415 0.0
C298 C 0.62423 0.4754 0.64285 0.0
C299 C 0.5667 0.50478 0.6237 0.0
H300 H 0.65746 0.43836 0.69339 0.0
C301 C 0.49365 0.51261 0.63946 0.0
H302 H 0.68066 0.46774 0.6308 0.0
C303 C 0.4808 0.49619 0.67563 0.0
C304 C 0.54011 0.47001 0.69545 0.0
H305 H 0.44841 0.53454 0.62491 0.0
H306 H 0.42601 0.50649 0.68886 0.0
C307 C 0.61086 0.45772 0.67831 0.0
C308 C 0.57191 0.57869 0.35072 0.0
C309 C 0.53931 0.52364 0.36153 0.0
H310 H 0.59806 0.62991 0.30457 0.0
C311 C 0.51458 0.4747 0.33374 0.0
H312 H 0.58986 0.61742 0.37191 0.0
C313 C 0.51885 0.48164 0.29556 0.0
C314 C 0.54702 0.53814 0.2844 0.0
H315 H 0.48812 0.43227 0.34167 0.0
H316 H 0.49554 0.44414 0.27494 0.0
C317 C 0.57548 0.58604 0.31233 0.0
loop_
_geom_bond_atom_site_label_1
_geom_bond_atom_site_label_2
_geom_bond_distance
_geom_bond_site_symmetry_2
_ccdc_geom_bond_type
O0 Mg1 1.990 . S
O0 C14 1.253 . S
Mg1 O0 1.990 . S
Mg1 O4 2.180 . S
Mg1 O5 2.117 . S
Mg1 O19 2.030 1_545 S
O2 Mg3 2.072 1_554 S
O2 C14 1.260 . S
Mg3 O2 2.072 1_556 S
Mg3 O4 2.099 1_556 S
Mg3 O6 2.079 . S
Mg3 O7 2.072 1_456 S
Mg3 O9 2.099 1_445 S
Mg3 O20 2.079 1_545 S
O4 Mg1 2.180 . S
O4 Mg3 2.099 1_554 S
O4 C15 1.279 . S
O5 Mg1 2.117 . S
O5 C15 1.250 . S
O6 Mg3 2.079 . S
O6 C16 1.264 . S
O7 Mg3 2.072 1_654 S
O7 C17 1.260 1_554 S
Mg8 O9 2.180 1_545 S
Mg8 O10 2.030 . S
Mg8 O11 1.990 . S
Mg8 O12 2.117 1_545 S
O9 Mg3 2.099 1_665 S
O9 Mg8 2.180 1_565 S
O9 C18 1.283 . S
O10 Mg8 2.030 . S
O10 C16 1.248 1_655 S
O11 Mg8 1.990 . S
O11 C17 1.253 . S
O12 Mg8 2.117 1_565 S
O12 C18 1.252 . S
C13 O19 1.248 . S
C13 O20 1.264 1_554 S
C14 O0 1.253 . S
C14 O2 1.260 . S
C15 O4 1.279 . S
C15 O5 1.250 . S
C16 O6 1.264 . S
C16 O10 1.248 1_455 S
C17 O7 1.260 1_556 S
C17 O11 1.253 . S
C18 O9 1.283 . S
C18 O12 1.252 . S
O19 Mg1 2.030 1_565 S
O19 C13 1.248 . S
O20 Mg3 2.079 1_565 S
O20 C13 1.264 1_556 S
O21 Mg22 1.990 . S
O21 C35 1.253 . S
Mg22 O21 1.990 . S
Mg22 O25 2.180 . S
Mg22 O26 2.117 . S
Mg22 O40 2.030 . S
O23 Mg24 2.072 . S
O23 C35 1.260 . S
Mg24 O23 2.072 . S
Mg24 O25 2.099 . S
Mg24 O27 2.079 . S
Mg24 O28 2.072 . S
Mg24 O30 2.099 . S
Mg24 O41 2.079 . S
O25 Mg22 2.180 . S
O25 Mg24 2.099 . S
O25 C36 1.279 . S
O26 Mg22 2.117 . S
O26 C36 1.250 . S
O27 Mg24 2.079 . S
O27 C37 1.264 . S
O28 Mg24 2.072 . S
O28 C38 1.260 . S
Mg29 O30 2.180 . S
Mg29 O31 2.030 . S
Mg29 O32 1.990 . S
Mg29 O33 2.117 . S
O30 Mg24 2.099 . S
O30 Mg29 2.180 . S
O30 C39 1.279 . S
O31 Mg29 2.030 . S
O31 C37 1.248 . S
O32 Mg29 1.990 . S
O32 C38 1.253 . S
O33 Mg29 2.117 . S
O33 C39 1.250 . S
C34 O40 1.248 . S
C34 O41 1.264 . S
C35 O21 1.253 . S
C35 O23 1.260 . S
C36 O25 1.279 . S
C36 O26 1.250 . S
C37 O27 1.264 . S
C37 O31 1.248 . S
C38 O28 1.260 . S
C38 O32 1.253 . S
C39 O30 1.279 . S
C39 O33 1.250 . S
O40 Mg22 2.030 . S
O40 C34 1.248 . S
O41 Mg24 2.079 . S
O41 C34 1.264 . S
C42 C43 1.386 . S
C42 C44 1.397 . S
C42 H66 0.931 . S
C43 C42 1.386 . S
C43 C47 1.397 1_565 S
C44 C42 1.397 . S
C44 C45 1.384 . S
C44 H67 0.930 . S
C45 C44 1.384 . S
C45 C46 1.377 1_565 S
C45 C48 1.481 . S
C46 C45 1.377 1_545 S
C46 C47 1.389 . S
C46 H68 0.929 . S
C47 C43 1.397 1_545 S
C47 C46 1.389 . S
C47 H69 0.931 . S
C48 C45 1.481 . S
C48 C49 1.387 . S
C48 C53 1.390 1_565 S
C49 C48 1.387 . S
C49 C50 1.401 . S
C49 H70 0.930 . S
C50 C49 1.401 . S
C50 C51 1.376 1_565 S
C50 C59 1.511 . S
C51 C50 1.376 1_545 S
C51 C52 1.392 . S
C51 H72 0.931 . S
C52 C51 1.392 . S
C52 C53 1.361 . S
C52 C54 1.500 1_455 S
C53 C48 1.390 1_545 S
C53 C52 1.361 . S
C53 H71 0.931 1_455 S
C54 C52 1.500 1_655 S
C54 C55 1.371 . S
C54 C56 1.365 . S
C55 C54 1.371 . S
C55 C65 1.386 . S
C55 H73 0.931 . S
C56 C54 1.365 . S
C56 C57 1.409 . S
C56 H74 0.929 . S
C57 C56 1.409 . S
C57 C58 1.380 . S
C57 H75 0.930 . S
C58 C57 1.380 . S
C58 C65 1.357 . S
C59 C50 1.511 . S
C59 C60 1.341 . S
C59 C61 1.371 . S
C60 C59 1.341 . S
C60 C64 1.394 . S
C60 H76 0.930 . S
C61 C59 1.371 . S
C61 C62 1.392 . S
C61 H77 0.931 . S
C62 C61 1.392 . S
C62 C63 1.331 . S
C62 H80 0.932 . S
C63 C62 1.331 . S
C63 C64 1.336 . S
C64 C60 1.394 . S
C64 C63 1.336 . S
C64 H79 0.929 . S
C65 C55 1.386 . S
C65 C58 1.357 . S
C65 H78 0.928 . S
H66 C42 0.931 . S
H67 C44 0.930 . S
H68 C46 0.929 . S
H69 C47 0.931 . S
H70 C49 0.930 . S
H71 C53 0.931 1_655 S
H72 C51 0.931 . S
H73 C55 0.931 . S
H74 C56 0.929 . S
H75 C57 0.930 . S
H76 C60 0.930 . S
H77 C61 0.931 . S
H78 C65 0.928 . S
H79 C64 0.929 . S
H80 C62 0.932 . S
C81 C82 1.386 . S
C81 C83 1.397 . S
C81 H105 0.931 . S
C82 C81 1.386 . S
C82 C86 1.397 . S
C83 C81 1.397 . S
C83 C84 1.384 . S
C83 H106 0.930 . S
C84 C83 1.384 . S
C84 C85 1.377 . S
C84 C87 1.481 . S
C85 C84 1.377 . S
C85 C86 1.389 . S
C85 H107 0.929 1_545 S
C86 C82 1.397 . S
C86 C85 1.389 . S
C86 H108 0.931 1_545 S
C87 C84 1.481 . S
C87 C88 1.387 . S
C87 C92 1.390 1_455 S
C88 C87 1.387 . S
C88 C89 1.401 . S
C88 H109 0.930 . S
C89 C88 1.401 . S
C89 C90 1.376 1_455 S
C89 C98 1.511 . S
C90 C89 1.376 1_655 S
C90 C91 1.392 . S
C90 H111 0.931 . S
C91 C90 1.392 . S
C91 C92 1.361 . S
C91 C93 1.500 1_545 S
C92 C87 1.390 1_655 S
C92 C91 1.361 . S
C92 H110 0.931 . S
C93 C91 1.500 1_565 S
C93 C94 1.371 . S
C93 C95 1.365 . S
C94 C93 1.371 . S
C94 C104 1.386 . S
C94 H112 0.931 1_565 S
C95 C93 1.365 . S
C95 C96 1.409 . S
C95 H113 0.929 . S
C96 C95 1.409 . S
C96 C97 1.380 . S
C96 H114 0.930 . S
C97 C96 1.380 . S
C97 C104 1.357 . S
C98 C89 1.511 . S
C98 C99 1.341 . S
C98 C100 1.371 . S
C99 C98 1.341 . S
C99 C103 1.394 . S
C99 H115 0.930 . S
C100 C98 1.371 . S
C100 C101 1.392 . S
C100 H116 0.931 . S
C101 C100 1.392 . S
C101 C102 1.331 . S
C101 H119 0.932 . S
C102 C101 1.331 . S
C102 C103 1.336 . S
C103 C99 1.394 . S
C103 C102 1.336 . S
C103 H118 0.929 . S
C104 C94 1.386 . S
C104 C97 1.357 . S
C104 H117 0.928 . S
H105 C81 0.931 . S
H106 C83 0.930 . S
H107 C85 0.929 1_565 S
H108 C86 0.931 1_565 S
H109 C88 0.930 . S
H110 C92 0.931 . S
H111 C90 0.931 . S
H112 C94 0.931 1_545 S
H113 C95 0.929 . S
H114 C96 0.930 . S
H115 C99 0.930 . S
H116 C100 0.931 . S
H117 C104 0.928 . S
H118 C103 0.929 . S
H119 C101 0.932 . S
C120 C121 1.386 . S
C120 C122 1.397 . S
C120 H144 0.931 . S
C121 C120 1.386 . S
C121 C125 1.397 . S
C122 C120 1.397 . S
C122 C123 1.384 . S
C122 H145 0.930 . S
C123 C122 1.384 . S
C123 C124 1.377 . S
C123 C126 1.481 . S
C124 C123 1.377 . S
C124 C125 1.389 . S
C124 H146 0.929 . S
C125 C121 1.397 . S
C125 C124 1.389 . S
C125 H147 0.931 . S
C126 C123 1.481 . S
C126 C127 1.387 . S
C126 C131 1.390 . S
C127 C126 1.387 . S
C127 C128 1.401 . S
C127 H148 0.930 . S
C128 C127 1.401 . S
C128 C129 1.376 . S
C128 C137 1.511 . S
C129 C128 1.376 . S
C129 C130 1.392 . S
C129 H150 0.931 . S
C130 C129 1.392 . S
C130 C131 1.361 . S
C130 C132 1.500 . S
C131 C126 1.390 . S
C131 C130 1.361 . S
C131 H149 0.931 . S
C132 C130 1.500 . S
C132 C133 1.371 . S
C132 C134 1.365 . S
C133 C132 1.371 . S
C133 C143 1.386 1_556 S
C133 H151 0.921 1_556 S
C134 C132 1.365 . S
C134 C135 1.409 . S
C134 H152 0.929 . S
C135 C134 1.409 . S
C135 C136 1.387 . S
C135 H153 0.930 . S
C136 C135 1.387 . S
C136 C143 1.354 1_556 S
C137 C128 1.511 . S
C137 C138 1.341 . S
C137 C139 1.371 . S
C138 C137 1.341 . S
C138 C142 1.394 . S
C138 H154 0.930 . S
C139 C137 1.371 . S
C139 C140 1.392 1_556 S
C139 H155 0.931 1_556 S
C140 C139 1.392 1_554 S
C140 C141 1.331 1_554 S
C140 H158 0.932 . S
C141 C140 1.331 1_556 S
C141 C142 1.336 . S
C142 C138 1.394 . S
C142 C141 1.336 . S
C142 H157 0.929 . S
C143 C133 1.386 1_554 S
C143 C136 1.354 1_554 S
C143 H156 0.928 . S
H144 C120 0.931 . S
H145 C122 0.930 . S
H146 C124 0.929 . S
H147 C125 0.931 . S
H148 C127 0.930 . S
H149 C131 0.931 . S
H150 C129 0.931 . S
H151 C133 0.921 1_554 S
H152 C134 0.929 . S
H153 C135 0.930 . S
H154 C138 0.930 . S
H155 C139 0.931 1_554 S
H156 C143 0.928 . S
H157 C142 0.929 . S
H158 C140 0.932 . S
C159 C160 1.386 . S
C159 C161 1.397 . S
C159 H183 0.931 . S
C160 C159 1.386 . S
C160 C164 1.397 . S
C161 C159 1.397 . S
C161 C162 1.384 . S
C161 H184 0.930 . S
C162 C161 1.384 . S
C162 C163 1.377 . S
C162 C165 1.481 . S
C163 C162 1.377 . S
C163 C164 1.389 . S
C163 H185 0.929 . S
C164 C160 1.397 . S
C164 C163 1.389 . S
C164 H186 0.931 . S
C165 C162 1.481 . S
C165 C166 1.387 . S
C165 C170 1.390 . S
C166 C165 1.387 . S
C166 C167 1.401 . S
C166 H187 0.930 . S
C167 C166 1.401 . S
C167 C168 1.376 . S
C167 C176 1.511 . S
C168 C167 1.376 . S
C168 C169 1.392 . S
C168 H189 0.931 . S
C169 C168 1.392 . S
C169 C170 1.361 . S
C169 C171 1.500 . S
C170 C165 1.390 . S
C170 C169 1.361 . S
C170 H188 0.931 . S
C171 C169 1.500 . S
C171 C172 1.371 . S
C171 C173 1.365 . S
C172 C171 1.371 . S
C172 C182 1.386 1_554 S
C172 H190 0.931 . S
C173 C171 1.365 . S
C173 C174 1.409 . S
C173 H191 0.929 . S
C174 C173 1.409 . S
C174 C175 1.380 . S
C174 H192 0.930 . S
C175 C174 1.380 . S
C175 C182 1.357 1_554 S
C176 C167 1.511 . S
C176 C177 1.341 . S
C176 C178 1.371 . S
C177 C176 1.341 . S
C177 C181 1.394 . S
C177 H193 0.930 . S
C178 C176 1.371 . S
C178 C179 1.380 1_554 S
C178 H194 0.931 . S
C179 C178 1.380 1_556 S
C179 C180 1.321 1_556 S
C179 H197 0.954 . S
C180 C179 1.321 1_554 S
C180 C181 1.336 . S
C181 C177 1.394 . S
C181 C180 1.336 . S
C181 H196 0.929 . S
C182 C172 1.386 1_556 S
C182 C175 1.357 1_556 S
C182 H195 0.928 . S
H183 C159 0.931 . S
H184 C161 0.930 . S
H185 C163 0.929 . S
H186 C164 0.931 . S
H187 C166 0.930 . S
H188 C170 0.931 . S
H189 C168 0.931 . S
H190 C172 0.931 . S
H191 C173 0.929 . S
H192 C174 0.930 . S
H193 C177 0.930 . S
H194 C178 0.931 . S
H195 C182 0.928 . S
H196 C181 0.929 . S
H197 C179 0.954 . S
C198 C199 1.387 . S
C198 H202 0.950 . S
C198 C207 1.390 . S
C199 C198 1.387 . S
C199 C201 1.387 1_554 S
H200 C207 0.950 . S
C201 C199 1.387 1_556 S
C201 C203 1.390 . S
C201 H205 0.950 . S
H202 C198 0.950 . S
C203 C201 1.390 . S
C203 C204 1.387 . S
C203 H206 0.950 . S
C204 C203 1.387 . S
C204 C207 1.389 1_556 S
H205 C201 0.950 . S
H206 C203 0.950 . S
C207 C198 1.390 . S
C207 H200 0.950 . S
C207 C204 1.389 1_554 S
C208 C209 1.387 1_556 S
C208 H212 0.950 . S
C208 C217 1.390 . S
C209 C208 1.387 1_554 S
C209 C211 1.387 . S
H210 C217 0.950 . S
C211 C209 1.387 . S
C211 C213 1.390 . S
C211 H215 0.950 . S
H212 C208 0.950 . S
C213 C211 1.390 . S
C213 C214 1.387 . S
C213 H216 0.950 . S
C214 C213 1.387 . S
C214 C217 1.387 1_554 S
H215 C211 0.950 . S
H216 C213 0.950 . S
C217 C208 1.390 . S
C217 H210 0.950 . S
C217 C214 1.387 1_556 S
C218 C219 1.387 1_556 S
C218 H222 0.950 . S
C218 C227 1.390 . S
C219 C218 1.387 1_554 S
C219 C221 1.387 . S
H220 C227 0.950 . S
C221 C219 1.387 . S
C221 C223 1.390 . S
C221 H225 0.950 . S
H222 C218 0.950 . S
C223 C221 1.390 . S
C223 C224 1.387 . S
C223 H226 0.950 . S
C224 C223 1.387 . S
C224 C227 1.387 1_554 S
H225 C221 0.950 . S
H226 C223 0.950 . S
C227 C218 1.390 . S
C227 H220 0.950 . S
C227 C224 1.387 1_556 S
C228 C229 1.399 . S
C228 H232 0.950 . S
C228 C237 1.390 . S
C229 C228 1.399 . S
C229 C231 1.378 1_556 S
H230 C237 0.950 . S
C231 C229 1.378 1_554 S
C231 C233 1.390 . S
C231 H235 0.950 . S
H232 C228 0.950 . S
C233 C231 1.390 . S
C233 C234 1.366 1_554 S
C233 H236 0.950 . S
C234 C233 1.366 1_556 S
C234 C237 1.407 . S
H235 C231 0.950 . S
H236 C233 0.950 . S
C237 C228 1.390 . S
C237 H230 0.950 . S
C237 C234 1.407 . S
C238 C239 1.387 . S
C238 H242 0.950 . S
C238 C247 1.390 . S
C239 C238 1.387 . S
C239 C241 1.387 . S
H240 C247 0.950 . S
C241 C239 1.387 . S
C241 C243 1.390 . S
C241 H245 0.950 . S
H242 C238 0.950 . S
C243 C241 1.390 . S
C243 C244 1.387 . S
C243 H246 0.950 . S
C244 C243 1.387 . S
C244 C247 1.387 . S
H245 C241 0.950 . S
H246 C243 0.950 . S
C247 C238 1.390 . S
C247 H240 0.950 . S
C247 C244 1.387 . S
C248 C249 1.387 . S
C248 H252 0.950 . S
C248 C257 1.390 . S
C249 C248 1.387 . S
C249 C251 1.387 . S
H250 C257 0.950 . S
C251 C249 1.387 . S
C251 C253 1.390 . S
C251 H255 0.950 . S
H252 C248 0.950 . S
C253 C251 1.390 . S
C253 C254 1.387 . S
C253 H256 0.950 . S
C254 C253 1.387 . S
C254 C257 1.387 . S
H255 C251 0.950 . S
H256 C253 0.950 . S
C257 C248 1.390 . S
C257 H250 0.950 . S
C257 C254 1.387 . S
C258 C259 1.387 . S
C258 H262 0.950 . S
C258 C267 1.390 . S
C259 C258 1.387 . S
C259 C261 1.387 . S
H260 C267 0.950 . S
C261 C259 1.387 . S
C261 C263 1.390 . S
C261 H265 0.950 . S
H262 C258 0.950 . S
C263 C261 1.390 . S
C263 C264 1.387 . S
C263 H266 0.950 . S
C264 C263 1.387 . S
C264 C267 1.387 . S
H265 C261 0.950 . S
H266 C263 0.950 . S
C267 C258 1.390 . S
C267 H260 0.950 . S
C267 C264 1.387 . S
C268 C269 1.387 . S
C268 H272 0.950 . S
C268 C277 1.390 . S
C269 C268 1.387 . S
C269 C271 1.387 . S
H270 C277 0.950 . S
C271 C269 1.387 . S
C271 C273 1.390 . S
C271 H275 0.950 . S
H272 C268 0.950 . S
C273 C271 1.390 . S
C273 C274 1.387 . S
C273 H276 0.950 . S
C274 C273 1.387 . S
C274 C277 1.387 . S
H275 C271 0.950 . S
H276 C273 0.950 . S
C277 C268 1.390 . S
C277 H270 0.950 . S
C277 C274 1.387 . S
C278 C279 1.387 1_565 S
C278 H282 0.950 . S
C278 C287 1.390 . S
C279 C278 1.387 1_545 S
C279 C281 1.387 1_455 S
H280 C287 0.950 . S
C281 C279 1.387 1_655 S
C281 C283 1.390 . S
C281 H285 0.950 . S
H282 C278 0.950 . S
C283 C281 1.390 . S
C283 C284 1.387 1_645 S
C283 H286 0.950 . S
C284 C283 1.387 1_465 S
C284 C287 1.387 . S
H285 C281 0.950 . S
H286 C283 0.950 . S
C287 C278 1.390 . S
C287 H280 0.950 . S
C287 C284 1.387 . S
C288 C289 1.387 . S
C288 H292 0.950 . S
C288 C297 1.390 . S
C289 C288 1.387 . S
C289 C291 1.387 . S
H290 C297 0.950 . S
C291 C289 1.387 . S
C291 C293 1.390 . S
C291 H295 0.950 1_545 S
H292 C288 0.950 . S
C293 C291 1.390 . S
C293 C294 1.387 . S
C293 H296 0.950 1_545 S
C294 C293 1.387 . S
C294 C297 1.387 . S
H295 C291 0.950 1_565 S
H296 C293 0.950 1_565 S
C297 C288 1.390 . S
C297 H290 0.950 . S
C297 C294 1.387 . S
C298 C299 1.387 . S
C298 H302 0.950 . S
C298 C307 1.390 . S
C299 C298 1.387 . S
C299 C301 1.387 . S
H300 C307 0.950 . S
C301 C299 1.387 . S
C301 C303 1.390 . S
C301 H305 0.950 . S
H302 C298 0.950 . S
C303 C301 1.390 . S
C303 C304 1.387 . S
C303 H306 0.950 . S
C304 C303 1.387 . S
C304 C307 1.387 . S
H305 C301 0.950 . S
H306 C303 0.950 . S
C307 C298 1.390 . S
C307 H300 0.950 . S
C307 C304 1.387 . S
C308 C309 1.387 . S
C308 H312 0.950 . S
C308 C317 1.390 . S
C309 C308 1.387 . S
C309 C311 1.387 . S
H310 C317 0.950 . S
C311 C309 1.387 . S
C311 C313 1.390 . S
C311 H315 0.950 . S
H312 C308 0.950 . S
C313 C311 1.390 . S
C313 C314 1.387 . S
C313 H316 0.950 . S
C314 C313 1.387 . S
C314 C317 1.387 . S
H315 C311 0.950 . S
H316 C313 0.950 . S
C317 C308 1.390 . S
C317 H310 0.950 . S
C317 C314 1.387 . S
C204 C175 1.556 1_556 S
C199 C15 1.526 . S
C209 C13 1.617 . S
C214 C136 1.578 1_554 S
C219 C18 1.306 1_554 S
C224 C180 1.552 . S
C229 C17 1.428 . S
C234 C141 1.469 . S
C239 C36 1.526 . S
C244 C97 1.557 . S
C249 C34 1.615 . S
C254 C58 1.576 . S
C264 C102 1.553 . S
C259 C39 1.314 . S
C274 C63 1.461 . S
C269 C38 1.429 . S
C279 C14 1.516 . S
C284 C43 1.561 . S
C289 C16 1.401 . S
C294 C82 1.458 . S
C304 C121 1.561 . S
C299 C35 1.516 . S
C309 C37 1.401 . S
C314 C160 1.458 . S
