# Generated by pormake.
# Topology ftw, (4,12)-cn, num edge types: 1
# Building blocks:
#     Node 0, Type 0, BuildingBlock: AZAVOO_clean_linker_0, # of connection points: 4
#     Node 1, Type 0, BuildingBlock: AZAVOO_clean_linker_0, # of connection points: 4
#     Node 2, Type 0, BuildingBlock: AZAVOO_clean_linker_0, # of connection points: 4
#     Node 3, Type 1, BuildingBlock: EZIPEK_clean_sbu_0, # of connection points: 12
#     Edge 4, Type (0, 1), BuildingBlock: XUDNAN_clean_linker_2, # of connection points: 2
#     Edge 5, Type (0, 1), BuildingBlock: XUDNAN_clean_linker_2, # of connection points: 2
#     Edge 6, Type (0, 1), BuildingBlock: XUDNAN_clean_linker_2, # of connection points: 2
#     Edge 7, Type (0, 1), BuildingBlock: XUDNAN_clean_linker_2, # of connection points: 2
#     Edge 8, Type (0, 1), BuildingBlock: XUDNAN_clean_linker_2, # of connection points: 2
#     Edge 9, Type (0, 1), BuildingBlock: XUDNAN_clean_linker_2, # of connection points: 2
#     Edge 10, Type (0, 1), BuildingBlock: XUDNAN_clean_linker_2, # of connection points: 2
#     Edge 11, Type (0, 1), BuildingBlock: XUDNAN_clean_linker_2, # of connection points: 2
#     Edge 12, Type (0, 1), BuildingBlock: XUDNAN_clean_linker_2, # of connection points: 2
#     Edge 13, Type (0, 1), BuildingBlock: XUDNAN_clean_linker_2, # of connection points: 2
#     Edge 14, Type (0, 1), BuildingBlock: XUDNAN_clean_linker_2, # of connection points: 2
#     Edge 15, Type (0, 1), BuildingBlock: XUDNAN_clean_linker_2, # of connection points: 2
# Relax obj value: 0.053
# Max RMSD: 0.221
# Mean RMSD: 0.170
data_MOF--net-ftw--node1-EZIPEK_clean_sbu_0--node2-AZAVOO_clean_linker_0--edge1-XUDNAN_clean_linker_2
_symmetry_space_group_name_H-M    P1
_symmetry_Int_Tables_number       1
_symmetry_cell_setting            triclinic
loop_
_symmetry_equiv_pos_as_xyz
'x, y, z'
_cell_length_a     28.037235
_cell_length_b     28.032178
_cell_length_c     28.051214
_cell_angle_alpha  91.540449
_cell_angle_beta   88.477967
_cell_angle_gamma 91.518271
loop_
_atom_site_label
_atom_site_type_symbol
_atom_site_fract_x
_atom_site_fract_y
_atom_site_fract_z
_atom_type_partial_charge
H0 H 0.06429 0.20346 0.40703 0.0
H1 H 0.9577 0.5803 0.80909 0.0
H2 H 0.08727 0.47618 0.40132 0.0
H3 H 0.09545 0.41857 0.33492 0.0
H4 H 0.94204 0.40795 0.32562 0.0
H5 H 0.93424 0.46614 0.39181 0.0
H6 H 0.08486 0.3995 0.48213 0.0
H7 H 0.09034 0.31627 0.45414 0.0
H8 H 0.9386 0.31161 0.42974 0.0
H9 H 0.93361 0.39465 0.45838 0.0
H10 H 0.08024 0.44979 0.59224 0.0
H11 H 0.08296 0.39265 0.65664 0.0
H12 H 0.94081 0.34124 0.6238 0.0
H13 H 0.93752 0.39983 0.56032 0.0
H14 H 0.07905 0.5496 0.60309 0.0
H15 H 0.07742 0.57469 0.68734 0.0
H16 H 0.92731 0.53559 0.6974 0.0
H17 H 0.92953 0.51054 0.61307 0.0
H18 H 0.08278 0.60934 0.51746 0.0
H19 H 0.09521 0.67663 0.57354 0.0
H20 H 0.94511 0.67237 0.61189 0.0
H21 H 0.93296 0.60483 0.55583 0.0
H22 H 0.07474 0.58333 0.4141 0.0
H23 H 0.06493 0.64422 0.35387 0.0
H24 H 0.91193 0.63406 0.37705 0.0
H25 H 0.92237 0.57474 0.43779 0.0
O26 O 0.06111 0.23592 0.41921 0.0
O27 O 0.98293 0.23529 0.40763 0.0
O28 O 0.03636 0.59082 0.76837 0.0
O29 O 0.95952 0.56987 0.77592 0.0
C30 C 0.0058 0.48989 0.45251 0.0
C31 C 0.00615 0.45408 0.48713 0.0
C32 C 0.00571 0.4668 0.53597 0.0
C33 C 0.00488 0.51536 0.55039 0.0
C34 C 0.00424 0.55135 0.51588 0.0
C35 C 0.00433 0.53851 0.46679 0.0
C36 C 0.01018 0.47491 0.40159 0.0
C37 C 0.05554 0.46359 0.38313 0.0
C38 C 0.06012 0.43019 0.34562 0.0
C39 C 0.01934 0.40791 0.32606 0.0
C40 C 0.97407 0.42452 0.34005 0.0
C41 C 0.96953 0.458 0.3777 0.0
C42 C 0.00891 0.40301 0.47201 0.0
C43 C 0.05284 0.38026 0.47103 0.0
C44 C 0.05585 0.33278 0.45497 0.0
C45 C 0.01492 0.30731 0.43958 0.0
C46 C 0.97081 0.33019 0.44128 0.0
C47 C 0.96785 0.37758 0.45756 0.0
C48 C 0.00845 0.42937 0.57214 0.0
C49 C 0.04972 0.42616 0.59887 0.0
C50 C 0.05136 0.39343 0.63529 0.0
C51 C 0.01209 0.36274 0.64488 0.0
C52 C 0.97162 0.36433 0.61664 0.0
C53 C 0.96966 0.39777 0.58066 0.0
C54 C 0.00433 0.52863 0.60202 0.0
C55 C 0.04588 0.5465 0.6236 0.0
C56 C 0.04483 0.56082 0.67168 0.0
C57 C 1.00212 0.55752 0.69902 0.0
C58 C 0.96073 0.5388 0.67735 0.0
C59 C 0.96188 0.52438 0.62926 0.0
C60 C 0.00701 0.60207 0.53263 0.0
C61 C 0.05213 0.62452 0.536 0.0
C62 C 0.05928 0.66256 0.56851 0.0
C63 C 0.02124 0.6791 0.59759 0.0
C64 C 0.975 0.66044 0.58983 0.0
C65 C 0.96795 0.62205 0.55757 0.0
C66 C 0.99926 0.57528 0.43059 0.0
C67 C 0.03923 0.5946 0.40614 0.0
C68 C 0.03349 0.62896 0.37149 0.0
C69 C 0.98765 0.64431 0.36082 0.0
C70 C 0.94779 0.62387 0.38498 0.0
C71 C 0.9536 0.58987 0.41961 0.0
C72 C 0.01847 0.25732 0.42127 0.0
C73 C 1.00058 0.57373 0.74983 0.0
H74 H 0.59411 0.94592 0.20065 0.0
H75 H 0.1969 0.02481 0.60321 0.0
H76 H 0.61463 0.92858 0.46896 0.0
H77 H 0.67724 0.93598 0.40665 0.0
H78 H 0.65009 0.08632 0.39852 0.0
H79 H 0.58771 0.07864 0.46045 0.0
H80 H 0.54211 0.91347 0.40075 0.0
H81 H 0.56587 0.91248 0.31611 0.0
H82 H 0.52789 0.06053 0.30811 0.0
H83 H 0.50486 0.06111 0.39294 0.0
H84 H 0.43275 0.90393 0.42409 0.0
H85 H 0.3711 0.89516 0.36413 0.0
H86 H 0.34551 0.04648 0.37725 0.0
H87 H 0.40643 0.05442 0.43825 0.0
H88 H 0.39069 0.91002 0.52516 0.0
H89 H 0.30647 0.90795 0.5508 0.0
H90 H 0.31272 0.06106 0.57457 0.0
H91 H 0.39668 0.0626 0.54835 0.0
H92 H 0.45419 0.92339 0.61228 0.0
H93 H 0.4034 0.93605 0.68352 0.0
H94 H 0.43251 0.08799 0.67674 0.0
H95 H 0.48385 0.0747 0.60633 0.0
H96 H 0.56261 0.93109 0.60116 0.0
H97 H 0.62772 0.93834 0.65785 0.0
H98 H 0.65866 0.08196 0.61172 0.0
H99 H 0.59381 0.07427 0.55518 0.0
O100 O 0.58335 0.9467 0.23374 0.0
O101 O 0.5608 0.022 0.23082 0.0
O102 O 0.22879 0.94586 0.58045 0.0
O103 O 0.23015 0.02454 0.59314 0.0
C104 C 0.54709 0.99524 0.48828 0.0
C105 C 0.51032 0.98867 0.45482 0.0
C106 C 0.46235 0.98502 0.47042 0.0
C107 C 0.45069 0.98761 0.51941 0.0
C108 C 0.48721 0.99284 0.55323 0.0
C109 C 0.53568 0.99663 0.53785 0.0
C110 C 0.59657 0.00306 0.46929 0.0
C111 C 0.62414 0.96362 0.45574 0.0
C112 C 0.65962 0.96783 0.4198 0.0
C113 C 0.66772 0.01153 0.39708 0.0
C114 C 0.6441 0.05209 0.41498 0.0
C115 C 0.60893 0.04791 0.45092 0.0
C116 C 0.52205 0.9874 0.40285 0.0
C117 C 0.53882 0.94555 0.38054 0.0
C118 C 0.55236 0.94512 0.33223 0.0
C119 C 0.54887 0.98646 0.30535 0.0
C120 C 0.53102 0.02808 0.32775 0.0
C121 C 0.51776 0.02851 0.37612 0.0
C122 C 0.42404 0.97978 0.43515 0.0
C123 C 0.41355 0.93503 0.41412 0.0
C124 C 0.37849 0.93021 0.37981 0.0
C125 C 0.35356 0.9702 0.36567 0.0
C126 C 0.3636 0.0149 0.3877 0.0
C127 C 0.39858 0.0196 0.42222 0.0
C128 C 0.39967 0.98641 0.53513 0.0
C129 C 0.3737 0.94303 0.53588 0.0
C130 C 0.32568 0.94197 0.55059 0.0
C131 C 0.30285 0.98438 0.56471 0.0
C132 C 0.32916 0.02777 0.56392 0.0
C133 C 0.37712 0.02877 0.54906 0.0
C134 C 0.47271 0.99814 0.60424 0.0
C135 C 0.45131 0.95913 0.62759 0.0
C136 C 0.42158 0.96655 0.66771 0.0
C137 C 0.41296 0.01313 0.68515 0.0
C138 C 0.43841 0.05163 0.66442 0.0
C139 C 0.46817 0.04413 0.62434 0.0
C140 C 0.57398 0.00185 0.57341 0.0
C141 C 0.58337 0.96418 0.60352 0.0
C142 C 0.62036 0.96849 0.63611 0.0
C143 C 0.64871 0.01057 0.63907 0.0
C144 C 0.63814 0.04872 0.60975 0.0
C145 C 0.60114 0.04441 0.57734 0.0
C146 C 0.56451 0.98628 0.25437 0.0
C147 C 0.25173 0.98356 0.57987 0.0
H148 H 0.39957 0.20014 0.00291 0.0
H149 H 0.80724 0.60117 0.04442 0.0
H150 H 0.39658 0.48648 0.95089 0.0
H151 H 0.32536 0.43535 0.94347 0.0
H152 H 0.32605 0.41002 0.0948 0.0
H153 H 0.39804 0.46078 0.10155 0.0
H154 H 0.45113 0.39783 0.95901 0.0
H155 H 0.42435 0.31432 0.9639 0.0
H156 H 0.46289 0.31499 0.1122 0.0
H157 H 0.48906 0.39881 0.10689 0.0
H158 H 0.55385 0.40891 0.95017 0.0
H159 H 0.60797 0.34206 0.94321 0.0
H160 H 0.65229 0.37044 0.08784 0.0
H161 H 0.59767 0.43774 0.09446 0.0
H162 H 0.61253 0.50442 0.945 0.0
H163 H 0.6972 0.52779 0.93877 0.0
H164 H 0.69314 0.57383 0.08718 0.0
H165 H 0.60866 0.54971 0.093 0.0
H166 H 0.54432 0.58411 0.93128 0.0
H167 H 0.6071 0.64427 0.91672 0.0
H168 H 0.60511 0.68291 0.06681 0.0
H169 H 0.5416 0.62293 0.08093 0.0
H170 H 0.45366 0.59028 0.94105 0.0
H171 H 0.39965 0.65653 0.93312 0.0
H172 H 0.35032 0.63982 0.07902 0.0
H173 H 0.40529 0.57382 0.08697 0.0
O174 O 0.40995 0.23333 0.00194 0.0
O175 O 0.42728 0.23636 0.07889 0.0
O176 O 0.77534 0.56314 0.97104 0.0
O177 O 0.77425 0.59016 0.04632 0.0
C178 C 0.45379 0.49177 0.02715 0.0
C179 C 0.48758 0.45524 0.02961 0.0
C180 C 0.53677 0.46647 0.02685 0.0
C181 C 0.55256 0.51409 0.02229 0.0
C182 C 0.51912 0.55065 0.01789 0.0
C183 C 0.46945 0.53968 0.02036 0.0
C184 C 0.40249 0.47739 0.02671 0.0
C185 C 0.38007 0.47174 0.9828 0.0
C186 C 0.33952 0.44202 0.97862 0.0
C187 C 0.32052 0.4177 0.01842 0.0
C188 C 0.34042 0.4273 0.06328 0.0
C189 C 0.38098 0.45706 0.0674 0.0
C190 C 0.47156 0.4044 0.03273 0.0
C191 C 0.45343 0.37995 0.99259 0.0
C192 C 0.43833 0.33221 0.99545 0.0
C193 C 0.44146 0.30797 0.03845 0.0
C194 C 0.45992 0.33263 0.07857 0.0
C195 C 0.47494 0.38043 0.07565 0.0
C196 C 0.57153 0.4276 0.02297 0.0
C197 C 0.57528 0.40069 0.98032 0.0
C198 C 0.60609 0.36257 0.97647 0.0
C199 C 0.63391 0.35082 0.01518 0.0
C200 C 0.63133 0.37888 0.05745 0.0
C201 C 0.60014 0.41704 0.06136 0.0
C202 C 0.6046 0.52554 0.01939 0.0
C203 C 0.63019 0.51908 0.97621 0.0
C204 C 0.67847 0.53258 0.97274 0.0
C205 C 0.7019 0.55287 0.01247 0.0
C206 C 0.67619 0.55845 0.0559 0.0
C207 C 0.628 0.54466 0.05937 0.0
C208 C 0.53829 0.59914 0.00717 0.0
C209 C 0.55533 0.6075 0.96057 0.0
C210 C 0.59191 0.64126 0.95246 0.0
C211 C 0.61188 0.66733 0.99083 0.0
C212 C 0.59047 0.6633 0.03654 0.0
C213 C 0.55379 0.62936 0.04464 0.0
C214 C 0.43428 0.57784 0.0149 0.0
C215 C 0.4315 0.60108 0.97144 0.0
C216 C 0.40049 0.63881 0.96692 0.0
C217 C 0.37108 0.65371 0.00562 0.0
C218 C 0.37242 0.62905 0.04856 0.0
C219 C 0.40391 0.59153 0.05319 0.0
C220 C 0.42584 0.2571 0.04119 0.0
C221 C 0.75272 0.56884 0.00854 0.0
C222 C 1.00168 0.1237 0.89541 0.0
C223 C 0.99519 0.11697 0.12452 0.0
C224 C 0.02358 0.89301 0.88148 0.0
C225 C 0.99476 0.88602 0.11274 0.0
C226 C 0.12986 0.90348 1.00151 0.0
C227 C 0.10611 0.13382 0.00854 0.0
C228 C 0.89862 0.87655 0.99205 0.0
C229 C 0.87715 0.10446 0.00276 0.0
C230 C 0.88093 0.9954 0.11297 0.0
C231 C 0.11185 1.00018 0.12238 0.0
C232 C 0.89855 1.00102 0.88054 0.0
C233 C 0.12864 0.0257 0.89608 0.0
Eu234 Eu 0.9942 0.0933 0.00856 0.0
O235 O 0.03935 0.05129 0.05104 0.0
O236 O 0.96149 0.04229 0.96044 0.0
Eu237 Eu 0.09305 0.01559 0.00838 0.0
Eu238 Eu 0.91452 0.99368 0.99764 0.0
O239 O 0.04411 0.05235 0.96613 0.0
O240 O 0.95396 0.03967 0.04599 0.0
Eu241 Eu 0.01166 0.0073 0.91262 0.0
Eu242 Eu 0.99789 0.00202 0.09345 0.0
O243 O 0.05322 0.96839 0.96125 0.0
O244 O 0.04652 0.96582 0.04532 0.0
O245 O 0.9635 0.95678 0.04045 0.0
O246 O 0.96937 0.95809 0.95565 0.0
Eu247 Eu 0.01225 0.91383 0.99865 0.0
O248 O 0.99372 0.13482 0.94134 0.0
O249 O 0.99086 0.13206 0.08021 0.0
O250 O 0.0237 0.8773 0.92607 0.0
O251 O 0.00479 0.87184 0.06766 0.0
O252 O 0.13933 0.95047 1.00157 0.0
O253 O 0.12603 0.09128 0.0127 0.0
O254 O 0.88073 0.9201 0.99491 0.0
O255 O 0.86806 0.0578 0.99744 0.0
O256 O 0.92496 0.99933 0.12987 0.0
O257 O 0.06583 0.99629 0.13582 0.0
O258 O 0.94499 0.00548 0.86955 0.0
O259 O 0.08575 0.01714 0.87732 0.0
O260 O 0.94506 0.86649 0.9911 0.0
O261 O 0.08628 0.88287 0.00263 0.0
O262 O 0.92027 0.12481 0.00871 0.0
O263 O 0.05954 0.14139 0.00648 0.0
O264 O 0.99897 0.07154 0.13684 0.0
O265 O 0.99084 0.93104 0.12849 0.0
O266 O 0.00959 0.07983 0.87733 0.0
O267 O 0.01839 0.93822 0.86904 0.0
O268 O 0.13811 0.02699 0.94229 0.0
O269 O 0.12858 0.00987 0.07876 0.0
O270 O 0.87992 0.99461 0.92448 0.0
O271 O 0.86984 0.99225 0.06682 0.0
H272 H 0.97487 0.37863 0.24307 0.0
H273 H 0.07223 0.3328 0.34947 0.0
H274 H 0.0732 0.25257 0.31171 0.0
H275 H 0.90659 0.26947 0.23155 0.0
H276 H 0.90113 0.27197 0.16779 0.0
H277 H 0.90751 0.32636 0.20298 0.0
H278 H 0.98148 0.35185 0.15143 0.0
H279 H 0.9748 0.29785 0.11571 0.0
H280 H 0.03064 0.31191 0.14393 0.0
H281 H 0.06046 0.17635 0.26575 0.0
H282 H 0.04393 0.11137 0.20693 0.0
H283 H 0.95876 0.20696 0.12696 0.0
C284 C 0.99665 0.35174 0.25803 0.0
C285 C 0.02355 0.36194 0.29913 0.0
C286 C 0.05176 0.32593 0.31771 0.0
C287 C 0.05225 0.28011 0.29679 0.0
C288 C 0.02482 0.27094 0.25684 0.0
C289 C 0.9983 0.30586 0.23696 0.0
C290 C 0.97351 0.28675 0.19274 0.0
C291 C 0.91895 0.28876 0.19918 0.0
C292 C 0.99119 0.31369 0.14833 0.0
C293 C 0.99008 0.23568 0.19123 0.0
C294 C 0.01906 0.22719 0.22898 0.0
C295 C 0.03806 0.18255 0.23582 0.0
C296 C 0.02816 0.14578 0.20245 0.0
C297 C 1.00012 0.15416 0.16243 0.0
C298 C 0.98048 0.1996 0.15714 0.0
H299 H 0.75712 0.97736 0.37287 0.0
H300 H 0.63679 0.04904 0.31566 0.0
H301 H 0.67604 0.0482 0.23601 0.0
H302 H 0.84692 0.04262 0.30454 0.0
H303 H 0.88533 0.9924 0.29584 0.0
H304 H 0.84671 0.99641 0.34804 0.0
H305 H 0.80985 0.91302 0.32678 0.0
H306 H 0.84811 0.90904 0.27426 0.0
H307 H 0.78433 0.90242 0.26901 0.0
H308 H 0.72719 0.03819 0.16213 0.0
H309 H 0.79117 0.02801 0.10072 0.0
H310 H 0.88112 0.96791 0.20623 0.0
C311 C 0.73921 0.99287 0.3435 0.0
C312 C 0.69388 0.01323 0.3504 0.0
C313 C 0.67163 0.03352 0.31123 0.0
C314 C 0.6935 0.03295 0.26577 0.0
C315 C 0.73805 0.01253 0.26003 0.0
C316 C 0.76109 0.99351 0.29788 0.0
C317 C 0.80998 0.97607 0.28227 0.0
C318 C 0.84957 0.00353 0.30927 0.0
C319 C 0.81324 0.92192 0.28845 0.0
C320 C 0.81073 0.98844 0.22993 0.0
C321 C 0.76853 0.00868 0.21769 0.0
C322 C 0.76049 0.02253 0.17128 0.0
C323 C 0.79693 0.01636 0.13657 0.0
C324 C 0.84112 0.99724 0.14866 0.0
C325 C 0.84778 0.9828 0.19594 0.0
H326 H 0.03509 0.65895 0.27409 0.0
H327 H 0.92585 0.71769 0.36976 0.0
H328 H 0.91266 0.78107 0.31317 0.0
H329 H 0.08525 0.77198 0.23785 0.0
H330 H 0.09707 0.75298 0.17687 0.0
H331 H 0.09659 0.71015 0.2236 0.0
H332 H 0.03297 0.65887 0.1788 0.0
H333 H 0.03307 0.70184 0.13213 0.0
H334 H 0.97799 0.6855 0.16283 0.0
H335 H 0.91221 0.83901 0.24947 0.0
H336 H 0.92723 0.89224 0.18236 0.0
H337 H 0.03776 0.79919 0.12596 0.0
C338 C 0.00846 0.6852 0.28312 0.0
C339 C 0.98098 0.68279 0.32622 0.0
C340 C 0.94651 0.71791 0.33659 0.0
C341 C 0.93886 0.75426 0.30474 0.0
C342 C 0.96605 0.75531 0.26256 0.0
C343 C 1.00035 0.72205 0.25158 0.0
C344 C 0.02563 0.73292 0.20428 0.0
C345 C 0.07931 0.74259 0.21107 0.0
C346 C 0.01688 0.69236 0.16733 0.0
C347 C 1.00058 0.77792 0.19101 0.0
C348 C 0.9661 0.78966 0.2252 0.0
C349 C 0.93899 0.8302 0.22239 0.0
C350 C 0.94793 0.86027 0.18416 0.0
C351 C 0.98375 0.84991 0.14909 0.0
C352 C 0.00983 0.80763 0.15199 0.0
H353 H 0.26658 0.01345 0.35844 0.0
H354 H 0.36369 0.91773 0.2829 0.0
H355 H 0.30901 0.9114 0.21581 0.0
H356 H 0.15567 0.95661 0.3171 0.0
H357 H 0.12614 0.01237 0.31091 0.0
H358 H 0.17124 0.00732 0.35498 0.0
H359 H 0.2183 0.07914 0.31897 0.0
H360 H 0.17334 0.08443 0.27488 0.0
H361 H 0.2349 0.07752 0.25642 0.0
H362 H 0.24837 0.91926 0.15513 0.0
H363 H 0.18316 0.94022 0.10321 0.0
H364 H 0.12291 0.03036 0.21643 0.0
C365 C 0.27622 0.99103 0.32784 0.0
C366 C 0.31928 0.96563 0.32622 0.0
C367 C 0.33052 0.93666 0.28552 0.0
C368 C 0.2998 0.93303 0.24707 0.0
C369 C 0.25788 0.95854 0.24976 0.0
C370 C 0.24583 0.98694 0.28898 0.0
C371 C 0.19926 0.01192 0.28158 0.0
C372 C 0.1608 0.9961 0.31833 0.0
C373 C 0.20693 0.06649 0.28304 0.0
C374 C 0.18751 0.99356 0.23177 0.0
C375 C 0.22199 0.96277 0.21435 0.0
C376 C 0.22091 0.94293 0.16845 0.0
C377 C 0.18388 0.95522 0.13922 0.0
C378 C 0.14821 0.98677 0.15602 0.0
C379 C 0.14952 0.00567 0.20314 0.0
H380 H 0.97746 0.76197 0.62874 0.0
H381 H 0.08604 0.66264 0.66482 0.0
H382 H 0.09846 0.70654 0.74102 0.0
H383 H 0.03888 0.86809 0.67936 0.0
H384 H 0.98436 0.89508 0.70049 0.0
H385 H 0.98415 0.85603 0.64841 0.0
H386 H 0.91758 0.80348 0.68795 0.0
H387 H 0.91784 0.84222 0.74022 0.0
H388 H 0.92702 0.77923 0.74572 0.0
H389 H 0.09505 0.75723 0.81565 0.0
H390 H 0.08204 0.81702 0.88079 0.0
H391 H 0.98048 0.88794 0.79467 0.0
C392 C 0.00417 0.74994 0.65256 0.0
C393 C 0.031 0.70906 0.64085 0.0
C394 C 0.06553 0.69417 0.67288 0.0
C395 C 0.07267 0.71873 0.71634 0.0
C396 C 0.04553 0.75867 0.72704 0.0
C397 C 0.01253 0.77476 0.69582 0.0
C398 C 0.98869 0.81919 0.71596 0.0
C399 C 0.99969 0.86214 0.68416 0.0
C400 C 0.93458 0.81049 0.72287 0.0
C401 C 0.01303 0.82509 0.76352 0.0
C402 C 0.04528 0.78941 0.76935 0.0
C403 C 0.07037 0.78573 0.81128 0.0
C404 C 0.06261 0.81965 0.84813 0.0
C405 C 0.03064 0.8572 0.8425 0.0
C406 C 0.00569 0.85997 0.79955 0.0
H407 H 0.32445 0.96864 0.69233 0.0
H408 H 0.41392 0.07838 0.75986 0.0
H409 H 0.34788 0.09731 0.81651 0.0
H410 H 0.21419 0.02874 0.70313 0.0
H411 H 0.17827 0.97656 0.71769 0.0
H412 H 0.23191 0.97048 0.68157 0.0
H413 H 0.26556 0.91105 0.73959 0.0
H414 H 0.21153 0.91503 0.77548 0.0
H415 H 0.26854 0.9271 0.80213 0.0
H416 H 0.27367 0.10368 0.86626 0.0
H417 H 0.19708 0.0935 0.91041 0.0
H418 H 0.15501 0.97888 0.81207 0.0
C419 C 0.33049 0.99618 0.71947 0.0
C420 C 0.37453 0.02207 0.72161 0.0
C421 C 0.38045 0.05845 0.75714 0.0
C422 C 0.34315 0.06942 0.7895 0.0
C423 C 0.30017 0.04364 0.78597 0.0
C424 C 0.29372 0.00743 0.75227 0.0
C425 C 0.24435 0.98423 0.75734 0.0
C426 C 0.21546 0.99044 0.71224 0.0
C427 C 0.24771 0.93122 0.76937 0.0
C428 C 0.22403 0.01316 0.79916 0.0
C429 C 0.25693 0.04733 0.81489 0.0
C430 C 0.24756 0.07724 0.85418 0.0
C431 C 0.20398 0.07121 0.87894 0.0
C432 C 0.17019 0.03567 0.86432 0.0
C433 C 0.17987 0.00694 0.8233 0.0
H434 H 0.99794 0.26523 0.64966 0.0
H435 H 0.02536 0.39356 0.73554 0.0
H436 H 0.02439 0.34578 0.80813 0.0
H437 H 0.91947 0.20495 0.73486 0.0
H438 H 0.94281 0.14654 0.72218 0.0
H439 H 0.94424 0.19052 0.67644 0.0
H440 H 0.03559 0.1813 0.66532 0.0
H441 H 0.03441 0.13723 0.71095 0.0
H442 H 0.07326 0.18927 0.71617 0.0
H443 H 0.01774 0.28666 0.87053 0.0
H444 H 0.01207 0.2174 0.92151 0.0
H445 H 0.99456 0.12373 0.79666 0.0
C446 C 0.00359 0.28297 0.68389 0.0
C447 C 0.01175 0.33293 0.6874 0.0
C448 C 0.01939 0.35526 0.73241 0.0
C449 C 0.0187 0.3285 0.77371 0.0
C450 C 0.01079 0.27939 0.76923 0.0
C451 C 0.00381 0.25654 0.72564 0.0
C452 C 0.99764 0.20293 0.73134 0.0
C453 C 0.94809 0.1852 0.71525 0.0
C454 C 0.03762 0.17611 0.70434 0.0
C455 C 1.00215 0.19952 0.78495 0.0
C456 C 0.00915 0.2443 0.80579 0.0
C457 C 0.01279 0.2513 0.85471 0.0
C458 C 0.00953 0.21144 0.88337 0.0
C459 C 0.0036 0.16474 0.86317 0.0
C460 C 0.99977 0.15879 0.81314 0.0
H461 H 0.65626 0.9801 0.73187 0.0
H462 H 0.737 0.04783 0.61677 0.0
H463 H 0.8078 0.05328 0.66678 0.0
H464 H 0.7103 0.04941 0.82862 0.0
H465 H 0.71132 1.00002 0.86839 0.0
H466 H 0.66604 0.00177 0.82411 0.0
H467 H 0.69095 0.91872 0.79091 0.0
H468 H 0.73628 0.91676 0.8351 0.0
H469 H 0.75226 0.90958 0.77269 0.0
H470 H 0.86993 0.05025 0.72687 0.0
H471 H 0.92111 0.04035 0.795 0.0
H472 H 0.80223 0.97452 0.87394 0.0
C473 C 0.6889 0.99598 0.71723 0.0
C474 C 0.69086 0.01393 0.67039 0.0
C475 C 0.73422 0.03466 0.65271 0.0
C476 C 0.77478 0.03765 0.68076 0.0
C477 C 0.77163 0.01981 0.72659 0.0
C478 C 0.72994 0.99949 0.74497 0.0
C479 C 0.7368 0.9831 0.79558 0.0
C480 C 0.70417 0.0102 0.83128 0.0
C481 C 0.72859 0.92881 0.79873 0.0
C482 C 0.78896 0.99715 0.80243 0.0
C483 C 0.80807 0.01818 0.76196 0.0
C484 C 0.85545 0.03378 0.75876 0.0
C485 C 0.88433 0.02769 0.79784 0.0
C486 C 0.86601 0.00622 0.84005 0.0
C487 C 0.8174 0.99104 0.84235 0.0
H488 H 0.31305 0.33015 0.06121 0.0
H489 H 0.24302 0.41897 0.96101 0.0
H490 H 0.18432 0.35386 0.94535 0.0
H491 H 0.29768 0.21922 0.99852 0.0
H492 H 0.28439 0.18419 0.05042 0.0
H493 H 0.32154 0.23737 0.05546 0.0
H494 H 0.26612 0.27259 0.12127 0.0
H495 H 0.22915 0.21911 0.11812 0.0
H496 H 0.2032 0.27652 0.11079 0.0
H497 H 0.13442 0.2803 0.93925 0.0
H498 H 0.09109 0.20356 0.94747 0.0
H499 H 0.1902 0.16128 0.0537 0.0
C500 C 0.28489 0.33627 0.03658 0.0
C501 C 0.28279 0.37984 0.0122 0.0
C502 C 0.24584 0.38585 0.9796 0.0
C503 C 0.21226 0.34909 0.97056 0.0
C504 C 0.21582 0.30655 0.99458 0.0
C505 C 0.25073 0.29999 0.02735 0.0
C506 C 0.24557 0.25085 0.0489 0.0
C507 C 0.28994 0.22114 0.0376 0.0
C508 C 0.23539 0.25503 0.10298 0.0
C509 C 0.20242 0.23077 0.02284 0.0
C510 C 0.18617 0.26372 0.9916 0.0
C511 C 0.14659 0.25437 0.9638 0.0
C512 C 0.12211 0.21074 0.96888 0.0
C513 C 0.13691 0.1768 1.00158 0.0
C514 C 0.17828 0.18649 0.02826 0.0
H515 H 0.27663 0.66459 0.03384 0.0
H516 H 0.39806 0.73939 0.96858 0.0
H517 H 0.34961 0.81084 0.96114 0.0
H518 H 0.18757 0.71369 0.96027 0.0
H519 H 0.14307 0.71829 0.00763 0.0
H520 H 0.18738 0.673 0.00898 0.0
H521 H 0.21252 0.70417 0.09268 0.0
H522 H 0.1682 0.74946 0.09151 0.0
H523 H 0.22978 0.76616 0.10117 0.0
H524 H 0.28931 0.8744 0.96179 0.0
H525 H 0.21937 0.92571 0.96717 0.0
H526 H 0.13504 0.81003 0.0298 0.0
C527 C 0.29299 0.69614 0.01825 0.0
C528 C 0.34114 0.69639 1.00163 0.0
C529 C 0.36115 0.73819 0.98101 0.0
C530 C 0.33399 0.77904 0.97688 0.0
C531 C 0.2867 0.77759 0.99333 0.0
C532 C 0.26615 0.73726 0.01341 0.0
C533 C 0.21413 0.74517 0.02721 0.0
C534 C 0.18109 0.71047 0.99935 0.0
C535 C 0.20568 0.741 0.08136 0.0
C536 C 0.2088 0.79619 0.01171 0.0
C537 C 0.25129 0.81421 0.99264 0.0
C538 C 0.25579 0.86069 0.97656 0.0
C539 C 0.21582 0.88963 0.97993 0.0
C540 C 0.1716 0.87197 0.99884 0.0
C541 C 0.16819 0.82448 0.01481 0.0
H542 H 0.7272 0.34259 0.04176 0.0
H543 H 0.60785 0.26273 0.98064 0.0
H544 H 0.65743 0.19165 0.97134 0.0
H545 H 0.81814 0.29168 0.96583 0.0
H546 H 0.86182 0.28957 0.01168 0.0
H547 H 0.81683 0.33431 0.01511 0.0
H548 H 0.79037 0.30621 0.09924 0.0
H549 H 0.83546 0.26154 0.09608 0.0
H550 H 0.77391 0.24433 0.10754 0.0
H551 H 0.71871 0.13022 0.96746 0.0
H552 H 0.78915 0.08029 0.9693 0.0
H553 H 0.8705 0.19888 0.03274 0.0
C554 C 0.71151 0.30994 0.02689 0.0
C555 C 0.66381 0.30811 0.01164 0.0
C556 C 0.64452 0.265 0.9919 0.0
C557 C 0.67228 0.22442 0.98671 0.0
C558 C 0.71926 0.22752 1.00147 0.0
C559 C 0.73888 0.26899 0.02124 0.0
C560 C 0.79072 0.26253 0.03329 0.0
C561 C 0.82382 0.29654 0.00476 0.0
C562 C 0.79802 0.26903 0.08724 0.0
C563 C 0.79702 0.21103 0.01694 0.0
C564 C 0.75519 0.19166 0.99893 0.0
C565 C 0.75169 0.14483 0.98163 0.0
C566 C 0.79201 0.11673 0.98296 0.0
C567 C 0.83545 0.13555 1.00133 0.0
C568 C 0.83792 0.18349 0.01833 0.0
H569 H 0.6394 0.75639 0.02584 0.0
H570 H 0.69059 0.63476 0.94236 0.0
H571 H 0.77063 0.67304 0.93627 0.0
H572 H 0.70608 0.84565 0.95951 0.0
H573 H 0.71762 0.88307 0.0114 0.0
H574 H 0.66461 0.84544 0.00975 0.0
H575 H 0.68859 0.80679 0.0883 0.0
H576 H 0.7419 0.84405 0.08989 0.0
H577 H 0.74617 0.78007 0.09149 0.0
H578 H 0.84626 0.72402 0.94114 0.0
H579 H 0.90907 0.78732 0.95033 0.0
H580 H 0.80739 0.87622 0.02802 0.0
C581 C 0.66745 0.73796 0.00619 0.0
C582 C 0.65871 0.69267 0.98448 0.0
C583 C 0.69629 0.66974 0.95882 0.0
C584 C 0.74201 0.69102 0.95545 0.0
C585 C 0.74958 0.73553 0.97754 0.0
C586 C 0.71319 0.75901 0.00189 0.0
C587 C 0.73037 0.80721 0.02115 0.0
C588 C 0.70305 0.84773 0.99912 0.0
C589 C 0.72653 0.80965 0.07596 0.0
C590 C 0.78196 0.80712 0.00376 0.0
C591 C 0.79261 0.76528 0.97917 0.0
C592 C 0.8383 0.75706 0.96018 0.0
C593 C 0.87379 0.79302 0.96576 0.0
C594 C 0.86304 0.83673 0.98954 0.0
C595 C 0.81662 0.84337 0.00917 0.0
loop_
_geom_bond_atom_site_label_1
_geom_bond_atom_site_label_2
_geom_bond_distance
_geom_bond_site_symmetry_2
_ccdc_geom_bond_type
H0 O26 0.856 . S
H1 O29 0.854 . S
H2 C37 0.930 . S
H3 C38 0.930 . S
H4 C40 0.930 . S
H5 C41 0.930 . S
H6 C43 0.931 . S
H7 C44 0.930 . S
H8 C46 0.930 . S
H9 C47 0.929 . S
H10 C49 0.930 . S
H11 C50 0.931 . S
H12 C52 0.930 . S
H13 C53 0.929 . S
H14 C55 0.931 . S
H15 C56 0.930 . S
H16 C58 0.930 . S
H17 C59 0.932 . S
H18 C61 0.930 . S
H19 C62 0.929 . S
H20 C64 0.931 . S
H21 C65 0.930 . S
H22 C67 0.929 . S
H23 C68 0.931 . S
H24 C70 0.930 . S
H25 C71 0.929 . S
O26 H0 0.856 . S
O26 C72 1.300 1_455 S
O27 C72 1.209 . S
O28 C73 1.199 1_455 S
O29 H1 0.854 . S
O29 C73 1.297 . S
C30 C31 1.404 . S
C30 C35 1.397 1_655 S
C30 C36 1.492 1_655 S
C31 C30 1.404 . S
C31 C32 1.396 . S
C31 C42 1.492 . S
C32 C31 1.396 . S
C32 C33 1.397 . S
C32 C48 1.509 . S
C33 C32 1.397 . S
C33 C34 1.413 . S
C33 C54 1.485 . S
C34 C33 1.413 . S
C34 C35 1.389 1_655 S
C34 C60 1.490 1_655 S
C35 C30 1.397 1_455 S
C35 C34 1.389 1_455 S
C35 C66 1.519 1_455 S
C36 C30 1.492 1_455 S
C36 C37 1.363 . S
C36 C41 1.390 1_455 S
C37 H2 0.930 . S
C37 C36 1.363 . S
C37 C38 1.372 . S
C38 H3 0.930 . S
C38 C37 1.372 . S
C38 C39 1.383 . S
C39 C38 1.383 . S
C39 C40 1.395 1_455 S
C40 H4 0.930 . S
C40 C39 1.395 1_655 S
C40 C41 1.362 . S
C41 H5 0.930 . S
C41 C36 1.390 1_655 S
C41 C40 1.362 . S
C42 C31 1.492 . S
C42 C43 1.377 1_655 S
C42 C47 1.397 . S
C43 H6 0.931 . S
C43 C42 1.377 1_455 S
C43 C44 1.376 . S
C44 H7 0.930 . S
C44 C43 1.376 . S
C44 C45 1.376 1_455 S
C45 C44 1.376 1_655 S
C45 C46 1.378 . S
C45 C72 1.486 . S
C46 H8 0.930 . S
C46 C45 1.378 . S
C46 C47 1.376 . S
C47 H9 0.929 . S
C47 C42 1.397 . S
C47 C46 1.376 . S
C48 C32 1.509 . S
C48 C49 1.391 1_655 S
C48 C53 1.386 . S
C49 H10 0.930 . S
C49 C48 1.391 1_455 S
C49 C50 1.375 . S
C50 H11 0.931 . S
C50 C49 1.375 . S
C50 C51 1.375 1_455 S
C51 C50 1.375 1_655 S
C51 C52 1.361 . S
C52 H12 0.930 . S
C52 C51 1.361 . S
C52 C53 1.399 . S
C53 H13 0.929 . S
C53 C48 1.386 . S
C53 C52 1.399 . S
C54 C33 1.485 . S
C54 C55 1.394 1_655 S
C54 C59 1.360 . S
C55 H14 0.931 . S
C55 C54 1.394 1_455 S
C55 C56 1.372 . S
C56 H15 0.930 . S
C56 C55 1.372 . S
C56 C57 1.397 1_455 S
C57 C56 1.397 1_655 S
C57 C58 1.390 . S
C57 C73 1.476 . S
C58 H16 0.930 . S
C58 C57 1.390 . S
C58 C59 1.366 . S
C59 H17 0.932 . S
C59 C54 1.360 . S
C59 C58 1.366 . S
C60 C34 1.490 1_455 S
C60 C61 1.380 . S
C60 C65 1.386 1_455 S
C61 H18 0.930 . S
C61 C60 1.380 . S
C61 C62 1.381 . S
C62 H19 0.929 . S
C62 C61 1.381 . S
C62 C63 1.371 . S
C63 C62 1.371 . S
C63 C64 1.380 1_455 S
C64 H20 0.931 . S
C64 C63 1.380 1_655 S
C64 C65 1.387 . S
C65 H21 0.930 . S
C65 C60 1.386 1_655 S
C65 C64 1.387 . S
C66 C35 1.519 1_655 S
C66 C67 1.377 1_655 S
C66 C71 1.361 . S
C67 H22 0.929 . S
C67 C66 1.377 1_455 S
C67 C68 1.386 . S
C68 H23 0.931 . S
C68 C67 1.386 . S
C68 C69 1.363 1_455 S
C69 C68 1.363 1_655 S
C69 C70 1.385 . S
C70 H24 0.930 . S
C70 C69 1.385 . S
C70 C71 1.396 . S
C71 H25 0.929 . S
C71 C66 1.361 . S
C71 C70 1.396 . S
C72 O26 1.300 1_655 S
C72 O27 1.209 . S
C72 C45 1.486 . S
C73 O28 1.199 1_655 S
C73 O29 1.297 . S
C73 C57 1.476 . S
H74 O100 0.856 1_545 S
H75 O103 0.854 . S
H76 C111 0.930 . S
H77 C112 0.930 . S
H78 C114 0.930 . S
H79 C115 0.930 . S
H80 C117 0.931 . S
H81 C118 0.930 . S
H82 C120 0.930 . S
H83 C121 0.929 . S
H84 C123 0.930 . S
H85 C124 0.931 . S
H86 C126 0.930 . S
H87 C127 0.929 . S
H88 C129 0.931 . S
H89 C130 0.930 . S
H90 C132 0.930 . S
H91 C133 0.932 . S
H92 C135 0.930 . S
H93 C136 0.929 . S
H94 C138 0.931 . S
H95 C139 0.930 . S
H96 C141 0.929 . S
H97 C142 0.931 . S
H98 C144 0.930 . S
H99 C145 0.929 . S
O100 H74 0.856 1_565 S
O100 C146 1.300 1_565 S
O101 C146 1.209 . S
O102 C147 1.199 1_565 S
O103 H75 0.854 . S
O103 C147 1.297 . S
C104 C105 1.404 . S
C104 C109 1.397 . S
C104 C110 1.492 . S
C105 C104 1.404 . S
C105 C106 1.396 . S
C105 C116 1.492 . S
C106 C105 1.396 . S
C106 C107 1.397 . S
C106 C122 1.509 . S
C107 C106 1.397 . S
C107 C108 1.412 . S
C107 C128 1.485 . S
C108 C107 1.412 . S
C108 C109 1.388 . S
C108 C134 1.490 . S
C109 C104 1.397 . S
C109 C108 1.388 . S
C109 C140 1.519 . S
C110 C104 1.492 . S
C110 C111 1.363 1_545 S
C110 C115 1.390 . S
C111 H76 0.930 . S
C111 C110 1.363 1_565 S
C111 C112 1.372 . S
C112 H77 0.930 . S
C112 C111 1.372 . S
C112 C113 1.383 . S
C113 C112 1.383 . S
C113 C114 1.395 1_565 S
C114 H78 0.930 . S
C114 C113 1.395 1_545 S
C114 C115 1.362 . S
C115 H79 0.930 . S
C115 C110 1.390 . S
C115 C114 1.362 . S
C116 C105 1.492 . S
C116 C117 1.377 1_545 S
C116 C121 1.397 . S
C117 H80 0.931 . S
C117 C116 1.377 1_565 S
C117 C118 1.376 . S
C118 H81 0.930 . S
C118 C117 1.376 . S
C118 C119 1.376 1_565 S
C119 C118 1.376 1_545 S
C119 C120 1.378 . S
C119 C146 1.486 . S
C120 H82 0.930 . S
C120 C119 1.378 . S
C120 C121 1.376 . S
C121 H83 0.929 . S
C121 C116 1.397 . S
C121 C120 1.376 . S
C122 C106 1.509 . S
C122 C123 1.391 1_545 S
C122 C127 1.386 . S
C123 H84 0.930 . S
C123 C122 1.391 1_565 S
C123 C124 1.375 . S
C124 H85 0.931 . S
C124 C123 1.375 . S
C124 C125 1.375 1_565 S
C125 C124 1.375 1_545 S
C125 C126 1.361 . S
C126 H86 0.930 . S
C126 C125 1.361 . S
C126 C127 1.399 . S
C127 H87 0.929 . S
C127 C122 1.386 . S
C127 C126 1.399 . S
C128 C107 1.485 . S
C128 C129 1.394 1_545 S
C128 C133 1.360 . S
C129 H88 0.931 . S
C129 C128 1.394 1_565 S
C129 C130 1.372 . S
C130 H89 0.930 . S
C130 C129 1.372 . S
C130 C131 1.397 1_565 S
C131 C130 1.397 1_545 S
C131 C132 1.390 . S
C131 C147 1.476 . S
C132 H90 0.930 . S
C132 C131 1.390 . S
C132 C133 1.366 . S
C133 H91 0.932 . S
C133 C128 1.360 . S
C133 C132 1.366 . S
C134 C108 1.490 . S
C134 C135 1.380 1_545 S
C134 C139 1.386 . S
C135 H92 0.930 . S
C135 C134 1.380 1_565 S
C135 C136 1.381 . S
C136 H93 0.929 . S
C136 C135 1.381 . S
C136 C137 1.371 . S
C137 C136 1.371 . S
C137 C138 1.380 1_565 S
C138 H94 0.931 . S
C138 C137 1.380 1_545 S
C138 C139 1.387 . S
C139 H95 0.930 . S
C139 C134 1.386 . S
C139 C138 1.387 . S
C140 C109 1.519 . S
C140 C141 1.377 1_545 S
C140 C145 1.361 . S
C141 H96 0.929 . S
C141 C140 1.377 1_565 S
C141 C142 1.386 . S
C142 H97 0.931 . S
C142 C141 1.386 . S
C142 C143 1.363 1_565 S
C143 C142 1.363 1_545 S
C143 C144 1.385 . S
C144 H98 0.930 . S
C144 C143 1.385 . S
C144 C145 1.396 . S
C145 H99 0.929 . S
C145 C140 1.361 . S
C145 C144 1.396 . S
C146 O100 1.300 1_545 S
C146 O101 1.209 . S
C146 C119 1.486 . S
C147 O102 1.199 1_545 S
C147 O103 1.297 . S
C147 C131 1.476 . S
H148 O174 0.856 . S
H149 O177 0.854 . S
H150 C185 0.930 . S
H151 C186 0.930 . S
H152 C188 0.930 . S
H153 C189 0.930 . S
H154 C191 0.931 . S
H155 C192 0.930 . S
H156 C194 0.930 . S
H157 C195 0.929 . S
H158 C197 0.930 . S
H159 C198 0.931 . S
H160 C200 0.930 . S
H161 C201 0.929 . S
H162 C203 0.931 . S
H163 C204 0.930 . S
H164 C206 0.930 . S
H165 C207 0.932 . S
H166 C209 0.930 . S
H167 C210 0.929 . S
H168 C212 0.931 . S
H169 C213 0.930 . S
H170 C215 0.929 . S
H171 C216 0.931 . S
H172 C218 0.930 . S
H173 C219 0.929 . S
O174 H148 0.856 . S
O174 C220 1.300 1_556 S
O175 C220 1.209 . S
O176 C221 1.199 1_556 S
O177 H149 0.854 . S
O177 C221 1.297 . S
C178 C179 1.404 . S
C178 C183 1.397 . S
C178 C184 1.492 1_554 S
C179 C178 1.404 . S
C179 C180 1.396 . S
C179 C190 1.492 . S
C180 C179 1.396 . S
C180 C181 1.397 . S
C180 C196 1.509 . S
C181 C180 1.397 . S
C181 C182 1.412 . S
C181 C202 1.485 . S
C182 C181 1.412 . S
C182 C183 1.388 . S
C182 C208 1.490 1_554 S
C183 C178 1.397 . S
C183 C182 1.388 . S
C183 C214 1.519 . S
C184 C178 1.492 1_556 S
C184 C185 1.363 . S
C184 C189 1.390 1_556 S
C185 H150 0.930 . S
C185 C184 1.363 . S
C185 C186 1.372 . S
C186 H151 0.930 . S
C186 C185 1.372 . S
C186 C187 1.383 . S
C187 C186 1.383 . S
C187 C188 1.395 1_556 S
C188 H152 0.930 . S
C188 C187 1.395 1_554 S
C188 C189 1.362 . S
C189 H153 0.930 . S
C189 C184 1.390 1_554 S
C189 C188 1.362 . S
C190 C179 1.492 . S
C190 C191 1.377 1_554 S
C190 C195 1.397 . S
C191 H154 0.931 . S
C191 C190 1.377 1_556 S
C191 C192 1.376 . S
C192 H155 0.930 . S
C192 C191 1.376 . S
C192 C193 1.376 1_556 S
C193 C192 1.376 1_554 S
C193 C194 1.378 . S
C193 C220 1.486 . S
C194 H156 0.930 . S
C194 C193 1.378 . S
C194 C195 1.376 . S
C195 H157 0.929 . S
C195 C190 1.397 . S
C195 C194 1.376 . S
C196 C180 1.509 . S
C196 C197 1.391 1_554 S
C196 C201 1.386 . S
C197 H158 0.930 . S
C197 C196 1.391 1_556 S
C197 C198 1.375 . S
C198 H159 0.931 . S
C198 C197 1.375 . S
C198 C199 1.375 1_556 S
C199 C198 1.375 1_554 S
C199 C200 1.361 . S
C200 H160 0.930 . S
C200 C199 1.361 . S
C200 C201 1.399 . S
C201 H161 0.929 . S
C201 C196 1.386 . S
C201 C200 1.399 . S
C202 C181 1.485 . S
C202 C203 1.394 1_554 S
C202 C207 1.360 . S
C203 H162 0.931 . S
C203 C202 1.394 1_556 S
C203 C204 1.372 . S
C204 H163 0.930 . S
C204 C203 1.372 . S
C204 C205 1.397 1_556 S
C205 C204 1.397 1_554 S
C205 C206 1.390 . S
C205 C221 1.476 . S
C206 H164 0.930 . S
C206 C205 1.390 . S
C206 C207 1.366 . S
C207 H165 0.932 . S
C207 C202 1.360 . S
C207 C206 1.366 . S
C208 C182 1.490 1_556 S
C208 C209 1.380 . S
C208 C213 1.386 1_556 S
C209 H166 0.930 . S
C209 C208 1.380 . S
C209 C210 1.381 . S
C210 H167 0.929 . S
C210 C209 1.381 . S
C210 C211 1.371 . S
C211 C210 1.371 . S
C211 C212 1.380 1_556 S
C212 H168 0.931 . S
C212 C211 1.380 1_554 S
C212 C213 1.387 . S
C213 H169 0.930 . S
C213 C208 1.386 1_554 S
C213 C212 1.387 . S
C214 C183 1.519 . S
C214 C215 1.377 1_554 S
C214 C219 1.361 . S
C215 H170 0.929 . S
C215 C214 1.377 1_556 S
C215 C216 1.386 . S
C216 H171 0.931 . S
C216 C215 1.386 . S
C216 C217 1.363 1_556 S
C217 C216 1.363 1_554 S
C217 C218 1.385 . S
C218 H172 0.930 . S
C218 C217 1.385 . S
C218 C219 1.396 . S
C219 H173 0.929 . S
C219 C214 1.361 . S
C219 C218 1.396 . S
C220 O174 1.300 1_554 S
C220 O175 1.209 . S
C220 C193 1.486 . S
C221 O176 1.199 1_554 S
C221 O177 1.297 . S
C221 C205 1.476 . S
C222 O248 1.283 . S
C222 O266 1.283 . S
C223 O249 1.283 . S
C223 O264 1.284 . S
C224 O250 1.284 . S
C224 O267 1.283 . S
C225 O251 1.283 . S
C225 O265 1.283 . S
C226 O252 1.283 . S
C226 O261 1.283 . S
C227 O253 1.283 . S
C227 O263 1.283 . S
C228 O254 1.283 . S
C228 O260 1.283 . S
C229 O255 1.283 . S
C229 O262 1.283 . S
C230 O256 1.283 . S
C230 O271 1.283 . S
C231 O257 1.283 . S
C231 O269 1.283 . S
C232 O258 1.283 . S
C232 O270 1.283 . S
C233 O259 1.283 . S
C233 O268 1.283 . S
Eu234 O235 2.370 . S
Eu234 O236 2.370 1_454 S
Eu234 O239 2.370 1_554 S
Eu234 O240 2.370 1_455 S
Eu234 O248 2.363 1_554 S
Eu234 O249 2.363 . S
Eu234 O262 2.363 1_455 S
Eu234 O263 2.363 . S
O235 Eu234 2.370 . S
O235 Eu237 2.372 . S
O235 Eu242 2.366 1_455 S
O236 Eu234 2.370 1_656 S
O236 Eu238 2.370 1_556 S
O236 Eu241 2.370 1_655 S
Eu237 O235 2.372 . S
Eu237 O239 2.368 1_554 S
Eu237 O243 2.368 1_544 S
Eu237 O244 2.372 1_545 S
Eu237 O252 2.363 1_544 S
Eu237 O253 2.363 . S
Eu237 O268 2.360 1_554 S
Eu237 O269 2.366 . S
Eu238 O236 2.370 1_554 S
Eu238 O240 2.370 . S
Eu238 O245 2.370 1_545 S
Eu238 O246 2.370 1_544 S
Eu238 O254 2.363 1_545 S
Eu238 O255 2.363 . S
Eu238 O270 2.363 1_554 S
Eu238 O271 2.363 . S
O239 Eu234 2.370 1_556 S
O239 Eu237 2.368 1_556 S
O239 Eu241 2.370 . S
O240 Eu234 2.370 1_655 S
O240 Eu238 2.370 . S
O240 Eu242 2.375 . S
Eu241 O236 2.370 1_455 S
Eu241 O239 2.370 . S
Eu241 O243 2.370 1_545 S
Eu241 O246 2.370 1_445 S
Eu241 O258 2.363 1_455 S
Eu241 O259 2.363 . S
Eu241 O266 2.363 . S
Eu241 O267 2.363 1_545 S
Eu242 O235 2.366 1_655 S
Eu242 O240 2.375 . S
Eu242 O244 2.365 1_645 S
Eu242 O245 2.375 1_545 S
Eu242 O256 2.371 . S
Eu242 O257 2.355 1_655 S
Eu242 O264 2.363 1_655 S
Eu242 O265 2.363 1_545 S
O243 Eu237 2.368 1_566 S
O243 Eu241 2.370 1_565 S
O243 Eu247 2.364 1_456 S
O244 Eu237 2.372 1_565 S
O244 Eu242 2.365 1_465 S
O244 Eu247 2.367 1_455 S
O245 Eu238 2.370 1_565 S
O245 Eu242 2.375 1_565 S
O245 Eu247 2.376 . S
O246 Eu238 2.370 1_566 S
O246 Eu241 2.370 1_665 S
O246 Eu247 2.373 1_556 S
Eu247 O243 2.364 1_654 S
Eu247 O244 2.367 1_655 S
Eu247 O245 2.376 . S
Eu247 O246 2.373 1_554 S
Eu247 O250 2.360 1_654 S
Eu247 O251 2.366 . S
Eu247 O260 2.371 . S
Eu247 O261 2.355 1_654 S
O248 C222 1.283 . S
O248 Eu234 2.363 1_556 S
O249 C223 1.283 . S
O249 Eu234 2.363 . S
O250 C224 1.284 . S
O250 Eu247 2.360 1_456 S
O251 C225 1.283 . S
O251 Eu247 2.366 . S
O252 C226 1.283 . S
O252 Eu237 2.363 1_566 S
O253 C227 1.283 . S
O253 Eu237 2.363 . S
O254 C228 1.283 . S
O254 Eu238 2.363 1_565 S
O255 C229 1.283 . S
O255 Eu238 2.363 . S
O256 C230 1.283 . S
O256 Eu242 2.371 . S
O257 C231 1.283 . S
O257 Eu242 2.355 1_455 S
O258 C232 1.283 . S
O258 Eu241 2.363 1_655 S
O259 C233 1.283 . S
O259 Eu241 2.363 . S
O260 C228 1.283 . S
O260 Eu247 2.371 . S
O261 C226 1.283 . S
O261 Eu247 2.355 1_456 S
O262 C229 1.283 . S
O262 Eu234 2.363 1_655 S
O263 C227 1.283 . S
O263 Eu234 2.363 . S
O264 C223 1.284 . S
O264 Eu242 2.363 1_455 S
O265 C225 1.283 . S
O265 Eu242 2.363 1_565 S
O266 C222 1.283 . S
O266 Eu241 2.363 . S
O267 C224 1.283 . S
O267 Eu241 2.363 1_565 S
O268 C233 1.283 . S
O268 Eu237 2.360 1_556 S
O269 C231 1.283 . S
O269 Eu237 2.366 . S
O270 C232 1.283 . S
O270 Eu238 2.363 1_556 S
O271 C230 1.283 . S
O271 Eu238 2.363 . S
H272 C284 0.930 . S
H273 C286 0.930 . S
H274 C287 0.930 . S
H275 C291 0.959 . S
H276 C291 0.959 . S
H277 C291 0.961 . S
H278 C292 0.960 . S
H279 C292 0.961 . S
H280 C292 0.959 . S
H281 C295 0.929 . S
H282 C296 0.931 . S
H283 C298 0.933 . S
C284 H272 0.930 . S
C284 C285 1.399 . S
C284 C289 1.399 . S
C285 C284 1.399 . S
C285 C286 1.376 . S
C286 H273 0.930 . S
C286 C285 1.376 . S
C286 C287 1.388 . S
C287 H274 0.930 . S
C287 C286 1.388 . S
C287 C288 1.390 . S
C288 C287 1.390 . S
C288 C289 1.394 . S
C288 C294 1.465 . S
C289 C284 1.399 . S
C289 C288 1.394 . S
C289 C290 1.516 . S
C290 C289 1.516 . S
C290 C291 1.502 1_455 S
C290 C292 1.561 . S
C290 C293 1.526 . S
C291 H275 0.959 . S
C291 H276 0.959 . S
C291 H277 0.961 . S
C291 C290 1.502 1_655 S
C292 H278 0.960 . S
C292 H279 0.961 . S
C292 H280 0.959 . S
C292 C290 1.561 . S
C293 C290 1.526 . S
C293 C294 1.396 . S
C293 C298 1.388 1_455 S
C294 C288 1.465 . S
C294 C293 1.396 . S
C294 C295 1.399 . S
C295 H281 0.929 . S
C295 C294 1.399 . S
C295 C296 1.385 . S
C296 H282 0.931 . S
C296 C295 1.385 . S
C296 C297 1.389 . S
C297 C296 1.389 . S
C297 C298 1.385 1_455 S
C298 H283 0.933 . S
C298 C293 1.388 1_655 S
C298 C297 1.385 1_655 S
H299 C311 0.930 . S
H300 C313 0.930 . S
H301 C314 0.930 . S
H302 C318 0.959 . S
H303 C318 0.959 . S
H304 C318 0.961 . S
H305 C319 0.960 . S
H306 C319 0.961 . S
H307 C319 0.959 . S
H308 C322 0.929 . S
H309 C323 0.931 . S
H310 C325 0.930 . S
C311 H299 0.930 . S
C311 C312 1.399 . S
C311 C316 1.399 . S
C312 C311 1.399 . S
C312 C313 1.376 1_565 S
C313 H300 0.930 . S
C313 C312 1.376 1_545 S
C313 C314 1.388 . S
C314 H301 0.930 . S
C314 C313 1.388 . S
C314 C315 1.390 . S
C315 C314 1.390 . S
C315 C316 1.394 1_545 S
C315 C321 1.465 . S
C316 C311 1.399 . S
C316 C315 1.394 1_565 S
C316 C317 1.516 . S
C317 C316 1.516 . S
C317 C318 1.502 . S
C317 C319 1.561 . S
C317 C320 1.526 . S
C318 H302 0.959 . S
C318 H303 0.959 . S
C318 H304 0.961 . S
C318 C317 1.502 . S
C319 H305 0.960 . S
C319 H306 0.961 . S
C319 H307 0.959 . S
C319 C317 1.561 . S
C320 C317 1.526 . S
C320 C321 1.396 1_565 S
C320 C325 1.390 . S
C321 C315 1.465 . S
C321 C320 1.396 1_545 S
C321 C322 1.399 . S
C322 H308 0.929 . S
C322 C321 1.399 . S
C322 C323 1.385 . S
C323 H309 0.931 . S
C323 C322 1.385 . S
C323 C324 1.389 . S
C324 C323 1.389 . S
C324 C325 1.387 1_545 S
C325 H310 0.930 . S
C325 C320 1.390 . S
C325 C324 1.387 1_565 S
H326 C338 0.930 1_455 S
H327 C340 0.930 . S
H328 C341 0.930 . S
H329 C345 0.959 . S
H330 C345 0.959 . S
H331 C345 0.961 . S
H332 C346 0.960 . S
H333 C346 0.961 . S
H334 C346 0.959 . S
H335 C349 0.929 . S
H336 C350 0.931 . S
H337 C352 0.930 1_455 S
C338 H326 0.930 1_655 S
C338 C339 1.399 . S
C338 C343 1.399 . S
C339 C338 1.399 . S
C339 C340 1.376 . S
C340 H327 0.930 . S
C340 C339 1.376 . S
C340 C341 1.388 . S
C341 H328 0.930 . S
C341 C340 1.388 . S
C341 C342 1.390 . S
C342 C341 1.390 . S
C342 C343 1.394 . S
C342 C348 1.465 . S
C343 C338 1.399 . S
C343 C342 1.394 . S
C343 C344 1.516 . S
C344 C343 1.516 . S
C344 C345 1.502 1_655 S
C344 C346 1.561 . S
C344 C347 1.526 . S
C345 H329 0.959 . S
C345 H330 0.959 . S
C345 H331 0.961 . S
C345 C344 1.502 1_455 S
C346 H332 0.960 . S
C346 H333 0.961 . S
C346 H334 0.959 . S
C346 C344 1.561 . S
C347 C344 1.526 . S
C347 C348 1.396 . S
C347 C352 1.389 . S
C348 C342 1.465 . S
C348 C347 1.396 . S
C348 C349 1.399 . S
C349 H335 0.929 . S
C349 C348 1.399 . S
C349 C350 1.385 . S
C350 H336 0.931 . S
C350 C349 1.385 . S
C350 C351 1.389 . S
C351 C350 1.389 . S
C351 C352 1.387 . S
C352 H337 0.930 1_655 S
C352 C347 1.389 . S
C352 C351 1.387 . S
H353 C365 0.930 . S
H354 C367 0.930 . S
H355 C368 0.930 . S
H356 C372 0.959 . S
H357 C372 0.959 . S
H358 C372 0.961 . S
H359 C373 0.960 . S
H360 C373 0.961 . S
H361 C373 0.959 . S
H362 C376 0.929 . S
H363 C377 0.931 . S
H364 C379 0.930 . S
C365 H353 0.930 . S
C365 C366 1.399 . S
C365 C370 1.399 . S
C366 C365 1.399 . S
C366 C367 1.376 1_545 S
C367 H354 0.930 . S
C367 C366 1.376 1_565 S
C367 C368 1.388 . S
C368 H355 0.930 . S
C368 C367 1.388 . S
C368 C369 1.390 1_565 S
C369 C368 1.390 1_545 S
C369 C370 1.394 . S
C369 C375 1.465 1_545 S
C370 C365 1.399 . S
C370 C369 1.394 . S
C370 C371 1.516 . S
C371 C370 1.516 . S
C371 C372 1.502 . S
C371 C373 1.561 . S
C371 C374 1.526 . S
C372 H356 0.959 . S
C372 H357 0.959 . S
C372 H358 0.961 . S
C372 C371 1.502 . S
C373 H359 0.960 . S
C373 H360 0.961 . S
C373 H361 0.959 . S
C373 C371 1.561 . S
C374 C371 1.526 . S
C374 C375 1.396 1_545 S
C374 C379 1.390 . S
C375 C369 1.465 1_565 S
C375 C374 1.396 1_565 S
C375 C376 1.399 . S
C376 H362 0.929 . S
C376 C375 1.399 . S
C376 C377 1.385 . S
C377 H363 0.931 . S
C377 C376 1.385 . S
C377 C378 1.389 1_565 S
C378 C377 1.389 1_545 S
C378 C379 1.387 . S
C379 H364 0.930 . S
C379 C374 1.390 . S
C379 C378 1.387 . S
H380 C392 0.930 . S
H381 C394 0.930 . S
H382 C395 0.930 . S
H383 C399 0.959 . S
H384 C399 0.959 . S
H385 C399 0.961 . S
H386 C400 0.960 . S
H387 C400 0.961 . S
H388 C400 0.959 . S
H389 C403 0.929 . S
H390 C404 0.931 . S
H391 C406 0.930 . S
C392 H380 0.930 . S
C392 C393 1.399 . S
C392 C397 1.399 . S
C393 C392 1.399 . S
C393 C394 1.376 . S
C394 H381 0.930 . S
C394 C393 1.376 . S
C394 C395 1.388 . S
C395 H382 0.930 . S
C395 C394 1.388 . S
C395 C396 1.390 . S
C396 C395 1.390 . S
C396 C397 1.394 . S
C396 C402 1.465 . S
C397 C392 1.399 . S
C397 C396 1.394 . S
C397 C398 1.516 . S
C398 C397 1.516 . S
C398 C399 1.502 . S
C398 C400 1.561 1_455 S
C398 C401 1.526 . S
C399 H383 0.959 . S
C399 H384 0.959 . S
C399 H385 0.961 . S
C399 C398 1.502 . S
C400 H386 0.960 . S
C400 H387 0.961 . S
C400 H388 0.959 . S
C400 C398 1.561 1_655 S
C401 C398 1.526 . S
C401 C402 1.396 . S
C401 C406 1.390 . S
C402 C396 1.465 . S
C402 C401 1.396 . S
C402 C403 1.399 . S
C403 H389 0.929 . S
C403 C402 1.399 . S
C403 C404 1.385 . S
C404 H390 0.931 . S
C404 C403 1.385 . S
C404 C405 1.389 . S
C405 C404 1.389 . S
C405 C406 1.387 . S
C406 H391 0.930 . S
C406 C401 1.390 . S
C406 C405 1.387 . S
H407 C419 0.930 . S
H408 C421 0.930 . S
H409 C422 0.930 . S
H410 C426 0.959 . S
H411 C426 0.959 . S
H412 C426 0.961 . S
H413 C427 0.960 . S
H414 C427 0.961 . S
H415 C427 0.959 . S
H416 C430 0.929 . S
H417 C431 0.931 . S
H418 C433 0.930 . S
C419 H407 0.930 . S
C419 C420 1.399 . S
C419 C424 1.399 . S
C420 C419 1.399 . S
C420 C421 1.376 1_565 S
C421 H408 0.930 . S
C421 C420 1.376 1_545 S
C421 C422 1.388 . S
C422 H409 0.930 . S
C422 C421 1.388 . S
C422 C423 1.390 . S
C423 C422 1.390 . S
C423 C424 1.394 1_545 S
C423 C429 1.465 . S
C424 C419 1.399 . S
C424 C423 1.394 1_565 S
C424 C425 1.516 . S
C425 C424 1.516 . S
C425 C426 1.502 . S
C425 C427 1.561 . S
C425 C428 1.526 . S
C426 H410 0.959 . S
C426 H411 0.959 . S
C426 H412 0.961 . S
C426 C425 1.502 . S
C427 H413 0.960 . S
C427 H414 0.961 . S
C427 H415 0.959 . S
C427 C425 1.561 . S
C428 C425 1.526 . S
C428 C429 1.396 1_565 S
C428 C433 1.390 . S
C429 C423 1.465 . S
C429 C428 1.396 1_545 S
C429 C430 1.399 . S
C430 H416 0.929 . S
C430 C429 1.399 . S
C430 C431 1.385 . S
C431 H417 0.931 . S
C431 C430 1.385 . S
C431 C432 1.389 . S
C432 C431 1.389 . S
C432 C433 1.387 1_545 S
C433 H418 0.930 . S
C433 C428 1.390 . S
C433 C432 1.387 1_565 S
H434 C446 0.930 . S
H435 C448 0.930 . S
H436 C449 0.928 1_455 S
H437 C453 0.959 . S
H438 C453 0.959 . S
H439 C453 0.961 . S
H440 C454 0.960 . S
H441 C454 0.961 . S
H442 C454 0.959 . S
H443 C457 0.929 . S
H444 C458 0.931 . S
H445 C460 0.930 . S
C446 H434 0.930 . S
C446 C447 1.399 . S
C446 C451 1.399 . S
C447 C446 1.399 . S
C447 C448 1.376 . S
C448 H435 0.930 . S
C448 C447 1.376 . S
C448 C449 1.388 . S
C449 H436 0.928 1_655 S
C449 C448 1.388 . S
C449 C450 1.390 . S
C450 C449 1.390 . S
C450 C451 1.394 . S
C450 C456 1.465 1_655 S
C451 C446 1.399 . S
C451 C450 1.394 . S
C451 C452 1.516 . S
C452 C451 1.516 . S
C452 C453 1.502 . S
C452 C454 1.561 1_655 S
C452 C455 1.526 . S
C453 H437 0.959 . S
C453 H438 0.959 . S
C453 H439 0.961 . S
C453 C452 1.502 . S
C454 H440 0.960 . S
C454 H441 0.961 . S
C454 H442 0.959 . S
C454 C452 1.561 1_455 S
C455 C452 1.526 . S
C455 C456 1.396 1_655 S
C455 C460 1.390 . S
C456 C450 1.465 1_455 S
C456 C455 1.396 1_455 S
C456 C457 1.399 . S
C457 H443 0.929 . S
C457 C456 1.399 . S
C457 C458 1.385 . S
C458 H444 0.931 . S
C458 C457 1.385 . S
C458 C459 1.389 . S
C459 C458 1.389 . S
C459 C460 1.386 1_455 S
C460 H445 0.930 . S
C460 C455 1.390 . S
C460 C459 1.386 1_655 S
H461 C473 0.930 . S
H462 C475 0.930 . S
H463 C476 0.930 . S
H464 C480 0.959 . S
H465 C480 0.959 . S
H466 C480 0.961 . S
H467 C481 0.960 . S
H468 C481 0.961 . S
H469 C481 0.959 . S
H470 C484 0.929 . S
H471 C485 0.931 . S
H472 C487 0.930 . S
C473 H461 0.930 . S
C473 C474 1.399 1_565 S
C473 C478 1.399 . S
C474 C473 1.399 1_545 S
C474 C475 1.376 . S
C475 H462 0.930 . S
C475 C474 1.376 . S
C475 C476 1.388 . S
C476 H463 0.930 . S
C476 C475 1.388 . S
C476 C477 1.390 . S
C477 C476 1.390 . S
C477 C478 1.394 1_545 S
C477 C483 1.465 . S
C478 C473 1.399 . S
C478 C477 1.394 1_565 S
C478 C479 1.516 . S
C479 C478 1.516 . S
C479 C480 1.502 . S
C479 C481 1.561 . S
C479 C482 1.526 . S
C480 H464 0.959 . S
C480 H465 0.959 . S
C480 H466 0.961 . S
C480 C479 1.502 . S
C481 H467 0.960 . S
C481 H468 0.961 . S
C481 H469 0.959 . S
C481 C479 1.561 . S
C482 C479 1.526 . S
C482 C483 1.396 1_565 S
C482 C487 1.390 . S
C483 C477 1.465 . S
C483 C482 1.396 1_545 S
C483 C484 1.399 . S
C484 H470 0.929 . S
C484 C483 1.399 . S
C484 C485 1.385 . S
C485 H471 0.931 . S
C485 C484 1.385 . S
C485 C486 1.389 . S
C486 C485 1.389 . S
C486 C487 1.387 1_545 S
C487 H472 0.930 . S
C487 C482 1.390 . S
C487 C486 1.387 1_565 S
H488 C500 0.930 . S
H489 C502 0.930 . S
H490 C503 0.930 . S
H491 C507 0.959 . S
H492 C507 0.959 . S
H493 C507 0.961 . S
H494 C508 0.960 . S
H495 C508 0.961 . S
H496 C508 0.959 . S
H497 C511 0.929 . S
H498 C512 0.931 . S
H499 C514 0.930 . S
C500 H488 0.930 . S
C500 C501 1.399 1_554 S
C500 C505 1.399 . S
C501 C500 1.399 1_556 S
C501 C502 1.376 . S
C502 H489 0.930 . S
C502 C501 1.376 . S
C502 C503 1.388 . S
C503 H490 0.930 . S
C503 C502 1.388 . S
C503 C504 1.390 . S
C504 C503 1.390 . S
C504 C505 1.394 1_556 S
C504 C510 1.465 . S
C505 C500 1.399 . S
C505 C504 1.394 1_554 S
C505 C506 1.516 . S
C506 C505 1.516 . S
C506 C507 1.502 . S
C506 C508 1.561 . S
C506 C509 1.526 . S
C507 H491 0.959 . S
C507 H492 0.959 . S
C507 H493 0.961 . S
C507 C506 1.502 . S
C508 H494 0.960 . S
C508 H495 0.961 . S
C508 H496 0.959 . S
C508 C506 1.561 . S
C509 C506 1.526 . S
C509 C510 1.396 1_554 S
C509 C514 1.390 . S
C510 C504 1.465 . S
C510 C509 1.396 1_556 S
C510 C511 1.399 . S
C511 H497 0.929 . S
C511 C510 1.399 . S
C511 C512 1.385 . S
C512 H498 0.931 . S
C512 C511 1.385 . S
C512 C513 1.389 . S
C513 C512 1.389 . S
C513 C514 1.387 1_556 S
C514 H499 0.930 . S
C514 C509 1.390 . S
C514 C513 1.387 1_554 S
H515 C527 0.930 . S
H516 C529 0.930 . S
H517 C530 0.930 . S
H518 C534 0.959 . S
H519 C534 0.959 . S
H520 C534 0.961 . S
H521 C535 0.960 . S
H522 C535 0.961 . S
H523 C535 0.959 . S
H524 C538 0.929 . S
H525 C539 0.931 . S
H526 C541 0.930 . S
C527 H515 0.930 . S
C527 C528 1.399 . S
C527 C532 1.399 . S
C528 C527 1.399 . S
C528 C529 1.376 1_554 S
C529 H516 0.930 . S
C529 C528 1.376 1_556 S
C529 C530 1.388 . S
C530 H517 0.930 . S
C530 C529 1.388 . S
C530 C531 1.390 . S
C531 C530 1.390 . S
C531 C532 1.394 1_556 S
C531 C537 1.465 . S
C532 C527 1.399 . S
C532 C531 1.394 1_554 S
C532 C533 1.516 . S
C533 C532 1.516 . S
C533 C534 1.502 . S
C533 C535 1.561 . S
C533 C536 1.526 . S
C534 H518 0.959 . S
C534 H519 0.959 . S
C534 H520 0.961 . S
C534 C533 1.502 . S
C535 H521 0.960 . S
C535 H522 0.961 . S
C535 H523 0.959 . S
C535 C533 1.561 . S
C536 C533 1.526 . S
C536 C537 1.396 1_554 S
C536 C541 1.390 . S
C537 C531 1.465 . S
C537 C536 1.396 1_556 S
C537 C538 1.399 . S
C538 H524 0.929 . S
C538 C537 1.399 . S
C538 C539 1.385 . S
C539 H525 0.931 . S
C539 C538 1.385 . S
C539 C540 1.389 . S
C540 C539 1.389 . S
C540 C541 1.387 1_556 S
C541 H526 0.930 . S
C541 C536 1.390 . S
C541 C540 1.387 1_554 S
H542 C554 0.930 . S
H543 C556 0.930 . S
H544 C557 0.930 . S
H545 C561 0.959 . S
H546 C561 0.959 . S
H547 C561 0.961 . S
H548 C562 0.960 . S
H549 C562 0.961 . S
H550 C562 0.959 . S
H551 C565 0.929 . S
H552 C566 0.931 . S
H553 C568 0.930 . S
C554 H542 0.930 . S
C554 C555 1.399 . S
C554 C559 1.399 . S
C555 C554 1.399 . S
C555 C556 1.376 1_554 S
C556 H543 0.930 . S
C556 C555 1.376 1_556 S
C556 C557 1.388 . S
C557 H544 0.930 . S
C557 C556 1.388 . S
C557 C558 1.390 . S
C558 C557 1.390 . S
C558 C559 1.394 1_556 S
C558 C564 1.465 . S
C559 C554 1.399 . S
C559 C558 1.394 1_554 S
C559 C560 1.516 . S
C560 C559 1.516 . S
C560 C561 1.502 . S
C560 C562 1.561 . S
C560 C563 1.526 . S
C561 H545 0.959 . S
C561 H546 0.959 . S
C561 H547 0.961 . S
C561 C560 1.502 . S
C562 H548 0.960 . S
C562 H549 0.961 . S
C562 H550 0.959 . S
C562 C560 1.561 . S
C563 C560 1.526 . S
C563 C564 1.396 1_554 S
C563 C568 1.390 . S
C564 C558 1.465 . S
C564 C563 1.396 1_556 S
C564 C565 1.399 . S
C565 H551 0.929 . S
C565 C564 1.399 . S
C565 C566 1.385 . S
C566 H552 0.931 . S
C566 C565 1.385 . S
C566 C567 1.372 1_556 S
C567 C566 1.372 1_554 S
C567 C568 1.402 . S
C568 H553 0.930 . S
C568 C563 1.390 . S
C568 C567 1.402 . S
H569 C581 0.930 . S
H570 C583 0.930 . S
H571 C584 0.930 . S
H572 C588 0.959 . S
H573 C588 0.959 . S
H574 C588 0.961 . S
H575 C589 0.960 . S
H576 C589 0.961 . S
H577 C589 0.959 . S
H578 C592 0.929 . S
H579 C593 0.931 . S
H580 C595 0.930 . S
C581 H569 0.930 . S
C581 C582 1.399 1_554 S
C581 C586 1.399 . S
C582 C581 1.399 1_556 S
C582 C583 1.376 . S
C583 H570 0.930 . S
C583 C582 1.376 . S
C583 C584 1.388 . S
C584 H571 0.930 . S
C584 C583 1.388 . S
C584 C585 1.390 . S
C585 C584 1.390 . S
C585 C586 1.394 1_556 S
C585 C591 1.465 . S
C586 C581 1.399 . S
C586 C585 1.394 1_554 S
C586 C587 1.516 . S
C587 C586 1.516 . S
C587 C588 1.502 . S
C587 C589 1.561 . S
C587 C590 1.526 . S
C588 H572 0.959 . S
C588 H573 0.959 . S
C588 H574 0.961 . S
C588 C587 1.502 . S
C589 H575 0.960 . S
C589 H576 0.961 . S
C589 H577 0.959 . S
C589 C587 1.561 . S
C590 C587 1.526 . S
C590 C591 1.396 1_554 S
C590 C595 1.390 . S
C591 C585 1.465 . S
C591 C590 1.396 1_556 S
C591 C592 1.399 . S
C592 H578 0.929 . S
C592 C591 1.399 . S
C592 C593 1.385 . S
C593 H579 0.931 . S
C593 C592 1.385 . S
C593 C594 1.389 . S
C594 C593 1.389 . S
C594 C595 1.387 1_556 S
C595 H580 0.930 . S
C595 C590 1.390 . S
C595 C594 1.387 1_554 S
C297 C223 1.722 . S
C285 C39 1.569 . S
C324 C230 1.728 . S
C312 C113 1.574 . S
C351 C225 2.071 . S
C339 C69 2.066 . S
C378 C231 0.826 . S
C366 C125 0.799 . S
C393 C63 1.516 . S
C405 C224 1.680 . S
C432 C233 1.680 . S
C420 C137 1.577 . S
C447 C51 0.795 . S
C459 C222 0.821 . S
C474 C143 2.088 . S
C486 C232 2.084 . S
C501 C187 1.641 . S
C513 C227 1.705 1_556 S
C528 C217 2.064 . S
C540 C226 2.085 . S
C567 C229 0.824 . S
C555 C199 0.793 . S
C594 C228 1.678 1_556 S
C582 C211 1.541 . S
