# Generated by pormake.
# Topology cml, (3,6)-cn, num edge types: 1
# Building blocks:
#     Node 0, Type 0, BuildingBlock: BETDIP_clean_linker_0, # of connection points: 3
#     Node 1, Type 0, BuildingBlock: BETDIP_clean_linker_0, # of connection points: 3
#     Node 2, Type 0, BuildingBlock: BETDIP_clean_linker_0, # of connection points: 3
#     Node 3, Type 0, BuildingBlock: BETDIP_clean_linker_0, # of connection points: 3
#     Node 4, Type 0, BuildingBlock: BETDIP_clean_linker_0, # of connection points: 3
#     Node 5, Type 0, BuildingBlock: BETDIP_clean_linker_0, # of connection points: 3
#     Node 6, Type 0, BuildingBlock: BETDIP_clean_linker_0, # of connection points: 3
#     Node 7, Type 0, BuildingBlock: BETDIP_clean_linker_0, # of connection points: 3
#     Node 8, Type 1, BuildingBlock: OJICUG_clean_sbu_0, # of connection points: 6
#     Node 9, Type 1, BuildingBlock: OJICUG_clean_sbu_0, # of connection points: 6
#     Node 10, Type 1, BuildingBlock: OJICUG_clean_sbu_0, # of connection points: 6
#     Node 11, Type 1, BuildingBlock: OJICUG_clean_sbu_0, # of connection points: 6
#     Edge 12, Type (0, 1), BuildingBlock: ZUJKAS_clean_linker_0, # of connection points: 2
#     Edge 13, Type (0, 1), BuildingBlock: ZUJKAS_clean_linker_0, # of connection points: 2
#     Edge 14, Type (0, 1), BuildingBlock: ZUJKAS_clean_linker_0, # of connection points: 2
#     Edge 15, Type (0, 1), BuildingBlock: ZUJKAS_clean_linker_0, # of connection points: 2
#     Edge 16, Type (0, 1), BuildingBlock: ZUJKAS_clean_linker_0, # of connection points: 2
#     Edge 17, Type (0, 1), BuildingBlock: ZUJKAS_clean_linker_0, # of connection points: 2
#     Edge 18, Type (0, 1), BuildingBlock: ZUJKAS_clean_linker_0, # of connection points: 2
#     Edge 19, Type (0, 1), BuildingBlock: ZUJKAS_clean_linker_0, # of connection points: 2
#     Edge 20, Type (0, 1), BuildingBlock: ZUJKAS_clean_linker_0, # of connection points: 2
#     Edge 21, Type (0, 1), BuildingBlock: ZUJKAS_clean_linker_0, # of connection points: 2
#     Edge 22, Type (0, 1), BuildingBlock: ZUJKAS_clean_linker_0, # of connection points: 2
#     Edge 23, Type (0, 1), BuildingBlock: ZUJKAS_clean_linker_0, # of connection points: 2
#     Edge 24, Type (0, 1), BuildingBlock: ZUJKAS_clean_linker_0, # of connection points: 2
#     Edge 25, Type (0, 1), BuildingBlock: ZUJKAS_clean_linker_0, # of connection points: 2
#     Edge 26, Type (0, 1), BuildingBlock: ZUJKAS_clean_linker_0, # of connection points: 2
#     Edge 27, Type (0, 1), BuildingBlock: ZUJKAS_clean_linker_0, # of connection points: 2
#     Edge 28, Type (0, 1), BuildingBlock: ZUJKAS_clean_linker_0, # of connection points: 2
#     Edge 29, Type (0, 1), BuildingBlock: ZUJKAS_clean_linker_0, # of connection points: 2
#     Edge 30, Type (0, 1), BuildingBlock: ZUJKAS_clean_linker_0, # of connection points: 2
#     Edge 31, Type (0, 1), BuildingBlock: ZUJKAS_clean_linker_0, # of connection points: 2
#     Edge 32, Type (0, 1), BuildingBlock: ZUJKAS_clean_linker_0, # of connection points: 2
#     Edge 33, Type (0, 1), BuildingBlock: ZUJKAS_clean_linker_0, # of connection points: 2
#     Edge 34, Type (0, 1), BuildingBlock: ZUJKAS_clean_linker_0, # of connection points: 2
#     Edge 35, Type (0, 1), BuildingBlock: ZUJKAS_clean_linker_0, # of connection points: 2
# Relax obj value: 0.006
# Max RMSD: 0.053
# Mean RMSD: 0.045
data_MOF--net-cml--node1-OJICUG_clean_sbu_0--node2-BETDIP_clean_linker_0--edge1-ZUJKAS_clean_linker_0
_symmetry_space_group_name_H-M    P1
_symmetry_Int_Tables_number       1
_symmetry_cell_setting            triclinic
loop_
_symmetry_equiv_pos_as_xyz
'x, y, z'
_cell_length_a     52.59579
_cell_length_b     50.920384
_cell_length_c     45.97742
_cell_angle_alpha  90.011348
_cell_angle_beta   89.967543
_cell_angle_gamma 90.054655
loop_
_atom_site_label
_atom_site_type_symbol
_atom_site_fract_x
_atom_site_fract_y
_atom_site_fract_z
_atom_type_partial_charge
H0 H 0.25509 0.35819 0.04544 0.0
H1 H 0.25995 0.4033 0.96666 0.0
H2 H 0.31135 0.41901 0.03729 0.0
H3 H 0.21454 0.39383 0.96882 0.0
C4 C 0.2167 0.37294 0.97303 0.0
C5 C 0.26386 0.37388 0.03305 0.0
C6 C 0.2841 0.38822 0.04495 0.0
C7 C 0.25455 0.3798 0.00531 0.0
C8 C 0.2662 0.39969 0.98874 0.0
C9 C 0.28706 0.41367 -1e-05 0.0
C10 C 0.29539 0.40821 0.02838 0.0
N11 N 0.2346 0.36416 0.99393 0.0
H12 H 0.7411 0.63728 0.54661 0.0
H13 H 0.74009 0.59392 0.46596 0.0
H14 H 0.6747 0.59358 0.52156 0.0
H15 H 0.78137 0.60188 0.46478 0.0
C16 C 0.78439 0.62009 0.47653 0.0
C17 C 0.73145 0.62436 0.53146 0.0
C18 C 0.70637 0.61646 0.53701 0.0
C19 C 0.74391 0.61646 0.50595 0.0
C20 C 0.73118 0.59992 0.48607 0.0
C21 C 0.70614 0.59178 0.4916 0.0
C22 C 0.69391 0.60019 0.51701 0.0
N23 N 0.7684 0.62709 0.50021 0.0
H24 H 0.74492 0.37243 0.04744 0.0
H25 H 0.74405 0.41838 0.9688 0.0
H26 H 0.69095 0.43504 0.03702 0.0
H27 H 0.78166 0.40111 0.96071 0.0
C28 C 0.78229 0.38224 0.97162 0.0
C29 C 0.73724 0.38852 0.03478 0.0
C30 C 0.71708 0.40353 0.04587 0.0
C31 C 0.74752 0.39396 0.00731 0.0
C32 C 0.73708 0.41442 0.99047 0.0
C33 C 0.71693 0.42962 0.00133 0.0
C34 C 0.70724 0.42415 0.02909 0.0
N35 N 0.76734 0.3775 0.99684 0.0
H36 H 0.24971 0.62391 0.5518 0.0
H37 H 0.25059 0.57348 0.47669 0.0
H38 H 0.30662 0.56379 0.54341 0.0
H39 H 0.22764 0.60358 0.45616 0.0
C40 C 0.21924 0.61652 0.47222 0.0
C41 C 0.258 0.60764 0.53991 0.0
C42 C 0.27902 0.59421 0.55134 0.0
C43 C 0.24789 0.60081 0.51278 0.0
C44 C 0.25849 0.57962 0.49728 0.0
C45 C 0.27956 0.566 0.50837 0.0
C46 C 0.28963 0.5734 0.53541 0.0
N47 N 0.22771 0.61634 0.50157 0.0
H48 H 0.75921 0.85679 0.04802 0.0
H49 H 0.76081 0.90219 0.96929 0.0
H50 H 0.81563 0.91709 0.03666 0.0
H51 H 0.71561 0.89322 0.97408 0.0
C52 C 0.71786 0.87228 0.97783 0.0
C53 C 0.76758 0.87241 0.03516 0.0
C54 C 0.78849 0.88652 0.04587 0.0
C55 C 0.75705 0.87853 0.00805 0.0
C56 C 0.76807 0.8984 0.99092 0.0
C57 C 0.78952 0.91215 0.00093 0.0
C58 C 0.79919 0.90645 0.0287 0.0
N59 N 0.73644 0.86316 -0.00222 0.0
H60 H 0.24154 0.13859 0.54755 0.0
H61 H 0.23776 0.0948 0.46766 0.0
H62 H 0.18657 0.07675 0.53783 0.0
H63 H 0.28341 0.10372 0.47174 0.0
C64 C 0.28113 0.12463 0.47569 0.0
C65 C 0.23316 0.12295 0.53473 0.0
C66 C 0.21322 0.10789 0.54622 0.0
C67 C 0.24271 0.11764 0.5069 0.0
C68 C 0.23138 0.0979 0.48979 0.0
C69 C 0.21068 0.08341 0.50062 0.0
C70 C 0.20232 0.08806 0.52915 0.0
N71 N 0.26272 0.13351 0.496 0.0
H72 H 0.24886 0.87098 0.04985 0.0
H73 H 0.23657 0.91236 0.96946 0.0
H74 H 0.18693 0.92549 0.04203 0.0
H75 H 0.27425 0.89751 0.95679 0.0
C76 C 0.27851 0.8803 0.96979 0.0
C77 C 0.23829 0.88528 0.03728 0.0
C78 C 0.21703 0.8977 0.04948 0.0
C79 C 0.24591 0.89077 0.00873 0.0
C80 C 0.2318 0.9088 0.99198 0.0
C81 C 0.21042 0.92139 0.0039 0.0
C82 C 0.20351 0.91601 0.03279 0.0
N83 N 0.26679 0.8764 0.9973 0.0
H84 H 0.75653 0.13139 0.5409 0.0
H85 H 0.75609 0.0818 0.46503 0.0
H86 H 0.80906 0.06707 0.53385 0.0
H87 H 0.73742 0.11476 0.44382 0.0
C88 C 0.72804 0.12689 0.45996 0.0
C89 C 0.76395 0.11466 0.52905 0.0
C90 C 0.78346 0.09939 0.54114 0.0
C91 C 0.75423 0.10889 0.50141 0.0
C92 C 0.76379 0.08712 0.48599 0.0
C93 C 0.7835 0.07184 0.49766 0.0
C94 C 0.7931 0.07806 0.52527 0.0
N95 N 0.73531 0.12578 0.48971 0.0
Sc96 Sc 0.00362 0.81987 0.31362 0.0
Sc97 Sc 0.00234 0.88899 0.31462 0.0
Sc98 Sc 0.00308 0.8538 0.38062 0.0
O99 O 0.00299 0.85419 0.33632 0.0
C100 C 0.96613 0.8057 0.36599 0.0
C101 C 0.96467 0.85409 0.27626 0.0
C102 C 0.96388 0.90005 0.36695 0.0
C103 C 0.04141 0.85566 0.27646 0.0
C104 C 0.04181 0.80745 0.3658 0.0
C105 C 0.04046 0.90172 0.36672 0.0
O106 O 0.9747 0.80222 0.34041 0.0
O107 O 0.97309 0.87603 0.28526 0.0
O108 O 0.97298 0.88237 0.38347 0.0
O109 O 0.03299 0.83343 0.28455 0.0
O110 O 0.03299 0.82495 0.38277 0.0
O111 O 0.03161 0.90579 0.34142 0.0
O112 O 0.03315 0.80355 0.34036 0.0
O113 O 0.03203 0.87722 0.28528 0.0
O114 O 0.03192 0.88391 0.3835 0.0
O115 O 0.97389 0.83222 0.28441 0.0
O116 O 0.97442 0.82357 0.38286 0.0
O117 O 0.97265 0.90472 0.34171 0.0
Sc118 Sc 0.99601 0.17473 0.81092 0.0
Sc119 Sc 0.99552 0.10571 0.81405 0.0
Sc120 Sc 0.99334 0.14244 0.87893 0.0
O121 O 0.99496 0.14099 0.83467 0.0
C122 C 0.03205 0.18912 0.86414 0.0
C123 C 0.03501 0.13842 0.77595 0.0
C124 C 0.03213 0.09526 0.86828 0.0
C125 C 0.95845 0.13921 0.77335 0.0
C126 C 0.95646 0.18938 0.86145 0.0
C127 C 0.95566 0.09478 0.86484 0.0
O128 O 0.02547 0.19136 0.83766 0.0
O129 O 0.02631 0.117 0.78602 0.0
O130 O 0.02329 0.11379 0.88387 0.0
O131 O 0.96653 0.16153 0.78167 0.0
O132 O 0.96342 0.17125 0.87871 0.0
O133 O 0.96471 0.09038 0.83969 0.0
O134 O 0.96681 0.19314 0.83678 0.0
O135 O 0.96755 0.11771 0.78275 0.0
O136 O 0.96443 0.11243 0.88164 0.0
O137 O 0.02561 0.16065 0.78241 0.0
O138 O 0.02175 0.17295 0.88164 0.0
O139 O 0.02364 0.08992 0.84309 0.0
Sc140 Sc 0.50056 0.32355 0.3097 0.0
Sc141 Sc 0.49729 0.39255 0.31311 0.0
Sc142 Sc 0.50214 0.35566 0.37773 0.0
O143 O 0.49999 0.35723 0.33354 0.0
C144 C 0.46557 0.30717 0.36327 0.0
C145 C 0.45958 0.35756 0.27503 0.0
C146 C 0.4607 0.40064 0.3678 0.0
C147 C 0.5361 0.36142 0.27218 0.0
C148 C 0.54118 0.31085 0.35958 0.0
C149 C 0.53688 0.40562 0.36364 0.0
O150 O 0.4723 0.30511 0.33681 0.0
O151 O 0.46734 0.37949 0.28477 0.0
O152 O 0.47106 0.38285 0.38318 0.0
O153 O 0.52893 0.33866 0.28017 0.0
O154 O 0.53318 0.32822 0.37718 0.0
O155 O 0.52684 0.41 0.339 0.0
O156 O 0.53108 0.30685 0.33485 0.0
O157 O 0.52613 0.38241 0.2819 0.0
O158 O 0.52986 0.38685 0.38003 0.0
O159 O 0.46995 0.33588 0.28177 0.0
O160 O 0.47502 0.32399 0.38065 0.0
O161 O 0.46825 0.40635 0.34229 0.0
Sc162 Sc 0.4966 0.67638 0.81213 0.0
Sc163 Sc 0.49656 0.60733 0.81457 0.0
Sc164 Sc 0.49469 0.64366 0.87977 0.0
O165 O 0.49596 0.64247 0.83551 0.0
C166 C 0.53291 0.69081 0.8649 0.0
C167 C 0.53516 0.64057 0.77589 0.0
C168 C 0.53397 0.5971 0.8682 0.0
C169 C 0.45859 0.641 0.7751 0.0
C170 C 0.45733 0.6903 0.86325 0.0
C171 C 0.45749 0.5955 0.86583 0.0
O172 O 0.52655 0.69283 0.83832 0.0
O173 O 0.52706 0.61897 0.78618 0.0
O174 O 0.52534 0.61571 0.88382 0.0
O175 O 0.46659 0.66328 0.78367 0.0
O176 O 0.46416 0.67182 0.88012 0.0
O177 O 0.46608 0.59159 0.84038 0.0
O178 O 0.46787 0.69454 0.83879 0.0
O179 O 0.46813 0.61945 0.78377 0.0
O180 O 0.46644 0.61297 0.88273 0.0
O181 O 0.52552 0.66261 0.78265 0.0
O182 O 0.52247 0.67475 0.88242 0.0
O183 O 0.52497 0.5915 0.84329 0.0
H184 H 0.16908 0.38355 0.95361 0.0
H185 H 0.13731 0.35211 0.93588 0.0
H186 H 0.19176 0.28928 0.94519 0.0
H187 H 0.22286 0.32036 0.96454 0.0
H188 H 0.13443 0.32208 0.89123 0.0
H189 H 0.13427 0.25755 0.98785 0.0
H190 H 0.1506 0.28867 0.98744 0.0
H191 H 0.16546 0.25979 0.97241 0.0
C192 C 0.1741 0.36297 0.95199 0.0
C193 C 0.19815 0.35423 0.96084 0.0
C194 C 0.15601 0.34503 0.94186 0.0
C195 C 0.16187 0.31815 0.93993 0.0
C196 C 0.18639 0.30968 0.94756 0.0
H197 H 0.07282 0.20913 0.83487 0.0
H198 H 0.10473 0.23994 0.85322 0.0
C199 C 0.20423 0.32749 0.95837 0.0
C200 C 0.14253 0.29909 0.92945 0.0
H201 H 0.11457 0.24025 0.94513 0.0
C202 C 0.12993 0.30429 0.90316 0.0
C203 C 0.13624 0.27609 0.94525 0.0
C204 C 0.14716 0.27035 0.97494 0.0
C205 C 0.1115 0.28705 0.89205 0.0
C206 C 0.10637 0.26327 0.90696 0.0
C207 C 0.11875 0.25824 0.93343 0.0
C208 C 0.08777 0.24365 0.896 0.0
C209 C 0.09729 0.29499 0.86493 0.0
C210 C 0.06843 0.23427 0.91437 0.0
C211 C 0.05075 0.21596 0.90423 0.0
C212 C 0.05182 0.207 0.87537 0.0
C213 C 0.07138 0.21602 0.85711 0.0
C214 C 0.08946 0.23382 0.8675 0.0
H215 H 0.09724 0.31666 0.86209 0.0
H216 H 0.10683 0.28636 0.84564 0.0
H217 H 0.07728 0.28804 0.86546 0.0
H218 H 0.06676 0.24141 0.93649 0.0
H219 H 0.0358 0.2094 0.91873 0.0
H220 H 0.79971 0.66646 0.50153 0.0
H221 H 0.83094 0.69766 0.48248 0.0
H222 H 0.84528 0.6464 0.40963 0.0
H223 H 0.81394 0.61501 0.42857 0.0
H224 H 0.88436 0.68854 0.46797 0.0
H225 H 0.82551 0.71896 0.37331 0.0
H226 H 0.81224 0.70234 0.40454 0.0
H227 H 0.82996 0.68419 0.3779 0.0
C228 C 0.80956 0.66175 0.48152 0.0
C229 C 0.80433 0.63837 0.46637 0.0
C230 C 0.8274 0.67959 0.4707 0.0
C231 C 0.84009 0.67444 0.44449 0.0
C232 C 0.83536 0.65085 0.42969 0.0
H233 H 0.94726 0.76172 0.3393 0.0
H234 H 0.91682 0.73011 0.35887 0.0
C235 C 0.81761 0.63292 0.44057 0.0
C236 C 0.85814 0.69392 0.43257 0.0
H237 H 0.86706 0.73643 0.3761 0.0
C238 C 0.88062 0.69908 0.44793 0.0
C239 C 0.8531 0.70754 0.40642 0.0
C240 C 0.82882 0.70322 0.3896 0.0
C241 C 0.8985 0.71728 0.43753 0.0
C242 C 0.89339 0.73106 0.41145 0.0
C243 C 0.87088 0.72585 0.39611 0.0
C244 C 0.9113 0.75075 0.39951 0.0
C245 C 0.92294 0.72109 0.45419 0.0
C246 C 0.91784 0.77315 0.41563 0.0
C247 C 0.93534 0.79126 0.40458 0.0
C248 C 0.94643 0.78741 0.37705 0.0
C249 C 0.93918 0.76532 0.3606 0.0
C250 C 0.92178 0.74719 0.37174 0.0
H251 H 0.92688 0.7043 0.46893 0.0
H252 H 0.93932 0.72352 0.43918 0.0
H253 H 0.92142 0.73907 0.46771 0.0
H254 H 0.90948 0.7766 0.43682 0.0
H255 H 0.94028 0.80815 0.41774 0.0
H256 H 0.81114 0.38492 0.92294 0.0
H257 H 0.8391 0.35098 0.90277 0.0
H258 H 0.8203 0.29977 0.97437 0.0
H259 H 0.792 0.33333 0.99428 0.0
H260 H 0.88112 0.32815 0.92755 0.0
H261 H 0.80768 0.25269 0.90441 0.0
H262 H 0.79979 0.28639 0.91254 0.0
H263 H 0.80764 0.26398 0.94139 0.0
C264 C 0.81293 0.36635 0.93426 0.0
C265 C 0.79935 0.3617 0.96003 0.0
C266 C 0.82886 0.34702 0.92275 0.0
C267 C 0.83141 0.3227 0.93681 0.0
C268 C 0.81812 0.31815 0.9628 0.0
H269 H 0.92781 0.18699 0.91125 0.0
H270 H 0.89691 0.21921 0.9287 0.0
C271 C 0.8021 0.33744 0.97426 0.0
C272 C 0.84867 0.30246 0.92477 0.0
H273 H 0.85085 0.23917 0.90022 0.0
C274 C 0.87448 0.30876 0.92138 0.0
C275 C 0.83992 0.27716 0.9168 0.0
C276 C 0.81221 0.26967 0.91869 0.0
C277 C 0.8919 0.29029 0.91071 0.0
C278 C 0.88318 0.26498 0.90293 0.0
C279 C 0.8574 0.25863 0.90627 0.0
C280 C 0.9007 0.24482 0.89144 0.0
C281 C 0.9196 0.29777 0.90837 0.0
C282 C 0.91253 0.24832 0.86439 0.0
C283 C 0.93015 0.22996 0.85428 0.0
C284 C 0.93627 0.20773 0.87109 0.0
C285 C 0.9237 0.20392 0.89781 0.0
C286 C 0.90601 0.22228 0.90783 0.0
H287 H 0.92401 0.31591 0.92083 0.0
H288 H 0.93193 0.28164 0.9164 0.0
H289 H 0.92441 0.30134 0.8852 0.0
H290 H 0.90836 0.26545 0.85127 0.0
H291 H 0.93934 0.2335 0.83356 0.0
H292 H 0.20171 0.62325 0.41742 0.0
H293 H 0.17241 0.6571 0.39977 0.0
H294 H 0.166 0.68831 0.48668 0.0
H295 H 0.19536 0.65472 0.50443 0.0
H296 H 0.12185 0.667 0.41861 0.0
H297 H 0.1853 0.75281 0.43679 0.0
H298 H 0.19691 0.71945 0.43625 0.0
H299 H 0.18074 0.73186 0.46781 0.0
C300 C 0.19402 0.63735 0.43272 0.0
C301 C 0.20086 0.63646 0.4622 0.0
C302 C 0.17735 0.65663 0.42263 0.0
C303 C 0.16742 0.6754 0.44186 0.0
C304 C 0.17389 0.67429 0.47142 0.0
H305 H 0.06167 0.80471 0.42087 0.0
H306 H 0.09258 0.77295 0.43929 0.0
C307 C 0.19054 0.65499 0.48154 0.0
C308 C 0.14982 0.69576 0.43103 0.0
H309 H 0.14306 0.76194 0.4221 0.0
C310 C 0.12648 0.68775 0.41926 0.0
C311 C 0.15597 0.72279 0.43208 0.0
C312 C 0.18117 0.73234 0.44369 0.0
C313 C 0.10891 0.70613 0.40877 0.0
C314 C 0.11514 0.73315 0.40957 0.0
C315 C 0.13842 0.74119 0.4215 0.0
C316 C 0.09769 0.75332 0.39798 0.0
C317 C 0.08364 0.69649 0.39744 0.0
C318 C 0.09096 0.75322 0.36848 0.0
C319 C 0.07329 0.77124 0.35788 0.0
C320 C 0.06215 0.78987 0.37656 0.0
C321 C 0.06978 0.79059 0.40589 0.0
C322 C 0.08743 0.77246 0.41648 0.0
H323 H 0.07925 0.67634 0.40524 0.0
H324 H 0.06798 0.7098 0.40416 0.0
H325 H 0.08421 0.696 0.37332 0.0
H326 H 0.09915 0.73895 0.35373 0.0
H327 H 0.06811 0.77028 0.33511 0.0
H328 H 0.67019 0.88325 0.95895 0.0
H329 H 0.63838 0.85222 0.94043 0.0
H330 H 0.69271 0.78912 0.94837 0.0
H331 H 0.72385 0.81976 0.96847 0.0
H332 H 0.63582 0.82313 0.89486 0.0
H333 H 0.63489 0.75668 0.98988 0.0
H334 H 0.65127 0.78776 0.99037 0.0
H335 H 0.66617 0.75918 0.97471 0.0
C336 C 0.67516 0.86268 0.95691 0.0
C337 C 0.6992 0.85375 0.96555 0.0
C338 C 0.65705 0.84499 0.9463 0.0
C339 C 0.6629 0.81815 0.9437 0.0
C340 C 0.68737 0.80948 0.95122 0.0
H341 H 0.57367 0.71125 0.83588 0.0
H342 H 0.60565 0.74173 0.85478 0.0
C343 C 0.70523 0.82704 0.96249 0.0
C344 C 0.64358 0.79937 0.93259 0.0
H345 H 0.61525 0.7404 0.94667 0.0
C346 C 0.63116 0.80514 0.90632 0.0
C347 C 0.63711 0.7761 0.94778 0.0
C348 C 0.64786 0.76972 0.97739 0.0
C349 C 0.61272 0.78822 0.89467 0.0
C350 C 0.60736 0.76421 0.909 0.0
C351 C 0.61959 0.75859 0.93542 0.0
C352 C 0.58861 0.74497 0.89756 0.0
C353 C 0.59873 0.79672 0.86761 0.0
C354 C 0.56914 0.73553 0.9157 0.0
C355 C 0.55142 0.71742 0.90525 0.0
C356 C 0.55257 0.70874 0.87628 0.0
C357 C 0.57218 0.71792 0.8582 0.0
C358 C 0.59031 0.73553 0.8689 0.0
H359 H 0.5989 0.81844 0.86517 0.0
H360 H 0.60827 0.78828 0.84823 0.0
H361 H 0.57865 0.78998 0.86789 0.0
H362 H 0.56745 0.7424 0.93792 0.0
H363 H 0.53642 0.71075 0.91962 0.0
H364 H 0.32882 0.11373 0.45684 0.0
H365 H 0.36071 0.14477 0.43858 0.0
H366 H 0.30645 0.20793 0.44676 0.0
H367 H 0.27522 0.17724 0.46668 0.0
H368 H 0.3636 0.17379 0.3933 0.0
H369 H 0.36413 0.24044 0.48816 0.0
H370 H 0.34765 0.20941 0.48863 0.0
H371 H 0.33292 0.23802 0.47284 0.0
C372 C 0.32388 0.13431 0.45491 0.0
C373 C 0.29983 0.14324 0.46356 0.0
C374 C 0.34204 0.15202 0.44445 0.0
C375 C 0.33625 0.17888 0.44198 0.0
C376 C 0.31176 0.18755 0.44952 0.0
H377 H 0.4255 0.28563 0.33411 0.0
H378 H 0.39386 0.2548 0.35303 0.0
C379 C 0.29385 0.16997 0.46068 0.0
C380 C 0.35563 0.19765 0.43093 0.0
H381 H 0.38391 0.25665 0.44498 0.0
C382 C 0.3682 0.1918 0.40475 0.0
C383 C 0.36205 0.22095 0.44609 0.0
C384 C 0.35117 0.22742 0.47563 0.0
C385 C 0.38673 0.20868 0.39316 0.0
C386 C 0.39201 0.23273 0.40743 0.0
C387 C 0.37965 0.23843 0.43377 0.0
C388 C 0.41071 0.25202 0.39593 0.0
C389 C 0.40089 0.20005 0.36624 0.0
C390 C 0.42999 0.26184 0.41409 0.0
C391 C 0.4475 0.28016 0.40361 0.0
C392 C 0.44636 0.28868 0.3746 0.0
C393 C 0.427 0.27907 0.35646 0.0
C394 C 0.40906 0.26126 0.36718 0.0
H395 H 0.40086 0.17832 0.36402 0.0
H396 H 0.39135 0.20826 0.34674 0.0
H397 H 0.42092 0.20693 0.36652 0.0
H398 H 0.43164 0.25514 0.43638 0.0
H399 H 0.46231 0.2872 0.41803 0.0
H400 H 0.29528 0.83523 0.9963 0.0
H401 H 0.32522 0.80303 0.97691 0.0
H402 H 0.33278 0.8487 0.89837 0.0
H403 H 0.30301 0.88133 0.91787 0.0
H404 H 0.32089 0.77329 0.92612 0.0
H405 H 0.40663 0.83705 0.92345 0.0
H406 H 0.37833 0.84569 0.94351 0.0
H407 H 0.37952 0.85021 0.90476 0.0
C408 C 0.30341 0.83855 0.97497 0.0
C409 C 0.29693 0.86088 0.95858 0.0
C410 C 0.32047 0.82009 0.96392 0.0
C411 C 0.33143 0.82366 0.93639 0.0
C412 C 0.3249 0.84585 0.91991 0.0
H413 H 0.43808 0.73272 0.83406 0.0
H414 H 0.4063 0.76403 0.85113 0.0
C415 C 0.30784 0.86438 0.93098 0.0
C416 C 0.34926 0.8038 0.92475 0.0
H417 H 0.41036 0.79503 0.90176 0.0
C418 C 0.34048 0.77799 0.92085 0.0
C419 C 0.37477 0.81005 0.91792 0.0
C420 C 0.38552 0.83718 0.92284 0.0
C421 C 0.35649 0.75829 0.90993 0.0
C422 C 0.38199 0.76455 0.90314 0.0
C423 C 0.39075 0.79036 0.90694 0.0
C424 C 0.40008 0.74458 0.89233 0.0
C425 C 0.34589 0.73106 0.90527 0.0
C426 C 0.40706 0.72324 0.90988 0.0
C427 C 0.42524 0.70524 0.90022 0.0
C428 C 0.4369 0.70837 0.87287 0.0
C429 C 0.42954 0.72964 0.85523 0.0
C430 C 0.41139 0.74761 0.86493 0.0
H431 H 0.32477 0.73109 0.90462 0.0
H432 H 0.35317 0.72243 0.88471 0.0
H433 H 0.35195 0.71822 0.92348 0.0
H434 H 0.39884 0.72083 0.93133 0.0
H435 H 0.43047 0.68917 0.91443 0.0
H436 H 0.71091 0.13341 0.40499 0.0
H437 H 0.68025 0.16594 0.38729 0.0
H438 H 0.67201 0.19642 0.4743 0.0
H439 H 0.70265 0.16407 0.49214 0.0
H440 H 0.62871 0.17311 0.40713 0.0
H441 H 0.68872 0.26184 0.42353 0.0
H442 H 0.70178 0.22906 0.42241 0.0
H443 H 0.68576 0.2405 0.4545 0.0
C444 C 0.70255 0.14709 0.42029 0.0
C445 C 0.70919 0.1463 0.44985 0.0
C446 C 0.6851 0.16561 0.41018 0.0
C447 C 0.6742 0.18374 0.42945 0.0
C448 C 0.68059 0.18284 0.45905 0.0
H449 H 0.56396 0.30857 0.41309 0.0
H450 H 0.59665 0.27784 0.42926 0.0
C451 C 0.69798 0.16427 0.4692 0.0
C452 C 0.65565 0.20319 0.41866 0.0
H453 H 0.6459 0.26893 0.40969 0.0
C454 C 0.63246 0.19406 0.40753 0.0
C455 C 0.66068 0.23045 0.41938 0.0
C456 C 0.68565 0.24115 0.43037 0.0
C457 C 0.61386 0.21158 0.39753 0.0
C458 C 0.61892 0.23887 0.3981 0.0
C459 C 0.64215 0.24798 0.40922 0.0
C460 C 0.60012 0.25828 0.38768 0.0
C461 C 0.58872 0.20073 0.38718 0.0
C462 C 0.59176 0.25789 0.35872 0.0
C463 C 0.57299 0.27533 0.34939 0.0
C464 C 0.56241 0.29368 0.36882 0.0
C465 C 0.57159 0.29466 0.39755 0.0
C466 C 0.59028 0.27712 0.40687 0.0
H467 H 0.58545 0.18041 0.39518 0.0
H468 H 0.57269 0.21329 0.39448 0.0
H469 H 0.58862 0.20019 0.36306 0.0
H470 H 0.59958 0.2439 0.3434 0.0
H471 H 0.56659 0.2742 0.32704 0.0
H472 H 0.33847 0.41908 0.99602 0.0
H473 H 0.36246 0.45156 0.9686 0.0
H474 H 0.29271 0.48281 0.93352 0.0
H475 H 0.26826 0.45092 0.96226 0.0
H476 H 0.3658 0.45977 0.91083 0.0
H477 H 0.32677 0.54828 0.96589 0.0
H478 H 0.32163 0.51551 0.9796 0.0
H479 H 0.30369 0.5272 0.94899 0.0
C480 C 0.32812 0.4331 0.98286 0.0
C481 C 0.30139 0.43275 0.9818 0.0
C482 C 0.34191 0.4515 0.96694 0.0
C483 C 0.32939 0.46989 0.94938 0.0
C484 C 0.30274 0.46914 0.94743 0.0
H485 H 0.42542 0.56493 0.83339 0.0
H486 H 0.39178 0.53581 0.85092 0.0
C487 C 0.28882 0.45075 0.9636 0.0
C488 C 0.34467 0.48967 0.93341 0.0
H489 H 0.3577 0.55529 0.92969 0.0
C490 C 0.3639 0.48069 0.91472 0.0
C491 C 0.34227 0.51692 0.93879 0.0
C492 C 0.32264 0.52765 0.95957 0.0
C493 C 0.38137 0.49807 0.90203 0.0
C494 C 0.37905 0.52533 0.90748 0.0
C495 C 0.35933 0.5344 0.92545 0.0
C496 C 0.39799 0.54449 0.89644 0.0
C497 C 0.40286 0.4869 0.88411 0.0
C498 C 0.41192 0.55991 0.91613 0.0
C499 C 0.4309 0.57688 0.90617 0.0
C500 C 0.43643 0.57864 0.87631 0.0
C501 C 0.42193 0.56373 0.85657 0.0
C502 C 0.40274 0.547 0.86654 0.0
H503 H 0.4055 0.46555 0.8881 0.0
H504 H 0.39854 0.48956 0.86068 0.0
H505 H 0.42104 0.49711 0.88893 0.0
H506 H 0.4085 0.55834 0.9393 0.0
H507 H 0.44165 0.58812 0.92194 0.0
H508 H 0.72189 0.54466 0.46969 0.0
H509 H 0.69598 0.5126 0.44301 0.0
H510 H 0.63352 0.56747 0.4416 0.0
H511 H 0.65913 0.59923 0.46869 0.0
H512 H 0.62011 0.52051 0.46422 0.0
H513 H 0.67085 0.50576 0.35961 0.0
H514 H 0.69047 0.50165 0.39124 0.0
H515 H 0.67716 0.53334 0.38325 0.0
C516 C 0.70285 0.55004 0.46298 0.0
C517 C 0.69239 0.57427 0.47131 0.0
C518 C 0.68809 0.53178 0.4477 0.0
C519 C 0.66285 0.53771 0.4402 0.0
C520 C 0.65293 0.56249 0.44722 0.0
H521 H 0.55416 0.45056 0.33746 0.0
H522 H 0.5859 0.4814 0.35582 0.0
C523 C 0.66754 0.58058 0.46267 0.0
C524 C 0.64583 0.51736 0.4279 0.0
H525 H 0.63734 0.4758 0.37041 0.0
C526 C 0.62386 0.51079 0.44365 0.0
C527 C 0.6507 0.50482 0.40103 0.0
C528 C 0.67345 0.51187 0.38262 0.0
C529 C 0.60658 0.49205 0.43331 0.0
C530 C 0.61172 0.47902 0.4068 0.0
C531 C 0.63363 0.48563 0.39091 0.0
C532 C 0.59399 0.4592 0.39482 0.0
C533 C 0.58265 0.48685 0.45055 0.0
C534 C 0.58844 0.43621 0.41039 0.0
C535 C 0.57014 0.41859 0.40012 0.0
C536 C 0.55722 0.42355 0.37389 0.0
C537 C 0.56359 0.44616 0.35782 0.0
C538 C 0.5818 0.4638 0.3682 0.0
H539 H 0.57856 0.50295 0.4662 0.0
H540 H 0.566 0.48449 0.43594 0.0
H541 H 0.58498 0.46843 0.46315 0.0
H542 H 0.59801 0.43207 0.43073 0.0
H543 H 0.56596 0.40125 0.4129 0.0
H544 H 0.70286 0.42591 0.94422 0.0
H545 H 0.67666 0.45686 0.91666 0.0
H546 H 0.67522 0.50922 0.9904 0.0
H547 H 0.70198 0.47878 0.01773 0.0
H548 H 0.62836 0.47019 0.93396 0.0
H549 H 0.6874 0.55984 0.92339 0.0
H550 H 0.70068 0.52822 0.93262 0.0
H551 H 0.68548 0.54792 0.96006 0.0
C552 C 0.69763 0.4444 0.95422 0.0
C553 C 0.70441 0.44992 0.98315 0.0
C554 C 0.68254 0.46197 0.93852 0.0
C555 C 0.67418 0.48543 0.95139 0.0
C556 C 0.68184 0.49148 0.97983 0.0
H557 H 0.55836 0.60152 0.92076 0.0
H558 H 0.59316 0.5744 0.93923 0.0
C559 C 0.6969 0.47395 0.99553 0.0
C560 C 0.65517 0.5021 0.93648 0.0
H561 H 0.64267 0.56498 0.91509 0.0
C562 C 0.6316 0.49083 0.92944 0.0
C563 C 0.65941 0.52905 0.93086 0.0
C564 C 0.6847 0.54194 0.93686 0.0
C565 C 0.61184 0.50597 0.91777 0.0
C566 C 0.61593 0.53302 0.91259 0.0
C567 C 0.63961 0.54424 0.91919 0.0
C568 C 0.5956 0.55002 0.90081 0.0
C569 C 0.58646 0.4931 0.91202 0.0
C570 C 0.58576 0.54548 0.87293 0.0
C571 C 0.56584 0.56084 0.86233 0.0
C572 C 0.55544 0.58115 0.87937 0.0
C573 C 0.56578 0.58598 0.9071 0.0
C574 C 0.58572 0.57057 0.91767 0.0
H575 H 0.58468 0.4739 0.92333 0.0
H576 H 0.5706 0.50599 0.91911 0.0
H577 H 0.58439 0.48957 0.88833 0.0
H578 H 0.59344 0.52997 0.85941 0.0
H579 H 0.55856 0.55667 0.84079 0.0
H580 H 0.29071 0.56711 0.45033 0.0
H581 H 0.31667 0.53587 0.42297 0.0
H582 H 0.32488 0.48812 0.49986 0.0
H583 H 0.29827 0.51883 0.52714 0.0
H584 H 0.36657 0.5255 0.43737 0.0
H585 H 0.31025 0.43339 0.43716 0.0
H586 H 0.29639 0.46501 0.44525 0.0
H587 H 0.31403 0.44761 0.47263 0.0
C588 C 0.2974 0.54956 0.46119 0.0
C589 C 0.29248 0.54543 0.49091 0.0
C590 C 0.31235 0.53182 0.44558 0.0
C591 C 0.3225 0.50958 0.45932 0.0
C592 C 0.31686 0.5049 0.48869 0.0
H593 H 0.43994 0.39644 0.42237 0.0
H594 H 0.40545 0.4226 0.44314 0.0
C595 C 0.3019 0.52261 0.50433 0.0
C596 C 0.34114 0.49286 0.44389 0.0
H597 H 0.3541 0.42966 0.42406 0.0
C598 C 0.36373 0.5046 0.43413 0.0
C599 C 0.33741 0.46559 0.43995 0.0
C600 C 0.31311 0.45216 0.44905 0.0
C601 C 0.38304 0.48968 0.42119 0.0
C602 C 0.37944 0.46237 0.41749 0.0
C603 C 0.35675 0.45062 0.42697 0.0
C604 C 0.39932 0.44566 0.40428 0.0
C605 C 0.40746 0.50315 0.41243 0.0
C606 C 0.40691 0.44969 0.37539 0.0
C607 C 0.42667 0.4349 0.36346 0.0
C608 C 0.43911 0.41564 0.38018 0.0
C609 C 0.43091 0.41117 0.4089 0.0
C610 C 0.41115 0.42604 0.42081 0.0
H611 H 0.4095 0.52271 0.42289 0.0
H612 H 0.4242 0.49097 0.41827 0.0
H613 H 0.40758 0.50605 0.38852 0.0
H614 H 0.39768 0.46446 0.36214 0.0
H615 H 0.43227 0.43873 0.3412 0.0
H616 H 0.76883 0.95003 0.96548 0.0
H617 H 0.79171 0.98195 0.93512 0.0
H618 H 0.86317 0.94995 0.96437 0.0
H619 H 0.84066 0.91753 0.99349 0.0
H620 H 0.82483 0.02021 0.95177 0.0
H621 H 0.87359 0.9515 0.87758 0.0
H622 H 0.84746 0.94144 0.9005 0.0
H623 H 0.87934 0.94283 0.91477 0.0
C624 C 0.78941 0.94958 0.96503 0.0
C625 C 0.80293 0.93133 0.982 0.0
C626 C 0.80244 0.96788 0.94782 0.0
C627 C 0.82914 0.96803 0.94713 0.0
C628 C 0.84258 0.94983 0.96403 0.0
H629 H 0.93863 0.08839 0.92063 0.0
H630 H 0.9048 0.05936 0.93761 0.0
C631 C 0.82965 0.93155 0.98105 0.0
C632 C 0.84329 0.98793 0.93006 0.0
H633 H 0.89302 0.99428 0.88298 0.0
C634 C 0.83945 0.01461 0.93632 0.0
C635 C 0.86197 0.98067 0.90943 0.0
C636 C 0.86563 0.95255 0.89994 0.0
C637 C 0.85488 0.03411 0.92384 0.0
C638 C 0.87507 0.0266 0.90526 0.0
C639 C 0.87785 6e-05 0.89762 0.0
C640 C 0.89438 0.0456 0.89466 0.0
C641 C 0.84945 0.06249 0.93091 0.0
C642 C 0.90028 0.04706 0.86492 0.0
C643 C 0.91999 0.06325 0.8552 0.0
C644 C 0.93417 0.07838 0.87504 0.0
C645 C 0.92796 0.07719 0.90476 0.0
C646 C 0.90844 0.06076 0.91448 0.0
H647 H 0.82903 0.06546 0.93616 0.0
H648 H 0.86065 0.06833 0.95031 0.0
H649 H 0.85465 0.07562 0.91256 0.0
H650 H 0.8898 0.03544 0.84924 0.0
H651 H 0.92418 0.0638 0.83214 0.0
H652 H 0.15936 0.07795 0.49641 0.0
H653 H 0.13552 0.04566 0.4686 0.0
H654 H 0.20541 0.01516 0.43297 0.0
H655 H 0.22972 0.04692 0.46208 0.0
H656 H 0.13212 0.03774 0.41077 0.0
H657 H 0.17185 0.94927 0.46524 0.0
H658 H 0.17678 0.98202 0.47912 0.0
H659 H 0.19468 0.97064 0.44831 0.0
C660 C 0.16977 0.06416 0.483 0.0
C661 C 0.19649 0.06464 0.48194 0.0
C662 C 0.15607 0.04587 0.46687 0.0
C663 C 0.16868 0.02771 0.44908 0.0
C664 C 0.19533 0.02864 0.44705 0.0
H665 H 0.07215 0.93245 0.33404 0.0
H666 H 0.10582 0.96165 0.35123 0.0
C667 C 0.20916 0.04695 0.46344 0.0
C668 C 0.15347 0.00789 0.4331 0.0
H669 H 0.14052 0.94224 0.42958 0.0
C670 C 0.13409 0.01682 0.41463 0.0
C671 C 0.15597 0.98065 0.43846 0.0
C672 C 0.17578 0.96997 0.45902 0.0
C673 C 0.11654 -0.0006 0.40216 0.0
C674 C 0.11892 0.97216 0.40763 0.0
C675 C 0.13881 0.96312 0.42535 0.0
C676 C 0.09994 0.95296 0.39682 0.0
C677 C 0.09487 0.01053 0.38452 0.0
C678 C 0.08618 0.93751 0.41664 0.0
C679 C 0.06717 0.92048 0.40687 0.0
C680 C 0.06145 0.91871 0.37706 0.0
C681 C 0.07578 0.93367 0.35719 0.0
C682 C 0.09499 0.95044 0.36697 0.0
H683 H 0.09222 0.03187 0.38855 0.0
H684 H 0.099 0.00788 0.36103 0.0
H685 H 0.07675 0.00028 0.38955 0.0
H686 H 0.08975 0.93908 0.43978 0.0
H687 H 0.05656 0.90919 0.42273 0.0
H688 H 0.2257 0.9593 0.96501 0.0
H689 H 0.19858 0.98951 0.93738 0.0
H690 H 0.13193 0.95423 0.97574 0.0
H691 H 0.15863 0.92331 0.00205 0.0
H692 H 0.12569 0.96235 0.9187 0.0
H693 H 0.16272 0.05298 0.97113 0.0
H694 H 0.18633 0.0334 0.9531 0.0
H695 H 0.17012 0.02057 0.98447 0.0
C696 C 0.20525 0.95784 0.96727 0.0
C697 C 0.19434 0.93917 0.98608 0.0
C698 C 0.18981 0.97531 0.95176 0.0
C699 C 0.16326 0.9745 0.95502 0.0
C700 C 0.15237 0.95539 0.9731 0.0
H701 H 0.0475 0.0903 0.92494 0.0
H702 H 0.08064 0.0614 0.94406 0.0
C703 C 0.1677 0.93787 0.98836 0.0
C704 C 0.14647 0.9934 0.9398 0.0
H705 H 0.13145 0.05848 0.93485 0.0
C706 C 0.12702 0.98339 0.92209 0.0
C707 C 0.14807 0.02081 0.94459 0.0
C708 C 0.16777 0.03265 0.96455 0.0
C709 C 0.1088 -7e-05 0.90947 0.0
C710 C 0.11055 0.02738 0.91398 0.0
C711 C 0.13026 0.03746 0.93129 0.0
C712 C 0.09142 0.0458 0.90202 0.0
C713 C 0.08728 0.98769 0.89247 0.0
C714 C 0.08685 0.04704 0.872 0.0
C715 C 0.0677 0.06324 0.86106 0.0
C716 C 0.05306 0.07892 0.8799 0.0
C717 C 0.05837 0.07843 0.90986 0.0
C718 C 0.07733 0.06196 0.92082 0.0
H719 H 0.08492 0.96653 0.8977 0.0
H720 H 0.06902 0.99787 0.89691 0.0
H721 H 0.09141 0.9893 0.86887 0.0
H722 H 0.09795 0.0353 0.85702 0.0
H723 H 0.06439 0.06347 0.83781 0.0
H724 H 0.79643 0.07319 0.4401 0.0
H725 H 0.82177 0.04109 0.41323 0.0
H726 H 0.82493 0.99169 0.48934 0.0
H727 H 0.79886 0.02325 0.51606 0.0
H728 H 0.87033 0.02847 0.42944 0.0
H729 H 0.81108 0.93851 0.4252 0.0
H730 H 0.79804 0.97046 0.43346 0.0
H731 H 0.81408 0.95185 0.46118 0.0
C732 C 0.80182 0.05511 0.45085 0.0
C733 C 0.7957 0.05077 0.48024 0.0
C734 C 0.81643 0.03687 0.43551 0.0
C735 C 0.82504 0.01392 0.44921 0.0
C736 C 0.8181 0.00903 0.47817 0.0
H737 H 0.94025 0.89735 0.42006 0.0
H738 H 0.90554 0.9248 0.43801 0.0
C739 C 0.80345 0.02722 0.49351 0.0
C740 C 0.84364 0.99668 0.43441 0.0
H741 H 0.85549 0.93311 0.41511 0.0
C742 C 0.86697 0.00769 0.42592 0.0
C743 C 0.83923 0.96957 0.43008 0.0
C744 C 0.81415 0.95692 0.4377 0.0
C745 C 0.88634 0.99216 0.41403 0.0
C746 C 0.8821 0.96497 0.41013 0.0
C747 C 0.85865 0.95399 0.41819 0.0
C748 C 0.90215 0.94755 0.39849 0.0
C749 C 0.91152 0.00481 0.40672 0.0
C750 C 0.9114 0.95102 0.37015 0.0
C751 C 0.93131 0.93547 0.35982 0.0
C752 C 0.94226 0.91604 0.37763 0.0
C753 C 0.93242 0.9122 0.40579 0.0
C754 C 0.91252 0.9278 0.41608 0.0
H755 H 0.91359 0.02444 0.41701 0.0
H756 H 0.92759 0.99222 0.41383 0.0
H757 H 0.91293 0.00739 0.38281 0.0
H758 H 0.90334 0.96591 0.35609 0.0
H759 H 0.93821 0.93883 0.33793 0.0
H760 H 0.29485 0.33938 0.06631 0.0
H761 H 0.31814 0.32879 0.1109 0.0
H762 H 0.32206 0.41117 0.13232 0.0
H763 H 0.29819 0.42181 0.08835 0.0
H764 H 0.36666 0.34615 0.1201 0.0
H765 H 0.30494 0.37878 0.2106 0.0
H766 H 0.29301 0.37342 0.17424 0.0
H767 H 0.30887 0.40367 0.18335 0.0
C768 C 0.29998 0.35515 0.081 0.0
C769 C 0.29481 0.38144 0.07381 0.0
C770 C 0.31338 0.34908 0.10637 0.0
C771 C 0.3216 0.36916 0.12505 0.0
C772 C 0.31547 0.39532 0.11854 0.0
H773 H 0.4332 0.39976 0.25387 0.0
H774 H 0.39821 0.39948 0.21904 0.0
C775 C 0.3021 0.40139 0.09323 0.0
C776 C 0.33925 0.36331 0.14925 0.0
H777 H 0.3496 0.37455 0.22146 0.0
C778 C 0.36277 0.35186 0.1424 0.0
C779 C 0.33413 0.37092 0.17824 0.0
C780 C 0.30875 0.38214 0.18712 0.0
C781 C 0.38183 0.34906 0.16345 0.0
C782 C 0.37704 0.35755 0.19222 0.0
C783 C 0.35321 0.36814 0.19934 0.0
C784 C 0.39715 0.3572 0.21467 0.0
C785 C 0.40738 0.33828 0.15442 0.0
C786 C 0.40784 0.33345 0.22406 0.0
C787 C 0.42798 0.33351 0.24387 0.0
C788 C 0.43768 0.35734 0.25475 0.0
C789 C 0.42636 0.38105 0.24585 0.0
C790 C 0.40628 0.38095 0.22602 0.0
H791 H 0.40954 0.33757 0.13039 0.0
H792 H 0.42303 0.35036 0.16358 0.0
H793 H 0.40944 0.318 0.16291 0.0
H794 H 0.40075 0.3149 0.21585 0.0
H795 H 0.43604 0.31487 0.25045 0.0
H796 H 0.65979 0.63906 0.54012 0.0
H797 H 0.63439 0.64709 0.58374 0.0
H798 H 0.69631 0.61972 0.63725 0.0
H799 H 0.72204 0.61216 0.59347 0.0
H800 H 0.62036 0.60776 0.62007 0.0
H801 H 0.67252 0.68475 0.68142 0.0
H802 H 0.67857 0.67798 0.64348 0.0
H803 H 0.69149 0.65693 0.67112 0.0
C804 C 0.66812 0.63526 0.56124 0.0
C805 C 0.69277 0.6249 0.56354 0.0
C806 C 0.65364 0.63985 0.58611 0.0
C807 C 0.66348 0.6341 0.61374 0.0
C808 C 0.68852 0.62477 0.61619 0.0
H809 H 0.5644 0.59842 0.76012 0.0
H810 H 0.59734 0.59688 0.72269 0.0
C811 C 0.70316 0.62038 0.59122 0.0
C812 C 0.64649 0.63528 0.63938 0.0
H813 H 0.6381 0.66391 0.70587 0.0
C814 C 0.62423 0.62008 0.63881 0.0
C815 C 0.65156 0.65144 0.66371 0.0
C816 C 0.67471 0.6689 0.66499 0.0
C817 C 0.60678 0.62066 0.66181 0.0
C818 C 0.61204 0.6364 0.68641 0.0
C819 C 0.63429 0.65166 0.68706 0.0
C820 C 0.59406 0.63792 0.71111 0.0
C821 C 0.58254 0.60491 0.65918 0.0
C822 C 0.58205 0.66175 0.71774 0.0
C823 C 0.56331 0.66277 0.73926 0.0
C824 C 0.55625 0.63993 0.75452 0.0
C825 C 0.56909 0.6163 0.74854 0.0
C826 C 0.58791 0.61536 0.72713 0.0
H827 H 0.57858 0.59922 0.63629 0.0
H828 H 0.58434 0.58664 0.67216 0.0
H829 H 0.56603 0.61615 0.66763 0.0
H830 H 0.58662 0.67939 0.70564 0.0
H831 H 0.55394 0.68133 0.74339 0.0
H832 H 0.70282 0.35491 0.06527 0.0
H833 H 0.67557 0.34504 0.1072 0.0
H834 H 0.6755 0.42696 0.1309 0.0
H835 H 0.70284 0.43696 0.08927 0.0
H836 H 0.67893 0.35835 0.17134 0.0
H837 H 0.59966 0.40587 0.11115 0.0
H838 H 0.62853 0.3952 0.09349 0.0
H839 H 0.62826 0.42502 0.11434 0.0
C840 C 0.69757 0.37069 0.07989 0.0
C841 C 0.70468 0.39676 0.07385 0.0
C842 C 0.68196 0.36503 0.10373 0.0
C843 C 0.67329 0.38536 0.12175 0.0
C844 C 0.68178 0.41109 0.11694 0.0
H845 H 0.55854 0.40641 0.25221 0.0
H846 H 0.59286 0.41047 0.21687 0.0
C847 C 0.69733 0.41676 0.09317 0.0
C848 C 0.65353 0.38024 0.14386 0.0
H849 H 0.59146 0.39329 0.15969 0.0
C850 C 0.65976 0.36582 0.16884 0.0
C851 C 0.62856 0.38995 0.14029 0.0
C852 C 0.62067 0.4047 0.11329 0.0
C853 C 0.64172 0.36159 0.19093 0.0
C854 C 0.61684 0.37168 0.18753 0.0
C855 C 0.61059 0.38568 0.16227 0.0
C856 C 0.597 0.36865 0.21012 0.0
C857 C 0.64962 0.34708 0.21806 0.0
C858 C 0.58787 0.34374 0.21795 0.0
C859 C 0.56818 0.34129 0.23823 0.0
C860 C 0.55715 0.36375 0.25086 0.0
C861 C 0.56647 0.38866 0.24292 0.0
C862 C 0.58614 0.39106 0.22275 0.0
H863 H 0.67063 0.346 0.22021 0.0
H864 H 0.64171 0.35669 0.23777 0.0
H865 H 0.64211 0.32673 0.21716 0.0
H866 H 0.59566 0.32622 0.20799 0.0
H867 H 0.56145 0.32181 0.24376 0.0
H868 H 0.28878 0.6446 0.56901 0.0
H869 H 0.31389 0.65854 0.61108 0.0
H870 H 0.32326 0.57765 0.6367 0.0
H871 H 0.2974 0.56361 0.59537 0.0
H872 H 0.31494 0.61191 0.68372 0.0
H873 H 0.39113 0.6482 0.60976 0.0
H874 H 0.36022 0.66238 0.6045 0.0
H875 H 0.36514 0.62813 0.59705 0.0
C876 C 0.29566 0.62982 0.58399 0.0
C877 C 0.29135 0.60296 0.57871 0.0
C878 C 0.31023 0.63781 0.60782 0.0
C879 C 0.32085 0.61908 0.62658 0.0
C880 C 0.31538 0.5924 0.62231 0.0
H881 H 0.43273 0.59749 0.7567 0.0
H882 H 0.39733 0.59547 0.72262 0.0
C883 C 0.30077 0.5844 0.5986 0.0
C884 C 0.33899 0.62687 0.6496 0.0
H885 H 0.39892 0.65091 0.65993 0.0
C886 C 0.33321 0.62069 0.67859 0.0
C887 C 0.36279 0.63832 0.64277 0.0
C888 C 0.37039 0.6445 0.61184 0.0
C889 C 0.35086 0.62514 0.70092 0.0
C890 C 0.37496 0.6357 0.69393 0.0
C891 C 0.38037 0.64285 0.66514 0.0
C892 C 0.3956 0.63744 0.71564 0.0
C893 C 0.3437 0.6182 0.73176 0.0
C894 C 0.40671 0.66171 0.7225 0.0
C895 C 0.42712 0.66298 0.74194 0.0
C896 C 0.43694 0.63992 0.75454 0.0
C897 C 0.42572 0.61565 0.74744 0.0
C898 C 0.4053 0.61445 0.72815 0.0
H899 H 0.32274 0.61774 0.73472 0.0
H900 H 0.35119 0.59839 0.73699 0.0
H901 H 0.35198 0.63241 0.74745 0.0
H902 H 0.39961 0.67963 0.71277 0.0
H903 H 0.43531 0.68199 0.74687 0.0
H904 H 0.79946 0.83764 0.06705 0.0
H905 H 0.82355 0.82694 0.11107 0.0
H906 H 0.82922 0.90938 0.13168 0.0
H907 H 0.80459 0.92014 0.0883 0.0
H908 H 0.87258 0.84338 0.11996 0.0
H909 H 0.81155 0.87781 0.21026 0.0
H910 H 0.79948 0.87238 0.17398 0.0
H911 H 0.81586 0.9024 0.18276 0.0
C912 C 0.80523 0.85341 0.08142 0.0
C913 C 0.80023 0.87974 0.0742 0.0
C914 C 0.81908 0.84728 0.10645 0.0
C915 C 0.82792 0.86734 0.1248 0.0
C916 C 0.82215 0.89355 0.11817 0.0
H917 H 0.93972 0.8966 0.25369 0.0
H918 H 0.90521 0.8967 0.21827 0.0
C919 C 0.80834 0.8997 0.09318 0.0
C920 C 0.84553 0.86129 0.14898 0.0
H921 H 0.85609 0.87271 0.22111 0.0
C922 C 0.86881 0.84932 0.14221 0.0
C923 C 0.84055 0.86915 0.17792 0.0
C924 C 0.81539 0.88091 0.18674 0.0
C925 C 0.88782 0.84622 0.16331 0.0
C926 C 0.88319 0.85499 0.192 0.0
C927 C 0.85957 0.8661 0.19904 0.0
C928 C 0.90328 0.85441 0.21448 0.0
C929 C 0.91313 0.8348 0.1544 0.0
C930 C 0.91337 0.83054 0.22433 0.0
C931 C 0.93322 0.83036 0.24453 0.0
C932 C 0.94325 0.85409 0.25531 0.0
C933 C 0.93263 0.87795 0.24578 0.0
C934 C 0.91281 0.87807 0.22561 0.0
H935 H 0.91525 0.83374 0.13039 0.0
H936 H 0.92902 0.84669 0.16336 0.0
H937 H 0.91483 0.8146 0.16323 0.0
H938 H 0.90597 0.81206 0.21628 0.0
H939 H 0.94078 0.81163 0.25154 0.0
H940 H 0.20275 0.07311 0.58954 0.0
H941 H 0.17696 0.08101 0.63298 0.0
H942 H 0.17247 0.16327 0.61134 0.0
H943 H 0.19839 0.15548 0.56777 0.0
H944 H 0.17766 0.15013 0.67437 0.0
H945 H 0.10011 0.09708 0.61688 0.0
H946 H 0.12964 0.07952 0.61942 0.0
H947 H 0.12803 0.10919 0.59837 0.0
C948 C 0.19666 0.09295 0.59437 0.0
C949 C 0.20225 0.11364 0.57517 0.0
C950 C 0.18198 0.09743 0.61914 0.0
C951 C 0.17251 0.12262 0.62498 0.0
C952 C 0.1796 0.14369 0.60707 0.0
H953 H 0.05824 0.17923 0.74726 0.0
H954 H 0.09306 0.17662 0.71208 0.0
C955 C 0.19443 0.13924 0.58229 0.0
C956 C 0.15311 0.12624 0.64786 0.0
H957 H 0.09247 0.10883 0.6658 0.0
C958 C 0.15899 0.14122 0.67256 0.0
C959 C 0.12875 0.11472 0.64517 0.0
C960 C 0.12107 0.0994 0.61844 0.0
C961 C 0.14125 0.14432 0.69519 0.0
C962 C 0.11703 0.13242 0.69265 0.0
C963 C 0.11113 0.11778 0.66772 0.0
C964 C 0.09743 0.1345 0.7156 0.0
C965 C 0.14871 0.15969 0.7219 0.0
C966 C 0.0882 0.11165 0.72895 0.0
C967 C 0.0682 0.113 0.74883 0.0
C968 C 0.05689 0.13727 0.75565 0.0
C969 C 0.06648 0.16022 0.74254 0.0
C970 C 0.08653 0.15882 0.7226 0.0
H971 H 0.16963 0.16241 0.72338 0.0
H972 H 0.13975 0.17939 0.72102 0.0
H973 H 0.14195 0.1497 0.74194 0.0
H974 H 0.0963 0.09267 0.72369 0.0
H975 H 0.06143 0.09492 0.75855 0.0
H976 H 0.21207 0.8482 0.07188 0.0
H977 H 0.18904 0.83544 0.11595 0.0
H978 H 0.17579 0.91703 0.13599 0.0
H979 H 0.19956 0.92997 0.0926 0.0
H980 H 0.18552 0.8856 0.18547 0.0
H981 H 0.11131 0.84243 0.11344 0.0
H982 H 0.14285 0.82944 0.10922 0.0
H983 H 0.1365 0.86301 0.09965 0.0
C984 C 0.20491 0.86344 0.08612 0.0
C985 C 0.20729 0.8901 0.07857 0.0
C986 C 0.19154 0.8561 0.11111 0.0
C987 C 0.18023 0.87529 0.12877 0.0
C988 C 0.1842 0.90192 0.12247 0.0
H989 H 0.06676 0.89917 0.25695 0.0
H990 H 0.10271 0.90088 0.22355 0.0
C991 C 0.19763 0.90928 0.09759 0.0
C992 C 0.16233 0.86792 0.15221 0.0
H993 H 0.10315 0.84232 0.16355 0.0
C994 C 0.16763 0.87587 0.18079 0.0
C995 C 0.13899 0.85526 0.14594 0.0
C996 C 0.13186 0.84718 0.11541 0.0
C997 C 0.14992 0.87197 0.20323 0.0
C998 C 0.12624 0.86019 0.19672 0.0
C999 C 0.12137 0.85131 0.1684 0.0
C1000 C 0.10543 0.85875 0.21829 0.0
C1001 C 0.15659 0.88075 0.23362 0.0
C1002 C 0.09466 0.83449 0.22587 0.0
C1003 C 0.07391 0.8334 0.24484 0.0
C1004 C 0.06341 0.85662 0.25633 0.0
C1005 C 0.07431 0.88089 0.24858 0.0
C1006 C 0.09506 0.88192 0.2297 0.0
H1007 H 0.17751 0.88181 0.23677 0.0
H1008 H 0.14869 0.90066 0.23739 0.0
H1009 H 0.14842 0.86727 0.25016 0.0
H1010 H 0.10226 0.81641 0.21699 0.0
H1011 H 0.06601 0.81438 0.25032 0.0
H1012 H 0.79822 0.14822 0.55947 0.0
H1013 H 0.8244 0.1587 0.60206 0.0
H1014 H 0.82255 0.0774 0.62812 0.0
H1015 H 0.79624 0.06679 0.58585 0.0
H1016 H 0.81876 0.14662 0.6667 0.0
H1017 H 0.89931 0.09741 0.61042 0.0
H1018 H 0.87114 0.10823 0.59146 0.0
H1019 H 0.8704 0.07864 0.61268 0.0
C1020 C 0.80282 0.13272 0.57471 0.0
C1021 C 0.79545 0.10663 0.5692 0.0
C1022 C 0.81782 0.13873 0.59893 0.0
C1023 C 0.82561 0.11873 0.61787 0.0
C1024 C 0.81691 0.09301 0.61348 0.0
H1025 H 0.93409 0.09539 0.75335 0.0
H1026 H 0.9008 0.09278 0.71669 0.0
C1027 C 0.80197 0.08699 0.58933 0.0
C1028 C 0.84475 0.12407 0.64059 0.0
H1029 H 0.90599 0.11012 0.65927 0.0
C1030 C 0.8379 0.13885 0.66511 0.0
C1031 C 0.86969 0.11399 0.63817 0.0
C1032 C 0.87826 0.09885 0.61168 0.0
C1033 C 0.85522 0.14298 0.68794 0.0
C1034 C 0.88 0.13235 0.68577 0.0
C1035 C 0.88693 0.11812 0.66089 0.0
C1036 C 0.89889 0.1347 0.70944 0.0
C1037 C 0.84669 0.15787 0.71457 0.0
C1038 C 0.90883 0.15921 0.71754 0.0
C1039 C 0.92798 0.16083 0.73859 0.0
C1040 C 0.9376 0.13792 0.7517 0.0
C1041 C 0.92729 0.11345 0.74367 0.0
C1042 C 0.90819 0.11189 0.72274 0.0
H1043 H 0.82569 0.16002 0.71541 0.0
H1044 H 0.85317 0.14783 0.73468 0.0
H1045 H 0.85523 0.1778 0.71425 0.0
H1046 H 0.9022 0.177 0.70712 0.0
H1047 H 0.9355 0.17997 0.74421 0.0
loop_
_geom_bond_atom_site_label_1
_geom_bond_atom_site_label_2
_geom_bond_distance
_geom_bond_site_symmetry_2
_ccdc_geom_bond_type
H0 C5 0.930 . S
H1 C8 0.930 . S
H2 C10 0.930 . S
H3 C4 1.016 . S
C4 H3 1.016 . S
C4 N11 1.287 . S
C5 H0 0.930 . S
C5 C6 1.397 . S
C5 C7 1.361 . S
C6 C5 1.397 . S
C6 C10 1.390 . S
C7 C5 1.361 . S
C7 C8 1.393 1_554 S
C7 N11 1.412 1_554 S
C8 H1 0.930 . S
C8 C7 1.393 1_556 S
C8 C9 1.399 . S
C9 C8 1.399 . S
C9 C10 1.381 1_556 S
C10 H2 0.930 . S
C10 C6 1.390 . S
C10 C9 1.381 1_554 S
N11 C4 1.287 . S
N11 C7 1.412 1_556 S
H12 C17 0.930 . S
H13 C20 0.930 . S
H14 C22 0.930 . S
H15 C16 1.016 . S
C16 H15 1.016 . S
C16 N23 1.286 . S
C17 H12 0.930 . S
C17 C18 1.397 . S
C17 C19 1.361 . S
C18 C17 1.397 . S
C18 C22 1.390 . S
C19 C17 1.361 . S
C19 C20 1.393 . S
C19 N23 1.413 . S
C20 H13 0.930 . S
C20 C19 1.393 . S
C20 C21 1.399 . S
C21 C20 1.399 . S
C21 C22 1.381 . S
C22 H14 0.930 . S
C22 C18 1.390 . S
C22 C21 1.381 . S
N23 C16 1.286 . S
N23 C19 1.413 . S
H24 C29 0.930 . S
H25 C32 0.930 . S
H26 C34 0.930 . S
H27 C28 1.016 . S
C28 H27 1.016 . S
C28 N35 1.286 1_556 S
C29 H24 0.930 . S
C29 C30 1.397 . S
C29 C31 1.361 . S
C30 C29 1.397 . S
C30 C34 1.390 . S
C31 C29 1.361 . S
C31 C32 1.393 1_554 S
C31 N35 1.413 . S
C32 H25 0.930 . S
C32 C31 1.393 1_556 S
C32 C33 1.399 . S
C33 C32 1.399 . S
C33 C34 1.381 1_556 S
C34 H26 0.930 . S
C34 C30 1.390 . S
C34 C33 1.381 1_554 S
N35 C28 1.286 1_554 S
N35 C31 1.413 . S
H36 C41 0.930 . S
H37 C44 0.930 . S
H38 C46 0.930 . S
H39 C40 1.016 . S
C40 H39 1.016 . S
C40 N47 1.286 . S
C41 H36 0.930 . S
C41 C42 1.397 . S
C41 C43 1.361 . S
C42 C41 1.397 . S
C42 C46 1.390 . S
C43 C41 1.361 . S
C43 C44 1.393 . S
C43 N47 1.413 . S
C44 H37 0.930 . S
C44 C43 1.393 . S
C44 C45 1.399 . S
C45 C44 1.399 . S
C45 C46 1.381 . S
C46 H38 0.930 . S
C46 C42 1.390 . S
C46 C45 1.381 . S
N47 C40 1.286 . S
N47 C43 1.413 . S
H48 C53 0.930 . S
H49 C56 0.930 . S
H50 C58 0.930 . S
H51 C52 1.016 . S
C52 H51 1.016 . S
C52 N59 1.287 . S
C53 H48 0.930 . S
C53 C54 1.397 . S
C53 C55 1.361 . S
C54 C53 1.397 . S
C54 C58 1.390 . S
C55 C53 1.361 . S
C55 C56 1.393 1_554 S
C55 N59 1.412 1_554 S
C56 H49 0.930 . S
C56 C55 1.393 1_556 S
C56 C57 1.399 . S
C57 C56 1.399 . S
C57 C58 1.381 1_556 S
C58 H50 0.930 . S
C58 C54 1.390 . S
C58 C57 1.381 1_554 S
N59 C52 1.287 . S
N59 C55 1.412 1_556 S
H60 C65 0.930 . S
H61 C68 0.930 . S
H62 C70 0.930 . S
H63 C64 1.016 . S
C64 H63 1.016 . S
C64 N71 1.286 . S
C65 H60 0.930 . S
C65 C66 1.397 . S
C65 C67 1.361 . S
C66 C65 1.397 . S
C66 C70 1.390 . S
C67 C65 1.361 . S
C67 C68 1.393 . S
C67 N71 1.413 . S
C68 H61 0.930 . S
C68 C67 1.393 . S
C68 C69 1.399 . S
C69 C68 1.399 . S
C69 C70 1.381 . S
C70 H62 0.930 . S
C70 C66 1.390 . S
C70 C69 1.381 . S
N71 C64 1.286 . S
N71 C67 1.413 . S
H72 C77 0.930 . S
H73 C80 0.930 . S
H74 C82 0.930 . S
H75 C76 1.016 . S
C76 H75 1.016 . S
C76 N83 1.286 1_556 S
C77 H72 0.930 . S
C77 C78 1.397 . S
C77 C79 1.361 . S
C78 C77 1.397 . S
C78 C82 1.390 . S
C79 C77 1.361 . S
C79 C80 1.393 1_554 S
C79 N83 1.413 . S
C80 H73 0.930 . S
C80 C79 1.393 1_556 S
C80 C81 1.399 . S
C81 C80 1.399 . S
C81 C82 1.381 1_556 S
C82 H74 0.930 . S
C82 C78 1.390 . S
C82 C81 1.381 1_554 S
N83 C76 1.286 1_554 S
N83 C79 1.413 . S
H84 C89 0.930 . S
H85 C92 0.930 . S
H86 C94 0.930 . S
H87 C88 1.016 . S
C88 H87 1.016 . S
C88 N95 1.286 . S
C89 H84 0.930 . S
C89 C90 1.397 . S
C89 C91 1.361 . S
C90 C89 1.397 . S
C90 C94 1.390 . S
C91 C89 1.361 . S
C91 C92 1.393 . S
C91 N95 1.413 . S
C92 H85 0.930 . S
C92 C91 1.393 . S
C92 C93 1.399 . S
C93 C92 1.399 . S
C93 C94 1.381 . S
C94 H86 0.930 . S
C94 C90 1.390 . S
C94 C93 1.381 . S
N95 C88 1.286 . S
N95 C91 1.413 . S
Sc96 O99 2.025 . S
Sc96 O106 2.105 1_455 S
Sc96 O109 2.105 . S
Sc96 O112 2.105 . S
Sc96 O115 2.105 1_455 S
Sc97 O99 2.025 . S
Sc97 O107 2.105 1_455 S
Sc97 O111 2.105 . S
Sc97 O113 2.105 . S
Sc97 O117 2.105 1_455 S
Sc98 O99 2.025 . S
Sc98 O108 2.105 1_455 S
Sc98 O110 2.105 . S
Sc98 O114 2.105 . S
Sc98 O116 2.105 1_455 S
O99 Sc96 2.025 . S
O99 Sc97 2.025 . S
O99 Sc98 2.025 . S
C100 O106 1.268 . S
C100 O116 1.268 . S
C101 O107 1.268 . S
C101 O115 1.268 . S
C102 O108 1.268 . S
C102 O117 1.268 . S
C103 O109 1.268 . S
C103 O113 1.268 . S
C104 O110 1.268 . S
C104 O112 1.268 . S
C105 O111 1.268 . S
C105 O114 1.268 . S
O106 Sc96 2.105 1_655 S
O106 C100 1.268 . S
O107 Sc97 2.105 1_655 S
O107 C101 1.268 . S
O108 Sc98 2.105 1_655 S
O108 C102 1.268 . S
O109 Sc96 2.105 . S
O109 C103 1.268 . S
O110 Sc98 2.105 . S
O110 C104 1.268 . S
O111 Sc97 2.105 . S
O111 C105 1.268 . S
O112 Sc96 2.105 . S
O112 C104 1.268 . S
O113 Sc97 2.105 . S
O113 C103 1.268 . S
O114 Sc98 2.105 . S
O114 C105 1.268 . S
O115 Sc96 2.105 1_655 S
O115 C101 1.268 . S
O116 Sc98 2.105 1_655 S
O116 C100 1.268 . S
O117 Sc97 2.105 1_655 S
O117 C102 1.268 . S
Sc118 O121 2.025 . S
Sc118 O128 2.105 . S
Sc118 O131 2.105 1_455 S
Sc118 O134 2.105 1_455 S
Sc118 O137 2.105 . S
Sc119 O121 2.025 . S
Sc119 O129 2.105 . S
Sc119 O133 2.105 1_455 S
Sc119 O135 2.105 1_455 S
Sc119 O139 2.105 . S
Sc120 O121 2.025 . S
Sc120 O130 2.105 . S
Sc120 O132 2.105 1_455 S
Sc120 O136 2.105 1_455 S
Sc120 O138 2.105 . S
O121 Sc118 2.025 . S
O121 Sc119 2.025 . S
O121 Sc120 2.025 . S
C122 O128 1.268 . S
C122 O138 1.268 . S
C123 O129 1.268 . S
C123 O137 1.268 . S
C124 O130 1.268 . S
C124 O139 1.268 . S
C125 O131 1.268 . S
C125 O135 1.268 . S
C126 O132 1.268 . S
C126 O134 1.268 . S
C127 O133 1.268 . S
C127 O136 1.268 . S
O128 Sc118 2.105 . S
O128 C122 1.268 . S
O129 Sc119 2.105 . S
O129 C123 1.268 . S
O130 Sc120 2.105 . S
O130 C124 1.268 . S
O131 Sc118 2.105 1_655 S
O131 C125 1.268 . S
O132 Sc120 2.105 1_655 S
O132 C126 1.268 . S
O133 Sc119 2.105 1_655 S
O133 C127 1.268 . S
O134 Sc118 2.105 1_655 S
O134 C126 1.268 . S
O135 Sc119 2.105 1_655 S
O135 C125 1.268 . S
O136 Sc120 2.105 1_655 S
O136 C127 1.268 . S
O137 Sc118 2.105 . S
O137 C123 1.268 . S
O138 Sc120 2.105 . S
O138 C122 1.268 . S
O139 Sc119 2.105 . S
O139 C124 1.268 . S
Sc140 O143 2.025 . S
Sc140 O150 2.105 . S
Sc140 O153 2.105 . S
Sc140 O156 2.105 . S
Sc140 O159 2.105 . S
Sc141 O143 2.025 . S
Sc141 O151 2.105 . S
Sc141 O155 2.105 . S
Sc141 O157 2.105 . S
Sc141 O161 2.105 . S
Sc142 O143 2.025 . S
Sc142 O152 2.105 . S
Sc142 O154 2.105 . S
Sc142 O158 2.105 . S
Sc142 O160 2.105 . S
O143 Sc140 2.025 . S
O143 Sc141 2.025 . S
O143 Sc142 2.025 . S
C144 O150 1.268 . S
C144 O160 1.268 . S
C145 O151 1.268 . S
C145 O159 1.268 . S
C146 O152 1.268 . S
C146 O161 1.268 . S
C147 O153 1.268 . S
C147 O157 1.268 . S
C148 O154 1.268 . S
C148 O156 1.268 . S
C149 O155 1.268 . S
C149 O158 1.268 . S
O150 Sc140 2.105 . S
O150 C144 1.268 . S
O151 Sc141 2.105 . S
O151 C145 1.268 . S
O152 Sc142 2.105 . S
O152 C146 1.268 . S
O153 Sc140 2.105 . S
O153 C147 1.268 . S
O154 Sc142 2.105 . S
O154 C148 1.268 . S
O155 Sc141 2.105 . S
O155 C149 1.268 . S
O156 Sc140 2.105 . S
O156 C148 1.268 . S
O157 Sc141 2.105 . S
O157 C147 1.268 . S
O158 Sc142 2.105 . S
O158 C149 1.268 . S
O159 Sc140 2.105 . S
O159 C145 1.268 . S
O160 Sc142 2.105 . S
O160 C144 1.268 . S
O161 Sc141 2.105 . S
O161 C146 1.268 . S
Sc162 O165 2.025 . S
Sc162 O172 2.105 . S
Sc162 O175 2.105 . S
Sc162 O178 2.105 . S
Sc162 O181 2.105 . S
Sc163 O165 2.025 . S
Sc163 O173 2.105 . S
Sc163 O177 2.105 . S
Sc163 O179 2.105 . S
Sc163 O183 2.105 . S
Sc164 O165 2.025 . S
Sc164 O174 2.105 . S
Sc164 O176 2.105 . S
Sc164 O180 2.105 . S
Sc164 O182 2.105 . S
O165 Sc162 2.025 . S
O165 Sc163 2.025 . S
O165 Sc164 2.025 . S
C166 O172 1.268 . S
C166 O182 1.268 . S
C167 O173 1.268 . S
C167 O181 1.268 . S
C168 O174 1.268 . S
C168 O183 1.268 . S
C169 O175 1.268 . S
C169 O179 1.268 . S
C170 O176 1.268 . S
C170 O178 1.268 . S
C171 O177 1.268 . S
C171 O180 1.268 . S
O172 Sc162 2.105 . S
O172 C166 1.268 . S
O173 Sc163 2.105 . S
O173 C167 1.268 . S
O174 Sc164 2.105 . S
O174 C168 1.268 . S
O175 Sc162 2.105 . S
O175 C169 1.268 . S
O176 Sc164 2.105 . S
O176 C170 1.268 . S
O177 Sc163 2.105 . S
O177 C171 1.268 . S
O178 Sc162 2.105 . S
O178 C170 1.268 . S
O179 Sc163 2.105 . S
O179 C169 1.268 . S
O180 Sc164 2.105 . S
O180 C171 1.268 . S
O181 Sc162 2.105 . S
O181 C167 1.268 . S
O182 Sc164 2.105 . S
O182 C166 1.268 . S
O183 Sc163 2.105 . S
O183 C168 1.268 . S
H184 C192 0.929 1_554 S
H185 C194 0.930 . S
H186 C196 0.930 . S
H187 C199 0.929 . S
H188 C202 0.930 . S
H189 C204 0.960 . S
H190 C204 0.960 . S
H191 C204 0.960 . S
C192 H184 0.929 1_556 S
C192 C193 1.377 . S
C192 C194 1.384 . S
C193 C192 1.377 . S
C193 C199 1.390 . S
C194 H185 0.930 . S
C194 C192 1.384 . S
C194 C195 1.372 . S
C195 C194 1.372 . S
C195 C196 1.400 . S
C195 C200 1.490 . S
C196 H186 0.930 . S
C196 C195 1.400 . S
C196 C199 1.386 . S
H197 C213 0.930 . S
H198 C214 0.931 . S
C199 H187 0.929 . S
C199 C193 1.390 . S
C199 C196 1.386 . S
C200 C195 1.490 . S
C200 C202 1.395 . S
C200 C203 1.403 . S
H201 C207 0.930 . S
C202 H188 0.930 . S
C202 C200 1.395 . S
C202 C205 1.403 . S
C203 C200 1.403 . S
C203 C204 1.524 . S
C203 C207 1.400 . S
C204 H189 0.960 . S
C204 H190 0.960 . S
C204 H191 0.960 . S
C204 C203 1.524 . S
C205 C202 1.403 . S
C205 C206 1.392 . S
C205 C209 1.495 . S
C206 C205 1.392 . S
C206 C207 1.385 . S
C206 C208 1.478 . S
C207 H201 0.930 . S
C207 C203 1.400 . S
C207 C206 1.385 . S
C208 C206 1.478 . S
C208 C210 1.381 . S
C208 C214 1.383 . S
C209 C205 1.495 . S
C209 H215 0.959 . S
C209 H216 0.961 . S
C209 H217 0.960 . S
C210 C208 1.381 . S
C210 C211 1.394 . S
C210 H218 0.930 . S
C211 C210 1.394 . S
C211 C212 1.383 . S
C211 H219 0.929 . S
C212 C211 1.383 . S
C212 C213 1.377 . S
C213 H197 0.930 . S
C213 C212 1.377 . S
C213 C214 1.379 . S
C214 H198 0.931 . S
C214 C208 1.383 . S
C214 C213 1.379 . S
H215 C209 0.959 . S
H216 C209 0.961 . S
H217 C209 0.960 . S
H218 C210 0.930 . S
H219 C211 0.929 . S
H220 C228 0.929 . S
H221 C230 0.930 . S
H222 C232 0.930 . S
H223 C235 0.929 . S
H224 C238 0.930 . S
H225 C240 0.960 . S
H226 C240 0.960 . S
H227 C240 0.960 . S
C228 H220 0.929 . S
C228 C229 1.377 . S
C228 C230 1.384 . S
C229 C228 1.377 . S
C229 C235 1.390 . S
C230 H221 0.930 . S
C230 C228 1.384 . S
C230 C231 1.372 . S
C231 C230 1.372 . S
C231 C232 1.400 . S
C231 C236 1.490 . S
C232 H222 0.930 . S
C232 C231 1.400 . S
C232 C235 1.386 . S
H233 C249 0.930 . S
H234 C250 0.931 . S
C235 H223 0.929 . S
C235 C229 1.390 . S
C235 C232 1.386 . S
C236 C231 1.490 . S
C236 C238 1.395 . S
C236 C239 1.403 . S
H237 C243 0.930 . S
C238 H224 0.930 . S
C238 C236 1.395 . S
C238 C241 1.403 . S
C239 C236 1.403 . S
C239 C240 1.524 . S
C239 C243 1.400 . S
C240 H225 0.960 . S
C240 H226 0.960 . S
C240 H227 0.960 . S
C240 C239 1.524 . S
C241 C238 1.403 . S
C241 C242 1.392 . S
C241 C245 1.495 . S
C242 C241 1.392 . S
C242 C243 1.385 . S
C242 C244 1.478 . S
C243 H237 0.930 . S
C243 C239 1.400 . S
C243 C242 1.385 . S
C244 C242 1.478 . S
C244 C246 1.381 . S
C244 C250 1.383 . S
C245 C241 1.495 . S
C245 H251 0.959 . S
C245 H252 0.961 . S
C245 H253 0.960 . S
C246 C244 1.381 . S
C246 C247 1.394 . S
C246 H254 0.930 . S
C247 C246 1.394 . S
C247 C248 1.383 . S
C247 H255 0.929 . S
C248 C247 1.383 . S
C248 C249 1.377 . S
C249 H233 0.930 . S
C249 C248 1.377 . S
C249 C250 1.379 . S
C250 H234 0.931 . S
C250 C244 1.383 . S
C250 C249 1.379 . S
H251 C245 0.959 . S
H252 C245 0.961 . S
H253 C245 0.960 . S
H254 C246 0.930 . S
H255 C247 0.929 . S
H256 C264 0.929 . S
H257 C266 0.930 . S
H258 C268 0.930 . S
H259 C271 0.929 1_554 S
H260 C274 0.930 . S
H261 C276 0.960 . S
H262 C276 0.960 . S
H263 C276 0.960 . S
C264 H256 0.929 . S
C264 C265 1.377 . S
C264 C266 1.384 . S
C265 C264 1.377 . S
C265 C271 1.390 . S
C266 H257 0.930 . S
C266 C264 1.384 . S
C266 C267 1.372 . S
C267 C266 1.372 . S
C267 C268 1.400 . S
C267 C272 1.490 . S
C268 H258 0.930 . S
C268 C267 1.400 . S
C268 C271 1.386 . S
H269 C285 0.930 . S
H270 C286 0.931 . S
C271 H259 0.929 1_556 S
C271 C265 1.390 . S
C271 C268 1.386 . S
C272 C267 1.490 . S
C272 C274 1.395 . S
C272 C275 1.403 . S
H273 C279 0.930 . S
C274 H260 0.930 . S
C274 C272 1.395 . S
C274 C277 1.403 . S
C275 C272 1.403 . S
C275 C276 1.524 . S
C275 C279 1.400 . S
C276 H261 0.960 . S
C276 H262 0.960 . S
C276 H263 0.960 . S
C276 C275 1.524 . S
C277 C274 1.403 . S
C277 C278 1.392 . S
C277 C281 1.495 . S
C278 C277 1.392 . S
C278 C279 1.385 . S
C278 C280 1.478 . S
C279 H273 0.930 . S
C279 C275 1.400 . S
C279 C278 1.385 . S
C280 C278 1.478 . S
C280 C282 1.381 . S
C280 C286 1.383 . S
C281 C277 1.495 . S
C281 H287 0.959 . S
C281 H288 0.961 . S
C281 H289 0.960 . S
C282 C280 1.381 . S
C282 C283 1.394 . S
C282 H290 0.930 . S
C283 C282 1.394 . S
C283 C284 1.383 . S
C283 H291 0.929 . S
C284 C283 1.383 . S
C284 C285 1.377 . S
C285 H269 0.930 . S
C285 C284 1.377 . S
C285 C286 1.379 . S
C286 H270 0.931 . S
C286 C280 1.383 . S
C286 C285 1.379 . S
H287 C281 0.959 . S
H288 C281 0.961 . S
H289 C281 0.960 . S
H290 C282 0.930 . S
H291 C283 0.929 . S
H292 C300 0.929 . S
H293 C302 0.930 . S
H294 C304 0.930 . S
H295 C307 0.929 . S
H296 C310 0.930 . S
H297 C312 0.960 . S
H298 C312 0.960 . S
H299 C312 0.960 . S
C300 H292 0.929 . S
C300 C301 1.377 . S
C300 C302 1.384 . S
C301 C300 1.377 . S
C301 C307 1.390 . S
C302 H293 0.930 . S
C302 C300 1.384 . S
C302 C303 1.372 . S
C303 C302 1.372 . S
C303 C304 1.400 . S
C303 C308 1.490 . S
C304 H294 0.930 . S
C304 C303 1.400 . S
C304 C307 1.386 . S
H305 C321 0.930 . S
H306 C322 0.931 . S
C307 H295 0.929 . S
C307 C301 1.390 . S
C307 C304 1.386 . S
C308 C303 1.490 . S
C308 C310 1.395 . S
C308 C311 1.403 . S
H309 C315 0.930 . S
C310 H296 0.930 . S
C310 C308 1.395 . S
C310 C313 1.403 . S
C311 C308 1.403 . S
C311 C312 1.524 . S
C311 C315 1.400 . S
C312 H297 0.960 . S
C312 H298 0.960 . S
C312 H299 0.960 . S
C312 C311 1.524 . S
C313 C310 1.403 . S
C313 C314 1.392 . S
C313 C317 1.495 . S
C314 C313 1.392 . S
C314 C315 1.385 . S
C314 C316 1.478 . S
C315 H309 0.930 . S
C315 C311 1.400 . S
C315 C314 1.385 . S
C316 C314 1.478 . S
C316 C318 1.381 . S
C316 C322 1.383 . S
C317 C313 1.495 . S
C317 H323 0.959 . S
C317 H324 0.961 . S
C317 H325 0.960 . S
C318 C316 1.381 . S
C318 C319 1.394 . S
C318 H326 0.930 . S
C319 C318 1.394 . S
C319 C320 1.383 . S
C319 H327 0.929 . S
C320 C319 1.383 . S
C320 C321 1.377 . S
C321 H305 0.930 . S
C321 C320 1.377 . S
C321 C322 1.379 . S
C322 H306 0.931 . S
C322 C316 1.383 . S
C322 C321 1.379 . S
H323 C317 0.959 . S
H324 C317 0.961 . S
H325 C317 0.960 . S
H326 C318 0.930 . S
H327 C319 0.929 . S
H328 C336 0.929 . S
H329 C338 0.930 . S
H330 C340 0.930 . S
H331 C343 0.929 . S
H332 C346 0.930 . S
H333 C348 0.960 . S
H334 C348 0.960 . S
H335 C348 0.960 . S
C336 H328 0.929 . S
C336 C337 1.377 . S
C336 C338 1.384 . S
C337 C336 1.377 . S
C337 C343 1.390 . S
C338 H329 0.930 . S
C338 C336 1.384 . S
C338 C339 1.372 . S
C339 C338 1.372 . S
C339 C340 1.400 . S
C339 C344 1.490 . S
C340 H330 0.930 . S
C340 C339 1.400 . S
C340 C343 1.386 . S
H341 C357 0.930 . S
H342 C358 0.931 . S
C343 H331 0.929 . S
C343 C337 1.390 . S
C343 C340 1.386 . S
C344 C339 1.490 . S
C344 C346 1.395 . S
C344 C347 1.403 . S
H345 C351 0.930 . S
C346 H332 0.930 . S
C346 C344 1.395 . S
C346 C349 1.403 . S
C347 C344 1.403 . S
C347 C348 1.524 . S
C347 C351 1.400 . S
C348 H333 0.960 . S
C348 H334 0.960 . S
C348 H335 0.960 . S
C348 C347 1.524 . S
C349 C346 1.403 . S
C349 C350 1.392 . S
C349 C353 1.495 . S
C350 C349 1.392 . S
C350 C351 1.385 . S
C350 C352 1.478 . S
C351 H345 0.930 . S
C351 C347 1.400 . S
C351 C350 1.385 . S
C352 C350 1.478 . S
C352 C354 1.381 . S
C352 C358 1.383 . S
C353 C349 1.495 . S
C353 H359 0.959 . S
C353 H360 0.961 . S
C353 H361 0.960 . S
C354 C352 1.381 . S
C354 C355 1.394 . S
C354 H362 0.930 . S
C355 C354 1.394 . S
C355 C356 1.383 . S
C355 H363 0.929 . S
C356 C355 1.383 . S
C356 C357 1.377 . S
C357 H341 0.930 . S
C357 C356 1.377 . S
C357 C358 1.379 . S
C358 H342 0.931 . S
C358 C352 1.383 . S
C358 C357 1.379 . S
H359 C353 0.959 . S
H360 C353 0.961 . S
H361 C353 0.960 . S
H362 C354 0.930 . S
H363 C355 0.929 . S
H364 C372 0.929 . S
H365 C374 0.930 . S
H366 C376 0.930 . S
H367 C379 0.929 . S
H368 C382 0.930 . S
H369 C384 0.960 . S
H370 C384 0.960 . S
H371 C384 0.960 . S
C372 H364 0.929 . S
C372 C373 1.377 . S
C372 C374 1.384 . S
C373 C372 1.377 . S
C373 C379 1.390 . S
C374 H365 0.930 . S
C374 C372 1.384 . S
C374 C375 1.372 . S
C375 C374 1.372 . S
C375 C376 1.400 . S
C375 C380 1.490 . S
C376 H366 0.930 . S
C376 C375 1.400 . S
C376 C379 1.386 . S
H377 C393 0.930 . S
H378 C394 0.931 . S
C379 H367 0.929 . S
C379 C373 1.390 . S
C379 C376 1.386 . S
C380 C375 1.490 . S
C380 C382 1.395 . S
C380 C383 1.403 . S
H381 C387 0.930 . S
C382 H368 0.930 . S
C382 C380 1.395 . S
C382 C385 1.403 . S
C383 C380 1.403 . S
C383 C384 1.524 . S
C383 C387 1.400 . S
C384 H369 0.960 . S
C384 H370 0.960 . S
C384 H371 0.960 . S
C384 C383 1.524 . S
C385 C382 1.403 . S
C385 C386 1.392 . S
C385 C389 1.495 . S
C386 C385 1.392 . S
C386 C387 1.385 . S
C386 C388 1.478 . S
C387 H381 0.930 . S
C387 C383 1.400 . S
C387 C386 1.385 . S
C388 C386 1.478 . S
C388 C390 1.381 . S
C388 C394 1.383 . S
C389 C385 1.495 . S
C389 H395 0.959 . S
C389 H396 0.961 . S
C389 H397 0.960 . S
C390 C388 1.381 . S
C390 C391 1.394 . S
C390 H398 0.930 . S
C391 C390 1.394 . S
C391 C392 1.383 . S
C391 H399 0.929 . S
C392 C391 1.383 . S
C392 C393 1.377 . S
C393 H377 0.930 . S
C393 C392 1.377 . S
C393 C394 1.379 . S
C394 H378 0.931 . S
C394 C388 1.383 . S
C394 C393 1.379 . S
H395 C389 0.959 . S
H396 C389 0.961 . S
H397 C389 0.960 . S
H398 C390 0.930 . S
H399 C391 0.929 . S
H400 C408 0.929 1_554 S
H401 C410 0.930 . S
H402 C412 0.930 . S
H403 C415 0.929 . S
H404 C418 0.930 . S
H405 C420 0.960 . S
H406 C420 0.960 . S
H407 C420 0.960 . S
C408 H400 0.929 1_556 S
C408 C409 1.377 . S
C408 C410 1.384 . S
C409 C408 1.377 . S
C409 C415 1.390 . S
C410 H401 0.930 . S
C410 C408 1.384 . S
C410 C411 1.372 . S
C411 C410 1.372 . S
C411 C412 1.400 . S
C411 C416 1.490 . S
C412 H402 0.930 . S
C412 C411 1.400 . S
C412 C415 1.386 . S
H413 C429 0.930 . S
H414 C430 0.931 . S
C415 H403 0.929 . S
C415 C409 1.390 . S
C415 C412 1.386 . S
C416 C411 1.490 . S
C416 C418 1.395 . S
C416 C419 1.403 . S
H417 C423 0.930 . S
C418 H404 0.930 . S
C418 C416 1.395 . S
C418 C421 1.403 . S
C419 C416 1.403 . S
C419 C420 1.524 . S
C419 C423 1.400 . S
C420 H405 0.960 . S
C420 H406 0.960 . S
C420 H407 0.960 . S
C420 C419 1.524 . S
C421 C418 1.403 . S
C421 C422 1.392 . S
C421 C425 1.495 . S
C422 C421 1.392 . S
C422 C423 1.385 . S
C422 C424 1.478 . S
C423 H417 0.930 . S
C423 C419 1.400 . S
C423 C422 1.385 . S
C424 C422 1.478 . S
C424 C426 1.381 . S
C424 C430 1.383 . S
C425 C421 1.495 . S
C425 H431 0.959 . S
C425 H432 0.961 . S
C425 H433 0.960 . S
C426 C424 1.381 . S
C426 C427 1.394 . S
C426 H434 0.930 . S
C427 C426 1.394 . S
C427 C428 1.383 . S
C427 H435 0.929 . S
C428 C427 1.383 . S
C428 C429 1.377 . S
C429 H413 0.930 . S
C429 C428 1.377 . S
C429 C430 1.379 . S
C430 H414 0.931 . S
C430 C424 1.383 . S
C430 C429 1.379 . S
H431 C425 0.959 . S
H432 C425 0.961 . S
H433 C425 0.960 . S
H434 C426 0.930 . S
H435 C427 0.929 . S
H436 C444 0.929 . S
H437 C446 0.930 . S
H438 C448 0.930 . S
H439 C451 0.929 . S
H440 C454 0.930 . S
H441 C456 0.960 . S
H442 C456 0.960 . S
H443 C456 0.960 . S
C444 H436 0.929 . S
C444 C445 1.377 . S
C444 C446 1.384 . S
C445 C444 1.377 . S
C445 C451 1.390 . S
C446 H437 0.930 . S
C446 C444 1.384 . S
C446 C447 1.372 . S
C447 C446 1.372 . S
C447 C448 1.400 . S
C447 C452 1.490 . S
C448 H438 0.930 . S
C448 C447 1.400 . S
C448 C451 1.386 . S
H449 C465 0.930 . S
H450 C466 0.931 . S
C451 H439 0.929 . S
C451 C445 1.390 . S
C451 C448 1.386 . S
C452 C447 1.490 . S
C452 C454 1.395 . S
C452 C455 1.403 . S
H453 C459 0.930 . S
C454 H440 0.930 . S
C454 C452 1.395 . S
C454 C457 1.403 . S
C455 C452 1.403 . S
C455 C456 1.524 . S
C455 C459 1.400 . S
C456 H441 0.960 . S
C456 H442 0.960 . S
C456 H443 0.960 . S
C456 C455 1.524 . S
C457 C454 1.403 . S
C457 C458 1.392 . S
C457 C461 1.495 . S
C458 C457 1.392 . S
C458 C459 1.385 . S
C458 C460 1.478 . S
C459 H453 0.930 . S
C459 C455 1.400 . S
C459 C458 1.385 . S
C460 C458 1.478 . S
C460 C462 1.381 . S
C460 C466 1.383 . S
C461 C457 1.495 . S
C461 H467 0.959 . S
C461 H468 0.961 . S
C461 H469 0.960 . S
C462 C460 1.381 . S
C462 C463 1.394 . S
C462 H470 0.930 . S
C463 C462 1.394 . S
C463 C464 1.383 . S
C463 H471 0.929 . S
C464 C463 1.383 . S
C464 C465 1.377 . S
C465 H449 0.930 . S
C465 C464 1.377 . S
C465 C466 1.379 . S
C466 H450 0.931 . S
C466 C460 1.383 . S
C466 C465 1.379 . S
H467 C461 0.959 . S
H468 C461 0.961 . S
H469 C461 0.960 . S
H470 C462 0.930 . S
H471 C463 0.929 . S
H472 C480 0.929 1_554 S
H473 C482 0.930 . S
H474 C484 0.930 . S
H475 C487 0.929 . S
H476 C490 0.930 . S
H477 C492 0.960 . S
H478 C492 0.960 . S
H479 C492 0.960 . S
C480 H472 0.929 1_556 S
C480 C481 1.377 . S
C480 C482 1.384 . S
C481 C480 1.377 . S
C481 C487 1.390 . S
C482 H473 0.930 . S
C482 C480 1.384 . S
C482 C483 1.372 . S
C483 C482 1.372 . S
C483 C484 1.400 . S
C483 C488 1.490 . S
C484 H474 0.930 . S
C484 C483 1.400 . S
C484 C487 1.386 . S
H485 C501 0.930 . S
H486 C502 0.931 . S
C487 H475 0.929 . S
C487 C481 1.390 . S
C487 C484 1.386 . S
C488 C483 1.490 . S
C488 C490 1.395 . S
C488 C491 1.403 . S
H489 C495 0.930 . S
C490 H476 0.930 . S
C490 C488 1.395 . S
C490 C493 1.403 . S
C491 C488 1.403 . S
C491 C492 1.524 . S
C491 C495 1.400 . S
C492 H477 0.960 . S
C492 H478 0.960 . S
C492 H479 0.960 . S
C492 C491 1.524 . S
C493 C490 1.403 . S
C493 C494 1.392 . S
C493 C497 1.495 . S
C494 C493 1.392 . S
C494 C495 1.385 . S
C494 C496 1.478 . S
C495 H489 0.930 . S
C495 C491 1.400 . S
C495 C494 1.385 . S
C496 C494 1.478 . S
C496 C498 1.381 . S
C496 C502 1.383 . S
C497 C493 1.495 . S
C497 H503 0.959 . S
C497 H504 0.961 . S
C497 H505 0.960 . S
C498 C496 1.381 . S
C498 C499 1.394 . S
C498 H506 0.930 . S
C499 C498 1.394 . S
C499 C500 1.383 . S
C499 H507 0.929 . S
C500 C499 1.383 . S
C500 C501 1.377 . S
C501 H485 0.930 . S
C501 C500 1.377 . S
C501 C502 1.379 . S
C502 H486 0.931 . S
C502 C496 1.383 . S
C502 C501 1.379 . S
H503 C497 0.959 . S
H504 C497 0.961 . S
H505 C497 0.960 . S
H506 C498 0.930 . S
H507 C499 0.929 . S
H508 C516 0.929 . S
H509 C518 0.930 . S
H510 C520 0.930 . S
H511 C523 0.929 . S
H512 C526 0.930 . S
H513 C528 0.960 . S
H514 C528 0.960 . S
H515 C528 0.960 . S
C516 H508 0.929 . S
C516 C517 1.377 . S
C516 C518 1.384 . S
C517 C516 1.377 . S
C517 C523 1.390 . S
C518 H509 0.930 . S
C518 C516 1.384 . S
C518 C519 1.372 . S
C519 C518 1.372 . S
C519 C520 1.400 . S
C519 C524 1.490 . S
C520 H510 0.930 . S
C520 C519 1.400 . S
C520 C523 1.386 . S
H521 C537 0.930 . S
H522 C538 0.931 . S
C523 H511 0.929 . S
C523 C517 1.390 . S
C523 C520 1.386 . S
C524 C519 1.490 . S
C524 C526 1.395 . S
C524 C527 1.403 . S
H525 C531 0.930 . S
C526 H512 0.930 . S
C526 C524 1.395 . S
C526 C529 1.403 . S
C527 C524 1.403 . S
C527 C528 1.524 . S
C527 C531 1.400 . S
C528 H513 0.960 . S
C528 H514 0.960 . S
C528 H515 0.960 . S
C528 C527 1.524 . S
C529 C526 1.403 . S
C529 C530 1.392 . S
C529 C533 1.495 . S
C530 C529 1.392 . S
C530 C531 1.385 . S
C530 C532 1.478 . S
C531 H525 0.930 . S
C531 C527 1.400 . S
C531 C530 1.385 . S
C532 C530 1.478 . S
C532 C534 1.381 . S
C532 C538 1.383 . S
C533 C529 1.495 . S
C533 H539 0.959 . S
C533 H540 0.961 . S
C533 H541 0.960 . S
C534 C532 1.381 . S
C534 C535 1.394 . S
C534 H542 0.930 . S
C535 C534 1.394 . S
C535 C536 1.383 . S
C535 H543 0.929 . S
C536 C535 1.383 . S
C536 C537 1.377 . S
C537 H521 0.930 . S
C537 C536 1.377 . S
C537 C538 1.379 . S
C538 H522 0.931 . S
C538 C532 1.383 . S
C538 C537 1.379 . S
H539 C533 0.959 . S
H540 C533 0.961 . S
H541 C533 0.960 . S
H542 C534 0.930 . S
H543 C535 0.929 . S
H544 C552 0.929 . S
H545 C554 0.930 . S
H546 C556 0.930 . S
H547 C559 0.929 1_554 S
H548 C562 0.930 . S
H549 C564 0.960 . S
H550 C564 0.960 . S
H551 C564 0.960 . S
C552 H544 0.929 . S
C552 C553 1.377 . S
C552 C554 1.384 . S
C553 C552 1.377 . S
C553 C559 1.390 . S
C554 H545 0.930 . S
C554 C552 1.384 . S
C554 C555 1.372 . S
C555 C554 1.372 . S
C555 C556 1.400 . S
C555 C560 1.490 . S
C556 H546 0.930 . S
C556 C555 1.400 . S
C556 C559 1.386 . S
H557 C573 0.930 . S
H558 C574 0.931 . S
C559 H547 0.929 1_556 S
C559 C553 1.390 . S
C559 C556 1.386 . S
C560 C555 1.490 . S
C560 C562 1.395 . S
C560 C563 1.403 . S
H561 C567 0.930 . S
C562 H548 0.930 . S
C562 C560 1.395 . S
C562 C565 1.403 . S
C563 C560 1.403 . S
C563 C564 1.524 . S
C563 C567 1.400 . S
C564 H549 0.960 . S
C564 H550 0.960 . S
C564 H551 0.960 . S
C564 C563 1.524 . S
C565 C562 1.403 . S
C565 C566 1.392 . S
C565 C569 1.495 . S
C566 C565 1.392 . S
C566 C567 1.385 . S
C566 C568 1.478 . S
C567 H561 0.930 . S
C567 C563 1.400 . S
C567 C566 1.385 . S
C568 C566 1.478 . S
C568 C570 1.381 . S
C568 C574 1.383 . S
C569 C565 1.495 . S
C569 H575 0.959 . S
C569 H576 0.961 . S
C569 H577 0.960 . S
C570 C568 1.381 . S
C570 C571 1.394 . S
C570 H578 0.930 . S
C571 C570 1.394 . S
C571 C572 1.383 . S
C571 H579 0.929 . S
C572 C571 1.383 . S
C572 C573 1.377 . S
C573 H557 0.930 . S
C573 C572 1.377 . S
C573 C574 1.379 . S
C574 H558 0.931 . S
C574 C568 1.383 . S
C574 C573 1.379 . S
H575 C569 0.959 . S
H576 C569 0.961 . S
H577 C569 0.960 . S
H578 C570 0.930 . S
H579 C571 0.929 . S
H580 C588 0.929 . S
H581 C590 0.930 . S
H582 C592 0.930 . S
H583 C595 0.929 . S
H584 C598 0.930 . S
H585 C600 0.960 . S
H586 C600 0.960 . S
H587 C600 0.960 . S
C588 H580 0.929 . S
C588 C589 1.377 . S
C588 C590 1.384 . S
C589 C588 1.377 . S
C589 C595 1.390 . S
C590 H581 0.930 . S
C590 C588 1.384 . S
C590 C591 1.372 . S
C591 C590 1.372 . S
C591 C592 1.400 . S
C591 C596 1.490 . S
C592 H582 0.930 . S
C592 C591 1.400 . S
C592 C595 1.386 . S
H593 C609 0.930 . S
H594 C610 0.931 . S
C595 H583 0.929 . S
C595 C589 1.390 . S
C595 C592 1.386 . S
C596 C591 1.490 . S
C596 C598 1.395 . S
C596 C599 1.403 . S
H597 C603 0.930 . S
C598 H584 0.930 . S
C598 C596 1.395 . S
C598 C601 1.403 . S
C599 C596 1.403 . S
C599 C600 1.524 . S
C599 C603 1.400 . S
C600 H585 0.960 . S
C600 H586 0.960 . S
C600 H587 0.960 . S
C600 C599 1.524 . S
C601 C598 1.403 . S
C601 C602 1.392 . S
C601 C605 1.495 . S
C602 C601 1.392 . S
C602 C603 1.385 . S
C602 C604 1.478 . S
C603 H597 0.930 . S
C603 C599 1.400 . S
C603 C602 1.385 . S
C604 C602 1.478 . S
C604 C606 1.381 . S
C604 C610 1.383 . S
C605 C601 1.495 . S
C605 H611 0.959 . S
C605 H612 0.961 . S
C605 H613 0.960 . S
C606 C604 1.381 . S
C606 C607 1.394 . S
C606 H614 0.930 . S
C607 C606 1.394 . S
C607 C608 1.383 . S
C607 H615 0.929 . S
C608 C607 1.383 . S
C608 C609 1.377 . S
C609 H593 0.930 . S
C609 C608 1.377 . S
C609 C610 1.379 . S
C610 H594 0.931 . S
C610 C604 1.383 . S
C610 C609 1.379 . S
H611 C605 0.959 . S
H612 C605 0.961 . S
H613 C605 0.960 . S
H614 C606 0.930 . S
H615 C607 0.929 . S
H616 C624 0.929 . S
H617 C626 0.930 . S
H618 C628 0.930 . S
H619 C631 0.929 . S
H620 C634 0.930 . S
H621 C636 0.960 . S
H622 C636 0.960 . S
H623 C636 0.960 . S
C624 H616 0.929 . S
C624 C625 1.377 . S
C624 C626 1.384 . S
C625 C624 1.377 . S
C625 C631 1.390 . S
C626 H617 0.930 . S
C626 C624 1.384 . S
C626 C627 1.372 . S
C627 C626 1.372 . S
C627 C628 1.400 . S
C627 C632 1.490 . S
C628 H618 0.930 . S
C628 C627 1.400 . S
C628 C631 1.386 . S
H629 C645 0.930 . S
H630 C646 0.931 . S
C631 H619 0.929 . S
C631 C625 1.390 . S
C631 C628 1.386 . S
C632 C627 1.490 . S
C632 C634 1.395 1_565 S
C632 C635 1.403 . S
H633 C639 0.930 . S
C634 H620 0.930 . S
C634 C632 1.395 1_545 S
C634 C637 1.403 . S
C635 C632 1.403 . S
C635 C636 1.524 . S
C635 C639 1.400 . S
C636 H621 0.960 . S
C636 H622 0.960 . S
C636 H623 0.960 . S
C636 C635 1.524 . S
C637 C634 1.403 . S
C637 C638 1.392 . S
C637 C641 1.495 . S
C638 C637 1.392 . S
C638 C639 1.385 1_545 S
C638 C640 1.478 . S
C639 H633 0.930 . S
C639 C635 1.400 . S
C639 C638 1.385 1_565 S
C640 C638 1.478 . S
C640 C642 1.381 . S
C640 C646 1.383 . S
C641 C637 1.495 . S
C641 H647 0.959 . S
C641 H648 0.961 . S
C641 H649 0.960 . S
C642 C640 1.381 . S
C642 C643 1.394 . S
C642 H650 0.930 . S
C643 C642 1.394 . S
C643 C644 1.383 . S
C643 H651 0.929 . S
C644 C643 1.383 . S
C644 C645 1.377 . S
C645 H629 0.930 . S
C645 C644 1.377 . S
C645 C646 1.379 . S
C646 H630 0.931 . S
C646 C640 1.383 . S
C646 C645 1.379 . S
H647 C641 0.959 . S
H648 C641 0.961 . S
H649 C641 0.960 . S
H650 C642 0.930 . S
H651 C643 0.929 . S
H652 C660 0.929 . S
H653 C662 0.930 . S
H654 C664 0.930 . S
H655 C667 0.929 . S
H656 C670 0.930 . S
H657 C672 0.960 . S
H658 C672 0.960 . S
H659 C672 0.960 . S
C660 H652 0.929 . S
C660 C661 1.377 . S
C660 C662 1.384 . S
C661 C660 1.377 . S
C661 C667 1.390 . S
C662 H653 0.930 . S
C662 C660 1.384 . S
C662 C663 1.372 . S
C663 C662 1.372 . S
C663 C664 1.400 . S
C663 C668 1.490 . S
C664 H654 0.930 . S
C664 C663 1.400 . S
C664 C667 1.386 . S
H665 C681 0.930 . S
H666 C682 0.931 . S
C667 H655 0.929 . S
C667 C661 1.390 . S
C667 C664 1.386 . S
C668 C663 1.490 . S
C668 C670 1.395 . S
C668 C671 1.403 1_545 S
H669 C675 0.930 . S
C670 H656 0.930 . S
C670 C668 1.395 . S
C670 C673 1.403 . S
C671 C668 1.403 1_565 S
C671 C672 1.524 . S
C671 C675 1.400 . S
C672 H657 0.960 . S
C672 H658 0.960 . S
C672 H659 0.960 . S
C672 C671 1.524 . S
C673 C670 1.403 . S
C673 C674 1.392 1_545 S
C673 C677 1.495 . S
C674 C673 1.392 1_565 S
C674 C675 1.385 . S
C674 C676 1.478 . S
C675 H669 0.930 . S
C675 C671 1.400 . S
C675 C674 1.385 . S
C676 C674 1.478 . S
C676 C678 1.381 . S
C676 C682 1.383 . S
C677 C673 1.495 . S
C677 H683 0.959 . S
C677 H684 0.961 . S
C677 H685 0.960 . S
C678 C676 1.381 . S
C678 C679 1.394 . S
C678 H686 0.930 . S
C679 C678 1.394 . S
C679 C680 1.383 . S
C679 H687 0.929 . S
C680 C679 1.383 . S
C680 C681 1.377 . S
C681 H665 0.930 . S
C681 C680 1.377 . S
C681 C682 1.379 . S
C682 H666 0.931 . S
C682 C676 1.383 . S
C682 C681 1.379 . S
H683 C677 0.959 . S
H684 C677 0.961 . S
H685 C677 0.960 . S
H686 C678 0.930 . S
H687 C679 0.929 . S
H688 C696 0.929 . S
H689 C698 0.930 . S
H690 C700 0.930 . S
H691 C703 0.929 1_554 S
H692 C706 0.930 . S
H693 C708 0.960 . S
H694 C708 0.960 . S
H695 C708 0.951 1_565 S
C696 H688 0.929 . S
C696 C697 1.377 . S
C696 C698 1.384 . S
C697 C696 1.377 . S
C697 C703 1.390 . S
C698 H689 0.930 . S
C698 C696 1.384 . S
C698 C699 1.372 . S
C699 C698 1.372 . S
C699 C700 1.400 . S
C699 C704 1.490 . S
C700 H690 0.930 . S
C700 C699 1.400 . S
C700 C703 1.386 . S
H701 C717 0.930 . S
H702 C718 0.931 . S
C703 H691 0.929 1_556 S
C703 C697 1.390 . S
C703 C700 1.386 . S
C704 C699 1.490 . S
C704 C706 1.395 . S
C704 C707 1.403 1_565 S
H705 C711 0.930 . S
C706 H692 0.930 . S
C706 C704 1.395 . S
C706 C709 1.403 . S
C707 C704 1.403 1_545 S
C707 C708 1.524 . S
C707 C711 1.400 . S
C708 H693 0.960 . S
C708 H694 0.960 . S
C708 H695 0.951 1_545 S
C708 C707 1.524 . S
C709 C706 1.403 . S
C709 C710 1.392 1_565 S
C709 C713 1.495 . S
C710 C709 1.392 1_545 S
C710 C711 1.385 . S
C710 C712 1.478 . S
C711 H705 0.930 . S
C711 C707 1.400 . S
C711 C710 1.385 . S
C712 C710 1.478 . S
C712 C714 1.381 . S
C712 C718 1.383 . S
C713 C709 1.495 . S
C713 H719 0.959 . S
C713 H720 0.961 . S
C713 H721 0.960 . S
C714 C712 1.381 . S
C714 C715 1.394 . S
C714 H722 0.930 . S
C715 C714 1.394 . S
C715 C716 1.383 . S
C715 H723 0.929 . S
C716 C715 1.383 . S
C716 C717 1.377 . S
C717 H701 0.930 . S
C717 C716 1.377 . S
C717 C718 1.379 . S
C718 H702 0.931 . S
C718 C712 1.383 . S
C718 C717 1.379 . S
H719 C713 0.959 . S
H720 C713 0.961 . S
H721 C713 0.960 . S
H722 C714 0.930 . S
H723 C715 0.929 . S
H724 C732 0.929 . S
H725 C734 0.930 . S
H726 C736 0.930 . S
H727 C739 0.929 . S
H728 C742 0.930 . S
H729 C744 0.960 . S
H730 C744 0.960 . S
H731 C744 0.960 . S
C732 H724 0.929 . S
C732 C733 1.377 . S
C732 C734 1.384 . S
C733 C732 1.377 . S
C733 C739 1.390 . S
C734 H725 0.930 . S
C734 C732 1.384 . S
C734 C735 1.372 . S
C735 C734 1.372 . S
C735 C736 1.400 . S
C735 C740 1.490 . S
C736 H726 0.930 . S
C736 C735 1.400 . S
C736 C739 1.386 . S
H737 C753 0.930 . S
H738 C754 0.931 . S
C739 H727 0.929 . S
C739 C733 1.390 . S
C739 C736 1.386 . S
C740 C735 1.490 . S
C740 C742 1.395 . S
C740 C743 1.403 1_545 S
H741 C747 0.930 . S
C742 H728 0.930 . S
C742 C740 1.395 . S
C742 C745 1.403 . S
C743 C740 1.403 1_565 S
C743 C744 1.524 . S
C743 C747 1.400 . S
C744 H729 0.960 . S
C744 H730 0.960 . S
C744 H731 0.960 . S
C744 C743 1.524 . S
C745 C742 1.403 . S
C745 C746 1.392 1_545 S
C745 C749 1.495 . S
C746 C745 1.392 1_565 S
C746 C747 1.385 . S
C746 C748 1.478 . S
C747 H741 0.930 . S
C747 C743 1.400 . S
C747 C746 1.385 . S
C748 C746 1.478 . S
C748 C750 1.381 . S
C748 C754 1.383 . S
C749 C745 1.495 . S
C749 H755 0.959 . S
C749 H756 0.961 . S
C749 H757 0.960 . S
C750 C748 1.381 . S
C750 C751 1.394 . S
C750 H758 0.930 . S
C751 C750 1.394 . S
C751 C752 1.383 . S
C751 H759 0.929 . S
C752 C751 1.383 . S
C752 C753 1.377 . S
C753 H737 0.930 . S
C753 C752 1.377 . S
C753 C754 1.379 . S
C754 H738 0.931 . S
C754 C748 1.383 . S
C754 C753 1.379 . S
H755 C749 0.959 . S
H756 C749 0.961 . S
H757 C749 0.960 . S
H758 C750 0.930 . S
H759 C751 0.929 . S
H760 C768 0.929 . S
H761 C770 0.930 . S
H762 C772 0.930 . S
H763 C775 0.929 . S
H764 C778 0.930 . S
H765 C780 0.960 . S
H766 C780 0.960 . S
H767 C780 0.960 . S
C768 H760 0.929 . S
C768 C769 1.377 . S
C768 C770 1.384 . S
C769 C768 1.377 . S
C769 C775 1.390 . S
C770 H761 0.930 . S
C770 C768 1.384 . S
C770 C771 1.372 . S
C771 C770 1.372 . S
C771 C772 1.400 . S
C771 C776 1.490 . S
C772 H762 0.930 . S
C772 C771 1.400 . S
C772 C775 1.386 . S
H773 C789 0.930 . S
H774 C790 0.931 . S
C775 H763 0.929 . S
C775 C769 1.390 . S
C775 C772 1.386 . S
C776 C771 1.490 . S
C776 C778 1.395 . S
C776 C779 1.403 . S
H777 C783 0.930 . S
C778 H764 0.930 . S
C778 C776 1.395 . S
C778 C781 1.403 . S
C779 C776 1.403 . S
C779 C780 1.524 . S
C779 C783 1.400 . S
C780 H765 0.960 . S
C780 H766 0.960 . S
C780 H767 0.960 . S
C780 C779 1.524 . S
C781 C778 1.403 . S
C781 C782 1.392 . S
C781 C785 1.495 . S
C782 C781 1.392 . S
C782 C783 1.385 . S
C782 C784 1.478 . S
C783 H777 0.930 . S
C783 C779 1.400 . S
C783 C782 1.385 . S
C784 C782 1.478 . S
C784 C786 1.381 . S
C784 C790 1.383 . S
C785 C781 1.495 . S
C785 H791 0.959 . S
C785 H792 0.961 . S
C785 H793 0.960 . S
C786 C784 1.381 . S
C786 C787 1.394 . S
C786 H794 0.930 . S
C787 C786 1.394 . S
C787 C788 1.383 . S
C787 H795 0.929 . S
C788 C787 1.383 . S
C788 C789 1.377 . S
C789 H773 0.930 . S
C789 C788 1.377 . S
C789 C790 1.379 . S
C790 H774 0.931 . S
C790 C784 1.383 . S
C790 C789 1.379 . S
H791 C785 0.959 . S
H792 C785 0.961 . S
H793 C785 0.960 . S
H794 C786 0.930 . S
H795 C787 0.929 . S
H796 C804 0.929 . S
H797 C806 0.930 . S
H798 C808 0.930 . S
H799 C811 0.929 . S
H800 C814 0.930 . S
H801 C816 0.960 . S
H802 C816 0.960 . S
H803 C816 0.960 . S
C804 H796 0.929 . S
C804 C805 1.377 . S
C804 C806 1.384 . S
C805 C804 1.377 . S
C805 C811 1.390 . S
C806 H797 0.930 . S
C806 C804 1.384 . S
C806 C807 1.372 . S
C807 C806 1.372 . S
C807 C808 1.400 . S
C807 C812 1.490 . S
C808 H798 0.930 . S
C808 C807 1.400 . S
C808 C811 1.386 . S
H809 C825 0.930 . S
H810 C826 0.931 . S
C811 H799 0.929 . S
C811 C805 1.390 . S
C811 C808 1.386 . S
C812 C807 1.490 . S
C812 C814 1.395 . S
C812 C815 1.403 . S
H813 C819 0.930 . S
C814 H800 0.930 . S
C814 C812 1.395 . S
C814 C817 1.403 . S
C815 C812 1.403 . S
C815 C816 1.524 . S
C815 C819 1.400 . S
C816 H801 0.960 . S
C816 H802 0.960 . S
C816 H803 0.960 . S
C816 C815 1.524 . S
C817 C814 1.403 . S
C817 C818 1.392 . S
C817 C821 1.495 . S
C818 C817 1.392 . S
C818 C819 1.385 . S
C818 C820 1.478 . S
C819 H813 0.930 . S
C819 C815 1.400 . S
C819 C818 1.385 . S
C820 C818 1.478 . S
C820 C822 1.381 . S
C820 C826 1.383 . S
C821 C817 1.495 . S
C821 H827 0.959 . S
C821 H828 0.961 . S
C821 H829 0.960 . S
C822 C820 1.381 . S
C822 C823 1.394 . S
C822 H830 0.930 . S
C823 C822 1.394 . S
C823 C824 1.383 . S
C823 H831 0.929 . S
C824 C823 1.383 . S
C824 C825 1.377 . S
C825 H809 0.930 . S
C825 C824 1.377 . S
C825 C826 1.379 . S
C826 H810 0.931 . S
C826 C820 1.383 . S
C826 C825 1.379 . S
H827 C821 0.959 . S
H828 C821 0.961 . S
H829 C821 0.960 . S
H830 C822 0.930 . S
H831 C823 0.929 . S
H832 C840 0.929 . S
H833 C842 0.930 . S
H834 C844 0.930 . S
H835 C847 0.929 . S
H836 C850 0.930 . S
H837 C852 0.960 . S
H838 C852 0.960 . S
H839 C852 0.960 . S
C840 H832 0.929 . S
C840 C841 1.377 . S
C840 C842 1.384 . S
C841 C840 1.377 . S
C841 C847 1.390 . S
C842 H833 0.930 . S
C842 C840 1.384 . S
C842 C843 1.372 . S
C843 C842 1.372 . S
C843 C844 1.400 . S
C843 C848 1.490 . S
C844 H834 0.930 . S
C844 C843 1.400 . S
C844 C847 1.386 . S
H845 C861 0.930 . S
H846 C862 0.931 . S
C847 H835 0.929 . S
C847 C841 1.390 . S
C847 C844 1.386 . S
C848 C843 1.490 . S
C848 C850 1.395 . S
C848 C851 1.403 . S
H849 C855 0.930 . S
C850 H836 0.930 . S
C850 C848 1.395 . S
C850 C853 1.403 . S
C851 C848 1.403 . S
C851 C852 1.524 . S
C851 C855 1.400 . S
C852 H837 0.960 . S
C852 H838 0.960 . S
C852 H839 0.960 . S
C852 C851 1.524 . S
C853 C850 1.403 . S
C853 C854 1.392 . S
C853 C857 1.495 . S
C854 C853 1.392 . S
C854 C855 1.385 . S
C854 C856 1.478 . S
C855 H849 0.930 . S
C855 C851 1.400 . S
C855 C854 1.385 . S
C856 C854 1.478 . S
C856 C858 1.381 . S
C856 C862 1.383 . S
C857 C853 1.495 . S
C857 H863 0.959 . S
C857 H864 0.961 . S
C857 H865 0.960 . S
C858 C856 1.381 . S
C858 C859 1.394 . S
C858 H866 0.930 . S
C859 C858 1.394 . S
C859 C860 1.383 . S
C859 H867 0.929 . S
C860 C859 1.383 . S
C860 C861 1.377 . S
C861 H845 0.930 . S
C861 C860 1.377 . S
C861 C862 1.379 . S
C862 H846 0.931 . S
C862 C856 1.383 . S
C862 C861 1.379 . S
H863 C857 0.959 . S
H864 C857 0.961 . S
H865 C857 0.960 . S
H866 C858 0.930 . S
H867 C859 0.929 . S
H868 C876 0.929 . S
H869 C878 0.930 . S
H870 C880 0.930 . S
H871 C883 0.929 . S
H872 C886 0.930 . S
H873 C888 0.960 . S
H874 C888 0.960 . S
H875 C888 0.960 . S
C876 H868 0.929 . S
C876 C877 1.377 . S
C876 C878 1.384 . S
C877 C876 1.377 . S
C877 C883 1.390 . S
C878 H869 0.930 . S
C878 C876 1.384 . S
C878 C879 1.372 . S
C879 C878 1.372 . S
C879 C880 1.400 . S
C879 C884 1.490 . S
C880 H870 0.930 . S
C880 C879 1.400 . S
C880 C883 1.386 . S
H881 C897 0.930 . S
H882 C898 0.931 . S
C883 H871 0.929 . S
C883 C877 1.390 . S
C883 C880 1.386 . S
C884 C879 1.490 . S
C884 C886 1.395 . S
C884 C887 1.403 . S
H885 C891 0.930 . S
C886 H872 0.930 . S
C886 C884 1.395 . S
C886 C889 1.403 . S
C887 C884 1.403 . S
C887 C888 1.524 . S
C887 C891 1.400 . S
C888 H873 0.960 . S
C888 H874 0.960 . S
C888 H875 0.960 . S
C888 C887 1.524 . S
C889 C886 1.403 . S
C889 C890 1.392 . S
C889 C893 1.495 . S
C890 C889 1.392 . S
C890 C891 1.385 . S
C890 C892 1.478 . S
C891 H885 0.930 . S
C891 C887 1.400 . S
C891 C890 1.385 . S
C892 C890 1.478 . S
C892 C894 1.381 . S
C892 C898 1.383 . S
C893 C889 1.495 . S
C893 H899 0.959 . S
C893 H900 0.961 . S
C893 H901 0.960 . S
C894 C892 1.381 . S
C894 C895 1.394 . S
C894 H902 0.930 . S
C895 C894 1.394 . S
C895 C896 1.383 . S
C895 H903 0.929 . S
C896 C895 1.383 . S
C896 C897 1.377 . S
C897 H881 0.930 . S
C897 C896 1.377 . S
C897 C898 1.379 . S
C898 H882 0.931 . S
C898 C892 1.383 . S
C898 C897 1.379 . S
H899 C893 0.959 . S
H900 C893 0.961 . S
H901 C893 0.960 . S
H902 C894 0.930 . S
H903 C895 0.929 . S
H904 C912 0.929 . S
H905 C914 0.930 . S
H906 C916 0.930 . S
H907 C919 0.929 . S
H908 C922 0.930 . S
H909 C924 0.960 . S
H910 C924 0.960 . S
H911 C924 0.960 . S
C912 H904 0.929 . S
C912 C913 1.377 . S
C912 C914 1.384 . S
C913 C912 1.377 . S
C913 C919 1.390 . S
C914 H905 0.930 . S
C914 C912 1.384 . S
C914 C915 1.372 . S
C915 C914 1.372 . S
C915 C916 1.400 . S
C915 C920 1.490 . S
C916 H906 0.930 . S
C916 C915 1.400 . S
C916 C919 1.386 . S
H917 C933 0.930 . S
H918 C934 0.931 . S
C919 H907 0.929 . S
C919 C913 1.390 . S
C919 C916 1.386 . S
C920 C915 1.490 . S
C920 C922 1.395 . S
C920 C923 1.403 . S
H921 C927 0.930 . S
C922 H908 0.930 . S
C922 C920 1.395 . S
C922 C925 1.403 . S
C923 C920 1.403 . S
C923 C924 1.524 . S
C923 C927 1.400 . S
C924 H909 0.960 . S
C924 H910 0.960 . S
C924 H911 0.960 . S
C924 C923 1.524 . S
C925 C922 1.403 . S
C925 C926 1.392 . S
C925 C929 1.495 . S
C926 C925 1.392 . S
C926 C927 1.385 . S
C926 C928 1.478 . S
C927 H921 0.930 . S
C927 C923 1.400 . S
C927 C926 1.385 . S
C928 C926 1.478 . S
C928 C930 1.381 . S
C928 C934 1.383 . S
C929 C925 1.495 . S
C929 H935 0.959 . S
C929 H936 0.961 . S
C929 H937 0.960 . S
C930 C928 1.381 . S
C930 C931 1.394 . S
C930 H938 0.930 . S
C931 C930 1.394 . S
C931 C932 1.383 . S
C931 H939 0.929 . S
C932 C931 1.383 . S
C932 C933 1.377 . S
C933 H917 0.930 . S
C933 C932 1.377 . S
C933 C934 1.379 . S
C934 H918 0.931 . S
C934 C928 1.383 . S
C934 C933 1.379 . S
H935 C929 0.959 . S
H936 C929 0.961 . S
H937 C929 0.960 . S
H938 C930 0.930 . S
H939 C931 0.929 . S
H940 C948 0.929 . S
H941 C950 0.930 . S
H942 C952 0.930 . S
H943 C955 0.929 . S
H944 C958 0.930 . S
H945 C960 0.960 . S
H946 C960 0.960 . S
H947 C960 0.960 . S
C948 H940 0.929 . S
C948 C949 1.377 . S
C948 C950 1.384 . S
C949 C948 1.377 . S
C949 C955 1.390 . S
C950 H941 0.930 . S
C950 C948 1.384 . S
C950 C951 1.372 . S
C951 C950 1.372 . S
C951 C952 1.400 . S
C951 C956 1.490 . S
C952 H942 0.930 . S
C952 C951 1.400 . S
C952 C955 1.386 . S
H953 C969 0.930 . S
H954 C970 0.931 . S
C955 H943 0.929 . S
C955 C949 1.390 . S
C955 C952 1.386 . S
C956 C951 1.490 . S
C956 C958 1.395 . S
C956 C959 1.403 . S
H957 C963 0.930 . S
C958 H944 0.930 . S
C958 C956 1.395 . S
C958 C961 1.403 . S
C959 C956 1.403 . S
C959 C960 1.524 . S
C959 C963 1.400 . S
C960 H945 0.960 . S
C960 H946 0.960 . S
C960 H947 0.960 . S
C960 C959 1.524 . S
C961 C958 1.403 . S
C961 C962 1.392 . S
C961 C965 1.495 . S
C962 C961 1.392 . S
C962 C963 1.385 . S
C962 C964 1.478 . S
C963 H957 0.930 . S
C963 C959 1.400 . S
C963 C962 1.385 . S
C964 C962 1.478 . S
C964 C966 1.381 . S
C964 C970 1.383 . S
C965 C961 1.495 . S
C965 H971 0.959 . S
C965 H972 0.961 . S
C965 H973 0.960 . S
C966 C964 1.381 . S
C966 C967 1.394 . S
C966 H974 0.930 . S
C967 C966 1.394 . S
C967 C968 1.383 . S
C967 H975 0.929 . S
C968 C967 1.383 . S
C968 C969 1.377 . S
C969 H953 0.930 . S
C969 C968 1.377 . S
C969 C970 1.379 . S
C970 H954 0.931 . S
C970 C964 1.383 . S
C970 C969 1.379 . S
H971 C965 0.959 . S
H972 C965 0.961 . S
H973 C965 0.960 . S
H974 C966 0.930 . S
H975 C967 0.929 . S
H976 C984 0.929 . S
H977 C986 0.930 . S
H978 C988 0.930 . S
H979 C991 0.929 . S
H980 C994 0.930 . S
H981 C996 0.960 . S
H982 C996 0.960 . S
H983 C996 0.960 . S
C984 H976 0.929 . S
C984 C985 1.377 . S
C984 C986 1.384 . S
C985 C984 1.377 . S
C985 C991 1.390 . S
C986 H977 0.930 . S
C986 C984 1.384 . S
C986 C987 1.372 . S
C987 C986 1.372 . S
C987 C988 1.400 . S
C987 C992 1.490 . S
C988 H978 0.930 . S
C988 C987 1.400 . S
C988 C991 1.386 . S
H989 C1005 0.930 . S
H990 C1006 0.931 . S
C991 H979 0.929 . S
C991 C985 1.390 . S
C991 C988 1.386 . S
C992 C987 1.490 . S
C992 C994 1.395 . S
C992 C995 1.403 . S
H993 C999 0.930 . S
C994 H980 0.930 . S
C994 C992 1.395 . S
C994 C997 1.403 . S
C995 C992 1.403 . S
C995 C996 1.524 . S
C995 C999 1.400 . S
C996 H981 0.960 . S
C996 H982 0.960 . S
C996 H983 0.960 . S
C996 C995 1.524 . S
C997 C994 1.403 . S
C997 C998 1.392 . S
C997 C1001 1.495 . S
C998 C997 1.392 . S
C998 C999 1.385 . S
C998 C1000 1.478 . S
C999 H993 0.930 . S
C999 C995 1.400 . S
C999 C998 1.385 . S
C1000 C998 1.478 . S
C1000 C1002 1.381 . S
C1000 C1006 1.383 . S
C1001 C997 1.495 . S
C1001 H1007 0.959 . S
C1001 H1008 0.961 . S
C1001 H1009 0.960 . S
C1002 C1000 1.381 . S
C1002 C1003 1.394 . S
C1002 H1010 0.930 . S
C1003 C1002 1.394 . S
C1003 C1004 1.383 . S
C1003 H1011 0.929 . S
C1004 C1003 1.383 . S
C1004 C1005 1.377 . S
C1005 H989 0.930 . S
C1005 C1004 1.377 . S
C1005 C1006 1.379 . S
C1006 H990 0.931 . S
C1006 C1000 1.383 . S
C1006 C1005 1.379 . S
H1007 C1001 0.959 . S
H1008 C1001 0.961 . S
H1009 C1001 0.960 . S
H1010 C1002 0.930 . S
H1011 C1003 0.929 . S
H1012 C1020 0.929 . S
H1013 C1022 0.930 . S
H1014 C1024 0.930 . S
H1015 C1027 0.929 . S
H1016 C1030 0.930 . S
H1017 C1032 0.960 . S
H1018 C1032 0.960 . S
H1019 C1032 0.960 . S
C1020 H1012 0.929 . S
C1020 C1021 1.377 . S
C1020 C1022 1.384 . S
C1021 C1020 1.377 . S
C1021 C1027 1.390 . S
C1022 H1013 0.930 . S
C1022 C1020 1.384 . S
C1022 C1023 1.372 . S
C1023 C1022 1.372 . S
C1023 C1024 1.400 . S
C1023 C1028 1.490 . S
C1024 H1014 0.930 . S
C1024 C1023 1.400 . S
C1024 C1027 1.386 . S
H1025 C1041 0.930 . S
H1026 C1042 0.931 . S
C1027 H1015 0.929 . S
C1027 C1021 1.390 . S
C1027 C1024 1.386 . S
C1028 C1023 1.490 . S
C1028 C1030 1.395 . S
C1028 C1031 1.403 . S
H1029 C1035 0.930 . S
C1030 H1016 0.930 . S
C1030 C1028 1.395 . S
C1030 C1033 1.403 . S
C1031 C1028 1.403 . S
C1031 C1032 1.524 . S
C1031 C1035 1.400 . S
C1032 H1017 0.960 . S
C1032 H1018 0.960 . S
C1032 H1019 0.960 . S
C1032 C1031 1.524 . S
C1033 C1030 1.403 . S
C1033 C1034 1.392 . S
C1033 C1037 1.495 . S
C1034 C1033 1.392 . S
C1034 C1035 1.385 . S
C1034 C1036 1.478 . S
C1035 H1029 0.930 . S
C1035 C1031 1.400 . S
C1035 C1034 1.385 . S
C1036 C1034 1.478 . S
C1036 C1038 1.381 . S
C1036 C1042 1.383 . S
C1037 C1033 1.495 . S
C1037 H1043 0.959 . S
C1037 H1044 0.961 . S
C1037 H1045 0.960 . S
C1038 C1036 1.381 . S
C1038 C1039 1.394 . S
C1038 H1046 0.930 . S
C1039 C1038 1.394 . S
C1039 C1040 1.383 . S
C1039 H1047 0.929 . S
C1040 C1039 1.383 . S
C1040 C1041 1.377 . S
C1041 H1025 0.930 . S
C1041 C1040 1.377 . S
C1041 C1042 1.379 . S
C1042 H1026 0.931 . S
C1042 C1036 1.383 . S
C1042 C1041 1.379 . S
H1043 C1037 0.959 . S
H1044 C1037 0.961 . S
H1045 C1037 0.960 . S
H1046 C1038 0.930 . S
H1047 C1039 0.929 . S
C193 C4 1.547 . S
C212 C122 1.513 . S
C248 C100 1.509 . S
C229 C16 1.547 . S
C284 C126 1.510 . S
C265 C28 1.535 . S
C320 C104 1.529 . S
C301 C40 1.537 . S
C356 C166 1.519 . S
C337 C52 1.548 . S
C392 C144 1.520 . S
C373 C64 1.548 . S
C409 C76 1.541 . S
C428 C170 1.543 . S
C464 C148 1.515 . S
C445 C88 1.535 . S
C481 C9 1.491 . S
C500 C171 1.489 . S
C536 C149 1.499 . S
C517 C21 1.495 . S
C553 C33 1.501 . S
C572 C168 1.492 . S
C589 C45 1.501 . S
C608 C146 1.491 . S
C644 C127 1.511 . S
C625 C57 1.494 . S
C661 C69 1.488 . S
C680 C105 1.493 . S
C716 C124 1.503 . S
C697 C81 1.499 . S
C752 C102 1.502 . S
C733 C93 1.500 . S
C788 C145 1.451 . S
C769 C6 1.474 . S
C824 C167 1.455 . S
C805 C18 1.470 . S
C841 C30 1.482 . S
C860 C147 1.484 . S
C896 C169 1.482 . S
C877 C42 1.484 . S
C932 C101 1.451 . S
C913 C54 1.473 . S
C949 C66 1.473 . S
C968 C123 1.482 . S
C985 C78 1.483 . S
C1004 C103 1.483 . S
C1021 C90 1.482 . S
C1040 C125 1.485 . S
