# Generated by pormake.
# Topology rtl, (3,6)-cn, num edge types: 1
# Building blocks:
#     Node 0, Type 0, BuildingBlock: VETTIZ_charged_linker_0, # of connection points: 3
#     Node 1, Type 0, BuildingBlock: VETTIZ_charged_linker_0, # of connection points: 3
#     Node 2, Type 0, BuildingBlock: VETTIZ_charged_linker_0, # of connection points: 3
#     Node 3, Type 0, BuildingBlock: VETTIZ_charged_linker_0, # of connection points: 3
#     Node 4, Type 1, BuildingBlock: FUNLAD_clean_sbu_0, # of connection points: 6
#     Node 5, Type 1, BuildingBlock: FUNLAD_clean_sbu_0, # of connection points: 6
#     Edge 6, Type (0, 1), BuildingBlock: FUNLAD_clean_linker_1, # of connection points: 2
#     Edge 7, Type (0, 1), BuildingBlock: FUNLAD_clean_linker_1, # of connection points: 2
#     Edge 8, Type (0, 1), BuildingBlock: FUNLAD_clean_linker_1, # of connection points: 2
#     Edge 9, Type (0, 1), BuildingBlock: FUNLAD_clean_linker_1, # of connection points: 2
#     Edge 10, Type (0, 1), BuildingBlock: FUNLAD_clean_linker_1, # of connection points: 2
#     Edge 11, Type (0, 1), BuildingBlock: FUNLAD_clean_linker_1, # of connection points: 2
#     Edge 12, Type (0, 1), BuildingBlock: FUNLAD_clean_linker_1, # of connection points: 2
#     Edge 13, Type (0, 1), BuildingBlock: FUNLAD_clean_linker_1, # of connection points: 2
#     Edge 14, Type (0, 1), BuildingBlock: FUNLAD_clean_linker_1, # of connection points: 2
#     Edge 15, Type (0, 1), BuildingBlock: FUNLAD_clean_linker_1, # of connection points: 2
#     Edge 16, Type (0, 1), BuildingBlock: FUNLAD_clean_linker_1, # of connection points: 2
#     Edge 17, Type (0, 1), BuildingBlock: FUNLAD_clean_linker_1, # of connection points: 2
# Relax obj value: 0.029
# Max RMSD: 0.095
# Mean RMSD: 0.080
data_MOF--net-rtl--node1-FUNLAD_clean_sbu_0--node2-VETTIZ_charged_linker_0--edge1-FUNLAD_clean_linker_1
_symmetry_space_group_name_H-M    P1
_symmetry_Int_Tables_number       1
_symmetry_cell_setting            triclinic
loop_
_symmetry_equiv_pos_as_xyz
'x, y, z'
_cell_length_a     50.199731
_cell_length_b     40.861831
_cell_length_c     29.249069
_cell_angle_alpha  89.93267
_cell_angle_beta   90.802666
_cell_angle_gamma 90.832008
loop_
_atom_site_label
_atom_site_type_symbol
_atom_site_fract_x
_atom_site_fract_y
_atom_site_fract_z
_atom_type_partial_charge
C0 C 0.11347 0.82854 0.87399 0.0
C1 C 0.09343 0.85215 0.87155 0.0
C2 C 0.08114 0.86217 0.91223 0.0
C3 C 0.10893 0.82548 0.95642 0.0
C4 C 0.12075 0.8154 0.91656 0.0
C5 C 0.14176 0.79015 0.9253 0.0
H6 H 0.21489 0.70235 0.07673 0.0
C7 C 0.12169 0.80808 0.99499 0.0
C8 C 0.14083 0.78717 0.97703 0.0
H9 H 0.21852 0.70165 0.92902 0.0
H10 H 0.18282 0.74009 0.9245 0.0
H11 H 0.20866 0.7788 0.08722 0.0
H12 H 0.14972 0.70119 0.08134 0.0
H13 H 0.14059 0.72844 0.12469 0.0
H14 H 0.17173 0.70719 0.1296 0.0
H15 H 0.20327 0.75135 0.13423 0.0
H16 H 0.18416 0.78809 0.12718 0.0
C17 C 0.16878 0.80438 0.90898 0.0
C18 C 0.13284 0.75796 0.90121 0.0
C19 C 0.09637 0.83615 0.15742 0.0
C20 C 0.10578 0.82584 0.20059 0.0
C21 C 0.12556 0.80178 0.20282 0.0
C22 C 0.1358 0.78814 0.16284 0.0
C23 C 0.12641 0.799 0.12 0.0
C24 C 0.10688 0.82244 0.1179 0.0
C25 C 0.09976 0.8318 0.06962 0.0
C26 C 0.1183 0.81019 0.04298 0.0
C27 C 0.1339 0.79107 0.07259 0.0
C28 C 0.10653 0.86869 0.06331 0.0
C29 C 0.07008 0.82248 0.06083 0.0
C30 C 0.20791 0.71047 0.04343 0.0
C31 C 0.22009 0.69956 0.0034 0.0
C32 C 0.21026 0.71042 0.96061 0.0
C33 C 0.18927 0.73261 0.95798 0.0
C34 C 0.17789 0.74409 0.99842 0.0
C35 C 0.18703 0.73273 0.04021 0.0
C36 C 0.17256 0.74765 0.07958 0.0
C37 C 0.1532 0.76976 0.0545 0.0
C38 C 0.15651 0.76769 0.00698 0.0
C39 C 0.19307 0.76738 0.109 0.0
C40 C 0.15795 0.71983 0.1056 0.0
H41 H 0.07879 0.85775 0.98415 0.0
H42 H 0.12333 0.8205 0.84334 0.0
H43 H 0.11075 0.75518 0.90085 0.0
H44 H 0.14006 0.73588 0.91907 0.0
H45 H 0.1395 0.7575 0.86517 0.0
H46 H 0.17063 0.83086 0.91745 0.0
H47 H 0.1707 0.80188 0.87136 0.0
H48 H 0.18613 0.79299 0.92584 0.0
H49 H 0.08191 0.85538 0.15394 0.0
H50 H 0.13327 0.7937 0.23567 0.0
H51 H 0.15091 0.77002 0.16686 0.0
H52 H 0.12463 0.8758 0.08355 0.0
H53 H 0.08994 0.88421 0.07489 0.0
H54 H 0.11139 0.87524 0.02775 0.0
H55 H 0.06446 0.79987 0.07985 0.0
H56 H 0.06563 0.81665 0.02462 0.0
H57 H 0.05675 0.84227 0.07213 0.0
H58 H 0.0662 0.88099 0.91185 0.0
C59 C 0.08871 0.84887 0.9545 0.0
C60 C 0.591 0.69578 0.65341 0.0
C61 C 0.56752 0.67649 0.65515 0.0
C62 C 0.55295 0.67052 0.61448 0.0
C63 C 0.58597 0.70034 0.57092 0.0
C64 C 0.59976 0.70751 0.61098 0.0
C65 C 0.62423 0.72832 0.60249 0.0
H66 H 0.70796 0.79951 0.45055 0.0
C67 C 0.60073 0.715 0.53255 0.0
C68 C 0.62303 0.73182 0.55072 0.0
H69 H 0.71427 0.80009 0.59817 0.0
H70 H 0.67275 0.77009 0.60319 0.0
H71 H 0.68771 0.72393 0.4417 0.0
H72 H 0.64652 0.81559 0.44477 0.0
H73 H 0.62893 0.79028 0.40604 0.0
H74 H 0.66306 0.80182 0.39448 0.0
H75 H 0.6895 0.75368 0.39657 0.0
H76 H 0.66322 0.72331 0.39811 0.0
C77 C 0.64889 0.70891 0.61872 0.0
C78 C 0.62083 0.76159 0.6269 0.0
C79 C 0.57091 0.68973 0.36975 0.0
C80 C 0.58109 0.69851 0.32683 0.0
C81 C 0.60277 0.72064 0.32471 0.0
C82 C 0.61509 0.73253 0.36484 0.0
C83 C 0.60544 0.72237 0.40757 0.0
C84 C 0.58333 0.70192 0.40943 0.0
C85 C 0.57521 0.69456 0.45765 0.0
C86 C 0.59655 0.71327 0.48452 0.0
C87 C 0.61433 0.72925 0.45506 0.0
C88 C 0.5771 0.65709 0.46506 0.0
C89 C 0.54706 0.70868 0.46505 0.0
C90 C 0.70032 0.79323 0.48395 0.0
C91 C 0.71428 0.80261 0.52384 0.0
C92 C 0.70372 0.79394 0.56676 0.0
C93 C 0.67966 0.77618 0.56965 0.0
C94 C 0.66603 0.76681 0.52932 0.0
C95 C 0.6763 0.77566 0.48742 0.0
C96 C 0.65907 0.76399 0.44812 0.0
C97 C 0.63681 0.74649 0.47328 0.0
C98 C 0.64108 0.74795 0.52085 0.0
C99 C 0.6756 0.7401 0.4192 0.0
C100 C 0.64892 0.79431 0.42155 0.0
H101 H 0.55019 0.67633 0.54278 0.0
H102 H 0.60229 0.70184 0.6841 0.0
H103 H 0.59956 0.76888 0.62682 0.0
H104 H 0.63135 0.78193 0.60957 0.0
H105 H 0.62774 0.76035 0.6631 0.0
H106 H 0.64679 0.68269 0.60891 0.0
H107 H 0.65128 0.71004 0.6565 0.0
H108 H 0.66757 0.71745 0.60298 0.0
H109 H 0.55362 0.67374 0.37254 0.0
H110 H 0.61064 0.72803 0.29191 0.0
H111 H 0.63188 0.7488 0.36101 0.0
H112 H 0.59541 0.64748 0.44914 0.0
H113 H 0.5597 0.64409 0.44929 0.0
H114 H 0.57859 0.65 0.50136 0.0
H115 H 0.54307 0.7296 0.44167 0.0
H116 H 0.54472 0.71892 0.49976 0.0
H117 H 0.53126 0.68987 0.45866 0.0
H118 H 0.5347 0.65603 0.61506 0.0
C119 C 0.56203 0.68224 0.57249 0.0
C120 C 0.88978 0.19212 0.15096 0.0
C121 C 0.91158 0.17138 0.1577 0.0
C122 C 0.92865 0.16548 0.12068 0.0
C123 C 0.90179 0.20001 0.07159 0.0
C124 C 0.88529 0.20613 0.10788 0.0
C125 C 0.86254 0.2279 0.09461 0.0
H126 H 0.79381 0.30882 0.93022 0.0
C127 C 0.8908 0.21676 0.0309 0.0
C128 C 0.86783 0.23318 0.0441 0.0
H129 H 0.77831 0.3033 0.07522 0.0
H130 H 0.81699 0.27048 0.08673 0.0
H131 H 0.85884 0.31989 0.94217 0.0
H132 H 0.80967 0.23405 0.91806 0.0
H133 H 0.83834 0.23038 0.8849 0.0
H134 H 0.8159 0.2637 0.87402 0.0
H135 H 0.84074 0.31306 0.88956 0.0
H136 H 0.87338 0.29635 0.89898 0.0
C137 C 0.86537 0.26015 0.12229 0.0
C138 C 0.83618 0.20861 0.10246 0.0
C139 C 0.93454 0.20097 0.87765 0.0
C140 C 0.92718 0.20933 0.8328 0.0
C141 C 0.90473 0.22913 0.82536 0.0
C142 C 0.8894 0.23957 0.86226 0.0
C143 C 0.89644 0.22982 0.90693 0.0
C144 C 0.91878 0.21097 0.91392 0.0
C145 C 0.92245 0.20107 0.96302 0.0
C146 C 0.89879 0.21734 0.98459 0.0
C147 C 0.88367 0.23433 0.95175 0.0
C148 C 0.94921 0.21596 0.9807 0.0
C149 C 0.92051 0.16314 0.96583 0.0
C150 C 0.7988 0.30041 0.96438 0.0
C151 C 0.78244 0.30785 0.00147 0.0
C152 C 0.78981 0.29693 0.0456 0.0
C153 C 0.81257 0.2781 0.0524 0.0
C154 C 0.82829 0.27007 0.01485 0.0
C155 C 0.82152 0.28143 0.97178 0.0
C156 C 0.84088 0.27059 0.93612 0.0
C157 C 0.86041 0.25111 0.96507 0.0
C158 C 0.85276 0.25075 0.01108 0.0
C159 C 0.85416 0.30144 0.91517 0.0
C160 C 0.82556 0.2487 0.90108 0.0
H161 H 0.9375 0.17413 0.05115 0.0
H162 H 0.87625 0.197 0.17859 0.0
H163 H 0.83824 0.18254 0.09231 0.0
H164 H 0.81934 0.21766 0.08164 0.0
H165 H 0.8306 0.20907 0.13906 0.0
H166 H 0.88663 0.26602 0.13038 0.0
H167 H 0.85467 0.25839 0.15521 0.0
H168 H 0.85821 0.28168 0.10303 0.0
H169 H 0.95152 0.18549 0.88423 0.0
H170 H 0.89892 0.23636 0.79106 0.0
H171 H 0.87241 0.25432 0.85454 0.0
H172 H 0.95233 0.24107 0.96683 0.0
H173 H 0.96627 0.20091 0.96997 0.0
H174 H 0.94998 0.21887 0.01823 0.0
H175 H 0.90764 0.15289 0.9379 0.0
H176 H 0.91106 0.15432 0.99753 0.0
H177 H 0.94044 0.15193 0.96287 0.0
H178 H 0.94525 0.14905 0.12383 0.0
C179 C 0.92394 0.17984 0.07791 0.0
C180 C 0.40611 0.29964 0.35559 0.0
C181 C 0.42843 0.32098 0.35383 0.0
C182 C 0.44248 0.32841 0.39456 0.0
C183 C 0.41154 0.29533 0.43806 0.0
C184 C 0.39812 0.28705 0.39805 0.0
C185 C 0.37506 0.26388 0.40666 0.0
H186 H 0.30047 0.17849 0.5593 0.0
C187 C 0.39809 0.27883 0.47639 0.0
C188 C 0.37684 0.25999 0.45837 0.0
H189 H 0.28993 0.18263 0.41245 0.0
H190 H 0.32835 0.2185 0.40667 0.0
H191 H 0.36422 0.17235 0.56003 0.0
H192 H 0.31235 0.25483 0.57163 0.0
H193 H 0.33839 0.26049 0.61159 0.0
H194 H 0.31649 0.22539 0.61667 0.0
H195 H 0.34563 0.18016 0.61074 0.0
H196 H 0.37814 0.19838 0.60204 0.0
C197 C 0.38041 0.23134 0.38156 0.0
C198 C 0.34909 0.28093 0.39129 0.0
C199 C 0.42819 0.3043 0.63889 0.0
C200 C 0.41914 0.29392 0.68188 0.0
C201 C 0.39917 0.26947 0.68405 0.0
C202 C 0.38733 0.25678 0.64397 0.0
C203 C 0.39574 0.26853 0.60122 0.0
C204 C 0.41623 0.29139 0.59927 0.0
C205 C 0.42315 0.30046 0.55105 0.0
C206 C 0.40281 0.28007 0.5243 0.0
C207 C 0.38674 0.26157 0.55379 0.0
C208 C 0.45211 0.28953 0.54214 0.0
C209 C 0.41854 0.33766 0.54507 0.0
C210 C 0.30653 0.18703 0.52587 0.0
C211 C 0.29188 0.1781 0.48653 0.0
C212 C 0.30039 0.18971 0.44356 0.0
C213 C 0.32287 0.21041 0.44021 0.0
C214 C 0.33696 0.21968 0.48014 0.0
C215 C 0.3287 0.20791 0.52202 0.0
C216 C 0.34551 0.22088 0.56103 0.0
C217 C 0.36546 0.24211 0.53573 0.0
C218 C 0.36044 0.24136 0.48831 0.0
C219 C 0.35903 0.19157 0.58517 0.0
C220 C 0.32741 0.24133 0.59226 0.0
H221 H 0.44562 0.32284 0.46619 0.0
H222 H 0.3952 0.29256 0.32493 0.0
H223 H 0.34988 0.3074 0.4002 0.0
H224 H 0.33125 0.27116 0.40851 0.0
H225 H 0.34603 0.27899 0.3537 0.0
H226 H 0.40195 0.22533 0.38339 0.0
H227 H 0.37457 0.23296 0.34487 0.0
H228 H 0.3701 0.21013 0.39708 0.0
H229 H 0.44426 0.32211 0.63594 0.0
H230 H 0.39222 0.2608 0.71689 0.0
H231 H 0.37185 0.23865 0.64786 0.0
H232 H 0.45793 0.26889 0.56484 0.0
H233 H 0.46662 0.30987 0.54831 0.0
H234 H 0.45466 0.27998 0.50709 0.0
H235 H 0.39995 0.34505 0.56235 0.0
H236 H 0.41581 0.34515 0.50909 0.0
H237 H 0.4353 0.35219 0.56029 0.0
H238 H 0.4598 0.34455 0.39405 0.0
C239 C 0.43418 0.31582 0.43651 0.0
C240 C 0.01347 0.96076 0.45308 0.0
N241 N 0.05297 0.04161 0.51295 0.0
C242 C 0.0755 0.0235 0.5135 0.0
C243 C 0.10049 0.03864 0.50901 0.0
C244 C 0.10231 0.0729 0.50402 0.0
C245 C 0.0787 0.09087 0.50428 0.0
C246 C 0.05419 0.07475 0.5088 0.0
Zn247 Zn 0.01631 0.01903 0.51482 0.0
C248 C 0.98007 0.04561 0.44264 0.0
N249 N 0.93947 0.97226 0.51555 0.0
C250 C 0.93762 0.93918 0.52016 0.0
C251 C 0.91727 0.99097 0.51381 0.0
C252 C 0.89201 0.97649 0.51728 0.0
C253 C 0.88946 0.94245 0.52226 0.0
C254 C 0.91274 0.92367 0.52371 0.0
Zn255 Zn 0.97624 0.9945 0.51401 0.0
O256 O 0.02915 0.98315 0.46797 0.0
C257 C 0.01257 0.96809 0.58639 0.0
O258 O 0.98956 0.95946 0.46664 0.0
H259 H 0.91917 0.01725 0.51032 0.0
H260 H 0.07407 0.99715 0.51663 0.0
H261 H 0.95552 0.92479 0.52189 0.0
O262 O 0.02862 0.98938 0.57029 0.0
O263 O 0.98935 0.9648 0.56907 0.0
H264 H 0.03606 0.08873 0.50823 0.0
O265 O 0.9635 0.0299 0.5613 0.0
O266 O 0.00271 0.05453 0.56161 0.0
O267 O 0.96381 0.02468 0.45898 0.0
O268 O 0.00342 0.0483 0.45949 0.0
C269 C 0.97885 0.05275 0.57553 0.0
H270 H 0.11784 0.02333 0.50863 0.0
H271 H 0.07915 0.11726 0.50052 0.0
H272 H 0.87459 0.99184 0.51628 0.0
H273 H 0.91206 0.89747 0.52876 0.0
C274 C 0.47875 0.45721 0.9357 0.0
N275 N 0.55009 0.45516 0.01138 0.0
C276 C 0.54844 0.4219 0.01044 0.0
C277 C 0.57158 0.4033 0.01125 0.0
C278 C 0.59663 0.419 0.01273 0.0
C279 C 0.59769 0.4534 0.01471 0.0
C280 C 0.57408 0.47101 0.01378 0.0
Zn281 Zn 0.51632 0.48235 0.00711 0.0
C282 C 0.52251 0.53671 0.93912 0.0
N283 N 0.4465 0.5405 0.99592 0.0
C284 C 0.42235 0.52502 0.99326 0.0
C285 C 0.44855 0.57373 0.99548 0.0
C286 C 0.42569 0.59273 0.99257 0.0
C287 C 0.40049 0.57747 0.99045 0.0
C288 C 0.39899 0.54307 0.99036 0.0
Zn289 Zn 0.48015 0.51314 0.00071 0.0
O290 O 0.50107 0.45139 0.9548 0.0
C291 C 0.4739 0.45876 0.06863 0.0
O292 O 0.46554 0.48187 0.948 0.0
H293 H 0.46795 0.58554 0.99747 0.0
H294 H 0.52916 0.40978 0.00865 0.0
H295 H 0.42119 0.49858 0.99328 0.0
O296 O 0.49759 0.45256 0.0569 0.0
O297 O 0.46185 0.48275 0.05056 0.0
H298 H 0.57495 0.49746 0.01476 0.0
O299 O 0.49539 0.54409 0.05328 0.0
O300 O 0.53096 0.51363 0.05968 0.0
O301 O 0.4989 0.54296 0.95112 0.0
O302 O 0.53456 0.51265 0.95698 0.0
C303 C 0.51775 0.53823 0.07223 0.0
H304 H 0.56991 0.37685 0.01017 0.0
H305 H 0.61635 0.46682 0.01746 0.0
H306 H 0.42769 0.61916 0.99236 0.0
H307 H 0.38017 0.52999 0.98735 0.0
H308 H 0.26672 0.14195 0.52282 0.0
C309 C 0.26792 0.15683 0.49202 0.0
H310 H 0.24679 0.17213 0.43269 0.0
H311 H 0.16811 0.04961 0.42842 0.0
H312 H 0.19527 0.03862 0.36239 0.0
H313 H 0.23525 0.07233 0.34647 0.0
H314 H 0.24822 0.11741 0.39632 0.0
C315 C 0.24672 0.15723 0.46342 0.0
C316 C 0.22239 0.1372 0.47305 0.0
C317 C 0.21519 0.11082 0.44377 0.0
C318 C 0.19232 0.09112 0.45328 0.0
C319 C 0.18542 0.06516 0.4231 0.0
C320 C 0.20082 0.0586 0.38503 0.0
C321 C 0.22332 0.0776 0.37605 0.0
C322 C 0.23053 0.10342 0.40494 0.0
H323 H 0.12683 0.11692 0.48913 0.0
C324 C 0.12795 0.09098 0.49728 0.0
H325 H 0.15486 0.05199 0.5083 0.0
H326 H 0.22843 0.18852 0.53298 0.0
H327 H 0.2024 0.19814 0.60064 0.0
H328 H 0.1651 0.16112 0.62075 0.0
H329 H 0.15329 0.11471 0.57271 0.0
C330 C 0.15229 0.07773 0.50092 0.0
C331 C 0.17673 0.09778 0.49215 0.0
C332 C 0.18416 0.12389 0.52186 0.0
C333 C 0.20656 0.14418 0.5116 0.0
C334 C 0.21243 0.17138 0.54021 0.0
C335 C 0.1975 0.17736 0.57903 0.0
C336 C 0.17644 0.15661 0.59024 0.0
C337 C 0.16976 0.13016 0.56215 0.0
H338 H 0.24491 0.66287 0.03901 0.0
C339 C 0.24287 0.67695 0.00759 0.0
H340 H 0.2611 0.68885 0.94462 0.0
H341 H 0.36111 0.62727 0.06628 0.0
H342 H 0.35748 0.6758 0.11327 0.0
H343 H 0.32123 0.71494 0.09989 0.0
H344 H 0.28816 0.70548 0.04003 0.0
C345 C 0.262 0.67477 0.97605 0.0
C346 C 0.28489 0.65248 0.98255 0.0
C347 C 0.30462 0.65912 0.01663 0.0
C348 C 0.3262 0.63734 0.02301 0.0
C349 C 0.34488 0.64363 0.05879 0.0
C350 C 0.34294 0.67131 0.08622 0.0
C351 C 0.32248 0.69328 0.0788 0.0
C352 C 0.30352 0.68742 0.04445 0.0
H353 H 0.37919 0.62354 0.97661 0.0
C354 C 0.37647 0.59821 0.98733 0.0
H355 H 0.34812 0.56299 0.01015 0.0
H356 H 0.25043 0.63268 0.91433 0.0
H357 H 0.25481 0.58494 0.8659 0.0
H358 H 0.29304 0.54816 0.87529 0.0
H359 H 0.32707 0.55878 0.93331 0.0
C360 C 0.35187 0.58785 0.99866 0.0
C361 C 0.32861 0.60979 0.99398 0.0
C362 C 0.30894 0.60323 0.95986 0.0
C363 C 0.28705 0.62461 0.95413 0.0
C364 C 0.2676 0.6174 0.91991 0.0
C365 C 0.26984 0.59006 0.8919 0.0
C366 C 0.29136 0.56933 0.89722 0.0
C367 C 0.31074 0.57571 0.9307 0.0
H368 H 0.75071 0.8172 0.48704 0.0
C369 C 0.74023 0.82008 0.51906 0.0
H370 H 0.74103 0.84396 0.58334 0.0
H371 H 0.86643 0.86084 0.59033 0.0
H372 H 0.85898 0.82229 0.6521 0.0
H373 H 0.81431 0.7984 0.66508 0.0
H374 H 0.77677 0.81308 0.61659 0.0
C375 C 0.75095 0.84002 0.55113 0.0
C376 C 0.77753 0.85587 0.54442 0.0
C377 C 0.79928 0.84691 0.57299 0.0
C378 C 0.82511 0.86033 0.5651 0.0
C379 C 0.84644 0.85113 0.59442 0.0
C380 C 0.84244 0.82905 0.63007 0.0
C381 C 0.81729 0.81563 0.63741 0.0
C382 C 0.7959 0.82431 0.60931 0.0
H383 H 0.84642 0.94401 0.53745 0.0
C384 C 0.86239 0.92781 0.52772 0.0
H385 H 0.87156 0.87894 0.51018 0.0
H386 H 0.73948 0.88231 0.48786 0.0
H387 H 0.7471 0.91963 0.42473 0.0
H388 H 0.79249 0.93937 0.40708 0.0
H389 H 0.83041 0.92245 0.45305 0.0
C390 C 0.85643 0.89603 0.52034 0.0
C391 C 0.82919 0.88258 0.52855 0.0
C392 C 0.80741 0.8917 0.50008 0.0
C393 C 0.78143 0.879 0.50878 0.0
C394 C 0.7598 0.89001 0.48152 0.0
C395 C 0.76386 0.91164 0.44537 0.0
C396 C 0.7894 0.92285 0.43555 0.0
C397 C 0.81098 0.91308 0.46243 0.0
H398 H 0.75797 0.34439 0.96455 0.0
C399 C 0.7583 0.32778 0.99363 0.0
H400 H 0.73623 0.30868 0.04904 0.0
H401 H 0.66552 0.4324 0.07682 0.0
H402 H 0.69602 0.43753 0.14161 0.0
H403 H 0.73508 0.40185 0.1488 0.0
H404 H 0.74387 0.36079 0.09136 0.0
C405 C 0.73677 0.32555 0.02037 0.0
C406 C 0.71378 0.34771 0.01445 0.0
C407 C 0.70904 0.3717 0.04826 0.0
C408 C 0.68666 0.39243 0.04396 0.0
C409 C 0.6823 0.41609 0.07832 0.0
C410 C 0.69965 0.41931 0.11569 0.0
C411 C 0.72163 0.3992 0.11976 0.0
C412 C 0.7264 0.37567 0.08655 0.0
H413 H 0.61881 0.37298 0.02219 0.0
C414 C 0.62099 0.39874 0.0133 0.0
H415 H 0.64863 0.43554 0.99253 0.0
H416 H 0.71613 0.30292 0.94492 0.0
H417 H 0.68616 0.29873 0.87937 0.0
H418 H 0.64833 0.3362 0.87049 0.0
H419 H 0.64009 0.37789 0.92745 0.0
C420 C 0.64533 0.41026 0.00249 0.0
C421 C 0.66902 0.38903 0.006 0.0
C422 C 0.67392 0.36537 0.97185 0.0
C423 C 0.69617 0.34439 0.97633 0.0
C424 C 0.7 0.32012 0.94262 0.0
C425 C 0.68285 0.31733 0.90492 0.0
C426 C 0.66152 0.33838 0.89996 0.0
C427 C 0.65698 0.36214 0.93296 0.0
H428 H 0.11041 0.84133 0.27283 0.0
C429 C 0.09688 0.84148 0.24345 0.0
H430 H 0.05915 0.85666 0.21881 0.0
H431 H 0.04832 0.88067 0.44238 0.0
H432 H 0.04919 0.82151 0.44929 0.0
H433 H 0.05754 0.78689 0.38208 0.0
H434 H 0.06545 0.81125 0.3077 0.0
C435 C 0.07333 0.85645 0.24713 0.0
C436 C 0.06717 0.87673 0.28764 0.0
C437 C 0.06189 0.86199 0.33054 0.0
C438 C 0.05612 0.8819 0.36892 0.0
C439 C 0.05194 0.86667 0.41179 0.0
C440 C 0.05253 0.83274 0.41629 0.0
C441 C 0.05731 0.81325 0.37847 0.0
C442 C 0.06194 0.82756 0.33601 0.0
H443 H 0.00784 0.91966 0.40495 0.0
C444 C 0.02239 0.93708 0.41881 0.0
H445 H 0.06188 0.9554 0.41541 0.0
H446 H 0.07697 0.91276 0.21039 0.0
H447 H 0.07505 0.97177 0.2031 0.0
H448 H 0.06365 0.00617 0.26906 0.0
H449 H 0.05427 0.98177 0.34276 0.0
C450 C 0.04737 0.93741 0.40296 0.0
C451 C 0.05483 0.91637 0.36389 0.0
C452 C 0.06019 0.93108 0.32101 0.0
C453 C 0.06639 0.91124 0.28286 0.0
C454 C 0.07184 0.9266 0.24045 0.0
C455 C 0.07086 0.96048 0.23577 0.0
C456 C 0.06448 0.97984 0.27291 0.0
C457 C 0.05917 0.96548 0.31508 0.0
H458 H 0.53675 0.65359 0.69843 0.0
C459 C 0.55752 0.6616 0.69802 0.0
H460 H 0.5941 0.66091 0.73532 0.0
H461 H 0.53376 0.6361 0.92338 0.0
H462 H 0.54874 0.69237 0.93401 0.0
H463 H 0.56986 0.72301 0.8711 0.0
H464 H 0.57627 0.69751 0.79717 0.0
C465 C 0.57313 0.65414 0.73417 0.0
C466 C 0.56207 0.63498 0.77302 0.0
C467 C 0.55851 0.65021 0.81592 0.0
C468 C 0.54611 0.63262 0.85205 0.0
C469 C 0.54286 0.64841 0.89465 0.0
C470 C 0.55139 0.68068 0.90123 0.0
C471 C 0.5633 0.69793 0.8658 0.0
C472 C 0.56685 0.68302 0.82356 0.0
H473 H 0.55558 0.54905 0.89307 0.0
C474 C 0.53584 0.55631 0.90361 0.0
H475 H 0.50467 0.58998 0.89381 0.0
H476 H 0.56961 0.59687 0.6973 0.0
H477 H 0.5537 0.54114 0.68587 0.0
H478 H 0.5291 0.51203 0.74638 0.0
H479 H 0.52074 0.53823 0.81888 0.0
C480 C 0.52405 0.58173 0.88286 0.0
C481 C 0.53734 0.59984 0.84516 0.0
C482 C 0.54108 0.5845 0.80226 0.0
C483 C 0.55409 0.60182 0.76657 0.0
C484 C 0.55886 0.58535 0.72493 0.0
C485 C 0.55 0.55326 0.718 0.0
C486 C 0.53624 0.53683 0.75212 0.0
C487 C 0.53174 0.55214 0.79377 0.0
H488 H 0.89788 0.15439 0.22544 0.0
C489 C 0.91487 0.15494 0.20273 0.0
H490 H 0.95509 0.14058 0.19581 0.0
H491 H 0.94293 0.12226 0.4183 0.0
H492 H 0.94228 0.18163 0.42093 0.0
H493 H 0.94041 0.21412 0.34982 0.0
H494 H 0.93888 0.18745 0.27572 0.0
C495 C 0.93745 0.14051 0.21671 0.0
C496 C 0.93848 0.12137 0.25981 0.0
C497 C 0.93982 0.13746 0.3027 0.0
C498 C 0.94173 0.11878 0.3436 0.0
C499 C 0.94228 0.13533 0.38613 0.0
C500 C 0.94176 0.16937 0.38812 0.0
C501 C 0.94064 0.18766 0.34809 0.0
C502 C 0.93968 0.17204 0.30577 0.0
H503 H 0.98755 0.08341 0.39064 0.0
C504 C 0.97256 0.06648 0.40372 0.0
H505 H 0.93353 0.04718 0.39473 0.0
H506 H 0.93483 0.08306 0.18314 0.0
H507 H 0.93574 0.02374 0.18058 0.0
H508 H 0.94005 0.99137 0.25149 0.0
H509 H 0.94334 0.0181 0.32539 0.0
C510 C 0.9485 0.06471 0.38327 0.0
C511 C 0.94304 0.08417 0.34135 0.0
C512 C 0.94091 0.06808 0.29855 0.0
C513 C 0.93869 0.08673 0.25769 0.0
C514 C 0.93676 0.07009 0.21527 0.0
C515 C 0.93723 0.03604 0.21329 0.0
C516 C 0.93963 0.01782 0.25322 0.0
C517 C 0.9415 0.03349 0.29543 0.0
H518 H 0.43066 0.2934 0.75535 0.0
C519 C 0.43003 0.30848 0.7247 0.0
H520 H 0.43621 0.35587 0.69739 0.0
H521 H 0.43509 0.3854 0.92069 0.0
H522 H 0.38954 0.36477 0.91911 0.0
H523 H 0.36993 0.34097 0.8486 0.0
H524 H 0.39591 0.33691 0.77978 0.0
C525 C 0.43734 0.34022 0.72738 0.0
C526 C 0.44849 0.35504 0.77004 0.0
C527 C 0.43249 0.35849 0.80933 0.0
C528 C 0.44326 0.37395 0.84915 0.0
C529 C 0.42747 0.37531 0.88885 0.0
C530 C 0.40136 0.36334 0.88852 0.0
C531 C 0.39036 0.34981 0.8489 0.0
C532 C 0.40562 0.34741 0.80965 0.0
H533 H 0.45038 0.44373 0.88053 0.0
C534 C 0.46814 0.43593 0.899 0.0
H535 H 0.49764 0.39979 0.90548 0.0
H536 H 0.48495 0.35067 0.70154 0.0
H537 H 0.52998 0.37297 0.7025 0.0
H538 H 0.54775 0.40256 0.77004 0.0
H539 H 0.52071 0.40977 0.83716 0.0
C540 C 0.4796 0.40758 0.88786 0.0
C541 C 0.46937 0.38771 0.84863 0.0
C542 C 0.48548 0.38379 0.80967 0.0
C543 C 0.47507 0.36728 0.77043 0.0
C544 C 0.49167 0.36347 0.73205 0.0
C545 C 0.5176 0.37607 0.73216 0.0
C546 C 0.52762 0.39269 0.7702 0.0
C547 C 0.51185 0.39661 0.80856 0.0
H548 H 0.57006 0.69949 0.25319 0.0
C549 C 0.56963 0.6846 0.28402 0.0
H550 H 0.56078 0.63802 0.31182 0.0
H551 H 0.47592 0.58758 0.17046 0.0
H552 H 0.4488 0.59598 0.23718 0.0
H553 H 0.46707 0.62484 0.30495 0.0
H554 H 0.51269 0.64516 0.30657 0.0
C555 C 0.56072 0.65345 0.28155 0.0
C556 C 0.54936 0.63908 0.2387 0.0
C557 C 0.52243 0.62807 0.23786 0.0
C558 C 0.51172 0.61204 0.19844 0.0
C559 C 0.48501 0.60036 0.19917 0.0
C560 C 0.46919 0.60497 0.23731 0.0
C561 C 0.47949 0.62118 0.27548 0.0
C562 C 0.50576 0.63264 0.27597 0.0
H563 H 0.54611 0.55114 0.1276 0.0
C564 C 0.52846 0.55928 0.10911 0.0
H565 H 0.49944 0.59598 0.10268 0.0
H566 H 0.60264 0.65419 0.2299 0.0
H567 H 0.62869 0.64932 0.16132 0.0
H568 H 0.60855 0.62713 0.09023 0.0
H569 H 0.56237 0.60882 0.08788 0.0
C570 C 0.51734 0.58782 0.12035 0.0
C571 C 0.52787 0.60745 0.15966 0.0
C572 C 0.55435 0.62011 0.15953 0.0
C573 C 0.56543 0.63489 0.19962 0.0
C574 C 0.59267 0.6445 0.19977 0.0
C575 C 0.60797 0.64157 0.16067 0.0
C576 C 0.59668 0.62893 0.12072 0.0
C577 C 0.57021 0.61827 0.11996 0.0
H578 H 0.96324 0.18926 0.80146 0.0
C579 C 0.94248 0.19524 0.79487 0.0
H580 H 0.90984 0.18893 0.74897 0.0
H581 H 0.9787 0.15428 0.57662 0.0
H582 H 0.96455 0.209 0.55602 0.0
H583 H 0.94184 0.24377 0.61184 0.0
H584 H 0.93295 0.22398 0.68854 0.0
C585 C 0.93075 0.18437 0.75612 0.0
C586 C 0.94545 0.16384 0.72322 0.0
C587 C 0.95075 0.17593 0.67878 0.0
C588 C 0.96407 0.15601 0.64674 0.0
C589 C 0.96876 0.16847 0.60234 0.0
C590 C 0.96076 0.19983 0.59009 0.0
C591 C 0.94796 0.2194 0.62152 0.0
C592 C 0.94295 0.20773 0.66539 0.0
H593 H 0.9488 0.0721 0.62183 0.0
C594 C 0.96877 0.07627 0.60889 0.0
H595 H 0.00289 0.10735 0.61091 0.0
H596 H 0.93614 0.13137 0.80414 0.0
H597 H 0.95248 0.07803 0.82571 0.0
H598 H 0.97906 0.04566 0.77226 0.0
H599 H 0.98882 0.06626 0.69643 0.0
C600 C 0.98324 0.10195 0.62434 0.0
C601 C 0.97207 0.12409 0.65926 0.0
C602 C 0.96775 0.11247 0.70428 0.0
C603 C 0.95373 0.13192 0.73589 0.0
C604 C 0.94788 0.11852 0.77942 0.0
C605 C 0.95695 0.08772 0.79217 0.0
C606 C 0.9718 0.06943 0.76203 0.0
C607 C 0.97713 0.08149 0.71851 0.0
H608 H 0.45798 0.34695 0.31145 0.0
C609 C 0.43794 0.33638 0.31095 0.0
H610 H 0.40252 0.3314 0.27079 0.0
H611 H 0.46981 0.45998 0.18838 0.0
H612 H 0.45603 0.48689 0.25763 0.0
H613 H 0.43065 0.45673 0.31619 0.0
H614 H 0.41946 0.39923 0.30613 0.0
C615 C 0.42277 0.34091 0.27329 0.0
C616 C 0.43346 0.36035 0.23437 0.0
C617 C 0.43854 0.3944 0.23961 0.0
C618 C 0.4519 0.41219 0.20474 0.0
C619 C 0.45854 0.44557 0.21257 0.0
C620 C 0.45094 0.46131 0.25243 0.0
C621 C 0.43676 0.44431 0.28548 0.0
C622 C 0.43061 0.41125 0.27938 0.0
H623 H 0.44008 0.4454 0.11249 0.0
C624 C 0.46036 0.43906 0.10381 0.0
H625 H 0.49248 0.4075 0.11748 0.0
H626 H 0.42521 0.29594 0.21264 0.0
H627 H 0.43696 0.26937 0.14162 0.0
H628 H 0.45844 0.30064 0.07966 0.0
H629 H 0.46848 0.35859 0.08838 0.0
C630 C 0.47249 0.41474 0.12652 0.0
C631 C 0.45875 0.39628 0.16349 0.0
C632 C 0.45276 0.3625 0.15761 0.0
C633 C 0.44011 0.34452 0.19313 0.0
C634 C 0.43469 0.31074 0.18664 0.0
C635 C 0.4413 0.29521 0.14605 0.0
C636 C 0.45341 0.31281 0.11117 0.0
C637 C 0.45911 0.34606 0.11666 0.0
H638 H 0.10212 0.86748 0.80066 0.0
C639 C 0.08685 0.86719 0.82669 0.0
H640 H 0.04715 0.87977 0.84163 0.0
H641 H 0.0401 0.99825 0.70525 0.0
H642 H 0.0397 0.02595 0.77849 0.0
H643 H 0.04828 0.99569 0.85011 0.0
H644 H 0.05698 0.9375 0.84897 0.0
C645 C 0.06299 0.88016 0.81677 0.0
C646 C 0.05813 0.89806 0.77322 0.0
C647 C 0.05348 0.9322 0.77453 0.0
C648 C 0.04899 0.94976 0.73324 0.0
C649 C 0.04393 0.98375 0.73555 0.0
C650 C 0.04363 0.99998 0.77738 0.0
C651 C 0.04841 0.98293 0.8177 0.0
C652 C 0.05333 0.94948 0.81652 0.0
H653 H 0.00579 0.92977 0.63816 0.0
C654 C 0.0202 0.94774 0.62585 0.0
H655 H 0.05782 0.97037 0.6374 0.0
H656 H 0.06335 0.83214 0.75878 0.0
H657 H 0.06459 0.80473 0.68538 0.0
H658 H 0.05975 0.83589 0.61351 0.0
H659 H 0.05319 0.8946 0.61471 0.0
C660 C 0.04362 0.95161 0.64799 0.0
C661 C 0.04929 0.93318 0.69074 0.0
C662 C 0.05412 0.8991 0.68932 0.0
C663 C 0.05803 0.88137 0.73069 0.0
C664 C 0.06134 0.84705 0.7284 0.0
C665 C 0.0619 0.83095 0.68647 0.0
C666 C 0.05909 0.84847 0.64602 0.0
C667 C 0.05522 0.88215 0.6472 0.0
loop_
_geom_bond_atom_site_label_1
_geom_bond_atom_site_label_2
_geom_bond_distance
_geom_bond_site_symmetry_2
_ccdc_geom_bond_type
C0 C1 1.391 . S
C0 C4 1.391 . S
C0 H42 0.948 . S
C1 C0 1.391 . S
C1 C2 1.391 . S
C2 C1 1.391 . S
C2 H58 0.947 . S
C2 C59 1.392 . S
C3 C4 1.391 . S
C3 C7 1.397 . S
C3 C59 1.419 . S
C4 C0 1.391 . S
C4 C3 1.391 . S
C4 C5 1.399 . S
C5 C4 1.399 . S
C5 C8 1.396 . S
C5 C17 1.453 . S
C5 C18 1.684 . S
H6 C30 0.948 . S
C7 C3 1.397 . S
C7 C8 1.394 . S
C7 C26 1.723 1_556 S
C8 C5 1.396 . S
C8 C7 1.394 . S
C8 C38 1.723 1_556 S
H9 C32 0.947 . S
H10 C33 0.948 . S
H11 C39 0.982 . S
H12 C40 0.979 . S
H13 C40 0.980 . S
H14 C40 0.983 . S
H15 C39 0.979 . S
H16 C39 0.977 . S
C17 C5 1.453 . S
C17 H46 0.982 . S
C17 H47 0.979 . S
C17 H48 0.977 . S
C18 C5 1.684 . S
C18 H43 0.979 . S
C18 H44 0.980 . S
C18 H45 0.983 . S
C19 C20 1.391 . S
C19 C24 1.391 . S
C19 H49 0.948 . S
C20 C19 1.391 . S
C20 C21 1.391 . S
C21 C20 1.391 . S
C21 C22 1.392 . S
C21 H50 0.947 . S
C22 C21 1.392 . S
C22 C23 1.419 . S
C22 H51 0.948 . S
C23 C22 1.419 . S
C23 C24 1.391 . S
C23 C27 1.397 . S
C24 C19 1.391 . S
C24 C23 1.391 . S
C24 C25 1.399 . S
C25 C24 1.399 . S
C25 C26 1.396 . S
C25 C28 1.453 . S
C25 C29 1.684 . S
C26 C7 1.723 1_554 S
C26 C25 1.396 . S
C26 C27 1.394 . S
C27 C23 1.397 . S
C27 C26 1.394 . S
C27 C37 1.723 . S
C28 C25 1.453 . S
C28 H52 0.982 . S
C28 H53 0.979 . S
C28 H54 0.977 . S
C29 C25 1.684 . S
C29 H55 0.979 . S
C29 H56 0.980 . S
C29 H57 0.983 . S
C30 H6 0.948 . S
C30 C31 1.391 . S
C30 C35 1.391 . S
C31 C30 1.391 . S
C31 C32 1.391 1_554 S
C32 H9 0.947 . S
C32 C31 1.391 1_556 S
C32 C33 1.392 . S
C33 H10 0.948 . S
C33 C32 1.392 . S
C33 C34 1.419 . S
C34 C33 1.419 . S
C34 C35 1.391 1_556 S
C34 C38 1.397 1_556 S
C35 C30 1.391 . S
C35 C34 1.391 1_554 S
C35 C36 1.399 . S
C36 C35 1.399 . S
C36 C37 1.396 . S
C36 C39 1.453 . S
C36 C40 1.684 . S
C37 C27 1.723 . S
C37 C36 1.396 . S
C37 C38 1.394 . S
C38 C8 1.723 1_554 S
C38 C34 1.397 1_554 S
C38 C37 1.394 . S
C39 H11 0.982 . S
C39 H15 0.979 . S
C39 H16 0.977 . S
C39 C36 1.453 . S
C40 H12 0.979 . S
C40 H13 0.980 . S
C40 H14 0.983 . S
C40 C36 1.684 . S
H41 C59 0.948 . S
H42 C0 0.948 . S
H43 C18 0.979 . S
H44 C18 0.980 . S
H45 C18 0.983 . S
H46 C17 0.982 . S
H47 C17 0.979 . S
H48 C17 0.977 . S
H49 C19 0.948 . S
H50 C21 0.947 . S
H51 C22 0.948 . S
H52 C28 0.982 . S
H53 C28 0.979 . S
H54 C28 0.977 . S
H55 C29 0.979 . S
H56 C29 0.980 . S
H57 C29 0.983 . S
H58 C2 0.947 . S
C59 C2 1.392 . S
C59 C3 1.419 . S
C59 H41 0.948 . S
C60 C61 1.391 . S
C60 C64 1.391 . S
C60 H102 0.948 . S
C61 C60 1.391 . S
C61 C62 1.391 . S
C62 C61 1.391 . S
C62 H118 0.947 . S
C62 C119 1.392 . S
C63 C64 1.391 . S
C63 C67 1.397 . S
C63 C119 1.419 . S
C64 C60 1.391 . S
C64 C63 1.391 . S
C64 C65 1.399 . S
C65 C64 1.399 . S
C65 C68 1.396 . S
C65 C77 1.453 . S
C65 C78 1.684 . S
H66 C90 0.948 . S
C67 C63 1.397 . S
C67 C68 1.394 . S
C67 C86 1.723 . S
C68 C65 1.396 . S
C68 C67 1.394 . S
C68 C98 1.723 . S
H69 C92 0.947 . S
H70 C93 0.948 . S
H71 C99 0.982 . S
H72 C100 0.979 . S
H73 C100 0.980 . S
H74 C100 0.983 . S
H75 C99 0.979 . S
H76 C99 0.977 . S
C77 C65 1.453 . S
C77 H106 0.982 . S
C77 H107 0.979 . S
C77 H108 0.977 . S
C78 C65 1.684 . S
C78 H103 0.979 . S
C78 H104 0.980 . S
C78 H105 0.983 . S
C79 C80 1.391 . S
C79 C84 1.391 . S
C79 H109 0.948 . S
C80 C79 1.391 . S
C80 C81 1.391 . S
C81 C80 1.391 . S
C81 C82 1.392 . S
C81 H110 0.947 . S
C82 C81 1.392 . S
C82 C83 1.419 . S
C82 H111 0.948 . S
C83 C82 1.419 . S
C83 C84 1.391 . S
C83 C87 1.397 . S
C84 C79 1.391 . S
C84 C83 1.391 . S
C84 C85 1.399 . S
C85 C84 1.399 . S
C85 C86 1.396 . S
C85 C88 1.453 . S
C85 C89 1.684 . S
C86 C67 1.723 . S
C86 C85 1.396 . S
C86 C87 1.394 . S
C87 C83 1.397 . S
C87 C86 1.394 . S
C87 C97 1.723 . S
C88 C85 1.453 . S
C88 H112 0.982 . S
C88 H113 0.979 . S
C88 H114 0.977 . S
C89 C85 1.684 . S
C89 H115 0.979 . S
C89 H116 0.980 . S
C89 H117 0.983 . S
C90 H66 0.948 . S
C90 C91 1.391 . S
C90 C95 1.391 . S
C91 C90 1.391 . S
C91 C92 1.391 . S
C92 H69 0.947 . S
C92 C91 1.391 . S
C92 C93 1.392 . S
C93 H70 0.948 . S
C93 C92 1.392 . S
C93 C94 1.419 . S
C94 C93 1.419 . S
C94 C95 1.391 . S
C94 C98 1.397 . S
C95 C90 1.391 . S
C95 C94 1.391 . S
C95 C96 1.399 . S
C96 C95 1.399 . S
C96 C97 1.396 . S
C96 C99 1.453 . S
C96 C100 1.684 . S
C97 C87 1.723 . S
C97 C96 1.396 . S
C97 C98 1.394 . S
C98 C68 1.723 . S
C98 C94 1.397 . S
C98 C97 1.394 . S
C99 H71 0.982 . S
C99 H75 0.979 . S
C99 H76 0.977 . S
C99 C96 1.453 . S
C100 H72 0.979 . S
C100 H73 0.980 . S
C100 H74 0.983 . S
C100 C96 1.684 . S
H101 C119 0.948 . S
H102 C60 0.948 . S
H103 C78 0.979 . S
H104 C78 0.980 . S
H105 C78 0.983 . S
H106 C77 0.982 . S
H107 C77 0.979 . S
H108 C77 0.977 . S
H109 C79 0.948 . S
H110 C81 0.947 . S
H111 C82 0.948 . S
H112 C88 0.982 . S
H113 C88 0.979 . S
H114 C88 0.977 . S
H115 C89 0.979 . S
H116 C89 0.980 . S
H117 C89 0.983 . S
H118 C62 0.947 . S
C119 C62 1.392 . S
C119 C63 1.419 . S
C119 H101 0.948 . S
C120 C121 1.391 . S
C120 C124 1.391 . S
C120 H162 0.948 . S
C121 C120 1.391 . S
C121 C122 1.391 . S
C122 C121 1.391 . S
C122 H178 0.947 . S
C122 C179 1.392 . S
C123 C124 1.391 . S
C123 C127 1.397 . S
C123 C179 1.419 . S
C124 C120 1.391 . S
C124 C123 1.391 . S
C124 C125 1.399 . S
C125 C124 1.399 . S
C125 C128 1.396 . S
C125 C137 1.453 . S
C125 C138 1.684 . S
H126 C150 0.948 . S
C127 C123 1.397 . S
C127 C128 1.394 . S
C127 C146 1.723 1_554 S
C128 C125 1.396 . S
C128 C127 1.394 . S
C128 C158 1.723 . S
H129 C152 0.947 . S
H130 C153 0.948 . S
H131 C159 0.982 . S
H132 C160 0.979 . S
H133 C160 0.980 . S
H134 C160 0.983 . S
H135 C159 0.979 . S
H136 C159 0.977 . S
C137 C125 1.453 . S
C137 H166 0.982 . S
C137 H167 0.979 . S
C137 H168 0.977 . S
C138 C125 1.684 . S
C138 H163 0.979 . S
C138 H164 0.980 . S
C138 H165 0.983 . S
C139 C140 1.391 . S
C139 C144 1.391 . S
C139 H169 0.948 . S
C140 C139 1.391 . S
C140 C141 1.391 . S
C141 C140 1.391 . S
C141 C142 1.392 . S
C141 H170 0.947 . S
C142 C141 1.392 . S
C142 C143 1.419 . S
C142 H171 0.948 . S
C143 C142 1.419 . S
C143 C144 1.391 . S
C143 C147 1.397 . S
C144 C139 1.391 . S
C144 C143 1.391 . S
C144 C145 1.399 . S
C145 C144 1.399 . S
C145 C146 1.396 . S
C145 C148 1.453 . S
C145 C149 1.684 . S
C146 C127 1.723 1_556 S
C146 C145 1.396 . S
C146 C147 1.394 . S
C147 C143 1.397 . S
C147 C146 1.394 . S
C147 C157 1.723 . S
C148 C145 1.453 . S
C148 H172 0.982 . S
C148 H173 0.979 . S
C148 H174 0.977 1_556 S
C149 C145 1.684 . S
C149 H175 0.979 . S
C149 H176 0.980 1_556 S
C149 H177 0.983 . S
C150 H126 0.948 . S
C150 C151 1.391 1_556 S
C150 C155 1.391 . S
C151 C150 1.391 1_554 S
C151 C152 1.391 . S
C152 H129 0.947 . S
C152 C151 1.391 . S
C152 C153 1.392 . S
C153 H130 0.948 . S
C153 C152 1.392 . S
C153 C154 1.419 . S
C154 C153 1.419 . S
C154 C155 1.391 1_554 S
C154 C158 1.397 . S
C155 C150 1.391 . S
C155 C154 1.391 1_556 S
C155 C156 1.399 . S
C156 C155 1.399 . S
C156 C157 1.396 . S
C156 C159 1.453 . S
C156 C160 1.684 . S
C157 C147 1.723 . S
C157 C156 1.396 . S
C157 C158 1.394 1_556 S
C158 C128 1.723 . S
C158 C154 1.397 . S
C158 C157 1.394 1_554 S
C159 H131 0.982 . S
C159 H135 0.979 . S
C159 H136 0.977 . S
C159 C156 1.453 . S
C160 H132 0.979 . S
C160 H133 0.980 . S
C160 H134 0.983 . S
C160 C156 1.684 . S
H161 C179 0.948 . S
H162 C120 0.948 . S
H163 C138 0.979 . S
H164 C138 0.980 . S
H165 C138 0.983 . S
H166 C137 0.982 . S
H167 C137 0.979 . S
H168 C137 0.977 . S
H169 C139 0.948 . S
H170 C141 0.947 . S
H171 C142 0.948 . S
H172 C148 0.982 . S
H173 C148 0.979 . S
H174 C148 0.977 1_554 S
H175 C149 0.979 . S
H176 C149 0.980 1_554 S
H177 C149 0.983 . S
H178 C122 0.947 . S
C179 C122 1.392 . S
C179 C123 1.419 . S
C179 H161 0.948 . S
C180 C181 1.391 . S
C180 C184 1.391 . S
C180 H222 0.948 . S
C181 C180 1.391 . S
C181 C182 1.391 . S
C182 C181 1.391 . S
C182 H238 0.947 . S
C182 C239 1.392 . S
C183 C184 1.391 . S
C183 C187 1.397 . S
C183 C239 1.419 . S
C184 C180 1.391 . S
C184 C183 1.391 . S
C184 C185 1.399 . S
C185 C184 1.399 . S
C185 C188 1.396 . S
C185 C197 1.453 . S
C185 C198 1.684 . S
H186 C210 0.948 . S
C187 C183 1.397 . S
C187 C188 1.394 . S
C187 C206 1.723 . S
C188 C185 1.396 . S
C188 C187 1.394 . S
C188 C218 1.723 . S
H189 C212 0.947 . S
H190 C213 0.948 . S
H191 C219 0.982 . S
H192 C220 0.979 . S
H193 C220 0.980 . S
H194 C220 0.983 . S
H195 C219 0.979 . S
H196 C219 0.977 . S
C197 C185 1.453 . S
C197 H226 0.982 . S
C197 H227 0.979 . S
C197 H228 0.977 . S
C198 C185 1.684 . S
C198 H223 0.979 . S
C198 H224 0.980 . S
C198 H225 0.983 . S
C199 C200 1.391 . S
C199 C204 1.391 . S
C199 H229 0.948 . S
C200 C199 1.391 . S
C200 C201 1.391 . S
C201 C200 1.391 . S
C201 C202 1.392 . S
C201 H230 0.947 . S
C202 C201 1.392 . S
C202 C203 1.419 . S
C202 H231 0.948 . S
C203 C202 1.419 . S
C203 C204 1.391 . S
C203 C207 1.397 . S
C204 C199 1.391 . S
C204 C203 1.391 . S
C204 C205 1.399 . S
C205 C204 1.399 . S
C205 C206 1.396 . S
C205 C208 1.453 . S
C205 C209 1.684 . S
C206 C187 1.723 . S
C206 C205 1.396 . S
C206 C207 1.394 . S
C207 C203 1.397 . S
C207 C206 1.394 . S
C207 C217 1.723 . S
C208 C205 1.453 . S
C208 H232 0.982 . S
C208 H233 0.979 . S
C208 H234 0.977 . S
C209 C205 1.684 . S
C209 H235 0.979 . S
C209 H236 0.980 . S
C209 H237 0.983 . S
C210 H186 0.948 . S
C210 C211 1.391 . S
C210 C215 1.391 . S
C211 C210 1.391 . S
C211 C212 1.391 . S
C212 H189 0.947 . S
C212 C211 1.391 . S
C212 C213 1.392 . S
C213 H190 0.948 . S
C213 C212 1.392 . S
C213 C214 1.419 . S
C214 C213 1.419 . S
C214 C215 1.391 . S
C214 C218 1.397 . S
C215 C210 1.391 . S
C215 C214 1.391 . S
C215 C216 1.399 . S
C216 C215 1.399 . S
C216 C217 1.396 . S
C216 C219 1.453 . S
C216 C220 1.684 . S
C217 C207 1.723 . S
C217 C216 1.396 . S
C217 C218 1.394 . S
C218 C188 1.723 . S
C218 C214 1.397 . S
C218 C217 1.394 . S
C219 H191 0.982 . S
C219 H195 0.979 . S
C219 H196 0.977 . S
C219 C216 1.453 . S
C220 H192 0.979 . S
C220 H193 0.980 . S
C220 H194 0.983 . S
C220 C216 1.684 . S
H221 C239 0.948 . S
H222 C180 0.948 . S
H223 C198 0.979 . S
H224 C198 0.980 . S
H225 C198 0.983 . S
H226 C197 0.982 . S
H227 C197 0.979 . S
H228 C197 0.977 . S
H229 C199 0.948 . S
H230 C201 0.947 . S
H231 C202 0.948 . S
H232 C208 0.982 . S
H233 C208 0.979 . S
H234 C208 0.977 . S
H235 C209 0.979 . S
H236 C209 0.980 . S
H237 C209 0.983 . S
H238 C182 0.947 . S
C239 C182 1.392 . S
C239 C183 1.419 . S
C239 H221 0.948 . S
C240 O256 1.251 . S
C240 O258 1.254 1_455 S
N241 C242 1.333 . S
N241 C246 1.307 . S
N241 Zn247 2.020 . S
C242 N241 1.333 . S
C242 C243 1.379 . S
C242 H260 0.952 . S
C243 C242 1.379 . S
C243 C244 1.390 . S
C243 H270 0.949 . S
C244 C243 1.390 . S
C244 C245 1.357 . S
C245 C244 1.357 . S
C245 C246 1.370 . S
C245 H271 0.950 . S
C246 N241 1.307 . S
C246 C245 1.370 . S
C246 H264 0.948 . S
Zn247 N241 2.020 . S
Zn247 O256 2.039 1_545 S
Zn247 O262 2.034 1_545 S
Zn247 O266 2.025 . S
Zn247 O268 2.024 . S
C248 O267 1.246 . S
C248 O268 1.249 1_655 S
N249 C250 1.307 . S
N249 C251 1.333 . S
N249 Zn255 2.020 . S
C250 N249 1.307 . S
C250 C254 1.370 . S
C250 H261 0.948 . S
C251 N249 1.333 . S
C251 C252 1.379 . S
C251 H259 0.923 1_565 S
C252 C251 1.379 . S
C252 C253 1.390 . S
C252 H272 0.949 . S
C253 C252 1.390 . S
C253 C254 1.357 . S
C254 C250 1.370 . S
C254 C253 1.357 . S
C254 H273 0.950 . S
Zn255 N249 2.020 . S
Zn255 O258 2.025 . S
Zn255 O263 2.024 . S
Zn255 O265 2.039 1_565 S
Zn255 O267 2.034 1_565 S
O256 C240 1.251 . S
O256 Zn247 2.039 1_565 S
C257 O262 1.246 . S
C257 O263 1.249 1_455 S
O258 C240 1.254 1_655 S
O258 Zn255 2.025 . S
H259 C251 0.923 1_545 S
H260 C242 0.952 . S
H261 C250 0.948 . S
O262 Zn247 2.034 1_565 S
O262 C257 1.246 . S
O263 Zn255 2.024 . S
O263 C257 1.249 1_655 S
H264 C246 0.948 . S
O265 Zn255 2.039 1_545 S
O265 C269 1.251 . S
O266 Zn247 2.025 . S
O266 C269 1.254 1_455 S
O267 C248 1.246 . S
O267 Zn255 2.034 1_545 S
O268 Zn247 2.024 . S
O268 C248 1.249 1_455 S
C269 O265 1.251 . S
C269 O266 1.254 1_655 S
H270 C243 0.949 . S
H271 C245 0.950 . S
H272 C252 0.949 . S
H273 C254 0.950 . S
C274 O290 1.251 . S
C274 O292 1.254 . S
N275 C276 1.333 1_554 S
N275 C280 1.307 . S
N275 Zn281 2.020 . S
C276 N275 1.333 1_556 S
C276 C277 1.379 . S
C276 H294 0.952 . S
C277 C276 1.379 . S
C277 C278 1.390 1_556 S
C277 H304 0.949 . S
C278 C277 1.390 1_554 S
C278 C279 1.357 . S
C279 C278 1.357 . S
C279 C280 1.370 . S
C279 H305 0.950 . S
C280 N275 1.307 . S
C280 C279 1.370 . S
C280 H298 0.948 . S
Zn281 N275 2.020 . S
Zn281 O290 2.039 1_554 S
Zn281 O296 2.034 . S
Zn281 O300 2.025 . S
Zn281 O302 2.024 1_554 S
C282 O301 1.246 . S
C282 O302 1.249 . S
N283 C284 1.307 1_554 S
N283 C285 1.333 . S
N283 Zn289 2.020 . S
C284 N283 1.307 1_556 S
C284 C288 1.370 . S
C284 H295 0.948 . S
C285 N283 1.333 . S
C285 C286 1.379 . S
C285 H293 0.952 . S
C286 C285 1.379 . S
C286 C287 1.390 . S
C286 H306 0.949 . S
C287 C286 1.390 . S
C287 C288 1.357 1_554 S
C288 C284 1.370 . S
C288 C287 1.357 1_556 S
C288 H307 0.950 . S
Zn289 N283 2.020 . S
Zn289 O292 2.025 1_554 S
Zn289 O297 2.024 . S
Zn289 O299 2.039 . S
Zn289 O301 2.034 1_554 S
O290 C274 1.251 . S
O290 Zn281 2.039 1_556 S
C291 O296 1.246 . S
C291 O297 1.249 . S
O292 C274 1.254 . S
O292 Zn289 2.025 1_556 S
H293 C285 0.952 . S
H294 C276 0.952 . S
H295 C284 0.948 . S
O296 Zn281 2.034 . S
O296 C291 1.246 . S
O297 Zn289 2.024 . S
O297 C291 1.249 . S
H298 C280 0.948 . S
O299 Zn289 2.039 . S
O299 C303 1.251 . S
O300 Zn281 2.025 . S
O300 C303 1.254 . S
O301 C282 1.246 . S
O301 Zn289 2.034 1_556 S
O302 Zn281 2.024 1_556 S
O302 C282 1.249 . S
C303 O299 1.251 . S
C303 O300 1.254 . S
H304 C277 0.949 . S
H305 C279 0.950 . S
H306 C286 0.949 . S
H307 C288 0.950 . S
H308 C309 0.951 . S
C309 H308 0.951 . S
C309 C315 1.265 . S
H310 C315 0.950 . S
H311 C319 0.949 . S
H312 C320 0.950 . S
H313 C321 0.951 . S
H314 C322 0.951 . S
C315 C309 1.265 . S
C315 H310 0.950 . S
C315 C316 1.478 . S
C316 C315 1.478 . S
C316 C317 1.397 . S
C316 C333 1.394 . S
C317 C316 1.397 . S
C317 C318 1.438 . S
C317 C322 1.429 . S
C318 C317 1.438 . S
C318 C319 1.428 . S
C318 C331 1.394 . S
C319 H311 0.949 . S
C319 C318 1.428 . S
C319 C320 1.345 . S
C320 H312 0.950 . S
C320 C319 1.345 . S
C320 C321 1.424 . S
C321 H313 0.951 . S
C321 C320 1.424 . S
C321 C322 1.347 . S
C322 H314 0.951 . S
C322 C317 1.429 . S
C322 C321 1.347 . S
H323 C324 0.951 . S
C324 H323 0.951 . S
C324 C330 1.265 . S
H325 C330 0.950 . S
H326 C334 0.949 . S
H327 C335 0.950 . S
H328 C336 0.951 . S
H329 C337 0.951 . S
C330 C324 1.265 . S
C330 H325 0.950 . S
C330 C331 1.478 . S
C331 C318 1.394 . S
C331 C330 1.478 . S
C331 C332 1.397 . S
C332 C331 1.397 . S
C332 C333 1.438 . S
C332 C337 1.429 . S
C333 C316 1.394 . S
C333 C332 1.438 . S
C333 C334 1.428 . S
C334 H326 0.949 . S
C334 C333 1.428 . S
C334 C335 1.345 . S
C335 H327 0.950 . S
C335 C334 1.345 . S
C335 C336 1.424 . S
C336 H328 0.951 . S
C336 C335 1.424 . S
C336 C337 1.347 . S
C337 H329 0.951 . S
C337 C332 1.429 . S
C337 C336 1.347 . S
H338 C339 0.951 . S
C339 H338 0.951 . S
C339 C345 1.265 . S
H340 C345 0.950 . S
H341 C349 0.949 . S
H342 C350 0.950 . S
H343 C351 0.951 . S
H344 C352 0.951 . S
C345 C339 1.265 . S
C345 H340 0.950 . S
C345 C346 1.478 . S
C346 C345 1.478 . S
C346 C347 1.397 . S
C346 C363 1.394 1_554 S
C347 C346 1.397 . S
C347 C348 1.438 . S
C347 C352 1.429 . S
C348 C347 1.438 . S
C348 C349 1.428 . S
C348 C361 1.394 . S
C349 H341 0.949 . S
C349 C348 1.428 . S
C349 C350 1.345 . S
C350 H342 0.950 . S
C350 C349 1.345 . S
C350 C351 1.424 . S
C351 H343 0.951 . S
C351 C350 1.424 . S
C351 C352 1.347 . S
C352 H344 0.951 . S
C352 C347 1.429 . S
C352 C351 1.347 . S
H353 C354 0.951 . S
C354 H353 0.951 . S
C354 C360 1.265 . S
H355 C360 0.950 . S
H356 C364 0.949 . S
H357 C365 0.950 . S
H358 C366 0.951 . S
H359 C367 0.951 . S
C360 C354 1.265 . S
C360 H355 0.950 . S
C360 C361 1.478 . S
C361 C348 1.394 . S
C361 C360 1.478 . S
C361 C362 1.397 1_554 S
C362 C361 1.397 1_556 S
C362 C363 1.438 . S
C362 C367 1.429 . S
C363 C346 1.394 1_556 S
C363 C362 1.438 . S
C363 C364 1.428 . S
C364 H356 0.949 . S
C364 C363 1.428 . S
C364 C365 1.345 . S
C365 H357 0.950 . S
C365 C364 1.345 . S
C365 C366 1.424 . S
C366 H358 0.951 . S
C366 C365 1.424 . S
C366 C367 1.347 . S
C367 H359 0.951 . S
C367 C362 1.429 . S
C367 C366 1.347 . S
H368 C369 0.951 . S
C369 H368 0.951 . S
C369 C375 1.265 . S
H370 C375 0.950 . S
H371 C379 0.949 . S
H372 C380 0.950 . S
H373 C381 0.951 . S
H374 C382 0.951 . S
C375 C369 1.265 . S
C375 H370 0.950 . S
C375 C376 1.478 . S
C376 C375 1.478 . S
C376 C377 1.397 . S
C376 C393 1.394 . S
C377 C376 1.397 . S
C377 C378 1.438 . S
C377 C382 1.429 . S
C378 C377 1.438 . S
C378 C379 1.428 . S
C378 C391 1.394 . S
C379 H371 0.949 . S
C379 C378 1.428 . S
C379 C380 1.345 . S
C380 H372 0.950 . S
C380 C379 1.345 . S
C380 C381 1.424 . S
C381 H373 0.951 . S
C381 C380 1.424 . S
C381 C382 1.347 . S
C382 H374 0.951 . S
C382 C377 1.429 . S
C382 C381 1.347 . S
H383 C384 0.951 . S
C384 H383 0.951 . S
C384 C390 1.265 . S
H385 C390 0.950 . S
H386 C394 0.949 . S
H387 C395 0.950 . S
H388 C396 0.951 . S
H389 C397 0.951 . S
C390 C384 1.265 . S
C390 H385 0.950 . S
C390 C391 1.478 . S
C391 C378 1.394 . S
C391 C390 1.478 . S
C391 C392 1.397 . S
C392 C391 1.397 . S
C392 C393 1.438 . S
C392 C397 1.429 . S
C393 C376 1.394 . S
C393 C392 1.438 . S
C393 C394 1.428 . S
C394 H386 0.949 . S
C394 C393 1.428 . S
C394 C395 1.345 . S
C395 H387 0.950 . S
C395 C394 1.345 . S
C395 C396 1.424 . S
C396 H388 0.951 . S
C396 C395 1.424 . S
C396 C397 1.347 . S
C397 H389 0.951 . S
C397 C392 1.429 . S
C397 C396 1.347 . S
H398 C399 0.951 1_556 S
C399 H398 0.951 1_554 S
C399 C405 1.265 . S
H400 C405 0.950 . S
H401 C409 0.949 . S
H402 C410 0.950 . S
H403 C411 0.951 . S
H404 C412 0.951 . S
C405 C399 1.265 . S
C405 H400 0.950 . S
C405 C406 1.478 . S
C406 C405 1.478 . S
C406 C407 1.397 . S
C406 C423 1.394 1_554 S
C407 C406 1.397 . S
C407 C408 1.438 . S
C407 C412 1.429 . S
C408 C407 1.438 . S
C408 C409 1.428 . S
C408 C421 1.394 . S
C409 H401 0.949 . S
C409 C408 1.428 . S
C409 C410 1.345 . S
C410 H402 0.950 . S
C410 C409 1.345 . S
C410 C411 1.424 . S
C411 H403 0.951 . S
C411 C410 1.424 . S
C411 C412 1.347 . S
C412 H404 0.951 . S
C412 C407 1.429 . S
C412 C411 1.347 . S
H413 C414 0.951 . S
C414 H413 0.951 . S
C414 C420 1.265 1_554 S
H415 C420 0.950 . S
H416 C424 0.949 . S
H417 C425 0.950 . S
H418 C426 0.951 . S
H419 C427 0.951 . S
C420 C414 1.265 1_556 S
C420 H415 0.950 . S
C420 C421 1.478 1_556 S
C421 C408 1.394 . S
C421 C420 1.478 1_554 S
C421 C422 1.397 1_554 S
C422 C421 1.397 1_556 S
C422 C423 1.438 . S
C422 C427 1.429 . S
C423 C406 1.394 1_556 S
C423 C422 1.438 . S
C423 C424 1.428 . S
C424 H416 0.949 . S
C424 C423 1.428 . S
C424 C425 1.345 . S
C425 H417 0.950 . S
C425 C424 1.345 . S
C425 C426 1.424 . S
C426 H418 0.951 . S
C426 C425 1.424 . S
C426 C427 1.347 . S
C427 H419 0.951 . S
C427 C422 1.429 . S
C427 C426 1.347 . S
H428 C429 0.951 . S
C429 H428 0.951 . S
C429 C435 1.265 . S
H430 C435 0.950 . S
H431 C439 0.949 . S
H432 C440 0.950 . S
H433 C441 0.951 . S
H434 C442 0.951 . S
C435 C429 1.265 . S
C435 H430 0.950 . S
C435 C436 1.478 . S
C436 C435 1.478 . S
C436 C437 1.397 . S
C436 C453 1.394 . S
C437 C436 1.397 . S
C437 C438 1.438 . S
C437 C442 1.429 . S
C438 C437 1.438 . S
C438 C439 1.428 . S
C438 C451 1.394 . S
C439 H431 0.949 . S
C439 C438 1.428 . S
C439 C440 1.345 1_455 S
C440 H432 0.950 . S
C440 C439 1.345 1_655 S
C440 C441 1.424 . S
C441 H433 0.951 . S
C441 C440 1.424 . S
C441 C442 1.347 1_655 S
C442 H434 0.951 . S
C442 C437 1.429 . S
C442 C441 1.347 1_455 S
H443 C444 0.951 . S
C444 H443 0.951 . S
C444 C450 1.265 . S
H445 C450 0.950 . S
H446 C454 0.949 . S
H447 C455 0.950 . S
H448 C456 0.951 . S
H449 C457 0.951 . S
C450 C444 1.265 . S
C450 H445 0.950 . S
C450 C451 1.478 . S
C451 C438 1.394 . S
C451 C450 1.478 . S
C451 C452 1.397 . S
C452 C451 1.397 . S
C452 C453 1.438 . S
C452 C457 1.429 . S
C453 C436 1.394 . S
C453 C452 1.438 . S
C453 C454 1.428 . S
C454 H446 0.949 . S
C454 C453 1.428 . S
C454 C455 1.345 . S
C455 H447 0.950 . S
C455 C454 1.345 . S
C455 C456 1.424 . S
C456 H448 0.951 . S
C456 C455 1.424 . S
C456 C457 1.347 . S
C457 H449 0.951 . S
C457 C452 1.429 . S
C457 C456 1.347 . S
H458 C459 0.951 . S
C459 H458 0.951 . S
C459 C465 1.265 . S
H460 C465 0.950 . S
H461 C469 0.949 . S
H462 C470 0.950 . S
H463 C471 0.951 . S
H464 C472 0.951 . S
C465 C459 1.265 . S
C465 H460 0.950 . S
C465 C466 1.478 . S
C466 C465 1.478 . S
C466 C467 1.397 . S
C466 C483 1.394 . S
C467 C466 1.397 . S
C467 C468 1.438 . S
C467 C472 1.429 . S
C468 C467 1.438 . S
C468 C469 1.428 . S
C468 C481 1.394 . S
C469 H461 0.949 . S
C469 C468 1.428 . S
C469 C470 1.345 . S
C470 H462 0.950 . S
C470 C469 1.345 . S
C470 C471 1.424 . S
C471 H463 0.951 . S
C471 C470 1.424 . S
C471 C472 1.347 . S
C472 H464 0.951 . S
C472 C467 1.429 . S
C472 C471 1.347 . S
H473 C474 0.951 . S
C474 H473 0.951 . S
C474 C480 1.265 . S
H475 C480 0.950 . S
H476 C484 0.949 . S
H477 C485 0.950 . S
H478 C486 0.951 . S
H479 C487 0.951 . S
C480 C474 1.265 . S
C480 H475 0.950 . S
C480 C481 1.478 . S
C481 C468 1.394 . S
C481 C480 1.478 . S
C481 C482 1.397 . S
C482 C481 1.397 . S
C482 C483 1.438 . S
C482 C487 1.429 . S
C483 C466 1.394 . S
C483 C482 1.438 . S
C483 C484 1.428 . S
C484 H476 0.949 . S
C484 C483 1.428 . S
C484 C485 1.345 . S
C485 H477 0.950 . S
C485 C484 1.345 . S
C485 C486 1.424 . S
C486 H478 0.951 . S
C486 C485 1.424 . S
C486 C487 1.347 . S
C487 H479 0.951 . S
C487 C482 1.429 . S
C487 C486 1.347 . S
H488 C489 0.951 . S
C489 H488 0.951 . S
C489 C495 1.265 . S
H490 C495 0.950 . S
H491 C499 0.949 . S
H492 C500 0.950 . S
H493 C501 0.951 . S
H494 C502 0.951 . S
C495 C489 1.265 . S
C495 H490 0.950 . S
C495 C496 1.478 . S
C496 C495 1.478 . S
C496 C497 1.397 . S
C496 C513 1.394 . S
C497 C496 1.397 . S
C497 C498 1.438 . S
C497 C502 1.429 . S
C498 C497 1.438 . S
C498 C499 1.428 . S
C498 C511 1.394 . S
C499 H491 0.949 . S
C499 C498 1.428 . S
C499 C500 1.345 . S
C500 H492 0.950 . S
C500 C499 1.345 . S
C500 C501 1.424 . S
C501 H493 0.951 . S
C501 C500 1.424 . S
C501 C502 1.347 . S
C502 H494 0.951 . S
C502 C497 1.429 . S
C502 C501 1.347 . S
H503 C504 0.951 . S
C504 H503 0.951 . S
C504 C510 1.265 . S
H505 C510 0.950 . S
H506 C514 0.949 . S
H507 C515 0.950 . S
H508 C516 0.951 . S
H509 C517 0.951 . S
C510 C504 1.265 . S
C510 H505 0.950 . S
C510 C511 1.478 . S
C511 C498 1.394 . S
C511 C510 1.478 . S
C511 C512 1.397 . S
C512 C511 1.397 . S
C512 C513 1.438 . S
C512 C517 1.429 . S
C513 C496 1.394 . S
C513 C512 1.438 . S
C513 C514 1.428 . S
C514 H506 0.949 . S
C514 C513 1.428 . S
C514 C515 1.345 . S
C515 H507 0.950 . S
C515 C514 1.345 . S
C515 C516 1.424 . S
C516 H508 0.951 . S
C516 C515 1.424 . S
C516 C517 1.347 . S
C517 H509 0.951 . S
C517 C512 1.429 . S
C517 C516 1.347 . S
H518 C519 0.951 . S
C519 H518 0.951 . S
C519 C525 1.265 . S
H520 C525 0.950 . S
H521 C529 0.949 . S
H522 C530 0.950 . S
H523 C531 0.951 . S
H524 C532 0.951 . S
C525 C519 1.265 . S
C525 H520 0.950 . S
C525 C526 1.478 . S
C526 C525 1.478 . S
C526 C527 1.397 . S
C526 C543 1.394 . S
C527 C526 1.397 . S
C527 C528 1.438 . S
C527 C532 1.429 . S
C528 C527 1.438 . S
C528 C529 1.428 . S
C528 C541 1.394 . S
C529 H521 0.949 . S
C529 C528 1.428 . S
C529 C530 1.345 . S
C530 H522 0.950 . S
C530 C529 1.345 . S
C530 C531 1.424 . S
C531 H523 0.951 . S
C531 C530 1.424 . S
C531 C532 1.347 . S
C532 H524 0.951 . S
C532 C527 1.429 . S
C532 C531 1.347 . S
H533 C534 0.951 . S
C534 H533 0.951 . S
C534 C540 1.265 . S
H535 C540 0.950 . S
H536 C544 0.949 . S
H537 C545 0.950 . S
H538 C546 0.951 . S
H539 C547 0.951 . S
C540 C534 1.265 . S
C540 H535 0.950 . S
C540 C541 1.478 . S
C541 C528 1.394 . S
C541 C540 1.478 . S
C541 C542 1.397 . S
C542 C541 1.397 . S
C542 C543 1.438 . S
C542 C547 1.429 . S
C543 C526 1.394 . S
C543 C542 1.438 . S
C543 C544 1.428 . S
C544 H536 0.949 . S
C544 C543 1.428 . S
C544 C545 1.345 . S
C545 H537 0.950 . S
C545 C544 1.345 . S
C545 C546 1.424 . S
C546 H538 0.951 . S
C546 C545 1.424 . S
C546 C547 1.347 . S
C547 H539 0.951 . S
C547 C542 1.429 . S
C547 C546 1.347 . S
H548 C549 0.951 . S
C549 H548 0.951 . S
C549 C555 1.265 . S
H550 C555 0.950 . S
H551 C559 0.949 . S
H552 C560 0.950 . S
H553 C561 0.951 . S
H554 C562 0.951 . S
C555 C549 1.265 . S
C555 H550 0.950 . S
C555 C556 1.478 . S
C556 C555 1.478 . S
C556 C557 1.397 . S
C556 C573 1.394 . S
C557 C556 1.397 . S
C557 C558 1.438 . S
C557 C562 1.429 . S
C558 C557 1.438 . S
C558 C559 1.428 . S
C558 C571 1.394 . S
C559 H551 0.949 . S
C559 C558 1.428 . S
C559 C560 1.345 . S
C560 H552 0.950 . S
C560 C559 1.345 . S
C560 C561 1.424 . S
C561 H553 0.951 . S
C561 C560 1.424 . S
C561 C562 1.347 . S
C562 H554 0.951 . S
C562 C557 1.429 . S
C562 C561 1.347 . S
H563 C564 0.951 . S
C564 H563 0.951 . S
C564 C570 1.265 . S
H565 C570 0.950 . S
H566 C574 0.949 . S
H567 C575 0.950 . S
H568 C576 0.951 . S
H569 C577 0.951 . S
C570 C564 1.265 . S
C570 H565 0.950 . S
C570 C571 1.478 . S
C571 C558 1.394 . S
C571 C570 1.478 . S
C571 C572 1.397 . S
C572 C571 1.397 . S
C572 C573 1.438 . S
C572 C577 1.429 . S
C573 C556 1.394 . S
C573 C572 1.438 . S
C573 C574 1.428 . S
C574 H566 0.949 . S
C574 C573 1.428 . S
C574 C575 1.345 . S
C575 H567 0.950 . S
C575 C574 1.345 . S
C575 C576 1.424 . S
C576 H568 0.951 . S
C576 C575 1.424 . S
C576 C577 1.347 . S
C577 H569 0.951 . S
C577 C572 1.429 . S
C577 C576 1.347 . S
H578 C579 0.951 . S
C579 H578 0.951 . S
C579 C585 1.265 . S
H580 C585 0.950 . S
H581 C589 0.949 . S
H582 C590 0.950 . S
H583 C591 0.951 . S
H584 C592 0.951 . S
C585 C579 1.265 . S
C585 H580 0.950 . S
C585 C586 1.478 . S
C586 C585 1.478 . S
C586 C587 1.397 . S
C586 C603 1.394 . S
C587 C586 1.397 . S
C587 C588 1.438 . S
C587 C592 1.429 . S
C588 C587 1.438 . S
C588 C589 1.428 . S
C588 C601 1.394 . S
C589 H581 0.949 . S
C589 C588 1.428 . S
C589 C590 1.345 . S
C590 H582 0.950 . S
C590 C589 1.345 . S
C590 C591 1.424 . S
C591 H583 0.951 . S
C591 C590 1.424 . S
C591 C592 1.347 . S
C592 H584 0.951 . S
C592 C587 1.429 . S
C592 C591 1.347 . S
H593 C594 0.951 . S
C594 H593 0.951 . S
C594 C600 1.265 . S
H595 C600 0.950 1_455 S
H596 C604 0.949 . S
H597 C605 0.950 . S
H598 C606 0.951 1_455 S
H599 C607 0.942 1_455 S
C600 C594 1.265 . S
C600 H595 0.950 1_655 S
C600 C601 1.478 . S
C601 C588 1.394 . S
C601 C600 1.478 . S
C601 C602 1.397 . S
C602 C601 1.397 . S
C602 C603 1.438 . S
C602 C607 1.429 . S
C603 C586 1.394 . S
C603 C602 1.438 . S
C603 C604 1.428 . S
C604 H596 0.949 . S
C604 C603 1.428 . S
C604 C605 1.345 . S
C605 H597 0.950 . S
C605 C604 1.345 . S
C605 C606 1.424 . S
C606 H598 0.951 1_655 S
C606 C605 1.424 . S
C606 C607 1.347 . S
C607 H599 0.942 1_655 S
C607 C602 1.429 . S
C607 C606 1.347 . S
H608 C609 0.951 . S
C609 H608 0.951 . S
C609 C615 1.265 . S
H610 C615 0.950 . S
H611 C619 0.949 . S
H612 C620 0.950 . S
H613 C621 0.951 . S
H614 C622 0.951 . S
C615 C609 1.265 . S
C615 H610 0.950 . S
C615 C616 1.478 . S
C616 C615 1.478 . S
C616 C617 1.397 . S
C616 C633 1.394 . S
C617 C616 1.397 . S
C617 C618 1.438 . S
C617 C622 1.429 . S
C618 C617 1.438 . S
C618 C619 1.428 . S
C618 C631 1.394 . S
C619 H611 0.949 . S
C619 C618 1.428 . S
C619 C620 1.345 . S
C620 H612 0.950 . S
C620 C619 1.345 . S
C620 C621 1.424 . S
C621 H613 0.951 . S
C621 C620 1.424 . S
C621 C622 1.347 . S
C622 H614 0.951 . S
C622 C617 1.429 . S
C622 C621 1.347 . S
H623 C624 0.951 . S
C624 H623 0.951 . S
C624 C630 1.265 . S
H625 C630 0.950 . S
H626 C634 0.949 . S
H627 C635 0.950 . S
H628 C636 0.951 . S
H629 C637 0.951 . S
C630 C624 1.265 . S
C630 H625 0.950 . S
C630 C631 1.478 . S
C631 C618 1.394 . S
C631 C630 1.478 . S
C631 C632 1.397 . S
C632 C631 1.397 . S
C632 C633 1.438 . S
C632 C637 1.429 . S
C633 C616 1.394 . S
C633 C632 1.438 . S
C633 C634 1.428 . S
C634 H626 0.949 . S
C634 C633 1.428 . S
C634 C635 1.345 . S
C635 H627 0.950 . S
C635 C634 1.345 . S
C635 C636 1.424 . S
C636 H628 0.951 . S
C636 C635 1.424 . S
C636 C637 1.347 . S
C637 H629 0.951 . S
C637 C632 1.429 . S
C637 C636 1.347 . S
H638 C639 0.951 . S
C639 H638 0.951 . S
C639 C645 1.265 . S
H640 C645 0.950 . S
H641 C649 0.949 . S
H642 C650 0.950 . S
H643 C651 0.951 . S
H644 C652 0.951 . S
C645 C639 1.265 . S
C645 H640 0.950 . S
C645 C646 1.478 . S
C646 C645 1.478 . S
C646 C647 1.397 . S
C646 C663 1.394 . S
C647 C646 1.397 . S
C647 C648 1.438 . S
C647 C652 1.429 . S
C648 C647 1.438 . S
C648 C649 1.428 . S
C648 C661 1.394 . S
C649 H641 0.949 . S
C649 C648 1.428 . S
C649 C650 1.345 . S
C650 H642 0.950 . S
C650 C649 1.345 . S
C650 C651 1.424 . S
C651 H643 0.951 . S
C651 C650 1.424 . S
C651 C652 1.347 . S
C652 H644 0.951 . S
C652 C647 1.429 . S
C652 C651 1.347 . S
H653 C654 0.951 . S
C654 H653 0.951 . S
C654 C660 1.265 . S
H655 C660 0.950 . S
H656 C664 0.949 . S
H657 C665 0.950 . S
H658 C666 0.951 . S
H659 C667 0.951 . S
C660 C654 1.265 . S
C660 H655 0.950 . S
C660 C661 1.478 . S
C661 C648 1.394 . S
C661 C660 1.478 . S
C661 C662 1.397 . S
C662 C661 1.397 . S
C662 C663 1.438 . S
C662 C667 1.429 . S
C663 C646 1.394 . S
C663 C662 1.438 . S
C663 C664 1.428 . S
C664 H656 0.949 . S
C664 C663 1.428 . S
C664 C665 1.345 . S
C665 H657 0.950 . S
C665 C664 1.345 . S
C665 C666 1.424 . S
C666 H658 0.951 . S
C666 C665 1.424 . S
C666 C667 1.347 . S
C667 H659 0.951 . S
C667 C662 1.429 . S
C667 C666 1.347 . S
C324 C244 1.649 . S
C309 C211 1.610 . S
C339 C31 1.556 . S
C354 C287 1.578 . S
C369 C91 1.603 . S
C384 C253 1.632 . S
C399 C151 1.548 . S
C414 C278 1.576 . S
C444 C240 1.619 . S
C429 C20 1.601 . S
C474 C282 1.727 . S
C459 C61 1.674 . S
C489 C121 1.512 . S
C504 C248 1.605 . S
C519 C200 1.668 . S
C534 C274 1.724 . S
C564 C303 1.716 . S
C549 C80 1.687 . S
C594 C269 1.636 . S
C579 C140 1.609 . S
C624 C291 1.708 . S
C609 C181 1.551 . S
C639 C1 1.604 . S
C654 C257 1.612 . S
