# Generated by pormake.
# Topology zzz, (3,6)-cn, num edge types: 1
# Building blocks:
#     Node 0, Type 0, BuildingBlock: BETDIP_clean_linker_0, # of connection points: 3
#     Node 1, Type 0, BuildingBlock: BETDIP_clean_linker_0, # of connection points: 3
#     Node 2, Type 0, BuildingBlock: BETDIP_clean_linker_0, # of connection points: 3
#     Node 3, Type 0, BuildingBlock: BETDIP_clean_linker_0, # of connection points: 3
#     Node 4, Type 0, BuildingBlock: BETDIP_clean_linker_0, # of connection points: 3
#     Node 5, Type 0, BuildingBlock: BETDIP_clean_linker_0, # of connection points: 3
#     Node 6, Type 0, BuildingBlock: BETDIP_clean_linker_0, # of connection points: 3
#     Node 7, Type 0, BuildingBlock: BETDIP_clean_linker_0, # of connection points: 3
#     Node 8, Type 1, BuildingBlock: INOVEN_clean_sbu_0, # of connection points: 6
#     Node 9, Type 1, BuildingBlock: INOVEN_clean_sbu_0, # of connection points: 6
#     Node 10, Type 1, BuildingBlock: INOVEN_clean_sbu_0, # of connection points: 6
#     Node 11, Type 1, BuildingBlock: INOVEN_clean_sbu_0, # of connection points: 6
#     Edge 12, Type (0, 1), BuildingBlock: XIVTED_clean_linker_0, # of connection points: 2
#     Edge 13, Type (0, 1), BuildingBlock: XIVTED_clean_linker_0, # of connection points: 2
#     Edge 14, Type (0, 1), BuildingBlock: XIVTED_clean_linker_0, # of connection points: 2
#     Edge 15, Type (0, 1), BuildingBlock: XIVTED_clean_linker_0, # of connection points: 2
#     Edge 16, Type (0, 1), BuildingBlock: XIVTED_clean_linker_0, # of connection points: 2
#     Edge 17, Type (0, 1), BuildingBlock: XIVTED_clean_linker_0, # of connection points: 2
#     Edge 18, Type (0, 1), BuildingBlock: XIVTED_clean_linker_0, # of connection points: 2
#     Edge 19, Type (0, 1), BuildingBlock: XIVTED_clean_linker_0, # of connection points: 2
#     Edge 20, Type (0, 1), BuildingBlock: XIVTED_clean_linker_0, # of connection points: 2
#     Edge 21, Type (0, 1), BuildingBlock: XIVTED_clean_linker_0, # of connection points: 2
#     Edge 22, Type (0, 1), BuildingBlock: XIVTED_clean_linker_0, # of connection points: 2
#     Edge 23, Type (0, 1), BuildingBlock: XIVTED_clean_linker_0, # of connection points: 2
#     Edge 24, Type (0, 1), BuildingBlock: XIVTED_clean_linker_0, # of connection points: 2
#     Edge 25, Type (0, 1), BuildingBlock: XIVTED_clean_linker_0, # of connection points: 2
#     Edge 26, Type (0, 1), BuildingBlock: XIVTED_clean_linker_0, # of connection points: 2
#     Edge 27, Type (0, 1), BuildingBlock: XIVTED_clean_linker_0, # of connection points: 2
#     Edge 28, Type (0, 1), BuildingBlock: XIVTED_clean_linker_0, # of connection points: 2
#     Edge 29, Type (0, 1), BuildingBlock: XIVTED_clean_linker_0, # of connection points: 2
#     Edge 30, Type (0, 1), BuildingBlock: XIVTED_clean_linker_0, # of connection points: 2
#     Edge 31, Type (0, 1), BuildingBlock: XIVTED_clean_linker_0, # of connection points: 2
#     Edge 32, Type (0, 1), BuildingBlock: XIVTED_clean_linker_0, # of connection points: 2
#     Edge 33, Type (0, 1), BuildingBlock: XIVTED_clean_linker_0, # of connection points: 2
#     Edge 34, Type (0, 1), BuildingBlock: XIVTED_clean_linker_0, # of connection points: 2
#     Edge 35, Type (0, 1), BuildingBlock: XIVTED_clean_linker_0, # of connection points: 2
# Relax obj value: 0.262
# Max RMSD: 0.185
# Mean RMSD: 0.159
data_MOF--net-zzz--node1-INOVEN_clean_sbu_0--node2-BETDIP_clean_linker_0--edge1-XIVTED_clean_linker_0
_symmetry_space_group_name_H-M    P1
_symmetry_Int_Tables_number       1
_symmetry_cell_setting            triclinic
loop_
_symmetry_equiv_pos_as_xyz
'x, y, z'
_cell_length_a     52.566136
_cell_length_b     52.553142
_cell_length_c     13.308095
_cell_angle_alpha  90.007114
_cell_angle_beta   90.052165
_cell_angle_gamma 90.10488
loop_
_atom_site_label
_atom_site_type_symbol
_atom_site_fract_x
_atom_site_fract_y
_atom_site_fract_z
_atom_type_partial_charge
H0 H 0.7644 0.51841 0.5417 0.0
H1 H 0.74269 0.55261 0.25884 0.0
H2 H 0.81966 0.55809 0.36109 0.0
H3 H 0.70869 0.56557 0.42578 0.0
C4 C 0.70452 0.54618 0.4023 0.0
C5 C 0.76931 0.52925 0.47529 0.0
C6 C 0.79457 0.53833 0.46213 0.0
C7 C 0.75019 0.53529 0.4032 0.0
C8 C 0.75683 0.54899 0.31642 0.0
C9 C 0.78169 0.55742 0.30223 0.0
C10 C 0.80017 0.55224 0.37509 0.0
N11 N 0.72425 0.52782 0.41578 0.0
H12 H 0.02011 0.76078 0.49127 0.0
H13 H 0.98833 0.73174 0.21476 0.0
H14 H 0.98467 0.81145 0.27921 0.0
H15 H 0.97528 0.69859 0.37945 0.0
C16 C 0.99538 0.69644 0.36219 0.0
C17 C 1.00961 0.76388 0.42231 0.0
C18 C 1.00248 0.7889 0.39411 0.0
C19 C 1.00361 0.74292 0.35892 0.0
C20 C 0.99131 0.74732 0.26688 0.0
C21 C 0.98452 0.77189 0.23815 0.0
C22 C 0.98941 0.7923 0.30321 0.0
N23 N 1.01164 0.71767 0.38205 0.0
H24 H 0.77974 0.02786 0.44851 0.0
H25 H 0.79996 0.96819 0.24069 0.0
H26 H 0.72666 0.96802 0.38232 0.0
H27 H 0.8408 0.97611 0.351 0.0
C28 C 0.84024 0.99484 0.31632 0.0
C29 C 0.77534 1.01 0.41173 0.0
C30 C 0.75129 0.99839 0.42655 0.0
C31 C 0.79365 0.99832 0.34837 0.0
C32 C 0.78697 0.97606 0.29565 0.0
C33 C 0.76281 0.96514 0.30672 0.0
C34 C 0.74572 0.97582 0.37561 0.0
N35 N 0.81788 1.00989 0.33024 0.0
H36 H 0.53379 0.7742 0.4558 0.0
H37 H 0.47573 0.7913 0.23697 0.0
H38 H 0.46848 0.7255 0.42589 0.0
H39 H 0.52535 0.79424 0.15982 0.0
C40 C 0.52501 0.81102 0.20768 0.0
C41 C 0.51543 0.77012 0.42247 0.0
C42 C 0.5017 0.74825 0.45222 0.0
C43 C 0.50578 0.78605 0.34575 0.0
C44 C 0.48267 0.77972 0.29849 0.0
C45 C 0.46889 0.75815 0.32819 0.0
C46 C 0.4783 0.74301 0.4065 0.0
N47 N 0.51975 0.80767 0.31187 0.0
H48 H 0.28333 0.50058 0.06224 0.0
H49 H 0.30077 0.56673 0.24252 0.0
H50 H 0.22834 0.56028 0.09558 0.0
H51 H 0.34258 0.55696 0.14456 0.0
C52 C 0.34236 0.53867 0.18279 0.0
C53 C 0.27819 0.51917 0.0908 0.0
C54 C 0.25395 0.52942 0.06905 0.0
C55 C 0.2958 0.53322 0.14971 0.0
C56 C 0.28823 0.5567 0.19132 0.0
C57 C 0.26395 0.56655 0.17185 0.0
C58 C 0.24745 0.55315 0.10833 0.0
N59 N 0.32026 0.52295 0.17343 0.0
H60 H 0.0486 0.27081 0.06731 0.0
H61 H 0.98076 0.29559 0.22107 0.0
H62 H 0.98104 0.22483 0.05994 0.0
H63 H 1.00038 0.33659 0.12585 0.0
C64 C 1.01608 0.33341 0.17756 0.0
C65 C 0.02873 0.2681 0.08601 0.0
C66 C 1.0158 0.246 0.05324 0.0
C67 C 1.01567 0.28683 0.14243 0.0
C68 C 0.99027 0.28234 0.17137 0.0
C69 C 0.97771 0.25998 0.14209 0.0
C70 C 0.99035 0.24256 0.08021 0.0
N71 N 0.02844 0.30924 0.17642 0.0
H72 H 0.26287 0.03605 0.02033 0.0
H73 H 0.24182 0.97346 0.21387 0.0
H74 H 0.31571 0.97541 0.07823 0.0
H75 H 0.20325 0.9813 0.09769 0.0
C76 C 0.20205 0.99976 0.13439 0.0
C77 C 0.26725 0.01792 0.05489 0.0
C78 C 0.29142 1.00667 0.04 0.0
C79 C 0.24867 1.00532 0.11427 0.0
C80 C 0.25516 0.9824 0.16278 0.0
C81 C 0.27918 0.97152 0.14949 0.0
C82 C 0.29678 0.9834 0.0861 0.0
N83 N 0.22392 1.01592 0.12943 0.0
H84 H 0.49749 0.26619 0.06508 0.0
H85 H 0.55545 0.24178 0.27327 0.0
H86 H 0.56148 0.31455 0.12832 0.0
H87 H 0.54217 0.20201 0.1353 0.0
C88 C 0.52561 0.2038 0.18372 0.0
C89 C 0.51548 0.26943 0.10273 0.0
C90 C 0.52903 0.29224 0.08626 0.0
C91 C 0.52562 0.25065 0.16725 0.0
C92 C 0.54845 0.2555 0.21912 0.0
C93 C 0.56143 0.27854 0.20587 0.0
C94 C 0.55195 0.29635 0.13712 0.0
N95 N 0.5124 0.22743 0.18482 0.0
Gd96 Gd 0.03491 1.00974 0.82516 0.0
Gd97 Gd 1.00506 0.02858 0.62097 0.0
C98 C 1.01622 0.96826 0.65776 0.0
C99 C 0.0423 0.98749 0.99268 0.0
C100 C 0.04011 0.95967 1.00359 0.0
C101 C 0.05337 0.94361 0.93701 0.0
C102 C 0.01993 0.94962 0.05985 0.0
C103 C 0.02326 0.9096 0.96893 0.0
C104 C 1.01152 0.92481 0.04247 0.0
C105 C 0.04504 0.91877 0.92007 0.0
C106 C 0.06658 1.01387 0.66238 0.0
C107 C 0.02762 0.07034 0.78515 0.0
C108 C 0.99205 0.04637 0.44871 0.0
C109 C 0.97396 0.06659 0.42278 0.0
C110 C 0.95788 0.0766 0.497 0.0
C111 C 0.97407 0.07742 0.32679 0.0
C112 C 0.94384 0.1097 0.38225 0.0
C113 C 0.95911 0.09881 0.30654 0.0
C114 C 0.94285 0.09786 0.47683 0.0
C115 C 0.97309 0.02302 0.78289 0.0
O116 O 0.02124 0.97295 0.75384 0.0
O117 O 1.0127 0.98672 0.59064 0.0
O118 O 0.06131 0.99581 0.93785 0.0
O119 O 0.02077 0.99884 0.97155 0.0
O120 O 0.0739 1.00607 0.75035 0.0
O121 O 0.04328 0.01894 0.66884 0.0
O122 O 0.01775 0.06553 0.69466 0.0
O123 O 0.03443 0.05223 0.84978 0.0
O124 O 0.98196 0.02565 0.48695 0.0
O125 O 1.01244 0.05413 0.49705 0.0
O126 O 0.96584 0.03139 0.69592 0.0
O127 O 0.99644 0.01837 0.77518 0.0
H128 H 0.0689 0.95077 0.89161 0.0
H129 H 1.00933 0.96161 0.11114 0.0
H130 H 0.99519 0.91788 0.08387 0.0
H131 H 0.05458 0.90741 0.86366 0.0
H132 H 0.95764 0.06858 0.57183 0.0
H133 H 0.98647 0.07001 0.26881 0.0
H134 H 0.96069 0.10765 0.23332 0.0
H135 H 0.93117 0.10558 0.53646 0.0
Gd136 Gd 0.52913 0.029 0.83774 0.0
Gd137 Gd 0.51579 1.00454 0.6495 0.0
C138 C 0.57365 1.01483 0.67962 0.0
C139 C 0.55234 0.03519 0.00508 0.0
C140 C 0.57414 0.01947 0.03785 0.0
C141 C 0.59895 0.0292 0.03083 0.0
C142 C 0.57079 0.9933 0.05698 0.0
C143 C 0.61641 0.98652 0.04881 0.0
C144 C 0.59168 0.977 0.06196 0.0
C145 C 0.61986 1.0129 0.03625 0.0
C146 C 0.51757 0.06295 0.69158 0.0
C147 C 0.46997 0.02232 0.80387 0.0
C148 C 0.49535 0.98861 0.48489 0.0
C149 C 0.47274 0.97275 0.46985 0.0
C150 C 0.46282 0.96899 0.3735 0.0
C151 C 0.46033 0.96208 0.55323 0.0
C152 C 0.42717 0.94531 0.44444 0.0
C153 C 0.43772 0.94848 0.54068 0.0
C154 C 0.44021 0.95535 0.36077 0.0
C155 C 0.52824 0.97095 0.79673 0.0
O156 O 0.56684 1.01407 0.77523 0.0
O157 O 0.55581 1.01604 0.61008 0.0
O158 O 0.55664 0.04991 0.92751 0.0
O159 O 0.53046 0.02339 0.99884 0.0
O160 O 0.51223 0.06639 0.78595 0.0
O161 O 0.53031 0.04285 0.68063 0.0
O162 O 0.47656 1.01355 0.71424 0.0
O163 O 0.48737 0.0288 0.87054 0.0
O164 O 0.51448 0.97718 0.52816 0.0
O165 O 0.49095 1.01121 0.52227 0.0
O166 O 0.53508 0.96884 0.70387 0.0
O167 O 0.51448 0.9904 0.80705 0.0
H168 H 0.60214 0.04923 0.01606 0.0
H169 H 0.55197 0.98507 0.06299 0.0
H170 H 0.58835 0.95682 0.07216 0.0
H171 H 0.63875 0.02096 0.02895 0.0
H172 H 0.47218 0.97717 0.30853 0.0
H173 H 0.46786 0.96476 0.62833 0.0
H174 H 0.42824 0.94089 0.60644 0.0
H175 H 0.43235 0.95371 0.28579 0.0
Gd176 Gd 0.50578 0.52775 0.87688 0.0
Gd177 Gd 0.54312 0.51757 0.71121 0.0
C178 C 0.52367 0.57409 0.72782 0.0
C179 C 0.48555 0.54401 0.04073 0.0
C180 C 0.46596 0.56345 0.05639 0.0
C181 C 0.45247 0.57314 0.97381 0.0
C182 C 0.46255 0.57434 0.15129 0.0
C183 C 0.43463 0.60648 0.07852 0.0
C184 C 0.44696 0.59568 0.16243 0.0
C185 C 0.4368 0.59435 0.98486 0.0
C186 C 0.47762 0.52231 0.7064 0.0
C187 C 0.5203 0.46971 0.84081 0.0
C188 C 0.5717 0.49982 0.56937 0.0
C189 C 0.58015 0.474 0.54366 0.0
C190 C 0.60549 0.46973 0.51513 0.0
C191 C 0.56382 0.45319 0.55763 0.0
C192 C 0.59829 0.42404 0.51936 0.0
C193 C 0.57284 0.42845 0.54619 0.0
C194 C 0.61447 0.44489 0.50216 0.0
C195 C 0.564 0.53262 0.88855 0.0
O196 O 0.51515 0.56744 0.81784 0.0
O197 O 0.53271 0.557 0.66478 0.0
O198 O 0.47793 0.52324 0.99523 0.0
O199 O 0.5072 0.55275 0.00587 0.0
O200 O 0.46835 0.5257 0.79504 0.0
O201 O 0.50158 0.52077 0.71221 0.0
O202 O 0.53188 0.47749 0.75793 0.0
O203 O 0.51083 0.48607 0.90588 0.0
O204 O 0.58056 0.50838 0.65445 0.0
O205 O 0.54753 0.50491 0.55694 0.0
O206 O 0.56985 0.54214 0.8018 0.0
O207 O 0.54638 0.51643 0.87792 0.0
H208 H 0.45499 0.56511 0.89967 0.0
H209 H 0.4729 0.56715 0.21572 0.0
H210 H 0.44603 0.60469 0.2355 0.0
H211 H 0.4274 0.60201 0.91904 0.0
H212 H 0.61843 0.48559 0.50471 0.0
H213 H 0.54416 0.45603 0.57877 0.0
H214 H 0.55977 0.41272 0.55717 0.0
H215 H 0.63411 0.44195 0.48046 0.0
Gd216 Gd 0.01724 0.49823 0.87229 0.0
Gd217 Gd 0.0324 0.53024 0.68766 0.0
C218 C 0.97243 0.51605 0.72059 0.0
C219 C 0.99969 0.48931 0.04782 0.0
C220 C 0.97592 0.50051 0.08721 0.0
C221 C 0.95281 0.48758 0.07217 0.0
C222 C 0.97526 0.52633 0.1147 0.0
C223 C 0.92968 0.52747 0.08419 0.0
C224 C 0.95238 0.53974 0.11222 0.0
C225 C 0.92993 0.50095 0.0703 0.0
C226 C 0.0271 0.46574 0.71757 0.0
C227 C 0.07727 0.50773 0.82719 0.0
C228 C 0.04351 0.5532 0.52221 0.0
C229 C 0.06499 0.56992 0.49665 0.0
C230 C 0.07337 0.57189 0.39713 0.0
C231 C 0.07868 0.58226 0.57318 0.0
C232 C 0.11031 0.59636 0.45228 0.0
C233 C 0.10106 0.59543 0.5512 0.0
C234 C 0.09584 0.58505 0.37498 0.0
C235 C 0.03017 0.5558 0.86475 0.0
O236 O 0.97818 0.50701 0.81046 0.0
O237 O 0.99027 0.52407 0.65757 0.0
O238 O 0.99644 0.47351 0.97262 0.0
O239 O 0.01866 0.5052 0.03287 0.0
O240 O 0.02145 0.45851 0.80796 0.0
O241 O 0.02836 0.48971 0.71613 0.0
O242 O 0.07105 0.51621 0.73664 0.0
O243 O 0.05979 0.50198 0.89539 0.0
O244 O 0.02741 0.56234 0.58793 0.0
O245 O 0.04954 0.52941 0.5396 0.0
O246 O 0.0477 0.55913 0.79783 0.0
O247 O 1.01453 0.5392 0.83405 0.0
H248 H 0.95258 0.46753 0.0532 0.0
H249 H 0.99266 0.53673 0.12951 0.0
H250 H 0.95286 0.56003 0.12578 0.0
H251 H 0.91258 0.49061 0.05378 0.0
H252 H 0.06312 0.56238 0.33719 0.0
H253 H 0.07256 0.58098 0.65061 0.0
H254 H 0.11158 0.60415 0.61222 0.0
H255 H 0.10259 0.58508 0.29812 0.0
H256 H 0.16797 0.96458 0.19281 0.0
H257 H 0.07441 0.05065 0.51662 0.0
H258 H 0.18602 0.04398 0.23313 0.0
H259 H 0.09654 0.97501 0.60496 0.0
H260 H 0.10677 0.04929 0.38112 0.0
H261 H 0.13288 0.96894 0.31177 0.0
C262 C 0.16442 0.98304 0.22624 0.0
C263 C 0.18013 1.00387 0.20362 0.0
C264 C 0.10427 0.03298 0.42986 0.0
C265 C 0.13948 1.00908 0.33914 0.0
C266 C 0.08568 0.03362 0.50609 0.0
C267 C 0.08275 1.01281 0.5713 0.0
C268 C 0.11935 1.01109 0.41763 0.0
C269 C 0.09813 0.99139 0.55599 0.0
C270 C 0.14439 0.98547 0.29422 0.0
C271 C 0.17451 0.02737 0.24911 0.0
N272 N 0.11555 0.991 0.48055 0.0
N273 N 0.15455 0.02939 0.31474 0.0
H274 H 0.49462 0.20345 0.35253 0.0
H275 H 0.53377 0.06033 0.49744 0.0
H276 H 0.54432 0.15609 0.17589 0.0
H277 H 0.49642 0.11072 0.70595 0.0
H278 H 0.5326 0.09379 0.37033 0.0
H279 H 0.48994 0.16844 0.47423 0.0
C280 C 0.50424 0.18559 0.33864 0.0
C281 C 0.51989 0.18261 0.25399 0.0
C282 C 0.52457 0.09759 0.4437 0.0
C283 C 0.51472 0.14264 0.3926 0.0
C284 C 0.52521 0.07844 0.51638 0.0
C285 C 0.51539 0.08281 0.61279 0.0
C286 C 0.51395 0.12141 0.46702 0.0
C287 C 0.50436 0.10662 0.63271 0.0
C288 C 0.50169 0.16568 0.40834 0.0
C289 C 0.53209 0.15917 0.24018 0.0
N290 N 0.50402 0.12508 0.5606 0.0
N291 N 0.52929 0.14017 0.30856 0.0
H292 H 0.38875 0.56165 0.18543 0.0
H293 H 0.43179 0.49925 0.69985 0.0
H294 H 0.34682 0.50088 0.32679 0.0
H295 H 0.4852 0.53891 0.51068 0.0
H296 H 0.40082 0.49949 0.56315 0.0
H297 H 0.42427 0.55394 0.30126 0.0
C298 C 0.38715 0.54646 0.24012 0.0
C299 C 0.36473 0.5319 0.24644 0.0
C300 C 0.41939 0.50782 0.55047 0.0
C301 C 0.40531 0.5232 0.38031 0.0
C302 C 0.43715 0.50767 0.62859 0.0
C303 C 0.46117 0.51896 0.61649 0.0
C304 C 0.42529 0.52 0.45959 0.0
C305 C 0.467 0.52974 0.52275 0.0
C306 C 0.40748 0.54204 0.30599 0.0
C307 C 0.3637 0.51253 0.3189 0.0
N308 N 0.44902 0.53038 0.44833 0.0
N309 N 0.38353 0.50897 0.38366 0.0
H310 H 1.00233 0.38302 0.16602 0.0
H311 H 0.03926 0.41576 0.72946 0.0
H312 H 0.04413 0.33096 0.35371 0.0
H313 H 0.02287 0.47452 0.51319 0.0
H314 H 0.04068 0.38449 0.59367 0.0
H315 H 1.00903 0.41668 0.29095 0.0
C316 C 1.01319 0.37877 0.23317 0.0
C317 C 0.02272 0.35416 0.24934 0.0
C318 C 0.03707 0.40424 0.57538 0.0
C319 C 0.03005 0.39253 0.39394 0.0
C320 C 0.03624 0.42214 0.65297 0.0
C321 C 0.03094 0.44781 0.63263 0.0
C322 C 0.03202 0.41183 0.47627 0.0
C323 C 0.02714 0.45495 0.5321 0.0
C324 C 0.01702 0.39801 0.30438 0.0
C325 C 0.03656 0.34967 0.33782 0.0
N326 N 0.02738 0.437 0.45778 0.0
N327 N 0.03952 0.36857 0.40729 0.0
H328 H 0.88469 0.96969 0.29267 0.0
H329 H 0.93248 0.05286 0.82427 0.0
H330 H 0.84466 0.03565 0.18384 0.0
H331 H 0.97412 0.98896 0.94191 0.0
H332 H 0.90166 0.04847 0.96086 0.0
H333 H 0.91887 0.97812 0.17247 0.0
C334 C 0.88321 0.98613 0.24392 0.0
C335 C 0.86172 1.00196 0.24846 0.0
C336 C 0.91771 0.03561 0.95804 0.0
C337 C 0.90088 1.01164 0.10894 0.0
C338 C 0.93538 0.03812 0.88002 0.0
C339 C 0.95629 0.0216 0.87277 0.0
C340 C 0.92059 1.0161 0.02923 0.0
C341 C 0.95888 1.00269 0.94647 0.0
C342 C 0.90276 0.99091 0.17508 0.0
C343 C 0.86084 0.02296 0.18329 0.0
N344 N 0.94117 1.00035 0.0211 0.0
N345 N 0.88003 0.02707 0.11587 0.0
H346 H 0.54637 0.81975 0.02726 0.0
H347 H 0.50608 0.9659 0.98436 0.0
H348 H 0.51222 0.85938 0.27629 0.0
H349 H 0.55557 0.92754 0.77553 0.0
H350 H 0.50791 0.92832 0.09517 0.0
H351 H 0.54975 0.85985 0.93627 0.0
C352 C 0.53982 0.83704 0.06322 0.0
C353 C 0.52911 0.83623 0.15952 0.0
C354 C 0.51852 0.92827 0.02546 0.0
C355 C 0.53241 0.8825 0.05455 0.0
C356 C 0.51746 0.94968 0.96222 0.0
C357 C 0.53048 0.94974 0.87002 0.0
C358 C 0.53252 0.90674 0.99564 0.0
C359 C 0.54501 0.92828 0.84529 0.0
C360 C 0.54172 0.85999 0.01116 0.0
C361 C 0.52079 0.85921 0.20237 0.0
N362 N 0.54545 0.90769 0.90703 0.0
N363 N 0.52235 0.88142 0.14911 0.0
H364 H 0.67481 0.58308 0.32616 0.0
H365 H 0.57413 0.49622 0.03341 0.0
H366 H 0.68312 0.50151 0.32349 0.0
H367 H 0.59528 0.57177 0.93892 0.0
H368 H 0.60764 0.49799 0.1637 0.0
H369 H 0.63925 0.57938 0.20908 0.0
C370 C 0.66904 0.56431 0.30129 0.0
C371 C 0.68214 0.54261 0.33431 0.0
C372 C 0.60477 0.51418 0.11471 0.0
C373 C 0.64093 0.53819 0.20005 0.0
C374 C 0.58552 0.51331 0.0411 0.0
C375 C 0.58185 0.53396 0.97542 0.0
C376 C 0.62002 0.53609 0.12404 0.0
C377 C 0.5974 0.55545 0.98791 0.0
C378 C 0.64874 0.56223 0.2341 0.0
C379 C 0.67369 0.51876 0.29951 0.0
N380 N 0.6156 0.55601 0.06072 0.0
N381 N 0.65353 0.51716 0.23439 0.0
H382 H 0.0421 0.68508 0.27411 0.0
H383 H 0.98547 0.56631 0.96293 0.0
H384 H 0.96518 0.65753 0.30302 0.0
H385 H 0.06436 0.58834 0.95135 0.0
H386 H 0.97811 0.59921 0.09062 0.0
H387 H 0.05132 0.64944 0.15954 0.0
C388 C 0.02722 0.67146 0.25705 0.0
C389 C 1.0028 0.67431 0.2982 0.0
C390 C 0.99712 0.59667 0.0612 0.0
C391 C 1.0131 0.63363 0.16634 0.0
C392 C 1.00133 0.57776 0.98872 0.0
C393 C 0.02561 0.5743 0.94752 0.0
C394 C 0.01732 0.61247 0.09258 0.0
C395 C 0.04534 0.59025 0.98155 0.0
C396 C 0.03246 0.65113 0.19145 0.0
C397 C 0.98426 0.65609 0.27304 0.0
N398 N 0.04078 0.60861 0.05172 0.0
N399 N 0.98973 0.63671 0.20872 0.0
H400 H 0.9345 0.24032 0.05592 0.0
H401 H 0.94145 0.14952 0.51491 0.0
H402 H 0.96808 0.25814 0.34287 0.0
H403 H 0.9196 0.12811 0.21374 0.0
H404 H 0.93246 0.19372 0.47447 0.0
H405 H 0.90978 0.20648 0.13537 0.0
C406 C 0.93569 0.23795 0.13666 0.0
C407 C 0.95414 0.25122 0.19228 0.0
C408 C 0.92895 0.1793 0.41796 0.0
C409 C 0.92661 0.21227 0.28279 0.0
C410 C 0.93399 0.15393 0.44109 0.0
C411 C 0.93206 0.13508 0.3665 0.0
C412 C 0.92233 0.18595 0.31919 0.0
C413 C 0.92226 0.14213 0.27242 0.0
C414 C 0.92177 0.21844 0.18188 0.0
C415 C 0.95457 0.24783 0.29673 0.0
N416 N 0.91835 0.16708 0.25066 0.0
N417 N 0.94173 0.22801 0.33824 0.0
H418 H 0.30224 0.92708 0.09384 0.0
H419 H 0.38523 0.95263 0.56304 0.0
H420 H 0.27849 0.96976 0.35356 0.0
H421 H 0.41006 0.91304 0.29655 0.0
H422 H 0.34127 0.9435 0.51806 0.0
H423 H 0.3343 0.90576 0.19632 0.0
C424 C 0.30304 0.93108 0.17366 0.0
C425 C 0.28842 0.95079 0.21484 0.0
C426 C 0.35632 0.9362 0.47064 0.0
C427 C 0.32554 0.92737 0.33126 0.0
C428 C 0.38152 0.94134 0.49653 0.0
C429 C 0.40135 0.9343 0.43162 0.0
C430 C 0.35091 0.92435 0.37839 0.0
C431 C 0.39529 0.91965 0.34675 0.0
C432 C 0.32149 0.9191 0.23208 0.0
C433 C 0.28983 0.95504 0.31861 0.0
N434 N 0.37058 0.91569 0.32129 0.0
N435 N 0.30877 0.94409 0.37278 0.0
H436 H 0.56124 0.27567 0.41013 0.0
H437 H 0.592 0.38303 0.64335 0.0
H438 H 0.6071 0.30125 0.16164 0.0
H439 H 0.62444 0.405 0.35896 0.0
H440 H 0.59701 0.33853 0.59764 0.0
H441 H 0.58319 0.3051 0.51936 0.0
C442 C 0.5768 0.28676 0.37948 0.0
C443 C 0.58169 0.28679 0.276 0.0
C444 C 0.60319 0.35284 0.54473 0.0
C445 C 0.60652 0.32162 0.39995 0.0
C446 C 0.60047 0.37835 0.5715 0.0
C447 C 0.607 0.39762 0.50326 0.0
C448 C 0.61174 0.34665 0.44757 0.0
C449 C 0.6187 0.39069 0.41291 0.0
C450 C 0.5893 0.30402 0.44208 0.0
C451 C 0.60219 0.30134 0.24065 0.0
N452 N 0.6201 0.36577 0.38665 0.0
N453 N 0.6133 0.31879 0.30181 0.0
H454 H 0.26304 0.57133 0.37542 0.0
H455 H 0.1269 0.62483 0.29143 0.0
H456 H 0.23855 0.60863 0.10392 0.0
H457 H 0.15328 0.58965 0.56533 0.0
H458 H 0.17111 0.6319 0.2418 0.0
H459 H 0.22869 0.59214 0.46659 0.0
C460 C 0.25118 0.58489 0.33593 0.0
C461 C 0.25303 0.58764 0.23144 0.0
C462 C 0.16724 0.6232 0.31396 0.0
C463 C 0.21302 0.61058 0.33392 0.0
C464 C 0.14197 0.61901 0.34195 0.0
C465 C 0.13635 0.60605 0.43143 0.0
C466 C 0.18701 0.61397 0.37511 0.0
C467 C 0.15663 0.59955 0.49527 0.0
C468 C 0.23127 0.59653 0.38775 0.0
C469 C 0.23724 0.60553 0.18419 0.0
N470 N 0.18103 0.60307 0.46485 0.0
N471 N 0.21729 0.61565 0.235 0.0
H472 H 1.01195 0.76015 0.07212 0.0
H473 H 0.97315 0.89747 0.94063 0.0
H474 H 0.94349 0.79825 0.16568 0.0
H475 H 0.04836 0.86485 0.9316 0.0
H476 H 0.95496 0.85467 0.93365 0.0
H477 H 1.01524 0.78919 0.92992 0.0
C478 C 0.99676 0.7737 0.05945 0.0
C479 C 0.97808 0.77777 0.13284 0.0
C480 C 0.97543 0.85693 0.93023 0.0
C481 C 0.98223 0.81136 0.97344 0.0
C482 C 0.98583 0.88129 0.93584 0.0
C483 C 1.01229 0.88453 0.94233 0.0
C484 C 0.99164 0.83576 0.93278 0.0
C485 C 0.02784 0.86313 0.93016 0.0
C486 C 0.99879 0.79046 0.97865 0.0
C487 C 0.95871 0.79525 0.11223 0.0
N488 N 0.01728 0.83955 0.92869 0.0
N489 N 0.96176 0.81213 0.0361 0.0
H490 H 0.76636 0.969 0.10298 0.0
H491 H 0.62487 0.94514 0.17037 0.0
H492 H 0.73423 0.92172 0.3349 0.0
H493 H 0.65849 0.98792 0.92756 0.0
H494 H 0.66468 0.92207 0.19066 0.0
H495 H 0.73039 0.95906 0.99556 0.0
C496 C 0.75241 0.95541 0.12969 0.0
C497 C 0.75236 0.94746 0.23033 0.0
C498 C 0.66324 0.93608 0.13128 0.0
C499 C 0.71055 0.93711 0.10993 0.0
C500 C 0.64044 0.94933 0.11977 0.0
C501 C 0.63868 0.96922 0.04981 0.0
C502 C 0.68455 0.94315 0.07382 0.0
C503 C 0.6594 0.97353 0.98557 0.0
C504 C 0.73153 0.95002 0.06856 0.0
C505 C 0.73418 0.92929 0.25924 0.0
N506 N 0.68166 0.96105 1.00068 0.0
N507 N 0.71325 0.92566 0.20116 0.0
H508 H 0.42309 0.73903 0.39191 0.0
H509 H 0.43865 0.64558 0.94338 0.0
H510 H 0.46716 0.75284 0.12438 0.0
H511 H 0.40557 0.6268 0.23084 0.0
H512 H 0.43158 0.6904 0.97784 0.0
H513 H 0.39944 0.70594 0.30258 0.0
C514 C 0.42705 0.73581 0.31304 0.0
C515 C 0.44775 0.74791 0.26652 0.0
C516 C 0.42519 0.67647 0.03228 0.0
C517 C 0.42125 0.7099 0.16489 0.0
C518 C 0.42908 0.65074 0.01244 0.0
C519 C 0.42346 0.63237 0.08594 0.0
C520 C 0.41603 0.68392 0.12683 0.0
C521 C 0.41108 0.6404 0.17372 0.0
C522 C 0.41364 0.71684 0.26221 0.0
C523 C 0.45173 0.74354 0.16381 0.0
N524 N 0.40837 0.66564 0.19291 0.0
N525 N 0.43916 0.72428 0.11718 0.0
H526 H 0.80359 0.60367 0.2683 0.0
H527 H 0.89259 0.51939 0.94176 0.0
H528 H 0.78121 0.53444 0.11957 0.0
H529 H 0.91285 0.56981 0.18567 0.0
H530 H 0.85065 0.53936 0.9344 0.0
H531 H 0.83957 0.60749 0.1536 0.0
C532 C 0.80537 0.59012 0.20734 0.0
C533 C 0.79035 0.56807 0.20585 0.0
C534 C 0.86461 0.54646 0.9874 0.0
C535 C 0.83165 0.57172 0.07822 0.0
C536 C 0.88837 0.53479 0.99318 0.0
C537 C 0.90593 0.54214 0.06766 0.0
C538 C 0.85845 0.56571 0.0561 0.0
C539 C 0.89989 0.56311 0.12826 0.0
C540 C 0.82609 0.59212 0.14264 0.0
C541 C 0.79305 0.55127 0.12491 0.0
N542 N 0.87649 0.57382 0.12234 0.0
N543 N 0.81414 0.5528 0.06642 0.0
H544 H 0.04766 0.20984 0.1296 0.0
H545 H 1.01453 0.11351 0.67984 0.0
H546 H 1.00873 0.23172 0.85859 0.0
H547 H 0.0478 0.08972 0.9612 0.0
H548 H 0.01788 0.15775 0.73446 0.0
H549 H 0.05459 0.16728 0.05815 0.0
C550 C 0.04159 0.20601 0.05326 0.0
C551 C 0.02809 0.22451 0.99908 0.0
C552 C 0.02462 0.14289 0.7841 0.0
C553 C 0.03489 0.17548 0.91824 0.0
C554 C 0.02269 0.1175 0.75294 0.0
C555 C 0.03073 0.09758 0.81602 0.0
C556 C 0.03468 0.14871 0.87934 0.0
C557 C 0.04119 0.10426 0.90988 0.0
C558 C 0.04512 0.18157 0.01309 0.0
C559 C 0.0197 0.21819 0.90197 0.0
N560 N 0.04274 0.12914 0.93873 0.0
N561 N 0.023 0.19422 0.86519 0.0
H562 H 0.30688 0.99708 0.84812 0.0
H563 H 0.44861 0.04318 0.97378 0.0
H564 H 0.32647 0.04036 0.11152 0.0
H565 H 0.42807 1.00626 0.6956 0.0
H566 H 0.40357 0.04515 0.01906 0.0
H567 H 0.3499 1.0042 0.78208 0.0
C568 C 0.31991 1.00907 0.88992 0.0
C569 C 0.31282 0.01874 0.98419 0.0
C570 C 0.40885 0.03677 0.94775 0.0
C571 C 0.36273 0.02582 0.91186 0.0
C572 C 0.43467 0.03555 0.92185 0.0
C573 C 0.44238 0.02442 0.83071 0.0
C574 C 0.39032 0.02666 0.8826 0.0
C575 C 0.4232 1.01499 0.7667 0.0
C576 C 0.34465 1.01277 0.85307 0.0
C577 C 0.33089 0.03318 0.0373 0.0
N578 N 0.3982 1.01617 0.79411 0.0
N579 N 0.35502 0.03599 1.00116 0.0
H580 H 0.54576 0.30597 0.90129 0.0
H581 H 0.53394 0.42956 0.71984 0.0
H582 H 0.49373 0.32816 0.13448 0.0
H583 H 0.50135 0.4461 0.00971 0.0
H584 H 0.53111 0.38439 0.75643 0.0
H585 H 0.54168 0.3479 0.82563 0.0
C586 C 0.53248 0.3194 0.93368 0.0
C587 C 0.51958 0.31339 0.02273 0.0
C588 C 0.52485 0.3977 0.81312 0.0
C589 C 0.51517 0.36222 0.93836 0.0
C590 C 0.52637 0.42373 0.79167 0.0
C591 C 0.51826 0.44189 0.86206 0.0
C592 C 0.51534 0.38954 0.90663 0.0
C593 C 0.50812 0.43293 0.95322 0.0
C594 C 0.53025 0.34361 0.8909 0.0
C595 C 0.50347 0.33185 0.06432 0.0
N596 N 0.50709 0.4075 0.97291 0.0
N597 N 0.50202 0.3555 0.02268 0.0
H598 H 0.23934 0.53582 0.87419 0.0
H599 H 0.09845 0.48799 0.99988 0.0
H600 H 0.21995 0.4952 0.14417 0.0
H601 H 0.11927 0.52253 0.71744 0.0
H602 H 0.14343 0.48683 0.04709 0.0
H603 H 0.19694 0.52643 0.80641 0.0
C604 C 0.22653 0.52389 0.91724 0.0
C605 C 0.23345 0.5157 0.01389 0.0
C606 C 0.13821 0.49447 0.97439 0.0
C607 C 0.18419 0.50606 0.93933 0.0
C608 C 0.11243 0.4952 0.94733 0.0
C609 C 0.10482 0.5055 0.85451 0.0
C610 C 0.15676 0.50426 0.90869 0.0
C611 C 0.12404 0.51445 0.78983 0.0
C612 C 0.20212 0.5189 0.87933 0.0
C613 C 0.21565 0.50127 0.0683 0.0
N614 N 0.14897 0.5138 0.81841 0.0
N615 N 0.19179 0.49723 0.03102 0.0
H616 H 0.99067 0.80372 0.58932 0.0
H617 H 0.02518 0.94932 0.46893 0.0
H618 H 0.03015 0.82873 0.32349 0.0
H619 H 1.00521 0.92515 0.76803 0.0
H620 H 0.02505 0.90485 0.41483 0.0
H621 H 0.99531 0.84701 0.66008 0.0
C622 C 1.00087 0.81807 0.54703 0.0
C623 C 1.01005 0.81251 0.45025 0.0
C624 C 0.0208 0.90916 0.49259 0.0
C625 C 1.01462 0.86228 0.52884 0.0
C626 C 0.0207 0.93467 0.52338 0.0
C627 C 1.01538 0.94111 0.62353 0.0
C628 C 1.01517 0.88966 0.56176 0.0
C629 C 1.00983 0.92108 0.69052 0.0
C630 C 1.00327 0.84287 0.58686 0.0
C631 C 0.02272 0.83209 0.39819 0.0
N632 N 1.00972 0.89634 0.65851 0.0
N633 N 0.02432 0.85596 0.43731 0.0
H634 H 0.71667 0.03251 0.35728 0.0
H635 H 0.61559 1.00398 0.79706 0.0
H636 H 0.73512 0.98761 0.61754 0.0
H637 H 0.59481 0.02709 0.49706 0.0
H638 H 0.66061 1.00494 0.7471 0.0
H639 H 0.6737 0.03908 0.42449 0.0
C640 C 0.71203 0.02503 0.43089 0.0
C641 C 0.72979 1.0101 0.48314 0.0
C642 C 0.64618 1.00986 0.69241 0.0
C643 C 0.68011 0.01658 0.55901 0.0
C644 C 0.62043 1.00931 0.72079 0.0
C645 C 0.6012 1.01526 0.651 0.0
C646 C 0.65295 0.01683 0.59388 0.0
C647 C 0.60882 0.02211 0.55333 0.0
C648 C 0.68732 0.02834 0.46838 0.0
C649 C 0.72229 0.99985 0.57617 0.0
N650 N 0.63396 0.02275 0.52794 0.0
N651 N 0.69805 1.00314 0.61082 0.0
H652 H 0.48315 0.73202 0.6327 0.0
H653 H 0.54756 0.59599 0.56612 0.0
H654 H 0.54207 0.71697 0.41645 0.0
H655 H 0.50022 0.61481 0.82014 0.0
H656 H 0.54707 0.64062 0.51507 0.0
H657 H 0.49134 0.69058 0.7108 0.0
C658 C 0.49852 0.72037 0.60419 0.0
C659 C 0.51225 0.72814 0.519 0.0
C660 C 0.53692 0.63508 0.58239 0.0
C661 C 0.52093 0.68003 0.60488 0.0
C662 C 0.53705 0.60948 0.61141 0.0
C663 C 0.52378 0.60144 0.69747 0.0
C664 C 0.52318 0.65297 0.63892 0.0
C665 C 0.5107 0.62001 0.75322 0.0
C666 C 0.50297 0.69654 0.6479 0.0
C667 C 0.53141 0.71195 0.48316 0.0
N668 N 0.51056 0.6448 0.72255 0.0
N669 N 0.5349 0.68853 0.52514 0.0
H670 H 0.8131 0.49279 0.54012 0.0
H671 H 0.95105 0.54899 0.58516 0.0
H672 H 0.82693 0.57363 0.54036 0.0
H673 H 0.93097 0.48859 0.78981 0.0
H674 H 0.906 0.55375 0.54172 0.0
H675 H 0.85585 0.48633 0.6142 0.0
C676 C 0.8247 0.50919 0.55854 0.0
C677 C 0.81633 0.5338 0.53341 0.0
C678 C 0.91146 0.53941 0.59603 0.0
C679 C 0.86556 0.52646 0.61343 0.0
C680 C 0.93724 0.53656 0.62044 0.0
C681 C 0.94499 0.51833 0.69122 0.0
C682 C 0.89309 0.52351 0.64036 0.0
C683 C 0.92594 0.50292 0.73487 0.0
C684 C 0.8492 0.50547 0.5997 0.0
C685 C 0.83255 0.5543 0.55757 0.0
N686 N 0.90094 0.50564 0.70797 0.0
N687 N 0.85642 0.55015 0.59365 0.0
loop_
_geom_bond_atom_site_label_1
_geom_bond_atom_site_label_2
_geom_bond_distance
_geom_bond_site_symmetry_2
_ccdc_geom_bond_type
H0 C5 0.930 . S
H1 C8 0.930 . S
H2 C10 0.930 . S
H3 C4 1.016 . S
C4 H3 1.016 . S
C4 N11 1.286 . S
C5 H0 0.930 . S
C5 C6 1.397 . S
C5 C7 1.361 . S
C6 C5 1.397 . S
C6 C10 1.390 . S
C7 C5 1.361 . S
C7 C8 1.393 . S
C7 N11 1.413 . S
C8 H1 0.930 . S
C8 C7 1.393 . S
C8 C9 1.399 . S
C9 C8 1.399 . S
C9 C10 1.381 . S
C10 H2 0.930 . S
C10 C6 1.390 . S
C10 C9 1.381 . S
N11 C4 1.286 . S
N11 C7 1.413 . S
H12 C17 0.930 . S
H13 C20 0.930 . S
H14 C22 0.930 . S
H15 C16 1.016 . S
C16 H15 1.016 . S
C16 N23 1.286 1_655 S
C17 H12 0.930 . S
C17 C18 1.399 . S
C17 C19 1.361 . S
C18 C17 1.399 . S
C18 C22 1.389 1_455 S
C19 C17 1.361 . S
C19 C20 1.393 . S
C19 N23 1.413 . S
C20 H13 0.930 . S
C20 C19 1.393 . S
C20 C21 1.397 1_455 S
C21 C20 1.397 1_655 S
C21 C22 1.382 . S
C22 H14 0.930 . S
C22 C18 1.389 1_655 S
C22 C21 1.382 . S
N23 C16 1.286 1_455 S
N23 C19 1.413 . S
H24 C29 0.930 . S
H25 C32 0.930 . S
H26 C34 0.930 . S
H27 C28 1.016 . S
C28 H27 1.016 . S
C28 N35 1.286 1_565 S
C29 H24 0.930 . S
C29 C30 1.396 1_545 S
C29 C31 1.361 . S
C30 C29 1.396 1_565 S
C30 C34 1.391 . S
C31 C29 1.361 . S
C31 C32 1.393 . S
C31 N35 1.413 . S
C32 H25 0.930 . S
C32 C31 1.393 . S
C32 C33 1.393 1_545 S
C33 C32 1.393 1_565 S
C33 C34 1.385 . S
C34 H26 0.930 . S
C34 C30 1.391 . S
C34 C33 1.385 . S
N35 C28 1.286 1_545 S
N35 C31 1.413 . S
H36 C41 0.930 . S
H37 C44 0.930 . S
H38 C46 0.930 . S
H39 C40 1.016 . S
C40 H39 1.016 . S
C40 N47 1.286 . S
C41 H36 0.930 . S
C41 C42 1.397 . S
C41 C43 1.361 . S
C42 C41 1.397 . S
C42 C46 1.390 . S
C43 C41 1.361 . S
C43 C44 1.393 . S
C43 N47 1.413 . S
C44 H37 0.930 . S
C44 C43 1.393 . S
C44 C45 1.399 . S
C45 C44 1.399 . S
C45 C46 1.381 . S
C46 H38 0.930 . S
C46 C42 1.390 . S
C46 C45 1.381 . S
N47 C40 1.286 . S
N47 C43 1.413 . S
H48 C53 0.930 . S
H49 C56 0.930 . S
H50 C58 0.930 . S
H51 C52 1.016 . S
C52 H51 1.016 . S
C52 N59 1.286 . S
C53 H48 0.930 . S
C53 C54 1.397 . S
C53 C55 1.361 1_556 S
C54 C53 1.397 . S
C54 C58 1.390 . S
C55 C53 1.361 1_554 S
C55 C56 1.393 . S
C55 N59 1.413 . S
C56 H49 0.930 . S
C56 C55 1.393 . S
C56 C57 1.399 . S
C57 C56 1.399 . S
C57 C58 1.381 1_554 S
C58 H50 0.930 . S
C58 C54 1.390 . S
C58 C57 1.381 1_556 S
N59 C52 1.286 . S
N59 C55 1.413 . S
H60 C65 0.930 . S
H61 C68 0.930 . S
H62 C70 0.929 1_655 S
H63 C64 1.016 1_655 S
C64 H63 1.016 1_455 S
C64 N71 1.286 . S
C65 H60 0.930 . S
C65 C66 1.397 . S
C65 C67 1.361 1_556 S
C66 C65 1.397 . S
C66 C70 1.391 . S
C67 C65 1.361 1_554 S
C67 C68 1.393 . S
C67 N71 1.413 . S
C68 H61 0.930 . S
C68 C67 1.393 . S
C68 C69 1.399 . S
C69 C68 1.399 . S
C69 C70 1.381 1_554 S
C70 H62 0.929 1_455 S
C70 C66 1.391 . S
C70 C69 1.381 1_556 S
N71 C64 1.286 . S
N71 C67 1.413 . S
H72 C77 0.930 . S
H73 C80 0.930 . S
H74 C82 0.934 . S
H75 C76 1.004 1_565 S
C76 H75 1.004 1_545 S
C76 N83 1.305 . S
C77 H72 0.930 . S
C77 C78 1.397 . S
C77 C79 1.361 1_556 S
C78 C77 1.397 . S
C78 C82 1.388 1_545 S
C79 C77 1.361 1_554 S
C79 C80 1.393 . S
C79 N83 1.413 . S
C80 H73 0.930 . S
C80 C79 1.393 . S
C80 C81 1.399 . S
C81 C80 1.399 . S
C81 C82 1.379 1_544 S
C82 H74 0.934 . S
C82 C78 1.388 1_565 S
C82 C81 1.379 1_566 S
N83 C76 1.305 . S
N83 C79 1.413 . S
H84 C89 0.930 . S
H85 C92 0.930 . S
H86 C94 0.930 . S
H87 C88 1.016 . S
C88 H87 1.016 . S
C88 N95 1.286 . S
C89 H84 0.930 . S
C89 C90 1.397 . S
C89 C91 1.361 1_556 S
C90 C89 1.397 . S
C90 C94 1.390 . S
C91 C89 1.361 1_554 S
C91 C92 1.393 . S
C91 N95 1.413 . S
C92 H85 0.930 . S
C92 C91 1.393 . S
C92 C93 1.399 . S
C93 C92 1.399 . S
C93 C94 1.381 1_554 S
C94 H86 0.930 . S
C94 C90 1.390 . S
C94 C93 1.381 1_556 S
N95 C88 1.286 . S
N95 C91 1.413 . S
Gd96 C99 2.818 . S
Gd96 O116 2.377 . S
Gd96 O118 2.448 . S
Gd96 O119 2.506 . S
Gd96 O120 2.435 . S
Gd96 O121 2.717 1_565 S
Gd96 O123 2.395 1_565 S
Gd96 O127 2.327 1_455 S
Gd97 C108 2.818 . S
Gd97 O117 2.395 1_545 S
Gd97 O121 2.327 1_655 S
Gd97 O122 2.377 . S
Gd97 O124 2.448 . S
Gd97 O125 2.506 . S
Gd97 O126 2.435 . S
Gd97 O127 2.717 1_545 S
C98 O116 1.240 1_655 S
C98 O117 1.240 . S
C99 Gd96 2.818 . S
C99 C100 1.510 1_556 S
C99 O118 1.249 . S
C99 O119 1.252 . S
C100 C99 1.510 1_554 S
C100 C101 1.404 . S
C100 C102 1.352 . S
C101 C100 1.404 . S
C101 C105 1.389 . S
C101 H128 0.930 . S
C102 C100 1.352 . S
C102 C104 1.374 . S
C102 H129 0.931 1_455 S
C103 C104 1.359 . S
C103 C105 1.364 . S
C104 C102 1.374 . S
C104 C103 1.359 . S
C104 H130 0.931 1_455 S
C105 C101 1.389 . S
C105 C103 1.364 . S
C105 H131 0.931 . S
C106 O120 1.277 . S
C106 O121 1.247 1_565 S
C107 O122 1.240 1_455 S
C107 O123 1.240 . S
C108 Gd97 2.818 . S
C108 C109 1.510 . S
C108 O124 1.249 . S
C108 O125 1.252 . S
C109 C108 1.510 . S
C109 C110 1.404 . S
C109 C111 1.352 . S
C110 C109 1.404 . S
C110 C114 1.389 . S
C110 H132 0.930 . S
C111 C109 1.352 . S
C111 C113 1.374 . S
C111 H133 0.931 1_655 S
C112 C113 1.359 . S
C112 C114 1.364 . S
C113 C111 1.374 . S
C113 C112 1.359 . S
C113 H134 0.931 1_655 S
C114 C110 1.389 . S
C114 C112 1.364 . S
C114 H135 0.931 . S
C115 O126 1.256 . S
C115 O127 1.257 1_545 S
O116 Gd96 2.377 . S
O116 C98 1.240 1_455 S
O117 Gd97 2.395 1_565 S
O117 C98 1.240 . S
O118 Gd96 2.448 . S
O118 C99 1.249 . S
O119 Gd96 2.506 . S
O119 C99 1.252 . S
O120 Gd96 2.435 . S
O120 C106 1.277 . S
O121 Gd96 2.717 1_545 S
O121 Gd97 2.327 1_455 S
O121 C106 1.247 1_545 S
O122 Gd97 2.377 . S
O122 C107 1.240 1_655 S
O123 Gd96 2.395 1_545 S
O123 C107 1.240 . S
O124 Gd97 2.448 . S
O124 C108 1.249 . S
O125 Gd97 2.506 . S
O125 C108 1.252 . S
O126 Gd97 2.435 . S
O126 C115 1.256 . S
O127 Gd96 2.327 1_655 S
O127 Gd97 2.717 1_565 S
O127 C115 1.257 1_565 S
H128 C101 0.930 . S
H129 C102 0.931 1_655 S
H130 C104 0.931 1_655 S
H131 C105 0.931 . S
H132 C110 0.930 . S
H133 C111 0.931 1_455 S
H134 C113 0.931 1_455 S
H135 C114 0.931 . S
Gd136 C139 2.818 . S
Gd136 O156 2.377 . S
Gd136 O158 2.448 . S
Gd136 O159 2.506 . S
Gd136 O160 2.435 . S
Gd136 O161 2.717 . S
Gd136 O163 2.395 . S
Gd136 O167 2.327 1_545 S
Gd137 C148 2.818 . S
Gd137 O157 2.395 . S
Gd137 O161 2.327 1_565 S
Gd137 O162 2.377 . S
Gd137 O164 2.448 . S
Gd137 O165 2.506 . S
Gd137 O166 2.435 . S
Gd137 O167 2.717 . S
C138 O156 1.240 1_565 S
C138 O157 1.240 . S
C139 Gd136 2.818 . S
C139 C140 1.510 1_556 S
C139 O158 1.249 . S
C139 O159 1.252 . S
C140 C139 1.510 1_554 S
C140 C141 1.404 . S
C140 C142 1.352 . S
C141 C140 1.404 . S
C141 C145 1.389 . S
C141 H168 0.930 . S
C142 C140 1.352 . S
C142 C144 1.374 . S
C142 H169 0.931 1_545 S
C143 C144 1.359 . S
C143 C145 1.364 . S
C144 C142 1.374 . S
C144 C143 1.359 . S
C144 H170 0.931 1_545 S
C145 C141 1.389 . S
C145 C143 1.364 . S
C145 H171 0.931 . S
C146 O160 1.256 . S
C146 O161 1.257 . S
C147 O162 1.240 1_545 S
C147 O163 1.240 . S
C148 Gd137 2.818 . S
C148 C149 1.510 . S
C148 O164 1.249 . S
C148 O165 1.252 . S
C149 C148 1.510 . S
C149 C150 1.404 . S
C149 C151 1.352 . S
C150 C149 1.404 . S
C150 C154 1.389 . S
C150 H172 0.930 . S
C151 C149 1.352 . S
C151 C153 1.374 . S
C151 H173 0.931 1_565 S
C152 C153 1.359 . S
C152 C154 1.364 . S
C153 C151 1.374 . S
C153 C152 1.359 . S
C153 H174 0.931 1_565 S
C154 C150 1.389 . S
C154 C152 1.364 . S
C154 H175 0.931 . S
C155 O166 1.256 . S
C155 O167 1.257 . S
O156 Gd136 2.377 . S
O156 C138 1.240 1_545 S
O157 Gd137 2.395 . S
O157 C138 1.240 . S
O158 Gd136 2.448 . S
O158 C139 1.249 . S
O159 Gd136 2.506 . S
O159 C139 1.252 . S
O160 Gd136 2.435 . S
O160 C146 1.256 . S
O161 Gd136 2.717 . S
O161 Gd137 2.327 1_545 S
O161 C146 1.257 . S
O162 Gd137 2.377 . S
O162 C147 1.240 1_565 S
O163 Gd136 2.395 . S
O163 C147 1.240 . S
O164 Gd137 2.448 . S
O164 C148 1.249 . S
O165 Gd137 2.506 . S
O165 C148 1.252 . S
O166 Gd137 2.435 . S
O166 C155 1.256 . S
O167 Gd136 2.327 1_565 S
O167 Gd137 2.717 . S
O167 C155 1.257 . S
H168 C141 0.930 . S
H169 C142 0.931 1_565 S
H170 C144 0.931 1_565 S
H171 C145 0.931 . S
H172 C150 0.930 . S
H173 C151 0.931 1_545 S
H174 C153 0.931 1_545 S
H175 C154 0.931 . S
Gd176 C179 2.818 . S
Gd176 O196 2.377 . S
Gd176 O198 2.448 . S
Gd176 O199 2.506 . S
Gd176 O200 2.435 . S
Gd176 O201 2.717 . S
Gd176 O203 2.395 . S
Gd176 O207 2.327 . S
Gd177 C188 2.818 . S
Gd177 O197 2.395 . S
Gd177 O201 2.327 . S
Gd177 O202 2.377 . S
Gd177 O204 2.448 . S
Gd177 O205 2.506 . S
Gd177 O206 2.435 . S
Gd177 O207 2.717 . S
C178 O196 1.240 . S
C178 O197 1.240 . S
C179 Gd176 2.818 . S
C179 C180 1.510 1_556 S
C179 O198 1.249 . S
C179 O199 1.252 . S
C180 C179 1.510 1_554 S
C180 C181 1.404 . S
C180 C182 1.352 . S
C181 C180 1.404 . S
C181 C185 1.389 . S
C181 H208 0.930 . S
C182 C180 1.352 . S
C182 C184 1.374 . S
C182 H209 0.931 . S
C183 C184 1.359 . S
C183 C185 1.364 . S
C184 C182 1.374 . S
C184 C183 1.359 . S
C184 H210 0.931 . S
C185 C181 1.389 . S
C185 C183 1.364 . S
C185 H211 0.931 . S
C186 O200 1.256 . S
C186 O201 1.257 . S
C187 O202 1.240 . S
C187 O203 1.240 . S
C188 Gd177 2.818 . S
C188 C189 1.510 . S
C188 O204 1.249 . S
C188 O205 1.252 . S
C189 C188 1.510 . S
C189 C190 1.404 . S
C189 C191 1.352 . S
C190 C189 1.404 . S
C190 C194 1.389 . S
C190 H212 0.930 . S
C191 C189 1.352 . S
C191 C193 1.374 . S
C191 H213 0.931 . S
C192 C193 1.359 . S
C192 C194 1.364 . S
C193 C191 1.374 . S
C193 C192 1.359 . S
C193 H214 0.931 . S
C194 C190 1.389 . S
C194 C192 1.364 . S
C194 H215 0.931 . S
C195 O206 1.256 . S
C195 O207 1.257 . S
O196 Gd176 2.377 . S
O196 C178 1.240 . S
O197 Gd177 2.395 . S
O197 C178 1.240 . S
O198 Gd176 2.448 . S
O198 C179 1.249 . S
O199 Gd176 2.506 . S
O199 C179 1.252 . S
O200 Gd176 2.435 . S
O200 C186 1.256 . S
O201 Gd176 2.717 . S
O201 Gd177 2.327 . S
O201 C186 1.257 . S
O202 Gd177 2.377 . S
O202 C187 1.240 . S
O203 Gd176 2.395 . S
O203 C187 1.240 . S
O204 Gd177 2.448 . S
O204 C188 1.249 . S
O205 Gd177 2.506 . S
O205 C188 1.252 . S
O206 Gd177 2.435 . S
O206 C195 1.256 . S
O207 Gd176 2.327 . S
O207 Gd177 2.717 . S
O207 C195 1.257 . S
H208 C181 0.930 . S
H209 C182 0.931 . S
H210 C184 0.931 . S
H211 C185 0.931 . S
H212 C190 0.930 . S
H213 C191 0.931 . S
H214 C193 0.931 . S
H215 C194 0.931 . S
Gd216 C219 2.818 . S
Gd216 O236 2.377 . S
Gd216 O238 2.448 . S
Gd216 O239 2.506 . S
Gd216 O240 2.435 . S
Gd216 O241 2.717 1_655 S
Gd216 O243 2.395 1_655 S
Gd216 O247 2.327 . S
Gd217 C228 2.818 . S
Gd217 O237 2.395 1_455 S
Gd217 O241 2.327 . S
Gd217 O242 2.377 . S
Gd217 O244 2.448 . S
Gd217 O245 2.506 . S
Gd217 O246 2.435 . S
Gd217 O247 2.717 1_455 S
C218 O236 1.240 . S
C218 O237 1.240 . S
C219 Gd216 2.818 . S
C219 C220 1.510 1_556 S
C219 O238 1.249 . S
C219 O239 1.252 . S
C220 C219 1.510 1_554 S
C220 C221 1.404 . S
C220 C222 1.352 . S
C221 C220 1.404 . S
C221 C225 1.389 . S
C221 H248 0.930 . S
C222 C220 1.352 . S
C222 C224 1.374 . S
C222 H249 0.931 . S
C223 C224 1.359 . S
C223 C225 1.364 . S
C224 C222 1.374 . S
C224 C223 1.359 . S
C224 H250 0.931 . S
C225 C221 1.389 . S
C225 C223 1.364 . S
C225 H251 0.931 . S
C226 O240 1.261 . S
C226 O241 1.254 1_655 S
C227 O242 1.240 . S
C227 O243 1.240 . S
C228 Gd217 2.818 . S
C228 C229 1.510 . S
C228 O244 1.249 . S
C228 O245 1.252 . S
C229 C228 1.510 . S
C229 C230 1.404 . S
C229 C231 1.352 . S
C230 C229 1.404 . S
C230 C234 1.389 . S
C230 H252 0.930 . S
C231 C229 1.352 . S
C231 C233 1.374 . S
C231 H253 0.931 . S
C232 C233 1.359 . S
C232 C234 1.364 . S
C233 C231 1.374 . S
C233 C232 1.359 . S
C233 H254 0.931 . S
C234 C230 1.389 . S
C234 C232 1.364 . S
C234 H255 0.931 . S
C235 O246 1.256 . S
C235 O247 1.257 1_455 S
O236 Gd216 2.377 . S
O236 C218 1.240 . S
O237 Gd217 2.395 1_655 S
O237 C218 1.240 . S
O238 Gd216 2.448 . S
O238 C219 1.249 . S
O239 Gd216 2.506 . S
O239 C219 1.252 . S
O240 Gd216 2.435 . S
O240 C226 1.261 . S
O241 Gd216 2.717 1_455 S
O241 Gd217 2.327 . S
O241 C226 1.254 1_455 S
O242 Gd217 2.377 . S
O242 C227 1.240 . S
O243 Gd216 2.395 1_455 S
O243 C227 1.240 . S
O244 Gd217 2.448 . S
O244 C228 1.249 . S
O245 Gd217 2.506 . S
O245 C228 1.252 . S
O246 Gd217 2.435 . S
O246 C235 1.256 . S
O247 Gd216 2.327 . S
O247 Gd217 2.717 1_655 S
O247 C235 1.257 1_655 S
H248 C221 0.930 . S
H249 C222 0.931 . S
H250 C224 0.931 . S
H251 C225 0.931 . S
H252 C230 0.930 . S
H253 C231 0.931 . S
H254 C233 0.931 . S
H255 C234 0.931 . S
H256 C262 0.930 . S
H257 C266 0.930 . S
H258 C271 0.929 . S
H259 C269 0.929 . S
H260 C264 0.929 . S
H261 C270 0.929 . S
C262 H256 0.930 . S
C262 C263 1.367 1_565 S
C262 C270 1.378 . S
C263 C262 1.367 1_545 S
C263 C271 1.433 . S
C264 H260 0.929 . S
C264 C266 1.378 . S
C264 C268 1.350 . S
C265 C268 1.463 . S
C265 C270 1.350 1_545 S
C265 N273 1.427 . S
C266 H257 0.930 . S
C266 C264 1.378 . S
C266 C267 1.367 . S
C267 C266 1.367 . S
C267 C269 1.433 1_545 S
C268 C264 1.350 . S
C268 C265 1.463 . S
C268 N272 1.427 1_545 S
C269 H259 0.929 . S
C269 C267 1.433 1_565 S
C269 N272 1.384 . S
C270 H261 0.929 . S
C270 C262 1.378 . S
C270 C265 1.350 1_565 S
C271 H258 0.929 . S
C271 C263 1.433 . S
C271 N273 1.384 . S
N272 C268 1.427 1_565 S
N272 C269 1.384 . S
N273 C265 1.427 . S
N273 C271 1.384 . S
H274 C280 0.930 . S
H275 C284 0.930 . S
H276 C289 0.929 . S
H277 C287 0.929 . S
H278 C282 0.929 . S
H279 C288 0.929 . S
C280 H274 0.930 . S
C280 C281 1.367 . S
C280 C288 1.378 . S
C281 C280 1.367 . S
C281 C289 1.433 . S
C282 H278 0.929 . S
C282 C284 1.378 . S
C282 C286 1.350 . S
C283 C286 1.463 . S
C283 C288 1.350 . S
C283 N291 1.427 . S
C284 H275 0.930 . S
C284 C282 1.378 . S
C284 C285 1.367 . S
C285 C284 1.367 . S
C285 C287 1.433 . S
C286 C282 1.350 . S
C286 C283 1.463 . S
C286 N290 1.427 . S
C287 H277 0.929 . S
C287 C285 1.433 . S
C287 N290 1.384 . S
C288 H279 0.929 . S
C288 C280 1.378 . S
C288 C283 1.350 . S
C289 H276 0.929 . S
C289 C281 1.433 . S
C289 N291 1.384 . S
N290 C286 1.427 . S
N290 C287 1.384 . S
N291 C283 1.427 . S
N291 C289 1.384 . S
H292 C298 0.930 . S
H293 C302 0.930 . S
H294 C307 0.929 . S
H295 C305 0.929 . S
H296 C300 0.929 . S
H297 C306 0.929 . S
C298 H292 0.930 . S
C298 C299 1.367 . S
C298 C306 1.378 . S
C299 C298 1.367 . S
C299 C307 1.433 . S
C300 H296 0.929 . S
C300 C302 1.378 . S
C300 C304 1.350 . S
C301 C304 1.463 . S
C301 C306 1.350 . S
C301 N309 1.427 . S
C302 H293 0.930 . S
C302 C300 1.378 . S
C302 C303 1.367 . S
C303 C302 1.367 . S
C303 C305 1.433 . S
C304 C300 1.350 . S
C304 C301 1.463 . S
C304 N308 1.427 . S
C305 H295 0.929 . S
C305 C303 1.433 . S
C305 N308 1.384 . S
C306 H297 0.929 . S
C306 C298 1.378 . S
C306 C301 1.350 . S
C307 H294 0.929 . S
C307 C299 1.433 . S
C307 N309 1.384 . S
N308 C304 1.427 . S
N308 C305 1.384 . S
N309 C301 1.427 . S
N309 C307 1.384 . S
H310 C316 0.930 . S
H311 C320 0.930 . S
H312 C325 0.929 . S
H313 C323 0.929 . S
H314 C318 0.929 . S
H315 C324 0.929 . S
C316 H310 0.930 . S
C316 C317 1.367 1_655 S
C316 C324 1.378 . S
C317 C316 1.367 1_455 S
C317 C325 1.433 . S
C318 H314 0.929 . S
C318 C320 1.378 . S
C318 C322 1.350 . S
C319 C322 1.463 . S
C319 C324 1.350 1_455 S
C319 N327 1.427 . S
C320 H311 0.930 . S
C320 C318 1.378 . S
C320 C321 1.367 . S
C321 C320 1.367 . S
C321 C323 1.433 1_455 S
C322 C318 1.350 . S
C322 C319 1.463 . S
C322 N326 1.427 1_455 S
C323 H313 0.929 . S
C323 C321 1.433 1_655 S
C323 N326 1.384 . S
C324 H315 0.929 . S
C324 C316 1.378 . S
C324 C319 1.350 1_655 S
C325 H312 0.929 . S
C325 C317 1.433 . S
C325 N327 1.384 . S
N326 C322 1.427 1_655 S
N326 C323 1.384 . S
N327 C319 1.427 . S
N327 C325 1.384 . S
H328 C334 0.930 . S
H329 C338 0.937 . S
H330 C343 0.929 . S
H331 C341 0.929 . S
H332 C336 0.929 . S
H333 C342 0.929 . S
C334 H328 0.930 . S
C334 C335 1.367 . S
C334 C342 1.378 . S
C335 C334 1.367 . S
C335 C343 1.433 1_565 S
C336 H332 0.929 . S
C336 C338 1.379 . S
C336 C340 1.350 1_546 S
C337 C340 1.463 . S
C337 C342 1.350 . S
C337 N345 1.427 1_565 S
C338 H329 0.937 . S
C338 C336 1.379 . S
C338 C339 1.362 1_545 S
C339 C338 1.362 1_565 S
C339 C341 1.433 1_556 S
C340 C336 1.350 1_564 S
C340 C337 1.463 . S
C340 N344 1.427 . S
C341 H331 0.929 . S
C341 C339 1.433 1_554 S
C341 N344 1.384 . S
C342 H333 0.929 . S
C342 C334 1.378 . S
C342 C337 1.350 . S
C343 H330 0.929 . S
C343 C335 1.433 1_545 S
C343 N345 1.384 . S
N344 C340 1.427 . S
N344 C341 1.384 . S
N345 C337 1.427 1_545 S
N345 C343 1.384 . S
H346 C352 0.930 . S
H347 C356 0.930 . S
H348 C361 0.929 . S
H349 C359 0.929 . S
H350 C354 0.929 . S
H351 C360 0.929 . S
C352 H346 0.930 . S
C352 C353 1.367 . S
C352 C360 1.378 . S
C353 C352 1.367 . S
C353 C361 1.433 . S
C354 H350 0.929 . S
C354 C356 1.378 . S
C354 C358 1.350 . S
C355 C358 1.463 . S
C355 C360 1.350 . S
C355 N363 1.427 . S
C356 H347 0.930 . S
C356 C354 1.378 . S
C356 C357 1.367 1_554 S
C357 C356 1.367 1_556 S
C357 C359 1.433 . S
C358 C354 1.350 . S
C358 C355 1.463 . S
C358 N362 1.427 . S
C359 H349 0.929 . S
C359 C357 1.433 . S
C359 N362 1.384 1_556 S
C360 H351 0.929 . S
C360 C352 1.378 . S
C360 C355 1.350 . S
C361 H348 0.929 . S
C361 C353 1.433 . S
C361 N363 1.384 . S
N362 C358 1.427 . S
N362 C359 1.384 1_554 S
N363 C355 1.427 . S
N363 C361 1.384 . S
H364 C370 0.930 . S
H365 C374 0.930 . S
H366 C379 0.929 . S
H367 C377 0.929 . S
H368 C372 0.929 . S
H369 C378 0.929 . S
C370 H364 0.930 . S
C370 C371 1.367 . S
C370 C378 1.378 . S
C371 C370 1.367 . S
C371 C379 1.433 . S
C372 H368 0.929 . S
C372 C374 1.378 . S
C372 C376 1.350 . S
C373 C376 1.463 . S
C373 C378 1.350 . S
C373 N381 1.427 . S
C374 H365 0.930 . S
C374 C372 1.378 . S
C374 C375 1.367 1_554 S
C375 C374 1.367 1_556 S
C375 C377 1.433 . S
C376 C372 1.350 . S
C376 C373 1.463 . S
C376 N380 1.427 . S
C377 H367 0.929 . S
C377 C375 1.433 . S
C377 N380 1.384 1_556 S
C378 H369 0.929 . S
C378 C370 1.378 . S
C378 C373 1.350 . S
C379 H366 0.929 . S
C379 C371 1.433 . S
C379 N381 1.384 . S
N380 C376 1.427 . S
N380 C377 1.384 1_554 S
N381 C373 1.427 . S
N381 C379 1.384 . S
H382 C388 0.930 . S
H383 C392 0.930 . S
H384 C397 0.929 . S
H385 C395 0.929 . S
H386 C390 0.929 . S
H387 C396 0.929 . S
C388 H382 0.930 . S
C388 C389 1.351 1_455 S
C388 C396 1.378 . S
C389 C388 1.351 1_655 S
C389 C397 1.449 . S
C390 H386 0.929 . S
C390 C392 1.378 1_554 S
C390 C394 1.350 . S
C391 C394 1.463 . S
C391 C396 1.337 1_655 S
C391 N399 1.441 . S
C392 H383 0.930 . S
C392 C390 1.378 1_556 S
C392 C393 1.367 . S
C393 C392 1.367 . S
C393 C395 1.433 1_655 S
C394 C390 1.350 . S
C394 C391 1.463 . S
C394 N398 1.427 1_655 S
C395 H385 0.929 . S
C395 C393 1.433 1_455 S
C395 N398 1.384 1_556 S
C396 H387 0.929 . S
C396 C388 1.378 . S
C396 C391 1.337 1_455 S
C397 H384 0.929 . S
C397 C389 1.449 . S
C397 N399 1.384 . S
N398 C394 1.427 1_455 S
N398 C395 1.384 1_554 S
N399 C391 1.441 . S
N399 C397 1.384 . S
H400 C406 0.930 . S
H401 C410 0.930 1_455 S
H402 C415 0.929 . S
H403 C413 0.929 . S
H404 C408 0.929 1_455 S
H405 C414 0.929 . S
C406 H400 0.930 . S
C406 C407 1.367 1_655 S
C406 C414 1.378 . S
C407 C406 1.367 1_455 S
C407 C415 1.433 . S
C408 H404 0.929 1_655 S
C408 C410 1.378 . S
C408 C412 1.350 . S
C409 C412 1.463 . S
C409 C414 1.350 . S
C409 N417 1.427 1_655 S
C410 H401 0.930 1_655 S
C410 C408 1.378 . S
C410 C411 1.367 . S
C411 C410 1.367 . S
C411 C413 1.433 . S
C412 C408 1.350 . S
C412 C409 1.463 . S
C412 N416 1.427 . S
C413 H403 0.929 . S
C413 C411 1.433 . S
C413 N416 1.384 . S
C414 H405 0.929 . S
C414 C406 1.378 . S
C414 C409 1.350 . S
C415 H402 0.929 . S
C415 C407 1.433 . S
C415 N417 1.384 . S
N416 C412 1.427 . S
N416 C413 1.384 . S
N417 C409 1.427 1_455 S
N417 C415 1.384 . S
H418 C424 0.930 . S
H419 C428 0.930 . S
H420 C433 0.929 . S
H421 C431 0.929 . S
H422 C426 0.929 1_545 S
H423 C432 0.929 . S
C424 H418 0.930 . S
C424 C425 1.367 1_565 S
C424 C432 1.378 . S
C425 C424 1.367 1_545 S
C425 C433 1.433 . S
C426 H422 0.929 1_565 S
C426 C428 1.378 . S
C426 C430 1.350 . S
C427 C430 1.463 . S
C427 C432 1.350 . S
C427 N435 1.427 1_565 S
C428 H419 0.930 . S
C428 C426 1.378 . S
C428 C429 1.367 . S
C429 C428 1.367 . S
C429 C431 1.433 . S
C430 C426 1.350 . S
C430 C427 1.463 . S
C430 N434 1.427 . S
C431 H421 0.929 . S
C431 C429 1.433 . S
C431 N434 1.384 . S
C432 H423 0.929 . S
C432 C424 1.378 . S
C432 C427 1.350 . S
C433 H420 0.929 . S
C433 C425 1.433 . S
C433 N435 1.384 . S
N434 C430 1.427 . S
N434 C431 1.384 . S
N435 C427 1.427 1_545 S
N435 C433 1.384 . S
H436 C442 0.930 . S
H437 C446 0.930 . S
H438 C451 0.929 . S
H439 C449 0.929 . S
H440 C444 0.929 . S
H441 C450 0.929 . S
C442 H436 0.930 . S
C442 C443 1.367 . S
C442 C450 1.378 . S
C443 C442 1.367 . S
C443 C451 1.433 . S
C444 H440 0.929 . S
C444 C446 1.378 . S
C444 C448 1.350 . S
C445 C448 1.463 . S
C445 C450 1.350 . S
C445 N453 1.427 . S
C446 H437 0.930 . S
C446 C444 1.378 . S
C446 C447 1.367 . S
C447 C446 1.367 . S
C447 C449 1.433 . S
C448 C444 1.350 . S
C448 C445 1.463 . S
C448 N452 1.427 . S
C449 H439 0.929 . S
C449 C447 1.433 . S
C449 N452 1.384 . S
C450 H441 0.929 . S
C450 C442 1.378 . S
C450 C445 1.350 . S
C451 H438 0.929 . S
C451 C443 1.433 . S
C451 N453 1.384 . S
N452 C448 1.427 . S
N452 C449 1.384 . S
N453 C445 1.427 . S
N453 C451 1.384 . S
H454 C460 0.930 . S
H455 C464 0.930 . S
H456 C469 0.929 . S
H457 C467 0.929 . S
H458 C462 0.929 . S
H459 C468 0.929 . S
C460 H454 0.930 . S
C460 C461 1.367 . S
C460 C468 1.378 . S
C461 C460 1.367 . S
C461 C469 1.433 . S
C462 H458 0.929 . S
C462 C464 1.378 . S
C462 C466 1.350 . S
C463 C466 1.463 . S
C463 C468 1.350 . S
C463 N471 1.427 . S
C464 H455 0.930 . S
C464 C462 1.378 . S
C464 C465 1.367 . S
C465 C464 1.367 . S
C465 C467 1.433 . S
C466 C462 1.350 . S
C466 C463 1.463 . S
C466 N470 1.427 . S
C467 H457 0.929 . S
C467 C465 1.433 . S
C467 N470 1.384 . S
C468 H459 0.929 . S
C468 C460 1.378 . S
C468 C463 1.350 . S
C469 H456 0.929 . S
C469 C461 1.433 . S
C469 N471 1.384 . S
N470 C466 1.427 . S
N470 C467 1.384 . S
N471 C463 1.427 . S
N471 C469 1.384 . S
H472 C478 0.930 . S
H473 C482 0.930 1_556 S
H474 C487 0.929 . S
H475 C485 0.929 . S
H476 C480 0.929 . S
H477 C486 0.929 . S
C478 H472 0.930 . S
C478 C479 1.367 1_455 S
C478 C486 1.378 . S
C479 C478 1.367 1_655 S
C479 C487 1.433 . S
C480 H476 0.929 . S
C480 C482 1.378 . S
C480 C484 1.350 . S
C481 C484 1.463 . S
C481 C486 1.350 . S
C481 N489 1.427 . S
C482 H473 0.930 1_554 S
C482 C480 1.378 . S
C482 C483 1.367 . S
C483 C482 1.367 . S
C483 C485 1.433 . S
C484 C480 1.350 . S
C484 C481 1.463 . S
C484 N488 1.427 . S
C485 H475 0.929 . S
C485 C483 1.433 . S
C485 N488 1.384 . S
C486 H477 0.929 . S
C486 C478 1.378 . S
C486 C481 1.350 . S
C487 H474 0.929 . S
C487 C479 1.433 . S
C487 N489 1.384 1_655 S
N488 C484 1.427 . S
N488 C485 1.384 . S
N489 C481 1.427 . S
N489 C487 1.384 1_455 S
H490 C496 0.930 . S
H491 C500 0.930 . S
H492 C505 0.929 . S
H493 C503 0.929 . S
H494 C498 0.929 1_565 S
H495 C504 0.929 . S
C496 H490 0.930 . S
C496 C497 1.367 1_545 S
C496 C504 1.378 . S
C497 C496 1.367 1_565 S
C497 C505 1.433 . S
C498 H494 0.929 1_545 S
C498 C500 1.378 . S
C498 C502 1.350 . S
C499 C502 1.463 . S
C499 C504 1.350 . S
C499 N507 1.427 1_545 S
C500 H491 0.930 . S
C500 C498 1.378 . S
C500 C501 1.367 . S
C501 C500 1.367 . S
C501 C503 1.433 . S
C502 C498 1.350 . S
C502 C499 1.463 . S
C502 N506 1.427 . S
C503 H493 0.929 . S
C503 C501 1.433 . S
C503 N506 1.384 . S
C504 H495 0.929 . S
C504 C496 1.378 . S
C504 C499 1.350 . S
C505 H492 0.929 . S
C505 C497 1.433 . S
C505 N507 1.384 . S
N506 C502 1.427 . S
N506 C503 1.384 . S
N507 C499 1.427 1_565 S
N507 C505 1.384 . S
H508 C514 0.930 . S
H509 C518 0.930 1_556 S
H510 C523 0.929 . S
H511 C521 0.929 . S
H512 C516 0.929 . S
H513 C522 0.929 . S
C514 H508 0.930 . S
C514 C515 1.367 . S
C514 C522 1.378 . S
C515 C514 1.367 . S
C515 C523 1.433 . S
C516 H512 0.929 . S
C516 C518 1.378 . S
C516 C520 1.350 . S
C517 C520 1.463 . S
C517 C522 1.350 . S
C517 N525 1.427 . S
C518 H509 0.930 1_554 S
C518 C516 1.378 . S
C518 C519 1.367 . S
C519 C518 1.367 . S
C519 C521 1.433 . S
C520 C516 1.350 . S
C520 C517 1.463 . S
C520 N524 1.427 . S
C521 H511 0.929 . S
C521 C519 1.433 . S
C521 N524 1.384 . S
C522 H513 0.929 . S
C522 C514 1.378 . S
C522 C517 1.350 . S
C523 H510 0.929 . S
C523 C515 1.433 . S
C523 N525 1.384 . S
N524 C520 1.427 . S
N524 C521 1.384 . S
N525 C517 1.427 . S
N525 C523 1.384 . S
H526 C532 0.930 . S
H527 C536 0.930 . S
H528 C541 0.929 . S
H529 C539 0.929 . S
H530 C534 0.929 . S
H531 C540 0.929 . S
C532 H526 0.930 . S
C532 C533 1.367 . S
C532 C540 1.378 . S
C533 C532 1.367 . S
C533 C541 1.433 . S
C534 H530 0.929 . S
C534 C536 1.378 . S
C534 C538 1.350 . S
C535 C538 1.463 . S
C535 C540 1.350 . S
C535 N543 1.427 . S
C536 H527 0.930 . S
C536 C534 1.378 . S
C536 C537 1.367 . S
C537 C536 1.367 . S
C537 C539 1.433 . S
C538 C534 1.350 . S
C538 C535 1.463 . S
C538 N542 1.427 . S
C539 H529 0.929 . S
C539 C537 1.433 . S
C539 N542 1.384 . S
C540 H531 0.929 . S
C540 C532 1.378 . S
C540 C535 1.350 . S
C541 H528 0.929 . S
C541 C533 1.433 . S
C541 N543 1.384 . S
N542 C538 1.427 . S
N542 C539 1.384 . S
N543 C535 1.427 . S
N543 C541 1.384 . S
H544 C550 0.930 . S
H545 C554 0.930 . S
H546 C559 0.929 . S
H547 C557 0.929 . S
H548 C552 0.929 . S
H549 C558 0.929 . S
C550 H544 0.930 . S
C550 C551 1.367 . S
C550 C558 1.378 . S
C551 C550 1.367 . S
C551 C559 1.433 1_455 S
C552 H548 0.929 . S
C552 C554 1.378 . S
C552 C556 1.350 1_655 S
C553 C556 1.463 . S
C553 C558 1.350 . S
C553 N561 1.427 1_455 S
C554 H545 0.930 . S
C554 C552 1.378 . S
C554 C555 1.367 1_655 S
C555 C554 1.367 1_455 S
C555 C557 1.433 . S
C556 C552 1.350 1_455 S
C556 C553 1.463 . S
C556 N560 1.427 . S
C557 H547 0.929 . S
C557 C555 1.433 . S
C557 N560 1.384 . S
C558 H549 0.929 . S
C558 C550 1.378 . S
C558 C553 1.350 . S
C559 H546 0.929 . S
C559 C551 1.433 1_655 S
C559 N561 1.384 . S
N560 C556 1.427 . S
N560 C557 1.384 . S
N561 C553 1.427 1_655 S
N561 C559 1.384 . S
H562 C568 0.930 . S
H563 C572 0.930 . S
H564 C577 0.929 . S
H565 C575 0.929 . S
H566 C570 0.929 . S
H567 C576 0.929 . S
C568 H562 0.930 . S
C568 C569 1.367 1_565 S
C568 C576 1.378 . S
C569 C568 1.367 1_545 S
C569 C577 1.433 . S
C570 H566 0.929 . S
C570 C572 1.378 . S
C570 C574 1.350 . S
C571 C574 1.463 . S
C571 C576 1.350 1_545 S
C571 N579 1.427 . S
C572 H563 0.930 . S
C572 C570 1.378 . S
C572 C573 1.367 . S
C573 C572 1.367 . S
C573 C575 1.433 1_545 S
C574 C570 1.350 . S
C574 C571 1.463 . S
C574 N578 1.427 1_545 S
C575 H565 0.929 . S
C575 C573 1.433 1_565 S
C575 N578 1.384 . S
C576 H567 0.929 . S
C576 C568 1.378 . S
C576 C571 1.350 1_565 S
C577 H564 0.929 . S
C577 C569 1.433 . S
C577 N579 1.384 . S
N578 C574 1.427 1_565 S
N578 C575 1.384 . S
N579 C571 1.427 . S
N579 C577 1.384 . S
H580 C586 0.930 . S
H581 C590 0.930 . S
H582 C595 0.929 . S
H583 C593 0.929 . S
H584 C588 0.929 . S
H585 C594 0.929 . S
C586 H580 0.930 . S
C586 C587 1.367 . S
C586 C594 1.378 . S
C587 C586 1.367 . S
C587 C595 1.433 . S
C588 H584 0.929 . S
C588 C590 1.378 . S
C588 C592 1.350 . S
C589 C592 1.463 . S
C589 C594 1.350 . S
C589 N597 1.427 . S
C590 H581 0.930 . S
C590 C588 1.378 . S
C590 C591 1.367 . S
C591 C590 1.367 . S
C591 C593 1.433 . S
C592 C588 1.350 . S
C592 C589 1.463 . S
C592 N596 1.427 . S
C593 H583 0.929 . S
C593 C591 1.433 . S
C593 N596 1.384 . S
C594 H585 0.929 . S
C594 C586 1.378 . S
C594 C589 1.350 . S
C595 H582 0.929 . S
C595 C587 1.433 . S
C595 N597 1.384 . S
N596 C592 1.427 . S
N596 C593 1.384 . S
N597 C589 1.427 . S
N597 C595 1.384 . S
H598 C604 0.930 . S
H599 C608 0.930 . S
H600 C613 0.929 . S
H601 C611 0.929 . S
H602 C606 0.929 . S
H603 C612 0.929 . S
C604 H598 0.930 . S
C604 C605 1.367 . S
C604 C612 1.378 . S
C605 C604 1.367 . S
C605 C613 1.433 . S
C606 H602 0.929 . S
C606 C608 1.378 . S
C606 C610 1.350 . S
C607 C610 1.463 . S
C607 C612 1.350 . S
C607 N615 1.427 . S
C608 H599 0.930 . S
C608 C606 1.378 . S
C608 C609 1.367 . S
C609 C608 1.367 . S
C609 C611 1.433 . S
C610 C606 1.350 . S
C610 C607 1.463 . S
C610 N614 1.427 . S
C611 H601 0.929 . S
C611 C609 1.433 . S
C611 N614 1.384 . S
C612 H603 0.929 . S
C612 C604 1.378 . S
C612 C607 1.350 . S
C613 H600 0.929 . S
C613 C605 1.433 . S
C613 N615 1.384 . S
N614 C610 1.427 . S
N614 C611 1.384 . S
N615 C607 1.427 . S
N615 C613 1.384 . S
H616 C622 0.930 . S
H617 C626 0.930 . S
H618 C631 0.929 . S
H619 C629 0.929 1_455 S
H620 C624 0.929 . S
H621 C630 0.929 . S
C622 H616 0.930 . S
C622 C623 1.367 1_455 S
C622 C630 1.378 . S
C623 C622 1.367 1_655 S
C623 C631 1.433 . S
C624 H620 0.929 . S
C624 C626 1.378 . S
C624 C628 1.350 . S
C625 C628 1.463 . S
C625 C630 1.350 1_655 S
C625 N633 1.427 . S
C626 H617 0.930 . S
C626 C624 1.378 . S
C626 C627 1.367 . S
C627 C626 1.367 . S
C627 C629 1.433 . S
C628 C624 1.350 . S
C628 C625 1.463 . S
C628 N632 1.430 . S
C629 H619 0.929 1_655 S
C629 C627 1.433 . S
C629 N632 1.384 . S
C630 H621 0.929 . S
C630 C622 1.378 . S
C630 C625 1.350 1_455 S
C631 H618 0.929 . S
C631 C623 1.433 . S
C631 N633 1.384 . S
N632 C628 1.430 . S
N632 C629 1.384 . S
N633 C625 1.427 . S
N633 C631 1.384 . S
H634 C640 0.930 1_545 S
H635 C644 0.930 . S
H636 C649 0.929 . S
H637 C647 0.929 . S
H638 C642 0.929 . S
H639 C648 0.927 1_545 S
C640 H634 0.930 1_565 S
C640 C641 1.367 . S
C640 C648 1.378 . S
C641 C640 1.367 . S
C641 C649 1.433 . S
C642 H638 0.929 . S
C642 C644 1.378 . S
C642 C646 1.350 . S
C643 C646 1.463 . S
C643 C648 1.350 . S
C643 N651 1.427 . S
C644 H635 0.930 . S
C644 C642 1.378 . S
C644 C645 1.367 . S
C645 C644 1.367 . S
C645 C647 1.433 . S
C646 C642 1.350 . S
C646 C643 1.463 . S
C646 N650 1.427 . S
C647 H637 0.929 . S
C647 C645 1.433 . S
C647 N650 1.384 . S
C648 H639 0.927 1_565 S
C648 C640 1.378 . S
C648 C643 1.350 . S
C649 H636 0.929 . S
C649 C641 1.433 . S
C649 N651 1.384 . S
N650 C646 1.427 . S
N650 C647 1.384 . S
N651 C643 1.427 . S
N651 C649 1.384 . S
H652 C658 0.930 . S
H653 C662 0.930 . S
H654 C667 0.929 . S
H655 C665 0.929 . S
H656 C660 0.929 . S
H657 C666 0.929 . S
C658 H652 0.930 . S
C658 C659 1.367 . S
C658 C666 1.378 . S
C659 C658 1.367 . S
C659 C667 1.433 . S
C660 H656 0.929 . S
C660 C662 1.378 . S
C660 C664 1.350 . S
C661 C664 1.463 . S
C661 C666 1.350 . S
C661 N669 1.427 . S
C662 H653 0.930 . S
C662 C660 1.378 . S
C662 C663 1.367 . S
C663 C662 1.367 . S
C663 C665 1.433 . S
C664 C660 1.350 . S
C664 C661 1.463 . S
C664 N668 1.427 . S
C665 H655 0.929 . S
C665 C663 1.433 . S
C665 N668 1.384 . S
C666 H657 0.929 . S
C666 C658 1.378 . S
C666 C661 1.350 . S
C667 H654 0.929 . S
C667 C659 1.433 . S
C667 N669 1.384 . S
N668 C664 1.427 . S
N668 C665 1.384 . S
N669 C661 1.427 . S
N669 C667 1.384 . S
H670 C676 0.930 . S
H671 C680 0.930 . S
H672 C685 0.929 . S
H673 C683 0.929 . S
H674 C678 0.929 . S
H675 C684 0.929 . S
C676 H670 0.930 . S
C676 C677 1.367 . S
C676 C684 1.378 . S
C677 C676 1.367 . S
C677 C685 1.433 . S
C678 H674 0.929 . S
C678 C680 1.378 . S
C678 C682 1.350 . S
C679 C682 1.463 . S
C679 C684 1.350 . S
C679 N687 1.427 . S
C680 H671 0.930 . S
C680 C678 1.378 . S
C680 C681 1.367 . S
C681 C680 1.367 . S
C681 C683 1.433 . S
C682 C678 1.350 . S
C682 C679 1.463 . S
C682 N686 1.427 . S
C683 H673 0.929 . S
C683 C681 1.433 . S
C683 N686 1.384 . S
C684 H675 0.929 . S
C684 C676 1.378 . S
C684 C679 1.350 . S
C685 H672 0.929 . S
C685 C677 1.433 . S
C685 N687 1.384 . S
N686 C682 1.427 . S
N686 C683 1.384 . S
N687 C679 1.427 . S
N687 C685 1.384 . S
C263 C76 1.820 . S
C267 C106 1.976 1_545 S
C285 C146 1.979 . S
C281 C88 1.816 . S
C303 C186 1.981 . S
C299 C52 1.824 . S
C321 C226 1.977 1_455 S
C317 C64 1.833 . S
C339 C115 1.978 1_565 S
C335 C28 1.834 . S
C353 C40 1.818 . S
C357 C155 1.976 . S
C371 C4 1.817 . S
C375 C195 1.976 . S
C389 C16 1.827 . S
C393 C235 1.981 1_655 S
C411 C112 0.507 . S
C407 C69 0.511 . S
C429 C152 0.511 . S
C425 C81 0.529 . S
C447 C192 0.523 . S
C443 C93 0.506 . S
C461 C57 0.525 . S
C465 C232 0.542 . S
C479 C21 0.516 . S
C483 C103 0.520 . S
C501 C143 0.510 . S
C497 C33 0.542 . S
C519 C183 0.517 . S
C515 C45 0.514 . S
C533 C9 0.523 . S
C537 C223 0.532 . S
C551 C66 2.028 . S
C555 C107 2.274 . S
C569 C78 2.036 . S
C573 C147 2.279 . S
C591 C187 2.278 . S
C587 C90 2.020 . S
C609 C227 2.280 . S
C605 C54 2.035 . S
C623 C18 2.042 1_655 S
C627 C98 2.280 . S
C645 C138 2.278 . S
C641 C30 2.025 . S
C663 C178 2.279 . S
C659 C42 2.040 . S
C677 C6 2.036 . S
C681 C218 2.280 . S
