# Generated by pormake.
# Topology apo, (3,6)-cn, num edge types: 1
# Building blocks:
#     Node 0, Type 0, BuildingBlock: BETDAH_clean_linker_0, # of connection points: 3
#     Node 1, Type 0, BuildingBlock: BETDAH_clean_linker_0, # of connection points: 3
#     Node 2, Type 0, BuildingBlock: BETDAH_clean_linker_0, # of connection points: 3
#     Node 3, Type 0, BuildingBlock: BETDAH_clean_linker_0, # of connection points: 3
#     Node 4, Type 0, BuildingBlock: BETDAH_clean_linker_0, # of connection points: 3
#     Node 5, Type 0, BuildingBlock: BETDAH_clean_linker_0, # of connection points: 3
#     Node 6, Type 0, BuildingBlock: BETDAH_clean_linker_0, # of connection points: 3
#     Node 7, Type 0, BuildingBlock: BETDAH_clean_linker_0, # of connection points: 3
#     Node 8, Type 1, BuildingBlock: KUMJIN_clean_sbu_1, # of connection points: 6
#     Node 9, Type 1, BuildingBlock: KUMJIN_clean_sbu_1, # of connection points: 6
#     Node 10, Type 1, BuildingBlock: KUMJIN_clean_sbu_1, # of connection points: 6
#     Node 11, Type 1, BuildingBlock: KUMJIN_clean_sbu_1, # of connection points: 6
#     Edge 12, Type (0, 1), BuildingBlock: AJUNOK_clean_linker_0, # of connection points: 2
#     Edge 13, Type (0, 1), BuildingBlock: AJUNOK_clean_linker_0, # of connection points: 2
#     Edge 14, Type (0, 1), BuildingBlock: AJUNOK_clean_linker_0, # of connection points: 2
#     Edge 15, Type (0, 1), BuildingBlock: AJUNOK_clean_linker_0, # of connection points: 2
#     Edge 16, Type (0, 1), BuildingBlock: AJUNOK_clean_linker_0, # of connection points: 2
#     Edge 17, Type (0, 1), BuildingBlock: AJUNOK_clean_linker_0, # of connection points: 2
#     Edge 18, Type (0, 1), BuildingBlock: AJUNOK_clean_linker_0, # of connection points: 2
#     Edge 19, Type (0, 1), BuildingBlock: AJUNOK_clean_linker_0, # of connection points: 2
#     Edge 20, Type (0, 1), BuildingBlock: AJUNOK_clean_linker_0, # of connection points: 2
#     Edge 21, Type (0, 1), BuildingBlock: AJUNOK_clean_linker_0, # of connection points: 2
#     Edge 22, Type (0, 1), BuildingBlock: AJUNOK_clean_linker_0, # of connection points: 2
#     Edge 23, Type (0, 1), BuildingBlock: AJUNOK_clean_linker_0, # of connection points: 2
#     Edge 24, Type (0, 1), BuildingBlock: AJUNOK_clean_linker_0, # of connection points: 2
#     Edge 25, Type (0, 1), BuildingBlock: AJUNOK_clean_linker_0, # of connection points: 2
#     Edge 26, Type (0, 1), BuildingBlock: AJUNOK_clean_linker_0, # of connection points: 2
#     Edge 27, Type (0, 1), BuildingBlock: AJUNOK_clean_linker_0, # of connection points: 2
#     Edge 28, Type (0, 1), BuildingBlock: AJUNOK_clean_linker_0, # of connection points: 2
#     Edge 29, Type (0, 1), BuildingBlock: AJUNOK_clean_linker_0, # of connection points: 2
#     Edge 30, Type (0, 1), BuildingBlock: AJUNOK_clean_linker_0, # of connection points: 2
#     Edge 31, Type (0, 1), BuildingBlock: AJUNOK_clean_linker_0, # of connection points: 2
#     Edge 32, Type (0, 1), BuildingBlock: AJUNOK_clean_linker_0, # of connection points: 2
#     Edge 33, Type (0, 1), BuildingBlock: AJUNOK_clean_linker_0, # of connection points: 2
#     Edge 34, Type (0, 1), BuildingBlock: AJUNOK_clean_linker_0, # of connection points: 2
#     Edge 35, Type (0, 1), BuildingBlock: AJUNOK_clean_linker_0, # of connection points: 2
# Relax obj value: 0.036
# Max RMSD: 0.241
# Mean RMSD: 0.168
data_MOF--net-apo--node1-KUMJIN_clean_sbu_1--node2-BETDAH_clean_linker_0--edge1-AJUNOK_clean_linker_0
_symmetry_space_group_name_H-M    P1
_symmetry_Int_Tables_number       1
_symmetry_cell_setting            triclinic
loop_
_symmetry_equiv_pos_as_xyz
'x, y, z'
_cell_length_a     20.407087
_cell_length_b     30.416673
_cell_length_c     39.755873
_cell_angle_alpha  89.693766
_cell_angle_beta   89.756316
_cell_angle_gamma 90.888263
loop_
_atom_site_label
_atom_site_type_symbol
_atom_site_fract_x
_atom_site_fract_y
_atom_site_fract_z
_atom_type_partial_charge
H0 H 0.39334 0.45792 0.41952 0.0
H1 H 0.29006 0.36656 0.35544 0.0
H2 H 0.30994 0.33937 0.46138 0.0
C3 C 0.36581 0.42743 0.41635 0.0
C4 C 0.35469 0.40016 0.44427 0.0
C5 C 0.3423 0.41601 0.38434 0.0
C6 C 0.30809 0.3757 0.38005 0.0
C7 C 0.2967 0.34785 0.40815 0.0
C8 C 0.3201 0.36047 0.43986 0.0
N9 N 0.26213 0.30695 0.40643 0.0
C10 C 0.22895 0.28906 0.37908 0.0
H11 H 0.13143 0.05385 0.91997 0.0
H12 H 0.22275 0.1488 0.85312 0.0
H13 H 0.19146 0.1801 0.95748 0.0
C14 C 0.15372 0.08603 0.91576 0.0
C15 C 0.15866 0.11541 0.9426 0.0
C16 C 0.17674 0.09756 0.88348 0.0
C17 C 0.2058 0.1394 0.87803 0.0
C18 C 0.21164 0.16911 0.90504 0.0
C19 C 0.1877 0.15688 0.93695 0.0
N20 N 0.23791 0.2124 0.90129 0.0
C21 C 0.28145 0.22758 0.87662 0.0
H22 H 0.8411 0.06699 0.60627 0.0
H23 H 0.85134 0.15789 0.68917 0.0
H24 H 0.80734 0.20481 0.59044 0.0
C25 C 0.8361 0.09983 0.61624 0.0
C26 C 0.82253 0.13471 0.59401 0.0
C27 C 0.8462 0.10731 0.65092 0.0
C28 C 0.84058 0.15044 0.66316 0.0
C29 C 0.82548 0.18514 0.64142 0.0
C30 C 0.81746 0.17737 0.60703 0.0
N31 N 0.8247 0.22877 0.65344 0.0
C32 C 0.77299 0.24438 0.67252 0.0
H33 H 0.65731 0.44637 0.10218 0.0
H34 H 0.77775 0.39491 0.18201 0.0
H35 H 0.80848 0.35412 0.0802 0.0
C36 C 0.6955 0.42475 0.11087 0.0
C37 C 0.72925 0.39913 0.08738 0.0
C38 C 0.71177 0.42308 0.14541 0.0
C39 C 0.76225 0.39508 0.15598 0.0
C40 C 0.79693 0.3703 0.13231 0.0
C41 C 0.78015 0.37244 0.09836 0.0
N42 N 0.85453 0.34773 0.14106 0.0
C43 C 0.85854 0.31762 0.16725 0.0
H44 H 0.65457 0.54941 0.60754 0.0
H45 H 0.73201 0.64478 0.6772 0.0
H46 H 0.74694 0.66844 0.57068 0.0
C47 C 0.6796 0.58052 0.61206 0.0
C48 C 0.70035 0.60676 0.58469 0.0
C49 C 0.69037 0.59407 0.64539 0.0
C50 C 0.72366 0.63423 0.65157 0.0
C51 C 0.74521 0.6607 0.62432 0.0
C52 C 0.73226 0.64702 0.59132 0.0
N53 N 0.77888 0.7017 0.62826 0.0
C54 C 0.80319 0.72033 0.65773 0.0
H55 H 0.87064 0.96666 0.10483 0.0
H56 H 0.76286 0.85239 0.07185 0.0
H57 H 0.79016 0.87455 0.17759 0.0
C58 C 0.84352 0.93656 0.1105 0.0
C59 C 0.83352 0.92367 0.14426 0.0
C60 C 0.81939 0.91054 0.0841 0.0
C61 C 0.78369 0.87207 0.09193 0.0
C62 C 0.77279 0.85871 0.12523 0.0
C63 C 0.79827 0.88444 0.15167 0.0
N64 N 0.73539 0.81933 0.13011 0.0
C65 C 0.71633 0.79931 0.16021 0.0
H66 H 0.15682 0.93744 0.42995 0.0
H67 H 0.28884 0.90052 0.35031 0.0
H68 H 0.3094 0.84539 0.4493 0.0
C69 C 0.19674 0.91772 0.42071 0.0
C70 C 0.22743 0.88879 0.44303 0.0
C71 C 0.21667 0.92131 0.38682 0.0
C72 C 0.27183 0.89783 0.3761 0.0
C73 C 0.30611 0.87145 0.39896 0.0
C74 C 0.28374 0.86695 0.43221 0.0
N75 N 0.3653 0.85114 0.38954 0.0
C76 C 0.36911 0.8202 0.36405 0.0
H77 H 0.38218 0.57889 0.92336 0.0
H78 H 0.22546 0.66648 0.94814 0.0
H79 H 0.23406 0.60865 0.85012 0.0
C80 C 0.33861 0.59659 0.91624 0.0
C81 C 0.31209 0.5908 0.88387 0.0
C82 C 0.30783 0.62386 0.93978 0.0
C83 C 0.25016 0.64534 0.93045 0.0
C84 C 0.22423 0.64039 0.89814 0.0
C85 C 0.25566 0.61363 0.8747 0.0
N86 N 0.16326 0.65937 0.89062 0.0
C87 C 0.15667 0.69101 0.86569 0.0
Eu88 Eu 0.07841 0.1088 0.23117 0.0
C89 C 0.78709 0.10267 0.28417 0.0
N90 N 0.83389 0.13397 0.29039 0.0
C91 C 0.75558 0.19076 0.28112 0.0
C92 C 0.72292 0.11456 0.27512 0.0
C93 C 0.81826 0.17748 0.29035 0.0
C94 C 0.70788 0.15921 0.27313 0.0
C95 C 0.75488 0.02542 0.28181 0.0
C96 C 0.80251 0.05849 0.28798 0.0
C97 C 0.69142 0.03726 0.27224 0.0
C98 C 0.67546 0.08167 0.26896 0.0
Eu99 Eu 0.93805 0.10743 0.30595 0.0
N100 N 0.86466 0.04779 0.29673 0.0
C101 C 0.77262 0.98133 0.28506 0.0
C102 C 0.88217 1.0049 0.29984 0.0
C103 C 0.83664 0.97105 0.29403 0.0
H104 H 0.85371 0.20217 0.29792 0.0
H105 H 0.85122 0.93707 0.29599 0.0
H106 H 0.19017 0.02877 0.2381 0.0
H107 H 0.11884 0.28316 0.203 0.0
H108 H 0.93211 0.99688 0.30481 0.0
H109 H 0.73752 0.95501 0.28035 0.0
H110 H 0.05535 0.21338 0.20693 0.0
H111 H 0.74386 0.22534 0.28061 0.0
H112 H 0.65426 0.0123 0.26736 0.0
H113 H 0.62606 0.09027 0.26185 0.0
H114 H 0.30949 0.02248 0.24701 0.0
H115 H 0.65918 0.16963 0.26625 0.0
H116 H 0.23691 0.28442 0.21704 0.0
N117 N 0.19224 0.0987 0.23798 0.0
C118 C 0.23019 0.13583 0.2375 0.0
C119 C 0.28774 0.05458 0.24472 0.0
C120 C 0.29861 0.13375 0.24201 0.0
C121 C 0.22017 0.05828 0.24 0.0
C122 C 0.32702 0.09251 0.24627 0.0
N123 N 0.13538 0.17669 0.22538 0.0
C124 C 0.1064 0.21399 0.21376 0.0
C125 C 0.23955 0.21471 0.22831 0.0
C126 C 0.20109 0.17588 0.23069 0.0
C127 C 0.20905 0.2539 0.21913 0.0
C128 C 0.14239 0.25336 0.21124 0.0
H129 H 0.3794 0.08953 0.24978 0.0
H130 H 0.38921 0.1717 0.24489 0.0
H131 H 0.33747 0.24256 0.23294 0.0
O132 O 0.03799 0.11726 0.18071 0.0
O133 O 0.08554 0.16345 0.26932 0.0
O134 O 0.03997 0.13502 0.31841 0.0
O135 O 0.13042 0.08479 0.18688 0.0
O136 O 0.97862 0.14047 0.2264 0.0
O137 O 0.95499 0.17093 0.27742 0.0
O138 O 0.91958 0.0794 0.35596 0.0
O139 O 0.91994 0.07468 0.25494 0.0
O140 O 0.01912 0.04639 0.23948 0.0
O141 O 0.90359 0.14848 0.34729 0.0
O142 O 0.01813 0.05865 0.31531 0.0
O143 O 0.09812 0.0577 0.27266 0.0
C144 C 0.08035 0.16202 0.30217 0.0
C145 C 0.07128 0.06969 0.13715 0.0
C146 C 0.0741 0.05775 0.07644 0.0
C147 C 0.04505 0.01595 0.0816 0.0
C148 C 0.04264 0.02801 0.14185 0.0
C149 C 0.02918 1.00136 0.11412 0.0
C150 C 0.08677 0.08445 0.10454 0.0
C151 C 0.95629 0.17306 0.24447 0.0
C152 C 0.08674 0.09835 0.16569 0.0
C153 C 0.33668 0.17264 0.24114 0.0
C154 C 0.30723 0.21301 0.23431 0.0
C155 C 0.95494 0.0458 0.23834 0.0
C156 C 0.84262 0.11405 0.39134 0.0
C157 C 0.79695 0.11368 0.44841 0.0
C158 C 0.73371 0.11025 0.43464 0.0
C159 C 0.77916 0.1102 0.37827 0.0
C160 C 0.85134 0.11585 0.42642 0.0
C161 C 0.72505 0.10837 0.39984 0.0
C162 C 0.07311 0.0444 0.30201 0.0
C163 C 0.90032 0.11623 0.36895 0.0
H164 H 0.03587 0.99417 0.06062 0.0
H165 H 0.03154 0.01611 0.16689 0.0
H166 H 0.00719 0.96908 0.11786 0.0
H167 H 0.10884 0.11684 0.10106 0.0
H168 H 0.69079 0.10973 0.45076 0.0
H169 H 0.77131 0.1088 0.35149 0.0
H170 H 0.90044 0.11865 0.43658 0.0
H171 H 0.67614 0.10576 0.38954 0.0
Eu172 Eu 0.44275 0.40487 0.73131 0.0
C173 C 0.70052 0.47543 0.78934 0.0
N174 N 0.68245 0.43251 0.7861 0.0
C175 C 0.78616 0.41628 0.76105 0.0
C176 C 0.76186 0.49081 0.77739 0.0
C177 C 0.72456 0.40268 0.77303 0.0
C178 C 0.80472 0.46062 0.76298 0.0
C179 C 0.6741 0.5488 0.80794 0.0
C180 C 0.65685 0.50401 0.80422 0.0
C181 C 0.73458 0.56455 0.7954 0.0
C182 C 0.77837 0.53562 0.78019 0.0
Eu183 Eu 0.57757 0.41188 0.80623 0.0
N184 N 0.59855 0.48776 0.816 0.0
C185 C 0.63072 0.57621 0.8249 0.0
C186 C 0.55896 0.51357 0.83502 0.0
C187 C 0.57345 0.55832 0.83902 0.0
H188 H 0.71051 0.36843 0.77194 0.0
H189 H 0.54103 0.57879 0.85354 0.0
H190 H 0.33291 0.48433 0.75079 0.0
H191 H 0.38847 0.23635 0.69472 0.0
H192 H 0.51717 0.49966 0.84807 0.0
H193 H 0.64211 0.61082 0.82828 0.0
H194 H 0.45568 0.30467 0.70007 0.0
H195 H 0.81926 0.39259 0.75039 0.0
H196 H 0.7484 0.59892 0.79783 0.0
H197 H 0.82511 0.54815 0.77095 0.0
H198 H 0.22084 0.48894 0.7732 0.0
H199 H 0.85236 0.47112 0.75355 0.0
H200 H 0.27615 0.2331 0.71855 0.0
N201 N 0.33265 0.41422 0.74958 0.0
C202 C 0.2946 0.37716 0.75099 0.0
C203 C 0.24129 0.45717 0.7676 0.0
C204 C 0.2289 0.37851 0.76212 0.0
C205 C 0.30556 0.45427 0.75558 0.0
C206 C 0.20314 0.41901 0.77152 0.0
N207 N 0.38234 0.33855 0.72712 0.0
C208 C 0.40662 0.30317 0.71045 0.0
C209 C 0.27979 0.30026 0.73644 0.0
C210 C 0.31969 0.3384 0.73862 0.0
C211 C 0.30533 0.26298 0.72085 0.0
C212 C 0.36874 0.26467 0.70737 0.0
H213 H 0.15298 0.42144 0.78028 0.0
H214 H 0.13985 0.34025 0.77085 0.0
H215 H 0.18437 0.27173 0.74813 0.0
O216 O 0.47583 0.39716 0.6796 0.0
O217 O 0.44811 0.34614 0.76751 0.0
O218 O 0.47831 0.37999 0.81622 0.0
O219 O 0.38369 0.42847 0.68911 0.0
O220 O 0.54195 0.37343 0.72315 0.0
O221 O 0.58282 0.35001 0.77448 0.0
O222 O 0.59164 0.41969 0.86 0.0
O223 O 0.59964 0.43932 0.75358 0.0
O224 O 0.50198 0.46797 0.73759 0.0
O225 O 0.63581 0.36465 0.8351 0.0
O226 O 0.47503 0.43598 0.81669 0.0
O227 O 0.44091 0.46438 0.76614 0.0
C228 C 0.4505 0.3469 0.80053 0.0
C229 C 0.43901 0.44585 0.63801 0.0
C230 C 0.43739 0.45821 0.57734 0.0
C231 C 0.46975 0.49887 0.58208 0.0
C232 C 0.47168 0.48625 0.64239 0.0
C233 C 0.48687 0.5127 0.61446 0.0
C234 C 0.42174 0.43211 0.60561 0.0
C235 C 0.57857 0.34708 0.7414 0.0
C236 C 0.42542 0.41607 0.66639 0.0
C237 C 0.19018 0.33989 0.76207 0.0
C238 C 0.21547 0.30089 0.74908 0.0
C239 C 0.56624 0.46982 0.73805 0.0
C240 C 0.68631 0.39296 0.88497 0.0
C241 C 0.72934 0.40373 0.9417 0.0
C242 C 0.79081 0.41473 0.92764 0.0
C243 C 0.74801 0.40391 0.87143 0.0
C244 C 0.67728 0.39274 0.92009 0.0
C245 C 0.80004 0.41456 0.89276 0.0
C246 C 0.43855 0.46285 0.79919 0.0
C247 C 0.62891 0.38582 0.86334 0.0
H248 H 0.48243 0.51963 0.56073 0.0
H249 H 0.48562 0.49706 0.66726 0.0
H250 H 0.51233 0.54384 0.61788 0.0
H251 H 0.39593 0.40097 0.60244 0.0
H252 H 0.83187 0.42311 0.94368 0.0
H253 H 0.75574 0.40489 0.8445 0.0
H254 H 0.62919 0.38525 0.93055 0.0
H255 H 0.84757 0.4231 0.88223 0.0
Eu256 Eu 0.08328 0.9081 0.72705 0.0
C257 C 0.82165 0.8474 0.80069 0.0
N258 N 0.84276 0.889 0.79387 0.0
C259 C 0.73515 0.90855 0.77588 0.0
C260 C 0.75655 0.83413 0.794 0.0
C261 C 0.80055 0.91987 0.78241 0.0
C262 C 0.7132 0.86532 0.78133 0.0
C263 C 0.84416 0.77555 0.824 0.0
C264 C 0.8649 0.81866 0.8155 0.0
C265 C 0.7804 0.7613 0.81573 0.0
C266 C 0.7366 0.79059 0.80087 0.0
Eu267 Eu 0.95334 0.90621 0.80538 0.0
N268 N 0.92568 0.83384 0.82373 0.0
C269 C 0.8872 0.74871 0.84176 0.0
C270 C 0.965 0.80933 0.84391 0.0
C271 C 0.94737 0.76603 0.8524 0.0
H272 H 0.81745 0.95316 0.77832 0.0
H273 H 0.97972 0.74632 0.86759 0.0
H274 H 0.19016 0.82827 0.7516 0.0
H275 H 0.14301 0.08068 0.70164 0.0
H276 H 0.0096 0.82329 0.85399 0.0
H277 H 0.87326 0.71536 0.84871 0.0
H278 H 0.07996 1.01067 0.69646 0.0
H279 H 0.70187 0.93307 0.76651 0.0
H280 H 0.76384 0.72814 0.82173 0.0
H281 H 0.68701 0.77956 0.79551 0.0
H282 H 0.29226 0.82353 0.78387 0.0
H283 H 0.66264 0.85654 0.77606 0.0
H284 H 0.24341 0.08342 0.73637 0.0
N285 N 0.18718 0.89833 0.75307 0.0
C286 C 0.22291 0.93571 0.75871 0.0
C287 C 0.27271 0.85538 0.77752 0.0
C288 C 0.28298 0.93449 0.77611 0.0
C289 C 0.21381 0.85829 0.75985 0.0
C290 C 0.30663 0.89371 0.78647 0.0
N291 N 0.14395 0.97507 0.72812 0.0
C292 C 0.12435 0.01175 0.71115 0.0
C293 C 0.23841 0.01416 0.74928 0.0
C294 C 0.2014 0.97506 0.74525 0.0
C295 C 0.21638 0.05268 0.73383 0.0
C296 C 0.15971 0.05128 0.7142 0.0
H297 H 0.35245 0.89135 0.79998 0.0
H298 H 0.36419 0.97346 0.79543 0.0
H299 H 0.32494 0.0433 0.77205 0.0
O300 O 0.06566 0.92051 0.67372 0.0
O301 O 0.07193 0.96602 0.76272 0.0
O302 O 0.05905 0.92749 0.81082 0.0
O303 O 0.15012 0.88385 0.68845 0.0
O304 O 0.9831 0.93647 0.71783 0.0
O305 O 0.94318 0.96403 0.7682 0.0
O306 O 0.93671 0.90557 0.85959 0.0
O307 O 0.91909 0.87724 0.75538 0.0
O308 O 0.01196 0.84937 0.73001 0.0
O309 O 0.92182 0.96563 0.83155 0.0
O310 O 0.0525 0.87322 0.80953 0.0
O311 O 0.07689 0.84471 0.75765 0.0
C312 C 0.08029 0.96263 0.79513 0.0
C313 C 0.1043 0.86822 0.6355 0.0
C314 C 0.11857 0.85023 0.57622 0.0
C315 C 0.08045 0.81181 0.58131 0.0
C316 C 0.06601 0.82997 0.64011 0.0
C317 C 0.05436 0.80184 0.61307 0.0
C318 C 0.13073 0.87816 0.60364 0.0
C319 C 0.95022 0.96589 0.73498 0.0
C320 C 0.11595 0.89859 0.66344 0.0
C321 C 0.31852 0.97371 0.78163 0.0
C322 C 0.29629 0.01347 0.76823 0.0
C323 C 0.94817 0.84821 0.73608 0.0
C324 C 0.86418 0.95607 0.8839 0.0
C325 C 0.82119 0.95669 0.94154 0.0
C326 C 0.76242 0.97406 0.92929 0.0
C327 C 0.80488 0.97296 0.87218 0.0
C328 C 0.87218 0.94834 0.91859 0.0
C329 C 0.75444 0.98207 0.89487 0.0
C330 C 0.07453 0.8413 0.79062 0.0
C331 C 0.91897 0.94635 0.86094 0.0
H332 H 0.07118 0.78935 0.56076 0.0
H333 H 0.04516 0.82197 0.66452 0.0
H334 H 0.02494 0.77227 0.61672 0.0
H335 H 0.15974 0.90801 0.60006 0.0
H336 H 0.7221 0.9806 0.94625 0.0
H337 H 0.79753 0.97915 0.84562 0.0
H338 H 0.91836 0.93586 0.9277 0.0
H339 H 0.70875 0.9951 0.88573 0.0
Eu340 Eu 0.44663 0.60277 0.22554 0.0
C341 C 0.7083 0.65946 0.29639 0.0
N342 N 0.68442 0.61846 0.29 0.0
C343 C 0.78971 0.59623 0.27009 0.0
C344 C 0.77374 0.67101 0.28848 0.0
C345 C 0.72418 0.5865 0.27791 0.0
C346 C 0.81448 0.63878 0.2751 0.0
C347 C 0.69082 0.73235 0.31873 0.0
C348 C 0.66725 0.68964 0.3114 0.0
C349 C 0.75512 0.74466 0.30951 0.0
C350 C 0.79655 0.71402 0.29453 0.0
Eu351 Eu 0.57368 0.60463 0.30375 0.0
N352 N 0.60552 0.67656 0.32038 0.0
C353 C 0.64976 0.76095 0.33606 0.0
C354 C 0.5676 0.70304 0.33976 0.0
C355 C 0.58835 0.74594 0.34717 0.0
H356 H 0.70544 0.55348 0.27434 0.0
H357 H 0.55731 0.76717 0.36183 0.0
H358 H 0.33518 0.67971 0.24905 0.0
H359 H 0.40194 0.42868 0.20104 0.0
H360 H 0.52166 0.69109 0.35006 0.0
H361 H 0.66596 0.79406 0.34211 0.0
H362 H 0.46187 0.5002 0.19746 0.0
H363 H 0.82103 0.57096 0.26015 0.0
H364 H 0.77382 0.77747 0.31465 0.0
H365 H 0.84645 0.7237 0.28822 0.0
H366 H 0.22844 0.68154 0.2778 0.0
H367 H 0.86516 0.64629 0.26883 0.0
H368 H 0.29611 0.42352 0.23162 0.0
N369 N 0.33988 0.6097 0.24905 0.0
C370 C 0.30521 0.57148 0.25343 0.0
C371 C 0.24993 0.65029 0.27159 0.0
C372 C 0.24286 0.5711 0.26891 0.0
C373 C 0.31132 0.64902 0.25588 0.0
C374 C 0.21615 0.61111 0.2788 0.0
N375 N 0.39065 0.53418 0.22598 0.0
C376 C 0.41518 0.498 0.21039 0.0
C377 C 0.29527 0.4928 0.24396 0.0
C378 C 0.3307 0.53277 0.24096 0.0
C379 C 0.32182 0.45488 0.22981 0.0
C380 C 0.38158 0.45764 0.21252 0.0
H381 H 0.16845 0.61223 0.29081 0.0
H382 H 0.16084 0.53012 0.28537 0.0
H383 H 0.20688 0.46154 0.26363 0.0
O384 O 0.46804 0.59028 0.17264 0.0
O385 O 0.45665 0.54611 0.26297 0.0
O386 O 0.46777 0.5843 0.31104 0.0
O387 O 0.38241 0.62697 0.18574 0.0
O388 O 0.54714 0.57566 0.21586 0.0
O389 O 0.58354 0.54714 0.26671 0.0
O390 O 0.60258 0.60624 0.35702 0.0
O391 O 0.60717 0.63443 0.25355 0.0
O392 O 0.5143 0.66293 0.22937 0.0
O393 O 0.5978 0.54367 0.33016 0.0
O394 O 0.47595 0.6397 0.30944 0.0
O395 O 0.44877 0.66571 0.25658 0.0
C396 C 0.44425 0.55028 0.29504 0.0
C397 C 0.43116 0.64137 0.13267 0.0
C398 C 0.41743 0.65786 0.07288 0.0
C399 C 0.45653 0.69596 0.07695 0.0
C400 C 0.46977 0.67954 0.13628 0.0
C401 C 0.48247 0.70663 0.10844 0.0
C402 C 0.40564 0.63044 0.10099 0.0
C403 C 0.58114 0.54723 0.23338 0.0
C404 C 0.41823 0.61188 0.16139 0.0
C405 C 0.20842 0.53107 0.27316 0.0
C406 C 0.23454 0.49202 0.2607 0.0
C407 C 0.57777 0.66468 0.23555 0.0
C408 C 0.62887 0.54012 0.38951 0.0
C409 C 0.65294 0.53875 0.44985 0.0
C410 C 0.65802 0.49288 0.44848 0.0
C411 C 0.63479 0.49415 0.38885 0.0
C412 C 0.63864 0.56246 0.42025 0.0
C413 C 0.64935 0.47082 0.41812 0.0
C414 C 0.45042 0.66971 0.28957 0.0
C415 C 0.60889 0.56376 0.35854 0.0
H416 H 0.46633 0.71782 0.05587 0.0
H417 H 0.49021 0.68822 0.1605 0.0
H418 H 0.51233 0.73609 0.1113 0.0
H419 H 0.3772 0.60028 0.09823 0.0
H420 H 0.66908 0.47415 0.47095 0.0
H421 H 0.62738 0.47605 0.36575 0.0
H422 H 0.63408 0.59787 0.42135 0.0
H423 H 0.6535 0.4354 0.41732 0.0
C424 C 0.2122 0.97809 0.34027 0.0
C425 C 0.1794 0.94974 0.36312 0.0
C426 C 0.17753 1.00778 0.32002 0.0
C427 C 0.10878 1.01059 0.3219 0.0
H428 H 0.26521 0.97852 0.33884 0.0
H429 H 0.20522 0.03004 0.30399 0.0
S430 S 0.99942 0.94163 0.37652 0.0
N431 N 0.07367 0.92374 0.38424 0.0
N432 N 0.00966 0.9818 0.34893 0.0
C433 C 0.07564 0.98205 0.34456 0.0
C434 C 0.11057 0.951 0.3643 0.0
C435 C 0.36398 0.56953 0.82892 0.0
C436 C 0.33965 0.55759 0.86093 0.0
C437 C 0.39309 0.53822 0.8079 0.0
C438 C 0.39824 0.49412 0.8183 0.0
H439 H 0.36235 0.60347 0.8206 0.0
H440 H 0.41416 0.54893 0.78412 0.0
S441 S 0.33235 0.44533 0.89743 0.0
N442 N 0.31613 0.49818 0.90034 0.0
N443 N 0.36992 0.43939 0.86092 0.0
C444 C 0.37057 0.48155 0.84939 0.0
C445 C 0.34154 0.51329 0.87072 0.0
C446 C 0.69305 0.5259 0.68103 0.0
C447 C 0.66371 0.56618 0.67315 0.0
C448 C 0.66258 0.49562 0.70318 0.0
C449 C 0.60105 0.50421 0.71772 0.0
H450 H 0.73887 0.51717 0.66913 0.0
H451 H 0.68611 0.46449 0.70776 0.0
S452 S 0.50563 0.60606 0.70624 0.0
N453 N 0.57144 0.6139 0.68248 0.0
N454 N 0.51395 0.55727 0.72402 0.0
C455 C 0.57247 0.54512 0.71087 0.0
C456 C 0.60379 0.576 0.68856 0.0
C457 C 0.91865 0.94229 0.18746 0.0
C458 C 0.85954 0.95235 0.17133 0.0
C459 C 0.94859 0.97225 0.20971 0.0
C460 C 0.92059 0.01337 0.21643 0.0
H461 H 0.94292 0.91171 0.18199 0.0
H462 H 0.9947 0.96353 0.22116 0.0
S463 S 0.76412 0.05404 0.18151 0.0
N464 N 0.77263 1.00503 0.16449 0.0
N465 N 0.82862 0.06149 0.20587 0.0
C466 C 0.86024 0.02299 0.2012 0.0
C467 C 0.82995 0.99252 0.17864 0.0
C468 C 0.91453 0.04082 0.66078 0.0
C469 C 0.86915 0.07098 0.67334 0.0
C470 C 0.93903 1.00713 0.68088 0.0
C471 C 0.92101 1.0023 0.71499 0.0
H472 H 0.93266 0.04354 0.6352 0.0
H473 H 0.9736 0.98513 0.66934 0.0
S474 S 0.80315 0.07235 0.76067 0.0
N475 N 0.80473 0.09269 0.72208 0.0
N476 N 0.85521 0.03135 0.76068 0.0
C477 C 0.87628 0.03252 0.72824 0.0
C478 C 0.84949 0.06631 0.70731 0.0
C479 C 0.67488 0.49849 0.16062 0.0
C480 C 0.68068 0.45393 0.16957 0.0
C481 C 0.64481 0.52846 0.1821 0.0
C482 C 0.61953 0.51535 0.21365 0.0
H483 H 0.69372 0.51043 0.13668 0.0
H484 H 0.64079 0.56227 0.17371 0.0
S485 S 0.62176 0.40261 0.24933 0.0
N486 N 0.65845 0.39812 0.21239 0.0
N487 N 0.60242 0.45492 0.253 0.0
C488 C 0.62627 0.47123 0.22345 0.0
C489 C 0.65668 0.44043 0.20137 0.0
C490 C 0.39623 0.43724 0.32944 0.0
C491 C 0.35465 0.44783 0.35645 0.0
C492 C 0.42265 0.47042 0.30826 0.0
C493 C 0.40908 0.51506 0.31393 0.0
H494 H 0.41171 0.40365 0.32602 0.0
H495 H 0.45683 0.46134 0.28866 0.0
S496 S 0.29374 0.55861 0.37723 0.0
N497 N 0.29381 0.50512 0.38444 0.0
N498 N 0.34456 0.56715 0.34536 0.0
C499 C 0.36384 0.52543 0.33917 0.0
C500 C 0.33623 0.49186 0.3602 0.0
C501 C 0.12445 0.07568 0.82898 0.0
C502 C 0.16604 0.06549 0.85598 0.0
C503 C 0.09927 0.04236 0.80803 0.0
C504 C 0.11413 0.99796 0.81392 0.0
H505 H 0.10793 0.10904 0.82541 0.0
H506 H 0.06503 0.05107 0.78843 0.0
S507 S 0.23114 0.95562 0.87676 0.0
N508 N 0.22903 1.00901 0.8839 0.0
N509 N 0.18047 0.94654 0.8452 0.0
C510 C 0.15961 0.98798 0.83905 0.0
C511 C 0.186 0.02176 0.85988 0.0
C512 C 0.17602 0.10677 1.00463 0.0
C513 C 0.13467 0.10219 0.97663 0.0
C514 C 0.15591 0.09245 0.0367 0.0
C515 C 0.09351 0.07313 0.04211 0.0
H516 H 0.22494 0.12061 1.0016 0.0
H517 H 0.19008 0.09581 0.05734 0.0
S518 S 0.96456 0.05708 0.97755 0.0
N519 N 0.02707 0.07918 0.95664 0.0
N520 N 0.98907 0.05261 0.01694 0.0
C521 C 0.05114 0.06919 1.01441 0.0
C522 C 0.07172 0.08367 0.98172 0.0
C523 C 0.365 0.45717 0.48938 0.0
C524 C 0.37747 0.41425 0.47812 0.0
C525 C 0.38546 0.47134 0.52122 0.0
C526 C 0.41903 0.44312 0.54309 0.0
H527 H 0.33824 0.47981 0.47364 0.0
H528 H 0.37367 0.50436 0.52905 0.0
S529 S 0.4694 0.32905 0.52448 0.0
N530 N 0.42934 0.34466 0.49055 0.0
N531 N 0.46768 0.37125 0.55041 0.0
C532 C 0.43308 0.40046 0.53189 0.0
C533 C 0.41228 0.38603 0.49945 0.0
C534 C 0.73821 0.44032 0.03302 0.0
C535 C 0.71699 0.4026 0.05075 0.0
C536 C 0.7401 0.44092 0.99769 0.0
C537 C 0.72013 0.40398 0.97887 0.0
H538 H 0.75664 0.46871 0.04657 0.0
H539 H 0.75886 0.47013 0.98499 0.0
S540 S 0.65622 0.29828 1.01365 0.0
N541 N 0.67273 0.32829 0.04717 0.0
N542 N 0.67515 0.32952 0.98079 0.0
C543 C 0.6957 0.36688 0.99639 0.0
C544 C 0.69456 0.36613 0.03233 0.0
C545 C 0.85062 0.15553 0.53431 0.0
C546 C 0.81697 0.12735 0.55699 0.0
C547 C 0.8452 0.15021 0.49936 0.0
C548 C 0.80566 0.11662 0.48558 0.0
H549 H 0.88151 0.18201 0.54364 0.0
H550 H 0.87102 0.17327 0.48299 0.0
S551 S 0.70967 0.03273 0.5338 0.0
N552 N 0.7437 0.06396 0.56296 0.0
N553 N 0.73485 0.05334 0.49738 0.0
C554 C 0.77291 0.08759 0.50793 0.0
C555 C 0.77836 0.09303 0.54354 0.0
C556 C 0.80998 0.96577 0.03712 0.0
C557 C 0.82853 0.92376 0.0482 0.0
C558 C 0.8094 0.9766 1.00268 0.0
C559 C 0.82796 0.946 0.97804 0.0
H560 H 0.79318 0.98983 0.05507 0.0
H561 H 0.79324 1.00897 0.99524 0.0
S562 S 0.8859 0.83278 0.99424 0.0
N563 N 0.87055 0.85257 0.032 0.0
N564 N 0.86832 0.87252 0.96746 0.0
C565 C 0.84933 0.90455 0.98896 0.0
C566 C 0.84983 0.89355 0.02394 0.0
C567 C 0.62678 0.57347 0.54046 0.0
C568 C 0.68792 0.59226 0.54929 0.0
C569 C 0.61482 0.55784 0.50781 0.0
C570 C 0.66316 0.56097 0.48258 0.0
H571 H 0.58792 0.57049 0.55901 0.0
H572 H 0.56782 0.54244 0.50239 0.0
S573 S 0.83159 0.60592 0.49219 0.0
N574 N 0.79792 0.61177 0.52972 0.0
N575 N 0.7742 0.58358 0.46829 0.0
C576 C 0.72388 0.58022 0.49069 0.0
C577 C 0.73652 0.59566 0.52401 0.0
C578 C 0.40211 0.64116 0.97819 0.0
C579 C 0.33549 0.62986 0.97411 0.0
C580 C 0.42828 0.64975 1.01016 0.0
C581 C 0.389 0.64706 0.03935 0.0
H582 H 0.43396 0.64438 0.95642 0.0
H583 H 0.47975 0.65863 1.01201 0.0
S584 S 0.21215 0.6167 0.04244 0.0
N585 N 0.23153 0.61434 1.00214 0.0
N586 N 0.2801 0.63158 0.06199 0.0
C587 C 0.32258 0.63492 0.03565 0.0
C588 C 0.296 0.62613 1.00313 0.0
C589 C 0.23881 0.87995 0.50581 0.0
C590 C 0.1988 0.88013 0.47704 0.0
C591 C 0.21243 0.87095 0.53788 0.0
C592 C 0.14524 0.86127 0.5423 0.0
H593 H 0.29083 0.88702 0.50355 0.0
H594 H 0.24504 0.87082 0.55931 0.0
S595 S 0.01924 0.85815 0.47537 0.0
N596 N 0.08835 0.86976 0.45527 0.0
N597 N 0.03898 0.85382 0.51546 0.0
C598 C 0.10466 0.86177 0.51385 0.0
C599 C 0.13135 0.87098 0.48128 0.0
C600 C 0.22142 0.23302 0.33441 0.0
C601 C 0.19025 0.26126 0.35702 0.0
C602 C 0.18545 0.20085 0.31679 0.0
C603 C 0.11735 0.19561 0.32144 0.0
H604 H 0.27412 0.2349 0.33107 0.0
H605 H 0.2115 0.17896 0.30033 0.0
S606 S 0.01282 0.26243 0.37714 0.0
N607 N 0.08757 0.28274 0.38272 0.0
N608 N 0.02004 0.22238 0.34952 0.0
C609 C 0.08567 0.22408 0.34369 0.0
C610 C 0.12217 0.25697 0.36147 0.0
C611 C 0.33764 0.24916 0.82305 0.0
C612 C 0.32878 0.25403 0.85781 0.0
C613 C 0.37973 0.27795 0.80496 0.0
C614 C 0.4125 0.31344 0.82072 0.0
H615 H 0.31148 0.2234 0.8097 0.0
H616 H 0.38618 0.27247 0.77843 0.0
S617 S 0.41122 0.33562 0.9127 0.0
N618 N 0.36059 0.29326 0.90817 0.0
N619 N 0.43819 0.34776 0.87452 0.0
C620 C 0.40619 0.3168 0.856 0.0
C621 C 0.36431 0.28716 0.87436 0.0
C622 C 0.7154 0.26567 0.72474 0.0
C623 C 0.71972 0.26579 0.68953 0.0
C624 C 0.66766 0.29048 0.74136 0.0
C625 C 0.62339 0.31679 0.72328 0.0
H626 H 0.75004 0.2472 0.73954 0.0
H627 H 0.667 0.29005 0.76859 0.0
S628 S 0.61277 0.32436 0.62988 0.0
N629 N 0.67446 0.2911 0.63684 0.0
N630 N 0.58514 0.338 0.66741 0.0
C631 C 0.62608 0.31528 0.68775 0.0
C632 C 0.67436 0.28982 0.67104 0.0
C633 C 0.87271 0.23883 0.17637 0.0
C634 C 0.87357 0.28155 0.1894 0.0
C635 C 0.89792 0.20368 0.19485 0.0
C636 C 0.92469 0.21015 0.22705 0.0
H637 H 0.85471 0.23277 0.15117 0.0
H638 H 0.89757 0.17137 0.18351 0.0
S639 S 0.93631 0.31618 0.27249 0.0
N640 N 0.90132 0.32878 0.23635 0.0
N641 N 0.94881 0.26267 0.27145 0.0
C642 C 0.92364 0.25268 0.2408 0.0
C643 C 0.8981 0.28849 0.22182 0.0
C644 C 0.89878 0.74111 0.69279 0.0
C645 C 0.83463 0.74922 0.68198 0.0
C646 C 0.93464 0.77295 0.71093 0.0
C647 C 0.90764 0.81406 0.71882 0.0
H648 H 0.9223 0.71065 0.68613 0.0
H649 H 0.98434 0.76559 0.7183 0.0
S650 S 0.74216 0.85162 0.69448 0.0
N651 N 0.74579 0.80105 0.67977 0.0
N652 N 0.81296 0.86107 0.7133 0.0
C653 C 0.843 0.82208 0.70845 0.0
C654 C 0.80661 0.78961 0.69011 0.0
C655 C 0.62405 0.77558 0.19668 0.0
C656 C 0.68769 0.76879 0.18444 0.0
C657 C 0.58946 0.742 0.21393 0.0
C658 C 0.61736 0.70051 0.21951 0.0
H659 H 0.59972 0.80631 0.19162 0.0
H660 H 0.53988 0.74826 0.22222 0.0
S661 S 0.78189 0.6661 0.19076 0.0
N662 N 0.77703 0.71785 0.17837 0.0
N663 N 0.71219 0.6546 0.21042 0.0
C664 C 0.68161 0.6938 0.20785 0.0
C665 C 0.7167 0.72801 0.19034 0.0
C666 C 0.42283 0.78818 0.31416 0.0
C667 C 0.38004 0.78365 0.34177 0.0
C668 C 0.44236 0.75117 0.29581 0.0
C669 C 0.42081 0.70867 0.30516 0.0
H670 H 0.44334 0.82016 0.30756 0.0
H671 H 0.47754 0.75555 0.27556 0.0
S672 S 0.30318 0.68049 0.37343 0.0
N673 N 0.31231 0.73444 0.37576 0.0
N674 N 0.35039 0.66483 0.34197 0.0
C675 C 0.37583 0.70421 0.3318 0.0
C676 C 0.3551 0.74182 0.34998 0.0
C677 C 0.10986 0.72322 0.81405 0.0
C678 C 0.14521 0.72819 0.84404 0.0
C679 C 0.09026 0.76022 0.79555 0.0
C680 C 0.10446 0.80297 0.80705 0.0
H681 H 0.09526 0.69075 0.80553 0.0
H682 H 0.06079 0.75542 0.77323 0.0
S683 S 0.20134 0.83251 0.88252 0.0
N684 N 0.19812 0.77823 0.88303 0.0
N685 N 0.16055 0.84777 0.84873 0.0
C686 C 0.14246 0.80797 0.83619 0.0
C687 C 0.16294 0.77046 0.85466 0.0
loop_
_geom_bond_atom_site_label_1
_geom_bond_atom_site_label_2
_geom_bond_distance
_geom_bond_site_symmetry_2
_ccdc_geom_bond_type
H0 C3 0.929 . S
H1 C6 0.929 . S
H2 C8 0.930 . S
C3 H0 0.929 . S
C3 C4 1.398 . S
C3 C5 1.396 . S
C4 C3 1.398 . S
C4 C8 1.407 . S
C5 C3 1.396 . S
C5 C6 1.394 . S
C6 H1 0.929 . S
C6 C5 1.394 . S
C6 C7 1.382 . S
C7 C6 1.382 . S
C7 C8 1.392 . S
C7 N9 1.420 . S
C8 H2 0.930 . S
C8 C4 1.407 . S
C8 C7 1.392 . S
N9 C7 1.420 . S
N9 C10 1.244 . S
C10 N9 1.244 . S
H11 C14 0.929 . S
H12 C17 0.929 . S
H13 C19 0.930 . S
C14 H11 0.929 . S
C14 C15 1.398 . S
C14 C16 1.396 . S
C15 C14 1.398 . S
C15 C19 1.407 . S
C16 C14 1.396 . S
C16 C17 1.394 . S
C17 H12 0.929 . S
C17 C16 1.394 . S
C17 C18 1.382 . S
C18 C17 1.382 . S
C18 C19 1.392 . S
C18 N20 1.420 . S
C19 H13 0.930 . S
C19 C15 1.407 . S
C19 C18 1.392 . S
N20 C18 1.420 . S
N20 C21 1.244 . S
C21 N20 1.244 . S
H22 C25 0.929 . S
H23 C28 0.929 . S
H24 C30 0.930 . S
C25 H22 0.929 . S
C25 C26 1.398 . S
C25 C27 1.396 . S
C26 C25 1.398 . S
C26 C30 1.407 . S
C27 C25 1.396 . S
C27 C28 1.394 . S
C28 H23 0.929 . S
C28 C27 1.394 . S
C28 C29 1.382 . S
C29 C28 1.382 . S
C29 C30 1.392 . S
C29 N31 1.420 . S
C30 H24 0.930 . S
C30 C26 1.407 . S
C30 C29 1.392 . S
N31 C29 1.420 . S
N31 C32 1.244 . S
C32 N31 1.244 . S
H33 C36 0.929 . S
H34 C39 0.929 . S
H35 C41 0.930 . S
C36 H33 0.929 . S
C36 C37 1.398 . S
C36 C38 1.396 . S
C37 C36 1.398 . S
C37 C41 1.407 . S
C38 C36 1.396 . S
C38 C39 1.394 . S
C39 H34 0.929 . S
C39 C38 1.394 . S
C39 C40 1.382 . S
C40 C39 1.382 . S
C40 C41 1.392 . S
C40 N42 1.420 . S
C41 H35 0.930 . S
C41 C37 1.407 . S
C41 C40 1.392 . S
N42 C40 1.420 . S
N42 C43 1.244 . S
C43 N42 1.244 . S
H44 C47 0.929 . S
H45 C50 0.929 . S
H46 C52 0.930 . S
C47 H44 0.929 . S
C47 C48 1.398 . S
C47 C49 1.396 . S
C48 C47 1.398 . S
C48 C52 1.407 . S
C49 C47 1.396 . S
C49 C50 1.394 . S
C50 H45 0.929 . S
C50 C49 1.394 . S
C50 C51 1.382 . S
C51 C50 1.382 . S
C51 C52 1.392 . S
C51 N53 1.420 . S
C52 H46 0.930 . S
C52 C48 1.407 . S
C52 C51 1.392 . S
N53 C51 1.420 . S
N53 C54 1.244 . S
C54 N53 1.244 . S
H55 C58 0.929 . S
H56 C61 0.929 . S
H57 C63 0.930 . S
C58 H55 0.929 . S
C58 C59 1.398 . S
C58 C60 1.396 . S
C59 C58 1.398 . S
C59 C63 1.407 . S
C60 C58 1.396 . S
C60 C61 1.394 . S
C61 H56 0.929 . S
C61 C60 1.394 . S
C61 C62 1.382 . S
C62 C61 1.382 . S
C62 C63 1.392 . S
C62 N64 1.420 . S
C63 H57 0.930 . S
C63 C59 1.407 . S
C63 C62 1.392 . S
N64 C62 1.420 . S
N64 C65 1.244 . S
C65 N64 1.244 . S
H66 C69 0.929 . S
H67 C72 0.929 . S
H68 C74 0.930 . S
C69 H66 0.929 . S
C69 C70 1.398 . S
C69 C71 1.396 . S
C70 C69 1.398 . S
C70 C74 1.407 . S
C71 C69 1.396 . S
C71 C72 1.394 . S
C72 H67 0.929 . S
C72 C71 1.394 . S
C72 C73 1.382 . S
C73 C72 1.382 . S
C73 C74 1.392 . S
C73 N75 1.420 . S
C74 H68 0.930 . S
C74 C70 1.407 . S
C74 C73 1.392 . S
N75 C73 1.420 . S
N75 C76 1.244 . S
C76 N75 1.244 . S
H77 C80 0.929 . S
H78 C83 0.929 . S
H79 C85 0.930 . S
C80 H77 0.929 . S
C80 C81 1.398 . S
C80 C82 1.396 . S
C81 C80 1.398 . S
C81 C85 1.407 . S
C82 C80 1.396 . S
C82 C83 1.394 . S
C83 H78 0.929 . S
C83 C82 1.394 . S
C83 C84 1.382 . S
C84 C83 1.382 . S
C84 C85 1.392 . S
C84 N86 1.420 . S
C85 H79 0.930 . S
C85 C81 1.407 . S
C85 C84 1.392 . S
N86 C84 1.420 . S
N86 C87 1.244 . S
C87 N86 1.244 . S
Eu88 N117 2.600 . S
Eu88 N123 2.562 . S
Eu88 O132 2.462 . S
Eu88 O133 2.373 . S
Eu88 O135 2.432 . S
Eu88 O136 2.291 . S
Eu88 O140 2.335 . S
Eu88 O143 2.372 . S
Eu88 C152 2.787 . S
C89 N90 1.365 . S
C89 C92 1.405 . S
C89 C96 1.448 . S
N90 C89 1.365 . S
N90 C93 1.319 . S
N90 Eu99 2.600 . S
C91 C93 1.397 . S
C91 C94 1.367 . S
C91 H111 0.931 . S
C92 C89 1.405 . S
C92 C94 1.403 . S
C92 C98 1.439 . S
C93 N90 1.319 . S
C93 C91 1.397 . S
C93 H104 0.930 . S
C94 C91 1.367 . S
C94 C92 1.403 . S
C94 H115 0.929 . S
C95 C96 1.430 1_565 S
C95 C97 1.387 . S
C95 C101 1.404 . S
C96 C89 1.448 . S
C96 C95 1.430 1_545 S
C96 N100 1.351 . S
C97 C95 1.387 . S
C97 C98 1.374 1_565 S
C97 H112 0.931 . S
C98 C92 1.439 . S
C98 C97 1.374 1_545 S
C98 H113 0.931 . S
Eu99 N90 2.600 . S
Eu99 N100 2.562 . S
Eu99 O134 2.335 1_655 S
Eu99 O137 2.372 . S
Eu99 O138 2.462 . S
Eu99 O139 2.373 . S
Eu99 O141 2.432 . S
Eu99 O142 2.291 1_655 S
Eu99 C163 2.787 . S
N100 C96 1.351 . S
N100 Eu99 2.562 . S
N100 C102 1.325 1_545 S
C101 C95 1.404 . S
C101 C103 1.366 . S
C101 H109 0.930 . S
C102 N100 1.325 1_565 S
C102 C103 1.416 . S
C102 H108 0.929 . S
C103 C101 1.366 . S
C103 C102 1.416 . S
C103 H105 0.930 . S
H104 C93 0.930 . S
H105 C103 0.930 . S
H106 C121 0.930 . S
H107 C128 0.930 . S
H108 C102 0.929 . S
H109 C101 0.930 . S
H110 C124 0.929 . S
H111 C91 0.931 . S
H112 C97 0.931 . S
H113 C98 0.931 . S
H114 C119 0.931 . S
H115 C94 0.929 . S
H116 C127 0.930 . S
N117 Eu88 2.600 . S
N117 C118 1.365 . S
N117 C121 1.319 . S
C118 N117 1.365 . S
C118 C120 1.405 . S
C118 C126 1.448 . S
C119 H114 0.931 . S
C119 C121 1.397 . S
C119 C122 1.367 . S
C120 C118 1.405 . S
C120 C122 1.403 . S
C120 C153 1.439 . S
C121 H106 0.930 . S
C121 N117 1.319 . S
C121 C119 1.397 . S
C122 C119 1.367 . S
C122 C120 1.403 . S
C122 H129 0.929 . S
N123 Eu88 2.562 . S
N123 C124 1.325 . S
N123 C126 1.351 . S
C124 H110 0.929 . S
C124 N123 1.325 . S
C124 C128 1.416 . S
C125 C126 1.430 . S
C125 C127 1.404 . S
C125 C154 1.387 . S
C126 C118 1.448 . S
C126 N123 1.351 . S
C126 C125 1.430 . S
C127 H116 0.930 . S
C127 C125 1.404 . S
C127 C128 1.366 . S
C128 H107 0.930 . S
C128 C124 1.416 . S
C128 C127 1.366 . S
H129 C122 0.929 . S
H130 C153 0.931 . S
H131 C154 0.931 . S
O132 Eu88 2.462 . S
O132 C152 1.252 . S
O133 Eu88 2.373 . S
O133 C144 1.249 . S
O134 Eu99 2.335 1_455 S
O134 C144 1.264 . S
O135 Eu88 2.432 . S
O135 C152 1.268 . S
O136 Eu88 2.291 . S
O136 C151 1.255 1_455 S
O137 Eu99 2.372 . S
O137 C151 1.257 . S
O138 Eu99 2.462 . S
O138 C163 1.252 . S
O139 Eu99 2.373 . S
O139 C155 1.249 . S
O140 Eu88 2.335 . S
O140 C155 1.264 1_455 S
O141 Eu99 2.432 . S
O141 C163 1.268 . S
O142 Eu99 2.291 1_455 S
O142 C162 1.255 . S
O143 Eu88 2.372 . S
O143 C162 1.257 . S
C144 O133 1.249 . S
C144 O134 1.264 . S
C145 C148 1.382 . S
C145 C150 1.390 . S
C145 C152 1.506 . S
C146 C147 1.398 . S
C146 C150 1.392 . S
C147 C146 1.398 . S
C147 C149 1.372 . S
C147 H164 0.931 . S
C148 C145 1.382 . S
C148 C149 1.390 . S
C148 H165 0.931 . S
C149 C147 1.372 . S
C149 C148 1.390 . S
C149 H166 0.929 . S
C150 C145 1.390 . S
C150 C146 1.392 . S
C150 H167 0.930 . S
C151 O136 1.255 1_655 S
C151 O137 1.257 . S
C152 Eu88 2.787 . S
C152 O132 1.252 . S
C152 O135 1.268 . S
C152 C145 1.506 . S
C153 C120 1.439 . S
C153 H130 0.931 . S
C153 C154 1.374 . S
C154 C125 1.387 . S
C154 H131 0.931 . S
C154 C153 1.374 . S
C155 O139 1.249 . S
C155 O140 1.264 1_655 S
C156 C159 1.382 . S
C156 C160 1.390 . S
C156 C163 1.506 . S
C157 C158 1.398 . S
C157 C160 1.392 . S
C158 C157 1.398 . S
C158 C161 1.372 . S
C158 H168 0.931 . S
C159 C156 1.382 . S
C159 C161 1.390 . S
C159 H169 0.931 . S
C160 C156 1.390 . S
C160 C157 1.392 . S
C160 H170 0.930 . S
C161 C158 1.372 . S
C161 C159 1.390 . S
C161 H171 0.929 . S
C162 O142 1.255 . S
C162 O143 1.257 . S
C163 Eu99 2.787 . S
C163 O138 1.252 . S
C163 O141 1.268 . S
C163 C156 1.506 . S
H164 C147 0.931 . S
H165 C148 0.931 . S
H166 C149 0.929 . S
H167 C150 0.930 . S
H168 C158 0.931 . S
H169 C159 0.931 . S
H170 C160 0.930 . S
H171 C161 0.929 . S
Eu172 N201 2.600 . S
Eu172 N207 2.562 . S
Eu172 O216 2.462 . S
Eu172 O217 2.373 . S
Eu172 O219 2.432 . S
Eu172 O220 2.291 . S
Eu172 O224 2.335 . S
Eu172 O227 2.372 . S
Eu172 C236 2.787 . S
C173 N174 1.365 . S
C173 C176 1.405 . S
C173 C180 1.448 . S
N174 C173 1.365 . S
N174 C177 1.319 . S
N174 Eu183 2.600 . S
C175 C177 1.397 . S
C175 C178 1.367 . S
C175 H195 0.931 . S
C176 C173 1.405 . S
C176 C178 1.403 . S
C176 C182 1.439 . S
C177 N174 1.319 . S
C177 C175 1.397 . S
C177 H188 0.930 . S
C178 C175 1.367 . S
C178 C176 1.403 . S
C178 H199 0.929 . S
C179 C180 1.430 . S
C179 C181 1.387 . S
C179 C185 1.404 . S
C180 C173 1.448 . S
C180 C179 1.430 . S
C180 N184 1.351 . S
C181 C179 1.387 . S
C181 C182 1.374 . S
C181 H196 0.931 . S
C182 C176 1.439 . S
C182 C181 1.374 . S
C182 H197 0.931 . S
Eu183 N174 2.600 . S
Eu183 N184 2.562 . S
Eu183 O218 2.335 . S
Eu183 O221 2.372 . S
Eu183 O222 2.462 . S
Eu183 O223 2.373 . S
Eu183 O225 2.432 . S
Eu183 O226 2.291 . S
Eu183 C247 2.787 . S
N184 C180 1.351 . S
N184 Eu183 2.562 . S
N184 C186 1.325 . S
C185 C179 1.404 . S
C185 C187 1.366 . S
C185 H193 0.930 . S
C186 N184 1.325 . S
C186 C187 1.416 . S
C186 H192 0.929 . S
C187 C185 1.366 . S
C187 C186 1.416 . S
C187 H189 0.930 . S
H188 C177 0.930 . S
H189 C187 0.930 . S
H190 C205 0.930 . S
H191 C212 0.930 . S
H192 C186 0.929 . S
H193 C185 0.930 . S
H194 C208 0.929 . S
H195 C175 0.931 . S
H196 C181 0.931 . S
H197 C182 0.931 . S
H198 C203 0.931 . S
H199 C178 0.929 . S
H200 C211 0.930 . S
N201 Eu172 2.600 . S
N201 C202 1.365 . S
N201 C205 1.319 . S
C202 N201 1.365 . S
C202 C204 1.405 . S
C202 C210 1.448 . S
C203 H198 0.931 . S
C203 C205 1.397 . S
C203 C206 1.367 . S
C204 C202 1.405 . S
C204 C206 1.403 . S
C204 C237 1.439 . S
C205 H190 0.930 . S
C205 N201 1.319 . S
C205 C203 1.397 . S
C206 C203 1.367 . S
C206 C204 1.403 . S
C206 H213 0.929 . S
N207 Eu172 2.562 . S
N207 C208 1.325 . S
N207 C210 1.351 . S
C208 H194 0.929 . S
C208 N207 1.325 . S
C208 C212 1.416 . S
C209 C210 1.430 . S
C209 C211 1.404 . S
C209 C238 1.387 . S
C210 C202 1.448 . S
C210 N207 1.351 . S
C210 C209 1.430 . S
C211 H200 0.930 . S
C211 C209 1.404 . S
C211 C212 1.366 . S
C212 H191 0.930 . S
C212 C208 1.416 . S
C212 C211 1.366 . S
H213 C206 0.929 . S
H214 C237 0.931 . S
H215 C238 0.931 . S
O216 Eu172 2.462 . S
O216 C236 1.252 . S
O217 Eu172 2.373 . S
O217 C228 1.249 . S
O218 Eu183 2.335 . S
O218 C228 1.264 . S
O219 Eu172 2.432 . S
O219 C236 1.268 . S
O220 Eu172 2.291 . S
O220 C235 1.255 . S
O221 Eu183 2.372 . S
O221 C235 1.257 . S
O222 Eu183 2.462 . S
O222 C247 1.252 . S
O223 Eu183 2.373 . S
O223 C239 1.249 . S
O224 Eu172 2.335 . S
O224 C239 1.264 . S
O225 Eu183 2.432 . S
O225 C247 1.268 . S
O226 Eu183 2.291 . S
O226 C246 1.255 . S
O227 Eu172 2.372 . S
O227 C246 1.257 . S
C228 O217 1.249 . S
C228 O218 1.264 . S
C229 C232 1.382 . S
C229 C234 1.390 . S
C229 C236 1.506 . S
C230 C231 1.398 . S
C230 C234 1.392 . S
C231 C230 1.398 . S
C231 C233 1.372 . S
C231 H248 0.931 . S
C232 C229 1.382 . S
C232 C233 1.390 . S
C232 H249 0.931 . S
C233 C231 1.372 . S
C233 C232 1.390 . S
C233 H250 0.929 . S
C234 C229 1.390 . S
C234 C230 1.392 . S
C234 H251 0.930 . S
C235 O220 1.255 . S
C235 O221 1.257 . S
C236 Eu172 2.787 . S
C236 O216 1.252 . S
C236 O219 1.268 . S
C236 C229 1.506 . S
C237 C204 1.439 . S
C237 H214 0.931 . S
C237 C238 1.374 . S
C238 C209 1.387 . S
C238 H215 0.931 . S
C238 C237 1.374 . S
C239 O223 1.249 . S
C239 O224 1.264 . S
C240 C243 1.382 . S
C240 C244 1.390 . S
C240 C247 1.506 . S
C241 C242 1.398 . S
C241 C244 1.392 . S
C242 C241 1.398 . S
C242 C245 1.372 . S
C242 H252 0.931 . S
C243 C240 1.382 . S
C243 C245 1.390 . S
C243 H253 0.931 . S
C244 C240 1.390 . S
C244 C241 1.392 . S
C244 H254 0.930 . S
C245 C242 1.372 . S
C245 C243 1.390 . S
C245 H255 0.929 . S
C246 O226 1.255 . S
C246 O227 1.257 . S
C247 Eu183 2.787 . S
C247 O222 1.252 . S
C247 O225 1.268 . S
C247 C240 1.506 . S
H248 C231 0.931 . S
H249 C232 0.931 . S
H250 C233 0.929 . S
H251 C234 0.930 . S
H252 C242 0.931 . S
H253 C243 0.931 . S
H254 C244 0.930 . S
H255 C245 0.929 . S
Eu256 N285 2.600 . S
Eu256 N291 2.562 . S
Eu256 O300 2.462 . S
Eu256 O301 2.373 . S
Eu256 O303 2.432 . S
Eu256 O304 2.291 . S
Eu256 O308 2.335 1_455 S
Eu256 O311 2.372 . S
Eu256 C320 2.787 . S
C257 N258 1.365 . S
C257 C260 1.405 . S
C257 C264 1.448 . S
N258 C257 1.365 . S
N258 C261 1.319 . S
N258 Eu267 2.600 . S
C259 C261 1.397 . S
C259 C262 1.367 . S
C259 H279 0.931 . S
C260 C257 1.405 . S
C260 C262 1.403 . S
C260 C266 1.439 . S
C261 N258 1.319 . S
C261 C259 1.397 . S
C261 H272 0.930 . S
C262 C259 1.367 . S
C262 C260 1.403 . S
C262 H283 0.929 . S
C263 C264 1.430 . S
C263 C265 1.387 . S
C263 C269 1.404 . S
C264 C257 1.448 . S
C264 C263 1.430 . S
C264 N268 1.351 . S
C265 C263 1.387 . S
C265 C266 1.374 . S
C265 H280 0.931 . S
C266 C260 1.439 . S
C266 C265 1.374 . S
C266 H281 0.931 . S
Eu267 N258 2.600 . S
Eu267 N268 2.562 . S
Eu267 O302 2.335 1_655 S
Eu267 O305 2.372 . S
Eu267 O306 2.462 . S
Eu267 O307 2.373 . S
Eu267 O309 2.432 . S
Eu267 O310 2.291 1_655 S
Eu267 C331 2.787 . S
N268 C264 1.351 . S
N268 Eu267 2.562 . S
N268 C270 1.325 . S
C269 C263 1.404 . S
C269 C271 1.366 . S
C269 H277 0.930 . S
C270 N268 1.325 . S
C270 C271 1.416 . S
C270 H276 0.929 . S
C271 C269 1.366 . S
C271 C270 1.416 . S
C271 H273 0.930 . S
H272 C261 0.930 . S
H273 C271 0.930 . S
H274 C289 0.930 . S
H275 C296 0.930 . S
H276 C270 0.929 . S
H277 C269 0.930 . S
H278 C292 0.929 . S
H279 C259 0.931 . S
H280 C265 0.931 . S
H281 C266 0.931 . S
H282 C287 0.931 . S
H283 C262 0.929 . S
H284 C295 0.930 . S
N285 Eu256 2.600 . S
N285 C286 1.365 . S
N285 C289 1.319 . S
C286 N285 1.365 . S
C286 C288 1.405 . S
C286 C294 1.448 . S
C287 H282 0.931 . S
C287 C289 1.397 . S
C287 C290 1.367 . S
C288 C286 1.405 . S
C288 C290 1.403 . S
C288 C321 1.439 . S
C289 H274 0.930 . S
C289 N285 1.319 . S
C289 C287 1.397 . S
C290 C287 1.367 . S
C290 C288 1.403 . S
C290 H297 0.929 . S
N291 Eu256 2.562 . S
N291 C292 1.325 1_565 S
N291 C294 1.351 . S
C292 H278 0.929 . S
C292 N291 1.325 1_545 S
C292 C296 1.416 . S
C293 C294 1.430 1_545 S
C293 C295 1.404 . S
C293 C322 1.387 . S
C294 C286 1.448 . S
C294 N291 1.351 . S
C294 C293 1.430 1_565 S
C295 H284 0.930 . S
C295 C293 1.404 . S
C295 C296 1.366 . S
C296 H275 0.930 . S
C296 C292 1.416 . S
C296 C295 1.366 . S
H297 C290 0.929 . S
H298 C321 0.931 . S
H299 C322 0.931 . S
O300 Eu256 2.462 . S
O300 C320 1.252 . S
O301 Eu256 2.373 . S
O301 C312 1.249 . S
O302 Eu267 2.335 1_455 S
O302 C312 1.264 . S
O303 Eu256 2.432 . S
O303 C320 1.268 . S
O304 Eu256 2.291 . S
O304 C319 1.255 1_455 S
O305 Eu267 2.372 . S
O305 C319 1.257 . S
O306 Eu267 2.462 . S
O306 C331 1.252 . S
O307 Eu267 2.373 . S
O307 C323 1.249 . S
O308 Eu256 2.335 1_655 S
O308 C323 1.264 . S
O309 Eu267 2.432 . S
O309 C331 1.268 . S
O310 Eu267 2.291 1_455 S
O310 C330 1.255 . S
O311 Eu256 2.372 . S
O311 C330 1.257 . S
C312 O301 1.249 . S
C312 O302 1.264 . S
C313 C316 1.382 . S
C313 C318 1.390 . S
C313 C320 1.506 . S
C314 C315 1.398 . S
C314 C318 1.392 . S
C315 C314 1.398 . S
C315 C317 1.372 . S
C315 H332 0.931 . S
C316 C313 1.382 . S
C316 C317 1.390 . S
C316 H333 0.931 . S
C317 C315 1.372 . S
C317 C316 1.390 . S
C317 H334 0.929 . S
C318 C313 1.390 . S
C318 C314 1.392 . S
C318 H335 0.930 . S
C319 O304 1.255 1_655 S
C319 O305 1.257 . S
C320 Eu256 2.787 . S
C320 O300 1.252 . S
C320 O303 1.268 . S
C320 C313 1.506 . S
C321 C288 1.439 . S
C321 H298 0.931 . S
C321 C322 1.374 1_565 S
C322 C293 1.387 . S
C322 H299 0.931 . S
C322 C321 1.374 1_545 S
C323 O307 1.249 . S
C323 O308 1.264 . S
C324 C327 1.382 . S
C324 C328 1.390 . S
C324 C331 1.506 . S
C325 C326 1.398 . S
C325 C328 1.392 . S
C326 C325 1.398 . S
C326 C329 1.372 . S
C326 H336 0.931 . S
C327 C324 1.382 . S
C327 C329 1.390 . S
C327 H337 0.931 . S
C328 C324 1.390 . S
C328 C325 1.392 . S
C328 H338 0.930 . S
C329 C326 1.372 . S
C329 C327 1.390 . S
C329 H339 0.929 . S
C330 O310 1.255 . S
C330 O311 1.257 . S
C331 Eu267 2.787 . S
C331 O306 1.252 . S
C331 O309 1.268 . S
C331 C324 1.506 . S
H332 C315 0.931 . S
H333 C316 0.931 . S
H334 C317 0.929 . S
H335 C318 0.930 . S
H336 C326 0.931 . S
H337 C327 0.931 . S
H338 C328 0.930 . S
H339 C329 0.929 . S
Eu340 N369 2.600 . S
Eu340 N375 2.562 . S
Eu340 O384 2.462 . S
Eu340 O385 2.373 . S
Eu340 O387 2.432 . S
Eu340 O388 2.291 . S
Eu340 O392 2.335 . S
Eu340 O395 2.372 . S
Eu340 C404 2.787 . S
C341 N342 1.365 . S
C341 C344 1.405 . S
C341 C348 1.448 . S
N342 C341 1.365 . S
N342 C345 1.319 . S
N342 Eu351 2.600 . S
C343 C345 1.397 . S
C343 C346 1.367 . S
C343 H363 0.931 . S
C344 C341 1.405 . S
C344 C346 1.403 . S
C344 C350 1.439 . S
C345 N342 1.319 . S
C345 C343 1.397 . S
C345 H356 0.930 . S
C346 C343 1.367 . S
C346 C344 1.403 . S
C346 H367 0.929 . S
C347 C348 1.430 . S
C347 C349 1.387 . S
C347 C353 1.404 . S
C348 C341 1.448 . S
C348 C347 1.430 . S
C348 N352 1.351 . S
C349 C347 1.387 . S
C349 C350 1.374 . S
C349 H364 0.931 . S
C350 C344 1.439 . S
C350 C349 1.374 . S
C350 H365 0.931 . S
Eu351 N342 2.600 . S
Eu351 N352 2.562 . S
Eu351 O386 2.335 . S
Eu351 O389 2.372 . S
Eu351 O390 2.462 . S
Eu351 O391 2.373 . S
Eu351 O393 2.432 . S
Eu351 O394 2.291 . S
Eu351 C415 2.787 . S
N352 C348 1.351 . S
N352 Eu351 2.562 . S
N352 C354 1.325 . S
C353 C347 1.404 . S
C353 C355 1.366 . S
C353 H361 0.930 . S
C354 N352 1.325 . S
C354 C355 1.416 . S
C354 H360 0.929 . S
C355 C353 1.366 . S
C355 C354 1.416 . S
C355 H357 0.930 . S
H356 C345 0.930 . S
H357 C355 0.930 . S
H358 C373 0.930 . S
H359 C380 0.930 . S
H360 C354 0.929 . S
H361 C353 0.930 . S
H362 C376 0.929 . S
H363 C343 0.931 . S
H364 C349 0.931 . S
H365 C350 0.931 . S
H366 C371 0.931 . S
H367 C346 0.929 . S
H368 C379 0.930 . S
N369 Eu340 2.600 . S
N369 C370 1.365 . S
N369 C373 1.319 . S
C370 N369 1.365 . S
C370 C372 1.405 . S
C370 C378 1.448 . S
C371 H366 0.931 . S
C371 C373 1.397 . S
C371 C374 1.367 . S
C372 C370 1.405 . S
C372 C374 1.403 . S
C372 C405 1.439 . S
C373 H358 0.930 . S
C373 N369 1.319 . S
C373 C371 1.397 . S
C374 C371 1.367 . S
C374 C372 1.403 . S
C374 H381 0.929 . S
N375 Eu340 2.562 . S
N375 C376 1.325 . S
N375 C378 1.351 . S
C376 H362 0.929 . S
C376 N375 1.325 . S
C376 C380 1.416 . S
C377 C378 1.430 . S
C377 C379 1.404 . S
C377 C406 1.387 . S
C378 C370 1.448 . S
C378 N375 1.351 . S
C378 C377 1.430 . S
C379 H368 0.930 . S
C379 C377 1.404 . S
C379 C380 1.366 . S
C380 H359 0.930 . S
C380 C376 1.416 . S
C380 C379 1.366 . S
H381 C374 0.929 . S
H382 C405 0.931 . S
H383 C406 0.931 . S
O384 Eu340 2.462 . S
O384 C404 1.252 . S
O385 Eu340 2.373 . S
O385 C396 1.249 . S
O386 Eu351 2.335 . S
O386 C396 1.264 . S
O387 Eu340 2.432 . S
O387 C404 1.268 . S
O388 Eu340 2.291 . S
O388 C403 1.255 . S
O389 Eu351 2.372 . S
O389 C403 1.257 . S
O390 Eu351 2.462 . S
O390 C415 1.252 . S
O391 Eu351 2.373 . S
O391 C407 1.249 . S
O392 Eu340 2.335 . S
O392 C407 1.264 . S
O393 Eu351 2.432 . S
O393 C415 1.268 . S
O394 Eu351 2.291 . S
O394 C414 1.255 . S
O395 Eu340 2.372 . S
O395 C414 1.257 . S
C396 O385 1.249 . S
C396 O386 1.264 . S
C397 C400 1.382 . S
C397 C402 1.390 . S
C397 C404 1.506 . S
C398 C399 1.398 . S
C398 C402 1.392 . S
C399 C398 1.398 . S
C399 C401 1.372 . S
C399 H416 0.931 . S
C400 C397 1.382 . S
C400 C401 1.390 . S
C400 H417 0.931 . S
C401 C399 1.372 . S
C401 C400 1.390 . S
C401 H418 0.929 . S
C402 C397 1.390 . S
C402 C398 1.392 . S
C402 H419 0.930 . S
C403 O388 1.255 . S
C403 O389 1.257 . S
C404 Eu340 2.787 . S
C404 O384 1.252 . S
C404 O387 1.268 . S
C404 C397 1.506 . S
C405 C372 1.439 . S
C405 H382 0.931 . S
C405 C406 1.374 . S
C406 C377 1.387 . S
C406 H383 0.931 . S
C406 C405 1.374 . S
C407 O391 1.249 . S
C407 O392 1.264 . S
C408 C411 1.382 . S
C408 C412 1.390 . S
C408 C415 1.506 . S
C409 C410 1.398 . S
C409 C412 1.392 . S
C410 C409 1.398 . S
C410 C413 1.372 . S
C410 H420 0.931 . S
C411 C408 1.382 . S
C411 C413 1.390 . S
C411 H421 0.931 . S
C412 C408 1.390 . S
C412 C409 1.392 . S
C412 H422 0.930 . S
C413 C410 1.372 . S
C413 C411 1.390 . S
C413 H423 0.929 . S
C414 O394 1.255 . S
C414 O395 1.257 . S
C415 Eu351 2.787 . S
C415 O390 1.252 . S
C415 O393 1.268 . S
C415 C408 1.506 . S
H416 C399 0.931 . S
H417 C400 0.931 . S
H418 C401 0.929 . S
H419 C402 0.930 . S
H420 C410 0.931 . S
H421 C411 0.931 . S
H422 C412 0.930 . S
H423 C413 0.929 . S
C424 C425 1.369 . S
C424 C426 1.419 . S
C424 H428 0.930 . S
C425 C424 1.369 . S
C425 C434 1.429 . S
C426 C424 1.419 . S
C426 C427 1.376 . S
C426 H429 0.929 . S
C427 C426 1.376 . S
C427 C433 1.434 . S
H428 C424 0.930 . S
H429 C426 0.929 . S
S430 N431 1.613 . S
S430 N432 1.610 1_565 S
N431 S430 1.613 . S
N431 C434 1.350 . S
N432 S430 1.610 1_545 S
N432 C433 1.351 1_545 S
C433 C427 1.434 . S
C433 N432 1.351 1_565 S
C433 C434 1.434 . S
C434 C425 1.429 . S
C434 N431 1.350 . S
C434 C433 1.434 . S
C435 C436 1.369 . S
C435 C437 1.419 . S
C435 H439 0.930 . S
C436 C435 1.369 . S
C436 C445 1.429 . S
C437 C435 1.419 . S
C437 C438 1.363 . S
C437 H440 0.929 . S
C438 C437 1.363 . S
C438 C444 1.428 . S
H439 C435 0.930 . S
H440 C437 0.929 . S
S441 N442 1.613 . S
S441 N443 1.610 . S
N442 S441 1.613 . S
N442 C445 1.350 . S
N443 S441 1.610 . S
N443 C444 1.351 . S
C444 C438 1.428 . S
C444 N443 1.351 . S
C444 C445 1.434 . S
C445 C436 1.429 . S
C445 N442 1.350 . S
C445 C444 1.434 . S
C446 C447 1.369 . S
C446 C448 1.419 . S
C446 H450 0.930 . S
C447 C446 1.369 . S
C447 C456 1.429 . S
C448 C446 1.419 . S
C448 C449 1.363 . S
C448 H451 0.929 . S
C449 C448 1.363 . S
C449 C455 1.428 . S
H450 C446 0.930 . S
H451 C448 0.929 . S
S452 N453 1.613 . S
S452 N454 1.610 . S
N453 S452 1.613 . S
N453 C456 1.350 . S
N454 S452 1.610 . S
N454 C455 1.351 . S
C455 C449 1.428 . S
C455 N454 1.351 . S
C455 C456 1.434 . S
C456 C447 1.429 . S
C456 N453 1.350 . S
C456 C455 1.434 . S
C457 C458 1.369 . S
C457 C459 1.419 . S
C457 H461 0.930 . S
C458 C457 1.369 . S
C458 C467 1.429 . S
C459 C457 1.419 . S
C459 C460 1.363 1_565 S
C459 H462 0.929 . S
C460 C459 1.363 1_545 S
C460 C466 1.428 . S
H461 C457 0.930 . S
H462 C459 0.929 . S
S463 N464 1.613 . S
S463 N465 1.610 . S
N464 S463 1.613 . S
N464 C467 1.350 1_545 S
N465 S463 1.610 . S
N465 C466 1.351 . S
C466 C460 1.428 . S
C466 N465 1.351 . S
C466 C467 1.434 1_545 S
C467 C458 1.429 . S
C467 N464 1.350 1_565 S
C467 C466 1.434 1_565 S
C468 C469 1.369 . S
C468 C470 1.419 . S
C468 H472 0.930 . S
C469 C468 1.369 . S
C469 C478 1.429 . S
C470 C468 1.419 . S
C470 C471 1.363 1_545 S
C470 H473 0.929 1_545 S
C471 C470 1.363 1_565 S
C471 C477 1.428 1_565 S
H472 C468 0.930 . S
H473 C470 0.929 1_565 S
S474 N475 1.613 . S
S474 N476 1.610 . S
N475 S474 1.613 . S
N475 C478 1.350 . S
N476 S474 1.610 . S
N476 C477 1.351 . S
C477 C471 1.428 1_545 S
C477 N476 1.351 . S
C477 C478 1.434 . S
C478 C469 1.429 . S
C478 N475 1.350 . S
C478 C477 1.434 . S
C479 C480 1.369 . S
C479 C481 1.419 . S
C479 H483 0.930 . S
C480 C479 1.369 . S
C480 C489 1.429 . S
C481 C479 1.419 . S
C481 C482 1.363 . S
C481 H484 0.929 . S
C482 C481 1.363 . S
C482 C488 1.428 . S
H483 C479 0.930 . S
H484 C481 0.929 . S
S485 N486 1.613 . S
S485 N487 1.610 . S
N486 S485 1.613 . S
N486 C489 1.350 . S
N487 S485 1.610 . S
N487 C488 1.351 . S
C488 C482 1.428 . S
C488 N487 1.351 . S
C488 C489 1.434 . S
C489 C480 1.429 . S
C489 N486 1.350 . S
C489 C488 1.434 . S
C490 C491 1.369 . S
C490 C492 1.419 . S
C490 H494 0.930 . S
C491 C490 1.369 . S
C491 C500 1.429 . S
C492 C490 1.419 . S
C492 C493 1.363 . S
C492 H495 0.929 . S
C493 C492 1.363 . S
C493 C499 1.428 . S
H494 C490 0.930 . S
H495 C492 0.929 . S
S496 N497 1.613 . S
S496 N498 1.610 . S
N497 S496 1.613 . S
N497 C500 1.350 . S
N498 S496 1.610 . S
N498 C499 1.351 . S
C499 C493 1.428 . S
C499 N498 1.351 . S
C499 C500 1.434 . S
C500 C491 1.429 . S
C500 N497 1.350 . S
C500 C499 1.434 . S
C501 C502 1.369 . S
C501 C503 1.419 . S
C501 H505 0.930 . S
C502 C501 1.369 . S
C502 C511 1.429 . S
C503 C501 1.419 . S
C503 C504 1.363 1_545 S
C503 H506 0.929 . S
C504 C503 1.363 1_565 S
C504 C510 1.428 . S
H505 C501 0.930 . S
H506 C503 0.929 . S
S507 N508 1.613 . S
S507 N509 1.610 . S
N508 S507 1.613 . S
N508 C511 1.350 1_565 S
N509 S507 1.610 . S
N509 C510 1.351 . S
C510 C504 1.428 . S
C510 N509 1.351 . S
C510 C511 1.434 1_565 S
C511 C502 1.429 . S
C511 N508 1.350 1_545 S
C511 C510 1.434 1_545 S
C512 C513 1.369 . S
C512 C514 1.419 1_556 S
C512 H516 0.930 . S
C513 C512 1.369 . S
C513 C522 1.429 . S
C514 C512 1.419 1_554 S
C514 C515 1.363 . S
C514 H517 0.929 . S
C515 C514 1.363 . S
C515 C521 1.428 . S
H516 C512 0.930 . S
H517 C514 0.929 . S
S518 N519 1.613 . S
S518 N520 1.610 1_556 S
N519 S518 1.613 . S
N519 C522 1.350 . S
N520 S518 1.610 1_554 S
N520 C521 1.351 . S
C521 C515 1.428 . S
C521 N520 1.351 . S
C521 C522 1.434 1_554 S
C522 C513 1.429 . S
C522 N519 1.350 . S
C522 C521 1.434 1_556 S
C523 C524 1.369 . S
C523 C525 1.419 . S
C523 H527 0.930 . S
C524 C523 1.369 . S
C524 C533 1.429 . S
C525 C523 1.419 . S
C525 C526 1.363 . S
C525 H528 0.929 . S
C526 C525 1.363 . S
C526 C532 1.428 . S
H527 C523 0.930 . S
H528 C525 0.929 . S
S529 N530 1.613 . S
S529 N531 1.610 . S
N530 S529 1.613 . S
N530 C533 1.350 . S
N531 S529 1.610 . S
N531 C532 1.351 . S
C532 C526 1.428 . S
C532 N531 1.351 . S
C532 C533 1.434 . S
C533 C524 1.429 . S
C533 N530 1.350 . S
C533 C532 1.434 . S
C534 C535 1.369 . S
C534 C536 1.419 1_554 S
C534 H538 0.930 . S
C535 C534 1.369 . S
C535 C544 1.429 . S
C536 C534 1.419 1_556 S
C536 C537 1.363 . S
C536 H539 0.929 . S
C537 C536 1.363 . S
C537 C543 1.428 . S
H538 C534 0.930 . S
H539 C536 0.929 . S
S540 N541 1.613 1_556 S
S540 N542 1.610 . S
N541 S540 1.613 1_554 S
N541 C544 1.350 . S
N542 S540 1.610 . S
N542 C543 1.351 . S
C543 C537 1.428 . S
C543 N542 1.351 . S
C543 C544 1.434 1_556 S
C544 C535 1.429 . S
C544 N541 1.350 . S
C544 C543 1.434 1_554 S
C545 C546 1.369 . S
C545 C547 1.419 . S
C545 H549 0.930 . S
C546 C545 1.369 . S
C546 C555 1.429 . S
C547 C545 1.419 . S
C547 C548 1.363 . S
C547 H550 0.929 . S
C548 C547 1.363 . S
C548 C554 1.428 . S
H549 C545 0.930 . S
H550 C547 0.929 . S
S551 N552 1.613 . S
S551 N553 1.610 . S
N552 S551 1.613 . S
N552 C555 1.350 . S
N553 S551 1.610 . S
N553 C554 1.351 . S
C554 C548 1.428 . S
C554 N553 1.351 . S
C554 C555 1.434 . S
C555 C546 1.429 . S
C555 N552 1.350 . S
C555 C554 1.434 . S
C556 C557 1.369 . S
C556 C558 1.419 1_554 S
C556 H560 0.930 . S
C557 C556 1.369 . S
C557 C566 1.429 . S
C558 C556 1.419 1_556 S
C558 C559 1.363 . S
C558 H561 0.929 . S
C559 C558 1.363 . S
C559 C565 1.428 . S
H560 C556 0.930 . S
H561 C558 0.929 . S
S562 N563 1.613 1_556 S
S562 N564 1.610 . S
N563 S562 1.613 1_554 S
N563 C566 1.350 . S
N564 S562 1.610 . S
N564 C565 1.351 . S
C565 C559 1.428 . S
C565 N564 1.351 . S
C565 C566 1.434 1_556 S
C566 C557 1.429 . S
C566 N563 1.350 . S
C566 C565 1.434 1_554 S
C567 C568 1.369 . S
C567 C569 1.419 . S
C567 H571 0.930 . S
C568 C567 1.369 . S
C568 C577 1.429 . S
C569 C567 1.419 . S
C569 C570 1.363 . S
C569 H572 0.929 . S
C570 C569 1.363 . S
C570 C576 1.428 . S
H571 C567 0.930 . S
H572 C569 0.929 . S
S573 N574 1.613 . S
S573 N575 1.610 . S
N574 S573 1.613 . S
N574 C577 1.350 . S
N575 S573 1.610 . S
N575 C576 1.351 . S
C576 C570 1.428 . S
C576 N575 1.351 . S
C576 C577 1.434 . S
C577 C568 1.429 . S
C577 N574 1.350 . S
C577 C576 1.434 . S
C578 C579 1.369 . S
C578 C580 1.404 1_556 S
C578 H582 0.930 . S
C579 C578 1.369 . S
C579 C588 1.429 . S
C580 C578 1.404 1_554 S
C580 C581 1.375 . S
C580 H583 0.932 . S
C581 C580 1.375 . S
C581 C587 1.428 . S
H582 C578 0.930 . S
H583 C580 0.932 . S
S584 N585 1.613 1_554 S
S584 N586 1.610 . S
N585 S584 1.613 1_556 S
N585 C588 1.350 . S
N586 S584 1.610 . S
N586 C587 1.351 . S
C587 C581 1.428 . S
C587 N586 1.351 . S
C587 C588 1.434 1_554 S
C588 C579 1.429 . S
C588 N585 1.350 . S
C588 C587 1.434 1_556 S
C589 C590 1.369 . S
C589 C591 1.419 . S
C589 H593 0.930 . S
C590 C589 1.369 . S
C590 C599 1.429 . S
C591 C589 1.419 . S
C591 C592 1.363 . S
C591 H594 0.929 . S
C592 C591 1.363 . S
C592 C598 1.428 . S
H593 C589 0.930 . S
H594 C591 0.929 . S
S595 N596 1.601 1_655 S
S595 N597 1.606 1_655 S
N596 S595 1.601 1_455 S
N596 C599 1.350 . S
N597 S595 1.606 1_455 S
N597 C598 1.351 . S
C598 C592 1.428 . S
C598 N597 1.351 . S
C598 C599 1.434 . S
C599 C590 1.429 . S
C599 N596 1.350 . S
C599 C598 1.434 . S
C600 C601 1.369 . S
C600 C602 1.419 . S
C600 H604 0.930 . S
C601 C600 1.369 . S
C601 C610 1.429 . S
C602 C600 1.419 . S
C602 C603 1.363 . S
C602 H605 0.929 . S
C603 C602 1.363 . S
C603 C609 1.428 . S
H604 C600 0.930 . S
H605 C602 0.929 . S
S606 N607 1.613 . S
S606 N608 1.610 . S
N607 S606 1.613 . S
N607 C610 1.350 . S
N608 S606 1.610 . S
N608 C609 1.351 . S
C609 C603 1.428 . S
C609 N608 1.351 . S
C609 C610 1.434 . S
C610 C601 1.429 . S
C610 N607 1.350 . S
C610 C609 1.434 . S
C611 C612 1.369 . S
C611 C613 1.419 . S
C611 H615 0.930 . S
C612 C611 1.369 . S
C612 C621 1.429 . S
C613 C611 1.419 . S
C613 C614 1.363 . S
C613 H616 0.929 . S
C614 C613 1.363 . S
C614 C620 1.428 . S
H615 C611 0.930 . S
H616 C613 0.929 . S
S617 N618 1.613 . S
S617 N619 1.610 . S
N618 S617 1.613 . S
N618 C621 1.350 . S
N619 S617 1.610 . S
N619 C620 1.351 . S
C620 C614 1.428 . S
C620 N619 1.351 . S
C620 C621 1.434 . S
C621 C612 1.429 . S
C621 N618 1.350 . S
C621 C620 1.434 . S
C622 C623 1.369 . S
C622 C624 1.419 . S
C622 H626 0.930 . S
C623 C622 1.369 . S
C623 C632 1.429 . S
C624 C622 1.419 . S
C624 C625 1.363 . S
C624 H627 0.929 . S
C625 C624 1.363 . S
C625 C631 1.428 . S
H626 C622 0.930 . S
H627 C624 0.929 . S
S628 N629 1.613 . S
S628 N630 1.610 . S
N629 S628 1.613 . S
N629 C632 1.350 . S
N630 S628 1.610 . S
N630 C631 1.351 . S
C631 C625 1.428 . S
C631 N630 1.351 . S
C631 C632 1.434 . S
C632 C623 1.429 . S
C632 N629 1.350 . S
C632 C631 1.434 . S
C633 C634 1.369 . S
C633 C635 1.419 . S
C633 H637 0.930 . S
C634 C633 1.369 . S
C634 C643 1.429 . S
C635 C633 1.419 . S
C635 C636 1.363 . S
C635 H638 0.929 . S
C636 C635 1.363 . S
C636 C642 1.428 . S
H637 C633 0.930 . S
H638 C635 0.929 . S
S639 N640 1.613 . S
S639 N641 1.610 . S
N640 S639 1.613 . S
N640 C643 1.350 . S
N641 S639 1.610 . S
N641 C642 1.351 . S
C642 C636 1.428 . S
C642 N641 1.351 . S
C642 C643 1.434 . S
C643 C634 1.429 . S
C643 N640 1.350 . S
C643 C642 1.434 . S
C644 C645 1.369 . S
C644 C646 1.419 . S
C644 H648 0.930 . S
C645 C644 1.369 . S
C645 C654 1.429 . S
C646 C644 1.419 . S
C646 C647 1.363 . S
C646 H649 0.929 . S
C647 C646 1.363 . S
C647 C653 1.428 . S
H648 C644 0.930 . S
H649 C646 0.929 . S
S650 N651 1.613 . S
S650 N652 1.610 . S
N651 S650 1.613 . S
N651 C654 1.350 . S
N652 S650 1.610 . S
N652 C653 1.351 . S
C653 C647 1.428 . S
C653 N652 1.351 . S
C653 C654 1.434 . S
C654 C645 1.429 . S
C654 N651 1.350 . S
C654 C653 1.434 . S
C655 C656 1.369 . S
C655 C657 1.419 . S
C655 H659 0.930 . S
C656 C655 1.369 . S
C656 C665 1.429 . S
C657 C655 1.419 . S
C657 C658 1.363 . S
C657 H660 0.929 . S
C658 C657 1.363 . S
C658 C664 1.428 . S
H659 C655 0.930 . S
H660 C657 0.929 . S
S661 N662 1.613 . S
S661 N663 1.610 . S
N662 S661 1.613 . S
N662 C665 1.350 . S
N663 S661 1.610 . S
N663 C664 1.351 . S
C664 C658 1.428 . S
C664 N663 1.351 . S
C664 C665 1.434 . S
C665 C656 1.429 . S
C665 N662 1.350 . S
C665 C664 1.434 . S
C666 C667 1.369 . S
C666 C668 1.419 . S
C666 H670 0.930 . S
C667 C666 1.369 . S
C667 C676 1.429 . S
C668 C666 1.419 . S
C668 C669 1.363 . S
C668 H671 0.929 . S
C669 C668 1.363 . S
C669 C675 1.428 . S
H670 C666 0.930 . S
H671 C668 0.929 . S
S672 N673 1.613 . S
S672 N674 1.610 . S
N673 S672 1.613 . S
N673 C676 1.350 . S
N674 S672 1.610 . S
N674 C675 1.351 . S
C675 C669 1.428 . S
C675 N674 1.351 . S
C675 C676 1.434 . S
C676 C667 1.429 . S
C676 N673 1.350 . S
C676 C675 1.434 . S
C677 C678 1.369 . S
C677 C679 1.419 . S
C677 H681 0.930 . S
C678 C677 1.369 . S
C678 C687 1.429 . S
C679 C677 1.419 . S
C679 C680 1.363 . S
C679 H682 0.929 . S
C680 C679 1.363 . S
C680 C686 1.428 . S
H681 C677 0.930 . S
H682 C679 0.929 . S
S683 N684 1.613 . S
S683 N685 1.610 . S
N684 S683 1.613 . S
N684 C687 1.350 . S
N685 S683 1.610 . S
N685 C686 1.351 . S
C686 C680 1.428 . S
C686 N685 1.351 . S
C686 C687 1.434 . S
C687 C678 1.429 . S
C687 N684 1.350 . S
C687 C686 1.434 . S
C425 C71 1.656 . S
C427 C162 1.631 1_565 S
C438 C246 1.636 . S
C436 C81 1.637 . S
C449 C239 1.649 . S
C447 C49 1.652 . S
C458 C59 1.636 . S
C460 C155 1.627 . S
C471 C319 1.649 . S
C469 C27 1.658 . S
C482 C403 1.680 . S
C480 C38 1.689 . S
C491 C5 1.653 . S
C493 C396 1.648 . S
C502 C16 1.686 . S
C504 C312 1.684 . S
C515 C146 1.398 . S
C513 C15 1.552 . S
C526 C230 1.418 . S
C524 C4 1.572 . S
C537 C241 1.334 . S
C535 C37 1.557 . S
C548 C157 1.350 . S
C546 C26 1.572 . S
C559 C325 1.463 . S
C557 C60 1.602 . S
C568 C48 1.625 . S
C570 C409 1.459 . S
C581 C398 1.374 . S
C579 C82 1.604 . S
C590 C70 1.622 . S
C592 C314 1.393 . S
C603 C144 1.491 . S
C601 C10 1.483 . S
C614 C228 1.528 . S
C612 C21 1.520 . S
C623 C32 1.478 . S
C625 C235 1.460 . S
C636 C151 1.492 . S
C634 C43 1.512 . S
C647 C323 1.565 . S
C645 C54 1.547 . S
C656 C65 1.527 . S
C658 C407 1.529 . S
C667 C76 1.546 . S
C669 C414 1.542 . S
C678 C87 1.523 . S
C680 C330 1.507 . S
