# Generated by pormake.
# Topology eea, (3,6)-cn, num edge types: 1
# Building blocks:
#     Node 0, Type 0, BuildingBlock: BETDIP_clean_linker_0, # of connection points: 3
#     Node 1, Type 0, BuildingBlock: BETDIP_clean_linker_0, # of connection points: 3
#     Node 2, Type 0, BuildingBlock: BETDIP_clean_linker_0, # of connection points: 3
#     Node 3, Type 0, BuildingBlock: BETDIP_clean_linker_0, # of connection points: 3
#     Node 4, Type 0, BuildingBlock: BETDIP_clean_linker_0, # of connection points: 3
#     Node 5, Type 0, BuildingBlock: BETDIP_clean_linker_0, # of connection points: 3
#     Node 6, Type 0, BuildingBlock: BETDIP_clean_linker_0, # of connection points: 3
#     Node 7, Type 0, BuildingBlock: BETDIP_clean_linker_0, # of connection points: 3
#     Node 8, Type 0, BuildingBlock: BETDIP_clean_linker_0, # of connection points: 3
#     Node 9, Type 0, BuildingBlock: BETDIP_clean_linker_0, # of connection points: 3
#     Node 10, Type 0, BuildingBlock: BETDIP_clean_linker_0, # of connection points: 3
#     Node 11, Type 0, BuildingBlock: BETDIP_clean_linker_0, # of connection points: 3
#     Node 12, Type 0, BuildingBlock: BETDIP_clean_linker_0, # of connection points: 3
#     Node 13, Type 0, BuildingBlock: BETDIP_clean_linker_0, # of connection points: 3
#     Node 14, Type 0, BuildingBlock: BETDIP_clean_linker_0, # of connection points: 3
#     Node 15, Type 0, BuildingBlock: BETDIP_clean_linker_0, # of connection points: 3
#     Node 16, Type 0, BuildingBlock: BETDIP_clean_linker_0, # of connection points: 3
#     Node 17, Type 0, BuildingBlock: BETDIP_clean_linker_0, # of connection points: 3
#     Node 18, Type 1, BuildingBlock: KUMJIN_clean_sbu_0, # of connection points: 6
#     Node 19, Type 1, BuildingBlock: KUMJIN_clean_sbu_0, # of connection points: 6
#     Node 20, Type 1, BuildingBlock: KUMJIN_clean_sbu_0, # of connection points: 6
#     Node 21, Type 1, BuildingBlock: KUMJIN_clean_sbu_0, # of connection points: 6
#     Node 22, Type 1, BuildingBlock: KUMJIN_clean_sbu_0, # of connection points: 6
#     Node 23, Type 1, BuildingBlock: KUMJIN_clean_sbu_0, # of connection points: 6
#     Node 24, Type 1, BuildingBlock: KUMJIN_clean_sbu_0, # of connection points: 6
#     Node 25, Type 1, BuildingBlock: KUMJIN_clean_sbu_0, # of connection points: 6
#     Node 26, Type 1, BuildingBlock: KUMJIN_clean_sbu_0, # of connection points: 6
#     Edge 27, Type (0, 1), BuildingBlock: UVAHIK_clean_linker_0, # of connection points: 2
#     Edge 28, Type (0, 1), BuildingBlock: UVAHIK_clean_linker_0, # of connection points: 2
#     Edge 29, Type (0, 1), BuildingBlock: UVAHIK_clean_linker_0, # of connection points: 2
#     Edge 30, Type (0, 1), BuildingBlock: UVAHIK_clean_linker_0, # of connection points: 2
#     Edge 31, Type (0, 1), BuildingBlock: UVAHIK_clean_linker_0, # of connection points: 2
#     Edge 32, Type (0, 1), BuildingBlock: UVAHIK_clean_linker_0, # of connection points: 2
#     Edge 33, Type (0, 1), BuildingBlock: UVAHIK_clean_linker_0, # of connection points: 2
#     Edge 34, Type (0, 1), BuildingBlock: UVAHIK_clean_linker_0, # of connection points: 2
#     Edge 35, Type (0, 1), BuildingBlock: UVAHIK_clean_linker_0, # of connection points: 2
#     Edge 36, Type (0, 1), BuildingBlock: UVAHIK_clean_linker_0, # of connection points: 2
#     Edge 37, Type (0, 1), BuildingBlock: UVAHIK_clean_linker_0, # of connection points: 2
#     Edge 38, Type (0, 1), BuildingBlock: UVAHIK_clean_linker_0, # of connection points: 2
#     Edge 39, Type (0, 1), BuildingBlock: UVAHIK_clean_linker_0, # of connection points: 2
#     Edge 40, Type (0, 1), BuildingBlock: UVAHIK_clean_linker_0, # of connection points: 2
#     Edge 41, Type (0, 1), BuildingBlock: UVAHIK_clean_linker_0, # of connection points: 2
#     Edge 42, Type (0, 1), BuildingBlock: UVAHIK_clean_linker_0, # of connection points: 2
#     Edge 43, Type (0, 1), BuildingBlock: UVAHIK_clean_linker_0, # of connection points: 2
#     Edge 44, Type (0, 1), BuildingBlock: UVAHIK_clean_linker_0, # of connection points: 2
#     Edge 45, Type (0, 1), BuildingBlock: UVAHIK_clean_linker_0, # of connection points: 2
#     Edge 46, Type (0, 1), BuildingBlock: UVAHIK_clean_linker_0, # of connection points: 2
#     Edge 47, Type (0, 1), BuildingBlock: UVAHIK_clean_linker_0, # of connection points: 2
#     Edge 48, Type (0, 1), BuildingBlock: UVAHIK_clean_linker_0, # of connection points: 2
#     Edge 49, Type (0, 1), BuildingBlock: UVAHIK_clean_linker_0, # of connection points: 2
#     Edge 50, Type (0, 1), BuildingBlock: UVAHIK_clean_linker_0, # of connection points: 2
#     Edge 51, Type (0, 1), BuildingBlock: UVAHIK_clean_linker_0, # of connection points: 2
#     Edge 52, Type (0, 1), BuildingBlock: UVAHIK_clean_linker_0, # of connection points: 2
#     Edge 53, Type (0, 1), BuildingBlock: UVAHIK_clean_linker_0, # of connection points: 2
#     Edge 54, Type (0, 1), BuildingBlock: UVAHIK_clean_linker_0, # of connection points: 2
#     Edge 55, Type (0, 1), BuildingBlock: UVAHIK_clean_linker_0, # of connection points: 2
#     Edge 56, Type (0, 1), BuildingBlock: UVAHIK_clean_linker_0, # of connection points: 2
#     Edge 57, Type (0, 1), BuildingBlock: UVAHIK_clean_linker_0, # of connection points: 2
#     Edge 58, Type (0, 1), BuildingBlock: UVAHIK_clean_linker_0, # of connection points: 2
#     Edge 59, Type (0, 1), BuildingBlock: UVAHIK_clean_linker_0, # of connection points: 2
#     Edge 60, Type (0, 1), BuildingBlock: UVAHIK_clean_linker_0, # of connection points: 2
#     Edge 61, Type (0, 1), BuildingBlock: UVAHIK_clean_linker_0, # of connection points: 2
#     Edge 62, Type (0, 1), BuildingBlock: UVAHIK_clean_linker_0, # of connection points: 2
#     Edge 63, Type (0, 1), BuildingBlock: UVAHIK_clean_linker_0, # of connection points: 2
#     Edge 64, Type (0, 1), BuildingBlock: UVAHIK_clean_linker_0, # of connection points: 2
#     Edge 65, Type (0, 1), BuildingBlock: UVAHIK_clean_linker_0, # of connection points: 2
#     Edge 66, Type (0, 1), BuildingBlock: UVAHIK_clean_linker_0, # of connection points: 2
#     Edge 67, Type (0, 1), BuildingBlock: UVAHIK_clean_linker_0, # of connection points: 2
#     Edge 68, Type (0, 1), BuildingBlock: UVAHIK_clean_linker_0, # of connection points: 2
#     Edge 69, Type (0, 1), BuildingBlock: UVAHIK_clean_linker_0, # of connection points: 2
#     Edge 70, Type (0, 1), BuildingBlock: UVAHIK_clean_linker_0, # of connection points: 2
#     Edge 71, Type (0, 1), BuildingBlock: UVAHIK_clean_linker_0, # of connection points: 2
#     Edge 72, Type (0, 1), BuildingBlock: UVAHIK_clean_linker_0, # of connection points: 2
#     Edge 73, Type (0, 1), BuildingBlock: UVAHIK_clean_linker_0, # of connection points: 2
#     Edge 74, Type (0, 1), BuildingBlock: UVAHIK_clean_linker_0, # of connection points: 2
#     Edge 75, Type (0, 1), BuildingBlock: UVAHIK_clean_linker_0, # of connection points: 2
#     Edge 76, Type (0, 1), BuildingBlock: UVAHIK_clean_linker_0, # of connection points: 2
#     Edge 77, Type (0, 1), BuildingBlock: UVAHIK_clean_linker_0, # of connection points: 2
#     Edge 78, Type (0, 1), BuildingBlock: UVAHIK_clean_linker_0, # of connection points: 2
#     Edge 79, Type (0, 1), BuildingBlock: UVAHIK_clean_linker_0, # of connection points: 2
#     Edge 80, Type (0, 1), BuildingBlock: UVAHIK_clean_linker_0, # of connection points: 2
# Relax obj value: 0.025
# Max RMSD: 0.155
# Mean RMSD: 0.114
data_MOF--net-eea--node1-KUMJIN_clean_sbu_0--node2-BETDIP_clean_linker_0--edge1-UVAHIK_clean_linker_0
_symmetry_space_group_name_H-M    P1
_symmetry_Int_Tables_number       1
_symmetry_cell_setting            triclinic
loop_
_symmetry_equiv_pos_as_xyz
'x, y, z'
_cell_length_a     70.920209
_cell_length_b     72.475688
_cell_length_c     82.689986
_cell_angle_alpha  90.079763
_cell_angle_beta   90.239613
_cell_angle_gamma 119.88485
loop_
_atom_site_label
_atom_site_type_symbol
_atom_site_fract_x
_atom_site_fract_y
_atom_site_fract_z
_atom_type_partial_charge
H0 H 0.23924 0.11221 0.3865 0.0
H1 H 0.26872 0.15505 0.42677 0.0
H2 H 0.25923 0.09181 0.42877 0.0
H3 H 0.274 0.17997 0.40923 0.0
C4 C 0.26112 0.17288 0.40024 0.0
C5 C 0.2466 0.1155 0.39845 0.0
C6 C 0.2484 0.09962 0.40682 0.0
C7 C 0.25395 0.13558 0.40542 0.0
C8 C 0.26319 0.13976 0.42107 0.0
C9 C 0.26539 0.12411 0.42951 0.0
C10 C 0.25779 0.10406 0.42231 0.0
N11 N 0.25112 0.15082 0.39652 0.0
H12 H 0.92345 0.12001 0.39364 0.0
H13 H 0.87804 0.10096 0.43285 0.0
H14 H 0.93141 0.16471 0.43133 0.0
H15 H 0.87303 0.06903 0.42717 0.0
C16 C 0.87311 0.06875 0.41404 0.0
C17 C 0.91811 0.12391 0.40473 0.0
C18 C 0.92991 0.14457 0.41141 0.0
C19 C 0.89965 0.10791 0.41251 0.0
C20 C 0.89277 0.11276 0.42703 0.0
C21 C 0.90441 0.13305 0.43402 0.0
C22 C 0.92271 0.14894 0.42603 0.0
N23 N 0.88798 0.08727 0.40535 0.0
H24 H 0.8966 0.807 0.39022 0.0
H25 H 0.91817 0.78572 0.43128 0.0
H26 H 0.85397 0.77744 0.4307 0.0
H27 H 0.9506 0.81539 0.42413 0.0
C28 C 0.95034 0.81227 0.41124 0.0
C29 C 0.89355 0.79977 0.40209 0.0
C30 C 0.87311 0.79229 0.40943 0.0
C31 C 0.91011 0.79787 0.41 0.0
C32 C 0.90586 0.78791 0.42524 0.0
C33 C 0.88571 0.78066 0.4328 0.0
C34 C 0.86954 0.78304 0.42486 0.0
N35 N 0.93069 0.80551 0.40235 0.0
H36 H 0.09433 0.19926 0.63557 0.0
H37 H 0.13692 0.21878 0.59446 0.0
H38 H 0.08324 0.23039 0.59524 0.0
H39 H 0.13719 0.18791 0.60166 0.0
C40 C 0.14098 0.19162 0.61442 0.0
C41 C 0.09873 0.20647 0.62371 0.0
C42 C 0.08646 0.21471 0.6164 0.0
C43 C 0.11678 0.20755 0.61577 0.0
C44 C 0.12278 0.2174 0.60052 0.0
C45 C 0.11076 0.22564 0.59301 0.0
C46 C 0.09259 0.22409 0.601 0.0
N47 N 0.12913 0.19929 0.6234 0.0
H48 H 0.79776 0.89021 0.63401 0.0
H49 H 0.76804 0.90634 0.59535 0.0
H50 H 0.76868 0.84743 0.59363 0.0
H51 H 0.81351 0.92499 0.64012 0.0
C52 C 0.8029 0.93069 0.63569 0.0
C53 C 0.78931 0.8864 0.62252 0.0
C54 C 0.7841 0.86714 0.61468 0.0
C55 C 0.78354 0.90056 0.61546 0.0
C56 C 0.77259 0.89541 0.60063 0.0
C57 C 0.7674 0.87642 0.5926 0.0
C58 C 0.77297 0.86225 0.59976 0.0
N59 N 0.78795 0.91998 0.6229 0.0
H60 H 0.11397 0.90557 0.63278 0.0
H61 H 0.10179 0.861 0.59425 0.0
H62 H 0.1593 0.92255 0.59353 0.0
H63 H 0.08703 0.83781 0.61587 0.0
C64 C 0.07748 0.84411 0.62133 0.0
C65 C 0.11892 0.90166 0.62151 0.0
C66 C 0.13834 0.91666 0.614 0.0
C67 C 0.10587 0.88143 0.61465 0.0
C68 C 0.11198 0.8764 0.59982 0.0
C69 C 0.13127 0.89118 0.59212 0.0
C70 C 0.14431 0.91118 0.59935 0.0
N71 N 0.08657 0.86652 0.62276 0.0
H72 H 0.88816 0.43516 0.72613 0.0
H73 H 0.91837 0.4781 0.76613 0.0
H74 H 0.92091 0.42004 0.76301 0.0
H75 H 0.86918 0.45204 0.72347 0.0
C76 C 0.87943 0.46813 0.72795 0.0
C77 C 0.897 0.43917 0.73747 0.0
C78 C 0.90417 0.42563 0.74356 0.0
C79 C 0.90198 0.45805 0.74575 0.0
C80 C 0.91425 0.46329 0.76004 0.0
C81 C 0.92123 0.44974 0.76646 0.0
C82 C 0.91611 0.43094 0.75806 0.0
N83 N 0.89558 0.47256 0.73993 0.0
H84 H 0.58156 0.45878 0.71936 0.0
H85 H 0.54004 0.43795 0.761 0.0
H86 H 0.59761 0.49952 0.76122 0.0
H87 H 0.51446 0.42366 0.73992 0.0
C88 C 0.52188 0.41581 0.73351 0.0
C89 C 0.57802 0.4617 0.73153 0.0
C90 C 0.59186 0.48119 0.7393 0.0
C91 C 0.55901 0.44628 0.73911 0.0
C92 C 0.55442 0.44999 0.75492 0.0
C93 C 0.56821 0.46918 0.76296 0.0
C94 C 0.58678 0.48477 0.755 0.0
N95 N 0.54469 0.42712 0.73073 0.0
H96 H 0.56165 0.13471 0.72857 0.0
H97 H 0.58282 0.11087 0.76823 0.0
H98 H 0.51868 0.10282 0.76848 0.0
H99 H 0.61532 0.14145 0.76189 0.0
C100 C 0.61525 0.13889 0.74893 0.0
C101 C 0.55848 0.12678 0.74016 0.0
C102 C 0.53797 0.11897 0.74754 0.0
C103 C 0.57496 0.12434 0.74769 0.0
C104 C 0.57055 0.11345 0.76253 0.0
C105 C 0.55034 0.10575 0.77012 0.0
C106 C 0.53427 0.10873 0.76261 0.0
N107 N 0.59563 0.13238 0.74003 0.0
H108 H 0.76281 0.5339 0.96947 0.0
H109 H 0.80533 0.55274 0.92836 0.0
H110 H 0.75243 0.56556 0.92919 0.0
H111 H 0.80541 0.52188 0.93576 0.0
C112 C 0.80923 0.52573 0.94849 0.0
C113 C 0.76732 0.5411 0.95761 0.0
C114 C 0.75528 0.54958 0.95028 0.0
C115 C 0.78525 0.54192 0.94969 0.0
C116 C 0.79133 0.55168 0.93442 0.0
C117 C 0.77959 0.56023 0.9269 0.0
C118 C 0.76157 0.55901 0.93491 0.0
N119 N 0.79745 0.53354 0.95739 0.0
H120 H 0.46894 0.22429 0.96704 0.0
H121 H 0.44453 0.24521 0.92763 0.0
H122 H 0.42828 0.17987 0.9303 0.0
H123 H 0.47588 0.27583 0.93187 0.0
C124 C 0.47624 0.27681 0.94499 0.0
C125 C 0.45936 0.22079 0.95605 0.0
C126 C 0.44858 0.20001 0.94971 0.0
C127 C 0.45861 0.23733 0.94789 0.0
C128 C 0.44618 0.23281 0.93362 0.0
C129 C 0.43528 0.21216 0.92717 0.0
C130 C 0.43653 0.19584 0.93529 0.0
N131 N 0.47012 0.25829 0.95439 0.0
H132 H 0.78286 0.23838 0.9693 0.0
H133 H 0.76882 0.1953 0.92932 0.0
H134 H 0.82966 0.25413 0.93139 0.0
H135 H 0.7519 0.17136 0.95057 0.0
C136 C 0.7429 0.17847 0.95568 0.0
C137 C 0.78761 0.2345 0.95792 0.0
C138 C 0.80813 0.24833 0.95136 0.0
C139 C 0.77358 0.21511 0.95025 0.0
C140 C 0.77976 0.21006 0.93546 0.0
C141 C 0.80002 0.22401 0.92854 0.0
C142 C 0.8141 0.24305 0.93667 0.0
N143 N 0.75333 0.20094 0.95758 0.0
H144 H 0.55678 0.77242 0.05564 0.0
H145 H 0.59039 0.81749 0.09386 0.0
H146 H 0.58401 0.75549 0.09569 0.0
H147 H 0.59589 0.84123 0.07454 0.0
C148 C 0.58107 0.83386 0.06734 0.0
C149 C 0.56577 0.77645 0.06695 0.0
C150 C 0.56947 0.76139 0.07484 0.0
C151 C 0.57357 0.79682 0.07351 0.0
C152 C 0.58473 0.80202 0.08843 0.0
C153 C 0.58861 0.78717 0.09648 0.0
C154 C 0.58098 0.76697 0.08955 0.0
N155 N 0.56941 0.81145 0.06499 0.0
H156 H 0.25979 0.78531 0.06166 0.0
H157 H 0.21351 0.76522 0.10029 0.0
H158 H 0.26497 0.83007 0.09832 0.0
H159 H 0.21396 0.73408 0.09585 0.0
C160 C 0.21212 0.73337 0.08277 0.0
C161 C 0.2539 0.78909 0.07253 0.0
C162 C 0.26485 0.80988 0.07898 0.0
C163 C 0.23571 0.7728 0.08032 0.0
C164 C 0.22808 0.77745 0.09454 0.0
C165 C 0.23868 0.79802 0.10119 0.0
C166 C 0.2569 0.81415 0.09326 0.0
N167 N 0.22494 0.75198 0.07347 0.0
H168 H 0.23031 0.46894 0.06145 0.0
H169 H 0.25119 0.44569 0.1017 0.0
H170 H 0.18729 0.43823 0.10152 0.0
H171 H 0.2839 0.47521 0.09497 0.0
C172 C 0.28371 0.47284 0.08198 0.0
C173 C 0.2271 0.46125 0.07314 0.0
C174 C 0.20663 0.45374 0.08047 0.0
C175 C 0.24348 0.45881 0.08083 0.0
C176 C 0.23902 0.44826 0.09584 0.0
C177 C 0.21884 0.44094 0.1034 0.0
C178 C 0.20287 0.44385 0.09568 0.0
N179 N 0.26409 0.46658 0.07316 0.0
H180 H 0.42803 0.87049 0.299 0.0
H181 H 0.4709 0.88956 0.25811 0.0
H182 H 0.41699 0.90091 0.25817 0.0
H183 H 0.47079 0.85834 0.26589 0.0
C184 C 0.47469 0.86256 0.27858 0.0
C185 C 0.43248 0.87755 0.28709 0.0
C186 C 0.42014 0.88551 0.27953 0.0
C187 C 0.45063 0.87865 0.27935 0.0
C188 C 0.4567 0.88825 0.26403 0.0
C189 C 0.44467 0.89633 0.25629 0.0
C190 C 0.42637 0.89477 0.2641 0.0
N191 N 0.463 0.87063 0.28725 0.0
H192 H 0.12082 0.55179 0.30935 0.0
H193 H 0.09375 0.56922 0.26967 0.0
H194 H 0.09477 0.5105 0.26786 0.0
H195 H 0.08377 0.58346 0.29099 0.0
C196 C 0.09947 0.59162 0.29709 0.0
C197 C 0.1129 0.54812 0.29761 0.0
C198 C 0.10876 0.52951 0.28932 0.0
C199 C 0.10692 0.56215 0.29081 0.0
C200 C 0.0973 0.55784 0.27535 0.0
C201 C 0.09294 0.53929 0.2669 0.0
C202 C 0.09862 0.52516 0.27405 0.0
N203 N 0.11145 0.58091 0.29944 0.0
H204 H 0.45435 0.56782 0.30524 0.0
H205 H 0.4383 0.52552 0.26451 0.0
H206 H 0.49807 0.58532 0.26494 0.0
H207 H 0.42212 0.50109 0.28553 0.0
C208 C 0.41357 0.50823 0.29134 0.0
C209 C 0.45843 0.56436 0.29343 0.0
C210 C 0.47829 0.57876 0.28617 0.0
C211 C 0.44411 0.545 0.28583 0.0
C212 C 0.44941 0.5403 0.27055 0.0
C213 C 0.469 0.55468 0.26299 0.0
C214 C 0.48322 0.57386 0.27088 0.0
N215 N 0.42437 0.53064 0.29369 0.0
Eu216 Eu 0.48281 0.99148 0.98851 0.0
C217 C 0.52875 0.0644 0.03915 0.0
C218 C 0.56728 0.08038 0.03405 0.0
C219 C 0.55274 0.10216 0.04431 0.0
C220 C 0.54609 0.06258 0.03376 0.0
C221 C 0.53193 0.08407 0.04496 0.0
C222 C 0.57042 0.10031 0.03886 0.0
C223 C 0.49445 0.06593 0.05351 0.0
N224 N 0.50902 0.04651 0.03989 0.0
C225 C 0.49221 0.04678 0.04772 0.0
C226 C 0.5143 0.08474 0.05185 0.0
Eu227 Eu 0.50582 0.01463 0.02903 0.0
N228 N 0.54245 0.04302 0.02946 0.0
C229 C 0.55958 0.03985 0.02657 0.0
C230 C 0.58476 0.07741 0.03015 0.0
C231 C 0.58091 0.05697 0.0267 0.0
H232 H 0.47682 0.03233 0.04911 0.0
H233 H 0.59436 0.05439 0.02404 0.0
H234 H 0.58653 0.11422 0.03895 0.0
H235 H 0.48088 0.06614 0.05926 0.0
H236 H 0.55692 0.02418 0.02385 0.0
H237 H 0.45162 0.02955 0.94801 0.0
H238 H 0.60129 0.09065 0.03023 0.0
H239 H 0.45766 0.93935 0.99779 0.0
H240 H 0.4796 0.02395 0.96146 0.0
H241 H 0.42067 0.90844 0.99849 0.0
H242 H 0.55547 0.11746 0.04853 0.0
H243 H 0.41258 0.00362 0.95205 0.0
H244 H 0.38418 0.96824 0.96321 0.0
H245 H 0.51605 0.09952 0.05645 0.0
H246 H 0.37573 0.93484 0.97691 0.0
N247 N 0.45663 0.99638 0.97407 0.0
C248 C 0.4626 0.01289 0.96356 0.0
C249 C 0.4248 0.00135 0.95818 0.0
C250 C 0.4189 0.98328 0.96762 0.0
C251 C 0.4468 0.01599 0.95584 0.0
C252 C 0.43548 0.98115 0.97534 0.0
H253 H 0.38934 0.91209 0.98962 0.0
N254 N 0.44761 0.96067 0.98889 0.0
C255 C 0.42325 0.92362 0.9942 0.0
C256 C 0.4308 0.96255 0.98299 0.0
C257 C 0.44426 0.94128 0.99382 0.0
C258 C 0.4056 0.92576 0.98925 0.0
C259 C 0.40929 0.94529 0.9832 0.0
O260 O 0.48415 0.96708 0.97377 0.0
O261 O 0.5126 0.01328 0.00294 0.0
O262 O 0.49509 0.03585 0.01659 0.0
O263 O 0.47106 0.01438 0.99589 0.0
O264 O 0.50829 0.02468 0.98104 0.0
O265 O 0.50129 -0.00044 0.96591 0.0
O266 O 0.49116 -0.0006 0.05211 0.0
O267 O 0.47894 0.9876 0.01517 0.0
O268 O 0.49262 0.97056 0.00267 0.0
O269 O 0.52038 0.99541 0.01878 0.0
O270 O 0.46995 3e-05 0.0343 0.0
O271 O 0.52376 0.0069 0.04678 0.0
C272 C 0.52064 0.02908 0.99356 0.0
C273 C 0.48586 0.97323 0.94535 0.0
C274 C 0.48718 0.98083 0.91636 0.0
C275 C 0.49491 0.98744 0.93225 0.0
C276 C 0.47016 0.95993 0.91373 0.0
C277 C 0.46878 0.95243 0.94234 0.0
C278 C 0.46099 0.94591 0.92664 0.0
C279 C 0.47995 0.03151 0.0054 0.0
C280 C 0.49464 0.97993 0.96198 0.0
C281 C 0.3924 0.9478 0.97664 0.0
C282 C 0.39721 0.96681 0.96885 0.0
C283 C 0.46291 0.98611 0.02288 0.0
C284 C 0.51569 0.00972 0.07399 0.0
C285 C 0.50816 0.99677 0.08782 0.0
C286 C 0.51491 0.0057 0.1034 0.0
C287 C 0.52903 0.02779 0.10487 0.0
C288 C 0.52976 0.03169 0.07581 0.0
C289 C 0.53634 0.04064 0.09117 0.0
C290 C 0.51008 0.97648 0.01179 0.0
C291 C 0.50872 0.00035 0.05773 0.0
H292 H 0.50821 0.00347 0.93435 0.0
H293 H 0.46381 0.95449 0.90165 0.0
H294 H 0.46144 0.94111 0.95208 0.0
H295 H 0.44783 0.92988 0.92446 0.0
H296 H 0.49736 0.97978 0.08642 0.0
H297 H 0.53425 0.03521 0.11666 0.0
H298 H 0.53571 0.04193 0.06536 0.0
H299 H 0.54715 0.05762 0.09246 0.0
Eu300 Eu 0.02297 0.49375 0.99634 0.0
C301 C 0.94335 0.47179 0.0408 0.0
C302 C 0.93509 0.49974 0.03501 0.0
C303 C 0.90618 0.4648 0.04307 0.0
C304 C 0.95011 0.49237 0.03594 0.0
C305 C 0.92146 0.458 0.04498 0.0
C306 C 0.91299 0.48565 0.03808 0.0
C307 C 0.93199 0.43303 0.05479 0.0
N308 N 0.9586 0.46593 0.04287 0.0
C309 C 0.95352 0.44738 0.0506 0.0
C310 C 0.9158 0.43818 0.05168 0.0
Eu311 Eu 0.99461 0.49055 0.035 0.0
N312 N 0.97163 0.50563 0.03328 0.0
C313 C 0.97943 0.52688 0.03097 0.0
C314 C 0.94286 0.52123 0.0316 0.0
C315 C 0.96517 0.53493 0.02986 0.0
H316 H 0.96606 0.44337 0.05298 0.0
H317 H 0.97141 0.55168 0.02757 0.0
H318 H 0.90118 0.49094 0.03719 0.0
H319 H 0.92792 0.41803 0.06042 0.0
H320 H 0.9966 0.53768 0.0295 0.0
H321 H 0.03952 0.42801 0.00388 0.0
H322 H 0.93186 0.52751 0.03072 0.0
H323 H 0.05504 0.54091 0.97941 0.0
H324 H 0.0168 0.44468 0.00186 0.0
H325 H 0.09393 0.56423 0.97272 0.0
H326 H 0.88923 0.45434 0.046 0.0
H327 H 0.07944 0.44983 0.00117 0.0
H328 H 0.11209 0.48535 0.9953 0.0
H329 H 0.89915 0.42713 0.05505 0.0
H330 H 0.12705 0.52267 0.98709 0.0
N331 N 0.04348 0.47601 0.9983 0.0
C332 C 0.03413 0.45453 1.00054 0.0
C333 C 0.06952 0.45731 1.00022 0.0
C334 C 0.07891 0.47906 0.99702 0.0
C335 C 0.047 0.44494 0.00171 0.0
C336 C 0.06526 0.48803 0.99599 0.0
H337 H 0.12035 0.55213 0.97832 0.0
N338 N 0.05982 0.51657 0.98941 0.0
C339 C 0.08852 0.54882 0.97815 0.0
C340 C 0.07373 0.50905 0.99154 0.0
C341 C 0.06657 0.53563 0.98193 0.0
C342 C 0.10338 0.54197 0.98139 0.0
C343 C 0.09598 0.52163 0.98777 0.0
O344 O 0.01958 0.50273 0.97174 0.0
O345 O 0.99532 0.49473 0.00821 0.0
O346 O 0.97197 0.46067 0.02115 0.0
O347 O 0.99424 0.46027 1.00038 0.0
O348 O 0.01127 0.51698 0.9903 0.0
O349 O 0.01201 0.47045 0.97671 0.0
O350 O 1.00044 0.48373 0.05968 0.0
O351 O 0.02231 0.48973 0.02309 0.0
O352 O 0.04538 0.52356 0.01054 0.0
O353 O 0.02179 0.52447 0.02991 0.0
O354 O 0.00685 0.46777 0.04121 0.0
O355 O 0.00491 0.51475 0.05392 0.0
C356 C 0.99516 0.50948 1.00023 0.0
C357 C 0.02608 0.48442 0.95095 0.0
C358 C 0.02752 0.48305 0.92149 0.0
C359 C 0.01636 0.48234 0.93575 0.0
C360 C 0.04868 0.48605 0.92277 0.0
C361 C 0.04699 0.48699 0.95194 0.0
C362 C 0.05825 0.4879 0.93791 0.0
C363 C 0.9761 0.45131 0.00902 0.0
C364 C 0.01434 0.4842 0.96562 0.0
C365 C 0.10985 0.51316 0.98972 0.0
C366 C 0.10132 0.4919 0.99434 0.0
C367 C 0.02276 0.47517 0.03112 0.0
C368 C 0.99268 0.50151 0.08013 0.0
C369 C 1.0029 0.5044 0.09523 0.0
C370 C 0.99181 0.50341 0.10959 0.0
C371 C 0.97023 0.49932 0.10853 0.0
C372 C 0.97132 0.4978 0.07937 0.0
C373 C 0.96014 0.49663 0.0935 0.0
C374 C 0.04056 0.53323 0.02206 0.0
C375 C 0.00435 0.50209 0.06533 0.0
H376 H 0.99999 0.47987 0.9351 0.0
H377 H 0.05793 0.48712 0.91208 0.0
H378 H 0.0546 0.48828 0.9635 0.0
H379 H 0.07447 0.49008 0.93877 0.0
H380 H 0.01957 0.50768 0.09571 0.0
H381 H 0.96105 0.49801 0.11931 0.0
H382 H 0.96328 0.49583 0.06789 0.0
H383 H 0.94358 0.49357 0.09281 0.0
Eu384 Eu 0.53198 0.51557 0.03221 0.0
C385 C 0.47706 0.5373 0.9845 0.0
C386 C 0.44001 0.50951 0.98931 0.0
C387 C 0.4473 0.54447 0.98064 0.0
C388 C 0.46254 0.51679 0.98923 0.0
C389 C 0.46957 0.55117 0.97961 0.0
C390 C 0.43254 0.52367 0.98551 0.0
C391 C 0.50615 0.57609 0.97109 0.0
N392 N 0.49834 0.54308 0.98336 0.0
C393 C 0.51272 0.56169 0.97601 0.0
C394 C 0.48454 0.57098 0.97318 0.0
Eu395 Eu 0.50872 0.51848 0.99252 0.0
N396 N 0.47032 0.50348 0.99256 0.0
C397 C 0.45629 0.48223 0.99469 0.0
C398 C 0.42565 0.48805 0.9926 0.0
C399 C 0.43382 0.47427 0.995 0.0
H400 H 0.52946 0.56569 0.97445 0.0
H401 H 0.42283 0.45753 0.99717 0.0
H402 H 0.41533 0.51846 0.98573 0.0
H403 H 0.51774 0.59111 0.96571 0.0
H404 H 0.4623 0.47137 0.99665 0.0
H405 H 0.61774 0.57671 0.02796 0.0
H406 H 0.40824 0.48184 0.99284 0.0
H407 H 0.51052 0.46694 0.04818 0.0
H408 H 0.57818 0.5627 0.02808 0.0
H409 H 0.52231 0.44148 0.05662 0.0
H410 H 0.44126 0.55499 0.97715 0.0
H411 H 0.63239 0.55249 0.03256 0.0
H412 H 0.62534 0.51585 0.03947 0.0
H413 H 0.47945 0.5821 0.96927 0.0
H414 H 0.59935 0.479 0.04731 0.0
N415 N 0.5703 0.53068 0.03232 0.0
C416 C 0.58427 0.55192 0.03018 0.0
C417 C 0.61497 0.54623 0.03265 0.0
C418 C 0.60061 0.52471 0.0358 0.0
C419 C 0.60676 0.55995 0.03009 0.0
C420 C 0.57807 0.51735 0.03567 0.0
H421 H 0.56096 0.45127 0.05411 0.0
N422 N 0.54207 0.49053 0.04068 0.0
C423 C 0.53404 0.45688 0.05187 0.0
C424 C 0.56349 0.49661 0.03998 0.0
C425 C 0.52742 0.47131 0.04713 0.0
C426 C 0.55586 0.46245 0.05038 0.0
C427 C 0.57097 0.48265 0.04464 0.0
O428 O 0.51772 0.50811 0.05634 0.0
O429 O 0.50363 0.51424 0.01923 0.0
O430 O 0.51538 0.548 0.00638 0.0
O431 O 0.53919 0.54937 0.02678 0.0
O432 O 0.49652 0.49181 0.0371 0.0
O433 O 0.54499 0.53943 0.05146 0.0
O434 O 0.52262 0.52492 0.96825 0.0
O435 O 0.53694 0.52018 0.00568 0.0
O436 O 0.52745 0.48763 0.0172 0.0
O437 O 0.50088 0.4847 0.99896 0.0
O438 O 0.54443 0.5416 0.98716 0.0
O439 O 0.49592 0.49367 0.97396 0.0
C440 C 0.48826 0.49913 0.02677 0.0
C441 C 0.54201 0.52574 0.07783 0.0
C442 C 0.54242 0.52681 0.10737 0.0
C443 C 0.53334 0.52795 0.09246 0.0
C444 C 0.5602 0.52323 0.10732 0.0
C445 C 0.5599 0.52248 0.07809 0.0
C446 C 0.56887 0.52116 0.09277 0.0
C447 C 0.52947 0.55782 0.01827 0.0
C448 C 0.53197 0.52646 0.06243 0.0
C449 C 0.5933 0.48956 0.04397 0.0
C450 C 0.6081 0.51055 0.03952 0.0
C451 C 0.55254 0.53471 0.99797 0.0
C452 C 0.49817 0.50584 0.94719 0.0
C453 C 0.5063 0.50239 0.93275 0.0
C454 C 0.49675 0.50233 0.91776 0.0
C455 C 0.47898 0.50592 0.91751 0.0
C456 C 0.48036 0.50923 0.94667 0.0
C457 C 0.47087 0.5093 0.93189 0.0
C458 C 0.51229 0.47702 0.00614 0.0
C459 C 0.50861 0.50618 0.96266 0.0
H460 H 0.51974 0.53083 0.09218 0.0
H461 H 0.56732 0.52185 0.11854 0.0
H462 H 0.56692 0.52096 0.06699 0.0
H463 H 0.58258 0.51848 0.09287 0.0
H464 H 0.51989 0.49949 0.93325 0.0
H465 H 0.47148 0.50636 0.90619 0.0
H466 H 0.47381 0.5118 0.95764 0.0
H467 H 0.4572 0.51205 0.93156 0.0
Eu468 Eu 0.15402 0.32473 0.32413 0.0
C469 C 0.19868 0.39537 0.37551 0.0
C470 C 0.23708 0.40888 0.37126 0.0
C471 C 0.22459 0.43262 0.38093 0.0
C472 C 0.21533 0.39209 0.37063 0.0
C473 C 0.20315 0.41551 0.38121 0.0
C474 C 0.24155 0.42931 0.37595 0.0
C475 C 0.16546 0.3996 0.38903 0.0
N476 N 0.17829 0.37838 0.37594 0.0
C477 C 0.16194 0.37992 0.38339 0.0
C478 C 0.18608 0.41757 0.38768 0.0
Eu479 Eu 0.17307 0.34558 0.36557 0.0
N480 N 0.2104 0.37209 0.3664 0.0
C481 C 0.2266 0.36747 0.36378 0.0
C482 C 0.25369 0.40444 0.36773 0.0
C483 C 0.24843 0.38356 0.36427 0.0
H484 H 0.14599 0.36605 0.38448 0.0
H485 H 0.26116 0.37986 0.36181 0.0
H486 H 0.25812 0.44248 0.37629 0.0
H487 H 0.15229 0.40088 0.39446 0.0
H488 H 0.22281 0.35148 0.36089 0.0
H489 H 0.10785 0.3505 0.28667 0.0
H490 H 0.2706 0.41688 0.36805 0.0
H491 H 0.13894 0.27462 0.33587 0.0
H492 H 0.1407 0.35258 0.29904 0.0
H493 H 0.10612 0.23946 0.3368 0.0
H494 H 0.22833 0.44828 0.38507 0.0
H495 H 0.07183 0.31861 0.29106 0.0
H496 H 0.05026 0.28144 0.30194 0.0
H497 H 0.18882 0.43276 0.39218 0.0
H498 H 0.04995 0.25089 0.31516 0.0
N499 N 0.12314 0.32329 0.31155 0.0
C500 C 0.12493 0.33894 0.30137 0.0
C501 C 0.08613 0.31969 0.29675 0.0
C502 C 0.08477 0.30274 0.30577 0.0
C503 C 0.10642 0.3377 0.29424 0.0
C504 C 0.1039 0.30496 0.31291 0.0
H505 H 0.07084 0.23487 0.32753 0.0
N506 N 0.12283 0.29026 0.32598 0.0
C507 C 0.1052 0.25294 0.33215 0.0
C508 C 0.10378 0.28781 0.3202 0.0
C509 C 0.12388 0.27304 0.33156 0.0
C510 C 0.08531 0.25042 0.32695 0.0
C511 C 0.08443 0.26791 0.32074 0.0
O512 O 0.15872 0.30414 0.30723 0.0
O513 O 0.18269 0.3458 0.33984 0.0
O514 O 0.16388 0.36775 0.35282 0.0
O515 O 0.1418 0.34745 0.33103 0.0
O516 O 0.17901 0.35865 0.31836 0.0
O517 O 0.16833 0.33625 0.3003 0.0
O518 O 0.15655 0.33275 0.38865 0.0
O519 O 0.14738 0.31898 0.35053 0.0
O520 O 0.1714 0.30787 0.33395 0.0
O521 O 0.18519 0.32291 0.3593 0.0
O522 O 0.13698 0.33191 0.36857 0.0
O523 O 0.1883 0.33677 0.38478 0.0
C524 C 0.19103 0.36219 0.331 0.0
C525 C 0.15423 0.31042 0.27954 0.0
C526 C 0.15192 0.31734 0.25075 0.0
C527 C 0.16221 0.32392 0.26599 0.0
C528 C 0.13362 0.29683 0.2493 0.0
C529 C 0.13574 0.29018 0.27774 0.0
C530 C 0.1256 0.28347 0.26269 0.0
C531 C 0.1499 0.36417 0.3409 0.0
C532 C 0.1651 0.31784 0.29545 0.0
C533 C 0.06502 0.26596 0.31462 0.0
C534 C 0.06518 0.28336 0.30714 0.0
C535 C 0.13084 0.31785 0.35726 0.0
C536 C 0.17958 0.34132 0.41141 0.0
C537 C 0.17197 0.32836 0.42523 0.0
C538 C 0.17885 0.33724 0.44081 0.0
C539 C 0.1931 0.3593 0.4423 0.0
C540 C 0.1939 0.36324 0.41324 0.0
C541 C 0.20051 0.37216 0.4286 0.0
C542 C 0.18239 0.3096 0.34738 0.0
C543 C 0.17281 0.33192 0.39515 0.0
H544 H 0.17618 0.33971 0.26746 0.0
H545 H 0.12553 0.29096 0.23775 0.0
H546 H 0.12905 0.27952 0.28795 0.0
H547 H 0.11145 0.26779 0.2614 0.0
H548 H 0.16111 0.31139 0.42382 0.0
H549 H 0.19841 0.36668 0.45409 0.0
H550 H 0.20009 0.37343 0.4028 0.0
H551 H 0.2115 0.3891 0.4299 0.0
Eu552 Eu 0.68718 0.82843 0.32666 0.0
C553 C 0.60775 0.80507 0.37136 0.0
C554 C 0.59757 0.83186 0.36623 0.0
C555 C 0.57002 0.79617 0.37408 0.0
C556 C 0.61343 0.82553 0.36678 0.0
C557 C 0.58607 0.79028 0.37541 0.0
C558 C 0.57576 0.81692 0.36951 0.0
C559 C 0.59811 0.76567 0.38323 0.0
N560 N 0.62368 0.79999 0.37273 0.0
C561 C 0.61939 0.78094 0.37919 0.0
C562 C 0.58132 0.77025 0.38114 0.0
Eu563 Eu 0.65913 0.82633 0.36507 0.0
N564 N 0.63467 0.83961 0.36382 0.0
C565 C 0.6414 0.86062 0.36138 0.0
C566 C 0.60421 0.85314 0.36286 0.0
C567 C 0.62627 0.86765 0.36067 0.0
H568 H 0.63235 0.77733 0.38074 0.0
H569 H 0.63163 0.88422 0.35833 0.0
H570 H 0.56332 0.82142 0.36894 0.0
H571 H 0.59467 0.75039 0.38795 0.0
H572 H 0.65837 0.87198 0.35959 0.0
H573 H 0.71579 0.77145 0.33403 0.0
H574 H 0.59253 0.85862 0.36226 0.0
H575 H 0.71279 0.87641 0.30941 0.0
H576 H 0.68872 0.78327 0.33277 0.0
H577 H 0.74992 0.90304 0.30078 0.0
H578 H 0.55323 0.78497 0.37699 0.0
H579 H 0.75469 0.79721 0.32943 0.0
H580 H 0.78338 0.83422 0.32176 0.0
H581 H 0.56486 0.75844 0.38436 0.0
H582 H 0.79269 0.87007 0.31262 0.0
N583 N 0.71205 0.8156 0.32799 0.0
C584 C 0.70561 0.79471 0.33072 0.0
C585 C 0.74286 0.80251 0.32887 0.0
C586 C 0.74918 0.82361 0.32509 0.0
C587 C 0.72092 0.78792 0.33143 0.0
C588 C 0.73314 0.82971 0.3246 0.0
H589 H 0.78023 0.8957 0.30438 0.0
N590 N 0.72222 0.85458 0.31809 0.0
C591 C 0.74692 0.88819 0.3061 0.0
C592 C 0.73838 0.84983 0.31945 0.0
C593 C 0.72594 0.87309 0.31096 0.0
C594 C 0.764 0.88401 0.3082 0.0
C595 C 0.75979 0.8645 0.31469 0.0
O596 O 0.68025 0.83319 0.30173 0.0
O597 O 0.6598 0.82987 0.33837 0.0
O598 O 0.63649 0.79788 0.3499 0.0
O599 O 0.66135 0.79442 0.33362 0.0
O600 O 0.67416 0.85042 0.3194 0.0
O601 O 0.6766 0.80283 0.30888 0.0
O602 O 0.66533 0.82056 0.38991 0.0
O603 O 0.68673 0.82518 0.35344 0.0
O604 O 0.70994 0.85753 0.34132 0.0
O605 O 0.68542 0.86031 0.35859 0.0
O606 O 0.67197 0.80421 0.37219 0.0
O607 O 0.66904 0.85118 0.38343 0.0
C608 C 0.65881 0.84378 0.32991 0.0
C609 C 0.68814 0.81447 0.28218 0.0
C610 C 0.68961 0.81372 0.25271 0.0
C611 C 0.67863 0.81317 0.26702 0.0
C612 C 0.71036 0.81573 0.25388 0.0
C613 C 0.70872 0.8162 0.28306 0.0
C614 C 0.71977 0.81689 0.26897 0.0
C615 C 0.64173 0.78676 0.34006 0.0
C616 C 0.67667 0.81458 0.29691 0.0
C617 C 0.77609 0.85894 0.31604 0.0
C618 C 0.77079 0.83853 0.32124 0.0
C619 C 0.6876 0.81117 0.36189 0.0
C620 C 0.65728 0.83861 0.40993 0.0
C621 C 0.6674 0.84093 0.42498 0.0
C622 C 0.65642 0.83989 0.4394 0.0
C623 C 0.63507 0.83644 0.43846 0.0
C624 C 0.63609 0.83538 0.40925 0.0
C625 C 0.62505 0.83426 0.42346 0.0
C626 C 0.70488 0.86824 0.35178 0.0
C627 C 0.66885 0.83901 0.39513 0.0
H628 H 0.66257 0.81148 0.26642 0.0
H629 H 0.71944 0.8166 0.24313 0.0
H630 H 0.71625 0.81702 0.29458 0.0
H631 H 0.73571 0.81838 0.26975 0.0
H632 H 0.68392 0.84378 0.4254 0.0
H633 H 0.62602 0.8352 0.44931 0.0
H634 H 0.62806 0.83369 0.3978 0.0
H635 H 0.60863 0.83162 0.42285 0.0
Eu636 Eu 0.19761 0.84909 0.36386 0.0
C637 C 0.1449 0.87573 0.3178 0.0
C638 C 0.10699 0.84931 0.32138 0.0
C639 C 0.117 0.88557 0.31426 0.0
C640 C 0.12918 0.85519 0.32161 0.0
C641 C 0.13898 0.89107 0.31376 0.0
C642 C 0.10102 0.86472 0.31806 0.0
C643 C 0.17674 0.91559 0.30779 0.0
N644 N 0.16595 0.88045 0.31729 0.0
C645 C 0.18178 0.89979 0.31181 0.0
C646 C 0.15528 0.9113 0.30895 0.0
Eu647 Eu 0.17341 0.85327 0.325 0.0
N648 N 0.13549 0.84067 0.32467 0.0
C649 C 0.12035 0.81966 0.32641 0.0
C650 C 0.09143 0.82799 0.32405 0.0
C651 C 0.09815 0.81305 0.32634 0.0
H652 H 0.19841 0.90322 0.311 0.0
H653 H 0.08625 0.79646 0.32814 0.0
H654 H 0.08408 0.86056 0.31802 0.0
H655 H 0.18941 0.93106 0.30382 0.0
H656 H 0.1253 0.80796 0.32828 0.0
H657 H 0.28434 0.9072 0.35958 0.0
H658 H 0.07423 0.82283 0.32403 0.0
H659 H 0.17398 0.79966 0.3787 0.0
H660 H 0.24514 0.89495 0.35995 0.0
H661 H 0.18394 0.77253 0.38607 0.0
H662 H 0.11214 0.89718 0.31134 0.0
H663 H 0.29723 0.88148 0.36363 0.0
H664 H 0.28833 0.84409 0.36992 0.0
H665 H 0.15141 0.92353 0.30578 0.0
H666 H 0.261 0.80741 0.37716 0.0
N667 N 0.23568 0.86245 0.36378 0.0
C668 C 0.25045 0.88353 0.3618 0.0
C669 C 0.27995 0.876 0.36384 0.0
C670 C 0.26481 0.85463 0.36678 0.0
C671 C 0.27274 0.89056 0.36158 0.0
C672 C 0.2425 0.8483 0.36682 0.0
H673 H 0.22208 0.78068 0.38348 0.0
N674 N 0.20604 0.8226 0.37165 0.0
C675 C 0.19625 0.78795 0.38174 0.0
C676 C 0.22718 0.82771 0.37086 0.0
C677 C 0.19067 0.80334 0.3776 0.0
C678 C 0.21778 0.79259 0.38021 0.0
C679 C 0.23364 0.81279 0.37498 0.0
O680 O 0.18404 0.84249 0.3882 0.0
O681 O 0.16922 0.84828 0.35158 0.0
O682 O 0.17872 0.88067 0.34098 0.0
O683 O 0.20658 0.88337 0.3577 0.0
O684 O 0.16202 0.82642 0.36982 0.0
O685 O 0.21174 0.87333 0.38281 0.0
O686 O 0.18642 0.8597 0.30048 0.0
O687 O 0.20168 0.85384 0.33727 0.0
O688 O 0.19116 0.82087 0.34828 0.0
O689 O 0.16383 0.81897 0.3313 0.0
O690 O 0.2091 0.8757 0.31908 0.0
O691 O 0.1593 0.82864 0.30636 0.0
C692 C 0.15381 0.83371 0.35942 0.0
C693 C 0.20886 0.86013 0.40937 0.0
C694 C 0.20931 0.86134 0.43891 0.0
C695 C 0.20033 0.86257 0.42399 0.0
C696 C 0.22697 0.85758 0.43889 0.0
C697 C 0.22651 0.85651 0.40963 0.0
C698 C 0.23549 0.85523 0.42434 0.0
C699 C 0.19497 0.89133 0.35125 0.0
C700 C 0.19876 0.86082 0.394 0.0
C701 C 0.25573 0.81871 0.3742 0.0
C702 C 0.27129 0.83959 0.3701 0.0
C703 C 0.2172 0.86827 0.32944 0.0
C704 C 0.16128 0.84101 0.27966 0.0
C705 C 0.16918 0.83757 0.26511 0.0
C706 C 0.15946 0.8376 0.25024 0.0
C707 C 0.1417 0.84119 0.25018 0.0
C708 C 0.14357 0.84456 0.27936 0.0
C709 C 0.13386 0.84465 0.26467 0.0
C710 C 0.17485 0.81051 0.33797 0.0
C711 C 0.17188 0.84108 0.29497 0.0
H712 H 0.18684 0.86562 0.42369 0.0
H713 H 0.23405 0.85618 0.45012 0.0
H714 H 0.23331 0.85461 0.39851 0.0
H715 H 0.24905 0.85231 0.42446 0.0
H716 H 0.18273 0.8346 0.26543 0.0
H717 H 0.13404 0.84159 0.23894 0.0
H718 H 0.13727 0.84724 0.29042 0.0
H719 H 0.12023 0.84746 0.26451 0.0
Eu720 Eu 0.81905 0.65748 0.65864 0.0
C721 C 0.87362 0.72984 0.70909 0.0
C722 C 0.91044 0.73693 0.70527 0.0
C723 C 0.9041 0.76529 0.71428 0.0
C724 C 0.88777 0.72292 0.70459 0.0
C725 C 0.88162 0.7509 0.71454 0.0
C726 C 0.9185 0.75832 0.70962 0.0
C727 C 0.84492 0.74113 0.72204 0.0
N728 N 0.8521 0.71542 0.70948 0.0
C729 C 0.83783 0.72041 0.71656 0.0
C730 C 0.86686 0.75657 0.72074 0.0
Eu731 Eu 0.84089 0.68085 0.69945 0.0
N732 N 0.8794 0.70207 0.70074 0.0
C733 C 0.89287 0.69381 0.6988 0.0
C734 C 0.92431 0.72882 0.70217 0.0
C735 C 0.91547 0.70708 0.69922 0.0
H736 H 0.82083 0.70851 0.71747 0.0
H737 H 0.92604 0.70053 0.69719 0.0
H738 H 0.93584 0.76938 0.70999 0.0
H739 H 0.83345 0.74518 0.72721 0.0
H740 H 0.88635 0.6771 0.69641 0.0
H741 H 0.73421 0.63868 0.66001 0.0
H742 H 0.94181 0.73905 0.7025 0.0
H743 H 0.83962 0.62855 0.64332 0.0
H744 H 0.77396 0.66176 0.66157 0.0
H745 H 0.8268 0.5916 0.63422 0.0
H746 H 0.91055 0.78163 0.71821 0.0
H747 H 0.71824 0.6003 0.65404 0.0
H748 H 0.72399 0.5698 0.64672 0.0
H749 H 0.87233 0.77258 0.72507 0.0
H750 H 0.74918 0.55694 0.63975 0.0
N751 N 0.78064 0.63669 0.6569 0.0
C752 C 0.76731 0.64509 0.65889 0.0
C753 C 0.73575 0.61037 0.65468 0.0
C754 C 0.74952 0.60209 0.65177 0.0
C755 C 0.74471 0.63204 0.65802 0.0
C756 C 0.7722 0.61587 0.65286 0.0
H757 H 0.78753 0.56503 0.63479 0.0
N758 N 0.80799 0.62263 0.64938 0.0
C759 C 0.81525 0.59614 0.63844 0.0
C760 C 0.78633 0.6086 0.64904 0.0
C761 C 0.82245 0.61702 0.64356 0.0
C762 C 0.79308 0.58117 0.63883 0.0
C763 C 0.77826 0.5874 0.6439 0.0
O764 O 0.83551 0.66539 0.63529 0.0
O765 O 0.84714 0.6822 0.67288 0.0
O766 O 0.83626 0.70535 0.68574 0.0
O767 O 0.81294 0.68482 0.6646 0.0
O768 O 0.85427 0.66674 0.65486 0.0
O769 O 0.8083 0.67049 0.63915 0.0
O770 O 0.82579 0.6732 0.72335 0.0
O771 O 0.81301 0.65679 0.68501 0.0
O772 O 0.82161 0.63263 0.67338 0.0
O773 O 0.8477 0.6541 0.69256 0.0
O774 O 0.80523 0.67033 0.70384 0.0
O775 O 0.85113 0.66595 0.71782 0.0
C776 C 0.86246 0.68152 0.66571 0.0
C777 C 0.814 0.66221 0.61257 0.0
C778 C 0.81642 0.66631 0.58321 0.0
C779 C 0.82344 0.67485 0.59883 0.0
C780 C 0.79972 0.64503 0.58156 0.0
C781 C 0.79721 0.6411 0.61066 0.0
C782 C 0.79013 0.63258 0.59522 0.0
C783 C 0.82297 0.70246 0.67346 0.0
C784 C 0.82235 0.67096 0.62877 0.0
C785 C 0.7557 0.57335 0.6435 0.0
C786 C 0.74136 0.58068 0.64745 0.0
C787 C 0.79732 0.65638 0.69238 0.0
C788 C 0.84846 0.6748 0.74487 0.0
C789 C 0.84053 0.66202 0.75875 0.0
C790 C 0.85014 0.66999 0.77403 0.0
C791 C 0.86761 0.69102 0.77513 0.0
C792 C 0.86598 0.69561 0.7463 0.0
C793 C 0.87544 0.70367 0.76135 0.0
C794 C 0.83623 0.63581 0.68466 0.0
C795 C 0.8384 0.66638 0.72896 0.0
H796 H 0.8365 0.69114 0.60028 0.0
H797 H 0.7939 0.6381 0.56969 0.0
H798 H 0.78965 0.63119 0.62106 0.0
H799 H 0.77719 0.61625 0.59383 0.0
H800 H 0.82714 0.64584 0.75759 0.0
H801 H 0.87512 0.69782 0.78669 0.0
H802 H 0.87236 0.70562 0.73579 0.0
H803 H 0.88889 0.71981 0.76236 0.0
Eu804 Eu 0.35546 0.16001 0.66268 0.0
C805 C 0.27424 0.13518 0.70654 0.0
C806 C 0.26423 0.16188 0.70067 0.0
C807 C 0.23651 0.12644 0.70884 0.0
C808 C 0.28001 0.15548 0.70157 0.0
C809 C 0.25255 0.12062 0.71072 0.0
C810 C 0.24235 0.14706 0.70381 0.0
C811 C 0.26469 0.09676 0.72028 0.0
N812 N 0.2902 0.13028 0.70855 0.0
C813 C 0.28598 0.11183 0.71605 0.0
C814 C 0.24782 0.10101 0.71733 0.0
Eu815 Eu 0.3258 0.15605 0.70066 0.0
N816 N 0.30135 0.16945 0.69887 0.0
C817 C 0.3082 0.19053 0.69655 0.0
C818 C 0.27103 0.18318 0.69724 0.0
C819 C 0.29316 0.19763 0.69546 0.0
H820 H 0.299 0.10849 0.71829 0.0
H821 H 0.29867 0.21425 0.69316 0.0
H822 H 0.22995 0.1516 0.70294 0.0
H823 H 0.26132 0.0819 0.72579 0.0
H824 H 0.32521 0.20191 0.69506 0.0
H825 H 0.37997 0.09978 0.66892 0.0
H826 H 0.25942 0.18873 0.6964 0.0
H827 H 0.38424 0.20948 0.64826 0.0
H828 H 0.35424 0.11322 0.66742 0.0
H829 H 0.42254 0.23582 0.64205 0.0
H830 H 0.2197 0.11538 0.71179 0.0
H831 H 0.41945 0.1246 0.66612 0.0
H832 H 0.4498 0.16168 0.66061 0.0
H833 H 0.23136 0.08938 0.72071 0.0
H834 H 0.46142 0.19875 0.65336 0.0
N835 N 0.37886 0.1455 0.66413 0.0
C836 C 0.37139 0.12426 0.6661 0.0
C837 C 0.40822 0.13061 0.66541 0.0
C838 C 0.41567 0.15217 0.66251 0.0
C839 C 0.38594 0.11655 0.66696 0.0
C840 C 0.40037 0.1592 0.66179 0.0
H841 H 0.45134 0.22644 0.64613 0.0
N842 N 0.39158 0.18588 0.65619 0.0
C843 C 0.41839 0.22023 0.64653 0.0
C844 C 0.40694 0.18005 0.65774 0.0
C845 C 0.39677 0.20532 0.65001 0.0
C846 C 0.43461 0.21489 0.6489 0.0
C847 C 0.42894 0.19447 0.65428 0.0
O848 O 0.35129 0.16803 0.63797 0.0
O849 O 0.32701 0.16019 0.67388 0.0
O850 O 0.30403 0.12639 0.6862 0.0
O851 O 0.32819 0.12581 0.66712 0.0
O852 O 0.34309 0.18262 0.65614 0.0
O853 O 0.34617 0.13657 0.64329 0.0
O854 O 0.33144 0.15029 0.72569 0.0
O855 O 0.35377 0.15525 0.68929 0.0
O856 O 0.37749 0.18801 0.67859 0.0
O857 O 0.3517 0.19027 0.69454 0.0
O858 O 0.33857 0.13381 0.70765 0.0
O859 O 0.33657 0.18124 0.7188 0.0
C860 C 0.32668 0.17475 0.66577 0.0
C861 C 0.35947 0.15073 0.61738 0.0
C862 C 0.36125 0.15034 0.58791 0.0
C863 C 0.34991 0.14911 0.60218 0.0
C864 C 0.38242 0.15337 0.58916 0.0
C865 C 0.38048 0.15355 0.61835 0.0
C866 C 0.3919 0.15492 0.60429 0.0
C867 C 0.30925 0.1169 0.67478 0.0
C868 C 0.34741 0.14977 0.63206 0.0
C869 C 0.4444 0.18784 0.65579 0.0
C870 C 0.43778 0.16673 0.6599 0.0
C871 C 0.35439 0.14093 0.6975 0.0
C872 C 0.32396 0.16938 0.7452 0.0
C873 C 0.33383 0.17223 0.76041 0.0
C874 C 0.32292 0.17249 0.77451 0.0
C875 C 0.30188 0.16973 0.77314 0.0
C876 C 0.30302 0.16676 0.74407 0.0
C877 C 0.29204 0.16689 0.75799 0.0
C878 C 0.3716 0.19852 0.68854 0.0
C879 C 0.33562 0.16901 0.73068 0.0
H880 H 0.33352 0.14659 0.60151 0.0
H881 H 0.39174 0.15473 0.57844 0.0
H882 H 0.38806 0.15468 0.62992 0.0
H883 H 0.40817 0.15722 0.60513 0.0
H884 H 0.35015 0.17457 0.7612 0.0
H885 H 0.29295 0.16957 0.78378 0.0
H886 H 0.29519 0.16468 0.73248 0.0
H887 H 0.27585 0.16477 0.75702 0.0
Eu888 Eu 0.86419 0.18056 0.70004 0.0
C889 C 0.80701 0.19946 0.6524 0.0
C890 C 0.77025 0.17171 0.65813 0.0
C891 C 0.7769 0.2061 0.64852 0.0
C892 C 0.79281 0.17916 0.65775 0.0
C893 C 0.79917 0.21293 0.6472 0.0
C894 C 0.76246 0.18551 0.654 0.0
C895 C 0.83538 0.23766 0.63786 0.0
N896 N 0.82831 0.20537 0.651 0.0
C897 C 0.84231 0.22366 0.64312 0.0
C898 C 0.81379 0.23246 0.64018 0.0
Eu899 Eu 0.83928 0.1814 0.6606 0.0
N900 N 0.80088 0.16617 0.66139 0.0
C901 C 0.78708 0.14502 0.66416 0.0
C902 C 0.75616 0.1504 0.66206 0.0
C903 C 0.7646 0.13691 0.66479 0.0
H904 H 0.85905 0.22775 0.64138 0.0
H905 H 0.75381 0.12027 0.66747 0.0
H906 H 0.74522 0.18017 0.65446 0.0
H907 H 0.84669 0.25245 0.63204 0.0
H908 H 0.7933 0.13439 0.66639 0.0
H909 H 0.94969 0.24177 0.69411 0.0
H910 H 0.73874 0.14407 0.66256 0.0
H911 H 0.84329 0.13219 0.7165 0.0
H912 H 0.91012 0.22763 0.69477 0.0
H913 H 0.85546 0.10696 0.72482 0.0
H914 H 0.77059 0.21632 0.64479 0.0
H915 H 0.96462 0.21784 0.69893 0.0
H916 H 0.95794 0.18146 0.70633 0.0
H917 H 0.80841 0.24326 0.63601 0.0
H918 H 0.9323 0.14476 0.71471 0.0
N919 N 0.90251 0.19581 0.69959 0.0
C920 C 0.91634 0.21698 0.69698 0.0
C921 C 0.9472 0.21152 0.69928 0.0
C922 C 0.93301 0.1901 0.70285 0.0
C923 C 0.93884 0.22509 0.69659 0.0
C924 C 0.91046 0.18266 0.70305 0.0
H925 H 0.89412 0.11696 0.72194 0.0
N926 N 0.87464 0.15582 0.70866 0.0
C927 C 0.86703 0.12235 0.71995 0.0
C928 C 0.89607 0.16201 0.70771 0.0
C929 C 0.8602 0.13665 0.71529 0.0
C930 C 0.88885 0.12803 0.71826 0.0
C931 C 0.90376 0.14821 0.71234 0.0
O932 O 0.85084 0.174 0.72446 0.0
O933 O 0.83527 0.1785 0.68743 0.0
O934 O 0.84631 0.21158 0.67378 0.0
O935 O 0.87107 0.21402 0.69377 0.0
O936 O 0.82893 0.15699 0.70587 0.0
O937 O 0.87789 0.20515 0.71874 0.0
O938 O 0.85232 0.18688 0.63607 0.0
O939 O 0.86812 0.18397 0.67339 0.0
O940 O 0.85972 0.15241 0.68547 0.0
O941 O 0.83198 0.14791 0.66783 0.0
O942 O 0.87472 0.20445 0.65433 0.0
O943 O 0.8259 0.15585 0.64263 0.0
C944 C 0.82022 0.16378 0.69548 0.0
C945 C 0.87584 0.19248 0.74537 0.0
C946 C 0.87678 0.19408 0.7749 0.0
C947 C 0.86738 0.19484 0.76004 0.0
C948 C 0.89477 0.19082 0.77476 0.0
C949 C 0.89392 0.18952 0.74552 0.0
C950 C 0.90328 0.18864 0.76015 0.0
C951 C 0.86087 0.222 0.6853 0.0
C952 C 0.86528 0.19259 0.73007 0.0
C953 C 0.9261 0.1552 0.71138 0.0
C954 C 0.94069 0.17611 0.70662 0.0
C955 C 0.88336 0.19821 0.66521 0.0
C956 C 0.82695 0.16713 0.61569 0.0
C957 C 0.83548 0.16493 0.601 0.0
C958 C 0.82532 0.16449 0.58621 0.0
C959 C 0.80655 0.16647 0.58641 0.0
C960 C 0.80815 0.16892 0.61561 0.0
C961 C 0.79806 0.16864 0.60103 0.0
C962 C 0.84392 0.14088 0.67511 0.0
C963 C 0.83805 0.16796 0.63096 0.0
H964 H 0.85363 0.19749 0.75982 0.0
H965 H 0.90215 0.18973 0.78593 0.0
H966 H 0.90078 0.18785 0.73438 0.0
H967 H 0.91714 0.18619 0.76018 0.0
H968 H 0.84985 0.16327 0.60114 0.0
H969 H 0.79854 0.16655 0.57525 0.0
H970 H 0.80127 0.17052 0.62677 0.0
H971 H 0.78362 0.17015 0.60105 0.0
C972 C 0.28666 0.8286 0.05414 0.0
C973 C 0.28472 0.82714 0.0711 0.0
C974 C 0.30512 0.84526 0.0469 0.0
C975 C 0.34777 0.9 0.05411 0.0
H976 H 0.38231 0.88987 0.02288 0.0
C977 C 0.44004 0.94796 0.02975 0.0
C978 C 0.44153 0.96693 0.02423 0.0
C979 C 0.41977 0.9304 0.03328 0.0
C980 C 0.3727 0.89288 0.03151 0.0
H981 H 0.30136 0.84173 0.09366 0.0
H982 H 0.33295 0.87107 0.08102 0.0
H983 H 0.3487 0.85976 0.03338 0.0
H984 H 0.42359 0.98312 0.01891 0.0
H985 H 0.38791 0.95228 0.02512 0.0
H986 H 0.37175 0.93303 0.0524 0.0
C987 C 0.32009 0.85938 0.07337 0.0
C988 C 0.35349 0.87573 0.03744 0.0
C989 C 0.30188 0.84259 0.08059 0.0
C990 C 0.42262 0.96836 0.02269 0.0
C991 C 0.40233 0.95083 0.02632 0.0
C992 C 0.36673 0.91714 0.04799 0.0
C993 C 0.32184 0.86096 0.05648 0.0
C994 C 0.3411 0.87912 0.04903 0.0
C995 C 0.40075 0.93173 0.03173 0.0
C996 C 0.37958 0.91371 0.03687 0.0
H997 H 0.27373 0.81715 0.04642 0.0
H998 H 0.3061 0.84618 0.03383 0.0
H999 H 0.33841 0.90303 0.06296 0.0
H1000 H 0.45459 0.94687 0.03158 0.0
H1001 H 0.41903 0.916 0.03772 0.0
C1002 C 0.16744 0.43891 0.07268 0.0
C1003 C 0.18893 0.45602 0.07257 0.0
C1004 C 0.15026 0.44141 0.06698 0.0
C1005 C 0.13616 0.47621 0.04281 0.0
H1006 H 0.08389 0.44936 0.06881 0.0
C1007 C 0.06341 0.49142 0.03344 0.0
C1008 C 0.04244 0.4736 0.03456 0.0
C1009 C 0.08178 0.4898 0.03744 0.0
C1010 C 0.09823 0.45677 0.06127 0.0
H1011 H 0.20926 0.48901 0.06574 0.0
H1012 H 0.17916 0.49347 0.0558 0.0
H1013 H 0.11489 0.44551 0.07634 0.0
H1014 H 0.02415 0.44049 0.04148 0.0
H1015 H 0.05606 0.4375 0.04827 0.0
H1016 H 0.11932 0.48757 0.0278 0.0
C1017 C 0.17564 0.47803 0.06024 0.0
C1018 C 0.11607 0.45454 0.06559 0.0
C1019 C 0.19291 0.47549 0.06593 0.0
C1020 C 0.04015 0.45438 0.04028 0.0
C1021 C 0.05846 0.45274 0.04426 0.0
C1022 C 0.11823 0.47846 0.03848 0.0
C1023 C 0.154 0.46113 0.06104 0.0
C1024 C 0.13524 0.46405 0.05637 0.0
C1025 C 0.07955 0.47042 0.04292 0.0
C1026 C 0.09895 0.46861 0.04759 0.0
H1027 H 0.16383 0.42356 0.0774 0.0
H1028 H 0.13395 0.42785 0.06738 0.0
H1029 H 0.15056 0.48365 0.03535 0.0
H1030 H 0.06561 0.50661 0.02954 0.0
H1031 H 0.09771 0.50383 0.03649 0.0
C1032 C 0.55361 0.72195 0.07768 0.0
C1033 C 0.56188 0.73998 0.0677 0.0
C1034 C 0.54845 0.70214 0.07131 0.0
C1035 C 0.56099 0.6781 0.03649 0.0
H1036 H 0.51448 0.62569 0.05428 0.0
C1037 C 0.53626 0.59422 0.01149 0.0
C1038 C 0.53369 0.57909 0.02312 0.0
C1039 C 0.53911 0.61396 0.0162 0.0
C1040 C 0.52758 0.64023 0.04927 0.0
H1041 H 0.57034 0.7511 0.04303 0.0
H1042 H 0.56049 0.71631 0.03177 0.0
H1043 H 0.51902 0.65974 0.06326 0.0
H1044 H 0.5324 0.57268 0.0488 0.0
H1045 H 0.53721 0.6072 0.0571 0.0
H1046 H 0.56929 0.65839 0.02235 0.0
C1047 C 0.55856 0.71763 0.04463 0.0
C1048 C 0.53023 0.65974 0.05442 0.0
C1049 C 0.56393 0.73753 0.05104 0.0
C1050 C 0.53438 0.58412 0.03959 0.0
C1051 C 0.53693 0.60375 0.04432 0.0
C1052 C 0.55815 0.65856 0.03119 0.0
C1053 C 0.55114 0.69976 0.05475 0.0
C1054 C 0.54718 0.67895 0.04828 0.0
C1055 C 0.53919 0.6188 0.03266 0.0
C1056 C 0.54162 0.63947 0.03771 0.0
H1057 H 0.55145 0.72319 0.09051 0.0
H1058 H 0.54299 0.68884 0.07952 0.0
H1059 H 0.57443 0.69254 0.03168 0.0
H1060 H 0.53637 0.59093 0.99877 0.0
H1061 H 0.54087 0.62531 0.00698 0.0
C1062 C 0.8179 0.28323 0.96455 0.0
C1063 C 0.8238 0.26818 0.95983 0.0
C1064 C 0.83347 0.30277 0.9712 0.0
C1065 C 0.88677 0.33001 0.99164 0.0
H1066 H 0.89268 0.38132 0.97224 0.0
C1067 C 0.94622 0.41471 0.01577 0.0
C1068 C 0.95884 0.42989 0.00412 0.0
C1069 C 0.92921 0.39476 0.01108 0.0
C1070 C 0.89121 0.36711 0.97775 0.0
H1071 H 0.85017 0.26124 0.95895 0.0
H1072 H 0.87723 0.29517 0.97077 0.0
H1073 H 0.86319 0.34652 0.96345 0.0
H1074 H 0.9639 0.43611 0.97843 0.0
H1075 H 0.93403 0.40119 0.97018 0.0
H1076 H 0.91489 0.35058 0.00584 0.0
C1077 C 0.86069 0.29199 0.96926 0.0
C1078 C 0.87423 0.34724 0.97285 0.0
C1079 C 0.84526 0.27265 0.96242 0.0
C1080 C 0.9544 0.42466 0.98766 0.0
C1081 C 0.93721 0.40479 0.98295 0.0
C1082 C 0.90358 0.34988 0.99669 0.0
C1083 C 0.85506 0.30739 0.97349 0.0
C1084 C 0.87199 0.32848 0.97961 0.0
C1085 C 0.92439 0.38967 0.99463 0.0
C1086 C 0.90612 0.36862 0.98966 0.0
H1087 H 0.80147 0.28016 0.96261 0.0
H1088 H 0.82868 0.31433 0.97445 0.0
H1089 H 0.88536 0.3158 0.9971 0.0
H1090 H 0.94966 0.41811 0.02849 0.0
H1091 H 0.91963 0.38342 0.02034 0.0
C1092 C 0.73302 0.56643 0.95801 0.0
C1093 C 0.736 0.54865 0.95833 0.0
C1094 C 0.71394 0.56512 0.96391 0.0
C1095 C 0.66463 0.53257 0.98887 0.0
H1096 H 0.6407 0.56038 0.96264 0.0
C1097 C 0.57694 0.51872 0.99712 0.0
C1098 C 0.57409 0.53649 0.99555 0.0
C1099 C 0.59706 0.52033 0.99375 0.0
C1100 C 0.64725 0.55275 0.97026 0.0
H1101 H 0.72147 0.51571 0.96573 0.0
H1102 H 0.68799 0.51334 0.97599 0.0
H1103 H 0.67497 0.56291 0.95506 0.0
H1104 H 0.58977 0.56962 0.98865 0.0
H1105 H 0.62496 0.57259 0.98288 0.0
H1106 H 0.63661 0.52226 0.00399 0.0
C1107 C 0.70054 0.5284 0.97126 0.0
C1108 C 0.66698 0.55421 0.9659 0.0
C1109 C 0.71975 0.52974 0.96538 0.0
C1110 C 0.59162 0.55576 0.99018 0.0
C1111 C 0.61172 0.55739 0.98679 0.0
C1112 C 0.6448 0.53109 0.99324 0.0
C1113 C 0.69718 0.54596 0.97027 0.0
C1114 C 0.67604 0.54423 0.97515 0.0
C1115 C 0.61471 0.53967 0.98843 0.0
C1116 C 0.63588 0.54122 0.984 0.0
H1117 H 0.74539 0.58137 0.95297 0.0
H1118 H 0.71225 0.57916 0.96333 0.0
H1119 H 0.67117 0.52483 0.99638 0.0
H1120 H 0.56354 0.50347 1.00073 0.0
H1121 H 0.59862 0.50627 0.99491 0.0
C1122 C 0.44758 0.17933 0.9744 0.0
C1123 C 0.45046 0.18269 0.95764 0.0
C1124 C 0.4484 0.16224 0.98156 0.0
C1125 C 0.44334 0.11036 0.97084 0.0
H1126 H 0.4755 0.11708 0.01055 0.0
C1127 C 0.47855 0.05731 0.9867 0.0
C1128 C 0.47426 0.04799 0.00203 0.0
C1129 C 0.47311 0.07282 0.98305 0.0
C1130 C 0.46617 0.11493 0.9996 0.0
H1131 H 0.45754 0.17157 0.93537 0.0
H1132 H 0.45923 0.14208 0.94778 0.0
H1133 H 0.47094 0.14654 1.00073 0.0
H1134 H 0.46174 0.0479 0.02586 0.0
H1135 H 0.45284 0.07592 0.01965 0.0
H1136 H 0.43943 0.07918 0.9693 0.0
C1137 C 0.45565 0.15213 0.95538 0.0
C1138 C 0.46355 0.13174 0.99398 0.0
C1139 C 0.45476 0.16907 0.94826 0.0
C1140 C 0.46518 0.05495 0.01395 0.0
C1141 C 0.46003 0.07083 0.01039 0.0
C1142 C 0.44612 0.09373 0.97636 0.0
C1143 C 0.45217 0.1483 0.97205 0.0
C1144 C 0.45266 0.12982 0.97927 0.0
C1145 C 0.4637 0.07963 0.99481 0.0
C1146 C 0.45805 0.09607 0.99053 0.0
H1147 H 0.44417 0.18959 0.98189 0.0
H1148 H 0.44563 0.15968 0.99443 0.0
H1149 H 0.43436 0.10817 0.9597 0.0
H1150 H 0.48657 0.05297 0.97762 0.0
H1151 H 0.47661 0.07976 0.97107 0.0
C1152 C 0.70713 0.17225 0.96673 0.0
C1153 C 0.72036 0.16425 0.96115 0.0
C1154 C 0.68555 0.15829 0.97119 0.0
C1155 C 0.64151 0.10266 0.96476 0.0
H1156 H 0.6147 0.11324 0.00173 0.0
C1157 C 0.55885 0.03871 0.98893 0.0
C1158 C 0.54371 0.04513 0.99259 0.0
C1159 C 0.58046 0.05385 0.98582 0.0
C1160 C 0.62196 0.1102 0.9913 0.0
H1161 H 0.72174 0.13562 0.9562 0.0
H1162 H 0.6844 0.11131 0.96426 0.0
H1163 H 0.65255 0.13871 0.99503 0.0
H1164 H 0.53862 0.072 0.99533 0.0
H1165 H 0.57677 0.09877 0.99019 0.0
H1166 H 0.61109 0.07413 0.96109 0.0
C1167 C 0.69037 0.12827 0.96489 0.0
C1168 C 0.6436 0.12478 0.98743 0.0
C1169 C 0.71182 0.14218 0.96038 0.0
C1170 C 0.55031 0.06685 0.99293 0.0
C1171 C 0.57204 0.08207 0.98999 0.0
C1172 C 0.62 0.08809 0.96866 0.0
C1173 C 0.67685 0.13611 0.97017 0.0
C1174 C 0.65369 0.12108 0.97418 0.0
C1175 C 0.58728 0.07569 0.98621 0.0
C1176 C 0.61003 0.09159 0.98203 0.0
H1177 H 0.71328 0.18923 0.96741 0.0
H1178 H 0.67554 0.16487 0.97507 0.0
H1179 H 0.64854 0.09953 0.95424 0.0
H1180 H 0.55386 0.02195 0.98822 0.0
H1181 H 0.59185 0.04845 0.98307 0.0
C1182 C 0.83919 0.51762 0.94529 0.0
C1183 C 0.82729 0.52345 0.95555 0.0
C1184 C 0.85691 0.51617 0.95114 0.0
C1185 C 0.90178 0.52854 0.96399 0.0
H1186 H 0.89978 0.49981 0.00401 0.0
C1187 C 0.97814 0.53055 0.99082 0.0
C1188 C 0.97565 0.51129 0.99668 0.0
C1189 C 0.95995 0.53234 0.98674 0.0
C1190 C 0.90055 0.50784 0.99278 0.0
H1191 H 0.82437 0.53194 0.98018 0.0
H1192 H 0.85545 0.52922 0.99054 0.0
H1193 H 0.86796 0.50226 0.99533 0.0
H1194 H 0.95222 0.47841 0.00192 0.0
H1195 H 0.92032 0.48155 0.99494 0.0
H1196 H 0.93416 0.53398 0.96128 0.0
C1197 C 0.85098 0.52578 0.9779 0.0
C1198 C 0.88241 0.50941 0.98789 0.0
C1199 C 0.83325 0.52742 0.97197 0.0
C1200 C 0.95459 0.49364 0.99791 0.0
C1201 C 0.93634 0.49544 0.99389 0.0
C1202 C 0.91992 0.52715 0.96893 0.0
C1203 C 0.8632 0.52041 0.96748 0.0
C1204 C 0.88273 0.51958 0.97332 0.0
C1205 C 0.9388 0.51483 0.98823 0.0
C1206 C 0.91951 0.51665 0.98332 0.0
H1207 H 0.83493 0.51439 0.93259 0.0
H1208 H 0.8657 0.51167 0.94283 0.0
H1209 H 0.9027 0.53669 0.95279 0.0
H1210 H 0.99422 0.5443 0.98953 0.0
H1211 H 0.96245 0.54752 0.98248 0.0
C1212 C 0.47949 0.3124 0.94319 0.0
C1213 C 0.48088 0.29703 0.9526 0.0
C1214 C 0.48273 0.33126 0.95023 0.0
C1215 C 0.51164 0.37085 0.97906 0.0
H1216 H 0.46229 0.37989 0.98237 0.0
C1217 C 0.52027 0.44707 0.00804 0.0
C1218 C 0.50797 0.45557 0.00138 0.0
C1219 C 0.51646 0.427 0.00334 0.0
C1220 C 0.47633 0.37781 0.98134 0.0
H1221 H 0.48735 0.28941 0.97661 0.0
H1222 H 0.4938 0.32301 0.98886 0.0
H1223 H 0.45718 0.34639 0.97145 0.0
H1224 H 0.48234 0.44975 0.9842 0.0
H1225 H 0.47651 0.41537 0.97539 0.0
H1226 H 0.53115 0.40253 0.98802 0.0
C1227 C 0.48981 0.32013 0.9761 0.0
C1228 C 0.4733 0.35855 0.97524 0.0
C1229 C 0.4861 0.30101 0.96912 0.0
C1230 C 0.49199 0.44364 0.98973 0.0
C1231 C 0.48848 0.42375 0.98478 0.0
C1232 C 0.51479 0.39031 0.98486 0.0
C1233 C 0.48788 0.33521 0.96671 0.0
C1234 C 0.49095 0.35502 0.97402 0.0
C1235 C 0.50064 0.41512 0.99154 0.0
C1236 C 0.49718 0.3941 0.98599 0.0
H1237 H 0.47546 0.30963 0.93043 0.0
H1238 H 0.48127 0.34281 0.94282 0.0
H1239 H 0.52546 0.36839 0.97804 0.0
H1240 H 0.53305 0.45597 0.01675 0.0
H1241 H 0.52598 0.42084 0.009 0.0
C1242 C 0.19275 0.71061 0.05847 0.0
C1243 C 0.19518 0.71332 0.07533 0.0
C1244 C 0.17602 0.69164 0.05186 0.0
C1245 C 0.1221 0.64678 0.06152 0.0
H1246 H 0.13331 0.61665 0.02754 0.0
C1247 C 0.05895 0.56088 0.04351 0.0
C1248 C 0.05746 0.55477 0.02723 0.0
C1249 C 0.0755 0.58079 0.04872 0.0
C1250 C 0.12978 0.62502 0.03684 0.0
H1251 H 0.18232 0.69847 0.09845 0.0
H1252 H 0.15305 0.6655 0.08694 0.0
H1253 H 0.16287 0.65051 0.0376 0.0
H1254 H 0.07148 0.56523 0.00352 0.0
H1255 H 0.10022 0.60004 0.01245 0.0
H1256 H 0.08905 0.62159 0.06072 0.0
C1257 C 0.16394 0.67797 0.07883 0.0
C1258 C 0.14676 0.64439 0.04262 0.0
C1259 C 0.18076 0.69677 0.08542 0.0
C1260 C 0.07256 0.5692 0.01619 0.0
C1261 C 0.08903 0.58921 0.02134 0.0
C1262 C 0.10509 0.62755 0.05564 0.0
C1263 C 0.16131 0.67524 0.062 0.0
C1264 C 0.14314 0.65531 0.05517 0.0
C1265 C 0.09084 0.59521 0.03771 0.0
C1266 C 0.10875 0.61626 0.04337 0.0
H1267 H 0.20366 0.72312 0.05041 0.0
H1268 H 0.17431 0.68997 0.03883 0.0
H1269 H 0.11876 0.65504 0.07102 0.0
H1270 H 0.04766 0.55003 0.05236 0.0
H1271 H 0.07654 0.58466 0.06146 0.0
C1272 C 0.32238 0.48196 0.08417 0.0
C1273 C 0.30418 0.47641 0.07428 0.0
C1274 C 0.34172 0.48463 0.07764 0.0
C1275 C 0.37326 0.49466 0.03997 0.0
H1276 H 0.40224 0.47034 0.06451 0.0
C1277 C 0.46231 0.51337 0.02803 0.0
C1278 C 0.46631 0.49629 0.02937 0.0
C1279 C 0.44183 0.51067 0.03195 0.0
C1280 C 0.39433 0.47709 0.0574 0.0
H1281 H 0.29212 0.46972 0.04961 0.0
H1282 H 0.32614 0.47443 0.0381 0.0
H1283 H 0.36792 0.46606 0.07403 0.0
H1284 H 0.4523 0.46321 0.03609 0.0
H1285 H 0.41666 0.45841 0.04284 0.0
H1286 H 0.39987 0.50564 0.02328 0.0
C1287 C 0.32539 0.47677 0.05096 0.0
C1288 C 0.37471 0.47484 0.06297 0.0
C1289 C 0.30587 0.47399 0.05755 0.0
C1290 C 0.44957 0.47658 0.03481 0.0
C1291 C 0.4292 0.47388 0.03874 0.0
C1292 C 0.39307 0.49705 0.03441 0.0
C1293 C 0.34347 0.48185 0.06099 0.0
C1294 C 0.36396 0.4837 0.05443 0.0
C1295 C 0.4251 0.49093 0.03757 0.0
C1296 C 0.40386 0.48831 0.0431 0.0
H1297 H 0.32161 0.48405 0.09708 0.0
H1298 H 0.35538 0.4889 0.0857 0.0
H1299 H 0.36547 0.50177 0.03313 0.0
H1300 H 0.4751 0.52889 0.02425 0.0
H1301 H 0.43934 0.52421 0.03107 0.0
C1302 C 0.55528 0.8391 0.04959 0.0
C1303 C 0.57392 0.84764 0.05948 0.0
C1304 C 0.5486 0.85243 0.04251 0.0
C1305 C 0.5682 0.90877 0.032 0.0
H1306 H 0.50698 0.89171 0.03296 0.0
C1307 C 0.53727 0.96794 0.02368 0.0
C1308 C 0.51809 0.96144 0.0147 0.0
C1309 C 0.54434 0.95355 0.02725 0.0
C1310 C 0.52408 0.89656 0.03236 0.0
H1311 H 0.6002 0.87664 0.06971 0.0
H1312 H 0.58844 0.89992 0.05756 0.0
H1313 H 0.5188 0.86741 0.04287 0.0
H1314 H 0.49152 0.9348 0.00213 0.0
H1315 H 0.50393 0.90964 0.00841 0.0
H1316 H 0.57351 0.9381 0.02181 0.0
C1317 C 0.57915 0.88301 0.05503 0.0
C1318 C 0.53087 0.88264 0.03804 0.0
C1319 C 0.58582 0.86969 0.06208 0.0
C1320 C 0.50634 0.94031 0.00911 0.0
C1321 C 0.51338 0.92587 0.01276 0.0
C1322 C 0.56142 0.92269 0.02635 0.0
C1323 C 0.56043 0.87453 0.04519 0.0
C1324 C 0.55304 0.88871 0.03814 0.0
C1325 C 0.53237 0.93232 0.02198 0.0
C1326 C 0.53933 0.91686 0.02669 0.0
H1327 H 0.54579 0.82214 0.04733 0.0
H1328 H 0.53425 0.84543 0.03486 0.0
H1329 H 0.58535 0.91377 0.03161 0.0
H1330 H 0.54673 0.98408 0.02819 0.0
H1331 H 0.55888 0.95895 0.03455 0.0
C1332 C 0.95158 0.16306 0.38641 0.0
C1333 C 0.9499 0.16155 0.4034 0.0
C1334 C 0.97017 0.17944 0.37907 0.0
C1335 C 0.01354 0.23372 0.3857 0.0
H1336 H 0.04853 0.2222 0.35586 0.0
C1337 C 0.10678 0.27984 0.3641 0.0
C1338 C 0.10914 0.2989 0.35798 0.0
C1339 C 0.0861 0.26254 0.36701 0.0
C1340 C 0.03876 0.22561 0.36406 0.0
H1341 H 0.9672 0.17579 0.42584 0.0
H1342 H 0.99893 0.20471 0.413 0.0
H1343 H 0.0143 0.19266 0.36612 0.0
H1344 H 0.09218 0.31555 0.35104 0.0
H1345 H 0.05576 0.28521 0.35627 0.0
H1346 H 0.03799 0.26657 0.38381 0.0
C1347 C 0.98577 0.19323 0.40544 0.0
C1348 C 0.01921 0.20877 0.36986 0.0
C1349 C 0.96747 0.1767 0.41277 0.0
C1350 C 0.0906 0.3007 0.35527 0.0
C1351 C 0.06988 0.28345 0.35832 0.0
C1352 C 0.03281 0.25055 0.37966 0.0
C1353 C 0.98726 0.19483 0.38854 0.0
C1354 C 0.0067 0.21267 0.38101 0.0
C1355 C 0.06747 0.26424 0.3643 0.0
C1356 C 0.04583 0.24662 0.36905 0.0
H1357 H 0.93836 0.15189 0.37876 0.0
H1358 H 0.97097 0.18038 0.36599 0.0
H1359 H 0.0041 0.2371 0.39424 0.0
H1360 H 0.12097 0.27849 0.36695 0.0
H1361 H 0.08472 0.24808 0.37194 0.0
C1362 C 0.85877 0.81316 0.39444 0.0
C1363 C 0.85519 0.79395 0.40132 0.0
C1364 C 0.84122 0.8152 0.38871 0.0
C1365 C 0.78185 0.79114 0.39473 0.0
H1366 H 0.78361 0.82293 0.35655 0.0
C1367 C 0.70506 0.79032 0.37066 0.0
C1368 C 0.70725 0.8095 0.36494 0.0
C1369 C 0.72344 0.78866 0.37427 0.0
C1370 C 0.78295 0.81417 0.36734 0.0
H1371 H 0.83062 0.76141 0.4065 0.0
H1372 H 0.80023 0.76483 0.39639 0.0
H1373 H 0.81527 0.81952 0.36376 0.0
H1374 H 0.73036 0.8424 0.35947 0.0
H1375 H 0.76256 0.83957 0.36575 0.0
H1376 H 0.74971 0.78586 0.39843 0.0
C1377 C 0.81643 0.77855 0.39582 0.0
C1378 C 0.80109 0.81221 0.37147 0.0
C1379 C 0.83388 0.77655 0.40157 0.0
C1380 C 0.7282 0.82723 0.36338 0.0
C1381 C 0.74664 0.82559 0.367 0.0
C1382 C 0.76379 0.7931 0.39063 0.0
C1383 C 0.81975 0.79804 0.3897 0.0
C1384 C 0.80071 0.80053 0.38517 0.0
C1385 C 0.7445 0.80628 0.37252 0.0
C1386 C 0.76401 0.80453 0.37684 0.0
H1387 H 0.87499 0.82688 0.39414 0.0
H1388 H 0.84439 0.83046 0.38412 0.0
H1389 H 0.7811 0.78246 0.40559 0.0
H1390 H 0.68907 0.77651 0.37218 0.0
H1391 H 0.72114 0.77348 0.37835 0.0
C1392 C 0.22832 0.05988 0.40851 0.0
C1393 C 0.2408 0.07841 0.39944 0.0
C1394 C 0.2224 0.03991 0.40205 0.0
C1395 C 0.23989 0.01413 0.37242 0.0
H1396 H 0.18229 0.9656 0.37883 0.0
C1397 C 0.21988 0.927 0.36371 0.0
C1398 C 0.20031 0.91318 0.35569 0.0
C1399 C 0.22468 0.94757 0.36799 0.0
C1400 C 0.1984 0.97903 0.37684 0.0
H1401 H 0.25657 0.0906 0.37642 0.0
H1402 H 0.24619 0.05556 0.36506 0.0
H1403 H 0.19019 0.00086 0.38782 0.0
H1404 H 0.17033 0.91008 0.34602 0.0
H1405 H 0.17879 0.94591 0.35341 0.0
H1406 H 0.24813 0.99225 0.36153 0.0
C1407 C 0.24108 0.05655 0.3772 0.0
C1408 C 0.20296 0.99917 0.38209 0.0
C1409 C 0.24684 0.07655 0.38363 0.0
C1410 C 0.18565 0.92036 0.35206 0.0
C1411 C 0.19039 0.94084 0.35641 0.0
C1412 C 0.23538 0.99395 0.36727 0.0
C1413 C 0.22896 0.03805 0.38641 0.0
C1414 C 0.22378 0.0169 0.38003 0.0
C1415 C 0.20992 0.95465 0.36446 0.0
C1416 C 0.21462 0.97618 0.36951 0.0
H1417 H 0.2233 0.06085 0.42069 0.0
H1418 H 0.2132 0.02595 0.40947 0.0
H1419 H 0.25615 0.02748 0.3708 0.0
H1420 H 0.23152 0.92197 0.36669 0.0
H1421 H 0.23975 0.95779 0.37435 0.0
C1422 C 0.48742 0.61172 0.30231 0.0
C1423 C 0.4942 0.59886 0.29441 0.0
C1424 C 0.50275 0.63134 0.309 0.0
C1425 C 0.56088 0.66311 0.32158 0.0
H1426 H 0.55238 0.71126 0.31401 0.0
C1427 C 0.62993 0.75047 0.32859 0.0
C1428 C 0.62466 0.76473 0.33606 0.0
C1429 C 0.61363 0.72977 0.32472 0.0
C1430 C 0.55488 0.69793 0.3164 0.0
H1431 H 0.5223 0.59602 0.28805 0.0
H1432 H 0.5489 0.63028 0.29929 0.0
H1433 H 0.52435 0.67576 0.30563 0.0
H1434 H 0.59804 0.76845 0.34513 0.0
H1435 H 0.56977 0.73239 0.33853 0.0
H1436 H 0.59165 0.68543 0.33203 0.0
C1437 C 0.53181 0.62526 0.30047 0.0
C1438 C 0.53877 0.67756 0.31164 0.0
C1439 C 0.51655 0.60571 0.29382 0.0
C1440 C 0.60274 0.75784 0.33954 0.0
C1441 C 0.58647 0.73721 0.33562 0.0
C1442 C 0.57704 0.6835 0.32626 0.0
C1443 C 0.52515 0.63847 0.30797 0.0
C1444 C 0.54164 0.65991 0.31404 0.0
C1445 C 0.5917 0.72294 0.32813 0.0
C1446 C 0.57429 0.70117 0.32361 0.0
H1447 H 0.47033 0.60692 0.30292 0.0
H1448 H 0.49704 0.641 0.31488 0.0
H1449 H 0.56349 0.64983 0.32386 0.0
H1450 H 0.64664 0.75528 0.32572 0.0
H1451 H 0.61814 0.71921 0.31879 0.0
C1452 C 0.3848 0.86531 0.29477 0.0
C1453 C 0.40065 0.88423 0.28747 0.0
C1454 C 0.36554 0.86367 0.3008 0.0
C1455 C 0.33099 0.8885 0.29582 0.0
H1456 H 0.30194 0.85672 0.33433 0.0
C1457 C 0.25615 0.88954 0.32157 0.0
C1458 C 0.23873 0.87015 0.32685 0.0
C1459 C 0.27622 0.8913 0.3179 0.0
C1460 C 0.30977 0.8655 0.32347 0.0
H1461 H 0.40923 0.91665 0.28174 0.0
H1462 H 0.376 0.91393 0.29238 0.0
H1463 H 0.33656 0.85981 0.3262 0.0
H1464 H 0.22832 0.83709 0.33172 0.0
H1465 H 0.26345 0.84013 0.32543 0.0
H1466 H 0.30431 0.89416 0.29302 0.0
C1467 C 0.37805 0.9001 0.29305 0.0
C1468 C 0.32963 0.86727 0.3188 0.0
C1469 C 0.39718 0.9017 0.28697 0.0
C1470 C 0.24166 0.85241 0.32814 0.0
C1471 C 0.26178 0.85415 0.3245 0.0
C1472 C 0.31125 0.88678 0.3005 0.0
C1473 C 0.36172 0.88094 0.29974 0.0
C1474 C 0.34056 0.87888 0.30492 0.0
C1475 C 0.27928 0.8736 0.3192 0.0
C1476 C 0.30038 0.87532 0.3144 0.0
H1477 H 0.38691 0.85152 0.29526 0.0
H1478 H 0.35332 0.84861 0.30577 0.0
H1479 H 0.33857 0.89713 0.28486 0.0
H1480 H 0.25422 0.90339 0.32028 0.0
H1481 H 0.28937 0.90657 0.31402 0.0
C1482 C 0.11043 0.5084 0.31282 0.0
C1483 C 0.11487 0.51447 0.29652 0.0
C1484 C 0.11526 0.49338 0.31928 0.0
C1485 C 0.14843 0.46781 0.31203 0.0
H1486 H 0.10452 0.42145 0.33744 0.0
C1487 C 0.15001 0.3904 0.32172 0.0
C1488 C 0.14512 0.38119 0.33711 0.0
C1489 C 0.14687 0.40747 0.31812 0.0
C1490 C 0.11706 0.43445 0.33056 0.0
H1491 H 0.12847 0.51012 0.27437 0.0
H1492 H 0.13664 0.48382 0.28554 0.0
H1493 H 0.09859 0.45043 0.32887 0.0
H1494 H 0.13303 0.3823 0.36085 0.0
H1495 H 0.12769 0.4125 0.35466 0.0
H1496 H 0.16675 0.45172 0.31347 0.0
C1497 C 0.12955 0.49069 0.29338 0.0
C1498 C 0.11368 0.45106 0.32567 0.0
C1499 C 0.12465 0.50559 0.28693 0.0
C1500 C 0.13699 0.38927 0.34891 0.0
C1501 C 0.13378 0.40638 0.34532 0.0
C1502 C 0.15179 0.45124 0.31691 0.0
C1503 C 0.12477 0.48429 0.30959 0.0
C1504 C 0.12916 0.46771 0.31609 0.0
C1505 C 0.13888 0.41577 0.3299 0.0
C1506 C 0.13597 0.43417 0.32595 0.0
H1507 H 0.10277 0.51488 0.32048 0.0
H1508 H 0.11155 0.48889 0.33185 0.0
H1509 H 0.16086 0.48062 0.30495 0.0
H1510 H 0.15692 0.38485 0.31259 0.0
H1511 H 0.15074 0.41418 0.30608 0.0
C1512 C 0.38234 0.47201 0.29618 0.0
C1513 C 0.39122 0.49412 0.29725 0.0
C1514 C 0.36101 0.45826 0.30105 0.0
C1515 C 0.31527 0.4553 0.32487 0.0
H1516 H 0.28122 0.40518 0.29832 0.0
C1517 C 0.22163 0.39956 0.33064 0.0
C1518 C 0.2143 0.37768 0.33009 0.0
C1519 C 0.24354 0.41428 0.32776 0.0
C1520 C 0.29058 0.41899 0.30596 0.0
H1521 H 0.38486 0.51929 0.30442 0.0
H1522 H 0.34735 0.49525 0.31267 0.0
H1523 H 0.31871 0.43 0.29113 0.0
H1524 H 0.22334 0.35376 0.32538 0.0
H1525 H 0.26163 0.3794 0.3203 0.0
H1526 H 0.28674 0.44422 0.33954 0.0
C1527 C 0.357 0.4885 0.30831 0.0
C1528 C 0.31211 0.43322 0.30186 0.0
C1529 C 0.37846 0.50229 0.3035 0.0
C1530 C 0.2289 0.37062 0.32626 0.0
C1531 C 0.25068 0.38528 0.32321 0.0
C1532 C 0.2936 0.44106 0.32892 0.0
C1533 C 0.34794 0.46629 0.30698 0.0
C1534 C 0.32482 0.45148 0.31133 0.0
C1535 C 0.25822 0.40726 0.32381 0.0
C1536 C 0.2811 0.42267 0.31956 0.0
H1537 H 0.3919 0.46533 0.29148 0.0
H1538 H 0.35476 0.44127 0.30016 0.0
H1539 H 0.32464 0.46909 0.33252 0.0
H1540 H 0.21039 0.40521 0.33315 0.0
H1541 H 0.24883 0.43111 0.32811 0.0
C1542 C 0.50175 0.85036 0.27675 0.0
C1543 C 0.49198 0.85947 0.28608 0.0
C1544 C 0.51864 0.84786 0.28308 0.0
C1545 C 0.56166 0.86856 0.31442 0.0
H1546 H 0.56503 0.81833 0.30315 0.0
C1547 C 0.61822 0.82722 0.32826 0.0
C1548 C 0.639 0.84524 0.32694 0.0
C1549 C 0.59959 0.8285 0.32471 0.0
C1550 C 0.56428 0.83237 0.30658 0.0
H1551 H 0.49222 0.87309 0.30948 0.0
H1552 H 0.52183 0.86865 0.32065 0.0
H1553 H 0.53341 0.82087 0.29492 0.0
H1554 H 0.65668 0.8784 0.32008 0.0
H1555 H 0.62416 0.88072 0.31379 0.0
H1556 H 0.59257 0.87999 0.32615 0.0
C1557 C 0.51645 0.86353 0.30835 0.0
C1558 C 0.54622 0.83394 0.3017 0.0
C1559 C 0.4994 0.86596 0.302 0.0
C1560 C 0.64081 0.8644 0.32153 0.0
C1561 C 0.62218 0.86573 0.31803 0.0
C1562 C 0.57979 0.86701 0.31928 0.0
C1563 C 0.5263 0.85445 0.29894 0.0
C1564 C 0.54478 0.85217 0.30533 0.0
C1565 C 0.6013 0.84779 0.31957 0.0
C1566 C 0.58147 0.84901 0.31525 0.0
H1567 H 0.49646 0.84534 0.26441 0.0
H1568 H 0.52602 0.84115 0.27536 0.0
H1569 H 0.56118 0.88288 0.31737 0.0
H1570 H 0.61632 0.81208 0.33193 0.0
H1571 H 0.58381 0.81438 0.32611 0.0
C1572 C 0.12832 0.62545 0.31012 0.0
C1573 C 0.10807 0.61391 0.3023 0.0
C1574 C 0.13644 0.64683 0.31427 0.0
C1575 C 0.13121 0.6933 0.30319 0.0
H1576 H 0.15791 0.71571 0.345 0.0
C1577 C 0.14852 0.77531 0.32568 0.0
C1578 C 0.16815 0.78817 0.33397 0.0
C1579 C 0.1421 0.75422 0.32189 0.0
C1580 C 0.15075 0.70975 0.3332 0.0
H1581 H 0.08032 0.61538 0.29291 0.0
H1582 H 0.09437 0.65261 0.30022 0.0
H1583 H 0.145 0.6784 0.33839 0.0
H1584 H 0.19668 0.78902 0.34448 0.0
H1585 H 0.18542 0.75214 0.33785 0.0
H1586 H 0.13688 0.72453 0.29796 0.0
C1587 C 0.10412 0.64531 0.30298 0.0
C1588 C 0.14335 0.68839 0.32942 0.0
C1589 C 0.096 0.62397 0.29889 0.0
C1590 C 0.18128 0.77946 0.33831 0.0
C1591 C 0.17484 0.75832 0.33452 0.0
C1592 C 0.13863 0.71462 0.30694 0.0
C1593 C 0.12451 0.65704 0.31059 0.0
C1594 C 0.13327 0.67989 0.31445 0.0
C1595 C 0.15519 0.74548 0.32623 0.0
C1596 C 0.14826 0.72304 0.32205 0.0
H1597 H 0.138 0.61808 0.31287 0.0
H1598 H 0.15226 0.6555 0.32004 0.0
H1599 H 0.12392 0.68733 0.29143 0.0
H1600 H 0.13796 0.78145 0.32219 0.0
H1601 H 0.1267 0.74467 0.31572 0.0
C1602 C 0.85842 0.0449 0.38956 0.0
C1603 C 0.85633 0.04936 0.40578 0.0
C1604 C 0.8423 0.02613 0.38224 0.0
C1605 C 0.78501 0.9877 0.38281 0.0
H1606 H 0.7993 0.94517 0.36862 0.0
C1607 C 0.71798 0.9018 0.36803 0.0
C1608 C 0.72204 0.89006 0.3564 0.0
C1609 C 0.73448 0.92196 0.37291 0.0
C1610 C 0.79498 0.95697 0.37214 0.0
H1611 H 0.83588 0.03811 0.42699 0.0
H1612 H 0.80739 0.00575 0.41401 0.0
H1613 H 0.82804 0.97955 0.37843 0.0
H1614 H 0.74688 0.89042 0.34098 0.0
H1615 H 0.77497 0.92591 0.34849 0.0
H1616 H 0.75214 0.96567 0.3762 0.0
C1617 C 0.82154 0.01657 0.40706 0.0
C1618 C 0.81151 0.97663 0.37785 0.0
C1619 C 0.83784 0.03499 0.41446 0.0
C1620 C 0.74294 0.8991 0.34968 0.0
C1621 C 0.75928 0.91943 0.35426 0.0
C1622 C 0.76853 0.96825 0.37677 0.0
C1623 C 0.82368 0.01192 0.39093 0.0
C1624 C 0.80659 0.992 0.38346 0.0
C1625 C 0.7554 0.93111 0.36609 0.0
C1626 C 0.77319 0.95241 0.3716 0.0
H1627 H 0.87259 0.0557 0.38263 0.0
H1628 H 0.84425 0.02279 0.36978 0.0
H1629 H 0.7809 -0.00058 0.38701 0.0
H1630 H 0.70217 0.89531 0.37363 0.0
H1631 H 0.73086 0.93012 0.38231 0.0
C1632 C 0.97224 0.81192 0.38718 0.0
C1633 C 0.97057 0.81489 0.40381 0.0
C1634 C 0.99152 0.81388 0.38083 0.0
C1635 C 0.03959 0.81025 0.39343 0.0
H1636 H 0.06649 0.84139 0.35419 0.0
C1637 C 0.12822 0.84826 0.36048 0.0
C1638 C 0.13187 0.83094 0.36161 0.0
C1639 C 0.10771 0.84568 0.36398 0.0
C1640 C 0.05916 0.83267 0.36518 0.0
H1641 H 0.98775 0.82258 0.42672 0.0
H1642 H 0.02113 0.82591 0.41576 0.0
H1643 H 0.0322 0.83831 0.36347 0.0
H1644 H 0.11726 0.7976 0.36767 0.0
H1645 H 0.08147 0.79301 0.37374 0.0
H1646 H 0.06652 0.80484 0.39538 0.0
C1647 C 0.00763 0.8219 0.4076 0.0
C1648 C 0.03945 0.83075 0.37041 0.0
C1649 C 0.98854 0.8201 0.41387 0.0
C1650 C 0.11477 0.81112 0.36651 0.0
C1651 C 0.09433 0.80855 0.37005 0.0
C1652 C 0.05911 0.81201 0.38816 0.0
C1653 C 0.00935 0.81862 0.39104 0.0
C1654 C 0.02958 0.81974 0.38473 0.0
C1655 C 0.09058 0.82584 0.369 0.0
C1656 C 0.06927 0.82338 0.37405 0.0
H1657 H 0.95865 0.80791 0.37911 0.0
H1658 H 0.9923 0.81119 0.36803 0.0
H1659 H 0.03232 0.80145 0.4044 0.0
H1660 H 0.14129 0.86387 0.3572 0.0
H1661 H 0.10548 0.8594 0.36326 0.0
C1662 C 0.23905 0.17888 0.37919 0.0
C1663 C 0.25438 0.18668 0.39186 0.0
C1664 C 0.23249 0.1921 0.37174 0.0
C1665 C 0.24795 0.24901 0.36714 0.0
H1666 H 0.18657 0.22592 0.35789 0.0
C1667 C 0.2079 0.30065 0.36166 0.0
C1668 C 0.1924 0.29604 0.34936 0.0
C1669 C 0.21664 0.28742 0.36427 0.0
C1670 C 0.20381 0.23251 0.36016 0.0
H1671 H 0.27494 0.21426 0.4066 0.0
H1672 H 0.26318 0.2372 0.39391 0.0
H1673 H 0.19957 0.20239 0.36751 0.0
H1674 H 0.17423 0.27402 0.32995 0.0
H1675 H 0.18933 0.25059 0.33476 0.0
H1676 H 0.25198 0.27928 0.36039 0.0
C1677 C 0.25653 0.22107 0.38945 0.0
C1678 C 0.21129 0.21904 0.36566 0.0
C1679 C 0.26316 0.20791 0.39682 0.0
C1680 C 0.18612 0.27802 0.33954 0.0
C1681 C 0.19469 0.26457 0.34231 0.0
C1682 C 0.24045 0.26247 0.36177 0.0
C1683 C 0.24105 0.21333 0.37685 0.0
C1684 C 0.23339 0.22721 0.36953 0.0
C1685 C 0.20996 0.26911 0.35477 0.0
C1686 C 0.21825 0.25443 0.35852 0.0
H1687 H 0.23206 0.16259 0.37504 0.0
H1688 H 0.22075 0.18568 0.36194 0.0
H1689 H 0.26515 0.25577 0.36963 0.0
H1690 H 0.21317 0.31439 0.36947 0.0
H1691 H 0.22818 0.29119 0.37408 0.0
C1692 C 0.62596 0.49302 0.72314 0.0
C1693 C 0.61159 0.49799 0.73114 0.0
C1694 C 0.64527 0.50916 0.71647 0.0
C1695 C 0.67286 0.56543 0.70318 0.0
H1696 H 0.72575 0.56465 0.71376 0.0
C1697 C 0.75794 0.64015 0.69875 0.0
C1698 C 0.77537 0.63762 0.69369 0.0
C1699 C 0.7374 0.62238 0.70122 0.0
C1700 C 0.71115 0.56498 0.71042 0.0
H1701 H 0.60573 0.52365 0.73776 0.0
H1702 H 0.63939 0.55177 0.7262 0.0
H1703 H 0.6907 0.53472 0.72139 0.0
H1704 H 0.78528 0.61451 0.68805 0.0
H1705 H 0.74942 0.58354 0.69184 0.0
H1706 H 0.69332 0.59579 0.69233 0.0
C1707 C 0.63578 0.53543 0.72506 0.0
C1708 C 0.69102 0.54779 0.71482 0.0
C1709 C 0.6166 0.51934 0.73183 0.0
C1710 C 0.77202 0.61699 0.69146 0.0
C1711 C 0.75149 0.59922 0.69387 0.0
C1712 C 0.69298 0.58258 0.6987 0.0
C1713 C 0.6505 0.53058 0.7175 0.0
C1714 C 0.67167 0.54797 0.71149 0.0
C1715 C 0.73394 0.60166 0.6989 0.0
C1716 C 0.71241 0.58273 0.7025 0.0
H1717 H 0.62257 0.47672 0.72247 0.0
H1718 H 0.6562 0.5049 0.7106 0.0
H1719 H 0.65821 0.5659 0.70023 0.0
H1720 H 0.76026 0.6559 0.70088 0.0
H1721 H 0.72439 0.62488 0.7054 0.0
C1722 C 0.49867 0.10407 0.73985 0.0
C1723 C 0.52015 0.12122 0.73976 0.0
C1724 C 0.48146 0.10646 0.73405 0.0
C1725 C 0.46746 0.1412 0.70955 0.0
H1726 H 0.41459 0.11376 0.73484 0.0
C1727 C 0.395 0.1568 0.69991 0.0
C1728 C 0.37395 0.13905 0.70074 0.0
C1729 C 0.41324 0.15495 0.70389 0.0
C1730 C 0.4291 0.12133 0.72749 0.0
H1731 H 0.54037 0.15422 0.73289 0.0
H1732 H 0.51024 0.1585 0.72281 0.0
H1733 H 0.44552 0.10999 0.74274 0.0
H1734 H 0.3554 0.10575 0.70709 0.0
H1735 H 0.3871 0.10236 0.71389 0.0
H1736 H 0.45086 0.15266 0.69437 0.0
C1737 C 0.50674 0.14309 0.7273 0.0
C1738 C 0.44692 0.11915 0.73203 0.0
C1739 C 0.52405 0.14066 0.73308 0.0
C1740 C 0.37146 0.1196 0.7061 0.0
C1741 C 0.38965 0.11773 0.71009 0.0
C1742 C 0.44957 0.14342 0.70501 0.0
C1743 C 0.48513 0.12612 0.72801 0.0
C1744 C 0.46633 0.12891 0.72308 0.0
C1745 C 0.41081 0.13538 0.70908 0.0
C1746 C 0.43009 0.13339 0.71388 0.0
H1747 H 0.4951 0.08874 0.74458 0.0
H1748 H 0.46518 0.09285 0.73441 0.0
H1749 H 0.48203 0.14881 0.70227 0.0
H1750 H 0.39738 0.17217 0.69634 0.0
H1751 H 0.42923 0.16895 0.70321 0.0
C1752 C 0.91571 0.40097 0.73192 0.0
C1753 C 0.89915 0.40577 0.73493 0.0
C1754 C 0.91088 0.38166 0.72472 0.0
C1755 C 0.86735 0.32693 0.72124 0.0
H1756 H 0.9022 0.32269 0.68695 0.0
C1757 C 0.86773 0.24945 0.70617 0.0
C1758 C 0.86527 0.24347 0.68981 0.0
C1759 C 0.87105 0.26943 0.71069 0.0
C1760 C 0.89226 0.32367 0.69645 0.0
H1761 H 0.86464 0.39441 0.73259 0.0
H1762 H 0.85608 0.36034 0.72017 0.0
H1763 H 0.90936 0.35779 0.69608 0.0
H1764 H 0.86534 0.254 0.66534 0.0
H1765 H 0.87128 0.28905 0.67319 0.0
H1766 H 0.85061 0.29285 0.7219 0.0
C1767 C 0.8728 0.37161 0.72333 0.0
C1768 C 0.89642 0.3437 0.70172 0.0
C1769 C 0.8777 0.39109 0.73032 0.0
C1770 C 0.86666 0.258 0.67802 0.0
C1771 C 0.87031 0.27813 0.68251 0.0
C1772 C 0.86341 0.30693 0.71614 0.0
C1773 C 0.88933 0.36666 0.72059 0.0
C1774 C 0.88408 0.3455 0.71424 0.0
C1775 C 0.87234 0.28394 0.69891 0.0
C1776 C 0.87593 0.30512 0.70379 0.0
H1777 H 0.9324 0.41211 0.73529 0.0
H1778 H 0.92389 0.37817 0.72285 0.0
H1779 H 0.85772 0.32788 0.731 0.0
H1780 H 0.86667 0.23851 0.71552 0.0
H1781 H 0.87281 0.27361 0.72341 0.0
C1782 C 0.15739 0.9398 0.6382 0.0
C1783 C 0.15298 0.93782 0.6215 0.0
C1784 C 0.17299 0.95932 0.64487 0.0
C1785 C 0.20654 0.01737 0.63557 0.0
H1786 H 0.24482 0.01599 0.66858 0.0
C1787 C 0.28858 0.09107 0.65273 0.0
C1788 C 0.29226 0.09563 0.66932 0.0
C1789 C 0.27115 0.0717 0.64742 0.0
C1790 C 0.23416 0.0166 0.65945 0.0
H1791 H 0.16064 0.95519 0.59889 0.0
H1792 H 0.18828 0.98876 0.6103 0.0
H1793 H 0.21432 0.98271 0.65865 0.0
H1794 H 0.28157 0.08309 0.69333 0.0
H1795 H 0.25113 0.04918 0.68412 0.0
H1796 H 0.22691 0.05129 0.63607 0.0
C1797 C 0.17959 0.97542 0.61838 0.0
C1798 C 0.21657 0.99754 0.65381 0.0
C1799 C 0.1639 0.95602 0.61176 0.0
C1800 C 0.27875 0.08018 0.68051 0.0
C1801 C 0.2615 0.06069 0.67522 0.0
C1802 C 0.22428 0.03638 0.64106 0.0
C1803 C 0.18463 0.97729 0.63498 0.0
C1804 C 0.20259 0.99765 0.64171 0.0
C1805 C 0.2573 0.0564 0.65862 0.0
C1806 C 0.23834 0.03619 0.65298 0.0
H1807 H 0.14936 0.92611 0.64606 0.0
H1808 H 0.17612 0.96022 0.65776 0.0
H1809 H 0.19592 0.01818 0.62651 0.0
H1810 H 0.29875 0.10276 0.64385 0.0
H1811 H 0.26844 0.0687 0.63454 0.0
C1812 C 0.0639 0.23125 0.62409 0.0
C1813 C 0.06714 0.21362 0.62451 0.0
C1814 C 0.04479 0.2298 0.63007 0.0
C1815 C 0.99604 0.19734 0.65553 0.0
H1816 H 0.97109 0.22404 0.62911 0.0
C1817 C 0.90816 0.18268 0.66448 0.0
C1818 C 0.90498 0.20022 0.66265 0.0
C1819 C 0.92833 0.18447 0.66096 0.0
C1820 C 0.97792 0.21673 0.63679 0.0
H1821 H 0.05306 0.18083 0.63218 0.0
H1822 H 0.01953 0.17822 0.64262 0.0
H1823 H 0.00541 0.22684 0.62134 0.0
H1824 H 0.92009 0.2331 0.65516 0.0
H1825 H 0.95537 0.23639 0.64918 0.0
H1826 H 0.96827 0.18711 0.67091 0.0
C1827 C 0.0319 0.19326 0.63772 0.0
C1828 C 0.99769 0.21834 0.63232 0.0
C1829 C 0.05113 0.19474 0.63174 0.0
C1830 C 0.92221 0.21943 0.65689 0.0
C1831 C 0.94236 0.22124 0.65338 0.0
C1832 C 0.97619 0.19573 0.66002 0.0
C1833 C 0.02828 0.21065 0.63664 0.0
C1834 C 0.00711 0.20875 0.64163 0.0
C1835 C 0.94569 0.20375 0.65526 0.0
C1836 C 0.96689 0.20546 0.65071 0.0
H1837 H 0.07608 0.24618 0.61892 0.0
H1838 H 0.04289 0.2437 0.62941 0.0
H1839 H 1.00286 0.18992 0.66308 0.0
H1840 H 0.89499 0.16747 0.66838 0.0
H1841 H 0.93014 0.17057 0.66232 0.0
C1842 C 0.78848 0.84816 0.63867 0.0
C1843 C 0.79027 0.85209 0.62193 0.0
C1844 C 0.79358 0.83343 0.6453 0.0
C1845 C 0.82177 0.80294 0.63585 0.0
H1846 H 0.78487 0.7654 0.66963 0.0
C1847 C 0.81847 0.72416 0.65212 0.0
C1848 C 0.81976 0.72027 0.6686 0.0
C1849 C 0.81604 0.74131 0.64728 0.0
C1850 C 0.79544 0.77593 0.66032 0.0
H1851 H 0.79953 0.84403 0.59915 0.0
H1852 H 0.80745 0.8178 0.61054 0.0
H1853 H 0.77872 0.79364 0.65962 0.0
H1854 H 0.81862 0.73072 0.69291 0.0
H1855 H 0.81427 0.76072 0.68448 0.0
H1856 H 0.83794 0.78464 0.6362 0.0
C1857 C 0.8025 0.82633 0.61864 0.0
C1858 C 0.792 0.79217 0.65461 0.0
C1859 C 0.7976 0.84117 0.61205 0.0
C1860 C 0.81818 0.73363 0.68016 0.0
C1861 C 0.81544 0.75063 0.67533 0.0
C1862 C 0.82502 0.78655 0.64141 0.0
C1863 C 0.80047 0.82218 0.63534 0.0
C1864 C 0.80498 0.80575 0.64217 0.0
C1865 C 0.81451 0.75472 0.65883 0.0
C1866 C 0.81175 0.77276 0.65358 0.0
H1867 H 0.78272 0.85616 0.64663 0.0
H1868 H 0.7921 0.83086 0.65824 0.0
H1869 H 0.83242 0.81336 0.62653 0.0
H1870 H 0.8197 0.71414 0.64294 0.0
H1871 H 0.81513 0.74396 0.63448 0.0
C1872 C 0.04183 0.83564 0.63419 0.0
C1873 C 0.05563 0.82889 0.6276 0.0
C1874 C 0.02088 0.82067 0.6394 0.0
C1875 C 0.97891 0.7643 0.63312 0.0
H1876 H 0.95339 0.77098 0.67253 0.0
C1877 C 0.90114 0.69515 0.65891 0.0
C1878 C 0.88484 0.69939 0.66399 0.0
C1879 C 0.92198 0.71178 0.65552 0.0
C1880 C 0.96026 0.76903 0.66142 0.0
H1881 H 0.05868 0.80141 0.62164 0.0
H1882 H 0.02247 0.7754 0.63087 0.0
H1883 H 0.98994 0.79873 0.66457 0.0
H1884 H 0.87725 0.72427 0.66917 0.0
H1885 H 0.91397 0.75359 0.66334 0.0
H1886 H 0.94948 0.73467 0.62995 0.0
C1887 C 0.0275 0.79214 0.63178 0.0
C1888 C 0.98116 0.78491 0.65685 0.0
C1889 C 0.04831 0.80703 0.62659 0.0
C1890 C 0.88973 0.72062 0.66564 0.0
C1891 C 0.91069 0.73735 0.66228 0.0
C1892 C 0.95817 0.7485 0.63768 0.0
C1893 C 0.01339 0.79872 0.63806 0.0
C1894 C 0.99083 0.78256 0.64273 0.0
C1895 C 0.92693 0.73307 0.65692 0.0
C1896 C 0.9487 0.75052 0.65198 0.0
H1897 H 0.04703 0.85242 0.63511 0.0
H1898 H 0.01038 0.82628 0.64408 0.0
H1899 H 0.98559 0.7622 0.62197 0.0
H1900 H 0.89768 0.6789 0.65742 0.0
H1901 H 0.93421 0.70796 0.65163 0.0
C1902 C 0.16489 0.19298 0.63786 0.0
C1903 C 0.159 0.18925 0.62141 0.0
C1904 C 0.18258 0.19123 0.64374 0.0
C1905 C 0.23342 0.19415 0.62974 0.0
H1906 H 0.2312 0.16476 0.66945 0.0
C1907 C 0.28611 0.15882 0.66328 0.0
C1908 C 0.30716 0.17652 0.66217 0.0
C1909 C 0.26786 0.16063 0.65927 0.0
C1910 C 0.23203 0.17297 0.65831 0.0
H1911 H 0.16673 0.1805 0.59836 0.0
H1912 H 0.19743 0.17759 0.60851 0.0
H1913 H 0.19944 0.16737 0.66088 0.0
H1914 H 0.32572 0.20963 0.65527 0.0
H1915 H 0.29396 0.21285 0.64824 0.0
H1916 H 0.2658 0.19962 0.62701 0.0
C1917 C 0.18862 0.18199 0.61688 0.0
C1918 C 0.21392 0.17464 0.65348 0.0
C1919 C 0.17093 0.18355 0.61108 0.0
C1920 C 0.30965 0.19583 0.65645 0.0
C1921 C 0.29146 0.19763 0.65238 0.0
C1922 C 0.25152 0.19267 0.63462 0.0
C1923 C 0.19483 0.18599 0.63324 0.0
C1924 C 0.21432 0.18505 0.63903 0.0
C1925 C 0.27032 0.18007 0.65375 0.0
C1926 C 0.25104 0.18194 0.64889 0.0
H1927 H 0.15599 0.19739 0.64613 0.0
H1928 H 0.187 0.19449 0.6564 0.0
H1929 H 0.23439 0.20249 0.61863 0.0
H1930 H 0.28376 0.14356 0.6672 0.0
H1931 H 0.25185 0.14671 0.66022 0.0
C1932 C 0.79204 0.95869 0.63655 0.0
C1933 C 0.80619 0.95141 0.64147 0.0
C1934 C 0.79579 0.97871 0.64137 0.0
C1935 C 0.8395 0.03105 0.65441 0.0
H1936 H 0.79202 0.03993 0.66712 0.0
C1937 C 0.85406 0.11247 0.67679 0.0
C1938 C 0.83938 0.11901 0.67165 0.0
C1939 C 0.84982 0.0918 0.6738 0.0
C1940 C 0.80541 0.03776 0.66342 0.0
H1941 H 0.83499 0.95903 0.65554 0.0
H1942 H 0.84163 0.99421 0.66399 0.0
H1943 H 0.78486 0.00401 0.66122 0.0
H1944 H 0.80892 0.10902 0.659 0.0
H1945 H 0.80175 0.07302 0.65344 0.0
H1946 H 0.86001 0.06478 0.65633 0.0
C1947 C 0.82775 0.98447 0.6563 0.0
C1948 C 0.80132 0.01717 0.6601 0.0
C1949 C 0.82391 0.96434 0.65155 0.0
C1950 C 0.8205 0.10447 0.66321 0.0
C1951 C 0.81631 0.08378 0.66014 0.0
C1952 C 0.84358 0.05164 0.65767 0.0
C1953 C 0.8138 0.99191 0.65116 0.0
C1954 C 0.8183 0.01361 0.65548 0.0
C1955 C 0.83091 0.0772 0.66544 0.0
C1956 C 0.82657 0.05525 0.66215 0.0
H1957 H 0.77817 0.94907 0.62883 0.0
H1958 H 0.78489 0.98407 0.63707 0.0
H1959 H 0.85286 0.02885 0.65064 0.0
H1960 H 0.86895 0.12333 0.68308 0.0
H1961 H 0.86132 0.08723 0.67819 0.0
C1962 C 0.48539 0.38361 0.73126 0.0
C1963 C 0.50773 0.3936 0.72802 0.0
C1964 C 0.4716 0.36243 0.72683 0.0
C1965 C 0.46663 0.31965 0.6998 0.0
H1966 H 0.42163 0.28345 0.72999 0.0
C1967 C 0.41002 0.22901 0.68926 0.0
C1968 C 0.3879 0.2207 0.69296 0.0
C1969 C 0.42537 0.24994 0.69346 0.0
C1970 C 0.43396 0.29339 0.72135 0.0
H1971 H 0.53325 0.38936 0.71745 0.0
H1972 H 0.50908 0.35213 0.70972 0.0
H1973 H 0.44721 0.32019 0.73734 0.0
H1974 H 0.36466 0.22793 0.70408 0.0
H1975 H 0.39136 0.26435 0.71133 0.0
H1976 H 0.45324 0.29276 0.68377 0.0
C1977 C 0.50221 0.36079 0.71559 0.0
C1978 C 0.44864 0.31446 0.72557 0.0
C1979 C 0.51606 0.38207 0.72006 0.0
C1980 C 0.38154 0.23376 0.70106 0.0
C1981 C 0.39688 0.25464 0.70529 0.0
C1982 C 0.45192 0.29851 0.69557 0.0
C1983 C 0.47983 0.35068 0.71906 0.0
C1984 C 0.465 0.32794 0.71478 0.0
C1985 C 0.41899 0.26299 0.70157 0.0
C1986 C 0.43525 0.2852 0.70623 0.0
H1987 H 0.47856 0.39219 0.73733 0.0
H1988 H 0.45441 0.35529 0.72942 0.0
H1989 H 0.47892 0.32966 0.69115 0.0
H1990 H 0.41558 0.21929 0.68331 0.0
H1991 H 0.44231 0.25578 0.69061 0.0
C1992 C 0.6376 0.13931 0.72483 0.0
C1993 C 0.63578 0.14228 0.74145 0.0
C1994 C 0.65717 0.1419 0.7185 0.0
C1995 C 0.70658 0.14058 0.73146 0.0
H1996 H 0.73181 0.16981 0.69125 0.0
C1997 C 0.79422 0.17799 0.69647 0.0
C1998 C 0.79835 0.16104 0.69833 0.0
C1999 C 0.77378 0.1754 0.70035 0.0
C2000 C 0.725 0.16167 0.70253 0.0
H2001 H 0.65308 0.15068 0.76432 0.0
H2002 H 0.68693 0.15521 0.7534 0.0
H2003 H 0.69729 0.16616 0.70058 0.0
H2004 H 0.78462 0.12837 0.70608 0.0
H2005 H 0.74902 0.12374 0.71276 0.0
H2006 H 0.73423 0.13633 0.73365 0.0
C2007 C 0.67333 0.15065 0.74522 0.0
C2008 C 0.70511 0.15939 0.7078 0.0
C2009 C 0.65393 0.14817 0.75148 0.0
C2010 C 0.78179 0.14162 0.70437 0.0
C2011 C 0.76144 0.13903 0.70826 0.0
C2012 C 0.72628 0.14273 0.72617 0.0
C2013 C 0.6752 0.14732 0.72869 0.0
C2014 C 0.69577 0.149 0.72244 0.0
C2015 C 0.75717 0.15592 0.70645 0.0
C2016 C 0.73586 0.15339 0.7117 0.0
H2017 H 0.62389 0.13477 0.71677 0.0
H2018 H 0.65801 0.13913 0.70572 0.0
H2019 H 0.69978 0.13223 0.74267 0.0
H2020 H 0.80688 0.19332 0.69223 0.0
H2021 H 0.77118 0.18883 0.69899 0.0
C2022 C 0.85766 0.48021 0.71197 0.0
C2023 C 0.8751 0.4851 0.72251 0.0
C2024 C 0.85324 0.4961 0.70695 0.0
C2025 C 0.87861 0.55441 0.70302 0.0
H2026 H 0.81921 0.54342 0.70328 0.0
C2027 C 0.85833 0.6218 0.69796 0.0
C2028 C 0.8404 0.61819 0.68836 0.0
C2029 C 0.86237 0.60522 0.70138 0.0
C2030 C 0.83585 0.54666 0.70293 0.0
H2031 H 0.90177 0.5105 0.73598 0.0
H2032 H 0.89402 0.53811 0.72732 0.0
H2033 H 0.82668 0.51499 0.71035 0.0
H2034 H 0.81229 0.5941 0.6752 0.0
H2035 H 0.81965 0.56531 0.68086 0.0
H2036 H 0.88783 0.58606 0.69567 0.0
C2037 C 0.88383 0.52207 0.7228 0.0
C2038 C 0.84013 0.53037 0.70698 0.0
C2039 C 0.88819 0.50619 0.72785 0.0
C2040 C 0.82646 0.59754 0.68241 0.0
C2041 C 0.83053 0.58096 0.68581 0.0
C2042 C 0.87434 0.57066 0.69894 0.0
C2043 C 0.86629 0.51721 0.71232 0.0
C2044 C 0.86158 0.53414 0.70723 0.0
C2045 C 0.84857 0.58462 0.6953 0.0
C2046 C 0.85294 0.56705 0.699 0.0
H2047 H 0.84737 0.46407 0.70766 0.0
H2048 H 0.83973 0.49191 0.69876 0.0
H2049 H 0.89528 0.5577 0.70283 0.0
H2050 H 0.86933 0.63745 0.70285 0.0
H2051 H 0.87618 0.6085 0.70897 0.0
C2052 C 0.43595 0.90241 0.22789 0.0
C2053 C 0.45142 0.90665 0.24015 0.0
C2054 C 0.44237 0.91224 0.21276 0.0
C2055 C 0.4871 0.95919 0.19285 0.0
H2056 H 0.46221 0.92749 0.15319 0.0
C2057 C 0.52207 0.99575 0.13086 0.0
C2058 C 0.50737 0.9923 0.1182 0.0
C2059 C 0.51491 0.9844 0.1453 0.0
C2060 C 0.46915 0.93663 0.16415 0.0
H2061 H 0.48577 0.92471 0.24611 0.0
H2062 H 0.49697 0.94162 0.21973 0.0
H2063 H 0.45023 0.90961 0.17925 0.0
H2064 H 0.47365 0.97381 0.11067 0.0
H2065 H 0.46105 0.95403 0.13599 0.0
H2066 H 0.50589 0.98623 0.17787 0.0
C2067 C 0.47985 0.9308 0.22183 0.0
C2068 C 0.46229 0.92638 0.1791 0.0
C2069 C 0.47345 0.92093 0.2369 0.0
C2070 C 0.4854 0.97673 0.12015 0.0
C2071 C 0.4782 0.96539 0.13467 0.0
C2072 C 0.49391 0.96944 0.17794 0.0
C2073 C 0.46439 0.92664 0.20957 0.0
C2074 C 0.47129 0.93751 0.19363 0.0
C2075 C 0.49283 0.96933 0.14753 0.0
C2076 C 0.48516 0.95829 0.16338 0.0
H2077 H 0.41887 0.89135 0.22994 0.0
H2078 H 0.43002 0.90879 0.20365 0.0
H2079 H 0.49407 0.96836 0.2038 0.0
H2080 H 0.53917 0.00733 0.12963 0.0
H2081 H 0.52675 0.9875 0.15476 0.0
C2082 C 0.08901 0.52576 0.23833 0.0
C2083 C 0.08245 0.53473 0.25064 0.0
C2084 C 0.07919 0.52159 0.22305 0.0
C2085 C 0.02993 0.51491 0.20179 0.0
H2086 H 0.06508 0.52555 0.1634 0.0
C2087 C 0.99892 0.51792 0.13793 0.0
C2088 C 1.00264 0.50671 0.12563 0.0
C2089 C 0.0087 0.52071 0.15311 0.0
C2090 C 0.05505 0.52232 0.17402 0.0
H2091 H 0.06018 0.54608 0.25653 0.0
H2092 H 0.0437 0.5396 0.22979 0.0
H2093 H 0.08206 0.53167 0.19008 0.0
H2094 H 0.01964 0.48963 0.11973 0.0
H2095 H 0.0371 0.49496 0.14618 0.0
H2096 H 1.00303 0.50605 0.18567 0.0
C2097 C 0.05615 0.5354 0.232 0.0
C2098 C 0.06474 0.52576 0.18932 0.0
C2099 C 0.06584 0.53941 0.24729 0.0
C2100 C 0.01665 0.49861 0.12883 0.0
C2101 C 0.0266 0.50159 0.14399 0.0
C2102 C 0.02031 0.51167 0.18651 0.0
C2103 C 0.06267 0.5264 0.21968 0.0
C2104 C 0.05231 0.5222 0.20339 0.0
C2105 C 0.02259 0.51254 0.1563 0.0
C2106 C 0.03278 0.51544 0.17248 0.0
H2107 H 0.10193 0.52217 0.24042 0.0
H2108 H 0.08446 0.51443 0.21393 0.0
H2109 H 0.01976 0.51156 0.21234 0.0
H2110 H 0.98862 0.52478 0.13581 0.0
H2111 H 0.0056 0.52952 0.1623 0.0
C2112 C 0.45924 0.54062 0.23445 0.0
C2113 C 0.47486 0.54991 0.24687 0.0
C2114 C 0.46526 0.53742 0.21905 0.0
C2115 C 0.51266 0.55833 0.19245 0.0
H2116 H 0.48046 0.50517 0.16888 0.0
C2117 C 0.54769 0.54086 0.13578 0.0
C2118 C 0.53357 0.52951 0.12293 0.0
C2119 C 0.53954 0.54321 0.15049 0.0
C2120 C 0.48945 0.52024 0.17519 0.0
H2121 H 0.50884 0.56206 0.25301 0.0
H2122 H 0.51932 0.55683 0.22615 0.0
H2123 H 0.46771 0.50913 0.19539 0.0
H2124 H 0.49968 0.51169 0.11557 0.0
H2125 H 0.48547 0.51638 0.14112 0.0
H2126 H 0.53427 0.56963 0.17233 0.0
C2127 C 0.5025 0.55233 0.22826 0.0
C2128 C 0.48216 0.52245 0.19038 0.0
C2129 C 0.49648 0.55536 0.24364 0.0
C2130 C 0.51105 0.52072 0.12514 0.0
C2131 C 0.50287 0.52317 0.13987 0.0
C2132 C 0.51983 0.55619 0.17725 0.0
C2133 C 0.48704 0.54358 0.21575 0.0
C2134 C 0.4939 0.54142 0.19926 0.0
C2135 C 0.51703 0.53444 0.15274 0.0
C2136 C 0.50852 0.53702 0.16851 0.0
H2137 H 0.44249 0.5364 0.23648 0.0
H2138 H 0.45303 0.53071 0.20959 0.0
H2139 H 0.5218 0.57328 0.19889 0.0
H2140 H 0.56514 0.5481 0.13446 0.0
H2141 H 0.55093 0.55171 0.16019 0.0
C2142 C 0.95028 0.45026 0.78432 0.0
C2143 C 0.93342 0.45492 0.78204 0.0
C2144 C 0.96098 0.4541 0.79921 0.0
C2145 C 0.97359 0.48545 0.83653 0.0
H2146 H 0.97985 0.43977 0.85528 0.0
C2147 C 0.00373 0.48931 0.90217 0.0
C2148 C 0.01711 0.4805 0.90534 0.0
C2149 C 0.99377 0.48663 0.88706 0.0
C2150 C 0.97857 0.45284 0.85014 0.0
H2151 H 0.91482 0.46753 0.7937 0.0
H2152 H 0.93393 0.47471 0.81957 0.0
H2153 H 0.96267 0.43483 0.82885 0.0
H2154 H 0.03036 0.46184 0.89499 0.0
H2155 H 0.01385 0.458 0.86852 0.0
H2156 H 0.98983 0.50365 0.85764 0.0
C2157 C 0.9388 0.46808 0.80977 0.0
C2158 C 0.96866 0.44995 0.83501 0.0
C2159 C 0.92792 0.46403 0.79492 0.0
C2160 C 0.02041 0.4691 0.89296 0.0
C2161 C 0.01064 0.46661 0.87781 0.0
C2162 C 0.98375 0.48845 0.8516 0.0
C2163 C 0.95525 0.46292 0.8121 0.0
C2164 C 0.96604 0.46621 0.82807 0.0
C2165 C 0.99709 0.47523 0.87468 0.0
C2166 C 0.98634 0.47216 0.85861 0.0
H2167 H 0.95526 0.44365 0.77458 0.0
H2168 H 0.97382 0.45025 0.80062 0.0
H2169 H 0.97195 0.49831 0.83137 0.0
H2170 H 1.00104 0.49843 0.91133 0.0
H2171 H 0.98325 0.49329 0.88517 0.0
C2172 C 0.55611 0.45695 0.79134 0.0
C2173 C 0.56299 0.47296 0.77958 0.0
C2174 C 0.55037 0.46017 0.8068 0.0
C2175 C 0.55511 0.50222 0.83506 0.0
H2176 H 0.50445 0.45529 0.85481 0.0
C2177 C 0.49079 0.48602 0.89005 0.0
C2178 C 0.5052 0.49853 0.90241 0.0
C2179 C 0.49864 0.48273 0.87551 0.0
C2180 C 0.51855 0.46861 0.84943 0.0
H2181 H 0.56935 0.50495 0.77481 0.0
H2182 H 0.55905 0.51051 0.80172 0.0
H2183 H 0.5167 0.45031 0.82858 0.0
H2184 H 0.53927 0.5174 0.90911 0.0
H2185 H 0.55295 0.51119 0.88387 0.0
H2186 H 0.55647 0.52073 0.85568 0.0
C2187 C 0.55847 0.49559 0.79912 0.0
C2188 C 0.52576 0.46567 0.83447 0.0
C2189 C 0.56433 0.4924 0.78368 0.0
C2190 C 0.52769 0.50751 0.89991 0.0
C2191 C 0.53555 0.50417 0.88536 0.0
C2192 C 0.54785 0.50518 0.85001 0.0
C2193 C 0.55125 0.47945 0.81084 0.0
C2194 C 0.54407 0.48246 0.82704 0.0
C2195 C 0.52111 0.49178 0.87296 0.0
C2196 C 0.52938 0.48845 0.85733 0.0
H2197 H 0.55525 0.44192 0.78861 0.0
H2198 H 0.54529 0.44754 0.81561 0.0
H2199 H 0.56942 0.51543 0.82979 0.0
H2200 H 0.47337 0.47864 0.89164 0.0
H2201 H 0.48704 0.47332 0.86616 0.0
C2202 C 0.55034 0.07759 0.78783 0.0
C2203 C 0.5458 0.09424 0.78579 0.0
C2204 C 0.54529 0.0662 0.80234 0.0
C2205 C 0.53518 0.06889 0.84563 0.0
H2206 H 0.50314 0.00731 0.84296 0.0
C2207 C 0.49837 0.01556 0.90234 0.0
C2208 C 0.49674 0.99543 0.90239 0.0
C2209 C 0.50551 0.02837 0.8885 0.0
C2210 C 0.51245 0.02447 0.84402 0.0
H2211 H 0.53293 0.11236 0.7975 0.0
H2212 H 0.52437 0.09261 0.82297 0.0
H2213 H 0.51381 0.02821 0.81828 0.0
H2214 H 0.50234 0.97339 0.88837 0.0
H2215 H 0.51563 0.99593 0.86456 0.0
H2216 H 0.53429 0.06524 0.87135 0.0
C2217 C 0.53174 0.08833 0.8133 0.0
C2218 C 0.51846 0.03646 0.8298 0.0
C2219 C 0.53649 0.09952 0.7987 0.0
C2220 C 0.50317 0.98873 0.88858 0.0
C2221 C 0.51062 0.00163 0.87487 0.0
C2222 C 0.52944 0.05689 0.85989 0.0
C2223 C 0.53587 0.07139 0.81522 0.0
C2224 C 0.52985 0.05879 0.83043 0.0
C2225 C 0.51148 0.02147 0.87446 0.0
C2226 C 0.51795 0.03447 0.85931 0.0
H2227 H 0.5574 0.07308 0.77807 0.0
H2228 H 0.5488 0.05332 0.80349 0.0
H2229 H 0.54411 0.08609 0.84649 0.0
H2230 H 0.49336 0.02103 0.91279 0.0
H2231 H 0.50568 0.04338 0.88867 0.0
C2232 C 0.13934 0.25042 0.57357 0.0
C2233 C 0.11735 0.23611 0.57691 0.0
C2234 C 0.14555 0.26052 0.55856 0.0
C2235 C 0.12743 0.25682 0.51602 0.0
H2236 H 0.17083 0.31675 0.51521 0.0
C2237 C 0.14955 0.30813 0.45762 0.0
C2238 C 0.17147 0.32377 0.45558 0.0
C2239 C 0.14256 0.29659 0.47207 0.0
C2240 C 0.1589 0.29994 0.51516 0.0
H2241 H 0.08468 0.22093 0.56692 0.0
H2242 H 0.0955 0.23876 0.54076 0.0
H2243 H 0.15946 0.29839 0.54098 0.0
H2244 H 0.20343 0.33872 0.46678 0.0
H2245 H 0.19138 0.31856 0.49178 0.0
H2246 H 0.12696 0.2584 0.49015 0.0
C2247 C 0.10796 0.24207 0.54974 0.0
C2248 C 0.15236 0.28941 0.52998 0.0
C2249 C 0.10173 0.23202 0.5648 0.0
C2250 C 0.18634 0.3271 0.46809 0.0
C2251 C 0.17941 0.31556 0.48246 0.0
C2252 C 0.13404 0.26736 0.50116 0.0
C2253 C 0.12994 0.25654 0.54647 0.0
C2254 C 0.13661 0.2677 0.53061 0.0
C2255 C 0.15737 0.30039 0.48477 0.0
C2256 C 0.14996 0.28905 0.50053 0.0
H2257 H 0.15177 0.25408 0.58266 0.0
H2258 H 0.16264 0.27139 0.55639 0.0
H2259 H 0.11542 0.24003 0.51607 0.0
H2260 H 0.13767 0.30528 0.44826 0.0
H2261 H 0.12545 0.28516 0.47346 0.0
C2262 C 0.73817 0.85161 0.57341 0.0
C2263 C 0.75635 0.87164 0.57664 0.0
C2264 C 0.72733 0.84753 0.55854 0.0
C2265 C 0.72001 0.87551 0.52375 0.0
H2266 H 0.69604 0.82043 0.50278 0.0
C2267 C 0.6807 0.83376 0.45822 0.0
C2268 C 0.66726 0.84257 0.45535 0.0
C2269 C 0.69127 0.83672 0.47309 0.0
C2270 C 0.7028 0.83596 0.5084 0.0
H2271 H 0.778 0.9028 0.5667 0.0
H2272 H 0.75941 0.89561 0.54066 0.0
H2273 H 0.71588 0.82685 0.52822 0.0
H2274 H 0.65439 0.86139 0.46597 0.0
H2275 H 0.67217 0.86592 0.49205 0.0
H2276 H 0.70759 0.88488 0.50374 0.0
C2277 C 0.75309 0.88322 0.54973 0.0
C2278 C 0.71393 0.83956 0.5231 0.0
C2279 C 0.76379 0.88733 0.56461 0.0
C2280 C 0.66443 0.85419 0.4678 0.0
C2281 C 0.67488 0.85704 0.4827 0.0
C2282 C 0.709 0.87196 0.50904 0.0
C2283 C 0.73457 0.86336 0.54656 0.0
C2284 C 0.72269 0.85939 0.53094 0.0
C2285 C 0.68856 0.84848 0.48549 0.0
C2286 C 0.70022 0.85214 0.50119 0.0
H2287 H 0.732 0.83929 0.58254 0.0
H2288 H 0.71297 0.83215 0.55659 0.0
H2289 H 0.72625 0.89088 0.52955 0.0
H2290 H 0.68301 0.82447 0.44898 0.0
H2291 H 0.70185 0.83008 0.47476 0.0
C2292 C 0.15996 0.89219 0.57388 0.0
C2293 C 0.13802 0.88598 0.57654 0.0
C2294 C 0.16674 0.88879 0.55891 0.0
C2295 C 0.148 0.85727 0.52138 0.0
H2296 H 0.20038 0.90431 0.50353 0.0
C2297 C 0.17783 0.85519 0.45656 0.0
C2298 C 0.20037 0.864 0.45445 0.0
C2299 C 0.16952 0.85764 0.47123 0.0
C2300 C 0.18588 0.89091 0.5084 0.0
H2301 H 0.10589 0.87077 0.56559 0.0
H2302 H 0.11775 0.86456 0.53941 0.0
H2303 H 0.18712 0.90839 0.52964 0.0
H2304 H 0.23184 0.88255 0.46613 0.0
H2305 H 0.21737 0.88625 0.49176 0.0
H2306 H 0.14692 0.83968 0.50022 0.0
C2307 C 0.12966 0.87208 0.54899 0.0
C2308 C 0.17826 0.89327 0.52336 0.0
C2309 C 0.12287 0.87559 0.56399 0.0
C2310 C 0.21438 0.87533 0.46737 0.0
C2311 C 0.20608 0.8777 0.48202 0.0
C2312 C 0.1557 0.85485 0.50642 0.0
C2313 C 0.15174 0.87896 0.54622 0.0
C2314 C 0.15934 0.87644 0.53009 0.0
C2315 C 0.18355 0.86893 0.48415 0.0
C2316 C 0.17485 0.8716 0.4998 0.0
H2317 H 0.17197 0.89979 0.58339 0.0
H2318 H 0.18378 0.89387 0.55726 0.0
H2319 H 0.13346 0.84397 0.52631 0.0
H2320 H 0.16654 0.84617 0.44694 0.0
H2321 H 0.1521 0.85085 0.47237 0.0
C2322 C 0.59596 0.80326 0.12438 0.0
C2323 C 0.60044 0.79247 0.11219 0.0
C2324 C 0.60604 0.80681 0.13955 0.0
C2325 C 0.63068 0.78451 0.16637 0.0
H2326 H 0.65586 0.8387 0.18886 0.0
C2327 C 0.6817 0.80008 0.22415 0.0
C2328 C 0.67941 0.81201 0.23662 0.0
C2329 C 0.6721 0.79835 0.20905 0.0
C2330 C 0.64863 0.82338 0.18284 0.0
H2331 H 0.6199 0.77798 0.10608 0.0
H2332 H 0.63717 0.78388 0.13256 0.0
H2333 H 0.63915 0.83488 0.16224 0.0
H2334 H 0.66538 0.83171 0.24285 0.0
H2335 H 0.64799 0.82807 0.21665 0.0
H2336 H 0.63973 0.7728 0.18692 0.0
C2337 C 0.62563 0.78931 0.13047 0.0
C2338 C 0.63913 0.82124 0.16759 0.0
C2339 C 0.61571 0.78591 0.11532 0.0
C2340 C 0.66726 0.82217 0.23359 0.0
C2341 C 0.65752 0.82032 0.21849 0.0
C2342 C 0.63998 0.78658 0.18163 0.0
C2343 C 0.62067 0.79951 0.14281 0.0
C2344 C 0.63027 0.80184 0.15915 0.0
C2345 C 0.65979 0.80834 0.20604 0.0
C2346 C 0.64928 0.80609 0.19 0.0
H2347 H 0.58414 0.80835 0.1224 0.0
H2348 H 0.60185 0.81462 0.14888 0.0
H2349 H 0.62358 0.76925 0.16026 0.0
H2350 H 0.69071 0.79183 0.2261 0.0
H2351 H 0.67447 0.78926 0.19968 0.0
C2352 C 0.22442 0.78804 0.12943 0.0
C2353 C 0.23081 0.8025 0.11652 0.0
C2354 C 0.21692 0.79208 0.14384 0.0
C2355 C 0.21748 0.83532 0.1679 0.0
H2356 H 0.16794 0.78888 0.18914 0.0
C2357 C 0.15328 0.82083 0.2227 0.0
C2358 C 0.16778 0.83385 0.23483 0.0
C2359 C 0.16106 0.81721 0.20824 0.0
C2360 C 0.18169 0.80206 0.18331 0.0
H2361 H 0.2342 0.83252 0.10863 0.0
H2362 H 0.22107 0.8396 0.13383 0.0
H2363 H 0.18113 0.78233 0.16383 0.0
H2364 H 0.20187 0.8535 0.24117 0.0
H2365 H 0.21546 0.84688 0.21604 0.0
H2366 H 0.21779 0.85513 0.18726 0.0
C2367 C 0.22214 0.82524 0.13285 0.0
C2368 C 0.18941 0.79825 0.16889 0.0
C2369 C 0.22965 0.82119 0.11841 0.0
C2370 C 0.19026 0.84321 0.23214 0.0
C2371 C 0.19805 0.83962 0.21766 0.0
C2372 C 0.20978 0.83913 0.18234 0.0
C2373 C 0.21562 0.8107 0.14572 0.0
C2374 C 0.2074 0.81483 0.16102 0.0
C2375 C 0.18354 0.82654 0.20555 0.0
C2376 C 0.19178 0.82254 0.19021 0.0
H2377 H 0.22548 0.77367 0.12846 0.0
H2378 H 0.21239 0.78073 0.15361 0.0
H2379 H 0.2315 0.8484 0.16222 0.0
H2380 H 0.13586 0.81321 0.22445 0.0
H2381 H 0.14945 0.80723 0.19909 0.0
C2382 C 0.20494 0.436 0.13185 0.0
C2383 C 0.21423 0.43008 0.11935 0.0
C2384 C 0.1997 0.42526 0.14663 0.0
C2385 C 0.20873 0.3872 0.17153 0.0
H2386 H 0.15634 0.37839 0.19286 0.0
C2387 C 0.18239 0.34531 0.23383 0.0
C2388 C 0.16 0.33172 0.23638 0.0
C2389 C 0.18981 0.35833 0.22011 0.0
C2390 C 0.17091 0.38048 0.18703 0.0
H2391 H 0.2254 0.40828 0.11256 0.0
H2392 H 0.21571 0.38906 0.13816 0.0
H2393 H 0.16757 0.39838 0.16786 0.0
H2394 H 0.1279 0.32177 0.22654 0.0
H2395 H 0.14075 0.34357 0.20248 0.0
H2396 H 0.21144 0.36838 0.19034 0.0
C2397 C 0.21294 0.40237 0.13676 0.0
C2398 C 0.17759 0.39232 0.17275 0.0
C2399 C 0.21844 0.41333 0.12204 0.0
C2400 C 0.14527 0.3317 0.22491 0.0
C2401 C 0.15267 0.34454 0.21117 0.0
C2402 C 0.20191 0.37516 0.18575 0.0
C2403 C 0.20333 0.40807 0.14925 0.0
C2404 C 0.19657 0.39582 0.16474 0.0
C2405 C 0.17505 0.35805 0.20853 0.0
C2406 C 0.18283 0.37152 0.19367 0.0
H2407 H 0.20179 0.44905 0.13021 0.0
H2408 H 0.19283 0.4305 0.15602 0.0
H2409 H 0.22359 0.38976 0.16589 0.0
H2410 H 0.19428 0.34567 0.24227 0.0
H2411 H 0.20715 0.3687 0.21866 0.0
C2412 C 0.80842 0.58402 0.90715 0.0
C2413 C 0.7863 0.57065 0.91076 0.0
C2414 C 0.81476 0.59395 0.89209 0.0
C2415 C 0.79547 0.59141 0.84984 0.0
H2416 H 0.84334 0.6495 0.84831 0.0
C2417 C 0.81976 0.64352 0.79173 0.0
C2418 C 0.84215 0.65666 0.78888 0.0
C2419 C 0.81243 0.63217 0.80623 0.0
C2420 C 0.8301 0.6332 0.84849 0.0
H2421 H 0.75353 0.55706 0.90113 0.0
H2422 H 0.76457 0.5748 0.87501 0.0
H2423 H 0.83155 0.63165 0.87425 0.0
H2424 H 0.87434 0.66723 0.79875 0.0
H2425 H 0.8616 0.64759 0.82393 0.0
H2426 H 0.79399 0.59314 0.82401 0.0
C2427 C 0.77704 0.57741 0.88378 0.0
C2428 C 0.82333 0.62293 0.86339 0.0
C2429 C 0.77069 0.56743 0.89885 0.0
C2430 C 0.85699 0.65766 0.80067 0.0
C2431 C 0.84968 0.64639 0.81513 0.0
C2432 C 0.80221 0.60174 0.83491 0.0
C2433 C 0.79917 0.59087 0.88022 0.0
C2434 C 0.80602 0.60185 0.86428 0.0
C2435 C 0.82732 0.63374 0.81821 0.0
C2436 C 0.81972 0.62272 0.83405 0.0
H2437 H 0.82088 0.58706 0.91606 0.0
H2438 H 0.83195 0.60397 0.88972 0.0
H2439 H 0.78225 0.5751 0.85003 0.0
H2440 H 0.80787 0.64251 0.78298 0.0
H2441 H 0.79509 0.62268 0.80826 0.0
C2442 C 0.43192 0.22183 0.89866 0.0
C2443 C 0.42301 0.20777 0.91174 0.0
C2444 C 0.42055 0.2177 0.88406 0.0
C2445 C 0.37694 0.17438 0.86017 0.0
H2446 H 0.37712 0.2209 0.83692 0.0
C2447 C 0.34561 0.16588 0.79449 0.0
C2448 C 0.33354 0.17585 0.79059 0.0
C2449 C 0.35593 0.16937 0.80952 0.0
C2450 C 0.37674 0.2077 0.84333 0.0
H2451 H 0.39511 0.17848 0.91984 0.0
H2452 H 0.37517 0.17127 0.89432 0.0
H2453 H 0.39588 0.22776 0.86286 0.0
H2454 H 0.32287 0.19735 0.79938 0.0
H2455 H 0.34052 0.20311 0.82572 0.0
H2456 H 0.35749 0.15426 0.84074 0.0
C2457 C 0.3911 0.18534 0.89529 0.0
C2458 C 0.38771 0.21168 0.8581 0.0
C2459 C 0.40249 0.18947 0.9099 0.0
C2460 C 0.33188 0.18927 0.80208 0.0
C2461 C 0.3422 0.19276 0.8171 0.0
C2462 C 0.36596 0.1704 0.84538 0.0
C2463 C 0.40001 0.19942 0.88221 0.0
C2464 C 0.388 0.19508 0.86666 0.0
C2465 C 0.35441 0.18292 0.82096 0.0
C2466 C 0.36579 0.18703 0.83678 0.0
H2467 H 0.44786 0.23588 0.89962 0.0
H2468 H 0.42803 0.22867 0.87413 0.0
H2469 H 0.37703 0.16129 0.8664 0.0
H2470 H 0.34701 0.15527 0.78596 0.0
H2471 H 0.3654 0.16171 0.81207 0.0
C2472 C 0.82827 0.22396 0.91036 0.0
C2473 C 0.80662 0.21895 0.91283 0.0
C2474 C 0.83494 0.22061 0.89533 0.0
C2475 C 0.81592 0.19041 0.85748 0.0
H2476 H 0.86883 0.23703 0.83988 0.0
C2477 C 0.84544 0.18792 0.79272 0.0
C2478 C 0.86797 0.19676 0.79049 0.0
C2479 C 0.83727 0.19046 0.80741 0.0
C2480 C 0.85419 0.22372 0.84469 0.0
H2481 H 0.77488 0.20598 0.90142 0.0
H2482 H 0.78652 0.19969 0.87519 0.0
H2483 H 0.85582 0.24108 0.8661 0.0
H2484 H 0.89954 0.21545 0.80201 0.0
H2485 H 0.88532 0.21913 0.82771 0.0
H2486 H 0.81452 0.17284 0.83624 0.0
C2487 C 0.79828 0.20628 0.88497 0.0
C2488 C 0.84671 0.22609 0.8597 0.0
C2489 C 0.79162 0.20982 0.9 0.0
C2490 C 0.88209 0.20817 0.80333 0.0
C2491 C 0.87393 0.21056 0.81803 0.0
C2492 C 0.82353 0.18794 0.84251 0.0
C2493 C 0.82009 0.21197 0.88243 0.0
C2494 C 0.82759 0.20943 0.8663 0.0
C2495 C 0.85142 0.20181 0.82027 0.0
C2496 C 0.84286 0.20453 0.83596 0.0
H2497 H 0.84014 0.23054 0.92006 0.0
H2498 H 0.85177 0.22478 0.89379 0.0
H2499 H 0.8012 0.17725 0.86235 0.0
H2500 H 0.83405 0.17881 0.78318 0.0
H2501 H 0.81986 0.18369 0.80862 0.0
C2502 C 0.27082 0.13944 0.45763 0.0
C2503 C 0.2757 0.1285 0.4458 0.0
C2504 C 0.27981 0.14253 0.47317 0.0
C2505 C 0.30296 0.11974 0.5013 0.0
H2506 H 0.32728 0.17398 0.52363 0.0
C2507 C 0.35379 0.13657 0.55938 0.0
C2508 C 0.351 0.14826 0.57179 0.0
C2509 C 0.34414 0.13449 0.54424 0.0
C2510 C 0.32029 0.15864 0.51765 0.0
H2511 H 0.29463 0.11312 0.44083 0.0
H2512 H 0.31008 0.11833 0.46791 0.0
H2513 H 0.31128 0.17 0.49672 0.0
H2514 H 0.33602 0.16714 0.5779 0.0
H2515 H 0.31869 0.16304 0.55157 0.0
H2516 H 0.31176 0.10827 0.52215 0.0
C2517 C 0.29902 0.12418 0.46527 0.0
C2518 C 0.31116 0.15639 0.50223 0.0
C2519 C 0.29014 0.12118 0.44976 0.0
C2520 C 0.3383 0.15783 0.56867 0.0
C2521 C 0.32859 0.1557 0.55351 0.0
C2522 C 0.31196 0.12195 0.51671 0.0
C2523 C 0.29377 0.13466 0.4772 0.0
C2524 C 0.30264 0.13698 0.49383 0.0
C2525 C 0.33135 0.14396 0.54113 0.0
C2526 C 0.32097 0.14148 0.52501 0.0
H2527 H 0.2596 0.1451 0.455 0.0
H2528 H 0.27538 0.15056 0.48216 0.0
H2529 H 0.29613 0.10445 0.49526 0.0
H2530 H 0.36325 0.12879 0.56141 0.0
H2531 H 0.34687 0.12559 0.53492 0.0
C2532 C 0.89167 0.12249 0.46247 0.0
C2533 C 0.89756 0.13734 0.44988 0.0
C2534 C 0.88469 0.12603 0.4773 0.0
C2535 C 0.88466 0.16795 0.50292 0.0
H2536 H 0.83615 0.1198 0.52359 0.0
C2537 C 0.81992 0.14874 0.55835 0.0
C2538 C 0.8341 0.16183 0.57062 0.0
C2539 C 0.82806 0.14621 0.54368 0.0
C2540 C 0.8496 0.13346 0.51794 0.0
H2541 H 0.90092 0.16769 0.44305 0.0
H2542 H 0.8885 0.17385 0.46898 0.0
H2543 H 0.84946 0.11486 0.49782 0.0
H2544 H 0.868 0.18269 0.57695 0.0
H2545 H 0.88223 0.17786 0.55145 0.0
H2546 H 0.88441 0.18665 0.52292 0.0
C2547 C 0.88957 0.15956 0.46742 0.0
C2548 C 0.85742 0.13057 0.50324 0.0
C2549 C 0.89664 0.15603 0.45256 0.0
C2550 C 0.85663 0.17232 0.56783 0.0
C2551 C 0.86478 0.16976 0.55313 0.0
C2552 C 0.87681 0.17085 0.51764 0.0
C2553 C 0.88334 0.14451 0.47992 0.0
C2554 C 0.87507 0.14776 0.49555 0.0
C2555 C 0.85058 0.15664 0.54089 0.0
C2556 C 0.85915 0.15364 0.52531 0.0
H2557 H 0.89261 0.10812 0.46087 0.0
H2558 H 0.88047 0.11432 0.48676 0.0
H2559 H 0.89841 0.18149 0.4974 0.0
H2560 H 0.80249 0.14023 0.56015 0.0
H2561 H 0.81664 0.13618 0.53445 0.0
C2562 C 0.88558 0.75368 0.45189 0.0
C2563 C 0.8813 0.77033 0.44892 0.0
C2564 C 0.88028 0.74318 0.46679 0.0
C2565 C 0.86956 0.74864 0.5095 0.0
H2566 H 0.83587 0.68702 0.50886 0.0
C2567 C 0.82858 0.69967 0.56707 0.0
C2568 C 0.82639 0.6794 0.56858 0.0
C2569 C 0.83666 0.71136 0.55281 0.0
C2570 C 0.84563 0.7042 0.50935 0.0
H2571 H 0.8688 0.78952 0.45934 0.0
H2572 H 0.85981 0.77136 0.48547 0.0
H2573 H 0.84801 0.7064 0.48353 0.0
H2574 H 0.83185 0.65585 0.55667 0.0
H2575 H 0.84667 0.67643 0.53206 0.0
H2576 H 0.86756 0.74653 0.5353 0.0
C2577 C 0.86714 0.76636 0.47626 0.0
C2578 C 0.8525 0.7153 0.49478 0.0
C2579 C 0.87214 0.77664 0.46128 0.0
C2580 C 0.83307 0.67132 0.55574 0.0
C2581 C 0.84144 0.6831 0.54159 0.0
C2582 C 0.86294 0.73752 0.52412 0.0
C2583 C 0.87091 0.74935 0.47911 0.0
C2584 C 0.86441 0.73763 0.49468 0.0
C2585 C 0.84304 0.70315 0.53979 0.0
C2586 C 0.85074 0.71512 0.52426 0.0
H2587 H 0.89251 0.74842 0.44255 0.0
H2588 H 0.88349 0.73021 0.46869 0.0
H2589 H 0.87891 0.76586 0.50979 0.0
H2590 H 0.82338 0.7062 0.57674 0.0
H2591 H 0.83732 0.72656 0.55185 0.0
loop_
_geom_bond_atom_site_label_1
_geom_bond_atom_site_label_2
_geom_bond_distance
_geom_bond_site_symmetry_2
_ccdc_geom_bond_type
H0 C5 0.930 . S
H1 C8 0.930 . S
H2 C10 0.930 . S
H3 C4 1.016 . S
C4 H3 1.016 . S
C4 N11 1.286 . S
C5 H0 0.930 . S
C5 C6 1.397 . S
C5 C7 1.361 . S
C6 C5 1.397 . S
C6 C10 1.390 . S
C7 C5 1.361 . S
C7 C8 1.393 . S
C7 N11 1.413 . S
C8 H1 0.930 . S
C8 C7 1.393 . S
C8 C9 1.399 . S
C9 C8 1.399 . S
C9 C10 1.381 . S
C10 H2 0.930 . S
C10 C6 1.390 . S
C10 C9 1.381 . S
N11 C4 1.286 . S
N11 C7 1.413 . S
H12 C17 0.930 . S
H13 C20 0.930 . S
H14 C22 0.930 . S
H15 C16 1.016 . S
C16 H15 1.016 . S
C16 N23 1.286 . S
C17 H12 0.930 . S
C17 C18 1.397 . S
C17 C19 1.361 . S
C18 C17 1.397 . S
C18 C22 1.390 . S
C19 C17 1.361 . S
C19 C20 1.393 . S
C19 N23 1.413 . S
C20 H13 0.930 . S
C20 C19 1.393 . S
C20 C21 1.399 . S
C21 C20 1.399 . S
C21 C22 1.381 . S
C22 H14 0.930 . S
C22 C18 1.390 . S
C22 C21 1.381 . S
N23 C16 1.286 . S
N23 C19 1.413 . S
H24 C29 0.930 . S
H25 C32 0.930 . S
H26 C34 0.930 . S
H27 C28 1.016 . S
C28 H27 1.016 . S
C28 N35 1.286 . S
C29 H24 0.930 . S
C29 C30 1.397 . S
C29 C31 1.361 . S
C30 C29 1.397 . S
C30 C34 1.390 . S
C31 C29 1.361 . S
C31 C32 1.393 . S
C31 N35 1.413 . S
C32 H25 0.930 . S
C32 C31 1.393 . S
C32 C33 1.399 . S
C33 C32 1.399 . S
C33 C34 1.381 . S
C34 H26 0.930 . S
C34 C30 1.390 . S
C34 C33 1.381 . S
N35 C28 1.286 . S
N35 C31 1.413 . S
H36 C41 0.930 . S
H37 C44 0.930 . S
H38 C46 0.930 . S
H39 C40 1.016 . S
C40 H39 1.016 . S
C40 N47 1.286 . S
C41 H36 0.930 . S
C41 C42 1.397 . S
C41 C43 1.361 . S
C42 C41 1.397 . S
C42 C46 1.390 . S
C43 C41 1.361 . S
C43 C44 1.393 . S
C43 N47 1.413 . S
C44 H37 0.930 . S
C44 C43 1.393 . S
C44 C45 1.399 . S
C45 C44 1.399 . S
C45 C46 1.381 . S
C46 H38 0.930 . S
C46 C42 1.390 . S
C46 C45 1.381 . S
N47 C40 1.286 . S
N47 C43 1.413 . S
H48 C53 0.930 . S
H49 C56 0.930 . S
H50 C58 0.930 . S
H51 C52 1.016 . S
C52 H51 1.016 . S
C52 N59 1.286 . S
C53 H48 0.930 . S
C53 C54 1.397 . S
C53 C55 1.361 . S
C54 C53 1.397 . S
C54 C58 1.390 . S
C55 C53 1.361 . S
C55 C56 1.393 . S
C55 N59 1.413 . S
C56 H49 0.930 . S
C56 C55 1.393 . S
C56 C57 1.399 . S
C57 C56 1.399 . S
C57 C58 1.381 . S
C58 H50 0.930 . S
C58 C54 1.390 . S
C58 C57 1.381 . S
N59 C52 1.286 . S
N59 C55 1.413 . S
H60 C65 0.930 . S
H61 C68 0.930 . S
H62 C70 0.930 . S
H63 C64 1.016 . S
C64 H63 1.016 . S
C64 N71 1.286 . S
C65 H60 0.930 . S
C65 C66 1.397 . S
C65 C67 1.361 . S
C66 C65 1.397 . S
C66 C70 1.390 . S
C67 C65 1.361 . S
C67 C68 1.393 . S
C67 N71 1.413 . S
C68 H61 0.930 . S
C68 C67 1.393 . S
C68 C69 1.399 . S
C69 C68 1.399 . S
C69 C70 1.381 . S
C70 H62 0.930 . S
C70 C66 1.390 . S
C70 C69 1.381 . S
N71 C64 1.286 . S
N71 C67 1.413 . S
H72 C77 0.930 . S
H73 C80 0.930 . S
H74 C82 0.930 . S
H75 C76 1.016 . S
C76 H75 1.016 . S
C76 N83 1.286 . S
C77 H72 0.930 . S
C77 C78 1.397 . S
C77 C79 1.361 . S
C78 C77 1.397 . S
C78 C82 1.390 . S
C79 C77 1.361 . S
C79 C80 1.393 . S
C79 N83 1.413 . S
C80 H73 0.930 . S
C80 C79 1.393 . S
C80 C81 1.399 . S
C81 C80 1.399 . S
C81 C82 1.381 . S
C82 H74 0.930 . S
C82 C78 1.390 . S
C82 C81 1.381 . S
N83 C76 1.286 . S
N83 C79 1.413 . S
H84 C89 0.930 . S
H85 C92 0.930 . S
H86 C94 0.930 . S
H87 C88 1.016 . S
C88 H87 1.016 . S
C88 N95 1.286 . S
C89 H84 0.930 . S
C89 C90 1.397 . S
C89 C91 1.361 . S
C90 C89 1.397 . S
C90 C94 1.390 . S
C91 C89 1.361 . S
C91 C92 1.393 . S
C91 N95 1.413 . S
C92 H85 0.930 . S
C92 C91 1.393 . S
C92 C93 1.399 . S
C93 C92 1.399 . S
C93 C94 1.381 . S
C94 H86 0.930 . S
C94 C90 1.390 . S
C94 C93 1.381 . S
N95 C88 1.286 . S
N95 C91 1.413 . S
H96 C101 0.930 . S
H97 C104 0.930 . S
H98 C106 0.930 . S
H99 C100 1.016 . S
C100 H99 1.016 . S
C100 N107 1.286 . S
C101 H96 0.930 . S
C101 C102 1.397 . S
C101 C103 1.361 . S
C102 C101 1.397 . S
C102 C106 1.390 . S
C103 C101 1.361 . S
C103 C104 1.393 . S
C103 N107 1.413 . S
C104 H97 0.930 . S
C104 C103 1.393 . S
C104 C105 1.399 . S
C105 C104 1.399 . S
C105 C106 1.381 . S
C106 H98 0.930 . S
C106 C102 1.390 . S
C106 C105 1.381 . S
N107 C100 1.286 . S
N107 C103 1.413 . S
H108 C113 0.930 . S
H109 C116 0.930 . S
H110 C118 0.930 . S
H111 C112 1.016 . S
C112 H111 1.016 . S
C112 N119 1.286 . S
C113 H108 0.930 . S
C113 C114 1.397 . S
C113 C115 1.361 . S
C114 C113 1.397 . S
C114 C118 1.390 . S
C115 C113 1.361 . S
C115 C116 1.393 . S
C115 N119 1.413 . S
C116 H109 0.930 . S
C116 C115 1.393 . S
C116 C117 1.399 . S
C117 C116 1.399 . S
C117 C118 1.381 . S
C118 H110 0.930 . S
C118 C114 1.390 . S
C118 C117 1.381 . S
N119 C112 1.286 . S
N119 C115 1.413 . S
H120 C125 0.930 . S
H121 C128 0.930 . S
H122 C130 0.930 . S
H123 C124 1.016 . S
C124 H123 1.016 . S
C124 N131 1.286 . S
C125 H120 0.930 . S
C125 C126 1.397 . S
C125 C127 1.361 . S
C126 C125 1.397 . S
C126 C130 1.390 . S
C127 C125 1.361 . S
C127 C128 1.393 . S
C127 N131 1.413 . S
C128 H121 0.930 . S
C128 C127 1.393 . S
C128 C129 1.399 . S
C129 C128 1.399 . S
C129 C130 1.381 . S
C130 H122 0.930 . S
C130 C126 1.390 . S
C130 C129 1.381 . S
N131 C124 1.286 . S
N131 C127 1.413 . S
H132 C137 0.930 . S
H133 C140 0.930 . S
H134 C142 0.930 . S
H135 C136 1.016 . S
C136 H135 1.016 . S
C136 N143 1.286 . S
C137 H132 0.930 . S
C137 C138 1.397 . S
C137 C139 1.361 . S
C138 C137 1.397 . S
C138 C142 1.390 . S
C139 C137 1.361 . S
C139 C140 1.393 . S
C139 N143 1.413 . S
C140 H133 0.930 . S
C140 C139 1.393 . S
C140 C141 1.399 . S
C141 C140 1.399 . S
C141 C142 1.381 . S
C142 H134 0.930 . S
C142 C138 1.390 . S
C142 C141 1.381 . S
N143 C136 1.286 . S
N143 C139 1.413 . S
H144 C149 0.930 . S
H145 C152 0.930 . S
H146 C154 0.930 . S
H147 C148 1.016 . S
C148 H147 1.016 . S
C148 N155 1.286 . S
C149 H144 0.930 . S
C149 C150 1.397 . S
C149 C151 1.361 . S
C150 C149 1.397 . S
C150 C154 1.390 . S
C151 C149 1.361 . S
C151 C152 1.393 . S
C151 N155 1.413 . S
C152 H145 0.930 . S
C152 C151 1.393 . S
C152 C153 1.399 . S
C153 C152 1.399 . S
C153 C154 1.381 . S
C154 H146 0.930 . S
C154 C150 1.390 . S
C154 C153 1.381 . S
N155 C148 1.286 . S
N155 C151 1.413 . S
H156 C161 0.930 . S
H157 C164 0.930 . S
H158 C166 0.930 . S
H159 C160 1.016 . S
C160 H159 1.016 . S
C160 N167 1.286 . S
C161 H156 0.930 . S
C161 C162 1.397 . S
C161 C163 1.361 . S
C162 C161 1.397 . S
C162 C166 1.390 . S
C163 C161 1.361 . S
C163 C164 1.393 . S
C163 N167 1.413 . S
C164 H157 0.930 . S
C164 C163 1.393 . S
C164 C165 1.399 . S
C165 C164 1.399 . S
C165 C166 1.381 . S
C166 H158 0.930 . S
C166 C162 1.390 . S
C166 C165 1.381 . S
N167 C160 1.286 . S
N167 C163 1.413 . S
H168 C173 0.930 . S
H169 C176 0.930 . S
H170 C178 0.930 . S
H171 C172 1.016 . S
C172 H171 1.016 . S
C172 N179 1.286 . S
C173 H168 0.930 . S
C173 C174 1.397 . S
C173 C175 1.361 . S
C174 C173 1.397 . S
C174 C178 1.390 . S
C175 C173 1.361 . S
C175 C176 1.393 . S
C175 N179 1.413 . S
C176 H169 0.930 . S
C176 C175 1.393 . S
C176 C177 1.399 . S
C177 C176 1.399 . S
C177 C178 1.381 . S
C178 H170 0.930 . S
C178 C174 1.390 . S
C178 C177 1.381 . S
N179 C172 1.286 . S
N179 C175 1.413 . S
H180 C185 0.930 . S
H181 C188 0.930 . S
H182 C190 0.930 . S
H183 C184 1.016 . S
C184 H183 1.016 . S
C184 N191 1.286 . S
C185 H180 0.930 . S
C185 C186 1.397 . S
C185 C187 1.361 . S
C186 C185 1.397 . S
C186 C190 1.390 . S
C187 C185 1.361 . S
C187 C188 1.393 . S
C187 N191 1.413 . S
C188 H181 0.930 . S
C188 C187 1.393 . S
C188 C189 1.399 . S
C189 C188 1.399 . S
C189 C190 1.381 . S
C190 H182 0.930 . S
C190 C186 1.390 . S
C190 C189 1.381 . S
N191 C184 1.286 . S
N191 C187 1.413 . S
H192 C197 0.930 . S
H193 C200 0.930 . S
H194 C202 0.930 . S
H195 C196 1.016 . S
C196 H195 1.016 . S
C196 N203 1.286 . S
C197 H192 0.930 . S
C197 C198 1.397 . S
C197 C199 1.361 . S
C198 C197 1.397 . S
C198 C202 1.390 . S
C199 C197 1.361 . S
C199 C200 1.393 . S
C199 N203 1.413 . S
C200 H193 0.930 . S
C200 C199 1.393 . S
C200 C201 1.399 . S
C201 C200 1.399 . S
C201 C202 1.381 . S
C202 H194 0.930 . S
C202 C198 1.390 . S
C202 C201 1.381 . S
N203 C196 1.286 . S
N203 C199 1.413 . S
H204 C209 0.930 . S
H205 C212 0.930 . S
H206 C214 0.930 . S
H207 C208 1.016 . S
C208 H207 1.016 . S
C208 N215 1.286 . S
C209 H204 0.930 . S
C209 C210 1.397 . S
C209 C211 1.361 . S
C210 C209 1.397 . S
C210 C214 1.390 . S
C211 C209 1.361 . S
C211 C212 1.393 . S
C211 N215 1.413 . S
C212 H205 0.930 . S
C212 C211 1.393 . S
C212 C213 1.399 . S
C213 C212 1.399 . S
C213 C214 1.381 . S
C214 H206 0.930 . S
C214 C210 1.390 . S
C214 C213 1.381 . S
N215 C208 1.286 . S
N215 C211 1.413 . S
Eu216 N247 2.657 . S
Eu216 N254 2.609 . S
Eu216 O260 2.558 . S
Eu216 O261 2.612 1_566 S
Eu216 O263 2.339 1_565 S
Eu216 O264 2.563 1_565 S
Eu216 O265 2.419 1_565 S
Eu216 O267 2.380 1_556 S
Eu216 O268 2.432 1_556 S
Eu216 C280 2.848 1_565 S
C217 C220 1.429 . S
C217 C221 1.411 . S
C217 N224 1.377 . S
C218 C220 1.420 . S
C218 C222 1.423 . S
C218 C230 1.392 . S
C219 C221 1.420 . S
C219 C222 1.351 . S
C219 H242 0.931 . S
C220 C217 1.429 . S
C220 C218 1.420 . S
C220 N228 1.362 . S
C221 C217 1.411 . S
C221 C219 1.420 . S
C221 C226 1.395 . S
C222 C218 1.423 . S
C222 C219 1.351 . S
C222 H234 0.930 . S
C223 C225 1.400 . S
C223 C226 1.386 . S
C223 H235 0.930 . S
N224 C217 1.377 . S
N224 C225 1.321 . S
N224 Eu227 2.609 . S
C225 C223 1.400 . S
C225 N224 1.321 . S
C225 H232 0.930 . S
C226 C221 1.395 . S
C226 C223 1.386 . S
C226 H245 0.930 . S
Eu227 N224 2.609 . S
Eu227 N228 2.657 . S
Eu227 O261 2.380 . S
Eu227 O262 2.432 . S
Eu227 O266 2.558 . S
Eu227 O267 2.612 1_545 S
Eu227 O269 2.339 1_545 S
Eu227 O270 2.563 1_545 S
Eu227 O271 2.419 1_545 S
Eu227 C291 2.848 . S
N228 C220 1.362 . S
N228 Eu227 2.657 . S
N228 C229 1.334 . S
C229 N228 1.334 . S
C229 C231 1.413 . S
C229 H236 0.929 . S
C230 C218 1.392 . S
C230 C231 1.367 . S
C230 H238 0.930 . S
C231 C229 1.413 . S
C231 C230 1.367 . S
C231 H233 0.930 . S
H232 C225 0.930 . S
H233 C231 0.930 . S
H234 C222 0.930 . S
H235 C223 0.930 . S
H236 C229 0.929 . S
H237 C251 0.930 . S
H238 C230 0.930 . S
H239 C257 0.930 . S
H240 C248 0.913 1_545 S
H241 C255 0.930 . S
H242 C219 0.931 . S
H243 C249 0.930 . S
H244 C282 0.930 . S
H245 C226 0.930 . S
H246 C281 0.931 . S
N247 Eu216 2.657 . S
N247 C248 1.334 . S
N247 C252 1.362 . S
C248 H240 0.913 1_565 S
C248 N247 1.334 . S
C248 C251 1.413 . S
C249 H243 0.930 . S
C249 C250 1.392 . S
C249 C251 1.367 . S
C250 C249 1.392 . S
C250 C252 1.420 . S
C250 C282 1.423 . S
C251 H237 0.930 . S
C251 C248 1.413 . S
C251 C249 1.367 . S
C252 N247 1.362 . S
C252 C250 1.420 . S
C252 C256 1.429 . S
H253 C258 0.930 . S
N254 Eu216 2.609 . S
N254 C256 1.377 . S
N254 C257 1.321 . S
C255 H241 0.930 . S
C255 C257 1.400 . S
C255 C258 1.386 . S
C256 C252 1.429 . S
C256 N254 1.377 . S
C256 C259 1.411 . S
C257 H239 0.930 . S
C257 N254 1.321 . S
C257 C255 1.400 . S
C258 H253 0.930 . S
C258 C255 1.386 . S
C258 C259 1.395 . S
C259 C256 1.411 . S
C259 C258 1.395 . S
C259 C281 1.420 . S
O260 Eu216 2.558 . S
O260 C280 1.257 1_565 S
O261 Eu216 2.612 1_544 S
O261 Eu227 2.380 . S
O261 C272 1.276 1_554 S
O262 Eu227 2.432 . S
O262 C279 1.264 . S
O263 Eu216 2.339 1_545 S
O263 C279 1.254 1_556 S
O264 Eu216 2.563 1_545 S
O264 C272 1.235 . S
O265 Eu216 2.419 1_545 S
O265 C280 1.249 . S
O266 Eu227 2.558 . S
O266 C291 1.257 . S
O267 Eu216 2.380 1_554 S
O267 Eu227 2.612 1_565 S
O267 C283 1.276 . S
O268 Eu216 2.432 1_554 S
O268 C290 1.264 . S
O269 Eu227 2.339 1_565 S
O269 C290 1.254 . S
O270 Eu227 2.563 1_565 S
O270 C283 1.235 . S
O271 Eu227 2.419 1_565 S
O271 C291 1.249 1_565 S
C272 O261 1.276 1_556 S
C272 O264 1.235 . S
C273 C275 1.393 . S
C273 C277 1.395 1_545 S
C273 C280 1.492 . S
C274 C275 1.392 . S
C274 C276 1.386 . S
C275 C273 1.393 . S
C275 C274 1.392 . S
C275 H292 0.930 . S
C276 C274 1.386 . S
C276 C278 1.355 1_545 S
C276 H293 0.930 . S
C277 C273 1.395 1_565 S
C277 C278 1.387 . S
C277 H294 0.930 . S
C278 C276 1.355 1_565 S
C278 C277 1.387 . S
C278 H295 0.963 . S
C279 O262 1.264 . S
C279 O263 1.254 1_554 S
C280 Eu216 2.848 1_545 S
C280 O260 1.257 1_545 S
C280 O265 1.249 . S
C280 C273 1.492 . S
C281 H246 0.931 . S
C281 C259 1.420 . S
C281 C282 1.351 . S
C282 H244 0.930 . S
C282 C250 1.423 . S
C282 C281 1.351 . S
C283 O267 1.276 . S
C283 O270 1.235 . S
C284 C285 1.337 1_545 S
C284 C288 1.442 . S
C284 C291 1.501 . S
C285 C284 1.337 1_565 S
C285 C286 1.392 . S
C285 H296 0.930 . S
C286 C285 1.392 . S
C286 C287 1.386 . S
C287 C286 1.386 . S
C287 C289 1.395 1_565 S
C287 H297 0.930 . S
C288 C284 1.442 . S
C288 C289 1.379 . S
C288 H298 0.930 . S
C289 C287 1.395 1_545 S
C289 C288 1.379 . S
C289 H299 0.930 . S
C290 O268 1.264 . S
C290 O269 1.254 . S
C291 Eu227 2.848 . S
C291 O266 1.257 . S
C291 O271 1.249 1_545 S
C291 C284 1.501 . S
H292 C275 0.930 . S
H293 C276 0.930 . S
H294 C277 0.930 . S
H295 C278 0.963 . S
H296 C285 0.930 . S
H297 C287 0.930 . S
H298 C288 0.930 . S
H299 C289 0.930 . S
Eu300 N331 2.657 . S
Eu300 N338 2.609 . S
Eu300 O344 2.558 . S
Eu300 O345 2.612 1_456 S
Eu300 O347 2.339 1_455 S
Eu300 O348 2.563 1_455 S
Eu300 O349 2.419 . S
Eu300 O351 2.380 1_556 S
Eu300 O352 2.432 1_556 S
Eu300 C364 2.848 . S
C301 C304 1.429 . S
C301 C305 1.411 . S
C301 N308 1.377 . S
C302 C304 1.420 . S
C302 C306 1.423 . S
C302 C314 1.392 . S
C303 C305 1.420 . S
C303 C306 1.351 . S
C303 H326 0.931 . S
C304 C301 1.429 . S
C304 C302 1.420 . S
C304 N312 1.362 . S
C305 C301 1.411 . S
C305 C303 1.420 . S
C305 C310 1.395 . S
C306 C302 1.423 . S
C306 C303 1.351 . S
C306 H318 0.930 . S
C307 C309 1.400 . S
C307 C310 1.386 . S
C307 H319 0.930 . S
N308 C301 1.377 . S
N308 C309 1.321 . S
N308 Eu311 2.609 . S
C309 C307 1.400 . S
C309 N308 1.321 . S
C309 H316 0.930 . S
C310 C305 1.395 . S
C310 C307 1.386 . S
C310 H329 0.930 . S
Eu311 N308 2.609 . S
Eu311 N312 2.657 . S
Eu311 O345 2.380 . S
Eu311 O346 2.432 . S
Eu311 O350 2.558 . S
Eu311 O351 2.612 1_655 S
Eu311 O353 2.339 1_655 S
Eu311 O354 2.563 1_655 S
Eu311 O355 2.419 1_655 S
Eu311 C375 2.848 1_655 S
N312 C304 1.362 . S
N312 Eu311 2.657 . S
N312 C313 1.334 . S
C313 N312 1.334 . S
C313 C315 1.413 . S
C313 H320 0.887 1_655 S
C314 C302 1.392 . S
C314 C315 1.367 . S
C314 H322 0.930 . S
C315 C313 1.413 . S
C315 C314 1.367 . S
C315 H317 0.930 . S
H316 C309 0.930 . S
H317 C315 0.930 . S
H318 C306 0.930 . S
H319 C307 0.930 . S
H320 C313 0.887 1_455 S
H321 C335 0.930 . S
H322 C314 0.930 . S
H323 C341 0.930 . S
H324 C332 0.929 . S
H325 C339 0.930 . S
H326 C303 0.931 . S
H327 C333 0.930 . S
H328 C366 0.930 . S
H329 C310 0.930 . S
H330 C365 0.931 . S
N331 Eu300 2.657 . S
N331 C332 1.334 . S
N331 C336 1.362 . S
C332 H324 0.929 . S
C332 N331 1.334 . S
C332 C335 1.413 . S
C333 H327 0.930 . S
C333 C334 1.392 . S
C333 C335 1.367 . S
C334 C333 1.392 . S
C334 C336 1.420 . S
C334 C366 1.423 . S
C335 H321 0.930 . S
C335 C332 1.413 . S
C335 C333 1.367 . S
C336 N331 1.362 . S
C336 C334 1.420 . S
C336 C340 1.429 . S
H337 C342 0.930 . S
N338 Eu300 2.609 . S
N338 C340 1.377 . S
N338 C341 1.321 . S
C339 H325 0.930 . S
C339 C341 1.400 . S
C339 C342 1.386 . S
C340 C336 1.429 . S
C340 N338 1.377 . S
C340 C343 1.411 . S
C341 H323 0.930 . S
C341 N338 1.321 . S
C341 C339 1.400 . S
C342 H337 0.930 . S
C342 C339 1.386 . S
C342 C343 1.395 . S
C343 C340 1.411 . S
C343 C342 1.395 . S
C343 C365 1.420 . S
O344 Eu300 2.558 . S
O344 C364 1.257 . S
O345 Eu300 2.612 1_654 S
O345 Eu311 2.380 . S
O345 C356 1.276 1_554 S
O346 Eu311 2.432 . S
O346 C363 1.264 . S
O347 Eu300 2.339 1_655 S
O347 C363 1.254 1_556 S
O348 Eu300 2.563 1_655 S
O348 C356 1.235 . S
O349 Eu300 2.419 . S
O349 C364 1.249 . S
O350 Eu311 2.558 . S
O350 C375 1.257 1_655 S
O351 Eu300 2.380 1_554 S
O351 Eu311 2.612 1_455 S
O351 C367 1.276 . S
O352 Eu300 2.432 1_554 S
O352 C374 1.264 . S
O353 Eu311 2.339 1_455 S
O353 C374 1.254 . S
O354 Eu311 2.563 1_455 S
O354 C367 1.235 . S
O355 Eu311 2.419 1_455 S
O355 C375 1.249 . S
C356 O345 1.276 1_556 S
C356 O348 1.235 . S
C357 C359 1.393 1_455 S
C357 C361 1.395 . S
C357 C364 1.492 . S
C358 C359 1.392 . S
C358 C360 1.386 . S
C359 C357 1.393 1_655 S
C359 C358 1.392 . S
C359 H376 0.930 . S
C360 C358 1.386 . S
C360 C362 1.395 1_655 S
C360 H377 0.930 . S
C361 C357 1.395 . S
C361 C362 1.379 . S
C361 H378 0.930 . S
C362 C360 1.395 1_455 S
C362 C361 1.379 . S
C362 H379 0.930 . S
C363 O346 1.264 . S
C363 O347 1.254 1_554 S
C364 Eu300 2.848 . S
C364 O344 1.257 . S
C364 O349 1.249 . S
C364 C357 1.492 . S
C365 H330 0.931 . S
C365 C343 1.420 . S
C365 C366 1.351 . S
C366 H328 0.930 . S
C366 C334 1.423 . S
C366 C365 1.351 . S
C367 O351 1.276 . S
C367 O354 1.235 . S
C368 C369 1.393 . S
C368 C372 1.395 1_455 S
C368 C375 1.492 . S
C369 C368 1.393 . S
C369 C370 1.392 . S
C369 H380 0.930 . S
C370 C369 1.392 . S
C370 C371 1.386 . S
C371 C370 1.386 . S
C371 C373 1.395 1_455 S
C371 H381 0.930 . S
C372 C368 1.395 1_655 S
C372 C373 1.379 . S
C372 H382 0.930 . S
C373 C371 1.395 1_655 S
C373 C372 1.379 . S
C373 H383 0.930 . S
C374 O352 1.264 . S
C374 O353 1.254 . S
C375 Eu311 2.848 1_455 S
C375 O350 1.257 1_455 S
C375 O355 1.249 . S
C375 C368 1.492 . S
H376 C359 0.930 . S
H377 C360 0.930 . S
H378 C361 0.930 . S
H379 C362 0.930 . S
H380 C369 0.930 . S
H381 C371 0.930 . S
H382 C372 0.930 . S
H383 C373 0.930 . S
Eu384 N415 2.657 . S
Eu384 N422 2.609 . S
Eu384 O428 2.558 . S
Eu384 O429 2.612 . S
Eu384 O431 2.339 . S
Eu384 O432 2.563 . S
Eu384 O433 2.419 . S
Eu384 O435 2.380 . S
Eu384 O436 2.432 . S
Eu384 C448 2.848 . S
C385 C388 1.429 . S
C385 C389 1.411 . S
C385 N392 1.377 . S
C386 C388 1.420 . S
C386 C390 1.423 . S
C386 C398 1.392 . S
C387 C389 1.420 . S
C387 C390 1.351 . S
C387 H410 0.931 . S
C388 C385 1.429 . S
C388 C386 1.420 . S
C388 N396 1.362 . S
C389 C385 1.411 . S
C389 C387 1.420 . S
C389 C394 1.395 . S
C390 C386 1.423 . S
C390 C387 1.351 . S
C390 H402 0.930 . S
C391 C393 1.400 . S
C391 C394 1.386 . S
C391 H403 0.930 . S
N392 C385 1.377 . S
N392 C393 1.321 . S
N392 Eu395 2.609 . S
C393 C391 1.400 . S
C393 N392 1.321 . S
C393 H400 0.930 . S
C394 C389 1.395 . S
C394 C391 1.386 . S
C394 H413 0.930 . S
Eu395 N392 2.609 . S
Eu395 N396 2.657 . S
Eu395 O429 2.380 1_556 S
Eu395 O430 2.432 1_556 S
Eu395 O434 2.558 . S
Eu395 O435 2.612 1_556 S
Eu395 O437 2.339 . S
Eu395 O438 2.563 . S
Eu395 O439 2.419 . S
Eu395 C459 2.848 . S
N396 C388 1.362 . S
N396 Eu395 2.657 . S
N396 C397 1.334 . S
C397 N396 1.334 . S
C397 C399 1.413 . S
C397 H404 0.929 . S
C398 C386 1.392 . S
C398 C399 1.367 . S
C398 H406 0.930 . S
C399 C397 1.413 . S
C399 C398 1.367 . S
C399 H401 0.930 . S
H400 C393 0.930 . S
H401 C399 0.930 . S
H402 C390 0.930 . S
H403 C391 0.930 . S
H404 C397 0.929 . S
H405 C419 0.930 . S
H406 C398 0.930 . S
H407 C425 0.930 . S
H408 C416 0.929 . S
H409 C423 0.930 . S
H410 C387 0.931 . S
H411 C417 0.930 . S
H412 C450 0.930 . S
H413 C394 0.930 . S
H414 C449 0.931 . S
N415 Eu384 2.657 . S
N415 C416 1.334 . S
N415 C420 1.362 . S
C416 H408 0.929 . S
C416 N415 1.334 . S
C416 C419 1.413 . S
C417 H411 0.930 . S
C417 C418 1.392 . S
C417 C419 1.367 . S
C418 C417 1.392 . S
C418 C420 1.420 . S
C418 C450 1.423 . S
C419 H405 0.930 . S
C419 C416 1.413 . S
C419 C417 1.367 . S
C420 N415 1.362 . S
C420 C418 1.420 . S
C420 C424 1.429 . S
H421 C426 0.930 . S
N422 Eu384 2.609 . S
N422 C424 1.377 . S
N422 C425 1.321 . S
C423 H409 0.930 . S
C423 C425 1.400 . S
C423 C426 1.386 . S
C424 C420 1.429 . S
C424 N422 1.377 . S
C424 C427 1.411 . S
C425 H407 0.930 . S
C425 N422 1.321 . S
C425 C423 1.400 . S
C426 H421 0.930 . S
C426 C423 1.386 . S
C426 C427 1.395 . S
C427 C424 1.411 . S
C427 C426 1.395 . S
C427 C449 1.420 . S
O428 Eu384 2.558 . S
O428 C448 1.257 . S
O429 Eu384 2.612 . S
O429 Eu395 2.380 1_554 S
O429 C440 1.276 . S
O430 Eu395 2.432 1_554 S
O430 C447 1.264 . S
O431 Eu384 2.339 . S
O431 C447 1.254 . S
O432 Eu384 2.563 . S
O432 C440 1.235 . S
O433 Eu384 2.419 . S
O433 C448 1.249 . S
O434 Eu395 2.558 . S
O434 C459 1.257 . S
O435 Eu384 2.380 . S
O435 Eu395 2.612 1_554 S
O435 C451 1.238 1_554 S
O436 Eu384 2.432 . S
O436 C458 1.264 . S
O437 Eu395 2.339 . S
O437 C458 1.254 1_556 S
O438 Eu395 2.563 . S
O438 C451 1.286 . S
O439 Eu395 2.419 . S
O439 C459 1.249 . S
C440 O429 1.276 . S
C440 O432 1.235 . S
C441 C443 1.393 . S
C441 C445 1.395 . S
C441 C448 1.492 . S
C442 C443 1.392 . S
C442 C444 1.386 . S
C443 C441 1.393 . S
C443 C442 1.392 . S
C443 H460 0.930 . S
C444 C442 1.386 . S
C444 C446 1.395 . S
C444 H461 0.930 . S
C445 C441 1.395 . S
C445 C446 1.379 . S
C445 H462 0.930 . S
C446 C444 1.395 . S
C446 C445 1.379 . S
C446 H463 0.930 . S
C447 O430 1.264 . S
C447 O431 1.254 . S
C448 Eu384 2.848 . S
C448 O428 1.257 . S
C448 O433 1.249 . S
C448 C441 1.492 . S
C449 H414 0.931 . S
C449 C427 1.420 . S
C449 C450 1.351 . S
C450 H412 0.930 . S
C450 C418 1.423 . S
C450 C449 1.351 . S
C451 O435 1.238 1_556 S
C451 O438 1.286 . S
C452 C453 1.393 . S
C452 C456 1.395 . S
C452 C459 1.492 . S
C453 C452 1.393 . S
C453 C454 1.392 . S
C453 H464 0.930 . S
C454 C453 1.392 . S
C454 C455 1.386 . S
C455 C454 1.386 . S
C455 C457 1.395 . S
C455 H465 0.930 . S
C456 C452 1.395 . S
C456 C457 1.379 . S
C456 H466 0.930 . S
C457 C455 1.395 . S
C457 C456 1.379 . S
C457 H467 0.930 . S
C458 O436 1.264 . S
C458 O437 1.254 1_554 S
C459 Eu395 2.848 . S
C459 O434 1.257 . S
C459 O439 1.249 . S
C459 C452 1.492 . S
H460 C443 0.930 . S
H461 C444 0.930 . S
H462 C445 0.930 . S
H463 C446 0.930 . S
H464 C453 0.930 . S
H465 C455 0.930 . S
H466 C456 0.930 . S
H467 C457 0.930 . S
Eu468 N499 2.657 . S
Eu468 N506 2.609 . S
Eu468 O512 2.558 . S
Eu468 O513 2.612 . S
Eu468 O515 2.339 . S
Eu468 O516 2.563 . S
Eu468 O517 2.419 . S
Eu468 O519 2.380 . S
Eu468 O520 2.432 . S
Eu468 C532 2.848 . S
C469 C472 1.429 . S
C469 C473 1.411 . S
C469 N476 1.377 . S
C470 C472 1.420 . S
C470 C474 1.423 . S
C470 C482 1.392 . S
C471 C473 1.420 . S
C471 C474 1.351 . S
C471 H494 0.931 . S
C472 C469 1.429 . S
C472 C470 1.420 . S
C472 N480 1.362 . S
C473 C469 1.411 . S
C473 C471 1.420 . S
C473 C478 1.395 . S
C474 C470 1.423 . S
C474 C471 1.351 . S
C474 H486 0.930 . S
C475 C477 1.400 . S
C475 C478 1.386 . S
C475 H487 0.930 . S
N476 C469 1.377 . S
N476 C477 1.321 . S
N476 Eu479 2.609 . S
C477 C475 1.400 . S
C477 N476 1.321 . S
C477 H484 0.930 . S
C478 C473 1.395 . S
C478 C475 1.386 . S
C478 H497 0.930 . S
Eu479 N476 2.609 . S
Eu479 N480 2.657 . S
Eu479 O513 2.380 . S
Eu479 O514 2.432 . S
Eu479 O518 2.558 . S
Eu479 O519 2.612 . S
Eu479 O521 2.339 . S
Eu479 O522 2.563 . S
Eu479 O523 2.419 . S
Eu479 C543 2.848 . S
N480 C472 1.362 . S
N480 Eu479 2.657 . S
N480 C481 1.334 . S
C481 N480 1.334 . S
C481 C483 1.413 . S
C481 H488 0.929 . S
C482 C470 1.392 . S
C482 C483 1.367 . S
C482 H490 0.930 . S
C483 C481 1.413 . S
C483 C482 1.367 . S
C483 H485 0.930 . S
H484 C477 0.930 . S
H485 C483 0.930 . S
H486 C474 0.930 . S
H487 C475 0.930 . S
H488 C481 0.929 . S
H489 C503 0.930 . S
H490 C482 0.930 . S
H491 C509 0.930 . S
H492 C500 0.929 . S
H493 C507 0.930 . S
H494 C471 0.931 . S
H495 C501 0.930 . S
H496 C534 0.930 . S
H497 C478 0.930 . S
H498 C533 0.931 . S
N499 Eu468 2.657 . S
N499 C500 1.334 . S
N499 C504 1.362 . S
C500 H492 0.929 . S
C500 N499 1.334 . S
C500 C503 1.413 . S
C501 H495 0.930 . S
C501 C502 1.392 . S
C501 C503 1.367 . S
C502 C501 1.392 . S
C502 C504 1.420 . S
C502 C534 1.423 . S
C503 H489 0.930 . S
C503 C500 1.413 . S
C503 C501 1.367 . S
C504 N499 1.362 . S
C504 C502 1.420 . S
C504 C508 1.429 . S
H505 C510 0.930 . S
N506 Eu468 2.609 . S
N506 C508 1.377 . S
N506 C509 1.321 . S
C507 H493 0.930 . S
C507 C509 1.400 . S
C507 C510 1.386 . S
C508 C504 1.429 . S
C508 N506 1.377 . S
C508 C511 1.411 . S
C509 H491 0.930 . S
C509 N506 1.321 . S
C509 C507 1.400 . S
C510 H505 0.930 . S
C510 C507 1.386 . S
C510 C511 1.395 . S
C511 C508 1.411 . S
C511 C510 1.395 . S
C511 C533 1.420 . S
O512 Eu468 2.558 . S
O512 C532 1.257 . S
O513 Eu468 2.612 . S
O513 Eu479 2.380 . S
O513 C524 1.276 . S
O514 Eu479 2.432 . S
O514 C531 1.264 . S
O515 Eu468 2.339 . S
O515 C531 1.254 . S
O516 Eu468 2.563 . S
O516 C524 1.235 . S
O517 Eu468 2.419 . S
O517 C532 1.249 . S
O518 Eu479 2.558 . S
O518 C543 1.257 . S
O519 Eu468 2.380 . S
O519 Eu479 2.612 . S
O519 C535 1.276 . S
O520 Eu468 2.432 . S
O520 C542 1.264 . S
O521 Eu479 2.339 . S
O521 C542 1.254 . S
O522 Eu479 2.563 . S
O522 C535 1.235 . S
O523 Eu479 2.419 . S
O523 C543 1.249 . S
C524 O513 1.276 . S
C524 O516 1.235 . S
C525 C527 1.393 . S
C525 C529 1.395 . S
C525 C532 1.492 . S
C526 C527 1.392 . S
C526 C528 1.386 . S
C527 C525 1.393 . S
C527 C526 1.392 . S
C527 H544 0.930 . S
C528 C526 1.386 . S
C528 C530 1.395 . S
C528 H545 0.930 . S
C529 C525 1.395 . S
C529 C530 1.379 . S
C529 H546 0.930 . S
C530 C528 1.395 . S
C530 C529 1.379 . S
C530 H547 0.930 . S
C531 O514 1.264 . S
C531 O515 1.254 . S
C532 Eu468 2.848 . S
C532 O512 1.257 . S
C532 O517 1.249 . S
C532 C525 1.492 . S
C533 H498 0.931 . S
C533 C511 1.420 . S
C533 C534 1.351 . S
C534 H496 0.930 . S
C534 C502 1.423 . S
C534 C533 1.351 . S
C535 O519 1.276 . S
C535 O522 1.235 . S
C536 C537 1.393 . S
C536 C540 1.395 . S
C536 C543 1.492 . S
C537 C536 1.393 . S
C537 C538 1.392 . S
C537 H548 0.930 . S
C538 C537 1.392 . S
C538 C539 1.386 . S
C539 C538 1.386 . S
C539 C541 1.395 . S
C539 H549 0.930 . S
C540 C536 1.395 . S
C540 C541 1.379 . S
C540 H550 0.930 . S
C541 C539 1.395 . S
C541 C540 1.379 . S
C541 H551 0.930 . S
C542 O520 1.264 . S
C542 O521 1.254 . S
C543 Eu479 2.848 . S
C543 O518 1.257 . S
C543 O523 1.249 . S
C543 C536 1.492 . S
H544 C527 0.930 . S
H545 C528 0.930 . S
H546 C529 0.930 . S
H547 C530 0.930 . S
H548 C537 0.930 . S
H549 C539 0.930 . S
H550 C540 0.930 . S
H551 C541 0.930 . S
Eu552 N583 2.657 . S
Eu552 N590 2.609 . S
Eu552 O596 2.558 . S
Eu552 O597 2.612 . S
Eu552 O599 2.339 . S
Eu552 O600 2.563 . S
Eu552 O601 2.419 . S
Eu552 O603 2.380 . S
Eu552 O604 2.432 . S
Eu552 C616 2.848 . S
C553 C556 1.429 . S
C553 C557 1.411 . S
C553 N560 1.377 . S
C554 C556 1.420 . S
C554 C558 1.423 . S
C554 C566 1.392 . S
C555 C557 1.420 . S
C555 C558 1.351 . S
C555 H578 0.931 . S
C556 C553 1.429 . S
C556 C554 1.420 . S
C556 N564 1.362 . S
C557 C553 1.411 . S
C557 C555 1.420 . S
C557 C562 1.395 . S
C558 C554 1.423 . S
C558 C555 1.351 . S
C558 H570 0.930 . S
C559 C561 1.400 . S
C559 C562 1.386 . S
C559 H571 0.930 . S
N560 C553 1.377 . S
N560 C561 1.321 . S
N560 Eu563 2.609 . S
C561 C559 1.400 . S
C561 N560 1.321 . S
C561 H568 0.930 . S
C562 C557 1.395 . S
C562 C559 1.386 . S
C562 H581 0.930 . S
Eu563 N560 2.609 . S
Eu563 N564 2.657 . S
Eu563 O597 2.380 . S
Eu563 O598 2.432 . S
Eu563 O602 2.558 . S
Eu563 O603 2.612 . S
Eu563 O605 2.339 . S
Eu563 O606 2.563 . S
Eu563 O607 2.419 . S
Eu563 C627 2.848 . S
N564 C556 1.362 . S
N564 Eu563 2.657 . S
N564 C565 1.334 . S
C565 N564 1.334 . S
C565 C567 1.413 . S
C565 H572 0.929 . S
C566 C554 1.392 . S
C566 C567 1.367 . S
C566 H574 0.930 . S
C567 C565 1.413 . S
C567 C566 1.367 . S
C567 H569 0.930 . S
H568 C561 0.930 . S
H569 C567 0.930 . S
H570 C558 0.930 . S
H571 C559 0.930 . S
H572 C565 0.929 . S
H573 C587 0.930 . S
H574 C566 0.930 . S
H575 C593 0.930 . S
H576 C584 0.929 . S
H577 C591 0.930 . S
H578 C555 0.931 . S
H579 C585 0.930 . S
H580 C618 0.930 . S
H581 C562 0.930 . S
H582 C617 0.931 . S
N583 Eu552 2.657 . S
N583 C584 1.334 . S
N583 C588 1.362 . S
C584 H576 0.929 . S
C584 N583 1.334 . S
C584 C587 1.413 . S
C585 H579 0.930 . S
C585 C586 1.392 . S
C585 C587 1.367 . S
C586 C585 1.392 . S
C586 C588 1.420 . S
C586 C618 1.423 . S
C587 H573 0.930 . S
C587 C584 1.413 . S
C587 C585 1.367 . S
C588 N583 1.362 . S
C588 C586 1.420 . S
C588 C592 1.429 . S
H589 C594 0.930 . S
N590 Eu552 2.609 . S
N590 C592 1.377 . S
N590 C593 1.321 . S
C591 H577 0.930 . S
C591 C593 1.400 . S
C591 C594 1.386 . S
C592 C588 1.429 . S
C592 N590 1.377 . S
C592 C595 1.411 . S
C593 H575 0.930 . S
C593 N590 1.321 . S
C593 C591 1.400 . S
C594 H589 0.930 . S
C594 C591 1.386 . S
C594 C595 1.395 . S
C595 C592 1.411 . S
C595 C594 1.395 . S
C595 C617 1.420 . S
O596 Eu552 2.558 . S
O596 C616 1.257 . S
O597 Eu552 2.612 . S
O597 Eu563 2.380 . S
O597 C608 1.276 . S
O598 Eu563 2.432 . S
O598 C615 1.264 . S
O599 Eu552 2.339 . S
O599 C615 1.254 . S
O600 Eu552 2.563 . S
O600 C608 1.235 . S
O601 Eu552 2.419 . S
O601 C616 1.249 . S
O602 Eu563 2.558 . S
O602 C627 1.257 . S
O603 Eu552 2.380 . S
O603 Eu563 2.612 . S
O603 C619 1.276 . S
O604 Eu552 2.432 . S
O604 C626 1.264 . S
O605 Eu563 2.339 . S
O605 C626 1.254 . S
O606 Eu563 2.563 . S
O606 C619 1.235 . S
O607 Eu563 2.419 . S
O607 C627 1.249 . S
C608 O597 1.276 . S
C608 O600 1.235 . S
C609 C611 1.393 . S
C609 C613 1.395 . S
C609 C616 1.492 . S
C610 C611 1.392 . S
C610 C612 1.386 . S
C611 C609 1.393 . S
C611 C610 1.392 . S
C611 H628 0.930 . S
C612 C610 1.386 . S
C612 C614 1.395 . S
C612 H629 0.930 . S
C613 C609 1.395 . S
C613 C614 1.379 . S
C613 H630 0.930 . S
C614 C612 1.395 . S
C614 C613 1.379 . S
C614 H631 0.930 . S
C615 O598 1.264 . S
C615 O599 1.254 . S
C616 Eu552 2.848 . S
C616 O596 1.257 . S
C616 O601 1.249 . S
C616 C609 1.492 . S
C617 H582 0.931 . S
C617 C595 1.420 . S
C617 C618 1.351 . S
C618 H580 0.930 . S
C618 C586 1.423 . S
C618 C617 1.351 . S
C619 O603 1.276 . S
C619 O606 1.235 . S
C620 C621 1.393 . S
C620 C624 1.395 . S
C620 C627 1.492 . S
C621 C620 1.393 . S
C621 C622 1.392 . S
C621 H632 0.930 . S
C622 C621 1.392 . S
C622 C623 1.386 . S
C623 C622 1.386 . S
C623 C625 1.395 . S
C623 H633 0.930 . S
C624 C620 1.395 . S
C624 C625 1.379 . S
C624 H634 0.930 . S
C625 C623 1.395 . S
C625 C624 1.379 . S
C625 H635 0.930 . S
C626 O604 1.264 . S
C626 O605 1.254 . S
C627 Eu563 2.848 . S
C627 O602 1.257 . S
C627 O607 1.249 . S
C627 C620 1.492 . S
H628 C611 0.930 . S
H629 C612 0.930 . S
H630 C613 0.930 . S
H631 C614 0.930 . S
H632 C621 0.930 . S
H633 C623 0.930 . S
H634 C624 0.930 . S
H635 C625 0.930 . S
Eu636 N667 2.657 . S
Eu636 N674 2.609 . S
Eu636 O680 2.558 . S
Eu636 O681 2.612 . S
Eu636 O683 2.339 . S
Eu636 O684 2.563 . S
Eu636 O685 2.419 . S
Eu636 O687 2.380 . S
Eu636 O688 2.432 . S
Eu636 C700 2.848 . S
C637 C640 1.429 . S
C637 C641 1.411 . S
C637 N644 1.377 . S
C638 C640 1.420 . S
C638 C642 1.423 . S
C638 C650 1.392 . S
C639 C641 1.420 . S
C639 C642 1.351 . S
C639 H662 0.931 . S
C640 C637 1.429 . S
C640 C638 1.420 . S
C640 N648 1.362 . S
C641 C637 1.411 . S
C641 C639 1.420 . S
C641 C646 1.395 . S
C642 C638 1.423 . S
C642 C639 1.351 . S
C642 H654 0.930 . S
C643 C645 1.400 . S
C643 C646 1.386 . S
C643 H655 0.930 . S
N644 C637 1.377 . S
N644 C645 1.321 . S
N644 Eu647 2.609 . S
C645 C643 1.400 . S
C645 N644 1.321 . S
C645 H652 0.930 . S
C646 C641 1.395 . S
C646 C643 1.386 . S
C646 H665 0.930 . S
Eu647 N644 2.609 . S
Eu647 N648 2.657 . S
Eu647 O681 2.380 . S
Eu647 O682 2.432 . S
Eu647 O686 2.558 . S
Eu647 O687 2.612 . S
Eu647 O689 2.339 . S
Eu647 O690 2.563 . S
Eu647 O691 2.419 . S
Eu647 C711 2.848 . S
N648 C640 1.362 . S
N648 Eu647 2.657 . S
N648 C649 1.334 . S
C649 N648 1.334 . S
C649 C651 1.413 . S
C649 H656 0.929 . S
C650 C638 1.392 . S
C650 C651 1.367 . S
C650 H658 0.930 . S
C651 C649 1.413 . S
C651 C650 1.367 . S
C651 H653 0.930 . S
H652 C645 0.930 . S
H653 C651 0.930 . S
H654 C642 0.930 . S
H655 C643 0.930 . S
H656 C649 0.929 . S
H657 C671 0.930 . S
H658 C650 0.930 . S
H659 C677 0.930 . S
H660 C668 0.929 . S
H661 C675 0.930 . S
H662 C639 0.931 . S
H663 C669 0.930 . S
H664 C702 0.930 . S
H665 C646 0.930 . S
H666 C701 0.931 . S
N667 Eu636 2.657 . S
N667 C668 1.334 . S
N667 C672 1.362 . S
C668 H660 0.929 . S
C668 N667 1.334 . S
C668 C671 1.413 . S
C669 H663 0.930 . S
C669 C670 1.392 . S
C669 C671 1.367 . S
C670 C669 1.392 . S
C670 C672 1.420 . S
C670 C702 1.423 . S
C671 H657 0.930 . S
C671 C668 1.413 . S
C671 C669 1.367 . S
C672 N667 1.362 . S
C672 C670 1.420 . S
C672 C676 1.429 . S
H673 C678 0.930 . S
N674 Eu636 2.609 . S
N674 C676 1.377 . S
N674 C677 1.321 . S
C675 H661 0.930 . S
C675 C677 1.400 . S
C675 C678 1.386 . S
C676 C672 1.429 . S
C676 N674 1.377 . S
C676 C679 1.411 . S
C677 H659 0.930 . S
C677 N674 1.321 . S
C677 C675 1.400 . S
C678 H673 0.930 . S
C678 C675 1.386 . S
C678 C679 1.395 . S
C679 C676 1.411 . S
C679 C678 1.395 . S
C679 C701 1.420 . S
O680 Eu636 2.558 . S
O680 C700 1.257 . S
O681 Eu636 2.612 . S
O681 Eu647 2.380 . S
O681 C692 1.276 . S
O682 Eu647 2.432 . S
O682 C699 1.264 . S
O683 Eu636 2.339 . S
O683 C699 1.254 . S
O684 Eu636 2.563 . S
O684 C692 1.235 . S
O685 Eu636 2.419 . S
O685 C700 1.249 . S
O686 Eu647 2.558 . S
O686 C711 1.257 . S
O687 Eu636 2.380 . S
O687 Eu647 2.612 . S
O687 C703 1.276 . S
O688 Eu636 2.432 . S
O688 C710 1.264 . S
O689 Eu647 2.339 . S
O689 C710 1.254 . S
O690 Eu647 2.563 . S
O690 C703 1.235 . S
O691 Eu647 2.419 . S
O691 C711 1.249 . S
C692 O681 1.276 . S
C692 O684 1.235 . S
C693 C695 1.393 . S
C693 C697 1.395 . S
C693 C700 1.492 . S
C694 C695 1.392 . S
C694 C696 1.386 . S
C695 C693 1.393 . S
C695 C694 1.392 . S
C695 H712 0.930 . S
C696 C694 1.386 . S
C696 C698 1.395 . S
C696 H713 0.930 . S
C697 C693 1.395 . S
C697 C698 1.379 . S
C697 H714 0.930 . S
C698 C696 1.395 . S
C698 C697 1.379 . S
C698 H715 0.930 . S
C699 O682 1.264 . S
C699 O683 1.254 . S
C700 Eu636 2.848 . S
C700 O680 1.257 . S
C700 O685 1.249 . S
C700 C693 1.492 . S
C701 H666 0.931 . S
C701 C679 1.420 . S
C701 C702 1.351 . S
C702 H664 0.930 . S
C702 C670 1.423 . S
C702 C701 1.351 . S
C703 O687 1.276 . S
C703 O690 1.235 . S
C704 C705 1.393 . S
C704 C708 1.395 . S
C704 C711 1.492 . S
C705 C704 1.393 . S
C705 C706 1.392 . S
C705 H716 0.930 . S
C706 C705 1.392 . S
C706 C707 1.386 . S
C707 C706 1.386 . S
C707 C709 1.395 . S
C707 H717 0.930 . S
C708 C704 1.395 . S
C708 C709 1.379 . S
C708 H718 0.930 . S
C709 C707 1.395 . S
C709 C708 1.379 . S
C709 H719 0.930 . S
C710 O688 1.264 . S
C710 O689 1.254 . S
C711 Eu647 2.848 . S
C711 O686 1.257 . S
C711 O691 1.249 . S
C711 C704 1.492 . S
H712 C695 0.930 . S
H713 C696 0.930 . S
H714 C697 0.930 . S
H715 C698 0.930 . S
H716 C705 0.930 . S
H717 C707 0.930 . S
H718 C708 0.930 . S
H719 C709 0.930 . S
Eu720 N751 2.657 . S
Eu720 N758 2.609 . S
Eu720 O764 2.558 . S
Eu720 O765 2.612 . S
Eu720 O767 2.339 . S
Eu720 O768 2.563 . S
Eu720 O769 2.419 . S
Eu720 O771 2.380 . S
Eu720 O772 2.432 . S
Eu720 C784 2.848 . S
C721 C724 1.429 . S
C721 C725 1.411 . S
C721 N728 1.377 . S
C722 C724 1.420 . S
C722 C726 1.423 . S
C722 C734 1.392 . S
C723 C725 1.420 . S
C723 C726 1.351 . S
C723 H746 0.931 . S
C724 C721 1.429 . S
C724 C722 1.420 . S
C724 N732 1.362 . S
C725 C721 1.411 . S
C725 C723 1.420 . S
C725 C730 1.395 . S
C726 C722 1.423 . S
C726 C723 1.351 . S
C726 H738 0.930 . S
C727 C729 1.400 . S
C727 C730 1.386 . S
C727 H739 0.930 . S
N728 C721 1.377 . S
N728 C729 1.321 . S
N728 Eu731 2.609 . S
C729 C727 1.400 . S
C729 N728 1.321 . S
C729 H736 0.930 . S
C730 C725 1.395 . S
C730 C727 1.386 . S
C730 H749 0.930 . S
Eu731 N728 2.609 . S
Eu731 N732 2.657 . S
Eu731 O765 2.380 . S
Eu731 O766 2.432 . S
Eu731 O770 2.558 . S
Eu731 O771 2.612 . S
Eu731 O773 2.339 . S
Eu731 O774 2.563 . S
Eu731 O775 2.419 . S
Eu731 C795 2.848 . S
N732 C724 1.362 . S
N732 Eu731 2.657 . S
N732 C733 1.334 . S
C733 N732 1.334 . S
C733 C735 1.413 . S
C733 H740 0.929 . S
C734 C722 1.392 . S
C734 C735 1.367 . S
C734 H742 0.930 . S
C735 C733 1.413 . S
C735 C734 1.367 . S
C735 H737 0.930 . S
H736 C729 0.930 . S
H737 C735 0.930 . S
H738 C726 0.930 . S
H739 C727 0.930 . S
H740 C733 0.929 . S
H741 C755 0.930 . S
H742 C734 0.930 . S
H743 C761 0.930 . S
H744 C752 0.929 . S
H745 C759 0.930 . S
H746 C723 0.931 . S
H747 C753 0.930 . S
H748 C786 0.930 . S
H749 C730 0.930 . S
H750 C785 0.931 . S
N751 Eu720 2.657 . S
N751 C752 1.334 . S
N751 C756 1.362 . S
C752 H744 0.929 . S
C752 N751 1.334 . S
C752 C755 1.413 . S
C753 H747 0.930 . S
C753 C754 1.392 . S
C753 C755 1.367 . S
C754 C753 1.392 . S
C754 C756 1.420 . S
C754 C786 1.423 . S
C755 H741 0.930 . S
C755 C752 1.413 . S
C755 C753 1.367 . S
C756 N751 1.362 . S
C756 C754 1.420 . S
C756 C760 1.429 . S
H757 C762 0.930 . S
N758 Eu720 2.609 . S
N758 C760 1.377 . S
N758 C761 1.321 . S
C759 H745 0.930 . S
C759 C761 1.400 . S
C759 C762 1.386 . S
C760 C756 1.429 . S
C760 N758 1.377 . S
C760 C763 1.411 . S
C761 H743 0.930 . S
C761 N758 1.321 . S
C761 C759 1.400 . S
C762 H757 0.930 . S
C762 C759 1.386 . S
C762 C763 1.395 . S
C763 C760 1.411 . S
C763 C762 1.395 . S
C763 C785 1.420 . S
O764 Eu720 2.558 . S
O764 C784 1.257 . S
O765 Eu720 2.612 . S
O765 Eu731 2.380 . S
O765 C776 1.276 . S
O766 Eu731 2.432 . S
O766 C783 1.264 . S
O767 Eu720 2.339 . S
O767 C783 1.254 . S
O768 Eu720 2.563 . S
O768 C776 1.235 . S
O769 Eu720 2.419 . S
O769 C784 1.249 . S
O770 Eu731 2.558 . S
O770 C795 1.257 . S
O771 Eu720 2.380 . S
O771 Eu731 2.612 . S
O771 C787 1.276 . S
O772 Eu720 2.432 . S
O772 C794 1.264 . S
O773 Eu731 2.339 . S
O773 C794 1.254 . S
O774 Eu731 2.563 . S
O774 C787 1.235 . S
O775 Eu731 2.419 . S
O775 C795 1.249 . S
C776 O765 1.276 . S
C776 O768 1.235 . S
C777 C779 1.393 . S
C777 C781 1.395 . S
C777 C784 1.492 . S
C778 C779 1.392 . S
C778 C780 1.386 . S
C779 C777 1.393 . S
C779 C778 1.392 . S
C779 H796 0.930 . S
C780 C778 1.386 . S
C780 C782 1.395 . S
C780 H797 0.930 . S
C781 C777 1.395 . S
C781 C782 1.379 . S
C781 H798 0.930 . S
C782 C780 1.395 . S
C782 C781 1.379 . S
C782 H799 0.930 . S
C783 O766 1.264 . S
C783 O767 1.254 . S
C784 Eu720 2.848 . S
C784 O764 1.257 . S
C784 O769 1.249 . S
C784 C777 1.492 . S
C785 H750 0.931 . S
C785 C763 1.420 . S
C785 C786 1.351 . S
C786 H748 0.930 . S
C786 C754 1.423 . S
C786 C785 1.351 . S
C787 O771 1.276 . S
C787 O774 1.235 . S
C788 C789 1.393 . S
C788 C792 1.395 . S
C788 C795 1.492 . S
C789 C788 1.393 . S
C789 C790 1.392 . S
C789 H800 0.930 . S
C790 C789 1.392 . S
C790 C791 1.386 . S
C791 C790 1.386 . S
C791 C793 1.395 . S
C791 H801 0.930 . S
C792 C788 1.395 . S
C792 C793 1.379 . S
C792 H802 0.930 . S
C793 C791 1.395 . S
C793 C792 1.379 . S
C793 H803 0.930 . S
C794 O772 1.264 . S
C794 O773 1.254 . S
C795 Eu731 2.848 . S
C795 O770 1.257 . S
C795 O775 1.249 . S
C795 C788 1.492 . S
H796 C779 0.930 . S
H797 C780 0.930 . S
H798 C781 0.930 . S
H799 C782 0.930 . S
H800 C789 0.930 . S
H801 C791 0.930 . S
H802 C792 0.930 . S
H803 C793 0.930 . S
Eu804 N835 2.657 . S
Eu804 N842 2.609 . S
Eu804 O848 2.558 . S
Eu804 O849 2.612 . S
Eu804 O851 2.339 . S
Eu804 O852 2.563 . S
Eu804 O853 2.419 . S
Eu804 O855 2.380 . S
Eu804 O856 2.432 . S
Eu804 C868 2.848 . S
C805 C808 1.429 . S
C805 C809 1.411 . S
C805 N812 1.377 . S
C806 C808 1.420 . S
C806 C810 1.423 . S
C806 C818 1.392 . S
C807 C809 1.420 . S
C807 C810 1.351 . S
C807 H830 0.931 . S
C808 C805 1.429 . S
C808 C806 1.420 . S
C808 N816 1.362 . S
C809 C805 1.411 . S
C809 C807 1.420 . S
C809 C814 1.395 . S
C810 C806 1.423 . S
C810 C807 1.351 . S
C810 H822 0.930 . S
C811 C813 1.400 . S
C811 C814 1.386 . S
C811 H823 0.930 . S
N812 C805 1.377 . S
N812 C813 1.321 . S
N812 Eu815 2.609 . S
C813 C811 1.400 . S
C813 N812 1.321 . S
C813 H820 0.930 . S
C814 C809 1.395 . S
C814 C811 1.386 . S
C814 H833 0.930 . S
Eu815 N812 2.609 . S
Eu815 N816 2.657 . S
Eu815 O849 2.380 . S
Eu815 O850 2.432 . S
Eu815 O854 2.558 . S
Eu815 O855 2.612 . S
Eu815 O857 2.339 . S
Eu815 O858 2.563 . S
Eu815 O859 2.419 . S
Eu815 C879 2.848 . S
N816 C808 1.362 . S
N816 Eu815 2.657 . S
N816 C817 1.334 . S
C817 N816 1.334 . S
C817 C819 1.413 . S
C817 H824 0.929 . S
C818 C806 1.392 . S
C818 C819 1.367 . S
C818 H826 0.930 . S
C819 C817 1.413 . S
C819 C818 1.367 . S
C819 H821 0.930 . S
H820 C813 0.930 . S
H821 C819 0.930 . S
H822 C810 0.930 . S
H823 C811 0.930 . S
H824 C817 0.929 . S
H825 C839 0.930 . S
H826 C818 0.930 . S
H827 C845 0.930 . S
H828 C836 0.929 . S
H829 C843 0.930 . S
H830 C807 0.931 . S
H831 C837 0.930 . S
H832 C870 0.930 . S
H833 C814 0.930 . S
H834 C869 0.931 . S
N835 Eu804 2.657 . S
N835 C836 1.334 . S
N835 C840 1.362 . S
C836 H828 0.929 . S
C836 N835 1.334 . S
C836 C839 1.413 . S
C837 H831 0.930 . S
C837 C838 1.392 . S
C837 C839 1.367 . S
C838 C837 1.392 . S
C838 C840 1.420 . S
C838 C870 1.423 . S
C839 H825 0.930 . S
C839 C836 1.413 . S
C839 C837 1.367 . S
C840 N835 1.362 . S
C840 C838 1.420 . S
C840 C844 1.429 . S
H841 C846 0.930 . S
N842 Eu804 2.609 . S
N842 C844 1.377 . S
N842 C845 1.321 . S
C843 H829 0.930 . S
C843 C845 1.400 . S
C843 C846 1.386 . S
C844 C840 1.429 . S
C844 N842 1.377 . S
C844 C847 1.411 . S
C845 H827 0.930 . S
C845 N842 1.321 . S
C845 C843 1.400 . S
C846 H841 0.930 . S
C846 C843 1.386 . S
C846 C847 1.395 . S
C847 C844 1.411 . S
C847 C846 1.395 . S
C847 C869 1.420 . S
O848 Eu804 2.558 . S
O848 C868 1.257 . S
O849 Eu804 2.612 . S
O849 Eu815 2.380 . S
O849 C860 1.276 . S
O850 Eu815 2.432 . S
O850 C867 1.264 . S
O851 Eu804 2.339 . S
O851 C867 1.254 . S
O852 Eu804 2.563 . S
O852 C860 1.235 . S
O853 Eu804 2.419 . S
O853 C868 1.249 . S
O854 Eu815 2.558 . S
O854 C879 1.257 . S
O855 Eu804 2.380 . S
O855 Eu815 2.612 . S
O855 C871 1.276 . S
O856 Eu804 2.432 . S
O856 C878 1.264 . S
O857 Eu815 2.339 . S
O857 C878 1.254 . S
O858 Eu815 2.563 . S
O858 C871 1.235 . S
O859 Eu815 2.419 . S
O859 C879 1.249 . S
C860 O849 1.276 . S
C860 O852 1.235 . S
C861 C863 1.393 . S
C861 C865 1.395 . S
C861 C868 1.492 . S
C862 C863 1.392 . S
C862 C864 1.386 . S
C863 C861 1.393 . S
C863 C862 1.392 . S
C863 H880 0.930 . S
C864 C862 1.386 . S
C864 C866 1.395 . S
C864 H881 0.930 . S
C865 C861 1.395 . S
C865 C866 1.379 . S
C865 H882 0.930 . S
C866 C864 1.395 . S
C866 C865 1.379 . S
C866 H883 0.930 . S
C867 O850 1.264 . S
C867 O851 1.254 . S
C868 Eu804 2.848 . S
C868 O848 1.257 . S
C868 O853 1.249 . S
C868 C861 1.492 . S
C869 H834 0.931 . S
C869 C847 1.420 . S
C869 C870 1.351 . S
C870 H832 0.930 . S
C870 C838 1.423 . S
C870 C869 1.351 . S
C871 O855 1.276 . S
C871 O858 1.235 . S
C872 C873 1.393 . S
C872 C876 1.395 . S
C872 C879 1.492 . S
C873 C872 1.393 . S
C873 C874 1.392 . S
C873 H884 0.930 . S
C874 C873 1.392 . S
C874 C875 1.386 . S
C875 C874 1.386 . S
C875 C877 1.395 . S
C875 H885 0.930 . S
C876 C872 1.395 . S
C876 C877 1.379 . S
C876 H886 0.930 . S
C877 C875 1.395 . S
C877 C876 1.379 . S
C877 H887 0.930 . S
C878 O856 1.264 . S
C878 O857 1.254 . S
C879 Eu815 2.848 . S
C879 O854 1.257 . S
C879 O859 1.249 . S
C879 C872 1.492 . S
H880 C863 0.930 . S
H881 C864 0.930 . S
H882 C865 0.930 . S
H883 C866 0.930 . S
H884 C873 0.930 . S
H885 C875 0.930 . S
H886 C876 0.930 . S
H887 C877 0.930 . S
Eu888 N919 2.657 . S
Eu888 N926 2.609 . S
Eu888 O932 2.558 . S
Eu888 O933 2.612 . S
Eu888 O935 2.339 . S
Eu888 O936 2.563 . S
Eu888 O937 2.419 . S
Eu888 O939 2.380 . S
Eu888 O940 2.432 . S
Eu888 C952 2.848 . S
C889 C892 1.429 . S
C889 C893 1.411 . S
C889 N896 1.377 . S
C890 C892 1.420 . S
C890 C894 1.423 . S
C890 C902 1.392 . S
C891 C893 1.420 . S
C891 C894 1.351 . S
C891 H914 0.931 . S
C892 C889 1.429 . S
C892 C890 1.420 . S
C892 N900 1.362 . S
C893 C889 1.411 . S
C893 C891 1.420 . S
C893 C898 1.395 . S
C894 C890 1.423 . S
C894 C891 1.351 . S
C894 H906 0.930 . S
C895 C897 1.400 . S
C895 C898 1.386 . S
C895 H907 0.930 . S
N896 C889 1.377 . S
N896 C897 1.321 . S
N896 Eu899 2.609 . S
C897 C895 1.400 . S
C897 N896 1.321 . S
C897 H904 0.930 . S
C898 C893 1.395 . S
C898 C895 1.386 . S
C898 H917 0.930 . S
Eu899 N896 2.609 . S
Eu899 N900 2.657 . S
Eu899 O933 2.380 . S
Eu899 O934 2.432 . S
Eu899 O938 2.558 . S
Eu899 O939 2.612 . S
Eu899 O941 2.339 . S
Eu899 O942 2.563 . S
Eu899 O943 2.419 . S
Eu899 C963 2.848 . S
N900 C892 1.362 . S
N900 Eu899 2.657 . S
N900 C901 1.334 . S
C901 N900 1.334 . S
C901 C903 1.413 . S
C901 H908 0.929 . S
C902 C890 1.392 . S
C902 C903 1.367 . S
C902 H910 0.930 . S
C903 C901 1.413 . S
C903 C902 1.367 . S
C903 H905 0.930 . S
H904 C897 0.930 . S
H905 C903 0.930 . S
H906 C894 0.930 . S
H907 C895 0.930 . S
H908 C901 0.929 . S
H909 C923 0.930 . S
H910 C902 0.930 . S
H911 C929 0.930 . S
H912 C920 0.929 . S
H913 C927 0.930 . S
H914 C891 0.931 . S
H915 C921 0.930 . S
H916 C954 0.930 . S
H917 C898 0.930 . S
H918 C953 0.931 . S
N919 Eu888 2.657 . S
N919 C920 1.334 . S
N919 C924 1.362 . S
C920 H912 0.929 . S
C920 N919 1.334 . S
C920 C923 1.413 . S
C921 H915 0.930 . S
C921 C922 1.392 . S
C921 C923 1.367 . S
C922 C921 1.392 . S
C922 C924 1.420 . S
C922 C954 1.423 . S
C923 H909 0.930 . S
C923 C920 1.413 . S
C923 C921 1.367 . S
C924 N919 1.362 . S
C924 C922 1.420 . S
C924 C928 1.429 . S
H925 C930 0.930 . S
N926 Eu888 2.609 . S
N926 C928 1.377 . S
N926 C929 1.321 . S
C927 H913 0.930 . S
C927 C929 1.400 . S
C927 C930 1.386 . S
C928 C924 1.429 . S
C928 N926 1.377 . S
C928 C931 1.411 . S
C929 H911 0.930 . S
C929 N926 1.321 . S
C929 C927 1.400 . S
C930 H925 0.930 . S
C930 C927 1.386 . S
C930 C931 1.395 . S
C931 C928 1.411 . S
C931 C930 1.395 . S
C931 C953 1.420 . S
O932 Eu888 2.558 . S
O932 C952 1.257 . S
O933 Eu888 2.612 . S
O933 Eu899 2.380 . S
O933 C944 1.276 . S
O934 Eu899 2.432 . S
O934 C951 1.264 . S
O935 Eu888 2.339 . S
O935 C951 1.254 . S
O936 Eu888 2.563 . S
O936 C944 1.235 . S
O937 Eu888 2.419 . S
O937 C952 1.249 . S
O938 Eu899 2.558 . S
O938 C963 1.257 . S
O939 Eu888 2.380 . S
O939 Eu899 2.612 . S
O939 C955 1.276 . S
O940 Eu888 2.432 . S
O940 C962 1.264 . S
O941 Eu899 2.339 . S
O941 C962 1.254 . S
O942 Eu899 2.563 . S
O942 C955 1.235 . S
O943 Eu899 2.419 . S
O943 C963 1.249 . S
C944 O933 1.276 . S
C944 O936 1.235 . S
C945 C947 1.393 . S
C945 C949 1.395 . S
C945 C952 1.492 . S
C946 C947 1.392 . S
C946 C948 1.386 . S
C947 C945 1.393 . S
C947 C946 1.392 . S
C947 H964 0.930 . S
C948 C946 1.386 . S
C948 C950 1.395 . S
C948 H965 0.930 . S
C949 C945 1.395 . S
C949 C950 1.379 . S
C949 H966 0.930 . S
C950 C948 1.395 . S
C950 C949 1.379 . S
C950 H967 0.930 . S
C951 O934 1.264 . S
C951 O935 1.254 . S
C952 Eu888 2.848 . S
C952 O932 1.257 . S
C952 O937 1.249 . S
C952 C945 1.492 . S
C953 H918 0.931 . S
C953 C931 1.420 . S
C953 C954 1.351 . S
C954 H916 0.930 . S
C954 C922 1.423 . S
C954 C953 1.351 . S
C955 O939 1.276 . S
C955 O942 1.235 . S
C956 C957 1.393 . S
C956 C960 1.395 . S
C956 C963 1.492 . S
C957 C956 1.393 . S
C957 C958 1.392 . S
C957 H968 0.930 . S
C958 C957 1.392 . S
C958 C959 1.386 . S
C959 C958 1.386 . S
C959 C961 1.395 . S
C959 H969 0.930 . S
C960 C956 1.395 . S
C960 C961 1.379 . S
C960 H970 0.930 . S
C961 C959 1.395 . S
C961 C960 1.379 . S
C961 H971 0.930 . S
C962 O940 1.264 . S
C962 O941 1.254 . S
C963 Eu899 2.848 . S
C963 O938 1.257 . S
C963 O943 1.249 . S
C963 C956 1.492 . S
H964 C947 0.930 . S
H965 C948 0.930 . S
H966 C949 0.930 . S
H967 C950 0.930 . S
H968 C957 0.930 . S
H969 C959 0.930 . S
H970 C960 0.930 . S
H971 C961 0.930 . S
C972 C973 1.349 . S
C972 C974 1.327 . S
C972 H997 0.950 . S
C973 C972 1.349 . S
C973 C989 1.349 . S
C974 C972 1.327 . S
C974 C993 1.429 . S
C974 H998 0.950 . S
C975 C992 1.574 . S
C975 C994 1.368 . S
C975 H999 0.949 . S
H976 C980 0.949 . S
C977 C978 1.349 . S
C977 C979 1.327 . S
C977 H1000 0.950 . S
C978 C977 1.349 . S
C978 C990 1.349 . S
C979 C977 1.327 . S
C979 C995 1.429 . S
C979 H1001 0.950 . S
C980 H976 0.949 . S
C980 C988 1.574 . S
C980 C996 1.368 . S
H981 C989 0.950 . S
H982 C987 0.950 . S
H983 C988 0.949 . S
H984 C990 0.950 . S
H985 C991 0.950 . S
H986 C992 0.949 . S
C987 H982 0.950 . S
C987 C989 1.327 . S
C987 C993 1.429 . S
C988 C980 1.574 . S
C988 H983 0.949 . S
C988 C994 1.368 . S
C989 C973 1.349 . S
C989 H981 0.950 . S
C989 C987 1.327 . S
C990 C978 1.349 . S
C990 H984 0.950 . S
C990 C991 1.327 . S
C991 H985 0.950 . S
C991 C990 1.327 . S
C991 C995 1.429 . S
C992 C975 1.574 . S
C992 H986 0.949 . S
C992 C996 1.368 . S
C993 C974 1.429 . S
C993 C987 1.429 . S
C993 C994 1.523 . S
C994 C975 1.368 . S
C994 C988 1.368 . S
C994 C993 1.523 . S
C995 C979 1.429 . S
C995 C991 1.429 . S
C995 C996 1.523 . S
C996 C980 1.368 . S
C996 C992 1.368 . S
C996 C995 1.523 . S
H997 C972 0.950 . S
H998 C974 0.950 . S
H999 C975 0.949 . S
H1000 C977 0.950 . S
H1001 C979 0.950 . S
C1002 C1003 1.349 . S
C1002 C1004 1.327 . S
C1002 H1027 0.950 . S
C1003 C1002 1.349 . S
C1003 C1019 1.349 . S
C1004 C1002 1.327 . S
C1004 C1023 1.429 . S
C1004 H1028 0.950 . S
C1005 C1022 1.574 . S
C1005 C1024 1.368 . S
C1005 H1029 0.949 . S
H1006 C1010 0.949 . S
C1007 C1008 1.349 . S
C1007 C1009 1.327 . S
C1007 H1030 0.950 . S
C1008 C1007 1.349 . S
C1008 C1020 1.349 . S
C1009 C1007 1.327 . S
C1009 C1025 1.429 . S
C1009 H1031 0.950 . S
C1010 H1006 0.949 . S
C1010 C1018 1.574 . S
C1010 C1026 1.368 . S
H1011 C1019 0.950 . S
H1012 C1017 0.950 . S
H1013 C1018 0.949 . S
H1014 C1020 0.950 . S
H1015 C1021 0.950 . S
H1016 C1022 0.949 . S
C1017 H1012 0.950 . S
C1017 C1019 1.327 . S
C1017 C1023 1.429 . S
C1018 C1010 1.574 . S
C1018 H1013 0.949 . S
C1018 C1024 1.368 . S
C1019 C1003 1.349 . S
C1019 H1011 0.950 . S
C1019 C1017 1.327 . S
C1020 C1008 1.349 . S
C1020 H1014 0.950 . S
C1020 C1021 1.327 . S
C1021 H1015 0.950 . S
C1021 C1020 1.327 . S
C1021 C1025 1.429 . S
C1022 C1005 1.574 . S
C1022 H1016 0.949 . S
C1022 C1026 1.368 . S
C1023 C1004 1.429 . S
C1023 C1017 1.429 . S
C1023 C1024 1.523 . S
C1024 C1005 1.368 . S
C1024 C1018 1.368 . S
C1024 C1023 1.523 . S
C1025 C1009 1.429 . S
C1025 C1021 1.429 . S
C1025 C1026 1.523 . S
C1026 C1010 1.368 . S
C1026 C1022 1.368 . S
C1026 C1025 1.523 . S
H1027 C1002 0.950 . S
H1028 C1004 0.950 . S
H1029 C1005 0.949 . S
H1030 C1007 0.950 . S
H1031 C1009 0.950 . S
C1032 C1033 1.349 . S
C1032 C1034 1.327 . S
C1032 H1057 0.950 . S
C1033 C1032 1.349 . S
C1033 C1049 1.349 . S
C1034 C1032 1.327 . S
C1034 C1053 1.429 . S
C1034 H1058 0.950 . S
C1035 C1052 1.574 . S
C1035 C1054 1.368 . S
C1035 H1059 0.949 . S
H1036 C1040 0.949 . S
C1037 C1038 1.349 . S
C1037 C1039 1.327 . S
C1037 H1060 0.950 . S
C1038 C1037 1.349 . S
C1038 C1050 1.349 . S
C1039 C1037 1.327 . S
C1039 C1055 1.429 . S
C1039 H1061 0.950 . S
C1040 H1036 0.949 . S
C1040 C1048 1.574 . S
C1040 C1056 1.368 . S
H1041 C1049 0.950 . S
H1042 C1047 0.950 . S
H1043 C1048 0.949 . S
H1044 C1050 0.950 . S
H1045 C1051 0.950 . S
H1046 C1052 0.949 . S
C1047 H1042 0.950 . S
C1047 C1049 1.327 . S
C1047 C1053 1.429 . S
C1048 C1040 1.574 . S
C1048 H1043 0.949 . S
C1048 C1054 1.368 . S
C1049 C1033 1.349 . S
C1049 H1041 0.950 . S
C1049 C1047 1.327 . S
C1050 C1038 1.349 . S
C1050 H1044 0.950 . S
C1050 C1051 1.327 . S
C1051 H1045 0.950 . S
C1051 C1050 1.327 . S
C1051 C1055 1.429 . S
C1052 C1035 1.574 . S
C1052 H1046 0.949 . S
C1052 C1056 1.368 . S
C1053 C1034 1.429 . S
C1053 C1047 1.429 . S
C1053 C1054 1.523 . S
C1054 C1035 1.368 . S
C1054 C1048 1.368 . S
C1054 C1053 1.523 . S
C1055 C1039 1.429 . S
C1055 C1051 1.429 . S
C1055 C1056 1.523 . S
C1056 C1040 1.368 . S
C1056 C1052 1.368 . S
C1056 C1055 1.523 . S
H1057 C1032 0.950 . S
H1058 C1034 0.950 . S
H1059 C1035 0.949 . S
H1060 C1037 0.950 . S
H1061 C1039 0.950 . S
C1062 C1063 1.349 . S
C1062 C1064 1.327 . S
C1062 H1087 0.950 . S
C1063 C1062 1.349 . S
C1063 C1079 1.349 . S
C1064 C1062 1.327 . S
C1064 C1083 1.429 . S
C1064 H1088 0.950 . S
C1065 C1082 1.574 . S
C1065 C1084 1.368 . S
C1065 H1089 0.949 . S
H1066 C1070 0.949 . S
C1067 C1068 1.349 1_554 S
C1067 C1069 1.327 . S
C1067 H1090 0.950 . S
C1068 C1067 1.349 1_556 S
C1068 C1080 1.349 . S
C1069 C1067 1.327 . S
C1069 C1085 1.429 1_554 S
C1069 H1091 0.950 . S
C1070 H1066 0.949 . S
C1070 C1078 1.574 . S
C1070 C1086 1.368 . S
H1071 C1079 0.950 . S
H1072 C1077 0.950 . S
H1073 C1078 0.949 . S
H1074 C1080 0.950 . S
H1075 C1081 0.950 . S
H1076 C1082 0.925 1_554 S
C1077 H1072 0.950 . S
C1077 C1079 1.327 . S
C1077 C1083 1.429 . S
C1078 C1070 1.574 . S
C1078 H1073 0.949 . S
C1078 C1084 1.368 . S
C1079 C1063 1.349 . S
C1079 H1071 0.950 . S
C1079 C1077 1.327 . S
C1080 C1068 1.349 . S
C1080 H1074 0.950 . S
C1080 C1081 1.327 . S
C1081 H1075 0.950 . S
C1081 C1080 1.327 . S
C1081 C1085 1.429 . S
C1082 C1065 1.574 . S
C1082 H1076 0.925 1_556 S
C1082 C1086 1.368 . S
C1083 C1064 1.429 . S
C1083 C1077 1.429 . S
C1083 C1084 1.523 . S
C1084 C1065 1.368 . S
C1084 C1078 1.368 . S
C1084 C1083 1.523 . S
C1085 C1069 1.429 1_556 S
C1085 C1081 1.429 . S
C1085 C1086 1.523 . S
C1086 C1070 1.368 . S
C1086 C1082 1.368 . S
C1086 C1085 1.523 . S
H1087 C1062 0.950 . S
H1088 C1064 0.950 . S
H1089 C1065 0.949 . S
H1090 C1067 0.950 . S
H1091 C1069 0.950 . S
C1092 C1093 1.349 . S
C1092 C1094 1.327 . S
C1092 H1117 0.950 . S
C1093 C1092 1.349 . S
C1093 C1109 1.349 . S
C1094 C1092 1.327 . S
C1094 C1113 1.429 . S
C1094 H1118 0.950 . S
C1095 C1112 1.574 . S
C1095 C1114 1.368 . S
C1095 H1119 0.949 . S
H1096 C1100 0.949 . S
C1097 C1098 1.349 1_554 S
C1097 C1099 1.327 1_554 S
C1097 H1120 0.950 . S
C1098 C1097 1.349 1_556 S
C1098 C1110 1.349 . S
C1099 C1097 1.327 1_556 S
C1099 C1115 1.429 . S
C1099 H1121 0.950 1_556 S
C1100 H1096 0.949 . S
C1100 C1108 1.574 . S
C1100 C1116 1.368 . S
H1101 C1109 0.950 . S
H1102 C1107 0.950 . S
H1103 C1108 0.949 . S
H1104 C1110 0.950 . S
H1105 C1111 0.950 . S
H1106 C1112 0.949 . S
C1107 H1102 0.950 . S
C1107 C1109 1.327 . S
C1107 C1113 1.429 . S
C1108 C1100 1.574 . S
C1108 H1103 0.949 . S
C1108 C1114 1.368 . S
C1109 C1093 1.349 . S
C1109 H1101 0.950 . S
C1109 C1107 1.327 . S
C1110 C1098 1.349 . S
C1110 H1104 0.950 . S
C1110 C1111 1.327 . S
C1111 H1105 0.950 . S
C1111 C1110 1.327 . S
C1111 C1115 1.429 . S
C1112 C1095 1.574 . S
C1112 H1106 0.949 . S
C1112 C1116 1.368 . S
C1113 C1094 1.429 . S
C1113 C1107 1.429 . S
C1113 C1114 1.523 . S
C1114 C1095 1.368 . S
C1114 C1108 1.368 . S
C1114 C1113 1.523 . S
C1115 C1099 1.429 . S
C1115 C1111 1.429 . S
C1115 C1116 1.523 . S
C1116 C1100 1.368 . S
C1116 C1112 1.368 . S
C1116 C1115 1.523 . S
H1117 C1092 0.950 . S
H1118 C1094 0.950 . S
H1119 C1095 0.949 . S
H1120 C1097 0.950 . S
H1121 C1099 0.950 1_554 S
C1122 C1123 1.349 . S
C1122 C1124 1.327 . S
C1122 H1147 0.950 . S
C1123 C1122 1.349 . S
C1123 C1139 1.349 . S
C1124 C1122 1.327 . S
C1124 C1143 1.429 . S
C1124 H1148 0.950 . S
C1125 C1142 1.574 . S
C1125 C1144 1.368 . S
C1125 H1149 0.949 . S
H1126 C1130 0.949 1_554 S
C1127 C1128 1.348 . S
C1127 C1129 1.327 . S
C1127 H1150 0.950 . S
C1128 C1127 1.348 . S
C1128 C1140 1.349 1_556 S
C1129 C1127 1.327 . S
C1129 C1145 1.429 . S
C1129 H1151 0.950 . S
C1130 H1126 0.949 1_556 S
C1130 C1138 1.574 . S
C1130 C1146 1.368 . S
H1131 C1139 0.950 . S
H1132 C1137 0.950 . S
H1133 C1138 0.987 . S
H1134 C1140 0.950 . S
H1135 C1141 0.950 . S
H1136 C1142 0.949 . S
C1137 H1132 0.950 . S
C1137 C1139 1.327 . S
C1137 C1143 1.429 . S
C1138 C1130 1.574 . S
C1138 H1133 0.987 . S
C1138 C1144 1.368 . S
C1139 C1123 1.349 . S
C1139 H1131 0.950 . S
C1139 C1137 1.327 . S
C1140 C1128 1.349 1_554 S
C1140 H1134 0.950 . S
C1140 C1141 1.327 . S
C1141 H1135 0.950 . S
C1141 C1140 1.327 . S
C1141 C1145 1.429 1_554 S
C1142 C1125 1.574 . S
C1142 H1136 0.949 . S
C1142 C1146 1.368 . S
C1143 C1124 1.429 . S
C1143 C1137 1.429 . S
C1143 C1144 1.523 . S
C1144 C1125 1.368 . S
C1144 C1138 1.368 . S
C1144 C1143 1.523 . S
C1145 C1129 1.429 . S
C1145 C1141 1.429 1_556 S
C1145 C1146 1.523 . S
C1146 C1130 1.368 . S
C1146 C1142 1.368 . S
C1146 C1145 1.523 . S
H1147 C1122 0.950 . S
H1148 C1124 0.950 . S
H1149 C1125 0.949 . S
H1150 C1127 0.950 . S
H1151 C1129 0.950 . S
C1152 C1153 1.349 . S
C1152 C1154 1.327 . S
C1152 H1177 0.950 . S
C1153 C1152 1.349 . S
C1153 C1169 1.349 . S
C1154 C1152 1.327 . S
C1154 C1173 1.429 . S
C1154 H1178 0.950 . S
C1155 C1172 1.574 . S
C1155 C1174 1.368 . S
C1155 H1179 0.949 . S
H1156 C1160 0.949 1_554 S
C1157 C1158 1.349 . S
C1157 C1159 1.327 . S
C1157 H1180 0.950 . S
C1158 C1157 1.349 . S
C1158 C1170 1.349 1_556 S
C1159 C1157 1.327 . S
C1159 C1175 1.429 . S
C1159 H1181 0.950 . S
C1160 H1156 0.949 1_556 S
C1160 C1168 1.574 . S
C1160 C1176 1.368 . S
H1161 C1169 0.950 . S
H1162 C1167 0.950 . S
H1163 C1168 0.949 . S
H1164 C1170 0.950 . S
H1165 C1171 0.950 . S
H1166 C1172 0.949 . S
C1167 H1162 0.950 . S
C1167 C1169 1.327 . S
C1167 C1173 1.429 . S
C1168 C1160 1.574 . S
C1168 H1163 0.949 . S
C1168 C1174 1.368 . S
C1169 C1153 1.349 . S
C1169 H1161 0.950 . S
C1169 C1167 1.327 . S
C1170 C1158 1.349 1_554 S
C1170 H1164 0.950 . S
C1170 C1171 1.327 . S
C1171 H1165 0.950 . S
C1171 C1170 1.327 . S
C1171 C1175 1.429 1_554 S
C1172 C1155 1.574 . S
C1172 H1166 0.949 . S
C1172 C1176 1.368 . S
C1173 C1154 1.429 . S
C1173 C1167 1.429 . S
C1173 C1174 1.523 . S
C1174 C1155 1.368 . S
C1174 C1168 1.368 . S
C1174 C1173 1.523 . S
C1175 C1159 1.429 . S
C1175 C1171 1.429 1_556 S
C1175 C1176 1.523 . S
C1176 C1160 1.368 . S
C1176 C1172 1.368 . S
C1176 C1175 1.523 . S
H1177 C1152 0.950 . S
H1178 C1154 0.950 . S
H1179 C1155 0.949 . S
H1180 C1157 0.950 . S
H1181 C1159 0.950 . S
C1182 C1183 1.349 . S
C1182 C1184 1.327 . S
C1182 H1207 0.950 . S
C1183 C1182 1.349 . S
C1183 C1199 1.349 . S
C1184 C1182 1.327 . S
C1184 C1203 1.429 . S
C1184 H1208 0.950 . S
C1185 C1202 1.574 . S
C1185 C1204 1.368 . S
C1185 H1209 0.949 . S
H1186 C1190 0.949 . S
C1187 C1188 1.349 . S
C1187 C1189 1.327 . S
C1187 H1210 0.950 . S
C1188 C1187 1.349 . S
C1188 C1200 1.349 . S
C1189 C1187 1.327 . S
C1189 C1205 1.429 . S
C1189 H1211 0.950 . S
C1190 H1186 0.949 . S
C1190 C1198 1.574 . S
C1190 C1206 1.368 . S
H1191 C1199 0.950 . S
H1192 C1197 0.950 . S
H1193 C1198 0.949 . S
H1194 C1200 0.964 . S
H1195 C1201 0.950 . S
H1196 C1202 0.949 . S
C1197 H1192 0.950 . S
C1197 C1199 1.327 . S
C1197 C1203 1.429 . S
C1198 C1190 1.574 . S
C1198 H1193 0.949 . S
C1198 C1204 1.368 . S
C1199 C1183 1.349 . S
C1199 H1191 0.950 . S
C1199 C1197 1.327 . S
C1200 C1188 1.349 . S
C1200 H1194 0.964 . S
C1200 C1201 1.327 . S
C1201 H1195 0.950 . S
C1201 C1200 1.327 . S
C1201 C1205 1.429 . S
C1202 C1185 1.574 . S
C1202 H1196 0.949 . S
C1202 C1206 1.368 . S
C1203 C1184 1.429 . S
C1203 C1197 1.429 . S
C1203 C1204 1.523 . S
C1204 C1185 1.368 . S
C1204 C1198 1.368 . S
C1204 C1203 1.523 . S
C1205 C1189 1.429 . S
C1205 C1201 1.429 . S
C1205 C1206 1.523 . S
C1206 C1190 1.368 . S
C1206 C1202 1.368 . S
C1206 C1205 1.523 . S
H1207 C1182 0.950 . S
H1208 C1184 0.950 . S
H1209 C1185 0.949 . S
H1210 C1187 0.950 . S
H1211 C1189 0.950 . S
C1212 C1213 1.349 . S
C1212 C1214 1.327 . S
C1212 H1237 0.950 . S
C1213 C1212 1.349 . S
C1213 C1229 1.349 . S
C1214 C1212 1.327 . S
C1214 C1233 1.429 . S
C1214 H1238 0.950 . S
C1215 C1232 1.574 1_556 S
C1215 C1234 1.368 . S
C1215 H1239 0.949 1_556 S
H1216 C1220 0.949 . S
C1217 C1218 1.366 . S
C1217 C1219 1.327 . S
C1217 H1240 0.950 . S
C1218 C1217 1.366 . S
C1218 C1230 1.326 1_554 S
C1219 C1217 1.327 . S
C1219 C1235 1.429 1_554 S
C1219 H1241 0.950 . S
C1220 H1216 0.949 . S
C1220 C1228 1.574 . S
C1220 C1236 1.368 . S
H1221 C1229 0.950 . S
H1222 C1227 0.945 1_554 S
H1223 C1228 0.949 . S
H1224 C1230 0.950 . S
H1225 C1231 0.950 . S
H1226 C1232 0.949 . S
C1227 H1222 0.945 1_556 S
C1227 C1229 1.327 . S
C1227 C1233 1.429 . S
C1228 C1220 1.574 . S
C1228 H1223 0.949 . S
C1228 C1234 1.368 . S
C1229 C1213 1.349 . S
C1229 H1221 0.950 . S
C1229 C1227 1.327 . S
C1230 C1218 1.326 1_556 S
C1230 H1224 0.950 . S
C1230 C1231 1.327 . S
C1231 H1225 0.950 . S
C1231 C1230 1.327 . S
C1231 C1235 1.429 . S
C1232 C1215 1.574 1_554 S
C1232 H1226 0.949 . S
C1232 C1236 1.368 1_554 S
C1233 C1214 1.429 . S
C1233 C1227 1.429 . S
C1233 C1234 1.523 . S
C1234 C1215 1.368 . S
C1234 C1228 1.368 . S
C1234 C1233 1.523 . S
C1235 C1219 1.429 1_556 S
C1235 C1231 1.429 . S
C1235 C1236 1.523 . S
C1236 C1220 1.368 . S
C1236 C1232 1.368 1_556 S
C1236 C1235 1.523 . S
H1237 C1212 0.950 . S
H1238 C1214 0.950 . S
H1239 C1215 0.949 1_554 S
H1240 C1217 0.950 . S
H1241 C1219 0.950 . S
C1242 C1243 1.349 . S
C1242 C1244 1.327 . S
C1242 H1267 0.950 . S
C1243 C1242 1.349 . S
C1243 C1259 1.349 . S
C1244 C1242 1.327 . S
C1244 C1263 1.429 . S
C1244 H1268 0.950 . S
C1245 C1262 1.574 . S
C1245 C1264 1.368 . S
C1245 H1269 0.949 . S
H1246 C1250 0.949 . S
C1247 C1248 1.349 . S
C1247 C1249 1.327 . S
C1247 H1270 0.950 . S
C1248 C1247 1.349 . S
C1248 C1260 1.349 . S
C1249 C1247 1.327 . S
C1249 C1265 1.429 . S
C1249 H1271 0.950 . S
C1250 H1246 0.949 . S
C1250 C1258 1.574 . S
C1250 C1266 1.368 . S
H1251 C1259 0.950 . S
H1252 C1257 0.950 . S
H1253 C1258 0.949 . S
H1254 C1260 0.950 . S
H1255 C1261 0.950 . S
H1256 C1262 0.949 . S
C1257 H1252 0.950 . S
C1257 C1259 1.327 . S
C1257 C1263 1.429 . S
C1258 C1250 1.574 . S
C1258 H1253 0.949 . S
C1258 C1264 1.368 . S
C1259 C1243 1.349 . S
C1259 H1251 0.950 . S
C1259 C1257 1.327 . S
C1260 C1248 1.349 . S
C1260 H1254 0.950 . S
C1260 C1261 1.327 . S
C1261 H1255 0.950 . S
C1261 C1260 1.327 . S
C1261 C1265 1.429 . S
C1262 C1245 1.574 . S
C1262 H1256 0.949 . S
C1262 C1266 1.368 . S
C1263 C1244 1.429 . S
C1263 C1257 1.429 . S
C1263 C1264 1.523 . S
C1264 C1245 1.368 . S
C1264 C1258 1.368 . S
C1264 C1263 1.523 . S
C1265 C1249 1.429 . S
C1265 C1261 1.429 . S
C1265 C1266 1.523 . S
C1266 C1250 1.368 . S
C1266 C1262 1.368 . S
C1266 C1265 1.523 . S
H1267 C1242 0.950 . S
H1268 C1244 0.950 . S
H1269 C1245 0.949 . S
H1270 C1247 0.950 . S
H1271 C1249 0.950 . S
C1272 C1273 1.349 . S
C1272 C1274 1.327 . S
C1272 H1297 0.950 . S
C1273 C1272 1.349 . S
C1273 C1289 1.349 . S
C1274 C1272 1.327 . S
C1274 C1293 1.429 . S
C1274 H1298 0.950 . S
C1275 C1292 1.574 . S
C1275 C1294 1.368 . S
C1275 H1299 0.949 . S
H1276 C1280 0.949 . S
C1277 C1278 1.349 . S
C1277 C1279 1.327 . S
C1277 H1300 0.950 . S
C1278 C1277 1.349 . S
C1278 C1290 1.349 . S
C1279 C1277 1.327 . S
C1279 C1295 1.429 . S
C1279 H1301 0.950 . S
C1280 H1276 0.949 . S
C1280 C1288 1.574 . S
C1280 C1296 1.368 . S
H1281 C1289 0.950 . S
H1282 C1287 0.950 . S
H1283 C1288 0.949 . S
H1284 C1290 0.950 . S
H1285 C1291 0.950 . S
H1286 C1292 0.949 . S
C1287 H1282 0.950 . S
C1287 C1289 1.327 . S
C1287 C1293 1.429 . S
C1288 C1280 1.574 . S
C1288 H1283 0.949 . S
C1288 C1294 1.368 . S
C1289 C1273 1.349 . S
C1289 H1281 0.950 . S
C1289 C1287 1.327 . S
C1290 C1278 1.349 . S
C1290 H1284 0.950 . S
C1290 C1291 1.327 . S
C1291 H1285 0.950 . S
C1291 C1290 1.327 . S
C1291 C1295 1.429 . S
C1292 C1275 1.574 . S
C1292 H1286 0.949 . S
C1292 C1296 1.368 . S
C1293 C1274 1.429 . S
C1293 C1287 1.429 . S
C1293 C1294 1.523 . S
C1294 C1275 1.368 . S
C1294 C1288 1.368 . S
C1294 C1293 1.523 . S
C1295 C1279 1.429 . S
C1295 C1291 1.429 . S
C1295 C1296 1.523 . S
C1296 C1280 1.368 . S
C1296 C1292 1.368 . S
C1296 C1295 1.523 . S
H1297 C1272 0.950 . S
H1298 C1274 0.950 . S
H1299 C1275 0.949 . S
H1300 C1277 0.950 . S
H1301 C1279 0.950 . S
C1302 C1303 1.349 . S
C1302 C1304 1.327 . S
C1302 H1327 0.950 . S
C1303 C1302 1.349 . S
C1303 C1319 1.349 . S
C1304 C1302 1.327 . S
C1304 C1323 1.429 . S
C1304 H1328 0.950 . S
C1305 C1322 1.574 . S
C1305 C1324 1.368 . S
C1305 H1329 0.949 . S
H1306 C1310 0.949 . S
C1307 C1308 1.349 . S
C1307 C1309 1.327 . S
C1307 H1330 0.950 . S
C1308 C1307 1.349 . S
C1308 C1320 1.349 . S
C1309 C1307 1.327 . S
C1309 C1325 1.429 . S
C1309 H1331 0.950 . S
C1310 H1306 0.949 . S
C1310 C1318 1.574 . S
C1310 C1326 1.368 . S
H1311 C1319 0.950 . S
H1312 C1317 0.950 . S
H1313 C1318 0.949 . S
H1314 C1320 0.950 . S
H1315 C1321 0.950 . S
H1316 C1322 0.949 . S
C1317 H1312 0.950 . S
C1317 C1319 1.327 . S
C1317 C1323 1.429 . S
C1318 C1310 1.574 . S
C1318 H1313 0.949 . S
C1318 C1324 1.368 . S
C1319 C1303 1.349 . S
C1319 H1311 0.950 . S
C1319 C1317 1.327 . S
C1320 C1308 1.349 . S
C1320 H1314 0.950 . S
C1320 C1321 1.327 . S
C1321 H1315 0.950 . S
C1321 C1320 1.327 . S
C1321 C1325 1.429 . S
C1322 C1305 1.574 . S
C1322 H1316 0.949 . S
C1322 C1326 1.368 . S
C1323 C1304 1.429 . S
C1323 C1317 1.429 . S
C1323 C1324 1.523 . S
C1324 C1305 1.368 . S
C1324 C1318 1.368 . S
C1324 C1323 1.523 . S
C1325 C1309 1.429 . S
C1325 C1321 1.429 . S
C1325 C1326 1.523 . S
C1326 C1310 1.368 . S
C1326 C1322 1.368 . S
C1326 C1325 1.523 . S
H1327 C1302 0.950 . S
H1328 C1304 0.950 . S
H1329 C1305 0.949 . S
H1330 C1307 0.950 . S
H1331 C1309 0.950 . S
C1332 C1333 1.349 . S
C1332 C1334 1.327 . S
C1332 H1357 0.950 . S
C1333 C1332 1.349 . S
C1333 C1349 1.349 . S
C1334 C1332 1.327 . S
C1334 C1353 1.429 . S
C1334 H1358 0.950 . S
C1335 C1352 1.574 . S
C1335 C1354 1.368 1_455 S
C1335 H1359 0.949 . S
H1336 C1340 0.949 . S
C1337 C1338 1.349 . S
C1337 C1339 1.327 . S
C1337 H1360 0.950 . S
C1338 C1337 1.349 . S
C1338 C1350 1.349 . S
C1339 C1337 1.327 . S
C1339 C1355 1.429 . S
C1339 H1361 0.950 . S
C1340 H1336 0.949 . S
C1340 C1348 1.574 1_455 S
C1340 C1356 1.368 . S
H1341 C1349 0.950 . S
H1342 C1347 0.950 . S
H1343 C1348 0.949 . S
H1344 C1350 0.950 . S
H1345 C1351 0.950 . S
H1346 C1352 0.949 . S
C1347 H1342 0.950 . S
C1347 C1349 1.327 . S
C1347 C1353 1.429 . S
C1348 C1340 1.574 1_655 S
C1348 H1343 0.949 . S
C1348 C1354 1.368 . S
C1349 C1333 1.349 . S
C1349 H1341 0.950 . S
C1349 C1347 1.327 . S
C1350 C1338 1.349 . S
C1350 H1344 0.950 . S
C1350 C1351 1.327 . S
C1351 H1345 0.950 . S
C1351 C1350 1.327 . S
C1351 C1355 1.429 . S
C1352 C1335 1.574 . S
C1352 H1346 0.949 . S
C1352 C1356 1.368 . S
C1353 C1334 1.429 . S
C1353 C1347 1.429 . S
C1353 C1354 1.523 . S
C1354 C1335 1.368 1_655 S
C1354 C1348 1.368 . S
C1354 C1353 1.523 . S
C1355 C1339 1.429 . S
C1355 C1351 1.429 . S
C1355 C1356 1.523 . S
C1356 C1340 1.368 . S
C1356 C1352 1.368 . S
C1356 C1355 1.523 . S
H1357 C1332 0.950 . S
H1358 C1334 0.950 . S
H1359 C1335 0.949 . S
H1360 C1337 0.950 . S
H1361 C1339 0.950 . S
C1362 C1363 1.349 . S
C1362 C1364 1.327 . S
C1362 H1387 0.950 . S
C1363 C1362 1.349 . S
C1363 C1379 1.349 . S
C1364 C1362 1.327 . S
C1364 C1383 1.429 . S
C1364 H1388 0.950 . S
C1365 C1382 1.574 . S
C1365 C1384 1.368 . S
C1365 H1389 0.949 . S
H1366 C1370 0.949 . S
C1367 C1368 1.349 . S
C1367 C1369 1.327 . S
C1367 H1390 0.950 . S
C1368 C1367 1.349 . S
C1368 C1380 1.349 . S
C1369 C1367 1.327 . S
C1369 C1385 1.429 . S
C1369 H1391 0.950 . S
C1370 H1366 0.949 . S
C1370 C1378 1.574 . S
C1370 C1386 1.368 . S
H1371 C1379 0.950 . S
H1372 C1377 0.950 . S
H1373 C1378 0.949 . S
H1374 C1380 0.950 . S
H1375 C1381 0.950 . S
H1376 C1382 0.949 . S
C1377 H1372 0.950 . S
C1377 C1379 1.327 . S
C1377 C1383 1.429 . S
C1378 C1370 1.574 . S
C1378 H1373 0.949 . S
C1378 C1384 1.368 . S
C1379 C1363 1.349 . S
C1379 H1371 0.950 . S
C1379 C1377 1.327 . S
C1380 C1368 1.349 . S
C1380 H1374 0.950 . S
C1380 C1381 1.327 . S
C1381 H1375 0.950 . S
C1381 C1380 1.327 . S
C1381 C1385 1.429 . S
C1382 C1365 1.574 . S
C1382 H1376 0.949 . S
C1382 C1386 1.368 . S
C1383 C1364 1.429 . S
C1383 C1377 1.429 . S
C1383 C1384 1.523 . S
C1384 C1365 1.368 . S
C1384 C1378 1.368 . S
C1384 C1383 1.523 . S
C1385 C1369 1.429 . S
C1385 C1381 1.429 . S
C1385 C1386 1.523 . S
C1386 C1370 1.368 . S
C1386 C1382 1.368 . S
C1386 C1385 1.523 . S
H1387 C1362 0.950 . S
H1388 C1364 0.950 . S
H1389 C1365 0.949 . S
H1390 C1367 0.950 . S
H1391 C1369 0.950 . S
C1392 C1393 1.349 . S
C1392 C1394 1.327 . S
C1392 H1417 0.950 . S
C1393 C1392 1.349 . S
C1393 C1409 1.349 . S
C1394 C1392 1.327 . S
C1394 C1413 1.429 . S
C1394 H1418 0.950 . S
C1395 C1412 1.574 . S
C1395 C1414 1.368 . S
C1395 H1419 0.949 . S
H1396 C1400 0.949 . S
C1397 C1398 1.349 . S
C1397 C1399 1.327 . S
C1397 H1420 0.950 . S
C1398 C1397 1.349 . S
C1398 C1410 1.349 . S
C1399 C1397 1.327 . S
C1399 C1415 1.429 . S
C1399 H1421 0.950 . S
C1400 H1396 0.949 . S
C1400 C1408 1.574 1_565 S
C1400 C1416 1.368 . S
H1401 C1409 0.950 . S
H1402 C1407 0.950 . S
H1403 C1408 0.949 . S
H1404 C1410 0.950 . S
H1405 C1411 0.950 . S
H1406 C1412 0.949 . S
C1407 H1402 0.950 . S
C1407 C1409 1.327 . S
C1407 C1413 1.429 . S
C1408 C1400 1.574 1_545 S
C1408 H1403 0.949 . S
C1408 C1414 1.368 . S
C1409 C1393 1.349 . S
C1409 H1401 0.950 . S
C1409 C1407 1.327 . S
C1410 C1398 1.349 . S
C1410 H1404 0.950 . S
C1410 C1411 1.327 . S
C1411 H1405 0.950 . S
C1411 C1410 1.327 . S
C1411 C1415 1.429 . S
C1412 C1395 1.574 . S
C1412 H1406 0.949 . S
C1412 C1416 1.368 1_545 S
C1413 C1394 1.429 . S
C1413 C1407 1.429 . S
C1413 C1414 1.523 . S
C1414 C1395 1.368 . S
C1414 C1408 1.368 . S
C1414 C1413 1.523 . S
C1415 C1399 1.429 . S
C1415 C1411 1.429 . S
C1415 C1416 1.523 . S
C1416 C1400 1.368 . S
C1416 C1412 1.368 1_565 S
C1416 C1415 1.523 . S
H1417 C1392 0.950 . S
H1418 C1394 0.950 . S
H1419 C1395 0.949 . S
H1420 C1397 0.950 . S
H1421 C1399 0.950 . S
C1422 C1423 1.349 . S
C1422 C1424 1.327 . S
C1422 H1447 0.950 . S
C1423 C1422 1.349 . S
C1423 C1439 1.349 . S
C1424 C1422 1.327 . S
C1424 C1443 1.429 . S
C1424 H1448 0.950 . S
C1425 C1442 1.574 . S
C1425 C1444 1.368 . S
C1425 H1449 0.949 . S
H1426 C1430 0.949 . S
C1427 C1428 1.349 . S
C1427 C1429 1.327 . S
C1427 H1450 0.950 . S
C1428 C1427 1.349 . S
C1428 C1440 1.349 . S
C1429 C1427 1.327 . S
C1429 C1445 1.429 . S
C1429 H1451 0.950 . S
C1430 H1426 0.949 . S
C1430 C1438 1.574 . S
C1430 C1446 1.368 . S
H1431 C1439 0.950 . S
H1432 C1437 0.950 . S
H1433 C1438 0.949 . S
H1434 C1440 0.950 . S
H1435 C1441 0.950 . S
H1436 C1442 0.949 . S
C1437 H1432 0.950 . S
C1437 C1439 1.327 . S
C1437 C1443 1.429 . S
C1438 C1430 1.574 . S
C1438 H1433 0.949 . S
C1438 C1444 1.368 . S
C1439 C1423 1.349 . S
C1439 H1431 0.950 . S
C1439 C1437 1.327 . S
C1440 C1428 1.349 . S
C1440 H1434 0.950 . S
C1440 C1441 1.327 . S
C1441 H1435 0.950 . S
C1441 C1440 1.327 . S
C1441 C1445 1.429 . S
C1442 C1425 1.574 . S
C1442 H1436 0.949 . S
C1442 C1446 1.368 . S
C1443 C1424 1.429 . S
C1443 C1437 1.429 . S
C1443 C1444 1.523 . S
C1444 C1425 1.368 . S
C1444 C1438 1.368 . S
C1444 C1443 1.523 . S
C1445 C1429 1.429 . S
C1445 C1441 1.429 . S
C1445 C1446 1.523 . S
C1446 C1430 1.368 . S
C1446 C1442 1.368 . S
C1446 C1445 1.523 . S
H1447 C1422 0.950 . S
H1448 C1424 0.950 . S
H1449 C1425 0.949 . S
H1450 C1427 0.950 . S
H1451 C1429 0.950 . S
C1452 C1453 1.349 . S
C1452 C1454 1.327 . S
C1452 H1477 0.950 . S
C1453 C1452 1.349 . S
C1453 C1469 1.349 . S
C1454 C1452 1.327 . S
C1454 C1473 1.429 . S
C1454 H1478 0.950 . S
C1455 C1472 1.574 . S
C1455 C1474 1.368 . S
C1455 H1479 0.949 . S
H1456 C1460 0.949 . S
C1457 C1458 1.349 . S
C1457 C1459 1.327 . S
C1457 H1480 0.950 . S
C1458 C1457 1.349 . S
C1458 C1470 1.349 . S
C1459 C1457 1.327 . S
C1459 C1475 1.429 . S
C1459 H1481 0.950 . S
C1460 H1456 0.949 . S
C1460 C1468 1.574 . S
C1460 C1476 1.368 . S
H1461 C1469 0.950 . S
H1462 C1467 0.950 . S
H1463 C1468 0.949 . S
H1464 C1470 0.950 . S
H1465 C1471 0.950 . S
H1466 C1472 0.949 . S
C1467 H1462 0.950 . S
C1467 C1469 1.327 . S
C1467 C1473 1.429 . S
C1468 C1460 1.574 . S
C1468 H1463 0.949 . S
C1468 C1474 1.368 . S
C1469 C1453 1.349 . S
C1469 H1461 0.950 . S
C1469 C1467 1.327 . S
C1470 C1458 1.349 . S
C1470 H1464 0.950 . S
C1470 C1471 1.327 . S
C1471 H1465 0.950 . S
C1471 C1470 1.327 . S
C1471 C1475 1.429 . S
C1472 C1455 1.574 . S
C1472 H1466 0.949 . S
C1472 C1476 1.368 . S
C1473 C1454 1.429 . S
C1473 C1467 1.429 . S
C1473 C1474 1.523 . S
C1474 C1455 1.368 . S
C1474 C1468 1.368 . S
C1474 C1473 1.523 . S
C1475 C1459 1.429 . S
C1475 C1471 1.429 . S
C1475 C1476 1.523 . S
C1476 C1460 1.368 . S
C1476 C1472 1.368 . S
C1476 C1475 1.523 . S
H1477 C1452 0.950 . S
H1478 C1454 0.950 . S
H1479 C1455 0.949 . S
H1480 C1457 0.950 . S
H1481 C1459 0.950 . S
C1482 C1483 1.349 . S
C1482 C1484 1.327 . S
C1482 H1507 0.950 . S
C1483 C1482 1.349 . S
C1483 C1499 1.349 . S
C1484 C1482 1.327 . S
C1484 C1503 1.429 . S
C1484 H1508 0.950 . S
C1485 C1502 1.574 . S
C1485 C1504 1.368 . S
C1485 H1509 0.949 . S
H1486 C1490 0.949 . S
C1487 C1488 1.349 . S
C1487 C1489 1.327 . S
C1487 H1510 0.950 . S
C1488 C1487 1.349 . S
C1488 C1500 1.349 . S
C1489 C1487 1.327 . S
C1489 C1505 1.429 . S
C1489 H1511 0.950 . S
C1490 H1486 0.949 . S
C1490 C1498 1.574 . S
C1490 C1506 1.368 . S
H1491 C1499 0.950 . S
H1492 C1497 0.950 . S
H1493 C1498 0.949 . S
H1494 C1500 0.950 . S
H1495 C1501 0.950 . S
H1496 C1502 0.949 . S
C1497 H1492 0.950 . S
C1497 C1499 1.327 . S
C1497 C1503 1.429 . S
C1498 C1490 1.574 . S
C1498 H1493 0.949 . S
C1498 C1504 1.368 . S
C1499 C1483 1.349 . S
C1499 H1491 0.950 . S
C1499 C1497 1.327 . S
C1500 C1488 1.349 . S
C1500 H1494 0.950 . S
C1500 C1501 1.327 . S
C1501 H1495 0.950 . S
C1501 C1500 1.327 . S
C1501 C1505 1.429 . S
C1502 C1485 1.574 . S
C1502 H1496 0.949 . S
C1502 C1506 1.368 . S
C1503 C1484 1.429 . S
C1503 C1497 1.429 . S
C1503 C1504 1.523 . S
C1504 C1485 1.368 . S
C1504 C1498 1.368 . S
C1504 C1503 1.523 . S
C1505 C1489 1.429 . S
C1505 C1501 1.429 . S
C1505 C1506 1.523 . S
C1506 C1490 1.368 . S
C1506 C1502 1.368 . S
C1506 C1505 1.523 . S
H1507 C1482 0.950 . S
H1508 C1484 0.950 . S
H1509 C1485 0.949 . S
H1510 C1487 0.950 . S
H1511 C1489 0.950 . S
C1512 C1513 1.349 . S
C1512 C1514 1.327 . S
C1512 H1537 0.950 . S
C1513 C1512 1.349 . S
C1513 C1529 1.349 . S
C1514 C1512 1.327 . S
C1514 C1533 1.429 . S
C1514 H1538 0.950 . S
C1515 C1532 1.574 . S
C1515 C1534 1.368 . S
C1515 H1539 0.949 . S
H1516 C1520 0.949 . S
C1517 C1518 1.349 . S
C1517 C1519 1.327 . S
C1517 H1540 0.950 . S
C1518 C1517 1.349 . S
C1518 C1530 1.349 . S
C1519 C1517 1.327 . S
C1519 C1535 1.429 . S
C1519 H1541 0.950 . S
C1520 H1516 0.949 . S
C1520 C1528 1.574 . S
C1520 C1536 1.368 . S
H1521 C1529 0.950 . S
H1522 C1527 0.950 . S
H1523 C1528 0.949 . S
H1524 C1530 0.950 . S
H1525 C1531 0.950 . S
H1526 C1532 0.949 . S
C1527 H1522 0.950 . S
C1527 C1529 1.327 . S
C1527 C1533 1.429 . S
C1528 C1520 1.574 . S
C1528 H1523 0.949 . S
C1528 C1534 1.368 . S
C1529 C1513 1.349 . S
C1529 H1521 0.950 . S
C1529 C1527 1.327 . S
C1530 C1518 1.349 . S
C1530 H1524 0.950 . S
C1530 C1531 1.327 . S
C1531 H1525 0.950 . S
C1531 C1530 1.327 . S
C1531 C1535 1.429 . S
C1532 C1515 1.574 . S
C1532 H1526 0.949 . S
C1532 C1536 1.368 . S
C1533 C1514 1.429 . S
C1533 C1527 1.429 . S
C1533 C1534 1.523 . S
C1534 C1515 1.368 . S
C1534 C1528 1.368 . S
C1534 C1533 1.523 . S
C1535 C1519 1.429 . S
C1535 C1531 1.429 . S
C1535 C1536 1.523 . S
C1536 C1520 1.368 . S
C1536 C1532 1.368 . S
C1536 C1535 1.523 . S
H1537 C1512 0.950 . S
H1538 C1514 0.950 . S
H1539 C1515 0.949 . S
H1540 C1517 0.950 . S
H1541 C1519 0.950 . S
C1542 C1543 1.349 . S
C1542 C1544 1.327 . S
C1542 H1567 0.950 . S
C1543 C1542 1.349 . S
C1543 C1559 1.349 . S
C1544 C1542 1.327 . S
C1544 C1563 1.429 . S
C1544 H1568 0.950 . S
C1545 C1562 1.574 . S
C1545 C1564 1.368 . S
C1545 H1569 0.949 . S
H1546 C1550 0.949 . S
C1547 C1548 1.349 . S
C1547 C1549 1.327 . S
C1547 H1570 0.950 . S
C1548 C1547 1.349 . S
C1548 C1560 1.349 . S
C1549 C1547 1.327 . S
C1549 C1565 1.429 . S
C1549 H1571 0.950 . S
C1550 H1546 0.949 . S
C1550 C1558 1.574 . S
C1550 C1566 1.368 . S
H1551 C1559 0.950 . S
H1552 C1557 0.950 . S
H1553 C1558 0.949 . S
H1554 C1560 0.950 . S
H1555 C1561 0.950 . S
H1556 C1562 0.949 . S
C1557 H1552 0.950 . S
C1557 C1559 1.327 . S
C1557 C1563 1.429 . S
C1558 C1550 1.574 . S
C1558 H1553 0.949 . S
C1558 C1564 1.368 . S
C1559 C1543 1.349 . S
C1559 H1551 0.950 . S
C1559 C1557 1.327 . S
C1560 C1548 1.349 . S
C1560 H1554 0.950 . S
C1560 C1561 1.327 . S
C1561 H1555 0.950 . S
C1561 C1560 1.327 . S
C1561 C1565 1.429 . S
C1562 C1545 1.574 . S
C1562 H1556 0.949 . S
C1562 C1566 1.368 . S
C1563 C1544 1.429 . S
C1563 C1557 1.429 . S
C1563 C1564 1.523 . S
C1564 C1545 1.368 . S
C1564 C1558 1.368 . S
C1564 C1563 1.523 . S
C1565 C1549 1.429 . S
C1565 C1561 1.429 . S
C1565 C1566 1.523 . S
C1566 C1550 1.368 . S
C1566 C1562 1.368 . S
C1566 C1565 1.523 . S
H1567 C1542 0.950 . S
H1568 C1544 0.950 . S
H1569 C1545 0.949 . S
H1570 C1547 0.950 . S
H1571 C1549 0.950 . S
C1572 C1573 1.349 . S
C1572 C1574 1.327 . S
C1572 H1597 0.950 . S
C1573 C1572 1.349 . S
C1573 C1589 1.349 . S
C1574 C1572 1.327 . S
C1574 C1593 1.429 . S
C1574 H1598 0.950 . S
C1575 C1592 1.574 . S
C1575 C1594 1.368 . S
C1575 H1599 0.949 . S
H1576 C1580 0.949 . S
C1577 C1578 1.349 . S
C1577 C1579 1.327 . S
C1577 H1600 0.950 . S
C1578 C1577 1.349 . S
C1578 C1590 1.349 . S
C1579 C1577 1.327 . S
C1579 C1595 1.429 . S
C1579 H1601 0.950 . S
C1580 H1576 0.949 . S
C1580 C1588 1.574 . S
C1580 C1596 1.368 . S
H1581 C1589 0.950 . S
H1582 C1587 0.950 . S
H1583 C1588 0.949 . S
H1584 C1590 0.950 . S
H1585 C1591 0.950 . S
H1586 C1592 0.949 . S
C1587 H1582 0.950 . S
C1587 C1589 1.327 . S
C1587 C1593 1.429 . S
C1588 C1580 1.574 . S
C1588 H1583 0.949 . S
C1588 C1594 1.368 . S
C1589 C1573 1.349 . S
C1589 H1581 0.950 . S
C1589 C1587 1.327 . S
C1590 C1578 1.349 . S
C1590 H1584 0.950 . S
C1590 C1591 1.327 . S
C1591 H1585 0.950 . S
C1591 C1590 1.327 . S
C1591 C1595 1.429 . S
C1592 C1575 1.574 . S
C1592 H1586 0.949 . S
C1592 C1596 1.368 . S
C1593 C1574 1.429 . S
C1593 C1587 1.429 . S
C1593 C1594 1.523 . S
C1594 C1575 1.368 . S
C1594 C1588 1.368 . S
C1594 C1593 1.523 . S
C1595 C1579 1.429 . S
C1595 C1591 1.429 . S
C1595 C1596 1.523 . S
C1596 C1580 1.368 . S
C1596 C1592 1.368 . S
C1596 C1595 1.523 . S
H1597 C1572 0.950 . S
H1598 C1574 0.950 . S
H1599 C1575 0.949 . S
H1600 C1577 0.950 . S
H1601 C1579 0.950 . S
C1602 C1603 1.349 . S
C1602 C1604 1.327 . S
C1602 H1627 0.950 . S
C1603 C1602 1.349 . S
C1603 C1619 1.349 . S
C1604 C1602 1.327 . S
C1604 C1623 1.429 1_545 S
C1604 H1628 0.959 . S
C1605 C1622 1.574 . S
C1605 C1624 1.368 . S
C1605 H1629 0.949 . S
H1606 C1610 0.949 . S
C1607 C1608 1.349 . S
C1607 C1609 1.327 . S
C1607 H1630 0.950 . S
C1608 C1607 1.349 . S
C1608 C1620 1.349 . S
C1609 C1607 1.327 . S
C1609 C1625 1.429 . S
C1609 H1631 0.950 . S
C1610 H1606 0.949 . S
C1610 C1618 1.574 . S
C1610 C1626 1.368 . S
H1611 C1619 0.950 . S
H1612 C1617 0.950 . S
H1613 C1618 0.949 . S
H1614 C1620 0.950 . S
H1615 C1621 0.950 . S
H1616 C1622 0.949 . S
C1617 H1612 0.950 . S
C1617 C1619 1.327 . S
C1617 C1623 1.429 1_545 S
C1618 C1610 1.574 . S
C1618 H1613 0.949 . S
C1618 C1624 1.368 . S
C1619 C1603 1.349 . S
C1619 H1611 0.950 . S
C1619 C1617 1.327 . S
C1620 C1608 1.349 . S
C1620 H1614 0.950 . S
C1620 C1621 1.327 . S
C1621 H1615 0.950 . S
C1621 C1620 1.327 . S
C1621 C1625 1.429 . S
C1622 C1605 1.574 . S
C1622 H1616 0.949 . S
C1622 C1626 1.368 . S
C1623 C1604 1.429 1_565 S
C1623 C1617 1.429 1_565 S
C1623 C1624 1.523 . S
C1624 C1605 1.368 . S
C1624 C1618 1.368 . S
C1624 C1623 1.523 . S
C1625 C1609 1.429 . S
C1625 C1621 1.429 . S
C1625 C1626 1.523 . S
C1626 C1610 1.368 . S
C1626 C1622 1.368 . S
C1626 C1625 1.523 . S
H1627 C1602 0.950 . S
H1628 C1604 0.959 . S
H1629 C1605 0.949 . S
H1630 C1607 0.950 . S
H1631 C1609 0.950 . S
C1632 C1633 1.349 . S
C1632 C1634 1.327 1_655 S
C1632 H1657 0.950 . S
C1633 C1632 1.349 . S
C1633 C1649 1.349 . S
C1634 C1632 1.327 1_455 S
C1634 C1653 1.429 . S
C1634 H1658 0.950 . S
C1635 C1652 1.574 . S
C1635 C1654 1.368 . S
C1635 H1659 0.949 . S
H1636 C1640 0.949 . S
C1637 C1638 1.349 . S
C1637 C1639 1.327 . S
C1637 H1660 0.950 . S
C1638 C1637 1.349 . S
C1638 C1650 1.349 . S
C1639 C1637 1.327 . S
C1639 C1655 1.429 . S
C1639 H1661 0.950 . S
C1640 H1636 0.949 . S
C1640 C1648 1.574 . S
C1640 C1656 1.368 . S
H1641 C1649 0.950 . S
H1642 C1647 0.950 . S
H1643 C1648 0.949 . S
H1644 C1650 0.950 . S
H1645 C1651 0.950 . S
H1646 C1652 0.949 . S
C1647 H1642 0.950 . S
C1647 C1649 1.327 1_455 S
C1647 C1653 1.429 . S
C1648 C1640 1.574 . S
C1648 H1643 0.949 . S
C1648 C1654 1.368 . S
C1649 C1633 1.349 . S
C1649 H1641 0.950 . S
C1649 C1647 1.327 1_655 S
C1650 C1638 1.349 . S
C1650 H1644 0.950 . S
C1650 C1651 1.327 . S
C1651 H1645 0.950 . S
C1651 C1650 1.327 . S
C1651 C1655 1.429 . S
C1652 C1635 1.574 . S
C1652 H1646 0.949 . S
C1652 C1656 1.368 . S
C1653 C1634 1.429 . S
C1653 C1647 1.429 . S
C1653 C1654 1.523 . S
C1654 C1635 1.368 . S
C1654 C1648 1.368 . S
C1654 C1653 1.523 . S
C1655 C1639 1.429 . S
C1655 C1651 1.429 . S
C1655 C1656 1.523 . S
C1656 C1640 1.368 . S
C1656 C1652 1.368 . S
C1656 C1655 1.523 . S
H1657 C1632 0.950 . S
H1658 C1634 0.950 . S
H1659 C1635 0.949 . S
H1660 C1637 0.950 . S
H1661 C1639 0.950 . S
C1662 C1663 1.349 . S
C1662 C1664 1.327 . S
C1662 H1687 0.950 . S
C1663 C1662 1.349 . S
C1663 C1679 1.349 . S
C1664 C1662 1.327 . S
C1664 C1683 1.429 . S
C1664 H1688 0.950 . S
C1665 C1682 1.574 . S
C1665 C1684 1.368 . S
C1665 H1689 0.949 . S
H1666 C1670 0.949 . S
C1667 C1668 1.349 . S
C1667 C1669 1.327 . S
C1667 H1690 0.950 . S
C1668 C1667 1.349 . S
C1668 C1680 1.349 . S
C1669 C1667 1.327 . S
C1669 C1685 1.429 . S
C1669 H1691 0.950 . S
C1670 H1666 0.949 . S
C1670 C1678 1.574 . S
C1670 C1686 1.368 . S
H1671 C1679 0.950 . S
H1672 C1677 0.950 . S
H1673 C1678 0.949 . S
H1674 C1680 0.950 . S
H1675 C1681 0.950 . S
H1676 C1682 0.949 . S
C1677 H1672 0.950 . S
C1677 C1679 1.327 . S
C1677 C1683 1.429 . S
C1678 C1670 1.574 . S
C1678 H1673 0.949 . S
C1678 C1684 1.368 . S
C1679 C1663 1.349 . S
C1679 H1671 0.950 . S
C1679 C1677 1.327 . S
C1680 C1668 1.349 . S
C1680 H1674 0.950 . S
C1680 C1681 1.327 . S
C1681 H1675 0.950 . S
C1681 C1680 1.327 . S
C1681 C1685 1.429 . S
C1682 C1665 1.574 . S
C1682 H1676 0.949 . S
C1682 C1686 1.368 . S
C1683 C1664 1.429 . S
C1683 C1677 1.429 . S
C1683 C1684 1.523 . S
C1684 C1665 1.368 . S
C1684 C1678 1.368 . S
C1684 C1683 1.523 . S
C1685 C1669 1.429 . S
C1685 C1681 1.429 . S
C1685 C1686 1.523 . S
C1686 C1670 1.368 . S
C1686 C1682 1.368 . S
C1686 C1685 1.523 . S
H1687 C1662 0.950 . S
H1688 C1664 0.950 . S
H1689 C1665 0.949 . S
H1690 C1667 0.950 . S
H1691 C1669 0.950 . S
C1692 C1693 1.349 . S
C1692 C1694 1.327 . S
C1692 H1717 0.950 . S
C1693 C1692 1.349 . S
C1693 C1709 1.349 . S
C1694 C1692 1.327 . S
C1694 C1713 1.429 . S
C1694 H1718 0.950 . S
C1695 C1712 1.574 . S
C1695 C1714 1.368 . S
C1695 H1719 0.949 . S
H1696 C1700 0.949 . S
C1697 C1698 1.349 . S
C1697 C1699 1.327 . S
C1697 H1720 0.950 . S
C1698 C1697 1.349 . S
C1698 C1710 1.349 . S
C1699 C1697 1.327 . S
C1699 C1715 1.429 . S
C1699 H1721 0.950 . S
C1700 H1696 0.949 . S
C1700 C1708 1.574 . S
C1700 C1716 1.368 . S
H1701 C1709 0.950 . S
H1702 C1707 0.950 . S
H1703 C1708 0.949 . S
H1704 C1710 0.950 . S
H1705 C1711 0.950 . S
H1706 C1712 0.949 . S
C1707 H1702 0.950 . S
C1707 C1709 1.327 . S
C1707 C1713 1.429 . S
C1708 C1700 1.574 . S
C1708 H1703 0.949 . S
C1708 C1714 1.368 . S
C1709 C1693 1.349 . S
C1709 H1701 0.950 . S
C1709 C1707 1.327 . S
C1710 C1698 1.349 . S
C1710 H1704 0.950 . S
C1710 C1711 1.327 . S
C1711 H1705 0.950 . S
C1711 C1710 1.327 . S
C1711 C1715 1.429 . S
C1712 C1695 1.574 . S
C1712 H1706 0.949 . S
C1712 C1716 1.368 . S
C1713 C1694 1.429 . S
C1713 C1707 1.429 . S
C1713 C1714 1.523 . S
C1714 C1695 1.368 . S
C1714 C1708 1.368 . S
C1714 C1713 1.523 . S
C1715 C1699 1.429 . S
C1715 C1711 1.429 . S
C1715 C1716 1.523 . S
C1716 C1700 1.368 . S
C1716 C1712 1.368 . S
C1716 C1715 1.523 . S
H1717 C1692 0.950 . S
H1718 C1694 0.950 . S
H1719 C1695 0.949 . S
H1720 C1697 0.950 . S
H1721 C1699 0.950 . S
C1722 C1723 1.349 . S
C1722 C1724 1.327 . S
C1722 H1747 0.950 . S
C1723 C1722 1.349 . S
C1723 C1739 1.349 . S
C1724 C1722 1.327 . S
C1724 C1743 1.429 . S
C1724 H1748 0.950 . S
C1725 C1742 1.574 . S
C1725 C1744 1.368 . S
C1725 H1749 0.949 . S
H1726 C1730 0.949 . S
C1727 C1728 1.349 . S
C1727 C1729 1.327 . S
C1727 H1750 0.950 . S
C1728 C1727 1.349 . S
C1728 C1740 1.349 . S
C1729 C1727 1.327 . S
C1729 C1745 1.429 . S
C1729 H1751 0.950 . S
C1730 H1726 0.949 . S
C1730 C1738 1.574 . S
C1730 C1746 1.368 . S
H1731 C1739 0.950 . S
H1732 C1737 0.950 . S
H1733 C1738 0.949 . S
H1734 C1740 0.950 . S
H1735 C1741 0.950 . S
H1736 C1742 0.949 . S
C1737 H1732 0.950 . S
C1737 C1739 1.327 . S
C1737 C1743 1.429 . S
C1738 C1730 1.574 . S
C1738 H1733 0.949 . S
C1738 C1744 1.368 . S
C1739 C1723 1.349 . S
C1739 H1731 0.950 . S
C1739 C1737 1.327 . S
C1740 C1728 1.349 . S
C1740 H1734 0.950 . S
C1740 C1741 1.327 . S
C1741 H1735 0.950 . S
C1741 C1740 1.327 . S
C1741 C1745 1.429 . S
C1742 C1725 1.574 . S
C1742 H1736 0.949 . S
C1742 C1746 1.368 . S
C1743 C1724 1.429 . S
C1743 C1737 1.429 . S
C1743 C1744 1.523 . S
C1744 C1725 1.368 . S
C1744 C1738 1.368 . S
C1744 C1743 1.523 . S
C1745 C1729 1.429 . S
C1745 C1741 1.429 . S
C1745 C1746 1.523 . S
C1746 C1730 1.368 . S
C1746 C1742 1.368 . S
C1746 C1745 1.523 . S
H1747 C1722 0.950 . S
H1748 C1724 0.950 . S
H1749 C1725 0.949 . S
H1750 C1727 0.950 . S
H1751 C1729 0.950 . S
C1752 C1753 1.349 . S
C1752 C1754 1.327 . S
C1752 H1777 0.950 . S
C1753 C1752 1.349 . S
C1753 C1769 1.349 . S
C1754 C1752 1.327 . S
C1754 C1773 1.429 . S
C1754 H1778 0.950 . S
C1755 C1772 1.574 . S
C1755 C1774 1.368 . S
C1755 H1779 0.949 . S
H1756 C1760 0.949 . S
C1757 C1758 1.349 . S
C1757 C1759 1.327 . S
C1757 H1780 0.950 . S
C1758 C1757 1.349 . S
C1758 C1770 1.349 . S
C1759 C1757 1.327 . S
C1759 C1775 1.429 . S
C1759 H1781 0.950 . S
C1760 H1756 0.949 . S
C1760 C1768 1.574 . S
C1760 C1776 1.368 . S
H1761 C1769 0.950 . S
H1762 C1767 0.950 . S
H1763 C1768 0.949 . S
H1764 C1770 0.950 . S
H1765 C1771 0.950 . S
H1766 C1772 0.949 . S
C1767 H1762 0.950 . S
C1767 C1769 1.327 . S
C1767 C1773 1.429 . S
C1768 C1760 1.574 . S
C1768 H1763 0.949 . S
C1768 C1774 1.368 . S
C1769 C1753 1.349 . S
C1769 H1761 0.950 . S
C1769 C1767 1.327 . S
C1770 C1758 1.349 . S
C1770 H1764 0.950 . S
C1770 C1771 1.327 . S
C1771 H1765 0.950 . S
C1771 C1770 1.327 . S
C1771 C1775 1.429 . S
C1772 C1755 1.574 . S
C1772 H1766 0.949 . S
C1772 C1776 1.368 . S
C1773 C1754 1.429 . S
C1773 C1767 1.429 . S
C1773 C1774 1.523 . S
C1774 C1755 1.368 . S
C1774 C1768 1.368 . S
C1774 C1773 1.523 . S
C1775 C1759 1.429 . S
C1775 C1771 1.429 . S
C1775 C1776 1.523 . S
C1776 C1760 1.368 . S
C1776 C1772 1.368 . S
C1776 C1775 1.523 . S
H1777 C1752 0.950 . S
H1778 C1754 0.950 . S
H1779 C1755 0.949 . S
H1780 C1757 0.950 . S
H1781 C1759 0.950 . S
C1782 C1783 1.349 . S
C1782 C1784 1.327 . S
C1782 H1807 0.950 . S
C1783 C1782 1.349 . S
C1783 C1799 1.349 . S
C1784 C1782 1.327 . S
C1784 C1803 1.429 . S
C1784 H1808 0.950 . S
C1785 C1802 1.574 . S
C1785 C1804 1.368 1_545 S
C1785 H1809 0.949 . S
H1786 C1790 0.949 . S
C1787 C1788 1.349 . S
C1787 C1789 1.327 . S
C1787 H1810 0.950 . S
C1788 C1787 1.349 . S
C1788 C1800 1.349 . S
C1789 C1787 1.327 . S
C1789 C1805 1.429 . S
C1789 H1811 0.950 . S
C1790 H1786 0.949 . S
C1790 C1798 1.574 1_545 S
C1790 C1806 1.368 . S
H1791 C1799 0.950 . S
H1792 C1797 0.950 . S
H1793 C1798 0.949 . S
H1794 C1800 0.950 . S
H1795 C1801 0.950 . S
H1796 C1802 0.949 . S
C1797 H1792 0.950 . S
C1797 C1799 1.327 . S
C1797 C1803 1.429 . S
C1798 C1790 1.574 1_565 S
C1798 H1793 0.949 . S
C1798 C1804 1.368 . S
C1799 C1783 1.349 . S
C1799 H1791 0.950 . S
C1799 C1797 1.327 . S
C1800 C1788 1.349 . S
C1800 H1794 0.950 . S
C1800 C1801 1.327 . S
C1801 H1795 0.950 . S
C1801 C1800 1.327 . S
C1801 C1805 1.429 . S
C1802 C1785 1.574 . S
C1802 H1796 0.949 . S
C1802 C1806 1.368 . S
C1803 C1784 1.429 . S
C1803 C1797 1.429 . S
C1803 C1804 1.523 . S
C1804 C1785 1.368 1_565 S
C1804 C1798 1.368 . S
C1804 C1803 1.523 . S
C1805 C1789 1.429 . S
C1805 C1801 1.429 . S
C1805 C1806 1.523 . S
C1806 C1790 1.368 . S
C1806 C1802 1.368 . S
C1806 C1805 1.523 . S
H1807 C1782 0.950 . S
H1808 C1784 0.950 . S
H1809 C1785 0.949 . S
H1810 C1787 0.950 . S
H1811 C1789 0.950 . S
C1812 C1813 1.349 . S
C1812 C1814 1.327 . S
C1812 H1837 0.950 . S
C1813 C1812 1.349 . S
C1813 C1829 1.349 . S
C1814 C1812 1.327 . S
C1814 C1833 1.429 . S
C1814 H1838 0.950 . S
C1815 C1832 1.574 1_455 S
C1815 C1834 1.368 . S
C1815 H1839 0.949 . S
H1816 C1820 0.949 . S
C1817 C1818 1.349 . S
C1817 C1819 1.327 . S
C1817 H1840 0.950 . S
C1818 C1817 1.349 . S
C1818 C1830 1.349 . S
C1819 C1817 1.327 . S
C1819 C1835 1.429 . S
C1819 H1841 0.950 . S
C1820 H1816 0.949 . S
C1820 C1828 1.574 1_655 S
C1820 C1836 1.368 . S
H1821 C1829 0.950 . S
H1822 C1827 0.950 . S
H1823 C1828 0.949 . S
H1824 C1830 0.950 . S
H1825 C1831 0.950 . S
H1826 C1832 0.949 . S
C1827 H1822 0.950 . S
C1827 C1829 1.327 . S
C1827 C1833 1.429 . S
C1828 C1820 1.574 1_455 S
C1828 H1823 0.949 . S
C1828 C1834 1.368 . S
C1829 C1813 1.349 . S
C1829 H1821 0.950 . S
C1829 C1827 1.327 . S
C1830 C1818 1.349 . S
C1830 H1824 0.950 . S
C1830 C1831 1.327 . S
C1831 H1825 0.950 . S
C1831 C1830 1.327 . S
C1831 C1835 1.429 . S
C1832 C1815 1.574 1_655 S
C1832 H1826 0.949 . S
C1832 C1836 1.368 . S
C1833 C1814 1.429 . S
C1833 C1827 1.429 . S
C1833 C1834 1.523 . S
C1834 C1815 1.368 . S
C1834 C1828 1.368 . S
C1834 C1833 1.523 . S
C1835 C1819 1.429 . S
C1835 C1831 1.429 . S
C1835 C1836 1.523 . S
C1836 C1820 1.368 . S
C1836 C1832 1.368 . S
C1836 C1835 1.523 . S
H1837 C1812 0.950 . S
H1838 C1814 0.950 . S
H1839 C1815 0.949 . S
H1840 C1817 0.950 . S
H1841 C1819 0.950 . S
C1842 C1843 1.349 . S
C1842 C1844 1.327 . S
C1842 H1867 0.950 . S
C1843 C1842 1.349 . S
C1843 C1859 1.349 . S
C1844 C1842 1.327 . S
C1844 C1863 1.429 . S
C1844 H1868 0.950 . S
C1845 C1862 1.574 . S
C1845 C1864 1.368 . S
C1845 H1869 0.949 . S
H1846 C1850 0.949 . S
C1847 C1848 1.349 . S
C1847 C1849 1.327 . S
C1847 H1870 0.950 . S
C1848 C1847 1.349 . S
C1848 C1860 1.349 . S
C1849 C1847 1.327 . S
C1849 C1865 1.429 . S
C1849 H1871 0.950 . S
C1850 H1846 0.949 . S
C1850 C1858 1.574 . S
C1850 C1866 1.368 . S
H1851 C1859 0.950 . S
H1852 C1857 0.950 . S
H1853 C1858 0.949 . S
H1854 C1860 0.950 . S
H1855 C1861 0.950 . S
H1856 C1862 0.949 . S
C1857 H1852 0.950 . S
C1857 C1859 1.327 . S
C1857 C1863 1.429 . S
C1858 C1850 1.574 . S
C1858 H1853 0.949 . S
C1858 C1864 1.368 . S
C1859 C1843 1.349 . S
C1859 H1851 0.950 . S
C1859 C1857 1.327 . S
C1860 C1848 1.349 . S
C1860 H1854 0.950 . S
C1860 C1861 1.327 . S
C1861 H1855 0.950 . S
C1861 C1860 1.327 . S
C1861 C1865 1.429 . S
C1862 C1845 1.574 . S
C1862 H1856 0.949 . S
C1862 C1866 1.368 . S
C1863 C1844 1.429 . S
C1863 C1857 1.429 . S
C1863 C1864 1.523 . S
C1864 C1845 1.368 . S
C1864 C1858 1.368 . S
C1864 C1863 1.523 . S
C1865 C1849 1.429 . S
C1865 C1861 1.429 . S
C1865 C1866 1.523 . S
C1866 C1850 1.368 . S
C1866 C1862 1.368 . S
C1866 C1865 1.523 . S
H1867 C1842 0.950 . S
H1868 C1844 0.950 . S
H1869 C1845 0.949 . S
H1870 C1847 0.950 . S
H1871 C1849 0.950 . S
C1872 C1873 1.349 . S
C1872 C1874 1.327 . S
C1872 H1897 0.950 . S
C1873 C1872 1.349 . S
C1873 C1889 1.349 . S
C1874 C1872 1.327 . S
C1874 C1893 1.429 1_455 S
C1874 H1898 0.946 1_455 S
C1875 C1892 1.574 . S
C1875 C1894 1.368 . S
C1875 H1899 0.949 . S
H1876 C1880 0.949 . S
C1877 C1878 1.349 . S
C1877 C1879 1.327 . S
C1877 H1900 0.950 . S
C1878 C1877 1.349 . S
C1878 C1890 1.349 . S
C1879 C1877 1.327 . S
C1879 C1895 1.429 . S
C1879 H1901 0.950 . S
C1880 H1876 0.949 . S
C1880 C1888 1.574 . S
C1880 C1896 1.368 . S
H1881 C1889 0.950 . S
H1882 C1887 0.950 1_655 S
H1883 C1888 0.949 . S
H1884 C1890 0.950 . S
H1885 C1891 0.950 . S
H1886 C1892 0.949 . S
C1887 H1882 0.950 1_455 S
C1887 C1889 1.327 . S
C1887 C1893 1.429 1_455 S
C1888 C1880 1.574 . S
C1888 H1883 0.949 . S
C1888 C1894 1.368 . S
C1889 C1873 1.349 . S
C1889 H1881 0.950 . S
C1889 C1887 1.327 . S
C1890 C1878 1.349 . S
C1890 H1884 0.950 . S
C1890 C1891 1.327 . S
C1891 H1885 0.950 . S
C1891 C1890 1.327 . S
C1891 C1895 1.429 . S
C1892 C1875 1.574 . S
C1892 H1886 0.949 . S
C1892 C1896 1.368 . S
C1893 C1874 1.429 1_655 S
C1893 C1887 1.429 1_655 S
C1893 C1894 1.523 . S
C1894 C1875 1.368 . S
C1894 C1888 1.368 . S
C1894 C1893 1.523 . S
C1895 C1879 1.429 . S
C1895 C1891 1.429 . S
C1895 C1896 1.523 . S
C1896 C1880 1.368 . S
C1896 C1892 1.368 . S
C1896 C1895 1.523 . S
H1897 C1872 0.950 . S
H1898 C1874 0.946 1_655 S
H1899 C1875 0.949 . S
H1900 C1877 0.950 . S
H1901 C1879 0.950 . S
C1902 C1903 1.349 . S
C1902 C1904 1.327 . S
C1902 H1927 0.950 . S
C1903 C1902 1.349 . S
C1903 C1919 1.349 . S
C1904 C1902 1.327 . S
C1904 C1923 1.429 . S
C1904 H1928 0.950 . S
C1905 C1922 1.574 . S
C1905 C1924 1.368 . S
C1905 H1929 0.949 . S
H1906 C1910 0.949 . S
C1907 C1908 1.349 . S
C1907 C1909 1.327 . S
C1907 H1930 0.950 . S
C1908 C1907 1.349 . S
C1908 C1920 1.349 . S
C1909 C1907 1.327 . S
C1909 C1925 1.429 . S
C1909 H1931 0.950 . S
C1910 H1906 0.949 . S
C1910 C1918 1.574 . S
C1910 C1926 1.368 . S
H1911 C1919 0.950 . S
H1912 C1917 0.950 . S
H1913 C1918 0.949 . S
H1914 C1920 0.950 . S
H1915 C1921 0.950 . S
H1916 C1922 0.949 . S
C1917 H1912 0.950 . S
C1917 C1919 1.327 . S
C1917 C1923 1.429 . S
C1918 C1910 1.574 . S
C1918 H1913 0.949 . S
C1918 C1924 1.368 . S
C1919 C1903 1.349 . S
C1919 H1911 0.950 . S
C1919 C1917 1.327 . S
C1920 C1908 1.349 . S
C1920 H1914 0.950 . S
C1920 C1921 1.327 . S
C1921 H1915 0.950 . S
C1921 C1920 1.327 . S
C1921 C1925 1.429 . S
C1922 C1905 1.574 . S
C1922 H1916 0.949 . S
C1922 C1926 1.368 . S
C1923 C1904 1.429 . S
C1923 C1917 1.429 . S
C1923 C1924 1.523 . S
C1924 C1905 1.368 . S
C1924 C1918 1.368 . S
C1924 C1923 1.523 . S
C1925 C1909 1.429 . S
C1925 C1921 1.429 . S
C1925 C1926 1.523 . S
C1926 C1910 1.368 . S
C1926 C1922 1.368 . S
C1926 C1925 1.523 . S
H1927 C1902 0.950 . S
H1928 C1904 0.950 . S
H1929 C1905 0.949 . S
H1930 C1907 0.950 . S
H1931 C1909 0.950 . S
C1932 C1933 1.349 . S
C1932 C1934 1.327 . S
C1932 H1957 0.950 . S
C1933 C1932 1.349 . S
C1933 C1949 1.349 . S
C1934 C1932 1.327 . S
C1934 C1953 1.429 1_565 S
C1934 H1958 0.950 1_565 S
C1935 C1952 1.574 . S
C1935 C1954 1.368 . S
C1935 H1959 0.949 . S
H1936 C1940 0.949 . S
C1937 C1938 1.349 . S
C1937 C1939 1.327 . S
C1937 H1960 0.950 . S
C1938 C1937 1.349 . S
C1938 C1950 1.349 . S
C1939 C1937 1.327 . S
C1939 C1955 1.429 . S
C1939 H1961 0.950 . S
C1940 H1936 0.949 . S
C1940 C1948 1.574 . S
C1940 C1956 1.368 . S
H1941 C1949 0.950 . S
H1942 C1947 0.950 . S
H1943 C1948 0.949 . S
H1944 C1950 0.950 . S
H1945 C1951 0.950 . S
H1946 C1952 0.949 . S
C1947 H1942 0.950 . S
C1947 C1949 1.327 1_545 S
C1947 C1953 1.429 . S
C1948 C1940 1.574 . S
C1948 H1943 0.949 . S
C1948 C1954 1.368 . S
C1949 C1933 1.349 . S
C1949 H1941 0.950 . S
C1949 C1947 1.327 1_565 S
C1950 C1938 1.349 . S
C1950 H1944 0.950 . S
C1950 C1951 1.327 . S
C1951 H1945 0.950 . S
C1951 C1950 1.327 . S
C1951 C1955 1.429 . S
C1952 C1935 1.574 . S
C1952 H1946 0.949 . S
C1952 C1956 1.368 . S
C1953 C1934 1.429 1_545 S
C1953 C1947 1.429 . S
C1953 C1954 1.523 . S
C1954 C1935 1.368 . S
C1954 C1948 1.368 . S
C1954 C1953 1.523 . S
C1955 C1939 1.429 . S
C1955 C1951 1.429 . S
C1955 C1956 1.523 . S
C1956 C1940 1.368 . S
C1956 C1952 1.368 . S
C1956 C1955 1.523 . S
H1957 C1932 0.950 . S
H1958 C1934 0.950 1_545 S
H1959 C1935 0.949 . S
H1960 C1937 0.950 . S
H1961 C1939 0.950 . S
C1962 C1963 1.349 . S
C1962 C1964 1.327 . S
C1962 H1987 0.950 . S
C1963 C1962 1.349 . S
C1963 C1979 1.349 . S
C1964 C1962 1.327 . S
C1964 C1983 1.429 . S
C1964 H1988 0.950 . S
C1965 C1982 1.574 . S
C1965 C1984 1.368 . S
C1965 H1989 0.949 . S
H1966 C1970 0.949 . S
C1967 C1968 1.349 . S
C1967 C1969 1.327 . S
C1967 H1990 0.950 . S
C1968 C1967 1.349 . S
C1968 C1980 1.349 . S
C1969 C1967 1.327 . S
C1969 C1985 1.429 . S
C1969 H1991 0.950 . S
C1970 H1966 0.949 . S
C1970 C1978 1.574 . S
C1970 C1986 1.368 . S
H1971 C1979 0.950 . S
H1972 C1977 0.950 . S
H1973 C1978 0.949 . S
H1974 C1980 0.950 . S
H1975 C1981 0.950 . S
H1976 C1982 0.949 . S
C1977 H1972 0.950 . S
C1977 C1979 1.327 . S
C1977 C1983 1.429 . S
C1978 C1970 1.574 . S
C1978 H1973 0.949 . S
C1978 C1984 1.368 . S
C1979 C1963 1.349 . S
C1979 H1971 0.950 . S
C1979 C1977 1.327 . S
C1980 C1968 1.349 . S
C1980 H1974 0.950 . S
C1980 C1981 1.327 . S
C1981 H1975 0.950 . S
C1981 C1980 1.327 . S
C1981 C1985 1.429 . S
C1982 C1965 1.574 . S
C1982 H1976 0.949 . S
C1982 C1986 1.368 . S
C1983 C1964 1.429 . S
C1983 C1977 1.429 . S
C1983 C1984 1.523 . S
C1984 C1965 1.368 . S
C1984 C1978 1.368 . S
C1984 C1983 1.523 . S
C1985 C1969 1.429 . S
C1985 C1981 1.429 . S
C1985 C1986 1.523 . S
C1986 C1970 1.368 . S
C1986 C1982 1.368 . S
C1986 C1985 1.523 . S
H1987 C1962 0.950 . S
H1988 C1964 0.950 . S
H1989 C1965 0.949 . S
H1990 C1967 0.950 . S
H1991 C1969 0.950 . S
C1992 C1993 1.349 . S
C1992 C1994 1.327 . S
C1992 H2017 0.950 . S
C1993 C1992 1.349 . S
C1993 C2009 1.349 . S
C1994 C1992 1.327 . S
C1994 C2013 1.429 . S
C1994 H2018 0.950 . S
C1995 C2012 1.574 . S
C1995 C2014 1.368 . S
C1995 H2019 0.949 . S
H1996 C2000 0.949 . S
C1997 C1998 1.349 . S
C1997 C1999 1.327 . S
C1997 H2020 0.950 . S
C1998 C1997 1.349 . S
C1998 C2010 1.349 . S
C1999 C1997 1.327 . S
C1999 C2015 1.429 . S
C1999 H2021 0.950 . S
C2000 H1996 0.949 . S
C2000 C2008 1.574 . S
C2000 C2016 1.368 . S
H2001 C2009 0.950 . S
H2002 C2007 0.950 . S
H2003 C2008 0.949 . S
H2004 C2010 0.950 . S
H2005 C2011 0.950 . S
H2006 C2012 0.949 . S
C2007 H2002 0.950 . S
C2007 C2009 1.327 . S
C2007 C2013 1.429 . S
C2008 C2000 1.574 . S
C2008 H2003 0.949 . S
C2008 C2014 1.368 . S
C2009 C1993 1.349 . S
C2009 H2001 0.950 . S
C2009 C2007 1.327 . S
C2010 C1998 1.349 . S
C2010 H2004 0.950 . S
C2010 C2011 1.327 . S
C2011 H2005 0.950 . S
C2011 C2010 1.327 . S
C2011 C2015 1.429 . S
C2012 C1995 1.574 . S
C2012 H2006 0.949 . S
C2012 C2016 1.368 . S
C2013 C1994 1.429 . S
C2013 C2007 1.429 . S
C2013 C2014 1.523 . S
C2014 C1995 1.368 . S
C2014 C2008 1.368 . S
C2014 C2013 1.523 . S
C2015 C1999 1.429 . S
C2015 C2011 1.429 . S
C2015 C2016 1.523 . S
C2016 C2000 1.368 . S
C2016 C2012 1.368 . S
C2016 C2015 1.523 . S
H2017 C1992 0.950 . S
H2018 C1994 0.950 . S
H2019 C1995 0.949 . S
H2020 C1997 0.950 . S
H2021 C1999 0.950 . S
C2022 C2023 1.349 . S
C2022 C2024 1.327 . S
C2022 H2047 0.950 . S
C2023 C2022 1.349 . S
C2023 C2039 1.349 . S
C2024 C2022 1.327 . S
C2024 C2043 1.429 . S
C2024 H2048 0.950 . S
C2025 C2042 1.574 . S
C2025 C2044 1.368 . S
C2025 H2049 0.949 . S
H2026 C2030 0.949 . S
C2027 C2028 1.349 . S
C2027 C2029 1.327 . S
C2027 H2050 0.950 . S
C2028 C2027 1.349 . S
C2028 C2040 1.349 . S
C2029 C2027 1.327 . S
C2029 C2045 1.429 . S
C2029 H2051 0.950 . S
C2030 H2026 0.949 . S
C2030 C2038 1.574 . S
C2030 C2046 1.368 . S
H2031 C2039 0.950 . S
H2032 C2037 0.950 . S
H2033 C2038 0.949 . S
H2034 C2040 0.950 . S
H2035 C2041 0.950 . S
H2036 C2042 0.949 . S
C2037 H2032 0.950 . S
C2037 C2039 1.327 . S
C2037 C2043 1.429 . S
C2038 C2030 1.574 . S
C2038 H2033 0.949 . S
C2038 C2044 1.368 . S
C2039 C2023 1.349 . S
C2039 H2031 0.950 . S
C2039 C2037 1.327 . S
C2040 C2028 1.349 . S
C2040 H2034 0.950 . S
C2040 C2041 1.327 . S
C2041 H2035 0.950 . S
C2041 C2040 1.327 . S
C2041 C2045 1.429 . S
C2042 C2025 1.574 . S
C2042 H2036 0.949 . S
C2042 C2046 1.368 . S
C2043 C2024 1.429 . S
C2043 C2037 1.429 . S
C2043 C2044 1.523 . S
C2044 C2025 1.368 . S
C2044 C2038 1.368 . S
C2044 C2043 1.523 . S
C2045 C2029 1.429 . S
C2045 C2041 1.429 . S
C2045 C2046 1.523 . S
C2046 C2030 1.368 . S
C2046 C2042 1.368 . S
C2046 C2045 1.523 . S
H2047 C2022 0.950 . S
H2048 C2024 0.950 . S
H2049 C2025 0.949 . S
H2050 C2027 0.950 . S
H2051 C2029 0.950 . S
C2052 C2053 1.349 . S
C2052 C2054 1.327 . S
C2052 H2077 0.950 . S
C2053 C2052 1.349 . S
C2053 C2069 1.349 . S
C2054 C2052 1.327 . S
C2054 C2073 1.429 . S
C2054 H2078 0.950 . S
C2055 C2072 1.574 . S
C2055 C2074 1.368 . S
C2055 H2079 0.949 . S
H2056 C2060 0.949 . S
C2057 C2058 1.349 . S
C2057 C2059 1.327 . S
C2057 H2080 0.950 . S
C2058 C2057 1.349 . S
C2058 C2070 1.349 . S
C2059 C2057 1.327 . S
C2059 C2075 1.429 . S
C2059 H2081 0.950 . S
C2060 H2056 0.949 . S
C2060 C2068 1.574 . S
C2060 C2076 1.368 . S
H2061 C2069 0.950 . S
H2062 C2067 0.950 . S
H2063 C2068 0.949 . S
H2064 C2070 0.950 . S
H2065 C2071 0.950 . S
H2066 C2072 0.949 . S
C2067 H2062 0.950 . S
C2067 C2069 1.327 . S
C2067 C2073 1.429 . S
C2068 C2060 1.574 . S
C2068 H2063 0.949 . S
C2068 C2074 1.368 . S
C2069 C2053 1.349 . S
C2069 H2061 0.950 . S
C2069 C2067 1.327 . S
C2070 C2058 1.349 . S
C2070 H2064 0.950 . S
C2070 C2071 1.327 . S
C2071 H2065 0.950 . S
C2071 C2070 1.327 . S
C2071 C2075 1.429 . S
C2072 C2055 1.574 . S
C2072 H2066 0.949 . S
C2072 C2076 1.368 . S
C2073 C2054 1.429 . S
C2073 C2067 1.429 . S
C2073 C2074 1.523 . S
C2074 C2055 1.368 . S
C2074 C2068 1.368 . S
C2074 C2073 1.523 . S
C2075 C2059 1.429 . S
C2075 C2071 1.429 . S
C2075 C2076 1.523 . S
C2076 C2060 1.368 . S
C2076 C2072 1.368 . S
C2076 C2075 1.523 . S
H2077 C2052 0.950 . S
H2078 C2054 0.950 . S
H2079 C2055 0.949 . S
H2080 C2057 0.950 . S
H2081 C2059 0.950 . S
C2082 C2083 1.349 . S
C2082 C2084 1.327 . S
C2082 H2107 0.950 . S
C2083 C2082 1.349 . S
C2083 C2099 1.349 . S
C2084 C2082 1.327 . S
C2084 C2103 1.429 . S
C2084 H2108 0.950 . S
C2085 C2102 1.574 . S
C2085 C2104 1.368 . S
C2085 H2109 0.949 . S
H2086 C2090 0.949 . S
C2087 C2088 1.349 . S
C2087 C2089 1.327 . S
C2087 H2110 0.950 . S
C2088 C2087 1.349 . S
C2088 C2100 1.349 . S
C2089 C2087 1.327 . S
C2089 C2105 1.429 . S
C2089 H2111 0.950 . S
C2090 H2086 0.949 . S
C2090 C2098 1.574 . S
C2090 C2106 1.368 . S
H2091 C2099 0.950 . S
H2092 C2097 0.950 . S
H2093 C2098 0.949 . S
H2094 C2100 0.950 . S
H2095 C2101 0.950 . S
H2096 C2102 0.949 . S
C2097 H2092 0.950 . S
C2097 C2099 1.327 . S
C2097 C2103 1.429 . S
C2098 C2090 1.574 . S
C2098 H2093 0.949 . S
C2098 C2104 1.368 . S
C2099 C2083 1.349 . S
C2099 H2091 0.950 . S
C2099 C2097 1.327 . S
C2100 C2088 1.349 . S
C2100 H2094 0.950 . S
C2100 C2101 1.327 . S
C2101 H2095 0.950 . S
C2101 C2100 1.327 . S
C2101 C2105 1.429 . S
C2102 C2085 1.574 . S
C2102 H2096 0.949 . S
C2102 C2106 1.368 . S
C2103 C2084 1.429 . S
C2103 C2097 1.429 . S
C2103 C2104 1.523 . S
C2104 C2085 1.368 . S
C2104 C2098 1.368 . S
C2104 C2103 1.523 . S
C2105 C2089 1.429 . S
C2105 C2101 1.429 . S
C2105 C2106 1.523 . S
C2106 C2090 1.368 . S
C2106 C2102 1.368 . S
C2106 C2105 1.523 . S
H2107 C2082 0.950 . S
H2108 C2084 0.950 . S
H2109 C2085 0.949 . S
H2110 C2087 0.950 . S
H2111 C2089 0.950 . S
C2112 C2113 1.349 . S
C2112 C2114 1.327 . S
C2112 H2137 0.950 . S
C2113 C2112 1.349 . S
C2113 C2129 1.349 . S
C2114 C2112 1.327 . S
C2114 C2133 1.429 . S
C2114 H2138 0.950 . S
C2115 C2132 1.574 . S
C2115 C2134 1.368 . S
C2115 H2139 0.949 . S
H2116 C2120 0.949 . S
C2117 C2118 1.349 . S
C2117 C2119 1.327 . S
C2117 H2140 0.950 . S
C2118 C2117 1.349 . S
C2118 C2130 1.349 . S
C2119 C2117 1.327 . S
C2119 C2135 1.429 . S
C2119 H2141 0.950 . S
C2120 H2116 0.949 . S
C2120 C2128 1.574 . S
C2120 C2136 1.368 . S
H2121 C2129 0.950 . S
H2122 C2127 0.950 . S
H2123 C2128 0.949 . S
H2124 C2130 0.950 . S
H2125 C2131 0.950 . S
H2126 C2132 0.949 . S
C2127 H2122 0.950 . S
C2127 C2129 1.327 . S
C2127 C2133 1.429 . S
C2128 C2120 1.574 . S
C2128 H2123 0.949 . S
C2128 C2134 1.368 . S
C2129 C2113 1.349 . S
C2129 H2121 0.950 . S
C2129 C2127 1.327 . S
C2130 C2118 1.349 . S
C2130 H2124 0.950 . S
C2130 C2131 1.327 . S
C2131 H2125 0.950 . S
C2131 C2130 1.327 . S
C2131 C2135 1.429 . S
C2132 C2115 1.574 . S
C2132 H2126 0.949 . S
C2132 C2136 1.368 . S
C2133 C2114 1.429 . S
C2133 C2127 1.429 . S
C2133 C2134 1.523 . S
C2134 C2115 1.368 . S
C2134 C2128 1.368 . S
C2134 C2133 1.523 . S
C2135 C2119 1.429 . S
C2135 C2131 1.429 . S
C2135 C2136 1.523 . S
C2136 C2120 1.368 . S
C2136 C2132 1.368 . S
C2136 C2135 1.523 . S
H2137 C2112 0.950 . S
H2138 C2114 0.950 . S
H2139 C2115 0.949 . S
H2140 C2117 0.950 . S
H2141 C2119 0.950 . S
C2142 C2143 1.349 . S
C2142 C2144 1.327 . S
C2142 H2167 0.950 . S
C2143 C2142 1.349 . S
C2143 C2159 1.349 . S
C2144 C2142 1.327 . S
C2144 C2163 1.429 . S
C2144 H2168 0.950 . S
C2145 C2162 1.574 . S
C2145 C2164 1.368 . S
C2145 H2169 0.949 . S
H2146 C2150 0.949 . S
C2147 C2148 1.349 . S
C2147 C2149 1.327 . S
C2147 H2170 0.950 . S
C2148 C2147 1.349 . S
C2148 C2160 1.349 . S
C2149 C2147 1.327 . S
C2149 C2165 1.429 . S
C2149 H2171 0.950 . S
C2150 H2146 0.949 . S
C2150 C2158 1.574 . S
C2150 C2166 1.368 . S
H2151 C2159 0.950 . S
H2152 C2157 0.950 . S
H2153 C2158 0.949 . S
H2154 C2160 0.950 . S
H2155 C2161 0.950 . S
H2156 C2162 0.949 . S
C2157 H2152 0.950 . S
C2157 C2159 1.327 . S
C2157 C2163 1.429 . S
C2158 C2150 1.574 . S
C2158 H2153 0.949 . S
C2158 C2164 1.368 . S
C2159 C2143 1.349 . S
C2159 H2151 0.950 . S
C2159 C2157 1.327 . S
C2160 C2148 1.349 . S
C2160 H2154 0.950 . S
C2160 C2161 1.327 . S
C2161 H2155 0.950 . S
C2161 C2160 1.327 . S
C2161 C2165 1.429 . S
C2162 C2145 1.574 . S
C2162 H2156 0.949 . S
C2162 C2166 1.368 . S
C2163 C2144 1.429 . S
C2163 C2157 1.429 . S
C2163 C2164 1.523 . S
C2164 C2145 1.368 . S
C2164 C2158 1.368 . S
C2164 C2163 1.523 . S
C2165 C2149 1.429 . S
C2165 C2161 1.429 . S
C2165 C2166 1.523 . S
C2166 C2150 1.368 . S
C2166 C2162 1.368 . S
C2166 C2165 1.523 . S
H2167 C2142 0.950 . S
H2168 C2144 0.950 . S
H2169 C2145 0.949 . S
H2170 C2147 0.950 . S
H2171 C2149 0.950 . S
C2172 C2173 1.349 . S
C2172 C2174 1.327 . S
C2172 H2197 0.950 . S
C2173 C2172 1.349 . S
C2173 C2189 1.349 . S
C2174 C2172 1.327 . S
C2174 C2193 1.429 . S
C2174 H2198 0.950 . S
C2175 C2192 1.574 . S
C2175 C2194 1.368 . S
C2175 H2199 0.949 . S
H2176 C2180 0.949 . S
C2177 C2178 1.349 . S
C2177 C2179 1.327 . S
C2177 H2200 0.950 . S
C2178 C2177 1.349 . S
C2178 C2190 1.349 . S
C2179 C2177 1.327 . S
C2179 C2195 1.429 . S
C2179 H2201 0.950 . S
C2180 H2176 0.949 . S
C2180 C2188 1.574 . S
C2180 C2196 1.368 . S
H2181 C2189 0.950 . S
H2182 C2187 0.950 . S
H2183 C2188 0.949 . S
H2184 C2190 0.950 . S
H2185 C2191 0.950 . S
H2186 C2192 0.949 . S
C2187 H2182 0.950 . S
C2187 C2189 1.327 . S
C2187 C2193 1.429 . S
C2188 C2180 1.574 . S
C2188 H2183 0.949 . S
C2188 C2194 1.368 . S
C2189 C2173 1.349 . S
C2189 H2181 0.950 . S
C2189 C2187 1.327 . S
C2190 C2178 1.349 . S
C2190 H2184 0.950 . S
C2190 C2191 1.327 . S
C2191 H2185 0.950 . S
C2191 C2190 1.327 . S
C2191 C2195 1.429 . S
C2192 C2175 1.574 . S
C2192 H2186 0.949 . S
C2192 C2196 1.368 . S
C2193 C2174 1.429 . S
C2193 C2187 1.429 . S
C2193 C2194 1.523 . S
C2194 C2175 1.368 . S
C2194 C2188 1.368 . S
C2194 C2193 1.523 . S
C2195 C2179 1.429 . S
C2195 C2191 1.429 . S
C2195 C2196 1.523 . S
C2196 C2180 1.368 . S
C2196 C2192 1.368 . S
C2196 C2195 1.523 . S
H2197 C2172 0.950 . S
H2198 C2174 0.950 . S
H2199 C2175 0.949 . S
H2200 C2177 0.950 . S
H2201 C2179 0.950 . S
C2202 C2203 1.349 . S
C2202 C2204 1.327 . S
C2202 H2227 0.950 . S
C2203 C2202 1.349 . S
C2203 C2219 1.349 . S
C2204 C2202 1.327 . S
C2204 C2223 1.429 . S
C2204 H2228 0.950 . S
C2205 C2222 1.574 . S
C2205 C2224 1.368 . S
C2205 H2229 0.949 . S
H2206 C2210 0.949 . S
C2207 C2208 1.349 . S
C2207 C2209 1.327 . S
C2207 H2230 0.950 . S
C2208 C2207 1.349 . S
C2208 C2220 1.349 . S
C2209 C2207 1.327 . S
C2209 C2225 1.429 . S
C2209 H2231 0.950 . S
C2210 H2206 0.949 . S
C2210 C2218 1.574 . S
C2210 C2226 1.368 . S
H2211 C2219 0.950 . S
H2212 C2217 0.950 . S
H2213 C2218 0.949 . S
H2214 C2220 0.950 . S
H2215 C2221 0.950 . S
H2216 C2222 0.949 . S
C2217 H2212 0.950 . S
C2217 C2219 1.327 . S
C2217 C2223 1.429 . S
C2218 C2210 1.574 . S
C2218 H2213 0.949 . S
C2218 C2224 1.368 . S
C2219 C2203 1.349 . S
C2219 H2211 0.950 . S
C2219 C2217 1.327 . S
C2220 C2208 1.349 . S
C2220 H2214 0.950 . S
C2220 C2221 1.327 . S
C2221 H2215 0.950 . S
C2221 C2220 1.327 . S
C2221 C2225 1.429 . S
C2222 C2205 1.574 . S
C2222 H2216 0.949 . S
C2222 C2226 1.368 . S
C2223 C2204 1.429 . S
C2223 C2217 1.429 . S
C2223 C2224 1.523 . S
C2224 C2205 1.368 . S
C2224 C2218 1.368 . S
C2224 C2223 1.523 . S
C2225 C2209 1.429 . S
C2225 C2221 1.429 . S
C2225 C2226 1.523 . S
C2226 C2210 1.368 . S
C2226 C2222 1.368 . S
C2226 C2225 1.523 . S
H2227 C2202 0.950 . S
H2228 C2204 0.950 . S
H2229 C2205 0.949 . S
H2230 C2207 0.950 . S
H2231 C2209 0.950 . S
C2232 C2233 1.349 . S
C2232 C2234 1.327 . S
C2232 H2257 0.950 . S
C2233 C2232 1.349 . S
C2233 C2249 1.349 . S
C2234 C2232 1.327 . S
C2234 C2253 1.429 . S
C2234 H2258 0.950 . S
C2235 C2252 1.574 . S
C2235 C2254 1.368 . S
C2235 H2259 0.949 . S
H2236 C2240 0.949 . S
C2237 C2238 1.349 . S
C2237 C2239 1.327 . S
C2237 H2260 0.950 . S
C2238 C2237 1.349 . S
C2238 C2250 1.349 . S
C2239 C2237 1.327 . S
C2239 C2255 1.429 . S
C2239 H2261 0.950 . S
C2240 H2236 0.949 . S
C2240 C2248 1.574 . S
C2240 C2256 1.368 . S
H2241 C2249 0.950 . S
H2242 C2247 0.950 . S
H2243 C2248 0.949 . S
H2244 C2250 0.950 . S
H2245 C2251 0.950 . S
H2246 C2252 0.949 . S
C2247 H2242 0.950 . S
C2247 C2249 1.327 . S
C2247 C2253 1.429 . S
C2248 C2240 1.574 . S
C2248 H2243 0.949 . S
C2248 C2254 1.368 . S
C2249 C2233 1.349 . S
C2249 H2241 0.950 . S
C2249 C2247 1.327 . S
C2250 C2238 1.349 . S
C2250 H2244 0.950 . S
C2250 C2251 1.327 . S
C2251 H2245 0.950 . S
C2251 C2250 1.327 . S
C2251 C2255 1.429 . S
C2252 C2235 1.574 . S
C2252 H2246 0.949 . S
C2252 C2256 1.368 . S
C2253 C2234 1.429 . S
C2253 C2247 1.429 . S
C2253 C2254 1.523 . S
C2254 C2235 1.368 . S
C2254 C2248 1.368 . S
C2254 C2253 1.523 . S
C2255 C2239 1.429 . S
C2255 C2251 1.429 . S
C2255 C2256 1.523 . S
C2256 C2240 1.368 . S
C2256 C2252 1.368 . S
C2256 C2255 1.523 . S
H2257 C2232 0.950 . S
H2258 C2234 0.950 . S
H2259 C2235 0.949 . S
H2260 C2237 0.950 . S
H2261 C2239 0.950 . S
C2262 C2263 1.349 . S
C2262 C2264 1.327 . S
C2262 H2287 0.950 . S
C2263 C2262 1.349 . S
C2263 C2279 1.349 . S
C2264 C2262 1.327 . S
C2264 C2283 1.429 . S
C2264 H2288 0.950 . S
C2265 C2282 1.574 . S
C2265 C2284 1.368 . S
C2265 H2289 0.949 . S
H2266 C2270 0.949 . S
C2267 C2268 1.349 . S
C2267 C2269 1.327 . S
C2267 H2290 0.950 . S
C2268 C2267 1.349 . S
C2268 C2280 1.349 . S
C2269 C2267 1.327 . S
C2269 C2285 1.429 . S
C2269 H2291 0.950 . S
C2270 H2266 0.949 . S
C2270 C2278 1.574 . S
C2270 C2286 1.368 . S
H2271 C2279 0.950 . S
H2272 C2277 0.950 . S
H2273 C2278 0.949 . S
H2274 C2280 0.950 . S
H2275 C2281 0.950 . S
H2276 C2282 0.949 . S
C2277 H2272 0.950 . S
C2277 C2279 1.327 . S
C2277 C2283 1.429 . S
C2278 C2270 1.574 . S
C2278 H2273 0.949 . S
C2278 C2284 1.368 . S
C2279 C2263 1.349 . S
C2279 H2271 0.950 . S
C2279 C2277 1.327 . S
C2280 C2268 1.349 . S
C2280 H2274 0.950 . S
C2280 C2281 1.327 . S
C2281 H2275 0.950 . S
C2281 C2280 1.327 . S
C2281 C2285 1.429 . S
C2282 C2265 1.574 . S
C2282 H2276 0.949 . S
C2282 C2286 1.368 . S
C2283 C2264 1.429 . S
C2283 C2277 1.429 . S
C2283 C2284 1.523 . S
C2284 C2265 1.368 . S
C2284 C2278 1.368 . S
C2284 C2283 1.523 . S
C2285 C2269 1.429 . S
C2285 C2281 1.429 . S
C2285 C2286 1.523 . S
C2286 C2270 1.368 . S
C2286 C2282 1.368 . S
C2286 C2285 1.523 . S
H2287 C2262 0.950 . S
H2288 C2264 0.950 . S
H2289 C2265 0.949 . S
H2290 C2267 0.950 . S
H2291 C2269 0.950 . S
C2292 C2293 1.349 . S
C2292 C2294 1.327 . S
C2292 H2317 0.950 . S
C2293 C2292 1.349 . S
C2293 C2309 1.349 . S
C2294 C2292 1.327 . S
C2294 C2313 1.429 . S
C2294 H2318 0.950 . S
C2295 C2312 1.574 . S
C2295 C2314 1.368 . S
C2295 H2319 0.949 . S
H2296 C2300 0.949 . S
C2297 C2298 1.349 . S
C2297 C2299 1.327 . S
C2297 H2320 0.950 . S
C2298 C2297 1.349 . S
C2298 C2310 1.349 . S
C2299 C2297 1.327 . S
C2299 C2315 1.429 . S
C2299 H2321 0.950 . S
C2300 H2296 0.949 . S
C2300 C2308 1.574 . S
C2300 C2316 1.368 . S
H2301 C2309 0.950 . S
H2302 C2307 0.950 . S
H2303 C2308 0.949 . S
H2304 C2310 0.950 . S
H2305 C2311 0.950 . S
H2306 C2312 0.949 . S
C2307 H2302 0.950 . S
C2307 C2309 1.327 . S
C2307 C2313 1.429 . S
C2308 C2300 1.574 . S
C2308 H2303 0.949 . S
C2308 C2314 1.368 . S
C2309 C2293 1.349 . S
C2309 H2301 0.950 . S
C2309 C2307 1.327 . S
C2310 C2298 1.349 . S
C2310 H2304 0.950 . S
C2310 C2311 1.327 . S
C2311 H2305 0.950 . S
C2311 C2310 1.327 . S
C2311 C2315 1.429 . S
C2312 C2295 1.574 . S
C2312 H2306 0.949 . S
C2312 C2316 1.368 . S
C2313 C2294 1.429 . S
C2313 C2307 1.429 . S
C2313 C2314 1.523 . S
C2314 C2295 1.368 . S
C2314 C2308 1.368 . S
C2314 C2313 1.523 . S
C2315 C2299 1.429 . S
C2315 C2311 1.429 . S
C2315 C2316 1.523 . S
C2316 C2300 1.368 . S
C2316 C2312 1.368 . S
C2316 C2315 1.523 . S
H2317 C2292 0.950 . S
H2318 C2294 0.950 . S
H2319 C2295 0.949 . S
H2320 C2297 0.950 . S
H2321 C2299 0.950 . S
C2322 C2323 1.349 . S
C2322 C2324 1.327 . S
C2322 H2347 0.950 . S
C2323 C2322 1.349 . S
C2323 C2339 1.349 . S
C2324 C2322 1.327 . S
C2324 C2343 1.429 . S
C2324 H2348 0.950 . S
C2325 C2342 1.574 . S
C2325 C2344 1.368 . S
C2325 H2349 0.949 . S
H2326 C2330 0.949 . S
C2327 C2328 1.349 . S
C2327 C2329 1.327 . S
C2327 H2350 0.950 . S
C2328 C2327 1.349 . S
C2328 C2340 1.349 . S
C2329 C2327 1.327 . S
C2329 C2345 1.429 . S
C2329 H2351 0.950 . S
C2330 H2326 0.949 . S
C2330 C2338 1.574 . S
C2330 C2346 1.368 . S
H2331 C2339 0.950 . S
H2332 C2337 0.950 . S
H2333 C2338 0.949 . S
H2334 C2340 0.950 . S
H2335 C2341 0.950 . S
H2336 C2342 0.949 . S
C2337 H2332 0.950 . S
C2337 C2339 1.327 . S
C2337 C2343 1.429 . S
C2338 C2330 1.574 . S
C2338 H2333 0.949 . S
C2338 C2344 1.368 . S
C2339 C2323 1.349 . S
C2339 H2331 0.950 . S
C2339 C2337 1.327 . S
C2340 C2328 1.349 . S
C2340 H2334 0.950 . S
C2340 C2341 1.327 . S
C2341 H2335 0.950 . S
C2341 C2340 1.327 . S
C2341 C2345 1.429 . S
C2342 C2325 1.574 . S
C2342 H2336 0.949 . S
C2342 C2346 1.368 . S
C2343 C2324 1.429 . S
C2343 C2337 1.429 . S
C2343 C2344 1.523 . S
C2344 C2325 1.368 . S
C2344 C2338 1.368 . S
C2344 C2343 1.523 . S
C2345 C2329 1.429 . S
C2345 C2341 1.429 . S
C2345 C2346 1.523 . S
C2346 C2330 1.368 . S
C2346 C2342 1.368 . S
C2346 C2345 1.523 . S
H2347 C2322 0.950 . S
H2348 C2324 0.950 . S
H2349 C2325 0.949 . S
H2350 C2327 0.950 . S
H2351 C2329 0.950 . S
C2352 C2353 1.349 . S
C2352 C2354 1.327 . S
C2352 H2377 0.950 . S
C2353 C2352 1.349 . S
C2353 C2369 1.349 . S
C2354 C2352 1.327 . S
C2354 C2373 1.429 . S
C2354 H2378 0.950 . S
C2355 C2372 1.574 . S
C2355 C2374 1.368 . S
C2355 H2379 0.949 . S
H2356 C2360 0.949 . S
C2357 C2358 1.349 . S
C2357 C2359 1.327 . S
C2357 H2380 0.950 . S
C2358 C2357 1.349 . S
C2358 C2370 1.349 . S
C2359 C2357 1.327 . S
C2359 C2375 1.429 . S
C2359 H2381 0.950 . S
C2360 H2356 0.949 . S
C2360 C2368 1.574 . S
C2360 C2376 1.368 . S
H2361 C2369 0.950 . S
H2362 C2367 0.950 . S
H2363 C2368 0.949 . S
H2364 C2370 0.950 . S
H2365 C2371 0.950 . S
H2366 C2372 0.949 . S
C2367 H2362 0.950 . S
C2367 C2369 1.327 . S
C2367 C2373 1.429 . S
C2368 C2360 1.574 . S
C2368 H2363 0.949 . S
C2368 C2374 1.368 . S
C2369 C2353 1.349 . S
C2369 H2361 0.950 . S
C2369 C2367 1.327 . S
C2370 C2358 1.349 . S
C2370 H2364 0.950 . S
C2370 C2371 1.327 . S
C2371 H2365 0.950 . S
C2371 C2370 1.327 . S
C2371 C2375 1.429 . S
C2372 C2355 1.574 . S
C2372 H2366 0.949 . S
C2372 C2376 1.368 . S
C2373 C2354 1.429 . S
C2373 C2367 1.429 . S
C2373 C2374 1.523 . S
C2374 C2355 1.368 . S
C2374 C2368 1.368 . S
C2374 C2373 1.523 . S
C2375 C2359 1.429 . S
C2375 C2371 1.429 . S
C2375 C2376 1.523 . S
C2376 C2360 1.368 . S
C2376 C2372 1.368 . S
C2376 C2375 1.523 . S
H2377 C2352 0.950 . S
H2378 C2354 0.950 . S
H2379 C2355 0.949 . S
H2380 C2357 0.950 . S
H2381 C2359 0.950 . S
C2382 C2383 1.349 . S
C2382 C2384 1.327 . S
C2382 H2407 0.950 . S
C2383 C2382 1.349 . S
C2383 C2399 1.349 . S
C2384 C2382 1.327 . S
C2384 C2403 1.429 . S
C2384 H2408 0.950 . S
C2385 C2402 1.574 . S
C2385 C2404 1.368 . S
C2385 H2409 0.949 . S
H2386 C2390 0.949 . S
C2387 C2388 1.349 . S
C2387 C2389 1.327 . S
C2387 H2410 0.950 . S
C2388 C2387 1.349 . S
C2388 C2400 1.349 . S
C2389 C2387 1.327 . S
C2389 C2405 1.429 . S
C2389 H2411 0.950 . S
C2390 H2386 0.949 . S
C2390 C2398 1.574 . S
C2390 C2406 1.368 . S
H2391 C2399 0.950 . S
H2392 C2397 0.950 . S
H2393 C2398 0.949 . S
H2394 C2400 0.950 . S
H2395 C2401 0.950 . S
H2396 C2402 0.949 . S
C2397 H2392 0.950 . S
C2397 C2399 1.327 . S
C2397 C2403 1.429 . S
C2398 C2390 1.574 . S
C2398 H2393 0.949 . S
C2398 C2404 1.368 . S
C2399 C2383 1.349 . S
C2399 H2391 0.950 . S
C2399 C2397 1.327 . S
C2400 C2388 1.349 . S
C2400 H2394 0.950 . S
C2400 C2401 1.327 . S
C2401 H2395 0.950 . S
C2401 C2400 1.327 . S
C2401 C2405 1.429 . S
C2402 C2385 1.574 . S
C2402 H2396 0.949 . S
C2402 C2406 1.368 . S
C2403 C2384 1.429 . S
C2403 C2397 1.429 . S
C2403 C2404 1.523 . S
C2404 C2385 1.368 . S
C2404 C2398 1.368 . S
C2404 C2403 1.523 . S
C2405 C2389 1.429 . S
C2405 C2401 1.429 . S
C2405 C2406 1.523 . S
C2406 C2390 1.368 . S
C2406 C2402 1.368 . S
C2406 C2405 1.523 . S
H2407 C2382 0.950 . S
H2408 C2384 0.950 . S
H2409 C2385 0.949 . S
H2410 C2387 0.950 . S
H2411 C2389 0.950 . S
C2412 C2413 1.349 . S
C2412 C2414 1.327 . S
C2412 H2437 0.950 . S
C2413 C2412 1.349 . S
C2413 C2429 1.349 . S
C2414 C2412 1.327 . S
C2414 C2433 1.429 . S
C2414 H2438 0.950 . S
C2415 C2432 1.574 . S
C2415 C2434 1.368 . S
C2415 H2439 0.949 . S
H2416 C2420 0.949 . S
C2417 C2418 1.349 . S
C2417 C2419 1.327 . S
C2417 H2440 0.950 . S
C2418 C2417 1.349 . S
C2418 C2430 1.349 . S
C2419 C2417 1.327 . S
C2419 C2435 1.429 . S
C2419 H2441 0.950 . S
C2420 H2416 0.949 . S
C2420 C2428 1.574 . S
C2420 C2436 1.368 . S
H2421 C2429 0.950 . S
H2422 C2427 0.950 . S
H2423 C2428 0.949 . S
H2424 C2430 0.950 . S
H2425 C2431 0.950 . S
H2426 C2432 0.949 . S
C2427 H2422 0.950 . S
C2427 C2429 1.327 . S
C2427 C2433 1.429 . S
C2428 C2420 1.574 . S
C2428 H2423 0.949 . S
C2428 C2434 1.368 . S
C2429 C2413 1.349 . S
C2429 H2421 0.950 . S
C2429 C2427 1.327 . S
C2430 C2418 1.349 . S
C2430 H2424 0.950 . S
C2430 C2431 1.327 . S
C2431 H2425 0.950 . S
C2431 C2430 1.327 . S
C2431 C2435 1.429 . S
C2432 C2415 1.574 . S
C2432 H2426 0.949 . S
C2432 C2436 1.368 . S
C2433 C2414 1.429 . S
C2433 C2427 1.429 . S
C2433 C2434 1.523 . S
C2434 C2415 1.368 . S
C2434 C2428 1.368 . S
C2434 C2433 1.523 . S
C2435 C2419 1.429 . S
C2435 C2431 1.429 . S
C2435 C2436 1.523 . S
C2436 C2420 1.368 . S
C2436 C2432 1.368 . S
C2436 C2435 1.523 . S
H2437 C2412 0.950 . S
H2438 C2414 0.950 . S
H2439 C2415 0.949 . S
H2440 C2417 0.950 . S
H2441 C2419 0.950 . S
C2442 C2443 1.349 . S
C2442 C2444 1.327 . S
C2442 H2467 0.950 . S
C2443 C2442 1.349 . S
C2443 C2459 1.349 . S
C2444 C2442 1.327 . S
C2444 C2463 1.429 . S
C2444 H2468 0.950 . S
C2445 C2462 1.574 . S
C2445 C2464 1.368 . S
C2445 H2469 0.949 . S
H2446 C2450 0.949 . S
C2447 C2448 1.349 . S
C2447 C2449 1.327 . S
C2447 H2470 0.950 . S
C2448 C2447 1.349 . S
C2448 C2460 1.349 . S
C2449 C2447 1.327 . S
C2449 C2465 1.429 . S
C2449 H2471 0.950 . S
C2450 H2446 0.949 . S
C2450 C2458 1.574 . S
C2450 C2466 1.368 . S
H2451 C2459 0.950 . S
H2452 C2457 0.950 . S
H2453 C2458 0.949 . S
H2454 C2460 0.950 . S
H2455 C2461 0.950 . S
H2456 C2462 0.949 . S
C2457 H2452 0.950 . S
C2457 C2459 1.327 . S
C2457 C2463 1.429 . S
C2458 C2450 1.574 . S
C2458 H2453 0.949 . S
C2458 C2464 1.368 . S
C2459 C2443 1.349 . S
C2459 H2451 0.950 . S
C2459 C2457 1.327 . S
C2460 C2448 1.349 . S
C2460 H2454 0.950 . S
C2460 C2461 1.327 . S
C2461 H2455 0.950 . S
C2461 C2460 1.327 . S
C2461 C2465 1.429 . S
C2462 C2445 1.574 . S
C2462 H2456 0.949 . S
C2462 C2466 1.368 . S
C2463 C2444 1.429 . S
C2463 C2457 1.429 . S
C2463 C2464 1.523 . S
C2464 C2445 1.368 . S
C2464 C2458 1.368 . S
C2464 C2463 1.523 . S
C2465 C2449 1.429 . S
C2465 C2461 1.429 . S
C2465 C2466 1.523 . S
C2466 C2450 1.368 . S
C2466 C2462 1.368 . S
C2466 C2465 1.523 . S
H2467 C2442 0.950 . S
H2468 C2444 0.950 . S
H2469 C2445 0.949 . S
H2470 C2447 0.950 . S
H2471 C2449 0.950 . S
C2472 C2473 1.349 . S
C2472 C2474 1.327 . S
C2472 H2497 0.950 . S
C2473 C2472 1.349 . S
C2473 C2489 1.349 . S
C2474 C2472 1.327 . S
C2474 C2493 1.429 . S
C2474 H2498 0.950 . S
C2475 C2492 1.574 . S
C2475 C2494 1.368 . S
C2475 H2499 0.949 . S
H2476 C2480 0.949 . S
C2477 C2478 1.349 . S
C2477 C2479 1.327 . S
C2477 H2500 0.950 . S
C2478 C2477 1.349 . S
C2478 C2490 1.349 . S
C2479 C2477 1.327 . S
C2479 C2495 1.429 . S
C2479 H2501 0.950 . S
C2480 H2476 0.949 . S
C2480 C2488 1.574 . S
C2480 C2496 1.368 . S
H2481 C2489 0.950 . S
H2482 C2487 0.950 . S
H2483 C2488 0.949 . S
H2484 C2490 0.950 . S
H2485 C2491 0.950 . S
H2486 C2492 0.949 . S
C2487 H2482 0.950 . S
C2487 C2489 1.327 . S
C2487 C2493 1.429 . S
C2488 C2480 1.574 . S
C2488 H2483 0.949 . S
C2488 C2494 1.368 . S
C2489 C2473 1.349 . S
C2489 H2481 0.950 . S
C2489 C2487 1.327 . S
C2490 C2478 1.349 . S
C2490 H2484 0.950 . S
C2490 C2491 1.327 . S
C2491 H2485 0.950 . S
C2491 C2490 1.327 . S
C2491 C2495 1.429 . S
C2492 C2475 1.574 . S
C2492 H2486 0.949 . S
C2492 C2496 1.368 . S
C2493 C2474 1.429 . S
C2493 C2487 1.429 . S
C2493 C2494 1.523 . S
C2494 C2475 1.368 . S
C2494 C2488 1.368 . S
C2494 C2493 1.523 . S
C2495 C2479 1.429 . S
C2495 C2491 1.429 . S
C2495 C2496 1.523 . S
C2496 C2480 1.368 . S
C2496 C2492 1.368 . S
C2496 C2495 1.523 . S
H2497 C2472 0.950 . S
H2498 C2474 0.950 . S
H2499 C2475 0.949 . S
H2500 C2477 0.950 . S
H2501 C2479 0.950 . S
C2502 C2503 1.349 . S
C2502 C2504 1.327 . S
C2502 H2527 0.950 . S
C2503 C2502 1.349 . S
C2503 C2519 1.349 . S
C2504 C2502 1.327 . S
C2504 C2523 1.429 . S
C2504 H2528 0.950 . S
C2505 C2522 1.574 . S
C2505 C2524 1.368 . S
C2505 H2529 0.949 . S
H2506 C2510 0.949 . S
C2507 C2508 1.349 . S
C2507 C2509 1.327 . S
C2507 H2530 0.950 . S
C2508 C2507 1.349 . S
C2508 C2520 1.349 . S
C2509 C2507 1.327 . S
C2509 C2525 1.429 . S
C2509 H2531 0.950 . S
C2510 H2506 0.949 . S
C2510 C2518 1.574 . S
C2510 C2526 1.368 . S
H2511 C2519 0.950 . S
H2512 C2517 0.950 . S
H2513 C2518 0.949 . S
H2514 C2520 0.950 . S
H2515 C2521 0.950 . S
H2516 C2522 0.949 . S
C2517 H2512 0.950 . S
C2517 C2519 1.327 . S
C2517 C2523 1.429 . S
C2518 C2510 1.574 . S
C2518 H2513 0.949 . S
C2518 C2524 1.368 . S
C2519 C2503 1.349 . S
C2519 H2511 0.950 . S
C2519 C2517 1.327 . S
C2520 C2508 1.349 . S
C2520 H2514 0.950 . S
C2520 C2521 1.327 . S
C2521 H2515 0.950 . S
C2521 C2520 1.327 . S
C2521 C2525 1.429 . S
C2522 C2505 1.574 . S
C2522 H2516 0.949 . S
C2522 C2526 1.368 . S
C2523 C2504 1.429 . S
C2523 C2517 1.429 . S
C2523 C2524 1.523 . S
C2524 C2505 1.368 . S
C2524 C2518 1.368 . S
C2524 C2523 1.523 . S
C2525 C2509 1.429 . S
C2525 C2521 1.429 . S
C2525 C2526 1.523 . S
C2526 C2510 1.368 . S
C2526 C2522 1.368 . S
C2526 C2525 1.523 . S
H2527 C2502 0.950 . S
H2528 C2504 0.950 . S
H2529 C2505 0.949 . S
H2530 C2507 0.950 . S
H2531 C2509 0.950 . S
C2532 C2533 1.349 . S
C2532 C2534 1.327 . S
C2532 H2557 0.950 . S
C2533 C2532 1.349 . S
C2533 C2549 1.349 . S
C2534 C2532 1.327 . S
C2534 C2553 1.429 . S
C2534 H2558 0.950 . S
C2535 C2552 1.574 . S
C2535 C2554 1.368 . S
C2535 H2559 0.949 . S
H2536 C2540 0.949 . S
C2537 C2538 1.349 . S
C2537 C2539 1.327 . S
C2537 H2560 0.950 . S
C2538 C2537 1.349 . S
C2538 C2550 1.349 . S
C2539 C2537 1.327 . S
C2539 C2555 1.429 . S
C2539 H2561 0.950 . S
C2540 H2536 0.949 . S
C2540 C2548 1.574 . S
C2540 C2556 1.368 . S
H2541 C2549 0.950 . S
H2542 C2547 0.950 . S
H2543 C2548 0.949 . S
H2544 C2550 0.950 . S
H2545 C2551 0.950 . S
H2546 C2552 0.949 . S
C2547 H2542 0.950 . S
C2547 C2549 1.327 . S
C2547 C2553 1.429 . S
C2548 C2540 1.574 . S
C2548 H2543 0.949 . S
C2548 C2554 1.368 . S
C2549 C2533 1.349 . S
C2549 H2541 0.950 . S
C2549 C2547 1.327 . S
C2550 C2538 1.349 . S
C2550 H2544 0.950 . S
C2550 C2551 1.327 . S
C2551 H2545 0.950 . S
C2551 C2550 1.327 . S
C2551 C2555 1.429 . S
C2552 C2535 1.574 . S
C2552 H2546 0.949 . S
C2552 C2556 1.368 . S
C2553 C2534 1.429 . S
C2553 C2547 1.429 . S
C2553 C2554 1.523 . S
C2554 C2535 1.368 . S
C2554 C2548 1.368 . S
C2554 C2553 1.523 . S
C2555 C2539 1.429 . S
C2555 C2551 1.429 . S
C2555 C2556 1.523 . S
C2556 C2540 1.368 . S
C2556 C2552 1.368 . S
C2556 C2555 1.523 . S
H2557 C2532 0.950 . S
H2558 C2534 0.950 . S
H2559 C2535 0.949 . S
H2560 C2537 0.950 . S
H2561 C2539 0.950 . S
C2562 C2563 1.349 . S
C2562 C2564 1.327 . S
C2562 H2587 0.950 . S
C2563 C2562 1.349 . S
C2563 C2579 1.349 . S
C2564 C2562 1.327 . S
C2564 C2583 1.429 . S
C2564 H2588 0.950 . S
C2565 C2582 1.574 . S
C2565 C2584 1.368 . S
C2565 H2589 0.949 . S
H2566 C2570 0.949 . S
C2567 C2568 1.349 . S
C2567 C2569 1.327 . S
C2567 H2590 0.950 . S
C2568 C2567 1.349 . S
C2568 C2580 1.349 . S
C2569 C2567 1.327 . S
C2569 C2585 1.429 . S
C2569 H2591 0.950 . S
C2570 H2566 0.949 . S
C2570 C2578 1.574 . S
C2570 C2586 1.368 . S
H2571 C2579 0.950 . S
H2572 C2577 0.950 . S
H2573 C2578 0.949 . S
H2574 C2580 0.950 . S
H2575 C2581 0.950 . S
H2576 C2582 0.949 . S
C2577 H2572 0.950 . S
C2577 C2579 1.327 . S
C2577 C2583 1.429 . S
C2578 C2570 1.574 . S
C2578 H2573 0.949 . S
C2578 C2584 1.368 . S
C2579 C2563 1.349 . S
C2579 H2571 0.950 . S
C2579 C2577 1.327 . S
C2580 C2568 1.349 . S
C2580 H2574 0.950 . S
C2580 C2581 1.327 . S
C2581 H2575 0.950 . S
C2581 C2580 1.327 . S
C2581 C2585 1.429 . S
C2582 C2565 1.574 . S
C2582 H2576 0.949 . S
C2582 C2586 1.368 . S
C2583 C2564 1.429 . S
C2583 C2577 1.429 . S
C2583 C2584 1.523 . S
C2584 C2565 1.368 . S
C2584 C2578 1.368 . S
C2584 C2583 1.523 . S
C2585 C2569 1.429 . S
C2585 C2581 1.429 . S
C2585 C2586 1.523 . S
C2586 C2570 1.368 . S
C2586 C2582 1.368 . S
C2586 C2585 1.523 . S
H2587 C2562 0.950 . S
H2588 C2564 0.950 . S
H2589 C2565 0.949 . S
H2590 C2567 0.950 . S
H2591 C2569 0.950 . S
C973 C162 1.431 . S
C978 C283 1.377 . S
C1003 C174 1.459 . S
C1008 C367 1.408 . S
C1033 C150 1.425 . S
C1038 C447 1.417 . S
C1063 C138 1.400 . S
C1068 C363 1.395 1_556 S
C1098 C451 1.356 . S
C1093 C114 1.408 . S
C1123 C126 1.376 . S
C1128 C279 1.369 1_556 S
C1158 C272 1.434 . S
C1153 C136 1.486 . S
C1188 C356 1.461 . S
C1183 C112 1.512 . S
C1213 C124 1.505 . S
C1218 C458 1.486 . S
C1243 C160 1.470 . S
C1248 C374 1.444 . S
C1273 C172 1.455 . S
C1278 C440 1.401 . S
C1308 C290 1.421 . S
C1303 C148 1.448 . S
C1338 C535 1.376 . S
C1333 C18 1.431 . S
C1363 C30 1.459 . S
C1368 C619 1.408 . S
C1393 C6 1.426 . S
C1398 C699 1.418 . S
C1423 C210 1.401 . S
C1428 C615 1.395 . S
C1453 C186 1.408 . S
C1458 C703 1.354 . S
C1483 C198 1.376 . S
C1488 C531 1.368 . S
C1513 C208 1.486 . S
C1518 C524 1.433 . S
C1543 C184 1.511 . S
C1548 C608 1.461 . S
C1578 C710 1.478 . S
C1573 C196 1.504 . S
C1603 C16 1.471 . S
C1608 C626 1.445 . S
C1638 C692 1.401 . S
C1633 C28 1.455 . S
C1663 C4 1.448 . S
C1668 C542 1.421 . S
C1698 C787 1.377 . S
C1693 C90 1.432 . S
C1723 C102 1.459 . S
C1728 C871 1.408 . S
C1758 C951 1.418 . S
C1753 C78 1.426 . S
C1788 C867 1.394 . S
C1783 C66 1.400 . S
C1818 C955 1.353 . S
C1813 C42 1.408 . S
C1843 C54 1.376 . S
C1848 C783 1.368 . S
C1873 C64 1.486 . S
C1878 C776 1.433 . S
C1903 C40 1.511 . S
C1908 C860 1.461 . S
C1938 C962 1.478 . S
C1933 C52 1.504 . S
C1963 C88 1.470 . S
C1968 C878 1.444 . S
C1993 C100 1.455 . S
C1998 C944 1.402 . S
C2023 C76 1.448 . S
C2028 C794 1.422 . S
C2053 C189 1.557 . S
C2058 C286 1.433 . S
C2088 C370 1.490 . S
C2083 C201 1.637 . S
C2113 C213 1.573 . S
C2118 C442 1.393 . S
C2143 C81 1.607 . S
C2148 C358 1.416 . S
C2173 C93 1.590 . S
C2178 C454 1.452 . S
C2208 C274 1.362 . S
C2203 C105 1.527 . S
C2233 C45 1.557 . S
C2238 C538 1.433 . S
C2263 C57 1.637 . S
C2268 C622 1.491 . S
C2293 C69 1.574 . S
C2298 C694 1.394 . S
C2323 C153 1.607 . S
C2328 C610 1.416 . S
C2358 C706 1.451 . S
C2353 C165 1.589 . S
C2383 C177 1.528 . S
C2388 C526 1.363 . S
C2413 C117 1.557 . S
C2418 C790 1.434 . S
C2443 C129 1.637 . S
C2448 C874 1.491 . S
C2478 C946 1.394 . S
C2473 C141 1.574 . S
C2503 C9 1.607 . S
C2508 C862 1.416 . S
C2533 C21 1.589 . S
C2538 C958 1.451 . S
C2563 C33 1.527 . S
C2568 C778 1.362 . S
