# Generated by pormake.
# Topology nom, (4,4)-cn, num edge types: 1
# Building blocks:
#     Node 0, Type 0, BuildingBlock: NAHDIM_clean_linker_0, # of connection points: 4
#     Node 1, Type 0, BuildingBlock: NAHDIM_clean_linker_0, # of connection points: 4
#     Node 2, Type 0, BuildingBlock: NAHDIM_clean_linker_0, # of connection points: 4
#     Node 3, Type 0, BuildingBlock: NAHDIM_clean_linker_0, # of connection points: 4
#     Node 4, Type 0, BuildingBlock: NAHDIM_clean_linker_0, # of connection points: 4
#     Node 5, Type 0, BuildingBlock: NAHDIM_clean_linker_0, # of connection points: 4
#     Node 6, Type 1, BuildingBlock: KUFVIS_clean_sbu_0, # of connection points: 4
#     Node 7, Type 1, BuildingBlock: KUFVIS_clean_sbu_0, # of connection points: 4
#     Node 8, Type 1, BuildingBlock: KUFVIS_clean_sbu_0, # of connection points: 4
#     Node 9, Type 1, BuildingBlock: KUFVIS_clean_sbu_0, # of connection points: 4
#     Node 10, Type 1, BuildingBlock: KUFVIS_clean_sbu_0, # of connection points: 4
#     Node 11, Type 1, BuildingBlock: KUFVIS_clean_sbu_0, # of connection points: 4
#     Edge 12, Type (0, 1), BuildingBlock: MIFKUJ_clean_linker_0, # of connection points: 2
#     Edge 13, Type (0, 1), BuildingBlock: MIFKUJ_clean_linker_0, # of connection points: 2
#     Edge 14, Type (0, 1), BuildingBlock: MIFKUJ_clean_linker_0, # of connection points: 2
#     Edge 15, Type (0, 1), BuildingBlock: MIFKUJ_clean_linker_0, # of connection points: 2
#     Edge 16, Type (0, 1), BuildingBlock: MIFKUJ_clean_linker_0, # of connection points: 2
#     Edge 17, Type (0, 1), BuildingBlock: MIFKUJ_clean_linker_0, # of connection points: 2
#     Edge 18, Type (0, 1), BuildingBlock: MIFKUJ_clean_linker_0, # of connection points: 2
#     Edge 19, Type (0, 1), BuildingBlock: MIFKUJ_clean_linker_0, # of connection points: 2
#     Edge 20, Type (0, 1), BuildingBlock: MIFKUJ_clean_linker_0, # of connection points: 2
#     Edge 21, Type (0, 1), BuildingBlock: MIFKUJ_clean_linker_0, # of connection points: 2
#     Edge 22, Type (0, 1), BuildingBlock: MIFKUJ_clean_linker_0, # of connection points: 2
#     Edge 23, Type (0, 1), BuildingBlock: MIFKUJ_clean_linker_0, # of connection points: 2
#     Edge 24, Type (0, 1), BuildingBlock: MIFKUJ_clean_linker_0, # of connection points: 2
#     Edge 25, Type (0, 1), BuildingBlock: MIFKUJ_clean_linker_0, # of connection points: 2
#     Edge 26, Type (0, 1), BuildingBlock: MIFKUJ_clean_linker_0, # of connection points: 2
#     Edge 27, Type (0, 1), BuildingBlock: MIFKUJ_clean_linker_0, # of connection points: 2
#     Edge 28, Type (0, 1), BuildingBlock: MIFKUJ_clean_linker_0, # of connection points: 2
#     Edge 29, Type (0, 1), BuildingBlock: MIFKUJ_clean_linker_0, # of connection points: 2
#     Edge 30, Type (0, 1), BuildingBlock: MIFKUJ_clean_linker_0, # of connection points: 2
#     Edge 31, Type (0, 1), BuildingBlock: MIFKUJ_clean_linker_0, # of connection points: 2
#     Edge 32, Type (0, 1), BuildingBlock: MIFKUJ_clean_linker_0, # of connection points: 2
#     Edge 33, Type (0, 1), BuildingBlock: MIFKUJ_clean_linker_0, # of connection points: 2
#     Edge 34, Type (0, 1), BuildingBlock: MIFKUJ_clean_linker_0, # of connection points: 2
#     Edge 35, Type (0, 1), BuildingBlock: MIFKUJ_clean_linker_0, # of connection points: 2
# Relax obj value: 0.043
# Max RMSD: 0.131
# Mean RMSD: 0.093
data_MOF--net-nom--node1-KUFVIS_clean_sbu_0--node2-NAHDIM_clean_linker_0--edge1-MIFKUJ_clean_linker_0
_symmetry_space_group_name_H-M    P1
_symmetry_Int_Tables_number       1
_symmetry_cell_setting            triclinic
loop_
_symmetry_equiv_pos_as_xyz
'x, y, z'
_cell_length_a     69.810511
_cell_length_b     70.595158
_cell_length_c     85.470476
_cell_angle_alpha  90.716947
_cell_angle_beta   90.75475
_cell_angle_gamma 119.99775
loop_
_atom_site_label
_atom_site_type_symbol
_atom_site_fract_x
_atom_site_fract_y
_atom_site_fract_z
_atom_type_partial_charge
C0 C 0.12839 0.6053 0.2587 0.0
C1 C 0.14081 0.60107 0.27192 0.0
C2 C 0.11139 0.58714 0.29078 0.0
C3 C 0.10357 0.56459 0.29008 0.0
C4 C 0.08176 0.5496 0.29412 0.0
C5 C 0.06745 0.55738 0.29867 0.0
C6 C 0.07548 0.58019 0.29959 0.0
C7 C 0.09757 0.5948 0.29597 0.0
C8 C 0.07391 0.52543 0.29327 0.0
C9 C 0.06062 0.58918 0.30395 0.0
C10 C 0.93813 0.49465 0.20993 0.0
C11 C 0.95106 0.50561 0.22449 0.0
C12 C 0.96883 0.49909 0.24692 0.0
C13 C 0.97236 0.51777 0.25546 0.0
C14 C 0.98437 0.52378 0.26968 0.0
C15 C 0.99309 0.51091 0.2755 0.0
C16 C 0.98926 0.49189 0.26711 0.0
C17 C 0.97705 0.48617 0.25293 0.0
C18 C 0.98804 0.54411 0.2784 0.0
C19 C 0.99832 0.47783 0.27304 0.0
C20 C 0.90117 0.45424 0.3523 0.0
C21 C 0.90924 0.47678 0.35099 0.0
C22 C 0.93208 0.49164 0.35122 0.0
C23 C 0.94707 0.48377 0.35286 0.0
C24 C 0.93892 0.46123 0.35524 0.0
C25 C 0.91599 0.44675 0.35507 0.0
C26 C 0.94021 0.51566 0.34912 0.0
C27 C 0.95445 0.45236 0.35727 0.0
C28 C 0.10013 0.60767 0.40508 0.0
C29 C 0.08785 0.58405 0.4106 0.0
C30 C 0.05034 0.56284 0.40007 0.0
C31 C 0.03558 0.56839 0.39327 0.0
C32 C 0.02094 0.55544 0.38115 0.0
C33 C 0.02071 0.53614 0.37609 0.0
C34 C 0.03454 0.52964 0.38376 0.0
C35 C 0.04937 0.54319 0.39562 0.0
C36 C 0.00625 0.56275 0.37341 0.0
C37 C 0.03412 0.50876 0.37907 0.0
C38 C 0.04378 0.54166 0.30148 0.0
C39 C 0.02976 0.53236 0.28839 0.0
C40 C 0.00711 0.51809 0.28997 0.0
C41 C 0.9981 0.51251 0.30505 0.0
C42 C 0.97546 0.49789 0.30705 0.0
C43 C 0.96664 0.49302 0.32193 0.0
C44 C 0.98005 0.50287 0.33538 0.0
C45 C 0.97106 0.4987 0.35053 0.0
C46 C 0.98474 0.50925 0.36361 0.0
C47 C 0.00736 0.52387 0.36199 0.0
C48 C 0.01675 0.5278 0.34697 0.0
C49 C 0.03952 0.54207 0.34493 0.0
C50 C 0.04852 0.54614 0.33009 0.0
C51 C 0.03501 0.53669 0.31667 0.0
C52 C 0.01207 0.52209 0.31844 0.0
C53 C 0.00298 0.51745 0.33362 0.0
C54 C 0.85669 0.42116 0.32826 0.0
C55 C 0.86475 0.44032 0.34001 0.0
O56 O 0.13204 0.60185 0.28622 0.0
O57 O 0.06537 0.57675 0.41087 0.0
O58 O 0.87927 0.43935 0.35076 0.0
O59 O 0.95781 0.49317 0.23286 0.0
H60 H 0.13907 0.58467 0.26996 0.0
H61 H 0.11061 0.59254 0.2585 0.0
H62 H 0.12975 0.62157 0.26043 0.0
H63 H 0.13516 0.60473 0.24712 0.0
H64 H 0.11452 0.55871 0.28645 0.0
H65 H 0.1039 0.61229 0.29652 0.0
H66 H 0.06204 0.5178 0.28326 0.0
H67 H 0.08778 0.52216 0.29167 0.0
H68 H 0.06511 0.51743 0.3041 0.0
H69 H 0.06861 0.60707 0.3021 0.0
H70 H 0.04493 0.58081 0.29695 0.0
H71 H 0.05636 0.58611 0.31647 0.0
H72 H 0.96464 0.52283 0.22306 0.0
H73 H 0.94868 0.50485 0.20011 0.0
H74 H 0.94089 0.4805 0.20748 0.0
H75 H 0.90684 0.49054 0.21428 0.0
H76 H 0.9659 0.52783 0.25109 0.0
H77 H 0.97417 0.47174 0.24633 0.0
H78 H 0.9817 0.53991 0.29045 0.0
H79 H 0.00604 0.55604 0.27942 0.0
H80 H 0.97973 0.55209 0.2725 0.0
H81 H 0.99322 0.46311 0.26545 0.0
H82 H 0.01667 0.48756 0.27362 0.0
H83 H 0.99255 0.47252 0.28509 0.0
H84 H 0.87324 0.45536 0.33293 0.0
H85 H 0.89773 0.48274 0.34961 0.0
H86 H 0.90954 0.42937 0.3564 0.0
H87 H 0.94854 0.52083 0.33772 0.0
H88 H 0.92655 0.51942 0.3494 0.0
H89 H 0.95259 0.52546 0.35846 0.0
H90 H 0.94554 0.43461 0.35978 0.0
H91 H 0.96402 0.45501 0.34644 0.0
H92 H 0.96648 0.46133 0.36699 0.0
H93 H 0.0914 0.57417 0.40208 0.0
H94 H 0.11822 0.61386 0.40485 0.0
H95 H 0.09435 0.60843 0.39305 0.0
H96 H 0.09701 0.61847 0.41293 0.0
H97 H 0.03624 0.58342 0.39705 0.0
H98 H 0.06027 0.53853 0.40136 0.0
H99 H 0.00922 0.56441 0.36063 0.0
H100 H 0.98865 0.5502 0.37498 0.0
H101 H 0.00906 0.57862 0.3783 0.0
H102 H 0.04351 0.5045 0.38754 0.0
H103 H 0.01679 0.49501 0.37816 0.0
H104 H 0.04153 0.51065 0.36738 0.0
H105 H 0.03649 0.53674 0.27676 0.0
H106 H 0.96431 0.49005 0.29712 0.0
H107 H 0.94908 0.48164 0.32272 0.0
H108 H 0.97762 0.50635 0.37515 0.0
H109 H 0.0507 0.55026 0.35477 0.0
H110 H 0.06617 0.55712 0.32926 0.0
H111 H 0.84449 0.42125 0.31982 0.0
H112 H 0.87093 0.42269 0.32158 0.0
H113 H 0.84895 0.40525 0.33429 0.0
C114 C 0.43963 0.89022 0.55472 0.0
C115 C 0.43417 0.88071 0.53793 0.0
C116 C 0.44409 0.91482 0.52445 0.0
C117 C 0.46679 0.92252 0.52269 0.0
C118 C 0.48132 0.9444 0.51893 0.0
C119 C 0.47308 0.95898 0.51722 0.0
C120 C 0.45019 0.95119 0.51886 0.0
C121 C 0.43594 0.92907 0.52211 0.0
C122 C 0.50554 0.95197 0.51698 0.0
C123 C 0.44081 0.96631 0.51754 0.0
C124 C 0.57165 0.04049 0.60364 0.0
C125 C 0.55898 0.05046 0.59587 0.0
C126 C 0.55502 0.04877 0.56747 0.0
C127 C 0.53361 0.04559 0.56575 0.0
C128 C 0.52117 0.03631 0.55189 0.0
C129 C 0.53031 0.02986 0.53964 0.0
C130 C 0.55216 0.03361 0.54125 0.0
C131 C 0.5644 0.04347 0.55507 0.0
C132 C 0.49814 0.03303 0.55044 0.0
C133 C 0.56236 0.02658 0.52861 0.0
C134 C 0.57175 0.12466 0.4591 0.0
C135 C 0.55117 0.11829 0.46569 0.0
C136 C 0.5359 0.09608 0.46797 0.0
C137 C 0.54159 0.08005 0.46385 0.0
C138 C 0.56226 0.08651 0.45698 0.0
C139 C 0.57692 0.10876 0.45446 0.0
C140 C 0.51367 0.08976 0.47471 0.0
C141 C 0.56894 0.06994 0.45238 0.0
C142 C 0.4183 0.93058 0.40774 0.0
C143 C 0.44257 0.94409 0.40324 0.0
C144 C 0.46191 0.98014 0.41573 0.0
C145 C 0.45508 0.99348 0.42304 0.0
C146 C 0.46719 0.00723 0.43577 0.0
C147 C 0.4869 0.00797 0.44094 0.0
C148 C 0.49458 0.99545 0.43294 0.0
C149 C 0.48189 0.98153 0.42044 0.0
C150 C 0.45864 0.02049 0.44395 0.0
C151 C 0.51595 0.99647 0.43776 0.0
C152 C 0.4886 0.98256 0.5145 0.0
C153 C 0.50134 0.99551 0.52725 0.0
C154 C 0.5165 0.01776 0.52568 0.0
C155 C 0.51879 0.02765 0.51101 0.0
C156 C 0.53351 0.0501 0.50908 0.0
C157 C 0.53597 0.05957 0.49451 0.0
C158 C 0.52357 0.04703 0.48136 0.0
C159 C 0.5259 0.0565 0.4665 0.0
C160 C 0.51359 0.04342 0.45364 0.0
C161 C 0.49894 0.02104 0.45516 0.0
C162 C 0.49616 0.01133 0.46995 0.0
C163 C 0.48138 0.98888 0.47192 0.0
C164 C 0.47898 0.9794 0.48645 0.0
C165 C 0.49104 0.99203 0.49964 0.0
C166 C 0.50607 0.0147 0.49794 0.0
C167 C 0.50855 0.02438 0.48308 0.0
C168 C 0.61699 0.17132 0.47259 0.0
C169 C 0.59295 0.16296 0.4675 0.0
O170 O 0.4296 0.89392 0.52852 0.0
O171 O 0.44899 0.96612 0.40412 0.0
O172 O 0.58669 0.14597 0.45667 0.0
O173 O 0.56701 0.05689 0.58096 0.0
H174 H 0.44846 0.87974 0.53331 0.0
H175 H 0.45438 0.90688 0.55489 0.0
H176 H 0.42546 0.89123 0.55955 0.0
H177 H 0.44344 0.87991 0.56242 0.0
H178 H 0.47328 0.91159 0.52412 0.0
H179 H 0.4184 0.92294 0.52342 0.0
H180 H 0.51516 0.9627 0.5271 0.0
H181 H 0.50874 0.93807 0.51631 0.0
H182 H 0.51173 0.96171 0.50622 0.0
H183 H 0.42323 0.9583 0.52101 0.0
H184 H 0.4506 0.98119 0.52502 0.0
H185 H 0.44186 0.97163 0.50527 0.0
H186 H 0.54118 0.03751 0.59533 0.0
H187 H 0.56527 0.0347 0.61551 0.0
H188 H 0.56953 0.02627 0.59651 0.0
H189 H 0.5896 0.05272 0.60464 0.0
H190 H 0.52665 0.05039 0.57522 0.0
H191 H 0.58108 0.04626 0.55652 0.0
H192 H 0.48587 0.0153 0.55091 0.0
H193 H 0.49465 0.04166 0.55997 0.0
H194 H 0.49582 0.03897 0.53899 0.0
H195 H 0.57868 0.02879 0.53233 0.0
H196 H 0.55116 0.00911 0.52532 0.0
H197 H 0.56468 0.03635 0.51801 0.0
H198 H 0.58273 0.15715 0.47816 0.0
H199 H 0.5469 0.13064 0.46878 0.0
H200 H 0.59276 0.11391 0.44917 0.0
H201 H 0.51264 0.08323 0.4866 0.0
H202 H 0.51079 0.10386 0.47557 0.0
H203 H 0.50022 0.07662 0.46737 0.0
H204 H 0.58647 0.0778 0.4488 0.0
H205 H 0.56651 0.05897 0.46228 0.0
H206 H 0.55826 0.05963 0.44244 0.0
H207 H 0.45237 0.94025 0.4117 0.0
H208 H 0.4128 0.91284 0.4073 0.0
H209 H 0.41625 0.93507 0.41986 0.0
H210 H 0.40761 0.93371 0.39968 0.0
H211 H 0.43978 0.9925 0.41909 0.0
H212 H 0.48755 0.97174 0.41434 0.0
H213 H 0.45633 0.0164 0.45654 0.0
H214 H 0.47097 0.03818 0.44322 0.0
H215 H 0.44267 0.01756 0.43878 0.0
H216 H 0.52093 0.98782 0.42922 0.0
H217 H 0.52944 0.01377 0.43899 0.0
H218 H 0.51401 0.98883 0.44934 0.0
H219 H 0.49964 0.98807 0.53857 0.0
H220 H 0.54337 0.06057 0.5188 0.0
H221 H 0.54771 0.07688 0.4937 0.0
H222 H 0.51559 0.05072 0.44224 0.0
H223 H 0.47152 0.97834 0.46222 0.0
H224 H 0.46752 0.96201 0.48721 0.0
H225 H 0.62807 0.17774 0.46242 0.0
H226 H 0.62241 0.18452 0.48167 0.0
H227 H 0.6186 0.15775 0.47766 0.0
C228 C 0.59515 0.46902 0.71429 0.0
C229 C 0.58685 0.45514 0.69911 0.0
C230 C 0.557 0.46216 0.69082 0.0
C231 C 0.57071 0.48408 0.68665 0.0
C232 C 0.56164 0.49722 0.68258 0.0
C233 C 0.53841 0.48817 0.6824 0.0
C234 C 0.52454 0.46588 0.68593 0.0
C235 C 0.53406 0.4532 0.69012 0.0
C236 C 0.57689 0.52094 0.67886 0.0
C237 C 0.49969 0.4556 0.68559 0.0
C238 C 0.45713 0.54918 0.76246 0.0
C239 C 0.46053 0.53837 0.74859 0.0
C240 C 0.48969 0.54051 0.732 0.0
C241 C 0.47513 0.52379 0.72151 0.0
C242 C 0.48304 0.51818 0.70829 0.0
C243 C 0.50593 0.52992 0.70518 0.0
C244 C 0.52065 0.5468 0.71565 0.0
C245 C 0.51232 0.55175 0.72902 0.0
C246 C 0.46683 0.49963 0.69764 0.0
C247 C 0.54512 0.5597 0.71265 0.0
C248 C 0.47198 0.5889 0.6284 0.0
C249 C 0.45755 0.56627 0.62942 0.0
C250 C 0.46571 0.55169 0.62924 0.0
C251 C 0.48873 0.55995 0.62797 0.0
C252 C 0.50308 0.5826 0.62588 0.0
C253 C 0.49444 0.59679 0.62599 0.0
C254 C 0.44986 0.52755 0.63099 0.0
C255 C 0.52765 0.59189 0.62424 0.0
C256 C 0.52521 0.44686 0.57628 0.0
C257 C 0.53482 0.46864 0.56784 0.0
C258 C 0.51725 0.48755 0.57922 0.0
C259 C 0.49642 0.48007 0.58556 0.0
C260 C 0.49362 0.49107 0.59833 0.0
C261 C 0.51208 0.51033 0.60457 0.0
C262 C 0.53296 0.51867 0.59756 0.0
C263 C 0.53535 0.5071 0.58498 0.0
C264 C 0.47108 0.48183 0.60541 0.0
C265 C 0.5528 0.53954 0.60358 0.0
C266 C 0.5287 0.50237 0.67956 0.0
C267 C 0.52338 0.51078 0.69263 0.0
C268 C 0.51422 0.52429 0.69097 0.0
C269 C 0.51106 0.53037 0.67588 0.0
C270 C 0.50306 0.54493 0.67384 0.0
C271 C 0.4991 0.5501 0.65895 0.0
C272 C 0.50275 0.54072 0.64551 0.0
C273 C 0.49797 0.54525 0.63033 0.0
C274 C 0.50149 0.53542 0.61723 0.0
C275 C 0.50973 0.52108 0.61887 0.0
C276 C 0.51486 0.51655 0.63395 0.0
C277 C 0.52327 0.50229 0.63604 0.0
C278 C 0.52811 0.49783 0.65094 0.0
C279 C 0.52435 0.50715 0.66434 0.0
C280 C 0.5157 0.5214 0.66251 0.0
C281 C 0.51122 0.52632 0.64731 0.0
C282 C 0.46083 0.62071 0.65278 0.0
C283 C 0.44938 0.60215 0.64053 0.0
O284 O 0.56501 0.44917 0.69583 0.0
O285 O 0.51947 0.47563 0.56756 0.0
O286 O 0.46479 0.60349 0.62987 0.0
O287 O 0.48252 0.54621 0.74502 0.0
H288 H 0.59737 0.46469 0.68926 0.0
H289 H 0.59515 0.48463 0.71306 0.0
H290 H 0.58442 0.46008 0.7242 0.0
H291 H 0.61238 0.47305 0.71713 0.0
H292 H 0.58849 0.49121 0.68677 0.0
H293 H 0.52359 0.43623 0.69319 0.0
H294 H 0.57394 0.53156 0.68699 0.0
H295 H 0.59461 0.52563 0.67977 0.0
H296 H 0.57327 0.52413 0.6668 0.0
H297 H 0.4912 0.43758 0.68696 0.0
H298 H 0.49466 0.46276 0.69523 0.0
H299 H 0.49402 0.4592 0.6744 0.0
H300 H 0.45055 0.52014 0.74855 0.0
H301 H 0.44906 0.53591 0.7713 0.0
H302 H 0.47351 0.55801 0.76902 0.0
H303 H 0.44148 0.56537 0.75299 0.0
H304 H 0.45755 0.51491 0.72355 0.0
H305 H 0.52345 0.56462 0.73714 0.0
H306 H 0.46485 0.50634 0.68645 0.0
H307 H 0.47313 0.48833 0.69488 0.0
H308 H 0.45028 0.4901 0.7029 0.0
H309 H 0.55411 0.5735 0.72118 0.0
H310 H 0.55221 0.54873 0.71339 0.0
H311 H 0.54792 0.56628 0.70064 0.0
H312 H 0.44256 0.58678 0.64725 0.0
H313 H 0.43997 0.56001 0.63051 0.0
H314 H 0.50536 0.61425 0.62488 0.0
H315 H 0.45294 0.52227 0.64248 0.0
H316 H 0.4323 0.52348 0.6303 0.0
H317 H 0.45267 0.51807 0.62174 0.0
H318 H 0.53647 0.60973 0.62204 0.0
H319 H 0.53464 0.58901 0.6351 0.0
H320 H 0.53079 0.58338 0.61445 0.0
H321 H 0.55011 0.48068 0.57439 0.0
H322 H 0.53729 0.44097 0.57649 0.0
H323 H 0.52152 0.44904 0.58856 0.0
H324 H 0.50964 0.43427 0.57035 0.0
H325 H 0.48251 0.46512 0.58083 0.0
H326 H 0.55131 0.51333 0.57962 0.0
H327 H 0.47208 0.47882 0.61804 0.0
H328 H 0.46535 0.49389 0.60451 0.0
H329 H 0.45859 0.46628 0.59954 0.0
H330 H 0.56724 0.54505 0.59586 0.0
H331 H 0.5486 0.55274 0.6046 0.0
H332 H 0.55761 0.53694 0.61544 0.0
H333 H 0.52589 0.5063 0.70426 0.0
H334 H 0.49976 0.55249 0.68375 0.0
H335 H 0.4929 0.56139 0.65814 0.0
H336 H 0.49754 0.53877 0.60564 0.0
H337 H 0.52625 0.49441 0.62618 0.0
H338 H 0.53457 0.48677 0.65184 0.0
H339 H 0.46963 0.6369 0.64717 0.0
H340 H 0.44854 0.62052 0.661 0.0
H341 H 0.47319 0.6185 0.65962 0.0
C342 C 0.13777 0.57097 0.89014 0.0
C343 C 0.14573 0.57447 0.87321 0.0
C344 C 0.11016 0.55011 0.85974 0.0
C345 C 0.10147 0.56427 0.86045 0.0
C346 C 0.07918 0.55673 0.85657 0.0
C347 C 0.0652 0.53451 0.85213 0.0
C348 C 0.07396 0.52029 0.85117 0.0
C349 C 0.09643 0.5284 0.85478 0.0
C350 C 0.0705 0.57246 0.85741 0.0
C351 C 0.05951 0.49645 0.8466 0.0
C352 C 0.94252 0.49143 0.94086 0.0
C353 C 0.95844 0.50294 0.92822 0.0
C354 C 0.96515 0.49727 0.90114 0.0
C355 C 0.96399 0.48056 0.89154 0.0
C356 C 0.97723 0.4853 0.87833 0.0
C357 C 0.99116 0.50739 0.8742 0.0
C358 C 0.99202 0.52439 0.88371 0.0
C359 C 0.97921 0.51916 0.89719 0.0
C360 C 0.97631 0.46666 0.86885 0.0
C361 C 0.00643 0.54813 0.87965 0.0
C362 C 0.89744 0.47299 0.7966 0.0
C363 C 0.90592 0.45873 0.79777 0.0
C364 C 0.92879 0.46677 0.79747 0.0
C365 C 0.94339 0.4895 0.79602 0.0
C366 C 0.93476 0.50365 0.7937 0.0
C367 C 0.91179 0.49511 0.79386 0.0
C368 C 0.9374 0.45112 0.79943 0.0
C369 C 0.94986 0.5279 0.79183 0.0
C370 C 0.04869 0.49354 0.71965 0.0
C371 C 0.06512 0.51555 0.72762 0.0
C372 C 0.04254 0.52221 0.74644 0.0
C373 C 0.03809 0.50473 0.7563 0.0
C374 C 0.02506 0.50077 0.76956 0.0
C375 C 0.01722 0.51521 0.77351 0.0
C376 C 0.02207 0.53308 0.76379 0.0
C377 C 0.03441 0.53613 0.75027 0.0
C378 C 0.01968 0.48105 0.77928 0.0
C379 C 0.01421 0.54897 0.76761 0.0
C380 C 0.04127 0.52603 0.84903 0.0
C381 C 0.02745 0.52057 0.8619 0.0
C382 C 0.00478 0.51275 0.85995 0.0
C383 C 0.9955 0.51005 0.84471 0.0
C384 C 0.97287 0.50268 0.8423 0.0
C385 C 0.96372 0.49915 0.82728 0.0
C386 C 0.97686 0.50302 0.81404 0.0
C387 C 0.96752 0.49873 0.79872 0.0
C388 C 0.98105 0.50287 0.78582 0.0
C389 C 0.00391 0.51158 0.78776 0.0
C390 C 0.01356 0.51615 0.80301 0.0
C391 C 0.03651 0.52538 0.80544 0.0
C392 C 0.04568 0.52883 0.82049 0.0
C393 C 0.03226 0.5233 0.8337 0.0
C394 C 0.00923 0.51494 0.83154 0.0
C395 C 0.99988 0.51141 0.81618 0.0
C396 C 0.85482 0.46295 0.82108 0.0
C397 C 0.8625 0.45135 0.80964 0.0
O398 O 0.13147 0.55654 0.86385 0.0
O399 O 0.05424 0.52614 0.73307 0.0
O400 O 0.87563 0.46596 0.79844 0.0
O401 O 0.95228 0.49169 0.91394 0.0
H402 H 0.14646 0.5895 0.86867 0.0
H403 H 0.12111 0.56926 0.89075 0.0
H404 H 0.13687 0.55592 0.8948 0.0
H405 H 0.14922 0.58518 0.89774 0.0
H406 H 0.1119 0.58121 0.86403 0.0
H407 H 0.1033 0.51763 0.85417 0.0
H408 H 0.05911 0.56817 0.86736 0.0
H409 H 0.08398 0.5897 0.85909 0.0
H410 H 0.06095 0.57113 0.84655 0.0
H411 H 0.06851 0.48723 0.84748 0.0
H412 H 0.04489 0.48873 0.85423 0.0
H413 H 0.05331 0.49501 0.83437 0.0
H414 H 0.96387 0.52065 0.92743 0.0
H415 H 0.96041 0.48319 0.95656 0.0
H416 H 0.93599 0.50258 0.94425 0.0
H417 H 0.92669 0.47881 0.93485 0.0
H418 H 0.95302 0.46372 0.89468 0.0
H419 H 0.97989 0.53222 0.90435 0.0
H420 H 0.96677 0.46431 0.85781 0.0
H421 H 0.99321 0.47037 0.86572 0.0
H422 H 0.96817 0.45105 0.87526 0.0
H423 H 0.00237 0.55903 0.88658 0.0
H424 H 0.02399 0.55313 0.88211 0.0
H425 H 0.00468 0.55054 0.86701 0.0
H426 H 0.87218 0.44594 0.81693 0.0
H427 H 0.89469 0.4414 0.79918 0.0
H428 H 0.90499 0.50588 0.79264 0.0
H429 H 0.9454 0.45375 0.81119 0.0
H430 H 0.92401 0.43376 0.79828 0.0
H431 H 0.95013 0.45427 0.7906 0.0
H432 H 0.94054 0.53662 0.78972 0.0
H433 H 0.9604 0.53498 0.80255 0.0
H434 H 0.96101 0.53082 0.78189 0.0
H435 H 0.07366 0.51256 0.73757 0.0
H436 H 0.05766 0.48554 0.71484 0.0
H437 H 0.03653 0.48226 0.72807 0.0
H438 H 0.03937 0.4959 0.70997 0.0
H439 H 0.04444 0.4939 0.75371 0.0
H440 H 0.03792 0.54958 0.74263 0.0
H441 H 0.03021 0.48639 0.79008 0.0
H442 H 0.00212 0.47268 0.78283 0.0
H443 H 0.02275 0.46907 0.77287 0.0
H444 H 0.02224 0.56377 0.76032 0.0
H445 H 0.99606 0.5408 0.76549 0.0
H446 H 0.01757 0.55411 0.78015 0.0
H447 H 0.03447 0.52252 0.87361 0.0
H448 H 0.96191 0.49936 0.85201 0.0
H449 H 0.94614 0.49323 0.8262 0.0
H450 H 0.97369 0.49922 0.77413 0.0
H451 H 0.04766 0.52987 0.79573 0.0
H452 H 0.06341 0.53573 0.82164 0.0
H453 H 0.84629 0.47043 0.81482 0.0
H454 H 0.84345 0.45124 0.82972 0.0
H455 H 0.86938 0.4762 0.82753 0.0
C456 C 0.50032 0.90664 0.92993 0.0
C457 C 0.47768 0.89594 0.9377 0.0
C458 C 0.48449 0.92368 0.95719 0.0
C459 C 0.46865 0.92998 0.95464 0.0
C460 C 0.47351 0.9514 0.95826 0.0
C461 C 0.49485 0.96687 0.9642 0.0
C462 C 0.51079 0.96036 0.96689 0.0
C463 C 0.50518 0.93864 0.96366 0.0
C464 C 0.45595 0.95756 0.95546 0.0
C465 C 0.53393 0.97642 0.97276 0.0
C466 C 0.50856 0.09694 0.90204 0.0
C467 C 0.51722 0.08367 0.89327 0.0
C468 C 0.52581 0.06574 0.91464 0.0
C469 C 0.54298 0.06531 0.92291 0.0
C470 C 0.53871 0.05153 0.93567 0.0
C471 C 0.51666 0.03813 0.94045 0.0
C472 C 0.49911 0.03798 0.93188 0.0
C473 C 0.50382 0.05159 0.91896 0.0
C474 C 0.55782 0.0517 0.94426 0.0
C475 C 0.47539 0.02379 0.93661 0.0
C476 C 0.5517 0.13386 0.01554 0.0
C477 C 0.56594 0.12521 0.01509 0.0
C478 C 0.55757 0.1026 0.01596 0.0
C479 C 0.53451 0.08842 0.0173 0.0
C480 C 0.52035 0.09725 0.01892 0.0
C481 C 0.52922 0.11997 0.01815 0.0
C482 C 0.57323 0.09377 0.01474 0.0
C483 C 0.49576 0.0826 0.02064 0.0
C484 C 0.53421 0.99995 0.10037 0.0
C485 C 0.51616 0.97949 0.09167 0.0
C486 C 0.50497 0.9947 0.06988 0.0
C487 C 0.52443 0.00221 0.06129 0.0
C488 C 0.52724 0.01342 0.0473 0.0
C489 C 0.51017 0.01696 0.04165 0.0
C490 C 0.49048 0.0092 0.05013 0.0
C491 C 0.48818 0.9982 0.06416 0.0
C492 C 0.54855 0.02164 0.03859 0.0
C493 C 0.47193 0.01265 0.04441 0.0
C494 C 0.5009 0.99009 0.96671 0.0
C495 C 0.50547 0.00308 0.95351 0.0
C496 C 0.51205 0.02525 0.95492 0.0
C497 C 0.51448 0.03496 0.96993 0.0
C498 C 0.52119 0.05726 0.97177 0.0
C499 C 0.52446 0.06689 0.98656 0.0
C500 C 0.52095 0.05458 0.00012 0.0
C501 C 0.52505 0.06446 0.01521 0.0
C502 C 0.52112 0.05174 0.02845 0.0
C503 C 0.51318 0.02924 0.02706 0.0
C504 C 0.50913 0.01908 0.01205 0.0
C505 C 0.50113 0.9965 0.0102 0.0
C506 C 0.49805 0.98687 0.99537 0.0
C507 C 0.50295 0.99946 0.98183 0.0
C508 C 0.51016 0.02207 0.98342 0.0
C509 C 0.5133 0.03189 0.99854 0.0
C510 C 0.56616 0.17851 0.99133 0.0
C511 C 0.57533 0.16827 0.00272 0.0
O512 O 0.48021 0.90333 0.9531 0.0
O513 O 0.5017 0.98428 0.08372 0.0
O514 O 0.55903 0.15537 0.01311 0.0
O515 O 0.53133 0.08025 0.90285 0.0
H516 H 0.46669 0.90047 0.93115 0.0
H517 H 0.50771 0.92469 0.92998 0.0
H518 H 0.51175 0.90261 0.93633 0.0
H519 H 0.49866 0.90094 0.91755 0.0
H520 H 0.45255 0.91812 0.9498 0.0
H521 H 0.51722 0.93343 0.96557 0.0
H522 H 0.46005 0.96775 0.94489 0.0
H523 H 0.43929 0.94295 0.95357 0.0
H524 H 0.45538 0.96738 0.96551 0.0
H525 H 0.54519 0.9696 0.9719 0.0
H526 H 0.54095 0.99172 0.96601 0.0
H527 H 0.53345 0.98077 0.98521 0.0
H528 H 0.5029 0.06765 0.88942 0.0
H529 H 0.49818 0.10055 0.89403 0.0
H530 H 0.49823 0.08766 0.91197 0.0
H531 H 0.52247 0.1126 0.90677 0.0
H532 H 0.55987 0.07606 0.91942 0.0
H533 H 0.49023 0.05129 0.91253 0.0
H534 H 0.56013 0.05963 0.95596 0.0
H535 H 0.55424 0.03469 0.94609 0.0
H536 H 0.57353 0.06071 0.93786 0.0
H537 H 0.46368 0.02629 0.92919 0.0
H538 H 0.47079 0.00632 0.93569 0.0
H539 H 0.47352 0.02736 0.94901 0.0
H540 H 0.57989 0.15813 0.99526 0.0
H541 H 0.58353 0.13605 0.01378 0.0
H542 H 0.51845 0.12689 0.01881 0.0
H543 H 0.57049 0.0851 0.00329 0.0
H544 H 0.59083 0.10695 0.0157 0.0
H545 H 0.56992 0.08176 0.02406 0.0
H546 H 0.48712 0.09204 0.02248 0.0
H547 H 0.48867 0.07208 0.00997 0.0
H548 H 0.4925 0.07165 0.03069 0.0
H549 H 0.52401 0.97346 0.08323 0.0
H550 H 0.54552 0.99594 0.10694 0.0
H551 H 0.54421 0.01296 0.09201 0.0
H552 H 0.52675 0.0065 0.10871 0.0
H553 H 0.53762 0.99962 0.06544 0.0
H554 H 0.47322 0.99235 0.07082 0.0
H555 H 0.54502 0.0134 0.02691 0.0
H556 H 0.55614 0.03948 0.03669 0.0
H557 H 0.56071 0.01862 0.04495 0.0
H558 H 0.45713 0.00443 0.05183 0.0
H559 H 0.47771 0.03043 0.04438 0.0
H560 H 0.46711 0.00631 0.03219 0.0
H561 H 0.50402 0.99585 0.94196 0.0
H562 H 0.52425 0.06761 0.96179 0.0
H563 H 0.52988 0.08418 0.9872 0.0
H564 H 0.52455 0.0595 0.03998 0.0
H565 H 0.49734 0.98605 0.02021 0.0
H566 H 0.49198 0.96944 0.99464 0.0
H567 H 0.55969 0.18789 0.99768 0.0
H568 H 0.57925 0.18959 0.98328 0.0
H569 H 0.55236 0.16541 0.9842 0.0
C570 C 0.61737 0.50467 0.09477 0.0
C571 C 0.60413 0.48167 0.10147 0.0
C572 C 0.58265 0.4883 0.12034 0.0
C573 C 0.5605 0.47463 0.11578 0.0
C574 C 0.54454 0.48058 0.1191 0.0
C575 C 0.55111 0.50085 0.12683 0.0
C576 C 0.57356 0.5146 0.1315 0.0
C577 C 0.58896 0.50785 0.12849 0.0
C578 C 0.52076 0.46534 0.11416 0.0
C579 C 0.58147 0.53666 0.13931 0.0
C580 C 0.49905 0.5826 0.04317 0.0
C581 C 0.5079 0.57972 0.05831 0.0
C582 C 0.50277 0.55097 0.0763 0.0
C583 C 0.51871 0.56516 0.08743 0.0
C584 C 0.5228 0.55707 0.10122 0.0
C585 C 0.51026 0.53442 0.10417 0.0
C586 C 0.49386 0.52018 0.09317 0.0
C587 C 0.49048 0.52865 0.07931 0.0
C588 C 0.54079 0.57269 0.1125 0.0
C589 C 0.48009 0.49596 0.09598 0.0
C590 C 0.46053 0.57464 0.19028 0.0
C591 C 0.48331 0.58352 0.18891 0.0
C592 C 0.49237 0.57037 0.18491 0.0
C593 C 0.47817 0.54767 0.18221 0.0
C594 C 0.455 0.53859 0.18312 0.0
C595 C 0.44635 0.55221 0.18703 0.0
C596 C 0.51715 0.58073 0.18377 0.0
C597 C 0.43946 0.5145 0.18007 0.0
C598 C 0.53868 0.45361 0.22978 0.0
C599 C 0.52882 0.46105 0.24281 0.0
C600 C 0.52518 0.48934 0.22871 0.0
C601 C 0.53643 0.51164 0.22555 0.0
C602 C 0.5298 0.51992 0.21306 0.0
C603 C 0.51107 0.50551 0.20373 0.0
C604 C 0.4989 0.48306 0.20736 0.0
C605 C 0.50617 0.47515 0.21972 0.0
C606 C 0.54309 0.544 0.20965 0.0
C607 C 0.47848 0.46734 0.19794 0.0
C608 C 0.53482 0.50821 0.12938 0.0
C609 C 0.52887 0.51645 0.1166 0.0
C610 C 0.51516 0.52546 0.11831 0.0
C611 C 0.50735 0.52665 0.13328 0.0
C612 C 0.49416 0.5363 0.13556 0.0
C613 C 0.48765 0.5385 0.15048 0.0
C614 C 0.49359 0.53061 0.16363 0.0
C615 C 0.48782 0.53351 0.1789 0.0
C616 C 0.49324 0.52472 0.19165 0.0
C617 C 0.505 0.51366 0.18965 0.0
C618 C 0.51175 0.51141 0.17453 0.0
C619 C 0.52444 0.50124 0.17217 0.0
C620 C 0.53164 0.49977 0.15735 0.0
C621 C 0.52656 0.50855 0.14433 0.0
C622 C 0.51315 0.5182 0.14633 0.0
C623 C 0.50595 0.51987 0.16148 0.0
C624 C 0.42596 0.57121 0.21473 0.0
C625 C 0.43208 0.58323 0.19914 0.0
O626 O 0.59829 0.4831 0.11669 0.0
O627 O 0.53341 0.48229 0.24036 0.0
O628 O 0.45322 0.58837 0.19492 0.0
O629 O 0.49891 0.55807 0.06253 0.0
H630 H 0.58894 0.47191 0.09407 0.0
H631 H 0.60714 0.51267 0.09453 0.0
H632 H 0.63249 0.51494 0.10208 0.0
H633 H 0.62228 0.50383 0.08259 0.0
H634 H 0.55575 0.45932 0.10967 0.0
H635 H 0.60619 0.51821 0.13195 0.0
H636 H 0.5164 0.47238 0.10411 0.0
H637 H 0.51778 0.44889 0.11057 0.0
H638 H 0.50956 0.46353 0.12386 0.0
H639 H 0.59981 0.54673 0.13981 0.0
H640 H 0.57479 0.54584 0.133 0.0
H641 H 0.57542 0.53436 0.15146 0.0
H642 H 0.52629 0.58929 0.05956 0.0
H643 H 0.51363 0.59 0.0352 0.0
H644 H 0.49072 0.56609 0.03707 0.0
H645 H 0.48199 0.59879 0.0496 0.0
H646 H 0.52828 0.58252 0.08536 0.0
H647 H 0.47817 0.51784 0.07071 0.0
H648 H 0.53333 0.57372 0.12363 0.0
H649 H 0.55232 0.56658 0.11526 0.0
H650 H 0.55044 0.58942 0.1078 0.0
H651 H 0.46636 0.48753 0.08721 0.0
H652 H 0.49078 0.48848 0.09538 0.0
H653 H 0.47305 0.49315 0.10786 0.0
H654 H 0.41999 0.57277 0.18981 0.0
H655 H 0.49407 0.60088 0.19125 0.0
H656 H 0.42862 0.54518 0.18764 0.0
H657 H 0.52141 0.57763 0.1719 0.0
H658 H 0.52588 0.59867 0.18608 0.0
H659 H 0.52333 0.5732 0.1923 0.0
H660 H 0.42181 0.51001 0.18079 0.0
H661 H 0.44235 0.50978 0.16827 0.0
H662 H 0.44287 0.5049 0.18873 0.0
H663 H 0.51061 0.44989 0.24299 0.0
H664 H 0.53539 0.43675 0.23191 0.0
H665 H 0.53113 0.45347 0.21825 0.0
H666 H 0.55685 0.46483 0.22927 0.0
H667 H 0.55091 0.5225 0.23265 0.0
H668 H 0.49698 0.45789 0.22217 0.0
H669 H 0.54793 0.54634 0.19719 0.0
H670 H 0.53274 0.55164 0.21165 0.0
H671 H 0.55826 0.55267 0.21717 0.0
H672 H 0.46923 0.45112 0.20347 0.0
H673 H 0.46729 0.47418 0.19651 0.0
H674 H 0.48333 0.46497 0.18608 0.0
H675 H 0.53541 0.51629 0.10517 0.0
H676 H 0.48909 0.54264 0.12586 0.0
H677 H 0.4779 0.54646 0.1516 0.0
H678 H 0.48881 0.52706 0.20335 0.0
H679 H 0.5292 0.4945 0.18178 0.0
H680 H 0.54144 0.49185 0.15625 0.0
H681 H 0.43828 0.58117 0.22408 0.0
H682 H 0.40935 0.56792 0.21833 0.0
H683 H 0.42539 0.55527 0.21368 0.0
Mn684 Mn 0.62015 0.39995 0.41016 0.0
Mn685 Mn 0.64856 0.4548 0.41596 0.0
C686 C 0.6064 0.41622 0.42654 0.0
C687 C 0.61371 0.36521 0.41627 0.0
C688 C 0.62065 0.43277 0.3868 0.0
O689 O 0.65066 0.40861 0.40232 0.0
O690 O 0.66865 0.44491 0.40743 0.0
C691 C 0.67876 0.45709 0.44149 0.0
N692 N 0.66313 0.46164 0.43602 0.0
C693 C 0.66464 0.4805 0.46006 0.0
C694 C 0.68087 0.47615 0.46591 0.0
C695 C 0.68791 0.46432 0.4566 0.0
C696 C 0.65616 0.47291 0.44491 0.0
H697 H 0.68421 0.448 0.43437 0.0
C698 C 0.66807 0.4274 0.40249 0.0
O699 O 0.60854 0.36927 0.40256 0.0
O700 O 0.62273 0.38136 0.42636 0.0
N701 N 0.63147 0.46678 0.4243 0.0
C702 C 0.61465 0.46832 0.41733 0.0
C703 C 0.60513 0.47896 0.42534 0.0
C704 C 0.61318 0.48814 0.44033 0.0
C705 C 0.63067 0.48657 0.4472 0.0
C706 C 0.63949 0.47576 0.43866 0.0
H707 H 0.60845 0.46137 0.40578 0.0
O708 O 0.59337 0.39695 0.4204 0.0
O709 O 0.62724 0.42531 0.42309 0.0
O710 O 0.61389 0.41315 0.39091 0.0
O711 O 0.63384 0.44951 0.39519 0.0
C712 C 0.63946 0.49496 0.46228 0.0
C713 C 0.65632 0.49181 0.46875 0.0
H714 H 0.68792 0.48165 0.47758 0.0
H715 H 0.70035 0.4608 0.46107 0.0
H716 H 0.59161 0.48008 0.41997 0.0
H717 H 0.6057 0.49622 0.44651 0.0
H718 H 0.63318 0.50365 0.46909 0.0
H719 H 0.66265 0.498 0.48047 0.0
Mn720 Mn 0.23164 0.62604 0.57003 0.0
Mn721 Mn 0.21129 0.5716 0.56665 0.0
C722 C 0.20084 0.60501 0.55405 0.0
C723 C 0.25701 0.66155 0.56277 0.0
C724 C 0.20345 0.59334 0.59472 0.0
O725 O 0.25665 0.62216 0.57887 0.0
O726 O 0.24238 0.58604 0.57454 0.0
C727 C 0.23945 0.57128 0.54118 0.0
N728 N 0.21899 0.56457 0.54695 0.0
C729 C 0.2013 0.54119 0.52441 0.0
C730 C 0.22217 0.54778 0.51822 0.0
C731 C 0.24133 0.56297 0.52662 0.0
C732 C 0.20047 0.55018 0.53889 0.0
H733 H 0.2542 0.58282 0.54767 0.0
C734 C 0.25801 0.60482 0.57922 0.0
O735 O 0.24799 0.6575 0.57641 0.0
O736 O 0.25115 0.64495 0.55328 0.0
N737 N 0.18138 0.55527 0.55912 0.0
C738 C 0.16257 0.55133 0.56645 0.0
C739 C 0.14193 0.5365 0.55961 0.0
C740 C 0.14089 0.52572 0.54545 0.0
C741 C 0.16048 0.53021 0.53804 0.0
C742 C 0.18055 0.54509 0.54542 0.0
H743 H 0.16331 0.55926 0.57751 0.0
O744 O 0.20531 0.62422 0.55917 0.0
O745 O 0.21497 0.5989 0.55807 0.0
O746 O 0.2135 0.6128 0.58967 0.0
O747 O 0.20214 0.57699 0.58718 0.0
C748 C 0.16091 0.52039 0.5237 0.0
C749 C 0.18128 0.52607 0.51678 0.0
H750 H 0.22368 0.54132 0.50703 0.0
H751 H 0.25749 0.56816 0.52192 0.0
H752 H 0.12686 0.53313 0.56536 0.0
H753 H 0.12496 0.51385 0.54048 0.0
H754 H 0.14571 0.50843 0.51791 0.0
H755 H 0.18135 0.51862 0.50564 0.0
Mn756 Mn 0.62178 0.2414 0.73374 0.0
Mn757 Mn 0.65213 0.21643 0.72999 0.0
C758 C 0.61109 0.21316 0.71571 0.0
C759 C 0.61519 0.26974 0.72783 0.0
C760 C 0.62007 0.2071 0.75615 0.0
O761 O 0.65072 0.26272 0.74465 0.0
O762 O 0.66985 0.24517 0.74124 0.0
C763 C 0.68551 0.24794 0.70854 0.0
N764 N 0.66979 0.22707 0.71181 0.0
C765 C 0.67689 0.21324 0.68803 0.0
C766 C 0.69323 0.23457 0.68444 0.0
C767 C 0.69747 0.25201 0.6947 0.0
C768 C 0.66534 0.21023 0.7019 0.0
H769 H 0.68893 0.26138 0.71644 0.0
C770 C 0.66822 0.26149 0.74624 0.0
O771 O 0.60821 0.25892 0.74066 0.0
O772 O 0.62592 0.26402 0.71839 0.0
N773 N 0.63772 0.18866 0.71919 0.0
C774 C 0.62087 0.16919 0.72406 0.0
C775 C 0.61414 0.15017 0.71487 0.0
C776 C 0.62515 0.15126 0.70098 0.0
C777 C 0.64274 0.1714 0.69637 0.0
C778 C 0.64851 0.18985 0.70589 0.0
H779 H 0.61258 0.16821 0.73483 0.0
O780 O 0.59691 0.21848 0.72075 0.0
O781 O 0.63131 0.2248 0.72114 0.0
O782 O 0.61386 0.22051 0.75203 0.0
O783 O 0.63413 0.20405 0.74878 0.0
C784 C 0.65474 0.17392 0.68267 0.0
C785 C 0.67161 0.19486 0.6784 0.0
H786 H 0.70258 0.23776 0.67383 0.0
H787 H 0.71001 0.26853 0.69199 0.0
H788 H 0.6006 0.13468 0.71854 0.0
H789 H 0.61995 0.13656 0.69394 0.0
H790 H 0.65098 0.1599 0.67523 0.0
H791 H 0.68042 0.19663 0.66768 0.0
Mn792 Mn 0.41225 0.63686 0.90685 0.0
Mn793 Mn 0.38607 0.58262 0.91322 0.0
C794 C 0.42717 0.62288 0.92428 0.0
C795 C 0.41718 0.67139 0.91228 0.0
C796 C 0.41205 0.60311 0.88402 0.0
O797 O 0.38116 0.62619 0.89834 0.0
O798 O 0.36443 0.59049 0.90448 0.0
C799 C 0.3568 0.58072 0.93862 0.0
N800 N 0.373 0.57702 0.93337 0.0
C801 C 0.3756 0.56257 0.95816 0.0
C802 C 0.35884 0.56609 0.9638 0.0
C803 C 0.34943 0.57523 0.95399 0.0
C804 C 0.38218 0.56824 0.94271 0.0
H805 H 0.34961 0.58786 0.93115 0.0
C806 C 0.36414 0.60714 0.89892 0.0
O807 O 0.42239 0.66663 0.89885 0.0
O808 O 0.40901 0.65605 0.92252 0.0
N809 N 0.40513 0.57298 0.92184 0.0
C810 C 0.42188 0.57165 0.91486 0.0
C811 C 0.43341 0.56335 0.92324 0.0
C812 C 0.42757 0.55642 0.93866 0.0
C813 C 0.41016 0.55777 0.94555 0.0
C814 C 0.39913 0.566 0.93657 0.0
H815 H 0.42648 0.57701 0.90303 0.0
O816 O 0.4397 0.64176 0.91808 0.0
O817 O 0.40641 0.6129 0.92006 0.0
O818 O 0.41882 0.62292 0.88813 0.0
O819 O 0.39939 0.5868 0.89235 0.0
C820 C 0.40355 0.5516 0.96104 0.0
C821 C 0.38632 0.55405 0.96735 0.0
H822 H 0.35319 0.562 0.97568 0.0
H823 H 0.33656 0.5781 0.95829 0.0
H824 H 0.44685 0.56238 0.91785 0.0
H825 H 0.43665 0.55023 0.94514 0.0
H826 H 0.41178 0.54519 0.96826 0.0
H827 H 0.3816 0.54953 0.97935 0.0
Mn828 Mn 0.79075 0.40414 0.07449 0.0
Mn829 Mn 0.81667 0.37547 0.08136 0.0
C830 C 0.81958 0.41736 0.09246 0.0
C831 C 0.76182 0.41064 0.0793 0.0
C832 C 0.82412 0.4027 0.05249 0.0
O833 O 0.7695 0.3741 0.06542 0.0
O834 O 0.7866 0.35536 0.07208 0.0
C835 C 0.78832 0.34648 0.10614 0.0
N836 N 0.80862 0.36193 0.10126 0.0
C837 C 0.82553 0.36227 0.12606 0.0
C838 C 0.80482 0.34625 0.13132 0.0
C839 C 0.78613 0.33835 0.12132 0.0
C840 C 0.82673 0.36961 0.11076 0.0
H841 H 0.77389 0.34043 0.09851 0.0
C842 C 0.7702 0.35644 0.06613 0.0
O843 O 0.77208 0.41577 0.06611 0.0
O844 O 0.76832 0.40164 0.08965 0.0
N845 N 0.84569 0.39289 0.09048 0.0
C846 C 0.86412 0.40947 0.08402 0.0
C847 C 0.88407 0.4198 0.09275 0.0
C848 C 0.8849 0.41294 0.10797 0.0
C849 C 0.86576 0.39576 0.11433 0.0
C850 C 0.84638 0.38598 0.10504 0.0
H851 H 0.86358 0.41489 0.07236 0.0
O852 O 0.81385 0.43046 0.08611 0.0
O853 O 0.80807 0.39682 0.08818 0.0
O854 O 0.81157 0.41024 0.05626 0.0
O855 O 0.82662 0.38916 0.06081 0.0
C856 C 0.86504 0.38828 0.12963 0.0
C857 C 0.84494 0.37158 0.1355 0.0
H858 H 0.80303 0.34005 0.14306 0.0
H859 H 0.77007 0.32606 0.12532 0.0
H860 H 0.89875 0.43309 0.08777 0.0
H861 H 0.90027 0.4211 0.11473 0.0
H862 H 0.87978 0.39548 0.13707 0.0
H863 H 0.84453 0.36622 0.14738 0.0
Mn864 Mn 0.39861 0.80148 0.24164 0.0
Mn865 Mn 0.45371 0.82672 0.24812 0.0
C866 C 0.41525 0.8313 0.25854 0.0
C867 C 0.36344 0.77315 0.24718 0.0
C868 C 0.43232 0.83152 0.21843 0.0
O869 O 0.40728 0.77983 0.23325 0.0
O870 O 0.44302 0.79591 0.24117 0.0
C871 C 0.45568 0.80217 0.27531 0.0
N872 N 0.46036 0.8215 0.26882 0.0
C873 C 0.47862 0.84149 0.29255 0.0
C874 C 0.47411 0.82181 0.29946 0.0
C875 C 0.46256 0.80207 0.29081 0.0
C876 C 0.47147 0.84059 0.27704 0.0
H877 H 0.44675 0.78696 0.26871 0.0
C878 C 0.42545 0.77983 0.23501 0.0
O879 O 0.36776 0.78248 0.23368 0.0
O880 O 0.37954 0.78029 0.25745 0.0
N881 N 0.46597 0.85654 0.25504 0.0
C882 C 0.4677 0.87387 0.24701 0.0
C883 C 0.47813 0.89474 0.25421 0.0
C884 C 0.48679 0.89759 0.26954 0.0
C885 C 0.48497 0.87955 0.27752 0.0
C886 C 0.47449 0.85917 0.26972 0.0
H887 H 0.46109 0.87181 0.23522 0.0
O888 O 0.39581 0.82515 0.25247 0.0
O889 O 0.42406 0.81947 0.25478 0.0
O890 O 0.41238 0.82096 0.22287 0.0
O891 O 0.44876 0.83361 0.22658 0.0
C892 C 0.49279 0.88092 0.29301 0.0
C893 C 0.48955 0.8619 0.30054 0.0
H894 H 0.47927 0.82165 0.31145 0.0
H895 H 0.45892 0.7868 0.29609 0.0
H896 H 0.47944 0.90857 0.24798 0.0
H897 H 0.49468 0.91368 0.2751 0.0
H898 H 0.50106 0.89649 0.29931 0.0
H899 H 0.49529 0.86312 0.31255 0.0
H900 H 0.17087 0.60355 0.25088 0.0
H901 H 0.20942 0.63207 0.24834 0.0
H902 H 0.20469 0.66478 0.28989 0.0
H903 H 0.16574 0.63725 0.29176 0.0
H904 H 0.22519 0.6936 0.27055 0.0
H905 H 0.23463 0.63535 0.28816 0.0
H906 H 0.22928 0.59812 0.28912 0.0
H907 H 0.2551 0.60485 0.24294 0.0
H908 H 0.26032 0.64202 0.2416 0.0
H909 H 0.34591 0.75926 0.27592 0.0
H910 H 0.30871 0.72938 0.28172 0.0
H911 H 0.29398 0.7159 0.23235 0.0
H912 H 0.33089 0.74616 0.22641 0.0
H913 H 0.28517 0.67797 0.25795 0.0
H914 H 0.27102 0.73702 0.24165 0.0
H915 H 0.27848 0.775 0.244 0.0
H916 H 0.26392 0.76648 0.29292 0.0
H917 H 0.25669 0.72853 0.29088 0.0
C918 C 0.17814 0.61678 0.25952 0.0
C919 C 0.16525 0.61794 0.27158 0.0
C920 C 0.20025 0.63299 0.25816 0.0
C921 C 0.21022 0.65044 0.26911 0.0
C922 C 0.19746 0.65149 0.28131 0.0
C923 C 0.17516 0.63558 0.28244 0.0
C924 C 0.23354 0.6682 0.2673 0.0
C925 C 0.23826 0.69003 0.26804 0.0
C926 C 0.25083 0.6638 0.264 0.0
C927 C 0.24769 0.64142 0.26473 0.0
C928 C 0.23901 0.62883 0.27815 0.0
C929 C 0.23603 0.60775 0.27878 0.0
C930 C 0.2418 0.59911 0.26608 0.0
C931 C 0.25061 0.61156 0.25275 0.0
C932 C 0.25361 0.63265 0.25206 0.0
C933 C 0.33473 0.74992 0.26631 0.0
C934 C 0.3412 0.75504 0.25071 0.0
C935 C 0.31356 0.73291 0.26965 0.0
C936 C 0.29877 0.72055 0.25745 0.0
C937 C 0.30529 0.72533 0.24188 0.0
C938 C 0.32627 0.74264 0.23852 0.0
C939 C 0.27628 0.70285 0.26092 0.0
C940 C 0.27189 0.68121 0.26055 0.0
C941 C 0.25946 0.70738 0.265 0.0
C942 C 0.26359 0.73008 0.26616 0.0
C943 C 0.26963 0.74333 0.25294 0.0
C944 C 0.27377 0.76483 0.2542 0.0
C945 C 0.27175 0.77318 0.26861 0.0
C946 C 0.26552 0.76001 0.28177 0.0
C947 C 0.26139 0.73851 0.28057 0.0
H948 H 0.27496 0.78982 0.26957 0.0
H949 H 0.23948 0.58278 0.26659 0.0
H950 H 0.59131 0.1729 0.43622 0.0
H951 H 0.59072 0.20469 0.42589 0.0
H952 H 0.59112 0.22775 0.47298 0.0
H953 H 0.59041 0.19528 0.48332 0.0
H954 H 0.56578 0.23602 0.45586 0.0
H955 H 0.6392 0.24704 0.44996 0.0
H956 H 0.66707 0.23788 0.44093 0.0
H957 H 0.64737 0.23819 0.39316 0.0
H958 H 0.61917 0.24707 0.40193 0.0
H959 H 0.61558 0.35039 0.44522 0.0
H960 H 0.6084 0.3139 0.45201 0.0
H961 H 0.59514 0.29369 0.40338 0.0
H962 H 0.60212 0.3302 0.39647 0.0
H963 H 0.6243 0.28254 0.41893 0.0
H964 H 0.55304 0.27568 0.42599 0.0
H965 H 0.52718 0.28684 0.43614 0.0
H966 H 0.54523 0.28085 0.48327 0.0
H967 H 0.57146 0.26996 0.4734 0.0
C968 C 0.5908 0.18448 0.44438 0.0
C969 C 0.59065 0.18145 0.46063 0.0
C970 C 0.59072 0.20282 0.43845 0.0
C971 C 0.59129 0.21889 0.44864 0.0
C972 C 0.59065 0.21562 0.46485 0.0
C973 C 0.59029 0.1971 0.47076 0.0
C974 C 0.59335 0.23948 0.44257 0.0
C975 C 0.5787 0.24624 0.44788 0.0
C976 C 0.60992 0.25271 0.4319 0.0
C977 C 0.62692 0.24747 0.42661 0.0
C978 C 0.64072 0.245 0.43754 0.0
C979 C 0.65658 0.23988 0.43246 0.0
C980 C 0.65895 0.23739 0.41648 0.0
C981 C 0.64549 0.24008 0.40554 0.0
C982 C 0.62957 0.24516 0.41055 0.0
C983 C 0.61111 0.33819 0.43596 0.0
C984 C 0.60939 0.34314 0.42031 0.0
C985 C 0.60692 0.31733 0.43987 0.0
C986 C 0.60107 0.30109 0.42821 0.0
C987 C 0.59957 0.30602 0.41255 0.0
C988 C 0.60351 0.32684 0.40864 0.0
C989 C 0.59698 0.2791 0.43243 0.0
C990 C 0.61126 0.27214 0.42678 0.0
C991 C 0.58031 0.26587 0.44297 0.0
C992 C 0.56435 0.27217 0.44894 0.0
C993 C 0.55162 0.27689 0.43852 0.0
C994 C 0.53687 0.28315 0.44422 0.0
C995 C 0.5346 0.2846 0.46034 0.0
C996 C 0.54702 0.27973 0.47079 0.0
C997 C 0.56181 0.27349 0.46514 0.0
H998 H 0.52319 0.28946 0.46474 0.0
H999 H 0.67124 0.23343 0.41258 0.0
H1000 H 0.45095 0.63593 0.62353 0.0
H1001 H 0.41992 0.63807 0.61169 0.0
H1002 H 0.37493 0.57216 0.62576 0.0
H1003 H 0.40574 0.57013 0.63804 0.0
H1004 H 0.3688 0.58262 0.5938 0.0
H1005 H 0.3768 0.60957 0.64734 0.0
H1006 H 0.39772 0.63372 0.66979 0.0
H1007 H 0.41148 0.69009 0.64307 0.0
H1008 H 0.39091 0.66625 0.62035 0.0
H1009 H 0.26372 0.57133 0.58894 0.0
H1010 H 0.29778 0.57301 0.59787 0.0
H1011 H 0.33351 0.64284 0.59158 0.0
H1012 H 0.29913 0.6414 0.58302 0.0
H1013 H 0.34694 0.63326 0.61773 0.0
H1014 H 0.33687 0.60744 0.56495 0.0
H1015 H 0.31656 0.58421 0.54198 0.0
H1016 H 0.30818 0.52742 0.56575 0.0
H1017 H 0.32814 0.55026 0.58899 0.0
C1018 C 0.43443 0.62195 0.62417 0.0
C1019 C 0.43067 0.60306 0.63208 0.0
C1020 C 0.41678 0.62316 0.61735 0.0
C1021 C 0.39517 0.60535 0.61802 0.0
C1022 C 0.39151 0.58609 0.62519 0.0
C1023 C 0.40909 0.585 0.63224 0.0
C1024 C 0.37621 0.60703 0.61181 0.0
C1025 C 0.36387 0.59355 0.59907 0.0
C1026 C 0.37032 0.62182 0.61841 0.0
C1027 C 0.38256 0.63615 0.63209 0.0
C1028 C 0.38447 0.62712 0.6462 0.0
C1029 C 0.39623 0.64075 0.65898 0.0
C1030 C 0.40599 0.66343 0.65784 0.0
C1031 C 0.40395 0.67252 0.64392 0.0
C1032 C 0.39224 0.65896 0.63109 0.0
C1033 C 0.27879 0.58709 0.58944 0.0
C1034 C 0.27873 0.60622 0.58514 0.0
C1035 C 0.29831 0.588 0.59449 0.0
C1036 C 0.31832 0.60797 0.59505 0.0
C1037 C 0.31828 0.62722 0.59114 0.0
C1038 C 0.29863 0.62637 0.58625 0.0
C1039 C 0.33916 0.60856 0.5998 0.0
C1040 C 0.35192 0.62247 0.61229 0.0
C1041 C 0.34561 0.59435 0.59281 0.0
C1042 C 0.33388 0.58056 0.57876 0.0
C1043 C 0.33059 0.58998 0.56532 0.0
C1044 C 0.31914 0.57688 0.55225 0.0
C1045 C 0.31105 0.55435 0.55241 0.0
C1046 C 0.31445 0.54488 0.56565 0.0
C1047 C 0.32585 0.5579 0.57877 0.0
H1048 H 0.30218 0.54424 0.54228 0.0
H1049 H 0.41508 0.67396 0.66775 0.0
H1050 H 0.8534 0.40877 0.80931 0.0
H1051 H 0.8211 0.37643 0.79776 0.0
H1052 H 0.79568 0.41704 0.78082 0.0
H1053 H 0.82829 0.44955 0.79187 0.0
H1054 H 0.7653 0.37876 0.79913 0.0
H1055 H 0.81399 0.39923 0.75524 0.0
H1056 H 0.84885 0.40869 0.74219 0.0
H1057 H 0.84094 0.34617 0.75368 0.0
H1058 H 0.80618 0.33645 0.76703 0.0
H1059 H 0.67515 0.30265 0.75204 0.0
H1060 H 0.70855 0.33434 0.76258 0.0
H1061 H 0.73967 0.29506 0.76762 0.0
H1062 H 0.70648 0.26334 0.75658 0.0
H1063 H 0.76774 0.33251 0.75589 0.0
H1064 H 0.72024 0.31117 0.79966 0.0
H1065 H 0.68599 0.30071 0.8139 0.0
H1066 H 0.69221 0.36314 0.80453 0.0
H1067 H 0.72638 0.37388 0.79006 0.0
C1068 C 0.84098 0.41081 0.80304 0.0
C1069 C 0.84311 0.43162 0.8018 0.0
C1070 C 0.8226 0.39236 0.79645 0.0
C1071 C 0.806 0.39441 0.78858 0.0
C1072 C 0.80828 0.41518 0.78699 0.0
C1073 C 0.82684 0.43368 0.79334 0.0
C1074 C 0.78589 0.37476 0.78245 0.0
C1075 C 0.76571 0.36876 0.78953 0.0
C1076 C 0.78673 0.36141 0.77033 0.0
C1077 C 0.80761 0.36722 0.7623 0.0
C1078 C 0.8198 0.38758 0.75513 0.0
C1079 C 0.83952 0.39298 0.74765 0.0
C1080 C 0.84715 0.37807 0.74715 0.0
C1081 C 0.83503 0.35771 0.7541 0.0
C1082 C 0.81531 0.35225 0.76162 0.0
C1083 C 0.689 0.30065 0.75551 0.0
C1084 C 0.68806 0.28039 0.75353 0.0
C1085 C 0.70811 0.31882 0.76158 0.0
C1086 C 0.72655 0.31705 0.76611 0.0
C1087 C 0.72565 0.29683 0.76422 0.0
C1088 C 0.70662 0.27868 0.75796 0.0
C1089 C 0.74692 0.33644 0.77249 0.0
C1090 C 0.76722 0.34241 0.7655 0.0
C1091 C 0.74626 0.34959 0.78489 0.0
C1092 C 0.72577 0.34325 0.79365 0.0
C1093 C 0.71422 0.32261 0.80054 0.0
C1094 C 0.69484 0.31664 0.80867 0.0
C1095 C 0.6869 0.33123 0.81009 0.0
C1096 C 0.69837 0.35185 0.80341 0.0
C1097 C 0.71776 0.3579 0.79526 0.0
H1098 H 0.67188 0.32658 0.81638 0.0
H1099 H 0.86241 0.38227 0.74134 0.0
H1100 H 0.47401 0.86708 0.96103 0.0
H1101 H 0.45967 0.82783 0.95834 0.0
H1102 H 0.44549 0.83008 0.9093 0.0
H1103 H 0.4584 0.86915 0.91222 0.0
H1104 H 0.4148 0.79413 0.91969 0.0
H1105 H 0.4941 0.83098 0.92388 0.0
H1106 H 0.53089 0.85535 0.93592 0.0
H1107 H 0.51273 0.81554 0.97668 0.0
H1108 H 0.4757 0.79109 0.96496 0.0
H1109 H 0.42435 0.70332 0.89163 0.0
H1110 H 0.43097 0.74016 0.89765 0.0
H1111 H 0.425 0.72619 0.94689 0.0
H1112 H 0.41799 0.68917 0.94096 0.0
H1113 H 0.46396 0.76657 0.93801 0.0
H1114 H 0.3847 0.72764 0.93094 0.0
H1115 H 0.34983 0.70317 0.91658 0.0
H1116 H 0.37053 0.7474 0.87825 0.0
H1117 H 0.4057 0.77197 0.89229 0.0
C1118 C 0.46742 0.85919 0.94974 0.0
C1119 C 0.46724 0.87126 0.93681 0.0
C1120 C 0.45943 0.83672 0.94818 0.0
C1121 C 0.45194 0.82601 0.93353 0.0
C1122 C 0.45119 0.83791 0.92073 0.0
C1123 C 0.45864 0.86025 0.92238 0.0
C1124 C 0.44578 0.80268 0.93134 0.0
C1125 C 0.42567 0.7882 0.9236 0.0
C1126 C 0.45978 0.79474 0.93658 0.0
C1127 C 0.48206 0.80936 0.94362 0.0
C1128 C 0.4979 0.82751 0.93546 0.0
C1129 C 0.5188 0.84133 0.94222 0.0
C1130 C 0.52412 0.83703 0.95708 0.0
C1131 C 0.50857 0.81887 0.96519 0.0
C1132 C 0.48763 0.80503 0.95849 0.0
C1133 C 0.42435 0.70806 0.90373 0.0
C1134 C 0.42066 0.69341 0.91583 0.0
C1135 C 0.42805 0.72905 0.90714 0.0
C1136 C 0.42836 0.73578 0.9227 0.0
C1137 C 0.42475 0.72122 0.93481 0.0
C1138 C 0.4207 0.70011 0.9314 0.0
C1139 C 0.4332 0.7583 0.92631 0.0
C1140 C 0.45307 0.77257 0.93427 0.0
C1141 C 0.41925 0.76612 0.92096 0.0
C1142 C 0.39793 0.75156 0.91262 0.0
C1143 C 0.38189 0.73207 0.91941 0.0
C1144 C 0.36206 0.7182 0.91133 0.0
C1145 C 0.35799 0.7237 0.89649 0.0
C1146 C 0.37372 0.74314 0.88974 0.0
C1147 C 0.39359 0.75707 0.89776 0.0
H1148 H 0.34264 0.71291 0.89025 0.0
H1149 H 0.54031 0.84774 0.96229 0.0
H1150 H 0.61157 0.46272 0.07615 0.0
H1151 H 0.63627 0.44772 0.07405 0.0
H1152 H 0.65214 0.46021 0.12345 0.0
H1153 H 0.62863 0.47657 0.12535 0.0
H1154 H 0.68764 0.47199 0.10959 0.0
H1155 H 0.61824 0.40649 0.10644 0.0
H1156 H 0.57998 0.38097 0.09737 0.0
H1157 H 0.60274 0.38077 0.05097 0.0
H1158 H 0.64112 0.40653 0.05971 0.0
H1159 H 0.74396 0.41044 0.10754 0.0
H1160 H 0.71494 0.41934 0.11295 0.0
H1161 H 0.70964 0.4295 0.06381 0.0
H1162 H 0.73886 0.42094 0.0583 0.0
H1163 H 0.6677 0.40346 0.07996 0.0
H1164 H 0.73788 0.47221 0.08501 0.0
H1165 H 0.77551 0.4952 0.09622 0.0
H1166 H 0.7492 0.4855 0.14243 0.0
H1167 H 0.71142 0.46218 0.13148 0.0
C1168 C 0.62016 0.46201 0.08658 0.0
C1169 C 0.6178 0.47046 0.10094 0.0
C1170 C 0.63416 0.45329 0.08541 0.0
C1171 C 0.64575 0.45233 0.09867 0.0
C1172 C 0.6433 0.46062 0.11307 0.0
C1173 C 0.62967 0.46981 0.11417 0.0
C1174 C 0.66139 0.4439 0.09725 0.0
C1175 C 0.68304 0.45677 0.10336 0.0
C1176 C 0.65562 0.4241 0.08905 0.0
C1177 C 0.63255 0.40859 0.08372 0.0
C1178 C 0.61507 0.40113 0.09428 0.0
C1179 C 0.59337 0.3866 0.0892 0.0
C1180 C 0.58893 0.37929 0.0736 0.0
C1181 C 0.6062 0.38646 0.06305 0.0
C1182 C 0.62794 0.401 0.06807 0.0
C1183 C 0.73653 0.41446 0.09787 0.0
C1184 C 0.74373 0.41511 0.0825 0.0
C1185 C 0.71999 0.41953 0.10099 0.0
C1186 C 0.71026 0.4251 0.08877 0.0
C1187 C 0.71697 0.42519 0.07337 0.0
C1188 C 0.73372 0.42041 0.07026 0.0
C1189 C 0.69368 0.43172 0.09207 0.0
C1190 C 0.67198 0.41851 0.08632 0.0
C1191 C 0.69922 0.45088 0.10093 0.0
C1192 C 0.72187 0.46528 0.10744 0.0
C1193 C 0.74014 0.47486 0.09757 0.0
C1194 C 0.76149 0.48797 0.10387 0.0
C1195 C 0.76475 0.49175 0.12003 0.0
C1196 C 0.74665 0.48252 0.12991 0.0
C1197 C 0.72527 0.46938 0.12367 0.0
H1198 H 0.78129 0.50187 0.12489 0.0
H1199 H 0.57211 0.36804 0.06969 0.0
H1200 H 0.43366 0.84416 0.54834 0.0
H1201 H 0.40236 0.80709 0.5503 0.0
H1202 H 0.35942 0.82761 0.5291 0.0
H1203 H 0.3903 0.86501 0.5282 0.0
H1204 H 0.33872 0.8031 0.5509 0.0
H1205 H 0.37843 0.79487 0.50914 0.0
H1206 H 0.41072 0.79798 0.49543 0.0
H1207 H 0.41775 0.75784 0.52975 0.0
H1208 H 0.38568 0.75472 0.54379 0.0
H1209 H 0.27523 0.67572 0.53413 0.0
H1210 H 0.30324 0.71285 0.52716 0.0
H1211 H 0.30509 0.73494 0.57476 0.0
H1212 H 0.27667 0.69811 0.58164 0.0
H1213 H 0.34391 0.73775 0.53584 0.0
H1214 H 0.31718 0.78706 0.57657 0.0
H1215 H 0.28279 0.78391 0.58668 0.0
H1216 H 0.24589 0.74172 0.54774 0.0
H1217 H 0.28008 0.74487 0.53728 0.0
C1218 C 0.41753 0.84072 0.54406 0.0
C1219 C 0.41462 0.85753 0.53797 0.0
C1220 C 0.39966 0.81945 0.54504 0.0
C1221 C 0.37852 0.81431 0.53953 0.0
C1222 C 0.37555 0.83107 0.53338 0.0
C1223 C 0.39332 0.85248 0.53275 0.0
C1224 C 0.35938 0.79169 0.54079 0.0
C1225 C 0.33987 0.78885 0.54751 0.0
C1226 C 0.3605 0.77297 0.53603 0.0
C1227 C 0.37973 0.77469 0.52757 0.0
C1228 C 0.38694 0.78681 0.51382 0.0
C1229 C 0.40519 0.78856 0.50598 0.0
C1230 C 0.4163 0.77814 0.51173 0.0
C1231 C 0.40914 0.76591 0.52531 0.0
C1232 C 0.3909 0.76412 0.5332 0.0
C1233 C 0.28151 0.68855 0.54307 0.0
C1234 C 0.27366 0.68402 0.55841 0.0
C1235 C 0.29756 0.70975 0.53908 0.0
C1236 C 0.30612 0.7268 0.55037 0.0
C1237 C 0.29841 0.72222 0.56574 0.0
C1238 C 0.28222 0.7011 0.56969 0.0
C1239 C 0.32356 0.74925 0.54627 0.0
C1240 C 0.34273 0.75204 0.53906 0.0
C1241 C 0.32183 0.76792 0.55004 0.0
C1242 C 0.30119 0.76605 0.55623 0.0
C1243 C 0.30175 0.77718 0.57013 0.0
C1244 C 0.28228 0.77538 0.57593 0.0
C1245 C 0.26216 0.76257 0.56789 0.0
C1246 C 0.26147 0.75157 0.554 0.0
C1247 C 0.28088 0.75333 0.54814 0.0
H1248 H 0.24711 0.76119 0.5724 0.0
H1249 H 0.43043 0.77953 0.50565 0.0
H1250 H 0.6181 0.4464 0.68725 0.0
H1251 H 0.62201 0.41422 0.69148 0.0
H1252 H 0.56385 0.38617 0.71981 0.0
H1253 H 0.55994 0.41836 0.71568 0.0
H1254 H 0.59829 0.38414 0.73367 0.0
H1255 H 0.56126 0.36667 0.68314 0.0
H1256 H 0.55638 0.37352 0.65555 0.0
H1257 H 0.6187 0.37876 0.64463 0.0
H1258 H 0.62409 0.37223 0.67221 0.0
H1259 H 0.58506 0.27873 0.74079 0.0
H1260 H 0.57927 0.30938 0.73519 0.0
H1261 H 0.63183 0.33334 0.70184 0.0
H1262 H 0.63694 0.30211 0.70689 0.0
H1263 H 0.60001 0.33758 0.69038 0.0
H1264 H 0.63829 0.35621 0.74014 0.0
H1265 H 0.64486 0.3506 0.76767 0.0
H1266 H 0.58288 0.345 0.78013 0.0
H1267 H 0.5758 0.3503 0.75262 0.0
C1268 C 0.606 0.43323 0.69421 0.0
C1269 C 0.58849 0.43469 0.70091 0.0
C1270 C 0.60824 0.41488 0.69661 0.0
C1271 C 0.59307 0.39771 0.70582 0.0
C1272 C 0.57567 0.3992 0.71262 0.0
C1273 C 0.57338 0.4175 0.71018 0.0
C1274 C 0.59569 0.37846 0.70873 0.0
C1275 C 0.59836 0.37376 0.72423 0.0
C1276 C 0.59646 0.36536 0.69637 0.0
C1277 C 0.59317 0.36916 0.67977 0.0
C1278 C 0.574 0.36945 0.67488 0.0
C1279 C 0.57113 0.37324 0.65924 0.0
C1280 C 0.58724 0.37663 0.64835 0.0
C1281 C 0.60624 0.37616 0.65308 0.0
C1282 C 0.6092 0.37239 0.66871 0.0
C1283 C 0.59534 0.29052 0.73225 0.0
C1284 C 0.6115 0.2881 0.72431 0.0
C1285 C 0.59212 0.30812 0.72912 0.0
C1286 C 0.60541 0.32396 0.71831 0.0
C1287 C 0.62138 0.32138 0.71024 0.0
C1288 C 0.62432 0.30355 0.71315 0.0
C1289 C 0.60263 0.34318 0.71537 0.0
C1290 C 0.59994 0.34792 0.69985 0.0
C1291 C 0.60214 0.35651 0.72772 0.0
C1292 C 0.60642 0.35345 0.74429 0.0
C1293 C 0.62599 0.35364 0.74873 0.0
C1294 C 0.62982 0.35054 0.76434 0.0
C1295 C 0.61427 0.34739 0.77564 0.0
C1296 C 0.59489 0.34741 0.77136 0.0
C1297 C 0.59097 0.35049 0.75577 0.0
H1298 H 0.61726 0.34499 0.78771 0.0
H1299 H 0.58499 0.37957 0.63625 0.0
H1300 H 0.15922 0.54425 0.86665 0.0
H1301 H 0.19669 0.54999 0.86797 0.0
H1302 H 0.22185 0.61745 0.88197 0.0
H1303 H 0.18447 0.61208 0.87979 0.0
H1304 H 0.24948 0.61525 0.86293 0.0
H1305 H 0.21128 0.57567 0.9087 0.0
H1306 H 0.1813 0.54526 0.92282 0.0
H1307 H 0.19597 0.49968 0.89987 0.0
H1308 H 0.22587 0.5298 0.88546 0.0
H1309 H 0.35114 0.63771 0.8989 0.0
H1310 H 0.31456 0.63211 0.89217 0.0
H1311 H 0.29218 0.56467 0.87963 0.0
H1312 H 0.32846 0.56994 0.88716 0.0
H1313 H 0.26306 0.56615 0.89648 0.0
H1314 H 0.30297 0.60679 0.85156 0.0
H1315 H 0.33345 0.63785 0.83826 0.0
H1316 H 0.31624 0.68209 0.86039 0.0
H1317 H 0.28577 0.65132 0.87392 0.0
C1318 C 0.17276 0.56043 0.86969 0.0
C1319 C 0.16893 0.57786 0.87289 0.0
C1320 C 0.19418 0.56363 0.87061 0.0
C1321 C 0.21209 0.58407 0.87531 0.0
C1322 C 0.20834 0.60154 0.87828 0.0
C1323 C 0.187 0.59847 0.87707 0.0
C1324 C 0.2346 0.58714 0.87768 0.0
C1325 C 0.25249 0.60461 0.87036 0.0
C1326 C 0.23851 0.57304 0.88714 0.0
C1327 C 0.22066 0.55496 0.8959 0.0
C1328 C 0.20802 0.55915 0.9066 0.0
C1329 C 0.19105 0.54196 0.91466 0.0
C1330 C 0.1867 0.52055 0.91221 0.0
C1331 C 0.19934 0.51627 0.90174 0.0
C1332 C 0.21631 0.53339 0.89363 0.0
C1333 C 0.33848 0.62176 0.89453 0.0
C1334 C 0.34263 0.60425 0.89354 0.0
C1335 C 0.31758 0.6186 0.89059 0.0
C1336 C 0.30063 0.59804 0.88512 0.0
C1337 C 0.30496 0.58068 0.88381 0.0
C1338 C 0.3257 0.5837 0.88809 0.0
C1339 C 0.27803 0.59425 0.8817 0.0
C1340 C 0.26009 0.57666 0.88889 0.0
C1341 C 0.27412 0.60831 0.87218 0.0
C1342 C 0.29217 0.62676 0.86381 0.0
C1343 C 0.30574 0.62315 0.85362 0.0
C1344 C 0.323 0.6407 0.84604 0.0
C1345 C 0.32679 0.66193 0.84849 0.0
C1346 C 0.31327 0.66564 0.85849 0.0
C1347 C 0.29597 0.64814 0.86609 0.0
H1348 H 0.34019 0.6755 0.84264 0.0
H1349 H 0.17355 0.50727 0.91846 0.0
H1350 H 0.57888 0.20124 0.02231 0.0
H1351 H 0.6126 0.23159 0.03423 0.0
H1352 H 0.65083 0.20412 0.01578 0.0
H1353 H 0.61731 0.17414 0.00332 0.0
H1354 H 0.6599 0.22237 0.05002 0.0
H1355 H 0.65475 0.23962 0.99566 0.0
H1356 H 0.63477 0.24331 0.97296 0.0
H1357 H 0.62467 0.29005 0.99878 0.0
H1358 H 0.64428 0.28634 0.02173 0.0
H1359 H 0.76695 0.3168 0.05927 0.0
H1360 H 0.73426 0.28338 0.04948 0.0
H1361 H 0.69634 0.31641 0.05043 0.0
H1362 H 0.72895 0.34991 0.05965 0.0
H1363 H 0.68719 0.29407 0.02479 0.0
H1364 H 0.69162 0.27884 0.07861 0.0
H1365 H 0.70922 0.27523 0.10272 0.0
H1366 H 0.7181 0.22543 0.08036 0.0
H1367 H 0.70084 0.22897 0.05602 0.0
C1368 C 0.59446 0.20167 0.02082 0.0
C1369 C 0.59558 0.18564 0.01157 0.0
C1370 C 0.61363 0.21888 0.02771 0.0
C1371 C 0.63411 0.22006 0.02577 0.0
C1372 C 0.63512 0.20341 0.01738 0.0
C1373 C 0.61601 0.1864 0.01022 0.0
C1374 C 0.65465 0.23962 0.03141 0.0
C1375 C 0.66613 0.23803 0.04444 0.0
C1376 C 0.66227 0.26004 0.02431 0.0
C1377 C 0.65076 0.26252 0.01046 0.0
C1378 C 0.64809 0.25053 0.99654 0.0
C1379 C 0.63687 0.25265 0.98362 0.0
C1380 C 0.6284 0.26686 0.98444 0.0
C1381 C 0.63121 0.27903 0.99817 0.0
C1382 C 0.64238 0.27693 0.01113 0.0
C1383 C 0.75164 0.31693 0.05737 0.0
C1384 C 0.7506 0.33606 0.0602 0.0
C1385 C 0.73293 0.29778 0.05186 0.0
C1386 C 0.71274 0.29728 0.04938 0.0
C1387 C 0.71172 0.31638 0.0522 0.0
C1388 C 0.73042 0.33555 0.05749 0.0
C1389 C 0.69269 0.27708 0.04358 0.0
C1390 C 0.68119 0.27849 0.03045 0.0
C1391 C 0.68487 0.25661 0.0508 0.0
C1392 C 0.69516 0.25434 0.06544 0.0
C1393 C 0.69749 0.26724 0.07879 0.0
C1394 C 0.70738 0.26519 0.09251 0.0
C1395 C 0.71483 0.25015 0.09305 0.0
C1396 C 0.71235 0.23709 0.0799 0.0
C1397 C 0.7025 0.23911 0.06615 0.0
H1398 H 0.72248 0.24859 0.10368 0.0
H1399 H 0.61972 0.26848 0.97443 0.0
H1400 H 0.46394 0.62255 0.21207 0.0
H1401 H 0.46197 0.65573 0.21665 0.0
H1402 H 0.39616 0.62413 0.19609 0.0
H1403 H 0.39828 0.59089 0.19111 0.0
H1404 H 0.42039 0.66634 0.1869 0.0
H1405 H 0.40322 0.62847 0.2352 0.0
H1406 H 0.4088 0.60936 0.25719 0.0
H1407 H 0.46994 0.66737 0.2698 0.0
H1408 H 0.46489 0.68674 0.24772 0.0
H1409 H 0.39282 0.74309 0.21984 0.0
H1410 H 0.39352 0.70992 0.21248 0.0
H1411 H 0.45999 0.73814 0.23143 0.0
H1412 H 0.45944 0.77132 0.23899 0.0
H1413 H 0.43355 0.69668 0.24118 0.0
H1414 H 0.45049 0.73426 0.19227 0.0
H1415 H 0.44422 0.75297 0.17029 0.0
H1416 H 0.38232 0.69504 0.15908 0.0
H1417 H 0.38807 0.67608 0.18114 0.0
C1418 C 0.44919 0.62278 0.20828 0.0
C1419 C 0.43138 0.60424 0.20098 0.0
C1420 C 0.44801 0.64168 0.21102 0.0
C1421 C 0.42883 0.64232 0.20686 0.0
C1422 C 0.41113 0.62399 0.19936 0.0
C1423 C 0.41234 0.60504 0.19653 0.0
C1424 C 0.42713 0.66194 0.21083 0.0
C1425 C 0.42294 0.67282 0.19879 0.0
C1426 C 0.43077 0.67054 0.22633 0.0
C1427 C 0.43376 0.659 0.23972 0.0
C1428 C 0.41793 0.63711 0.24259 0.0
C1429 C 0.42099 0.62623 0.25509 0.0
C1430 C 0.43974 0.63713 0.26487 0.0
C1431 C 0.45543 0.65894 0.26221 0.0
C1432 C 0.45247 0.66989 0.24971 0.0
C1433 C 0.40766 0.74234 0.2224 0.0
C1434 C 0.4261 0.75995 0.23001 0.0
C1435 C 0.40804 0.72336 0.21811 0.0
C1436 C 0.42687 0.72164 0.2213 0.0
C1437 C 0.4453 0.73916 0.22885 0.0
C1438 C 0.44497 0.75816 0.23311 0.0
C1439 C 0.42715 0.7013 0.21722 0.0
C1440 C 0.43097 0.69021 0.22928 0.0
C1441 C 0.42304 0.69248 0.20177 0.0
C1442 C 0.41961 0.70382 0.18846 0.0
C1443 C 0.43545 0.72557 0.1852 0.0
C1444 C 0.43201 0.73621 0.17271 0.0
C1445 C 0.41286 0.72522 0.16332 0.0
C1446 C 0.39713 0.70354 0.16638 0.0
C1447 C 0.40048 0.69283 0.17886 0.0
H1448 H 0.41022 0.73348 0.15366 0.0
H1449 H 0.44208 0.62867 0.27454 0.0
H1450 H 0.85169 0.4711 0.33981 0.0
H1451 H 0.81934 0.46938 0.35207 0.0
H1452 H 0.80214 0.40672 0.37117 0.0
H1453 H 0.83478 0.40858 0.35924 0.0
H1454 H 0.76701 0.40829 0.35435 0.0
H1455 H 0.82152 0.44747 0.39519 0.0
H1456 H 0.85708 0.4771 0.40592 0.0
H1457 H 0.83973 0.52481 0.39165 0.0
H1458 H 0.80418 0.49546 0.38062 0.0
H1459 H 0.67845 0.39495 0.40063 0.0
H1460 H 0.71268 0.39765 0.39147 0.0
H1461 H 0.73852 0.46602 0.38201 0.0
H1462 H 0.70465 0.46363 0.39182 0.0
H1463 H 0.76982 0.46143 0.39416 0.0
H1464 H 0.71714 0.42463 0.35241 0.0
H1465 H 0.682 0.39649 0.34007 0.0
H1466 H 0.69612 0.34633 0.35375 0.0
H1467 H 0.73122 0.37416 0.36635 0.0
C1468 C 0.84111 0.45705 0.34673 0.0
C1469 C 0.84556 0.43983 0.3484 0.0
C1470 C 0.82269 0.45611 0.35374 0.0
C1471 C 0.80837 0.4379 0.36247 0.0
C1472 C 0.81297 0.42086 0.3644 0.0
C1473 C 0.83156 0.42193 0.35758 0.0
C1474 C 0.78811 0.43626 0.36906 0.0
C1475 C 0.76755 0.41967 0.36324 0.0
C1476 C 0.78897 0.45161 0.38023 0.0
C1477 C 0.81028 0.46927 0.38694 0.0
C1478 C 0.82537 0.46429 0.39421 0.0
C1479 C 0.84551 0.48103 0.40038 0.0
C1480 C 0.85069 0.50283 0.39943 0.0
C1481 C 0.83571 0.50792 0.39236 0.0
C1482 C 0.81555 0.49123 0.38616 0.0
C1483 C 0.69141 0.41055 0.39657 0.0
C1484 C 0.68878 0.42904 0.39684 0.0
C1485 C 0.71096 0.41206 0.39128 0.0
C1486 C 0.72806 0.43194 0.38574 0.0
C1487 C 0.72557 0.45049 0.38619 0.0
C1488 C 0.70617 0.44909 0.39176 0.0
C1489 C 0.74851 0.43337 0.37948 0.0
C1490 C 0.76916 0.44995 0.38531 0.0
C1491 C 0.74775 0.41824 0.36809 0.0
C1492 C 0.7267 0.40146 0.36046 0.0
C1493 C 0.71268 0.40759 0.35288 0.0
C1494 C 0.69278 0.39169 0.34583 0.0
C1495 C 0.68681 0.36963 0.34616 0.0
C1496 C 0.70075 0.36342 0.35352 0.0
C1497 C 0.72066 0.37925 0.3606 0.0
H1498 H 0.67139 0.35735 0.34069 0.0
H1499 H 0.86629 0.51577 0.40421 0.0
H1500 H 0.07944 0.59702 0.43899 0.0
H1501 H 0.09469 0.59639 0.46487 0.0
H1502 H 0.13101 0.56815 0.44417 0.0
H1503 H 0.11567 0.56859 0.41835 0.0
H1504 H 0.11045 0.54758 0.47078 0.0
H1505 H 0.15654 0.62202 0.45426 0.0
H1506 H 0.16355 0.65786 0.44508 0.0
H1507 H 0.13397 0.66636 0.48635 0.0
H1508 H 0.12651 0.6304 0.49568 0.0
H1509 H 0.20418 0.58809 0.52611 0.0
H1510 H 0.17802 0.5763 0.50383 0.0
H1511 H 0.13378 0.58859 0.53116 0.0
H1512 H 0.15937 0.59915 0.55378 0.0
H1513 H 0.15483 0.61548 0.50261 0.0
H1514 H 0.10549 0.54248 0.51831 0.0
H1515 H 0.08863 0.50371 0.52539 0.0
H1516 H 0.1195 0.49159 0.48641 0.0
H1517 H 0.13621 0.53024 0.47895 0.0
C1518 C 0.09053 0.59051 0.44003 0.0
C1519 C 0.09619 0.58261 0.42671 0.0
C1520 C 0.09934 0.5903 0.45476 0.0
C1521 C 0.11412 0.58238 0.45641 0.0
C1522 C 0.11961 0.57429 0.44315 0.0
C1523 C 0.11084 0.57453 0.42843 0.0
C1524 C 0.12389 0.58242 0.47192 0.0
C1525 C 0.12048 0.56248 0.47765 0.0
C1526 C 0.13612 0.60173 0.48114 0.0
C1527 C 0.14077 0.62342 0.47559 0.0
C1528 C 0.15138 0.63145 0.46132 0.0
C1529 C 0.15546 0.6518 0.4561 0.0
C1530 C 0.14916 0.66435 0.46511 0.0
C1531 C 0.13882 0.6566 0.47938 0.0
C1532 C 0.13468 0.63625 0.48464 0.0
C1533 C 0.18829 0.58699 0.52764 0.0
C1534 C 0.18343 0.59379 0.54181 0.0
C1535 C 0.17341 0.58041 0.51487 0.0
C1536 C 0.15382 0.58128 0.51591 0.0
C1537 C 0.1486 0.58739 0.53022 0.0
C1538 C 0.16326 0.59352 0.54308 0.0
C1539 C 0.14167 0.58061 0.50139 0.0
C1540 C 0.14482 0.60056 0.49576 0.0
C1541 C 0.12899 0.56127 0.49234 0.0
C1542 C 0.12243 0.53931 0.49826 0.0
C1543 C 0.10909 0.53166 0.51147 0.0
C1544 C 0.09926 0.50963 0.51539 0.0
C1545 C 0.103 0.4952 0.50637 0.0
C1546 C 0.1166 0.50278 0.49339 0.0
C1547 C 0.12625 0.52473 0.48931 0.0
H1548 H 0.09542 0.47816 0.50946 0.0
H1549 H 0.15233 0.6801 0.46105 0.0
H1550 H 0.59046 0.09436 0.59375 0.0
H1551 H 0.59703 0.1242 0.61182 0.0
H1552 H 0.54144 0.07934 0.63901 0.0
H1553 H 0.53424 0.0496 0.62055 0.0
H1554 H 0.54352 0.11789 0.63856 0.0
H1555 H 0.59501 0.09258 0.64814 0.0
H1556 H 0.62411 0.08387 0.6417 0.0
H1557 H 0.668 0.15095 0.63032 0.0
H1558 H 0.63901 0.15998 0.63644 0.0
H1559 H 0.5753 0.1724 0.71302 0.0
H1560 H 0.56448 0.1469 0.69054 0.0
H1561 H 0.62124 0.19468 0.66562 0.0
H1562 H 0.6322 0.2199 0.68824 0.0
H1563 H 0.61835 0.15668 0.6633 0.0
H1564 H 0.56736 0.18226 0.65611 0.0
H1565 H 0.53844 0.19072 0.66363 0.0
H1566 H 0.49391 0.12281 0.67227 0.0
H1567 H 0.52268 0.11398 0.665 0.0
C1568 C 0.57928 0.09097 0.60334 0.0
C1569 C 0.56164 0.06968 0.60565 0.0
C1570 C 0.58316 0.10801 0.61374 0.0
C1571 C 0.56994 0.10394 0.62692 0.0
C1572 C 0.55184 0.08288 0.62892 0.0
C1573 C 0.54776 0.06591 0.6184 0.0
C1574 C 0.57589 0.12113 0.63922 0.0
C1575 C 0.55983 0.12623 0.64411 0.0
C1576 C 0.5973 0.13232 0.64627 0.0
C1577 C 0.61472 0.12688 0.64252 0.0
C1578 C 0.61078 0.10542 0.64411 0.0
C1579 C 0.62728 0.10044 0.64054 0.0
C1580 C 0.64786 0.11683 0.63555 0.0
C1581 C 0.65202 0.13825 0.63414 0.0
C1582 C 0.63556 0.14331 0.63765 0.0
C1583 C 0.58541 0.17731 0.70271 0.0
C1584 C 0.60492 0.19768 0.70243 0.0
C1585 C 0.57914 0.16289 0.68984 0.0
C1586 C 0.59192 0.16895 0.6763 0.0
C1587 C 0.61113 0.18962 0.67592 0.0
C1588 C 0.61749 0.20392 0.68885 0.0
C1589 C 0.58604 0.15328 0.66291 0.0
C1590 C 0.60211 0.14843 0.65778 0.0
C1591 C 0.56465 0.14224 0.65583 0.0
C1592 C 0.54726 0.14749 0.66013 0.0
C1593 C 0.55146 0.16915 0.65972 0.0
C1594 C 0.53508 0.17401 0.66392 0.0
C1595 C 0.51436 0.15732 0.66846 0.0
C1596 C 0.50997 0.13572 0.66876 0.0
C1597 C 0.5263 0.13078 0.66458 0.0
H1598 H 0.50171 0.16111 0.67171 0.0
H1599 H 0.66062 0.11294 0.6328 0.0
H1600 H 0.41127 0.51784 0.74498 0.0
H1601 H 0.40626 0.53499 0.77446 0.0
H1602 H 0.47984 0.60316 0.76946 0.0
H1603 H 0.48685 0.58774 0.73962 0.0
H1604 H 0.47252 0.58525 0.79918 0.0
H1605 H 0.42453 0.59754 0.76742 0.0
H1606 H 0.3953 0.58996 0.74775 0.0
H1607 H 0.34706 0.5397 0.77644 0.0
H1608 H 0.37606 0.54673 0.7962 0.0
H1609 H 0.44554 0.63193 0.86554 0.0
H1610 H 0.45469 0.62497 0.83931 0.0
H1611 H 0.40229 0.55778 0.84115 0.0
H1612 H 0.39314 0.56444 0.86738 0.0
H1613 H 0.40165 0.58032 0.81386 0.0
H1614 H 0.4527 0.56793 0.84492 0.0
H1615 H 0.48298 0.57817 0.86428 0.0
H1616 H 0.52666 0.63253 0.83635 0.0
H1617 H 0.49651 0.62279 0.81693 0.0
C1618 C 0.42342 0.53413 0.74906 0.0
C1619 C 0.45136 0.5493 0.74056 0.0
C1620 C 0.42094 0.54454 0.76774 0.0
C1621 C 0.44291 0.57034 0.77555 0.0
C1622 C 0.46745 0.58744 0.76463 0.0
C1623 C 0.47153 0.57847 0.74576 0.0
C1624 C 0.44015 0.57791 0.79105 0.0
C1625 C 0.45718 0.58454 0.80233 0.0
C1626 C 0.4201 0.57691 0.79511 0.0
C1627 C 0.40255 0.57253 0.78324 0.0
C1628 C 0.40773 0.58473 0.76948 0.0
C1629 C 0.39119 0.58056 0.75832 0.0
C1630 C 0.36935 0.56432 0.76082 0.0
C1631 C 0.36399 0.55226 0.77451 0.0
C1632 C 0.38047 0.55635 0.78571 0.0
C1633 C 0.43605 0.61563 0.86041 0.0
C1634 C 0.41855 0.59875 0.86855 0.0
C1635 C 0.44136 0.61169 0.84545 0.0
C1636 C 0.42915 0.59088 0.83834 0.0
C1637 C 0.41188 0.57396 0.84647 0.0
C1638 C 0.40674 0.57779 0.86148 0.0
C1639 C 0.43367 0.58684 0.82214 0.0
C1640 C 0.41701 0.58108 0.81067 0.0
C1641 C 0.45415 0.58894 0.8179 0.0
C1642 C 0.47227 0.59479 0.82957 0.0
C1643 C 0.4687 0.5822 0.84299 0.0
C1644 C 0.48585 0.58789 0.85395 0.0
C1645 C 0.50671 0.60603 0.85158 0.0
C1646 C 0.51048 0.6185 0.8382 0.0
C1647 C 0.49337 0.6129 0.8272 0.0
H1648 H 0.51998 0.6104 0.86007 0.0
H1649 H 0.35657 0.56112 0.75217 0.0
H1650 H 0.95575 0.45743 0.92724 0.0
H1651 H 0.92156 0.43867 0.95043 0.0
H1652 H 0.95113 0.51127 0.97793 0.0
H1653 H 0.98592 0.53217 0.95545 0.0
H1654 H 0.93873 0.47457 0.99664 0.0
H1655 H 0.89551 0.48428 0.95605 0.0
H1656 H 0.88193 0.48203 0.92889 0.0
H1657 H 0.856 0.41256 0.92779 0.0
H1658 H 0.86956 0.41448 0.95493 0.0
H1659 H 0.82367 0.43112 0.03102 0.0
H1660 H 0.84865 0.44756 0.00919 0.0
H1661 H 0.87991 0.40969 0.01984 0.0
H1662 H 0.85521 0.39323 0.04169 0.0
H1663 H 0.85884 0.43085 0.98225 0.0
H1664 H 0.93549 0.44416 0.01737 0.0
H1665 H 0.94768 0.44718 0.04497 0.0
H1666 H 0.90626 0.47354 0.05778 0.0
H1667 H 0.89414 0.47105 0.03022 0.0
C1668 C 0.95534 0.46722 0.93693 0.0
C1669 C 0.972 0.49773 0.93731 0.0
C1670 C 0.93351 0.45597 0.95091 0.0
C1671 C 0.9317 0.47322 0.96591 0.0
C1672 C 0.95222 0.5018 0.9683 0.0
C1673 C 0.97464 0.51469 0.95492 0.0
C1674 C 0.91453 0.46311 0.97777 0.0
C1675 C 0.92127 0.46507 0.9935 0.0
C1676 C 0.89181 0.45085 0.97367 0.0
C1677 C 0.88377 0.44957 0.95738 0.0
C1678 C 0.887 0.46856 0.94996 0.0
C1679 C 0.87928 0.46734 0.9346 0.0
C1680 C 0.86817 0.44717 0.9266 0.0
C1681 C 0.86467 0.42818 0.93398 0.0
C1682 C 0.87234 0.42932 0.94935 0.0
C1683 C 0.83568 0.42608 0.02863 0.0
C1684 C 0.83755 0.411 0.03825 0.0
C1685 C 0.84987 0.43543 0.0161 0.0
C1686 C 0.86624 0.43 0.01304 0.0
C1687 C 0.8675 0.41424 0.02213 0.0
C1688 C 0.85332 0.40484 0.03462 0.0
C1689 C 0.88306 0.44192 0.00111 0.0
C1690 C 0.8763 0.44034 0.98539 0.0
C1691 C 0.90581 0.45465 0.00525 0.0
C1692 C 0.91379 0.45725 0.02175 0.0
C1693 C 0.92914 0.45078 0.02606 0.0
C1694 C 0.93601 0.45237 0.0417 0.0
C1695 C 0.9277 0.46049 0.05313 0.0
C1696 C 0.91264 0.46721 0.04892 0.0
C1697 C 0.90577 0.46571 0.03329 0.0
H1698 H 0.93295 0.4616 0.06524 0.0
H1699 H 0.86223 0.44626 0.9147 0.0
H1700 H 0.52013 0.94356 0.09787 0.0
H1701 H 0.50151 0.91607 0.11781 0.0
H1702 H 0.46562 0.94827 0.132 0.0
H1703 H 0.48442 0.97596 0.11212 0.0
H1704 H 0.48263 0.93909 0.1568 0.0
H1705 H 0.43923 0.89971 0.1122 0.0
H1706 H 0.43113 0.88437 0.08529 0.0
H1707 H 0.46132 0.84578 0.09585 0.0
H1708 H 0.46992 0.86115 0.12278 0.0
H1709 H 0.41013 0.85003 0.20508 0.0
H1710 H 0.42052 0.87276 0.18178 0.0
H1711 H 0.47507 0.86148 0.1747 0.0
H1712 H 0.46524 0.83932 0.19826 0.0
H1713 H 0.44476 0.85902 0.14598 0.0
H1714 H 0.49152 0.90336 0.19028 0.0
H1715 H 0.49626 0.91724 0.2175 0.0
H1716 H 0.45587 0.94572 0.20703 0.0
H1717 H 0.45049 0.93155 0.17981 0.0
C1718 C 0.50803 0.94458 0.10509 0.0
C1719 C 0.50344 0.96168 0.10327 0.0
C1720 C 0.49737 0.92885 0.11646 0.0
C1721 C 0.48194 0.92994 0.12626 0.0
C1722 C 0.47736 0.94704 0.1245 0.0
C1723 C 0.48801 0.96276 0.11311 0.0
C1724 C 0.47149 0.91383 0.13882 0.0
C1725 C 0.47405 0.9216 0.15436 0.0
C1726 C 0.46041 0.89097 0.1357 0.0
C1727 C 0.45542 0.88177 0.11948 0.0
C1728 C 0.44434 0.88812 0.10875 0.0
C1729 C 0.43962 0.87938 0.0935 0.0
C1730 C 0.44576 0.86416 0.08885 0.0
C1731 C 0.4566 0.8576 0.09946 0.0
C1732 C 0.46139 0.86631 0.11473 0.0
C1733 C 0.42412 0.85213 0.19841 0.0
C1734 C 0.43696 0.84303 0.20347 0.0
C1735 C 0.43001 0.86508 0.18514 0.0
C1736 C 0.4485 0.86868 0.1766 0.0
C1737 C 0.46068 0.85873 0.18116 0.0
C1738 C 0.45514 0.84623 0.19463 0.0
C1739 C 0.45633 0.88441 0.16375 0.0
C1740 C 0.45323 0.87654 0.14827 0.0
C1741 C 0.46667 0.90715 0.16686 0.0
C1742 C 0.47037 0.91617 0.18308 0.0
C1743 C 0.48347 0.9124 0.19382 0.0
C1744 C 0.4863 0.92034 0.20924 0.0
C1745 C 0.47631 0.9323 0.21401 0.0
C1746 C 0.46355 0.93641 0.20333 0.0
C1747 C 0.46061 0.92843 0.18791 0.0
H1748 H 0.47851 0.93843 0.22595 0.0
H1749 H 0.44206 0.85739 0.07704 0.0
H1750 H 0.56701 0.49252 0.25815 0.0
H1751 H 0.58311 0.48926 0.28285 0.0
H1752 H 0.52965 0.42275 0.28665 0.0
H1753 H 0.51305 0.42626 0.26226 0.0
H1754 H 0.53807 0.44262 0.31407 0.0
H1755 H 0.58218 0.43598 0.27386 0.0
H1756 H 0.60591 0.44755 0.25076 0.0
H1757 H 0.65402 0.50556 0.2757 0.0
H1758 H 0.63043 0.49448 0.29889 0.0
H1759 H 0.58623 0.40266 0.36829 0.0
H1760 H 0.57161 0.40914 0.34406 0.0
H1761 H 0.62145 0.47745 0.34691 0.0
H1762 H 0.63619 0.47121 0.37119 0.0
H1763 H 0.61582 0.4586 0.31674 0.0
H1764 H 0.57201 0.46425 0.35725 0.0
H1765 H 0.54845 0.45207 0.38041 0.0
H1766 H 0.49976 0.39515 0.35474 0.0
H1767 H 0.52321 0.40682 0.33148 0.0
C1768 C 0.55849 0.47734 0.2644 0.0
C1769 C 0.53846 0.45978 0.25847 0.0
C1770 C 0.56784 0.4754 0.27843 0.0
C1771 C 0.55771 0.45568 0.28655 0.0
C1772 C 0.53772 0.43816 0.28064 0.0
C1773 C 0.52824 0.44017 0.26673 0.0
C1774 C 0.56791 0.45312 0.30115 0.0
C1775 C 0.55499 0.44587 0.31457 0.0
C1776 C 0.59018 0.45788 0.30196 0.0
C1777 C 0.60443 0.46451 0.28805 0.0
C1778 C 0.59774 0.45128 0.27438 0.0
C1779 C 0.61118 0.45774 0.26127 0.0
C1780 C 0.63143 0.47731 0.26175 0.0
C1781 C 0.63831 0.49043 0.27534 0.0
C1782 C 0.62493 0.48406 0.28847 0.0
C1783 C 0.59419 0.41905 0.36374 0.0
C1784 C 0.61235 0.43643 0.37174 0.0
C1785 C 0.58575 0.42273 0.34992 0.0
C1786 C 0.59536 0.4438 0.34379 0.0
C1787 C 0.6138 0.46108 0.35148 0.0
C1788 C 0.62213 0.45747 0.36539 0.0
C1789 C 0.58585 0.44783 0.32948 0.0
C1790 C 0.59892 0.4554 0.31618 0.0
C1791 C 0.5637 0.44328 0.32874 0.0
C1792 C 0.54947 0.4363 0.34267 0.0
C1793 C 0.55637 0.44904 0.35658 0.0
C1794 C 0.54302 0.44224 0.36972 0.0
C1795 C 0.52264 0.42282 0.36906 0.0
C1796 C 0.51556 0.41018 0.35524 0.0
C1797 C 0.52887 0.41688 0.34207 0.0
H1798 H 0.51232 0.41759 0.37924 0.0
H1799 H 0.64181 0.48228 0.25159 0.0
H1800 H 0.453 0.91298 0.3948 0.0
H1801 H 0.45373 0.89928 0.36855 0.0
H1802 H 0.43884 0.94645 0.3486 0.0
H1803 H 0.43734 0.95966 0.37491 0.0
H1804 H 0.413 0.9084 0.33606 0.0
H1805 H 0.49068 0.95018 0.3452 0.0
H1806 H 0.52641 0.9636 0.35917 0.0
H1807 H 0.51792 0.89903 0.35727 0.0
H1808 H 0.48196 0.88511 0.34351 0.0
H1809 H 0.42072 0.87222 0.25936 0.0
H1810 H 0.43076 0.89694 0.28234 0.0
H1811 H 0.43676 0.84971 0.31041 0.0
H1812 H 0.42647 0.82501 0.28756 0.0
H1813 H 0.47049 0.89282 0.31675 0.0
H1814 H 0.3906 0.85107 0.3111 0.0
H1815 H 0.35507 0.83781 0.29685 0.0
H1816 H 0.3691 0.90395 0.29171 0.0
H1817 H 0.40488 0.91761 0.30575 0.0
C1818 C 0.45032 0.92069 0.38478 0.0
C1819 C 0.44558 0.93768 0.38689 0.0
C1820 C 0.45083 0.91293 0.36978 0.0
C1821 C 0.44675 0.9221 0.35654 0.0
C1822 C 0.44224 0.93925 0.35861 0.0
C1823 C 0.44153 0.94688 0.37364 0.0
C1824 C 0.44531 0.91248 0.34071 0.0
C1825 C 0.42586 0.90552 0.3317 0.0
C1826 C 0.46187 0.90828 0.33508 0.0
C1827 C 0.48348 0.91656 0.34344 0.0
C1828 C 0.49631 0.93878 0.34788 0.0
C1829 C 0.51664 0.94649 0.35575 0.0
C1830 C 0.5244 0.93216 0.35914 0.0
C1831 C 0.51187 0.9101 0.35465 0.0
C1832 C 0.49152 0.9023 0.34681 0.0
C1833 C 0.42454 0.86739 0.27042 0.0
C1834 C 0.42355 0.84713 0.27169 0.0
C1835 C 0.43024 0.88143 0.28349 0.0
C1836 C 0.43454 0.87514 0.29805 0.0
C1837 C 0.43374 0.85496 0.29925 0.0
C1838 C 0.42798 0.84094 0.28621 0.0
C1839 C 0.43824 0.88871 0.31233 0.0
C1840 C 0.45798 0.89625 0.32104 0.0
C1841 C 0.42206 0.89357 0.31766 0.0
C1842 C 0.40051 0.88537 0.3093 0.0
C1843 C 0.38619 0.86279 0.30681 0.0
C1844 C 0.36599 0.8552 0.29879 0.0
C1845 C 0.35986 0.87003 0.29333 0.0
C1846 C 0.37389 0.89248 0.29592 0.0
C1847 C 0.39412 0.90015 0.30391 0.0
H1848 H 0.34422 0.86412 0.28713 0.0
H1849 H 0.54015 0.93817 0.36522 0.0
H1850 H 0.57559 0.4791 0.55709 0.0
H1851 H 0.58527 0.47249 0.53103 0.0
H1852 H 0.51725 0.44481 0.51549 0.0
H1853 H 0.50741 0.45102 0.54175 0.0
H1854 H 0.53299 0.41961 0.50621 0.0
H1855 H 0.55727 0.49526 0.50348 0.0
H1856 H 0.57647 0.53421 0.51154 0.0
H1857 H 0.63913 0.53679 0.50918 0.0
H1858 H 0.6203 0.49775 0.50136 0.0
H1859 H 0.56839 0.41797 0.42691 0.0
H1860 H 0.55356 0.42871 0.44915 0.0
H1861 H 0.61091 0.44202 0.47724 0.0
H1862 H 0.6252 0.43042 0.45531 0.0
H1863 H 0.59666 0.4761 0.47727 0.0
H1864 H 0.57036 0.39836 0.48387 0.0
H1865 H 0.55055 0.35979 0.47478 0.0
H1866 H 0.49083 0.36249 0.46851 0.0
H1867 H 0.51042 0.40121 0.47735 0.0
C1868 C 0.56278 0.47192 0.54804 0.0
C1869 C 0.54085 0.46602 0.55134 0.0
C1870 C 0.56832 0.4682 0.53314 0.0
C1871 C 0.55206 0.45853 0.52121 0.0
C1872 C 0.53009 0.45247 0.52448 0.0
C1873 C 0.52452 0.45615 0.53943 0.0
C1874 C 0.55796 0.45376 0.50561 0.0
C1875 C 0.54667 0.4321 0.49977 0.0
C1876 C 0.57589 0.46998 0.49718 0.0
C1877 C 0.58732 0.49347 0.50198 0.0
C1878 C 0.57512 0.50406 0.50483 0.0
C1879 C 0.58595 0.52617 0.50933 0.0
C1880 C 0.609 0.53795 0.51091 0.0
C1881 C 0.62127 0.52764 0.50797 0.0
C1882 C 0.61053 0.50551 0.5035 0.0
C1883 C 0.57785 0.42341 0.43782 0.0
C1884 C 0.59833 0.42431 0.4393 0.0
C1885 C 0.56941 0.4295 0.45045 0.0
C1886 C 0.58132 0.43637 0.46471 0.0
C1887 C 0.60168 0.43706 0.46623 0.0
C1888 C 0.60991 0.43066 0.4537 0.0
C1889 C 0.57228 0.44203 0.47835 0.0
C1890 C 0.58291 0.46382 0.48373 0.0
C1891 C 0.5537 0.42602 0.48627 0.0
C1892 C 0.54191 0.40274 0.48107 0.0
C1893 C 0.55306 0.39079 0.4804 0.0
C1894 C 0.54187 0.36889 0.47533 0.0
C1895 C 0.51947 0.35872 0.47102 0.0
C1896 C 0.5082 0.37041 0.47182 0.0
C1897 C 0.51933 0.39232 0.47686 0.0
H1898 H 0.51083 0.34176 0.4671 0.0
H1899 H 0.61734 0.55507 0.51438 0.0
H1900 H 0.05934 0.53533 0.70194 0.0
H1901 H 0.0854 0.55378 0.68093 0.0
H1902 H 0.13532 0.54652 0.7059 0.0
H1903 H 0.10919 0.52761 0.72681 0.0
H1904 H 0.15099 0.58882 0.6893 0.0
H1905 H 0.10944 0.50987 0.68189 0.0
H1906 H 0.07485 0.47425 0.68046 0.0
H1907 H 0.05087 0.49676 0.6426 0.0
H1908 H 0.0852 0.53268 0.64402 0.0
H1909 H 0.18926 0.55724 0.6126 0.0
H1910 H 0.16861 0.5489 0.63669 0.0
H1911 H 0.17042 0.61084 0.63514 0.0
H1912 H 0.19172 0.61963 0.61111 0.0
H1913 H 0.12907 0.5429 0.6407 0.0
H1914 H 0.16569 0.62624 0.67292 0.0
H1915 H 0.20077 0.66138 0.67511 0.0
H1916 H 0.23704 0.62879 0.664 0.0
H1917 H 0.20219 0.59343 0.66193 0.0
C1918 C 0.076 0.53803 0.70307 0.0
C1919 C 0.0822 0.52991 0.71595 0.0
C1920 C 0.09086 0.54863 0.69112 0.0
C1921 C 0.11222 0.55146 0.69191 0.0
C1922 C 0.11894 0.54461 0.70518 0.0
C1923 C 0.10398 0.53373 0.71705 0.0
C1924 C 0.12639 0.55881 0.67804 0.0
C1925 C 0.14625 0.5789 0.67862 0.0
C1926 C 0.12021 0.5457 0.66423 0.0
C1927 C 0.09975 0.52401 0.66317 0.0
C1928 C 0.09671 0.50728 0.67335 0.0
C1929 C 0.07717 0.48703 0.67253 0.0
C1930 C 0.06065 0.48326 0.66147 0.0
C1931 C 0.06367 0.49972 0.65118 0.0
C1932 C 0.08316 0.52002 0.65198 0.0
C1933 C 0.18545 0.56922 0.61741 0.0
C1934 C 0.1921 0.58909 0.60988 0.0
C1935 C 0.1736 0.56439 0.6312 0.0
C1936 C 0.16797 0.57923 0.63776 0.0
C1937 C 0.17484 0.59926 0.63043 0.0
C1938 C 0.18695 0.60423 0.61667 0.0
C1939 C 0.15398 0.573 0.65183 0.0
C1940 C 0.13394 0.55303 0.65128 0.0
C1941 C 0.16021 0.58617 0.66568 0.0
C1942 C 0.18131 0.60724 0.66712 0.0
C1943 C 0.18116 0.62657 0.671 0.0
C1944 C 0.201 0.64653 0.67221 0.0
C1945 C 0.22112 0.64733 0.66965 0.0
C1946 C 0.22144 0.62816 0.66592 0.0
C1947 C 0.20165 0.60816 0.66471 0.0
H1948 H 0.23645 0.66279 0.67057 0.0
H1949 H 0.04553 0.46757 0.66086 0.0
H1950 H 0.5564 0.12275 0.89215 0.0
H1951 H 0.57519 0.14366 0.86903 0.0
H1952 H 0.52516 0.09288 0.83914 0.0
H1953 H 0.50599 0.07211 0.86222 0.0
H1954 H 0.57091 0.10973 0.82975 0.0
H1955 H 0.52034 0.13467 0.8451 0.0
H1956 H 0.50466 0.14966 0.86396 0.0
H1957 H 0.56835 0.20733 0.87059 0.0
H1958 H 0.58448 0.19251 0.85193 0.0
H1959 H 0.5907 0.1637 0.75779 0.0
H1960 H 0.57451 0.14269 0.78135 0.0
H1961 H 0.61266 0.2012 0.80986 0.0
H1962 H 0.62792 0.22235 0.78612 0.0
H1963 H 0.57425 0.18065 0.82087 0.0
H1964 H 0.62574 0.15837 0.80613 0.0
H1965 H 0.64398 0.14442 0.78869 0.0
H1966 H 0.58299 0.08361 0.7826 0.0
H1967 H 0.5643 0.09731 0.79984 0.0
C1968 C 0.54944 0.11605 0.88064 0.0
C1969 C 0.52964 0.09588 0.87899 0.0
C1970 C 0.56019 0.12797 0.86748 0.0
C1971 C 0.55146 0.11982 0.85243 0.0
C1972 C 0.53212 0.09939 0.85069 0.0
C1973 C 0.52119 0.08759 0.86386 0.0
C1974 C 0.56208 0.13296 0.83851 0.0
C1975 C 0.57148 0.12513 0.82766 0.0
C1976 C 0.56342 0.15337 0.83617 0.0
C1977 C 0.55366 0.16238 0.84724 0.0
C1978 C 0.53104 0.15046 0.85067 0.0
C1979 C 0.52206 0.15894 0.86131 0.0
C1980 C 0.53551 0.17941 0.8685 0.0
C1981 C 0.55795 0.19146 0.86503 0.0
C1982 C 0.56702 0.18304 0.85442 0.0
C1983 C 0.59563 0.17195 0.76912 0.0
C1984 C 0.61059 0.19448 0.77028 0.0
C1985 C 0.58651 0.15996 0.78259 0.0
C1986 C 0.5927 0.17022 0.79747 0.0
C1987 C 0.60764 0.19286 0.79855 0.0
C1988 C 0.6164 0.20493 0.78504 0.0
C1989 C 0.58315 0.15746 0.81186 0.0
C1990 C 0.57389 0.16533 0.82287 0.0
C1991 C 0.58238 0.13729 0.81451 0.0
C1992 C 0.59357 0.12895 0.80417 0.0
C1993 C 0.61618 0.14208 0.80098 0.0
C1994 C 0.6266 0.13421 0.79114 0.0
C1995 C 0.61464 0.11317 0.78451 0.0
C1996 C 0.59223 0.09992 0.78773 0.0
C1997 C 0.58172 0.10772 0.79755 0.0
H1998 H 0.62274 0.1071 0.7769 0.0
H1999 H 0.52853 0.18595 0.87674 0.0
H2000 H 0.45695 0.55483 0.06414 0.0
H2001 H 0.44527 0.56046 0.03253 0.0
H2002 H 0.51534 0.63251 0.02884 0.0
H2003 H 0.52896 0.62882 0.06021 0.0
H2004 H 0.48004 0.6318 0.01709 0.0
H2005 H 0.50017 0.57645 0.00552 0.0
H2006 H 0.49893 0.54123 0.00917 0.0
H2007 H 0.4286 0.50679 0.00094 0.0
H2008 H 0.42945 0.54185 0.99738 0.0
H2009 H 0.46332 0.61802 0.92817 0.0
H2010 H 0.47674 0.61043 0.95281 0.0
H2011 H 0.42221 0.60891 0.97708 0.0
H2012 H 0.40874 0.6162 0.95257 0.0
H2013 H 0.45256 0.57394 0.97547 0.0
H2014 H 0.44713 0.64073 0.0104 0.0
H2015 H 0.44822 0.67572 0.00591 0.0
H2016 H 0.49026 0.6876 0.96666 0.0
H2017 H 0.48968 0.65286 0.97107 0.0
C2018 C 0.46737 0.56951 0.05777 0.0
C2019 C 0.49626 0.5895 0.06439 0.0
C2020 C 0.46086 0.57261 0.03782 0.0
C2021 C 0.4798 0.59618 0.02684 0.0
C2022 C 0.50501 0.61817 0.03555 0.0
C2023 C 0.51305 0.61662 0.05535 0.0
C2024 C 0.47325 0.59925 0.01102 0.0
C2025 C 0.47418 0.61916 0.00799 0.0
C2026 C 0.46544 0.58276 0.99917 0.0
C2027 C 0.46484 0.56173 0.00144 0.0
C2028 C 0.48444 0.56136 0.00461 0.0
C2029 C 0.48381 0.54143 0.00662 0.0
C2030 C 0.46369 0.52178 0.00536 0.0
C2031 C 0.44416 0.52202 0.00198 0.0
C2032 C 0.44471 0.5419 -4e-05 0.0
C2033 C 0.45416 0.61577 0.93877 0.0
C2034 C 0.43477 0.61708 0.93854 0.0
C2035 C 0.46172 0.61137 0.95275 0.0
C2036 C 0.45036 0.60904 0.96667 0.0
C2037 C 0.43111 0.61058 0.96642 0.0
C2038 C 0.42342 0.61465 0.95246 0.0
C2039 C 0.45923 0.60634 0.98171 0.0
C2040 C 0.45858 0.58654 0.9846 0.0
C2041 C 0.46721 0.6229 0.9935 0.0
C2042 C 0.4682 0.64412 0.99099 0.0
C2043 C 0.4567 0.65088 0.00087 0.0
C2044 C 0.45722 0.67065 0.99833 0.0
C2045 C 0.46925 0.68385 0.98598 0.0
C2046 C 0.48088 0.67734 0.97619 0.0
C2047 C 0.48045 0.65759 0.97869 0.0
H2048 H 0.46959 0.69913 0.98401 0.0
H2049 H 0.46323 0.50637 0.00693 0.0
H2050 H 0.9123 0.46204 0.23745 0.0
H2051 H 0.8932 0.44413 0.20675 0.0
H2052 H 0.91833 0.51918 0.18651 0.0
H2053 H 0.93792 0.53898 0.2166 0.0
H2054 H 0.88106 0.49183 0.17596 0.0
H2055 H 0.94021 0.47598 0.17569 0.0
H2056 H 0.9641 0.46211 0.18569 0.0
H2057 H 0.90784 0.39734 0.18765 0.0
H2058 H 0.88358 0.41091 0.17784 0.0
H2059 H 0.85933 0.4546 0.09594 0.0
H2060 H 0.88134 0.46943 0.12032 0.0
H2061 H 0.83389 0.41246 0.14478 0.0
H2062 H 0.81136 0.39819 0.12067 0.0
H2063 H 0.88451 0.43013 0.15046 0.0
H2064 H 0.82572 0.44821 0.15096 0.0
H2065 H 0.80379 0.4632 0.13921 0.0
H2066 H 0.86263 0.52578 0.13516 0.0
H2067 H 0.88498 0.51101 0.14665 0.0
C2068 C 0.91278 0.47249 0.22813 0.0
C2069 C 0.93072 0.50284 0.22937 0.0
C2070 C 0.90207 0.46164 0.20876 0.0
C2071 C 0.90522 0.47974 0.19294 0.0
C2072 C 0.91765 0.50898 0.19606 0.0
C2073 C 0.92885 0.52138 0.21495 0.0
C2074 C 0.89466 0.47034 0.17751 0.0
C2075 C 0.88227 0.47863 0.17032 0.0
C2076 C 0.89566 0.45274 0.17021 0.0
C2077 C 0.91006 0.44455 0.17632 0.0
C2078 C 0.93292 0.45883 0.17841 0.0
C2079 C 0.94653 0.45101 0.184 0.0
C2080 C 0.93748 0.42888 0.18738 0.0
C2081 C 0.91481 0.4145 0.1851 0.0
C2082 C 0.90113 0.42225 0.17952 0.0
C2083 C 0.85387 0.44516 0.1065 0.0
C2084 C 0.83419 0.42491 0.1064 0.0
C2085 C 0.8664 0.45357 0.12033 0.0
C2086 C 0.8593 0.44185 0.13422 0.0
C2087 C 0.83977 0.42151 0.13409 0.0
C2088 C 0.82706 0.41332 0.12034 0.0
C2089 C 0.87117 0.45171 0.14915 0.0
C2090 C 0.88364 0.44346 0.15619 0.0
C2091 C 0.87046 0.46949 0.15626 0.0
C2092 C 0.85705 0.47843 0.14946 0.0
C2093 C 0.83402 0.46509 0.1474 0.0
C2094 C 0.8215 0.47356 0.14082 0.0
C2095 C 0.83182 0.49541 0.13639 0.0
C2096 C 0.85467 0.50885 0.13857 0.0
C2097 C 0.86726 0.50044 0.14511 0.0
H2098 H 0.8221 0.50194 0.13131 0.0
H2099 H 0.94804 0.42286 0.1917 0.0
loop_
_geom_bond_atom_site_label_1
_geom_bond_atom_site_label_2
_geom_bond_distance
_geom_bond_site_symmetry_2
_ccdc_geom_bond_type
C0 C1 1.560 . S
C0 H61 0.959 . S
C0 H62 0.959 . S
C0 H63 0.960 . S
C1 C0 1.560 . S
C1 O56 1.426 . S
C1 H60 0.980 . S
C2 C3 1.407 . S
C2 C7 1.418 . S
C2 O56 1.334 . S
C3 C2 1.407 . S
C3 C4 1.360 . S
C3 H64 0.929 . S
C4 C3 1.360 . S
C4 C5 1.401 . S
C4 C8 1.527 . S
C5 C4 1.401 . S
C5 C6 1.405 . S
C5 C38 1.587 . S
C6 C5 1.405 . S
C6 C7 1.332 . S
C6 C9 1.496 . S
C7 C2 1.418 . S
C7 C6 1.332 . S
C7 H65 0.929 . S
C8 C4 1.527 . S
C8 H66 0.959 . S
C8 H67 0.961 . S
C8 H68 0.961 . S
C9 C6 1.496 . S
C9 H69 0.960 . S
C9 H70 0.960 . S
C9 H71 0.961 . S
C10 C11 1.517 . S
C10 H73 0.961 . S
C10 H74 0.960 . S
C10 H75 0.959 . S
C11 C10 1.517 . S
C11 O59 1.468 . S
C11 H72 0.980 . S
C12 C13 1.349 . S
C12 C17 1.367 . S
C12 O59 1.408 . S
C13 C12 1.349 . S
C13 C14 1.407 . S
C13 H76 0.930 . S
C14 C13 1.407 . S
C14 C15 1.449 . S
C14 C18 1.535 . S
C15 C14 1.449 . S
C15 C16 1.384 . S
C15 C40 1.553 1_655 S
C16 C15 1.384 . S
C16 C17 1.364 . S
C16 C19 1.450 . S
C17 C12 1.367 . S
C17 C16 1.364 . S
C17 H77 0.931 . S
C18 C14 1.535 . S
C18 H78 0.959 1_655 S
C18 H79 0.960 1_655 S
C18 H80 0.959 . S
C19 C16 1.450 . S
C19 H81 0.960 . S
C19 H82 0.960 1_655 S
C19 H83 0.960 . S
C20 C21 1.309 . S
C20 C25 1.304 . S
C20 O58 1.435 . S
C21 C20 1.309 . S
C21 C22 1.476 . S
C21 H85 0.930 . S
C22 C21 1.476 . S
C22 C23 1.400 . S
C22 C26 1.567 . S
C23 C22 1.400 . S
C23 C24 1.373 . S
C23 C45 1.432 . S
C24 C23 1.373 . S
C24 C25 1.339 . S
C24 C27 1.530 . S
C25 C20 1.304 . S
C25 C24 1.339 . S
C25 H86 0.930 . S
C26 C22 1.567 . S
C26 H87 0.961 . S
C26 H88 0.960 . S
C26 H89 0.958 . S
C27 C24 1.530 . S
C27 H90 0.961 . S
C27 H91 0.960 . S
C27 H92 0.960 . S
C28 C29 1.530 . S
C28 H94 0.961 . S
C28 H95 0.961 . S
C28 H96 0.959 . S
C29 C28 1.530 . S
C29 O57 1.412 . S
C29 H93 0.980 . S
C30 C31 1.288 . S
C30 C35 1.377 . S
C30 O57 1.393 . S
C31 C30 1.288 . S
C31 C32 1.369 . S
C31 H97 0.932 . S
C32 C31 1.369 . S
C32 C33 1.398 . S
C32 C36 1.527 . S
C33 C32 1.398 . S
C33 C34 1.380 . S
C33 C47 1.497 . S
C34 C33 1.380 . S
C34 C35 1.383 . S
C34 C37 1.603 . S
C35 C30 1.377 . S
C35 C34 1.383 . S
C35 H98 0.929 . S
C36 C32 1.527 . S
C36 H99 0.961 . S
C36 H100 0.963 . S
C36 H101 0.959 . S
C37 C34 1.603 . S
C37 H102 0.960 . S
C37 H103 0.962 . S
C37 H104 0.961 . S
C38 C5 1.587 . S
C38 C39 1.360 . S
C38 C51 1.412 . S
C39 C38 1.360 . S
C39 C40 1.365 . S
C39 H105 0.929 . S
C40 C15 1.553 1_455 S
C40 C39 1.365 . S
C40 C41 1.404 . S
C41 C40 1.404 . S
C41 C42 1.395 1_455 S
C41 C52 1.451 . S
C42 C41 1.395 1_655 S
C42 C43 1.322 . S
C42 H106 0.930 . S
C43 C42 1.322 . S
C43 C44 1.459 . S
C43 H107 0.929 . S
C44 C43 1.459 . S
C44 C45 1.445 . S
C44 C53 1.395 1_655 S
C45 C23 1.432 . S
C45 C44 1.445 . S
C45 C46 1.370 . S
C46 C45 1.370 . S
C46 C47 1.438 1_655 S
C46 H108 0.930 . S
C47 C33 1.497 . S
C47 C46 1.438 1_455 S
C47 C48 1.360 . S
C48 C47 1.360 . S
C48 C49 1.401 . S
C48 C53 1.446 . S
C49 C48 1.401 . S
C49 C50 1.347 . S
C49 H109 0.929 . S
C50 C49 1.347 . S
C50 C51 1.455 . S
C50 H110 0.930 . S
C51 C38 1.412 . S
C51 C50 1.455 . S
C51 C52 1.331 . S
C52 C41 1.451 . S
C52 C51 1.331 . S
C52 C53 1.497 . S
C53 C44 1.395 1_455 S
C53 C48 1.446 . S
C53 C52 1.497 . S
C54 C55 1.582 . S
C54 H111 0.962 . S
C54 H112 0.959 . S
C54 H113 0.958 . S
C55 C54 1.582 . S
C55 O58 1.458 . S
C55 H84 0.980 . S
O56 C1 1.426 . S
O56 C2 1.334 . S
O57 C29 1.412 . S
O57 C30 1.393 . S
O58 C20 1.435 . S
O58 C55 1.458 . S
O59 C11 1.468 . S
O59 C12 1.408 . S
H60 C1 0.980 . S
H61 C0 0.959 . S
H62 C0 0.959 . S
H63 C0 0.960 . S
H64 C3 0.929 . S
H65 C7 0.929 . S
H66 C8 0.959 . S
H67 C8 0.961 . S
H68 C8 0.961 . S
H69 C9 0.960 . S
H70 C9 0.960 . S
H71 C9 0.961 . S
H72 C11 0.980 . S
H73 C10 0.961 . S
H74 C10 0.960 . S
H75 C10 0.959 . S
H76 C13 0.930 . S
H77 C17 0.931 . S
H78 C18 0.959 1_455 S
H79 C18 0.960 1_455 S
H80 C18 0.959 . S
H81 C19 0.960 . S
H82 C19 0.960 1_455 S
H83 C19 0.960 . S
H84 C55 0.980 . S
H85 C21 0.930 . S
H86 C25 0.930 . S
H87 C26 0.961 . S
H88 C26 0.960 . S
H89 C26 0.958 . S
H90 C27 0.961 . S
H91 C27 0.960 . S
H92 C27 0.960 . S
H93 C29 0.980 . S
H94 C28 0.961 . S
H95 C28 0.961 . S
H96 C28 0.959 . S
H97 C31 0.932 . S
H98 C35 0.929 . S
H99 C36 0.961 . S
H100 C36 0.963 . S
H101 C36 0.959 . S
H102 C37 0.960 . S
H103 C37 0.962 . S
H104 C37 0.961 . S
H105 C39 0.929 . S
H106 C42 0.930 . S
H107 C43 0.929 . S
H108 C46 0.930 . S
H109 C49 0.929 . S
H110 C50 0.930 . S
H111 C54 0.962 . S
H112 C54 0.959 . S
H113 C54 0.958 . S
C114 C115 1.560 . S
C114 H175 0.959 . S
C114 H176 0.959 . S
C114 H177 0.960 . S
C115 C114 1.560 . S
C115 O170 1.426 . S
C115 H174 0.980 . S
C116 C117 1.407 . S
C116 C121 1.418 . S
C116 O170 1.334 . S
C117 C116 1.407 . S
C117 C118 1.360 . S
C117 H178 0.929 . S
C118 C117 1.360 . S
C118 C119 1.401 . S
C118 C122 1.527 . S
C119 C118 1.401 . S
C119 C120 1.405 . S
C119 C152 1.587 . S
C120 C119 1.405 . S
C120 C121 1.332 . S
C120 C123 1.496 . S
C121 C116 1.418 . S
C121 C120 1.332 . S
C121 H179 0.929 . S
C122 C118 1.527 . S
C122 H180 0.959 . S
C122 H181 0.961 . S
C122 H182 0.961 . S
C123 C120 1.496 . S
C123 H183 0.960 . S
C123 H184 0.960 . S
C123 H185 0.961 . S
C124 C125 1.517 . S
C124 H187 0.961 . S
C124 H188 0.960 . S
C124 H189 0.959 . S
C125 C124 1.517 . S
C125 O173 1.468 . S
C125 H186 0.980 . S
C126 C127 1.349 . S
C126 C131 1.367 . S
C126 O173 1.408 . S
C127 C126 1.349 . S
C127 C128 1.407 . S
C127 H190 0.930 . S
C128 C127 1.407 . S
C128 C129 1.449 . S
C128 C132 1.535 . S
C129 C128 1.449 . S
C129 C130 1.384 . S
C129 C154 1.553 . S
C130 C129 1.384 . S
C130 C131 1.364 . S
C130 C133 1.450 . S
C131 C126 1.367 . S
C131 C130 1.364 . S
C131 H191 0.931 . S
C132 C128 1.535 . S
C132 H192 0.959 . S
C132 H193 0.961 . S
C132 H194 0.959 . S
C133 C130 1.450 . S
C133 H195 0.960 . S
C133 H196 0.960 . S
C133 H197 0.960 . S
C134 C135 1.309 . S
C134 C139 1.304 . S
C134 O172 1.435 . S
C135 C134 1.309 . S
C135 C136 1.476 . S
C135 H199 0.930 . S
C136 C135 1.476 . S
C136 C137 1.400 . S
C136 C140 1.567 . S
C137 C136 1.400 . S
C137 C138 1.373 . S
C137 C159 1.432 . S
C138 C137 1.373 . S
C138 C139 1.339 . S
C138 C141 1.530 . S
C139 C134 1.304 . S
C139 C138 1.339 . S
C139 H200 0.930 . S
C140 C136 1.567 . S
C140 H201 0.961 . S
C140 H202 0.960 . S
C140 H203 0.958 . S
C141 C138 1.530 . S
C141 H204 0.961 . S
C141 H205 0.960 . S
C141 H206 0.960 . S
C142 C143 1.530 . S
C142 H208 0.961 . S
C142 H209 0.961 . S
C142 H210 0.959 . S
C143 C142 1.530 . S
C143 O171 1.412 . S
C143 H207 0.980 . S
C144 C145 1.288 . S
C144 C149 1.377 . S
C144 O171 1.393 . S
C145 C144 1.288 . S
C145 C146 1.382 . S
C145 H211 0.932 . S
C146 C145 1.382 . S
C146 C147 1.413 1_565 S
C146 C150 1.500 1_565 S
C147 C146 1.413 1_545 S
C147 C148 1.380 1_545 S
C147 C161 1.497 . S
C148 C147 1.380 1_565 S
C148 C149 1.383 . S
C148 C151 1.603 . S
C149 C144 1.377 . S
C149 C148 1.383 . S
C149 H212 0.929 . S
C150 C146 1.500 1_545 S
C150 H213 0.961 . S
C150 H214 0.959 . S
C150 H215 0.959 . S
C151 C148 1.603 . S
C151 H216 0.960 . S
C151 H217 0.962 1_565 S
C151 H218 0.961 . S
C152 C119 1.587 . S
C152 C153 1.360 . S
C152 C165 1.412 . S
C153 C152 1.360 . S
C153 C154 1.365 1_565 S
C153 H219 0.929 . S
C154 C129 1.553 . S
C154 C153 1.365 1_545 S
C154 C155 1.404 . S
C155 C154 1.404 . S
C155 C156 1.395 . S
C155 C166 1.451 . S
C156 C155 1.395 . S
C156 C157 1.322 . S
C156 H220 0.930 . S
C157 C156 1.322 . S
C157 C158 1.459 . S
C157 H221 0.929 . S
C158 C157 1.459 . S
C158 C159 1.445 . S
C158 C167 1.395 . S
C159 C137 1.432 . S
C159 C158 1.445 . S
C159 C160 1.370 . S
C160 C159 1.370 . S
C160 C161 1.438 . S
C160 H222 0.930 . S
C161 C147 1.497 . S
C161 C160 1.438 . S
C161 C162 1.360 . S
C162 C161 1.360 . S
C162 C163 1.401 1_545 S
C162 C167 1.446 . S
C163 C162 1.401 1_565 S
C163 C164 1.347 . S
C163 H223 0.929 . S
C164 C163 1.347 . S
C164 C165 1.455 . S
C164 H224 0.930 . S
C165 C152 1.412 . S
C165 C164 1.455 . S
C165 C166 1.331 1_565 S
C166 C155 1.451 . S
C166 C165 1.331 1_545 S
C166 C167 1.497 . S
C167 C158 1.395 . S
C167 C162 1.446 . S
C167 C166 1.497 . S
C168 C169 1.582 . S
C168 H225 0.962 . S
C168 H226 0.959 . S
C168 H227 0.958 . S
C169 C168 1.582 . S
C169 O172 1.458 . S
C169 H198 0.980 . S
O170 C115 1.426 . S
O170 C116 1.334 . S
O171 C143 1.412 . S
O171 C144 1.393 . S
O172 C134 1.435 . S
O172 C169 1.458 . S
O173 C125 1.468 . S
O173 C126 1.408 . S
H174 C115 0.980 . S
H175 C114 0.959 . S
H176 C114 0.959 . S
H177 C114 0.960 . S
H178 C117 0.929 . S
H179 C121 0.929 . S
H180 C122 0.959 . S
H181 C122 0.961 . S
H182 C122 0.961 . S
H183 C123 0.960 . S
H184 C123 0.960 . S
H185 C123 0.961 . S
H186 C125 0.980 . S
H187 C124 0.961 . S
H188 C124 0.960 . S
H189 C124 0.959 . S
H190 C127 0.930 . S
H191 C131 0.931 . S
H192 C132 0.959 . S
H193 C132 0.961 . S
H194 C132 0.959 . S
H195 C133 0.960 . S
H196 C133 0.960 . S
H197 C133 0.960 . S
H198 C169 0.980 . S
H199 C135 0.930 . S
H200 C139 0.930 . S
H201 C140 0.961 . S
H202 C140 0.960 . S
H203 C140 0.958 . S
H204 C141 0.961 . S
H205 C141 0.960 . S
H206 C141 0.960 . S
H207 C143 0.980 . S
H208 C142 0.961 . S
H209 C142 0.961 . S
H210 C142 0.959 . S
H211 C145 0.932 . S
H212 C149 0.929 . S
H213 C150 0.961 . S
H214 C150 0.959 . S
H215 C150 0.959 . S
H216 C151 0.960 . S
H217 C151 0.962 1_545 S
H218 C151 0.961 . S
H219 C153 0.929 . S
H220 C156 0.930 . S
H221 C157 0.929 . S
H222 C160 0.930 . S
H223 C163 0.929 . S
H224 C164 0.930 . S
H225 C168 0.962 . S
H226 C168 0.959 . S
H227 C168 0.958 . S
C228 C229 1.560 . S
C228 H289 0.959 . S
C228 H290 0.959 . S
C228 H291 0.960 . S
C229 C228 1.560 . S
C229 O284 1.426 . S
C229 H288 0.980 . S
C230 C231 1.407 . S
C230 C235 1.418 . S
C230 O284 1.334 . S
C231 C230 1.407 . S
C231 C232 1.360 . S
C231 H292 0.929 . S
C232 C231 1.360 . S
C232 C233 1.401 . S
C232 C236 1.527 . S
C233 C232 1.401 . S
C233 C234 1.405 . S
C233 C266 1.587 . S
C234 C233 1.405 . S
C234 C235 1.332 . S
C234 C237 1.496 . S
C235 C230 1.418 . S
C235 C234 1.332 . S
C235 H293 0.929 . S
C236 C232 1.527 . S
C236 H294 0.959 . S
C236 H295 0.961 . S
C236 H296 0.961 . S
C237 C234 1.496 . S
C237 H297 0.960 . S
C237 H298 0.960 . S
C237 H299 0.961 . S
C238 C239 1.517 . S
C238 H301 0.961 . S
C238 H302 0.960 . S
C238 H303 0.959 . S
C239 C238 1.517 . S
C239 O287 1.468 . S
C239 H300 0.980 . S
C240 C241 1.349 . S
C240 C245 1.367 . S
C240 O287 1.408 . S
C241 C240 1.349 . S
C241 C242 1.407 . S
C241 H304 0.930 . S
C242 C241 1.407 . S
C242 C243 1.449 . S
C242 C246 1.535 . S
C243 C242 1.449 . S
C243 C244 1.384 . S
C243 C268 1.553 . S
C244 C243 1.384 . S
C244 C245 1.364 . S
C244 C247 1.450 . S
C245 C240 1.367 . S
C245 C244 1.364 . S
C245 H305 0.931 . S
C246 C242 1.535 . S
C246 H306 0.959 . S
C246 H307 0.961 . S
C246 H308 0.959 . S
C247 C244 1.450 . S
C247 H309 0.960 . S
C247 H310 0.960 . S
C247 H311 0.960 . S
C248 C249 1.309 . S
C248 C253 1.304 . S
C248 O286 1.435 . S
C249 C248 1.309 . S
C249 C250 1.476 . S
C249 H313 0.930 . S
C250 C249 1.476 . S
C250 C251 1.400 . S
C250 C254 1.567 . S
C251 C250 1.400 . S
C251 C252 1.373 . S
C251 C273 1.432 . S
C252 C251 1.373 . S
C252 C253 1.339 . S
C252 C255 1.530 . S
C253 C248 1.304 . S
C253 C252 1.339 . S
C253 H314 0.930 . S
C254 C250 1.567 . S
C254 H315 0.961 . S
C254 H316 0.960 . S
C254 H317 0.958 . S
C255 C252 1.530 . S
C255 H318 0.961 . S
C255 H319 0.960 . S
C255 H320 0.960 . S
C256 C257 1.530 . S
C256 H322 0.961 . S
C256 H323 0.961 . S
C256 H324 0.959 . S
C257 C256 1.530 . S
C257 O285 1.412 . S
C257 H321 0.980 . S
C258 C259 1.288 . S
C258 C263 1.377 . S
C258 O285 1.393 . S
C259 C258 1.288 . S
C259 C260 1.369 . S
C259 H325 0.932 . S
C260 C259 1.369 . S
C260 C261 1.398 . S
C260 C264 1.527 . S
C261 C260 1.398 . S
C261 C262 1.380 . S
C261 C275 1.497 . S
C262 C261 1.380 . S
C262 C263 1.383 . S
C262 C265 1.603 . S
C263 C258 1.377 . S
C263 C262 1.383 . S
C263 H326 0.929 . S
C264 C260 1.527 . S
C264 H327 0.961 . S
C264 H328 0.959 . S
C264 H329 0.959 . S
C265 C262 1.603 . S
C265 H330 0.960 . S
C265 H331 0.962 . S
C265 H332 0.961 . S
C266 C233 1.587 . S
C266 C267 1.360 . S
C266 C279 1.412 . S
C267 C266 1.360 . S
C267 C268 1.365 . S
C267 H333 0.929 . S
C268 C243 1.553 . S
C268 C267 1.365 . S
C268 C269 1.404 . S
C269 C268 1.404 . S
C269 C270 1.395 . S
C269 C280 1.451 . S
C270 C269 1.395 . S
C270 C271 1.322 . S
C270 H334 0.930 . S
C271 C270 1.322 . S
C271 C272 1.459 . S
C271 H335 0.929 . S
C272 C271 1.459 . S
C272 C273 1.445 . S
C272 C281 1.395 . S
C273 C251 1.432 . S
C273 C272 1.445 . S
C273 C274 1.370 . S
C274 C273 1.370 . S
C274 C275 1.438 . S
C274 H336 0.930 . S
C275 C261 1.497 . S
C275 C274 1.438 . S
C275 C276 1.360 . S
C276 C275 1.360 . S
C276 C277 1.401 . S
C276 C281 1.446 . S
C277 C276 1.401 . S
C277 C278 1.347 . S
C277 H337 0.929 . S
C278 C277 1.347 . S
C278 C279 1.455 . S
C278 H338 0.930 . S
C279 C266 1.412 . S
C279 C278 1.455 . S
C279 C280 1.331 . S
C280 C269 1.451 . S
C280 C279 1.331 . S
C280 C281 1.497 . S
C281 C272 1.395 . S
C281 C276 1.446 . S
C281 C280 1.497 . S
C282 C283 1.582 . S
C282 H339 0.962 . S
C282 H340 0.959 . S
C282 H341 0.958 . S
C283 C282 1.582 . S
C283 O286 1.458 . S
C283 H312 0.980 . S
O284 C229 1.426 . S
O284 C230 1.334 . S
O285 C257 1.412 . S
O285 C258 1.393 . S
O286 C248 1.435 . S
O286 C283 1.458 . S
O287 C239 1.468 . S
O287 C240 1.408 . S
H288 C229 0.980 . S
H289 C228 0.959 . S
H290 C228 0.959 . S
H291 C228 0.960 . S
H292 C231 0.929 . S
H293 C235 0.929 . S
H294 C236 0.959 . S
H295 C236 0.961 . S
H296 C236 0.961 . S
H297 C237 0.960 . S
H298 C237 0.960 . S
H299 C237 0.961 . S
H300 C239 0.980 . S
H301 C238 0.961 . S
H302 C238 0.960 . S
H303 C238 0.959 . S
H304 C241 0.930 . S
H305 C245 0.931 . S
H306 C246 0.959 . S
H307 C246 0.961 . S
H308 C246 0.959 . S
H309 C247 0.960 . S
H310 C247 0.960 . S
H311 C247 0.960 . S
H312 C283 0.980 . S
H313 C249 0.930 . S
H314 C253 0.930 . S
H315 C254 0.961 . S
H316 C254 0.960 . S
H317 C254 0.958 . S
H318 C255 0.961 . S
H319 C255 0.960 . S
H320 C255 0.960 . S
H321 C257 0.980 . S
H322 C256 0.961 . S
H323 C256 0.961 . S
H324 C256 0.959 . S
H325 C259 0.932 . S
H326 C263 0.929 . S
H327 C264 0.961 . S
H328 C264 0.959 . S
H329 C264 0.959 . S
H330 C265 0.960 . S
H331 C265 0.962 . S
H332 C265 0.961 . S
H333 C267 0.929 . S
H334 C270 0.930 . S
H335 C271 0.929 . S
H336 C274 0.930 . S
H337 C277 0.929 . S
H338 C278 0.930 . S
H339 C282 0.962 . S
H340 C282 0.959 . S
H341 C282 0.958 . S
C342 C343 1.560 . S
C342 H403 0.959 . S
C342 H404 0.959 . S
C342 H405 0.960 . S
C343 C342 1.560 . S
C343 O398 1.426 . S
C343 H402 0.980 . S
C344 C345 1.407 . S
C344 C349 1.418 . S
C344 O398 1.334 . S
C345 C344 1.407 . S
C345 C346 1.360 . S
C345 H406 0.929 . S
C346 C345 1.360 . S
C346 C347 1.401 . S
C346 C350 1.527 . S
C347 C346 1.401 . S
C347 C348 1.405 . S
C347 C380 1.587 . S
C348 C347 1.405 . S
C348 C349 1.332 . S
C348 C351 1.496 . S
C349 C344 1.418 . S
C349 C348 1.332 . S
C349 H407 0.929 . S
C350 C346 1.527 . S
C350 H408 0.959 . S
C350 H409 0.961 . S
C350 H410 0.961 . S
C351 C348 1.496 . S
C351 H411 0.960 . S
C351 H412 0.960 . S
C351 H413 0.961 . S
C352 C353 1.517 . S
C352 H415 0.961 . S
C352 H416 0.960 . S
C352 H417 0.959 . S
C353 C352 1.517 . S
C353 O401 1.468 . S
C353 H414 0.980 . S
C354 C355 1.349 . S
C354 C359 1.367 . S
C354 O401 1.408 . S
C355 C354 1.349 . S
C355 C356 1.407 . S
C355 H418 0.930 . S
C356 C355 1.407 . S
C356 C357 1.449 1_655 S
C356 C360 1.535 1_655 S
C357 C356 1.449 1_455 S
C357 C358 1.384 1_455 S
C357 C382 1.553 . S
C358 C357 1.384 1_655 S
C358 C359 1.364 . S
C358 C361 1.450 1_655 S
C359 C354 1.367 . S
C359 C358 1.364 . S
C359 H419 0.931 . S
C360 C356 1.535 1_455 S
C360 H420 0.959 . S
C360 H421 0.961 . S
C360 H422 0.959 1_455 S
C361 C358 1.450 1_455 S
C361 H423 0.960 1_455 S
C361 H424 0.960 . S
C361 H425 0.960 1_455 S
C362 C363 1.309 . S
C362 C367 1.304 . S
C362 O400 1.435 . S
C363 C362 1.309 . S
C363 C364 1.476 . S
C363 H427 0.930 . S
C364 C363 1.476 . S
C364 C365 1.400 . S
C364 C368 1.567 . S
C365 C364 1.400 . S
C365 C366 1.373 . S
C365 C387 1.432 . S
C366 C365 1.373 . S
C366 C367 1.339 . S
C366 C369 1.530 . S
C367 C362 1.304 . S
C367 C366 1.339 . S
C367 H428 0.930 . S
C368 C364 1.567 . S
C368 H429 0.961 . S
C368 H430 0.960 . S
C368 H431 0.958 . S
C369 C366 1.530 . S
C369 H432 0.961 . S
C369 H433 0.960 . S
C369 H434 0.960 . S
C370 C371 1.530 . S
C370 H436 0.961 . S
C370 H437 0.961 . S
C370 H438 0.959 . S
C371 C370 1.530 . S
C371 O399 1.412 . S
C371 H435 0.980 . S
C372 C373 1.288 . S
C372 C377 1.377 . S
C372 O399 1.393 . S
C373 C372 1.288 . S
C373 C374 1.369 . S
C373 H439 0.932 . S
C374 C373 1.369 . S
C374 C375 1.398 . S
C374 C378 1.527 . S
C375 C374 1.398 . S
C375 C376 1.380 . S
C375 C389 1.497 . S
C376 C375 1.380 . S
C376 C377 1.383 . S
C376 C379 1.603 . S
C377 C372 1.377 . S
C377 C376 1.383 . S
C377 H440 0.929 . S
C378 C374 1.527 . S
C378 H441 0.961 . S
C378 H442 0.959 . S
C378 H443 0.959 . S
C379 C376 1.603 . S
C379 H444 0.960 . S
C379 H445 0.962 . S
C379 H446 0.961 . S
C380 C347 1.587 . S
C380 C381 1.360 . S
C380 C393 1.412 . S
C381 C380 1.360 . S
C381 C382 1.365 . S
C381 H447 0.929 . S
C382 C357 1.553 . S
C382 C381 1.365 . S
C382 C383 1.404 . S
C383 C382 1.404 . S
C383 C384 1.395 1_455 S
C383 C394 1.451 . S
C384 C383 1.395 1_655 S
C384 C385 1.322 . S
C384 H448 0.930 . S
C385 C384 1.322 . S
C385 C386 1.459 . S
C385 H449 0.929 . S
C386 C385 1.459 . S
C386 C387 1.445 . S
C386 C395 1.395 1_655 S
C387 C365 1.432 . S
C387 C386 1.445 . S
C387 C388 1.370 . S
C388 C387 1.370 . S
C388 C389 1.438 1_655 S
C388 H450 0.930 . S
C389 C375 1.497 . S
C389 C388 1.438 1_455 S
C389 C390 1.360 . S
C390 C389 1.360 . S
C390 C391 1.401 . S
C390 C395 1.446 . S
C391 C390 1.401 . S
C391 C392 1.347 . S
C391 H451 0.929 . S
C392 C391 1.347 . S
C392 C393 1.455 . S
C392 H452 0.930 . S
C393 C380 1.412 . S
C393 C392 1.455 . S
C393 C394 1.331 . S
C394 C383 1.451 . S
C394 C393 1.331 . S
C394 C395 1.497 . S
C395 C386 1.395 1_455 S
C395 C390 1.446 . S
C395 C394 1.497 . S
C396 C397 1.582 . S
C396 H453 0.962 . S
C396 H454 0.959 . S
C396 H455 0.958 . S
C397 C396 1.582 . S
C397 O400 1.458 . S
C397 H426 0.980 . S
O398 C343 1.426 . S
O398 C344 1.334 . S
O399 C371 1.412 . S
O399 C372 1.393 . S
O400 C362 1.435 . S
O400 C397 1.458 . S
O401 C353 1.468 . S
O401 C354 1.408 . S
H402 C343 0.980 . S
H403 C342 0.959 . S
H404 C342 0.959 . S
H405 C342 0.960 . S
H406 C345 0.929 . S
H407 C349 0.929 . S
H408 C350 0.959 . S
H409 C350 0.961 . S
H410 C350 0.961 . S
H411 C351 0.960 . S
H412 C351 0.960 . S
H413 C351 0.961 . S
H414 C353 0.980 . S
H415 C352 0.961 . S
H416 C352 0.960 . S
H417 C352 0.959 . S
H418 C355 0.930 . S
H419 C359 0.931 . S
H420 C360 0.959 . S
H421 C360 0.961 . S
H422 C360 0.959 1_655 S
H423 C361 0.960 1_655 S
H424 C361 0.960 . S
H425 C361 0.960 1_655 S
H426 C397 0.980 . S
H427 C363 0.930 . S
H428 C367 0.930 . S
H429 C368 0.961 . S
H430 C368 0.960 . S
H431 C368 0.958 . S
H432 C369 0.961 . S
H433 C369 0.960 . S
H434 C369 0.960 . S
H435 C371 0.980 . S
H436 C370 0.961 . S
H437 C370 0.961 . S
H438 C370 0.959 . S
H439 C373 0.932 . S
H440 C377 0.929 . S
H441 C378 0.961 . S
H442 C378 0.959 . S
H443 C378 0.959 . S
H444 C379 0.960 . S
H445 C379 0.962 . S
H446 C379 0.961 . S
H447 C381 0.929 . S
H448 C384 0.930 . S
H449 C385 0.929 . S
H450 C388 0.930 . S
H451 C391 0.929 . S
H452 C392 0.930 . S
H453 C396 0.962 . S
H454 C396 0.959 . S
H455 C396 0.958 . S
C456 C457 1.560 . S
C456 H517 0.959 . S
C456 H518 0.959 . S
C456 H519 0.960 . S
C457 C456 1.560 . S
C457 O512 1.426 . S
C457 H516 0.980 . S
C458 C459 1.407 . S
C458 C463 1.418 . S
C458 O512 1.334 . S
C459 C458 1.407 . S
C459 C460 1.360 . S
C459 H520 0.929 . S
C460 C459 1.360 . S
C460 C461 1.401 . S
C460 C464 1.527 . S
C461 C460 1.401 . S
C461 C462 1.405 . S
C461 C494 1.587 . S
C462 C461 1.405 . S
C462 C463 1.332 . S
C462 C465 1.496 . S
C463 C458 1.418 . S
C463 C462 1.332 . S
C463 H521 0.929 . S
C464 C460 1.527 . S
C464 H522 0.959 . S
C464 H523 0.961 . S
C464 H524 0.961 . S
C465 C462 1.496 . S
C465 H525 0.960 . S
C465 H526 0.960 . S
C465 H527 0.961 . S
C466 C467 1.517 . S
C466 H529 0.961 . S
C466 H530 0.960 . S
C466 H531 0.959 . S
C467 C466 1.517 . S
C467 O515 1.468 . S
C467 H528 0.980 . S
C468 C469 1.349 . S
C468 C473 1.367 . S
C468 O515 1.408 . S
C469 C468 1.349 . S
C469 C470 1.407 . S
C469 H532 0.930 . S
C470 C469 1.407 . S
C470 C471 1.449 . S
C470 C474 1.535 . S
C471 C470 1.449 . S
C471 C472 1.384 . S
C471 C496 1.553 . S
C472 C471 1.384 . S
C472 C473 1.364 . S
C472 C475 1.450 . S
C473 C468 1.367 . S
C473 C472 1.364 . S
C473 H533 0.931 . S
C474 C470 1.535 . S
C474 H534 0.959 . S
C474 H535 0.961 . S
C474 H536 0.959 . S
C475 C472 1.450 . S
C475 H537 0.960 . S
C475 H538 0.960 . S
C475 H539 0.960 . S
C476 C477 1.309 . S
C476 C481 1.304 . S
C476 O514 1.435 . S
C477 C476 1.309 . S
C477 C478 1.476 . S
C477 H541 0.930 . S
C478 C477 1.476 . S
C478 C479 1.400 . S
C478 C482 1.567 . S
C479 C478 1.400 . S
C479 C480 1.373 . S
C479 C501 1.432 . S
C480 C479 1.373 . S
C480 C481 1.339 . S
C480 C483 1.530 . S
C481 C476 1.304 . S
C481 C480 1.339 . S
C481 H542 0.930 . S
C482 C478 1.567 . S
C482 H543 0.961 . S
C482 H544 0.960 . S
C482 H545 0.958 . S
C483 C480 1.530 . S
C483 H546 0.961 . S
C483 H547 0.960 . S
C483 H548 0.960 . S
C484 C485 1.530 . S
C484 H550 0.961 . S
C484 H551 0.961 . S
C484 H552 0.959 . S
C485 C484 1.530 . S
C485 O513 1.412 . S
C485 H549 0.980 . S
C486 C487 1.288 . S
C486 C491 1.377 . S
C486 O513 1.393 . S
C487 C486 1.288 . S
C487 C488 1.369 1_565 S
C487 H553 0.932 . S
C488 C487 1.369 1_545 S
C488 C489 1.398 . S
C488 C492 1.527 . S
C489 C488 1.398 . S
C489 C490 1.380 1_545 S
C489 C503 1.497 . S
C490 C489 1.380 1_565 S
C490 C491 1.383 . S
C490 C493 1.603 . S
C491 C486 1.377 . S
C491 C490 1.383 . S
C491 H554 0.929 . S
C492 C488 1.527 . S
C492 H555 0.961 . S
C492 H556 0.959 . S
C492 H557 0.959 . S
C493 C490 1.603 . S
C493 H558 0.960 . S
C493 H559 0.962 1_565 S
C493 H560 0.961 . S
C494 C461 1.587 . S
C494 C495 1.360 . S
C494 C507 1.412 . S
C495 C494 1.360 . S
C495 C496 1.365 1_565 S
C495 H561 0.929 . S
C496 C471 1.553 . S
C496 C495 1.365 1_545 S
C496 C497 1.404 . S
C497 C496 1.404 . S
C497 C498 1.395 . S
C497 C508 1.451 . S
C498 C497 1.395 . S
C498 C499 1.322 . S
C498 H562 0.930 . S
C499 C498 1.322 . S
C499 C500 1.459 . S
C499 H563 0.929 . S
C500 C499 1.459 . S
C500 C501 1.445 1_556 S
C500 C509 1.395 . S
C501 C479 1.432 . S
C501 C500 1.445 1_554 S
C501 C502 1.370 . S
C502 C501 1.370 . S
C502 C503 1.438 . S
C502 H564 0.930 . S
C503 C489 1.497 . S
C503 C502 1.438 . S
C503 C504 1.360 . S
C504 C503 1.360 . S
C504 C505 1.401 1_545 S
C504 C509 1.446 1_554 S
C505 C504 1.401 1_565 S
C505 C506 1.347 1_554 S
C505 H565 0.929 . S
C506 C505 1.347 1_556 S
C506 C507 1.455 . S
C506 H566 0.930 . S
C507 C494 1.412 . S
C507 C506 1.455 . S
C507 C508 1.331 1_565 S
C508 C497 1.451 . S
C508 C507 1.331 1_545 S
C508 C509 1.497 . S
C509 C500 1.395 . S
C509 C504 1.446 1_556 S
C509 C508 1.497 . S
C510 C511 1.582 . S
C510 H567 0.962 . S
C510 H568 0.959 . S
C510 H569 0.958 . S
C511 C510 1.582 . S
C511 O514 1.458 . S
C511 H540 0.980 . S
O512 C457 1.426 . S
O512 C458 1.334 . S
O513 C485 1.412 . S
O513 C486 1.393 . S
O514 C476 1.435 . S
O514 C511 1.458 . S
O515 C467 1.468 . S
O515 C468 1.408 . S
H516 C457 0.980 . S
H517 C456 0.959 . S
H518 C456 0.959 . S
H519 C456 0.960 . S
H520 C459 0.929 . S
H521 C463 0.929 . S
H522 C464 0.959 . S
H523 C464 0.961 . S
H524 C464 0.961 . S
H525 C465 0.960 . S
H526 C465 0.960 . S
H527 C465 0.961 . S
H528 C467 0.980 . S
H529 C466 0.961 . S
H530 C466 0.960 . S
H531 C466 0.959 . S
H532 C469 0.930 . S
H533 C473 0.931 . S
H534 C474 0.959 . S
H535 C474 0.961 . S
H536 C474 0.959 . S
H537 C475 0.960 . S
H538 C475 0.960 . S
H539 C475 0.960 . S
H540 C511 0.980 . S
H541 C477 0.930 . S
H542 C481 0.930 . S
H543 C482 0.961 . S
H544 C482 0.960 . S
H545 C482 0.958 . S
H546 C483 0.961 . S
H547 C483 0.960 . S
H548 C483 0.960 . S
H549 C485 0.980 . S
H550 C484 0.961 . S
H551 C484 0.961 . S
H552 C484 0.959 . S
H553 C487 0.932 . S
H554 C491 0.929 . S
H555 C492 0.961 . S
H556 C492 0.959 . S
H557 C492 0.959 . S
H558 C493 0.960 . S
H559 C493 0.962 1_545 S
H560 C493 0.961 . S
H561 C495 0.929 . S
H562 C498 0.930 . S
H563 C499 0.929 . S
H564 C502 0.930 . S
H565 C505 0.929 . S
H566 C506 0.930 . S
H567 C510 0.962 . S
H568 C510 0.959 . S
H569 C510 0.958 . S
C570 C571 1.560 . S
C570 H631 0.959 . S
C570 H632 0.959 . S
C570 H633 0.960 . S
C571 C570 1.560 . S
C571 O626 1.426 . S
C571 H630 0.980 . S
C572 C573 1.407 . S
C572 C577 1.418 . S
C572 O626 1.334 . S
C573 C572 1.407 . S
C573 C574 1.360 . S
C573 H634 0.929 . S
C574 C573 1.360 . S
C574 C575 1.401 . S
C574 C578 1.527 . S
C575 C574 1.401 . S
C575 C576 1.405 . S
C575 C608 1.587 . S
C576 C575 1.405 . S
C576 C577 1.332 . S
C576 C579 1.496 . S
C577 C572 1.418 . S
C577 C576 1.332 . S
C577 H635 0.929 . S
C578 C574 1.527 . S
C578 H636 0.959 . S
C578 H637 0.961 . S
C578 H638 0.961 . S
C579 C576 1.496 . S
C579 H639 0.960 . S
C579 H640 0.960 . S
C579 H641 0.961 . S
C580 C581 1.517 . S
C580 H643 0.961 . S
C580 H644 0.960 . S
C580 H645 0.959 . S
C581 C580 1.517 . S
C581 O629 1.468 . S
C581 H642 0.980 . S
C582 C583 1.349 . S
C582 C587 1.367 . S
C582 O629 1.408 . S
C583 C582 1.349 . S
C583 C584 1.407 . S
C583 H646 0.930 . S
C584 C583 1.407 . S
C584 C585 1.449 . S
C584 C588 1.535 . S
C585 C584 1.449 . S
C585 C586 1.384 . S
C585 C610 1.553 . S
C586 C585 1.384 . S
C586 C587 1.364 . S
C586 C589 1.450 . S
C587 C582 1.367 . S
C587 C586 1.364 . S
C587 H647 0.931 . S
C588 C584 1.535 . S
C588 H648 0.959 . S
C588 H649 0.961 . S
C588 H650 0.959 . S
C589 C586 1.450 . S
C589 H651 0.960 . S
C589 H652 0.960 . S
C589 H653 0.960 . S
C590 C591 1.309 . S
C590 C595 1.304 . S
C590 O628 1.435 . S
C591 C590 1.309 . S
C591 C592 1.476 . S
C591 H655 0.930 . S
C592 C591 1.476 . S
C592 C593 1.400 . S
C592 C596 1.567 . S
C593 C592 1.400 . S
C593 C594 1.373 . S
C593 C615 1.432 . S
C594 C593 1.373 . S
C594 C595 1.339 . S
C594 C597 1.530 . S
C595 C590 1.304 . S
C595 C594 1.339 . S
C595 H656 0.930 . S
C596 C592 1.567 . S
C596 H657 0.961 . S
C596 H658 0.960 . S
C596 H659 0.958 . S
C597 C594 1.530 . S
C597 H660 0.961 . S
C597 H661 0.960 . S
C597 H662 0.960 . S
C598 C599 1.530 . S
C598 H664 0.961 . S
C598 H665 0.961 . S
C598 H666 0.959 . S
C599 C598 1.530 . S
C599 O627 1.412 . S
C599 H663 0.980 . S
C600 C601 1.288 . S
C600 C605 1.377 . S
C600 O627 1.393 . S
C601 C600 1.288 . S
C601 C602 1.369 . S
C601 H667 0.932 . S
C602 C601 1.369 . S
C602 C603 1.398 . S
C602 C606 1.527 . S
C603 C602 1.398 . S
C603 C604 1.380 . S
C603 C617 1.497 . S
C604 C603 1.380 . S
C604 C605 1.383 . S
C604 C607 1.603 . S
C605 C600 1.377 . S
C605 C604 1.383 . S
C605 H668 0.929 . S
C606 C602 1.527 . S
C606 H669 0.961 . S
C606 H670 0.959 . S
C606 H671 0.959 . S
C607 C604 1.603 . S
C607 H672 0.960 . S
C607 H673 0.962 . S
C607 H674 0.961 . S
C608 C575 1.587 . S
C608 C609 1.360 . S
C608 C621 1.412 . S
C609 C608 1.360 . S
C609 C610 1.365 . S
C609 H675 0.929 . S
C610 C585 1.553 . S
C610 C609 1.365 . S
C610 C611 1.404 . S
C611 C610 1.404 . S
C611 C612 1.395 . S
C611 C622 1.451 . S
C612 C611 1.395 . S
C612 C613 1.322 . S
C612 H676 0.930 . S
C613 C612 1.322 . S
C613 C614 1.459 . S
C613 H677 0.929 . S
C614 C613 1.459 . S
C614 C615 1.445 . S
C614 C623 1.395 . S
C615 C593 1.432 . S
C615 C614 1.445 . S
C615 C616 1.370 . S
C616 C615 1.370 . S
C616 C617 1.438 . S
C616 H678 0.930 . S
C617 C603 1.497 . S
C617 C616 1.438 . S
C617 C618 1.360 . S
C618 C617 1.360 . S
C618 C619 1.401 . S
C618 C623 1.446 . S
C619 C618 1.401 . S
C619 C620 1.347 . S
C619 H679 0.929 . S
C620 C619 1.347 . S
C620 C621 1.455 . S
C620 H680 0.930 . S
C621 C608 1.412 . S
C621 C620 1.455 . S
C621 C622 1.331 . S
C622 C611 1.451 . S
C622 C621 1.331 . S
C622 C623 1.497 . S
C623 C614 1.395 . S
C623 C618 1.446 . S
C623 C622 1.497 . S
C624 C625 1.582 . S
C624 H681 0.962 . S
C624 H682 0.959 . S
C624 H683 0.958 . S
C625 C624 1.582 . S
C625 O628 1.458 . S
C625 H654 0.980 . S
O626 C571 1.426 . S
O626 C572 1.334 . S
O627 C599 1.412 . S
O627 C600 1.393 . S
O628 C590 1.435 . S
O628 C625 1.458 . S
O629 C581 1.468 . S
O629 C582 1.408 . S
H630 C571 0.980 . S
H631 C570 0.959 . S
H632 C570 0.959 . S
H633 C570 0.960 . S
H634 C573 0.929 . S
H635 C577 0.929 . S
H636 C578 0.959 . S
H637 C578 0.961 . S
H638 C578 0.961 . S
H639 C579 0.960 . S
H640 C579 0.960 . S
H641 C579 0.961 . S
H642 C581 0.980 . S
H643 C580 0.961 . S
H644 C580 0.960 . S
H645 C580 0.959 . S
H646 C583 0.930 . S
H647 C587 0.931 . S
H648 C588 0.959 . S
H649 C588 0.961 . S
H650 C588 0.959 . S
H651 C589 0.960 . S
H652 C589 0.960 . S
H653 C589 0.960 . S
H654 C625 0.980 . S
H655 C591 0.930 . S
H656 C595 0.930 . S
H657 C596 0.961 . S
H658 C596 0.960 . S
H659 C596 0.958 . S
H660 C597 0.961 . S
H661 C597 0.960 . S
H662 C597 0.960 . S
H663 C599 0.980 . S
H664 C598 0.961 . S
H665 C598 0.961 . S
H666 C598 0.959 . S
H667 C601 0.932 . S
H668 C605 0.929 . S
H669 C606 0.961 . S
H670 C606 0.959 . S
H671 C606 0.959 . S
H672 C607 0.960 . S
H673 C607 0.962 . S
H674 C607 0.961 . S
H675 C609 0.929 . S
H676 C612 0.930 . S
H677 C613 0.929 . S
H678 C616 0.930 . S
H679 C619 0.929 . S
H680 C620 0.930 . S
H681 C624 0.962 . S
H682 C624 0.959 . S
H683 C624 0.958 . S
Mn684 O689 2.095 . S
Mn684 O699 2.162 . S
Mn684 O700 2.297 . S
Mn684 O708 2.385 . S
Mn684 O709 2.209 . S
Mn684 O710 2.094 . S
Mn685 O690 2.121 . S
Mn685 N692 2.257 . S
Mn685 N701 2.282 . S
Mn685 O709 2.215 . S
Mn685 O711 2.117 . S
C686 O708 1.234 . S
C686 O709 1.283 . S
C687 O699 1.281 . S
C687 O700 1.236 . S
C688 O710 1.240 . S
C688 O711 1.264 . S
O689 Mn684 2.095 . S
O689 C698 1.250 . S
O690 Mn685 2.121 . S
O690 C698 1.258 . S
C691 N692 1.326 . S
C691 C695 1.460 . S
C691 H697 0.929 . S
N692 Mn685 2.257 . S
N692 C691 1.326 . S
N692 C696 1.362 . S
C693 C694 1.258 . S
C693 C696 1.431 . S
C693 C713 1.449 . S
C694 C693 1.258 . S
C694 C695 1.477 . S
C694 H714 0.931 . S
C695 C691 1.460 . S
C695 C694 1.477 . S
C695 H715 0.930 . S
C696 N692 1.362 . S
C696 C693 1.431 . S
C696 C706 1.476 . S
H697 C691 0.929 . S
C698 O689 1.250 . S
C698 O690 1.258 . S
O699 Mn684 2.162 . S
O699 C687 1.281 . S
O700 Mn684 2.297 . S
O700 C687 1.236 . S
N701 Mn685 2.282 . S
N701 C702 1.328 . S
N701 C706 1.318 . S
C702 N701 1.328 . S
C702 C703 1.457 . S
C702 H707 0.929 . S
C703 C702 1.457 . S
C703 C704 1.291 . S
C703 H716 0.931 . S
C704 C703 1.291 . S
C704 C705 1.373 . S
C704 H717 0.929 . S
C705 C704 1.373 . S
C705 C706 1.396 . S
C705 C712 1.403 . S
C706 C696 1.476 . S
C706 N701 1.318 . S
C706 C705 1.396 . S
H707 C702 0.929 . S
O708 Mn684 2.385 . S
O708 C686 1.234 . S
O709 Mn684 2.209 . S
O709 Mn685 2.215 . S
O709 C686 1.283 . S
O710 Mn684 2.094 . S
O710 C688 1.240 . S
O711 Mn685 2.117 . S
O711 C688 1.264 . S
C712 C705 1.403 . S
C712 C713 1.399 . S
C712 H718 0.929 . S
C713 C693 1.449 . S
C713 C712 1.399 . S
C713 H719 0.930 . S
H714 C694 0.931 . S
H715 C695 0.930 . S
H716 C703 0.931 . S
H717 C704 0.929 . S
H718 C712 0.929 . S
H719 C713 0.930 . S
Mn720 O725 2.095 . S
Mn720 O735 2.162 . S
Mn720 O736 2.297 . S
Mn720 O744 2.385 . S
Mn720 O745 2.209 . S
Mn720 O746 2.094 . S
Mn721 O726 2.121 . S
Mn721 N728 2.257 . S
Mn721 N737 2.282 . S
Mn721 O745 2.215 . S
Mn721 O747 2.117 . S
C722 O744 1.234 . S
C722 O745 1.283 . S
C723 O735 1.281 . S
C723 O736 1.236 . S
C724 O746 1.240 . S
C724 O747 1.264 . S
O725 Mn720 2.095 . S
O725 C734 1.250 . S
O726 Mn721 2.121 . S
O726 C734 1.258 . S
C727 N728 1.326 . S
C727 C731 1.460 . S
C727 H733 0.929 . S
N728 Mn721 2.257 . S
N728 C727 1.326 . S
N728 C732 1.362 . S
C729 C730 1.258 . S
C729 C732 1.431 . S
C729 C749 1.449 . S
C730 C729 1.258 . S
C730 C731 1.477 . S
C730 H750 0.931 . S
C731 C727 1.460 . S
C731 C730 1.477 . S
C731 H751 0.930 . S
C732 N728 1.362 . S
C732 C729 1.431 . S
C732 C742 1.476 . S
H733 C727 0.929 . S
C734 O725 1.250 . S
C734 O726 1.258 . S
O735 Mn720 2.162 . S
O735 C723 1.281 . S
O736 Mn720 2.297 . S
O736 C723 1.236 . S
N737 Mn721 2.282 . S
N737 C738 1.328 . S
N737 C742 1.318 . S
C738 N737 1.328 . S
C738 C739 1.457 . S
C738 H743 0.929 . S
C739 C738 1.457 . S
C739 C740 1.291 . S
C739 H752 0.931 . S
C740 C739 1.291 . S
C740 C741 1.373 . S
C740 H753 0.929 . S
C741 C740 1.373 . S
C741 C742 1.396 . S
C741 C748 1.403 . S
C742 C732 1.476 . S
C742 N737 1.318 . S
C742 C741 1.396 . S
H743 C738 0.929 . S
O744 Mn720 2.385 . S
O744 C722 1.234 . S
O745 Mn720 2.209 . S
O745 Mn721 2.215 . S
O745 C722 1.283 . S
O746 Mn720 2.094 . S
O746 C724 1.240 . S
O747 Mn721 2.117 . S
O747 C724 1.264 . S
C748 C741 1.403 . S
C748 C749 1.399 . S
C748 H754 0.929 . S
C749 C729 1.449 . S
C749 C748 1.399 . S
C749 H755 0.930 . S
H750 C730 0.931 . S
H751 C731 0.930 . S
H752 C739 0.931 . S
H753 C740 0.929 . S
H754 C748 0.929 . S
H755 C749 0.930 . S
Mn756 O761 2.095 . S
Mn756 O771 2.162 . S
Mn756 O772 2.297 . S
Mn756 O780 2.385 . S
Mn756 O781 2.209 . S
Mn756 O782 2.094 . S
Mn757 O762 2.121 . S
Mn757 N764 2.257 . S
Mn757 N773 2.282 . S
Mn757 O781 2.215 . S
Mn757 O783 2.117 . S
C758 O780 1.234 . S
C758 O781 1.283 . S
C759 O771 1.281 . S
C759 O772 1.236 . S
C760 O782 1.240 . S
C760 O783 1.264 . S
O761 Mn756 2.095 . S
O761 C770 1.250 . S
O762 Mn757 2.121 . S
O762 C770 1.258 . S
C763 N764 1.326 . S
C763 C767 1.460 . S
C763 H769 0.929 . S
N764 Mn757 2.257 . S
N764 C763 1.326 . S
N764 C768 1.362 . S
C765 C766 1.258 . S
C765 C768 1.431 . S
C765 C785 1.449 . S
C766 C765 1.258 . S
C766 C767 1.477 . S
C766 H786 0.931 . S
C767 C763 1.460 . S
C767 C766 1.477 . S
C767 H787 0.930 . S
C768 N764 1.362 . S
C768 C765 1.431 . S
C768 C778 1.476 . S
H769 C763 0.929 . S
C770 O761 1.250 . S
C770 O762 1.258 . S
O771 Mn756 2.162 . S
O771 C759 1.281 . S
O772 Mn756 2.297 . S
O772 C759 1.236 . S
N773 Mn757 2.282 . S
N773 C774 1.328 . S
N773 C778 1.318 . S
C774 N773 1.328 . S
C774 C775 1.457 . S
C774 H779 0.929 . S
C775 C774 1.457 . S
C775 C776 1.291 . S
C775 H788 0.931 . S
C776 C775 1.291 . S
C776 C777 1.373 . S
C776 H789 0.929 . S
C777 C776 1.373 . S
C777 C778 1.396 . S
C777 C784 1.403 . S
C778 C768 1.476 . S
C778 N773 1.318 . S
C778 C777 1.396 . S
H779 C774 0.929 . S
O780 Mn756 2.385 . S
O780 C758 1.234 . S
O781 Mn756 2.209 . S
O781 Mn757 2.215 . S
O781 C758 1.283 . S
O782 Mn756 2.094 . S
O782 C760 1.240 . S
O783 Mn757 2.117 . S
O783 C760 1.264 . S
C784 C777 1.403 . S
C784 C785 1.399 . S
C784 H790 0.929 . S
C785 C765 1.449 . S
C785 C784 1.399 . S
C785 H791 0.930 . S
H786 C766 0.931 . S
H787 C767 0.930 . S
H788 C775 0.931 . S
H789 C776 0.929 . S
H790 C784 0.929 . S
H791 C785 0.930 . S
Mn792 O797 2.095 . S
Mn792 O807 2.162 . S
Mn792 O808 2.297 . S
Mn792 O816 2.385 . S
Mn792 O817 2.209 . S
Mn792 O818 2.094 . S
Mn793 O798 2.121 . S
Mn793 N800 2.257 . S
Mn793 N809 2.282 . S
Mn793 O817 2.215 . S
Mn793 O819 2.117 . S
C794 O816 1.234 . S
C794 O817 1.283 . S
C795 O807 1.281 . S
C795 O808 1.236 . S
C796 O818 1.240 . S
C796 O819 1.264 . S
O797 Mn792 2.095 . S
O797 C806 1.250 . S
O798 Mn793 2.121 . S
O798 C806 1.258 . S
C799 N800 1.326 . S
C799 C803 1.460 . S
C799 H805 0.929 . S
N800 Mn793 2.257 . S
N800 C799 1.326 . S
N800 C804 1.362 . S
C801 C802 1.258 . S
C801 C804 1.431 . S
C801 C821 1.449 . S
C802 C801 1.258 . S
C802 C803 1.477 . S
C802 H822 0.931 . S
C803 C799 1.460 . S
C803 C802 1.477 . S
C803 H823 0.930 . S
C804 N800 1.362 . S
C804 C801 1.431 . S
C804 C814 1.476 . S
H805 C799 0.929 . S
C806 O797 1.250 . S
C806 O798 1.258 . S
O807 Mn792 2.162 . S
O807 C795 1.281 . S
O808 Mn792 2.297 . S
O808 C795 1.236 . S
N809 Mn793 2.282 . S
N809 C810 1.328 . S
N809 C814 1.318 . S
C810 N809 1.328 . S
C810 C811 1.457 . S
C810 H815 0.929 . S
C811 C810 1.457 . S
C811 C812 1.291 . S
C811 H824 0.931 . S
C812 C811 1.291 . S
C812 C813 1.373 . S
C812 H825 0.929 . S
C813 C812 1.373 . S
C813 C814 1.396 . S
C813 C820 1.403 . S
C814 C804 1.476 . S
C814 N809 1.318 . S
C814 C813 1.396 . S
H815 C810 0.929 . S
O816 Mn792 2.385 . S
O816 C794 1.234 . S
O817 Mn792 2.209 . S
O817 Mn793 2.215 . S
O817 C794 1.283 . S
O818 Mn792 2.094 . S
O818 C796 1.240 . S
O819 Mn793 2.117 . S
O819 C796 1.264 . S
C820 C813 1.403 . S
C820 C821 1.399 . S
C820 H826 0.929 . S
C821 C801 1.449 . S
C821 C820 1.399 . S
C821 H827 0.930 . S
H822 C802 0.931 . S
H823 C803 0.930 . S
H824 C811 0.931 . S
H825 C812 0.929 . S
H826 C820 0.929 . S
H827 C821 0.930 . S
Mn828 O833 2.095 . S
Mn828 O843 2.162 . S
Mn828 O844 2.297 . S
Mn828 O852 2.385 . S
Mn828 O853 2.209 . S
Mn828 O854 2.094 . S
Mn829 O834 2.121 . S
Mn829 N836 2.257 . S
Mn829 N845 2.282 . S
Mn829 O853 2.215 . S
Mn829 O855 2.117 . S
C830 O852 1.234 . S
C830 O853 1.283 . S
C831 O843 1.281 . S
C831 O844 1.236 . S
C832 O854 1.240 . S
C832 O855 1.264 . S
O833 Mn828 2.095 . S
O833 C842 1.250 . S
O834 Mn829 2.121 . S
O834 C842 1.258 . S
C835 N836 1.326 . S
C835 C839 1.460 . S
C835 H841 0.929 . S
N836 Mn829 2.257 . S
N836 C835 1.326 . S
N836 C840 1.362 . S
C837 C838 1.258 . S
C837 C840 1.431 . S
C837 C857 1.449 . S
C838 C837 1.258 . S
C838 C839 1.477 . S
C838 H858 0.931 . S
C839 C835 1.460 . S
C839 C838 1.477 . S
C839 H859 0.930 . S
C840 N836 1.362 . S
C840 C837 1.431 . S
C840 C850 1.476 . S
H841 C835 0.929 . S
C842 O833 1.250 . S
C842 O834 1.258 . S
O843 Mn828 2.162 . S
O843 C831 1.281 . S
O844 Mn828 2.297 . S
O844 C831 1.236 . S
N845 Mn829 2.282 . S
N845 C846 1.328 . S
N845 C850 1.318 . S
C846 N845 1.328 . S
C846 C847 1.457 . S
C846 H851 0.929 . S
C847 C846 1.457 . S
C847 C848 1.291 . S
C847 H860 0.931 . S
C848 C847 1.291 . S
C848 C849 1.373 . S
C848 H861 0.929 . S
C849 C848 1.373 . S
C849 C850 1.396 . S
C849 C856 1.403 . S
C850 C840 1.476 . S
C850 N845 1.318 . S
C850 C849 1.396 . S
H851 C846 0.929 . S
O852 Mn828 2.385 . S
O852 C830 1.234 . S
O853 Mn828 2.209 . S
O853 Mn829 2.215 . S
O853 C830 1.283 . S
O854 Mn828 2.094 . S
O854 C832 1.240 . S
O855 Mn829 2.117 . S
O855 C832 1.264 . S
C856 C849 1.403 . S
C856 C857 1.399 . S
C856 H862 0.929 . S
C857 C837 1.449 . S
C857 C856 1.399 . S
C857 H863 0.930 . S
H858 C838 0.931 . S
H859 C839 0.930 . S
H860 C847 0.931 . S
H861 C848 0.929 . S
H862 C856 0.929 . S
H863 C857 0.930 . S
Mn864 O869 2.095 . S
Mn864 O879 2.162 . S
Mn864 O880 2.297 . S
Mn864 O888 2.385 . S
Mn864 O889 2.209 . S
Mn864 O890 2.094 . S
Mn865 O870 2.121 . S
Mn865 N872 2.257 . S
Mn865 N881 2.282 . S
Mn865 O889 2.215 . S
Mn865 O891 2.117 . S
C866 O888 1.234 . S
C866 O889 1.283 . S
C867 O879 1.281 . S
C867 O880 1.236 . S
C868 O890 1.240 . S
C868 O891 1.264 . S
O869 Mn864 2.095 . S
O869 C878 1.250 . S
O870 Mn865 2.121 . S
O870 C878 1.258 . S
C871 N872 1.326 . S
C871 C875 1.460 . S
C871 H877 0.929 . S
N872 Mn865 2.257 . S
N872 C871 1.326 . S
N872 C876 1.362 . S
C873 C874 1.258 . S
C873 C876 1.431 . S
C873 C893 1.449 . S
C874 C873 1.258 . S
C874 C875 1.477 . S
C874 H894 0.931 . S
C875 C871 1.460 . S
C875 C874 1.477 . S
C875 H895 0.930 . S
C876 N872 1.362 . S
C876 C873 1.431 . S
C876 C886 1.476 . S
H877 C871 0.929 . S
C878 O869 1.250 . S
C878 O870 1.258 . S
O879 Mn864 2.162 . S
O879 C867 1.281 . S
O880 Mn864 2.297 . S
O880 C867 1.236 . S
N881 Mn865 2.282 . S
N881 C882 1.328 . S
N881 C886 1.318 . S
C882 N881 1.328 . S
C882 C883 1.457 . S
C882 H887 0.929 . S
C883 C882 1.457 . S
C883 C884 1.291 . S
C883 H896 0.931 . S
C884 C883 1.291 . S
C884 C885 1.373 . S
C884 H897 0.929 . S
C885 C884 1.373 . S
C885 C886 1.396 . S
C885 C892 1.403 . S
C886 C876 1.476 . S
C886 N881 1.318 . S
C886 C885 1.396 . S
H887 C882 0.929 . S
O888 Mn864 2.385 . S
O888 C866 1.234 . S
O889 Mn864 2.209 . S
O889 Mn865 2.215 . S
O889 C866 1.283 . S
O890 Mn864 2.094 . S
O890 C868 1.240 . S
O891 Mn865 2.117 . S
O891 C868 1.264 . S
C892 C885 1.403 . S
C892 C893 1.399 . S
C892 H898 0.929 . S
C893 C873 1.449 . S
C893 C892 1.399 . S
C893 H899 0.930 . S
H894 C874 0.931 . S
H895 C875 0.930 . S
H896 C883 0.931 . S
H897 C884 0.929 . S
H898 C892 0.929 . S
H899 C893 0.930 . S
H900 C918 0.951 . S
H901 C920 0.951 . S
H902 C922 0.950 . S
H903 C923 0.950 . S
H904 C925 0.950 . S
H905 C928 0.950 . S
H906 C929 0.950 . S
H907 C931 0.950 . S
H908 C932 0.950 . S
H909 C933 0.951 . S
H910 C935 0.951 . S
H911 C937 0.950 . S
H912 C938 0.950 . S
H913 C940 0.950 . S
H914 C943 0.950 . S
H915 C944 0.950 . S
H916 C946 0.950 . S
H917 C947 0.950 . S
C918 H900 0.951 . S
C918 C919 1.366 . S
C918 C920 1.388 . S
C919 C918 1.366 . S
C919 C923 1.385 . S
C920 H901 0.951 . S
C920 C918 1.388 . S
C920 C921 1.366 . S
C921 C920 1.366 . S
C921 C922 1.414 . S
C921 C924 1.499 . S
C922 H902 0.950 . S
C922 C921 1.414 . S
C922 C923 1.374 . S
C923 H903 0.950 . S
C923 C919 1.385 . S
C923 C922 1.374 . S
C924 C921 1.499 . S
C924 C925 1.373 . S
C924 C926 1.389 . S
C925 H904 0.950 . S
C925 C924 1.373 . S
C925 C941 1.377 . S
C926 C924 1.389 . S
C926 C927 1.524 . S
C926 C940 1.377 . S
C927 C926 1.524 . S
C927 C928 1.397 . S
C927 C932 1.363 . S
C928 H905 0.950 . S
C928 C927 1.397 . S
C928 C929 1.334 . S
C929 H906 0.950 . S
C929 C928 1.334 . S
C929 C930 1.287 . S
C930 C929 1.287 . S
C930 C931 1.524 . S
C930 H949 0.913 . S
C931 H907 0.950 . S
C931 C930 1.524 . S
C931 C932 1.415 . S
C932 H908 0.950 . S
C932 C927 1.363 . S
C932 C931 1.415 . S
C933 H909 0.951 . S
C933 C934 1.366 . S
C933 C935 1.388 . S
C934 C933 1.366 . S
C934 C938 1.385 . S
C935 H910 0.951 . S
C935 C933 1.388 . S
C935 C936 1.366 . S
C936 C935 1.366 . S
C936 C937 1.414 . S
C936 C939 1.499 . S
C937 H911 0.950 . S
C937 C936 1.414 . S
C937 C938 1.374 . S
C938 H912 0.950 . S
C938 C934 1.385 . S
C938 C937 1.374 . S
C939 C936 1.499 . S
C939 C940 1.373 . S
C939 C941 1.389 . S
C940 H913 0.950 . S
C940 C926 1.377 . S
C940 C939 1.373 . S
C941 C925 1.377 . S
C941 C939 1.389 . S
C941 C942 1.524 . S
C942 C941 1.524 . S
C942 C943 1.397 . S
C942 C947 1.363 . S
C943 H914 0.950 . S
C943 C942 1.397 . S
C943 C944 1.334 . S
C944 H915 0.950 . S
C944 C943 1.334 . S
C944 C945 1.287 . S
C945 C944 1.287 . S
C945 C946 1.524 . S
C945 H948 0.999 . S
C946 H916 0.950 . S
C946 C945 1.524 . S
C946 C947 1.415 . S
C947 H917 0.950 . S
C947 C942 1.363 . S
C947 C946 1.415 . S
H948 C945 0.999 . S
H949 C930 0.913 . S
H950 C968 0.951 . S
H951 C970 0.951 . S
H952 C972 0.950 . S
H953 C973 0.950 . S
H954 C975 0.950 . S
H955 C978 0.950 . S
H956 C979 0.950 . S
H957 C981 0.950 . S
H958 C982 0.950 . S
H959 C983 0.951 . S
H960 C985 0.951 . S
H961 C987 0.950 . S
H962 C988 0.950 . S
H963 C990 0.950 . S
H964 C993 0.950 . S
H965 C994 0.950 . S
H966 C996 0.950 . S
H967 C997 0.950 . S
C968 H950 0.951 . S
C968 C969 1.366 . S
C968 C970 1.388 . S
C969 C968 1.366 . S
C969 C973 1.385 . S
C970 H951 0.951 . S
C970 C968 1.388 . S
C970 C971 1.366 . S
C971 C970 1.366 . S
C971 C972 1.414 . S
C971 C974 1.499 . S
C972 H952 0.950 . S
C972 C971 1.414 . S
C972 C973 1.374 . S
C973 H953 0.950 . S
C973 C969 1.385 . S
C973 C972 1.374 . S
C974 C971 1.499 . S
C974 C975 1.373 . S
C974 C976 1.389 . S
C975 H954 0.950 . S
C975 C974 1.373 . S
C975 C991 1.377 . S
C976 C974 1.389 . S
C976 C977 1.524 . S
C976 C990 1.377 . S
C977 C976 1.524 . S
C977 C978 1.397 . S
C977 C982 1.363 . S
C978 H955 0.950 . S
C978 C977 1.397 . S
C978 C979 1.334 . S
C979 H956 0.950 . S
C979 C978 1.334 . S
C979 C980 1.287 . S
C980 C979 1.287 . S
C980 C981 1.524 . S
C980 H999 0.913 . S
C981 H957 0.950 . S
C981 C980 1.524 . S
C981 C982 1.415 . S
C982 H958 0.950 . S
C982 C977 1.363 . S
C982 C981 1.415 . S
C983 H959 0.951 . S
C983 C984 1.366 . S
C983 C985 1.388 . S
C984 C983 1.366 . S
C984 C988 1.385 . S
C985 H960 0.951 . S
C985 C983 1.388 . S
C985 C986 1.366 . S
C986 C985 1.366 . S
C986 C987 1.414 . S
C986 C989 1.499 . S
C987 H961 0.950 . S
C987 C986 1.414 . S
C987 C988 1.374 . S
C988 H962 0.950 . S
C988 C984 1.385 . S
C988 C987 1.374 . S
C989 C986 1.499 . S
C989 C990 1.373 . S
C989 C991 1.389 . S
C990 H963 0.950 . S
C990 C976 1.377 . S
C990 C989 1.373 . S
C991 C975 1.377 . S
C991 C989 1.389 . S
C991 C992 1.524 . S
C992 C991 1.524 . S
C992 C993 1.397 . S
C992 C997 1.363 . S
C993 H964 0.950 . S
C993 C992 1.397 . S
C993 C994 1.334 . S
C994 H965 0.950 . S
C994 C993 1.334 . S
C994 C995 1.287 . S
C995 C994 1.287 . S
C995 C996 1.524 . S
C995 H998 0.999 . S
C996 H966 0.950 . S
C996 C995 1.524 . S
C996 C997 1.415 . S
C997 H967 0.950 . S
C997 C992 1.363 . S
C997 C996 1.415 . S
H998 C995 0.999 . S
H999 C980 0.913 . S
H1000 C1018 0.951 . S
H1001 C1020 0.951 . S
H1002 C1022 0.950 . S
H1003 C1023 0.950 . S
H1004 C1025 0.950 . S
H1005 C1028 0.950 . S
H1006 C1029 0.950 . S
H1007 C1031 0.950 . S
H1008 C1032 0.950 . S
H1009 C1033 0.951 . S
H1010 C1035 0.951 . S
H1011 C1037 0.950 . S
H1012 C1038 0.950 . S
H1013 C1040 0.950 . S
H1014 C1043 0.950 . S
H1015 C1044 0.950 . S
H1016 C1046 0.950 . S
H1017 C1047 0.950 . S
C1018 H1000 0.951 . S
C1018 C1019 1.366 . S
C1018 C1020 1.388 . S
C1019 C1018 1.366 . S
C1019 C1023 1.385 . S
C1020 H1001 0.951 . S
C1020 C1018 1.388 . S
C1020 C1021 1.366 . S
C1021 C1020 1.366 . S
C1021 C1022 1.414 . S
C1021 C1024 1.499 . S
C1022 H1002 0.950 . S
C1022 C1021 1.414 . S
C1022 C1023 1.374 . S
C1023 H1003 0.950 . S
C1023 C1019 1.385 . S
C1023 C1022 1.374 . S
C1024 C1021 1.499 . S
C1024 C1025 1.373 . S
C1024 C1026 1.389 . S
C1025 H1004 0.950 . S
C1025 C1024 1.373 . S
C1025 C1041 1.377 . S
C1026 C1024 1.389 . S
C1026 C1027 1.524 . S
C1026 C1040 1.377 . S
C1027 C1026 1.524 . S
C1027 C1028 1.397 . S
C1027 C1032 1.363 . S
C1028 H1005 0.950 . S
C1028 C1027 1.397 . S
C1028 C1029 1.334 . S
C1029 H1006 0.950 . S
C1029 C1028 1.334 . S
C1029 C1030 1.287 . S
C1030 C1029 1.287 . S
C1030 C1031 1.524 . S
C1030 H1049 0.913 . S
C1031 H1007 0.950 . S
C1031 C1030 1.524 . S
C1031 C1032 1.415 . S
C1032 H1008 0.950 . S
C1032 C1027 1.363 . S
C1032 C1031 1.415 . S
C1033 H1009 0.951 . S
C1033 C1034 1.366 . S
C1033 C1035 1.388 . S
C1034 C1033 1.366 . S
C1034 C1038 1.385 . S
C1035 H1010 0.951 . S
C1035 C1033 1.388 . S
C1035 C1036 1.366 . S
C1036 C1035 1.366 . S
C1036 C1037 1.414 . S
C1036 C1039 1.499 . S
C1037 H1011 0.950 . S
C1037 C1036 1.414 . S
C1037 C1038 1.374 . S
C1038 H1012 0.950 . S
C1038 C1034 1.385 . S
C1038 C1037 1.374 . S
C1039 C1036 1.499 . S
C1039 C1040 1.373 . S
C1039 C1041 1.389 . S
C1040 H1013 0.950 . S
C1040 C1026 1.377 . S
C1040 C1039 1.373 . S
C1041 C1025 1.377 . S
C1041 C1039 1.389 . S
C1041 C1042 1.524 . S
C1042 C1041 1.524 . S
C1042 C1043 1.397 . S
C1042 C1047 1.363 . S
C1043 H1014 0.950 . S
C1043 C1042 1.397 . S
C1043 C1044 1.334 . S
C1044 H1015 0.950 . S
C1044 C1043 1.334 . S
C1044 C1045 1.287 . S
C1045 C1044 1.287 . S
C1045 C1046 1.524 . S
C1045 H1048 0.999 . S
C1046 H1016 0.950 . S
C1046 C1045 1.524 . S
C1046 C1047 1.415 . S
C1047 H1017 0.950 . S
C1047 C1042 1.363 . S
C1047 C1046 1.415 . S
H1048 C1045 0.999 . S
H1049 C1030 0.913 . S
H1050 C1068 0.951 . S
H1051 C1070 0.951 . S
H1052 C1072 0.950 . S
H1053 C1073 0.950 . S
H1054 C1075 0.950 . S
H1055 C1078 0.950 . S
H1056 C1079 0.950 . S
H1057 C1081 0.950 . S
H1058 C1082 0.950 . S
H1059 C1083 0.951 . S
H1060 C1085 0.951 . S
H1061 C1087 0.950 . S
H1062 C1088 0.950 . S
H1063 C1090 0.950 . S
H1064 C1093 0.950 . S
H1065 C1094 0.950 . S
H1066 C1096 0.950 . S
H1067 C1097 0.950 . S
C1068 H1050 0.951 . S
C1068 C1069 1.366 . S
C1068 C1070 1.388 . S
C1069 C1068 1.366 . S
C1069 C1073 1.385 . S
C1070 H1051 0.951 . S
C1070 C1068 1.388 . S
C1070 C1071 1.366 . S
C1071 C1070 1.366 . S
C1071 C1072 1.414 . S
C1071 C1074 1.499 . S
C1072 H1052 0.950 . S
C1072 C1071 1.414 . S
C1072 C1073 1.374 . S
C1073 H1053 0.950 . S
C1073 C1069 1.385 . S
C1073 C1072 1.374 . S
C1074 C1071 1.499 . S
C1074 C1075 1.373 . S
C1074 C1076 1.389 . S
C1075 H1054 0.950 . S
C1075 C1074 1.373 . S
C1075 C1091 1.377 . S
C1076 C1074 1.389 . S
C1076 C1077 1.524 . S
C1076 C1090 1.377 . S
C1077 C1076 1.524 . S
C1077 C1078 1.397 . S
C1077 C1082 1.363 . S
C1078 H1055 0.950 . S
C1078 C1077 1.397 . S
C1078 C1079 1.334 . S
C1079 H1056 0.950 . S
C1079 C1078 1.334 . S
C1079 C1080 1.287 . S
C1080 C1079 1.287 . S
C1080 C1081 1.524 . S
C1080 H1099 0.913 . S
C1081 H1057 0.950 . S
C1081 C1080 1.524 . S
C1081 C1082 1.415 . S
C1082 H1058 0.950 . S
C1082 C1077 1.363 . S
C1082 C1081 1.415 . S
C1083 H1059 0.951 . S
C1083 C1084 1.366 . S
C1083 C1085 1.388 . S
C1084 C1083 1.366 . S
C1084 C1088 1.385 . S
C1085 H1060 0.951 . S
C1085 C1083 1.388 . S
C1085 C1086 1.366 . S
C1086 C1085 1.366 . S
C1086 C1087 1.414 . S
C1086 C1089 1.499 . S
C1087 H1061 0.950 . S
C1087 C1086 1.414 . S
C1087 C1088 1.374 . S
C1088 H1062 0.950 . S
C1088 C1084 1.385 . S
C1088 C1087 1.374 . S
C1089 C1086 1.499 . S
C1089 C1090 1.373 . S
C1089 C1091 1.389 . S
C1090 H1063 0.950 . S
C1090 C1076 1.377 . S
C1090 C1089 1.373 . S
C1091 C1075 1.377 . S
C1091 C1089 1.389 . S
C1091 C1092 1.524 . S
C1092 C1091 1.524 . S
C1092 C1093 1.397 . S
C1092 C1097 1.363 . S
C1093 H1064 0.950 . S
C1093 C1092 1.397 . S
C1093 C1094 1.334 . S
C1094 H1065 0.950 . S
C1094 C1093 1.334 . S
C1094 C1095 1.287 . S
C1095 C1094 1.287 . S
C1095 C1096 1.524 . S
C1095 H1098 0.999 . S
C1096 H1066 0.950 . S
C1096 C1095 1.524 . S
C1096 C1097 1.415 . S
C1097 H1067 0.950 . S
C1097 C1092 1.363 . S
C1097 C1096 1.415 . S
H1098 C1095 0.999 . S
H1099 C1080 0.913 . S
H1100 C1118 0.951 . S
H1101 C1120 0.951 . S
H1102 C1122 0.950 . S
H1103 C1123 0.950 . S
H1104 C1125 0.950 . S
H1105 C1128 0.950 . S
H1106 C1129 0.950 . S
H1107 C1131 0.950 . S
H1108 C1132 0.950 . S
H1109 C1133 0.951 . S
H1110 C1135 0.951 . S
H1111 C1137 0.950 . S
H1112 C1138 0.950 . S
H1113 C1140 0.950 . S
H1114 C1143 0.950 . S
H1115 C1144 0.950 . S
H1116 C1146 0.950 . S
H1117 C1147 0.950 . S
C1118 H1100 0.951 . S
C1118 C1119 1.366 . S
C1118 C1120 1.388 . S
C1119 C1118 1.366 . S
C1119 C1123 1.385 . S
C1120 H1101 0.951 . S
C1120 C1118 1.388 . S
C1120 C1121 1.366 . S
C1121 C1120 1.366 . S
C1121 C1122 1.414 . S
C1121 C1124 1.499 . S
C1122 H1102 0.950 . S
C1122 C1121 1.414 . S
C1122 C1123 1.374 . S
C1123 H1103 0.950 . S
C1123 C1119 1.385 . S
C1123 C1122 1.374 . S
C1124 C1121 1.499 . S
C1124 C1125 1.373 . S
C1124 C1126 1.389 . S
C1125 H1104 0.950 . S
C1125 C1124 1.373 . S
C1125 C1141 1.377 . S
C1126 C1124 1.389 . S
C1126 C1127 1.524 . S
C1126 C1140 1.377 . S
C1127 C1126 1.524 . S
C1127 C1128 1.397 . S
C1127 C1132 1.363 . S
C1128 H1105 0.950 . S
C1128 C1127 1.397 . S
C1128 C1129 1.334 . S
C1129 H1106 0.950 . S
C1129 C1128 1.334 . S
C1129 C1130 1.287 . S
C1130 C1129 1.287 . S
C1130 C1131 1.524 . S
C1130 H1149 0.913 . S
C1131 H1107 0.950 . S
C1131 C1130 1.524 . S
C1131 C1132 1.415 . S
C1132 H1108 0.950 . S
C1132 C1127 1.363 . S
C1132 C1131 1.415 . S
C1133 H1109 0.951 . S
C1133 C1134 1.366 . S
C1133 C1135 1.388 . S
C1134 C1133 1.366 . S
C1134 C1138 1.385 . S
C1135 H1110 0.951 . S
C1135 C1133 1.388 . S
C1135 C1136 1.366 . S
C1136 C1135 1.366 . S
C1136 C1137 1.414 . S
C1136 C1139 1.499 . S
C1137 H1111 0.950 . S
C1137 C1136 1.414 . S
C1137 C1138 1.374 . S
C1138 H1112 0.950 . S
C1138 C1134 1.385 . S
C1138 C1137 1.374 . S
C1139 C1136 1.499 . S
C1139 C1140 1.373 . S
C1139 C1141 1.389 . S
C1140 H1113 0.950 . S
C1140 C1126 1.377 . S
C1140 C1139 1.373 . S
C1141 C1125 1.377 . S
C1141 C1139 1.389 . S
C1141 C1142 1.524 . S
C1142 C1141 1.524 . S
C1142 C1143 1.397 . S
C1142 C1147 1.363 . S
C1143 H1114 0.950 . S
C1143 C1142 1.397 . S
C1143 C1144 1.334 . S
C1144 H1115 0.950 . S
C1144 C1143 1.334 . S
C1144 C1145 1.287 . S
C1145 C1144 1.287 . S
C1145 C1146 1.524 . S
C1145 H1148 0.999 . S
C1146 H1116 0.950 . S
C1146 C1145 1.524 . S
C1146 C1147 1.415 . S
C1147 H1117 0.950 . S
C1147 C1142 1.363 . S
C1147 C1146 1.415 . S
H1148 C1145 0.999 . S
H1149 C1130 0.913 . S
H1150 C1168 0.951 . S
H1151 C1170 0.951 . S
H1152 C1172 0.950 . S
H1153 C1173 0.950 . S
H1154 C1175 0.950 . S
H1155 C1178 0.950 . S
H1156 C1179 0.950 . S
H1157 C1181 0.950 . S
H1158 C1182 0.950 . S
H1159 C1183 0.951 . S
H1160 C1185 0.951 . S
H1161 C1187 0.950 . S
H1162 C1188 0.950 . S
H1163 C1190 0.950 . S
H1164 C1193 0.950 . S
H1165 C1194 0.950 . S
H1166 C1196 0.950 . S
H1167 C1197 0.950 . S
C1168 H1150 0.951 . S
C1168 C1169 1.366 . S
C1168 C1170 1.388 . S
C1169 C1168 1.366 . S
C1169 C1173 1.385 . S
C1170 H1151 0.951 . S
C1170 C1168 1.388 . S
C1170 C1171 1.366 . S
C1171 C1170 1.366 . S
C1171 C1172 1.414 . S
C1171 C1174 1.499 . S
C1172 H1152 0.950 . S
C1172 C1171 1.414 . S
C1172 C1173 1.374 . S
C1173 H1153 0.950 . S
C1173 C1169 1.385 . S
C1173 C1172 1.374 . S
C1174 C1171 1.499 . S
C1174 C1175 1.373 . S
C1174 C1176 1.389 . S
C1175 H1154 0.950 . S
C1175 C1174 1.373 . S
C1175 C1191 1.377 . S
C1176 C1174 1.389 . S
C1176 C1177 1.524 . S
C1176 C1190 1.377 . S
C1177 C1176 1.524 . S
C1177 C1178 1.397 . S
C1177 C1182 1.363 . S
C1178 H1155 0.950 . S
C1178 C1177 1.397 . S
C1178 C1179 1.334 . S
C1179 H1156 0.950 . S
C1179 C1178 1.334 . S
C1179 C1180 1.287 . S
C1180 C1179 1.287 . S
C1180 C1181 1.524 . S
C1180 H1199 0.913 . S
C1181 H1157 0.950 . S
C1181 C1180 1.524 . S
C1181 C1182 1.415 . S
C1182 H1158 0.950 . S
C1182 C1177 1.363 . S
C1182 C1181 1.415 . S
C1183 H1159 0.951 . S
C1183 C1184 1.366 . S
C1183 C1185 1.388 . S
C1184 C1183 1.366 . S
C1184 C1188 1.385 . S
C1185 H1160 0.951 . S
C1185 C1183 1.388 . S
C1185 C1186 1.366 . S
C1186 C1185 1.366 . S
C1186 C1187 1.414 . S
C1186 C1189 1.499 . S
C1187 H1161 0.950 . S
C1187 C1186 1.414 . S
C1187 C1188 1.374 . S
C1188 H1162 0.950 . S
C1188 C1184 1.385 . S
C1188 C1187 1.374 . S
C1189 C1186 1.499 . S
C1189 C1190 1.373 . S
C1189 C1191 1.389 . S
C1190 H1163 0.950 . S
C1190 C1176 1.377 . S
C1190 C1189 1.373 . S
C1191 C1175 1.377 . S
C1191 C1189 1.389 . S
C1191 C1192 1.524 . S
C1192 C1191 1.524 . S
C1192 C1193 1.397 . S
C1192 C1197 1.363 . S
C1193 H1164 0.950 . S
C1193 C1192 1.397 . S
C1193 C1194 1.334 . S
C1194 H1165 0.950 . S
C1194 C1193 1.334 . S
C1194 C1195 1.287 . S
C1195 C1194 1.287 . S
C1195 C1196 1.524 . S
C1195 H1198 0.999 . S
C1196 H1166 0.950 . S
C1196 C1195 1.524 . S
C1196 C1197 1.415 . S
C1197 H1167 0.950 . S
C1197 C1192 1.363 . S
C1197 C1196 1.415 . S
H1198 C1195 0.999 . S
H1199 C1180 0.913 . S
H1200 C1218 0.951 . S
H1201 C1220 0.951 . S
H1202 C1222 0.950 . S
H1203 C1223 0.950 . S
H1204 C1225 0.950 . S
H1205 C1228 0.950 . S
H1206 C1229 0.950 . S
H1207 C1231 0.950 . S
H1208 C1232 0.950 . S
H1209 C1233 0.951 . S
H1210 C1235 0.951 . S
H1211 C1237 0.950 . S
H1212 C1238 0.950 . S
H1213 C1240 0.950 . S
H1214 C1243 0.950 . S
H1215 C1244 0.950 . S
H1216 C1246 0.950 . S
H1217 C1247 0.950 . S
C1218 H1200 0.951 . S
C1218 C1219 1.366 . S
C1218 C1220 1.388 . S
C1219 C1218 1.366 . S
C1219 C1223 1.385 . S
C1220 H1201 0.951 . S
C1220 C1218 1.388 . S
C1220 C1221 1.366 . S
C1221 C1220 1.366 . S
C1221 C1222 1.414 . S
C1221 C1224 1.499 . S
C1222 H1202 0.950 . S
C1222 C1221 1.414 . S
C1222 C1223 1.374 . S
C1223 H1203 0.950 . S
C1223 C1219 1.385 . S
C1223 C1222 1.374 . S
C1224 C1221 1.499 . S
C1224 C1225 1.373 . S
C1224 C1226 1.389 . S
C1225 H1204 0.950 . S
C1225 C1224 1.373 . S
C1225 C1241 1.377 . S
C1226 C1224 1.389 . S
C1226 C1227 1.524 . S
C1226 C1240 1.377 . S
C1227 C1226 1.524 . S
C1227 C1228 1.397 . S
C1227 C1232 1.363 . S
C1228 H1205 0.950 . S
C1228 C1227 1.397 . S
C1228 C1229 1.334 . S
C1229 H1206 0.950 . S
C1229 C1228 1.334 . S
C1229 C1230 1.287 . S
C1230 C1229 1.287 . S
C1230 C1231 1.524 . S
C1230 H1249 0.913 . S
C1231 H1207 0.950 . S
C1231 C1230 1.524 . S
C1231 C1232 1.415 . S
C1232 H1208 0.950 . S
C1232 C1227 1.363 . S
C1232 C1231 1.415 . S
C1233 H1209 0.951 . S
C1233 C1234 1.366 . S
C1233 C1235 1.388 . S
C1234 C1233 1.366 . S
C1234 C1238 1.385 . S
C1235 H1210 0.951 . S
C1235 C1233 1.388 . S
C1235 C1236 1.366 . S
C1236 C1235 1.366 . S
C1236 C1237 1.414 . S
C1236 C1239 1.499 . S
C1237 H1211 0.950 . S
C1237 C1236 1.414 . S
C1237 C1238 1.374 . S
C1238 H1212 0.950 . S
C1238 C1234 1.385 . S
C1238 C1237 1.374 . S
C1239 C1236 1.499 . S
C1239 C1240 1.373 . S
C1239 C1241 1.389 . S
C1240 H1213 0.950 . S
C1240 C1226 1.377 . S
C1240 C1239 1.373 . S
C1241 C1225 1.377 . S
C1241 C1239 1.389 . S
C1241 C1242 1.524 . S
C1242 C1241 1.524 . S
C1242 C1243 1.397 . S
C1242 C1247 1.363 . S
C1243 H1214 0.950 . S
C1243 C1242 1.397 . S
C1243 C1244 1.334 . S
C1244 H1215 0.950 . S
C1244 C1243 1.334 . S
C1244 C1245 1.287 . S
C1245 C1244 1.287 . S
C1245 C1246 1.524 . S
C1245 H1248 0.999 . S
C1246 H1216 0.950 . S
C1246 C1245 1.524 . S
C1246 C1247 1.415 . S
C1247 H1217 0.950 . S
C1247 C1242 1.363 . S
C1247 C1246 1.415 . S
H1248 C1245 0.999 . S
H1249 C1230 0.913 . S
H1250 C1268 0.951 . S
H1251 C1270 0.951 . S
H1252 C1272 0.950 . S
H1253 C1273 0.950 . S
H1254 C1275 0.950 . S
H1255 C1278 0.950 . S
H1256 C1279 0.950 . S
H1257 C1281 0.950 . S
H1258 C1282 0.950 . S
H1259 C1283 0.951 . S
H1260 C1285 0.951 . S
H1261 C1287 0.950 . S
H1262 C1288 0.950 . S
H1263 C1290 0.950 . S
H1264 C1293 0.950 . S
H1265 C1294 0.950 . S
H1266 C1296 0.950 . S
H1267 C1297 0.950 . S
C1268 H1250 0.951 . S
C1268 C1269 1.366 . S
C1268 C1270 1.388 . S
C1269 C1268 1.366 . S
C1269 C1273 1.385 . S
C1270 H1251 0.951 . S
C1270 C1268 1.388 . S
C1270 C1271 1.366 . S
C1271 C1270 1.366 . S
C1271 C1272 1.414 . S
C1271 C1274 1.499 . S
C1272 H1252 0.950 . S
C1272 C1271 1.414 . S
C1272 C1273 1.374 . S
C1273 H1253 0.950 . S
C1273 C1269 1.385 . S
C1273 C1272 1.374 . S
C1274 C1271 1.499 . S
C1274 C1275 1.373 . S
C1274 C1276 1.389 . S
C1275 H1254 0.950 . S
C1275 C1274 1.373 . S
C1275 C1291 1.377 . S
C1276 C1274 1.389 . S
C1276 C1277 1.524 . S
C1276 C1290 1.377 . S
C1277 C1276 1.524 . S
C1277 C1278 1.397 . S
C1277 C1282 1.363 . S
C1278 H1255 0.950 . S
C1278 C1277 1.397 . S
C1278 C1279 1.334 . S
C1279 H1256 0.950 . S
C1279 C1278 1.334 . S
C1279 C1280 1.287 . S
C1280 C1279 1.287 . S
C1280 C1281 1.524 . S
C1280 H1299 0.913 . S
C1281 H1257 0.950 . S
C1281 C1280 1.524 . S
C1281 C1282 1.415 . S
C1282 H1258 0.950 . S
C1282 C1277 1.363 . S
C1282 C1281 1.415 . S
C1283 H1259 0.951 . S
C1283 C1284 1.366 . S
C1283 C1285 1.388 . S
C1284 C1283 1.366 . S
C1284 C1288 1.385 . S
C1285 H1260 0.951 . S
C1285 C1283 1.388 . S
C1285 C1286 1.366 . S
C1286 C1285 1.366 . S
C1286 C1287 1.414 . S
C1286 C1289 1.499 . S
C1287 H1261 0.950 . S
C1287 C1286 1.414 . S
C1287 C1288 1.374 . S
C1288 H1262 0.950 . S
C1288 C1284 1.385 . S
C1288 C1287 1.374 . S
C1289 C1286 1.499 . S
C1289 C1290 1.373 . S
C1289 C1291 1.389 . S
C1290 H1263 0.950 . S
C1290 C1276 1.377 . S
C1290 C1289 1.373 . S
C1291 C1275 1.377 . S
C1291 C1289 1.389 . S
C1291 C1292 1.524 . S
C1292 C1291 1.524 . S
C1292 C1293 1.397 . S
C1292 C1297 1.363 . S
C1293 H1264 0.950 . S
C1293 C1292 1.397 . S
C1293 C1294 1.334 . S
C1294 H1265 0.950 . S
C1294 C1293 1.334 . S
C1294 C1295 1.287 . S
C1295 C1294 1.287 . S
C1295 C1296 1.524 . S
C1295 H1298 0.999 . S
C1296 H1266 0.950 . S
C1296 C1295 1.524 . S
C1296 C1297 1.415 . S
C1297 H1267 0.950 . S
C1297 C1292 1.363 . S
C1297 C1296 1.415 . S
H1298 C1295 0.999 . S
H1299 C1280 0.913 . S
H1300 C1318 0.951 . S
H1301 C1320 0.951 . S
H1302 C1322 0.950 . S
H1303 C1323 0.950 . S
H1304 C1325 0.950 . S
H1305 C1328 0.950 . S
H1306 C1329 0.950 . S
H1307 C1331 0.950 . S
H1308 C1332 0.950 . S
H1309 C1333 0.951 . S
H1310 C1335 0.951 . S
H1311 C1337 0.950 . S
H1312 C1338 0.950 . S
H1313 C1340 0.950 . S
H1314 C1343 0.950 . S
H1315 C1344 0.950 . S
H1316 C1346 0.950 . S
H1317 C1347 0.950 . S
C1318 H1300 0.951 . S
C1318 C1319 1.366 . S
C1318 C1320 1.388 . S
C1319 C1318 1.366 . S
C1319 C1323 1.385 . S
C1320 H1301 0.951 . S
C1320 C1318 1.388 . S
C1320 C1321 1.366 . S
C1321 C1320 1.366 . S
C1321 C1322 1.414 . S
C1321 C1324 1.499 . S
C1322 H1302 0.950 . S
C1322 C1321 1.414 . S
C1322 C1323 1.374 . S
C1323 H1303 0.950 . S
C1323 C1319 1.385 . S
C1323 C1322 1.374 . S
C1324 C1321 1.499 . S
C1324 C1325 1.373 . S
C1324 C1326 1.389 . S
C1325 H1304 0.950 . S
C1325 C1324 1.373 . S
C1325 C1341 1.377 . S
C1326 C1324 1.389 . S
C1326 C1327 1.524 . S
C1326 C1340 1.377 . S
C1327 C1326 1.524 . S
C1327 C1328 1.397 . S
C1327 C1332 1.363 . S
C1328 H1305 0.950 . S
C1328 C1327 1.397 . S
C1328 C1329 1.334 . S
C1329 H1306 0.950 . S
C1329 C1328 1.334 . S
C1329 C1330 1.287 . S
C1330 C1329 1.287 . S
C1330 C1331 1.524 . S
C1330 H1349 0.913 . S
C1331 H1307 0.950 . S
C1331 C1330 1.524 . S
C1331 C1332 1.415 . S
C1332 H1308 0.950 . S
C1332 C1327 1.363 . S
C1332 C1331 1.415 . S
C1333 H1309 0.951 . S
C1333 C1334 1.366 . S
C1333 C1335 1.388 . S
C1334 C1333 1.366 . S
C1334 C1338 1.385 . S
C1335 H1310 0.951 . S
C1335 C1333 1.388 . S
C1335 C1336 1.366 . S
C1336 C1335 1.366 . S
C1336 C1337 1.414 . S
C1336 C1339 1.499 . S
C1337 H1311 0.950 . S
C1337 C1336 1.414 . S
C1337 C1338 1.374 . S
C1338 H1312 0.950 . S
C1338 C1334 1.385 . S
C1338 C1337 1.374 . S
C1339 C1336 1.499 . S
C1339 C1340 1.373 . S
C1339 C1341 1.389 . S
C1340 H1313 0.950 . S
C1340 C1326 1.377 . S
C1340 C1339 1.373 . S
C1341 C1325 1.377 . S
C1341 C1339 1.389 . S
C1341 C1342 1.524 . S
C1342 C1341 1.524 . S
C1342 C1343 1.397 . S
C1342 C1347 1.363 . S
C1343 H1314 0.950 . S
C1343 C1342 1.397 . S
C1343 C1344 1.334 . S
C1344 H1315 0.950 . S
C1344 C1343 1.334 . S
C1344 C1345 1.287 . S
C1345 C1344 1.287 . S
C1345 C1346 1.524 . S
C1345 H1348 0.999 . S
C1346 H1316 0.950 . S
C1346 C1345 1.524 . S
C1346 C1347 1.415 . S
C1347 H1317 0.950 . S
C1347 C1342 1.363 . S
C1347 C1346 1.415 . S
H1348 C1345 0.999 . S
H1349 C1330 0.913 . S
H1350 C1368 0.951 . S
H1351 C1370 0.951 . S
H1352 C1372 0.950 . S
H1353 C1373 0.950 . S
H1354 C1375 0.950 . S
H1355 C1378 0.950 . S
H1356 C1379 0.950 . S
H1357 C1381 0.942 1_556 S
H1358 C1382 0.950 . S
H1359 C1383 0.951 . S
H1360 C1385 0.951 . S
H1361 C1387 0.950 . S
H1362 C1388 0.950 . S
H1363 C1390 0.950 . S
H1364 C1393 0.950 . S
H1365 C1394 0.950 . S
H1366 C1396 0.950 . S
H1367 C1397 0.950 . S
C1368 H1350 0.951 . S
C1368 C1369 1.366 . S
C1368 C1370 1.388 . S
C1369 C1368 1.366 . S
C1369 C1373 1.385 . S
C1370 H1351 0.951 . S
C1370 C1368 1.388 . S
C1370 C1371 1.366 . S
C1371 C1370 1.366 . S
C1371 C1372 1.414 . S
C1371 C1374 1.499 . S
C1372 H1352 0.950 . S
C1372 C1371 1.414 . S
C1372 C1373 1.374 . S
C1373 H1353 0.950 . S
C1373 C1369 1.385 . S
C1373 C1372 1.374 . S
C1374 C1371 1.499 . S
C1374 C1375 1.373 . S
C1374 C1376 1.389 . S
C1375 H1354 0.950 . S
C1375 C1374 1.373 . S
C1375 C1391 1.377 . S
C1376 C1374 1.389 . S
C1376 C1377 1.524 . S
C1376 C1390 1.377 . S
C1377 C1376 1.524 . S
C1377 C1378 1.397 . S
C1377 C1382 1.363 . S
C1378 H1355 0.950 . S
C1378 C1377 1.397 . S
C1378 C1379 1.334 1_554 S
C1379 H1356 0.950 . S
C1379 C1378 1.334 1_556 S
C1379 C1380 1.287 . S
C1380 C1379 1.287 . S
C1380 C1381 1.500 1_556 S
C1380 H1399 0.913 . S
C1381 H1357 0.942 1_554 S
C1381 C1380 1.500 1_554 S
C1381 C1382 1.448 . S
C1382 H1358 0.950 . S
C1382 C1377 1.363 . S
C1382 C1381 1.448 . S
C1383 H1359 0.951 . S
C1383 C1384 1.366 . S
C1383 C1385 1.388 . S
C1384 C1383 1.366 . S
C1384 C1388 1.385 . S
C1385 H1360 0.951 . S
C1385 C1383 1.388 . S
C1385 C1386 1.366 . S
C1386 C1385 1.366 . S
C1386 C1387 1.414 . S
C1386 C1389 1.499 . S
C1387 H1361 0.950 . S
C1387 C1386 1.414 . S
C1387 C1388 1.374 . S
C1388 H1362 0.950 . S
C1388 C1384 1.385 . S
C1388 C1387 1.374 . S
C1389 C1386 1.499 . S
C1389 C1390 1.373 . S
C1389 C1391 1.389 . S
C1390 H1363 0.950 . S
C1390 C1376 1.377 . S
C1390 C1389 1.373 . S
C1391 C1375 1.377 . S
C1391 C1389 1.389 . S
C1391 C1392 1.524 . S
C1392 C1391 1.524 . S
C1392 C1393 1.397 . S
C1392 C1397 1.363 . S
C1393 H1364 0.950 . S
C1393 C1392 1.397 . S
C1393 C1394 1.334 . S
C1394 H1365 0.950 . S
C1394 C1393 1.334 . S
C1394 C1395 1.287 . S
C1395 C1394 1.287 . S
C1395 C1396 1.524 . S
C1395 H1398 0.999 . S
C1396 H1366 0.950 . S
C1396 C1395 1.524 . S
C1396 C1397 1.415 . S
C1397 H1367 0.950 . S
C1397 C1392 1.363 . S
C1397 C1396 1.415 . S
H1398 C1395 0.999 . S
H1399 C1380 0.913 . S
H1400 C1418 0.951 . S
H1401 C1420 0.951 . S
H1402 C1422 0.950 . S
H1403 C1423 0.950 . S
H1404 C1425 0.950 . S
H1405 C1428 0.950 . S
H1406 C1429 0.950 . S
H1407 C1431 0.950 . S
H1408 C1432 0.950 . S
H1409 C1433 0.951 . S
H1410 C1435 0.951 . S
H1411 C1437 0.950 . S
H1412 C1438 0.950 . S
H1413 C1440 0.950 . S
H1414 C1443 0.950 . S
H1415 C1444 0.950 . S
H1416 C1446 0.950 . S
H1417 C1447 0.950 . S
C1418 H1400 0.951 . S
C1418 C1419 1.366 . S
C1418 C1420 1.388 . S
C1419 C1418 1.366 . S
C1419 C1423 1.385 . S
C1420 H1401 0.951 . S
C1420 C1418 1.388 . S
C1420 C1421 1.366 . S
C1421 C1420 1.366 . S
C1421 C1422 1.414 . S
C1421 C1424 1.499 . S
C1422 H1402 0.950 . S
C1422 C1421 1.414 . S
C1422 C1423 1.374 . S
C1423 H1403 0.950 . S
C1423 C1419 1.385 . S
C1423 C1422 1.374 . S
C1424 C1421 1.499 . S
C1424 C1425 1.373 . S
C1424 C1426 1.389 . S
C1425 H1404 0.950 . S
C1425 C1424 1.373 . S
C1425 C1441 1.377 . S
C1426 C1424 1.389 . S
C1426 C1427 1.524 . S
C1426 C1440 1.377 . S
C1427 C1426 1.524 . S
C1427 C1428 1.397 . S
C1427 C1432 1.363 . S
C1428 H1405 0.950 . S
C1428 C1427 1.397 . S
C1428 C1429 1.334 . S
C1429 H1406 0.950 . S
C1429 C1428 1.334 . S
C1429 C1430 1.287 . S
C1430 C1429 1.287 . S
C1430 C1431 1.524 . S
C1430 H1449 0.913 . S
C1431 H1407 0.950 . S
C1431 C1430 1.524 . S
C1431 C1432 1.415 . S
C1432 H1408 0.950 . S
C1432 C1427 1.363 . S
C1432 C1431 1.415 . S
C1433 H1409 0.951 . S
C1433 C1434 1.366 . S
C1433 C1435 1.388 . S
C1434 C1433 1.366 . S
C1434 C1438 1.385 . S
C1435 H1410 0.951 . S
C1435 C1433 1.388 . S
C1435 C1436 1.366 . S
C1436 C1435 1.366 . S
C1436 C1437 1.414 . S
C1436 C1439 1.499 . S
C1437 H1411 0.950 . S
C1437 C1436 1.414 . S
C1437 C1438 1.374 . S
C1438 H1412 0.950 . S
C1438 C1434 1.385 . S
C1438 C1437 1.374 . S
C1439 C1436 1.499 . S
C1439 C1440 1.373 . S
C1439 C1441 1.389 . S
C1440 H1413 0.950 . S
C1440 C1426 1.377 . S
C1440 C1439 1.373 . S
C1441 C1425 1.377 . S
C1441 C1439 1.389 . S
C1441 C1442 1.524 . S
C1442 C1441 1.524 . S
C1442 C1443 1.397 . S
C1442 C1447 1.363 . S
C1443 H1414 0.950 . S
C1443 C1442 1.397 . S
C1443 C1444 1.334 . S
C1444 H1415 0.950 . S
C1444 C1443 1.334 . S
C1444 C1445 1.287 . S
C1445 C1444 1.287 . S
C1445 C1446 1.524 . S
C1445 H1448 0.999 . S
C1446 H1416 0.950 . S
C1446 C1445 1.524 . S
C1446 C1447 1.415 . S
C1447 H1417 0.950 . S
C1447 C1442 1.363 . S
C1447 C1446 1.415 . S
H1448 C1445 0.999 . S
H1449 C1430 0.913 . S
H1450 C1468 0.951 . S
H1451 C1470 0.951 . S
H1452 C1472 0.950 . S
H1453 C1473 0.950 . S
H1454 C1475 0.950 . S
H1455 C1478 0.950 . S
H1456 C1479 0.950 . S
H1457 C1481 0.950 . S
H1458 C1482 0.950 . S
H1459 C1483 0.951 . S
H1460 C1485 0.951 . S
H1461 C1487 0.950 . S
H1462 C1488 0.950 . S
H1463 C1490 0.950 . S
H1464 C1493 0.950 . S
H1465 C1494 0.950 . S
H1466 C1496 0.950 . S
H1467 C1497 0.950 . S
C1468 H1450 0.951 . S
C1468 C1469 1.366 . S
C1468 C1470 1.388 . S
C1469 C1468 1.366 . S
C1469 C1473 1.385 . S
C1470 H1451 0.951 . S
C1470 C1468 1.388 . S
C1470 C1471 1.366 . S
C1471 C1470 1.366 . S
C1471 C1472 1.414 . S
C1471 C1474 1.499 . S
C1472 H1452 0.950 . S
C1472 C1471 1.414 . S
C1472 C1473 1.374 . S
C1473 H1453 0.950 . S
C1473 C1469 1.385 . S
C1473 C1472 1.374 . S
C1474 C1471 1.499 . S
C1474 C1475 1.373 . S
C1474 C1476 1.389 . S
C1475 H1454 0.950 . S
C1475 C1474 1.373 . S
C1475 C1491 1.377 . S
C1476 C1474 1.389 . S
C1476 C1477 1.524 . S
C1476 C1490 1.377 . S
C1477 C1476 1.524 . S
C1477 C1478 1.397 . S
C1477 C1482 1.363 . S
C1478 H1455 0.950 . S
C1478 C1477 1.397 . S
C1478 C1479 1.334 . S
C1479 H1456 0.950 . S
C1479 C1478 1.334 . S
C1479 C1480 1.287 . S
C1480 C1479 1.287 . S
C1480 C1481 1.524 . S
C1480 H1499 0.913 . S
C1481 H1457 0.950 . S
C1481 C1480 1.524 . S
C1481 C1482 1.415 . S
C1482 H1458 0.950 . S
C1482 C1477 1.363 . S
C1482 C1481 1.415 . S
C1483 H1459 0.951 . S
C1483 C1484 1.366 . S
C1483 C1485 1.388 . S
C1484 C1483 1.366 . S
C1484 C1488 1.385 . S
C1485 H1460 0.951 . S
C1485 C1483 1.388 . S
C1485 C1486 1.366 . S
C1486 C1485 1.366 . S
C1486 C1487 1.414 . S
C1486 C1489 1.499 . S
C1487 H1461 0.950 . S
C1487 C1486 1.414 . S
C1487 C1488 1.374 . S
C1488 H1462 0.950 . S
C1488 C1484 1.385 . S
C1488 C1487 1.374 . S
C1489 C1486 1.499 . S
C1489 C1490 1.373 . S
C1489 C1491 1.389 . S
C1490 H1463 0.950 . S
C1490 C1476 1.377 . S
C1490 C1489 1.373 . S
C1491 C1475 1.377 . S
C1491 C1489 1.389 . S
C1491 C1492 1.524 . S
C1492 C1491 1.524 . S
C1492 C1493 1.397 . S
C1492 C1497 1.363 . S
C1493 H1464 0.950 . S
C1493 C1492 1.397 . S
C1493 C1494 1.334 . S
C1494 H1465 0.950 . S
C1494 C1493 1.334 . S
C1494 C1495 1.287 . S
C1495 C1494 1.287 . S
C1495 C1496 1.524 . S
C1495 H1498 0.999 . S
C1496 H1466 0.950 . S
C1496 C1495 1.524 . S
C1496 C1497 1.415 . S
C1497 H1467 0.950 . S
C1497 C1492 1.363 . S
C1497 C1496 1.415 . S
H1498 C1495 0.999 . S
H1499 C1480 0.913 . S
H1500 C1518 0.951 . S
H1501 C1520 0.951 . S
H1502 C1522 0.950 . S
H1503 C1523 0.950 . S
H1504 C1525 0.950 . S
H1505 C1528 0.950 . S
H1506 C1529 0.950 . S
H1507 C1531 0.950 . S
H1508 C1532 0.950 . S
H1509 C1533 0.951 . S
H1510 C1535 0.951 . S
H1511 C1537 0.950 . S
H1512 C1538 0.950 . S
H1513 C1540 0.950 . S
H1514 C1543 0.950 . S
H1515 C1544 0.950 . S
H1516 C1546 0.950 . S
H1517 C1547 0.950 . S
C1518 H1500 0.951 . S
C1518 C1519 1.366 . S
C1518 C1520 1.388 . S
C1519 C1518 1.366 . S
C1519 C1523 1.385 . S
C1520 H1501 0.951 . S
C1520 C1518 1.388 . S
C1520 C1521 1.366 . S
C1521 C1520 1.366 . S
C1521 C1522 1.414 . S
C1521 C1524 1.499 . S
C1522 H1502 0.950 . S
C1522 C1521 1.414 . S
C1522 C1523 1.374 . S
C1523 H1503 0.950 . S
C1523 C1519 1.385 . S
C1523 C1522 1.374 . S
C1524 C1521 1.499 . S
C1524 C1525 1.373 . S
C1524 C1526 1.389 . S
C1525 H1504 0.950 . S
C1525 C1524 1.373 . S
C1525 C1541 1.377 . S
C1526 C1524 1.389 . S
C1526 C1527 1.524 . S
C1526 C1540 1.377 . S
C1527 C1526 1.524 . S
C1527 C1528 1.397 . S
C1527 C1532 1.363 . S
C1528 H1505 0.950 . S
C1528 C1527 1.397 . S
C1528 C1529 1.334 . S
C1529 H1506 0.950 . S
C1529 C1528 1.334 . S
C1529 C1530 1.287 . S
C1530 C1529 1.287 . S
C1530 C1531 1.524 . S
C1530 H1549 0.913 . S
C1531 H1507 0.950 . S
C1531 C1530 1.524 . S
C1531 C1532 1.415 . S
C1532 H1508 0.950 . S
C1532 C1527 1.363 . S
C1532 C1531 1.415 . S
C1533 H1509 0.951 . S
C1533 C1534 1.366 . S
C1533 C1535 1.388 . S
C1534 C1533 1.366 . S
C1534 C1538 1.385 . S
C1535 H1510 0.951 . S
C1535 C1533 1.388 . S
C1535 C1536 1.366 . S
C1536 C1535 1.366 . S
C1536 C1537 1.414 . S
C1536 C1539 1.499 . S
C1537 H1511 0.950 . S
C1537 C1536 1.414 . S
C1537 C1538 1.374 . S
C1538 H1512 0.950 . S
C1538 C1534 1.385 . S
C1538 C1537 1.374 . S
C1539 C1536 1.499 . S
C1539 C1540 1.373 . S
C1539 C1541 1.389 . S
C1540 H1513 0.950 . S
C1540 C1526 1.377 . S
C1540 C1539 1.373 . S
C1541 C1525 1.377 . S
C1541 C1539 1.389 . S
C1541 C1542 1.524 . S
C1542 C1541 1.524 . S
C1542 C1543 1.397 . S
C1542 C1547 1.363 . S
C1543 H1514 0.950 . S
C1543 C1542 1.397 . S
C1543 C1544 1.334 . S
C1544 H1515 0.950 . S
C1544 C1543 1.334 . S
C1544 C1545 1.287 . S
C1545 C1544 1.287 . S
C1545 C1546 1.524 . S
C1545 H1548 0.999 . S
C1546 H1516 0.950 . S
C1546 C1545 1.524 . S
C1546 C1547 1.415 . S
C1547 H1517 0.950 . S
C1547 C1542 1.363 . S
C1547 C1546 1.415 . S
H1548 C1545 0.999 . S
H1549 C1530 0.913 . S
H1550 C1568 0.951 . S
H1551 C1570 0.951 . S
H1552 C1572 0.950 . S
H1553 C1573 0.950 . S
H1554 C1575 0.950 . S
H1555 C1578 0.950 . S
H1556 C1579 0.950 . S
H1557 C1581 0.950 . S
H1558 C1582 0.950 . S
H1559 C1583 0.951 . S
H1560 C1585 0.951 . S
H1561 C1587 0.950 . S
H1562 C1588 0.950 . S
H1563 C1590 0.950 . S
H1564 C1593 0.950 . S
H1565 C1594 0.950 . S
H1566 C1596 0.950 . S
H1567 C1597 0.950 . S
C1568 H1550 0.951 . S
C1568 C1569 1.366 . S
C1568 C1570 1.388 . S
C1569 C1568 1.366 . S
C1569 C1573 1.385 . S
C1570 H1551 0.951 . S
C1570 C1568 1.388 . S
C1570 C1571 1.366 . S
C1571 C1570 1.366 . S
C1571 C1572 1.414 . S
C1571 C1574 1.499 . S
C1572 H1552 0.950 . S
C1572 C1571 1.414 . S
C1572 C1573 1.374 . S
C1573 H1553 0.950 . S
C1573 C1569 1.385 . S
C1573 C1572 1.374 . S
C1574 C1571 1.499 . S
C1574 C1575 1.373 . S
C1574 C1576 1.389 . S
C1575 H1554 0.950 . S
C1575 C1574 1.373 . S
C1575 C1591 1.377 . S
C1576 C1574 1.389 . S
C1576 C1577 1.524 . S
C1576 C1590 1.377 . S
C1577 C1576 1.524 . S
C1577 C1578 1.397 . S
C1577 C1582 1.363 . S
C1578 H1555 0.950 . S
C1578 C1577 1.397 . S
C1578 C1579 1.334 . S
C1579 H1556 0.950 . S
C1579 C1578 1.334 . S
C1579 C1580 1.287 . S
C1580 C1579 1.287 . S
C1580 C1581 1.524 . S
C1580 H1599 0.913 . S
C1581 H1557 0.950 . S
C1581 C1580 1.524 . S
C1581 C1582 1.415 . S
C1582 H1558 0.950 . S
C1582 C1577 1.363 . S
C1582 C1581 1.415 . S
C1583 H1559 0.951 . S
C1583 C1584 1.366 . S
C1583 C1585 1.388 . S
C1584 C1583 1.366 . S
C1584 C1588 1.385 . S
C1585 H1560 0.951 . S
C1585 C1583 1.388 . S
C1585 C1586 1.366 . S
C1586 C1585 1.366 . S
C1586 C1587 1.414 . S
C1586 C1589 1.499 . S
C1587 H1561 0.950 . S
C1587 C1586 1.414 . S
C1587 C1588 1.374 . S
C1588 H1562 0.950 . S
C1588 C1584 1.385 . S
C1588 C1587 1.374 . S
C1589 C1586 1.499 . S
C1589 C1590 1.373 . S
C1589 C1591 1.389 . S
C1590 H1563 0.950 . S
C1590 C1576 1.377 . S
C1590 C1589 1.373 . S
C1591 C1575 1.377 . S
C1591 C1589 1.389 . S
C1591 C1592 1.524 . S
C1592 C1591 1.524 . S
C1592 C1593 1.397 . S
C1592 C1597 1.363 . S
C1593 H1564 0.950 . S
C1593 C1592 1.397 . S
C1593 C1594 1.334 . S
C1594 H1565 0.950 . S
C1594 C1593 1.334 . S
C1594 C1595 1.287 . S
C1595 C1594 1.287 . S
C1595 C1596 1.524 . S
C1595 H1598 0.999 . S
C1596 H1566 0.950 . S
C1596 C1595 1.524 . S
C1596 C1597 1.415 . S
C1597 H1567 0.950 . S
C1597 C1592 1.363 . S
C1597 C1596 1.415 . S
H1598 C1595 0.999 . S
H1599 C1580 0.913 . S
H1600 C1618 0.951 . S
H1601 C1620 0.951 . S
H1602 C1622 0.950 . S
H1603 C1623 0.950 . S
H1604 C1625 0.950 . S
H1605 C1628 0.950 . S
H1606 C1629 0.950 . S
H1607 C1631 0.950 . S
H1608 C1632 0.950 . S
H1609 C1633 0.951 . S
H1610 C1635 0.951 . S
H1611 C1637 0.950 . S
H1612 C1638 0.950 . S
H1613 C1640 0.950 . S
H1614 C1643 0.950 . S
H1615 C1644 0.950 . S
H1616 C1646 0.950 . S
H1617 C1647 0.950 . S
C1618 H1600 0.951 . S
C1618 C1619 1.366 . S
C1618 C1620 1.388 . S
C1619 C1618 1.366 . S
C1619 C1623 1.385 . S
C1620 H1601 0.951 . S
C1620 C1618 1.388 . S
C1620 C1621 1.366 . S
C1621 C1620 1.366 . S
C1621 C1622 1.414 . S
C1621 C1624 1.499 . S
C1622 H1602 0.950 . S
C1622 C1621 1.414 . S
C1622 C1623 1.374 . S
C1623 H1603 0.950 . S
C1623 C1619 1.385 . S
C1623 C1622 1.374 . S
C1624 C1621 1.499 . S
C1624 C1625 1.373 . S
C1624 C1626 1.389 . S
C1625 H1604 0.950 . S
C1625 C1624 1.373 . S
C1625 C1641 1.377 . S
C1626 C1624 1.389 . S
C1626 C1627 1.524 . S
C1626 C1640 1.377 . S
C1627 C1626 1.524 . S
C1627 C1628 1.397 . S
C1627 C1632 1.363 . S
C1628 H1605 0.950 . S
C1628 C1627 1.397 . S
C1628 C1629 1.334 . S
C1629 H1606 0.950 . S
C1629 C1628 1.334 . S
C1629 C1630 1.287 . S
C1630 C1629 1.287 . S
C1630 C1631 1.524 . S
C1630 H1649 0.913 . S
C1631 H1607 0.950 . S
C1631 C1630 1.524 . S
C1631 C1632 1.415 . S
C1632 H1608 0.950 . S
C1632 C1627 1.363 . S
C1632 C1631 1.415 . S
C1633 H1609 0.951 . S
C1633 C1634 1.366 . S
C1633 C1635 1.388 . S
C1634 C1633 1.366 . S
C1634 C1638 1.385 . S
C1635 H1610 0.951 . S
C1635 C1633 1.388 . S
C1635 C1636 1.366 . S
C1636 C1635 1.366 . S
C1636 C1637 1.414 . S
C1636 C1639 1.499 . S
C1637 H1611 0.950 . S
C1637 C1636 1.414 . S
C1637 C1638 1.374 . S
C1638 H1612 0.950 . S
C1638 C1634 1.385 . S
C1638 C1637 1.374 . S
C1639 C1636 1.499 . S
C1639 C1640 1.373 . S
C1639 C1641 1.389 . S
C1640 H1613 0.950 . S
C1640 C1626 1.377 . S
C1640 C1639 1.373 . S
C1641 C1625 1.377 . S
C1641 C1639 1.389 . S
C1641 C1642 1.524 . S
C1642 C1641 1.524 . S
C1642 C1643 1.397 . S
C1642 C1647 1.363 . S
C1643 H1614 0.950 . S
C1643 C1642 1.397 . S
C1643 C1644 1.334 . S
C1644 H1615 0.950 . S
C1644 C1643 1.334 . S
C1644 C1645 1.287 . S
C1645 C1644 1.287 . S
C1645 C1646 1.524 . S
C1645 H1648 0.999 . S
C1646 H1616 0.950 . S
C1646 C1645 1.524 . S
C1646 C1647 1.415 . S
C1647 H1617 0.950 . S
C1647 C1642 1.363 . S
C1647 C1646 1.415 . S
H1648 C1645 0.999 . S
H1649 C1630 0.913 . S
H1650 C1668 0.951 . S
H1651 C1670 0.951 . S
H1652 C1672 0.950 . S
H1653 C1673 0.950 . S
H1654 C1675 0.950 . S
H1655 C1678 0.950 . S
H1656 C1679 0.950 . S
H1657 C1681 0.950 . S
H1658 C1682 0.950 . S
H1659 C1683 0.951 . S
H1660 C1685 0.951 . S
H1661 C1687 0.950 1_556 S
H1662 C1688 0.950 . S
H1663 C1690 0.950 . S
H1664 C1693 0.950 . S
H1665 C1694 0.950 . S
H1666 C1696 0.950 . S
H1667 C1697 0.950 . S
C1668 H1650 0.951 . S
C1668 C1669 1.366 . S
C1668 C1670 1.388 . S
C1669 C1668 1.366 . S
C1669 C1673 1.385 . S
C1670 H1651 0.951 . S
C1670 C1668 1.388 . S
C1670 C1671 1.366 . S
C1671 C1670 1.366 . S
C1671 C1672 1.414 . S
C1671 C1674 1.499 . S
C1672 H1652 0.950 . S
C1672 C1671 1.414 . S
C1672 C1673 1.374 . S
C1673 H1653 0.950 . S
C1673 C1669 1.385 . S
C1673 C1672 1.374 . S
C1674 C1671 1.499 . S
C1674 C1675 1.373 . S
C1674 C1676 1.389 . S
C1675 H1654 0.950 . S
C1675 C1674 1.373 . S
C1675 C1691 1.377 . S
C1676 C1674 1.389 . S
C1676 C1677 1.524 . S
C1676 C1690 1.377 . S
C1677 C1676 1.524 . S
C1677 C1678 1.397 . S
C1677 C1682 1.363 . S
C1678 H1655 0.950 . S
C1678 C1677 1.397 . S
C1678 C1679 1.334 . S
C1679 H1656 0.950 . S
C1679 C1678 1.334 . S
C1679 C1680 1.287 . S
C1680 C1679 1.287 . S
C1680 C1681 1.524 . S
C1680 H1699 0.913 . S
C1681 H1657 0.950 . S
C1681 C1680 1.524 . S
C1681 C1682 1.415 . S
C1682 H1658 0.950 . S
C1682 C1677 1.363 . S
C1682 C1681 1.415 . S
C1683 H1659 0.951 . S
C1683 C1684 1.366 . S
C1683 C1685 1.388 . S
C1684 C1683 1.366 . S
C1684 C1688 1.385 . S
C1685 H1660 0.951 . S
C1685 C1683 1.388 . S
C1685 C1686 1.366 . S
C1686 C1685 1.366 . S
C1686 C1687 1.414 . S
C1686 C1689 1.499 1_554 S
C1687 H1661 0.950 1_554 S
C1687 C1686 1.414 . S
C1687 C1688 1.374 . S
C1688 H1662 0.950 . S
C1688 C1684 1.385 . S
C1688 C1687 1.374 . S
C1689 C1686 1.499 1_556 S
C1689 C1690 1.373 . S
C1689 C1691 1.389 . S
C1690 H1663 0.950 . S
C1690 C1676 1.377 . S
C1690 C1689 1.373 . S
C1691 C1675 1.377 . S
C1691 C1689 1.389 . S
C1691 C1692 1.524 1_556 S
C1692 C1691 1.524 1_554 S
C1692 C1693 1.397 . S
C1692 C1697 1.363 . S
C1693 H1664 0.950 . S
C1693 C1692 1.397 . S
C1693 C1694 1.334 . S
C1694 H1665 0.950 . S
C1694 C1693 1.334 . S
C1694 C1695 1.287 . S
C1695 C1694 1.287 . S
C1695 C1696 1.524 . S
C1695 H1698 0.999 . S
C1696 H1666 0.950 . S
C1696 C1695 1.524 . S
C1696 C1697 1.415 . S
C1697 H1667 0.950 . S
C1697 C1692 1.363 . S
C1697 C1696 1.415 . S
H1698 C1695 0.999 . S
H1699 C1680 0.913 . S
H1700 C1718 0.951 . S
H1701 C1720 0.951 . S
H1702 C1722 0.950 . S
H1703 C1723 0.950 . S
H1704 C1725 0.950 . S
H1705 C1728 0.950 . S
H1706 C1729 0.950 . S
H1707 C1731 0.950 . S
H1708 C1732 0.950 . S
H1709 C1733 0.951 . S
H1710 C1735 0.951 . S
H1711 C1737 0.950 . S
H1712 C1738 0.950 . S
H1713 C1740 0.950 . S
H1714 C1743 0.950 . S
H1715 C1744 0.950 . S
H1716 C1746 0.950 . S
H1717 C1747 0.950 . S
C1718 H1700 0.951 . S
C1718 C1719 1.366 . S
C1718 C1720 1.388 . S
C1719 C1718 1.366 . S
C1719 C1723 1.385 . S
C1720 H1701 0.951 . S
C1720 C1718 1.388 . S
C1720 C1721 1.366 . S
C1721 C1720 1.366 . S
C1721 C1722 1.414 . S
C1721 C1724 1.499 . S
C1722 H1702 0.950 . S
C1722 C1721 1.414 . S
C1722 C1723 1.374 . S
C1723 H1703 0.950 . S
C1723 C1719 1.385 . S
C1723 C1722 1.374 . S
C1724 C1721 1.499 . S
C1724 C1725 1.373 . S
C1724 C1726 1.389 . S
C1725 H1704 0.950 . S
C1725 C1724 1.373 . S
C1725 C1741 1.377 . S
C1726 C1724 1.389 . S
C1726 C1727 1.524 . S
C1726 C1740 1.377 . S
C1727 C1726 1.524 . S
C1727 C1728 1.397 . S
C1727 C1732 1.363 . S
C1728 H1705 0.950 . S
C1728 C1727 1.397 . S
C1728 C1729 1.334 . S
C1729 H1706 0.950 . S
C1729 C1728 1.334 . S
C1729 C1730 1.287 . S
C1730 C1729 1.287 . S
C1730 C1731 1.524 . S
C1730 H1749 0.913 . S
C1731 H1707 0.950 . S
C1731 C1730 1.524 . S
C1731 C1732 1.415 . S
C1732 H1708 0.950 . S
C1732 C1727 1.363 . S
C1732 C1731 1.415 . S
C1733 H1709 0.951 . S
C1733 C1734 1.366 . S
C1733 C1735 1.388 . S
C1734 C1733 1.366 . S
C1734 C1738 1.385 . S
C1735 H1710 0.951 . S
C1735 C1733 1.388 . S
C1735 C1736 1.366 . S
C1736 C1735 1.366 . S
C1736 C1737 1.414 . S
C1736 C1739 1.499 . S
C1737 H1711 0.950 . S
C1737 C1736 1.414 . S
C1737 C1738 1.374 . S
C1738 H1712 0.950 . S
C1738 C1734 1.385 . S
C1738 C1737 1.374 . S
C1739 C1736 1.499 . S
C1739 C1740 1.373 . S
C1739 C1741 1.389 . S
C1740 H1713 0.950 . S
C1740 C1726 1.377 . S
C1740 C1739 1.373 . S
C1741 C1725 1.377 . S
C1741 C1739 1.389 . S
C1741 C1742 1.524 . S
C1742 C1741 1.524 . S
C1742 C1743 1.397 . S
C1742 C1747 1.363 . S
C1743 H1714 0.950 . S
C1743 C1742 1.397 . S
C1743 C1744 1.334 . S
C1744 H1715 0.950 . S
C1744 C1743 1.334 . S
C1744 C1745 1.287 . S
C1745 C1744 1.287 . S
C1745 C1746 1.524 . S
C1745 H1748 0.999 . S
C1746 H1716 0.950 . S
C1746 C1745 1.524 . S
C1746 C1747 1.415 . S
C1747 H1717 0.950 . S
C1747 C1742 1.363 . S
C1747 C1746 1.415 . S
H1748 C1745 0.999 . S
H1749 C1730 0.913 . S
H1750 C1768 0.951 . S
H1751 C1770 0.951 . S
H1752 C1772 0.950 . S
H1753 C1773 0.950 . S
H1754 C1775 0.950 . S
H1755 C1778 0.950 . S
H1756 C1779 0.950 . S
H1757 C1781 0.950 . S
H1758 C1782 0.950 . S
H1759 C1783 0.951 . S
H1760 C1785 0.951 . S
H1761 C1787 0.950 . S
H1762 C1788 0.950 . S
H1763 C1790 0.950 . S
H1764 C1793 0.950 . S
H1765 C1794 0.950 . S
H1766 C1796 0.950 . S
H1767 C1797 0.950 . S
C1768 H1750 0.951 . S
C1768 C1769 1.366 . S
C1768 C1770 1.388 . S
C1769 C1768 1.366 . S
C1769 C1773 1.385 . S
C1770 H1751 0.951 . S
C1770 C1768 1.388 . S
C1770 C1771 1.366 . S
C1771 C1770 1.366 . S
C1771 C1772 1.414 . S
C1771 C1774 1.499 . S
C1772 H1752 0.950 . S
C1772 C1771 1.414 . S
C1772 C1773 1.374 . S
C1773 H1753 0.950 . S
C1773 C1769 1.385 . S
C1773 C1772 1.374 . S
C1774 C1771 1.499 . S
C1774 C1775 1.373 . S
C1774 C1776 1.389 . S
C1775 H1754 0.950 . S
C1775 C1774 1.373 . S
C1775 C1791 1.377 . S
C1776 C1774 1.389 . S
C1776 C1777 1.524 . S
C1776 C1790 1.377 . S
C1777 C1776 1.524 . S
C1777 C1778 1.397 . S
C1777 C1782 1.363 . S
C1778 H1755 0.950 . S
C1778 C1777 1.397 . S
C1778 C1779 1.334 . S
C1779 H1756 0.950 . S
C1779 C1778 1.334 . S
C1779 C1780 1.287 . S
C1780 C1779 1.287 . S
C1780 C1781 1.524 . S
C1780 H1799 0.913 . S
C1781 H1757 0.950 . S
C1781 C1780 1.524 . S
C1781 C1782 1.415 . S
C1782 H1758 0.950 . S
C1782 C1777 1.363 . S
C1782 C1781 1.415 . S
C1783 H1759 0.951 . S
C1783 C1784 1.366 . S
C1783 C1785 1.388 . S
C1784 C1783 1.366 . S
C1784 C1788 1.385 . S
C1785 H1760 0.951 . S
C1785 C1783 1.388 . S
C1785 C1786 1.366 . S
C1786 C1785 1.366 . S
C1786 C1787 1.414 . S
C1786 C1789 1.499 . S
C1787 H1761 0.950 . S
C1787 C1786 1.414 . S
C1787 C1788 1.374 . S
C1788 H1762 0.950 . S
C1788 C1784 1.385 . S
C1788 C1787 1.374 . S
C1789 C1786 1.499 . S
C1789 C1790 1.373 . S
C1789 C1791 1.389 . S
C1790 H1763 0.950 . S
C1790 C1776 1.377 . S
C1790 C1789 1.373 . S
C1791 C1775 1.377 . S
C1791 C1789 1.389 . S
C1791 C1792 1.524 . S
C1792 C1791 1.524 . S
C1792 C1793 1.397 . S
C1792 C1797 1.363 . S
C1793 H1764 0.950 . S
C1793 C1792 1.397 . S
C1793 C1794 1.334 . S
C1794 H1765 0.950 . S
C1794 C1793 1.334 . S
C1794 C1795 1.287 . S
C1795 C1794 1.287 . S
C1795 C1796 1.524 . S
C1795 H1798 0.999 . S
C1796 H1766 0.950 . S
C1796 C1795 1.524 . S
C1796 C1797 1.415 . S
C1797 H1767 0.950 . S
C1797 C1792 1.363 . S
C1797 C1796 1.415 . S
H1798 C1795 0.999 . S
H1799 C1780 0.913 . S
H1800 C1818 0.951 . S
H1801 C1820 0.951 . S
H1802 C1822 0.950 . S
H1803 C1823 0.950 . S
H1804 C1825 0.950 . S
H1805 C1828 0.950 . S
H1806 C1829 0.950 . S
H1807 C1831 0.950 . S
H1808 C1832 0.950 . S
H1809 C1833 0.951 . S
H1810 C1835 0.951 . S
H1811 C1837 0.950 . S
H1812 C1838 0.950 . S
H1813 C1840 0.950 . S
H1814 C1843 0.950 . S
H1815 C1844 0.950 . S
H1816 C1846 0.950 . S
H1817 C1847 0.950 . S
C1818 H1800 0.951 . S
C1818 C1819 1.366 . S
C1818 C1820 1.388 . S
C1819 C1818 1.366 . S
C1819 C1823 1.385 . S
C1820 H1801 0.951 . S
C1820 C1818 1.388 . S
C1820 C1821 1.366 . S
C1821 C1820 1.366 . S
C1821 C1822 1.414 . S
C1821 C1824 1.499 . S
C1822 H1802 0.950 . S
C1822 C1821 1.414 . S
C1822 C1823 1.374 . S
C1823 H1803 0.950 . S
C1823 C1819 1.385 . S
C1823 C1822 1.374 . S
C1824 C1821 1.499 . S
C1824 C1825 1.373 . S
C1824 C1826 1.389 . S
C1825 H1804 0.950 . S
C1825 C1824 1.373 . S
C1825 C1841 1.377 . S
C1826 C1824 1.389 . S
C1826 C1827 1.524 . S
C1826 C1840 1.377 . S
C1827 C1826 1.524 . S
C1827 C1828 1.397 . S
C1827 C1832 1.363 . S
C1828 H1805 0.950 . S
C1828 C1827 1.397 . S
C1828 C1829 1.334 . S
C1829 H1806 0.950 . S
C1829 C1828 1.334 . S
C1829 C1830 1.287 . S
C1830 C1829 1.287 . S
C1830 C1831 1.524 . S
C1830 H1849 0.913 . S
C1831 H1807 0.950 . S
C1831 C1830 1.524 . S
C1831 C1832 1.415 . S
C1832 H1808 0.950 . S
C1832 C1827 1.363 . S
C1832 C1831 1.415 . S
C1833 H1809 0.951 . S
C1833 C1834 1.366 . S
C1833 C1835 1.388 . S
C1834 C1833 1.366 . S
C1834 C1838 1.385 . S
C1835 H1810 0.951 . S
C1835 C1833 1.388 . S
C1835 C1836 1.366 . S
C1836 C1835 1.366 . S
C1836 C1837 1.414 . S
C1836 C1839 1.499 . S
C1837 H1811 0.950 . S
C1837 C1836 1.414 . S
C1837 C1838 1.374 . S
C1838 H1812 0.950 . S
C1838 C1834 1.385 . S
C1838 C1837 1.374 . S
C1839 C1836 1.499 . S
C1839 C1840 1.373 . S
C1839 C1841 1.389 . S
C1840 H1813 0.950 . S
C1840 C1826 1.377 . S
C1840 C1839 1.373 . S
C1841 C1825 1.377 . S
C1841 C1839 1.389 . S
C1841 C1842 1.524 . S
C1842 C1841 1.524 . S
C1842 C1843 1.397 . S
C1842 C1847 1.363 . S
C1843 H1814 0.950 . S
C1843 C1842 1.397 . S
C1843 C1844 1.334 . S
C1844 H1815 0.950 . S
C1844 C1843 1.334 . S
C1844 C1845 1.287 . S
C1845 C1844 1.287 . S
C1845 C1846 1.524 . S
C1845 H1848 0.999 . S
C1846 H1816 0.950 . S
C1846 C1845 1.524 . S
C1846 C1847 1.415 . S
C1847 H1817 0.950 . S
C1847 C1842 1.363 . S
C1847 C1846 1.415 . S
H1848 C1845 0.999 . S
H1849 C1830 0.913 . S
H1850 C1868 0.951 . S
H1851 C1870 0.951 . S
H1852 C1872 0.950 . S
H1853 C1873 0.950 . S
H1854 C1875 0.950 . S
H1855 C1878 0.950 . S
H1856 C1879 0.950 . S
H1857 C1881 0.950 . S
H1858 C1882 0.950 . S
H1859 C1883 0.951 . S
H1860 C1885 0.951 . S
H1861 C1887 0.950 . S
H1862 C1888 0.950 . S
H1863 C1890 0.950 . S
H1864 C1893 0.950 . S
H1865 C1894 0.950 . S
H1866 C1896 0.950 . S
H1867 C1897 0.950 . S
C1868 H1850 0.951 . S
C1868 C1869 1.366 . S
C1868 C1870 1.388 . S
C1869 C1868 1.366 . S
C1869 C1873 1.385 . S
C1870 H1851 0.951 . S
C1870 C1868 1.388 . S
C1870 C1871 1.366 . S
C1871 C1870 1.366 . S
C1871 C1872 1.414 . S
C1871 C1874 1.499 . S
C1872 H1852 0.950 . S
C1872 C1871 1.414 . S
C1872 C1873 1.374 . S
C1873 H1853 0.950 . S
C1873 C1869 1.385 . S
C1873 C1872 1.374 . S
C1874 C1871 1.499 . S
C1874 C1875 1.373 . S
C1874 C1876 1.389 . S
C1875 H1854 0.950 . S
C1875 C1874 1.373 . S
C1875 C1891 1.377 . S
C1876 C1874 1.389 . S
C1876 C1877 1.524 . S
C1876 C1890 1.377 . S
C1877 C1876 1.524 . S
C1877 C1878 1.397 . S
C1877 C1882 1.363 . S
C1878 H1855 0.950 . S
C1878 C1877 1.397 . S
C1878 C1879 1.334 . S
C1879 H1856 0.950 . S
C1879 C1878 1.334 . S
C1879 C1880 1.287 . S
C1880 C1879 1.287 . S
C1880 C1881 1.524 . S
C1880 H1899 0.913 . S
C1881 H1857 0.950 . S
C1881 C1880 1.524 . S
C1881 C1882 1.415 . S
C1882 H1858 0.950 . S
C1882 C1877 1.363 . S
C1882 C1881 1.415 . S
C1883 H1859 0.951 . S
C1883 C1884 1.366 . S
C1883 C1885 1.388 . S
C1884 C1883 1.366 . S
C1884 C1888 1.385 . S
C1885 H1860 0.951 . S
C1885 C1883 1.388 . S
C1885 C1886 1.366 . S
C1886 C1885 1.366 . S
C1886 C1887 1.414 . S
C1886 C1889 1.499 . S
C1887 H1861 0.950 . S
C1887 C1886 1.414 . S
C1887 C1888 1.374 . S
C1888 H1862 0.950 . S
C1888 C1884 1.385 . S
C1888 C1887 1.374 . S
C1889 C1886 1.499 . S
C1889 C1890 1.373 . S
C1889 C1891 1.389 . S
C1890 H1863 0.950 . S
C1890 C1876 1.377 . S
C1890 C1889 1.373 . S
C1891 C1875 1.377 . S
C1891 C1889 1.389 . S
C1891 C1892 1.524 . S
C1892 C1891 1.524 . S
C1892 C1893 1.397 . S
C1892 C1897 1.363 . S
C1893 H1864 0.950 . S
C1893 C1892 1.397 . S
C1893 C1894 1.334 . S
C1894 H1865 0.950 . S
C1894 C1893 1.334 . S
C1894 C1895 1.287 . S
C1895 C1894 1.287 . S
C1895 C1896 1.524 . S
C1895 H1898 0.999 . S
C1896 H1866 0.950 . S
C1896 C1895 1.524 . S
C1896 C1897 1.415 . S
C1897 H1867 0.950 . S
C1897 C1892 1.363 . S
C1897 C1896 1.415 . S
H1898 C1895 0.999 . S
H1899 C1880 0.913 . S
H1900 C1918 0.951 . S
H1901 C1920 0.951 . S
H1902 C1922 0.950 . S
H1903 C1923 0.950 . S
H1904 C1925 0.950 . S
H1905 C1928 0.950 . S
H1906 C1929 0.950 . S
H1907 C1931 0.950 . S
H1908 C1932 0.950 . S
H1909 C1933 0.951 . S
H1910 C1935 0.951 . S
H1911 C1937 0.950 . S
H1912 C1938 0.950 . S
H1913 C1940 0.950 . S
H1914 C1943 0.950 . S
H1915 C1944 0.950 . S
H1916 C1946 0.950 . S
H1917 C1947 0.950 . S
C1918 H1900 0.951 . S
C1918 C1919 1.366 . S
C1918 C1920 1.388 . S
C1919 C1918 1.366 . S
C1919 C1923 1.385 . S
C1920 H1901 0.951 . S
C1920 C1918 1.388 . S
C1920 C1921 1.366 . S
C1921 C1920 1.366 . S
C1921 C1922 1.414 . S
C1921 C1924 1.499 . S
C1922 H1902 0.950 . S
C1922 C1921 1.414 . S
C1922 C1923 1.374 . S
C1923 H1903 0.950 . S
C1923 C1919 1.385 . S
C1923 C1922 1.374 . S
C1924 C1921 1.499 . S
C1924 C1925 1.373 . S
C1924 C1926 1.389 . S
C1925 H1904 0.950 . S
C1925 C1924 1.373 . S
C1925 C1941 1.377 . S
C1926 C1924 1.389 . S
C1926 C1927 1.524 . S
C1926 C1940 1.377 . S
C1927 C1926 1.524 . S
C1927 C1928 1.397 . S
C1927 C1932 1.363 . S
C1928 H1905 0.950 . S
C1928 C1927 1.397 . S
C1928 C1929 1.334 . S
C1929 H1906 0.950 . S
C1929 C1928 1.334 . S
C1929 C1930 1.287 . S
C1930 C1929 1.287 . S
C1930 C1931 1.524 . S
C1930 H1949 0.913 . S
C1931 H1907 0.950 . S
C1931 C1930 1.524 . S
C1931 C1932 1.415 . S
C1932 H1908 0.950 . S
C1932 C1927 1.363 . S
C1932 C1931 1.415 . S
C1933 H1909 0.951 . S
C1933 C1934 1.366 . S
C1933 C1935 1.388 . S
C1934 C1933 1.366 . S
C1934 C1938 1.385 . S
C1935 H1910 0.951 . S
C1935 C1933 1.388 . S
C1935 C1936 1.366 . S
C1936 C1935 1.366 . S
C1936 C1937 1.414 . S
C1936 C1939 1.499 . S
C1937 H1911 0.950 . S
C1937 C1936 1.414 . S
C1937 C1938 1.374 . S
C1938 H1912 0.950 . S
C1938 C1934 1.385 . S
C1938 C1937 1.374 . S
C1939 C1936 1.499 . S
C1939 C1940 1.373 . S
C1939 C1941 1.389 . S
C1940 H1913 0.950 . S
C1940 C1926 1.377 . S
C1940 C1939 1.373 . S
C1941 C1925 1.377 . S
C1941 C1939 1.389 . S
C1941 C1942 1.524 . S
C1942 C1941 1.524 . S
C1942 C1943 1.397 . S
C1942 C1947 1.363 . S
C1943 H1914 0.950 . S
C1943 C1942 1.397 . S
C1943 C1944 1.334 . S
C1944 H1915 0.950 . S
C1944 C1943 1.334 . S
C1944 C1945 1.287 . S
C1945 C1944 1.287 . S
C1945 C1946 1.524 . S
C1945 H1948 0.999 . S
C1946 H1916 0.950 . S
C1946 C1945 1.524 . S
C1946 C1947 1.415 . S
C1947 H1917 0.950 . S
C1947 C1942 1.363 . S
C1947 C1946 1.415 . S
H1948 C1945 0.999 . S
H1949 C1930 0.913 . S
H1950 C1968 0.951 . S
H1951 C1970 0.951 . S
H1952 C1972 0.950 . S
H1953 C1973 0.950 . S
H1954 C1975 0.950 . S
H1955 C1978 0.950 . S
H1956 C1979 0.950 . S
H1957 C1981 0.950 . S
H1958 C1982 0.950 . S
H1959 C1983 0.951 . S
H1960 C1985 0.951 . S
H1961 C1987 0.950 . S
H1962 C1988 0.950 . S
H1963 C1990 0.950 . S
H1964 C1993 0.950 . S
H1965 C1994 0.950 . S
H1966 C1996 0.950 . S
H1967 C1997 0.950 . S
C1968 H1950 0.951 . S
C1968 C1969 1.366 . S
C1968 C1970 1.388 . S
C1969 C1968 1.366 . S
C1969 C1973 1.385 . S
C1970 H1951 0.951 . S
C1970 C1968 1.388 . S
C1970 C1971 1.366 . S
C1971 C1970 1.366 . S
C1971 C1972 1.414 . S
C1971 C1974 1.499 . S
C1972 H1952 0.950 . S
C1972 C1971 1.414 . S
C1972 C1973 1.374 . S
C1973 H1953 0.950 . S
C1973 C1969 1.385 . S
C1973 C1972 1.374 . S
C1974 C1971 1.499 . S
C1974 C1975 1.373 . S
C1974 C1976 1.389 . S
C1975 H1954 0.950 . S
C1975 C1974 1.373 . S
C1975 C1991 1.377 . S
C1976 C1974 1.389 . S
C1976 C1977 1.524 . S
C1976 C1990 1.377 . S
C1977 C1976 1.524 . S
C1977 C1978 1.397 . S
C1977 C1982 1.363 . S
C1978 H1955 0.950 . S
C1978 C1977 1.397 . S
C1978 C1979 1.334 . S
C1979 H1956 0.950 . S
C1979 C1978 1.334 . S
C1979 C1980 1.287 . S
C1980 C1979 1.287 . S
C1980 C1981 1.524 . S
C1980 H1999 0.913 . S
C1981 H1957 0.950 . S
C1981 C1980 1.524 . S
C1981 C1982 1.415 . S
C1982 H1958 0.950 . S
C1982 C1977 1.363 . S
C1982 C1981 1.415 . S
C1983 H1959 0.951 . S
C1983 C1984 1.366 . S
C1983 C1985 1.388 . S
C1984 C1983 1.366 . S
C1984 C1988 1.385 . S
C1985 H1960 0.951 . S
C1985 C1983 1.388 . S
C1985 C1986 1.366 . S
C1986 C1985 1.366 . S
C1986 C1987 1.414 . S
C1986 C1989 1.499 . S
C1987 H1961 0.950 . S
C1987 C1986 1.414 . S
C1987 C1988 1.374 . S
C1988 H1962 0.950 . S
C1988 C1984 1.385 . S
C1988 C1987 1.374 . S
C1989 C1986 1.499 . S
C1989 C1990 1.373 . S
C1989 C1991 1.389 . S
C1990 H1963 0.950 . S
C1990 C1976 1.377 . S
C1990 C1989 1.373 . S
C1991 C1975 1.377 . S
C1991 C1989 1.389 . S
C1991 C1992 1.524 . S
C1992 C1991 1.524 . S
C1992 C1993 1.397 . S
C1992 C1997 1.363 . S
C1993 H1964 0.950 . S
C1993 C1992 1.397 . S
C1993 C1994 1.334 . S
C1994 H1965 0.950 . S
C1994 C1993 1.334 . S
C1994 C1995 1.287 . S
C1995 C1994 1.287 . S
C1995 C1996 1.524 . S
C1995 H1998 0.999 . S
C1996 H1966 0.950 . S
C1996 C1995 1.524 . S
C1996 C1997 1.415 . S
C1997 H1967 0.950 . S
C1997 C1992 1.363 . S
C1997 C1996 1.415 . S
H1998 C1995 0.999 . S
H1999 C1980 0.913 . S
H2000 C2018 0.951 . S
H2001 C2020 0.951 . S
H2002 C2022 0.950 . S
H2003 C2023 0.950 . S
H2004 C2025 0.950 . S
H2005 C2028 0.950 . S
H2006 C2029 0.950 . S
H2007 C2031 0.950 . S
H2008 C2032 0.950 . S
H2009 C2033 0.951 . S
H2010 C2035 0.951 . S
H2011 C2037 0.950 . S
H2012 C2038 0.950 . S
H2013 C2040 0.950 . S
H2014 C2043 0.950 . S
H2015 C2044 0.950 . S
H2016 C2046 0.950 . S
H2017 C2047 0.950 . S
C2018 H2000 0.951 . S
C2018 C2019 1.366 . S
C2018 C2020 1.388 . S
C2019 C2018 1.366 . S
C2019 C2023 1.385 . S
C2020 H2001 0.951 . S
C2020 C2018 1.388 . S
C2020 C2021 1.366 . S
C2021 C2020 1.366 . S
C2021 C2022 1.414 . S
C2021 C2024 1.499 . S
C2022 H2002 0.950 . S
C2022 C2021 1.414 . S
C2022 C2023 1.374 . S
C2023 H2003 0.950 . S
C2023 C2019 1.385 . S
C2023 C2022 1.374 . S
C2024 C2021 1.499 . S
C2024 C2025 1.373 . S
C2024 C2026 1.429 . S
C2025 H2004 0.950 . S
C2025 C2024 1.373 . S
C2025 C2041 1.377 1_554 S
C2026 C2024 1.429 . S
C2026 C2027 1.525 . S
C2026 C2040 1.333 1_554 S
C2027 C2026 1.525 . S
C2027 C2028 1.403 . S
C2027 C2032 1.355 1_554 S
C2028 H2005 0.950 . S
C2028 C2027 1.403 . S
C2028 C2029 1.334 . S
C2029 H2006 0.950 . S
C2029 C2028 1.334 . S
C2029 C2030 1.287 1_554 S
C2030 C2029 1.287 1_556 S
C2030 C2031 1.524 . S
C2030 H2049 0.913 . S
C2031 H2007 0.950 . S
C2031 C2030 1.524 . S
C2031 C2032 1.415 . S
C2032 H2008 0.950 . S
C2032 C2027 1.355 1_556 S
C2032 C2031 1.415 . S
C2033 H2009 0.951 . S
C2033 C2034 1.366 . S
C2033 C2035 1.388 . S
C2034 C2033 1.366 . S
C2034 C2038 1.385 . S
C2035 H2010 0.951 . S
C2035 C2033 1.388 . S
C2035 C2036 1.366 . S
C2036 C2035 1.366 . S
C2036 C2037 1.414 . S
C2036 C2039 1.499 . S
C2037 H2011 0.950 . S
C2037 C2036 1.414 . S
C2037 C2038 1.374 . S
C2038 H2012 0.950 . S
C2038 C2034 1.385 . S
C2038 C2037 1.374 . S
C2039 C2036 1.499 . S
C2039 C2040 1.373 . S
C2039 C2041 1.389 . S
C2040 H2013 0.950 . S
C2040 C2026 1.333 1_556 S
C2040 C2039 1.373 . S
C2041 C2025 1.377 1_556 S
C2041 C2039 1.389 . S
C2041 C2042 1.524 . S
C2042 C2041 1.524 . S
C2042 C2043 1.397 . S
C2042 C2047 1.363 1_556 S
C2043 H2014 0.950 . S
C2043 C2042 1.397 . S
C2043 C2044 1.334 . S
C2044 H2015 0.950 . S
C2044 C2043 1.334 . S
C2044 C2045 1.281 1_556 S
C2045 C2044 1.281 1_554 S
C2045 C2046 1.528 . S
C2045 H2048 0.999 . S
C2046 H2016 0.950 . S
C2046 C2045 1.528 . S
C2046 C2047 1.415 . S
C2047 H2017 0.950 . S
C2047 C2042 1.363 1_554 S
C2047 C2046 1.415 . S
H2048 C2045 0.999 . S
H2049 C2030 0.913 . S
H2050 C2068 0.951 . S
H2051 C2070 0.951 . S
H2052 C2072 0.950 . S
H2053 C2073 0.950 . S
H2054 C2075 0.950 . S
H2055 C2078 0.950 . S
H2056 C2079 0.950 . S
H2057 C2081 0.950 . S
H2058 C2082 0.950 . S
H2059 C2083 0.951 . S
H2060 C2085 0.951 . S
H2061 C2087 0.950 . S
H2062 C2088 0.950 . S
H2063 C2090 0.950 . S
H2064 C2093 0.950 . S
H2065 C2094 0.950 . S
H2066 C2096 0.950 . S
H2067 C2097 0.950 . S
C2068 H2050 0.951 . S
C2068 C2069 1.366 . S
C2068 C2070 1.388 . S
C2069 C2068 1.366 . S
C2069 C2073 1.385 . S
C2070 H2051 0.951 . S
C2070 C2068 1.388 . S
C2070 C2071 1.366 . S
C2071 C2070 1.366 . S
C2071 C2072 1.414 . S
C2071 C2074 1.499 . S
C2072 H2052 0.950 . S
C2072 C2071 1.414 . S
C2072 C2073 1.374 . S
C2073 H2053 0.950 . S
C2073 C2069 1.385 . S
C2073 C2072 1.374 . S
C2074 C2071 1.499 . S
C2074 C2075 1.373 . S
C2074 C2076 1.389 . S
C2075 H2054 0.950 . S
C2075 C2074 1.373 . S
C2075 C2091 1.377 . S
C2076 C2074 1.389 . S
C2076 C2077 1.524 . S
C2076 C2090 1.377 . S
C2077 C2076 1.524 . S
C2077 C2078 1.397 . S
C2077 C2082 1.363 . S
C2078 H2055 0.950 . S
C2078 C2077 1.397 . S
C2078 C2079 1.334 . S
C2079 H2056 0.950 . S
C2079 C2078 1.334 . S
C2079 C2080 1.287 . S
C2080 C2079 1.287 . S
C2080 C2081 1.524 . S
C2080 H2099 0.913 . S
C2081 H2057 0.950 . S
C2081 C2080 1.524 . S
C2081 C2082 1.415 . S
C2082 H2058 0.950 . S
C2082 C2077 1.363 . S
C2082 C2081 1.415 . S
C2083 H2059 0.951 . S
C2083 C2084 1.366 . S
C2083 C2085 1.388 . S
C2084 C2083 1.366 . S
C2084 C2088 1.385 . S
C2085 H2060 0.951 . S
C2085 C2083 1.388 . S
C2085 C2086 1.366 . S
C2086 C2085 1.366 . S
C2086 C2087 1.414 . S
C2086 C2089 1.499 . S
C2087 H2061 0.950 . S
C2087 C2086 1.414 . S
C2087 C2088 1.374 . S
C2088 H2062 0.950 . S
C2088 C2084 1.385 . S
C2088 C2087 1.374 . S
C2089 C2086 1.499 . S
C2089 C2090 1.373 . S
C2089 C2091 1.389 . S
C2090 H2063 0.950 . S
C2090 C2076 1.377 . S
C2090 C2089 1.373 . S
C2091 C2075 1.377 . S
C2091 C2089 1.389 . S
C2091 C2092 1.524 . S
C2092 C2091 1.524 . S
C2092 C2093 1.397 . S
C2092 C2097 1.363 . S
C2093 H2064 0.950 . S
C2093 C2092 1.397 . S
C2093 C2094 1.334 . S
C2094 H2065 0.950 . S
C2094 C2093 1.334 . S
C2094 C2095 1.287 . S
C2095 C2094 1.287 . S
C2095 C2096 1.524 . S
C2095 H2098 0.999 . S
C2096 H2066 0.950 . S
C2096 C2095 1.524 . S
C2096 C2097 1.415 . S
C2097 H2067 0.950 . S
C2097 C2092 1.363 . S
C2097 C2096 1.415 . S
H2098 C2095 0.999 . S
H2099 C2080 0.913 . S
C934 C867 1.636 . S
C919 C1 1.212 . S
C969 C169 1.513 . S
C984 C687 1.823 . S
C1019 C283 1.450 . S
C1034 C734 1.769 . S
C1069 C397 1.238 . S
C1084 C770 1.529 . S
C1134 C795 1.443 . S
C1119 C457 1.082 . S
C1169 C571 1.100 . S
C1184 C831 1.466 . S
C1219 C115 1.244 . S
C1234 C723 1.665 . S
C1269 C229 1.097 . S
C1284 C759 1.485 . S
C1319 C343 1.063 . S
C1334 C806 1.384 . S
C1384 C842 1.605 . S
C1369 C511 1.308 . S
C1434 C878 1.744 . S
C1419 C625 1.431 . S
C1484 C698 1.810 . S
C1469 C55 1.497 . S
C1519 C29 1.118 . S
C1534 C722 1.389 . S
C1569 C125 0.962 . S
C1584 C758 1.525 . S
C1634 C796 1.468 . S
C1619 C239 0.915 . S
C1669 C353 0.910 . S
C1684 C832 1.452 . S
C1734 C868 1.331 . S
C1719 C485 1.061 . S
C1784 C688 1.382 . S
C1769 C599 1.103 . S
C1834 C866 1.390 . S
C1819 C143 1.119 . S
C1869 C257 1.103 . S
C1884 C686 1.379 . S
C1934 C724 1.326 . S
C1919 C371 1.072 . S
C1969 C467 0.915 . S
C1984 C760 1.458 . S
C2019 C581 0.915 . S
C2034 C794 1.478 . S
C2069 C11 0.950 . S
C2084 C830 1.523 . S
