# Generated by pormake.
# Topology scu, (8,4)-cn, num edge types: 1
# Building blocks:
#     Node 0, Type 0, BuildingBlock: TAGTUT_clean_sbu_3, # of connection points: 8
#     Node 1, Type 1, BuildingBlock: IZENUY_clean_linker_0, # of connection points: 4
#     Node 2, Type 1, BuildingBlock: IZENUY_clean_linker_0, # of connection points: 4
#     Edge 3, Type (0, 1), BuildingBlock: FUNLAD_clean_linker_1, # of connection points: 2
#     Edge 4, Type (0, 1), BuildingBlock: FUNLAD_clean_linker_1, # of connection points: 2
#     Edge 5, Type (0, 1), BuildingBlock: FUNLAD_clean_linker_1, # of connection points: 2
#     Edge 6, Type (0, 1), BuildingBlock: FUNLAD_clean_linker_1, # of connection points: 2
#     Edge 7, Type (0, 1), BuildingBlock: FUNLAD_clean_linker_1, # of connection points: 2
#     Edge 8, Type (0, 1), BuildingBlock: FUNLAD_clean_linker_1, # of connection points: 2
#     Edge 9, Type (0, 1), BuildingBlock: FUNLAD_clean_linker_1, # of connection points: 2
#     Edge 10, Type (0, 1), BuildingBlock: FUNLAD_clean_linker_1, # of connection points: 2
# Relax obj value: 0.053
# Max RMSD: 0.182
# Mean RMSD: 0.141
data_MOF--net-scu--node1-TAGTUT_clean_sbu_3--node2-IZENUY_clean_linker_0--edge1-FUNLAD_clean_linker_1
_symmetry_space_group_name_H-M    P1
_symmetry_Int_Tables_number       1
_symmetry_cell_setting            triclinic
loop_
_symmetry_equiv_pos_as_xyz
'x, y, z'
_cell_length_a     32.449802
_cell_length_b     28.063973
_cell_length_c     19.676559
_cell_angle_alpha  91.144221
_cell_angle_beta   90.526034
_cell_angle_gamma 90.001977
loop_
_atom_site_label
_atom_site_type_symbol
_atom_site_fract_x
_atom_site_fract_y
_atom_site_fract_z
_atom_type_partial_charge
C0 C 1.0096 0.90673 0.0753 0.0
C1 C 0.86571 -0.00135 0.07141 0.0
C2 C 0.90337 0.04079 0.87678 0.0
Mg3 Mg 0.09508 0.933 0.0008 0.0
Mg4 Mg 0.11941 0.04428 0.97135 0.0
O5 O 0.08071 0.99543 0.95754 0.0
Mg6 Mg 0.02302 0.00428 0.9919 0.0
O7 O 0.96481 0.00715 0.02547 0.0
Mg8 Mg 0.9402 0.95126 0.97368 0.0
Mg9 Mg 0.9355 0.06434 0.01802 0.0
C10 C 0.04424 0.10241 0.9089 0.0
O11 O 0.03902 0.06232 0.0732 0.0
O12 O 0.155 0.93349 0.93499 0.0
O13 O 0.98207 0.10886 0.06796 0.0
O14 O 0.13188 0.96873 0.08956 0.0
O15 O 0.16937 0.01101 0.91798 0.0
O16 O 0.13889 0.04702 0.07534 0.0
O17 O 1.00155 0.9484 0.91373 0.0
O18 O 0.05594 0.89931 0.91464 0.0
C19 C 0.01988 0.91051 0.89284 0.0
C20 C 0.17774 0.96657 0.91084 0.0
O21 O 0.01764 0.06966 0.92164 0.0
O22 O 0.88209 0.96238 0.04113 0.0
O23 O 0.08228 0.10029 0.92727 0.0
O24 O 0.90887 0.99734 0.89266 0.0
O25 O 0.88142 0.04058 0.07004 0.0
O26 O 0.91622 0.07496 0.91482 0.0
O27 O 0.0341 0.9405 0.0598 0.0
O28 O 0.9724 0.90545 0.05294 0.0
C29 C 0.14444 0.00973 0.11019 0.0
C30 C 0.01909 0.10067 0.08878 0.0
H31 H 0.01836 0.43643 0.4108 0.0
H32 H 0.98608 0.43549 0.62269 0.0
H33 H 1.00732 0.30391 0.51394 0.0
H34 H 0.99355 0.57269 0.58259 0.0
H35 H 1.00021 0.57495 0.36385 0.0
H36 H 0.9769 0.70412 0.4779 0.0
N37 N 0.99792 0.49221 0.52004 0.0
N38 N 1.00151 0.51726 0.46875 0.0
C39 C 0.01291 0.41713 0.45701 0.0
C40 C 0.0163 0.36728 0.4561 0.0
C41 C 1.00222 0.44188 0.51736 0.0
C42 C 0.99463 0.41638 0.5765 0.0
C43 C 0.99764 0.36658 0.57628 0.0
C44 C 1.00794 0.3424 0.51565 0.0
C45 C 0.9915 0.59181 0.53538 0.0
C46 C 0.98385 0.64093 0.5375 0.0
C47 C 0.99638 0.56751 0.47251 0.0
C48 C 0.99572 0.59336 0.41216 0.0
C49 C 0.9883 0.64266 0.4142 0.0
C50 C 0.98149 0.66583 0.47662 0.0
H51 H 0.57465 0.00915 0.40052 0.0
H52 H 0.59232 0.0096 0.61834 0.0
H53 H 0.69603 0.02327 0.48685 0.0
H54 H 0.47036 0.98647 0.59208 0.0
H55 H 0.45266 0.01218 0.37875 0.0
H56 H 0.35025 0.97195 0.50087 0.0
N57 N 0.53518 0.0036 0.52165 0.0
N58 N 0.50972 0.00461 0.47377 0.0
C59 C 0.59471 0.01142 0.44478 0.0
C60 C 0.6374 0.01524 0.43576 0.0
C61 C 0.5782 0.00908 0.51087 0.0
C62 C 0.60483 0.01167 0.5676 0.0
C63 C 0.6473 0.01815 0.55896 0.0
C64 C 0.66316 0.01936 0.49315 0.0
C65 C 0.45024 0.98835 0.54796 0.0
C66 C 0.40769 0.98106 0.55549 0.0
C67 C 0.46671 0.99843 0.48369 0.0
C68 C 0.44008 0.00291 0.4276 0.0
C69 C 0.39751 0.99608 0.4343 0.0
C70 C 0.38218 0.98225 0.49739 0.0
H71 H 0.06407 0.12398 0.16803 0.0
C72 C 0.03775 0.13509 0.13766 0.0
H73 H 0.99324 0.1887 0.12064 0.0
H74 H 0.98908 0.24068 0.43435 0.0
H75 H 0.93957 0.17612 0.4335 0.0
H76 H 0.93042 0.12402 0.33209 0.0
H77 H 0.97069 0.13635 0.23088 0.0
C78 C 0.01974 0.17743 0.15042 0.0
C79 C 0.02902 0.20565 0.21308 0.0
C80 C 1.0055 0.19757 0.27208 0.0
C81 C 0.01081 0.22754 0.33045 0.0
C82 C 0.98652 0.21898 0.38852 0.0
C83 C 0.95791 0.18199 0.38879 0.0
C84 C 0.95272 0.15271 0.33168 0.0
C85 C 0.97609 0.16023 0.27388 0.0
H86 H 0.01282 0.35583 0.34436 0.0
C87 C 0.02452 0.34099 0.39138 0.0
H88 H 0.05543 0.28289 0.43604 0.0
H89 H 0.07953 0.22933 0.1088 0.0
H90 H 0.12968 0.2938 0.10956 0.0
H91 H 0.13931 0.34564 0.21129 0.0
H92 H 0.09872 0.3336 0.31281 0.0
C93 C 0.0429 0.298 0.38986 0.0
C94 C 0.03929 0.26585 0.32933 0.0
C95 C 0.06354 0.27318 0.27094 0.0
C96 C 0.0583 0.24301 0.21254 0.0
C97 C 0.08247 0.25126 0.15447 0.0
C98 C 0.11133 0.28803 0.15433 0.0
C99 C 0.11674 0.31725 0.21162 0.0
C100 C 0.09321 0.31007 0.26944 0.0
H101 H 0.82153 0.95568 0.12922 0.0
C102 C 0.82849 0.99141 0.11234 0.0
H103 H 0.81176 0.06406 0.11539 0.0
H104 H 0.65383 0.94986 0.25839 0.0
H105 H 0.64155 0.913 0.14722 0.0
H106 H 0.68853 0.92779 0.05198 0.0
H107 H 0.74845 0.97886 0.06755 0.0
C108 C 0.80475 0.02832 0.13218 0.0
C109 C 0.77333 0.02337 0.18606 0.0
C110 C 0.73772 0.99477 0.17527 0.0
C111 C 0.70991 0.9874 0.22959 0.0
C112 C 0.67552 0.95716 0.2185 0.0
C113 C 0.66814 0.93584 0.15498 0.0
C114 C 0.69464 0.94409 0.10138 0.0
C115 C 0.72905 0.97324 0.11108 0.0
H116 H 0.63939 0.03653 0.32749 0.0
C117 C 0.65544 0.01689 0.36673 0.0
H118 H 0.70818 0.97679 0.39245 0.0
H119 H 0.83765 0.08251 0.22309 0.0
H120 H 0.84731 0.12299 0.33183 0.0
H121 H 0.79708 0.11339 0.42388 0.0
H122 H 0.73714 0.06289 0.40762 0.0
C123 C 0.69247 0.9973 0.35378 0.0
C124 C 0.71724 0.00977 0.29369 0.0
C125 C 0.7514 0.04081 0.30307 0.0
C126 C 0.77971 0.04728 0.24947 0.0
C127 C 0.81456 0.07694 0.2614 0.0
C128 C 0.82062 0.10036 0.32377 0.0
C129 C 0.7924 0.0949 0.37561 0.0
C130 C 0.75822 0.06551 0.36571 0.0
H131 H 0.05793 0.86144 0.12151 0.0
C132 C 0.0249 0.86638 0.1153 0.0
H133 H 0.96534 0.84091 0.13603 0.0
H134 H 0.98718 0.62948 0.19759 0.0
H135 H 0.94942 0.62574 0.0902 0.0
H136 H 0.94031 0.69769 0.02169 0.0
H137 H 0.96978 0.77341 0.05871 0.0
C138 C 0.9983 0.8358 0.14321 0.0
C139 C 0.011 0.79182 0.17884 0.0
C140 C 0.99559 0.74723 0.15431 0.0
C141 C 1.00069 0.70572 0.19367 0.0
C142 C 0.98382 0.66203 0.16944 0.0
C143 C 0.9623 0.65939 0.10792 0.0
C144 C 0.95731 0.69987 0.06921 0.0
C145 C 0.97404 0.74324 0.09146 0.0
H146 H 0.9668 0.70189 0.35176 0.0
C147 C 0.98816 0.67198 0.35285 0.0
H148 H 0.04146 0.64203 0.30747 0.0
H149 H 0.04362 0.87159 0.24355 0.0
H150 H 0.08262 0.87366 0.34876 0.0
H151 H 0.0955 0.80012 0.4122 0.0
H152 H 0.06867 0.72399 0.37069 0.0
C153 C 0.0177 0.66925 0.30572 0.0
C154 C 0.02138 0.70874 0.25702 0.0
C155 C 0.03967 0.75228 0.2791 0.0
C156 C 0.03366 0.79427 0.24095 0.0
C157 C 0.04884 0.83807 0.26812 0.0
C158 C 0.07102 0.83989 0.3291 0.0
C159 C 0.07817 0.79853 0.36494 0.0
C160 C 0.06256 0.75517 0.34067 0.0
H161 H 0.16905 0.98374 0.20738 0.0
C162 C 0.17166 0.01181 0.17037 0.0
H163 H 0.20835 0.0681 0.13457 0.0
H164 H 0.31281 0.10166 0.40376 0.0
H165 H 0.27519 0.1761 0.39725 0.0
H166 H 0.22003 0.18654 0.31172 0.0
H167 H 0.20243 0.12271 0.23172 0.0
C168 C 0.20464 0.04086 0.17255 0.0
C169 C 0.23852 0.03468 0.22321 0.0
C170 C 0.2481 0.07212 0.26999 0.0
C171 C 0.27929 0.06568 0.32023 0.0
C172 C 0.28876 0.10412 0.36553 0.0
C173 C 0.26754 0.14717 0.36216 0.0
C174 C 0.23653 0.15307 0.31394 0.0
C175 C 0.22678 0.11613 0.26829 0.0
H176 H 0.38224 0.00231 0.32433 0.0
C177 C 0.36939 0.00362 0.37518 0.0
H178 H 0.31621 0.01925 0.43297 0.0
H179 H 0.23564 0.96024 0.1304 0.0
H180 H 0.27129 0.88478 0.13881 0.0
H181 H 0.31852 0.86951 0.23486 0.0
H182 H 0.33145 0.93013 0.32144 0.0
C183 C 0.32896 0.01347 0.3827 0.0
C184 C 0.30029 0.02144 0.32451 0.0
C185 C 0.29123 0.98421 0.27676 0.0
C186 C 0.26157 0.99164 0.22433 0.0
C187 C 0.25578 0.95549 0.1738 0.0
C188 C 0.27638 0.9121 0.1776 0.0
C189 C 0.30314 0.90361 0.23144 0.0
C190 C 0.31055 0.93903 0.28061 0.0
H191 H 0.9679 0.88794 0.82612 0.0
C192 C 0.99858 0.87841 0.84385 0.0
H193 H 0.047 0.82814 0.83831 0.0
H194 H 0.94422 0.65514 0.72343 0.0
H195 H 0.95491 0.63114 0.84018 0.0
H196 H 0.9853 0.68686 0.92516 0.0
H197 H 1.00322 0.76761 0.89505 0.0
C198 C 0.01681 0.83868 0.81954 0.0
C199 C 0.99648 0.80642 0.76878 0.0
C200 C 0.98597 0.75948 0.78748 0.0
C201 C 0.97007 0.7267 0.73789 0.0
C202 C 0.95816 0.6807 0.75852 0.0
C203 C 0.96372 0.66665 0.82547 0.0
C204 C 0.98058 0.69814 0.87346 0.0
C205 C 0.99111 0.74424 0.85526 0.0
H206 H 1.00707 0.65913 0.64034 0.0
C207 C 0.98326 0.66736 0.60318 0.0
H208 H 0.93337 0.7116 0.57755 0.0
H209 H 0.01433 0.89372 0.71528 0.0
H210 H 1.0042 0.91723 0.59887 0.0
H211 H 0.97659 0.86044 0.51276 0.0
H212 H 0.95899 0.78004 0.54267 0.0
C213 C 0.95753 0.70421 0.61444 0.0
C214 C 0.96638 0.74033 0.66911 0.0
C215 C 0.97509 0.78802 0.65094 0.0
C216 C 0.9905 0.82102 0.70077 0.0
C217 C 1.00129 0.86753 0.68035 0.0
C218 C 0.99596 0.88148 0.61335 0.0
C219 C 0.98047 0.84951 0.56489 0.0
C220 C 0.97039 0.80328 0.58299 0.0
H221 H 0.2108 0.92683 0.83021 0.0
C222 C 0.21412 0.95374 0.87035 0.0
H223 H 0.25165 0.0051 0.919 0.0
H224 H 0.36043 0.89217 0.6709 0.0
H225 H 0.34955 0.81909 0.73198 0.0
H226 H 0.30931 0.81923 0.83778 0.0
H227 H 0.27876 0.89239 0.88211 0.0
C228 C 0.24913 0.97912 0.87744 0.0
C229 C 0.28095 0.97987 0.82329 0.0
C230 C 0.30066 0.9374 0.80046 0.0
C231 C 0.3256 0.93779 0.74129 0.0
C232 C 0.3423 0.89425 0.71665 0.0
C233 C 0.33624 0.852 0.75121 0.0
C234 C 0.31347 0.85205 0.81067 0.0
C235 C 0.29584 0.89416 0.83527 0.0
H236 H 0.41102 0.96508 0.666 0.0
C237 C 0.39021 0.97383 0.62446 0.0
H238 H 0.32936 0.99464 0.59915 0.0
H239 H 0.25116 0.0694 0.85675 0.0
H240 H 0.26791 0.1431 0.80227 0.0
H241 H 0.31546 0.14423 0.70528 0.0
H242 H 0.34611 0.07107 0.6618 0.0
C243 C 0.35007 0.9815 0.63802 0.0
C244 C 0.33244 0.98115 0.7074 0.0
C245 C 0.31637 0.02433 0.73459 0.0
C246 C 0.29006 0.02374 0.79186 0.0
C247 C 0.27236 0.06736 0.8148 0.0
C248 C 0.28155 0.11019 0.78372 0.0
C249 C 0.30822 0.11082 0.72903 0.0
C250 C 0.32543 0.06853 0.70443 0.0
H251 H 0.05709 0.16686 0.85199 0.0
C252 C 0.03226 0.14421 0.8694 0.0
H253 H 0.96792 0.13325 0.869 0.0
H254 H 0.02612 0.34998 0.75866 0.0
H255 H 0.04466 0.36714 0.87635 0.0
H256 H 0.03436 0.30704 0.96454 0.0
H257 H 1.00603 0.22894 0.93495 0.0
C258 C 0.99323 0.1555 0.85341 0.0
C259 C 0.98524 0.19618 0.80775 0.0
C260 C 0.99931 0.2425 0.8264 0.0
C261 C 1.00375 0.27767 0.77602 0.0
C262 C 0.02098 0.32236 0.79511 0.0
C263 C 0.03186 0.33263 0.86253 0.0
C264 C 0.02615 0.29876 0.91217 0.0
C265 C 0.01014 0.2541 0.89456 0.0
H266 H 0.96537 0.35477 0.67377 0.0
C267 C 0.98769 0.33982 0.63843 0.0
H268 H 0.02854 0.28284 0.61773 0.0
H269 H 0.94859 0.11432 0.75898 0.0
H270 H 0.92358 0.09958 0.64389 0.0
H271 H 0.92871 0.16149 0.55724 0.0
H272 H 0.95953 0.23853 0.58489 0.0
C273 C 1.00547 0.2977 0.65166 0.0
C274 C 0.99231 0.2668 0.70779 0.0
C275 C 0.97308 0.22264 0.69128 0.0
C276 C 0.96953 0.18718 0.74142 0.0
C277 C 0.95178 0.14263 0.72294 0.0
C278 C 0.93722 0.13373 0.65708 0.0
C279 C 0.94022 0.16858 0.60822 0.0
C280 C 0.95805 0.21254 0.62472 0.0
H281 H 0.87339 0.08836 0.80267 0.0
C282 C 0.87579 0.05171 0.81914 0.0
H283 H 0.84937 0.98281 0.81405 0.0
H284 H 0.67443 0.06798 0.73773 0.0
H285 H 0.6675 0.06672 0.86028 0.0
H286 H 0.72724 0.04874 0.93391 0.0
H287 H 0.79442 0.03284 0.88539 0.0
C288 C 0.84905 0.01883 0.79478 0.0
C289 C 0.8138 0.03171 0.75026 0.0
C290 C 0.77451 0.03973 0.77929 0.0
C291 C 0.73976 0.04844 0.73673 0.0
C292 C 0.70142 0.05897 0.7674 0.0
C293 C 0.69711 0.05885 0.83778 0.0
C294 C 0.73076 0.04885 0.87925 0.0
C295 C 0.76912 0.03963 0.85068 0.0
H296 H 0.67324 0.99493 0.6575 0.0
C297 C 0.67611 0.02106 0.6178 0.0
H298 H 0.70951 0.07878 0.57958 0.0
H299 H 0.88518 0.0196 0.67961 0.0
H300 H 0.89263 0.02018 0.55705 0.0
H301 H 0.83231 0.03239 0.4823 0.0
H302 H 0.76448 0.04451 0.52931 0.0
C303 C 0.7077 0.05231 0.61902 0.0
C304 C 0.74413 0.04715 0.66503 0.0
C305 C 0.78384 0.04041 0.63618 0.0
C306 C 0.81868 0.03286 0.67901 0.0
C307 C 0.85778 0.02553 0.6492 0.0
C308 C 0.86248 0.02572 0.57896 0.0
C309 C 0.82853 0.03269 0.53691 0.0
C310 C 0.78964 0.03977 0.56479 0.0
loop_
_geom_bond_atom_site_label_1
_geom_bond_atom_site_label_2
_geom_bond_distance
_geom_bond_site_symmetry_2
_ccdc_geom_bond_type
C0 O27 1.309 1_655 S
C0 O28 1.213 . S
C1 O22 1.348 . S
C1 O25 1.225 1_565 S
C2 O24 1.264 1_545 S
C2 O26 1.273 . S
Mg3 O5 1.936 1_565 S
Mg3 O12 2.081 . S
Mg3 O14 2.023 1_556 S
Mg3 O18 2.031 . S
Mg3 O27 2.291 1_556 S
Mg4 O5 1.963 . S
Mg4 O15 1.942 . S
Mg4 O16 1.955 1_556 S
Mg4 O23 1.986 . S
O5 Mg3 1.936 1_545 S
O5 Mg4 1.963 . S
O5 Mg6 1.913 1_556 S
Mg6 O5 1.913 1_554 S
Mg6 O7 1.918 1_455 S
Mg6 O11 2.019 . S
Mg6 O17 2.109 1_444 S
Mg6 O21 2.006 1_454 S
Mg6 O27 2.119 1_545 S
O7 Mg6 1.918 1_655 S
O7 Mg8 1.936 1_545 S
O7 Mg9 1.963 . S
Mg8 O7 1.936 1_565 S
Mg8 O17 2.291 1_554 S
Mg8 O22 2.081 . S
Mg8 O24 2.023 1_554 S
Mg8 O28 2.031 . S
Mg9 O7 1.963 . S
Mg9 O13 1.986 . S
Mg9 O25 1.942 . S
Mg9 O26 1.955 1_554 S
C10 O21 1.191 1_455 S
C10 O23 1.307 . S
O11 Mg6 2.019 . S
O11 C30 1.191 1_455 S
O12 Mg3 2.081 . S
O12 C20 1.331 . S
O13 Mg9 1.986 . S
O13 C30 1.307 . S
O14 Mg3 2.023 1_554 S
O14 C29 1.264 1_565 S
O15 Mg4 1.942 . S
O15 C20 1.244 1_545 S
O16 Mg4 1.955 1_554 S
O16 C29 1.273 . S
O17 Mg6 2.109 1_666 S
O17 Mg8 2.291 1_556 S
O17 C19 1.312 1_655 S
O18 Mg3 2.031 . S
O18 C19 1.208 . S
C19 O17 1.312 1_455 S
C19 O18 1.208 . S
C20 O12 1.331 . S
C20 O15 1.244 1_565 S
O21 Mg6 2.006 1_656 S
O21 C10 1.191 1_655 S
O22 C1 1.348 . S
O22 Mg8 2.081 . S
O23 Mg4 1.986 . S
O23 C10 1.307 . S
O24 C2 1.264 1_565 S
O24 Mg8 2.023 1_556 S
O25 C1 1.225 1_545 S
O25 Mg9 1.942 . S
O26 C2 1.273 . S
O26 Mg9 1.955 1_556 S
O27 C0 1.309 1_455 S
O27 Mg3 2.291 1_554 S
O27 Mg6 2.119 1_565 S
O28 C0 1.213 . S
O28 Mg8 2.031 . S
C29 O14 1.264 1_545 S
C29 O16 1.273 . S
C30 O11 1.191 1_655 S
C30 O13 1.307 . S
H31 C39 0.940 . S
H32 C42 0.940 . S
H33 C44 0.940 1_655 S
H34 C45 0.940 . S
H35 C48 0.940 . S
H36 C50 0.940 1_655 S
N37 N38 1.190 . S
N37 C41 1.477 . S
N38 N37 1.190 . S
N38 C47 1.477 . S
C39 H31 0.940 . S
C39 C40 1.390 . S
C39 C41 1.322 . S
C40 C39 1.390 . S
C40 C44 1.370 . S
C41 N37 1.477 . S
C41 C39 1.322 . S
C41 C42 1.447 . S
C42 H32 0.940 . S
C42 C41 1.447 . S
C42 C43 1.373 . S
C43 C42 1.373 . S
C43 C44 1.417 . S
C44 H33 0.940 1_455 S
C44 C40 1.370 . S
C44 C43 1.417 . S
C45 H34 0.940 . S
C45 C46 1.390 . S
C45 C47 1.322 . S
C46 C45 1.390 . S
C46 C50 1.370 . S
C47 N38 1.477 . S
C47 C45 1.322 . S
C47 C48 1.447 . S
C48 H35 0.940 . S
C48 C47 1.447 . S
C48 C49 1.373 . S
C49 C48 1.373 . S
C49 C50 1.417 . S
C50 H36 0.940 1_455 S
C50 C46 1.370 . S
C50 C49 1.417 . S
H51 C59 0.940 . S
H52 C62 0.940 . S
H53 C64 0.936 1_565 S
H54 C65 0.940 . S
H55 C68 0.940 . S
H56 C70 0.936 1_565 S
N57 N58 1.190 . S
N57 C61 1.477 . S
N58 N57 1.190 . S
N58 C67 1.477 . S
C59 H51 0.940 . S
C59 C60 1.390 . S
C59 C61 1.322 . S
C60 C59 1.390 . S
C60 C64 1.371 . S
C61 N57 1.477 . S
C61 C59 1.322 . S
C61 C62 1.447 . S
C62 H52 0.940 . S
C62 C61 1.447 . S
C62 C63 1.373 . S
C63 C62 1.373 . S
C63 C64 1.421 . S
C64 H53 0.936 1_545 S
C64 C60 1.371 . S
C64 C63 1.421 . S
C65 H54 0.940 . S
C65 C66 1.390 . S
C65 C67 1.322 . S
C66 C65 1.390 . S
C66 C70 1.370 . S
C67 N58 1.477 . S
C67 C65 1.322 . S
C67 C68 1.447 . S
C68 H55 0.940 . S
C68 C67 1.447 . S
C68 C69 1.373 . S
C69 C68 1.373 . S
C69 C70 1.421 . S
C70 H56 0.936 1_545 S
C70 C66 1.370 . S
C70 C69 1.421 . S
H71 C72 0.951 . S
C72 H71 0.951 . S
C72 C78 1.265 1_455 S
H73 C78 0.950 . S
H74 C82 0.949 . S
H75 C83 0.950 . S
H76 C84 0.951 . S
H77 C85 0.951 . S
C78 C72 1.265 1_655 S
C78 H73 0.950 . S
C78 C79 1.478 . S
C79 C78 1.478 . S
C79 C80 1.397 . S
C79 C96 1.394 1_655 S
C80 C79 1.397 . S
C80 C81 1.438 . S
C80 C85 1.429 . S
C81 C80 1.438 . S
C81 C82 1.428 . S
C81 C94 1.394 1_655 S
C82 H74 0.949 . S
C82 C81 1.428 . S
C82 C83 1.345 . S
C83 H75 0.950 . S
C83 C82 1.345 . S
C83 C84 1.424 . S
C84 H76 0.951 . S
C84 C83 1.424 . S
C84 C85 1.347 . S
C85 H77 0.951 . S
C85 C80 1.429 . S
C85 C84 1.347 . S
H86 C87 0.951 . S
C87 H86 0.951 . S
C87 C93 1.265 1_655 S
H88 C93 0.950 . S
H89 C97 0.949 . S
H90 C98 0.950 . S
H91 C99 0.951 . S
H92 C100 0.951 . S
C93 C87 1.265 1_455 S
C93 H88 0.950 . S
C93 C94 1.478 . S
C94 C81 1.394 1_455 S
C94 C93 1.478 . S
C94 C95 1.397 . S
C95 C94 1.397 . S
C95 C96 1.438 . S
C95 C100 1.429 . S
C96 C79 1.394 1_455 S
C96 C95 1.438 . S
C96 C97 1.428 . S
C97 H89 0.949 . S
C97 C96 1.428 . S
C97 C98 1.345 . S
C98 H90 0.950 . S
C98 C97 1.345 . S
C98 C99 1.424 . S
C99 H91 0.951 . S
C99 C98 1.424 . S
C99 C100 1.347 . S
C100 H92 0.951 . S
C100 C95 1.429 . S
C100 C99 1.347 . S
H101 C102 0.952 . S
C102 H101 0.952 . S
C102 C108 1.265 . S
H103 C108 0.950 . S
H104 C112 0.949 . S
H105 C113 0.950 . S
H106 C114 0.951 . S
H107 C115 0.951 . S
C108 C102 1.265 . S
C108 H103 0.950 . S
C108 C109 1.478 . S
C109 C108 1.478 . S
C109 C110 1.397 . S
C109 C126 1.394 1_565 S
C110 C109 1.397 . S
C110 C111 1.438 . S
C110 C115 1.429 . S
C111 C110 1.438 . S
C111 C112 1.428 . S
C111 C124 1.414 . S
C112 H104 0.949 . S
C112 C111 1.428 . S
C112 C113 1.345 . S
C113 H105 0.950 . S
C113 C112 1.345 . S
C113 C114 1.424 . S
C114 H106 0.951 . S
C114 C113 1.424 . S
C114 C115 1.347 . S
C115 H107 0.951 . S
C115 C110 1.429 . S
C115 C114 1.347 . S
H116 C117 0.951 . S
C117 H116 0.951 . S
C117 C123 1.265 1_565 S
H118 C123 0.950 . S
H119 C127 0.949 . S
H120 C128 0.950 . S
H121 C129 0.951 . S
H122 C130 0.951 . S
C123 C117 1.265 1_545 S
C123 H118 0.950 . S
C123 C124 1.478 1_545 S
C124 C111 1.414 . S
C124 C123 1.478 1_565 S
C124 C125 1.377 1_565 S
C125 C124 1.377 1_545 S
C125 C126 1.438 . S
C125 C130 1.429 . S
C126 C109 1.394 1_545 S
C126 C125 1.438 . S
C126 C127 1.428 . S
C127 H119 0.949 . S
C127 C126 1.428 . S
C127 C128 1.345 . S
C128 H120 0.950 . S
C128 C127 1.345 . S
C128 C129 1.424 . S
C129 H121 0.951 . S
C129 C128 1.424 . S
C129 C130 1.347 . S
C130 H122 0.951 . S
C130 C125 1.429 . S
C130 C129 1.347 . S
H131 C132 0.951 . S
C132 H131 0.951 . S
C132 C138 1.265 1_455 S
H133 C138 0.950 . S
H134 C142 0.949 . S
H135 C143 0.950 . S
H136 C144 0.951 . S
H137 C145 0.951 . S
C138 C132 1.265 1_655 S
C138 H133 0.950 . S
C138 C139 1.483 . S
C139 C138 1.483 . S
C139 C140 1.406 . S
C139 C156 1.381 1_655 S
C140 C139 1.406 . S
C140 C141 1.438 . S
C140 C145 1.429 . S
C141 C140 1.438 . S
C141 C142 1.428 . S
C141 C154 1.394 1_655 S
C142 H134 0.949 . S
C142 C141 1.428 . S
C142 C143 1.345 . S
C143 H135 0.950 . S
C143 C142 1.345 . S
C143 C144 1.424 . S
C144 H136 0.951 . S
C144 C143 1.424 . S
C144 C145 1.347 . S
C145 H137 0.951 . S
C145 C140 1.429 . S
C145 C144 1.347 . S
H146 C147 0.951 1_655 S
C147 H146 0.951 1_455 S
C147 C153 1.265 . S
H148 C153 0.950 . S
H149 C157 0.949 . S
H150 C158 0.950 . S
H151 C159 0.951 . S
H152 C160 0.951 . S
C153 C147 1.265 . S
C153 H148 0.950 . S
C153 C154 1.478 . S
C154 C141 1.394 1_455 S
C154 C153 1.478 . S
C154 C155 1.397 . S
C155 C154 1.397 . S
C155 C156 1.438 . S
C155 C160 1.429 . S
C156 C139 1.381 1_455 S
C156 C155 1.438 . S
C156 C157 1.428 . S
C157 H149 0.949 . S
C157 C156 1.428 . S
C157 C158 1.345 . S
C158 H150 0.950 . S
C158 C157 1.345 . S
C158 C159 1.424 . S
C159 H151 0.951 . S
C159 C158 1.424 . S
C159 C160 1.347 . S
C160 H152 0.951 . S
C160 C155 1.429 . S
C160 C159 1.347 . S
H161 C162 0.951 . S
C162 H161 0.951 . S
C162 C168 1.265 . S
H163 C168 0.950 . S
H164 C172 0.949 . S
H165 C173 0.950 . S
H166 C174 0.951 . S
H167 C175 0.951 . S
C168 C162 1.265 . S
C168 H163 0.950 . S
C168 C169 1.478 . S
C169 C168 1.478 . S
C169 C170 1.397 . S
C169 C186 1.394 1_545 S
C170 C169 1.397 . S
C170 C171 1.438 . S
C170 C175 1.429 . S
C171 C170 1.438 . S
C171 C172 1.428 . S
C171 C184 1.394 . S
C172 H164 0.949 . S
C172 C171 1.428 . S
C172 C173 1.345 . S
C173 H165 0.950 . S
C173 C172 1.345 . S
C173 C174 1.424 . S
C174 H166 0.951 . S
C174 C173 1.424 . S
C174 C175 1.347 . S
C175 H167 0.951 . S
C175 C170 1.429 . S
C175 C174 1.347 . S
H176 C177 0.951 . S
C177 H176 0.951 . S
C177 C183 1.265 . S
H178 C183 0.950 1_565 S
H179 C187 0.949 . S
H180 C188 0.950 . S
H181 C189 0.951 . S
H182 C190 0.951 . S
C183 C177 1.265 . S
C183 H178 0.950 1_545 S
C183 C184 1.478 . S
C184 C171 1.394 . S
C184 C183 1.478 . S
C184 C185 1.397 1_545 S
C185 C184 1.397 1_565 S
C185 C186 1.438 . S
C185 C190 1.429 . S
C186 C169 1.394 1_565 S
C186 C185 1.438 . S
C186 C187 1.428 . S
C187 H179 0.949 . S
C187 C186 1.428 . S
C187 C188 1.345 . S
C188 H180 0.950 . S
C188 C187 1.345 . S
C188 C189 1.424 . S
C189 H181 0.951 . S
C189 C188 1.424 . S
C189 C190 1.347 . S
C190 H182 0.951 . S
C190 C185 1.429 . S
C190 C189 1.347 . S
H191 C192 0.951 . S
C192 H191 0.951 . S
C192 C198 1.265 1_655 S
H193 C198 0.950 . S
H194 C202 0.949 . S
H195 C203 0.950 . S
H196 C204 0.951 . S
H197 C205 0.951 . S
C198 C192 1.265 1_455 S
C198 H193 0.950 . S
C198 C199 1.478 . S
C199 C198 1.478 . S
C199 C200 1.397 . S
C199 C216 1.394 1_455 S
C200 C199 1.397 . S
C200 C201 1.438 . S
C200 C205 1.429 . S
C201 C200 1.438 . S
C201 C202 1.428 . S
C201 C214 1.394 1_455 S
C202 H194 0.949 . S
C202 C201 1.428 . S
C202 C203 1.345 . S
C203 H195 0.950 . S
C203 C202 1.345 . S
C203 C204 1.424 . S
C204 H196 0.951 . S
C204 C203 1.424 . S
C204 C205 1.347 . S
C205 H197 0.951 . S
C205 C200 1.429 . S
C205 C204 1.347 . S
H206 C207 0.951 . S
C207 H206 0.951 . S
C207 C213 1.265 1_455 S
H208 C213 0.950 . S
H209 C217 0.949 . S
H210 C218 0.950 . S
H211 C219 0.951 . S
H212 C220 0.951 . S
C213 C207 1.265 1_655 S
C213 H208 0.950 . S
C213 C214 1.478 . S
C214 C201 1.394 1_655 S
C214 C213 1.478 . S
C214 C215 1.397 . S
C215 C214 1.397 . S
C215 C216 1.438 . S
C215 C220 1.429 . S
C216 C199 1.394 1_655 S
C216 C215 1.438 . S
C216 C217 1.428 . S
C217 H209 0.949 . S
C217 C216 1.428 . S
C217 C218 1.345 . S
C218 H210 0.950 . S
C218 C217 1.345 . S
C218 C219 1.424 . S
C219 H211 0.951 . S
C219 C218 1.424 . S
C219 C220 1.347 . S
C220 H212 0.951 . S
C220 C215 1.429 . S
C220 C219 1.347 . S
H221 C222 0.954 . S
C222 H221 0.954 . S
C222 C228 1.265 . S
H223 C228 0.950 . S
H224 C232 0.949 . S
H225 C233 0.950 . S
H226 C234 0.951 . S
H227 C235 0.951 . S
C228 C222 1.265 . S
C228 H223 0.950 . S
C228 C229 1.478 . S
C229 C228 1.478 . S
C229 C230 1.397 . S
C229 C246 1.394 1_565 S
C230 C229 1.397 . S
C230 C231 1.438 . S
C230 C235 1.429 . S
C231 C230 1.438 . S
C231 C232 1.428 . S
C231 C244 1.394 . S
C232 H224 0.949 . S
C232 C231 1.428 . S
C232 C233 1.345 . S
C233 H225 0.950 . S
C233 C232 1.345 . S
C233 C234 1.424 . S
C234 H226 0.951 . S
C234 C233 1.424 . S
C234 C235 1.347 . S
C235 H227 0.951 . S
C235 C230 1.429 . S
C235 C234 1.347 . S
H236 C237 0.951 . S
C237 H236 0.951 . S
C237 C243 1.265 1_565 S
H238 C243 0.950 . S
H239 C247 0.949 . S
H240 C248 0.950 . S
H241 C249 0.951 . S
H242 C250 0.951 . S
C243 C237 1.265 1_545 S
C243 H238 0.950 . S
C243 C244 1.478 1_545 S
C244 C231 1.394 . S
C244 C243 1.478 1_565 S
C244 C245 1.397 1_565 S
C245 C244 1.397 1_545 S
C245 C246 1.438 . S
C245 C250 1.429 . S
C246 C229 1.394 1_545 S
C246 C245 1.438 . S
C246 C247 1.428 . S
C247 H239 0.949 . S
C247 C246 1.428 . S
C247 C248 1.345 . S
C248 H240 0.950 . S
C248 C247 1.345 . S
C248 C249 1.424 . S
C249 H241 0.951 . S
C249 C248 1.424 . S
C249 C250 1.347 . S
C250 H242 0.951 . S
C250 C245 1.429 . S
C250 C249 1.347 . S
H251 C252 0.951 . S
C252 H251 0.951 . S
C252 C258 1.265 1_455 S
H253 C258 0.950 . S
H254 C262 0.949 . S
H255 C263 0.950 . S
H256 C264 0.951 1_655 S
H257 C265 0.956 . S
C258 C252 1.265 1_655 S
C258 H253 0.950 . S
C258 C259 1.480 . S
C259 C258 1.480 . S
C259 C260 1.396 1_655 S
C259 C276 1.393 1_655 S
C260 C259 1.396 1_455 S
C260 C261 1.438 . S
C260 C265 1.426 1_455 S
C261 C260 1.438 . S
C261 C262 1.428 . S
C261 C274 1.394 . S
C262 H254 0.949 . S
C262 C261 1.428 . S
C262 C263 1.345 . S
C263 H255 0.950 . S
C263 C262 1.345 . S
C263 C264 1.424 . S
C264 H256 0.951 1_455 S
C264 C263 1.424 . S
C264 C265 1.346 1_455 S
C265 H257 0.956 . S
C265 C260 1.426 1_655 S
C265 C264 1.346 1_655 S
H266 C267 0.951 1_655 S
C267 H266 0.951 1_455 S
C267 C273 1.265 . S
H268 C273 0.950 . S
H269 C277 0.943 1_655 S
H270 C278 0.950 . S
H271 C279 0.951 . S
H272 C280 0.951 . S
C273 C267 1.265 . S
C273 H268 0.950 . S
C273 C274 1.478 . S
C274 C261 1.394 . S
C274 C273 1.478 . S
C274 C275 1.397 . S
C275 C274 1.397 . S
C275 C276 1.438 . S
C275 C280 1.429 . S
C276 C259 1.393 1_455 S
C276 C275 1.438 . S
C276 C277 1.431 . S
C277 H269 0.943 1_455 S
C277 C276 1.431 . S
C277 C278 1.349 . S
C278 H270 0.950 . S
C278 C277 1.349 . S
C278 C279 1.424 . S
C279 H271 0.951 . S
C279 C278 1.424 . S
C279 C280 1.347 . S
C280 H272 0.951 . S
C280 C275 1.429 . S
C280 C279 1.347 . S
H281 C282 0.951 . S
C282 H281 0.951 . S
C282 C288 1.265 . S
H283 C288 0.950 . S
H284 C292 0.949 . S
H285 C293 0.950 . S
H286 C294 0.951 . S
H287 C295 0.951 . S
C288 C282 1.265 . S
C288 H283 0.950 . S
C288 C289 1.478 . S
C289 C288 1.478 . S
C289 C290 1.397 1_545 S
C289 C306 1.394 . S
C290 C289 1.397 1_565 S
C290 C291 1.438 . S
C290 C295 1.429 . S
C291 C290 1.438 . S
C291 C292 1.428 . S
C291 C304 1.394 1_565 S
C292 H284 0.949 . S
C292 C291 1.428 . S
C292 C293 1.345 . S
C293 H285 0.950 . S
C293 C292 1.345 . S
C293 C294 1.424 . S
C294 H286 0.951 . S
C294 C293 1.424 . S
C294 C295 1.347 . S
C295 H287 0.951 . S
C295 C290 1.429 . S
C295 C294 1.347 . S
H296 C297 0.951 . S
C297 H296 0.951 . S
C297 C303 1.265 . S
H298 C303 0.950 . S
H299 C307 0.949 . S
H300 C308 0.950 . S
H301 C309 0.951 . S
H302 C310 0.951 . S
C303 C297 1.265 . S
C303 H298 0.950 . S
C303 C304 1.478 . S
C304 C291 1.394 1_545 S
C304 C303 1.478 . S
C304 C305 1.397 . S
C305 C304 1.397 . S
C305 C306 1.438 . S
C305 C310 1.429 . S
C306 C289 1.394 . S
C306 C305 1.438 . S
C306 C307 1.428 . S
C307 H299 0.949 . S
C307 C306 1.428 . S
C307 C308 1.345 . S
C308 H300 0.950 . S
C308 C307 1.345 . S
C308 C309 1.424 . S
C309 H301 0.951 . S
C309 C308 1.424 . S
C309 C310 1.347 . S
C310 H302 0.951 . S
C310 C305 1.429 . S
C310 C309 1.347 . S
C72 C30 1.496 1_455 S
C87 C40 1.464 1_655 S
C102 C1 1.701 . S
C117 C60 1.676 1_565 S
C132 C0 1.439 1_455 S
C147 C49 1.459 . S
C162 C29 1.715 . S
C177 C69 1.721 . S
C192 C19 1.460 1_655 S
C207 C46 1.430 . S
C222 C20 1.700 . S
C237 C66 1.679 1_565 S
C267 C43 1.472 . S
C252 C10 1.424 . S
C282 C2 1.648 . S
C297 C63 1.655 . S
