# Generated by pormake.
# Topology zzz, (3,6)-cn, num edge types: 1
# Building blocks:
#     Node 0, Type 0, BuildingBlock: ESEHIV_clean_linker_0, # of connection points: 3
#     Node 1, Type 0, BuildingBlock: ESEHIV_clean_linker_0, # of connection points: 3
#     Node 2, Type 0, BuildingBlock: ESEHIV_clean_linker_0, # of connection points: 3
#     Node 3, Type 0, BuildingBlock: ESEHIV_clean_linker_0, # of connection points: 3
#     Node 4, Type 0, BuildingBlock: ESEHIV_clean_linker_0, # of connection points: 3
#     Node 5, Type 0, BuildingBlock: ESEHIV_clean_linker_0, # of connection points: 3
#     Node 6, Type 0, BuildingBlock: ESEHIV_clean_linker_0, # of connection points: 3
#     Node 7, Type 0, BuildingBlock: ESEHIV_clean_linker_0, # of connection points: 3
#     Node 8, Type 1, BuildingBlock: JUFBIX_clean_sbu_0, # of connection points: 6
#     Node 9, Type 1, BuildingBlock: JUFBIX_clean_sbu_0, # of connection points: 6
#     Node 10, Type 1, BuildingBlock: JUFBIX_clean_sbu_0, # of connection points: 6
#     Node 11, Type 1, BuildingBlock: JUFBIX_clean_sbu_0, # of connection points: 6
#     Edge 12, Type (0, 1), BuildingBlock: KIFKEQ_clean_linker_1, # of connection points: 2
#     Edge 13, Type (0, 1), BuildingBlock: KIFKEQ_clean_linker_1, # of connection points: 2
#     Edge 14, Type (0, 1), BuildingBlock: KIFKEQ_clean_linker_1, # of connection points: 2
#     Edge 15, Type (0, 1), BuildingBlock: KIFKEQ_clean_linker_1, # of connection points: 2
#     Edge 16, Type (0, 1), BuildingBlock: KIFKEQ_clean_linker_1, # of connection points: 2
#     Edge 17, Type (0, 1), BuildingBlock: KIFKEQ_clean_linker_1, # of connection points: 2
#     Edge 18, Type (0, 1), BuildingBlock: KIFKEQ_clean_linker_1, # of connection points: 2
#     Edge 19, Type (0, 1), BuildingBlock: KIFKEQ_clean_linker_1, # of connection points: 2
#     Edge 20, Type (0, 1), BuildingBlock: KIFKEQ_clean_linker_1, # of connection points: 2
#     Edge 21, Type (0, 1), BuildingBlock: KIFKEQ_clean_linker_1, # of connection points: 2
#     Edge 22, Type (0, 1), BuildingBlock: KIFKEQ_clean_linker_1, # of connection points: 2
#     Edge 23, Type (0, 1), BuildingBlock: KIFKEQ_clean_linker_1, # of connection points: 2
#     Edge 24, Type (0, 1), BuildingBlock: KIFKEQ_clean_linker_1, # of connection points: 2
#     Edge 25, Type (0, 1), BuildingBlock: KIFKEQ_clean_linker_1, # of connection points: 2
#     Edge 26, Type (0, 1), BuildingBlock: KIFKEQ_clean_linker_1, # of connection points: 2
#     Edge 27, Type (0, 1), BuildingBlock: KIFKEQ_clean_linker_1, # of connection points: 2
#     Edge 28, Type (0, 1), BuildingBlock: KIFKEQ_clean_linker_1, # of connection points: 2
#     Edge 29, Type (0, 1), BuildingBlock: KIFKEQ_clean_linker_1, # of connection points: 2
#     Edge 30, Type (0, 1), BuildingBlock: KIFKEQ_clean_linker_1, # of connection points: 2
#     Edge 31, Type (0, 1), BuildingBlock: KIFKEQ_clean_linker_1, # of connection points: 2
#     Edge 32, Type (0, 1), BuildingBlock: KIFKEQ_clean_linker_1, # of connection points: 2
#     Edge 33, Type (0, 1), BuildingBlock: KIFKEQ_clean_linker_1, # of connection points: 2
#     Edge 34, Type (0, 1), BuildingBlock: KIFKEQ_clean_linker_1, # of connection points: 2
#     Edge 35, Type (0, 1), BuildingBlock: KIFKEQ_clean_linker_1, # of connection points: 2
# Relax obj value: 0.282
# Max RMSD: 0.229
# Mean RMSD: 0.186
data_MOF--net-zzz--node1-JUFBIX_clean_sbu_0--node2-ESEHIV_clean_linker_0--edge1-KIFKEQ_clean_linker_1
_symmetry_space_group_name_H-M    P1
_symmetry_Int_Tables_number       1
_symmetry_cell_setting            triclinic
loop_
_symmetry_equiv_pos_as_xyz
'x, y, z'
_cell_length_a     45.64157
_cell_length_b     46.705802
_cell_length_c     18.121213
_cell_angle_alpha  81.248066
_cell_angle_beta   90.250459
_cell_angle_gamma 86.093459
loop_
_atom_site_label
_atom_site_type_symbol
_atom_site_fract_x
_atom_site_fract_y
_atom_site_fract_z
_atom_type_partial_charge
H0 H 0.83818 0.52606 0.35383 0.0
H1 H 0.78068 0.50649 0.1839 0.0
H2 H 0.74463 0.53143 0.38679 0.0
C3 C 0.81606 0.52423 0.33361 0.0
C4 C 0.79206 0.52956 0.37859 0.0
C5 C 0.81205 0.51568 0.2641 0.0
C6 C 0.78369 0.51264 0.23866 0.0
C7 C 0.75912 0.51868 0.28176 0.0
C8 C 0.76332 0.52721 0.3524 0.0
H9 H 0.04412 0.8332 0.29836 0.0
H10 H 0.0558 0.77042 0.14956 0.0
H11 H 0.01009 0.7491 0.35645 0.0
C12 C 0.04196 0.81138 0.28627 0.0
C13 C 0.02712 0.7918 0.33664 0.0
C14 C 0.05185 0.80403 0.21826 0.0
C15 C 0.04822 0.77608 0.20247 0.0
C16 C 0.03343 0.75592 0.25173 0.0
C17 C 0.02223 0.76408 0.31876 0.0
H18 H 0.69925 0.01671 0.27036 0.0
H19 H 0.75928 0.02329 0.08765 0.0
H20 H 0.79193 1.00058 0.31442 0.0
C21 C 0.7215 0.01538 0.24966 0.0
C22 C 0.74479 0.00813 0.30088 0.0
C23 C 0.72626 0.02018 0.17275 0.0
C24 C 0.7552 0.0195 0.14712 0.0
C25 C 0.77904 0.01274 0.19779 0.0
C26 C 0.77377 1.00636 0.27507 0.0
H27 H 0.47605 0.69241 0.24547 0.0
H28 H 0.49801 0.77593 0.29255 0.0
H29 H 0.47583 0.76456 0.06755 0.0
C30 C 0.47826 0.71534 0.22652 0.0
C31 C 0.47421 0.7265 0.15081 0.0
C32 C 0.48703 0.73279 0.27772 0.0
C33 C 0.49097 0.76235 0.25333 0.0
C34 C 0.48665 0.77394 0.17716 0.0
C35 C 0.47855 0.75583 0.12634 0.0
H36 H 0.16167 0.51373 0.22849 0.0
H37 H 0.2215 0.53422 0.39234 0.0
H38 H 0.25484 0.49961 0.19881 0.0
C39 C 0.18407 0.51463 0.24799 0.0
C40 C 0.20752 0.50568 0.20542 0.0
C41 C 0.18895 0.52502 0.31486 0.0
C42 C 0.21773 0.52685 0.33936 0.0
C43 C 0.24166 0.5174 0.29849 0.0
C44 C 0.23656 0.50687 0.23083 0.0
H45 H 0.95488 0.21275 0.2887 0.0
H46 H 0.94581 0.27612 0.43624 0.0
H47 H 0.98776 0.29707 0.2238 0.0
C48 C 0.95722 0.2347 0.29951 0.0
C49 C 0.9711 0.25423 0.24666 0.0
C50 C 0.94855 0.24224 0.36827 0.0
C51 C 0.9525 0.27028 0.38281 0.0
C52 C 0.96635 0.2904 0.33124 0.0
C53 C 0.9764 0.28206 0.26333 0.0
H54 H 0.30013 0.02191 0.30321 0.0
H55 H 0.24107 0.02663 0.48542 0.0
H56 H 0.20795 0.0425 0.25835 0.0
C57 C 0.27804 0.02527 0.32365 0.0
C58 C 0.25481 0.03236 0.27215 0.0
C59 C 0.27356 0.02371 0.40036 0.0
C60 C 0.24488 0.0278 0.42605 0.0
C61 C 0.22103 0.03403 0.37535 0.0
C62 C 0.22605 0.03672 0.29787 0.0
H63 H 0.5246 0.34963 0.33102 0.0
H64 H 0.50264 0.26612 0.28384 0.0
H65 H 0.52453 0.27751 0.509 0.0
C66 C 0.52236 0.3267 0.34998 0.0
C67 C 0.5263 0.31556 0.42573 0.0
C68 C 0.51364 0.30925 0.29874 0.0
C69 C 0.50965 0.2797 0.32311 0.0
C70 C 0.51386 0.26812 0.39931 0.0
C71 C 0.5219 0.28624 0.45019 0.0
Co72 Co 0.01185 0.03857 0.82685 0.0
C73 C 0.96174 0.0163 0.89106 0.0
Co74 Co 0.99221 0.00795 0.76118 0.0
C75 C 0.01399 0.08926 0.90144 0.0
C76 C 0.0561 0.06628 0.89958 0.0
N77 N 0.02783 0.06571 0.87831 0.0
N78 N 0.03247 0.10447 0.93645 0.0
C79 C 0.05899 0.08994 0.93547 0.0
H80 H 0.99067 0.09492 0.89352 0.0
H81 H 0.07354 0.05057 0.88926 0.0
C82 C 0.04231 0.03042 0.69708 0.0
N83 N 0.97627 0.98076 0.7098 0.0
C84 C 0.99042 0.95805 0.68352 0.0
C85 C 0.94771 0.97884 0.69344 0.0
N86 N 0.97184 0.94191 0.65167 0.0
C87 C 0.94492 0.95509 0.65785 0.0
C88 C 0.97019 0.06417 0.7197 0.0
O89 O 0.04214 0.04334 0.75416 0.0
O90 O 0.022 0.0138 0.68852 0.0
O91 O 0.9682 0.03857 0.70522 0.0
O92 O 0.98818 0.06862 0.76971 0.0
O93 O 0.96232 1.00251 0.83549 0.0
H94 H 0.93001 0.99367 0.70702 0.0
H95 H 0.01392 0.95317 0.68913 0.0
O96 O 0.98165 0.03351 0.89798 0.0
O97 O 0.0352 0.00785 0.88419 0.0
O98 O 0.0165 0.97796 0.81703 0.0
C99 C 0.03385 0.98236 0.86851 0.0
H100 H 0.07918 0.09617 0.95811 0.0
H101 H 0.92459 0.94832 0.63745 0.0
Co102 Co 0.48595 0.03125 0.82674 0.0
C103 C 0.49855 0.97273 0.87534 0.0
Co104 Co 0.51397 0.01052 0.74764 0.0
C105 C 0.43372 0.04059 0.91071 0.0
C106 C 0.46206 0.07529 0.90973 0.0
N107 N 0.46021 0.04928 0.88721 0.0
N108 N 0.4187 0.06027 0.94625 0.0
C109 C 0.43665 0.08208 0.94606 0.0
H110 H 0.4255 0.02032 0.90068 0.0
H111 H 0.48024 0.08891 0.89806 0.0
C112 C 0.5014 0.06904 0.69912 0.0
N113 N 0.53961 0.99239 0.68708 0.0
C114 C 0.5663 1.00057 0.66382 0.0
C115 C 0.53709 0.96665 0.66354 0.0
N116 N 0.58075 0.98085 0.62728 0.0
C117 C 0.56225 0.95953 0.62672 0.0
C118 C 0.45566 0.0087 0.71634 0.0
O119 O 0.48738 0.0671 0.76007 0.0
O120 O 0.51505 0.0464 0.68173 0.0
O121 O 0.481 1.00132 0.69375 0.0
O122 O 0.45347 0.02182 0.77261 0.0
O123 O 0.51258 0.97466 0.8144 0.0
H124 H 0.51856 0.95345 0.67461 0.0
H125 H 0.57505 0.02053 0.67447 0.0
O126 O 0.48487 0.99537 0.8926 0.0
O127 O 0.51886 0.04047 0.88062 0.0
O128 O 0.5465 0.02004 0.80175 0.0
C129 C 0.54422 0.0332 0.85798 0.0
H130 H 0.43149 0.10206 0.96816 0.0
H131 H 0.56687 0.93969 0.60363 0.0
Co132 Co 0.52393 0.52189 0.79996 0.0
C133 C 0.49739 0.47762 0.89185 0.0
Co134 Co 0.47657 0.52016 0.77687 0.0
C135 C 0.57426 0.52292 0.89527 0.0
C136 C 0.58639 0.52541 0.78057 0.0
N137 N 0.56301 0.52377 0.82579 0.0
N138 N 0.60376 0.52377 0.8954 0.0
C139 C 0.61148 0.52532 0.82321 0.0
H140 H 0.56108 0.52095 0.94507 0.0
H141 H 0.58527 0.52635 0.7206 0.0
C142 C 0.50318 0.56444 0.68498 0.0
N143 N 0.43753 0.51798 0.75098 0.0
C144 C 0.42637 0.51965 0.68114 0.0
C145 C 0.41469 0.51215 0.79643 0.0
N146 N 0.39757 0.5148 0.68109 0.0
C147 C 0.39011 0.51007 0.75361 0.0
C148 C 0.48663 0.55703 0.87621 0.0
O149 O 0.52637 0.55413 0.72165 0.0
O150 O 0.47935 0.55225 0.69932 0.0
O151 O 0.46593 0.54674 0.84359 0.0
O152 O 0.51303 0.54828 0.86575 0.0
O153 O 0.47424 0.48783 0.85499 0.0
H154 H 0.416 0.50901 0.85677 0.0
H155 H 0.43943 0.5233 0.63128 0.0
O156 O 0.52117 0.4899 0.87771 0.0
O157 O 0.5345 0.49519 0.73344 0.0
O158 O 0.48745 0.49387 0.71083 0.0
C159 C 0.51381 0.485 0.70057 0.0
H160 H 0.63366 0.52639 0.8026 0.0
H161 H 0.36846 0.50539 0.77424 0.0
Co162 Co 0.99995 0.54732 0.7993 0.0
C163 C 0.05068 0.51342 0.85007 0.0
Co164 Co 0.00082 0.50214 0.77399 0.0
C165 C 0.00266 0.59152 0.89526 0.0
C166 C 0.99544 0.61001 0.78053 0.0
N167 N 0.99898 0.58436 0.82627 0.0
N168 N 0.00182 0.62055 0.89412 0.0
C169 C 0.99737 0.63224 0.82194 0.0
H170 H 0.00675 0.57572 0.94511 0.0
H171 H 0.99202 0.61239 0.72074 0.0
C172 C 0.95008 0.53601 0.72396 0.0
N173 N 0.00185 0.46504 0.74728 0.0
C174 C 0.99772 0.45763 0.67873 0.0
C175 C 0.00607 0.43952 0.79331 0.0
N176 N 0.99893 0.42854 0.68048 0.0
C177 C 0.00408 0.4171 0.75257 0.0
C178 C 0.97508 0.50748 0.90733 0.0
O179 O 0.96247 0.55614 0.74959 0.0
O180 O 0.96323 0.51092 0.72838 0.0
O181 O 0.98222 0.48896 0.86489 0.0
O182 O 0.9809 0.53377 0.88874 0.0
O183 O 0.03882 0.49368 0.82138 0.0
H184 H 0.01004 0.43734 0.85286 0.0
H185 H 0.9931 0.47326 0.62881 0.0
O186 O 0.0369 0.53815 0.84759 0.0
O187 O 0.01949 0.56029 0.70959 0.0
O188 O 0.01898 0.51592 0.68331 0.0
C189 C 0.02573 0.54199 0.66593 0.0
H190 H 0.99565 0.65525 0.80063 0.0
H191 H 0.00627 0.39413 0.77426 0.0
H192 H 0.19912 0.07811 0.44501 0.0
H193 H 0.17685 0.99776 0.37694 0.0
H194 H 0.15349 0.08038 0.51437 0.0
H195 H 0.13184 0.99889 0.44933 0.0
H196 H 0.04446 0.0146 0.55763 0.0
H197 H 0.08464 0.01912 0.46929 0.0
H198 H 0.13525 0.0575 0.62631 0.0
H199 H 0.09461 0.05418 0.71262 0.0
C200 C 0.18409 0.06117 0.44416 0.0
C201 C 0.19121 0.03789 0.40543 0.0
C202 C 0.15814 0.06218 0.48472 0.0
C203 C 0.13901 0.03957 0.48885 0.0
C204 C 0.14571 0.01689 0.44708 0.0
C205 C 0.17149 0.01616 0.40553 0.0
C206 C 0.06411 0.02422 0.57291 0.0
C207 C 0.06633 0.03402 0.64224 0.0
C208 C 0.08727 0.02667 0.52236 0.0
C209 C 0.1134 0.03866 0.54022 0.0
C210 C 0.11537 0.04871 0.60947 0.0
C211 C 0.09209 0.0466 0.65951 0.0
H212 H 0.46761 0.24811 0.47958 0.0
H213 H 0.54963 0.21989 0.38809 0.0
H214 H 0.46269 0.19909 0.54557 0.0
H215 H 0.54571 0.17092 0.45656 0.0
H216 H 0.52173 0.07994 0.55589 0.0
H217 H 0.52221 0.12673 0.47485 0.0
H218 H 0.48369 0.16925 0.65071 0.0
H219 H 0.48218 0.12253 0.73005 0.0
C220 C 0.48435 0.23115 0.47289 0.0
C221 C 0.50882 0.23753 0.4284 0.0
C222 C 0.48182 0.20314 0.51146 0.0
C223 C 0.50402 0.18094 0.50764 0.0
C224 C 0.528 0.18724 0.46051 0.0
C225 C 0.53033 0.21526 0.42119 0.0
C226 C 0.51326 0.0993 0.57702 0.0
C227 C 0.50186 0.09744 0.64947 0.0
C228 C 0.51366 0.12621 0.53063 0.0
C229 C 0.50287 0.15197 0.55571 0.0
C230 C 0.49157 0.14996 0.62841 0.0
C231 C 0.49093 0.1231 0.6744 0.0
H232 H 0.27818 0.46985 0.34771 0.0
H233 H 0.27055 0.56317 0.32958 0.0
H234 H 0.32033 0.46773 0.43333 0.0
H235 H 0.31278 0.56123 0.41426 0.0
H236 H 0.40022 0.54705 0.54411 0.0
H237 H 0.36742 0.54655 0.43689 0.0
H238 H 0.3202 0.47965 0.56625 0.0
H239 H 0.35291 0.48018 0.673 0.0
C240 C 0.28628 0.48993 0.35985 0.0
C241 C 0.27138 0.51668 0.33187 0.0
C242 C 0.31012 0.48873 0.40941 0.0
C243 C 0.31966 0.51431 0.43098 0.0
C244 C 0.30608 0.54119 0.39833 0.0
C245 C 0.28199 0.54234 0.34978 0.0
C246 C 0.38303 0.53204 0.5492 0.0
C247 C 0.37898 0.5138 0.61708 0.0
C248 C 0.36423 0.53182 0.48801 0.0
C249 C 0.34135 0.51296 0.49306 0.0
C250 C 0.33785 0.49417 0.56032 0.0
C251 C 0.35633 0.49472 0.62175 0.0
H252 H 0.92511 0.32889 0.37354 0.0
H253 H 0.01855 0.31521 0.34557 0.0
H254 H 0.93327 0.36662 0.44947 0.0
H255 H 0.02674 0.35363 0.42099 0.0
H256 H 0.01828 0.44042 0.53827 0.0
H257 H 0.01108 0.41202 0.43619 0.0
H258 H 0.96105 0.35301 0.58354 0.0
H259 H 0.96877 0.38078 0.685 0.0
C260 C 0.94735 0.33478 0.38124 0.0
C261 C 0.9712 0.31903 0.35392 0.0
C262 C 0.95201 0.35624 0.42508 0.0
C263 C 0.98063 0.36273 0.44192 0.0
C264 C 0.00444 0.34906 0.40863 0.0
C265 C 0.99977 0.32724 0.36509 0.0
C266 C 0.00567 0.42143 0.54836 0.0
C267 C 0.99411 0.41272 0.61951 0.0
C268 C 0.0017 0.40517 0.49027 0.0
C269 C 0.98538 0.38045 0.50196 0.0
C270 C 0.97353 0.3721 0.57281 0.0
C271 C 0.97808 0.38786 0.63099 0.0
H272 H 0.80633 0.05857 0.12737 0.0
H273 H 0.81849 0.96608 0.19751 0.0
H274 H 0.85286 0.05777 0.06108 0.0
H275 H 0.86514 0.96504 0.13009 0.0
H276 H 0.94912 0.04955 0.99992 0.0
H277 H 0.90755 0.04729 0.08422 0.0
H278 H 0.87783 0.97456 0.99051 0.0
H279 H 0.91944 0.97682 0.9055 0.0
C280 C 0.81937 0.03816 0.12965 0.0
C281 C 0.80913 0.01244 0.16791 0.0
C282 C 0.84595 0.03767 0.09181 0.0
C283 C 0.86262 0.01133 0.09027 0.0
C284 C 0.85267 0.98562 0.13006 0.0
C285 C 0.82622 0.98622 0.1691 0.0
C286 C 0.93391 0.03288 0.9976 0.0
C287 C 0.93753 0.01346 0.94557 0.0
C288 C 0.91005 0.03167 0.04583 0.0
C289 C 0.88941 0.0108 0.0439 0.0
C290 C 0.89353 0.99072 0.99373 0.0
C291 C 0.91725 0.99215 0.94473 0.0
H292 H 0.45043 0.822 0.18687 0.0
H293 H 0.5331 0.79413 0.098 0.0
H294 H 0.45421 0.8709 0.11786 0.0
H295 H 0.53784 0.8431 0.03138 0.0
H296 H 0.5183 0.91922 0.8454 0.0
H297 H 0.51694 0.87259 0.9253 0.0
H298 H 0.47745 0.91527 0.09971 0.0
H299 H 0.47783 0.96195 0.01818 0.0
C300 C 0.46984 0.8267 0.15426 0.0
C301 C 0.49159 0.80455 0.14798 0.0
C302 C 0.47208 0.85469 0.11461 0.0
C303 C 0.4962 0.86106 0.06802 0.0
C304 C 0.51862 0.83899 0.06509 0.0
C305 C 0.51618 0.81101 0.10404 0.0
C306 C 0.50937 0.91871 0.90085 0.0
C307 C 0.49815 0.94438 0.92523 0.0
C308 C 0.50881 0.8919 0.94715 0.0
C309 C 0.49728 0.88997 0.01961 0.0
C310 C 0.48619 0.91574 0.04413 0.0
C311 C 0.48653 0.94258 0.99745 0.0
H312 H 0.71499 0.56156 0.25135 0.0
H313 H 0.73794 0.47173 0.2344 0.0
H314 H 0.6735 0.56175 0.16452 0.0
H315 H 0.6966 0.47172 0.14858 0.0
H316 H 0.65928 0.49947 0.91033 0.0
H317 H 0.69235 0.4967 0.01727 0.0
H318 H 0.62531 0.54103 0.13394 0.0
H319 H 0.5921 0.54409 0.02569 0.0
C320 C 0.71042 0.54159 0.23137 0.0
C321 C 0.72965 0.51667 0.24913 0.0
C322 C 0.68681 0.5417 0.1814 0.0
C323 C 0.6822 0.51691 0.14849 0.0
C324 C 0.69996 0.49132 0.17174 0.0
C325 C 0.72343 0.49122 0.22141 0.0
C326 C 0.65159 0.50873 0.95855 0.0
C327 C 0.6231 0.52203 0.9594 0.0
C328 C 0.67041 0.50684 0.0203 0.0
C329 C 0.66134 0.51839 0.08446 0.0
C330 C 0.63289 0.5319 0.08537 0.0
C331 C 0.61386 0.53349 0.02365 0.0
H332 H 0.07471 0.71753 0.20873 0.0
H333 H 0.98115 0.73169 0.23397 0.0
H334 H 0.06669 0.68057 0.13035 0.0
H335 H 0.97311 0.694 0.15618 0.0
H336 H 0.98149 0.60825 0.03525 0.0
H337 H 0.98837 0.63594 0.13888 0.0
H338 H 0.03972 0.69504 0.99558 0.0
H339 H 0.03233 0.66797 0.89254 0.0
C340 C 0.05245 0.71192 0.19981 0.0
C341 C 0.02855 0.72762 0.22709 0.0
C342 C 0.04788 0.6909 0.15459 0.0
C343 C 0.01929 0.68476 0.13635 0.0
C344 C 0.99539 0.69832 0.16956 0.0
C345 C 0.99998 0.71971 0.21446 0.0
C346 C 0.9943 0.62711 0.02637 0.0
C347 C 0.00634 0.63604 0.95589 0.0
C348 C 0.99811 0.64297 0.08535 0.0
C349 C 0.01471 0.6675 0.07527 0.0
C350 C 0.02701 0.67608 0.00508 0.0
C351 C 0.02265 0.66073 0.94599 0.0
H352 H 0.91022 0.20001 0.35884 0.0
H353 H 0.96747 0.2325 0.51262 0.0
H354 H 0.90396 0.15704 0.45146 0.0
H355 H 0.9617 0.18995 0.6038 0.0
H356 H 0.95133 0.11463 0.76618 0.0
H357 H 0.93382 0.15969 0.68791 0.0
H358 H 0.93652 0.11548 0.49466 0.0
H359 H 0.95249 0.07015 0.57403 0.0
C360 C 0.92097 0.19822 0.41292 0.0
C361 C 0.93951 0.21949 0.42831 0.0
C362 C 0.91745 0.17363 0.46583 0.0
C363 C 0.93251 0.16985 0.53487 0.0
C364 C 0.94931 0.19222 0.5519 0.0
C365 C 0.9527 0.21674 0.49935 0.0
C366 C 0.94734 0.11447 0.70725 0.0
C367 C 0.95375 0.08919 0.67561 0.0
C368 C 0.93743 0.14026 0.66237 0.0
C369 C 0.93451 0.14141 0.58469 0.0
C370 C 0.93839 0.11542 0.55426 0.0
C371 C 0.94773 0.08943 0.59958 0.0
H372 H 0.27973 0.98912 0.53754 0.0
H373 H 0.32564 0.04865 0.3801 0.0
H374 H 0.32384 0.9805 0.61809 0.0
H375 H 0.36946 0.0393 0.45873 0.0
H376 H 0.45121 0.99569 0.5749 0.0
H377 H 0.40612 0.99571 0.50156 0.0
H378 H 0.35448 0.01189 0.69188 0.0
H379 H 0.3994 0.01194 0.76528 0.0
C380 C 0.29912 1.00037 0.52026 0.0
C381 C 0.29934 0.01921 0.45195 0.0
C382 C 0.32433 0.99529 0.56597 0.0
C383 C 0.35014 0.00877 0.54359 0.0
C384 C 0.35011 0.028 0.47621 0.0
C385 C 0.32497 0.03334 0.43126 0.0
C386 C 0.43024 0.99869 0.60145 0.0
C387 C 0.42881 1.00418 0.67539 0.0
C388 C 0.40449 0.99882 0.55948 0.0
C389 C 0.37694 1.00408 0.59108 0.0
C390 C 0.37545 0.00768 0.66639 0.0
C391 C 0.40118 0.00788 0.70811 0.0
H392 H 0.49709 0.32088 0.554 0.0
H393 H 0.56666 0.35656 0.41581 0.0
H394 H 0.49786 0.36115 0.62536 0.0
H395 H 0.56714 0.39713 0.48675 0.0
H396 H 0.56684 0.4569 0.67418 0.0
H397 H 0.57452 0.41272 0.61662 0.0
H398 H 0.48114 0.41367 0.57623 0.0
H399 H 0.4734 0.45742 0.63252 0.0
C400 C 0.51314 0.33685 0.54037 0.0
C401 C 0.53161 0.3358 0.479 0.0
C402 C 0.51337 0.36003 0.58063 0.0
C403 C 0.53219 0.38246 0.56053 0.0
C404 C 0.5524 0.38014 0.50326 0.0
C405 C 0.55203 0.35704 0.4626 0.0
C406 C 0.54804 0.44782 0.65216 0.0
C407 C 0.51951 0.46061 0.65817 0.0
C408 C 0.55244 0.42252 0.61963 0.0
C409 C 0.52834 0.40951 0.59359 0.0
C410 C 0.50003 0.42284 0.59759 0.0
C411 C 0.49567 0.44812 0.62917 0.0
H412 H 0.14637 0.48974 0.36271 0.0
H413 H 0.17487 0.57542 0.37054 0.0
H414 H 0.10414 0.49994 0.43748 0.0
H415 H 0.13148 0.58652 0.44329 0.0
H416 H 0.07268 0.57494 0.65616 0.0
H417 H 0.11124 0.57503 0.56338 0.0
H418 H 0.0586 0.5258 0.43576 0.0
H419 H 0.0212 0.52412 0.53146 0.0
C420 C 0.14323 0.51098 0.37983 0.0
C421 C 0.16367 0.53185 0.36099 0.0
C422 C 0.11884 0.51702 0.42197 0.0
C423 C 0.11399 0.54431 0.44537 0.0
C424 C 0.13458 0.56526 0.42646 0.0
C425 C 0.15936 0.55898 0.38497 0.0
C426 C 0.06913 0.56489 0.60706 0.0
C427 C 0.04431 0.54924 0.60093 0.0
C428 C 0.0912 0.56492 0.55381 0.0
C429 C 0.08841 0.54973 0.49304 0.0
C430 C 0.06197 0.53681 0.48326 0.0
C431 C 0.04036 0.53613 0.5374 0.0
H432 H 0.08967 0.84629 0.23242 0.0
H433 H 0.03522 0.81399 0.07222 0.0
H434 H 0.0972 0.88933 0.14105 0.0
H435 H 0.04221 0.85657 0.98234 0.0
H436 H 0.0499 0.97623 0.01527 0.0
H437 H 0.06528 0.93089 0.09516 0.0
H438 H 0.07089 0.88702 0.90143 0.0
H439 H 0.05389 0.9321 0.82248 0.0
C440 C 0.07981 0.84814 0.17726 0.0
C441 C 0.0617 0.82689 0.15964 0.0
C442 C 0.08406 0.87276 0.12504 0.0
C443 C 0.07012 0.8766 0.05449 0.0
C444 C 0.05377 0.85426 0.03544 0.0
C445 C 0.04966 0.82971 0.08728 0.0
C446 C 0.05517 0.95702 0.98976 0.0
C447 C 0.05007 0.95736 0.91327 0.0
C448 C 0.06419 0.93102 0.03542 0.0
C449 C 0.06868 0.9051 0.00491 0.0
C450 C 0.06676 0.90638 0.92699 0.0
C451 C 0.05715 0.93219 0.88172 0.0
H452 H 0.71837 0.05817 0.04082 0.0
H453 H 0.67613 0.99159 0.18633 0.0
H454 H 0.67427 0.06629 0.96006 0.0
H455 H 0.63221 1.00067 0.10808 0.0
H456 H 0.54862 0.04489 1.00052 0.0
H457 H 0.59378 0.04549 0.07324 0.0
H458 H 0.64535 0.033 0.88016 0.0
H459 H 0.60033 0.03209 0.80738 0.0
C460 C 0.69982 0.04529 0.0555 0.0
C461 C 0.70058 0.0246 0.1207 0.0
C462 C 0.6746 0.0501 0.00971 0.0
C463 C 0.64976 0.03455 0.02913 0.0
C464 C 0.65081 0.01349 0.09314 0.0
C465 C 0.67599 0.00836 0.13793 0.0
C466 C 0.56957 0.04284 0.97323 0.0
C467 C 0.57099 0.03807 0.89869 0.0
C468 C 0.59534 0.04311 0.0148 0.0
C469 C 0.62289 0.0391 0.98213 0.0
C470 C 0.62434 0.03627 0.90633 0.0
C471 C 0.59859 0.03556 0.86502 0.0
H472 H 0.43384 0.68551 0.16091 0.0
H473 H 0.50333 0.72118 0.02242 0.0
H474 H 0.43332 0.64493 0.09002 0.0
H475 H 0.50253 0.68089 0.95113 0.0
H476 H 0.52702 0.58455 0.94457 0.0
H477 H 0.51926 0.62832 1.00075 0.0
H478 H 0.42591 0.62935 0.95991 0.0
H479 H 0.4336 0.58516 0.9024 0.0
C480 C 0.44844 0.68503 0.11406 0.0
C481 C 0.46886 0.70627 0.09756 0.0
C482 C 0.44804 0.66192 0.07344 0.0
C483 C 0.46822 0.6596 0.01611 0.0
C484 C 0.48703 0.68202 0.9959 0.0
C485 C 0.48729 0.70522 0.03612 0.0
C486 C 0.50475 0.59388 0.94778 0.0
C487 C 0.48091 0.58141 0.91864 0.0
C488 C 0.50038 0.61916 0.97931 0.0
C489 C 0.47207 0.63252 0.98313 0.0
C490 C 0.44798 0.61953 0.95701 0.0
C491 C 0.45239 0.59422 0.92452 0.0
H492 H 0.85282 0.55353 0.21867 0.0
H493 H 0.82881 0.46668 0.20598 0.0
H494 H 0.89524 0.54622 0.14166 0.0
H495 H 0.87242 0.45838 0.1318 0.0
H496 H 0.9295 0.47287 0.91854 0.0
H497 H 0.89131 0.47127 0.0123 0.0
H498 H 0.94172 0.52328 0.13754 0.0
H499 H 0.97867 0.52647 0.04062 0.0
C500 C 0.85701 0.53269 0.19997 0.0
C501 C 0.83772 0.51069 0.21767 0.0
C502 C 0.88151 0.52828 0.1566 0.0
C503 C 0.88761 0.50151 0.13115 0.0
C504 C 0.8683 0.47934 0.14975 0.0
C505 C 0.8434 0.48401 0.19216 0.0
C506 C 0.93264 0.48326 0.96727 0.0
C507 C 0.95671 0.49999 0.97251 0.0
C508 C 0.91079 0.48237 0.02113 0.0
C509 C 0.91304 0.49775 0.08176 0.0
C510 C 0.93873 0.51206 0.09028 0.0
C511 C 0.9601 0.51359 0.03546 0.0
H512 H 0.02748 0.24693 0.19833 0.0
H513 H 0.9377 0.23448 0.14404 0.0
H514 H 0.04444 0.21471 0.11007 0.0
H515 H 0.95419 0.20166 0.05846 0.0
H516 H 0.9895 0.14685 0.89243 0.0
H517 H 0.97678 0.18992 0.95003 0.0
H518 H 0.04651 0.16372 0.11349 0.0
H519 H 0.05953 0.12127 0.05461 0.0
C520 C 0.01141 0.23815 0.16541 0.0
C521 C 0.9813 0.24329 0.17769 0.0
C522 C 0.02105 0.21921 0.11588 0.0
C523 C 0.00075 0.20494 0.07792 0.0
C524 C 0.97061 0.2122 0.08584 0.0
C525 C 0.96106 0.23114 0.13494 0.0
C526 C 0.00211 0.15036 0.94059 0.0
C527 C 0.02542 0.13046 0.96911 0.0
C528 C 0.99486 0.17511 0.9737 0.0
C529 C 0.01054 0.18051 0.03679 0.0
C530 C 0.03425 0.16083 0.0642 0.0
C531 C 0.04164 0.13626 0.03066 0.0
H532 H 0.27373 0.99278 0.18502 0.0
H533 H 0.25768 0.08468 0.18588 0.0
H534 H 0.30953 1.00224 0.08655 0.0
H535 H 0.29329 0.09445 0.0864 0.0
H536 H 0.39481 0.08967 0.05213 0.0
H537 H 0.34652 0.08562 0.10638 0.0
H538 H 0.32697 0.02322 0.9633 0.0
H539 H 0.37539 0.02753 0.9079 0.0
C540 C 0.27653 0.01507 0.16064 0.0
C541 C 0.26292 0.038 0.19274 0.0
C542 C 0.2973 0.02056 0.10465 0.0
C543 C 0.30487 0.0491 0.08004 0.0
C544 C 0.28839 0.07218 0.10537 0.0
C545 C 0.26754 0.06666 0.16125 0.0
C546 C 0.38015 0.07549 0.03095 0.0
C547 C 0.38935 0.05876 0.97594 0.0
C548 C 0.35225 0.07328 0.06189 0.0
C549 C 0.33271 0.05421 0.03891 0.0
C550 C 0.34154 0.03799 0.98256 0.0
C551 C 0.36946 0.04031 0.95125 0.0
H552 H 0.46231 0.33731 0.24636 0.0
H553 H 0.55119 0.31687 0.1828 0.0
H554 H 0.4567 0.37636 0.14018 0.0
H555 H 0.54559 0.35533 0.07483 0.0
H556 H 0.54257 0.45239 0.98341 0.0
H557 H 0.54421 0.40694 0.06895 0.0
H558 H 0.45468 0.39493 0.00845 0.0
H559 H 0.45283 0.44108 0.92351 0.0
C560 C 0.4801 0.34025 0.20714 0.0
C561 C 0.50701 0.32387 0.22181 0.0
C562 C 0.47702 0.36278 0.14654 0.0
C563 C 0.50089 0.36944 0.0996 0.0
C564 C 0.52696 0.35125 0.11076 0.0
C565 C 0.53005 0.32882 0.17163 0.0
C566 C 0.52316 0.44015 0.98831 0.0
C567 C 0.49752 0.45051 0.94671 0.0
C568 C 0.52422 0.4138 0.03681 0.0
C569 C 0.49972 0.39691 0.04499 0.0
C570 C 0.47395 0.40737 0.00377 0.0
C571 C 0.47286 0.43386 0.95517 0.0
H572 H 0.21528 0.53474 0.06621 0.0
H573 H 0.17982 0.458 0.18476 0.0
H574 H 0.18291 0.53254 0.95965 0.0
H575 H 0.14695 0.45604 0.07982 0.0
H576 H 0.08436 0.46178 0.88502 0.0
H577 H 0.13186 0.45394 0.95141 0.0
H578 H 0.13082 0.54583 0.96172 0.0
H579 H 0.08414 0.5536 0.89544 0.0
C580 C 0.20172 0.5165 0.06776 0.0
C581 C 0.19991 0.4966 0.13351 0.0
C582 C 0.18278 0.51549 0.00735 0.0
C583 C 0.16165 0.49465 0.01214 0.0
C584 C 0.16282 0.47241 0.07403 0.0
C585 C 0.18181 0.4734 0.13418 0.0
C586 C 0.09455 0.48029 0.90073 0.0
C587 C 0.08028 0.50826 0.88572 0.0
C588 C 0.12176 0.47581 0.93865 0.0
C589 C 0.13534 0.49926 0.96156 0.0
C590 C 0.12146 0.5273 0.94373 0.0
C591 C 0.09435 0.53172 0.90651 0.0
H592 H 0.97132 0.81224 0.36017 0.0
H593 H 0.05796 0.7989 0.45982 0.0
H594 H 0.95699 0.84592 0.44668 0.0
H595 H 0.0437 0.83192 0.54791 0.0
H596 H 0.02412 0.92582 0.59335 0.0
H597 H 0.03566 0.8838 0.53172 0.0
H598 H 0.94761 0.85702 0.57072 0.0
H599 H 0.93603 0.89921 0.6324 0.0
C600 C 0.9868 0.81541 0.40323 0.0
C601 C 0.01556 0.80262 0.40426 0.0
C602 C 0.97873 0.83492 0.45252 0.0
C603 C 0.99935 0.84214 0.50363 0.0
C604 C 0.02742 0.82741 0.50838 0.0
C605 C 0.03546 0.80803 0.45896 0.0
C606 C 0.0073 0.91082 0.58991 0.0
C607 C 0.97907 0.91618 0.61777 0.0
C608 C 0.01396 0.88654 0.55463 0.0
C609 C 0.99261 0.8668 0.54627 0.0
C610 C 0.96452 0.87187 0.57527 0.0
C611 C 0.95786 0.89618 0.61056 0.0
H612 H 0.73948 0.95482 0.38022 0.0
H613 H 0.72828 0.04614 0.39404 0.0
H614 H 0.70382 0.94481 0.47944 0.0
H615 H 0.69229 0.03652 0.49194 0.0
H616 H 0.60296 0.95258 0.51755 0.0
H617 H 0.65117 0.95577 0.46254 0.0
H618 H 0.67388 0.01473 0.61221 0.0
H619 H 0.62543 0.01139 0.66803 0.0
C620 C 0.73067 0.97253 0.40762 0.0
C621 C 0.73673 1.00121 0.38004 0.0
C622 C 0.70976 0.96693 0.46333 0.0
C623 C 0.69455 0.98995 0.49214 0.0
C624 C 0.70352 0.01824 0.47119 0.0
C625 C 0.72441 0.0238 0.41553 0.0
C626 C 0.6183 0.96582 0.53993 0.0
C627 C 0.61001 0.98189 0.59698 0.0
C628 C 0.64616 0.96752 0.50856 0.0
C629 C 0.6666 0.98536 0.53324 0.0
C630 C 0.65864 1.00092 0.59156 0.0
C631 C 0.63072 0.99915 0.62317 0.0
H632 H 0.44956 0.72522 0.39381 0.0
H633 H 0.53836 0.7046 0.32991 0.0
H634 H 0.45513 0.68675 0.50174 0.0
H635 H 0.54394 0.66554 0.43608 0.0
H636 H 0.54782 0.60088 0.65298 0.0
H637 H 0.54602 0.64698 0.56786 0.0
H638 H 0.45641 0.63513 0.50777 0.0
H639 H 0.458 0.58971 0.59347 0.0
C640 C 0.47068 0.71323 0.4049 0.0
C641 C 0.49371 0.71815 0.35463 0.0
C642 C 0.47375 0.69079 0.46574 0.0
C643 C 0.49979 0.67254 0.47682 0.0
C644 C 0.52365 0.67916 0.42979 0.0
C645 C 0.52058 0.7017 0.3692 0.0
C646 C 0.52778 0.60812 0.62137 0.0
C647 C 0.50308 0.59152 0.63002 0.0
C648 C 0.52672 0.63459 0.57266 0.0
C649 C 0.50094 0.64508 0.53151 0.0
C650 C 0.4764 0.62824 0.53985 0.0
C651 C 0.47744 0.60191 0.58845 0.0
H652 H 0.80025 0.58167 0.42246 0.0
H653 H 0.80328 0.48974 0.50033 0.0
H654 H 0.8327 0.58804 0.52543 0.0
H655 H 0.83699 0.49523 0.59962 0.0
H656 H 0.9036 0.50485 0.76541 0.0
H657 H 0.85557 0.50843 0.70431 0.0
H658 H 0.8825 0.58011 0.54436 0.0
H659 H 0.92949 0.57775 0.61034 0.0
C660 C 0.8068 0.56304 0.46389 0.0
C661 C 0.79904 0.53527 0.45428 0.0
C662 C 0.82604 0.56649 0.52189 0.0
C663 C 0.83849 0.54209 0.57014 0.0
C664 C 0.82803 0.51474 0.56471 0.0
C665 C 0.80839 0.51146 0.50776 0.0
C666 C 0.89881 0.52173 0.71806 0.0
C667 C 0.92014 0.54087 0.69188 0.0
C668 C 0.87136 0.5237 0.68247 0.0
C669 C 0.86497 0.54416 0.61788 0.0
C670 C 0.88608 0.56426 0.59423 0.0
C671 C 0.91324 0.56284 0.63151 0.0
loop_
_geom_bond_atom_site_label_1
_geom_bond_atom_site_label_2
_geom_bond_distance
_geom_bond_site_symmetry_2
_ccdc_geom_bond_type
H0 C3 0.931 . S
H1 C6 0.928 . S
H2 C8 0.930 . S
C3 H0 0.931 . S
C3 C4 1.413 . S
C3 C5 1.360 . S
C4 C3 1.413 . S
C4 C8 1.429 . S
C5 C3 1.360 . S
C5 C6 1.372 . S
C6 H1 0.928 . S
C6 C5 1.372 . S
C6 C7 1.404 . S
C7 C6 1.404 . S
C7 C8 1.391 . S
C8 H2 0.930 . S
C8 C4 1.429 . S
C8 C7 1.391 . S
H9 C12 0.931 . S
H10 C15 0.928 . S
H11 C17 0.931 . S
C12 H9 0.931 . S
C12 C13 1.414 . S
C12 C14 1.360 . S
C13 C12 1.414 . S
C13 C17 1.430 1_655 S
C14 C12 1.360 . S
C14 C15 1.374 . S
C15 H10 0.928 . S
C15 C14 1.374 . S
C15 C16 1.403 . S
C16 C15 1.403 . S
C16 C17 1.390 1_655 S
C17 H11 0.931 . S
C17 C13 1.430 1_455 S
C17 C16 1.390 1_455 S
H18 C21 0.931 . S
H19 C24 0.928 1_556 S
H20 C26 0.930 . S
C21 H18 0.931 . S
C21 C22 1.413 . S
C21 C23 1.360 . S
C22 C21 1.413 . S
C22 C26 1.429 . S
C23 C21 1.360 . S
C23 C24 1.372 . S
C24 H19 0.928 1_554 S
C24 C23 1.372 . S
C24 C25 1.404 . S
C25 C24 1.404 . S
C25 C26 1.391 . S
C26 H20 0.930 . S
C26 C22 1.429 . S
C26 C25 1.391 . S
H27 C30 0.931 . S
H28 C33 0.928 . S
H29 C35 0.930 . S
C30 H27 0.931 . S
C30 C31 1.413 . S
C30 C32 1.360 . S
C31 C30 1.413 . S
C31 C35 1.429 . S
C32 C30 1.360 . S
C32 C33 1.372 . S
C33 H28 0.928 . S
C33 C32 1.372 . S
C33 C34 1.404 . S
C34 C33 1.404 . S
C34 C35 1.391 . S
C35 H29 0.930 . S
C35 C31 1.429 . S
C35 C34 1.391 . S
H36 C39 0.931 . S
H37 C42 0.928 . S
H38 C44 0.930 . S
C39 H36 0.931 . S
C39 C40 1.413 . S
C39 C41 1.360 . S
C40 C39 1.413 . S
C40 C44 1.429 . S
C41 C39 1.360 . S
C41 C42 1.372 . S
C42 H37 0.928 . S
C42 C41 1.372 . S
C42 C43 1.404 . S
C43 C42 1.404 . S
C43 C44 1.391 . S
C44 H38 0.930 . S
C44 C40 1.429 . S
C44 C43 1.391 . S
H45 C48 0.930 . S
H46 C51 0.928 . S
H47 C53 0.928 . S
C48 H45 0.930 . S
C48 C49 1.413 . S
C48 C50 1.360 . S
C49 C48 1.413 . S
C49 C53 1.428 1_655 S
C50 C48 1.360 . S
C50 C51 1.371 . S
C51 H46 0.928 . S
C51 C50 1.371 . S
C51 C52 1.404 . S
C52 C51 1.404 . S
C52 C53 1.391 1_655 S
C53 H47 0.928 . S
C53 C49 1.428 1_455 S
C53 C52 1.391 1_455 S
H54 C57 0.931 . S
H55 C60 0.928 . S
H56 C62 0.930 . S
C57 H54 0.931 . S
C57 C58 1.413 . S
C57 C59 1.360 . S
C58 C57 1.413 . S
C58 C62 1.429 . S
C59 C57 1.360 . S
C59 C60 1.372 . S
C60 H55 0.928 . S
C60 C59 1.372 . S
C60 C61 1.404 . S
C61 C60 1.404 . S
C61 C62 1.391 . S
C62 H56 0.930 . S
C62 C58 1.429 . S
C62 C61 1.391 . S
H63 C66 0.931 . S
H64 C69 0.928 . S
H65 C71 0.930 . S
C66 H63 0.931 . S
C66 C67 1.413 . S
C66 C68 1.360 . S
C67 C66 1.413 . S
C67 C71 1.429 . S
C68 C66 1.360 . S
C68 C69 1.372 . S
C69 H64 0.928 . S
C69 C68 1.372 . S
C69 C70 1.404 . S
C70 C69 1.404 . S
C70 C71 1.391 . S
C71 H65 0.930 . S
C71 C67 1.429 . S
C71 C70 1.391 . S
Co72 N77 2.057 . S
Co72 O89 2.021 . S
Co72 O92 2.062 1_455 S
Co72 O96 2.117 1_455 S
Co72 O97 2.020 1_545 S
C73 O93 1.259 1_545 S
C73 O96 1.258 . S
Co74 N83 2.034 1_545 S
Co74 O90 2.126 1_655 S
Co74 O91 2.053 . S
Co74 O93 2.017 1_545 S
Co74 O98 2.036 1_645 S
C75 N77 1.316 . S
C75 N78 1.347 1_556 S
C75 H80 0.931 . S
C76 N77 1.375 1_655 S
C76 C79 1.350 1_556 S
C76 H81 0.930 . S
N77 Co72 2.057 . S
N77 C75 1.316 . S
N77 C76 1.375 1_455 S
N78 C75 1.347 1_554 S
N78 C79 1.373 1_455 S
C79 C76 1.350 1_554 S
C79 N78 1.373 1_655 S
C79 H100 0.931 . S
H80 C75 0.931 . S
H81 C76 0.930 . S
C82 O89 1.259 . S
C82 O90 1.258 . S
N83 Co74 2.034 1_565 S
N83 C84 1.316 . S
N83 C85 1.375 1_655 S
C84 N83 1.316 . S
C84 N86 1.347 . S
C84 H95 0.931 . S
C85 N83 1.375 1_455 S
C85 C87 1.350 . S
C85 H94 0.930 . S
N86 C84 1.347 . S
N86 C87 1.373 1_655 S
C87 C85 1.350 . S
C87 N86 1.373 1_455 S
C87 H101 0.931 . S
C88 O91 1.256 . S
C88 O92 1.255 . S
O89 Co72 2.021 . S
O89 C82 1.259 . S
O90 Co74 2.126 1_455 S
O90 C82 1.258 . S
O91 Co74 2.053 . S
O91 C88 1.256 . S
O92 Co72 2.062 1_655 S
O92 C88 1.255 . S
O93 C73 1.259 1_565 S
O93 Co74 2.017 1_565 S
H94 C85 0.930 . S
H95 C84 0.931 . S
O96 Co72 2.117 1_655 S
O96 C73 1.258 . S
O97 Co72 2.020 1_565 S
O97 C99 1.256 . S
O98 Co74 2.036 1_465 S
O98 C99 1.255 . S
C99 O97 1.256 . S
C99 O98 1.255 . S
H100 C79 0.931 . S
H101 C87 0.931 . S
Co102 N107 2.057 . S
Co102 O119 2.021 . S
Co102 O122 2.062 . S
Co102 O126 2.117 1_545 S
Co102 O127 2.020 . S
C103 O123 1.259 . S
C103 O126 1.258 . S
Co104 N113 2.057 . S
Co104 O120 2.117 . S
Co104 O121 2.020 . S
Co104 O123 2.021 1_545 S
Co104 O128 2.062 1_545 S
C105 N107 1.316 . S
C105 N108 1.347 1_556 S
C105 H110 0.931 . S
C106 N107 1.375 . S
C106 C109 1.350 1_556 S
C106 H111 0.930 1_545 S
N107 Co102 2.057 . S
N107 C105 1.316 . S
N107 C106 1.375 . S
N108 C105 1.347 1_554 S
N108 C109 1.373 . S
C109 C106 1.350 1_554 S
C109 N108 1.373 . S
C109 H130 0.931 . S
H110 C105 0.931 . S
H111 C106 0.930 1_565 S
C112 O119 1.259 . S
C112 O120 1.258 . S
N113 Co104 2.057 . S
N113 C114 1.316 1_545 S
N113 C115 1.375 . S
C114 N113 1.316 1_565 S
C114 N116 1.347 . S
C114 H125 0.931 . S
C115 N113 1.375 . S
C115 C117 1.350 . S
C115 H124 0.930 . S
N116 C114 1.347 . S
N116 C117 1.373 1_565 S
C117 C115 1.350 . S
C117 N116 1.373 1_545 S
C117 H131 0.931 . S
C118 O121 1.256 . S
C118 O122 1.255 . S
O119 Co102 2.021 . S
O119 C112 1.259 . S
O120 Co104 2.117 . S
O120 C112 1.258 . S
O121 Co104 2.020 . S
O121 C118 1.256 . S
O122 Co102 2.062 . S
O122 C118 1.255 . S
O123 C103 1.259 . S
O123 Co104 2.021 1_565 S
H124 C115 0.930 . S
H125 C114 0.931 . S
O126 Co102 2.117 1_565 S
O126 C103 1.258 . S
O127 Co102 2.020 . S
O127 C129 1.256 . S
O128 Co104 2.062 1_565 S
O128 C129 1.255 1_565 S
C129 O127 1.256 . S
C129 O128 1.255 1_545 S
H130 C109 0.931 . S
H131 C117 0.931 . S
Co132 N137 2.057 . S
Co132 O149 2.021 . S
Co132 O152 2.062 . S
Co132 O156 2.117 . S
Co132 O157 2.020 . S
C133 O153 1.259 . S
C133 O156 1.258 . S
Co134 N143 2.057 . S
Co134 O150 2.117 . S
Co134 O151 2.020 . S
Co134 O153 2.021 . S
Co134 O158 2.062 . S
C135 N137 1.316 . S
C135 N138 1.347 . S
C135 H140 0.931 . S
C136 N137 1.375 . S
C136 C139 1.350 . S
C136 H141 0.930 . S
N137 Co132 2.057 . S
N137 C135 1.316 . S
N137 C136 1.375 . S
N138 C135 1.347 . S
N138 C139 1.373 . S
C139 C136 1.350 . S
C139 N138 1.373 . S
C139 H160 0.931 . S
H140 C135 0.931 . S
H141 C136 0.930 . S
C142 O149 1.259 . S
C142 O150 1.258 . S
N143 Co134 2.057 . S
N143 C144 1.316 . S
N143 C145 1.375 . S
C144 N143 1.316 . S
C144 N146 1.347 . S
C144 H155 0.931 . S
C145 N143 1.375 . S
C145 C147 1.350 . S
C145 H154 0.930 . S
N146 C144 1.347 . S
N146 C147 1.373 . S
C147 C145 1.350 . S
C147 N146 1.373 . S
C147 H161 0.931 . S
C148 O151 1.256 . S
C148 O152 1.255 . S
O149 Co132 2.021 . S
O149 C142 1.259 . S
O150 Co134 2.117 . S
O150 C142 1.258 . S
O151 Co134 2.020 . S
O151 C148 1.256 . S
O152 Co132 2.062 . S
O152 C148 1.255 . S
O153 C133 1.259 . S
O153 Co134 2.021 . S
H154 C145 0.930 . S
H155 C144 0.931 . S
O156 Co132 2.117 . S
O156 C133 1.258 . S
O157 Co132 2.020 . S
O157 C159 1.256 . S
O158 Co134 2.062 . S
O158 C159 1.255 . S
C159 O157 1.256 . S
C159 O158 1.255 . S
H160 C139 0.931 . S
H161 C147 0.931 . S
Co162 N167 2.057 . S
Co162 O179 2.021 1_455 S
Co162 O182 2.062 1_455 S
Co162 O186 2.117 . S
Co162 O187 2.020 . S
C163 O183 1.259 . S
C163 O186 1.258 . S
Co164 N173 2.057 . S
Co164 O180 2.117 . S
Co164 O181 2.020 . S
Co164 O183 2.021 1_655 S
Co164 O188 2.062 1_655 S
C165 N167 1.316 . S
C165 N168 1.347 . S
C165 H170 0.931 1_455 S
C166 N167 1.375 . S
C166 C169 1.350 . S
C166 H171 0.930 . S
N167 Co162 2.057 . S
N167 C165 1.316 . S
N167 C166 1.375 . S
N168 C165 1.347 . S
N168 C169 1.373 . S
C169 C166 1.350 . S
C169 N168 1.373 . S
C169 H190 0.931 . S
H170 C165 0.931 1_655 S
H171 C166 0.930 . S
C172 O179 1.259 . S
C172 O180 1.258 . S
N173 Co164 2.057 . S
N173 C174 1.316 . S
N173 C175 1.375 . S
C174 N173 1.316 . S
C174 N176 1.347 . S
C174 H185 0.931 1_655 S
C175 N173 1.375 . S
C175 C177 1.350 . S
C175 H184 0.930 . S
N176 C174 1.347 . S
N176 C177 1.373 . S
C177 C175 1.350 . S
C177 N176 1.373 . S
C177 H191 0.931 . S
C178 O181 1.256 . S
C178 O182 1.255 . S
O179 Co162 2.021 1_655 S
O179 C172 1.259 . S
O180 Co164 2.117 . S
O180 C172 1.258 . S
O181 Co164 2.020 . S
O181 C178 1.256 . S
O182 Co162 2.062 1_655 S
O182 C178 1.255 . S
O183 C163 1.259 . S
O183 Co164 2.021 1_455 S
H184 C175 0.930 . S
H185 C174 0.931 1_455 S
O186 Co162 2.117 . S
O186 C163 1.258 . S
O187 Co162 2.020 . S
O187 C189 1.256 . S
O188 Co164 2.062 1_455 S
O188 C189 1.255 . S
C189 O187 1.256 . S
C189 O188 1.255 . S
H190 C169 0.931 . S
H191 C177 0.931 . S
H192 C200 0.950 . S
H193 C205 0.950 . S
H194 C202 0.950 . S
H195 C204 0.950 . S
H196 C206 0.950 1_565 S
H197 C208 0.950 . S
H198 C210 0.950 . S
H199 C211 0.950 . S
C200 H192 0.950 . S
C200 C201 1.386 . S
C200 C202 1.391 . S
C201 C200 1.386 . S
C201 C205 1.393 . S
C202 H194 0.950 . S
C202 C200 1.391 . S
C202 C203 1.400 . S
C203 C202 1.400 . S
C203 C204 1.398 . S
C203 C209 1.491 . S
C204 H195 0.950 . S
C204 C203 1.398 . S
C204 C205 1.391 . S
C205 H193 0.950 . S
C205 C201 1.393 . S
C205 C204 1.391 . S
C206 H196 0.950 1_545 S
C206 C207 1.386 . S
C206 C208 1.391 . S
C207 C206 1.386 . S
C207 C211 1.393 . S
C208 H197 0.950 . S
C208 C206 1.391 . S
C208 C209 1.400 . S
C209 C203 1.491 . S
C209 C208 1.400 . S
C209 C210 1.398 . S
C210 H198 0.950 . S
C210 C209 1.398 . S
C210 C211 1.391 . S
C211 H199 0.950 . S
C211 C207 1.393 . S
C211 C210 1.391 . S
H212 C220 0.950 . S
H213 C225 0.950 . S
H214 C222 0.950 . S
H215 C224 0.950 . S
H216 C226 0.950 . S
H217 C228 0.950 . S
H218 C230 0.950 . S
H219 C231 0.950 . S
C220 H212 0.950 . S
C220 C221 1.386 . S
C220 C222 1.391 . S
C221 C220 1.386 . S
C221 C225 1.393 . S
C222 H214 0.950 . S
C222 C220 1.391 . S
C222 C223 1.400 . S
C223 C222 1.400 . S
C223 C224 1.398 . S
C223 C229 1.491 . S
C224 H215 0.950 . S
C224 C223 1.398 . S
C224 C225 1.391 . S
C225 H213 0.950 . S
C225 C221 1.393 . S
C225 C224 1.391 . S
C226 H216 0.950 . S
C226 C227 1.386 . S
C226 C228 1.391 . S
C227 C226 1.386 . S
C227 C231 1.393 . S
C228 H217 0.950 . S
C228 C226 1.391 . S
C228 C229 1.400 . S
C229 C223 1.491 . S
C229 C228 1.400 . S
C229 C230 1.398 . S
C230 H218 0.950 . S
C230 C229 1.398 . S
C230 C231 1.391 . S
C231 H219 0.950 . S
C231 C227 1.393 . S
C231 C230 1.391 . S
H232 C240 0.950 . S
H233 C245 0.950 . S
H234 C242 0.950 . S
H235 C244 0.950 . S
H236 C246 0.950 . S
H237 C248 0.950 . S
H238 C250 0.950 . S
H239 C251 0.950 . S
C240 H232 0.950 . S
C240 C241 1.386 . S
C240 C242 1.391 . S
C241 C240 1.386 . S
C241 C245 1.393 . S
C242 H234 0.950 . S
C242 C240 1.391 . S
C242 C243 1.400 . S
C243 C242 1.400 . S
C243 C244 1.398 . S
C243 C249 1.491 . S
C244 H235 0.950 . S
C244 C243 1.398 . S
C244 C245 1.391 . S
C245 H233 0.950 . S
C245 C241 1.393 . S
C245 C244 1.391 . S
C246 H236 0.950 . S
C246 C247 1.386 . S
C246 C248 1.391 . S
C247 C246 1.386 . S
C247 C251 1.393 . S
C248 H237 0.950 . S
C248 C246 1.391 . S
C248 C249 1.400 . S
C249 C243 1.491 . S
C249 C248 1.400 . S
C249 C250 1.398 . S
C250 H238 0.950 . S
C250 C249 1.398 . S
C250 C251 1.391 . S
C251 H239 0.950 . S
C251 C247 1.393 . S
C251 C250 1.391 . S
H252 C260 0.950 . S
H253 C265 0.950 . S
H254 C262 0.950 . S
H255 C264 0.950 . S
H256 C266 0.950 . S
H257 C268 0.950 . S
H258 C270 0.950 . S
H259 C271 0.950 . S
C260 H252 0.950 . S
C260 C261 1.386 . S
C260 C262 1.391 . S
C261 C260 1.386 . S
C261 C265 1.393 1_655 S
C262 H254 0.950 . S
C262 C260 1.391 . S
C262 C263 1.400 . S
C263 C262 1.400 . S
C263 C264 1.398 1_655 S
C263 C269 1.491 . S
C264 H255 0.950 . S
C264 C263 1.398 1_455 S
C264 C265 1.391 . S
C265 H253 0.950 . S
C265 C261 1.393 1_455 S
C265 C264 1.391 . S
C266 H256 0.950 . S
C266 C267 1.386 1_455 S
C266 C268 1.391 . S
C267 C266 1.386 1_655 S
C267 C271 1.393 . S
C268 H257 0.950 . S
C268 C266 1.391 . S
C268 C269 1.400 1_455 S
C269 C263 1.491 . S
C269 C268 1.400 1_655 S
C269 C270 1.398 . S
C270 H258 0.950 . S
C270 C269 1.398 . S
C270 C271 1.391 . S
C271 H259 0.950 . S
C271 C267 1.393 . S
C271 C270 1.391 . S
H272 C280 0.950 . S
H273 C285 0.950 . S
H274 C282 0.950 . S
H275 C284 0.950 . S
H276 C286 0.950 . S
H277 C288 0.950 1_554 S
H278 C290 0.950 . S
H279 C291 0.949 1_545 S
C280 H272 0.950 . S
C280 C281 1.386 1_556 S
C280 C282 1.391 . S
C281 C280 1.386 1_554 S
C281 C285 1.393 . S
C282 H274 0.950 . S
C282 C280 1.391 . S
C282 C283 1.400 . S
C283 C282 1.400 . S
C283 C284 1.398 1_556 S
C283 C289 1.491 . S
C284 H275 0.950 . S
C284 C283 1.398 1_554 S
C284 C285 1.391 . S
C285 H273 0.950 . S
C285 C281 1.393 . S
C285 C284 1.391 . S
C286 H276 0.950 . S
C286 C287 1.386 . S
C286 C288 1.391 . S
C287 C286 1.386 . S
C287 C291 1.393 . S
C288 H277 0.950 1_556 S
C288 C286 1.391 . S
C288 C289 1.400 . S
C289 C283 1.491 . S
C289 C288 1.400 . S
C289 C290 1.398 . S
C290 H278 0.950 . S
C290 C289 1.398 . S
C290 C291 1.392 . S
C291 H279 0.949 1_565 S
C291 C287 1.393 . S
C291 C290 1.392 . S
H292 C300 0.950 . S
H293 C305 0.950 . S
H294 C302 0.950 1_556 S
H295 C304 0.950 . S
H296 C306 0.950 . S
H297 C308 0.950 . S
H298 C310 0.950 . S
H299 C311 0.950 . S
C300 H292 0.950 . S
C300 C301 1.386 . S
C300 C302 1.391 . S
C301 C300 1.386 . S
C301 C305 1.393 . S
C302 H294 0.950 1_554 S
C302 C300 1.391 . S
C302 C303 1.400 1_554 S
C303 C302 1.400 1_556 S
C303 C304 1.398 1_556 S
C303 C309 1.491 . S
C304 H295 0.950 . S
C304 C303 1.398 1_554 S
C304 C305 1.391 . S
C305 H293 0.950 . S
C305 C301 1.393 . S
C305 C304 1.391 . S
C306 H296 0.950 . S
C306 C307 1.386 . S
C306 C308 1.391 . S
C307 C306 1.386 . S
C307 C311 1.393 . S
C308 H297 0.950 . S
C308 C306 1.391 . S
C308 C309 1.400 . S
C309 C303 1.491 . S
C309 C308 1.400 . S
C309 C310 1.398 . S
C310 H298 0.950 . S
C310 C309 1.398 . S
C310 C311 1.391 . S
C311 H299 0.950 . S
C311 C307 1.393 . S
C311 C310 1.391 . S
H312 C320 0.950 . S
H313 C325 0.950 . S
H314 C322 0.950 . S
H315 C324 0.950 . S
H316 C326 0.950 . S
H317 C328 0.950 . S
H318 C330 0.950 1_554 S
H319 C331 0.950 . S
C320 H312 0.950 . S
C320 C321 1.386 . S
C320 C322 1.391 . S
C321 C320 1.386 . S
C321 C325 1.393 . S
C322 H314 0.950 . S
C322 C320 1.391 . S
C322 C323 1.400 . S
C323 C322 1.400 . S
C323 C324 1.398 1_554 S
C323 C329 1.491 1_554 S
C324 H315 0.950 . S
C324 C323 1.398 1_556 S
C324 C325 1.391 1_556 S
C325 H313 0.950 . S
C325 C321 1.393 . S
C325 C324 1.391 1_554 S
C326 H316 0.950 . S
C326 C327 1.386 . S
C326 C328 1.391 . S
C327 C326 1.386 . S
C327 C331 1.393 . S
C328 H317 0.950 . S
C328 C326 1.391 . S
C328 C329 1.400 . S
C329 C323 1.491 1_556 S
C329 C328 1.400 . S
C329 C330 1.398 . S
C330 H318 0.950 1_556 S
C330 C329 1.398 . S
C330 C331 1.391 . S
C331 H319 0.950 . S
C331 C327 1.393 . S
C331 C330 1.391 . S
H332 C340 0.950 . S
H333 C345 0.950 . S
H334 C342 0.950 . S
H335 C344 0.950 1_556 S
H336 C346 0.950 . S
H337 C348 0.950 . S
H338 C350 0.950 . S
H339 C351 0.950 . S
C340 H332 0.950 . S
C340 C341 1.408 . S
C340 C342 1.391 . S
C341 C340 1.408 . S
C341 C345 1.372 1_455 S
C342 H334 0.950 . S
C342 C340 1.391 . S
C342 C343 1.395 1_554 S
C343 C342 1.395 1_556 S
C343 C344 1.397 1_456 S
C343 C349 1.497 . S
C344 H335 0.950 1_554 S
C344 C343 1.397 1_654 S
C344 C345 1.391 . S
C345 H333 0.950 . S
C345 C341 1.372 1_655 S
C345 C344 1.391 . S
C346 H336 0.950 . S
C346 C347 1.386 1_655 S
C346 C348 1.391 . S
C347 C346 1.386 1_455 S
C347 C351 1.393 . S
C348 H337 0.950 . S
C348 C346 1.391 . S
C348 C349 1.400 1_655 S
C349 C343 1.497 . S
C349 C348 1.400 1_455 S
C349 C350 1.398 . S
C350 H338 0.950 . S
C350 C349 1.398 . S
C350 C351 1.391 . S
C351 H339 0.950 . S
C351 C347 1.393 . S
C351 C350 1.391 . S
H352 C360 0.950 . S
H353 C365 0.950 . S
H354 C362 0.950 . S
H355 C364 0.950 . S
H356 C366 0.942 1_455 S
H357 C368 0.950 1_455 S
H358 C370 0.950 . S
H359 C371 0.950 . S
C360 H352 0.950 . S
C360 C361 1.386 1_655 S
C360 C362 1.391 . S
C361 C360 1.386 1_455 S
C361 C365 1.393 . S
C362 H354 0.950 . S
C362 C360 1.391 . S
C362 C363 1.400 . S
C363 C362 1.400 . S
C363 C364 1.398 1_655 S
C363 C369 1.491 . S
C364 H355 0.950 . S
C364 C363 1.398 1_455 S
C364 C365 1.391 . S
C365 H353 0.950 . S
C365 C361 1.393 . S
C365 C364 1.391 . S
C366 H356 0.942 1_655 S
C366 C367 1.386 . S
C366 C368 1.391 . S
C367 C366 1.386 . S
C367 C371 1.393 . S
C368 H357 0.950 1_655 S
C368 C366 1.391 . S
C368 C369 1.400 . S
C369 C363 1.491 . S
C369 C368 1.400 . S
C369 C370 1.398 . S
C370 H358 0.950 . S
C370 C369 1.398 . S
C370 C371 1.391 . S
C371 H359 0.950 . S
C371 C367 1.393 . S
C371 C370 1.391 . S
H372 C380 0.950 . S
H373 C385 0.950 . S
H374 C382 0.950 . S
H375 C384 0.950 . S
H376 C386 0.950 . S
H377 C388 0.950 . S
H378 C390 0.950 . S
H379 C391 0.950 1_565 S
C380 H372 0.950 . S
C380 C381 1.386 . S
C380 C382 1.391 . S
C381 C380 1.386 . S
C381 C385 1.393 . S
C382 H374 0.950 . S
C382 C380 1.391 . S
C382 C383 1.400 . S
C383 C382 1.400 . S
C383 C384 1.398 . S
C383 C389 1.491 . S
C384 H375 0.950 . S
C384 C383 1.398 . S
C384 C385 1.391 . S
C385 H373 0.950 . S
C385 C381 1.393 . S
C385 C384 1.391 . S
C386 H376 0.950 . S
C386 C387 1.386 . S
C386 C388 1.391 . S
C387 C386 1.386 . S
C387 C391 1.393 . S
C388 H377 0.950 . S
C388 C386 1.391 . S
C388 C389 1.400 . S
C389 C383 1.491 . S
C389 C388 1.400 . S
C389 C390 1.398 . S
C390 H378 0.950 . S
C390 C389 1.398 . S
C390 C391 1.391 . S
C391 H379 0.950 1_545 S
C391 C387 1.393 . S
C391 C390 1.391 . S
H392 C400 0.950 . S
H393 C405 0.950 . S
H394 C402 0.950 . S
H395 C404 0.950 . S
H396 C406 0.950 . S
H397 C408 0.950 . S
H398 C410 0.950 . S
H399 C411 0.950 . S
C400 H392 0.950 . S
C400 C401 1.386 . S
C400 C402 1.391 . S
C401 C400 1.386 . S
C401 C405 1.393 . S
C402 H394 0.950 . S
C402 C400 1.391 . S
C402 C403 1.400 . S
C403 C402 1.400 . S
C403 C404 1.398 . S
C403 C409 1.491 . S
C404 H395 0.950 . S
C404 C403 1.398 . S
C404 C405 1.391 . S
C405 H393 0.950 . S
C405 C401 1.393 . S
C405 C404 1.391 . S
C406 H396 0.950 . S
C406 C407 1.386 . S
C406 C408 1.391 . S
C407 C406 1.386 . S
C407 C411 1.393 . S
C408 H397 0.950 . S
C408 C406 1.391 . S
C408 C409 1.400 . S
C409 C403 1.491 . S
C409 C408 1.400 . S
C409 C410 1.398 . S
C410 H398 0.950 . S
C410 C409 1.398 . S
C410 C411 1.391 . S
C411 H399 0.950 . S
C411 C407 1.393 . S
C411 C410 1.391 . S
H412 C420 0.950 . S
H413 C425 0.950 . S
H414 C422 0.950 . S
H415 C424 0.950 . S
H416 C426 0.950 . S
H417 C428 0.950 . S
H418 C430 0.950 . S
H419 C431 0.950 . S
C420 H412 0.950 . S
C420 C421 1.386 . S
C420 C422 1.391 . S
C421 C420 1.386 . S
C421 C425 1.393 . S
C422 H414 0.950 . S
C422 C420 1.391 . S
C422 C423 1.400 . S
C423 C422 1.400 . S
C423 C424 1.398 . S
C423 C429 1.491 . S
C424 H415 0.950 . S
C424 C423 1.398 . S
C424 C425 1.391 . S
C425 H413 0.950 . S
C425 C421 1.393 . S
C425 C424 1.391 . S
C426 H416 0.950 . S
C426 C427 1.386 . S
C426 C428 1.391 . S
C427 C426 1.386 . S
C427 C431 1.393 . S
C428 H417 0.950 . S
C428 C426 1.391 . S
C428 C429 1.400 . S
C429 C423 1.491 . S
C429 C428 1.400 . S
C429 C430 1.398 . S
C430 H418 0.950 . S
C430 C429 1.398 . S
C430 C431 1.391 . S
C431 H419 0.950 . S
C431 C427 1.393 . S
C431 C430 1.391 . S
H432 C440 0.950 . S
H433 C445 0.950 . S
H434 C442 0.950 . S
H435 C444 0.950 . S
H436 C446 0.950 . S
H437 C448 0.950 . S
H438 C450 0.950 1_554 S
H439 C451 0.950 . S
C440 H432 0.950 . S
C440 C441 1.386 1_455 S
C440 C442 1.391 . S
C441 C440 1.386 1_655 S
C441 C445 1.393 1_554 S
C442 H434 0.950 . S
C442 C440 1.391 . S
C442 C443 1.400 1_554 S
C443 C442 1.400 1_556 S
C443 C444 1.398 1_455 S
C443 C449 1.491 . S
C444 H435 0.950 . S
C444 C443 1.398 1_655 S
C444 C445 1.391 . S
C445 H433 0.950 . S
C445 C441 1.393 1_556 S
C445 C444 1.391 . S
C446 H436 0.950 . S
C446 C447 1.386 1_655 S
C446 C448 1.391 . S
C447 C446 1.386 1_455 S
C447 C451 1.393 . S
C448 H437 0.950 . S
C448 C446 1.391 . S
C448 C449 1.400 1_655 S
C449 C443 1.491 . S
C449 C448 1.400 1_455 S
C449 C450 1.398 . S
C450 H438 0.950 1_556 S
C450 C449 1.398 . S
C450 C451 1.391 . S
C451 H439 0.950 . S
C451 C447 1.393 . S
C451 C450 1.391 . S
H452 C460 0.950 . S
H453 C465 0.950 . S
H454 C462 0.950 . S
H455 C464 0.950 . S
H456 C466 0.950 . S
H457 C468 0.950 . S
H458 C470 0.950 . S
H459 C471 0.950 . S
C460 H452 0.950 . S
C460 C461 1.386 . S
C460 C462 1.391 . S
C461 C460 1.386 . S
C461 C465 1.393 1_554 S
C462 H454 0.950 . S
C462 C460 1.391 . S
C462 C463 1.400 1_554 S
C463 C462 1.400 1_556 S
C463 C464 1.398 . S
C463 C469 1.491 . S
C464 H455 0.950 . S
C464 C463 1.398 . S
C464 C465 1.391 . S
C465 H453 0.950 . S
C465 C461 1.393 1_556 S
C465 C464 1.391 . S
C466 H456 0.950 . S
C466 C467 1.386 1_565 S
C466 C468 1.391 . S
C467 C466 1.386 1_545 S
C467 C471 1.393 . S
C468 H457 0.950 . S
C468 C466 1.391 . S
C468 C469 1.400 . S
C469 C463 1.491 . S
C469 C468 1.400 . S
C469 C470 1.398 1_565 S
C470 H458 0.950 . S
C470 C469 1.398 1_545 S
C470 C471 1.391 . S
C471 H459 0.950 . S
C471 C467 1.393 . S
C471 C470 1.391 . S
H472 C480 0.950 . S
H473 C485 0.950 . S
H474 C482 0.950 . S
H475 C484 0.950 . S
H476 C486 0.950 . S
H477 C488 0.950 . S
H478 C490 0.950 . S
H479 C491 0.950 . S
C480 H472 0.950 . S
C480 C481 1.386 . S
C480 C482 1.391 . S
C481 C480 1.386 . S
C481 C485 1.393 . S
C482 H474 0.950 . S
C482 C480 1.391 . S
C482 C483 1.400 1_554 S
C483 C482 1.400 1_556 S
C483 C484 1.398 . S
C483 C489 1.491 . S
C484 H475 0.950 . S
C484 C483 1.398 . S
C484 C485 1.391 1_556 S
C485 H473 0.950 . S
C485 C481 1.393 . S
C485 C484 1.391 1_554 S
C486 H476 0.950 . S
C486 C487 1.386 . S
C486 C488 1.391 . S
C487 C486 1.386 . S
C487 C491 1.393 . S
C488 H477 0.950 . S
C488 C486 1.391 . S
C488 C489 1.400 . S
C489 C483 1.491 . S
C489 C488 1.400 . S
C489 C490 1.398 . S
C490 H478 0.950 . S
C490 C489 1.398 . S
C490 C491 1.391 . S
C491 H479 0.950 . S
C491 C487 1.393 . S
C491 C490 1.391 . S
H492 C500 0.950 . S
H493 C505 0.950 1_556 S
H494 C502 0.950 . S
H495 C504 0.950 . S
H496 C506 0.950 . S
H497 C508 0.950 . S
H498 C510 0.950 1_554 S
H499 C511 0.950 . S
C500 H492 0.950 . S
C500 C501 1.386 . S
C500 C502 1.391 . S
C501 C500 1.386 . S
C501 C505 1.393 . S
C502 H494 0.950 . S
C502 C500 1.391 . S
C502 C503 1.400 1_554 S
C503 C502 1.400 1_556 S
C503 C504 1.398 . S
C503 C509 1.491 . S
C504 H495 0.950 . S
C504 C503 1.398 . S
C504 C505 1.391 1_556 S
C505 H493 0.950 1_554 S
C505 C501 1.393 . S
C505 C504 1.391 1_554 S
C506 H496 0.950 . S
C506 C507 1.386 . S
C506 C508 1.391 . S
C507 C506 1.386 . S
C507 C511 1.393 . S
C508 H497 0.950 . S
C508 C506 1.391 . S
C508 C509 1.400 . S
C509 C503 1.491 . S
C509 C508 1.400 . S
C509 C510 1.398 . S
C510 H498 0.950 1_556 S
C510 C509 1.398 . S
C510 C511 1.391 . S
C511 H499 0.950 . S
C511 C507 1.393 . S
C511 C510 1.391 . S
H512 C520 0.950 . S
H513 C525 0.950 . S
H514 C522 0.950 . S
H515 C524 0.950 . S
H516 C526 0.950 . S
H517 C528 0.950 . S
H518 C530 0.950 . S
H519 C531 0.950 . S
C520 H512 0.950 . S
C520 C521 1.386 . S
C520 C522 1.391 . S
C521 C520 1.386 . S
C521 C525 1.393 1_455 S
C522 H514 0.950 . S
C522 C520 1.391 . S
C522 C523 1.400 . S
C523 C522 1.400 . S
C523 C524 1.398 1_455 S
C523 C529 1.491 . S
C524 H515 0.950 . S
C524 C523 1.398 1_655 S
C524 C525 1.391 . S
C525 H513 0.950 . S
C525 C521 1.393 1_655 S
C525 C524 1.391 . S
C526 H516 0.950 . S
C526 C527 1.386 1_655 S
C526 C528 1.391 . S
C527 C526 1.386 1_455 S
C527 C531 1.393 . S
C528 H517 0.950 . S
C528 C526 1.391 . S
C528 C529 1.400 1_655 S
C529 C523 1.491 . S
C529 C528 1.400 1_455 S
C529 C530 1.398 . S
C530 H518 0.950 . S
C530 C529 1.398 . S
C530 C531 1.391 . S
C531 H519 0.950 . S
C531 C527 1.393 . S
C531 C530 1.391 . S
H532 C540 0.950 . S
H533 C545 0.950 . S
H534 C542 0.950 . S
H535 C544 0.950 . S
H536 C546 0.950 . S
H537 C548 0.950 . S
H538 C550 0.950 . S
H539 C551 0.950 . S
C540 H532 0.950 . S
C540 C541 1.386 . S
C540 C542 1.391 . S
C541 C540 1.386 . S
C541 C545 1.393 . S
C542 H534 0.950 . S
C542 C540 1.391 . S
C542 C543 1.400 . S
C543 C542 1.400 . S
C543 C544 1.398 . S
C543 C549 1.491 . S
C544 H535 0.950 . S
C544 C543 1.398 . S
C544 C545 1.391 . S
C545 H533 0.950 . S
C545 C541 1.393 . S
C545 C544 1.391 . S
C546 H536 0.950 . S
C546 C547 1.386 . S
C546 C548 1.391 . S
C547 C546 1.386 . S
C547 C551 1.393 . S
C548 H537 0.950 . S
C548 C546 1.391 . S
C548 C549 1.400 . S
C549 C543 1.491 . S
C549 C548 1.400 . S
C549 C550 1.398 . S
C550 H538 0.950 . S
C550 C549 1.398 . S
C550 C551 1.391 . S
C551 H539 0.950 . S
C551 C547 1.393 . S
C551 C550 1.391 . S
H552 C560 0.950 . S
H553 C565 0.950 . S
H554 C562 0.950 . S
H555 C564 0.950 . S
H556 C566 0.950 1_556 S
H557 C568 0.950 . S
H558 C570 0.950 . S
H559 C571 0.950 1_556 S
C560 H552 0.950 . S
C560 C561 1.386 . S
C560 C562 1.391 . S
C561 C560 1.386 . S
C561 C565 1.393 . S
C562 H554 0.950 . S
C562 C560 1.391 . S
C562 C563 1.400 . S
C563 C562 1.400 . S
C563 C564 1.398 . S
C563 C569 1.491 . S
C564 H555 0.950 . S
C564 C563 1.398 . S
C564 C565 1.391 . S
C565 H553 0.950 . S
C565 C561 1.393 . S
C565 C564 1.391 . S
C566 H556 0.950 1_554 S
C566 C567 1.386 1_554 S
C566 C568 1.391 . S
C567 C566 1.386 1_556 S
C567 C571 1.393 1_556 S
C568 H557 0.950 . S
C568 C566 1.391 . S
C568 C569 1.400 . S
C569 C563 1.491 . S
C569 C568 1.400 . S
C569 C570 1.398 . S
C570 H558 0.950 . S
C570 C569 1.398 . S
C570 C571 1.391 . S
C571 H559 0.950 1_554 S
C571 C567 1.393 1_554 S
C571 C570 1.391 . S
H572 C580 0.950 . S
H573 C585 0.950 . S
H574 C582 0.950 . S
H575 C584 0.950 . S
H576 C586 0.950 . S
H577 C588 0.950 . S
H578 C590 0.950 . S
H579 C591 0.950 . S
C580 H572 0.950 . S
C580 C581 1.386 . S
C580 C582 1.391 . S
C581 C580 1.386 . S
C581 C585 1.393 . S
C582 H574 0.950 . S
C582 C580 1.391 . S
C582 C583 1.400 . S
C583 C582 1.400 . S
C583 C584 1.398 . S
C583 C589 1.491 . S
C584 H575 0.950 . S
C584 C583 1.398 . S
C584 C585 1.391 . S
C585 H573 0.950 . S
C585 C581 1.393 . S
C585 C584 1.391 . S
C586 H576 0.950 . S
C586 C587 1.386 . S
C586 C588 1.391 1_556 S
C587 C586 1.386 . S
C587 C591 1.393 1_556 S
C588 H577 0.950 . S
C588 C586 1.391 1_554 S
C588 C589 1.400 . S
C589 C583 1.491 . S
C589 C588 1.400 . S
C589 C590 1.398 . S
C590 H578 0.950 . S
C590 C589 1.398 . S
C590 C591 1.391 . S
C591 H579 0.950 . S
C591 C587 1.393 1_554 S
C591 C590 1.391 . S
H592 C600 0.950 . S
H593 C605 0.950 . S
H594 C602 0.950 . S
H595 C604 0.950 . S
H596 C606 0.950 1_455 S
H597 C608 0.950 . S
H598 C610 0.950 . S
H599 C611 0.950 . S
C600 H592 0.950 . S
C600 C601 1.387 . S
C600 C602 1.391 . S
C601 C600 1.387 . S
C601 C605 1.391 1_655 S
C602 H594 0.950 . S
C602 C600 1.391 . S
C602 C603 1.400 . S
C603 C602 1.400 . S
C603 C604 1.398 1_655 S
C603 C609 1.491 . S
C604 H595 0.950 . S
C604 C603 1.398 1_455 S
C604 C605 1.391 . S
C605 H593 0.950 . S
C605 C601 1.391 1_455 S
C605 C604 1.391 . S
C606 H596 0.950 1_655 S
C606 C607 1.386 . S
C606 C608 1.391 1_655 S
C607 C606 1.386 . S
C607 C611 1.393 . S
C608 H597 0.950 . S
C608 C606 1.391 1_455 S
C608 C609 1.400 1_455 S
C609 C603 1.491 . S
C609 C608 1.400 1_655 S
C609 C610 1.398 . S
C610 H598 0.950 . S
C610 C609 1.398 . S
C610 C611 1.391 . S
C611 H599 0.950 . S
C611 C607 1.393 . S
C611 C610 1.391 . S
H612 C620 0.950 . S
H613 C625 0.950 . S
H614 C622 0.950 . S
H615 C624 0.950 . S
H616 C626 0.950 . S
H617 C628 0.950 . S
H618 C630 0.950 . S
H619 C631 0.950 . S
C620 H612 0.950 . S
C620 C621 1.386 . S
C620 C622 1.391 . S
C621 C620 1.386 . S
C621 C625 1.393 . S
C622 H614 0.950 . S
C622 C620 1.391 . S
C622 C623 1.400 . S
C623 C622 1.400 . S
C623 C624 1.398 . S
C623 C629 1.491 . S
C624 H615 0.950 . S
C624 C623 1.398 . S
C624 C625 1.391 . S
C625 H613 0.950 . S
C625 C621 1.393 . S
C625 C624 1.391 . S
C626 H616 0.950 . S
C626 C627 1.386 . S
C626 C628 1.391 . S
C627 C626 1.386 . S
C627 C631 1.393 . S
C628 H617 0.950 . S
C628 C626 1.391 . S
C628 C629 1.400 . S
C629 C623 1.491 . S
C629 C628 1.400 . S
C629 C630 1.398 . S
C630 H618 0.950 . S
C630 C629 1.398 . S
C630 C631 1.391 . S
C631 H619 0.950 . S
C631 C627 1.393 . S
C631 C630 1.391 . S
H632 C640 0.950 . S
H633 C645 0.950 . S
H634 C642 0.950 . S
H635 C644 0.950 . S
H636 C646 0.950 . S
H637 C648 0.950 . S
H638 C650 0.950 . S
H639 C651 0.950 . S
C640 H632 0.950 . S
C640 C641 1.386 . S
C640 C642 1.391 . S
C641 C640 1.386 . S
C641 C645 1.393 . S
C642 H634 0.950 . S
C642 C640 1.391 . S
C642 C643 1.400 . S
C643 C642 1.400 . S
C643 C644 1.398 . S
C643 C649 1.491 . S
C644 H635 0.950 . S
C644 C643 1.398 . S
C644 C645 1.391 . S
C645 H633 0.950 . S
C645 C641 1.393 . S
C645 C644 1.391 . S
C646 H636 0.950 . S
C646 C647 1.386 . S
C646 C648 1.391 . S
C647 C646 1.386 . S
C647 C651 1.393 . S
C648 H637 0.950 . S
C648 C646 1.391 . S
C648 C649 1.400 . S
C649 C643 1.491 . S
C649 C648 1.400 . S
C649 C650 1.398 . S
C650 H638 0.950 . S
C650 C649 1.398 . S
C650 C651 1.391 . S
C651 H639 0.950 . S
C651 C647 1.393 . S
C651 C650 1.391 . S
H652 C660 0.950 . S
H653 C665 0.950 . S
H654 C662 0.950 . S
H655 C664 0.950 . S
H656 C666 0.950 . S
H657 C668 0.950 . S
H658 C670 0.950 . S
H659 C671 0.950 . S
C660 H652 0.950 . S
C660 C661 1.386 . S
C660 C662 1.391 . S
C661 C660 1.386 . S
C661 C665 1.393 . S
C662 H654 0.950 . S
C662 C660 1.391 . S
C662 C663 1.400 . S
C663 C662 1.400 . S
C663 C664 1.398 . S
C663 C669 1.491 . S
C664 H655 0.950 . S
C664 C663 1.398 . S
C664 C665 1.391 . S
C665 H653 0.950 . S
C665 C661 1.393 . S
C665 C664 1.391 . S
C666 H656 0.950 . S
C666 C667 1.386 . S
C666 C668 1.391 . S
C667 C666 1.386 . S
C667 C671 1.393 . S
C668 H657 0.950 . S
C668 C666 1.391 . S
C668 C669 1.400 . S
C669 C663 1.491 . S
C669 C668 1.400 . S
C669 C670 1.398 . S
C670 H658 0.950 . S
C670 C669 1.398 . S
C670 C671 1.391 . S
C671 H659 0.950 . S
C671 C667 1.393 . S
C671 C670 1.391 . S
C201 C61 1.683 . S
C207 C82 1.702 . S
C227 C112 1.708 . S
C221 C70 1.696 . S
C247 N146 1.481 . S
C241 C43 1.471 . S
C267 N176 1.226 . S
C261 C52 1.258 . S
C287 C73 1.698 1_565 S
C281 C25 1.681 . S
C301 C34 1.702 . S
C307 C103 1.708 . S
C321 C7 1.490 . S
C327 N138 1.465 . S
C341 C16 1.287 1_455 S
C347 N168 1.254 . S
C367 C88 0.353 . S
C361 C50 0.319 1_455 S
C387 C118 0.538 . S
C381 C59 0.558 . S
C407 C159 0.767 . S
C401 C67 0.759 . S
C421 C41 0.594 . S
C427 C189 0.551 . S
C441 C14 0.336 . S
C447 C99 0.292 . S
C467 C129 0.553 . S
C461 C23 0.603 . S
C487 C148 0.761 . S
C481 C31 0.770 . S
C501 C5 0.518 . S
C507 C178 0.510 . S
C521 C49 1.334 1_455 S
C527 N78 1.348 . S
C541 C58 1.469 . S
C547 N108 1.453 . S
C567 C133 1.651 . S
C561 C68 1.599 . S
C587 C163 1.767 . S
C581 C40 1.703 . S
C601 C13 1.352 . S
C607 N86 1.352 . S
C627 N116 1.477 . S
C621 C22 1.457 . S
C647 C142 1.651 . S
C641 C32 1.604 . S
C661 C4 1.723 . S
C667 C172 1.771 . S
