# Generated by pormake.
# Topology nom, (4,4)-cn, num edge types: 1
# Building blocks:
#     Node 0, Type 0, BuildingBlock: KUFVIS_clean_linker_0, # of connection points: 4
#     Node 1, Type 0, BuildingBlock: KUFVIS_clean_linker_0, # of connection points: 4
#     Node 2, Type 0, BuildingBlock: KUFVIS_clean_linker_0, # of connection points: 4
#     Node 3, Type 0, BuildingBlock: KUFVIS_clean_linker_0, # of connection points: 4
#     Node 4, Type 0, BuildingBlock: KUFVIS_clean_linker_0, # of connection points: 4
#     Node 5, Type 0, BuildingBlock: KUFVIS_clean_linker_0, # of connection points: 4
#     Node 6, Type 1, BuildingBlock: QUQFOY_clean_sbu_1, # of connection points: 4
#     Node 7, Type 1, BuildingBlock: QUQFOY_clean_sbu_1, # of connection points: 4
#     Node 8, Type 1, BuildingBlock: QUQFOY_clean_sbu_1, # of connection points: 4
#     Node 9, Type 1, BuildingBlock: QUQFOY_clean_sbu_1, # of connection points: 4
#     Node 10, Type 1, BuildingBlock: QUQFOY_clean_sbu_1, # of connection points: 4
#     Node 11, Type 1, BuildingBlock: QUQFOY_clean_sbu_1, # of connection points: 4
#     Edge 12, Type (0, 1), BuildingBlock: OJICUG_clean_linker_0, # of connection points: 2
#     Edge 13, Type (0, 1), BuildingBlock: OJICUG_clean_linker_0, # of connection points: 2
#     Edge 14, Type (0, 1), BuildingBlock: OJICUG_clean_linker_0, # of connection points: 2
#     Edge 15, Type (0, 1), BuildingBlock: OJICUG_clean_linker_0, # of connection points: 2
#     Edge 16, Type (0, 1), BuildingBlock: OJICUG_clean_linker_0, # of connection points: 2
#     Edge 17, Type (0, 1), BuildingBlock: OJICUG_clean_linker_0, # of connection points: 2
#     Edge 18, Type (0, 1), BuildingBlock: OJICUG_clean_linker_0, # of connection points: 2
#     Edge 19, Type (0, 1), BuildingBlock: OJICUG_clean_linker_0, # of connection points: 2
#     Edge 20, Type (0, 1), BuildingBlock: OJICUG_clean_linker_0, # of connection points: 2
#     Edge 21, Type (0, 1), BuildingBlock: OJICUG_clean_linker_0, # of connection points: 2
#     Edge 22, Type (0, 1), BuildingBlock: OJICUG_clean_linker_0, # of connection points: 2
#     Edge 23, Type (0, 1), BuildingBlock: OJICUG_clean_linker_0, # of connection points: 2
#     Edge 24, Type (0, 1), BuildingBlock: OJICUG_clean_linker_0, # of connection points: 2
#     Edge 25, Type (0, 1), BuildingBlock: OJICUG_clean_linker_0, # of connection points: 2
#     Edge 26, Type (0, 1), BuildingBlock: OJICUG_clean_linker_0, # of connection points: 2
#     Edge 27, Type (0, 1), BuildingBlock: OJICUG_clean_linker_0, # of connection points: 2
#     Edge 28, Type (0, 1), BuildingBlock: OJICUG_clean_linker_0, # of connection points: 2
#     Edge 29, Type (0, 1), BuildingBlock: OJICUG_clean_linker_0, # of connection points: 2
#     Edge 30, Type (0, 1), BuildingBlock: OJICUG_clean_linker_0, # of connection points: 2
#     Edge 31, Type (0, 1), BuildingBlock: OJICUG_clean_linker_0, # of connection points: 2
#     Edge 32, Type (0, 1), BuildingBlock: OJICUG_clean_linker_0, # of connection points: 2
#     Edge 33, Type (0, 1), BuildingBlock: OJICUG_clean_linker_0, # of connection points: 2
#     Edge 34, Type (0, 1), BuildingBlock: OJICUG_clean_linker_0, # of connection points: 2
#     Edge 35, Type (0, 1), BuildingBlock: OJICUG_clean_linker_0, # of connection points: 2
# Relax obj value: 0.004
# Max RMSD: 0.084
# Mean RMSD: 0.069
data_MOF--net-nom--node1-QUQFOY_clean_sbu_1--node2-KUFVIS_clean_linker_0--edge1-OJICUG_clean_linker_0
_symmetry_space_group_name_H-M    P1
_symmetry_Int_Tables_number       1
_symmetry_cell_setting            triclinic
loop_
_symmetry_equiv_pos_as_xyz
'x, y, z'
_cell_length_a     32.523705
_cell_length_b     32.552236
_cell_length_c     38.223585
_cell_angle_alpha  89.987501
_cell_angle_beta   90.005051
_cell_angle_gamma 119.99974
loop_
_atom_site_label
_atom_site_type_symbol
_atom_site_fract_x
_atom_site_fract_y
_atom_site_fract_z
_atom_type_partial_charge
H0 H 0.26166 0.66894 0.27408 0.0
H1 H 0.15866 0.64311 0.19434 0.0
H2 H 0.1139 0.58239 0.29767 0.0
H3 H 1.04952 0.58864 0.28245 0.0
H4 H 0.9466 0.51096 0.20284 0.0
H5 H 0.0944 0.57235 0.17927 0.0
C6 C 0.22496 0.65142 0.26545 0.0
C7 C 0.18881 0.62545 0.28953 0.0
C8 C 0.21432 0.65778 0.23111 0.0
C9 C 0.16658 0.637 0.22071 0.0
C10 C 0.12948 0.60864 0.24424 0.0
C11 C 0.1413 0.60371 0.27889 0.0
C12 C 1.07876 0.58321 0.23263 0.0
C13 C 1.04162 0.57448 0.25613 0.0
C14 C 0.99389 0.5474 0.24574 0.0
C15 C 0.98329 0.53024 0.21145 0.0
C16 C 1.01946 0.54037 0.1874 0.0
C17 C 1.06697 0.56628 0.19802 0.0
H18 H 0.6676 0.23175 0.44059 0.0
H19 H 0.59043 0.12878 0.36092 0.0
H20 H 0.60662 0.08415 0.46423 0.0
H21 H 0.53591 1.01985 0.44909 0.0
H22 H 0.51034 0.91691 0.36948 0.0
H23 H 0.59692 0.06454 0.34584 0.0
C24 C 0.64847 0.19508 0.43198 0.0
C25 C 0.63838 0.15899 0.45607 0.0
C26 C 0.63143 0.18443 0.39766 0.0
C27 C 0.60452 0.13672 0.38727 0.0
C28 C 0.59584 0.09967 0.41081 0.0
C29 C 0.61265 0.11151 0.44545 0.0
C30 C 0.57053 1.04899 0.39923 0.0
C31 C 0.54211 1.01192 0.42276 0.0
C32 C 0.52136 0.96422 0.41239 0.0
C33 C 0.52784 0.95358 0.37809 0.0
C34 C 0.55388 0.98968 0.35401 0.0
C35 C 0.57557 1.03716 0.36462 0.0
H36 H 0.66682 0.47954 0.53608 0.0
H37 H 0.58965 0.50537 0.61578 0.0
H38 H 0.60577 0.56617 0.51247 0.0
H39 H 0.53514 0.55996 0.52767 0.0
H40 H 0.50997 0.63761 0.60731 0.0
H41 H 0.59626 0.57614 0.63088 0.0
C42 C 0.64766 0.49706 0.5447 0.0
C43 C 0.63755 0.52307 0.52062 0.0
C44 C 0.63063 0.49069 0.57903 0.0
C45 C 0.60371 0.51149 0.58942 0.0
C46 C 0.59502 0.53988 0.56589 0.0
C47 C 0.61181 0.54483 0.53125 0.0
C48 C 0.56979 0.56533 0.5775 0.0
C49 C 0.54141 0.5741 0.554 0.0
C50 C 0.5208 0.60119 0.56439 0.0
C51 C 0.52736 0.61833 0.59869 0.0
C52 C 0.55336 0.60815 0.62275 0.0
C53 C 0.57492 0.58223 0.61212 0.0
H54 H 0.2616 0.63793 0.70285 0.0
H55 H 0.15867 0.5603 0.78248 0.0
H56 H 0.11381 0.5766 0.67928 0.0
H57 H 1.04956 0.50582 0.69436 0.0
H58 H 0.94653 0.47988 0.77407 0.0
H59 H 0.09427 0.56654 0.79768 0.0
C60 C 0.22491 0.61868 0.71147 0.0
C61 C 0.18874 0.60855 0.68741 0.0
C62 C 0.2143 0.60152 0.74577 0.0
C63 C 0.16657 0.57446 0.75615 0.0
C64 C 0.12944 0.56574 0.73265 0.0
C65 C 0.14124 0.58266 0.69804 0.0
C66 C 1.07872 0.54029 0.74425 0.0
C67 C 1.04163 0.51192 0.72072 0.0
C68 C 0.99388 0.49109 0.73112 0.0
C69 C 0.98323 0.49743 0.76545 0.0
C70 C 1.01936 0.52342 0.78953 0.0
C71 C 1.06687 0.5452 0.7789 0.0
H72 H 0.54103 0.91675 -0.05939 0.0
H73 H 0.61826 1.01973 0.86094 0.0
H74 H 0.6021 0.06436 -0.03576 0.0
H75 H 0.67278 0.12867 -0.05091 0.0
H76 H 0.69827 0.23161 0.86946 0.0
H77 H 0.61179 0.08398 0.84584 0.0
C78 C 0.56019 0.95342 -0.068 0.0
C79 C 0.5703 0.98952 -0.04392 0.0
C80 C 0.57724 0.96408 0.89768 0.0
C81 C 0.60418 1.01179 0.88729 0.0
C82 C 0.61287 1.04884 0.91082 0.0
C83 C 0.59606 1.03699 -0.05454 0.0
C84 C 0.63818 0.09953 0.89923 0.0
C85 C 0.66657 0.1366 -0.07724 0.0
C86 C 0.68728 0.1843 0.91238 0.0
C87 C 0.6808 0.19494 0.87807 0.0
C88 C 0.65479 0.15883 0.854 0.0
C89 C 0.63313 0.11135 0.86461 0.0
H90 H 0.54109 0.66871 0.03608 0.0
H91 H 0.61821 0.64277 0.11577 0.0
H92 H 0.60203 0.582 0.01247 0.0
H93 H 0.67267 0.58819 0.02765 0.0
H94 H 0.69792 0.51058 0.1073 0.0
H95 H 0.61158 0.57199 0.13087 0.0
C96 C 0.56022 0.65115 0.0447 0.0
C97 C 0.57031 0.62513 0.02062 0.0
C98 C 0.57725 0.6575 0.07903 0.0
C99 C 0.60414 0.63666 0.08942 0.0
C100 C 0.6128 0.60827 0.06589 0.0
C101 C 0.59602 0.60334 0.03125 0.0
C102 C 0.63804 0.5828 0.07749 0.0
C103 C 0.66641 0.57405 0.05399 0.0
C104 C 0.68704 0.54697 0.06438 0.0
C105 C 0.6805 0.52984 0.09868 0.0
C106 C 0.6545 0.54 0.12274 0.0
C107 C 0.63291 0.5659 0.11211 0.0
O108 O 0.65496 0.46069 0.36517 0.0
Cd109 Cd 0.66607 0.42865 0.32239 0.0
Cd110 Cd 0.74903 0.51169 0.32099 0.0
O111 O 0.72868 0.5197 0.37022 0.0
O112 O 0.6215 0.35901 0.32717 0.0
O113 O 0.69967 0.39201 0.33036 0.0
C114 C 0.65823 0.35437 0.33209 0.0
C115 C 0.82352 0.5199 0.31128 0.0
C116 C 0.68655 0.49628 0.38191 0.0
C117 C 0.68126 0.49103 0.26148 0.0
O118 O 0.71683 0.52266 0.27822 0.0
O119 O 0.65793 0.44893 0.27316 0.0
O120 O 0.81868 0.55647 0.31621 0.0
O121 O 0.78597 0.4784 0.313 0.0
O122 O 0.26851 0.626 0.53196 0.0
Cd123 Cd 0.31169 0.637 0.4892 0.0
Cd124 Cd 0.31173 0.71998 0.48778 0.0
O125 O 0.28332 0.69971 0.53701 0.0
O126 O 0.33652 0.59222 0.49398 0.0
O127 O 0.38196 0.67028 0.49718 0.0
C128 C 0.37797 0.62878 0.4989 0.0
C129 C 0.37819 0.79428 0.47805 0.0
C130 C 0.26456 0.65761 0.54869 0.0
C131 C 0.26458 0.65233 0.42828 0.0
O132 O 0.26855 0.68789 0.44501 0.0
O133 O 0.28331 0.62895 0.43997 0.0
O134 O 0.33681 0.7896 0.48297 0.0
O135 O 0.382 0.75666 0.47979 0.0
O136 O 0.71718 0.23866 0.69855 0.0
Cd137 Cd 0.74931 0.28184 0.65579 0.0
Cd138 Cd 0.66614 0.28162 0.65432 0.0
O139 O 0.65806 0.25323 0.70356 0.0
O140 O 0.81898 0.30683 0.66059 0.0
O141 O 0.78608 0.35205 0.66378 0.0
C142 C 0.82371 0.34819 0.66552 0.0
C143 C 0.658 0.34789 0.64461 0.0
C144 C 0.68152 0.2346 0.71526 0.0
C145 C 0.68697 0.23469 0.59483 0.0
O146 O 0.65526 0.23854 0.61154 0.0
O147 O 0.72909 0.25349 0.60655 0.0
O148 O 0.62137 0.30648 0.64951 0.0
O149 O 0.69952 0.35183 0.64636 0.0
O150 O 0.55315 0.68763 0.86512 0.0
Cd151 Cd 0.54214 0.71976 0.82233 0.0
Cd152 Cd 0.45905 0.63684 0.82095 0.0
O153 O 0.47936 0.62877 0.87019 0.0
O154 O 0.58681 0.78937 0.82711 0.0
O155 O 0.50865 0.75651 0.83031 0.0
C156 C 0.55013 0.79409 0.83204 0.0
C157 C 0.38461 0.62877 0.81125 0.0
C158 C 0.52148 0.6521 0.88187 0.0
C159 C 0.52678 0.65733 0.76145 0.0
O160 O 0.49117 0.62577 0.7782 0.0
O161 O 0.55021 0.69943 0.77311 0.0
O162 O 0.38939 0.59216 0.81619 0.0
O163 O 0.42221 0.67023 0.81295 0.0
O164 O 0.93973 0.46086 -0.05496 0.0
Cd165 Cd 0.89657 0.42868 -0.01219 0.0
Cd166 Cd 0.89636 0.51154 -0.0108 0.0
O167 O 0.92475 0.51964 -0.06004 0.0
O168 O 0.87162 0.35908 -0.01699 0.0
O169 O 0.82631 0.39189 -0.02019 0.0
C170 C 0.83021 0.35432 -0.02193 0.0
C171 C 0.83 0.51963 -0.00111 0.0
C172 C 0.94358 0.49637 -0.07172 0.0
C173 C 0.94363 0.4911 0.0487 0.0
O174 O 0.93959 0.52265 0.03195 0.0
O175 O 0.92495 0.449 0.03704 0.0
O176 O 0.87143 0.55623 -0.00605 0.0
O177 O 0.8261 0.47816 -0.0028 0.0
O178 O 0.55316 0.90989 0.11158 0.0
Cd179 Cd 0.54216 0.86676 0.15437 0.0
Cd180 Cd 0.45911 0.86678 0.15582 0.0
O181 O 0.47939 0.89512 0.10657 0.0
O182 O 0.58683 0.84178 0.14956 0.0
O183 O 0.50867 0.79655 0.1464 0.0
C184 C 0.55015 0.80041 0.14465 0.0
C185 C 0.38464 0.80052 0.16555 0.0
C186 C 0.5215 0.91383 0.09486 0.0
C187 C 0.52693 0.91388 0.21529 0.0
O188 O 0.49132 0.90993 0.19858 0.0
O189 O 0.5503 0.89515 0.2036 0.0
O190 O 0.38946 0.84192 0.16062 0.0
O191 O 0.42222 0.79658 0.16382 0.0
C192 C 0.25548 0.72915 0.19245 0.0
C193 C 0.25394 0.68914 0.2076 0.0
H194 H 0.29834 0.79607 0.16713 0.0
C195 C 0.29369 0.68315 0.20456 0.0
H196 H 0.22541 0.73472 0.19466 0.0
C197 C 0.33536 0.71807 0.18879 0.0
C198 C 0.33823 0.75992 0.17607 0.0
H199 H 0.29323 0.65242 0.21592 0.0
H200 H 0.36606 0.71338 0.18835 0.0
C201 C 0.29736 0.76437 0.17694 0.0
C202 C 0.60092 0.22534 0.35899 0.0
C203 C 0.63951 0.22397 0.37414 0.0
H204 H 0.57658 0.26797 0.33367 0.0
C205 C 0.68519 0.2638 0.3711 0.0
H206 H 0.56533 0.19521 0.3612 0.0
C207 C 0.69175 0.30537 0.35532 0.0
C208 C 0.65264 0.30807 0.34261 0.0
H209 H 0.71555 0.26347 0.38246 0.0
H210 H 0.72709 0.33614 0.35488 0.0
C211 C 0.60739 0.26713 0.34348 0.0
C212 C 0.49545 0.65516 0.53783 0.0
C213 C 0.48939 0.60943 0.5409 0.0
H214 H 0.46526 0.6973 0.52161 0.0
C215 C 0.44929 0.57097 0.52581 0.0
H216 H 0.52625 0.68543 0.54914 0.0
C217 C 0.41406 0.57764 0.51031 0.0
C218 C 0.41859 0.62295 0.50941 0.0
H219 H 0.44367 0.53534 0.52804 0.0
H220 H 0.3823 0.54693 0.50055 0.0
C221 C 0.46052 0.66192 0.52207 0.0
C222 C 0.95285 0.41974 0.69244 0.0
C223 C 0.95429 0.45969 0.7076 0.0
H224 H 0.9101 0.35283 0.6671 0.0
C225 C 0.91448 0.46559 0.70456 0.0
H226 H 0.98296 0.41425 0.69464 0.0
C227 C 0.87285 0.43064 0.68878 0.0
C228 C 0.87008 0.38885 0.67605 0.0
H229 H 0.91487 0.49627 0.71593 0.0
H230 H 0.8421 0.43525 0.68834 0.0
C231 C 0.911 0.38449 0.67692 0.0
C232 C 0.60764 0.9231 0.859 0.0
C233 C 0.56909 0.92453 0.87416 0.0
H234 H 0.63188 0.88041 0.83365 0.0
C235 C 0.52338 0.88476 0.87111 0.0
H236 H 0.64326 0.95319 0.86121 0.0
C237 C 0.51675 0.84318 0.85531 0.0
C238 C 0.55581 0.84042 0.84258 0.0
H239 H 0.49305 0.88513 0.88247 0.0
H240 H 0.48138 0.81246 0.85486 0.0
C241 C 0.6011 0.88131 0.84346 0.0
C242 C 0.75853 0.57726 0.02577 0.0
C243 C 0.71847 0.53877 0.04089 0.0
H244 H 0.82552 0.60139 0.00049 0.0
C245 C 0.71249 0.49307 0.03784 0.0
H246 H 0.7641 0.61287 0.02798 0.0
C247 C 0.74746 0.48638 0.02209 0.0
C248 C 0.78935 0.52537 0.0094 0.0
H249 H 0.68173 0.46278 0.04918 0.0
H250 H 0.74278 0.45102 0.02164 0.0
C251 C 0.79379 0.57066 0.01028 0.0
C252 C 0.44991 0.92327 0.45105 0.0
C253 C 0.48988 0.92467 0.4359 0.0
H254 H 0.38293 0.88063 0.4764 0.0
C255 C 0.49574 0.88486 0.43897 0.0
H256 H 0.44444 0.95338 0.44882 0.0
C257 C 0.46072 0.8433 0.45477 0.0
C258 C 0.41891 0.84058 0.46749 0.0
H259 H 0.52644 0.88521 0.42762 0.0
H260 H 0.4653 0.81255 0.45523 0.0
C261 C 0.4146 0.88149 0.46659 0.0
C262 C 0.6003 0.41928 0.61767 0.0
C263 C 0.63883 0.4593 0.60255 0.0
H264 H 0.57615 0.35235 0.64296 0.0
C265 C 0.68457 0.46529 0.60562 0.0
H266 H 0.56466 0.41372 0.61543 0.0
C267 C 0.69127 0.43036 0.62139 0.0
C268 C 0.65224 0.3885 0.63408 0.0
H269 H 0.71488 0.49602 0.59428 0.0
H270 H 0.72666 0.43504 0.62186 0.0
C271 C 0.60691 0.38405 0.63318 0.0
C272 C 0.25546 0.57118 0.78435 0.0
C273 C 0.25393 0.60969 0.76925 0.0
H274 H 0.29829 0.54702 0.80961 0.0
C275 C 0.2937 0.65539 0.77232 0.0
H276 H 0.22538 0.53558 0.78212 0.0
C277 C 0.33536 0.66205 0.78807 0.0
C278 C 0.33821 0.62304 0.80074 0.0
H279 H 0.29325 0.68569 0.761 0.0
H280 H 0.36607 0.69741 0.78853 0.0
C281 C 0.29733 0.57776 0.79984 0.0
C282 C 0.71275 0.2636 -0.06104 0.0
C283 C 0.71871 0.22386 -0.06411 0.0
H284 H 0.74305 0.33589 -0.04477 0.0
C285 C 0.75872 0.22533 -0.04895 0.0
H286 H 0.68203 0.2632 -0.0724 0.0
C287 C 0.79397 0.26713 -0.0334 0.0
C288 C 0.78955 0.30799 -0.0325 0.0
H289 H 0.76426 0.19527 -0.05117 0.0
H290 H 0.82566 0.26806 -0.02358 0.0
C291 C 0.74771 0.30519 -0.04523 0.0
C292 C 0.5234 0.68301 0.1056 0.0
C293 C 0.56911 0.68891 0.10255 0.0
H294 H 0.4814 0.71335 0.12184 0.0
C295 C 0.60766 0.72886 0.1177 0.0
H296 H 0.49306 0.65233 0.09424 0.0
C297 C 0.60112 0.76412 0.13323 0.0
C298 C 0.55583 0.75976 0.13411 0.0
H299 H 0.64328 0.73436 0.11548 0.0
H300 H 0.6319 0.79577 0.14303 0.0
C301 C 0.51676 0.71796 0.12139 0.0
C302 C 0.95267 0.57766 0.28432 0.0
C303 C 0.95425 0.53918 0.26923 0.0
H304 H 0.90977 0.60173 0.30958 0.0
C305 C 0.91454 0.49346 0.27233 0.0
H306 H 0.98271 0.61328 0.28207 0.0
C307 C 0.87287 0.48673 0.2881 0.0
C308 C 0.86995 0.52571 0.30075 0.0
H309 H 0.91503 0.46318 0.26102 0.0
H310 H 0.84219 0.45135 0.28858 0.0
C311 C 0.91079 0.57102 0.29983 0.0
C312 C 0.2326 0.60824 0.33538 0.0
C313 C 0.20158 0.62477 0.3264 0.0
H314 H 0.2763 0.60331 0.37511 0.0
C315 C 0.18817 0.64679 0.35189 0.0
H316 H 0.24355 0.59144 0.31592 0.0
C317 C 0.20766 0.65462 0.38544 0.0
C318 C 0.24018 0.63974 0.39414 0.0
H319 H 0.16467 0.66024 0.34528 0.0
H320 H 0.19819 0.67334 0.4043 0.0
C321 C 0.25132 0.61515 0.36914 0.0
C322 C 0.69932 0.20289 0.50193 0.0
C323 C 0.6518 0.17177 0.49294 0.0
H324 H 0.74785 0.24665 0.54166 0.0
C325 C 0.61632 0.15824 0.51843 0.0
H326 H 0.72711 0.21394 0.48248 0.0
C327 C 0.6279 0.17771 0.55198 0.0
C328 C 0.67527 0.21033 0.56068 0.0
H329 H 0.57938 0.13465 0.51182 0.0
H330 H 0.59967 0.16814 0.57084 0.0
C331 C 0.71106 0.22159 0.53569 0.0
C332 C 0.57074 0.66924 0.66851 0.0
C333 C 0.55418 0.62171 0.65961 0.0
H334 H 0.57575 0.71794 0.70817 0.0
C335 C 0.53223 0.58636 0.68516 0.0
H336 H 0.58749 0.69693 0.649 0.0
C337 C 0.52447 0.59809 0.71871 0.0
C338 C 0.53936 0.64548 0.72732 0.0
H339 H 0.51875 0.54941 0.67862 0.0
H340 H 0.50579 0.56996 0.73762 0.0
C341 C 0.5639 0.68113 0.70226 0.0
C342 C 0.97547 0.54048 0.83538 0.0
C343 C 1.00657 0.52406 0.8264 0.0
H344 H 0.9317 0.54528 0.8751 0.0
C345 C 1.02007 0.50212 0.85189 0.0
H346 H 0.96445 0.55722 0.81592 0.0
C347 C 1.00058 0.49424 0.88545 0.0
C348 C 0.96798 0.50901 0.89414 0.0
H349 H 1.04364 0.48875 0.84529 0.0
H350 H 1.01013 0.47558 0.90431 0.0
C351 C 0.95675 0.53353 0.86914 0.0
C352 C 0.5923 0.99021 0.01845 0.0
C353 C 0.55684 0.97673 -0.00704 0.0
H354 H 0.60887 0.98027 0.07088 0.0
C355 C 0.5093 0.94568 0.00193 0.0
H356 H 0.62925 1.01374 0.01185 0.0
C357 C 0.49751 0.92698 0.03569 0.0
C358 C 0.53327 0.93819 0.06071 0.0
H359 H 0.48153 0.93467 -0.01754 0.0
H360 H 0.4607 0.90198 0.04166 0.0
C361 C 0.58066 0.97074 0.05201 0.0
C362 C 0.67561 0.56185 0.18514 0.0
C363 C 0.65372 0.52648 0.15961 0.0
H364 H 0.70205 0.57833 0.23759 0.0
C365 C 0.63727 0.47896 0.16855 0.0
H366 H 0.68901 0.59878 0.17858 0.0
C367 C 0.64415 0.46713 0.20231 0.0
C368 C 0.66864 0.50282 0.22735 0.0
H369 H 0.62057 0.45125 0.14906 0.0
H370 H 0.63239 0.43035 0.20824 0.0
C371 C 0.68342 0.55017 0.2187 0.0
C372 C 0.57103 0.94583 0.3082 0.0
C373 C 0.55458 0.9769 0.31714 0.0
H374 H 0.57587 0.90207 0.26852 0.0
C375 C 0.53264 0.99037 0.29162 0.0
H376 H 0.58777 0.93483 0.32769 0.0
C377 C 0.52479 0.97087 0.25807 0.0
C378 C 0.53958 0.93829 0.24942 0.0
H379 H 0.51925 1.01392 0.29819 0.0
H380 H 0.50612 0.98039 0.23919 0.0
C381 C 0.5641 0.9271 0.27446 0.0
C382 C 0.6986 0.54033 0.4748 0.0
C383 C 0.65103 0.52377 0.48376 0.0
H384 H 0.74728 0.54531 0.4351 0.0
C385 C 0.6156 0.50173 0.45826 0.0
H386 H 0.72635 0.55714 0.49427 0.0
C387 C 0.62729 0.49392 0.42471 0.0
C388 C 0.67471 0.50884 0.41604 0.0
H389 H 0.57863 0.48825 0.46485 0.0
H390 H 0.5991 0.47519 0.40584 0.0
C391 C 0.71044 0.53344 0.44105 0.0
C392 C 0.23259 0.66961 0.64162 0.0
C393 C 0.2015 0.62209 0.65054 0.0
H394 H 0.27637 0.71826 0.60195 0.0
C395 C 0.18801 0.58673 0.625 0.0
H396 H 0.2436 0.69731 0.66112 0.0
C397 C 0.20751 0.59843 0.59145 0.0
C398 C 0.24012 0.6458 0.58282 0.0
H399 H 0.16445 0.5498 0.63156 0.0
H400 H 0.19799 0.57029 0.57255 0.0
C401 C 0.25133 0.68147 0.60787 0.0
C402 C 0.67604 0.1582 0.79161 0.0
C403 C 0.65405 0.17161 0.81713 0.0
H404 H 0.70253 0.16823 0.73917 0.0
C405 C 0.63751 0.20261 0.80819 0.0
H406 H 0.6895 0.13471 0.79818 0.0
C407 C 0.64438 0.22133 0.77444 0.0
C408 C 0.66894 0.2102 0.7494 0.0
H409 H 0.62073 0.21356 0.82768 0.0
H410 H 0.63253 0.2463 0.7685 0.0
C411 C 0.68383 0.17769 0.75805 0.0
C412 C 0.5923 0.64643 -0.04175 0.0
C413 C 0.55685 0.62448 -0.01625 0.0
H414 H 0.60886 0.67295 0.90583 0.0
C415 C 0.5093 0.60803 -0.02522 0.0
H416 H 0.62925 0.65982 -0.03515 0.0
C417 C 0.49751 0.61496 -0.05897 0.0
C418 C 0.53326 0.63949 -0.08399 0.0
H419 H 0.48154 0.59129 -0.00574 0.0
H420 H 0.46069 0.60319 -0.06493 0.0
C421 C 0.58065 0.65428 -0.07531 0.0
C422 C 1.02012 0.56212 0.12498 0.0
C423 C 1.0067 0.52679 0.15054 0.0
H424 H 1.01008 0.57849 0.07251 0.0
C425 C 0.97568 0.47925 0.14165 0.0
H426 H 1.04363 0.59908 0.13151 0.0
C427 C 0.95694 0.46734 0.10791 0.0
C428 C 0.96808 0.50298 0.08283 0.0
H429 H 0.96472 0.45157 0.16117 0.0
H430 H 0.93195 0.43053 0.102 0.0
C431 C 1.00062 0.55037 0.09143 0.0
loop_
_geom_bond_atom_site_label_1
_geom_bond_atom_site_label_2
_geom_bond_distance
_geom_bond_site_symmetry_2
_ccdc_geom_bond_type
H0 C6 0.930 . S
H1 C9 0.931 . S
H2 C11 0.931 . S
H3 C13 0.930 . S
H4 C15 0.930 . S
H5 C17 0.931 . S
C6 H0 0.930 . S
C6 C7 1.380 . S
C6 C8 1.394 . S
C7 C6 1.380 . S
C7 C11 1.382 . S
C8 C6 1.394 . S
C8 C9 1.400 . S
C9 H1 0.931 . S
C9 C8 1.400 . S
C9 C10 1.375 . S
C10 C9 1.375 . S
C10 C11 1.415 . S
C10 C12 1.501 1_455 S
C11 H2 0.931 . S
C11 C7 1.382 . S
C11 C10 1.415 . S
C12 C10 1.501 1_655 S
C12 C13 1.384 . S
C12 C17 1.408 . S
C13 H3 0.930 . S
C13 C12 1.384 . S
C13 C14 1.389 . S
C14 C13 1.389 . S
C14 C15 1.405 . S
C15 H4 0.930 . S
C15 C14 1.405 . S
C15 C16 1.364 . S
C16 C15 1.364 . S
C16 C17 1.400 . S
C17 H5 0.931 . S
C17 C12 1.408 . S
C17 C16 1.400 . S
H18 C24 0.930 . S
H19 C27 0.931 . S
H20 C29 0.931 . S
H21 C31 0.930 . S
H22 C33 0.930 . S
H23 C35 0.930 1_545 S
C24 H18 0.930 . S
C24 C25 1.380 . S
C24 C26 1.394 . S
C25 C24 1.380 . S
C25 C29 1.382 . S
C26 C24 1.394 . S
C26 C27 1.400 . S
C27 H19 0.931 . S
C27 C26 1.400 . S
C27 C28 1.375 . S
C28 C27 1.375 . S
C28 C29 1.415 . S
C28 C30 1.501 1_545 S
C29 H20 0.931 . S
C29 C25 1.382 . S
C29 C28 1.415 . S
C30 C28 1.501 1_565 S
C30 C31 1.384 . S
C30 C35 1.408 . S
C31 H21 0.930 . S
C31 C30 1.384 . S
C31 C32 1.389 . S
C32 C31 1.389 . S
C32 C33 1.405 . S
C33 H22 0.930 . S
C33 C32 1.405 . S
C33 C34 1.364 . S
C34 C33 1.364 . S
C34 C35 1.400 . S
C35 H23 0.930 1_565 S
C35 C30 1.408 . S
C35 C34 1.400 . S
H36 C42 0.930 . S
H37 C45 0.931 . S
H38 C47 0.931 . S
H39 C49 0.930 . S
H40 C51 0.930 . S
H41 C53 0.931 . S
C42 H36 0.930 . S
C42 C43 1.380 . S
C42 C44 1.394 . S
C43 C42 1.380 . S
C43 C47 1.382 . S
C44 C42 1.394 . S
C44 C45 1.400 . S
C45 H37 0.931 . S
C45 C44 1.400 . S
C45 C46 1.375 . S
C46 C45 1.375 . S
C46 C47 1.415 . S
C46 C48 1.501 . S
C47 H38 0.931 . S
C47 C43 1.382 . S
C47 C46 1.415 . S
C48 C46 1.501 . S
C48 C49 1.384 . S
C48 C53 1.408 . S
C49 H39 0.930 . S
C49 C48 1.384 . S
C49 C50 1.389 . S
C50 C49 1.389 . S
C50 C51 1.405 . S
C51 H40 0.930 . S
C51 C50 1.405 . S
C51 C52 1.364 . S
C52 C51 1.364 . S
C52 C53 1.400 . S
C53 H41 0.931 . S
C53 C48 1.408 . S
C53 C52 1.400 . S
H54 C60 0.930 . S
H55 C63 0.931 . S
H56 C65 0.931 . S
H57 C67 0.930 . S
H58 C69 0.930 . S
H59 C71 0.931 . S
C60 H54 0.930 . S
C60 C61 1.380 . S
C60 C62 1.394 . S
C61 C60 1.380 . S
C61 C65 1.382 . S
C62 C60 1.394 . S
C62 C63 1.400 . S
C63 H55 0.931 . S
C63 C62 1.400 . S
C63 C64 1.375 . S
C64 C63 1.375 . S
C64 C65 1.415 . S
C64 C66 1.501 1_455 S
C65 H56 0.931 . S
C65 C61 1.382 . S
C65 C64 1.415 . S
C66 C64 1.501 1_655 S
C66 C67 1.384 . S
C66 C71 1.408 . S
C67 H57 0.930 . S
C67 C66 1.384 . S
C67 C68 1.389 . S
C68 C67 1.389 . S
C68 C69 1.405 . S
C69 H58 0.930 . S
C69 C68 1.405 . S
C69 C70 1.364 . S
C70 C69 1.364 . S
C70 C71 1.400 . S
C71 H59 0.931 . S
C71 C66 1.408 . S
C71 C70 1.400 . S
H72 C78 0.930 . S
H73 C81 0.931 . S
H74 C83 0.929 . S
H75 C85 0.930 . S
H76 C87 0.930 . S
H77 C89 0.931 . S
C78 H72 0.930 . S
C78 C79 1.380 . S
C78 C80 1.394 1_554 S
C79 C78 1.380 . S
C79 C83 1.382 . S
C80 C78 1.394 1_556 S
C80 C81 1.400 . S
C81 H73 0.931 . S
C81 C80 1.400 . S
C81 C82 1.375 . S
C82 C81 1.375 . S
C82 C83 1.415 1_556 S
C82 C84 1.501 1_565 S
C83 H74 0.929 . S
C83 C79 1.382 . S
C83 C82 1.415 1_554 S
C84 C82 1.501 1_545 S
C84 C85 1.384 1_556 S
C84 C89 1.408 . S
C85 H75 0.930 . S
C85 C84 1.384 1_554 S
C85 C86 1.389 . S
C86 C85 1.389 . S
C86 C87 1.405 1_554 S
C87 H76 0.930 . S
C87 C86 1.405 1_556 S
C87 C88 1.364 . S
C88 C87 1.364 . S
C88 C89 1.400 . S
C89 H77 0.931 . S
C89 C84 1.408 . S
C89 C88 1.400 . S
H90 C96 0.930 . S
H91 C99 0.931 . S
H92 C101 0.931 . S
H93 C103 0.930 . S
H94 C105 0.930 . S
H95 C107 0.931 . S
C96 H90 0.930 . S
C96 C97 1.380 . S
C96 C98 1.394 . S
C97 C96 1.380 . S
C97 C101 1.382 . S
C98 C96 1.394 . S
C98 C99 1.400 . S
C99 H91 0.931 . S
C99 C98 1.400 . S
C99 C100 1.375 . S
C100 C99 1.375 . S
C100 C101 1.415 . S
C100 C102 1.501 . S
C101 H92 0.931 . S
C101 C97 1.382 . S
C101 C100 1.415 . S
C102 C100 1.501 . S
C102 C103 1.384 . S
C102 C107 1.408 . S
C103 H93 0.930 . S
C103 C102 1.384 . S
C103 C104 1.389 . S
C104 C103 1.389 . S
C104 C105 1.405 . S
C105 H94 0.930 . S
C105 C104 1.405 . S
C105 C106 1.364 . S
C106 C105 1.364 . S
C106 C107 1.400 . S
C107 H95 0.931 . S
C107 C102 1.408 . S
C107 C106 1.400 . S
O108 Cd109 2.223 . S
O108 C116 1.315 . S
Cd109 O108 2.223 . S
Cd109 O112 2.297 . S
Cd109 O113 2.439 . S
Cd109 O119 2.240 . S
Cd110 O111 2.240 . S
Cd110 O118 2.223 . S
Cd110 O120 2.297 . S
Cd110 O121 2.439 . S
O111 Cd110 2.240 . S
O111 C116 1.279 . S
O112 Cd109 2.297 . S
O112 C114 1.247 . S
O113 Cd109 2.439 . S
O113 C114 1.208 . S
C114 O112 1.247 . S
C114 O113 1.208 . S
C115 O120 1.247 . S
C115 O121 1.208 . S
C116 O108 1.315 . S
C116 O111 1.279 . S
C117 O118 1.315 . S
C117 O119 1.279 . S
O118 Cd110 2.223 . S
O118 C117 1.315 . S
O119 Cd109 2.240 . S
O119 C117 1.279 . S
O120 Cd110 2.297 . S
O120 C115 1.247 . S
O121 Cd110 2.439 . S
O121 C115 1.208 . S
O122 Cd123 2.223 . S
O122 C130 1.315 . S
Cd123 O122 2.223 . S
Cd123 O126 2.297 . S
Cd123 O127 2.439 . S
Cd123 O133 2.240 . S
Cd124 O125 2.240 . S
Cd124 O132 2.223 . S
Cd124 O134 2.297 . S
Cd124 O135 2.439 . S
O125 Cd124 2.240 . S
O125 C130 1.279 . S
O126 Cd123 2.297 . S
O126 C128 1.247 . S
O127 Cd123 2.439 . S
O127 C128 1.208 . S
C128 O126 1.247 . S
C128 O127 1.208 . S
C129 O134 1.247 . S
C129 O135 1.208 . S
C130 O122 1.315 . S
C130 O125 1.279 . S
C131 O132 1.315 . S
C131 O133 1.279 . S
O132 Cd124 2.223 . S
O132 C131 1.315 . S
O133 Cd123 2.240 . S
O133 C131 1.279 . S
O134 Cd124 2.297 . S
O134 C129 1.247 . S
O135 Cd124 2.439 . S
O135 C129 1.208 . S
O136 Cd137 2.223 . S
O136 C144 1.315 . S
Cd137 O136 2.223 . S
Cd137 O140 2.297 . S
Cd137 O141 2.439 . S
Cd137 O147 2.240 . S
Cd138 O139 2.240 . S
Cd138 O146 2.223 . S
Cd138 O148 2.297 . S
Cd138 O149 2.439 . S
O139 Cd138 2.240 . S
O139 C144 1.279 . S
O140 Cd137 2.297 . S
O140 C142 1.247 . S
O141 Cd137 2.439 . S
O141 C142 1.208 . S
C142 O140 1.247 . S
C142 O141 1.208 . S
C143 O148 1.247 . S
C143 O149 1.208 . S
C144 O136 1.315 . S
C144 O139 1.279 . S
C145 O146 1.315 . S
C145 O147 1.279 . S
O146 Cd138 2.223 . S
O146 C145 1.315 . S
O147 Cd137 2.240 . S
O147 C145 1.279 . S
O148 Cd138 2.297 . S
O148 C143 1.247 . S
O149 Cd138 2.439 . S
O149 C143 1.208 . S
O150 Cd151 2.223 . S
O150 C158 1.315 . S
Cd151 O150 2.223 . S
Cd151 O154 2.297 . S
Cd151 O155 2.439 . S
Cd151 O161 2.240 . S
Cd152 O153 2.240 . S
Cd152 O160 2.223 . S
Cd152 O162 2.297 . S
Cd152 O163 2.439 . S
O153 Cd152 2.240 . S
O153 C158 1.279 . S
O154 Cd151 2.297 . S
O154 C156 1.247 . S
O155 Cd151 2.439 . S
O155 C156 1.208 . S
C156 O154 1.247 . S
C156 O155 1.208 . S
C157 O162 1.247 . S
C157 O163 1.208 . S
C158 O150 1.315 . S
C158 O153 1.279 . S
C159 O160 1.315 . S
C159 O161 1.279 . S
O160 Cd152 2.223 . S
O160 C159 1.315 . S
O161 Cd151 2.240 . S
O161 C159 1.279 . S
O162 Cd152 2.297 . S
O162 C157 1.247 . S
O163 Cd152 2.439 . S
O163 C157 1.208 . S
O164 Cd165 2.223 . S
O164 C172 1.315 . S
Cd165 O164 2.223 . S
Cd165 O168 2.297 . S
Cd165 O169 2.439 . S
Cd165 O175 2.240 . S
Cd166 O167 2.240 . S
Cd166 O174 2.223 . S
Cd166 O176 2.297 . S
Cd166 O177 2.439 . S
O167 Cd166 2.240 . S
O167 C172 1.279 . S
O168 Cd165 2.297 . S
O168 C170 1.247 . S
O169 Cd165 2.439 . S
O169 C170 1.208 . S
C170 O168 1.247 . S
C170 O169 1.208 . S
C171 O176 1.247 . S
C171 O177 1.208 . S
C172 O164 1.315 . S
C172 O167 1.279 . S
C173 O174 1.315 . S
C173 O175 1.279 . S
O174 Cd166 2.223 . S
O174 C173 1.315 . S
O175 Cd165 2.240 . S
O175 C173 1.279 . S
O176 Cd166 2.297 . S
O176 C171 1.247 . S
O177 Cd166 2.439 . S
O177 C171 1.208 . S
O178 Cd179 2.223 . S
O178 C186 1.315 . S
Cd179 O178 2.223 . S
Cd179 O182 2.297 . S
Cd179 O183 2.439 . S
Cd179 O189 2.240 . S
Cd180 O181 2.240 . S
Cd180 O188 2.223 . S
Cd180 O190 2.297 . S
Cd180 O191 2.439 . S
O181 Cd180 2.240 . S
O181 C186 1.279 . S
O182 Cd179 2.297 . S
O182 C184 1.247 . S
O183 Cd179 2.439 . S
O183 C184 1.208 . S
C184 O182 1.247 . S
C184 O183 1.208 . S
C185 O190 1.247 . S
C185 O191 1.208 . S
C186 O178 1.315 . S
C186 O181 1.279 . S
C187 O188 1.315 . S
C187 O189 1.279 . S
O188 Cd180 2.223 . S
O188 C187 1.315 . S
O189 Cd179 2.240 . S
O189 C187 1.279 . S
O190 Cd180 2.297 . S
O190 C185 1.247 . S
O191 Cd180 2.439 . S
O191 C185 1.208 . S
C192 C193 1.387 . S
C192 H196 0.950 . S
C192 C201 1.390 . S
C193 C192 1.387 . S
C193 C195 1.387 . S
H194 C201 0.950 . S
C195 C193 1.387 . S
C195 C197 1.390 . S
C195 H199 0.950 . S
H196 C192 0.950 . S
C197 C195 1.390 . S
C197 C198 1.387 . S
C197 H200 0.950 . S
C198 C197 1.387 . S
C198 C201 1.387 . S
H199 C195 0.950 . S
H200 C197 0.950 . S
C201 C192 1.390 . S
C201 H194 0.950 . S
C201 C198 1.387 . S
C202 C203 1.387 . S
C202 H206 0.950 . S
C202 C211 1.390 . S
C203 C202 1.387 . S
C203 C205 1.387 . S
H204 C211 0.950 . S
C205 C203 1.387 . S
C205 C207 1.390 . S
C205 H209 0.950 . S
H206 C202 0.950 . S
C207 C205 1.390 . S
C207 C208 1.387 . S
C207 H210 0.950 . S
C208 C207 1.387 . S
C208 C211 1.387 . S
H209 C205 0.950 . S
H210 C207 0.950 . S
C211 C202 1.390 . S
C211 H204 0.950 . S
C211 C208 1.387 . S
C212 C213 1.387 . S
C212 H216 0.950 . S
C212 C221 1.390 . S
C213 C212 1.387 . S
C213 C215 1.387 . S
H214 C221 0.950 . S
C215 C213 1.387 . S
C215 C217 1.390 . S
C215 H219 0.950 . S
H216 C212 0.950 . S
C217 C215 1.390 . S
C217 C218 1.387 . S
C217 H220 0.950 . S
C218 C217 1.387 . S
C218 C221 1.387 . S
H219 C215 0.950 . S
H220 C217 0.950 . S
C221 C212 1.390 . S
C221 H214 0.950 . S
C221 C218 1.387 . S
C222 C223 1.387 . S
C222 H226 0.950 . S
C222 C231 1.390 . S
C223 C222 1.387 . S
C223 C225 1.387 . S
H224 C231 0.950 . S
C225 C223 1.387 . S
C225 C227 1.390 . S
C225 H229 0.950 . S
H226 C222 0.950 . S
C227 C225 1.390 . S
C227 C228 1.387 . S
C227 H230 0.950 . S
C228 C227 1.387 . S
C228 C231 1.387 . S
H229 C225 0.950 . S
H230 C227 0.950 . S
C231 C222 1.390 . S
C231 H224 0.950 . S
C231 C228 1.387 . S
C232 C233 1.387 . S
C232 H236 0.950 . S
C232 C241 1.390 . S
C233 C232 1.387 . S
C233 C235 1.387 . S
H234 C241 0.950 . S
C235 C233 1.387 . S
C235 C237 1.390 . S
C235 H239 0.950 . S
H236 C232 0.950 . S
C237 C235 1.390 . S
C237 C238 1.387 . S
C237 H240 0.950 . S
C238 C237 1.387 . S
C238 C241 1.387 . S
H239 C235 0.950 . S
H240 C237 0.950 . S
C241 C232 1.390 . S
C241 H234 0.950 . S
C241 C238 1.387 . S
C242 C243 1.387 . S
C242 H246 0.950 . S
C242 C251 1.390 . S
C243 C242 1.387 . S
C243 C245 1.387 . S
H244 C251 0.950 . S
C245 C243 1.387 . S
C245 C247 1.390 . S
C245 H249 0.950 . S
H246 C242 0.950 . S
C247 C245 1.390 . S
C247 C248 1.387 . S
C247 H250 0.950 . S
C248 C247 1.387 . S
C248 C251 1.387 . S
H249 C245 0.950 . S
H250 C247 0.950 . S
C251 C242 1.390 . S
C251 H244 0.950 . S
C251 C248 1.387 . S
C252 C253 1.387 . S
C252 H256 0.950 . S
C252 C261 1.390 . S
C253 C252 1.387 . S
C253 C255 1.387 . S
H254 C261 0.950 . S
C255 C253 1.387 . S
C255 C257 1.390 . S
C255 H259 0.950 . S
H256 C252 0.950 . S
C257 C255 1.390 . S
C257 C258 1.387 . S
C257 H260 0.950 . S
C258 C257 1.387 . S
C258 C261 1.387 . S
H259 C255 0.950 . S
H260 C257 0.950 . S
C261 C252 1.390 . S
C261 H254 0.950 . S
C261 C258 1.387 . S
C262 C263 1.387 . S
C262 H266 0.950 . S
C262 C271 1.390 . S
C263 C262 1.387 . S
C263 C265 1.387 . S
H264 C271 0.950 . S
C265 C263 1.387 . S
C265 C267 1.390 . S
C265 H269 0.950 . S
H266 C262 0.950 . S
C267 C265 1.390 . S
C267 C268 1.387 . S
C267 H270 0.950 . S
C268 C267 1.387 . S
C268 C271 1.387 . S
H269 C265 0.950 . S
H270 C267 0.950 . S
C271 C262 1.390 . S
C271 H264 0.950 . S
C271 C268 1.387 . S
C272 C273 1.387 . S
C272 H276 0.950 . S
C272 C281 1.390 . S
C273 C272 1.387 . S
C273 C275 1.387 . S
H274 C281 0.950 . S
C275 C273 1.387 . S
C275 C277 1.390 . S
C275 H279 0.950 . S
H276 C272 0.950 . S
C277 C275 1.390 . S
C277 C278 1.387 . S
C277 H280 0.950 . S
C278 C277 1.387 . S
C278 C281 1.387 . S
H279 C275 0.950 . S
H280 C277 0.950 . S
C281 C272 1.390 . S
C281 H274 0.950 . S
C281 C278 1.387 . S
C282 C283 1.387 . S
C282 H286 0.950 . S
C282 C291 1.390 . S
C283 C282 1.387 . S
C283 C285 1.387 . S
H284 C291 0.950 . S
C285 C283 1.387 . S
C285 C287 1.390 . S
C285 H289 0.950 1_554 S
H286 C282 0.950 . S
C287 C285 1.390 . S
C287 C288 1.387 . S
C287 H290 0.942 1_554 S
C288 C287 1.387 . S
C288 C291 1.387 . S
H289 C285 0.950 1_556 S
H290 C287 0.942 1_556 S
C291 C282 1.390 . S
C291 H284 0.950 . S
C291 C288 1.387 . S
C292 C293 1.387 . S
C292 H296 0.950 . S
C292 C301 1.390 . S
C293 C292 1.387 . S
C293 C295 1.387 . S
H294 C301 0.950 . S
C295 C293 1.387 . S
C295 C297 1.390 . S
C295 H299 0.950 . S
H296 C292 0.950 . S
C297 C295 1.390 . S
C297 C298 1.387 . S
C297 H300 0.950 . S
C298 C297 1.387 . S
C298 C301 1.387 . S
H299 C295 0.950 . S
H300 C297 0.950 . S
C301 C292 1.390 . S
C301 H294 0.950 . S
C301 C298 1.387 . S
C302 C303 1.387 . S
C302 H306 0.950 . S
C302 C311 1.390 . S
C303 C302 1.387 . S
C303 C305 1.387 . S
H304 C311 0.950 . S
C305 C303 1.387 . S
C305 C307 1.390 . S
C305 H309 0.950 . S
H306 C302 0.950 . S
C307 C305 1.390 . S
C307 C308 1.387 . S
C307 H310 0.950 . S
C308 C307 1.387 . S
C308 C311 1.387 . S
H309 C305 0.950 . S
H310 C307 0.950 . S
C311 C302 1.390 . S
C311 H304 0.950 . S
C311 C308 1.387 . S
C312 C313 1.387 . S
C312 H316 0.950 . S
C312 C321 1.390 . S
C313 C312 1.387 . S
C313 C315 1.387 . S
H314 C321 0.950 . S
C315 C313 1.387 . S
C315 C317 1.390 . S
C315 H319 0.950 . S
H316 C312 0.950 . S
C317 C315 1.390 . S
C317 C318 1.387 . S
C317 H320 0.950 . S
C318 C317 1.387 . S
C318 C321 1.387 . S
H319 C315 0.950 . S
H320 C317 0.950 . S
C321 C312 1.390 . S
C321 H314 0.950 . S
C321 C318 1.387 . S
C322 C323 1.387 . S
C322 H326 0.950 . S
C322 C331 1.390 . S
C323 C322 1.387 . S
C323 C325 1.387 . S
H324 C331 0.950 . S
C325 C323 1.387 . S
C325 C327 1.390 . S
C325 H329 0.950 . S
H326 C322 0.950 . S
C327 C325 1.390 . S
C327 C328 1.387 . S
C327 H330 0.950 . S
C328 C327 1.387 . S
C328 C331 1.387 . S
H329 C325 0.950 . S
H330 C327 0.950 . S
C331 C322 1.390 . S
C331 H324 0.950 . S
C331 C328 1.387 . S
C332 C333 1.387 . S
C332 H336 0.950 . S
C332 C341 1.390 . S
C333 C332 1.387 . S
C333 C335 1.387 . S
H334 C341 0.950 . S
C335 C333 1.387 . S
C335 C337 1.390 . S
C335 H339 0.950 . S
H336 C332 0.950 . S
C337 C335 1.390 . S
C337 C338 1.387 . S
C337 H340 0.950 . S
C338 C337 1.387 . S
C338 C341 1.387 . S
H339 C335 0.950 . S
H340 C337 0.950 . S
C341 C332 1.390 . S
C341 H334 0.950 . S
C341 C338 1.387 . S
C342 C343 1.387 . S
C342 H346 0.950 . S
C342 C351 1.390 . S
C343 C342 1.387 . S
C343 C345 1.387 . S
H344 C351 0.950 1_554 S
C345 C343 1.387 . S
C345 C347 1.390 . S
C345 H349 0.950 . S
H346 C342 0.950 . S
C347 C345 1.390 . S
C347 C348 1.387 . S
C347 H350 0.950 . S
C348 C347 1.387 . S
C348 C351 1.387 . S
H349 C345 0.950 . S
H350 C347 0.950 . S
C351 C342 1.390 . S
C351 H344 0.950 1_556 S
C351 C348 1.387 . S
C352 C353 1.387 . S
C352 H356 0.950 . S
C352 C361 1.390 . S
C353 C352 1.387 . S
C353 C355 1.387 . S
H354 C361 0.950 . S
C355 C353 1.387 . S
C355 C357 1.390 . S
C355 H359 0.950 . S
H356 C352 0.950 . S
C357 C355 1.390 . S
C357 C358 1.387 . S
C357 H360 0.950 . S
C358 C357 1.387 . S
C358 C361 1.387 . S
H359 C355 0.950 . S
H360 C357 0.950 . S
C361 C352 1.390 . S
C361 H354 0.950 . S
C361 C358 1.387 . S
C362 C363 1.387 . S
C362 H366 0.950 . S
C362 C371 1.390 . S
C363 C362 1.387 . S
C363 C365 1.387 . S
H364 C371 0.950 . S
C365 C363 1.387 . S
C365 C367 1.390 . S
C365 H369 0.950 . S
H366 C362 0.950 . S
C367 C365 1.390 . S
C367 C368 1.387 . S
C367 H370 0.950 . S
C368 C367 1.387 . S
C368 C371 1.387 . S
H369 C365 0.950 . S
H370 C367 0.950 . S
C371 C362 1.390 . S
C371 H364 0.950 . S
C371 C368 1.387 . S
C372 C373 1.387 . S
C372 H376 0.950 . S
C372 C381 1.390 . S
C373 C372 1.387 . S
C373 C375 1.387 . S
H374 C381 0.950 . S
C375 C373 1.387 . S
C375 C377 1.390 . S
C375 H379 0.950 . S
H376 C372 0.950 . S
C377 C375 1.390 . S
C377 C378 1.387 . S
C377 H380 0.950 . S
C378 C377 1.387 . S
C378 C381 1.387 . S
H379 C375 0.950 . S
H380 C377 0.950 . S
C381 C372 1.390 . S
C381 H374 0.950 . S
C381 C378 1.387 . S
C382 C383 1.387 . S
C382 H386 0.950 . S
C382 C391 1.390 . S
C383 C382 1.387 . S
C383 C385 1.387 . S
H384 C391 0.950 . S
C385 C383 1.387 . S
C385 C387 1.390 . S
C385 H389 0.950 . S
H386 C382 0.950 . S
C387 C385 1.390 . S
C387 C388 1.387 . S
C387 H390 0.950 . S
C388 C387 1.387 . S
C388 C391 1.387 . S
H389 C385 0.950 . S
H390 C387 0.950 . S
C391 C382 1.390 . S
C391 H384 0.950 . S
C391 C388 1.387 . S
C392 C393 1.387 . S
C392 H396 0.950 . S
C392 C401 1.390 . S
C393 C392 1.387 . S
C393 C395 1.387 . S
H394 C401 0.950 . S
C395 C393 1.387 . S
C395 C397 1.390 . S
C395 H399 0.950 . S
H396 C392 0.950 . S
C397 C395 1.390 . S
C397 C398 1.387 . S
C397 H400 0.950 . S
C398 C397 1.387 . S
C398 C401 1.387 . S
H399 C395 0.950 . S
H400 C397 0.950 . S
C401 C392 1.390 . S
C401 H394 0.950 . S
C401 C398 1.387 . S
C402 C403 1.387 . S
C402 H406 0.950 . S
C402 C411 1.390 . S
C403 C402 1.387 . S
C403 C405 1.387 . S
H404 C411 0.950 . S
C405 C403 1.387 . S
C405 C407 1.390 . S
C405 H409 0.950 . S
H406 C402 0.950 . S
C407 C405 1.390 . S
C407 C408 1.387 . S
C407 H410 0.950 . S
C408 C407 1.387 . S
C408 C411 1.387 . S
H409 C405 0.950 . S
H410 C407 0.950 . S
C411 C402 1.390 . S
C411 H404 0.950 . S
C411 C408 1.387 . S
C412 C413 1.387 . S
C412 H416 0.950 . S
C412 C421 1.390 . S
C413 C412 1.387 . S
C413 C415 1.387 . S
H414 C421 0.950 . S
C415 C413 1.387 . S
C415 C417 1.390 1_554 S
C415 H419 0.950 . S
H416 C412 0.950 . S
C417 C415 1.390 1_556 S
C417 C418 1.387 . S
C417 H420 0.950 . S
C418 C417 1.387 . S
C418 C421 1.387 1_556 S
H419 C415 0.950 . S
H420 C417 0.950 . S
C421 C412 1.390 . S
C421 H414 0.950 . S
C421 C418 1.387 1_554 S
C422 C423 1.387 . S
C422 H426 0.950 . S
C422 C431 1.390 . S
C423 C422 1.387 . S
C423 C425 1.387 . S
H424 C431 0.950 . S
C425 C423 1.387 . S
C425 C427 1.390 . S
C425 H429 0.950 . S
H426 C422 0.950 . S
C427 C425 1.390 . S
C427 C428 1.387 . S
C427 H430 0.950 . S
C428 C427 1.387 . S
C428 C431 1.387 . S
H429 C425 0.950 . S
H430 C427 0.950 . S
C431 C422 1.390 . S
C431 H424 0.950 . S
C431 C428 1.387 . S
C198 C185 1.473 . S
C193 C8 1.448 . S
C203 C26 1.452 . S
C208 C114 1.474 . S
C213 C50 1.452 . S
C218 C128 1.480 . S
C223 C68 1.449 . S
C228 C142 1.476 . S
C238 C156 1.474 . S
C233 C80 1.451 . S
C243 C104 1.450 . S
C248 C171 1.474 . S
C253 C32 1.455 . S
C258 C129 1.481 . S
C263 C44 1.451 . S
C268 C143 1.475 . S
C273 C62 1.448 . S
C278 C157 1.473 . S
C288 C170 1.474 . S
C283 C86 1.448 . S
C298 C184 1.471 . S
C293 C98 1.448 . S
C308 C115 1.477 . S
C303 C14 1.449 . S
C313 C7 1.491 . S
C318 C131 1.521 . S
C323 C25 1.488 . S
C328 C145 1.518 . S
C338 C159 1.515 . S
C333 C52 1.492 . S
C343 C70 1.495 . S
C348 C172 1.521 1_556 S
C358 C186 1.516 . S
C353 C79 1.485 . S
C368 C117 1.516 . S
C363 C106 1.490 . S
C378 C187 1.516 . S
C373 C34 1.493 . S
C383 C43 1.488 . S
C388 C116 1.518 . S
C398 C130 1.519 . S
C393 C61 1.489 . S
C403 C88 1.490 . S
C408 C144 1.516 . S
C413 C97 1.485 . S
C418 C158 1.517 . S
C423 C16 1.493 . S
C428 C173 1.520 . S
