# Generated by pormake.
# Topology rtl, (3,6)-cn, num edge types: 1
# Building blocks:
#     Node 0, Type 0, BuildingBlock: BELTOD_clean_linker_0, # of connection points: 3
#     Node 1, Type 0, BuildingBlock: BELTOD_clean_linker_0, # of connection points: 3
#     Node 2, Type 0, BuildingBlock: BELTOD_clean_linker_0, # of connection points: 3
#     Node 3, Type 0, BuildingBlock: BELTOD_clean_linker_0, # of connection points: 3
#     Node 4, Type 1, BuildingBlock: VOLQOD_clean_sbu_1, # of connection points: 6
#     Node 5, Type 1, BuildingBlock: VOLQOD_clean_sbu_1, # of connection points: 6
#     Edge 6, Type (0, 1), BuildingBlock: MIFKUJ_clean_linker_0, # of connection points: 2
#     Edge 7, Type (0, 1), BuildingBlock: MIFKUJ_clean_linker_0, # of connection points: 2
#     Edge 8, Type (0, 1), BuildingBlock: MIFKUJ_clean_linker_0, # of connection points: 2
#     Edge 9, Type (0, 1), BuildingBlock: MIFKUJ_clean_linker_0, # of connection points: 2
#     Edge 10, Type (0, 1), BuildingBlock: MIFKUJ_clean_linker_0, # of connection points: 2
#     Edge 11, Type (0, 1), BuildingBlock: MIFKUJ_clean_linker_0, # of connection points: 2
#     Edge 12, Type (0, 1), BuildingBlock: MIFKUJ_clean_linker_0, # of connection points: 2
#     Edge 13, Type (0, 1), BuildingBlock: MIFKUJ_clean_linker_0, # of connection points: 2
#     Edge 14, Type (0, 1), BuildingBlock: MIFKUJ_clean_linker_0, # of connection points: 2
#     Edge 15, Type (0, 1), BuildingBlock: MIFKUJ_clean_linker_0, # of connection points: 2
#     Edge 16, Type (0, 1), BuildingBlock: MIFKUJ_clean_linker_0, # of connection points: 2
#     Edge 17, Type (0, 1), BuildingBlock: MIFKUJ_clean_linker_0, # of connection points: 2
# Relax obj value: 0.074
# Max RMSD: 0.154
# Mean RMSD: 0.083
data_MOF--net-rtl--node1-VOLQOD_clean_sbu_1--node2-BELTOD_clean_linker_0--edge1-MIFKUJ_clean_linker_0
_symmetry_space_group_name_H-M    P1
_symmetry_Int_Tables_number       1
_symmetry_cell_setting            triclinic
loop_
_symmetry_equiv_pos_as_xyz
'x, y, z'
_cell_length_a     52.33551
_cell_length_b     45.763586
_cell_length_c     33.583348
_cell_angle_alpha  89.180974
_cell_angle_beta   90.318614
_cell_angle_gamma 89.980402
loop_
_atom_site_label
_atom_site_type_symbol
_atom_site_fract_x
_atom_site_fract_y
_atom_site_fract_z
_atom_type_partial_charge
P0 P 0.16655 0.76342 0.00984 0.0
H1 H 0.17859 0.76805 0.0943 0.0
H2 H 0.1542 0.78628 0.15084 0.0
H3 H 0.08757 0.79546 0.07534 0.0
H4 H 0.11176 0.77691 0.01922 0.0
H5 H 0.19013 0.73073 0.94679 0.0
H6 H 0.2111 0.68325 0.94579 0.0
H7 H 0.18604 0.66598 0.06627 0.0
H8 H 0.16535 0.71386 0.06719 0.0
H9 H 0.16714 0.81835 0.96528 0.0
H10 H 0.12943 0.73489 0.95726 0.0
O11 O 0.19338 0.78286 0.01393 0.0
H12 H 0.14293 0.83635 0.90784 0.0
H13 H 0.10438 0.75305 0.90016 0.0
C14 C 0.14715 0.77147 0.05243 0.0
C15 C 0.15859 0.77341 0.09014 0.0
C16 C 0.14463 0.78372 0.12242 0.0
C17 C 0.11909 0.79253 0.11727 0.0
C18 C 0.10732 0.78912 0.07994 0.0
C19 C 0.12119 0.77847 0.04783 0.0
C20 C 0.17605 0.72577 0.00691 0.0
C21 C 0.18851 0.71638 0.97259 0.0
C22 C 0.20042 0.68912 0.97203 0.0
C23 C 0.20028 0.67079 0.006 0.0
C24 C 0.18667 0.6797 0.03976 0.0
C25 C 0.17472 0.70705 0.04024 0.0
C26 C 0.15038 0.77516 0.96501 0.0
C27 C 0.1538 0.80379 0.95085 0.0
C28 C 0.1397 0.81415 0.91826 0.0
C29 C 0.12154 0.79621 0.89957 0.0
C30 C 0.11839 0.76732 0.91358 0.0
C31 C 0.13267 0.75691 0.94619 0.0
P32 P 0.66516 0.74573 0.48786 0.0
H33 H 0.676 0.75173 0.40337 0.0
H34 H 0.6515 0.74002 0.34364 0.0
H35 H 0.58718 0.71546 0.41725 0.0
H36 H 0.61122 0.72897 0.47631 0.0
H37 H 0.69357 0.77316 0.55142 0.0
H38 H 0.71487 0.82047 0.55587 0.0
H39 H 0.68033 0.8473 0.4441 0.0
H40 H 0.65888 0.80005 0.43996 0.0
H41 H 0.65976 0.68601 0.516 0.0
H42 H 0.63515 0.77134 0.55275 0.0
O43 O 0.69193 0.7267 0.48089 0.0
H44 H 0.63748 0.66371 0.57221 0.0
H45 H 0.61339 0.74926 0.61016 0.0
C46 C 0.64556 0.74097 0.44425 0.0
C47 C 0.65643 0.74437 0.40647 0.0
C48 C 0.64245 0.7374 0.37238 0.0
C49 C 0.61743 0.72633 0.37552 0.0
C50 C 0.60625 0.72418 0.41349 0.0
C51 C 0.62014 0.73164 0.44751 0.0
C52 C 0.67475 0.78299 0.49534 0.0
C53 C 0.68993 0.78956 0.52851 0.0
C54 C 0.70201 0.81666 0.53109 0.0
C55 C 0.69932 0.83752 0.50022 0.0
C56 C 0.68285 0.83153 0.46816 0.0
C57 C 0.6706 0.80447 0.46579 0.0
C58 C 0.64965 0.73032 0.53089 0.0
C59 C 0.64989 0.69998 0.53666 0.0
C60 C 0.63719 0.68728 0.56891 0.0
C61 C 0.62391 0.70472 0.59606 0.0
C62 C 0.62336 0.7352 0.58976 0.0
C63 C 0.63602 0.74788 0.55723 0.0
P64 P 0.91247 0.33839 0.00129 0.0
H65 H 0.92628 0.3508 0.91859 0.0
H66 H 0.93513 0.31916 0.86191 0.0
H67 H 0.9203 0.24315 0.93588 0.0
H68 H 0.91108 0.27474 0.99201 0.0
H69 H 0.88735 0.39197 0.02623 0.0
H70 H 0.84263 0.40731 0.02691 0.0
H71 H 0.82078 0.3256 0.97333 0.0
H72 H 0.8654 0.31012 0.97403 0.0
H73 H 0.95626 0.3041 0.02795 0.0
H74 H 0.88387 0.3308 0.07629 0.0
O75 O 0.9316 0.36749 0.9984 0.0
H76 H 0.96479 0.27482 0.08778 0.0
H77 H 0.89272 0.30273 0.13698 0.0
C78 C 0.91882 0.31509 0.95976 0.0
C79 C 0.92504 0.32732 0.92257 0.0
C80 C 0.92994 0.30927 0.89022 0.0
C81 C 0.92872 0.27872 0.89473 0.0
C82 C 0.92188 0.2666 0.93183 0.0
C83 C 0.91668 0.28466 0.96394 0.0
C84 C 0.87972 0.35022 -0.00072 0.0
C85 C 0.87293 0.37751 0.0143 0.0
C86 C 0.84735 0.38627 0.01456 0.0
C87 C 0.82808 0.36777 -6e-05 0.0
C88 C 0.83506 0.34029 0.98515 0.0
C89 C 0.86063 0.33153 0.98511 0.0
C90 C 0.91926 0.31914 0.04729 0.0
C91 C 0.94233 0.3039 0.05168 0.0
C92 C 0.94725 0.28735 0.08613 0.0
C93 C 0.92937 0.28622 0.11727 0.0
C94 C 0.90667 0.30255 0.11331 0.0
C95 C 0.90165 0.31882 0.0786 0.0
P96 P 0.41203 0.17078 0.50592 0.0
H97 H 0.45209 0.16946 0.56744 0.0
H98 H 0.46078 0.20096 0.6242 0.0
H99 H 0.39131 0.24898 0.5989 0.0
H100 H 0.38305 0.21785 0.54193 0.0
H101 H 0.389 0.1159 0.53294 0.0
H102 H 0.34484 0.09837 0.53424 0.0
H103 H 0.31965 0.18008 0.48106 0.0
H104 H 0.36381 0.19707 0.47904 0.0
H105 H 0.4407 0.22557 0.49635 0.0
H106 H 0.39776 0.1671 0.42175 0.0
O107 O 0.43222 0.14259 0.50469 0.0
H108 H 0.4477 0.25815 0.43956 0.0
H109 H 0.40446 0.20001 0.36458 0.0
C110 C 0.41673 0.19106 0.55084 0.0
C111 C 0.43853 0.18646 0.57453 0.0
C112 C 0.44346 0.20446 0.60699 0.0
C113 C 0.42676 0.22751 0.61595 0.0
C114 C 0.40468 0.23162 0.59251 0.0
C115 C 0.39978 0.21361 0.56018 0.0
C116 C 0.3797 0.15749 0.50512 0.0
C117 C 0.37397 0.12986 0.52115 0.0
C118 C 0.3487 0.11999 0.52221 0.0
C119 C 0.32871 0.13778 0.50757 0.0
C120 C 0.33461 0.16561 0.49185 0.0
C121 C 0.35986 0.17539 0.49078 0.0
C122 C 0.41807 0.19427 0.46354 0.0
C123 C 0.43254 0.21982 0.46785 0.0
C124 C 0.43649 0.23854 0.43532 0.0
C125 C 0.4263 0.2319 0.39771 0.0
C126 C 0.41256 0.20573 0.39317 0.0
C127 C 0.40859 0.187 0.42584 0.0
O128 O 0.93621 0.02053 0.50774 0.0
Zn129 Zn 0.96797 0.04543 0.5074 0.0
O130 O 0.99879 0.02103 0.50728 0.0
Zn131 Zn 0.01827 0.02732 0.5562 0.0
Zn132 Zn 0.98946 0.97967 0.5041 0.0
Zn133 Zn 0.01969 0.03178 0.46139 0.0
O134 O 0.05447 0.03959 0.54428 0.0
O135 O 0.05479 0.04457 0.47844 0.0
O136 O 0.9673 0.07136 0.55547 0.0
O137 O 0.00229 0.05869 0.58917 0.0
O138 O 0.01994 0.99071 0.58974 0.0
O139 O 0.00139 0.95687 0.55274 0.0
O140 O 0.00505 0.96076 0.45617 0.0
O141 O 0.96646 0.07205 0.45887 0.0
O142 O 0.02413 0.99771 0.42473 0.0
O143 O 0.00382 0.06462 0.42969 0.0
C144 C 0.9326 0.99323 0.50343 0.0
C145 C 0.06602 0.04608 0.51207 0.0
C146 C 0.01289 0.96442 0.58449 0.0
C147 C 0.9822 0.07421 0.58528 0.0
C148 C 0.01784 0.97086 0.42693 0.0
C149 C 0.98249 0.07787 0.43146 0.0
O150 O 0.9512 0.97544 0.50033 0.0
O151 O 0.5611 0.48911 0.99911 0.0
Zn152 Zn 0.52897 0.51314 0.99842 0.0
O153 O 0.49854 0.48861 -0.0002 0.0
Zn154 Zn 0.47802 0.49591 0.95162 0.0
Zn155 Zn 0.50894 0.44753 0.00214 0.0
Zn156 Zn 0.47854 0.49796 0.04711 0.0
O157 O 0.44218 0.50826 0.96562 0.0
O158 O 0.44297 0.51042 0.03164 0.0
O159 O 0.52945 0.53852 0.94929 0.0
O160 O 0.49378 0.52744 0.91684 0.0
O161 O 0.47545 0.45962 0.91859 0.0
O162 O 0.49618 0.42588 0.95427 0.0
O163 O 0.49485 0.42743 0.05084 0.0
O164 O 0.53037 0.53973 0.04528 0.0
O165 O 0.47522 0.46272 0.08355 0.0
O166 O 0.49455 0.53072 0.07833 0.0
C167 C 0.56553 0.4618 0.00164 0.0
C168 C 0.43114 0.51323 0.99857 0.0
C169 C 0.48339 0.43349 0.92348 0.0
C170 C 0.51436 0.54214 0.91978 0.0
C171 C 0.48222 0.43617 0.0807 0.0
C172 C 0.51539 0.54477 0.07411 0.0
O173 O 0.54735 0.44335 0.00359 0.0
H174 H 0.30486 0.1079 0.56809 0.0
H175 H 0.26037 0.09175 0.57067 0.0
H176 H 0.24706 0.12878 0.45355 0.0
H177 H 0.29158 0.14472 0.45053 0.0
H178 H 0.20941 0.14316 0.5046 0.0
H179 H 0.25339 0.05596 0.46634 0.0
H180 H 0.28581 0.017 0.47217 0.0
H181 H 0.25562 0.991 0.5859 0.0
H182 H 0.22323 0.0301 0.581 0.0
H183 H 0.09363 0.07259 0.45298 0.0
H184 H 0.13825 0.08815 0.45545 0.0
H185 H 0.14442 0.05628 0.57658 0.0
H186 H 0.09963 0.04079 0.57458 0.0
H187 H 0.1854 0.03934 0.52698 0.0
H188 H 0.1405 0.12581 0.56395 0.0
H189 H 0.10783 0.16441 0.55727 0.0
H190 H 0.13964 0.19148 0.44508 0.0
H191 H 0.1723 0.15273 0.45081 0.0
C192 C 0.29256 0.1123 0.54267 0.0
C193 C 0.30179 0.12756 0.50906 0.0
C194 C 0.26711 0.10313 0.54426 0.0
C195 C 0.25046 0.1089 0.51219 0.0
C196 C 0.25958 0.1242 0.47868 0.0
C197 C 0.285 0.13336 0.47705 0.0
C198 C 0.22344 0.09929 0.51368 0.0
C199 C 0.20417 0.12041 0.50903 0.0
C200 C 0.21662 0.0697 0.52048 0.0
C201 C 0.23607 0.04616 0.5235 0.0
C202 C 0.25381 0.0421 0.49275 0.0
C203 C 0.27215 0.01996 0.49586 0.0
C204 C 0.27282 0.00159 0.52944 0.0
C205 C 0.25511 0.00528 0.55994 0.0
C206 C 0.23674 0.02741 0.557 0.0
C207 C 0.10443 0.06887 0.48019 0.0
C208 C 0.09305 0.05551 0.51363 0.0
C209 C 0.1299 0.07786 0.48156 0.0
C210 C 0.14452 0.0735 0.51627 0.0
C211 C 0.13339 0.05985 0.54955 0.0
C212 C 0.10779 0.05114 0.54838 0.0
C213 C 0.17147 0.08318 0.51756 0.0
C214 C 0.19069 0.06209 0.52274 0.0
C215 C 0.17826 0.11277 0.51116 0.0
C216 C 0.1587 0.13617 0.50763 0.0
C217 C 0.1404 0.13982 0.53768 0.0
C218 C 0.1219 0.16177 0.5341 0.0
C219 C 0.12162 0.18034 0.50072 0.0
C220 C 0.13987 0.17705 0.47089 0.0
C221 C 0.15839 0.15511 0.47431 0.0
H222 H 0.10729 0.19732 0.498 0.0
H223 H 0.28704 0.98446 0.53178 0.0
H224 H 0.23096 0.6522 0.06734 0.0
H225 H 0.26461 0.61542 0.06496 0.0
H226 H 0.24178 0.59362 0.94544 0.0
H227 H 0.20775 0.63027 0.9477 0.0
H228 H 0.2706 0.55599 0.04939 0.0
H229 H 0.29685 0.59121 0.89047 0.0
H230 H 0.29001 0.63271 0.84383 0.0
H231 H 0.28425 0.69123 0.94221 0.0
H232 H 0.29148 0.65018 0.98932 0.0
H233 H 0.39745 0.51461 0.93579 0.0
H234 H 0.35315 0.5316 0.93578 0.0
H235 H 0.35967 0.55128 0.0607 0.0
H236 H 0.40359 0.53364 0.06125 0.0
H237 H 0.33555 0.58376 0.9486 0.0
H238 H 0.30325 0.54649 0.10703 0.0
H239 H 0.31053 0.50524 0.15381 0.0
H240 H 0.32926 0.44965 0.05628 0.0
H241 H 0.32173 0.49041 0.00885 0.0
C242 C 0.23246 0.63892 0.04102 0.0
C243 C 0.21688 0.64445 0.00748 0.0
C244 C 0.25178 0.61791 0.03971 0.0
C245 C 0.25593 0.60217 0.00481 0.0
C246 C 0.23907 0.60586 0.97247 0.0
C247 C 0.21974 0.62688 0.97375 0.0
C248 C 0.27977 0.58506 0.00062 0.0
C249 C 0.28486 0.56198 0.02743 0.0
C250 C 0.2981 0.59259 0.9714 0.0
C251 C 0.29437 0.61757 0.94336 0.0
C252 C 0.29422 0.61296 0.90209 0.0
C253 C 0.29028 0.6364 0.87559 0.0
C254 C 0.2866 0.66456 0.89005 0.0
C255 C 0.28701 0.66939 0.93104 0.0
C256 C 0.29102 0.64605 0.95765 0.0
C257 C 0.38938 0.52232 0.96335 0.0
C258 C 0.40409 0.52276 0.99852 0.0
C259 C 0.36405 0.532 0.96329 0.0
C260 C 0.35293 0.54234 0.99834 0.0
C261 C 0.36757 0.54273 0.0335 0.0
C262 C 0.3928 0.53283 0.03368 0.0
C263 C 0.32669 0.55469 0.99768 0.0
C264 C 0.32117 0.57713 0.97005 0.0
C265 C 0.30802 0.54646 0.02612 0.0
C266 C 0.3121 0.52162 0.05439 0.0
C267 C 0.30877 0.52542 0.09552 0.0
C268 C 0.31298 0.50213 0.12217 0.0
C269 C 0.32042 0.47487 0.10803 0.0
C270 C 0.32358 0.4708 0.0672 0.0
C271 C 0.31937 0.49401 0.04043 0.0
H272 H 0.3237 0.45688 0.12871 0.0
H273 H 0.28349 0.68266 0.86949 0.0
H274 H 0.72762 0.85658 0.43749 0.0
H275 H 0.76293 0.89141 0.43898 0.0
H276 H 0.74619 0.91066 0.56132 0.0
H277 H 0.71079 0.87544 0.56029 0.0
H278 H 0.7666 0.96048 0.48717 0.0
H279 H 0.78459 0.8739 0.57692 0.0
H280 H 0.78141 0.82062 0.5883 0.0
H281 H 0.81867 0.80553 0.47684 0.0
H282 H 0.82167 0.85877 0.4646 0.0
H283 H 0.89009 0.016 0.53825 0.0
H284 H 0.84691 0.99554 0.53856 0.0
H285 H 0.87235 0.92508 0.46429 0.0
H286 H 0.91573 0.94457 0.46588 0.0
H287 H 0.84502 0.90317 0.51786 0.0
H288 H 0.83385 0.98613 0.43028 0.0
H289 H 0.83555 0.0381 0.41001 0.0
H290 H 0.78511 0.06003 0.50548 0.0
H291 H 0.78336 0.00821 0.52663 0.0
C292 C 0.73081 0.86898 0.46429 0.0
C293 C 0.71654 0.8632 0.49887 0.0
C294 C 0.751 0.88885 0.46506 0.0
C295 C 0.75705 0.90348 0.50022 0.0
C296 C 0.74161 0.89961 0.53387 0.0
C297 C 0.72157 0.87942 0.5333 0.0
C298 C 0.78192 0.91837 0.5035 0.0
C299 C 0.7838 0.94827 0.49457 0.0
C300 C 0.80423 0.90205 0.5118 0.0
C301 C 0.80317 0.87018 0.51975 0.0
C302 C 0.79197 0.85918 0.55479 0.0
C303 C 0.79021 0.82901 0.56139 0.0
C304 C 0.79979 0.8097 0.53328 0.0
C305 C 0.81124 0.82051 0.49857 0.0
C306 C 0.81298 0.85066 0.4918 0.0
C307 C 0.88637 0.99621 0.52188 0.0
C308 C 0.90624 0.9818 0.50213 0.0
C309 C 0.86165 0.98463 0.52184 0.0
C310 C 0.85619 0.95892 0.50102 0.0
C311 C 0.87603 0.94485 0.48074 0.0
C312 C 0.90082 0.95601 0.48159 0.0
C313 C 0.8302 0.9458 0.50159 0.0
C314 C 0.82802 0.9159 0.51101 0.0
C315 C 0.80774 0.9622 0.49303 0.0
C316 C 0.8087 0.99334 0.48028 0.0
C317 C 0.82327 0.00206 0.44712 0.0
C318 C 0.82422 0.03149 0.43545 0.0
C319 C 0.81051 0.05236 0.45651 0.0
C320 C 0.79575 0.04384 0.48923 0.0
C321 C 0.79476 0.01445 0.50105 0.0
H322 H 0.81127 0.07513 0.44743 0.0
H323 H 0.79839 0.78635 0.53841 0.0
H324 H 0.7861 0.33441 0.01802 0.0
H325 H 0.74134 0.34962 0.01837 0.0
H326 H 0.76355 0.43719 0.98441 0.0
H327 H 0.80834 0.42206 0.98316 0.0
H328 H 0.72897 0.43612 0.04592 0.0
H329 H 0.73793 0.39339 0.91662 0.0
H330 H 0.74921 0.35462 0.86959 0.0
H331 H 0.69487 0.29691 0.92491 0.0
H332 H 0.68352 0.33522 0.97267 0.0
H333 H 0.60886 0.49416 0.99027 0.0
H334 H 0.65301 0.47715 0.991 0.0
H335 H 0.6274 0.38916 0.01552 0.0
H336 H 0.58301 0.40588 0.01398 0.0
H337 H 0.66357 0.38924 0.96046 0.0
H338 H 0.65383 0.43139 0.08898 0.0
H339 H 0.6425 0.46947 0.137 0.0
H340 H 0.69814 0.52724 0.08509 0.0
H341 H 0.70956 0.48963 0.03637 0.0
C342 C 0.78147 0.35682 0.01014 0.0
C343 C 0.80084 0.37699 0.00041 0.0
C344 C 0.75588 0.3655 0.01051 0.0
C345 C 0.74914 0.39447 0.00114 0.0
C346 C 0.76838 0.41473 0.99183 0.0
C347 C 0.79397 0.40606 0.99128 0.0
C348 C 0.72202 0.40374 0.00127 0.0
C349 C 0.7147 0.42614 0.0269 0.0
C350 C 0.70333 0.3901 0.97726 0.0
C351 C 0.71007 0.36707 0.94848 0.0
C352 C 0.72854 0.37235 0.91898 0.0
C353 C 0.73491 0.35047 0.89215 0.0
C354 C 0.72281 0.32329 0.89433 0.0
C355 C 0.70426 0.31796 0.92329 0.0
C356 C 0.69783 0.33975 0.95023 0.0
C357 C 0.61256 0.47118 0.99591 0.0
C358 C 0.59236 0.45141 0.00224 0.0
C359 C 0.63786 0.46151 0.99648 0.0
C360 C 0.64355 0.43195 0.00391 0.0
C361 C 0.62345 0.41208 0.00984 0.0
C362 C 0.59809 0.4217 0.00903 0.0
C363 C 0.67048 0.42178 0.00499 0.0
C364 C 0.67778 0.39919 0.97961 0.0
C365 C 0.68914 0.43514 0.02943 0.0
C366 C 0.68238 0.45778 0.05878 0.0
C367 C 0.66352 0.45229 0.0876 0.0
C368 C 0.6571 0.47378 0.11498 0.0
C369 C 0.66955 0.50078 0.11403 0.0
C370 C 0.68849 0.50632 0.08576 0.0
C371 C 0.69496 0.48492 0.05828 0.0
H372 H 0.66455 0.51739 0.13526 0.0
H373 H 0.72777 0.30639 0.87352 0.0
H374 H 0.11494 0.77601 0.19575 0.0
H375 H 0.09537 0.80398 0.24965 0.0
H376 H 0.0744 0.87193 0.16537 0.0
H377 H 0.09355 0.84405 0.11153 0.0
H378 H 0.10292 0.89011 0.23586 0.0
H379 H 0.02926 0.8328 0.19677 0.0
H380 H 0.00644 0.78674 0.18389 0.0
H381 H 0.01926 0.75873 0.30493 0.0
H382 H 0.04251 0.80448 0.31838 0.0
H383 H 0.0292 0.98484 0.34988 0.0
H384 H 0.04429 0.95222 0.29817 0.0
H385 H 0.04152 0.87945 0.38129 0.0
H386 H 0.02511 0.91182 0.43257 0.0
H387 H 0.02632 0.8614 0.31349 0.0
H388 H 0.09902 0.91582 0.35537 0.0
H389 H 0.12427 0.95964 0.37136 0.0
H390 H 0.11731 0.9901 0.25026 0.0
H391 H 0.09171 0.94664 0.23366 0.0
C392 C 0.1059 0.79678 0.18879 0.0
C393 C 0.10563 0.80785 0.14953 0.0
C394 C 0.09471 0.81264 0.21947 0.0
C395 C 0.08347 0.83994 0.21132 0.0
C396 C 0.08296 0.85085 0.17212 0.0
C397 C 0.09374 0.83484 0.14143 0.0
C398 C 0.07336 0.85795 0.24383 0.0
C399 C 0.08601 0.88407 0.25262 0.0
C400 C 0.05192 0.84935 0.26651 0.0
C401 C 0.03788 0.82191 0.25845 0.0
C402 C 0.02744 0.81669 0.22053 0.0
C403 C 0.01437 0.79067 0.21315 0.0
C404 C 0.01147 0.76978 0.24354 0.0
C405 C 0.02156 0.77491 0.28141 0.0
C406 C 0.03467 0.80089 0.28893 0.0
C407 C 0.03173 0.96187 0.35707 0.0
C408 C 0.02617 0.95091 0.39532 0.0
C409 C 0.0405 0.94324 0.32756 0.0
C410 C 0.04468 0.91344 0.33603 0.0
C411 C 0.03856 0.90234 0.37401 0.0
C412 C 0.02923 0.92087 0.40332 0.0
C413 C 0.05566 0.89403 0.30538 0.0
C414 C 0.04329 0.86754 0.29697 0.0
C415 C 0.07777 0.90196 0.28356 0.0
C416 C 0.09326 0.92809 0.29337 0.0
C417 C 0.10273 0.93196 0.33221 0.0
C418 C 0.11713 0.95672 0.34138 0.0
C419 C 0.12234 0.97768 0.31187 0.0
C420 C 0.11323 0.97387 0.2731 0.0
C421 C 0.0988 0.94916 0.26378 0.0
H422 H 0.13349 0.99683 0.31902 0.0
H423 H 0.00134 0.74965 0.23777 0.0
H424 H 0.57712 0.71871 0.62732 0.0
H425 H 0.55508 0.69442 0.68282 0.0
H426 H 0.61847 0.63495 0.69759 0.0
H427 H 0.64084 0.6594 0.64303 0.0
H428 H 0.57222 0.60657 0.69624 0.0
H429 H 0.61132 0.68913 0.76087 0.0
H430 H 0.62001 0.74151 0.77063 0.0
H431 H 0.54009 0.75724 0.78919 0.0
H432 H 0.53089 0.70497 0.77899 0.0
H433 H 0.55466 0.58006 0.91897 0.0
H434 H 0.56889 0.61123 0.86396 0.0
H435 H 0.50479 0.58315 0.7929 0.0
H436 H 0.49045 0.55155 0.84778 0.0
H437 H 0.54816 0.65661 0.8207 0.0
H438 H 0.5271 0.57425 0.6977 0.0
H439 H 0.52069 0.52119 0.68987 0.0
H440 H 0.56926 0.50405 0.791 0.0
H441 H 0.57622 0.55696 0.79908 0.0
C442 C 0.58652 0.70072 0.64274 0.0
C443 C 0.61071 0.6909 0.63058 0.0
C444 C 0.57384 0.68679 0.67429 0.0
C445 C 0.58514 0.66286 0.69417 0.0
C446 C 0.60933 0.65321 0.68236 0.0
C447 C 0.62204 0.66717 0.65107 0.0
C448 C 0.57185 0.6475 0.72716 0.0
C449 C 0.56678 0.61756 0.72333 0.0
C450 C 0.56486 0.66184 0.76251 0.0
C451 C 0.57039 0.69322 0.76872 0.0
C452 C 0.59558 0.70381 0.76668 0.0
C453 C 0.6006 0.73346 0.77236 0.0
C454 C 0.58061 0.75271 0.7804 0.0
C455 C 0.55556 0.74231 0.78289 0.0
C456 C 0.55043 0.71268 0.77718 0.0
C457 C 0.54341 0.58063 0.8918 0.0
C458 C 0.52156 0.56301 0.88764 0.0
C459 C 0.55151 0.59864 0.86047 0.0
C460 C 0.53803 0.59929 0.82428 0.0
C461 C 0.51559 0.58272 0.82051 0.0
C462 C 0.50742 0.56471 0.85192 0.0
C463 C 0.54864 0.61567 0.7898 0.0
C464 C 0.5532 0.64576 0.79332 0.0
C465 C 0.55546 0.60142 0.75429 0.0
C466 C 0.55192 0.56954 0.74923 0.0
C467 C 0.53648 0.55913 0.71815 0.0
C468 C 0.53275 0.5291 0.71369 0.0
C469 C 0.54448 0.50928 0.74002 0.0
C470 C 0.5601 0.51943 0.77072 0.0
C471 C 0.56393 0.54944 0.77528 0.0
H472 H 0.54149 0.48607 0.73658 0.0
H473 H 0.58454 0.77566 0.7848 0.0
H474 H 0.97481 0.27578 0.15626 0.0
H475 H 0.98282 0.24156 0.21144 0.0
H476 H 0.90266 0.22024 0.21551 0.0
H477 H 0.8945 0.25349 0.1593 0.0
H478 H 0.92662 0.2294 0.29227 0.0
H479 H 0.93827 0.17492 0.17159 0.0
H480 H 0.9566 0.16611 0.10535 0.0
H481 H 0.03214 0.16561 0.15591 0.0
H482 H 0.01427 0.17488 0.2224 0.0
H483 H 0.93548 0.09994 0.41111 0.0
H484 H 0.92565 0.13664 0.35964 0.0
H485 H 0.00596 0.14453 0.33288 0.0
H486 H 0.01576 0.10706 0.38303 0.0
H487 H 0.98104 0.14284 0.2673 0.0
H488 H 0.97131 0.19727 0.38709 0.0
H489 H 0.95465 0.20793 0.45388 0.0
H490 H 0.87819 0.21089 0.40698 0.0
H491 H 0.89436 0.19987 0.33997 0.0
C492 C 0.95886 0.26371 0.16864 0.0
C493 C 0.93403 0.26728 0.153 0.0
C494 C 0.96347 0.24434 0.20037 0.0
C495 C 0.94334 0.22832 0.21729 0.0
C496 C 0.91841 0.23253 0.20287 0.0
C497 C 0.9138 0.25167 0.17084 0.0
C498 C 0.9485 0.20619 0.24885 0.0
C499 C 0.93826 0.21026 0.28685 0.0
C500 C 0.9642 0.18169 0.24179 0.0
C501 C 0.97495 0.17589 0.20189 0.0
C502 C 0.95881 0.17318 0.16853 0.0
C503 C 0.96911 0.16806 0.13095 0.0
C504 C 0.99553 0.16538 0.1264 0.0
C505 C 0.01169 0.16774 0.15946 0.0
C506 C 0.00148 0.1729 0.1971 0.0
C507 C 0.95104 0.10958 0.39432 0.0
C508 C 0.97639 0.1006 0.40112 0.0
C509 C 0.94541 0.13069 0.36504 0.0
C510 C 0.9651 0.14371 0.34269 0.0
C511 C 0.99043 0.13481 0.34964 0.0
C512 C 0.99601 0.11339 0.37839 0.0
C513 C 0.95937 0.166 0.31127 0.0
C514 C 0.96944 0.16195 0.27306 0.0
C515 C 0.9438 0.19072 0.31837 0.0
C516 C 0.93402 0.19746 0.35859 0.0
C517 C 0.95092 0.19999 0.39108 0.0
C518 C 0.94157 0.20613 0.42897 0.0
C519 C 0.91537 0.21001 0.43469 0.0
C520 C 0.89847 0.20784 0.40251 0.0
C521 C 0.90772 0.20167 0.36456 0.0
H522 H 0.90817 0.21476 0.46405 0.0
H523 H 0.00347 0.16142 0.09729 0.0
H524 H 0.44505 0.21442 0.69074 0.0
H525 H 0.45548 0.24862 0.74387 0.0
H526 H 0.43232 0.32086 0.66801 0.0
H527 H 0.42251 0.28695 0.61453 0.0
H528 H 0.47689 0.3321 0.70552 0.0
H529 H 0.39371 0.29641 0.7415 0.0
H530 H 0.36134 0.25886 0.757 0.0
H531 H 0.40687 0.22789 0.85564 0.0
H532 H 0.43971 0.26502 0.84037 0.0
H533 H 0.46337 0.44304 0.84898 0.0
H534 H 0.45481 0.40688 0.79777 0.0
H535 H 0.48219 0.33834 0.87649 0.0
H536 H 0.49084 0.37432 0.928 0.0
H537 H 0.43677 0.32412 0.83877 0.0
H538 H 0.51944 0.3606 0.80372 0.0
H539 H 0.55183 0.3981 0.78816 0.0
H540 H 0.50714 0.42777 0.68788 0.0
H541 H 0.47428 0.39065 0.70316 0.0
C542 C 0.44232 0.23761 0.68535 0.0
C543 C 0.43281 0.24798 0.64855 0.0
C544 C 0.4481 0.25709 0.7158 0.0
C545 C 0.44443 0.28725 0.70998 0.0
C546 C 0.43521 0.29767 0.67315 0.0
C547 C 0.42939 0.27824 0.64277 0.0
C548 C 0.4503 0.30807 0.74216 0.0
C549 C 0.46789 0.33057 0.7345 0.0
C550 C 0.43901 0.30561 0.78026 0.0
C551 C 0.41929 0.28328 0.78952 0.0
C552 C 0.39693 0.28143 0.76628 0.0
C553 C 0.37847 0.26026 0.77507 0.0
C554 C 0.38208 0.24095 0.80721 0.0
C555 C 0.40413 0.24283 0.8307 0.0
C556 C 0.42265 0.26394 0.82202 0.0
C557 C 0.46755 0.42028 0.85549 0.0
C558 C 0.47786 0.41159 0.89257 0.0
C559 C 0.46274 0.39968 0.82612 0.0
C560 C 0.46807 0.37001 0.83328 0.0
C561 C 0.47799 0.36116 0.87041 0.0
C562 C 0.48299 0.38178 0.89973 0.0
C563 C 0.4632 0.34823 0.80198 0.0
C564 C 0.44581 0.32557 0.80981 0.0
C565 C 0.47465 0.35056 0.76402 0.0
C566 C 0.49429 0.37301 0.75481 0.0
C567 C 0.5164 0.37529 0.77857 0.0
C568 C 0.53487 0.39644 0.76975 0.0
C569 C 0.53153 0.41532 0.73708 0.0
C570 C 0.50969 0.41312 0.71318 0.0
C571 C 0.49115 0.39201 0.72188 0.0
H572 H 0.54591 0.43157 0.73021 0.0
H573 H 0.36777 0.22457 0.81397 0.0
H574 H 0.56601 0.72876 0.3576 0.0
H575 H 0.54373 0.70417 0.30322 0.0
H576 H 0.61582 0.67371 0.25821 0.0
H577 H 0.63814 0.69699 0.31299 0.0
H578 H 0.58117 0.69422 0.19809 0.0
H579 H 0.5835 0.62989 0.31527 0.0
H580 H 0.57451 0.61794 0.38565 0.0
H581 H 0.49428 0.63099 0.36452 0.0
H582 H 0.50288 0.64344 0.29409 0.0
H583 H 0.56236 0.56901 0.08558 0.0
H584 H 0.57452 0.60588 0.13361 0.0
H585 H 0.49683 0.60948 0.17573 0.0
H586 H 0.48466 0.57159 0.12846 0.0
H587 H 0.52755 0.60897 0.23611 0.0
H588 H 0.52356 0.66572 0.11703 0.0
H589 H 0.5315 0.67867 0.04667 0.0
H590 H 0.61217 0.68237 0.07 0.0
H591 H 0.60477 0.66903 0.1404 0.0
C592 C 0.57715 0.71686 0.33614 0.0
C593 C 0.60391 0.71476 0.33996 0.0
C594 C 0.56439 0.70302 0.30495 0.0
C595 C 0.57817 0.68707 0.27691 0.0
C596 C 0.60488 0.6861 0.27946 0.0
C597 C 0.61762 0.6996 0.31079 0.0
C598 C 0.56493 0.66942 0.24658 0.0
C599 C 0.56945 0.67554 0.20623 0.0
C600 C 0.54901 0.64569 0.25739 0.0
C601 C 0.54385 0.63793 0.29959 0.0
C602 C 0.56397 0.63044 0.32573 0.0
C603 C 0.55894 0.62354 0.3656 0.0
C604 C 0.53385 0.6238 0.37958 0.0
C605 C 0.51372 0.63086 0.35367 0.0
C606 C 0.51865 0.63784 0.31378 0.0
C607 C 0.54779 0.57771 0.1049 0.0
C608 C 0.52252 0.56743 0.10312 0.0
C609 C 0.55474 0.599 0.1322 0.0
C610 C 0.53649 0.61099 0.15773 0.0
C611 C 0.51122 0.60069 0.15616 0.0
C612 C 0.5043 0.57903 0.12917 0.0
C613 C 0.54424 0.63322 0.18723 0.0
C614 C 0.53875 0.62797 0.22759 0.0
C615 C 0.55902 0.65799 0.17631 0.0
C616 C 0.5636 0.6662 0.134 0.0
C617 C 0.54301 0.66911 0.10712 0.0
C618 C 0.54742 0.67655 0.06722 0.0
C619 C 0.57233 0.6813 0.05386 0.0
C620 C 0.59288 0.67869 0.0804 0.0
C621 C 0.58859 0.67123 0.12032 0.0
H622 H 0.5757 0.68705 0.02296 0.0
H623 H 0.52999 0.61844 0.41047 0.0
H624 H 0.91091 0.28274 0.81816 0.0
H625 H 0.92006 0.24972 0.76308 0.0
H626 H 0.96917 0.19835 0.8403 0.0
H627 H 0.96007 0.2312 0.8954 0.0
H628 H 0.9902 0.21088 0.7642 0.0
H629 H 0.91233 0.17376 0.82287 0.0
H630 H 0.86784 0.17751 0.84605 0.0
H631 H 0.84329 0.20197 0.72799 0.0
H632 H 0.88773 0.19878 0.70423 0.0
H633 H 0.00464 0.08037 0.65837 0.0
H634 H 0.99535 0.11697 0.70833 0.0
H635 H 0.9377 0.15497 0.63118 0.0
H636 H 0.94639 0.11785 0.58138 0.0
H637 H 0.92064 0.15205 0.7043 0.0
H638 H 0.99704 0.18734 0.64372 0.0
H639 H 0.04126 0.1849 0.61903 0.0
H640 H 0.06853 0.16635 0.73753 0.0
H641 H 0.02441 0.16826 0.76287 0.0
C642 C 0.92379 0.26451 0.82323 0.0
C643 C 0.93471 0.2594 0.86102 0.0
C644 C 0.9289 0.24564 0.79188 0.0
C645 C 0.94518 0.22156 0.79778 0.0
C646 C 0.95654 0.21682 0.83523 0.0
C647 C 0.95121 0.23545 0.86667 0.0
C648 C 0.95003 0.2009 0.76518 0.0
C649 C 0.97508 0.19779 0.75129 0.0
C650 C 0.93011 0.18454 0.74767 0.0
C651 C 0.90339 0.18636 0.76188 0.0
C652 C 0.89748 0.1802 0.80193 0.0
C653 C 0.87227 0.18217 0.81516 0.0
C654 C 0.85276 0.19006 0.78854 0.0
C655 C 0.85843 0.19592 0.7486 0.0
C656 C 0.88362 0.19401 0.73523 0.0
C657 C 0.98998 0.09651 0.65195 0.0
C658 C 0.97633 0.09624 0.61578 0.0
C659 C 0.98479 0.11754 0.6805 0.0
C660 C 0.96614 0.13907 0.67323 0.0
C661 C 0.95223 0.13864 0.63738 0.0
C662 C 0.95725 0.11742 0.60893 0.0
C663 C 0.96095 0.16172 0.70336 0.0
C664 C 0.93581 0.16525 0.71687 0.0
C665 C 0.98078 0.17871 0.72021 0.0
C666 C 0.00737 0.1777 0.70514 0.0
C667 C 0.01244 0.18253 0.66448 0.0
C668 C 0.03749 0.18128 0.65037 0.0
C669 C 0.05768 0.17541 0.67668 0.0
C670 C 0.05287 0.17087 0.71718 0.0
C671 C 0.02784 0.17206 0.73144 0.0
H672 H 0.07706 0.17444 0.66569 0.0
H673 H 0.83325 0.19157 0.79883 0.0
H674 H 0.43844 0.21866 0.32078 0.0
H675 H 0.44584 0.25278 0.26524 0.0
H676 H 0.43046 0.32538 0.34206 0.0
H677 H 0.42235 0.29142 0.39738 0.0
H678 H 0.40802 0.33272 0.26919 0.0
H679 H 0.49113 0.30667 0.32133 0.0
H680 H 0.52536 0.27254 0.34194 0.0
H681 H 0.52862 0.23902 0.2233 0.0
H682 H 0.49414 0.2727 0.20211 0.0
H683 H 0.4632 0.4475 0.15471 0.0
H684 H 0.4522 0.41218 0.20707 0.0
H685 H 0.47401 0.34146 0.13069 0.0
H686 H 0.48577 0.37663 0.07866 0.0
H687 H 0.49227 0.33219 0.20219 0.0
H688 H 0.41023 0.35903 0.14889 0.0
H689 H 0.37598 0.39298 0.1278 0.0
H690 H 0.37018 0.42449 0.24722 0.0
H691 H 0.40466 0.39101 0.26893 0.0
C692 C 0.43633 0.24187 0.3257 0.0
C693 C 0.43 0.25236 0.36354 0.0
C694 C 0.44075 0.26134 0.29404 0.0
C695 C 0.439 0.29162 0.29969 0.0
C696 C 0.432 0.30211 0.33711 0.0
C697 C 0.42761 0.28268 0.36877 0.0
C698 C 0.44511 0.31246 0.26695 0.0
C699 C 0.42651 0.33283 0.25475 0.0
C700 C 0.46905 0.31212 0.2476 0.0
C701 C 0.48988 0.29199 0.26024 0.0
C702 C 0.49901 0.29187 0.29971 0.0
C703 C 0.51848 0.27263 0.31149 0.0
C704 C 0.52911 0.25357 0.28398 0.0
C705 C 0.52034 0.25377 0.2446 0.0
C706 C 0.50085 0.27294 0.23268 0.0
C707 C 0.46561 0.42442 0.14901 0.0
C708 C 0.47534 0.41489 0.11247 0.0
C709 C 0.45918 0.40424 0.17892 0.0
C710 C 0.46192 0.37412 0.17261 0.0
C711 C 0.47171 0.36458 0.13622 0.0
C712 C 0.4784 0.38474 0.10648 0.0
C713 C 0.45517 0.35255 0.20425 0.0
C714 C 0.47369 0.33204 0.21637 0.0
C715 C 0.43111 0.3527 0.22337 0.0
C716 C 0.4102 0.37268 0.21046 0.0
C717 C 0.40177 0.37333 0.1706 0.0
C718 C 0.3823 0.39247 0.15854 0.0
C719 C 0.37095 0.41093 0.18613 0.0
C720 C 0.37901 0.41021 0.22587 0.0
C721 C 0.39849 0.39113 0.23808 0.0
H722 H 0.35589 0.42575 0.17673 0.0
H723 H 0.54418 0.23869 0.29315 0.0
H724 H 0.10699 0.76906 0.83052 0.0
H725 H 0.08216 0.79 0.77501 0.0
H726 H 0.07599 0.87132 0.83774 0.0
H727 H 0.09964 0.85022 0.89377 0.0
H728 H 0.03224 0.85931 0.8025 0.0
H729 H 0.12165 0.85956 0.76438 0.0
H730 H 0.16329 0.83663 0.75068 0.0
H731 H 0.12845 0.78352 0.66107 0.0
H732 H 0.08652 0.80591 0.67461 0.0
H733 H 0.02599 0.97396 0.66186 0.0
H734 H 0.03786 0.93777 0.71269 0.0
H735 H 0.0255 0.86855 0.62896 0.0
H736 H 0.01332 0.90476 0.57767 0.0
H737 H 0.07288 0.86546 0.66952 0.0
H738 H 0.98464 0.87356 0.70054 0.0
H739 H 0.9441 0.89891 0.71398 0.0
H740 H 0.97752 0.93851 0.81702 0.0
H741 H 0.01841 0.91374 0.80388 0.0
C742 C 0.1 0.79125 0.8327 0.0
C743 C 0.1056 0.80811 0.86636 0.0
C744 C 0.08599 0.80326 0.80083 0.0
C745 C 0.07752 0.83238 0.80197 0.0
C746 C 0.08238 0.84884 0.8361 0.0
C747 C 0.0962 0.83685 0.86794 0.0
C748 C 0.06453 0.84645 0.7673 0.0
C749 C 0.04114 0.86069 0.77344 0.0
C750 C 0.07575 0.84753 0.72902 0.0
C751 C 0.10093 0.83412 0.72085 0.0
C752 C 0.12285 0.84283 0.74197 0.0
C753 C 0.1465 0.82996 0.7342 0.0
C754 C 0.1485 0.80856 0.70512 0.0
C755 C 0.12686 0.80004 0.68366 0.0
C756 C 0.10316 0.81281 0.69136 0.0
C757 C 0.0256 0.95104 0.65424 0.0
C758 C 0.01875 0.94223 0.6157 0.0
C759 C 0.03226 0.93038 0.68341 0.0
C760 C 0.03236 0.90051 0.67462 0.0
C761 C 0.02541 0.89153 0.63629 0.0
C762 C 0.01841 0.91222 0.60713 0.0
C763 C 0.04111 0.87911 0.70522 0.0
C764 C 0.06368 0.86351 0.69831 0.0
C765 C 0.02926 0.87701 0.74289 0.0
C766 C 0.00466 0.89189 0.75106 0.0
C767 C 0.98342 0.88784 0.7259 0.0
C768 C 0.96036 0.90208 0.7335 0.0
C769 C 0.95825 0.92034 0.7663 0.0
C770 C 0.97919 0.92436 0.79162 0.0
C771 C 0.0023 0.91018 0.78414 0.0
H772 H 0.94038 0.93135 0.77213 0.0
H773 H 0.16683 0.79863 0.69914 0.0
loop_
_geom_bond_atom_site_label_1
_geom_bond_atom_site_label_2
_geom_bond_distance
_geom_bond_site_symmetry_2
_ccdc_geom_bond_type
P0 O11 1.490 . S
P0 C14 1.812 . S
P0 C20 1.803 . S
P0 C26 1.819 1_554 S
H1 C15 0.941 . S
H2 C16 0.939 . S
H3 C18 0.940 . S
H4 C19 0.940 . S
H5 C21 0.939 . S
H6 C22 0.942 . S
H7 C24 0.940 . S
H8 C25 0.939 . S
H9 C27 0.941 . S
H10 C31 0.939 . S
O11 P0 1.490 . S
H12 C28 0.939 . S
H13 C30 0.940 . S
C14 P0 1.812 . S
C14 C15 1.389 . S
C14 C19 1.391 . S
C15 H1 0.941 . S
C15 C14 1.389 . S
C15 C16 1.397 . S
C16 H2 0.939 . S
C16 C15 1.397 . S
C16 C17 1.378 . S
C17 C16 1.378 . S
C17 C18 1.378 . S
C18 H3 0.940 . S
C18 C17 1.378 . S
C18 C19 1.396 . S
C19 H4 0.940 . S
C19 C14 1.391 . S
C19 C18 1.396 . S
C20 P0 1.803 . S
C20 C21 1.378 1_554 S
C20 C25 1.400 . S
C21 H5 0.939 . S
C21 C20 1.378 1_556 S
C21 C22 1.361 . S
C22 H6 0.942 . S
C22 C21 1.361 . S
C22 C23 1.369 1_556 S
C23 C22 1.369 1_554 S
C23 C24 1.404 . S
C24 H7 0.940 . S
C24 C23 1.404 . S
C24 C25 1.389 . S
C25 H8 0.939 . S
C25 C20 1.400 . S
C25 C24 1.389 . S
C26 P0 1.819 1_556 S
C26 C27 1.391 . S
C26 C31 1.391 . S
C27 H9 0.941 . S
C27 C26 1.391 . S
C27 C28 1.396 . S
C28 H12 0.939 . S
C28 C27 1.396 . S
C28 C29 1.397 . S
C29 C28 1.397 . S
C29 C30 1.385 . S
C30 H13 0.940 . S
C30 C29 1.385 . S
C30 C31 1.388 . S
C31 H10 0.939 . S
C31 C26 1.391 . S
C31 C30 1.388 . S
P32 O43 1.490 . S
P32 C46 1.812 . S
P32 C52 1.803 . S
P32 C58 1.819 . S
H33 C47 0.941 . S
H34 C48 0.939 . S
H35 C50 0.940 . S
H36 C51 0.940 . S
H37 C53 0.939 . S
H38 C54 0.942 . S
H39 C56 0.940 . S
H40 C57 0.939 . S
H41 C59 0.941 . S
H42 C63 0.939 . S
O43 P32 1.490 . S
H44 C60 0.939 . S
H45 C62 0.940 . S
C46 P32 1.812 . S
C46 C47 1.389 . S
C46 C51 1.391 . S
C47 H33 0.941 . S
C47 C46 1.389 . S
C47 C48 1.397 . S
C48 H34 0.939 . S
C48 C47 1.397 . S
C48 C49 1.378 . S
C49 C48 1.378 . S
C49 C50 1.378 . S
C50 H35 0.940 . S
C50 C49 1.378 . S
C50 C51 1.396 . S
C51 H36 0.940 . S
C51 C46 1.391 . S
C51 C50 1.396 . S
C52 P32 1.803 . S
C52 C53 1.378 . S
C52 C57 1.400 . S
C53 H37 0.939 . S
C53 C52 1.378 . S
C53 C54 1.361 . S
C54 H38 0.942 . S
C54 C53 1.361 . S
C54 C55 1.369 . S
C55 C54 1.369 . S
C55 C56 1.404 . S
C56 H39 0.940 . S
C56 C55 1.404 . S
C56 C57 1.389 . S
C57 H40 0.939 . S
C57 C52 1.400 . S
C57 C56 1.389 . S
C58 P32 1.819 . S
C58 C59 1.391 . S
C58 C63 1.391 . S
C59 H41 0.941 . S
C59 C58 1.391 . S
C59 C60 1.396 . S
C60 H44 0.939 . S
C60 C59 1.396 . S
C60 C61 1.397 . S
C61 C60 1.397 . S
C61 C62 1.385 . S
C62 H45 0.940 . S
C62 C61 1.385 . S
C62 C63 1.388 . S
C63 H42 0.939 . S
C63 C58 1.391 . S
C63 C62 1.388 . S
P64 O75 1.490 . S
P64 C78 1.812 . S
P64 C84 1.803 . S
P64 C90 1.819 1_556 S
H65 C79 0.941 . S
H66 C80 0.939 . S
H67 C82 0.940 . S
H68 C83 0.940 . S
H69 C85 0.939 . S
H70 C86 0.942 . S
H71 C88 0.940 . S
H72 C89 0.939 . S
H73 C91 0.941 . S
H74 C95 0.939 . S
O75 P64 1.490 . S
H76 C92 0.939 . S
H77 C94 0.940 . S
C78 P64 1.812 . S
C78 C79 1.389 . S
C78 C83 1.391 . S
C79 H65 0.941 . S
C79 C78 1.389 . S
C79 C80 1.397 . S
C80 H66 0.939 . S
C80 C79 1.397 . S
C80 C81 1.378 . S
C81 C80 1.378 . S
C81 C82 1.378 . S
C82 H67 0.940 . S
C82 C81 1.378 . S
C82 C83 1.396 . S
C83 H68 0.940 . S
C83 C78 1.391 . S
C83 C82 1.396 . S
C84 P64 1.803 . S
C84 C85 1.378 1_556 S
C84 C89 1.400 . S
C85 H69 0.939 . S
C85 C84 1.378 1_554 S
C85 C86 1.361 . S
C86 H70 0.942 . S
C86 C85 1.361 . S
C86 C87 1.375 . S
C87 C86 1.375 . S
C87 C88 1.398 1_554 S
C88 H71 0.940 . S
C88 C87 1.398 1_556 S
C88 C89 1.389 . S
C89 H72 0.939 . S
C89 C84 1.400 . S
C89 C88 1.389 . S
C90 P64 1.819 1_554 S
C90 C91 1.391 . S
C90 C95 1.391 . S
C91 H73 0.941 . S
C91 C90 1.391 . S
C91 C92 1.396 . S
C92 H76 0.939 . S
C92 C91 1.396 . S
C92 C93 1.397 . S
C93 C92 1.397 . S
C93 C94 1.385 . S
C94 H77 0.940 . S
C94 C93 1.385 . S
C94 C95 1.388 . S
C95 H74 0.939 . S
C95 C90 1.391 . S
C95 C94 1.388 . S
P96 O107 1.490 . S
P96 C110 1.812 . S
P96 C116 1.803 . S
P96 C122 1.819 . S
H97 C111 0.941 . S
H98 C112 0.939 . S
H99 C114 0.940 . S
H100 C115 0.940 . S
H101 C117 0.939 . S
H102 C118 0.942 . S
H103 C120 0.940 . S
H104 C121 0.939 . S
H105 C123 0.941 . S
H106 C127 0.939 . S
O107 P96 1.490 . S
H108 C124 0.939 . S
H109 C126 0.940 . S
C110 P96 1.812 . S
C110 C111 1.389 . S
C110 C115 1.391 . S
C111 H97 0.941 . S
C111 C110 1.389 . S
C111 C112 1.397 . S
C112 H98 0.939 . S
C112 C111 1.397 . S
C112 C113 1.378 . S
C113 C112 1.378 . S
C113 C114 1.378 . S
C114 H99 0.940 . S
C114 C113 1.378 . S
C114 C115 1.396 . S
C115 H100 0.940 . S
C115 C110 1.391 . S
C115 C114 1.396 . S
C116 P96 1.803 . S
C116 C117 1.378 . S
C116 C121 1.400 . S
C117 H101 0.939 . S
C117 C116 1.378 . S
C117 C118 1.361 . S
C118 H102 0.942 . S
C118 C117 1.361 . S
C118 C119 1.369 . S
C119 C118 1.369 . S
C119 C120 1.404 . S
C120 H103 0.940 . S
C120 C119 1.404 . S
C120 C121 1.389 . S
C121 H104 0.939 . S
C121 C116 1.400 . S
C121 C120 1.389 . S
C122 P96 1.819 . S
C122 C123 1.391 . S
C122 C127 1.391 . S
C123 H105 0.941 . S
C123 C122 1.391 . S
C123 C124 1.396 . S
C124 H108 0.939 . S
C124 C123 1.396 . S
C124 C125 1.397 . S
C125 C124 1.397 . S
C125 C126 1.385 . S
C126 H109 0.940 . S
C126 C125 1.385 . S
C126 C127 1.388 . S
C127 H106 0.939 . S
C127 C122 1.391 . S
C127 C126 1.388 . S
O128 Zn129 1.953 1_565 S
O128 C144 1.225 . S
Zn129 O128 1.953 1_545 S
Zn129 O130 1.949 1_655 S
Zn129 O136 1.919 . S
Zn129 O141 1.924 . S
O130 Zn129 1.949 1_455 S
O130 Zn131 1.923 . S
O130 Zn132 1.950 1_545 S
O130 Zn133 1.945 . S
Zn131 O130 1.923 . S
Zn131 O134 1.933 . S
Zn131 O137 1.941 . S
Zn131 O138 1.965 1_545 S
Zn132 O130 1.950 1_565 S
Zn132 O139 1.938 . S
Zn132 O140 1.906 . S
Zn132 O150 1.953 1_455 S
Zn133 O130 1.945 . S
Zn133 O135 1.932 . S
Zn133 O142 1.977 1_545 S
Zn133 O143 1.922 . S
O134 Zn131 1.933 . S
O134 C145 1.226 . S
O135 Zn133 1.932 . S
O135 C145 1.307 . S
O136 Zn129 1.919 . S
O136 C147 1.253 . S
O137 Zn131 1.941 . S
O137 C147 1.283 1_455 S
O138 Zn131 1.965 1_565 S
O138 C146 1.303 . S
O139 Zn132 1.938 . S
O139 C146 1.247 . S
O140 Zn132 1.906 . S
O140 C148 1.304 . S
O141 Zn129 1.924 . S
O141 C149 1.311 . S
O142 Zn133 1.977 1_565 S
O142 C148 1.272 . S
O143 Zn133 1.922 . S
O143 C149 1.213 1_455 S
C144 O128 1.225 . S
C144 O150 1.298 . S
C145 O134 1.226 . S
C145 O135 1.307 . S
C146 O138 1.303 . S
C146 O139 1.247 . S
C147 O136 1.253 . S
C147 O137 1.283 1_655 S
C148 O140 1.304 . S
C148 O142 1.272 . S
C149 O141 1.311 . S
C149 O143 1.213 1_655 S
O150 Zn132 1.953 1_655 S
O150 C144 1.298 . S
O151 Zn152 1.953 . S
O151 C167 1.225 1_556 S
Zn152 O151 1.953 . S
Zn152 O153 1.949 1_556 S
Zn152 O159 1.919 . S
Zn152 O164 1.924 1_556 S
O153 Zn152 1.949 1_554 S
O153 Zn154 1.923 1_554 S
O153 Zn155 1.950 . S
O153 Zn156 1.945 . S
Zn154 O153 1.923 1_556 S
Zn154 O157 1.933 . S
Zn154 O160 1.941 . S
Zn154 O161 1.965 . S
Zn155 O153 1.950 . S
Zn155 O162 1.938 1_554 S
Zn155 O163 1.906 . S
Zn155 O173 1.953 . S
Zn156 O153 1.945 . S
Zn156 O158 1.932 . S
Zn156 O165 1.977 . S
Zn156 O166 1.910 . S
O157 Zn154 1.933 . S
O157 C168 1.226 1_556 S
O158 Zn156 1.932 . S
O158 C168 1.307 . S
O159 Zn152 1.919 . S
O159 C170 1.253 . S
O160 Zn154 1.941 . S
O160 C170 1.283 . S
O161 Zn154 1.965 . S
O161 C169 1.303 . S
O162 Zn155 1.938 1_556 S
O162 C169 1.247 . S
O163 Zn155 1.906 . S
O163 C171 1.304 . S
O164 Zn152 1.924 1_554 S
O164 C172 1.311 . S
O165 Zn156 1.977 . S
O165 C171 1.272 . S
O166 Zn156 1.910 . S
O166 C172 1.231 . S
C167 O151 1.225 1_554 S
C167 O173 1.298 . S
C168 O157 1.226 1_554 S
C168 O158 1.307 . S
C169 O161 1.303 . S
C169 O162 1.247 . S
C170 O159 1.253 . S
C170 O160 1.283 . S
C171 O163 1.304 . S
C171 O165 1.272 . S
C172 O164 1.311 . S
C172 O166 1.231 . S
O173 Zn155 1.953 . S
O173 C167 1.298 . S
H174 C192 0.951 . S
H175 C194 0.951 . S
H176 C196 0.950 . S
H177 C197 0.950 . S
H178 C199 0.950 . S
H179 C202 0.950 . S
H180 C203 0.950 . S
H181 C205 0.950 . S
H182 C206 0.950 . S
H183 C207 0.951 . S
H184 C209 0.951 . S
H185 C211 0.950 . S
H186 C212 0.950 . S
H187 C214 0.950 . S
H188 C217 0.950 . S
H189 C218 0.950 . S
H190 C220 0.950 . S
H191 C221 0.950 . S
C192 H174 0.951 . S
C192 C193 1.366 . S
C192 C194 1.388 . S
C193 C192 1.366 . S
C193 C197 1.385 . S
C194 H175 0.951 . S
C194 C192 1.388 . S
C194 C195 1.366 . S
C195 C194 1.366 . S
C195 C196 1.414 . S
C195 C198 1.499 . S
C196 H176 0.950 . S
C196 C195 1.414 . S
C196 C197 1.374 . S
C197 H177 0.950 . S
C197 C193 1.385 . S
C197 C196 1.374 . S
C198 C195 1.499 . S
C198 C199 1.373 . S
C198 C200 1.389 . S
C199 H178 0.950 . S
C199 C198 1.373 . S
C199 C215 1.377 . S
C200 C198 1.389 . S
C200 C201 1.524 . S
C200 C214 1.377 . S
C201 C200 1.524 . S
C201 C202 1.397 . S
C201 C206 1.363 . S
C202 H179 0.950 . S
C202 C201 1.397 . S
C202 C203 1.334 . S
C203 H180 0.950 . S
C203 C202 1.334 . S
C203 C204 1.287 . S
C204 C203 1.287 . S
C204 C205 1.524 . S
C204 H223 0.913 . S
C205 H181 0.950 . S
C205 C204 1.524 . S
C205 C206 1.415 . S
C206 H182 0.950 . S
C206 C201 1.363 . S
C206 C205 1.415 . S
C207 H183 0.951 . S
C207 C208 1.366 . S
C207 C209 1.388 . S
C208 C207 1.366 . S
C208 C212 1.385 . S
C209 H184 0.951 . S
C209 C207 1.388 . S
C209 C210 1.366 . S
C210 C209 1.366 . S
C210 C211 1.414 . S
C210 C213 1.499 . S
C211 H185 0.950 . S
C211 C210 1.414 . S
C211 C212 1.374 . S
C212 H186 0.950 . S
C212 C208 1.385 . S
C212 C211 1.374 . S
C213 C210 1.499 . S
C213 C214 1.373 . S
C213 C215 1.389 . S
C214 H187 0.950 . S
C214 C200 1.377 . S
C214 C213 1.373 . S
C215 C199 1.377 . S
C215 C213 1.389 . S
C215 C216 1.524 . S
C216 C215 1.524 . S
C216 C217 1.397 . S
C216 C221 1.363 . S
C217 H188 0.950 . S
C217 C216 1.397 . S
C217 C218 1.334 . S
C218 H189 0.950 . S
C218 C217 1.334 . S
C218 C219 1.287 . S
C219 C218 1.287 . S
C219 C220 1.524 . S
C219 H222 0.999 . S
C220 H190 0.950 . S
C220 C219 1.524 . S
C220 C221 1.415 . S
C221 H191 0.950 . S
C221 C216 1.363 . S
C221 C220 1.415 . S
H222 C219 0.999 . S
H223 C204 0.913 . S
H224 C242 0.951 . S
H225 C244 0.951 . S
H226 C246 0.949 1_556 S
H227 C247 0.950 . S
H228 C249 0.950 . S
H229 C252 0.950 . S
H230 C253 0.950 . S
H231 C255 0.950 . S
H232 C256 0.950 . S
H233 C257 0.949 1_556 S
H234 C259 0.951 . S
H235 C261 0.950 . S
H236 C262 0.950 . S
H237 C264 0.950 . S
H238 C267 0.950 . S
H239 C268 0.950 . S
H240 C270 0.950 . S
H241 C271 0.950 . S
C242 H224 0.951 . S
C242 C243 1.366 . S
C242 C244 1.388 . S
C243 C242 1.366 . S
C243 C247 1.385 . S
C244 H225 0.951 . S
C244 C242 1.388 . S
C244 C245 1.366 . S
C245 C244 1.366 . S
C245 C246 1.415 . S
C245 C248 1.499 . S
C246 H226 0.949 1_554 S
C246 C245 1.415 . S
C246 C247 1.375 . S
C247 H227 0.950 . S
C247 C243 1.385 . S
C247 C246 1.375 . S
C248 C245 1.499 . S
C248 C249 1.373 . S
C248 C250 1.389 1_554 S
C249 H228 0.950 . S
C249 C248 1.373 . S
C249 C265 1.377 . S
C250 C248 1.389 1_556 S
C250 C251 1.524 . S
C250 C264 1.377 . S
C251 C250 1.524 . S
C251 C252 1.397 . S
C251 C256 1.363 . S
C252 H229 0.950 . S
C252 C251 1.397 . S
C252 C253 1.334 . S
C253 H230 0.950 . S
C253 C252 1.334 . S
C253 C254 1.287 . S
C254 C253 1.287 . S
C254 C255 1.524 . S
C254 H273 0.913 . S
C255 H231 0.950 . S
C255 C254 1.524 . S
C255 C256 1.415 . S
C256 H232 0.950 . S
C256 C251 1.363 . S
C256 C255 1.415 . S
C257 H233 0.949 1_554 S
C257 C258 1.366 . S
C257 C259 1.388 . S
C258 C257 1.366 . S
C258 C262 1.385 . S
C259 H234 0.951 . S
C259 C257 1.388 . S
C259 C260 1.366 . S
C260 C259 1.366 . S
C260 C261 1.414 . S
C260 C263 1.499 . S
C261 H235 0.950 . S
C261 C260 1.414 . S
C261 C262 1.374 . S
C262 H236 0.950 . S
C262 C258 1.385 . S
C262 C261 1.374 . S
C263 C260 1.499 . S
C263 C264 1.373 1_554 S
C263 C265 1.389 . S
C264 H237 0.950 . S
C264 C250 1.377 . S
C264 C263 1.373 1_556 S
C265 C249 1.377 . S
C265 C263 1.389 . S
C265 C266 1.524 . S
C266 C265 1.524 . S
C266 C267 1.397 . S
C266 C271 1.363 . S
C267 H238 0.950 . S
C267 C266 1.397 . S
C267 C268 1.334 . S
C268 H239 0.950 . S
C268 C267 1.334 . S
C268 C269 1.287 . S
C269 C268 1.287 . S
C269 C270 1.524 . S
C269 H272 0.999 . S
C270 H240 0.950 . S
C270 C269 1.524 . S
C270 C271 1.415 . S
C271 H241 0.950 . S
C271 C266 1.363 . S
C271 C270 1.415 . S
H272 C269 0.999 . S
H273 C254 0.913 . S
H274 C292 0.951 . S
H275 C294 0.951 . S
H276 C296 0.950 . S
H277 C297 0.950 . S
H278 C299 0.950 . S
H279 C302 0.950 . S
H280 C303 0.950 . S
H281 C305 0.950 . S
H282 C306 0.950 . S
H283 C307 0.951 . S
H284 C309 0.951 . S
H285 C311 0.950 . S
H286 C312 0.950 . S
H287 C314 0.950 . S
H288 C317 0.950 . S
H289 C318 0.950 . S
H290 C320 0.950 . S
H291 C321 0.950 . S
C292 H274 0.951 . S
C292 C293 1.366 . S
C292 C294 1.388 . S
C293 C292 1.366 . S
C293 C297 1.385 . S
C294 H275 0.951 . S
C294 C292 1.388 . S
C294 C295 1.366 . S
C295 C294 1.366 . S
C295 C296 1.414 . S
C295 C298 1.499 . S
C296 H276 0.950 . S
C296 C295 1.414 . S
C296 C297 1.374 . S
C297 H277 0.950 . S
C297 C293 1.385 . S
C297 C296 1.374 . S
C298 C295 1.499 . S
C298 C299 1.373 . S
C298 C300 1.389 . S
C299 H278 0.950 . S
C299 C298 1.373 . S
C299 C315 1.377 . S
C300 C298 1.389 . S
C300 C301 1.524 . S
C300 C314 1.377 . S
C301 C300 1.524 . S
C301 C302 1.397 . S
C301 C306 1.363 . S
C302 H279 0.950 . S
C302 C301 1.397 . S
C302 C303 1.334 . S
C303 H280 0.950 . S
C303 C302 1.334 . S
C303 C304 1.287 . S
C304 C303 1.287 . S
C304 C305 1.524 . S
C304 H323 0.913 . S
C305 H281 0.950 . S
C305 C304 1.524 . S
C305 C306 1.415 . S
C306 H282 0.950 . S
C306 C301 1.363 . S
C306 C305 1.415 . S
C307 H283 0.951 . S
C307 C308 1.366 . S
C307 C309 1.388 . S
C308 C307 1.366 . S
C308 C312 1.385 . S
C309 H284 0.951 . S
C309 C307 1.388 . S
C309 C310 1.366 . S
C310 C309 1.366 . S
C310 C311 1.414 . S
C310 C313 1.499 . S
C311 H285 0.950 . S
C311 C310 1.414 . S
C311 C312 1.374 . S
C312 H286 0.950 . S
C312 C308 1.385 . S
C312 C311 1.374 . S
C313 C310 1.499 . S
C313 C314 1.373 . S
C313 C315 1.389 . S
C314 H287 0.950 . S
C314 C300 1.377 . S
C314 C313 1.373 . S
C315 C299 1.377 . S
C315 C313 1.389 . S
C315 C316 1.524 . S
C316 C315 1.524 . S
C316 C317 1.397 . S
C316 C321 1.363 . S
C317 H288 0.950 . S
C317 C316 1.397 . S
C317 C318 1.334 1_565 S
C318 H289 0.950 . S
C318 C317 1.334 1_545 S
C318 C319 1.287 . S
C319 C318 1.287 . S
C319 C320 1.524 1_545 S
C319 H322 0.999 . S
C320 H290 0.950 . S
C320 C319 1.524 1_565 S
C320 C321 1.415 . S
C321 H291 0.950 . S
C321 C316 1.363 . S
C321 C320 1.415 . S
H322 C319 0.999 . S
H323 C304 0.913 . S
H324 C342 0.951 . S
H325 C344 0.951 . S
H326 C346 0.950 . S
H327 C347 0.950 . S
H328 C349 0.950 . S
H329 C352 0.950 . S
H330 C353 0.950 . S
H331 C355 0.950 . S
H332 C356 0.950 . S
H333 C357 0.951 . S
H334 C359 0.949 1_556 S
H335 C361 0.950 . S
H336 C362 0.950 . S
H337 C364 0.950 . S
H338 C367 0.950 . S
H339 C368 0.950 . S
H340 C370 0.950 . S
H341 C371 0.950 . S
C342 H324 0.951 . S
C342 C343 1.366 . S
C342 C344 1.388 . S
C343 C342 1.366 . S
C343 C347 1.385 1_554 S
C344 H325 0.951 . S
C344 C342 1.388 . S
C344 C345 1.366 . S
C345 C344 1.366 . S
C345 C346 1.414 1_554 S
C345 C348 1.499 . S
C346 H326 0.950 . S
C346 C345 1.414 1_556 S
C346 C347 1.374 . S
C347 H327 0.950 . S
C347 C343 1.385 1_556 S
C347 C346 1.374 . S
C348 C345 1.499 . S
C348 C349 1.373 . S
C348 C350 1.390 1_554 S
C349 H328 0.950 . S
C349 C348 1.373 . S
C349 C365 1.377 . S
C350 C348 1.390 1_556 S
C350 C351 1.524 . S
C350 C364 1.377 . S
C351 C350 1.524 . S
C351 C352 1.397 . S
C351 C356 1.363 . S
C352 H329 0.950 . S
C352 C351 1.397 . S
C352 C353 1.334 . S
C353 H330 0.950 . S
C353 C352 1.334 . S
C353 C354 1.287 . S
C354 C353 1.287 . S
C354 C355 1.524 . S
C354 H373 0.913 . S
C355 H331 0.950 . S
C355 C354 1.524 . S
C355 C356 1.415 . S
C356 H332 0.950 . S
C356 C351 1.363 . S
C356 C355 1.415 . S
C357 H333 0.951 . S
C357 C358 1.366 1_556 S
C357 C359 1.388 1_556 S
C358 C357 1.366 1_554 S
C358 C362 1.385 . S
C359 H334 0.949 1_554 S
C359 C357 1.388 1_554 S
C359 C360 1.368 . S
C360 C359 1.368 . S
C360 C361 1.414 . S
C360 C363 1.499 . S
C361 H335 0.950 . S
C361 C360 1.414 . S
C361 C362 1.374 . S
C362 H336 0.950 . S
C362 C358 1.385 . S
C362 C361 1.374 . S
C363 C360 1.499 . S
C363 C364 1.373 1_554 S
C363 C365 1.389 . S
C364 H337 0.950 . S
C364 C350 1.377 . S
C364 C363 1.373 1_556 S
C365 C349 1.377 . S
C365 C363 1.389 . S
C365 C366 1.524 . S
C366 C365 1.524 . S
C366 C367 1.397 . S
C366 C371 1.363 . S
C367 H338 0.950 . S
C367 C366 1.397 . S
C367 C368 1.334 . S
C368 H339 0.950 . S
C368 C367 1.334 . S
C368 C369 1.287 . S
C369 C368 1.287 . S
C369 C370 1.524 . S
C369 H372 0.999 . S
C370 H340 0.950 . S
C370 C369 1.524 . S
C370 C371 1.415 . S
C371 H341 0.950 . S
C371 C366 1.363 . S
C371 C370 1.415 . S
H372 C369 0.999 . S
H373 C354 0.913 . S
H374 C392 0.951 . S
H375 C394 0.951 . S
H376 C396 0.950 . S
H377 C397 0.950 . S
H378 C399 0.950 . S
H379 C402 0.950 . S
H380 C403 0.950 . S
H381 C405 0.950 . S
H382 C406 0.950 . S
H383 C407 0.951 . S
H384 C409 0.951 . S
H385 C411 0.950 . S
H386 C412 0.950 . S
H387 C414 0.950 . S
H388 C417 0.950 . S
H389 C418 0.950 . S
H390 C420 0.950 . S
H391 C421 0.950 . S
C392 H374 0.951 . S
C392 C393 1.366 . S
C392 C394 1.388 . S
C393 C392 1.366 . S
C393 C397 1.385 . S
C394 H375 0.951 . S
C394 C392 1.388 . S
C394 C395 1.366 . S
C395 C394 1.366 . S
C395 C396 1.414 . S
C395 C398 1.499 . S
C396 H376 0.950 . S
C396 C395 1.414 . S
C396 C397 1.374 . S
C397 H377 0.950 . S
C397 C393 1.385 . S
C397 C396 1.374 . S
C398 C395 1.499 . S
C398 C399 1.373 . S
C398 C400 1.389 . S
C399 H378 0.950 . S
C399 C398 1.373 . S
C399 C415 1.377 . S
C400 C398 1.389 . S
C400 C401 1.524 . S
C400 C414 1.377 . S
C401 C400 1.524 . S
C401 C402 1.397 . S
C401 C406 1.363 . S
C402 H379 0.950 . S
C402 C401 1.397 . S
C402 C403 1.334 . S
C403 H380 0.950 . S
C403 C402 1.334 . S
C403 C404 1.287 . S
C404 C403 1.287 . S
C404 C405 1.524 . S
C404 H423 0.913 . S
C405 H381 0.950 . S
C405 C404 1.524 . S
C405 C406 1.415 . S
C406 H382 0.950 . S
C406 C401 1.363 . S
C406 C405 1.415 . S
C407 H383 0.951 . S
C407 C408 1.366 . S
C407 C409 1.388 . S
C408 C407 1.366 . S
C408 C412 1.385 . S
C409 H384 0.951 . S
C409 C407 1.388 . S
C409 C410 1.366 . S
C410 C409 1.366 . S
C410 C411 1.414 . S
C410 C413 1.499 . S
C411 H385 0.950 . S
C411 C410 1.414 . S
C411 C412 1.374 . S
C412 H386 0.950 . S
C412 C408 1.385 . S
C412 C411 1.374 . S
C413 C410 1.499 . S
C413 C414 1.373 . S
C413 C415 1.389 . S
C414 H387 0.950 . S
C414 C400 1.377 . S
C414 C413 1.373 . S
C415 C399 1.377 . S
C415 C413 1.389 . S
C415 C416 1.524 . S
C416 C415 1.524 . S
C416 C417 1.397 . S
C416 C421 1.363 . S
C417 H388 0.950 . S
C417 C416 1.397 . S
C417 C418 1.334 . S
C418 H389 0.950 . S
C418 C417 1.334 . S
C418 C419 1.287 . S
C419 C418 1.287 . S
C419 C420 1.524 . S
C419 H422 0.999 . S
C420 H390 0.950 . S
C420 C419 1.524 . S
C420 C421 1.415 . S
C421 H391 0.950 . S
C421 C416 1.363 . S
C421 C420 1.415 . S
H422 C419 0.999 . S
H423 C404 0.913 . S
H424 C442 0.951 . S
H425 C444 0.951 . S
H426 C446 0.950 . S
H427 C447 0.950 . S
H428 C449 0.950 . S
H429 C452 0.950 . S
H430 C453 0.950 . S
H431 C455 0.950 . S
H432 C456 0.950 . S
H433 C457 0.951 . S
H434 C459 0.951 . S
H435 C461 0.950 . S
H436 C462 0.950 . S
H437 C464 0.950 . S
H438 C467 0.950 . S
H439 C468 0.950 . S
H440 C470 0.950 . S
H441 C471 0.950 . S
C442 H424 0.951 . S
C442 C443 1.366 . S
C442 C444 1.388 . S
C443 C442 1.366 . S
C443 C447 1.385 . S
C444 H425 0.951 . S
C444 C442 1.388 . S
C444 C445 1.366 . S
C445 C444 1.366 . S
C445 C446 1.414 . S
C445 C448 1.499 . S
C446 H426 0.950 . S
C446 C445 1.414 . S
C446 C447 1.374 . S
C447 H427 0.950 . S
C447 C443 1.385 . S
C447 C446 1.374 . S
C448 C445 1.499 . S
C448 C449 1.373 . S
C448 C450 1.389 . S
C449 H428 0.950 . S
C449 C448 1.373 . S
C449 C465 1.377 . S
C450 C448 1.389 . S
C450 C451 1.524 . S
C450 C464 1.377 . S
C451 C450 1.524 . S
C451 C452 1.397 . S
C451 C456 1.363 . S
C452 H429 0.950 . S
C452 C451 1.397 . S
C452 C453 1.334 . S
C453 H430 0.950 . S
C453 C452 1.334 . S
C453 C454 1.287 . S
C454 C453 1.287 . S
C454 C455 1.524 . S
C454 H473 0.913 . S
C455 H431 0.950 . S
C455 C454 1.524 . S
C455 C456 1.415 . S
C456 H432 0.950 . S
C456 C451 1.363 . S
C456 C455 1.415 . S
C457 H433 0.951 . S
C457 C458 1.366 . S
C457 C459 1.388 . S
C458 C457 1.366 . S
C458 C462 1.385 . S
C459 H434 0.951 . S
C459 C457 1.388 . S
C459 C460 1.366 . S
C460 C459 1.366 . S
C460 C461 1.414 . S
C460 C463 1.499 . S
C461 H435 0.950 . S
C461 C460 1.414 . S
C461 C462 1.374 . S
C462 H436 0.950 . S
C462 C458 1.385 . S
C462 C461 1.374 . S
C463 C460 1.499 . S
C463 C464 1.373 . S
C463 C465 1.389 . S
C464 H437 0.950 . S
C464 C450 1.377 . S
C464 C463 1.373 . S
C465 C449 1.377 . S
C465 C463 1.389 . S
C465 C466 1.524 . S
C466 C465 1.524 . S
C466 C467 1.397 . S
C466 C471 1.363 . S
C467 H438 0.950 . S
C467 C466 1.397 . S
C467 C468 1.334 . S
C468 H439 0.950 . S
C468 C467 1.334 . S
C468 C469 1.287 . S
C469 C468 1.287 . S
C469 C470 1.524 . S
C469 H472 0.999 . S
C470 H440 0.950 . S
C470 C469 1.524 . S
C470 C471 1.415 . S
C471 H441 0.950 . S
C471 C466 1.363 . S
C471 C470 1.415 . S
H472 C469 0.999 . S
H473 C454 0.913 . S
H474 C492 0.951 . S
H475 C494 0.951 . S
H476 C496 0.950 . S
H477 C497 0.950 . S
H478 C499 0.950 . S
H479 C502 0.950 . S
H480 C503 0.950 . S
H481 C505 0.950 . S
H482 C506 0.950 . S
H483 C507 0.951 . S
H484 C509 0.951 . S
H485 C511 0.950 . S
H486 C512 0.950 1_455 S
H487 C514 0.950 . S
H488 C517 0.950 . S
H489 C518 0.950 . S
H490 C520 0.950 . S
H491 C521 0.950 . S
C492 H474 0.951 . S
C492 C493 1.366 . S
C492 C494 1.388 . S
C493 C492 1.366 . S
C493 C497 1.385 . S
C494 H475 0.951 . S
C494 C492 1.388 . S
C494 C495 1.366 . S
C495 C494 1.366 . S
C495 C496 1.414 . S
C495 C498 1.499 . S
C496 H476 0.950 . S
C496 C495 1.414 . S
C496 C497 1.374 . S
C497 H477 0.950 . S
C497 C493 1.385 . S
C497 C496 1.374 . S
C498 C495 1.499 . S
C498 C499 1.373 . S
C498 C500 1.389 . S
C499 H478 0.950 . S
C499 C498 1.373 . S
C499 C515 1.377 . S
C500 C498 1.389 . S
C500 C501 1.524 . S
C500 C514 1.377 . S
C501 C500 1.524 . S
C501 C502 1.397 . S
C501 C506 1.363 1_655 S
C502 H479 0.950 . S
C502 C501 1.397 . S
C502 C503 1.334 . S
C503 H480 0.950 . S
C503 C502 1.334 . S
C503 C504 1.287 1_655 S
C504 C503 1.287 1_455 S
C504 C505 1.524 . S
C504 H523 0.913 . S
C505 H481 0.950 . S
C505 C504 1.524 . S
C505 C506 1.415 . S
C506 H482 0.950 . S
C506 C501 1.363 1_455 S
C506 C505 1.415 . S
C507 H483 0.951 . S
C507 C508 1.366 . S
C507 C509 1.388 . S
C508 C507 1.366 . S
C508 C512 1.385 . S
C509 H484 0.951 . S
C509 C507 1.388 . S
C509 C510 1.366 . S
C510 C509 1.366 . S
C510 C511 1.414 . S
C510 C513 1.499 . S
C511 H485 0.950 . S
C511 C510 1.414 . S
C511 C512 1.374 . S
C512 H486 0.950 1_655 S
C512 C508 1.385 . S
C512 C511 1.374 . S
C513 C510 1.499 . S
C513 C514 1.373 . S
C513 C515 1.389 . S
C514 H487 0.950 . S
C514 C500 1.377 . S
C514 C513 1.373 . S
C515 C499 1.377 . S
C515 C513 1.389 . S
C515 C516 1.524 . S
C516 C515 1.524 . S
C516 C517 1.397 . S
C516 C521 1.363 . S
C517 H488 0.950 . S
C517 C516 1.397 . S
C517 C518 1.334 . S
C518 H489 0.950 . S
C518 C517 1.334 . S
C518 C519 1.287 . S
C519 C518 1.287 . S
C519 C520 1.524 . S
C519 H522 0.999 . S
C520 H490 0.950 . S
C520 C519 1.524 . S
C520 C521 1.415 . S
C521 H491 0.950 . S
C521 C516 1.363 . S
C521 C520 1.415 . S
H522 C519 0.999 . S
H523 C504 0.913 . S
H524 C542 0.951 . S
H525 C544 0.951 . S
H526 C546 0.950 . S
H527 C547 0.950 . S
H528 C549 0.950 . S
H529 C552 0.950 . S
H530 C553 0.950 . S
H531 C555 0.950 . S
H532 C556 0.950 . S
H533 C557 0.951 . S
H534 C559 0.951 . S
H535 C561 0.950 . S
H536 C562 0.950 . S
H537 C564 0.950 . S
H538 C567 0.950 . S
H539 C568 0.950 . S
H540 C570 0.950 . S
H541 C571 0.950 . S
C542 H524 0.951 . S
C542 C543 1.366 . S
C542 C544 1.388 . S
C543 C542 1.366 . S
C543 C547 1.385 . S
C544 H525 0.951 . S
C544 C542 1.388 . S
C544 C545 1.366 . S
C545 C544 1.366 . S
C545 C546 1.414 . S
C545 C548 1.499 . S
C546 H526 0.950 . S
C546 C545 1.414 . S
C546 C547 1.374 . S
C547 H527 0.950 . S
C547 C543 1.385 . S
C547 C546 1.374 . S
C548 C545 1.499 . S
C548 C549 1.373 . S
C548 C550 1.389 . S
C549 H528 0.950 . S
C549 C548 1.373 . S
C549 C565 1.377 . S
C550 C548 1.389 . S
C550 C551 1.524 . S
C550 C564 1.377 . S
C551 C550 1.524 . S
C551 C552 1.397 . S
C551 C556 1.363 . S
C552 H529 0.950 . S
C552 C551 1.397 . S
C552 C553 1.334 . S
C553 H530 0.950 . S
C553 C552 1.334 . S
C553 C554 1.287 . S
C554 C553 1.287 . S
C554 C555 1.524 . S
C554 H573 0.913 . S
C555 H531 0.950 . S
C555 C554 1.524 . S
C555 C556 1.415 . S
C556 H532 0.950 . S
C556 C551 1.363 . S
C556 C555 1.415 . S
C557 H533 0.951 . S
C557 C558 1.366 . S
C557 C559 1.388 . S
C558 C557 1.366 . S
C558 C562 1.385 . S
C559 H534 0.951 . S
C559 C557 1.388 . S
C559 C560 1.366 . S
C560 C559 1.366 . S
C560 C561 1.414 . S
C560 C563 1.499 . S
C561 H535 0.950 . S
C561 C560 1.414 . S
C561 C562 1.374 . S
C562 H536 0.950 . S
C562 C558 1.385 . S
C562 C561 1.374 . S
C563 C560 1.499 . S
C563 C564 1.373 . S
C563 C565 1.389 . S
C564 H537 0.950 . S
C564 C550 1.377 . S
C564 C563 1.373 . S
C565 C549 1.377 . S
C565 C563 1.389 . S
C565 C566 1.524 . S
C566 C565 1.524 . S
C566 C567 1.397 . S
C566 C571 1.363 . S
C567 H538 0.950 . S
C567 C566 1.397 . S
C567 C568 1.334 . S
C568 H539 0.950 . S
C568 C567 1.334 . S
C568 C569 1.287 . S
C569 C568 1.287 . S
C569 C570 1.524 . S
C569 H572 0.999 . S
C570 H540 0.950 . S
C570 C569 1.524 . S
C570 C571 1.415 . S
C571 H541 0.950 . S
C571 C566 1.363 . S
C571 C570 1.415 . S
H572 C569 0.999 . S
H573 C554 0.913 . S
H574 C592 0.951 . S
H575 C594 0.951 . S
H576 C596 0.950 . S
H577 C597 0.950 . S
H578 C599 0.950 . S
H579 C602 0.950 . S
H580 C603 0.950 . S
H581 C605 0.950 . S
H582 C606 0.950 . S
H583 C607 0.951 . S
H584 C609 0.951 . S
H585 C611 0.950 . S
H586 C612 0.950 . S
H587 C614 0.950 . S
H588 C617 0.950 . S
H589 C618 0.950 . S
H590 C620 0.950 . S
H591 C621 0.950 . S
C592 H574 0.951 . S
C592 C593 1.366 . S
C592 C594 1.388 . S
C593 C592 1.366 . S
C593 C597 1.385 . S
C594 H575 0.951 . S
C594 C592 1.388 . S
C594 C595 1.366 . S
C595 C594 1.366 . S
C595 C596 1.414 . S
C595 C598 1.499 . S
C596 H576 0.950 . S
C596 C595 1.414 . S
C596 C597 1.374 . S
C597 H577 0.950 . S
C597 C593 1.385 . S
C597 C596 1.374 . S
C598 C595 1.499 . S
C598 C599 1.373 . S
C598 C600 1.389 . S
C599 H578 0.950 . S
C599 C598 1.373 . S
C599 C615 1.377 . S
C600 C598 1.389 . S
C600 C601 1.524 . S
C600 C614 1.377 . S
C601 C600 1.524 . S
C601 C602 1.397 . S
C601 C606 1.363 . S
C602 H579 0.950 . S
C602 C601 1.397 . S
C602 C603 1.334 . S
C603 H580 0.950 . S
C603 C602 1.334 . S
C603 C604 1.287 . S
C604 C603 1.287 . S
C604 C605 1.524 . S
C604 H623 0.913 . S
C605 H581 0.950 . S
C605 C604 1.524 . S
C605 C606 1.415 . S
C606 H582 0.950 . S
C606 C601 1.363 . S
C606 C605 1.415 . S
C607 H583 0.951 . S
C607 C608 1.366 . S
C607 C609 1.388 . S
C608 C607 1.366 . S
C608 C612 1.385 . S
C609 H584 0.951 . S
C609 C607 1.388 . S
C609 C610 1.366 . S
C610 C609 1.366 . S
C610 C611 1.414 . S
C610 C613 1.499 . S
C611 H585 0.950 . S
C611 C610 1.414 . S
C611 C612 1.374 . S
C612 H586 0.950 . S
C612 C608 1.385 . S
C612 C611 1.374 . S
C613 C610 1.499 . S
C613 C614 1.373 . S
C613 C615 1.389 . S
C614 H587 0.950 . S
C614 C600 1.377 . S
C614 C613 1.373 . S
C615 C599 1.377 . S
C615 C613 1.389 . S
C615 C616 1.524 . S
C616 C615 1.524 . S
C616 C617 1.397 . S
C616 C621 1.363 . S
C617 H588 0.950 . S
C617 C616 1.397 . S
C617 C618 1.334 . S
C618 H589 0.950 . S
C618 C617 1.334 . S
C618 C619 1.287 . S
C619 C618 1.287 . S
C619 C620 1.524 . S
C619 H622 0.999 . S
C620 H590 0.950 . S
C620 C619 1.524 . S
C620 C621 1.415 . S
C621 H591 0.950 . S
C621 C616 1.363 . S
C621 C620 1.415 . S
H622 C619 0.999 . S
H623 C604 0.913 . S
H624 C642 0.951 . S
H625 C644 0.951 . S
H626 C646 0.950 . S
H627 C647 0.950 . S
H628 C649 0.950 . S
H629 C652 0.950 . S
H630 C653 0.950 . S
H631 C655 0.950 . S
H632 C656 0.950 . S
H633 C657 0.951 . S
H634 C659 0.951 1_455 S
H635 C661 0.950 . S
H636 C662 0.950 . S
H637 C664 0.950 . S
H638 C667 0.950 1_655 S
H639 C668 0.950 . S
H640 C670 0.950 . S
H641 C671 0.950 . S
C642 H624 0.951 . S
C642 C643 1.366 . S
C642 C644 1.388 . S
C643 C642 1.366 . S
C643 C647 1.385 . S
C644 H625 0.951 . S
C644 C642 1.388 . S
C644 C645 1.366 . S
C645 C644 1.366 . S
C645 C646 1.414 . S
C645 C648 1.499 . S
C646 H626 0.950 . S
C646 C645 1.414 . S
C646 C647 1.374 . S
C647 H627 0.950 . S
C647 C643 1.385 . S
C647 C646 1.374 . S
C648 C645 1.499 . S
C648 C649 1.373 . S
C648 C650 1.389 . S
C649 H628 0.950 . S
C649 C648 1.373 . S
C649 C665 1.377 . S
C650 C648 1.389 . S
C650 C651 1.524 . S
C650 C664 1.377 . S
C651 C650 1.524 . S
C651 C652 1.397 . S
C651 C656 1.363 . S
C652 H629 0.950 . S
C652 C651 1.397 . S
C652 C653 1.334 . S
C653 H630 0.950 . S
C653 C652 1.334 . S
C653 C654 1.287 . S
C654 C653 1.287 . S
C654 C655 1.524 . S
C654 H673 0.913 . S
C655 H631 0.950 . S
C655 C654 1.524 . S
C655 C656 1.415 . S
C656 H632 0.950 . S
C656 C651 1.363 . S
C656 C655 1.415 . S
C657 H633 0.951 . S
C657 C658 1.366 1_455 S
C657 C659 1.388 1_455 S
C658 C657 1.366 1_655 S
C658 C662 1.385 . S
C659 H634 0.951 1_655 S
C659 C657 1.388 1_655 S
C659 C660 1.366 . S
C660 C659 1.366 . S
C660 C661 1.414 . S
C660 C663 1.499 . S
C661 H635 0.950 . S
C661 C660 1.414 . S
C661 C662 1.374 . S
C662 H636 0.950 . S
C662 C658 1.385 . S
C662 C661 1.374 . S
C663 C660 1.499 . S
C663 C664 1.373 . S
C663 C665 1.389 . S
C664 H637 0.950 . S
C664 C650 1.377 . S
C664 C663 1.373 . S
C665 C649 1.377 . S
C665 C663 1.389 . S
C665 C666 1.524 1_655 S
C666 C665 1.524 1_455 S
C666 C667 1.397 . S
C666 C671 1.363 . S
C667 H638 0.950 1_455 S
C667 C666 1.397 . S
C667 C668 1.334 . S
C668 H639 0.950 . S
C668 C667 1.334 . S
C668 C669 1.287 . S
C669 C668 1.287 . S
C669 C670 1.524 . S
C669 H672 0.999 . S
C670 H640 0.950 . S
C670 C669 1.524 . S
C670 C671 1.415 . S
C671 H641 0.950 . S
C671 C666 1.363 . S
C671 C670 1.415 . S
H672 C669 0.999 . S
H673 C654 0.913 . S
H674 C692 0.951 . S
H675 C694 0.951 . S
H676 C696 0.950 . S
H677 C697 0.950 . S
H678 C699 0.950 . S
H679 C702 0.950 . S
H680 C703 0.950 . S
H681 C705 0.950 . S
H682 C706 0.950 . S
H683 C707 0.951 . S
H684 C709 0.951 . S
H685 C711 0.950 . S
H686 C712 0.950 . S
H687 C714 0.950 . S
H688 C717 0.950 . S
H689 C718 0.950 . S
H690 C720 0.950 . S
H691 C721 0.950 . S
C692 H674 0.951 . S
C692 C693 1.366 . S
C692 C694 1.388 . S
C693 C692 1.366 . S
C693 C697 1.385 . S
C694 H675 0.951 . S
C694 C692 1.388 . S
C694 C695 1.366 . S
C695 C694 1.366 . S
C695 C696 1.414 . S
C695 C698 1.499 . S
C696 H676 0.950 . S
C696 C695 1.414 . S
C696 C697 1.374 . S
C697 H677 0.950 . S
C697 C693 1.385 . S
C697 C696 1.374 . S
C698 C695 1.499 . S
C698 C699 1.373 . S
C698 C700 1.389 . S
C699 H678 0.950 . S
C699 C698 1.373 . S
C699 C715 1.377 . S
C700 C698 1.389 . S
C700 C701 1.524 . S
C700 C714 1.377 . S
C701 C700 1.524 . S
C701 C702 1.397 . S
C701 C706 1.363 . S
C702 H679 0.950 . S
C702 C701 1.397 . S
C702 C703 1.334 . S
C703 H680 0.950 . S
C703 C702 1.334 . S
C703 C704 1.287 . S
C704 C703 1.287 . S
C704 C705 1.524 . S
C704 H723 0.913 . S
C705 H681 0.950 . S
C705 C704 1.524 . S
C705 C706 1.415 . S
C706 H682 0.950 . S
C706 C701 1.363 . S
C706 C705 1.415 . S
C707 H683 0.951 . S
C707 C708 1.366 . S
C707 C709 1.388 . S
C708 C707 1.366 . S
C708 C712 1.385 . S
C709 H684 0.951 . S
C709 C707 1.388 . S
C709 C710 1.366 . S
C710 C709 1.366 . S
C710 C711 1.414 . S
C710 C713 1.499 . S
C711 H685 0.950 . S
C711 C710 1.414 . S
C711 C712 1.374 . S
C712 H686 0.950 . S
C712 C708 1.385 . S
C712 C711 1.374 . S
C713 C710 1.499 . S
C713 C714 1.373 . S
C713 C715 1.389 . S
C714 H687 0.950 . S
C714 C700 1.377 . S
C714 C713 1.373 . S
C715 C699 1.377 . S
C715 C713 1.389 . S
C715 C716 1.524 . S
C716 C715 1.524 . S
C716 C717 1.397 . S
C716 C721 1.363 . S
C717 H688 0.950 . S
C717 C716 1.397 . S
C717 C718 1.334 . S
C718 H689 0.950 . S
C718 C717 1.334 . S
C718 C719 1.287 . S
C719 C718 1.287 . S
C719 C720 1.524 . S
C719 H722 0.999 . S
C720 H690 0.950 . S
C720 C719 1.524 . S
C720 C721 1.415 . S
C721 H691 0.950 . S
C721 C716 1.363 . S
C721 C720 1.415 . S
H722 C719 0.999 . S
H723 C704 0.913 . S
H724 C742 0.951 . S
H725 C744 0.951 . S
H726 C746 0.950 . S
H727 C747 0.950 . S
H728 C749 0.950 . S
H729 C752 0.950 . S
H730 C753 0.950 . S
H731 C755 0.950 . S
H732 C756 0.950 . S
H733 C757 0.951 . S
H734 C759 0.951 . S
H735 C761 0.950 . S
H736 C762 0.950 . S
H737 C764 0.950 . S
H738 C767 0.950 . S
H739 C768 0.950 . S
H740 C770 0.950 . S
H741 C771 0.950 . S
C742 H724 0.951 . S
C742 C743 1.366 . S
C742 C744 1.388 . S
C743 C742 1.366 . S
C743 C747 1.385 . S
C744 H725 0.951 . S
C744 C742 1.388 . S
C744 C745 1.366 . S
C745 C744 1.366 . S
C745 C746 1.414 . S
C745 C748 1.499 . S
C746 H726 0.950 . S
C746 C745 1.414 . S
C746 C747 1.374 . S
C747 H727 0.950 . S
C747 C743 1.385 . S
C747 C746 1.374 . S
C748 C745 1.499 . S
C748 C749 1.373 . S
C748 C750 1.389 . S
C749 H728 0.950 . S
C749 C748 1.373 . S
C749 C765 1.377 . S
C750 C748 1.389 . S
C750 C751 1.524 . S
C750 C764 1.377 . S
C751 C750 1.524 . S
C751 C752 1.397 . S
C751 C756 1.363 . S
C752 H729 0.950 . S
C752 C751 1.397 . S
C752 C753 1.334 . S
C753 H730 0.950 . S
C753 C752 1.334 . S
C753 C754 1.287 . S
C754 C753 1.287 . S
C754 C755 1.524 . S
C754 H773 0.913 . S
C755 H731 0.950 . S
C755 C754 1.524 . S
C755 C756 1.415 . S
C756 H732 0.950 . S
C756 C751 1.363 . S
C756 C755 1.415 . S
C757 H733 0.951 . S
C757 C758 1.366 . S
C757 C759 1.388 . S
C758 C757 1.366 . S
C758 C762 1.385 . S
C759 H734 0.951 . S
C759 C757 1.388 . S
C759 C760 1.366 . S
C760 C759 1.366 . S
C760 C761 1.414 . S
C760 C763 1.499 . S
C761 H735 0.950 . S
C761 C760 1.414 . S
C761 C762 1.374 . S
C762 H736 0.950 . S
C762 C758 1.385 . S
C762 C761 1.374 . S
C763 C760 1.499 . S
C763 C764 1.373 . S
C763 C765 1.389 . S
C764 H737 0.950 . S
C764 C750 1.377 . S
C764 C763 1.373 . S
C765 C749 1.377 . S
C765 C763 1.389 . S
C765 C766 1.524 . S
C766 C765 1.524 . S
C766 C767 1.397 1_455 S
C766 C771 1.363 . S
C767 H738 0.950 . S
C767 C766 1.397 1_655 S
C767 C768 1.334 . S
C768 H739 0.950 . S
C768 C767 1.334 . S
C768 C769 1.287 . S
C769 C768 1.287 . S
C769 C770 1.524 . S
C769 H772 0.999 . S
C770 H740 0.950 . S
C770 C769 1.524 . S
C770 C771 1.415 1_655 S
C771 H741 0.950 . S
C771 C766 1.363 . S
C771 C770 1.415 1_455 S
H772 C769 0.999 . S
H773 C754 0.913 . S
C208 C145 1.584 . S
C193 C119 1.588 . S
C243 C23 1.489 . S
C258 C168 1.581 . S
C293 C55 1.512 . S
C308 C144 1.605 . S
C343 C87 1.611 . S
C358 C167 1.608 . S
C408 C148 1.526 . S
C393 C17 1.483 . S
C458 C170 1.558 . S
C443 C61 1.511 . S
C493 C93 1.597 . S
C508 C149 1.535 . S
C543 C113 1.577 . S
C558 C169 1.538 . S
C608 C172 1.535 . S
C593 C49 1.496 . S
C658 C147 1.557 . S
C643 C81 1.598 . S
C708 C171 1.526 . S
C693 C125 1.584 . S
C743 C29 1.492 . S
C758 C146 1.539 . S
