# Generated by pormake.
# Topology rtl, (3,6)-cn, num edge types: 1
# Building blocks:
#     Node 0, Type 0, BuildingBlock: INOVEN_clean_linker_0, # of connection points: 3
#     Node 1, Type 0, BuildingBlock: INOVEN_clean_linker_0, # of connection points: 3
#     Node 2, Type 0, BuildingBlock: INOVEN_clean_linker_0, # of connection points: 3
#     Node 3, Type 0, BuildingBlock: INOVEN_clean_linker_0, # of connection points: 3
#     Node 4, Type 1, BuildingBlock: FUNLAD_clean_sbu_0, # of connection points: 6
#     Node 5, Type 1, BuildingBlock: FUNLAD_clean_sbu_0, # of connection points: 6
#     Edge 6, Type (0, 1), BuildingBlock: FUNLAD_clean_linker_0, # of connection points: 2
#     Edge 7, Type (0, 1), BuildingBlock: FUNLAD_clean_linker_0, # of connection points: 2
#     Edge 8, Type (0, 1), BuildingBlock: FUNLAD_clean_linker_0, # of connection points: 2
#     Edge 9, Type (0, 1), BuildingBlock: FUNLAD_clean_linker_0, # of connection points: 2
#     Edge 10, Type (0, 1), BuildingBlock: FUNLAD_clean_linker_0, # of connection points: 2
#     Edge 11, Type (0, 1), BuildingBlock: FUNLAD_clean_linker_0, # of connection points: 2
#     Edge 12, Type (0, 1), BuildingBlock: FUNLAD_clean_linker_0, # of connection points: 2
#     Edge 13, Type (0, 1), BuildingBlock: FUNLAD_clean_linker_0, # of connection points: 2
#     Edge 14, Type (0, 1), BuildingBlock: FUNLAD_clean_linker_0, # of connection points: 2
#     Edge 15, Type (0, 1), BuildingBlock: FUNLAD_clean_linker_0, # of connection points: 2
#     Edge 16, Type (0, 1), BuildingBlock: FUNLAD_clean_linker_0, # of connection points: 2
#     Edge 17, Type (0, 1), BuildingBlock: FUNLAD_clean_linker_0, # of connection points: 2
# Relax obj value: 0.003
# Max RMSD: 0.048
# Mean RMSD: 0.032
data_MOF--net-rtl--node1-FUNLAD_clean_sbu_0--node2-INOVEN_clean_linker_0--edge1-FUNLAD_clean_linker_0
_symmetry_space_group_name_H-M    P1
_symmetry_Int_Tables_number       1
_symmetry_cell_setting            triclinic
loop_
_symmetry_equiv_pos_as_xyz
'x, y, z'
_cell_length_a     46.205273
_cell_length_b     46.160626
_cell_length_c     24.65358
_cell_angle_alpha  91.132702
_cell_angle_beta   92.327403
_cell_angle_gamma 89.895323
loop_
_atom_site_label
_atom_site_type_symbol
_atom_site_fract_x
_atom_site_fract_y
_atom_site_fract_z
_atom_type_partial_charge
H0 H 0.19698 0.82779 0.92205 0.0
H1 H 0.15053 0.89279 0.01094 0.0
H2 H 0.20533 0.83231 0.09661 0.0
N3 N 0.22277 0.80338 0.00666 0.0
N4 N 0.23344 0.79223 0.0486 0.0
C5 C 0.19161 0.83816 0.96017 0.0
C6 C 0.17217 0.86157 0.9606 0.0
C7 C 0.20358 0.8274 0.00891 0.0
C8 C 0.1962 0.84042 0.05868 0.0
C9 C 0.17725 0.86421 0.05952 0.0
C10 C 0.16542 0.87461 0.01038 0.0
H11 H 0.69322 0.68753 0.62112 0.0
H12 H 0.6308 0.63151 0.53868 0.0
H13 H 0.68721 0.68351 0.44633 0.0
N14 N 0.71508 0.70925 0.53293 0.0
N15 N 0.72376 0.71856 0.48929 0.0
C16 C 0.6834 0.67866 0.58374 0.0
C17 C 0.66064 0.65866 0.58554 0.0
C18 C 0.69299 0.6879 0.53368 0.0
C19 C 0.68007 0.67638 0.48518 0.0
C20 C 0.65754 0.65608 0.48654 0.0
C21 C 0.6479 0.64749 0.53698 0.0
H22 H 0.82354 0.19403 0.90178 0.0
H23 H 0.87656 0.13353 0.99194 0.0
H24 H 0.82361 0.19465 0.07644 0.0
N25 N 0.80032 0.21954 0.98538 0.0
N26 N 0.78931 0.23043 0.02642 0.0
C27 C 0.83157 0.18542 0.94012 0.0
C28 C 0.8513 0.16226 0.94078 0.0
C29 C 0.82138 0.19715 0.98862 0.0
C30 C 0.83143 0.18588 0.03867 0.0
C31 C 0.85106 0.16262 0.0398 0.0
C32 C 0.86088 0.15104 0.99085 0.0
H33 H 0.30748 0.32623 0.40239 0.0
H34 H 0.36627 0.37991 0.49909 0.0
H35 H 0.31324 0.31769 0.57614 0.0
N36 N 0.28585 0.29799 0.48302 0.0
N37 N 0.27566 0.28615 0.52309 0.0
C38 C 0.31708 0.33268 0.44162 0.0
C39 C 0.33799 0.35469 0.44527 0.0
C40 C 0.30778 0.31947 0.48855 0.0
C41 C 0.32005 0.32799 0.53968 0.0
C42 C 0.34151 0.34955 0.54366 0.0
C43 C 0.35009 0.3629 0.49629 0.0
C44 C 0.03587 0.9701 0.42336 0.0
N45 N 0.04875 0.04985 0.5052 0.0
C46 C 0.07723 0.04243 0.51037 0.0
C47 C 0.09853 0.0638 0.51562 0.0
C48 C 0.09053 0.09317 0.51559 0.0
C49 C 0.06097 0.10022 0.50976 0.0
C50 C 0.04035 0.07812 0.50464 0.0
Zn51 Zn 0.01843 0.01759 0.49953 0.0
C52 C 0.97335 0.02749 0.41192 0.0
N53 N 0.9561 0.94933 0.48832 0.0
C54 C 0.96505 0.92129 0.4915 0.0
C55 C 0.92744 0.95619 0.48503 0.0
C56 C 0.90649 0.93447 0.48604 0.0
C57 C 0.91509 0.90537 0.49051 0.0
C58 C 0.94483 0.89889 0.49263 0.0
Zn59 Zn 0.98617 0.98179 0.49274 0.0
O60 O 0.04361 0.9947 0.4429 0.0
C61 C 0.031 0.97147 0.58003 0.0
O62 O 0.01205 0.95919 0.43698 0.0
H63 H 0.92079 0.97862 0.48274 0.0
H64 H 0.08347 0.01984 0.5106 0.0
H65 H 0.98793 0.9163 0.49405 0.0
O66 O 0.04045 0.99554 0.56395 0.0
O67 O 0.00811 0.96082 0.55752 0.0
H68 H 0.01759 0.08354 0.50064 0.0
O69 O 0.9608 0.00491 0.54882 0.0
O70 O 0.99292 0.03984 0.55628 0.0
O71 O 0.96468 0.0031 0.4279 0.0
O72 O 0.99574 0.03908 0.4349 0.0
C73 C 0.96895 0.02913 0.5695 0.0
H74 H 0.12107 0.05735 0.51921 0.0
H75 H 0.0538 0.12256 0.51011 0.0
H76 H 0.88382 0.94051 0.48493 0.0
H77 H 0.95243 0.87674 0.49531 0.0
C78 C 0.47471 0.46987 0.92922 0.0
N79 N 0.5523 0.45703 0.02056 0.0
C80 C 0.54607 0.42822 0.01888 0.0
C81 C 0.56828 0.40774 0.02323 0.0
C82 C 0.59722 0.41696 0.02946 0.0
C83 C 0.60299 0.44684 0.03092 0.0
C84 C 0.58012 0.46658 0.02633 0.0
Zn85 Zn 0.51922 0.48649 0.01553 0.0
C86 C 0.53049 0.53372 0.93912 0.0
N87 N 0.44977 0.54761 0.006 0.0
C88 C 0.42154 0.53916 0.00294 0.0
C89 C 0.45711 0.57615 0.00773 0.0
C90 C 0.43573 0.59749 0.00715 0.0
C91 C 0.40639 0.58948 0.00493 0.0
C92 C 0.39938 0.55985 0.0023 0.0
Zn93 Zn 0.48247 0.51773 0.01024 0.0
O94 O 0.49902 0.46234 0.9506 0.0
C95 C 0.47059 0.47064 0.08582 0.0
O96 O 0.4625 0.49283 0.94622 0.0
H97 H 0.47967 0.58244 0.01003 0.0
H98 H 0.52381 0.42109 0.0145 0.0
H99 H 0.41619 0.51635 0.00169 0.0
O100 O 0.49554 0.46242 0.07178 0.0
O101 O 0.45985 0.49379 0.06654 0.0
H102 H 0.5846 0.48958 0.02748 0.0
O103 O 0.50293 0.54208 0.07481 0.0
O104 O 0.53874 0.51093 0.08042 0.0
O105 O 0.5054 0.54112 0.95345 0.0
O106 O 0.54226 0.51116 0.95905 0.0
C107 C 0.5268 0.53406 0.09714 0.0
H108 H 0.5628 0.38493 0.02258 0.0
H109 H 0.62498 0.45491 0.03498 0.0
H110 H 0.44215 0.62005 0.00828 0.0
H111 H 0.37705 0.55271 0.00099 0.0
C112 C 0.24245 0.25305 0.56392 0.0
C113 C 0.25354 0.26486 0.51725 0.0
C114 C 0.22042 0.23229 0.55979 0.0
C115 C 0.20923 0.22276 0.50848 0.0
C116 C 0.22026 0.23487 0.46176 0.0
C117 C 0.24225 0.25564 0.46596 0.0
C118 C 0.18556 0.20098 0.50188 0.0
C119 C 0.17936 0.18171 0.54012 0.0
C120 C 0.15614 0.15951 0.53286 0.0
C121 C 0.15788 0.13455 0.56444 0.0
C122 C 0.13662 0.1131 0.5589 0.0
C123 C 0.11292 0.11621 0.52188 0.0
H124 H 0.12942 0.1822 0.47258 0.0
C125 C 0.11083 0.14145 0.49097 0.0
C126 C 0.13213 0.16291 0.49646 0.0
H127 H 0.09288 0.1445 0.46201 0.0
H128 H 0.25074 0.26015 0.6037 0.0
H129 H 0.21197 0.2243 0.59691 0.0
H130 H 0.21192 0.22815 0.42176 0.0
H131 H 0.25031 0.26447 0.42912 0.0
H132 H 0.17388 0.19997 0.4628 0.0
H133 H 0.19275 0.18094 0.57726 0.0
H134 H 0.1759 0.13151 0.5933 0.0
H135 H 0.13862 0.09418 0.58409 0.0
C136 C 0.26127 0.756 -0.003 0.0
C137 C 0.25276 0.76832 0.04651 0.0
C138 C 0.28078 0.73279 -0.00343 0.0
C139 C 0.29198 0.72136 0.04568 0.0
C140 C 0.28341 0.73385 0.09492 0.0
C141 C 0.26392 0.75702 0.09526 0.0
C142 C 0.31372 0.69755 0.04742 0.0
C143 C 0.31771 0.67862 0.00603 0.0
C144 C 0.34032 0.65562 0.00773 0.0
C145 C 0.3369 0.63112 0.97338 0.0
C146 C 0.35811 0.60947 0.97279 0.0
C147 C 0.3834 0.61202 0.0062 0.0
H148 H 0.36969 0.67708 0.0669 0.0
C149 C 0.38686 0.63658 0.04045 0.0
C150 C 0.36569 0.65819 0.04105 0.0
H151 H 0.40597 0.63914 0.06701 0.0
H152 H 0.25316 0.76446 0.95864 0.0
H153 H 0.28745 0.72447 0.95772 0.0
H154 H 0.29186 0.72571 0.13333 0.0
H155 H 0.25764 0.76635 0.1337 0.0
H156 H 0.32626 0.69513 0.08526 0.0
H157 H 0.30338 0.6792 0.97009 0.0
H158 H 0.31775 0.62873 0.94682 0.0
H159 H 0.35496 0.59101 0.94539 0.0
C160 C 0.75827 0.75309 0.53438 0.0
C161 C 0.74539 0.74023 0.4872 0.0
C162 C 0.77912 0.77481 0.53038 0.0
C163 C 0.78756 0.78392 0.4791 0.0
C164 C 0.77439 0.77109 0.43227 0.0
C165 C 0.75361 0.7494 0.43635 0.0
C166 C 0.80914 0.80733 0.47255 0.0
C167 C 0.82942 0.81493 0.51101 0.0
C168 C 0.85117 0.83814 0.50391 0.0
C169 C 0.87698 0.83778 0.53592 0.0
C170 C 0.89781 0.85938 0.53117 0.0
C171 C 0.8932 0.88203 0.4945 0.0
H172 H 0.82647 0.86259 0.44319 0.0
C173 C 0.86726 0.88256 0.46273 0.0
C174 C 0.84641 0.86095 0.46747 0.0
H175 H 0.86305 0.89967 0.43401 0.0
H176 H 0.75208 0.7466 0.57424 0.0
H177 H 0.78801 0.78473 0.5675 0.0
H178 H 0.78024 0.77781 0.3923 0.0
H179 H 0.74374 0.7398 0.39967 0.0
H180 H 0.80906 0.81762 0.43334 0.0
H181 H 0.83126 0.80283 0.5483 0.0
H182 H 0.88109 0.8207 0.56476 0.0
H183 H 0.91731 0.85861 0.55701 0.0
C184 C 0.75567 0.26338 0.06941 0.0
C185 C 0.76768 0.25227 0.0221 0.0
C186 C 0.73358 0.28414 0.06644 0.0
C187 C 0.72321 0.29429 0.01572 0.0
C188 C 0.73533 0.28308 0.96838 0.0
C189 C 0.75739 0.26238 0.97141 0.0
C190 C 0.699 0.31546 0.0101 0.0
C191 C 0.69125 0.33389 0.05006 0.0
C192 C 0.66695 0.3549 0.04361 0.0
C193 C 0.66709 0.38005 0.07658 0.0
C194 C 0.64457 0.40023 0.07188 0.0
C195 C 0.6212 0.39555 0.03443 0.0
H196 H 0.64191 0.33049 0.98165 0.0
C197 C 0.62082 0.37015 0.002 0.0
C198 C 0.64336 0.35001 0.00661 0.0
H199 H 0.60319 0.36592 0.97264 0.0
H200 H 0.76317 0.25561 0.1087 0.0
H201 H 0.72432 0.29152 0.10386 0.0
H202 H 0.72765 0.2903 0.92878 0.0
H203 H 0.76614 0.25412 0.93406 0.0
H204 H 0.68798 0.3166 0.97046 0.0
H205 H 0.70391 0.33477 0.08811 0.0
H206 H 0.68477 0.3842 0.10591 0.0
H207 H 0.64528 0.41933 0.09814 0.0
C208 C 0.15901 0.86099 0.15365 0.0
C209 C 0.16871 0.87792 0.11132 0.0
C210 C 0.1473 0.87418 0.19941 0.0
C211 C 0.14512 0.90458 0.20352 0.0
C212 C 0.15653 0.92141 0.16274 0.0
C213 C 0.16804 0.90825 0.11697 0.0
C214 C 0.13034 0.9196 0.2485 0.0
C215 C 0.10858 0.90753 0.27499 0.0
C216 C 0.09084 0.92372 0.31453 0.0
C217 C 0.06319 0.91315 0.32512 0.0
C218 C 0.0453 0.92816 0.36041 0.0
C219 C 0.05473 0.95411 0.38603 0.0
H220 H 0.12206 0.95776 0.33603 0.0
C221 C 0.08262 0.96442 0.3764 0.0
C222 C 0.10057 0.94932 0.34136 0.0
H223 H 0.09074 0.9841 0.39624 0.0
H224 H 0.15938 0.83756 0.15038 0.0
H225 H 0.13967 0.8605 0.23096 0.0
H226 H 0.15554 0.94486 0.16524 0.0
H227 H 0.17583 0.92182 0.0853 0.0
H228 H 0.13562 0.94227 0.25569 0.0
H229 H 0.10172 0.88563 0.26402 0.0
H230 H 0.05518 0.89338 0.30542 0.0
H231 H 0.02401 0.91951 0.36727 0.0
C232 C 0.61998 0.65245 0.6473 0.0
C233 C 0.6495 0.64923 0.63764 0.0
C234 C 0.60826 0.64034 0.69288 0.0
C235 C 0.62574 0.62402 0.72919 0.0
C236 C 0.65564 0.62222 0.72093 0.0
C237 C 0.66747 0.63477 0.67554 0.0
C238 C 0.61351 0.60812 0.77507 0.0
C239 C 0.58527 0.60096 0.77661 0.0
C240 C 0.57264 0.58435 0.82076 0.0
C241 C 0.54328 0.5886 0.83093 0.0
C242 C 0.52985 0.57243 0.86988 0.0
C243 C 0.54535 0.55118 0.899 0.0
H244 H 0.61087 0.55895 0.84245 0.0
C245 C 0.57479 0.54679 0.8889 0.0
C246 C 0.58838 0.56331 0.85022 0.0
H247 H 0.58728 0.53053 0.91065 0.0
H248 H 0.60585 0.66396 0.61892 0.0
H249 H 0.58545 0.64372 0.69879 0.0
H250 H 0.66974 0.61021 0.74859 0.0
H251 H 0.69034 0.63206 0.66877 0.0
H252 H 0.62844 0.6013 0.80754 0.0
H253 H 0.57019 0.60752 0.74432 0.0
H254 H 0.53062 0.60449 0.80851 0.0
H255 H 0.50712 0.57632 0.8765 0.0
C256 C 0.85993 0.11971 0.09796 0.0
C257 C 0.86141 0.14979 0.09158 0.0
C258 C 0.87232 0.10684 0.14405 0.0
C259 C 0.88709 0.12377 0.18452 0.0
C260 C 0.88733 0.15405 0.17915 0.0
C261 C 0.87456 0.16698 0.13315 0.0
C262 C 0.9027 0.11075 0.23229 0.0
C263 C 0.91012 0.08252 0.23466 0.0
C264 C 0.92609 0.06951 0.2816 0.0
C265 C 0.92154 0.04014 0.292 0.0
C266 C 0.93673 0.02665 0.33456 0.0
C267 C 0.95731 0.0421 0.36708 0.0
H268 H 0.95128 0.10758 0.3063 0.0
C269 C 0.9622 0.07146 0.35637 0.0
C270 C 0.94665 0.0851 0.31412 0.0
H271 H 0.97797 0.08391 0.38068 0.0
H272 H 0.84939 0.10607 0.06682 0.0
H273 H 0.87022 0.08364 0.14717 0.0
H274 H 0.89814 0.16772 0.20991 0.0
H275 H 0.87594 0.19026 0.12909 0.0
H276 H 0.90882 0.12517 0.26617 0.0
H277 H 0.90411 0.06775 0.20142 0.0
H278 H 0.90603 0.02758 0.26722 0.0
H279 H 0.93255 0.00397 0.34155 0.0
C280 C 0.38493 0.36365 0.60201 0.0
C281 C 0.35493 0.35881 0.59687 0.0
C282 C 0.39745 0.37558 0.64977 0.0
C283 C 0.38025 0.38268 0.69398 0.0
C284 C 0.35037 0.37696 0.68943 0.0
C285 C 0.33782 0.365 0.64146 0.0
C286 C 0.3923 0.39823 0.74328 0.0
C287 C 0.42072 0.39851 0.75799 0.0
C288 C 0.43338 0.41661 0.80345 0.0
C289 C 0.46065 0.40907 0.82614 0.0
C290 C 0.47404 0.42631 0.867 0.0
C291 C 0.46055 0.45169 0.88578 0.0
H292 H 0.39934 0.44925 0.80455 0.0
C293 C 0.43331 0.45937 0.86297 0.0
C294 C 0.41989 0.44209 0.82213 0.0
H295 H 0.42239 0.47887 0.87635 0.0
H296 H 0.39871 0.35886 0.56844 0.0
H297 H 0.42038 0.38023 0.65065 0.0
H298 H 0.33656 0.38239 0.72264 0.0
H299 H 0.3146 0.36175 0.63849 0.0
H300 H 0.37706 0.40987 0.76806 0.0
H301 H 0.43559 0.38467 0.73641 0.0
H302 H 0.47169 0.38977 0.81213 0.0
H303 H 0.49504 0.41976 0.88368 0.0
C304 C 0.61411 0.63922 0.43028 0.0
C305 C 0.6442 0.6435 0.43558 0.0
C306 C 0.60166 0.62585 0.38372 0.0
C307 C 0.61904 0.6167 0.341 0.0
C308 C 0.64908 0.62129 0.3461 0.0
C309 C 0.66153 0.63464 0.39274 0.0
C310 C 0.60697 0.60077 0.2922 0.0
C311 C 0.57883 0.60169 0.27562 0.0
C312 C 0.56652 0.58438 0.22875 0.0
C313 C 0.54035 0.59338 0.20345 0.0
C314 C 0.52752 0.57718 0.1605 0.0
C315 C 0.54051 0.55143 0.14218 0.0
H316 H 0.59906 0.55021 0.23007 0.0
C317 C 0.56662 0.54229 0.16763 0.0
C318 C 0.57944 0.5585 0.21058 0.0
H319 H 0.57707 0.52243 0.15477 0.0
H320 H 0.60014 0.646 0.46242 0.0
H321 H 0.57855 0.62206 0.38236 0.0
H322 H 0.66303 0.61422 0.31412 0.0
H323 H 0.68483 0.63726 0.39588 0.0
H324 H 0.62214 0.58833 0.26859 0.0
H325 H 0.56415 0.61626 0.29601 0.0
H326 H 0.52977 0.61306 0.21696 0.0
H327 H 0.50736 0.58479 0.14185 0.0
C328 C 0.86503 0.11944 0.88331 0.0
C329 C 0.8621 0.14961 0.88959 0.0
C330 C 0.87724 0.10743 0.83716 0.0
C331 C 0.88656 0.12533 0.79573 0.0
C332 C 0.88312 0.15547 0.80156 0.0
C333 C 0.87089 0.1675 0.84786 0.0
C334 C 0.90183 0.11351 0.74815 0.0
C335 C 0.89952 0.08572 0.73069 0.0
C336 C 0.91696 0.07281 0.68695 0.0
C337 C 0.90755 0.04672 0.66191 0.0
C338 C 0.92422 0.03274 0.62327 0.0
C339 C 0.95084 0.04447 0.60902 0.0
H340 H 0.95211 0.10424 0.69178 0.0
C341 C 0.96021 0.0707 0.63369 0.0
C342 C 0.94355 0.08468 0.67239 0.0
H343 H 0.9807 0.08023 0.62381 0.0
H344 H 0.85823 0.10505 0.91456 0.0
H345 H 0.88017 0.08419 0.83531 0.0
H346 H 0.89035 0.1698 0.77058 0.0
H347 H 0.86921 0.19085 0.85177 0.0
H348 H 0.91527 0.12842 0.72683 0.0
H349 H 0.88396 0.07159 0.7487 0.0
H350 H 0.88732 0.03694 0.67264 0.0
H351 H 0.91635 0.01256 0.60503 0.0
C352 C 0.35667 0.35357 0.3511 0.0
C353 C 0.34743 0.36951 0.39632 0.0
C354 C 0.36835 0.36777 0.30737 0.0
C355 C 0.37081 0.39819 0.30819 0.0
C356 C 0.3602 0.41406 0.35225 0.0
C357 C 0.34883 0.39989 0.39603 0.0
C358 C 0.38452 0.41423 0.26445 0.0
C359 C 0.40569 0.40301 0.23439 0.0
C360 C 0.4216 0.42031 0.19504 0.0
C361 C 0.44984 0.41199 0.18247 0.0
C362 C 0.46585 0.4283 0.14709 0.0
C363 C 0.45385 0.45324 0.1233 0.0
H364 H 0.38729 0.45145 0.17701 0.0
C365 C 0.42535 0.4612 0.13489 0.0
C366 C 0.40934 0.44486 0.17007 0.0
H367 H 0.41526 0.48002 0.11654 0.0
H368 H 0.35572 0.33011 0.35034 0.0
H369 H 0.37549 0.35489 0.27328 0.0
H370 H 0.36148 0.4375 0.35358 0.0
H371 H 0.34146 0.41269 0.43011 0.0
H372 H 0.37881 0.43695 0.26073 0.0
H373 H 0.41333 0.38113 0.24191 0.0
H374 H 0.45973 0.39303 0.20071 0.0
H375 H 0.48767 0.42144 0.13864 0.0
C376 C 0.12847 0.87874 0.90743 0.0
C377 C 0.15821 0.8723 0.90961 0.0
C378 C 0.11538 0.89072 0.86113 0.0
C379 C 0.13169 0.89629 0.81551 0.0
C380 C 0.16137 0.88953 0.81742 0.0
C381 C 0.1745 0.87744 0.8639 0.0
C382 C 0.11867 0.91069 0.76696 0.0
C383 C 0.09021 0.90913 0.75305 0.0
C384 C 0.07626 0.92506 0.70724 0.0
C385 C 0.0497 0.9149 0.68483 0.0
C386 C 0.0351 0.92992 0.64344 0.0
C387 C 0.0466 0.95569 0.62391 0.0
H388 H 0.10778 0.95993 0.70512 0.0
C389 C 0.07312 0.96601 0.64647 0.0
C390 C 0.08781 0.95089 0.68779 0.0
H391 H 0.0825 0.98587 0.63243 0.0
H392 H 0.11532 0.87482 0.94192 0.0
H393 H 0.09267 0.89637 0.86212 0.0
H394 H 0.17449 0.89386 0.78306 0.0
H395 H 0.19753 0.87294 0.86467 0.0
H396 H 0.13314 0.92244 0.74163 0.0
H397 H 0.07637 0.89501 0.77532 0.0
H398 H 0.04016 0.89524 0.69943 0.0
H399 H 0.01468 0.92137 0.62701 0.0
loop_
_geom_bond_atom_site_label_1
_geom_bond_atom_site_label_2
_geom_bond_distance
_geom_bond_site_symmetry_2
_ccdc_geom_bond_type
H0 C5 0.929 . S
H1 C10 0.931 . S
H2 C8 0.930 . S
N3 N4 1.234 1_556 S
N3 C7 1.453 1_556 S
N4 N3 1.234 1_554 S
C5 H0 0.929 . S
C5 C6 1.373 . S
C5 C7 1.368 1_556 S
C6 C5 1.373 . S
C6 C10 1.397 1_556 S
C7 N3 1.453 1_554 S
C7 C5 1.368 1_554 S
C7 C8 1.373 . S
C8 H2 0.930 . S
C8 C7 1.373 . S
C8 C9 1.371 . S
C9 C8 1.371 . S
C9 C10 1.383 . S
C10 H1 0.931 . S
C10 C6 1.397 1_554 S
C10 C9 1.383 . S
H11 C16 0.929 . S
H12 C21 0.931 . S
H13 C19 0.930 . S
N14 N15 1.234 . S
N14 C18 1.453 . S
N15 N14 1.234 . S
C16 H11 0.929 . S
C16 C17 1.373 . S
C16 C18 1.368 . S
C17 C16 1.373 . S
C17 C21 1.397 . S
C18 N14 1.453 . S
C18 C16 1.368 . S
C18 C19 1.373 . S
C19 H13 0.930 . S
C19 C18 1.373 . S
C19 C20 1.371 . S
C20 C19 1.371 . S
C20 C21 1.383 . S
C21 H12 0.931 . S
C21 C17 1.397 . S
C21 C20 1.383 . S
H22 C27 0.929 . S
H23 C32 0.931 . S
H24 C30 0.930 . S
N25 N26 1.234 1_556 S
N25 C29 1.453 . S
N26 N25 1.234 1_554 S
C27 H22 0.929 . S
C27 C28 1.373 . S
C27 C29 1.368 . S
C28 C27 1.373 . S
C28 C32 1.397 1_556 S
C29 N25 1.453 . S
C29 C27 1.368 . S
C29 C30 1.373 1_556 S
C30 H24 0.930 . S
C30 C29 1.373 1_554 S
C30 C31 1.371 . S
C31 C30 1.371 . S
C31 C32 1.383 . S
C32 H23 0.931 . S
C32 C28 1.397 1_554 S
C32 C31 1.383 . S
H33 C38 0.929 . S
H34 C43 0.931 . S
H35 C41 0.930 . S
N36 N37 1.234 . S
N36 C40 1.453 . S
N37 N36 1.234 . S
C38 H33 0.929 . S
C38 C39 1.373 . S
C38 C40 1.368 . S
C39 C38 1.373 . S
C39 C43 1.397 . S
C40 N36 1.453 . S
C40 C38 1.368 . S
C40 C41 1.373 . S
C41 H35 0.930 . S
C41 C40 1.373 . S
C41 C42 1.371 . S
C42 C41 1.371 . S
C42 C43 1.383 . S
C43 H34 0.931 . S
C43 C39 1.397 . S
C43 C42 1.383 . S
C44 O60 1.228 1_565 S
C44 O62 1.254 . S
N45 C46 1.333 . S
N45 C50 1.307 . S
N45 Zn51 2.020 . S
C46 N45 1.333 . S
C46 C47 1.379 . S
C46 H64 0.952 . S
C47 C46 1.379 . S
C47 C48 1.390 . S
C47 H74 0.949 . S
C48 C47 1.390 . S
C48 C49 1.357 . S
C49 C48 1.357 . S
C49 C50 1.370 . S
C49 H75 0.950 . S
C50 N45 1.307 . S
C50 C49 1.370 . S
C50 H68 0.948 . S
Zn51 N45 2.020 . S
Zn51 O60 2.055 . S
Zn51 O66 2.010 1_545 S
Zn51 O70 2.025 1_455 S
Zn51 O72 2.024 1_455 S
C52 O71 1.246 . S
C52 O72 1.249 . S
N53 C54 1.307 . S
N53 C55 1.333 . S
N53 Zn59 2.020 . S
C54 N53 1.307 . S
C54 C58 1.370 . S
C54 H65 0.948 . S
C55 N53 1.333 . S
C55 C56 1.379 . S
C55 H63 0.952 . S
C56 C55 1.379 . S
C56 C57 1.390 . S
C56 H76 0.949 . S
C57 C56 1.390 . S
C57 C58 1.357 . S
C58 C54 1.370 . S
C58 C57 1.357 . S
C58 H77 0.950 . S
Zn59 N53 2.020 . S
Zn59 O62 2.025 1_655 S
Zn59 O67 2.024 1_655 S
Zn59 O69 2.039 1_565 S
Zn59 O71 2.034 1_565 S
O60 C44 1.228 1_545 S
O60 Zn51 2.055 . S
C61 O66 1.278 . S
C61 O67 1.249 . S
O62 C44 1.254 . S
O62 Zn59 2.025 1_455 S
H63 C55 0.952 . S
H64 C46 0.952 . S
H65 C54 0.948 . S
O66 Zn51 2.010 1_565 S
O66 C61 1.278 . S
O67 Zn59 2.024 1_455 S
O67 C61 1.249 . S
H68 C50 0.948 . S
O69 Zn59 2.039 1_545 S
O69 C73 1.251 . S
O70 Zn51 2.025 1_655 S
O70 C73 1.254 . S
O71 C52 1.246 . S
O71 Zn59 2.034 1_545 S
O72 Zn51 2.024 1_655 S
O72 C52 1.249 . S
C73 O69 1.251 . S
C73 O70 1.254 . S
H74 C47 0.949 . S
H75 C49 0.950 . S
H76 C56 0.949 . S
H77 C58 0.950 . S
C78 O94 1.251 . S
C78 O96 1.254 . S
N79 C80 1.333 . S
N79 C84 1.307 . S
N79 Zn85 2.020 . S
C80 N79 1.333 . S
C80 C81 1.379 . S
C80 H98 0.952 1_554 S
C81 C80 1.379 . S
C81 C82 1.390 . S
C81 H108 0.949 1_554 S
C82 C81 1.390 . S
C82 C83 1.357 . S
C83 C82 1.357 . S
C83 C84 1.370 . S
C83 H109 0.950 . S
C84 N79 1.307 . S
C84 C83 1.370 . S
C84 H102 0.948 . S
Zn85 N79 2.020 . S
Zn85 O94 2.039 1_554 S
Zn85 O100 2.034 . S
Zn85 O104 2.025 . S
Zn85 O106 2.024 1_554 S
C86 O105 1.246 . S
C86 O106 1.249 . S
N87 C88 1.307 . S
N87 C89 1.333 . S
N87 Zn93 2.020 . S
C88 N87 1.307 . S
C88 C92 1.370 . S
C88 H99 0.950 . S
C89 N87 1.333 . S
C89 C90 1.379 . S
C89 H97 0.952 . S
C90 C89 1.379 . S
C90 C91 1.390 . S
C90 H110 0.949 . S
C91 C90 1.390 . S
C91 C92 1.357 . S
C92 C88 1.370 . S
C92 C91 1.357 . S
C92 H111 0.950 . S
Zn93 N87 2.020 . S
Zn93 O96 2.025 1_554 S
Zn93 O101 2.024 . S
Zn93 O103 2.039 . S
Zn93 O105 2.034 1_554 S
O94 C78 1.251 . S
O94 Zn85 2.039 1_556 S
C95 O100 1.246 . S
C95 O101 1.249 . S
O96 C78 1.254 . S
O96 Zn93 2.025 1_556 S
H97 C89 0.952 . S
H98 C80 0.952 1_556 S
H99 C88 0.950 . S
O100 Zn85 2.034 . S
O100 C95 1.246 . S
O101 Zn93 2.024 . S
O101 C95 1.249 . S
H102 C84 0.948 . S
O103 Zn93 2.039 . S
O103 C107 1.251 . S
O104 Zn85 2.025 . S
O104 C107 1.254 . S
O105 C86 1.246 . S
O105 Zn93 2.034 1_556 S
O106 Zn85 2.024 1_556 S
O106 C86 1.249 . S
C107 O103 1.251 . S
C107 O104 1.254 . S
H108 C81 0.949 1_556 S
H109 C83 0.950 . S
H110 C90 0.949 . S
H111 C92 0.950 . S
C112 C113 1.386 . S
C112 C114 1.383 . S
C112 H128 0.951 . S
C113 C112 1.386 . S
C113 C117 1.383 . S
C114 C112 1.383 . S
C114 C115 1.402 . S
C114 H129 0.951 . S
C115 C114 1.402 . S
C115 C116 1.375 . S
C115 C118 1.481 . S
C116 C115 1.375 . S
C116 C117 1.367 . S
C116 H130 0.951 . S
C117 C113 1.383 . S
C117 C116 1.367 . S
C117 H131 0.950 . S
C118 C115 1.481 . S
C118 C119 1.297 . S
C118 H132 0.950 . S
C119 C118 1.297 . S
C119 C120 1.479 . S
C119 H133 0.950 . S
C120 C119 1.479 . S
C120 C121 1.375 . S
C120 C126 1.404 . S
C121 C120 1.375 . S
C121 C122 1.369 . S
C121 H134 0.950 . S
C122 C121 1.369 . S
C122 C123 1.392 . S
C122 H135 0.951 . S
C123 C122 1.392 . S
C123 C125 1.384 . S
H124 C126 0.949 . S
C125 C123 1.384 . S
C125 C126 1.385 . S
C125 H127 0.950 . S
C126 C120 1.404 . S
C126 H124 0.949 . S
C126 C125 1.385 . S
H127 C125 0.950 . S
H128 C112 0.951 . S
H129 C114 0.951 . S
H130 C116 0.951 . S
H131 C117 0.950 . S
H132 C118 0.950 . S
H133 C119 0.950 . S
H134 C121 0.950 . S
H135 C122 0.951 . S
C136 C137 1.386 1_556 S
C136 C138 1.383 . S
C136 H152 0.951 . S
C137 C136 1.386 1_554 S
C137 C141 1.383 . S
C138 C136 1.383 . S
C138 C139 1.402 1_556 S
C138 H153 0.951 . S
C139 C138 1.402 1_554 S
C139 C140 1.375 . S
C139 C142 1.481 . S
C140 C139 1.375 . S
C140 C141 1.367 . S
C140 H154 0.951 . S
C141 C137 1.383 . S
C141 C140 1.367 . S
C141 H155 0.950 . S
C142 C139 1.481 . S
C142 C143 1.297 . S
C142 H156 0.950 . S
C143 C142 1.297 . S
C143 C144 1.479 . S
C143 H157 0.950 1_554 S
C144 C143 1.479 . S
C144 C145 1.375 1_554 S
C144 C150 1.404 . S
C145 C144 1.375 1_556 S
C145 C146 1.369 . S
C145 H158 0.950 . S
C146 C145 1.369 . S
C146 C147 1.392 1_556 S
C146 H159 0.951 . S
C147 C146 1.392 1_554 S
C147 C149 1.384 . S
H148 C150 0.949 . S
C149 C147 1.384 . S
C149 C150 1.385 . S
C149 H151 0.950 . S
C150 C144 1.404 . S
C150 H148 0.949 . S
C150 C149 1.385 . S
H151 C149 0.950 . S
H152 C136 0.951 . S
H153 C138 0.951 . S
H154 C140 0.951 . S
H155 C141 0.950 . S
H156 C142 0.950 . S
H157 C143 0.950 1_556 S
H158 C145 0.950 . S
H159 C146 0.951 . S
C160 C161 1.386 . S
C160 C162 1.383 . S
C160 H176 0.951 . S
C161 C160 1.386 . S
C161 C165 1.383 . S
C162 C160 1.383 . S
C162 C163 1.402 . S
C162 H177 0.951 . S
C163 C162 1.402 . S
C163 C164 1.375 . S
C163 C166 1.481 . S
C164 C163 1.375 . S
C164 C165 1.367 . S
C164 H178 0.951 . S
C165 C161 1.383 . S
C165 C164 1.367 . S
C165 H179 0.950 . S
C166 C163 1.481 . S
C166 C167 1.297 . S
C166 H180 0.950 . S
C167 C166 1.297 . S
C167 C168 1.479 . S
C167 H181 0.950 . S
C168 C167 1.479 . S
C168 C169 1.375 . S
C168 C174 1.404 . S
C169 C168 1.375 . S
C169 C170 1.369 . S
C169 H182 0.950 . S
C170 C169 1.369 . S
C170 C171 1.392 . S
C170 H183 0.951 . S
C171 C170 1.392 . S
C171 C173 1.384 . S
H172 C174 0.949 . S
C173 C171 1.384 . S
C173 C174 1.385 . S
C173 H175 0.950 . S
C174 C168 1.404 . S
C174 H172 0.949 . S
C174 C173 1.385 . S
H175 C173 0.950 . S
H176 C160 0.951 . S
H177 C162 0.951 . S
H178 C164 0.951 . S
H179 C165 0.950 . S
H180 C166 0.950 . S
H181 C167 0.950 . S
H182 C169 0.950 . S
H183 C170 0.951 . S
C184 C185 1.386 . S
C184 C186 1.383 . S
C184 H200 0.951 . S
C185 C184 1.386 . S
C185 C189 1.383 1_554 S
C186 C184 1.383 . S
C186 C187 1.402 1_554 S
C186 H201 0.951 . S
C187 C186 1.402 1_556 S
C187 C188 1.375 . S
C187 C190 1.481 . S
C188 C187 1.375 . S
C188 C189 1.367 . S
C188 H202 0.951 . S
C189 C185 1.383 1_556 S
C189 C188 1.367 . S
C189 H203 0.950 . S
C190 C187 1.481 . S
C190 C191 1.297 1_556 S
C190 H204 0.950 . S
C191 C190 1.297 1_554 S
C191 C192 1.479 . S
C191 H205 0.950 . S
C192 C191 1.479 . S
C192 C193 1.375 . S
C192 C198 1.404 1_554 S
C193 C192 1.375 . S
C193 C194 1.369 . S
C193 H206 0.950 . S
C194 C193 1.369 . S
C194 C195 1.392 . S
C194 H207 0.951 . S
C195 C194 1.392 . S
C195 C197 1.384 1_554 S
H196 C198 0.949 . S
C197 C195 1.384 1_556 S
C197 C198 1.385 . S
C197 H199 0.950 . S
C198 C192 1.404 1_556 S
C198 H196 0.949 . S
C198 C197 1.385 . S
H199 C197 0.950 . S
H200 C184 0.951 . S
H201 C186 0.951 . S
H202 C188 0.951 . S
H203 C189 0.950 . S
H204 C190 0.950 . S
H205 C191 0.950 . S
H206 C193 0.950 . S
H207 C194 0.951 . S
C208 C209 1.386 . S
C208 C210 1.383 . S
C208 H224 0.951 . S
C209 C208 1.386 . S
C209 C213 1.383 . S
C210 C208 1.383 . S
C210 C211 1.402 . S
C210 H225 0.951 . S
C211 C210 1.402 . S
C211 C212 1.375 . S
C211 C214 1.481 . S
C212 C211 1.375 . S
C212 C213 1.367 . S
C212 H226 0.951 . S
C213 C209 1.383 . S
C213 C212 1.367 . S
C213 H227 0.950 . S
C214 C211 1.481 . S
C214 C215 1.297 . S
C214 H228 0.950 . S
C215 C214 1.297 . S
C215 C216 1.479 . S
C215 H229 0.950 . S
C216 C215 1.479 . S
C216 C217 1.375 . S
C216 C222 1.404 . S
C217 C216 1.375 . S
C217 C218 1.369 . S
C217 H230 0.950 . S
C218 C217 1.369 . S
C218 C219 1.392 . S
C218 H231 0.951 . S
C219 C218 1.392 . S
C219 C221 1.384 . S
H220 C222 0.949 . S
C221 C219 1.384 . S
C221 C222 1.385 . S
C221 H223 0.950 . S
C222 C216 1.404 . S
C222 H220 0.949 . S
C222 C221 1.385 . S
H223 C221 0.950 . S
H224 C208 0.951 . S
H225 C210 0.951 . S
H226 C212 0.951 . S
H227 C213 0.950 . S
H228 C214 0.950 . S
H229 C215 0.950 . S
H230 C217 0.950 . S
H231 C218 0.951 . S
C232 C233 1.386 . S
C232 C234 1.383 . S
C232 H248 0.951 . S
C233 C232 1.386 . S
C233 C237 1.383 . S
C234 C232 1.383 . S
C234 C235 1.402 . S
C234 H249 0.951 . S
C235 C234 1.402 . S
C235 C236 1.375 . S
C235 C238 1.481 . S
C236 C235 1.375 . S
C236 C237 1.367 . S
C236 H250 0.951 . S
C237 C233 1.383 . S
C237 C236 1.367 . S
C237 H251 0.950 . S
C238 C235 1.481 . S
C238 C239 1.297 . S
C238 H252 0.950 . S
C239 C238 1.297 . S
C239 C240 1.479 . S
C239 H253 0.950 . S
C240 C239 1.479 . S
C240 C241 1.375 . S
C240 C246 1.404 . S
C241 C240 1.375 . S
C241 C242 1.369 . S
C241 H254 0.950 . S
C242 C241 1.369 . S
C242 C243 1.392 . S
C242 H255 0.951 . S
C243 C242 1.392 . S
C243 C245 1.384 . S
H244 C246 0.949 . S
C245 C243 1.384 . S
C245 C246 1.385 . S
C245 H247 0.950 . S
C246 C240 1.404 . S
C246 H244 0.949 . S
C246 C245 1.385 . S
H247 C245 0.950 . S
H248 C232 0.951 . S
H249 C234 0.951 . S
H250 C236 0.951 . S
H251 C237 0.950 . S
H252 C238 0.950 . S
H253 C239 0.950 . S
H254 C241 0.950 . S
H255 C242 0.951 . S
C256 C257 1.386 . S
C256 C258 1.383 . S
C256 H272 0.951 . S
C257 C256 1.386 . S
C257 C261 1.383 . S
C258 C256 1.383 . S
C258 C259 1.402 . S
C258 H273 0.951 . S
C259 C258 1.402 . S
C259 C260 1.375 . S
C259 C262 1.481 . S
C260 C259 1.375 . S
C260 C261 1.367 . S
C260 H274 0.951 . S
C261 C257 1.383 . S
C261 C260 1.367 . S
C261 H275 0.950 . S
C262 C259 1.481 . S
C262 C263 1.297 . S
C262 H276 0.950 . S
C263 C262 1.297 . S
C263 C264 1.479 . S
C263 H277 0.950 . S
C264 C263 1.479 . S
C264 C265 1.375 . S
C264 C270 1.404 . S
C265 C264 1.375 . S
C265 C266 1.369 . S
C265 H278 0.950 . S
C266 C265 1.369 . S
C266 C267 1.392 . S
C266 H279 0.951 . S
C267 C266 1.392 . S
C267 C269 1.384 . S
H268 C270 0.949 . S
C269 C267 1.384 . S
C269 C270 1.385 . S
C269 H271 0.950 . S
C270 C264 1.404 . S
C270 H268 0.949 . S
C270 C269 1.385 . S
H271 C269 0.950 . S
H272 C256 0.951 . S
H273 C258 0.951 . S
H274 C260 0.951 . S
H275 C261 0.950 . S
H276 C262 0.950 . S
H277 C263 0.950 . S
H278 C265 0.950 . S
H279 C266 0.951 . S
C280 C281 1.386 . S
C280 C282 1.383 . S
C280 H296 0.951 . S
C281 C280 1.386 . S
C281 C285 1.383 . S
C282 C280 1.383 . S
C282 C283 1.402 . S
C282 H297 0.951 . S
C283 C282 1.402 . S
C283 C284 1.375 . S
C283 C286 1.481 . S
C284 C283 1.375 . S
C284 C285 1.367 . S
C284 H298 0.951 . S
C285 C281 1.383 . S
C285 C284 1.367 . S
C285 H299 0.950 . S
C286 C283 1.481 . S
C286 C287 1.297 . S
C286 H300 0.950 . S
C287 C286 1.297 . S
C287 C288 1.479 . S
C287 H301 0.950 . S
C288 C287 1.479 . S
C288 C289 1.375 . S
C288 C294 1.404 . S
C289 C288 1.375 . S
C289 C290 1.369 . S
C289 H302 0.950 . S
C290 C289 1.369 . S
C290 C291 1.392 . S
C290 H303 0.951 . S
C291 C290 1.392 . S
C291 C293 1.384 . S
H292 C294 0.949 . S
C293 C291 1.384 . S
C293 C294 1.385 . S
C293 H295 0.950 . S
C294 C288 1.404 . S
C294 H292 0.949 . S
C294 C293 1.385 . S
H295 C293 0.950 . S
H296 C280 0.951 . S
H297 C282 0.951 . S
H298 C284 0.951 . S
H299 C285 0.950 . S
H300 C286 0.950 . S
H301 C287 0.950 . S
H302 C289 0.950 . S
H303 C290 0.951 . S
C304 C305 1.386 . S
C304 C306 1.383 . S
C304 H320 0.951 . S
C305 C304 1.386 . S
C305 C309 1.383 . S
C306 C304 1.383 . S
C306 C307 1.402 . S
C306 H321 0.951 . S
C307 C306 1.402 . S
C307 C308 1.375 . S
C307 C310 1.481 . S
C308 C307 1.375 . S
C308 C309 1.367 . S
C308 H322 0.951 . S
C309 C305 1.383 . S
C309 C308 1.367 . S
C309 H323 0.950 . S
C310 C307 1.481 . S
C310 C311 1.297 . S
C310 H324 0.950 . S
C311 C310 1.297 . S
C311 C312 1.479 . S
C311 H325 0.950 . S
C312 C311 1.479 . S
C312 C313 1.375 . S
C312 C318 1.404 . S
C313 C312 1.375 . S
C313 C314 1.369 . S
C313 H326 0.950 . S
C314 C313 1.369 . S
C314 C315 1.392 . S
C314 H327 0.951 . S
C315 C314 1.392 . S
C315 C317 1.384 . S
H316 C318 0.949 . S
C317 C315 1.384 . S
C317 C318 1.385 . S
C317 H319 0.950 . S
C318 C312 1.404 . S
C318 H316 0.949 . S
C318 C317 1.385 . S
H319 C317 0.950 . S
H320 C304 0.951 . S
H321 C306 0.951 . S
H322 C308 0.951 . S
H323 C309 0.950 . S
H324 C310 0.950 . S
H325 C311 0.950 . S
H326 C313 0.950 . S
H327 C314 0.951 . S
C328 C329 1.386 . S
C328 C330 1.383 . S
C328 H344 0.951 . S
C329 C328 1.386 . S
C329 C333 1.383 . S
C330 C328 1.383 . S
C330 C331 1.402 . S
C330 H345 0.951 . S
C331 C330 1.402 . S
C331 C332 1.375 . S
C331 C334 1.481 . S
C332 C331 1.375 . S
C332 C333 1.367 . S
C332 H346 0.951 . S
C333 C329 1.383 . S
C333 C332 1.367 . S
C333 H347 0.950 . S
C334 C331 1.481 . S
C334 C335 1.297 . S
C334 H348 0.950 . S
C335 C334 1.297 . S
C335 C336 1.479 . S
C335 H349 0.950 . S
C336 C335 1.479 . S
C336 C337 1.375 . S
C336 C342 1.404 . S
C337 C336 1.375 . S
C337 C338 1.369 . S
C337 H350 0.950 . S
C338 C337 1.369 . S
C338 C339 1.392 . S
C338 H351 0.951 . S
C339 C338 1.392 . S
C339 C341 1.384 . S
H340 C342 0.949 . S
C341 C339 1.384 . S
C341 C342 1.385 . S
C341 H343 0.950 . S
C342 C336 1.404 . S
C342 H340 0.949 . S
C342 C341 1.385 . S
H343 C341 0.950 . S
H344 C328 0.951 . S
H345 C330 0.951 . S
H346 C332 0.951 . S
H347 C333 0.950 . S
H348 C334 0.950 . S
H349 C335 0.950 . S
H350 C337 0.950 . S
H351 C338 0.951 . S
C352 C353 1.386 . S
C352 C354 1.383 . S
C352 H368 0.951 . S
C353 C352 1.386 . S
C353 C357 1.383 . S
C354 C352 1.383 . S
C354 C355 1.402 . S
C354 H369 0.951 . S
C355 C354 1.402 . S
C355 C356 1.375 . S
C355 C358 1.481 . S
C356 C355 1.375 . S
C356 C357 1.367 . S
C356 H370 0.951 . S
C357 C353 1.383 . S
C357 C356 1.367 . S
C357 H371 0.950 . S
C358 C355 1.481 . S
C358 C359 1.297 . S
C358 H372 0.950 . S
C359 C358 1.297 . S
C359 C360 1.479 . S
C359 H373 0.950 . S
C360 C359 1.479 . S
C360 C361 1.375 . S
C360 C366 1.404 . S
C361 C360 1.375 . S
C361 C362 1.369 . S
C361 H374 0.950 . S
C362 C361 1.369 . S
C362 C363 1.392 . S
C362 H375 0.951 . S
C363 C362 1.392 . S
C363 C365 1.384 . S
H364 C366 0.949 . S
C365 C363 1.384 . S
C365 C366 1.385 . S
C365 H367 0.950 . S
C366 C360 1.404 . S
C366 H364 0.949 . S
C366 C365 1.385 . S
H367 C365 0.950 . S
H368 C352 0.951 . S
H369 C354 0.951 . S
H370 C356 0.951 . S
H371 C357 0.950 . S
H372 C358 0.950 . S
H373 C359 0.950 . S
H374 C361 0.950 . S
H375 C362 0.951 . S
C376 C377 1.386 . S
C376 C378 1.383 . S
C376 H392 0.951 . S
C377 C376 1.386 . S
C377 C381 1.383 . S
C378 C376 1.383 . S
C378 C379 1.402 . S
C378 H393 0.951 . S
C379 C378 1.402 . S
C379 C380 1.375 . S
C379 C382 1.481 . S
C380 C379 1.375 . S
C380 C381 1.367 . S
C380 H394 0.951 . S
C381 C377 1.383 . S
C381 C380 1.367 . S
C381 H395 0.950 . S
C382 C379 1.481 . S
C382 C383 1.297 . S
C382 H396 0.950 . S
C383 C382 1.297 . S
C383 C384 1.479 . S
C383 H397 0.950 . S
C384 C383 1.479 . S
C384 C385 1.375 . S
C384 C390 1.404 . S
C385 C384 1.375 . S
C385 C386 1.369 . S
C385 H398 0.950 . S
C386 C385 1.369 . S
C386 C387 1.392 . S
C386 H399 0.951 . S
C387 C386 1.392 . S
C387 C389 1.384 . S
H388 C390 0.949 . S
C389 C387 1.384 . S
C389 C390 1.385 . S
C389 H391 0.950 . S
C390 C384 1.404 . S
C390 H388 0.949 . S
C390 C389 1.385 . S
H391 C389 0.950 . S
H392 C376 0.951 . S
H393 C378 0.951 . S
H394 C380 0.951 . S
H395 C381 0.950 . S
H396 C382 0.950 . S
H397 C383 0.950 . S
H398 C385 0.950 . S
H399 C386 0.951 . S
C123 C48 1.485 . S
C113 N37 1.495 . S
C137 N4 1.498 . S
C147 C91 1.497 . S
C161 N15 1.487 . S
C171 C57 1.490 . S
C185 N26 1.507 . S
C195 C82 1.498 . S
C219 C44 1.551 . S
C209 C9 1.539 . S
C243 C86 1.539 . S
C233 C17 1.543 . S
C257 C31 1.531 . S
C267 C52 1.560 . S
C281 C42 1.525 . S
C291 C78 1.535 . S
C315 C107 1.450 . S
C305 C20 1.455 . S
C339 C73 1.436 . S
C329 C28 1.440 . S
C363 C95 1.443 . S
C353 C39 1.451 . S
C377 C6 1.448 . S
C387 C61 1.445 . S
