# Generated by pormake.
# Topology tsx, (6,3)-cn, num edge types: 1
# Building blocks:
#     Node 0, Type 0, BuildingBlock: VOLQOD_clean_sbu_1, # of connection points: 6
#     Node 1, Type 0, BuildingBlock: VOLQOD_clean_sbu_1, # of connection points: 6
#     Node 2, Type 1, BuildingBlock: BETDAH_clean_linker_0, # of connection points: 3
#     Node 3, Type 1, BuildingBlock: BETDAH_clean_linker_0, # of connection points: 3
#     Node 4, Type 1, BuildingBlock: BETDAH_clean_linker_0, # of connection points: 3
#     Node 5, Type 1, BuildingBlock: BETDAH_clean_linker_0, # of connection points: 3
#     Edge 6, Type (0, 1), BuildingBlock: XIVTED_clean_linker_0, # of connection points: 2
#     Edge 7, Type (0, 1), BuildingBlock: XIVTED_clean_linker_0, # of connection points: 2
#     Edge 8, Type (0, 1), BuildingBlock: XIVTED_clean_linker_0, # of connection points: 2
#     Edge 9, Type (0, 1), BuildingBlock: XIVTED_clean_linker_0, # of connection points: 2
#     Edge 10, Type (0, 1), BuildingBlock: XIVTED_clean_linker_0, # of connection points: 2
#     Edge 11, Type (0, 1), BuildingBlock: XIVTED_clean_linker_0, # of connection points: 2
#     Edge 12, Type (0, 1), BuildingBlock: XIVTED_clean_linker_0, # of connection points: 2
#     Edge 13, Type (0, 1), BuildingBlock: XIVTED_clean_linker_0, # of connection points: 2
#     Edge 14, Type (0, 1), BuildingBlock: XIVTED_clean_linker_0, # of connection points: 2
#     Edge 15, Type (0, 1), BuildingBlock: XIVTED_clean_linker_0, # of connection points: 2
#     Edge 16, Type (0, 1), BuildingBlock: XIVTED_clean_linker_0, # of connection points: 2
#     Edge 17, Type (0, 1), BuildingBlock: XIVTED_clean_linker_0, # of connection points: 2
# Relax obj value: 0.053
# Max RMSD: 0.112
# Mean RMSD: 0.100
data_MOF--net-tsx--node1-VOLQOD_clean_sbu_1--node2-BETDAH_clean_linker_0--edge1-XIVTED_clean_linker_0
_symmetry_space_group_name_H-M    P1
_symmetry_Int_Tables_number       1
_symmetry_cell_setting            triclinic
loop_
_symmetry_equiv_pos_as_xyz
'x, y, z'
_cell_length_a     21.48063
_cell_length_b     22.064103
_cell_length_c     37.312707
_cell_angle_alpha  91.226257
_cell_angle_beta   96.476413
_cell_angle_gamma 90.122938
loop_
_atom_site_label
_atom_site_type_symbol
_atom_site_fract_x
_atom_site_fract_y
_atom_site_fract_z
_atom_type_partial_charge
O0 O 0.05103 -0.00041 0.0893 0.0
Zn1 Zn 0.07373 -0.00364 0.03766 0.0
O2 O 0.00131 0.01473 0.00257 0.0
Zn3 Zn 0.9814 0.94592 0.96984 0.0
Zn4 Zn 0.92923 0.03207 0.02854 0.0
Zn5 Zn 0.0193 0.08409 0.97356 0.0
O6 O 0.98405 0.9673 0.91786 0.0
O7 O 0.02036 0.06161 0.92072 0.0
O8 O 0.11139 0.91469 0.02619 0.0
O9 O 0.04628 0.88203 0.97927 0.0
O10 O 0.89879 0.90779 0.97706 0.0
O11 O 0.86374 0.96662 0.01932 0.0
O12 O 0.89126 0.11275 0.015 0.0
O13 O 0.14072 0.05938 0.03524 0.0
O14 O 0.95406 0.14828 0.97682 0.0
O15 O 0.10292 0.12056 0.99157 0.0
C16 C 0.00155 0.01729 0.10234 0.0
C17 C 0.00326 0.01374 0.90257 0.0
C18 C 0.85793 0.9203 0.99827 0.0
C19 C 0.09472 0.87485 1.00168 0.0
C20 C 0.90661 0.15393 0.99422 0.0
C21 C 0.14606 0.10571 0.016 0.0
O22 O 0.95311 0.03303 0.08193 0.0
O23 O 0.537 0.51316 0.58939 0.0
Zn24 Zn 0.55349 0.51364 0.53695 0.0
O25 O 0.4785 0.53398 0.50505 0.0
Zn26 Zn 0.45511 0.46701 0.47177 0.0
Zn27 Zn 0.41091 0.54842 0.53481 0.0
Zn28 Zn 0.49304 0.60524 0.47656 0.0
O29 O 0.45149 0.49127 0.42019 0.0
O30 O 0.49061 0.58452 0.42298 0.0
O31 O 0.58971 0.43356 0.52249 0.0
O32 O 0.52054 0.40283 0.47703 0.0
O33 O 0.37461 0.42798 0.48139 0.0
O34 O 0.34719 0.4807 0.5284 0.0
O35 O 0.36879 0.62673 0.52176 0.0
O36 O 0.61935 0.57673 0.5334 0.0
O37 O 0.42661 0.66782 0.48269 0.0
O38 O 0.57763 0.64184 0.49295 0.0
C39 C 0.4916 0.53309 0.60547 0.0
C40 C 0.47051 0.53758 0.40473 0.0
C41 C 0.33821 0.43691 0.50561 0.0
C42 C 0.57102 0.39503 0.49766 0.0
C43 C 0.38032 0.6698 0.50127 0.0
C44 C 0.62293 0.62472 0.51539 0.0
O45 O 0.44156 0.55195 0.58776 0.0
H46 H 0.08376 0.96578 0.37501 0.0
H47 H 0.89566 0.03393 0.37428 0.0
H48 H 0.98763 0.95422 0.46959 0.0
C49 C 0.0435 0.9765 0.389 0.0
C50 C 0.0433 0.95884 0.42492 0.0
C51 C 0.99067 0.00364 0.37016 0.0
C52 C 0.9372 0.01365 0.38819 0.0
C53 C 0.93643 0.99495 0.42393 0.0
C54 C 0.98918 0.96797 0.44199 0.0
N55 N 0.88174 -0.00143 0.44164 0.0
C56 C 0.84579 0.05046 0.44223 0.0
H57 H 0.96117 0.89441 0.64093 0.0
H58 H 0.10521 0.02437 0.62565 0.0
H59 H 0.02119 0.91535 0.53598 0.0
C60 C 0.99122 0.91614 0.62349 0.0
C61 C 0.98557 0.90011 0.58677 0.0
C62 C 0.03457 0.96034 0.63801 0.0
C63 C 0.07116 0.99052 0.61484 0.0
C64 C 0.06622 0.97372 0.57793 0.0
C65 C 0.024 0.92842 0.56429 0.0
N66 N 0.10559 -0.00147 0.55406 0.0
C67 C 0.12212 0.05921 0.55411 0.0
H68 H 0.61174 0.48377 0.87842 0.0
H69 H 0.41562 0.51867 0.8817 0.0
H70 H 0.52168 0.43391 0.9709 0.0
C71 C 0.57035 0.48144 0.89244 0.0
C72 C 0.57421 0.4548 0.92644 0.0
C73 C 0.51285 0.50104 0.87491 0.0
C74 C 0.4605 0.50349 0.89446 0.0
C75 C 0.46502 0.4813 0.92979 0.0
C76 C 0.52085 0.45512 0.94494 0.0
N77 N 0.41255 0.47967 0.94951 0.0
C78 C 0.37375 0.52917 0.95256 0.0
H79 H 0.44285 0.4125 0.14206 0.0
H80 H 0.59742 0.53415 0.13345 0.0
H81 H 0.52998 0.41622 0.04415 0.0
C82 C 0.47798 0.431 0.12659 0.0
C83 C 0.48098 0.40958 0.09125 0.0
C84 C 0.52019 0.4752 0.14247 0.0
C85 C 0.56378 0.50074 0.12155 0.0
C86 C 0.56684 0.47926 0.08593 0.0
C87 C 0.52594 0.43361 0.07119 0.0
N88 N 0.61449 0.49815 0.06544 0.0
C89 C 0.62928 0.55835 0.06074 0.0
H90 H 0.24453 0.09289 0.06855 0.0
H91 H 0.41145 0.4031 0.02501 0.0
H92 H 0.17595 0.20733 0.98029 0.0
H93 H 0.45465 0.30419 0.12315 0.0
H94 H 0.33558 0.32384 0.0028 0.0
H95 H 0.33261 0.16209 0.08338 0.0
C96 C 0.24815 0.13233 0.0521 0.0
C97 C 0.2023 0.14465 0.02337 0.0
C98 C 0.36196 0.31941 0.0291 0.0
C99 C 0.30313 0.22421 0.04032 0.0
C100 C 0.40532 0.36439 0.04167 0.0
C101 C 0.43851 0.36039 0.07612 0.0
C102 C 0.35239 0.27006 0.05107 0.0
C103 C 0.42902 0.30947 0.09671 0.0
C104 C 0.29847 0.1719 0.06064 0.0
C105 C 0.20985 0.19631 0.00289 0.0
N106 N 0.38664 0.26643 0.08393 0.0
N107 N 0.25912 0.23445 0.01192 0.0
H108 H 0.06742 0.77723 0.9564 0.0
H109 H 0.40217 0.62032 1.00066 0.0
H110 H 0.21176 0.8492 0.03601 0.0
H111 H 0.25682 0.55141 0.92121 0.0
H112 H 0.33317 0.70392 0.01494 0.0
H113 H 0.13531 0.69272 0.94484 0.0
C114 C 0.11332 0.77515 0.97167 0.0
C115 C 0.13396 0.82072 0.99715 0.0
C116 C 0.31633 0.67068 0.99433 0.0
C117 C 0.21241 0.72371 0.98373 0.0
C118 C 0.35569 0.6233 0.98613 0.0
C119 C 0.33472 0.57983 0.95967 0.0
C120 C 0.2557 0.6741 0.97589 0.0
C121 C 0.27438 0.58466 0.94167 0.0
C122 C 0.15218 0.72679 0.96495 0.0
C123 C 0.19386 0.81517 0.01614 0.0
N124 N 0.23682 0.63109 0.95011 0.0
N125 N 0.23115 0.76769 0.0089 0.0
H126 H 0.82024 0.8244 0.95318 0.0
H127 H 0.64555 0.66151 0.10177 0.0
H128 H 0.78238 0.91352 0.05253 0.0
H129 H 0.65676 0.58674 0.99512 0.0
H130 H 0.68796 0.75792 0.08285 0.0
H131 H 0.75177 0.74108 0.96578 0.0
C132 C 0.79675 0.82692 0.97737 0.0
C133 C 0.80774 0.87568 0.00205 0.0
C134 C 0.68038 0.72072 0.06343 0.0
C135 C 0.73005 0.77983 0.017 0.0
C136 C 0.65636 0.66596 0.07427 0.0
C137 C 0.64838 0.61691 0.04987 0.0
C138 C 0.69686 0.72558 0.02813 0.0
C139 C 0.66278 0.62403 0.0146 0.0
C140 C 0.75768 0.77924 0.98461 0.0
C141 C 0.77559 0.87669 0.03283 0.0
N142 N 0.68694 0.67727 0.00482 0.0
N143 N 0.739 0.82896 0.03974 0.0
H144 H 0.90697 0.23645 0.94083 0.0
H145 H 0.6246 0.43689 0.99722 0.0
H146 H 0.81559 0.19488 0.03479 0.0
H147 H 0.65374 0.39165 0.88695 0.0
H148 H 0.7127 0.37079 0.01779 0.0
H149 H 0.83358 0.31951 0.92806 0.0
C150 C 0.87203 0.24521 0.95906 0.0
C151 C 0.86672 0.20805 0.9886 0.0
C152 C 0.69989 0.3765 0.98915 0.0
C153 C 0.78318 0.30328 0.97421 0.0
C154 C 0.6495 0.41383 0.97732 0.0
C155 C 0.63132 0.42045 0.94017 0.0
C156 C 0.73295 0.34679 0.96367 0.0
C157 C 0.6664 0.38993 0.91578 0.0
C158 C 0.83018 0.29254 0.95169 0.0
C159 C 0.82065 0.22188 0.0114 0.0
N160 N 0.71539 0.35468 0.92798 0.0
N161 N 0.78023 0.26835 0.00361 0.0
H162 H 0.65068 0.72954 0.48193 0.0
H163 H 0.96343 0.78986 0.61449 0.0
H164 H 0.72689 0.60437 0.56279 0.0
H165 H 0.902 0.90601 0.52595 0.0
H166 H 0.87945 0.71869 0.59354 0.0
H167 H 0.74451 0.79258 0.49529 0.0
C168 C 0.68719 0.71512 0.50234 0.0
C169 C 0.68058 0.66186 0.52151 0.0
C170 C 0.88452 0.75946 0.57846 0.0
C171 C 0.78786 0.73373 0.53689 0.0
C172 C 0.93228 0.80014 0.59051 0.0
C173 C 0.939 0.85406 0.57214 0.0
C174 C 0.84277 0.77308 0.548 0.0
C175 C 0.89823 0.86483 0.54086 0.0
C176 C 0.7408 0.75106 0.50988 0.0
C177 C 0.72962 0.64525 0.54749 0.0
N178 N 0.85128 0.82495 0.52996 0.0
N179 N 0.78091 0.68127 0.55457 0.0
H180 H 0.54236 0.30074 0.44993 0.0
H181 H 0.87889 0.14491 0.48688 0.0
H182 H 0.68956 0.36895 0.52906 0.0
H183 H 0.72832 0.0729 0.41195 0.0
H184 H 0.81155 0.22952 0.50143 0.0
H185 H 0.61027 0.21783 0.43526 0.0
C186 C 0.58888 0.29816 0.46441 0.0
C187 C 0.6103 0.34205 0.49077 0.0
C188 C 0.79325 0.1955 0.48164 0.0
C189 C 0.68861 0.24718 0.47379 0.0
C190 C 0.83171 0.14763 0.47324 0.0
C191 C 0.80868 0.10291 0.44809 0.0
C192 C 0.73144 0.19808 0.46477 0.0
C193 C 0.74743 0.10725 0.43131 0.0
C194 C 0.62771 0.25078 0.45592 0.0
C195 C 0.67102 0.33613 0.50861 0.0
N196 N 0.71069 0.15412 0.44 0.0
N197 N 0.70816 0.28967 0.49969 0.0
H198 H 0.28834 0.35247 0.4559 0.0
H199 H 0.15204 0.1505 0.60311 0.0
H200 H 0.27907 0.4155 0.56549 0.0
H201 H 0.13386 0.10477 0.48959 0.0
H202 H 0.19155 0.25143 0.58976 0.0
H203 H 0.22331 0.2657 0.46685 0.0
C204 C 0.27182 0.34851 0.48213 0.0
C205 C 0.28975 0.3909 0.50994 0.0
C206 C 0.17817 0.21961 0.56773 0.0
C207 C 0.21613 0.29096 0.52293 0.0
C208 C 0.15587 0.16227 0.57539 0.0
C209 C 0.14043 0.12009 0.54731 0.0
C210 C 0.18533 0.23392 0.53182 0.0
C211 C 0.14581 0.13657 0.51185 0.0
C212 C 0.23469 0.29888 0.48841 0.0
C213 C 0.26652 0.38375 0.54331 0.0
N214 N 0.16838 0.19212 0.5051 0.0
N215 N 0.23173 0.3341 0.54909 0.0
H216 H 0.27356 0.68647 0.53375 0.0
H217 H 0.16861 0.98056 0.4219 0.0
H218 H 0.3877 0.77122 0.46056 0.0
H219 H 0.04206 0.86281 0.47026 0.0
H220 H 0.25644 0.91841 0.44706 0.0
H221 H 0.19613 0.76622 0.52226 0.0
C222 C 0.28271 0.72212 0.5155 0.0
C223 C 0.33676 0.72152 0.49757 0.0
C224 C 0.20942 0.90679 0.45244 0.0
C225 C 0.24813 0.8129 0.48436 0.0
C226 C 0.15928 0.94195 0.43795 0.0
C227 C 0.0977 0.92641 0.44349 0.0
C228 C 0.19786 0.85607 0.47278 0.0
C229 C 0.08858 0.87688 0.46536 0.0
C230 C 0.23839 0.76761 0.50896 0.0
C231 C 0.34631 0.7694 0.47458 0.0
N232 N 0.13807 0.84324 0.47895 0.0
N233 N 0.30204 0.81293 0.46835 0.0
H234 H 0.89781 0.02472 0.13834 0.0
H235 H 0.08736 0.04602 0.33491 0.0
H236 H 0.09958 0.01485 0.1566 0.0
H237 H 0.89388 0.98865 0.31565 0.0
H238 H 0.09027 0.05219 0.26981 0.0
H239 H 0.89379 0.02813 0.20347 0.0
C240 C 0.94137 0.02345 0.15603 0.0
C241 C -0.0008 0.0193 0.14191 0.0
C242 C 0.04715 0.03858 0.27992 0.0
C243 C -0.00529 0.02375 0.21665 0.0
C244 C 0.04535 0.03494 0.31709 0.0
C245 C 0.99045 0.01601 0.33099 0.0
C246 C -0.00656 0.02404 0.25632 0.0
C247 C 0.93712 0.00389 0.30642 0.0
C248 C 0.93892 0.02527 0.19323 0.0
C249 C 0.05398 0.01766 0.16625 0.0
N250 N 0.94005 0.00789 0.27032 0.0
N251 N 0.05041 0.02011 0.20246 0.0
H252 H 0.03028 0.10543 0.85745 0.0
H253 H 0.04939 0.87625 0.69011 0.0
H254 H 0.9917 0.91332 0.8583 0.0
H255 H 0.03572 0.06941 0.67596 0.0
H256 H 0.04504 0.89155 0.75453 0.0
H257 H 0.04527 0.09553 0.79323 0.0
C258 C 0.02476 0.06129 0.84419 0.0
C259 C 0.00954 0.01013 0.86337 0.0
C260 C 0.04321 0.93079 0.73751 0.0
C261 C 0.02759 -0.00145 0.79028 0.0
C262 C 0.04589 0.92208 0.70072 0.0
C263 C 0.04189 0.97158 0.67762 0.0
C264 C 0.03658 0.98956 0.75164 0.0
C265 C 0.03873 0.03006 0.6929 0.0
C266 C 0.0334 0.05575 0.80759 0.0
C267 C 0.00309 0.95412 0.84476 0.0
N268 N 0.03555 0.03751 0.72905 0.0
N269 N 0.0124 0.94989 0.80944 0.0
H270 H 0.58197 0.48056 0.65221 0.0
H271 H 0.44267 0.58573 0.83364 0.0
H272 H 0.41195 0.58522 0.64995 0.0
H273 H 0.56881 0.43523 0.825 0.0
H274 H 0.43727 0.59735 0.76779 0.0
H275 H 0.58661 0.4767 0.71767 0.0
C276 C 0.54571 0.50299 0.66545 0.0
C277 C 0.49628 0.53288 0.64543 0.0
C278 C 0.46631 0.56211 0.78059 0.0
C279 C 0.50133 0.52864 0.72067 0.0
C280 C 0.46929 0.55537 0.81809 0.0
C281 C 0.50737 0.51035 0.83519 0.0
C282 C 0.50184 0.52371 0.76029 0.0
C283 C 0.54056 0.47206 0.8135 0.0
C284 C 0.54826 0.50059 0.70288 0.0
C285 C 0.4507 0.56125 0.66426 0.0
N286 N 0.53729 0.47989 0.77745 0.0
N287 N 0.45429 0.55844 0.70086 0.0
H288 H 0.43686 0.44209 0.3591 0.0
H289 H 0.52638 0.58734 0.17774 0.0
H290 H 0.51338 0.62343 0.36016 0.0
H291 H 0.51483 0.39554 0.19637 0.0
H292 H 0.51393 0.60725 0.24196 0.0
H293 H 0.45227 0.43074 0.29597 0.0
C294 C 0.45656 0.47986 0.34605 0.0
C295 C 0.47423 0.53371 0.36524 0.0
C296 C 0.51447 0.56093 0.23182 0.0
C297 C 0.49255 0.5206 0.29233 0.0
C298 C 0.52186 0.54957 0.19534 0.0
C299 C 0.52034 0.48975 0.18157 0.0
C300 C 0.50524 0.51205 0.25427 0.0
C301 C 0.51454 0.44243 0.20553 0.0
C302 C 0.46574 0.47314 0.3099 0.0
C303 C 0.49927 0.58102 0.34648 0.0
N304 N 0.50662 0.45462 0.24043 0.0
N305 N 0.50784 0.57336 0.31098 0.0
loop_
_geom_bond_atom_site_label_1
_geom_bond_atom_site_label_2
_geom_bond_distance
_geom_bond_site_symmetry_2
_ccdc_geom_bond_type
O0 Zn1 1.953 . S
O0 C16 1.225 1_565 S
Zn1 O0 1.953 . S
Zn1 O2 1.949 1_565 S
Zn1 O8 1.919 . S
Zn1 O13 1.924 1_565 S
O2 Zn1 1.949 1_545 S
O2 Zn3 1.923 1_444 S
O2 Zn4 1.950 1_455 S
O2 Zn5 1.945 1_554 S
Zn3 O2 1.923 1_666 S
Zn3 O6 1.933 . S
Zn3 O9 1.941 1_655 S
Zn3 O10 1.965 . S
Zn4 O2 1.950 1_655 S
Zn4 O11 1.938 1_545 S
Zn4 O12 1.906 . S
Zn4 O22 1.953 . S
Zn5 O2 1.945 1_556 S
Zn5 O7 1.932 . S
Zn5 O14 1.977 1_455 S
Zn5 O15 1.910 . S
O6 Zn3 1.933 . S
O6 C17 1.226 1_565 S
O7 Zn5 1.932 . S
O7 C17 1.307 1_455 S
O8 Zn1 1.919 . S
O8 C19 1.253 1_554 S
O9 Zn3 1.941 1_455 S
O9 C19 1.283 . S
O10 Zn3 1.965 . S
O10 C18 1.303 1_556 S
O11 Zn4 1.938 1_565 S
O11 C18 1.247 . S
O12 Zn4 1.906 . S
O12 C20 1.304 1_554 S
O13 Zn1 1.924 1_545 S
O13 C21 1.311 . S
O14 Zn5 1.977 1_655 S
O14 C20 1.272 . S
O15 Zn5 1.910 . S
O15 C21 1.231 1_556 S
C16 O0 1.225 1_545 S
C16 O22 1.298 1_455 S
C17 O6 1.226 1_545 S
C17 O7 1.307 1_655 S
C18 O10 1.303 1_554 S
C18 O11 1.247 . S
C19 O8 1.253 1_556 S
C19 O9 1.283 . S
C20 O12 1.304 1_556 S
C20 O14 1.272 . S
C21 O13 1.311 . S
C21 O15 1.231 1_554 S
O22 Zn4 1.953 . S
O22 C16 1.298 1_655 S
O23 Zn24 1.953 . S
O23 C39 1.225 . S
Zn24 O23 1.953 . S
Zn24 O25 1.949 . S
Zn24 O31 1.919 . S
Zn24 O36 1.924 . S
O25 Zn24 1.949 . S
O25 Zn26 1.923 . S
O25 Zn27 1.950 . S
O25 Zn28 1.945 . S
Zn26 O25 1.923 . S
Zn26 O29 1.933 . S
Zn26 O32 1.941 . S
Zn26 O33 1.965 . S
Zn27 O25 1.950 . S
Zn27 O34 1.938 . S
Zn27 O35 1.906 . S
Zn27 O45 1.953 . S
Zn28 O25 1.945 . S
Zn28 O30 1.932 . S
Zn28 O37 1.977 . S
Zn28 O38 1.910 . S
O29 Zn26 1.933 . S
O29 C40 1.226 . S
O30 Zn28 1.932 . S
O30 C40 1.307 . S
O31 Zn24 1.919 . S
O31 C42 1.253 . S
O32 Zn26 1.941 . S
O32 C42 1.283 . S
O33 Zn26 1.965 . S
O33 C41 1.303 . S
O34 Zn27 1.938 . S
O34 C41 1.247 . S
O35 Zn27 1.906 . S
O35 C43 1.304 . S
O36 Zn24 1.924 . S
O36 C44 1.311 . S
O37 Zn28 1.977 . S
O37 C43 1.272 . S
O38 Zn28 1.910 . S
O38 C44 1.231 . S
C39 O23 1.225 . S
C39 O45 1.298 . S
C40 O29 1.226 . S
C40 O30 1.307 . S
C41 O33 1.303 . S
C41 O34 1.247 . S
C42 O31 1.253 . S
C42 O32 1.283 . S
C43 O35 1.304 . S
C43 O37 1.272 . S
C44 O36 1.311 . S
C44 O38 1.231 . S
O45 Zn27 1.953 . S
O45 C39 1.298 . S
H46 C49 0.929 . S
H47 C52 0.929 . S
H48 C54 0.930 . S
C49 H46 0.929 . S
C49 C50 1.398 . S
C49 C51 1.389 1_565 S
C50 C49 1.398 . S
C50 C54 1.407 . S
C51 C49 1.389 1_545 S
C51 C52 1.399 1_455 S
C52 H47 0.929 . S
C52 C51 1.399 1_655 S
C52 C53 1.382 . S
C53 C52 1.382 . S
C53 C54 1.392 1_645 S
C53 N55 1.420 . S
C54 H48 0.930 . S
C54 C50 1.407 . S
C54 C53 1.392 1_465 S
N55 C53 1.420 . S
N55 C56 1.244 . S
C56 N55 1.244 . S
H57 C60 0.929 . S
H58 C63 0.929 . S
H59 C65 0.930 . S
C60 H57 0.929 . S
C60 C61 1.398 . S
C60 C62 1.396 1_565 S
C61 C60 1.398 . S
C61 C65 1.407 . S
C62 C60 1.396 1_545 S
C62 C63 1.394 1_655 S
C63 H58 0.929 . S
C63 C62 1.394 1_455 S
C63 C64 1.382 . S
C64 C63 1.382 . S
C64 C65 1.392 1_445 S
C64 N66 1.420 . S
C65 H59 0.930 . S
C65 C61 1.407 . S
C65 C64 1.392 1_665 S
N66 C64 1.420 . S
N66 C67 1.244 . S
C67 N66 1.244 . S
H68 C71 0.929 . S
H69 C74 0.929 . S
H70 C76 0.930 . S
C71 H68 0.929 . S
C71 C72 1.398 . S
C71 C73 1.396 . S
C72 C71 1.398 . S
C72 C76 1.407 . S
C73 C71 1.396 . S
C73 C74 1.394 . S
C74 H69 0.929 . S
C74 C73 1.394 . S
C74 C75 1.382 . S
C75 C74 1.382 . S
C75 C76 1.392 . S
C75 N77 1.420 . S
C76 H70 0.930 . S
C76 C72 1.407 . S
C76 C75 1.392 . S
N77 C75 1.420 . S
N77 C78 1.244 . S
C78 N77 1.244 . S
H79 C82 0.929 . S
H80 C85 0.929 . S
H81 C87 0.930 . S
C82 H79 0.929 . S
C82 C83 1.398 . S
C82 C84 1.396 . S
C83 C82 1.398 . S
C83 C87 1.407 . S
C84 C82 1.396 . S
C84 C85 1.394 . S
C85 H80 0.929 . S
C85 C84 1.394 . S
C85 C86 1.382 . S
C86 C85 1.382 . S
C86 C87 1.392 . S
C86 N88 1.420 . S
C87 H81 0.930 . S
C87 C83 1.407 . S
C87 C86 1.392 . S
N88 C86 1.420 . S
N88 C89 1.244 . S
C89 N88 1.244 . S
H90 C96 0.930 . S
H91 C100 0.930 . S
H92 C105 0.929 1_556 S
H93 C103 0.929 . S
H94 C98 0.929 . S
H95 C104 0.929 . S
C96 H90 0.930 . S
C96 C97 1.367 . S
C96 C104 1.378 . S
C97 C96 1.367 . S
C97 C105 1.433 . S
C98 H94 0.929 . S
C98 C100 1.378 . S
C98 C102 1.350 . S
C99 C102 1.463 . S
C99 C104 1.350 . S
C99 N107 1.427 . S
C100 H91 0.930 . S
C100 C98 1.378 . S
C100 C101 1.367 . S
C101 C100 1.367 . S
C101 C103 1.433 . S
C102 C98 1.350 . S
C102 C99 1.463 . S
C102 N106 1.427 . S
C103 H93 0.929 . S
C103 C101 1.433 . S
C103 N106 1.384 . S
C104 H95 0.929 . S
C104 C96 1.378 . S
C104 C99 1.350 . S
C105 H92 0.929 1_554 S
C105 C97 1.433 . S
C105 N107 1.384 . S
N106 C102 1.427 . S
N106 C103 1.384 . S
N107 C99 1.427 . S
N107 C105 1.384 . S
H108 C114 0.930 . S
H109 C118 0.910 1_554 S
H110 C123 0.929 . S
H111 C121 0.929 . S
H112 C116 0.929 1_554 S
H113 C122 0.929 . S
C114 H108 0.930 . S
C114 C115 1.367 . S
C114 C122 1.378 . S
C115 C114 1.367 . S
C115 C123 1.433 1_556 S
C116 H112 0.929 1_556 S
C116 C118 1.378 . S
C116 C120 1.350 . S
C117 C120 1.463 . S
C117 C122 1.350 . S
C117 N125 1.427 1_556 S
C118 H109 0.910 1_556 S
C118 C116 1.378 . S
C118 C119 1.367 . S
C119 C118 1.367 . S
C119 C121 1.433 . S
C120 C116 1.350 . S
C120 C117 1.463 . S
C120 N124 1.427 . S
C121 H111 0.929 . S
C121 C119 1.433 . S
C121 N124 1.384 . S
C122 H113 0.929 . S
C122 C114 1.378 . S
C122 C117 1.350 . S
C123 H110 0.929 . S
C123 C115 1.433 1_554 S
C123 N125 1.384 . S
N124 C120 1.427 . S
N124 C121 1.384 . S
N125 C117 1.427 1_554 S
N125 C123 1.384 . S
H126 C132 0.930 . S
H127 C136 0.930 . S
H128 C141 0.929 . S
H129 C139 0.929 . S
H130 C134 0.929 . S
H131 C140 0.929 1_556 S
C132 H126 0.930 . S
C132 C133 1.367 1_556 S
C132 C140 1.378 1_556 S
C133 C132 1.367 1_554 S
C133 C141 1.433 . S
C134 H130 0.929 . S
C134 C136 1.378 . S
C134 C138 1.350 . S
C135 C138 1.463 . S
C135 C140 1.350 . S
C135 N143 1.427 . S
C136 H127 0.930 . S
C136 C134 1.378 . S
C136 C137 1.367 . S
C137 C136 1.367 . S
C137 C139 1.433 . S
C138 C134 1.350 . S
C138 C135 1.463 . S
C138 N142 1.427 . S
C139 H129 0.929 . S
C139 C137 1.433 . S
C139 N142 1.384 . S
C140 H131 0.929 1_554 S
C140 C132 1.378 1_554 S
C140 C135 1.350 . S
C141 H128 0.929 . S
C141 C133 1.433 . S
C141 N143 1.384 . S
N142 C138 1.427 . S
N142 C139 1.384 . S
N143 C135 1.427 . S
N143 C141 1.384 . S
H144 C150 0.930 . S
H145 C154 0.930 . S
H146 C159 0.939 . S
H147 C157 0.929 . S
H148 C152 0.929 . S
H149 C158 0.929 . S
C150 H144 0.930 . S
C150 C151 1.367 . S
C150 C158 1.378 . S
C151 C150 1.367 . S
C151 C159 1.424 1_556 S
C152 H148 0.929 . S
C152 C154 1.378 . S
C152 C156 1.350 . S
C153 C156 1.463 . S
C153 C158 1.350 . S
C153 N161 1.427 . S
C154 H145 0.930 . S
C154 C152 1.378 . S
C154 C155 1.367 . S
C155 C154 1.367 . S
C155 C157 1.433 . S
C156 C152 1.350 . S
C156 C153 1.463 . S
C156 N160 1.427 . S
C157 H147 0.929 . S
C157 C155 1.433 . S
C157 N160 1.384 . S
C158 H149 0.929 . S
C158 C150 1.378 . S
C158 C153 1.350 . S
C159 H146 0.939 . S
C159 C151 1.424 1_554 S
C159 N161 1.382 1_554 S
N160 C156 1.427 . S
N160 C157 1.384 . S
N161 C153 1.427 . S
N161 C159 1.382 1_556 S
H162 C168 0.930 . S
H163 C172 0.930 . S
H164 C177 0.929 . S
H165 C175 0.929 . S
H166 C170 0.929 . S
H167 C176 0.929 . S
C168 H162 0.930 . S
C168 C169 1.367 . S
C168 C176 1.378 . S
C169 C168 1.367 . S
C169 C177 1.433 . S
C170 H166 0.929 . S
C170 C172 1.378 . S
C170 C174 1.350 . S
C171 C174 1.463 . S
C171 C176 1.350 . S
C171 N179 1.427 . S
C172 H163 0.930 . S
C172 C170 1.378 . S
C172 C173 1.367 . S
C173 C172 1.367 . S
C173 C175 1.433 . S
C174 C170 1.350 . S
C174 C171 1.463 . S
C174 N178 1.427 . S
C175 H165 0.929 . S
C175 C173 1.433 . S
C175 N178 1.384 . S
C176 H167 0.929 . S
C176 C168 1.378 . S
C176 C171 1.350 . S
C177 H164 0.929 . S
C177 C169 1.433 . S
C177 N179 1.384 . S
N178 C174 1.427 . S
N178 C175 1.384 . S
N179 C171 1.427 . S
N179 C177 1.384 . S
H180 C186 0.930 . S
H181 C190 0.930 . S
H182 C195 0.929 . S
H183 C193 0.929 . S
H184 C188 0.929 . S
H185 C194 0.929 . S
C186 H180 0.930 . S
C186 C187 1.367 . S
C186 C194 1.378 . S
C187 C186 1.367 . S
C187 C195 1.433 . S
C188 H184 0.929 . S
C188 C190 1.378 . S
C188 C192 1.350 . S
C189 C192 1.463 . S
C189 C194 1.350 . S
C189 N197 1.427 . S
C190 H181 0.930 . S
C190 C188 1.378 . S
C190 C191 1.367 . S
C191 C190 1.367 . S
C191 C193 1.433 . S
C192 C188 1.350 . S
C192 C189 1.463 . S
C192 N196 1.427 . S
C193 H183 0.929 . S
C193 C191 1.433 . S
C193 N196 1.384 . S
C194 H185 0.929 . S
C194 C186 1.378 . S
C194 C189 1.350 . S
C195 H182 0.929 . S
C195 C187 1.433 . S
C195 N197 1.384 . S
N196 C192 1.427 . S
N196 C193 1.384 . S
N197 C189 1.427 . S
N197 C195 1.384 . S
H198 C204 0.930 . S
H199 C208 0.930 . S
H200 C213 0.929 . S
H201 C211 0.929 . S
H202 C206 0.929 . S
H203 C212 0.929 . S
C204 H198 0.930 . S
C204 C205 1.367 . S
C204 C212 1.378 . S
C205 C204 1.367 . S
C205 C213 1.433 . S
C206 H202 0.929 . S
C206 C208 1.378 . S
C206 C210 1.350 . S
C207 C210 1.463 . S
C207 C212 1.350 . S
C207 N215 1.427 . S
C208 H199 0.930 . S
C208 C206 1.378 . S
C208 C209 1.367 . S
C209 C208 1.367 . S
C209 C211 1.433 . S
C210 C206 1.350 . S
C210 C207 1.463 . S
C210 N214 1.427 . S
C211 H201 0.929 . S
C211 C209 1.433 . S
C211 N214 1.384 . S
C212 H203 0.929 . S
C212 C204 1.378 . S
C212 C207 1.350 . S
C213 H200 0.929 . S
C213 C205 1.433 . S
C213 N215 1.384 . S
N214 C210 1.427 . S
N214 C211 1.384 . S
N215 C207 1.427 . S
N215 C213 1.384 . S
H216 C222 0.930 . S
H217 C226 0.930 . S
H218 C231 0.929 . S
H219 C229 0.929 . S
H220 C224 0.929 . S
H221 C230 0.929 . S
C222 H216 0.930 . S
C222 C223 1.367 . S
C222 C230 1.378 . S
C223 C222 1.367 . S
C223 C231 1.433 . S
C224 H220 0.929 . S
C224 C226 1.378 . S
C224 C228 1.350 . S
C225 C228 1.463 . S
C225 C230 1.350 . S
C225 N233 1.427 . S
C226 H217 0.930 . S
C226 C224 1.378 . S
C226 C227 1.367 . S
C227 C226 1.367 . S
C227 C229 1.433 . S
C228 C224 1.350 . S
C228 C225 1.463 . S
C228 N232 1.427 . S
C229 H219 0.929 . S
C229 C227 1.433 . S
C229 N232 1.384 . S
C230 H221 0.929 . S
C230 C222 1.378 . S
C230 C225 1.350 . S
C231 H218 0.929 . S
C231 C223 1.433 . S
C231 N233 1.384 . S
N232 C228 1.427 . S
N232 C229 1.384 . S
N233 C225 1.427 . S
N233 C231 1.384 . S
H234 C240 0.930 . S
H235 C244 0.930 . S
H236 C249 0.929 . S
H237 C247 0.929 . S
H238 C242 0.929 . S
H239 C248 0.929 . S
C240 H234 0.930 . S
C240 C241 1.367 1_665 S
C240 C248 1.378 . S
C241 C240 1.367 1_445 S
C241 C249 1.433 . S
C242 H238 0.929 . S
C242 C244 1.378 . S
C242 C246 1.350 . S
C243 C246 1.463 . S
C243 C248 1.350 1_445 S
C243 N251 1.427 . S
C244 H235 0.930 . S
C244 C242 1.378 . S
C244 C245 1.367 . S
C245 C244 1.367 . S
C245 C247 1.433 1_445 S
C246 C242 1.350 . S
C246 C243 1.463 . S
C246 N250 1.427 1_445 S
C247 H237 0.929 . S
C247 C245 1.433 1_665 S
C247 N250 1.384 . S
C248 H239 0.929 . S
C248 C240 1.378 . S
C248 C243 1.350 1_665 S
C249 H236 0.929 . S
C249 C241 1.433 . S
C249 N251 1.384 . S
N250 C246 1.427 1_665 S
N250 C247 1.384 . S
N251 C243 1.427 . S
N251 C249 1.384 . S
H252 C258 0.930 . S
H253 C262 0.930 . S
H254 C267 0.929 . S
H255 C265 0.929 . S
H256 C260 0.929 . S
H257 C266 0.929 . S
C258 H252 0.930 . S
C258 C259 1.364 1_455 S
C258 C266 1.378 . S
C259 C258 1.364 1_655 S
C259 C267 1.435 1_545 S
C260 H256 0.929 . S
C260 C262 1.378 . S
C260 C264 1.350 1_565 S
C261 C264 1.463 1_455 S
C261 C266 1.352 . S
C261 N269 1.425 1_445 S
C262 H253 0.930 . S
C262 C260 1.378 . S
C262 C263 1.375 1_565 S
C263 C262 1.375 1_545 S
C263 C265 1.428 1_655 S
C264 C260 1.350 1_545 S
C264 C261 1.463 1_655 S
C264 N268 1.427 1_655 S
C265 H255 0.929 . S
C265 C263 1.428 1_455 S
C265 N268 1.384 . S
C266 H257 0.929 . S
C266 C258 1.378 . S
C266 C261 1.352 . S
C267 H254 0.929 . S
C267 C259 1.435 1_565 S
C267 N269 1.384 . S
N268 C264 1.427 1_455 S
N268 C265 1.384 . S
N269 C261 1.425 1_665 S
N269 C267 1.384 . S
H270 C276 0.930 . S
H271 C280 0.930 . S
H272 C285 0.929 . S
H273 C283 0.929 . S
H274 C278 0.929 . S
H275 C284 0.929 . S
C276 H270 0.930 . S
C276 C277 1.367 . S
C276 C284 1.378 . S
C277 C276 1.367 . S
C277 C285 1.433 . S
C278 H274 0.929 . S
C278 C280 1.378 . S
C278 C282 1.350 . S
C279 C282 1.463 . S
C279 C284 1.350 . S
C279 N287 1.427 . S
C280 H271 0.930 . S
C280 C278 1.378 . S
C280 C281 1.367 . S
C281 C280 1.367 . S
C281 C283 1.433 . S
C282 C278 1.350 . S
C282 C279 1.463 . S
C282 N286 1.427 . S
C283 H273 0.929 . S
C283 C281 1.433 . S
C283 N286 1.384 . S
C284 H275 0.929 . S
C284 C276 1.378 . S
C284 C279 1.350 . S
C285 H272 0.929 . S
C285 C277 1.433 . S
C285 N287 1.384 . S
N286 C282 1.427 . S
N286 C283 1.384 . S
N287 C279 1.427 . S
N287 C285 1.384 . S
H288 C294 0.930 . S
H289 C298 0.930 . S
H290 C303 0.929 . S
H291 C301 0.929 . S
H292 C296 0.929 . S
H293 C302 0.929 . S
C294 H288 0.930 . S
C294 C295 1.367 . S
C294 C302 1.378 . S
C295 C294 1.367 . S
C295 C303 1.433 . S
C296 H292 0.929 . S
C296 C298 1.378 . S
C296 C300 1.350 . S
C297 C300 1.463 . S
C297 C302 1.350 . S
C297 N305 1.427 . S
C298 H289 0.930 . S
C298 C296 1.378 . S
C298 C299 1.367 . S
C299 C298 1.367 . S
C299 C301 1.433 . S
C300 C296 1.350 . S
C300 C297 1.463 . S
C300 N304 1.427 . S
C301 H291 0.929 . S
C301 C299 1.433 . S
C301 N304 1.384 . S
C302 H293 0.929 . S
C302 C294 1.378 . S
C302 C297 1.350 . S
C303 H290 0.929 . S
C303 C295 1.433 . S
C303 N305 1.384 . S
N304 C300 1.427 . S
N304 C301 1.384 . S
N305 C297 1.427 . S
N305 C303 1.384 . S
C101 C83 1.520 . S
C97 C21 1.518 . S
C115 C19 1.414 . S
C119 C78 1.401 . S
C133 C18 1.380 . S
C137 C89 1.371 . S
C151 C20 1.504 . S
C155 C72 1.508 . S
C169 C44 1.514 . S
C173 C61 1.513 . S
C187 C42 1.410 . S
C191 C56 1.396 . S
C209 C67 1.375 . S
C205 C41 1.384 . S
C227 C50 1.505 . S
C223 C43 1.503 . S
C241 C16 1.528 . S
C245 C51 1.525 . S
C259 C17 1.493 . S
C263 C62 1.483 . S
C281 C73 1.526 . S
C277 C39 1.528 . S
C295 C40 1.492 . S
C299 C84 1.489 . S
