# Generated by pormake.
# Topology pyr, (3,6)-cn, num edge types: 1
# Building blocks:
#     Node 0, Type 0, BuildingBlock: MIDCAF_clean_linker_0, # of connection points: 3
#     Node 1, Type 0, BuildingBlock: MIDCAF_clean_linker_0, # of connection points: 3
#     Node 2, Type 0, BuildingBlock: MIDCAF_clean_linker_0, # of connection points: 3
#     Node 3, Type 0, BuildingBlock: MIDCAF_clean_linker_0, # of connection points: 3
#     Node 4, Type 0, BuildingBlock: MIDCAF_clean_linker_0, # of connection points: 3
#     Node 5, Type 0, BuildingBlock: MIDCAF_clean_linker_0, # of connection points: 3
#     Node 6, Type 0, BuildingBlock: MIDCAF_clean_linker_0, # of connection points: 3
#     Node 7, Type 0, BuildingBlock: MIDCAF_clean_linker_0, # of connection points: 3
#     Node 8, Type 1, BuildingBlock: LEVNOQ01_clean_sbu_1, # of connection points: 6
#     Node 9, Type 1, BuildingBlock: LEVNOQ01_clean_sbu_1, # of connection points: 6
#     Node 10, Type 1, BuildingBlock: LEVNOQ01_clean_sbu_1, # of connection points: 6
#     Node 11, Type 1, BuildingBlock: LEVNOQ01_clean_sbu_1, # of connection points: 6
#     Edge 12, Type (0, 1), BuildingBlock: ZUJKAS_clean_linker_0, # of connection points: 2
#     Edge 13, Type (0, 1), BuildingBlock: ZUJKAS_clean_linker_0, # of connection points: 2
#     Edge 14, Type (0, 1), BuildingBlock: ZUJKAS_clean_linker_0, # of connection points: 2
#     Edge 15, Type (0, 1), BuildingBlock: ZUJKAS_clean_linker_0, # of connection points: 2
#     Edge 16, Type (0, 1), BuildingBlock: ZUJKAS_clean_linker_0, # of connection points: 2
#     Edge 17, Type (0, 1), BuildingBlock: ZUJKAS_clean_linker_0, # of connection points: 2
#     Edge 18, Type (0, 1), BuildingBlock: ZUJKAS_clean_linker_0, # of connection points: 2
#     Edge 19, Type (0, 1), BuildingBlock: ZUJKAS_clean_linker_0, # of connection points: 2
#     Edge 20, Type (0, 1), BuildingBlock: ZUJKAS_clean_linker_0, # of connection points: 2
#     Edge 21, Type (0, 1), BuildingBlock: ZUJKAS_clean_linker_0, # of connection points: 2
#     Edge 22, Type (0, 1), BuildingBlock: ZUJKAS_clean_linker_0, # of connection points: 2
#     Edge 23, Type (0, 1), BuildingBlock: ZUJKAS_clean_linker_0, # of connection points: 2
#     Edge 24, Type (0, 1), BuildingBlock: ZUJKAS_clean_linker_0, # of connection points: 2
#     Edge 25, Type (0, 1), BuildingBlock: ZUJKAS_clean_linker_0, # of connection points: 2
#     Edge 26, Type (0, 1), BuildingBlock: ZUJKAS_clean_linker_0, # of connection points: 2
#     Edge 27, Type (0, 1), BuildingBlock: ZUJKAS_clean_linker_0, # of connection points: 2
#     Edge 28, Type (0, 1), BuildingBlock: ZUJKAS_clean_linker_0, # of connection points: 2
#     Edge 29, Type (0, 1), BuildingBlock: ZUJKAS_clean_linker_0, # of connection points: 2
#     Edge 30, Type (0, 1), BuildingBlock: ZUJKAS_clean_linker_0, # of connection points: 2
#     Edge 31, Type (0, 1), BuildingBlock: ZUJKAS_clean_linker_0, # of connection points: 2
#     Edge 32, Type (0, 1), BuildingBlock: ZUJKAS_clean_linker_0, # of connection points: 2
#     Edge 33, Type (0, 1), BuildingBlock: ZUJKAS_clean_linker_0, # of connection points: 2
#     Edge 34, Type (0, 1), BuildingBlock: ZUJKAS_clean_linker_0, # of connection points: 2
#     Edge 35, Type (0, 1), BuildingBlock: ZUJKAS_clean_linker_0, # of connection points: 2
# Relax obj value: 0.035
# Max RMSD: 0.111
# Mean RMSD: 0.046
data_MOF--net-pry--node1-LEVNOQ01_clean_sbu_1--node2-MIDCAF_clean_linker_0--edge1-ZUJKAS_clean_linker_0
_symmetry_space_group_name_H-M    P1
_symmetry_Int_Tables_number       1
_symmetry_cell_setting            triclinic
loop_
_symmetry_equiv_pos_as_xyz
'x, y, z'
_cell_length_a     56.721937
_cell_length_b     54.904622
_cell_length_c     54.906562
_cell_angle_alpha  92.016727
_cell_angle_beta   91.326342
_cell_angle_gamma 94.087867
loop_
_atom_site_label
_atom_site_type_symbol
_atom_site_fract_x
_atom_site_fract_y
_atom_site_fract_z
_atom_type_partial_charge
C0 C 0.09401 0.12287 0.20451 0.0
C1 C 0.10329 0.103 0.21591 0.0
C2 C 0.12212 0.09178 0.20495 0.0
C3 C 0.13186 0.10067 0.18349 0.0
H4 H 0.17949 0.08639 0.12771 0.0
H5 H 0.21529 0.0698 0.11284 0.0
H6 H 0.23383 0.13764 0.07794 0.0
H7 H 0.19742 0.1538 0.09197 0.0
H8 H 0.1433 0.18088 0.07576 0.0
H9 H 0.12746 0.21757 0.05947 0.0
H10 H 0.09196 0.23011 0.1269 0.0
H11 H 0.1073 0.1934 0.1431 0.0
H12 H 0.09614 0.14724 0.17501 0.0
H13 H 0.07927 0.13169 0.21223 0.0
H14 H 0.12982 0.07654 0.21335 0.0
H15 H 0.14665 0.09185 0.17587 0.0
N16 N 0.15322 0.12169 0.14052 0.0
N17 N 0.15525 0.15197 0.11127 0.0
N18 N 0.12571 0.15155 0.1405 0.0
C19 C 0.16396 0.13183 0.12099 0.0
C20 C 0.13604 0.1619 0.12092 0.0
C21 C 0.13407 0.13144 0.15041 0.0
C22 C 0.18551 0.12148 0.1111 0.0
C23 C 0.19114 0.09776 0.11678 0.0
C24 C 0.21185 0.08828 0.10836 0.0
C25 C 0.22776 0.10235 0.09428 0.0
C26 C 0.22196 0.12603 0.0884 0.0
C27 C 0.20106 0.1354 0.09657 0.0
C28 C 0.12663 0.18415 0.11077 0.0
C29 C 0.13212 0.19144 0.08711 0.0
C30 C 0.12297 0.21236 0.07773 0.0
C31 C 0.10856 0.2267 0.09197 0.0
C32 C 0.10316 0.2195 0.1156 0.0
C33 C 0.1119 0.19838 0.12481 0.0
C34 C 0.12295 0.12097 0.17241 0.0
C35 C 0.10367 0.13171 0.18304 0.0
C36 C 0.29132 0.91928 0.60555 0.0
C37 C 0.28105 0.90953 0.58352 0.0
C38 C 0.29304 0.89263 0.56963 0.0
C39 C 0.31465 0.88499 0.57804 0.0
H40 H 0.35648 0.82615 0.57192 0.0
H41 H 0.3717 0.7884 0.55575 0.0
H42 H 0.43176 0.79872 0.60554 0.0
H43 H 0.4167 0.83616 0.62214 0.0
H44 H 0.41312 0.86998 0.66773 0.0
H45 H 0.4296 0.88668 0.70656 0.0
H46 H 0.38314 0.9456 0.7036 0.0
H47 H 0.36616 0.92866 0.66505 0.0
H48 H 0.32033 0.91962 0.63105 0.0
H49 H 0.28244 0.93251 0.61643 0.0
H50 H 0.28536 0.8848 0.55262 0.0
H51 H 0.32322 0.87152 0.56718 0.0
N52 N 0.3561 0.86542 0.59949 0.0
N53 N 0.38621 0.86726 0.62958 0.0
N54 N 0.3576 0.8959 0.63061 0.0
C55 C 0.37581 0.85637 0.60914 0.0
C56 C 0.37727 0.88703 0.6404 0.0
C57 C 0.34693 0.88526 0.61012 0.0
C58 C 0.38534 0.8342 0.59835 0.0
C59 C 0.37296 0.82046 0.57941 0.0
C60 C 0.38155 0.79888 0.5702 0.0
C61 C 0.40278 0.79096 0.57952 0.0
C62 C 0.41539 0.80473 0.59809 0.0
C63 C 0.40669 0.8261 0.60754 0.0
C64 C 0.38821 0.89792 0.6633 0.0
C65 C 0.40645 0.88657 0.67526 0.0
C66 C 0.416 0.89617 0.69749 0.0
C67 C 0.40758 0.91737 0.70817 0.0
C68 C 0.38969 0.92898 0.696 0.0
C69 C 0.38006 0.91934 0.67383 0.0
C70 C 0.32479 0.89437 0.60037 0.0
C71 C 0.31305 0.91192 0.61382 0.0
C72 C 0.61475 0.30423 0.91067 0.0
C73 C 0.59341 0.29268 0.90153 0.0
C74 C 0.57997 0.30424 0.88419 0.0
C75 C 0.58824 0.32678 0.87545 0.0
H76 H 0.57731 0.37615 0.82091 0.0
H77 H 0.56135 0.3919 0.78343 0.0
H78 H 0.61988 0.44675 0.78314 0.0
H79 H 0.6355 0.43162 0.82062 0.0
H80 H 0.67305 0.43646 0.86346 0.0
H81 H 0.71222 0.45284 0.87823 0.0
H82 H 0.71976 0.38789 0.91895 0.0
H83 H 0.6809 0.37144 0.90445 0.0
H84 H 0.63962 0.33501 0.90946 0.0
H85 H 0.62526 0.29563 0.9242 0.0
H86 H 0.56349 0.29546 0.87683 0.0
H87 H 0.57783 0.33504 0.86161 0.0
N88 N 0.60883 0.37137 0.85502 0.0
N89 N 0.63959 0.40226 0.85461 0.0
N90 N 0.64063 0.37168 0.88303 0.0
C91 C 0.61869 0.39201 0.84528 0.0
C92 C 0.65063 0.3922 0.87348 0.0
C93 C 0.61974 0.36119 0.87404 0.0
C94 C 0.60776 0.40251 0.82373 0.0
C95 C 0.5866 0.39177 0.81303 0.0
C96 C 0.57749 0.40073 0.79153 0.0
C97 C 0.58938 0.42054 0.78037 0.0
C98 C 0.61009 0.43172 0.79151 0.0
C99 C 0.61915 0.42285 0.81294 0.0
C100 C 0.67388 0.40264 0.88277 0.0
C101 C 0.68305 0.4257 0.87559 0.0
C102 C 0.70537 0.43512 0.88404 0.0
C103 C 0.71889 0.42146 0.89948 0.0
C104 C 0.7097 0.39856 0.90676 0.0
C105 C 0.68738 0.38926 0.89858 0.0
C106 C 0.60995 0.33815 0.88416 0.0
C107 C 0.62289 0.3268 0.90219 0.0
C108 C 0.80337 0.58142 0.44153 0.0
C109 C 0.7895 0.56273 0.4288 0.0
C110 C 0.79882 0.55104 0.40839 0.0
C111 C 0.82119 0.55879 0.40015 0.0
H112 H 0.86756 0.54877 0.34484 0.0
H113 H 0.87929 0.53494 0.30458 0.0
H114 H 0.93446 0.59343 0.3051 0.0
H115 H 0.92315 0.60704 0.34547 0.0
H116 H 0.92314 0.65036 0.38428 0.0
H117 H 0.9375 0.6911 0.39943 0.0
H118 H 0.88828 0.6862 0.45821 0.0
H119 H 0.87363 0.64571 0.443 0.0
H120 H 0.83552 0.60401 0.44339 0.0
H121 H 0.7968 0.59043 0.4576 0.0
H122 H 0.78844 0.5366 0.39822 0.0
H123 H 0.82756 0.55001 0.38386 0.0
N124 N 0.86597 0.57862 0.3818 0.0
N125 N 0.89586 0.61047 0.3818 0.0
N126 N 0.86758 0.60977 0.41215 0.0
C127 C 0.88553 0.58931 0.37158 0.0
C128 C 0.88701 0.62077 0.40216 0.0
C129 C 0.85697 0.58871 0.40219 0.0
C130 C 0.89421 0.57924 0.34833 0.0
C131 C 0.88238 0.55855 0.33654 0.0
C132 C 0.88901 0.55066 0.31339 0.0
C133 C 0.90762 0.56325 0.30156 0.0
C134 C 0.92014 0.58323 0.3138 0.0
C135 C 0.91353 0.59113 0.33692 0.0
C136 C 0.89713 0.64473 0.41232 0.0
C137 C 0.91548 0.65786 0.40054 0.0
C138 C 0.92377 0.6812 0.40926 0.0
C139 C 0.91392 0.69192 0.42993 0.0
C140 C 0.89596 0.6786 0.44201 0.0
C141 C 0.88768 0.65529 0.43333 0.0
C142 C 0.8346 0.57833 0.41226 0.0
C143 C 0.82564 0.58912 0.43339 0.0
C144 C 0.79151 0.91708 0.88758 0.0
C145 C 0.78332 0.91169 0.91086 0.0
C146 C 0.79683 0.89753 0.92593 0.0
C147 C 0.81784 0.88848 0.91765 0.0
H148 H 0.86268 0.83062 0.92734 0.0
H149 H 0.87753 0.79359 0.94333 0.0
H150 H 0.92662 0.79094 0.88446 0.0
H151 H 0.91237 0.82816 0.86895 0.0
H152 H 0.91527 0.8675 0.83062 0.0
H153 H 0.93101 0.88188 0.79243 0.0
H154 H 0.88043 0.93703 0.79126 0.0
H155 H 0.8648 0.92293 0.82969 0.0
H156 H 0.81834 0.91289 0.86136 0.0
H157 H 0.78157 0.92812 0.87566 0.0
H158 H 0.79086 0.89302 0.94393 0.0
H159 H 0.82767 0.87735 0.92958 0.0
N160 N 0.85725 0.86438 0.89556 0.0
N161 N 0.88681 0.86451 0.86634 0.0
N162 N 0.85838 0.89337 0.86506 0.0
C163 C 0.8767 0.85458 0.88626 0.0
C164 C 0.87788 0.88395 0.85567 0.0
C165 C 0.84797 0.8838 0.88501 0.0
C166 C 0.88622 0.83249 0.89678 0.0
C167 C 0.87673 0.82223 0.91787 0.0
C168 C 0.88516 0.80084 0.92696 0.0
C169 C 0.90326 0.78907 0.91518 0.0
C170 C 0.91293 0.79956 0.89428 0.0
C171 C 0.90459 0.82095 0.88527 0.0
C172 C 0.88855 0.89385 0.83322 0.0
C173 C 0.90754 0.8828 0.82237 0.0
C174 C 0.91653 0.89096 0.80036 0.0
C175 C 0.90683 0.91044 0.78863 0.0
C176 C 0.8884 0.92206 0.79987 0.0
C177 C 0.87934 0.91385 0.82187 0.0
C178 C 0.82601 0.89378 0.89428 0.0
C179 C 0.81268 0.90842 0.87947 0.0
C180 C 0.62185 0.08866 0.30375 0.0
C181 C 0.60048 0.09647 0.29443 0.0
C182 C 0.58935 0.11473 0.30742 0.0
C183 C 0.59951 0.12517 0.32908 0.0
H184 H 0.59994 0.18742 0.37156 0.0
H185 H 0.58388 0.22378 0.38877 0.0
H186 H 0.62866 0.22016 0.4531 0.0
H187 H 0.64535 0.18395 0.43556 0.0
H188 H 0.69285 0.15387 0.42563 0.0
H189 H 0.72951 0.13952 0.44135 0.0
H190 H 0.71656 0.07232 0.39816 0.0
H191 H 0.68022 0.08708 0.3817 0.0
H192 H 0.6486 0.09276 0.33193 0.0
H193 H 0.63109 0.07493 0.29396 0.0
H194 H 0.57273 0.12096 0.30087 0.0
H195 H 0.59048 0.13929 0.33854 0.0
N196 N 0.62334 0.14931 0.37111 0.0
N197 N 0.65303 0.15136 0.40163 0.0
N198 N 0.65153 0.12017 0.37119 0.0
C199 C 0.63363 0.16051 0.39149 0.0
C200 C 0.66206 0.13116 0.3916 0.0
C201 C 0.63213 0.12915 0.36085 0.0
C202 C 0.6239 0.18266 0.4022 0.0
C203 C 0.60639 0.19426 0.38941 0.0
C204 C 0.59704 0.21509 0.39935 0.0
C205 C 0.60483 0.22476 0.42241 0.0
C206 C 0.62244 0.21328 0.4352 0.0
C207 C 0.63192 0.19246 0.42518 0.0
C208 C 0.68364 0.1217 0.40228 0.0
C209 C 0.6977 0.13596 0.41957 0.0
C210 C 0.7187 0.12764 0.42873 0.0
C211 C 0.72604 0.10475 0.42103 0.0
C212 C 0.71166 0.09022 0.40418 0.0
C213 C 0.69075 0.09865 0.39483 0.0
C214 C 0.621 0.11752 0.3383 0.0
C215 C 0.63197 0.09901 0.32547 0.0
C216 C 0.29152 0.59335 0.12356 0.0
C217 C 0.28087 0.60506 0.1043 0.0
C218 C 0.29346 0.62449 0.09334 0.0
C219 C 0.31616 0.63241 0.10175 0.0
H220 H 0.36696 0.68633 0.09313 0.0
H221 H 0.38263 0.72633 0.08095 0.0
H222 H 0.43802 0.72639 0.13628 0.0
H223 H 0.4223 0.68652 0.14882 0.0
H224 H 0.42137 0.64628 0.18647 0.0
H225 H 0.43525 0.6324 0.22555 0.0
H226 H 0.37565 0.57882 0.22592 0.0
H227 H 0.362 0.59219 0.18674 0.0
H228 H 0.32181 0.5922 0.14724 0.0
H229 H 0.28209 0.57839 0.13239 0.0
H230 H 0.28576 0.63355 0.07818 0.0
H231 H 0.32525 0.64761 0.09298 0.0
N232 N 0.36136 0.65057 0.12164 0.0
N233 N 0.39175 0.65023 0.15114 0.0
N234 N 0.35992 0.62061 0.15098 0.0
C235 C 0.3822 0.66042 0.13143 0.0
C236 C 0.38079 0.63026 0.16096 0.0
C237 C 0.35015 0.63062 0.13124 0.0
C238 C 0.39323 0.6833 0.12213 0.0
C239 C 0.38264 0.69468 0.10256 0.0
C240 C 0.39167 0.71754 0.09546 0.0
C241 C 0.41142 0.72944 0.10782 0.0
C242 C 0.42257 0.71769 0.1267 0.0
C243 C 0.4136 0.69481 0.13378 0.0
C244 C 0.39046 0.62046 0.18351 0.0
C245 C 0.41135 0.63134 0.19472 0.0
C246 C 0.41927 0.6235 0.21718 0.0
C247 C 0.40649 0.60462 0.22883 0.0
C248 C 0.38606 0.59321 0.21725 0.0
C249 C 0.37815 0.60101 0.19482 0.0
C250 C 0.32671 0.6211 0.12138 0.0
C251 C 0.31423 0.60132 0.13207 0.0
C252 C 0.09699 0.31598 0.57291 0.0
C253 C 0.07432 0.30682 0.57943 0.0
C254 C 0.06089 0.32147 0.59447 0.0
C255 C 0.07003 0.34462 0.60298 0.0
H256 H 0.06404 0.39479 0.66044 0.0
H257 H 0.05286 0.40838 0.70104 0.0
H258 H 0.11233 0.46212 0.70443 0.0
H259 H 0.12368 0.44867 0.66394 0.0
H260 H 0.1655 0.44336 0.62862 0.0
H261 H 0.20387 0.45823 0.61355 0.0
H262 H 0.19082 0.41355 0.54768 0.0
H263 H 0.15254 0.39866 0.56257 0.0
H264 H 0.12368 0.34543 0.57604 0.0
H265 H 0.10802 0.30505 0.56176 0.0
H266 H 0.04322 0.31515 0.59956 0.0
H267 H 0.05928 0.35538 0.61463 0.0
N268 N 0.09358 0.38863 0.62602 0.0
N269 N 0.12396 0.41993 0.62638 0.0
N270 N 0.12293 0.38817 0.59669 0.0
C271 C 0.10394 0.4098 0.63614 0.0
C272 C 0.13347 0.40934 0.60656 0.0
C273 C 0.10298 0.37771 0.60628 0.0
C274 C 0.09502 0.42032 0.65905 0.0
C275 C 0.07457 0.40975 0.66964 0.0
C276 C 0.06806 0.4176 0.69285 0.0
C277 C 0.08195 0.43605 0.70593 0.0
C278 C 0.10156 0.44757 0.69483 0.0
C279 C 0.10798 0.43988 0.67159 0.0
C280 C 0.15596 0.41975 0.59682 0.0
C281 C 0.17068 0.43689 0.6108 0.0
C282 C 0.19271 0.44533 0.60227 0.0
C283 C 0.20028 0.43706 0.57945 0.0
C284 C 0.18531 0.42045 0.56522 0.0
C285 C 0.16345 0.4118 0.57384 0.0
C286 C 0.09273 0.3537 0.59647 0.0
C287 C 0.10602 0.33917 0.5812 0.0
O288 O 0.00945 0.00227 0.56365 0.0
Mg289 Mg 0.02723 0.02083 0.53614 0.0
O290 O 0.98363 0.98671 0.53579 0.0
Mg291 Mg 0.00015 -0.00032 0.49874 0.0
O292 O 0.00895 0.04122 0.51258 0.0
O293 O 0.02948 0.05595 0.54637 0.0
O294 O 0.01709 0.01383 0.46114 0.0
O295 O 0.96339 0.01526 0.48972 0.0
Mg296 Mg 0.9804 0.97567 0.45586 0.0
O297 O 0.98861 0.95846 0.48684 0.0
O298 O 0.0071 0.98557 0.43274 0.0
O299 O 0.95079 0.99588 0.45559 0.0
O300 O 0.97179 0.93988 0.45272 0.0
C301 C 0.05761 0.99059 0.51501 0.0
C302 C 0.99063 0.98949 0.55804 0.0
C303 C 0.01687 0.05943 0.52716 0.0
C304 C 0.01874 0.00517 0.43928 0.0
C305 C 0.94802 0.01166 0.47237 0.0
C306 C 0.98023 0.93879 0.47463 0.0
O307 O 0.06027 0.01101 0.52616 0.0
O308 O 0.03714 0.9826 0.50681 0.0
O309 O 0.46214 0.0564 0.02225 0.0
Mg310 Mg 0.49587 0.06668 0.01111 0.0
O311 O 0.46529 0.01781 0.01027 0.0
Mg312 Mg 0.50461 0.00908 -0.00076 0.0
O313 O 0.5171 0.04752 0.98777 0.0
O314 O 0.48311 0.05715 0.97471 0.0
O315 O 0.54549 0.0003 0.98841 0.0
O316 O 0.489 0.00402 0.95967 0.0
Mg317 Mg 0.51395 0.96897 0.9843 0.0
O318 O 0.49 0.97024 0.01154 0.0
O319 O 0.54688 0.96174 0.99713 0.0
O320 O 0.51408 0.97849 0.94744 0.0
O321 O 0.49199 0.93884 0.98454 0.0
C322 C 0.51993 0.03661 0.05175 0.0
C323 C 0.45311 0.03487 0.01865 0.0
C324 C 0.50509 0.05684 0.97097 0.0
C325 C 0.5575 0.98152 0.99133 0.0
C326 C 0.49874 0.99303 0.94237 0.0
C327 C 0.48372 0.94791 0.00423 0.0
O328 O 0.51337 0.05645 0.04351 0.0
O329 O 0.51835 0.01678 0.0388 0.0
O330 O 0.47617 0.54715 0.5503 0.0
Mg331 Mg 0.47778 0.51006 0.5562 0.0
O332 O 0.48624 0.54449 0.51151 0.0
Mg333 Mg 0.49451 0.50408 0.50244 0.0
O334 O 0.50684 0.49719 0.54142 0.0
O335 O 0.50066 0.4988 0.58152 0.0
O336 O 0.50334 0.4637 0.49301 0.0
O337 O 0.53406 0.51725 0.49836 0.0
Mg338 Mg 0.51185 0.49727 0.44814 0.0
O339 O 0.4836 0.5121 0.46331 0.0
O340 O 0.50977 0.45966 0.45332 0.0
O341 O 0.54368 0.5169 0.45943 0.0
O342 O 0.4896 0.51084 0.42324 0.0
C343 C 0.4409 0.48383 0.52481 0.0
C344 C 0.47981 0.55685 0.53003 0.0
C345 C 0.51375 0.49331 0.5635 0.0
C346 C 0.50758 0.45059 0.47411 0.0
C347 C 0.54892 0.52156 0.48173 0.0
C348 C 0.47693 0.51692 0.4414 0.0
O349 O 0.44794 0.48767 0.54671 0.0
O350 O 0.45414 0.48996 0.5071 0.0
O351 O -0.00067 0.45264 0.04113 0.0
Mg352 Mg 0.01074 0.48973 0.04361 0.0
O353 O 0.01505 0.46474 0.00749 0.0
Mg354 Mg -0.00151 0.50442 0.00432 0.0
O355 O 0.986 0.51475 0.04461 0.0
O356 O 0.00575 0.50259 0.07757 0.0
O357 O 0.9828 0.54587 0.0023 0.0
O358 O 0.9625 0.48282 0.00052 0.0
Mg359 Mg 0.9868 0.518 0.97099 0.0
O360 O 0.01011 0.49307 0.96293 0.0
O361 O 0.00161 0.55391 0.9694 0.0
O362 O 0.95037 0.51305 0.9805 0.0
O363 O 0.98453 0.50683 0.93596 0.0
C364 C 0.05137 0.51658 0.0219 0.0
C365 C 0.01008 0.44753 0.02206 0.0
C366 C 0.98966 0.51497 0.0681 0.0
C367 C 0.99016 0.56157 0.987 0.0
C368 C 0.94563 0.49395 0.99201 0.0
C369 C 0.00235 0.4944 0.94055 0.0
O370 O 0.04653 0.49927 0.03592 0.0
O371 O 0.03505 0.52505 0.00926 0.0
H372 H 0.09144 0.13116 0.2553 0.0
H373 H 0.07814 0.11759 0.29499 0.0
H374 H 0.08046 0.0425 0.26995 0.0
H375 H 0.09394 0.05594 0.23022 0.0
H376 H 0.03946 0.08864 0.30939 0.0
H377 H 0.12237 0.04526 0.33097 0.0
H378 H 0.1197 0.06509 0.30569 0.0
H379 H 0.10814 0.03369 0.30299 0.0
C380 C 0.08891 0.11174 0.25814 0.0
C381 C 0.09398 0.09463 0.23962 0.0
C382 C 0.08137 0.10402 0.28089 0.0
C383 C 0.07877 0.07905 0.28567 0.0
C384 C 0.08296 0.06189 0.26694 0.0
H385 H 0.03446 0.98551 0.39745 0.0
H386 H 0.04952 0.00648 0.36224 0.0
C387 C 0.09065 0.06959 0.24422 0.0
C388 C 0.07214 0.07097 0.31036 0.0
H389 H 0.09033 0.03718 0.35741 0.0
C390 C 0.05068 0.07762 0.32004 0.0
C391 C 0.08688 0.05674 0.32433 0.0
C392 C 0.11066 0.04996 0.3156 0.0
C393 C 0.04312 0.06949 0.34282 0.0
C394 C 0.05759 0.05468 0.35644 0.0
C395 C 0.07932 0.04865 0.34703 0.0
C396 C 0.04941 0.04271 0.37894 0.0
C397 C 0.01924 0.07584 0.35165 0.0
C398 C 0.04489 0.05608 0.40049 0.0
C399 C 0.03622 0.04399 0.42101 0.0
C400 C 0.03194 0.0184 0.42014 0.0
C401 C 0.03748 0.00522 0.39882 0.0
C402 C 0.04607 0.01719 0.37856 0.0
H403 H 0.00881 0.08452 0.3374 0.0
H404 H 0.00894 0.05919 0.35749 0.0
H405 H 0.02167 0.08875 0.36766 0.0
H406 H 0.04773 0.0758 0.40131 0.0
H407 H 0.03195 0.05466 0.43707 0.0
H408 H 0.45374 0.92159 0.72436 0.0
H409 H 0.46925 0.93803 0.76404 0.0
H410 H 0.39866 0.9525 0.78518 0.0
H411 H 0.38292 0.93522 0.74608 0.0
H412 H 0.46612 0.98475 0.78398 0.0
H413 H 0.42278 0.91505 0.84217 0.0
H414 H 0.42466 0.91064 0.80958 0.0
H415 H 0.40242 0.92875 0.82225 0.0
C416 C 0.4415 0.92795 0.73761 0.0
C417 C 0.41712 0.92715 0.73212 0.0
C418 C 0.45039 0.93748 0.76015 0.0
C419 C 0.43503 0.94622 0.77753 0.0
C420 C 0.41073 0.94548 0.7721 0.0
H421 H 0.45584 0.0058 0.92541 0.0
H422 H 0.44014 -0.00057 0.88347 0.0
C423 C 0.40182 0.93589 0.74965 0.0
C424 C 0.44444 0.95678 0.80113 0.0
H425 H 0.44087 0.95067 0.8625 0.0
C426 C 0.46065 0.97733 0.80118 0.0
C427 C 0.43726 0.94692 0.82344 0.0
C428 C 0.42101 0.92398 0.82444 0.0
C429 C 0.46971 0.98851 0.8231 0.0
C430 C 0.46232 0.97879 0.84535 0.0
C431 C 0.44607 0.95831 0.8453 0.0
C432 C 0.47287 0.98787 0.86897 0.0
C433 C 0.48708 0.01056 0.82233 0.0
C434 C 0.49656 0.98413 0.87432 0.0
C435 C 0.50543 0.98751 0.89812 0.0
C436 C 0.49071 0.99466 0.91691 0.0
C437 C 0.46751 0.00027 0.91122 0.0
C438 C 0.45855 0.99663 0.88736 0.0
H439 H 0.48612 0.01954 0.80454 0.0
H440 H 0.48386 0.02412 0.83715 0.0
H441 H 0.50527 0.00474 0.82495 0.0
H442 H 0.50776 0.97704 0.86042 0.0
H443 H 0.52347 0.98329 0.90204 0.0
H444 H 0.58773 0.46722 0.76473 0.0
H445 H 0.57997 0.47953 0.72299 0.0
H446 H 0.56593 0.40391 0.69983 0.0
H447 H 0.57401 0.39142 0.74122 0.0
H448 H 0.60592 0.46361 0.68143 0.0
H449 H 0.50952 0.43891 0.67183 0.0
H450 H 0.52475 0.44316 0.70107 0.0
H451 H 0.52609 0.41503 0.68359 0.0
C452 C 0.58281 0.45325 0.75075 0.0
C453 C 0.58152 0.42835 0.75619 0.0
C454 C 0.57837 0.46031 0.72701 0.0
C455 C 0.57236 0.44259 0.7085 0.0
C456 C 0.57025 0.41782 0.71403 0.0
H457 H 0.52526 0.44636 0.56152 0.0
H458 H 0.54883 0.43111 0.5947 0.0
C459 C 0.57476 0.41074 0.73769 0.0
C460 C 0.56954 0.44965 0.68305 0.0
H461 H 0.52993 0.44672 0.63549 0.0
C462 C 0.58934 0.45997 0.67126 0.0
C463 C 0.54787 0.44495 0.67009 0.0
C464 C 0.52577 0.43512 0.68231 0.0
C465 C 0.58819 0.46509 0.64643 0.0
C466 C 0.56661 0.45987 0.63326 0.0
C467 C 0.54673 0.44995 0.64533 0.0
C468 C 0.5629 0.46702 0.60781 0.0
C469 C 0.6101 0.47582 0.6346 0.0
C470 C 0.56531 0.49186 0.60251 0.0
C471 C 0.55247 0.5004 0.58305 0.0
C472 C 0.53663 0.48427 0.56936 0.0
C473 C 0.53751 0.45906 0.57183 0.0
C474 C 0.55074 0.45041 0.59103 0.0
H475 H 0.62636 0.47019 0.64385 0.0
H476 H 0.61045 0.4703 0.61497 0.0
H477 H 0.61051 0.49605 0.63625 0.0
H478 H 0.57432 0.50511 0.61522 0.0
H479 H 0.55186 0.51997 0.58144 0.0
H480 H 0.87627 0.55125 0.26381 0.0
H481 H 0.88506 0.54323 0.22099 0.0
H482 H 0.95972 0.55364 0.23836 0.0
H483 H 0.95113 0.56092 0.28134 0.0
H484 H 0.9098 0.57552 0.19047 0.0
H485 H 0.95392 0.48907 0.19844 0.0
H486 H 0.93629 0.50109 0.2224 0.0
H487 H 0.96626 0.51319 0.21879 0.0
C488 C 0.89457 0.5513 0.25861 0.0
C489 C 0.91302 0.55663 0.27597 0.0
C490 C 0.89953 0.54694 0.23412 0.0
C491 C 0.923 0.54766 0.2266 0.0
C492 C 0.94147 0.55266 0.24389 0.0
H493 H 0.00426 0.55007 0.10152 0.0
H494 H 0.98288 0.56139 0.13794 0.0
C495 C 0.93654 0.55702 0.26838 0.0
C496 C 0.92824 0.5442 0.20051 0.0
H497 H 0.95903 0.50989 0.1612 0.0
C498 C 0.92028 0.56097 0.18396 0.0
C499 C 0.94176 0.52511 0.19212 0.0
C500 C 0.94987 0.50594 0.20881 0.0
C501 C 0.92648 0.55975 0.15935 0.0
C502 C 0.94082 0.54131 0.15132 0.0
C503 C 0.94802 0.52403 0.16761 0.0
C504 C 0.95045 0.54056 0.12666 0.0
C505 C 0.91844 0.57848 0.14218 0.0
C506 C 0.93875 0.52612 0.10787 0.0
C507 C 0.95084 0.52 0.08683 0.0
C508 C 0.97475 0.52798 0.08478 0.0
C509 C 0.98573 0.54401 0.10271 0.0
C510 C 0.97358 0.5504 0.12347 0.0
H511 H 0.90653 0.59114 0.15103 0.0
H512 H 0.93409 0.58929 0.13543 0.0
H513 H 0.90905 0.56914 0.1261 0.0
H514 H 0.92097 0.51814 0.11029 0.0
H515 H 0.94226 0.50721 0.07337 0.0
H516 H 0.2563 0.07217 0.11866 0.0
H517 H 0.29308 0.05604 0.10517 0.0
H518 H 0.28812 0.09456 0.03846 0.0
H519 H 0.2508 0.11005 0.05122 0.0
H520 H 0.30125 0.02808 0.05741 0.0
H521 H 0.35523 0.1162 0.07238 0.0
H522 H 0.32761 0.10963 0.08739 0.0
H523 H 0.32754 0.11745 0.05594 0.0
C524 C 0.26271 0.07696 0.10092 0.0
C525 C 0.25035 0.09248 0.08607 0.0
C526 C 0.28388 0.06779 0.09332 0.0
C527 C 0.29336 0.07418 0.07089 0.0
C528 C 0.28118 0.08956 0.05596 0.0
H529 H 0.41924 0.05376 0.992 0.0
H530 H 0.37896 0.05995 0.00456 0.0
C531 C 0.25989 0.09855 0.0634 0.0
C532 C 0.31617 0.06505 0.06318 0.0
H533 H 0.37359 0.08388 0.05266 0.0
C534 C 0.31713 0.0402 0.05651 0.0
C535 C 0.33685 0.0809 0.06213 0.0
C536 C 0.33698 0.10752 0.06999 0.0
C537 C 0.33815 0.03096 0.04812 0.0
C538 C 0.35868 0.04693 0.04664 0.0
C539 C 0.35778 0.07167 0.05373 0.0
C540 C 0.38118 0.03882 0.03692 0.0
C541 C 0.33819 0.00441 0.04015 0.0
C542 C 0.39552 0.02407 0.05047 0.0
C543 C 0.4186 0.02031 0.04314 0.0
C544 C 0.42748 0.03124 0.02218 0.0
C545 C 0.41256 0.04468 0.00793 0.0
C546 C 0.38965 0.04842 0.0152 0.0
H547 H 0.32013 0.99509 0.03959 0.0
H548 H 0.34587 0.00269 0.0218 0.0
H549 H 0.34942 0.99489 0.05302 0.0
H550 H 0.38944 0.01678 0.06748 0.0
H551 H 0.43004 0.01052 0.05479 0.0
H552 H 0.24088 0.90751 0.60959 0.0
H553 H 0.2013 0.9172 0.59599 0.0
H554 H 0.22882 0.93743 0.52631 0.0
H555 H 0.26821 0.92677 0.53958 0.0
H556 H 0.1847 0.95841 0.58247 0.0
H557 H 0.17405 0.89149 0.50447 0.0
H558 H 0.19781 0.89112 0.52684 0.0
H559 H 0.19994 0.91192 0.5022 0.0
C560 C 0.23838 0.91399 0.59136 0.0
C561 C 0.25743 0.91626 0.57551 0.0
C562 C 0.21582 0.91947 0.58359 0.0
C563 C 0.21196 0.9275 0.55992 0.0
C564 C 0.23118 0.93047 0.54434 0.0
H565 H 0.09876 -0.00284 0.49141 0.0
H566 H 0.13577 0.97873 0.50162 0.0
C567 C 0.25368 0.92458 0.55196 0.0
C568 C 0.18796 0.93337 0.55182 0.0
H569 H 0.14597 0.92201 0.50638 0.0
C570 C 0.17616 0.95025 0.56597 0.0
C571 C 0.17671 0.92256 0.53036 0.0
C572 C 0.18768 0.90308 0.51524 0.0
C573 C 0.15375 0.95714 0.55886 0.0
C574 C 0.14293 0.94691 0.53705 0.0
C575 C 0.15447 0.92981 0.52306 0.0
C576 C 0.12003 0.95472 0.52809 0.0
C577 C 0.1419 0.97564 0.57442 0.0
C578 C 0.09891 0.94646 0.53889 0.0
C579 C 0.07771 0.9565 0.53262 0.0
C580 C 0.07754 0.97505 0.51568 0.0
C581 C 0.09848 0.98246 0.50408 0.0
C582 C 0.11957 0.97213 0.51004 0.0
H583 H 0.15373 0.98374 0.58945 0.0
H584 H 0.13609 0.99057 0.56308 0.0
H585 H 0.12591 0.96668 0.58251 0.0
H586 H 0.09904 0.93312 0.55297 0.0
H587 H 0.06186 0.95111 0.5423 0.0
H588 H 0.73154 0.46589 0.92142 0.0
H589 H 0.77019 0.47931 0.94035 0.0
H590 H 0.79755 0.41131 0.91664 0.0
H591 H 0.75917 0.39792 0.89768 0.0
H592 H 0.7925 0.45108 0.97789 0.0
H593 H 0.84757 0.46591 0.89661 0.0
H594 H 0.81574 0.46623 0.8955 0.0
H595 H 0.82938 0.43769 0.89555 0.0
C596 C 0.746 0.4541 0.91989 0.0
C597 C 0.74255 0.43088 0.90829 0.0
C598 C 0.7679 0.46169 0.93076 0.0
C599 C 0.78652 0.44625 0.92974 0.0
C600 C 0.78333 0.42348 0.91737 0.0
H601 H 0.9293 0.44663 0.98428 0.0
H602 H 0.88811 0.43233 0.97433 0.0
C603 C 0.76147 0.41583 0.90671 0.0
C604 C 0.80894 0.45299 0.94294 0.0
H605 H 0.86798 0.46345 0.9346 0.0
C606 C 0.80903 0.45401 0.96852 0.0
C607 C 0.83029 0.45665 0.93047 0.0
C608 C 0.83084 0.4568 0.90301 0.0
C609 C 0.83026 0.45813 0.98206 0.0
C610 C 0.8516 0.46125 0.96955 0.0
C611 C 0.85146 0.46052 0.944 0.0
C612 C 0.87433 0.46741 0.98228 0.0
C613 C 0.82993 0.45885 0.00951 0.0
C614 C 0.87974 0.49153 0.9908 0.0
C615 C 0.90314 0.49979 0.99593 0.0
C616 C 0.92119 0.48387 0.99291 0.0
C617 C 0.91551 0.4591 0.98683 0.0
C618 C 0.89211 0.45094 0.98119 0.0
H619 H 0.81238 0.45246 0.01639 0.0
H620 H 0.84354 0.44734 0.01694 0.0
H621 H 0.83433 0.47789 0.01651 0.0
H622 H 0.86617 0.50445 0.99147 0.0
H623 H 0.9073 0.51895 0.00075 0.0
H624 H 0.76675 0.51739 0.4337 0.0
H625 H 0.72593 0.50825 0.44668 0.0
H626 H 0.71644 0.58541 0.45347 0.0
H627 H 0.75673 0.59462 0.44023 0.0
H628 H 0.70493 0.52539 0.49212 0.0
H629 H 0.66069 0.55638 0.4088 0.0
H630 H 0.69127 0.5492 0.40965 0.0
H631 H 0.68304 0.57821 0.42164 0.0
C632 C 0.75583 0.53233 0.43781 0.0
C633 C 0.7649 0.5567 0.43614 0.0
C634 C 0.73266 0.5271 0.44532 0.0
C635 C 0.71827 0.54619 0.45088 0.0
C636 C 0.72727 0.57046 0.44908 0.0
H637 H 0.57391 0.56574 0.48309 0.0
H638 H 0.61713 0.57197 0.48151 0.0
C639 C 0.75033 0.57568 0.44171 0.0
C640 C 0.6938 0.54116 0.45878 0.0
H641 H 0.63695 0.55141 0.44356 0.0
C642 C 0.68996 0.53088 0.48152 0.0
C643 C 0.67445 0.54831 0.4448 0.0
C644 C 0.67748 0.55843 0.41975 0.0
C645 C 0.6672 0.52848 0.49113 0.0
C646 C 0.64792 0.53635 0.4774 0.0
C647 C 0.65181 0.54595 0.45435 0.0
C648 C 0.6232 0.53378 0.48555 0.0
C649 C 0.66419 0.51816 0.51606 0.0
C650 C 0.61247 0.51053 0.48971 0.0
C651 C 0.58795 0.50717 0.49123 0.0
C652 C 0.5739 0.5269 0.48821 0.0
C653 C 0.58459 0.55042 0.48581 0.0
C654 C 0.60917 0.55389 0.48477 0.0
H655 H 0.68091 0.52051 0.5271 0.0
H656 H 0.65012 0.52693 0.52615 0.0
H657 H 0.65916 0.49828 0.514 0.0
H658 H 0.62275 0.49466 0.48973 0.0
H659 H 0.57985 0.4888 0.4926 0.0
H660 H 0.11189 0.27248 0.11335 0.0
H661 H 0.09629 0.30969 0.09775 0.0
H662 H 0.06831 0.26889 0.03371 0.0
H663 H 0.08422 0.23168 0.04906 0.0
H664 H 0.10598 0.32994 0.04629 0.0
H665 H 0.01185 0.30613 0.06764 0.0
H666 H 0.03604 0.29336 0.08358 0.0
H667 H 0.02798 0.2828 0.05305 0.0
C668 C 0.10239 0.27148 0.09596 0.0
C669 C 0.09927 0.24923 0.08239 0.0
C670 C 0.09356 0.29272 0.08705 0.0
C671 C 0.08108 0.29199 0.06464 0.0
C672 C 0.07786 0.2698 0.05108 0.0
H673 H -6e-05 0.40337 0.99756 0.0
H674 H 0.01893 0.36516 0.00483 0.0
C675 C 0.08702 0.24862 0.05979 0.0
C676 C 0.07153 0.3145 0.05538 0.0
H677 H 0.02028 0.34265 0.04735 0.0
C678 C 0.08724 0.33275 0.04642 0.0
C679 C 0.0471 0.31803 0.05553 0.0
C680 C 0.02965 0.29918 0.06557 0.0
C681 C 0.07914 0.35443 0.03743 0.0
C682 C 0.05467 0.35821 0.03791 0.0
C683 C 0.03898 0.33976 0.04673 0.0
C684 C 0.04509 0.38168 0.03092 0.0
C685 C 0.0969 0.37289 0.02724 0.0
C686 C 0.05362 0.40372 0.04282 0.0
C687 C 0.04303 0.4254 0.03841 0.0
C688 C 0.02355 0.42554 0.02218 0.0
C689 C 0.01525 0.40375 0.00975 0.0
C690 C 0.02598 0.38195 0.01408 0.0
H691 H 0.11263 0.36405 0.02046 0.0
H692 H 0.08905 0.38277 0.0121 0.0
H693 H 0.1031 0.38642 0.0419 0.0
H694 H 0.06778 0.40401 0.05641 0.0
H695 H 0.04938 0.44194 0.04859 0.0
H696 H 0.55127 0.27702 0.92041 0.0
H697 H 0.53894 0.23533 0.93203 0.0
H698 H 0.60634 0.21125 0.91009 0.0
H699 H 0.6189 0.25292 0.89923 0.0
H700 H 0.53484 0.19519 0.90142 0.0
H701 H 0.59968 0.18153 0.97612 0.0
H702 H 0.59494 0.21129 0.96475 0.0
H703 H 0.61301 0.19102 0.94836 0.0
C704 C 0.56342 0.26278 0.91833 0.0
C705 C 0.586 0.26797 0.9091 0.0
C706 C 0.55646 0.23911 0.925 0.0
C707 C 0.57192 0.22038 0.9223 0.0
C708 C 0.59444 0.2256 0.91299 0.0
H709 H 0.5487 0.06372 0.95038 0.0
H710 H 0.5667 0.10249 0.93537 0.0
C711 C 0.60152 0.24929 0.90666 0.0
C712 C 0.56384 0.19502 0.92743 0.0
H713 H 0.57586 0.14648 0.96159 0.0
C714 C 0.54382 0.18452 0.91456 0.0
C715 C 0.57578 0.18116 0.94441 0.0
C716 C 0.59692 0.19187 0.95937 0.0
C717 C 0.53524 0.16049 0.91828 0.0
C718 C 0.54687 0.14674 0.93559 0.0
C719 C 0.56722 0.15702 0.9481 0.0
C720 C 0.53634 0.123 0.94318 0.0
C721 C 0.51365 0.15018 0.90374 0.0
C722 C 0.51366 0.12199 0.95263 0.0
C723 C 0.50332 0.10016 0.96044 0.0
C724 C 0.51571 0.07882 0.95973 0.0
C725 C 0.5387 0.07981 0.9507 0.0
C726 C 0.54895 0.10185 0.94231 0.0
H727 H 0.51213 0.15914 0.88599 0.0
H728 H 0.51399 0.13017 0.90024 0.0
H729 H 0.49758 0.1537 0.91407 0.0
H730 H 0.50403 0.13828 0.95442 0.0
H731 H 0.48586 0.10038 0.968 0.0
H732 H 0.88688 0.72843 0.44557 0.0
H733 H 0.90037 0.77003 0.45958 0.0
H734 H 0.97263 0.75386 0.44796 0.0
H735 H 0.95934 0.71221 0.43408 0.0
H736 H 0.93239 0.78603 0.4986 0.0
H737 H 0.96438 0.81542 0.40869 0.0
H738 H 0.94491 0.78836 0.4121 0.0
H739 H 0.97605 0.78779 0.41871 0.0
C740 C 0.90566 0.73367 0.4462 0.0
C741 C 0.92206 0.71706 0.43866 0.0
C742 C 0.91331 0.75744 0.45413 0.0
C743 C 0.93745 0.76503 0.45455 0.0
C744 C 0.95388 0.74844 0.44736 0.0
H745 H 0.01373 0.90614 0.4762 0.0
H746 H 0.00501 0.86179 0.47704 0.0
C747 C 0.94626 0.72469 0.4394 0.0
C748 C 0.94552 0.79035 0.4624 0.0
H749 H 0.97377 0.84249 0.44246 0.0
C750 C 0.94149 0.79842 0.4864 0.0
C751 C 0.95719 0.80645 0.44633 0.0
C752 C 0.96072 0.79922 0.41995 0.0
C753 C 0.9493 0.82212 0.49492 0.0
C754 C 0.96122 0.83814 0.47892 0.0
C755 C 0.9651 0.83002 0.45489 0.0
C756 C 0.96816 0.86406 0.48571 0.0
C757 C 0.94486 0.82969 0.52099 0.0
C758 C 0.95072 0.87998 0.49169 0.0
C759 C 0.95584 0.90522 0.49165 0.0
C760 C 0.97839 0.91484 0.48549 0.0
C761 C 0.99641 0.89905 0.48168 0.0
C762 C 0.99134 0.87377 0.48186 0.0
H763 H 0.94276 0.8136 0.53268 0.0
H764 H 0.95945 0.8424 0.52871 0.0
H765 H 0.92822 0.83914 0.52165 0.0
H766 H 0.93261 0.87303 0.49411 0.0
H767 H 0.94155 0.91713 0.4939 0.0
H768 H 0.443 0.78598 0.5548 0.0
H769 H 0.45826 0.74779 0.53933 0.0
H770 H 0.3986 0.70681 0.5692 0.0
H771 H 0.38295 0.74504 0.58385 0.0
H772 H 0.47091 0.70853 0.56513 0.0
H773 H 0.39748 0.68006 0.49944 0.0
H774 H 0.4015 0.71063 0.51288 0.0
H775 H 0.38783 0.68616 0.52978 0.0
C776 C 0.43315 0.76875 0.55778 0.0
C777 C 0.41176 0.76817 0.5701 0.0
C778 C 0.44182 0.74706 0.54903 0.0
C779 C 0.42928 0.7246 0.55268 0.0
C780 C 0.40814 0.72403 0.56554 0.0
H781 H 0.44242 0.5761 0.54975 0.0
H782 H 0.43239 0.61838 0.55014 0.0
C783 C 0.39928 0.74574 0.57397 0.0
C784 C 0.43866 0.70166 0.54373 0.0
H785 H 0.42385 0.64956 0.50956 0.0
C786 C 0.46089 0.69581 0.55258 0.0
C787 C 0.42548 0.68522 0.52735 0.0
C788 C 0.40184 0.69091 0.51662 0.0
C789 C 0.4697 0.67323 0.54656 0.0
C790 C 0.45607 0.65643 0.53096 0.0
C791 C 0.43435 0.66273 0.52124 0.0
C792 C 0.4618 0.63079 0.52827 0.0
C793 C 0.49274 0.66679 0.5581 0.0
C794 C 0.48145 0.62377 0.51531 0.0
C795 C 0.48717 0.59933 0.51487 0.0
C796 C 0.47346 0.58208 0.52777 0.0
C797 C 0.45347 0.58919 0.53999 0.0
C798 C 0.44763 0.61326 0.54013 0.0
H799 H 0.5001 0.68109 0.57155 0.0
H800 H 0.4902 0.64921 0.56743 0.0
H801 H 0.5059 0.66443 0.54371 0.0
H802 H 0.49247 0.6372 0.50596 0.0
H803 H 0.50265 0.59413 0.50532 0.0
H804 H 0.91526 0.95686 0.77216 0.0
H805 H 0.92755 0.96865 0.73144 0.0
H806 H 0.93009 0.89272 0.70954 0.0
H807 H 0.91733 0.88077 0.74991 0.0
H808 H 0.96903 0.95744 0.70647 0.0
H809 H 0.88761 0.91957 0.65636 0.0
H810 H 0.88891 0.92471 0.68905 0.0
H811 H 0.90139 0.89847 0.67546 0.0
C812 C 0.91826 0.94267 0.75862 0.0
C813 C 0.91521 0.91786 0.76428 0.0
C814 C 0.92538 0.94943 0.73541 0.0
C815 C 0.92935 0.93154 0.71735 0.0
C816 C 0.92672 0.90681 0.72306 0.0
H817 H 0.97809 0.94157 0.56719 0.0
H818 H 0.96212 0.92614 0.60561 0.0
C819 C 0.91969 0.90003 0.74625 0.0
C820 C 0.93659 0.93873 0.69264 0.0
H821 H 0.91938 0.93453 0.63243 0.0
C822 C 0.95816 0.95249 0.69029 0.0
C823 C 0.92242 0.93211 0.67154 0.0
C824 C 0.89869 0.91807 0.67312 0.0
C825 C 0.96604 0.95967 0.6674 0.0
C826 C 0.95174 0.95333 0.64632 0.0
C827 C 0.9303 0.93932 0.6486 0.0
C828 C 0.95849 0.96209 0.622 0.0
C829 C 0.98976 0.97379 0.66593 0.0
C830 C 0.96075 0.98725 0.61818 0.0
C831 C 0.96991 0.99595 0.59653 0.0
C832 C 0.97648 0.97967 0.57805 0.0
C833 C 0.97279 0.95441 0.5811 0.0
C834 C 0.96384 0.94565 0.60303 0.0
H835 H 0.00104 0.97171 0.68243 0.0
H836 H -0.00065 0.96771 0.64964 0.0
H837 H 0.98707 0.9935 0.66439 0.0
H838 H 0.95626 0.00022 0.63235 0.0
H839 H 0.97268 0.01551 0.59455 0.0
H840 H 0.59789 0.04881 0.27745 0.0
H841 H 0.58455 0.03281 0.23686 0.0
H842 H 0.56617 0.1047 0.21778 0.0
H843 H 0.58025 0.12104 0.25784 0.0
H844 H 0.54038 0.03359 0.21093 0.0
H845 H 0.61323 0.08595 0.1657 0.0
H846 H 0.61313 0.0821 0.19823 0.0
H847 H 0.59591 0.10462 0.18471 0.0
C848 C 0.5911 0.06123 0.26456 0.0
C849 C 0.59041 0.08625 0.27075 0.0
C850 C 0.58332 0.05201 0.2415 0.0
C851 C 0.57481 0.06768 0.22428 0.0
C852 C 0.57309 0.09242 0.23074 0.0
H853 H 0.51363 0.07191 0.08615 0.0
H854 H 0.52739 0.07431 0.12836 0.0
C855 C 0.58092 0.10167 0.25373 0.0
C856 C 0.56858 0.0585 0.19919 0.0
H857 H 0.5817 0.06812 0.13986 0.0
C858 C 0.54963 0.04078 0.19537 0.0
C859 C 0.58089 0.06779 0.17901 0.0
C860 C 0.60207 0.08599 0.18207 0.0
C861 C 0.54183 0.03314 0.17167 0.0
C862 C 0.55344 0.04339 0.15159 0.0
C863 C 0.573 0.06023 0.15544 0.0
C864 C 0.54358 0.03987 0.1266 0.0
C865 C 0.52054 0.01522 0.16807 0.0
C866 C 0.54807 0.01948 0.11173 0.0
C867 C 0.54019 0.01797 0.08728 0.0
C868 C 0.52804 0.03701 0.07754 0.0
C869 C 0.52327 0.05707 0.09286 0.0
C870 C 0.53095 0.05845 0.11708 0.0
H871 H 0.51401 0.00819 0.18559 0.0
H872 H 0.50608 0.0242 0.15875 0.0
H873 H 0.52503 -0.00044 0.15613 0.0
H874 H 0.55799 0.00507 0.1189 0.0
H875 H 0.544 0.00226 0.07594 0.0
H876 H 0.42164 0.63486 0.26749 0.0
H877 H 0.42989 0.62339 0.30934 0.0
H878 H 0.41401 0.54747 0.28816 0.0
H879 H 0.40675 0.55865 0.24617 0.0
H880 H 0.39854 0.59981 0.33999 0.0
H881 H 0.4764 0.54612 0.32517 0.0
H882 H 0.46568 0.56604 0.3026 0.0
H883 H 0.45177 0.53581 0.30548 0.0
C884 C 0.42047 0.61568 0.27164 0.0
C885 C 0.41354 0.59763 0.25358 0.0
C886 C 0.42494 0.60921 0.29557 0.0
C887 C 0.42265 0.58461 0.30174 0.0
C888 C 0.41618 0.56654 0.28367 0.0
H889 H 0.43544 0.4975 0.42257 0.0
H890 H 0.41416 0.51842 0.39141 0.0
C891 C 0.41182 0.57296 0.25975 0.0
C892 C 0.42609 0.57778 0.32725 0.0
H893 H 0.45692 0.54102 0.36291 0.0
C894 C 0.41143 0.58712 0.34511 0.0
C895 C 0.44304 0.56138 0.3338 0.0
C896 C 0.46028 0.55196 0.3158 0.0
C897 C 0.41284 0.57979 0.36932 0.0
C898 C 0.42911 0.5627 0.37551 0.0
C899 C 0.44411 0.55383 0.35782 0.0
C900 C 0.43188 0.55388 0.40034 0.0
C901 C 0.39681 0.58986 0.38807 0.0
C902 C 0.44715 0.56745 0.41701 0.0
C903 C 0.45916 0.5555 0.43502 0.0
C904 C 0.45605 0.52999 0.43611 0.0
C905 C 0.43783 0.51724 0.42218 0.0
C906 C 0.42579 0.52917 0.40426 0.0
H907 H 0.38403 0.60191 0.37999 0.0
H908 H 0.38689 0.5746 0.39701 0.0
H909 H 0.40763 0.60047 0.40243 0.0
H910 H 0.45218 0.58651 0.41406 0.0
H911 H 0.4734 0.56556 0.4454 0.0
H912 H 0.11365 0.43975 0.74398 0.0
H913 H 0.10569 0.4461 0.78725 0.0
H914 H 0.03183 0.45171 0.76948 0.0
H915 H 0.03964 0.44491 0.72614 0.0
H916 H 0.08714 0.4839 0.81246 0.0
H917 H 0.02938 0.3988 0.81924 0.0
H918 H 0.04743 0.40472 0.79314 0.0
H919 H 0.01945 0.41801 0.79592 0.0
C920 C 0.09575 0.44258 0.74931 0.0
C921 C 0.07721 0.44176 0.73179 0.0
C922 C 0.09123 0.44608 0.774 0.0
C923 C 0.06812 0.44881 0.78157 0.0
C924 C 0.04969 0.44891 0.76403 0.0
H925 H 0.99144 0.49919 0.89286 0.0
H926 H 0.01275 0.48602 0.85772 0.0
C927 C 0.05416 0.44517 0.73933 0.0
C928 C 0.06325 0.45165 0.8078 0.0
H929 H 0.02748 0.42887 0.85192 0.0
C930 C 0.0745 0.47157 0.82128 0.0
C931 C 0.047 0.43533 0.81932 0.0
C932 C 0.03531 0.41288 0.80621 0.0
C933 C 0.06859 0.47656 0.84553 0.0
C934 C 0.05117 0.46116 0.8564 0.0
C935 C 0.04103 0.44044 0.84347 0.0
C936 C 0.03946 0.46912 0.8786 0.0
C937 C 0.07971 0.49909 0.85891 0.0
C938 C 0.04748 0.46371 0.90204 0.0
C939 C 0.03525 0.47135 0.92256 0.0
C940 C 0.01485 0.48424 0.91963 0.0
C941 C 0.00695 0.48918 0.89595 0.0
C942 C 0.01916 0.48179 0.87573 0.0
H943 H 0.09498 0.5075 0.84912 0.0
H944 H 0.06632 0.51276 0.86099 0.0
H945 H 0.08573 0.4945 0.87748 0.0
H946 H 0.06314 0.45376 0.9044 0.0
H947 H 0.04181 0.46741 0.94058 0.0
H948 H 0.74064 0.90724 0.88652 0.0
H949 H 0.70287 0.92148 0.90009 0.0
H950 H 0.73668 0.95036 0.96715 0.0
H951 H 0.77449 0.93586 0.9538 0.0
H952 H 0.68063 0.90857 0.94948 0.0
H953 H 0.69942 0.00763 0.93393 0.0
H954 H 0.71416 0.98424 0.91753 0.0
H955 H 0.7221 0.99172 0.94883 0.0
C956 C 0.74003 0.91674 0.9041 0.0
C957 C 0.7605 0.92047 0.91911 0.0
C958 C 0.71846 0.9248 0.91184 0.0
C959 C 0.71705 0.93713 0.93452 0.0
C960 C 0.73746 0.94101 0.94951 0.0
H961 H 0.60039 0.00223 0.00913 0.0
H962 H 0.63971 0.99173 0.99553 0.0
C963 C 0.75898 0.93262 0.94194 0.0
C964 C 0.69406 0.94528 0.94281 0.0
H965 H 0.66317 0.99591 0.95188 0.0
C966 C 0.67677 0.92765 0.95002 0.0
C967 C 0.68917 0.97017 0.94356 0.0
C968 C 0.70706 0.98966 0.93545 0.0
C969 C 0.65474 0.93428 0.95824 0.0
C970 C 0.64964 0.95923 0.9587 0.0
C971 C 0.66706 0.97685 0.95159 0.0
C972 C 0.62614 0.96722 0.96589 0.0
C973 C 0.63734 0.91449 0.96678 0.0
C974 C 0.60557 0.95773 0.95321 0.0
C975 C 0.58336 0.96375 0.9609 0.0
C976 C 0.58118 0.97975 0.98115 0.0
C977 C 0.60169 0.99023 0.99321 0.0
C978 C 0.62406 0.98406 0.98556 0.0
H979 H 0.64637 0.89818 0.97236 0.0
H980 H 0.62714 0.92113 0.98237 0.0
H981 H 0.62473 0.9086 0.95159 0.0
H982 H 0.60666 0.94521 0.93765 0.0
H983 H 0.56773 0.95525 0.95144 0.0
H984 H 0.75812 0.08015 0.39505 0.0
H985 H 0.79677 0.06861 0.40897 0.0
H986 H 0.78568 0.10092 0.48016 0.0
H987 H 0.74637 0.11122 0.46687 0.0
H988 H 0.8341 0.09893 0.42482 0.0
H989 H 0.80766 0.03553 0.49772 0.0
H990 H 0.78668 0.04575 0.47583 0.0
H991 H 0.79697 0.0654 0.50135 0.0
C992 C 0.7636 0.08428 0.41385 0.0
C993 C 0.74906 0.0966 0.42985 0.0
C994 C 0.78583 0.07791 0.42171 0.0
C995 C 0.79403 0.08375 0.44566 0.0
C996 C 0.77956 0.09586 0.46173 0.0
H997 H 0.93184 0.04449 0.50637 0.0
H998 H 0.89614 0.06733 0.50248 0.0
C999 C 0.7572 0.10203 0.45398 0.0
C1000 C 0.81812 0.07793 0.45334 0.0
H1001 H 0.84852 0.04405 0.49264 0.0
C1002 C 0.83726 0.08709 0.43979 0.0
C1003 C 0.82224 0.06269 0.47304 0.0
C1004 C 0.80231 0.05158 0.48771 0.0
C1005 C 0.86028 0.08068 0.44481 0.0
C1006 C 0.86423 0.06465 0.46382 0.0
C1007 C 0.84538 0.05653 0.47823 0.0
C1008 C 0.88664 0.05273 0.46617 0.0
C1009 C 0.88009 0.09043 0.42917 0.0
C1010 C 0.89277 0.03691 0.44721 0.0
C1011 C 0.91272 0.02383 0.44943 0.0
C1012 C 0.92709 0.02618 0.47074 0.0
C1013 C 0.92111 0.04227 0.48976 0.0
C1014 C 0.90083 0.05534 0.48755 0.0
H1015 H 0.87597 0.10793 0.42104 0.0
H1016 H 0.89699 0.09332 0.43985 0.0
H1017 H 0.88255 0.07702 0.414 0.0
H1018 H 0.88178 0.03427 0.43079 0.0
H1019 H 0.91675 0.01169 0.43435 0.0
H1020 H 0.24509 0.63401 0.09437 0.0
H1021 H 0.20527 0.62115 0.07853 0.0
H1022 H 0.22226 0.54581 0.07882 0.0
H1023 H 0.2621 0.55852 0.09468 0.0
H1024 H 0.19359 0.59442 0.03464 0.0
H1025 H 0.15991 0.5461 0.11534 0.0
H1026 H 0.18599 0.56704 0.11683 0.0
H1027 H 0.1876 0.53629 0.10494 0.0
C1028 C 0.2403 0.61471 0.09103 0.0
C1029 C 0.2566 0.59722 0.09567 0.0
C1030 C 0.2176 0.60743 0.08209 0.0
C1031 C 0.21089 0.58259 0.07778 0.0
C1032 C 0.22707 0.56506 0.08249 0.0
H1033 H 0.09121 0.49299 0.02548 0.0
H1034 H 0.13086 0.51123 0.03567 0.0
C1035 C 0.24975 0.57232 0.09152 0.0
C1036 C 0.18721 0.57498 0.06753 0.0
H1037 H 0.13703 0.53978 0.07855 0.0
C1038 C 0.18108 0.58262 0.04424 0.0
C1039 C 0.17104 0.55977 0.0803 0.0
C1040 C 0.17632 0.55199 0.10584 0.0
C1041 C 0.15939 0.57458 0.0329 0.0
C1042 C 0.14355 0.55878 0.04539 0.0
C1043 C 0.14943 0.55173 0.06897 0.0
C1044 C 0.12096 0.54852 0.03435 0.0
C1045 C 0.15389 0.58234 0.00743 0.0
C1046 C 0.10261 0.56357 0.02923 0.0
C1047 C 0.07999 0.55315 0.02297 0.0
C1048 C 0.07559 0.52766 0.0223 0.0
C1049 C 0.09429 0.51272 0.02597 0.0
C1050 C 0.11685 0.52308 0.03182 0.0
H1051 H 0.16987 0.59039 -0.00148 0.0
H1052 H 0.14616 0.56658 0.99594 0.0
H1053 H 0.1407 0.59632 0.00825 0.0
H1054 H 0.10542 0.58325 0.03151 0.0
H1055 H 0.06566 0.56495 0.0205 0.0
H1056 H 0.21229 0.4524 0.53431 0.0
H1057 H 0.25222 0.46083 0.51898 0.0
H1058 H 0.28198 0.44704 0.58969 0.0
H1059 H 0.24214 0.43852 0.60516 0.0
H1060 H 0.29389 0.49613 0.54257 0.0
H1061 H 0.30733 0.39672 0.53497 0.0
H1062 H 0.27823 0.40816 0.53529 0.0
H1063 H 0.29566 0.40825 0.56297 0.0
C1064 C 0.22736 0.45136 0.54661 0.0
C1065 C 0.22416 0.44468 0.57087 0.0
C1066 C 0.25008 0.45628 0.53787 0.0
C1067 C 0.2699 0.45437 0.55319 0.0
C1068 C 0.2668 0.44854 0.57763 0.0
H1069 H 0.41687 0.45262 0.55338 0.0
H1070 H 0.37434 0.44536 0.55539 0.0
C1071 C 0.24408 0.44381 0.58645 0.0
C1072 C 0.29388 0.45702 0.54331 0.0
H1073 H 0.34024 0.424 0.52771 0.0
C1074 C 0.30406 0.48044 0.53903 0.0
C1075 C 0.30685 0.43642 0.53874 0.0
C1076 C 0.29652 0.41089 0.54305 0.0
C1077 C 0.32754 0.48392 0.53146 0.0
C1078 C 0.34078 0.46327 0.52731 0.0
C1079 C 0.33006 0.43979 0.53064 0.0
C1080 C 0.36664 0.46559 0.52336 0.0
C1081 C 0.3383 0.50968 0.52936 0.0
C1082 C 0.37669 0.47848 0.50396 0.0
C1083 C 0.40136 0.48284 0.50285 0.0
C1084 C 0.41609 0.47417 0.52106 0.0
C1085 C 0.40595 0.45963 0.53915 0.0
C1086 C 0.38157 0.45548 0.54035 0.0
H1087 H 0.32718 0.52339 0.53778 0.0
H1088 H 0.35615 0.51184 0.53824 0.0
H1089 H 0.34013 0.51376 0.50982 0.0
H1090 H 0.36549 0.48591 0.49026 0.0
H1091 H 0.40872 0.49424 0.48879 0.0
H1092 H 0.9487 0.77451 0.91636 0.0
H1093 H 0.96232 0.73592 0.93002 0.0
H1094 H 0.89126 0.71269 0.94957 0.0
H1095 H 0.87726 0.75069 0.93483 0.0
H1096 H 0.96195 0.71683 0.97414 0.0
H1097 H 0.90862 0.65382 0.90999 0.0
H1098 H 0.91164 0.6864 0.90629 0.0
H1099 H 0.89086 0.67346 0.9274 0.0
C1100 C 0.93585 0.76107 0.9232 0.0
C1101 C 0.91179 0.7658 0.9243 0.0
C1102 C 0.94373 0.73903 0.93119 0.0
C1103 C 0.92779 0.72112 0.94047 0.0
C1104 C 0.90386 0.72591 0.94198 0.0
H1105 H 0.94928 0.57924 0.00457 0.0
H1106 H 0.93339 0.61854 0.99502 0.0
C1107 C 0.89592 0.74789 0.93387 0.0
C1108 C 0.9364 0.69785 0.9493 0.0
H1109 H 0.92859 0.63554 0.94252 0.0
C1110 C 0.95462 0.69909 0.96719 0.0
C1111 C 0.92701 0.6746 0.94015 0.0
C1112 C 0.90863 0.67191 0.91972 0.0
C1113 C 0.96349 0.67784 0.97632 0.0
C1114 C 0.95387 0.65468 0.96746 0.0
C1115 C 0.93562 0.65334 0.94963 0.0
C1116 C 0.96388 0.63173 0.97506 0.0
C1117 C 0.98316 0.68025 0.99539 0.0
C1118 C 0.98636 0.62635 0.96736 0.0
C1119 C 0.99543 0.60414 0.97283 0.0
C1120 C 0.98226 0.58673 0.98619 0.0
C1121 C 0.96005 0.59246 0.9947 0.0
C1122 C 0.95085 0.61475 0.989 0.0
H1123 H 0.98541 0.69898 0.00385 0.0
H1124 H 0.97973 0.66697 0.00992 0.0
H1125 H 1e-05 0.67615 0.98678 0.0
H1126 H 0.99662 0.63903 0.95639 0.0
H1127 H 0.01247 0.60019 0.96576 0.0
H1128 H 0.42283 0.76768 0.13983 0.0
H1129 H 0.43305 0.81029 0.13026 0.0
H1130 H 0.42783 0.79074 0.05345 0.0
H1131 H 0.41772 0.74805 0.06283 0.0
H1132 H 0.47068 0.83135 0.10028 0.0
H1133 H 0.38028 0.84426 0.06456 0.0
H1134 H 0.38681 0.81883 0.083 0.0
H1135 H 0.3933 0.81832 0.05107 0.0
C1136 C 0.42424 0.77242 0.12091 0.0
C1137 C 0.4194 0.75467 0.10203 0.0
C1138 C 0.42995 0.79671 0.11553 0.0
C1139 C 0.43076 0.80352 0.09124 0.0
C1140 C 0.42681 0.78574 0.07233 0.0
H1141 H 0.46575 0.902 0.99241 0.0
H1142 H 0.45144 0.87125 0.02014 0.0
C1143 C 0.42106 0.76146 0.07768 0.0
C1144 C 0.43509 0.82932 0.08543 0.0
H1145 H 0.41093 0.87398 0.05381 0.0
C1146 C 0.45751 0.84102 0.09067 0.0
C1147 C 0.41767 0.84177 0.07319 0.0
C1148 C 0.39308 0.83023 0.06781 0.0
C1149 C 0.46361 0.86426 0.08195 0.0
C1150 C 0.44669 0.87584 0.06806 0.0
C1151 C 0.42372 0.86498 0.06467 0.0
C1152 C 0.45384 0.89568 0.05203 0.0
C1153 C 0.48859 0.87535 0.08574 0.0
C1154 C 0.4592 0.91973 0.06087 0.0
C1155 C 0.46748 0.93756 0.04494 0.0
C1156 C 0.4705 0.93126 0.02019 0.0
C1157 C 0.46376 0.90742 0.01138 0.0
C1158 C 0.45564 0.88979 0.02719 0.0
H1159 H 0.49926 0.8645 0.09799 0.0
H1160 H 0.49735 0.87651 0.06789 0.0
H1161 H 0.48841 0.8942 0.09367 0.0
H1162 H 0.45756 0.92449 0.08003 0.0
H1163 H 0.47255 0.95583 0.05218 0.0
H1164 H 0.048 0.2726 0.60455 0.0
H1165 H 0.03327 0.23147 0.59015 0.0
H1166 H 0.06524 0.24335 0.52072 0.0
H1167 H 0.07938 0.28473 0.53453 0.0
H1168 H 0.00399 0.21811 0.54219 0.0
H1169 H 0.09158 0.17892 0.55144 0.0
H1170 H 0.08412 0.20556 0.56907 0.0
H1171 H 0.09076 0.20806 0.53746 0.0
C1172 C 0.05159 0.26665 0.58608 0.0
C1173 C 0.06491 0.282 0.5707 0.0
C1174 C 0.04326 0.24312 0.57796 0.0
C1175 C 0.04828 0.2345 0.55446 0.0
C1176 C 0.06135 0.24973 0.53899 0.0
H1177 H 0.03111 0.08756 0.48976 0.0
H1178 H 0.03496 0.13249 0.49174 0.0
C1179 C 0.06954 0.2733 0.54699 0.0
C1180 C 0.04025 0.20938 0.54616 0.0
H1181 H 0.06006 0.15305 0.53474 0.0
C1182 C 0.01619 0.20385 0.54042 0.0
C1183 C 0.0563 0.19099 0.54397 0.0
C1184 C 0.08214 0.19596 0.55091 0.0
C1185 C 0.00774 0.18017 0.53247 0.0
C1186 C 0.02379 0.16173 0.53039 0.0
C1187 C 0.04789 0.1674 0.53591 0.0
C1188 C 0.01588 0.13581 0.52525 0.0
C1189 C 0.98177 0.17498 0.52644 0.0
C1190 C 0.00304 0.12303 0.54284 0.0
C1191 C 0.00093 0.09758 0.54173 0.0
C1192 C 0.01146 0.0846 0.52292 0.0
C1193 C 0.02241 0.09731 0.50408 0.0
C1194 C 0.02477 0.12288 0.50533 0.0
H1195 H 0.97298 0.192 0.52288 0.0
H1196 H 0.97904 0.16229 0.51026 0.0
H1197 H 0.97306 0.16616 0.54209 0.0
H1198 H 0.99648 0.13262 0.55859 0.0
H1199 H 0.99283 0.08802 0.55669 0.0
H1200 H 0.6279 0.26385 0.44746 0.0
H1201 H 0.61099 0.30099 0.46291 0.0
H1202 H 0.54214 0.27326 0.43516 0.0
H1203 H 0.5586 0.23572 0.42072 0.0
H1204 H 0.58931 0.33404 0.43599 0.0
H1205 H 0.52712 0.29573 0.50346 0.0
H1206 H 0.55013 0.27852 0.49067 0.0
H1207 H 0.52281 0.28098 0.47387 0.0
C1208 C 0.60906 0.26543 0.44514 0.0
C1209 C 0.59459 0.24683 0.43285 0.0
C1210 C 0.59947 0.28672 0.45383 0.0
C1211 C 0.57525 0.2897 0.45051 0.0
C1212 C 0.56076 0.27111 0.43842 0.0
H1213 H 0.49272 0.41248 0.44381 0.0
H1214 H 0.50951 0.3726 0.44102 0.0
C1215 C 0.57028 0.24981 0.42985 0.0
C1216 C 0.56533 0.31286 0.45822 0.0
H1217 H 0.52103 0.33629 0.49077 0.0
C1218 C 0.57463 0.33459 0.44827 0.0
C1219 C 0.54616 0.3135 0.47424 0.0
C1220 C 0.53612 0.29095 0.48636 0.0
C1221 C 0.56469 0.35682 0.45323 0.0
C1222 C 0.54507 0.35723 0.46855 0.0
C1223 C 0.53612 0.33573 0.47903 0.0
C1224 C 0.53282 0.37971 0.47257 0.0
C1225 C 0.57475 0.37969 0.44166 0.0
C1226 C 0.53984 0.3963 0.49182 0.0
C1227 C 0.52993 0.41888 0.49374 0.0
C1228 C 0.51318 0.42507 0.47621 0.0
C1229 C 0.50544 0.40792 0.45765 0.0
C1230 C 0.51507 0.38529 0.45596 0.0
H1231 H 0.59034 0.37635 0.43046 0.0
H1232 H 0.561 0.38708 0.42986 0.0
H1233 H 0.58004 0.39387 0.45605 0.0
H1234 H 0.55367 0.3922 0.50466 0.0
H1235 H 0.53656 0.4321 0.50783 0.0
loop_
_geom_bond_atom_site_label_1
_geom_bond_atom_site_label_2
_geom_bond_distance
_geom_bond_site_symmetry_2
_ccdc_geom_bond_type
C0 C1 1.384 . S
C0 H13 0.947 . S
C0 C35 1.382 . S
C1 C0 1.384 . S
C1 C2 1.378 . S
C2 C1 1.378 . S
C2 C3 1.378 . S
C2 H14 0.952 . S
C3 C2 1.378 . S
C3 H15 0.950 . S
C3 C34 1.383 . S
H4 C23 0.947 . S
H5 C24 0.946 . S
H6 C26 0.953 . S
H7 C27 0.945 . S
H8 C29 0.952 . S
H9 C30 0.949 . S
H10 C32 0.950 . S
H11 C33 0.948 . S
H12 C35 0.951 . S
H13 C0 0.947 . S
H14 C2 0.952 . S
H15 C3 0.950 . S
N16 C19 1.382 . S
N16 C21 1.363 . S
N17 C19 1.371 . S
N17 C20 1.372 . S
N18 C20 1.361 . S
N18 C21 1.377 . S
C19 N16 1.382 . S
C19 N17 1.371 . S
C19 C22 1.480 . S
C20 N17 1.372 . S
C20 N18 1.361 . S
C20 C28 1.457 . S
C21 N16 1.363 . S
C21 N18 1.377 . S
C21 C34 1.479 . S
C22 C19 1.480 . S
C22 C23 1.383 . S
C22 C27 1.385 . S
C23 H4 0.947 . S
C23 C22 1.383 . S
C23 C24 1.388 . S
C24 H5 0.946 . S
C24 C23 1.388 . S
C24 C25 1.384 . S
C25 C24 1.384 . S
C25 C26 1.377 . S
C26 H6 0.953 . S
C26 C25 1.377 . S
C26 C27 1.369 . S
C27 H7 0.945 . S
C27 C22 1.385 . S
C27 C26 1.369 . S
C28 C20 1.457 . S
C28 C29 1.372 . S
C28 C33 1.364 . S
C29 H8 0.952 . S
C29 C28 1.372 . S
C29 C30 1.389 . S
C30 H9 0.949 . S
C30 C29 1.389 . S
C30 C31 1.387 . S
C31 C30 1.387 . S
C31 C32 1.372 . S
C32 H10 0.950 . S
C32 C31 1.372 . S
C32 C33 1.379 . S
C33 H11 0.948 . S
C33 C28 1.364 . S
C33 C32 1.379 . S
C34 C3 1.383 . S
C34 C21 1.479 . S
C34 C35 1.398 . S
C35 C0 1.382 . S
C35 H12 0.951 . S
C35 C34 1.398 . S
C36 C37 1.384 . S
C36 H49 0.947 . S
C36 C71 1.382 . S
C37 C36 1.384 . S
C37 C38 1.378 . S
C38 C37 1.378 . S
C38 C39 1.378 . S
C38 H50 0.952 . S
C39 C38 1.378 . S
C39 H51 0.950 . S
C39 C70 1.383 . S
H40 C59 0.947 . S
H41 C60 0.946 . S
H42 C62 0.953 . S
H43 C63 0.945 . S
H44 C65 0.952 . S
H45 C66 0.949 . S
H46 C68 0.950 . S
H47 C69 0.948 . S
H48 C71 0.951 . S
H49 C36 0.947 . S
H50 C38 0.952 . S
H51 C39 0.950 . S
N52 C55 1.382 . S
N52 C57 1.363 . S
N53 C55 1.371 . S
N53 C56 1.372 . S
N54 C56 1.361 . S
N54 C57 1.377 . S
C55 N52 1.382 . S
C55 N53 1.371 . S
C55 C58 1.480 . S
C56 N53 1.372 . S
C56 N54 1.361 . S
C56 C64 1.457 . S
C57 N52 1.363 . S
C57 N54 1.377 . S
C57 C70 1.479 . S
C58 C55 1.480 . S
C58 C59 1.383 . S
C58 C63 1.385 . S
C59 H40 0.947 . S
C59 C58 1.383 . S
C59 C60 1.388 . S
C60 H41 0.946 . S
C60 C59 1.388 . S
C60 C61 1.384 . S
C61 C60 1.384 . S
C61 C62 1.377 . S
C62 H42 0.953 . S
C62 C61 1.377 . S
C62 C63 1.369 . S
C63 H43 0.945 . S
C63 C58 1.385 . S
C63 C62 1.369 . S
C64 C56 1.457 . S
C64 C65 1.372 . S
C64 C69 1.364 . S
C65 H44 0.952 . S
C65 C64 1.372 . S
C65 C66 1.389 . S
C66 H45 0.949 . S
C66 C65 1.389 . S
C66 C67 1.387 . S
C67 C66 1.387 . S
C67 C68 1.372 . S
C68 H46 0.950 . S
C68 C67 1.372 . S
C68 C69 1.379 . S
C69 H47 0.948 . S
C69 C64 1.364 . S
C69 C68 1.379 . S
C70 C39 1.383 . S
C70 C57 1.479 . S
C70 C71 1.398 . S
C71 C36 1.382 . S
C71 H48 0.951 . S
C71 C70 1.398 . S
C72 C73 1.384 . S
C72 H85 0.947 . S
C72 C107 1.382 . S
C73 C72 1.384 . S
C73 C74 1.378 . S
C74 C73 1.378 . S
C74 C75 1.378 . S
C74 H86 0.952 . S
C75 C74 1.378 . S
C75 H87 0.950 . S
C75 C106 1.383 . S
H76 C95 0.947 . S
H77 C96 0.946 . S
H78 C98 0.953 . S
H79 C99 0.945 . S
H80 C101 0.952 . S
H81 C102 0.949 . S
H82 C104 0.950 . S
H83 C105 0.948 . S
H84 C107 0.951 . S
H85 C72 0.947 . S
H86 C74 0.952 . S
H87 C75 0.950 . S
N88 C91 1.382 . S
N88 C93 1.363 . S
N89 C91 1.371 . S
N89 C92 1.372 . S
N90 C92 1.361 . S
N90 C93 1.377 . S
C91 N88 1.382 . S
C91 N89 1.371 . S
C91 C94 1.480 . S
C92 N89 1.372 . S
C92 N90 1.361 . S
C92 C100 1.457 . S
C93 N88 1.363 . S
C93 N90 1.377 . S
C93 C106 1.479 . S
C94 C91 1.480 . S
C94 C95 1.383 . S
C94 C99 1.385 . S
C95 H76 0.947 . S
C95 C94 1.383 . S
C95 C96 1.388 . S
C96 H77 0.946 . S
C96 C95 1.388 . S
C96 C97 1.384 . S
C97 C96 1.384 . S
C97 C98 1.377 . S
C98 H78 0.953 . S
C98 C97 1.377 . S
C98 C99 1.369 . S
C99 H79 0.945 . S
C99 C94 1.385 . S
C99 C98 1.369 . S
C100 C92 1.457 . S
C100 C101 1.372 . S
C100 C105 1.364 . S
C101 H80 0.952 . S
C101 C100 1.372 . S
C101 C102 1.389 . S
C102 H81 0.949 . S
C102 C101 1.389 . S
C102 C103 1.387 . S
C103 C102 1.387 . S
C103 C104 1.372 . S
C104 H82 0.950 . S
C104 C103 1.372 . S
C104 C105 1.379 . S
C105 H83 0.948 . S
C105 C100 1.364 . S
C105 C104 1.379 . S
C106 C75 1.383 . S
C106 C93 1.479 . S
C106 C107 1.398 . S
C107 C72 1.382 . S
C107 H84 0.951 . S
C107 C106 1.398 . S
C108 C109 1.384 . S
C108 H121 0.947 . S
C108 C143 1.382 . S
C109 C108 1.384 . S
C109 C110 1.378 . S
C110 C109 1.378 . S
C110 C111 1.378 . S
C110 H122 0.952 . S
C111 C110 1.378 . S
C111 H123 0.950 . S
C111 C142 1.383 . S
H112 C131 0.947 . S
H113 C132 0.946 . S
H114 C134 0.953 . S
H115 C135 0.945 . S
H116 C137 0.952 . S
H117 C138 0.949 . S
H118 C140 0.950 . S
H119 C141 0.948 . S
H120 C143 0.951 . S
H121 C108 0.947 . S
H122 C110 0.952 . S
H123 C111 0.950 . S
N124 C127 1.382 . S
N124 C129 1.363 . S
N125 C127 1.371 . S
N125 C128 1.372 . S
N126 C128 1.361 . S
N126 C129 1.377 . S
C127 N124 1.382 . S
C127 N125 1.371 . S
C127 C130 1.480 . S
C128 N125 1.372 . S
C128 N126 1.361 . S
C128 C136 1.457 . S
C129 N124 1.363 . S
C129 N126 1.377 . S
C129 C142 1.479 . S
C130 C127 1.480 . S
C130 C131 1.383 . S
C130 C135 1.385 . S
C131 H112 0.947 . S
C131 C130 1.383 . S
C131 C132 1.388 . S
C132 H113 0.946 . S
C132 C131 1.388 . S
C132 C133 1.384 . S
C133 C132 1.384 . S
C133 C134 1.377 . S
C134 H114 0.953 . S
C134 C133 1.377 . S
C134 C135 1.369 . S
C135 H115 0.945 . S
C135 C130 1.385 . S
C135 C134 1.369 . S
C136 C128 1.457 . S
C136 C137 1.372 . S
C136 C141 1.364 . S
C137 H116 0.952 . S
C137 C136 1.372 . S
C137 C138 1.389 . S
C138 H117 0.949 . S
C138 C137 1.389 . S
C138 C139 1.387 . S
C139 C138 1.387 . S
C139 C140 1.372 . S
C140 H118 0.950 . S
C140 C139 1.372 . S
C140 C141 1.379 . S
C141 H119 0.948 . S
C141 C136 1.364 . S
C141 C140 1.379 . S
C142 C111 1.383 . S
C142 C129 1.479 . S
C142 C143 1.398 . S
C143 C108 1.382 . S
C143 H120 0.951 . S
C143 C142 1.398 . S
C144 C145 1.384 . S
C144 H157 0.947 . S
C144 C179 1.382 . S
C145 C144 1.384 . S
C145 C146 1.378 . S
C146 C145 1.378 . S
C146 C147 1.378 . S
C146 H158 0.952 . S
C147 C146 1.378 . S
C147 H159 0.950 . S
C147 C178 1.383 . S
H148 C167 0.947 . S
H149 C168 0.946 . S
H150 C170 0.953 . S
H151 C171 0.945 . S
H152 C173 0.952 . S
H153 C174 0.949 . S
H154 C176 0.950 . S
H155 C177 0.948 . S
H156 C179 0.951 . S
H157 C144 0.947 . S
H158 C146 0.952 . S
H159 C147 0.950 . S
N160 C163 1.382 . S
N160 C165 1.363 . S
N161 C163 1.371 . S
N161 C164 1.372 . S
N162 C164 1.361 . S
N162 C165 1.377 . S
C163 N160 1.382 . S
C163 N161 1.371 . S
C163 C166 1.480 . S
C164 N161 1.372 . S
C164 N162 1.361 . S
C164 C172 1.457 . S
C165 N160 1.363 . S
C165 N162 1.377 . S
C165 C178 1.479 . S
C166 C163 1.480 . S
C166 C167 1.383 . S
C166 C171 1.385 . S
C167 H148 0.947 . S
C167 C166 1.383 . S
C167 C168 1.388 . S
C168 H149 0.946 . S
C168 C167 1.388 . S
C168 C169 1.384 . S
C169 C168 1.384 . S
C169 C170 1.377 . S
C170 H150 0.953 . S
C170 C169 1.377 . S
C170 C171 1.369 . S
C171 H151 0.945 . S
C171 C166 1.385 . S
C171 C170 1.369 . S
C172 C164 1.457 . S
C172 C173 1.372 . S
C172 C177 1.364 . S
C173 H152 0.952 . S
C173 C172 1.372 . S
C173 C174 1.389 . S
C174 H153 0.949 . S
C174 C173 1.389 . S
C174 C175 1.387 . S
C175 C174 1.387 . S
C175 C176 1.372 . S
C176 H154 0.950 . S
C176 C175 1.372 . S
C176 C177 1.379 . S
C177 H155 0.948 . S
C177 C172 1.364 . S
C177 C176 1.379 . S
C178 C147 1.383 . S
C178 C165 1.479 . S
C178 C179 1.398 . S
C179 C144 1.382 . S
C179 H156 0.951 . S
C179 C178 1.398 . S
C180 C181 1.384 . S
C180 H193 0.947 . S
C180 C215 1.382 . S
C181 C180 1.384 . S
C181 C182 1.378 . S
C182 C181 1.378 . S
C182 C183 1.378 . S
C182 H194 0.952 . S
C183 C182 1.378 . S
C183 H195 0.950 . S
C183 C214 1.383 . S
H184 C203 0.947 . S
H185 C204 0.946 . S
H186 C206 0.953 . S
H187 C207 0.945 . S
H188 C209 0.952 . S
H189 C210 0.949 . S
H190 C212 0.950 . S
H191 C213 0.948 . S
H192 C215 0.951 . S
H193 C180 0.947 . S
H194 C182 0.952 . S
H195 C183 0.950 . S
N196 C199 1.382 . S
N196 C201 1.363 . S
N197 C199 1.371 . S
N197 C200 1.372 . S
N198 C200 1.361 . S
N198 C201 1.377 . S
C199 N196 1.382 . S
C199 N197 1.371 . S
C199 C202 1.480 . S
C200 N197 1.372 . S
C200 N198 1.361 . S
C200 C208 1.457 . S
C201 N196 1.363 . S
C201 N198 1.377 . S
C201 C214 1.479 . S
C202 C199 1.480 . S
C202 C203 1.383 . S
C202 C207 1.385 . S
C203 H184 0.947 . S
C203 C202 1.383 . S
C203 C204 1.388 . S
C204 H185 0.946 . S
C204 C203 1.388 . S
C204 C205 1.384 . S
C205 C204 1.384 . S
C205 C206 1.377 . S
C206 H186 0.953 . S
C206 C205 1.377 . S
C206 C207 1.369 . S
C207 H187 0.945 . S
C207 C202 1.385 . S
C207 C206 1.369 . S
C208 C200 1.457 . S
C208 C209 1.372 . S
C208 C213 1.364 . S
C209 H188 0.952 . S
C209 C208 1.372 . S
C209 C210 1.389 . S
C210 H189 0.949 . S
C210 C209 1.389 . S
C210 C211 1.387 . S
C211 C210 1.387 . S
C211 C212 1.372 . S
C212 H190 0.950 . S
C212 C211 1.372 . S
C212 C213 1.379 . S
C213 H191 0.948 . S
C213 C208 1.364 . S
C213 C212 1.379 . S
C214 C183 1.383 . S
C214 C201 1.479 . S
C214 C215 1.398 . S
C215 C180 1.382 . S
C215 H192 0.951 . S
C215 C214 1.398 . S
C216 C217 1.384 . S
C216 H229 0.947 . S
C216 C251 1.382 . S
C217 C216 1.384 . S
C217 C218 1.378 . S
C218 C217 1.378 . S
C218 C219 1.378 . S
C218 H230 0.952 . S
C219 C218 1.378 . S
C219 H231 0.950 . S
C219 C250 1.383 . S
H220 C239 0.947 . S
H221 C240 0.946 . S
H222 C242 0.953 . S
H223 C243 0.945 . S
H224 C245 0.952 . S
H225 C246 0.949 . S
H226 C248 0.950 . S
H227 C249 0.948 . S
H228 C251 0.951 . S
H229 C216 0.947 . S
H230 C218 0.952 . S
H231 C219 0.950 . S
N232 C235 1.382 . S
N232 C237 1.363 . S
N233 C235 1.371 . S
N233 C236 1.372 . S
N234 C236 1.361 . S
N234 C237 1.377 . S
C235 N232 1.382 . S
C235 N233 1.371 . S
C235 C238 1.480 . S
C236 N233 1.372 . S
C236 N234 1.361 . S
C236 C244 1.457 . S
C237 N232 1.363 . S
C237 N234 1.377 . S
C237 C250 1.479 . S
C238 C235 1.480 . S
C238 C239 1.383 . S
C238 C243 1.385 . S
C239 H220 0.947 . S
C239 C238 1.383 . S
C239 C240 1.388 . S
C240 H221 0.946 . S
C240 C239 1.388 . S
C240 C241 1.384 . S
C241 C240 1.384 . S
C241 C242 1.377 . S
C242 H222 0.953 . S
C242 C241 1.377 . S
C242 C243 1.369 . S
C243 H223 0.945 . S
C243 C238 1.385 . S
C243 C242 1.369 . S
C244 C236 1.457 . S
C244 C245 1.372 . S
C244 C249 1.364 . S
C245 H224 0.952 . S
C245 C244 1.372 . S
C245 C246 1.389 . S
C246 H225 0.949 . S
C246 C245 1.389 . S
C246 C247 1.387 . S
C247 C246 1.387 . S
C247 C248 1.372 . S
C248 H226 0.950 . S
C248 C247 1.372 . S
C248 C249 1.379 . S
C249 H227 0.948 . S
C249 C244 1.364 . S
C249 C248 1.379 . S
C250 C219 1.383 . S
C250 C237 1.479 . S
C250 C251 1.398 . S
C251 C216 1.382 . S
C251 H228 0.951 . S
C251 C250 1.398 . S
C252 C253 1.384 . S
C252 H265 0.947 . S
C252 C287 1.382 . S
C253 C252 1.384 . S
C253 C254 1.378 . S
C254 C253 1.378 . S
C254 C255 1.378 . S
C254 H266 0.952 . S
C255 C254 1.378 . S
C255 H267 0.950 . S
C255 C286 1.383 . S
H256 C275 0.947 . S
H257 C276 0.946 . S
H258 C278 0.953 . S
H259 C279 0.945 . S
H260 C281 0.952 . S
H261 C282 0.949 . S
H262 C284 0.950 . S
H263 C285 0.948 . S
H264 C287 0.951 . S
H265 C252 0.947 . S
H266 C254 0.952 . S
H267 C255 0.950 . S
N268 C271 1.382 . S
N268 C273 1.363 . S
N269 C271 1.371 . S
N269 C272 1.372 . S
N270 C272 1.361 . S
N270 C273 1.377 . S
C271 N268 1.382 . S
C271 N269 1.371 . S
C271 C274 1.480 . S
C272 N269 1.372 . S
C272 N270 1.361 . S
C272 C280 1.457 . S
C273 N268 1.363 . S
C273 N270 1.377 . S
C273 C286 1.479 . S
C274 C271 1.480 . S
C274 C275 1.383 . S
C274 C279 1.385 . S
C275 H256 0.947 . S
C275 C274 1.383 . S
C275 C276 1.388 . S
C276 H257 0.946 . S
C276 C275 1.388 . S
C276 C277 1.384 . S
C277 C276 1.384 . S
C277 C278 1.377 . S
C278 H258 0.953 . S
C278 C277 1.377 . S
C278 C279 1.369 . S
C279 H259 0.945 . S
C279 C274 1.385 . S
C279 C278 1.369 . S
C280 C272 1.457 . S
C280 C281 1.372 . S
C280 C285 1.364 . S
C281 H260 0.952 . S
C281 C280 1.372 . S
C281 C282 1.389 . S
C282 H261 0.949 . S
C282 C281 1.389 . S
C282 C283 1.387 . S
C283 C282 1.387 . S
C283 C284 1.372 . S
C284 H262 0.950 . S
C284 C283 1.372 . S
C284 C285 1.379 . S
C285 H263 0.948 . S
C285 C280 1.364 . S
C285 C284 1.379 . S
C286 C255 1.383 . S
C286 C273 1.479 . S
C286 C287 1.398 . S
C287 C252 1.382 . S
C287 H264 0.951 . S
C287 C286 1.398 . S
O288 Mg289 1.990 . S
O288 C302 1.253 1_445 S
Mg289 O288 1.990 . S
Mg289 O292 2.180 . S
Mg289 O293 2.117 . S
Mg289 O307 2.030 1_545 S
O290 Mg291 2.072 1_665 S
O290 C302 1.260 . S
Mg291 O290 2.072 1_445 S
Mg291 O292 2.099 . S
Mg291 O294 2.079 . S
Mg291 O295 2.072 1_455 S
Mg291 O297 2.099 1_445 S
Mg291 O308 2.079 1_545 S
O292 Mg289 2.180 . S
O292 Mg291 2.099 . S
O292 C303 1.279 . S
O293 Mg289 2.117 . S
O293 C303 1.250 . S
O294 Mg291 2.079 . S
O294 C304 1.264 . S
O295 Mg291 2.072 1_655 S
O295 C305 1.260 . S
Mg296 O297 2.180 . S
Mg296 O298 2.030 1_565 S
Mg296 O299 1.990 1_565 S
Mg296 O300 2.117 . S
O297 Mg291 2.099 1_665 S
O297 Mg296 2.180 . S
O297 C306 1.279 . S
O298 Mg296 2.030 1_545 S
O298 C304 1.248 1_655 S
O299 Mg296 1.990 1_545 S
O299 C305 1.253 . S
O300 Mg296 2.117 . S
O300 C306 1.250 . S
C301 O307 1.248 . S
C301 O308 1.264 . S
C302 O288 1.253 1_665 S
C302 O290 1.260 . S
C303 O292 1.279 . S
C303 O293 1.250 . S
C304 O294 1.264 . S
C304 O298 1.248 1_455 S
C305 O295 1.260 . S
C305 O299 1.253 . S
C306 O297 1.279 . S
C306 O300 1.250 . S
O307 Mg289 2.030 1_565 S
O307 C301 1.248 . S
O308 Mg291 2.079 1_565 S
O308 C301 1.264 . S
O309 Mg310 1.990 . S
O309 C323 1.253 . S
Mg310 O309 1.990 . S
Mg310 O313 2.169 1_554 S
Mg310 O314 2.117 1_554 S
Mg310 O328 2.030 . S
O311 Mg312 2.072 . S
O311 C323 1.260 . S
Mg312 O311 2.072 . S
Mg312 O313 2.096 1_554 S
Mg312 O315 2.079 1_554 S
Mg312 O316 2.072 1_554 S
Mg312 O318 2.099 1_545 S
Mg312 O329 2.079 . S
O313 Mg310 2.169 1_556 S
O313 Mg312 2.096 1_556 S
O313 C324 1.290 . S
O314 Mg310 2.117 1_556 S
O314 C324 1.250 . S
O315 Mg312 2.079 1_556 S
O315 C325 1.264 1_545 S
O316 Mg312 2.072 1_556 S
O316 C326 1.260 1_545 S
Mg317 O318 2.180 1_556 S
Mg317 O319 2.030 . S
Mg317 O320 1.990 . S
Mg317 O321 2.117 1_556 S
O318 Mg312 2.099 1_565 S
O318 Mg317 2.180 1_554 S
O318 C327 1.279 . S
O319 Mg317 2.030 . S
O319 C325 1.248 . S
O320 Mg317 1.990 . S
O320 C326 1.253 . S
O321 Mg317 2.117 1_554 S
O321 C327 1.250 . S
C322 O328 1.248 . S
C322 O329 1.264 . S
C323 O309 1.253 . S
C323 O311 1.260 . S
C324 O313 1.290 . S
C324 O314 1.250 . S
C325 O315 1.264 1_565 S
C325 O319 1.248 . S
C326 O316 1.260 1_565 S
C326 O320 1.253 . S
C327 O318 1.279 . S
C327 O321 1.250 . S
O328 Mg310 2.030 . S
O328 C322 1.248 . S
O329 Mg312 2.079 . S
O329 C322 1.264 . S
O330 Mg331 1.990 . S
O330 C344 1.253 . S
Mg331 O330 1.990 . S
Mg331 O334 2.180 . S
Mg331 O335 2.117 . S
Mg331 O349 2.030 . S
O332 Mg333 2.072 . S
O332 C344 1.260 . S
Mg333 O332 2.072 . S
Mg333 O334 2.099 . S
Mg333 O336 2.079 . S
Mg333 O337 2.072 . S
Mg333 O339 2.099 . S
Mg333 O350 2.079 . S
O334 Mg331 2.180 . S
O334 Mg333 2.099 . S
O334 C345 1.279 . S
O335 Mg331 2.117 . S
O335 C345 1.250 . S
O336 Mg333 2.079 . S
O336 C346 1.264 . S
O337 Mg333 2.072 . S
O337 C347 1.260 . S
Mg338 O339 2.180 . S
Mg338 O340 2.030 . S
Mg338 O341 1.990 . S
Mg338 O342 2.117 . S
O339 Mg333 2.099 . S
O339 Mg338 2.180 . S
O339 C348 1.279 . S
O340 Mg338 2.030 . S
O340 C346 1.248 . S
O341 Mg338 1.990 . S
O341 C347 1.253 . S
O342 Mg338 2.117 . S
O342 C348 1.250 . S
C343 O349 1.248 . S
C343 O350 1.264 . S
C344 O330 1.253 . S
C344 O332 1.260 . S
C345 O334 1.279 . S
C345 O335 1.250 . S
C346 O336 1.264 . S
C346 O340 1.248 . S
C347 O337 1.260 . S
C347 O341 1.253 . S
C348 O339 1.279 . S
C348 O342 1.250 . S
O349 Mg331 2.030 . S
O349 C343 1.248 . S
O350 Mg333 2.079 . S
O350 C343 1.264 . S
O351 Mg352 1.990 . S
O351 C365 1.253 . S
Mg352 O351 1.990 . S
Mg352 O355 2.180 1_455 S
Mg352 O356 2.117 1_455 S
Mg352 O370 2.030 . S
O353 Mg354 2.072 . S
O353 C365 1.260 . S
Mg354 O353 2.072 . S
Mg354 O355 2.099 1_455 S
Mg354 O357 2.079 1_454 S
Mg354 O358 2.072 1_455 S
Mg354 O360 2.099 1_554 S
Mg354 O371 2.079 . S
O355 Mg352 2.180 1_655 S
O355 Mg354 2.099 1_655 S
O355 C366 1.279 . S
O356 Mg352 2.117 1_655 S
O356 C366 1.250 . S
O357 Mg354 2.079 1_656 S
O357 C367 1.264 . S
O358 Mg354 2.072 1_655 S
O358 C368 1.260 1_554 S
Mg359 O360 2.180 1_655 S
Mg359 O361 2.030 . S
Mg359 O362 1.990 . S
Mg359 O363 2.127 . S
O360 Mg354 2.099 1_556 S
O360 Mg359 2.180 1_455 S
O360 C369 1.279 . S
O361 Mg359 2.030 . S
O361 C367 1.248 . S
O362 Mg359 1.990 . S
O362 C368 1.253 . S
O363 Mg359 2.127 . S
O363 C369 1.241 1_655 S
C364 O370 1.248 . S
C364 O371 1.264 . S
C365 O351 1.253 . S
C365 O353 1.260 . S
C366 O355 1.279 . S
C366 O356 1.250 . S
C367 O357 1.264 . S
C367 O361 1.248 . S
C368 O358 1.260 1_556 S
C368 O362 1.253 . S
C369 O360 1.279 . S
C369 O363 1.241 1_455 S
O370 Mg352 2.030 . S
O370 C364 1.248 . S
O371 Mg354 2.079 . S
O371 C364 1.264 . S
H372 C380 0.929 . S
H373 C382 0.930 . S
H374 C384 0.930 . S
H375 C387 0.929 . S
H376 C390 0.930 . S
H377 C392 0.960 . S
H378 C392 0.960 . S
H379 C392 0.960 . S
C380 H372 0.929 . S
C380 C381 1.377 . S
C380 C382 1.384 . S
C381 C380 1.377 . S
C381 C387 1.390 . S
C382 H373 0.930 . S
C382 C380 1.384 . S
C382 C383 1.372 . S
C383 C382 1.372 . S
C383 C384 1.400 . S
C383 C388 1.490 . S
C384 H374 0.930 . S
C384 C383 1.400 . S
C384 C387 1.386 . S
H385 C401 0.917 1_565 S
H386 C402 0.931 . S
C387 H375 0.929 . S
C387 C381 1.390 . S
C387 C384 1.386 . S
C388 C383 1.490 . S
C388 C390 1.395 . S
C388 C391 1.403 . S
H389 C395 0.930 . S
C390 H376 0.930 . S
C390 C388 1.395 . S
C390 C393 1.403 . S
C391 C388 1.403 . S
C391 C392 1.524 . S
C391 C395 1.400 . S
C392 H377 0.960 . S
C392 H378 0.960 . S
C392 H379 0.960 . S
C392 C391 1.524 . S
C393 C390 1.403 . S
C393 C394 1.392 . S
C393 C397 1.495 . S
C394 C393 1.392 . S
C394 C395 1.385 . S
C394 C396 1.478 . S
C395 H389 0.930 . S
C395 C391 1.400 . S
C395 C394 1.385 . S
C396 C394 1.478 . S
C396 C398 1.381 . S
C396 C402 1.383 . S
C397 C393 1.495 . S
C397 H403 0.959 . S
C397 H404 0.961 . S
C397 H405 0.960 . S
C398 C396 1.381 . S
C398 C399 1.394 . S
C398 H406 0.930 . S
C399 C398 1.394 . S
C399 C400 1.383 . S
C399 H407 0.929 . S
C400 C399 1.383 . S
C400 C401 1.377 . S
C401 H385 0.917 1_545 S
C401 C400 1.377 . S
C401 C402 1.379 . S
C402 H386 0.931 . S
C402 C396 1.383 . S
C402 C401 1.379 . S
H403 C397 0.959 . S
H404 C397 0.961 . S
H405 C397 0.960 . S
H406 C398 0.930 . S
H407 C399 0.929 . S
H408 C416 0.929 . S
H409 C418 0.930 . S
H410 C420 0.930 . S
H411 C423 0.929 . S
H412 C426 0.930 . S
H413 C428 0.960 . S
H414 C428 0.960 . S
H415 C428 0.960 . S
C416 H408 0.929 . S
C416 C417 1.377 . S
C416 C418 1.384 . S
C417 C416 1.377 . S
C417 C423 1.390 . S
C418 H409 0.930 . S
C418 C416 1.384 . S
C418 C419 1.372 . S
C419 C418 1.372 . S
C419 C420 1.400 . S
C419 C424 1.490 . S
C420 H410 0.930 . S
C420 C419 1.400 . S
C420 C423 1.386 . S
H421 C437 0.930 1_545 S
H422 C438 0.931 . S
C423 H411 0.929 . S
C423 C417 1.390 . S
C423 C420 1.386 . S
C424 C419 1.490 . S
C424 C426 1.395 . S
C424 C427 1.403 . S
H425 C431 0.930 . S
C426 H412 0.930 . S
C426 C424 1.395 . S
C426 C429 1.403 . S
C427 C424 1.403 . S
C427 C428 1.524 . S
C427 C431 1.400 . S
C428 H413 0.960 . S
C428 H414 0.960 . S
C428 H415 0.960 . S
C428 C427 1.524 . S
C429 C426 1.403 . S
C429 C430 1.392 . S
C429 C433 1.495 1_565 S
C430 C429 1.392 . S
C430 C431 1.385 . S
C430 C432 1.478 . S
C431 H425 0.930 . S
C431 C427 1.400 . S
C431 C430 1.385 . S
C432 C430 1.478 . S
C432 C434 1.381 . S
C432 C438 1.383 . S
C433 C429 1.495 1_545 S
C433 H439 0.959 . S
C433 H440 0.961 . S
C433 H441 0.960 1_545 S
C434 C432 1.381 . S
C434 C435 1.394 . S
C434 H442 0.930 . S
C435 C434 1.394 . S
C435 C436 1.383 . S
C435 H443 0.929 . S
C436 C435 1.383 . S
C436 C437 1.377 . S
C437 H421 0.930 1_565 S
C437 C436 1.377 . S
C437 C438 1.379 . S
C438 H422 0.931 . S
C438 C432 1.383 . S
C438 C437 1.379 . S
H439 C433 0.959 . S
H440 C433 0.961 . S
H441 C433 0.960 1_565 S
H442 C434 0.930 . S
H443 C435 0.929 . S
H444 C452 0.929 . S
H445 C454 0.930 . S
H446 C456 0.930 . S
H447 C459 0.929 . S
H448 C462 0.930 . S
H449 C464 0.960 . S
H450 C464 0.960 . S
H451 C464 0.960 . S
C452 H444 0.929 . S
C452 C453 1.377 . S
C452 C454 1.384 . S
C453 C452 1.377 . S
C453 C459 1.390 . S
C454 H445 0.930 . S
C454 C452 1.384 . S
C454 C455 1.372 . S
C455 C454 1.372 . S
C455 C456 1.400 . S
C455 C460 1.490 . S
C456 H446 0.930 . S
C456 C455 1.400 . S
C456 C459 1.386 . S
H457 C473 0.930 . S
H458 C474 0.931 . S
C459 H447 0.929 . S
C459 C453 1.390 . S
C459 C456 1.386 . S
C460 C455 1.490 . S
C460 C462 1.395 . S
C460 C463 1.403 . S
H461 C467 0.930 . S
C462 H448 0.930 . S
C462 C460 1.395 . S
C462 C465 1.403 . S
C463 C460 1.403 . S
C463 C464 1.524 . S
C463 C467 1.400 . S
C464 H449 0.960 . S
C464 H450 0.960 . S
C464 H451 0.960 . S
C464 C463 1.524 . S
C465 C462 1.403 . S
C465 C466 1.392 . S
C465 C469 1.495 . S
C466 C465 1.392 . S
C466 C467 1.385 . S
C466 C468 1.478 . S
C467 H461 0.930 . S
C467 C463 1.400 . S
C467 C466 1.385 . S
C468 C466 1.478 . S
C468 C470 1.381 . S
C468 C474 1.383 . S
C469 C465 1.495 . S
C469 H475 0.959 . S
C469 H476 0.961 . S
C469 H477 0.960 . S
C470 C468 1.381 . S
C470 C471 1.394 . S
C470 H478 0.930 . S
C471 C470 1.394 . S
C471 C472 1.383 . S
C471 H479 0.929 . S
C472 C471 1.383 . S
C472 C473 1.377 . S
C473 H457 0.930 . S
C473 C472 1.377 . S
C473 C474 1.379 . S
C474 H458 0.931 . S
C474 C468 1.383 . S
C474 C473 1.379 . S
H475 C469 0.959 . S
H476 C469 0.961 . S
H477 C469 0.960 . S
H478 C470 0.930 . S
H479 C471 0.929 . S
H480 C488 0.929 . S
H481 C490 0.930 . S
H482 C492 0.930 . S
H483 C495 0.929 . S
H484 C498 0.930 . S
H485 C500 0.960 . S
H486 C500 0.960 . S
H487 C500 0.960 . S
C488 H480 0.929 . S
C488 C489 1.377 . S
C488 C490 1.384 . S
C489 C488 1.377 . S
C489 C495 1.390 . S
C490 H481 0.930 . S
C490 C488 1.384 . S
C490 C491 1.372 . S
C491 C490 1.372 . S
C491 C492 1.400 . S
C491 C496 1.490 . S
C492 H482 0.930 . S
C492 C491 1.400 . S
C492 C495 1.386 . S
H493 C509 0.939 . S
H494 C510 0.931 . S
C495 H483 0.929 . S
C495 C489 1.390 . S
C495 C492 1.386 . S
C496 C491 1.490 . S
C496 C498 1.395 . S
C496 C499 1.403 . S
H497 C503 0.930 . S
C498 H484 0.930 . S
C498 C496 1.395 . S
C498 C501 1.403 . S
C499 C496 1.403 . S
C499 C500 1.524 . S
C499 C503 1.400 . S
C500 H485 0.960 . S
C500 H486 0.960 . S
C500 H487 0.960 . S
C500 C499 1.524 . S
C501 C498 1.403 . S
C501 C502 1.392 . S
C501 C505 1.495 . S
C502 C501 1.392 . S
C502 C503 1.385 . S
C502 C504 1.478 . S
C503 H497 0.930 . S
C503 C499 1.400 . S
C503 C502 1.385 . S
C504 C502 1.478 . S
C504 C506 1.381 . S
C504 C510 1.383 . S
C505 C501 1.495 . S
C505 H511 0.959 . S
C505 H512 0.961 . S
C505 H513 0.960 . S
C506 C504 1.381 . S
C506 C507 1.394 . S
C506 H514 0.930 . S
C507 C506 1.394 . S
C507 C508 1.383 . S
C507 H515 0.929 . S
C508 C507 1.383 . S
C508 C509 1.377 . S
C509 H493 0.939 . S
C509 C508 1.377 . S
C509 C510 1.379 . S
C510 H494 0.931 . S
C510 C504 1.383 . S
C510 C509 1.379 . S
H511 C505 0.959 . S
H512 C505 0.961 . S
H513 C505 0.960 . S
H514 C506 0.930 . S
H515 C507 0.929 . S
H516 C524 0.929 . S
H517 C526 0.930 . S
H518 C528 0.930 . S
H519 C531 0.929 . S
H520 C534 0.930 . S
H521 C536 0.960 . S
H522 C536 0.960 . S
H523 C536 0.960 . S
C524 H516 0.929 . S
C524 C525 1.377 . S
C524 C526 1.384 . S
C525 C524 1.377 . S
C525 C531 1.390 . S
C526 H517 0.930 . S
C526 C524 1.384 . S
C526 C527 1.372 . S
C527 C526 1.372 . S
C527 C528 1.400 . S
C527 C532 1.490 . S
C528 H518 0.930 . S
C528 C527 1.400 . S
C528 C531 1.386 . S
H529 C545 0.930 . S
H530 C546 0.931 . S
C531 H519 0.929 . S
C531 C525 1.390 . S
C531 C528 1.386 . S
C532 C527 1.490 . S
C532 C534 1.395 . S
C532 C535 1.403 . S
H533 C539 0.930 . S
C534 H520 0.930 . S
C534 C532 1.395 . S
C534 C537 1.403 . S
C535 C532 1.403 . S
C535 C536 1.524 . S
C535 C539 1.400 . S
C536 H521 0.960 . S
C536 H522 0.960 . S
C536 H523 0.960 . S
C536 C535 1.524 . S
C537 C534 1.403 . S
C537 C538 1.392 . S
C537 C541 1.495 . S
C538 C537 1.392 . S
C538 C539 1.385 . S
C538 C540 1.478 . S
C539 H533 0.930 . S
C539 C535 1.400 . S
C539 C538 1.385 . S
C540 C538 1.478 . S
C540 C542 1.381 . S
C540 C546 1.383 . S
C541 C537 1.495 . S
C541 H547 0.959 . S
C541 H548 0.961 . S
C541 H549 0.960 . S
C542 C540 1.381 . S
C542 C543 1.394 . S
C542 H550 0.930 . S
C543 C542 1.394 . S
C543 C544 1.383 . S
C543 H551 0.929 . S
C544 C543 1.383 . S
C544 C545 1.377 . S
C545 H529 0.930 . S
C545 C544 1.377 . S
C545 C546 1.379 . S
C546 H530 0.931 . S
C546 C540 1.383 . S
C546 C545 1.379 . S
H547 C541 0.959 . S
H548 C541 0.961 . S
H549 C541 0.960 . S
H550 C542 0.930 . S
H551 C543 0.929 . S
H552 C560 0.929 . S
H553 C562 0.930 . S
H554 C564 0.930 . S
H555 C567 0.929 . S
H556 C570 0.930 . S
H557 C572 0.960 . S
H558 C572 0.960 . S
H559 C572 0.960 . S
C560 H552 0.929 . S
C560 C561 1.377 . S
C560 C562 1.384 . S
C561 C560 1.377 . S
C561 C567 1.390 . S
C562 H553 0.930 . S
C562 C560 1.384 . S
C562 C563 1.372 . S
C563 C562 1.372 . S
C563 C564 1.400 . S
C563 C568 1.490 . S
C564 H554 0.930 . S
C564 C563 1.400 . S
C564 C567 1.386 . S
H565 C581 0.930 . S
H566 C582 0.931 . S
C567 H555 0.929 . S
C567 C561 1.390 . S
C567 C564 1.386 . S
C568 C563 1.490 . S
C568 C570 1.395 . S
C568 C571 1.403 . S
H569 C575 0.930 . S
C570 H556 0.930 . S
C570 C568 1.395 . S
C570 C573 1.403 . S
C571 C568 1.403 . S
C571 C572 1.524 . S
C571 C575 1.400 . S
C572 H557 0.960 . S
C572 H558 0.960 . S
C572 H559 0.960 . S
C572 C571 1.524 . S
C573 C570 1.403 . S
C573 C574 1.392 . S
C573 C577 1.495 . S
C574 C573 1.392 . S
C574 C575 1.385 . S
C574 C576 1.478 . S
C575 H569 0.930 . S
C575 C571 1.400 . S
C575 C574 1.385 . S
C576 C574 1.478 . S
C576 C578 1.381 . S
C576 C582 1.383 . S
C577 C573 1.495 . S
C577 H583 0.959 . S
C577 H584 0.961 . S
C577 H585 0.960 . S
C578 C576 1.381 . S
C578 C579 1.394 . S
C578 H586 0.930 . S
C579 C578 1.394 . S
C579 C580 1.383 . S
C579 H587 0.929 . S
C580 C579 1.383 . S
C580 C581 1.377 . S
C581 H565 0.930 . S
C581 C580 1.377 . S
C581 C582 1.379 . S
C582 H566 0.931 . S
C582 C576 1.383 . S
C582 C581 1.379 . S
H583 C577 0.959 . S
H584 C577 0.961 . S
H585 C577 0.960 . S
H586 C578 0.930 . S
H587 C579 0.929 . S
H588 C596 0.929 . S
H589 C598 0.930 . S
H590 C600 0.930 . S
H591 C603 0.929 . S
H592 C606 0.930 . S
H593 C608 0.960 . S
H594 C608 0.960 . S
H595 C608 0.960 . S
C596 H588 0.929 . S
C596 C597 1.377 . S
C596 C598 1.384 . S
C597 C596 1.377 . S
C597 C603 1.390 . S
C598 H589 0.930 . S
C598 C596 1.384 . S
C598 C599 1.372 . S
C599 C598 1.372 . S
C599 C600 1.400 . S
C599 C604 1.490 . S
C600 H590 0.930 . S
C600 C599 1.400 . S
C600 C603 1.386 . S
H601 C617 0.930 . S
H602 C618 0.931 . S
C603 H591 0.929 . S
C603 C597 1.390 . S
C603 C600 1.386 . S
C604 C599 1.490 . S
C604 C606 1.395 . S
C604 C607 1.403 . S
H605 C611 0.930 . S
C606 H592 0.930 . S
C606 C604 1.395 . S
C606 C609 1.403 . S
C607 C604 1.403 . S
C607 C608 1.524 . S
C607 C611 1.400 . S
C608 H593 0.960 . S
C608 H594 0.960 . S
C608 H595 0.960 . S
C608 C607 1.524 . S
C609 C606 1.403 . S
C609 C610 1.392 . S
C609 C613 1.495 1_556 S
C610 C609 1.392 . S
C610 C611 1.385 . S
C610 C612 1.478 . S
C611 H605 0.930 . S
C611 C607 1.400 . S
C611 C610 1.385 . S
C612 C610 1.478 . S
C612 C614 1.381 . S
C612 C618 1.383 . S
C613 C609 1.495 1_554 S
C613 H619 0.959 . S
C613 H620 0.961 . S
C613 H621 0.960 . S
C614 C612 1.381 . S
C614 C615 1.394 . S
C614 H622 0.930 . S
C615 C614 1.394 . S
C615 C616 1.383 . S
C615 H623 0.934 . S
C616 C615 1.383 . S
C616 C617 1.377 . S
C617 H601 0.930 . S
C617 C616 1.377 . S
C617 C618 1.379 . S
C618 H602 0.931 . S
C618 C612 1.383 . S
C618 C617 1.379 . S
H619 C613 0.959 . S
H620 C613 0.961 . S
H621 C613 0.960 . S
H622 C614 0.930 . S
H623 C615 0.934 . S
H624 C632 0.929 . S
H625 C634 0.930 . S
H626 C636 0.930 . S
H627 C639 0.929 . S
H628 C642 0.930 . S
H629 C644 0.960 . S
H630 C644 0.960 . S
H631 C644 0.960 . S
C632 H624 0.929 . S
C632 C633 1.377 . S
C632 C634 1.384 . S
C633 C632 1.377 . S
C633 C639 1.390 . S
C634 H625 0.930 . S
C634 C632 1.384 . S
C634 C635 1.372 . S
C635 C634 1.372 . S
C635 C636 1.400 . S
C635 C640 1.490 . S
C636 H626 0.930 . S
C636 C635 1.400 . S
C636 C639 1.386 . S
H637 C653 0.930 . S
H638 C654 0.931 . S
C639 H627 0.929 . S
C639 C633 1.390 . S
C639 C636 1.386 . S
C640 C635 1.490 . S
C640 C642 1.395 . S
C640 C643 1.403 . S
H641 C647 0.930 . S
C642 H628 0.930 . S
C642 C640 1.395 . S
C642 C645 1.403 . S
C643 C640 1.403 . S
C643 C644 1.524 . S
C643 C647 1.400 . S
C644 H629 0.960 . S
C644 H630 0.960 . S
C644 H631 0.960 . S
C644 C643 1.524 . S
C645 C642 1.403 . S
C645 C646 1.392 . S
C645 C649 1.495 . S
C646 C645 1.392 . S
C646 C647 1.385 . S
C646 C648 1.478 . S
C647 H641 0.930 . S
C647 C643 1.400 . S
C647 C646 1.385 . S
C648 C646 1.478 . S
C648 C650 1.381 . S
C648 C654 1.383 . S
C649 C645 1.495 . S
C649 H655 0.959 . S
C649 H656 0.961 . S
C649 H657 0.960 . S
C650 C648 1.381 . S
C650 C651 1.394 . S
C650 H658 0.930 . S
C651 C650 1.394 . S
C651 C652 1.383 . S
C651 H659 0.929 . S
C652 C651 1.383 . S
C652 C653 1.377 . S
C653 H637 0.930 . S
C653 C652 1.377 . S
C653 C654 1.379 . S
C654 H638 0.931 . S
C654 C648 1.383 . S
C654 C653 1.379 . S
H655 C649 0.959 . S
H656 C649 0.961 . S
H657 C649 0.960 . S
H658 C650 0.930 . S
H659 C651 0.929 . S
H660 C668 0.929 . S
H661 C670 0.930 . S
H662 C672 0.930 . S
H663 C675 0.929 . S
H664 C678 0.930 . S
H665 C680 0.960 . S
H666 C680 0.960 . S
H667 C680 0.960 . S
C668 H660 0.929 . S
C668 C669 1.377 . S
C668 C670 1.384 . S
C669 C668 1.377 . S
C669 C675 1.390 . S
C670 H661 0.930 . S
C670 C668 1.384 . S
C670 C671 1.372 . S
C671 C670 1.372 . S
C671 C672 1.400 . S
C671 C676 1.490 . S
C672 H662 0.930 . S
C672 C671 1.400 . S
C672 C675 1.386 . S
H673 C689 0.944 . S
H674 C690 0.931 . S
C675 H663 0.929 . S
C675 C669 1.390 . S
C675 C672 1.386 . S
C676 C671 1.490 . S
C676 C678 1.395 . S
C676 C679 1.403 . S
H677 C683 0.930 . S
C678 H664 0.930 . S
C678 C676 1.395 . S
C678 C681 1.403 . S
C679 C676 1.403 . S
C679 C680 1.524 . S
C679 C683 1.400 . S
C680 H665 0.960 . S
C680 H666 0.960 . S
C680 H667 0.960 . S
C680 C679 1.524 . S
C681 C678 1.403 . S
C681 C682 1.392 . S
C681 C685 1.495 . S
C682 C681 1.392 . S
C682 C683 1.385 . S
C682 C684 1.478 . S
C683 H677 0.930 . S
C683 C679 1.400 . S
C683 C682 1.385 . S
C684 C682 1.478 . S
C684 C686 1.381 . S
C684 C690 1.383 . S
C685 C681 1.495 . S
C685 H691 0.959 . S
C685 H692 0.961 . S
C685 H693 0.960 . S
C686 C684 1.381 . S
C686 C687 1.394 . S
C686 H694 0.930 . S
C687 C686 1.394 . S
C687 C688 1.383 . S
C687 H695 0.929 . S
C688 C687 1.383 . S
C688 C689 1.377 . S
C689 H673 0.944 . S
C689 C688 1.377 . S
C689 C690 1.379 . S
C690 H674 0.931 . S
C690 C684 1.383 . S
C690 C689 1.379 . S
H691 C685 0.959 . S
H692 C685 0.961 . S
H693 C685 0.960 . S
H694 C686 0.930 . S
H695 C687 0.929 . S
H696 C704 0.929 . S
H697 C706 0.930 . S
H698 C708 0.930 . S
H699 C711 0.929 . S
H700 C714 0.930 . S
H701 C716 0.960 . S
H702 C716 0.960 . S
H703 C716 0.960 . S
C704 H696 0.929 . S
C704 C705 1.377 . S
C704 C706 1.384 . S
C705 C704 1.377 . S
C705 C711 1.390 . S
C706 H697 0.930 . S
C706 C704 1.384 . S
C706 C707 1.372 . S
C707 C706 1.372 . S
C707 C708 1.400 . S
C707 C712 1.490 . S
C708 H698 0.930 . S
C708 C707 1.400 . S
C708 C711 1.386 . S
H709 C725 0.930 . S
H710 C726 0.931 . S
C711 H699 0.929 . S
C711 C705 1.390 . S
C711 C708 1.386 . S
C712 C707 1.490 . S
C712 C714 1.395 . S
C712 C715 1.403 . S
H713 C719 0.930 . S
C714 H700 0.930 . S
C714 C712 1.395 . S
C714 C717 1.403 . S
C715 C712 1.403 . S
C715 C716 1.524 . S
C715 C719 1.400 . S
C716 H701 0.960 . S
C716 H702 0.960 . S
C716 H703 0.960 . S
C716 C715 1.524 . S
C717 C714 1.403 . S
C717 C718 1.392 . S
C717 C721 1.495 . S
C718 C717 1.392 . S
C718 C719 1.385 . S
C718 C720 1.478 . S
C719 H713 0.930 . S
C719 C715 1.400 . S
C719 C718 1.385 . S
C720 C718 1.478 . S
C720 C722 1.381 . S
C720 C726 1.383 . S
C721 C717 1.495 . S
C721 H727 0.959 . S
C721 H728 0.961 . S
C721 H729 0.960 . S
C722 C720 1.381 . S
C722 C723 1.394 . S
C722 H730 0.930 . S
C723 C722 1.394 . S
C723 C724 1.383 . S
C723 H731 0.929 . S
C724 C723 1.383 . S
C724 C725 1.377 . S
C725 H709 0.930 . S
C725 C724 1.377 . S
C725 C726 1.379 . S
C726 H710 0.931 . S
C726 C720 1.383 . S
C726 C725 1.379 . S
H727 C721 0.959 . S
H728 C721 0.961 . S
H729 C721 0.960 . S
H730 C722 0.930 . S
H731 C723 0.929 . S
H732 C740 0.929 . S
H733 C742 0.930 . S
H734 C744 0.930 . S
H735 C747 0.929 . S
H736 C750 0.930 . S
H737 C752 0.960 . S
H738 C752 0.960 . S
H739 C752 0.960 . S
C740 H732 0.929 . S
C740 C741 1.377 . S
C740 C742 1.384 . S
C741 C740 1.377 . S
C741 C747 1.390 . S
C742 H733 0.930 . S
C742 C740 1.384 . S
C742 C743 1.372 . S
C743 C742 1.372 . S
C743 C744 1.400 . S
C743 C748 1.490 . S
C744 H734 0.930 . S
C744 C743 1.400 . S
C744 C747 1.386 . S
H745 C761 0.930 1_455 S
H746 C762 0.931 . S
C747 H735 0.929 . S
C747 C741 1.390 . S
C747 C744 1.386 . S
C748 C743 1.490 . S
C748 C750 1.395 . S
C748 C751 1.403 . S
H749 C755 0.930 . S
C750 H736 0.930 . S
C750 C748 1.395 . S
C750 C753 1.403 . S
C751 C748 1.403 . S
C751 C752 1.524 . S
C751 C755 1.400 . S
C752 H737 0.960 . S
C752 H738 0.960 . S
C752 H739 0.960 . S
C752 C751 1.524 . S
C753 C750 1.403 . S
C753 C754 1.392 . S
C753 C757 1.495 . S
C754 C753 1.392 . S
C754 C755 1.385 . S
C754 C756 1.478 . S
C755 H749 0.930 . S
C755 C751 1.400 . S
C755 C754 1.385 . S
C756 C754 1.478 . S
C756 C758 1.381 . S
C756 C762 1.383 . S
C757 C753 1.495 . S
C757 H763 0.959 . S
C757 H764 0.961 . S
C757 H765 0.960 . S
C758 C756 1.381 . S
C758 C759 1.394 . S
C758 H766 0.930 . S
C759 C758 1.394 . S
C759 C760 1.383 . S
C759 H767 0.929 . S
C760 C759 1.383 . S
C760 C761 1.377 . S
C761 H745 0.930 1_655 S
C761 C760 1.377 . S
C761 C762 1.379 . S
C762 H746 0.931 . S
C762 C756 1.383 . S
C762 C761 1.379 . S
H763 C757 0.959 . S
H764 C757 0.961 . S
H765 C757 0.960 . S
H766 C758 0.930 . S
H767 C759 0.929 . S
H768 C776 0.929 . S
H769 C778 0.930 . S
H770 C780 0.930 . S
H771 C783 0.929 . S
H772 C786 0.930 . S
H773 C788 0.960 . S
H774 C788 0.960 . S
H775 C788 0.960 . S
C776 H768 0.929 . S
C776 C777 1.377 . S
C776 C778 1.384 . S
C777 C776 1.377 . S
C777 C783 1.390 . S
C778 H769 0.930 . S
C778 C776 1.384 . S
C778 C779 1.372 . S
C779 C778 1.372 . S
C779 C780 1.400 . S
C779 C784 1.490 . S
C780 H770 0.930 . S
C780 C779 1.400 . S
C780 C783 1.386 . S
H781 C797 0.930 . S
H782 C798 0.931 . S
C783 H771 0.929 . S
C783 C777 1.390 . S
C783 C780 1.386 . S
C784 C779 1.490 . S
C784 C786 1.395 . S
C784 C787 1.403 . S
H785 C791 0.930 . S
C786 H772 0.930 . S
C786 C784 1.395 . S
C786 C789 1.403 . S
C787 C784 1.403 . S
C787 C788 1.524 . S
C787 C791 1.400 . S
C788 H773 0.960 . S
C788 H774 0.960 . S
C788 H775 0.960 . S
C788 C787 1.524 . S
C789 C786 1.403 . S
C789 C790 1.392 . S
C789 C793 1.495 . S
C790 C789 1.392 . S
C790 C791 1.385 . S
C790 C792 1.478 . S
C791 H785 0.930 . S
C791 C787 1.400 . S
C791 C790 1.385 . S
C792 C790 1.478 . S
C792 C794 1.381 . S
C792 C798 1.383 . S
C793 C789 1.495 . S
C793 H799 0.959 . S
C793 H800 0.961 . S
C793 H801 0.960 . S
C794 C792 1.381 . S
C794 C795 1.394 . S
C794 H802 0.930 . S
C795 C794 1.394 . S
C795 C796 1.383 . S
C795 H803 0.929 . S
C796 C795 1.383 . S
C796 C797 1.377 . S
C797 H781 0.930 . S
C797 C796 1.377 . S
C797 C798 1.379 . S
C798 H782 0.931 . S
C798 C792 1.383 . S
C798 C797 1.379 . S
H799 C793 0.959 . S
H800 C793 0.961 . S
H801 C793 0.960 . S
H802 C794 0.930 . S
H803 C795 0.929 . S
H804 C812 0.929 . S
H805 C814 0.930 . S
H806 C816 0.930 . S
H807 C819 0.929 . S
H808 C822 0.930 . S
H809 C824 0.960 . S
H810 C824 0.960 . S
H811 C824 0.960 . S
C812 H804 0.929 . S
C812 C813 1.377 . S
C812 C814 1.384 . S
C813 C812 1.377 . S
C813 C819 1.390 . S
C814 H805 0.930 . S
C814 C812 1.384 . S
C814 C815 1.372 . S
C815 C814 1.372 . S
C815 C816 1.400 . S
C815 C820 1.490 . S
C816 H806 0.930 . S
C816 C815 1.400 . S
C816 C819 1.386 . S
H817 C833 0.930 . S
H818 C834 0.931 . S
C819 H807 0.929 . S
C819 C813 1.390 . S
C819 C816 1.386 . S
C820 C815 1.490 . S
C820 C822 1.395 . S
C820 C823 1.403 . S
H821 C827 0.930 . S
C822 H808 0.930 . S
C822 C820 1.395 . S
C822 C825 1.403 . S
C823 C820 1.403 . S
C823 C824 1.524 . S
C823 C827 1.400 . S
C824 H809 0.960 . S
C824 H810 0.960 . S
C824 H811 0.960 . S
C824 C823 1.524 . S
C825 C822 1.403 . S
C825 C826 1.392 . S
C825 C829 1.495 . S
C826 C825 1.392 . S
C826 C827 1.385 . S
C826 C828 1.478 . S
C827 H821 0.930 . S
C827 C823 1.400 . S
C827 C826 1.385 . S
C828 C826 1.478 . S
C828 C830 1.381 . S
C828 C834 1.383 . S
C829 C825 1.495 . S
C829 H835 0.959 1_655 S
C829 H836 0.961 1_655 S
C829 H837 0.960 . S
C830 C828 1.381 . S
C830 C831 1.394 . S
C830 H838 0.930 1_565 S
C831 C830 1.394 . S
C831 C832 1.383 . S
C831 H839 0.929 1_565 S
C832 C831 1.383 . S
C832 C833 1.377 . S
C833 H817 0.930 . S
C833 C832 1.377 . S
C833 C834 1.379 . S
C834 H818 0.931 . S
C834 C828 1.383 . S
C834 C833 1.379 . S
H835 C829 0.959 1_455 S
H836 C829 0.961 1_455 S
H837 C829 0.960 . S
H838 C830 0.930 1_545 S
H839 C831 0.929 1_545 S
H840 C848 0.929 . S
H841 C850 0.930 . S
H842 C852 0.930 . S
H843 C855 0.929 . S
H844 C858 0.930 . S
H845 C860 0.960 . S
H846 C860 0.960 . S
H847 C860 0.960 . S
C848 H840 0.929 . S
C848 C849 1.377 . S
C848 C850 1.384 . S
C849 C848 1.377 . S
C849 C855 1.390 . S
C850 H841 0.930 . S
C850 C848 1.384 . S
C850 C851 1.372 . S
C851 C850 1.372 . S
C851 C852 1.400 . S
C851 C856 1.490 . S
C852 H842 0.930 . S
C852 C851 1.400 . S
C852 C855 1.386 . S
H853 C869 0.930 . S
H854 C870 0.931 . S
C855 H843 0.929 . S
C855 C849 1.390 . S
C855 C852 1.386 . S
C856 C851 1.490 . S
C856 C858 1.395 . S
C856 C859 1.403 . S
H857 C863 0.930 . S
C858 H844 0.930 . S
C858 C856 1.395 . S
C858 C861 1.403 . S
C859 C856 1.403 . S
C859 C860 1.524 . S
C859 C863 1.400 . S
C860 H845 0.960 . S
C860 H846 0.960 . S
C860 H847 0.960 . S
C860 C859 1.524 . S
C861 C858 1.403 . S
C861 C862 1.392 . S
C861 C865 1.495 . S
C862 C861 1.392 . S
C862 C863 1.385 . S
C862 C864 1.478 . S
C863 H857 0.930 . S
C863 C859 1.400 . S
C863 C862 1.385 . S
C864 C862 1.478 . S
C864 C866 1.381 . S
C864 C870 1.383 . S
C865 C861 1.495 . S
C865 H871 0.959 . S
C865 H872 0.961 . S
C865 H873 0.960 . S
C866 C864 1.381 . S
C866 C867 1.394 . S
C866 H874 0.930 . S
C867 C866 1.394 . S
C867 C868 1.383 . S
C867 H875 0.963 . S
C868 C867 1.383 . S
C868 C869 1.377 . S
C869 H853 0.930 . S
C869 C868 1.377 . S
C869 C870 1.379 . S
C870 H854 0.931 . S
C870 C864 1.383 . S
C870 C869 1.379 . S
H871 C865 0.959 . S
H872 C865 0.961 . S
H873 C865 0.960 . S
H874 C866 0.930 . S
H875 C867 0.963 . S
H876 C884 0.929 . S
H877 C886 0.930 . S
H878 C888 0.930 . S
H879 C891 0.929 . S
H880 C894 0.930 . S
H881 C896 0.960 . S
H882 C896 0.960 . S
H883 C896 0.960 . S
C884 H876 0.929 . S
C884 C885 1.377 . S
C884 C886 1.384 . S
C885 C884 1.377 . S
C885 C891 1.390 . S
C886 H877 0.930 . S
C886 C884 1.384 . S
C886 C887 1.372 . S
C887 C886 1.372 . S
C887 C888 1.400 . S
C887 C892 1.490 . S
C888 H878 0.930 . S
C888 C887 1.400 . S
C888 C891 1.386 . S
H889 C905 0.930 . S
H890 C906 0.931 . S
C891 H879 0.929 . S
C891 C885 1.390 . S
C891 C888 1.386 . S
C892 C887 1.490 . S
C892 C894 1.395 . S
C892 C895 1.403 . S
H893 C899 0.930 . S
C894 H880 0.930 . S
C894 C892 1.395 . S
C894 C897 1.403 . S
C895 C892 1.403 . S
C895 C896 1.524 . S
C895 C899 1.400 . S
C896 H881 0.960 . S
C896 H882 0.960 . S
C896 H883 0.960 . S
C896 C895 1.524 . S
C897 C894 1.403 . S
C897 C898 1.392 . S
C897 C901 1.495 . S
C898 C897 1.392 . S
C898 C899 1.385 . S
C898 C900 1.478 . S
C899 H893 0.930 . S
C899 C895 1.400 . S
C899 C898 1.385 . S
C900 C898 1.478 . S
C900 C902 1.381 . S
C900 C906 1.383 . S
C901 C897 1.495 . S
C901 H907 0.959 . S
C901 H908 0.961 . S
C901 H909 0.960 . S
C902 C900 1.381 . S
C902 C903 1.394 . S
C902 H910 0.930 . S
C903 C902 1.394 . S
C903 C904 1.383 . S
C903 H911 0.929 . S
C904 C903 1.383 . S
C904 C905 1.377 . S
C905 H889 0.930 . S
C905 C904 1.377 . S
C905 C906 1.379 . S
C906 H890 0.931 . S
C906 C900 1.383 . S
C906 C905 1.379 . S
H907 C901 0.959 . S
H908 C901 0.961 . S
H909 C901 0.960 . S
H910 C902 0.930 . S
H911 C903 0.929 . S
H912 C920 0.929 . S
H913 C922 0.930 . S
H914 C924 0.930 . S
H915 C927 0.929 . S
H916 C930 0.930 . S
H917 C932 0.960 . S
H918 C932 0.960 . S
H919 C932 0.960 . S
C920 H912 0.929 . S
C920 C921 1.377 . S
C920 C922 1.384 . S
C921 C920 1.377 . S
C921 C927 1.390 . S
C922 H913 0.930 . S
C922 C920 1.384 . S
C922 C923 1.372 . S
C923 C922 1.372 . S
C923 C924 1.400 . S
C923 C928 1.490 . S
C924 H914 0.930 . S
C924 C923 1.400 . S
C924 C927 1.386 . S
H925 C941 0.927 . S
H926 C942 0.931 . S
C927 H915 0.929 . S
C927 C921 1.390 . S
C927 C924 1.386 . S
C928 C923 1.490 . S
C928 C930 1.395 . S
C928 C931 1.403 . S
H929 C935 0.930 . S
C930 H916 0.930 . S
C930 C928 1.395 . S
C930 C933 1.403 . S
C931 C928 1.403 . S
C931 C932 1.524 . S
C931 C935 1.400 . S
C932 H917 0.960 . S
C932 H918 0.960 . S
C932 H919 0.960 . S
C932 C931 1.524 . S
C933 C930 1.403 . S
C933 C934 1.392 . S
C933 C937 1.495 . S
C934 C933 1.392 . S
C934 C935 1.385 . S
C934 C936 1.478 . S
C935 H929 0.930 . S
C935 C931 1.400 . S
C935 C934 1.385 . S
C936 C934 1.478 . S
C936 C938 1.381 . S
C936 C942 1.383 . S
C937 C933 1.495 . S
C937 H943 0.959 . S
C937 H944 0.961 . S
C937 H945 0.960 . S
C938 C936 1.381 . S
C938 C939 1.394 . S
C938 H946 0.930 . S
C939 C938 1.394 . S
C939 C940 1.383 . S
C939 H947 0.929 . S
C940 C939 1.383 . S
C940 C941 1.377 . S
C941 H925 0.927 . S
C941 C940 1.377 . S
C941 C942 1.379 . S
C942 H926 0.931 . S
C942 C936 1.383 . S
C942 C941 1.379 . S
H943 C937 0.959 . S
H944 C937 0.961 . S
H945 C937 0.960 . S
H946 C938 0.930 . S
H947 C939 0.929 . S
H948 C956 0.929 . S
H949 C958 0.930 . S
H950 C960 0.930 . S
H951 C963 0.929 . S
H952 C966 0.930 . S
H953 C968 0.960 1_545 S
H954 C968 0.960 . S
H955 C968 0.960 . S
C956 H948 0.929 . S
C956 C957 1.377 . S
C956 C958 1.384 . S
C957 C956 1.377 . S
C957 C963 1.390 . S
C958 H949 0.930 . S
C958 C956 1.384 . S
C958 C959 1.372 . S
C959 C958 1.372 . S
C959 C960 1.400 . S
C959 C964 1.490 . S
C960 H950 0.930 . S
C960 C959 1.400 . S
C960 C963 1.386 . S
H961 C977 0.941 1_554 S
H962 C978 0.931 . S
C963 H951 0.929 . S
C963 C957 1.390 . S
C963 C960 1.386 . S
C964 C959 1.490 . S
C964 C966 1.395 . S
C964 C967 1.403 . S
H965 C971 0.930 . S
C966 H952 0.930 . S
C966 C964 1.395 . S
C966 C969 1.403 . S
C967 C964 1.403 . S
C967 C968 1.524 . S
C967 C971 1.400 . S
C968 H953 0.960 1_565 S
C968 H954 0.960 . S
C968 H955 0.960 . S
C968 C967 1.524 . S
C969 C966 1.403 . S
C969 C970 1.392 . S
C969 C973 1.495 . S
C970 C969 1.392 . S
C970 C971 1.385 . S
C970 C972 1.478 . S
C971 H965 0.930 . S
C971 C967 1.400 . S
C971 C970 1.385 . S
C972 C970 1.478 . S
C972 C974 1.381 . S
C972 C978 1.383 . S
C973 C969 1.495 . S
C973 H979 0.959 . S
C973 H980 0.961 . S
C973 H981 0.960 . S
C974 C972 1.381 . S
C974 C975 1.394 . S
C974 H982 0.930 . S
C975 C974 1.394 . S
C975 C976 1.383 . S
C975 H983 0.929 . S
C976 C975 1.383 . S
C976 C977 1.377 . S
C977 H961 0.941 1_556 S
C977 C976 1.377 . S
C977 C978 1.379 . S
C978 H962 0.931 . S
C978 C972 1.383 . S
C978 C977 1.379 . S
H979 C973 0.959 . S
H980 C973 0.961 . S
H981 C973 0.960 . S
H982 C974 0.930 . S
H983 C975 0.929 . S
H984 C992 0.929 . S
H985 C994 0.930 . S
H986 C996 0.930 . S
H987 C999 0.929 . S
H988 C1002 0.930 . S
H989 C1004 0.960 . S
H990 C1004 0.960 . S
H991 C1004 0.960 . S
C992 H984 0.929 . S
C992 C993 1.377 . S
C992 C994 1.384 . S
C993 C992 1.377 . S
C993 C999 1.390 . S
C994 H985 0.930 . S
C994 C992 1.384 . S
C994 C995 1.372 . S
C995 C994 1.372 . S
C995 C996 1.400 . S
C995 C1000 1.490 . S
C996 H986 0.930 . S
C996 C995 1.400 . S
C996 C999 1.386 . S
H997 C1013 0.930 . S
H998 C1014 0.931 . S
C999 H987 0.929 . S
C999 C993 1.390 . S
C999 C996 1.386 . S
C1000 C995 1.490 . S
C1000 C1002 1.395 . S
C1000 C1003 1.403 . S
H1001 C1007 0.930 . S
C1002 H988 0.930 . S
C1002 C1000 1.395 . S
C1002 C1005 1.403 . S
C1003 C1000 1.403 . S
C1003 C1004 1.524 . S
C1003 C1007 1.400 . S
C1004 H989 0.960 . S
C1004 H990 0.960 . S
C1004 H991 0.960 . S
C1004 C1003 1.524 . S
C1005 C1002 1.403 . S
C1005 C1006 1.392 . S
C1005 C1009 1.495 . S
C1006 C1005 1.392 . S
C1006 C1007 1.385 . S
C1006 C1008 1.478 . S
C1007 H1001 0.930 . S
C1007 C1003 1.400 . S
C1007 C1006 1.385 . S
C1008 C1006 1.478 . S
C1008 C1010 1.381 . S
C1008 C1014 1.383 . S
C1009 C1005 1.495 . S
C1009 H1015 0.959 . S
C1009 H1016 0.961 . S
C1009 H1017 0.960 . S
C1010 C1008 1.381 . S
C1010 C1011 1.394 . S
C1010 H1018 0.930 . S
C1011 C1010 1.394 . S
C1011 C1012 1.383 . S
C1011 H1019 0.929 . S
C1012 C1011 1.383 . S
C1012 C1013 1.377 . S
C1013 H997 0.930 . S
C1013 C1012 1.377 . S
C1013 C1014 1.379 . S
C1014 H998 0.931 . S
C1014 C1008 1.383 . S
C1014 C1013 1.379 . S
H1015 C1009 0.959 . S
H1016 C1009 0.961 . S
H1017 C1009 0.960 . S
H1018 C1010 0.930 . S
H1019 C1011 0.929 . S
H1020 C1028 0.929 . S
H1021 C1030 0.930 . S
H1022 C1032 0.930 . S
H1023 C1035 0.929 . S
H1024 C1038 0.930 . S
H1025 C1040 0.960 . S
H1026 C1040 0.960 . S
H1027 C1040 0.960 . S
C1028 H1020 0.929 . S
C1028 C1029 1.377 . S
C1028 C1030 1.384 . S
C1029 C1028 1.377 . S
C1029 C1035 1.390 . S
C1030 H1021 0.930 . S
C1030 C1028 1.384 . S
C1030 C1031 1.372 . S
C1031 C1030 1.372 . S
C1031 C1032 1.400 . S
C1031 C1036 1.490 . S
C1032 H1022 0.930 . S
C1032 C1031 1.400 . S
C1032 C1035 1.386 . S
H1033 C1049 0.930 . S
H1034 C1050 0.931 . S
C1035 H1023 0.929 . S
C1035 C1029 1.390 . S
C1035 C1032 1.386 . S
C1036 C1031 1.490 . S
C1036 C1038 1.395 . S
C1036 C1039 1.403 . S
H1037 C1043 0.930 . S
C1038 H1024 0.930 . S
C1038 C1036 1.395 . S
C1038 C1041 1.403 . S
C1039 C1036 1.403 . S
C1039 C1040 1.524 . S
C1039 C1043 1.400 . S
C1040 H1025 0.960 . S
C1040 H1026 0.960 . S
C1040 H1027 0.960 . S
C1040 C1039 1.524 . S
C1041 C1038 1.403 . S
C1041 C1042 1.392 . S
C1041 C1045 1.495 . S
C1042 C1041 1.392 . S
C1042 C1043 1.385 . S
C1042 C1044 1.478 . S
C1043 H1037 0.930 . S
C1043 C1039 1.400 . S
C1043 C1042 1.385 . S
C1044 C1042 1.478 . S
C1044 C1046 1.381 . S
C1044 C1050 1.383 . S
C1045 C1041 1.495 . S
C1045 H1051 0.959 . S
C1045 H1052 0.961 . S
C1045 H1053 0.960 . S
C1046 C1044 1.381 . S
C1046 C1047 1.394 . S
C1046 H1054 0.930 . S
C1047 C1046 1.394 . S
C1047 C1048 1.383 . S
C1047 H1055 0.929 . S
C1048 C1047 1.383 . S
C1048 C1049 1.377 . S
C1049 H1033 0.930 . S
C1049 C1048 1.377 . S
C1049 C1050 1.379 . S
C1050 H1034 0.931 . S
C1050 C1044 1.383 . S
C1050 C1049 1.379 . S
H1051 C1045 0.959 . S
H1052 C1045 0.961 . S
H1053 C1045 0.960 . S
H1054 C1046 0.930 . S
H1055 C1047 0.929 . S
H1056 C1064 0.929 . S
H1057 C1066 0.930 . S
H1058 C1068 0.930 . S
H1059 C1071 0.929 . S
H1060 C1074 0.930 . S
H1061 C1076 0.960 . S
H1062 C1076 0.960 . S
H1063 C1076 0.960 . S
C1064 H1056 0.929 . S
C1064 C1065 1.377 . S
C1064 C1066 1.384 . S
C1065 C1064 1.377 . S
C1065 C1071 1.390 . S
C1066 H1057 0.930 . S
C1066 C1064 1.384 . S
C1066 C1067 1.372 . S
C1067 C1066 1.372 . S
C1067 C1068 1.400 . S
C1067 C1072 1.490 . S
C1068 H1058 0.930 . S
C1068 C1067 1.400 . S
C1068 C1071 1.386 . S
H1069 C1085 0.930 . S
H1070 C1086 0.931 . S
C1071 H1059 0.929 . S
C1071 C1065 1.390 . S
C1071 C1068 1.386 . S
C1072 C1067 1.490 . S
C1072 C1074 1.395 . S
C1072 C1075 1.403 . S
H1073 C1079 0.930 . S
C1074 H1060 0.930 . S
C1074 C1072 1.395 . S
C1074 C1077 1.403 . S
C1075 C1072 1.403 . S
C1075 C1076 1.524 . S
C1075 C1079 1.400 . S
C1076 H1061 0.960 . S
C1076 H1062 0.960 . S
C1076 H1063 0.960 . S
C1076 C1075 1.524 . S
C1077 C1074 1.403 . S
C1077 C1078 1.392 . S
C1077 C1081 1.495 . S
C1078 C1077 1.392 . S
C1078 C1079 1.385 . S
C1078 C1080 1.478 . S
C1079 H1073 0.930 . S
C1079 C1075 1.400 . S
C1079 C1078 1.385 . S
C1080 C1078 1.478 . S
C1080 C1082 1.381 . S
C1080 C1086 1.383 . S
C1081 C1077 1.495 . S
C1081 H1087 0.959 . S
C1081 H1088 0.961 . S
C1081 H1089 0.960 . S
C1082 C1080 1.381 . S
C1082 C1083 1.394 . S
C1082 H1090 0.930 . S
C1083 C1082 1.394 . S
C1083 C1084 1.383 . S
C1083 H1091 0.929 . S
C1084 C1083 1.383 . S
C1084 C1085 1.377 . S
C1085 H1069 0.930 . S
C1085 C1084 1.377 . S
C1085 C1086 1.379 . S
C1086 H1070 0.931 . S
C1086 C1080 1.383 . S
C1086 C1085 1.379 . S
H1087 C1081 0.959 . S
H1088 C1081 0.961 . S
H1089 C1081 0.960 . S
H1090 C1082 0.930 . S
H1091 C1083 0.929 . S
H1092 C1100 0.929 . S
H1093 C1102 0.930 . S
H1094 C1104 0.930 . S
H1095 C1107 0.929 . S
H1096 C1110 0.930 . S
H1097 C1112 0.960 . S
H1098 C1112 0.960 . S
H1099 C1112 0.960 . S
C1100 H1092 0.929 . S
C1100 C1101 1.377 . S
C1100 C1102 1.384 . S
C1101 C1100 1.377 . S
C1101 C1107 1.390 . S
C1102 H1093 0.930 . S
C1102 C1100 1.384 . S
C1102 C1103 1.372 . S
C1103 C1102 1.372 . S
C1103 C1104 1.400 . S
C1103 C1108 1.490 . S
C1104 H1094 0.930 . S
C1104 C1103 1.400 . S
C1104 C1107 1.386 . S
H1105 C1121 0.930 . S
H1106 C1122 0.931 . S
C1107 H1095 0.929 . S
C1107 C1101 1.390 . S
C1107 C1104 1.386 . S
C1108 C1103 1.490 . S
C1108 C1110 1.395 . S
C1108 C1111 1.403 . S
H1109 C1115 0.930 . S
C1110 H1096 0.930 . S
C1110 C1108 1.395 . S
C1110 C1113 1.403 . S
C1111 C1108 1.403 . S
C1111 C1112 1.524 . S
C1111 C1115 1.400 . S
C1112 H1097 0.960 . S
C1112 H1098 0.960 . S
C1112 H1099 0.960 . S
C1112 C1111 1.524 . S
C1113 C1110 1.403 . S
C1113 C1114 1.392 . S
C1113 C1117 1.495 . S
C1114 C1113 1.392 . S
C1114 C1115 1.385 . S
C1114 C1116 1.478 . S
C1115 H1109 0.930 . S
C1115 C1111 1.400 . S
C1115 C1114 1.385 . S
C1116 C1114 1.478 . S
C1116 C1118 1.381 . S
C1116 C1122 1.383 . S
C1117 C1113 1.495 . S
C1117 H1123 0.959 . S
C1117 H1124 0.961 1_556 S
C1117 H1125 0.953 1_655 S
C1118 C1116 1.381 . S
C1118 C1119 1.394 . S
C1118 H1126 0.930 . S
C1119 C1118 1.394 . S
C1119 C1120 1.383 . S
C1119 H1127 0.929 1_655 S
C1120 C1119 1.383 . S
C1120 C1121 1.377 . S
C1121 H1105 0.930 . S
C1121 C1120 1.377 . S
C1121 C1122 1.379 . S
C1122 H1106 0.931 . S
C1122 C1116 1.383 . S
C1122 C1121 1.379 . S
H1123 C1117 0.959 . S
H1124 C1117 0.961 1_554 S
H1125 C1117 0.953 1_455 S
H1126 C1118 0.930 . S
H1127 C1119 0.929 1_455 S
H1128 C1136 0.929 . S
H1129 C1138 0.930 . S
H1130 C1140 0.930 . S
H1131 C1143 0.929 . S
H1132 C1146 0.930 . S
H1133 C1148 0.960 . S
H1134 C1148 0.960 . S
H1135 C1148 0.960 . S
C1136 H1128 0.929 . S
C1136 C1137 1.377 . S
C1136 C1138 1.384 . S
C1137 C1136 1.377 . S
C1137 C1143 1.390 . S
C1138 H1129 0.930 . S
C1138 C1136 1.384 . S
C1138 C1139 1.372 . S
C1139 C1138 1.372 . S
C1139 C1140 1.400 . S
C1139 C1144 1.490 . S
C1140 H1130 0.930 . S
C1140 C1139 1.400 . S
C1140 C1143 1.386 . S
H1141 C1157 0.930 . S
H1142 C1158 0.931 . S
C1143 H1131 0.929 . S
C1143 C1137 1.390 . S
C1143 C1140 1.386 . S
C1144 C1139 1.490 . S
C1144 C1146 1.395 . S
C1144 C1147 1.403 . S
H1145 C1151 0.930 . S
C1146 H1132 0.930 . S
C1146 C1144 1.395 . S
C1146 C1149 1.403 . S
C1147 C1144 1.403 . S
C1147 C1148 1.524 . S
C1147 C1151 1.400 . S
C1148 H1133 0.960 . S
C1148 H1134 0.960 . S
C1148 H1135 0.960 . S
C1148 C1147 1.524 . S
C1149 C1146 1.403 . S
C1149 C1150 1.392 . S
C1149 C1153 1.495 . S
C1150 C1149 1.392 . S
C1150 C1151 1.385 . S
C1150 C1152 1.478 . S
C1151 H1145 0.930 . S
C1151 C1147 1.400 . S
C1151 C1150 1.385 . S
C1152 C1150 1.478 . S
C1152 C1154 1.381 . S
C1152 C1158 1.383 . S
C1153 C1149 1.495 . S
C1153 H1159 0.959 . S
C1153 H1160 0.961 . S
C1153 H1161 0.960 . S
C1154 C1152 1.381 . S
C1154 C1155 1.394 . S
C1154 H1162 0.930 . S
C1155 C1154 1.394 . S
C1155 C1156 1.383 . S
C1155 H1163 0.929 . S
C1156 C1155 1.383 . S
C1156 C1157 1.377 . S
C1157 H1141 0.930 . S
C1157 C1156 1.377 . S
C1157 C1158 1.379 . S
C1158 H1142 0.931 . S
C1158 C1152 1.383 . S
C1158 C1157 1.379 . S
H1159 C1153 0.959 . S
H1160 C1153 0.961 . S
H1161 C1153 0.960 . S
H1162 C1154 0.930 . S
H1163 C1155 0.929 . S
H1164 C1172 0.929 . S
H1165 C1174 0.930 . S
H1166 C1176 0.930 . S
H1167 C1179 0.929 . S
H1168 C1182 0.930 . S
H1169 C1184 0.960 . S
H1170 C1184 0.960 . S
H1171 C1184 0.960 . S
C1172 H1164 0.929 . S
C1172 C1173 1.377 . S
C1172 C1174 1.384 . S
C1173 C1172 1.377 . S
C1173 C1179 1.390 . S
C1174 H1165 0.930 . S
C1174 C1172 1.384 . S
C1174 C1175 1.372 . S
C1175 C1174 1.372 . S
C1175 C1176 1.400 . S
C1175 C1180 1.490 . S
C1176 H1166 0.930 . S
C1176 C1175 1.400 . S
C1176 C1179 1.386 . S
H1177 C1193 0.930 . S
H1178 C1194 0.931 . S
C1179 H1167 0.929 . S
C1179 C1173 1.390 . S
C1179 C1176 1.386 . S
C1180 C1175 1.490 . S
C1180 C1182 1.395 . S
C1180 C1183 1.403 . S
H1181 C1187 0.930 . S
C1182 H1168 0.930 . S
C1182 C1180 1.395 . S
C1182 C1185 1.403 . S
C1183 C1180 1.403 . S
C1183 C1184 1.524 . S
C1183 C1187 1.400 . S
C1184 H1169 0.960 . S
C1184 H1170 0.960 . S
C1184 H1171 0.960 . S
C1184 C1183 1.524 . S
C1185 C1182 1.403 . S
C1185 C1186 1.392 . S
C1185 C1189 1.495 1_455 S
C1186 C1185 1.392 . S
C1186 C1187 1.385 . S
C1186 C1188 1.478 . S
C1187 H1181 0.930 . S
C1187 C1183 1.400 . S
C1187 C1186 1.385 . S
C1188 C1186 1.478 . S
C1188 C1190 1.381 . S
C1188 C1194 1.383 . S
C1189 C1185 1.495 1_655 S
C1189 H1195 0.959 . S
C1189 H1196 0.961 . S
C1189 H1197 0.960 . S
C1190 C1188 1.381 . S
C1190 C1191 1.394 . S
C1190 H1198 0.930 . S
C1191 C1190 1.394 . S
C1191 C1192 1.383 . S
C1191 H1199 0.929 1_455 S
C1192 C1191 1.383 . S
C1192 C1193 1.377 . S
C1193 H1177 0.930 . S
C1193 C1192 1.377 . S
C1193 C1194 1.379 . S
C1194 H1178 0.931 . S
C1194 C1188 1.383 . S
C1194 C1193 1.379 . S
H1195 C1189 0.959 . S
H1196 C1189 0.961 . S
H1197 C1189 0.960 . S
H1198 C1190 0.930 . S
H1199 C1191 0.929 1_655 S
H1200 C1208 0.929 . S
H1201 C1210 0.930 . S
H1202 C1212 0.930 . S
H1203 C1215 0.929 . S
H1204 C1218 0.930 . S
H1205 C1220 0.960 . S
H1206 C1220 0.960 . S
H1207 C1220 0.960 . S
C1208 H1200 0.929 . S
C1208 C1209 1.377 . S
C1208 C1210 1.384 . S
C1209 C1208 1.377 . S
C1209 C1215 1.390 . S
C1210 H1201 0.930 . S
C1210 C1208 1.384 . S
C1210 C1211 1.372 . S
C1211 C1210 1.372 . S
C1211 C1212 1.400 . S
C1211 C1216 1.490 . S
C1212 H1202 0.930 . S
C1212 C1211 1.400 . S
C1212 C1215 1.386 . S
H1213 C1229 0.930 . S
H1214 C1230 0.931 . S
C1215 H1203 0.929 . S
C1215 C1209 1.390 . S
C1215 C1212 1.386 . S
C1216 C1211 1.490 . S
C1216 C1218 1.395 . S
C1216 C1219 1.403 . S
H1217 C1223 0.930 . S
C1218 H1204 0.930 . S
C1218 C1216 1.395 . S
C1218 C1221 1.403 . S
C1219 C1216 1.403 . S
C1219 C1220 1.524 . S
C1219 C1223 1.400 . S
C1220 H1205 0.960 . S
C1220 H1206 0.960 . S
C1220 H1207 0.960 . S
C1220 C1219 1.524 . S
C1221 C1218 1.403 . S
C1221 C1222 1.392 . S
C1221 C1225 1.495 . S
C1222 C1221 1.392 . S
C1222 C1223 1.385 . S
C1222 C1224 1.478 . S
C1223 H1217 0.930 . S
C1223 C1219 1.400 . S
C1223 C1222 1.385 . S
C1224 C1222 1.478 . S
C1224 C1226 1.381 . S
C1224 C1230 1.383 . S
C1225 C1221 1.495 . S
C1225 H1231 0.959 . S
C1225 H1232 0.961 . S
C1225 H1233 0.960 . S
C1226 C1224 1.381 . S
C1226 C1227 1.394 . S
C1226 H1234 0.930 . S
C1227 C1226 1.394 . S
C1227 C1228 1.383 . S
C1227 H1235 0.929 . S
C1228 C1227 1.383 . S
C1228 C1229 1.377 . S
C1229 H1213 0.930 . S
C1229 C1228 1.377 . S
C1229 C1230 1.379 . S
C1230 H1214 0.931 . S
C1230 C1224 1.383 . S
C1230 C1229 1.379 . S
H1231 C1225 0.959 . S
H1232 C1225 0.961 . S
H1233 C1225 0.960 . S
H1234 C1226 0.930 . S
H1235 C1227 0.929 . S
C381 C1 1.627 . S
C400 C304 1.583 . S
C417 C67 1.481 . S
C436 C326 1.462 . S
C472 C345 1.212 . S
C453 C97 1.388 . S
C489 C133 1.875 . S
C508 C366 1.573 . S
C544 C323 1.832 . S
C525 C25 1.856 . S
C580 C301 1.669 . S
C561 C37 1.728 . S
C616 C368 1.287 . S
C597 C103 1.304 . S
C652 C347 1.432 . S
C633 C109 1.465 . S
C669 C31 1.790 . S
C688 C365 1.759 . S
C724 C324 1.324 . S
C705 C73 1.587 . S
C741 C139 1.710 . S
C760 C306 1.546 . S
C777 C61 1.489 . S
C796 C344 1.465 . S
C832 C302 1.580 . S
C813 C175 1.676 . S
C849 C181 1.265 . S
C868 C322 1.250 . S
C885 C247 1.508 . S
C904 C348 1.321 . S
C921 C277 1.764 . S
C940 C369 1.441 . S
C957 C145 1.808 . S
C976 C325 1.742 . S
C1012 C305 1.776 . S
C993 C211 1.822 . S
C1048 C364 1.164 . S
C1029 C217 1.175 . S
C1084 C343 1.518 . S
C1065 C283 1.591 . S
C1101 C169 1.581 . S
C1120 C367 1.553 . S
C1156 C327 1.245 . S
C1137 C241 1.495 . S
C1192 C303 1.331 . S
C1173 C253 1.468 . S
C1209 C205 1.431 . S
C1228 C346 1.390 . S
