# Generated by pormake.
# Topology pts, (4,4)-cn, num edge types: 1
# Building blocks:
#     Node 0, Type 0, BuildingBlock: MIFKUJ_clean_linker_1, # of connection points: 4
#     Node 1, Type 0, BuildingBlock: MIFKUJ_clean_linker_1, # of connection points: 4
#     Node 2, Type 1, BuildingBlock: QUQFOY_clean_sbu_1, # of connection points: 4
#     Node 3, Type 1, BuildingBlock: QUQFOY_clean_sbu_1, # of connection points: 4
#     Edge 4, Type (0, 1), BuildingBlock: ZUJKAS_clean_linker_0, # of connection points: 2
#     Edge 5, Type (0, 1), BuildingBlock: ZUJKAS_clean_linker_0, # of connection points: 2
#     Edge 6, Type (0, 1), BuildingBlock: ZUJKAS_clean_linker_0, # of connection points: 2
#     Edge 7, Type (0, 1), BuildingBlock: ZUJKAS_clean_linker_0, # of connection points: 2
#     Edge 8, Type (0, 1), BuildingBlock: ZUJKAS_clean_linker_0, # of connection points: 2
#     Edge 9, Type (0, 1), BuildingBlock: ZUJKAS_clean_linker_0, # of connection points: 2
#     Edge 10, Type (0, 1), BuildingBlock: ZUJKAS_clean_linker_0, # of connection points: 2
#     Edge 11, Type (0, 1), BuildingBlock: ZUJKAS_clean_linker_0, # of connection points: 2
# Relax obj value: 0.096
# Max RMSD: 0.260
# Mean RMSD: 0.154
data_MOF--net-pts--node1-QUQFOY_clean_sbu_1--node2-MIFKUJ_clean_linker_1--edge1-ZUJKAS_clean_linker_0
_symmetry_space_group_name_H-M    P1
_symmetry_Int_Tables_number       1
_symmetry_cell_setting            triclinic
loop_
_symmetry_equiv_pos_as_xyz
'x, y, z'
_cell_length_a     35.332093
_cell_length_b     38.814953
_cell_length_c     54.892022
_cell_angle_alpha  90.034832
_cell_angle_beta   90.003158
_cell_angle_gamma 89.996343
loop_
_atom_site_label
_atom_site_type_symbol
_atom_site_fract_x
_atom_site_fract_y
_atom_site_fract_z
_atom_type_partial_charge
H0 H 0.55386 0.95095 0.0458 0.0
H1 H 0.60873 0.95107 0.07277 0.0
H2 H 0.64604 0.04713 0.041 0.0
H3 H 0.5902 0.0475 0.01469 0.0
H4 H 0.49801 0.99559 0.04572 0.0
H5 H 0.58927 0.95731 0.98684 0.0
H6 H 0.64495 0.95685 0.96037 0.0
H7 H 0.60917 0.0535 0.92875 0.0
H8 H 0.55453 0.05445 0.95588 0.0
H9 H 0.44192 0.05576 0.95625 0.0
H10 H 0.38695 0.05583 0.92933 0.0
H11 H 0.34991 0.9594 0.96067 0.0
H12 H 0.40579 0.9589 0.98697 0.0
H13 H 0.49785 0.01091 0.95612 0.0
H14 H 0.40666 0.04924 0.0148 0.0
H15 H 0.35084 0.04986 0.04112 0.0
H16 H 0.38643 0.95341 0.07314 0.0
H17 H 0.4412 0.95227 0.04612 0.0
C18 C 0.56798 0.99912 0.02814 0.0
C19 C 0.574 0.97193 0.04453 0.0
C20 C 0.60556 0.9719 0.05982 0.0
C21 C 0.63179 0.99913 0.05906 0.0
C22 C 0.62616 0.02596 0.04222 0.0
C23 C 0.59448 0.02601 0.02696 0.0
C24 C 0.53261 1.00046 0.01363 0.0
C25 C 0.49796 0.99837 0.02605 0.0
C26 C 0.53257 0.00529 0.9881 0.0
C27 C 0.56786 0.00605 0.97347 0.0
C28 C 0.59387 0.97874 0.97456 0.0
C29 C 0.62544 0.97831 0.95921 0.0
C30 C 0.63146 0.00508 0.94237 0.0
C31 C 0.60572 0.0327 0.9417 0.0
C32 C 0.57427 0.03315 0.95708 0.0
C33 C 0.4279 0.00742 0.9737 0.0
C34 C 0.42181 0.03474 0.95743 0.0
C35 C 0.39021 0.03487 0.94218 0.0
C36 C 0.36404 0.0076 0.94284 0.0
C37 C 0.36975 0.98061 0.95954 0.0
C38 C 0.40145 0.98048 0.97478 0.0
C39 C 0.46326 0.00602 0.98821 0.0
C40 C 0.4979 0.00811 0.97579 0.0
C41 C 0.46329 0.0012 0.01374 0.0
C42 C 0.42797 1.00056 0.02835 0.0
C43 C 0.40199 0.02788 0.02713 0.0
C44 C 0.37033 0.0284 0.0424 0.0
C45 C 0.36421 0.00174 0.05931 0.0
C46 C 0.38995 0.97413 0.06013 0.0
C47 C 0.42148 0.97357 0.04482 0.0
H48 H 0.05231 0.45079 0.45427 0.0
H49 H 0.05178 0.39656 0.43145 0.0
H50 H 0.94662 0.36827 0.46625 0.0
H51 H 0.94714 0.42273 0.48886 0.0
H52 H 0.00053 0.50462 0.45558 0.0
H53 H 0.05235 0.41989 0.50909 0.0
H54 H 0.05275 0.36516 0.53075 0.0
H55 H 0.95645 0.39862 0.57329 0.0
H56 H 0.95463 0.45233 0.55026 0.0
H57 H 0.95336 0.55587 0.54997 0.0
H58 H 0.9546 0.60958 0.57331 0.0
H59 H 0.05378 0.64218 0.53349 0.0
H60 H 0.0527 0.58826 0.51041 0.0
H61 H 0.00207 0.50401 0.54597 0.0
H62 H 0.94884 0.58791 0.4916 0.0
H63 H 0.94702 0.6419 0.46865 0.0
H64 H 0.04696 0.61074 0.429 0.0
H65 H 0.04885 0.55695 0.45214 0.0
C66 C -0.00011 0.44066 0.47334 0.0
C67 C 0.02905 0.43297 0.45687 0.0
C68 C 0.02889 0.40188 0.44403 0.0
C69 C -0.00072 0.37809 0.4472 0.0
C70 C 0.9697 0.38616 0.46336 0.0
C71 C 0.97004 0.41716 0.47635 0.0
C72 C 0.00118 0.47296 0.48776 0.0
C73 C 0.00128 0.50454 0.47534 0.0
C74 C 0.00144 0.47269 0.51355 0.0
C75 C 0.00297 0.44003 0.52767 0.0
C76 C 0.03094 0.41524 0.52282 0.0
C77 C 0.03145 0.38405 0.53551 0.0
C78 C 0.00452 0.37722 0.55378 0.0
C79 C 0.97714 0.40254 0.55901 0.0
C80 C 0.97633 0.43353 0.54606 0.0
C81 C 0.00268 0.56816 0.52825 0.0
C82 C 0.97551 0.57449 0.54637 0.0
C83 C 0.97625 0.60518 0.55969 0.0
C84 C 0.00418 0.63017 0.55514 0.0
C85 C 0.03156 0.62367 0.53713 0.0
C86 C 0.03099 0.59284 0.52396 0.0
C87 C 0.00125 0.5358 0.5138 0.0
C88 C 0.00118 0.50415 0.52621 0.0
C89 C 0.00093 0.53599 0.48799 0.0
C90 C -0.00077 0.56851 0.47378 0.0
C91 C 0.97055 0.59284 0.47811 0.0
C92 C 0.96956 0.6237 0.46502 0.0
C93 C 0.99691 0.63062 0.44707 0.0
C94 C 0.02529 0.60602 0.44255 0.0
C95 C 0.02642 0.57528 0.45576 0.0
O96 O 0.94894 0.9743 0.24044 0.0
Cd97 Cd -0.00146 0.96791 0.25967 0.0
Cd98 Cd 0.99724 0.03949 0.25977 0.0
O99 O 0.94731 0.03109 0.24119 0.0
O100 O -0.00037 0.9178 0.26714 0.0
O101 O 0.9977 0.95781 0.29576 0.0
C102 C -0.00136 0.92555 0.28995 0.0
C103 C 0.99651 0.08247 0.28965 0.0
C104 C 0.93291 0.00249 0.23479 0.0
C105 C 0.06301 0.00474 0.23491 0.0
O106 O 0.04713 0.03294 0.24075 0.0
O107 O 0.04843 0.97613 0.24109 0.0
O108 O 0.99567 0.08975 0.26677 0.0
O109 O 0.99785 0.05036 0.29577 0.0
O110 O 0.94718 0.03191 0.76038 0.0
Cd111 Cd 0.99727 0.04016 0.74208 0.0
Cd112 Cd -0.00147 0.96864 0.74186 0.0
O113 O 0.94838 0.97511 0.7606 0.0
O114 O 0.99576 0.0903 0.73469 0.0
O115 O -0.0009 0.0504 0.70603 0.0
C116 C 0.9975 0.08261 0.71189 0.0
C117 C -0.00031 0.92597 0.71176 0.0
C118 C 0.9325 0.0033 0.76646 0.0
C119 C 0.06247 0.00546 0.76736 0.0
O120 O 0.04814 0.97687 0.76084 0.0
O121 O 0.04657 0.03368 0.76163 0.0
O122 O -0.00052 0.91844 0.7346 0.0
O123 O -0.00078 0.95816 0.7058 0.0
H124 H 0.31859 0.94887 0.07461 0.0
H125 H 0.26853 0.95107 0.10537 0.0
H126 H 0.28704 0.06012 0.11431 0.0
H127 H 0.33764 0.05813 0.08395 0.0
H128 H 0.27755 0.97513 0.15524 0.0
H129 H 0.17091 0.0502 0.10291 0.0
H130 H 0.20977 0.02796 0.08841 0.0
H131 H 0.21786 0.06804 0.1039 0.0
C132 C 0.31208 0.97333 0.08314 0.0
C133 C 0.33212 0.00334 0.07679 0.0
C134 C 0.28339 0.97454 0.10062 0.0
C135 C 0.27396 0.00579 0.11191 0.0
C136 C 0.29353 0.03586 0.10549 0.0
H137 H 0.10341 0.06082 0.21936 0.0
H138 H 0.15696 0.06144 0.19114 0.0
C139 C 0.32234 0.03467 0.08807 0.0
C140 C 0.24449 0.00668 0.13102 0.0
H141 H 0.15672 0.03829 0.1441 0.0
C142 C 0.25108 0.98887 0.15285 0.0
C143 C 0.21021 0.02486 0.12782 0.0
C144 C 0.20144 0.04368 0.10445 0.0
C145 C 0.22429 0.98896 0.17172 0.0
C146 C 0.18969 0.0067 0.1684 0.0
C147 C 0.1833 0.02476 0.14662 0.0
C148 C 0.15919 0.00605 0.18692 0.0
C149 C 0.23359 0.97055 0.19518 0.0
C150 C 0.1428 0.97469 0.19398 0.0
C151 C 0.11237 0.9742 0.21022 0.0
C152 C 0.09739 0.00514 0.21947 0.0
C153 C 0.11424 0.03652 0.21261 0.0
C154 C 0.14481 0.03694 0.19645 0.0
H155 H 0.26463 0.9675 0.1976 0.0
H156 H 0.22204 0.98458 0.21117 0.0
H157 H 0.22084 0.94443 0.19479 0.0
H158 H 0.15287 0.95059 0.18643 0.0
H159 H 0.09993 0.9496 0.21496 0.0
H160 H 0.06644 0.33974 0.56847 0.0
H161 H 0.06733 0.28563 0.59099 0.0
H162 H 0.94537 0.28652 0.59432 0.0
H163 H 0.94405 0.33932 0.57033 0.0
H164 H 0.04518 0.27349 0.63531 0.0
H165 H 0.96244 0.18898 0.57425 0.0
H166 H 0.97957 0.23064 0.56474 0.0
H167 H 0.9364 0.22705 0.58204 0.0
C168 C 0.03971 0.32806 0.57342 0.0
C169 C 0.00515 0.344 0.56742 0.0
C170 C 0.0403 0.29719 0.58651 0.0
C171 C 0.00641 0.28159 0.59402 0.0
C172 C 0.97189 0.29748 0.58819 0.0
H173 H 0.97969 0.15011 0.71841 0.0
H174 H 0.98296 0.19662 0.6887 0.0
C175 C 0.97123 0.32812 0.57483 0.0
C176 C 0.00731 0.25005 0.60937 0.0
H177 H 0.96944 0.16953 0.61564 0.0
C178 C 0.02894 0.25064 0.63082 0.0
C179 C 0.98672 0.2199 0.60337 0.0
C180 C 0.96533 0.21643 0.5797 0.0
C181 C 0.02951 0.2225 0.64683 0.0
C182 C 0.00681 0.19333 0.64169 0.0
C183 C 0.98633 0.19212 0.61979 0.0
C184 C 0.00311 0.16442 0.65922 0.0
C185 C 0.05468 0.22432 0.66902 0.0
C186 C 0.01156 0.13043 0.65224 0.0
C187 C 0.00904 0.10351 0.66917 0.0
C188 C -0.00184 0.11024 0.69335 0.0
C189 C 0.98871 0.14413 0.70003 0.0
C190 C 0.9908 0.17083 0.68309 0.0
H191 H 0.07881 0.24221 0.66609 0.0
H192 H 0.03805 0.23421 0.68468 0.0
H193 H 0.0661 0.19857 0.67386 0.0
H194 H 0.02077 0.12484 0.63384 0.0
H195 H 0.01639 0.07764 0.66348 0.0
H196 H 0.65895 0.05494 0.08403 0.0
H197 H 0.7096 0.05613 0.11436 0.0
H198 H 0.72695 0.94702 0.10479 0.0
H199 H 0.67671 0.94562 0.0741 0.0
H200 H 0.71927 0.96973 0.15452 0.0
H201 H 0.82505 0.04635 0.10273 0.0
H202 H 0.7784 0.06468 0.10431 0.0
H203 H 0.78566 0.02495 0.08819 0.0
C204 C 0.674 0.0313 0.08801 0.0
C205 C 0.66386 1.00019 0.07656 0.0
C206 C 0.70284 0.03203 0.10541 0.0
C207 C 0.72215 0.00172 0.11162 0.0
C208 C 0.71232 0.97067 0.1002 0.0
H209 H 0.89815 0.94662 0.21415 0.0
H210 H 0.84528 0.94664 0.18552 0.0
C211 C 0.68354 0.96992 0.08275 0.0
C212 C 0.75182 0.00221 0.13063 0.0
H213 H 0.83915 0.03457 0.14401 0.0
C214 C 0.74556 0.9838 0.15224 0.0
C215 C 0.7859 0.02077 0.12758 0.0
C216 C 0.79446 0.04012 0.10439 0.0
C217 C 0.77239 0.98378 0.1711 0.0
C218 C 0.80665 0.00211 0.16798 0.0
C219 C 0.8128 0.02063 0.14637 0.0
C220 C 0.83697 0.00186 0.18661 0.0
C221 C 0.76349 0.96471 0.19435 0.0
C222 C 0.8501 0.03294 0.19656 0.0
C223 C 0.88055 0.03308 0.2128 0.0
C224 C 0.89857 0.00209 0.21931 0.0
C225 C 0.88482 0.97092 0.20966 0.0
C226 C 0.85444 0.97085 0.19337 0.0
H227 H 0.73255 0.96064 0.19659 0.0
H228 H 0.77726 0.93903 0.19384 0.0
H229 H 0.77432 0.97885 0.2105 0.0
H230 H 0.83707 0.05718 0.1915 0.0
H231 H 0.89041 0.05755 0.21986 0.0
H232 H 0.01512 0.69577 0.53815 0.0
H233 H 0.01695 0.74935 0.5619 0.0
H234 H 0.99633 0.69173 0.62769 0.0
H235 H 0.99491 0.63815 0.60421 0.0
H236 H 0.95765 0.77628 0.59444 0.0
H237 H 0.09366 0.74991 0.64154 0.0
H238 H 0.07976 0.72803 0.61389 0.0
H239 H 0.05994 0.71528 0.64264 0.0
C240 C 0.01128 0.69453 0.55771 0.0
C241 C 0.00499 0.66274 0.56934 0.0
C242 C 0.01213 0.72513 0.57119 0.0
C243 C 0.00718 0.72437 0.59653 0.0
C244 C 0.00064 0.69276 0.60817 0.0
H245 H 0.99696 0.85686 0.71978 0.0
H246 H -0.00082 0.81057 0.68983 0.0
C247 C -0.00047 0.66223 0.59471 0.0
C248 C 0.00843 0.75656 0.61098 0.0
H249 H 0.05649 0.79599 0.65712 0.0
C250 C 0.97945 0.78091 0.60797 0.0
C251 C 0.03701 0.76242 0.6285 0.0
C252 C 0.06959 0.73772 0.63177 0.0
C253 C 0.9773 0.81029 0.62289 0.0
C254 C 0.00533 0.81564 0.64093 0.0
C255 C 0.03498 0.79179 0.64333 0.0
C256 C 0.00319 0.84443 0.65865 0.0
C257 C 0.9442 0.8345 0.61999 0.0
C258 C 0.00481 0.87897 0.65107 0.0
C259 C 0.00338 0.90568 0.66824 0.0
C260 C 0.00061 0.89821 0.69325 0.0
C261 C -0.00089 0.86357 0.70068 0.0
C262 C 0.00042 0.83702 0.68358 0.0
H263 H 0.92115 0.82293 0.60891 0.0
H264 H 0.93254 0.84193 0.63803 0.0
H265 H 0.95386 0.8583 0.61068 0.0
H266 H 0.00765 0.88525 0.63194 0.0
H267 H 0.00479 0.9321 0.66195 0.0
H268 H 0.31874 0.06113 0.92835 0.0
H269 H 0.26832 0.05998 0.89778 0.0
H270 H 0.28641 0.95115 0.88718 0.0
H271 H 0.33717 0.95209 0.91744 0.0
H272 H 0.27561 0.03865 0.848 0.0
H273 H 0.17117 0.95952 0.89899 0.0
H274 H 0.21056 0.98069 0.91368 0.0
H275 H 0.21791 0.94149 0.89693 0.0
C276 C 0.31201 0.03694 0.91951 0.0
C277 C 0.33191 0.00667 0.92539 0.0
C278 C 0.28314 0.03633 0.90212 0.0
C279 C 0.27345 0.00543 0.89044 0.0
C280 C 0.29302 0.97513 0.89634 0.0
H281 H 0.10547 0.95046 0.7818 0.0
H282 H 0.1588 0.95072 0.81018 0.0
C283 C 0.32194 0.97571 0.91369 0.0
C284 C 0.24367 0.00511 0.8715 0.0
H285 H 0.15676 0.97204 0.85784 0.0
C286 C 0.24954 0.02419 0.85013 0.0
C287 C 0.20988 0.98606 0.87436 0.0
C288 C 0.20169 0.96597 0.89729 0.0
C289 C 0.22262 0.0244 0.83133 0.0
C290 C 0.18865 0.00556 0.83426 0.0
C291 C 0.18289 0.98638 0.85562 0.0
C292 C 0.15825 0.00591 0.81568 0.0
C293 C 0.23113 0.04422 0.80833 0.0
C294 C 0.14038 0.0369 0.80929 0.0
C295 C 0.11003 0.03689 0.79298 0.0
C296 C 0.09667 0.00581 0.78297 0.0
C297 C 0.11502 0.97486 0.78915 0.0
C298 C 0.14547 0.97493 0.8054 0.0
H299 H 0.262 0.04867 0.80608 0.0
H300 H 0.22037 0.03044 0.79201 0.0
H301 H 0.21705 0.06975 0.80925 0.0
H302 H 0.14924 0.06102 0.81742 0.0
H303 H 0.09642 0.06117 0.78875 0.0
H304 H 0.05821 0.33346 0.44059 0.0
H305 H 0.05868 0.28014 0.41674 0.0
H306 H 0.94088 0.295 0.39898 0.0
H307 H 0.94011 0.34809 0.4231 0.0
H308 H 0.95679 0.22779 0.41049 0.0
H309 H 0.06018 0.27754 0.34297 0.0
H310 H 0.07694 0.27855 0.37382 0.0
H311 H 0.03743 0.30501 0.36506 0.0
C312 C 0.03246 0.32539 0.43152 0.0
C313 C -0.00079 0.3451 0.43351 0.0
C314 C 0.03277 0.29496 0.4179 0.0
C315 C 1e-05 0.28393 0.40571 0.0
C316 C 0.96651 0.30308 0.40819 0.0
H317 H 0.98391 0.15063 0.28165 0.0
H318 H 0.98442 0.19742 0.31125 0.0
C319 C 0.96609 0.33337 0.42198 0.0
C320 C 0.00072 0.2529 0.38992 0.0
H321 H 0.04239 0.21912 0.33915 0.0
C322 C 0.97553 0.22581 0.3949 0.0
C323 C 0.02493 0.25057 0.36944 0.0
C324 C 0.05116 0.27957 0.36231 0.0
C325 C 0.97374 0.19652 0.37988 0.0
C326 C -0.00164 0.194 0.35962 0.0
C327 C 0.02375 0.22097 0.35479 0.0
C328 C 0.99677 0.16478 0.34219 0.0
C329 C 0.94467 0.16912 0.38536 0.0
C330 C 0.00351 0.13073 0.34973 0.0
C331 C 0.00291 0.10371 0.33278 0.0
C332 C 0.99607 0.11042 0.308 0.0
C333 C 0.98938 0.14454 0.30059 0.0
C334 C 0.98968 0.17137 0.31749 0.0
H335 H 0.92215 0.17878 0.39774 0.0
H336 H 0.93123 0.1596 0.36835 0.0
H337 H 0.95876 0.14703 0.39441 0.0
H338 H 0.00982 0.12511 0.36861 0.0
H339 H 0.00841 0.07772 0.33902 0.0
H340 H 0.67713 0.05803 0.92737 0.0
H341 H 0.72668 0.05629 0.89631 0.0
H342 H 0.70878 0.94714 0.88723 0.0
H343 H 0.65812 0.94886 0.91752 0.0
H344 H 0.79317 0.01943 0.89497 0.0
H345 H 0.70023 0.98253 0.81766 0.0
H346 H 0.68175 0.99751 0.84643 0.0
H347 H 0.69782 0.95379 0.84322 0.0
C348 C 0.68348 0.0337 0.91861 0.0
C349 C 0.66342 0.00364 0.9248 0.0
C350 C 0.71195 0.03272 0.90098 0.0
C351 C 0.72088 0.00172 0.88914 0.0
C352 C 0.70175 0.97147 0.89576 0.0
H353 H 0.89245 0.94722 0.78245 0.0
H354 H 0.84016 0.9467 0.81173 0.0
C355 C 0.67316 0.97243 0.91334 0.0
C356 C 0.75056 0.0011 0.87009 0.0
H357 H 0.76637 0.98301 0.81001 0.0
C358 C 0.78729 0.01158 0.87638 0.0
C359 C 0.74276 0.99084 0.84584 0.0
C360 C 0.70344 0.98083 0.83776 0.0
C361 C 0.81657 0.01175 0.85913 0.0
C362 C 0.80874 0.00152 0.83493 0.0
C363 C 0.77214 0.99081 0.82862 0.0
C364 C 0.83835 0.00207 0.81591 0.0
C365 C 0.85579 0.02244 0.86695 0.0
C366 C 0.85376 0.03346 0.80813 0.0
C367 C 0.88347 0.03391 0.79136 0.0
C368 C 0.89834 0.00292 0.7821 0.0
C369 C 0.88179 0.97155 0.78929 0.0
C370 C 0.85193 0.97116 0.806 0.0
H371 H 0.85886 0.02259 0.8871 0.0
H372 H 0.87744 0.00491 0.8591 0.0
H373 H 0.86164 0.04884 0.86017 0.0
H374 H 0.84321 0.0576 0.81536 0.0
H375 H 0.89541 0.05854 0.78617 0.0
H376 H 0.98416 0.69606 0.46395 0.0
H377 H 0.98155 0.74954 0.44017 0.0
H378 H 0.00474 0.69216 0.37457 0.0
H379 H 0.00681 0.63868 0.39806 0.0
H380 H 0.04022 0.7779 0.40868 0.0
H381 H 0.90723 0.74818 0.35916 0.0
H382 H 0.92089 0.72623 0.38681 0.0
H383 H 0.94199 0.71442 0.35821 0.0
C384 C 0.98837 0.69484 0.44443 0.0
C385 C 0.99558 0.66315 0.43285 0.0
C386 C 0.98708 0.72539 0.43092 0.0
C387 C 0.99252 0.72467 0.40561 0.0
C388 C -1e-05 0.69316 0.39405 0.0
H389 H 0.00479 0.85653 0.28232 0.0
H390 H 0.00283 0.81047 0.31242 0.0
C391 C 0.00149 0.66268 0.40753 0.0
C392 C 0.99093 0.75681 0.39114 0.0
H393 H 0.94405 0.79479 0.34392 0.0
C394 C 0.01898 0.78191 0.3947 0.0
C395 C 0.96305 0.76189 0.37303 0.0
C396 C 0.93134 0.73643 0.36915 0.0
C397 C 0.02098 0.81126 0.37976 0.0
C398 C 0.99376 0.81578 0.36112 0.0
C399 C 0.96497 0.79121 0.35817 0.0
C400 C 0.99596 0.84447 0.34335 0.0
C401 C 0.05312 0.83635 0.38332 0.0
C402 C 0.99272 0.87901 0.35074 0.0
C403 C 0.99399 0.90559 0.33349 0.0
C404 C -0.00177 0.89798 0.30858 0.0
C405 C 0.00147 0.86335 0.30134 0.0
C406 C 0.00032 0.83693 0.31852 0.0
H407 H 0.07588 0.8255 0.39499 0.0
H408 H 0.06556 0.84389 0.36553 0.0
H409 H 0.0422 0.85999 0.39227 0.0
H410 H 0.98866 0.88537 0.36977 0.0
H411 H 0.99122 0.932 0.33961 0.0
loop_
_geom_bond_atom_site_label_1
_geom_bond_atom_site_label_2
_geom_bond_distance
_geom_bond_site_symmetry_2
_ccdc_geom_bond_type
H0 C19 0.949 . S
H1 C20 0.950 . S
H2 C22 0.950 . S
H3 C23 0.950 . S
H4 C25 0.950 . S
H5 C28 0.950 . S
H6 C29 0.950 . S
H7 C31 0.951 . S
H8 C32 0.949 . S
H9 C34 0.949 . S
H10 C35 0.950 . S
H11 C37 0.950 . S
H12 C38 0.950 . S
H13 C40 0.950 . S
H14 C43 0.950 . S
H15 C44 0.950 . S
H16 C46 0.951 . S
H17 C47 0.949 . S
C18 C19 1.373 1_545 S
C18 C23 1.389 . S
C18 C24 1.483 . S
C19 H0 0.949 . S
C19 C18 1.373 1_565 S
C19 C20 1.397 . S
C20 H1 0.950 . S
C20 C19 1.397 . S
C20 C21 1.391 1_565 S
C21 C20 1.391 1_545 S
C21 C22 1.405 . S
C22 H2 0.950 . S
C22 C21 1.405 . S
C22 C23 1.367 . S
C23 H3 0.950 . S
C23 C18 1.389 . S
C23 C22 1.367 . S
C24 C18 1.483 . S
C24 C25 1.381 1_545 S
C24 C26 1.404 1_554 S
C25 H4 0.950 . S
C25 C24 1.381 1_565 S
C25 C41 1.411 1_565 S
C26 C24 1.404 1_556 S
C26 C27 1.489 . S
C26 C40 1.411 . S
C27 C26 1.489 . S
C27 C28 1.383 1_545 S
C27 C32 1.382 . S
C28 H5 0.950 . S
C28 C27 1.383 1_565 S
C28 C29 1.395 . S
C29 H6 0.950 . S
C29 C28 1.395 . S
C29 C30 1.288 1_565 S
C30 C29 1.288 1_545 S
C30 C31 1.392 . S
C31 H7 0.951 . S
C31 C30 1.392 . S
C31 C32 1.392 . S
C32 H8 0.949 . S
C32 C27 1.382 . S
C32 C31 1.392 . S
C33 C34 1.376 . S
C33 C38 1.386 1_545 S
C33 C39 1.483 . S
C34 H9 0.949 . S
C34 C33 1.376 . S
C34 C35 1.397 . S
C35 H10 0.950 . S
C35 C34 1.397 . S
C35 C36 1.391 . S
C36 C35 1.391 . S
C36 C37 1.405 1_545 S
C37 H11 0.950 . S
C37 C36 1.405 1_565 S
C37 C38 1.367 . S
C38 H12 0.950 . S
C38 C33 1.386 1_565 S
C38 C37 1.367 . S
C39 C33 1.483 . S
C39 C40 1.382 . S
C39 C41 1.403 1_556 S
C40 H13 0.950 . S
C40 C26 1.411 . S
C40 C39 1.382 . S
C41 C25 1.411 1_545 S
C41 C39 1.403 1_554 S
C41 C42 1.489 1_545 S
C42 C41 1.489 1_565 S
C42 C43 1.383 1_565 S
C42 C47 1.382 . S
C43 H14 0.950 . S
C43 C42 1.383 1_545 S
C43 C44 1.395 . S
C44 H15 0.950 . S
C44 C43 1.395 . S
C44 C45 1.281 1_545 S
C45 C44 1.281 1_565 S
C45 C46 1.398 . S
C46 H16 0.951 . S
C46 C45 1.398 . S
C46 C47 1.392 . S
C47 H17 0.949 . S
C47 C42 1.382 . S
C47 C46 1.392 . S
H48 C67 0.949 . S
H49 C68 0.950 . S
H50 C70 0.950 . S
H51 C71 0.950 . S
H52 C73 0.950 . S
H53 C76 0.950 . S
H54 C77 0.950 . S
H55 C79 0.951 . S
H56 C80 0.949 . S
H57 C82 0.949 . S
H58 C83 0.950 . S
H59 C85 0.950 . S
H60 C86 0.950 . S
H61 C88 0.950 . S
H62 C91 0.950 . S
H63 C92 0.950 . S
H64 C94 0.951 . S
H65 C95 0.949 . S
C66 C67 1.376 . S
C66 C71 1.386 1_455 S
C66 C72 1.483 . S
C67 H48 0.949 . S
C67 C66 1.376 . S
C67 C68 1.397 . S
C68 H49 0.950 . S
C68 C67 1.397 . S
C68 C69 1.391 . S
C69 C68 1.391 . S
C69 C70 1.405 1_455 S
C70 H50 0.950 . S
C70 C69 1.405 1_655 S
C70 C71 1.367 . S
C71 H51 0.950 . S
C71 C66 1.386 1_655 S
C71 C70 1.367 . S
C72 C66 1.483 . S
C72 C73 1.382 . S
C72 C74 1.403 1_455 S
C73 H52 0.950 . S
C73 C72 1.382 . S
C73 C89 1.411 . S
C74 C72 1.403 1_655 S
C74 C75 1.489 . S
C74 C88 1.411 . S
C75 C74 1.489 . S
C75 C76 1.383 1_655 S
C75 C80 1.382 . S
C76 H53 0.950 . S
C76 C75 1.383 1_455 S
C76 C77 1.395 . S
C77 H54 0.950 . S
C77 C76 1.395 . S
C77 C78 1.288 1_455 S
C78 C77 1.288 1_655 S
C78 C79 1.392 . S
C79 H55 0.951 . S
C79 C78 1.392 . S
C79 C80 1.392 . S
C80 H56 0.949 . S
C80 C75 1.382 . S
C80 C79 1.392 . S
C81 C82 1.376 . S
C81 C86 1.386 1_655 S
C81 C87 1.483 . S
C82 H57 0.949 . S
C82 C81 1.376 . S
C82 C83 1.397 . S
C83 H58 0.950 . S
C83 C82 1.397 . S
C83 C84 1.395 . S
C84 C83 1.395 . S
C84 C85 1.402 1_655 S
C85 H59 0.950 . S
C85 C84 1.402 1_455 S
C85 C86 1.367 . S
C86 H60 0.950 . S
C86 C81 1.386 1_455 S
C86 C85 1.367 . S
C87 C81 1.483 . S
C87 C88 1.382 . S
C87 C89 1.403 1_655 S
C88 H61 0.950 . S
C88 C74 1.411 . S
C88 C87 1.382 . S
C89 C73 1.411 . S
C89 C87 1.403 1_455 S
C89 C90 1.489 . S
C90 C89 1.489 . S
C90 C91 1.383 1_455 S
C90 C95 1.382 . S
C91 H62 0.950 . S
C91 C90 1.383 1_655 S
C91 C92 1.395 . S
C92 H63 0.950 . S
C92 C91 1.395 . S
C92 C93 1.288 1_655 S
C93 C92 1.288 1_455 S
C93 C94 1.392 . S
C94 H64 0.951 . S
C94 C93 1.392 . S
C94 C95 1.392 . S
C95 H65 0.949 . S
C95 C90 1.382 . S
C95 C94 1.392 . S
O96 Cd97 2.223 1_655 S
O96 C104 1.315 . S
Cd97 O96 2.223 1_455 S
Cd97 O100 2.297 1_455 S
Cd97 O101 2.439 1_455 S
Cd97 O107 2.240 1_565 S
Cd98 O99 2.240 1_545 S
Cd98 O106 2.223 1_655 S
Cd98 O108 2.297 1_655 S
Cd98 O109 2.439 1_655 S
O99 Cd98 2.240 1_565 S
O99 C104 1.279 . S
O100 Cd97 2.297 1_655 S
O100 C102 1.247 . S
O101 Cd97 2.439 1_655 S
O101 C102 1.208 . S
C102 O100 1.247 . S
C102 O101 1.208 . S
C103 O108 1.247 . S
C103 O109 1.208 . S
C104 O96 1.315 . S
C104 O99 1.279 . S
C105 O106 1.315 . S
C105 O107 1.279 . S
O106 Cd98 2.223 1_455 S
O106 C105 1.315 . S
O107 Cd97 2.240 1_545 S
O107 C105 1.279 . S
O108 Cd98 2.297 1_455 S
O108 C103 1.247 . S
O109 Cd98 2.439 1_455 S
O109 C103 1.208 . S
O110 Cd111 2.223 1_655 S
O110 C118 1.315 . S
Cd111 O110 2.223 1_455 S
Cd111 O114 2.297 1_455 S
Cd111 O115 2.439 1_455 S
Cd111 O121 2.240 1_545 S
Cd112 O113 2.240 1_565 S
Cd112 O120 2.223 1_655 S
Cd112 O122 2.297 1_655 S
Cd112 O123 2.439 1_655 S
O113 Cd112 2.240 1_545 S
O113 C118 1.279 . S
O114 Cd111 2.297 1_655 S
O114 C116 1.247 . S
O115 Cd111 2.439 1_655 S
O115 C116 1.208 . S
C116 O114 1.247 . S
C116 O115 1.208 . S
C117 O122 1.247 . S
C117 O123 1.208 . S
C118 O110 1.315 . S
C118 O113 1.279 . S
C119 O120 1.315 . S
C119 O121 1.279 . S
O120 Cd112 2.223 1_455 S
O120 C119 1.315 . S
O121 Cd111 2.240 1_565 S
O121 C119 1.279 . S
O122 Cd112 2.297 1_455 S
O122 C117 1.247 . S
O123 Cd112 2.439 1_455 S
O123 C117 1.208 . S
H124 C132 0.929 . S
H125 C134 0.930 . S
H126 C136 0.930 . S
H127 C139 0.929 . S
H128 C142 0.930 . S
H129 C144 0.960 . S
H130 C144 0.960 . S
H131 C144 0.960 . S
C132 H124 0.929 . S
C132 C133 1.377 1_565 S
C132 C134 1.384 . S
C133 C132 1.377 1_545 S
C133 C139 1.390 . S
C134 H125 0.930 . S
C134 C132 1.384 . S
C134 C135 1.372 1_565 S
C135 C134 1.372 1_545 S
C135 C136 1.400 . S
C135 C140 1.490 . S
C136 H126 0.930 . S
C136 C135 1.400 . S
C136 C139 1.386 . S
H137 C153 0.930 . S
H138 C154 0.931 . S
C139 H127 0.929 . S
C139 C133 1.390 . S
C139 C136 1.386 . S
C140 C135 1.490 . S
C140 C142 1.395 1_545 S
C140 C143 1.403 . S
H141 C147 0.930 . S
C142 H128 0.930 . S
C142 C140 1.395 1_565 S
C142 C145 1.403 . S
C143 C140 1.403 . S
C143 C144 1.524 . S
C143 C147 1.400 . S
C144 H129 0.960 . S
C144 H130 0.960 . S
C144 H131 0.960 . S
C144 C143 1.524 . S
C145 C142 1.403 . S
C145 C146 1.392 1_565 S
C145 C149 1.495 . S
C146 C145 1.392 1_545 S
C146 C147 1.385 . S
C146 C148 1.478 . S
C147 H141 0.930 . S
C147 C143 1.400 . S
C147 C146 1.385 . S
C148 C146 1.478 . S
C148 C150 1.381 1_545 S
C148 C154 1.383 . S
C149 C145 1.495 . S
C149 H155 0.959 . S
C149 H156 0.961 . S
C149 H157 0.960 . S
C150 C148 1.381 1_565 S
C150 C151 1.394 . S
C150 H158 0.930 . S
C151 C150 1.394 . S
C151 C152 1.383 1_565 S
C151 H159 0.929 . S
C152 C151 1.383 1_545 S
C152 C153 1.377 . S
C153 H137 0.930 . S
C153 C152 1.377 . S
C153 C154 1.379 . S
C154 H138 0.931 . S
C154 C148 1.383 . S
C154 C153 1.379 . S
H155 C149 0.959 . S
H156 C149 0.961 . S
H157 C149 0.960 . S
H158 C150 0.930 . S
H159 C151 0.929 . S
H160 C168 0.929 . S
H161 C170 0.930 . S
H162 C172 0.930 . S
H163 C175 0.929 . S
H164 C178 0.930 . S
H165 C180 0.960 . S
H166 C180 0.960 . S
H167 C180 0.960 . S
C168 H160 0.929 . S
C168 C169 1.364 1_455 S
C168 C170 1.384 . S
C169 C168 1.364 1_655 S
C169 C175 1.404 . S
C170 H161 0.930 . S
C170 C168 1.384 . S
C170 C171 1.372 1_455 S
C171 C170 1.372 1_655 S
C171 C172 1.400 . S
C171 C176 1.490 . S
C172 H162 0.930 . S
C172 C171 1.400 . S
C172 C175 1.386 . S
H173 C189 0.930 . S
H174 C190 0.931 . S
C175 H163 0.929 . S
C175 C169 1.404 . S
C175 C172 1.386 . S
C176 C171 1.490 . S
C176 C178 1.395 1_655 S
C176 C179 1.403 . S
H177 C183 0.930 . S
C178 H164 0.930 . S
C178 C176 1.395 1_455 S
C178 C181 1.403 . S
C179 C176 1.403 . S
C179 C180 1.524 . S
C179 C183 1.400 . S
C180 H165 0.960 . S
C180 H166 0.960 . S
C180 H167 0.960 . S
C180 C179 1.524 . S
C181 C178 1.403 . S
C181 C182 1.392 1_455 S
C181 C185 1.495 . S
C182 C181 1.392 1_655 S
C182 C183 1.385 . S
C182 C184 1.478 . S
C183 H177 0.930 . S
C183 C179 1.400 . S
C183 C182 1.385 . S
C184 C182 1.478 . S
C184 C186 1.381 1_655 S
C184 C190 1.383 . S
C185 C181 1.495 . S
C185 H191 0.959 . S
C185 H192 0.961 . S
C185 H193 0.960 . S
C186 C184 1.381 1_455 S
C186 C187 1.394 . S
C186 H194 0.930 . S
C187 C186 1.394 . S
C187 C188 1.383 1_455 S
C187 H195 0.929 . S
C188 C187 1.383 1_655 S
C188 C189 1.377 . S
C189 H173 0.930 . S
C189 C188 1.377 . S
C189 C190 1.379 . S
C190 H174 0.931 . S
C190 C184 1.383 . S
C190 C189 1.379 . S
H191 C185 0.959 . S
H192 C185 0.961 . S
H193 C185 0.960 . S
H194 C186 0.930 . S
H195 C187 0.929 . S
H196 C204 0.929 . S
H197 C206 0.930 . S
H198 C208 0.930 . S
H199 C211 0.929 . S
H200 C214 0.930 . S
H201 C216 0.960 . S
H202 C216 0.960 . S
H203 C216 0.960 . S
C204 H196 0.929 . S
C204 C205 1.377 . S
C204 C206 1.384 . S
C205 C204 1.377 . S
C205 C211 1.390 1_545 S
C206 H197 0.930 . S
C206 C204 1.384 . S
C206 C207 1.372 1_545 S
C207 C206 1.372 1_565 S
C207 C208 1.400 . S
C207 C212 1.490 . S
C208 H198 0.930 . S
C208 C207 1.400 . S
C208 C211 1.386 . S
H209 C225 0.930 . S
H210 C226 0.931 . S
C211 H199 0.929 . S
C211 C205 1.390 1_565 S
C211 C208 1.386 . S
C212 C207 1.490 . S
C212 C214 1.395 . S
C212 C215 1.403 1_565 S
H213 C219 0.930 . S
C214 H200 0.930 . S
C214 C212 1.395 . S
C214 C217 1.403 . S
C215 C212 1.403 1_545 S
C215 C216 1.524 . S
C215 C219 1.400 . S
C216 H201 0.960 . S
C216 H202 0.960 . S
C216 H203 0.960 . S
C216 C215 1.524 . S
C217 C214 1.403 . S
C217 C218 1.392 . S
C217 C221 1.495 . S
C218 C217 1.392 . S
C218 C219 1.385 1_565 S
C218 C220 1.478 . S
C219 H213 0.930 . S
C219 C215 1.400 . S
C219 C218 1.385 1_545 S
C220 C218 1.478 . S
C220 C222 1.371 1_565 S
C220 C226 1.383 . S
C221 C217 1.495 . S
C221 H227 0.959 . S
C221 H228 0.961 . S
C221 H229 0.960 . S
C222 C220 1.371 1_545 S
C222 C223 1.394 . S
C222 H230 0.942 . S
C223 C222 1.394 . S
C223 C224 1.381 1_545 S
C223 H231 0.931 . S
C224 C223 1.381 1_565 S
C224 C225 1.377 . S
C225 H209 0.930 . S
C225 C224 1.377 . S
C225 C226 1.379 . S
C226 H210 0.931 . S
C226 C220 1.383 . S
C226 C225 1.379 . S
H227 C221 0.959 . S
H228 C221 0.961 . S
H229 C221 0.960 . S
H230 C222 0.942 . S
H231 C223 0.931 . S
H232 C240 0.929 . S
H233 C242 0.930 . S
H234 C244 0.930 . S
H235 C247 0.929 . S
H236 C250 0.930 . S
H237 C252 0.960 . S
H238 C252 0.960 . S
H239 C252 0.960 . S
C240 H232 0.929 . S
C240 C241 1.377 1_655 S
C240 C242 1.384 . S
C241 C240 1.377 1_455 S
C241 C247 1.390 . S
C242 H233 0.930 . S
C242 C240 1.384 . S
C242 C243 1.372 1_655 S
C243 C242 1.372 1_455 S
C243 C244 1.400 . S
C243 C248 1.490 . S
C244 H234 0.930 . S
C244 C243 1.400 . S
C244 C247 1.386 . S
H245 C261 0.930 . S
H246 C262 0.931 . S
C247 H235 0.929 . S
C247 C241 1.390 . S
C247 C244 1.386 . S
C248 C243 1.490 . S
C248 C250 1.395 1_455 S
C248 C251 1.403 . S
H249 C255 0.930 . S
C250 H236 0.930 . S
C250 C248 1.395 1_655 S
C250 C253 1.403 . S
C251 C248 1.403 . S
C251 C252 1.524 . S
C251 C255 1.400 . S
C252 H237 0.960 . S
C252 H238 0.960 . S
C252 H239 0.960 . S
C252 C251 1.524 . S
C253 C250 1.403 . S
C253 C254 1.392 1_655 S
C253 C257 1.495 . S
C254 C253 1.392 1_455 S
C254 C255 1.385 . S
C254 C256 1.478 . S
C255 H249 0.930 . S
C255 C251 1.400 . S
C255 C254 1.385 . S
C256 C254 1.478 . S
C256 C258 1.381 . S
C256 C262 1.383 . S
C257 C253 1.495 . S
C257 H263 0.959 . S
C257 H264 0.961 . S
C257 H265 0.960 . S
C258 C256 1.381 . S
C258 C259 1.394 . S
C258 H266 0.930 1_455 S
C259 C258 1.394 . S
C259 C260 1.383 . S
C259 H267 0.929 . S
C260 C259 1.383 . S
C260 C261 1.377 . S
C261 H245 0.930 . S
C261 C260 1.377 . S
C261 C262 1.379 . S
C262 H246 0.931 . S
C262 C256 1.383 . S
C262 C261 1.379 . S
H263 C257 0.959 . S
H264 C257 0.961 . S
H265 C257 0.960 . S
H266 C258 0.930 1_655 S
H267 C259 0.929 . S
H268 C276 0.929 . S
H269 C278 0.930 . S
H270 C280 0.930 . S
H271 C283 0.929 . S
H272 C286 0.930 . S
H273 C288 0.960 . S
H274 C288 0.960 . S
H275 C288 0.960 . S
C276 H268 0.929 . S
C276 C277 1.377 . S
C276 C278 1.384 . S
C277 C276 1.377 . S
C277 C283 1.390 1_545 S
C278 H269 0.930 . S
C278 C276 1.384 . S
C278 C279 1.372 1_545 S
C279 C278 1.372 1_565 S
C279 C280 1.400 . S
C279 C284 1.490 . S
C280 H270 0.930 . S
C280 C279 1.400 . S
C280 C283 1.386 . S
H281 C297 0.930 . S
H282 C298 0.931 . S
C283 H271 0.929 . S
C283 C277 1.390 1_565 S
C283 C280 1.386 . S
C284 C279 1.490 . S
C284 C286 1.395 1_565 S
C284 C287 1.403 . S
H285 C291 0.930 . S
C286 H272 0.930 . S
C286 C284 1.395 1_545 S
C286 C289 1.403 . S
C287 C284 1.403 . S
C287 C288 1.524 . S
C287 C291 1.400 . S
C288 H273 0.960 . S
C288 H274 0.960 . S
C288 H275 0.960 . S
C288 C287 1.524 . S
C289 C286 1.403 . S
C289 C290 1.392 1_545 S
C289 C293 1.495 . S
C290 C289 1.392 1_565 S
C290 C291 1.385 . S
C290 C292 1.478 . S
C291 H285 0.930 . S
C291 C287 1.400 . S
C291 C290 1.385 . S
C292 C290 1.478 . S
C292 C294 1.381 1_565 S
C292 C298 1.383 . S
C293 C289 1.495 . S
C293 H299 0.959 . S
C293 H300 0.961 . S
C293 H301 0.960 . S
C294 C292 1.381 1_545 S
C294 C295 1.394 . S
C294 H302 0.930 . S
C295 C294 1.394 . S
C295 C296 1.383 1_545 S
C295 H303 0.929 . S
C296 C295 1.383 1_565 S
C296 C297 1.377 . S
C297 H281 0.930 . S
C297 C296 1.377 . S
C297 C298 1.379 . S
C298 H282 0.931 . S
C298 C292 1.383 . S
C298 C297 1.379 . S
H299 C293 0.959 . S
H300 C293 0.961 . S
H301 C293 0.960 . S
H302 C294 0.930 . S
H303 C295 0.929 . S
H304 C312 0.929 . S
H305 C314 0.930 . S
H306 C316 0.930 . S
H307 C319 0.929 . S
H308 C322 0.930 . S
H309 C324 0.960 . S
H310 C324 0.960 . S
H311 C324 0.960 . S
C312 H304 0.929 . S
C312 C313 1.377 . S
C312 C314 1.384 . S
C313 C312 1.377 . S
C313 C319 1.390 1_455 S
C314 H305 0.930 . S
C314 C312 1.384 . S
C314 C315 1.372 . S
C315 C314 1.372 . S
C315 C316 1.400 1_455 S
C315 C320 1.490 . S
C316 H306 0.930 . S
C316 C315 1.400 1_655 S
C316 C319 1.386 . S
H317 C333 0.927 1_655 S
H318 C334 0.931 . S
C319 H307 0.929 . S
C319 C313 1.390 1_655 S
C319 C316 1.386 . S
C320 C315 1.490 . S
C320 C322 1.395 1_455 S
C320 C323 1.403 . S
H321 C327 0.930 . S
C322 H308 0.930 . S
C322 C320 1.395 1_655 S
C322 C325 1.403 . S
C323 C320 1.403 . S
C323 C324 1.524 . S
C323 C327 1.400 . S
C324 H309 0.960 . S
C324 H310 0.960 . S
C324 H311 0.960 . S
C324 C323 1.524 . S
C325 C322 1.403 . S
C325 C326 1.392 1_655 S
C325 C329 1.495 . S
C326 C325 1.392 1_455 S
C326 C327 1.385 . S
C326 C328 1.478 . S
C327 H321 0.930 . S
C327 C323 1.400 . S
C327 C326 1.385 . S
C328 C326 1.478 . S
C328 C330 1.381 . S
C328 C334 1.383 1_455 S
C329 C325 1.495 . S
C329 H335 0.959 . S
C329 H336 0.961 . S
C329 H337 0.960 1_655 S
C330 C328 1.381 . S
C330 C331 1.394 . S
C330 H338 0.930 . S
C331 C330 1.394 . S
C331 C332 1.383 . S
C331 H339 0.929 . S
C332 C331 1.383 . S
C332 C333 1.379 . S
C333 H317 0.927 1_455 S
C333 C332 1.379 . S
C333 C334 1.379 1_455 S
C334 H318 0.931 . S
C334 C328 1.383 1_655 S
C334 C333 1.379 1_655 S
H335 C329 0.959 . S
H336 C329 0.961 . S
H337 C329 0.960 1_455 S
H338 C330 0.930 . S
H339 C331 0.929 . S
H340 C348 0.929 . S
H341 C350 0.930 . S
H342 C352 0.930 . S
H343 C355 0.929 . S
H344 C358 0.930 . S
H345 C360 0.960 . S
H346 C360 0.960 . S
H347 C360 0.960 1_565 S
C348 H340 0.929 . S
C348 C349 1.377 . S
C348 C350 1.384 . S
C349 C348 1.377 . S
C349 C355 1.390 1_545 S
C350 H341 0.930 . S
C350 C348 1.384 . S
C350 C351 1.372 . S
C351 C350 1.372 . S
C351 C352 1.400 1_545 S
C351 C356 1.490 . S
C352 H342 0.930 . S
C352 C351 1.400 1_565 S
C352 C355 1.386 . S
H353 C369 0.930 . S
H354 C370 0.931 . S
C355 H343 0.929 . S
C355 C349 1.390 1_565 S
C355 C352 1.386 . S
C356 C351 1.490 . S
C356 C358 1.395 . S
C356 C359 1.403 . S
H357 C363 0.930 . S
C358 H344 0.930 . S
C358 C356 1.395 . S
C358 C361 1.403 . S
C359 C356 1.403 . S
C359 C360 1.524 . S
C359 C363 1.400 . S
C360 H345 0.960 . S
C360 H346 0.960 . S
C360 H347 0.960 1_545 S
C360 C359 1.524 . S
C361 C358 1.403 . S
C361 C362 1.392 . S
C361 C365 1.495 . S
C362 C361 1.392 . S
C362 C363 1.385 . S
C362 C364 1.478 . S
C363 H357 0.930 . S
C363 C359 1.400 . S
C363 C362 1.385 . S
C364 C362 1.478 . S
C364 C366 1.381 . S
C364 C370 1.383 1_545 S
C365 C361 1.495 . S
C365 H371 0.959 . S
C365 H372 0.961 1_545 S
C365 H373 0.960 . S
C366 C364 1.381 . S
C366 C367 1.394 . S
C366 H374 0.930 . S
C367 C366 1.394 . S
C367 C368 1.383 . S
C367 H375 0.929 . S
C368 C367 1.383 . S
C368 C369 1.377 1_545 S
C369 H353 0.930 . S
C369 C368 1.377 1_565 S
C369 C370 1.379 . S
C370 H354 0.931 . S
C370 C364 1.383 1_565 S
C370 C369 1.379 . S
H371 C365 0.959 . S
H372 C365 0.961 1_565 S
H373 C365 0.960 . S
H374 C366 0.930 . S
H375 C367 0.929 . S
H376 C384 0.929 . S
H377 C386 0.930 . S
H378 C388 0.929 1_455 S
H379 C391 0.929 . S
H380 C394 0.930 . S
H381 C396 0.960 . S
H382 C396 0.960 . S
H383 C396 0.960 . S
C384 H376 0.929 . S
C384 C385 1.377 . S
C384 C386 1.384 . S
C385 C384 1.377 . S
C385 C391 1.390 1_655 S
C386 H377 0.930 . S
C386 C384 1.384 . S
C386 C387 1.372 . S
C387 C386 1.372 . S
C387 C388 1.401 . S
C387 C392 1.490 . S
C388 H378 0.929 1_655 S
C388 C387 1.401 . S
C388 C391 1.385 1_655 S
H389 C405 0.930 . S
H390 C406 0.931 1_455 S
C391 H379 0.929 . S
C391 C385 1.390 1_455 S
C391 C388 1.385 1_455 S
C392 C387 1.490 . S
C392 C394 1.395 1_655 S
C392 C395 1.403 . S
H393 C399 0.930 . S
C394 H380 0.930 . S
C394 C392 1.395 1_455 S
C394 C397 1.403 . S
C395 C392 1.403 . S
C395 C396 1.524 . S
C395 C399 1.400 . S
C396 H381 0.960 . S
C396 H382 0.960 . S
C396 H383 0.960 . S
C396 C395 1.524 . S
C397 C394 1.403 . S
C397 C398 1.392 1_455 S
C397 C401 1.495 . S
C398 C397 1.392 1_655 S
C398 C399 1.385 . S
C398 C400 1.478 . S
C399 H393 0.930 . S
C399 C395 1.400 . S
C399 C398 1.385 . S
C400 C398 1.478 . S
C400 C402 1.381 . S
C400 C406 1.383 . S
C401 C397 1.495 . S
C401 H407 0.959 . S
C401 H408 0.961 . S
C401 H409 0.960 . S
C402 C400 1.381 . S
C402 C403 1.394 . S
C402 H410 0.930 . S
C403 C402 1.394 . S
C403 C404 1.383 . S
C403 H411 0.929 . S
C404 C403 1.383 . S
C404 C405 1.377 . S
C405 H389 0.930 . S
C405 C404 1.377 . S
C405 C406 1.379 . S
C406 H390 0.931 1_655 S
C406 C400 1.383 . S
C406 C405 1.379 . S
H407 C401 0.959 . S
H408 C401 0.961 . S
H409 C401 0.960 . S
H410 C402 0.930 . S
H411 C403 0.929 . S
C152 C105 1.633 . S
C133 C45 1.634 1_545 S
C188 C116 1.527 . S
C169 C78 1.615 . S
C224 C104 1.628 . S
C205 C21 1.637 . S
C260 C117 1.534 . S
C241 C84 1.624 1_455 S
C296 C119 1.636 . S
C277 C36 1.641 . S
C332 C103 1.557 . S
C313 C69 1.620 . S
C368 C118 1.638 . S
C349 C30 1.625 . S
C385 C93 1.624 1_655 S
C404 C102 1.545 . S
