# Generated by pormake.
# Topology pth, (4,4)-cn, num edge types: 1
# Building blocks:
#     Node 0, Type 0, BuildingBlock: CEKHIL_clean_sbu_0, # of connection points: 4
#     Node 1, Type 0, BuildingBlock: CEKHIL_clean_sbu_0, # of connection points: 4
#     Node 2, Type 0, BuildingBlock: CEKHIL_clean_sbu_0, # of connection points: 4
#     Node 3, Type 1, BuildingBlock: NAHDIM_clean_linker_0, # of connection points: 4
#     Node 4, Type 1, BuildingBlock: NAHDIM_clean_linker_0, # of connection points: 4
#     Node 5, Type 1, BuildingBlock: NAHDIM_clean_linker_0, # of connection points: 4
#     Edge 6, Type (0, 1), BuildingBlock: XUDNAN_clean_linker_2, # of connection points: 2
#     Edge 7, Type (0, 1), BuildingBlock: XUDNAN_clean_linker_2, # of connection points: 2
#     Edge 8, Type (0, 1), BuildingBlock: XUDNAN_clean_linker_2, # of connection points: 2
#     Edge 9, Type (0, 1), BuildingBlock: XUDNAN_clean_linker_2, # of connection points: 2
#     Edge 10, Type (0, 1), BuildingBlock: XUDNAN_clean_linker_2, # of connection points: 2
#     Edge 11, Type (0, 1), BuildingBlock: XUDNAN_clean_linker_2, # of connection points: 2
#     Edge 12, Type (0, 1), BuildingBlock: XUDNAN_clean_linker_2, # of connection points: 2
#     Edge 13, Type (0, 1), BuildingBlock: XUDNAN_clean_linker_2, # of connection points: 2
#     Edge 14, Type (0, 1), BuildingBlock: XUDNAN_clean_linker_2, # of connection points: 2
#     Edge 15, Type (0, 1), BuildingBlock: XUDNAN_clean_linker_2, # of connection points: 2
#     Edge 16, Type (0, 1), BuildingBlock: XUDNAN_clean_linker_2, # of connection points: 2
#     Edge 17, Type (0, 1), BuildingBlock: XUDNAN_clean_linker_2, # of connection points: 2
# Relax obj value: 0.007
# Max RMSD: 0.047
# Mean RMSD: 0.045
data_MOF--net-pth--node1-CEKHIL_clean_sbu_0--node2-NAHDIM_clean_linker_0--edge1-XUDNAN_clean_linker_2
_symmetry_space_group_name_H-M    P1
_symmetry_Int_Tables_number       1
_symmetry_cell_setting            triclinic
loop_
_symmetry_equiv_pos_as_xyz
'x, y, z'
_cell_length_a     31.476027
_cell_length_b     31.535207
_cell_length_c     81.933866
_cell_angle_alpha  90.658146
_cell_angle_beta   90.65087
_cell_angle_gamma 120.28522
loop_
_atom_site_label
_atom_site_type_symbol
_atom_site_fract_x
_atom_site_fract_y
_atom_site_fract_z
_atom_type_partial_charge
Co0 Co 0.03219 0.05653 0.04583 0.0
O1 O 0.01844 0.01227 0.06344 0.0
O2 O 0.07388 0.02769 0.04447 0.0
C3 C 0.03713 0.11933 0.06056 0.0
O4 O 0.05666 0.10153 0.02617 0.0
Co5 Co 0.95419 0.08591 0.03708 0.0
O6 O 0.00542 0.13105 0.02203 0.0
C7 C 0.93661 0.98896 0.02675 0.0
C8 C 0.05166 0.00404 0.05752 0.0
C9 C 0.044 0.12936 0.01868 0.0
O10 O 0.97991 0.001 0.03206 0.0
O11 O 0.91782 0.01646 0.02846 0.0
O12 O 0.07467 0.11285 0.05982 0.0
O13 O 0.99647 0.08448 0.05417 0.0
Co14 Co 0.03082 0.06761 0.37285 0.0
O15 O 0.01595 0.10039 0.3559 0.0
O16 O 0.07276 0.1378 0.37546 0.0
C17 C 0.03131 0.00921 0.35691 0.0
O18 O 0.05865 0.04671 0.39173 0.0
Co19 Co 0.95578 0.95892 0.38122 0.0
O20 O 0.00865 0.96622 0.3964 0.0
C21 C 0.93615 0.03695 0.3911 0.0
C22 C 0.05002 0.14116 0.36263 0.0
C23 C 0.04793 0.00707 0.39931 0.0
O24 O 0.98041 0.06964 0.38747 0.0
O25 O 0.91776 0.99119 0.38779 0.0
O26 O 0.06981 0.0531 0.35758 0.0
O27 O 0.9931 0.00411 0.36426 0.0
Co28 Co 0.02777 0.05692 0.70706 0.0
O29 O 0.07587 0.09851 0.69162 0.0
O30 O 0.07045 0.03125 0.70179 0.0
C31 C 0.96356 0.05473 0.6938 0.0
O32 O 0.98203 0.00335 0.72249 0.0
Co33 Co 0.96653 0.09084 0.72685 0.0
O34 O 0.92482 0.02018 0.73144 0.0
C35 C 0.07176 0.13037 0.73518 0.0
C36 C 0.09214 0.06803 0.69198 0.0
C37 C 0.94157 0.99113 0.72982 0.0
O38 O 0.073 0.09845 0.72557 0.0
O39 O 0.03389 0.13519 0.73649 0.0
O40 O 0.97919 0.02534 0.68935 0.0
O41 O 0.98871 0.08594 0.70534 0.0
C42 C 0.96976 0.76623 0.26684 0.0
C43 C 0.99235 0.75191 0.2809 0.0
C44 C 0.04038 0.71894 0.26821 0.0
C45 C 0.08785 0.72776 0.2654 0.0
C46 C 0.09551 0.69285 0.25723 0.0
C47 C 0.05448 0.64788 0.25185 0.0
C48 C 0.00631 0.6384 0.25476 0.0
C49 C -0.00029 0.67415 0.26273 0.0
C50 C 0.14732 0.70423 0.25412 0.0
C51 C 0.9617 0.59063 0.24924 0.0
C52 C 0.18837 0.45818 0.29761 0.0
C53 C 0.13285 0.4362 0.2997 0.0
C54 C 0.09893 0.44695 0.27448 0.0
C55 C 0.05119 0.43885 0.27273 0.0
C56 C 0.04101 0.46776 0.26227 0.0
C57 C 0.0797 0.50561 0.25342 0.0
C58 C 0.12785 0.51295 0.25487 0.0
C59 C 0.13667 0.48287 0.26518 0.0
C60 C 0.98909 0.45823 0.2608 0.0
C61 C 0.17016 0.55299 0.24572 0.0
C62 C 0.05421 0.40841 0.14603 0.0
C63 C 0.0098 0.40719 0.14917 0.0
C64 C 0.00938 0.44435 0.15861 0.0
C65 C 0.0543 0.48393 0.16477 0.0
C66 C 0.0991 0.48543 0.16153 0.0
C67 C 0.09831 0.44715 0.15239 0.0
C68 C 0.9609 0.44145 0.16191 0.0
C69 C 0.14782 0.52771 0.16755 0.0
C70 C 0.05063 0.8148 0.1544 0.0
C71 C 0.0725 0.79806 0.14088 0.0
C72 C 0.04536 0.71201 0.14589 0.0
C73 C 0.00177 0.66993 0.15019 0.0
C74 C 0.00274 0.63253 0.15903 0.0
C75 C 0.04854 0.6373 0.16347 0.0
C76 C 0.09273 0.67878 0.15853 0.0
C77 C 0.09069 0.71556 0.14969 0.0
C78 C 0.95495 0.58831 0.16388 0.0
C79 C 0.14216 0.68438 0.16271 0.0
C80 C 0.06148 0.6113 0.24257 0.0
C81 C 0.06793 0.5771 0.2513 0.0
C82 C 0.0705 0.53909 0.24328 0.0
C83 C 0.0656 0.53447 0.22606 0.0
C84 C 0.06526 0.49524 0.21761 0.0
C85 C 0.061 0.49146 0.20064 0.0
C86 C 0.05758 0.52712 0.19147 0.0
C87 C 0.0544 0.52435 0.17421 0.0
C88 C 0.05111 0.56046 0.16549 0.0
C89 C 0.05048 0.59941 0.17353 0.0
C90 C 0.05314 0.60263 0.19077 0.0
C91 C 0.05208 0.64109 0.19924 0.0
C92 C 0.05474 0.64397 0.2162 0.0
C93 C 0.05904 0.60878 0.22534 0.0
C94 C 0.06064 0.56995 0.21706 0.0
C95 C 0.0571 0.56655 0.19975 0.0
C96 C 0.0354 0.31394 0.11523 0.0
C97 C 0.01874 0.33898 0.1267 0.0
O98 O 0.03568 0.75458 0.27609 0.0
O99 O 0.04237 0.74802 0.13792 0.0
O100 O 0.05612 0.37331 0.13686 0.0
O101 O 0.10785 0.419 0.28485 0.0
H102 H 0.96512 0.71376 0.28436 0.0
H103 H 0.93641 0.76653 0.27097 0.0
H104 H 0.95872 0.73924 0.25657 0.0
H105 H 0.99651 0.80303 0.26218 0.0
H106 H 0.11903 0.76238 0.26956 0.0
H107 H 0.96257 0.66661 0.26443 0.0
H108 H 0.15366 0.67625 0.25997 0.0
H109 H 0.17535 0.74119 0.25889 0.0
H110 H 0.15241 0.70231 0.24079 0.0
H111 H 0.92683 0.58713 0.25364 0.0
H112 H 0.96463 0.55909 0.25373 0.0
H113 H 0.95998 0.58822 0.2357 0.0
H114 H 0.12633 0.4654 0.30474 0.0
H115 H 0.20748 0.46552 0.30969 0.0
H116 H 0.20431 0.49389 0.29139 0.0
H117 H 0.1959 0.43269 0.2904 0.0
H118 H 0.02208 0.41025 0.27976 0.0
H119 H 0.17304 0.48737 0.26593 0.0
H120 H 0.98721 0.48926 0.26656 0.0
H121 H 0.96225 0.42374 0.26681 0.0
H122 H 0.97816 0.456 0.24774 0.0
H123 H 0.20607 0.55686 0.24937 0.0
H124 H 0.172 0.58871 0.24789 0.0
H125 H 0.16422 0.54463 0.23242 0.0
H126 H 0.98406 0.31428 0.13316 0.0
H127 H 0.97534 0.37729 0.14437 0.0
H128 H 0.13235 0.44778 0.14986 0.0
H129 H 0.9577 0.44683 0.17517 0.0
H130 H 0.92892 0.40575 0.15782 0.0
H131 H 0.95931 0.47132 0.1554 0.0
H132 H 0.17955 0.52569 0.16266 0.0
H133 H 0.14975 0.5276 0.18108 0.0
H134 H 0.15122 0.56315 0.16398 0.0
H135 H 0.10955 0.80691 0.14536 0.0
H136 H 0.07316 0.85522 0.15638 0.0
H137 H 0.05038 0.79679 0.166 0.0
H138 H 0.01218 0.80471 0.15131 0.0
H139 H 0.96693 0.66705 0.14692 0.0
H140 H 0.12458 0.74661 0.14562 0.0
H141 H 0.95333 0.58609 0.17739 0.0
H142 H 0.9531 0.5543 0.15912 0.0
H143 H 0.92234 0.5896 0.15922 0.0
H144 H 0.17317 0.7186 0.15782 0.0
H145 H 0.14394 0.65245 0.1577 0.0
H146 H 0.14685 0.68481 0.17617 0.0
H147 H 0.07061 0.5799 0.26453 0.0
H148 H 0.06811 0.46694 0.22403 0.0
H149 H 0.0608 0.4604 0.19479 0.0
H150 H 0.04916 0.55831 0.15225 0.0
H151 H 0.04901 0.66933 0.19286 0.0
H152 H 0.05371 0.67439 0.22205 0.0
H153 H 0.01445 0.27414 0.11874 0.0
H154 H 0.07174 0.32016 0.12019 0.0
H155 H 0.02769 0.33846 0.09175 0.0
C156 C 0.2736 0.99426 0.6023 0.0
C157 C 0.3093 0.02774 0.61582 0.0
C158 C 0.38813 0.07138 0.60127 0.0
C159 C 0.42216 0.11688 0.59503 0.0
C160 C 0.4632 0.12322 0.58649 0.0
C161 C 0.46991 0.08256 0.58391 0.0
C162 C 0.43594 0.03636 0.59036 0.0
C163 C 0.3955 0.03126 0.5991 0.0
C164 C 0.49936 0.17343 0.58023 0.0
C165 C 0.44231 0.99241 0.58791 0.0
C166 C 0.84993 0.16317 0.599 0.0
C167 C 0.80112 0.12742 0.60688 0.0
C168 C 0.73003 0.13834 0.60168 0.0
C169 C 0.69491 0.08977 0.59717 0.0
C170 C 0.65082 0.07914 0.58917 0.0
C171 C 0.64159 0.11772 0.58584 0.0
C172 C 0.6757 0.16618 0.59119 0.0
C173 C 0.71941 0.17575 0.59913 0.0
C174 C 0.61454 0.0269 0.58396 0.0
C175 C 0.66663 0.20805 0.58806 0.0
C176 C 0.74335 0.15849 0.48442 0.0
C177 C 0.70972 0.10983 0.48866 0.0
C178 C 0.66403 0.09733 0.49523 0.0
C179 C 0.65206 0.1344 0.49799 0.0
C180 C 0.685 0.18307 0.49323 0.0
C181 C 0.72999 0.1943 0.48629 0.0
C182 C 0.62899 0.04463 0.49961 0.0
C183 C 0.67327 0.22344 0.49594 0.0
C184 C 0.34314 0.99722 0.4423 0.0
C185 C 0.32217 0.00904 0.45738 0.0
C186 C 0.39515 0.06346 0.47439 0.0
C187 C 0.40575 0.02696 0.47919 0.0
C188 C 0.44615 0.03844 0.48952 0.0
C189 C 0.47678 0.08736 0.49517 0.0
C190 C 0.46634 0.12419 0.49044 0.0
C191 C 0.42557 0.11169 0.48012 0.0
C192 C 0.4564 0.99829 0.49429 0.0
C193 C 0.49847 0.17675 0.49622 0.0
C194 C 0.51298 0.08896 0.57467 0.0
C195 C 0.55466 0.09702 0.58358 0.0
C196 C 0.59813 0.10812 0.57573 0.0
C197 C 0.60055 0.1118 0.55856 0.0
C198 C 0.64434 0.12472 0.55037 0.0
C199 C 0.64662 0.1289 0.5335 0.0
C200 C 0.60499 0.11955 0.52411 0.0
C201 C 0.60679 0.12277 0.50691 0.0
C202 C 0.56477 0.11305 0.49791 0.0
C203 C 0.52054 0.09999 0.50564 0.0
C204 C 0.51807 0.09687 0.52286 0.0
C205 C 0.47431 0.0841 0.53106 0.0
C206 C 0.47242 0.08123 0.54802 0.0
C207 C 0.51413 0.09077 0.55742 0.0
C208 C 0.55831 0.10285 0.54936 0.0
C209 C 0.56046 0.10648 0.5321 0.0
C210 C 0.86492 0.18865 0.49001 0.0
C211 C 0.81685 0.15087 0.48135 0.0
O212 O 0.349 0.06841 0.60915 0.0
O213 O 0.3566 0.05408 0.46424 0.0
O214 O 0.78849 0.17233 0.47835 0.0
O215 O 0.77408 0.15078 0.60877 0.0
H216 H 0.32256 0.00704 0.62314 0.0
H217 H 0.29178 0.98022 0.59412 0.0
H218 H 0.2604 0.01465 0.59481 0.0
H219 H 0.24141 0.96213 0.60771 0.0
H220 H 0.41633 0.14765 0.59687 0.0
H221 H 0.36989 0.99595 0.60409 0.0
H222 H 0.53745 0.18387 0.58403 0.0
H223 H 0.49159 0.20216 0.58472 0.0
H224 H 0.49771 0.1726 0.56668 0.0
H225 H 0.41085 0.95821 0.59262 0.0
H226 H 0.47651 0.99913 0.5943 0.0
H227 H 0.44632 0.98695 0.57472 0.0
H228 H 0.78209 0.09483 0.59854 0.0
H229 H 0.87226 0.1454 0.59692 0.0
H230 H 0.87137 0.19644 0.60691 0.0
H231 H 0.84274 0.17467 0.58701 0.0
H232 H 0.70149 0.06007 0.5999 0.0
H233 H 0.7463 0.21291 0.603 0.0
H234 H 0.57768 0.01584 0.58884 0.0
H235 H 0.62585 0.00064 0.58819 0.0
H236 H 0.61097 0.02435 0.57043 0.0
H237 H 0.69573 0.24324 0.59365 0.0
H238 H 0.6305 0.1994 0.59301 0.0
H239 H 0.66518 0.21288 0.5747 0.0
H240 H 0.79893 0.12033 0.49009 0.0
H241 H 0.71853 0.08123 0.48691 0.0
H242 H 0.75575 0.23159 0.48277 0.0
H243 H 0.62731 0.04142 0.51309 0.0
H244 H 0.64053 0.01917 0.4946 0.0
H245 H 0.5913 0.03285 0.49494 0.0
H246 H 0.70308 0.25958 0.49177 0.0
H247 H 0.66729 0.2266 0.50913 0.0
H248 H 0.63864 0.21417 0.48928 0.0
H249 H 0.31255 0.97955 0.46638 0.0
H250 H 0.35616 0.02716 0.43332 0.0
H251 H 0.31463 0.96232 0.43636 0.0
H252 H 0.37479 0.9928 0.44584 0.0
H253 H 0.38315 0.98942 0.4749 0.0
H254 H 0.41736 0.13969 0.47639 0.0
H255 H 0.45678 0.99584 0.5078 0.0
H256 H 0.49333 0.0073 0.49002 0.0
H257 H 0.42865 0.96184 0.48909 0.0
H258 H 0.48492 0.20098 0.49171 0.0
H259 H 0.53659 0.19098 0.49196 0.0
H260 H 0.50004 0.17855 0.50978 0.0
H261 H 0.55361 0.09576 0.59681 0.0
H262 H 0.67753 0.13207 0.5569 0.0
H263 H 0.68151 0.13941 0.52793 0.0
H264 H 0.56626 0.11484 0.4847 0.0
H265 H 0.44111 0.0764 0.52446 0.0
H266 H 0.43779 0.07133 0.55369 0.0
H267 H 0.8834 0.22358 0.48325 0.0
H268 H 0.8902 0.17389 0.49137 0.0
H269 H 0.85675 0.19704 0.5024 0.0
C270 C 0.68721 0.63459 0.76862 0.0
C271 C 0.7014 0.67973 0.77952 0.0
C272 C 0.67813 0.6545 0.80736 0.0
C273 C 0.65108 0.67738 0.81123 0.0
C274 C 0.61406 0.65746 0.82291 0.0
C275 C 0.60392 0.6137 0.83079 0.0
C276 C 0.63287 0.59195 0.82744 0.0
C277 C 0.67027 0.61325 0.81592 0.0
C278 C 0.58484 0.68234 0.82649 0.0
C279 C 0.62291 0.54502 0.83545 0.0
C280 C 0.31584 0.47124 0.7671 0.0
C281 C 0.32842 0.44246 0.77921 0.0
C282 C 0.3506 0.46528 0.80772 0.0
C283 C 0.37965 0.44375 0.81024 0.0
C284 C 0.41671 0.46222 0.82238 0.0
C285 C 0.42525 0.50353 0.83197 0.0
C286 C 0.39378 0.52319 0.83013 0.0
C287 C 0.35611 0.50305 0.81817 0.0
C288 C 0.44844 0.43925 0.82434 0.0
C289 C 0.40194 0.56745 0.84001 0.0
C290 C 0.36247 0.43191 0.94157 0.0
C291 C 0.39488 0.4168 0.93628 0.0
C292 C 0.43364 0.44582 0.92587 0.0
C293 C 0.4404 0.49147 0.92074 0.0
C294 C 0.40762 0.507 0.92592 0.0
C295 C 0.36878 0.47696 0.93617 0.0
C296 C 0.46777 0.428 0.92052 0.0
C297 C 0.41412 0.55574 0.92081 0.0
C298 C 0.83323 0.76567 0.92576 0.0
C299 C 0.78883 0.75339 0.93632 0.0
C300 C 0.71304 0.67399 0.93247 0.0
C301 C 0.69783 0.62595 0.92739 0.0
C302 C 0.65059 0.59543 0.92068 0.0
C303 C 0.61783 0.61358 0.91916 0.0
C304 C 0.63184 0.66108 0.92528 0.0
C305 C 0.67927 0.69074 0.93202 0.0
C306 C 0.63633 0.54448 0.91465 0.0
C307 C 0.5972 0.68094 0.92421 0.0
C308 C 0.55989 0.58775 0.84111 0.0
C309 C 0.51446 0.55996 0.83311 0.0
C310 C 0.47157 0.53089 0.84173 0.0
C311 C 0.47389 0.52868 0.85892 0.0
C312 C 0.43204 0.49777 0.86794 0.0
C313 C 0.43494 0.49598 0.88489 0.0
C314 C 0.47973 0.52535 0.89342 0.0
C315 C 0.48321 0.524 0.91063 0.0
C316 C 0.52843 0.55356 0.91868 0.0
C317 C 0.57062 0.5844 0.91001 0.0
C318 C 0.56798 0.58631 0.89283 0.0
C319 C 0.60991 0.61699 0.88375 0.0
C320 C 0.60732 0.61773 0.86681 0.0
C321 C 0.56265 0.58813 0.85833 0.0
C322 C 0.51959 0.55795 0.86725 0.0
C323 C 0.52238 0.55665 0.88452 0.0
C324 C 0.3084 0.44531 0.97262 0.0
C325 C 0.28927 0.40894 0.95805 0.0
O326 O 0.7114 0.67104 0.79525 0.0
O327 O 0.76042 0.70286 0.93769 0.0
O328 O 0.32644 0.40228 0.95196 0.0
O329 O 0.3186 0.45182 0.79487 0.0
H330 H 0.66933 0.68558 0.77929 0.0
H331 H 0.65305 0.60262 0.77314 0.0
H332 H 0.71677 0.62513 0.76871 0.0
H333 H 0.68022 0.64147 0.75587 0.0
H334 H 0.65859 0.7105 0.80499 0.0
H335 H 0.69198 0.5964 0.81297 0.0
H336 H 0.54728 0.66006 0.82105 0.0
H337 H 0.60212 0.71978 0.82137 0.0
H338 H 0.58104 0.68492 0.83987 0.0
H339 H 0.64687 0.5313 0.83078 0.0
H340 H 0.58386 0.51608 0.83334 0.0
H341 H 0.62917 0.5513 0.84884 0.0
H342 H 0.36851 0.45604 0.77796 0.0
H343 H 0.32357 0.46444 0.75443 0.0
H344 H 0.33868 0.5112 0.76992 0.0
H345 H 0.27643 0.46048 0.76784 0.0
H346 H 0.37417 0.41334 0.80244 0.0
H347 H 0.33285 0.51881 0.81622 0.0
H348 H 0.45606 0.43685 0.83746 0.0
H349 H 0.48421 0.46259 0.81838 0.0
H350 H 0.43091 0.40192 0.81865 0.0
H351 H 0.37479 0.57886 0.83684 0.0
H352 H 0.43953 0.59877 0.83795 0.0
H353 H 0.39918 0.55919 0.85321 0.0
H354 H 0.27572 0.42402 0.94841 0.0
H355 H 0.38981 0.38207 0.94045 0.0
H356 H 0.34419 0.4895 0.94004 0.0
H357 H 0.47142 0.43004 0.90705 0.0
H358 H 0.45474 0.38965 0.92424 0.0
H359 H 0.50493 0.45219 0.92602 0.0
H360 H 0.38665 0.56346 0.92638 0.0
H361 H 0.41053 0.55606 0.90732 0.0
H362 H 0.4516 0.58582 0.92436 0.0
H363 H 0.7683 0.76862 0.92988 0.0
H364 H 0.85696 0.80612 0.92469 0.0
H365 H 0.82042 0.74951 0.91331 0.0
H366 H 0.8554 0.75055 0.93103 0.0
H367 H 0.72379 0.613 0.92817 0.0
H368 H 0.68979 0.72692 0.93681 0.0
H369 H 0.63201 0.54248 0.90115 0.0
H370 H 0.60036 0.51713 0.91973 0.0
H371 H 0.66423 0.53427 0.91805 0.0
H372 H 0.61307 0.71806 0.92997 0.0
H373 H 0.5622 0.65562 0.93028 0.0
H374 H 0.58822 0.68299 0.9112 0.0
H375 H 0.51256 0.56046 0.81988 0.0
H376 H 0.39667 0.47447 0.86198 0.0
H377 H 0.40162 0.47138 0.89122 0.0
H378 H 0.53092 0.5522 0.93187 0.0
H379 H 0.64536 0.64061 0.88961 0.0
H380 H 0.64074 0.64182 0.86044 0.0
H381 H 0.32501 0.43328 0.98221 0.0
H382 H 0.27784 0.44857 0.97795 0.0
H383 H 0.33696 0.4823 0.9687 0.0
H384 H 0.96327 0.13453 0.0702 0.0
H385 H 0.12166 0.20626 0.06626 0.0
H386 H 0.13026 0.28262 0.078 0.0
H387 H 0.94679 0.23617 0.06085 0.0
H388 H 0.89728 0.21715 0.07503 0.0
H389 H 0.90822 0.17206 0.06532 0.0
H390 H 0.91515 0.14044 0.0935 0.0
H391 H 0.90518 0.18565 0.10357 0.0
H392 H 0.95949 0.18238 0.10838 0.0
H393 H 0.13385 0.36602 0.09119 0.0
H394 H 0.10632 0.42726 0.10969 0.0
H395 H 0.92635 0.28364 0.10573 0.0
C396 C -0.00048 0.16667 0.07176 0.0
C397 C 0.04178 0.16494 0.06735 0.0
C398 C 0.08886 0.20702 0.06962 0.0
C399 C 0.09409 0.25054 0.0762 0.0
C400 C 0.05201 0.2514 0.0806 0.0
C401 C 0.00455 0.20991 0.07863 0.0
C402 C 0.96136 0.21539 0.0848 0.0
C403 C 0.92635 0.20987 0.07066 0.0
C404 C 0.93369 0.17881 0.09836 0.0
C405 C 0.98714 0.2668 0.0915 0.0
C406 C 0.04979 0.29129 0.08831 0.0
C407 C 0.09572 0.35266 0.09399 0.0
C408 C 0.07877 0.39172 0.10479 0.0
C409 C 0.01384 0.35874 0.11208 0.0
C410 C 0.96435 0.30088 0.10211 0.0
H411 H 0.96565 0.12555 0.40685 0.0
H412 H 0.83875 0.98013 0.39807 0.0
H413 H 0.79201 0.99793 0.41805 0.0
H414 H 0.95574 0.12872 0.44816 0.0
H415 H 0.97295 0.1924 0.45029 0.0
H416 H 0.99453 0.17243 0.43328 0.0
H417 H 0.9568 0.20759 0.41306 0.0
H418 H 0.93566 0.22843 0.43004 0.0
H419 H 0.89263 0.18908 0.41438 0.0
H420 H 0.76398 0.02482 0.4419 0.0
H421 H 0.75391 0.06206 0.46692 0.0
H422 H 0.89635 0.19247 0.45956 0.0
C423 C 0.92756 0.09804 0.40874 0.0
C424 C 0.90606 0.05137 0.40091 0.0
C425 C 0.85626 0.01611 0.40394 0.0
C426 C 0.82922 0.02589 0.41524 0.0
C427 C 0.85212 0.07137 0.42326 0.0
C428 C 0.89981 0.1073 0.41997 0.0
C429 C 0.91677 0.15158 0.43127 0.0
C430 C 0.9627 0.16184 0.44134 0.0
C431 C 0.926 0.19685 0.42161 0.0
C432 C 0.87207 0.13372 0.44192 0.0
C433 C 0.83512 0.08757 0.43696 0.0
C434 C 0.79215 0.06148 0.44571 0.0
C435 C 0.78684 0.08298 0.45998 0.0
C436 C 0.82423 0.13013 0.46548 0.0
C437 C 0.8669 0.15627 0.45597 0.0
H438 H 0.84463 0.94207 0.73792 0.0
H439 H 0.97561 0.92923 0.73819 0.0
H440 H 0.92913 0.84858 0.75141 0.0
H441 H 0.79869 0.88778 0.77641 0.0
H442 H 0.73514 0.85618 0.76969 0.0
H443 H 0.77882 0.91269 0.76031 0.0
H444 H 0.7555 0.86937 0.73184 0.0
H445 H 0.71152 0.81278 0.74112 0.0
H446 H 0.75899 0.8146 0.72854 0.0
H447 H 0.86835 0.77033 0.7655 0.0
H448 H 0.79677 0.69829 0.77747 0.0
H449 H 0.70584 0.76214 0.76682 0.0
C450 C 0.86366 0.9224 0.74077 0.0
C451 C 0.91383 0.94206 0.73713 0.0
C452 C 0.93715 0.91481 0.74086 0.0
C453 C 0.91112 0.8691 0.74841 0.0
C454 C 0.86176 0.85105 0.75197 0.0
C455 C 0.83819 0.87668 0.7481 0.0
C456 C 0.7847 0.84891 0.75282 0.0
C457 C 0.77372 0.87814 0.76557 0.0
C458 C 0.75068 0.83563 0.73768 0.0
C459 C 0.78184 0.80378 0.76012 0.0
C460 C 0.82667 0.80571 0.75961 0.0
C461 C 0.83301 0.7683 0.76586 0.0
C462 C 0.79229 0.72763 0.77263 0.0
C463 C 0.74583 0.72462 0.77298 0.0
C464 C 0.74086 0.76341 0.76669 0.0
H465 H 0.98868 0.92239 0.0738 0.0
H466 H 0.1414 0.01006 0.06024 0.0
H467 H 0.16255 0.96003 0.07806 0.0
H468 H 0.00619 0.91107 0.1141 0.0
H469 H 0.95764 0.84814 0.11595 0.0
H470 H 0.95349 0.88562 0.10038 0.0
H471 H 0.94365 0.82211 0.07811 0.0
H472 H 0.94709 0.78395 0.09368 0.0
H473 H 0.98877 0.80309 0.07685 0.0
H474 H 0.16833 0.90962 0.10073 0.0
H475 H 0.15777 0.85873 0.12474 0.0
H476 H 0.00015 0.80037 0.12212 0.0
C477 C 0.02637 0.93019 0.07429 0.0
C478 C 0.06355 0.96993 0.06574 0.0
C479 C 0.11244 0.97937 0.06661 0.0
C480 C 0.1247 0.95122 0.07671 0.0
C481 C 0.08731 0.91313 0.08543 0.0
C482 C 0.03891 0.90187 0.08399 0.0
C483 C 0.00597 0.86092 0.09525 0.0
C484 C 0.9793 0.87747 0.10712 0.0
C485 C 0.9692 0.81478 0.08538 0.0
C486 C 0.04383 0.85297 0.10404 0.0
C487 C 0.09045 0.88299 0.09808 0.0
C488 C 0.13188 0.88516 0.10524 0.0
C489 C 0.12555 0.85629 0.11891 0.0
C490 C 0.07817 0.82572 0.12531 0.0
C491 C 0.03677 0.82331 0.11748 0.0
H492 H 0.14869 0.06661 0.40099 0.0
H493 H 0.0252 0.94831 0.42565 0.0
H494 H 0.08238 0.94324 0.44523 0.0
H495 H 0.22376 0.01522 0.403 0.0
H496 H 0.28088 0.07209 0.40632 0.0
H497 H 0.23053 0.07197 0.39567 0.0
H498 H 0.23364 0.13612 0.41642 0.0
H499 H 0.28425 0.1366 0.42713 0.0
H500 H 0.22953 0.12356 0.43794 0.0
H501 H 0.15168 0.94416 0.4601 0.0
H502 H 0.22948 0.95019 0.46918 0.0
H503 H 0.30947 0.06825 0.43532 0.0
C504 C 0.13375 0.04059 0.41079 0.0
C505 C 0.08251 0.00804 0.41188 0.0
C506 C 0.06433 0.97356 0.42459 0.0
C507 C 0.09649 0.97058 0.43583 0.0
C508 C 0.14681 0.0023 0.4342 0.0
C509 C 0.1655 0.03676 0.42205 0.0
C510 C 0.2213 0.06315 0.42214 0.0
C511 C 0.2402 0.0551 0.40582 0.0
C512 C 0.24348 0.11812 0.42615 0.0
C513 C 0.23082 0.03711 0.43593 0.0
C514 C 0.18729 0.00258 0.44282 0.0
C515 C 0.1861 0.97152 0.45497 0.0
C516 C 0.23048 0.97515 0.46003 0.0
C517 C 0.27553 0.00949 0.45291 0.0
C518 C 0.27564 0.04168 0.44099 0.0
H519 H 0.0805 0.19501 0.7593 0.0
H520 H 0.16598 0.1483 0.73099 0.0
H521 H 0.24253 0.21778 0.74269 0.0
H522 H 0.15123 0.31646 0.75266 0.0
H523 H 0.1458 0.33762 0.77263 0.0
H524 H 0.09809 0.27915 0.7648 0.0
H525 H 0.10744 0.23623 0.79026 0.0
H526 H 0.15504 0.29485 0.79829 0.0
H527 H 0.16702 0.245 0.79573 0.0
H528 H 0.30895 0.29977 0.7536 0.0
H529 H 0.35955 0.38574 0.76357 0.0
H530 H 0.23044 0.37832 0.78469 0.0
C531 C 0.11521 0.19843 0.75589 0.0
C532 C 0.11716 0.16612 0.74423 0.0
C533 C 0.16346 0.17229 0.74 0.0
C534 C 0.20717 0.21168 0.74659 0.0
C535 C 0.20389 0.24404 0.75755 0.0
C536 C 0.15899 0.23736 0.76234 0.0
C537 C 0.16516 0.27983 0.77292 0.0
C538 C 0.13851 0.30472 0.76529 0.0
C539 C 0.14763 0.26296 0.79033 0.0
C540 C 0.2204 0.31278 0.77261 0.0
C541 C 0.24224 0.29118 0.76395 0.0
C542 C 0.29243 0.31652 0.76077 0.0
C543 C 0.32084 0.36529 0.76643 0.0
C544 C 0.29895 0.38816 0.77514 0.0
C545 C 0.24824 0.36121 0.77843 0.0
H546 H 0.92398 0.01511 0.66365 0.0
H547 H 0.91734 0.10393 0.70326 0.0
H548 H 0.86378 0.12247 0.68631 0.0
H549 H 0.93767 0.09302 0.63326 0.0
H550 H 0.90064 0.04725 0.61792 0.0
H551 H 0.92978 0.03233 0.63404 0.0
H552 H 0.84545 0.95913 0.64214 0.0
H553 H 0.81595 0.9735 0.62589 0.0
H554 H 0.79534 0.96941 0.64655 0.0
H555 H 0.82518 0.14398 0.66391 0.0
H556 H 0.79972 0.16342 0.6379 0.0
H557 H 0.8286 0.05919 0.61259 0.0
C558 C 0.90968 0.03691 0.66894 0.0
C559 C 0.92449 0.05788 0.68477 0.0
C560 C 0.90624 0.08736 0.69116 0.0
C561 C 0.87567 0.09797 0.68165 0.0
C562 C 0.86337 0.07847 0.66583 0.0
C563 C 0.87922 0.04801 0.65955 0.0
C564 C 0.8652 0.03633 0.64162 0.0
C565 C 0.91105 0.05327 0.6311 0.0
C566 C 0.82828 0.98132 0.6389 0.0
C567 C 0.84118 0.06687 0.63864 0.0
C568 C 0.83993 0.09035 0.65282 0.0
C569 C 0.8244 0.12462 0.65282 0.0
C570 C 0.81 0.13543 0.63794 0.0
C571 C 0.81076 0.11167 0.62324 0.0
C572 C 0.82614 0.07663 0.62371 0.0
H573 H 0.86813 0.96816 0.00255 0.0
H574 H 0.94493 0.90694 0.02864 0.0
H575 H 0.90668 0.83423 0.01013 0.0
H576 H 0.75418 0.84968 0.99167 0.0
H577 H 0.74972 0.87119 0.97179 0.0
H578 H 0.77619 0.91402 0.98877 0.0
H579 H 0.85529 0.966 0.97231 0.0
H580 H 0.82932 0.9233 0.95536 0.0
H581 H 0.88783 0.9373 0.96416 0.0
H582 H 0.86754 0.773 0.98717 0.0
H583 H 0.83249 0.729 0.96088 0.0
H584 H 0.78426 0.83202 0.94913 0.0
C585 C 0.87564 0.93871 0.00469 0.0
C586 C 0.90899 0.94282 0.01713 0.0
C587 C 0.91923 0.90432 0.01922 0.0
C588 C 0.89753 0.86283 0.00882 0.0
C589 C 0.86585 0.86054 0.99637 0.0
C590 C 0.85488 0.89744 0.99427 0.0
C591 C 0.82419 0.88879 0.9789 0.0
C592 C 0.77303 0.88041 0.98303 0.0
C593 C 0.85077 0.93137 0.96698 0.0
C594 C 0.821 0.84215 0.9724 0.0
C595 C 0.84441 0.8259 0.98282 0.0
C596 C 0.84851 0.78496 0.97902 0.0
C597 C 0.82865 0.7603 0.96408 0.0
C598 C 0.8055 0.77703 0.95307 0.0
C599 C 0.80124 0.81814 0.95741 0.0
H600 H 0.07535 0.00555 0.32858 0.0
H601 H 0.98513 0.91632 0.36805 0.0
H602 H 0.97562 0.84227 0.35441 0.0
H603 H 0.00275 0.92489 0.29779 0.0
H604 H 0.05186 0.93456 0.28444 0.0
H605 H 0.06026 0.98237 0.29857 0.0
H606 H 0.1378 0.98519 0.31092 0.0
H607 H 0.12985 0.93753 0.29671 0.0
H608 H 0.1336 0.92961 0.31833 0.0
H609 H 0.96616 0.77735 0.33541 0.0
H610 H 0.95609 0.72443 0.31163 0.0
H611 H 0.0513 0.85345 0.28368 0.0
C612 C 0.05501 0.97054 0.33453 0.0
C613 C 0.03143 0.9666 0.34945 0.0
C614 C 0.00365 0.92016 0.35668 0.0
C615 C 0.99825 0.87785 0.34905 0.0
C616 C 0.02057 0.88249 0.33412 0.0
C617 C 0.04849 0.92754 0.32688 0.0
C618 C 0.06335 0.92122 0.30987 0.0
C619 C 0.04334 0.94198 0.29691 0.0
C620 C 0.11949 0.94478 0.30891 0.0
C621 C 0.03794 0.86565 0.30856 0.0
C622 C 0.0142 0.84424 0.32281 0.0
C623 C 0.98515 0.79356 0.32425 0.0
C624 C 0.97948 0.76382 0.31065 0.0
C625 C 0.00246 0.7848 0.29576 0.0
C626 C 0.03313 0.8364 0.29488 0.0
H627 H 0.13135 0.0076 0.68845 0.0
H628 H 0.1405 0.14058 0.6701 0.0
H629 H 0.2 0.14677 0.64967 0.0
H630 H 0.26211 0.04635 0.68248 0.0
H631 H 0.24834 0.98555 0.67638 0.0
H632 H 0.20901 0.99326 0.69044 0.0
H633 H 0.13385 0.94012 0.67134 0.0
H634 H 0.17295 0.93251 0.65719 0.0
H635 H 0.13535 0.95723 0.65034 0.0
H636 H 0.25156 0.13466 0.62966 0.0
H637 H 0.29732 0.10801 0.61222 0.0
H638 H 0.25821 0.98447 0.64376 0.0
C639 C 0.14651 0.03843 0.6803 0.0
C640 C 0.13129 0.07364 0.68088 0.0
C641 C 0.15164 0.11321 0.66992 0.0
C642 C 0.18549 0.11708 0.65826 0.0
C643 C 0.199 0.08133 0.65778 0.0
C644 C 0.18065 0.04303 0.66859 0.0
C645 C 0.20024 0.00875 0.66503 0.0
C646 C 0.23181 0.00848 0.67944 0.0
C647 C 0.15807 0.95657 0.66071 0.0
C648 C 0.2315 0.03326 0.65032 0.0
C649 C 0.23024 0.07512 0.6464 0.0
C650 C 0.25383 0.10262 0.6328 0.0
C651 C 0.27983 0.08723 0.62299 0.0
C652 C 0.28275 0.04509 0.62695 0.0
C653 C 0.25778 0.0176 0.64073 0.0
H654 H 0.14511 0.18043 0.01692 0.0
H655 H 0.01177 0.15196 0.9912 0.0
H656 H 0.06125 0.21394 0.97095 0.0
H657 H 0.20556 0.30654 0.01344 0.0
H658 H 0.26628 0.31572 0.01051 0.0
H659 H 0.2216 0.26335 0.02149 0.0
H660 H 0.2322 0.20506 0.00159 0.0
H661 H 0.27735 0.25737 0.9906 0.0
H662 H 0.2243 0.20892 0.97993 0.0
H663 H 0.12286 0.28549 0.95581 0.0
H664 H 0.1939 0.36216 0.94632 0.0
H665 H 0.28876 0.34532 0.98127 0.0
C666 C 0.12661 0.18622 0.0067 0.0
C667 C 0.07471 0.16124 0.00551 0.0
C668 C 0.05153 0.17073 0.99229 0.0
C669 C 0.0793 0.20569 0.98069 0.0
C670 C 0.1303 0.23095 0.98245 0.0
C671 C 0.15393 0.22156 0.99503 0.0
C672 C 0.20893 0.25745 0.99496 0.0
C673 C 0.2266 0.28754 0.01105 0.0
C674 C 0.23737 0.23059 0.99157 0.0
C675 C 0.21208 0.28929 0.98076 0.0
C676 C 0.16632 0.27292 0.97362 0.0
C677 C 0.15908 0.29826 0.9611 0.0
C678 C 0.1996 0.34184 0.95582 0.0
C679 C 0.2468 0.3598 0.96308 0.0
C680 C 0.25313 0.33245 0.97548 0.0
H681 H 0.05254 0.16578 0.33068 0.0
H682 H 0.07385 0.22442 0.38011 0.0
H683 H 0.0914 0.30469 0.36938 0.0
H684 H 0.15313 0.27558 0.31432 0.0
H685 H 0.12295 0.26875 0.29484 0.0
H686 H 0.10875 0.21528 0.3065 0.0
H687 H 0.01632 0.189 0.30545 0.0
H688 H 0.03032 0.24265 0.29391 0.0
H689 H 0.99747 0.23107 0.31273 0.0
H690 H 0.10654 0.37826 0.35323 0.0
H691 H 0.12662 0.44259 0.33283 0.0
H692 H 0.10132 0.33759 0.29391 0.0
C693 C 0.06055 0.19552 0.3392 0.0
C694 C 0.06147 0.18912 0.3562 0.0
C695 C 0.07309 0.22888 0.36704 0.0
C696 C 0.08279 0.27438 0.36106 0.0
C697 C 0.08161 0.27962 0.34421 0.0
C698 C 0.07161 0.24153 0.33342 0.0
C699 C 0.07636 0.25785 0.31588 0.0
C700 C 0.11776 0.25415 0.30739 0.0
C701 C 0.02717 0.22838 0.30644 0.0
C702 C 0.08991 0.31088 0.31848 0.0
C703 C 0.09224 0.32255 0.3349 0.0
C704 C 0.10467 0.36951 0.34033 0.0
C705 C 0.11576 0.4057 0.32868 0.0
C706 C 0.11448 0.39486 0.31179 0.0
C707 C 0.10143 0.34671 0.30669 0.0
loop_
_geom_bond_atom_site_label_1
_geom_bond_atom_site_label_2
_geom_bond_distance
_geom_bond_site_symmetry_2
_ccdc_geom_bond_type
Co0 O1 2.216 . S
Co0 O2 2.091 . S
Co0 O4 2.004 . S
Co0 O10 2.021 . S
Co0 O12 2.137 . S
Co0 O13 2.244 . S
O1 Co0 2.216 . S
O1 C8 1.247 1_545 S
O2 Co0 2.091 . S
O2 C8 1.261 1_545 S
C3 O12 1.247 . S
C3 O13 1.272 . S
O4 Co0 2.004 . S
O4 C9 1.259 . S
Co5 O6 2.061 1_655 S
Co5 O11 2.052 . S
Co5 O13 2.135 1_655 S
O6 Co5 2.061 1_455 S
O6 C9 1.235 . S
C7 O10 1.238 1_655 S
C7 O11 1.241 . S
C8 O1 1.247 1_565 S
C8 O2 1.261 1_565 S
C9 O4 1.259 . S
C9 O6 1.235 . S
O10 Co0 2.021 . S
O10 C7 1.238 1_455 S
O11 Co5 2.052 . S
O11 C7 1.241 . S
O12 Co0 2.137 . S
O12 C3 1.247 . S
O13 Co0 2.244 . S
O13 C3 1.272 . S
O13 Co5 2.135 1_455 S
Co14 O15 2.216 . S
Co14 O16 2.091 . S
Co14 O18 2.004 . S
Co14 O24 2.021 . S
Co14 O26 2.137 . S
Co14 O27 2.244 . S
O15 Co14 2.216 . S
O15 C22 1.247 . S
O16 Co14 2.091 . S
O16 C22 1.261 . S
C17 O26 1.247 . S
C17 O27 1.272 . S
O18 Co14 2.004 . S
O18 C23 1.259 . S
Co19 O20 2.061 1_565 S
Co19 O25 2.052 1_465 S
Co19 O27 2.135 1_565 S
O20 Co19 2.061 1_545 S
O20 C23 1.235 . S
C21 O24 1.238 1_655 S
C21 O25 1.241 . S
C22 O15 1.247 . S
C22 O16 1.261 . S
C23 O18 1.259 . S
C23 O20 1.235 . S
O24 Co14 2.021 . S
O24 C21 1.238 1_455 S
O25 Co19 2.052 1_645 S
O25 C21 1.241 . S
O26 Co14 2.137 . S
O26 C17 1.247 . S
O27 Co14 2.244 . S
O27 C17 1.272 . S
O27 Co19 2.135 1_545 S
Co28 O29 2.216 . S
Co28 O30 2.091 . S
Co28 O32 2.004 1_445 S
Co28 O38 2.021 . S
Co28 O40 2.137 1_455 S
Co28 O41 2.244 1_455 S
O29 Co28 2.216 . S
O29 C36 1.247 . S
O30 Co28 2.091 . S
O30 C36 1.261 . S
C31 O40 1.247 . S
C31 O41 1.272 . S
O32 Co28 2.004 1_665 S
O32 C37 1.259 . S
Co33 O34 2.061 . S
Co33 O39 2.052 1_655 S
Co33 O41 2.135 . S
O34 Co33 2.061 . S
O34 C37 1.235 1_545 S
C35 O38 1.238 . S
C35 O39 1.241 . S
C36 O29 1.247 . S
C36 O30 1.261 . S
C37 O32 1.259 . S
C37 O34 1.235 1_565 S
O38 Co28 2.021 . S
O38 C35 1.238 . S
O39 Co33 2.052 1_455 S
O39 C35 1.241 . S
O40 Co28 2.137 1_655 S
O40 C31 1.247 . S
O41 Co28 2.244 1_655 S
O41 C31 1.272 . S
O41 Co33 2.135 . S
C42 C43 1.560 1_655 S
C42 H103 0.959 . S
C42 H104 0.959 . S
C42 H105 0.960 . S
C43 C42 1.560 1_455 S
C43 O98 1.426 1_455 S
C43 H102 0.980 . S
C44 C45 1.407 . S
C44 C49 1.418 1_455 S
C44 O98 1.334 1_455 S
C45 C44 1.407 . S
C45 C46 1.360 . S
C45 H106 0.929 . S
C46 C45 1.360 . S
C46 C47 1.401 . S
C46 C50 1.527 . S
C47 C46 1.401 . S
C47 C48 1.405 1_455 S
C47 C80 1.587 . S
C48 C47 1.405 1_655 S
C48 C49 1.332 . S
C48 C51 1.496 . S
C49 C44 1.418 1_655 S
C49 C48 1.332 . S
C49 H107 0.929 . S
C50 C46 1.527 . S
C50 H108 0.959 . S
C50 H109 0.961 . S
C50 H110 0.961 . S
C51 C48 1.496 . S
C51 H111 0.960 . S
C51 H112 0.960 . S
C51 H113 0.961 . S
C52 C53 1.517 . S
C52 H115 0.961 . S
C52 H116 0.960 . S
C52 H117 0.959 . S
C53 C52 1.517 . S
C53 O101 1.468 . S
C53 H114 0.980 . S
C54 C55 1.349 . S
C54 C59 1.367 . S
C54 O101 1.408 . S
C55 C54 1.349 . S
C55 C56 1.407 . S
C55 H118 0.930 . S
C56 C55 1.407 . S
C56 C57 1.449 . S
C56 C60 1.535 1_455 S
C57 C56 1.449 . S
C57 C58 1.384 . S
C57 C82 1.553 . S
C58 C57 1.384 . S
C58 C59 1.364 . S
C58 C61 1.450 . S
C59 C54 1.367 . S
C59 C58 1.364 . S
C59 H119 0.931 . S
C60 C56 1.535 1_655 S
C60 H120 0.959 . S
C60 H121 0.961 . S
C60 H122 0.959 . S
C61 C58 1.450 . S
C61 H123 0.960 . S
C61 H124 0.960 . S
C61 H125 0.960 . S
C62 C63 1.309 . S
C62 C67 1.304 . S
C62 O100 1.435 . S
C63 C62 1.309 . S
C63 C64 1.476 . S
C63 H127 0.933 . S
C64 C63 1.476 . S
C64 C65 1.400 . S
C64 C68 1.567 1_455 S
C65 C64 1.400 . S
C65 C66 1.373 . S
C65 C87 1.432 . S
C66 C65 1.373 . S
C66 C67 1.339 . S
C66 C69 1.530 . S
C67 C62 1.304 . S
C67 C66 1.339 . S
C67 H128 0.930 . S
C68 C64 1.567 1_655 S
C68 H129 0.961 . S
C68 H130 0.960 . S
C68 H131 0.958 . S
C69 C66 1.530 . S
C69 H132 0.961 . S
C69 H133 0.960 . S
C69 H134 0.960 . S
C70 C71 1.530 1_655 S
C70 H136 0.961 1_655 S
C70 H137 0.961 . S
C70 H138 0.959 . S
C71 C70 1.530 1_455 S
C71 O99 1.412 1_455 S
C71 H135 0.980 . S
C72 C73 1.288 . S
C72 C77 1.377 1_655 S
C72 O99 1.393 . S
C73 C72 1.288 . S
C73 C74 1.369 . S
C73 H139 0.932 . S
C74 C73 1.369 . S
C74 C75 1.398 1_655 S
C74 C78 1.527 . S
C75 C74 1.398 1_455 S
C75 C76 1.380 . S
C75 C89 1.497 . S
C76 C75 1.380 . S
C76 C77 1.383 . S
C76 C79 1.603 . S
C77 C72 1.377 1_455 S
C77 C76 1.383 . S
C77 H140 0.929 . S
C78 C74 1.527 . S
C78 H141 0.961 . S
C78 H142 0.959 . S
C78 H143 0.959 . S
C79 C76 1.603 . S
C79 H144 0.960 . S
C79 H145 0.962 . S
C79 H146 0.961 . S
C80 C47 1.587 . S
C80 C81 1.360 . S
C80 C93 1.412 . S
C81 C80 1.360 . S
C81 C82 1.365 . S
C81 H147 0.929 . S
C82 C57 1.553 . S
C82 C81 1.365 . S
C82 C83 1.404 . S
C83 C82 1.404 . S
C83 C84 1.395 . S
C83 C94 1.451 . S
C84 C83 1.395 . S
C84 C85 1.322 . S
C84 H148 0.930 . S
C85 C84 1.322 . S
C85 C86 1.459 . S
C85 H149 0.929 . S
C86 C85 1.459 . S
C86 C87 1.445 . S
C86 C95 1.395 . S
C87 C65 1.432 . S
C87 C86 1.445 . S
C87 C88 1.370 . S
C88 C87 1.370 . S
C88 C89 1.438 . S
C88 H150 0.930 . S
C89 C75 1.497 . S
C89 C88 1.438 . S
C89 C90 1.360 . S
C90 C89 1.360 . S
C90 C91 1.401 . S
C90 C95 1.446 . S
C91 C90 1.401 . S
C91 C92 1.347 . S
C91 H151 0.929 . S
C92 C91 1.347 . S
C92 C93 1.455 . S
C92 H152 0.930 . S
C93 C80 1.412 . S
C93 C92 1.455 . S
C93 C94 1.331 . S
C94 C83 1.451 . S
C94 C93 1.331 . S
C94 C95 1.497 . S
C95 C86 1.395 . S
C95 C90 1.446 . S
C95 C94 1.497 . S
C96 C97 1.582 . S
C96 H153 0.962 . S
C96 H154 0.959 . S
C96 H155 0.958 . S
C97 C96 1.582 . S
C97 O100 1.458 . S
C97 H126 0.980 . S
O98 C43 1.426 1_655 S
O98 C44 1.334 1_655 S
O99 C71 1.412 1_655 S
O99 C72 1.393 . S
O100 C62 1.435 . S
O100 C97 1.458 . S
O101 C53 1.468 . S
O101 C54 1.408 . S
H102 C43 0.980 . S
H103 C42 0.959 . S
H104 C42 0.959 . S
H105 C42 0.960 . S
H106 C45 0.929 . S
H107 C49 0.929 . S
H108 C50 0.959 . S
H109 C50 0.961 . S
H110 C50 0.961 . S
H111 C51 0.960 . S
H112 C51 0.960 . S
H113 C51 0.961 . S
H114 C53 0.980 . S
H115 C52 0.961 . S
H116 C52 0.960 . S
H117 C52 0.959 . S
H118 C55 0.930 . S
H119 C59 0.931 . S
H120 C60 0.959 . S
H121 C60 0.961 . S
H122 C60 0.959 . S
H123 C61 0.960 . S
H124 C61 0.960 . S
H125 C61 0.960 . S
H126 C97 0.980 . S
H127 C63 0.933 . S
H128 C67 0.930 . S
H129 C68 0.961 . S
H130 C68 0.960 . S
H131 C68 0.958 . S
H132 C69 0.961 . S
H133 C69 0.960 . S
H134 C69 0.960 . S
H135 C71 0.980 . S
H136 C70 0.961 1_455 S
H137 C70 0.961 . S
H138 C70 0.959 . S
H139 C73 0.932 . S
H140 C77 0.929 . S
H141 C78 0.961 . S
H142 C78 0.959 . S
H143 C78 0.959 . S
H144 C79 0.960 . S
H145 C79 0.962 . S
H146 C79 0.961 . S
H147 C81 0.929 . S
H148 C84 0.930 . S
H149 C85 0.929 . S
H150 C88 0.930 . S
H151 C91 0.929 . S
H152 C92 0.930 . S
H153 C96 0.962 . S
H154 C96 0.959 . S
H155 C96 0.958 . S
C156 C157 1.549 1_565 S
C156 H217 0.981 . S
C156 H218 0.967 . S
C156 H219 0.943 1_565 S
C157 C156 1.549 1_545 S
C157 O212 1.426 . S
C157 H216 0.980 . S
C158 C159 1.407 . S
C158 C163 1.418 . S
C158 O212 1.334 . S
C159 C158 1.407 . S
C159 C160 1.360 . S
C159 H220 0.929 . S
C160 C159 1.360 . S
C160 C161 1.401 . S
C160 C164 1.527 . S
C161 C160 1.401 . S
C161 C162 1.405 . S
C161 C194 1.587 . S
C162 C161 1.405 . S
C162 C163 1.332 . S
C162 C165 1.496 1_545 S
C163 C158 1.418 . S
C163 C162 1.332 . S
C163 H221 0.929 1_545 S
C164 C160 1.527 . S
C164 H222 0.959 . S
C164 H223 0.961 . S
C164 H224 0.961 . S
C165 C162 1.496 1_565 S
C165 H225 0.960 . S
C165 H226 0.960 . S
C165 H227 0.961 . S
C166 C167 1.517 . S
C166 H229 0.961 . S
C166 H230 0.960 . S
C166 H231 0.959 . S
C167 C166 1.517 . S
C167 O215 1.468 . S
C167 H228 0.980 . S
C168 C169 1.349 . S
C168 C173 1.367 . S
C168 O215 1.408 . S
C169 C168 1.349 . S
C169 C170 1.407 . S
C169 H232 0.930 . S
C170 C169 1.407 . S
C170 C171 1.449 . S
C170 C174 1.535 . S
C171 C170 1.449 . S
C171 C172 1.384 . S
C171 C196 1.553 . S
C172 C171 1.384 . S
C172 C173 1.364 . S
C172 C175 1.450 . S
C173 C168 1.367 . S
C173 C172 1.364 . S
C173 H233 0.931 . S
C174 C170 1.535 . S
C174 H234 0.959 . S
C174 H235 0.961 . S
C174 H236 0.959 . S
C175 C172 1.450 . S
C175 H237 0.960 . S
C175 H238 0.960 . S
C175 H239 0.960 . S
C176 C177 1.309 . S
C176 C181 1.304 . S
C176 O214 1.435 . S
C177 C176 1.309 . S
C177 C178 1.476 . S
C177 H241 0.930 . S
C178 C177 1.476 . S
C178 C179 1.400 . S
C178 C182 1.567 . S
C179 C178 1.400 . S
C179 C180 1.373 . S
C179 C201 1.432 . S
C180 C179 1.373 . S
C180 C181 1.339 . S
C180 C183 1.530 . S
C181 C176 1.304 . S
C181 C180 1.339 . S
C181 H242 0.930 . S
C182 C178 1.567 . S
C182 H243 0.961 . S
C182 H244 0.960 1_545 S
C182 H245 0.958 1_545 S
C183 C180 1.530 . S
C183 H246 0.961 . S
C183 H247 0.960 . S
C183 H248 0.960 . S
C184 C185 1.530 . S
C184 H250 0.961 . S
C184 H251 0.961 . S
C184 H252 0.959 . S
C185 C184 1.530 . S
C185 O213 1.412 . S
C185 H249 0.980 . S
C186 C187 1.288 . S
C186 C191 1.377 . S
C186 O213 1.393 . S
C187 C186 1.288 . S
C187 C188 1.369 . S
C187 H253 0.932 1_545 S
C188 C187 1.369 . S
C188 C189 1.398 . S
C188 C192 1.527 1_545 S
C189 C188 1.398 . S
C189 C190 1.380 . S
C189 C203 1.497 . S
C190 C189 1.380 . S
C190 C191 1.383 . S
C190 C193 1.603 . S
C191 C186 1.377 . S
C191 C190 1.383 . S
C191 H254 0.929 . S
C192 C188 1.527 1_565 S
C192 H255 0.961 . S
C192 H256 0.959 . S
C192 H257 0.959 . S
C193 C190 1.603 . S
C193 H258 0.960 . S
C193 H259 0.962 . S
C193 H260 0.961 . S
C194 C161 1.587 . S
C194 C195 1.360 . S
C194 C207 1.412 . S
C195 C194 1.360 . S
C195 C196 1.365 . S
C195 H261 0.929 . S
C196 C171 1.553 . S
C196 C195 1.365 . S
C196 C197 1.404 . S
C197 C196 1.404 . S
C197 C198 1.395 . S
C197 C208 1.451 . S
C198 C197 1.395 . S
C198 C199 1.322 . S
C198 H262 0.930 . S
C199 C198 1.322 . S
C199 C200 1.459 . S
C199 H263 0.929 . S
C200 C199 1.459 . S
C200 C201 1.445 . S
C200 C209 1.395 . S
C201 C179 1.432 . S
C201 C200 1.445 . S
C201 C202 1.370 . S
C202 C201 1.370 . S
C202 C203 1.438 . S
C202 H264 0.930 . S
C203 C189 1.497 . S
C203 C202 1.438 . S
C203 C204 1.360 . S
C204 C203 1.360 . S
C204 C205 1.401 . S
C204 C209 1.446 . S
C205 C204 1.401 . S
C205 C206 1.347 . S
C205 H265 0.929 . S
C206 C205 1.347 . S
C206 C207 1.455 . S
C206 H266 0.930 . S
C207 C194 1.412 . S
C207 C206 1.455 . S
C207 C208 1.331 . S
C208 C197 1.451 . S
C208 C207 1.331 . S
C208 C209 1.497 . S
C209 C200 1.395 . S
C209 C204 1.446 . S
C209 C208 1.497 . S
C210 C211 1.582 . S
C210 H267 0.962 . S
C210 H268 0.959 . S
C210 H269 0.958 . S
C211 C210 1.582 . S
C211 O214 1.458 . S
C211 H240 0.980 . S
O212 C157 1.426 . S
O212 C158 1.334 . S
O213 C185 1.412 . S
O213 C186 1.393 . S
O214 C176 1.435 . S
O214 C211 1.458 . S
O215 C167 1.468 . S
O215 C168 1.408 . S
H216 C157 0.980 . S
H217 C156 0.981 . S
H218 C156 0.967 . S
H219 C156 0.943 1_545 S
H220 C159 0.929 . S
H221 C163 0.929 1_565 S
H222 C164 0.959 . S
H223 C164 0.961 . S
H224 C164 0.961 . S
H225 C165 0.960 . S
H226 C165 0.960 . S
H227 C165 0.961 . S
H228 C167 0.980 . S
H229 C166 0.961 . S
H230 C166 0.960 . S
H231 C166 0.959 . S
H232 C169 0.930 . S
H233 C173 0.931 . S
H234 C174 0.959 . S
H235 C174 0.961 . S
H236 C174 0.959 . S
H237 C175 0.960 . S
H238 C175 0.960 . S
H239 C175 0.960 . S
H240 C211 0.980 . S
H241 C177 0.930 . S
H242 C181 0.930 . S
H243 C182 0.961 . S
H244 C182 0.960 1_565 S
H245 C182 0.958 1_565 S
H246 C183 0.961 . S
H247 C183 0.960 . S
H248 C183 0.960 . S
H249 C185 0.980 . S
H250 C184 0.961 . S
H251 C184 0.961 . S
H252 C184 0.959 . S
H253 C187 0.932 1_565 S
H254 C191 0.929 . S
H255 C192 0.961 . S
H256 C192 0.959 . S
H257 C192 0.959 . S
H258 C193 0.960 . S
H259 C193 0.962 . S
H260 C193 0.961 . S
H261 C195 0.929 . S
H262 C198 0.930 . S
H263 C199 0.929 . S
H264 C202 0.930 . S
H265 C205 0.929 . S
H266 C206 0.930 . S
H267 C210 0.962 . S
H268 C210 0.959 . S
H269 C210 0.958 . S
C270 C271 1.560 . S
C270 H331 0.959 . S
C270 H332 0.959 . S
C270 H333 0.960 . S
C271 C270 1.560 . S
C271 O326 1.426 . S
C271 H330 0.980 . S
C272 C273 1.407 . S
C272 C277 1.418 . S
C272 O326 1.334 . S
C273 C272 1.407 . S
C273 C274 1.360 . S
C273 H334 0.929 . S
C274 C273 1.360 . S
C274 C275 1.401 . S
C274 C278 1.527 . S
C275 C274 1.401 . S
C275 C276 1.405 . S
C275 C308 1.587 . S
C276 C275 1.405 . S
C276 C277 1.332 . S
C276 C279 1.496 . S
C277 C272 1.418 . S
C277 C276 1.332 . S
C277 H335 0.929 . S
C278 C274 1.527 . S
C278 H336 0.959 . S
C278 H337 0.961 . S
C278 H338 0.961 . S
C279 C276 1.496 . S
C279 H339 0.960 . S
C279 H340 0.960 . S
C279 H341 0.961 . S
C280 C281 1.517 . S
C280 H343 0.961 . S
C280 H344 0.960 . S
C280 H345 0.959 . S
C281 C280 1.517 . S
C281 O329 1.468 . S
C281 H342 0.980 . S
C282 C283 1.349 . S
C282 C287 1.367 . S
C282 O329 1.408 . S
C283 C282 1.349 . S
C283 C284 1.407 . S
C283 H346 0.930 . S
C284 C283 1.407 . S
C284 C285 1.449 . S
C284 C288 1.535 . S
C285 C284 1.449 . S
C285 C286 1.384 . S
C285 C310 1.553 . S
C286 C285 1.384 . S
C286 C287 1.364 . S
C286 C289 1.450 . S
C287 C282 1.367 . S
C287 C286 1.364 . S
C287 H347 0.931 . S
C288 C284 1.535 . S
C288 H348 0.959 . S
C288 H349 0.961 . S
C288 H350 0.959 . S
C289 C286 1.450 . S
C289 H351 0.960 . S
C289 H352 0.960 . S
C289 H353 0.960 . S
C290 C291 1.309 . S
C290 C295 1.304 . S
C290 O328 1.435 . S
C291 C290 1.309 . S
C291 C292 1.476 . S
C291 H355 0.930 . S
C292 C291 1.476 . S
C292 C293 1.400 . S
C292 C296 1.567 . S
C293 C292 1.400 . S
C293 C294 1.373 . S
C293 C315 1.432 . S
C294 C293 1.373 . S
C294 C295 1.339 . S
C294 C297 1.530 . S
C295 C290 1.304 . S
C295 C294 1.339 . S
C295 H356 0.930 . S
C296 C292 1.567 . S
C296 H357 0.961 . S
C296 H358 0.960 . S
C296 H359 0.958 . S
C297 C294 1.530 . S
C297 H360 0.961 . S
C297 H361 0.960 . S
C297 H362 0.960 . S
C298 C299 1.530 . S
C298 H364 0.961 . S
C298 H365 0.961 . S
C298 H366 0.959 . S
C299 C298 1.530 . S
C299 O327 1.412 . S
C299 H363 0.980 . S
C300 C301 1.288 . S
C300 C305 1.377 . S
C300 O327 1.393 . S
C301 C300 1.288 . S
C301 C302 1.369 . S
C301 H367 0.932 . S
C302 C301 1.369 . S
C302 C303 1.398 . S
C302 C306 1.527 . S
C303 C302 1.398 . S
C303 C304 1.380 . S
C303 C317 1.497 . S
C304 C303 1.380 . S
C304 C305 1.383 . S
C304 C307 1.603 . S
C305 C300 1.377 . S
C305 C304 1.383 . S
C305 H368 0.929 . S
C306 C302 1.527 . S
C306 H369 0.961 . S
C306 H370 0.959 . S
C306 H371 0.959 . S
C307 C304 1.603 . S
C307 H372 0.960 . S
C307 H373 0.962 . S
C307 H374 0.961 . S
C308 C275 1.587 . S
C308 C309 1.360 . S
C308 C321 1.412 . S
C309 C308 1.360 . S
C309 C310 1.365 . S
C309 H375 0.929 . S
C310 C285 1.553 . S
C310 C309 1.365 . S
C310 C311 1.404 . S
C311 C310 1.404 . S
C311 C312 1.395 . S
C311 C322 1.451 . S
C312 C311 1.395 . S
C312 C313 1.322 . S
C312 H376 0.930 . S
C313 C312 1.322 . S
C313 C314 1.459 . S
C313 H377 0.929 . S
C314 C313 1.459 . S
C314 C315 1.445 . S
C314 C323 1.395 . S
C315 C293 1.432 . S
C315 C314 1.445 . S
C315 C316 1.370 . S
C316 C315 1.370 . S
C316 C317 1.438 . S
C316 H378 0.930 . S
C317 C303 1.497 . S
C317 C316 1.438 . S
C317 C318 1.360 . S
C318 C317 1.360 . S
C318 C319 1.401 . S
C318 C323 1.446 . S
C319 C318 1.401 . S
C319 C320 1.347 . S
C319 H379 0.929 . S
C320 C319 1.347 . S
C320 C321 1.455 . S
C320 H380 0.930 . S
C321 C308 1.412 . S
C321 C320 1.455 . S
C321 C322 1.331 . S
C322 C311 1.451 . S
C322 C321 1.331 . S
C322 C323 1.497 . S
C323 C314 1.395 . S
C323 C318 1.446 . S
C323 C322 1.497 . S
C324 C325 1.582 . S
C324 H381 0.962 . S
C324 H382 0.959 . S
C324 H383 0.958 . S
C325 C324 1.582 . S
C325 O328 1.458 . S
C325 H354 0.980 . S
O326 C271 1.426 . S
O326 C272 1.334 . S
O327 C299 1.412 . S
O327 C300 1.393 . S
O328 C290 1.435 . S
O328 C325 1.458 . S
O329 C281 1.468 . S
O329 C282 1.408 . S
H330 C271 0.980 . S
H331 C270 0.959 . S
H332 C270 0.959 . S
H333 C270 0.960 . S
H334 C273 0.929 . S
H335 C277 0.929 . S
H336 C278 0.959 . S
H337 C278 0.961 . S
H338 C278 0.961 . S
H339 C279 0.960 . S
H340 C279 0.960 . S
H341 C279 0.961 . S
H342 C281 0.980 . S
H343 C280 0.961 . S
H344 C280 0.960 . S
H345 C280 0.959 . S
H346 C283 0.930 . S
H347 C287 0.931 . S
H348 C288 0.959 . S
H349 C288 0.961 . S
H350 C288 0.959 . S
H351 C289 0.960 . S
H352 C289 0.960 . S
H353 C289 0.960 . S
H354 C325 0.980 . S
H355 C291 0.930 . S
H356 C295 0.930 . S
H357 C296 0.961 . S
H358 C296 0.960 . S
H359 C296 0.958 . S
H360 C297 0.961 . S
H361 C297 0.960 . S
H362 C297 0.960 . S
H363 C299 0.980 . S
H364 C298 0.961 . S
H365 C298 0.961 . S
H366 C298 0.959 . S
H367 C301 0.932 . S
H368 C305 0.929 . S
H369 C306 0.961 . S
H370 C306 0.959 . S
H371 C306 0.959 . S
H372 C307 0.960 . S
H373 C307 0.962 . S
H374 C307 0.961 . S
H375 C309 0.929 . S
H376 C312 0.930 . S
H377 C313 0.929 . S
H378 C316 0.930 . S
H379 C319 0.929 . S
H380 C320 0.930 . S
H381 C324 0.962 . S
H382 C324 0.959 . S
H383 C324 0.958 . S
H384 C396 0.930 . S
H385 C398 0.930 . S
H386 C399 0.930 . S
H387 C403 0.959 . S
H388 C403 0.959 . S
H389 C403 0.961 . S
H390 C404 0.960 . S
H391 C404 0.961 . S
H392 C404 0.959 . S
H393 C407 0.929 . S
H394 C408 0.931 . S
H395 C410 0.930 . S
C396 H384 0.930 . S
C396 C397 1.399 1_655 S
C396 C401 1.400 1_655 S
C397 C396 1.399 1_455 S
C397 C398 1.376 . S
C398 H385 0.930 . S
C398 C397 1.376 . S
C398 C399 1.388 . S
C399 H386 0.930 . S
C399 C398 1.388 . S
C399 C400 1.390 . S
C400 C399 1.390 . S
C400 C401 1.398 . S
C400 C406 1.465 . S
C401 C396 1.400 1_455 S
C401 C400 1.398 . S
C401 C402 1.511 1_455 S
C402 C401 1.511 1_655 S
C402 C403 1.502 . S
C402 C404 1.561 . S
C402 C405 1.526 . S
C403 H387 0.959 . S
C403 H388 0.959 . S
C403 H389 0.961 . S
C403 C402 1.502 . S
C404 H390 0.960 . S
C404 H391 0.961 . S
C404 H392 0.959 . S
C404 C402 1.561 . S
C405 C402 1.526 . S
C405 C406 1.396 1_655 S
C405 C410 1.390 . S
C406 C400 1.465 . S
C406 C405 1.396 1_455 S
C406 C407 1.399 . S
C407 H393 0.929 . S
C407 C406 1.399 . S
C407 C408 1.385 . S
C408 H394 0.931 . S
C408 C407 1.385 . S
C408 C409 1.389 . S
C409 C408 1.389 . S
C409 C410 1.387 1_455 S
C410 H395 0.930 . S
C410 C405 1.390 . S
C410 C409 1.387 1_655 S
H411 C423 0.930 . S
H412 C425 0.930 . S
H413 C426 0.930 1_565 S
H414 C430 0.959 . S
H415 C430 0.959 . S
H416 C430 0.961 . S
H417 C431 0.960 . S
H418 C431 0.961 . S
H419 C431 0.959 . S
H420 C434 0.929 1_565 S
H421 C435 0.926 1_565 S
H422 C437 0.930 . S
C423 H411 0.930 . S
C423 C424 1.399 . S
C423 C428 1.399 . S
C424 C423 1.399 . S
C424 C425 1.376 . S
C425 H412 0.930 . S
C425 C424 1.376 . S
C425 C426 1.388 . S
C426 H413 0.930 1_545 S
C426 C425 1.388 . S
C426 C427 1.390 . S
C427 C426 1.390 . S
C427 C428 1.394 . S
C427 C433 1.465 . S
C428 C423 1.399 . S
C428 C427 1.394 . S
C428 C429 1.516 . S
C429 C428 1.516 . S
C429 C430 1.502 . S
C429 C431 1.561 . S
C429 C432 1.526 . S
C430 H414 0.959 . S
C430 H415 0.959 . S
C430 H416 0.961 . S
C430 C429 1.502 . S
C431 H417 0.960 . S
C431 H418 0.961 . S
C431 H419 0.959 . S
C431 C429 1.561 . S
C432 C429 1.526 . S
C432 C433 1.396 . S
C432 C437 1.390 . S
C433 C427 1.465 . S
C433 C432 1.396 . S
C433 C434 1.399 . S
C434 H420 0.929 1_545 S
C434 C433 1.399 . S
C434 C435 1.385 . S
C435 H421 0.926 1_545 S
C435 C434 1.385 . S
C435 C436 1.389 . S
C436 C435 1.389 . S
C436 C437 1.387 . S
C437 H422 0.930 . S
C437 C432 1.390 . S
C437 C436 1.387 . S
H438 C450 0.930 . S
H439 C452 0.943 . S
H440 C453 0.930 . S
H441 C457 0.959 . S
H442 C457 0.959 . S
H443 C457 0.961 . S
H444 C458 0.960 . S
H445 C458 0.961 . S
H446 C458 0.959 . S
H447 C461 0.929 . S
H448 C462 0.931 . S
H449 C464 0.930 . S
C450 H438 0.930 . S
C450 C451 1.399 . S
C450 C455 1.399 . S
C451 C450 1.399 . S
C451 C452 1.376 . S
C452 H439 0.943 . S
C452 C451 1.376 . S
C452 C453 1.388 . S
C453 H440 0.930 . S
C453 C452 1.388 . S
C453 C454 1.390 . S
C454 C453 1.390 . S
C454 C455 1.394 . S
C454 C460 1.465 . S
C455 C450 1.399 . S
C455 C454 1.394 . S
C455 C456 1.516 . S
C456 C455 1.516 . S
C456 C457 1.502 . S
C456 C458 1.561 . S
C456 C459 1.526 . S
C457 H441 0.959 . S
C457 H442 0.959 . S
C457 H443 0.961 . S
C457 C456 1.502 . S
C458 H444 0.960 . S
C458 H445 0.961 . S
C458 H446 0.959 . S
C458 C456 1.561 . S
C459 C456 1.526 . S
C459 C460 1.396 . S
C459 C464 1.390 . S
C460 C454 1.465 . S
C460 C459 1.396 . S
C460 C461 1.399 . S
C461 H447 0.929 . S
C461 C460 1.399 . S
C461 C462 1.385 . S
C462 H448 0.931 . S
C462 C461 1.385 . S
C462 C463 1.389 . S
C463 C462 1.389 . S
C463 C464 1.387 . S
C464 H449 0.930 . S
C464 C459 1.390 . S
C464 C463 1.387 . S
H465 C477 0.930 1_655 S
H466 C479 0.930 1_545 S
H467 C480 0.930 . S
H468 C484 0.959 . S
H469 C484 0.959 . S
H470 C484 0.961 . S
H471 C485 0.960 . S
H472 C485 0.961 . S
H473 C485 0.959 . S
H474 C488 0.929 . S
H475 C489 0.931 . S
H476 C491 0.930 1_655 S
C477 H465 0.930 1_455 S
C477 C478 1.399 . S
C477 C482 1.399 . S
C478 C477 1.399 . S
C478 C479 1.376 . S
C479 H466 0.930 1_565 S
C479 C478 1.376 . S
C479 C480 1.388 . S
C480 H467 0.930 . S
C480 C479 1.388 . S
C480 C481 1.390 . S
C481 C480 1.390 . S
C481 C482 1.394 . S
C481 C487 1.465 . S
C482 C477 1.399 . S
C482 C481 1.394 . S
C482 C483 1.516 1_455 S
C483 C482 1.516 1_655 S
C483 C484 1.502 . S
C483 C485 1.561 1_655 S
C483 C486 1.526 1_655 S
C484 H468 0.959 . S
C484 H469 0.959 . S
C484 H470 0.961 . S
C484 C483 1.502 . S
C485 H471 0.960 . S
C485 H472 0.961 . S
C485 H473 0.959 . S
C485 C483 1.561 1_455 S
C486 C483 1.526 1_455 S
C486 C487 1.396 . S
C486 C491 1.390 . S
C487 C481 1.465 . S
C487 C486 1.396 . S
C487 C488 1.399 . S
C488 H474 0.929 . S
C488 C487 1.399 . S
C488 C489 1.385 . S
C489 H475 0.931 . S
C489 C488 1.385 . S
C489 C490 1.389 . S
C490 C489 1.389 . S
C490 C491 1.387 . S
C491 H476 0.930 1_455 S
C491 C486 1.390 . S
C491 C490 1.387 . S
H492 C504 0.930 . S
H493 C506 0.930 . S
H494 C507 0.930 . S
H495 C511 0.959 . S
H496 C511 0.959 . S
H497 C511 0.961 . S
H498 C512 0.960 . S
H499 C512 0.961 . S
H500 C512 0.959 . S
H501 C515 0.929 . S
H502 C516 0.931 . S
H503 C518 0.930 . S
C504 H492 0.930 . S
C504 C505 1.399 . S
C504 C509 1.399 . S
C505 C504 1.399 . S
C505 C506 1.376 . S
C506 H493 0.930 . S
C506 C505 1.376 . S
C506 C507 1.388 . S
C507 H494 0.930 . S
C507 C506 1.388 . S
C507 C508 1.390 . S
C508 C507 1.390 . S
C508 C509 1.394 . S
C508 C514 1.465 . S
C509 C504 1.399 . S
C509 C508 1.394 . S
C509 C510 1.516 . S
C510 C509 1.516 . S
C510 C511 1.502 . S
C510 C512 1.561 . S
C510 C513 1.526 . S
C511 H495 0.959 . S
C511 H496 0.959 . S
C511 H497 0.961 . S
C511 C510 1.502 . S
C512 H498 0.960 . S
C512 H499 0.961 . S
C512 H500 0.959 . S
C512 C510 1.561 . S
C513 C510 1.526 . S
C513 C514 1.396 . S
C513 C518 1.390 . S
C514 C508 1.465 . S
C514 C513 1.396 . S
C514 C515 1.399 . S
C515 H501 0.929 . S
C515 C514 1.399 . S
C515 C516 1.385 . S
C516 H502 0.931 . S
C516 C515 1.385 . S
C516 C517 1.389 . S
C517 C516 1.389 . S
C517 C518 1.387 . S
C518 H503 0.930 . S
C518 C513 1.390 . S
C518 C517 1.387 . S
H519 C531 0.930 . S
H520 C533 0.930 . S
H521 C534 0.930 . S
H522 C538 0.959 . S
H523 C538 0.959 . S
H524 C538 0.961 . S
H525 C539 0.960 . S
H526 C539 0.961 . S
H527 C539 0.959 . S
H528 C542 0.929 . S
H529 C543 0.931 . S
H530 C545 0.930 . S
C531 H519 0.930 . S
C531 C532 1.399 . S
C531 C536 1.399 . S
C532 C531 1.399 . S
C532 C533 1.376 . S
C533 H520 0.930 . S
C533 C532 1.376 . S
C533 C534 1.388 . S
C534 H521 0.930 . S
C534 C533 1.388 . S
C534 C535 1.390 . S
C535 C534 1.390 . S
C535 C536 1.394 . S
C535 C541 1.465 . S
C536 C531 1.399 . S
C536 C535 1.394 . S
C536 C537 1.516 . S
C537 C536 1.516 . S
C537 C538 1.502 . S
C537 C539 1.561 . S
C537 C540 1.526 . S
C538 H522 0.959 . S
C538 H523 0.959 . S
C538 H524 0.961 . S
C538 C537 1.502 . S
C539 H525 0.960 . S
C539 H526 0.961 . S
C539 H527 0.959 . S
C539 C537 1.561 . S
C540 C537 1.526 . S
C540 C541 1.396 . S
C540 C545 1.390 . S
C541 C535 1.465 . S
C541 C540 1.396 . S
C541 C542 1.399 . S
C542 H528 0.929 . S
C542 C541 1.399 . S
C542 C543 1.385 . S
C543 H529 0.931 . S
C543 C542 1.385 . S
C543 C544 1.389 . S
C544 C543 1.389 . S
C544 C545 1.387 . S
C545 H530 0.930 . S
C545 C540 1.390 . S
C545 C544 1.387 . S
H546 C558 0.930 . S
H547 C560 0.930 . S
H548 C561 0.930 . S
H549 C565 0.959 1_545 S
H550 C565 0.959 . S
H551 C565 0.961 . S
H552 C566 0.960 . S
H553 C566 0.961 . S
H554 C566 0.959 . S
H555 C569 0.929 . S
H556 C570 0.931 . S
H557 C572 0.930 . S
C558 H546 0.930 . S
C558 C559 1.399 . S
C558 C563 1.399 . S
C559 C558 1.399 . S
C559 C560 1.376 . S
C560 H547 0.930 . S
C560 C559 1.376 . S
C560 C561 1.388 . S
C561 H548 0.930 . S
C561 C560 1.388 . S
C561 C562 1.390 . S
C562 C561 1.390 . S
C562 C563 1.394 . S
C562 C568 1.465 . S
C563 C558 1.399 . S
C563 C562 1.394 . S
C563 C564 1.516 . S
C564 C563 1.516 . S
C564 C565 1.502 1_545 S
C564 C566 1.561 1_545 S
C564 C567 1.526 . S
C565 H549 0.959 1_565 S
C565 H550 0.959 . S
C565 H551 0.961 . S
C565 C564 1.502 1_565 S
C566 H552 0.960 . S
C566 H553 0.961 . S
C566 H554 0.959 . S
C566 C564 1.561 1_565 S
C567 C564 1.526 . S
C567 C568 1.396 . S
C567 C572 1.390 . S
C568 C562 1.465 . S
C568 C567 1.396 . S
C568 C569 1.399 . S
C569 H555 0.929 . S
C569 C568 1.399 . S
C569 C570 1.385 . S
C570 H556 0.931 . S
C570 C569 1.385 . S
C570 C571 1.389 . S
C571 C570 1.389 . S
C571 C572 1.387 . S
C572 H557 0.930 . S
C572 C567 1.390 . S
C572 C571 1.387 . S
H573 C585 0.930 1_545 S
H574 C587 0.930 . S
H575 C588 0.930 . S
H576 C592 0.959 . S
H577 C592 0.959 . S
H578 C592 0.961 . S
H579 C593 0.960 . S
H580 C593 0.961 . S
H581 C593 0.959 . S
H582 C596 0.929 . S
H583 C597 0.931 . S
H584 C599 0.930 . S
C585 H573 0.930 1_565 S
C585 C586 1.399 1_556 S
C585 C590 1.399 . S
C586 C585 1.399 1_554 S
C586 C587 1.376 . S
C587 H574 0.930 . S
C587 C586 1.376 . S
C587 C588 1.388 . S
C588 H575 0.930 . S
C588 C587 1.388 . S
C588 C589 1.390 1_554 S
C589 C588 1.390 1_556 S
C589 C590 1.394 . S
C589 C595 1.465 . S
C590 C585 1.399 . S
C590 C589 1.394 . S
C590 C591 1.516 . S
C591 C590 1.516 . S
C591 C592 1.502 . S
C591 C593 1.561 . S
C591 C594 1.526 . S
C592 H576 0.959 . S
C592 H577 0.959 . S
C592 H578 0.961 . S
C592 C591 1.502 . S
C593 H579 0.960 . S
C593 H580 0.961 . S
C593 H581 0.959 . S
C593 C591 1.561 . S
C594 C591 1.526 . S
C594 C595 1.396 . S
C594 C599 1.390 . S
C595 C589 1.465 . S
C595 C594 1.396 . S
C595 C596 1.399 . S
C596 H582 0.929 . S
C596 C595 1.399 . S
C596 C597 1.385 . S
C597 H583 0.931 . S
C597 C596 1.385 . S
C597 C598 1.389 . S
C598 C597 1.389 . S
C598 C599 1.387 . S
C599 H584 0.930 . S
C599 C594 1.390 . S
C599 C598 1.387 . S
H600 C612 0.930 1_545 S
H601 C614 0.930 . S
H602 C615 0.930 1_655 S
H603 C619 0.959 . S
H604 C619 0.959 . S
H605 C619 0.961 . S
H606 C620 0.960 . S
H607 C620 0.961 . S
H608 C620 0.959 . S
H609 C623 0.929 1_655 S
H610 C624 0.931 1_655 S
H611 C626 0.930 . S
C612 H600 0.930 1_565 S
C612 C613 1.399 . S
C612 C617 1.399 . S
C613 C612 1.399 . S
C613 C614 1.376 . S
C614 H601 0.930 . S
C614 C613 1.376 . S
C614 C615 1.388 . S
C615 H602 0.930 1_455 S
C615 C614 1.388 . S
C615 C616 1.390 . S
C616 C615 1.390 . S
C616 C617 1.394 . S
C616 C622 1.465 . S
C617 C612 1.399 . S
C617 C616 1.394 . S
C617 C618 1.516 . S
C618 C617 1.516 . S
C618 C619 1.502 . S
C618 C620 1.561 . S
C618 C621 1.526 . S
C619 H603 0.959 . S
C619 H604 0.959 . S
C619 H605 0.961 . S
C619 C618 1.502 . S
C620 H606 0.960 . S
C620 H607 0.961 . S
C620 H608 0.959 . S
C620 C618 1.561 . S
C621 C618 1.526 . S
C621 C622 1.396 . S
C621 C626 1.390 . S
C622 C616 1.465 . S
C622 C621 1.396 . S
C622 C623 1.399 . S
C623 H609 0.929 1_455 S
C623 C622 1.399 . S
C623 C624 1.385 . S
C624 H610 0.931 1_455 S
C624 C623 1.385 . S
C624 C625 1.389 . S
C625 C624 1.389 . S
C625 C626 1.387 . S
C626 H611 0.930 . S
C626 C621 1.390 . S
C626 C625 1.387 . S
H627 C639 0.930 . S
H628 C641 0.930 . S
H629 C642 0.930 . S
H630 C646 0.959 . S
H631 C646 0.959 . S
H632 C646 0.961 . S
H633 C647 0.960 . S
H634 C647 0.961 . S
H635 C647 0.959 . S
H636 C650 0.929 . S
H637 C651 0.931 . S
H638 C653 0.930 . S
C639 H627 0.930 . S
C639 C640 1.399 . S
C639 C644 1.399 . S
C640 C639 1.399 . S
C640 C641 1.376 . S
C641 H628 0.930 . S
C641 C640 1.376 . S
C641 C642 1.388 . S
C642 H629 0.930 . S
C642 C641 1.388 . S
C642 C643 1.390 . S
C643 C642 1.390 . S
C643 C644 1.394 . S
C643 C649 1.465 . S
C644 C639 1.399 . S
C644 C643 1.394 . S
C644 C645 1.516 . S
C645 C644 1.516 . S
C645 C646 1.502 . S
C645 C647 1.561 1_545 S
C645 C648 1.526 . S
C646 H630 0.959 . S
C646 H631 0.959 . S
C646 H632 0.961 . S
C646 C645 1.502 . S
C647 H633 0.960 . S
C647 H634 0.961 . S
C647 H635 0.959 . S
C647 C645 1.561 1_565 S
C648 C645 1.526 . S
C648 C649 1.396 . S
C648 C653 1.390 . S
C649 C643 1.465 . S
C649 C648 1.396 . S
C649 C650 1.399 . S
C650 H636 0.929 . S
C650 C649 1.399 . S
C650 C651 1.385 . S
C651 H637 0.931 . S
C651 C650 1.385 . S
C651 C652 1.389 . S
C652 C651 1.389 . S
C652 C653 1.387 . S
C653 H638 0.930 . S
C653 C648 1.390 . S
C653 C652 1.387 . S
H654 C666 0.930 . S
H655 C668 0.930 . S
H656 C669 0.930 . S
H657 C673 0.959 . S
H658 C673 0.948 1_556 S
H659 C673 0.961 . S
H660 C674 0.960 . S
H661 C674 0.961 . S
H662 C674 0.959 . S
H663 C677 0.929 . S
H664 C678 0.931 . S
H665 C680 0.930 . S
C666 H654 0.930 . S
C666 C667 1.399 . S
C666 C671 1.399 1_554 S
C667 C666 1.399 . S
C667 C668 1.376 1_554 S
C668 H655 0.930 . S
C668 C667 1.376 1_556 S
C668 C669 1.388 . S
C669 H656 0.930 . S
C669 C668 1.388 . S
C669 C670 1.390 . S
C670 C669 1.390 . S
C670 C671 1.394 . S
C670 C676 1.465 . S
C671 C666 1.399 1_556 S
C671 C670 1.394 . S
C671 C672 1.516 . S
C672 C671 1.516 . S
C672 C673 1.502 1_556 S
C672 C674 1.561 . S
C672 C675 1.526 . S
C673 H657 0.959 . S
C673 H658 0.948 1_554 S
C673 H659 0.961 . S
C673 C672 1.502 1_554 S
C674 H660 0.960 . S
C674 H661 0.961 . S
C674 H662 0.959 . S
C674 C672 1.561 . S
C675 C672 1.526 . S
C675 C676 1.396 . S
C675 C680 1.390 . S
C676 C670 1.465 . S
C676 C675 1.396 . S
C676 C677 1.399 . S
C677 H663 0.929 . S
C677 C676 1.399 . S
C677 C678 1.385 . S
C678 H664 0.931 . S
C678 C677 1.385 . S
C678 C679 1.389 . S
C679 C678 1.389 . S
C679 C680 1.387 . S
C680 H665 0.930 . S
C680 C675 1.390 . S
C680 C679 1.387 . S
H681 C693 0.930 . S
H682 C695 0.930 . S
H683 C696 0.930 1_655 S
H684 C700 0.959 . S
H685 C700 0.959 . S
H686 C700 0.961 . S
H687 C701 0.960 . S
H688 C701 0.961 . S
H689 C701 0.959 . S
H690 C704 0.929 1_655 S
H691 C705 0.931 1_655 S
H692 C707 0.930 . S
C693 H681 0.930 . S
C693 C694 1.399 . S
C693 C698 1.399 . S
C694 C693 1.399 . S
C694 C695 1.376 . S
C695 H682 0.930 . S
C695 C694 1.376 . S
C695 C696 1.388 . S
C696 H683 0.930 1_455 S
C696 C695 1.388 . S
C696 C697 1.390 . S
C697 C696 1.390 . S
C697 C698 1.394 . S
C697 C703 1.465 . S
C698 C693 1.399 . S
C698 C697 1.394 . S
C698 C699 1.516 . S
C699 C698 1.516 . S
C699 C700 1.502 . S
C699 C701 1.561 . S
C699 C702 1.526 . S
C700 H684 0.959 . S
C700 H685 0.959 . S
C700 H686 0.961 . S
C700 C699 1.502 . S
C701 H687 0.960 . S
C701 H688 0.961 . S
C701 H689 0.959 . S
C701 C699 1.561 . S
C702 C699 1.526 . S
C702 C703 1.396 . S
C702 C707 1.390 . S
C703 C697 1.465 . S
C703 C702 1.396 . S
C703 C704 1.399 . S
C704 H690 0.929 1_455 S
C704 C703 1.399 . S
C704 C705 1.385 . S
C705 H691 0.931 1_455 S
C705 C704 1.385 . S
C705 C706 1.389 . S
C706 C705 1.389 . S
C706 C707 1.387 . S
C707 H692 0.930 . S
C707 C702 1.390 . S
C707 C706 1.387 . S
C409 C97 1.051 . S
C397 C3 1.560 . S
C424 C21 1.585 . S
C436 C211 1.279 . S
C451 C37 1.352 . S
C463 C271 1.086 . S
C478 C8 1.415 . S
C490 C71 1.153 . S
C517 C185 1.058 . S
C505 C23 1.415 . S
C532 C35 1.513 . S
C544 C281 0.931 . S
C571 C167 0.791 . S
C559 C31 1.504 . S
C586 C7 1.448 1_565 S
C598 C299 1.105 . S
C625 C43 0.977 . S
C613 C17 1.349 1_565 S
C652 C157 1.144 . S
C640 C36 1.310 . S
C679 C325 1.108 . S
C667 C9 1.543 . S
C694 C22 1.491 . S
C706 C53 0.881 . S
