# Generated by pormake.
# Topology pyr, (3,6)-cn, num edge types: 1
# Building blocks:
#     Node 0, Type 0, BuildingBlock: VETTIZ_charged_linker_0, # of connection points: 3
#     Node 1, Type 0, BuildingBlock: VETTIZ_charged_linker_0, # of connection points: 3
#     Node 2, Type 0, BuildingBlock: VETTIZ_charged_linker_0, # of connection points: 3
#     Node 3, Type 0, BuildingBlock: VETTIZ_charged_linker_0, # of connection points: 3
#     Node 4, Type 0, BuildingBlock: VETTIZ_charged_linker_0, # of connection points: 3
#     Node 5, Type 0, BuildingBlock: VETTIZ_charged_linker_0, # of connection points: 3
#     Node 6, Type 0, BuildingBlock: VETTIZ_charged_linker_0, # of connection points: 3
#     Node 7, Type 0, BuildingBlock: VETTIZ_charged_linker_0, # of connection points: 3
#     Node 8, Type 1, BuildingBlock: JUFBIX_clean_sbu_0, # of connection points: 6
#     Node 9, Type 1, BuildingBlock: JUFBIX_clean_sbu_0, # of connection points: 6
#     Node 10, Type 1, BuildingBlock: JUFBIX_clean_sbu_0, # of connection points: 6
#     Node 11, Type 1, BuildingBlock: JUFBIX_clean_sbu_0, # of connection points: 6
#     Edge 12, Type (0, 1), BuildingBlock: ZUJKAS_clean_linker_0, # of connection points: 2
#     Edge 13, Type (0, 1), BuildingBlock: ZUJKAS_clean_linker_0, # of connection points: 2
#     Edge 14, Type (0, 1), BuildingBlock: ZUJKAS_clean_linker_0, # of connection points: 2
#     Edge 15, Type (0, 1), BuildingBlock: ZUJKAS_clean_linker_0, # of connection points: 2
#     Edge 16, Type (0, 1), BuildingBlock: ZUJKAS_clean_linker_0, # of connection points: 2
#     Edge 17, Type (0, 1), BuildingBlock: ZUJKAS_clean_linker_0, # of connection points: 2
#     Edge 18, Type (0, 1), BuildingBlock: ZUJKAS_clean_linker_0, # of connection points: 2
#     Edge 19, Type (0, 1), BuildingBlock: ZUJKAS_clean_linker_0, # of connection points: 2
#     Edge 20, Type (0, 1), BuildingBlock: ZUJKAS_clean_linker_0, # of connection points: 2
#     Edge 21, Type (0, 1), BuildingBlock: ZUJKAS_clean_linker_0, # of connection points: 2
#     Edge 22, Type (0, 1), BuildingBlock: ZUJKAS_clean_linker_0, # of connection points: 2
#     Edge 23, Type (0, 1), BuildingBlock: ZUJKAS_clean_linker_0, # of connection points: 2
#     Edge 24, Type (0, 1), BuildingBlock: ZUJKAS_clean_linker_0, # of connection points: 2
#     Edge 25, Type (0, 1), BuildingBlock: ZUJKAS_clean_linker_0, # of connection points: 2
#     Edge 26, Type (0, 1), BuildingBlock: ZUJKAS_clean_linker_0, # of connection points: 2
#     Edge 27, Type (0, 1), BuildingBlock: ZUJKAS_clean_linker_0, # of connection points: 2
#     Edge 28, Type (0, 1), BuildingBlock: ZUJKAS_clean_linker_0, # of connection points: 2
#     Edge 29, Type (0, 1), BuildingBlock: ZUJKAS_clean_linker_0, # of connection points: 2
#     Edge 30, Type (0, 1), BuildingBlock: ZUJKAS_clean_linker_0, # of connection points: 2
#     Edge 31, Type (0, 1), BuildingBlock: ZUJKAS_clean_linker_0, # of connection points: 2
#     Edge 32, Type (0, 1), BuildingBlock: ZUJKAS_clean_linker_0, # of connection points: 2
#     Edge 33, Type (0, 1), BuildingBlock: ZUJKAS_clean_linker_0, # of connection points: 2
#     Edge 34, Type (0, 1), BuildingBlock: ZUJKAS_clean_linker_0, # of connection points: 2
#     Edge 35, Type (0, 1), BuildingBlock: ZUJKAS_clean_linker_0, # of connection points: 2
# Relax obj value: 0.036
# Max RMSD: 0.087
# Mean RMSD: 0.029
data_MOF--net-pyr--node1-JUFBIX_clean_sbu_0--node2-VETTIZ_charged_linker_0--edge1-ZUJKAS_clean_linker_0
_symmetry_space_group_name_H-M    P1
_symmetry_Int_Tables_number       1
_symmetry_cell_setting            triclinic
loop_
_symmetry_equiv_pos_as_xyz
'x, y, z'
_cell_length_a     56.987455
_cell_length_b     54.606547
_cell_length_c     56.892594
_cell_angle_alpha  86.982709
_cell_angle_beta   90.441777
_cell_angle_gamma 91.93564
loop_
_atom_site_label
_atom_site_type_symbol
_atom_site_fract_x
_atom_site_fract_y
_atom_site_fract_z
_atom_type_partial_charge
C0 C 0.15101 0.11639 0.23569 0.0
C1 C 0.13094 0.12446 0.24731 0.0
C2 C 0.11954 0.14502 0.23704 0.0
C3 C 0.14801 0.14951 0.20528 0.0
C4 C 0.15921 0.12918 0.21482 0.0
C5 C 0.18028 0.1234 0.20021 0.0
H6 H 0.25131 0.15181 0.1053 0.0
C7 C 0.16091 0.15896 0.18377 0.0
C8 C 0.17996 0.14371 0.18062 0.0
H9 H 0.25698 0.09127 0.15692 0.0
H10 H 0.22285 0.10448 0.17695 0.0
H11 H 0.23837 0.19284 0.14313 0.0
H12 H 0.19419 0.14754 0.09982 0.0
H13 H 0.18397 0.17765 0.09812 0.0
H14 H 0.2129 0.172 0.08753 0.0
H15 H 0.23728 0.19745 0.11165 0.0
H16 H 0.21621 0.21085 0.1302 0.0
C17 C 0.20249 0.12551 0.21584 0.0
C18 C 0.17587 0.09772 0.19048 0.0
C19 C 0.13179 0.23523 0.13779 0.0
C20 C 0.13983 0.24917 0.11763 0.0
C21 C 0.16026 0.24148 0.10652 0.0
C22 C 0.17226 0.22063 0.11513 0.0
C23 C 0.16398 0.20697 0.13526 0.0
C24 C 0.14406 0.21448 0.14624 0.0
C25 C 0.13788 0.1981 0.16761 0.0
C26 C 0.15717 0.17944 0.16766 0.0
C27 C 0.17251 0.18459 0.14861 0.0
C28 C 0.13951 0.21387 0.18947 0.0
C29 C 0.11331 0.186 0.16339 0.0
C30 C 0.24537 0.14145 0.121 0.0
C31 C 0.25718 0.12022 0.12924 0.0
C32 C 0.24831 0.10736 0.14972 0.0
C33 C 0.22843 0.11517 0.16151 0.0
C34 C 0.21681 0.1362 0.15296 0.0
C35 C 0.22535 0.14896 0.13297 0.0
C36 C 0.2106 0.17079 0.12625 0.0
C37 C 0.19187 0.16906 0.14535 0.0
C38 C 0.19558 0.14871 0.16115 0.0
C39 C 0.22633 0.19433 0.12767 0.0
C40 C 0.19989 0.16706 0.10157 0.0
H41 H 0.11821 0.17291 0.2098 0.0
H42 H 0.16038 0.10075 0.24285 0.0
H43 H 0.15717 0.09508 0.18514 0.0
H44 H 0.18607 0.095 0.17448 0.0
H45 H 0.17989 0.083 0.204 0.0
H46 H 0.20175 0.14178 0.22676 0.0
H47 H 0.20407 0.10901 0.22794 0.0
H48 H 0.21878 0.12823 0.20555 0.0
H49 H 0.11644 0.24054 0.14712 0.0
H50 H 0.16687 0.25143 0.09085 0.0
H51 H 0.18756 0.21588 0.10571 0.0
H52 H 0.15402 0.22798 0.18755 0.0
H53 H 0.12298 0.22361 0.19196 0.0
H54 H 0.14372 0.20311 0.20585 0.0
H55 H 0.11083 0.182 0.14454 0.0
H56 H 0.11076 0.16805 0.17306 0.0
H57 H 0.09912 0.19824 0.16818 0.0
H58 H 0.10379 0.15149 0.24487 0.0
C59 C 0.12788 0.15746 0.21637 0.0
C60 C 0.31681 0.87582 0.60608 0.0
C61 C 0.30584 0.89572 0.61553 0.0
C62 C 0.31899 0.91128 0.63007 0.0
C63 C 0.35331 0.88699 0.62564 0.0
C64 C 0.34044 0.8719 0.61126 0.0
C65 C 0.35463 0.85158 0.60258 0.0
H66 H 0.45572 0.79074 0.60439 0.0
C67 C 0.3773 0.87764 0.62765 0.0
C68 C 0.3782 0.85701 0.61406 0.0
H69 H 0.39029 0.77289 0.56901 0.0
H70 H 0.37382 0.80978 0.5816 0.0
H71 H 0.45656 0.8496 0.59071 0.0
H72 H 0.43161 0.80618 0.65145 0.0
H73 H 0.44661 0.83226 0.66148 0.0
H74 H 0.46227 0.81084 0.64501 0.0
H75 H 0.47621 0.83587 0.61199 0.0
H76 H 0.46431 0.86563 0.61578 0.0
C77 C 0.3559 0.85473 0.57536 0.0
C78 C 0.34328 0.82682 0.61212 0.0
C79 C 0.43599 0.91613 0.6832 0.0
C80 C 0.45888 0.91023 0.69034 0.0
C81 C 0.47044 0.89191 0.67877 0.0
C82 C 0.45897 0.87893 0.66115 0.0
C83 C 0.43561 0.88416 0.65519 0.0
C84 C 0.42475 0.90293 0.66574 0.0
C85 C 0.39985 0.90584 0.65745 0.0
C86 C 0.39736 0.88534 0.64057 0.0
C87 C 0.41829 0.87259 0.6394 0.0
C88 C 0.39809 0.93146 0.64461 0.0
C89 C 0.38345 0.90147 0.679 0.0
C90 C 0.43783 0.79478 0.59938 0.0
C91 C 0.42435 0.77878 0.58564 0.0
C92 C 0.40125 0.78498 0.57925 0.0
C93 C 0.39158 0.80636 0.58681 0.0
C94 C 0.40497 0.82168 0.60116 0.0
C95 C 0.42778 0.816 0.607 0.0
C96 C 0.43909 0.83421 0.62292 0.0
C97 C 0.41919 0.85163 0.62573 0.0
C98 C 0.39927 0.84405 0.61302 0.0
C99 C 0.46028 0.84698 0.60989 0.0
C100 C 0.44545 0.82032 0.64645 0.0
H101 H 0.35169 0.91953 0.64631 0.0
H102 H 0.30718 0.86337 0.59502 0.0
H103 H 0.33522 0.82867 0.62967 0.0
H104 H 0.35612 0.81227 0.61514 0.0
H105 H 0.32924 0.82028 0.60011 0.0
H106 H 0.35655 0.87449 0.56943 0.0
H107 H 0.34028 0.84602 0.56698 0.0
H108 H 0.37197 0.84729 0.56814 0.0
H109 H 0.42642 0.92983 0.69192 0.0
H110 H 0.48819 0.88724 0.68373 0.0
H111 H 0.46851 0.86489 0.65331 0.0
H112 H 0.41475 0.93698 0.6354 0.0
H113 H 0.39451 0.94573 0.6572 0.0
H114 H 0.38455 0.93188 0.63059 0.0
H115 H 0.39003 0.88661 0.6912 0.0
H116 H 0.36549 0.89527 0.67426 0.0
H117 H 0.38245 0.9183 0.68906 0.0
H118 H 0.31107 0.927 0.63726 0.0
C119 C 0.34264 0.90704 0.63515 0.0
C120 C 0.64376 0.28015 0.8818 0.0
C121 C 0.6227 0.26932 0.87346 0.0
C122 C 0.6122 0.27985 0.85296 0.0
C123 C 0.64335 0.31125 0.84957 0.0
C124 C 0.65368 0.30101 0.86966 0.0
C125 C 0.67593 0.3148 0.87618 0.0
H126 H 0.75456 0.40916 0.85396 0.0
C127 C 0.6581 0.33278 0.84117 0.0
C128 C 0.67721 0.335 0.85673 0.0
H129 H 0.75578 0.3528 0.91022 0.0
H130 H 0.71983 0.33455 0.89567 0.0
H131 H 0.6978 0.41798 0.8557 0.0
H132 H 0.73936 0.37266 0.81349 0.0
H133 H 0.71794 0.38622 0.79516 0.0
H134 H 0.7397 0.40547 0.80907 0.0
H135 H 0.71759 0.43061 0.83346 0.0
H136 H 0.68791 0.42106 0.82634 0.0
C137 C 0.6724 0.32523 0.90067 0.0
C138 C 0.69658 0.29715 0.87499 0.0
C139 C 0.63459 0.3819 0.76673 0.0
C140 C 0.64454 0.40264 0.75427 0.0
C141 C 0.66525 0.41372 0.76326 0.0
C142 C 0.67589 0.40426 0.78403 0.0
C143 C 0.66581 0.38341 0.7961 0.0
C144 C 0.64544 0.37267 0.78741 0.0
C145 C 0.63709 0.35069 0.8025 0.0
C146 C 0.65589 0.34981 0.82156 0.0
C147 C 0.67272 0.36902 0.81779 0.0
C148 C 0.6127 0.35619 0.81249 0.0
C149 C 0.63728 0.32791 0.78737 0.0
C150 C 0.74695 0.393 0.86322 0.0
C151 C 0.75813 0.38241 0.88328 0.0
C152 C 0.74775 0.36118 0.8946 0.0
C153 C 0.72676 0.35064 0.88617 0.0
C154 C 0.71588 0.3613 0.86606 0.0
C155 C 0.726 0.38209 0.85487 0.0
C156 C 0.71218 0.39043 0.83336 0.0
C157 C 0.69205 0.37137 0.83365 0.0
C158 C 0.6943 0.3544 0.85293 0.0
C159 C 0.70345 0.41645 0.83717 0.0
C160 C 0.72802 0.38885 0.81153 0.0
H161 H 0.61346 0.30764 0.82553 0.0
H162 H 0.65223 0.27277 0.89761 0.0
H163 H 0.69365 0.28412 0.86077 0.0
H164 H 0.71346 0.30676 0.87055 0.0
H165 H 0.69858 0.28613 0.89181 0.0
H166 H 0.65417 0.33155 0.90248 0.0
H167 H 0.67544 0.31106 0.915 0.0
H168 H 0.68377 0.34154 0.90366 0.0
H169 H 0.61851 0.37309 0.76066 0.0
H170 H 0.67351 0.42953 0.75399 0.0
H171 H 0.69165 0.41349 0.78982 0.0
H172 H 0.61159 0.37595 0.81607 0.0
H173 H 0.59843 0.35168 0.79987 0.0
H174 H 0.60905 0.34635 0.8296 0.0
H175 H 0.65245 0.32909 0.77511 0.0
H176 H 0.63944 0.31058 0.79793 0.0
H177 H 0.62101 0.32637 0.77659 0.0
H178 H 0.59621 0.27176 0.84587 0.0
C179 C 0.62235 0.30066 0.84103 0.0
C180 C 0.96107 0.693 0.4211 0.0
C181 C 0.95024 0.70796 0.43699 0.0
C182 C 0.92849 0.69982 0.44688 0.0
C183 C 0.92863 0.66307 0.42482 0.0
C184 C 0.94991 0.67092 0.41513 0.0
C185 C 0.95822 0.65391 0.3972 0.0
H186 H 0.93642 0.5551 0.33263 0.0
C187 C 0.92138 0.63977 0.41433 0.0
C188 C 0.93864 0.63434 0.39808 0.0
H189 H 0.99507 0.60734 0.32688 0.0
H190 H 0.98106 0.62778 0.36044 0.0
H191 H 0.9375 0.54806 0.38955 0.0
H192 H 0.898 0.59352 0.34075 0.0
H193 H 0.87843 0.581 0.36223 0.0
H194 H 0.89364 0.56081 0.34405 0.0
H195 H 0.91274 0.53611 0.37363 0.0
H196 H 0.90939 0.54971 0.40164 0.0
C197 C 0.98188 0.64349 0.40586 0.0
C198 C 0.95943 0.66835 0.37298 0.0
C199 C 0.84358 0.59698 0.43733 0.0
C200 C 0.83198 0.57548 0.43003 0.0
C201 C 0.84339 0.56086 0.41422 0.0
C202 C 0.86556 0.56788 0.40526 0.0
C203 C 0.87653 0.58984 0.41205 0.0
C204 C 0.86576 0.60375 0.42818 0.0
C205 C 0.8802 0.62641 0.43349 0.0
C206 C 0.9013 0.62386 0.41775 0.0
C207 C 0.89891 0.60254 0.40508 0.0
C208 C 0.887 0.62461 0.45991 0.0
C209 C 0.86584 0.64916 0.42591 0.0
C210 C 0.94652 0.57063 0.33889 0.0
C211 C 0.96684 0.57967 0.32704 0.0
C212 C 0.97922 0.6002 0.33555 0.0
C213 C 0.97103 0.61206 0.35501 0.0
C214 C 0.95008 0.60348 0.36597 0.0
C215 C 0.93845 0.58281 0.35814 0.0
C216 C 0.91621 0.5766 0.37153 0.0
C217 C 0.91612 0.59727 0.38834 0.0
C218 C 0.93596 0.61298 0.38498 0.0
C219 C 0.91885 0.55125 0.3847 0.0
C220 C 0.89537 0.57784 0.35387 0.0
H221 H 0.90118 0.67253 0.44902 0.0
H222 H 0.97782 0.69838 0.41322 0.0
H223 H 0.94595 0.68264 0.37156 0.0
H224 H 0.95554 0.65671 0.35805 0.0
H225 H 0.97687 0.67774 0.37028 0.0
H226 H 0.98153 0.63923 0.4252 0.0
H227 H 0.99662 0.65692 0.40213 0.0
H228 H 0.98581 0.62601 0.39804 0.0
H229 H 0.83527 0.60875 0.4493 0.0
H230 H 0.83507 0.54398 0.40864 0.0
H231 H 0.87314 0.5561 0.39308 0.0
H232 H 0.89107 0.60542 0.46566 0.0
H233 H 0.87241 0.63034 0.471 0.0
H234 H 0.90303 0.63556 0.46394 0.0
H235 H 0.85479 0.6456 0.41016 0.0
H236 H 0.87701 0.66537 0.4205 0.0
H237 H 0.85396 0.65407 0.44019 0.0
H238 H 0.91933 0.71102 0.45873 0.0
C239 C 0.91777 0.67747 0.44103 0.0
C240 C 0.85598 0.7762 0.89023 0.0
C241 C 0.87646 0.76484 0.88276 0.0
C242 C 0.88823 0.7756 0.86279 0.0
C243 C 0.8593 0.80729 0.8578 0.0
C244 C 0.84779 0.7973 0.87754 0.0
C245 C 0.82641 0.81173 0.88292 0.0
H246 H 0.75495 0.90749 0.85585 0.0
C247 C 0.84632 0.82901 0.84841 0.0
C248 C 0.82697 0.83182 0.86313 0.0
H249 H 0.74885 0.85314 0.91378 0.0
H250 H 0.78335 0.83373 0.90068 0.0
H251 H 0.7692 0.86851 0.81637 0.0
H252 H 0.81318 0.91515 0.85878 0.0
H253 H 0.82259 0.91758 0.82926 0.0
H254 H 0.79378 0.92742 0.83641 0.0
H255 H 0.7698 0.90135 0.81209 0.0
H256 H 0.79134 0.88314 0.79876 0.0
C257 C 0.80444 0.79446 0.88119 0.0
C258 C 0.83012 0.82244 0.90737 0.0
C259 C 0.87601 0.87595 0.77377 0.0
C260 C 0.86825 0.89648 0.76008 0.0
C261 C 0.84787 0.90788 0.76768 0.0
C262 C 0.83567 0.89914 0.78814 0.0
C263 C 0.84368 0.87858 0.80149 0.0
C264 C 0.86359 0.86741 0.79413 0.0
C265 C 0.86969 0.84574 0.81024 0.0
C266 C 0.85023 0.84558 0.82846 0.0
C267 C 0.83489 0.86491 0.82341 0.0
C268 C 0.86823 0.82249 0.79573 0.0
C269 C 0.89416 0.85117 0.82127 0.0
C270 C 0.76111 0.89152 0.86584 0.0
C271 C 0.74867 0.88195 0.88597 0.0
C272 C 0.7575 0.86088 0.89808 0.0
C273 C 0.77779 0.84962 0.89051 0.0
C274 C 0.78985 0.85925 0.87042 0.0
C275 C 0.78145 0.87988 0.85837 0.0
C276 C 0.79645 0.88723 0.83711 0.0
C277 C 0.81528 0.86791 0.83855 0.0
C278 C 0.81131 0.85147 0.85824 0.0
C279 C 0.78099 0.88517 0.8148 0.0
C280 C 0.80704 0.91329 0.84033 0.0
H281 H 0.88976 0.8034 0.83539 0.0
H282 H 0.84629 0.76868 0.90538 0.0
H283 H 0.84875 0.82862 0.9098 0.0
H284 H 0.81984 0.83889 0.9097 0.0
H285 H 0.82575 0.80849 0.92172 0.0
H286 H 0.80608 0.78223 0.86629 0.0
H287 H 0.80212 0.78262 0.89755 0.0
H288 H 0.78817 0.80441 0.87754 0.0
H289 H 0.89131 0.86635 0.7686 0.0
H290 H 0.84145 0.92389 0.75795 0.0
H291 H 0.82044 0.90879 0.79283 0.0
H292 H 0.85341 0.82344 0.78289 0.0
H293 H 0.8846 0.82054 0.78562 0.0
H294 H 0.86465 0.80547 0.80661 0.0
H295 H 0.89691 0.87112 0.82392 0.0
H296 H 0.89628 0.84224 0.83901 0.0
H297 H 0.90846 0.84556 0.80976 0.0
H298 H 0.90431 0.76805 0.85677 0.0
C299 C 0.87983 0.79646 0.85038 0.0
C300 C 0.6951 0.13006 0.40604 0.0
C301 C 0.7068 0.11068 0.39651 0.0
C302 C 0.69428 0.09455 0.38206 0.0
C303 C 0.65929 0.11792 0.38576 0.0
C304 C 0.67146 0.13341 0.40033 0.0
C305 C 0.65672 0.1539 0.40786 0.0
H306 H 0.55883 0.21908 0.39277 0.0
C307 C 0.63553 0.12736 0.38206 0.0
C308 C 0.63388 0.14842 0.39492 0.0
H309 H 0.61772 0.23234 0.43929 0.0
H310 H 0.63461 0.19453 0.42901 0.0
H311 H 0.5533 0.16025 0.40809 0.0
H312 H 0.58777 0.20034 0.35012 0.0
H313 H 0.57314 0.17453 0.33901 0.0
H314 H 0.55639 0.19743 0.3524 0.0
H315 H 0.53724 0.17462 0.38417 0.0
H316 H 0.54786 0.14398 0.38266 0.0
C317 C 0.65375 0.1512 0.43496 0.0
C318 C 0.66867 0.17847 0.39876 0.0
C319 C 0.58062 0.08695 0.32427 0.0
C320 C 0.55934 0.09389 0.31363 0.0
C321 C 0.54786 0.11421 0.32194 0.0
C322 C 0.55802 0.12802 0.33973 0.0
C323 C 0.58003 0.12166 0.34911 0.0
C324 C 0.59078 0.10123 0.34152 0.0
C325 C 0.61477 0.09805 0.35208 0.0
C326 C 0.61657 0.11976 0.36759 0.0
C327 C 0.59618 0.1335 0.36585 0.0
C328 C 0.61459 0.07338 0.36681 0.0
C329 C 0.63302 0.10009 0.33183 0.0
C330 C 0.57538 0.21376 0.40066 0.0
C331 C 0.58714 0.22874 0.41663 0.0
C332 C 0.60836 0.22104 0.42698 0.0
C333 C 0.61822 0.19918 0.42086 0.0
C334 C 0.60679 0.18489 0.40416 0.0
C335 C 0.5854 0.19183 0.39487 0.0
C336 C 0.5754 0.17368 0.37815 0.0
C337 C 0.5946 0.15505 0.37859 0.0
C338 C 0.61311 0.16204 0.3935 0.0
C339 C 0.55213 0.16256 0.38857 0.0
C340 C 0.57282 0.18704 0.3536 0.0
H341 H 0.66204 0.08513 0.36561 0.0
H342 H 0.70432 0.14275 0.41717 0.0
H343 H 0.67504 0.17709 0.38045 0.0
H344 H 0.65678 0.19398 0.39789 0.0
H345 H 0.68403 0.18333 0.40993 0.0
H346 H 0.65529 0.13179 0.44164 0.0
H347 H 0.66733 0.16231 0.44411 0.0
H348 H 0.63613 0.15635 0.44064 0.0
H349 H 0.5898 0.07127 0.31862 0.0
H350 H 0.53156 0.12016 0.31399 0.0
H351 H 0.54874 0.14363 0.3449 0.0
H352 H 0.59795 0.07062 0.37686 0.0
H353 H 0.61605 0.05769 0.3553 0.0
H354 H 0.62873 0.07255 0.38019 0.0
H355 H 0.62637 0.11096 0.31622 0.0
H356 H 0.64945 0.10998 0.33669 0.0
H357 H 0.63729 0.08171 0.3259 0.0
H358 H 0.70286 0.0792 0.37491 0.0
C359 C 0.67057 0.09798 0.37676 0.0
C360 C 0.37776 0.63136 0.24142 0.0
C361 C 0.36831 0.6103 0.25379 0.0
C362 C 0.34743 0.59921 0.24516 0.0
C363 C 0.34589 0.62995 0.21275 0.0
C364 C 0.36639 0.64075 0.22109 0.0
C365 C 0.37434 0.66285 0.20593 0.0
H366 H 0.3562 0.74153 0.11196 0.0
C367 C 0.33852 0.64435 0.19125 0.0
C368 C 0.35522 0.66363 0.18718 0.0
H369 H 0.41418 0.74188 0.16153 0.0
H370 H 0.39747 0.70598 0.18225 0.0
H371 H 0.31556 0.72793 0.14978 0.0
H372 H 0.35572 0.68357 0.10564 0.0
H373 H 0.32689 0.6712 0.10595 0.0
H374 H 0.33248 0.70218 0.09418 0.0
H375 H 0.31139 0.72787 0.11848 0.0
H376 H 0.29614 0.70592 0.13818 0.0
C377 C 0.37422 0.68557 0.22113 0.0
C378 C 0.39862 0.65763 0.19551 0.0
C379 C 0.26343 0.62011 0.14744 0.0
C380 C 0.2524 0.6299 0.12692 0.0
C381 C 0.26282 0.65081 0.11504 0.0
C382 C 0.28371 0.66171 0.12329 0.0
C383 C 0.29454 0.6517 0.14371 0.0
C384 C 0.28444 0.6312 0.15542 0.0
C385 C 0.29869 0.62295 0.17666 0.0
C386 C 0.3189 0.64191 0.17578 0.0
C387 C 0.31631 0.65875 0.15645 0.0
C388 C 0.28335 0.62483 0.19879 0.0
C389 C 0.30716 0.59681 0.17285 0.0
C390 C 0.36545 0.7338 0.12714 0.0
C391 C 0.38655 0.74488 0.1351 0.0
C392 C 0.39772 0.73417 0.15517 0.0
C393 C 0.38805 0.71312 0.16714 0.0
C394 C 0.36694 0.7024 0.15903 0.0
C395 C 0.35607 0.71267 0.13927 0.0
C396 C 0.33391 0.69858 0.13302 0.0
C397 C 0.33323 0.67825 0.15236 0.0
C398 C 0.35259 0.68063 0.16759 0.0
C399 C 0.31305 0.71586 0.13474 0.0
C400 C 0.33716 0.68841 0.10837 0.0
H401 H 0.32045 0.59954 0.21922 0.0
H402 H 0.39356 0.64063 0.24756 0.0
H403 H 0.39997 0.63784 0.19213 0.0
H404 H 0.40176 0.66729 0.17822 0.0
H405 H 0.41307 0.66255 0.20778 0.0
H406 H 0.35896 0.68443 0.23327 0.0
H407 H 0.39042 0.6869 0.23203 0.0
H408 H 0.37231 0.70296 0.21062 0.0
H409 H 0.25608 0.60394 0.15688 0.0
H410 H 0.25461 0.65898 0.09942 0.0
H411 H 0.29059 0.6776 0.11343 0.0
H412 H 0.27275 0.64159 0.19729 0.0
H413 H 0.27099 0.60873 0.2011 0.0
H414 H 0.29379 0.62656 0.21507 0.0
H415 H 0.31136 0.59468 0.15401 0.0
H416 H 0.32357 0.59266 0.18246 0.0
H417 H 0.29344 0.58266 0.17803 0.0
H418 H 0.33987 0.58278 0.25397 0.0
C419 C 0.33622 0.60889 0.22482 0.0
C420 C 0.05808 0.3039 0.59245 0.0
C421 C 0.06786 0.2907 0.57454 0.0
C422 C 0.0889 0.29997 0.56388 0.0
C423 C 0.09038 0.33404 0.58959 0.0
C424 C 0.06974 0.32509 0.59989 0.0
C425 C 0.06286 0.3395 0.62039 0.0
H426 H 0.09014 0.42754 0.69579 0.0
C427 C 0.09846 0.35586 0.60216 0.0
C428 C 0.08243 0.35901 0.62029 0.0
H429 H 0.03216 0.37434 0.6994 0.0
H430 H 0.04329 0.35947 0.66203 0.0
H431 H 0.08388 0.44349 0.64195 0.0
H432 H 0.12859 0.39139 0.67742 0.0
H433 H 0.14553 0.40988 0.65717 0.0
H434 H 0.13086 0.42397 0.68046 0.0
H435 H 0.11163 0.45285 0.6542 0.0
H436 H 0.10909 0.4429 0.62445 0.0
C437 C 0.03875 0.35076 0.61477 0.0
C438 C 0.06326 0.32218 0.64295 0.0
C439 C 0.17463 0.40204 0.57888 0.0
C440 C 0.18621 0.42305 0.5874 0.0
C441 C 0.17516 0.43591 0.60487 0.0
C442 C 0.15369 0.42741 0.6145 0.0
C443 C 0.14297 0.40581 0.60663 0.0
C444 C 0.15301 0.39392 0.58859 0.0
C445 C 0.1384 0.37185 0.58181 0.0
C446 C 0.11821 0.3723 0.59906 0.0
C447 C 0.12129 0.39198 0.61383 0.0
C448 C 0.13011 0.37639 0.55602 0.0
C449 C 0.15324 0.34876 0.58613 0.0
C450 C 0.07964 0.41293 0.68836 0.0
C451 C 0.06038 0.40194 0.70067 0.0
C452 C 0.04731 0.38282 0.69046 0.0
C453 C 0.05379 0.37423 0.66874 0.0
C454 C 0.07371 0.38467 0.65718 0.0
C455 C 0.08601 0.40399 0.66679 0.0
C456 C 0.10684 0.41265 0.65214 0.0
C457 C 0.10549 0.39471 0.63261 0.0
C458 C 0.08609 0.37839 0.6357 0.0
C459 C 0.10288 0.43939 0.64275 0.0
C460 C 0.12923 0.4095 0.66748 0.0
H461 H 0.11615 0.32745 0.56259 0.0
H462 H 0.04187 0.2977 0.60096 0.0
H463 H 0.07543 0.30688 0.64112 0.0
H464 H 0.06993 0.33149 0.65857 0.0
H465 H 0.04558 0.31386 0.64685 0.0
H466 H 0.03794 0.3578 0.59608 0.0
H467 H 0.02424 0.33684 0.6176 0.0
H468 H 0.03534 0.36669 0.62527 0.0
H469 H 0.18251 0.39163 0.5655 0.0
H470 H 0.18322 0.45253 0.6113 0.0
H471 H 0.14645 0.4378 0.62801 0.0
H472 H 0.12555 0.3959 0.55251 0.0
H473 H 0.14411 0.37223 0.54349 0.0
H474 H 0.11399 0.36568 0.55183 0.0
H475 H 0.16455 0.3504 0.60204 0.0
H476 H 0.14243 0.33184 0.5897 0.0
H477 H 0.16489 0.34616 0.57097 0.0
H478 H 0.09724 0.29012 0.55038 0.0
C479 C 0.10007 0.3216 0.57118 0.0
Co480 Co 0.98833 0.00355 0.49623 0.0
C481 C 0.00653 0.95643 0.49164 0.0
Co482 Co 0.02362 0.99776 0.51086 0.0
C483 C 0.94593 0.02354 0.47502 0.0
C484 C 0.94193 0.98602 0.48773 0.0
N485 N 0.95792 0.00472 0.48495 0.0
N486 N 0.92305 0.01726 0.47181 0.0
C487 C 0.92057 0.99363 0.47963 0.0
H488 H 0.95354 0.04175 0.47126 0.0
H489 H 0.94536 0.96819 0.49597 0.0
C490 C 1.00567 0.04489 0.5153 0.0
N491 N 0.05387 0.99668 0.52247 0.0
C492 C 0.06467 0.97918 0.5358 0.0
C493 C 0.07008 0.01514 0.51941 0.0
N494 N 0.08682 0.98632 0.54141 0.0
C495 C 0.09027 0.00888 0.53111 0.0
C496 C 0.02306 0.0159 0.46298 0.0
O497 O 0.98737 0.03663 0.50515 0.0
O498 O 0.0226 0.03077 0.51945 0.0
O499 O 0.03593 0.0089 0.48032 0.0
O500 O 1.00083 0.015 0.46573 0.0
O501 O 0.02462 0.96473 0.50213 0.0
H502 H 0.06738 0.03213 0.50926 0.0
H503 H 0.05639 0.96176 0.54151 0.0
O504 O 0.98952 0.97046 0.48737 0.0
O505 O 0.97601 0.9923 0.52664 0.0
O506 O 0.01101 0.98656 0.54147 0.0
C507 C 0.98878 0.9856 0.54412 0.0
H508 H 0.90434 0.98272 0.47987 0.0
H509 H 0.10644 0.01985 0.53161 0.0
Co510 Co 0.49299 1.00335 0.9862 0.0
C511 C 0.48866 0.9655 0.0209 0.0
Co512 Co 0.51302 0.01042 0.01838 0.0
C513 C 0.48472 0.99689 0.9371 0.0
C514 C 0.45356 0.98974 0.95742 0.0
N515 N 0.47633 0.99694 0.95919 0.0
N516 N 0.46818 0.98971 0.92159 0.0
C517 C 0.44848 0.98532 0.93432 0.0
H518 H 0.50277 1.00169 0.93259 0.0
H519 H 0.44162 0.98713 0.9721 0.0
C520 C 0.51744 0.04826 0.98373 0.0
N521 N 0.52964 0.01687 0.04535 0.0
C522 C 0.52137 0.01602 0.06752 0.0
C523 C 0.55206 0.02532 0.04703 0.0
N524 N 0.53761 0.02395 0.08297 0.0
C525 C 0.557 0.02976 0.07016 0.0
C526 C 0.53958 0.98678 0.98522 0.0
O527 O 0.50362 0.0344 0.97231 0.0
O528 O 0.52357 0.04129 1.00447 0.0
O529 O 0.54028 0.99523 0.00569 0.0
O530 O 0.52039 0.98816 0.97365 0.0
O531 O 0.50238 0.97949 0.03226 0.0
H532 H 0.5638 0.02873 0.03228 0.0
H533 H 0.50343 0.01074 0.07206 0.0
O534 O 0.48249 0.97234 1.00012 0.0
O535 O 0.4657 0.01852 0.99899 0.0
O536 O 0.48571 0.02566 0.03093 0.0
C537 C 0.46647 0.02701 0.01944 0.0
H538 H 0.43186 0.97835 0.92765 0.0
H539 H 0.57344 0.03706 0.07694 0.0
Co540 Co 0.52369 0.51281 0.4958 0.0
C541 C 0.48515 0.51661 0.46484 0.0
Co542 Co 0.49104 0.49429 0.50912 0.0
C543 C 0.57263 0.52449 0.48498 0.0
C544 C 0.5497 0.55321 0.47395 0.0
N545 N 0.54984 0.53053 0.4845 0.0
N546 N 0.58671 0.54253 0.47504 0.0
C547 C 0.57226 0.56061 0.46812 0.0
H548 H 0.57871 0.50711 0.4923 0.0
H549 H 0.53415 0.56378 0.47087 0.0
C550 C 0.52957 0.49058 0.54013 0.0
N551 N 0.46495 0.47639 0.52035 0.0
C552 C 0.442 0.48189 0.51964 0.0
C553 C 0.46538 0.45338 0.53017 0.0
N554 N 0.42816 0.46304 0.52838 0.0
C555 C 0.44285 0.44513 0.53506 0.0
C556 C 0.52027 0.46534 0.48346 0.0
O557 O 0.54039 0.50302 0.5238 0.0
O558 O 0.50792 0.485 0.53728 0.0
O559 O 0.50126 0.46604 0.49485 0.0
O560 O 0.53349 0.4845 0.48126 0.0
O561 O 0.47443 0.50378 0.48097 0.0
H562 H 0.48111 0.44311 0.53328 0.0
H563 H 0.43555 0.4991 0.5123 0.0
O564 O 0.50672 0.52245 0.46783 0.0
O565 O 0.51374 0.54096 0.51048 0.0
O566 O 0.48099 0.52271 0.52319 0.0
C567 C 0.49448 0.54171 0.52147 0.0
H568 H 0.57761 0.57818 0.45982 0.0
H569 H 0.43768 0.42736 0.54306 0.0
Co570 Co 0.01271 0.50659 0.9919 0.0
C571 C 0.96805 0.48475 0.99028 0.0
Co572 Co 0.99336 0.50896 0.02498 0.0
C573 C 0.02818 0.48742 0.94859 0.0
C574 C 0.04383 0.52276 0.9545 0.0
N575 N 0.02923 0.50517 0.96422 0.0
N576 N 0.04143 0.49328 0.92941 0.0
C577 C 0.05141 0.51548 0.93315 0.0
H578 H 0.01759 0.47067 0.9511 0.0
H579 H 0.04811 0.54011 0.96209 0.0
C580 C 0.03806 0.53073 0.02657 0.0
N581 N 0.97664 0.51086 0.05253 0.0
C582 C 0.98478 0.5104 0.07489 0.0
C583 C 0.95347 0.51458 0.05426 0.0
N584 N 0.96764 0.51393 0.09051 0.0
C585 C 0.94788 0.51644 0.07753 0.0
C586 C 0.02064 0.4669 0.02422 0.0
O587 O 0.03872 0.52384 0.0056 0.0
O588 O 0.01941 0.52645 0.0384 0.0
O589 O 0.00649 0.47829 0.03669 0.0
O590 O 0.02558 0.47592 1.00364 0.0
O591 O 0.96739 0.4914 0.01134 0.0
H592 H 0.94148 0.51637 0.03948 0.0
H593 H 1.0031 0.50842 0.0795 0.0
O594 O 0.98662 0.48933 0.97842 0.0
O595 O 0.99971 0.53721 0.98027 0.0
O596 O 0.98041 0.53965 0.01308 0.0
C597 C 0.98547 0.54862 0.99254 0.0
H598 H 0.06254 0.52621 0.92088 0.0
H599 H 0.93061 0.51962 0.0843 0.0
H600 H 0.12917 0.07486 0.2614 0.0
H601 H 0.11202 0.0552 0.29737 0.0
H602 H 0.09356 0.12593 0.32034 0.0
H603 H 0.1115 0.14569 0.28521 0.0
H604 H 0.10978 0.09959 0.3565 0.0
H605 H 0.04384 0.04132 0.31161 0.0
H606 H 0.07348 0.03596 0.30332 0.0
H607 H 0.06101 0.06526 0.29606 0.0
C608 C 0.12168 0.08631 0.27418 0.0
C609 C 0.12157 0.112 0.26992 0.0
C610 C 0.11149 0.07494 0.29471 0.0
C611 C 0.10079 0.08888 0.31159 0.0
C612 C 0.10135 0.11454 0.30769 0.0
H613 H 1.00177 0.03609 0.4229 0.0
H614 H 0.02056 0.05335 0.38672 0.0
C615 C 0.11153 0.12587 0.28729 0.0
C616 C 0.08932 0.07711 0.33347 0.0
H617 H 0.04703 0.03474 0.35306 0.0
C618 C 0.09608 0.08539 0.35564 0.0
C619 C 0.07104 0.0588 0.33271 0.0
C620 C 0.06171 0.04995 0.30966 0.0
C621 C 0.08543 0.07592 0.37673 0.0
C622 C 0.06769 0.05706 0.37604 0.0
C623 C 0.06072 0.04894 0.35387 0.0
C624 C 0.05606 0.0458 0.39803 0.0
C625 C 0.09291 0.08685 0.39954 0.0
C626 C 0.06945 0.03521 0.41657 0.0
C627 C 0.05873 0.02542 0.43736 0.0
C628 C 0.03417 0.02558 0.44026 0.0
C629 C 0.02068 0.0356 0.42146 0.0
C630 C 0.03147 0.04551 0.40065 0.0
H631 H 0.101 0.10554 0.3965 0.0
H632 H 0.0778 0.08797 0.4116 0.0
H633 H 0.10621 0.07512 0.40838 0.0
H634 H 0.08833 0.03445 0.415 0.0
H635 H 0.0698 0.01774 0.45124 0.0
H636 H 0.45756 0.95802 0.70272 0.0
H637 H 0.46672 0.97351 0.74134 0.0
H638 H 0.49298 0.90303 0.76443 0.0
H639 H 0.48299 0.8871 0.72622 0.0
H640 H 0.45831 0.91746 0.7921 0.0
H641 H 0.52453 0.99341 0.77889 0.0
H642 H 0.49987 0.99634 0.75925 0.0
H643 H 0.51885 0.97087 0.75723 0.0
C644 C 0.4657 0.94595 0.71589 0.0
C645 C 0.46931 0.92125 0.71148 0.0
C646 C 0.4712 0.95493 0.73786 0.0
C647 C 0.48067 0.93946 0.75571 0.0
C648 C 0.48579 0.9153 0.75083 0.0
H649 H 0.50854 0.97775 0.90054 0.0
H650 H 0.51307 0.96656 0.85983 0.0
C651 C 0.48021 0.90627 0.72891 0.0
C652 C 0.48181 0.94724 0.78023 0.0
H653 H 0.50263 0.99237 0.81497 0.0
C654 C 0.46826 0.93366 0.79715 0.0
C655 C 0.49483 0.96834 0.78679 0.0
C656 C 0.51053 0.98295 0.76963 0.0
C657 C 0.46681 0.94098 0.82028 0.0
C658 C 0.4789 0.96272 0.82655 0.0
C659 C 0.49311 0.9759 0.80993 0.0
C660 C 0.47672 0.97193 0.85035 0.0
C661 C 0.45228 0.92542 0.83782 0.0
C662 C 0.45492 0.97929 0.85822 0.0
C663 C 0.45227 0.98577 0.88142 0.0
C664 C 0.47141 0.9851 0.89715 0.0
C665 C 0.49348 0.97869 0.88887 0.0
C666 C 0.49611 0.9722 0.86564 0.0
H667 H 0.44895 0.90654 0.8319 0.0
H668 H 0.4611 0.92422 0.8553 0.0
H669 H 0.43506 0.93392 0.83995 0.0
H670 H 0.43985 0.97956 0.8465 0.0
H671 H 0.43518 0.99107 0.88712 0.0
H672 H 0.62426 0.37678 0.71885 0.0
H673 H 0.60562 0.39287 0.6827 0.0
H674 H 0.62153 0.46677 0.70244 0.0
H675 H 0.63952 0.45085 0.7391 0.0
H676 H 0.57609 0.46074 0.68631 0.0
H677 H 0.6381 0.42302 0.62408 0.0
H678 H 0.62527 0.4002 0.64439 0.0
H679 H 0.64425 0.42414 0.65519 0.0
C680 C 0.62369 0.39648 0.71564 0.0
C681 C 0.63348 0.41249 0.73197 0.0
C682 C 0.61326 0.40565 0.69476 0.0
C683 C 0.61251 0.43105 0.6896 0.0
C684 C 0.62206 0.4471 0.70592 0.0
H685 H 0.57569 0.49947 0.55227 0.0
H686 H 0.59584 0.48611 0.58869 0.0
C687 C 0.63251 0.43795 0.72682 0.0
C688 C 0.60123 0.44084 0.66748 0.0
H689 H 0.60305 0.43933 0.6075 0.0
C690 C 0.58206 0.45615 0.66908 0.0
C691 C 0.6092 0.43515 0.64495 0.0
C692 C 0.63048 0.41993 0.64195 0.0
C693 C 0.57032 0.46544 0.64884 0.0
C694 C 0.57769 0.45894 0.62635 0.0
C695 C 0.59722 0.44412 0.62473 0.0
C696 C 0.56532 0.46724 0.60431 0.0
C697 C 0.55029 0.48239 0.65175 0.0
C698 C 0.54153 0.46084 0.60079 0.0
C699 C 0.52995 0.46848 0.58002 0.0
C700 C 0.54195 0.48257 0.56219 0.0
C701 C 0.56587 0.48873 0.56564 0.0
C702 C 0.57744 0.48107 0.58645 0.0
H703 H 0.55113 0.49096 0.66904 0.0
H704 H 0.5503 0.49716 0.63757 0.0
H705 H 0.53342 0.47172 0.65084 0.0
H706 H 0.53192 0.44971 0.61404 0.0
H707 H 0.51159 0.46322 0.57791 0.0
H708 H 0.96832 0.53109 0.31739 0.0
H709 H 0.97458 0.51405 0.27904 0.0
H710 H 0.98612 0.58718 0.24793 0.0
H711 H 0.98009 0.60424 0.28609 0.0
H712 H 0.94731 0.52201 0.24127 0.0
H713 H 0.03819 0.55178 0.21819 0.0
H714 H 0.02705 0.55253 0.24777 0.0
H715 H 0.02143 0.57716 0.22636 0.0
C716 C 0.97258 0.54348 0.30242 0.0
C717 C 0.97375 0.569 0.30476 0.0
C718 C 0.97622 0.53372 0.28056 0.0
C719 C 0.98115 0.5493 0.26066 0.0
C720 C 0.98302 0.57474 0.26313 0.0
H721 H 0.94025 0.53968 0.11832 0.0
H722 H 0.94473 0.54457 0.16041 0.0
C723 C 0.97951 0.58449 0.28497 0.0
C724 C 0.98165 0.53938 0.2369 0.0
H725 H 0.01244 0.54245 0.18553 0.0
C726 C 0.96176 0.5261 0.22923 0.0
C727 C 1.00061 0.54437 0.22126 0.0
C728 C 0.02312 0.55701 0.22891 0.0
C729 C 0.95974 0.51894 0.20598 0.0
C730 C 0.97788 0.52567 0.18986 0.0
C731 C 0.99839 0.53763 0.19784 0.0
C732 C 0.97515 0.52201 0.16436 0.0
C733 C 0.938 0.50456 0.19882 0.0
C734 C 0.99112 0.50817 0.15245 0.0
C735 C 0.98861 0.50533 0.12824 0.0
C736 C 0.97014 0.5164 0.11553 0.0
C737 C 0.95433 0.53041 0.12758 0.0
C738 C 0.95687 0.53325 0.15169 0.0
H739 H 0.92979 0.49428 0.21418 0.0
H740 H 0.92494 0.51745 0.19129 0.0
H741 H 0.94204 0.49138 0.18532 0.0
H742 H 1.00545 0.49948 0.16191 0.0
H743 H 1.001 0.49431 0.11954 0.0
H744 H 0.2938 0.14747 0.10773 0.0
H745 H 0.32876 0.13278 0.08883 0.0
H746 H 0.3043 0.05804 0.10335 0.0
H747 H 0.2695 0.07256 0.12242 0.0
H748 H 0.34939 0.06124 0.11292 0.0
H749 H 0.33722 0.10747 0.02505 0.0
H750 H 0.33858 0.12866 0.0481 0.0
H751 H 0.31467 0.1063 0.04719 0.0
C752 C 0.29563 0.12789 0.10668 0.0
C753 C 0.2785 0.11134 0.11677 0.0
C754 C 0.31576 0.11943 0.09571 0.0
C755 C 0.31935 0.09414 0.09412 0.0
C756 C 0.30226 0.07762 0.10418 0.0
H757 H 0.42134 0.02924 1.00149 0.0
H758 H 0.38644 0.04516 0.0196 0.0
C759 C 0.28223 0.08603 0.11525 0.0
C760 C 0.34103 0.08476 0.08268 0.0
H761 H 0.37398 0.08897 0.03221 0.0
C762 C 0.35466 0.06735 0.09524 0.0
C763 C 0.34808 0.09219 0.0594 0.0
C764 C 0.33376 0.10948 0.04404 0.0
C765 C 0.37491 0.05756 0.0855 0.0
C766 C 0.38245 0.06567 0.06255 0.0
C767 C 0.36865 0.08281 0.04985 0.0
C768 C 0.4042 0.05625 0.05128 0.0
C769 C 0.38759 0.03801 0.09981 0.0
C770 C 0.4263 0.05737 0.06257 0.0
C771 C 0.44636 0.04808 0.05225 0.0
C772 C 0.44513 0.03764 0.03009 0.0
C773 C 0.42314 0.03706 0.01853 0.0
C774 C 0.40305 0.04624 0.02894 0.0
H775 H 0.37593 0.02856 0.11324 0.0
H776 H 0.39448 0.02403 0.08842 0.0
H777 H 0.40258 0.04665 0.10922 0.0
H778 H 0.42814 0.06555 0.07943 0.0
H779 H 0.46289 0.04909 0.06172 0.0
H780 H 0.28369 0.89232 0.57298 0.0
H781 H 0.24322 0.90223 0.56302 0.0
H782 H 0.23141 0.92074 0.63463 0.0
H783 H 0.2717 0.91001 0.64503 0.0
H784 H 0.19302 0.89338 0.61303 0.0
H785 H 0.22516 0.97511 0.55859 0.0
H786 H 0.23709 0.9465 0.55114 0.0
H787 H 0.2438 0.95862 0.57926 0.0
C788 C 0.27239 0.89806 0.58674 0.0
C789 C 0.28096 0.90059 0.60977 0.0
C790 C 0.24933 0.90384 0.58097 0.0
C791 C 0.23452 0.91245 0.59805 0.0
C792 C 0.24267 0.91416 0.62122 0.0
H793 H 0.11786 0.00431 0.57227 0.0
H794 H 0.15195 0.98355 0.58898 0.0
C795 C 0.26574 0.90831 0.62705 0.0
C796 C 0.21113 0.92136 0.59133 0.0
H797 H 0.18441 0.96631 0.55827 0.0
C798 C 0.19104 0.9093 0.60106 0.0
C799 C 0.20877 0.94228 0.5759 0.0
C800 C 0.22982 0.95656 0.56574 0.0
C801 C 0.16848 0.91766 0.5956 0.0
C802 C 0.16618 0.93842 0.57997 0.0
C803 C 0.1863 0.95036 0.57025 0.0
C804 C 0.14325 0.94887 0.57377 0.0
C805 C 0.14737 0.90463 0.60691 0.0
C806 C 0.12668 0.93594 0.56037 0.0
C807 C 0.10707 0.94779 0.55093 0.0
C808 C 0.10411 0.97275 0.55451 0.0
C809 C 0.11999 0.98514 0.56907 0.0
C810 C 0.13936 0.9733 0.57865 0.0
H811 H 0.15238 0.89225 0.62212 0.0
H812 H 0.13484 0.91806 0.61299 0.0
H813 H 0.13817 0.89341 0.59375 0.0
H814 H 0.12959 0.91719 0.5561 0.0
H815 H 0.09511 0.93799 0.53959 0.0
H816 H 0.76957 0.43084 0.8898 0.0
H817 H 0.80565 0.448 0.90705 0.0
H818 H 0.83351 0.37553 0.91475 0.0
H819 H 0.79735 0.35828 0.89798 0.0
H820 H 0.84027 0.39886 0.95392 0.0
H821 H 0.86945 0.46084 0.87887 0.0
H822 H 0.84039 0.4669 0.88843 0.0
H823 H 0.84612 0.43798 0.87617 0.0
C824 C 0.78352 0.41862 0.89489 0.0
C825 C 0.78056 0.39319 0.89252 0.0
C826 C 0.8042 0.42846 0.9047 0.0
C827 C 0.82256 0.41315 0.91194 0.0
C828 C 0.81968 0.38778 0.90933 0.0
H829 H 0.96485 0.46405 0.94743 0.0
H830 H 0.92993 0.4459 0.92894 0.0
C831 C 0.79895 0.37792 0.89977 0.0
C832 C 0.84435 0.42327 0.92313 0.0
H833 H 0.88946 0.46577 0.91534 0.0
C834 C 0.85106 0.41342 0.9454 0.0
C835 C 0.85871 0.44204 0.91196 0.0
C836 C 0.85347 0.45239 0.88744 0.0
C837 C 0.87145 0.42197 0.9569 0.0
C838 C 0.88529 0.44143 0.94616 0.0
C839 C 0.87877 0.45105 0.92374 0.0
C840 C 0.90664 0.45198 0.95779 0.0
C841 C 0.87819 0.40962 0.98022 0.0
C842 C 0.90528 0.4616 0.98015 0.0
C843 C 0.92529 0.47174 0.99089 0.0
C844 C 0.94708 0.47287 0.97936 0.0
C845 C 0.94838 0.46341 0.95688 0.0
C846 C 0.92839 0.45308 0.94624 0.0
H847 H 0.87027 0.39077 0.98239 0.0
H848 H 0.89754 0.40853 0.98206 0.0
H849 H 0.87163 0.42035 0.99469 0.0
H850 H 0.88864 0.46162 0.98921 0.0
H851 H 0.92356 0.47913 0.00808 0.0
H852 H 0.79548 0.55807 0.4036 0.0
H853 H 0.75496 0.54929 0.41576 0.0
H854 H 0.77254 0.56955 0.48615 0.0
H855 H 0.81334 0.57824 0.47415 0.0
H856 H 0.73554 0.51688 0.45165 0.0
H857 H 0.71863 0.61476 0.46601 0.0
H858 H 0.74407 0.60553 0.45044 0.0
H859 H 0.74307 0.60199 0.48198 0.0
C860 C 0.79087 0.56031 0.42177 0.0
C861 C 0.80765 0.56893 0.43789 0.0
C862 C 0.76767 0.55536 0.42866 0.0
C863 C 0.76072 0.55903 0.45177 0.0
C864 C 0.77749 0.56699 0.46812 0.0
H865 H 0.61827 0.51796 0.50263 0.0
H866 H 0.66115 0.52031 0.49895 0.0
C867 C 0.80076 0.57198 0.46123 0.0
C868 C 0.73568 0.55534 0.45826 0.0
H869 H 0.68724 0.58626 0.47278 0.0
C870 C 0.72498 0.53196 0.4565 0.0
C871 C 0.72198 0.57515 0.46435 0.0
C872 C 0.73238 0.60084 0.46567 0.0
C873 C 0.70078 0.52795 0.46027 0.0
C874 C 0.68707 0.54782 0.46614 0.0
C875 C 0.69788 0.57106 0.46838 0.0
C876 C 0.6612 0.54544 0.46824 0.0
C877 C 0.6899 0.50278 0.45702 0.0
C878 C 0.6471 0.55886 0.4523 0.0
C879 C 0.62272 0.55755 0.45433 0.0
C880 C 0.61187 0.54288 0.47247 0.0
C881 C 0.62604 0.52919 0.48831 0.0
C882 C 0.65054 0.53053 0.48625 0.0
H883 H 0.70211 0.49064 0.44839 0.0
H884 H 0.68513 0.49408 0.47447 0.0
H885 H 0.6736 0.50408 0.44627 0.0
H886 H 0.65501 0.57039 0.43822 0.0
H887 H 0.61237 0.568 0.44161 0.0
H888 H 0.09201 0.25638 0.11532 0.0
H889 H 0.07152 0.29261 0.09995 0.0
H890 H 0.13787 0.32907 0.08282 0.0
H891 H 0.15853 0.29314 0.09862 0.0
H892 H 0.1074 0.35979 0.10422 0.0
H893 H 0.06169 0.31469 0.03088 0.0
H894 H 0.05677 0.2996 0.05931 0.0
H895 H 0.08574 0.3009 0.04694 0.0
C896 C 0.10235 0.27211 0.10843 0.0
C897 C 0.12709 0.27152 0.10822 0.0
C898 C 0.09052 0.29283 0.09935 0.0
C899 C 0.103 0.31366 0.08977 0.0
C900 C 0.12769 0.3133 0.08988 0.0
H901 H 0.04922 0.43626 1.00131 0.0
H902 H 0.06874 0.39964 0.01737 0.0
C903 C 0.13953 0.29255 0.09882 0.0
C904 C 0.09046 0.33587 0.07995 0.0
H905 H 0.05079 0.35521 0.03783 0.0
C906 C 0.09502 0.35872 0.08971 0.0
C907 C 0.07444 0.33482 0.06078 0.0
C908 C 0.06946 0.31127 0.04867 0.0
C909 C 0.08387 0.38021 0.08117 0.0
C910 C 0.06743 0.37904 0.06237 0.0
C911 C 0.06314 0.35627 0.05236 0.0
C912 C 0.05494 0.40128 0.05254 0.0
C913 C 0.09021 0.40415 0.09208 0.0
C914 C 0.0402 0.41446 0.06669 0.0
C915 C 0.02886 0.43543 0.05748 0.0
C916 C 0.03191 0.4439 0.03382 0.0
C917 C 0.04641 0.43045 0.0196 0.0
C918 C 0.05762 0.4094 0.02879 0.0
H919 H 0.10706 0.40326 0.10199 0.0
H920 H 0.09163 0.41942 0.07843 0.0
H921 H 0.07625 0.40843 0.10457 0.0
H922 H 0.03737 0.40847 0.08492 0.0
H923 H 0.01785 0.44516 0.06903 0.0
H924 H 0.57592 0.25899 0.88164 0.0
H925 H 0.55787 0.22194 0.90072 0.0
H926 H 0.62634 0.19241 0.91304 0.0
H927 H 0.64455 0.22911 0.89329 0.0
H928 H 0.59442 0.15876 0.89486 0.0
H929 H 0.55624 0.20246 0.97097 0.0
H930 H 0.54799 0.21628 0.94292 0.0
H931 H 0.5782 0.21778 0.95223 0.0
C932 C 0.58718 0.24459 0.8883 0.0
C933 C 0.61173 0.24709 0.8859 0.0
C934 C 0.57681 0.22351 0.89946 0.0
C935 C 0.59074 0.20452 0.90863 0.0
C936 C 0.61524 0.2069 0.90625 0.0
H937 H 0.54748 0.0816 1.00349 0.0
H938 H 0.56498 0.11923 0.98497 0.0
C939 C 0.62564 0.22799 0.89509 0.0
C940 C 0.57974 0.18187 0.92008 0.0
H941 H 0.54432 0.16098 0.96558 0.0
C942 C 0.58351 0.15924 0.91035 0.0
C943 C 0.5657 0.18245 0.94046 0.0
C944 C 0.56193 0.206 0.95243 0.0
C945 C 0.57339 0.13724 0.92022 0.0
C946 C 0.55878 0.13791 0.94018 0.0
C947 C 0.55529 0.1605 0.95012 0.0
C948 C 0.54752 0.11529 0.95141 0.0
C949 C 0.57881 0.11341 0.90946 0.0
C950 C 0.53152 0.10072 0.93887 0.0
C951 C 0.52146 0.07913 0.94941 0.0
C952 C 0.5271 0.07174 0.97279 0.0
C953 C 0.54275 0.08668 0.98545 0.0
C954 C 0.55278 0.10824 0.9749 0.0
H955 H 0.59471 0.11529 0.89824 0.0
H956 H 0.58151 0.09865 0.92331 0.0
H957 H 0.5638 0.10768 0.89825 0.0
H958 H 0.52683 0.10604 0.92088 0.0
H959 H 0.50942 0.06813 0.93917 0.0
H960 H 0.9491 0.73113 0.47875 0.0
H961 H 0.96295 0.7727 0.48628 0.0
H962 H 0.99144 0.78107 0.4162 0.0
H963 H 0.97585 0.7404 0.40773 0.0
H964 H 1.00408 0.79573 0.48741 0.0
H965 H 0.95133 0.83924 0.41533 0.0
H966 H 0.94791 0.80714 0.42405 0.0
H967 H 0.97169 0.81792 0.40511 0.0
C968 C 0.95796 0.74189 0.46474 0.0
C969 C 0.96088 0.73238 0.44245 0.0
C970 C 0.96616 0.7656 0.46921 0.0
C971 C 0.97776 0.78029 0.45163 0.0
C972 C 0.98193 0.7704 0.42983 0.0
H973 H 0.04164 0.92358 0.48771 0.0
H974 H 0.03729 0.88073 0.47688 0.0
C975 C 0.97332 0.74686 0.42517 0.0
C976 C 0.98473 0.80614 0.456 0.0
H977 H 0.97716 0.86532 0.43577 0.0
C978 C 0.99823 0.81097 0.47611 0.0
C979 C 0.97689 0.82605 0.44137 0.0
C980 C 0.96097 0.8224 0.42041 0.0
C981 C 1.00365 0.83511 0.48229 0.0
C982 C 0.99606 0.85498 0.46748 0.0
C983 C 0.98312 0.8501 0.44704 0.0
C984 C 0.99938 0.88097 0.47373 0.0
C985 C 0.0165 0.839 0.50516 0.0
C986 C 0.97968 0.89561 0.47481 0.0
C987 C 0.98219 0.92011 0.48035 0.0
C988 C 1.00446 0.93055 0.48525 0.0
C989 C 0.02425 0.91597 0.48419 0.0
C990 C 0.02175 0.89143 0.47819 0.0
H991 H 0.01561 0.82229 0.51718 0.0
H992 H 0.03528 0.8435 0.50143 0.0
H993 H 0.00916 0.85441 0.5144 0.0
H994 H 0.96223 0.88802 0.47148 0.0
H995 H 0.96656 0.93078 0.48112 0.0
H996 H 0.418 0.75627 0.54405 0.0
H997 H 0.42981 0.71535 0.53482 0.0
H998 H 0.46467 0.70722 0.60221 0.0
H999 H 0.45169 0.74748 0.61223 0.0
H1000 H 0.47162 0.69621 0.53057 0.0
H1001 H 0.42337 0.64592 0.60337 0.0
H1002 H 0.41907 0.67792 0.59561 0.0
H1003 H 0.44381 0.66881 0.61349 0.0
C1004 C 0.42796 0.74568 0.55704 0.0
C1005 C 0.43363 0.75505 0.57901 0.0
C1006 C 0.43483 0.72237 0.55166 0.0
C1007 C 0.44764 0.70803 0.56805 0.0
C1008 C 0.45424 0.71772 0.58957 0.0
H1009 H 0.52313 0.58068 0.53126 0.0
H1010 H 0.51169 0.62061 0.54382 0.0
C1011 C 0.44714 0.74093 0.59509 0.0
C1012 C 0.45418 0.68302 0.56245 0.0
H1013 H 0.44987 0.62286 0.58197 0.0
C1014 C 0.4668 0.68016 0.54176 0.0
C1015 C 0.44748 0.66207 0.57687 0.0
C1016 C 0.43248 0.66375 0.59844 0.0
C1017 C 0.47317 0.65694 0.53521 0.0
C1018 C 0.46743 0.63611 0.55019 0.0
C1019 C 0.45452 0.63891 0.57071 0.0
C1020 C 0.47448 0.61126 0.54466 0.0
C1021 C 0.4855 0.65495 0.51202 0.0
C1022 C 0.45745 0.59234 0.54229 0.0
C1023 C 0.46399 0.56929 0.5356 0.0
C1024 C 0.48764 0.56495 0.53102 0.0
C1025 C 0.50472 0.58363 0.53434 0.0
C1026 C 0.49821 0.60649 0.54136 0.0
H1027 H 0.48219 0.67099 0.49975 0.0
H1028 H 0.50471 0.6544 0.51517 0.0
H1029 H 0.47975 0.638 0.50334 0.0
H1030 H 0.43904 0.59561 0.54497 0.0
H1031 H 0.45048 0.55519 0.53318 0.0
H1032 H 0.91612 0.89837 0.75159 0.0
H1033 H 0.93695 0.91355 0.71599 0.0
H1034 H 0.87104 0.93103 0.68267 0.0
H1035 H 0.85008 0.91587 0.71812 0.0
H1036 H 0.93616 0.89955 0.67104 0.0
H1037 H 0.90678 0.99512 0.6706 0.0
H1038 H 0.9024 0.97372 0.69556 0.0
H1039 H 0.88277 0.97302 0.67064 0.0
C1040 C 0.90593 0.90532 0.73671 0.0
C1041 C 0.88122 0.90591 0.7381 0.0
C1042 C 0.91797 0.91415 0.71626 0.0
C1043 C 0.90578 0.92401 0.69652 0.0
C1044 C 0.88111 0.92428 0.69772 0.0
H1045 H 0.94185 0.98253 0.55488 0.0
H1046 H 0.92304 0.9675 0.59157 0.0
C1047 C 0.86906 0.91551 0.71816 0.0
C1048 C 0.91878 0.93352 0.67465 0.0
H1049 H 0.926 0.98364 0.63608 0.0
C1050 C 0.93403 0.91801 0.66355 0.0
C1051 C 0.91623 0.95765 0.6646 0.0
C1052 C 0.90136 0.97594 0.67607 0.0
C1053 C 0.94608 0.92561 0.6426 0.0
C1054 C 0.94332 0.94965 0.63242 0.0
C1055 C 0.92823 0.96521 0.64364 0.0
C1056 C 0.95533 0.95884 0.60991 0.0
C1057 C 0.96112 0.90746 0.63115 0.0
C1058 C 0.97998 0.95944 0.60767 0.0
C1059 C 0.99091 0.96813 0.58651 0.0
C1060 C 0.97752 0.97659 0.56697 0.0
C1061 C 0.95288 0.97619 0.56939 0.0
C1062 C 0.94201 0.96757 0.5905 0.0
H1063 H 0.95658 0.88827 0.63739 0.0
H1064 H 0.95922 0.90898 0.61169 0.0
H1065 H 0.97981 0.91132 0.63565 0.0
H1066 H 0.99087 0.95339 0.62239 0.0
H1067 H 0.00988 0.96821 0.58548 0.0
H1068 H 0.51352 0.08304 0.30065 0.0
H1069 H 0.49992 0.06511 0.26403 0.0
H1070 H 0.57172 0.05892 0.24246 0.0
H1071 H 0.58541 0.07747 0.27808 0.0
H1072 H 0.51197 0.08567 0.21724 0.0
H1073 H 0.5407 0.99024 0.23176 0.0
H1074 H 0.53584 0.01003 0.25564 0.0
H1075 H 0.56291 0.01257 0.23948 0.0
C1076 C 0.52639 0.07778 0.28812 0.0
C1077 C 0.55058 0.08147 0.29249 0.0
C1078 C 0.51859 0.06738 0.26735 0.0
C1079 C 0.53487 0.06023 0.25088 0.0
C1080 C 0.55892 0.06368 0.25529 0.0
H1081 H 0.55844 0.05906 0.10844 0.0
H1082 H 0.55203 0.06603 0.14989 0.0
C1083 C 0.5667 0.07424 0.27578 0.0
C1084 C 0.52729 0.05129 0.22791 0.0
H1085 H 0.5378 0.00562 0.19113 0.0
C1086 C 0.51696 0.0679 0.21164 0.0
C1087 C 0.53362 0.02802 0.22077 0.0
C1088 C 0.54368 0.00908 0.23791 0.0
C1089 C 0.51475 0.06265 0.18786 0.0
C1090 C 0.52324 0.04036 0.18032 0.0
C1091 C 0.53158 0.02284 0.19696 0.0
C1092 C 0.52629 0.03622 0.15512 0.0
C1093 C 0.50437 0.08145 0.17078 0.0
C1094 C 0.51434 0.01677 0.14456 0.0
C1095 C 0.51808 0.01267 0.12085 0.0
C1096 C 0.53409 0.02774 0.1075 0.0
C1097 C 0.54622 0.04699 0.1183 0.0
C1098 C 0.54233 0.05119 0.14188 0.0
H1099 H 0.49259 0.09369 0.17983 0.0
H1100 H 0.51878 0.09301 0.16253 0.0
H1101 H 0.49435 0.07248 0.15659 0.0
H1102 H 0.50213 0.00485 0.15464 0.0
H1103 H 0.50869 0.99755 0.11302 0.0
H1104 H 0.34787 0.58984 0.29422 0.0
H1105 H 0.36735 0.57327 0.3298 0.0
H1106 H 0.43487 0.59112 0.29865 0.0
H1107 H 0.41564 0.60719 0.26279 0.0
H1108 H 0.40122 0.53472 0.33433 0.0
H1109 H 0.43743 0.62419 0.36287 0.0
H1110 H 0.41388 0.62192 0.34159 0.0
H1111 H 0.44364 0.61754 0.33299 0.0
C1112 C 0.36687 0.59004 0.29477 0.0
C1113 C 0.38012 0.60001 0.27554 0.0
C1114 C 0.37797 0.58067 0.31522 0.0
C1115 C 0.40256 0.58125 0.31702 0.0
C1116 C 0.41587 0.5909 0.29783 0.0
H1117 H 0.50395 0.54086 0.42571 0.0
H1118 H 0.48354 0.55541 0.38998 0.0
C1119 C 0.4048 0.60017 0.27734 0.0
C1120 C 0.4143 0.57159 0.33888 0.0
H1121 H 0.44975 0.58858 0.38434 0.0
C1122 C 0.41175 0.54648 0.34535 0.0
C1123 C 0.42809 0.58695 0.35318 0.0
C1124 C 0.43085 0.6142 0.3475 0.0
C1125 C 0.42305 0.53621 0.36545 0.0
C1126 C 0.43682 0.55159 0.37983 0.0
C1127 C 0.43924 0.57675 0.37337 0.0
C1128 C 0.44912 0.54202 0.40149 0.0
C1129 C 0.42069 0.50886 0.37065 0.0
C1130 C 0.43661 0.52976 0.42005 0.0
C1131 C 0.44829 0.52122 0.4405 0.0
C1132 C 0.47271 0.52505 0.44296 0.0
C1133 C 0.48515 0.53752 0.42443 0.0
C1134 C 0.47349 0.5459 0.40396 0.0
H1135 H 0.41546 0.49903 0.35472 0.0
H1136 H 0.4374 0.50138 0.37759 0.0
H1137 H 0.40689 0.50495 0.38411 0.0
H1138 H 0.41773 0.52707 0.41888 0.0
H1139 H 0.43812 0.51191 0.4545 0.0
H1140 H 0.0492 0.37229 0.7394 0.0
H1141 H 0.04268 0.38449 0.77954 0.0
H1142 H 0.05369 0.46048 0.7565 0.0
H1143 H 0.05964 0.4485 0.7162 0.0
H1144 H 0.07518 0.41017 0.80699 0.0
H1145 H 0.99269 0.46047 0.79461 0.0
H1146 H 1.00288 0.43972 0.77349 0.0
H1147 H 0.0153 0.47039 0.7741 0.0
C1148 C 0.04972 0.39163 0.74278 0.0
C1149 C 0.05483 0.40946 0.72462 0.0
C1150 C 0.04617 0.39854 0.76574 0.0
C1151 C 0.04745 0.42337 0.7709 0.0
C1152 C 0.05224 0.44124 0.75278 0.0
H1153 H 0.07754 0.49444 0.89872 0.0
H1154 H 0.07847 0.47479 0.86115 0.0
C1155 C 0.05585 0.43435 0.72983 0.0
C1156 C 0.04513 0.43058 0.79545 0.0
H1157 H 0.01391 0.4664 0.83035 0.0
C1158 C 0.06165 0.42226 0.81219 0.0
C1159 C 0.02728 0.44608 0.8022 0.0
C1160 C 0.00838 0.45452 0.78523 0.0
C1161 C 0.06132 0.42981 0.83537 0.0
C1162 C 0.0442 0.44632 0.8418 0.0
C1163 C 0.02714 0.45389 0.82529 0.0
C1164 C 0.04421 0.45681 0.86525 0.0
C1165 C 0.07931 0.42011 0.85276 0.0
C1166 C 0.02454 0.45339 0.87987 0.0
C1167 C 0.02388 0.46479 0.90127 0.0
C1168 C 0.04281 0.47999 0.90829 0.0
C1169 C 0.06262 0.48302 0.89373 0.0
C1170 C 0.06329 0.47159 0.87238 0.0
H1171 H 0.08657 0.40269 0.84723 0.0
H1172 H 0.09408 0.43378 0.85387 0.0
H1173 H 0.07165 0.41691 0.87058 0.0
H1174 H 0.00957 0.44219 0.87456 0.0
H1175 H 0.00822 0.46234 0.91188 0.0
H1176 H 0.73842 0.93125 0.88732 0.0
H1177 H 0.70362 0.94939 0.90363 0.0
H1178 H 0.6738 0.87704 0.92014 0.0
H1179 H 0.70842 0.8589 0.90415 0.0
H1180 H 0.65763 0.94869 0.89369 0.0
H1181 H 0.66772 0.90542 0.98303 0.0
H1182 H 0.69028 0.90463 0.96106 0.0
H1183 H 0.6656 0.88313 0.96102 0.0
C1184 C 0.72443 0.91914 0.8943 0.0
C1185 C 0.72668 0.89346 0.89461 0.0
C1186 C 0.70445 0.92959 0.90376 0.0
C1187 C 0.68603 0.91475 0.91386 0.0
C1188 C 0.68789 0.88913 0.91335 0.0
H1189 H 0.54353 0.9647 0.94291 0.0
H1190 H 0.57836 0.94777 0.92576 0.0
C1191 C 0.70785 0.8787 0.90405 0.0
C1192 C 0.66491 0.92589 0.92471 0.0
H1193 H 0.63129 0.92426 0.97466 0.0
C1194 C 0.65199 0.94335 0.91144 0.0
C1195 C 0.65743 0.91951 0.94809 0.0
C1196 C 0.67111 0.90235 0.96422 0.0
C1197 C 0.63185 0.95403 0.92053 0.0
C1198 C 0.62376 0.9468 0.94353 0.0
C1199 C 0.63699 0.92974 0.95696 0.0
C1200 C 0.60202 0.95697 0.95418 0.0
C1201 C 0.61982 0.97347 0.90547 0.0
C1202 C 0.60297 0.96714 0.97645 0.0
C1203 C 0.58284 0.97656 0.98654 0.0
C1204 C 0.56098 0.97609 0.97473 0.0
C1205 C 0.55996 0.96562 0.95258 0.0
C1206 C 0.58007 0.95608 0.94257 0.0
H1207 H 0.63193 0.98232 0.89211 0.0
H1208 H 0.6049 0.96485 0.89595 0.0
H1209 H 0.61293 0.98792 0.91632 0.0
H1210 H 0.61944 0.96806 0.98604 0.0
H1211 H 0.58449 0.98442 1.00358 0.0
H1212 H 0.74115 0.10213 0.36521 0.0
H1213 H 0.78226 0.09327 0.3739 0.0
H1214 H 0.77023 0.10246 0.44763 0.0
H1215 H 0.72919 0.11163 0.43902 0.0
H1216 H 0.81423 0.12244 0.43121 0.0
H1217 H 0.797 0.02638 0.4057 0.0
H1218 H 0.79073 0.04986 0.38346 0.0
H1219 H 0.77368 0.04719 0.40996 0.0
C1220 C 0.74735 0.10235 0.38325 0.0
C1221 C 0.73198 0.10719 0.40151 0.0
C1222 C 0.77079 0.09739 0.38815 0.0
C1223 C 0.77911 0.09689 0.41142 0.0
C1224 C 0.76409 0.10281 0.42955 0.0
H1225 H 0.87833 0.01488 0.48673 0.0
H1226 H 0.84561 0.03781 0.47019 0.0
C1227 C 0.74069 0.10798 0.42463 0.0
C1228 C 0.80277 0.08809 0.41727 0.0
H1229 H 0.83478 0.03639 0.41947 0.0
C1230 C 0.81892 0.10374 0.42839 0.0
C1231 C 0.80862 0.06361 0.4137 0.0
C1232 C 0.79159 0.04567 0.40273 0.0
C1233 C 0.84064 0.09526 0.43663 0.0
C1234 C 0.84617 0.07066 0.43349 0.0
C1235 C 0.8304 0.05532 0.42165 0.0
C1236 C 0.86678 0.05935 0.44479 0.0
C1237 C 0.85705 0.11214 0.44961 0.0
C1238 C 0.88955 0.06428 0.4362 0.0
C1239 C 0.90837 0.05106 0.44563 0.0
C1240 C 0.90447 0.03265 0.46352 0.0
C1241 C 0.88175 0.02856 0.4726 0.0
C1242 C 0.8631 0.04175 0.46331 0.0
H1243 H 0.84943 0.13031 0.45193 0.0
H1244 H 0.86138 0.10363 0.46721 0.0
H1245 H 0.87372 0.11497 0.43972 0.0
H1246 H 0.8926 0.07769 0.42174 0.0
H1247 H 0.92573 0.05448 0.43832 0.0
H1248 H 0.24077 0.62162 0.08115 0.0
H1249 H 0.20375 0.60473 0.06583 0.0
H1250 H 0.1768 0.59509 0.13642 0.0
H1251 H 0.21372 0.6124 0.1519 0.0
H1252 H 0.18134 0.55778 0.07696 0.0
H1253 H 0.12595 0.6348 0.10005 0.0
H1254 H 0.1576 0.63757 0.09913 0.0
H1255 H 0.14329 0.62141 0.12361 0.0
C1256 C 0.22692 0.61609 0.09344 0.0
C1257 C 0.23018 0.61857 0.11776 0.0
C1258 C 0.20581 0.60631 0.08465 0.0
C1259 C 0.18737 0.59897 0.09993 0.0
C1260 C 0.19065 0.60099 0.12426 0.0
H1261 H 0.04487 0.54198 0.07264 0.0
H1262 H 0.08091 0.55806 0.09086 0.0
C1263 C 0.21186 0.61066 0.1331 0.0
C1264 C 0.16485 0.58905 0.09027 0.0
H1265 H 0.1066 0.60094 0.0833 0.0
C1266 C 0.16499 0.5672 0.07834 0.0
C1267 C 0.1435 0.60129 0.09219 0.0
C1268 C 0.14244 0.62517 0.10427 0.0
C1269 C 0.14437 0.55719 0.0684 0.0
C1270 C 0.12308 0.56969 0.06986 0.0
C1271 C 0.1229 0.59139 0.08209 0.0
C1272 C 0.10093 0.56069 0.05861 0.0
C1273 C 0.14555 0.53303 0.0568 0.0
C1274 C 0.09993 0.55738 0.03429 0.0
C1275 C 0.0794 0.54811 0.02384 0.0
C1276 C 0.05926 0.54221 0.03742 0.0
C1277 C 0.06004 0.54632 0.06164 0.0
C1278 C 0.08065 0.55549 0.0721 0.0
H1279 H 0.16086 0.52246 0.06325 0.0
H1280 H 0.12932 0.52156 0.06003 0.0
H1281 H 0.14751 0.53658 0.03752 0.0
H1282 H 0.1151 0.56188 0.02336 0.0
H1283 H 0.0794 0.54537 0.00512 0.0
H1284 H 0.22266 0.44136 0.61347 0.0
H1285 H 0.26237 0.45266 0.60066 0.0
H1286 H 0.24478 0.43202 0.53037 0.0
H1287 H 0.20442 0.42196 0.54273 0.0
H1288 H 0.29328 0.42239 0.58494 0.0
H1289 H 0.27947 0.49696 0.51682 0.0
H1290 H 0.25677 0.48605 0.5371 0.0
H1291 H 0.26277 0.46931 0.51154 0.0
C1292 C 0.22693 0.43984 0.5951 0.0
C1293 C 0.21018 0.43087 0.57911 0.0
C1294 C 0.24977 0.44614 0.58785 0.0
C1295 C 0.25651 0.4435 0.56449 0.0
C1296 C 0.23986 0.43473 0.54837 0.0
H1297 H 0.39976 0.42311 0.5236 0.0
H1298 H 0.35756 0.4196 0.53086 0.0
C1299 C 0.21687 0.42861 0.55557 0.0
C1300 C 0.28143 0.44805 0.55769 0.0
H1301 H 0.31777 0.48038 0.51892 0.0
C1302 C 0.2986 0.43519 0.57058 0.0
C1303 C 0.28842 0.46495 0.53913 0.0
C1304 C 0.27092 0.4803 0.52549 0.0
C1305 C 0.3225 0.43847 0.56527 0.0
C1306 C 0.32943 0.45457 0.54609 0.0
C1307 C 0.31236 0.46783 0.53343 0.0
C1308 C 0.35437 0.45759 0.53902 0.0
C1309 C 0.34012 0.42489 0.58051 0.0
C1310 C 0.36633 0.48043 0.54001 0.0
C1311 C 0.39049 0.48253 0.53564 0.0
C1312 C 0.40298 0.46177 0.53034 0.0
C1313 C 0.39067 0.43926 0.5282 0.0
C1314 C 0.36658 0.43724 0.53233 0.0
H1315 H 0.33273 0.41903 0.59801 0.0
H1316 H 0.34514 0.40816 0.57177 0.0
H1317 H 0.35625 0.43642 0.5832 0.0
H1318 H 0.35716 0.4964 0.54501 0.0
H1319 H 0.39958 0.50008 0.53739 0.0
H1320 H 0.87627 0.75122 0.93057 0.0
H1321 H 0.8938 0.71521 0.95056 0.0
H1322 H 0.91592 0.69078 0.88375 0.0
H1323 H 0.89802 0.72605 0.86363 0.0
H1324 H 0.88598 0.6626 0.94408 0.0
H1325 H 0.97753 0.69344 0.92318 0.0
H1326 H 0.95334 0.71399 0.92127 0.0
H1327 H 0.95788 0.6933 0.89833 0.0
C1328 C 0.8846 0.73809 0.92003 0.0
C1329 C 0.88589 0.74207 0.89534 0.0
C1330 C 0.89478 0.71748 0.93156 0.0
C1331 C 0.9067 0.70038 0.91879 0.0
C1332 C 0.90739 0.7039 0.89417 0.0
H1333 H 0.98856 0.56962 0.94758 0.0
H1334 H 0.96907 0.60588 0.9309 0.0
C1335 C 0.89713 0.7243 0.88265 0.0
C1336 C 0.91848 0.67889 0.93097 0.0
H1337 H 0.97199 0.65283 0.93938 0.0
C1338 C 0.90481 0.66056 0.94322 0.0
C1339 C 0.94307 0.67598 0.92981 0.0
C1340 C 0.95891 0.69528 0.91762 0.0
C1341 C 0.91486 0.63922 0.95363 0.0
C1342 C 0.93952 0.63625 0.95245 0.0
C1343 C 0.95317 0.65481 0.94041 0.0
C1344 C 0.95147 0.61394 0.96304 0.0
C1345 C 0.89873 0.61963 0.96496 0.0
C1346 C 0.94862 0.6062 0.98691 0.0
C1347 C 0.95968 0.58521 0.9965 0.0
C1348 C 0.97425 0.5715 0.98262 0.0
C1349 C 0.97752 0.57959 0.9589 0.0
C1350 C 0.96632 0.60045 0.94929 0.0
H1351 H 0.88044 0.6211 0.95825 0.0
H1352 H 0.90481 0.60098 0.9618 0.0
H1353 H 0.8984 0.62181 0.98424 0.0
H1354 H 0.93794 0.61649 0.99827 0.0
H1355 H 0.95681 0.57976 0.01486 0.0
H1356 H 0.40893 0.78447 0.15446 0.0
H1357 H 0.42661 0.82098 0.13407 0.0
H1358 H 0.4051 0.79358 0.06731 0.0
H1359 H 0.38786 0.75663 0.08746 0.0
H1360 H 0.46268 0.82267 0.09776 0.0
H1361 H 0.37947 0.86442 0.06697 0.0
H1362 H 0.38039 0.84104 0.0906 0.0
H1363 H 0.38292 0.83283 0.06061 0.0
C1364 C 0.40811 0.78601 0.13542 0.0
C1365 C 0.39692 0.76746 0.12266 0.0
C1366 C 0.41813 0.80701 0.12381 0.0
C1367 C 0.41698 0.81012 0.0992 0.0
C1368 C 0.40586 0.79174 0.08635 0.0
H1369 H 0.46225 0.92955 1.00031 0.0
H1370 H 0.44599 0.89132 0.0189 0.0
C1371 C 0.39594 0.77064 0.09794 0.0
C1372 C 0.42779 0.83242 0.08702 0.0
H1373 H 0.41481 0.88442 0.05413 0.0
C1374 C 0.45224 0.83621 0.08823 0.0
C1375 C 0.41414 0.84996 0.07451 0.0
C1376 C 0.38775 0.84709 0.07315 0.0
C1377 C 0.46346 0.85695 0.07703 0.0
C1378 C 0.44979 0.87476 0.06481 0.0
C1379 C 0.42531 0.87083 0.0635 0.0
C1380 C 0.46042 0.89768 0.05343 0.0
C1381 C 0.48991 0.85926 0.07798 0.0
C1382 C 0.47387 0.91414 0.06663 0.0
C1383 C 0.48338 0.93593 0.05599 0.0
C1384 C 0.47937 0.94193 0.03197 0.0
C1385 C 0.46576 0.92549 0.01882 0.0
C1386 C 0.4564 0.90363 0.02944 0.0
H1387 H 0.49789 0.84113 0.08148 0.0
H1388 H 0.49714 0.86768 0.06127 0.0
H1389 H 0.49528 0.87108 0.0925 0.0
H1390 H 0.47672 0.91035 0.08528 0.0
H1391 H 0.49354 0.94828 0.06672 0.0
H1392 H 0.04425 0.25615 0.60324 0.0
H1393 H 0.02792 0.21643 0.59312 0.0
H1394 H 0.05204 0.22954 0.52177 0.0
H1395 H 0.06657 0.27047 0.53111 0.0
H1396 H 0.01054 0.20604 0.52215 0.0
H1397 H 0.0685 0.15928 0.58771 0.0
H1398 H 0.04913 0.17971 0.60089 0.0
H1399 H 0.07121 0.19175 0.58051 0.0
C1400 C 0.04562 0.25105 0.58519 0.0
C1401 C 0.05699 0.26671 0.56805 0.0
C1402 C 0.03658 0.228 0.57956 0.0
C1403 C 0.03935 0.21967 0.55688 0.0
C1404 C 0.04992 0.23547 0.53949 0.0
H1405 H 0.04644 0.07046 0.52185 0.0
H1406 H 0.05202 0.11312 0.53122 0.0
C1407 C 0.05852 0.25879 0.54496 0.0
C1408 C 0.03212 0.19416 0.55154 0.0
H1409 H 0.04033 0.13428 0.56886 0.0
C1410 C 0.01706 0.19031 0.53232 0.0
C1411 C 0.04085 0.17364 0.56469 0.0
C1412 C 0.0585 0.17625 0.58443 0.0
C1413 C 0.01074 0.16652 0.52568 0.0
C1414 C 0.01913 0.14605 0.53913 0.0
C1415 C 0.03376 0.14997 0.55864 0.0
C1416 C 0.01493 0.12038 0.53229 0.0
C1417 C 0.99597 0.16362 0.50382 0.0
C1418 C 0.99214 0.11013 0.52956 0.0
C1419 C 0.98889 0.0856 0.5237 0.0
C1420 C 0.00836 0.07088 0.52109 0.0
C1421 C 0.03105 0.08122 0.52396 0.0
C1422 C 0.03428 0.10567 0.52932 0.0
H1423 H 0.99611 0.18075 0.49237 0.0
H1424 H 1.00227 0.14853 0.49341 0.0
H1425 H 0.97753 0.15913 0.50899 0.0
H1426 H 0.97691 0.12092 0.5323 0.0
H1427 H 0.97121 0.07805 0.52167 0.0
H1428 H 0.58202 0.24754 0.45964 0.0
H1429 H 0.56973 0.2887 0.46799 0.0
H1430 H 0.56056 0.30573 0.39362 0.0
H1431 H 0.57236 0.26439 0.38524 0.0
H1432 H 0.59106 0.33193 0.45405 0.0
H1433 H 0.49959 0.32801 0.41982 0.0
H1434 H 0.51671 0.30098 0.4246 0.0
H1435 H 0.52125 0.32087 0.39871 0.0
C1436 C 0.57715 0.26002 0.44513 0.0
C1437 C 0.57801 0.25284 0.42183 0.0
C1438 C 0.57016 0.28347 0.44989 0.0
C1439 C 0.56402 0.30016 0.43143 0.0
C1440 C 0.5647 0.29295 0.40814 0.0
H1441 H 0.5572 0.45756 0.45443 0.0
H1442 H 0.56842 0.41838 0.43937 0.0
C1443 C 0.57146 0.26939 0.40338 0.0
C1444 C 0.55792 0.3254 0.43665 0.0
H1445 H 0.51433 0.36666 0.43139 0.0
C1446 C 0.57429 0.33957 0.4491 0.0
C1447 C 0.53599 0.33519 0.43021 0.0
C1448 C 0.51727 0.32042 0.41779 0.0
C1449 C 0.56921 0.36318 0.45566 0.0
C1450 C 0.54738 0.37309 0.449 0.0
C1451 C 0.53114 0.35906 0.43624 0.0
C1452 C 0.54023 0.39712 0.4568 0.0
C1453 C 0.58687 0.37689 0.47041 0.0
C1454 C 0.52028 0.3982 0.4709 0.0
C1455 C 0.51368 0.42046 0.47922 0.0
C1456 C 0.52698 0.44212 0.47366 0.0
C1457 C 0.54674 0.44113 0.45915 0.0
C1458 C 0.55323 0.41878 0.45064 0.0
H1459 H 0.6001 0.36452 0.47854 0.0
H1460 H 0.59632 0.39108 0.45909 0.0
H1461 H 0.57803 0.3862 0.48462 0.0
H1462 H 0.51001 0.38168 0.47583 0.0
H1463 H 0.49835 0.42058 0.49035 0.0
loop_
_geom_bond_atom_site_label_1
_geom_bond_atom_site_label_2
_geom_bond_distance
_geom_bond_site_symmetry_2
_ccdc_geom_bond_type
C0 C1 1.391 . S
C0 C4 1.391 . S
C0 H42 0.948 . S
C1 C0 1.391 . S
C1 C2 1.391 . S
C2 C1 1.391 . S
C2 H58 0.947 . S
C2 C59 1.392 . S
C3 C4 1.391 . S
C3 C7 1.397 . S
C3 C59 1.419 . S
C4 C0 1.391 . S
C4 C3 1.391 . S
C4 C5 1.399 . S
C5 C4 1.399 . S
C5 C8 1.396 . S
C5 C17 1.453 . S
C5 C18 1.684 . S
H6 C30 0.948 . S
C7 C3 1.397 . S
C7 C8 1.394 . S
C7 C26 1.723 . S
C8 C5 1.396 . S
C8 C7 1.394 . S
C8 C38 1.723 . S
H9 C32 0.947 . S
H10 C33 0.948 . S
H11 C39 0.982 . S
H12 C40 0.979 . S
H13 C40 0.980 . S
H14 C40 0.983 . S
H15 C39 0.979 . S
H16 C39 0.977 . S
C17 C5 1.453 . S
C17 H46 0.982 . S
C17 H47 0.979 . S
C17 H48 0.977 . S
C18 C5 1.684 . S
C18 H43 0.979 . S
C18 H44 0.980 . S
C18 H45 0.983 . S
C19 C20 1.391 . S
C19 C24 1.391 . S
C19 H49 0.948 . S
C20 C19 1.391 . S
C20 C21 1.391 . S
C21 C20 1.391 . S
C21 C22 1.392 . S
C21 H50 0.947 . S
C22 C21 1.392 . S
C22 C23 1.419 . S
C22 H51 0.948 . S
C23 C22 1.419 . S
C23 C24 1.391 . S
C23 C27 1.397 . S
C24 C19 1.391 . S
C24 C23 1.391 . S
C24 C25 1.399 . S
C25 C24 1.399 . S
C25 C26 1.396 . S
C25 C28 1.453 . S
C25 C29 1.684 . S
C26 C7 1.723 . S
C26 C25 1.396 . S
C26 C27 1.394 . S
C27 C23 1.397 . S
C27 C26 1.394 . S
C27 C37 1.723 . S
C28 C25 1.453 . S
C28 H52 0.982 . S
C28 H53 0.979 . S
C28 H54 0.977 . S
C29 C25 1.684 . S
C29 H55 0.979 . S
C29 H56 0.980 . S
C29 H57 0.983 . S
C30 H6 0.948 . S
C30 C31 1.391 . S
C30 C35 1.391 . S
C31 C30 1.391 . S
C31 C32 1.391 . S
C32 H9 0.947 . S
C32 C31 1.391 . S
C32 C33 1.392 . S
C33 H10 0.948 . S
C33 C32 1.392 . S
C33 C34 1.419 . S
C34 C33 1.419 . S
C34 C35 1.391 . S
C34 C38 1.397 . S
C35 C30 1.391 . S
C35 C34 1.391 . S
C35 C36 1.399 . S
C36 C35 1.399 . S
C36 C37 1.396 . S
C36 C39 1.453 . S
C36 C40 1.684 . S
C37 C27 1.723 . S
C37 C36 1.396 . S
C37 C38 1.394 . S
C38 C8 1.723 . S
C38 C34 1.397 . S
C38 C37 1.394 . S
C39 H11 0.982 . S
C39 H15 0.979 . S
C39 H16 0.977 . S
C39 C36 1.453 . S
C40 H12 0.979 . S
C40 H13 0.980 . S
C40 H14 0.983 . S
C40 C36 1.684 . S
H41 C59 0.948 . S
H42 C0 0.948 . S
H43 C18 0.979 . S
H44 C18 0.980 . S
H45 C18 0.983 . S
H46 C17 0.982 . S
H47 C17 0.979 . S
H48 C17 0.977 . S
H49 C19 0.948 . S
H50 C21 0.947 . S
H51 C22 0.948 . S
H52 C28 0.982 . S
H53 C28 0.979 . S
H54 C28 0.977 . S
H55 C29 0.979 . S
H56 C29 0.980 . S
H57 C29 0.983 . S
H58 C2 0.947 . S
C59 C2 1.392 . S
C59 C3 1.419 . S
C59 H41 0.948 . S
C60 C61 1.391 . S
C60 C64 1.391 . S
C60 H102 0.948 . S
C61 C60 1.391 . S
C61 C62 1.391 . S
C62 C61 1.391 . S
C62 H118 0.947 . S
C62 C119 1.392 . S
C63 C64 1.391 . S
C63 C67 1.397 . S
C63 C119 1.419 . S
C64 C60 1.391 . S
C64 C63 1.391 . S
C64 C65 1.399 . S
C65 C64 1.399 . S
C65 C68 1.396 . S
C65 C77 1.453 . S
C65 C78 1.684 . S
H66 C90 0.948 . S
C67 C63 1.397 . S
C67 C68 1.394 . S
C67 C86 1.723 . S
C68 C65 1.396 . S
C68 C67 1.394 . S
C68 C98 1.723 . S
H69 C92 0.947 . S
H70 C93 0.948 . S
H71 C99 0.982 . S
H72 C100 0.979 . S
H73 C100 0.980 . S
H74 C100 0.983 . S
H75 C99 0.979 . S
H76 C99 0.977 . S
C77 C65 1.453 . S
C77 H106 0.982 . S
C77 H107 0.979 . S
C77 H108 0.977 . S
C78 C65 1.684 . S
C78 H103 0.979 . S
C78 H104 0.980 . S
C78 H105 0.983 . S
C79 C80 1.391 . S
C79 C84 1.391 . S
C79 H109 0.948 . S
C80 C79 1.391 . S
C80 C81 1.391 . S
C81 C80 1.391 . S
C81 C82 1.392 . S
C81 H110 0.947 . S
C82 C81 1.392 . S
C82 C83 1.419 . S
C82 H111 0.948 . S
C83 C82 1.419 . S
C83 C84 1.391 . S
C83 C87 1.397 . S
C84 C79 1.391 . S
C84 C83 1.391 . S
C84 C85 1.399 . S
C85 C84 1.399 . S
C85 C86 1.396 . S
C85 C88 1.453 . S
C85 C89 1.684 . S
C86 C67 1.723 . S
C86 C85 1.396 . S
C86 C87 1.394 . S
C87 C83 1.397 . S
C87 C86 1.394 . S
C87 C97 1.723 . S
C88 C85 1.453 . S
C88 H112 0.982 . S
C88 H113 0.979 . S
C88 H114 0.977 . S
C89 C85 1.684 . S
C89 H115 0.979 . S
C89 H116 0.980 . S
C89 H117 0.983 . S
C90 H66 0.948 . S
C90 C91 1.391 . S
C90 C95 1.391 . S
C91 C90 1.391 . S
C91 C92 1.391 . S
C92 H69 0.947 . S
C92 C91 1.391 . S
C92 C93 1.392 . S
C93 H70 0.948 . S
C93 C92 1.392 . S
C93 C94 1.419 . S
C94 C93 1.419 . S
C94 C95 1.391 . S
C94 C98 1.397 . S
C95 C90 1.391 . S
C95 C94 1.391 . S
C95 C96 1.399 . S
C96 C95 1.399 . S
C96 C97 1.396 . S
C96 C99 1.453 . S
C96 C100 1.684 . S
C97 C87 1.723 . S
C97 C96 1.396 . S
C97 C98 1.394 . S
C98 C68 1.723 . S
C98 C94 1.397 . S
C98 C97 1.394 . S
C99 H71 0.982 . S
C99 H75 0.979 . S
C99 H76 0.977 . S
C99 C96 1.453 . S
C100 H72 0.979 . S
C100 H73 0.980 . S
C100 H74 0.983 . S
C100 C96 1.684 . S
H101 C119 0.948 . S
H102 C60 0.948 . S
H103 C78 0.979 . S
H104 C78 0.980 . S
H105 C78 0.983 . S
H106 C77 0.982 . S
H107 C77 0.979 . S
H108 C77 0.977 . S
H109 C79 0.948 . S
H110 C81 0.947 . S
H111 C82 0.948 . S
H112 C88 0.982 . S
H113 C88 0.979 . S
H114 C88 0.977 . S
H115 C89 0.979 . S
H116 C89 0.980 . S
H117 C89 0.983 . S
H118 C62 0.947 . S
C119 C62 1.392 . S
C119 C63 1.419 . S
C119 H101 0.948 . S
C120 C121 1.391 . S
C120 C124 1.391 . S
C120 H162 0.948 . S
C121 C120 1.391 . S
C121 C122 1.391 . S
C122 C121 1.391 . S
C122 H178 0.947 . S
C122 C179 1.392 . S
C123 C124 1.391 . S
C123 C127 1.397 . S
C123 C179 1.419 . S
C124 C120 1.391 . S
C124 C123 1.391 . S
C124 C125 1.399 . S
C125 C124 1.399 . S
C125 C128 1.396 . S
C125 C137 1.453 . S
C125 C138 1.684 . S
H126 C150 0.948 . S
C127 C123 1.397 . S
C127 C128 1.394 . S
C127 C146 1.723 . S
C128 C125 1.396 . S
C128 C127 1.394 . S
C128 C158 1.723 . S
H129 C152 0.947 . S
H130 C153 0.948 . S
H131 C159 0.982 . S
H132 C160 0.979 . S
H133 C160 0.980 . S
H134 C160 0.983 . S
H135 C159 0.979 . S
H136 C159 0.977 . S
C137 C125 1.453 . S
C137 H166 0.982 . S
C137 H167 0.979 . S
C137 H168 0.977 . S
C138 C125 1.684 . S
C138 H163 0.979 . S
C138 H164 0.980 . S
C138 H165 0.983 . S
C139 C140 1.391 . S
C139 C144 1.391 . S
C139 H169 0.948 . S
C140 C139 1.391 . S
C140 C141 1.391 . S
C141 C140 1.391 . S
C141 C142 1.392 . S
C141 H170 0.947 . S
C142 C141 1.392 . S
C142 C143 1.419 . S
C142 H171 0.948 . S
C143 C142 1.419 . S
C143 C144 1.391 . S
C143 C147 1.397 . S
C144 C139 1.391 . S
C144 C143 1.391 . S
C144 C145 1.399 . S
C145 C144 1.399 . S
C145 C146 1.396 . S
C145 C148 1.453 . S
C145 C149 1.684 . S
C146 C127 1.723 . S
C146 C145 1.396 . S
C146 C147 1.394 . S
C147 C143 1.397 . S
C147 C146 1.394 . S
C147 C157 1.723 . S
C148 C145 1.453 . S
C148 H172 0.982 . S
C148 H173 0.979 . S
C148 H174 0.977 . S
C149 C145 1.684 . S
C149 H175 0.979 . S
C149 H176 0.980 . S
C149 H177 0.983 . S
C150 H126 0.948 . S
C150 C151 1.391 . S
C150 C155 1.391 . S
C151 C150 1.391 . S
C151 C152 1.391 . S
C152 H129 0.947 . S
C152 C151 1.391 . S
C152 C153 1.392 . S
C153 H130 0.948 . S
C153 C152 1.392 . S
C153 C154 1.419 . S
C154 C153 1.419 . S
C154 C155 1.391 . S
C154 C158 1.397 . S
C155 C150 1.391 . S
C155 C154 1.391 . S
C155 C156 1.399 . S
C156 C155 1.399 . S
C156 C157 1.396 . S
C156 C159 1.453 . S
C156 C160 1.684 . S
C157 C147 1.723 . S
C157 C156 1.396 . S
C157 C158 1.394 . S
C158 C128 1.723 . S
C158 C154 1.397 . S
C158 C157 1.394 . S
C159 H131 0.982 . S
C159 H135 0.979 . S
C159 H136 0.977 . S
C159 C156 1.453 . S
C160 H132 0.979 . S
C160 H133 0.980 . S
C160 H134 0.983 . S
C160 C156 1.684 . S
H161 C179 0.948 . S
H162 C120 0.948 . S
H163 C138 0.979 . S
H164 C138 0.980 . S
H165 C138 0.983 . S
H166 C137 0.982 . S
H167 C137 0.979 . S
H168 C137 0.977 . S
H169 C139 0.948 . S
H170 C141 0.947 . S
H171 C142 0.948 . S
H172 C148 0.982 . S
H173 C148 0.979 . S
H174 C148 0.977 . S
H175 C149 0.979 . S
H176 C149 0.980 . S
H177 C149 0.983 . S
H178 C122 0.947 . S
C179 C122 1.392 . S
C179 C123 1.419 . S
C179 H161 0.948 . S
C180 C181 1.391 . S
C180 C184 1.391 . S
C180 H222 0.948 . S
C181 C180 1.391 . S
C181 C182 1.391 . S
C182 C181 1.391 . S
C182 H238 0.947 . S
C182 C239 1.392 . S
C183 C184 1.391 . S
C183 C187 1.397 . S
C183 C239 1.419 . S
C184 C180 1.391 . S
C184 C183 1.391 . S
C184 C185 1.399 . S
C185 C184 1.399 . S
C185 C188 1.396 . S
C185 C197 1.453 . S
C185 C198 1.684 . S
H186 C210 0.948 . S
C187 C183 1.397 . S
C187 C188 1.394 . S
C187 C206 1.723 . S
C188 C185 1.396 . S
C188 C187 1.394 . S
C188 C218 1.723 . S
H189 C212 0.947 . S
H190 C213 0.948 . S
H191 C219 0.982 . S
H192 C220 0.979 . S
H193 C220 0.980 . S
H194 C220 0.983 . S
H195 C219 0.979 . S
H196 C219 0.977 . S
C197 C185 1.453 . S
C197 H226 0.982 . S
C197 H227 0.979 . S
C197 H228 0.977 . S
C198 C185 1.684 . S
C198 H223 0.979 . S
C198 H224 0.980 . S
C198 H225 0.983 . S
C199 C200 1.391 . S
C199 C204 1.391 . S
C199 H229 0.948 . S
C200 C199 1.391 . S
C200 C201 1.391 . S
C201 C200 1.391 . S
C201 C202 1.392 . S
C201 H230 0.947 . S
C202 C201 1.392 . S
C202 C203 1.419 . S
C202 H231 0.948 . S
C203 C202 1.419 . S
C203 C204 1.391 . S
C203 C207 1.397 . S
C204 C199 1.391 . S
C204 C203 1.391 . S
C204 C205 1.399 . S
C205 C204 1.399 . S
C205 C206 1.396 . S
C205 C208 1.453 . S
C205 C209 1.684 . S
C206 C187 1.723 . S
C206 C205 1.396 . S
C206 C207 1.394 . S
C207 C203 1.397 . S
C207 C206 1.394 . S
C207 C217 1.723 . S
C208 C205 1.453 . S
C208 H232 0.982 . S
C208 H233 0.979 . S
C208 H234 0.977 . S
C209 C205 1.684 . S
C209 H235 0.979 . S
C209 H236 0.980 . S
C209 H237 0.983 . S
C210 H186 0.948 . S
C210 C211 1.391 . S
C210 C215 1.391 . S
C211 C210 1.391 . S
C211 C212 1.391 . S
C212 H189 0.947 . S
C212 C211 1.391 . S
C212 C213 1.392 . S
C213 H190 0.948 . S
C213 C212 1.392 . S
C213 C214 1.419 . S
C214 C213 1.419 . S
C214 C215 1.391 . S
C214 C218 1.397 . S
C215 C210 1.391 . S
C215 C214 1.391 . S
C215 C216 1.399 . S
C216 C215 1.399 . S
C216 C217 1.396 . S
C216 C219 1.453 . S
C216 C220 1.684 . S
C217 C207 1.723 . S
C217 C216 1.396 . S
C217 C218 1.394 . S
C218 C188 1.723 . S
C218 C214 1.397 . S
C218 C217 1.394 . S
C219 H191 0.982 . S
C219 H195 0.979 . S
C219 H196 0.977 . S
C219 C216 1.453 . S
C220 H192 0.979 . S
C220 H193 0.980 . S
C220 H194 0.983 . S
C220 C216 1.684 . S
H221 C239 0.948 . S
H222 C180 0.948 . S
H223 C198 0.979 . S
H224 C198 0.980 . S
H225 C198 0.983 . S
H226 C197 0.982 . S
H227 C197 0.979 . S
H228 C197 0.977 . S
H229 C199 0.948 . S
H230 C201 0.947 . S
H231 C202 0.948 . S
H232 C208 0.982 . S
H233 C208 0.979 . S
H234 C208 0.977 . S
H235 C209 0.979 . S
H236 C209 0.980 . S
H237 C209 0.983 . S
H238 C182 0.947 . S
C239 C182 1.392 . S
C239 C183 1.419 . S
C239 H221 0.948 . S
C240 C241 1.391 . S
C240 C244 1.391 . S
C240 H282 0.948 . S
C241 C240 1.391 . S
C241 C242 1.391 . S
C242 C241 1.391 . S
C242 H298 0.947 . S
C242 C299 1.392 . S
C243 C244 1.391 . S
C243 C247 1.397 . S
C243 C299 1.419 . S
C244 C240 1.391 . S
C244 C243 1.391 . S
C244 C245 1.399 . S
C245 C244 1.399 . S
C245 C248 1.396 . S
C245 C257 1.453 . S
C245 C258 1.684 . S
H246 C270 0.948 . S
C247 C243 1.397 . S
C247 C248 1.394 . S
C247 C266 1.723 . S
C248 C245 1.396 . S
C248 C247 1.394 . S
C248 C278 1.723 . S
H249 C272 0.947 . S
H250 C273 0.948 . S
H251 C279 0.982 . S
H252 C280 0.979 . S
H253 C280 0.980 . S
H254 C280 0.983 . S
H255 C279 0.979 . S
H256 C279 0.977 . S
C257 C245 1.453 . S
C257 H286 0.982 . S
C257 H287 0.979 . S
C257 H288 0.977 . S
C258 C245 1.684 . S
C258 H283 0.979 . S
C258 H284 0.980 . S
C258 H285 0.983 . S
C259 C260 1.391 . S
C259 C264 1.391 . S
C259 H289 0.948 . S
C260 C259 1.391 . S
C260 C261 1.391 . S
C261 C260 1.391 . S
C261 C262 1.392 . S
C261 H290 0.947 . S
C262 C261 1.392 . S
C262 C263 1.419 . S
C262 H291 0.948 . S
C263 C262 1.419 . S
C263 C264 1.391 . S
C263 C267 1.397 . S
C264 C259 1.391 . S
C264 C263 1.391 . S
C264 C265 1.399 . S
C265 C264 1.399 . S
C265 C266 1.396 . S
C265 C268 1.453 . S
C265 C269 1.684 . S
C266 C247 1.723 . S
C266 C265 1.396 . S
C266 C267 1.394 . S
C267 C263 1.397 . S
C267 C266 1.394 . S
C267 C277 1.723 . S
C268 C265 1.453 . S
C268 H292 0.982 . S
C268 H293 0.979 . S
C268 H294 0.977 . S
C269 C265 1.684 . S
C269 H295 0.979 . S
C269 H296 0.980 . S
C269 H297 0.983 . S
C270 H246 0.948 . S
C270 C271 1.391 . S
C270 C275 1.391 . S
C271 C270 1.391 . S
C271 C272 1.391 . S
C272 H249 0.947 . S
C272 C271 1.391 . S
C272 C273 1.392 . S
C273 H250 0.948 . S
C273 C272 1.392 . S
C273 C274 1.419 . S
C274 C273 1.419 . S
C274 C275 1.391 . S
C274 C278 1.397 . S
C275 C270 1.391 . S
C275 C274 1.391 . S
C275 C276 1.399 . S
C276 C275 1.399 . S
C276 C277 1.396 . S
C276 C279 1.453 . S
C276 C280 1.684 . S
C277 C267 1.723 . S
C277 C276 1.396 . S
C277 C278 1.394 . S
C278 C248 1.723 . S
C278 C274 1.397 . S
C278 C277 1.394 . S
C279 H251 0.982 . S
C279 H255 0.979 . S
C279 H256 0.977 . S
C279 C276 1.453 . S
C280 H252 0.979 . S
C280 H253 0.980 . S
C280 H254 0.983 . S
C280 C276 1.684 . S
H281 C299 0.948 . S
H282 C240 0.948 . S
H283 C258 0.979 . S
H284 C258 0.980 . S
H285 C258 0.983 . S
H286 C257 0.982 . S
H287 C257 0.979 . S
H288 C257 0.977 . S
H289 C259 0.948 . S
H290 C261 0.947 . S
H291 C262 0.948 . S
H292 C268 0.982 . S
H293 C268 0.979 . S
H294 C268 0.977 . S
H295 C269 0.979 . S
H296 C269 0.980 . S
H297 C269 0.983 . S
H298 C242 0.947 . S
C299 C242 1.392 . S
C299 C243 1.419 . S
C299 H281 0.948 . S
C300 C301 1.391 . S
C300 C304 1.391 . S
C300 H342 0.948 . S
C301 C300 1.391 . S
C301 C302 1.391 . S
C302 C301 1.391 . S
C302 H358 0.947 . S
C302 C359 1.392 . S
C303 C304 1.391 . S
C303 C307 1.397 . S
C303 C359 1.419 . S
C304 C300 1.391 . S
C304 C303 1.391 . S
C304 C305 1.399 . S
C305 C304 1.399 . S
C305 C308 1.396 . S
C305 C317 1.453 . S
C305 C318 1.684 . S
H306 C330 0.948 . S
C307 C303 1.397 . S
C307 C308 1.394 . S
C307 C326 1.723 . S
C308 C305 1.396 . S
C308 C307 1.394 . S
C308 C338 1.723 . S
H309 C332 0.947 . S
H310 C333 0.948 . S
H311 C339 0.982 . S
H312 C340 0.979 . S
H313 C340 0.980 . S
H314 C340 0.983 . S
H315 C339 0.979 . S
H316 C339 0.977 . S
C317 C305 1.453 . S
C317 H346 0.982 . S
C317 H347 0.979 . S
C317 H348 0.977 . S
C318 C305 1.684 . S
C318 H343 0.979 . S
C318 H344 0.980 . S
C318 H345 0.983 . S
C319 C320 1.391 . S
C319 C324 1.391 . S
C319 H349 0.948 . S
C320 C319 1.391 . S
C320 C321 1.391 . S
C321 C320 1.391 . S
C321 C322 1.392 . S
C321 H350 0.947 . S
C322 C321 1.392 . S
C322 C323 1.419 . S
C322 H351 0.948 . S
C323 C322 1.419 . S
C323 C324 1.391 . S
C323 C327 1.397 . S
C324 C319 1.391 . S
C324 C323 1.391 . S
C324 C325 1.399 . S
C325 C324 1.399 . S
C325 C326 1.396 . S
C325 C328 1.453 . S
C325 C329 1.684 . S
C326 C307 1.723 . S
C326 C325 1.396 . S
C326 C327 1.394 . S
C327 C323 1.397 . S
C327 C326 1.394 . S
C327 C337 1.723 . S
C328 C325 1.453 . S
C328 H352 0.982 . S
C328 H353 0.979 . S
C328 H354 0.977 . S
C329 C325 1.684 . S
C329 H355 0.979 . S
C329 H356 0.980 . S
C329 H357 0.983 . S
C330 H306 0.948 . S
C330 C331 1.391 . S
C330 C335 1.391 . S
C331 C330 1.391 . S
C331 C332 1.391 . S
C332 H309 0.947 . S
C332 C331 1.391 . S
C332 C333 1.392 . S
C333 H310 0.948 . S
C333 C332 1.392 . S
C333 C334 1.419 . S
C334 C333 1.419 . S
C334 C335 1.391 . S
C334 C338 1.397 . S
C335 C330 1.391 . S
C335 C334 1.391 . S
C335 C336 1.399 . S
C336 C335 1.399 . S
C336 C337 1.396 . S
C336 C339 1.453 . S
C336 C340 1.684 . S
C337 C327 1.723 . S
C337 C336 1.396 . S
C337 C338 1.394 . S
C338 C308 1.723 . S
C338 C334 1.397 . S
C338 C337 1.394 . S
C339 H311 0.982 . S
C339 H315 0.979 . S
C339 H316 0.977 . S
C339 C336 1.453 . S
C340 H312 0.979 . S
C340 H313 0.980 . S
C340 H314 0.983 . S
C340 C336 1.684 . S
H341 C359 0.948 . S
H342 C300 0.948 . S
H343 C318 0.979 . S
H344 C318 0.980 . S
H345 C318 0.983 . S
H346 C317 0.982 . S
H347 C317 0.979 . S
H348 C317 0.977 . S
H349 C319 0.948 . S
H350 C321 0.947 . S
H351 C322 0.948 . S
H352 C328 0.982 . S
H353 C328 0.979 . S
H354 C328 0.977 . S
H355 C329 0.979 . S
H356 C329 0.980 . S
H357 C329 0.983 . S
H358 C302 0.947 . S
C359 C302 1.392 . S
C359 C303 1.419 . S
C359 H341 0.948 . S
C360 C361 1.391 . S
C360 C364 1.391 . S
C360 H402 0.948 . S
C361 C360 1.391 . S
C361 C362 1.391 . S
C362 C361 1.391 . S
C362 H418 0.947 . S
C362 C419 1.392 . S
C363 C364 1.391 . S
C363 C367 1.397 . S
C363 C419 1.419 . S
C364 C360 1.391 . S
C364 C363 1.391 . S
C364 C365 1.399 . S
C365 C364 1.399 . S
C365 C368 1.396 . S
C365 C377 1.453 . S
C365 C378 1.684 . S
H366 C390 0.948 . S
C367 C363 1.397 . S
C367 C368 1.394 . S
C367 C386 1.723 . S
C368 C365 1.396 . S
C368 C367 1.394 . S
C368 C398 1.723 . S
H369 C392 0.947 . S
H370 C393 0.948 . S
H371 C399 0.982 . S
H372 C400 0.979 . S
H373 C400 0.980 . S
H374 C400 0.983 . S
H375 C399 0.979 . S
H376 C399 0.977 . S
C377 C365 1.453 . S
C377 H406 0.982 . S
C377 H407 0.979 . S
C377 H408 0.977 . S
C378 C365 1.684 . S
C378 H403 0.979 . S
C378 H404 0.980 . S
C378 H405 0.983 . S
C379 C380 1.391 . S
C379 C384 1.391 . S
C379 H409 0.948 . S
C380 C379 1.391 . S
C380 C381 1.391 . S
C381 C380 1.391 . S
C381 C382 1.392 . S
C381 H410 0.947 . S
C382 C381 1.392 . S
C382 C383 1.419 . S
C382 H411 0.948 . S
C383 C382 1.419 . S
C383 C384 1.391 . S
C383 C387 1.397 . S
C384 C379 1.391 . S
C384 C383 1.391 . S
C384 C385 1.399 . S
C385 C384 1.399 . S
C385 C386 1.396 . S
C385 C388 1.453 . S
C385 C389 1.684 . S
C386 C367 1.723 . S
C386 C385 1.396 . S
C386 C387 1.394 . S
C387 C383 1.397 . S
C387 C386 1.394 . S
C387 C397 1.723 . S
C388 C385 1.453 . S
C388 H412 0.982 . S
C388 H413 0.979 . S
C388 H414 0.977 . S
C389 C385 1.684 . S
C389 H415 0.979 . S
C389 H416 0.980 . S
C389 H417 0.983 . S
C390 H366 0.948 . S
C390 C391 1.391 . S
C390 C395 1.391 . S
C391 C390 1.391 . S
C391 C392 1.391 . S
C392 H369 0.947 . S
C392 C391 1.391 . S
C392 C393 1.392 . S
C393 H370 0.948 . S
C393 C392 1.392 . S
C393 C394 1.419 . S
C394 C393 1.419 . S
C394 C395 1.391 . S
C394 C398 1.397 . S
C395 C390 1.391 . S
C395 C394 1.391 . S
C395 C396 1.399 . S
C396 C395 1.399 . S
C396 C397 1.396 . S
C396 C399 1.453 . S
C396 C400 1.684 . S
C397 C387 1.723 . S
C397 C396 1.396 . S
C397 C398 1.394 . S
C398 C368 1.723 . S
C398 C394 1.397 . S
C398 C397 1.394 . S
C399 H371 0.982 . S
C399 H375 0.979 . S
C399 H376 0.977 . S
C399 C396 1.453 . S
C400 H372 0.979 . S
C400 H373 0.980 . S
C400 H374 0.983 . S
C400 C396 1.684 . S
H401 C419 0.948 . S
H402 C360 0.948 . S
H403 C378 0.979 . S
H404 C378 0.980 . S
H405 C378 0.983 . S
H406 C377 0.982 . S
H407 C377 0.979 . S
H408 C377 0.977 . S
H409 C379 0.948 . S
H410 C381 0.947 . S
H411 C382 0.948 . S
H412 C388 0.982 . S
H413 C388 0.979 . S
H414 C388 0.977 . S
H415 C389 0.979 . S
H416 C389 0.980 . S
H417 C389 0.983 . S
H418 C362 0.947 . S
C419 C362 1.392 . S
C419 C363 1.419 . S
C419 H401 0.948 . S
C420 C421 1.391 . S
C420 C424 1.391 . S
C420 H462 0.948 . S
C421 C420 1.391 . S
C421 C422 1.391 . S
C422 C421 1.391 . S
C422 H478 0.947 . S
C422 C479 1.392 . S
C423 C424 1.391 . S
C423 C427 1.397 . S
C423 C479 1.419 . S
C424 C420 1.391 . S
C424 C423 1.391 . S
C424 C425 1.399 . S
C425 C424 1.399 . S
C425 C428 1.396 . S
C425 C437 1.453 . S
C425 C438 1.684 . S
H426 C450 0.948 . S
C427 C423 1.397 . S
C427 C428 1.394 . S
C427 C446 1.723 . S
C428 C425 1.396 . S
C428 C427 1.394 . S
C428 C458 1.723 . S
H429 C452 0.947 . S
H430 C453 0.948 . S
H431 C459 0.982 . S
H432 C460 0.979 . S
H433 C460 0.980 . S
H434 C460 0.983 . S
H435 C459 0.979 . S
H436 C459 0.977 . S
C437 C425 1.453 . S
C437 H466 0.982 . S
C437 H467 0.979 . S
C437 H468 0.977 . S
C438 C425 1.684 . S
C438 H463 0.979 . S
C438 H464 0.980 . S
C438 H465 0.983 . S
C439 C440 1.391 . S
C439 C444 1.391 . S
C439 H469 0.948 . S
C440 C439 1.391 . S
C440 C441 1.391 . S
C441 C440 1.391 . S
C441 C442 1.392 . S
C441 H470 0.947 . S
C442 C441 1.392 . S
C442 C443 1.419 . S
C442 H471 0.948 . S
C443 C442 1.419 . S
C443 C444 1.391 . S
C443 C447 1.397 . S
C444 C439 1.391 . S
C444 C443 1.391 . S
C444 C445 1.399 . S
C445 C444 1.399 . S
C445 C446 1.396 . S
C445 C448 1.453 . S
C445 C449 1.684 . S
C446 C427 1.723 . S
C446 C445 1.396 . S
C446 C447 1.394 . S
C447 C443 1.397 . S
C447 C446 1.394 . S
C447 C457 1.723 . S
C448 C445 1.453 . S
C448 H472 0.982 . S
C448 H473 0.979 . S
C448 H474 0.977 . S
C449 C445 1.684 . S
C449 H475 0.979 . S
C449 H476 0.980 . S
C449 H477 0.983 . S
C450 H426 0.948 . S
C450 C451 1.391 . S
C450 C455 1.391 . S
C451 C450 1.391 . S
C451 C452 1.391 . S
C452 H429 0.947 . S
C452 C451 1.391 . S
C452 C453 1.392 . S
C453 H430 0.948 . S
C453 C452 1.392 . S
C453 C454 1.419 . S
C454 C453 1.419 . S
C454 C455 1.391 . S
C454 C458 1.397 . S
C455 C450 1.391 . S
C455 C454 1.391 . S
C455 C456 1.399 . S
C456 C455 1.399 . S
C456 C457 1.396 . S
C456 C459 1.453 . S
C456 C460 1.684 . S
C457 C447 1.723 . S
C457 C456 1.396 . S
C457 C458 1.394 . S
C458 C428 1.723 . S
C458 C454 1.397 . S
C458 C457 1.394 . S
C459 H431 0.982 . S
C459 H435 0.979 . S
C459 H436 0.977 . S
C459 C456 1.453 . S
C460 H432 0.979 . S
C460 H433 0.980 . S
C460 H434 0.983 . S
C460 C456 1.684 . S
H461 C479 0.948 . S
H462 C420 0.948 . S
H463 C438 0.979 . S
H464 C438 0.980 . S
H465 C438 0.983 . S
H466 C437 0.982 . S
H467 C437 0.979 . S
H468 C437 0.977 . S
H469 C439 0.948 . S
H470 C441 0.947 . S
H471 C442 0.948 . S
H472 C448 0.982 . S
H473 C448 0.979 . S
H474 C448 0.977 . S
H475 C449 0.979 . S
H476 C449 0.980 . S
H477 C449 0.983 . S
H478 C422 0.947 . S
C479 C422 1.392 . S
C479 C423 1.419 . S
C479 H461 0.948 . S
Co480 N485 2.057 . S
Co480 O497 2.021 . S
Co480 O500 2.062 . S
Co480 O504 2.117 1_545 S
Co480 O505 2.020 1_545 S
C481 O501 1.259 1_655 S
C481 O504 1.258 . S
Co482 N491 2.057 . S
Co482 O498 2.117 1_565 S
Co482 O499 2.020 1_565 S
Co482 O501 2.021 . S
Co482 O506 2.062 . S
C483 N485 1.316 . S
C483 N486 1.347 . S
C483 H488 0.931 . S
C484 N485 1.375 1_565 S
C484 C487 1.350 1_565 S
C484 H489 0.930 . S
N485 Co480 2.057 . S
N485 C483 1.316 . S
N485 C484 1.375 1_545 S
N486 C483 1.347 . S
N486 C487 1.373 . S
C487 C484 1.350 1_545 S
C487 N486 1.373 . S
C487 H508 0.931 1_545 S
H488 C483 0.931 . S
H489 C484 0.930 . S
C490 O497 1.259 1_455 S
C490 O498 1.258 . S
N491 Co482 2.057 . S
N491 C492 1.316 . S
N491 C493 1.375 1_565 S
C492 N491 1.316 . S
C492 N494 1.347 . S
C492 H503 0.931 . S
C493 N491 1.375 1_545 S
C493 C495 1.350 1_545 S
C493 H502 0.930 . S
N494 C492 1.347 . S
N494 C495 1.373 . S
C495 C493 1.350 1_565 S
C495 N494 1.373 . S
C495 H509 0.931 1_565 S
C496 O499 1.256 . S
C496 O500 1.255 1_455 S
O497 Co480 2.021 . S
O497 C490 1.259 1_655 S
O498 Co482 2.117 1_545 S
O498 C490 1.258 . S
O499 Co482 2.020 1_545 S
O499 C496 1.256 . S
O500 Co480 2.062 . S
O500 C496 1.255 1_655 S
O501 C481 1.259 1_455 S
O501 Co482 2.021 . S
H502 C493 0.930 . S
H503 C492 0.931 . S
O504 Co480 2.117 1_565 S
O504 C481 1.258 . S
O505 Co480 2.020 1_565 S
O505 C507 1.256 . S
O506 Co482 2.062 . S
O506 C507 1.255 1_455 S
C507 O505 1.256 . S
C507 O506 1.255 1_655 S
H508 C487 0.931 1_565 S
H509 C495 0.931 1_545 S
Co510 N515 2.057 . S
Co510 O527 2.021 1_565 S
Co510 O530 2.062 . S
Co510 O534 2.117 . S
Co510 O535 2.020 1_565 S
C511 O531 1.259 . S
C511 O534 1.258 1_554 S
Co512 N521 2.057 . S
Co512 O528 2.117 . S
Co512 O529 2.020 1_545 S
Co512 O531 2.021 1_545 S
Co512 O536 2.062 . S
C513 N515 1.316 . S
C513 N516 1.347 . S
C513 H518 0.931 1_565 S
C514 N515 1.375 . S
C514 C517 1.350 . S
C514 H519 0.930 . S
N515 Co510 2.057 . S
N515 C513 1.316 . S
N515 C514 1.375 . S
N516 C513 1.347 . S
N516 C517 1.373 . S
C517 C514 1.350 . S
C517 N516 1.373 . S
C517 H538 0.931 . S
H518 C513 0.931 1_545 S
H519 C514 0.930 . S
C520 O527 1.259 . S
C520 O528 1.258 1_556 S
N521 Co512 2.057 . S
N521 C522 1.316 . S
N521 C523 1.375 . S
C522 N521 1.316 . S
C522 N524 1.347 . S
C522 H533 0.931 1_545 S
C523 N521 1.375 . S
C523 C525 1.350 . S
C523 H532 0.930 . S
N524 C522 1.347 . S
N524 C525 1.373 . S
C525 C523 1.350 . S
C525 N524 1.373 . S
C525 H539 0.931 . S
C526 O529 1.256 1_556 S
C526 O530 1.255 . S
O527 Co510 2.021 1_545 S
O527 C520 1.259 . S
O528 Co512 2.117 . S
O528 C520 1.258 1_554 S
O529 Co512 2.020 1_565 S
O529 C526 1.256 1_554 S
O530 Co510 2.062 . S
O530 C526 1.255 . S
O531 C511 1.259 . S
O531 Co512 2.021 1_565 S
H532 C523 0.930 . S
H533 C522 0.931 1_565 S
O534 Co510 2.117 . S
O534 C511 1.258 1_556 S
O535 Co510 2.020 1_545 S
O535 C537 1.256 1_556 S
O536 Co512 2.062 . S
O536 C537 1.255 . S
C537 O535 1.256 1_554 S
C537 O536 1.255 . S
H538 C517 0.931 . S
H539 C525 0.931 . S
Co540 N545 2.057 . S
Co540 O557 2.021 . S
Co540 O560 2.062 . S
Co540 O564 2.117 . S
Co540 O565 2.020 . S
C541 O561 1.259 . S
C541 O564 1.258 . S
Co542 N551 2.057 . S
Co542 O558 2.117 . S
Co542 O559 2.020 . S
Co542 O561 2.021 . S
Co542 O566 2.062 . S
C543 N545 1.316 . S
C543 N546 1.347 . S
C543 H548 0.931 . S
C544 N545 1.375 . S
C544 C547 1.350 . S
C544 H549 0.930 . S
N545 Co540 2.057 . S
N545 C543 1.316 . S
N545 C544 1.375 . S
N546 C543 1.347 . S
N546 C547 1.373 . S
C547 C544 1.350 . S
C547 N546 1.373 . S
C547 H568 0.931 . S
H548 C543 0.931 . S
H549 C544 0.930 . S
C550 O557 1.259 . S
C550 O558 1.258 . S
N551 Co542 2.057 . S
N551 C552 1.316 . S
N551 C553 1.375 . S
C552 N551 1.316 . S
C552 N554 1.347 . S
C552 H563 0.931 . S
C553 N551 1.375 . S
C553 C555 1.350 . S
C553 H562 0.930 . S
N554 C552 1.347 . S
N554 C555 1.373 . S
C555 C553 1.350 . S
C555 N554 1.373 . S
C555 H569 0.931 . S
C556 O559 1.256 . S
C556 O560 1.255 . S
O557 Co540 2.021 . S
O557 C550 1.259 . S
O558 Co542 2.117 . S
O558 C550 1.258 . S
O559 Co542 2.020 . S
O559 C556 1.256 . S
O560 Co540 2.062 . S
O560 C556 1.255 . S
O561 C541 1.259 . S
O561 Co542 2.021 . S
H562 C553 0.930 . S
H563 C552 0.931 . S
O564 Co540 2.117 . S
O564 C541 1.258 . S
O565 Co540 2.020 . S
O565 C567 1.256 . S
O566 Co542 2.062 . S
O566 C567 1.255 . S
C567 O565 1.256 . S
C567 O566 1.255 . S
H568 C547 0.931 . S
H569 C555 0.931 . S
Co570 N575 2.057 . S
Co570 O587 2.021 . S
Co570 O590 2.062 . S
Co570 O594 2.117 1_455 S
Co570 O595 2.020 1_455 S
C571 O591 1.259 1_556 S
C571 O594 1.258 . S
Co572 N581 2.057 . S
Co572 O588 2.117 1_655 S
Co572 O589 2.020 1_655 S
Co572 O591 2.021 . S
Co572 O596 2.062 . S
C573 N575 1.316 . S
C573 N576 1.347 . S
C573 H578 0.931 . S
C574 N575 1.375 1_655 S
C574 C577 1.350 1_655 S
C574 H579 0.930 . S
N575 Co570 2.057 . S
N575 C573 1.316 . S
N575 C574 1.375 1_455 S
N576 C573 1.347 . S
N576 C577 1.373 . S
C577 C574 1.350 1_455 S
C577 N576 1.373 . S
C577 H598 0.931 1_455 S
H578 C573 0.931 . S
H579 C574 0.930 . S
C580 O587 1.259 1_554 S
C580 O588 1.258 . S
N581 Co572 2.057 . S
N581 C582 1.316 . S
N581 C583 1.375 1_655 S
C582 N581 1.316 . S
C582 N584 1.347 . S
C582 H593 0.931 . S
C583 N581 1.375 1_455 S
C583 C585 1.350 1_455 S
C583 H592 0.930 . S
N584 C582 1.347 . S
N584 C585 1.373 . S
C585 C583 1.350 1_655 S
C585 N584 1.373 . S
C585 H599 0.931 1_655 S
C586 O589 1.256 . S
C586 O590 1.255 1_554 S
O587 Co570 2.021 . S
O587 C580 1.259 1_556 S
O588 Co572 2.117 1_455 S
O588 C580 1.258 . S
O589 Co572 2.020 1_455 S
O589 C586 1.256 . S
O590 Co570 2.062 . S
O590 C586 1.255 1_556 S
O591 C571 1.259 1_554 S
O591 Co572 2.021 . S
H592 C583 0.930 . S
H593 C582 0.931 . S
O594 Co570 2.117 1_655 S
O594 C571 1.258 . S
O595 Co570 2.020 1_655 S
O595 C597 1.256 . S
O596 Co572 2.062 . S
O596 C597 1.255 1_554 S
C597 O595 1.256 . S
C597 O596 1.255 1_556 S
H598 C577 0.931 1_655 S
H599 C585 0.931 1_455 S
H600 C608 0.929 . S
H601 C610 0.930 . S
H602 C612 0.930 . S
H603 C615 0.929 . S
H604 C618 0.930 . S
H605 C620 0.960 1_655 S
H606 C620 0.960 . S
H607 C620 0.960 . S
C608 H600 0.929 . S
C608 C609 1.377 . S
C608 C610 1.384 . S
C609 C608 1.377 . S
C609 C615 1.390 . S
C610 H601 0.930 . S
C610 C608 1.384 . S
C610 C611 1.372 . S
C611 C610 1.372 . S
C611 C612 1.400 . S
C611 C616 1.490 . S
C612 H602 0.930 . S
C612 C611 1.400 . S
C612 C615 1.386 . S
H613 C629 0.930 . S
H614 C630 0.931 . S
C615 H603 0.929 . S
C615 C609 1.390 . S
C615 C612 1.386 . S
C616 C611 1.490 . S
C616 C618 1.395 . S
C616 C619 1.403 . S
H617 C623 0.930 . S
C618 H604 0.930 . S
C618 C616 1.395 . S
C618 C621 1.403 . S
C619 C616 1.403 . S
C619 C620 1.524 . S
C619 C623 1.400 . S
C620 H605 0.960 1_455 S
C620 H606 0.960 . S
C620 H607 0.960 . S
C620 C619 1.524 . S
C621 C618 1.403 . S
C621 C622 1.392 . S
C621 C625 1.495 . S
C622 C621 1.392 . S
C622 C623 1.385 . S
C622 C624 1.478 . S
C623 H617 0.930 . S
C623 C619 1.400 . S
C623 C622 1.385 . S
C624 C622 1.478 . S
C624 C626 1.381 . S
C624 C630 1.383 . S
C625 C621 1.495 . S
C625 H631 0.959 . S
C625 H632 0.961 . S
C625 H633 0.960 . S
C626 C624 1.381 . S
C626 C627 1.394 . S
C626 H634 0.930 1_545 S
C627 C626 1.394 . S
C627 C628 1.383 . S
C627 H635 0.929 1_545 S
C628 C627 1.383 . S
C628 C629 1.377 . S
C629 H613 0.930 . S
C629 C628 1.377 . S
C629 C630 1.379 . S
C630 H614 0.931 . S
C630 C624 1.383 . S
C630 C629 1.379 . S
H631 C625 0.959 . S
H632 C625 0.961 . S
H633 C625 0.960 . S
H634 C626 0.930 1_565 S
H635 C627 0.929 1_565 S
H636 C644 0.929 . S
H637 C646 0.930 . S
H638 C648 0.930 . S
H639 C651 0.929 . S
H640 C654 0.930 . S
H641 C656 0.960 . S
H642 C656 0.960 . S
H643 C656 0.960 . S
C644 H636 0.929 . S
C644 C645 1.377 . S
C644 C646 1.384 . S
C645 C644 1.377 . S
C645 C651 1.390 . S
C646 H637 0.930 . S
C646 C644 1.384 . S
C646 C647 1.372 . S
C647 C646 1.372 . S
C647 C648 1.400 . S
C647 C652 1.490 . S
C648 H638 0.930 . S
C648 C647 1.400 . S
C648 C651 1.386 . S
H649 C665 0.930 . S
H650 C666 0.931 . S
C651 H639 0.929 . S
C651 C645 1.390 . S
C651 C648 1.386 . S
C652 C647 1.490 . S
C652 C654 1.395 . S
C652 C655 1.403 . S
H653 C659 0.930 . S
C654 H640 0.930 . S
C654 C652 1.395 . S
C654 C657 1.403 . S
C655 C652 1.403 . S
C655 C656 1.524 . S
C655 C659 1.400 . S
C656 H641 0.960 . S
C656 H642 0.960 . S
C656 H643 0.960 . S
C656 C655 1.524 . S
C657 C654 1.403 . S
C657 C658 1.392 . S
C657 C661 1.495 . S
C658 C657 1.392 . S
C658 C659 1.385 . S
C658 C660 1.478 . S
C659 H653 0.930 . S
C659 C655 1.400 . S
C659 C658 1.385 . S
C660 C658 1.478 . S
C660 C662 1.381 . S
C660 C666 1.383 . S
C661 C657 1.495 . S
C661 H667 0.959 . S
C661 H668 0.961 . S
C661 H669 0.960 . S
C662 C660 1.381 . S
C662 C663 1.394 . S
C662 H670 0.930 . S
C663 C662 1.394 . S
C663 C664 1.383 . S
C663 H671 0.929 . S
C664 C663 1.383 . S
C664 C665 1.377 . S
C665 H649 0.930 . S
C665 C664 1.377 . S
C665 C666 1.379 . S
C666 H650 0.931 . S
C666 C660 1.383 . S
C666 C665 1.379 . S
H667 C661 0.959 . S
H668 C661 0.961 . S
H669 C661 0.960 . S
H670 C662 0.930 . S
H671 C663 0.929 . S
H672 C680 0.929 . S
H673 C682 0.930 . S
H674 C684 0.930 . S
H675 C687 0.929 . S
H676 C690 0.930 . S
H677 C692 0.960 . S
H678 C692 0.960 . S
H679 C692 0.960 . S
C680 H672 0.929 . S
C680 C681 1.377 . S
C680 C682 1.384 . S
C681 C680 1.377 . S
C681 C687 1.390 . S
C682 H673 0.930 . S
C682 C680 1.384 . S
C682 C683 1.372 . S
C683 C682 1.372 . S
C683 C684 1.400 . S
C683 C688 1.490 . S
C684 H674 0.930 . S
C684 C683 1.400 . S
C684 C687 1.386 . S
H685 C701 0.930 . S
H686 C702 0.931 . S
C687 H675 0.929 . S
C687 C681 1.390 . S
C687 C684 1.386 . S
C688 C683 1.490 . S
C688 C690 1.395 . S
C688 C691 1.403 . S
H689 C695 0.930 . S
C690 H676 0.930 . S
C690 C688 1.395 . S
C690 C693 1.403 . S
C691 C688 1.403 . S
C691 C692 1.524 . S
C691 C695 1.400 . S
C692 H677 0.960 . S
C692 H678 0.960 . S
C692 H679 0.960 . S
C692 C691 1.524 . S
C693 C690 1.403 . S
C693 C694 1.392 . S
C693 C697 1.495 . S
C694 C693 1.392 . S
C694 C695 1.385 . S
C694 C696 1.478 . S
C695 H689 0.930 . S
C695 C691 1.400 . S
C695 C694 1.385 . S
C696 C694 1.478 . S
C696 C698 1.381 . S
C696 C702 1.383 . S
C697 C693 1.495 . S
C697 H703 0.959 . S
C697 H704 0.961 . S
C697 H705 0.960 . S
C698 C696 1.381 . S
C698 C699 1.394 . S
C698 H706 0.930 . S
C699 C698 1.394 . S
C699 C700 1.383 . S
C699 H707 0.929 . S
C700 C699 1.383 . S
C700 C701 1.377 . S
C701 H685 0.930 . S
C701 C700 1.377 . S
C701 C702 1.379 . S
C702 H686 0.931 . S
C702 C696 1.383 . S
C702 C701 1.379 . S
H703 C697 0.959 . S
H704 C697 0.961 . S
H705 C697 0.960 . S
H706 C698 0.930 . S
H707 C699 0.929 . S
H708 C716 0.929 . S
H709 C718 0.930 . S
H710 C720 0.930 . S
H711 C723 0.929 . S
H712 C726 0.930 . S
H713 C728 0.960 . S
H714 C728 0.960 . S
H715 C728 0.960 . S
C716 H708 0.929 . S
C716 C717 1.377 . S
C716 C718 1.384 . S
C717 C716 1.377 . S
C717 C723 1.390 . S
C718 H709 0.930 . S
C718 C716 1.384 . S
C718 C719 1.372 . S
C719 C718 1.372 . S
C719 C720 1.400 . S
C719 C724 1.490 . S
C720 H710 0.930 . S
C720 C719 1.400 . S
C720 C723 1.386 . S
H721 C737 0.930 . S
H722 C738 0.931 . S
C723 H711 0.929 . S
C723 C717 1.390 . S
C723 C720 1.386 . S
C724 C719 1.490 . S
C724 C726 1.395 . S
C724 C727 1.403 . S
H725 C731 0.930 . S
C726 H712 0.930 . S
C726 C724 1.395 . S
C726 C729 1.403 . S
C727 C724 1.403 . S
C727 C728 1.524 . S
C727 C731 1.400 . S
C728 H713 0.960 . S
C728 H714 0.960 . S
C728 H715 0.960 . S
C728 C727 1.524 . S
C729 C726 1.403 . S
C729 C730 1.392 . S
C729 C733 1.495 . S
C730 C729 1.392 . S
C730 C731 1.385 . S
C730 C732 1.478 . S
C731 H725 0.930 . S
C731 C727 1.400 . S
C731 C730 1.385 . S
C732 C730 1.478 . S
C732 C734 1.381 . S
C732 C738 1.383 . S
C733 C729 1.495 . S
C733 H739 0.959 . S
C733 H740 0.961 . S
C733 H741 0.960 . S
C734 C732 1.381 . S
C734 C735 1.394 . S
C734 H742 0.930 . S
C735 C734 1.394 . S
C735 C736 1.383 . S
C735 H743 0.929 . S
C736 C735 1.383 . S
C736 C737 1.377 . S
C737 H721 0.930 . S
C737 C736 1.377 . S
C737 C738 1.379 . S
C738 H722 0.931 . S
C738 C732 1.383 . S
C738 C737 1.379 . S
H739 C733 0.959 . S
H740 C733 0.961 . S
H741 C733 0.960 . S
H742 C734 0.930 . S
H743 C735 0.929 . S
H744 C752 0.929 . S
H745 C754 0.930 . S
H746 C756 0.930 . S
H747 C759 0.929 . S
H748 C762 0.930 . S
H749 C764 0.960 . S
H750 C764 0.960 . S
H751 C764 0.960 . S
C752 H744 0.929 . S
C752 C753 1.377 . S
C752 C754 1.384 . S
C753 C752 1.377 . S
C753 C759 1.390 . S
C754 H745 0.930 . S
C754 C752 1.384 . S
C754 C755 1.372 . S
C755 C754 1.372 . S
C755 C756 1.400 . S
C755 C760 1.490 . S
C756 H746 0.930 . S
C756 C755 1.400 . S
C756 C759 1.386 . S
H757 C773 0.930 1_565 S
H758 C774 0.931 . S
C759 H747 0.929 . S
C759 C753 1.390 . S
C759 C756 1.386 . S
C760 C755 1.490 . S
C760 C762 1.395 . S
C760 C763 1.403 . S
H761 C767 0.930 . S
C762 H748 0.930 . S
C762 C760 1.395 . S
C762 C765 1.403 . S
C763 C760 1.403 . S
C763 C764 1.524 . S
C763 C767 1.400 . S
C764 H749 0.960 . S
C764 H750 0.960 . S
C764 H751 0.960 . S
C764 C763 1.524 . S
C765 C762 1.403 . S
C765 C766 1.392 . S
C765 C769 1.495 . S
C766 C765 1.392 . S
C766 C767 1.385 . S
C766 C768 1.478 . S
C767 H761 0.930 . S
C767 C763 1.400 . S
C767 C766 1.385 . S
C768 C766 1.478 . S
C768 C770 1.381 . S
C768 C774 1.383 . S
C769 C765 1.495 . S
C769 H775 0.959 . S
C769 H776 0.961 . S
C769 H777 0.960 . S
C770 C768 1.381 . S
C770 C771 1.394 . S
C770 H778 0.930 . S
C771 C770 1.394 . S
C771 C772 1.383 . S
C771 H779 0.929 . S
C772 C771 1.383 . S
C772 C773 1.377 . S
C773 H757 0.930 1_545 S
C773 C772 1.377 . S
C773 C774 1.379 . S
C774 H758 0.931 . S
C774 C768 1.383 . S
C774 C773 1.379 . S
H775 C769 0.959 . S
H776 C769 0.961 . S
H777 C769 0.960 . S
H778 C770 0.930 . S
H779 C771 0.929 . S
H780 C788 0.929 . S
H781 C790 0.930 . S
H782 C792 0.930 . S
H783 C795 0.929 . S
H784 C798 0.930 . S
H785 C800 0.960 . S
H786 C800 0.960 . S
H787 C800 0.960 . S
C788 H780 0.929 . S
C788 C789 1.377 . S
C788 C790 1.384 . S
C789 C788 1.377 . S
C789 C795 1.390 . S
C790 H781 0.930 . S
C790 C788 1.384 . S
C790 C791 1.372 . S
C791 C790 1.372 . S
C791 C792 1.400 . S
C791 C796 1.490 . S
C792 H782 0.930 . S
C792 C791 1.400 . S
C792 C795 1.386 . S
H793 C809 0.930 . S
H794 C810 0.931 . S
C795 H783 0.929 . S
C795 C789 1.390 . S
C795 C792 1.386 . S
C796 C791 1.490 . S
C796 C798 1.395 . S
C796 C799 1.403 . S
H797 C803 0.930 . S
C798 H784 0.930 . S
C798 C796 1.395 . S
C798 C801 1.403 . S
C799 C796 1.403 . S
C799 C800 1.524 . S
C799 C803 1.400 . S
C800 H785 0.960 . S
C800 H786 0.960 . S
C800 H787 0.960 . S
C800 C799 1.524 . S
C801 C798 1.403 . S
C801 C802 1.392 . S
C801 C805 1.495 . S
C802 C801 1.392 . S
C802 C803 1.385 . S
C802 C804 1.478 . S
C803 H797 0.930 . S
C803 C799 1.400 . S
C803 C802 1.385 . S
C804 C802 1.478 . S
C804 C806 1.381 . S
C804 C810 1.383 . S
C805 C801 1.495 . S
C805 H811 0.959 . S
C805 H812 0.961 . S
C805 H813 0.960 . S
C806 C804 1.381 . S
C806 C807 1.394 . S
C806 H814 0.930 . S
C807 C806 1.394 . S
C807 C808 1.383 . S
C807 H815 0.929 . S
C808 C807 1.383 . S
C808 C809 1.377 . S
C809 H793 0.930 . S
C809 C808 1.377 . S
C809 C810 1.379 . S
C810 H794 0.931 . S
C810 C804 1.383 . S
C810 C809 1.379 . S
H811 C805 0.959 . S
H812 C805 0.961 . S
H813 C805 0.960 . S
H814 C806 0.930 . S
H815 C807 0.929 . S
H816 C824 0.929 . S
H817 C826 0.930 . S
H818 C828 0.930 . S
H819 C831 0.929 . S
H820 C834 0.930 . S
H821 C836 0.960 . S
H822 C836 0.960 . S
H823 C836 0.960 . S
C824 H816 0.929 . S
C824 C825 1.377 . S
C824 C826 1.384 . S
C825 C824 1.377 . S
C825 C831 1.390 . S
C826 H817 0.930 . S
C826 C824 1.384 . S
C826 C827 1.372 . S
C827 C826 1.372 . S
C827 C828 1.400 . S
C827 C832 1.490 . S
C828 H818 0.930 . S
C828 C827 1.400 . S
C828 C831 1.386 . S
H829 C845 0.930 . S
H830 C846 0.931 . S
C831 H819 0.929 . S
C831 C825 1.390 . S
C831 C828 1.386 . S
C832 C827 1.490 . S
C832 C834 1.395 . S
C832 C835 1.403 . S
H833 C839 0.930 . S
C834 H820 0.930 . S
C834 C832 1.395 . S
C834 C837 1.403 . S
C835 C832 1.403 . S
C835 C836 1.524 . S
C835 C839 1.400 . S
C836 H821 0.960 . S
C836 H822 0.960 . S
C836 H823 0.960 . S
C836 C835 1.524 . S
C837 C834 1.403 . S
C837 C838 1.392 . S
C837 C841 1.495 . S
C838 C837 1.392 . S
C838 C839 1.385 . S
C838 C840 1.478 . S
C839 H833 0.930 . S
C839 C835 1.400 . S
C839 C838 1.385 . S
C840 C838 1.478 . S
C840 C842 1.381 . S
C840 C846 1.383 . S
C841 C837 1.495 . S
C841 H847 0.959 . S
C841 H848 0.961 1_556 S
C841 H849 0.960 . S
C842 C840 1.381 . S
C842 C843 1.394 . S
C842 H850 0.930 . S
C843 C842 1.394 . S
C843 C844 1.383 . S
C843 H851 0.929 . S
C844 C843 1.383 . S
C844 C845 1.377 . S
C845 H829 0.930 . S
C845 C844 1.377 . S
C845 C846 1.379 . S
C846 H830 0.931 . S
C846 C840 1.383 . S
C846 C845 1.379 . S
H847 C841 0.959 . S
H848 C841 0.961 1_554 S
H849 C841 0.960 . S
H850 C842 0.930 . S
H851 C843 0.929 . S
H852 C860 0.929 . S
H853 C862 0.930 . S
H854 C864 0.930 . S
H855 C867 0.929 . S
H856 C870 0.930 . S
H857 C872 0.960 . S
H858 C872 0.960 . S
H859 C872 0.960 . S
C860 H852 0.929 . S
C860 C861 1.377 . S
C860 C862 1.384 . S
C861 C860 1.377 . S
C861 C867 1.390 . S
C862 H853 0.930 . S
C862 C860 1.384 . S
C862 C863 1.372 . S
C863 C862 1.372 . S
C863 C864 1.400 . S
C863 C868 1.490 . S
C864 H854 0.930 . S
C864 C863 1.400 . S
C864 C867 1.386 . S
H865 C881 0.930 . S
H866 C882 0.931 . S
C867 H855 0.929 . S
C867 C861 1.390 . S
C867 C864 1.386 . S
C868 C863 1.490 . S
C868 C870 1.395 . S
C868 C871 1.403 . S
H869 C875 0.930 . S
C870 H856 0.930 . S
C870 C868 1.395 . S
C870 C873 1.403 . S
C871 C868 1.403 . S
C871 C872 1.524 . S
C871 C875 1.400 . S
C872 H857 0.960 . S
C872 H858 0.960 . S
C872 H859 0.960 . S
C872 C871 1.524 . S
C873 C870 1.403 . S
C873 C874 1.392 . S
C873 C877 1.495 . S
C874 C873 1.392 . S
C874 C875 1.385 . S
C874 C876 1.478 . S
C875 H869 0.930 . S
C875 C871 1.400 . S
C875 C874 1.385 . S
C876 C874 1.478 . S
C876 C878 1.381 . S
C876 C882 1.383 . S
C877 C873 1.495 . S
C877 H883 0.959 . S
C877 H884 0.961 . S
C877 H885 0.960 . S
C878 C876 1.381 . S
C878 C879 1.394 . S
C878 H886 0.930 . S
C879 C878 1.394 . S
C879 C880 1.383 . S
C879 H887 0.929 . S
C880 C879 1.383 . S
C880 C881 1.377 . S
C881 H865 0.930 . S
C881 C880 1.377 . S
C881 C882 1.379 . S
C882 H866 0.931 . S
C882 C876 1.383 . S
C882 C881 1.379 . S
H883 C877 0.959 . S
H884 C877 0.961 . S
H885 C877 0.960 . S
H886 C878 0.930 . S
H887 C879 0.929 . S
H888 C896 0.929 . S
H889 C898 0.930 . S
H890 C900 0.930 . S
H891 C903 0.929 . S
H892 C906 0.930 . S
H893 C908 0.960 1_556 S
H894 C908 0.960 . S
H895 C908 0.960 . S
C896 H888 0.929 . S
C896 C897 1.377 . S
C896 C898 1.384 . S
C897 C896 1.377 . S
C897 C903 1.390 . S
C898 H889 0.930 . S
C898 C896 1.384 . S
C898 C899 1.372 . S
C899 C898 1.372 . S
C899 C900 1.400 . S
C899 C904 1.490 . S
C900 H890 0.930 . S
C900 C899 1.400 . S
C900 C903 1.386 . S
H901 C917 0.930 . S
H902 C918 0.931 . S
C903 H891 0.929 . S
C903 C897 1.390 . S
C903 C900 1.386 . S
C904 C899 1.490 . S
C904 C906 1.395 . S
C904 C907 1.403 . S
H905 C911 0.930 . S
C906 H892 0.930 . S
C906 C904 1.395 . S
C906 C909 1.403 . S
C907 C904 1.403 . S
C907 C908 1.524 . S
C907 C911 1.400 . S
C908 H893 0.960 1_554 S
C908 H894 0.960 . S
C908 H895 0.960 . S
C908 C907 1.524 . S
C909 C906 1.403 . S
C909 C910 1.392 . S
C909 C913 1.495 . S
C910 C909 1.392 . S
C910 C911 1.385 . S
C910 C912 1.478 . S
C911 H905 0.930 . S
C911 C907 1.400 . S
C911 C910 1.385 . S
C912 C910 1.478 . S
C912 C914 1.381 . S
C912 C918 1.383 . S
C913 C909 1.495 . S
C913 H919 0.959 . S
C913 H920 0.961 . S
C913 H921 0.960 . S
C914 C912 1.381 . S
C914 C915 1.394 . S
C914 H922 0.930 1_455 S
C915 C914 1.394 . S
C915 C916 1.383 . S
C915 H923 0.929 1_455 S
C916 C915 1.383 . S
C916 C917 1.377 . S
C917 H901 0.930 . S
C917 C916 1.377 . S
C917 C918 1.379 . S
C918 H902 0.931 . S
C918 C912 1.383 . S
C918 C917 1.379 . S
H919 C913 0.959 . S
H920 C913 0.961 . S
H921 C913 0.960 . S
H922 C914 0.930 1_655 S
H923 C915 0.929 1_655 S
H924 C932 0.929 . S
H925 C934 0.930 . S
H926 C936 0.930 . S
H927 C939 0.929 . S
H928 C942 0.930 . S
H929 C944 0.960 . S
H930 C944 0.960 . S
H931 C944 0.960 . S
C932 H924 0.929 . S
C932 C933 1.377 . S
C932 C934 1.384 . S
C933 C932 1.377 . S
C933 C939 1.390 . S
C934 H925 0.930 . S
C934 C932 1.384 . S
C934 C935 1.372 . S
C935 C934 1.372 . S
C935 C936 1.400 . S
C935 C940 1.490 . S
C936 H926 0.930 . S
C936 C935 1.400 . S
C936 C939 1.386 . S
H937 C953 0.930 . S
H938 C954 0.931 . S
C939 H927 0.929 . S
C939 C933 1.390 . S
C939 C936 1.386 . S
C940 C935 1.490 . S
C940 C942 1.395 . S
C940 C943 1.403 . S
H941 C947 0.930 . S
C942 H928 0.930 . S
C942 C940 1.395 . S
C942 C945 1.403 . S
C943 C940 1.403 . S
C943 C944 1.524 . S
C943 C947 1.400 . S
C944 H929 0.960 . S
C944 H930 0.960 . S
C944 H931 0.960 . S
C944 C943 1.524 . S
C945 C942 1.403 . S
C945 C946 1.392 . S
C945 C949 1.495 . S
C946 C945 1.392 . S
C946 C947 1.385 . S
C946 C948 1.478 . S
C947 H941 0.930 . S
C947 C943 1.400 . S
C947 C946 1.385 . S
C948 C946 1.478 . S
C948 C950 1.381 . S
C948 C954 1.383 . S
C949 C945 1.495 . S
C949 H955 0.959 . S
C949 H956 0.961 . S
C949 H957 0.960 . S
C950 C948 1.381 . S
C950 C951 1.394 . S
C950 H958 0.930 . S
C951 C950 1.394 . S
C951 C952 1.383 . S
C951 H959 0.929 . S
C952 C951 1.383 . S
C952 C953 1.377 . S
C953 H937 0.930 . S
C953 C952 1.377 . S
C953 C954 1.379 . S
C954 H938 0.931 . S
C954 C948 1.383 . S
C954 C953 1.379 . S
H955 C949 0.959 . S
H956 C949 0.961 . S
H957 C949 0.960 . S
H958 C950 0.930 . S
H959 C951 0.929 . S
H960 C968 0.929 . S
H961 C970 0.930 . S
H962 C972 0.930 . S
H963 C975 0.929 . S
H964 C978 0.930 . S
H965 C980 0.960 . S
H966 C980 0.960 . S
H967 C980 0.960 . S
C968 H960 0.929 . S
C968 C969 1.377 . S
C968 C970 1.384 . S
C969 C968 1.377 . S
C969 C975 1.390 . S
C970 H961 0.930 . S
C970 C968 1.384 . S
C970 C971 1.372 . S
C971 C970 1.372 . S
C971 C972 1.400 . S
C971 C976 1.490 . S
C972 H962 0.930 . S
C972 C971 1.400 . S
C972 C975 1.386 . S
H973 C989 0.930 1_455 S
H974 C990 0.913 1_455 S
C975 H963 0.929 . S
C975 C969 1.390 . S
C975 C972 1.386 . S
C976 C971 1.490 . S
C976 C978 1.395 . S
C976 C979 1.403 . S
H977 C983 0.930 . S
C978 H964 0.930 . S
C978 C976 1.395 . S
C978 C981 1.403 . S
C979 C976 1.403 . S
C979 C980 1.524 . S
C979 C983 1.400 . S
C980 H965 0.960 . S
C980 H966 0.960 . S
C980 H967 0.960 . S
C980 C979 1.524 . S
C981 C978 1.403 . S
C981 C982 1.392 . S
C981 C985 1.495 . S
C982 C981 1.392 . S
C982 C983 1.385 . S
C982 C984 1.478 . S
C983 H977 0.930 . S
C983 C979 1.400 . S
C983 C982 1.385 . S
C984 C982 1.478 . S
C984 C986 1.381 . S
C984 C990 1.383 . S
C985 C981 1.495 . S
C985 H991 0.959 . S
C985 H992 0.961 . S
C985 H993 0.960 . S
C986 C984 1.381 . S
C986 C987 1.394 . S
C986 H994 0.930 . S
C987 C986 1.394 . S
C987 C988 1.383 . S
C987 H995 0.929 . S
C988 C987 1.383 . S
C988 C989 1.377 . S
C989 H973 0.930 1_655 S
C989 C988 1.377 . S
C989 C990 1.379 . S
C990 H974 0.913 1_655 S
C990 C984 1.383 . S
C990 C989 1.379 . S
H991 C985 0.959 . S
H992 C985 0.961 . S
H993 C985 0.960 . S
H994 C986 0.930 . S
H995 C987 0.929 . S
H996 C1004 0.929 . S
H997 C1006 0.930 . S
H998 C1008 0.930 . S
H999 C1011 0.929 . S
H1000 C1014 0.930 . S
H1001 C1016 0.960 . S
H1002 C1016 0.960 . S
H1003 C1016 0.960 . S
C1004 H996 0.929 . S
C1004 C1005 1.377 . S
C1004 C1006 1.384 . S
C1005 C1004 1.377 . S
C1005 C1011 1.390 . S
C1006 H997 0.930 . S
C1006 C1004 1.384 . S
C1006 C1007 1.372 . S
C1007 C1006 1.372 . S
C1007 C1008 1.400 . S
C1007 C1012 1.490 . S
C1008 H998 0.930 . S
C1008 C1007 1.400 . S
C1008 C1011 1.386 . S
H1009 C1025 0.930 . S
H1010 C1026 0.931 . S
C1011 H999 0.929 . S
C1011 C1005 1.390 . S
C1011 C1008 1.386 . S
C1012 C1007 1.490 . S
C1012 C1014 1.395 . S
C1012 C1015 1.403 . S
H1013 C1019 0.930 . S
C1014 H1000 0.930 . S
C1014 C1012 1.395 . S
C1014 C1017 1.403 . S
C1015 C1012 1.403 . S
C1015 C1016 1.524 . S
C1015 C1019 1.400 . S
C1016 H1001 0.960 . S
C1016 H1002 0.960 . S
C1016 H1003 0.960 . S
C1016 C1015 1.524 . S
C1017 C1014 1.403 . S
C1017 C1018 1.392 . S
C1017 C1021 1.495 . S
C1018 C1017 1.392 . S
C1018 C1019 1.385 . S
C1018 C1020 1.478 . S
C1019 H1013 0.930 . S
C1019 C1015 1.400 . S
C1019 C1018 1.385 . S
C1020 C1018 1.478 . S
C1020 C1022 1.381 . S
C1020 C1026 1.383 . S
C1021 C1017 1.495 . S
C1021 H1027 0.959 . S
C1021 H1028 0.961 . S
C1021 H1029 0.960 . S
C1022 C1020 1.381 . S
C1022 C1023 1.394 . S
C1022 H1030 0.930 . S
C1023 C1022 1.394 . S
C1023 C1024 1.383 . S
C1023 H1031 0.929 . S
C1024 C1023 1.383 . S
C1024 C1025 1.377 . S
C1025 H1009 0.930 . S
C1025 C1024 1.377 . S
C1025 C1026 1.379 . S
C1026 H1010 0.931 . S
C1026 C1020 1.383 . S
C1026 C1025 1.379 . S
H1027 C1021 0.959 . S
H1028 C1021 0.961 . S
H1029 C1021 0.960 . S
H1030 C1022 0.930 . S
H1031 C1023 0.929 . S
H1032 C1040 0.929 . S
H1033 C1042 0.930 . S
H1034 C1044 0.930 . S
H1035 C1047 0.929 . S
H1036 C1050 0.930 . S
H1037 C1052 0.960 . S
H1038 C1052 0.960 . S
H1039 C1052 0.960 . S
C1040 H1032 0.929 . S
C1040 C1041 1.377 . S
C1040 C1042 1.384 . S
C1041 C1040 1.377 . S
C1041 C1047 1.390 . S
C1042 H1033 0.930 . S
C1042 C1040 1.384 . S
C1042 C1043 1.372 . S
C1043 C1042 1.372 . S
C1043 C1044 1.400 . S
C1043 C1048 1.490 . S
C1044 H1034 0.930 . S
C1044 C1043 1.400 . S
C1044 C1047 1.386 . S
H1045 C1061 0.930 . S
H1046 C1062 0.931 . S
C1047 H1035 0.929 . S
C1047 C1041 1.390 . S
C1047 C1044 1.386 . S
C1048 C1043 1.490 . S
C1048 C1050 1.395 . S
C1048 C1051 1.403 . S
H1049 C1055 0.930 . S
C1050 H1036 0.930 . S
C1050 C1048 1.395 . S
C1050 C1053 1.403 . S
C1051 C1048 1.403 . S
C1051 C1052 1.524 . S
C1051 C1055 1.400 . S
C1052 H1037 0.960 . S
C1052 H1038 0.960 . S
C1052 H1039 0.960 . S
C1052 C1051 1.524 . S
C1053 C1050 1.403 . S
C1053 C1054 1.392 . S
C1053 C1057 1.495 1_655 S
C1054 C1053 1.392 . S
C1054 C1055 1.385 . S
C1054 C1056 1.478 . S
C1055 H1049 0.930 . S
C1055 C1051 1.400 . S
C1055 C1054 1.385 . S
C1056 C1054 1.478 . S
C1056 C1058 1.381 . S
C1056 C1062 1.383 . S
C1057 C1053 1.495 1_455 S
C1057 H1063 0.959 . S
C1057 H1064 0.961 . S
C1057 H1065 0.960 . S
C1058 C1056 1.381 . S
C1058 C1059 1.394 . S
C1058 H1066 0.930 . S
C1059 C1058 1.394 . S
C1059 C1060 1.383 . S
C1059 H1067 0.931 1_655 S
C1060 C1059 1.383 . S
C1060 C1061 1.377 . S
C1061 H1045 0.930 . S
C1061 C1060 1.377 . S
C1061 C1062 1.379 . S
C1062 H1046 0.931 . S
C1062 C1056 1.383 . S
C1062 C1061 1.379 . S
H1063 C1057 0.959 . S
H1064 C1057 0.961 . S
H1065 C1057 0.960 . S
H1066 C1058 0.930 . S
H1067 C1059 0.931 1_455 S
H1068 C1076 0.929 . S
H1069 C1078 0.930 . S
H1070 C1080 0.930 . S
H1071 C1083 0.929 . S
H1072 C1086 0.930 . S
H1073 C1088 0.960 . S
H1074 C1088 0.960 . S
H1075 C1088 0.960 . S
C1076 H1068 0.929 . S
C1076 C1077 1.377 . S
C1076 C1078 1.384 . S
C1077 C1076 1.377 . S
C1077 C1083 1.390 . S
C1078 H1069 0.930 . S
C1078 C1076 1.384 . S
C1078 C1079 1.372 . S
C1079 C1078 1.372 . S
C1079 C1080 1.400 . S
C1079 C1084 1.490 . S
C1080 H1070 0.930 . S
C1080 C1079 1.400 . S
C1080 C1083 1.386 . S
H1081 C1097 0.930 . S
H1082 C1098 0.931 . S
C1083 H1071 0.929 . S
C1083 C1077 1.390 . S
C1083 C1080 1.386 . S
C1084 C1079 1.490 . S
C1084 C1086 1.395 . S
C1084 C1087 1.403 . S
H1085 C1091 0.930 . S
C1086 H1072 0.930 . S
C1086 C1084 1.395 . S
C1086 C1089 1.403 . S
C1087 C1084 1.403 . S
C1087 C1088 1.524 . S
C1087 C1091 1.400 . S
C1088 H1073 0.960 . S
C1088 H1074 0.960 . S
C1088 H1075 0.960 . S
C1088 C1087 1.524 . S
C1089 C1086 1.403 . S
C1089 C1090 1.392 . S
C1089 C1093 1.495 . S
C1090 C1089 1.392 . S
C1090 C1091 1.385 . S
C1090 C1092 1.478 . S
C1091 H1085 0.930 . S
C1091 C1087 1.400 . S
C1091 C1090 1.385 . S
C1092 C1090 1.478 . S
C1092 C1094 1.381 . S
C1092 C1098 1.383 . S
C1093 C1089 1.495 . S
C1093 H1099 0.959 . S
C1093 H1100 0.961 . S
C1093 H1101 0.960 . S
C1094 C1092 1.381 . S
C1094 C1095 1.394 . S
C1094 H1102 0.930 . S
C1095 C1094 1.394 . S
C1095 C1096 1.383 . S
C1095 H1103 0.929 . S
C1096 C1095 1.383 . S
C1096 C1097 1.377 . S
C1097 H1081 0.930 . S
C1097 C1096 1.377 . S
C1097 C1098 1.379 . S
C1098 H1082 0.931 . S
C1098 C1092 1.383 . S
C1098 C1097 1.379 . S
H1099 C1093 0.959 . S
H1100 C1093 0.961 . S
H1101 C1093 0.960 . S
H1102 C1094 0.930 . S
H1103 C1095 0.929 . S
H1104 C1112 0.929 . S
H1105 C1114 0.930 . S
H1106 C1116 0.930 . S
H1107 C1119 0.929 . S
H1108 C1122 0.930 . S
H1109 C1124 0.960 . S
H1110 C1124 0.960 . S
H1111 C1124 0.960 . S
C1112 H1104 0.929 . S
C1112 C1113 1.377 . S
C1112 C1114 1.384 . S
C1113 C1112 1.377 . S
C1113 C1119 1.390 . S
C1114 H1105 0.930 . S
C1114 C1112 1.384 . S
C1114 C1115 1.372 . S
C1115 C1114 1.372 . S
C1115 C1116 1.400 . S
C1115 C1120 1.490 . S
C1116 H1106 0.930 . S
C1116 C1115 1.400 . S
C1116 C1119 1.386 . S
H1117 C1133 0.930 . S
H1118 C1134 0.931 . S
C1119 H1107 0.929 . S
C1119 C1113 1.390 . S
C1119 C1116 1.386 . S
C1120 C1115 1.490 . S
C1120 C1122 1.395 . S
C1120 C1123 1.403 . S
H1121 C1127 0.930 . S
C1122 H1108 0.930 . S
C1122 C1120 1.395 . S
C1122 C1125 1.403 . S
C1123 C1120 1.403 . S
C1123 C1124 1.524 . S
C1123 C1127 1.400 . S
C1124 H1109 0.960 . S
C1124 H1110 0.960 . S
C1124 H1111 0.960 . S
C1124 C1123 1.524 . S
C1125 C1122 1.403 . S
C1125 C1126 1.392 . S
C1125 C1129 1.495 . S
C1126 C1125 1.392 . S
C1126 C1127 1.385 . S
C1126 C1128 1.478 . S
C1127 H1121 0.930 . S
C1127 C1123 1.400 . S
C1127 C1126 1.385 . S
C1128 C1126 1.478 . S
C1128 C1130 1.381 . S
C1128 C1134 1.383 . S
C1129 C1125 1.495 . S
C1129 H1135 0.959 . S
C1129 H1136 0.961 . S
C1129 H1137 0.960 . S
C1130 C1128 1.381 . S
C1130 C1131 1.394 . S
C1130 H1138 0.930 . S
C1131 C1130 1.394 . S
C1131 C1132 1.383 . S
C1131 H1139 0.929 . S
C1132 C1131 1.383 . S
C1132 C1133 1.377 . S
C1133 H1117 0.930 . S
C1133 C1132 1.377 . S
C1133 C1134 1.379 . S
C1134 H1118 0.931 . S
C1134 C1128 1.383 . S
C1134 C1133 1.379 . S
H1135 C1129 0.959 . S
H1136 C1129 0.961 . S
H1137 C1129 0.960 . S
H1138 C1130 0.930 . S
H1139 C1131 0.929 . S
H1140 C1148 0.929 . S
H1141 C1150 0.930 . S
H1142 C1152 0.930 . S
H1143 C1155 0.929 . S
H1144 C1158 0.930 . S
H1145 C1160 0.960 . S
H1146 C1160 0.960 . S
H1147 C1160 0.960 . S
C1148 H1140 0.929 . S
C1148 C1149 1.377 . S
C1148 C1150 1.384 . S
C1149 C1148 1.377 . S
C1149 C1155 1.390 . S
C1150 H1141 0.930 . S
C1150 C1148 1.384 . S
C1150 C1151 1.372 . S
C1151 C1150 1.372 . S
C1151 C1152 1.400 . S
C1151 C1156 1.490 . S
C1152 H1142 0.930 . S
C1152 C1151 1.400 . S
C1152 C1155 1.386 . S
H1153 C1169 0.930 . S
H1154 C1170 0.931 . S
C1155 H1143 0.929 . S
C1155 C1149 1.390 . S
C1155 C1152 1.386 . S
C1156 C1151 1.490 . S
C1156 C1158 1.395 . S
C1156 C1159 1.403 . S
H1157 C1163 0.930 . S
C1158 H1144 0.930 . S
C1158 C1156 1.395 . S
C1158 C1161 1.403 . S
C1159 C1156 1.403 . S
C1159 C1160 1.524 . S
C1159 C1163 1.400 . S
C1160 H1145 0.960 . S
C1160 H1146 0.960 . S
C1160 H1147 0.960 . S
C1160 C1159 1.524 . S
C1161 C1158 1.403 . S
C1161 C1162 1.392 . S
C1161 C1165 1.495 . S
C1162 C1161 1.392 . S
C1162 C1163 1.385 . S
C1162 C1164 1.478 . S
C1163 H1157 0.930 . S
C1163 C1159 1.400 . S
C1163 C1162 1.385 . S
C1164 C1162 1.478 . S
C1164 C1166 1.381 . S
C1164 C1170 1.383 . S
C1165 C1161 1.495 . S
C1165 H1171 0.959 . S
C1165 H1172 0.961 . S
C1165 H1173 0.960 . S
C1166 C1164 1.381 . S
C1166 C1167 1.394 . S
C1166 H1174 0.930 . S
C1167 C1166 1.394 . S
C1167 C1168 1.383 . S
C1167 H1175 0.929 . S
C1168 C1167 1.383 . S
C1168 C1169 1.377 . S
C1169 H1153 0.930 . S
C1169 C1168 1.377 . S
C1169 C1170 1.379 . S
C1170 H1154 0.931 . S
C1170 C1164 1.383 . S
C1170 C1169 1.379 . S
H1171 C1165 0.959 . S
H1172 C1165 0.961 . S
H1173 C1165 0.960 . S
H1174 C1166 0.930 . S
H1175 C1167 0.929 . S
H1176 C1184 0.929 . S
H1177 C1186 0.930 . S
H1178 C1188 0.930 . S
H1179 C1191 0.929 . S
H1180 C1194 0.930 . S
H1181 C1196 0.960 . S
H1182 C1196 0.960 . S
H1183 C1196 0.960 . S
C1184 H1176 0.929 . S
C1184 C1185 1.377 . S
C1184 C1186 1.384 . S
C1185 C1184 1.377 . S
C1185 C1191 1.390 . S
C1186 H1177 0.930 . S
C1186 C1184 1.384 . S
C1186 C1187 1.372 . S
C1187 C1186 1.372 . S
C1187 C1188 1.400 . S
C1187 C1192 1.490 . S
C1188 H1178 0.930 . S
C1188 C1187 1.400 . S
C1188 C1191 1.386 . S
H1189 C1205 0.930 . S
H1190 C1206 0.931 . S
C1191 H1179 0.929 . S
C1191 C1185 1.390 . S
C1191 C1188 1.386 . S
C1192 C1187 1.490 . S
C1192 C1194 1.395 . S
C1192 C1195 1.403 . S
H1193 C1199 0.930 . S
C1194 H1180 0.930 . S
C1194 C1192 1.395 . S
C1194 C1197 1.403 . S
C1195 C1192 1.403 . S
C1195 C1196 1.524 . S
C1195 C1199 1.400 . S
C1196 H1181 0.960 . S
C1196 H1182 0.960 . S
C1196 H1183 0.960 . S
C1196 C1195 1.524 . S
C1197 C1194 1.403 . S
C1197 C1198 1.392 . S
C1197 C1201 1.495 . S
C1198 C1197 1.392 . S
C1198 C1199 1.385 . S
C1198 C1200 1.478 . S
C1199 H1193 0.930 . S
C1199 C1195 1.400 . S
C1199 C1198 1.385 . S
C1200 C1198 1.478 . S
C1200 C1202 1.381 . S
C1200 C1206 1.383 . S
C1201 C1197 1.495 . S
C1201 H1207 0.972 . S
C1201 H1208 0.961 . S
C1201 H1209 0.960 1_565 S
C1202 C1200 1.381 . S
C1202 C1203 1.394 . S
C1202 H1210 0.915 1_565 S
C1203 C1202 1.394 . S
C1203 C1204 1.383 . S
C1203 H1211 0.929 1_565 S
C1204 C1203 1.383 . S
C1204 C1205 1.377 . S
C1205 H1189 0.930 . S
C1205 C1204 1.377 . S
C1205 C1206 1.379 . S
C1206 H1190 0.931 . S
C1206 C1200 1.383 . S
C1206 C1205 1.379 . S
H1207 C1201 0.972 . S
H1208 C1201 0.961 . S
H1209 C1201 0.960 1_545 S
H1210 C1202 0.915 1_545 S
H1211 C1203 0.929 1_545 S
H1212 C1220 0.929 . S
H1213 C1222 0.930 . S
H1214 C1224 0.930 . S
H1215 C1227 0.929 . S
H1216 C1230 0.930 . S
H1217 C1232 0.960 . S
H1218 C1232 0.960 . S
H1219 C1232 0.960 . S
C1220 H1212 0.929 . S
C1220 C1221 1.377 . S
C1220 C1222 1.384 . S
C1221 C1220 1.377 . S
C1221 C1227 1.390 . S
C1222 H1213 0.930 . S
C1222 C1220 1.384 . S
C1222 C1223 1.372 . S
C1223 C1222 1.372 . S
C1223 C1224 1.400 . S
C1223 C1228 1.490 . S
C1224 H1214 0.930 . S
C1224 C1223 1.400 . S
C1224 C1227 1.386 . S
H1225 C1241 0.930 . S
H1226 C1242 0.931 . S
C1227 H1215 0.929 . S
C1227 C1221 1.390 . S
C1227 C1224 1.386 . S
C1228 C1223 1.490 . S
C1228 C1230 1.395 . S
C1228 C1231 1.403 . S
H1229 C1235 0.930 . S
C1230 H1216 0.930 . S
C1230 C1228 1.395 . S
C1230 C1233 1.403 . S
C1231 C1228 1.403 . S
C1231 C1232 1.524 . S
C1231 C1235 1.400 . S
C1232 H1217 0.960 . S
C1232 H1218 0.960 . S
C1232 H1219 0.960 . S
C1232 C1231 1.524 . S
C1233 C1230 1.403 . S
C1233 C1234 1.392 . S
C1233 C1237 1.495 . S
C1234 C1233 1.392 . S
C1234 C1235 1.385 . S
C1234 C1236 1.478 . S
C1235 H1229 0.930 . S
C1235 C1231 1.400 . S
C1235 C1234 1.385 . S
C1236 C1234 1.478 . S
C1236 C1238 1.381 . S
C1236 C1242 1.383 . S
C1237 C1233 1.495 . S
C1237 H1243 0.959 . S
C1237 H1244 0.961 . S
C1237 H1245 0.960 . S
C1238 C1236 1.381 . S
C1238 C1239 1.394 . S
C1238 H1246 0.930 . S
C1239 C1238 1.394 . S
C1239 C1240 1.383 . S
C1239 H1247 0.929 . S
C1240 C1239 1.383 . S
C1240 C1241 1.377 . S
C1241 H1225 0.930 . S
C1241 C1240 1.377 . S
C1241 C1242 1.379 . S
C1242 H1226 0.931 . S
C1242 C1236 1.383 . S
C1242 C1241 1.379 . S
H1243 C1237 0.959 . S
H1244 C1237 0.961 . S
H1245 C1237 0.960 . S
H1246 C1238 0.930 . S
H1247 C1239 0.929 . S
H1248 C1256 0.929 . S
H1249 C1258 0.930 . S
H1250 C1260 0.930 . S
H1251 C1263 0.929 . S
H1252 C1266 0.930 . S
H1253 C1268 0.960 . S
H1254 C1268 0.960 . S
H1255 C1268 0.960 . S
C1256 H1248 0.929 . S
C1256 C1257 1.377 . S
C1256 C1258 1.384 . S
C1257 C1256 1.377 . S
C1257 C1263 1.390 . S
C1258 H1249 0.930 . S
C1258 C1256 1.384 . S
C1258 C1259 1.372 . S
C1259 C1258 1.372 . S
C1259 C1260 1.400 . S
C1259 C1264 1.490 . S
C1260 H1250 0.930 . S
C1260 C1259 1.400 . S
C1260 C1263 1.386 . S
H1261 C1277 0.930 . S
H1262 C1278 0.931 . S
C1263 H1251 0.929 . S
C1263 C1257 1.390 . S
C1263 C1260 1.386 . S
C1264 C1259 1.490 . S
C1264 C1266 1.395 . S
C1264 C1267 1.403 . S
H1265 C1271 0.930 . S
C1266 H1252 0.930 . S
C1266 C1264 1.395 . S
C1266 C1269 1.403 . S
C1267 C1264 1.403 . S
C1267 C1268 1.524 . S
C1267 C1271 1.400 . S
C1268 H1253 0.960 . S
C1268 H1254 0.960 . S
C1268 H1255 0.960 . S
C1268 C1267 1.524 . S
C1269 C1266 1.403 . S
C1269 C1270 1.392 . S
C1269 C1273 1.495 . S
C1270 C1269 1.392 . S
C1270 C1271 1.385 . S
C1270 C1272 1.478 . S
C1271 H1265 0.930 . S
C1271 C1267 1.400 . S
C1271 C1270 1.385 . S
C1272 C1270 1.478 . S
C1272 C1274 1.381 . S
C1272 C1278 1.383 . S
C1273 C1269 1.495 . S
C1273 H1279 0.959 . S
C1273 H1280 0.961 . S
C1273 H1281 0.960 . S
C1274 C1272 1.381 . S
C1274 C1275 1.394 . S
C1274 H1282 0.930 1_554 S
C1275 C1274 1.394 . S
C1275 C1276 1.383 . S
C1275 H1283 0.929 1_554 S
C1276 C1275 1.383 . S
C1276 C1277 1.377 . S
C1277 H1261 0.930 . S
C1277 C1276 1.377 . S
C1277 C1278 1.379 . S
C1278 H1262 0.931 . S
C1278 C1272 1.383 . S
C1278 C1277 1.379 . S
H1279 C1273 0.959 . S
H1280 C1273 0.961 . S
H1281 C1273 0.960 . S
H1282 C1274 0.930 1_556 S
H1283 C1275 0.929 1_556 S
H1284 C1292 0.929 . S
H1285 C1294 0.930 . S
H1286 C1296 0.930 . S
H1287 C1299 0.929 . S
H1288 C1302 0.930 . S
H1289 C1304 0.960 . S
H1290 C1304 0.960 . S
H1291 C1304 0.960 . S
C1292 H1284 0.929 . S
C1292 C1293 1.377 . S
C1292 C1294 1.384 . S
C1293 C1292 1.377 . S
C1293 C1299 1.390 . S
C1294 H1285 0.930 . S
C1294 C1292 1.384 . S
C1294 C1295 1.372 . S
C1295 C1294 1.372 . S
C1295 C1296 1.400 . S
C1295 C1300 1.490 . S
C1296 H1286 0.930 . S
C1296 C1295 1.400 . S
C1296 C1299 1.386 . S
H1297 C1313 0.930 . S
H1298 C1314 0.931 . S
C1299 H1287 0.929 . S
C1299 C1293 1.390 . S
C1299 C1296 1.386 . S
C1300 C1295 1.490 . S
C1300 C1302 1.395 . S
C1300 C1303 1.403 . S
H1301 C1307 0.930 . S
C1302 H1288 0.930 . S
C1302 C1300 1.395 . S
C1302 C1305 1.403 . S
C1303 C1300 1.403 . S
C1303 C1304 1.524 . S
C1303 C1307 1.400 . S
C1304 H1289 0.960 . S
C1304 H1290 0.960 . S
C1304 H1291 0.960 . S
C1304 C1303 1.524 . S
C1305 C1302 1.403 . S
C1305 C1306 1.392 . S
C1305 C1309 1.495 . S
C1306 C1305 1.392 . S
C1306 C1307 1.385 . S
C1306 C1308 1.478 . S
C1307 H1301 0.930 . S
C1307 C1303 1.400 . S
C1307 C1306 1.385 . S
C1308 C1306 1.478 . S
C1308 C1310 1.381 . S
C1308 C1314 1.383 . S
C1309 C1305 1.495 . S
C1309 H1315 0.959 . S
C1309 H1316 0.961 . S
C1309 H1317 0.960 . S
C1310 C1308 1.381 . S
C1310 C1311 1.394 . S
C1310 H1318 0.930 . S
C1311 C1310 1.394 . S
C1311 C1312 1.383 . S
C1311 H1319 0.929 . S
C1312 C1311 1.383 . S
C1312 C1313 1.377 . S
C1313 H1297 0.930 . S
C1313 C1312 1.377 . S
C1313 C1314 1.379 . S
C1314 H1298 0.931 . S
C1314 C1308 1.383 . S
C1314 C1313 1.379 . S
H1315 C1309 0.959 . S
H1316 C1309 0.961 . S
H1317 C1309 0.960 . S
H1318 C1310 0.930 . S
H1319 C1311 0.929 . S
H1320 C1328 0.929 . S
H1321 C1330 0.930 . S
H1322 C1332 0.930 . S
H1323 C1335 0.929 . S
H1324 C1338 0.930 . S
H1325 C1340 0.960 1_455 S
H1326 C1340 0.960 . S
H1327 C1340 0.960 . S
C1328 H1320 0.929 . S
C1328 C1329 1.377 . S
C1328 C1330 1.384 . S
C1329 C1328 1.377 . S
C1329 C1335 1.390 . S
C1330 H1321 0.930 . S
C1330 C1328 1.384 . S
C1330 C1331 1.372 . S
C1331 C1330 1.372 . S
C1331 C1332 1.400 . S
C1331 C1336 1.490 . S
C1332 H1322 0.930 . S
C1332 C1331 1.400 . S
C1332 C1335 1.386 . S
H1333 C1349 0.930 . S
H1334 C1350 0.931 . S
C1335 H1323 0.929 . S
C1335 C1329 1.390 . S
C1335 C1332 1.386 . S
C1336 C1331 1.490 . S
C1336 C1338 1.395 . S
C1336 C1339 1.403 . S
H1337 C1343 0.930 . S
C1338 H1324 0.930 . S
C1338 C1336 1.395 . S
C1338 C1341 1.403 . S
C1339 C1336 1.403 . S
C1339 C1340 1.524 . S
C1339 C1343 1.400 . S
C1340 H1325 0.960 1_655 S
C1340 H1326 0.960 . S
C1340 H1327 0.960 . S
C1340 C1339 1.524 . S
C1341 C1338 1.403 . S
C1341 C1342 1.392 . S
C1341 C1345 1.495 . S
C1342 C1341 1.392 . S
C1342 C1343 1.385 . S
C1342 C1344 1.478 . S
C1343 H1337 0.930 . S
C1343 C1339 1.400 . S
C1343 C1342 1.385 . S
C1344 C1342 1.478 . S
C1344 C1346 1.381 . S
C1344 C1350 1.383 . S
C1345 C1341 1.495 . S
C1345 H1351 0.959 . S
C1345 H1352 0.961 . S
C1345 H1353 0.960 . S
C1346 C1344 1.381 . S
C1346 C1347 1.394 . S
C1346 H1354 0.963 . S
C1347 C1346 1.394 . S
C1347 C1348 1.383 . S
C1347 H1355 0.929 1_556 S
C1348 C1347 1.383 . S
C1348 C1349 1.377 . S
C1349 H1333 0.930 . S
C1349 C1348 1.377 . S
C1349 C1350 1.379 . S
C1350 H1334 0.931 . S
C1350 C1344 1.383 . S
C1350 C1349 1.379 . S
H1351 C1345 0.959 . S
H1352 C1345 0.961 . S
H1353 C1345 0.960 . S
H1354 C1346 0.963 . S
H1355 C1347 0.929 1_554 S
H1356 C1364 0.929 . S
H1357 C1366 0.930 . S
H1358 C1368 0.930 . S
H1359 C1371 0.929 . S
H1360 C1374 0.930 . S
H1361 C1376 0.960 . S
H1362 C1376 0.960 . S
H1363 C1376 0.960 . S
C1364 H1356 0.929 . S
C1364 C1365 1.377 . S
C1364 C1366 1.384 . S
C1365 C1364 1.377 . S
C1365 C1371 1.390 . S
C1366 H1357 0.930 . S
C1366 C1364 1.384 . S
C1366 C1367 1.372 . S
C1367 C1366 1.372 . S
C1367 C1368 1.400 . S
C1367 C1372 1.490 . S
C1368 H1358 0.930 . S
C1368 C1367 1.400 . S
C1368 C1371 1.386 . S
H1369 C1385 0.930 1_556 S
H1370 C1386 0.931 . S
C1371 H1359 0.929 . S
C1371 C1365 1.390 . S
C1371 C1368 1.386 . S
C1372 C1367 1.490 . S
C1372 C1374 1.395 . S
C1372 C1375 1.403 . S
H1373 C1379 0.930 . S
C1374 H1360 0.930 . S
C1374 C1372 1.395 . S
C1374 C1377 1.403 . S
C1375 C1372 1.403 . S
C1375 C1376 1.524 . S
C1375 C1379 1.400 . S
C1376 H1361 0.960 . S
C1376 H1362 0.960 . S
C1376 H1363 0.960 . S
C1376 C1375 1.524 . S
C1377 C1374 1.403 . S
C1377 C1378 1.392 . S
C1377 C1381 1.495 . S
C1378 C1377 1.392 . S
C1378 C1379 1.385 . S
C1378 C1380 1.478 . S
C1379 H1373 0.930 . S
C1379 C1375 1.400 . S
C1379 C1378 1.385 . S
C1380 C1378 1.478 . S
C1380 C1382 1.381 . S
C1380 C1386 1.383 . S
C1381 C1377 1.495 . S
C1381 H1387 0.959 . S
C1381 H1388 0.961 . S
C1381 H1389 0.960 . S
C1382 C1380 1.381 . S
C1382 C1383 1.394 . S
C1382 H1390 0.930 . S
C1383 C1382 1.394 . S
C1383 C1384 1.383 . S
C1383 H1391 0.929 . S
C1384 C1383 1.383 . S
C1384 C1385 1.377 . S
C1385 H1369 0.930 1_554 S
C1385 C1384 1.377 . S
C1385 C1386 1.379 . S
C1386 H1370 0.931 . S
C1386 C1380 1.383 . S
C1386 C1385 1.379 . S
H1387 C1381 0.959 . S
H1388 C1381 0.961 . S
H1389 C1381 0.960 . S
H1390 C1382 0.930 . S
H1391 C1383 0.929 . S
H1392 C1400 0.929 . S
H1393 C1402 0.930 . S
H1394 C1404 0.930 . S
H1395 C1407 0.929 . S
H1396 C1410 0.930 . S
H1397 C1412 0.960 . S
H1398 C1412 0.960 . S
H1399 C1412 0.960 . S
C1400 H1392 0.929 . S
C1400 C1401 1.377 . S
C1400 C1402 1.384 . S
C1401 C1400 1.377 . S
C1401 C1407 1.390 . S
C1402 H1393 0.930 . S
C1402 C1400 1.384 . S
C1402 C1403 1.372 . S
C1403 C1402 1.372 . S
C1403 C1404 1.400 . S
C1403 C1408 1.490 . S
C1404 H1394 0.930 . S
C1404 C1403 1.400 . S
C1404 C1407 1.386 . S
H1405 C1421 0.930 . S
H1406 C1422 0.931 . S
C1407 H1395 0.929 . S
C1407 C1401 1.390 . S
C1407 C1404 1.386 . S
C1408 C1403 1.490 . S
C1408 C1410 1.395 . S
C1408 C1411 1.403 . S
H1409 C1415 0.930 . S
C1410 H1396 0.930 . S
C1410 C1408 1.395 . S
C1410 C1413 1.403 . S
C1411 C1408 1.403 . S
C1411 C1412 1.524 . S
C1411 C1415 1.400 . S
C1412 H1397 0.960 . S
C1412 H1398 0.960 . S
C1412 H1399 0.960 . S
C1412 C1411 1.524 . S
C1413 C1410 1.403 . S
C1413 C1414 1.392 . S
C1413 C1417 1.495 1_455 S
C1414 C1413 1.392 . S
C1414 C1415 1.385 . S
C1414 C1416 1.478 . S
C1415 H1409 0.930 . S
C1415 C1411 1.400 . S
C1415 C1414 1.385 . S
C1416 C1414 1.478 . S
C1416 C1418 1.381 . S
C1416 C1422 1.383 . S
C1417 C1413 1.495 1_655 S
C1417 H1423 0.959 . S
C1417 H1424 0.961 . S
C1417 H1425 0.960 . S
C1418 C1416 1.381 . S
C1418 C1419 1.394 . S
C1418 H1426 0.907 1_455 S
C1419 C1418 1.394 . S
C1419 C1420 1.383 . S
C1419 H1427 0.929 1_455 S
C1420 C1419 1.383 . S
C1420 C1421 1.377 . S
C1421 H1405 0.930 . S
C1421 C1420 1.377 . S
C1421 C1422 1.379 . S
C1422 H1406 0.931 . S
C1422 C1416 1.383 . S
C1422 C1421 1.379 . S
H1423 C1417 0.959 . S
H1424 C1417 0.961 . S
H1425 C1417 0.960 . S
H1426 C1418 0.907 1_655 S
H1427 C1419 0.929 1_655 S
H1428 C1436 0.929 . S
H1429 C1438 0.930 . S
H1430 C1440 0.930 . S
H1431 C1443 0.929 . S
H1432 C1446 0.930 . S
H1433 C1448 0.960 . S
H1434 C1448 0.960 . S
H1435 C1448 0.960 . S
C1436 H1428 0.929 . S
C1436 C1437 1.377 . S
C1436 C1438 1.384 . S
C1437 C1436 1.377 . S
C1437 C1443 1.390 . S
C1438 H1429 0.930 . S
C1438 C1436 1.384 . S
C1438 C1439 1.372 . S
C1439 C1438 1.372 . S
C1439 C1440 1.400 . S
C1439 C1444 1.490 . S
C1440 H1430 0.930 . S
C1440 C1439 1.400 . S
C1440 C1443 1.386 . S
H1441 C1457 0.930 . S
H1442 C1458 0.931 . S
C1443 H1431 0.929 . S
C1443 C1437 1.390 . S
C1443 C1440 1.386 . S
C1444 C1439 1.490 . S
C1444 C1446 1.395 . S
C1444 C1447 1.403 . S
H1445 C1451 0.930 . S
C1446 H1432 0.930 . S
C1446 C1444 1.395 . S
C1446 C1449 1.403 . S
C1447 C1444 1.403 . S
C1447 C1448 1.524 . S
C1447 C1451 1.400 . S
C1448 H1433 0.960 . S
C1448 H1434 0.960 . S
C1448 H1435 0.960 . S
C1448 C1447 1.524 . S
C1449 C1446 1.403 . S
C1449 C1450 1.392 . S
C1449 C1453 1.495 . S
C1450 C1449 1.392 . S
C1450 C1451 1.385 . S
C1450 C1452 1.478 . S
C1451 H1445 0.930 . S
C1451 C1447 1.400 . S
C1451 C1450 1.385 . S
C1452 C1450 1.478 . S
C1452 C1454 1.381 . S
C1452 C1458 1.383 . S
C1453 C1449 1.495 . S
C1453 H1459 0.959 . S
C1453 H1460 0.961 . S
C1453 H1461 0.960 . S
C1454 C1452 1.381 . S
C1454 C1455 1.394 . S
C1454 H1462 0.930 . S
C1455 C1454 1.394 . S
C1455 C1456 1.383 . S
C1455 H1463 0.929 . S
C1456 C1455 1.383 . S
C1456 C1457 1.377 . S
C1457 H1441 0.930 . S
C1457 C1456 1.377 . S
C1457 C1458 1.379 . S
C1458 H1442 0.931 . S
C1458 C1452 1.383 . S
C1458 C1457 1.379 . S
H1459 C1453 0.959 . S
H1460 C1453 0.961 . S
H1461 C1453 0.960 . S
H1462 C1454 0.930 . S
H1463 C1455 0.929 . S
C609 C1 2.155 . S
C628 C496 2.178 . S
C645 C80 1.082 . S
C664 N516 1.049 . S
C700 C550 1.982 . S
C681 C140 1.924 . S
C717 C211 1.296 . S
C736 N584 1.280 . S
C772 C537 2.373 . S
C753 C31 2.355 . S
C808 N494 1.199 . S
C789 C61 1.169 . S
C844 C571 1.959 . S
C825 C151 1.900 . S
C880 N546 1.023 . S
C861 C200 0.982 . S
C897 C20 1.841 . S
C916 C586 1.853 . S
C952 C520 1.705 . S
C933 C121 1.643 . S
C969 C181 1.411 . S
C988 C481 1.476 . S
C1005 C91 1.407 . S
C1024 C567 1.457 . S
C1060 C507 2.183 . S
C1041 C260 2.170 . S
C1077 C320 1.082 . S
C1096 N524 1.083 . S
C1113 C361 1.969 . S
C1132 C541 1.975 . S
C1149 C451 1.292 . S
C1168 N576 1.306 . S
C1185 C271 2.354 . S
C1204 C526 2.370 . S
C1240 N486 1.190 . S
C1221 C301 1.155 . S
C1276 C580 1.959 . S
C1257 C380 1.934 . S
C1312 N554 0.983 . S
C1293 C440 0.991 . S
C1329 C241 1.828 . S
C1348 C597 1.852 . S
C1384 C511 1.698 . S
C1365 C391 1.686 . S
C1420 C490 1.469 . S
C1401 C421 1.412 . S
C1437 C331 1.419 . S
C1456 C556 1.464 . S
