# Generated by pormake.
# Topology zzz, (3,6)-cn, num edge types: 1
# Building blocks:
#     Node 0, Type 0, BuildingBlock: QEWDON_clean_linker_0, # of connection points: 3
#     Node 1, Type 0, BuildingBlock: QEWDON_clean_linker_0, # of connection points: 3
#     Node 2, Type 0, BuildingBlock: QEWDON_clean_linker_0, # of connection points: 3
#     Node 3, Type 0, BuildingBlock: QEWDON_clean_linker_0, # of connection points: 3
#     Node 4, Type 0, BuildingBlock: QEWDON_clean_linker_0, # of connection points: 3
#     Node 5, Type 0, BuildingBlock: QEWDON_clean_linker_0, # of connection points: 3
#     Node 6, Type 0, BuildingBlock: QEWDON_clean_linker_0, # of connection points: 3
#     Node 7, Type 0, BuildingBlock: QEWDON_clean_linker_0, # of connection points: 3
#     Node 8, Type 1, BuildingBlock: NUHQIS_clean_sbu_0, # of connection points: 6
#     Node 9, Type 1, BuildingBlock: NUHQIS_clean_sbu_0, # of connection points: 6
#     Node 10, Type 1, BuildingBlock: NUHQIS_clean_sbu_0, # of connection points: 6
#     Node 11, Type 1, BuildingBlock: NUHQIS_clean_sbu_0, # of connection points: 6
#     Edge 12, Type (0, 1), BuildingBlock: TEMPAE_clean_linker_10, # of connection points: 2
#     Edge 13, Type (0, 1), BuildingBlock: TEMPAE_clean_linker_10, # of connection points: 2
#     Edge 14, Type (0, 1), BuildingBlock: TEMPAE_clean_linker_10, # of connection points: 2
#     Edge 15, Type (0, 1), BuildingBlock: TEMPAE_clean_linker_10, # of connection points: 2
#     Edge 16, Type (0, 1), BuildingBlock: TEMPAE_clean_linker_10, # of connection points: 2
#     Edge 17, Type (0, 1), BuildingBlock: TEMPAE_clean_linker_10, # of connection points: 2
#     Edge 18, Type (0, 1), BuildingBlock: TEMPAE_clean_linker_10, # of connection points: 2
#     Edge 19, Type (0, 1), BuildingBlock: TEMPAE_clean_linker_10, # of connection points: 2
#     Edge 20, Type (0, 1), BuildingBlock: TEMPAE_clean_linker_10, # of connection points: 2
#     Edge 21, Type (0, 1), BuildingBlock: TEMPAE_clean_linker_10, # of connection points: 2
#     Edge 22, Type (0, 1), BuildingBlock: TEMPAE_clean_linker_10, # of connection points: 2
#     Edge 23, Type (0, 1), BuildingBlock: TEMPAE_clean_linker_10, # of connection points: 2
#     Edge 24, Type (0, 1), BuildingBlock: TEMPAE_clean_linker_10, # of connection points: 2
#     Edge 25, Type (0, 1), BuildingBlock: TEMPAE_clean_linker_10, # of connection points: 2
#     Edge 26, Type (0, 1), BuildingBlock: TEMPAE_clean_linker_10, # of connection points: 2
#     Edge 27, Type (0, 1), BuildingBlock: TEMPAE_clean_linker_10, # of connection points: 2
#     Edge 28, Type (0, 1), BuildingBlock: TEMPAE_clean_linker_10, # of connection points: 2
#     Edge 29, Type (0, 1), BuildingBlock: TEMPAE_clean_linker_10, # of connection points: 2
#     Edge 30, Type (0, 1), BuildingBlock: TEMPAE_clean_linker_10, # of connection points: 2
#     Edge 31, Type (0, 1), BuildingBlock: TEMPAE_clean_linker_10, # of connection points: 2
#     Edge 32, Type (0, 1), BuildingBlock: TEMPAE_clean_linker_10, # of connection points: 2
#     Edge 33, Type (0, 1), BuildingBlock: TEMPAE_clean_linker_10, # of connection points: 2
#     Edge 34, Type (0, 1), BuildingBlock: TEMPAE_clean_linker_10, # of connection points: 2
#     Edge 35, Type (0, 1), BuildingBlock: TEMPAE_clean_linker_10, # of connection points: 2
# Relax obj value: 0.157
# Max RMSD: 0.140
# Mean RMSD: 0.097
data_MOF--net-zzz--node1-NUHQIS_clean_sbu_0--node2-QEWDON_clean_linker_0--edge1-TEMPAE_clean_linker_10
_symmetry_space_group_name_H-M    P1
_symmetry_Int_Tables_number       1
_symmetry_cell_setting            triclinic
loop_
_symmetry_equiv_pos_as_xyz
'x, y, z'
_cell_length_a     56.811605
_cell_length_b     56.913727
_cell_length_c     13.624914
_cell_angle_alpha  89.951252
_cell_angle_beta   90.158965
_cell_angle_gamma 90.098936
loop_
_atom_site_label
_atom_site_type_symbol
_atom_site_fract_x
_atom_site_fract_y
_atom_site_fract_z
_atom_type_partial_charge
H0 H 0.75053 0.54433 0.25597 0.0
C1 C 0.76299 0.54015 0.31347 0.0
C2 C 0.78578 0.5494 0.30582 0.0
C3 C 0.75656 0.52578 0.39378 0.0
H4 H 0.81976 0.55229 0.37515 0.0
C5 C 0.80209 0.54525 0.38107 0.0
C6 C 0.79721 0.53014 0.45873 0.0
C7 C 0.77444 0.52005 0.46455 0.0
C8 C 0.73124 0.51759 0.40442 0.0
H9 H 0.77085 0.50794 0.52388 0.0
C10 C 0.71526 0.51597 0.32315 0.0
C11 C 0.69117 0.50996 0.33676 0.0
C12 C 0.72232 0.51275 0.49864 0.0
H13 H 0.73322 0.51446 0.56343 0.0
C14 C 0.69884 0.50645 0.51213 0.0
H15 H 0.72137 0.51902 0.24917 0.0
C16 C 0.68343 0.50519 0.43264 0.0
H17 H 0.66515 0.50099 0.44698 0.0
H18 H 0.69237 0.50301 0.58543 0.0
H19 H 0.03378 0.75947 0.20055 0.0
C20 C 0.02889 0.77158 0.25805 0.0
C21 C 0.03517 0.79522 0.24694 0.0
C22 C 0.01654 0.76388 0.34229 0.0
H23 H 0.03633 0.82933 0.31432 0.0
C24 C 0.03068 0.81118 0.32243 0.0
C25 C 0.01896 0.80449 0.40762 0.0
C26 C 1.01118 0.78096 0.41634 0.0
C27 C 1.01012 0.73812 0.35366 0.0
H28 H 1.00129 0.7762 0.48104 0.0
C29 C 1.0082 0.72247 0.2719 0.0
C30 C 1.00288 0.69831 0.28523 0.0
C31 C 1.00667 0.72862 0.44817 0.0
H32 H 1.00884 0.73917 0.51347 0.0
C33 C 1.00097 0.70498 0.46115 0.0
H34 H 1.0104 0.72881 0.1977 0.0
C35 C 0.99904 0.68999 0.38082 0.0
H36 H 0.99512 0.67162 0.39379 0.0
H37 H 0.9984 0.69812 0.53449 0.0
H38 H 0.76925 0.02573 0.19406 0.0
C39 C 0.75724 0.02535 0.25538 0.0
C40 C 0.73611 0.03755 0.24555 0.0
C41 C 0.76209 1.01208 0.3408 0.0
H42 H 0.70234 0.04484 0.30609 0.0
C43 C 0.71904 0.03616 0.31857 0.0
C44 C 0.72234 0.02269 0.40321 0.0
C45 C 0.74415 1.01085 0.41483 0.0
C46 C 0.78518 0.99878 0.34874 0.0
H47 H 0.74691 1.00103 0.48172 0.0
C48 C 0.80532 1.00466 0.29064 0.0
C49 C 0.82613 0.99089 0.29317 0.0
C50 C 0.78702 0.97918 0.41155 0.0
H51 H 0.77233 0.97319 0.45508 0.0
C52 C 0.80783 0.96632 0.41796 0.0
H53 H 0.80494 0.01964 0.24201 0.0
C54 C 0.82712 0.97203 0.35974 0.0
H55 H 0.84289 0.96151 0.36698 0.0
H56 H 0.80887 0.95147 0.46749 0.0
H57 H 0.4892 0.77626 0.19687 0.0
C58 C 0.49452 0.76277 0.24821 0.0
C59 C 0.49154 0.73937 0.22023 0.0
C60 C 0.50377 0.76851 0.34161 0.0
H61 H 0.4938 0.70329 0.2637 0.0
C62 C 0.49655 0.72135 0.28658 0.0
C63 C 0.50406 0.72588 0.3823 0.0
C64 C 0.50859 0.74959 0.40879 0.0
C65 C 0.50669 0.79418 0.36923 0.0
H66 H 0.51534 0.75308 0.48158 0.0
C67 C 0.50929 0.81232 0.29717 0.0
C68 C 0.50947 0.83644 0.32374 0.0
C69 C 0.50537 0.80101 0.46836 0.0
H70 H 0.50274 0.78828 0.52621 0.0
C71 C 0.50659 0.82463 0.4951 0.0
H72 H 0.51069 0.80794 0.22023 0.0
C73 C 0.50848 0.84214 0.42396 0.0
H74 H 0.50913 0.86029 0.44771 0.0
H75 H 0.50559 0.82946 0.57182 0.0
H76 H 0.27297 0.4944 0.2442 0.0
C77 C 0.26199 0.49491 0.1793 0.0
C78 C 0.24079 0.48222 0.18073 0.0
C79 C 0.26783 0.50975 0.0998 0.0
H80 H 0.20892 0.4743 0.10078 0.0
C81 C 0.22562 0.4835 0.09939 0.0
C82 C 0.22948 0.49933 0.02314 0.0
C83 C 0.25083 0.51221 0.02232 0.0
C84 C 0.29027 0.52432 0.10456 0.0
H85 H 0.2538 0.52405 0.96157 0.0
C86 C 0.31003 0.5179 0.16455 0.0
C87 C 0.3299 0.53295 0.17477 0.0
C88 C 0.29162 0.54577 0.05312 0.0
H89 H 0.27713 0.55218 0.00927 0.0
C90 C 0.31153 0.56003 0.05941 0.0
H91 H 0.30996 0.50154 0.20494 0.0
C92 C 0.33038 0.55379 0.11941 0.0
H93 H 0.34543 0.56546 0.12265 0.0
H94 H 0.31217 0.57636 0.01868 0.0
H95 H 0.05155 0.27485 0.24421 0.0
C96 C 0.04715 0.26242 0.18706 0.0
C97 C 0.05583 0.23948 0.19594 0.0
C98 C 0.03279 0.26895 0.10668 0.0
H99 H 0.05809 0.20551 0.12675 0.0
C100 C 0.05145 0.22328 0.12064 0.0
C101 C 0.03613 0.22831 0.04365 0.0
C102 C 0.02648 0.25115 0.03711 0.0
C103 C 0.0249 0.29421 0.09527 0.0
H104 H 1.01417 0.25482 0.97839 0.0
C105 C 0.02328 0.31008 0.17628 0.0
C106 C 0.01741 0.33409 0.16225 0.0
C107 C 0.02022 0.30313 1.00077 0.0
H108 H 0.02194 0.29224 0.9362 0.0
C109 C 1.01404 0.32659 0.98689 0.0
H110 H 0.02621 0.30395 0.25041 0.0
C111 C 1.01274 0.34192 0.06629 0.0
H112 H 1.0086 0.36017 0.05194 0.0
H113 H 1.01068 0.33307 0.91346 0.0
H114 H 0.25417 0.99211 0.28085 0.0
C115 C 0.26665 0.99761 0.22564 0.0
C116 C 0.2906 0.99353 0.24333 0.0
C117 C 0.25904 1.00817 0.13703 0.0
H118 H 0.32554 0.99453 0.18269 0.0
C119 C 0.30713 0.99874 0.17049 0.0
C120 C 0.30054 1.00873 0.0813 0.0
C121 C 0.27654 1.01414 0.06552 0.0
C122 C 0.23295 1.01136 0.11744 0.0
H123 H 0.27174 0.02252 0.99712 0.0
C124 C 0.21595 1.01287 0.19446 0.0
C125 C 0.19144 1.01367 0.17373 0.0
C126 C 0.22458 1.01146 0.01997 0.0
H127 H 0.23636 1.00952 0.95838 0.0
C128 C 0.20062 1.01329 0.99938 0.0
H129 H 0.22151 1.01299 0.27039 0.0
C130 C 0.18424 1.01433 0.07501 0.0
H131 H 0.16577 0.01559 0.05587 0.0
H132 H 0.19465 1.01346 0.92386 0.0
H133 H 0.53687 0.25812 0.26766 0.0
C134 C 0.53193 0.27073 0.2119 0.0
C135 C 0.53733 0.29443 0.2281 0.0
C136 C 0.52052 0.26354 0.12444 0.0
H137 H 0.53778 0.32926 0.16672 0.0
C138 C 0.53274 0.31106 0.15491 0.0
C139 C 0.52188 0.3049 0.06689 0.0
C140 C 0.51509 0.28121 0.05268 0.0
C141 C 0.51532 0.23771 0.10698 0.0
H142 H 0.50594 0.27679 0.98551 0.0
C143 C 0.51292 0.22109 0.18521 0.0
C144 C 0.5087 0.19693 0.16603 0.0
C145 C 0.51361 0.22918 0.0101 0.0
H146 H 0.51626 0.24056 0.94756 0.0
C147 C 0.50909 0.20553 0.99129 0.0
H148 H 0.51386 0.22671 0.2609 0.0
C149 C 0.5066 0.18958 0.06812 0.0
H150 H 0.50355 0.17125 0.05074 0.0
H151 H 0.50785 0.19942 0.91621 0.0
Tb152 Tb 0.02776 1.00654 0.84723 0.0
Eu153 Eu 0.99685 0.02067 0.65596 0.0
C154 C 0.0523 0.01681 0.64581 0.0
C155 C 0.01599 0.06106 0.80572 0.0
C156 C 0.07014 0.97338 0.99422 0.0
C157 C 0.09336 0.94263 0.91719 0.0
C158 C 0.08242 0.96461 0.91266 0.0
C159 C 0.07018 0.96064 0.08184 0.0
C160 C 0.08076 0.93858 0.08607 0.0
C161 C 0.09179 0.92885 0.00272 0.0
C162 C 0.05446 0.99378 0.98492 0.0
O163 O 0.99274 1.01465 0.9056 0.0
O164 O 0.97054 1.00767 0.76793 0.0
O165 O 1.00487 0.98221 0.63503 0.0
O166 O 1.01516 0.97231 0.79267 0.0
C167 C 0.97221 1.01052 0.86354 0.0
O168 O 0.96819 0.03998 0.58564 0.0
O169 O 0.99055 0.01749 0.49835 0.0
O170 O 0.03461 0.03064 0.62453 0.0
O171 O 0.05026 1.00175 0.71829 0.0
O172 O 0.02874 0.04524 0.85259 0.0
O173 O 1.00158 0.0552 0.73437 0.0
C174 C 1.0096 0.96628 0.70202 0.0
O175 O 0.0603 1.0095 0.91966 0.0
O176 O 0.0321 0.98868 0.98088 0.0
C177 C 0.98515 0.05657 0.4457 0.0
C178 C 1.00641 0.1005 0.41589 0.0
C179 C 0.98195 0.09892 0.42821 0.0
C180 C 0.97136 0.07702 0.44353 0.0
C181 C 1.00929 0.0582 0.42296 0.0
C182 C 0.01985 0.08002 0.40934 0.0
C183 C 0.97651 0.03564 0.49826 0.0
H184 H 0.10201 0.93602 0.85217 0.0
H185 H 0.08259 0.97415 0.84387 0.0
H186 H 0.0607 0.96705 0.14529 0.0
H187 H 0.07863 0.92857 0.15301 0.0
H188 H 0.97133 0.11468 0.43229 0.0
H189 H 0.95282 0.07627 0.46172 0.0
H190 H 0.0205 0.04284 0.42371 0.0
H191 H 0.0387 0.08098 0.39787 0.0
Tb192 Tb 0.51642 0.03128 0.82141 0.0
Eu193 Eu 0.5027 0.99792 0.63721 0.0
C194 C 0.50777 0.05294 0.61182 0.0
C195 C 0.46295 0.01794 0.78602 0.0
C196 C 0.55318 0.06774 0.97599 0.0
C197 C 0.58032 0.09796 0.03171 0.0
C198 C 0.55726 0.08943 0.02196 0.0
C199 C 0.57222 0.05475 0.94017 0.0
C200 C 0.59499 0.06349 0.94727 0.0
C201 C 0.59922 0.08517 0.99255 0.0
C202 C 0.52927 0.05961 0.95393 0.0
O203 O 0.52472 0.99543 0.87123 0.0
O204 O 0.49834 0.97606 0.77435 0.0
O205 O 0.54251 0.99698 0.63774 0.0
O206 O 0.55003 0.02763 0.74338 0.0
C207 C 0.51203 0.97659 0.85196 0.0
O208 O 0.50441 0.96372 0.56559 0.0
O209 O 0.48429 0.99196 0.49894 0.0
O210 O 0.51352 0.03282 0.57186 0.0
O211 O 0.50164 0.05358 0.70478 0.0
O212 O 0.47967 0.02216 0.85088 0.0
O213 O 0.46811 1.0126 0.69447 0.0
C214 C 0.55721 1.01179 0.67964 0.0
O215 O 0.52167 0.06604 0.86809 0.0
O216 O 0.52515 0.0374 0.96954 0.0
C217 C 0.46793 0.95424 0.4917 0.0
C218 C 0.42257 0.93404 0.48713 0.0
C219 C 0.43674 0.932 0.57152 0.0
C220 C 0.45915 0.9422 0.5741 0.0
C221 C 0.4547 0.95464 0.40518 0.0
C222 C 0.43225 0.94477 0.40288 0.0
C223 C 0.48878 0.96946 0.4994 0.0
H224 H 0.58342 0.11446 0.06925 0.0
H225 H 0.54269 0.09974 0.04951 0.0
H226 H 0.56943 0.03783 0.90617 0.0
H227 H 0.60944 0.05298 0.91984 0.0
H228 H 0.43013 0.92358 0.63718 0.0
H229 H 0.46905 0.94174 0.64216 0.0
H230 H 0.46109 0.96398 0.34117 0.0
H231 H 0.42194 0.94724 0.33677 0.0
Tb232 Tb 0.49984 0.52121 0.81454 0.0
Eu233 Eu 0.53279 0.50786 0.62857 0.0
C234 C 0.47719 0.51458 0.60204 0.0
C235 C 0.51271 0.46786 0.77589 0.0
C236 C 0.45945 0.55532 0.9675 0.0
C237 C 0.43743 0.58821 0.89942 0.0
C238 C 0.44622 0.56534 0.89081 0.0
C239 C 0.46262 0.56793 0.05449 0.0
C240 C 0.45434 0.59086 0.06239 0.0
C241 C 0.44217 0.60167 0.98394 0.0
C242 C 0.47323 0.53374 0.95299 0.0
O243 O 0.5361 0.52692 0.86658 0.0
O244 O 0.55543 0.50214 0.76316 0.0
O245 O 0.53387 0.54765 0.63417 0.0
O246 O 0.50184 0.55435 0.73284 0.0
C247 C 0.55486 0.51448 0.84434 0.0
O248 O 0.56694 0.50984 0.55608 0.0
O249 O 0.53833 0.49037 0.48837 0.0
O250 O 0.49783 0.51823 0.56155 0.0
O251 O 0.47554 0.51039 0.69688 0.0
O252 O 0.50897 0.48439 0.84162 0.0
O253 O 0.51775 0.47327 0.6843 0.0
C254 C 0.51815 0.56196 0.67199 0.0
O255 O 0.46664 0.5197 0.88273 0.0
O256 O 0.49589 0.53693 0.95267 0.0
C257 C 0.57594 0.47395 0.47718 0.0
C258 C 0.59548 0.42848 0.46705 0.0
C259 C 0.59849 0.44227 0.55185 0.0
C260 C 0.5886 0.46473 0.55723 0.0
C261 C 0.57469 0.46115 0.38989 0.0
C262 C 0.58419 0.43864 0.38491 0.0
C263 C 0.5609 0.49476 0.48832 0.0
H264 H 0.42777 0.59559 0.8382 0.0
H265 H 0.44362 0.55598 0.82243 0.0
H266 H 0.47297 0.56062 0.11407 0.0
H267 H 0.45902 0.60048 0.12805 0.0
H268 H 0.60742 0.43533 0.61584 0.0
H269 H 0.58978 0.47429 0.62579 0.0
H270 H 0.56489 0.4679 0.3276 0.0
H271 H 0.58099 0.42868 0.31857 0.0
Tb272 Tb 1.00777 0.50134 0.82619 0.0
Eu273 Eu 0.01947 0.53029 0.62913 0.0
C274 C 0.01975 0.47364 0.62928 0.0
C275 C 0.06123 0.51038 0.77395 0.0
C276 C 0.9727 0.49345 0.03514 0.0
C277 C 0.9314 0.48928 0.07642 0.0
C278 C 0.95333 0.47915 0.05764 0.0
C279 C 0.97019 0.51804 0.03886 0.0
C280 C 0.94831 0.5281 0.05648 0.0
C281 C 0.92859 0.5138 0.07183 0.0
C282 C 0.99277 0.48347 0.98172 0.0
O283 O 1.01529 0.53749 0.87234 0.0
O284 O 1.00523 0.55759 0.73387 0.0
O285 O 0.98114 0.5202 0.61441 0.0
O286 O 0.97388 0.51624 0.77786 0.0
C287 C 1.00924 0.55719 0.82875 0.0
O288 O 0.0384 0.55857 0.55492 0.0
O289 O 1.01473 0.53631 0.47201 0.0
O290 O 0.02935 0.49282 0.59366 0.0
O291 O 1.00809 0.47402 0.71261 0.0
O292 O 0.04595 0.49615 0.81624 0.0
O293 O 0.05435 0.52644 0.71038 0.0
C294 C 0.96616 0.51822 0.68704 0.0
O295 O 0.9872 0.47549 0.89519 0.0
O296 O 1.01175 0.49636 0.97855 0.0
C297 C 0.05309 0.54202 0.4109 0.0
C298 C 0.09684 0.52117 0.37484 0.0
C299 C 0.09524 0.5456 0.38658 0.0
C300 C 0.07342 0.556 0.40489 0.0
C301 C 0.05458 0.51796 0.38743 0.0
C302 C 0.07636 0.50757 0.37087 0.0
C303 C 0.03286 0.55041 0.46834 0.0
H304 H 0.91635 0.47792 0.08847 0.0
H305 H 0.95474 0.46019 0.05331 0.0
H306 H 0.98472 0.52959 0.02095 0.0
H307 H 0.94661 0.54706 0.05442 0.0
H308 H 0.111 0.55634 0.38881 0.0
H309 H 0.07276 0.57451 0.4232 0.0
H310 H 0.03924 0.50668 0.39051 0.0
H311 H 0.07733 0.48874 0.35997 0.0
C312 C 0.1525 0.99946 0.23987 0.0
C313 C 0.1729 1.01321 0.25261 0.0
C314 C 0.13375 1.00013 0.30725 0.0
C315 C 0.13523 1.01483 0.39097 0.0
C316 C 0.15605 0.02822 0.4062 0.0
C317 C 0.17461 0.02723 0.33717 0.0
C318 C 0.11211 0.98539 0.28746 0.0
C319 C 0.15849 0.04407 0.49435 0.0
C320 C 0.07646 0.0331 0.50572 0.0
C321 C 0.07411 0.01714 0.58392 0.0
C322 C 0.09642 0.03291 0.44418 0.0
C323 C 0.11471 0.01641 0.46074 0.0
C324 C 0.11268 1.0006 0.54087 0.0
C325 C 0.0925 1.00115 0.60115 0.0
C326 C 0.09766 0.0501 0.35995 0.0
C327 C 0.13162 0.9827 0.56174 0.0
H328 H 0.15106 0.98818 0.17607 0.0
H329 H 0.19014 0.03802 0.34786 0.0
H330 H 0.10831 0.97394 0.35142 0.0
H331 H 0.09663 0.99698 0.27667 0.0
H332 H 0.11407 0.97416 0.22134 0.0
H333 H 0.17612 0.0525 0.49848 0.0
H334 H 0.14491 0.05804 0.49124 0.0
H335 H 0.15549 0.03392 0.56276 0.0
H336 H 0.06256 0.04567 0.49173 0.0
H337 H 0.09103 0.98874 0.66121 0.0
H338 H 0.09771 0.04041 0.28933 0.0
H339 H 0.11429 0.06031 0.36383 0.0
H340 H 0.08262 0.06256 0.35957 0.0
H341 H 0.13289 0.97024 0.49942 0.0
H342 H 0.12811 0.97254 0.62982 0.0
H343 H 0.14896 0.99152 0.56899 0.0
C344 C 0.52542 0.17537 0.31302 0.0
C345 C 0.50701 0.17871 0.24554 0.0
C346 C 0.52573 0.15575 0.37694 0.0
C347 C 0.50701 0.13915 0.37464 0.0
C348 C 0.48789 0.14311 0.30964 0.0
C349 C 0.48821 0.16262 0.24576 0.0
C350 C 0.5466 0.15225 0.444 0.0
C351 C 0.46733 0.1263 0.30525 0.0
C352 C 0.51715 0.07535 0.45616 0.0
C353 C 0.50762 0.07503 0.55131 0.0
C354 C 0.51745 0.09608 0.39901 0.0
C355 C 0.50776 0.11718 0.43686 0.0
C356 C 0.49813 0.11698 0.53285 0.0
C357 C 0.49829 0.09606 0.58882 0.0
C358 C 0.52811 0.09536 0.29764 0.0
C359 C 0.48737 0.13885 0.57617 0.0
H360 H 0.54016 0.18749 0.31253 0.0
H361 H 0.47389 0.16504 0.19399 0.0
H362 H 0.54065 0.14974 0.52077 0.0
H363 H 0.55618 0.13609 0.42233 0.0
H364 H 0.55904 0.16732 0.44158 0.0
H365 H 0.45307 0.13268 0.25609 0.0
H366 H 0.47337 0.10895 0.27823 0.0
H367 H 0.45996 0.12357 0.37973 0.0
H368 H 0.52457 0.05937 0.42626 0.0
H369 H 0.49089 0.09617 0.66203 0.0
H370 H 0.54218 0.10882 0.2913 0.0
H371 H 0.51451 0.09961 0.24184 0.0
H372 H 0.53571 0.0779 0.27999 0.0
H373 H 0.50049 0.1533 0.5771 0.0
H374 H 0.48091 0.136 0.65215 0.0
H375 H 0.4724 0.14474 0.52983 0.0
C376 C 0.35993 0.54638 0.29989 0.0
C377 C 0.35008 0.52798 0.24414 0.0
C378 C 0.38016 0.54314 0.35847 0.0
C379 C 0.39109 0.52081 0.36315 0.0
C380 C 0.38088 0.5019 0.30964 0.0
C381 C 0.36055 0.50567 0.25111 0.0
C382 C 0.39009 0.56386 0.41415 0.0
C383 C 0.39179 0.47777 0.31244 0.0
C384 C 0.45631 0.52051 0.43908 0.0
C385 C 0.45526 0.51507 0.53974 0.0
C386 C 0.43576 0.52183 0.38056 0.0
C387 C 0.41334 0.51758 0.42293 0.0
C388 C 0.41219 0.5117 0.52406 0.0
C389 C 0.43301 0.51056 0.58091 0.0
C390 C 0.43803 0.52835 0.27355 0.0
C391 C 0.38883 0.50705 0.57297 0.0
H392 H 0.35185 0.56361 0.29714 0.0
H393 H 0.3533 0.49132 0.2084 0.0
H394 H 0.39123 0.55967 0.49356 0.0
H395 H 0.40821 0.56767 0.38848 0.0
H396 H 0.37927 0.57995 0.40483 0.0
H397 H 0.38129 0.46466 0.27063 0.0
H398 H 0.40978 0.47851 0.28106 0.0
H399 H 0.39352 0.47168 0.38949 0.0
H400 H 0.47326 0.52408 0.40586 0.0
H401 H 0.43178 0.50633 0.65829 0.0
H402 H 0.42966 0.54567 0.26036 0.0
H403 H 0.42869 0.51532 0.22701 0.0
H404 H 0.45669 0.52935 0.24966 0.0
H405 H 0.37796 0.52322 0.5713 0.0
H406 H 0.3909 0.50137 0.65054 0.0
H407 H 0.379 0.49327 0.53235 0.0
C408 C 0.03484 0.3525 0.31595 0.0
C409 C 0.01684 0.35159 0.2451 0.0
C410 C 0.03601 0.37093 0.38551 0.0
C411 C 0.01877 0.38897 0.38476 0.0
C412 C 1.00004 0.38756 0.31604 0.0
C413 C 0.99928 0.36899 0.24778 0.0
C414 C 0.05622 0.37155 0.45753 0.0
C415 C 0.98115 0.40618 0.31221 0.0
C416 C 1.00963 0.43071 0.60263 0.0
C417 C 0.0211 0.45128 0.571 0.0
C418 C 1.00937 0.41013 0.54463 0.0
C419 C 0.02074 0.40994 0.45203 0.0
C420 C 0.03288 0.43043 0.42099 0.0
C421 C 0.03298 0.45068 0.48064 0.0
C422 C 0.99635 0.38874 0.58141 0.0
C423 C 0.04525 0.43124 0.3231 0.0
H424 H 0.04861 0.33935 0.31448 0.0
H425 H 0.98504 0.36834 0.19473 0.0
H426 H 0.0677 0.38685 0.44133 0.0
H427 H 0.04953 0.37379 0.53338 0.0
H428 H 0.06705 0.35533 0.45452 0.0
H429 H 0.96717 0.40201 0.25777 0.0
H430 H 0.97291 0.40821 0.38541 0.0
H431 H 0.98912 0.42336 0.29253 0.0
H432 H 1.00042 0.43077 0.67217 0.0
H433 H 0.04209 0.46625 0.45525 0.0
H434 H 1.00792 0.37307 0.57859 0.0
H435 H 0.981 0.38515 0.53317 0.0
H436 H 0.98997 0.391 0.65781 0.0
H437 H 0.05797 0.41654 0.31746 0.0
H438 H 0.05482 0.44804 0.31142 0.0
H439 H 0.0322 0.42902 0.26305 0.0
C440 C 0.85421 0.01814 0.20119 0.0
C441 C 0.84671 0.9953 0.22552 0.0
C442 C 0.87416 0.02199 0.14115 0.0
C443 C 0.88717 1.0026 0.10463 0.0
C444 C 0.87948 0.97957 0.12774 0.0
C445 C 0.8594 0.97624 0.18659 0.0
C446 C 0.88148 0.04685 0.11764 0.0
C447 C 0.89265 0.95829 0.09102 0.0
C448 C 0.92796 1.00797 0.88174 0.0
C449 C 0.95039 1.00931 0.92536 0.0
C450 C 0.90731 1.00652 0.9389 0.0
C451 C 0.9089 1.00614 0.04283 0.0
C452 C 0.93146 1.00777 0.08737 0.0
C453 C 0.95181 1.00943 0.02843 0.0
C454 C 0.88374 1.00505 0.88782 0.0
C455 C 0.93416 1.00724 0.1976 0.0
H456 H 0.84481 0.03308 0.23074 0.0
H457 H 0.85361 0.95847 0.20201 0.0
H458 H 0.89926 0.05034 0.14822 0.0
H459 H 0.88258 0.04927 0.03697 0.0
H460 H 0.86904 0.06002 0.14784 0.0
H461 H 0.88457 0.94154 0.11602 0.0
H462 H 0.89308 0.95835 0.00964 0.0
H463 H 0.91116 0.95889 0.11716 0.0
H464 H 0.92648 1.00802 0.80243 0.0
H465 H 0.96893 1.01046 0.06346 0.0
H466 H 0.87183 0.01892 0.91588 0.0
H467 H 0.87535 0.98786 0.90386 0.0
H468 H 0.88529 1.007 0.80696 0.0
H469 H 0.92331 0.02122 0.23145 0.0
H470 H 0.95274 1.00966 0.22126 0.0
H471 H 0.92771 0.99017 0.22643 0.0
C472 C 0.49537 0.87582 0.2615 0.0
C473 C 0.50984 0.856 0.24895 0.0
C474 C 0.49613 0.89507 0.19638 0.0
C475 C 0.51183 0.89485 0.11572 0.0
C476 C 0.52629 0.87478 0.10157 0.0
C477 C 0.52505 0.85562 0.1678 0.0
C478 C 0.48013 0.91578 0.2146 0.0
C479 C 0.54333 0.87368 0.01697 0.0
C480 C 0.49796 0.93608 0.90032 0.0
C481 C 0.51267 0.95552 0.91868 0.0
C482 C 0.49779 0.91624 0.96257 0.0
C483 C 0.51277 0.91549 0.04593 0.0
C484 C 0.52788 0.93491 0.06441 0.0
C485 C 0.52762 0.95463 1.00103 0.0
C486 C 0.48119 0.89621 0.93989 0.0
C487 C 0.54419 0.93498 0.15198 0.0
H488 H 0.48324 0.87628 0.32274 0.0
H489 H 0.53645 0.84058 0.15739 0.0
H490 H 0.49084 0.93165 0.23048 0.0
H491 H 0.46947 0.91959 0.14813 0.0
H492 H 0.46801 0.91271 0.27716 0.0
H493 H 0.55331 0.85692 0.01549 0.0
H494 H 0.53371 0.87563 0.94648 0.0
H495 H 0.55602 0.88848 0.022 0.0
H496 H 0.48628 0.93638 0.83733 0.0
H497 H 0.5391 0.96941 0.01634 0.0
H498 H 0.46852 0.89397 1.00103 0.0
H499 H 0.49116 0.87955 0.93325 0.0
H500 H 0.47113 0.89911 0.8709 0.0
H501 H 0.53375 0.93433 0.22062 0.0
H502 H 0.55564 0.95082 0.15399 0.0
H503 H 0.55551 0.91911 0.15089 0.0
C504 C 0.65571 0.49206 0.25182 0.0
C505 C 0.67348 0.50935 0.25378 0.0
C506 C 0.63713 0.49275 0.18294 0.0
C507 C 0.63607 0.5111 0.11261 0.0
C508 C 0.6544 0.52813 0.1116 0.0
C509 C 0.67281 0.52705 0.18179 0.0
C510 C 0.61825 0.47406 0.18721 0.0
C511 C 0.65418 0.54795 0.03806 0.0
C512 C 0.59644 0.50194 0.88664 0.0
C513 C 0.57583 0.51418 0.91215 0.0
C514 C 0.61616 0.50109 0.95001 0.0
C515 C 0.61551 0.51268 0.04212 0.0
C516 C 0.59483 0.52517 0.06813 0.0
C517 C 0.57537 0.5258 0.00317 0.0
C518 C 0.63766 0.48752 0.91863 0.0
C519 C 0.59311 0.53765 0.16552 0.0
H520 H 0.65611 0.47803 0.3056 0.0
H521 H 0.6862 0.54064 0.18258 0.0
H522 H 0.60102 0.48226 0.20384 0.0
H523 H 0.61653 0.46526 0.11492 0.0
H524 H 0.62198 0.46051 0.24388 0.0
H525 H 0.67023 0.55907 0.04306 0.0
H526 H 0.65277 0.54086 0.96245 0.0
H527 H 0.63853 0.55919 0.0505 0.0
H528 H 0.59719 0.49287 0.81683 0.0
H529 H 0.55966 0.53528 0.02435 0.0
H530 H 0.64098 0.47293 0.97087 0.0
H531 H 0.65338 0.4991 0.92015 0.0
H532 H 0.63576 0.48006 0.84369 0.0
H533 H 0.59466 0.52474 0.22623 0.0
H534 H 0.57624 0.54728 0.17376 0.0
H535 H 0.60785 0.55032 0.17359 0.0
C536 C 0.0214 0.67824 0.13914 0.0
C537 C 1.00207 0.68107 0.20195 0.0
C538 C 0.02247 0.65931 0.07208 0.0
C539 C 1.00361 0.64293 0.06631 0.0
C540 C 0.98352 0.64652 0.12596 0.0
C541 C 0.98309 0.66533 0.19323 0.0
C542 C 0.04434 0.65616 0.01098 0.0
C543 C 0.9628 0.62991 0.12165 0.0
C544 C 0.99915 0.60035 0.84801 0.0
C545 C 1.00791 0.57934 0.88823 0.0
C546 C 0.99775 0.62115 0.90446 0.0
C547 C 1.0055 0.62118 0.00361 0.0
C548 C 1.01454 0.60006 0.0442 0.0
C549 C 1.0155 0.57952 0.98658 0.0
C550 C 0.98768 0.64306 0.85828 0.0
C551 C 0.02317 0.59911 0.14907 0.0
H552 H 0.03625 0.69011 0.14609 0.0
H553 H 0.96804 0.66741 0.2412 0.0
H554 H 0.05364 0.63996 0.03446 0.0
H555 H 0.03961 0.65395 0.93249 0.0
H556 H 0.05664 0.67127 0.01803 0.0
H557 H 0.94767 0.63629 0.16566 0.0
H558 H 0.95693 0.62749 0.04458 0.0
H559 H 0.9681 0.61242 0.14997 0.0
H560 H 0.99315 0.60053 0.77245 0.0
H561 H 0.02236 0.56352 0.01894 0.0
H562 H 1.00066 0.6576 0.86256 0.0
H563 H 0.97184 0.64872 0.8994 0.0
H564 H 0.98272 0.64035 0.78017 0.0
H565 H 0.03699 0.61262 0.161 0.0
H566 H 0.03049 0.58164 0.16881 0.0
H567 H 1.00849 0.60314 0.19983 0.0
C568 C 0.08037 0.21154 0.29001 0.0
C569 C 0.06392 0.2299 0.29152 0.0
C570 C 0.07538 0.19054 0.33962 0.0
C571 C 0.05493 0.18932 0.39851 0.0
C572 C 0.04304 0.21029 0.42347 0.0
C573 C 0.04772 0.23068 0.36895 0.0
C574 C 0.08918 0.16884 0.31319 0.0
C575 C 0.02233 0.21009 0.49238 0.0
C576 C 1.01393 0.13888 0.33692 0.0
C577 C 0.01822 0.12344 0.41417 0.0
C578 C 0.02579 0.16037 0.33145 0.0
C579 C 0.04214 0.16664 0.40636 0.0
C580 C 0.04627 0.1511 0.48554 0.0
C581 C 0.03428 0.12952 0.48824 0.0
C582 C 0.02151 0.17564 0.24251 0.0
C583 C 0.0631 0.15724 0.56747 0.0
H584 H 0.09385 0.21155 0.23375 0.0
H585 H 0.03572 0.24541 0.37471 0.0
H586 H 0.09011 0.15632 0.37543 0.0
H587 H 0.08027 0.15982 0.25108 0.0
H588 H 0.10734 0.1734 0.28981 0.0
H589 H 0.01904 0.22787 0.523 0.0
H590 H 1.00636 0.20446 0.45154 0.0
H591 H 0.02519 0.19755 0.55362 0.0
H592 H 1.00171 0.13381 0.27935 0.0
H593 H 0.03734 0.11741 0.54843 0.0
H594 H 0.03701 0.17442 0.19358 0.0
H595 H 0.01905 0.1943 0.26318 0.0
H596 H 1.00579 0.16993 0.20004 0.0
H597 H 0.07957 0.16507 0.53863 0.0
H598 H 0.06766 0.14162 0.61255 0.0
H599 H 0.05485 0.17056 0.61567 0.0
C600 C 0.29196 0.96002 0.3626 0.0
C601 C 0.29938 0.98255 0.33476 0.0
C602 C 0.30635 0.94596 0.42283 0.0
C603 C 0.32885 0.95442 0.4509 0.0
C604 C 0.33462 0.97839 0.43441 0.0
C605 C 0.31934 0.99232 0.37913 0.0
C606 C 0.29822 0.92146 0.44777 0.0
C607 C 0.35839 0.98854 0.46153 0.0
C608 C 0.38344 0.9342 0.57389 0.0
C609 C 0.39683 0.92885 0.49001 0.0
C610 C 0.35907 0.93796 0.56631 0.0
C611 C 0.34849 0.93795 0.47238 0.0
C612 C 0.36098 0.92838 0.39191 0.0
C613 C 0.38492 0.92321 0.40287 0.0
C614 C 0.34537 0.94476 0.65649 0.0
C615 C 0.35015 0.92674 0.29074 0.0
H616 H 0.27612 0.95261 0.33051 0.0
H617 H 0.32457 1.01006 0.35966 0.0
H618 H 0.30957 0.91289 0.50373 0.0
H619 H 0.27989 0.92206 0.47576 0.0
H620 H 0.29792 0.91053 0.38037 0.0
H621 H 0.35957 1.00769 0.44632 0.0
H622 H 0.3621 0.98577 0.54037 0.0
H623 H 0.3724 0.97955 0.41916 0.0
H624 H 0.39203 0.93771 0.64341 0.0
H625 H 0.39483 0.91732 0.33967 0.0
H626 H 0.32636 0.94067 0.64771 0.0
H627 H 0.34723 0.96388 0.67004 0.0
H628 H 0.35227 0.93543 0.72213 0.0
H629 H 0.33372 0.91625 0.29363 0.0
H630 H 0.36217 0.91845 0.23678 0.0
H631 H 0.34557 0.94457 0.26367 0.0
C632 C 0.53785 0.32232 0.36571 0.0
C633 C 0.54828 0.30303 0.31972 0.0
C634 C 0.55146 0.33822 0.41943 0.0
C635 C 0.57586 0.3338 0.43228 0.0
C636 C 0.58523 0.31185 0.40279 0.0
C637 C 0.5714 0.29682 0.34424 0.0
C638 C 0.54035 0.36133 0.44834 0.0
C639 C 0.61037 0.30512 0.42405 0.0
C640 C 0.60496 0.39107 0.37929 0.0
C641 C 0.60033 0.40271 0.4678 0.0
C642 C 0.59987 0.36714 0.36872 0.0
C643 C 0.59152 0.35429 0.45081 0.0
C644 C 0.59222 0.36475 0.54479 0.0
C645 C 0.59585 0.38911 0.55213 0.0
C646 C 0.60042 0.35659 0.26697 0.0
C647 C 0.58655 0.35088 0.63609 0.0
H648 H 0.51973 0.32668 0.34808 0.0
H649 H 0.57936 0.28154 0.31049 0.0
H650 H 0.54373 0.36512 0.52666 0.0
H651 H 0.54818 0.37582 0.4046 0.0
H652 H 0.521 0.36145 0.43633 0.0
H653 H 0.62084 0.30606 0.35554 0.0
H654 H 0.61863 0.31656 0.48045 0.0
H655 H 0.61108 0.28661 0.4498 0.0
H656 H 0.61013 0.40115 0.31533 0.0
H657 H 0.59303 0.39749 0.62242 0.0
H658 H 0.58239 0.35132 0.24416 0.0
H659 H 0.61157 0.34065 0.26678 0.0
H660 H 0.60745 0.36903 0.21134 0.0
H661 H 0.56769 0.35297 0.65465 0.0
H662 H 0.59695 0.35752 0.69945 0.0
H663 H 0.59024 0.33188 0.62602 0.0
C664 C 0.21422 0.45498 0.26996 0.0
C665 C 0.23062 0.47344 0.27435 0.0
C666 C 0.19232 0.45748 0.31591 0.0
C667 C 0.18825 0.47765 0.37409 0.0
C668 C 0.20756 0.49182 0.40279 0.0
C669 C 0.22884 0.48957 0.35183 0.0
C670 C 0.17256 0.44132 0.28543 0.0
C671 C 0.20442 0.51247 0.47069 0.0
C672 C 0.13569 0.5143 0.29879 0.0
C673 C 0.11991 0.50961 0.37428 0.0
C674 C 0.15782 0.50363 0.29751 0.0
C675 C 0.16438 0.48817 0.375 0.0
C676 C 0.14836 0.48341 0.45173 0.0
C677 C 0.12614 0.49413 0.45008 0.0
C678 C 0.17379 0.50859 0.21145 0.0
C679 C 0.15473 0.46732 0.53573 0.0
H680 H 0.2163 0.44152 0.21433 0.0
H681 H 0.24204 0.50319 0.36045 0.0
H682 H 0.16423 0.44836 0.21772 0.0
H683 H 0.1793 0.42345 0.26876 0.0
H684 H 0.1588 0.43997 0.34264 0.0
H685 H 0.19798 0.52776 0.42772 0.0
H686 H 0.19132 0.50858 0.52864 0.0
H687 H 0.22137 0.51749 0.50581 0.0
H688 H 0.13053 0.52613 0.2401 0.0
H689 H 0.11374 0.49078 0.50888 0.0
H690 H 0.17531 0.49245 0.16649 0.0
H691 H 0.19165 0.51371 0.23642 0.0
H692 H 0.16693 0.52285 0.16365 0.0
H693 H 0.16102 0.45016 0.50783 0.0
H694 H 0.13961 0.46419 0.58557 0.0
H695 H 0.16939 0.4751 0.57871 0.0
C696 C 0.06934 0.79778 0.13174 0.0
C697 C 0.04646 0.80447 0.15739 0.0
C698 C 0.08333 0.81265 0.07332 0.0
C699 C 0.07437 0.83487 0.04477 0.0
C700 C 0.0502 0.83998 0.05992 0.0
C701 C 0.03642 0.82429 0.11365 0.0
C702 C 0.10819 0.80528 0.0505 0.0
C703 C 0.03955 0.86346 0.03267 0.0
C704 C 0.10378 0.89205 0.09011 0.0
C705 C 0.09784 0.90334 1.00194 0.0
C706 C 0.09945 0.86801 0.10245 0.0
C707 C 0.09038 0.85486 0.02254 0.0
C708 C 0.09013 0.865 0.92793 0.0
C709 C 0.09307 0.88942 0.91881 0.0
C710 C 0.10134 0.85766 0.2043 0.0
C711 C 0.08376 0.8507 0.83863 0.0
H712 H 0.07698 0.78212 0.16396 0.0
H713 H 0.01849 0.82904 0.13228 0.0
H714 H 0.11667 0.8168 0.99509 0.0
H715 H 0.11887 0.80543 0.1188 0.0
H716 H 0.10821 0.78694 0.02277 0.0
H717 H 0.02031 0.86412 0.04676 0.0
H718 H 0.04811 0.87764 0.07587 0.0
H719 H 0.04244 0.86731 0.95408 0.0
H720 H 0.10925 0.90242 0.15285 0.0
H721 H 0.08933 0.89754 0.8486 0.0
H722 H 0.11216 0.8415 0.20258 0.0
H723 H 0.08357 0.8528 0.23147 0.0
H724 H 0.10942 0.87009 0.2575 0.0
H725 H 0.08891 0.83202 0.84816 0.0
H726 H 0.0925 0.85789 0.77222 0.0
H727 H 0.06449 0.85138 0.82607 0.0
C728 C 0.71433 0.03815 0.09089 0.0
C729 C 0.72955 0.0499 0.15491 0.0
C730 C 0.69709 0.05059 0.0392 0.0
C731 C 0.69574 0.07531 0.05054 0.0
C732 C 0.71424 0.08742 0.09835 0.0
C733 C 0.73078 0.07447 0.15265 0.0
C734 C 0.67838 0.03696 0.98453 0.0
C735 C 0.71466 0.11386 0.10341 0.0
C736 C 0.63929 0.09458 0.93072 0.0
C737 C 0.62382 0.09202 0.00998 0.0
C738 C 0.66368 0.0925 0.94453 0.0
C739 C 0.6724 0.08668 0.03885 0.0
C740 C 0.65687 0.08667 0.12056 0.0
C741 C 0.63274 0.08976 0.10492 0.0
C742 C 0.67953 0.09435 0.85624 0.0
C743 C 0.66495 0.07989 0.22252 0.0
H744 H 0.71367 0.0191 0.09254 0.0
H745 H 0.74279 0.08353 0.20174 0.0
H746 H 0.66112 0.03902 0.02154 0.0
H747 H 0.67661 0.04392 0.909 0.0
H748 H 0.6825 0.01792 0.97994 0.0
H749 H 0.73282 0.12049 0.11609 0.0
H750 H 0.70759 0.12168 0.03471 0.0
H751 H 0.70351 0.11986 0.16519 0.0
H752 H 0.63225 0.09644 0.85706 0.0
H753 H 0.62061 0.08759 0.16563 0.0
H754 H 0.69833 0.09645 0.87677 0.0
H755 H 0.67417 0.10955 0.81015 0.0
H756 H 0.67754 0.07838 0.81029 0.0
H757 H 0.66872 0.06077 0.22391 0.0
H758 H 0.65135 0.08356 0.27893 0.0
H759 H 0.68124 0.08936 0.24337 0.0
C760 C 0.45737 0.73561 0.10745 0.0
C761 C 0.48148 0.73245 0.12471 0.0
C762 C 0.44479 0.71924 0.0505 0.0
C763 C 0.45657 0.699 0.01567 0.0
C764 C 0.48153 0.69816 0.01961 0.0
C765 C 0.49375 0.71558 0.07091 0.0
C766 C 0.41859 0.72231 0.03871 0.0
C767 C 0.4952 0.67713 0.98366 0.0
C768 C 0.43465 0.63871 0.07798 0.0
C769 C 0.43745 0.6275 0.98711 0.0
C770 C 0.43866 0.66285 0.08781 0.0
C771 C 0.44364 0.67646 0.00312 0.0
C772 C 0.44155 0.66608 0.90939 0.0
C773 C 0.4393 0.64153 0.9022 0.0
C774 C 0.44014 0.67308 0.19007 0.0
C775 C 0.44322 0.68077 0.81745 0.0
H776 H 0.4479 0.74909 0.14726 0.0
H777 H 0.51253 0.71368 0.08303 0.0
H778 H 0.4111 0.71043 0.98208 0.0
H779 H 0.40974 0.71888 0.10977 0.0
H780 H 0.41462 0.74077 0.01816 0.0
H781 H 0.51447 0.67902 0.99546 0.0
H782 H 0.4892 0.66094 0.02172 0.0
H783 H 0.49206 0.67479 0.90436 0.0
H784 H 0.43139 0.62834 0.14324 0.0
H785 H 0.44068 0.63345 0.83056 0.0
H786 H 0.42747 0.68772 0.19775 0.0
H787 H 0.45805 0.68022 0.20361 0.0
H788 H 0.43627 0.65988 0.24795 0.0
H789 H 0.43231 0.69683 0.82516 0.0
H790 H 0.43728 0.67088 0.75159 0.0
H791 H 0.4616 0.6866 0.80556 0.0
C792 C 0.81203 0.5767 0.21693 0.0
C793 C 0.79508 0.55878 0.21212 0.0
C794 C 0.83317 0.57436 0.16519 0.0
C795 C 0.83605 0.5548 0.10234 0.0
C796 C 0.81615 0.54116 0.07614 0.0
C797 C 0.79559 0.54328 0.13225 0.0
C798 C 0.85362 0.58994 0.19303 0.0
C799 C 0.81804 0.52122 0.00388 0.0
C800 C 0.89721 0.54044 0.00732 0.0
C801 C 0.90501 0.52443 0.07872 0.0
C802 C 0.87468 0.55046 0.01285 0.0
C803 C 0.85982 0.54433 0.09194 0.0
C804 C 0.86779 0.52813 0.16428 0.0
C805 C 0.89026 0.51838 0.1564 0.0
C806 C 0.86674 0.5672 0.9335 0.0
C807 C 0.85315 0.52163 0.25269 0.0
H808 H 0.81102 0.58947 0.27583 0.0
H809 H 0.78198 0.53002 0.12491 0.0
H810 H 0.86575 0.59268 0.13045 0.0
H811 H 0.84746 0.60731 0.21973 0.0
H812 H 0.86372 0.58142 0.25319 0.0
H813 H 0.80051 0.5165 0.97325 0.0
H814 H 0.83007 0.52578 0.94278 0.0
H815 H 0.82526 0.50554 0.04193 0.0
H816 H 0.9086 0.54481 0.94623 0.0
H817 H 0.89652 0.50626 0.21212 0.0
H818 H 0.85797 0.58283 0.96526 0.0
H819 H 0.85364 0.55829 0.88579 0.0
H820 H 0.88165 0.57319 0.88716 0.0
H821 H 0.85345 0.53651 0.30505 0.0
H822 H 0.86008 0.50587 0.29123 0.0
H823 H 0.83461 0.51802 0.23229 0.0
C824 C 1.00804 0.19625 0.99433 0.0
C825 C 0.02945 0.20804 0.97921 0.0
C826 C 1.00455 0.17296 0.96081 0.0
C827 C 0.0229 0.16101 0.91085 0.0
C828 C 0.04406 0.1734 0.89077 0.0
C829 C 0.04707 0.19657 0.92539 0.0
C830 C 0.98179 0.1606 0.98497 0.0
C831 C 0.06446 0.16173 0.83977 0.0
C832 C 0.02721 0.09364 0.92416 0.0
C833 C 0.01786 0.0866 0.83317 0.0
C834 C 0.02853 0.11763 0.95088 0.0
C835 C 0.02062 0.13528 0.88478 0.0
C836 C 1.01138 0.12828 0.79247 0.0
C837 C 1.00995 0.10418 0.76824 0.0
C838 C 0.03837 0.1241 0.0503 0.0
C839 C 1.00323 0.14631 0.7186 0.0
H840 H 0.99466 0.2046 0.03884 0.0
H841 H 0.06395 0.2052 0.91609 0.0
H842 H 0.97437 0.15208 0.91849 0.0
H843 H 0.98521 0.14655 0.03967 0.0
H844 H 0.96846 0.1728 0.01561 0.0
H845 H 0.07573 0.17485 0.80185 0.0
H846 H 0.07545 0.1526 0.89535 0.0
H847 H 0.05847 0.14849 0.7856 0.0
H848 H 0.03326 0.08035 0.9753 0.0
H849 H 1.00287 0.09914 0.69734 0.0
H850 H 0.02499 0.13396 0.09269 0.0
H851 H 0.05386 0.13581 0.04154 0.0
H852 H 0.04374 0.10844 0.09357 0.0
H853 H 0.98875 0.15692 0.75017 0.0
H854 H 0.99694 0.13816 0.64922 0.0
H855 H 0.01785 0.15856 0.70136 0.0
C856 C 0.32936 0.03422 0.98879 0.0
C857 C 0.3196 1.01198 0.00678 0.0
C858 C 0.35152 0.03664 0.94246 0.0
C859 C 0.36442 0.01634 0.91445 0.0
C860 C 0.35388 0.99395 0.92725 0.0
C861 C 0.33174 0.99208 0.97301 0.0
C862 C 0.36178 0.06089 0.92921 0.0
C863 C 0.36674 0.97175 0.89952 0.0
C864 C 0.41916 0.01908 0.74933 0.0
C865 C 0.43768 0.01853 0.81808 0.0
C866 C 0.39534 0.01913 0.77933 0.0
C867 C 0.38966 0.01817 0.88063 0.0
C868 C 0.40829 0.0177 0.95023 0.0
C869 C 0.43191 0.01808 0.91834 0.0
C870 C 0.3762 0.02008 0.70252 0.0
C871 C 0.40329 0.01625 0.05887 0.0
H872 H 0.32039 0.04963 0.01653 0.0
H873 H 0.32452 0.97481 0.98833 0.0
H874 H 0.37643 0.06349 0.98213 0.0
H875 H 0.36915 0.06291 0.85434 0.0
H876 H 0.34847 0.07486 0.94146 0.0
H877 H 0.3551 0.95605 0.90223 0.0
H878 H 0.37424 0.97324 0.82469 0.0
H879 H 0.38163 0.96895 0.9511 0.0
H880 H 0.42327 0.01956 0.67173 0.0
H881 H 0.44592 0.01752 0.97243 0.0
H882 H 0.38339 0.02077 0.62684 0.0
H883 H 0.36506 0.03581 0.71449 0.0
H884 H 0.36459 1.00448 0.70919 0.0
H885 H 0.39206 0.0312 0.08164 0.0
H886 H 0.41963 0.01645 0.10383 0.0
H887 H 0.39343 0.99987 0.07522 0.0
C888 C 0.49641 0.33391 0.97488 0.0
C889 C 0.51867 0.32416 0.9929 0.0
C890 C 0.49403 0.35614 0.92904 0.0
C891 C 0.51439 0.3691 0.90135 0.0
C892 C 0.53679 0.35854 0.91389 0.0
C893 C 0.53862 0.33636 0.95929 0.0
C894 C 0.46977 0.36639 0.91592 0.0
C895 C 0.55907 0.37141 0.88616 0.0
C896 C 0.51157 0.42421 0.73788 0.0
C897 C 0.51215 0.44252 0.80718 0.0
C898 C 0.51159 0.40034 0.76713 0.0
C899 C 0.51262 0.3944 0.86824 0.0
C900 C 0.51314 0.41282 0.9384 0.0
C901 C 0.51271 0.43648 0.90725 0.0
C902 C 0.51065 0.38144 0.68969 0.0
C903 C 0.5147 0.40754 0.04686 0.0
H904 H 0.48094 0.32489 0.0023 0.0
H905 H 0.55591 0.32912 0.97437 0.0
H906 H 0.46725 0.38095 0.96893 0.0
H907 H 0.46774 0.37384 0.8411 0.0
H908 H 0.45574 0.3531 0.92811 0.0
H909 H 0.57473 0.35975 0.88814 0.0
H910 H 0.55752 0.37911 0.81162 0.0
H911 H 0.56204 0.38612 0.93822 0.0
H912 H 0.51103 0.42851 0.66041 0.0
H913 H 0.51332 0.45032 0.96179 0.0
H914 H 0.4948 0.37034 0.70079 0.0
H915 H 0.52619 0.36979 0.69651 0.0
H916 H 0.51013 0.38881 0.61421 0.0
H917 H 0.49973 0.39624 0.06942 0.0
H918 H 0.51457 0.42374 0.09233 0.0
H919 H 0.53112 0.3977 0.06275 0.0
C920 C 0.19862 0.48541 0.9035 0.0
C921 C 0.20885 0.50402 0.95649 0.0
C922 C 0.17549 0.48684 0.86547 0.0
C923 C 0.16172 0.50726 0.88193 0.0
C924 C 0.17236 0.52654 0.93146 0.0
C925 C 0.1957 0.52473 0.96761 0.0
C926 C 0.16539 0.46563 0.81407 0.0
C927 C 0.15852 0.54855 0.95242 0.0
C928 C 0.10438 0.51734 0.73575 0.0
C929 C 0.08698 0.50884 0.80014 0.0
C930 C 0.12859 0.51665 0.7605 0.0
C931 C 0.13588 0.50782 0.85326 0.0
C932 C 0.11838 0.49918 0.9184 0.0
C933 C 0.09434 0.49958 0.89085 0.0
C934 C 0.14642 0.52536 0.68706 0.0
C935 C 0.12503 0.48981 0.01835 0.0
H936 H 0.20829 0.46908 0.8968 0.0
H937 H 0.20303 0.53889 0.01126 0.0
H938 H 0.1524 0.47065 0.75704 0.0
H939 H 0.17946 0.45495 0.77944 0.0
H940 H 0.15626 0.45441 0.86873 0.0
H941 H 0.14414 0.54444 0.00471 0.0
H942 H 0.16968 0.56264 0.98456 0.0
H943 H 0.15023 0.55526 0.88416 0.0
H944 H 0.09907 0.52437 0.6651 0.0
H945 H 0.08119 0.49312 0.9417 0.0
H946 H 0.16014 0.51182 0.67511 0.0
H947 H 0.15538 0.54122 0.71629 0.0
H948 H 0.13826 0.52984 0.61525 0.0
H949 H 0.13798 0.47535 0.011 0.0
H950 H 0.10957 0.48319 0.05979 0.0
H951 H 0.13355 0.50393 0.06184 0.0
C952 C 0.99333 0.8326 0.50304 0.0
C953 C 1.01564 0.82311 0.4841 0.0
C954 C 0.99088 0.8545 0.55122 0.0
C955 C 1.0112 0.8674 0.58023 0.0
C956 C 0.03364 0.857 0.56728 0.0
C957 C 0.03554 0.8351 0.51987 0.0
C958 C 0.96658 0.86457 0.56485 0.0
C959 C 0.05589 0.86987 0.5958 0.0
C960 C 1.00954 0.93465 0.5727 0.0
C961 C 1.00918 0.94085 0.67257 0.0
C962 C 1.00988 0.91098 0.54227 0.0
C963 C 1.00941 0.89268 0.61298 0.0
C964 C 1.00858 0.89875 0.71398 0.0
C965 C 1.00871 0.92267 0.74256 0.0
C966 C 1.01127 0.90558 0.43391 0.0
C967 C 1.00763 0.87994 0.79187 0.0
H968 H 0.9779 0.82371 0.4743 0.0
H969 H 0.05286 0.82804 0.50448 0.0
H970 H 0.9647 0.87209 0.63953 0.0
H971 H 0.96378 0.87904 0.51147 0.0
H972 H 0.95263 0.85114 0.55335 0.0
H973 H 0.07154 0.85821 0.59431 0.0
H974 H 0.05889 0.88457 0.54374 0.0
H975 H 0.05429 0.87757 0.67023 0.0
H976 H 1.01008 0.94838 0.51759 0.0
H977 H 1.0083 0.92712 0.81986 0.0
H978 H 0.99621 0.89434 0.41161 0.0
H979 H 0.02762 0.89564 0.41824 0.0
H980 H 1.01116 0.92172 0.388 0.0
H981 H 1.00696 0.88742 0.8671 0.0
H982 H 0.02326 0.86838 0.78608 0.0
H983 H 0.99187 0.86873 0.78034 0.0
C984 C 0.68737 0.04022 0.49016 0.0
C985 C 0.70173 0.02051 0.47244 0.0
C986 C 0.66474 0.03803 0.53121 0.0
C987 C 0.65625 0.01565 0.55992 0.0
C988 C 0.67149 0.99597 0.55106 0.0
C989 C 0.69387 0.99854 0.50646 0.0
C990 C 0.64941 0.05961 0.53854 0.0
C991 C 0.66376 0.97199 0.58547 0.0
C992 C 0.60046 0.01677 0.71899 0.0
C993 C 0.58266 1.0114 0.65079 0.0
C994 C 0.62446 0.01716 0.69201 0.0
C995 C 0.63102 1.01285 0.59316 0.0
C996 C 0.61307 1.00734 0.52402 0.0
C997 C 0.58928 1.00629 0.55392 0.0
C998 C 0.64259 0.0228 0.76959 0.0
C999 C 0.61888 1.00343 0.41723 0.0
H1000 H 0.69336 0.05741 0.46655 0.0
H1001 H 0.70464 0.98316 0.49364 0.0
H1002 H 0.63302 0.05697 0.49537 0.0
H1003 H 0.64423 0.06256 0.61592 0.0
H1004 H 0.65839 0.07567 0.51111 0.0
H1005 H 0.67844 0.95911 0.58466 0.0
H1006 H 0.65661 0.97309 0.66109 0.0
H1007 H 0.64946 0.96535 0.5373 0.0
H1008 H 0.59567 0.02042 0.79421 0.0
H1009 H 0.57572 1.0023 0.50034 0.0
H1010 H 0.65935 1.01332 0.75663 0.0
H1011 H 0.63611 0.0183 0.84415 0.0
H1012 H 0.64634 0.04193 0.7683 0.0
H1013 H 0.62726 0.01946 0.38653 0.0
H1014 H 0.60304 0.99918 0.37263 0.0
H1015 H 0.6317 0.98887 0.40984 0.0
C1016 C 0.48787 0.68782 0.44725 0.0
C1017 C 0.50576 0.705 0.45048 0.0
C1018 C 0.49074 0.66543 0.48944 0.0
C1019 C 0.51166 0.66 0.5413 0.0
C1020 C 0.52903 0.67789 0.55239 0.0
C1021 C 0.52604 0.70005 0.50592 0.0
C1022 C 0.47181 0.64714 0.47317 0.0
C1023 C 0.55117 0.67333 0.61055 0.0
C1024 C 0.50698 0.60438 0.70024 0.0
C1025 C 0.51805 0.58735 0.64188 0.0
C1026 C 0.50588 0.62818 0.67097 0.0
C1027 C 0.51546 0.63532 0.57958 0.0
C1028 C 0.52683 0.61819 0.52068 0.0
C1029 C 0.52827 0.59461 0.553 0.0
C1030 C 0.4939 0.64559 0.73713 0.0
C1031 C 0.53662 0.62455 0.42127 0.0
H1032 H 0.47187 0.6915 0.40645 0.0
H1033 H 0.53999 0.71303 0.50934 0.0
H1034 H 0.47919 0.6321 0.43165 0.0
H1035 H 0.46545 0.64022 0.5444 0.0
H1036 H 0.4565 0.65418 0.4317 0.0
H1037 H 0.56155 0.68963 0.62267 0.0
H1038 H 0.54675 0.66548 0.68283 0.0
H1039 H 0.56234 0.66052 0.5709 0.0
H1040 H 0.49909 0.59912 0.76923 0.0
H1041 H 0.53671 0.58166 0.50669 0.0
H1042 H 0.47688 0.65092 0.70414 0.0
H1043 H 0.50485 0.66166 0.7448 0.0
H1044 H 0.4904 0.63815 0.81108 0.0
H1045 H 0.5455 0.60948 0.38532 0.0
H1046 H 0.54941 0.6392 0.42824 0.0
H1047 H 0.52215 0.63071 0.3728 0.0
C1048 C 0.8288 0.54321 0.57533 0.0
C1049 C 0.81748 0.52465 0.52603 0.0
C1050 C 0.85202 0.5411 0.61136 0.0
C1051 C 0.86462 0.51983 0.5983 0.0
C1052 C 0.85271 0.50047 0.55448 0.0
C1053 C 0.82942 0.50315 0.51847 0.0
C1054 C 0.8637 0.56251 0.65515 0.0
C1055 C 0.86509 0.47736 0.53943 0.0
C1056 C 0.93181 0.52448 0.57136 0.0
C1057 C 0.94011 0.51865 0.66564 0.0
C1058 C 0.90752 0.5248 0.54884 0.0
C1059 C 0.89071 0.51872 0.62155 0.0
C1060 C 0.89895 0.51258 0.71674 0.0
C1061 C 0.9234 0.51281 0.73783 0.0
C1062 C 0.89988 0.5316 0.44649 0.0
C1063 C 0.88188 0.50575 0.79645 0.0
H1064 H 0.82004 0.5601 0.57922 0.0
H1065 H 0.82121 0.48891 0.47804 0.0
H1066 H 0.87574 0.55769 0.71599 0.0
H1067 H 0.87433 0.57134 0.59769 0.0
H1068 H 0.85054 0.57528 0.68292 0.0
H1069 H 0.85257 0.46305 0.52022 0.0
H1070 H 0.87798 0.47915 0.47887 0.0
H1071 H 0.87498 0.47224 0.60645 0.0
H1072 H 0.94435 0.529 0.51459 0.0
H1073 H 0.92941 0.50816 0.81088 0.0
H1074 H 0.88654 0.5458 0.44937 0.0
H1075 H 0.8916 0.51625 0.41019 0.0
H1076 H 0.91484 0.53763 0.40048 0.0
H1077 H 0.87003 0.52072 0.81258 0.0
H1078 H 0.89095 0.50044 0.8653 0.0
H1079 H 0.87064 0.49097 0.77118 0.0
loop_
_geom_bond_atom_site_label_1
_geom_bond_atom_site_label_2
_geom_bond_distance
_geom_bond_site_symmetry_2
_ccdc_geom_bond_type
H0 C1 0.949 . S
C1 H0 0.949 . S
C1 C2 1.395 . S
C1 C3 1.391 . S
C2 C1 1.395 . S
C2 C5 1.390 . S
C3 C1 1.391 . S
C3 C7 1.387 . S
C3 C8 1.491 . S
H4 C5 0.950 . S
C5 C2 1.390 . S
C5 H4 0.950 . S
C5 C6 1.378 . S
C6 C5 1.378 . S
C6 C7 1.409 . S
C7 C3 1.387 . S
C7 C6 1.409 . S
C7 H9 0.951 . S
C8 C3 1.491 . S
C8 C10 1.382 . S
C8 C12 1.404 . S
H9 C7 0.951 . S
C10 C8 1.382 . S
C10 C11 1.390 . S
C10 H15 0.949 . S
C11 C10 1.390 . S
C11 C16 1.399 . S
C12 C8 1.404 . S
C12 H13 0.950 . S
C12 C14 1.375 . S
H13 C12 0.950 . S
C14 C12 1.375 . S
C14 C16 1.382 . S
C14 H18 0.950 . S
H15 C10 0.949 . S
C16 C11 1.399 . S
C16 C14 1.382 . S
C16 H17 0.952 . S
H17 C16 0.952 . S
H18 C14 0.950 . S
H19 C20 0.949 . S
C20 H19 0.949 . S
C20 C21 1.395 . S
C20 C22 1.391 . S
C21 C20 1.395 . S
C21 C24 1.390 1_655 S
C22 C20 1.391 . S
C22 C26 1.387 . S
C22 C27 1.491 . S
H23 C24 0.950 . S
C24 C21 1.390 1_455 S
C24 H23 0.950 . S
C24 C25 1.377 1_455 S
C25 C24 1.377 1_655 S
C25 C26 1.413 . S
C26 C22 1.387 . S
C26 C25 1.413 . S
C26 H28 0.951 . S
C27 C22 1.491 . S
C27 C29 1.382 . S
C27 C31 1.404 . S
H28 C26 0.951 . S
C29 C27 1.382 . S
C29 C30 1.390 . S
C29 H34 0.949 1_655 S
C30 C29 1.390 . S
C30 C35 1.399 . S
C31 C27 1.404 . S
C31 H32 0.950 . S
C31 C33 1.375 . S
H32 C31 0.950 . S
C33 C31 1.375 . S
C33 C35 1.382 . S
C33 H37 0.950 . S
H34 C29 0.949 1_455 S
C35 C30 1.399 . S
C35 C33 1.382 . S
C35 H36 0.952 . S
H36 C35 0.952 . S
H37 C33 0.950 . S
H38 C39 0.949 . S
C39 H38 0.949 . S
C39 C40 1.395 . S
C39 C41 1.391 . S
C40 C39 1.395 . S
C40 C43 1.390 1_565 S
C41 C39 1.391 . S
C41 C45 1.387 . S
C41 C46 1.491 . S
H42 C43 0.950 . S
C43 C40 1.390 1_545 S
C43 H42 0.950 . S
C43 C44 1.377 1_545 S
C44 C43 1.377 1_565 S
C44 C45 1.413 . S
C45 C41 1.387 . S
C45 C44 1.413 . S
C45 H47 0.951 . S
C46 C41 1.491 . S
C46 C48 1.382 . S
C46 C50 1.404 . S
H47 C45 0.951 . S
C48 C46 1.382 . S
C48 C49 1.390 . S
C48 H53 0.949 1_565 S
C49 C48 1.390 . S
C49 C54 1.399 . S
C50 C46 1.404 . S
C50 H51 0.950 . S
C50 C52 1.375 . S
H51 C50 0.950 . S
C52 C50 1.375 . S
C52 C54 1.382 . S
C52 H56 0.950 . S
H53 C48 0.949 1_545 S
C54 C49 1.399 . S
C54 C52 1.382 . S
C54 H55 0.952 . S
H55 C54 0.952 . S
H56 C52 0.950 . S
H57 C58 0.949 . S
C58 H57 0.949 . S
C58 C59 1.395 . S
C58 C60 1.391 . S
C59 C58 1.395 . S
C59 C62 1.390 . S
C60 C58 1.391 . S
C60 C64 1.387 . S
C60 C65 1.491 . S
H61 C62 0.950 . S
C62 C59 1.390 . S
C62 H61 0.950 . S
C62 C63 1.378 . S
C63 C62 1.378 . S
C63 C64 1.409 . S
C64 C60 1.387 . S
C64 C63 1.409 . S
C64 H66 0.951 . S
C65 C60 1.491 . S
C65 C67 1.382 . S
C65 C69 1.404 . S
H66 C64 0.951 . S
C67 C65 1.382 . S
C67 C68 1.390 . S
C67 H72 0.949 . S
C68 C67 1.390 . S
C68 C73 1.399 . S
C69 C65 1.404 . S
C69 H70 0.950 . S
C69 C71 1.375 . S
H70 C69 0.950 . S
C71 C69 1.375 . S
C71 C73 1.382 . S
C71 H75 0.950 . S
H72 C67 0.949 . S
C73 C68 1.399 . S
C73 C71 1.382 . S
C73 H74 0.952 . S
H74 C73 0.952 . S
H75 C71 0.950 . S
H76 C77 0.949 . S
C77 H76 0.949 . S
C77 C78 1.395 . S
C77 C79 1.397 . S
C78 C77 1.395 . S
C78 C81 1.390 1_554 S
C79 C77 1.397 . S
C79 C83 1.382 1_554 S
C79 C84 1.491 . S
H80 C81 0.950 . S
C81 C78 1.390 1_556 S
C81 H80 0.950 . S
C81 C82 1.378 . S
C82 C81 1.378 . S
C82 C83 1.409 . S
C83 C79 1.382 1_556 S
C83 C82 1.409 . S
C83 H85 0.951 . S
C84 C79 1.491 . S
C84 C86 1.382 . S
C84 C88 1.404 1_554 S
H85 C83 0.951 . S
C86 C84 1.382 . S
C86 C87 1.390 . S
C86 H91 0.949 . S
C87 C86 1.390 . S
C87 C92 1.399 . S
C88 C84 1.404 1_556 S
C88 H89 0.950 . S
C88 C90 1.375 . S
H89 C88 0.950 . S
C90 C88 1.375 . S
C90 C92 1.382 1_556 S
C90 H94 0.950 . S
H91 C86 0.949 . S
C92 C87 1.399 . S
C92 C90 1.382 1_554 S
C92 H93 0.952 . S
H93 C92 0.952 . S
H94 C90 0.950 . S
H95 C96 0.949 . S
C96 H95 0.949 . S
C96 C97 1.395 1_655 S
C96 C98 1.391 . S
C97 C96 1.395 1_455 S
C97 C100 1.390 1_554 S
C98 C96 1.391 . S
C98 C102 1.387 1_554 S
C98 C103 1.491 . S
H99 C100 0.950 . S
C100 C97 1.390 1_556 S
C100 H99 0.950 . S
C100 C101 1.377 1_455 S
C101 C100 1.377 1_655 S
C101 C102 1.411 . S
C102 C98 1.387 1_556 S
C102 C101 1.411 . S
C102 H104 0.951 . S
C103 C98 1.491 . S
C103 C105 1.402 . S
C103 C107 1.404 1_554 S
H104 C102 0.951 . S
C105 C103 1.402 . S
C105 C106 1.400 . S
C105 H110 0.920 1_655 S
C106 C105 1.400 . S
C106 C111 1.399 . S
C107 C103 1.404 1_556 S
C107 H108 0.950 . S
C107 C109 1.375 . S
H108 C107 0.950 . S
C109 C107 1.375 . S
C109 C111 1.382 1_556 S
C109 H113 0.950 . S
H110 C105 0.920 1_455 S
C111 C106 1.399 . S
C111 C109 1.382 1_554 S
C111 H112 0.952 . S
H112 C111 0.952 . S
H113 C109 0.950 . S
H114 C115 0.949 . S
C115 H114 0.949 . S
C115 C116 1.395 1_565 S
C115 C117 1.391 . S
C116 C115 1.395 1_545 S
C116 C119 1.390 1_554 S
C117 C115 1.391 . S
C117 C121 1.387 1_554 S
C117 C122 1.491 . S
H118 C119 0.950 . S
C119 C116 1.390 1_556 S
C119 H118 0.950 . S
C119 C120 1.377 1_545 S
C120 C119 1.377 1_565 S
C120 C121 1.411 . S
C121 C117 1.387 1_556 S
C121 C120 1.411 . S
C121 H123 0.951 . S
C122 C117 1.491 . S
C122 C124 1.402 . S
C122 C126 1.404 1_554 S
H123 C121 0.951 . S
C124 C122 1.402 . S
C124 C125 1.400 . S
C124 H129 0.920 1_565 S
C125 C124 1.400 . S
C125 C130 1.399 . S
C126 C122 1.404 1_556 S
C126 H127 0.950 . S
C126 C128 1.375 . S
H127 C126 0.950 . S
C128 C126 1.375 . S
C128 C130 1.382 1_556 S
C128 H132 0.950 . S
H129 C124 0.920 1_545 S
C130 C125 1.399 . S
C130 C128 1.382 1_554 S
C130 H131 0.952 . S
H131 C130 0.952 . S
H132 C128 0.950 . S
H133 C134 0.949 . S
C134 H133 0.949 . S
C134 C135 1.395 . S
C134 C136 1.387 1_554 S
C135 C134 1.395 . S
C135 C138 1.390 1_554 S
C136 C134 1.387 1_556 S
C136 C140 1.392 . S
C136 C141 1.491 1_556 S
H137 C138 0.950 . S
C138 C135 1.390 1_556 S
C138 H137 0.950 . S
C138 C139 1.378 . S
C139 C138 1.378 . S
C139 C140 1.409 . S
C140 C136 1.392 . S
C140 C139 1.409 . S
C140 H142 0.951 . S
C141 C136 1.491 1_554 S
C141 C143 1.382 . S
C141 C145 1.404 1_554 S
H142 C140 0.951 . S
C143 C141 1.382 . S
C143 C144 1.390 . S
C143 H148 0.949 . S
C144 C143 1.390 . S
C144 C149 1.399 . S
C145 C141 1.404 1_556 S
C145 H146 0.950 . S
C145 C147 1.375 . S
H146 C145 0.950 . S
C147 C145 1.375 . S
C147 C149 1.382 1_556 S
C147 H151 0.950 . S
H148 C143 0.949 . S
C149 C144 1.399 . S
C149 C147 1.382 1_554 S
C149 H150 0.952 . S
H150 C149 0.952 . S
H151 C147 0.950 . S
Tb152 C162 2.825 . S
Tb152 O163 2.347 1_455 S
Tb152 O166 2.366 . S
Tb152 O171 2.418 . S
Tb152 O172 2.384 1_565 S
Tb152 O175 2.479 . S
Tb152 O176 2.471 . S
Eu153 O164 2.418 . S
Eu153 O165 2.384 1_545 S
Eu153 O168 2.479 . S
Eu153 O169 2.471 . S
Eu153 O170 2.347 1_655 S
Eu153 O173 2.366 . S
Eu153 C183 2.825 . S
C154 O170 1.259 1_565 S
C154 O171 1.265 . S
C155 O172 1.255 . S
C155 O173 1.265 1_455 S
C156 C158 1.380 1_556 S
C156 C159 1.374 1_556 S
C156 C162 1.507 . S
C157 C158 1.384 . S
C157 C161 1.387 . S
C157 H184 0.930 . S
C158 C156 1.380 1_554 S
C158 C157 1.384 . S
C158 H185 0.931 . S
C159 C156 1.374 1_554 S
C159 C160 1.390 . S
C159 H186 0.930 1_455 S
C160 C159 1.390 . S
C160 C161 1.391 . S
C160 H187 0.930 1_455 S
C161 C157 1.387 . S
C161 C160 1.391 . S
C162 Tb152 2.825 . S
C162 C156 1.507 . S
C162 O175 1.238 . S
C162 O176 1.247 . S
O163 Tb152 2.347 1_655 S
O163 C167 1.259 1_565 S
O164 Eu153 2.418 . S
O164 C167 1.265 . S
O165 Eu153 2.384 1_565 S
O165 C174 1.255 . S
O166 Tb152 2.366 . S
O166 C174 1.265 1_455 S
C167 O163 1.259 1_545 S
C167 O164 1.265 . S
O168 Eu153 2.479 . S
O168 C183 1.238 . S
O169 Eu153 2.471 . S
O169 C183 1.247 . S
O170 Eu153 2.347 1_455 S
O170 C154 1.259 1_545 S
O171 Tb152 2.418 . S
O171 C154 1.265 . S
O172 Tb152 2.384 1_545 S
O172 C155 1.255 . S
O173 Eu153 2.366 . S
O173 C155 1.265 1_655 S
C174 O165 1.255 . S
C174 O166 1.265 1_655 S
O175 Tb152 2.479 . S
O175 C162 1.238 . S
O176 Tb152 2.471 . S
O176 C162 1.247 . S
C177 C180 1.380 . S
C177 C181 1.374 . S
C177 C183 1.507 . S
C178 C179 1.387 . S
C178 C182 1.391 . S
C179 C178 1.387 . S
C179 C180 1.384 . S
C179 H188 0.930 . S
C180 C177 1.380 . S
C180 C179 1.384 . S
C180 H189 0.931 . S
C181 C177 1.374 . S
C181 C182 1.390 . S
C181 H190 0.930 1_655 S
C182 C178 1.391 . S
C182 C181 1.390 . S
C182 H191 0.930 1_655 S
C183 Eu153 2.825 . S
C183 O168 1.238 . S
C183 O169 1.247 . S
C183 C177 1.507 . S
H184 C157 0.930 . S
H185 C158 0.931 . S
H186 C159 0.930 1_655 S
H187 C160 0.930 1_655 S
H188 C179 0.930 . S
H189 C180 0.931 . S
H190 C181 0.930 1_455 S
H191 C182 0.930 1_455 S
Tb192 C202 2.825 . S
Tb192 O203 2.347 1_545 S
Tb192 O206 2.366 . S
Tb192 O211 2.418 . S
Tb192 O212 2.384 . S
Tb192 O215 2.479 . S
Tb192 O216 2.471 . S
Eu193 O204 2.418 . S
Eu193 O205 2.384 . S
Eu193 O208 2.479 . S
Eu193 O209 2.471 . S
Eu193 O210 2.347 1_565 S
Eu193 O213 2.366 . S
Eu193 C223 2.825 . S
C194 O210 1.259 . S
C194 O211 1.265 . S
C195 O212 1.255 . S
C195 O213 1.265 1_545 S
C196 C198 1.380 1_556 S
C196 C199 1.374 1_556 S
C196 C202 1.507 . S
C197 C198 1.384 . S
C197 C201 1.387 . S
C197 H224 0.930 . S
C198 C196 1.380 1_554 S
C198 C197 1.384 . S
C198 H225 0.931 . S
C199 C196 1.374 1_554 S
C199 C200 1.390 . S
C199 H226 0.930 1_545 S
C200 C199 1.390 . S
C200 C201 1.391 . S
C200 H227 0.930 1_545 S
C201 C197 1.387 . S
C201 C200 1.391 . S
C202 Tb192 2.825 . S
C202 C196 1.507 . S
C202 O215 1.238 . S
C202 O216 1.247 . S
O203 Tb192 2.347 1_565 S
O203 C207 1.259 . S
O204 Eu193 2.418 . S
O204 C207 1.265 . S
O205 Eu193 2.384 . S
O205 C214 1.255 . S
O206 Tb192 2.366 . S
O206 C214 1.265 1_545 S
C207 O203 1.259 . S
C207 O204 1.265 . S
O208 Eu193 2.479 . S
O208 C223 1.238 . S
O209 Eu193 2.471 . S
O209 C223 1.247 . S
O210 Eu193 2.347 1_545 S
O210 C194 1.259 . S
O211 Tb192 2.418 . S
O211 C194 1.265 . S
O212 Tb192 2.384 . S
O212 C195 1.255 . S
O213 Eu193 2.366 . S
O213 C195 1.265 1_565 S
C214 O205 1.255 . S
C214 O206 1.265 1_565 S
O215 Tb192 2.479 . S
O215 C202 1.238 . S
O216 Tb192 2.471 . S
O216 C202 1.247 . S
C217 C220 1.380 . S
C217 C221 1.374 . S
C217 C223 1.507 . S
C218 C219 1.387 . S
C218 C222 1.391 . S
C219 C218 1.387 . S
C219 C220 1.384 . S
C219 H228 0.930 . S
C220 C217 1.380 . S
C220 C219 1.384 . S
C220 H229 0.931 . S
C221 C217 1.374 . S
C221 C222 1.390 . S
C221 H230 0.930 1_565 S
C222 C218 1.391 . S
C222 C221 1.390 . S
C222 H231 0.930 1_565 S
C223 Eu193 2.825 . S
C223 O208 1.238 . S
C223 O209 1.247 . S
C223 C217 1.507 . S
H224 C197 0.930 . S
H225 C198 0.931 . S
H226 C199 0.930 1_565 S
H227 C200 0.930 1_565 S
H228 C219 0.930 . S
H229 C220 0.931 . S
H230 C221 0.930 1_545 S
H231 C222 0.930 1_545 S
Tb232 C242 2.825 . S
Tb232 O243 2.347 . S
Tb232 O246 2.366 . S
Tb232 O251 2.418 . S
Tb232 O252 2.384 . S
Tb232 O255 2.479 . S
Tb232 O256 2.471 . S
Eu233 O244 2.418 . S
Eu233 O245 2.384 . S
Eu233 O248 2.479 . S
Eu233 O249 2.471 . S
Eu233 O250 2.347 . S
Eu233 O253 2.366 . S
Eu233 C263 2.825 . S
C234 O250 1.259 . S
C234 O251 1.265 . S
C235 O252 1.255 . S
C235 O253 1.265 . S
C236 C238 1.377 1_556 S
C236 C239 1.371 1_556 S
C236 C242 1.512 . S
C237 C238 1.384 . S
C237 C241 1.387 . S
C237 H264 0.930 . S
C238 C236 1.377 1_554 S
C238 C237 1.384 . S
C238 H265 0.931 . S
C239 C236 1.371 1_554 S
C239 C240 1.390 . S
C239 H266 0.930 . S
C240 C239 1.390 . S
C240 C241 1.391 . S
C240 H267 0.930 . S
C241 C237 1.387 . S
C241 C240 1.391 . S
C242 Tb232 2.825 . S
C242 C236 1.512 . S
C242 O255 1.238 . S
C242 O256 1.247 . S
O243 Tb232 2.347 . S
O243 C247 1.259 . S
O244 Eu233 2.418 . S
O244 C247 1.265 . S
O245 Eu233 2.384 . S
O245 C254 1.255 . S
O246 Tb232 2.366 . S
O246 C254 1.265 . S
C247 O243 1.259 . S
C247 O244 1.265 . S
O248 Eu233 2.479 . S
O248 C263 1.238 . S
O249 Eu233 2.471 . S
O249 C263 1.247 . S
O250 Eu233 2.347 . S
O250 C234 1.259 . S
O251 Tb232 2.418 . S
O251 C234 1.265 . S
O252 Tb232 2.384 . S
O252 C235 1.255 . S
O253 Eu233 2.366 . S
O253 C235 1.265 . S
C254 O245 1.255 . S
C254 O246 1.265 . S
O255 Tb232 2.479 . S
O255 C242 1.238 . S
O256 Tb232 2.471 . S
O256 C242 1.247 . S
C257 C260 1.380 . S
C257 C261 1.374 . S
C257 C263 1.507 . S
C258 C259 1.387 . S
C258 C262 1.391 . S
C259 C258 1.387 . S
C259 C260 1.384 . S
C259 H268 0.930 . S
C260 C257 1.380 . S
C260 C259 1.384 . S
C260 H269 0.931 . S
C261 C257 1.374 . S
C261 C262 1.390 . S
C261 H270 0.930 . S
C262 C258 1.391 . S
C262 C261 1.390 . S
C262 H271 0.930 . S
C263 Eu233 2.825 . S
C263 O248 1.238 . S
C263 O249 1.247 . S
C263 C257 1.507 . S
H264 C237 0.930 . S
H265 C238 0.931 . S
H266 C239 0.930 . S
H267 C240 0.930 . S
H268 C259 0.930 . S
H269 C260 0.931 . S
H270 C261 0.930 . S
H271 C262 0.930 . S
Tb272 C282 2.825 . S
Tb272 O283 2.347 . S
Tb272 O286 2.366 . S
Tb272 O291 2.418 . S
Tb272 O292 2.384 1_655 S
Tb272 O295 2.479 . S
Tb272 O296 2.471 . S
Eu273 O284 2.418 . S
Eu273 O285 2.384 1_455 S
Eu273 O288 2.479 . S
Eu273 O289 2.471 . S
Eu273 O290 2.347 . S
Eu273 O293 2.366 . S
Eu273 C303 2.825 . S
C274 O290 1.259 1_655 S
C274 O291 1.265 . S
C275 O292 1.255 . S
C275 O293 1.265 . S
C276 C278 1.380 1_556 S
C276 C279 1.374 1_556 S
C276 C282 1.507 . S
C277 C278 1.384 . S
C277 C281 1.387 . S
C277 H304 0.930 . S
C278 C276 1.380 1_554 S
C278 C277 1.384 . S
C278 H305 0.931 . S
C279 C276 1.374 1_554 S
C279 C280 1.390 . S
C279 H306 0.930 . S
C280 C279 1.390 . S
C280 C281 1.391 . S
C280 H307 0.930 . S
C281 C277 1.387 . S
C281 C280 1.391 . S
C282 Tb272 2.825 . S
C282 C276 1.507 . S
C282 O295 1.238 . S
C282 O296 1.247 . S
O283 Tb272 2.347 . S
O283 C287 1.259 1_655 S
O284 Eu273 2.418 . S
O284 C287 1.265 . S
O285 Eu273 2.384 1_655 S
O285 C294 1.255 . S
O286 Tb272 2.366 . S
O286 C294 1.265 . S
C287 O283 1.259 1_455 S
C287 O284 1.265 . S
O288 Eu273 2.479 . S
O288 C303 1.238 . S
O289 Eu273 2.471 . S
O289 C303 1.247 . S
O290 Eu273 2.347 . S
O290 C274 1.259 1_455 S
O291 Tb272 2.418 . S
O291 C274 1.265 . S
O292 Tb272 2.384 1_455 S
O292 C275 1.255 . S
O293 Eu273 2.366 . S
O293 C275 1.265 . S
C294 O285 1.255 . S
C294 O286 1.265 . S
O295 Tb272 2.479 . S
O295 C282 1.238 . S
O296 Tb272 2.471 . S
O296 C282 1.247 . S
C297 C300 1.380 . S
C297 C301 1.374 . S
C297 C303 1.507 . S
C298 C299 1.387 . S
C298 C302 1.391 . S
C299 C298 1.387 . S
C299 C300 1.384 . S
C299 H308 0.930 . S
C300 C297 1.380 . S
C300 C299 1.384 . S
C300 H309 0.931 . S
C301 C297 1.374 . S
C301 C302 1.390 . S
C301 H310 0.930 . S
C302 C298 1.391 . S
C302 C301 1.390 . S
C302 H311 0.930 . S
C303 Eu273 2.825 . S
C303 O288 1.238 . S
C303 O289 1.247 . S
C303 C297 1.507 . S
H304 C277 0.930 . S
H305 C278 0.931 . S
H306 C279 0.930 . S
H307 C280 0.930 . S
H308 C299 0.930 . S
H309 C300 0.931 . S
H310 C301 0.930 . S
H311 C302 0.930 . S
C312 C313 1.391 . S
C312 C314 1.394 . S
C312 H328 0.931 . S
C313 C312 1.391 . S
C313 C317 1.376 1_565 S
C314 C312 1.394 . S
C314 C315 1.369 . S
C314 C318 1.531 . S
C315 C314 1.369 . S
C315 C316 1.410 1_565 S
C315 C323 1.503 . S
C316 C315 1.410 1_545 S
C316 C317 1.392 . S
C316 C319 1.511 . S
C317 C313 1.376 1_545 S
C317 C316 1.392 . S
C317 H329 0.929 . S
C318 C314 1.531 . S
C318 H330 0.960 . S
C318 H331 0.962 . S
C318 H332 0.960 . S
C319 C316 1.511 . S
C319 H333 0.961 . S
C319 H334 0.961 . S
C319 H335 0.961 . S
C320 C321 1.368 1_545 S
C320 C322 1.363 . S
C320 H336 0.931 . S
C321 C320 1.368 1_565 S
C321 C325 1.411 . S
C322 C320 1.363 . S
C322 C323 1.370 1_545 S
C322 C326 1.524 . S
C323 C315 1.503 . S
C323 C322 1.370 1_565 S
C323 C324 1.403 . S
C324 C323 1.403 . S
C324 C325 1.404 . S
C324 C327 1.539 . S
C325 C321 1.411 . S
C325 C324 1.404 . S
C325 H337 0.930 . S
C326 C322 1.524 . S
C326 H338 0.956 . S
C326 H339 0.961 . S
C326 H340 0.961 . S
C327 C324 1.539 . S
C327 H341 0.958 . S
C327 H342 0.961 . S
C327 H343 0.960 . S
H328 C312 0.931 . S
H329 C317 0.929 . S
H330 C318 0.960 . S
H331 C318 0.962 . S
H332 C318 0.960 . S
H333 C319 0.961 . S
H334 C319 0.961 . S
H335 C319 0.961 . S
H336 C320 0.931 . S
H337 C325 0.930 . S
H338 C326 0.956 . S
H339 C326 0.961 . S
H340 C326 0.961 . S
H341 C327 0.958 . S
H342 C327 0.961 . S
H343 C327 0.960 . S
C344 C345 1.391 . S
C344 C346 1.394 . S
C344 H360 0.931 . S
C345 C344 1.391 . S
C345 C349 1.376 . S
C346 C344 1.394 . S
C346 C347 1.369 . S
C346 C350 1.531 . S
C347 C346 1.369 . S
C347 C348 1.410 . S
C347 C355 1.503 . S
C348 C347 1.410 . S
C348 C349 1.392 . S
C348 C351 1.511 . S
C349 C345 1.376 . S
C349 C348 1.392 . S
C349 H361 0.929 . S
C350 C346 1.531 . S
C350 H362 0.960 . S
C350 H363 0.962 . S
C350 H364 0.960 . S
C351 C348 1.511 . S
C351 H365 0.961 . S
C351 H366 0.961 . S
C351 H367 0.961 . S
C352 C353 1.370 . S
C352 C354 1.363 . S
C352 H368 0.931 . S
C353 C352 1.370 . S
C353 C357 1.408 . S
C354 C352 1.363 . S
C354 C355 1.370 . S
C354 C358 1.524 . S
C355 C347 1.503 . S
C355 C354 1.370 . S
C355 C356 1.403 . S
C356 C355 1.403 . S
C356 C357 1.404 . S
C356 C359 1.539 . S
C357 C353 1.408 . S
C357 C356 1.404 . S
C357 H369 0.930 . S
C358 C354 1.524 . S
C358 H370 0.956 . S
C358 H371 0.961 . S
C358 H372 0.961 . S
C359 C356 1.539 . S
C359 H373 0.958 . S
C359 H374 0.961 . S
C359 H375 0.960 . S
H360 C344 0.931 . S
H361 C349 0.929 . S
H362 C350 0.960 . S
H363 C350 0.962 . S
H364 C350 0.960 . S
H365 C351 0.961 . S
H366 C351 0.961 . S
H367 C351 0.961 . S
H368 C352 0.931 . S
H369 C357 0.930 . S
H370 C358 0.956 . S
H371 C358 0.961 . S
H372 C358 0.961 . S
H373 C359 0.958 . S
H374 C359 0.961 . S
H375 C359 0.960 . S
C376 C377 1.391 . S
C376 C378 1.394 . S
C376 H392 0.931 . S
C377 C376 1.391 . S
C377 C381 1.376 . S
C378 C376 1.394 . S
C378 C379 1.369 . S
C378 C382 1.531 . S
C379 C378 1.369 . S
C379 C380 1.410 . S
C379 C387 1.503 . S
C380 C379 1.410 . S
C380 C381 1.392 . S
C380 C383 1.511 . S
C381 C377 1.376 . S
C381 C380 1.392 . S
C381 H393 0.929 . S
C382 C378 1.531 . S
C382 H394 0.960 . S
C382 H395 0.962 . S
C382 H396 0.960 . S
C383 C380 1.511 . S
C383 H397 0.961 . S
C383 H398 0.961 . S
C383 H399 0.961 . S
C384 C385 1.370 . S
C384 C386 1.363 . S
C384 H400 0.931 . S
C385 C384 1.370 . S
C385 C389 1.408 . S
C386 C384 1.363 . S
C386 C387 1.370 . S
C386 C390 1.524 . S
C387 C379 1.503 . S
C387 C386 1.370 . S
C387 C388 1.403 . S
C388 C387 1.403 . S
C388 C389 1.404 . S
C388 C391 1.539 . S
C389 C385 1.408 . S
C389 C388 1.404 . S
C389 H401 0.930 . S
C390 C386 1.524 . S
C390 H402 0.956 . S
C390 H403 0.961 . S
C390 H404 0.961 . S
C391 C388 1.539 . S
C391 H405 0.958 . S
C391 H406 0.961 . S
C391 H407 0.960 . S
H392 C376 0.931 . S
H393 C381 0.929 . S
H394 C382 0.960 . S
H395 C382 0.962 . S
H396 C382 0.960 . S
H397 C383 0.961 . S
H398 C383 0.961 . S
H399 C383 0.961 . S
H400 C384 0.931 . S
H401 C389 0.930 . S
H402 C390 0.956 . S
H403 C390 0.961 . S
H404 C390 0.961 . S
H405 C391 0.958 . S
H406 C391 0.961 . S
H407 C391 0.960 . S
C408 C409 1.391 . S
C408 C410 1.394 . S
C408 H424 0.931 . S
C409 C408 1.391 . S
C409 C413 1.376 1_455 S
C410 C408 1.394 . S
C410 C411 1.369 . S
C410 C414 1.531 . S
C411 C410 1.369 . S
C411 C412 1.410 1_455 S
C411 C419 1.503 . S
C412 C411 1.410 1_655 S
C412 C413 1.392 . S
C412 C415 1.511 . S
C413 C409 1.376 1_655 S
C413 C412 1.392 . S
C413 H425 0.929 . S
C414 C410 1.531 . S
C414 H426 0.960 . S
C414 H427 0.962 . S
C414 H428 0.960 . S
C415 C412 1.511 . S
C415 H429 0.961 . S
C415 H430 0.961 . S
C415 H431 0.961 . S
C416 C417 1.370 1_655 S
C416 C418 1.363 . S
C416 H432 0.931 . S
C417 C416 1.370 1_455 S
C417 C421 1.408 . S
C418 C416 1.363 . S
C418 C419 1.370 1_655 S
C418 C422 1.524 . S
C419 C411 1.503 . S
C419 C418 1.370 1_455 S
C419 C420 1.403 . S
C420 C419 1.403 . S
C420 C421 1.404 . S
C420 C423 1.539 . S
C421 C417 1.408 . S
C421 C420 1.404 . S
C421 H433 0.930 . S
C422 C418 1.524 . S
C422 H434 0.956 . S
C422 H435 0.961 . S
C422 H436 0.961 . S
C423 C420 1.539 . S
C423 H437 0.958 . S
C423 H438 0.961 . S
C423 H439 0.960 . S
H424 C408 0.931 . S
H425 C413 0.929 . S
H426 C414 0.960 . S
H427 C414 0.962 . S
H428 C414 0.960 . S
H429 C415 0.961 . S
H430 C415 0.961 . S
H431 C415 0.961 . S
H432 C416 0.931 . S
H433 C421 0.930 . S
H434 C422 0.956 . S
H435 C422 0.961 . S
H436 C422 0.961 . S
H437 C423 0.958 . S
H438 C423 0.961 . S
H439 C423 0.960 . S
C440 C441 1.363 1_545 S
C440 C442 1.394 . S
C440 H456 0.931 . S
C441 C440 1.363 1_565 S
C441 C445 1.405 . S
C442 C440 1.394 . S
C442 C443 1.369 1_545 S
C442 C446 1.531 . S
C443 C442 1.369 1_565 S
C443 C444 1.410 . S
C443 C451 1.503 . S
C444 C443 1.410 . S
C444 C445 1.392 . S
C444 C447 1.511 . S
C445 C441 1.405 . S
C445 C444 1.392 . S
C445 H457 0.929 . S
C446 C442 1.531 . S
C446 H458 0.960 . S
C446 H459 0.962 . S
C446 H460 0.960 . S
C447 C444 1.511 . S
C447 H461 0.961 . S
C447 H462 0.961 . S
C447 H463 0.961 . S
C448 C449 1.360 1_545 S
C448 C450 1.363 . S
C448 H464 0.931 . S
C449 C448 1.360 1_565 S
C449 C453 1.420 1_556 S
C450 C448 1.363 . S
C450 C451 1.370 1_546 S
C450 C454 1.524 . S
C451 C443 1.503 . S
C451 C450 1.370 1_564 S
C451 C452 1.403 . S
C452 C451 1.403 . S
C452 C453 1.404 . S
C452 C455 1.539 . S
C453 C449 1.420 1_554 S
C453 C452 1.404 . S
C453 H465 0.930 . S
C454 C450 1.524 . S
C454 H466 0.956 . S
C454 H467 0.961 . S
C454 H468 0.961 . S
C455 C452 1.539 . S
C455 H469 0.958 . S
C455 H470 0.961 . S
C455 H471 0.960 . S
H456 C440 0.931 . S
H457 C445 0.929 . S
H458 C446 0.960 . S
H459 C446 0.962 . S
H460 C446 0.960 . S
H461 C447 0.961 . S
H462 C447 0.961 . S
H463 C447 0.961 . S
H464 C448 0.931 . S
H465 C453 0.930 . S
H466 C454 0.956 . S
H467 C454 0.961 . S
H468 C454 0.961 . S
H469 C455 0.958 . S
H470 C455 0.961 . S
H471 C455 0.960 . S
C472 C473 1.391 . S
C472 C474 1.394 . S
C472 H488 0.931 . S
C473 C472 1.391 . S
C473 C477 1.376 . S
C474 C472 1.394 . S
C474 C475 1.369 . S
C474 C478 1.531 . S
C475 C474 1.369 . S
C475 C476 1.410 . S
C475 C483 1.503 . S
C476 C475 1.410 . S
C476 C477 1.392 . S
C476 C479 1.511 . S
C477 C473 1.376 . S
C477 C476 1.392 . S
C477 H489 0.929 . S
C478 C474 1.531 . S
C478 H490 0.960 . S
C478 H491 0.962 . S
C478 H492 0.960 . S
C479 C476 1.511 . S
C479 H493 0.961 . S
C479 H494 0.961 1_554 S
C479 H495 0.961 . S
C480 C481 1.370 . S
C480 C482 1.363 . S
C480 H496 0.931 . S
C481 C480 1.370 . S
C481 C485 1.408 . S
C482 C480 1.363 . S
C482 C483 1.370 1_556 S
C482 C486 1.524 . S
C483 C475 1.503 . S
C483 C482 1.370 1_554 S
C483 C484 1.403 . S
C484 C483 1.403 . S
C484 C485 1.404 1_554 S
C484 C487 1.539 . S
C485 C481 1.408 . S
C485 C484 1.404 1_556 S
C485 H497 0.930 . S
C486 C482 1.524 . S
C486 H498 0.956 1_556 S
C486 H499 0.961 . S
C486 H500 0.961 . S
C487 C484 1.539 . S
C487 H501 0.958 . S
C487 H502 0.961 . S
C487 H503 0.960 . S
H488 C472 0.931 . S
H489 C477 0.929 . S
H490 C478 0.960 . S
H491 C478 0.962 . S
H492 C478 0.960 . S
H493 C479 0.961 . S
H494 C479 0.961 1_556 S
H495 C479 0.961 . S
H496 C480 0.931 . S
H497 C485 0.930 . S
H498 C486 0.956 1_554 S
H499 C486 0.961 . S
H500 C486 0.961 . S
H501 C487 0.958 . S
H502 C487 0.961 . S
H503 C487 0.960 . S
C504 C505 1.391 . S
C504 C506 1.394 . S
C504 H520 0.931 . S
C505 C504 1.391 . S
C505 C509 1.376 . S
C506 C504 1.394 . S
C506 C507 1.369 . S
C506 C510 1.531 . S
C507 C506 1.369 . S
C507 C508 1.410 . S
C507 C515 1.503 . S
C508 C507 1.410 . S
C508 C509 1.392 . S
C508 C511 1.511 . S
C509 C505 1.376 . S
C509 C508 1.392 . S
C509 H521 0.929 . S
C510 C506 1.531 . S
C510 H522 0.960 . S
C510 H523 0.962 . S
C510 H524 0.960 . S
C511 C508 1.511 . S
C511 H525 0.961 . S
C511 H526 0.961 1_554 S
C511 H527 0.961 . S
C512 C513 1.370 . S
C512 C514 1.363 1_556 S
C512 H528 0.931 . S
C513 C512 1.370 . S
C513 C517 1.408 . S
C514 C512 1.363 1_554 S
C514 C515 1.370 . S
C514 C518 1.524 . S
C515 C507 1.503 . S
C515 C514 1.370 . S
C515 C516 1.403 . S
C516 C515 1.403 . S
C516 C517 1.404 1_554 S
C516 C519 1.539 . S
C517 C513 1.408 . S
C517 C516 1.404 1_556 S
C517 H529 0.930 . S
C518 C514 1.524 . S
C518 H530 0.956 . S
C518 H531 0.961 . S
C518 H532 0.967 . S
C519 C516 1.539 . S
C519 H533 0.958 . S
C519 H534 0.961 . S
C519 H535 0.960 . S
H520 C504 0.931 . S
H521 C509 0.929 . S
H522 C510 0.960 . S
H523 C510 0.962 . S
H524 C510 0.960 . S
H525 C511 0.961 . S
H526 C511 0.961 1_556 S
H527 C511 0.961 . S
H528 C512 0.931 . S
H529 C517 0.930 . S
H530 C518 0.956 . S
H531 C518 0.961 . S
H532 C518 0.967 . S
H533 C519 0.958 . S
H534 C519 0.961 . S
H535 C519 0.960 . S
C536 C537 1.387 1_455 S
C536 C538 1.394 . S
C536 H552 0.931 . S
C537 C536 1.387 1_655 S
C537 C541 1.380 . S
C538 C536 1.394 . S
C538 C539 1.364 . S
C538 C542 1.531 . S
C539 C538 1.364 . S
C539 C540 1.414 1_455 S
C539 C547 1.503 1_455 S
C540 C539 1.414 1_655 S
C540 C541 1.392 . S
C540 C543 1.511 . S
C541 C537 1.380 . S
C541 C540 1.392 . S
C541 H553 0.929 . S
C542 C538 1.531 . S
C542 H554 0.960 . S
C542 H555 0.962 . S
C542 H556 0.960 . S
C543 C540 1.511 . S
C543 H557 0.961 . S
C543 H558 0.961 . S
C543 H559 0.961 . S
C544 C545 1.370 . S
C544 C546 1.363 . S
C544 H560 0.931 . S
C545 C544 1.370 . S
C545 C549 1.408 1_556 S
C546 C544 1.363 . S
C546 C547 1.370 1_556 S
C546 C550 1.525 . S
C547 C539 1.503 1_655 S
C547 C546 1.370 1_554 S
C547 C548 1.402 1_655 S
C548 C547 1.402 1_455 S
C548 C549 1.404 1_455 S
C548 C551 1.538 1_455 S
C549 C545 1.408 1_554 S
C549 C548 1.404 1_655 S
C549 H561 0.930 . S
C550 C546 1.525 . S
C550 H562 0.956 1_655 S
C550 H563 0.961 . S
C550 H564 0.961 . S
C551 C548 1.538 1_655 S
C551 H565 0.923 1_655 S
C551 H566 0.981 . S
C551 H567 0.977 . S
H552 C536 0.931 . S
H553 C541 0.929 . S
H554 C542 0.960 . S
H555 C542 0.962 . S
H556 C542 0.960 . S
H557 C543 0.961 . S
H558 C543 0.961 . S
H559 C543 0.961 . S
H560 C544 0.931 . S
H561 C549 0.930 . S
H562 C550 0.956 1_455 S
H563 C550 0.961 . S
H564 C550 0.961 . S
H565 C551 0.923 1_455 S
H566 C551 0.981 . S
H567 C551 0.977 . S
C568 C569 1.391 . S
C568 C570 1.394 1_455 S
C568 H584 0.931 . S
C569 C568 1.391 . S
C569 C573 1.376 . S
C570 C568 1.394 1_655 S
C570 C571 1.369 . S
C570 C574 1.531 . S
C571 C570 1.369 . S
C571 C572 1.410 . S
C571 C579 1.503 . S
C572 C571 1.410 . S
C572 C573 1.392 1_655 S
C572 C575 1.511 . S
C573 C569 1.376 . S
C573 C572 1.392 1_455 S
C573 H585 0.929 . S
C574 C570 1.531 . S
C574 H586 0.960 1_655 S
C574 H587 0.962 . S
C574 H588 0.966 1_655 S
C575 C572 1.511 . S
C575 H589 0.961 . S
C575 H590 0.961 . S
C575 H591 0.961 1_655 S
C576 C577 1.370 . S
C576 C578 1.363 . S
C576 H592 0.931 . S
C577 C576 1.370 . S
C577 C581 1.403 . S
C578 C576 1.363 . S
C578 C579 1.370 . S
C578 C582 1.524 . S
C579 C571 1.503 . S
C579 C578 1.370 . S
C579 C580 1.403 1_655 S
C580 C579 1.403 1_455 S
C580 C581 1.405 1_455 S
C580 C583 1.539 . S
C581 C577 1.403 . S
C581 C580 1.405 1_655 S
C581 H593 0.933 1_655 S
C582 C578 1.524 . S
C582 H594 0.956 . S
C582 H595 0.961 . S
C582 H596 0.961 . S
C583 C580 1.539 . S
C583 H597 0.958 . S
C583 H598 0.961 . S
C583 H599 0.960 . S
H584 C568 0.931 . S
H585 C573 0.929 . S
H586 C574 0.960 1_455 S
H587 C574 0.962 . S
H588 C574 0.966 1_455 S
H589 C575 0.961 . S
H590 C575 0.961 . S
H591 C575 0.961 1_455 S
H592 C576 0.931 . S
H593 C581 0.933 1_455 S
H594 C582 0.956 . S
H595 C582 0.961 . S
H596 C582 0.961 . S
H597 C583 0.958 . S
H598 C583 0.961 . S
H599 C583 0.960 . S
C600 C601 1.390 1_565 S
C600 C602 1.394 . S
C600 H616 0.931 . S
C601 C600 1.390 1_545 S
C601 C605 1.377 . S
C602 C600 1.394 . S
C602 C603 1.369 . S
C602 C606 1.531 . S
C603 C602 1.369 . S
C603 C604 1.410 1_565 S
C603 C611 1.503 . S
C604 C603 1.410 1_545 S
C604 C605 1.392 . S
C604 C607 1.511 . S
C605 C601 1.377 . S
C605 C604 1.392 . S
C605 H617 0.929 . S
C606 C602 1.531 . S
C606 H618 0.960 . S
C606 H619 0.962 . S
C606 H620 0.960 . S
C607 C604 1.511 . S
C607 H621 0.961 . S
C607 H622 0.961 . S
C607 H623 0.961 . S
C608 C609 1.370 . S
C608 C610 1.363 . S
C608 H624 0.931 . S
C609 C608 1.370 . S
C609 C613 1.408 . S
C610 C608 1.363 . S
C610 C611 1.370 . S
C610 C614 1.524 1_565 S
C611 C603 1.503 . S
C611 C610 1.370 . S
C611 C612 1.403 . S
C612 C611 1.403 . S
C612 C613 1.404 . S
C612 C615 1.539 . S
C613 C609 1.408 . S
C613 C612 1.404 . S
C613 H625 0.930 . S
C614 C610 1.524 1_545 S
C614 H626 0.956 1_545 S
C614 H627 0.961 . S
C614 H628 0.961 . S
C615 C612 1.539 . S
C615 H629 0.958 . S
C615 H630 0.961 . S
C615 H631 0.960 . S
H616 C600 0.931 . S
H617 C605 0.929 . S
H618 C606 0.960 . S
H619 C606 0.962 . S
H620 C606 0.960 . S
H621 C607 0.961 . S
H622 C607 0.961 . S
H623 C607 0.961 . S
H624 C608 0.931 . S
H625 C613 0.930 . S
H626 C614 0.956 1_565 S
H627 C614 0.961 . S
H628 C614 0.961 . S
H629 C615 0.958 . S
H630 C615 0.961 . S
H631 C615 0.960 . S
C632 C633 1.391 . S
C632 C634 1.394 . S
C632 H648 0.931 . S
C633 C632 1.391 . S
C633 C637 1.376 . S
C634 C632 1.394 . S
C634 C635 1.369 . S
C634 C638 1.531 . S
C635 C634 1.369 . S
C635 C636 1.410 . S
C635 C643 1.503 . S
C636 C635 1.410 . S
C636 C637 1.392 . S
C636 C639 1.511 . S
C637 C633 1.376 . S
C637 C636 1.392 . S
C637 H649 0.940 . S
C638 C634 1.531 . S
C638 H650 0.960 . S
C638 H651 0.962 . S
C638 H652 0.960 . S
C639 C636 1.511 . S
C639 H653 0.961 1_554 S
C639 H654 0.961 . S
C639 H655 0.961 . S
C640 C641 1.370 . S
C640 C642 1.363 . S
C640 H656 0.931 . S
C641 C640 1.370 . S
C641 C645 1.408 . S
C642 C640 1.363 . S
C642 C643 1.370 . S
C642 C646 1.524 . S
C643 C635 1.503 . S
C643 C642 1.370 . S
C643 C644 1.403 . S
C644 C643 1.403 . S
C644 C645 1.404 . S
C644 C647 1.539 . S
C645 C641 1.408 . S
C645 C644 1.404 . S
C645 H657 0.930 . S
C646 C642 1.524 . S
C646 H658 0.956 . S
C646 H659 0.961 . S
C646 H660 0.961 . S
C647 C644 1.539 . S
C647 H661 0.958 . S
C647 H662 0.961 . S
C647 H663 0.960 . S
H648 C632 0.931 . S
H649 C637 0.940 . S
H650 C638 0.960 . S
H651 C638 0.962 . S
H652 C638 0.960 . S
H653 C639 0.961 1_556 S
H654 C639 0.961 . S
H655 C639 0.961 . S
H656 C640 0.931 . S
H657 C645 0.930 . S
H658 C646 0.956 . S
H659 C646 0.961 . S
H660 C646 0.961 . S
H661 C647 0.958 . S
H662 C647 0.961 . S
H663 C647 0.960 . S
C664 C665 1.391 . S
C664 C666 1.394 . S
C664 H680 0.931 . S
C665 C664 1.391 . S
C665 C669 1.376 . S
C666 C664 1.394 . S
C666 C667 1.369 . S
C666 C670 1.531 . S
C667 C666 1.369 . S
C667 C668 1.410 . S
C667 C675 1.503 . S
C668 C667 1.410 . S
C668 C669 1.392 . S
C668 C671 1.511 . S
C669 C665 1.376 . S
C669 C668 1.392 . S
C669 H681 0.929 . S
C670 C666 1.531 . S
C670 H682 0.960 . S
C670 H683 0.962 . S
C670 H684 0.960 . S
C671 C668 1.511 . S
C671 H685 0.961 . S
C671 H686 0.961 . S
C671 H687 0.961 . S
C672 C673 1.370 . S
C672 C674 1.363 . S
C672 H688 0.931 . S
C673 C672 1.370 . S
C673 C677 1.408 . S
C674 C672 1.363 . S
C674 C675 1.370 . S
C674 C678 1.524 . S
C675 C667 1.503 . S
C675 C674 1.370 . S
C675 C676 1.403 . S
C676 C675 1.403 . S
C676 C677 1.404 . S
C676 C679 1.539 . S
C677 C673 1.408 . S
C677 C676 1.404 . S
C677 H689 0.930 . S
C678 C674 1.524 . S
C678 H690 0.956 . S
C678 H691 0.961 . S
C678 H692 0.961 . S
C679 C676 1.539 . S
C679 H693 0.958 . S
C679 H694 0.961 . S
C679 H695 0.960 . S
H680 C664 0.931 . S
H681 C669 0.929 . S
H682 C670 0.960 . S
H683 C670 0.962 . S
H684 C670 0.960 . S
H685 C671 0.961 . S
H686 C671 0.961 . S
H687 C671 0.961 . S
H688 C672 0.931 . S
H689 C677 0.930 . S
H690 C678 0.956 . S
H691 C678 0.961 . S
H692 C678 0.961 . S
H693 C679 0.958 . S
H694 C679 0.961 . S
H695 C679 0.960 . S
C696 C697 1.387 1_455 S
C696 C698 1.394 . S
C696 H712 0.931 . S
C697 C696 1.387 1_655 S
C697 C701 1.379 . S
C698 C696 1.394 . S
C698 C699 1.369 . S
C698 C702 1.531 . S
C699 C698 1.369 . S
C699 C700 1.410 1_455 S
C699 C707 1.503 . S
C700 C699 1.410 1_655 S
C700 C701 1.392 . S
C700 C703 1.511 . S
C701 C697 1.379 . S
C701 C700 1.392 . S
C701 H713 0.929 . S
C702 C698 1.531 . S
C702 H714 0.960 . S
C702 H715 0.962 . S
C702 H716 0.960 . S
C703 C700 1.511 . S
C703 H717 0.961 . S
C703 H718 0.961 . S
C703 H719 0.961 . S
C704 C705 1.370 . S
C704 C706 1.363 . S
C704 H720 0.931 . S
C705 C704 1.370 . S
C705 C709 1.408 . S
C706 C704 1.363 . S
C706 C707 1.370 . S
C706 C710 1.524 1_455 S
C707 C699 1.503 . S
C707 C706 1.370 . S
C707 C708 1.403 . S
C708 C707 1.403 . S
C708 C709 1.404 . S
C708 C711 1.539 . S
C709 C705 1.408 . S
C709 C708 1.404 . S
C709 H721 0.930 1_554 S
C710 C706 1.524 1_655 S
C710 H722 0.956 1_655 S
C710 H723 0.961 . S
C710 H724 0.961 . S
C711 C708 1.539 . S
C711 H725 0.958 . S
C711 H726 0.961 1_554 S
C711 H727 0.960 . S
H712 C696 0.931 . S
H713 C701 0.929 . S
H714 C702 0.960 . S
H715 C702 0.962 . S
H716 C702 0.960 . S
H717 C703 0.961 . S
H718 C703 0.961 . S
H719 C703 0.961 . S
H720 C704 0.931 . S
H721 C709 0.930 1_556 S
H722 C710 0.956 1_455 S
H723 C710 0.961 . S
H724 C710 0.961 . S
H725 C711 0.958 . S
H726 C711 0.961 1_556 S
H727 C711 0.960 . S
C728 C729 1.391 . S
C728 C730 1.394 . S
C728 H744 0.930 1_545 S
C729 C728 1.391 . S
C729 C733 1.376 . S
C730 C728 1.394 . S
C730 C731 1.369 . S
C730 C734 1.531 . S
C731 C730 1.369 . S
C731 C732 1.410 . S
C731 C739 1.503 . S
C732 C731 1.410 . S
C732 C733 1.392 . S
C732 C735 1.511 . S
C733 C729 1.376 . S
C733 C732 1.392 . S
C733 H745 0.929 . S
C734 C730 1.531 . S
C734 H746 0.960 . S
C734 H747 0.962 1_545 S
C734 H748 0.960 . S
C735 C732 1.511 . S
C735 H749 0.961 . S
C735 H750 0.961 . S
C735 H751 0.961 . S
C736 C737 1.370 . S
C736 C738 1.363 1_545 S
C736 H752 0.931 1_545 S
C737 C736 1.370 . S
C737 C741 1.408 . S
C738 C736 1.363 1_565 S
C738 C739 1.369 1_565 S
C738 C742 1.526 . S
C739 C731 1.503 . S
C739 C738 1.369 1_545 S
C739 C740 1.403 . S
C740 C739 1.403 . S
C740 C741 1.404 . S
C740 C743 1.539 . S
C741 C737 1.408 . S
C741 C740 1.404 . S
C741 H753 0.930 . S
C742 C738 1.526 . S
C742 H754 0.956 . S
C742 H755 0.961 . S
C742 H756 0.961 . S
C743 C740 1.539 . S
C743 H757 0.958 . S
C743 H758 0.961 . S
C743 H759 0.960 . S
H744 C728 0.930 1_565 S
H745 C733 0.929 . S
H746 C734 0.960 . S
H747 C734 0.962 1_565 S
H748 C734 0.960 . S
H749 C735 0.961 . S
H750 C735 0.961 . S
H751 C735 0.961 . S
H752 C736 0.931 1_565 S
H753 C741 0.930 . S
H754 C742 0.956 . S
H755 C742 0.961 . S
H756 C742 0.961 . S
H757 C743 0.958 . S
H758 C743 0.961 . S
H759 C743 0.960 . S
C760 C761 1.391 . S
C760 C762 1.394 . S
C760 H776 0.931 . S
C761 C760 1.391 . S
C761 C765 1.376 . S
C762 C760 1.394 . S
C762 C763 1.369 . S
C762 C766 1.531 . S
C763 C762 1.369 . S
C763 C764 1.410 . S
C763 C771 1.503 . S
C764 C763 1.410 . S
C764 C765 1.392 . S
C764 C767 1.511 . S
C765 C761 1.376 . S
C765 C764 1.392 . S
C765 H777 0.929 . S
C766 C762 1.531 . S
C766 H778 0.960 . S
C766 H779 0.962 . S
C766 H780 0.960 . S
C767 C764 1.511 . S
C767 H781 0.961 . S
C767 H782 0.961 . S
C767 H783 0.961 . S
C768 C769 1.370 . S
C768 C770 1.363 . S
C768 H784 0.931 . S
C769 C768 1.370 . S
C769 C773 1.408 . S
C770 C768 1.363 . S
C770 C771 1.370 . S
C770 C774 1.524 . S
C771 C763 1.503 . S
C771 C770 1.370 . S
C771 C772 1.403 . S
C772 C771 1.403 . S
C772 C773 1.404 . S
C772 C775 1.539 . S
C773 C769 1.408 . S
C773 C772 1.404 . S
C773 H785 0.930 1_554 S
C774 C770 1.524 . S
C774 H786 0.956 . S
C774 H787 0.961 . S
C774 H788 0.961 . S
C775 C772 1.539 . S
C775 H789 0.958 . S
C775 H790 0.961 1_554 S
C775 H791 0.960 . S
H776 C760 0.931 . S
H777 C765 0.929 . S
H778 C766 0.960 . S
H779 C766 0.962 . S
H780 C766 0.960 . S
H781 C767 0.961 . S
H782 C767 0.961 . S
H783 C767 0.961 . S
H784 C768 0.931 . S
H785 C773 0.930 1_556 S
H786 C774 0.956 . S
H787 C774 0.961 . S
H788 C774 0.961 . S
H789 C775 0.958 . S
H790 C775 0.961 1_556 S
H791 C775 0.960 . S
C792 C793 1.391 . S
C792 C794 1.394 . S
C792 H808 0.931 . S
C793 C792 1.391 . S
C793 C797 1.376 . S
C794 C792 1.394 . S
C794 C795 1.369 . S
C794 C798 1.531 . S
C795 C794 1.369 . S
C795 C796 1.410 . S
C795 C803 1.503 . S
C796 C795 1.410 . S
C796 C797 1.392 . S
C796 C799 1.511 . S
C797 C793 1.376 . S
C797 C796 1.392 . S
C797 H809 0.929 . S
C798 C794 1.531 . S
C798 H810 0.960 . S
C798 H811 0.962 . S
C798 H812 0.960 . S
C799 C796 1.511 . S
C799 H813 0.961 . S
C799 H814 0.961 . S
C799 H815 0.961 . S
C800 C801 1.370 . S
C800 C802 1.363 . S
C800 H816 0.931 . S
C801 C800 1.370 . S
C801 C805 1.408 . S
C802 C800 1.363 . S
C802 C803 1.370 . S
C802 C806 1.524 . S
C803 C795 1.503 . S
C803 C802 1.370 . S
C803 C804 1.403 . S
C804 C803 1.403 . S
C804 C805 1.404 . S
C804 C807 1.539 . S
C805 C801 1.408 . S
C805 C804 1.404 . S
C805 H817 0.930 . S
C806 C802 1.524 . S
C806 H818 0.956 . S
C806 H819 0.961 . S
C806 H820 0.961 . S
C807 C804 1.539 . S
C807 H821 0.958 . S
C807 H822 0.961 . S
C807 H823 0.960 . S
H808 C792 0.931 . S
H809 C797 0.929 . S
H810 C798 0.960 . S
H811 C798 0.962 . S
H812 C798 0.960 . S
H813 C799 0.961 . S
H814 C799 0.961 . S
H815 C799 0.961 . S
H816 C800 0.931 . S
H817 C805 0.930 . S
H818 C806 0.956 . S
H819 C806 0.961 . S
H820 C806 0.961 . S
H821 C807 0.958 . S
H822 C807 0.961 . S
H823 C807 0.960 . S
C824 C825 1.383 1_655 S
C824 C826 1.394 . S
C824 H840 0.931 . S
C825 C824 1.383 1_455 S
C825 C829 1.384 . S
C826 C824 1.394 . S
C826 C827 1.355 1_655 S
C826 C830 1.531 . S
C827 C826 1.355 1_455 S
C827 C828 1.423 . S
C827 C835 1.505 . S
C828 C827 1.423 . S
C828 C829 1.392 . S
C828 C831 1.511 . S
C829 C825 1.384 . S
C829 C828 1.392 . S
C829 H841 0.929 . S
C830 C826 1.531 . S
C830 H842 0.960 . S
C830 H843 0.962 . S
C830 H844 0.960 . S
C831 C828 1.511 . S
C831 H845 0.961 . S
C831 H846 0.961 . S
C831 H847 0.961 . S
C832 C833 1.370 . S
C832 C834 1.363 . S
C832 H848 0.931 . S
C833 C832 1.370 . S
C833 C837 1.408 1_455 S
C834 C832 1.363 . S
C834 C835 1.370 . S
C834 C838 1.524 . S
C835 C827 1.505 . S
C835 C834 1.370 . S
C835 C836 1.403 1_455 S
C836 C835 1.403 1_655 S
C836 C837 1.404 . S
C836 C839 1.539 . S
C837 C833 1.408 1_655 S
C837 C836 1.404 . S
C837 H849 0.930 . S
C838 C834 1.524 . S
C838 H850 0.956 1_556 S
C838 H851 0.961 . S
C838 H852 0.961 1_556 S
C839 C836 1.539 . S
C839 H853 0.958 . S
C839 H854 0.961 . S
C839 H855 0.960 . S
H840 C824 0.931 . S
H841 C829 0.929 . S
H842 C830 0.960 . S
H843 C830 0.962 . S
H844 C830 0.960 . S
H845 C831 0.961 . S
H846 C831 0.961 . S
H847 C831 0.961 . S
H848 C832 0.931 . S
H849 C837 0.930 . S
H850 C838 0.956 1_554 S
H851 C838 0.961 . S
H852 C838 0.961 1_554 S
H853 C839 0.958 . S
H854 C839 0.961 . S
H855 C839 0.960 . S
C856 C857 1.410 . S
C856 C858 1.394 . S
C856 H872 0.931 . S
C857 C856 1.410 . S
C857 C861 1.357 1_545 S
C858 C856 1.394 . S
C858 C859 1.369 . S
C858 C862 1.531 . S
C859 C858 1.369 . S
C859 C860 1.410 1_545 S
C859 C867 1.503 . S
C860 C859 1.410 1_565 S
C860 C861 1.392 . S
C860 C863 1.511 . S
C861 C857 1.357 1_565 S
C861 C860 1.392 . S
C861 H873 0.929 . S
C862 C858 1.531 . S
C862 H874 0.960 . S
C862 H875 0.962 . S
C862 H876 0.960 . S
C863 C860 1.511 . S
C863 H877 0.961 . S
C863 H878 0.961 . S
C863 H879 0.961 . S
C864 C865 1.370 . S
C864 C866 1.363 . S
C864 H880 0.931 . S
C865 C864 1.370 . S
C865 C869 1.408 1_545 S
C866 C864 1.363 . S
C866 C867 1.370 . S
C866 C870 1.524 . S
C867 C859 1.503 . S
C867 C866 1.370 . S
C867 C868 1.403 1_545 S
C868 C867 1.403 1_565 S
C868 C869 1.404 . S
C868 C871 1.539 1_556 S
C869 C865 1.408 1_565 S
C869 C868 1.404 . S
C869 H881 0.930 . S
C870 C866 1.524 . S
C870 H882 0.956 . S
C870 H883 0.961 . S
C870 H884 0.961 . S
C871 C868 1.539 1_554 S
C871 H885 0.958 . S
C871 H886 0.961 . S
C871 H887 0.960 . S
H872 C856 0.931 . S
H873 C861 0.929 . S
H874 C862 0.960 . S
H875 C862 0.962 . S
H876 C862 0.960 . S
H877 C863 0.961 . S
H878 C863 0.961 . S
H879 C863 0.961 . S
H880 C864 0.931 . S
H881 C869 0.930 . S
H882 C870 0.956 . S
H883 C870 0.961 . S
H884 C870 0.961 . S
H885 C871 0.958 . S
H886 C871 0.961 . S
H887 C871 0.960 . S
C888 C889 1.391 . S
C888 C890 1.394 . S
C888 H904 0.931 . S
C889 C888 1.391 . S
C889 C893 1.376 . S
C890 C888 1.394 . S
C890 C891 1.369 . S
C890 C894 1.531 . S
C891 C890 1.369 . S
C891 C892 1.410 . S
C891 C899 1.503 . S
C892 C891 1.410 . S
C892 C893 1.392 . S
C892 C895 1.511 . S
C893 C889 1.376 . S
C893 C892 1.392 . S
C893 H905 0.929 . S
C894 C890 1.531 . S
C894 H906 0.960 . S
C894 H907 0.962 . S
C894 H908 0.960 1_556 S
C895 C892 1.511 . S
C895 H909 0.961 . S
C895 H910 0.961 . S
C895 H911 0.961 . S
C896 C897 1.370 . S
C896 C898 1.363 . S
C896 H912 0.931 . S
C897 C896 1.370 . S
C897 C901 1.408 . S
C898 C896 1.363 . S
C898 C899 1.370 . S
C898 C902 1.524 . S
C899 C891 1.503 . S
C899 C898 1.370 . S
C899 C900 1.403 . S
C900 C899 1.403 . S
C900 C901 1.404 . S
C900 C903 1.539 . S
C901 C897 1.408 . S
C901 C900 1.404 . S
C901 H913 0.930 . S
C902 C898 1.524 . S
C902 H914 0.956 . S
C902 H915 0.961 . S
C902 H916 0.961 . S
C903 C900 1.539 . S
C903 H917 0.958 1_556 S
C903 H918 0.961 1_556 S
C903 H919 0.960 . S
H904 C888 0.931 . S
H905 C893 0.929 . S
H906 C894 0.960 . S
H907 C894 0.962 . S
H908 C894 0.960 1_554 S
H909 C895 0.961 . S
H910 C895 0.961 . S
H911 C895 0.961 . S
H912 C896 0.931 . S
H913 C901 0.930 . S
H914 C902 0.956 . S
H915 C902 0.961 . S
H916 C902 0.961 . S
H917 C903 0.958 1_554 S
H918 C903 0.961 1_554 S
H919 C903 0.960 . S
C920 C921 1.391 . S
C920 C922 1.394 . S
C920 H936 0.931 . S
C921 C920 1.391 . S
C921 C925 1.376 . S
C922 C920 1.394 . S
C922 C923 1.369 . S
C922 C926 1.531 . S
C923 C922 1.369 . S
C923 C924 1.410 . S
C923 C931 1.503 . S
C924 C923 1.410 . S
C924 C925 1.392 . S
C924 C927 1.511 1_556 S
C925 C921 1.376 . S
C925 C924 1.392 . S
C925 H937 0.929 . S
C926 C922 1.531 . S
C926 H938 0.960 . S
C926 H939 0.962 . S
C926 H940 0.960 . S
C927 C924 1.511 1_554 S
C927 H941 0.961 . S
C927 H942 0.961 . S
C927 H943 0.961 . S
C928 C929 1.370 . S
C928 C930 1.363 . S
C928 H944 0.931 . S
C929 C928 1.370 . S
C929 C933 1.408 . S
C930 C928 1.363 . S
C930 C931 1.370 . S
C930 C934 1.524 . S
C931 C923 1.503 . S
C931 C930 1.370 . S
C931 C932 1.403 . S
C932 C931 1.403 . S
C932 C933 1.404 . S
C932 C935 1.539 . S
C933 C929 1.408 . S
C933 C932 1.404 . S
C933 H945 0.930 . S
C934 C930 1.524 . S
C934 H946 0.956 . S
C934 H947 0.961 . S
C934 H948 0.961 . S
C935 C932 1.539 . S
C935 H949 0.958 . S
C935 H950 0.961 . S
C935 H951 0.960 . S
H936 C920 0.931 . S
H937 C925 0.929 . S
H938 C926 0.960 . S
H939 C926 0.962 . S
H940 C926 0.960 . S
H941 C927 0.961 . S
H942 C927 0.961 . S
H943 C927 0.961 . S
H944 C928 0.931 . S
H945 C933 0.930 . S
H946 C934 0.956 . S
H947 C934 0.961 . S
H948 C934 0.961 . S
H949 C935 0.958 . S
H950 C935 0.961 . S
H951 C935 0.960 . S
C952 C953 1.414 . S
C952 C954 1.394 . S
C952 H968 0.931 . S
C953 C952 1.414 . S
C953 C957 1.353 1_655 S
C954 C952 1.394 . S
C954 C955 1.369 . S
C954 C958 1.531 . S
C955 C954 1.369 . S
C955 C956 1.410 1_655 S
C955 C963 1.503 . S
C956 C955 1.410 1_455 S
C956 C957 1.392 . S
C956 C959 1.511 . S
C957 C953 1.353 1_455 S
C957 C956 1.392 . S
C957 H969 0.929 . S
C958 C954 1.531 . S
C958 H970 0.960 . S
C958 H971 0.962 . S
C958 H972 0.960 . S
C959 C956 1.511 . S
C959 H973 0.961 . S
C959 H974 0.961 . S
C959 H975 0.961 . S
C960 C961 1.370 . S
C960 C962 1.363 . S
C960 H976 0.931 . S
C961 C960 1.370 . S
C961 C965 1.408 1_655 S
C962 C960 1.363 . S
C962 C963 1.370 . S
C962 C966 1.524 . S
C963 C955 1.503 . S
C963 C962 1.370 . S
C963 C964 1.403 1_655 S
C964 C963 1.403 1_455 S
C964 C965 1.404 . S
C964 C967 1.539 . S
C965 C961 1.408 1_455 S
C965 C964 1.404 . S
C965 H977 0.930 . S
C966 C962 1.524 . S
C966 H978 0.956 . S
C966 H979 0.961 . S
C966 H980 0.961 . S
C967 C964 1.539 . S
C967 H981 0.958 . S
C967 H982 0.961 . S
C967 H983 0.960 . S
H968 C952 0.931 . S
H969 C957 0.929 . S
H970 C958 0.960 . S
H971 C958 0.962 . S
H972 C958 0.960 . S
H973 C959 0.961 . S
H974 C959 0.961 . S
H975 C959 0.961 . S
H976 C960 0.931 . S
H977 C965 0.930 . S
H978 C966 0.956 . S
H979 C966 0.961 . S
H980 C966 0.961 . S
H981 C967 0.958 . S
H982 C967 0.961 . S
H983 C967 0.960 . S
C984 C985 1.392 . S
C984 C986 1.394 . S
C984 H1000 0.931 . S
C985 C984 1.392 . S
C985 C989 1.375 1_545 S
C986 C984 1.394 . S
C986 C987 1.377 . S
C986 C990 1.531 . S
C987 C986 1.377 . S
C987 C988 1.401 1_545 S
C987 C995 1.502 1_545 S
C988 C987 1.401 1_565 S
C988 C989 1.392 . S
C988 C991 1.511 . S
C989 C985 1.375 1_565 S
C989 C988 1.392 . S
C989 H1001 0.929 . S
C990 C986 1.531 . S
C990 H1002 0.960 . S
C990 H1003 0.962 . S
C990 H1004 0.960 . S
C991 C988 1.511 . S
C991 H1005 0.961 . S
C991 H1006 0.961 . S
C991 H1007 0.961 . S
C992 C993 1.370 . S
C992 C994 1.363 . S
C992 H1008 0.931 . S
C993 C992 1.370 . S
C993 C997 1.408 1_565 S
C994 C992 1.363 . S
C994 C995 1.370 . S
C994 C998 1.524 . S
C995 C987 1.502 1_565 S
C995 C994 1.370 . S
C995 C996 1.403 1_565 S
C996 C995 1.403 1_545 S
C996 C997 1.404 . S
C996 C999 1.539 . S
C997 C993 1.408 1_545 S
C997 C996 1.404 . S
C997 H1009 0.930 . S
C998 C994 1.524 . S
C998 H1010 0.956 . S
C998 H1011 0.961 . S
C998 H1012 0.961 . S
C999 C996 1.539 . S
C999 H1013 0.958 . S
C999 H1014 0.961 . S
C999 H1015 0.960 . S
H1000 C984 0.931 . S
H1001 C989 0.929 . S
H1002 C990 0.960 . S
H1003 C990 0.962 . S
H1004 C990 0.960 . S
H1005 C991 0.961 . S
H1006 C991 0.961 . S
H1007 C991 0.961 . S
H1008 C992 0.931 . S
H1009 C997 0.930 . S
H1010 C998 0.956 . S
H1011 C998 0.961 . S
H1012 C998 0.961 . S
H1013 C999 0.958 . S
H1014 C999 0.961 . S
H1015 C999 0.960 . S
C1016 C1017 1.391 . S
C1016 C1018 1.394 . S
C1016 H1032 0.931 . S
C1017 C1016 1.391 . S
C1017 C1021 1.376 . S
C1018 C1016 1.394 . S
C1018 C1019 1.369 . S
C1018 C1022 1.531 . S
C1019 C1018 1.369 . S
C1019 C1020 1.410 . S
C1019 C1027 1.503 . S
C1020 C1019 1.410 . S
C1020 C1021 1.392 . S
C1020 C1023 1.511 . S
C1021 C1017 1.376 . S
C1021 C1020 1.392 . S
C1021 H1033 0.929 . S
C1022 C1018 1.531 . S
C1022 H1034 0.960 . S
C1022 H1035 0.962 . S
C1022 H1036 0.960 . S
C1023 C1020 1.511 . S
C1023 H1037 0.961 . S
C1023 H1038 0.961 . S
C1023 H1039 0.961 . S
C1024 C1025 1.370 . S
C1024 C1026 1.363 . S
C1024 H1040 0.931 . S
C1025 C1024 1.370 . S
C1025 C1029 1.408 . S
C1026 C1024 1.363 . S
C1026 C1027 1.370 . S
C1026 C1030 1.524 . S
C1027 C1019 1.503 . S
C1027 C1026 1.370 . S
C1027 C1028 1.403 . S
C1028 C1027 1.403 . S
C1028 C1029 1.404 . S
C1028 C1031 1.539 . S
C1029 C1025 1.408 . S
C1029 C1028 1.404 . S
C1029 H1041 0.930 . S
C1030 C1026 1.524 . S
C1030 H1042 0.956 . S
C1030 H1043 0.961 . S
C1030 H1044 0.961 . S
C1031 C1028 1.539 . S
C1031 H1045 0.958 . S
C1031 H1046 0.961 . S
C1031 H1047 0.960 . S
H1032 C1016 0.931 . S
H1033 C1021 0.929 . S
H1034 C1022 0.960 . S
H1035 C1022 0.962 . S
H1036 C1022 0.960 . S
H1037 C1023 0.961 . S
H1038 C1023 0.961 . S
H1039 C1023 0.961 . S
H1040 C1024 0.931 . S
H1041 C1029 0.930 . S
H1042 C1030 0.956 . S
H1043 C1030 0.961 . S
H1044 C1030 0.961 . S
H1045 C1031 0.958 . S
H1046 C1031 0.961 . S
H1047 C1031 0.960 . S
C1048 C1049 1.391 . S
C1048 C1050 1.394 . S
C1048 H1064 0.931 . S
C1049 C1048 1.391 . S
C1049 C1053 1.376 . S
C1050 C1048 1.394 . S
C1050 C1051 1.369 . S
C1050 C1054 1.531 . S
C1051 C1050 1.369 . S
C1051 C1052 1.410 . S
C1051 C1059 1.503 . S
C1052 C1051 1.410 . S
C1052 C1053 1.392 . S
C1052 C1055 1.511 . S
C1053 C1049 1.376 . S
C1053 C1052 1.392 . S
C1053 H1065 0.929 . S
C1054 C1050 1.531 . S
C1054 H1066 0.960 . S
C1054 H1067 0.962 . S
C1054 H1068 0.960 . S
C1055 C1052 1.511 . S
C1055 H1069 0.961 . S
C1055 H1070 0.961 . S
C1055 H1071 0.961 . S
C1056 C1057 1.370 . S
C1056 C1058 1.363 . S
C1056 H1072 0.931 . S
C1057 C1056 1.370 . S
C1057 C1061 1.408 . S
C1058 C1056 1.363 . S
C1058 C1059 1.370 . S
C1058 C1062 1.524 . S
C1059 C1051 1.503 . S
C1059 C1058 1.370 . S
C1059 C1060 1.403 . S
C1060 C1059 1.403 . S
C1060 C1061 1.404 . S
C1060 C1063 1.539 . S
C1061 C1057 1.408 . S
C1061 C1060 1.404 . S
C1061 H1073 0.930 . S
C1062 C1058 1.524 . S
C1062 H1074 0.956 . S
C1062 H1075 0.961 . S
C1062 H1076 0.961 . S
C1063 C1060 1.539 . S
C1063 H1077 0.958 . S
C1063 H1078 0.961 . S
C1063 H1079 0.960 . S
H1064 C1048 0.931 . S
H1065 C1053 0.929 . S
H1066 C1054 0.960 . S
H1067 C1054 0.962 . S
H1068 C1054 0.960 . S
H1069 C1055 0.961 . S
H1070 C1055 0.961 . S
H1071 C1055 0.961 . S
H1072 C1056 0.931 . S
H1073 C1061 0.930 . S
H1074 C1062 0.956 . S
H1075 C1062 0.961 . S
H1076 C1062 0.961 . S
H1077 C1063 0.958 . S
H1078 C1063 0.961 . S
H1079 C1063 0.960 . S
C313 C125 1.901 . S
C321 C154 1.961 . S
C353 C194 1.977 . S
C345 C144 1.946 . S
C385 C234 1.979 . S
C377 C87 1.944 . S
C417 C274 1.974 1_455 S
C409 C106 1.935 1_455 S
C449 C167 1.968 1_565 S
C441 C49 1.919 . S
C473 C68 1.900 . S
C481 C207 1.980 . S
C505 C11 1.900 . S
C513 C247 1.980 . S
C537 C30 1.919 . S
C545 C287 1.971 1_655 S
C577 C178 0.483 . S
C569 C97 0.587 . S
C609 C218 0.514 . S
C601 C116 0.470 . S
C641 C258 0.532 . S
C633 C135 0.556 . S
C665 C78 0.632 . S
C673 C298 0.492 . S
C697 C21 0.615 . S
C705 C161 0.510 . S
C737 C201 0.526 . S
C729 C40 0.529 1_545 S
C769 C241 0.514 . S
C761 C59 0.644 . S
C793 C2 0.469 . S
C801 C281 0.522 . S
C825 C101 2.091 1_455 S
C833 C155 2.283 . S
C857 C120 2.011 1_545 S
C865 C195 2.278 . S
C897 C235 2.270 . S
C889 C139 2.006 . S
C929 C275 2.288 . S
C921 C82 2.042 . S
C953 C25 2.093 . S
C961 C174 2.294 . S
C993 C214 2.278 . S
C985 C44 2.016 1_545 S
C1025 C254 2.273 . S
C1017 C63 1.999 . S
C1049 C6 2.084 . S
C1057 C294 2.286 . S
