# Generated by pormake.
# Topology ptr, (4,4)-cn, num edge types: 1
# Building blocks:
#     Node 0, Type 0, BuildingBlock: GALJAG_clean_sbu_0, # of connection points: 4
#     Node 1, Type 0, BuildingBlock: GALJAG_clean_sbu_0, # of connection points: 4
#     Node 2, Type 0, BuildingBlock: GALJAG_clean_sbu_0, # of connection points: 4
#     Node 3, Type 0, BuildingBlock: GALJAG_clean_sbu_0, # of connection points: 4
#     Node 4, Type 0, BuildingBlock: GALJAG_clean_sbu_0, # of connection points: 4
#     Node 5, Type 0, BuildingBlock: GALJAG_clean_sbu_0, # of connection points: 4
#     Node 6, Type 0, BuildingBlock: GALJAG_clean_sbu_0, # of connection points: 4
#     Node 7, Type 0, BuildingBlock: GALJAG_clean_sbu_0, # of connection points: 4
#     Node 8, Type 0, BuildingBlock: GALJAG_clean_sbu_0, # of connection points: 4
#     Node 9, Type 0, BuildingBlock: GALJAG_clean_sbu_0, # of connection points: 4
#     Node 10, Type 0, BuildingBlock: GALJAG_clean_sbu_0, # of connection points: 4
#     Node 11, Type 0, BuildingBlock: GALJAG_clean_sbu_0, # of connection points: 4
#     Node 12, Type 0, BuildingBlock: GALJAG_clean_sbu_0, # of connection points: 4
#     Node 13, Type 0, BuildingBlock: GALJAG_clean_sbu_0, # of connection points: 4
#     Node 14, Type 0, BuildingBlock: GALJAG_clean_sbu_0, # of connection points: 4
#     Node 15, Type 0, BuildingBlock: GALJAG_clean_sbu_0, # of connection points: 4
#     Node 16, Type 0, BuildingBlock: GALJAG_clean_sbu_0, # of connection points: 4
#     Node 17, Type 0, BuildingBlock: GALJAG_clean_sbu_0, # of connection points: 4
#     Node 18, Type 1, BuildingBlock: KUFVIS_clean_linker_0, # of connection points: 4
#     Node 19, Type 1, BuildingBlock: KUFVIS_clean_linker_0, # of connection points: 4
#     Node 20, Type 1, BuildingBlock: KUFVIS_clean_linker_0, # of connection points: 4
#     Node 21, Type 1, BuildingBlock: KUFVIS_clean_linker_0, # of connection points: 4
#     Node 22, Type 1, BuildingBlock: KUFVIS_clean_linker_0, # of connection points: 4
#     Node 23, Type 1, BuildingBlock: KUFVIS_clean_linker_0, # of connection points: 4
#     Node 24, Type 1, BuildingBlock: KUFVIS_clean_linker_0, # of connection points: 4
#     Node 25, Type 1, BuildingBlock: KUFVIS_clean_linker_0, # of connection points: 4
#     Node 26, Type 1, BuildingBlock: KUFVIS_clean_linker_0, # of connection points: 4
#     Node 27, Type 1, BuildingBlock: KUFVIS_clean_linker_0, # of connection points: 4
#     Node 28, Type 1, BuildingBlock: KUFVIS_clean_linker_0, # of connection points: 4
#     Node 29, Type 1, BuildingBlock: KUFVIS_clean_linker_0, # of connection points: 4
#     Node 30, Type 1, BuildingBlock: KUFVIS_clean_linker_0, # of connection points: 4
#     Node 31, Type 1, BuildingBlock: KUFVIS_clean_linker_0, # of connection points: 4
#     Node 32, Type 1, BuildingBlock: KUFVIS_clean_linker_0, # of connection points: 4
#     Node 33, Type 1, BuildingBlock: KUFVIS_clean_linker_0, # of connection points: 4
#     Node 34, Type 1, BuildingBlock: KUFVIS_clean_linker_0, # of connection points: 4
#     Node 35, Type 1, BuildingBlock: KUFVIS_clean_linker_0, # of connection points: 4
#     Edge 36, Type (0, 1), BuildingBlock: CIFDUS_clean_linker_0, # of connection points: 2
#     Edge 37, Type (0, 1), BuildingBlock: CIFDUS_clean_linker_0, # of connection points: 2
#     Edge 38, Type (0, 1), BuildingBlock: CIFDUS_clean_linker_0, # of connection points: 2
#     Edge 39, Type (0, 1), BuildingBlock: CIFDUS_clean_linker_0, # of connection points: 2
#     Edge 40, Type (0, 1), BuildingBlock: CIFDUS_clean_linker_0, # of connection points: 2
#     Edge 41, Type (0, 1), BuildingBlock: CIFDUS_clean_linker_0, # of connection points: 2
#     Edge 42, Type (0, 1), BuildingBlock: CIFDUS_clean_linker_0, # of connection points: 2
#     Edge 43, Type (0, 1), BuildingBlock: CIFDUS_clean_linker_0, # of connection points: 2
#     Edge 44, Type (0, 1), BuildingBlock: CIFDUS_clean_linker_0, # of connection points: 2
#     Edge 45, Type (0, 1), BuildingBlock: CIFDUS_clean_linker_0, # of connection points: 2
#     Edge 46, Type (0, 1), BuildingBlock: CIFDUS_clean_linker_0, # of connection points: 2
#     Edge 47, Type (0, 1), BuildingBlock: CIFDUS_clean_linker_0, # of connection points: 2
#     Edge 48, Type (0, 1), BuildingBlock: CIFDUS_clean_linker_0, # of connection points: 2
#     Edge 49, Type (0, 1), BuildingBlock: CIFDUS_clean_linker_0, # of connection points: 2
#     Edge 50, Type (0, 1), BuildingBlock: CIFDUS_clean_linker_0, # of connection points: 2
#     Edge 51, Type (0, 1), BuildingBlock: CIFDUS_clean_linker_0, # of connection points: 2
#     Edge 52, Type (0, 1), BuildingBlock: CIFDUS_clean_linker_0, # of connection points: 2
#     Edge 53, Type (0, 1), BuildingBlock: CIFDUS_clean_linker_0, # of connection points: 2
#     Edge 54, Type (0, 1), BuildingBlock: CIFDUS_clean_linker_0, # of connection points: 2
#     Edge 55, Type (0, 1), BuildingBlock: CIFDUS_clean_linker_0, # of connection points: 2
#     Edge 56, Type (0, 1), BuildingBlock: CIFDUS_clean_linker_0, # of connection points: 2
#     Edge 57, Type (0, 1), BuildingBlock: CIFDUS_clean_linker_0, # of connection points: 2
#     Edge 58, Type (0, 1), BuildingBlock: CIFDUS_clean_linker_0, # of connection points: 2
#     Edge 59, Type (0, 1), BuildingBlock: CIFDUS_clean_linker_0, # of connection points: 2
#     Edge 60, Type (0, 1), BuildingBlock: CIFDUS_clean_linker_0, # of connection points: 2
#     Edge 61, Type (0, 1), BuildingBlock: CIFDUS_clean_linker_0, # of connection points: 2
#     Edge 62, Type (0, 1), BuildingBlock: CIFDUS_clean_linker_0, # of connection points: 2
#     Edge 63, Type (0, 1), BuildingBlock: CIFDUS_clean_linker_0, # of connection points: 2
#     Edge 64, Type (0, 1), BuildingBlock: CIFDUS_clean_linker_0, # of connection points: 2
#     Edge 65, Type (0, 1), BuildingBlock: CIFDUS_clean_linker_0, # of connection points: 2
#     Edge 66, Type (0, 1), BuildingBlock: CIFDUS_clean_linker_0, # of connection points: 2
#     Edge 67, Type (0, 1), BuildingBlock: CIFDUS_clean_linker_0, # of connection points: 2
#     Edge 68, Type (0, 1), BuildingBlock: CIFDUS_clean_linker_0, # of connection points: 2
#     Edge 69, Type (0, 1), BuildingBlock: CIFDUS_clean_linker_0, # of connection points: 2
#     Edge 70, Type (0, 1), BuildingBlock: CIFDUS_clean_linker_0, # of connection points: 2
#     Edge 71, Type (0, 1), BuildingBlock: CIFDUS_clean_linker_0, # of connection points: 2
#     Edge 72, Type (0, 1), BuildingBlock: CIFDUS_clean_linker_0, # of connection points: 2
#     Edge 73, Type (0, 1), BuildingBlock: CIFDUS_clean_linker_0, # of connection points: 2
#     Edge 74, Type (0, 1), BuildingBlock: CIFDUS_clean_linker_0, # of connection points: 2
#     Edge 75, Type (0, 1), BuildingBlock: CIFDUS_clean_linker_0, # of connection points: 2
#     Edge 76, Type (0, 1), BuildingBlock: CIFDUS_clean_linker_0, # of connection points: 2
#     Edge 77, Type (0, 1), BuildingBlock: CIFDUS_clean_linker_0, # of connection points: 2
#     Edge 78, Type (0, 1), BuildingBlock: CIFDUS_clean_linker_0, # of connection points: 2
#     Edge 79, Type (0, 1), BuildingBlock: CIFDUS_clean_linker_0, # of connection points: 2
#     Edge 80, Type (0, 1), BuildingBlock: CIFDUS_clean_linker_0, # of connection points: 2
#     Edge 81, Type (0, 1), BuildingBlock: CIFDUS_clean_linker_0, # of connection points: 2
#     Edge 82, Type (0, 1), BuildingBlock: CIFDUS_clean_linker_0, # of connection points: 2
#     Edge 83, Type (0, 1), BuildingBlock: CIFDUS_clean_linker_0, # of connection points: 2
#     Edge 84, Type (0, 1), BuildingBlock: CIFDUS_clean_linker_0, # of connection points: 2
#     Edge 85, Type (0, 1), BuildingBlock: CIFDUS_clean_linker_0, # of connection points: 2
#     Edge 86, Type (0, 1), BuildingBlock: CIFDUS_clean_linker_0, # of connection points: 2
#     Edge 87, Type (0, 1), BuildingBlock: CIFDUS_clean_linker_0, # of connection points: 2
#     Edge 88, Type (0, 1), BuildingBlock: CIFDUS_clean_linker_0, # of connection points: 2
#     Edge 89, Type (0, 1), BuildingBlock: CIFDUS_clean_linker_0, # of connection points: 2
#     Edge 90, Type (0, 1), BuildingBlock: CIFDUS_clean_linker_0, # of connection points: 2
#     Edge 91, Type (0, 1), BuildingBlock: CIFDUS_clean_linker_0, # of connection points: 2
#     Edge 92, Type (0, 1), BuildingBlock: CIFDUS_clean_linker_0, # of connection points: 2
#     Edge 93, Type (0, 1), BuildingBlock: CIFDUS_clean_linker_0, # of connection points: 2
#     Edge 94, Type (0, 1), BuildingBlock: CIFDUS_clean_linker_0, # of connection points: 2
#     Edge 95, Type (0, 1), BuildingBlock: CIFDUS_clean_linker_0, # of connection points: 2
#     Edge 96, Type (0, 1), BuildingBlock: CIFDUS_clean_linker_0, # of connection points: 2
#     Edge 97, Type (0, 1), BuildingBlock: CIFDUS_clean_linker_0, # of connection points: 2
#     Edge 98, Type (0, 1), BuildingBlock: CIFDUS_clean_linker_0, # of connection points: 2
#     Edge 99, Type (0, 1), BuildingBlock: CIFDUS_clean_linker_0, # of connection points: 2
#     Edge 100, Type (0, 1), BuildingBlock: CIFDUS_clean_linker_0, # of connection points: 2
#     Edge 101, Type (0, 1), BuildingBlock: CIFDUS_clean_linker_0, # of connection points: 2
#     Edge 102, Type (0, 1), BuildingBlock: CIFDUS_clean_linker_0, # of connection points: 2
#     Edge 103, Type (0, 1), BuildingBlock: CIFDUS_clean_linker_0, # of connection points: 2
#     Edge 104, Type (0, 1), BuildingBlock: CIFDUS_clean_linker_0, # of connection points: 2
#     Edge 105, Type (0, 1), BuildingBlock: CIFDUS_clean_linker_0, # of connection points: 2
#     Edge 106, Type (0, 1), BuildingBlock: CIFDUS_clean_linker_0, # of connection points: 2
#     Edge 107, Type (0, 1), BuildingBlock: CIFDUS_clean_linker_0, # of connection points: 2
# Relax obj value: 0.068
# Max RMSD: 0.101
# Mean RMSD: 0.096
data_MOF--net-ptr--node1-GALJAG_clean_sbu_0--node2-KUFVIS_clean_linker_0--edge1-CIFDUS_clean_linker_0
_symmetry_space_group_name_H-M    P1
_symmetry_Int_Tables_number       1
_symmetry_cell_setting            triclinic
loop_
_symmetry_equiv_pos_as_xyz
'x, y, z'
_cell_length_a     67.658604
_cell_length_b     67.614735
_cell_length_c     45.742605
_cell_angle_alpha  89.93437
_cell_angle_beta   90.365042
_cell_angle_gamma 120.03433
loop_
_atom_site_label
_atom_site_type_symbol
_atom_site_fract_x
_atom_site_fract_y
_atom_site_fract_z
_atom_type_partial_charge
In0 In 1.01896 0.37186 0.00888 0.0
O1 O 1.00077 0.37924 0.04637 0.0
O2 O 0.03639 0.40113 0.04119 0.0
C3 C 0.9881 0.32872 0.99365 0.0
C4 C 0.05167 0.36195 0.02402 0.0
C5 C 1.01693 0.39497 0.96155 0.0
O6 O 0.98351 0.33969 0.01222 0.0
O7 O 1.00795 0.33953 0.98307 0.0
O8 O 0.0357 0.39897 0.97266 0.0
O9 O 0.99957 0.37959 0.97419 0.0
C10 C 1.01878 0.39651 0.05548 0.0
O11 O 0.05501 0.37657 0.0045 0.0
O12 O 0.03221 0.35279 0.03574 0.0
In13 In 0.67061 0.65505 0.01555 0.0
O14 O 0.67182 0.64285 0.06203 0.0
O15 O 0.63949 0.63404 0.04399 0.0
C16 C 0.71081 0.65935 -0.00151 0.0
C17 C 0.67832 0.6977 0.02757 0.0
C18 C 0.64366 0.6288 0.9711 0.0
O19 O 0.69789 0.64444 0.01662 0.0
O20 O 0.70333 0.67184 0.98868 0.0
O21 O 0.64994 0.64978 0.9731 0.0
O22 O 0.65147 0.62157 0.99083 0.0
C23 C 0.65045 0.63237 0.06527 0.0
O24 O 0.65945 0.6823 0.0174 0.0
O25 O 0.69281 0.69146 0.03177 0.0
In26 In 0.37771 0.01617 0.00827 0.0
O27 O 0.38756 0.05358 -0.00122 0.0
O28 O 0.3525 0.02905 0.00052 0.0
C29 C 0.40743 0.02317 0.05203 0.0
C30 C 0.397 1.01005 0.95988 0.0
C31 C 0.34202 0.97812 0.03109 0.0
O32 O 0.39769 0.03493 0.04939 0.0
O33 O 0.40223 1.00812 0.03253 0.0
O34 O 0.34382 0.98171 0.00387 0.0
O35 O 0.35756 0.99375 0.04627 0.0
C36 C 0.36736 0.04965 -0.00349 0.0
O37 O 0.37585 0.99837 0.96458 0.0
O38 O 0.40808 0.02492 0.97905 0.0
In39 In 0.02634 0.65634 0.00735 0.0
O40 O 0.04513 0.66079 0.9642 0.0
O41 O 0.03179 0.62902 0.98635 0.0
C42 C 0.05278 0.70164 0.01871 0.0
C43 C 0.98548 0.64926 0.98655 0.0
C44 C 0.02676 0.63378 0.05635 0.0
O45 O 0.06064 0.69005 0.00722 0.0
O46 O 0.03163 0.6905 0.02368 0.0
O47 O 1.00986 0.62587 0.03916 0.0
O48 O 0.04296 0.6531 0.04926 0.0
C49 C 0.04221 0.6408 0.96432 0.0
O50 O 0.99248 0.65686 0.01197 0.0
O51 O 0.99884 0.6452 0.97214 0.0
In52 In 0.38709 0.37809 0.01531 0.0
O53 O 0.38879 0.39667 0.97261 0.0
O54 O 0.4174 0.39346 0.98421 0.0
C55 C 0.34782 0.3765 0.03091 0.0
C56 C 0.37924 0.33461 0.00838 0.0
C57 C 0.41483 0.40627 0.05774 0.0
O58 O 0.35163 0.37351 0.00476 0.0
O59 O 0.36332 0.37962 0.04892 0.0
O60 O 0.4063 0.3848 0.059 0.0
O61 O 0.40914 0.41326 0.03541 0.0
C62 C 0.40876 0.40121 0.96638 0.0
O63 O 0.39829 0.35104 0.01624 0.0
O64 O 0.36399 0.33989 0.00493 0.0
In65 In 0.66521 0.01769 0.01138 0.0
O66 O 0.66502 0.033 0.0559 0.0
O67 O 0.63346 1.00651 0.03935 0.0
C68 C 0.70413 0.05464 0.99295 0.0
C69 C 0.67622 0.98593 0.02881 0.0
C70 C 0.63844 1.01212 0.96413 0.0
O71 O 0.68956 0.05628 0.00821 0.0
O72 O 0.69896 0.03444 0.98668 0.0
O73 O 0.64351 0.02744 0.98311 0.0
O74 O 0.64697 0.99951 0.96877 0.0
C75 C 0.6438 0.02069 0.0596 0.0
O76 O 0.65811 0.98051 0.01464 0.0
O77 O 0.68826 1.00698 0.03423 0.0
In78 In 0.69475 0.71587 0.34252 0.0
O79 O 0.71251 0.73466 0.3843 0.0
O80 O 0.67778 0.72543 0.3792 0.0
C81 C 0.65509 0.68001 0.32245 0.0
C82 C 0.72563 0.70154 0.34851 0.0
C83 C 0.70336 0.74954 0.30387 0.0
O84 O 0.66123 0.68139 0.34885 0.0
O85 O 0.66895 0.69624 0.30658 0.0
O86 O 0.71099 0.73603 0.30046 0.0
O87 O 0.69193 0.74626 0.32683 0.0
C88 C 0.69566 0.73531 0.39467 0.0
O89 O 0.73126 0.72157 0.3406 0.0
O90 O 0.70445 0.68864 0.35219 0.0
In91 In 0.32978 0.99797 0.33784 0.0
O92 O 0.30942 0.96516 0.36428 0.0
O93 O 0.33102 0.99574 0.38756 0.0
C94 C 0.37246 1.00851 0.32058 0.0
C95 C 0.32531 0.03397 0.3544 0.0
C96 C 0.30116 0.97611 0.29224 0.0
O97 O 0.36112 0.99265 0.33845 0.0
O98 O 0.36222 0.01854 0.31143 0.0
O99 O 0.31026 0.99734 0.29626 0.0
O100 O 0.30677 0.96603 0.31081 0.0
C101 C 0.31646 0.97471 0.3888 0.0
O102 O 0.30854 0.01389 0.35264 0.0
O103 O 0.34421 0.03593 0.34738 0.0
In104 In 0.05089 0.3481 0.33894 0.0
O105 O 0.06692 0.38439 0.32112 0.0
O106 O 0.03536 0.37185 0.34262 0.0
C107 C 0.0795 0.35168 0.3829 0.0
C108 C 0.06735 0.33943 0.28967 0.0
C109 C 1.01059 0.31092 0.35456 0.0
O110 O 0.06961 0.3634 0.38291 0.0
O111 O 0.07454 0.33838 0.3614 0.0
O112 O 1.01164 0.32413 0.33432 0.0
O113 O 0.0295 0.31658 0.36656 0.0
C114 C 0.05123 0.38811 0.32871 0.0
O115 O 0.04614 0.33058 0.29381 0.0
O116 O 0.07961 0.35257 0.30977 0.0
In117 In 0.68905 0.99001 0.34012 0.0
O118 O 0.70547 0.99054 0.29627 0.0
O119 O 0.68521 0.9585 0.31731 0.0
C120 C 0.72081 0.0348 0.34987 0.0
C121 C 0.64852 0.98465 0.32102 0.0
C122 C 0.68674 0.96636 0.38913 0.0
O123 O 0.72608 0.01956 0.34632 0.0
O124 O 0.69973 0.02762 0.34764 0.0
O125 O 0.67096 0.97009 0.38158 0.0
O126 O 0.70373 0.975 0.3725 0.0
C127 C 0.69731 0.96911 0.29559 0.0
O128 O 0.65667 0.99315 0.34581 0.0
O129 O 0.66084 0.97938 0.30621 0.0
In130 In 0.04843 0.7042 0.34399 0.0
O131 O 0.04688 0.72079 0.30088 0.0
O132 O 0.07856 0.724 0.3136 0.0
C133 C 1.00688 0.69385 0.36454 0.0
C134 C 0.04382 0.66341 0.32804 0.0
C135 C 0.0756 0.73004 0.3887 0.0
O136 O 1.01712 0.70915 0.34551 0.0
O137 O 1.01775 0.68429 0.37331 0.0
O138 O 0.06937 0.70918 0.38554 0.0
O139 O 0.06773 0.7378 0.36969 0.0
C140 C 0.06772 0.72872 0.29506 0.0
O141 O 0.06118 0.67851 0.34148 0.0
O142 O 0.02897 0.66894 0.32238 0.0
In143 In 0.33246 0.35474 0.34364 0.0
O144 O 0.31968 0.31629 0.34267 0.0
O145 O 0.35172 0.33799 0.36294 0.0
C146 C 0.30987 0.3525 0.29355 0.0
C147 C 0.30963 0.35527 0.39185 0.0
C148 C 0.37316 0.39286 0.333 0.0
O149 O 0.31013 0.36377 0.31558 0.0
O150 O 0.32138 0.3426 0.29647 0.0
O151 O 0.3557 0.39364 0.3407 0.0
O152 O 0.37009 0.37294 0.33056 0.0
C153 C 0.33686 0.31789 0.35588 0.0
O154 O 0.331 0.36756 0.38951 0.0
O155 O 0.29991 0.34252 0.3702 0.0
In156 In 0.35656 0.04929 0.67839 0.0
O157 O 0.38041 0.03398 0.68127 0.0
O158 O 0.39198 0.06675 0.69943 0.0
C159 C 0.36593 0.07513 0.62956 0.0
C160 C 0.34613 0.06535 0.72664 0.0
C161 C 0.31751 1.01039 0.66284 0.0
O162 O 0.3715 0.05993 0.63194 0.0
O163 O 0.35598 0.0771 0.65153 0.0
O164 O 0.33411 1.00998 0.675 0.0
O165 O 0.32054 0.03017 0.65916 0.0
C166 C 0.39615 0.05086 0.69473 0.0
O167 O 0.34076 0.04462 0.72429 0.0
O168 O 0.35659 0.07752 0.70499 0.0
In169 In 0.99615 0.32476 0.67263 0.0
O170 O 0.98093 0.34845 0.67622 0.0
O171 O 1.01598 0.36274 0.68594 0.0
C172 C 0.97393 0.30805 0.62116 0.0
C173 C 0.97762 0.29907 0.72112 0.0
C174 C 0.03334 0.32103 0.6611 0.0
O175 O 0.99449 0.3239 0.62243 0.0
O176 O 0.96445 0.30148 0.64562 0.0
O177 O 0.03444 0.34 0.66543 0.0
O178 O 1.01352 0.3039 0.66304 0.0
C179 C 0.99917 0.36586 0.68424 0.0
O180 O 0.99847 0.31403 0.71986 0.0
O181 O 0.96641 0.2974 0.69834 0.0
In182 In 0.71741 0.68497 0.67393 0.0
O183 O 0.69655 0.70233 0.66691 0.0
O184 O 0.73264 0.72374 0.66714 0.0
C185 C 0.74469 0.6895 0.72001 0.0
C186 C 0.73496 0.68027 0.62286 0.0
C187 C 0.6755 0.65102 0.68957 0.0
O188 O 0.74171 0.70555 0.71139 0.0
O189 O 0.73384 0.67125 0.70559 0.0
O190 O 0.68683 0.64801 0.67002 0.0
O191 O 0.68543 0.67054 0.70112 0.0
C192 C 0.71332 0.72232 0.66472 0.0
O193 O 0.71963 0.68563 0.62393 0.0
O194 O 0.74099 0.67662 0.64739 0.0
In195 In 0.35766 0.3283 0.67999 0.0
O196 O 0.3767 0.32738 0.63952 0.0
O197 O 0.34481 0.29791 0.64883 0.0
C198 C 0.38835 0.3698 0.70135 0.0
C199 C 0.32532 0.33779 0.66097 0.0
C200 C 0.35734 0.30111 0.72377 0.0
O201 O 0.39334 0.36014 0.68145 0.0
O202 O 0.3682 0.35829 0.71079 0.0
O203 O 0.34061 0.30409 0.71884 0.0
O204 O 0.37406 0.312 0.70697 0.0
C205 C 0.36188 0.30731 0.63222 0.0
O206 O 0.32061 0.32164 0.67865 0.0
O207 O 0.34585 0.34847 0.65291 0.0
In208 In 0.70876 0.04457 0.66639 0.0
O209 O 0.70673 0.05861 0.621 0.0
O210 O 0.73915 0.07188 0.64107 0.0
C211 C 0.66554 0.02776 0.68536 0.0
C212 C 0.71001 1.00591 0.65434 0.0
C213 C 0.73036 0.07121 0.71324 0.0
O214 O 0.67461 0.04422 0.66751 0.0
O215 O 0.67824 0.01998 0.69331 0.0
O216 O 0.73681 0.05854 0.70145 0.0
O217 O 0.71296 0.07028 0.70166 0.0
C218 C 0.72793 0.07232 0.61934 0.0
O219 O 0.72428 0.02127 0.67114 0.0
O220 O 0.69547 1.0102 0.64323 0.0
In221 In 1.0039 0.68866 0.67549 0.0
O222 O 0.02503 0.67737 0.70174 0.0
O223 O 0.99557 0.65113 0.68057 0.0
C224 C 0.97598 0.68441 0.63027 0.0
C225 C 0.98354 0.69497 0.72238 0.0
C226 C 0.04461 0.71938 0.65237 0.0
O227 O 0.98112 0.6693 0.63642 0.0
O228 O 0.98518 0.70178 0.64664 0.0
O229 O 0.03461 0.72512 0.6709 0.0
O230 O 0.03379 0.69856 0.64518 0.0
C231 C 1.01294 0.65634 0.69626 0.0
O232 O 0.97312 0.67886 0.70438 0.0
O233 O 1.00446 0.70792 0.71705 0.0
H234 H 0.26433 0.36087 0.13445 0.0
H235 H 0.20755 0.35315 0.08362 0.0
H236 H 0.20689 0.35586 0.17858 0.0
H237 H 0.17113 0.33737 0.17515 0.0
H238 H 0.12027 0.34726 0.13357 0.0
H239 H 0.17951 0.36064 0.08515 0.0
C240 C 0.24731 0.35868 0.13354 0.0
C241 C 0.236 0.35714 0.15948 0.0
C242 C 0.23749 0.35805 0.10634 0.0
C243 C 0.21516 0.35458 0.10492 0.0
C244 C 0.20322 0.35337 0.13097 0.0
C245 C 0.21452 0.35551 0.1581 0.0
C246 C 0.17939 0.35023 0.13048 0.0
C247 C 0.16577 0.34285 0.15603 0.0
C248 C 0.14492 0.34253 0.15771 0.0
C249 C 0.13623 0.34716 0.13256 0.0
C250 C 0.14811 0.35257 0.10615 0.0
C251 C 0.17006 0.35502 0.10532 0.0
H252 H 0.68339 0.913 0.13893 0.0
H253 H 0.68748 0.86239 0.08723 0.0
H254 H 0.68691 0.8589 0.18205 0.0
H255 H 0.70776 0.8436 0.17637 0.0
H256 H 0.69862 0.78353 0.13373 0.0
H257 H 0.67633 0.82508 0.09016 0.0
C258 C 0.68479 0.89771 0.13772 0.0
C259 C 0.68628 0.88748 0.16347 0.0
C260 C 0.68481 0.88857 0.11036 0.0
C261 C 0.68653 0.86867 0.10861 0.0
C262 C 0.68788 0.8577 0.13446 0.0
C263 C 0.68686 0.86708 0.16177 0.0
C264 C 0.6912 0.8372 0.13351 0.0
C265 C 0.70134 0.83232 0.15767 0.0
C266 C 0.70368 0.81284 0.15811 0.0
C267 C 0.69719 0.79881 0.13346 0.0
C268 C 0.68799 0.80351 0.10875 0.0
C269 C 0.68438 0.8223 0.10898 0.0
H270 H 0.25511 0.91663 0.14186 0.0
H271 H 0.20826 0.85781 0.09212 0.0
H272 H 0.19263 0.86746 0.1811 0.0
H273 H 0.17443 0.83074 0.18258 0.0
H274 H 0.11807 0.77822 0.13528 0.0
H275 H 0.17064 0.83474 0.08823 0.0
C276 C 0.23885 0.90087 0.1402 0.0
C277 C 0.2247 0.89299 0.16456 0.0
C278 C 0.2329 0.88844 0.11403 0.0
C279 C 0.21214 0.86761 0.11213 0.0
C280 C 0.19723 0.85922 0.13644 0.0
C281 C 0.20372 0.8726 0.16233 0.0
C282 C 0.17541 0.83642 0.13558 0.0
C283 C 0.16577 0.82438 0.16187 0.0
C284 C 0.14475 0.8039 0.16199 0.0
C285 C 0.13378 0.79459 0.13542 0.0
C286 C 0.14328 0.80537 0.10888 0.0
C287 C 0.16395 0.82636 0.10892 0.0
H288 H 0.35375 0.11793 0.88347 0.0
H289 H 0.36087 0.17423 0.93388 0.0
H290 H 0.33792 0.16538 0.84344 0.0
H291 H 0.35051 0.20094 0.84239 0.0
H292 H 0.34204 0.24974 0.89116 0.0
H293 H 0.34865 0.19834 0.93746 0.0
C294 C 0.35199 0.13298 0.88487 0.0
C295 C 0.34605 0.14091 0.86004 0.0
C296 C 0.3565 0.14451 0.91153 0.0
C297 C 0.35619 0.16516 0.9133 0.0
C298 C 0.34987 0.17364 0.88862 0.0
C299 C 0.34416 0.16063 0.86239 0.0
C300 C 0.34892 0.19561 0.88978 0.0
C301 C 0.34847 0.20673 0.86355 0.0
C302 C 0.34507 0.22556 0.86403 0.0
C303 C 0.3439 0.2347 0.89078 0.0
C304 C 0.346 0.22539 0.91707 0.0
C305 C 0.34808 0.20568 0.91671 0.0
H306 H 0.78219 0.11596 0.87131 0.0
H307 H 0.83882 0.16451 0.92285 0.0
H308 H 0.83673 0.17336 0.82899 0.0
H309 H 0.87306 0.19087 0.83208 0.0
H310 H 0.92264 0.25082 0.87692 0.0
H311 H 0.86377 0.20159 0.92327 0.0
C312 C 0.79844 0.13178 0.87263 0.0
C313 C 0.80884 0.14362 0.84713 0.0
C314 C 0.80905 0.13956 0.89981 0.0
C315 C 0.83061 0.15943 0.90166 0.0
C316 C 0.84142 0.17209 0.87615 0.0
C317 C 0.82983 0.16399 0.84903 0.0
C318 C 0.86462 0.19341 0.87728 0.0
C319 C 0.87821 0.20106 0.8518 0.0
C320 C 0.89871 0.22203 0.85111 0.0
C321 C 0.90695 0.23445 0.87704 0.0
C322 C 0.89492 0.22658 0.90322 0.0
C323 C 0.87338 0.20659 0.90318 0.0
H324 H 0.79097 0.68338 0.87895 0.0
H325 H 0.84555 0.68429 0.92826 0.0
H326 H 0.84079 0.67395 0.83425 0.0
H327 H 0.87775 0.69324 0.83656 0.0
H328 H 0.92547 0.67753 0.87607 0.0
H329 H 0.8674 0.6675 0.92536 0.0
C330 C 0.8065 0.6824 0.87955 0.0
C331 C 0.81535 0.67944 0.85357 0.0
C332 C 0.81693 0.68349 0.90642 0.0
C333 C 0.83722 0.68248 0.90737 0.0
C334 C 0.84677 0.67975 0.88121 0.0
C335 C 0.83486 0.67725 0.85458 0.0
C336 C 0.86918 0.68003 0.88095 0.0
C337 C 0.8826 0.68682 0.85532 0.0
C338 C 0.90254 0.68548 0.85325 0.0
C339 C 0.91006 0.67863 0.87762 0.0
C340 C 0.89768 0.67243 0.90372 0.0
C341 C 0.87722 0.6731 0.90543 0.0
H342 H 0.92959 0.6925 0.47574 0.0
H343 H 0.87542 0.68805 0.42224 0.0
H344 H 0.87533 0.69648 0.51655 0.0
H345 H 0.83944 0.68003 0.51259 0.0
H346 H 0.78627 0.67985 0.46178 0.0
H347 H 0.85015 0.69938 0.42111 0.0
C348 C 0.91342 0.69216 0.47385 0.0
C349 C 0.90277 0.69348 0.49912 0.0
C350 C 0.9039 0.6907 0.44622 0.0
C351 C 0.88294 0.69028 0.44376 0.0
C352 C 0.87161 0.69178 0.46904 0.0
C353 C 0.8825 0.69429 0.49663 0.0
C354 C 0.84815 0.68948 0.46699 0.0
C355 C 0.83377 0.68301 0.49185 0.0
C356 C 0.81188 0.68055 0.49054 0.0
C357 C 0.80349 0.68269 0.46343 0.0
C358 C 0.81711 0.68934 0.43847 0.0
C359 C 0.83962 0.69335 0.44039 0.0
H360 H 0.35933 0.25864 0.47165 0.0
H361 H 0.36255 0.20673 0.42187 0.0
H362 H 0.35144 0.19942 0.51559 0.0
H363 H 0.36987 0.18094 0.51318 0.0
H364 H 0.35215 0.11752 0.47159 0.0
H365 H 0.34671 0.16876 0.42307 0.0
C366 C 0.35898 0.24241 0.47095 0.0
C367 C 0.35618 0.23034 0.49678 0.0
C368 C 0.3607 0.23369 0.44404 0.0
C369 C 0.36035 0.21273 0.44283 0.0
C370 C 0.35755 0.20005 0.46874 0.0
C371 C 0.35468 0.20892 0.49547 0.0
C372 C 0.35751 0.17773 0.46848 0.0
C373 C 0.36335 0.17002 0.49414 0.0
C374 C 0.36093 0.14817 0.49581 0.0
C375 C 0.3542 0.13447 0.47075 0.0
C376 C 0.34983 0.14219 0.44444 0.0
C377 C 0.35117 0.16362 0.44331 0.0
H378 H 0.92115 0.25767 0.46083 0.0
H379 H 0.86916 0.20091 0.41376 0.0
H380 H 0.86963 0.20126 0.50866 0.0
H381 H 0.83382 0.17993 0.50681 0.0
H382 H 0.78468 0.11795 0.46541 0.0
H383 H 0.84304 0.16538 0.41697 0.0
C384 C 0.90586 0.24099 0.46137 0.0
C385 C 0.89605 0.23098 0.48809 0.0
C386 C 0.89686 0.22963 0.43496 0.0
C387 C 0.87612 0.20874 0.4347 0.0
C388 C 0.86496 0.19832 0.46132 0.0
C389 C 0.87602 0.20943 0.48785 0.0
C390 C 0.84227 0.17602 0.46192 0.0
C391 C 0.82883 0.16909 0.48772 0.0
C392 C 0.8084 0.148 0.48946 0.0
C393 C 0.80026 0.13439 0.46442 0.0
C394 C 0.81234 0.14103 0.43821 0.0
C395 C 0.83361 0.16136 0.43715 0.0
H396 H 1.01417 0.43974 0.21821 0.0
H397 H 0.02304 0.49877 0.26419 0.0
H398 H 1.00104 0.48725 0.17318 0.0
H399 H 1.01798 0.52357 0.16977 0.0
H400 H 1.01697 0.57903 0.21267 0.0
H401 H 1.01086 0.52346 0.26419 0.0
C402 C 1.0133 0.45535 0.21847 0.0
C403 C 1.00771 0.46266 0.19286 0.0
C404 C 1.01803 0.46791 0.24432 0.0
C405 C 1.01804 0.48876 0.24431 0.0
C406 C 1.0124 0.49669 0.21848 0.0
C407 C 1.00631 0.48264 0.19318 0.0
C408 C 1.01373 0.51971 0.21719 0.0
C409 C 1.01616 0.53081 0.18991 0.0
C410 C 1.01704 0.55197 0.18813 0.0
C411 C 1.01636 0.56269 0.2138 0.0
C412 C 1.01464 0.55268 0.24103 0.0
C413 C 1.01297 0.53113 0.24285 0.0
H414 H 0.46098 0.4463 0.22765 0.0
H415 H 0.51152 0.50564 0.27283 0.0
H416 H 0.51094 0.50189 0.1778 0.0
H417 H 0.54605 0.5259 0.17969 0.0
H418 H 0.59124 0.59078 0.21732 0.0
H419 H 0.53488 0.542 0.26794 0.0
C420 C 0.4761 0.46315 0.2269 0.0
C421 C 0.48587 0.47249 0.20003 0.0
C422 C 0.48493 0.47535 0.25282 0.0
C423 C 0.50462 0.49711 0.25221 0.0
C424 C 0.51512 0.50725 0.22521 0.0
C425 C 0.50468 0.49476 0.19912 0.0
C426 C 0.53673 0.53043 0.22385 0.0
C427 C 0.55009 0.53731 0.19806 0.0
C428 C 0.56936 0.55912 0.19543 0.0
C429 C 0.5763 0.57392 0.21928 0.0
C430 C 0.56419 0.56769 0.24551 0.0
C431 C 0.54435 0.54605 0.24779 0.0
H432 H 0.45006 1.0122 0.21074 0.0
H433 H 0.50295 1.01163 0.26216 0.0
H434 H 0.50198 1.00566 0.16754 0.0
H435 H 0.53792 0.02154 0.17072 0.0
H436 H 0.58451 1.00579 0.21304 0.0
H437 H 0.52687 0.99821 0.26083 0.0
C438 C 0.4658 1.01165 0.21193 0.0
C439 C 0.47585 1.0102 0.18615 0.0
C440 C 0.47519 1.01168 0.23927 0.0
C441 C 0.49553 1.01073 0.24087 0.0
C442 C 0.50625 1.00929 0.21496 0.0
C443 C 0.49538 1.00806 0.18782 0.0
C444 C 0.52864 1.00931 0.21555 0.0
C445 C 0.54225 0.01526 0.19002 0.0
C446 C 0.56194 0.01342 0.18876 0.0
C447 C 0.56924 1.00719 0.21388 0.0
C448 C 0.55696 1.00219 0.23995 0.0
C449 C 0.53657 1.00306 0.24081 0.0
H450 H 0.58964 0.01657 0.80576 0.0
H451 H 0.53494 0.01505 0.75639 0.0
H452 H 0.53756 0.02169 0.85097 0.0
H453 H 0.5016 1.00682 0.84876 0.0
H454 H 0.45399 0.02106 0.80583 0.0
H455 H 0.51101 0.02782 0.75772 0.0
C456 C 0.57353 0.01642 0.80522 0.0
C457 C 0.56392 0.0179 0.83143 0.0
C458 C 0.56341 0.01587 0.77824 0.0
C459 C 0.5428 0.01628 0.77745 0.0
C460 C 0.53248 0.0178 0.80365 0.0
C461 C 0.54393 0.01936 0.83047 0.0
C462 C 0.51007 0.01779 0.80342 0.0
C463 C 0.49684 1.01245 0.82922 0.0
C464 C 0.47699 0.01408 0.83043 0.0
C465 C 0.46925 0.01963 0.8051 0.0
C466 C 0.48115 0.02396 0.77886 0.0
C467 C 0.50166 0.02337 0.778 0.0
H468 H 0.03218 0.58906 0.80919 0.0
H469 H 1.01754 0.53042 0.75766 0.0
H470 H 0.04486 0.53836 0.84564 0.0
H471 H 0.02429 0.50208 0.84824 0.0
H472 H 0.02181 0.44654 0.80128 0.0
H473 H 0.02869 0.50426 0.75347 0.0
C474 C 0.0325 0.57326 0.80694 0.0
C475 C 0.03858 0.56457 0.83088 0.0
C476 C 0.02596 0.56158 0.78021 0.0
C477 C 0.02391 0.53983 0.7779 0.0
C478 C 0.03006 0.53054 0.8018 0.0
C479 C 0.03846 0.5439 0.8276 0.0
C480 C 0.02725 0.50691 0.80089 0.0
C481 C 0.02515 0.49509 0.82737 0.0
C482 C 0.02378 0.47374 0.82761 0.0
C483 C 0.0229 0.46311 0.80118 0.0
C484 C 0.02423 0.47385 0.77455 0.0
C485 C 0.02679 0.49588 0.77427 0.0
H486 H 0.59691 0.58839 0.80421 0.0
H487 H 0.55124 0.5254 0.7612 0.0
H488 H 0.54061 0.53702 0.85175 0.0
H489 H 0.52181 0.50049 0.85506 0.0
H490 H 0.46387 0.44663 0.81191 0.0
H491 H 0.51411 0.50158 0.7607 0.0
C492 C 0.5816 0.57167 0.80472 0.0
C493 C 0.56971 0.56377 0.83081 0.0
C494 C 0.57473 0.55808 0.77955 0.0
C495 C 0.5557 0.5359 0.78064 0.0
C496 C 0.54266 0.52766 0.80658 0.0
C497 C 0.55007 0.5421 0.83157 0.0
C498 C 0.52126 0.50452 0.80768 0.0
C499 C 0.51259 0.49342 0.83485 0.0
C500 C 0.49145 0.47317 0.83645 0.0
C501 C 0.47972 0.46284 0.81072 0.0
C502 C 0.48796 0.47283 0.7835 0.0
C503 C 0.5086 0.49371 0.78191 0.0
H504 H 0.70327 0.78929 0.55487 0.0
H505 H 0.71339 0.84975 0.59817 0.0
H506 H 0.6884 0.83525 0.50858 0.0
H507 H 0.70499 0.87202 0.50476 0.0
H508 H 0.69608 0.92321 0.5471 0.0
H509 H 0.69568 0.87024 0.59882 0.0
C510 C 0.70265 0.80503 0.55424 0.0
C511 C 0.69619 0.81137 0.52847 0.0
C512 C 0.70843 0.81855 0.57933 0.0
C513 C 0.708 0.83912 0.57879 0.0
C514 C 0.70085 0.84577 0.55321 0.0
C515 C 0.69446 0.83121 0.52836 0.0
C516 C 0.70025 0.86776 0.55198 0.0
C517 C 0.70204 0.87861 0.52475 0.0
C518 C 0.69964 0.89801 0.52284 0.0
C519 C 0.6972 0.90777 0.54838 0.0
C520 C 0.69632 0.89814 0.57564 0.0
C521 C 0.69743 0.87795 0.57757 0.0
H522 H 0.12247 0.79165 0.53842 0.0
H523 H 0.17681 0.84209 0.59067 0.0
H524 H 0.1782 0.8473 0.49564 0.0
H525 H 0.21346 0.8692 0.49947 0.0
H526 H 0.26692 0.92172 0.55067 0.0
H527 H 0.20323 0.87746 0.59125 0.0
C528 C 0.13889 0.80728 0.53984 0.0
C529 C 0.15006 0.81809 0.51421 0.0
C530 C 0.14831 0.81609 0.56724 0.0
C531 C 0.16955 0.83636 0.56915 0.0
C532 C 0.18134 0.84826 0.54349 0.0
C533 C 0.17069 0.83895 0.516 0.0
C534 C 0.20491 0.86946 0.54528 0.0
C535 C 0.21921 0.87759 0.5203 0.0
C536 C 0.24119 0.89704 0.5216 0.0
C537 C 0.24962 0.90747 0.54874 0.0
C538 C 0.23596 0.90045 0.57357 0.0
C539 C 0.21358 0.88183 0.57185 0.0
H540 H 0.12091 0.35347 0.55288 0.0
H541 H 0.16535 0.3348 0.59592 0.0
H542 H 0.17829 0.35974 0.50646 0.0
H543 H 0.19718 0.34238 0.50254 0.0
H544 H 0.25136 0.33973 0.54715 0.0
H545 H 0.20149 0.3454 0.59749 0.0
C546 C 0.13616 0.35199 0.55235 0.0
C547 C 0.14873 0.35692 0.52667 0.0
C548 C 0.14244 0.34448 0.57725 0.0
C549 C 0.16153 0.34149 0.57658 0.0
C550 C 0.17507 0.34679 0.55105 0.0
C551 C 0.16835 0.35477 0.52625 0.0
C552 C 0.196 0.34415 0.55016 0.0
C553 C 0.20534 0.3427 0.52303 0.0
C554 C 0.22578 0.34212 0.52187 0.0
C555 C 0.23607 0.34112 0.54791 0.0
C556 C 0.22717 0.34195 0.57499 0.0
C557 C 0.20735 0.34371 0.57622 0.0
H558 H 0.98433 0.40114 0.07949 0.0
H559 H 0.05579 0.42261 0.08904 0.0
H560 H 0.05861 0.44525 0.13189 0.0
H561 H 0.04083 0.45851 0.16722 0.0
H562 H 0.97015 0.43935 0.15735 0.0
H563 H 0.96687 0.41646 0.11387 0.0
C564 C 1.00045 0.41077 0.09106 0.0
C565 C 0.01979 0.41009 0.08129 0.0
C566 C 1.00209 0.42424 0.11546 0.0
C567 C 0.04068 0.42287 0.09615 0.0
C568 C 0.04232 0.43582 0.12066 0.0
C569 C 0.02477 0.44939 0.15537 0.0
C570 C 1.00572 0.45039 0.16531 0.0
C571 C 0.02317 0.43658 0.13052 0.0
C572 C 0.985 0.43876 0.14987 0.0
C573 C 0.98314 0.42563 0.12518 0.0
H574 H 0.60533 0.60229 0.07159 0.0
H575 H 0.66993 0.6312 0.1172 0.0
H576 H 0.65068 0.60894 0.16071 0.0
H577 H 0.61528 0.58295 0.18652 0.0
H578 H 0.55064 0.5547 0.14114 0.0
H579 H 0.57022 0.57438 0.09642 0.0
C580 C 0.61519 0.60371 0.09106 0.0
C581 C 0.63897 0.61859 0.09137 0.0
C582 C 0.60405 0.59077 0.11587 0.0
C583 C 0.65158 0.61999 0.11654 0.0
C584 C 0.6406 0.60723 0.14138 0.0
C585 C 0.60551 0.58097 0.16676 0.0
C586 C 0.58152 0.56754 0.16722 0.0
C587 C 0.61682 0.59279 0.14138 0.0
C588 C 0.56911 0.56479 0.14132 0.0
C589 C 0.58028 0.57626 0.11585 0.0
H590 H 0.42723 0.99759 0.06365 0.0
H591 H 0.42065 0.05368 0.09705 0.0
H592 H 0.44251 0.05541 0.14066 0.0
H593 H 0.46171 0.03975 0.17035 0.0
H594 H 0.46729 0.98285 0.13797 0.0
H595 H 0.44795 0.98293 0.09259 0.0
C596 C 0.43075 1.01032 0.08036 0.0
C597 C 0.42224 0.02543 0.0772 0.0
C598 C 0.44312 1.01105 0.10552 0.0
C599 C 0.42695 0.04184 0.09901 0.0
C600 C 0.43942 0.04281 0.12396 0.0
C601 C 0.45866 0.02733 0.15336 0.0
C602 C 0.46573 1.01117 0.15762 0.0
C603 C 0.44726 0.02727 0.12763 0.0
C604 C 0.46211 0.99552 0.13518 0.0
C605 C 0.45093 0.99548 0.10932 0.0
H606 H 0.4422 0.02661 0.95248 0.0
H607 H 0.37685 0.98543 0.91029 0.0
H608 H 0.39581 0.98126 0.86723 0.0
H609 H 0.43115 0.99119 0.84068 0.0
H610 H 0.49638 0.03267 0.8831 0.0
H611 H 0.47724 0.03429 0.92734 0.0
C612 C 0.4321 0.01668 0.93388 0.0
C613 C 0.4082 1.00658 0.93435 0.0
C614 C 0.44309 0.01425 0.90939 0.0
C615 C 0.3953 0.99347 0.91032 0.0
C616 C 0.40612 0.99108 0.88574 0.0
C617 C 0.44114 1.00045 0.8597 0.0
C618 C 0.46516 1.01191 0.85853 0.0
C619 C 0.43003 1.00165 0.8849 0.0
C620 C 0.47789 0.02353 0.8835 0.0
C621 C 0.46696 0.02467 0.9087 0.0
H622 H 0.04604 0.43865 0.94447 0.0
H623 H 0.98318 0.37788 0.92093 0.0
H624 H 0.97932 0.39698 0.87771 0.0
H625 H 0.99416 0.43079 0.84607 0.0
H626 H 0.0556 0.49247 0.87097 0.0
H627 H 0.05953 0.47345 0.91442 0.0
C628 C 0.03157 0.42966 0.92977 0.0
C629 C 1.01505 0.40687 0.93558 0.0
C630 C 0.02911 0.44098 0.9054 0.0
C631 C 0.99614 0.39544 0.91677 0.0
C632 C 0.9939 0.40634 0.8921 0.0
C633 C 1.00829 0.44005 0.86119 0.0
C634 C 0.02459 0.46291 0.85542 0.0
C635 C 1.0103 0.42908 0.88616 0.0
C636 C 0.04275 0.47487 0.87518 0.0
C637 C 0.04509 0.46397 0.89986 0.0
H638 H 0.62516 0.63986 0.92505 0.0
H639 H 0.62679 0.58312 0.96589 0.0
H640 H 0.60158 0.55739 0.92801 0.0
H641 H 0.58112 0.55134 0.88141 0.0
H642 H 0.58076 0.60809 0.83904 0.0
H643 H 0.60298 0.63336 0.87948 0.0
C644 C 0.61991 0.62186 0.92567 0.0
C645 C 0.62801 0.61348 0.94811 0.0
C646 C 0.60549 0.6071 0.90361 0.0
C647 C 0.62097 0.59007 0.94872 0.0
C648 C 0.60648 0.57529 0.92711 0.0
C649 C 0.58546 0.56912 0.88146 0.0
C650 C 0.57924 0.57786 0.85752 0.0
C651 C 0.59884 0.58364 0.90427 0.0
C652 C 0.58533 0.60102 0.85742 0.0
C653 C 0.59815 0.61548 0.8804 0.0
H654 H 0.03207 0.59691 0.95744 0.0
H655 H 0.06513 0.66253 0.91469 0.0
H656 H 0.06996 0.64501 0.87057 0.0
H657 H 0.0612 0.6105 0.84268 0.0
H658 H 0.02505 0.54455 0.88457 0.0
H659 H 0.02582 0.56286 0.9307 0.0
C660 C 0.04064 0.60745 0.93863 0.0
C661 C 0.04805 0.63095 0.93923 0.0
C662 C 0.04283 0.59718 0.91314 0.0
C663 C 0.05916 0.64438 0.9147 0.0
C664 C 0.06188 0.63436 0.88946 0.0
C665 C 0.05354 0.60011 0.86191 0.0
C666 C 0.04283 0.57611 0.8599 0.0
C667 C 0.05319 0.61067 0.88817 0.0
C668 C 0.03358 0.56303 0.88534 0.0
C669 C 0.03377 0.57347 0.91174 0.0
H670 H 0.4538 0.41881 0.95435 0.0
H671 H 0.39223 0.41575 0.92203 0.0
H672 H 0.41309 0.43939 0.88028 0.0
H673 H 0.44831 0.4598 0.85227 0.0
H674 H 0.51001 0.46281 0.88353 0.0
H675 H 0.48976 0.44083 0.92701 0.0
C676 C 0.44496 0.4233 0.93811 0.0
C677 C 0.42145 0.41536 0.94108 0.0
C678 C 0.45711 0.43705 0.91426 0.0
C679 C 0.41027 0.42153 0.92012 0.0
C680 C 0.42219 0.43509 0.89631 0.0
C681 C 0.45735 0.4557 0.86869 0.0
C682 C 0.48053 0.46267 0.86465 0.0
C683 C 0.44554 0.44279 0.8931 0.0
C684 C 0.49218 0.45767 0.88627 0.0
C685 C 0.48055 0.44494 0.91093 0.0
H686 H 0.61723 0.03634 0.95166 0.0
H687 H 0.62665 0.98176 0.91907 0.0
H688 H 0.60335 0.97796 0.87607 0.0
H689 H 0.58129 0.99085 0.84708 0.0
H690 H 0.57248 0.04597 0.8789 0.0
H691 H 0.59411 0.0485 0.9232 0.0
C692 C 0.61414 0.02357 0.93517 0.0
C693 C 0.62378 1.00942 0.93849 0.0
C694 C 0.60073 0.0215 0.91048 0.0
C695 C 0.61951 0.9929 0.91701 0.0
C696 C 0.60617 0.99071 0.89243 0.0
C697 C 0.58413 1.00346 0.86369 0.0
C698 C 0.57538 0.0183 0.85956 0.0
C699 C 0.59687 1.00504 0.88883 0.0
C700 C 0.57884 0.03422 0.88158 0.0
C701 C 0.59138 0.03579 0.90681 0.0
H702 H 0.59821 1.00317 0.06637 0.0
H703 H 0.66295 0.04367 0.11028 0.0
H704 H 0.64342 0.04674 0.15335 0.0
H705 H 0.60785 0.03637 0.17933 0.0
H706 H 0.54311 0.99578 0.13546 0.0
H707 H 0.56275 0.99487 0.09127 0.0
C708 C 0.60803 1.01267 0.08537 0.0
C709 C 0.63196 0.02294 0.08531 0.0
C710 C 0.5967 0.01455 0.10994 0.0
C711 C 0.6445 0.0355 0.10989 0.0
C712 C 0.63335 0.03728 0.13449 0.0
C713 C 0.59806 0.02745 0.16001 0.0
C714 C 0.57405 0.01604 0.16075 0.0
C715 C 0.60945 0.02668 0.13487 0.0
C716 C 0.56161 1.00487 0.13541 0.0
C717 C 0.57282 1.00414 0.11023 0.0
H718 H 1.00081 0.58824 0.06809 0.0
H719 H 0.05618 0.65137 0.10219 0.0
H720 H 0.05921 0.6313 0.14482 0.0
H721 H 0.04547 0.59614 0.17318 0.0
H722 H 0.99047 0.5327 0.13952 0.0
H723 H 0.98837 0.55237 0.09556 0.0
C724 C 1.01347 0.59756 0.08494 0.0
C725 C 0.02808 0.6213 0.08218 0.0
C726 C 1.01537 0.58581 0.10925 0.0
C727 C 0.04466 0.63312 0.10389 0.0
C728 C 0.04644 0.62165 0.12824 0.0
C729 C 0.03312 0.5866 0.15611 0.0
C730 C 1.01805 0.56304 0.15965 0.0
C731 C 0.03183 0.59805 0.13121 0.0
C732 C 1.00236 0.55082 0.13719 0.0
C733 C 1.001 0.56211 0.11222 0.0
H734 H 0.43329 0.39639 0.10458 0.0
H735 H 0.43001 0.45183 0.06259 0.0
H736 H 0.45332 0.47788 0.10161 0.0
H737 H 0.47285 0.48441 0.14941 0.0
H738 H 0.47608 0.42884 0.19103 0.0
H739 H 0.45488 0.4035 0.15043 0.0
C740 C 0.43776 0.41419 0.10393 0.0
C741 C 0.42977 0.42209 0.08087 0.0
C742 C 0.45123 0.42911 0.12641 0.0
C743 C 0.43587 0.44526 0.08018 0.0
C744 C 0.44922 0.4602 0.10249 0.0
C745 C 0.46925 0.46688 0.14926 0.0
C746 C 0.47587 0.45847 0.17325 0.0
C747 C 0.4568 0.45227 0.12592 0.0
C748 C 0.47094 0.43564 0.17291 0.0
C749 C 0.4588 0.42112 0.14974 0.0
H750 H 0.66715 0.75026 0.41375 0.0
H751 H 0.72902 0.7497 0.43568 0.0
H752 H 0.73468 0.7735 0.47838 0.0
H753 H 0.72288 0.79524 0.50868 0.0
H754 H 0.66129 0.79655 0.48791 0.0
H755 H 0.65498 0.77217 0.44508 0.0
C756 C 0.68171 0.75517 0.4281 0.0
C757 C 0.6976 0.74815 0.42166 0.0
C758 C 0.68509 0.76925 0.4525 0.0
C759 C 0.71655 0.75486 0.44018 0.0
C760 C 0.71985 0.76853 0.46456 0.0
C761 C 0.70793 0.79003 0.49496 0.0
C762 C 0.69247 0.79752 0.50161 0.0
C763 C 0.70435 0.77595 0.47077 0.0
C764 C 0.67351 0.7911 0.48317 0.0
C765 C 0.66982 0.77703 0.45884 0.0
H766 H 0.29061 0.92885 0.39869 0.0
H767 H 0.31884 0.99456 0.44113 0.0
H768 H 0.29791 0.97624 0.48554 0.0
H769 H 0.26969 0.94231 0.51077 0.0
H770 H 0.2439 0.87578 0.47113 0.0
H771 H 0.2652 0.89385 0.42672 0.0
C772 C 0.29238 0.93908 0.41783 0.0
C773 C 0.30618 0.96304 0.4166 0.0
C774 C 0.28043 0.92839 0.44352 0.0
C775 C 0.30842 0.9761 0.44154 0.0
C776 C 0.29634 0.96566 0.46689 0.0
C777 C 0.26911 0.9315 0.49293 0.0
C778 C 0.25504 0.90755 0.49468 0.0
C779 C 0.28205 0.94188 0.46794 0.0
C780 C 0.25413 0.89422 0.47051 0.0
C781 C 0.26652 0.90454 0.44511 0.0
H782 H 0.09369 0.37832 0.43231 0.0
H783 H 0.10101 0.32701 0.38541 0.0
H784 H 0.12543 0.32619 0.42408 0.0
H785 H 0.14221 0.33758 0.47308 0.0
H786 H 0.1346 0.38821 0.52092 0.0
H787 H 0.11323 0.39202 0.48006 0.0
C788 C 0.10077 0.3671 0.43052 0.0
C789 C 0.0953 0.35259 0.40614 0.0
C790 C 0.11484 0.3666 0.45303 0.0
C791 C 0.10475 0.33824 0.40404 0.0
C792 C 0.11879 0.33776 0.42614 0.0
C793 C 0.13638 0.34986 0.47423 0.0
C794 C 0.13992 0.36254 0.49996 0.0
C795 C 0.12367 0.35158 0.45095 0.0
C796 C 0.13196 0.37816 0.50134 0.0
C797 C 0.11965 0.38028 0.47805 0.0
H798 H 0.11186 0.35357 0.28158 0.0
H799 H 0.04591 0.31564 0.23967 0.0
H800 H 0.06399 0.31093 0.19593 0.0
H801 H 0.09888 0.3198 0.1688 0.0
H802 H 0.1647 0.35958 0.21081 0.0
H803 H 0.14617 0.36059 0.25575 0.0
C804 C 0.10137 0.34417 0.26293 0.0
C805 C 0.0776 0.33519 0.26369 0.0
C806 C 0.11186 0.34168 0.23801 0.0
C807 C 0.06426 0.32284 0.23951 0.0
C808 C 0.0746 0.32014 0.21455 0.0
C809 C 0.10919 0.32865 0.1878 0.0
C810 C 0.13323 0.33974 0.18621 0.0
C811 C 0.09844 0.32983 0.21341 0.0
C812 C 0.14622 0.35065 0.21134 0.0
C813 C 0.13564 0.35149 0.23701 0.0
H814 H 0.72742 0.76056 0.25304 0.0
H815 H 0.68367 0.7761 0.30451 0.0
H816 H 0.68236 0.79976 0.26511 0.0
H817 H 0.68981 0.81218 0.21391 0.0
H818 H 0.73356 0.79679 0.16229 0.0
H819 H 0.73891 0.77722 0.20388 0.0
C820 C 0.71789 0.7694 0.25577 0.0
C821 C 0.70542 0.76631 0.2815 0.0
C822 C 0.71708 0.78292 0.23291 0.0
C823 C 0.69329 0.77804 0.28483 0.0
C824 C 0.69249 0.79156 0.26228 0.0
C825 C 0.70103 0.80512 0.21201 0.0
C826 C 0.711 0.80567 0.18492 0.0
C827 C 0.7038 0.79362 0.23592 0.0
C828 C 0.72538 0.79627 0.18279 0.0
C829 C 0.72843 0.78504 0.20655 0.0
H830 H 0.27295 0.9304 0.28611 0.0
H831 H 0.29388 0.99476 0.24336 0.0
H832 H 0.26975 0.97467 0.20117 0.0
H833 H 0.24509 0.93873 0.17495 0.0
H834 H 0.22441 0.8744 0.21756 0.0
H835 H 0.24543 0.89454 0.26165 0.0
C836 C 0.27213 0.94002 0.2676 0.0
C837 C 0.28542 0.964 0.26763 0.0
C838 C 0.25811 0.92836 0.24352 0.0
C839 C 0.28392 0.97627 0.24375 0.0
C840 C 0.27012 0.9648 0.21964 0.0
C841 C 0.24496 0.92915 0.19406 0.0
C842 C 0.23336 0.90512 0.19292 0.0
C843 C 0.25747 0.94084 0.21908 0.0
C844 C 0.23305 0.89289 0.21795 0.0
C845 C 0.24529 0.9044 0.24304 0.0
H846 H 0.67654 0.92329 0.28698 0.0
H847 H 0.72376 0.98785 0.24741 0.0
H848 H 0.72569 0.96793 0.20391 0.0
H849 H 0.71242 0.93248 0.17623 0.0
H850 H 0.66373 0.86798 0.21453 0.0
H851 H 0.66429 0.88756 0.2598 0.0
C852 C 0.68741 0.933 0.26894 0.0
C853 C 0.69993 0.95703 0.27033 0.0
C854 C 0.68815 0.92145 0.24384 0.0
C855 C 0.71392 0.96936 0.2468 0.0
C856 C 0.71501 0.95798 0.22194 0.0
C857 C 0.70185 0.92269 0.19446 0.0
C858 C 0.68783 0.89883 0.1919 0.0
C859 C 0.70191 0.93409 0.22006 0.0
C860 C 0.67471 0.88633 0.21597 0.0
C861 C 0.67492 0.89754 0.24176 0.0
H862 H 0.11271 0.75005 0.28135 0.0
H863 H 0.04759 0.73902 0.25026 0.0
H864 H 0.0659 0.76207 0.20695 0.0
H865 H 0.10028 0.78485 0.17767 0.0
H866 H 0.16534 0.79551 0.20836 0.0
H867 H 0.14725 0.77348 0.25244 0.0
C868 C 0.10252 0.75268 0.26508 0.0
C869 C 0.07879 0.74274 0.26892 0.0
C870 C 0.11317 0.76601 0.24032 0.0
C871 C 0.06585 0.74643 0.24777 0.0
C872 C 0.07632 0.75962 0.22303 0.0
C873 C 0.11049 0.78229 0.19397 0.0
C874 C 0.13412 0.79174 0.18967 0.0
C875 C 0.09994 0.76939 0.21903 0.0
C876 C 0.14718 0.78862 0.21124 0.0
C877 C 0.13681 0.77587 0.23634 0.0
H878 H 0.2846 0.37284 0.28284 0.0
H879 H 0.30522 0.32775 0.24442 0.0
H880 H 0.28305 0.32425 0.2004 0.0
H881 H 0.2583 0.33429 0.1727 0.0
H882 H 0.23877 0.38059 0.20988 0.0
H883 H 0.25951 0.38281 0.25493 0.0
C884 C 0.28425 0.36226 0.26481 0.0
C885 C 0.29662 0.35064 0.26683 0.0
C886 C 0.2715 0.36038 0.23952 0.0
C887 C 0.29594 0.33694 0.24336 0.0
C888 C 0.28322 0.33489 0.21822 0.0
C889 C 0.25868 0.345 0.19058 0.0
C890 C 0.24711 0.35739 0.1878 0.0
C891 C 0.27104 0.3466 0.21605 0.0
C892 C 0.24734 0.37073 0.21148 0.0
C893 C 0.25937 0.37216 0.23715 0.0
H894 H 0.26366 0.3313 0.40042 0.0
H895 H 0.32709 0.3811 0.44096 0.0
H896 H 0.30638 0.38241 0.48373 0.0
H897 H 0.27061 0.36887 0.51002 0.0
H898 H 0.20703 0.31826 0.47087 0.0
H899 H 0.22739 0.31826 0.42667 0.0
C900 C 0.27293 0.34244 0.41863 0.0
C901 C 0.29691 0.356 0.4176 0.0
C902 C 0.26089 0.34309 0.44321 0.0
C903 C 0.30867 0.37043 0.44126 0.0
C904 C 0.29684 0.37122 0.46569 0.0
C905 C 0.26118 0.35776 0.49184 0.0
C906 C 0.23737 0.34338 0.49383 0.0
C907 C 0.27301 0.35753 0.46695 0.0
C908 C 0.22533 0.32953 0.46984 0.0
C909 C 0.237 0.3294 0.4447 0.0
H910 H 0.71552 0.95083 0.40369 0.0
H911 H 0.65458 0.95047 0.43187 0.0
H912 H 0.65246 0.92787 0.47472 0.0
H913 H 0.66861 0.90943 0.5049 0.0
H914 H 0.72957 0.90973 0.47728 0.0
H915 H 0.73073 0.93072 0.43294 0.0
C916 C 0.70178 0.9458 0.41923 0.0
C917 C 0.68534 0.95249 0.41482 0.0
C918 C 0.7006 0.93269 0.44369 0.0
C919 C 0.66749 0.94563 0.4349 0.0
C920 C 0.66625 0.9327 0.45935 0.0
C921 C 0.68212 0.91406 0.48909 0.0
C922 C 0.69912 0.90828 0.49439 0.0
C923 C 0.68281 0.9263 0.46404 0.0
C924 C 0.71628 0.91394 0.47357 0.0
C925 C 0.71703 0.92608 0.44839 0.0
H926 H 0.09462 0.77608 0.39713 0.0
H927 H 0.09152 0.71574 0.43386 0.0
H928 H 0.11623 0.73834 0.47418 0.0
H929 H 0.13701 0.77459 0.50039 0.0
H930 H 0.13998 0.83517 0.46527 0.0
H931 H 0.11758 0.81332 0.42244 0.0
C932 C 0.09941 0.76792 0.41395 0.0
C933 C 0.09105 0.74419 0.41264 0.0
C934 C 0.11374 0.78109 0.43717 0.0
C935 C 0.09758 0.73391 0.43442 0.0
C936 C 0.11176 0.74683 0.45747 0.0
C937 C 0.1329 0.78305 0.48319 0.0
C938 C 0.13993 0.80638 0.48602 0.0
C939 C 0.1197 0.77033 0.45921 0.0
C940 C 0.13482 0.81725 0.46348 0.0
C941 C 0.12184 0.8047 0.43919 0.0
H942 H 0.35682 0.10923 0.73463 0.0
H943 H 0.32498 0.04359 0.77733 0.0
H944 H 0.31972 0.06085 0.82152 0.0
H945 H 0.32641 0.09502 0.84882 0.0
H946 H 0.36061 0.16092 0.80655 0.0
H947 H 0.3619 0.14293 0.76105 0.0
C948 C 0.34859 0.09863 0.75353 0.0
C949 C 0.34147 0.07519 0.7528 0.0
C950 C 0.34588 0.1087 0.77886 0.0
C951 C 0.33071 0.06169 0.77741 0.0
C952 C 0.32771 0.07156 0.80265 0.0
C953 C 0.33416 0.10549 0.82967 0.0
C954 C 0.34359 0.12939 0.83134 0.0
C955 C 0.33559 0.09512 0.80377 0.0
C956 C 0.353 0.14252 0.80599 0.0
C957 C 0.354 0.13226 0.77999 0.0
H958 H 0.93295 0.26807 0.72798 0.0
H959 H 0.99813 0.29768 0.77226 0.0
H960 H 0.97968 0.27448 0.81553 0.0
H961 H 0.9448 0.24714 0.84132 0.0
H962 H 0.87945 0.21987 0.79764 0.0
H963 H 0.89838 0.24015 0.7532 0.0
C964 C 0.94316 0.26939 0.74705 0.0
C965 C 0.96684 0.28467 0.74703 0.0
C966 C 0.93244 0.25624 0.77184 0.0
C967 C 0.97985 0.28614 0.77184 0.0
C968 C 0.96931 0.27285 0.79653 0.0
C969 C 0.93465 0.24565 0.82213 0.0
C970 C 0.91066 0.23203 0.82305 0.0
C971 C 0.94557 0.25806 0.79688 0.0
C972 C 0.89792 0.22991 0.79762 0.0
C973 C 0.90871 0.24175 0.77223 0.0
H974 H 0.75969 0.66048 0.73564 0.0
H975 H 0.76292 0.72356 0.76063 0.0
H976 H 0.78598 0.72645 0.80349 0.0
H977 H 0.80394 0.7103 0.83481 0.0
H978 H 0.80144 0.64765 0.80973 0.0
H979 H 0.77966 0.64546 0.7656 0.0
C980 C 0.7655 0.67488 0.75045 0.0
C981 C 0.75945 0.69169 0.74516 0.0
C982 C 0.77891 0.67652 0.7749 0.0
C983 C 0.7673 0.71038 0.7643 0.0
C984 C 0.78047 0.71203 0.7888 0.0
C985 C 0.79865 0.69621 0.81958 0.0
C986 C 0.80406 0.67905 0.82553 0.0
C987 C 0.78617 0.69509 0.79445 0.0
C988 C 0.7975 0.66107 0.8055 0.0
C989 C 0.78495 0.65977 0.78042 0.0
H990 H 0.76119 0.66087 0.61266 0.0
H991 H 0.73466 0.7004 0.57169 0.0
H992 H 0.75638 0.70416 0.52762 0.0
H993 H 0.78428 0.69815 0.50202 0.0
H994 H 0.80838 0.65552 0.54023 0.0
H995 H 0.78677 0.6517 0.58454 0.0
C996 C 0.76005 0.67012 0.59394 0.0
C997 C 0.74643 0.68043 0.59543 0.0
C998 C 0.77238 0.67197 0.56844 0.0
C999 C 0.74495 0.69225 0.57103 0.0
C1000 C 0.75746 0.69451 0.54589 0.0
C1001 C 0.78445 0.68746 0.51957 0.0
C1002 C 0.79805 0.67711 0.51744 0.0
C1003 C 0.77138 0.68463 0.54449 0.0
C1004 C 0.79847 0.66405 0.54118 0.0
C1005 C 0.78592 0.66166 0.56651 0.0
H1006 H 0.35494 0.10802 0.62188 0.0
H1007 H 0.38487 0.07317 0.57753 0.0
H1008 H 0.38793 0.09437 0.53266 0.0
H1009 H 0.37996 0.12117 0.50551 0.0
H1010 H 0.34785 0.15398 0.54998 0.0
H1011 H 0.34843 0.13568 0.59556 0.0
C1012 C 0.36229 0.10514 0.60246 0.0
C1013 C 0.36952 0.08893 0.60294 0.0
C1014 C 0.3637 0.11712 0.57681 0.0
C1015 C 0.37911 0.0855 0.57766 0.0
C1016 C 0.38082 0.0976 0.55202 0.0
C1017 C 0.37306 0.12431 0.52515 0.0
C1018 C 0.36378 0.13891 0.52413 0.0
C1019 C 0.37281 0.11317 0.55123 0.0
C1020 C 0.35538 0.14312 0.55004 0.0
C1021 C 0.35547 0.13246 0.57612 0.0
H1022 H 0.92849 0.27979 0.61171 0.0
H1023 H 0.99394 0.30949 0.56921 0.0
H1024 H 0.97576 0.28707 0.52522 0.0
H1025 H 0.94173 0.25828 0.49968 0.0
H1026 H 0.87553 0.23131 0.53984 0.0
H1027 H 0.89374 0.25265 0.58445 0.0
C1028 C 0.93872 0.28149 0.59269 0.0
C1029 C 0.96252 0.2963 0.59367 0.0
C1030 C 0.92811 0.26871 0.56733 0.0
C1031 C 0.97558 0.29836 0.56891 0.0
C1032 C 0.96521 0.28542 0.54384 0.0
C1033 C 0.93107 0.25733 0.51782 0.0
C1034 C 0.90713 0.24318 0.516 0.0
C1035 C 0.94152 0.27046 0.5429 0.0
C1036 C 0.89396 0.2417 0.54049 0.0
C1037 C 0.90435 0.25415 0.56597 0.0
H1038 H 0.33509 0.26281 0.61619 0.0
H1039 H 0.39444 0.32589 0.59024 0.0
H1040 H 0.39841 0.30725 0.54681 0.0
H1041 H 0.38453 0.27342 0.51561 0.0
H1042 H 0.32525 0.21019 0.54099 0.0
H1043 H 0.32197 0.22836 0.58561 0.0
C1044 C 0.34889 0.27245 0.60102 0.0
C1045 C 0.36436 0.29574 0.6063 0.0
C1046 C 0.35114 0.26157 0.57613 0.0
C1047 C 0.38228 0.30797 0.58662 0.0
C1048 C 0.38456 0.29733 0.56179 0.0
C1049 C 0.37087 0.26363 0.53092 0.0
C1050 C 0.35504 0.24057 0.52495 0.0
C1051 C 0.36901 0.27421 0.55625 0.0
C1052 C 0.3377 0.22794 0.54521 0.0
C1053 C 0.33574 0.23836 0.57058 0.0
H1054 H 0.77288 0.10339 0.61316 0.0
H1055 H 0.70802 0.0749 0.56829 0.0
H1056 H 0.727 0.0979 0.52512 0.0
H1057 H 0.76228 0.12419 0.49916 0.0
H1058 H 0.82726 0.15107 0.54352 0.0
H1059 H 0.80787 0.13126 0.58815 0.0
C1060 C 0.76285 0.1023 0.594 0.0
C1061 C 0.73908 0.08728 0.59384 0.0
C1062 C 0.7739 0.11544 0.56923 0.0
C1063 C 0.72634 0.08622 0.56892 0.0
C1064 C 0.73719 0.09938 0.54425 0.0
C1065 C 0.77223 0.12579 0.51861 0.0
C1066 C 0.79627 0.139 0.51777 0.0
C1067 C 0.76101 0.11376 0.54399 0.0
C1068 C 0.80878 0.14125 0.54346 0.0
C1069 C 0.7977 0.12969 0.56896 0.0
H1070 H 0.95815 0.71179 0.61735 0.0
H1071 H 0.95892 0.65147 0.58826 0.0
H1072 H 0.93466 0.64799 0.5466 0.0
H1073 H 0.91497 0.66311 0.51704 0.0
H1074 H 0.91397 0.72341 0.54513 0.0
H1075 H 0.93611 0.72561 0.58903 0.0
C1076 C 0.95293 0.69785 0.60192 0.0
C1077 C 0.96053 0.68202 0.60574 0.0
C1078 C 0.93885 0.69589 0.578 0.0
C1079 C 0.95343 0.66393 0.58576 0.0
C1080 C 0.93953 0.66191 0.56194 0.0
C1081 C 0.91946 0.67664 0.53293 0.0
C1082 C 0.91306 0.6932 0.52781 0.0
C1083 C 0.93239 0.67793 0.55768 0.0
C1084 C 0.91866 0.71044 0.5487 0.0
C1085 C 0.93147 0.71178 0.57361 0.0
H1086 H 0.93815 0.67729 0.72975 0.0
H1087 H 1.00321 0.71968 0.77197 0.0
H1088 H 0.98386 0.72226 0.81564 0.0
H1089 H 0.9483 0.71012 0.84294 0.0
H1090 H 0.88337 0.66799 0.80022 0.0
H1091 H 0.9028 0.66812 0.75534 0.0
C1092 C 0.94808 0.68719 0.74847 0.0
C1093 C 0.97203 0.69802 0.74787 0.0
C1094 C 0.93686 0.68874 0.77331 0.0
C1095 C 0.98474 0.7111 0.77203 0.0
C1096 C 0.97369 0.71256 0.79698 0.0
C1097 C 0.93845 0.70119 0.82367 0.0
C1098 C 0.91445 0.68895 0.82493 0.0
C1099 C 0.94974 0.70112 0.79804 0.0
C1100 C 0.90185 0.67769 0.79973 0.0
C1101 C 0.91295 0.67757 0.77416 0.0
H1102 H 0.32446 0.27724 0.76422 0.0
H1103 H 0.39095 0.29126 0.73592 0.0
H1104 H 0.39226 0.26745 0.77519 0.0
H1105 H 0.37534 0.24409 0.81937 0.0
H1106 H 0.30958 0.23134 0.84859 0.0
H1107 H 0.30699 0.25285 0.80716 0.0
C1108 C 0.33918 0.275 0.76659 0.0
C1109 C 0.35761 0.28611 0.74725 0.0
C1110 C 0.33992 0.2614 0.7894 0.0
C1111 C 0.37656 0.283 0.75059 0.0
C1112 C 0.37733 0.26934 0.77303 0.0
C1113 C 0.36032 0.24574 0.81627 0.0
C1114 C 0.34264 0.23613 0.83683 0.0
C1115 C 0.35921 0.25861 0.79276 0.0
C1116 C 0.32338 0.23863 0.83294 0.0
C1117 C 0.32193 0.25098 0.80935 0.0
H1118 H 0.77501 0.08981 0.72813 0.0
H1119 H 0.71214 0.08592 0.75474 0.0
H1120 H 0.7312 0.10927 0.79789 0.0
H1121 H 0.76539 0.12925 0.82924 0.0
H1122 H 0.82871 0.13478 0.80144 0.0
H1123 H 0.81004 0.11276 0.75723 0.0
C1124 C 0.76555 0.09413 0.74341 0.0
C1125 C 0.74219 0.08596 0.7386 0.0
C1126 C 0.77675 0.10799 0.76776 0.0
C1127 C 0.73015 0.09198 0.75815 0.0
C1128 C 0.74102 0.10531 0.78278 0.0
C1129 C 0.7751 0.12583 0.81325 0.0
C1130 C 0.79832 0.1335 0.8185 0.0
C1131 C 0.76426 0.11322 0.78795 0.0
C1132 C 0.81085 0.12918 0.79766 0.0
C1133 C 0.80013 0.11643 0.77256 0.0
H1134 H 0.09831 0.38887 0.02557 0.0
H1135 H 0.04313 0.32066 0.04264 0.0
H1136 H 0.06989 0.3103 0.06364 0.0
H1137 H 0.10755 0.32206 0.08376 0.0
H1138 H 0.16245 0.39113 0.07268 0.0
H1139 H 0.1377 0.39963 0.04189 0.0
C1140 C 0.09233 0.37166 0.0334 0.0
C1141 C 0.06878 0.35558 0.03286 0.0
C1142 C 0.10781 0.36601 0.0465 0.0
C1143 C 0.06114 0.33337 0.04319 0.0
C1144 C 0.07643 0.32742 0.05512 0.0
C1145 C 0.11427 0.33877 0.07379 0.0
C1146 C 0.13669 0.35596 0.08041 0.0
C1147 C 0.09962 0.34379 0.05779 0.0
C1148 C 0.14529 0.37759 0.06761 0.0
C1149 C 0.131 0.3825 0.05042 0.0
H1150 H 0.64805 0.71263 0.03824 0.0
H1151 H 0.71997 0.73519 0.03392 0.0
H1152 H 0.72931 0.7726 0.05259 0.0
H1153 H 0.71717 0.79667 0.0772 0.0
H1154 H 0.64565 0.77374 0.08637 0.0
H1155 H 0.63592 0.73918 0.05794 0.0
C1156 C 0.66573 0.72592 0.0409 0.0
C1157 C 0.6833 0.72105 0.03509 0.0
C1158 C 0.67103 0.74738 0.05247 0.0
C1159 C 0.70614 0.7384 0.03863 0.0
C1160 C 0.71152 0.75984 0.04924 0.0
C1161 C 0.69948 0.78447 0.07197 0.0
C1162 C 0.68214 0.78769 0.08363 0.0
C1163 C 0.69412 0.76424 0.05716 0.0
C1164 C 0.65926 0.77172 0.0772 0.0
C1165 C 0.65374 0.7518 0.06139 0.0
H1166 H 0.2968 0.95258 0.01552 0.0
H1167 H 0.34699 0.95687 0.07773 0.0
H1168 H 0.31738 0.92524 0.10544 0.0
H1169 H 0.27714 0.90039 0.116 0.0
H1170 H 0.22584 0.89859 0.05814 0.0
H1171 H 0.25568 0.92439 0.02414 0.0
C1172 C 0.30116 0.94621 0.03484 0.0
C1173 C 0.32395 0.95709 0.0448 0.0
C1174 C 0.2838 0.92845 0.05141 0.0
C1175 C 0.3295 0.94889 0.06991 0.0
C1176 C 0.3126 0.93078 0.08572 0.0
C1177 C 0.2725 0.90523 0.09556 0.0
C1178 C 0.24944 0.89784 0.08963 0.0
C1179 C 0.28968 0.92099 0.07725 0.0
C1180 C 0.24352 0.90402 0.06306 0.0
C1181 C 0.26061 0.91903 0.04388 0.0
H1182 H 0.39635 0.09503 0.98558 0.0
H1183 H 0.32496 0.0435 0.98679 0.0
H1184 H 0.31494 0.07041 0.96546 0.0
H1185 H 0.3268 0.10661 0.94011 0.0
H1186 H 0.39794 0.15787 0.93681 0.0
H1187 H 0.40776 0.13344 0.96597 0.0
C1188 C 0.37859 0.08983 0.9816 0.0
C1189 C 0.36146 0.06715 0.98739 0.0
C1190 C 0.37291 0.10542 0.96904 0.0
C1191 C 0.3385 0.06075 0.98232 0.0
C1192 C 0.33274 0.07614 0.9701 0.0
C1193 C 0.34434 0.11273 0.94683 0.0
C1194 C 0.36162 0.13405 0.93676 0.0
C1195 C 0.34983 0.09826 0.96258 0.0
C1196 C 0.38436 0.1417 0.94489 0.0
C1197 C 0.38996 0.12756 0.96114 0.0
H1198 H 0.94154 0.30826 0.99089 0.0
H1199 H 0.99784 0.29718 0.97337 0.0
H1200 H 0.97212 0.26116 0.94904 0.0
H1201 H 0.93525 0.23627 0.92601 0.0
H1202 H 0.87931 0.24857 0.93853 0.0
H1203 H 0.90284 0.28014 0.97224 0.0
C1204 C 0.94798 0.29764 0.9823 0.0
C1205 C 0.97155 0.3054 0.9836 0.0
C1206 C 0.93313 0.27721 0.96736 0.0
C1207 C 0.9798 0.29164 0.97229 0.0
C1208 C 0.96511 0.27104 0.9584 0.0
C1209 C 0.92804 0.24546 0.93689 0.0
C1210 C 0.90572 0.24027 0.92988 0.0
C1211 C 0.94196 0.26414 0.95485 0.0
C1212 C 0.89644 0.25221 0.94387 0.0
C1213 C 0.91 0.27044 0.96279 0.0
H1214 H 0.7479 0.69738 0.97823 0.0
H1215 H 0.72248 0.62621 -0.00303 0.0
H1216 H 0.75649 0.62857 0.97493 0.0
H1217 H 0.79053 0.64962 0.94376 0.0
H1218 H 0.81565 0.72068 0.9252 0.0
H1219 H 0.78524 0.71997 0.9546 0.0
C1220 C 0.74999 0.68249 0.9778 0.0
C1221 C 0.73257 0.66154 0.98861 0.0
C1222 C 0.76968 0.68406 0.96539 0.0
C1223 C 0.73562 0.64247 0.98852 0.0
C1224 C 0.75505 0.64382 0.97592 0.0
C1225 C 0.78991 0.66515 0.94739 0.0
C1226 C 0.80537 0.68524 0.93272 0.0
C1227 C 0.77188 0.66436 0.96352 0.0
C1228 C 0.80413 0.70518 0.93681 0.0
C1229 C 0.78652 0.70465 0.95317 0.0
H1230 H 0.96227 0.67134 0.0013 0.0
H1231 H 0.96126 0.62128 0.94195 0.0
H1232 H 0.92993 0.62056 0.91451 0.0
H1233 H 0.90707 0.63826 0.9029 0.0
H1234 H 0.90997 0.69088 0.95869 0.0
H1235 H 0.93559 0.68605 0.99253 0.0
C1236 C 0.9548 0.65994 0.98274 0.0
C1237 C 0.9642 0.64654 0.97347 0.0
C1238 C 0.93713 0.66014 0.96639 0.0
C1239 C 0.95448 0.63193 0.94931 0.0
C1240 C 0.93655 0.63149 0.93361 0.0
C1241 C 0.91283 0.64819 0.92294 0.0
C1242 C 0.90681 0.66496 0.9283 0.0
C1243 C 0.92833 0.64609 0.94131 0.0
C1244 C 0.91428 0.67776 0.95426 0.0
C1245 C 0.92918 0.6752 0.97335 0.0
H1246 H 0.33917 0.29584 -0.00389 0.0
H1247 H 0.41186 0.32255 0.0014 0.0
H1248 H 0.40726 0.28782 0.97855 0.0
H1249 H 0.3833 0.25298 0.94946 0.0
H1250 H 0.31096 0.22711 0.94277 0.0
H1251 H 0.31449 0.25788 0.97443 0.0
C1252 C 0.35394 0.29384 0.99283 0.0
C1253 C 0.37586 0.31192 -0.0 0.0
C1254 C 0.35119 0.27389 0.97941 0.0
C1255 C 0.39481 0.30898 -0.00411 0.0
C1256 C 0.3922 0.28913 0.98273 0.0
C1257 C 0.36823 0.25355 0.95611 0.0
C1258 C 0.34687 0.23774 0.94416 0.0
C1259 C 0.37058 0.27184 0.97341 0.0
C1260 C 0.32748 0.23892 0.95219 0.0
C1261 C 0.32958 0.25671 0.9699 0.0
H1262 H 0.74268 0.05601 0.9741 0.0
H1263 H 0.71258 0.09834 0.98786 0.0
H1264 H 0.74535 0.13056 0.96458 0.0
H1265 H 0.77989 0.14483 0.93425 0.0
H1266 H 0.80961 0.10234 0.92014 0.0
H1267 H 0.78012 0.07222 0.95032 0.0
C1268 C 0.74347 0.07238 0.9723 0.0
C1269 C 0.72511 0.07473 0.98214 0.0
C1270 C 0.7624 0.09083 0.95904 0.0
C1271 C 0.72646 0.0961 0.9802 0.0
C1272 C 0.74518 0.11452 0.96689 0.0
C1273 C 0.78036 0.12933 0.93892 0.0
C1274 C 0.79694 0.12578 0.92552 0.0
C1275 C 0.76294 0.11189 0.95551 0.0
C1276 C 0.7972 0.10548 0.93084 0.0
C1277 C 0.78015 0.08817 0.94769 0.0
H1278 H 0.65115 0.93899 0.02739 0.0
H1279 H 0.71648 0.99557 0.05372 0.0
H1280 H 0.72688 0.96932 0.07595 0.0
H1281 H 0.71553 0.93109 0.09391 0.0
H1282 H 0.64965 0.87435 0.0711 0.0
H1283 H 0.64162 0.89951 0.04068 0.0
C1284 C 0.66777 0.94549 0.03763 0.0
C1285 C 0.68286 0.96927 0.03927 0.0
C1286 C 0.6736 0.93021 0.05086 0.0
C1287 C 0.70439 0.97742 0.05248 0.0
C1288 C 0.71042 0.9624 0.06515 0.0
C1289 C 0.69979 0.92413 0.08134 0.0
C1290 C 0.68327 0.90095 0.08448 0.0
C1291 C 0.69493 0.93887 0.06522 0.0
C1292 C 0.66275 0.89208 0.06857 0.0
C1293 C 0.65803 0.90657 0.05162 0.0
H1294 H 0.09928 0.72779 0.0164 0.0
H1295 H 0.03911 0.72882 0.04488 0.0
H1296 H 0.06284 0.76464 0.07078 0.0
H1297 H 0.10001 0.79175 0.09226 0.0
H1298 H 0.16019 0.79013 0.06608 0.0
H1299 H 0.13738 0.75902 0.03166 0.0
C1300 C 0.09141 0.73613 0.02773 0.0
C1301 C 0.06744 0.72541 0.02916 0.0
C1302 C 0.10521 0.75664 0.04306 0.0
C1303 C 0.05749 0.73653 0.04373 0.0
C1304 C 0.07106 0.75704 0.0586 0.0
C1305 C 0.1082 0.7851 0.07819 0.0
C1306 C 0.13165 0.79306 0.08168 0.0
C1307 C 0.09484 0.76672 0.05939 0.0
C1308 C 0.14217 0.78436 0.06353 0.0
C1309 C 0.12906 0.76634 0.0442 0.0
H1310 H 0.3024 0.3466 0.02095 0.0
H1311 H 0.34937 0.41106 0.06131 0.0
H1312 H 0.31762 0.41375 0.08189 0.0
H1313 H 0.27749 0.39515 0.09485 0.0
H1314 H 0.23048 0.32807 0.06164 0.0
H1315 H 0.26071 0.32921 0.03086 0.0
C1316 C 0.30548 0.36136 0.0338 0.0
C1317 C 0.32807 0.3786 0.03982 0.0
C1318 C 0.28706 0.36228 0.04673 0.0
C1319 C 0.33208 0.39757 0.05669 0.0
C1320 C 0.31395 0.39913 0.06836 0.0
C1321 C 0.27371 0.38114 0.08003 0.0
C1322 C 0.25189 0.36159 0.08038 0.0
C1323 C 0.29148 0.38126 0.06437 0.0
C1324 C 0.24711 0.3434 0.06142 0.0
C1325 C 0.26452 0.34392 0.04427 0.0
H1326 H 0.77184 0.7286 0.35565 0.0
H1327 H 0.71706 0.65865 0.36093 0.0
H1328 H 0.74275 0.64771 0.38402 0.0
H1329 H 0.77863 0.65914 0.41011 0.0
H1330 H 0.83282 0.72926 0.40822 0.0
H1331 H 0.80995 0.73893 0.37568 0.0
C1332 C 0.76569 0.71088 0.36122 0.0
C1333 C 0.74246 0.69452 0.35692 0.0
C1334 C 0.7805 0.70476 0.37522 0.0
C1335 C 0.73477 0.67162 0.36425 0.0
C1336 C 0.74946 0.66534 0.37751 0.0
C1337 C 0.7857 0.67636 0.40168 0.0
C1338 C 0.80732 0.69348 0.41154 0.0
C1339 C 0.77207 0.68191 0.38414 0.0
C1340 C 0.81632 0.71577 0.40068 0.0
C1341 C 0.80307 0.72134 0.38245 0.0
H1342 H 0.35583 0.0794 0.35001 0.0
H1343 H 0.29078 0.0314 0.38736 0.0
H1344 H 0.29072 0.06211 0.41537 0.0
H1345 H 0.31201 0.10137 0.43476 0.0
H1346 H 0.3769 0.14943 0.39758 0.0
H1347 H 0.37402 0.12018 0.36342 0.0
C1348 C 0.34146 0.07578 0.36387 0.0
C1349 C 0.32351 0.05314 0.367 0.0
C1350 C 0.34154 0.09355 0.37991 0.0
C1351 C 0.30485 0.04868 0.38471 0.0
C1352 C 0.30484 0.06622 0.40081 0.0
C1353 C 0.32505 0.10557 0.41838 0.0
C1354 C 0.34458 0.12742 0.41844 0.0
C1355 C 0.32345 0.08856 0.39933 0.0
C1356 C 0.3616 0.13277 0.39754 0.0
C1357 C 0.36008 0.11596 0.37832 0.0
H1358 H 0.96638 0.30195 0.34839 0.0
H1359 H 1.00699 0.27452 0.3836 0.0
H1360 H 0.97332 0.24335 0.40624 0.0
H1361 H 0.93389 0.22719 0.42216 0.0
H1362 H 0.89351 0.25612 0.39197 0.0
H1363 H 0.92501 0.28281 0.36055 0.0
C1364 C 0.96769 0.28887 0.36055 0.0
C1365 C 0.98921 0.29067 0.36453 0.0
C1366 C 0.9482 0.27117 0.37434 0.0
C1367 C 0.9907 0.27368 0.38046 0.0
C1368 C 0.97143 0.25579 0.39339 0.0
C1369 C 0.93172 0.23873 0.40773 0.0
C1370 C 0.91137 0.23948 0.40885 0.0
C1371 C 0.95028 0.25477 0.39125 0.0
C1372 C 0.90887 0.25493 0.39086 0.0
C1373 C 0.92704 0.27043 0.37333 0.0
H1374 H 1.01614 0.39724 0.33319 0.0
H1375 H 0.08487 0.42518 0.30117 0.0
H1376 H 0.08212 0.45565 0.27647 0.0
H1377 H 0.05817 0.47064 0.2574 0.0
H1378 H 0.98912 0.44232 0.28745 0.0
H1379 H 0.99406 0.41618 0.31989 0.0
C1380 C 0.03067 0.4103 0.32136 0.0
C1381 C 0.05056 0.40869 0.3187 0.0
C1382 C 0.02888 0.42774 0.30674 0.0
C1383 C 0.06926 0.42581 0.30333 0.0
C1384 C 0.06771 0.44328 0.28913 0.0
C1385 C 0.04459 0.45939 0.27203 0.0
C1386 C 0.02346 0.45858 0.27049 0.0
C1387 C 0.04735 0.44394 0.2898 0.0
C1388 C 1.00569 0.44353 0.28883 0.0
C1389 C 1.00842 0.42836 0.30702 0.0
H1390 H 0.63171 0.63503 0.33932 0.0
H1391 H 0.63026 0.6829 0.27816 0.0
H1392 H 0.5975 0.65195 0.2531 0.0
H1393 H 0.57328 0.6112 0.24393 0.0
H1394 H 0.57721 0.56237 0.30051 0.0
H1395 H 0.6041 0.59345 0.33268 0.0
C1396 C 0.62387 0.63862 0.32086 0.0
C1397 C 0.63349 0.66117 0.31039 0.0
C1398 C 0.60541 0.6205 0.30578 0.0
C1399 C 0.62332 0.66565 0.28636 0.0
C1400 C 0.60455 0.64797 0.27207 0.0
C1401 C 0.57952 0.60736 0.26382 0.0
C1402 C 0.57342 0.5846 0.2698 0.0
C1403 C 0.59598 0.62531 0.28095 0.0
C1404 C 0.58154 0.57975 0.29559 0.0
C1405 C 0.59721 0.59757 0.31368 0.0
H1406 H 0.3948 0.98413 0.32572 0.0
H1407 H 0.40203 0.04705 0.29197 0.0
H1408 H 0.43802 0.05613 0.26925 0.0
H1409 H 0.4643 0.04368 0.25282 0.0
H1410 H 0.4561 0.97956 0.28235 0.0
H1411 H 0.42435 0.97383 0.31373 0.0
C1412 C 0.40449 0.99998 0.31379 0.0
C1413 C 0.39556 0.01472 0.31016 0.0
C1414 C 0.42511 1.00492 0.30012 0.0
C1415 C 0.40832 0.03524 0.29472 0.0
C1416 C 0.42897 0.04051 0.28178 0.0
C1417 C 0.45603 0.02885 0.26695 0.0
C1418 C 0.46245 1.01206 0.26534 0.0
C1419 C 0.43713 0.02515 0.28353 0.0
C1420 C 0.4516 0.99282 0.28351 0.0
C1421 C 0.43319 0.98938 0.30104 0.0
H1422 H 0.62641 1.00818 0.3345 0.0
H1423 H 0.62155 0.95339 0.28098 0.0
H1424 H 0.58837 0.95035 0.2557 0.0
H1425 H 0.56486 0.96714 0.24335 0.0
H1426 H 0.57168 0.02452 0.29238 0.0
H1427 H 0.59915 0.02221 0.32555 0.0
C1428 C 0.61774 0.99531 0.31771 0.0
C1429 C 0.62657 0.98121 0.30935 0.0
C1430 C 0.59895 0.99412 0.30248 0.0
C1431 C 0.61526 0.96464 0.28752 0.0
C1432 C 0.59624 0.96284 0.27308 0.0
C1433 C 0.5718 0.97861 0.26196 0.0
C1434 C 0.56635 0.99597 0.26547 0.0
C1435 C 0.58848 0.97801 0.27964 0.0
C1436 C 0.57547 1.01087 0.28946 0.0
C1437 C 0.59147 1.00977 0.30809 0.0
H1438 H 1.00478 0.62449 0.31349 0.0
H1439 H 0.07761 0.65302 0.32131 0.0
H1440 H 0.07437 0.61838 0.29988 0.0
H1441 H 0.05139 0.58238 0.27254 0.0
H1442 H 0.97877 0.5542 0.26425 0.0
H1443 H 0.98113 0.58583 0.29303 0.0
C1444 C 0.01989 0.62297 0.31083 0.0
C1445 C 0.04145 0.64142 0.31845 0.0
C1446 C 1.01786 0.60294 0.29865 0.0
C1447 C 0.06085 0.63911 0.31538 0.0
C1448 C 0.059 0.61931 0.30313 0.0
C1449 C 0.03602 0.58271 0.27826 0.0
C1450 C 1.01489 0.56589 0.26684 0.0
C1451 C 0.03768 0.60137 0.29394 0.0
C1452 C 0.9951 0.56673 0.27348 0.0
C1453 C 0.99653 0.58502 0.28947 0.0
H1454 H 0.41494 0.39663 0.32885 0.0
H1455 H 0.38034 0.43531 0.32008 0.0
H1456 H 0.41494 0.46756 0.30015 0.0
H1457 H 0.4527 0.4819 0.27757 0.0
H1458 H 0.48675 0.44277 0.28515 0.0
H1459 H 0.45516 0.41393 0.31415 0.0
C1460 C 0.41512 0.41228 0.32302 0.0
C1461 C 0.39501 0.41344 0.32535 0.0
C1462 C 0.43509 0.43074 0.31158 0.0
C1463 C 0.39555 0.43392 0.31821 0.0
C1464 C 0.41534 0.45237 0.3068 0.0
C1465 C 0.45364 0.46762 0.2869 0.0
C1466 C 0.47207 0.46452 0.27968 0.0
C1467 C 0.43495 0.45067 0.30245 0.0
C1468 C 0.47292 0.44567 0.29104 0.0
C1469 C 0.45465 0.42899 0.30712 0.0
H1470 H 0.37512 0.31725 0.37252 0.0
H1471 H 0.30283 0.27337 0.35808 0.0
H1472 H 0.30484 0.2411 0.37895 0.0
H1473 H 0.32609 0.22722 0.40847 0.0
H1474 H 0.39803 0.27142 0.42394 0.0
H1475 H 0.3975 0.30149 0.3947 0.0
C1476 C 0.35989 0.30053 0.37353 0.0
C1477 C 0.33878 0.29778 0.36432 0.0
C1478 C 0.36118 0.28207 0.38557 0.0
C1479 C 0.31924 0.27596 0.36528 0.0
C1480 C 0.32038 0.2575 0.37724 0.0
C1481 C 0.3418 0.24306 0.40419 0.0
C1482 C 0.36213 0.24711 0.41788 0.0
C1483 C 0.34111 0.26054 0.38833 0.0
C1484 C 0.38232 0.26788 0.41304 0.0
C1485 C 0.38191 0.28517 0.39677 0.0
H1486 H 0.76668 0.05357 0.35983 0.0
H1487 H 0.71214 0.06916 0.36141 0.0
H1488 H 0.7375 0.1059 0.38446 0.0
H1489 H 0.77327 0.13093 0.41057 0.0
H1490 H 0.82761 0.11531 0.41098 0.0
H1491 H 0.80459 0.08161 0.38015 0.0
C1492 C 0.7605 0.06521 0.36472 0.0
C1493 C 0.73743 0.05846 0.35927 0.0
C1494 C 0.77518 0.08632 0.37836 0.0
C1495 C 0.72972 0.0738 0.36558 0.0
C1496 C 0.74422 0.09483 0.37882 0.0
C1497 C 0.78031 0.12054 0.403 0.0
C1498 C 0.80207 0.12555 0.41279 0.0
C1499 C 0.76671 0.10092 0.38616 0.0
C1500 C 0.81101 0.1119 0.4033 0.0
C1501 C 0.79771 0.09249 0.38604 0.0
H1502 H 0.98292 0.71644 0.35773 0.0
H1503 H 0.9797 0.65705 0.39776 0.0
H1504 H 0.94412 0.64804 0.42164 0.0
H1505 H 0.91692 0.65974 0.43649 0.0
H1506 H 0.92112 0.72053 0.40039 0.0
H1507 H 0.95262 0.72585 0.36877 0.0
C1508 C 0.97423 0.70138 0.37137 0.0
C1509 C 0.98415 0.68763 0.37632 0.0
C1510 C 0.95383 0.69648 0.38559 0.0
C1511 C 0.97264 0.6681 0.39393 0.0
C1512 C 0.95222 0.66287 0.40753 0.0
C1513 C 0.9243 0.67374 0.42099 0.0
C1514 C 0.91683 0.68975 0.42073 0.0
C1515 C 0.94305 0.67728 0.40421 0.0
C1516 C 0.92648 0.70788 0.40072 0.0
C1517 C 0.94473 0.7111 0.38303 0.0
H1518 H 0.40928 0.01869 0.68879 0.0
H1519 H 0.42989 0.08455 0.72722 0.0
H1520 H 0.46135 0.08396 0.75255 0.0
H1521 H 0.47952 0.06238 0.76944 0.0
H1522 H 0.45879 0.99623 0.73269 0.0
H1523 H 0.4314 0.99947 0.70048 0.0
C1524 C 0.4209 0.03306 0.70232 0.0
C1525 C 0.41697 0.05146 0.70645 0.0
C1526 C 0.43903 0.03258 0.71708 0.0
C1527 C 0.43232 0.07005 0.72387 0.0
C1528 C 0.45037 0.06975 0.7384 0.0
C1529 C 0.46963 0.04913 0.75349 0.0
C1530 C 0.47127 0.02923 0.7531 0.0
C1531 C 0.45346 0.05083 0.73589 0.0
C1532 C 0.45807 1.01188 0.7329 0.0
C1533 C 0.44217 0.0136 0.71486 0.0
H1534 H 0.0371 0.40714 0.69492 0.0
H1535 H 0.96351 0.37267 0.69536 0.0
H1536 H 0.96485 0.4058 0.71869 0.0
H1537 H 0.98692 0.44198 0.74585 0.0
H1538 H 0.06031 0.4762 0.74617 0.0
H1539 H 0.05921 0.4462 0.71503 0.0
C1540 C 0.02138 0.40706 0.69965 0.0
C1541 C 1.00024 0.38732 0.69386 0.0
C1542 C 0.02228 0.42621 0.71314 0.0
C1543 C 0.98001 0.38757 0.69979 0.0
C1544 C 0.98075 0.40651 0.71319 0.0
C1545 C 1.00262 0.44332 0.73793 0.0
C1546 C 0.02367 0.46137 0.74778 0.0
C1547 C 1.00177 0.42562 0.72083 0.0
C1548 C 0.04397 0.46269 0.73822 0.0
C1549 C 0.0433 0.44534 0.72084 0.0
H1550 H 0.65777 0.60485 0.6953 0.0
H1551 H 0.6416 0.65865 0.70457 0.0
H1552 H 0.60545 0.63221 0.72754 0.0
H1553 H 0.58185 0.59605 0.7523 0.0
H1554 H 0.59925 0.543 0.74866 0.0
H1555 H 0.63097 0.56635 0.7155 0.0
C1556 C 0.64601 0.61051 0.70177 0.0
C1557 C 0.65232 0.63364 0.69858 0.0
C1558 C 0.62551 0.59533 0.71608 0.0
C1559 C 0.63713 0.64095 0.70717 0.0
C1560 C 0.61647 0.62586 0.72027 0.0
C1561 C 0.59217 0.58936 0.74342 0.0
C1562 C 0.58839 0.56799 0.75283 0.0
C1563 C 0.61094 0.60331 0.72587 0.0
C1564 C 0.60181 0.55938 0.74144 0.0
C1565 C 0.62012 0.57288 0.72286 0.0
H1566 H 0.74565 0.76563 0.6486 0.0
H1567 H 0.67356 0.7229 0.66492 0.0
H1568 H 0.66643 0.75242 0.64595 0.0
H1569 H 0.6796 0.78717 0.6169 0.0
H1570 H 0.75094 0.82896 0.59718 0.0
H1571 H 0.75964 0.80363 0.62602 0.0
C1572 C 0.72848 0.76302 0.64854 0.0
C1573 C 0.71012 0.74193 0.65766 0.0
C1574 C 0.72438 0.78001 0.63704 0.0
C1575 C 0.68796 0.73882 0.65761 0.0
C1576 C 0.68384 0.75573 0.6468 0.0
C1577 C 0.69715 0.79126 0.62018 0.0
C1578 C 0.71467 0.80999 0.60544 0.0
C1579 C 0.70177 0.77599 0.63545 0.0
C1580 C 0.7373 0.81488 0.60895 0.0
C1581 C 0.74218 0.80015 0.62498 0.0
H1582 H 0.30813 0.96601 0.6638 0.0
H1583 H 0.28085 1.00854 0.6355 0.0
H1584 H 0.24985 0.97625 0.6098 0.0
H1585 H 0.23389 0.93763 0.58925 0.0
H1586 H 0.26188 0.89544 0.61523 0.0
H1587 H 0.2887 0.92547 0.64849 0.0
C1588 C 0.29515 0.96808 0.65246 0.0
C1589 C 0.29703 0.98977 0.65125 0.0
C1590 C 0.2774 0.9494 0.63734 0.0
C1591 C 0.27999 0.99212 0.63657 0.0
C1592 C 0.26221 0.97364 0.62183 0.0
C1593 C 0.24522 0.93472 0.6032 0.0
C1594 C 0.2457 0.9143 0.60034 0.0
C1595 C 0.26115 0.95241 0.62128 0.0
C1596 C 0.26091 0.91087 0.6177 0.0
C1597 C 0.27647 0.92818 0.63633 0.0
H1598 H 0.07822 0.3534 0.66497 0.0
H1599 H 0.03282 0.28475 0.63455 0.0
H1600 H 0.06452 0.28421 0.61004 0.0
H1601 H 0.10363 0.30572 0.59055 0.0
H1602 H 0.14877 0.37442 0.62028 0.0
H1603 H 0.119 0.37238 0.6524 0.0
C1604 C 0.07539 0.33817 0.65345 0.0
C1605 C 0.05317 0.3193 0.65111 0.0
C1606 C 0.0937 0.33801 0.63933 0.0
C1607 C 0.04975 0.29956 0.63648 0.0
C1608 C 0.06786 0.29926 0.62238 0.0
C1609 C 0.10716 0.31979 0.60511 0.0
C1610 C 0.12831 0.34008 0.60349 0.0
C1611 C 0.08972 0.31868 0.62278 0.0
C1612 C 0.13269 0.35852 0.62173 0.0
C1613 C 0.11556 0.35745 0.63971 0.0
H1614 H 0.27846 0.31261 0.66307 0.0
H1615 H 0.33452 0.37682 0.63346 0.0
H1616 H 0.30798 0.38594 0.60927 0.0
H1617 H 0.26968 0.37346 0.59054 0.0
H1618 H 0.21341 0.30843 0.61631 0.0
H1619 H 0.23884 0.30211 0.6487 0.0
C1620 C 0.28476 0.32873 0.65171 0.0
C1621 C 0.30846 0.34384 0.64968 0.0
C1622 C 0.26931 0.33375 0.63723 0.0
C1623 C 0.31641 0.36471 0.63498 0.0
C1624 C 0.30123 0.37001 0.62119 0.0
C1625 C 0.2629 0.35829 0.60411 0.0
C1626 C 0.2398 0.34148 0.60128 0.0
C1627 C 0.27777 0.35438 0.62139 0.0
C1628 C 0.23111 0.32173 0.61854 0.0
C1629 C 0.24573 0.31798 0.63665 0.0
H1630 H 0.67423 0.96447 0.64009 0.0
H1631 H 0.74714 1.00025 0.6534 0.0
H1632 H 0.74885 0.96698 0.63564 0.0
H1633 H 0.73017 0.93013 0.60909 0.0
H1634 H 0.65733 0.89453 0.59614 0.0
H1635 H 0.65478 0.92481 0.62199 0.0
C1636 C 0.69043 0.96481 0.63947 0.0
C1637 C 0.7106 0.98487 0.64739 0.0
C1638 C 0.69121 0.94554 0.6296 0.0
C1639 C 0.73143 0.98503 0.64712 0.0
C1640 C 0.7324 0.96602 0.63697 0.0
C1641 C 0.71366 0.92854 0.61331 0.0
C1642 C 0.69391 0.91007 0.60117 0.0
C1643 C 0.71249 0.94643 0.62732 0.0
C1644 C 0.67264 0.90838 0.60591 0.0
C1645 C 0.67127 0.92592 0.62017 0.0
H1646 H 0.06871 0.76618 0.65616 0.0
H1647 H 0.07137 0.70844 0.62057 0.0
H1648 H 0.10705 0.73403 0.59612 0.0
H1649 H 0.13467 0.77235 0.57968 0.0
H1650 H 0.13106 0.83042 0.61114 0.0
H1651 H 0.09927 0.80543 0.64327 0.0
C1652 C 0.07728 0.75926 0.64332 0.0
C1653 C 0.0672 0.73543 0.63982 0.0
C1654 C 0.09775 0.77418 0.62877 0.0
C1655 C 0.07855 0.7267 0.62326 0.0
C1656 C 0.09903 0.74132 0.60936 0.0
C1657 C 0.12734 0.77957 0.5943 0.0
C1658 C 0.13508 0.8031 0.59312 0.0
C1659 C 0.10843 0.76502 0.61131 0.0
C1660 C 0.1255 0.81237 0.61195 0.0
C1661 C 0.10708 0.79801 0.62992 0.0
H1662 H 0.98596 0.60966 0.70161 0.0
H1663 H 0.05447 0.6657 0.71562 0.0
H1664 H 0.06549 0.6399 0.73774 0.0
H1665 H 0.05487 0.60272 0.75826 0.0
H1666 H 0.98608 0.5467 0.74889 0.0
H1667 H 0.97609 0.57077 0.71902 0.0
C1668 C 1.00333 0.61608 0.70921 0.0
C1669 C 0.01929 0.63964 0.7073 0.0
C1670 C 1.00953 0.6011 0.72262 0.0
C1671 C 0.04176 0.64774 0.7172 0.0
C1672 C 0.04814 0.63298 0.72976 0.0
C1673 C 0.03784 0.59563 0.74899 0.0
C1674 C 0.02123 0.57305 0.75567 0.0
C1675 C 0.03205 0.60981 0.73325 0.0
C1676 C 0.9992 0.56399 0.74372 0.0
C1677 C 0.99344 0.57787 0.72704 0.0
H1678 H 0.43462 0.39437 0.69393 0.0
H1679 H 0.37853 0.39662 0.73507 0.0
H1680 H 0.40511 0.4326 0.7588 0.0
H1681 H 0.44409 0.46019 0.77346 0.0
H1682 H 0.50059 0.45643 0.73689 0.0
H1683 H 0.47428 0.425 0.70477 0.0
C1684 C 0.42826 0.40294 0.70778 0.0
C1685 C 0.40467 0.39266 0.71314 0.0
C1686 C 0.44375 0.42347 0.72197 0.0
C1687 C 0.39662 0.40398 0.73099 0.0
C1688 C 0.4118 0.42462 0.74446 0.0
C1689 C 0.45066 0.45293 0.75772 0.0
C1690 C 0.47413 0.46043 0.75753 0.0
C1691 C 0.43538 0.4341 0.74085 0.0
C1692 C 0.48258 0.45101 0.7372 0.0
C1693 C 0.46748 0.43279 0.71924 0.0
H1694 H 0.63851 0.04722 0.68249 0.0
H1695 H 0.64119 0.98918 0.71708 0.0
H1696 H 0.60639 0.97764 0.74457 0.0
H1697 H 0.57871 0.98713 0.76443 0.0
H1698 H 0.57705 0.04636 0.73311 0.0
H1699 H 0.60726 0.05391 0.69797 0.0
C1700 C 0.6312 0.03182 0.69561 0.0
C1701 C 0.64262 0.01927 0.69808 0.0
C1702 C 0.61132 0.02549 0.71196 0.0
C1703 C 0.63292 0.99931 0.7151 0.0
C1704 C 0.61299 0.99267 0.73082 0.0
C1705 C 0.58456 1.00132 0.7493 0.0
C1706 C 0.57586 0.01628 0.75144 0.0
C1707 C 0.60253 1.00606 0.73022 0.0
C1708 C 0.58342 0.03454 0.73171 0.0
C1709 C 0.60092 0.03903 0.71194 0.0
loop_
_geom_bond_atom_site_label_1
_geom_bond_atom_site_label_2
_geom_bond_distance
_geom_bond_site_symmetry_2
_ccdc_geom_bond_type
In0 O1 2.294 1_455 S
In0 O2 2.326 . S
In0 O6 2.266 1_455 S
In0 O7 2.326 1_454 S
In0 O8 2.266 1_554 S
In0 O9 2.326 1_454 S
In0 O11 2.294 . S
In0 O12 2.326 . S
O1 In0 2.294 1_655 S
O1 C10 1.240 1_655 S
O2 In0 2.326 . S
O2 C10 1.252 . S
C3 O6 1.252 1_556 S
C3 O7 1.260 . S
C4 O11 1.240 . S
C4 O12 1.252 . S
C5 O8 1.252 . S
C5 O9 1.260 1_455 S
O6 In0 2.266 1_655 S
O6 C3 1.252 1_554 S
O7 In0 2.326 1_656 S
O7 C3 1.260 . S
O8 In0 2.266 1_556 S
O8 C5 1.252 . S
O9 In0 2.326 1_656 S
O9 C5 1.260 1_655 S
C10 O1 1.240 1_455 S
C10 O2 1.252 . S
O11 In0 2.294 . S
O11 C4 1.240 . S
O12 In0 2.326 . S
O12 C4 1.252 . S
In13 O14 2.294 . S
In13 O15 2.326 . S
In13 O19 2.266 . S
In13 O20 2.326 1_554 S
In13 O21 2.266 1_554 S
In13 O22 2.326 1_554 S
In13 O24 2.294 . S
In13 O25 2.326 . S
O14 In13 2.294 . S
O14 C23 1.240 . S
O15 In13 2.326 . S
O15 C23 1.252 . S
C16 O19 1.252 1_556 S
C16 O20 1.260 . S
C17 O24 1.240 . S
C17 O25 1.252 . S
C18 O21 1.252 . S
C18 O22 1.260 . S
O19 In13 2.266 . S
O19 C16 1.252 1_554 S
O20 In13 2.326 1_556 S
O20 C16 1.260 . S
O21 In13 2.266 1_556 S
O21 C18 1.252 . S
O22 In13 2.326 1_556 S
O22 C18 1.260 . S
C23 O14 1.240 . S
C23 O15 1.252 . S
O24 In13 2.294 . S
O24 C17 1.240 . S
O25 In13 2.326 . S
O25 C17 1.252 . S
In26 O27 2.294 . S
In26 O28 2.326 1_554 S
In26 O32 2.266 . S
In26 O33 2.326 1_545 S
In26 O34 2.266 1_545 S
In26 O35 2.326 1_545 S
In26 O37 2.294 1_544 S
In26 O38 2.326 1_554 S
O27 In26 2.294 . S
O27 C36 1.240 1_554 S
O28 In26 2.326 1_556 S
O28 C36 1.252 . S
C29 O32 1.252 . S
C29 O33 1.260 1_545 S
C30 O37 1.240 1_545 S
C30 O38 1.252 . S
C31 O34 1.252 . S
C31 O35 1.260 . S
O32 In26 2.266 . S
O32 C29 1.252 . S
O33 In26 2.326 1_565 S
O33 C29 1.260 1_565 S
O34 In26 2.266 1_565 S
O34 C31 1.252 . S
O35 In26 2.326 1_565 S
O35 C31 1.260 . S
C36 O27 1.240 1_556 S
C36 O28 1.252 . S
O37 In26 2.294 1_566 S
O37 C30 1.240 1_565 S
O38 In26 2.326 1_556 S
O38 C30 1.252 . S
In39 O40 2.294 1_554 S
In39 O41 2.326 1_454 S
In39 O45 2.266 . S
In39 O46 2.326 . S
In39 O47 2.266 1_455 S
In39 O48 2.326 . S
In39 O50 2.294 1_455 S
In39 O51 2.326 1_454 S
O40 In39 2.294 1_556 S
O40 C49 1.240 . S
O41 In39 2.326 1_656 S
O41 C49 1.252 1_655 S
C42 O45 1.252 . S
C42 O46 1.260 . S
C43 O50 1.240 1_556 S
C43 O51 1.252 . S
C44 O47 1.252 1_455 S
C44 O48 1.260 . S
O45 In39 2.266 . S
O45 C42 1.252 . S
O46 In39 2.326 . S
O46 C42 1.260 . S
O47 In39 2.266 1_655 S
O47 C44 1.252 1_655 S
O48 In39 2.326 . S
O48 C44 1.260 . S
C49 O40 1.240 . S
C49 O41 1.252 1_455 S
O50 In39 2.294 1_655 S
O50 C43 1.240 1_554 S
O51 In39 2.326 1_656 S
O51 C43 1.252 . S
In52 O53 2.294 1_554 S
In52 O54 2.326 1_554 S
In52 O58 2.266 . S
In52 O59 2.326 . S
In52 O60 2.266 . S
In52 O61 2.326 . S
In52 O63 2.294 . S
In52 O64 2.326 1_554 S
O53 In52 2.294 1_556 S
O53 C62 1.240 . S
O54 In52 2.326 1_556 S
O54 C62 1.252 . S
C55 O58 1.252 . S
C55 O59 1.260 . S
C56 O63 1.240 1_556 S
C56 O64 1.252 . S
C57 O60 1.252 . S
C57 O61 1.260 . S
O58 In52 2.266 . S
O58 C55 1.252 . S
O59 In52 2.326 . S
O59 C55 1.260 . S
O60 In52 2.266 . S
O60 C57 1.252 . S
O61 In52 2.326 . S
O61 C57 1.260 . S
C62 O53 1.240 . S
C62 O54 1.252 . S
O63 In52 2.294 . S
O63 C56 1.240 1_554 S
O64 In52 2.326 1_556 S
O64 C56 1.252 . S
In65 O66 2.294 . S
In65 O67 2.326 1_545 S
In65 O71 2.266 . S
In65 O72 2.326 1_554 S
In65 O73 2.266 1_544 S
In65 O74 2.326 1_554 S
In65 O76 2.294 1_545 S
In65 O77 2.326 1_545 S
O66 In65 2.294 . S
O66 C75 1.240 . S
O67 In65 2.326 1_565 S
O67 C75 1.252 1_565 S
C68 O71 1.252 1_556 S
C68 O72 1.260 . S
C69 O76 1.240 . S
C69 O77 1.252 . S
C70 O73 1.252 1_545 S
C70 O74 1.260 . S
O71 In65 2.266 . S
O71 C68 1.252 1_554 S
O72 In65 2.326 1_556 S
O72 C68 1.260 . S
O73 In65 2.266 1_566 S
O73 C70 1.252 1_565 S
O74 In65 2.326 1_556 S
O74 C70 1.260 . S
C75 O66 1.240 . S
C75 O67 1.252 1_545 S
O76 In65 2.294 1_565 S
O76 C69 1.240 . S
O77 In65 2.326 1_565 S
O77 C69 1.252 . S
In78 O79 2.294 . S
In78 O80 2.326 . S
In78 O84 2.266 . S
In78 O85 2.326 . S
In78 O86 2.266 . S
In78 O87 2.326 . S
In78 O89 2.294 . S
In78 O90 2.326 . S
O79 In78 2.294 . S
O79 C88 1.240 . S
O80 In78 2.326 . S
O80 C88 1.252 . S
C81 O84 1.252 . S
C81 O85 1.260 . S
C82 O89 1.240 . S
C82 O90 1.252 . S
C83 O86 1.252 . S
C83 O87 1.260 . S
O84 In78 2.266 . S
O84 C81 1.252 . S
O85 In78 2.326 . S
O85 C81 1.260 . S
O86 In78 2.266 . S
O86 C83 1.252 . S
O87 In78 2.326 . S
O87 C83 1.260 . S
C88 O79 1.240 . S
C88 O80 1.252 . S
O89 In78 2.294 . S
O89 C82 1.240 . S
O90 In78 2.326 . S
O90 C82 1.252 . S
In91 O92 2.294 . S
In91 O93 2.326 . S
In91 O97 2.266 . S
In91 O98 2.326 1_565 S
In91 O99 2.266 . S
In91 O100 2.326 . S
In91 O102 2.294 1_565 S
In91 O103 2.326 1_565 S
O92 In91 2.294 . S
O92 C101 1.240 . S
O93 In91 2.326 . S
O93 C101 1.252 . S
C94 O97 1.252 . S
C94 O98 1.260 1_565 S
C95 O102 1.240 . S
C95 O103 1.252 . S
C96 O99 1.252 . S
C96 O100 1.260 . S
O97 In91 2.266 . S
O97 C94 1.252 . S
O98 In91 2.326 1_545 S
O98 C94 1.260 1_545 S
O99 In91 2.266 . S
O99 C96 1.252 . S
O100 In91 2.326 . S
O100 C96 1.260 . S
C101 O92 1.240 . S
C101 O93 1.252 . S
O102 In91 2.294 1_545 S
O102 C95 1.240 . S
O103 In91 2.326 1_545 S
O103 C95 1.252 . S
In104 O105 2.294 . S
In104 O106 2.326 . S
In104 O110 2.266 . S
In104 O111 2.326 . S
In104 O112 2.266 1_455 S
In104 O113 2.326 1_455 S
In104 O115 2.294 . S
In104 O116 2.326 . S
O105 In104 2.294 . S
O105 C114 1.240 . S
O106 In104 2.326 . S
O106 C114 1.252 . S
C107 O110 1.252 . S
C107 O111 1.260 . S
C108 O115 1.240 . S
C108 O116 1.252 . S
C109 O112 1.252 . S
C109 O113 1.260 . S
O110 In104 2.266 . S
O110 C107 1.252 . S
O111 In104 2.326 . S
O111 C107 1.260 . S
O112 In104 2.266 1_655 S
O112 C109 1.252 . S
O113 In104 2.326 1_655 S
O113 C109 1.260 . S
C114 O105 1.240 . S
C114 O106 1.252 . S
O115 In104 2.294 . S
O115 C108 1.240 . S
O116 In104 2.326 . S
O116 C108 1.252 . S
In117 O118 2.294 . S
In117 O119 2.326 . S
In117 O123 2.266 1_565 S
In117 O124 2.326 1_565 S
In117 O125 2.266 . S
In117 O126 2.326 . S
In117 O128 2.294 . S
In117 O129 2.308 1_565 S
O118 In117 2.294 . S
O118 C127 1.240 . S
O119 In117 2.326 . S
O119 C127 1.252 . S
C120 O123 1.252 . S
C120 O124 1.260 . S
C121 O128 1.240 . S
C121 O129 1.254 1_565 S
C122 O125 1.252 . S
C122 O126 1.260 . S
O123 In117 2.266 1_545 S
O123 C120 1.252 . S
O124 In117 2.326 1_545 S
O124 C120 1.260 . S
O125 In117 2.266 . S
O125 C122 1.252 . S
O126 In117 2.326 . S
O126 C122 1.260 . S
C127 O118 1.240 . S
C127 O119 1.252 . S
O128 In117 2.294 . S
O128 C121 1.240 . S
O129 In117 2.308 1_545 S
O129 C121 1.254 1_545 S
In130 O131 2.294 . S
In130 O132 2.326 . S
In130 O136 2.266 1_455 S
In130 O137 2.326 1_455 S
In130 O138 2.266 . S
In130 O139 2.326 . S
In130 O141 2.294 . S
In130 O142 2.326 . S
O131 In130 2.294 . S
O131 C140 1.240 . S
O132 In130 2.326 . S
O132 C140 1.252 . S
C133 O136 1.252 . S
C133 O137 1.260 . S
C134 O141 1.240 . S
C134 O142 1.252 . S
C135 O138 1.252 . S
C135 O139 1.260 . S
O136 In130 2.266 1_655 S
O136 C133 1.252 . S
O137 In130 2.326 1_655 S
O137 C133 1.260 . S
O138 In130 2.266 . S
O138 C135 1.252 . S
O139 In130 2.326 . S
O139 C135 1.260 . S
C140 O131 1.240 . S
C140 O132 1.252 . S
O141 In130 2.294 . S
O141 C134 1.240 . S
O142 In130 2.326 . S
O142 C134 1.252 . S
In143 O144 2.294 . S
In143 O145 2.326 . S
In143 O149 2.266 . S
In143 O150 2.326 . S
In143 O151 2.266 . S
In143 O152 2.326 . S
In143 O154 2.294 . S
In143 O155 2.326 . S
O144 In143 2.294 . S
O144 C153 1.240 . S
O145 In143 2.326 . S
O145 C153 1.252 . S
C146 O149 1.252 . S
C146 O150 1.260 . S
C147 O154 1.240 . S
C147 O155 1.252 . S
C148 O151 1.252 . S
C148 O152 1.260 . S
O149 In143 2.266 . S
O149 C146 1.252 . S
O150 In143 2.326 . S
O150 C146 1.260 . S
O151 In143 2.266 . S
O151 C148 1.252 . S
O152 In143 2.326 . S
O152 C148 1.260 . S
C153 O144 1.240 . S
C153 O145 1.252 . S
O154 In143 2.294 . S
O154 C147 1.240 . S
O155 In143 2.326 . S
O155 C147 1.252 . S
In156 O157 2.294 . S
In156 O158 2.326 . S
In156 O162 2.266 . S
In156 O163 2.326 . S
In156 O164 2.266 1_545 S
In156 O165 2.326 1_545 S
In156 O167 2.294 . S
In156 O168 2.326 . S
O157 In156 2.294 . S
O157 C166 1.240 . S
O158 In156 2.326 . S
O158 C166 1.252 . S
C159 O162 1.252 . S
C159 O163 1.260 . S
C160 O167 1.240 . S
C160 O168 1.252 . S
C161 O164 1.252 . S
C161 O165 1.260 . S
O162 In156 2.266 . S
O162 C159 1.252 . S
O163 In156 2.326 . S
O163 C159 1.260 . S
O164 In156 2.266 1_565 S
O164 C161 1.252 . S
O165 In156 2.326 1_565 S
O165 C161 1.260 . S
C166 O157 1.240 . S
C166 O158 1.252 . S
O167 In156 2.294 . S
O167 C160 1.240 . S
O168 In156 2.326 . S
O168 C160 1.252 . S
In169 O170 2.294 . S
In169 O171 2.325 1_655 S
In169 O175 2.266 . S
In169 O176 2.326 . S
In169 O177 2.266 1_655 S
In169 O178 2.326 1_655 S
In169 O180 2.294 . S
In169 O181 2.326 . S
O170 In169 2.294 . S
O170 C179 1.240 . S
O171 In169 2.325 1_455 S
O171 C179 1.228 1_455 S
C172 O175 1.252 . S
C172 O176 1.260 . S
C173 O180 1.240 . S
C173 O181 1.252 . S
C174 O177 1.252 . S
C174 O178 1.260 . S
O175 In169 2.266 . S
O175 C172 1.252 . S
O176 In169 2.326 . S
O176 C172 1.260 . S
O177 In169 2.266 1_455 S
O177 C174 1.252 . S
O178 In169 2.326 1_455 S
O178 C174 1.260 . S
C179 O170 1.240 . S
C179 O171 1.228 1_655 S
O180 In169 2.294 . S
O180 C173 1.240 . S
O181 In169 2.326 . S
O181 C173 1.252 . S
In182 O183 2.294 . S
In182 O184 2.326 . S
In182 O188 2.266 . S
In182 O189 2.326 . S
In182 O190 2.266 . S
In182 O191 2.326 . S
In182 O193 2.294 . S
In182 O194 2.326 . S
O183 In182 2.294 . S
O183 C192 1.240 . S
O184 In182 2.326 . S
O184 C192 1.252 . S
C185 O188 1.252 . S
C185 O189 1.260 . S
C186 O193 1.240 . S
C186 O194 1.252 . S
C187 O190 1.252 . S
C187 O191 1.260 . S
O188 In182 2.266 . S
O188 C185 1.252 . S
O189 In182 2.326 . S
O189 C185 1.260 . S
O190 In182 2.266 . S
O190 C187 1.252 . S
O191 In182 2.326 . S
O191 C187 1.260 . S
C192 O183 1.240 . S
C192 O184 1.252 . S
O193 In182 2.294 . S
O193 C186 1.240 . S
O194 In182 2.326 . S
O194 C186 1.252 . S
In195 O196 2.294 . S
In195 O197 2.326 . S
In195 O201 2.266 . S
In195 O202 2.326 . S
In195 O203 2.266 . S
In195 O204 2.326 . S
In195 O206 2.294 . S
In195 O207 2.326 . S
O196 In195 2.294 . S
O196 C205 1.240 . S
O197 In195 2.326 . S
O197 C205 1.252 . S
C198 O201 1.252 . S
C198 O202 1.260 . S
C199 O206 1.240 . S
C199 O207 1.252 . S
C200 O203 1.252 . S
C200 O204 1.260 . S
O201 In195 2.266 . S
O201 C198 1.252 . S
O202 In195 2.326 . S
O202 C198 1.260 . S
O203 In195 2.266 . S
O203 C200 1.252 . S
O204 In195 2.326 . S
O204 C200 1.260 . S
C205 O196 1.240 . S
C205 O197 1.252 . S
O206 In195 2.294 . S
O206 C199 1.240 . S
O207 In195 2.326 . S
O207 C199 1.252 . S
In208 O209 2.294 . S
In208 O210 2.326 . S
In208 O214 2.266 . S
In208 O215 2.326 . S
In208 O216 2.266 . S
In208 O217 2.326 . S
In208 O219 2.294 1_545 S
In208 O220 2.326 1_545 S
O209 In208 2.294 . S
O209 C218 1.240 . S
O210 In208 2.326 . S
O210 C218 1.252 . S
C211 O214 1.252 . S
C211 O215 1.260 . S
C212 O219 1.240 . S
C212 O220 1.252 . S
C213 O216 1.252 . S
C213 O217 1.260 . S
O214 In208 2.266 . S
O214 C211 1.252 . S
O215 In208 2.326 . S
O215 C211 1.260 . S
O216 In208 2.266 . S
O216 C213 1.252 . S
O217 In208 2.326 . S
O217 C213 1.260 . S
C218 O209 1.240 . S
C218 O210 1.252 . S
O219 In208 2.294 1_565 S
O219 C212 1.240 . S
O220 In208 2.326 1_565 S
O220 C212 1.252 . S
In221 O222 2.294 . S
In221 O223 2.318 1_655 S
In221 O227 2.266 . S
In221 O228 2.326 . S
In221 O229 2.266 1_655 S
In221 O230 2.326 1_655 S
In221 O232 2.294 . S
In221 O233 2.326 . S
O222 In221 2.294 . S
O222 C231 1.240 . S
O223 In221 2.318 1_455 S
O223 C231 1.253 1_455 S
C224 O227 1.252 . S
C224 O228 1.260 . S
C225 O232 1.240 . S
C225 O233 1.252 . S
C226 O229 1.252 . S
C226 O230 1.260 . S
O227 In221 2.266 . S
O227 C224 1.252 . S
O228 In221 2.326 . S
O228 C224 1.260 . S
O229 In221 2.266 1_455 S
O229 C226 1.252 . S
O230 In221 2.326 1_455 S
O230 C226 1.260 . S
C231 O222 1.240 . S
C231 O223 1.253 1_655 S
O232 In221 2.294 . S
O232 C225 1.240 . S
O233 In221 2.326 . S
O233 C225 1.252 . S
H234 C240 0.930 . S
H235 C243 0.931 . S
H236 C245 0.931 . S
H237 C247 0.930 . S
H238 C249 0.930 . S
H239 C251 0.931 . S
C240 H234 0.930 . S
C240 C241 1.380 . S
C240 C242 1.394 . S
C241 C240 1.380 . S
C241 C245 1.382 . S
C242 C240 1.394 . S
C242 C243 1.400 . S
C243 H235 0.931 . S
C243 C242 1.400 . S
C243 C244 1.375 . S
C244 C243 1.375 . S
C244 C245 1.415 . S
C244 C246 1.501 . S
C245 H236 0.931 . S
C245 C241 1.382 . S
C245 C244 1.415 . S
C246 C244 1.501 . S
C246 C247 1.384 . S
C246 C251 1.408 . S
C247 H237 0.930 . S
C247 C246 1.384 . S
C247 C248 1.389 . S
C248 C247 1.389 . S
C248 C249 1.405 . S
C249 H238 0.930 . S
C249 C248 1.405 . S
C249 C250 1.364 . S
C250 C249 1.364 . S
C250 C251 1.400 . S
C251 H239 0.931 . S
C251 C246 1.408 . S
C251 C250 1.400 . S
H252 C258 0.930 . S
H253 C261 0.931 . S
H254 C263 0.931 . S
H255 C265 0.930 . S
H256 C267 0.930 . S
H257 C269 0.931 . S
C258 H252 0.930 . S
C258 C259 1.380 . S
C258 C260 1.394 . S
C259 C258 1.380 . S
C259 C263 1.382 . S
C260 C258 1.394 . S
C260 C261 1.400 . S
C261 H253 0.931 . S
C261 C260 1.400 . S
C261 C262 1.375 . S
C262 C261 1.375 . S
C262 C263 1.415 . S
C262 C264 1.501 . S
C263 H254 0.931 . S
C263 C259 1.382 . S
C263 C262 1.415 . S
C264 C262 1.501 . S
C264 C265 1.384 . S
C264 C269 1.408 . S
C265 H255 0.930 . S
C265 C264 1.384 . S
C265 C266 1.389 . S
C266 C265 1.389 . S
C266 C267 1.405 . S
C267 H256 0.930 . S
C267 C266 1.405 . S
C267 C268 1.364 . S
C268 C267 1.364 . S
C268 C269 1.400 . S
C269 H257 0.931 . S
C269 C264 1.408 . S
C269 C268 1.400 . S
H270 C276 0.930 . S
H271 C279 0.931 . S
H272 C281 0.931 . S
H273 C283 0.930 . S
H274 C285 0.930 . S
H275 C287 0.931 . S
C276 H270 0.930 . S
C276 C277 1.380 . S
C276 C278 1.394 . S
C277 C276 1.380 . S
C277 C281 1.382 . S
C278 C276 1.394 . S
C278 C279 1.400 . S
C279 H271 0.931 . S
C279 C278 1.400 . S
C279 C280 1.375 . S
C280 C279 1.375 . S
C280 C281 1.415 . S
C280 C282 1.501 . S
C281 H272 0.931 . S
C281 C277 1.382 . S
C281 C280 1.415 . S
C282 C280 1.501 . S
C282 C283 1.384 . S
C282 C287 1.408 . S
C283 H273 0.930 . S
C283 C282 1.384 . S
C283 C284 1.389 . S
C284 C283 1.389 . S
C284 C285 1.405 . S
C285 H274 0.930 . S
C285 C284 1.405 . S
C285 C286 1.364 . S
C286 C285 1.364 . S
C286 C287 1.400 . S
C287 H275 0.931 . S
C287 C282 1.408 . S
C287 C286 1.400 . S
H288 C294 0.930 . S
H289 C297 0.931 . S
H290 C299 0.931 . S
H291 C301 0.930 . S
H292 C303 0.930 . S
H293 C305 0.931 . S
C294 H288 0.930 . S
C294 C295 1.380 . S
C294 C296 1.394 . S
C295 C294 1.380 . S
C295 C299 1.382 . S
C296 C294 1.394 . S
C296 C297 1.400 . S
C297 H289 0.931 . S
C297 C296 1.400 . S
C297 C298 1.375 . S
C298 C297 1.375 . S
C298 C299 1.415 . S
C298 C300 1.501 . S
C299 H290 0.931 . S
C299 C295 1.382 . S
C299 C298 1.415 . S
C300 C298 1.501 . S
C300 C301 1.384 . S
C300 C305 1.408 . S
C301 H291 0.930 . S
C301 C300 1.384 . S
C301 C302 1.389 . S
C302 C301 1.389 . S
C302 C303 1.405 . S
C303 H292 0.930 . S
C303 C302 1.405 . S
C303 C304 1.364 . S
C304 C303 1.364 . S
C304 C305 1.400 . S
C305 H293 0.931 . S
C305 C300 1.408 . S
C305 C304 1.400 . S
H306 C312 0.930 . S
H307 C315 0.931 . S
H308 C317 0.931 . S
H309 C319 0.930 . S
H310 C321 0.930 . S
H311 C323 0.931 . S
C312 H306 0.930 . S
C312 C313 1.380 . S
C312 C314 1.394 . S
C313 C312 1.380 . S
C313 C317 1.382 . S
C314 C312 1.394 . S
C314 C315 1.400 . S
C315 H307 0.931 . S
C315 C314 1.400 . S
C315 C316 1.375 . S
C316 C315 1.375 . S
C316 C317 1.415 . S
C316 C318 1.501 . S
C317 H308 0.931 . S
C317 C313 1.382 . S
C317 C316 1.415 . S
C318 C316 1.501 . S
C318 C319 1.384 . S
C318 C323 1.408 . S
C319 H309 0.930 . S
C319 C318 1.384 . S
C319 C320 1.389 . S
C320 C319 1.389 . S
C320 C321 1.405 . S
C321 H310 0.930 . S
C321 C320 1.405 . S
C321 C322 1.364 . S
C322 C321 1.364 . S
C322 C323 1.400 . S
C323 H311 0.931 . S
C323 C318 1.408 . S
C323 C322 1.400 . S
H324 C330 0.930 . S
H325 C333 0.931 . S
H326 C335 0.931 . S
H327 C337 0.930 . S
H328 C339 0.930 . S
H329 C341 0.931 . S
C330 H324 0.930 . S
C330 C331 1.380 . S
C330 C332 1.394 . S
C331 C330 1.380 . S
C331 C335 1.382 . S
C332 C330 1.394 . S
C332 C333 1.400 . S
C333 H325 0.931 . S
C333 C332 1.400 . S
C333 C334 1.375 . S
C334 C333 1.375 . S
C334 C335 1.415 . S
C334 C336 1.501 . S
C335 H326 0.931 . S
C335 C331 1.382 . S
C335 C334 1.415 . S
C336 C334 1.501 . S
C336 C337 1.384 . S
C336 C341 1.408 . S
C337 H327 0.930 . S
C337 C336 1.384 . S
C337 C338 1.389 . S
C338 C337 1.389 . S
C338 C339 1.405 . S
C339 H328 0.930 . S
C339 C338 1.405 . S
C339 C340 1.364 . S
C340 C339 1.364 . S
C340 C341 1.400 . S
C341 H329 0.931 . S
C341 C336 1.408 . S
C341 C340 1.400 . S
H342 C348 0.930 . S
H343 C351 0.931 . S
H344 C353 0.931 . S
H345 C355 0.930 . S
H346 C357 0.930 . S
H347 C359 0.931 . S
C348 H342 0.930 . S
C348 C349 1.380 . S
C348 C350 1.394 . S
C349 C348 1.380 . S
C349 C353 1.382 . S
C350 C348 1.394 . S
C350 C351 1.400 . S
C351 H343 0.931 . S
C351 C350 1.400 . S
C351 C352 1.375 . S
C352 C351 1.375 . S
C352 C353 1.415 . S
C352 C354 1.501 . S
C353 H344 0.931 . S
C353 C349 1.382 . S
C353 C352 1.415 . S
C354 C352 1.501 . S
C354 C355 1.384 . S
C354 C359 1.408 . S
C355 H345 0.930 . S
C355 C354 1.384 . S
C355 C356 1.389 . S
C356 C355 1.389 . S
C356 C357 1.405 . S
C357 H346 0.930 . S
C357 C356 1.405 . S
C357 C358 1.364 . S
C358 C357 1.364 . S
C358 C359 1.400 . S
C359 H347 0.931 . S
C359 C354 1.408 . S
C359 C358 1.400 . S
H360 C366 0.930 . S
H361 C369 0.931 . S
H362 C371 0.931 . S
H363 C373 0.930 . S
H364 C375 0.930 . S
H365 C377 0.931 . S
C366 H360 0.930 . S
C366 C367 1.380 . S
C366 C368 1.394 . S
C367 C366 1.380 . S
C367 C371 1.382 . S
C368 C366 1.394 . S
C368 C369 1.400 . S
C369 H361 0.931 . S
C369 C368 1.400 . S
C369 C370 1.375 . S
C370 C369 1.375 . S
C370 C371 1.415 . S
C370 C372 1.501 . S
C371 H362 0.931 . S
C371 C367 1.382 . S
C371 C370 1.415 . S
C372 C370 1.501 . S
C372 C373 1.384 . S
C372 C377 1.408 . S
C373 H363 0.930 . S
C373 C372 1.384 . S
C373 C374 1.389 . S
C374 C373 1.389 . S
C374 C375 1.405 . S
C375 H364 0.930 . S
C375 C374 1.405 . S
C375 C376 1.364 . S
C376 C375 1.364 . S
C376 C377 1.400 . S
C377 H365 0.931 . S
C377 C372 1.408 . S
C377 C376 1.400 . S
H378 C384 0.930 . S
H379 C387 0.931 . S
H380 C389 0.931 . S
H381 C391 0.930 . S
H382 C393 0.930 . S
H383 C395 0.931 . S
C384 H378 0.930 . S
C384 C385 1.380 . S
C384 C386 1.394 . S
C385 C384 1.380 . S
C385 C389 1.382 . S
C386 C384 1.394 . S
C386 C387 1.400 . S
C387 H379 0.931 . S
C387 C386 1.400 . S
C387 C388 1.375 . S
C388 C387 1.375 . S
C388 C389 1.415 . S
C388 C390 1.501 . S
C389 H380 0.931 . S
C389 C385 1.382 . S
C389 C388 1.415 . S
C390 C388 1.501 . S
C390 C391 1.384 . S
C390 C395 1.408 . S
C391 H381 0.930 . S
C391 C390 1.384 . S
C391 C392 1.389 . S
C392 C391 1.389 . S
C392 C393 1.405 . S
C393 H382 0.930 . S
C393 C392 1.405 . S
C393 C394 1.364 . S
C394 C393 1.364 . S
C394 C395 1.400 . S
C395 H383 0.931 . S
C395 C390 1.408 . S
C395 C394 1.400 . S
H396 C402 0.930 . S
H397 C405 0.931 . S
H398 C407 0.931 . S
H399 C409 0.930 . S
H400 C411 0.930 . S
H401 C413 0.931 . S
C402 H396 0.930 . S
C402 C403 1.380 . S
C402 C404 1.394 . S
C403 C402 1.380 . S
C403 C407 1.382 . S
C404 C402 1.394 . S
C404 C405 1.400 . S
C405 H397 0.931 . S
C405 C404 1.400 . S
C405 C406 1.375 . S
C406 C405 1.375 . S
C406 C407 1.415 . S
C406 C408 1.501 . S
C407 H398 0.931 . S
C407 C403 1.382 . S
C407 C406 1.415 . S
C408 C406 1.501 . S
C408 C409 1.384 . S
C408 C413 1.408 . S
C409 H399 0.930 . S
C409 C408 1.384 . S
C409 C410 1.389 . S
C410 C409 1.389 . S
C410 C411 1.405 . S
C411 H400 0.930 . S
C411 C410 1.405 . S
C411 C412 1.364 . S
C412 C411 1.364 . S
C412 C413 1.400 . S
C413 H401 0.931 . S
C413 C408 1.408 . S
C413 C412 1.400 . S
H414 C420 0.930 . S
H415 C423 0.931 . S
H416 C425 0.931 . S
H417 C427 0.930 . S
H418 C429 0.930 . S
H419 C431 0.931 . S
C420 H414 0.930 . S
C420 C421 1.380 . S
C420 C422 1.394 . S
C421 C420 1.380 . S
C421 C425 1.382 . S
C422 C420 1.394 . S
C422 C423 1.400 . S
C423 H415 0.931 . S
C423 C422 1.400 . S
C423 C424 1.375 . S
C424 C423 1.375 . S
C424 C425 1.415 . S
C424 C426 1.501 . S
C425 H416 0.931 . S
C425 C421 1.382 . S
C425 C424 1.415 . S
C426 C424 1.501 . S
C426 C427 1.384 . S
C426 C431 1.408 . S
C427 H417 0.930 . S
C427 C426 1.384 . S
C427 C428 1.389 . S
C428 C427 1.389 . S
C428 C429 1.405 . S
C429 H418 0.930 . S
C429 C428 1.405 . S
C429 C430 1.364 . S
C430 C429 1.364 . S
C430 C431 1.400 . S
C431 H419 0.931 . S
C431 C426 1.408 . S
C431 C430 1.400 . S
H432 C438 0.948 . S
H433 C441 0.931 . S
H434 C443 0.931 . S
H435 C445 0.930 . S
H436 C447 0.930 . S
H437 C449 0.920 1_545 S
C438 H432 0.948 . S
C438 C439 1.376 . S
C438 C440 1.381 1_545 S
C439 C438 1.376 . S
C439 C443 1.382 . S
C440 C438 1.381 1_565 S
C440 C441 1.400 . S
C441 H433 0.931 . S
C441 C440 1.400 . S
C441 C442 1.375 . S
C442 C441 1.375 . S
C442 C443 1.415 1_565 S
C442 C444 1.501 . S
C443 H434 0.931 . S
C443 C439 1.382 . S
C443 C442 1.415 1_545 S
C444 C442 1.501 . S
C444 C445 1.384 . S
C444 C449 1.399 . S
C445 H435 0.930 . S
C445 C444 1.384 . S
C445 C446 1.389 . S
C446 C445 1.389 . S
C446 C447 1.405 . S
C447 H436 0.930 . S
C447 C446 1.405 . S
C447 C448 1.375 . S
C448 C447 1.375 . S
C448 C449 1.406 . S
C449 H437 0.920 1_565 S
C449 C444 1.399 . S
C449 C448 1.406 . S
H450 C456 0.930 . S
H451 C459 0.931 . S
H452 C461 0.931 . S
H453 C463 0.930 . S
H454 C465 0.930 . S
H455 C467 0.931 . S
C456 H450 0.930 . S
C456 C457 1.380 . S
C456 C458 1.394 . S
C457 C456 1.380 . S
C457 C461 1.382 . S
C458 C456 1.394 . S
C458 C459 1.400 . S
C459 H451 0.931 . S
C459 C458 1.400 . S
C459 C460 1.375 . S
C460 C459 1.375 . S
C460 C461 1.415 . S
C460 C462 1.501 . S
C461 H452 0.931 . S
C461 C457 1.382 . S
C461 C460 1.415 . S
C462 C460 1.501 . S
C462 C463 1.384 . S
C462 C467 1.408 . S
C463 H453 0.930 . S
C463 C462 1.384 . S
C463 C464 1.389 . S
C464 C463 1.389 . S
C464 C465 1.405 . S
C465 H454 0.930 . S
C465 C464 1.405 . S
C465 C466 1.364 . S
C466 C465 1.364 . S
C466 C467 1.400 . S
C467 H455 0.931 . S
C467 C462 1.408 . S
C467 C466 1.400 . S
H468 C474 0.955 . S
H469 C477 0.931 . S
H470 C479 0.934 1_655 S
H471 C481 0.930 . S
H472 C483 0.930 . S
H473 C485 0.931 . S
C474 H468 0.955 . S
C474 C475 1.377 . S
C474 C476 1.367 1_655 S
C475 C474 1.377 . S
C475 C479 1.359 1_655 S
C476 C474 1.367 1_455 S
C476 C477 1.431 . S
C477 H469 0.931 . S
C477 C476 1.431 . S
C477 C478 1.375 . S
C478 C477 1.375 . S
C478 C479 1.419 . S
C478 C480 1.501 . S
C479 H470 0.934 1_455 S
C479 C475 1.359 1_455 S
C479 C478 1.419 . S
C480 C478 1.501 . S
C480 C481 1.384 . S
C480 C485 1.408 1_455 S
C481 H471 0.930 . S
C481 C480 1.384 . S
C481 C482 1.389 . S
C482 C481 1.389 . S
C482 C483 1.405 . S
C483 H472 0.930 . S
C483 C482 1.405 . S
C483 C484 1.364 1_455 S
C484 C483 1.364 1_655 S
C484 C485 1.400 . S
C485 H473 0.931 . S
C485 C480 1.408 1_655 S
C485 C484 1.400 . S
H486 C492 0.930 . S
H487 C495 0.931 . S
H488 C497 0.931 . S
H489 C499 0.930 . S
H490 C501 0.930 . S
H491 C503 0.931 . S
C492 H486 0.930 . S
C492 C493 1.380 . S
C492 C494 1.394 . S
C493 C492 1.380 . S
C493 C497 1.382 . S
C494 C492 1.394 . S
C494 C495 1.400 . S
C495 H487 0.931 . S
C495 C494 1.400 . S
C495 C496 1.375 . S
C496 C495 1.375 . S
C496 C497 1.415 . S
C496 C498 1.501 . S
C497 H488 0.931 . S
C497 C493 1.382 . S
C497 C496 1.415 . S
C498 C496 1.501 . S
C498 C499 1.384 . S
C498 C503 1.408 . S
C499 H489 0.930 . S
C499 C498 1.384 . S
C499 C500 1.389 . S
C500 C499 1.389 . S
C500 C501 1.405 . S
C501 H490 0.930 . S
C501 C500 1.405 . S
C501 C502 1.364 . S
C502 C501 1.364 . S
C502 C503 1.400 . S
C503 H491 0.931 . S
C503 C498 1.408 . S
C503 C502 1.400 . S
H504 C510 0.930 . S
H505 C513 0.931 . S
H506 C515 0.931 . S
H507 C517 0.930 . S
H508 C519 0.930 . S
H509 C521 0.931 . S
C510 H504 0.930 . S
C510 C511 1.380 . S
C510 C512 1.394 . S
C511 C510 1.380 . S
C511 C515 1.382 . S
C512 C510 1.394 . S
C512 C513 1.400 . S
C513 H505 0.931 . S
C513 C512 1.400 . S
C513 C514 1.375 . S
C514 C513 1.375 . S
C514 C515 1.415 . S
C514 C516 1.501 . S
C515 H506 0.931 . S
C515 C511 1.382 . S
C515 C514 1.415 . S
C516 C514 1.501 . S
C516 C517 1.384 . S
C516 C521 1.408 . S
C517 H507 0.930 . S
C517 C516 1.384 . S
C517 C518 1.389 . S
C518 C517 1.389 . S
C518 C519 1.405 . S
C519 H508 0.930 . S
C519 C518 1.405 . S
C519 C520 1.364 . S
C520 C519 1.364 . S
C520 C521 1.400 . S
C521 H509 0.931 . S
C521 C516 1.408 . S
C521 C520 1.400 . S
H522 C528 0.930 . S
H523 C531 0.931 . S
H524 C533 0.931 . S
H525 C535 0.930 . S
H526 C537 0.930 . S
H527 C539 0.931 . S
C528 H522 0.930 . S
C528 C529 1.380 . S
C528 C530 1.394 . S
C529 C528 1.380 . S
C529 C533 1.382 . S
C530 C528 1.394 . S
C530 C531 1.400 . S
C531 H523 0.931 . S
C531 C530 1.400 . S
C531 C532 1.375 . S
C532 C531 1.375 . S
C532 C533 1.415 . S
C532 C534 1.501 . S
C533 H524 0.931 . S
C533 C529 1.382 . S
C533 C532 1.415 . S
C534 C532 1.501 . S
C534 C535 1.384 . S
C534 C539 1.408 . S
C535 H525 0.930 . S
C535 C534 1.384 . S
C535 C536 1.389 . S
C536 C535 1.389 . S
C536 C537 1.405 . S
C537 H526 0.930 . S
C537 C536 1.405 . S
C537 C538 1.364 . S
C538 C537 1.364 . S
C538 C539 1.400 . S
C539 H527 0.931 . S
C539 C534 1.408 . S
C539 C538 1.400 . S
H540 C546 0.930 . S
H541 C549 0.931 . S
H542 C551 0.931 . S
H543 C553 0.930 . S
H544 C555 0.930 . S
H545 C557 0.931 . S
C546 H540 0.930 . S
C546 C547 1.380 . S
C546 C548 1.394 . S
C547 C546 1.380 . S
C547 C551 1.382 . S
C548 C546 1.394 . S
C548 C549 1.400 . S
C549 H541 0.931 . S
C549 C548 1.400 . S
C549 C550 1.375 . S
C550 C549 1.375 . S
C550 C551 1.415 . S
C550 C552 1.501 . S
C551 H542 0.931 . S
C551 C547 1.382 . S
C551 C550 1.415 . S
C552 C550 1.501 . S
C552 C553 1.384 . S
C552 C557 1.408 . S
C553 H543 0.930 . S
C553 C552 1.384 . S
C553 C554 1.389 . S
C554 C553 1.389 . S
C554 C555 1.405 . S
C555 H544 0.930 . S
C555 C554 1.405 . S
C555 C556 1.364 . S
C556 C555 1.364 . S
C556 C557 1.400 . S
C557 H545 0.931 . S
C557 C552 1.408 . S
C557 C556 1.400 . S
H558 C564 0.930 . S
H559 C567 0.930 . S
H560 C568 0.930 . S
H561 C569 0.930 . S
H562 C572 0.930 . S
H563 C573 0.930 . S
C564 H558 0.930 . S
C564 C565 1.355 1_655 S
C564 C566 1.415 . S
C565 C564 1.355 1_455 S
C565 C567 1.419 . S
C566 C564 1.415 . S
C566 C571 1.425 1_655 S
C566 C573 1.409 . S
C567 H559 0.930 . S
C567 C565 1.419 . S
C567 C568 1.362 . S
C568 H560 0.930 . S
C568 C567 1.362 . S
C568 C571 1.409 . S
C569 H561 0.930 . S
C569 C570 1.355 . S
C569 C571 1.415 . S
C570 C569 1.355 . S
C570 C572 1.419 1_455 S
C571 C566 1.425 1_455 S
C571 C568 1.409 . S
C571 C569 1.415 . S
C572 H562 0.930 . S
C572 C570 1.419 1_655 S
C572 C573 1.362 . S
C573 H563 0.930 . S
C573 C566 1.409 . S
C573 C572 1.362 . S
H574 C580 0.930 . S
H575 C583 0.930 . S
H576 C584 0.930 . S
H577 C585 0.930 . S
H578 C588 0.930 . S
H579 C589 0.930 . S
C580 H574 0.930 . S
C580 C581 1.355 . S
C580 C582 1.415 . S
C581 C580 1.355 . S
C581 C583 1.419 . S
C582 C580 1.415 . S
C582 C587 1.425 . S
C582 C589 1.409 . S
C583 H575 0.930 . S
C583 C581 1.419 . S
C583 C584 1.362 . S
C584 H576 0.930 . S
C584 C583 1.362 . S
C584 C587 1.409 . S
C585 H577 0.930 . S
C585 C586 1.355 . S
C585 C587 1.415 . S
C586 C585 1.355 . S
C586 C588 1.419 . S
C587 C582 1.425 . S
C587 C584 1.409 . S
C587 C585 1.415 . S
C588 H578 0.930 . S
C588 C586 1.419 . S
C588 C589 1.362 . S
C589 H579 0.930 . S
C589 C582 1.409 . S
C589 C588 1.362 . S
H590 C596 0.930 . S
H591 C599 0.930 . S
H592 C600 0.930 . S
H593 C601 0.930 . S
H594 C604 0.930 . S
H595 C605 0.930 . S
C596 H590 0.930 . S
C596 C597 1.355 1_565 S
C596 C598 1.415 . S
C597 C596 1.355 1_545 S
C597 C599 1.419 . S
C598 C596 1.415 . S
C598 C603 1.425 1_565 S
C598 C605 1.409 . S
C599 H591 0.930 . S
C599 C597 1.419 . S
C599 C600 1.362 . S
C600 H592 0.930 . S
C600 C599 1.362 . S
C600 C603 1.409 . S
C601 H593 0.930 . S
C601 C602 1.355 . S
C601 C603 1.415 . S
C602 C601 1.355 . S
C602 C604 1.419 1_545 S
C603 C598 1.425 1_545 S
C603 C600 1.409 . S
C603 C601 1.415 . S
C604 H594 0.930 . S
C604 C602 1.419 1_565 S
C604 C605 1.362 . S
C605 H595 0.930 . S
C605 C598 1.409 . S
C605 C604 1.362 . S
H606 C612 0.930 . S
H607 C615 0.933 . S
H608 C616 0.930 . S
H609 C617 0.930 1_565 S
H610 C620 0.930 . S
H611 C621 0.930 . S
C612 H606 0.930 . S
C612 C613 1.355 . S
C612 C614 1.415 . S
C613 C612 1.355 . S
C613 C615 1.407 1_545 S
C614 C612 1.415 . S
C614 C619 1.425 . S
C614 C621 1.409 . S
C615 H607 0.933 . S
C615 C613 1.407 1_565 S
C615 C616 1.371 . S
C616 H608 0.930 . S
C616 C615 1.371 . S
C616 C619 1.409 1_565 S
C617 H609 0.930 1_545 S
C617 C618 1.355 . S
C617 C619 1.415 . S
C618 C617 1.355 . S
C618 C620 1.419 . S
C619 C614 1.425 . S
C619 C616 1.409 1_545 S
C619 C617 1.415 . S
C620 H610 0.930 . S
C620 C618 1.419 . S
C620 C621 1.362 . S
C621 H611 0.930 . S
C621 C614 1.409 . S
C621 C620 1.362 . S
H622 C628 0.930 . S
H623 C631 0.930 . S
H624 C632 0.930 . S
H625 C633 0.930 . S
H626 C636 0.930 . S
H627 C637 0.930 . S
C628 H622 0.930 . S
C628 C629 1.355 . S
C628 C630 1.415 . S
C629 C628 1.355 . S
C629 C631 1.412 1_455 S
C630 C628 1.415 . S
C630 C635 1.425 1_455 S
C630 C637 1.409 . S
C631 H623 0.930 . S
C631 C629 1.412 1_655 S
C631 C632 1.362 . S
C632 H624 0.930 . S
C632 C631 1.362 . S
C632 C635 1.409 . S
C633 H625 0.930 . S
C633 C634 1.355 1_655 S
C633 C635 1.415 . S
C634 C633 1.355 1_455 S
C634 C636 1.419 . S
C635 C630 1.425 1_655 S
C635 C632 1.409 . S
C635 C633 1.415 . S
C636 H626 0.930 . S
C636 C634 1.419 . S
C636 C637 1.362 . S
C637 H627 0.930 . S
C637 C630 1.409 . S
C637 C636 1.362 . S
H638 C644 0.930 . S
H639 C647 0.930 . S
H640 C648 0.930 . S
H641 C649 0.930 . S
H642 C652 0.930 . S
H643 C653 0.930 . S
C644 H638 0.930 . S
C644 C645 1.355 . S
C644 C646 1.415 . S
C645 C644 1.355 . S
C645 C647 1.419 . S
C646 C644 1.415 . S
C646 C651 1.425 . S
C646 C653 1.409 . S
C647 H639 0.930 . S
C647 C645 1.419 . S
C647 C648 1.362 . S
C648 H640 0.930 . S
C648 C647 1.362 . S
C648 C651 1.409 . S
C649 H641 0.930 . S
C649 C650 1.355 . S
C649 C651 1.415 . S
C650 C649 1.355 . S
C650 C652 1.419 . S
C651 C646 1.425 . S
C651 C648 1.409 . S
C651 C649 1.415 . S
C652 H642 0.930 . S
C652 C650 1.419 . S
C652 C653 1.362 . S
C653 H643 0.930 . S
C653 C646 1.409 . S
C653 C652 1.362 . S
H654 C660 0.930 . S
H655 C663 0.930 . S
H656 C664 0.930 . S
H657 C665 0.930 . S
H658 C668 0.930 . S
H659 C669 0.930 . S
C660 H654 0.930 . S
C660 C661 1.355 1_655 S
C660 C662 1.415 . S
C661 C660 1.355 1_455 S
C661 C663 1.419 . S
C662 C660 1.415 . S
C662 C667 1.425 1_655 S
C662 C669 1.409 . S
C663 H655 0.930 . S
C663 C661 1.419 . S
C663 C664 1.362 . S
C664 H656 0.930 . S
C664 C663 1.362 . S
C664 C667 1.409 . S
C665 H657 0.930 . S
C665 C666 1.342 1_455 S
C665 C667 1.415 . S
C666 C665 1.342 1_655 S
C666 C668 1.455 . S
C667 C662 1.425 1_455 S
C667 C664 1.409 . S
C667 C665 1.415 . S
C668 H658 0.930 . S
C668 C666 1.455 . S
C668 C669 1.362 . S
C669 H659 0.930 . S
C669 C662 1.409 . S
C669 C668 1.362 . S
H670 C676 0.930 . S
H671 C679 0.930 . S
H672 C680 0.930 . S
H673 C681 0.930 . S
H674 C684 0.930 . S
H675 C685 0.930 . S
C676 H670 0.930 . S
C676 C677 1.355 . S
C676 C678 1.415 . S
C677 C676 1.355 . S
C677 C679 1.419 . S
C678 C676 1.415 . S
C678 C683 1.425 . S
C678 C685 1.409 . S
C679 H671 0.930 . S
C679 C677 1.419 . S
C679 C680 1.362 . S
C680 H672 0.930 . S
C680 C679 1.362 . S
C680 C683 1.409 . S
C681 H673 0.930 . S
C681 C682 1.355 . S
C681 C683 1.415 . S
C682 C681 1.355 . S
C682 C684 1.419 . S
C683 C678 1.425 . S
C683 C680 1.409 . S
C683 C681 1.415 . S
C684 H674 0.930 . S
C684 C682 1.419 . S
C684 C685 1.362 . S
C685 H675 0.930 . S
C685 C678 1.409 . S
C685 C684 1.362 . S
H686 C692 0.930 . S
H687 C695 0.930 . S
H688 C696 0.930 . S
H689 C697 0.930 . S
H690 C700 0.930 . S
H691 C701 0.930 . S
C692 H686 0.930 . S
C692 C693 1.355 . S
C692 C694 1.415 . S
C693 C692 1.355 . S
C693 C695 1.419 . S
C694 C692 1.415 . S
C694 C699 1.425 . S
C694 C701 1.409 . S
C695 H687 0.930 . S
C695 C693 1.419 . S
C695 C696 1.362 . S
C696 H688 0.930 . S
C696 C695 1.362 . S
C696 C699 1.409 . S
C697 H689 0.930 . S
C697 C698 1.355 . S
C697 C699 1.415 . S
C698 C697 1.355 . S
C698 C700 1.419 . S
C699 C694 1.425 . S
C699 C696 1.409 . S
C699 C697 1.415 . S
C700 H690 0.930 . S
C700 C698 1.419 . S
C700 C701 1.362 . S
C701 H691 0.930 . S
C701 C694 1.409 . S
C701 C700 1.362 . S
H702 C708 0.930 . S
H703 C711 0.930 . S
H704 C712 0.930 . S
H705 C713 0.930 . S
H706 C716 0.930 . S
H707 C717 0.930 . S
C708 H702 0.930 . S
C708 C709 1.355 1_565 S
C708 C710 1.415 . S
C709 C708 1.355 1_545 S
C709 C711 1.419 . S
C710 C708 1.415 . S
C710 C715 1.425 1_565 S
C710 C717 1.409 . S
C711 H703 0.930 . S
C711 C709 1.419 . S
C711 C712 1.362 . S
C712 H704 0.930 . S
C712 C711 1.362 . S
C712 C715 1.409 . S
C713 H705 0.930 . S
C713 C714 1.355 1_545 S
C713 C715 1.415 . S
C714 C713 1.355 1_565 S
C714 C716 1.419 . S
C715 C710 1.425 1_545 S
C715 C712 1.409 . S
C715 C713 1.415 . S
C716 H706 0.930 . S
C716 C714 1.419 . S
C716 C717 1.362 . S
C717 H707 0.930 . S
C717 C710 1.409 . S
C717 C716 1.362 . S
H718 C724 0.921 1_655 S
H719 C727 0.930 . S
H720 C728 0.930 . S
H721 C729 0.930 . S
H722 C732 0.922 . S
H723 C733 0.930 . S
C724 H718 0.921 1_455 S
C724 C725 1.347 . S
C724 C726 1.432 . S
C725 C724 1.347 . S
C725 C727 1.419 . S
C726 C724 1.432 . S
C726 C731 1.425 . S
C726 C733 1.409 1_455 S
C727 H719 0.930 . S
C727 C725 1.419 . S
C727 C728 1.362 . S
C728 H720 0.930 . S
C728 C727 1.362 . S
C728 C731 1.409 . S
C729 H721 0.930 . S
C729 C730 1.355 . S
C729 C731 1.415 . S
C730 C729 1.355 . S
C730 C732 1.411 1_455 S
C731 C726 1.425 . S
C731 C728 1.409 . S
C731 C729 1.415 . S
C732 H722 0.922 . S
C732 C730 1.411 1_655 S
C732 C733 1.381 . S
C733 H723 0.930 . S
C733 C726 1.409 1_655 S
C733 C732 1.381 . S
H734 C740 0.930 . S
H735 C743 0.930 . S
H736 C744 0.930 . S
H737 C745 0.930 . S
H738 C748 0.930 . S
H739 C749 0.930 . S
C740 H734 0.930 . S
C740 C741 1.355 . S
C740 C742 1.415 . S
C741 C740 1.355 . S
C741 C743 1.419 . S
C742 C740 1.415 . S
C742 C747 1.425 . S
C742 C749 1.409 . S
C743 H735 0.930 . S
C743 C741 1.419 . S
C743 C744 1.362 . S
C744 H736 0.930 . S
C744 C743 1.362 . S
C744 C747 1.409 . S
C745 H737 0.930 . S
C745 C746 1.355 . S
C745 C747 1.415 . S
C746 C745 1.355 . S
C746 C748 1.419 . S
C747 C742 1.425 . S
C747 C744 1.409 . S
C747 C745 1.415 . S
C748 H738 0.930 . S
C748 C746 1.419 . S
C748 C749 1.362 . S
C749 H739 0.930 . S
C749 C742 1.409 . S
C749 C748 1.362 . S
H750 C756 0.930 . S
H751 C759 0.930 . S
H752 C760 0.930 . S
H753 C761 0.930 . S
H754 C764 0.930 . S
H755 C765 0.930 . S
C756 H750 0.930 . S
C756 C757 1.355 . S
C756 C758 1.415 . S
C757 C756 1.355 . S
C757 C759 1.419 . S
C758 C756 1.415 . S
C758 C763 1.425 . S
C758 C765 1.409 . S
C759 H751 0.930 . S
C759 C757 1.419 . S
C759 C760 1.362 . S
C760 H752 0.930 . S
C760 C759 1.362 . S
C760 C763 1.409 . S
C761 H753 0.930 . S
C761 C762 1.355 . S
C761 C763 1.415 . S
C762 C761 1.355 . S
C762 C764 1.419 . S
C763 C758 1.425 . S
C763 C760 1.409 . S
C763 C761 1.415 . S
C764 H754 0.930 . S
C764 C762 1.419 . S
C764 C765 1.362 . S
C765 H755 0.930 . S
C765 C758 1.409 . S
C765 C764 1.362 . S
H766 C772 0.930 . S
H767 C775 0.930 . S
H768 C776 0.930 . S
H769 C777 0.930 . S
H770 C780 0.930 . S
H771 C781 0.930 . S
C772 H766 0.930 . S
C772 C773 1.355 . S
C772 C774 1.415 . S
C773 C772 1.355 . S
C773 C775 1.419 . S
C774 C772 1.415 . S
C774 C779 1.425 . S
C774 C781 1.409 . S
C775 H767 0.930 . S
C775 C773 1.419 . S
C775 C776 1.362 . S
C776 H768 0.930 . S
C776 C775 1.362 . S
C776 C779 1.409 . S
C777 H769 0.930 . S
C777 C778 1.355 . S
C777 C779 1.415 . S
C778 C777 1.355 . S
C778 C780 1.419 . S
C779 C774 1.425 . S
C779 C776 1.409 . S
C779 C777 1.415 . S
C780 H770 0.930 . S
C780 C778 1.419 . S
C780 C781 1.362 . S
C781 H771 0.930 . S
C781 C774 1.409 . S
C781 C780 1.362 . S
H782 C788 0.930 . S
H783 C791 0.930 . S
H784 C792 0.930 . S
H785 C793 0.930 . S
H786 C796 0.930 . S
H787 C797 0.930 . S
C788 H782 0.930 . S
C788 C789 1.355 . S
C788 C790 1.415 . S
C789 C788 1.355 . S
C789 C791 1.419 . S
C790 C788 1.415 . S
C790 C795 1.425 . S
C790 C797 1.409 . S
C791 H783 0.930 . S
C791 C789 1.419 . S
C791 C792 1.362 . S
C792 H784 0.930 . S
C792 C791 1.362 . S
C792 C795 1.409 . S
C793 H785 0.930 . S
C793 C794 1.355 . S
C793 C795 1.415 . S
C794 C793 1.355 . S
C794 C796 1.419 . S
C795 C790 1.425 . S
C795 C792 1.409 . S
C795 C793 1.415 . S
C796 H786 0.930 . S
C796 C794 1.419 . S
C796 C797 1.362 . S
C797 H787 0.930 . S
C797 C790 1.409 . S
C797 C796 1.362 . S
H798 C804 0.930 . S
H799 C807 0.930 . S
H800 C808 0.930 . S
H801 C809 0.930 . S
H802 C812 0.930 . S
H803 C813 0.930 . S
C804 H798 0.930 . S
C804 C805 1.355 . S
C804 C806 1.415 . S
C805 C804 1.355 . S
C805 C807 1.419 . S
C806 C804 1.415 . S
C806 C811 1.425 . S
C806 C813 1.409 . S
C807 H799 0.930 . S
C807 C805 1.419 . S
C807 C808 1.362 . S
C808 H800 0.930 . S
C808 C807 1.362 . S
C808 C811 1.409 . S
C809 H801 0.930 . S
C809 C810 1.355 . S
C809 C811 1.415 . S
C810 C809 1.355 . S
C810 C812 1.419 . S
C811 C806 1.425 . S
C811 C808 1.409 . S
C811 C809 1.415 . S
C812 H802 0.930 . S
C812 C810 1.419 . S
C812 C813 1.362 . S
C813 H803 0.930 . S
C813 C806 1.409 . S
C813 C812 1.362 . S
H814 C820 0.930 . S
H815 C823 0.930 . S
H816 C824 0.930 . S
H817 C825 0.930 . S
H818 C828 0.930 . S
H819 C829 0.930 . S
C820 H814 0.930 . S
C820 C821 1.355 . S
C820 C822 1.415 . S
C821 C820 1.355 . S
C821 C823 1.419 . S
C822 C820 1.415 . S
C822 C827 1.425 . S
C822 C829 1.409 . S
C823 H815 0.930 . S
C823 C821 1.419 . S
C823 C824 1.362 . S
C824 H816 0.930 . S
C824 C823 1.362 . S
C824 C827 1.409 . S
C825 H817 0.930 . S
C825 C826 1.355 . S
C825 C827 1.415 . S
C826 C825 1.355 . S
C826 C828 1.419 . S
C827 C822 1.425 . S
C827 C824 1.409 . S
C827 C825 1.415 . S
C828 H818 0.930 . S
C828 C826 1.419 . S
C828 C829 1.362 . S
C829 H819 0.930 . S
C829 C822 1.409 . S
C829 C828 1.362 . S
H830 C836 0.930 . S
H831 C839 0.930 . S
H832 C840 0.930 . S
H833 C841 0.930 . S
H834 C844 0.930 . S
H835 C845 0.930 . S
C836 H830 0.930 . S
C836 C837 1.355 . S
C836 C838 1.415 . S
C837 C836 1.355 . S
C837 C839 1.419 . S
C838 C836 1.415 . S
C838 C843 1.425 . S
C838 C845 1.409 . S
C839 H831 0.930 . S
C839 C837 1.419 . S
C839 C840 1.362 . S
C840 H832 0.930 . S
C840 C839 1.362 . S
C840 C843 1.409 . S
C841 H833 0.930 . S
C841 C842 1.355 . S
C841 C843 1.415 . S
C842 C841 1.355 . S
C842 C844 1.419 . S
C843 C838 1.425 . S
C843 C840 1.409 . S
C843 C841 1.415 . S
C844 H834 0.930 . S
C844 C842 1.419 . S
C844 C845 1.362 . S
C845 H835 0.930 . S
C845 C838 1.409 . S
C845 C844 1.362 . S
H846 C852 0.930 . S
H847 C855 0.930 . S
H848 C856 0.930 . S
H849 C857 0.930 . S
H850 C860 0.930 . S
H851 C861 0.930 . S
C852 H846 0.930 . S
C852 C853 1.355 . S
C852 C854 1.415 . S
C853 C852 1.355 . S
C853 C855 1.419 . S
C854 C852 1.415 . S
C854 C859 1.425 . S
C854 C861 1.409 . S
C855 H847 0.930 . S
C855 C853 1.419 . S
C855 C856 1.362 . S
C856 H848 0.930 . S
C856 C855 1.362 . S
C856 C859 1.409 . S
C857 H849 0.930 . S
C857 C858 1.355 . S
C857 C859 1.415 . S
C858 C857 1.355 . S
C858 C860 1.419 . S
C859 C854 1.425 . S
C859 C856 1.409 . S
C859 C857 1.415 . S
C860 H850 0.930 . S
C860 C858 1.419 . S
C860 C861 1.362 . S
C861 H851 0.930 . S
C861 C854 1.409 . S
C861 C860 1.362 . S
H862 C868 0.930 . S
H863 C871 0.930 . S
H864 C872 0.930 . S
H865 C873 0.930 . S
H866 C876 0.930 . S
H867 C877 0.930 . S
C868 H862 0.930 . S
C868 C869 1.355 . S
C868 C870 1.415 . S
C869 C868 1.355 . S
C869 C871 1.419 . S
C870 C868 1.415 . S
C870 C875 1.425 . S
C870 C877 1.409 . S
C871 H863 0.930 . S
C871 C869 1.419 . S
C871 C872 1.362 . S
C872 H864 0.930 . S
C872 C871 1.362 . S
C872 C875 1.409 . S
C873 H865 0.930 . S
C873 C874 1.355 . S
C873 C875 1.415 . S
C874 C873 1.355 . S
C874 C876 1.419 . S
C875 C870 1.425 . S
C875 C872 1.409 . S
C875 C873 1.415 . S
C876 H866 0.930 . S
C876 C874 1.419 . S
C876 C877 1.362 . S
C877 H867 0.930 . S
C877 C870 1.409 . S
C877 C876 1.362 . S
H878 C884 0.930 . S
H879 C887 0.930 . S
H880 C888 0.930 . S
H881 C889 0.930 . S
H882 C892 0.930 . S
H883 C893 0.930 . S
C884 H878 0.930 . S
C884 C885 1.355 . S
C884 C886 1.415 . S
C885 C884 1.355 . S
C885 C887 1.419 . S
C886 C884 1.415 . S
C886 C891 1.425 . S
C886 C893 1.409 . S
C887 H879 0.930 . S
C887 C885 1.419 . S
C887 C888 1.362 . S
C888 H880 0.930 . S
C888 C887 1.362 . S
C888 C891 1.409 . S
C889 H881 0.930 . S
C889 C890 1.355 . S
C889 C891 1.415 . S
C890 C889 1.355 . S
C890 C892 1.419 . S
C891 C886 1.425 . S
C891 C888 1.409 . S
C891 C889 1.415 . S
C892 H882 0.930 . S
C892 C890 1.419 . S
C892 C893 1.362 . S
C893 H883 0.930 . S
C893 C886 1.409 . S
C893 C892 1.362 . S
H894 C900 0.930 . S
H895 C903 0.930 . S
H896 C904 0.930 . S
H897 C905 0.930 . S
H898 C908 0.930 . S
H899 C909 0.930 . S
C900 H894 0.930 . S
C900 C901 1.355 . S
C900 C902 1.415 . S
C901 C900 1.355 . S
C901 C903 1.419 . S
C902 C900 1.415 . S
C902 C907 1.425 . S
C902 C909 1.409 . S
C903 H895 0.930 . S
C903 C901 1.419 . S
C903 C904 1.362 . S
C904 H896 0.930 . S
C904 C903 1.362 . S
C904 C907 1.409 . S
C905 H897 0.930 . S
C905 C906 1.355 . S
C905 C907 1.415 . S
C906 C905 1.355 . S
C906 C908 1.419 . S
C907 C902 1.425 . S
C907 C904 1.409 . S
C907 C905 1.415 . S
C908 H898 0.930 . S
C908 C906 1.419 . S
C908 C909 1.362 . S
C909 H899 0.930 . S
C909 C902 1.409 . S
C909 C908 1.362 . S
H910 C916 0.930 . S
H911 C919 0.930 . S
H912 C920 0.930 . S
H913 C921 0.930 . S
H914 C924 0.930 . S
H915 C925 0.930 . S
C916 H910 0.930 . S
C916 C917 1.355 . S
C916 C918 1.415 . S
C917 C916 1.355 . S
C917 C919 1.419 . S
C918 C916 1.415 . S
C918 C923 1.425 . S
C918 C925 1.409 . S
C919 H911 0.930 . S
C919 C917 1.419 . S
C919 C920 1.362 . S
C920 H912 0.930 . S
C920 C919 1.362 . S
C920 C923 1.409 . S
C921 H913 0.930 . S
C921 C922 1.355 . S
C921 C923 1.415 . S
C922 C921 1.355 . S
C922 C924 1.419 . S
C923 C918 1.425 . S
C923 C920 1.409 . S
C923 C921 1.415 . S
C924 H914 0.930 . S
C924 C922 1.419 . S
C924 C925 1.362 . S
C925 H915 0.930 . S
C925 C918 1.409 . S
C925 C924 1.362 . S
H926 C932 0.930 . S
H927 C935 0.930 . S
H928 C936 0.930 . S
H929 C937 0.930 . S
H930 C940 0.930 . S
H931 C941 0.930 . S
C932 H926 0.930 . S
C932 C933 1.355 . S
C932 C934 1.415 . S
C933 C932 1.355 . S
C933 C935 1.419 . S
C934 C932 1.415 . S
C934 C939 1.425 . S
C934 C941 1.409 . S
C935 H927 0.930 . S
C935 C933 1.419 . S
C935 C936 1.362 . S
C936 H928 0.930 . S
C936 C935 1.362 . S
C936 C939 1.409 . S
C937 H929 0.930 . S
C937 C938 1.355 . S
C937 C939 1.415 . S
C938 C937 1.355 . S
C938 C940 1.419 . S
C939 C934 1.425 . S
C939 C936 1.409 . S
C939 C937 1.415 . S
C940 H930 0.930 . S
C940 C938 1.419 . S
C940 C941 1.362 . S
C941 H931 0.930 . S
C941 C934 1.409 . S
C941 C940 1.362 . S
H942 C948 0.930 . S
H943 C951 0.930 . S
H944 C952 0.930 . S
H945 C953 0.930 . S
H946 C956 0.930 . S
H947 C957 0.930 . S
C948 H942 0.930 . S
C948 C949 1.355 . S
C948 C950 1.415 . S
C949 C948 1.355 . S
C949 C951 1.419 . S
C950 C948 1.415 . S
C950 C955 1.425 . S
C950 C957 1.409 . S
C951 H943 0.930 . S
C951 C949 1.419 . S
C951 C952 1.362 . S
C952 H944 0.930 . S
C952 C951 1.362 . S
C952 C955 1.409 . S
C953 H945 0.930 . S
C953 C954 1.355 . S
C953 C955 1.415 . S
C954 C953 1.355 . S
C954 C956 1.419 . S
C955 C950 1.425 . S
C955 C952 1.409 . S
C955 C953 1.415 . S
C956 H946 0.930 . S
C956 C954 1.419 . S
C956 C957 1.362 . S
C957 H947 0.930 . S
C957 C950 1.409 . S
C957 C956 1.362 . S
H958 C964 0.930 . S
H959 C967 0.930 . S
H960 C968 0.930 . S
H961 C969 0.930 . S
H962 C972 0.930 . S
H963 C973 0.930 . S
C964 H958 0.930 . S
C964 C965 1.355 . S
C964 C966 1.415 . S
C965 C964 1.355 . S
C965 C967 1.419 . S
C966 C964 1.415 . S
C966 C971 1.425 . S
C966 C973 1.409 . S
C967 H959 0.930 . S
C967 C965 1.419 . S
C967 C968 1.362 . S
C968 H960 0.930 . S
C968 C967 1.362 . S
C968 C971 1.409 . S
C969 H961 0.930 . S
C969 C970 1.355 . S
C969 C971 1.415 . S
C970 C969 1.355 . S
C970 C972 1.419 . S
C971 C966 1.425 . S
C971 C968 1.409 . S
C971 C969 1.415 . S
C972 H962 0.930 . S
C972 C970 1.419 . S
C972 C973 1.362 . S
C973 H963 0.930 . S
C973 C966 1.409 . S
C973 C972 1.362 . S
H974 C980 0.930 . S
H975 C983 0.930 . S
H976 C984 0.930 . S
H977 C985 0.930 . S
H978 C988 0.930 . S
H979 C989 0.930 . S
C980 H974 0.930 . S
C980 C981 1.355 . S
C980 C982 1.415 . S
C981 C980 1.355 . S
C981 C983 1.419 . S
C982 C980 1.415 . S
C982 C987 1.425 . S
C982 C989 1.409 . S
C983 H975 0.930 . S
C983 C981 1.419 . S
C983 C984 1.362 . S
C984 H976 0.930 . S
C984 C983 1.362 . S
C984 C987 1.409 . S
C985 H977 0.930 . S
C985 C986 1.355 . S
C985 C987 1.415 . S
C986 C985 1.355 . S
C986 C988 1.419 . S
C987 C982 1.425 . S
C987 C984 1.409 . S
C987 C985 1.415 . S
C988 H978 0.930 . S
C988 C986 1.419 . S
C988 C989 1.362 . S
C989 H979 0.930 . S
C989 C982 1.409 . S
C989 C988 1.362 . S
H990 C996 0.930 . S
H991 C999 0.930 . S
H992 C1000 0.930 . S
H993 C1001 0.930 . S
H994 C1004 0.930 . S
H995 C1005 0.930 . S
C996 H990 0.930 . S
C996 C997 1.355 . S
C996 C998 1.415 . S
C997 C996 1.355 . S
C997 C999 1.419 . S
C998 C996 1.415 . S
C998 C1003 1.425 . S
C998 C1005 1.409 . S
C999 H991 0.930 . S
C999 C997 1.419 . S
C999 C1000 1.362 . S
C1000 H992 0.930 . S
C1000 C999 1.362 . S
C1000 C1003 1.409 . S
C1001 H993 0.930 . S
C1001 C1002 1.355 . S
C1001 C1003 1.415 . S
C1002 C1001 1.355 . S
C1002 C1004 1.419 . S
C1003 C998 1.425 . S
C1003 C1000 1.409 . S
C1003 C1001 1.415 . S
C1004 H994 0.930 . S
C1004 C1002 1.419 . S
C1004 C1005 1.362 . S
C1005 H995 0.930 . S
C1005 C998 1.409 . S
C1005 C1004 1.362 . S
H1006 C1012 0.930 . S
H1007 C1015 0.930 . S
H1008 C1016 0.930 . S
H1009 C1017 0.930 . S
H1010 C1020 0.930 . S
H1011 C1021 0.930 . S
C1012 H1006 0.930 . S
C1012 C1013 1.355 . S
C1012 C1014 1.415 . S
C1013 C1012 1.355 . S
C1013 C1015 1.419 . S
C1014 C1012 1.415 . S
C1014 C1019 1.425 . S
C1014 C1021 1.409 . S
C1015 H1007 0.930 . S
C1015 C1013 1.419 . S
C1015 C1016 1.362 . S
C1016 H1008 0.930 . S
C1016 C1015 1.362 . S
C1016 C1019 1.409 . S
C1017 H1009 0.930 . S
C1017 C1018 1.355 . S
C1017 C1019 1.415 . S
C1018 C1017 1.355 . S
C1018 C1020 1.419 . S
C1019 C1014 1.425 . S
C1019 C1016 1.409 . S
C1019 C1017 1.415 . S
C1020 H1010 0.930 . S
C1020 C1018 1.419 . S
C1020 C1021 1.362 . S
C1021 H1011 0.930 . S
C1021 C1014 1.409 . S
C1021 C1020 1.362 . S
H1022 C1028 0.930 . S
H1023 C1031 0.930 . S
H1024 C1032 0.930 . S
H1025 C1033 0.930 . S
H1026 C1036 0.930 . S
H1027 C1037 0.930 . S
C1028 H1022 0.930 . S
C1028 C1029 1.355 . S
C1028 C1030 1.415 . S
C1029 C1028 1.355 . S
C1029 C1031 1.419 . S
C1030 C1028 1.415 . S
C1030 C1035 1.425 . S
C1030 C1037 1.409 . S
C1031 H1023 0.930 . S
C1031 C1029 1.419 . S
C1031 C1032 1.362 . S
C1032 H1024 0.930 . S
C1032 C1031 1.362 . S
C1032 C1035 1.409 . S
C1033 H1025 0.930 . S
C1033 C1034 1.355 . S
C1033 C1035 1.415 . S
C1034 C1033 1.355 . S
C1034 C1036 1.419 . S
C1035 C1030 1.425 . S
C1035 C1032 1.409 . S
C1035 C1033 1.415 . S
C1036 H1026 0.930 . S
C1036 C1034 1.419 . S
C1036 C1037 1.362 . S
C1037 H1027 0.930 . S
C1037 C1030 1.409 . S
C1037 C1036 1.362 . S
H1038 C1044 0.930 . S
H1039 C1047 0.930 . S
H1040 C1048 0.930 . S
H1041 C1049 0.930 . S
H1042 C1052 0.930 . S
H1043 C1053 0.930 . S
C1044 H1038 0.930 . S
C1044 C1045 1.355 . S
C1044 C1046 1.415 . S
C1045 C1044 1.355 . S
C1045 C1047 1.419 . S
C1046 C1044 1.415 . S
C1046 C1051 1.425 . S
C1046 C1053 1.409 . S
C1047 H1039 0.930 . S
C1047 C1045 1.419 . S
C1047 C1048 1.362 . S
C1048 H1040 0.930 . S
C1048 C1047 1.362 . S
C1048 C1051 1.409 . S
C1049 H1041 0.930 . S
C1049 C1050 1.355 . S
C1049 C1051 1.415 . S
C1050 C1049 1.355 . S
C1050 C1052 1.419 . S
C1051 C1046 1.425 . S
C1051 C1048 1.409 . S
C1051 C1049 1.415 . S
C1052 H1042 0.930 . S
C1052 C1050 1.419 . S
C1052 C1053 1.362 . S
C1053 H1043 0.930 . S
C1053 C1046 1.409 . S
C1053 C1052 1.362 . S
H1054 C1060 0.930 . S
H1055 C1063 0.930 . S
H1056 C1064 0.930 . S
H1057 C1065 0.930 . S
H1058 C1068 0.930 . S
H1059 C1069 0.930 . S
C1060 H1054 0.930 . S
C1060 C1061 1.355 . S
C1060 C1062 1.415 . S
C1061 C1060 1.355 . S
C1061 C1063 1.419 . S
C1062 C1060 1.415 . S
C1062 C1067 1.425 . S
C1062 C1069 1.409 . S
C1063 H1055 0.930 . S
C1063 C1061 1.419 . S
C1063 C1064 1.362 . S
C1064 H1056 0.930 . S
C1064 C1063 1.362 . S
C1064 C1067 1.409 . S
C1065 H1057 0.930 . S
C1065 C1066 1.355 . S
C1065 C1067 1.415 . S
C1066 C1065 1.355 . S
C1066 C1068 1.419 . S
C1067 C1062 1.425 . S
C1067 C1064 1.409 . S
C1067 C1065 1.415 . S
C1068 H1058 0.930 . S
C1068 C1066 1.419 . S
C1068 C1069 1.362 . S
C1069 H1059 0.930 . S
C1069 C1062 1.409 . S
C1069 C1068 1.362 . S
H1070 C1076 0.930 . S
H1071 C1079 0.930 . S
H1072 C1080 0.930 . S
H1073 C1081 0.930 . S
H1074 C1084 0.930 . S
H1075 C1085 0.930 . S
C1076 H1070 0.930 . S
C1076 C1077 1.355 . S
C1076 C1078 1.415 . S
C1077 C1076 1.355 . S
C1077 C1079 1.419 . S
C1078 C1076 1.415 . S
C1078 C1083 1.425 . S
C1078 C1085 1.409 . S
C1079 H1071 0.930 . S
C1079 C1077 1.419 . S
C1079 C1080 1.362 . S
C1080 H1072 0.930 . S
C1080 C1079 1.362 . S
C1080 C1083 1.409 . S
C1081 H1073 0.930 . S
C1081 C1082 1.355 . S
C1081 C1083 1.415 . S
C1082 C1081 1.355 . S
C1082 C1084 1.419 . S
C1083 C1078 1.425 . S
C1083 C1080 1.409 . S
C1083 C1081 1.415 . S
C1084 H1074 0.930 . S
C1084 C1082 1.419 . S
C1084 C1085 1.362 . S
C1085 H1075 0.930 . S
C1085 C1078 1.409 . S
C1085 C1084 1.362 . S
H1086 C1092 0.930 . S
H1087 C1095 0.930 . S
H1088 C1096 0.930 . S
H1089 C1097 0.930 . S
H1090 C1100 0.930 . S
H1091 C1101 0.930 . S
C1092 H1086 0.930 . S
C1092 C1093 1.355 . S
C1092 C1094 1.415 . S
C1093 C1092 1.355 . S
C1093 C1095 1.419 . S
C1094 C1092 1.415 . S
C1094 C1099 1.425 . S
C1094 C1101 1.409 . S
C1095 H1087 0.930 . S
C1095 C1093 1.419 . S
C1095 C1096 1.362 . S
C1096 H1088 0.930 . S
C1096 C1095 1.362 . S
C1096 C1099 1.409 . S
C1097 H1089 0.930 . S
C1097 C1098 1.355 . S
C1097 C1099 1.415 . S
C1098 C1097 1.355 . S
C1098 C1100 1.419 . S
C1099 C1094 1.425 . S
C1099 C1096 1.409 . S
C1099 C1097 1.415 . S
C1100 H1090 0.930 . S
C1100 C1098 1.419 . S
C1100 C1101 1.362 . S
C1101 H1091 0.930 . S
C1101 C1094 1.409 . S
C1101 C1100 1.362 . S
H1102 C1108 0.930 . S
H1103 C1111 0.930 . S
H1104 C1112 0.930 . S
H1105 C1113 0.930 . S
H1106 C1116 0.930 . S
H1107 C1117 0.930 . S
C1108 H1102 0.930 . S
C1108 C1109 1.355 . S
C1108 C1110 1.415 . S
C1109 C1108 1.355 . S
C1109 C1111 1.419 . S
C1110 C1108 1.415 . S
C1110 C1115 1.425 . S
C1110 C1117 1.409 . S
C1111 H1103 0.930 . S
C1111 C1109 1.419 . S
C1111 C1112 1.362 . S
C1112 H1104 0.930 . S
C1112 C1111 1.362 . S
C1112 C1115 1.409 . S
C1113 H1105 0.930 . S
C1113 C1114 1.355 . S
C1113 C1115 1.415 . S
C1114 C1113 1.355 . S
C1114 C1116 1.419 . S
C1115 C1110 1.425 . S
C1115 C1112 1.409 . S
C1115 C1113 1.415 . S
C1116 H1106 0.930 . S
C1116 C1114 1.419 . S
C1116 C1117 1.362 . S
C1117 H1107 0.930 . S
C1117 C1110 1.409 . S
C1117 C1116 1.362 . S
H1118 C1124 0.930 . S
H1119 C1127 0.930 . S
H1120 C1128 0.930 . S
H1121 C1129 0.930 . S
H1122 C1132 0.930 . S
H1123 C1133 0.930 . S
C1124 H1118 0.930 . S
C1124 C1125 1.355 . S
C1124 C1126 1.415 . S
C1125 C1124 1.355 . S
C1125 C1127 1.419 . S
C1126 C1124 1.415 . S
C1126 C1131 1.425 . S
C1126 C1133 1.409 . S
C1127 H1119 0.930 . S
C1127 C1125 1.419 . S
C1127 C1128 1.362 . S
C1128 H1120 0.930 . S
C1128 C1127 1.362 . S
C1128 C1131 1.409 . S
C1129 H1121 0.930 . S
C1129 C1130 1.355 . S
C1129 C1131 1.415 . S
C1130 C1129 1.355 . S
C1130 C1132 1.419 . S
C1131 C1126 1.425 . S
C1131 C1128 1.409 . S
C1131 C1129 1.415 . S
C1132 H1122 0.930 . S
C1132 C1130 1.419 . S
C1132 C1133 1.362 . S
C1133 H1123 0.930 . S
C1133 C1126 1.409 . S
C1133 C1132 1.362 . S
H1134 C1140 0.930 . S
H1135 C1143 0.930 . S
H1136 C1144 0.930 . S
H1137 C1145 0.930 . S
H1138 C1148 0.930 . S
H1139 C1149 0.930 . S
C1140 H1134 0.930 . S
C1140 C1141 1.355 . S
C1140 C1142 1.415 . S
C1141 C1140 1.355 . S
C1141 C1143 1.419 . S
C1142 C1140 1.415 . S
C1142 C1147 1.425 . S
C1142 C1149 1.409 . S
C1143 H1135 0.930 . S
C1143 C1141 1.419 . S
C1143 C1144 1.362 . S
C1144 H1136 0.930 . S
C1144 C1143 1.362 . S
C1144 C1147 1.409 . S
C1145 H1137 0.930 . S
C1145 C1146 1.355 . S
C1145 C1147 1.415 . S
C1146 C1145 1.355 . S
C1146 C1148 1.419 . S
C1147 C1142 1.425 . S
C1147 C1144 1.409 . S
C1147 C1145 1.415 . S
C1148 H1138 0.930 . S
C1148 C1146 1.419 . S
C1148 C1149 1.362 . S
C1149 H1139 0.930 . S
C1149 C1142 1.409 . S
C1149 C1148 1.362 . S
H1150 C1156 0.930 . S
H1151 C1159 0.930 . S
H1152 C1160 0.930 . S
H1153 C1161 0.930 . S
H1154 C1164 0.930 . S
H1155 C1165 0.930 . S
C1156 H1150 0.930 . S
C1156 C1157 1.355 . S
C1156 C1158 1.415 . S
C1157 C1156 1.355 . S
C1157 C1159 1.419 . S
C1158 C1156 1.415 . S
C1158 C1163 1.425 . S
C1158 C1165 1.409 . S
C1159 H1151 0.930 . S
C1159 C1157 1.419 . S
C1159 C1160 1.362 . S
C1160 H1152 0.930 . S
C1160 C1159 1.362 . S
C1160 C1163 1.409 . S
C1161 H1153 0.930 . S
C1161 C1162 1.355 . S
C1161 C1163 1.415 . S
C1162 C1161 1.355 . S
C1162 C1164 1.419 . S
C1163 C1158 1.425 . S
C1163 C1160 1.409 . S
C1163 C1161 1.415 . S
C1164 H1154 0.930 . S
C1164 C1162 1.419 . S
C1164 C1165 1.362 . S
C1165 H1155 0.930 . S
C1165 C1158 1.409 . S
C1165 C1164 1.362 . S
H1166 C1172 0.930 . S
H1167 C1175 0.930 . S
H1168 C1176 0.930 . S
H1169 C1177 0.930 . S
H1170 C1180 0.930 . S
H1171 C1181 0.930 . S
C1172 H1166 0.930 . S
C1172 C1173 1.355 . S
C1172 C1174 1.415 . S
C1173 C1172 1.355 . S
C1173 C1175 1.419 . S
C1174 C1172 1.415 . S
C1174 C1179 1.425 . S
C1174 C1181 1.409 . S
C1175 H1167 0.930 . S
C1175 C1173 1.419 . S
C1175 C1176 1.362 . S
C1176 H1168 0.930 . S
C1176 C1175 1.362 . S
C1176 C1179 1.409 . S
C1177 H1169 0.930 . S
C1177 C1178 1.355 . S
C1177 C1179 1.415 . S
C1178 C1177 1.355 . S
C1178 C1180 1.419 . S
C1179 C1174 1.425 . S
C1179 C1176 1.409 . S
C1179 C1177 1.415 . S
C1180 H1170 0.930 . S
C1180 C1178 1.419 . S
C1180 C1181 1.362 . S
C1181 H1171 0.930 . S
C1181 C1174 1.409 . S
C1181 C1180 1.362 . S
H1182 C1188 0.930 1_554 S
H1183 C1191 0.930 . S
H1184 C1192 0.930 . S
H1185 C1193 0.930 . S
H1186 C1196 0.930 . S
H1187 C1197 0.930 . S
C1188 H1182 0.930 1_556 S
C1188 C1189 1.355 . S
C1188 C1190 1.415 . S
C1189 C1188 1.355 . S
C1189 C1191 1.419 . S
C1190 C1188 1.415 . S
C1190 C1195 1.425 . S
C1190 C1197 1.409 . S
C1191 H1183 0.930 . S
C1191 C1189 1.419 . S
C1191 C1192 1.362 . S
C1192 H1184 0.930 . S
C1192 C1191 1.362 . S
C1192 C1195 1.409 . S
C1193 H1185 0.930 . S
C1193 C1194 1.355 . S
C1193 C1195 1.415 . S
C1194 C1193 1.355 . S
C1194 C1196 1.419 . S
C1195 C1190 1.425 . S
C1195 C1192 1.409 . S
C1195 C1193 1.415 . S
C1196 H1186 0.930 . S
C1196 C1194 1.419 . S
C1196 C1197 1.362 . S
C1197 H1187 0.930 . S
C1197 C1190 1.409 . S
C1197 C1196 1.362 . S
H1198 C1204 0.930 . S
H1199 C1207 0.930 . S
H1200 C1208 0.930 . S
H1201 C1209 0.930 . S
H1202 C1212 0.930 . S
H1203 C1213 0.930 . S
C1204 H1198 0.930 . S
C1204 C1205 1.355 . S
C1204 C1206 1.415 . S
C1205 C1204 1.355 . S
C1205 C1207 1.419 . S
C1206 C1204 1.415 . S
C1206 C1211 1.425 . S
C1206 C1213 1.409 . S
C1207 H1199 0.930 . S
C1207 C1205 1.419 . S
C1207 C1208 1.362 . S
C1208 H1200 0.930 . S
C1208 C1207 1.362 . S
C1208 C1211 1.409 . S
C1209 H1201 0.930 . S
C1209 C1210 1.355 . S
C1209 C1211 1.415 . S
C1210 C1209 1.355 . S
C1210 C1212 1.419 . S
C1211 C1206 1.425 . S
C1211 C1208 1.409 . S
C1211 C1209 1.415 . S
C1212 H1202 0.930 . S
C1212 C1210 1.419 . S
C1212 C1213 1.362 . S
C1213 H1203 0.930 . S
C1213 C1206 1.409 . S
C1213 C1212 1.362 . S
H1214 C1220 0.930 . S
H1215 C1223 0.930 1_554 S
H1216 C1224 0.930 1_554 S
H1217 C1225 0.930 . S
H1218 C1228 0.930 . S
H1219 C1229 0.930 . S
C1220 H1214 0.930 . S
C1220 C1221 1.355 . S
C1220 C1222 1.415 . S
C1221 C1220 1.355 . S
C1221 C1223 1.419 . S
C1222 C1220 1.415 . S
C1222 C1227 1.425 . S
C1222 C1229 1.409 . S
C1223 H1215 0.930 1_556 S
C1223 C1221 1.419 . S
C1223 C1224 1.362 . S
C1224 H1216 0.930 1_556 S
C1224 C1223 1.362 . S
C1224 C1227 1.409 . S
C1225 H1217 0.930 . S
C1225 C1226 1.355 . S
C1225 C1227 1.415 . S
C1226 C1225 1.355 . S
C1226 C1228 1.419 . S
C1227 C1222 1.425 . S
C1227 C1224 1.409 . S
C1227 C1225 1.415 . S
C1228 H1218 0.930 . S
C1228 C1226 1.419 . S
C1228 C1229 1.362 . S
C1229 H1219 0.930 . S
C1229 C1222 1.409 . S
C1229 C1228 1.362 . S
H1230 C1236 0.930 1_554 S
H1231 C1239 0.930 . S
H1232 C1240 0.930 . S
H1233 C1241 0.930 . S
H1234 C1244 0.930 . S
H1235 C1245 0.959 . S
C1236 H1230 0.930 1_556 S
C1236 C1237 1.355 . S
C1236 C1238 1.415 . S
C1237 C1236 1.355 . S
C1237 C1239 1.419 . S
C1238 C1236 1.415 . S
C1238 C1243 1.425 . S
C1238 C1245 1.409 . S
C1239 H1231 0.930 . S
C1239 C1237 1.419 . S
C1239 C1240 1.362 . S
C1240 H1232 0.930 . S
C1240 C1239 1.362 . S
C1240 C1243 1.409 . S
C1241 H1233 0.930 . S
C1241 C1242 1.355 . S
C1241 C1243 1.415 . S
C1242 C1241 1.355 . S
C1242 C1244 1.419 . S
C1243 C1238 1.425 . S
C1243 C1240 1.409 . S
C1243 C1241 1.415 . S
C1244 H1234 0.930 . S
C1244 C1242 1.419 . S
C1244 C1245 1.362 . S
C1245 H1235 0.959 . S
C1245 C1238 1.409 . S
C1245 C1244 1.362 . S
H1246 C1252 0.930 . S
H1247 C1255 0.930 . S
H1248 C1256 0.930 . S
H1249 C1257 0.930 . S
H1250 C1260 0.930 . S
H1251 C1261 0.930 . S
C1252 H1246 0.930 . S
C1252 C1253 1.355 . S
C1252 C1254 1.415 . S
C1253 C1252 1.355 . S
C1253 C1255 1.419 . S
C1254 C1252 1.415 . S
C1254 C1259 1.425 . S
C1254 C1261 1.409 . S
C1255 H1247 0.930 . S
C1255 C1253 1.419 . S
C1255 C1256 1.362 . S
C1256 H1248 0.930 . S
C1256 C1255 1.362 . S
C1256 C1259 1.409 . S
C1257 H1249 0.930 . S
C1257 C1258 1.355 . S
C1257 C1259 1.415 . S
C1258 C1257 1.355 . S
C1258 C1260 1.419 . S
C1259 C1254 1.425 . S
C1259 C1256 1.409 . S
C1259 C1257 1.415 . S
C1260 H1250 0.930 . S
C1260 C1258 1.419 . S
C1260 C1261 1.362 . S
C1261 H1251 0.930 . S
C1261 C1254 1.409 . S
C1261 C1260 1.362 . S
H1262 C1268 0.930 . S
H1263 C1271 0.930 . S
H1264 C1272 0.930 . S
H1265 C1273 0.930 . S
H1266 C1276 0.930 . S
H1267 C1277 0.930 . S
C1268 H1262 0.930 . S
C1268 C1269 1.355 . S
C1268 C1270 1.415 . S
C1269 C1268 1.355 . S
C1269 C1271 1.419 . S
C1270 C1268 1.415 . S
C1270 C1275 1.425 . S
C1270 C1277 1.409 . S
C1271 H1263 0.930 . S
C1271 C1269 1.419 . S
C1271 C1272 1.362 . S
C1272 H1264 0.930 . S
C1272 C1271 1.362 . S
C1272 C1275 1.409 . S
C1273 H1265 0.930 . S
C1273 C1274 1.355 . S
C1273 C1275 1.415 . S
C1274 C1273 1.355 . S
C1274 C1276 1.419 . S
C1275 C1270 1.425 . S
C1275 C1272 1.409 . S
C1275 C1273 1.415 . S
C1276 H1266 0.930 . S
C1276 C1274 1.419 . S
C1276 C1277 1.362 . S
C1277 H1267 0.930 . S
C1277 C1270 1.409 . S
C1277 C1276 1.362 . S
H1278 C1284 0.930 . S
H1279 C1287 0.930 . S
H1280 C1288 0.930 . S
H1281 C1289 0.930 . S
H1282 C1292 0.930 . S
H1283 C1293 0.930 . S
C1284 H1278 0.930 . S
C1284 C1285 1.355 . S
C1284 C1286 1.415 . S
C1285 C1284 1.355 . S
C1285 C1287 1.419 . S
C1286 C1284 1.415 . S
C1286 C1291 1.425 . S
C1286 C1293 1.409 . S
C1287 H1279 0.930 . S
C1287 C1285 1.419 . S
C1287 C1288 1.362 . S
C1288 H1280 0.930 . S
C1288 C1287 1.362 . S
C1288 C1291 1.409 . S
C1289 H1281 0.930 . S
C1289 C1290 1.355 . S
C1289 C1291 1.415 . S
C1290 C1289 1.355 . S
C1290 C1292 1.419 . S
C1291 C1286 1.425 . S
C1291 C1288 1.409 . S
C1291 C1289 1.415 . S
C1292 H1282 0.930 . S
C1292 C1290 1.419 . S
C1292 C1293 1.362 . S
C1293 H1283 0.930 . S
C1293 C1286 1.409 . S
C1293 C1292 1.362 . S
H1294 C1300 0.930 . S
H1295 C1303 0.930 . S
H1296 C1304 0.930 . S
H1297 C1305 0.930 . S
H1298 C1308 0.930 . S
H1299 C1309 0.930 . S
C1300 H1294 0.930 . S
C1300 C1301 1.355 . S
C1300 C1302 1.415 . S
C1301 C1300 1.355 . S
C1301 C1303 1.419 . S
C1302 C1300 1.415 . S
C1302 C1307 1.425 . S
C1302 C1309 1.409 . S
C1303 H1295 0.930 . S
C1303 C1301 1.419 . S
C1303 C1304 1.362 . S
C1304 H1296 0.930 . S
C1304 C1303 1.362 . S
C1304 C1307 1.409 . S
C1305 H1297 0.930 . S
C1305 C1306 1.355 . S
C1305 C1307 1.415 . S
C1306 C1305 1.355 . S
C1306 C1308 1.419 . S
C1307 C1302 1.425 . S
C1307 C1304 1.409 . S
C1307 C1305 1.415 . S
C1308 H1298 0.930 . S
C1308 C1306 1.419 . S
C1308 C1309 1.362 . S
C1309 H1299 0.930 . S
C1309 C1302 1.409 . S
C1309 C1308 1.362 . S
H1310 C1316 0.930 . S
H1311 C1319 0.930 . S
H1312 C1320 0.930 . S
H1313 C1321 0.930 . S
H1314 C1324 0.930 . S
H1315 C1325 0.930 . S
C1316 H1310 0.930 . S
C1316 C1317 1.355 . S
C1316 C1318 1.415 . S
C1317 C1316 1.355 . S
C1317 C1319 1.419 . S
C1318 C1316 1.415 . S
C1318 C1323 1.425 . S
C1318 C1325 1.409 . S
C1319 H1311 0.930 . S
C1319 C1317 1.419 . S
C1319 C1320 1.362 . S
C1320 H1312 0.930 . S
C1320 C1319 1.362 . S
C1320 C1323 1.409 . S
C1321 H1313 0.930 . S
C1321 C1322 1.355 . S
C1321 C1323 1.415 . S
C1322 C1321 1.355 . S
C1322 C1324 1.419 . S
C1323 C1318 1.425 . S
C1323 C1320 1.409 . S
C1323 C1321 1.415 . S
C1324 H1314 0.930 . S
C1324 C1322 1.419 . S
C1324 C1325 1.362 . S
C1325 H1315 0.930 . S
C1325 C1318 1.409 . S
C1325 C1324 1.362 . S
H1326 C1332 0.930 . S
H1327 C1335 0.930 . S
H1328 C1336 0.930 . S
H1329 C1337 0.930 . S
H1330 C1340 0.930 . S
H1331 C1341 0.930 . S
C1332 H1326 0.930 . S
C1332 C1333 1.355 . S
C1332 C1334 1.415 . S
C1333 C1332 1.355 . S
C1333 C1335 1.419 . S
C1334 C1332 1.415 . S
C1334 C1339 1.425 . S
C1334 C1341 1.409 . S
C1335 H1327 0.930 . S
C1335 C1333 1.419 . S
C1335 C1336 1.362 . S
C1336 H1328 0.930 . S
C1336 C1335 1.362 . S
C1336 C1339 1.409 . S
C1337 H1329 0.930 . S
C1337 C1338 1.355 . S
C1337 C1339 1.415 . S
C1338 C1337 1.355 . S
C1338 C1340 1.419 . S
C1339 C1334 1.425 . S
C1339 C1336 1.409 . S
C1339 C1337 1.415 . S
C1340 H1330 0.930 . S
C1340 C1338 1.419 . S
C1340 C1341 1.362 . S
C1341 H1331 0.930 . S
C1341 C1334 1.409 . S
C1341 C1340 1.362 . S
H1342 C1348 0.930 . S
H1343 C1351 0.930 . S
H1344 C1352 0.930 . S
H1345 C1353 0.930 . S
H1346 C1356 0.930 . S
H1347 C1357 0.930 . S
C1348 H1342 0.930 . S
C1348 C1349 1.355 . S
C1348 C1350 1.415 . S
C1349 C1348 1.355 . S
C1349 C1351 1.419 . S
C1350 C1348 1.415 . S
C1350 C1355 1.425 . S
C1350 C1357 1.409 . S
C1351 H1343 0.930 . S
C1351 C1349 1.419 . S
C1351 C1352 1.362 . S
C1352 H1344 0.930 . S
C1352 C1351 1.362 . S
C1352 C1355 1.409 . S
C1353 H1345 0.930 . S
C1353 C1354 1.355 . S
C1353 C1355 1.415 . S
C1354 C1353 1.355 . S
C1354 C1356 1.419 . S
C1355 C1350 1.425 . S
C1355 C1352 1.409 . S
C1355 C1353 1.415 . S
C1356 H1346 0.930 . S
C1356 C1354 1.419 . S
C1356 C1357 1.362 . S
C1357 H1347 0.930 . S
C1357 C1350 1.409 . S
C1357 C1356 1.362 . S
H1358 C1364 0.930 . S
H1359 C1367 0.930 . S
H1360 C1368 0.930 . S
H1361 C1369 0.930 . S
H1362 C1372 0.930 . S
H1363 C1373 0.930 . S
C1364 H1358 0.930 . S
C1364 C1365 1.355 . S
C1364 C1366 1.415 . S
C1365 C1364 1.355 . S
C1365 C1367 1.419 . S
C1366 C1364 1.415 . S
C1366 C1371 1.425 . S
C1366 C1373 1.409 . S
C1367 H1359 0.930 . S
C1367 C1365 1.419 . S
C1367 C1368 1.362 . S
C1368 H1360 0.930 . S
C1368 C1367 1.362 . S
C1368 C1371 1.409 . S
C1369 H1361 0.930 . S
C1369 C1370 1.355 . S
C1369 C1371 1.415 . S
C1370 C1369 1.355 . S
C1370 C1372 1.419 . S
C1371 C1366 1.425 . S
C1371 C1368 1.409 . S
C1371 C1369 1.415 . S
C1372 H1362 0.930 . S
C1372 C1370 1.419 . S
C1372 C1373 1.362 . S
C1373 H1363 0.930 . S
C1373 C1366 1.409 . S
C1373 C1372 1.362 . S
H1374 C1380 0.899 1_655 S
H1375 C1383 0.930 . S
H1376 C1384 0.930 . S
H1377 C1385 0.930 . S
H1378 C1388 0.930 . S
H1379 C1389 0.930 . S
C1380 H1374 0.899 1_455 S
C1380 C1381 1.400 . S
C1380 C1382 1.401 . S
C1381 C1380 1.400 . S
C1381 C1383 1.419 . S
C1382 C1380 1.401 . S
C1382 C1387 1.425 . S
C1382 C1389 1.409 1_455 S
C1383 H1375 0.930 . S
C1383 C1381 1.419 . S
C1383 C1384 1.362 . S
C1384 H1376 0.930 . S
C1384 C1383 1.362 . S
C1384 C1387 1.409 . S
C1385 H1377 0.930 . S
C1385 C1386 1.355 . S
C1385 C1387 1.415 . S
C1386 C1385 1.355 . S
C1386 C1388 1.419 1_455 S
C1387 C1382 1.425 . S
C1387 C1384 1.409 . S
C1387 C1385 1.415 . S
C1388 H1378 0.930 . S
C1388 C1386 1.419 1_655 S
C1388 C1389 1.362 . S
C1389 H1379 0.930 . S
C1389 C1382 1.409 1_655 S
C1389 C1388 1.362 . S
H1390 C1396 0.930 . S
H1391 C1399 0.930 . S
H1392 C1400 0.930 . S
H1393 C1401 0.930 . S
H1394 C1404 0.930 . S
H1395 C1405 0.930 . S
C1396 H1390 0.930 . S
C1396 C1397 1.355 . S
C1396 C1398 1.415 . S
C1397 C1396 1.355 . S
C1397 C1399 1.419 . S
C1398 C1396 1.415 . S
C1398 C1403 1.425 . S
C1398 C1405 1.409 . S
C1399 H1391 0.930 . S
C1399 C1397 1.419 . S
C1399 C1400 1.362 . S
C1400 H1392 0.930 . S
C1400 C1399 1.362 . S
C1400 C1403 1.409 . S
C1401 H1393 0.930 . S
C1401 C1402 1.355 . S
C1401 C1403 1.415 . S
C1402 C1401 1.355 . S
C1402 C1404 1.419 . S
C1403 C1398 1.425 . S
C1403 C1400 1.409 . S
C1403 C1401 1.415 . S
C1404 H1394 0.930 . S
C1404 C1402 1.419 . S
C1404 C1405 1.362 . S
C1405 H1395 0.930 . S
C1405 C1398 1.409 . S
C1405 C1404 1.362 . S
H1406 C1412 0.930 . S
H1407 C1415 0.930 . S
H1408 C1416 0.930 . S
H1409 C1417 0.930 . S
H1410 C1420 0.930 . S
H1411 C1421 0.930 . S
C1412 H1406 0.930 . S
C1412 C1413 1.355 . S
C1412 C1414 1.415 . S
C1413 C1412 1.355 . S
C1413 C1415 1.419 1_565 S
C1414 C1412 1.415 . S
C1414 C1419 1.425 1_565 S
C1414 C1421 1.409 . S
C1415 H1407 0.930 . S
C1415 C1413 1.419 1_545 S
C1415 C1416 1.362 . S
C1416 H1408 0.930 . S
C1416 C1415 1.362 . S
C1416 C1419 1.409 . S
C1417 H1409 0.930 . S
C1417 C1418 1.355 1_545 S
C1417 C1419 1.415 . S
C1418 C1417 1.355 1_565 S
C1418 C1420 1.419 . S
C1419 C1414 1.425 1_545 S
C1419 C1416 1.409 . S
C1419 C1417 1.415 . S
C1420 H1410 0.930 . S
C1420 C1418 1.419 . S
C1420 C1421 1.362 . S
C1421 H1411 0.930 . S
C1421 C1414 1.409 . S
C1421 C1420 1.362 . S
H1422 C1428 0.930 . S
H1423 C1431 0.930 . S
H1424 C1432 0.930 . S
H1425 C1433 0.930 . S
H1426 C1436 0.930 . S
H1427 C1437 0.930 . S
C1428 H1422 0.930 . S
C1428 C1429 1.355 1_545 S
C1428 C1430 1.415 . S
C1429 C1428 1.355 1_565 S
C1429 C1431 1.419 . S
C1430 C1428 1.415 . S
C1430 C1435 1.425 1_545 S
C1430 C1437 1.409 . S
C1431 H1423 0.930 . S
C1431 C1429 1.419 . S
C1431 C1432 1.362 . S
C1432 H1424 0.930 . S
C1432 C1431 1.362 . S
C1432 C1435 1.409 . S
C1433 H1425 0.930 . S
C1433 C1434 1.355 1_565 S
C1433 C1435 1.415 . S
C1434 C1433 1.355 1_545 S
C1434 C1436 1.419 . S
C1435 C1430 1.425 1_565 S
C1435 C1432 1.409 . S
C1435 C1433 1.415 . S
C1436 H1426 0.930 . S
C1436 C1434 1.419 . S
C1436 C1437 1.362 . S
C1437 H1427 0.930 . S
C1437 C1430 1.409 . S
C1437 C1436 1.362 . S
H1438 C1444 0.930 . S
H1439 C1447 0.930 . S
H1440 C1448 0.930 . S
H1441 C1449 0.930 . S
H1442 C1452 0.930 . S
H1443 C1453 0.930 . S
C1444 H1438 0.930 . S
C1444 C1445 1.355 1_655 S
C1444 C1446 1.385 1_655 S
C1445 C1444 1.355 1_455 S
C1445 C1447 1.419 . S
C1446 C1444 1.385 1_455 S
C1446 C1451 1.479 . S
C1446 C1453 1.389 1_455 S
C1447 H1439 0.930 . S
C1447 C1445 1.419 . S
C1447 C1448 1.362 . S
C1448 H1440 0.930 . S
C1448 C1447 1.362 . S
C1448 C1451 1.409 . S
C1449 H1441 0.930 . S
C1449 C1450 1.355 . S
C1449 C1451 1.415 . S
C1450 C1449 1.355 . S
C1450 C1452 1.419 1_455 S
C1451 C1446 1.479 . S
C1451 C1448 1.409 . S
C1451 C1449 1.415 . S
C1452 H1442 0.930 . S
C1452 C1450 1.419 1_655 S
C1452 C1453 1.362 . S
C1453 H1443 0.930 . S
C1453 C1446 1.389 1_655 S
C1453 C1452 1.362 . S
H1454 C1460 0.930 . S
H1455 C1463 0.930 . S
H1456 C1464 0.930 . S
H1457 C1465 0.930 . S
H1458 C1468 0.930 . S
H1459 C1469 0.930 . S
C1460 H1454 0.930 . S
C1460 C1461 1.355 . S
C1460 C1462 1.415 . S
C1461 C1460 1.355 . S
C1461 C1463 1.419 . S
C1462 C1460 1.415 . S
C1462 C1467 1.425 . S
C1462 C1469 1.409 . S
C1463 H1455 0.930 . S
C1463 C1461 1.419 . S
C1463 C1464 1.362 . S
C1464 H1456 0.930 . S
C1464 C1463 1.362 . S
C1464 C1467 1.409 . S
C1465 H1457 0.930 . S
C1465 C1466 1.355 . S
C1465 C1467 1.415 . S
C1466 C1465 1.355 . S
C1466 C1468 1.419 . S
C1467 C1462 1.425 . S
C1467 C1464 1.409 . S
C1467 C1465 1.415 . S
C1468 H1458 0.930 . S
C1468 C1466 1.419 . S
C1468 C1469 1.362 . S
C1469 H1459 0.930 . S
C1469 C1462 1.409 . S
C1469 C1468 1.362 . S
H1470 C1476 0.930 . S
H1471 C1479 0.930 . S
H1472 C1480 0.930 . S
H1473 C1481 0.930 . S
H1474 C1484 0.930 . S
H1475 C1485 0.930 . S
C1476 H1470 0.930 . S
C1476 C1477 1.355 . S
C1476 C1478 1.415 . S
C1477 C1476 1.355 . S
C1477 C1479 1.419 . S
C1478 C1476 1.415 . S
C1478 C1483 1.425 . S
C1478 C1485 1.409 . S
C1479 H1471 0.930 . S
C1479 C1477 1.419 . S
C1479 C1480 1.362 . S
C1480 H1472 0.930 . S
C1480 C1479 1.362 . S
C1480 C1483 1.409 . S
C1481 H1473 0.930 . S
C1481 C1482 1.355 . S
C1481 C1483 1.415 . S
C1482 C1481 1.355 . S
C1482 C1484 1.419 . S
C1483 C1478 1.425 . S
C1483 C1480 1.409 . S
C1483 C1481 1.415 . S
C1484 H1474 0.930 . S
C1484 C1482 1.419 . S
C1484 C1485 1.362 . S
C1485 H1475 0.930 . S
C1485 C1478 1.409 . S
C1485 C1484 1.362 . S
H1486 C1492 0.930 . S
H1487 C1495 0.930 . S
H1488 C1496 0.930 . S
H1489 C1497 0.930 . S
H1490 C1500 0.930 . S
H1491 C1501 0.930 . S
C1492 H1486 0.930 . S
C1492 C1493 1.355 . S
C1492 C1494 1.415 . S
C1493 C1492 1.355 . S
C1493 C1495 1.419 . S
C1494 C1492 1.415 . S
C1494 C1499 1.425 . S
C1494 C1501 1.409 . S
C1495 H1487 0.930 . S
C1495 C1493 1.419 . S
C1495 C1496 1.362 . S
C1496 H1488 0.930 . S
C1496 C1495 1.362 . S
C1496 C1499 1.409 . S
C1497 H1489 0.930 . S
C1497 C1498 1.355 . S
C1497 C1499 1.415 . S
C1498 C1497 1.355 . S
C1498 C1500 1.419 . S
C1499 C1494 1.425 . S
C1499 C1496 1.409 . S
C1499 C1497 1.415 . S
C1500 H1490 0.930 . S
C1500 C1498 1.419 . S
C1500 C1501 1.362 . S
C1501 H1491 0.930 . S
C1501 C1494 1.409 . S
C1501 C1500 1.362 . S
H1502 C1508 0.930 . S
H1503 C1511 0.930 . S
H1504 C1512 0.930 . S
H1505 C1513 0.930 . S
H1506 C1516 0.930 . S
H1507 C1517 0.930 . S
C1508 H1502 0.930 . S
C1508 C1509 1.355 . S
C1508 C1510 1.415 . S
C1509 C1508 1.355 . S
C1509 C1511 1.419 . S
C1510 C1508 1.415 . S
C1510 C1515 1.425 . S
C1510 C1517 1.409 . S
C1511 H1503 0.930 . S
C1511 C1509 1.419 . S
C1511 C1512 1.362 . S
C1512 H1504 0.930 . S
C1512 C1511 1.362 . S
C1512 C1515 1.409 . S
C1513 H1505 0.930 . S
C1513 C1514 1.355 . S
C1513 C1515 1.415 . S
C1514 C1513 1.355 . S
C1514 C1516 1.419 . S
C1515 C1510 1.425 . S
C1515 C1512 1.409 . S
C1515 C1513 1.415 . S
C1516 H1506 0.930 . S
C1516 C1514 1.419 . S
C1516 C1517 1.362 . S
C1517 H1507 0.930 . S
C1517 C1510 1.409 . S
C1517 C1516 1.362 . S
H1518 C1524 0.930 1_565 S
H1519 C1527 0.930 . S
H1520 C1528 0.930 . S
H1521 C1529 0.930 . S
H1522 C1532 0.931 . S
H1523 C1533 0.930 . S
C1524 H1518 0.930 1_545 S
C1524 C1525 1.355 . S
C1524 C1526 1.415 . S
C1525 C1524 1.355 . S
C1525 C1527 1.419 . S
C1526 C1524 1.415 . S
C1526 C1531 1.425 . S
C1526 C1533 1.409 1_545 S
C1527 H1519 0.930 . S
C1527 C1525 1.419 . S
C1527 C1528 1.362 . S
C1528 H1520 0.930 . S
C1528 C1527 1.362 . S
C1528 C1531 1.409 . S
C1529 H1521 0.930 . S
C1529 C1530 1.355 . S
C1529 C1531 1.415 . S
C1530 C1529 1.355 . S
C1530 C1532 1.418 1_545 S
C1531 C1526 1.425 . S
C1531 C1528 1.409 . S
C1531 C1529 1.415 . S
C1532 H1522 0.931 . S
C1532 C1530 1.418 1_565 S
C1532 C1533 1.362 . S
C1533 H1523 0.930 . S
C1533 C1526 1.409 1_565 S
C1533 C1532 1.362 . S
H1534 C1540 0.930 . S
H1535 C1543 0.930 . S
H1536 C1544 0.930 . S
H1537 C1545 0.930 . S
H1538 C1548 0.930 . S
H1539 C1549 0.930 . S
C1540 H1534 0.930 . S
C1540 C1541 1.355 1_455 S
C1540 C1542 1.415 . S
C1541 C1540 1.355 1_655 S
C1541 C1543 1.419 . S
C1542 C1540 1.415 . S
C1542 C1547 1.425 1_455 S
C1542 C1549 1.409 . S
C1543 H1535 0.930 . S
C1543 C1541 1.419 . S
C1543 C1544 1.362 . S
C1544 H1536 0.930 . S
C1544 C1543 1.362 . S
C1544 C1547 1.409 . S
C1545 H1537 0.930 . S
C1545 C1546 1.355 . S
C1545 C1547 1.415 . S
C1546 C1545 1.355 . S
C1546 C1548 1.419 1_655 S
C1547 C1542 1.425 1_655 S
C1547 C1544 1.409 . S
C1547 C1545 1.415 . S
C1548 H1538 0.930 . S
C1548 C1546 1.419 1_455 S
C1548 C1549 1.362 . S
C1549 H1539 0.930 . S
C1549 C1542 1.409 . S
C1549 C1548 1.362 . S
H1550 C1556 0.930 . S
H1551 C1559 0.930 . S
H1552 C1560 0.930 . S
H1553 C1561 0.930 . S
H1554 C1564 0.930 . S
H1555 C1565 0.930 . S
C1556 H1550 0.930 . S
C1556 C1557 1.355 . S
C1556 C1558 1.415 . S
C1557 C1556 1.355 . S
C1557 C1559 1.419 . S
C1558 C1556 1.415 . S
C1558 C1563 1.425 . S
C1558 C1565 1.409 . S
C1559 H1551 0.930 . S
C1559 C1557 1.419 . S
C1559 C1560 1.362 . S
C1560 H1552 0.930 . S
C1560 C1559 1.362 . S
C1560 C1563 1.409 . S
C1561 H1553 0.930 . S
C1561 C1562 1.355 . S
C1561 C1563 1.415 . S
C1562 C1561 1.355 . S
C1562 C1564 1.419 . S
C1563 C1558 1.425 . S
C1563 C1560 1.409 . S
C1563 C1561 1.415 . S
C1564 H1554 0.930 . S
C1564 C1562 1.419 . S
C1564 C1565 1.362 . S
C1565 H1555 0.930 . S
C1565 C1558 1.409 . S
C1565 C1564 1.362 . S
H1566 C1572 0.930 . S
H1567 C1575 0.930 . S
H1568 C1576 0.930 . S
H1569 C1577 0.930 . S
H1570 C1580 0.930 . S
H1571 C1581 0.930 . S
C1572 H1566 0.930 . S
C1572 C1573 1.355 . S
C1572 C1574 1.415 . S
C1573 C1572 1.355 . S
C1573 C1575 1.419 . S
C1574 C1572 1.415 . S
C1574 C1579 1.425 . S
C1574 C1581 1.409 . S
C1575 H1567 0.930 . S
C1575 C1573 1.419 . S
C1575 C1576 1.362 . S
C1576 H1568 0.930 . S
C1576 C1575 1.362 . S
C1576 C1579 1.409 . S
C1577 H1569 0.930 . S
C1577 C1578 1.355 . S
C1577 C1579 1.415 . S
C1578 C1577 1.355 . S
C1578 C1580 1.419 . S
C1579 C1574 1.425 . S
C1579 C1576 1.409 . S
C1579 C1577 1.415 . S
C1580 H1570 0.930 . S
C1580 C1578 1.419 . S
C1580 C1581 1.362 . S
C1581 H1571 0.930 . S
C1581 C1574 1.409 . S
C1581 C1580 1.362 . S
H1582 C1588 0.930 . S
H1583 C1591 0.930 . S
H1584 C1592 0.930 . S
H1585 C1593 0.930 . S
H1586 C1596 0.930 . S
H1587 C1597 0.930 . S
C1588 H1582 0.930 . S
C1588 C1589 1.355 . S
C1588 C1590 1.415 . S
C1589 C1588 1.355 . S
C1589 C1591 1.419 . S
C1590 C1588 1.415 . S
C1590 C1595 1.425 . S
C1590 C1597 1.409 . S
C1591 H1583 0.930 . S
C1591 C1589 1.419 . S
C1591 C1592 1.362 . S
C1592 H1584 0.930 . S
C1592 C1591 1.362 . S
C1592 C1595 1.409 . S
C1593 H1585 0.930 . S
C1593 C1594 1.355 . S
C1593 C1595 1.415 . S
C1594 C1593 1.355 . S
C1594 C1596 1.419 . S
C1595 C1590 1.425 . S
C1595 C1592 1.409 . S
C1595 C1593 1.415 . S
C1596 H1586 0.930 . S
C1596 C1594 1.419 . S
C1596 C1597 1.362 . S
C1597 H1587 0.930 . S
C1597 C1590 1.409 . S
C1597 C1596 1.362 . S
H1598 C1604 0.930 . S
H1599 C1607 0.930 . S
H1600 C1608 0.930 . S
H1601 C1609 0.930 . S
H1602 C1612 0.930 . S
H1603 C1613 0.930 . S
C1604 H1598 0.930 . S
C1604 C1605 1.355 . S
C1604 C1606 1.415 . S
C1605 C1604 1.355 . S
C1605 C1607 1.419 . S
C1606 C1604 1.415 . S
C1606 C1611 1.425 . S
C1606 C1613 1.409 . S
C1607 H1599 0.930 . S
C1607 C1605 1.419 . S
C1607 C1608 1.362 . S
C1608 H1600 0.930 . S
C1608 C1607 1.362 . S
C1608 C1611 1.409 . S
C1609 H1601 0.930 . S
C1609 C1610 1.355 . S
C1609 C1611 1.415 . S
C1610 C1609 1.355 . S
C1610 C1612 1.419 . S
C1611 C1606 1.425 . S
C1611 C1608 1.409 . S
C1611 C1609 1.415 . S
C1612 H1602 0.930 . S
C1612 C1610 1.419 . S
C1612 C1613 1.362 . S
C1613 H1603 0.930 . S
C1613 C1606 1.409 . S
C1613 C1612 1.362 . S
H1614 C1620 0.930 . S
H1615 C1623 0.930 . S
H1616 C1624 0.930 . S
H1617 C1625 0.930 . S
H1618 C1628 0.930 . S
H1619 C1629 0.930 . S
C1620 H1614 0.930 . S
C1620 C1621 1.355 . S
C1620 C1622 1.415 . S
C1621 C1620 1.355 . S
C1621 C1623 1.419 . S
C1622 C1620 1.415 . S
C1622 C1627 1.425 . S
C1622 C1629 1.409 . S
C1623 H1615 0.930 . S
C1623 C1621 1.419 . S
C1623 C1624 1.362 . S
C1624 H1616 0.930 . S
C1624 C1623 1.362 . S
C1624 C1627 1.409 . S
C1625 H1617 0.930 . S
C1625 C1626 1.355 . S
C1625 C1627 1.415 . S
C1626 C1625 1.355 . S
C1626 C1628 1.419 . S
C1627 C1622 1.425 . S
C1627 C1624 1.409 . S
C1627 C1625 1.415 . S
C1628 H1618 0.930 . S
C1628 C1626 1.419 . S
C1628 C1629 1.362 . S
C1629 H1619 0.930 . S
C1629 C1622 1.409 . S
C1629 C1628 1.362 . S
H1630 C1636 0.930 . S
H1631 C1639 0.930 . S
H1632 C1640 0.930 . S
H1633 C1641 0.930 . S
H1634 C1644 0.930 . S
H1635 C1645 0.930 . S
C1636 H1630 0.930 . S
C1636 C1637 1.355 . S
C1636 C1638 1.415 . S
C1637 C1636 1.355 . S
C1637 C1639 1.419 . S
C1638 C1636 1.415 . S
C1638 C1643 1.425 . S
C1638 C1645 1.409 . S
C1639 H1631 0.930 . S
C1639 C1637 1.419 . S
C1639 C1640 1.362 . S
C1640 H1632 0.930 . S
C1640 C1639 1.362 . S
C1640 C1643 1.409 . S
C1641 H1633 0.930 . S
C1641 C1642 1.355 . S
C1641 C1643 1.415 . S
C1642 C1641 1.355 . S
C1642 C1644 1.419 . S
C1643 C1638 1.425 . S
C1643 C1640 1.409 . S
C1643 C1641 1.415 . S
C1644 H1634 0.930 . S
C1644 C1642 1.419 . S
C1644 C1645 1.362 . S
C1645 H1635 0.930 . S
C1645 C1638 1.409 . S
C1645 C1644 1.362 . S
H1646 C1652 0.930 . S
H1647 C1655 0.930 . S
H1648 C1656 0.930 . S
H1649 C1657 0.930 . S
H1650 C1660 0.930 . S
H1651 C1661 0.930 . S
C1652 H1646 0.930 . S
C1652 C1653 1.355 . S
C1652 C1654 1.415 . S
C1653 C1652 1.355 . S
C1653 C1655 1.419 . S
C1654 C1652 1.415 . S
C1654 C1659 1.425 . S
C1654 C1661 1.409 . S
C1655 H1647 0.930 . S
C1655 C1653 1.419 . S
C1655 C1656 1.362 . S
C1656 H1648 0.930 . S
C1656 C1655 1.362 . S
C1656 C1659 1.409 . S
C1657 H1649 0.930 . S
C1657 C1658 1.355 . S
C1657 C1659 1.415 . S
C1658 C1657 1.355 . S
C1658 C1660 1.419 . S
C1659 C1654 1.425 . S
C1659 C1656 1.409 . S
C1659 C1657 1.415 . S
C1660 H1650 0.930 . S
C1660 C1658 1.419 . S
C1660 C1661 1.362 . S
C1661 H1651 0.930 . S
C1661 C1654 1.409 . S
C1661 C1660 1.362 . S
H1662 C1668 0.930 . S
H1663 C1671 0.930 . S
H1664 C1672 0.930 . S
H1665 C1673 0.930 . S
H1666 C1676 0.930 . S
H1667 C1677 0.930 . S
C1668 H1662 0.930 . S
C1668 C1669 1.355 . S
C1668 C1670 1.415 . S
C1669 C1668 1.355 . S
C1669 C1671 1.419 1_655 S
C1670 C1668 1.415 . S
C1670 C1675 1.426 1_655 S
C1670 C1677 1.409 . S
C1671 H1663 0.930 . S
C1671 C1669 1.419 1_455 S
C1671 C1672 1.362 . S
C1672 H1664 0.930 . S
C1672 C1671 1.362 . S
C1672 C1675 1.409 . S
C1673 H1665 0.930 . S
C1673 C1674 1.355 1_455 S
C1673 C1675 1.414 . S
C1674 C1673 1.355 1_655 S
C1674 C1676 1.419 . S
C1675 C1670 1.426 1_455 S
C1675 C1672 1.409 . S
C1675 C1673 1.414 . S
C1676 H1666 0.930 . S
C1676 C1674 1.419 . S
C1676 C1677 1.362 . S
C1677 H1667 0.930 . S
C1677 C1670 1.409 . S
C1677 C1676 1.362 . S
H1678 C1684 0.930 . S
H1679 C1687 0.930 . S
H1680 C1688 0.930 . S
H1681 C1689 0.930 . S
H1682 C1692 0.930 . S
H1683 C1693 0.930 . S
C1684 H1678 0.930 . S
C1684 C1685 1.355 . S
C1684 C1686 1.415 . S
C1685 C1684 1.355 . S
C1685 C1687 1.419 . S
C1686 C1684 1.415 . S
C1686 C1691 1.425 . S
C1686 C1693 1.409 . S
C1687 H1679 0.930 . S
C1687 C1685 1.419 . S
C1687 C1688 1.362 . S
C1688 H1680 0.930 . S
C1688 C1687 1.362 . S
C1688 C1691 1.409 . S
C1689 H1681 0.930 . S
C1689 C1690 1.355 . S
C1689 C1691 1.415 . S
C1690 C1689 1.355 . S
C1690 C1692 1.419 . S
C1691 C1686 1.425 . S
C1691 C1688 1.409 . S
C1691 C1689 1.415 . S
C1692 H1682 0.930 . S
C1692 C1690 1.419 . S
C1692 C1693 1.362 . S
C1693 H1683 0.930 . S
C1693 C1686 1.409 . S
C1693 C1692 1.362 . S
H1694 C1700 0.930 . S
H1695 C1703 0.930 1_565 S
H1696 C1704 0.931 . S
H1697 C1705 0.930 1_565 S
H1698 C1708 0.930 . S
H1699 C1709 0.930 . S
C1700 H1694 0.930 . S
C1700 C1701 1.355 . S
C1700 C1702 1.415 . S
C1701 C1700 1.355 . S
C1701 C1703 1.419 . S
C1702 C1700 1.415 . S
C1702 C1707 1.425 . S
C1702 C1709 1.409 . S
C1703 H1695 0.930 1_545 S
C1703 C1701 1.419 . S
C1703 C1704 1.366 1_545 S
C1704 H1696 0.931 . S
C1704 C1703 1.366 1_565 S
C1704 C1707 1.404 1_565 S
C1705 H1697 0.930 1_545 S
C1705 C1706 1.355 . S
C1705 C1707 1.415 . S
C1706 C1705 1.355 . S
C1706 C1708 1.419 . S
C1707 C1702 1.425 . S
C1707 C1704 1.404 1_545 S
C1707 C1705 1.415 . S
C1708 H1698 0.930 . S
C1708 C1706 1.419 . S
C1708 C1709 1.362 . S
C1709 H1699 0.930 . S
C1709 C1702 1.409 . S
C1709 C1708 1.362 . S
C565 C10 1.627 . S
C570 C403 1.617 . S
C581 C23 1.623 . S
C586 C428 1.616 . S
C602 C439 1.601 . S
C597 C29 1.624 . S
C613 C30 1.611 . S
C618 C464 1.584 . S
C629 C5 1.639 . S
C634 C482 1.628 . S
C645 C18 1.607 . S
C650 C493 1.587 . S
C661 C49 1.601 . S
C666 C475 1.566 . S
C682 C500 1.570 . S
C677 C62 1.595 . S
C698 C457 1.572 . S
C693 C70 1.594 . S
C709 C75 1.618 . S
C714 C446 1.607 . S
C730 C410 1.621 . S
C725 C44 1.626 . S
C741 C57 1.593 . S
C746 C421 1.571 . S
C757 C88 1.631 . S
C762 C511 1.621 . S
C773 C101 1.612 . S
C778 C536 1.596 . S
C794 C547 1.605 . S
C789 C107 1.616 . S
C805 C108 1.627 . S
C810 C248 1.617 . S
C821 C83 1.618 . S
C826 C266 1.604 . S
C837 C96 1.623 . S
C842 C277 1.602 . S
C853 C127 1.618 . S
C858 C259 1.609 . S
C869 C140 1.600 . S
C874 C284 1.576 . S
C890 C241 1.572 . S
C885 C146 1.594 . S
C906 C554 1.599 . S
C901 C147 1.614 . S
C922 C518 1.584 . S
C917 C122 1.603 . S
C938 C529 1.590 . S
C933 C135 1.604 . S
C949 C160 1.630 . S
C954 C295 1.614 . S
C965 C173 1.624 . S
C970 C320 1.618 . S
C981 C185 1.607 . S
C986 C331 1.575 . S
C997 C186 1.630 . S
C1002 C356 1.624 . S
C1018 C374 1.616 . S
C1013 C159 1.629 . S
C1034 C385 1.619 . S
C1029 C172 1.626 . S
C1050 C367 1.590 . S
C1045 C205 1.608 . S
C1066 C392 1.604 . S
C1061 C218 1.613 . S
C1077 C224 1.615 . S
C1082 C349 1.608 . S
C1098 C338 1.577 . S
C1093 C225 1.601 . S
C1109 C200 1.606 . S
C1114 C302 1.594 . S
C1130 C313 1.586 . S
C1125 C213 1.603 . S
C1146 C250 1.470 . S
C1141 C4 1.510 . S
C1157 C17 1.508 . S
C1162 C268 1.416 . S
C1178 C278 1.470 . S
C1173 C31 1.500 . S
C1194 C296 1.464 . S
C1189 C36 1.506 . S
C1210 C322 1.429 . S
C1205 C3 1.519 . S
C1226 C332 1.399 . S
C1221 C16 1.498 . S
C1237 C43 1.499 . S
C1242 C340 1.468 . S
C1253 C56 1.490 . S
C1258 C304 1.425 . S
C1269 C68 1.502 . S
C1274 C314 1.408 . S
C1285 C69 1.501 . S
C1290 C260 1.472 . S
C1306 C286 1.405 . S
C1301 C42 1.517 . S
C1317 C55 1.503 . S
C1322 C242 1.472 . S
C1338 C358 1.408 . S
C1333 C82 1.512 . S
C1349 C95 1.487 . S
C1354 C376 1.382 . S
C1365 C109 1.503 . S
C1370 C386 1.475 . S
C1386 C404 1.453 . S
C1381 C114 1.487 . S
C1397 C81 1.503 . S
C1402 C430 1.455 . S
C1413 C94 1.513 . S
C1418 C440 1.418 . S
C1429 C121 1.497 . S
C1434 C448 1.467 1_545 S
C1445 C134 1.489 . S
C1450 C412 1.427 . S
C1466 C422 1.392 . S
C1461 C148 1.507 . S
C1477 C153 1.495 . S
C1482 C368 1.400 . S
C1493 C120 1.518 . S
C1498 C394 1.418 . S
C1514 C350 1.474 . S
C1509 C133 1.503 . S
C1530 C466 1.461 . S
C1525 C166 1.497 . S
C1541 C179 1.482 . S
C1546 C484 1.418 . S
C1557 C187 1.515 . S
C1562 C494 1.434 . S
C1578 C512 1.388 . S
C1573 C192 1.495 . S
C1594 C538 1.473 . S
C1589 C161 1.509 . S
C1605 C174 1.499 . S
C1610 C548 1.469 . S
C1621 C199 1.506 . S
C1626 C556 1.469 . S
C1637 C212 1.489 . S
C1642 C520 1.437 . S
C1658 C530 1.396 . S
C1653 C226 1.510 . S
C1674 C476 1.370 1_655 S
C1669 C231 1.505 . S
C1690 C502 1.400 . S
C1685 C198 1.517 . S
C1701 C211 1.511 . S
C1706 C458 1.404 . S
