# Generated by pormake.
# Topology zzz, (3,6)-cn, num edge types: 1
# Building blocks:
#     Node 0, Type 0, BuildingBlock: PAMTOO_clean_linker_0, # of connection points: 3
#     Node 1, Type 0, BuildingBlock: PAMTOO_clean_linker_0, # of connection points: 3
#     Node 2, Type 0, BuildingBlock: PAMTOO_clean_linker_0, # of connection points: 3
#     Node 3, Type 0, BuildingBlock: PAMTOO_clean_linker_0, # of connection points: 3
#     Node 4, Type 0, BuildingBlock: PAMTOO_clean_linker_0, # of connection points: 3
#     Node 5, Type 0, BuildingBlock: PAMTOO_clean_linker_0, # of connection points: 3
#     Node 6, Type 0, BuildingBlock: PAMTOO_clean_linker_0, # of connection points: 3
#     Node 7, Type 0, BuildingBlock: PAMTOO_clean_linker_0, # of connection points: 3
#     Node 8, Type 1, BuildingBlock: PAMTOO_clean_sbu_0, # of connection points: 6
#     Node 9, Type 1, BuildingBlock: PAMTOO_clean_sbu_0, # of connection points: 6
#     Node 10, Type 1, BuildingBlock: PAMTOO_clean_sbu_0, # of connection points: 6
#     Node 11, Type 1, BuildingBlock: PAMTOO_clean_sbu_0, # of connection points: 6
#     Edge 12, Type (0, 1), None
#     Edge 13, Type (0, 1), None
#     Edge 14, Type (0, 1), None
#     Edge 15, Type (0, 1), None
#     Edge 16, Type (0, 1), None
#     Edge 17, Type (0, 1), None
#     Edge 18, Type (0, 1), None
#     Edge 19, Type (0, 1), None
#     Edge 20, Type (0, 1), None
#     Edge 21, Type (0, 1), None
#     Edge 22, Type (0, 1), None
#     Edge 23, Type (0, 1), None
#     Edge 24, Type (0, 1), None
#     Edge 25, Type (0, 1), None
#     Edge 26, Type (0, 1), None
#     Edge 27, Type (0, 1), None
#     Edge 28, Type (0, 1), None
#     Edge 29, Type (0, 1), None
#     Edge 30, Type (0, 1), None
#     Edge 31, Type (0, 1), None
#     Edge 32, Type (0, 1), None
#     Edge 33, Type (0, 1), None
#     Edge 34, Type (0, 1), None
#     Edge 35, Type (0, 1), None
# Relax obj value: 0.503
# Max RMSD: 0.297
# Mean RMSD: 0.137
data_MOF--net-zzz--node1-PAMTOO_clean_sbu_0--node2-PAMTOO_clean_linker_0--edge1-none
_symmetry_space_group_name_H-M    P1
_symmetry_Int_Tables_number       1
_symmetry_cell_setting            triclinic
loop_
_symmetry_equiv_pos_as_xyz
'x, y, z'
_cell_length_a     25.476715
_cell_length_b     20.039465
_cell_length_c     8.0483283
_cell_angle_alpha  92.602221
_cell_angle_beta   71.131001
_cell_angle_gamma 89.772882
loop_
_atom_site_label
_atom_site_type_symbol
_atom_site_fract_x
_atom_site_fract_y
_atom_site_fract_z
_atom_type_partial_charge
H0 H 0.97809 0.48205 0.77242 0.0
H1 H 0.85762 0.59096 0.62796 0.0
H2 H 0.97066 0.69715 0.83686 0.0
H3 H 0.8165 0.71669 0.78455 0.0
C4 C 0.84706 0.72803 0.65558 0.0
O5 O 0.89998 0.70544 0.64613 0.0
H6 H 0.8484 0.7833 0.65056 0.0
C7 C 0.95707 0.5293 0.77388 0.0
C8 C 0.9772 0.58858 0.83254 0.0
C9 C 0.91498 0.53048 0.69627 0.0
C10 C 0.8895 0.59081 0.6889 0.0
C11 C 0.91088 0.65102 0.72695 0.0
C12 C 0.95315 0.65051 0.80892 0.0
H13 H 0.22761 0.87072 0.58582 0.0
H14 H 0.17416 0.73814 0.23902 0.0
H15 H 1.05602 0.81889 0.71434 0.0
H16 H 1.08367 0.64585 0.54942 0.0
C17 C 1.06497 0.66383 0.45247 0.0
O18 O 1.0736 0.73224 0.42977 0.0
H19 H 1.02006 0.65643 0.50425 0.0
C20 C 0.1958 0.84163 0.55645 0.0
C21 C 0.14105 0.85127 0.66872 0.0
C22 C 0.20896 0.80154 0.39882 0.0
C23 C 0.16587 0.76792 0.35994 0.0
C24 C 1.11213 0.76897 0.47728 0.0
C25 C 1.09872 0.81316 0.63002 0.0
H26 H 0.75838 0.1223 0.6176 0.0
H27 H 0.92795 0.08329 0.305 0.0
H28 H 0.84179 0.94476 0.69382 0.0
H29 H 1.00347 0.93778 0.51949 0.0
C30 C 0.99216 0.98233 0.46026 0.0
O31 O 0.94055 0.97126 0.43487 0.0
H32 H 0.98814 1.02525 0.55434 0.0
C33 C 0.79591 0.09186 0.58968 0.0
C34 C 0.79259 1.03226 0.67416 0.0
C35 C 0.8442 0.11047 0.45862 0.0
C36 C 0.89204 0.07014 0.41313 0.0
C37 C 0.89328 1.01133 0.49922 0.0
C38 C 0.84263 0.99161 0.63132 0.0
H39 H 0.56382 0.59447 0.52156 0.0
H40 H 0.58127 0.76436 0.21268 0.0
H41 H 0.6456 0.76964 0.6469 0.0
H42 H 0.56656 0.91375 0.46516 0.0
C43 C 0.59792 0.89367 0.34549 0.0
O44 O 0.63083 0.84247 0.38075 0.0
H45 H 0.57327 0.8719 0.26675 0.0
C46 C 0.57523 0.64639 0.50499 0.0
C47 C 0.60532 0.67675 0.6051 0.0
C48 C 0.56625 0.67786 0.36668 0.0
C49 C 0.58474 0.74315 0.33013 0.0
C50 C 0.61161 0.77913 0.43142 0.0
C51 C 0.62276 0.74473 0.57054 0.0
H52 H 0.30581 0.56479 0.89248 0.0
H53 H 0.37251 0.5267 0.302 0.0
H54 H 0.26077 0.38802 0.18889 0.0
H55 H 0.37028 0.32665 0.38497 0.0
C56 C 0.37825 0.38108 0.37748 0.0
O57 O 0.32984 0.41377 0.37758 0.0
H58 H 0.41216 0.38682 0.2511 0.0
C59 C 0.31238 0.52991 0.98317 0.0
C60 C 0.27547 0.47664 0.03385 0.0
C61 C 0.33784 0.55519 0.10329 0.0
C62 C 0.35076 0.50997 0.21266 0.0
C63 C 0.32509 0.44837 0.24047 0.0
C64 C 0.28585 0.43185 0.15319 0.0
H65 H 1.02244 0.17818 0.40165 0.0
H66 H 1.05858 0.34669 0.69573 0.0
H67 H 0.18257 0.26727 0.22668 0.0
H68 H 0.19326 0.44593 0.39762 0.0
C69 C 0.15504 0.4275 0.49027 0.0
O70 O 0.15939 0.35858 0.49871 0.0
H71 H 0.12016 0.44151 0.44423 0.0
C72 C 1.0494 0.2184 0.41448 0.0
C73 C 1.10255 0.21912 0.29091 0.0
C74 C 1.03345 0.26265 0.56432 0.0
C75 C 1.07027 0.31178 0.58262 0.0
C76 C 0.12351 0.31475 0.46137 0.0
C77 C 0.14025 0.26773 0.31521 0.0
H78 H 0.49301 1.014 0.50985 0.0
H79 H 0.31657 0.99304 0.67842 0.0
H80 H 0.39643 0.11371 0.23947 0.0
H81 H 0.23437 0.133 0.45948 0.0
C82 C 0.25347 0.11176 0.55194 0.0
O83 O 0.29669 0.06784 0.45374 0.0
H84 H 0.27118 0.15387 0.61002 0.0
C85 C 0.45334 1.02859 0.4977 0.0
C86 C 0.45251 0.06939 0.36264 0.0
C87 C 0.40511 0.99992 0.60648 0.0
C88 C 0.35326 1.01683 0.59596 0.0
C89 C 0.34851 0.06055 0.47092 0.0
C90 C 0.39892 0.08498 0.34742 0.0
H91 H 0.66222 0.50098 0.51938 0.0
H92 H 0.65999 0.32118 0.78846 0.0
H93 H 0.58949 0.32315 0.36847 0.0
H94 H 0.5488 0.18806 0.65331 0.0
C95 C 0.5773 0.20921 0.72038 0.0
O96 O 0.61879 0.24405 0.5974 0.0
H97 H 0.55207 0.24467 0.82689 0.0
C98 C 0.65295 0.44824 0.53001 0.0
C99 C 0.62414 0.41791 0.42632 0.0
C100 C 0.66532 0.41437 0.65973 0.0
C101 C 0.65084 0.34701 0.6852 0.0
C102 C 0.6236 0.31255 0.58301 0.0
C103 C 0.60945 0.34883 0.45234 0.0
Dy104 Dy 1.07796 0.05421 0.91467 0.0
Dy105 Dy 0.17123 1.01096 0.06707 0.0
C106 C 0.20737 0.0795 0.70037 0.0
O107 O 1.08503 0.94391 0.84472 0.0
O108 O 0.1715 0.92891 0.86233 0.0
O109 O 1.0403 0.10049 0.74478 0.0
O110 O 0.99083 1.04016 0.95527 0.0
O111 O 1.09007 0.96826 0.25107 0.0
O112 O 1.03428 0.04757 0.20214 0.0
O113 O 0.14125 0.10829 0.21645 0.0
O114 O 1.09724 0.15181 0.03723 0.0
O115 O 0.20747 0.97206 0.25241 0.0
O116 O 0.25981 1.01206 0.01171 0.0
C117 C 0.13054 0.90785 0.80726 0.0
O118 O 0.15905 0.06257 0.6831 0.0
O119 O 0.21194 0.08148 0.85748 0.0
C120 C 0.95043 0.1388 0.90354 0.0
C121 C 0.98345 0.24811 0.71519 0.0
C122 C 0.9893 0.24711 0.88344 0.0
C123 C 0.96943 0.19242 0.9848 0.0
C124 C 0.92297 0.15409 0.7856 0.0
C125 C 0.94103 0.20913 0.68462 0.0
C126 C 0.99036 0.08347 0.84061 0.0
C127 C 1.04016 0.99726 0.29164 0.0
C128 C 0.11896 0.15943 0.16552 0.0
C129 C 0.29347 0.91976 0.11242 0.0
C130 C 0.26575 0.80251 0.26386 0.0
C131 C 0.2673 0.80613 0.0879 0.0
C132 C 0.27954 0.86778 0.01257 0.0
C133 C 0.31704 0.90281 0.24011 0.0
C134 C 0.30619 0.83984 0.30931 0.0
C135 C 0.25833 0.97972 0.14874 0.0
H136 H 1.01863 0.27826 0.91981 0.0
H137 H 0.98449 0.18395 0.09368 0.0
H138 H 0.90051 0.11587 0.73963 0.0
H139 H 0.93109 0.21126 0.56397 0.0
H140 H 0.24632 0.77041 0.02804 0.0
H141 H 0.26656 0.87812 0.90061 0.0
H142 H 0.33339 0.94068 0.3084 0.0
H143 H 0.31507 0.83104 0.42943 0.0
Dy144 Dy 0.60333 0.99703 0.90932 0.0
Dy145 Dy 0.64204 0.10302 0.1297 0.0
C146 C 0.59856 0.1515 0.80689 0.0
O147 O 0.69409 1.00312 0.73917 0.0
O148 O 0.7218 0.04742 0.9612 0.0
O149 O 0.5847 0.93196 0.71913 0.0
O150 O 0.5566 0.90762 0.99149 0.0
O151 O 0.61589 1.01422 0.30477 0.0
O152 O 0.64717 0.94493 0.07058 0.0
O153 O 0.55 0.10343 0.28785 0.0
O154 O 0.52278 0.0501 0.07558 0.0
O155 O 0.66793 0.14281 0.34353 0.0
O156 O 0.67774 0.20125 0.11693 0.0
C157 C 0.73487 1.01912 0.80139 0.0
O158 O 0.59473 0.08807 0.75774 0.0
O159 O 0.61169 0.16622 0.94957 0.0
C160 C 0.49324 0.89375 0.83801 0.0
C161 C 0.4123 0.94837 0.72087 0.0
C162 C 0.4151 0.96957 0.88552 0.0
C163 C 0.45468 0.94069 0.94674 0.0
C164 C 0.48072 0.86136 0.69821 0.0
C165 C 0.43997 0.88885 0.63892 0.0
C166 C 0.55115 0.89552 0.83769 0.0
C167 C 0.6288 0.95237 0.24147 0.0
C168 C 0.50967 0.08156 0.23064 0.0
C169 C 0.74891 0.20414 0.24303 0.0
C170 C 0.83727 0.16153 0.34188 0.0
C171 C 0.83173 0.13644 0.18318 0.0
C172 C 0.7881 0.15912 0.13127 0.0
C173 C 0.76284 0.24088 0.37439 0.0
C174 C 0.80867 0.22093 0.42032 0.0
C175 C 0.69039 0.19525 0.25962 0.0
H176 H 0.39286 1.01428 0.95362 0.0
H177 H 0.45969 0.96148 0.06654 0.0
H178 H 0.50742 0.82183 0.61948 0.0
H179 H 0.43737 0.87094 0.51275 0.0
H180 H 0.85333 0.09081 0.11919 0.0
H181 H 0.78021 0.13361 0.0212 0.0
H182 H 0.73479 0.27834 0.45655 0.0
H183 H 0.81352 0.24233 0.54052 0.0
Dy184 Dy 0.67647 0.58538 0.01432 0.0
Dy185 Dy 0.5565 0.50668 0.00942 0.0
C186 C 0.61469 0.46136 0.28915 0.0
O187 O 0.70015 0.51112 0.78199 0.0
O188 O 0.63498 0.44827 0.95083 0.0
O189 O 0.70154 0.66982 0.14468 0.0
O190 O 0.76414 0.5987 0.98894 0.0
O191 O 0.57923 0.58458 0.7989 0.0
O192 O 0.65766 0.64307 0.80201 0.0
O193 O 0.53221 0.57969 0.24452 0.0
O194 O 0.59746 0.64238 0.07612 0.0
O195 O 0.53259 0.42482 0.86626 0.0
O196 O 0.46939 0.4912 0.03957 0.0
C197 C 0.6743 0.45396 0.80444 0.0
O198 O 0.65149 0.50952 0.23091 0.0
O199 O 0.57337 0.45033 0.22547 0.0
C200 C 0.78264 0.66186 0.22975 0.0
C201 C 0.82818 0.70012 0.5024 0.0
C202 C 0.78197 0.65808 0.53433 0.0
C203 C 0.75965 0.63902 0.40039 0.0
C204 C 0.82983 0.70221 0.19586 0.0
C205 C 0.8524 0.72087 0.32979 0.0
C206 C 0.75391 0.65245 0.09424 0.0
C207 C 0.61566 0.63296 0.74078 0.0
C208 C 0.5584 0.6365 0.22283 0.0
C209 C 0.44876 0.43401 0.79586 0.0
C210 C 0.39827 0.40517 0.53064 0.0
C211 C 0.43889 0.45472 0.50927 0.0
C212 C 0.46394 0.46881 0.63978 0.0
C213 C 0.40668 0.38657 0.82013 0.0
C214 C 0.38148 0.37277 0.69049 0.0
C215 C 0.47978 0.44018 0.92547 0.0
H216 H 0.76251 0.64083 0.66491 0.0
H217 H 0.72319 0.60832 0.43177 0.0
H218 H 0.84801 0.72181 0.06703 0.0
H219 H 0.88754 0.75372 0.30003 0.0
H220 H 0.45311 0.4805 0.38802 0.0
H221 H 0.49661 0.50505 0.61586 0.0
H222 H 0.39454 0.35819 0.93753 0.0
H223 H 0.35058 0.33429 0.71187 0.0
Dy224 Dy 0.15372 0.60098 0.87998 0.0
Dy225 Dy 1.08991 0.47381 0.07462 0.0
C226 C 0.14687 0.46505 0.66305 0.0
O227 O 1.0658 0.62492 0.87949 0.0
O228 O 1.03249 0.52096 0.95291 0.0
O229 O 0.16723 0.69203 0.73999 0.0
O230 O 0.23379 0.64766 0.81108 0.0
O231 O 1.06024 0.56325 0.26964 0.0
O232 O 0.12985 0.63684 0.15948 0.0
O233 O 0.17375 0.46401 0.11342 0.0
O234 O 0.21821 0.52143 0.87302 0.0
O235 O 1.05408 0.41052 0.29149 0.0
O236 O 1.0419 0.38848 0.04233 0.0
C237 C 1.02653 0.58024 0.89785 0.0
O238 O 0.14494 0.53068 0.66611 0.0
O239 O 0.1403 0.43313 0.8067 0.0
C240 C 0.25453 0.67743 0.52263 0.0
C241 C 0.31705 0.62125 0.1926 0.0
C242 C 0.2595 0.63146 0.23613 0.0
C243 C 0.22882 0.65108 0.40571 0.0
C244 C 0.31262 0.68196 0.46635 0.0
C245 C 0.34407 0.65347 0.30117 0.0
C246 C 0.22082 0.68784 0.70772 0.0
C247 C 1.08581 0.61961 0.28429 0.0
C248 C 0.22042 0.48312 -0.00046 0.0
C249 C 0.96409 0.38629 0.29688 0.0
C250 C 0.91069 0.47491 0.57346 0.0
C251 C 0.91392 0.48969 0.40025 0.0
C252 C 0.93934 0.44403 0.26181 0.0
C253 C 0.94318 0.36323 0.46568 0.0
C254 C 0.91902 0.4084 0.6074 0.0
C255 C 1.02437 0.37848 0.20967 0.0
H256 H 0.23638 0.61135 0.15467 0.0
H257 H 0.18452 0.64385 0.44575 0.0
H258 H 0.33351 0.70117 0.55574 0.0
H259 H 0.38858 0.64799 0.27011 0.0
H260 H 0.90553 0.53939 0.36651 0.0
H261 H 0.94933 0.46009 0.12898 0.0
H262 H 0.95493 0.31464 0.48788 0.0
H263 H 0.91344 0.39368 0.7398 0.0
loop_
_geom_bond_atom_site_label_1
_geom_bond_atom_site_label_2
_geom_bond_distance
_geom_bond_site_symmetry_2
_ccdc_geom_bond_type
H0 C7 0.929 . S
H1 C10 0.930 . S
H2 C12 0.929 . S
H3 C4 0.969 . S
C4 H3 0.969 . S
C4 O5 1.550 1_556 S
C4 H6 0.973 . S
O5 C4 1.550 1_554 S
O5 C11 1.412 . S
H6 C4 0.973 . S
C7 H0 0.929 . S
C7 C8 1.400 . S
C7 C9 1.364 1_554 S
C8 C7 1.400 . S
C8 C12 1.377 . S
C9 C7 1.364 1_556 S
C9 C10 1.374 . S
C10 H1 0.930 . S
C10 C9 1.374 . S
C10 C11 1.383 1_556 S
C11 O5 1.412 . S
C11 C10 1.383 1_554 S
C11 C12 1.394 . S
C12 H2 0.929 . S
C12 C8 1.377 . S
C12 C11 1.394 . S
H13 C20 0.930 1_655 S
H14 C23 0.933 . S
H15 C25 0.932 1_654 S
H16 C17 0.969 . S
C17 H16 0.969 . S
C17 O18 1.550 1_455 S
C17 H19 0.973 1_455 S
O18 C17 1.550 1_655 S
O18 C24 1.412 1_655 S
H19 C17 0.973 1_655 S
C20 H13 0.930 1_455 S
C20 C21 1.397 . S
C20 C22 1.365 . S
C21 C20 1.397 . S
C21 C25 1.375 . S
C22 C20 1.365 . S
C22 C23 1.372 1_455 S
C23 H14 0.933 . S
C23 C22 1.372 1_655 S
C23 C24 1.381 1_655 S
C24 O18 1.412 1_455 S
C24 C23 1.381 1_455 S
C24 C25 1.394 . S
C25 H15 0.932 1_456 S
C25 C21 1.375 . S
C25 C24 1.394 . S
H26 C33 0.927 1_565 S
H27 C36 0.929 . S
H28 C38 0.928 1_565 S
H29 C30 0.969 . S
C30 H29 0.969 . S
C30 O31 1.550 1_545 S
C30 H32 0.973 1_545 S
O31 C30 1.550 1_565 S
O31 C37 1.412 1_565 S
H32 C30 0.973 1_565 S
C33 H26 0.927 1_545 S
C33 C34 1.401 . S
C33 C35 1.363 . S
C34 C33 1.401 . S
C34 C38 1.379 . S
C35 C33 1.363 . S
C35 C36 1.376 1_545 S
C36 H27 0.929 . S
C36 C35 1.376 1_565 S
C36 C37 1.383 1_565 S
C37 O31 1.412 1_545 S
C37 C36 1.383 1_545 S
C37 C38 1.395 . S
C38 H28 0.928 1_545 S
C38 C34 1.379 . S
C38 C37 1.395 . S
H39 C46 0.929 . S
H40 C49 0.930 . S
H41 C51 0.929 . S
H42 C43 0.969 . S
C43 H42 0.969 . S
C43 O44 1.550 . S
C43 H45 0.973 . S
O44 C43 1.550 . S
O44 C50 1.412 . S
H45 C43 0.973 . S
C46 H39 0.929 . S
C46 C47 1.400 . S
C46 C48 1.364 . S
C47 C46 1.400 . S
C47 C51 1.377 . S
C48 C46 1.364 . S
C48 C49 1.374 . S
C49 H40 0.930 . S
C49 C48 1.374 . S
C49 C50 1.383 . S
C50 O44 1.412 . S
C50 C49 1.383 . S
C50 C51 1.394 . S
C51 H41 0.929 . S
C51 C47 1.377 . S
C51 C50 1.394 . S
H52 C59 0.929 . S
H53 C62 0.930 . S
H54 C64 0.929 . S
H55 C56 0.969 . S
C56 H55 0.969 . S
C56 O57 1.550 1_554 S
C56 H58 0.973 . S
O57 C56 1.550 1_556 S
O57 C63 1.412 . S
H58 C56 0.973 . S
C59 H52 0.929 . S
C59 C60 1.400 . S
C59 C61 1.364 1_556 S
C60 C59 1.400 . S
C60 C64 1.377 . S
C61 C59 1.364 1_554 S
C61 C62 1.374 . S
C62 H53 0.930 . S
C62 C61 1.374 . S
C62 C63 1.383 1_554 S
C63 O57 1.412 . S
C63 C62 1.383 1_556 S
C63 C64 1.394 . S
C64 H54 0.929 . S
C64 C60 1.377 . S
C64 C63 1.394 . S
H65 C72 0.927 1_655 S
H66 C75 0.930 . S
H67 C77 0.925 1_656 S
H68 C69 0.969 . S
C69 H68 0.969 . S
C69 O70 1.550 1_455 S
C69 H71 0.973 1_455 S
O70 C69 1.550 1_655 S
O70 C76 1.412 1_655 S
H71 C69 0.973 1_655 S
C72 H65 0.927 1_455 S
C72 C73 1.402 . S
C72 C74 1.362 . S
C73 C72 1.402 . S
C73 C77 1.379 . S
C74 C72 1.362 . S
C74 C75 1.376 1_455 S
C75 H66 0.930 . S
C75 C74 1.376 1_655 S
C75 C76 1.383 1_655 S
C76 O70 1.412 1_455 S
C76 C75 1.383 1_455 S
C76 C77 1.397 . S
C77 H67 0.925 1_454 S
C77 C73 1.379 . S
C77 C76 1.397 . S
H78 C85 0.930 1_565 S
H79 C88 0.931 . S
H80 C90 0.930 1_565 S
H81 C82 0.969 . S
C82 H81 0.969 . S
C82 O83 1.550 1_545 S
C82 H84 0.973 1_545 S
O83 C82 1.550 1_565 S
O83 C89 1.412 1_565 S
H84 C82 0.973 1_565 S
C85 H78 0.930 1_545 S
C85 C86 1.400 . S
C85 C87 1.365 . S
C86 C85 1.400 . S
C86 C90 1.378 . S
C87 C85 1.365 . S
C87 C88 1.372 1_545 S
C88 H79 0.931 . S
C88 C87 1.372 1_565 S
C88 C89 1.383 1_565 S
C89 O83 1.412 1_545 S
C89 C88 1.383 1_545 S
C89 C90 1.393 . S
C90 H80 0.930 1_545 S
C90 C86 1.378 . S
C90 C89 1.393 . S
H91 C98 0.929 . S
H92 C101 0.930 . S
H93 C103 0.929 . S
H94 C95 0.969 . S
C95 H94 0.969 . S
C95 O96 1.550 . S
C95 H97 0.973 . S
O96 C95 1.550 . S
O96 C102 1.412 . S
H97 C95 0.973 . S
C98 H91 0.929 . S
C98 C99 1.400 . S
C98 C100 1.364 . S
C99 C98 1.400 . S
C99 C103 1.377 . S
C100 C98 1.364 . S
C100 C101 1.374 . S
C101 H92 0.930 . S
C101 C100 1.374 . S
C101 C102 1.383 . S
C102 O96 1.412 . S
C102 C101 1.383 . S
C102 C103 1.394 . S
C103 H93 0.929 . S
C103 C99 1.377 . S
C103 C102 1.394 . S
Dy104 O107 2.307 1_545 S
Dy104 O109 2.395 1_655 S
Dy104 O110 2.379 . S
Dy104 O112 2.339 1_556 S
Dy104 O114 2.298 1_556 S
Dy104 O118 2.275 1_655 S
Dy104 C126 2.738 . S
Dy105 O108 2.298 1_554 S
Dy105 O111 2.278 1_455 S
Dy105 O113 2.307 1_565 S
Dy105 O115 2.395 1_455 S
Dy105 O116 2.379 . S
Dy105 O119 2.339 1_554 S
Dy105 C135 2.738 . S
C106 O118 1.254 1_565 S
C106 O119 1.257 . S
O107 Dy104 2.307 1_565 S
O107 C117 1.266 . S
O108 Dy105 2.298 1_556 S
O108 C117 1.236 1_455 S
O109 Dy104 2.395 1_455 S
O109 C126 1.255 1_455 S
O110 Dy104 2.379 . S
O110 C126 1.249 . S
O111 Dy105 2.278 1_655 S
O111 C127 1.252 1_565 S
O112 Dy104 2.339 1_554 S
O112 C127 1.257 . S
O113 Dy105 2.307 1_545 S
O113 C128 1.266 . S
O114 Dy104 2.298 1_554 S
O114 C128 1.236 1_655 S
O115 Dy105 2.395 1_655 S
O115 C135 1.255 1_655 S
O116 Dy105 2.379 . S
O116 C135 1.249 . S
C117 O107 1.266 . S
C117 O108 1.236 1_655 S
O118 Dy104 2.275 1_455 S
O118 C106 1.254 1_545 S
O119 Dy105 2.339 1_556 S
O119 C106 1.257 . S
C120 C123 1.344 1_655 S
C120 C124 1.328 . S
C120 C126 1.516 . S
C121 C122 1.304 1_655 S
C121 C125 1.323 . S
C122 C121 1.304 1_455 S
C122 C123 1.371 . S
C122 H136 0.930 . S
C123 C120 1.344 1_455 S
C123 C122 1.371 . S
C123 H137 0.931 . S
C124 C120 1.328 . S
C124 C125 1.433 . S
C124 H138 0.931 . S
C125 C121 1.323 . S
C125 C124 1.433 . S
C125 H139 0.933 . S
C126 Dy104 2.738 . S
C126 O109 1.255 1_655 S
C126 O110 1.249 . S
C126 C120 1.516 . S
C127 O111 1.252 1_545 S
C127 O112 1.257 . S
C128 O113 1.266 . S
C128 O114 1.236 1_455 S
C129 C132 1.344 1_455 S
C129 C133 1.328 . S
C129 C135 1.516 . S
C130 C131 1.304 1_455 S
C130 C134 1.323 . S
C131 C130 1.304 1_655 S
C131 C132 1.371 . S
C131 H140 0.930 . S
C132 C129 1.344 1_655 S
C132 C131 1.371 . S
C132 H141 0.931 . S
C133 C129 1.328 . S
C133 C134 1.433 . S
C133 H142 0.931 . S
C134 C130 1.323 . S
C134 C133 1.433 . S
C134 H143 0.933 . S
C135 Dy105 2.738 . S
C135 O115 1.255 1_455 S
C135 O116 1.249 . S
C135 C129 1.516 . S
H136 C122 0.930 . S
H137 C123 0.931 . S
H138 C124 0.931 . S
H139 C125 0.933 . S
H140 C131 0.930 . S
H141 C132 0.931 . S
H142 C133 0.931 . S
H143 C134 0.933 . S
Dy144 O147 2.307 . S
Dy144 O149 2.395 . S
Dy144 O150 2.379 . S
Dy144 O152 2.339 . S
Dy144 O154 2.298 1_556 S
Dy144 O158 2.275 1_565 S
Dy144 C166 2.738 . S
Dy145 O148 2.298 1_554 S
Dy145 O151 2.275 1_545 S
Dy145 O153 2.307 . S
Dy145 O155 2.395 . S
Dy145 O156 2.379 . S
Dy145 O159 2.339 . S
Dy145 C175 2.738 . S
C146 O158 1.254 . S
C146 O159 1.257 1_556 S
O147 Dy144 2.307 . S
O147 C157 1.266 . S
O148 Dy145 2.298 1_556 S
O148 C157 1.236 1_545 S
O149 Dy144 2.395 . S
O149 C166 1.255 . S
O150 Dy144 2.379 . S
O150 C166 1.249 . S
O151 Dy145 2.275 1_565 S
O151 C167 1.254 . S
O152 Dy144 2.339 . S
O152 C167 1.257 1_556 S
O153 Dy145 2.307 . S
O153 C168 1.266 . S
O154 Dy144 2.298 1_554 S
O154 C168 1.236 1_565 S
O155 Dy145 2.395 . S
O155 C175 1.255 . S
O156 Dy145 2.379 . S
O156 C175 1.249 . S
C157 O147 1.266 . S
C157 O148 1.236 1_565 S
O158 Dy144 2.275 1_545 S
O158 C146 1.254 . S
O159 Dy145 2.339 . S
O159 C146 1.257 1_554 S
C160 C163 1.344 . S
C160 C164 1.328 . S
C160 C166 1.516 . S
C161 C162 1.304 . S
C161 C165 1.323 . S
C162 C161 1.304 . S
C162 C163 1.371 . S
C162 H176 0.930 1_565 S
C163 C160 1.344 . S
C163 C162 1.371 . S
C163 H177 0.931 1_565 S
C164 C160 1.328 . S
C164 C165 1.433 . S
C164 H178 0.931 . S
C165 C161 1.323 . S
C165 C164 1.433 . S
C165 H179 0.933 . S
C166 Dy144 2.738 . S
C166 O149 1.255 . S
C166 O150 1.249 . S
C166 C160 1.516 . S
C167 O151 1.254 . S
C167 O152 1.257 1_554 S
C168 O153 1.266 . S
C168 O154 1.236 1_545 S
C169 C172 1.344 . S
C169 C173 1.328 . S
C169 C175 1.516 . S
C170 C171 1.304 . S
C170 C174 1.323 . S
C171 C170 1.304 . S
C171 C172 1.371 . S
C171 H180 0.930 1_545 S
C172 C169 1.344 . S
C172 C171 1.371 . S
C172 H181 0.931 1_545 S
C173 C169 1.328 . S
C173 C174 1.433 . S
C173 H182 0.931 . S
C174 C170 1.323 . S
C174 C173 1.433 . S
C174 H183 0.933 . S
C175 Dy145 2.738 . S
C175 O155 1.255 . S
C175 O156 1.249 . S
C175 C169 1.516 . S
H176 C162 0.930 1_545 S
H177 C163 0.931 1_545 S
H178 C164 0.931 . S
H179 C165 0.933 . S
H180 C171 0.930 1_565 S
H181 C172 0.931 1_565 S
H182 C173 0.931 . S
H183 C174 0.933 . S
Dy184 O187 2.307 . S
Dy184 O189 2.395 1_556 S
Dy184 O190 2.379 1_556 S
Dy184 O192 2.339 . S
Dy184 O194 2.298 1_556 S
Dy184 O198 2.275 1_556 S
Dy184 C206 2.738 1_556 S
Dy185 O188 2.298 1_554 S
Dy185 O191 2.275 1_554 S
Dy185 O193 2.307 . S
Dy185 O195 2.395 1_554 S
Dy185 O196 2.379 1_554 S
Dy185 O199 2.339 . S
Dy185 C215 2.738 1_554 S
C186 O198 1.254 . S
C186 O199 1.257 . S
O187 Dy184 2.307 . S
O187 C197 1.266 . S
O188 Dy185 2.298 1_556 S
O188 C197 1.236 . S
O189 Dy184 2.395 1_554 S
O189 C206 1.255 . S
O190 Dy184 2.379 1_554 S
O190 C206 1.249 . S
O191 Dy185 2.275 1_556 S
O191 C207 1.254 . S
O192 Dy184 2.339 . S
O192 C207 1.257 . S
O193 Dy185 2.307 . S
O193 C208 1.266 . S
O194 Dy184 2.298 1_554 S
O194 C208 1.236 . S
O195 Dy185 2.395 1_556 S
O195 C215 1.255 . S
O196 Dy185 2.379 1_556 S
O196 C215 1.249 . S
C197 O187 1.266 . S
C197 O188 1.236 . S
O198 Dy184 2.275 1_554 S
O198 C186 1.254 . S
O199 Dy185 2.339 . S
O199 C186 1.257 . S
C200 C203 1.344 . S
C200 C204 1.328 . S
C200 C206 1.516 . S
C201 C202 1.304 . S
C201 C205 1.323 . S
C202 C201 1.304 . S
C202 C203 1.371 . S
C202 H216 0.930 . S
C203 C200 1.344 . S
C203 C202 1.371 . S
C203 H217 0.931 . S
C204 C200 1.328 . S
C204 C205 1.433 . S
C204 H218 0.931 . S
C205 C201 1.323 . S
C205 C204 1.433 . S
C205 H219 0.933 . S
C206 Dy184 2.738 1_554 S
C206 O189 1.255 . S
C206 O190 1.249 . S
C206 C200 1.516 . S
C207 O191 1.254 . S
C207 O192 1.257 . S
C208 O193 1.266 . S
C208 O194 1.236 . S
C209 C212 1.344 . S
C209 C213 1.328 . S
C209 C215 1.516 . S
C210 C211 1.304 . S
C210 C214 1.323 . S
C211 C210 1.304 . S
C211 C212 1.371 . S
C211 H220 0.930 . S
C212 C209 1.344 . S
C212 C211 1.371 . S
C212 H221 0.931 . S
C213 C209 1.328 . S
C213 C214 1.433 . S
C213 H222 0.931 . S
C214 C210 1.323 . S
C214 C213 1.433 . S
C214 H223 0.933 . S
C215 Dy185 2.738 1_556 S
C215 O195 1.255 . S
C215 O196 1.249 . S
C215 C209 1.516 . S
H216 C202 0.930 . S
H217 C203 0.931 . S
H218 C204 0.931 . S
H219 C205 0.933 . S
H220 C211 0.930 . S
H221 C212 0.931 . S
H222 C213 0.931 . S
H223 C214 0.933 . S
Dy224 O227 2.307 1_455 S
Dy224 O229 2.395 . S
Dy224 O230 2.379 . S
Dy224 O232 2.339 1_556 S
Dy224 O234 2.298 . S
Dy224 O238 2.275 . S
Dy224 C246 2.738 . S
Dy225 O228 2.298 . S
Dy225 O231 2.275 . S
Dy225 O233 2.307 1_655 S
Dy225 O235 2.395 . S
Dy225 O236 2.379 . S
Dy225 O239 2.339 1_554 S
Dy225 C255 2.738 . S
C226 O238 1.245 1_655 S
C226 O239 1.265 . S
O227 Dy224 2.307 1_655 S
O227 C237 1.266 1_556 S
O228 Dy225 2.298 . S
O228 C237 1.236 . S
O229 Dy224 2.395 . S
O229 C246 1.255 . S
O230 Dy224 2.379 . S
O230 C246 1.249 . S
O231 Dy225 2.275 . S
O231 C247 1.254 1_655 S
O232 Dy224 2.339 1_554 S
O232 C247 1.257 . S
O233 Dy225 2.307 1_455 S
O233 C248 1.266 1_554 S
O234 Dy224 2.298 . S
O234 C248 1.236 . S
O235 Dy225 2.395 . S
O235 C255 1.255 . S
O236 Dy225 2.379 . S
O236 C255 1.249 . S
C237 O227 1.266 1_554 S
C237 O228 1.236 . S
O238 Dy224 2.275 . S
O238 C226 1.245 1_455 S
O239 Dy225 2.339 1_556 S
O239 C226 1.265 . S
C240 C243 1.344 . S
C240 C244 1.328 . S
C240 C246 1.516 . S
C241 C242 1.304 . S
C241 C245 1.323 . S
C242 C241 1.304 . S
C242 C243 1.371 . S
C242 H256 0.930 . S
C243 C240 1.344 . S
C243 C242 1.371 . S
C243 H257 0.931 . S
C244 C240 1.328 . S
C244 C245 1.433 . S
C244 H258 0.931 . S
C245 C241 1.323 . S
C245 C244 1.433 . S
C245 H259 0.933 . S
C246 Dy224 2.738 . S
C246 O229 1.255 . S
C246 O230 1.249 . S
C246 C240 1.516 . S
C247 O231 1.254 1_455 S
C247 O232 1.257 . S
C248 O233 1.266 1_556 S
C248 O234 1.236 . S
C249 C252 1.344 . S
C249 C253 1.328 . S
C249 C255 1.516 . S
C250 C251 1.304 . S
C250 C254 1.323 . S
C251 C250 1.304 . S
C251 C252 1.371 . S
C251 H260 0.930 . S
C252 C249 1.344 . S
C252 C251 1.371 . S
C252 H261 0.931 . S
C253 C249 1.328 . S
C253 C254 1.433 . S
C253 H262 0.931 . S
C254 C250 1.323 . S
C254 C253 1.433 . S
C254 H263 0.933 . S
C255 Dy225 2.738 . S
C255 O235 1.255 . S
C255 O236 1.249 . S
C255 C249 1.516 . S
H256 C242 0.930 . S
H257 C243 0.931 . S
H258 C244 0.931 . S
H259 C245 0.933 . S
H260 C251 0.930 . S
H261 C252 0.931 . S
H262 C253 0.931 . S
H263 C254 0.933 . S
C82 C106 3.004 1_545 S
C146 C95 2.597 . S
C210 C56 3.428 . S
C226 C69 3.363 1_655 S
C127 C30 2.980 . S
C43 C167 2.526 . S
C4 C201 3.375 . S
C17 C247 3.354 . S
C121 C74 1.038 1_655 S
C161 C87 1.767 1_565 S
C197 C100 1.465 . S
C61 C241 2.948 . S
C22 C130 1.039 . S
C170 C35 1.766 . S
C208 C48 1.452 . S
C9 C250 2.926 . S
C73 C128 3.227 . S
C86 C168 3.525 . S
C186 C99 2.492 . S
C248 C60 4.013 . S
C21 C117 3.231 1_455 S
C157 C34 3.525 1_565 S
C207 C47 2.496 . S
C8 C237 4.019 . S
