# Generated by pormake.
# Topology pth, (4,4)-cn, num edge types: 1
# Building blocks:
#     Node 0, Type 0, BuildingBlock: UXUYUI_clean_sbu_0, # of connection points: 4
#     Node 1, Type 0, BuildingBlock: UXUYUI_clean_sbu_0, # of connection points: 4
#     Node 2, Type 0, BuildingBlock: UXUYUI_clean_sbu_0, # of connection points: 4
#     Node 3, Type 1, BuildingBlock: MIFKUJ_clean_linker_1, # of connection points: 4
#     Node 4, Type 1, BuildingBlock: MIFKUJ_clean_linker_1, # of connection points: 4
#     Node 5, Type 1, BuildingBlock: MIFKUJ_clean_linker_1, # of connection points: 4
#     Edge 6, Type (0, 1), BuildingBlock: MIFKUJ_clean_linker_0, # of connection points: 2
#     Edge 7, Type (0, 1), BuildingBlock: MIFKUJ_clean_linker_0, # of connection points: 2
#     Edge 8, Type (0, 1), BuildingBlock: MIFKUJ_clean_linker_0, # of connection points: 2
#     Edge 9, Type (0, 1), BuildingBlock: MIFKUJ_clean_linker_0, # of connection points: 2
#     Edge 10, Type (0, 1), BuildingBlock: MIFKUJ_clean_linker_0, # of connection points: 2
#     Edge 11, Type (0, 1), BuildingBlock: MIFKUJ_clean_linker_0, # of connection points: 2
#     Edge 12, Type (0, 1), BuildingBlock: MIFKUJ_clean_linker_0, # of connection points: 2
#     Edge 13, Type (0, 1), BuildingBlock: MIFKUJ_clean_linker_0, # of connection points: 2
#     Edge 14, Type (0, 1), BuildingBlock: MIFKUJ_clean_linker_0, # of connection points: 2
#     Edge 15, Type (0, 1), BuildingBlock: MIFKUJ_clean_linker_0, # of connection points: 2
#     Edge 16, Type (0, 1), BuildingBlock: MIFKUJ_clean_linker_0, # of connection points: 2
#     Edge 17, Type (0, 1), BuildingBlock: MIFKUJ_clean_linker_0, # of connection points: 2
# Relax obj value: 0.075
# Max RMSD: 0.209
# Mean RMSD: 0.121
data_MOF--net-pth--node1-UXUYUI_clean_sbu_0--node2-MIFKUJ_clean_linker_1--edge1-MIFKUJ_clean_linker_0
_symmetry_space_group_name_H-M    P1
_symmetry_Int_Tables_number       1
_symmetry_cell_setting            triclinic
loop_
_symmetry_equiv_pos_as_xyz
'x, y, z'
_cell_length_a     42.434083
_cell_length_b     42.4497
_cell_length_c     91.552774
_cell_angle_alpha  90.039165
_cell_angle_beta   89.968285
_cell_angle_gamma 120.00949
loop_
_atom_site_label
_atom_site_type_symbol
_atom_site_fract_x
_atom_site_fract_y
_atom_site_fract_z
_atom_type_partial_charge
Li0 Li 0.03188 0.02276 0.0333 0.0
Li1 Li 0.9904 0.02308 0.05151 0.0
Li2 Li 0.00744 0.97415 0.05171 0.0
Li3 Li 0.96553 0.97413 0.03324 0.0
C4 C 0.07531 0.04718 0.05768 0.0
N5 N 0.1492 0.08713 0.06319 0.0
C6 C 0.09119 0.08343 0.06218 0.0
C7 C 0.09693 0.03109 0.05626 0.0
C8 C 0.12862 0.10323 0.06483 0.0
C9 C 0.13424 0.05175 0.05903 0.0
C10 C 0.97308 0.04877 0.02708 0.0
C11 C 0.92058 0.0561 0.02427 0.0
N12 N 0.9429 0.09206 0.02141 0.0
C13 C 0.99546 0.08567 0.02388 0.0
C14 C 0.93531 0.03375 0.02708 0.0
C15 C 0.97971 0.10716 0.02115 0.0
C16 C 0.0814 0.04172 0.00951 0.0
N17 N 0.07187 0.05436 0.02138 0.0
C18 C 0.11624 0.1156 0.01549 0.0
C19 C 0.08869 0.09046 0.02452 0.0
C20 C 0.12646 0.10347 0.00306 0.0
C21 C 0.10904 0.06595 0.00021 0.0
H22 H 0.06686 0.01298 0.00703 0.0
H23 H 0.07996 0.09982 0.03382 0.0
C24 C 0.95853 0.04316 0.07458 0.0
N25 N 0.98278 0.05536 0.06336 0.0
C26 C 0.95583 0.06788 0.08384 0.0
C27 C 0.00331 0.1171 0.0699 0.0
C28 C 0.00489 0.09149 0.06087 0.0
C29 C 0.9788 0.10539 0.08165 0.0
H30 H 0.94205 0.01432 0.07661 0.0
H31 H 0.02452 0.10042 0.05209 0.0
C32 C 0.02041 0.94538 0.02624 0.0
N33 N 0.04236 0.89641 0.01835 0.0
C34 C 0.99481 0.91034 0.02162 0.0
C35 C 0.05727 0.95571 0.02655 0.0
C36 C 0.00641 0.88592 0.01777 0.0
C37 C 0.06781 0.93052 0.0226 0.0
C38 C 0.92371 0.94733 0.05878 0.0
C39 C 0.91318 0.91322 0.06482 0.0
C40 C 0.89787 0.95823 0.05696 0.0
C41 C 0.87677 0.89027 0.06863 0.0
C42 C 0.86173 0.93452 0.06091 0.0
N43 N 0.852 0.90128 0.06659 0.0
C44 C 0.03522 0.95559 0.07637 0.0
C45 C -0.00107 0.90676 0.06039 0.0
C46 C 0.03876 0.93195 0.08596 0.0
N47 N 0.0156 0.94266 0.06387 0.0
C48 C 0.00173 0.8822 0.06964 0.0
C49 C 0.0215 0.89463 0.08271 0.0
H50 H 0.04733 0.9841 0.0791 0.0
H51 H 0.98232 0.89692 0.0507 0.0
C52 C 0.92181 0.95514 0.0079 0.0
N53 N 0.92577 0.94279 0.02107 0.0
C54 C 0.89508 0.93154 0.99813 0.0
C55 C 0.87688 0.8831 0.01576 0.0
C56 C 0.90394 0.90758 0.02514 0.0
C57 C 0.87253 0.89482 0.00195 0.0
H58 H 0.94012 0.98309 0.0048 0.0
H59 H 0.90844 0.89807 0.03542 0.0
O60 O 0.03873 0.02744 0.05491 0.0
O61 O 0.98804 0.02733 0.02986 0.0
O62 O 0.00947 0.96965 0.03004 0.0
O63 O 0.95925 0.97005 0.05491 0.0
H64 H 0.07488 0.09625 0.06354 0.0
H65 H 0.08498 0.00282 0.05322 0.0
H66 H 0.14128 0.13139 0.06821 0.0
H67 H 0.15127 0.03962 0.05792 0.0
H68 H 0.89139 0.04483 0.0243 0.0
H69 H 0.0247 0.09769 0.0236 0.0
H70 H 0.91751 0.00508 0.02908 0.0
H71 H 0.99675 0.13582 0.01879 0.0
H72 H 0.12913 0.14429 0.01812 0.0
H73 H 0.11576 0.05557 0.9906 0.0
H74 H 0.93696 0.05779 0.09293 0.0
H75 H 0.02135 0.14579 0.06779 0.0
H76 H 0.96624 0.90196 0.02113 0.0
H77 H 0.07762 0.98302 0.02961 0.0
H78 H 0.98682 0.85862 0.0143 0.0
H79 H 0.09624 0.93816 0.02284 0.0
H80 H 0.93283 0.90446 0.06647 0.0
H81 H 0.90568 0.98488 0.05272 0.0
H82 H 0.86822 0.86371 0.07321 0.0
H83 H 0.84145 0.9426 0.05952 0.0
H84 H 0.05373 0.94258 0.09605 0.0
H85 H 0.98812 0.8537 0.06666 0.0
H86 H 0.89304 0.9416 0.98751 0.0
H87 H 0.85995 0.85513 0.0192 0.0
Li88 Li 0.98572 0.96447 0.36647 0.0
Li89 Li 0.02787 0.00421 0.38575 0.0
Li90 Li 0.96396 0.98476 0.38595 0.0
Li91 Li 0.00269 0.02909 0.36726 0.0
C92 C 0.96665 0.93193 0.3987 0.0
N93 N 0.92482 0.88946 0.42171 0.0
C94 C 0.97933 0.94099 0.41304 0.0
C95 C 0.93287 0.90101 0.39606 0.0
C96 C 0.95774 0.91923 0.42452 0.0
C97 C 0.91207 0.87996 0.40784 0.0
C98 C 0.06331 0.01156 0.35654 0.0
C99 C 0.11787 0.0473 0.34241 0.0
N100 N 0.12162 0.0175 0.34078 0.0
C101 C 0.06771 0.98129 0.35471 0.0
C102 C 0.08856 0.04484 0.35033 0.0
C103 C 0.09737 0.98484 0.34672 0.0
C104 C 0.98011 0.93333 0.33862 0.0
N105 N 0.97794 0.92682 0.35323 0.0
C106 C 0.97137 0.86827 0.3492 0.0
C107 C 0.9734 0.89502 0.35865 0.0
C108 C 0.97375 0.87433 0.33407 0.0
C109 C 0.9776 0.90708 0.32876 0.0
H110 H 0.98471 0.95929 0.33466 0.0
H111 H 0.97254 0.89091 0.37032 0.0
C112 C 0.07185 0.02954 0.41102 0.0
N113 N 0.0689 0.01453 0.3976 0.0
C114 C 0.09989 0.03476 0.42047 0.0
C115 C 0.12171 0.00954 0.40203 0.0
C116 C 0.09312 0.00457 0.393 0.0
C117 C 0.12511 0.02445 0.41603 0.0
H118 H 0.05181 0.03652 0.41457 0.0
H119 H 0.08972 0.99178 0.38251 0.0
C120 C 0.93061 0.96653 0.35381 0.0
N121 N 0.88582 0.92704 0.33088 0.0
C122 C 0.93209 0.98369 0.3406 0.0
C123 C 0.90589 0.92939 0.35542 0.0
C124 C 0.90933 0.96325 0.32912 0.0
C125 C 0.88362 0.90986 0.34369 0.0
C126 C 0.03121 0.06984 0.39275 0.0
C127 C 0.02372 0.08871 0.40343 0.0
C128 C 0.06508 0.08669 0.3858 0.0
C129 C 0.05029 0.12428 0.40696 0.0
C130 C 0.09092 0.12228 0.38964 0.0
N131 N 0.08305 0.14019 0.40005 0.0
C132 C 0.93318 0.98712 0.41266 0.0
C133 C 0.88998 0.95678 0.39385 0.0
C134 C 0.90577 0.98309 0.42221 0.0
N135 N 0.92485 0.97424 0.39878 0.0
C136 C 0.86172 0.95231 0.40301 0.0
C137 C 0.86956 0.96604 0.41733 0.0
H138 H 0.96128 0.00136 0.41619 0.0
H139 H 0.88419 0.94719 0.38272 0.0
C140 C 0.02061 0.07037 0.34147 0.0
N141 N 0.01149 0.06976 0.35573 0.0
C142 C 0.02372 0.09797 0.33225 0.0
C143 C 0.00963 0.12468 0.35276 0.0
C144 C 0.00614 0.0962 0.36151 0.0
C145 C 0.01776 0.12546 0.33782 0.0
H146 H 0.02404 0.04857 0.33713 0.0
H147 H -0.00165 0.09479 0.37283 0.0
O148 O 0.98701 0.95342 0.38734 0.0
O149 O 0.03404 0.00856 0.36408 0.0
O150 O 0.95299 0.98606 0.36513 0.0
O151 O 0.00538 0.03499 0.38922 0.0
H152 H 0.00537 0.96476 0.4153 0.0
H153 H 0.92274 0.89338 0.38505 0.0
H154 H 0.96713 0.92609 0.43568 0.0
H155 H 0.88579 0.85609 0.40595 0.0
H156 H 0.13761 0.07291 0.33756 0.0
H157 H 0.04879 0.95543 0.3596 0.0
H158 H 0.0856 0.06858 0.35159 0.0
H159 H 0.10116 0.96165 0.34527 0.0
H160 H 0.96838 0.84329 0.35366 0.0
H161 H 0.98004 0.91286 0.31716 0.0
H162 H 0.10162 0.04642 0.43117 0.0
H163 H 0.14018 0.00059 0.3983 0.0
H164 H 0.95051 0.01249 0.33921 0.0
H165 H 0.90422 0.91568 0.36557 0.0
H166 H 0.91034 0.97617 0.31881 0.0
H167 H 0.86464 0.88103 0.34476 0.0
H168 H 0.99763 0.07599 0.40892 0.0
H169 H 0.07143 0.07244 0.3776 0.0
H170 H 0.04486 0.13923 0.4152 0.0
H171 H 0.11725 0.13564 0.38435 0.0
H172 H 0.91305 0.99453 0.43309 0.0
H173 H 0.83412 0.93878 0.39886 0.0
H174 H 0.02935 0.09689 0.32079 0.0
H175 H 0.00543 0.14552 0.35766 0.0
Li176 Li 0.02278 0.99116 0.69939 0.0
Li177 Li 0.02282 0.03299 0.71768 0.0
Li178 Li 0.97477 0.96684 0.71835 0.0
Li179 Li 0.9742 0.00843 0.70012 0.0
C180 C 0.04662 0.97278 0.72578 0.0
N181 N 0.08333 0.93862 0.73589 0.0
C182 C 0.08173 0.99326 0.73152 0.0
C183 C 0.02994 0.93485 0.7255 0.0
C184 C 0.09992 0.97552 0.73648 0.0
C185 C 0.04899 0.9181 0.73058 0.0
C186 C 0.05402 0.07459 0.6942 0.0
C187 C 0.07591 0.13904 0.6954 0.0
N188 N 0.10935 0.14581 0.691 0.0
C189 C 0.08849 0.08217 0.68954 0.0
C190 C 0.04755 0.10323 0.697 0.0
C191 C 0.11614 0.11835 0.68805 0.0
C192 C 0.04104 0.96817 0.67342 0.0
N193 N 0.05312 0.98187 0.687 0.0
C194 C 0.11082 0.98706 0.68214 0.0
C195 C 0.08727 0.99138 0.69146 0.0
C196 C 0.09921 0.97307 0.66802 0.0
C197 C 0.0637 0.96334 0.66372 0.0
H198 H 0.01397 0.96149 0.67005 0.0
H199 H 0.09673 0.00357 0.70207 0.0
C200 C 0.04137 0.08726 0.73949 0.0
N201 N 0.05463 0.07361 0.7293 0.0
C202 C 0.06523 0.11617 0.7484 0.0
C203 C 0.11574 0.11647 0.73603 0.0
C204 C 0.09097 0.08754 0.72744 0.0
C205 C 0.10298 0.13103 0.74675 0.0
H206 H 0.01231 0.07538 0.74084 0.0
H207 H 0.10072 0.07574 0.71942 0.0
C208 C 0.95196 0.92465 0.69196 0.0
N209 N 0.91722 0.85371 0.6819 0.0
C210 C 0.91719 0.90932 0.68582 0.0
C211 C 0.96931 0.90407 0.69268 0.0
C212 C 0.89999 0.87336 0.68089 0.0
C213 C 0.95125 0.86823 0.68762 0.0
C214 C 0.94252 0.01813 0.72354 0.0
C215 C 0.90797 0.9907 0.72786 0.0
C216 C 0.94865 0.05322 0.721 0.0
C217 C 0.87992 -0.00131 0.72927 0.0
C218 C 0.91989 0.06012 0.72252 0.0
N219 N 0.88639 0.03293 0.72657 0.0
C220 C 0.95652 0.92576 0.74434 0.0
C221 C 0.91091 0.90178 0.72605 0.0
C222 C 0.93395 0.89811 0.75399 0.0
N223 N 0.94469 0.927 0.73067 0.0
C224 C 0.88747 0.8737 0.73531 0.0
C225 C 0.8988 0.87174 0.74952 0.0
H226 H 0.98331 0.94658 0.74781 0.0
H227 H 0.90161 0.90418 0.71536 0.0
C228 C 0.95473 0.04415 0.67866 0.0
N229 N 0.94196 0.01666 0.68857 0.0
C230 C 0.93049 0.04872 0.6698 0.0
C231 C 0.88061 0.9968 0.68164 0.0
C232 C 0.90575 0.99317 0.69019 0.0
C233 C 0.89288 0.02472 0.67121 0.0
H234 H 0.98371 0.0622 0.67749 0.0
H235 H 0.89642 0.97121 0.698 0.0
O236 O 0.02839 0.98981 0.72094 0.0
O237 O 0.02673 0.03932 0.69592 0.0
O238 O 0.96918 0.95993 0.6968 0.0
O239 O 0.9702 0.01069 0.72188 0.0
H240 H 0.09493 0.02257 0.73206 0.0
H241 H 0.00237 0.9184 0.72163 0.0
H242 H 0.12721 0.99109 0.74082 0.0
H243 H 0.03638 0.88877 0.73038 0.0
H244 H 0.07133 0.16146 0.69763 0.0
H245 H 0.09394 0.0604 0.68719 0.0
H246 H 0.02096 0.09788 0.70042 0.0
H247 H 0.14301 0.12461 0.68455 0.0
H248 H 0.13826 0.99578 0.68578 0.0
H249 H 0.0536 0.95234 0.65295 0.0
H250 H 0.05429 0.12673 0.7565 0.0
H251 H 0.14457 0.12663 0.73457 0.0
H252 H 0.9035 0.92492 0.68494 0.0
H253 H 0.99666 0.91577 0.69687 0.0
H254 H 0.87298 0.8611 0.67624 0.0
H255 H 0.96439 0.85202 0.68815 0.0
H256 H 0.90277 0.96348 0.72999 0.0
H257 H 0.97529 0.07487 0.71785 0.0
H258 H 0.85298 0.97765 0.7325 0.0
H259 H 0.92422 0.0871 0.72049 0.0
H260 H 0.94381 0.89751 0.76483 0.0
H261 H 0.8603 0.85449 0.73153 0.0
H262 H 0.94105 0.0707 0.66193 0.0
H263 H 0.85192 0.97729 0.68291 0.0
H264 H 0.04705 0.47377 0.18135 0.0
H265 H 0.04296 0.42404 0.16647 0.0
H266 H 0.94358 0.34865 0.18877 0.0
H267 H 0.94683 0.39869 0.20302 0.0
H268 H 0.00517 0.5021 0.18265 0.0
H269 H 0.04981 0.45348 0.21875 0.0
H270 H 0.05283 0.40746 0.23367 0.0
H271 H 0.94432 0.37211 0.24985 0.0
H272 H 0.94244 0.41951 0.23539 0.0
H273 H 0.93777 0.52031 0.23253 0.0
H274 H 0.93439 0.56812 0.24629 0.0
H275 H 0.04564 0.64453 0.23449 0.0
H276 H 0.04878 0.59665 0.22065 0.0
H277 H 0.98929 0.49489 0.23649 0.0
H278 H 0.95164 0.55248 0.20012 0.0
H279 H 0.95751 0.60438 0.18629 0.0
H280 H 0.06207 0.62574 0.17006 0.0
H281 H 0.05655 0.57453 0.18433 0.0
C282 C 0.99748 0.43995 0.19342 0.0
C283 C 0.02438 0.44652 0.18301 0.0
C284 C 0.02216 0.41799 0.1746 0.0
C285 C 0.99296 0.38231 0.17644 0.0
C286 C 0.9662 0.37582 0.18695 0.0
C287 C 0.96831 0.40437 0.19527 0.0
C288 C -0.00109 0.47039 0.20195 0.0
C289 C 0.0023 0.50075 0.19445 0.0
C290 C 0.99492 0.46867 0.21731 0.0
C291 C 0.99589 0.43978 0.22598 0.0
C292 C 0.02668 0.43569 0.2255 0.0
C293 C 0.02822 0.40916 0.23397 0.0
C294 C -0.00121 0.3859 0.24299 0.0
C295 C 0.96778 0.3899 0.24327 0.0
C296 C 0.96651 0.41682 0.23495 0.0
C297 C 0.99347 0.55508 0.22558 0.0
C298 C 0.9614 0.54737 0.23293 0.0
C299 C 0.95943 0.57468 0.24068 0.0
C300 C 0.98974 0.60994 0.2414 0.0
C301 C 0.02197 0.61749 0.23415 0.0
C302 C 0.02376 0.59029 0.22623 0.0
C303 C 0.99514 0.52623 0.21716 0.0
C304 C 0.9923 0.4962 0.2247 0.0
C305 C 0.00063 0.52878 0.20188 0.0
C306 C 0.00384 0.55992 0.19337 0.0
C307 C 0.97599 0.5686 0.1937 0.0
C308 C 0.97923 0.59805 0.18568 0.0
C309 C 0.01029 0.6192 0.17709 0.0
C310 C 0.03806 0.6103 0.17673 0.0
C311 C 0.0348 0.58087 0.18477 0.0
H312 H 0.57423 0.04983 0.514 0.0
H313 H 0.62023 0.04536 0.49946 0.0
H314 H 0.59341 0.94478 0.52132 0.0
H315 H 0.54766 0.94949 0.53585 0.0
H316 H 0.50322 0.00738 0.51522 0.0
H317 H 0.59949 0.05031 0.54876 0.0
H318 H 0.64878 0.05407 0.56381 0.0
H319 H 0.57195 0.9562 0.58651 0.0
H320 H 0.52272 0.95226 0.57129 0.0
H321 H 0.42416 0.94283 0.56742 0.0
H322 H 0.37304 0.93703 0.58183 0.0
H323 H 0.3931 0.04099 0.56553 0.0
H324 H 0.44433 0.04665 0.55113 0.0
H325 H 0.49559 0.99447 0.56914 0.0
H326 H 0.39951 0.95349 0.5321 0.0
H327 H 0.35395 0.95843 0.51744 0.0
H328 H 0.43674 0.06471 0.5026 0.0
H329 H 0.48211 0.05933 0.51711 0.0
C330 C 0.55774 0.00018 0.5261 0.0
C331 C 0.57833 0.02686 0.51566 0.0
C332 C 0.6045 0.02421 0.50734 0.0
C333 C 0.61045 0.99471 0.50925 0.0
C334 C 0.58989 0.96812 0.51975 0.0
C335 C 0.5637 0.97077 0.52805 0.0
C336 C 0.5291 0.00227 0.53461 0.0
C337 C 0.50186 0.00505 0.52704 0.0
C338 C 0.52732 -0.00067 0.55001 0.0
C339 C 0.55742 0.0008 0.55879 0.0
C340 C 0.59331 0.02931 0.55681 0.0
C341 C 0.62146 0.03147 0.56542 0.0
C342 C 0.61418 0.00544 0.57633 0.0
C343 C 0.57828 0.97686 0.57828 0.0
C344 C 0.55017 0.97456 0.56959 0.0
C345 C 0.43788 0.99504 0.55814 0.0
C346 C 0.41755 0.96438 0.56696 0.0
C347 C 0.38842 0.96114 0.57521 0.0
C348 C 0.3791 0.98858 0.57482 0.0
C349 C 0.39935 0.0192 0.5659 0.0
C350 C 0.42863 0.02249 0.55769 0.0
C351 C 0.46922 0.99834 0.54972 0.0
C352 C 0.49706 0.99675 0.55733 0.0
C353 C 0.47204 0.00332 0.5344 0.0
C354 C 0.44412 0.00614 0.52573 0.0
C355 C 0.40772 0.97792 0.52575 0.0
C356 C 0.38172 0.98085 0.51741 0.0
C357 C 0.39173 0.01198 0.50885 0.0
C358 C 0.42823 0.04017 0.5089 0.0
C359 C 0.45417 0.0372 0.51722 0.0
H360 H 0.47415 0.4272 0.8456 0.0
H361 H 0.42399 0.38302 0.83044 0.0
H362 H 0.34892 0.40383 0.85468 0.0
H363 H 0.3992 0.44839 0.86968 0.0
H364 H 0.50212 0.49615 0.8483 0.0
H365 H 0.44839 0.39759 0.8805 0.0
H366 H 0.40195 0.34707 0.89467 0.0
H367 H 0.38395 0.42264 0.92002 0.0
H368 H 0.42894 0.47283 0.90521 0.0
H369 H 0.51962 0.57484 0.90028 0.0
H370 H 0.56656 0.62609 0.9142 0.0
H371 H 0.64712 0.60012 0.89872 0.0
H372 H 0.59987 0.54853 0.88498 0.0
H373 H 0.49767 0.50026 0.90237 0.0
H374 H 0.55391 0.59862 0.86616 0.0
H375 H 0.60491 0.64431 0.85173 0.0
H376 H 0.62604 0.56083 0.83567 0.0
H377 H 0.57484 0.51537 0.84998 0.0
C378 C 0.44045 0.44095 0.85886 0.0
C379 C 0.4469 0.42227 0.84765 0.0
C380 C 0.41826 0.3971 0.83899 0.0
C381 C 0.38259 0.39005 0.84138 0.0
C382 C 0.37607 0.40841 0.85271 0.0
C383 C 0.40478 0.43382 0.86129 0.0
C384 C 0.4712 0.46902 0.86758 0.0
C385 C 0.50125 0.49665 0.86014 0.0
C386 C 0.47032 0.46975 0.88303 0.0
C387 C 0.44184 0.43902 0.89163 0.0
C388 C 0.43399 0.40324 0.88894 0.0
C389 C 0.40775 0.37438 0.8972 0.0
C390 C 0.38918 0.38073 0.90851 0.0
C391 C 0.39726 0.41664 0.91125 0.0
C392 C 0.42328 0.44546 0.90288 0.0
C393 C 0.55636 0.55808 0.89156 0.0
C394 C 0.54739 0.58016 0.89994 0.0
C395 C 0.57425 0.60957 0.90777 0.0
C396 C 0.61051 0.61718 0.90749 0.0
C397 C 0.61935 0.59475 0.89921 0.0
C398 C 0.59249 0.56544 0.8913 0.0
C399 C 0.52777 0.52752 0.88304 0.0
C400 C 0.49825 0.49946 0.89054 0.0
C401 C 0.52968 0.52567 0.86769 0.0
C402 C 0.56076 0.55368 0.85918 0.0
C403 C 0.56974 0.59029 0.85961 0.0
C404 C 0.59894 0.61635 0.85139 0.0
C405 C 0.61952 0.60618 0.84255 0.0
C406 C 0.61044 0.56947 0.8422 0.0
C407 C 0.58127 0.54348 0.8504 0.0
H408 H 0.91968 0.10688 0.09281 0.0
H409 H 0.91974 0.15184 0.10967 0.0
H410 H 0.0371 0.20913 0.11047 0.0
H411 H 0.03724 0.1642 0.09378 0.0
H412 H 0.00655 0.20013 0.13804 0.0
H413 H 0.99503 0.24113 0.09018 0.0
H414 H 0.96666 0.23451 0.06603 0.0
H415 H 0.86651 0.21193 0.08658 0.0
H416 H 0.89416 0.2179 0.11087 0.0
H417 H 0.04771 0.37006 0.1677 0.0
H418 H 0.04281 0.32107 0.15215 0.0
H419 H 0.92663 0.27634 0.14927 0.0
H420 H 0.93153 0.32626 0.16422 0.0
H421 H 0.9532 0.27605 0.12337 0.0
H422 H 0.96415 0.2374 0.17113 0.0
H423 H 0.99119 0.24299 0.1955 0.0
H424 H 0.09001 0.25913 0.17576 0.0
H425 H 0.06374 0.25416 0.15126 0.0
C426 C 0.94545 0.12897 0.09666 0.0
C427 C 0.97846 0.13222 0.09191 0.0
C428 C 0.94545 0.15468 0.10621 0.0
C429 C 0.97845 0.1839 0.11122 0.0
C430 C 0.01138 0.1868 0.1067 0.0
C431 C 0.0114 0.16132 0.09708 0.0
C432 C 0.97885 0.2118 0.12104 0.0
C433 C 0.99521 0.21701 0.13481 0.0
C434 C 0.96313 0.23301 0.11693 0.0
C435 C 0.94654 0.22956 0.10234 0.0
C436 C 0.96686 0.23444 0.08955 0.0
C437 C 0.95094 0.23086 0.07584 0.0
C438 C 0.91477 0.2227 0.07477 0.0
C439 C 0.8945 0.21819 0.08742 0.0
C440 C 0.91029 0.22169 0.10117 0.0
C441 C 0.02115 0.35 0.16366 0.0
C442 C 0.99001 0.35206 0.16725 0.0
C443 C 0.01832 0.32174 0.15491 0.0
C444 C 0.98426 0.29471 0.14972 0.0
C445 C 0.95316 0.29679 0.15321 0.0
C446 C 0.95598 0.32516 0.16189 0.0
C447 C 0.98121 0.26471 0.1404 0.0
C448 C 0.96434 0.25907 0.1267 0.0
C449 C 0.99622 0.24289 0.14463 0.0
C450 C 0.01207 0.24573 0.15935 0.0
C451 C 0.99174 0.24241 0.17198 0.0
C452 C 0.00692 0.24543 0.18582 0.0
C453 C 0.04232 0.25149 0.18718 0.0
C454 C 0.0626 0.25447 0.17469 0.0
C455 C 0.04756 0.25152 0.16083 0.0
H456 H 0.05402 0.25382 0.1979 0.0
H457 H 0.90249 0.21995 0.06415 0.0
H458 H 0.85796 0.94928 0.44644 0.0
H459 H 0.81288 0.95199 0.46232 0.0
H460 H 0.77098 0.98295 0.42548 0.0
H461 H 0.81631 0.98095 0.40963 0.0
H462 H 0.78396 0.02722 0.449 0.0
H463 H 0.72337 0.89888 0.43925 0.0
H464 H 0.71743 0.83811 0.43811 0.0
H465 H 0.73431 0.84053 0.48443 0.0
H466 H 0.74087 0.90158 0.48582 0.0
H467 H 0.62232 0.00715 0.47994 0.0
H468 H 0.66631 0.00092 0.46481 0.0
H469 H 0.70309 0.96755 0.50256 0.0
H470 H 0.65921 0.97393 0.51782 0.0
H471 H 0.69371 0.92452 0.47919 0.0
H472 H 0.75383 0.05226 0.48912 0.0
H473 H 0.76012 0.11316 0.49044 0.0
H474 H 0.74505 0.11226 0.44403 0.0
H475 H 0.73814 0.05109 0.44246 0.0
C476 C 0.83905 0.95655 0.44174 0.0
C477 C 0.84062 0.96484 0.42679 0.0
C478 C 0.81319 0.95785 0.45078 0.0
C479 C 0.78852 0.96751 0.44504 0.0
C480 C 0.78976 0.97538 0.43011 0.0
C481 C 0.81545 0.97391 0.42105 0.0
C482 C 0.76233 0.97088 0.45469 0.0
C483 C 0.76388 0.00463 0.45545 0.0
C484 C 0.73693 0.94168 0.46342 0.0
C485 C 0.733 0.90497 0.46261 0.0
C486 C 0.72615 0.8866 0.44918 0.0
C487 C 0.7226 0.85207 0.44849 0.0
C488 C 0.7256 0.83551 0.46118 0.0
C489 C 0.73206 0.85341 0.4746 0.0
C490 C 0.73566 0.88797 0.47535 0.0
C491 C 0.64005 -0.0011 0.48506 0.0
C492 C 0.63743 0.99124 0.5001 0.0
C493 C 0.6651 0.99524 0.47639 0.0
C494 C 0.6882 0.98413 0.48259 0.0
C495 C 0.68546 0.97612 0.49756 0.0
C496 C 0.66035 0.97972 0.50625 0.0
C497 C 0.71514 0.98079 0.4734 0.0
C498 C 0.71381 0.9471 0.47275 0.0
C499 C 0.74087 0.01009 0.4648 0.0
C500 C 0.74512 0.04694 0.46569 0.0
C501 C 0.75157 0.06492 0.47921 0.0
C502 C 0.75529 0.09951 0.48 0.0
C503 C 0.7529 0.11653 0.46733 0.0
C504 C 0.74685 0.09903 0.45384 0.0
C505 C 0.74306 0.06441 0.45299 0.0
H506 H 0.7558 0.14332 0.46797 0.0
H507 H 0.72283 0.80877 0.46063 0.0
H508 H 0.88775 0.8795 0.77844 0.0
H509 H 0.84277 0.83362 0.79483 0.0
H510 H 0.80677 0.75413 0.76019 0.0
H511 H 0.85187 0.79981 0.74375 0.0
H512 H 0.75044 0.75505 0.77328 0.0
H513 H 0.85618 0.75042 0.78865 0.0
H514 H 0.91918 0.77554 0.79742 0.0
H515 H 0.8932 0.81434 0.83635 0.0
H516 H 0.83013 0.78989 0.82772 0.0
H517 H 0.63632 0.59855 0.81443 0.0
H518 H 0.68597 0.64344 0.79939 0.0
H519 H 0.72028 0.72097 0.83472 0.0
H520 H 0.67132 0.67563 0.85007 0.0
H521 H 0.77784 0.72165 0.82163 0.0
H522 H 0.67267 0.72703 0.80633 0.0
H523 H 0.60965 0.70245 0.79766 0.0
H524 H 0.63474 0.66314 0.75865 0.0
H525 H 0.69781 0.68705 0.76719 0.0
C526 C 0.87074 0.85208 0.77438 0.0
C527 C 0.87335 0.84329 0.75978 0.0
C528 C 0.84499 0.82591 0.78376 0.0
C529 C 0.82156 0.79042 0.77875 0.0
C530 C 0.82452 0.7814 0.76426 0.0
C531 C 0.85022 0.80754 0.75488 0.0
C532 C 0.79277 0.76317 0.78838 0.0
C533 C 0.75648 0.74733 0.78376 0.0
C534 C 0.80062 0.75398 0.80224 0.0
C535 C 0.83852 0.76864 0.80747 0.0
C536 C 0.86397 0.76458 0.79903 0.0
C537 C 0.89968 0.77864 0.80398 0.0
C538 C 0.91021 0.79661 0.81742 0.0
C539 C 0.88502 0.80046 0.82594 0.0
C540 C 0.84928 0.78648 0.82102 0.0
C541 C 0.65466 0.62499 0.81908 0.0
C542 C 0.64983 0.63354 0.83345 0.0
C543 C 0.68282 0.65074 0.81041 0.0
C544 C 0.70652 0.68568 0.81587 0.0
C545 C 0.70218 0.69419 0.83028 0.0
C546 C 0.67402 0.66838 0.83898 0.0
C547 C 0.73558 0.71337 0.80646 0.0
C548 C 0.77186 0.72936 0.81114 0.0
C549 C 0.72776 0.72283 0.79266 0.0
C550 C 0.68987 0.70854 0.78746 0.0
C551 C 0.66467 0.7129 0.79595 0.0
C552 C 0.62896 0.69913 0.79105 0.0
C553 C 0.61817 0.68117 0.77763 0.0
C554 C 0.64312 0.67702 0.76905 0.0
C555 C 0.67886 0.69071 0.77391 0.0
H556 H 0.59051 0.67053 0.77385 0.0
H557 H 0.93787 0.80747 0.82124 0.0
H558 H 0.07969 0.90245 0.09868 0.0
H559 H 0.08078 0.8591 0.11603 0.0
H560 H 0.96719 0.78436 0.10749 0.0
H561 H 0.96559 0.82788 0.09055 0.0
H562 H 0.98151 0.78936 0.13623 0.0
H563 H 0.03366 0.77235 0.09211 0.0
H564 H 0.07731 0.79197 0.07167 0.0
H565 H 0.16587 0.82778 0.10201 0.0
H566 H 0.12274 0.80879 0.12265 0.0
H567 H 0.95734 0.62142 0.16092 0.0
H568 H 0.9625 0.6719 0.14632 0.0
H569 H 0.07543 0.73699 0.15857 0.0
H570 H 0.0704 0.68657 0.17332 0.0
H571 H 0.06577 0.74128 0.12955 0.0
H572 H 0.01302 0.75389 0.17367 0.0
H573 H 0.96917 0.73353 0.19404 0.0
H574 H 0.88179 0.70591 0.16382 0.0
H575 H 0.92505 0.72561 0.14323 0.0
C576 C 0.0549 0.87689 0.10059 0.0
C577 C 0.02262 0.86849 0.09316 0.0
C578 C 0.05563 0.85205 0.11041 0.0
C579 C 0.02414 0.81837 0.11293 0.0
C580 C 0.99182 0.81016 0.10567 0.0
C581 C 0.99106 0.83491 0.09588 0.0
C582 C 0.02462 0.79143 0.12308 0.0
C583 C -0.00029 0.7786 0.1347 0.0
C584 C 0.04909 0.77821 0.12131 0.0
C585 C 0.07502 0.78954 0.10892 0.0
C586 C 0.06247 0.78468 0.09442 0.0
C587 C 0.08711 0.79564 0.0828 0.0
C588 C 0.12435 0.81122 0.08554 0.0
C589 C 0.13702 0.81577 0.09991 0.0
C590 C 0.11249 0.8049 0.11157 0.0
C591 C 0.98316 0.64662 0.16067 0.0
C592 C 0.01342 0.65005 0.16833 0.0
C593 C 0.98609 0.67543 0.1523 0.0
C594 C 0.01924 0.70833 0.1515 0.0
C595 C 0.0496 0.71181 0.15905 0.0
C596 C 0.0467 0.68297 0.16742 0.0
C597 C 0.02223 0.73875 0.14254 0.0
C598 C 0.0478 0.75227 0.13116 0.0
C599 C -0.00164 0.75263 0.14452 0.0
C600 C 0.97226 0.74097 0.15689 0.0
C601 C 0.98442 0.74323 0.17135 0.0
C602 C 0.95967 0.73184 0.18294 0.0
C603 C 0.92271 0.71836 0.18023 0.0
C604 C 0.91043 0.71633 0.16591 0.0
C605 C 0.93506 0.72764 0.15428 0.0
H606 H 0.90359 0.70956 0.18922 0.0
H607 H 0.14338 0.81967 0.07653 0.0
H608 H 0.11784 0.00582 0.44488 0.0
H609 H 0.16394 0.00664 0.46111 0.0
H610 H 0.24295 0.05019 0.42628 0.0
H611 H 0.19677 0.04907 0.40994 0.0
H612 H 0.24436 0.99519 0.43907 0.0
H613 H 0.2453 0.10297 0.45564 0.0
H614 H 0.21848 0.13899 0.46483 0.0
H615 H 0.17993 0.07165 0.50308 0.0
H616 H 0.2061 0.03489 0.49402 0.0
H617 H 0.40026 0.03832 0.48101 0.0
H618 H 0.35545 0.04298 0.46589 0.0
H619 H 0.27623 0.99571 0.50049 0.0
H620 H 0.32144 0.99219 0.51594 0.0
H621 H 0.27486 0.05283 0.48808 0.0
H622 H 0.27328 0.94481 0.47138 0.0
H623 H 0.30001 0.90868 0.46222 0.0
H624 H 0.3396 0.9766 0.42416 0.0
H625 H 0.31353 0.01346 0.4332 0.0
C626 C 0.1452 0.01614 0.44076 0.0
C627 C 0.15374 0.02743 0.42615 0.0
C628 C 0.17152 0.01658 0.45004 0.0
C629 C 0.207 0.02879 0.44495 0.0
C630 C 0.21572 0.04061 0.43043 0.0
C631 C 0.18935 0.03992 0.42111 0.0
C632 C 0.23455 0.02761 0.45454 0.0
C633 C 0.25144 0.0083 0.44969 0.0
C634 C 0.24301 0.04381 0.46858 0.0
C635 C 0.22738 0.06597 0.47408 0.0
C636 C 0.23087 0.09567 0.46596 0.0
C637 C 0.21583 0.11625 0.47115 0.0
C638 C 0.19744 0.10756 0.48451 0.0
C639 C 0.19415 0.07833 0.49272 0.0
C640 C 0.20911 0.05763 0.48757 0.0
C641 C 0.37345 0.0293 0.48549 0.0
C642 C 0.3644 0.01482 0.49968 0.0
C643 C 0.34775 0.03166 0.47677 0.0
C644 C 0.31237 0.01926 0.482 0.0
C645 C 0.30336 0.00529 0.49623 0.0
C646 C 0.3291 0.00299 0.50499 0.0
C647 C 0.28476 0.02064 0.47254 0.0
C648 C 0.26781 0.03985 0.47744 0.0
C649 C 0.2762 0.00436 0.45853 0.0
C650 C 0.29174 0.9821 0.45303 0.0
C651 C 0.28792 0.95221 0.46111 0.0
C652 C 0.30291 0.93157 0.45593 0.0
C653 C 0.32157 0.94039 0.44263 0.0
C654 C 0.32518 0.96982 0.43446 0.0
C655 C 0.31027 0.99058 0.4396 0.0
H656 H 0.33316 0.92438 0.43864 0.0
H657 H 0.18581 0.12353 0.48852 0.0
H658 H 0.09805 0.13722 0.7763 0.0
H659 H 0.1436 0.18322 0.79253 0.0
H660 H 0.21262 0.23707 0.75548 0.0
H661 H 0.16716 0.19124 0.73919 0.0
H662 H 0.24934 0.22621 0.77688 0.0
H663 H 0.16791 0.27388 0.77333 0.0
H664 H 0.10867 0.27137 0.77482 0.0
H665 H 0.10116 0.24494 0.82042 0.0
H666 H 0.16015 0.2468 0.81916 0.0
H667 H 0.38243 0.38562 0.81168 0.0
H668 H 0.33306 0.34283 0.7959 0.0
H669 H 0.26534 0.29341 0.83374 0.0
H670 H 0.31463 0.33661 0.84959 0.0
H671 H 0.22712 0.3013 0.8124 0.0
H672 H 0.30741 0.25292 0.81621 0.0
H673 H 0.36618 0.25437 0.81505 0.0
H674 H 0.37505 0.28035 0.76937 0.0
H675 H 0.31655 0.27956 0.7703 0.0
C676 C 0.12262 0.15925 0.77159 0.0
C677 C 0.12908 0.16056 0.75647 0.0
C678 C 0.14865 0.18548 0.78088 0.0
C679 C 0.18143 0.21364 0.7752 0.0
C680 C 0.18756 0.21547 0.76009 0.0
C681 C 0.16162 0.18924 0.7508 0.0
C682 C 0.21023 0.2401 0.78506 0.0
C683 C 0.24464 0.24303 0.78449 0.0
C684 C 0.2037 0.26113 0.79532 0.0
C685 C 0.16829 0.26014 0.79611 0.0
C686 C 0.15349 0.26725 0.78365 0.0
C687 C 0.11998 0.26599 0.78446 0.0
C688 C 0.10112 0.25791 0.79769 0.0
C689 C 0.11578 0.25115 0.81017 0.0
C690 C 0.14927 0.25234 0.80941 0.0
C691 C 0.3571 0.36548 0.81664 0.0
C692 C 0.35245 0.36421 0.83186 0.0
C693 C 0.3289 0.34107 0.80762 0.0
C694 C 0.2957 0.31455 0.81366 0.0
C695 C 0.29075 0.31363 0.82885 0.0
C696 C 0.31888 0.33828 0.83788 0.0
C697 C 0.26633 0.28766 0.8041 0.0
C698 C 0.23181 0.28452 0.80476 0.0
C699 C 0.27265 0.26622 0.79397 0.0
C700 C 0.30775 0.2665 0.79336 0.0
C701 C 0.32201 0.2592 0.80594 0.0
C702 C 0.35526 0.25986 0.80532 0.0
C703 C 0.37438 0.26753 0.79215 0.0
C704 C 0.36023 0.27446 0.77957 0.0
C705 C 0.32702 0.27387 0.78013 0.0
H706 H 0.40011 0.26804 0.7917 0.0
H707 H 0.07518 0.25695 0.7983 0.0
H708 H 0.89844 0.03771 0.64179 0.0
H709 H 0.85265 0.03769 0.62557 0.0
H710 H 0.78167 0.0177 0.66243 0.0
H711 H 0.82736 0.0178 0.67871 0.0
H712 H 0.7466 0.97151 0.6404 0.0
H713 H 0.82515 0.10067 0.64573 0.0
H714 H 0.88357 0.15842 0.64505 0.0
H715 H 0.8938 0.14385 0.59922 0.0
H716 H 0.83564 0.08574 0.59967 0.0
H717 H 0.61277 0.99773 0.60594 0.0
H718 H 0.6616 0.00329 0.62179 0.0
H719 H 0.73131 0.02601 0.58426 0.0
H720 H 0.68256 0.02084 0.56834 0.0
H721 H 0.76778 0.07088 0.60622 0.0
H722 H 0.69015 0.9422 0.60066 0.0
H723 H 0.63215 0.88399 0.60104 0.0
H724 H 0.6209 0.89688 0.64694 0.0
H725 H 0.67861 0.95544 0.64678 0.0
C726 C 0.87336 0.03399 0.64647 0.0
C727 C 0.86646 0.02767 0.66153 0.0
C728 C 0.84719 0.03391 0.63719 0.0
C729 C 0.81382 0.02785 0.64281 0.0
C730 C 0.80719 0.02229 0.65787 0.0
C731 C 0.83327 0.02228 0.66714 0.0
C732 C 0.78506 0.02549 0.63293 0.0
C733 C 0.75105 0.99346 0.63307 0.0
C734 C 0.7913 0.05367 0.62306 0.0
C735 C 0.82621 0.08867 0.62276 0.0
C736 C 0.83999 0.10963 0.63553 0.0
C737 C 0.87304 0.14246 0.63518 0.0
C738 C 0.89243 0.15475 0.62211 0.0
C739 C 0.87877 0.13428 0.60934 0.0
C740 C 0.84575 0.10141 0.60963 0.0
C741 C 0.6384 0.0036 0.60105 0.0
C742 C 0.64379 0.00859 0.5859 0.0
C743 C 0.66629 0.00681 0.61012 0.0
C744 C 0.69994 0.01457 0.60418 0.0
C745 C 0.70556 0.02 0.58906 0.0
C746 C 0.67772 0.01705 0.57999 0.0
C747 C 0.72922 0.01702 0.61378 0.0
C748 C 0.76333 0.04896 0.61355 0.0
C749 C 0.72317 0.98868 0.62354 0.0
C750 C 0.68854 0.95337 0.62368 0.0
C751 C 0.67517 0.93275 0.61081 0.0
C752 C 0.64237 0.89967 0.61099 0.0
C753 C 0.62281 0.88679 0.624 0.0
C754 C 0.63606 0.90691 0.63686 0.0
C755 C 0.66884 0.94003 0.63674 0.0
H756 H 0.59741 0.86118 0.62411 0.0
H757 H 0.91801 0.18017 0.62186 0.0
H758 H 0.82739 0.90447 0.98331 0.0
H759 H 0.78416 0.86068 0.96573 0.0
H760 H 0.81393 0.78172 0.97929 0.0
H761 H 0.85795 0.8256 0.99645 0.0
H762 H 0.80978 0.78363 0.9501 0.0
H763 H 0.7354 0.77753 0.99127 0.0
H764 H 0.71102 0.80281 0.0094 0.0
H765 H 0.66871 0.83949 0.97489 0.0
H766 H 0.69326 0.81482 0.95654 0.0
H767 H 0.66312 0.61787 0.92484 0.0
H768 H 0.70879 0.66844 0.93937 0.0
H769 H 0.66768 0.73699 0.92382 0.0
H770 H 0.62161 0.68628 0.90938 0.0
H771 H 0.67844 0.74464 0.95235 0.0
H772 H 0.7487 0.74704 0.91115 0.0
H773 H 0.7728 0.72179 0.8929 0.0
H774 H 0.82309 0.69286 0.92698 0.0
H775 H 0.79886 0.71748 0.94547 0.0
C776 C 0.82489 0.87787 0.98246 0.0
C777 C 0.8459 0.86842 0.99137 0.0
C778 C 0.8 0.8528 0.9725 0.0
C779 C 0.79557 0.81782 0.97132 0.0
C780 C 0.81683 0.80852 0.98005 0.0
C781 C 0.8417 0.83352 0.98998 0.0
C782 C 0.76875 0.79062 0.96105 0.0
C783 C 0.781 0.77485 0.95066 0.0
C784 C 0.7314 0.78 0.96151 0.0
C785 C 0.71651 0.79469 0.97254 0.0
C786 C 0.72114 0.79124 0.98755 0.0
C787 C 0.70725 0.80541 0.99786 0.0
C788 C 0.68842 0.82284 0.9933 0.0
C789 C 0.68335 0.82604 0.97841 0.0
C790 C 0.69723 0.81195 0.96805 0.0
C791 C 0.6641 0.64384 0.9244 0.0
C792 C 0.63888 0.64817 0.91596 0.0
C793 C 0.69021 0.67273 0.93269 0.0
C794 C 0.69197 0.70667 0.93254 0.0
C795 C 0.66682 0.71106 0.9241 0.0
C796 C 0.64051 0.68208 0.91588 0.0
C797 C 0.71937 0.73716 0.94154 0.0
C798 C 0.70725 0.75361 0.95167 0.0
C799 C 0.75688 0.74849 0.94081 0.0
C800 C 0.77172 0.73387 0.92971 0.0
C801 C 0.76469 0.73507 0.91477 0.0
C802 C 0.7784 0.72091 0.90438 0.0
C803 C 0.7994 0.70567 0.90878 0.0
C804 C 0.8068 0.70465 0.92359 0.0
C805 C 0.79312 0.71875 0.93403 0.0
H806 H 0.80999 0.69471 0.90072 0.0
H807 H 0.67769 0.8338 0.0013 0.0
H808 H 0.93305 0.84576 0.30939 0.0
H809 H 0.93461 0.80154 0.2925 0.0
H810 H 0.01758 0.79909 0.31885 0.0
H811 H 0.01581 0.84284 0.33583 0.0
H812 H 0.03188 0.80819 0.28761 0.0
H813 H 0.93797 0.73207 0.32229 0.0
H814 H 0.88084 0.71198 0.33587 0.0
H815 H 0.82185 0.6889 0.2955 0.0
H816 H 0.87877 0.70939 0.28167 0.0
H817 H 0.03787 0.65509 0.26177 0.0
H818 H 0.03405 0.70133 0.27634 0.0
H819 H 0.93396 0.67617 0.25452 0.0
H820 H 0.93717 0.62898 0.24026 0.0
H821 H 0.92669 0.68328 0.28206 0.0
H822 H 0.017 0.75523 0.24696 0.0
H823 H 0.07292 0.77682 0.23237 0.0
H824 H 0.13727 0.81037 0.27151 0.0
H825 H 0.08167 0.78851 0.28636 0.0
C826 C 0.95156 0.83571 0.31154 0.0
C827 C 0.97416 0.84744 0.32392 0.0
C828 C 0.95238 0.8105 0.30194 0.0
C829 C 0.97617 0.79713 0.30449 0.0
C830 C -0.00094 0.80917 0.31674 0.0
C831 C 0.99784 0.83388 0.32645 0.0
C832 C 0.97719 0.77039 0.29445 0.0
C833 C 0.00907 0.78075 0.28645 0.0
C834 C 0.94691 0.73512 0.29264 0.0
C835 C 0.91268 0.72266 0.30095 0.0
C836 C 0.91287 0.72304 0.31631 0.0
C837 C 0.88052 0.71151 0.32405 0.0
C838 C 0.84775 0.69928 0.31655 0.0
C839 C 0.84726 0.69845 0.30129 0.0
C840 C 0.87955 0.70999 0.2935 0.0
C841 C 0.01524 0.65968 0.26003 0.0
C842 C 0.98788 0.63864 0.24988 0.0
C843 C 0.01311 0.68617 0.26831 0.0
C844 C 0.98402 0.69271 0.26636 0.0
C845 C 0.95667 0.67167 0.25621 0.0
C846 C 0.95851 0.64476 0.24808 0.0
C847 C 0.9817 0.72078 0.27524 0.0
C848 C 0.94952 0.71076 0.28304 0.0
C849 C 0.01156 0.75661 0.27668 0.0
C850 C 0.04511 0.76994 0.26779 0.0
C851 C 0.04305 0.76698 0.25247 0.0
C852 C 0.0747 0.7793 0.24415 0.0
C853 C 0.10862 0.79489 0.25101 0.0
C854 C 0.11097 0.79826 0.26621 0.0
C855 C 0.0794 0.78595 0.27458 0.0
H856 H 0.13309 0.80441 0.24454 0.0
H857 H 0.82273 0.69035 0.32257 0.0
H858 H 0.14764 0.94994 0.67375 0.0
H859 H 0.1932 0.95051 0.65723 0.0
H860 H 0.1541 0.99049 0.62245 0.0
H861 H 0.10864 0.99034 0.63893 0.0
H862 H 0.16921 0.9381 0.61291 0.0
H863 H 0.22834 0.04861 0.64075 0.0
H864 H 0.24692 0.08563 0.66322 0.0
H865 H 0.30452 0.03214 0.67765 0.0
H866 H 0.28581 0.99438 0.65536 0.0
H867 H 0.32587 0.00396 0.56714 0.0
H868 H 0.27636 -0.00072 0.58246 0.0
H869 H 0.31422 0.96109 0.61834 0.0
H870 H 0.3642 0.96656 0.60323 0.0
H871 H 0.29916 0.01294 0.62695 0.0
H872 H 0.24005 0.90241 0.59902 0.0
H873 H 0.22134 0.86542 0.57654 0.0
H874 H 0.16398 0.91921 0.56217 0.0
H875 H 0.18279 0.95691 0.58448 0.0
C876 C 0.14873 0.95886 0.66258 0.0
C877 C 0.12472 0.97038 0.65769 0.0
C878 C 0.1747 0.95908 0.65316 0.0
C879 C 0.1773 0.97102 0.63869 0.0
C880 C 0.1525 0.98119 0.63359 0.0
C881 C 0.12649 0.98097 0.64301 0.0
C882 C 0.20683 0.97424 0.62906 0.0
C883 C 0.19766 0.9548 0.61587 0.0
C884 C 0.24388 0.99559 0.63308 0.0
C885 C 0.25537 0.01842 0.64645 0.0
C886 C 0.24473 0.04454 0.64877 0.0
C887 C 0.25532 0.06569 0.66146 0.0
C888 C 0.27681 0.06118 0.67187 0.0
C889 C 0.28783 0.03557 0.66959 0.0
C890 C 0.27727 0.0143 0.65692 0.0
C891 C 0.32372 0.99477 0.57832 0.0
C892 C 0.34883 0.98552 0.58397 0.0
C893 C 0.29527 0.9918 0.58701 0.0
C894 C 0.29144 0.97948 0.60149 0.0
C895 C 0.31663 0.97052 0.60718 0.0
C896 C 0.34499 0.97339 0.5985 0.0
C897 C 0.2616 0.97657 0.61084 0.0
C898 C 0.27073 0.9962 0.62398 0.0
C899 C 0.22457 0.95544 0.60675 0.0
C900 C 0.21315 0.93275 0.59335 0.0
C901 C 0.2237 0.90657 0.59101 0.0
C902 C 0.21303 0.88544 0.57831 0.0
C903 C 0.19157 0.89004 0.56791 0.0
C904 C 0.18065 0.91572 0.57022 0.0
C905 C 0.19128 0.93696 0.58289 0.0
H906 H 0.18333 0.87364 0.55809 0.0
H907 H 0.28498 0.07758 0.68169 0.0
H908 H 0.13145 0.16607 0.99285 0.0
H909 H 0.17646 0.21007 0.97593 0.0
H910 H 0.22803 0.14479 0.97292 0.0
H911 H 0.18317 0.10069 0.99006 0.0
H912 H 0.27718 0.21874 0.97699 0.0
H913 H 0.17745 0.14332 0.94541 0.0
H914 H 0.11343 0.1113 0.93736 0.0
H915 H 0.1154 0.21315 0.93398 0.0
H916 H 0.17931 0.24577 0.94222 0.0
H917 H 0.39202 0.32118 0.91837 0.0
H918 H 0.3473 0.27117 0.93332 0.0
H919 H 0.28085 0.3217 0.93479 0.0
H920 H 0.3244 0.37076 0.91914 0.0
H921 H 0.23955 0.2515 0.93076 0.0
H922 H 0.33663 0.32678 0.96375 0.0
H923 H 0.40005 0.36 0.97253 0.0
H924 H 0.4026 0.26019 0.97402 0.0
H925 H 0.33931 0.22644 0.96506 0.0
C926 C 0.15253 0.1612 0.98867 0.0
C927 C 0.15389 0.13001 0.9928 0.0
C928 C 0.17802 0.18619 0.97892 0.0
C929 C 0.20532 0.18047 0.97309 0.0
C930 C 0.20704 0.14956 0.97727 0.0
C931 C 0.18134 0.12436 0.98698 0.0
C932 C 0.23227 0.20716 0.96276 0.0
C933 C 0.26911 0.22551 0.96675 0.0
C934 C 0.22148 0.21649 0.9496 0.0
C935 C 0.1831 0.19696 0.94455 0.0
C936 C 0.16415 0.15888 0.94306 0.0
C937 C 0.1279 0.14062 0.93844 0.0
C938 C 0.11033 0.16017 0.93519 0.0
C939 C 0.12903 0.19804 0.93651 0.0
C940 C 0.16529 0.21643 0.94114 0.0
C941 C 0.36765 0.32144 0.92168 0.0
C942 C 0.3619 0.35012 0.91757 0.0
C943 C 0.34231 0.29301 0.93039 0.0
C944 C 0.311 0.29297 0.93538 0.0
C945 C 0.30491 0.32124 0.93113 0.0
C946 C 0.33005 0.3495 0.92231 0.0
C947 C 0.28455 0.26355 0.94505 0.0
C948 C 0.24776 0.24463 0.94094 0.0
C949 C 0.29536 0.25392 0.95817 0.0
C950 C 0.33337 0.27415 0.96359 0.0
C951 C 0.35081 0.31197 0.96584 0.0
C952 C 0.38672 0.33088 0.97087 0.0
C953 C 0.40538 0.31224 0.97379 0.0
C954 C 0.38813 0.27461 0.97173 0.0
C955 C 0.35224 0.25557 0.96669 0.0
H956 H 0.43317 0.32693 0.97768 0.0
H957 H 0.08226 0.14598 0.93162 0.0
H958 H 0.97447 0.15639 0.3393 0.0
H959 H 0.97352 0.20082 0.32289 0.0
H960 H 0.05822 0.20073 0.29683 0.0
H961 H 0.06142 0.15826 0.3139 0.0
H962 H 0.07031 0.26651 0.29855 0.0
H963 H 0.96618 0.15302 0.28652 0.0
H964 H 0.90955 0.09504 0.29092 0.0
H965 H 0.85778 0.1531 0.30686 0.0
H966 H 0.91429 0.21146 0.30275 0.0
H967 H 0.03073 0.34498 0.23647 0.0
H968 H 0.0358 0.30117 0.25218 0.0
H969 H 0.97522 0.31865 0.28587 0.0
H970 H 0.9715 0.36382 0.27063 0.0
H971 H 0.95153 0.24277 0.27874 0.0
H972 H 0.05979 0.35694 0.29077 0.0
H973 H 0.1168 0.41323 0.28479 0.0
H974 H 0.1608 0.35029 0.2664 0.0
H975 H 0.10379 0.2936 0.27209 0.0
C976 C 0.99353 0.16629 0.33029 0.0
C977 C 0.01801 0.15351 0.32797 0.0
C978 C 0.99248 0.19133 0.32074 0.0
C979 C 0.01516 0.20348 0.3084 0.0
C980 C 0.04021 0.19149 0.3062 0.0
C981 C 0.04172 0.16686 0.3159 0.0
C982 C 0.01256 0.22864 0.29784 0.0
C983 C 0.04438 0.26097 0.29406 0.0
C984 C 0.97872 0.22165 0.29201 0.0
C985 C 0.94459 0.18661 0.29444 0.0
C986 C 0.9428 0.15343 0.29106 0.0
C987 C 0.91071 0.12049 0.29349 0.0
C988 C 0.88011 0.12038 0.29919 0.0
C989 C 0.88152 0.15323 0.30245 0.0
C990 C 0.91356 0.18625 0.30006 0.0
C991 C 0.01888 0.33996 0.24729 0.0
C992 C 0.00078 0.35814 0.25226 0.0
C993 C 0.02161 0.31471 0.25619 0.0
C994 C 0.00595 0.30686 0.27015 0.0
C995 C 0.98732 0.32432 0.27508 0.0
C996 C 0.98503 0.34996 0.26629 0.0
C997 C 0.00909 0.28052 0.2797 0.0
C998 C 0.97739 0.24801 0.28323 0.0
C999 C 0.04306 0.287 0.28505 0.0
C1000 C 0.07738 0.32106 0.2817 0.0
C1001 C 0.08149 0.35511 0.28533 0.0
C1002 C 0.11383 0.38709 0.28202 0.0
C1003 C 0.14237 0.38534 0.27518 0.0
C1004 C 0.13865 0.3516 0.27168 0.0
C1005 C 0.10634 0.31954 0.27495 0.0
H1006 H 0.16739 0.41013 0.27263 0.0
H1007 H 0.85529 0.09485 0.30106 0.0
loop_
_geom_bond_atom_site_label_1
_geom_bond_atom_site_label_2
_geom_bond_distance
_geom_bond_site_symmetry_2
_ccdc_geom_bond_type
Li0 N17 1.990 . S
Li0 O60 1.956 . S
Li0 O61 1.970 1_455 S
Li0 O62 1.961 1_545 S
Li1 N25 1.990 . S
Li1 O60 1.970 1_655 S
Li1 O61 1.956 . S
Li1 O63 1.961 1_545 S
Li2 N47 1.990 . S
Li2 O60 1.961 1_565 S
Li2 O62 1.956 . S
Li2 O63 1.970 1_455 S
Li3 N53 1.990 . S
Li3 O61 1.961 1_565 S
Li3 O62 1.970 1_655 S
Li3 O63 1.956 . S
C4 C6 1.348 . S
C4 C7 1.356 . S
C4 O60 1.325 . S
N5 C8 1.314 . S
N5 C9 1.279 . S
C6 C4 1.348 . S
C6 C8 1.353 . S
C6 H64 0.929 . S
C7 C4 1.356 . S
C7 C9 1.358 . S
C7 H65 0.930 . S
C8 N5 1.314 . S
C8 C6 1.353 . S
C8 H66 0.930 . S
C9 N5 1.279 . S
C9 C7 1.358 . S
C9 H67 0.930 . S
C10 C13 1.348 1_655 S
C10 C14 1.356 . S
C10 O61 1.325 . S
C11 N12 1.279 . S
C11 C14 1.358 . S
C11 H68 0.930 . S
N12 C11 1.279 . S
N12 C15 1.314 . S
C13 C10 1.348 1_455 S
C13 C15 1.353 1_455 S
C13 H69 0.929 . S
C14 C10 1.356 . S
C14 C11 1.358 . S
C14 H70 0.930 . S
C15 N12 1.314 . S
C15 C13 1.353 1_655 S
C15 H71 0.930 1_655 S
C16 N17 1.314 . S
C16 C21 1.353 1_554 S
C16 H22 0.930 . S
N17 Li0 1.990 . S
N17 C16 1.314 . S
N17 C19 1.279 . S
C18 C19 1.358 . S
C18 C20 1.356 . S
C18 H72 0.930 . S
C19 N17 1.279 . S
C19 C18 1.358 . S
C19 H23 0.930 . S
C20 C18 1.356 . S
C20 C21 1.348 1_554 S
C21 C16 1.353 1_556 S
C21 C20 1.348 1_556 S
C21 H73 0.929 . S
H22 C16 0.930 . S
H23 C19 0.930 . S
C24 N25 1.314 . S
C24 C26 1.353 . S
C24 H30 0.930 . S
N25 Li1 1.990 . S
N25 C24 1.314 . S
N25 C28 1.279 . S
C26 C24 1.353 . S
C26 C29 1.348 . S
C26 H74 0.929 . S
C27 C28 1.358 . S
C27 C29 1.356 . S
C27 H75 0.930 . S
C28 N25 1.279 . S
C28 C27 1.358 . S
C28 H31 0.930 . S
C29 C26 1.348 . S
C29 C27 1.356 . S
H30 C24 0.930 . S
H31 C28 0.930 . S
C32 C34 1.348 1_455 S
C32 C35 1.356 . S
C32 O62 1.325 . S
N33 C36 1.314 . S
N33 C37 1.279 . S
C34 C32 1.348 1_655 S
C34 C36 1.353 1_655 S
C34 H76 0.929 . S
C35 C32 1.356 . S
C35 C37 1.358 . S
C35 H77 0.930 . S
C36 N33 1.314 . S
C36 C34 1.353 1_455 S
C36 H78 0.930 1_455 S
C37 N33 1.279 . S
C37 C35 1.358 . S
C37 H79 0.930 . S
C38 C39 1.348 . S
C38 C40 1.356 . S
C38 O63 1.325 . S
C39 C38 1.348 . S
C39 C41 1.353 . S
C39 H80 0.929 . S
C40 C38 1.356 . S
C40 C42 1.358 . S
C40 H81 0.930 . S
C41 C39 1.353 . S
C41 N43 1.314 . S
C41 H82 0.930 . S
C42 C40 1.358 . S
C42 N43 1.279 . S
C42 H83 0.930 . S
N43 C41 1.314 . S
N43 C42 1.279 . S
C44 C46 1.353 . S
C44 N47 1.314 . S
C44 H50 0.930 . S
C45 N47 1.279 . S
C45 C48 1.358 . S
C45 H51 0.930 . S
C46 C44 1.353 . S
C46 C49 1.348 . S
C46 H84 0.929 . S
N47 Li2 1.990 . S
N47 C44 1.314 . S
N47 C45 1.279 . S
C48 C45 1.358 . S
C48 C49 1.356 . S
C48 H85 0.930 . S
C49 C46 1.348 . S
C49 C48 1.356 . S
H50 C44 0.930 . S
H51 C45 0.930 . S
C52 N53 1.314 . S
C52 C54 1.353 1_554 S
C52 H58 0.930 . S
N53 Li3 1.990 . S
N53 C52 1.314 . S
N53 C56 1.279 . S
C54 C52 1.353 1_556 S
C54 C57 1.348 1_556 S
C54 H86 0.929 . S
C55 C56 1.358 . S
C55 C57 1.356 . S
C55 H87 0.930 . S
C56 N53 1.279 . S
C56 C55 1.358 . S
C56 H59 0.930 . S
C57 C54 1.348 1_554 S
C57 C55 1.356 . S
H58 C52 0.930 . S
H59 C56 0.930 . S
O60 Li0 1.956 . S
O60 Li1 1.970 1_455 S
O60 Li2 1.961 1_545 S
O60 C4 1.325 . S
O61 Li0 1.970 1_655 S
O61 Li1 1.956 . S
O61 Li3 1.961 1_545 S
O61 C10 1.325 . S
O62 Li0 1.961 1_565 S
O62 Li2 1.956 . S
O62 Li3 1.970 1_455 S
O62 C32 1.325 . S
O63 Li1 1.961 1_565 S
O63 Li2 1.970 1_655 S
O63 Li3 1.956 . S
O63 C38 1.325 . S
H64 C6 0.929 . S
H65 C7 0.930 . S
H66 C8 0.930 . S
H67 C9 0.930 . S
H68 C11 0.930 . S
H69 C13 0.929 . S
H70 C14 0.930 . S
H71 C15 0.930 1_455 S
H72 C18 0.930 . S
H73 C21 0.929 . S
H74 C26 0.929 . S
H75 C27 0.930 . S
H76 C34 0.929 . S
H77 C35 0.930 . S
H78 C36 0.930 1_655 S
H79 C37 0.930 . S
H80 C39 0.929 . S
H81 C40 0.930 . S
H82 C41 0.930 . S
H83 C42 0.930 . S
H84 C46 0.929 . S
H85 C48 0.930 . S
H86 C54 0.929 . S
H87 C55 0.930 . S
Li88 N105 1.990 . S
Li88 O148 1.956 . S
Li88 O149 1.970 1_665 S
Li88 O150 1.961 . S
Li89 N113 1.990 . S
Li89 O148 1.970 1_445 S
Li89 O149 1.956 . S
Li89 O151 1.961 . S
Li90 N135 1.990 . S
Li90 O148 1.961 . S
Li90 O150 1.956 . S
Li90 O151 1.970 1_665 S
Li91 N141 1.990 . S
Li91 O149 1.961 . S
Li91 O150 1.970 1_445 S
Li91 O151 1.956 . S
C92 C94 1.348 1_655 S
C92 C95 1.356 . S
C92 O148 1.325 . S
N93 C96 1.314 . S
N93 C97 1.279 . S
C94 C92 1.348 1_455 S
C94 C96 1.353 1_455 S
C94 H152 0.929 . S
C95 C92 1.356 . S
C95 C97 1.358 . S
C95 H153 0.930 . S
C96 N93 1.314 . S
C96 C94 1.353 1_655 S
C96 H154 0.930 1_655 S
C97 N93 1.279 . S
C97 C95 1.358 . S
C97 H155 0.930 . S
C98 C101 1.348 1_545 S
C98 C102 1.356 . S
C98 O149 1.325 . S
C99 N100 1.279 . S
C99 C102 1.358 . S
C99 H156 0.930 . S
N100 C99 1.279 . S
N100 C103 1.314 . S
C101 C98 1.348 1_565 S
C101 C103 1.353 1_565 S
C101 H157 0.929 . S
C102 C98 1.356 . S
C102 C99 1.358 . S
C102 H158 0.930 . S
C103 N100 1.314 . S
C103 C101 1.353 1_545 S
C103 H159 0.930 1_545 S
C104 N105 1.314 . S
C104 C109 1.353 . S
C104 H110 0.930 . S
N105 Li88 1.990 . S
N105 C104 1.314 . S
N105 C107 1.279 . S
C106 C107 1.358 . S
C106 C108 1.356 . S
C106 H160 0.930 . S
C107 N105 1.279 . S
C107 C106 1.358 . S
C107 H111 0.930 . S
C108 C106 1.356 . S
C108 C109 1.348 . S
C109 C104 1.353 . S
C109 C108 1.348 . S
C109 H161 0.929 . S
H110 C104 0.930 . S
H111 C107 0.930 . S
C112 N113 1.314 . S
C112 C114 1.353 . S
C112 H118 0.930 . S
N113 Li89 1.990 . S
N113 C112 1.314 . S
N113 C116 1.279 . S
C114 C112 1.353 . S
C114 C117 1.348 . S
C114 H162 0.929 . S
C115 C116 1.358 . S
C115 C117 1.356 . S
C115 H163 0.930 . S
C116 N113 1.279 . S
C116 C115 1.358 . S
C116 H119 0.930 . S
C117 C114 1.348 . S
C117 C115 1.356 . S
H118 C112 0.930 . S
H119 C116 0.930 . S
C120 C122 1.348 1_565 S
C120 C123 1.356 . S
C120 O150 1.325 . S
N121 C124 1.314 . S
N121 C125 1.279 . S
C122 C120 1.348 1_545 S
C122 C124 1.353 1_545 S
C122 H164 0.929 . S
C123 C120 1.356 . S
C123 C125 1.358 . S
C123 H165 0.930 . S
C124 N121 1.314 . S
C124 C122 1.353 1_565 S
C124 H166 0.930 1_565 S
C125 N121 1.279 . S
C125 C123 1.358 . S
C125 H167 0.930 . S
C126 C127 1.348 1_455 S
C126 C128 1.356 . S
C126 O151 1.325 . S
C127 C126 1.348 1_655 S
C127 C129 1.353 1_655 S
C127 H168 0.929 . S
C128 C126 1.356 . S
C128 C130 1.358 . S
C128 H169 0.930 . S
C129 C127 1.353 1_455 S
C129 N131 1.314 . S
C129 H170 0.930 1_455 S
C130 C128 1.358 . S
C130 N131 1.279 . S
C130 H171 0.930 . S
N131 C129 1.314 . S
N131 C130 1.279 . S
C132 C134 1.353 . S
C132 N135 1.314 . S
C132 H138 0.930 . S
C133 N135 1.279 . S
C133 C136 1.358 . S
C133 H139 0.930 . S
C134 C132 1.353 . S
C134 C137 1.348 . S
C134 H172 0.929 . S
N135 Li90 1.990 . S
N135 C132 1.314 . S
N135 C133 1.279 . S
C136 C133 1.358 . S
C136 C137 1.356 . S
C136 H173 0.930 . S
C137 C134 1.348 . S
C137 C136 1.356 . S
H138 C132 0.930 . S
H139 C133 0.930 . S
C140 N141 1.314 . S
C140 C142 1.353 . S
C140 H146 0.930 . S
N141 Li91 1.990 . S
N141 C140 1.314 . S
N141 C144 1.279 . S
C142 C140 1.353 . S
C142 C145 1.348 . S
C142 H174 0.929 . S
C143 C144 1.358 . S
C143 C145 1.356 . S
C143 H175 0.930 . S
C144 N141 1.279 . S
C144 C143 1.358 . S
C144 H147 0.930 . S
C145 C142 1.348 . S
C145 C143 1.356 . S
H146 C140 0.930 . S
H147 C144 0.930 . S
O148 Li88 1.956 . S
O148 Li89 1.970 1_665 S
O148 Li90 1.961 . S
O148 C92 1.325 . S
O149 Li88 1.970 1_445 S
O149 Li89 1.956 . S
O149 Li91 1.961 . S
O149 C98 1.325 . S
O150 Li88 1.961 . S
O150 Li90 1.956 . S
O150 Li91 1.970 1_665 S
O150 C120 1.325 . S
O151 Li89 1.961 . S
O151 Li90 1.970 1_445 S
O151 Li91 1.956 . S
O151 C126 1.325 . S
H152 C94 0.929 . S
H153 C95 0.930 . S
H154 C96 0.930 1_455 S
H155 C97 0.930 . S
H156 C99 0.930 . S
H157 C101 0.929 . S
H158 C102 0.930 . S
H159 C103 0.930 1_565 S
H160 C106 0.930 . S
H161 C109 0.929 . S
H162 C114 0.929 . S
H163 C115 0.930 . S
H164 C122 0.929 . S
H165 C123 0.930 . S
H166 C124 0.930 1_545 S
H167 C125 0.930 . S
H168 C127 0.929 . S
H169 C128 0.930 . S
H170 C129 0.930 1_655 S
H171 C130 0.930 . S
H172 C134 0.929 . S
H173 C136 0.930 . S
H174 C142 0.929 . S
H175 C143 0.930 . S
Li176 N193 1.990 . S
Li176 O236 1.956 . S
Li176 O237 1.970 1_565 S
Li176 O238 1.961 1_455 S
Li177 N201 1.990 . S
Li177 O236 1.970 1_545 S
Li177 O237 1.956 . S
Li177 O239 1.961 1_455 S
Li178 N223 1.990 . S
Li178 O236 1.961 1_655 S
Li178 O238 1.956 . S
Li178 O239 1.970 1_565 S
Li179 N229 1.990 . S
Li179 O237 1.961 1_655 S
Li179 O238 1.970 1_545 S
Li179 O239 1.956 . S
C180 C182 1.348 1_565 S
C180 C183 1.356 . S
C180 O236 1.325 . S
N181 C184 1.314 . S
N181 C185 1.279 . S
C182 C180 1.348 1_545 S
C182 C184 1.353 1_545 S
C182 H240 0.929 . S
C183 C180 1.356 . S
C183 C185 1.358 . S
C183 H241 0.930 . S
C184 N181 1.314 . S
C184 C182 1.353 1_565 S
C184 H242 0.930 1_565 S
C185 N181 1.279 . S
C185 C183 1.358 . S
C185 H243 0.930 . S
C186 C189 1.348 . S
C186 C190 1.356 . S
C186 O237 1.325 . S
C187 N188 1.279 . S
C187 C190 1.358 . S
C187 H244 0.930 . S
N188 C187 1.279 . S
N188 C191 1.314 . S
C189 C186 1.348 . S
C189 C191 1.353 . S
C189 H245 0.929 . S
C190 C186 1.356 . S
C190 C187 1.358 . S
C190 H246 0.930 . S
C191 N188 1.314 . S
C191 C189 1.353 . S
C191 H247 0.930 . S
C192 N193 1.314 . S
C192 C197 1.353 . S
C192 H198 0.930 . S
N193 Li176 1.990 . S
N193 C192 1.314 . S
N193 C195 1.279 . S
C194 C195 1.358 . S
C194 C196 1.356 . S
C194 H248 0.930 . S
C195 N193 1.279 . S
C195 C194 1.358 . S
C195 H199 0.930 . S
C196 C194 1.356 . S
C196 C197 1.348 . S
C197 C192 1.353 . S
C197 C196 1.348 . S
C197 H249 0.929 . S
H198 C192 0.930 . S
H199 C195 0.930 . S
C200 N201 1.314 . S
C200 C202 1.353 . S
C200 H206 0.930 . S
N201 Li177 1.990 . S
N201 C200 1.314 . S
N201 C204 1.279 . S
C202 C200 1.353 . S
C202 C205 1.348 . S
C202 H250 0.929 . S
C203 C204 1.358 . S
C203 C205 1.356 . S
C203 H251 0.930 . S
C204 N201 1.279 . S
C204 C203 1.358 . S
C204 H207 0.930 . S
C205 C202 1.348 . S
C205 C203 1.356 . S
H206 C200 0.930 . S
H207 C204 0.930 . S
C208 C210 1.348 . S
C208 C211 1.356 . S
C208 O238 1.325 . S
N209 C212 1.314 . S
N209 C213 1.279 . S
C210 C208 1.348 . S
C210 C212 1.353 . S
C210 H252 0.929 . S
C211 C208 1.356 . S
C211 C213 1.358 . S
C211 H253 0.930 . S
C212 N209 1.314 . S
C212 C210 1.353 . S
C212 H254 0.930 . S
C213 N209 1.279 . S
C213 C211 1.358 . S
C213 H255 0.930 . S
C214 C215 1.348 1_545 S
C214 C216 1.356 . S
C214 O239 1.325 . S
C215 C214 1.348 1_565 S
C215 C217 1.353 1_565 S
C215 H256 0.929 . S
C216 C214 1.356 . S
C216 C218 1.358 . S
C216 H257 0.930 . S
C217 C215 1.353 1_545 S
C217 N219 1.314 . S
C217 H258 0.930 1_545 S
C218 C216 1.358 . S
C218 N219 1.279 . S
C218 H259 0.930 . S
N219 C217 1.314 . S
N219 C218 1.279 . S
C220 C222 1.353 . S
C220 N223 1.314 . S
C220 H226 0.930 . S
C221 N223 1.279 . S
C221 C224 1.358 . S
C221 H227 0.930 . S
C222 C220 1.353 . S
C222 C225 1.348 . S
C222 H260 0.929 . S
N223 Li178 1.990 . S
N223 C220 1.314 . S
N223 C221 1.279 . S
C224 C221 1.358 . S
C224 C225 1.356 . S
C224 H261 0.930 . S
C225 C222 1.348 . S
C225 C224 1.356 . S
H226 C220 0.930 . S
H227 C221 0.930 . S
C228 N229 1.314 . S
C228 C230 1.353 . S
C228 H234 0.930 . S
N229 Li179 1.990 . S
N229 C228 1.314 . S
N229 C232 1.279 . S
C230 C228 1.353 . S
C230 C233 1.348 . S
C230 H262 0.929 . S
C231 C232 1.358 . S
C231 C233 1.356 . S
C231 H263 0.930 . S
C232 N229 1.279 . S
C232 C231 1.358 . S
C232 H235 0.930 . S
C233 C230 1.348 . S
C233 C231 1.356 . S
H234 C228 0.930 . S
H235 C232 0.930 . S
O236 Li176 1.956 . S
O236 Li177 1.970 1_565 S
O236 Li178 1.961 1_455 S
O236 C180 1.325 . S
O237 Li176 1.970 1_545 S
O237 Li177 1.956 . S
O237 Li179 1.961 1_455 S
O237 C186 1.325 . S
O238 Li176 1.961 1_655 S
O238 Li178 1.956 . S
O238 Li179 1.970 1_565 S
O238 C208 1.325 . S
O239 Li177 1.961 1_655 S
O239 Li178 1.970 1_545 S
O239 Li179 1.956 . S
O239 C214 1.325 . S
H240 C182 0.929 . S
H241 C183 0.930 . S
H242 C184 0.930 1_545 S
H243 C185 0.930 . S
H244 C187 0.930 . S
H245 C189 0.929 . S
H246 C190 0.930 . S
H247 C191 0.930 . S
H248 C194 0.930 . S
H249 C197 0.929 . S
H250 C202 0.929 . S
H251 C203 0.930 . S
H252 C210 0.929 . S
H253 C211 0.930 . S
H254 C212 0.930 . S
H255 C213 0.930 . S
H256 C215 0.929 . S
H257 C216 0.930 . S
H258 C217 0.930 1_565 S
H259 C218 0.930 . S
H260 C222 0.929 . S
H261 C224 0.930 . S
H262 C230 0.929 . S
H263 C231 0.930 . S
H264 C283 0.949 . S
H265 C284 0.950 . S
H266 C286 0.950 . S
H267 C287 0.950 . S
H268 C289 0.950 . S
H269 C292 0.950 . S
H270 C293 0.950 . S
H271 C295 0.951 . S
H272 C296 0.949 . S
H273 C298 0.949 . S
H274 C299 0.950 . S
H275 C301 0.950 . S
H276 C302 0.950 . S
H277 C304 0.950 . S
H278 C307 0.950 . S
H279 C308 0.950 . S
H280 C310 0.951 . S
H281 C311 0.949 . S
C282 C283 1.376 . S
C282 C287 1.386 1_455 S
C282 C288 1.483 . S
C283 H264 0.949 . S
C283 C282 1.376 . S
C283 C284 1.397 . S
C284 H265 0.950 . S
C284 C283 1.397 . S
C284 C285 1.391 . S
C285 C284 1.391 . S
C285 C286 1.405 1_455 S
C286 H266 0.950 . S
C286 C285 1.405 1_655 S
C286 C287 1.367 . S
C287 H267 0.950 . S
C287 C282 1.386 1_655 S
C287 C286 1.367 . S
C288 C282 1.483 . S
C288 C289 1.382 . S
C288 C290 1.403 1_455 S
C289 H268 0.950 . S
C289 C288 1.382 . S
C289 C305 1.411 . S
C290 C288 1.403 1_655 S
C290 C291 1.489 . S
C290 C304 1.411 . S
C291 C290 1.489 . S
C291 C292 1.383 1_655 S
C291 C296 1.382 . S
C292 H269 0.950 . S
C292 C291 1.383 1_455 S
C292 C293 1.395 . S
C293 H270 0.950 . S
C293 C292 1.395 . S
C293 C294 1.288 1_455 S
C294 C293 1.288 1_655 S
C294 C295 1.392 . S
C295 H271 0.951 . S
C295 C294 1.392 . S
C295 C296 1.392 . S
C296 H272 0.949 . S
C296 C291 1.382 . S
C296 C295 1.392 . S
C297 C298 1.376 . S
C297 C302 1.386 1_655 S
C297 C303 1.483 . S
C298 H273 0.949 . S
C298 C297 1.376 . S
C298 C299 1.397 . S
C299 H274 0.950 . S
C299 C298 1.397 . S
C299 C300 1.399 . S
C300 C299 1.399 . S
C300 C301 1.391 1_655 S
C301 H275 0.950 . S
C301 C300 1.391 1_455 S
C301 C302 1.367 . S
C302 H276 0.950 . S
C302 C297 1.386 1_455 S
C302 C301 1.367 . S
C303 C297 1.483 . S
C303 C304 1.382 . S
C303 C305 1.403 1_655 S
C304 H277 0.950 . S
C304 C290 1.411 . S
C304 C303 1.382 . S
C305 C289 1.411 . S
C305 C303 1.403 1_455 S
C305 C306 1.489 . S
C306 C305 1.489 . S
C306 C307 1.383 1_455 S
C306 C311 1.382 . S
C307 H278 0.950 . S
C307 C306 1.383 1_655 S
C307 C308 1.395 . S
C308 H279 0.950 . S
C308 C307 1.395 . S
C308 C309 1.288 1_655 S
C309 C308 1.288 1_455 S
C309 C310 1.392 . S
C310 H280 0.951 . S
C310 C309 1.392 . S
C310 C311 1.392 . S
C311 H281 0.949 . S
C311 C306 1.382 . S
C311 C310 1.392 . S
H312 C331 0.949 . S
H313 C332 0.950 . S
H314 C334 0.950 . S
H315 C335 0.950 . S
H316 C337 0.950 . S
H317 C340 0.950 . S
H318 C341 0.950 . S
H319 C343 0.951 . S
H320 C344 0.949 . S
H321 C346 0.949 . S
H322 C347 0.950 . S
H323 C349 0.950 . S
H324 C350 0.950 . S
H325 C352 0.950 . S
H326 C355 0.950 . S
H327 C356 0.950 . S
H328 C358 0.951 . S
H329 C359 0.949 . S
C330 C331 1.376 . S
C330 C335 1.386 1_545 S
C330 C336 1.483 . S
C331 H312 0.949 . S
C331 C330 1.376 . S
C331 C332 1.397 . S
C332 H313 0.950 . S
C332 C331 1.397 . S
C332 C333 1.391 . S
C333 C332 1.391 . S
C333 C334 1.405 1_545 S
C334 H314 0.950 . S
C334 C333 1.405 1_565 S
C334 C335 1.367 . S
C335 H315 0.950 . S
C335 C330 1.386 1_565 S
C335 C334 1.367 . S
C336 C330 1.483 . S
C336 C337 1.382 . S
C336 C338 1.403 1_545 S
C337 H316 0.950 . S
C337 C336 1.382 . S
C337 C353 1.411 . S
C338 C336 1.403 1_565 S
C338 C339 1.489 . S
C338 C352 1.411 . S
C339 C338 1.489 . S
C339 C340 1.383 1_565 S
C339 C344 1.382 . S
C340 H317 0.950 . S
C340 C339 1.383 1_545 S
C340 C341 1.395 . S
C341 H318 0.950 . S
C341 C340 1.395 . S
C341 C342 1.288 1_545 S
C342 C341 1.288 1_565 S
C342 C343 1.392 . S
C343 H319 0.951 . S
C343 C342 1.392 . S
C343 C344 1.392 . S
C344 H320 0.949 . S
C344 C339 1.382 . S
C344 C343 1.392 . S
C345 C346 1.376 . S
C345 C350 1.386 1_565 S
C345 C351 1.483 . S
C346 H321 0.949 . S
C346 C345 1.376 . S
C346 C347 1.397 . S
C347 H322 0.950 . S
C347 C346 1.397 . S
C347 C348 1.412 . S
C348 C347 1.412 . S
C348 C349 1.394 1_565 S
C349 H323 0.950 . S
C349 C348 1.394 1_545 S
C349 C350 1.367 . S
C350 H324 0.950 . S
C350 C345 1.386 1_545 S
C350 C349 1.367 . S
C351 C345 1.483 . S
C351 C352 1.382 . S
C351 C353 1.403 1_565 S
C352 H325 0.950 . S
C352 C338 1.411 . S
C352 C351 1.382 . S
C353 C337 1.411 . S
C353 C351 1.403 1_545 S
C353 C354 1.489 . S
C354 C353 1.489 . S
C354 C355 1.383 1_545 S
C354 C359 1.382 . S
C355 H326 0.950 . S
C355 C354 1.383 1_565 S
C355 C356 1.395 . S
C356 H327 0.950 . S
C356 C355 1.395 . S
C356 C357 1.288 1_565 S
C357 C356 1.288 1_545 S
C357 C358 1.392 . S
C358 H328 0.951 . S
C358 C357 1.392 . S
C358 C359 1.392 . S
C359 H329 0.949 . S
C359 C354 1.382 . S
C359 C358 1.392 . S
H360 C379 0.949 . S
H361 C380 0.950 . S
H362 C382 0.950 . S
H363 C383 0.950 . S
H364 C385 0.950 . S
H365 C388 0.950 . S
H366 C389 0.950 . S
H367 C391 0.951 . S
H368 C392 0.949 . S
H369 C394 0.949 . S
H370 C395 0.950 . S
H371 C397 0.950 . S
H372 C398 0.950 . S
H373 C400 0.950 . S
H374 C403 0.950 . S
H375 C404 0.950 . S
H376 C406 0.951 . S
H377 C407 0.949 . S
C378 C379 1.376 . S
C378 C383 1.386 . S
C378 C384 1.483 . S
C379 H360 0.949 . S
C379 C378 1.376 . S
C379 C380 1.397 . S
C380 H361 0.950 . S
C380 C379 1.397 . S
C380 C381 1.391 . S
C381 C380 1.391 . S
C381 C382 1.405 . S
C382 H362 0.950 . S
C382 C381 1.405 . S
C382 C383 1.367 . S
C383 H363 0.950 . S
C383 C378 1.386 . S
C383 C382 1.367 . S
C384 C378 1.483 . S
C384 C385 1.382 . S
C384 C386 1.403 . S
C385 H364 0.950 . S
C385 C384 1.382 . S
C385 C401 1.411 . S
C386 C384 1.403 . S
C386 C387 1.489 . S
C386 C400 1.411 . S
C387 C386 1.489 . S
C387 C388 1.383 . S
C387 C392 1.382 . S
C388 H365 0.950 . S
C388 C387 1.383 . S
C388 C389 1.395 . S
C389 H366 0.950 . S
C389 C388 1.395 . S
C389 C390 1.288 . S
C390 C389 1.288 . S
C390 C391 1.392 . S
C391 H367 0.951 . S
C391 C390 1.392 . S
C391 C392 1.392 . S
C392 H368 0.949 . S
C392 C387 1.382 . S
C392 C391 1.392 . S
C393 C394 1.376 . S
C393 C398 1.386 . S
C393 C399 1.483 . S
C394 H369 0.949 . S
C394 C393 1.376 . S
C394 C395 1.397 . S
C395 H370 0.950 . S
C395 C394 1.397 . S
C395 C396 1.391 . S
C396 C395 1.391 . S
C396 C397 1.405 . S
C397 H371 0.950 . S
C397 C396 1.405 . S
C397 C398 1.367 . S
C398 H372 0.950 . S
C398 C393 1.386 . S
C398 C397 1.367 . S
C399 C393 1.483 . S
C399 C400 1.382 . S
C399 C401 1.403 . S
C400 H373 0.950 . S
C400 C386 1.411 . S
C400 C399 1.382 . S
C401 C385 1.411 . S
C401 C399 1.403 . S
C401 C402 1.489 . S
C402 C401 1.489 . S
C402 C403 1.383 . S
C402 C407 1.382 . S
C403 H374 0.950 . S
C403 C402 1.383 . S
C403 C404 1.395 . S
C404 H375 0.950 . S
C404 C403 1.395 . S
C404 C405 1.288 . S
C405 C404 1.288 . S
C405 C406 1.392 . S
C406 H376 0.951 . S
C406 C405 1.392 . S
C406 C407 1.392 . S
C407 H377 0.949 . S
C407 C402 1.382 . S
C407 C406 1.392 . S
H408 C426 0.951 . S
H409 C428 0.951 . S
H410 C430 0.950 . S
H411 C431 0.950 1_455 S
H412 C433 0.950 1_455 S
H413 C436 0.950 . S
H414 C437 0.950 . S
H415 C439 0.950 . S
H416 C440 0.950 . S
H417 C441 0.951 . S
H418 C443 0.951 . S
H419 C445 0.950 . S
H420 C446 0.950 . S
H421 C448 0.950 . S
H422 C451 0.950 . S
H423 C452 0.950 1_655 S
H424 C454 0.950 . S
H425 C455 0.950 . S
C426 H408 0.951 . S
C426 C427 1.366 . S
C426 C428 1.388 . S
C427 C426 1.366 . S
C427 C431 1.385 . S
C428 H409 0.951 . S
C428 C426 1.388 . S
C428 C429 1.366 . S
C429 C428 1.366 . S
C429 C430 1.414 1_655 S
C429 C432 1.499 . S
C430 H410 0.950 . S
C430 C429 1.414 1_455 S
C430 C431 1.374 1_455 S
C431 H411 0.950 1_655 S
C431 C427 1.385 . S
C431 C430 1.374 1_655 S
C432 C429 1.499 . S
C432 C433 1.373 . S
C432 C434 1.389 . S
C433 H412 0.950 1_655 S
C433 C432 1.373 . S
C433 C449 1.377 . S
C434 C432 1.389 . S
C434 C435 1.524 . S
C434 C448 1.377 . S
C435 C434 1.524 . S
C435 C436 1.397 . S
C435 C440 1.363 . S
C436 H413 0.950 . S
C436 C435 1.397 . S
C436 C437 1.334 . S
C437 H414 0.950 . S
C437 C436 1.334 . S
C437 C438 1.287 . S
C438 C437 1.287 . S
C438 C439 1.524 . S
C438 H457 0.913 . S
C439 H415 0.950 . S
C439 C438 1.524 . S
C439 C440 1.415 . S
C440 H416 0.950 . S
C440 C435 1.363 . S
C440 C439 1.415 . S
C441 H417 0.951 . S
C441 C442 1.366 1_455 S
C441 C443 1.388 . S
C442 C441 1.366 1_655 S
C442 C446 1.385 . S
C443 H418 0.951 . S
C443 C441 1.388 . S
C443 C444 1.366 1_455 S
C444 C443 1.366 1_655 S
C444 C445 1.414 . S
C444 C447 1.499 . S
C445 H419 0.950 . S
C445 C444 1.414 . S
C445 C446 1.374 . S
C446 H420 0.950 . S
C446 C442 1.385 . S
C446 C445 1.374 . S
C447 C444 1.499 . S
C447 C448 1.373 . S
C447 C449 1.389 . S
C448 H421 0.950 . S
C448 C434 1.377 . S
C448 C447 1.373 . S
C449 C433 1.377 . S
C449 C447 1.389 . S
C449 C450 1.524 1_655 S
C450 C449 1.524 1_455 S
C450 C451 1.397 1_455 S
C450 C455 1.363 . S
C451 H422 0.950 . S
C451 C450 1.397 1_655 S
C451 C452 1.334 1_655 S
C452 H423 0.950 1_455 S
C452 C451 1.334 1_455 S
C452 C453 1.287 . S
C453 C452 1.287 . S
C453 C454 1.524 . S
C453 H456 0.999 . S
C454 H424 0.950 . S
C454 C453 1.524 . S
C454 C455 1.415 . S
C455 H425 0.950 . S
C455 C450 1.363 . S
C455 C454 1.415 . S
H456 C453 0.999 . S
H457 C438 0.913 . S
H458 C476 0.951 . S
H459 C478 0.951 . S
H460 C480 0.950 . S
H461 C481 0.950 . S
H462 C483 0.950 . S
H463 C486 0.950 . S
H464 C487 0.950 . S
H465 C489 0.950 . S
H466 C490 0.950 . S
H467 C491 0.951 . S
H468 C493 0.951 . S
H469 C495 0.950 . S
H470 C496 0.950 . S
H471 C498 0.950 . S
H472 C501 0.950 . S
H473 C502 0.950 . S
H474 C504 0.950 . S
H475 C505 0.950 . S
C476 H458 0.951 . S
C476 C477 1.366 . S
C476 C478 1.388 . S
C477 C476 1.366 . S
C477 C481 1.385 . S
C478 H459 0.951 . S
C478 C476 1.388 . S
C478 C479 1.366 . S
C479 C478 1.366 . S
C479 C480 1.414 . S
C479 C482 1.499 . S
C480 H460 0.950 . S
C480 C479 1.414 . S
C480 C481 1.374 . S
C481 H461 0.950 . S
C481 C477 1.385 . S
C481 C480 1.374 . S
C482 C479 1.499 . S
C482 C483 1.373 1_565 S
C482 C484 1.389 . S
C483 H462 0.950 . S
C483 C482 1.373 1_545 S
C483 C499 1.377 . S
C484 C482 1.389 . S
C484 C485 1.524 . S
C484 C498 1.377 . S
C485 C484 1.524 . S
C485 C486 1.397 . S
C485 C490 1.363 . S
C486 H463 0.950 . S
C486 C485 1.397 . S
C486 C487 1.334 . S
C487 H464 0.950 . S
C487 C486 1.334 . S
C487 C488 1.287 . S
C488 C487 1.287 . S
C488 C489 1.524 . S
C488 H507 0.913 . S
C489 H465 0.950 . S
C489 C488 1.524 . S
C489 C490 1.415 . S
C490 H466 0.950 . S
C490 C485 1.363 . S
C490 C489 1.415 . S
C491 H467 0.951 . S
C491 C492 1.366 1_545 S
C491 C493 1.388 . S
C492 C491 1.366 1_565 S
C492 C496 1.385 . S
C493 H468 0.951 . S
C493 C491 1.388 . S
C493 C494 1.366 1_545 S
C494 C493 1.366 1_565 S
C494 C495 1.414 . S
C494 C497 1.499 . S
C495 H469 0.950 . S
C495 C494 1.414 . S
C495 C496 1.374 . S
C496 H470 0.950 . S
C496 C492 1.385 . S
C496 C495 1.374 . S
C497 C494 1.499 . S
C497 C498 1.373 . S
C497 C499 1.389 1_565 S
C498 H471 0.950 . S
C498 C484 1.377 . S
C498 C497 1.373 . S
C499 C483 1.377 . S
C499 C497 1.389 1_545 S
C499 C500 1.524 . S
C500 C499 1.524 . S
C500 C501 1.397 . S
C500 C505 1.363 . S
C501 H472 0.950 . S
C501 C500 1.397 . S
C501 C502 1.334 . S
C502 H473 0.950 . S
C502 C501 1.334 . S
C502 C503 1.287 . S
C503 C502 1.287 . S
C503 C504 1.524 . S
C503 H506 0.999 . S
C504 H474 0.950 . S
C504 C503 1.524 . S
C504 C505 1.415 . S
C505 H475 0.950 . S
C505 C500 1.363 . S
C505 C504 1.415 . S
H506 C503 0.999 . S
H507 C488 0.913 . S
H508 C526 0.951 . S
H509 C528 0.951 . S
H510 C530 0.950 . S
H511 C531 0.950 . S
H512 C533 0.950 . S
H513 C536 0.950 . S
H514 C537 0.950 . S
H515 C539 0.950 . S
H516 C540 0.950 . S
H517 C541 0.951 . S
H518 C543 0.951 . S
H519 C545 0.950 . S
H520 C546 0.950 . S
H521 C548 0.950 . S
H522 C551 0.950 . S
H523 C552 0.950 . S
H524 C554 0.950 . S
H525 C555 0.950 . S
C526 H508 0.951 . S
C526 C527 1.366 . S
C526 C528 1.388 . S
C527 C526 1.366 . S
C527 C531 1.385 . S
C528 H509 0.951 . S
C528 C526 1.388 . S
C528 C529 1.366 . S
C529 C528 1.366 . S
C529 C530 1.414 . S
C529 C532 1.499 . S
C530 H510 0.950 . S
C530 C529 1.414 . S
C530 C531 1.374 . S
C531 H511 0.950 . S
C531 C527 1.385 . S
C531 C530 1.374 . S
C532 C529 1.499 . S
C532 C533 1.373 . S
C532 C534 1.389 . S
C533 H512 0.950 . S
C533 C532 1.373 . S
C533 C549 1.377 . S
C534 C532 1.389 . S
C534 C535 1.524 . S
C534 C548 1.377 . S
C535 C534 1.524 . S
C535 C536 1.397 . S
C535 C540 1.363 . S
C536 H513 0.950 . S
C536 C535 1.397 . S
C536 C537 1.334 . S
C537 H514 0.950 . S
C537 C536 1.334 . S
C537 C538 1.287 . S
C538 C537 1.287 . S
C538 C539 1.524 . S
C538 H557 0.913 . S
C539 H515 0.950 . S
C539 C538 1.524 . S
C539 C540 1.415 . S
C540 H516 0.950 . S
C540 C535 1.363 . S
C540 C539 1.415 . S
C541 H517 0.951 . S
C541 C542 1.366 . S
C541 C543 1.388 . S
C542 C541 1.366 . S
C542 C546 1.385 . S
C543 H518 0.951 . S
C543 C541 1.388 . S
C543 C544 1.366 . S
C544 C543 1.366 . S
C544 C545 1.414 . S
C544 C547 1.499 . S
C545 H519 0.950 . S
C545 C544 1.414 . S
C545 C546 1.374 . S
C546 H520 0.950 . S
C546 C542 1.385 . S
C546 C545 1.374 . S
C547 C544 1.499 . S
C547 C548 1.373 . S
C547 C549 1.389 . S
C548 H521 0.950 . S
C548 C534 1.377 . S
C548 C547 1.373 . S
C549 C533 1.377 . S
C549 C547 1.389 . S
C549 C550 1.524 . S
C550 C549 1.524 . S
C550 C551 1.397 . S
C550 C555 1.363 . S
C551 H522 0.950 . S
C551 C550 1.397 . S
C551 C552 1.334 . S
C552 H523 0.950 . S
C552 C551 1.334 . S
C552 C553 1.287 . S
C553 C552 1.287 . S
C553 C554 1.524 . S
C553 H556 0.999 . S
C554 H524 0.950 . S
C554 C553 1.524 . S
C554 C555 1.415 . S
C555 H525 0.950 . S
C555 C550 1.363 . S
C555 C554 1.415 . S
H556 C553 0.999 . S
H557 C538 0.913 . S
H558 C576 0.951 . S
H559 C578 0.951 . S
H560 C580 0.950 1_655 S
H561 C581 0.950 1_655 S
H562 C583 0.950 . S
H563 C586 0.950 . S
H564 C587 0.950 . S
H565 C589 0.950 . S
H566 C590 0.950 . S
H567 C591 0.951 . S
H568 C593 0.951 . S
H569 C595 0.950 . S
H570 C596 0.950 . S
H571 C598 0.950 . S
H572 C601 0.950 . S
H573 C602 0.950 . S
H574 C604 0.950 . S
H575 C605 0.950 . S
C576 H558 0.951 . S
C576 C577 1.366 . S
C576 C578 1.388 . S
C577 C576 1.366 . S
C577 C581 1.385 . S
C578 H559 0.951 . S
C578 C576 1.388 . S
C578 C579 1.366 . S
C579 C578 1.366 . S
C579 C580 1.414 . S
C579 C582 1.499 . S
C580 H560 0.950 1_455 S
C580 C579 1.414 . S
C580 C581 1.374 . S
C581 H561 0.950 1_455 S
C581 C577 1.385 . S
C581 C580 1.374 . S
C582 C579 1.499 . S
C582 C583 1.373 1_455 S
C582 C584 1.389 . S
C583 H562 0.950 . S
C583 C582 1.373 1_655 S
C583 C599 1.377 . S
C584 C582 1.389 . S
C584 C585 1.524 . S
C584 C598 1.377 . S
C585 C584 1.524 . S
C585 C586 1.397 . S
C585 C590 1.363 . S
C586 H563 0.950 . S
C586 C585 1.397 . S
C586 C587 1.334 . S
C587 H564 0.950 . S
C587 C586 1.334 . S
C587 C588 1.287 . S
C588 C587 1.287 . S
C588 C589 1.524 . S
C588 H607 0.913 . S
C589 H565 0.950 . S
C589 C588 1.524 . S
C589 C590 1.415 . S
C590 H566 0.950 . S
C590 C585 1.363 . S
C590 C589 1.415 . S
C591 H567 0.951 . S
C591 C592 1.366 1_655 S
C591 C593 1.388 . S
C592 C591 1.366 1_455 S
C592 C596 1.385 . S
C593 H568 0.951 . S
C593 C591 1.388 . S
C593 C594 1.366 1_655 S
C594 C593 1.366 1_455 S
C594 C595 1.414 . S
C594 C597 1.499 . S
C595 H569 0.950 . S
C595 C594 1.414 . S
C595 C596 1.374 . S
C596 H570 0.950 . S
C596 C592 1.385 . S
C596 C595 1.374 . S
C597 C594 1.499 . S
C597 C598 1.373 . S
C597 C599 1.389 1_455 S
C598 H571 0.950 . S
C598 C584 1.377 . S
C598 C597 1.373 . S
C599 C583 1.377 . S
C599 C597 1.389 1_655 S
C599 C600 1.524 . S
C600 C599 1.524 . S
C600 C601 1.397 . S
C600 C605 1.363 . S
C601 H572 0.950 . S
C601 C600 1.397 . S
C601 C602 1.334 . S
C602 H573 0.950 . S
C602 C601 1.334 . S
C602 C603 1.287 . S
C603 C602 1.287 . S
C603 C604 1.524 . S
C603 H606 0.999 . S
C604 H574 0.950 . S
C604 C603 1.524 . S
C604 C605 1.415 . S
C605 H575 0.950 . S
C605 C600 1.363 . S
C605 C604 1.415 . S
H606 C603 0.999 . S
H607 C588 0.913 . S
H608 C626 0.951 . S
H609 C628 0.951 . S
H610 C630 0.950 . S
H611 C631 0.950 . S
H612 C633 0.950 . S
H613 C636 0.950 . S
H614 C637 0.950 . S
H615 C639 0.950 . S
H616 C640 0.950 . S
H617 C641 0.951 . S
H618 C643 0.951 . S
H619 C645 0.950 . S
H620 C646 0.950 . S
H621 C648 0.950 . S
H622 C651 0.950 . S
H623 C652 0.950 . S
H624 C654 0.950 1_545 S
H625 C655 0.950 . S
C626 H608 0.951 . S
C626 C627 1.366 . S
C626 C628 1.388 . S
C627 C626 1.366 . S
C627 C631 1.385 . S
C628 H609 0.951 . S
C628 C626 1.388 . S
C628 C629 1.366 . S
C629 C628 1.366 . S
C629 C630 1.414 . S
C629 C632 1.499 . S
C630 H610 0.950 . S
C630 C629 1.414 . S
C630 C631 1.374 . S
C631 H611 0.950 . S
C631 C627 1.385 . S
C631 C630 1.374 . S
C632 C629 1.499 . S
C632 C633 1.373 . S
C632 C634 1.389 . S
C633 H612 0.950 . S
C633 C632 1.373 . S
C633 C649 1.377 . S
C634 C632 1.389 . S
C634 C635 1.524 . S
C634 C648 1.377 . S
C635 C634 1.524 . S
C635 C636 1.397 . S
C635 C640 1.363 . S
C636 H613 0.950 . S
C636 C635 1.397 . S
C636 C637 1.334 . S
C637 H614 0.950 . S
C637 C636 1.334 . S
C637 C638 1.287 . S
C638 C637 1.287 . S
C638 C639 1.524 . S
C638 H657 0.913 . S
C639 H615 0.950 . S
C639 C638 1.524 . S
C639 C640 1.415 . S
C640 H616 0.950 . S
C640 C635 1.363 . S
C640 C639 1.415 . S
C641 H617 0.951 . S
C641 C642 1.366 . S
C641 C643 1.388 . S
C642 C641 1.366 . S
C642 C646 1.385 1_545 S
C643 H618 0.951 . S
C643 C641 1.388 . S
C643 C644 1.366 . S
C644 C643 1.366 . S
C644 C645 1.414 1_545 S
C644 C647 1.499 . S
C645 H619 0.950 . S
C645 C644 1.414 1_565 S
C645 C646 1.374 . S
C646 H620 0.950 . S
C646 C642 1.385 1_565 S
C646 C645 1.374 . S
C647 C644 1.499 . S
C647 C648 1.373 . S
C647 C649 1.389 . S
C648 H621 0.950 . S
C648 C634 1.377 . S
C648 C647 1.373 . S
C649 C633 1.377 . S
C649 C647 1.389 . S
C649 C650 1.524 1_545 S
C650 C649 1.524 1_565 S
C650 C651 1.397 . S
C650 C655 1.363 1_565 S
C651 H622 0.950 . S
C651 C650 1.397 . S
C651 C652 1.334 . S
C652 H623 0.950 . S
C652 C651 1.334 . S
C652 C653 1.287 . S
C653 C652 1.287 . S
C653 C654 1.524 . S
C653 H656 0.999 . S
C654 H624 0.950 1_565 S
C654 C653 1.524 . S
C654 C655 1.415 1_565 S
C655 H625 0.950 . S
C655 C650 1.363 1_545 S
C655 C654 1.415 1_545 S
H656 C653 0.999 . S
H657 C638 0.913 . S
H658 C676 0.951 . S
H659 C678 0.951 . S
H660 C680 0.950 . S
H661 C681 0.950 . S
H662 C683 0.950 . S
H663 C686 0.950 . S
H664 C687 0.950 . S
H665 C689 0.950 . S
H666 C690 0.950 . S
H667 C691 0.951 . S
H668 C693 0.951 . S
H669 C695 0.950 . S
H670 C696 0.950 . S
H671 C698 0.950 . S
H672 C701 0.950 . S
H673 C702 0.950 . S
H674 C704 0.950 . S
H675 C705 0.950 . S
C676 H658 0.951 . S
C676 C677 1.366 . S
C676 C678 1.388 . S
C677 C676 1.366 . S
C677 C681 1.385 . S
C678 H659 0.951 . S
C678 C676 1.388 . S
C678 C679 1.366 . S
C679 C678 1.366 . S
C679 C680 1.414 . S
C679 C682 1.499 . S
C680 H660 0.950 . S
C680 C679 1.414 . S
C680 C681 1.374 . S
C681 H661 0.950 . S
C681 C677 1.385 . S
C681 C680 1.374 . S
C682 C679 1.499 . S
C682 C683 1.373 . S
C682 C684 1.389 . S
C683 H662 0.950 . S
C683 C682 1.373 . S
C683 C699 1.377 . S
C684 C682 1.389 . S
C684 C685 1.524 . S
C684 C698 1.377 . S
C685 C684 1.524 . S
C685 C686 1.397 . S
C685 C690 1.363 . S
C686 H663 0.950 . S
C686 C685 1.397 . S
C686 C687 1.334 . S
C687 H664 0.950 . S
C687 C686 1.334 . S
C687 C688 1.287 . S
C688 C687 1.287 . S
C688 C689 1.524 . S
C688 H707 0.913 . S
C689 H665 0.950 . S
C689 C688 1.524 . S
C689 C690 1.415 . S
C690 H666 0.950 . S
C690 C685 1.363 . S
C690 C689 1.415 . S
C691 H667 0.951 . S
C691 C692 1.366 . S
C691 C693 1.388 . S
C692 C691 1.366 . S
C692 C696 1.385 . S
C693 H668 0.951 . S
C693 C691 1.388 . S
C693 C694 1.366 . S
C694 C693 1.366 . S
C694 C695 1.414 . S
C694 C697 1.499 . S
C695 H669 0.950 . S
C695 C694 1.414 . S
C695 C696 1.374 . S
C696 H670 0.950 . S
C696 C692 1.385 . S
C696 C695 1.374 . S
C697 C694 1.499 . S
C697 C698 1.373 . S
C697 C699 1.389 . S
C698 H671 0.950 . S
C698 C684 1.377 . S
C698 C697 1.373 . S
C699 C683 1.377 . S
C699 C697 1.389 . S
C699 C700 1.524 . S
C700 C699 1.524 . S
C700 C701 1.397 . S
C700 C705 1.363 . S
C701 H672 0.950 . S
C701 C700 1.397 . S
C701 C702 1.334 . S
C702 H673 0.950 . S
C702 C701 1.334 . S
C702 C703 1.287 . S
C703 C702 1.287 . S
C703 C704 1.524 . S
C703 H706 0.999 . S
C704 H674 0.950 . S
C704 C703 1.524 . S
C704 C705 1.415 . S
C705 H675 0.950 . S
C705 C700 1.363 . S
C705 C704 1.415 . S
H706 C703 0.999 . S
H707 C688 0.913 . S
H708 C726 0.951 . S
H709 C728 0.951 . S
H710 C730 0.950 . S
H711 C731 0.950 . S
H712 C733 0.950 . S
H713 C736 0.950 . S
H714 C737 0.950 . S
H715 C739 0.950 . S
H716 C740 0.950 . S
H717 C741 0.951 1_565 S
H718 C743 0.951 . S
H719 C745 0.950 . S
H720 C746 0.950 . S
H721 C748 0.950 . S
H722 C751 0.950 . S
H723 C752 0.950 . S
H724 C754 0.950 . S
H725 C755 0.950 . S
C726 H708 0.951 . S
C726 C727 1.366 . S
C726 C728 1.388 . S
C727 C726 1.366 . S
C727 C731 1.385 . S
C728 H709 0.951 . S
C728 C726 1.388 . S
C728 C729 1.366 . S
C729 C728 1.366 . S
C729 C730 1.414 . S
C729 C732 1.499 . S
C730 H710 0.950 . S
C730 C729 1.414 . S
C730 C731 1.374 . S
C731 H711 0.950 . S
C731 C727 1.385 . S
C731 C730 1.374 . S
C732 C729 1.499 . S
C732 C733 1.373 1_545 S
C732 C734 1.389 . S
C733 H712 0.950 . S
C733 C732 1.373 1_565 S
C733 C749 1.377 . S
C734 C732 1.389 . S
C734 C735 1.524 . S
C734 C748 1.377 . S
C735 C734 1.524 . S
C735 C736 1.397 . S
C735 C740 1.363 . S
C736 H713 0.950 . S
C736 C735 1.397 . S
C736 C737 1.334 . S
C737 H714 0.950 . S
C737 C736 1.334 . S
C737 C738 1.287 . S
C738 C737 1.287 . S
C738 C739 1.524 . S
C738 H757 0.913 . S
C739 H715 0.950 . S
C739 C738 1.524 . S
C739 C740 1.415 . S
C740 H716 0.950 . S
C740 C735 1.363 . S
C740 C739 1.415 . S
C741 H717 0.951 1_545 S
C741 C742 1.366 . S
C741 C743 1.388 . S
C742 C741 1.366 . S
C742 C746 1.385 . S
C743 H718 0.951 . S
C743 C741 1.388 . S
C743 C744 1.366 . S
C744 C743 1.366 . S
C744 C745 1.414 . S
C744 C747 1.499 . S
C745 H719 0.950 . S
C745 C744 1.414 . S
C745 C746 1.374 . S
C746 H720 0.950 . S
C746 C742 1.385 . S
C746 C745 1.374 . S
C747 C744 1.499 . S
C747 C748 1.373 . S
C747 C749 1.389 1_545 S
C748 H721 0.950 . S
C748 C734 1.377 . S
C748 C747 1.373 . S
C749 C733 1.377 . S
C749 C747 1.389 1_565 S
C749 C750 1.524 . S
C750 C749 1.524 . S
C750 C751 1.397 . S
C750 C755 1.363 . S
C751 H722 0.950 . S
C751 C750 1.397 . S
C751 C752 1.334 . S
C752 H723 0.950 . S
C752 C751 1.334 . S
C752 C753 1.287 . S
C753 C752 1.287 . S
C753 C754 1.524 . S
C753 H756 0.999 . S
C754 H724 0.950 . S
C754 C753 1.524 . S
C754 C755 1.415 . S
C755 H725 0.950 . S
C755 C750 1.363 . S
C755 C754 1.415 . S
H756 C753 0.999 . S
H757 C738 0.913 . S
H758 C776 0.951 . S
H759 C778 0.951 . S
H760 C780 0.950 . S
H761 C781 0.950 1_554 S
H762 C783 0.950 . S
H763 C786 0.950 . S
H764 C787 0.950 1_554 S
H765 C789 0.950 . S
H766 C790 0.950 . S
H767 C791 0.951 . S
H768 C793 0.951 . S
H769 C795 0.950 . S
H770 C796 0.950 . S
H771 C798 0.950 . S
H772 C801 0.950 . S
H773 C802 0.950 . S
H774 C804 0.950 . S
H775 C805 0.950 . S
C776 H758 0.951 . S
C776 C777 1.366 . S
C776 C778 1.388 . S
C777 C776 1.366 . S
C777 C781 1.385 . S
C778 H759 0.951 . S
C778 C776 1.388 . S
C778 C779 1.366 . S
C779 C778 1.366 . S
C779 C780 1.414 . S
C779 C782 1.499 . S
C780 H760 0.950 . S
C780 C779 1.414 . S
C780 C781 1.374 . S
C781 H761 0.950 1_556 S
C781 C777 1.385 . S
C781 C780 1.374 . S
C782 C779 1.499 . S
C782 C783 1.373 . S
C782 C784 1.389 . S
C783 H762 0.950 . S
C783 C782 1.373 . S
C783 C799 1.377 . S
C784 C782 1.389 . S
C784 C785 1.524 . S
C784 C798 1.377 . S
C785 C784 1.524 . S
C785 C786 1.397 . S
C785 C790 1.363 . S
C786 H763 0.950 . S
C786 C785 1.397 . S
C786 C787 1.334 . S
C787 H764 0.950 1_556 S
C787 C786 1.334 . S
C787 C788 1.287 . S
C788 C787 1.287 . S
C788 C789 1.524 . S
C788 H807 0.913 . S
C789 H765 0.950 . S
C789 C788 1.524 . S
C789 C790 1.415 . S
C790 H766 0.950 . S
C790 C785 1.363 . S
C790 C789 1.415 . S
C791 H767 0.951 . S
C791 C792 1.366 . S
C791 C793 1.388 . S
C792 C791 1.366 . S
C792 C796 1.385 . S
C793 H768 0.951 . S
C793 C791 1.388 . S
C793 C794 1.366 . S
C794 C793 1.366 . S
C794 C795 1.414 . S
C794 C797 1.499 . S
C795 H769 0.950 . S
C795 C794 1.414 . S
C795 C796 1.374 . S
C796 H770 0.950 . S
C796 C792 1.385 . S
C796 C795 1.374 . S
C797 C794 1.499 . S
C797 C798 1.373 . S
C797 C799 1.389 . S
C798 H771 0.950 . S
C798 C784 1.377 . S
C798 C797 1.373 . S
C799 C783 1.377 . S
C799 C797 1.389 . S
C799 C800 1.524 . S
C800 C799 1.524 . S
C800 C801 1.397 . S
C800 C805 1.363 . S
C801 H772 0.950 . S
C801 C800 1.397 . S
C801 C802 1.334 . S
C802 H773 0.950 . S
C802 C801 1.334 . S
C802 C803 1.287 . S
C803 C802 1.287 . S
C803 C804 1.524 . S
C803 H806 0.999 . S
C804 H774 0.950 . S
C804 C803 1.524 . S
C804 C805 1.415 . S
C805 H775 0.950 . S
C805 C800 1.363 . S
C805 C804 1.415 . S
H806 C803 0.999 . S
H807 C788 0.913 . S
H808 C826 0.951 . S
H809 C828 0.951 . S
H810 C830 0.950 1_455 S
H811 C831 0.950 1_455 S
H812 C833 0.950 . S
H813 C836 0.950 . S
H814 C837 0.950 . S
H815 C839 0.950 . S
H816 C840 0.950 . S
H817 C841 0.951 . S
H818 C843 0.951 . S
H819 C845 0.950 . S
H820 C846 0.950 . S
H821 C848 0.950 . S
H822 C851 0.950 . S
H823 C852 0.950 . S
H824 C854 0.950 . S
H825 C855 0.950 . S
C826 H808 0.951 . S
C826 C827 1.366 . S
C826 C828 1.388 . S
C827 C826 1.366 . S
C827 C831 1.385 . S
C828 H809 0.951 . S
C828 C826 1.388 . S
C828 C829 1.366 . S
C829 C828 1.366 . S
C829 C830 1.414 . S
C829 C832 1.499 . S
C830 H810 0.950 1_655 S
C830 C829 1.414 . S
C830 C831 1.374 . S
C831 H811 0.950 1_655 S
C831 C827 1.385 . S
C831 C830 1.374 . S
C832 C829 1.499 . S
C832 C833 1.373 1_655 S
C832 C834 1.389 . S
C833 H812 0.950 . S
C833 C832 1.373 1_455 S
C833 C849 1.377 . S
C834 C832 1.389 . S
C834 C835 1.524 . S
C834 C848 1.377 . S
C835 C834 1.524 . S
C835 C836 1.397 . S
C835 C840 1.363 . S
C836 H813 0.950 . S
C836 C835 1.397 . S
C836 C837 1.334 . S
C837 H814 0.950 . S
C837 C836 1.334 . S
C837 C838 1.287 . S
C838 C837 1.287 . S
C838 C839 1.524 . S
C838 H857 0.913 . S
C839 H815 0.950 . S
C839 C838 1.524 . S
C839 C840 1.415 . S
C840 H816 0.950 . S
C840 C835 1.363 . S
C840 C839 1.415 . S
C841 H817 0.951 . S
C841 C842 1.366 1_455 S
C841 C843 1.388 . S
C842 C841 1.366 1_655 S
C842 C846 1.385 . S
C843 H818 0.951 . S
C843 C841 1.388 . S
C843 C844 1.366 1_455 S
C844 C843 1.366 1_655 S
C844 C845 1.414 . S
C844 C847 1.499 . S
C845 H819 0.950 . S
C845 C844 1.414 . S
C845 C846 1.374 . S
C846 H820 0.950 . S
C846 C842 1.385 . S
C846 C845 1.374 . S
C847 C844 1.499 . S
C847 C848 1.373 . S
C847 C849 1.389 1_655 S
C848 H821 0.950 . S
C848 C834 1.377 . S
C848 C847 1.373 . S
C849 C833 1.377 . S
C849 C847 1.389 1_455 S
C849 C850 1.524 . S
C850 C849 1.524 . S
C850 C851 1.397 . S
C850 C855 1.363 . S
C851 H822 0.950 . S
C851 C850 1.397 . S
C851 C852 1.334 . S
C852 H823 0.950 . S
C852 C851 1.334 . S
C852 C853 1.287 . S
C853 C852 1.287 . S
C853 C854 1.524 . S
C853 H856 0.999 . S
C854 H824 0.950 . S
C854 C853 1.524 . S
C854 C855 1.415 . S
C855 H825 0.950 . S
C855 C850 1.363 . S
C855 C854 1.415 . S
H856 C853 0.999 . S
H857 C838 0.913 . S
H858 C876 0.951 . S
H859 C878 0.951 . S
H860 C880 0.950 . S
H861 C881 0.950 . S
H862 C883 0.950 . S
H863 C886 0.950 . S
H864 C887 0.950 . S
H865 C889 0.950 . S
H866 C890 0.950 . S
H867 C891 0.953 . S
H868 C893 0.951 . S
H869 C895 0.950 . S
H870 C896 0.950 . S
H871 C898 0.950 . S
H872 C901 0.950 . S
H873 C902 0.950 . S
H874 C904 0.950 . S
H875 C905 0.950 . S
C876 H858 0.951 . S
C876 C877 1.366 . S
C876 C878 1.388 . S
C877 C876 1.366 . S
C877 C881 1.385 . S
C878 H859 0.951 . S
C878 C876 1.388 . S
C878 C879 1.366 . S
C879 C878 1.366 . S
C879 C880 1.414 . S
C879 C882 1.499 . S
C880 H860 0.950 . S
C880 C879 1.414 . S
C880 C881 1.374 . S
C881 H861 0.950 . S
C881 C877 1.385 . S
C881 C880 1.374 . S
C882 C879 1.499 . S
C882 C883 1.373 . S
C882 C884 1.387 1_565 S
C883 H862 0.950 . S
C883 C882 1.373 . S
C883 C899 1.377 . S
C884 C882 1.387 1_545 S
C884 C885 1.534 . S
C884 C898 1.371 . S
C885 C884 1.534 . S
C885 C886 1.397 . S
C885 C890 1.363 . S
C886 H863 0.950 . S
C886 C885 1.397 . S
C886 C887 1.334 . S
C887 H864 0.950 . S
C887 C886 1.334 . S
C887 C888 1.287 . S
C888 C887 1.287 . S
C888 C889 1.524 . S
C888 H907 0.913 . S
C889 H865 0.950 . S
C889 C888 1.524 . S
C889 C890 1.415 . S
C890 H866 0.950 . S
C890 C885 1.363 . S
C890 C889 1.415 . S
C891 H867 0.953 . S
C891 C892 1.362 1_545 S
C891 C893 1.390 1_545 S
C892 C891 1.362 1_565 S
C892 C896 1.385 . S
C893 H868 0.951 . S
C893 C891 1.390 1_565 S
C893 C894 1.366 . S
C894 C893 1.366 . S
C894 C895 1.414 . S
C894 C897 1.499 . S
C895 H869 0.950 . S
C895 C894 1.414 . S
C895 C896 1.374 . S
C896 H870 0.950 . S
C896 C892 1.385 . S
C896 C895 1.374 . S
C897 C894 1.499 . S
C897 C898 1.373 1_565 S
C897 C899 1.389 . S
C898 H871 0.950 . S
C898 C884 1.371 . S
C898 C897 1.373 1_545 S
C899 C883 1.377 . S
C899 C897 1.389 . S
C899 C900 1.524 . S
C900 C899 1.524 . S
C900 C901 1.397 . S
C900 C905 1.363 . S
C901 H872 0.950 . S
C901 C900 1.397 . S
C901 C902 1.334 . S
C902 H873 0.950 . S
C902 C901 1.334 . S
C902 C903 1.287 . S
C903 C902 1.287 . S
C903 C904 1.524 . S
C903 H906 0.999 . S
C904 H874 0.950 . S
C904 C903 1.524 . S
C904 C905 1.415 . S
C905 H875 0.950 . S
C905 C900 1.363 . S
C905 C904 1.415 . S
H906 C903 0.999 . S
H907 C888 0.913 . S
H908 C926 0.951 . S
H909 C928 0.951 . S
H910 C930 0.950 . S
H911 C931 0.950 . S
H912 C933 0.950 . S
H913 C936 0.950 . S
H914 C937 0.950 . S
H915 C939 0.950 . S
H916 C940 0.950 . S
H917 C941 0.951 . S
H918 C943 0.951 . S
H919 C945 0.950 . S
H920 C946 0.950 . S
H921 C948 0.950 . S
H922 C951 0.950 . S
H923 C952 0.950 . S
H924 C954 0.950 . S
H925 C955 0.950 . S
C926 H908 0.951 . S
C926 C927 1.366 . S
C926 C928 1.388 . S
C927 C926 1.366 . S
C927 C931 1.385 . S
C928 H909 0.951 . S
C928 C926 1.388 . S
C928 C929 1.366 . S
C929 C928 1.366 . S
C929 C930 1.414 . S
C929 C932 1.499 . S
C930 H910 0.950 . S
C930 C929 1.414 . S
C930 C931 1.374 . S
C931 H911 0.950 . S
C931 C927 1.385 . S
C931 C930 1.374 . S
C932 C929 1.499 . S
C932 C933 1.373 . S
C932 C934 1.389 . S
C933 H912 0.950 . S
C933 C932 1.373 . S
C933 C949 1.377 . S
C934 C932 1.389 . S
C934 C935 1.524 . S
C934 C948 1.377 . S
C935 C934 1.524 . S
C935 C936 1.397 . S
C935 C940 1.363 . S
C936 H913 0.950 . S
C936 C935 1.397 . S
C936 C937 1.334 . S
C937 H914 0.950 . S
C937 C936 1.334 . S
C937 C938 1.287 . S
C938 C937 1.287 . S
C938 C939 1.524 . S
C938 H957 0.913 . S
C939 H915 0.950 . S
C939 C938 1.524 . S
C939 C940 1.415 . S
C940 H916 0.950 . S
C940 C935 1.363 . S
C940 C939 1.415 . S
C941 H917 0.951 . S
C941 C942 1.366 . S
C941 C943 1.388 . S
C942 C941 1.366 . S
C942 C946 1.385 . S
C943 H918 0.951 . S
C943 C941 1.388 . S
C943 C944 1.366 . S
C944 C943 1.366 . S
C944 C945 1.414 . S
C944 C947 1.499 . S
C945 H919 0.950 . S
C945 C944 1.414 . S
C945 C946 1.374 . S
C946 H920 0.950 . S
C946 C942 1.385 . S
C946 C945 1.374 . S
C947 C944 1.499 . S
C947 C948 1.373 . S
C947 C949 1.389 . S
C948 H921 0.950 . S
C948 C934 1.377 . S
C948 C947 1.373 . S
C949 C933 1.377 . S
C949 C947 1.389 . S
C949 C950 1.524 . S
C950 C949 1.524 . S
C950 C951 1.397 . S
C950 C955 1.363 . S
C951 H922 0.950 . S
C951 C950 1.397 . S
C951 C952 1.334 . S
C952 H923 0.950 . S
C952 C951 1.334 . S
C952 C953 1.287 . S
C953 C952 1.287 . S
C953 C954 1.524 . S
C953 H956 0.999 . S
C954 H924 0.950 . S
C954 C953 1.524 . S
C954 C955 1.415 . S
C955 H925 0.950 . S
C955 C950 1.363 . S
C955 C954 1.415 . S
H956 C953 0.999 . S
H957 C938 0.913 . S
H958 C976 0.951 . S
H959 C978 0.951 1_655 S
H960 C980 0.950 . S
H961 C981 0.950 . S
H962 C983 0.950 . S
H963 C986 0.950 . S
H964 C987 0.950 . S
H965 C989 0.950 . S
H966 C990 0.950 . S
H967 C991 0.951 . S
H968 C993 0.951 . S
H969 C995 0.950 . S
H970 C996 0.950 . S
H971 C998 0.950 . S
H972 C1001 0.950 . S
H973 C1002 0.950 . S
H974 C1004 0.950 . S
H975 C1005 0.950 . S
C976 H958 0.951 . S
C976 C977 1.366 . S
C976 C978 1.388 . S
C977 C976 1.366 . S
C977 C981 1.385 . S
C978 H959 0.951 1_455 S
C978 C976 1.388 . S
C978 C979 1.366 . S
C979 C978 1.366 . S
C979 C980 1.414 . S
C979 C982 1.499 . S
C980 H960 0.950 . S
C980 C979 1.414 . S
C980 C981 1.374 . S
C981 H961 0.950 . S
C981 C977 1.385 . S
C981 C980 1.374 . S
C982 C979 1.499 . S
C982 C983 1.373 . S
C982 C984 1.389 1_455 S
C983 H962 0.950 . S
C983 C982 1.373 . S
C983 C999 1.377 . S
C984 C982 1.389 1_655 S
C984 C985 1.524 . S
C984 C998 1.377 . S
C985 C984 1.524 . S
C985 C986 1.397 . S
C985 C990 1.363 . S
C986 H963 0.950 . S
C986 C985 1.397 . S
C986 C987 1.334 . S
C987 H964 0.950 . S
C987 C986 1.334 . S
C987 C988 1.287 . S
C988 C987 1.287 . S
C988 C989 1.524 . S
C988 H1007 0.913 . S
C989 H965 0.950 . S
C989 C988 1.524 . S
C989 C990 1.415 . S
C990 H966 0.950 . S
C990 C985 1.363 . S
C990 C989 1.415 . S
C991 H967 0.951 . S
C991 C992 1.366 . S
C991 C993 1.388 . S
C992 C991 1.366 . S
C992 C996 1.385 1_455 S
C993 H968 0.951 . S
C993 C991 1.388 . S
C993 C994 1.366 . S
C994 C993 1.366 . S
C994 C995 1.414 1_455 S
C994 C997 1.499 . S
C995 H969 0.950 . S
C995 C994 1.414 1_655 S
C995 C996 1.374 . S
C996 H970 0.950 . S
C996 C992 1.385 1_655 S
C996 C995 1.374 . S
C997 C994 1.499 . S
C997 C998 1.373 1_455 S
C997 C999 1.389 . S
C998 H971 0.950 . S
C998 C984 1.377 . S
C998 C997 1.373 1_655 S
C999 C983 1.377 . S
C999 C997 1.389 . S
C999 C1000 1.524 . S
C1000 C999 1.524 . S
C1000 C1001 1.397 . S
C1000 C1005 1.363 . S
C1001 H972 0.950 . S
C1001 C1000 1.397 . S
C1001 C1002 1.334 . S
C1002 H973 0.950 . S
C1002 C1001 1.334 . S
C1002 C1003 1.287 . S
C1003 C1002 1.287 . S
C1003 C1004 1.524 . S
C1003 H1006 0.999 . S
C1004 H974 0.950 . S
C1004 C1003 1.524 . S
C1004 C1005 1.415 . S
C1005 H975 0.950 . S
C1005 C1000 1.363 . S
C1005 C1004 1.415 . S
H1006 C1003 0.999 . S
H1007 C988 0.913 . S
C442 C285 1.423 1_655 S
C427 C29 1.407 . S
C477 C137 1.407 . S
C492 C333 1.422 1_565 S
C527 C225 1.407 . S
C542 C405 1.408 . S
C577 C49 1.407 . S
C592 C309 1.408 . S
C642 C357 1.408 . S
C627 C117 1.407 . S
C677 C205 1.407 . S
C692 C381 1.422 . S
C742 C342 1.422 1_545 S
C727 C233 1.407 . S
C777 C57 1.407 1_556 S
C792 C396 1.417 . S
C842 C300 1.426 . S
C827 C108 1.407 . S
C892 C348 1.410 . S
C877 C196 1.408 . S
C942 C390 1.422 . S
C927 C20 1.407 1_556 S
C977 C145 1.407 . S
C992 C294 1.422 1_455 S
