# Generated by pormake.
# Topology apo, (3,6)-cn, num edge types: 1
# Building blocks:
#     Node 0, Type 0, BuildingBlock: ESEHIV_clean_linker_0, # of connection points: 3
#     Node 1, Type 0, BuildingBlock: ESEHIV_clean_linker_0, # of connection points: 3
#     Node 2, Type 0, BuildingBlock: ESEHIV_clean_linker_0, # of connection points: 3
#     Node 3, Type 0, BuildingBlock: ESEHIV_clean_linker_0, # of connection points: 3
#     Node 4, Type 0, BuildingBlock: ESEHIV_clean_linker_0, # of connection points: 3
#     Node 5, Type 0, BuildingBlock: ESEHIV_clean_linker_0, # of connection points: 3
#     Node 6, Type 0, BuildingBlock: ESEHIV_clean_linker_0, # of connection points: 3
#     Node 7, Type 0, BuildingBlock: ESEHIV_clean_linker_0, # of connection points: 3
#     Node 8, Type 1, BuildingBlock: KUMBUR_clean_sbu_1, # of connection points: 6
#     Node 9, Type 1, BuildingBlock: KUMBUR_clean_sbu_1, # of connection points: 6
#     Node 10, Type 1, BuildingBlock: KUMBUR_clean_sbu_1, # of connection points: 6
#     Node 11, Type 1, BuildingBlock: KUMBUR_clean_sbu_1, # of connection points: 6
#     Edge 12, Type (0, 1), BuildingBlock: TEMPAE_clean_linker_10, # of connection points: 2
#     Edge 13, Type (0, 1), BuildingBlock: TEMPAE_clean_linker_10, # of connection points: 2
#     Edge 14, Type (0, 1), BuildingBlock: TEMPAE_clean_linker_10, # of connection points: 2
#     Edge 15, Type (0, 1), BuildingBlock: TEMPAE_clean_linker_10, # of connection points: 2
#     Edge 16, Type (0, 1), BuildingBlock: TEMPAE_clean_linker_10, # of connection points: 2
#     Edge 17, Type (0, 1), BuildingBlock: TEMPAE_clean_linker_10, # of connection points: 2
#     Edge 18, Type (0, 1), BuildingBlock: TEMPAE_clean_linker_10, # of connection points: 2
#     Edge 19, Type (0, 1), BuildingBlock: TEMPAE_clean_linker_10, # of connection points: 2
#     Edge 20, Type (0, 1), BuildingBlock: TEMPAE_clean_linker_10, # of connection points: 2
#     Edge 21, Type (0, 1), BuildingBlock: TEMPAE_clean_linker_10, # of connection points: 2
#     Edge 22, Type (0, 1), BuildingBlock: TEMPAE_clean_linker_10, # of connection points: 2
#     Edge 23, Type (0, 1), BuildingBlock: TEMPAE_clean_linker_10, # of connection points: 2
#     Edge 24, Type (0, 1), BuildingBlock: TEMPAE_clean_linker_10, # of connection points: 2
#     Edge 25, Type (0, 1), BuildingBlock: TEMPAE_clean_linker_10, # of connection points: 2
#     Edge 26, Type (0, 1), BuildingBlock: TEMPAE_clean_linker_10, # of connection points: 2
#     Edge 27, Type (0, 1), BuildingBlock: TEMPAE_clean_linker_10, # of connection points: 2
#     Edge 28, Type (0, 1), BuildingBlock: TEMPAE_clean_linker_10, # of connection points: 2
#     Edge 29, Type (0, 1), BuildingBlock: TEMPAE_clean_linker_10, # of connection points: 2
#     Edge 30, Type (0, 1), BuildingBlock: TEMPAE_clean_linker_10, # of connection points: 2
#     Edge 31, Type (0, 1), BuildingBlock: TEMPAE_clean_linker_10, # of connection points: 2
#     Edge 32, Type (0, 1), BuildingBlock: TEMPAE_clean_linker_10, # of connection points: 2
#     Edge 33, Type (0, 1), BuildingBlock: TEMPAE_clean_linker_10, # of connection points: 2
#     Edge 34, Type (0, 1), BuildingBlock: TEMPAE_clean_linker_10, # of connection points: 2
#     Edge 35, Type (0, 1), BuildingBlock: TEMPAE_clean_linker_10, # of connection points: 2
# Relax obj value: 0.008
# Max RMSD: 0.113
# Mean RMSD: 0.086
data_MOF--net-apo--node1-KUMBUR_clean_sbu_1--node2-ESEHIV_clean_linker_0--edge1-TEMPAE_clean_linker_10
_symmetry_space_group_name_H-M    P1
_symmetry_Int_Tables_number       1
_symmetry_cell_setting            triclinic
loop_
_symmetry_equiv_pos_as_xyz
'x, y, z'
_cell_length_a     22.977224
_cell_length_b     40.531278
_cell_length_c     51.735453
_cell_angle_alpha  89.850532
_cell_angle_beta   89.843615
_cell_angle_gamma 90.112202
loop_
_atom_site_label
_atom_site_type_symbol
_atom_site_fract_x
_atom_site_fract_y
_atom_site_fract_z
_atom_type_partial_charge
H0 H 0.33404 0.42619 0.42622 0.0
H1 H 0.25077 0.38979 0.3583 0.0
H2 H 0.23852 0.3349 0.42978 0.0
C3 C 0.30739 0.40752 0.41702 0.0
C4 C 0.28914 0.37957 0.43096 0.0
C5 C 0.29202 0.41134 0.39109 0.0
C6 C 0.25891 0.3871 0.3788 0.0
C7 C 0.23879 0.35919 0.39243 0.0
C8 C 0.2535 0.35603 0.41878 0.0
H9 H 0.18688 0.07094 0.92685 0.0
H10 H 0.28253 0.10768 0.86113 0.0
H11 H 0.25947 0.16876 0.92719 0.0
C12 C 0.2111 0.09018 0.91734 0.0
C13 C 0.22338 0.11951 0.9311 0.0
C14 C 0.22949 0.08567 0.89146 0.0
C15 C 0.26418 0.11065 0.88022 0.0
C16 C 0.27397 0.14061 0.89293 0.0
C17 C 0.25269 0.1451 0.91802 0.0
H18 H 0.8341 0.07657 0.58964 0.0
H19 H 0.73673 0.11143 0.65517 0.0
H20 H 0.75054 0.17147 0.58776 0.0
C21 C 0.80809 0.09513 0.59888 0.0
C22 C 0.79291 0.12365 0.5847 0.0
C23 C 0.79072 0.09057 0.62482 0.0
C24 C 0.75422 0.11454 0.6359 0.0
C25 C 0.74066 0.14365 0.62276 0.0
C26 C 0.75997 0.14829 0.59728 0.0
H27 H 0.68325 0.43075 0.09047 0.0
H28 H 0.76092 0.38639 0.15663 0.0
H29 H 0.7579 0.33256 0.08581 0.0
C30 C 0.70498 0.40955 0.09855 0.0
C31 C 0.71935 0.38176 0.08334 0.0
C32 C 0.71855 0.41072 0.1249 0.0
C33 C 0.75016 0.38523 0.13625 0.0
C34 C 0.76515 0.35743 0.12181 0.0
C35 C 0.7482 0.35523 0.09582 0.0
H36 H 0.68023 0.57408 0.58572 0.0
H37 H 0.7638 0.66883 0.58469 0.0
H38 H 0.75112 0.6146 0.65592 0.0
C39 C 0.70291 0.59342 0.59604 0.0
C40 C 0.71378 0.5903 0.62272 0.0
C41 C 0.72074 0.62171 0.58246 0.0
C42 C 0.75107 0.64681 0.59524 0.0
C43 C 0.76225 0.64429 0.6218 0.0
C44 C 0.74351 0.61604 0.63531 0.0
H45 H 0.81589 0.92884 0.08725 0.0
H46 H 0.7559 0.8851 0.15786 0.0
H47 H 0.74621 0.82939 0.08874 0.0
C48 C 0.79928 0.90748 0.09727 0.0
C49 C 0.78677 0.87789 0.08371 0.0
C50 C 0.79019 0.91029 0.12413 0.0
C51 C 0.76279 0.88415 0.13716 0.0
C52 C 0.74471 0.85607 0.12387 0.0
C53 C 0.75779 0.85254 0.09758 0.0
H54 H 0.1717 0.92478 0.42606 0.0
H55 H 0.26275 0.83191 0.42645 0.0
H56 H 0.25711 0.89067 0.35716 0.0
C57 C 0.19759 0.90632 0.41619 0.0
C58 C 0.2129 0.9112 0.39024 0.0
C59 C 0.21584 0.87803 0.42956 0.0
C60 C 0.2497 0.8543 0.41656 0.0
C61 C 0.26448 0.85883 0.39039 0.0
C62 C 0.24662 0.88747 0.37747 0.0
H63 H 0.33041 0.57141 0.9261 0.0
H64 H 0.25352 0.61197 0.85745 0.0
H65 H 0.2497 0.66703 0.92865 0.0
C66 C 0.30656 0.59102 0.91655 0.0
C67 C 0.29072 0.61912 0.93045 0.0
C68 C 0.29298 0.5883 0.89031 0.0
C69 C 0.26304 0.61392 0.87791 0.0
C70 C 0.24735 0.64257 0.8915 0.0
C71 C 0.26073 0.6449 0.918 0.0
Tb72 Tb 0.07316 0.13821 0.23258 0.0
C73 C 0.81184 0.11452 0.26622 0.0
N74 N 0.8421 0.14333 0.26619 0.0
C75 C 0.75823 0.17201 0.25017 0.0
C76 C 0.75351 0.11326 0.25787 0.0
C77 C 0.8159 0.172 0.25869 0.0
C78 C 0.72691 0.14248 0.24964 0.0
C79 C 0.80945 0.05589 0.27548 0.0
C80 C 0.83953 0.08624 0.27486 0.0
C81 C 0.75147 0.0544 0.26699 0.0
C82 C 0.72355 0.08302 0.25823 0.0
Tb83 Tb 0.93523 0.14058 0.28145 0.0
N84 N 0.89586 0.08861 0.2828 0.0
C85 C 0.83825 0.02808 0.28505 0.0
C86 C 0.92274 0.06195 0.29356 0.0
C87 C 0.89492 0.03122 0.29439 0.0
H88 H 0.83856 0.19508 0.26037 0.0
H89 H 0.91684 0.01012 0.3027 0.0
H90 H 0.1632 0.08016 0.25493 0.0
H91 H 0.10046 0.26874 0.21488 0.0
H92 H 0.96466 0.06424 0.30238 0.0
H93 H 0.81665 0.00431 0.28592 0.0
H94 H 0.04596 0.21674 0.21697 0.0
H95 H 0.73774 0.19489 0.24437 0.0
H96 H 0.72766 0.0313 0.26735 0.0
H97 H 0.67868 0.08156 0.25193 0.0
H98 H 0.26477 0.07747 0.26984 0.0
H99 H 0.68208 0.14258 0.24319 0.0
H100 H 0.20428 0.2701 0.22735 0.0
N101 N 0.16579 0.13182 0.24732 0.0
C102 C 0.19927 0.15949 0.24626 0.0
C103 C 0.24676 0.10073 0.26341 0.0
C104 C 0.2581 0.15883 0.25387 0.0
C105 C 0.18878 0.10248 0.2554 0.0
C106 C 0.28158 0.12901 0.26266 0.0
N107 N 0.11609 0.18895 0.23235 0.0
C108 C 0.09013 0.21699 0.22346 0.0
C109 C 0.20728 0.21804 0.23675 0.0
C110 C 0.17397 0.18882 0.23798 0.0
C111 C 0.18018 0.24714 0.22862 0.0
C112 C 0.12147 0.24654 0.22179 0.0
H113 H 0.32657 0.12751 0.26876 0.0
H114 H 0.33677 0.18785 0.25828 0.0
H115 H 0.29241 0.23958 0.24314 0.0
O116 O 0.0663 0.14726 0.19249 0.0
O117 O 0.08468 0.16507 0.26906 0.0
O118 O 0.9932 0.18317 0.28019 0.0
O119 O 0.13336 0.11584 0.20778 0.0
O120 O 0.99167 0.16111 0.21986 0.0
O121 O 0.94529 0.18315 0.25565 0.0
O122 O 0.93688 0.13302 0.32251 0.0
O123 O 0.92531 0.11502 0.24409 0.0
O124 O 0.0166 0.09476 0.23355 0.0
O125 O 0.87916 0.16851 0.30418 0.0
O126 O 0.01712 0.11774 0.29432 0.0
O127 O 0.06069 0.09566 0.25781 0.0
C128 C 0.04979 0.18315 0.28334 0.0
C129 C 0.10638 0.1069 0.16453 0.0
C130 C 0.12559 0.09841 0.11871 0.0
C131 C 0.11482 0.06453 0.12206 0.0
C132 C 0.09491 0.07307 0.16748 0.0
C133 C 0.09903 0.05203 0.14625 0.0
C134 C 0.12053 0.11964 0.13998 0.0
C135 C 0.95613 0.18253 0.23061 0.0
C136 C 0.11074 0.1286 0.18709 0.0
C137 C 0.29143 0.18789 0.25257 0.0
C138 C 0.26617 0.21736 0.24393 0.0
C139 C 0.95946 0.09409 0.23195 0.0
C140 C 0.87133 0.16583 0.35059 0.0
C141 C 0.85977 0.16163 0.39742 0.0
C142 C 0.82195 0.18874 0.39686 0.0
C143 C 0.83313 0.19294 0.35068 0.0
C144 C 0.8846 0.14997 0.37421 0.0
C145 C 0.8087 0.20422 0.37363 0.0
C146 C 0.05286 0.09683 0.283 0.0
C147 C 0.89642 0.15518 0.32559 0.0
H148 H 0.11883 0.04771 0.10591 0.0
H149 H 0.08431 0.06282 0.18628 0.0
H150 H 0.09103 0.02588 0.14864 0.0
H151 H 0.13032 0.14568 0.1377 0.0
H152 H 0.80241 0.19787 0.41454 0.0
H153 H 0.82206 0.20568 0.33294 0.0
H154 H 0.91385 0.12903 0.37459 0.0
H155 H 0.77939 0.22509 0.37341 0.0
Tb156 Tb 0.44154 0.36445 0.731 0.0
C157 C 0.69981 0.3854 0.76712 0.0
N158 N 0.66789 0.35711 0.76629 0.0
C159 C 0.74971 0.32774 0.74912 0.0
C160 C 0.75812 0.38597 0.7586 0.0
C161 C 0.69202 0.32834 0.75781 0.0
C162 C 0.78293 0.35665 0.74952 0.0
C163 C 0.70453 0.4441 0.77626 0.0
C164 C 0.67322 0.41416 0.7759 0.0
C165 C 0.76288 0.44467 0.76805 0.0
C166 C 0.7896 0.4157 0.75928 0.0
Tb167 Tb 0.5765 0.36117 0.78291 0.0
N168 N 0.61632 0.41285 0.78344 0.0
C169 C 0.67623 0.4726 0.78482 0.0
C170 C 0.58899 0.44046 0.79234 0.0
C171 C 0.61829 0.47074 0.79292 0.0
H172 H 0.66743 0.30563 0.7582 0.0
H173 H 0.59631 0.49258 0.7999 0.0
H174 H 0.35056 0.42271 0.75225 0.0
H175 H 0.40322 0.23901 0.70117 0.0
H176 H 0.54517 0.4394 0.79952 0.0
H177 H 0.69878 0.49609 0.7854 0.0
H178 H 0.4595 0.29071 0.70543 0.0
H179 H 0.76869 0.30491 0.74234 0.0
H180 H 0.78768 0.46744 0.7683 0.0
H181 H 0.83455 0.4166 0.75291 0.0
H182 H 0.24996 0.42576 0.7684 0.0
H183 H 0.82765 0.35606 0.74283 0.0
H184 H 0.30163 0.23631 0.71718 0.0
N185 N 0.34761 0.37096 0.74522 0.0
C186 C 0.3128 0.34393 0.74362 0.0
C187 C 0.26731 0.40244 0.7618 0.0
C188 C 0.25438 0.34469 0.75197 0.0
C189 C 0.32492 0.40043 0.75311 0.0
C190 C 0.23205 0.37434 0.76154 0.0
N191 N 0.39186 0.31623 0.725 0.0
C192 C 0.41569 0.28956 0.71286 0.0
C193 C 0.30123 0.28697 0.73041 0.0
C194 C 0.3355 0.31566 0.73284 0.0
C195 C 0.32628 0.25897 0.71918 0.0
C196 C 0.38367 0.26037 0.7102 0.0
H197 H 0.18738 0.37599 0.76817 0.0
H198 H 0.17524 0.316 0.75668 0.0
H199 H 0.21657 0.26529 0.73802 0.0
O200 O 0.45235 0.35935 0.69032 0.0
O201 O 0.43901 0.32317 0.759 0.0
O202 O 0.49319 0.33974 0.79457 0.0
O203 O 0.40137 0.39834 0.70662 0.0
O204 O 0.52449 0.3409 0.72155 0.0
O205 O 0.56172 0.31737 0.75891 0.0
O206 O 0.60073 0.37335 0.82108 0.0
O207 O 0.5903 0.38383 0.74461 0.0
O208 O 0.50035 0.40528 0.73907 0.0
O209 O 0.61871 0.32459 0.80496 0.0
O210 O 0.49676 0.38529 0.79664 0.0
O211 O 0.44808 0.40339 0.76007 0.0
C212 C 0.45447 0.32053 0.78347 0.0
C213 C 0.37286 0.3807 0.66535 0.0
C214 C 0.34716 0.38023 0.61963 0.0
C215 C 0.28896 0.38644 0.62629 0.0
C216 C 0.31391 0.38621 0.67153 0.0
C217 C 0.27245 0.38916 0.65208 0.0
C218 C 0.38918 0.3771 0.63922 0.0
C219 C 0.55109 0.31679 0.73385 0.0
C220 C 0.41795 0.38405 0.68549 0.0
C221 C 0.22007 0.31602 0.75013 0.0
C222 C 0.24351 0.28718 0.73942 0.0
C223 C 0.5554 0.40469 0.73314 0.0
C224 C 0.64784 0.33376 0.84977 0.0
C225 C 0.65969 0.33998 0.89641 0.0
C226 C 0.68917 0.30974 0.89717 0.0
C227 C 0.67817 0.30376 0.85103 0.0
C228 C 0.63917 0.35219 0.87262 0.0
C229 C 0.69865 0.29189 0.8746 0.0
C230 C 0.45483 0.40207 0.78532 0.0
C231 C 0.62143 0.34392 0.82503 0.0
H232 H 0.25621 0.38935 0.61142 0.0
H233 H 0.29996 0.38942 0.69138 0.0
H234 H 0.22753 0.3942 0.65699 0.0
H235 H 0.43453 0.37354 0.6341 0.0
H236 H 0.70517 0.30001 0.91534 0.0
H237 H 0.68531 0.28914 0.83382 0.0
H238 H 0.61555 0.3753 0.87208 0.0
H239 H 0.72157 0.26861 0.8754 0.0
Tb240 Tb 0.07318 0.8579 0.73202 0.0
C241 C 0.81196 0.83774 0.76406 0.0
N242 N 0.84343 0.86616 0.76519 0.0
C243 C 0.76134 0.89699 0.74995 0.0
C244 C 0.75358 0.83792 0.7558 0.0
C245 C 0.81894 0.89567 0.75853 0.0
C246 C 0.72849 0.86801 0.74858 0.0
C247 C 0.80698 0.7785 0.77082 0.0
C248 C 0.83862 0.80832 0.77126 0.0
C249 C 0.74868 0.77859 0.76269 0.0
C250 C 0.72211 0.80818 0.75515 0.0
Tb251 Tb 0.93529 0.86058 0.78105 0.0
N252 N 0.89542 0.80907 0.77881 0.0
C253 C 0.83456 0.74959 0.77903 0.0
C254 C 0.92125 0.78129 0.78822 0.0
C255 C 0.89175 0.75107 0.78801 0.0
H256 H 0.84323 0.91837 0.76046 0.0
H257 H 0.91274 0.72907 0.79532 0.0
H258 H 0.16266 0.8016 0.7571 0.0
H259 H 0.11071 0.983 0.70069 0.0
H260 H 0.96348 0.78234 0.79687 0.0
H261 H 0.81166 0.7262 0.77913 0.0
H262 H 0.05829 0.92985 0.70287 0.0
H263 H 0.74213 0.92042 0.74467 0.0
H264 H 0.72366 0.75591 0.76229 0.0
H265 H 0.67708 0.80784 0.749 0.0
H266 H 0.261 0.80052 0.77589 0.0
H267 H 0.68372 0.86918 0.74212 0.0
H268 H 0.20616 0.98893 0.7223 0.0
N269 N 0.1642 0.85324 0.74942 0.0
C270 C 0.19694 0.88122 0.74912 0.0
C271 C 0.24326 0.82348 0.76868 0.0
C272 C 0.25384 0.88162 0.75918 0.0
C273 C 0.18702 0.82432 0.75843 0.0
C274 C 0.27668 0.85231 0.76925 0.0
N275 N 0.11839 0.90783 0.72863 0.0
C276 C 0.09751 0.93302 0.7139 0.0
C277 C 0.20616 0.93878 0.73686 0.0
C278 C 0.17322 0.90948 0.73837 0.0
C279 C 0.18223 0.96596 0.72401 0.0
C280 C 0.12818 0.9628 0.71195 0.0
H281 H 0.32033 0.85154 0.77709 0.0
H282 H 0.32993 0.91194 0.7663 0.0
H283 H 0.28828 0.96196 0.74661 0.0
O284 O 0.06854 0.86275 0.69063 0.0
O285 O 0.0845 0.88428 0.76892 0.0
O286 O 0.99418 0.9029 0.78321 0.0
O287 O 0.13199 0.83139 0.70975 0.0
O288 O 0.99497 0.88609 0.72076 0.0
O289 O 0.94824 0.90523 0.75802 0.0
O290 O 0.93743 0.84975 0.82113 0.0
O291 O 0.92401 0.83942 0.74218 0.0
O292 O 0.01291 0.81648 0.73349 0.0
O293 O 0.87282 0.88204 0.80519 0.0
O294 O 0.01634 0.83695 0.79404 0.0
O295 O 0.05794 0.81526 0.75717 0.0
C296 C 0.05156 0.90393 0.78297 0.0
C297 C 0.14043 0.83288 0.6633 0.0
C298 C 0.15236 0.83498 0.61624 0.0
C299 C 0.19948 0.81312 0.61836 0.0
C300 C 0.18758 0.8108 0.66452 0.0
C301 C 0.21681 0.80116 0.64227 0.0
C302 C 0.12293 0.8453 0.63889 0.0
C303 C 0.96128 0.90718 0.73321 0.0
C304 C 0.11309 0.84316 0.68803 0.0
C305 C 0.28618 0.91108 0.75857 0.0
C306 C 0.2624 0.9396 0.74743 0.0
C307 C 0.95702 0.81883 0.72928 0.0
C308 C 0.89528 0.88978 0.84917 0.0
C309 C 0.87842 0.89585 0.8955 0.0
C310 C 0.88023 0.93028 0.89251 0.0
C311 C 0.89805 0.92429 0.8467 0.0
C312 C 0.88661 0.87558 0.87379 0.0
C313 C 0.89054 0.94435 0.8683 0.0
C314 C 0.0531 0.81698 0.78246 0.0
C315 C 0.89304 0.86863 0.82608 0.0
H316 H 0.22327 0.8053 0.60133 0.0
H317 H 0.20256 0.80102 0.68282 0.0
H318 H 0.25323 0.78435 0.64358 0.0
H319 H 0.08697 0.86247 0.63749 0.0
H320 H 0.87327 0.94629 0.90897 0.0
H321 H 0.90418 0.93578 0.82795 0.0
H322 H 0.88327 0.849 0.87582 0.0
H323 H 0.8915 0.97092 0.8662 0.0
Tb324 Tb 0.43696 0.64223 0.2297 0.0
C325 C 0.69444 0.6624 0.26628 0.0
N326 N 0.66302 0.63397 0.26549 0.0
C327 C 0.74546 0.60499 0.24842 0.0
C328 C 0.75274 0.66328 0.25778 0.0
C329 C 0.68772 0.60535 0.25698 0.0
C330 C 0.77813 0.63409 0.24877 0.0
C331 C 0.69826 0.72093 0.27581 0.0
C332 C 0.66731 0.6909 0.27508 0.0
C333 C 0.75648 0.72193 0.26743 0.0
C334 C 0.78363 0.69319 0.25846 0.0
Tb335 Tb 0.57089 0.63739 0.28166 0.0
N336 N 0.61045 0.68915 0.28264 0.0
C337 C 0.66993 0.749 0.28517 0.0
C338 C 0.58372 0.71609 0.29299 0.0
C339 C 0.61264 0.74647 0.29404 0.0
H340 H 0.6637 0.58253 0.25762 0.0
H341 H 0.59092 0.76784 0.30201 0.0
H342 H 0.34529 0.69895 0.25168 0.0
H343 H 0.40395 0.5157 0.2002 0.0
H344 H 0.5409 0.71431 0.30114 0.0
H345 H 0.6922 0.77255 0.28608 0.0
H346 H 0.45872 0.56744 0.20498 0.0
H347 H 0.76489 0.5822 0.2418 0.0
H348 H 0.78095 0.7448 0.26787 0.0
H349 H 0.82854 0.69437 0.25206 0.0
H350 H 0.24416 0.70086 0.26764 0.0
H351 H 0.8229 0.63371 0.24216 0.0
H352 H 0.30144 0.51247 0.21485 0.0
N353 N 0.3423 0.64785 0.24256 0.0
C354 C 0.30843 0.62046 0.24069 0.0
C355 C 0.26183 0.678 0.26025 0.0
C356 C 0.25009 0.62049 0.24914 0.0
C357 C 0.31946 0.67672 0.25151 0.0
C358 C 0.2271 0.64968 0.25928 0.0
N359 N 0.39006 0.59293 0.22381 0.0
C360 C 0.41506 0.56621 0.21229 0.0
C361 C 0.29935 0.56318 0.22794 0.0
C362 C 0.33285 0.59217 0.23054 0.0
C363 C 0.32556 0.53527 0.21714 0.0
C364 C 0.38355 0.53692 0.20906 0.0
H365 H 0.18252 0.65073 0.26611 0.0
H366 H 0.17202 0.59089 0.25384 0.0
H367 H 0.21512 0.54072 0.23512 0.0
O368 O 0.44478 0.63652 0.18895 0.0
O369 O 0.41936 0.61194 0.26431 0.0
O370 O 0.50777 0.59738 0.28364 0.0
O371 O 0.39738 0.67683 0.20564 0.0
O372 O 0.51751 0.61583 0.21982 0.0
O373 O 0.55679 0.59406 0.25746 0.0
O374 O 0.57778 0.64675 0.32234 0.0
O375 O 0.5868 0.65988 0.24349 0.0
O376 O 0.4979 0.68216 0.23662 0.0
O377 O 0.62473 0.60695 0.30338 0.0
O378 O 0.48907 0.66055 0.29465 0.0
O379 O 0.44748 0.68232 0.25765 0.0
C380 C 0.45088 0.59529 0.28116 0.0
C381 C 0.36744 0.66038 0.16385 0.0
C382 C 0.34199 0.65691 0.11789 0.0
C383 C 0.28558 0.66786 0.12409 0.0
C384 C 0.31042 0.67105 0.16924 0.0
C385 C 0.27008 0.67481 0.14947 0.0
C386 C 0.3829 0.65282 0.13801 0.0
C387 C 0.54744 0.59316 0.23236 0.0
C388 C 0.41236 0.66218 0.18434 0.0
C389 C 0.21681 0.59146 0.24725 0.0
C390 C 0.24132 0.56289 0.23657 0.0
C391 C 0.55283 0.6801 0.23089 0.0
C392 C 0.64331 0.61215 0.34895 0.0
C393 C 0.65506 0.61296 0.3958 0.0
C394 C 0.69994 0.58968 0.39357 0.0
C395 C 0.68851 0.58885 0.34737 0.0
C396 C 0.62679 0.62454 0.37339 0.0
C397 C 0.71656 0.5778 0.36952 0.0
C398 C 0.4518 0.68034 0.28302 0.0
C399 C 0.61453 0.6225 0.32475 0.0
H400 H 0.25307 0.67108 0.10916 0.0
H401 H 0.29719 0.67747 0.18869 0.0
H402 H 0.2267 0.68361 0.15381 0.0
H403 H 0.427 0.64531 0.13347 0.0
H404 H 0.72222 0.58064 0.41062 0.0
H405 H 0.70243 0.57902 0.32892 0.0
H406 H 0.59194 0.64241 0.37503 0.0
H407 H 0.75121 0.55985 0.36805 0.0
C408 C 0.13128 0.94716 0.37588 0.0
C409 C 0.191 0.94029 0.37607 0.0
C410 C 0.10928 0.97369 0.36152 0.0
C411 C 0.14817 0.99395 0.3473 0.0
C412 C 0.20874 0.98765 0.34806 0.0
C413 C 0.22944 0.96066 0.36231 0.0
C414 C 0.04431 0.97919 0.3608 0.0
C415 C 0.25159 0.00947 0.33388 0.0
C416 C 0.0901 0.03966 0.28889 0.0
C417 C 0.07988 0.0711 0.29911 0.0
C418 C 0.11214 0.01429 0.30446 0.0
C419 C 0.12529 0.02079 0.33067 0.0
C420 C 0.11599 0.0527 0.34093 0.0
C421 C 0.09264 0.07741 0.32507 0.0
C422 C 0.12052 0.98039 0.29299 0.0
C423 C 0.12924 0.06062 0.36879 0.0
H424 H 0.10161 0.93115 0.3864 0.0
H425 H 0.27571 0.95549 0.36281 0.0
H426 H 0.03378 0.00558 0.36388 0.0
H427 H 0.02753 0.97229 0.34145 0.0
H428 H 0.02101 0.96425 0.37561 0.0
H429 H 0.2969 0.00013 0.33525 0.0
H430 H 0.23967 0.01149 0.31317 0.0
H431 H 0.25009 0.03472 0.34212 0.0
H432 H 0.07931 0.03463 0.2689 0.0
H433 H 0.08446 0.10172 0.33297 0.0
H434 H 0.0942 0.96205 0.30391 0.0
H435 H 0.16678 0.9729 0.29467 0.0
H436 H 0.10776 0.97937 0.27231 0.0
H437 H 0.09554 0.04925 0.38138 0.0
H438 H 0.12961 0.08763 0.3724 0.0
H439 H 0.17198 0.05028 0.37455 0.0
C440 C 0.37387 0.55298 0.8748 0.0
C441 C 0.31417 0.55973 0.8755 0.0
C442 C 0.39546 0.52631 0.8606 0.0
C443 C 0.35612 0.50573 0.84711 0.0
C444 C 0.29559 0.51217 0.84809 0.0
C445 C 0.27529 0.5394 0.86215 0.0
C446 C 0.46044 0.52088 0.85937 0.0
C447 C 0.25243 0.49012 0.83451 0.0
C448 C 0.41535 0.45866 0.78987 0.0
C449 C 0.42636 0.42768 0.80083 0.0
C450 C 0.39197 0.48418 0.80472 0.0
C451 C 0.37866 0.47837 0.83105 0.0
C452 C 0.38875 0.44689 0.8421 0.0
C453 C 0.4132 0.42193 0.82686 0.0
C454 C 0.38281 0.51758 0.79239 0.0
C455 C 0.37558 0.43983 0.87015 0.0
H456 H 0.40377 0.56906 0.88498 0.0
H457 H 0.22906 0.54463 0.86297 0.0
H458 H 0.47123 0.49461 0.86292 0.0
H459 H 0.4765 0.52727 0.83973 0.0
H460 H 0.48421 0.53627 0.87363 0.0
H461 H 0.20721 0.4996 0.83592 0.0
H462 H 0.2641 0.48757 0.81378 0.0
H463 H 0.25386 0.46507 0.8432 0.0
H464 H 0.42673 0.4633 0.76983 0.0
H465 H 0.42216 0.39794 0.83529 0.0
H466 H 0.40927 0.53641 0.80257 0.0
H467 H 0.33653 0.52498 0.79423 0.0
H468 H 0.39495 0.51786 0.77159 0.0
H469 H 0.40923 0.45169 0.88237 0.0
H470 H 0.37547 0.41294 0.87439 0.0
H471 H 0.33278 0.45025 0.87578 0.0
C472 C 0.7227 0.54962 0.65944 0.0
C473 C 0.69187 0.56127 0.63783 0.0
C474 C 0.7002 0.52444 0.67525 0.0
C475 C 0.64696 0.50913 0.6686 0.0
C476 C 0.61652 0.51978 0.64634 0.0
C477 C 0.63872 0.54608 0.63153 0.0
C478 C 0.73321 0.51455 0.69926 0.0
C479 C 0.55959 0.50409 0.63849 0.0
C480 C 0.62082 0.42421 0.6979 0.0
C481 C 0.57967 0.43127 0.71702 0.0
C482 C 0.64182 0.44921 0.68148 0.0
C483 C 0.62301 0.48217 0.68511 0.0
C484 C 0.58208 0.4894 0.70483 0.0
C485 C 0.56025 0.46372 0.7203 0.0
C486 C 0.68324 0.44026 0.65994 0.0
C487 C 0.56277 0.52432 0.71023 0.0
H488 H 0.76449 0.56034 0.66425 0.0
H489 H 0.61353 0.55511 0.61534 0.0
H490 H 0.70349 0.51331 0.71619 0.0
H491 H 0.75214 0.48964 0.6966 0.0
H492 H 0.76909 0.53202 0.70371 0.0
H493 H 0.54756 0.5105 0.61831 0.0
H494 H 0.56173 0.47683 0.64028 0.0
H495 H 0.5244 0.51285 0.65148 0.0
H496 H 0.63521 0.39896 0.69531 0.0
H497 H 0.52881 0.46911 0.73539 0.0
H498 H 0.72599 0.45227 0.66314 0.0
H499 H 0.6662 0.44945 0.6412 0.0
H500 H 0.69005 0.41319 0.6585 0.0
H501 H 0.59911 0.53797 0.71943 0.0
H502 H 0.52449 0.52513 0.72338 0.0
H503 H 0.55169 0.53749 0.6921 0.0
C504 C 0.78381 0.94985 0.16169 0.0
C505 C 0.81192 0.93958 0.1389 0.0
C506 C 0.80763 0.97456 0.17741 0.0
C507 C 0.85885 0.99111 0.1694 0.0
C508 C 0.88599 0.9822 0.14584 0.0
C509 C 0.86308 0.95608 0.13124 0.0
C510 C 0.77832 0.98249 0.20282 0.0
C511 C 0.94032 0.99953 0.13635 0.0
C512 C 0.8866 0.07482 0.19995 0.0
C513 C 0.9326 0.06767 0.21666 0.0
C514 C 0.86305 0.05026 0.184 0.0
C515 C 0.88433 0.01754 0.18579 0.0
C516 C 0.92986 0.0101 0.20327 0.0
C517 C 0.95412 0.03545 0.21822 0.0
C518 C 0.81662 0.05952 0.16474 0.0
C519 C 0.9518 0.97529 0.20683 0.0
H520 H 0.74339 0.93828 0.1676 0.0
H521 H 0.88637 0.94819 0.11411 0.0
H522 H 0.8109 0.98454 0.21854 0.0
H523 H 0.75573 0.00655 0.20132 0.0
H524 H 0.74572 0.96345 0.20839 0.0
H525 H 0.94874 0.99464 0.11556 0.0
H526 H 0.93706 0.0266 0.13922 0.0
H527 H 0.97839 0.99069 0.14753 0.0
H528 H 0.87043 0.0999 0.19872 0.0
H529 H 0.98924 0.02998 0.23151 0.0
H530 H 0.77551 0.04642 0.16938 0.0
H531 H 0.83011 0.05181 0.14504 0.0
H532 H 0.80787 0.08647 0.16453 0.0
H533 H 0.91773 0.96042 0.21672 0.0
H534 H 0.99212 0.97439 0.21862 0.0
H535 H 0.96061 0.96343 0.18795 0.0
C536 C 0.83688 0.0337 0.62932 0.0
C537 C 0.81338 0.06226 0.64082 0.0
C538 C 0.86357 0.00902 0.6442 0.0
C539 C 0.86157 0.01099 0.67146 0.0
C540 C 0.8354 0.03857 0.68336 0.0
C541 C 0.81448 0.06441 0.66801 0.0
C542 C 0.89448 0.98119 0.63047 0.0
C543 C 0.83042 0.0414 0.71241 0.0
C544 C 0.88162 0.92897 0.70583 0.0
C545 C 0.93473 0.93396 0.7183 0.0
C546 C 0.85584 0.95449 0.69155 0.0
C547 C 0.88686 0.98437 0.68766 0.0
C548 C 0.94147 0.98903 0.6998 0.0
C549 C 0.9629 0.96441 0.71623 0.0
C550 C 0.79521 0.94957 0.68105 0.0
C551 C 0.97933 0.01876 0.69425 0.0
H552 H 0.83551 0.03026 0.60864 0.0
H553 H 0.79985 0.08638 0.67781 0.0
H554 H 0.93303 0.97258 0.64146 0.0
H555 H 0.86429 0.96006 0.62815 0.0
H556 H 0.90907 0.98884 0.61086 0.0
H557 H 0.79688 0.0597 0.71816 0.0
H558 H 0.81919 0.01726 0.7213 0.0
H559 H 0.87267 0.04958 0.72052 0.0
H560 H 0.85977 0.90535 0.70765 0.0
H561 H 0.00281 0.96861 0.72679 0.0
H562 H 0.79704 0.94634 0.65981 0.0
H563 H 0.76796 0.97157 0.68508 0.0
H564 H 0.77362 0.92751 0.68956 0.0
H565 H -5e-05 0.01554 0.67499 0.0
H566 H 0.01448 0.02162 0.70878 0.0
H567 H 0.95391 0.04191 0.69349 0.0
C568 C 0.63632 0.43709 0.14786 0.0
C569 C 0.6953 0.43736 0.14113 0.0
C570 C 0.61301 0.46168 0.16378 0.0
C571 C 0.6495 0.48749 0.17256 0.0
C572 C 0.70935 0.4877 0.16583 0.0
C573 C 0.73176 0.46231 0.15035 0.0
C574 C 0.54922 0.46027 0.17083 0.0
C575 C 0.74967 0.51462 0.1751 0.0
C576 C 0.5772 0.56835 0.19019 0.0
C577 C 0.57452 0.56624 0.21723 0.0
C578 C 0.60147 0.54285 0.17548 0.0
C579 C 0.62457 0.5148 0.18809 0.0
C580 C 0.62275 0.51264 0.21538 0.0
C581 C 0.59698 0.53819 0.22961 0.0
C582 C 0.60215 0.54588 0.14639 0.0
C583 C 0.64653 0.483 0.22956 0.0
H584 H 0.6086 0.4174 0.1408 0.0
H585 H 0.77754 0.46207 0.1452 0.0
H586 H 0.54305 0.4642 0.19187 0.0
H587 H 0.5257 0.48029 0.16061 0.0
H588 H 0.52904 0.43631 0.1655 0.0
H589 H 0.79344 0.51304 0.16601 0.0
H590 H 0.731 0.53927 0.17084 0.0
H591 H 0.75472 0.51272 0.19637 0.0
H592 H 0.55992 0.58988 0.18042 0.0
H593 H 0.59424 0.53606 0.25047 0.0
H594 H 0.57684 0.52535 0.13776 0.0
H595 H 0.64746 0.54389 0.13909 0.0
H596 H 0.58343 0.5696 0.13959 0.0
H597 H 0.61627 0.46188 0.2271 0.0
H598 H 0.65159 0.48777 0.25057 0.0
H599 H 0.68935 0.47555 0.22154 0.0
C600 C 0.36706 0.43658 0.36288 0.0
C601 C 0.31415 0.43947 0.37601 0.0
C602 C 0.38758 0.46225 0.34709 0.0
C603 C 0.3545 0.49157 0.34477 0.0
C604 C 0.30084 0.49451 0.35812 0.0
C605 C 0.2811 0.46824 0.37358 0.0
C606 C 0.44465 0.45794 0.33299 0.0
C607 C 0.26385 0.52509 0.35563 0.0
C608 C 0.43675 0.56828 0.3237 0.0
C609 C 0.42224 0.57027 0.29749 0.0
C610 C 0.41397 0.54317 0.33944 0.0
C611 C 0.3764 0.51926 0.32856 0.0
C612 C 0.3613 0.52133 0.30208 0.0
C613 C 0.38467 0.54684 0.28687 0.0
C614 C 0.43059 0.54203 0.36763 0.0
C615 C 0.323 0.49575 0.28944 0.0
H616 H 0.39198 0.41401 0.36476 0.0
H617 H 0.2397 0.47 0.38359 0.0
H618 H 0.43998 0.46471 0.31231 0.0
H619 H 0.4778 0.4746 0.34148 0.0
H620 H 0.461 0.4322 0.33424 0.0
H621 H 0.22642 0.5249 0.36927 0.0
H622 H 0.29036 0.54754 0.35919 0.0
H623 H 0.24677 0.52687 0.33563 0.0
H624 H 0.46634 0.58634 0.33186 0.0
H625 H 0.37582 0.54748 0.26646 0.0
H626 H 0.45366 0.51864 0.37192 0.0
H627 H 0.39082 0.54256 0.37984 0.0
H628 H 0.45915 0.56298 0.3732 0.0
H629 H 0.34897 0.47316 0.28583 0.0
H630 H 0.30553 0.50457 0.27066 0.0
H631 H 0.28595 0.48877 0.30212 0.0
C632 C 0.20934 0.05771 0.84847 0.0
C633 C 0.20989 0.05625 0.87574 0.0
C634 C 0.1889 0.03138 0.83344 0.0
C635 C 0.1639 0.00359 0.84568 0.0
C636 C 0.16359 0.00161 0.87297 0.0
C637 C 0.18848 0.02722 0.88757 0.0
C638 C 0.19223 0.03399 0.80434 0.0
C639 C 0.13637 0.97254 0.88681 0.0
C640 C 0.04957 0.95716 0.80722 0.0
C641 C 0.08049 0.9293 0.79897 0.0
C642 C 0.07618 0.98135 0.82253 0.0
C643 C 0.13514 0.97756 0.8299 0.0
C644 C 0.16647 0.94934 0.82179 0.0
C645 C 0.13881 0.92562 0.80634 0.0
C646 C 0.04109 0.01096 0.83087 0.0
C647 C 0.22957 0.94448 0.82885 0.0
H648 H 0.22329 0.07969 0.83837 0.0
H649 H 0.19015 0.02419 0.90829 0.0
H650 H 0.20638 0.01027 0.79571 0.0
H651 H 0.14849 0.03981 0.79656 0.0
H652 H 0.22289 0.05366 0.798 0.0
H653 H 0.13146 0.97702 0.90788 0.0
H654 H 0.09282 0.96688 0.87869 0.0
H655 H 0.16399 0.95041 0.88405 0.0
H656 H 0.00455 0.96026 0.80151 0.0
H657 H 0.16277 0.90396 0.80031 0.0
H658 H 0.06103 0.03384 0.82301 0.0
H659 H 0.04138 0.01297 0.85226 0.0
H660 H 0.9952 0.00965 0.82423 0.0
H661 H 0.25676 0.96192 0.81746 0.0
H662 H 0.24462 0.91898 0.82474 0.0
H663 H 0.23695 0.94981 0.8496 0.0
C664 C 0.16013 0.10507 0.96973 0.0
C665 C 0.20648 0.12331 0.95904 0.0
C666 C 0.1486 0.10533 0.99636 0.0
C667 C 0.181 0.12646 0.01269 0.0
C668 C 0.22418 0.14722 1.00186 0.0
C669 C 0.23795 0.14447 0.97551 0.0
C670 C 0.10172 0.08256 0.00666 0.0
C671 C 0.25755 0.17149 0.01827 0.0
C672 C 0.11209 0.13362 0.07927 0.0
C673 C 0.14515 0.11067 0.09318 0.0
C674 C 0.12553 0.14082 0.05331 0.0
C675 C 0.17295 0.12461 0.04121 0.0
C676 C 0.20892 0.10336 0.05594 0.0
C677 C 0.19441 0.09666 0.08172 0.0
C678 C 0.08706 0.16428 0.03849 0.0
C679 C 0.25955 0.08496 0.04418 0.0
H680 H 0.13281 0.08997 0.95754 0.0
H681 H 0.27456 0.1585 0.9682 0.0
H682 H 0.11033 0.0743 0.02674 0.0
H683 H 0.05945 0.09572 1.0064 0.0
H684 H 0.09715 0.06031 0.99432 0.0
H685 H 0.28019 0.19037 1.00629 0.0
H686 H 0.22794 0.1842 0.03199 0.0
H687 H 0.29073 0.15818 0.0298 0.0
H688 H 0.07407 0.14457 0.08824 0.0
H689 H 0.22027 0.0792 0.09268 0.0
H690 H 0.05671 0.14994 0.02621 0.0
H691 H 0.1134 0.18039 0.02558 0.0
H692 H 0.06075 0.18 0.05162 0.0
H693 H 0.24304 0.06187 0.03532 0.0
H694 H 0.29212 0.07814 0.0591 0.0
H695 H 0.28191 0.09937 0.02889 0.0
C696 C 0.26953 0.3642 0.47712 0.0
C697 C 0.30876 0.37467 0.45801 0.0
C698 C 0.28685 0.36156 0.50301 0.0
C699 C 0.34473 0.36976 0.50998 0.0
C700 C 0.38536 0.37855 0.49055 0.0
C701 C 0.36686 0.38088 0.46478 0.0
C702 C 0.24218 0.3518 0.52309 0.0
C703 C 0.4482 0.3857 0.49692 0.0
C704 C 0.35176 0.40686 0.57664 0.0
C705 C 0.36253 0.37905 0.59193 0.0
C706 C 0.3501 0.40455 0.54968 0.0
C707 C 0.35965 0.3736 0.53776 0.0
C708 C 0.3764 0.34614 0.55303 0.0
C709 C 0.3772 0.34913 0.58013 0.0
C710 C 0.33368 0.43469 0.53411 0.0
C711 C 0.38915 0.31299 0.54113 0.0
H712 H 0.22463 0.35929 0.472 0.0
H713 H 0.39786 0.38787 0.4499 0.0
H714 H 0.25963 0.33222 0.5359 0.0
H715 H 0.23188 0.37346 0.53535 0.0
H716 H 0.20118 0.34271 0.51424 0.0
H717 H 0.47182 0.39708 0.48037 0.0
H718 H 0.45177 0.40234 0.51383 0.0
H719 H 0.47018 0.36224 0.50206 0.0
H720 H 0.34087 0.43002 0.58592 0.0
H721 H 0.38547 0.32761 0.59205 0.0
H722 H 0.29074 0.43065 0.52484 0.0
H723 H 0.36596 0.43902 0.51848 0.0
H724 H 0.33108 0.45726 0.5462 0.0
H725 H 0.34808 0.29868 0.53967 0.0
H726 H 0.41976 0.29861 0.55333 0.0
H727 H 0.40789 0.31552 0.52143 0.0
C728 C 0.66382 0.40254 0.0438 0.0
C729 C 0.70422 0.38043 0.05491 0.0
C730 C 0.65159 0.40237 0.0172 0.0
C731 C 0.67649 0.37785 1.00134 0.0
C732 C 0.71562 0.35482 0.01223 0.0
C733 C 0.73059 0.35718 0.03842 0.0
C734 C 0.61126 0.42826 1.0063 0.0
C735 C 0.7425 0.32771 0.99614 0.0
C736 C 0.61124 0.34646 0.93902 0.0
C737 C 0.65204 0.35794 0.92096 0.0
C738 C 0.61541 0.35527 0.96519 0.0
C739 C 0.662 0.37564 0.97335 0.0
C740 C 0.70001 0.38968 0.95472 0.0
C741 C 0.6945 0.38065 0.92864 0.0
C742 C 0.57354 0.34014 0.98438 0.0
C743 C 0.74893 0.41241 0.9626 0.0
H744 H 0.64075 0.4202 0.05552 0.0
H745 H 0.76357 0.34059 0.04552 0.0
H746 H 0.62625 0.43685 0.98702 0.0
H747 H 0.56714 0.41757 1.004 0.0
H748 H 0.60783 0.44998 0.01927 0.0
H749 H 0.76613 0.30936 0.00814 0.0
H750 H 0.70849 0.31453 0.98499 0.0
H751 H 0.7736 0.33861 0.98206 0.0
H752 H 0.57873 0.32865 0.933 0.0
H753 H 0.72618 0.38929 0.91459 0.0
H754 H 0.55695 0.35914 0.99789 0.0
H755 H 0.59662 0.32128 0.99607 0.0
H756 H 0.53591 0.32817 0.97473 0.0
H757 H 0.73091 0.43405 0.97298 0.0
H758 H 0.77469 0.42129 0.94575 0.0
H759 H 0.77869 0.39953 0.97612 0.0
C760 C 0.77948 0.1465 0.53953 0.0
C761 C 0.81208 0.12748 0.55702 0.0
C762 C 0.7961 0.14957 0.51349 0.0
C763 C 0.84449 0.13157 0.50408 0.0
C764 C 0.87724 0.112 0.52134 0.0
C765 C 0.86213 0.11127 0.54764 0.0
C766 C 0.76114 0.17182 0.49597 0.0
C767 C 0.92862 0.09192 0.51222 0.0
C768 C 0.83599 0.12049 0.43145 0.0
C769 C 0.87122 0.14652 0.42286 0.0
C770 C 0.83044 0.11354 0.45798 0.0
C771 C 0.86027 0.13344 0.47615 0.0
C772 C 0.90012 0.1577 0.4673 0.0
C773 C 0.90494 0.16399 0.4407 0.0
C774 C 0.78936 0.08656 0.46661 0.0
C775 C 0.93306 0.17952 0.4858 0.0
H776 H 0.74029 0.15882 0.54594 0.0
H777 H 0.89011 0.09779 0.56068 0.0
H778 H 0.79043 0.18785 0.48432 0.0
H779 H 0.7354 0.15661 0.48235 0.0
H780 H 0.7307 0.18779 0.50698 0.0
H781 H 0.9398 0.07208 0.52621 0.0
H782 H 0.91989 0.08046 0.49316 0.0
H783 H 0.96711 0.10825 0.51006 0.0
H784 H 0.80929 0.10732 0.41762 0.0
H785 H 0.93145 0.18448 0.43398 0.0
H786 H 0.7493 0.0977 0.47479 0.0
H787 H 0.80962 0.07137 0.48203 0.0
H788 H 0.77667 0.0702 0.45036 0.0
H789 H 0.90384 0.19953 0.49252 0.0
H790 H 0.97161 0.19101 0.47637 0.0
H791 H 0.94779 0.16563 0.50305 0.0
C792 C 0.84366 0.89595 0.0437 0.0
C793 C 0.80489 0.87352 0.05567 0.0
C794 C 0.85763 0.89389 0.01735 0.0
C795 C 0.83585 0.86745 1.00249 0.0
C796 C 0.80148 0.84293 0.01458 0.0
C797 C 0.78509 0.84669 0.04062 0.0
C798 C 0.89363 0.92109 1.0052 0.0
C799 C 0.78224 0.81255 1.00003 0.0
C800 C 0.81056 0.89021 0.93257 0.0
C801 C 0.86387 0.88199 0.9212 0.0
C802 C 0.79955 0.88348 0.95868 0.0
C803 C 0.84305 0.8681 0.97384 0.0
C804 C 0.89521 0.85721 0.96187 0.0
C805 C 0.90518 0.86449 0.93559 0.0
C806 C 0.74277 0.89485 0.97042 0.0
C807 C 0.94216 0.83974 0.97693 0.0
H808 H 0.86352 0.91568 0.05449 0.0
H809 H 0.7561 0.82837 0.0486 0.0
H810 H 0.9311 0.91063 0.9945 0.0
H811 H 0.86656 0.93483 0.99107 0.0
H812 H 0.91048 0.93887 0.01969 0.0
H813 H 0.75006 0.79764 0.01111 0.0
H814 H 0.76303 0.81917 0.98108 0.0
H815 H 0.82089 0.79692 0.9961 0.0
H816 H 0.77846 0.9034 0.92122 0.0
H817 H 0.94644 0.85808 0.92672 0.0
H818 H 0.75148 0.91377 0.9854 0.0
H819 H 0.7203 0.87389 0.98003 0.0
H820 H 0.71291 0.90552 0.95578 0.0
H821 H 0.97339 0.85823 0.98452 0.0
H822 H 0.96694 0.82263 0.96429 0.0
H823 H 0.92406 0.82562 0.99351 0.0
C824 C 0.64957 0.63916 0.54909 0.0
C825 C 0.70411 0.62606 0.55522 0.0
C826 C 0.63226 0.64288 0.52325 0.0
C827 C 0.6701 0.63254 0.50322 0.0
C828 C 0.72592 0.61986 0.50948 0.0
C829 C 0.7424 0.617 0.53549 0.0
C830 C 0.57297 0.65702 0.51751 0.0
C831 C 0.76806 0.60891 0.48876 0.0
C832 C 0.61733 0.59974 0.43924 0.0
C833 C 0.63916 0.62357 0.42214 0.0
C834 C 0.62295 0.60356 0.46601 0.0
C835 C 0.65033 0.63221 0.47584 0.0
C836 C 0.66624 0.65808 0.45873 0.0
C837 C 0.66084 0.65334 0.4319 0.0
C838 C 0.60575 0.57523 0.48344 0.0
C839 C 0.69287 0.68963 0.46868 0.0
H840 H 0.62034 0.6463 0.56459 0.0
H841 H 0.78479 0.60716 0.54047 0.0
H842 H 0.57497 0.67435 0.5009 0.0
H843 H 0.54274 0.63676 0.51229 0.0
H844 H 0.55453 0.67016 0.53448 0.0
H845 H 0.80696 0.5965 0.49695 0.0
H846 H 0.74649 0.59171 0.47513 0.0
H847 H 0.78285 0.63068 0.47746 0.0
H848 H 0.60103 0.57664 0.43155 0.0
H849 H 0.67801 0.67167 0.4186 0.0
H850 H 0.58037 0.58421 0.50025 0.0
H851 H 0.64559 0.5632 0.49103 0.0
H852 H 0.57951 0.55637 0.47313 0.0
H853 H 0.66373 0.70086 0.48335 0.0
H854 H 0.70074 0.70787 0.45298 0.0
H855 H 0.73485 0.6843 0.47835 0.0
C856 C 0.2747 0.60795 0.97721 0.0
C857 C 0.30897 0.62177 0.95763 0.0
C858 C 0.29216 0.60975 1.00316 0.0
C859 C 0.34516 0.62579 0.00955 0.0
C860 C 0.38179 0.63762 0.98947 0.0
C861 C 0.36304 0.6356 0.9637 0.0
C862 C 0.25237 0.59595 0.02378 0.0
C863 C 0.44067 0.65239 0.99521 0.0
C864 C 0.33746 0.67421 0.07176 0.0
C865 C 0.35628 0.65114 0.09015 0.0
C866 C 0.33608 0.66658 0.04541 0.0
C867 C 0.35629 0.63548 0.03691 0.0
C868 C 0.38167 0.61343 0.05502 0.0
C869 C 0.38063 0.62135 0.08158 0.0
C870 C 0.30945 0.69117 0.02689 0.0
C871 C 0.40702 0.58079 0.04679 0.0
H872 H 0.23381 0.5962 0.97222 0.0
H873 H 0.39048 0.64494 0.94823 0.0
H874 H 0.27726 0.58068 0.03767 0.0
H875 H 0.23248 0.61659 0.03472 0.0
H876 H 0.21696 0.58057 0.0155 0.0
H877 H 0.46125 0.66338 0.97773 0.0
H878 H 0.43737 0.67167 0.01031 0.0
H879 H 0.46965 0.63277 1.00281 0.0
H880 H 0.32038 0.69772 0.07821 0.0
H881 H 0.39595 0.6035 0.09564 0.0
H882 H 0.27143 0.67989 0.01707 0.0
H883 H 0.3415 0.69809 0.01175 0.0
H884 H 0.29482 0.71403 0.03675 0.0
H885 H 0.37341 0.56126 0.04885 0.0
H886 H 0.44416 0.57388 0.0594 0.0
H887 H 0.42213 0.58124 0.0264 0.0
C888 C 0.13972 0.87787 0.46428 0.0
C889 C 0.19799 0.87337 0.45692 0.0
C890 C 0.12219 0.87446 0.49019 0.0
C891 C 0.16415 0.86687 0.50926 0.0
C892 C 0.22325 0.86268 0.5019 0.0
C893 C 0.23932 0.8657 0.47579 0.0
C894 C 0.05891 0.87932 0.49707 0.0
C895 C 0.26944 0.85417 0.5215 0.0
C896 C 0.14594 0.87854 0.58181 0.0
C897 C 0.13646 0.84589 0.58979 0.0
C898 C 0.15036 0.88643 0.5553 0.0
C899 C 0.14636 0.86093 0.53665 0.0
C900 C 0.1317 0.82856 0.54468 0.0
C901 C 0.12607 0.82161 0.5711 0.0
C902 C 0.16386 0.92146 0.54736 0.0
C903 C 0.12598 0.80069 0.52551 0.0
H904 H 0.10763 0.88377 0.44966 0.0
H905 H 0.28445 0.86254 0.47015 0.0
H906 H 0.04303 0.85913 0.50978 0.0
H907 H 0.05401 0.90275 0.50789 0.0
H908 H 0.03078 0.88045 0.47965 0.0
H909 H 0.31404 0.85575 0.51322 0.0
H910 H 0.26683 0.8709 0.53839 0.0
H911 H 0.26215 0.82864 0.52864 0.0
H912 H 0.1543 0.89734 0.59621 0.0
H913 H 0.11841 0.79639 0.57733 0.0
H914 H 0.13544 0.92914 0.53112 0.0
H915 H 0.20955 0.92307 0.54045 0.0
H916 H 0.15811 0.93903 0.5636 0.0
H917 H 0.08925 0.80572 0.51222 0.0
H918 H 0.11821 0.77652 0.53511 0.0
H919 H 0.16603 0.79878 0.51357 0.0
C920 C 0.17118 0.3405 0.35705 0.0
C921 C 0.20568 0.33276 0.37864 0.0
C922 C 0.14571 0.31571 0.34198 0.0
C923 C 0.15098 0.28238 0.34971 0.0
C924 C 0.18276 0.27435 0.37223 0.0
C925 C 0.21097 0.29947 0.386 0.0
C926 C 0.11468 0.32524 0.31736 0.0
C927 C 0.18929 0.23905 0.38118 0.0
C928 C 0.04142 0.22391 0.31945 0.0
C929 C 0.07595 0.20747 0.30121 0.0
C930 C 0.0658 0.24745 0.33611 0.0
C931 C 0.12543 0.25583 0.33359 0.0
C932 C 0.16058 0.23899 0.31545 0.0
C933 C 0.13569 0.21433 0.30017 0.0
C934 C 0.02791 0.26311 0.35653 0.0
C935 C 0.22374 0.24788 0.31092 0.0
H936 H 0.16475 0.36599 0.35146 0.0
H937 H 0.23843 0.29265 0.40211 0.0
H938 H 0.12917 0.3094 0.3011 0.0
H939 H 0.06717 0.32156 0.31979 0.0
H940 H 0.12252 0.35144 0.312 0.0
H941 H 0.20451 0.23754 0.40151 0.0
H942 H 0.14744 0.22549 0.37953 0.0
H943 H 0.22163 0.22633 0.36876 0.0
H944 H 0.99546 0.21809 0.32098 0.0
H945 H 0.16335 0.20086 0.28716 0.0
H946 H 0.02218 0.28971 0.35224 0.0
H947 H 0.04921 0.26118 0.37571 0.0
H948 H 0.98421 0.2514 0.35771 0.0
H949 H 0.2258 0.26901 0.29725 0.0
H950 H 0.24822 0.22706 0.30222 0.0
H951 H 0.2461 0.25541 0.32891 0.0
C952 C 0.27613 0.19873 0.87699 0.0
C953 C 0.30355 0.16802 0.87921 0.0
C954 C 0.30111 0.22419 0.86225 0.0
C955 C 0.3549 0.21879 0.84954 0.0
C956 C 0.38386 0.18819 0.85259 0.0
C957 C 0.3576 0.16306 0.86729 0.0
C958 C 0.26893 0.25645 0.85959 0.0
C959 C 0.44264 0.18203 0.84045 0.0
C960 C 0.3903 0.27045 0.78998 0.0
C961 C 0.42705 0.2948 0.80018 0.0
C962 C 0.36624 0.24568 0.80587 0.0
C963 C 0.38006 0.24489 0.83254 0.0
C964 C 0.41748 0.26914 0.84293 0.0
C965 C 0.43982 0.29394 0.82675 0.0
C966 C 0.32652 0.22008 0.79413 0.0
C967 C 0.43354 0.26935 0.87122 0.0
H968 H 0.23413 0.20246 0.88612 0.0
H969 H 0.37917 0.13944 0.86941 0.0
H970 H 0.29847 0.27756 0.8634 0.0
H971 H 0.25287 0.25909 0.83948 0.0
H972 H 0.23117 0.25803 0.87299 0.0
H973 H 0.45685 0.156 0.84273 0.0
H974 H 0.44181 0.1882 0.81955 0.0
H975 H 0.47552 0.19826 0.84964 0.0
H976 H 0.38106 0.27032 0.76956 0.0
H977 H 0.46792 0.31257 0.83509 0.0
H978 H 0.28346 0.22063 0.80389 0.0
H979 H 0.34492 0.19507 0.79717 0.0
H980 H 0.31998 0.22401 0.77309 0.0
H981 H 0.39615 0.27865 0.88267 0.0
H982 H 0.4717 0.28547 0.87508 0.0
H983 H 0.44355 0.2441 0.87821 0.0
C984 C 0.6521 0.17621 0.63468 0.0
C985 C 0.71177 0.17031 0.63732 0.0
C986 C 0.6236 0.19884 0.65095 0.0
C987 C 0.65601 0.21622 0.66985 0.0
C988 C 0.71645 0.21031 0.67235 0.0
C989 C 0.74345 0.18722 0.65618 0.0
C990 C 0.55894 0.20406 0.64797 0.0
C991 C 0.7525 0.22795 0.69242 0.0
C992 C 0.59921 0.2987 0.69329 0.0
C993 C 0.57833 0.29083 0.718 0.0
C994 C 0.6244 0.27461 0.67749 0.0
C995 C 0.62763 0.24162 0.68635 0.0
C996 C 0.60603 0.23341 0.71127 0.0
C997 C 0.58205 0.25827 0.72695 0.0
C998 C 0.64843 0.28463 0.65143 0.0
C999 C 0.60679 0.19833 0.72111 0.0
H1000 H 0.6276 0.16253 0.62037 0.0
H1001 H 0.78943 0.182 0.65845 0.0
H1002 H 0.537 0.20386 0.66711 0.0
H1003 H 0.55098 0.22855 0.63905 0.0
H1004 H 0.53862 0.1849 0.63558 0.0
H1005 H 0.79976 0.22294 0.69017 0.0
H1006 H 0.74542 0.25499 0.69125 0.0
H1007 H 0.73879 0.21981 0.71201 0.0
H1008 H 0.59671 0.32396 0.68642 0.0
H1009 H 0.56501 0.25212 0.74593 0.0
H1010 H 0.62576 0.27086 0.63593 0.0
H1011 H 0.69531 0.27823 0.65026 0.0
H1012 H 0.64357 0.31148 0.64766 0.0
H1013 H 0.57386 0.18369 0.71044 0.0
H1014 H 0.5966 0.19683 0.74209 0.0
H1015 H 0.64975 0.18669 0.71764 0.0
C1016 C 0.77081 0.29915 0.13718 0.0
C1017 C 0.7968 0.33023 0.13453 0.0
C1018 C 0.79773 0.27425 0.15175 0.0
C1019 C 0.85228 0.28057 0.16346 0.0
C1020 C 0.87984 0.31152 0.15978 0.0
C1021 C 0.85137 0.33614 0.14557 0.0
C1022 C 0.76639 0.24184 0.15569 0.0
C1023 C 0.9393 0.31861 0.17087 0.0
C1024 C 0.89665 0.2338 0.22385 0.0
C1025 C 0.92938 0.20777 0.21356 0.0
C1026 C 0.86969 0.25695 0.20766 0.0
C1027 C 0.8792 0.25549 0.18064 0.0
C1028 C 0.91485 0.2304 0.17023 0.0
C1029 C 0.93817 0.20637 0.18671 0.0
C1030 C 0.83095 0.28297 0.21947 0.0
C1031 C 0.92815 0.22861 0.14168 0.0
H1032 H 0.72834 0.29482 0.12875 0.0
H1033 H 0.87149 0.3602 0.14322 0.0
H1034 H 0.79594 0.22079 0.15196 0.0
H1035 H 0.75178 0.23993 0.17611 0.0
H1036 H 0.72776 0.23947 0.14296 0.0
H1037 H 0.95337 0.34448 0.16735 0.0
H1038 H 0.9397 0.3139 0.19199 0.0
H1039 H 0.97167 0.30177 0.16199 0.0
H1040 H 0.89212 0.2363 0.24458 0.0
H1041 H 0.96409 0.18671 0.17846 0.0
H1042 H 0.78746 0.28236 0.21019 0.0
H1043 H 0.84967 0.30783 0.21596 0.0
H1044 H 0.82524 0.27949 0.24063 0.0
H1045 H 0.88987 0.21848 0.13136 0.0
H1046 H 0.96606 0.21244 0.13761 0.0
H1047 H 0.9373 0.2535 0.13364 0.0
C1048 C 0.84031 0.68751 0.62603 0.0
C1049 C 0.79056 0.67178 0.63596 0.0
C1050 C 0.86797 0.71285 0.63989 0.0
C1051 C 0.84562 0.72232 0.66431 0.0
C1052 C 0.79494 0.70686 0.67418 0.0
C1053 C 0.7678 0.68203 0.65979 0.0
C1054 C 0.92167 0.72899 0.62865 0.0
C1055 C 0.76925 0.71652 0.69999 0.0
C1056 C 0.94746 0.76154 0.71296 0.0
C1057 C 0.92904 0.79442 0.71248 0.0
C1058 C 0.92077 0.73782 0.69726 0.0
C1059 C 0.87597 0.74756 0.68013 0.0
C1060 C 0.85804 0.78098 0.67928 0.0
C1061 C 0.88422 0.80396 0.69585 0.0
C1062 C 0.93947 0.70223 0.6995 0.0
C1063 C 0.81222 0.79261 0.66052 0.0
H1064 H 0.85821 0.67959 0.60766 0.0
H1065 H 0.7285 0.67057 0.66724 0.0
H1066 H 0.91915 0.75622 0.63053 0.0
H1067 H 0.96059 0.72069 0.63949 0.0
H1068 H 0.92795 0.72269 0.60794 0.0
H1069 H 0.73415 0.69939 0.70629 0.0
H1070 H 0.80342 0.71701 0.71511 0.0
H1071 H 0.75078 0.74173 0.69862 0.0
H1072 H 0.98177 0.75422 0.72613 0.0
H1073 H 0.87057 0.82956 0.69542 0.0
H1074 H 0.95613 0.69338 0.68062 0.0
H1075 H 0.90149 0.68658 0.70473 0.0
H1076 H 0.9739 0.69866 0.71428 0.0
H1077 H 0.82976 0.79103 0.64055 0.0
H1078 H 0.79885 0.81851 0.66423 0.0
H1079 H 0.7731 0.77659 0.66147 0.0
C1080 C 0.74497 0.81139 0.1567 0.0
C1081 C 0.71452 0.82965 0.13823 0.0
C1082 C 0.71651 0.78763 0.17186 0.0
C1083 C 0.65613 0.78221 0.16846 0.0
C1084 C 0.62498 0.80092 0.14992 0.0
C1085 C 0.65479 0.82442 0.13487 0.0
C1086 C 0.7512 0.76819 0.1914 0.0
C1087 C 0.56015 0.79672 0.14646 0.0
C1088 C 0.60276 0.69839 0.191 0.0
C1089 C 0.57887 0.7061 0.21504 0.0
C1090 C 0.62566 0.72331 0.17509 0.0
C1091 C 0.62632 0.75634 0.18399 0.0
C1092 C 0.60161 0.76414 0.20832 0.0
C1093 C 0.57726 0.73886 0.22342 0.0
C1094 C 0.64922 0.71431 0.1488 0.0
C1095 C 0.60264 0.79884 0.21886 0.0
H1096 H 0.79113 0.81586 0.15929 0.0
H1097 H 0.6313 0.83922 0.12087 0.0
H1098 H 0.72963 0.76884 0.21061 0.0
H1099 H 0.75335 0.74198 0.18532 0.0
H1100 H 0.79631 0.77771 0.19345 0.0
H1101 H 0.54384 0.81004 0.12915 0.0
H1102 H 0.54859 0.77022 0.14474 0.0
H1103 H 0.53721 0.80644 0.16373 0.0
H1104 H 0.60253 0.67297 0.18449 0.0
H1105 H 0.55775 0.74459 0.24197 0.0
H1106 H 0.69645 0.71993 0.14786 0.0
H1107 H 0.62751 0.72935 0.13369 0.0
H1108 H 0.64265 0.68779 0.14425 0.0
H1109 H 0.64748 0.80488 0.22524 0.0
H1110 H 0.57289 0.80175 0.23566 0.0
H1111 H 0.59044 0.81701 0.20376 0.0
C1112 C 0.25984 0.80999 0.36161 0.0
C1113 C 0.29358 0.83249 0.37555 0.0
C1114 C 0.28604 0.78594 0.34598 0.0
C1115 C 0.34752 0.78429 0.34441 0.0
C1116 C 0.38181 0.80736 0.35827 0.0
C1117 C 0.35431 0.83129 0.3737 0.0
C1118 C 0.24787 0.76216 0.33128 0.0
C1119 C 0.44737 0.80726 0.3563 0.0
C1120 C 0.41366 0.70195 0.32501 0.0
C1121 C 0.42454 0.70677 0.29864 0.0
C1122 C 0.38911 0.72711 0.34013 0.0
C1123 C 0.37571 0.75796 0.32868 0.0
C1124 C 0.38772 0.76318 0.30212 0.0
C1125 C 0.41157 0.73745 0.2874 0.0
C1126 C 0.37725 0.72064 0.36838 0.0
C1127 C 0.37442 0.79564 0.28905 0.0
H1128 H 0.21278 0.81145 0.36281 0.0
H1129 H 0.38013 0.8493 0.38409 0.0
H1130 H 0.26075 0.76147 0.31061 0.0
H1131 H 0.25358 0.73691 0.3392 0.0
H1132 H 0.20106 0.7688 0.33253 0.0
H1133 H 0.46784 0.82438 0.37035 0.0
H1134 H 0.46467 0.78207 0.35962 0.0
H1135 H 0.46059 0.81485 0.33651 0.0
H1136 H 0.4239 0.67836 0.3338 0.0
H1137 H 0.4208 0.7416 0.26708 0.0
H1138 H 0.33001 0.72327 0.37237 0.0
H1139 H 0.40037 0.73915 0.38036 0.0
H1140 H 0.39121 0.69558 0.37448 0.0
H1141 H 0.32692 0.79731 0.2855 0.0
H1142 H 0.39731 0.79811 0.27019 0.0
H1143 H 0.38682 0.81678 0.30146 0.0
C1144 C 0.16762 0.6843 0.88527 0.0
C1145 C 0.22062 0.67057 0.87727 0.0
C1146 C 0.14041 0.70913 0.87055 0.0
C1147 C 0.16736 0.72075 0.84755 0.0
C1148 C 0.22188 0.70769 0.83998 0.0
C1149 C 0.24759 0.68266 0.85481 0.0
C1150 C 0.08185 0.72202 0.87905 0.0
C1151 C 0.25324 0.72028 0.81623 0.0
C1152 C 0.07764 0.75881 0.79347 0.0
C1153 C 0.08354 0.79253 0.79856 0.0
C1154 C 0.10309 0.73521 0.80981 0.0
C1155 C 0.13792 0.74569 0.83085 0.0
C1156 C 0.14576 0.77991 0.83535 0.0
C1157 C 0.11715 0.80292 0.81952 0.0
C1158 C 0.09213 0.69906 0.80476 0.0
C1159 C 0.18369 0.79236 0.85701 0.0
H1160 H 0.1466 0.67485 0.90256 0.0
H1161 H 0.28903 0.67241 0.84884 0.0
H1162 H 0.08143 0.74938 0.87881 0.0
H1163 H 0.04801 0.71352 0.86531 0.0
H1164 H 0.06988 0.71337 0.89876 0.0
H1165 H 0.29386 0.70635 0.81223 0.0
H1166 H 0.22465 0.71862 0.79904 0.0
H1167 H 0.26447 0.7467 0.8189 0.0
H1168 H 0.0513 0.75091 0.77725 0.0
H1169 H 0.12188 0.82912 0.82322 0.0
H1170 H 0.07257 0.68738 0.82217 0.0
H1171 H 0.13387 0.68629 0.80084 0.0
H1172 H 0.06253 0.69505 0.78811 0.0
H1173 H 0.16023 0.78942 0.87564 0.0
H1174 H 0.19489 0.81886 0.85451 0.0
H1175 H 0.22463 0.77797 0.85826 0.0
loop_
_geom_bond_atom_site_label_1
_geom_bond_atom_site_label_2
_geom_bond_distance
_geom_bond_site_symmetry_2
_ccdc_geom_bond_type
H0 C3 0.931 . S
H1 C6 0.928 . S
H2 C8 0.930 . S
C3 H0 0.931 . S
C3 C4 1.413 . S
C3 C5 1.360 . S
C4 C3 1.413 . S
C4 C8 1.429 . S
C5 C3 1.360 . S
C5 C6 1.372 . S
C6 H1 0.928 . S
C6 C5 1.372 . S
C6 C7 1.404 . S
C7 C6 1.404 . S
C7 C8 1.391 . S
C8 H2 0.930 . S
C8 C4 1.429 . S
C8 C7 1.391 . S
H9 C12 0.931 . S
H10 C15 0.928 . S
H11 C17 0.930 . S
C12 H9 0.931 . S
C12 C13 1.413 . S
C12 C14 1.360 . S
C13 C12 1.413 . S
C13 C17 1.429 . S
C14 C12 1.360 . S
C14 C15 1.372 . S
C15 H10 0.928 . S
C15 C14 1.372 . S
C15 C16 1.404 . S
C16 C15 1.404 . S
C16 C17 1.391 . S
C17 H11 0.930 . S
C17 C13 1.429 . S
C17 C16 1.391 . S
H18 C21 0.931 . S
H19 C24 0.928 . S
H20 C26 0.930 . S
C21 H18 0.931 . S
C21 C22 1.413 . S
C21 C23 1.360 . S
C22 C21 1.413 . S
C22 C26 1.429 . S
C23 C21 1.360 . S
C23 C24 1.372 . S
C24 H19 0.928 . S
C24 C23 1.372 . S
C24 C25 1.404 . S
C25 C24 1.404 . S
C25 C26 1.391 . S
C26 H20 0.930 . S
C26 C22 1.429 . S
C26 C25 1.391 . S
H27 C30 0.931 . S
H28 C33 0.928 . S
H29 C35 0.930 . S
C30 H27 0.931 . S
C30 C31 1.413 . S
C30 C32 1.360 . S
C31 C30 1.413 . S
C31 C35 1.429 . S
C32 C30 1.360 . S
C32 C33 1.372 . S
C33 H28 0.928 . S
C33 C32 1.372 . S
C33 C34 1.404 . S
C34 C33 1.404 . S
C34 C35 1.391 . S
C35 H29 0.930 . S
C35 C31 1.429 . S
C35 C34 1.391 . S
H36 C39 0.931 . S
H37 C42 0.928 . S
H38 C44 0.930 . S
C39 H36 0.931 . S
C39 C40 1.413 . S
C39 C41 1.360 . S
C40 C39 1.413 . S
C40 C44 1.429 . S
C41 C39 1.360 . S
C41 C42 1.372 . S
C42 H37 0.928 . S
C42 C41 1.372 . S
C42 C43 1.404 . S
C43 C42 1.404 . S
C43 C44 1.391 . S
C44 H38 0.930 . S
C44 C40 1.429 . S
C44 C43 1.391 . S
H45 C48 0.931 . S
H46 C51 0.928 . S
H47 C53 0.930 . S
C48 H45 0.931 . S
C48 C49 1.413 . S
C48 C50 1.360 . S
C49 C48 1.413 . S
C49 C53 1.429 . S
C50 C48 1.360 . S
C50 C51 1.372 . S
C51 H46 0.928 . S
C51 C50 1.372 . S
C51 C52 1.404 . S
C52 C51 1.404 . S
C52 C53 1.391 . S
C53 H47 0.930 . S
C53 C49 1.429 . S
C53 C52 1.391 . S
H54 C57 0.931 . S
H55 C60 0.928 . S
H56 C62 0.930 . S
C57 H54 0.931 . S
C57 C58 1.413 . S
C57 C59 1.360 . S
C58 C57 1.413 . S
C58 C62 1.429 . S
C59 C57 1.360 . S
C59 C60 1.372 . S
C60 H55 0.928 . S
C60 C59 1.372 . S
C60 C61 1.404 . S
C61 C60 1.404 . S
C61 C62 1.391 . S
C62 H56 0.930 . S
C62 C58 1.429 . S
C62 C61 1.391 . S
H63 C66 0.931 . S
H64 C69 0.928 . S
H65 C71 0.930 . S
C66 H63 0.931 . S
C66 C67 1.413 . S
C66 C68 1.360 . S
C67 C66 1.413 . S
C67 C71 1.429 . S
C68 C66 1.360 . S
C68 C69 1.372 . S
C69 H64 0.928 . S
C69 C68 1.372 . S
C69 C70 1.404 . S
C70 C69 1.404 . S
C70 C71 1.391 . S
C71 H65 0.930 . S
C71 C67 1.429 . S
C71 C70 1.391 . S
Tb72 N101 2.617 . S
Tb72 N107 2.572 . S
Tb72 O116 2.465 . S
Tb72 O117 2.387 . S
Tb72 O119 2.428 . S
Tb72 O120 2.308 1_455 S
Tb72 O124 2.349 . S
Tb72 O127 2.393 . S
Tb72 C136 2.802 . S
C73 N74 1.379 . S
C73 C76 1.416 . S
C73 C80 1.424 . S
N74 C73 1.379 . S
N74 C77 1.334 . S
N74 Tb83 2.617 . S
C75 C77 1.390 . S
C75 C78 1.339 . S
C75 H95 0.930 . S
C76 C73 1.416 . S
C76 C78 1.416 . S
C76 C82 1.448 . S
C77 N74 1.334 . S
C77 C75 1.390 . S
C77 H88 0.930 . S
C78 C75 1.339 . S
C78 C76 1.416 . S
C78 H99 0.930 . S
C79 C80 1.413 . S
C79 C81 1.427 . S
C79 C85 1.416 . S
C80 C73 1.424 . S
C80 C79 1.413 . S
C80 N84 1.361 . S
C81 C79 1.427 . S
C81 C82 1.328 . S
C81 H96 0.929 . S
C82 C76 1.448 . S
C82 C81 1.328 . S
C82 H97 0.930 . S
Tb83 N74 2.617 . S
Tb83 N84 2.572 . S
Tb83 O118 2.349 1_655 S
Tb83 O121 2.393 . S
Tb83 O122 2.465 . S
Tb83 O123 2.387 . S
Tb83 O125 2.428 . S
Tb83 O126 2.308 1_655 S
Tb83 C147 2.802 . S
N84 C80 1.361 . S
N84 Tb83 2.572 . S
N84 C86 1.340 . S
C85 C79 1.416 . S
C85 C87 1.332 . S
C85 H93 0.931 . S
C86 N84 1.340 . S
C86 C87 1.407 . S
C86 H92 0.930 . S
C87 C85 1.332 . S
C87 C86 1.407 . S
C87 H89 0.929 . S
H88 C77 0.930 . S
H89 C87 0.929 . S
H90 C105 0.930 . S
H91 C112 0.929 . S
H92 C86 0.930 . S
H93 C85 0.931 . S
H94 C108 0.930 . S
H95 C75 0.930 . S
H96 C81 0.929 . S
H97 C82 0.930 . S
H98 C103 0.930 . S
H99 C78 0.930 . S
H100 C111 0.931 . S
N101 Tb72 2.617 . S
N101 C102 1.379 . S
N101 C105 1.334 . S
C102 N101 1.379 . S
C102 C104 1.416 . S
C102 C110 1.424 . S
C103 H98 0.930 . S
C103 C105 1.390 . S
C103 C106 1.339 . S
C104 C102 1.416 . S
C104 C106 1.416 . S
C104 C137 1.448 . S
C105 H90 0.930 . S
C105 N101 1.334 . S
C105 C103 1.390 . S
C106 C103 1.339 . S
C106 C104 1.416 . S
C106 H113 0.930 . S
N107 Tb72 2.572 . S
N107 C108 1.340 . S
N107 C110 1.361 . S
C108 H94 0.930 . S
C108 N107 1.340 . S
C108 C112 1.407 . S
C109 C110 1.413 . S
C109 C111 1.416 . S
C109 C138 1.427 . S
C110 C102 1.424 . S
C110 N107 1.361 . S
C110 C109 1.413 . S
C111 H100 0.931 . S
C111 C109 1.416 . S
C111 C112 1.332 . S
C112 H91 0.929 . S
C112 C108 1.407 . S
C112 C111 1.332 . S
H113 C106 0.930 . S
H114 C137 0.930 . S
H115 C138 0.929 . S
O116 Tb72 2.465 . S
O116 C136 1.264 . S
O117 Tb72 2.387 . S
O117 C128 1.264 . S
O118 Tb83 2.349 1_455 S
O118 C128 1.243 . S
O119 Tb72 2.428 . S
O119 C136 1.256 . S
O120 Tb72 2.308 1_655 S
O120 C135 1.266 . S
O121 Tb83 2.393 . S
O121 C135 1.248 . S
O122 Tb83 2.465 . S
O122 C147 1.264 . S
O123 Tb83 2.387 . S
O123 C139 1.264 . S
O124 Tb72 2.349 . S
O124 C139 1.243 1_455 S
O125 Tb83 2.428 . S
O125 C147 1.256 . S
O126 Tb83 2.308 1_455 S
O126 C146 1.266 . S
O127 Tb72 2.393 . S
O127 C146 1.248 . S
C128 O117 1.264 . S
C128 O118 1.243 . S
C129 C132 1.399 . S
C129 C134 1.383 . S
C129 C136 1.496 . S
C130 C131 1.399 . S
C130 C134 1.389 . S
C131 C130 1.399 . S
C131 C133 1.380 . S
C131 H148 0.929 . S
C132 C129 1.399 . S
C132 C133 1.392 . S
C132 H149 0.929 . S
C133 C131 1.380 . S
C133 C132 1.392 . S
C133 H150 0.929 . S
C134 C129 1.383 . S
C134 C130 1.389 . S
C134 H151 0.931 . S
C135 O120 1.266 . S
C135 O121 1.248 . S
C136 Tb72 2.802 . S
C136 O116 1.264 . S
C136 O119 1.256 . S
C136 C129 1.496 . S
C137 C104 1.448 . S
C137 H114 0.930 . S
C137 C138 1.328 . S
C138 C109 1.427 . S
C138 H115 0.929 . S
C138 C137 1.328 . S
C139 O123 1.264 . S
C139 O124 1.243 1_655 S
C140 C143 1.399 . S
C140 C144 1.383 . S
C140 C147 1.496 . S
C141 C142 1.399 . S
C141 C144 1.389 . S
C142 C141 1.399 . S
C142 C145 1.380 . S
C142 H152 0.929 . S
C143 C140 1.399 . S
C143 C145 1.392 . S
C143 H153 0.929 . S
C144 C140 1.383 . S
C144 C141 1.389 . S
C144 H154 0.931 . S
C145 C142 1.380 . S
C145 C143 1.392 . S
C145 H155 0.929 . S
C146 O126 1.266 . S
C146 O127 1.248 . S
C147 Tb83 2.802 . S
C147 O122 1.264 . S
C147 O125 1.256 . S
C147 C140 1.496 . S
H148 C131 0.929 . S
H149 C132 0.929 . S
H150 C133 0.929 . S
H151 C134 0.931 . S
H152 C142 0.929 . S
H153 C143 0.929 . S
H154 C144 0.931 . S
H155 C145 0.929 . S
Tb156 N185 2.617 . S
Tb156 N191 2.572 . S
Tb156 O200 2.465 . S
Tb156 O201 2.387 . S
Tb156 O203 2.428 . S
Tb156 O204 2.308 . S
Tb156 O208 2.349 . S
Tb156 O211 2.393 . S
Tb156 C220 2.802 . S
C157 N158 1.379 . S
C157 C160 1.416 . S
C157 C164 1.424 . S
N158 C157 1.379 . S
N158 C161 1.334 . S
N158 Tb167 2.617 . S
C159 C161 1.390 . S
C159 C162 1.339 . S
C159 H179 0.930 . S
C160 C157 1.416 . S
C160 C162 1.416 . S
C160 C166 1.448 . S
C161 N158 1.334 . S
C161 C159 1.390 . S
C161 H172 0.930 . S
C162 C159 1.339 . S
C162 C160 1.416 . S
C162 H183 0.930 . S
C163 C164 1.413 . S
C163 C165 1.427 . S
C163 C169 1.416 . S
C164 C157 1.424 . S
C164 C163 1.413 . S
C164 N168 1.361 . S
C165 C163 1.427 . S
C165 C166 1.328 . S
C165 H180 0.929 . S
C166 C160 1.448 . S
C166 C165 1.328 . S
C166 H181 0.930 . S
Tb167 N158 2.617 . S
Tb167 N168 2.572 . S
Tb167 O202 2.349 . S
Tb167 O205 2.393 . S
Tb167 O206 2.465 . S
Tb167 O207 2.387 . S
Tb167 O209 2.428 . S
Tb167 O210 2.308 . S
Tb167 C231 2.802 . S
N168 C164 1.361 . S
N168 Tb167 2.572 . S
N168 C170 1.340 . S
C169 C163 1.416 . S
C169 C171 1.332 . S
C169 H177 0.931 . S
C170 N168 1.340 . S
C170 C171 1.407 . S
C170 H176 0.930 . S
C171 C169 1.332 . S
C171 C170 1.407 . S
C171 H173 0.929 . S
H172 C161 0.930 . S
H173 C171 0.929 . S
H174 C189 0.930 . S
H175 C196 0.929 . S
H176 C170 0.930 . S
H177 C169 0.931 . S
H178 C192 0.930 . S
H179 C159 0.930 . S
H180 C165 0.929 . S
H181 C166 0.930 . S
H182 C187 0.930 . S
H183 C162 0.930 . S
H184 C195 0.931 . S
N185 Tb156 2.617 . S
N185 C186 1.379 . S
N185 C189 1.334 . S
C186 N185 1.379 . S
C186 C188 1.416 . S
C186 C194 1.424 . S
C187 H182 0.930 . S
C187 C189 1.390 . S
C187 C190 1.339 . S
C188 C186 1.416 . S
C188 C190 1.416 . S
C188 C221 1.448 . S
C189 H174 0.930 . S
C189 N185 1.334 . S
C189 C187 1.390 . S
C190 C187 1.339 . S
C190 C188 1.416 . S
C190 H197 0.930 . S
N191 Tb156 2.572 . S
N191 C192 1.340 . S
N191 C194 1.361 . S
C192 H178 0.930 . S
C192 N191 1.340 . S
C192 C196 1.407 . S
C193 C194 1.413 . S
C193 C195 1.416 . S
C193 C222 1.427 . S
C194 C186 1.424 . S
C194 N191 1.361 . S
C194 C193 1.413 . S
C195 H184 0.931 . S
C195 C193 1.416 . S
C195 C196 1.332 . S
C196 H175 0.929 . S
C196 C192 1.407 . S
C196 C195 1.332 . S
H197 C190 0.930 . S
H198 C221 0.930 . S
H199 C222 0.929 . S
O200 Tb156 2.465 . S
O200 C220 1.264 . S
O201 Tb156 2.387 . S
O201 C212 1.264 . S
O202 Tb167 2.349 . S
O202 C212 1.243 . S
O203 Tb156 2.428 . S
O203 C220 1.256 . S
O204 Tb156 2.308 . S
O204 C219 1.266 . S
O205 Tb167 2.393 . S
O205 C219 1.248 . S
O206 Tb167 2.465 . S
O206 C231 1.264 . S
O207 Tb167 2.387 . S
O207 C223 1.264 . S
O208 Tb156 2.349 . S
O208 C223 1.243 . S
O209 Tb167 2.428 . S
O209 C231 1.256 . S
O210 Tb167 2.308 . S
O210 C230 1.266 . S
O211 Tb156 2.393 . S
O211 C230 1.248 . S
C212 O201 1.264 . S
C212 O202 1.243 . S
C213 C216 1.399 . S
C213 C218 1.383 . S
C213 C220 1.496 . S
C214 C215 1.399 . S
C214 C218 1.389 . S
C215 C214 1.399 . S
C215 C217 1.380 . S
C215 H232 0.929 . S
C216 C213 1.399 . S
C216 C217 1.392 . S
C216 H233 0.929 . S
C217 C215 1.380 . S
C217 C216 1.392 . S
C217 H234 0.929 . S
C218 C213 1.383 . S
C218 C214 1.389 . S
C218 H235 0.931 . S
C219 O204 1.266 . S
C219 O205 1.248 . S
C220 Tb156 2.802 . S
C220 O200 1.264 . S
C220 O203 1.256 . S
C220 C213 1.496 . S
C221 C188 1.448 . S
C221 H198 0.930 . S
C221 C222 1.328 . S
C222 C193 1.427 . S
C222 H199 0.929 . S
C222 C221 1.328 . S
C223 O207 1.264 . S
C223 O208 1.243 . S
C224 C227 1.399 . S
C224 C228 1.383 . S
C224 C231 1.496 . S
C225 C226 1.399 . S
C225 C228 1.389 . S
C226 C225 1.399 . S
C226 C229 1.380 . S
C226 H236 0.929 . S
C227 C224 1.399 . S
C227 C229 1.392 . S
C227 H237 0.929 . S
C228 C224 1.383 . S
C228 C225 1.389 . S
C228 H238 0.931 . S
C229 C226 1.380 . S
C229 C227 1.392 . S
C229 H239 0.929 . S
C230 O210 1.266 . S
C230 O211 1.248 . S
C231 Tb167 2.802 . S
C231 O206 1.264 . S
C231 O209 1.256 . S
C231 C224 1.496 . S
H232 C215 0.929 . S
H233 C216 0.929 . S
H234 C217 0.929 . S
H235 C218 0.931 . S
H236 C226 0.929 . S
H237 C227 0.929 . S
H238 C228 0.931 . S
H239 C229 0.929 . S
Tb240 N269 2.617 . S
Tb240 N275 2.572 . S
Tb240 O284 2.465 . S
Tb240 O285 2.387 . S
Tb240 O287 2.428 . S
Tb240 O288 2.308 . S
Tb240 O292 2.349 . S
Tb240 O295 2.393 . S
Tb240 C304 2.802 . S
C241 N242 1.379 . S
C241 C244 1.416 . S
C241 C248 1.424 . S
N242 C241 1.379 . S
N242 C245 1.334 . S
N242 Tb251 2.617 . S
C243 C245 1.390 . S
C243 C246 1.339 . S
C243 H263 0.930 . S
C244 C241 1.416 . S
C244 C246 1.416 . S
C244 C250 1.448 . S
C245 N242 1.334 . S
C245 C243 1.390 . S
C245 H256 0.930 . S
C246 C243 1.339 . S
C246 C244 1.416 . S
C246 H267 0.930 . S
C247 C248 1.413 . S
C247 C249 1.427 . S
C247 C253 1.416 . S
C248 C241 1.424 . S
C248 C247 1.413 . S
C248 N252 1.361 . S
C249 C247 1.427 . S
C249 C250 1.328 . S
C249 H264 0.929 . S
C250 C244 1.448 . S
C250 C249 1.328 . S
C250 H265 0.930 . S
Tb251 N242 2.617 . S
Tb251 N252 2.572 . S
Tb251 O286 2.349 1_655 S
Tb251 O289 2.393 . S
Tb251 O290 2.465 . S
Tb251 O291 2.387 . S
Tb251 O293 2.428 . S
Tb251 O294 2.308 1_655 S
Tb251 C315 2.802 . S
N252 C248 1.361 . S
N252 Tb251 2.572 . S
N252 C254 1.340 . S
C253 C247 1.416 . S
C253 C255 1.332 . S
C253 H261 0.931 . S
C254 N252 1.340 . S
C254 C255 1.407 . S
C254 H260 0.930 . S
C255 C253 1.332 . S
C255 C254 1.407 . S
C255 H257 0.929 . S
H256 C245 0.930 . S
H257 C255 0.929 . S
H258 C273 0.930 . S
H259 C280 0.929 . S
H260 C254 0.930 . S
H261 C253 0.931 . S
H262 C276 0.930 . S
H263 C243 0.930 . S
H264 C249 0.929 . S
H265 C250 0.930 . S
H266 C271 0.930 . S
H267 C246 0.930 . S
H268 C279 0.931 . S
N269 Tb240 2.617 . S
N269 C270 1.379 . S
N269 C273 1.334 . S
C270 N269 1.379 . S
C270 C272 1.416 . S
C270 C278 1.424 . S
C271 H266 0.930 . S
C271 C273 1.390 . S
C271 C274 1.339 . S
C272 C270 1.416 . S
C272 C274 1.416 . S
C272 C305 1.448 . S
C273 H258 0.930 . S
C273 N269 1.334 . S
C273 C271 1.390 . S
C274 C271 1.339 . S
C274 C272 1.416 . S
C274 H281 0.930 . S
N275 Tb240 2.572 . S
N275 C276 1.340 . S
N275 C278 1.361 . S
C276 H262 0.930 . S
C276 N275 1.340 . S
C276 C280 1.407 . S
C277 C278 1.413 . S
C277 C279 1.416 . S
C277 C306 1.427 . S
C278 C270 1.424 . S
C278 N275 1.361 . S
C278 C277 1.413 . S
C279 H268 0.931 . S
C279 C277 1.416 . S
C279 C280 1.332 . S
C280 H259 0.929 . S
C280 C276 1.407 . S
C280 C279 1.332 . S
H281 C274 0.930 . S
H282 C305 0.930 . S
H283 C306 0.929 . S
O284 Tb240 2.465 . S
O284 C304 1.264 . S
O285 Tb240 2.387 . S
O285 C296 1.264 . S
O286 Tb251 2.349 1_455 S
O286 C296 1.243 . S
O287 Tb240 2.428 . S
O287 C304 1.256 . S
O288 Tb240 2.308 . S
O288 C303 1.266 1_455 S
O289 Tb251 2.393 . S
O289 C303 1.248 . S
O290 Tb251 2.465 . S
O290 C315 1.264 . S
O291 Tb251 2.387 . S
O291 C307 1.264 . S
O292 Tb240 2.349 . S
O292 C307 1.243 1_455 S
O293 Tb251 2.428 . S
O293 C315 1.256 . S
O294 Tb251 2.308 1_455 S
O294 C314 1.266 . S
O295 Tb240 2.393 . S
O295 C314 1.248 . S
C296 O285 1.264 . S
C296 O286 1.243 . S
C297 C300 1.399 . S
C297 C302 1.383 . S
C297 C304 1.496 . S
C298 C299 1.399 . S
C298 C302 1.389 . S
C299 C298 1.399 . S
C299 C301 1.380 . S
C299 H316 0.929 . S
C300 C297 1.399 . S
C300 C301 1.392 . S
C300 H317 0.929 . S
C301 C299 1.380 . S
C301 C300 1.392 . S
C301 H318 0.929 . S
C302 C297 1.383 . S
C302 C298 1.389 . S
C302 H319 0.931 . S
C303 O288 1.266 1_655 S
C303 O289 1.248 . S
C304 Tb240 2.802 . S
C304 O284 1.264 . S
C304 O287 1.256 . S
C304 C297 1.496 . S
C305 C272 1.448 . S
C305 H282 0.930 . S
C305 C306 1.328 . S
C306 C277 1.427 . S
C306 H283 0.929 . S
C306 C305 1.328 . S
C307 O291 1.264 . S
C307 O292 1.243 1_655 S
C308 C311 1.399 . S
C308 C312 1.383 . S
C308 C315 1.496 . S
C309 C310 1.399 . S
C309 C312 1.389 . S
C310 C309 1.399 . S
C310 C313 1.380 . S
C310 H320 0.929 . S
C311 C308 1.399 . S
C311 C313 1.392 . S
C311 H321 0.929 . S
C312 C308 1.383 . S
C312 C309 1.389 . S
C312 H322 0.931 . S
C313 C310 1.380 . S
C313 C311 1.392 . S
C313 H323 0.929 . S
C314 O294 1.266 . S
C314 O295 1.248 . S
C315 Tb251 2.802 . S
C315 O290 1.264 . S
C315 O293 1.256 . S
C315 C308 1.496 . S
H316 C299 0.929 . S
H317 C300 0.929 . S
H318 C301 0.929 . S
H319 C302 0.931 . S
H320 C310 0.929 . S
H321 C311 0.929 . S
H322 C312 0.931 . S
H323 C313 0.929 . S
Tb324 N353 2.617 . S
Tb324 N359 2.572 . S
Tb324 O368 2.465 . S
Tb324 O369 2.387 . S
Tb324 O371 2.428 . S
Tb324 O372 2.308 . S
Tb324 O376 2.349 . S
Tb324 O379 2.393 . S
Tb324 C388 2.802 . S
C325 N326 1.379 . S
C325 C328 1.416 . S
C325 C332 1.424 . S
N326 C325 1.379 . S
N326 C329 1.334 . S
N326 Tb335 2.617 . S
C327 C329 1.390 . S
C327 C330 1.339 . S
C327 H347 0.930 . S
C328 C325 1.416 . S
C328 C330 1.416 . S
C328 C334 1.448 . S
C329 N326 1.334 . S
C329 C327 1.390 . S
C329 H340 0.930 . S
C330 C327 1.339 . S
C330 C328 1.416 . S
C330 H351 0.930 . S
C331 C332 1.413 . S
C331 C333 1.427 . S
C331 C337 1.416 . S
C332 C325 1.424 . S
C332 C331 1.413 . S
C332 N336 1.361 . S
C333 C331 1.427 . S
C333 C334 1.328 . S
C333 H348 0.929 . S
C334 C328 1.448 . S
C334 C333 1.328 . S
C334 H349 0.930 . S
Tb335 N326 2.617 . S
Tb335 N336 2.572 . S
Tb335 O370 2.349 . S
Tb335 O373 2.393 . S
Tb335 O374 2.465 . S
Tb335 O375 2.387 . S
Tb335 O377 2.428 . S
Tb335 O378 2.308 . S
Tb335 C399 2.802 . S
N336 C332 1.361 . S
N336 Tb335 2.572 . S
N336 C338 1.340 . S
C337 C331 1.416 . S
C337 C339 1.332 . S
C337 H345 0.931 . S
C338 N336 1.340 . S
C338 C339 1.407 . S
C338 H344 0.930 . S
C339 C337 1.332 . S
C339 C338 1.407 . S
C339 H341 0.929 . S
H340 C329 0.930 . S
H341 C339 0.929 . S
H342 C357 0.930 . S
H343 C364 0.929 . S
H344 C338 0.930 . S
H345 C337 0.931 . S
H346 C360 0.930 . S
H347 C327 0.930 . S
H348 C333 0.929 . S
H349 C334 0.930 . S
H350 C355 0.930 . S
H351 C330 0.930 . S
H352 C363 0.931 . S
N353 Tb324 2.617 . S
N353 C354 1.379 . S
N353 C357 1.334 . S
C354 N353 1.379 . S
C354 C356 1.416 . S
C354 C362 1.424 . S
C355 H350 0.930 . S
C355 C357 1.390 . S
C355 C358 1.339 . S
C356 C354 1.416 . S
C356 C358 1.416 . S
C356 C389 1.448 . S
C357 H342 0.930 . S
C357 N353 1.334 . S
C357 C355 1.390 . S
C358 C355 1.339 . S
C358 C356 1.416 . S
C358 H365 0.930 . S
N359 Tb324 2.572 . S
N359 C360 1.340 . S
N359 C362 1.361 . S
C360 H346 0.930 . S
C360 N359 1.340 . S
C360 C364 1.407 . S
C361 C362 1.413 . S
C361 C363 1.416 . S
C361 C390 1.427 . S
C362 C354 1.424 . S
C362 N359 1.361 . S
C362 C361 1.413 . S
C363 H352 0.931 . S
C363 C361 1.416 . S
C363 C364 1.332 . S
C364 H343 0.929 . S
C364 C360 1.407 . S
C364 C363 1.332 . S
H365 C358 0.930 . S
H366 C389 0.930 . S
H367 C390 0.929 . S
O368 Tb324 2.465 . S
O368 C388 1.264 . S
O369 Tb324 2.387 . S
O369 C380 1.264 . S
O370 Tb335 2.349 . S
O370 C380 1.243 . S
O371 Tb324 2.428 . S
O371 C388 1.256 . S
O372 Tb324 2.308 . S
O372 C387 1.266 . S
O373 Tb335 2.393 . S
O373 C387 1.248 . S
O374 Tb335 2.465 . S
O374 C399 1.264 . S
O375 Tb335 2.387 . S
O375 C391 1.264 . S
O376 Tb324 2.349 . S
O376 C391 1.243 . S
O377 Tb335 2.428 . S
O377 C399 1.256 . S
O378 Tb335 2.308 . S
O378 C398 1.266 . S
O379 Tb324 2.393 . S
O379 C398 1.248 . S
C380 O369 1.264 . S
C380 O370 1.243 . S
C381 C384 1.399 . S
C381 C386 1.383 . S
C381 C388 1.496 . S
C382 C383 1.399 . S
C382 C386 1.389 . S
C383 C382 1.399 . S
C383 C385 1.380 . S
C383 H400 0.929 . S
C384 C381 1.399 . S
C384 C385 1.392 . S
C384 H401 0.929 . S
C385 C383 1.380 . S
C385 C384 1.392 . S
C385 H402 0.929 . S
C386 C381 1.383 . S
C386 C382 1.389 . S
C386 H403 0.931 . S
C387 O372 1.266 . S
C387 O373 1.248 . S
C388 Tb324 2.802 . S
C388 O368 1.264 . S
C388 O371 1.256 . S
C388 C381 1.496 . S
C389 C356 1.448 . S
C389 H366 0.930 . S
C389 C390 1.328 . S
C390 C361 1.427 . S
C390 H367 0.929 . S
C390 C389 1.328 . S
C391 O375 1.264 . S
C391 O376 1.243 . S
C392 C395 1.399 . S
C392 C396 1.383 . S
C392 C399 1.496 . S
C393 C394 1.399 . S
C393 C396 1.389 . S
C394 C393 1.399 . S
C394 C397 1.380 . S
C394 H404 0.929 . S
C395 C392 1.399 . S
C395 C397 1.392 . S
C395 H405 0.929 . S
C396 C392 1.383 . S
C396 C393 1.389 . S
C396 H406 0.931 . S
C397 C394 1.380 . S
C397 C395 1.392 . S
C397 H407 0.929 . S
C398 O378 1.266 . S
C398 O379 1.248 . S
C399 Tb335 2.802 . S
C399 O374 1.264 . S
C399 O377 1.256 . S
C399 C392 1.496 . S
H400 C383 0.929 . S
H401 C384 0.929 . S
H402 C385 0.929 . S
H403 C386 0.931 . S
H404 C394 0.929 . S
H405 C395 0.929 . S
H406 C396 0.931 . S
H407 C397 0.929 . S
C408 C409 1.391 . S
C408 C410 1.394 . S
C408 H424 0.931 . S
C409 C408 1.391 . S
C409 C413 1.376 . S
C410 C408 1.394 . S
C410 C411 1.369 . S
C410 C414 1.531 . S
C411 C410 1.369 . S
C411 C412 1.410 . S
C411 C419 1.503 1_565 S
C412 C411 1.410 . S
C412 C413 1.392 . S
C412 C415 1.511 1_565 S
C413 C409 1.376 . S
C413 C412 1.392 . S
C413 H425 0.929 . S
C414 C410 1.531 . S
C414 H426 0.929 1_565 S
C414 H427 0.962 . S
C414 H428 0.960 . S
C415 C412 1.511 1_545 S
C415 H429 0.961 . S
C415 H430 0.961 . S
C415 H431 0.961 . S
C416 C417 1.370 . S
C416 C418 1.363 . S
C416 H432 0.931 . S
C417 C416 1.370 . S
C417 C421 1.408 . S
C418 C416 1.363 . S
C418 C419 1.370 . S
C418 C422 1.524 1_545 S
C419 C411 1.503 1_545 S
C419 C418 1.370 . S
C419 C420 1.403 . S
C420 C419 1.403 . S
C420 C421 1.404 . S
C420 C423 1.539 . S
C421 C417 1.408 . S
C421 C420 1.404 . S
C421 H433 0.930 . S
C422 C418 1.524 1_565 S
C422 H434 0.956 . S
C422 H435 0.961 . S
C422 H436 0.961 . S
C423 C420 1.539 . S
C423 H437 0.958 . S
C423 H438 0.961 . S
C423 H439 0.960 . S
H424 C408 0.931 . S
H425 C413 0.929 . S
H426 C414 0.929 1_545 S
H427 C414 0.962 . S
H428 C414 0.960 . S
H429 C415 0.961 . S
H430 C415 0.961 . S
H431 C415 0.961 . S
H432 C416 0.931 . S
H433 C421 0.930 . S
H434 C422 0.956 . S
H435 C422 0.961 . S
H436 C422 0.961 . S
H437 C423 0.958 . S
H438 C423 0.961 . S
H439 C423 0.960 . S
C440 C441 1.391 . S
C440 C442 1.394 . S
C440 H456 0.931 . S
C441 C440 1.391 . S
C441 C445 1.376 . S
C442 C440 1.394 . S
C442 C443 1.369 . S
C442 C446 1.531 . S
C443 C442 1.369 . S
C443 C444 1.410 . S
C443 C451 1.503 . S
C444 C443 1.410 . S
C444 C445 1.392 . S
C444 C447 1.511 . S
C445 C441 1.376 . S
C445 C444 1.392 . S
C445 H457 0.929 . S
C446 C442 1.531 . S
C446 H458 0.960 . S
C446 H459 0.962 . S
C446 H460 0.960 . S
C447 C444 1.511 . S
C447 H461 0.961 . S
C447 H462 0.961 . S
C447 H463 0.961 . S
C448 C449 1.370 . S
C448 C450 1.363 . S
C448 H464 0.931 . S
C449 C448 1.370 . S
C449 C453 1.408 . S
C450 C448 1.363 . S
C450 C451 1.370 . S
C450 C454 1.524 . S
C451 C443 1.503 . S
C451 C450 1.370 . S
C451 C452 1.403 . S
C452 C451 1.403 . S
C452 C453 1.404 . S
C452 C455 1.539 . S
C453 C449 1.408 . S
C453 C452 1.404 . S
C453 H465 0.930 . S
C454 C450 1.524 . S
C454 H466 0.956 . S
C454 H467 0.961 . S
C454 H468 0.961 . S
C455 C452 1.539 . S
C455 H469 0.958 . S
C455 H470 0.961 . S
C455 H471 0.960 . S
H456 C440 0.931 . S
H457 C445 0.929 . S
H458 C446 0.960 . S
H459 C446 0.962 . S
H460 C446 0.960 . S
H461 C447 0.961 . S
H462 C447 0.961 . S
H463 C447 0.961 . S
H464 C448 0.931 . S
H465 C453 0.930 . S
H466 C454 0.956 . S
H467 C454 0.961 . S
H468 C454 0.961 . S
H469 C455 0.958 . S
H470 C455 0.961 . S
H471 C455 0.960 . S
C472 C473 1.391 . S
C472 C474 1.394 . S
C472 H488 0.931 . S
C473 C472 1.391 . S
C473 C477 1.376 . S
C474 C472 1.394 . S
C474 C475 1.369 . S
C474 C478 1.531 . S
C475 C474 1.369 . S
C475 C476 1.410 . S
C475 C483 1.503 . S
C476 C475 1.410 . S
C476 C477 1.392 . S
C476 C479 1.511 . S
C477 C473 1.376 . S
C477 C476 1.392 . S
C477 H489 0.929 . S
C478 C474 1.531 . S
C478 H490 0.960 . S
C478 H491 0.962 . S
C478 H492 0.960 . S
C479 C476 1.511 . S
C479 H493 0.961 . S
C479 H494 0.961 . S
C479 H495 0.961 . S
C480 C481 1.370 . S
C480 C482 1.363 . S
C480 H496 0.931 . S
C481 C480 1.370 . S
C481 C485 1.408 . S
C482 C480 1.363 . S
C482 C483 1.370 . S
C482 C486 1.524 . S
C483 C475 1.503 . S
C483 C482 1.370 . S
C483 C484 1.403 . S
C484 C483 1.403 . S
C484 C485 1.404 . S
C484 C487 1.539 . S
C485 C481 1.408 . S
C485 C484 1.404 . S
C485 H497 0.930 . S
C486 C482 1.524 . S
C486 H498 0.956 . S
C486 H499 0.961 . S
C486 H500 0.961 . S
C487 C484 1.539 . S
C487 H501 0.958 . S
C487 H502 0.961 . S
C487 H503 0.960 . S
H488 C472 0.931 . S
H489 C477 0.929 . S
H490 C478 0.960 . S
H491 C478 0.962 . S
H492 C478 0.960 . S
H493 C479 0.961 . S
H494 C479 0.961 . S
H495 C479 0.961 . S
H496 C480 0.931 . S
H497 C485 0.930 . S
H498 C486 0.956 . S
H499 C486 0.961 . S
H500 C486 0.961 . S
H501 C487 0.958 . S
H502 C487 0.961 . S
H503 C487 0.960 . S
C504 C505 1.391 . S
C504 C506 1.394 . S
C504 H520 0.931 . S
C505 C504 1.391 . S
C505 C509 1.376 . S
C506 C504 1.394 . S
C506 C507 1.369 . S
C506 C510 1.531 . S
C507 C506 1.369 . S
C507 C508 1.410 . S
C507 C515 1.503 1_565 S
C508 C507 1.410 . S
C508 C509 1.392 . S
C508 C511 1.511 . S
C509 C505 1.376 . S
C509 C508 1.392 . S
C509 H521 0.929 . S
C510 C506 1.531 . S
C510 H522 0.960 . S
C510 H523 0.962 . S
C510 H524 0.960 . S
C511 C508 1.511 . S
C511 H525 0.961 . S
C511 H526 0.961 1_565 S
C511 H527 0.961 . S
C512 C513 1.370 . S
C512 C514 1.363 . S
C512 H528 0.931 . S
C513 C512 1.370 . S
C513 C517 1.408 . S
C514 C512 1.363 . S
C514 C515 1.370 . S
C514 C518 1.524 . S
C515 C507 1.503 1_545 S
C515 C514 1.370 . S
C515 C516 1.403 . S
C516 C515 1.403 . S
C516 C517 1.404 . S
C516 C519 1.539 1_545 S
C517 C513 1.408 . S
C517 C516 1.404 . S
C517 H529 0.930 . S
C518 C514 1.524 . S
C518 H530 0.956 . S
C518 H531 0.961 . S
C518 H532 0.961 . S
C519 C516 1.539 1_565 S
C519 H533 0.958 . S
C519 H534 0.961 . S
C519 H535 0.960 . S
H520 C504 0.931 . S
H521 C509 0.929 . S
H522 C510 0.960 . S
H523 C510 0.962 . S
H524 C510 0.960 . S
H525 C511 0.961 . S
H526 C511 0.961 1_545 S
H527 C511 0.961 . S
H528 C512 0.931 . S
H529 C517 0.930 . S
H530 C518 0.956 . S
H531 C518 0.961 . S
H532 C518 0.961 . S
H533 C519 0.958 . S
H534 C519 0.961 . S
H535 C519 0.960 . S
C536 C537 1.391 . S
C536 C538 1.394 . S
C536 H552 0.931 . S
C537 C536 1.391 . S
C537 C541 1.376 . S
C538 C536 1.394 . S
C538 C539 1.369 . S
C538 C542 1.531 1_545 S
C539 C538 1.369 . S
C539 C540 1.410 . S
C539 C547 1.503 1_545 S
C540 C539 1.410 . S
C540 C541 1.392 . S
C540 C543 1.511 . S
C541 C537 1.376 . S
C541 C540 1.392 . S
C541 H553 0.929 . S
C542 C538 1.531 1_565 S
C542 H554 0.960 . S
C542 H555 0.962 . S
C542 H556 0.960 . S
C543 C540 1.511 . S
C543 H557 0.961 . S
C543 H558 0.961 . S
C543 H559 0.961 . S
C544 C545 1.370 . S
C544 C546 1.363 . S
C544 H560 0.931 . S
C545 C544 1.370 . S
C545 C549 1.408 . S
C546 C544 1.363 . S
C546 C547 1.370 . S
C546 C550 1.524 . S
C547 C539 1.503 1_565 S
C547 C546 1.370 . S
C547 C548 1.403 . S
C548 C547 1.403 . S
C548 C549 1.404 . S
C548 C551 1.539 1_565 S
C549 C545 1.408 . S
C549 C548 1.404 . S
C549 H561 0.930 1_655 S
C550 C546 1.524 . S
C550 H562 0.956 . S
C550 H563 0.961 . S
C550 H564 0.961 . S
C551 C548 1.539 1_545 S
C551 H565 0.958 1_655 S
C551 H566 0.961 1_655 S
C551 H567 0.960 . S
H552 C536 0.931 . S
H553 C541 0.929 . S
H554 C542 0.960 . S
H555 C542 0.962 . S
H556 C542 0.960 . S
H557 C543 0.961 . S
H558 C543 0.961 . S
H559 C543 0.961 . S
H560 C544 0.931 . S
H561 C549 0.930 1_455 S
H562 C550 0.956 . S
H563 C550 0.961 . S
H564 C550 0.961 . S
H565 C551 0.958 1_455 S
H566 C551 0.961 1_455 S
H567 C551 0.960 . S
C568 C569 1.391 . S
C568 C570 1.394 . S
C568 H584 0.931 . S
C569 C568 1.391 . S
C569 C573 1.376 . S
C570 C568 1.394 . S
C570 C571 1.369 . S
C570 C574 1.531 . S
C571 C570 1.369 . S
C571 C572 1.410 . S
C571 C579 1.503 . S
C572 C571 1.410 . S
C572 C573 1.392 . S
C572 C575 1.511 . S
C573 C569 1.376 . S
C573 C572 1.392 . S
C573 H585 0.929 . S
C574 C570 1.531 . S
C574 H586 0.960 . S
C574 H587 0.962 . S
C574 H588 0.960 . S
C575 C572 1.511 . S
C575 H589 0.961 . S
C575 H590 0.961 . S
C575 H591 0.961 . S
C576 C577 1.370 . S
C576 C578 1.363 . S
C576 H592 0.931 . S
C577 C576 1.370 . S
C577 C581 1.408 . S
C578 C576 1.363 . S
C578 C579 1.370 . S
C578 C582 1.524 . S
C579 C571 1.503 . S
C579 C578 1.370 . S
C579 C580 1.403 . S
C580 C579 1.403 . S
C580 C581 1.404 . S
C580 C583 1.539 . S
C581 C577 1.408 . S
C581 C580 1.404 . S
C581 H593 0.930 . S
C582 C578 1.524 . S
C582 H594 0.956 . S
C582 H595 0.961 . S
C582 H596 0.961 . S
C583 C580 1.539 . S
C583 H597 0.958 . S
C583 H598 0.961 . S
C583 H599 0.960 . S
H584 C568 0.931 . S
H585 C573 0.929 . S
H586 C574 0.960 . S
H587 C574 0.962 . S
H588 C574 0.960 . S
H589 C575 0.961 . S
H590 C575 0.961 . S
H591 C575 0.961 . S
H592 C576 0.931 . S
H593 C581 0.930 . S
H594 C582 0.956 . S
H595 C582 0.961 . S
H596 C582 0.961 . S
H597 C583 0.958 . S
H598 C583 0.961 . S
H599 C583 0.960 . S
C600 C601 1.391 . S
C600 C602 1.394 . S
C600 H616 0.931 . S
C601 C600 1.391 . S
C601 C605 1.376 . S
C602 C600 1.394 . S
C602 C603 1.369 . S
C602 C606 1.531 . S
C603 C602 1.369 . S
C603 C604 1.410 . S
C603 C611 1.503 . S
C604 C603 1.410 . S
C604 C605 1.392 . S
C604 C607 1.511 . S
C605 C601 1.376 . S
C605 C604 1.392 . S
C605 H617 0.929 . S
C606 C602 1.531 . S
C606 H618 0.960 . S
C606 H619 0.962 . S
C606 H620 0.960 . S
C607 C604 1.511 . S
C607 H621 0.961 . S
C607 H622 0.961 . S
C607 H623 0.961 . S
C608 C609 1.370 . S
C608 C610 1.363 . S
C608 H624 0.931 . S
C609 C608 1.370 . S
C609 C613 1.408 . S
C610 C608 1.363 . S
C610 C611 1.370 . S
C610 C614 1.524 . S
C611 C603 1.503 . S
C611 C610 1.370 . S
C611 C612 1.403 . S
C612 C611 1.403 . S
C612 C613 1.404 . S
C612 C615 1.539 . S
C613 C609 1.408 . S
C613 C612 1.404 . S
C613 H625 0.930 . S
C614 C610 1.524 . S
C614 H626 0.956 . S
C614 H627 0.961 . S
C614 H628 0.961 . S
C615 C612 1.539 . S
C615 H629 0.958 . S
C615 H630 0.961 . S
C615 H631 0.960 . S
H616 C600 0.931 . S
H617 C605 0.929 . S
H618 C606 0.960 . S
H619 C606 0.962 . S
H620 C606 0.960 . S
H621 C607 0.961 . S
H622 C607 0.961 . S
H623 C607 0.961 . S
H624 C608 0.931 . S
H625 C613 0.930 . S
H626 C614 0.956 . S
H627 C614 0.961 . S
H628 C614 0.961 . S
H629 C615 0.958 . S
H630 C615 0.961 . S
H631 C615 0.960 . S
C632 C633 1.391 . S
C632 C634 1.394 . S
C632 H648 0.931 . S
C633 C632 1.391 . S
C633 C637 1.376 . S
C634 C632 1.394 . S
C634 C635 1.369 . S
C634 C638 1.531 . S
C635 C634 1.369 . S
C635 C636 1.410 . S
C635 C643 1.503 1_545 S
C636 C635 1.410 . S
C636 C637 1.392 . S
C636 C639 1.511 1_545 S
C637 C633 1.376 . S
C637 C636 1.392 . S
C637 H649 0.929 . S
C638 C634 1.531 . S
C638 H650 0.960 . S
C638 H651 0.962 . S
C638 H652 0.960 . S
C639 C636 1.511 1_565 S
C639 H653 0.961 . S
C639 H654 0.961 . S
C639 H655 0.961 . S
C640 C641 1.370 . S
C640 C642 1.363 . S
C640 H656 0.931 . S
C641 C640 1.370 . S
C641 C645 1.408 . S
C642 C640 1.363 . S
C642 C643 1.370 . S
C642 C646 1.524 1_565 S
C643 C635 1.503 1_565 S
C643 C642 1.370 . S
C643 C644 1.403 . S
C644 C643 1.403 . S
C644 C645 1.404 . S
C644 C647 1.539 . S
C645 C641 1.408 . S
C645 C644 1.404 . S
C645 H657 0.930 . S
C646 C642 1.524 1_545 S
C646 H658 0.956 . S
C646 H659 0.961 . S
C646 H660 0.961 . S
C647 C644 1.539 . S
C647 H661 0.958 . S
C647 H662 0.961 . S
C647 H663 0.960 . S
H648 C632 0.931 . S
H649 C637 0.929 . S
H650 C638 0.960 . S
H651 C638 0.962 . S
H652 C638 0.960 . S
H653 C639 0.961 . S
H654 C639 0.961 . S
H655 C639 0.961 . S
H656 C640 0.931 . S
H657 C645 0.930 . S
H658 C646 0.956 . S
H659 C646 0.961 . S
H660 C646 0.961 . S
H661 C647 0.958 . S
H662 C647 0.961 . S
H663 C647 0.960 . S
C664 C665 1.391 . S
C664 C666 1.394 . S
C664 H680 0.931 . S
C665 C664 1.391 . S
C665 C669 1.376 . S
C666 C664 1.394 . S
C666 C667 1.369 1_556 S
C666 C670 1.531 . S
C667 C666 1.369 1_554 S
C667 C668 1.410 1_554 S
C667 C675 1.503 . S
C668 C667 1.410 1_556 S
C668 C669 1.392 . S
C668 C671 1.511 1_556 S
C669 C665 1.376 . S
C669 C668 1.392 . S
C669 H681 0.929 . S
C670 C666 1.531 . S
C670 H682 0.960 1_556 S
C670 H683 0.962 . S
C670 H684 0.960 . S
C671 C668 1.511 1_554 S
C671 H685 0.961 . S
C671 H686 0.961 . S
C671 H687 0.961 . S
C672 C673 1.370 . S
C672 C674 1.363 . S
C672 H688 0.931 . S
C673 C672 1.370 . S
C673 C677 1.408 . S
C674 C672 1.363 . S
C674 C675 1.370 . S
C674 C678 1.524 . S
C675 C667 1.503 . S
C675 C674 1.370 . S
C675 C676 1.403 . S
C676 C675 1.403 . S
C676 C677 1.404 . S
C676 C679 1.539 . S
C677 C673 1.408 . S
C677 C676 1.404 . S
C677 H689 0.930 . S
C678 C674 1.524 . S
C678 H690 0.956 . S
C678 H691 0.961 . S
C678 H692 0.961 . S
C679 C676 1.539 . S
C679 H693 0.958 . S
C679 H694 0.961 . S
C679 H695 0.960 . S
H680 C664 0.931 . S
H681 C669 0.929 . S
H682 C670 0.960 1_554 S
H683 C670 0.962 . S
H684 C670 0.960 . S
H685 C671 0.961 . S
H686 C671 0.961 . S
H687 C671 0.961 . S
H688 C672 0.931 . S
H689 C677 0.930 . S
H690 C678 0.956 . S
H691 C678 0.961 . S
H692 C678 0.961 . S
H693 C679 0.958 . S
H694 C679 0.961 . S
H695 C679 0.960 . S
C696 C697 1.391 . S
C696 C698 1.394 . S
C696 H712 0.931 . S
C697 C696 1.391 . S
C697 C701 1.376 . S
C698 C696 1.394 . S
C698 C699 1.369 . S
C698 C702 1.531 . S
C699 C698 1.369 . S
C699 C700 1.410 . S
C699 C707 1.503 . S
C700 C699 1.410 . S
C700 C701 1.392 . S
C700 C703 1.511 . S
C701 C697 1.376 . S
C701 C700 1.392 . S
C701 H713 0.929 . S
C702 C698 1.531 . S
C702 H714 0.960 . S
C702 H715 0.962 . S
C702 H716 0.960 . S
C703 C700 1.511 . S
C703 H717 0.961 . S
C703 H718 0.961 . S
C703 H719 0.961 . S
C704 C705 1.370 . S
C704 C706 1.363 . S
C704 H720 0.931 . S
C705 C704 1.370 . S
C705 C709 1.408 . S
C706 C704 1.363 . S
C706 C707 1.370 . S
C706 C710 1.524 . S
C707 C699 1.503 . S
C707 C706 1.370 . S
C707 C708 1.403 . S
C708 C707 1.403 . S
C708 C709 1.404 . S
C708 C711 1.539 . S
C709 C705 1.408 . S
C709 C708 1.404 . S
C709 H721 0.930 . S
C710 C706 1.524 . S
C710 H722 0.956 . S
C710 H723 0.961 . S
C710 H724 0.961 . S
C711 C708 1.539 . S
C711 H725 0.958 . S
C711 H726 0.961 . S
C711 H727 0.960 . S
H712 C696 0.931 . S
H713 C701 0.929 . S
H714 C702 0.960 . S
H715 C702 0.962 . S
H716 C702 0.960 . S
H717 C703 0.961 . S
H718 C703 0.961 . S
H719 C703 0.961 . S
H720 C704 0.931 . S
H721 C709 0.930 . S
H722 C710 0.956 . S
H723 C710 0.961 . S
H724 C710 0.961 . S
H725 C711 0.958 . S
H726 C711 0.961 . S
H727 C711 0.960 . S
C728 C729 1.391 . S
C728 C730 1.394 . S
C728 H744 0.931 . S
C729 C728 1.391 . S
C729 C733 1.376 . S
C730 C728 1.394 . S
C730 C731 1.369 1_554 S
C730 C734 1.533 . S
C731 C730 1.369 1_556 S
C731 C732 1.410 1_556 S
C731 C739 1.503 . S
C732 C731 1.410 1_554 S
C732 C733 1.392 . S
C732 C735 1.511 1_554 S
C733 C729 1.376 . S
C733 C732 1.392 . S
C733 H745 0.929 . S
C734 C730 1.533 . S
C734 H746 0.954 1_554 S
C734 H747 0.962 . S
C734 H748 0.963 . S
C735 C732 1.511 1_556 S
C735 H749 0.961 1_556 S
C735 H750 0.961 . S
C735 H751 0.961 . S
C736 C737 1.370 . S
C736 C738 1.363 . S
C736 H752 0.931 . S
C737 C736 1.370 . S
C737 C741 1.408 . S
C738 C736 1.363 . S
C738 C739 1.370 . S
C738 C742 1.524 . S
C739 C731 1.503 . S
C739 C738 1.370 . S
C739 C740 1.403 . S
C740 C739 1.403 . S
C740 C741 1.404 . S
C740 C743 1.539 . S
C741 C737 1.408 . S
C741 C740 1.404 . S
C741 H753 0.930 . S
C742 C738 1.524 . S
C742 H754 0.979 . S
C742 H755 0.961 . S
C742 H756 0.961 . S
C743 C740 1.539 . S
C743 H757 0.958 . S
C743 H758 0.961 . S
C743 H759 0.960 . S
H744 C728 0.931 . S
H745 C733 0.929 . S
H746 C734 0.954 1_556 S
H747 C734 0.962 . S
H748 C734 0.963 . S
H749 C735 0.961 1_554 S
H750 C735 0.961 . S
H751 C735 0.961 . S
H752 C736 0.931 . S
H753 C741 0.930 . S
H754 C742 0.979 . S
H755 C742 0.961 . S
H756 C742 0.961 . S
H757 C743 0.958 . S
H758 C743 0.961 . S
H759 C743 0.960 . S
C760 C761 1.391 . S
C760 C762 1.394 . S
C760 H776 0.931 . S
C761 C760 1.391 . S
C761 C765 1.376 . S
C762 C760 1.394 . S
C762 C763 1.369 . S
C762 C766 1.531 . S
C763 C762 1.369 . S
C763 C764 1.410 . S
C763 C771 1.503 . S
C764 C763 1.410 . S
C764 C765 1.392 . S
C764 C767 1.511 . S
C765 C761 1.376 . S
C765 C764 1.392 . S
C765 H777 0.929 . S
C766 C762 1.531 . S
C766 H778 0.960 . S
C766 H779 0.962 . S
C766 H780 0.960 . S
C767 C764 1.511 . S
C767 H781 0.961 . S
C767 H782 0.961 . S
C767 H783 0.961 . S
C768 C769 1.370 . S
C768 C770 1.363 . S
C768 H784 0.931 . S
C769 C768 1.370 . S
C769 C773 1.408 . S
C770 C768 1.363 . S
C770 C771 1.370 . S
C770 C774 1.524 . S
C771 C763 1.503 . S
C771 C770 1.370 . S
C771 C772 1.403 . S
C772 C771 1.403 . S
C772 C773 1.404 . S
C772 C775 1.539 . S
C773 C769 1.408 . S
C773 C772 1.404 . S
C773 H785 0.930 . S
C774 C770 1.524 . S
C774 H786 0.956 . S
C774 H787 0.961 . S
C774 H788 0.961 . S
C775 C772 1.539 . S
C775 H789 0.958 . S
C775 H790 0.961 . S
C775 H791 0.960 . S
H776 C760 0.931 . S
H777 C765 0.929 . S
H778 C766 0.960 . S
H779 C766 0.962 . S
H780 C766 0.960 . S
H781 C767 0.961 . S
H782 C767 0.961 . S
H783 C767 0.961 . S
H784 C768 0.931 . S
H785 C773 0.930 . S
H786 C774 0.956 . S
H787 C774 0.961 . S
H788 C774 0.961 . S
H789 C775 0.958 . S
H790 C775 0.961 . S
H791 C775 0.960 . S
C792 C793 1.391 . S
C792 C794 1.394 . S
C792 H808 0.931 . S
C793 C792 1.391 . S
C793 C797 1.376 . S
C794 C792 1.394 . S
C794 C795 1.344 1_554 S
C794 C798 1.531 . S
C795 C794 1.344 1_556 S
C795 C796 1.392 1_556 S
C795 C803 1.549 . S
C796 C795 1.392 1_554 S
C796 C797 1.392 . S
C796 C799 1.511 1_554 S
C797 C793 1.376 . S
C797 C796 1.392 . S
C797 H809 0.929 . S
C798 C794 1.531 . S
C798 H810 0.960 1_554 S
C798 H811 0.962 1_554 S
C798 H812 0.960 . S
C799 C796 1.511 1_556 S
C799 H813 0.960 1_556 S
C799 H814 0.961 . S
C799 H815 0.961 . S
C800 C801 1.370 . S
C800 C802 1.363 . S
C800 H816 0.931 . S
C801 C800 1.370 . S
C801 C805 1.408 . S
C802 C800 1.363 . S
C802 C803 1.370 . S
C802 C806 1.524 . S
C803 C795 1.549 . S
C803 C802 1.370 . S
C803 C804 1.403 . S
C804 C803 1.403 . S
C804 C805 1.404 . S
C804 C807 1.539 . S
C805 C801 1.408 . S
C805 C804 1.404 . S
C805 H817 0.930 . S
C806 C802 1.524 . S
C806 H818 0.956 . S
C806 H819 0.961 . S
C806 H820 0.961 . S
C807 C804 1.539 . S
C807 H821 0.958 . S
C807 H822 0.961 . S
C807 H823 0.960 . S
H808 C792 0.931 . S
H809 C797 0.929 . S
H810 C798 0.960 1_556 S
H811 C798 0.962 1_556 S
H812 C798 0.960 . S
H813 C799 0.960 1_554 S
H814 C799 0.961 . S
H815 C799 0.961 . S
H816 C800 0.931 . S
H817 C805 0.930 . S
H818 C806 0.956 . S
H819 C806 0.961 . S
H820 C806 0.961 . S
H821 C807 0.958 . S
H822 C807 0.961 . S
H823 C807 0.960 . S
C824 C825 1.391 . S
C824 C826 1.394 . S
C824 H840 0.931 . S
C825 C824 1.391 . S
C825 C829 1.376 . S
C826 C824 1.394 . S
C826 C827 1.369 . S
C826 C830 1.531 . S
C827 C826 1.369 . S
C827 C828 1.410 . S
C827 C835 1.503 . S
C828 C827 1.410 . S
C828 C829 1.392 . S
C828 C831 1.511 . S
C829 C825 1.376 . S
C829 C828 1.392 . S
C829 H841 0.929 . S
C830 C826 1.531 . S
C830 H842 0.960 . S
C830 H843 0.962 . S
C830 H844 0.960 . S
C831 C828 1.511 . S
C831 H845 0.961 . S
C831 H846 0.961 . S
C831 H847 0.961 . S
C832 C833 1.370 . S
C832 C834 1.363 . S
C832 H848 0.931 . S
C833 C832 1.370 . S
C833 C837 1.408 . S
C834 C832 1.363 . S
C834 C835 1.370 . S
C834 C838 1.524 . S
C835 C827 1.503 . S
C835 C834 1.370 . S
C835 C836 1.403 . S
C836 C835 1.403 . S
C836 C837 1.404 . S
C836 C839 1.539 . S
C837 C833 1.408 . S
C837 C836 1.404 . S
C837 H849 0.930 . S
C838 C834 1.524 . S
C838 H850 0.956 . S
C838 H851 0.961 . S
C838 H852 0.961 . S
C839 C836 1.539 . S
C839 H853 0.958 . S
C839 H854 0.961 . S
C839 H855 0.960 . S
H840 C824 0.931 . S
H841 C829 0.929 . S
H842 C830 0.960 . S
H843 C830 0.962 . S
H844 C830 0.960 . S
H845 C831 0.961 . S
H846 C831 0.961 . S
H847 C831 0.961 . S
H848 C832 0.931 . S
H849 C837 0.930 . S
H850 C838 0.956 . S
H851 C838 0.961 . S
H852 C838 0.961 . S
H853 C839 0.958 . S
H854 C839 0.961 . S
H855 C839 0.960 . S
C856 C857 1.391 . S
C856 C858 1.394 . S
C856 H872 0.931 . S
C857 C856 1.391 . S
C857 C861 1.376 . S
C858 C856 1.394 . S
C858 C859 1.368 1_556 S
C858 C862 1.531 1_556 S
C859 C858 1.368 1_554 S
C859 C860 1.407 1_554 S
C859 C867 1.507 . S
C860 C859 1.407 1_556 S
C860 C861 1.392 . S
C860 C863 1.511 . S
C861 C857 1.376 . S
C861 C860 1.392 . S
C861 H873 0.929 . S
C862 C858 1.531 1_554 S
C862 H874 0.960 . S
C862 H875 0.962 . S
C862 H876 0.960 . S
C863 C860 1.511 . S
C863 H877 0.961 . S
C863 H878 0.961 1_556 S
C863 H879 0.961 . S
C864 C865 1.370 . S
C864 C866 1.363 . S
C864 H880 0.931 . S
C865 C864 1.370 . S
C865 C869 1.408 . S
C866 C864 1.363 . S
C866 C867 1.370 . S
C866 C870 1.524 . S
C867 C859 1.507 . S
C867 C866 1.370 . S
C867 C868 1.403 . S
C868 C867 1.403 . S
C868 C869 1.404 . S
C868 C871 1.539 . S
C869 C865 1.408 . S
C869 C868 1.404 . S
C869 H881 0.930 . S
C870 C866 1.524 . S
C870 H882 0.956 . S
C870 H883 0.961 . S
C870 H884 0.961 . S
C871 C868 1.539 . S
C871 H885 0.958 . S
C871 H886 0.961 . S
C871 H887 0.960 . S
H872 C856 0.931 . S
H873 C861 0.929 . S
H874 C862 0.960 . S
H875 C862 0.962 . S
H876 C862 0.960 . S
H877 C863 0.961 . S
H878 C863 0.961 1_554 S
H879 C863 0.961 . S
H880 C864 0.931 . S
H881 C869 0.930 . S
H882 C870 0.956 . S
H883 C870 0.961 . S
H884 C870 0.961 . S
H885 C871 0.958 . S
H886 C871 0.961 . S
H887 C871 0.960 . S
C888 C889 1.391 . S
C888 C890 1.394 . S
C888 H904 0.931 . S
C889 C888 1.391 . S
C889 C893 1.376 . S
C890 C888 1.394 . S
C890 C891 1.369 . S
C890 C894 1.531 . S
C891 C890 1.369 . S
C891 C892 1.410 . S
C891 C899 1.503 . S
C892 C891 1.410 . S
C892 C893 1.392 . S
C892 C895 1.511 . S
C893 C889 1.376 . S
C893 C892 1.392 . S
C893 H905 0.929 . S
C894 C890 1.531 . S
C894 H906 0.960 . S
C894 H907 0.962 . S
C894 H908 0.960 . S
C895 C892 1.511 . S
C895 H909 0.961 . S
C895 H910 0.961 . S
C895 H911 0.961 . S
C896 C897 1.370 . S
C896 C898 1.363 . S
C896 H912 0.931 . S
C897 C896 1.370 . S
C897 C901 1.408 . S
C898 C896 1.363 . S
C898 C899 1.370 . S
C898 C902 1.524 . S
C899 C891 1.503 . S
C899 C898 1.370 . S
C899 C900 1.403 . S
C900 C899 1.403 . S
C900 C901 1.404 . S
C900 C903 1.539 . S
C901 C897 1.408 . S
C901 C900 1.404 . S
C901 H913 0.930 . S
C902 C898 1.524 . S
C902 H914 0.956 . S
C902 H915 0.961 . S
C902 H916 0.961 . S
C903 C900 1.539 . S
C903 H917 0.958 . S
C903 H918 0.961 . S
C903 H919 0.960 . S
H904 C888 0.931 . S
H905 C893 0.929 . S
H906 C894 0.960 . S
H907 C894 0.962 . S
H908 C894 0.960 . S
H909 C895 0.961 . S
H910 C895 0.961 . S
H911 C895 0.961 . S
H912 C896 0.931 . S
H913 C901 0.930 . S
H914 C902 0.956 . S
H915 C902 0.961 . S
H916 C902 0.961 . S
H917 C903 0.958 . S
H918 C903 0.961 . S
H919 C903 0.960 . S
C920 C921 1.391 . S
C920 C922 1.394 . S
C920 H936 0.931 . S
C921 C920 1.391 . S
C921 C925 1.376 . S
C922 C920 1.394 . S
C922 C923 1.369 . S
C922 C926 1.531 . S
C923 C922 1.369 . S
C923 C924 1.410 . S
C923 C931 1.503 . S
C924 C923 1.410 . S
C924 C925 1.392 . S
C924 C927 1.511 . S
C925 C921 1.376 . S
C925 C924 1.392 . S
C925 H937 0.929 . S
C926 C922 1.531 . S
C926 H938 0.960 . S
C926 H939 0.962 . S
C926 H940 0.960 . S
C927 C924 1.511 . S
C927 H941 0.961 . S
C927 H942 0.961 . S
C927 H943 0.961 . S
C928 C929 1.370 . S
C928 C930 1.363 . S
C928 H944 0.931 . S
C929 C928 1.370 . S
C929 C933 1.408 . S
C930 C928 1.363 . S
C930 C931 1.370 . S
C930 C934 1.524 . S
C931 C923 1.503 . S
C931 C930 1.370 . S
C931 C932 1.403 . S
C932 C931 1.403 . S
C932 C933 1.404 . S
C932 C935 1.539 . S
C933 C929 1.408 . S
C933 C932 1.404 . S
C933 H945 0.930 . S
C934 C930 1.524 . S
C934 H946 0.956 . S
C934 H947 0.961 . S
C934 H948 0.961 . S
C935 C932 1.539 . S
C935 H949 0.958 . S
C935 H950 0.961 . S
C935 H951 0.960 . S
H936 C920 0.931 . S
H937 C925 0.929 . S
H938 C926 0.960 . S
H939 C926 0.962 . S
H940 C926 0.960 . S
H941 C927 0.961 . S
H942 C927 0.961 . S
H943 C927 0.961 . S
H944 C928 0.931 . S
H945 C933 0.930 . S
H946 C934 0.956 . S
H947 C934 0.961 . S
H948 C934 0.961 . S
H949 C935 0.958 . S
H950 C935 0.961 . S
H951 C935 0.960 . S
C952 C953 1.391 . S
C952 C954 1.394 . S
C952 H968 0.931 . S
C953 C952 1.391 . S
C953 C957 1.376 . S
C954 C952 1.394 . S
C954 C955 1.369 . S
C954 C958 1.531 . S
C955 C954 1.369 . S
C955 C956 1.410 . S
C955 C963 1.503 . S
C956 C955 1.410 . S
C956 C957 1.392 . S
C956 C959 1.511 . S
C957 C953 1.376 . S
C957 C956 1.392 . S
C957 H969 0.929 . S
C958 C954 1.531 . S
C958 H970 0.960 . S
C958 H971 0.962 . S
C958 H972 0.960 . S
C959 C956 1.511 . S
C959 H973 0.961 . S
C959 H974 0.961 . S
C959 H975 0.961 . S
C960 C961 1.370 . S
C960 C962 1.363 . S
C960 H976 0.931 . S
C961 C960 1.370 . S
C961 C965 1.408 . S
C962 C960 1.363 . S
C962 C963 1.370 . S
C962 C966 1.524 . S
C963 C955 1.503 . S
C963 C962 1.370 . S
C963 C964 1.403 . S
C964 C963 1.403 . S
C964 C965 1.404 . S
C964 C967 1.539 . S
C965 C961 1.408 . S
C965 C964 1.404 . S
C965 H977 0.930 . S
C966 C962 1.524 . S
C966 H978 0.956 . S
C966 H979 0.961 . S
C966 H980 0.961 . S
C967 C964 1.539 . S
C967 H981 0.958 . S
C967 H982 0.961 . S
C967 H983 0.960 . S
H968 C952 0.931 . S
H969 C957 0.929 . S
H970 C958 0.960 . S
H971 C958 0.962 . S
H972 C958 0.960 . S
H973 C959 0.961 . S
H974 C959 0.961 . S
H975 C959 0.961 . S
H976 C960 0.931 . S
H977 C965 0.930 . S
H978 C966 0.956 . S
H979 C966 0.961 . S
H980 C966 0.961 . S
H981 C967 0.958 . S
H982 C967 0.961 . S
H983 C967 0.960 . S
C984 C985 1.391 . S
C984 C986 1.394 . S
C984 H1000 0.931 . S
C985 C984 1.391 . S
C985 C989 1.376 . S
C986 C984 1.394 . S
C986 C987 1.369 . S
C986 C990 1.531 . S
C987 C986 1.369 . S
C987 C988 1.410 . S
C987 C995 1.503 . S
C988 C987 1.410 . S
C988 C989 1.392 . S
C988 C991 1.511 . S
C989 C985 1.376 . S
C989 C988 1.392 . S
C989 H1001 0.929 . S
C990 C986 1.531 . S
C990 H1002 0.960 . S
C990 H1003 0.962 . S
C990 H1004 0.960 . S
C991 C988 1.511 . S
C991 H1005 0.961 . S
C991 H1006 0.961 . S
C991 H1007 0.961 . S
C992 C993 1.370 . S
C992 C994 1.363 . S
C992 H1008 0.931 . S
C993 C992 1.370 . S
C993 C997 1.408 . S
C994 C992 1.363 . S
C994 C995 1.370 . S
C994 C998 1.524 . S
C995 C987 1.503 . S
C995 C994 1.370 . S
C995 C996 1.403 . S
C996 C995 1.403 . S
C996 C997 1.404 . S
C996 C999 1.539 . S
C997 C993 1.408 . S
C997 C996 1.404 . S
C997 H1009 0.930 . S
C998 C994 1.524 . S
C998 H1010 0.956 . S
C998 H1011 0.961 . S
C998 H1012 0.961 . S
C999 C996 1.539 . S
C999 H1013 0.958 . S
C999 H1014 0.961 . S
C999 H1015 0.960 . S
H1000 C984 0.931 . S
H1001 C989 0.929 . S
H1002 C990 0.960 . S
H1003 C990 0.962 . S
H1004 C990 0.960 . S
H1005 C991 0.961 . S
H1006 C991 0.961 . S
H1007 C991 0.961 . S
H1008 C992 0.931 . S
H1009 C997 0.930 . S
H1010 C998 0.956 . S
H1011 C998 0.961 . S
H1012 C998 0.961 . S
H1013 C999 0.958 . S
H1014 C999 0.961 . S
H1015 C999 0.960 . S
C1016 C1017 1.391 . S
C1016 C1018 1.394 . S
C1016 H1032 0.931 . S
C1017 C1016 1.391 . S
C1017 C1021 1.376 . S
C1018 C1016 1.394 . S
C1018 C1019 1.369 . S
C1018 C1022 1.531 . S
C1019 C1018 1.369 . S
C1019 C1020 1.410 . S
C1019 C1027 1.503 . S
C1020 C1019 1.410 . S
C1020 C1021 1.392 . S
C1020 C1023 1.511 . S
C1021 C1017 1.376 . S
C1021 C1020 1.392 . S
C1021 H1033 0.929 . S
C1022 C1018 1.531 . S
C1022 H1034 0.960 . S
C1022 H1035 0.962 . S
C1022 H1036 0.960 . S
C1023 C1020 1.511 . S
C1023 H1037 0.961 . S
C1023 H1038 0.961 . S
C1023 H1039 0.961 . S
C1024 C1025 1.370 . S
C1024 C1026 1.363 . S
C1024 H1040 0.931 . S
C1025 C1024 1.370 . S
C1025 C1029 1.408 . S
C1026 C1024 1.363 . S
C1026 C1027 1.370 . S
C1026 C1030 1.524 . S
C1027 C1019 1.503 . S
C1027 C1026 1.370 . S
C1027 C1028 1.403 . S
C1028 C1027 1.403 . S
C1028 C1029 1.404 . S
C1028 C1031 1.539 . S
C1029 C1025 1.408 . S
C1029 C1028 1.404 . S
C1029 H1041 0.930 . S
C1030 C1026 1.524 . S
C1030 H1042 0.956 . S
C1030 H1043 0.961 . S
C1030 H1044 0.961 . S
C1031 C1028 1.539 . S
C1031 H1045 0.958 . S
C1031 H1046 0.961 . S
C1031 H1047 0.960 . S
H1032 C1016 0.931 . S
H1033 C1021 0.929 . S
H1034 C1022 0.960 . S
H1035 C1022 0.962 . S
H1036 C1022 0.960 . S
H1037 C1023 0.961 . S
H1038 C1023 0.961 . S
H1039 C1023 0.961 . S
H1040 C1024 0.931 . S
H1041 C1029 0.930 . S
H1042 C1030 0.956 . S
H1043 C1030 0.961 . S
H1044 C1030 0.961 . S
H1045 C1031 0.958 . S
H1046 C1031 0.961 . S
H1047 C1031 0.960 . S
C1048 C1049 1.391 . S
C1048 C1050 1.394 . S
C1048 H1064 0.931 . S
C1049 C1048 1.391 . S
C1049 C1053 1.376 . S
C1050 C1048 1.394 . S
C1050 C1051 1.369 . S
C1050 C1054 1.531 . S
C1051 C1050 1.369 . S
C1051 C1052 1.410 . S
C1051 C1059 1.503 . S
C1052 C1051 1.410 . S
C1052 C1053 1.392 . S
C1052 C1055 1.511 . S
C1053 C1049 1.376 . S
C1053 C1052 1.392 . S
C1053 H1065 0.929 . S
C1054 C1050 1.531 . S
C1054 H1066 0.960 . S
C1054 H1067 0.962 . S
C1054 H1068 0.960 . S
C1055 C1052 1.511 . S
C1055 H1069 0.961 . S
C1055 H1070 0.961 . S
C1055 H1071 0.961 . S
C1056 C1057 1.370 . S
C1056 C1058 1.363 . S
C1056 H1072 0.931 . S
C1057 C1056 1.370 . S
C1057 C1061 1.408 . S
C1058 C1056 1.363 . S
C1058 C1059 1.370 . S
C1058 C1062 1.524 . S
C1059 C1051 1.503 . S
C1059 C1058 1.370 . S
C1059 C1060 1.403 . S
C1060 C1059 1.403 . S
C1060 C1061 1.404 . S
C1060 C1063 1.539 . S
C1061 C1057 1.408 . S
C1061 C1060 1.404 . S
C1061 H1073 0.930 . S
C1062 C1058 1.524 . S
C1062 H1074 0.956 . S
C1062 H1075 0.961 . S
C1062 H1076 0.961 . S
C1063 C1060 1.539 . S
C1063 H1077 0.958 . S
C1063 H1078 0.961 . S
C1063 H1079 0.960 . S
H1064 C1048 0.931 . S
H1065 C1053 0.929 . S
H1066 C1054 0.960 . S
H1067 C1054 0.962 . S
H1068 C1054 0.960 . S
H1069 C1055 0.961 . S
H1070 C1055 0.961 . S
H1071 C1055 0.961 . S
H1072 C1056 0.931 . S
H1073 C1061 0.930 . S
H1074 C1062 0.956 . S
H1075 C1062 0.961 . S
H1076 C1062 0.961 . S
H1077 C1063 0.958 . S
H1078 C1063 0.961 . S
H1079 C1063 0.960 . S
C1080 C1081 1.391 . S
C1080 C1082 1.394 . S
C1080 H1096 0.931 . S
C1081 C1080 1.391 . S
C1081 C1085 1.376 . S
C1082 C1080 1.394 . S
C1082 C1083 1.369 . S
C1082 C1086 1.531 . S
C1083 C1082 1.369 . S
C1083 C1084 1.410 . S
C1083 C1091 1.503 . S
C1084 C1083 1.410 . S
C1084 C1085 1.392 . S
C1084 C1087 1.511 . S
C1085 C1081 1.376 . S
C1085 C1084 1.392 . S
C1085 H1097 0.929 . S
C1086 C1082 1.531 . S
C1086 H1098 0.960 . S
C1086 H1099 0.962 . S
C1086 H1100 0.960 . S
C1087 C1084 1.511 . S
C1087 H1101 0.961 . S
C1087 H1102 0.961 . S
C1087 H1103 0.961 . S
C1088 C1089 1.370 . S
C1088 C1090 1.363 . S
C1088 H1104 0.931 . S
C1089 C1088 1.370 . S
C1089 C1093 1.408 . S
C1090 C1088 1.363 . S
C1090 C1091 1.370 . S
C1090 C1094 1.524 . S
C1091 C1083 1.503 . S
C1091 C1090 1.370 . S
C1091 C1092 1.403 . S
C1092 C1091 1.403 . S
C1092 C1093 1.404 . S
C1092 C1095 1.539 . S
C1093 C1089 1.408 . S
C1093 C1092 1.404 . S
C1093 H1105 0.930 . S
C1094 C1090 1.524 . S
C1094 H1106 0.956 . S
C1094 H1107 0.961 . S
C1094 H1108 0.961 . S
C1095 C1092 1.539 . S
C1095 H1109 0.958 . S
C1095 H1110 0.961 . S
C1095 H1111 0.960 . S
H1096 C1080 0.931 . S
H1097 C1085 0.929 . S
H1098 C1086 0.960 . S
H1099 C1086 0.962 . S
H1100 C1086 0.960 . S
H1101 C1087 0.961 . S
H1102 C1087 0.961 . S
H1103 C1087 0.961 . S
H1104 C1088 0.931 . S
H1105 C1093 0.930 . S
H1106 C1094 0.956 . S
H1107 C1094 0.961 . S
H1108 C1094 0.961 . S
H1109 C1095 0.958 . S
H1110 C1095 0.961 . S
H1111 C1095 0.960 . S
C1112 C1113 1.391 . S
C1112 C1114 1.394 . S
C1112 H1128 0.931 . S
C1113 C1112 1.391 . S
C1113 C1117 1.376 . S
C1114 C1112 1.394 . S
C1114 C1115 1.369 . S
C1114 C1118 1.531 . S
C1115 C1114 1.369 . S
C1115 C1116 1.410 . S
C1115 C1123 1.503 . S
C1116 C1115 1.410 . S
C1116 C1117 1.392 . S
C1116 C1119 1.511 . S
C1117 C1113 1.376 . S
C1117 C1116 1.392 . S
C1117 H1129 0.929 . S
C1118 C1114 1.531 . S
C1118 H1130 0.960 . S
C1118 H1131 0.962 . S
C1118 H1132 0.960 . S
C1119 C1116 1.511 . S
C1119 H1133 0.961 . S
C1119 H1134 0.961 . S
C1119 H1135 0.961 . S
C1120 C1121 1.370 . S
C1120 C1122 1.363 . S
C1120 H1136 0.931 . S
C1121 C1120 1.370 . S
C1121 C1125 1.408 . S
C1122 C1120 1.363 . S
C1122 C1123 1.370 . S
C1122 C1126 1.524 . S
C1123 C1115 1.503 . S
C1123 C1122 1.370 . S
C1123 C1124 1.403 . S
C1124 C1123 1.403 . S
C1124 C1125 1.404 . S
C1124 C1127 1.539 . S
C1125 C1121 1.408 . S
C1125 C1124 1.404 . S
C1125 H1137 0.930 . S
C1126 C1122 1.524 . S
C1126 H1138 0.956 . S
C1126 H1139 0.961 . S
C1126 H1140 0.961 . S
C1127 C1124 1.539 . S
C1127 H1141 0.958 . S
C1127 H1142 0.961 . S
C1127 H1143 0.960 . S
H1128 C1112 0.931 . S
H1129 C1117 0.929 . S
H1130 C1118 0.960 . S
H1131 C1118 0.962 . S
H1132 C1118 0.960 . S
H1133 C1119 0.961 . S
H1134 C1119 0.961 . S
H1135 C1119 0.961 . S
H1136 C1120 0.931 . S
H1137 C1125 0.930 . S
H1138 C1126 0.956 . S
H1139 C1126 0.961 . S
H1140 C1126 0.961 . S
H1141 C1127 0.958 . S
H1142 C1127 0.961 . S
H1143 C1127 0.960 . S
C1144 C1145 1.391 . S
C1144 C1146 1.394 . S
C1144 H1160 0.931 . S
C1145 C1144 1.391 . S
C1145 C1149 1.376 . S
C1146 C1144 1.394 . S
C1146 C1147 1.369 . S
C1146 C1150 1.531 . S
C1147 C1146 1.369 . S
C1147 C1148 1.410 . S
C1147 C1155 1.503 . S
C1148 C1147 1.410 . S
C1148 C1149 1.392 . S
C1148 C1151 1.511 . S
C1149 C1145 1.376 . S
C1149 C1148 1.392 . S
C1149 H1161 0.929 . S
C1150 C1146 1.531 . S
C1150 H1162 0.960 . S
C1150 H1163 0.962 . S
C1150 H1164 0.960 . S
C1151 C1148 1.511 . S
C1151 H1165 0.961 . S
C1151 H1166 0.961 . S
C1151 H1167 0.961 . S
C1152 C1153 1.370 . S
C1152 C1154 1.363 . S
C1152 H1168 0.931 . S
C1153 C1152 1.370 . S
C1153 C1157 1.408 . S
C1154 C1152 1.363 . S
C1154 C1155 1.370 . S
C1154 C1158 1.524 . S
C1155 C1147 1.503 . S
C1155 C1154 1.370 . S
C1155 C1156 1.403 . S
C1156 C1155 1.403 . S
C1156 C1157 1.404 . S
C1156 C1159 1.539 . S
C1157 C1153 1.408 . S
C1157 C1156 1.404 . S
C1157 H1169 0.930 . S
C1158 C1154 1.524 . S
C1158 H1170 0.956 . S
C1158 H1171 0.961 . S
C1158 H1172 0.961 . S
C1159 C1156 1.539 . S
C1159 H1173 0.958 . S
C1159 H1174 0.961 . S
C1159 H1175 0.960 . S
H1160 C1144 0.931 . S
H1161 C1149 0.929 . S
H1162 C1150 0.960 . S
H1163 C1150 0.962 . S
H1164 C1150 0.960 . S
H1165 C1151 0.961 . S
H1166 C1151 0.961 . S
H1167 C1151 0.961 . S
H1168 C1152 0.931 . S
H1169 C1157 0.930 . S
H1170 C1158 0.956 . S
H1171 C1158 0.961 . S
H1172 C1158 0.961 . S
H1173 C1159 0.958 . S
H1174 C1159 0.961 . S
H1175 C1159 0.960 . S
C409 C58 1.471 . S
C417 C146 1.458 . S
C449 C230 1.459 . S
C441 C68 1.473 . S
C481 C223 1.462 . S
C473 C40 1.450 . S
C505 C50 1.448 . S
C513 C139 1.463 . S
C545 C303 1.449 . S
C537 C23 1.467 . S
C577 C387 1.442 . S
C569 C32 1.466 . S
C601 C5 1.456 . S
C609 C380 1.463 . S
C633 C14 1.462 . S
C641 C296 1.458 . S
C673 C130 1.309 . S
C665 C13 1.501 . S
C705 C214 1.354 . S
C697 C4 1.491 . S
C737 C225 1.387 . S
C729 C31 1.522 . S
C769 C141 1.403 . S
C761 C22 1.512 . S
C801 C309 1.356 . S
C793 C49 1.488 . S
C825 C41 1.497 . S
C833 C393 1.339 . S
C865 C382 1.418 . S
C857 C67 1.518 . S
C889 C59 1.517 . S
C897 C298 1.386 . S
C929 C128 1.531 . S
C921 C7 1.517 . S
C961 C212 1.528 . S
C953 C16 1.533 . S
C985 C25 1.516 . S
C993 C219 1.501 . S
C1025 C135 1.514 . S
C1017 C34 1.528 . S
C1057 C307 1.529 . S
C1049 C43 1.526 . S
C1081 C52 1.520 . S
C1089 C391 1.536 . S
C1113 C61 1.518 . S
C1121 C398 1.501 . S
C1145 C70 1.522 . S
C1153 C314 1.515 . S
