# Generated by pormake.
# Topology ssa, (4,4)-cn, num edge types: 1
# Building blocks:
#     Node 0, Type 0, BuildingBlock: NAWXER_clean_sbu_0, # of connection points: 4
#     Node 1, Type 0, BuildingBlock: NAWXER_clean_sbu_0, # of connection points: 4
#     Node 2, Type 0, BuildingBlock: NAWXER_clean_sbu_0, # of connection points: 4
#     Node 3, Type 0, BuildingBlock: NAWXER_clean_sbu_0, # of connection points: 4
#     Node 4, Type 0, BuildingBlock: NAWXER_clean_sbu_0, # of connection points: 4
#     Node 5, Type 0, BuildingBlock: NAWXER_clean_sbu_0, # of connection points: 4
#     Node 6, Type 1, BuildingBlock: GIZVER_clean_linker_0, # of connection points: 4
#     Node 7, Type 1, BuildingBlock: GIZVER_clean_linker_0, # of connection points: 4
#     Node 8, Type 1, BuildingBlock: GIZVER_clean_linker_0, # of connection points: 4
#     Node 9, Type 1, BuildingBlock: GIZVER_clean_linker_0, # of connection points: 4
#     Node 10, Type 1, BuildingBlock: GIZVER_clean_linker_0, # of connection points: 4
#     Node 11, Type 1, BuildingBlock: GIZVER_clean_linker_0, # of connection points: 4
#     Edge 12, Type (0, 1), BuildingBlock: XUDNAN_clean_linker_2, # of connection points: 2
#     Edge 13, Type (0, 1), BuildingBlock: XUDNAN_clean_linker_2, # of connection points: 2
#     Edge 14, Type (0, 1), BuildingBlock: XUDNAN_clean_linker_2, # of connection points: 2
#     Edge 15, Type (0, 1), BuildingBlock: XUDNAN_clean_linker_2, # of connection points: 2
#     Edge 16, Type (0, 1), BuildingBlock: XUDNAN_clean_linker_2, # of connection points: 2
#     Edge 17, Type (0, 1), BuildingBlock: XUDNAN_clean_linker_2, # of connection points: 2
#     Edge 18, Type (0, 1), BuildingBlock: XUDNAN_clean_linker_2, # of connection points: 2
#     Edge 19, Type (0, 1), BuildingBlock: XUDNAN_clean_linker_2, # of connection points: 2
#     Edge 20, Type (0, 1), BuildingBlock: XUDNAN_clean_linker_2, # of connection points: 2
#     Edge 21, Type (0, 1), BuildingBlock: XUDNAN_clean_linker_2, # of connection points: 2
#     Edge 22, Type (0, 1), BuildingBlock: XUDNAN_clean_linker_2, # of connection points: 2
#     Edge 23, Type (0, 1), BuildingBlock: XUDNAN_clean_linker_2, # of connection points: 2
#     Edge 24, Type (0, 1), BuildingBlock: XUDNAN_clean_linker_2, # of connection points: 2
#     Edge 25, Type (0, 1), BuildingBlock: XUDNAN_clean_linker_2, # of connection points: 2
#     Edge 26, Type (0, 1), BuildingBlock: XUDNAN_clean_linker_2, # of connection points: 2
#     Edge 27, Type (0, 1), BuildingBlock: XUDNAN_clean_linker_2, # of connection points: 2
#     Edge 28, Type (0, 1), BuildingBlock: XUDNAN_clean_linker_2, # of connection points: 2
#     Edge 29, Type (0, 1), BuildingBlock: XUDNAN_clean_linker_2, # of connection points: 2
#     Edge 30, Type (0, 1), BuildingBlock: XUDNAN_clean_linker_2, # of connection points: 2
#     Edge 31, Type (0, 1), BuildingBlock: XUDNAN_clean_linker_2, # of connection points: 2
#     Edge 32, Type (0, 1), BuildingBlock: XUDNAN_clean_linker_2, # of connection points: 2
#     Edge 33, Type (0, 1), BuildingBlock: XUDNAN_clean_linker_2, # of connection points: 2
#     Edge 34, Type (0, 1), BuildingBlock: XUDNAN_clean_linker_2, # of connection points: 2
#     Edge 35, Type (0, 1), BuildingBlock: XUDNAN_clean_linker_2, # of connection points: 2
# Relax obj value: 0.007
# Max RMSD: 0.038
# Mean RMSD: 0.029
data_MOF--net-ssa--node1-NAWXER_clean_sbu_0--node2-GIZVER_clean_linker_0--edge1-XUDNAN_clean_linker_2
_symmetry_space_group_name_H-M    P1
_symmetry_Int_Tables_number       1
_symmetry_cell_setting            triclinic
loop_
_symmetry_equiv_pos_as_xyz
'x, y, z'
_cell_length_a     52.885658
_cell_length_b     52.894871
_cell_length_c     28.224559
_cell_angle_alpha  89.942309
_cell_angle_beta   90.036296
_cell_angle_gamma 119.89743
loop_
_atom_site_label
_atom_site_type_symbol
_atom_site_fract_x
_atom_site_fract_y
_atom_site_fract_z
_atom_type_partial_charge
C0 C 0.05455 0.57017 0.00079 0.0
C1 C 0.97501 0.47482 0.9492 0.0
O2 O 0.0331 0.55226 0.02608 0.0
Zn3 Zn 0.01449 0.52224 0.97769 0.0
O4 O 0.05649 0.56399 0.9576 0.0
Zn5 Zn 0.03295 0.52989 0.90766 0.0
O6 O 0.02078 0.54936 0.86107 0.0
O7 O 1.0 0.54369 0.9309 0.0
O8 O 0.99389 0.48875 0.91676 0.0
O9 O 0.97835 0.4861 0.99014 0.0
O10 O 0.04628 0.50888 0.9671 0.0
O11 O 0.06262 0.51941 0.89356 0.0
C12 C 1.00361 0.55299 0.88821 0.0
C13 C 0.06325 0.50932 0.93426 0.0
C14 C 0.47441 0.0462 0.58201 0.0
C15 C 0.49424 0.97059 0.52584 0.0
O16 O 0.47482 0.02593 0.6055 0.0
Zn17 Zn 0.48388 0.00799 0.55372 0.0
O18 O 0.47909 0.04812 0.53725 0.0
Zn19 Zn 0.4896 0.02519 0.48468 0.0
O20 O 0.45718 0.01168 0.44187 0.0
O21 O 0.44512 0.98835 0.51034 0.0
O22 O 0.49573 0.98767 0.49224 0.0
O23 O 0.48809 0.9746 0.56763 0.0
O24 O 0.5275 0.04189 0.53641 0.0
O25 O 0.52715 0.05526 0.46224 0.0
C26 C 0.43813 0.99206 0.46843 0.0
C27 C 0.54083 0.05792 0.50055 0.0
C28 C 0.54625 0.48596 0.04012 0.0
C29 C 0.5716 0.58757 0.06533 0.0
O30 O 0.54246 0.49788 0.00332 0.0
Zn31 Zn 0.54698 0.53895 0.98291 0.0
O32 O 0.55539 0.50041 0.07837 0.0
Zn33 Zn 0.56032 0.53701 0.05308 0.0
O34 O 0.51569 0.52679 0.04466 0.0
O35 O 0.50714 0.52865 0.96853 0.0
O36 O 0.57564 0.57113 0.09349 0.0
O37 O 0.56161 0.5783 0.02362 0.0
O38 O 0.57398 0.54938 0.93147 0.0
O39 O 0.59372 0.54848 5e-05 0.0
C40 C 0.49823 0.52445 0.01116 0.0
C41 C 0.59565 0.55204 0.95498 0.0
C42 C 0.01915 0.52734 0.43848 0.0
C43 C 0.95038 0.42293 0.45332 0.0
O44 O 0.02306 0.51622 0.47626 0.0
Zn45 Zn 1.00511 0.47392 0.50874 0.0
O46 O 0.9991 0.51125 0.40946 0.0
Zn47 Zn 0.98491 0.47496 0.44283 0.0
O48 O 0.96613 0.48152 0.50456 0.0
O49 O 0.98867 0.47824 0.56826 0.0
O50 O 0.95181 0.43915 0.4189 0.0
O51 O 0.96929 0.43356 0.48662 0.0
O52 O 0.03823 0.46693 0.50677 0.0
O53 O 0.0213 0.46876 0.43613 0.0
C54 C 0.96859 0.48162 0.54965 0.0
C55 C 0.04001 0.46647 0.46183 0.0
C56 C 0.55738 0.9825 0.0886 0.0
C57 C 0.51309 0.04147 0.05206 0.0
O58 O 0.5567 1.00207 0.11364 0.0
Zn59 Zn 0.53556 0.01232 0.06985 0.0
O60 O 0.54579 0.97668 0.04727 0.0
Zn61 Zn 0.52379 0.99257 0.00252 0.0
O62 O 0.54983 0.00996 0.94938 0.0
O63 O 0.56742 0.03464 0.0156 0.0
O64 O 0.51044 0.02429 0.01789 0.0
O65 O 0.52651 0.04171 0.08952 0.0
O66 O 0.49283 0.97332 0.06524 0.0
O67 O 0.48743 0.95731 0.99142 0.0
C68 C 0.57011 0.03152 0.97122 0.0
C69 C 0.47756 0.95462 0.03324 0.0
C70 C 0.52859 0.48462 0.50057 0.0
C71 C 0.42622 0.45518 0.47171 0.0
O72 O 0.51642 0.4898 0.53557 0.0
Zn73 Zn 0.47421 0.48258 0.55515 0.0
O74 O 0.51348 0.4715 0.4643 0.0
Zn75 Zn 0.47668 0.46735 0.48678 0.0
O76 O 0.48588 0.51209 0.49161 0.0
O77 O 0.4828 0.52196 0.56687 0.0
O78 O 0.44308 0.45071 0.44531 0.0
O79 O 0.43502 0.46633 0.51299 0.0
O80 O 0.46414 0.45665 0.60845 0.0
O81 O 0.46443 0.4353 0.54144 0.0
C82 C 0.48729 0.52996 0.52373 0.0
C83 C 0.46075 0.4343 0.58636 0.0
H84 H 0.23478 0.50022 0.12017 0.0
H85 H 0.22647 0.49566 0.27172 0.0
H86 H 0.15095 0.47039 0.18546 0.0
H87 H 0.27584 0.53218 0.17187 0.0
H88 H 0.2727 0.529 0.23446 0.0
H89 H 0.30065 0.5119 0.13246 0.0
H90 H 0.33314 0.46577 0.21311 0.0
H91 H 0.26808 0.48241 0.27346 0.0
C92 C 0.22096 0.49428 0.15122 0.0
C93 C 0.19089 0.48437 0.14639 0.0
C94 C 0.23392 0.49847 0.19631 0.0
C95 C 0.21635 0.49126 0.23702 0.0
C96 C 0.18634 0.48105 0.2332 0.0
C97 C 0.1739 0.47736 0.1879 0.0
C98 C 0.26673 0.51598 0.2012 0.0
C99 C 0.28132 0.4976 0.20188 0.0
C100 C 0.29942 0.49949 0.16383 0.0
C101 C 0.31824 0.48814 0.16822 0.0
C102 C 0.31768 0.47343 0.20983 0.0
C103 C 0.29994 0.47118 0.24849 0.0
C104 C 0.28132 0.48299 0.24376 0.0
H105 H 0.72017 0.23926 0.65382 0.0
H106 H 0.72347 0.2218 0.80185 0.0
H107 H 0.69042 0.15184 0.70026 0.0
H108 H 0.72635 0.27494 0.71647 0.0
H109 H 0.73109 0.26844 0.77694 0.0
H110 H 0.76783 0.27966 0.65732 0.0
H111 H 0.85131 0.34216 0.71247 0.0
H112 H 0.77881 0.29495 0.80744 0.0
C113 C 0.71801 0.22432 0.68188 0.0
C114 C 0.70557 0.19455 0.67171 0.0
C115 C 0.72608 0.23453 0.72861 0.0
C116 C 0.71967 0.21424 0.76549 0.0
C117 C 0.70584 0.18415 0.7558 0.0
C118 C 0.70082 0.17491 0.70842 0.0
C119 C 0.73716 0.26629 0.74002 0.0
C120 C 0.76979 0.28502 0.73327 0.0
C121 C 0.78172 0.29044 0.68744 0.0
C122 C 0.81139 0.31023 0.68008 0.0
C123 C 0.82902 0.32531 0.71905 0.0
C124 C 0.8178 0.32021 0.7655 0.0
C125 C 0.78808 0.29946 0.77217 0.0
H126 H 0.54124 0.75233 0.23705 0.0
H127 H 0.50726 0.7271 0.37852 0.0
H128 H 0.54976 0.68592 0.31158 0.0
H129 H 0.49926 0.75718 0.26671 0.0
H130 H 0.48832 0.74992 0.32695 0.0
H131 H 0.54671 0.80204 0.24498 0.0
H132 H 0.56111 0.87542 0.32813 0.0
H133 H 0.50841 0.78864 0.38378 0.0
C134 C 0.53881 0.73989 0.26889 0.0
C135 C 0.54866 0.71952 0.2696 0.0
C136 C 0.52403 0.74294 0.30825 0.0
C137 C 0.51982 0.72598 0.34907 0.0
C138 C 0.52906 0.70538 0.34989 0.0
C139 C 0.54392 0.70284 0.31079 0.0
C140 C 0.50782 0.75962 0.30346 0.0
C141 C 0.52646 0.79177 0.3141 0.0
C142 C 0.54447 0.81076 0.27845 0.0
C143 C 0.55778 0.841 0.28443 0.0
C144 C 0.55294 0.85217 0.32628 0.0
C145 C 0.53512 0.83383 0.36273 0.0
C146 C 0.52255 0.80341 0.35668 0.0
H147 H 0.75256 0.54988 0.59237 0.0
H148 H 0.77163 0.56243 0.74209 0.0
H149 H 0.68445 0.53205 0.69159 0.0
H150 H 0.80161 0.56961 0.61681 0.0
H151 H 0.80849 0.59316 0.66598 0.0
H152 H 0.79495 0.51829 0.633 0.0
H153 H 0.85449 0.52053 0.73851 0.0
H154 H 0.83831 0.59189 0.72725 0.0
C155 C 0.74529 0.54816 0.62873 0.0
C156 C 0.71605 0.53969 0.63791 0.0
C157 C 0.76555 0.5563 0.66629 0.0
C158 C 0.75601 0.55535 0.71331 0.0
C159 C 0.72655 0.54607 0.72291 0.0
C160 C 0.70698 0.53822 0.68489 0.0
C161 C 0.79777 0.56981 0.65553 0.0
C162 C 0.8121 0.55506 0.6811 0.0
C163 C 0.80823 0.52824 0.66416 0.0
C164 C 0.8236 0.5157 0.68486 0.0
C165 C 0.84166 0.52948 0.72364 0.0
C166 C 0.8484 0.55753 0.73708 0.0
C167 C 0.83286 0.56999 0.71716 0.0
H168 H 0.28299 0.78068 0.19213 0.0
H169 H 0.26411 0.8001 0.33155 0.0
H170 H 0.32371 0.86935 0.24163 0.0
H171 H 0.26289 0.74293 0.25243 0.0
H172 H 0.25844 0.75178 0.31169 0.0
H173 H 0.22673 0.75049 0.19022 0.0
H174 H 0.13911 0.69361 0.23849 0.0
H175 H 0.21016 0.7219 0.33547 0.0
C176 C 0.28553 0.79657 0.21863 0.0
C177 C 0.3046 0.82648 0.21022 0.0
C178 C 0.27069 0.78684 0.26225 0.0
C179 C 0.27455 0.80739 0.29732 0.0
C180 C 0.29301 0.83724 0.28898 0.0
C181 C 0.3078 0.84643 0.24576 0.0
C182 C 0.25434 0.75464 0.27392 0.0
C183 C 0.22185 0.74034 0.26495 0.0
C184 C 0.21137 0.73925 0.21856 0.0
C185 C 0.18146 0.72192 0.20814 0.0
C186 C 0.16217 0.70715 0.24551 0.0
C187 C 0.17221 0.70592 0.29084 0.0
C188 C 0.20206 0.72326 0.30084 0.0
H189 H 0.46612 0.2628 0.93201 0.0
H190 H 0.43759 0.24984 0.78657 0.0
H191 H 0.4853 0.33631 0.84392 0.0
H192 H 0.4218 0.21709 0.905 0.0
H193 H 0.41215 0.21124 0.84401 0.0
H194 H 0.44729 0.19533 0.93778 0.0
H195 H 0.47446 0.14831 0.84778 0.0
H196 H 0.44774 0.20572 0.78606 0.0
C197 C 0.46573 0.27174 0.89764 0.0
C198 C 0.47944 0.30215 0.89146 0.0
C199 C 0.45034 0.25276 0.85987 0.0
C200 C 0.44952 0.26446 0.81543 0.0
C201 C 0.46266 0.29475 0.80895 0.0
C202 C 0.47715 0.31312 0.84738 0.0
C203 C 0.4311 0.22045 0.86866 0.0
C204 C 0.44685 0.2034 0.8626 0.0
C205 C 0.45232 0.19088 0.9026 0.0
C206 C 0.46197 0.17076 0.89702 0.0
C207 C 0.46761 0.16439 0.85146 0.0
C208 C 0.46295 0.17689 0.81091 0.0
C209 C 0.45248 0.19654 0.81683 0.0
H210 H 0.058 0.4673 0.99588 0.0
H211 H 0.11982 0.53591 0.90393 0.0
H212 H 0.16008 0.53157 0.94038 0.0
H213 H 0.09757 0.48794 0.09575 0.0
H214 H 0.08779 0.45222 0.11777 0.0
H215 H 0.06348 0.45662 0.07861 0.0
H216 H 0.06384 0.41897 0.02039 0.0
H217 H 0.0879 0.41406 0.05981 0.0
H218 H 0.09812 0.42398 -0.0012 0.0
H219 H 0.19375 0.52768 -0.0003 0.0
H220 H 0.21736 0.52123 0.06988 0.0
H221 H 0.13361 0.44984 0.11625 0.0
C222 C 0.07989 0.48055 0.98213 0.0
C223 C 0.08584 0.50177 0.94686 0.0
C224 C 0.11476 0.51916 0.93029 0.0
C225 C 0.13777 0.51692 0.95099 0.0
C226 C 0.13133 0.49657 0.98718 0.0
C227 C 0.10293 0.47806 0.00159 0.0
C228 C 0.10194 0.45963 0.04347 0.0
C229 C 0.08681 0.46441 0.0864 0.0
C230 C 0.08707 0.42724 0.02978 0.0
C231 C 0.13423 0.47193 0.05233 0.0
C232 C 0.15086 0.49313 0.01946 0.0
C233 C 0.181 0.51036 0.0246 0.0
C234 C 0.19432 0.50632 0.06478 0.0
C235 C 0.17765 0.48491 0.09945 0.0
C236 C 0.14731 0.46674 0.09142 0.0
H237 H 0.55796 0.11004 0.5406 0.0
H238 H 0.5907 0.05755 0.47731 0.0
H239 H 0.64106 0.09443 0.50091 0.0
H240 H 0.62415 0.18412 0.51485 0.0
H241 H 0.62044 0.19807 0.57108 0.0
H242 H 0.58848 0.17094 0.54033 0.0
H243 H 0.57328 0.13756 0.61442 0.0
H244 H 0.60489 0.16457 0.64534 0.0
H245 H 0.59868 0.12795 0.63974 0.0
H246 H 0.68506 0.13116 0.54563 0.0
H247 H 0.71853 0.16415 0.60732 0.0
H248 H 0.65784 0.19426 0.63822 0.0
C249 C 0.57602 0.10707 0.53012 0.0
C250 C 0.57095 0.08157 0.50642 0.0
C251 C 0.59457 0.07744 0.49461 0.0
C252 C 0.62312 0.09827 0.50781 0.0
C253 C 0.62748 0.12309 0.53227 0.0
C254 C 0.60454 0.1277 0.54281 0.0
C255 C 0.61417 0.15398 0.5745 0.0
C256 C 0.61167 0.17822 0.54862 0.0
C257 C 0.59675 0.14549 0.62125 0.0
C258 C 0.64575 0.16257 0.58242 0.0
C259 C 0.65322 0.14483 0.55715 0.0
C260 C 0.67986 0.14588 0.5642 0.0
C261 C 0.69882 0.16474 0.59906 0.0
C262 C 0.69108 0.18237 0.626 0.0
C263 C 0.66476 0.182 0.61633 0.0
H264 H 0.59691 0.61725 0.14789 0.0
H265 H 0.5515 0.6203 0.02181 0.0
H266 H 0.54841 0.66164 0.05529 0.0
H267 H 0.55613 0.62904 0.22835 0.0
H268 H 0.5854 0.65186 0.26805 0.0
H269 H 0.58856 0.62596 0.23107 0.0
H270 H 0.63687 0.66736 0.19603 0.0
H271 H 0.63389 0.69347 0.23316 0.0
H272 H 0.63759 0.69883 0.16992 0.0
H273 H 0.54101 0.69512 0.10899 0.0
H274 H 0.53236 0.71924 0.17641 0.0
H275 H 0.58839 0.70016 0.26399 0.0
C276 C 0.58716 0.62723 0.12668 0.0
C277 C 0.57454 0.61552 0.08214 0.0
C278 C 0.56158 0.62897 0.05583 0.0
C279 C 0.55972 0.65254 0.07455 0.0
C280 C 0.57153 0.66298 0.1192 0.0
C281 C 0.58556 0.65115 0.14454 0.0
C282 C 0.59429 0.6648 0.19328 0.0
C283 C 0.58025 0.64153 0.23246 0.0
C284 C 0.62765 0.68215 0.19838 0.0
C285 C 0.58157 0.68491 0.19231 0.0
C286 C 0.56866 0.6837 0.14922 0.0
C287 C 0.55188 0.69705 0.1424 0.0
C288 C 0.54726 0.711 0.18106 0.0
C289 C 0.55955 0.71173 0.22609 0.0
C290 C 0.57828 0.69984 0.23049 0.0
H291 H 0.94124 0.512 0.52962 0.0
H292 H 0.94311 0.45172 0.63176 0.0
H293 H 0.89804 0.44612 0.66898 0.0
H294 H 0.91757 0.54803 0.61142 0.0
H295 H 0.89628 0.55353 0.56699 0.0
H296 H 0.92786 0.55134 0.54988 0.0
H297 H 0.89521 0.50964 0.49158 0.0
H298 H 0.86331 0.51087 0.51055 0.0
H299 H 0.86397 0.47717 0.51401 0.0
H300 H 0.85255 0.44752 0.69436 0.0
H301 H 0.81847 0.46455 0.71757 0.0
H302 H 0.8468 0.52342 0.59769 0.0
C303 C 0.93232 0.49784 0.56017 0.0
C304 C 0.9456 0.48237 0.57806 0.0
C305 C 0.93345 0.46411 0.61808 0.0
C306 C 0.90761 0.46042 0.63881 0.0
C307 C 0.89441 0.47522 0.61901 0.0
C308 C 0.90686 0.49413 0.58132 0.0
C309 C 0.88988 0.50921 0.56861 0.0
C310 C 0.90902 0.54248 0.57462 0.0
C311 C 0.87736 0.50123 0.51819 0.0
C312 C 0.86592 0.49611 0.60533 0.0
C313 C 0.86851 0.47609 0.63353 0.0
C314 C 0.85019 0.46294 0.67224 0.0
C315 C 0.83047 0.47231 0.68468 0.0
C316 C 0.82978 0.49504 0.65906 0.0
C317 C 0.84617 0.5054 0.617 0.0
H318 H 0.43116 0.95635 0.07069 0.0
H319 H 0.46046 0.89706 0.02522 0.0
H320 H 0.41462 0.85519 0.05546 0.0
H321 H 0.3993 0.92322 0.17535 0.0
H322 H 0.36843 0.92883 0.17151 0.0
H323 H 0.40175 0.95327 0.14141 0.0
H324 H 0.37369 0.94285 0.06193 0.0
H325 H 0.34016 0.91832 0.09191 0.0
H326 H 0.3519 0.90576 0.04171 0.0
H327 H 0.37008 0.82168 0.10405 0.0
H328 H 0.32986 0.79926 0.16167 0.0
H329 H 0.32535 0.87905 0.16388 0.0
C330 C 0.42747 0.93443 0.06618 0.0
C331 C 0.44902 0.92965 0.04576 0.0
C332 C 0.44388 0.90089 0.04049 0.0
C333 C 0.41797 0.87708 0.0575 0.0
C334 C 0.39716 0.88247 0.07822 0.0
C335 C 0.40137 0.91041 0.08154 0.0
C336 C 0.37632 0.91057 0.10713 0.0
C337 C 0.38711 0.93011 0.15147 0.0
C338 C 0.35952 0.91992 0.07366 0.0
C339 C 0.3582 0.87864 0.12017 0.0
C340 C 0.37045 0.86271 0.10314 0.0
C341 C 0.35973 0.8337 0.11631 0.0
C342 C 0.33659 0.82102 0.14895 0.0
C343 C 0.3242 0.83726 0.16784 0.0
C344 C 0.33437 0.86596 0.15093 0.0
H345 H 0.4977 0.43088 0.64854 0.0
H346 H 0.41345 0.37953 0.58152 0.0
H347 H 0.406 0.3357 0.62588 0.0
H348 H 0.51714 0.37341 0.64523 0.0
H349 H 0.53614 0.38421 0.70109 0.0
H350 H 0.53462 0.41102 0.66362 0.0
H351 H 0.51246 0.42599 0.73265 0.0
H352 H 0.51413 0.39942 0.77032 0.0
H353 H 0.47992 0.3985 0.76165 0.0
H354 H 0.40631 0.29923 0.68453 0.0
H355 H 0.41477 0.27306 0.74947 0.0
H356 H 0.5021 0.34686 0.76817 0.0
C357 C 0.4777 0.41035 0.64341 0.0
C358 C 0.45585 0.40834 0.6126 0.0
C359 C 0.43019 0.38124 0.60559 0.0
C360 C 0.4259 0.35635 0.63039 0.0
C361 C 0.44794 0.35898 0.66075 0.0
C362 C 0.47351 0.38524 0.66671 0.0
C363 C 0.49388 0.38242 0.70109 0.0
C364 C 0.52211 0.3881 0.67626 0.0
C365 C 0.50046 0.40278 0.74395 0.0
C366 C 0.47538 0.35073 0.71496 0.0
C367 C 0.44893 0.33751 0.69151 0.0
C368 C 0.42721 0.30914 0.70232 0.0
C369 C 0.43234 0.29431 0.73908 0.0
C370 C 0.45912 0.30779 0.76429 0.0
C371 C 0.48123 0.33591 0.75025 0.0
H372 H 0.54157 0.97038 0.48783 0.0
H373 H 0.45351 0.91365 0.53773 0.0
H374 H 0.45621 0.87049 0.5106 0.0
H375 H 0.53829 0.93328 0.3856 0.0
H376 H 0.57455 0.93836 0.3895 0.0
H377 H 0.56652 0.96423 0.41685 0.0
H378 H 0.58485 0.95622 0.49759 0.0
H379 H 0.59302 0.9303 0.47038 0.0
H380 H 0.5694 0.91984 0.52135 0.0
H381 H 0.46596 0.83489 0.46548 0.0
H382 H 0.48275 0.80973 0.4118 0.0
H383 H 0.56768 0.88841 0.40363 0.0
C384 C 0.52319 0.94877 0.49394 0.0
C385 C 0.49738 0.94509 0.51491 0.0
C386 C 0.47355 0.91669 0.52213 0.0
C387 C 0.47491 0.89213 0.50684 0.0
C388 C 0.5006 0.8964 0.48571 0.0
C389 C 0.52456 0.924 0.4803 0.0
C390 C 0.54921 0.92275 0.4552 0.0
C391 C 0.55761 0.94071 0.40907 0.0
C392 C 0.57569 0.93287 0.48811 0.0
C393 C 0.53489 0.89036 0.44518 0.0
C394 C 0.50686 0.8755 0.46295 0.0
C395 C 0.48821 0.84611 0.45266 0.0
C396 C 0.49813 0.83185 0.42226 0.0
C397 C 0.52669 0.84682 0.4028 0.0
C398 C 0.54557 0.87613 0.41678 0.0
H399 H 0.59552 0.51546 0.88852 0.0
H400 H 0.65297 0.59394 0.96648 0.0
H401 H 0.69554 0.59785 0.92252 0.0
H402 H 0.64622 0.4866 0.88641 0.0
H403 H 0.63462 0.47118 0.82813 0.0
H404 H 0.60934 0.47418 0.86728 0.0
H405 H 0.5994 0.50348 0.80361 0.0
H406 H 0.62425 0.50025 0.76405 0.0
H407 H 0.62963 0.53578 0.77852 0.0
H408 H 0.7303 0.59612 0.86141 0.0
H409 H 0.75369 0.5885 0.79126 0.0
H410 H 0.67424 0.50705 0.76267 0.0
C411 C 0.61713 0.53341 0.8963 0.0
C412 C 0.62121 0.55474 0.92995 0.0
C413 C 0.64965 0.57761 0.94029 0.0
C414 C 0.67384 0.57985 0.91574 0.0
C415 C 0.66911 0.55844 0.88236 0.0
C416 C 0.64143 0.5354 0.87332 0.0
C417 C 0.64185 0.51551 0.83535 0.0
C418 C 0.63246 0.48507 0.85552 0.0
C419 C 0.62267 0.51368 0.79289 0.0
C420 C 0.67389 0.53164 0.82267 0.0
C421 C 0.68938 0.55633 0.8501 0.0
C422 C 0.71857 0.57645 0.84055 0.0
C423 C 0.7318 0.57183 0.80079 0.0
C424 C 0.71583 0.5472 0.77127 0.0
C425 C 0.68706 0.52619 0.78428 0.0
H426 H 0.03858 0.5494 0.35069 0.0
H427 H 0.04909 0.5732 0.49921 0.0
H428 H 0.08935 0.62265 0.47877 0.0
H429 H 0.1137 0.58399 0.32622 0.0
H430 H 0.11043 0.59487 0.26704 0.0
H431 H 0.08048 0.56292 0.29308 0.0
H432 H 0.04626 0.58414 0.27827 0.0
H433 H 0.0761 0.61607 0.25185 0.0
H434 H 0.05632 0.61985 0.30069 0.0
H435 H 0.13002 0.66978 0.44045 0.0
H436 H 0.16669 0.70877 0.38834 0.0
H437 H 0.13149 0.65013 0.26819 0.0
C438 C 0.04881 0.56528 0.37876 0.0
C439 C 0.04041 0.55782 0.42634 0.0
C440 C 0.05505 0.57876 0.46239 0.0
C441 C 0.07793 0.60682 0.45113 0.0
C442 C 0.08618 0.61331 0.40378 0.0
C443 C 0.07205 0.59298 0.3683 0.0
C444 C 0.08628 0.60422 0.32075 0.0
C445 C 0.09844 0.58538 0.30062 0.0
C446 C 0.06496 0.60619 0.28585 0.0
C447 C 0.1105 0.6341 0.33481 0.0
C448 C 0.11011 0.6393 0.38261 0.0
C449 C 0.13046 0.6659 0.40291 0.0
C450 C 0.15132 0.68784 0.37321 0.0
C451 C 0.15166 0.68285 0.32398 0.0
C452 C 0.13136 0.65523 0.30531 0.0
H453 H 0.47196 0.03707 0.9895 0.0
H454 H 0.53004 0.09262 0.09996 0.0
H455 H 0.51652 0.13007 0.08107 0.0
H456 H 0.48911 0.08984 0.90714 0.0
H457 H 0.45292 0.07536 0.88312 0.0
H458 H 0.46324 0.05135 0.91104 0.0
H459 H 0.41942 0.03332 0.96876 0.0
H460 H 0.40891 0.05737 0.94085 0.0
H461 H 0.41516 0.05941 0.00387 0.0
H462 H 0.50343 0.16472 0.03977 0.0
H463 H 0.49119 0.19209 0.98133 0.0
H464 H 0.43932 0.1123 0.90243 0.0
C465 C 0.48127 0.05679 0.01056 0.0
C466 C 0.50203 0.06199 0.04612 0.0
C467 C 0.51388 0.08813 0.07276 0.0
C468 C 0.50631 0.10949 0.06231 0.0
C469 C 0.48638 0.10405 0.0259 0.0
C470 C 0.47368 0.07806 0.00101 0.0
C471 C 0.45498 0.07834 0.9608 0.0
C472 C 0.46572 0.07346 0.91273 0.0
C473 C 0.4227 0.05577 0.96909 0.0
C474 C 0.46031 0.10907 0.96529 0.0
C475 C 0.47818 0.12359 0.00329 0.0
C476 C 0.4888 0.15335 0.01068 0.0
C477 C 0.48171 0.16873 0.9775 0.0
C478 C 0.46439 0.15425 0.93752 0.0
C479 C 0.45259 0.12387 0.9328 0.0
H480 H 0.39613 0.42505 0.39227 0.0
H481 H 0.39418 0.47828 0.50747 0.0
H482 H 0.35321 0.47999 0.46915 0.0
H483 H 0.38556 0.46111 0.30263 0.0
H484 H 0.36227 0.42984 0.2668 0.0
H485 H 0.38756 0.42815 0.30733 0.0
H486 H 0.34519 0.38266 0.3476 0.0
H487 H 0.31967 0.38421 0.30695 0.0
H488 H 0.31415 0.38439 0.36994 0.0
H489 H 0.32102 0.48549 0.41012 0.0
H490 H 0.29898 0.492 0.33783 0.0
H491 H 0.31534 0.42916 0.2653 0.0
C492 C 0.38641 0.43621 0.4102 0.0
C493 C 0.39834 0.45143 0.45295 0.0
C494 C 0.38528 0.46618 0.47497 0.0
C495 C 0.36193 0.46727 0.45347 0.0
C496 C 0.35128 0.45286 0.41052 0.0
C497 C 0.36267 0.43703 0.38963 0.0
C498 C 0.34908 0.42571 0.34146 0.0
C499 C 0.37251 0.43688 0.30229 0.0
C500 C 0.33094 0.39225 0.34151 0.0
C501 C 0.3297 0.43917 0.33729 0.0
C502 C 0.33109 0.45459 0.37759 0.0
C503 C 0.31886 0.47265 0.37897 0.0
C504 C 0.30608 0.47604 0.33756 0.0
C505 C 0.30537 0.46125 0.29522 0.0
C506 C 0.31573 0.44116 0.29657 0.0
H507 H 0.9691 0.43636 0.87974 0.0
H508 H 0.92064 0.45147 0.98913 0.0
H509 H 0.87479 0.40976 0.95907 0.0
H510 H 0.92007 0.41997 0.78887 0.0
H511 H 0.92488 0.39161 0.76258 0.0
H512 H 0.95403 0.42014 0.79611 0.0
H513 H 0.95591 0.38176 0.85091 0.0
H514 H 0.9269 0.35301 0.81714 0.0
H515 H 0.92314 0.35496 0.8803 0.0
H516 H 0.83378 0.37181 0.90828 0.0
H517 H 0.80178 0.33838 0.84654 0.0
H518 H 0.87756 0.34417 0.77594 0.0
C519 C 0.94891 0.43043 0.89811 0.0
C520 C 0.94839 0.4471 0.93681 0.0
C521 C 0.92156 0.4388 0.95975 0.0
C522 C 0.89541 0.41521 0.94279 0.0
C523 C 0.89659 0.39975 0.9036 0.0
C524 C 0.92278 0.40665 0.88225 0.0
C525 C 0.91812 0.3875 0.83951 0.0
C526 C 0.92997 0.40591 0.79412 0.0
C527 C 0.93183 0.36815 0.84746 0.0
C528 C 0.88514 0.36957 0.83887 0.0
C529 C 0.87307 0.37689 0.87604 0.0
C530 C 0.84301 0.36529 0.87983 0.0
C531 C 0.8249 0.34601 0.84451 0.0
C532 C 0.83678 0.33815 0.80586 0.0
C533 C 0.8674 0.3497 0.80424 0.0
H534 H 0.99198 0.56199 0.79631 0.0
H535 H 0.97527 0.57325 0.94304 0.0
H536 H 0.94002 0.58792 0.91763 0.0
H537 H 0.98033 0.62248 0.7458 0.0
H538 H 0.96264 0.60097 0.69398 0.0
H539 H 0.99126 0.59759 0.7228 0.0
H540 H 0.95655 0.5418 0.73139 0.0
H541 H 0.92815 0.54508 0.70237 0.0
H542 H 0.9218 0.52866 0.76027 0.0
H543 H 0.89871 0.58949 0.87868 0.0
H544 H 0.85596 0.57825 0.82828 0.0
H545 H 0.9016 0.57127 0.70634 0.0
C546 C 0.98173 0.56864 0.8229 0.0
C547 C 0.98644 0.56647 0.87159 0.0
C548 C 0.97201 0.57464 0.90545 0.0
C549 C 0.95204 0.58325 0.89139 0.0
C550 C 0.94695 0.5841 0.84322 0.0
C551 C 0.96167 0.5774 0.80937 0.0
C552 C 0.94952 0.57638 0.76039 0.0
C553 C 0.9723 0.60082 0.72889 0.0
C554 C 0.93834 0.5462 0.73731 0.0
C555 C 0.92469 0.58182 0.77243 0.0
C556 C 0.92372 0.58661 0.82033 0.0
C557 C 0.89978 0.58695 0.84083 0.0
C558 C 0.87565 0.58078 0.81205 0.0
C559 C 0.87594 0.57464 0.76351 0.0
C560 C 0.90144 0.57697 0.74318 0.0
H561 H 0.40692 0.93326 0.47925 0.0
H562 H 0.40455 0.00594 0.41309 0.0
H563 H 0.3579 0.9717 0.37418 0.0
H564 H 0.38778 0.89184 0.37987 0.0
H565 H 0.36666 0.85697 0.40858 0.0
H566 H 0.39509 0.88699 0.44061 0.0
H567 H 0.35791 0.88093 0.50569 0.0
H568 H 0.3292 0.85094 0.47338 0.0
H569 H 0.32534 0.88179 0.48964 0.0
H570 H 0.31669 0.93043 0.33332 0.0
H571 H 0.28837 0.88606 0.2853 0.0
H572 H 0.3185 0.83955 0.37386 0.0
C573 C 0.39586 0.94189 0.45804 0.0
C574 C 0.40877 0.97214 0.44985 0.0
C575 C 0.39465 0.9828 0.42016 0.0
C576 C 0.36807 0.96352 0.3983 0.0
C577 C 0.35613 0.93365 0.40613 0.0
C578 C 0.36972 0.92284 0.43498 0.0
C579 C 0.35545 0.88998 0.43066 0.0
C580 C 0.37755 0.88094 0.41391 0.0
C581 C 0.34112 0.87503 0.47765 0.0
C582 C 0.33266 0.88412 0.39313 0.0
C583 C 0.33275 0.9095 0.38075 0.0
C584 C 0.31592 0.91031 0.34341 0.0
C585 C 0.29979 0.88501 0.31645 0.0
C586 C 0.30091 0.85938 0.32658 0.0
C587 C 0.31649 0.85858 0.36661 0.0
H588 H 0.56493 0.4644 0.97059 0.0
H589 H 0.51353 0.43967 0.09917 0.0
H590 H 0.49677 0.38755 0.08244 0.0
H591 H 0.5164 0.41107 0.89985 0.0
H592 H 0.54219 0.40515 0.86699 0.0
H593 H 0.55372 0.43994 0.89387 0.0
H594 H 0.59438 0.4363 0.93963 0.0
H595 H 0.58293 0.40142 0.91236 0.0
H596 H 0.58495 0.40478 0.97599 0.0
H597 H 0.47788 0.33834 0.04178 0.0
H598 H 0.46092 0.29791 0.98409 0.0
H599 H 0.52927 0.35503 0.88715 0.0
C600 C 0.55092 0.448 0.996 0.0
C601 C 0.54056 0.45579 0.03621 0.0
C602 C 0.52196 0.43397 0.06852 0.0
C603 C 0.51236 0.40439 0.0592 0.0
C604 C 0.52231 0.39726 0.01823 0.0
C605 C 0.54178 0.41864 0.98778 0.0
C606 C 0.54748 0.40558 0.94426 0.0
C607 C 0.53945 0.41604 0.8986 0.0
C608 C 0.57933 0.41242 0.94301 0.0
C609 C 0.52682 0.37352 0.95337 0.0
C610 C 0.51261 0.36897 0.99632 0.0
C611 C 0.48955 0.34153 0.00882 0.0
C612 C 0.48013 0.31856 0.97591 0.0
C613 C 0.49376 0.32324 0.93106 0.0
C614 C 0.51839 0.35071 0.92115 0.0
H615 H 0.06008 0.48712 0.37424 0.0
H616 H 0.07629 0.44632 0.49487 0.0
H617 H 0.11706 0.44633 0.45072 0.0
H618 H 0.0734 0.44942 0.28368 0.0
H619 H 0.09072 0.48068 0.24508 0.0
H620 H 0.06359 0.47749 0.28683 0.0
H621 H 0.10022 0.52782 0.32264 0.0
H622 H 0.12737 0.53133 0.28059 0.0
H623 H 0.13525 0.53437 0.34315 0.0
H624 H 0.1551 0.44932 0.3892 0.0
H625 H 0.18662 0.45632 0.31956 0.0
H626 H 0.14552 0.49786 0.24417 0.0
C627 C 0.07202 0.47799 0.39155 0.0
C628 C 0.06478 0.46632 0.43775 0.0
C629 C 0.08144 0.45524 0.45936 0.0
C630 C 0.10456 0.45517 0.43453 0.0
C631 C 0.1109 0.4667 0.38863 0.0
C632 C 0.09514 0.47816 0.3678 0.0
C633 C 0.10601 0.48965 0.31864 0.0
C634 C 0.082 0.47332 0.28138 0.0
C635 C 0.11794 0.52276 0.31613 0.0
C636 C 0.1301 0.4824 0.31425 0.0
C637 C 0.13277 0.46917 0.35471 0.0
C638 C 0.15323 0.45985 0.35756 0.0
C639 C 0.1711 0.46399 0.31792 0.0
C640 C 0.16833 0.47728 0.27606 0.0
C641 C 0.14782 0.48697 0.27499 0.0
H642 H 0.57477 0.04432 0.87667 0.0
H643 H 0.62346 0.06999 0.00841 0.0
H644 H 0.66549 0.11005 0.96669 0.0
H645 H 0.63608 0.06222 0.79684 0.0
H646 H 0.62215 0.07607 0.75155 0.0
H647 H 0.59731 0.04762 0.79081 0.0
H648 H 0.5746 0.07932 0.81495 0.0
H649 H 0.59931 0.10777 0.77576 0.0
H650 H 0.59791 0.11559 0.83754 0.0
H651 H 0.70141 0.14921 0.9106 0.0
H652 H 0.72699 0.18458 0.84586 0.0
H653 H 0.65264 0.13426 0.75378 0.0
C654 C 0.5945 0.05797 0.89653 0.0
C655 C 0.59602 0.05389 0.9456 0.0
C656 C 0.62193 0.0727 0.97066 0.0
C657 C 0.64593 0.09544 0.94727 0.0
C658 C 0.64356 0.0992 0.89892 0.0
C659 C 0.61842 0.081 0.87393 0.0
C660 C 0.62042 0.09098 0.8232 0.0
C661 C 0.61891 0.06784 0.78857 0.0
C662 C 0.59666 0.09889 0.81225 0.0
C663 C 0.65046 0.11773 0.82363 0.0
C664 C 0.6637 0.12203 0.86732 0.0
C665 C 0.69129 0.14594 0.87612 0.0
C666 C 0.7056 0.16601 0.83924 0.0
C667 C 0.69216 0.16212 0.79432 0.0
C668 C 0.66418 0.13756 0.78693 0.0
H669 H 0.47921 0.54605 0.43645 0.0
H670 H 0.50708 0.5794 0.57866 0.0
H671 H 0.5169 0.62824 0.55204 0.0
H672 H 0.53156 0.60693 0.37474 0.0
H673 H 0.50715 0.60402 0.32778 0.0
H674 H 0.50088 0.57193 0.35951 0.0
H675 H 0.44854 0.56083 0.38048 0.0
H676 H 0.45474 0.59305 0.34892 0.0
H677 H 0.44349 0.58818 0.41009 0.0
H678 H 0.5274 0.67474 0.50634 0.0
H679 H 0.53751 0.71329 0.44653 0.0
H680 H 0.49993 0.64712 0.3374 0.0
C681 C 0.4873 0.56355 0.46217 0.0
C682 C 0.49263 0.55907 0.50948 0.0
C683 C 0.50288 0.58246 0.54215 0.0
C684 C 0.50844 0.61019 0.52737 0.0
C685 C 0.50309 0.61388 0.48013 0.0
C686 C 0.49251 0.591 0.44826 0.0
C687 C 0.48928 0.60036 0.39922 0.0
C688 C 0.50836 0.59553 0.36323 0.0
C689 C 0.4571 0.58467 0.38379 0.0
C690 C 0.50055 0.63234 0.40787 0.0
C691 C 0.50829 0.63994 0.45468 0.0
C692 C 0.52104 0.66892 0.46976 0.0
C693 C 0.52662 0.69063 0.43577 0.0
C694 C 0.5196 0.68303 0.38759 0.0
C695 C 0.50561 0.65347 0.37407 0.0
H696 H 0.50406 0.0779 0.65899 0.0
H697 H 0.43674 0.06547 0.55885 0.0
H698 H 0.43 0.10292 0.60093 0.0
H699 H 0.47305 0.08837 0.76147 0.0
H700 H 0.50705 0.11637 0.78588 0.0
H701 H 0.50675 0.08948 0.74661 0.0
H702 H 0.544 0.13066 0.69248 0.0
H703 H 0.54406 0.15792 0.73073 0.0
H704 H 0.53562 0.15728 0.66869 0.0
H705 H 0.42661 0.13706 0.66133 0.0
H706 H 0.42824 0.16569 0.73153 0.0
H707 H 0.50364 0.16196 0.78331 0.0
C708 C 0.48796 0.08318 0.64599 0.0
C709 C 0.47052 0.06864 0.60637 0.0
C710 C 0.45008 0.07636 0.58951 0.0
C711 C 0.44623 0.09763 0.61304 0.0
C712 C 0.46373 0.11159 0.6523 0.0
C713 C 0.48456 0.10498 0.66805 0.0
C714 C 0.50051 0.1229 0.71104 0.0
C715 C 0.49658 0.1031 0.75375 0.0
C716 C 0.53297 0.14342 0.70005 0.0
C717 C 0.48461 0.13976 0.71833 0.0
C718 C 0.4634 0.13295 0.68431 0.0
C719 C 0.44366 0.14315 0.68748 0.0
C720 C 0.44492 0.1597 0.72739 0.0
C721 C 0.46597 0.1661 0.76342 0.0
C722 C 0.48698 0.15724 0.75697 0.0
H723 H 0.47848 0.52788 0.09832 0.0
H724 H 0.45107 0.50818 0.95163 0.0
H725 H 0.40176 0.49889 0.9741 0.0
H726 H 0.41293 0.47422 0.1512 0.0
H727 H 0.41532 0.49713 0.2002 0.0
H728 H 0.44804 0.50254 0.1716 0.0
H729 H 0.46354 0.5567 0.15587 0.0
H730 H 0.43078 0.55142 0.18431 0.0
H731 H 0.43908 0.56536 0.12464 0.0
H732 H 0.35425 0.48993 0.01531 0.0
H733 H 0.31431 0.48198 0.07069 0.0
H734 H 0.37561 0.5103 0.18757 0.0
C735 C 0.46217 0.52154 0.07075 0.0
C736 C 0.46854 0.51853 0.02326 0.0
C737 C 0.4466 0.51054 0.9883 0.0
C738 C 0.41859 0.50528 0.00073 0.0
C739 C 0.4131 0.50848 0.0481 0.0
C740 C 0.43446 0.51657 0.08237 0.0
C741 C 0.42349 0.51849 0.13079 0.0
C742 C 0.42503 0.4968 0.16546 0.0
C743 C 0.44022 0.54986 0.15001 0.0
C744 C 0.39238 0.50969 0.11882 0.0
C745 C 0.38657 0.50402 0.07107 0.0
C746 C 0.35869 0.49449 0.0527 0.0
C747 C 0.33619 0.49013 0.08423 0.0
C748 C 0.34185 0.49517 0.13336 0.0
C749 C 0.3705 0.50578 0.15027 0.0
H750 H 0.94598 0.38046 0.51189 0.0
H751 H 0.89498 0.40307 0.41917 0.0
H752 H 0.84996 0.36642 0.45909 0.0
H753 H 0.88755 0.30016 0.53514 0.0
H754 H 0.89923 0.304 0.59602 0.0
H755 H 0.92542 0.32369 0.54998 0.0
H756 H 0.94117 0.37188 0.59519 0.0
H757 H 0.91467 0.35274 0.64051 0.0
H758 H 0.91424 0.38218 0.60902 0.0
H759 H 0.81322 0.33848 0.52247 0.0
H760 H 0.78838 0.32006 0.59936 0.0
H761 H 0.86357 0.31658 0.65205 0.0
C762 C 0.92518 0.37651 0.49822 0.0
C763 C 0.92394 0.39447 0.46234 0.0
C764 C 0.89643 0.38921 0.44603 0.0
C765 C 0.87071 0.36851 0.46881 0.0
C766 C 0.87294 0.35304 0.50721 0.0
C767 C 0.89954 0.35636 0.52108 0.0
C768 C 0.89723 0.34157 0.56811 0.0
C769 C 0.90267 0.31582 0.56192 0.0
C770 C 0.91804 0.3634 0.60534 0.0
C771 C 0.86571 0.33109 0.58021 0.0
C772 C 0.85177 0.33721 0.54426 0.0
C773 C 0.82362 0.33274 0.55014 0.0
C774 C 0.80966 0.32227 0.59398 0.0
C775 C 0.82404 0.31679 0.6316 0.0
C776 C 0.85202 0.32047 0.62385 0.0
H777 H 0.53475 0.92415 0.08031 0.0
H778 H 0.60577 1.00145 0.14386 0.0
H779 H 0.62201 0.97093 0.18561 0.0
H780 H 0.51453 0.88563 0.18057 0.0
H781 H 0.50353 0.85037 0.15515 0.0
H782 H 0.50315 0.87823 0.11949 0.0
H783 H 0.53688 0.87315 0.05827 0.0
H784 H 0.53757 0.84532 0.09433 0.0
H785 H 0.57124 0.87715 0.07724 0.0
H786 H 0.62499 0.93285 0.23114 0.0
H787 H 0.6104 0.89118 0.28515 0.0
H788 H 0.53559 0.83797 0.19647 0.0
C789 C 0.55446 0.9346 0.10145 0.0
C790 C 0.56945 0.96504 0.10833 0.0
C791 C 0.5943 0.97812 0.13788 0.0
C792 C 0.6038 0.96097 0.16128 0.0
C793 C 0.58802 0.93079 0.15505 0.0
C794 C 0.56368 0.91767 0.12606 0.0
C795 C 0.54702 0.88491 0.13297 0.0
C796 C 0.51521 0.87419 0.14797 0.0
C797 C 0.54827 0.86921 0.08802 0.0
C798 C 0.5646 0.88183 0.17266 0.0
C799 C 0.58889 0.9084 0.18338 0.0
C800 C 0.60648 0.91183 0.22241 0.0
C801 C 0.59808 0.88805 0.25286 0.0
C802 C 0.57206 0.86141 0.24456 0.0
C803 C 0.55606 0.85784 0.20267 0.0
H804 H 0.56945 0.52821 0.55461 0.0
H805 H 0.55812 0.46069 0.45579 0.0
H806 H 0.60899 0.4722 0.47132 0.0
H807 H 0.64752 0.57982 0.52737 0.0
H808 H 0.65531 0.59097 0.58845 0.0
H809 H 0.61971 0.57981 0.56429 0.0
H810 H 0.59596 0.54112 0.63091 0.0
H811 H 0.63136 0.55213 0.65517 0.0
H812 H 0.60747 0.51456 0.63921 0.0
H813 H 0.65898 0.48663 0.50822 0.0
H814 H 0.70205 0.50291 0.56088 0.0
H815 H 0.68056 0.56276 0.63036 0.0
C816 C 0.57783 0.51622 0.53542 0.0
C817 C 0.55989 0.49354 0.50406 0.0
C818 C 0.57163 0.47832 0.47971 0.0
C819 C 0.60048 0.48472 0.48836 0.0
C820 C 0.6174 0.50682 0.5206 0.0
C821 C 0.6065 0.5226 0.54311 0.0
C822 C 0.62795 0.54384 0.57856 0.0
C823 C 0.63823 0.57549 0.56376 0.0
C824 C 0.6149 0.53751 0.6289 0.0
C825 C 0.65224 0.53682 0.57412 0.0
C826 C 0.64609 0.51561 0.54035 0.0
C827 C 0.66428 0.50371 0.53395 0.0
C828 C 0.68876 0.51314 0.56379 0.0
C829 C 0.69458 0.53406 0.59959 0.0
C830 C 0.67667 0.54676 0.6032 0.0
H831 H 0.05025 0.60723 0.06444 0.0
H832 H 0.11208 0.59501 0.98083 0.0
H833 H 0.15255 0.64063 0.0132 0.0
H834 H 0.08958 0.6887 0.05253 0.0
H835 H 0.08045 0.69349 0.11212 0.0
H836 H 0.05596 0.66131 0.07901 0.0
H837 H 0.05744 0.62846 0.14612 0.0
H838 H 0.08144 0.66045 0.17956 0.0
H839 H 0.09224 0.63391 0.16588 0.0
H840 H 0.18625 0.68171 0.06515 0.0
H841 H 0.20993 0.714 0.13283 0.0
H842 H 0.12726 0.70713 0.17178 0.0
C843 C 0.07231 0.61443 0.0527 0.0
C844 C 0.07818 0.59766 0.02044 0.0
C845 C 0.10721 0.60769 0.00552 0.0
C846 C 0.1303 0.63363 0.02344 0.0
C847 C 0.1239 0.64982 0.05512 0.0
C848 C 0.09559 0.64084 0.06915 0.0
C849 C 0.0949 0.66143 0.10565 0.0
C850 C 0.07929 0.67717 0.08614 0.0
C851 C 0.08068 0.64509 0.15202 0.0
C852 C 0.12729 0.68238 0.11187 0.0
C853 C 0.14366 0.67536 0.08228 0.0
C854 C 0.17379 0.68812 0.08752 0.0
C855 C 0.18721 0.70687 0.12604 0.0
C856 C 0.17052 0.71296 0.15861 0.0
C857 C 0.14069 0.70258 0.14835 0.0
loop_
_geom_bond_atom_site_label_1
_geom_bond_atom_site_label_2
_geom_bond_distance
_geom_bond_site_symmetry_2
_ccdc_geom_bond_type
C0 O2 1.247 . S
C0 O4 1.258 . S
C1 O8 1.247 . S
C1 O9 1.258 1_556 S
O2 C0 1.247 . S
O2 Zn3 2.028 1_455 S
Zn3 O2 2.028 1_655 S
Zn3 O7 2.035 . S
Zn3 O9 2.035 . S
Zn3 O10 2.028 1_655 S
O4 C0 1.258 . S
O4 Zn5 2.035 1_554 S
Zn5 O4 2.035 1_556 S
Zn5 O6 2.028 1_455 S
Zn5 O8 2.028 1_455 S
Zn5 O11 2.035 1_556 S
O6 Zn5 2.028 1_655 S
O6 C12 1.247 . S
O7 Zn3 2.035 . S
O7 C12 1.258 1_554 S
O8 C1 1.247 . S
O8 Zn5 2.028 1_655 S
O9 C1 1.258 1_554 S
O9 Zn3 2.035 . S
O10 Zn3 2.028 1_455 S
O10 C13 1.247 . S
O11 Zn5 2.035 1_554 S
O11 C13 1.258 . S
C12 O6 1.247 . S
C12 O7 1.258 1_556 S
C13 O10 1.247 . S
C13 O11 1.258 . S
C14 O16 1.247 . S
C14 O18 1.258 . S
C15 O22 1.247 . S
C15 O23 1.258 . S
O16 C14 1.247 . S
O16 Zn17 2.028 1_545 S
Zn17 O16 2.028 1_565 S
Zn17 O21 2.035 . S
Zn17 O23 2.035 . S
Zn17 O24 2.028 1_565 S
O18 C14 1.258 . S
O18 Zn19 2.035 . S
Zn19 O18 2.035 . S
Zn19 O20 2.028 1_545 S
Zn19 O22 2.028 1_545 S
Zn19 O25 2.035 . S
O20 Zn19 2.028 1_565 S
O20 C26 1.247 . S
O21 Zn17 2.035 . S
O21 C26 1.258 . S
O22 C15 1.247 . S
O22 Zn19 2.028 1_565 S
O23 C15 1.258 . S
O23 Zn17 2.035 . S
O24 Zn17 2.028 1_545 S
O24 C27 1.247 . S
O25 Zn19 2.035 . S
O25 C27 1.258 . S
C26 O20 1.247 . S
C26 O21 1.258 . S
C27 O24 1.247 . S
C27 O25 1.258 . S
C28 O30 1.247 . S
C28 O32 1.258 1_556 S
C29 O36 1.247 . S
C29 O37 1.258 . S
O30 C28 1.247 . S
O30 Zn31 2.028 . S
Zn31 O30 2.028 . S
Zn31 O35 2.035 1_556 S
Zn31 O37 2.035 1_556 S
Zn31 O38 2.028 . S
O32 C28 1.258 1_554 S
O32 Zn33 2.035 . S
Zn33 O32 2.035 . S
Zn33 O34 2.028 . S
Zn33 O36 2.028 . S
Zn33 O39 2.035 . S
O34 Zn33 2.028 . S
O34 C40 1.247 . S
O35 Zn31 2.035 1_554 S
O35 C40 1.258 . S
O36 C29 1.247 . S
O36 Zn33 2.028 . S
O37 C29 1.258 . S
O37 Zn31 2.035 1_554 S
O38 Zn31 2.028 . S
O38 C41 1.247 . S
O39 Zn33 2.035 . S
O39 C41 1.258 1_554 S
C40 O34 1.247 . S
C40 O35 1.258 . S
C41 O38 1.247 . S
C41 O39 1.258 1_556 S
C42 O44 1.247 . S
C42 O46 1.258 . S
C43 O50 1.247 . S
C43 O51 1.258 . S
O44 C42 1.247 . S
O44 Zn45 2.028 . S
Zn45 O44 2.028 . S
Zn45 O49 2.035 1_455 S
Zn45 O51 2.035 1_455 S
Zn45 O52 2.028 . S
O46 C42 1.258 . S
O46 Zn47 2.035 1_455 S
Zn47 O46 2.035 1_655 S
Zn47 O48 2.028 . S
Zn47 O50 2.028 . S
Zn47 O53 2.035 1_655 S
O48 Zn47 2.028 . S
O48 C54 1.247 . S
O49 Zn45 2.035 1_655 S
O49 C54 1.258 . S
O50 C43 1.247 . S
O50 Zn47 2.028 . S
O51 C43 1.258 . S
O51 Zn45 2.035 1_655 S
O52 Zn45 2.028 . S
O52 C55 1.247 . S
O53 Zn47 2.035 1_455 S
O53 C55 1.258 . S
C54 O48 1.247 . S
C54 O49 1.258 . S
C55 O52 1.247 . S
C55 O53 1.258 . S
C56 O58 1.247 . S
C56 O60 1.268 . S
C57 O64 1.247 . S
C57 O65 1.258 1_556 S
O58 C56 1.247 . S
O58 Zn59 2.028 1_565 S
Zn59 O58 2.028 1_545 S
Zn59 O63 2.035 . S
Zn59 O65 2.035 . S
Zn59 O66 2.028 1_545 S
O60 C56 1.268 . S
O60 Zn61 2.029 1_554 S
Zn61 O60 2.029 1_556 S
Zn61 O62 2.028 1_565 S
Zn61 O64 2.028 1_565 S
Zn61 O67 2.027 1_556 S
O62 Zn61 2.028 1_545 S
O62 C68 1.247 . S
O63 Zn59 2.035 . S
O63 C68 1.258 1_554 S
O64 C57 1.247 . S
O64 Zn61 2.028 1_545 S
O65 C57 1.258 1_554 S
O65 Zn59 2.035 . S
O66 Zn59 2.028 1_565 S
O66 C69 1.247 . S
O67 Zn61 2.027 1_554 S
O67 C69 1.272 . S
C68 O62 1.247 . S
C68 O63 1.258 1_556 S
C69 O66 1.247 . S
C69 O67 1.272 . S
C70 O72 1.247 . S
C70 O74 1.258 . S
C71 O78 1.247 . S
C71 O79 1.258 . S
O72 C70 1.247 . S
O72 Zn73 2.028 . S
Zn73 O72 2.028 . S
Zn73 O77 2.035 . S
Zn73 O79 2.035 . S
Zn73 O80 2.028 . S
O74 C70 1.258 . S
O74 Zn75 2.035 . S
Zn75 O74 2.035 . S
Zn75 O76 2.028 . S
Zn75 O78 2.028 . S
Zn75 O81 2.035 . S
O76 Zn75 2.028 . S
O76 C82 1.247 . S
O77 Zn73 2.035 . S
O77 C82 1.258 . S
O78 C71 1.247 . S
O78 Zn75 2.028 . S
O79 C71 1.258 . S
O79 Zn73 2.035 . S
O80 Zn73 2.028 . S
O80 C83 1.247 . S
O81 Zn75 2.035 . S
O81 C83 1.258 . S
C82 O76 1.247 . S
C82 O77 1.258 . S
C83 O80 1.247 . S
C83 O81 1.258 . S
H84 C92 0.930 . S
H85 C95 0.930 . S
H86 C97 0.930 . S
H87 C98 0.970 . S
H88 C98 0.970 . S
H89 C100 0.930 . S
H90 C102 0.930 . S
H91 C104 0.930 . S
C92 H84 0.930 . S
C92 C93 1.382 . S
C92 C94 1.426 . S
C93 C92 1.382 . S
C93 C97 1.389 . S
C94 C92 1.426 . S
C94 C95 1.375 . S
C94 C98 1.532 . S
C95 H85 0.930 . S
C95 C94 1.375 . S
C95 C96 1.416 . S
C96 C95 1.416 . S
C96 C97 1.371 . S
C97 H86 0.930 . S
C97 C93 1.389 . S
C97 C96 1.371 . S
C98 H87 0.970 . S
C98 H88 0.970 . S
C98 C94 1.532 . S
C98 C99 1.499 . S
C99 C98 1.499 . S
C99 C100 1.370 . S
C99 C104 1.415 . S
C100 H89 0.930 . S
C100 C99 1.370 . S
C100 C101 1.407 . S
C101 C100 1.407 . S
C101 C102 1.365 . S
C102 H90 0.930 . S
C102 C101 1.365 . S
C102 C103 1.393 . S
C103 C102 1.393 . S
C103 C104 1.387 . S
C104 H91 0.930 . S
C104 C99 1.415 . S
C104 C103 1.387 . S
H105 C113 0.930 . S
H106 C116 0.930 . S
H107 C118 0.930 . S
H108 C119 0.970 . S
H109 C119 0.970 . S
H110 C121 0.930 . S
H111 C123 0.930 . S
H112 C125 0.930 . S
C113 H105 0.930 . S
C113 C114 1.382 . S
C113 C115 1.426 . S
C114 C113 1.382 . S
C114 C118 1.389 . S
C115 C113 1.426 . S
C115 C116 1.375 . S
C115 C119 1.532 . S
C116 H106 0.930 . S
C116 C115 1.375 . S
C116 C117 1.416 . S
C117 C116 1.416 . S
C117 C118 1.371 . S
C118 H107 0.930 . S
C118 C114 1.389 . S
C118 C117 1.371 . S
C119 H108 0.970 . S
C119 H109 0.970 . S
C119 C115 1.532 . S
C119 C120 1.499 . S
C120 C119 1.499 . S
C120 C121 1.370 . S
C120 C125 1.415 . S
C121 H110 0.930 . S
C121 C120 1.370 . S
C121 C122 1.407 . S
C122 C121 1.407 . S
C122 C123 1.365 . S
C123 H111 0.930 . S
C123 C122 1.365 . S
C123 C124 1.393 . S
C124 C123 1.393 . S
C124 C125 1.387 . S
C125 H112 0.930 . S
C125 C120 1.415 . S
C125 C124 1.387 . S
H126 C134 0.930 . S
H127 C137 0.930 . S
H128 C139 0.930 . S
H129 C140 0.970 . S
H130 C140 0.970 . S
H131 C142 0.930 . S
H132 C144 0.930 . S
H133 C146 0.930 . S
C134 H126 0.930 . S
C134 C135 1.382 . S
C134 C136 1.426 . S
C135 C134 1.382 . S
C135 C139 1.389 . S
C136 C134 1.426 . S
C136 C137 1.375 . S
C136 C140 1.532 . S
C137 H127 0.930 . S
C137 C136 1.375 . S
C137 C138 1.416 . S
C138 C137 1.416 . S
C138 C139 1.371 . S
C139 H128 0.930 . S
C139 C135 1.389 . S
C139 C138 1.371 . S
C140 H129 0.970 . S
C140 H130 0.970 . S
C140 C136 1.532 . S
C140 C141 1.499 . S
C141 C140 1.499 . S
C141 C142 1.370 . S
C141 C146 1.415 . S
C142 H131 0.930 . S
C142 C141 1.370 . S
C142 C143 1.407 . S
C143 C142 1.407 . S
C143 C144 1.365 . S
C144 H132 0.930 . S
C144 C143 1.365 . S
C144 C145 1.393 . S
C145 C144 1.393 . S
C145 C146 1.387 . S
C146 H133 0.930 . S
C146 C141 1.415 . S
C146 C145 1.387 . S
H147 C155 0.930 . S
H148 C158 0.930 . S
H149 C160 0.930 . S
H150 C161 0.970 . S
H151 C161 0.970 . S
H152 C163 0.930 . S
H153 C165 0.930 . S
H154 C167 0.930 . S
C155 H147 0.930 . S
C155 C156 1.382 . S
C155 C157 1.426 . S
C156 C155 1.382 . S
C156 C160 1.389 . S
C157 C155 1.426 . S
C157 C158 1.375 . S
C157 C161 1.532 . S
C158 H148 0.930 . S
C158 C157 1.375 . S
C158 C159 1.416 . S
C159 C158 1.416 . S
C159 C160 1.371 . S
C160 H149 0.930 . S
C160 C156 1.389 . S
C160 C159 1.371 . S
C161 H150 0.970 . S
C161 H151 0.970 . S
C161 C157 1.532 . S
C161 C162 1.499 . S
C162 C161 1.499 . S
C162 C163 1.370 . S
C162 C167 1.415 . S
C163 H152 0.930 . S
C163 C162 1.370 . S
C163 C164 1.407 . S
C164 C163 1.407 . S
C164 C165 1.365 . S
C165 H153 0.930 . S
C165 C164 1.365 . S
C165 C166 1.393 . S
C166 C165 1.393 . S
C166 C167 1.387 . S
C167 H154 0.930 . S
C167 C162 1.415 . S
C167 C166 1.387 . S
H168 C176 0.930 . S
H169 C179 0.930 . S
H170 C181 0.930 . S
H171 C182 0.970 . S
H172 C182 0.970 . S
H173 C184 0.930 . S
H174 C186 0.930 . S
H175 C188 0.930 . S
C176 H168 0.930 . S
C176 C177 1.382 . S
C176 C178 1.426 . S
C177 C176 1.382 . S
C177 C181 1.389 . S
C178 C176 1.426 . S
C178 C179 1.375 . S
C178 C182 1.532 . S
C179 H169 0.930 . S
C179 C178 1.375 . S
C179 C180 1.416 . S
C180 C179 1.416 . S
C180 C181 1.371 . S
C181 H170 0.930 . S
C181 C177 1.389 . S
C181 C180 1.371 . S
C182 H171 0.970 . S
C182 H172 0.970 . S
C182 C178 1.532 . S
C182 C183 1.499 . S
C183 C182 1.499 . S
C183 C184 1.370 . S
C183 C188 1.415 . S
C184 H173 0.930 . S
C184 C183 1.370 . S
C184 C185 1.407 . S
C185 C184 1.407 . S
C185 C186 1.365 . S
C186 H174 0.930 . S
C186 C185 1.365 . S
C186 C187 1.393 . S
C187 C186 1.393 . S
C187 C188 1.387 . S
C188 H175 0.930 . S
C188 C183 1.415 . S
C188 C187 1.387 . S
H189 C197 0.930 . S
H190 C200 0.930 . S
H191 C202 0.930 . S
H192 C203 0.970 . S
H193 C203 0.970 . S
H194 C205 0.930 . S
H195 C207 0.930 . S
H196 C209 0.930 . S
C197 H189 0.930 . S
C197 C198 1.382 . S
C197 C199 1.426 . S
C198 C197 1.382 . S
C198 C202 1.389 . S
C199 C197 1.426 . S
C199 C200 1.375 . S
C199 C203 1.532 . S
C200 H190 0.930 . S
C200 C199 1.375 . S
C200 C201 1.416 . S
C201 C200 1.416 . S
C201 C202 1.371 . S
C202 H191 0.930 . S
C202 C198 1.389 . S
C202 C201 1.371 . S
C203 H192 0.970 . S
C203 H193 0.970 . S
C203 C199 1.532 . S
C203 C204 1.499 . S
C204 C203 1.499 . S
C204 C205 1.370 . S
C204 C209 1.415 . S
C205 H194 0.930 . S
C205 C204 1.370 . S
C205 C206 1.407 . S
C206 C205 1.407 . S
C206 C207 1.365 . S
C207 H195 0.930 . S
C207 C206 1.365 . S
C207 C208 1.393 . S
C208 C207 1.393 . S
C208 C209 1.387 . S
C209 H196 0.930 . S
C209 C204 1.415 . S
C209 C208 1.387 . S
H210 C222 0.930 . S
H211 C224 0.930 . S
H212 C225 0.930 . S
H213 C229 0.959 . S
H214 C229 0.959 . S
H215 C229 0.961 . S
H216 C230 0.960 . S
H217 C230 0.961 . S
H218 C230 0.959 . S
H219 C233 0.929 . S
H220 C234 0.931 . S
H221 C236 0.930 . S
C222 H210 0.930 . S
C222 C223 1.399 . S
C222 C227 1.399 . S
C223 C222 1.399 . S
C223 C224 1.376 . S
C224 H211 0.930 . S
C224 C223 1.376 . S
C224 C225 1.388 . S
C225 H212 0.930 . S
C225 C224 1.388 . S
C225 C226 1.390 . S
C226 C225 1.390 . S
C226 C227 1.394 . S
C226 C232 1.465 . S
C227 C222 1.399 . S
C227 C226 1.394 . S
C227 C228 1.516 . S
C228 C227 1.516 . S
C228 C229 1.502 . S
C228 C230 1.561 . S
C228 C231 1.526 . S
C229 H213 0.959 . S
C229 H214 0.959 . S
C229 H215 0.961 . S
C229 C228 1.502 . S
C230 H216 0.960 . S
C230 H217 0.961 . S
C230 H218 0.959 . S
C230 C228 1.561 . S
C231 C228 1.526 . S
C231 C232 1.396 . S
C231 C236 1.390 . S
C232 C226 1.465 . S
C232 C231 1.396 . S
C232 C233 1.399 . S
C233 H219 0.929 . S
C233 C232 1.399 . S
C233 C234 1.385 . S
C234 H220 0.931 . S
C234 C233 1.385 . S
C234 C235 1.389 . S
C235 C234 1.389 . S
C235 C236 1.387 . S
C236 H221 0.930 . S
C236 C231 1.390 . S
C236 C235 1.387 . S
H237 C249 0.930 . S
H238 C251 0.930 . S
H239 C252 0.930 . S
H240 C256 0.959 . S
H241 C256 0.959 . S
H242 C256 0.961 . S
H243 C257 0.960 . S
H244 C257 0.961 . S
H245 C257 0.959 . S
H246 C260 0.929 . S
H247 C261 0.931 . S
H248 C263 0.930 . S
C249 H237 0.930 . S
C249 C250 1.399 . S
C249 C254 1.399 . S
C250 C249 1.399 . S
C250 C251 1.376 . S
C251 H238 0.930 . S
C251 C250 1.376 . S
C251 C252 1.388 . S
C252 H239 0.930 . S
C252 C251 1.388 . S
C252 C253 1.390 . S
C253 C252 1.390 . S
C253 C254 1.394 . S
C253 C259 1.465 . S
C254 C249 1.399 . S
C254 C253 1.394 . S
C254 C255 1.516 . S
C255 C254 1.516 . S
C255 C256 1.502 . S
C255 C257 1.561 . S
C255 C258 1.526 . S
C256 H240 0.959 . S
C256 H241 0.959 . S
C256 H242 0.961 . S
C256 C255 1.502 . S
C257 H243 0.960 . S
C257 H244 0.961 . S
C257 H245 0.959 . S
C257 C255 1.561 . S
C258 C255 1.526 . S
C258 C259 1.396 . S
C258 C263 1.390 . S
C259 C253 1.465 . S
C259 C258 1.396 . S
C259 C260 1.399 . S
C260 H246 0.929 . S
C260 C259 1.399 . S
C260 C261 1.385 . S
C261 H247 0.931 . S
C261 C260 1.385 . S
C261 C262 1.389 . S
C262 C261 1.389 . S
C262 C263 1.387 . S
C263 H248 0.930 . S
C263 C258 1.390 . S
C263 C262 1.387 . S
H264 C276 0.930 . S
H265 C278 0.930 . S
H266 C279 0.930 . S
H267 C283 0.959 . S
H268 C283 0.959 . S
H269 C283 0.961 . S
H270 C284 0.960 . S
H271 C284 0.961 . S
H272 C284 0.959 . S
H273 C287 0.929 . S
H274 C288 0.931 . S
H275 C290 0.930 . S
C276 H264 0.930 . S
C276 C277 1.399 . S
C276 C281 1.399 . S
C277 C276 1.399 . S
C277 C278 1.376 . S
C278 H265 0.930 . S
C278 C277 1.376 . S
C278 C279 1.388 . S
C279 H266 0.930 . S
C279 C278 1.388 . S
C279 C280 1.390 . S
C280 C279 1.390 . S
C280 C281 1.394 . S
C280 C286 1.465 . S
C281 C276 1.399 . S
C281 C280 1.394 . S
C281 C282 1.516 . S
C282 C281 1.516 . S
C282 C283 1.502 . S
C282 C284 1.561 . S
C282 C285 1.526 . S
C283 H267 0.959 . S
C283 H268 0.959 . S
C283 H269 0.961 . S
C283 C282 1.502 . S
C284 H270 0.960 . S
C284 H271 0.961 . S
C284 H272 0.959 . S
C284 C282 1.561 . S
C285 C282 1.526 . S
C285 C286 1.396 . S
C285 C290 1.390 . S
C286 C280 1.465 . S
C286 C285 1.396 . S
C286 C287 1.399 . S
C287 H273 0.929 . S
C287 C286 1.399 . S
C287 C288 1.385 . S
C288 H274 0.931 . S
C288 C287 1.385 . S
C288 C289 1.389 . S
C289 C288 1.389 . S
C289 C290 1.387 . S
C290 H275 0.930 . S
C290 C285 1.390 . S
C290 C289 1.387 . S
H291 C303 0.930 . S
H292 C305 0.930 . S
H293 C306 0.930 . S
H294 C310 0.959 . S
H295 C310 0.959 . S
H296 C310 0.961 . S
H297 C311 0.960 . S
H298 C311 0.961 . S
H299 C311 0.959 . S
H300 C314 0.929 . S
H301 C315 0.931 . S
H302 C317 0.930 . S
C303 H291 0.930 . S
C303 C304 1.399 . S
C303 C308 1.399 . S
C304 C303 1.399 . S
C304 C305 1.376 . S
C305 H292 0.930 . S
C305 C304 1.376 . S
C305 C306 1.388 . S
C306 H293 0.930 . S
C306 C305 1.388 . S
C306 C307 1.390 . S
C307 C306 1.390 . S
C307 C308 1.394 . S
C307 C313 1.465 . S
C308 C303 1.399 . S
C308 C307 1.394 . S
C308 C309 1.516 . S
C309 C308 1.516 . S
C309 C310 1.502 . S
C309 C311 1.561 . S
C309 C312 1.526 . S
C310 H294 0.959 . S
C310 H295 0.959 . S
C310 H296 0.961 . S
C310 C309 1.502 . S
C311 H297 0.960 . S
C311 H298 0.961 . S
C311 H299 0.959 . S
C311 C309 1.561 . S
C312 C309 1.526 . S
C312 C313 1.396 . S
C312 C317 1.390 . S
C313 C307 1.465 . S
C313 C312 1.396 . S
C313 C314 1.399 . S
C314 H300 0.929 . S
C314 C313 1.399 . S
C314 C315 1.385 . S
C315 H301 0.931 . S
C315 C314 1.385 . S
C315 C316 1.389 . S
C316 C315 1.389 . S
C316 C317 1.387 . S
C317 H302 0.930 . S
C317 C312 1.390 . S
C317 C316 1.387 . S
H318 C330 0.930 . S
H319 C332 0.930 . S
H320 C333 0.930 . S
H321 C337 0.959 . S
H322 C337 0.959 . S
H323 C337 0.961 . S
H324 C338 0.960 . S
H325 C338 0.961 . S
H326 C338 0.959 . S
H327 C341 0.929 . S
H328 C342 0.931 . S
H329 C344 0.930 . S
C330 H318 0.930 . S
C330 C331 1.399 . S
C330 C335 1.399 . S
C331 C330 1.399 . S
C331 C332 1.376 . S
C332 H319 0.930 . S
C332 C331 1.376 . S
C332 C333 1.388 . S
C333 H320 0.930 . S
C333 C332 1.388 . S
C333 C334 1.390 . S
C334 C333 1.390 . S
C334 C335 1.394 . S
C334 C340 1.465 . S
C335 C330 1.399 . S
C335 C334 1.394 . S
C335 C336 1.516 . S
C336 C335 1.516 . S
C336 C337 1.502 . S
C336 C338 1.561 . S
C336 C339 1.526 . S
C337 H321 0.959 . S
C337 H322 0.959 . S
C337 H323 0.961 . S
C337 C336 1.502 . S
C338 H324 0.960 . S
C338 H325 0.961 . S
C338 H326 0.959 . S
C338 C336 1.561 . S
C339 C336 1.526 . S
C339 C340 1.396 . S
C339 C344 1.390 . S
C340 C334 1.465 . S
C340 C339 1.396 . S
C340 C341 1.399 . S
C341 H327 0.929 . S
C341 C340 1.399 . S
C341 C342 1.385 . S
C342 H328 0.931 . S
C342 C341 1.385 . S
C342 C343 1.389 . S
C343 C342 1.389 . S
C343 C344 1.387 . S
C344 H329 0.930 . S
C344 C339 1.390 . S
C344 C343 1.387 . S
H345 C357 0.930 . S
H346 C359 0.930 . S
H347 C360 0.930 . S
H348 C364 0.959 . S
H349 C364 0.959 . S
H350 C364 0.961 . S
H351 C365 0.960 . S
H352 C365 0.961 . S
H353 C365 0.959 . S
H354 C368 0.929 . S
H355 C369 0.931 . S
H356 C371 0.930 . S
C357 H345 0.930 . S
C357 C358 1.399 . S
C357 C362 1.399 . S
C358 C357 1.399 . S
C358 C359 1.376 . S
C359 H346 0.930 . S
C359 C358 1.376 . S
C359 C360 1.388 . S
C360 H347 0.930 . S
C360 C359 1.388 . S
C360 C361 1.390 . S
C361 C360 1.390 . S
C361 C362 1.394 . S
C361 C367 1.465 . S
C362 C357 1.399 . S
C362 C361 1.394 . S
C362 C363 1.516 . S
C363 C362 1.516 . S
C363 C364 1.502 . S
C363 C365 1.561 . S
C363 C366 1.526 . S
C364 H348 0.959 . S
C364 H349 0.959 . S
C364 H350 0.961 . S
C364 C363 1.502 . S
C365 H351 0.960 . S
C365 H352 0.961 . S
C365 H353 0.959 . S
C365 C363 1.561 . S
C366 C363 1.526 . S
C366 C367 1.396 . S
C366 C371 1.390 . S
C367 C361 1.465 . S
C367 C366 1.396 . S
C367 C368 1.399 . S
C368 H354 0.929 . S
C368 C367 1.399 . S
C368 C369 1.385 . S
C369 H355 0.931 . S
C369 C368 1.385 . S
C369 C370 1.389 . S
C370 C369 1.389 . S
C370 C371 1.387 . S
C371 H356 0.930 . S
C371 C366 1.390 . S
C371 C370 1.387 . S
H372 C384 0.930 . S
H373 C386 0.930 . S
H374 C387 0.930 . S
H375 C391 0.959 . S
H376 C391 0.959 . S
H377 C391 0.961 . S
H378 C392 0.960 . S
H379 C392 0.961 . S
H380 C392 0.959 . S
H381 C395 0.929 . S
H382 C396 0.931 . S
H383 C398 0.930 . S
C384 H372 0.930 . S
C384 C385 1.399 . S
C384 C389 1.399 . S
C385 C384 1.399 . S
C385 C386 1.376 . S
C386 H373 0.930 . S
C386 C385 1.376 . S
C386 C387 1.388 . S
C387 H374 0.930 . S
C387 C386 1.388 . S
C387 C388 1.390 . S
C388 C387 1.390 . S
C388 C389 1.394 . S
C388 C394 1.465 . S
C389 C384 1.399 . S
C389 C388 1.394 . S
C389 C390 1.516 . S
C390 C389 1.516 . S
C390 C391 1.502 . S
C390 C392 1.561 . S
C390 C393 1.526 . S
C391 H375 0.959 . S
C391 H376 0.959 . S
C391 H377 0.961 . S
C391 C390 1.502 . S
C392 H378 0.960 . S
C392 H379 0.961 . S
C392 H380 0.959 . S
C392 C390 1.561 . S
C393 C390 1.526 . S
C393 C394 1.396 . S
C393 C398 1.390 . S
C394 C388 1.465 . S
C394 C393 1.396 . S
C394 C395 1.399 . S
C395 H381 0.929 . S
C395 C394 1.399 . S
C395 C396 1.385 . S
C396 H382 0.931 . S
C396 C395 1.385 . S
C396 C397 1.389 . S
C397 C396 1.389 . S
C397 C398 1.387 . S
C398 H383 0.930 . S
C398 C393 1.390 . S
C398 C397 1.387 . S
H399 C411 0.930 . S
H400 C413 0.930 . S
H401 C414 0.930 . S
H402 C418 0.959 . S
H403 C418 0.959 . S
H404 C418 0.961 . S
H405 C419 0.960 . S
H406 C419 0.961 . S
H407 C419 0.959 . S
H408 C422 0.929 . S
H409 C423 0.931 . S
H410 C425 0.930 . S
C411 H399 0.930 . S
C411 C412 1.399 . S
C411 C416 1.399 . S
C412 C411 1.399 . S
C412 C413 1.376 . S
C413 H400 0.930 . S
C413 C412 1.376 . S
C413 C414 1.388 . S
C414 H401 0.930 . S
C414 C413 1.388 . S
C414 C415 1.390 . S
C415 C414 1.390 . S
C415 C416 1.394 . S
C415 C421 1.465 . S
C416 C411 1.399 . S
C416 C415 1.394 . S
C416 C417 1.516 . S
C417 C416 1.516 . S
C417 C418 1.502 . S
C417 C419 1.561 . S
C417 C420 1.526 . S
C418 H402 0.959 . S
C418 H403 0.959 . S
C418 H404 0.961 . S
C418 C417 1.502 . S
C419 H405 0.960 . S
C419 H406 0.961 . S
C419 H407 0.959 . S
C419 C417 1.561 . S
C420 C417 1.526 . S
C420 C421 1.396 . S
C420 C425 1.390 . S
C421 C415 1.465 . S
C421 C420 1.396 . S
C421 C422 1.399 . S
C422 H408 0.929 . S
C422 C421 1.399 . S
C422 C423 1.385 . S
C423 H409 0.931 . S
C423 C422 1.385 . S
C423 C424 1.389 . S
C424 C423 1.389 . S
C424 C425 1.387 . S
C425 H410 0.930 . S
C425 C420 1.390 . S
C425 C424 1.387 . S
H426 C438 0.930 . S
H427 C440 0.930 . S
H428 C441 0.930 . S
H429 C445 0.959 . S
H430 C445 0.959 . S
H431 C445 0.961 . S
H432 C446 0.960 . S
H433 C446 0.961 . S
H434 C446 0.959 . S
H435 C449 0.929 . S
H436 C450 0.931 . S
H437 C452 0.930 . S
C438 H426 0.930 . S
C438 C439 1.399 . S
C438 C443 1.399 . S
C439 C438 1.399 . S
C439 C440 1.376 . S
C440 H427 0.930 . S
C440 C439 1.376 . S
C440 C441 1.388 . S
C441 H428 0.930 . S
C441 C440 1.388 . S
C441 C442 1.390 . S
C442 C441 1.390 . S
C442 C443 1.394 . S
C442 C448 1.465 . S
C443 C438 1.399 . S
C443 C442 1.394 . S
C443 C444 1.516 . S
C444 C443 1.516 . S
C444 C445 1.502 . S
C444 C446 1.561 . S
C444 C447 1.526 . S
C445 H429 0.959 . S
C445 H430 0.959 . S
C445 H431 0.961 . S
C445 C444 1.502 . S
C446 H432 0.960 . S
C446 H433 0.961 . S
C446 H434 0.959 . S
C446 C444 1.561 . S
C447 C444 1.526 . S
C447 C448 1.396 . S
C447 C452 1.390 . S
C448 C442 1.465 . S
C448 C447 1.396 . S
C448 C449 1.399 . S
C449 H435 0.929 . S
C449 C448 1.399 . S
C449 C450 1.385 . S
C450 H436 0.931 . S
C450 C449 1.385 . S
C450 C451 1.389 . S
C451 C450 1.389 . S
C451 C452 1.387 . S
C452 H437 0.930 . S
C452 C447 1.390 . S
C452 C451 1.387 . S
H453 C465 0.930 . S
H454 C467 0.930 . S
H455 C468 0.930 . S
H456 C472 0.959 . S
H457 C472 0.959 . S
H458 C472 0.961 . S
H459 C473 0.960 . S
H460 C473 0.961 . S
H461 C473 0.959 . S
H462 C476 0.929 . S
H463 C477 0.931 . S
H464 C479 0.930 . S
C465 H453 0.930 . S
C465 C466 1.399 . S
C465 C470 1.399 . S
C466 C465 1.399 . S
C466 C467 1.376 . S
C467 H454 0.930 . S
C467 C466 1.376 . S
C467 C468 1.388 . S
C468 H455 0.930 . S
C468 C467 1.388 . S
C468 C469 1.390 . S
C469 C468 1.390 . S
C469 C470 1.394 . S
C469 C475 1.465 . S
C470 C465 1.399 . S
C470 C469 1.394 . S
C470 C471 1.516 . S
C471 C470 1.516 . S
C471 C472 1.502 . S
C471 C473 1.561 . S
C471 C474 1.526 . S
C472 H456 0.959 . S
C472 H457 0.959 . S
C472 H458 0.961 . S
C472 C471 1.502 . S
C473 H459 0.960 . S
C473 H460 0.961 . S
C473 H461 0.959 . S
C473 C471 1.561 . S
C474 C471 1.526 . S
C474 C475 1.396 . S
C474 C479 1.390 . S
C475 C469 1.465 . S
C475 C474 1.396 . S
C475 C476 1.399 . S
C476 H462 0.929 . S
C476 C475 1.399 . S
C476 C477 1.385 . S
C477 H463 0.931 . S
C477 C476 1.385 . S
C477 C478 1.389 . S
C478 C477 1.389 . S
C478 C479 1.387 . S
C479 H464 0.930 . S
C479 C474 1.390 . S
C479 C478 1.387 . S
H480 C492 0.930 . S
H481 C494 0.930 . S
H482 C495 0.930 . S
H483 C499 0.959 . S
H484 C499 0.959 . S
H485 C499 0.961 . S
H486 C500 0.960 . S
H487 C500 0.961 . S
H488 C500 0.959 . S
H489 C503 0.929 . S
H490 C504 0.931 . S
H491 C506 0.930 . S
C492 H480 0.930 . S
C492 C493 1.399 . S
C492 C497 1.399 . S
C493 C492 1.399 . S
C493 C494 1.376 . S
C494 H481 0.930 . S
C494 C493 1.376 . S
C494 C495 1.388 . S
C495 H482 0.930 . S
C495 C494 1.388 . S
C495 C496 1.390 . S
C496 C495 1.390 . S
C496 C497 1.394 . S
C496 C502 1.465 . S
C497 C492 1.399 . S
C497 C496 1.394 . S
C497 C498 1.516 . S
C498 C497 1.516 . S
C498 C499 1.502 . S
C498 C500 1.561 . S
C498 C501 1.526 . S
C499 H483 0.959 . S
C499 H484 0.959 . S
C499 H485 0.961 . S
C499 C498 1.502 . S
C500 H486 0.960 . S
C500 H487 0.961 . S
C500 H488 0.959 . S
C500 C498 1.561 . S
C501 C498 1.526 . S
C501 C502 1.396 . S
C501 C506 1.390 . S
C502 C496 1.465 . S
C502 C501 1.396 . S
C502 C503 1.399 . S
C503 H489 0.929 . S
C503 C502 1.399 . S
C503 C504 1.385 . S
C504 H490 0.931 . S
C504 C503 1.385 . S
C504 C505 1.389 . S
C505 C504 1.389 . S
C505 C506 1.387 . S
C506 H491 0.930 . S
C506 C501 1.390 . S
C506 C505 1.387 . S
H507 C519 0.930 . S
H508 C521 0.930 . S
H509 C522 0.930 . S
H510 C526 0.959 . S
H511 C526 0.959 . S
H512 C526 0.961 . S
H513 C527 0.960 1_554 S
H514 C527 0.961 . S
H515 C527 0.959 . S
H516 C530 0.929 . S
H517 C531 0.931 . S
H518 C533 0.930 . S
C519 H507 0.930 . S
C519 C520 1.399 . S
C519 C524 1.399 . S
C520 C519 1.399 . S
C520 C521 1.376 . S
C521 H508 0.930 . S
C521 C520 1.376 . S
C521 C522 1.388 . S
C522 H509 0.930 . S
C522 C521 1.388 . S
C522 C523 1.390 . S
C523 C522 1.390 . S
C523 C524 1.394 . S
C523 C529 1.465 . S
C524 C519 1.399 . S
C524 C523 1.394 . S
C524 C525 1.516 . S
C525 C524 1.516 . S
C525 C526 1.502 . S
C525 C527 1.561 . S
C525 C528 1.526 . S
C526 H510 0.959 . S
C526 H511 0.959 . S
C526 H512 0.961 . S
C526 C525 1.502 . S
C527 H513 0.960 1_556 S
C527 H514 0.961 . S
C527 H515 0.959 . S
C527 C525 1.561 . S
C528 C525 1.526 . S
C528 C529 1.396 . S
C528 C533 1.390 . S
C529 C523 1.465 . S
C529 C528 1.396 . S
C529 C530 1.399 . S
C530 H516 0.929 . S
C530 C529 1.399 . S
C530 C531 1.385 . S
C531 H517 0.931 . S
C531 C530 1.385 . S
C531 C532 1.389 . S
C532 C531 1.389 . S
C532 C533 1.387 . S
C533 H518 0.930 . S
C533 C528 1.390 . S
C533 C532 1.387 . S
H534 C546 0.930 . S
H535 C548 0.930 1_554 S
H536 C549 0.930 . S
H537 C553 0.959 . S
H538 C553 0.959 . S
H539 C553 0.961 . S
H540 C554 0.960 . S
H541 C554 0.961 . S
H542 C554 0.959 . S
H543 C557 0.929 . S
H544 C558 0.931 . S
H545 C560 0.930 . S
C546 H534 0.930 . S
C546 C547 1.399 . S
C546 C551 1.399 . S
C547 C546 1.399 . S
C547 C548 1.376 . S
C548 H535 0.930 1_556 S
C548 C547 1.376 . S
C548 C549 1.388 . S
C549 H536 0.930 . S
C549 C548 1.388 . S
C549 C550 1.390 . S
C550 C549 1.390 . S
C550 C551 1.394 . S
C550 C556 1.465 . S
C551 C546 1.399 . S
C551 C550 1.394 . S
C551 C552 1.516 . S
C552 C551 1.516 . S
C552 C553 1.502 . S
C552 C554 1.561 . S
C552 C555 1.526 . S
C553 H537 0.959 . S
C553 H538 0.959 . S
C553 H539 0.961 . S
C553 C552 1.502 . S
C554 H540 0.960 . S
C554 H541 0.961 . S
C554 H542 0.959 . S
C554 C552 1.561 . S
C555 C552 1.526 . S
C555 C556 1.396 . S
C555 C560 1.390 . S
C556 C550 1.465 . S
C556 C555 1.396 . S
C556 C557 1.399 . S
C557 H543 0.929 . S
C557 C556 1.399 . S
C557 C558 1.385 . S
C558 H544 0.931 . S
C558 C557 1.385 . S
C558 C559 1.389 . S
C559 C558 1.389 . S
C559 C560 1.387 . S
C560 H545 0.930 . S
C560 C555 1.390 . S
C560 C559 1.387 . S
H561 C573 0.930 . S
H562 C575 0.930 . S
H563 C576 0.930 . S
H564 C580 0.959 . S
H565 C580 0.959 . S
H566 C580 0.961 . S
H567 C581 0.960 . S
H568 C581 0.961 . S
H569 C581 0.959 . S
H570 C584 0.929 . S
H571 C585 0.931 . S
H572 C587 0.930 . S
C573 H561 0.930 . S
C573 C574 1.399 . S
C573 C578 1.399 . S
C574 C573 1.399 . S
C574 C575 1.376 . S
C575 H562 0.930 . S
C575 C574 1.376 . S
C575 C576 1.388 . S
C576 H563 0.930 . S
C576 C575 1.388 . S
C576 C577 1.390 . S
C577 C576 1.390 . S
C577 C578 1.394 . S
C577 C583 1.465 . S
C578 C573 1.399 . S
C578 C577 1.394 . S
C578 C579 1.516 . S
C579 C578 1.516 . S
C579 C580 1.502 . S
C579 C581 1.561 . S
C579 C582 1.526 . S
C580 H564 0.959 . S
C580 H565 0.959 . S
C580 H566 0.961 . S
C580 C579 1.502 . S
C581 H567 0.960 . S
C581 H568 0.961 . S
C581 H569 0.959 . S
C581 C579 1.561 . S
C582 C579 1.526 . S
C582 C583 1.396 . S
C582 C587 1.390 . S
C583 C577 1.465 . S
C583 C582 1.396 . S
C583 C584 1.399 . S
C584 H570 0.929 . S
C584 C583 1.399 . S
C584 C585 1.385 . S
C585 H571 0.931 . S
C585 C584 1.385 . S
C585 C586 1.389 . S
C586 C585 1.389 . S
C586 C587 1.387 . S
C587 H572 0.930 . S
C587 C582 1.390 . S
C587 C586 1.387 . S
H588 C600 0.930 . S
H589 C602 0.930 . S
H590 C603 0.930 . S
H591 C607 0.959 . S
H592 C607 0.959 . S
H593 C607 0.961 . S
H594 C608 0.960 . S
H595 C608 0.961 . S
H596 C608 0.959 . S
H597 C611 0.929 . S
H598 C612 0.931 . S
H599 C614 0.930 . S
C600 H588 0.930 . S
C600 C601 1.399 . S
C600 C605 1.399 . S
C601 C600 1.399 . S
C601 C602 1.376 . S
C602 H589 0.930 . S
C602 C601 1.376 . S
C602 C603 1.388 . S
C603 H590 0.930 . S
C603 C602 1.388 . S
C603 C604 1.390 . S
C604 C603 1.390 . S
C604 C605 1.394 . S
C604 C610 1.465 . S
C605 C600 1.399 . S
C605 C604 1.394 . S
C605 C606 1.516 . S
C606 C605 1.516 . S
C606 C607 1.502 . S
C606 C608 1.561 . S
C606 C609 1.526 . S
C607 H591 0.959 . S
C607 H592 0.959 . S
C607 H593 0.961 . S
C607 C606 1.502 . S
C608 H594 0.960 . S
C608 H595 0.961 . S
C608 H596 0.959 . S
C608 C606 1.561 . S
C609 C606 1.526 . S
C609 C610 1.396 . S
C609 C614 1.390 . S
C610 C604 1.465 . S
C610 C609 1.396 . S
C610 C611 1.399 . S
C611 H597 0.929 . S
C611 C610 1.399 . S
C611 C612 1.385 . S
C612 H598 0.931 . S
C612 C611 1.385 . S
C612 C613 1.389 . S
C613 C612 1.389 . S
C613 C614 1.387 . S
C614 H599 0.930 . S
C614 C609 1.390 . S
C614 C613 1.387 . S
H615 C627 0.930 . S
H616 C629 0.930 . S
H617 C630 0.930 . S
H618 C634 0.959 . S
H619 C634 0.959 . S
H620 C634 0.961 . S
H621 C635 0.960 . S
H622 C635 0.961 . S
H623 C635 0.959 . S
H624 C638 0.929 . S
H625 C639 0.931 . S
H626 C641 0.930 . S
C627 H615 0.930 . S
C627 C628 1.399 . S
C627 C632 1.399 . S
C628 C627 1.399 . S
C628 C629 1.376 . S
C629 H616 0.930 . S
C629 C628 1.376 . S
C629 C630 1.388 . S
C630 H617 0.930 . S
C630 C629 1.388 . S
C630 C631 1.390 . S
C631 C630 1.390 . S
C631 C632 1.394 . S
C631 C637 1.465 . S
C632 C627 1.399 . S
C632 C631 1.394 . S
C632 C633 1.516 . S
C633 C632 1.516 . S
C633 C634 1.502 . S
C633 C635 1.561 . S
C633 C636 1.526 . S
C634 H618 0.959 . S
C634 H619 0.959 . S
C634 H620 0.961 . S
C634 C633 1.502 . S
C635 H621 0.960 . S
C635 H622 0.961 . S
C635 H623 0.959 . S
C635 C633 1.561 . S
C636 C633 1.526 . S
C636 C637 1.396 . S
C636 C641 1.390 . S
C637 C631 1.465 . S
C637 C636 1.396 . S
C637 C638 1.399 . S
C638 H624 0.929 . S
C638 C637 1.399 . S
C638 C639 1.385 . S
C639 H625 0.931 . S
C639 C638 1.385 . S
C639 C640 1.389 . S
C640 C639 1.389 . S
C640 C641 1.387 . S
C641 H626 0.930 . S
C641 C636 1.390 . S
C641 C640 1.387 . S
H642 C654 0.930 . S
H643 C656 0.930 1_554 S
H644 C657 0.930 . S
H645 C661 0.959 . S
H646 C661 0.959 . S
H647 C661 0.961 . S
H648 C662 0.960 . S
H649 C662 0.961 . S
H650 C662 0.959 . S
H651 C665 0.929 . S
H652 C666 0.931 . S
H653 C668 0.930 . S
C654 H642 0.930 . S
C654 C655 1.399 . S
C654 C659 1.399 . S
C655 C654 1.399 . S
C655 C656 1.376 . S
C656 H643 0.930 1_556 S
C656 C655 1.376 . S
C656 C657 1.388 . S
C657 H644 0.930 . S
C657 C656 1.388 . S
C657 C658 1.390 . S
C658 C657 1.390 . S
C658 C659 1.394 . S
C658 C664 1.465 . S
C659 C654 1.399 . S
C659 C658 1.394 . S
C659 C660 1.516 . S
C660 C659 1.516 . S
C660 C661 1.502 . S
C660 C662 1.561 . S
C660 C663 1.526 . S
C661 H645 0.959 . S
C661 H646 0.959 . S
C661 H647 0.961 . S
C661 C660 1.502 . S
C662 H648 0.960 . S
C662 H649 0.961 . S
C662 H650 0.959 . S
C662 C660 1.561 . S
C663 C660 1.526 . S
C663 C664 1.396 . S
C663 C668 1.390 . S
C664 C658 1.465 . S
C664 C663 1.396 . S
C664 C665 1.399 . S
C665 H651 0.929 . S
C665 C664 1.399 . S
C665 C666 1.385 . S
C666 H652 0.931 . S
C666 C665 1.385 . S
C666 C667 1.389 . S
C667 C666 1.389 . S
C667 C668 1.387 . S
C668 H653 0.930 . S
C668 C663 1.390 . S
C668 C667 1.387 . S
H669 C681 0.930 . S
H670 C683 0.930 . S
H671 C684 0.930 . S
H672 C688 0.959 . S
H673 C688 0.959 . S
H674 C688 0.961 . S
H675 C689 0.960 . S
H676 C689 0.961 . S
H677 C689 0.959 . S
H678 C692 0.929 . S
H679 C693 0.931 . S
H680 C695 0.930 . S
C681 H669 0.930 . S
C681 C682 1.399 . S
C681 C686 1.399 . S
C682 C681 1.399 . S
C682 C683 1.376 . S
C683 H670 0.930 . S
C683 C682 1.376 . S
C683 C684 1.388 . S
C684 H671 0.930 . S
C684 C683 1.388 . S
C684 C685 1.390 . S
C685 C684 1.390 . S
C685 C686 1.394 . S
C685 C691 1.465 . S
C686 C681 1.399 . S
C686 C685 1.394 . S
C686 C687 1.516 . S
C687 C686 1.516 . S
C687 C688 1.502 . S
C687 C689 1.561 . S
C687 C690 1.526 . S
C688 H672 0.959 . S
C688 H673 0.959 . S
C688 H674 0.961 . S
C688 C687 1.502 . S
C689 H675 0.960 . S
C689 H676 0.961 . S
C689 H677 0.959 . S
C689 C687 1.561 . S
C690 C687 1.526 . S
C690 C691 1.396 . S
C690 C695 1.390 . S
C691 C685 1.465 . S
C691 C690 1.396 . S
C691 C692 1.399 . S
C692 H678 0.929 . S
C692 C691 1.399 . S
C692 C693 1.385 . S
C693 H679 0.931 . S
C693 C692 1.385 . S
C693 C694 1.389 . S
C694 C693 1.389 . S
C694 C695 1.387 . S
C695 H680 0.930 . S
C695 C690 1.390 . S
C695 C694 1.387 . S
H696 C708 0.930 . S
H697 C710 0.930 . S
H698 C711 0.930 . S
H699 C715 0.959 . S
H700 C715 0.959 . S
H701 C715 0.961 . S
H702 C716 0.960 . S
H703 C716 0.961 . S
H704 C716 0.959 . S
H705 C719 0.929 . S
H706 C720 0.931 . S
H707 C722 0.930 . S
C708 H696 0.930 . S
C708 C709 1.399 . S
C708 C713 1.399 . S
C709 C708 1.399 . S
C709 C710 1.376 . S
C710 H697 0.930 . S
C710 C709 1.376 . S
C710 C711 1.388 . S
C711 H698 0.930 . S
C711 C710 1.388 . S
C711 C712 1.390 . S
C712 C711 1.390 . S
C712 C713 1.394 . S
C712 C718 1.465 . S
C713 C708 1.399 . S
C713 C712 1.394 . S
C713 C714 1.516 . S
C714 C713 1.516 . S
C714 C715 1.502 . S
C714 C716 1.561 . S
C714 C717 1.526 . S
C715 H699 0.959 . S
C715 H700 0.959 . S
C715 H701 0.961 . S
C715 C714 1.502 . S
C716 H702 0.960 . S
C716 H703 0.961 . S
C716 H704 0.959 . S
C716 C714 1.561 . S
C717 C714 1.526 . S
C717 C718 1.396 . S
C717 C722 1.390 . S
C718 C712 1.465 . S
C718 C717 1.396 . S
C718 C719 1.399 . S
C719 H705 0.929 . S
C719 C718 1.399 . S
C719 C720 1.385 . S
C720 H706 0.931 . S
C720 C719 1.385 . S
C720 C721 1.389 . S
C721 C720 1.389 . S
C721 C722 1.387 . S
C722 H707 0.930 . S
C722 C717 1.390 . S
C722 C721 1.387 . S
H723 C735 0.930 . S
H724 C737 0.921 1_556 S
H725 C738 0.930 . S
H726 C742 0.959 . S
H727 C742 0.959 . S
H728 C742 0.961 . S
H729 C743 0.960 . S
H730 C743 0.961 . S
H731 C743 0.959 . S
H732 C746 0.929 . S
H733 C747 0.931 . S
H734 C749 0.930 . S
C735 H723 0.930 . S
C735 C736 1.399 . S
C735 C740 1.399 . S
C736 C735 1.399 . S
C736 C737 1.376 . S
C737 H724 0.921 1_554 S
C737 C736 1.376 . S
C737 C738 1.388 . S
C738 H725 0.930 . S
C738 C737 1.388 . S
C738 C739 1.390 . S
C739 C738 1.390 . S
C739 C740 1.394 . S
C739 C745 1.465 . S
C740 C735 1.399 . S
C740 C739 1.394 . S
C740 C741 1.516 . S
C741 C740 1.516 . S
C741 C742 1.502 . S
C741 C743 1.561 . S
C741 C744 1.526 . S
C742 H726 0.959 . S
C742 H727 0.959 . S
C742 H728 0.961 . S
C742 C741 1.502 . S
C743 H729 0.960 . S
C743 H730 0.961 . S
C743 H731 0.959 . S
C743 C741 1.561 . S
C744 C741 1.526 . S
C744 C745 1.396 . S
C744 C749 1.390 . S
C745 C739 1.465 . S
C745 C744 1.396 . S
C745 C746 1.399 . S
C746 H732 0.929 . S
C746 C745 1.399 . S
C746 C747 1.385 . S
C747 H733 0.931 . S
C747 C746 1.385 . S
C747 C748 1.389 . S
C748 C747 1.389 . S
C748 C749 1.387 . S
C749 H734 0.930 . S
C749 C744 1.390 . S
C749 C748 1.387 . S
H750 C762 0.930 . S
H751 C764 0.930 . S
H752 C765 0.930 . S
H753 C769 0.959 . S
H754 C769 0.959 . S
H755 C769 0.961 . S
H756 C770 0.960 . S
H757 C770 0.961 . S
H758 C770 0.959 . S
H759 C773 0.929 . S
H760 C774 0.931 . S
H761 C776 0.930 . S
C762 H750 0.930 . S
C762 C763 1.399 . S
C762 C767 1.399 . S
C763 C762 1.399 . S
C763 C764 1.376 . S
C764 H751 0.930 . S
C764 C763 1.376 . S
C764 C765 1.388 . S
C765 H752 0.930 . S
C765 C764 1.388 . S
C765 C766 1.390 . S
C766 C765 1.390 . S
C766 C767 1.394 . S
C766 C772 1.465 . S
C767 C762 1.399 . S
C767 C766 1.394 . S
C767 C768 1.516 . S
C768 C767 1.516 . S
C768 C769 1.502 . S
C768 C770 1.561 . S
C768 C771 1.526 . S
C769 H753 0.959 . S
C769 H754 0.959 . S
C769 H755 0.961 . S
C769 C768 1.502 . S
C770 H756 0.960 . S
C770 H757 0.961 . S
C770 H758 0.959 . S
C770 C768 1.561 . S
C771 C768 1.526 . S
C771 C772 1.396 . S
C771 C776 1.390 . S
C772 C766 1.465 . S
C772 C771 1.396 . S
C772 C773 1.399 . S
C773 H759 0.929 . S
C773 C772 1.399 . S
C773 C774 1.385 . S
C774 H760 0.931 . S
C774 C773 1.385 . S
C774 C775 1.389 . S
C775 C774 1.389 . S
C775 C776 1.387 . S
C776 H761 0.930 . S
C776 C771 1.390 . S
C776 C775 1.387 . S
H777 C789 0.930 . S
H778 C791 0.930 . S
H779 C792 0.930 . S
H780 C796 0.959 . S
H781 C796 0.959 . S
H782 C796 0.961 . S
H783 C797 0.960 . S
H784 C797 0.961 . S
H785 C797 0.959 . S
H786 C800 0.929 . S
H787 C801 0.931 . S
H788 C803 0.930 . S
C789 H777 0.930 . S
C789 C790 1.399 . S
C789 C794 1.399 . S
C790 C789 1.399 . S
C790 C791 1.376 . S
C791 H778 0.930 . S
C791 C790 1.376 . S
C791 C792 1.388 . S
C792 H779 0.930 . S
C792 C791 1.388 . S
C792 C793 1.390 . S
C793 C792 1.390 . S
C793 C794 1.394 . S
C793 C799 1.465 . S
C794 C789 1.399 . S
C794 C793 1.394 . S
C794 C795 1.516 . S
C795 C794 1.516 . S
C795 C796 1.502 . S
C795 C797 1.561 . S
C795 C798 1.526 . S
C796 H780 0.959 . S
C796 H781 0.959 . S
C796 H782 0.961 . S
C796 C795 1.502 . S
C797 H783 0.960 . S
C797 H784 0.961 . S
C797 H785 0.959 . S
C797 C795 1.561 . S
C798 C795 1.526 . S
C798 C799 1.396 . S
C798 C803 1.390 . S
C799 C793 1.465 . S
C799 C798 1.396 . S
C799 C800 1.399 . S
C800 H786 0.929 . S
C800 C799 1.399 . S
C800 C801 1.385 . S
C801 H787 0.931 . S
C801 C800 1.385 . S
C801 C802 1.389 . S
C802 C801 1.389 . S
C802 C803 1.387 . S
C803 H788 0.930 . S
C803 C798 1.390 . S
C803 C802 1.387 . S
H804 C816 0.930 . S
H805 C818 0.930 . S
H806 C819 0.930 . S
H807 C823 0.959 . S
H808 C823 0.959 . S
H809 C823 0.961 . S
H810 C824 0.960 . S
H811 C824 0.961 . S
H812 C824 0.959 . S
H813 C827 0.929 . S
H814 C828 0.931 . S
H815 C830 0.930 . S
C816 H804 0.930 . S
C816 C817 1.399 . S
C816 C821 1.399 . S
C817 C816 1.399 . S
C817 C818 1.376 . S
C818 H805 0.930 . S
C818 C817 1.376 . S
C818 C819 1.388 . S
C819 H806 0.930 . S
C819 C818 1.388 . S
C819 C820 1.390 . S
C820 C819 1.390 . S
C820 C821 1.394 . S
C820 C826 1.465 . S
C821 C816 1.399 . S
C821 C820 1.394 . S
C821 C822 1.516 . S
C822 C821 1.516 . S
C822 C823 1.502 . S
C822 C824 1.561 . S
C822 C825 1.526 . S
C823 H807 0.959 . S
C823 H808 0.959 . S
C823 H809 0.961 . S
C823 C822 1.502 . S
C824 H810 0.960 . S
C824 H811 0.961 . S
C824 H812 0.959 . S
C824 C822 1.561 . S
C825 C822 1.526 . S
C825 C826 1.396 . S
C825 C830 1.390 . S
C826 C820 1.465 . S
C826 C825 1.396 . S
C826 C827 1.399 . S
C827 H813 0.929 . S
C827 C826 1.399 . S
C827 C828 1.385 . S
C828 H814 0.931 . S
C828 C827 1.385 . S
C828 C829 1.389 . S
C829 C828 1.389 . S
C829 C830 1.387 . S
C830 H815 0.930 . S
C830 C825 1.390 . S
C830 C829 1.387 . S
H831 C843 0.930 . S
H832 C845 0.930 . S
H833 C846 0.930 . S
H834 C850 0.959 . S
H835 C850 0.959 . S
H836 C850 0.961 . S
H837 C851 0.960 . S
H838 C851 0.961 . S
H839 C851 0.959 . S
H840 C854 0.929 . S
H841 C855 0.931 . S
H842 C857 0.930 . S
C843 H831 0.930 . S
C843 C844 1.399 . S
C843 C848 1.399 . S
C844 C843 1.399 . S
C844 C845 1.376 . S
C845 H832 0.930 . S
C845 C844 1.376 . S
C845 C846 1.388 . S
C846 H833 0.930 . S
C846 C845 1.388 . S
C846 C847 1.390 . S
C847 C846 1.390 . S
C847 C848 1.394 . S
C847 C853 1.465 . S
C848 C843 1.399 . S
C848 C847 1.394 . S
C848 C849 1.516 . S
C849 C848 1.516 . S
C849 C850 1.502 . S
C849 C851 1.561 . S
C849 C852 1.526 . S
C850 H834 0.959 . S
C850 H835 0.959 . S
C850 H836 0.961 . S
C850 C849 1.502 . S
C851 H837 0.960 . S
C851 H838 0.961 . S
C851 H839 0.959 . S
C851 C849 1.561 . S
C852 C849 1.526 . S
C852 C853 1.396 . S
C852 C857 1.390 . S
C853 C847 1.465 . S
C853 C852 1.396 . S
C853 C854 1.399 . S
C854 H840 0.929 . S
C854 C853 1.399 . S
C854 C855 1.385 . S
C855 H841 0.931 . S
C855 C854 1.385 . S
C855 C856 1.389 . S
C856 C855 1.389 . S
C856 C857 1.387 . S
C857 H842 0.930 . S
C857 C852 1.390 . S
C857 C856 1.387 . S
C223 C13 1.585 . S
C235 C93 1.388 . S
C250 C27 1.611 . S
C262 C114 1.437 . S
C289 C135 1.364 . S
C277 C29 1.591 . S
C316 C164 1.540 . S
C304 C54 1.635 . S
C343 C177 1.364 . S
C331 C69 1.585 . S
C370 C201 1.552 . S
C358 C83 1.602 . S
C385 C15 1.573 . S
C397 C145 1.390 . S
C412 C41 1.607 . S
C424 C159 1.554 . S
C451 C187 1.493 . S
C439 C42 1.562 . S
C478 C206 1.568 . S
C466 C57 1.631 . S
C493 C71 1.586 . S
C505 C103 1.387 . S
C532 C124 1.418 . S
C520 C1 1.620 . S
C559 C166 1.572 . S
C547 C12 1.607 . S
C574 C26 1.641 . S
C586 C180 1.479 . S
C613 C198 1.503 . S
C601 C28 1.612 . S
C628 C55 1.651 . S
C640 C96 1.505 . S
C655 C68 1.613 . S
C667 C117 1.481 . S
C682 C82 1.643 . S
C694 C138 1.430 . S
C709 C14 1.590 . S
C721 C208 1.510 . S
C748 C101 1.519 . S
C736 C40 1.652 . S
C763 C43 1.625 . S
C775 C122 1.452 . S
C790 C56 1.648 . S
C802 C143 1.475 . S
C817 C70 1.620 . S
C829 C156 1.572 . S
C844 C0 1.662 . S
C856 C185 1.415 . S
