# Generated by pormake.
# Topology anh, (6,3)-cn, num edge types: 1
# Building blocks:
#     Node 0, Type 0, BuildingBlock: BETGAK_clean_sbu_0, # of connection points: 6
#     Node 1, Type 0, BuildingBlock: BETGAK_clean_sbu_0, # of connection points: 6
#     Node 2, Type 0, BuildingBlock: BETGAK_clean_sbu_0, # of connection points: 6
#     Node 3, Type 1, BuildingBlock: QEWDON_clean_linker_0, # of connection points: 3
#     Node 4, Type 1, BuildingBlock: QEWDON_clean_linker_0, # of connection points: 3
#     Node 5, Type 1, BuildingBlock: QEWDON_clean_linker_0, # of connection points: 3
#     Node 6, Type 1, BuildingBlock: QEWDON_clean_linker_0, # of connection points: 3
#     Node 7, Type 1, BuildingBlock: QEWDON_clean_linker_0, # of connection points: 3
#     Node 8, Type 1, BuildingBlock: QEWDON_clean_linker_0, # of connection points: 3
#     Edge 9, Type (0, 1), BuildingBlock: KIFKEQ_clean_linker_1, # of connection points: 2
#     Edge 10, Type (0, 1), BuildingBlock: KIFKEQ_clean_linker_1, # of connection points: 2
#     Edge 11, Type (0, 1), BuildingBlock: KIFKEQ_clean_linker_1, # of connection points: 2
#     Edge 12, Type (0, 1), BuildingBlock: KIFKEQ_clean_linker_1, # of connection points: 2
#     Edge 13, Type (0, 1), BuildingBlock: KIFKEQ_clean_linker_1, # of connection points: 2
#     Edge 14, Type (0, 1), BuildingBlock: KIFKEQ_clean_linker_1, # of connection points: 2
#     Edge 15, Type (0, 1), BuildingBlock: KIFKEQ_clean_linker_1, # of connection points: 2
#     Edge 16, Type (0, 1), BuildingBlock: KIFKEQ_clean_linker_1, # of connection points: 2
#     Edge 17, Type (0, 1), BuildingBlock: KIFKEQ_clean_linker_1, # of connection points: 2
#     Edge 18, Type (0, 1), BuildingBlock: KIFKEQ_clean_linker_1, # of connection points: 2
#     Edge 19, Type (0, 1), BuildingBlock: KIFKEQ_clean_linker_1, # of connection points: 2
#     Edge 20, Type (0, 1), BuildingBlock: KIFKEQ_clean_linker_1, # of connection points: 2
#     Edge 21, Type (0, 1), BuildingBlock: KIFKEQ_clean_linker_1, # of connection points: 2
#     Edge 22, Type (0, 1), BuildingBlock: KIFKEQ_clean_linker_1, # of connection points: 2
#     Edge 23, Type (0, 1), BuildingBlock: KIFKEQ_clean_linker_1, # of connection points: 2
#     Edge 24, Type (0, 1), BuildingBlock: KIFKEQ_clean_linker_1, # of connection points: 2
#     Edge 25, Type (0, 1), BuildingBlock: KIFKEQ_clean_linker_1, # of connection points: 2
#     Edge 26, Type (0, 1), BuildingBlock: KIFKEQ_clean_linker_1, # of connection points: 2
# Relax obj value: 0.136
# Max RMSD: 0.171
# Mean RMSD: 0.126
data_MOF--net-anh--node1-BETGAK_clean_sbu_0--node2-QEWDON_clean_linker_0--edge1-KIFKEQ_clean_linker_1
_symmetry_space_group_name_H-M    P1
_symmetry_Int_Tables_number       1
_symmetry_cell_setting            triclinic
loop_
_symmetry_equiv_pos_as_xyz
'x, y, z'
_cell_length_a     32.360441
_cell_length_b     39.632236
_cell_length_c     49.036227
_cell_angle_alpha  96.23334
_cell_angle_beta   91.523496
_cell_angle_gamma 129.47544
loop_
_atom_site_label
_atom_site_type_symbol
_atom_site_fract_x
_atom_site_fract_y
_atom_site_fract_z
_atom_type_partial_charge
La0 La 0.13489 0.51342 0.14258 0.0
La1 La 1.07789 0.54298 0.16905 0.0
C2 C 0.19349 0.51044 0.11188 0.0
C3 C 0.25143 0.54575 0.11088 0.0
C4 C 0.28539 0.57369 0.13538 0.0
C5 C 0.33886 0.61061 0.13451 0.0
C6 C 0.35951 0.62081 0.1091 0.0
C7 C 0.32568 0.59256 0.08454 0.0
C8 C 0.27189 0.55535 0.08544 0.0
C9 C 0.14051 0.52033 0.19682 0.0
C10 C 0.19666 0.61786 0.16094 0.0
C11 C 1.02262 0.54967 0.20052 0.0
C12 C 0.96452 0.52516 0.2006 0.0
C13 C 0.9313 0.51141 0.1759 0.0
C14 C 0.8779 0.49349 0.17644 0.0
C15 C 0.85611 0.4882 0.20169 0.0
C16 C 0.88826 0.49803 0.22613 0.0
C17 C 0.94221 0.51676 0.22558 0.0
C18 C 1.07388 0.53785 0.1149 0.0
C19 C 1.01617 0.4385 0.15173 0.0
O20 O 0.18042 0.49337 0.13472 0.0
O21 O 0.16316 0.51957 0.10386 0.0
O22 O 0.1402 0.49174 0.18099 0.0
O23 O 0.14253 0.54557 0.18246 0.0
O24 O 0.19324 0.5866 0.14503 0.0
O25 O 0.15838 0.60729 0.17646 0.0
O26 O 1.04448 0.57269 0.1804 0.0
O27 O 1.03922 0.52785 0.20497 0.0
O28 O 1.07377 0.56586 0.13109 0.0
O29 O 1.07078 0.51169 0.12886 0.0
O30 O 1.01891 0.47042 0.16601 0.0
O31 O 1.0554 0.44768 0.13734 0.0
H32 H 0.27035 0.56761 0.15528 0.0
H33 H 0.36409 0.63112 0.15384 0.0
H34 H 0.34053 0.59964 0.06466 0.0
H35 H 0.24597 0.53467 0.06629 0.0
H36 H 0.94731 0.51658 0.15624 0.0
H37 H 0.85531 0.487 0.1571 0.0
H38 H 0.87269 0.49334 0.24587 0.0
H39 H 0.96703 0.5262 0.2448 0.0
La40 La 0.70507 0.06772 0.48299 0.0
La41 La 0.62963 0.08374 0.46688 0.0
C42 C 0.7483 0.04192 0.50688 0.0
C43 C 0.7328 0.99837 0.50864 0.0
C44 C 0.70109 0.96307 0.48656 0.0
C45 C 0.68617 0.92178 0.48859 0.0
C46 C 0.70208 0.9147 0.51288 0.0
C47 C 0.73358 0.95022 0.53502 0.0
C48 C 0.74881 0.99164 0.53287 0.0
C49 C 0.69189 0.06829 0.42979 0.0
C50 C 0.57785 0.98575 0.46778 0.0
C51 C 0.5844 0.11032 0.44648 0.0
C52 C 0.59051 0.15088 0.45257 0.0
C53 C 0.55263 0.14953 0.46694 0.0
C54 C 0.55876 0.18769 0.47407 0.0
C55 C 0.60257 0.22824 0.46669 0.0
C56 C 0.63998 0.22942 0.4518 0.0
C57 C 0.63404 0.19118 0.44482 0.0
C58 C 0.64235 0.08258 0.51993 0.0
C59 C 0.75774 0.16526 0.47944 0.0
O60 O 0.75853 0.05464 0.48266 0.0
O61 O 0.71884 0.04972 0.51879 0.0
O62 O 0.73614 0.08111 0.44294 0.0
O63 O 0.656 0.05222 0.44571 0.0
O64 O 0.62476 1.00185 0.48105 0.0
O65 O 0.57276 1.01167 0.45597 0.0
O66 O 0.56585 0.08502 0.46556 0.0
O67 O 0.62384 0.11414 0.43609 0.0
O68 O 0.59825 0.0694 0.50659 0.0
O69 O 0.67864 0.09939 0.50423 0.0
O70 O 0.7097 0.14916 0.46785 0.0
O71 O 0.76445 0.13987 0.49065 0.0
H72 H 0.68787 0.9674 0.4677 0.0
H73 H 0.66262 0.89557 0.47094 0.0
H74 H 0.74586 0.94591 0.5542 0.0
H75 H 0.77285 1.01839 0.55024 0.0
H76 H 0.51853 0.11896 0.4731 0.0
H77 H 0.52957 0.18548 0.48593 0.0
H78 H 0.67377 0.25983 0.44538 0.0
H79 H 0.66374 0.19335 0.43351 0.0
La80 La 0.69912 0.61534 0.83785 0.0
La81 La 0.62374 0.52188 0.84616 0.0
C82 C 0.74104 0.68641 0.81928 0.0
C83 C 0.72605 0.71399 0.8158 0.0
C84 C 0.69513 0.71647 0.8341 0.0
C85 C 0.6814 0.74293 0.83055 0.0
C86 C 0.6979 0.76718 0.80846 0.0
C87 C 0.72852 0.76419 0.79006 0.0
C88 C 0.74249 0.7379 0.79374 0.0
C89 C 0.70091 0.60378 0.88932 0.0
C90 C 0.5748 0.56928 0.84702 0.0
C91 C 0.58131 0.44787 0.86054 0.0
C92 C 0.59059 0.41639 0.85293 0.0
C93 C 0.62567 0.42478 0.83338 0.0
C94 C 0.63397 0.39481 0.8254 0.0
C95 C 0.60631 0.35507 0.83628 0.0
C96 C 0.57124 0.34687 0.85603 0.0
C97 C 0.56362 0.37739 0.86434 0.0
C98 C 0.62493 0.53402 0.79426 0.0
C99 C 0.75008 0.56969 0.84106 0.0
O100 O 0.75206 0.68479 0.84472 0.0
O101 O 0.71094 0.64734 0.80376 0.0
O102 O 0.74289 0.63448 0.87858 0.0
O103 O 0.65925 0.58289 0.87205 0.0
O104 O 0.61997 0.60098 0.83721 0.0
O105 O 0.57018 0.53667 0.85593 0.0
O106 O 0.56009 0.45321 0.84019 0.0
O107 O 0.62175 0.48584 0.87538 0.0
O108 O 0.5824 0.50334 0.80452 0.0
O109 O 0.66514 0.55446 0.81235 0.0
O110 O 0.70257 0.53615 0.84797 0.0
O111 O 0.75714 0.60392 0.83323 0.0
H112 H 0.68175 0.6981 0.85122 0.0
H113 H 0.6584 0.74477 0.84535 0.0
H114 H 0.74113 0.78168 0.77255 0.0
H115 H 0.76601 0.73611 0.77928 0.0
H116 H 0.64631 0.45438 0.824 0.0
H117 H 0.66208 0.40288 0.8106 0.0
H118 H 0.54865 0.31643 0.8646 0.0
H119 H 0.53605 0.3702 0.87932 0.0
H120 H 0.63731 0.06921 0.21365 0.0
C121 C 0.60791 0.03407 0.20574 0.0
C122 C 0.59259 1.00376 0.22387 0.0
C123 C 0.58438 0.01928 0.17793 0.0
H124 H 0.53974 0.9349 0.22848 0.0
C125 C 0.55299 0.95817 0.21421 0.0
C126 C 0.52748 0.94249 0.18694 0.0
C127 C 0.54393 0.97308 0.16882 0.0
C128 C 0.59919 0.05193 0.15902 0.0
H129 H 0.52486 0.96053 0.14762 0.0
C130 C 0.65184 0.09377 0.16145 0.0
C131 C 0.66381 0.12486 0.14438 0.0
C132 C 0.55947 0.04191 0.13886 0.0
H133 H 0.51833 1.01117 0.13676 0.0
C134 C 0.57164 0.07191 0.12146 0.0
H135 H 0.68321 0.10255 0.17681 0.0
C136 C 0.62316 0.11295 0.12416 0.0
H137 H 0.63118 0.1356 0.11039 0.0
H138 H 0.54062 0.06353 0.10602 0.0
H139 H 0.60759 0.56731 0.58404 0.0
C140 C 0.61555 0.54697 0.57323 0.0
C141 C 0.62939 0.52653 0.58831 0.0
C142 C 0.60676 0.5377 0.54421 0.0
H143 H 0.64549 0.48136 0.58572 0.0
C144 C 0.63637 0.49803 0.57402 0.0
C145 C 0.62872 0.48897 0.54497 0.0
C146 C 0.61449 0.50949 0.53029 0.0
C147 C 0.58149 0.55156 0.52843 0.0
H148 H 0.60781 0.50262 0.5079 0.0
C149 C 0.60464 0.59635 0.53047 0.0
C150 C 0.57959 0.60828 0.51487 0.0
C151 C 0.53273 0.51885 0.51122 0.0
H152 H 0.51389 0.48418 0.50958 0.0
C153 C 0.50723 0.53032 0.49636 0.0
H154 H 0.64261 0.6217 0.54344 0.0
C155 C 0.53028 0.57456 0.49816 0.0
H156 H 0.5091 0.58231 0.48655 0.0
H157 H 0.46935 0.50479 0.48341 0.0
H158 H 0.17904 0.56941 0.90676 0.0
C159 C 0.14629 0.56642 0.89692 0.0
C160 C 0.10532 0.55698 0.91263 0.0
C161 C 0.14577 0.57289 0.86921 0.0
H162 H 1.03383 0.54948 0.91394 0.0
C163 C 1.06356 0.55487 0.90099 0.0
C164 C 1.06061 0.56144 0.87367 0.0
C165 C 1.10194 0.57018 0.8578 0.0
C166 C 0.19271 0.58538 0.85325 0.0
H167 H 1.09903 0.57407 0.83653 0.0
C168 C 0.2276 0.57557 0.8598 0.0
C169 C 0.27361 0.5915 0.84555 0.0
C170 C 0.20519 0.61036 0.83185 0.0
H171 H 0.18224 0.62038 0.82643 0.0
C172 C 0.2489 0.62466 0.81747 0.0
H173 H 0.21996 0.55648 0.87601 0.0
C174 C 0.28265 0.61561 0.82424 0.0
H175 H 0.31658 0.62792 0.81272 0.0
H176 H 0.25737 0.64383 0.80114 0.0
H177 H 0.12071 0.5376 0.41528 0.0
C178 C 0.15879 0.57032 0.42263 0.0
C179 C 0.19538 0.59356 0.40367 0.0
C180 C 0.17055 0.58949 0.45064 0.0
H181 H 0.27103 0.65504 0.39763 0.0
C182 C 0.24393 0.63664 0.4126 0.0
C183 C 0.25608 0.6573 0.4401 0.0
C184 C 0.21961 0.63332 0.45908 0.0
C185 C 0.13062 0.56468 0.47063 0.0
H186 H 0.22993 0.649 0.48045 0.0
C187 C 1.09643 0.51783 0.46815 0.0
C188 C 1.05881 0.49513 0.48708 0.0
C189 C 0.12561 0.58795 0.49221 0.0
H190 H 0.14934 0.62347 0.4944 0.0
C191 C 1.08888 0.56569 0.51101 0.0
H192 H 1.09958 0.49899 0.45194 0.0
C193 C 1.05587 0.51979 0.50856 0.0
H194 H 1.02701 0.50342 0.52318 0.0
H195 H 1.08553 0.58414 0.52742 0.0
H196 H 0.63041 0.02613 0.73034 0.0
C197 C 0.63471 0.05435 0.73987 0.0
C198 C 0.65075 0.08815 0.72456 0.0
C199 C 0.62136 0.05558 0.76685 0.0
H200 H 0.66412 0.14896 0.72479 0.0
C201 C 0.65384 0.1236 0.73671 0.0
C202 C 0.64101 0.12557 0.76363 0.0
C203 C 0.62597 0.092 0.77876 0.0
C204 C 0.59671 1.0167 0.78135 0.0
H205 H 0.61529 0.09318 0.7994 0.0
C206 C 0.61575 0.99297 0.78038 0.0
C207 C 0.58943 0.95453 0.79269 0.0
C208 C 0.55156 1.00167 0.79518 0.0
H209 H 0.53505 1.01839 0.79582 0.0
C210 C 0.526 0.96404 0.80768 0.0
H211 H 0.65038 1.00394 0.7698 0.0
C212 C 0.54457 0.94048 0.80638 0.0
H213 H 0.52398 0.91131 0.81624 0.0
H214 H 0.49126 0.95281 0.81818 0.0
H215 H 0.73529 0.69436 0.09655 0.0
C216 C 0.72939 0.6709 0.10897 0.0
C217 C 0.71625 0.63128 0.09599 0.0
C218 C 0.7353 0.68078 0.13785 0.0
H219 H 0.69988 0.57108 0.10249 0.0
C220 C 0.70803 0.60094 0.11232 0.0
C221 C 0.71393 0.61039 0.14134 0.0
C222 C 0.7274 0.65037 0.15391 0.0
C223 C 0.74769 0.72221 0.15102 0.0
H224 H 0.73122 0.65767 0.17623 0.0
C225 C 0.71803 0.73378 0.14094 0.0
C226 C 0.72637 0.77138 0.15381 0.0
C227 C 0.78723 0.74942 0.17399 0.0
H228 H 0.81089 0.74129 0.1821 0.0
C229 C 0.79645 0.78744 0.18664 0.0
H230 H 0.68597 0.71187 0.12393 0.0
C231 C 0.76574 0.79819 0.17683 0.0
H232 H 0.77209 0.82689 0.18737 0.0
H233 H 0.82681 0.80817 0.2044 0.0
H234 H 0.43132 0.62524 0.0783 0.0
H235 H 0.41795 0.7036 0.13969 0.0
H236 H 0.52869 0.68235 0.08532 0.0
H237 H 0.51579 0.76152 0.14644 0.0
H238 H 0.66504 0.77878 0.1861 0.0
H239 H 0.57917 0.75838 0.17003 0.0
H240 H 0.61317 0.75562 0.08551 0.0
H241 H 0.69894 0.77512 0.10185 0.0
C242 C 0.44907 0.65545 0.09254 0.0
C243 C 0.41705 0.65956 0.10881 0.0
C244 C 0.50508 0.68848 0.0965 0.0
C245 C 0.53019 0.72639 0.11674 0.0
C246 C 0.49775 0.73241 0.13104 0.0
C247 C 0.44173 0.69922 0.12718 0.0
C248 C 0.65536 0.77599 0.16422 0.0
C249 C 0.68781 0.77753 0.14515 0.0
C250 C 0.60599 0.76424 0.15491 0.0
C251 C 0.58861 0.75408 0.12638 0.0
C252 C 0.62487 0.7621 0.10757 0.0
C253 C 0.67406 0.77356 0.1169 0.0
H254 H 0.86082 0.21436 0.50608 0.0
H255 H 0.76119 0.22479 0.45365 0.0
H256 H 0.93717 0.29275 0.50645 0.0
H257 H 0.8372 0.3029 0.45417 0.0
H258 H 0.9965 0.43324 0.44053 0.0
H259 H 0.92644 0.3529 0.43771 0.0
H260 H 0.96456 0.36547 0.52519 0.0
H261 H 1.03475 0.44538 0.52787 0.0
C262 C 0.8551 0.23326 0.49464 0.0
C263 C 0.8046 0.21308 0.47993 0.0
C264 C 0.8989 0.2783 0.4949 0.0
C265 C 0.89352 0.30424 0.48025 0.0
C266 C 0.84315 0.2839 0.46536 0.0
C267 C 0.79931 0.23906 0.46528 0.0
C268 C 0.99056 0.41869 0.45902 0.0
C269 C 1.02108 0.44578 0.48444 0.0
C270 C 0.95001 0.37271 0.45749 0.0
C271 C 0.93944 0.35264 0.48128 0.0
C272 C 0.97165 0.37961 0.50642 0.0
C273 C 1.01172 0.42551 0.508 0.0
H274 H 0.75898 0.84834 0.79121 0.0
H275 H 0.60294 0.7497 0.81693 0.0
H276 H 0.73389 0.89349 0.7844 0.0
H277 H 0.5793 0.796 0.81187 0.0
H278 H 0.52836 0.86573 0.77656 0.0
H279 H 0.55554 0.82104 0.77829 0.0
H280 H 0.71879 0.93945 0.80877 0.0
H281 H 0.69148 0.98421 0.80602 0.0
C282 C 0.71929 0.83619 0.79538 0.0
C283 C 0.683 0.79522 0.80459 0.0
C284 C 0.70517 0.86243 0.79183 0.0
C285 C 0.65448 0.8485 0.79751 0.0
C286 C 0.61834 0.8076 0.80681 0.0
C287 C 0.63228 0.78126 0.81016 0.0
C288 C 0.57014 0.88216 0.78342 0.0
C289 C 0.60775 0.92836 0.79134 0.0
C290 C 0.58571 0.85656 0.78461 0.0
C291 C 0.63923 0.87643 0.7941 0.0
C292 C 0.67733 0.92295 0.80115 0.0
C293 C 0.66177 0.94866 0.79963 0.0
H294 H 0.82882 0.52101 0.24322 0.0
H295 H 0.76591 0.43885 0.16265 0.0
H296 H 0.76706 0.53502 0.23671 0.0
H297 H 0.70875 0.45731 0.15488 0.0
H298 H 0.64154 0.51927 0.13421 0.0
H299 H 0.64912 0.47176 0.15774 0.0
H300 H 0.79033 0.58832 0.20991 0.0
H301 H 0.78201 0.63469 0.187 0.0
C302 C 0.80088 0.50469 0.22439 0.0
C303 C 0.80504 0.48106 0.20266 0.0
C304 C 0.76576 0.51337 0.22051 0.0
C305 C 0.73576 0.5 0.19456 0.0
C306 C 0.73244 0.46949 0.1749 0.0
C307 C 0.76619 0.4595 0.17917 0.0
C308 C 0.67345 0.5344 0.15113 0.0
C309 C 0.71167 0.58075 0.15848 0.0
C310 C 0.67772 0.50722 0.16467 0.0
C311 C 0.72063 0.52597 0.18561 0.0
C312 C 0.75605 0.57217 0.1943 0.0
C313 C 0.75157 0.59912 0.18095 0.0
H314 H 0.47138 0.94217 0.45064 0.0
H315 H 0.57843 0.9198 0.47915 0.0
H316 H 0.39488 0.86298 0.4466 0.0
H317 H 0.50198 0.84068 0.47497 0.0
H318 H 0.35921 0.69761 0.42888 0.0
H319 H 0.43715 0.7768 0.43696 0.0
H320 H 0.34165 0.80411 0.47669 0.0
H321 H 0.26359 0.72476 0.46856 0.0
C322 C 0.47867 0.92042 0.45602 0.0
C323 C 0.53119 0.93748 0.46513 0.0
C324 C 0.43472 0.87504 0.45391 0.0
C325 C 0.44222 0.84544 0.46052 0.0
C326 C 0.49478 0.86248 0.46955 0.0
C327 C 0.53862 0.90792 0.47202 0.0
C328 C 0.35505 0.7205 0.43962 0.0
C329 C 0.30519 0.70486 0.44809 0.0
C330 C 0.39976 0.76587 0.44434 0.0
C331 C 0.3956 0.79689 0.45732 0.0
C332 C 0.34608 0.78116 0.46639 0.0
C333 C 0.30153 0.73567 0.46201 0.0
H334 H 0.61911 0.33397 0.78384 0.0
H335 H 0.60822 0.30065 0.86587 0.0
H336 H 0.63136 0.28136 0.76739 0.0
H337 H 0.61651 0.24532 0.84882 0.0
H338 H 0.68305 0.17802 0.81467 0.0
H339 H 0.67649 0.2343 0.83277 0.0
H340 H 0.58236 0.20502 0.75612 0.0
H341 H 0.59068 0.1503 0.73797 0.0
C342 C 0.61945 0.31554 0.79847 0.0
C343 C 0.61292 0.32195 0.8263 0.0
C344 C 0.6256 0.28466 0.78887 0.0
C345 C 0.62454 0.25864 0.80666 0.0
C346 C 0.6181 0.26501 0.83453 0.0
C347 C 0.61252 0.29635 0.84424 0.0
C348 C 0.66119 0.18391 0.80176 0.0
C349 C 0.63797 0.16022 0.77481 0.0
C350 C 0.6571 0.21594 0.81215 0.0
C351 C 0.62913 0.22456 0.7959 0.0
C352 C 0.60539 0.20026 0.76905 0.0
C353 C 0.61002 0.16874 0.75861 0.0
H354 H 0.60598 0.83272 0.49232 0.0
H355 H 0.76084 0.89605 0.53844 0.0
H356 H 0.58081 0.76058 0.49357 0.0
H357 H 0.73449 0.82334 0.5404 0.0
H358 H 0.63127 0.67604 0.55948 0.0
H359 H 0.66356 0.7514 0.56026 0.0
H360 H 0.61446 0.72184 0.47243 0.0
H361 H 0.58378 0.64753 0.47139 0.0
C362 C 0.63484 0.8314 0.50261 0.0
C363 C 0.68577 0.87046 0.51499 0.0
C364 C 0.62024 0.78997 0.50343 0.0
C365 C 0.65585 0.78637 0.51691 0.0
C366 C 0.70613 0.82514 0.53001 0.0
C367 C 0.72107 0.86676 0.52893 0.0
C368 C 0.62824 0.68589 0.54028 0.0
C369 C 0.60405 0.65541 0.51546 0.0
C370 C 0.64655 0.72896 0.54076 0.0
C371 C 0.64063 0.74217 0.51648 0.0
C372 C 0.61841 0.71227 0.49157 0.0
C373 C 0.60071 0.66962 0.49103 0.0
H374 H 0.74444 0.49791 0.84423 0.0
H375 H 0.86028 0.63746 0.84074 0.0
H376 H 0.81617 0.49411 0.84739 0.0
H377 H 0.93347 0.6346 0.8456 0.0
H378 H 1.06028 0.61592 0.8418 0.0
H379 H 0.98692 0.61748 0.83133 0.0
H380 H 0.88294 0.50603 0.87389 0.0
H381 H 0.95414 0.50296 0.88245 0.0
C382 C 0.7854 0.52809 0.8443 0.0
C383 C 0.79574 0.568 0.84222 0.0
C384 C 0.82737 0.52609 0.84646 0.0
C385 C 0.88221 0.56417 0.84731 0.0
C386 C 0.89247 0.60413 0.84481 0.0
C387 C 0.85013 0.60593 0.84215 0.0
C388 C 1.0213 0.59109 0.8483 0.0
C389 C 1.0141 0.55952 0.86324 0.0
C390 C 0.97899 0.59237 0.84269 0.0
C391 C 0.92769 0.56211 0.85177 0.0
C392 C 0.92054 0.52981 0.86591 0.0
C393 C 0.96231 0.52833 0.87124 0.0
H394 H 0.29006 0.65268 0.13763 0.0
H395 H 0.21345 0.69101 0.18717 0.0
H396 H 0.37029 0.73083 0.14093 0.0
H397 H 0.29343 0.76884 0.19013 0.0
H398 H 0.42602 0.90501 0.1646 0.0
H399 H 0.34571 0.82626 0.15633 0.0
H400 H 0.44248 0.79281 0.18229 0.0
H401 H 0.52256 0.87169 0.19117 0.0
C402 C 0.29029 0.6776 0.1493 0.0
C403 C 0.24536 0.66533 0.16241 0.0
C404 C 0.33634 0.72233 0.15121 0.0
C405 C 0.33829 0.75589 0.16591 0.0
C406 C 0.29304 0.74374 0.17853 0.0
C407 C 0.24731 0.69906 0.17695 0.0
C408 C 0.43023 0.88075 0.16811 0.0
C409 C 0.48056 0.89446 0.17846 0.0
C410 C 0.38423 0.83575 0.1636 0.0
C411 C 0.38775 0.80338 0.16878 0.0
C412 C 0.43854 0.81696 0.17801 0.0
C413 C 0.48431 0.86204 0.18312 0.0
H414 H 0.69663 0.3137 0.48373 0.0
H415 H 0.5238 0.23546 0.46855 0.0
H416 H 0.70682 0.37942 0.49918 0.0
H417 H 0.5336 0.30019 0.48576 0.0
H418 H 0.56329 0.42713 0.49886 0.0
H419 H 0.5615 0.3683 0.47692 0.0
H420 H 0.69287 0.41172 0.53715 0.0
H421 H 0.69741 0.47279 0.55783 0.0
C422 C 0.66079 0.31046 0.48352 0.0
C423 C 0.60933 0.26903 0.47499 0.0
C424 C 0.66658 0.34813 0.49278 0.0
C425 C 0.62107 0.34532 0.49392 0.0
C426 C 0.56976 0.30401 0.48488 0.0
C427 C 0.56402 0.26654 0.4754 0.0
C428 C 0.59286 0.42503 0.50704 0.0
C429 C 0.63045 0.45491 0.53027 0.0
C430 C 0.59118 0.39063 0.49469 0.0
C431 C 0.6265 0.38463 0.50542 0.0
C432 C 0.66522 0.41531 0.52811 0.0
C433 C 0.66734 0.45009 0.54027 0.0
H434 H 0.47521 0.511 0.86592 0.0
H435 H 0.57045 0.63227 0.83183 0.0
H436 H 0.40278 0.51485 0.86861 0.0
H437 H 0.49816 0.63579 0.83395 0.0
H438 H 0.38225 0.6565 0.85996 0.0
H439 H 0.45265 0.6506 0.86178 0.0
H440 H 0.33114 0.50803 0.84563 0.0
H441 H 0.26029 0.51441 0.84443 0.0
C442 C 0.48093 0.53856 0.85893 0.0
C443 C 0.52956 0.5714 0.84875 0.0
C444 C 0.43885 0.54066 0.86033 0.0
C445 C 0.44362 0.57582 0.85171 0.0
C446 C 0.49235 0.6085 0.84142 0.0
C447 C 0.53424 0.60634 0.83999 0.0
C448 C 0.37031 0.62375 0.85735 0.0
C449 C 0.31502 0.58599 0.8523 0.0
C450 C 0.41108 0.62028 0.85796 0.0
C451 C 0.39873 0.57879 0.8533 0.0
C452 C 0.34317 0.54076 0.84945 0.0
C453 C 0.3021 0.54431 0.84892 0.0
H454 H 0.92934 0.40951 0.17908 0.0
H455 H 0.99029 0.36115 0.1246 0.0
H456 H 0.84771 0.33418 0.17923 0.0
H457 H 0.90714 0.28495 0.1244 0.0
H458 H 0.76581 0.1504 0.15072 0.0
H459 H 0.8528 0.2255 0.1533 0.0
H460 H 0.76891 0.27667 0.14738 0.0
H461 H 0.68317 0.20266 0.14557 0.0
C462 C 0.92541 0.38284 0.167 0.0
C463 C 0.96656 0.39171 0.15161 0.0
C464 C 0.87821 0.33942 0.16703 0.0
C465 C 0.87038 0.30329 0.15164 0.0
C466 C 0.91191 0.31191 0.13665 0.0
C467 C 0.95943 0.35564 0.13659 0.0
C468 C 0.76621 0.17788 0.15033 0.0
C469 C 0.71746 0.17043 0.14782 0.0
C470 C 0.81597 0.22082 0.15149 0.0
C471 C 0.81804 0.25729 0.15053 0.0
C472 C 0.76919 0.24967 0.1485 0.0
C473 C 0.71981 0.20702 0.1472 0.0
H474 H 1.0525 0.47229 0.07573 0.0
H475 H 0.11253 0.60676 0.08751 0.0
H476 H 1.06481 0.4752 0.02661 0.0
H477 H 0.12529 0.60988 0.03865 0.0
H478 H 0.18647 0.61341 0.95519 0.0
H479 H 0.18233 0.60777 0.00456 0.0
H480 H 1.02135 0.48149 0.98534 0.0
H481 H 1.02546 0.48738 0.93616 0.0
C482 C 1.06849 0.50246 0.0678 0.0
C483 C 1.08138 0.53924 0.08532 0.0
C484 C 1.07549 0.50413 0.03975 0.0
C485 C 1.09628 0.54286 0.02882 0.0
C486 C 0.10984 0.57979 0.04653 0.0
C487 C 1.10207 0.57787 0.07442 0.0
C488 C 0.15071 0.58413 0.96155 0.0
C489 C 0.10627 0.55085 0.94193 0.0
C490 C 0.14813 0.58104 0.98976 0.0
C491 C 1.10139 0.54429 -0.00119 0.0
C492 C 1.05801 0.51005 0.97901 0.0
C493 C 1.06027 0.51347 0.9509 0.0
H494 H 0.75834 0.0819 0.39132 0.0
H495 H 0.60213 0.04431 0.40014 0.0
H496 H 0.73914 0.07059 0.34096 0.0
H497 H 0.58356 0.0341 0.34992 0.0
H498 H 0.63874 0.97949 0.25448 0.0
H499 H 0.66729 0.9998 0.30443 0.0
H500 H 0.62245 0.08201 0.31019 0.0
H501 H 0.59463 0.06216 0.26014 0.0
C502 C 0.72018 0.07168 0.3825 0.0
C503 C 0.68169 0.06396 0.39958 0.0
C504 C 0.70919 0.06513 0.35374 0.0
C505 C 0.65995 0.05158 0.34161 0.0
C506 C 0.62205 0.04498 0.35877 0.0
C507 C 0.63262 0.05071 0.38747 0.0
C508 C 0.63572 1.00235 0.26642 0.0
C509 C 0.61467 0.01938 0.25354 0.0
C510 C 0.65219 1.01408 0.29491 0.0
C511 C 0.64692 0.04237 0.31112 0.0
C512 C 0.62671 0.05999 0.29815 0.0
C513 C 0.61119 0.04892 0.26957 0.0
H514 H 0.54044 0.48598 0.75366 0.0
H515 H 0.71358 0.58919 0.76785 0.0
H516 H 0.54259 0.48722 0.7041 0.0
H517 H 0.7157 0.59067 0.71797 0.0
H518 H 0.68182 0.60217 0.62675 0.0
H519 H 0.68208 0.60741 0.6772 0.0
H520 H 0.57907 0.46495 0.6686 0.0
H521 H 0.57855 0.45976 0.61865 0.0
C522 C 0.57895 0.50915 0.74617 0.0
C523 C 0.62686 0.53734 0.76456 0.0
C524 C 0.58018 0.50979 0.7178 0.0
C525 C 0.62935 0.53883 0.70716 0.0
C526 C 0.67721 0.56814 0.72563 0.0
C527 C 0.67601 0.56721 0.75411 0.0
C528 C 0.65928 0.57211 0.63576 0.0
C529 C 0.63048 0.5306 0.61883 0.0
C530 C 0.65967 0.5751 0.66456 0.0
C531 C 0.63044 0.53657 0.67679 0.0
C532 C 0.60155 0.49519 0.65976 0.0
C533 C 0.60168 0.49225 0.63118 0.0
H534 H 0.56281 0.03896 0.55217 0.0
H535 H 0.73577 0.12239 0.55437 0.0
H536 H 0.57076 0.03774 0.60136 0.0
H537 H 0.74397 0.12071 0.60409 0.0
H538 H 0.72818 0.15376 0.69694 0.0
H539 H 0.73066 0.15002 0.64705 0.0
H540 H 0.59374 1.01004 0.63518 0.0
H541 H 0.5898 1.01413 0.68481 0.0
C542 C 0.60261 0.05675 0.5632 0.0
C543 C 0.64869 0.08086 0.54952 0.0
C544 C 0.60716 0.05571 0.59138 0.0
C545 C 0.65798 0.07886 0.60667 0.0
C546 C 0.70426 0.10267 0.5929 0.0
C547 C 0.69962 0.10351 0.56449 0.0
C548 C 0.6989 0.12211 0.68367 0.0
C549 C 0.65838 0.08438 0.69488 0.0
C550 C 0.70069 0.11988 0.6551 0.0
C551 C 0.66196 0.07985 0.6371 0.0
C552 C 0.62362 0.04156 0.64846 0.0
C553 C 0.62178 0.0438 0.67699 0.0
H554 H 0.78816 0.64102 0.92636 0.0
H555 H 0.61474 0.55902 0.91879 0.0
H556 H 0.79142 0.64232 0.97614 0.0
H557 H 0.61792 0.56154 0.96898 0.0
H558 H 0.78501 0.69012 0.06303 0.0
H559 H 0.77933 0.67853 0.01306 0.0
H560 H 0.63771 0.54127 0.0096 0.0
H561 H 0.64203 0.55359 0.05999 0.0
C562 C 0.7507 0.62318 0.93542 0.0
C563 C 0.70131 0.60048 0.9189 0.0
C564 C 0.75254 0.62408 0.96394 0.0
C565 C 0.70504 0.60273 0.97663 0.0
C566 C 0.65523 0.57819 0.95986 0.0
C567 C 0.65338 0.57693 0.93118 0.0
C568 C 0.75234 0.65753 0.05165 0.0
C569 C 0.71364 0.62291 0.06547 0.0
C570 C 0.74953 0.65067 0.02297 0.0
C571 C 0.70822 0.60887 0.00728 0.0
C572 C 0.6698 0.57395 0.02107 0.0
C573 C 0.67256 0.58088 0.04992 0.0
H574 H 0.13999 0.57882 0.23089 0.0
H575 H 0.15176 0.47629 0.23146 0.0
H576 H 0.14722 0.58963 0.28127 0.0
H577 H 0.16112 0.48845 0.28225 0.0
H578 H 0.25446 0.58333 0.37078 0.0
H579 H 0.23672 0.56003 0.32048 0.0
H580 H 1.08905 0.54001 0.31929 0.0
H581 H 0.10624 0.56244 0.36963 0.0
C582 C 0.14369 0.55834 0.24178 0.0
C583 C 0.14472 0.52637 0.22728 0.0
C584 C 0.1478 0.56455 0.2706 0.0
C585 C 0.15434 0.53965 0.28554 0.0
C586 C 0.15598 0.50795 0.27111 0.0
C587 C 0.15062 0.50102 0.24216 0.0
C588 C 0.21778 0.57315 0.35975 0.0
C589 C 0.18162 0.57455 0.37395 0.0
C590 C 0.20757 0.55972 0.33109 0.0
C591 C 0.16163 0.54838 0.31613 0.0
C592 C 0.12479 0.54869 0.33043 0.0
C593 C 0.13444 0.56125 0.35914 0.0
loop_
_geom_bond_atom_site_label_1
_geom_bond_atom_site_label_2
_geom_bond_distance
_geom_bond_site_symmetry_2
_ccdc_geom_bond_type
La0 C2 2.928 . S
La0 O20 2.521 . S
La0 O21 2.628 . S
La0 O22 2.554 . S
La0 O23 2.757 . S
La0 O24 2.470 . S
La0 O29 2.482 . S
La0 O31 2.503 1_455 S
La1 C11 2.928 1_455 S
La1 O23 2.482 . S
La1 O25 2.503 . S
La1 O26 2.521 1_455 S
La1 O27 2.628 1_455 S
La1 O28 2.554 . S
La1 O29 2.757 . S
La1 O30 2.470 1_455 S
C2 La0 2.928 . S
C2 C3 1.503 . S
C2 O20 1.261 . S
C2 O21 1.243 . S
C3 C2 1.503 . S
C3 C4 1.394 . S
C3 C8 1.373 . S
C4 C3 1.394 . S
C4 C5 1.380 . S
C4 H32 0.930 . S
C5 C4 1.380 . S
C5 C6 1.376 . S
C5 H33 0.930 . S
C6 C5 1.376 . S
C6 C7 1.370 . S
C7 C6 1.370 . S
C7 C8 1.396 . S
C7 H34 0.929 . S
C8 C3 1.373 . S
C8 C7 1.396 . S
C8 H35 0.929 . S
C9 O22 1.240 . S
C9 O23 1.289 . S
C10 O24 1.258 . S
C10 O25 1.256 . S
C11 La1 2.928 1_655 S
C11 C12 1.503 . S
C11 O26 1.261 . S
C11 O27 1.243 . S
C12 C11 1.503 . S
C12 C13 1.394 . S
C12 C17 1.373 . S
C13 C12 1.394 . S
C13 C14 1.380 . S
C13 H36 0.930 . S
C14 C13 1.380 . S
C14 C15 1.376 . S
C14 H37 0.930 . S
C15 C14 1.376 . S
C15 C16 1.370 . S
C16 C15 1.370 . S
C16 C17 1.396 . S
C16 H38 0.929 . S
C17 C12 1.373 . S
C17 C16 1.396 . S
C17 H39 0.929 . S
C18 O28 1.240 . S
C18 O29 1.289 . S
C19 O30 1.258 . S
C19 O31 1.256 . S
O20 La0 2.521 . S
O20 C2 1.261 . S
O21 La0 2.628 . S
O21 C2 1.243 . S
O22 La0 2.554 . S
O22 C9 1.240 . S
O23 La0 2.757 . S
O23 La1 2.482 . S
O23 C9 1.289 . S
O24 La0 2.470 . S
O24 C10 1.258 . S
O25 La1 2.503 . S
O25 C10 1.256 . S
O26 La1 2.521 1_655 S
O26 C11 1.261 . S
O27 La1 2.628 1_655 S
O27 C11 1.243 . S
O28 La1 2.554 . S
O28 C18 1.240 . S
O29 La0 2.482 . S
O29 La1 2.757 . S
O29 C18 1.289 . S
O30 La1 2.470 1_655 S
O30 C19 1.258 . S
O31 La0 2.503 1_655 S
O31 C19 1.256 . S
H32 C4 0.930 . S
H33 C5 0.930 . S
H34 C7 0.929 . S
H35 C8 0.929 . S
H36 C13 0.930 . S
H37 C14 0.930 . S
H38 C16 0.929 . S
H39 C17 0.929 . S
La40 C42 2.928 1_545 S
La40 O60 2.521 1_545 S
La40 O61 2.628 1_545 S
La40 O62 2.554 . S
La40 O63 2.757 . S
La40 O64 2.470 1_545 S
La40 O69 2.482 . S
La40 O71 2.503 . S
La41 C51 2.928 . S
La41 O63 2.482 . S
La41 O65 2.503 1_545 S
La41 O66 2.521 . S
La41 O67 2.628 . S
La41 O68 2.554 . S
La41 O69 2.757 . S
La41 O70 2.470 . S
C42 La40 2.928 1_565 S
C42 C43 1.503 . S
C42 O60 1.261 . S
C42 O61 1.243 . S
C43 C42 1.503 . S
C43 C44 1.394 . S
C43 C48 1.373 . S
C44 C43 1.394 . S
C44 C45 1.380 . S
C44 H72 0.930 . S
C45 C44 1.380 . S
C45 C46 1.376 . S
C45 H73 0.930 . S
C46 C45 1.376 . S
C46 C47 1.370 . S
C47 C46 1.370 . S
C47 C48 1.396 . S
C47 H74 0.929 . S
C48 C43 1.373 . S
C48 C47 1.396 . S
C48 H75 0.929 . S
C49 O62 1.240 . S
C49 O63 1.289 . S
C50 O64 1.258 . S
C50 O65 1.256 . S
C51 La41 2.928 . S
C51 C52 1.503 . S
C51 O66 1.261 . S
C51 O67 1.243 . S
C52 C51 1.503 . S
C52 C53 1.394 . S
C52 C57 1.373 . S
C53 C52 1.394 . S
C53 C54 1.380 . S
C53 H76 0.930 . S
C54 C53 1.380 . S
C54 C55 1.376 . S
C54 H77 0.930 . S
C55 C54 1.376 . S
C55 C56 1.370 . S
C56 C55 1.370 . S
C56 C57 1.396 . S
C56 H78 0.929 . S
C57 C52 1.373 . S
C57 C56 1.396 . S
C57 H79 0.929 . S
C58 O68 1.240 . S
C58 O69 1.289 . S
C59 O70 1.258 . S
C59 O71 1.256 . S
O60 La40 2.521 1_565 S
O60 C42 1.261 . S
O61 La40 2.628 1_565 S
O61 C42 1.243 . S
O62 La40 2.554 . S
O62 C49 1.240 . S
O63 La40 2.757 . S
O63 La41 2.482 . S
O63 C49 1.289 . S
O64 La40 2.470 1_565 S
O64 C50 1.258 . S
O65 La41 2.503 1_565 S
O65 C50 1.256 . S
O66 La41 2.521 . S
O66 C51 1.261 . S
O67 La41 2.628 . S
O67 C51 1.243 . S
O68 La41 2.554 . S
O68 C58 1.240 . S
O69 La40 2.482 . S
O69 La41 2.757 . S
O69 C58 1.289 . S
O70 La41 2.470 . S
O70 C59 1.258 . S
O71 La40 2.503 . S
O71 C59 1.256 . S
H72 C44 0.930 . S
H73 C45 0.930 . S
H74 C47 0.929 . S
H75 C48 0.929 . S
H76 C53 0.930 . S
H77 C54 0.930 . S
H78 C56 0.929 . S
H79 C57 0.929 . S
La80 C82 2.928 . S
La80 O100 2.521 . S
La80 O101 2.628 . S
La80 O102 2.554 . S
La80 O103 2.757 . S
La80 O104 2.470 . S
La80 O109 2.482 . S
La80 O111 2.503 . S
La81 C91 2.928 . S
La81 O103 2.482 . S
La81 O105 2.503 . S
La81 O106 2.521 . S
La81 O107 2.628 . S
La81 O108 2.554 . S
La81 O109 2.757 . S
La81 O110 2.470 . S
C82 La80 2.928 . S
C82 C83 1.503 . S
C82 O100 1.261 . S
C82 O101 1.243 . S
C83 C82 1.503 . S
C83 C84 1.394 . S
C83 C88 1.373 . S
C84 C83 1.394 . S
C84 C85 1.380 . S
C84 H112 0.930 . S
C85 C84 1.380 . S
C85 C86 1.376 . S
C85 H113 0.930 . S
C86 C85 1.376 . S
C86 C87 1.370 . S
C87 C86 1.370 . S
C87 C88 1.396 . S
C87 H114 0.929 . S
C88 C83 1.373 . S
C88 C87 1.396 . S
C88 H115 0.929 . S
C89 O102 1.240 . S
C89 O103 1.289 . S
C90 O104 1.258 . S
C90 O105 1.256 . S
C91 La81 2.928 . S
C91 C92 1.503 . S
C91 O106 1.261 . S
C91 O107 1.243 . S
C92 C91 1.503 . S
C92 C93 1.394 . S
C92 C97 1.373 . S
C93 C92 1.394 . S
C93 C94 1.380 . S
C93 H116 0.930 . S
C94 C93 1.380 . S
C94 C95 1.376 . S
C94 H117 0.930 . S
C95 C94 1.376 . S
C95 C96 1.370 . S
C96 C95 1.370 . S
C96 C97 1.396 . S
C96 H118 0.929 . S
C97 C92 1.373 . S
C97 C96 1.396 . S
C97 H119 0.929 . S
C98 O108 1.240 . S
C98 O109 1.289 . S
C99 O110 1.258 . S
C99 O111 1.256 . S
O100 La80 2.521 . S
O100 C82 1.261 . S
O101 La80 2.628 . S
O101 C82 1.243 . S
O102 La80 2.554 . S
O102 C89 1.240 . S
O103 La80 2.757 . S
O103 La81 2.482 . S
O103 C89 1.289 . S
O104 La80 2.470 . S
O104 C90 1.258 . S
O105 La81 2.503 . S
O105 C90 1.256 . S
O106 La81 2.521 . S
O106 C91 1.261 . S
O107 La81 2.628 . S
O107 C91 1.243 . S
O108 La81 2.554 . S
O108 C98 1.240 . S
O109 La80 2.482 . S
O109 La81 2.757 . S
O109 C98 1.289 . S
O110 La81 2.470 . S
O110 C99 1.258 . S
O111 La80 2.503 . S
O111 C99 1.256 . S
H112 C84 0.930 . S
H113 C85 0.930 . S
H114 C87 0.929 . S
H115 C88 0.929 . S
H116 C93 0.930 . S
H117 C94 0.930 . S
H118 C96 0.929 . S
H119 C97 0.929 . S
H120 C121 0.949 . S
C121 H120 0.949 . S
C121 C122 1.395 . S
C121 C123 1.391 . S
C122 C121 1.395 . S
C122 C125 1.392 . S
C123 C121 1.391 . S
C123 C127 1.387 . S
C123 C128 1.491 . S
H124 C125 0.948 1_565 S
C125 C122 1.392 . S
C125 H124 0.948 1_545 S
C125 C126 1.378 1_545 S
C126 C125 1.378 1_565 S
C126 C127 1.409 1_565 S
C127 C123 1.387 . S
C127 C126 1.409 1_545 S
C127 H129 0.951 . S
C128 C123 1.491 . S
C128 C130 1.382 . S
C128 C132 1.404 . S
H129 C127 0.951 . S
C130 C128 1.382 . S
C130 C131 1.390 . S
C130 H135 0.949 . S
C131 C130 1.390 . S
C131 C136 1.399 . S
C132 C128 1.404 . S
C132 H133 0.950 . S
C132 C134 1.375 . S
H133 C132 0.950 . S
C134 C132 1.375 . S
C134 C136 1.382 . S
C134 H138 0.950 . S
H135 C130 0.949 . S
C136 C131 1.399 . S
C136 C134 1.382 . S
C136 H137 0.952 . S
H137 C136 0.952 . S
H138 C134 0.950 . S
H139 C140 0.949 . S
C140 H139 0.949 . S
C140 C141 1.395 . S
C140 C142 1.391 . S
C141 C140 1.395 . S
C141 C144 1.390 . S
C142 C140 1.391 . S
C142 C146 1.387 . S
C142 C147 1.491 . S
H143 C144 0.950 . S
C144 C141 1.390 . S
C144 H143 0.950 . S
C144 C145 1.378 . S
C145 C144 1.378 . S
C145 C146 1.409 . S
C146 C142 1.387 . S
C146 C145 1.409 . S
C146 H148 0.951 . S
C147 C142 1.491 . S
C147 C149 1.382 . S
C147 C151 1.404 . S
H148 C146 0.951 . S
C149 C147 1.382 . S
C149 C150 1.390 . S
C149 H154 0.949 . S
C150 C149 1.390 . S
C150 C155 1.399 . S
C151 C147 1.404 . S
C151 H152 0.950 . S
C151 C153 1.375 . S
H152 C151 0.950 . S
C153 C151 1.375 . S
C153 C155 1.382 . S
C153 H157 0.950 . S
H154 C149 0.949 . S
C155 C150 1.399 . S
C155 C153 1.382 . S
C155 H156 0.952 . S
H156 C155 0.952 . S
H157 C153 0.950 . S
H158 C159 0.949 . S
C159 H158 0.949 . S
C159 C160 1.395 . S
C159 C161 1.391 . S
C160 C159 1.395 . S
C160 C163 1.390 . S
C161 C159 1.391 . S
C161 C165 1.387 . S
C161 C166 1.491 . S
H162 C163 0.950 1_655 S
C163 C160 1.390 . S
C163 H162 0.950 1_455 S
C163 C164 1.378 . S
C164 C163 1.378 . S
C164 C165 1.409 . S
C165 C161 1.387 . S
C165 C164 1.409 . S
C165 H167 0.951 . S
C166 C161 1.491 . S
C166 C168 1.382 . S
C166 C170 1.404 . S
H167 C165 0.951 . S
C168 C166 1.382 . S
C168 C169 1.390 . S
C168 H173 0.949 . S
C169 C168 1.390 . S
C169 C174 1.399 . S
C170 C166 1.404 . S
C170 H171 0.950 . S
C170 C172 1.375 . S
H171 C170 0.950 . S
C172 C170 1.375 . S
C172 C174 1.382 . S
C172 H176 0.950 . S
H173 C168 0.949 . S
C174 C169 1.399 . S
C174 C172 1.382 . S
C174 H175 0.952 . S
H175 C174 0.952 . S
H176 C172 0.950 . S
H177 C178 0.949 . S
C178 H177 0.949 . S
C178 C179 1.395 1_655 S
C178 C180 1.391 1_655 S
C179 C178 1.395 1_455 S
C179 C182 1.390 . S
C180 C178 1.391 1_455 S
C180 C184 1.387 . S
C180 C185 1.491 1_455 S
H181 C182 0.950 . S
C182 C179 1.390 . S
C182 H181 0.950 . S
C182 C183 1.378 . S
C183 C182 1.378 . S
C183 C184 1.409 . S
C184 C180 1.387 . S
C184 C183 1.409 . S
C184 H186 0.951 . S
C185 C180 1.491 1_655 S
C185 C187 1.382 . S
C185 C189 1.404 . S
H186 C184 0.951 . S
C187 C185 1.382 . S
C187 C188 1.390 . S
C187 H192 0.949 . S
C188 C187 1.390 . S
C188 C193 1.399 . S
C189 C185 1.404 . S
C189 H190 0.950 . S
C189 C191 1.375 . S
H190 C189 0.950 . S
C191 C189 1.375 . S
C191 C193 1.382 . S
C191 H195 0.950 . S
H192 C187 0.949 . S
C193 C188 1.399 . S
C193 C191 1.382 . S
C193 H194 0.952 . S
H194 C193 0.952 . S
H195 C191 0.950 . S
H196 C197 0.949 . S
C197 H196 0.949 . S
C197 C198 1.395 . S
C197 C199 1.391 . S
C198 C197 1.395 . S
C198 C201 1.390 . S
C199 C197 1.391 . S
C199 C203 1.387 . S
C199 C204 1.491 . S
H200 C201 0.950 . S
C201 C198 1.390 . S
C201 H200 0.950 . S
C201 C202 1.378 . S
C202 C201 1.378 . S
C202 C203 1.409 . S
C203 C199 1.387 . S
C203 C202 1.409 . S
C203 H205 0.951 . S
C204 C199 1.491 . S
C204 C206 1.382 1_545 S
C204 C208 1.404 1_545 S
H205 C203 0.951 . S
C206 C204 1.382 1_565 S
C206 C207 1.390 . S
C206 H211 0.949 . S
C207 C206 1.390 . S
C207 C212 1.399 . S
C208 C204 1.404 1_565 S
C208 H209 0.950 1_565 S
C208 C210 1.375 . S
H209 C208 0.950 1_545 S
C210 C208 1.375 . S
C210 C212 1.382 . S
C210 H214 0.950 . S
H211 C206 0.949 . S
C212 C207 1.399 . S
C212 C210 1.382 . S
C212 H213 0.952 . S
H213 C212 0.952 . S
H214 C210 0.950 . S
H215 C216 0.949 . S
C216 H215 0.949 . S
C216 C217 1.395 . S
C216 C218 1.391 . S
C217 C216 1.395 . S
C217 C220 1.390 . S
C218 C216 1.391 . S
C218 C222 1.387 . S
C218 C223 1.491 . S
H219 C220 0.950 . S
C220 C217 1.390 . S
C220 H219 0.950 . S
C220 C221 1.378 . S
C221 C220 1.378 . S
C221 C222 1.409 . S
C222 C218 1.387 . S
C222 C221 1.409 . S
C222 H224 0.951 . S
C223 C218 1.491 . S
C223 C225 1.382 . S
C223 C227 1.404 . S
H224 C222 0.951 . S
C225 C223 1.382 . S
C225 C226 1.390 . S
C225 H230 0.949 . S
C226 C225 1.390 . S
C226 C231 1.399 . S
C227 C223 1.404 . S
C227 H228 0.950 . S
C227 C229 1.375 . S
H228 C227 0.950 . S
C229 C227 1.375 . S
C229 C231 1.382 . S
C229 H233 0.950 . S
H230 C225 0.949 . S
C231 C226 1.399 . S
C231 C229 1.382 . S
C231 H232 0.952 . S
H232 C231 0.952 . S
H233 C229 0.950 . S
H234 C242 0.950 . S
H235 C247 0.950 . S
H236 C244 0.950 . S
H237 C246 0.950 . S
H238 C248 0.950 . S
H239 C250 0.950 . S
H240 C252 0.950 . S
H241 C253 0.950 . S
C242 H234 0.950 . S
C242 C243 1.386 . S
C242 C244 1.391 . S
C243 C242 1.386 . S
C243 C247 1.393 . S
C244 H236 0.950 . S
C244 C242 1.391 . S
C244 C245 1.400 . S
C245 C244 1.400 . S
C245 C246 1.398 . S
C245 C251 1.491 . S
C246 H237 0.950 . S
C246 C245 1.398 . S
C246 C247 1.391 . S
C247 H235 0.950 . S
C247 C243 1.393 . S
C247 C246 1.391 . S
C248 H238 0.950 . S
C248 C249 1.386 . S
C248 C250 1.391 . S
C249 C248 1.386 . S
C249 C253 1.393 . S
C250 H239 0.950 . S
C250 C248 1.391 . S
C250 C251 1.400 . S
C251 C245 1.491 . S
C251 C250 1.400 . S
C251 C252 1.398 . S
C252 H240 0.950 . S
C252 C251 1.398 . S
C252 C253 1.391 . S
C253 H241 0.950 . S
C253 C249 1.393 . S
C253 C252 1.391 . S
H254 C262 0.950 . S
H255 C267 0.950 . S
H256 C264 0.950 . S
H257 C266 0.950 . S
H258 C268 0.950 . S
H259 C270 0.950 . S
H260 C272 0.950 . S
H261 C273 0.950 . S
C262 H254 0.950 . S
C262 C263 1.386 . S
C262 C264 1.391 . S
C263 C262 1.386 . S
C263 C267 1.393 . S
C264 H256 0.950 . S
C264 C262 1.391 . S
C264 C265 1.400 . S
C265 C264 1.400 . S
C265 C266 1.398 . S
C265 C271 1.491 . S
C266 H257 0.950 . S
C266 C265 1.398 . S
C266 C267 1.391 . S
C267 H255 0.950 . S
C267 C263 1.393 . S
C267 C266 1.391 . S
C268 H258 0.950 . S
C268 C269 1.386 . S
C268 C270 1.391 . S
C269 C268 1.386 . S
C269 C273 1.393 . S
C270 H259 0.950 . S
C270 C268 1.391 . S
C270 C271 1.400 . S
C271 C265 1.491 . S
C271 C270 1.400 . S
C271 C272 1.398 . S
C272 H260 0.950 . S
C272 C271 1.398 . S
C272 C273 1.391 . S
C273 H261 0.950 . S
C273 C269 1.393 . S
C273 C272 1.391 . S
H274 C282 0.950 . S
H275 C287 0.950 . S
H276 C284 0.950 . S
H277 C286 0.950 . S
H278 C288 0.950 . S
H279 C290 0.950 . S
H280 C292 0.950 . S
H281 C293 0.950 . S
C282 H274 0.950 . S
C282 C283 1.386 . S
C282 C284 1.391 . S
C283 C282 1.386 . S
C283 C287 1.393 . S
C284 H276 0.950 . S
C284 C282 1.391 . S
C284 C285 1.400 . S
C285 C284 1.400 . S
C285 C286 1.398 . S
C285 C291 1.491 . S
C286 H277 0.950 . S
C286 C285 1.398 . S
C286 C287 1.391 . S
C287 H275 0.950 . S
C287 C283 1.393 . S
C287 C286 1.391 . S
C288 H278 0.950 . S
C288 C289 1.386 . S
C288 C290 1.391 . S
C289 C288 1.386 . S
C289 C293 1.393 . S
C290 H279 0.950 . S
C290 C288 1.391 . S
C290 C291 1.400 . S
C291 C285 1.491 . S
C291 C290 1.400 . S
C291 C292 1.398 . S
C292 H280 0.950 . S
C292 C291 1.398 . S
C292 C293 1.391 . S
C293 H281 0.950 . S
C293 C289 1.393 . S
C293 C292 1.391 . S
H294 C302 0.950 . S
H295 C307 0.950 . S
H296 C304 0.950 . S
H297 C306 0.950 . S
H298 C308 0.950 . S
H299 C310 0.950 . S
H300 C312 0.950 . S
H301 C313 0.950 . S
C302 H294 0.950 . S
C302 C303 1.386 . S
C302 C304 1.391 . S
C303 C302 1.386 . S
C303 C307 1.393 . S
C304 H296 0.950 . S
C304 C302 1.391 . S
C304 C305 1.400 . S
C305 C304 1.400 . S
C305 C306 1.398 . S
C305 C311 1.491 . S
C306 H297 0.950 . S
C306 C305 1.398 . S
C306 C307 1.391 . S
C307 H295 0.950 . S
C307 C303 1.393 . S
C307 C306 1.391 . S
C308 H298 0.950 . S
C308 C309 1.386 . S
C308 C310 1.391 . S
C309 C308 1.386 . S
C309 C313 1.393 . S
C310 H299 0.950 . S
C310 C308 1.391 . S
C310 C311 1.400 . S
C311 C305 1.491 . S
C311 C310 1.400 . S
C311 C312 1.398 . S
C312 H300 0.950 . S
C312 C311 1.398 . S
C312 C313 1.391 . S
C313 H301 0.950 . S
C313 C309 1.393 . S
C313 C312 1.391 . S
H314 C322 0.950 . S
H315 C327 0.950 . S
H316 C324 0.950 . S
H317 C326 0.950 . S
H318 C328 0.950 . S
H319 C330 0.950 . S
H320 C332 0.950 . S
H321 C333 0.950 . S
C322 H314 0.950 . S
C322 C323 1.386 . S
C322 C324 1.391 . S
C323 C322 1.386 . S
C323 C327 1.393 . S
C324 H316 0.950 . S
C324 C322 1.391 . S
C324 C325 1.400 . S
C325 C324 1.400 . S
C325 C326 1.398 . S
C325 C331 1.491 . S
C326 H317 0.950 . S
C326 C325 1.398 . S
C326 C327 1.391 . S
C327 H315 0.950 . S
C327 C323 1.393 . S
C327 C326 1.391 . S
C328 H318 0.950 . S
C328 C329 1.386 . S
C328 C330 1.391 . S
C329 C328 1.386 . S
C329 C333 1.393 . S
C330 H319 0.950 . S
C330 C328 1.391 . S
C330 C331 1.400 . S
C331 C325 1.491 . S
C331 C330 1.400 . S
C331 C332 1.398 . S
C332 H320 0.950 . S
C332 C331 1.398 . S
C332 C333 1.391 . S
C333 H321 0.950 . S
C333 C329 1.393 . S
C333 C332 1.391 . S
H334 C342 0.950 . S
H335 C347 0.950 . S
H336 C344 0.950 . S
H337 C346 0.950 . S
H338 C348 0.950 . S
H339 C350 0.950 . S
H340 C352 0.950 . S
H341 C353 0.950 . S
C342 H334 0.950 . S
C342 C343 1.386 . S
C342 C344 1.391 . S
C343 C342 1.386 . S
C343 C347 1.393 . S
C344 H336 0.950 . S
C344 C342 1.391 . S
C344 C345 1.400 . S
C345 C344 1.400 . S
C345 C346 1.398 . S
C345 C351 1.491 . S
C346 H337 0.950 . S
C346 C345 1.398 . S
C346 C347 1.391 . S
C347 H335 0.950 . S
C347 C343 1.393 . S
C347 C346 1.391 . S
C348 H338 0.950 . S
C348 C349 1.386 . S
C348 C350 1.391 . S
C349 C348 1.386 . S
C349 C353 1.393 . S
C350 H339 0.950 . S
C350 C348 1.391 . S
C350 C351 1.400 . S
C351 C345 1.491 . S
C351 C350 1.400 . S
C351 C352 1.398 . S
C352 H340 0.950 . S
C352 C351 1.398 . S
C352 C353 1.391 . S
C353 H341 0.950 . S
C353 C349 1.393 . S
C353 C352 1.391 . S
H354 C362 0.950 . S
H355 C367 0.950 . S
H356 C364 0.950 . S
H357 C366 0.950 . S
H358 C368 0.950 . S
H359 C370 0.950 . S
H360 C372 0.950 . S
H361 C373 0.950 . S
C362 H354 0.950 . S
C362 C363 1.386 . S
C362 C364 1.391 . S
C363 C362 1.386 . S
C363 C367 1.393 . S
C364 H356 0.950 . S
C364 C362 1.391 . S
C364 C365 1.400 . S
C365 C364 1.400 . S
C365 C366 1.398 . S
C365 C371 1.491 . S
C366 H357 0.950 . S
C366 C365 1.398 . S
C366 C367 1.391 . S
C367 H355 0.950 . S
C367 C363 1.393 . S
C367 C366 1.391 . S
C368 H358 0.950 . S
C368 C369 1.386 . S
C368 C370 1.391 . S
C369 C368 1.386 . S
C369 C373 1.393 . S
C370 H359 0.950 . S
C370 C368 1.391 . S
C370 C371 1.400 . S
C371 C365 1.491 . S
C371 C370 1.400 . S
C371 C372 1.398 . S
C372 H360 0.950 . S
C372 C371 1.398 . S
C372 C373 1.391 . S
C373 H361 0.950 . S
C373 C369 1.393 . S
C373 C372 1.391 . S
H374 C382 0.950 . S
H375 C387 0.950 . S
H376 C384 0.950 . S
H377 C386 0.950 . S
H378 C388 0.950 . S
H379 C390 0.950 . S
H380 C392 0.950 . S
H381 C393 0.950 . S
C382 H374 0.950 . S
C382 C383 1.386 . S
C382 C384 1.391 . S
C383 C382 1.386 . S
C383 C387 1.393 . S
C384 H376 0.950 . S
C384 C382 1.391 . S
C384 C385 1.400 . S
C385 C384 1.400 . S
C385 C386 1.398 . S
C385 C391 1.491 . S
C386 H377 0.950 . S
C386 C385 1.398 . S
C386 C387 1.391 . S
C387 H375 0.950 . S
C387 C383 1.393 . S
C387 C386 1.391 . S
C388 H378 0.950 . S
C388 C389 1.386 . S
C388 C390 1.391 . S
C389 C388 1.386 . S
C389 C393 1.393 . S
C390 H379 0.950 . S
C390 C388 1.391 . S
C390 C391 1.400 . S
C391 C385 1.491 . S
C391 C390 1.400 . S
C391 C392 1.398 . S
C392 H380 0.950 . S
C392 C391 1.398 . S
C392 C393 1.391 . S
C393 H381 0.950 . S
C393 C389 1.393 . S
C393 C392 1.391 . S
H394 C402 0.950 . S
H395 C407 0.950 . S
H396 C404 0.950 . S
H397 C406 0.950 . S
H398 C408 0.950 . S
H399 C410 0.950 . S
H400 C412 0.950 . S
H401 C413 0.950 . S
C402 H394 0.950 . S
C402 C403 1.386 . S
C402 C404 1.391 . S
C403 C402 1.386 . S
C403 C407 1.393 . S
C404 H396 0.950 . S
C404 C402 1.391 . S
C404 C405 1.400 . S
C405 C404 1.400 . S
C405 C406 1.398 . S
C405 C411 1.491 . S
C406 H397 0.950 . S
C406 C405 1.398 . S
C406 C407 1.391 . S
C407 H395 0.950 . S
C407 C403 1.393 . S
C407 C406 1.391 . S
C408 H398 0.950 . S
C408 C409 1.386 . S
C408 C410 1.391 . S
C409 C408 1.386 . S
C409 C413 1.393 . S
C410 H399 0.950 . S
C410 C408 1.391 . S
C410 C411 1.400 . S
C411 C405 1.491 . S
C411 C410 1.400 . S
C411 C412 1.398 . S
C412 H400 0.950 . S
C412 C411 1.398 . S
C412 C413 1.391 . S
C413 H401 0.950 . S
C413 C409 1.393 . S
C413 C412 1.391 . S
H414 C422 0.950 . S
H415 C427 0.950 . S
H416 C424 0.950 . S
H417 C426 0.950 . S
H418 C428 0.950 . S
H419 C430 0.950 . S
H420 C432 0.950 . S
H421 C433 0.950 . S
C422 H414 0.950 . S
C422 C423 1.386 . S
C422 C424 1.391 . S
C423 C422 1.386 . S
C423 C427 1.393 . S
C424 H416 0.950 . S
C424 C422 1.391 . S
C424 C425 1.400 . S
C425 C424 1.400 . S
C425 C426 1.398 . S
C425 C431 1.491 . S
C426 H417 0.950 . S
C426 C425 1.398 . S
C426 C427 1.391 . S
C427 H415 0.950 . S
C427 C423 1.393 . S
C427 C426 1.391 . S
C428 H418 0.950 . S
C428 C429 1.386 . S
C428 C430 1.391 . S
C429 C428 1.386 . S
C429 C433 1.393 . S
C430 H419 0.950 . S
C430 C428 1.391 . S
C430 C431 1.400 . S
C431 C425 1.491 . S
C431 C430 1.400 . S
C431 C432 1.398 . S
C432 H420 0.950 . S
C432 C431 1.398 . S
C432 C433 1.391 . S
C433 H421 0.950 . S
C433 C429 1.393 . S
C433 C432 1.391 . S
H434 C442 0.950 . S
H435 C447 0.950 . S
H436 C444 0.950 . S
H437 C446 0.950 . S
H438 C448 0.950 . S
H439 C450 0.950 . S
H440 C452 0.950 . S
H441 C453 0.950 . S
C442 H434 0.950 . S
C442 C443 1.386 . S
C442 C444 1.391 . S
C443 C442 1.386 . S
C443 C447 1.393 . S
C444 H436 0.950 . S
C444 C442 1.391 . S
C444 C445 1.400 . S
C445 C444 1.400 . S
C445 C446 1.398 . S
C445 C451 1.491 . S
C446 H437 0.950 . S
C446 C445 1.398 . S
C446 C447 1.391 . S
C447 H435 0.950 . S
C447 C443 1.393 . S
C447 C446 1.391 . S
C448 H438 0.950 . S
C448 C449 1.386 . S
C448 C450 1.391 . S
C449 C448 1.386 . S
C449 C453 1.393 . S
C450 H439 0.950 . S
C450 C448 1.391 . S
C450 C451 1.400 . S
C451 C445 1.491 . S
C451 C450 1.400 . S
C451 C452 1.398 . S
C452 H440 0.950 . S
C452 C451 1.398 . S
C452 C453 1.391 . S
C453 H441 0.950 . S
C453 C449 1.393 . S
C453 C452 1.391 . S
H454 C462 0.950 . S
H455 C467 0.950 . S
H456 C464 0.950 . S
H457 C466 0.950 . S
H458 C468 0.950 . S
H459 C470 0.950 . S
H460 C472 0.950 . S
H461 C473 0.950 . S
C462 H454 0.950 . S
C462 C463 1.386 . S
C462 C464 1.391 . S
C463 C462 1.386 . S
C463 C467 1.393 . S
C464 H456 0.950 . S
C464 C462 1.391 . S
C464 C465 1.400 . S
C465 C464 1.400 . S
C465 C466 1.398 . S
C465 C471 1.491 . S
C466 H457 0.950 . S
C466 C465 1.398 . S
C466 C467 1.391 . S
C467 H455 0.950 . S
C467 C463 1.393 . S
C467 C466 1.391 . S
C468 H458 0.950 . S
C468 C469 1.386 . S
C468 C470 1.391 . S
C469 C468 1.386 . S
C469 C473 1.393 . S
C470 H459 0.950 . S
C470 C468 1.391 . S
C470 C471 1.400 . S
C471 C465 1.491 . S
C471 C470 1.400 . S
C471 C472 1.398 . S
C472 H460 0.950 . S
C472 C471 1.398 . S
C472 C473 1.391 . S
C473 H461 0.950 . S
C473 C469 1.393 . S
C473 C472 1.391 . S
H474 C482 0.950 1_655 S
H475 C487 0.950 . S
H476 C484 0.950 1_655 S
H477 C486 0.950 . S
H478 C488 0.950 . S
H479 C490 0.950 . S
H480 C492 0.950 1_655 S
H481 C493 0.950 1_655 S
C482 H474 0.950 1_455 S
C482 C483 1.386 . S
C482 C484 1.391 . S
C483 C482 1.386 . S
C483 C487 1.393 . S
C484 H476 0.950 1_455 S
C484 C482 1.391 . S
C484 C485 1.400 . S
C485 C484 1.400 . S
C485 C486 1.398 . S
C485 C491 1.491 1_554 S
C486 H477 0.950 . S
C486 C485 1.398 . S
C486 C487 1.391 . S
C487 H475 0.950 . S
C487 C483 1.393 . S
C487 C486 1.391 . S
C488 H478 0.950 . S
C488 C489 1.386 . S
C488 C490 1.391 . S
C489 C488 1.386 . S
C489 C493 1.393 . S
C490 H479 0.950 . S
C490 C488 1.391 . S
C490 C491 1.400 . S
C491 C485 1.491 1_556 S
C491 C490 1.400 . S
C491 C492 1.398 . S
C492 H480 0.950 1_455 S
C492 C491 1.398 . S
C492 C493 1.391 . S
C493 H481 0.950 1_455 S
C493 C489 1.393 . S
C493 C492 1.391 . S
H494 C502 0.950 . S
H495 C507 0.950 1_565 S
H496 C504 0.950 . S
H497 C506 0.950 1_565 S
H498 C508 0.950 1_565 S
H499 C510 0.950 1_565 S
H500 C512 0.950 . S
H501 C513 0.950 . S
C502 H494 0.950 . S
C502 C503 1.386 . S
C502 C504 1.391 . S
C503 C502 1.386 . S
C503 C507 1.393 . S
C504 H496 0.950 . S
C504 C502 1.391 . S
C504 C505 1.400 . S
C505 C504 1.400 . S
C505 C506 1.398 . S
C505 C511 1.491 . S
C506 H497 0.950 1_545 S
C506 C505 1.398 . S
C506 C507 1.391 . S
C507 H495 0.950 1_545 S
C507 C503 1.393 . S
C507 C506 1.391 . S
C508 H498 0.950 1_545 S
C508 C509 1.386 . S
C508 C510 1.391 . S
C509 C508 1.386 . S
C509 C513 1.393 . S
C510 H499 0.950 1_545 S
C510 C508 1.391 . S
C510 C511 1.400 . S
C511 C505 1.491 . S
C511 C510 1.400 . S
C511 C512 1.398 . S
C512 H500 0.950 . S
C512 C511 1.398 . S
C512 C513 1.391 . S
C513 H501 0.950 . S
C513 C509 1.393 . S
C513 C512 1.391 . S
H514 C522 0.950 . S
H515 C527 0.950 . S
H516 C524 0.950 . S
H517 C526 0.950 . S
H518 C528 0.950 . S
H519 C530 0.950 . S
H520 C532 0.950 . S
H521 C533 0.950 . S
C522 H514 0.950 . S
C522 C523 1.386 . S
C522 C524 1.391 . S
C523 C522 1.386 . S
C523 C527 1.393 . S
C524 H516 0.950 . S
C524 C522 1.391 . S
C524 C525 1.400 . S
C525 C524 1.400 . S
C525 C526 1.398 . S
C525 C531 1.491 . S
C526 H517 0.950 . S
C526 C525 1.398 . S
C526 C527 1.391 . S
C527 H515 0.950 . S
C527 C523 1.393 . S
C527 C526 1.391 . S
C528 H518 0.950 . S
C528 C529 1.386 . S
C528 C530 1.391 . S
C529 C528 1.386 . S
C529 C533 1.393 . S
C530 H519 0.950 . S
C530 C528 1.391 . S
C530 C531 1.400 . S
C531 C525 1.491 . S
C531 C530 1.400 . S
C531 C532 1.398 . S
C532 H520 0.950 . S
C532 C531 1.398 . S
C532 C533 1.391 . S
C533 H521 0.950 . S
C533 C529 1.393 . S
C533 C532 1.391 . S
H534 C542 0.950 . S
H535 C547 0.950 . S
H536 C544 0.950 . S
H537 C546 0.950 . S
H538 C548 0.950 . S
H539 C550 0.950 . S
H540 C552 0.950 . S
H541 C553 0.950 . S
C542 H534 0.950 . S
C542 C543 1.386 . S
C542 C544 1.391 . S
C543 C542 1.386 . S
C543 C547 1.393 . S
C544 H536 0.950 . S
C544 C542 1.391 . S
C544 C545 1.400 . S
C545 C544 1.400 . S
C545 C546 1.398 . S
C545 C551 1.491 . S
C546 H537 0.950 . S
C546 C545 1.398 . S
C546 C547 1.391 . S
C547 H535 0.950 . S
C547 C543 1.393 . S
C547 C546 1.391 . S
C548 H538 0.950 . S
C548 C549 1.386 . S
C548 C550 1.391 . S
C549 C548 1.386 . S
C549 C553 1.393 . S
C550 H539 0.950 . S
C550 C548 1.391 . S
C550 C551 1.400 . S
C551 C545 1.491 . S
C551 C550 1.400 . S
C551 C552 1.398 . S
C552 H540 0.950 . S
C552 C551 1.398 . S
C552 C553 1.391 . S
C553 H541 0.950 . S
C553 C549 1.393 . S
C553 C552 1.391 . S
H554 C562 0.950 . S
H555 C567 0.950 . S
H556 C564 0.950 . S
H557 C566 0.950 . S
H558 C568 0.950 . S
H559 C570 0.926 1_556 S
H560 C572 0.950 . S
H561 C573 0.950 . S
C562 H554 0.950 . S
C562 C563 1.386 . S
C562 C564 1.391 . S
C563 C562 1.386 . S
C563 C567 1.393 . S
C564 H556 0.950 . S
C564 C562 1.391 . S
C564 C565 1.400 . S
C565 C564 1.400 . S
C565 C566 1.398 . S
C565 C571 1.491 . S
C566 H557 0.950 . S
C566 C565 1.398 . S
C566 C567 1.391 . S
C567 H555 0.950 . S
C567 C563 1.393 . S
C567 C566 1.391 . S
C568 H558 0.950 . S
C568 C569 1.386 . S
C568 C570 1.391 . S
C569 C568 1.386 . S
C569 C573 1.393 . S
C570 H559 0.926 1_554 S
C570 C568 1.391 . S
C570 C571 1.400 1_554 S
C571 C565 1.491 . S
C571 C570 1.400 1_556 S
C571 C572 1.398 1_556 S
C572 H560 0.950 . S
C572 C571 1.398 1_554 S
C572 C573 1.391 . S
C573 H561 0.950 . S
C573 C569 1.393 . S
C573 C572 1.391 . S
H574 C582 0.950 . S
H575 C587 0.950 1_655 S
H576 C584 0.950 . S
H577 C586 0.950 1_655 S
H578 C588 0.950 1_655 S
H579 C590 0.950 1_655 S
H580 C592 0.950 . S
H581 C593 0.950 . S
C582 H574 0.950 . S
C582 C583 1.386 . S
C582 C584 1.391 . S
C583 C582 1.386 . S
C583 C587 1.393 . S
C584 H576 0.950 . S
C584 C582 1.391 . S
C584 C585 1.400 . S
C585 C584 1.400 . S
C585 C586 1.398 . S
C585 C591 1.491 . S
C586 H577 0.950 1_455 S
C586 C585 1.398 . S
C586 C587 1.391 . S
C587 H575 0.950 1_455 S
C587 C583 1.393 . S
C587 C586 1.391 . S
C588 H578 0.950 1_455 S
C588 C589 1.386 . S
C588 C590 1.391 . S
C589 C588 1.386 . S
C589 C593 1.393 . S
C590 H579 0.950 1_455 S
C590 C588 1.391 . S
C590 C591 1.400 . S
C591 C585 1.491 . S
C591 C590 1.400 . S
C591 C592 1.398 . S
C592 H580 0.950 . S
C592 C591 1.398 . S
C592 C593 1.391 . S
C593 H581 0.950 . S
C593 C589 1.393 . S
C593 C592 1.391 . S
C243 C6 0.773 . S
C249 C226 0.786 . S
C263 C59 1.993 . S
C269 C188 1.932 . S
C283 C86 1.284 . S
C289 C207 1.238 . S
C303 C15 0.194 . S
C309 C221 0.206 . S
C329 C183 1.868 . S
C323 C50 1.878 . S
C349 C202 1.109 . S
C343 C95 1.115 . S
C363 C46 1.328 . S
C369 C150 1.242 . S
C383 C99 3.064 . S
C389 C164 3.040 1_655 S
C403 C10 1.894 . S
C409 C126 1.879 . S
C429 C145 1.081 . S
C423 C55 1.105 . S
C449 C169 3.066 . S
C443 C90 3.111 . S
C463 C19 1.990 . S
C469 C131 1.948 . S
C489 C160 1.727 . S
C483 C18 1.689 . S
C503 C49 1.441 . S
C509 C122 1.528 . S
C523 C98 1.557 . S
C529 C141 1.564 . S
C549 C198 1.557 . S
C543 C58 1.559 . S
C569 C217 1.371 . S
C563 C89 1.331 . S
C583 C9 1.443 . S
C589 C179 1.483 . S
