# Generated by pormake.
# Topology zzz, (3,6)-cn, num edge types: 1
# Building blocks:
#     Node 0, Type 0, BuildingBlock: QEWDON_clean_linker_0, # of connection points: 3
#     Node 1, Type 0, BuildingBlock: QEWDON_clean_linker_0, # of connection points: 3
#     Node 2, Type 0, BuildingBlock: QEWDON_clean_linker_0, # of connection points: 3
#     Node 3, Type 0, BuildingBlock: QEWDON_clean_linker_0, # of connection points: 3
#     Node 4, Type 0, BuildingBlock: QEWDON_clean_linker_0, # of connection points: 3
#     Node 5, Type 0, BuildingBlock: QEWDON_clean_linker_0, # of connection points: 3
#     Node 6, Type 0, BuildingBlock: QEWDON_clean_linker_0, # of connection points: 3
#     Node 7, Type 0, BuildingBlock: QEWDON_clean_linker_0, # of connection points: 3
#     Node 8, Type 1, BuildingBlock: INOVEN_clean_sbu_0, # of connection points: 6
#     Node 9, Type 1, BuildingBlock: INOVEN_clean_sbu_0, # of connection points: 6
#     Node 10, Type 1, BuildingBlock: INOVEN_clean_sbu_0, # of connection points: 6
#     Node 11, Type 1, BuildingBlock: INOVEN_clean_sbu_0, # of connection points: 6
#     Edge 12, Type (0, 1), None
#     Edge 13, Type (0, 1), None
#     Edge 14, Type (0, 1), None
#     Edge 15, Type (0, 1), None
#     Edge 16, Type (0, 1), None
#     Edge 17, Type (0, 1), None
#     Edge 18, Type (0, 1), None
#     Edge 19, Type (0, 1), None
#     Edge 20, Type (0, 1), None
#     Edge 21, Type (0, 1), None
#     Edge 22, Type (0, 1), None
#     Edge 23, Type (0, 1), None
#     Edge 24, Type (0, 1), None
#     Edge 25, Type (0, 1), None
#     Edge 26, Type (0, 1), None
#     Edge 27, Type (0, 1), None
#     Edge 28, Type (0, 1), None
#     Edge 29, Type (0, 1), None
#     Edge 30, Type (0, 1), None
#     Edge 31, Type (0, 1), None
#     Edge 32, Type (0, 1), None
#     Edge 33, Type (0, 1), None
#     Edge 34, Type (0, 1), None
#     Edge 35, Type (0, 1), None
# Relax obj value: 0.425
# Max RMSD: 0.219
# Mean RMSD: 0.109
data_MOF--net-zzz--node1-INOVEN_clean_sbu_0--node2-QEWDON_clean_linker_0--edge1-none
_symmetry_space_group_name_H-M    P1
_symmetry_Int_Tables_number       1
_symmetry_cell_setting            triclinic
loop_
_symmetry_equiv_pos_as_xyz
'x, y, z'
_cell_length_a     27.253291
_cell_length_b     27.299227
_cell_length_c     7.6329301
_cell_angle_alpha  89.256367
_cell_angle_beta   90.053492
_cell_angle_gamma 89.876105
loop_
_atom_site_label
_atom_site_type_symbol
_atom_site_fract_x
_atom_site_fract_y
_atom_site_fract_z
_atom_type_partial_charge
H0 H 0.71319 0.49934 0.60123 0.0
C1 C 0.75095 0.50619 0.63641 0.0
C2 C 0.78811 0.48544 0.53522 0.0
C3 C 0.76298 0.53622 0.78017 0.0
H4 H 0.86595 0.47798 0.49943 0.0
C5 C 0.83715 0.49555 0.57322 0.0
C6 C 0.85035 0.52837 0.70033 0.0
C7 C 0.81326 0.54846 0.80684 0.0
C8 C 0.72319 0.5542 0.90042 0.0
H9 H 0.82403 0.5718 0.91357 0.0
C10 C 0.67915 0.52741 0.9241 0.0
C11 C 0.64021 0.54583 0.0264 0.0
C12 C 0.72825 0.59866 -0.00958 0.0
H13 H 0.76065 0.62109 -0.02485 0.0
C14 C 0.69076 0.61575 0.09874 0.0
H15 H 0.6743 0.49276 0.8591 0.0
C16 C 0.64681 0.58995 0.11502 0.0
H17 H 0.61745 0.60506 0.19342 0.0
H18 H 0.69524 0.65007 0.16632 0.0
H19 H 0.08021 0.7316 0.68472 0.0
C20 C 0.0565 0.7632 0.69585 0.0
C21 C 0.05991 0.80043 0.56747 0.0
C22 C 0.02417 0.76868 0.84061 0.0
H23 H 0.03219 0.86979 0.47841 0.0
C24 C 0.0297 0.84157 0.57945 0.0
C25 C 1.01121 0.8541 0.74126 0.0
C26 C 1.00566 0.81691 0.86972 0.0
C27 C 1.01126 0.7255 -0.04014 0.0
H28 H 0.98798 0.82676 -0.00942 0.0
C29 C 0.02126 0.67646 0.91021 0.0
C30 C 1.00534 0.63595 0.01282 0.0
C31 C 0.98551 0.73206 0.11883 0.0
H32 H 0.97735 0.76786 0.1692 0.0
C33 C 0.9689 0.692 0.21805 0.0
H34 H 0.03994 0.66897 0.78873 0.0
C35 C 0.97779 0.64427 0.16369 0.0
H36 H 0.96389 0.61381 0.24115 0.0
H37 H 0.94864 0.69809 0.33778 0.0
H38 H 0.82449 0.03663 0.5457 0.0
C39 C 0.78776 0.03656 0.59959 0.0
C40 C 0.75033 0.06388 0.51515 0.0
C41 C 0.77636 1.00689 0.74846 0.0
H42 H 0.67552 0.08748 0.53526 0.0
C43 C 0.70383 0.06438 0.59181 0.0
C44 C 0.69008 0.02629 0.70364 0.0
C45 C 0.72647 0.99826 0.78595 0.0
C46 C 0.81535 0.98525 0.86426 0.0
H47 H 0.71564 0.97086 0.88151 0.0
C48 C 0.85863 1.01158 0.89682 0.0
C49 C 0.89591 0.99217 0.00643 0.0
C50 C 0.80886 0.9398 0.9509 0.0
H51 H 0.77658 0.91775 0.92866 0.0
C52 C 0.84453 0.92158 0.06643 0.0
H53 H 0.86395 0.04667 0.83172 0.0
C54 C 0.88803 0.94732 0.09308 0.0
H55 H 0.91635 0.93131 0.17563 0.0
H56 H 0.83904 0.88658 0.13163 0.0
H57 H 0.4509 0.80367 0.61267 0.0
C58 C 0.46384 0.76879 0.66296 0.0
C59 C 0.44344 0.72605 0.59329 0.0
C60 C 0.50068 0.76549 0.79475 0.0
H61 H 0.44149 0.64785 0.60725 0.0
C62 C 0.45796 0.68058 0.66021 0.0
C63 C 0.49847 0.6761 0.7692 0.0
C64 C 0.51983 0.71843 0.83712 0.0
C65 C 0.51921 0.81015 0.88759 0.0
H66 H 0.55119 0.71415 0.92294 0.0
C67 C 0.51506 0.85742 0.81196 0.0
C68 C 0.53012 0.89907 0.90385 0.0
C69 C 0.54069 0.80612 0.05588 0.0
H70 H 0.54579 0.77116 0.12033 0.0
C71 C 0.55642 0.84751 0.1455 0.0
H72 H 0.50142 0.86239 0.67978 0.0
C73 C 0.55143 0.89388 0.06948 0.0
H74 H 0.56522 0.92546 0.13806 0.0
H75 H 0.57296 0.84353 0.27392 0.0
H76 H 0.27111 0.54888 0.03189 0.0
C77 C 0.23845 0.52647 0.0244 0.0
C78 C 0.20098 0.53327 0.14829 0.0
C79 C 0.23224 0.49271 0.88595 0.0
H80 H 0.12943 0.50987 0.23158 0.0
C81 C 0.15834 0.50485 0.1371 0.0
C82 C 0.14694 0.48129 -0.0171 0.0
C83 C 0.1848 0.47259 0.86128 0.0
C84 C 0.27385 0.48205 0.76175 0.0
H85 H 0.17643 0.45141 0.74637 0.0
C86 C 0.32284 0.48392 0.82072 0.0
C87 C 0.3627 0.47722 0.70522 0.0
C88 C 0.26575 0.47014 0.58459 0.0
H89 H 0.22911 0.46687 0.53191 0.0
C90 C 0.30518 0.46428 0.46897 0.0
H91 H 0.33017 0.49107 -0.04246 0.0
C92 C 0.35352 0.46855 0.52812 0.0
H93 H 0.38357 0.46414 0.43681 0.0
H94 H 0.29814 0.45667 0.33237 0.0
H95 H 0.92554 0.26325 0.06778 0.0
C96 C 0.95471 0.23671 0.04959 0.0
C97 C 0.96076 0.19879 0.17176 0.0
C98 C 0.98378 0.23826 0.89745 0.0
H99 H 1.002 0.13497 0.24517 0.0
C100 C 0.99817 0.16424 0.14885 0.0
C101 C 0.02039 0.15901 -0.01364 0.0
C102 C 1.01486 0.1977 0.86109 0.0
C103 C 0.97332 0.27804 0.76717 0.0
H104 H 0.03185 0.19485 0.7334 0.0
C105 C 1.00279 0.32038 0.75619 0.0
C106 C 0.98581 0.36337 0.66719 0.0
C107 C 0.92747 0.2786 0.68406 0.0
H108 H 0.90245 0.2481 0.70075 0.0
C109 C 0.91237 0.31897 0.58488 0.0
H110 H 0.03624 0.32157 0.83292 0.0
C111 C 0.94117 0.36122 0.57577 0.0
H112 H 0.92642 0.39354 0.51117 0.0
H113 H 0.87639 0.31826 0.52637 0.0
H114 H 0.26583 0.96131 0.94633 0.0
C115 C 0.29888 0.97957 0.90269 0.0
C116 C 0.34434 0.96349 -0.0289 0.0
C117 C 0.2973 0.01888 0.77757 0.0
H118 H 0.42196 0.97116 0.94542 0.0
C119 C 0.38667 0.98554 0.90707 0.0
C120 C 0.38485 0.03124 0.82814 0.0
C121 C 0.34063 0.04688 0.75166 0.0
C122 C 0.25157 0.03053 0.67458 0.0
H123 H 0.34023 0.08017 0.67302 0.0
C124 C 0.2047 0.02149 0.74427 0.0
C125 C 0.16182 0.03095 0.64538 0.0
C126 C 0.25435 0.05021 0.50313 0.0
H127 H 0.28922 0.06009 0.44611 0.0
C128 C 0.21201 0.05738 0.40174 0.0
H129 H 0.20116 1.00923 0.87912 0.0
C130 C 0.16573 0.04769 0.47232 0.0
H131 H 0.13318 0.05588 0.3957 0.0
H132 H 0.21507 0.0718 0.26941 0.0
H133 H 0.64253 0.28946 0.10093 0.0
C134 C 0.60909 0.3107 0.08656 0.0
C135 C 0.59809 0.34729 0.20764 0.0
C136 C 0.57717 0.30273 0.94406 0.0
H137 H 0.54764 0.40415 0.27896 0.0
C138 C 0.55499 0.37493 0.18791 0.0
C139 C 0.52839 0.37374 0.03321 0.0
C140 C 0.53776 0.33559 0.91463 0.0
C141 C 0.58814 0.26386 0.81526 0.0
H142 H 0.51718 0.33382 0.79328 0.0
C143 C 0.5544 0.2259 0.78529 0.0
C144 C 0.56586 0.18756 0.66934 0.0
C145 C 0.6331 0.26372 0.72553 0.0
H146 H 0.66002 0.29206 0.7487 0.0
C147 C 0.64278 0.22831 0.5997 0.0
H148 H 0.52091 0.22448 0.8617 0.0
C149 C 0.60944 0.19045 0.5714 0.0
H150 H 0.61926 0.1618 0.48107 0.0
H151 H 0.67698 0.2293 0.52773 0.0
Gd152 Gd 0.05955 0.9943 -0.001 0.0
Gd153 Gd 1.00142 0.02049 0.70838 0.0
C154 C 1.01112 0.90706 0.78177 0.0
C155 C 0.11658 0.94847 0.21872 0.0
C156 C 0.12091 0.89769 0.28599 0.0
C157 C 0.14272 0.88811 0.44919 0.0
C158 C 0.10123 0.85823 0.19212 0.0
C159 C 0.10351 0.80836 0.45621 0.0
C160 C 0.09366 0.81302 0.27627 0.0
C161 C 0.13671 0.84203 0.52957 0.0
C162 C 0.11451 0.03138 0.73706 0.0
C163 C 0.03554 0.1081 0.93986 0.0
C164 C 0.9453 0.0433 0.44848 0.0
C165 C 0.9182 0.08974 0.43006 0.0
C166 C 0.93266 0.12871 0.53622 0.0
C167 C 0.89056 0.10017 0.2796 0.0
C168 C 0.92085 0.18317 0.2892 0.0
C169 C 0.88942 0.1483 0.21386 0.0
C170 C 0.93488 0.17572 0.46389 0.0
C171 C 0.94581 1.01326 -0.0008 0.0
O172 O 0.02474 0.92112 0.93825 0.0
O173 O 1.00692 0.93999 0.65506 0.0
O174 O 0.12562 0.95342 0.05177 0.0
O175 O 0.07836 0.97436 0.26904 0.0
O176 O 0.11459 0.0465 0.89606 0.0
O177 O 0.08061 1.00015 0.71545 0.0
O178 O 0.03138 0.09496 0.7752 0.0
O179 O 0.03959 0.07322 0.06395 0.0
O180 O 0.93107 1.01457 0.57582 0.0
O181 O 0.99318 0.04799 0.44268 0.0
O182 O 0.95096 0.05297 0.90815 0.0
O183 O 0.97988 0.98445 -0.0417 0.0
H184 H 0.16066 0.91714 0.52034 0.0
H185 H 0.08794 0.86334 0.05986 0.0
H186 H 0.0712 0.78606 0.21189 0.0
H187 H 0.14747 0.83807 0.66579 0.0
H188 H 0.95115 0.12179 0.65896 0.0
H189 H 0.87539 0.07106 0.20252 0.0
H190 H 0.8753 0.15421 0.08245 0.0
H191 H 0.95972 0.20112 0.52417 0.0
Gd192 Gd 0.54425 0.05643 0.86117 0.0
Gd193 Gd 0.52369 0.02684 0.61081 0.0
C194 C 0.63792 1.01468 0.72796 0.0
C195 C 0.60421 0.0625 0.12557 0.0
C196 C 0.65809 0.06825 0.15152 0.0
C197 C 0.67932 0.11414 0.18619 0.0
C198 C 0.68814 0.02641 0.16591 0.0
C199 C 0.74894 0.07259 0.32276 0.0
C200 C 0.73557 0.0297 0.23518 0.0
C201 C 0.7259 0.11642 0.26599 0.0
C202 C 0.53929 0.14028 0.68254 0.0
C203 C 0.43213 0.0564 0.81087 0.0
C204 C 0.48716 0.99557 0.32316 0.0
C205 C 0.43844 0.97095 0.30437 0.0
C206 C 0.43438 0.92292 0.24032 0.0
C207 C 0.39435 0.99629 0.33867 0.0
C208 C 0.35084 0.9414 0.14887 0.0
C209 C 0.34966 0.9784 0.27443 0.0
C210 C 0.38962 0.90726 0.16702 0.0
C211 C 0.53127 0.94653 0.81359 0.0
O212 O 0.60297 0.04056 0.65747 0.0
O213 O 0.60485 0.04265 0.64503 0.0
O214 O 0.57877 0.09966 0.06688 0.0
O215 O 0.58964 0.02138 0.05936 0.0
O216 O 0.51404 0.13125 0.82393 0.0
O217 O 0.55829 0.10122 0.62179 0.0
O218 O 0.44982 0.05927 0.65512 0.0
O219 O 0.46461 0.05171 0.93704 0.0
O220 O 0.52146 0.97157 0.40616 0.0
O221 O 0.48665 0.04184 0.36365 0.0
O222 O 0.55401 0.95244 0.66751 0.0
O223 O 0.50743 0.98446 0.85525 0.0
H224 H 0.65805 0.14748 0.17086 0.0
H225 H 0.67372 0.99042 0.13791 0.0
H226 H 0.75479 0.99569 0.26353 0.0
H227 H 0.73733 0.15102 0.3205 0.0
H228 H 0.46625 0.89979 0.22956 0.0
H229 H 0.39458 0.0319 0.39897 0.0
H230 H 0.31822 1.00234 0.27766 0.0
H231 H 0.38984 0.87453 0.08832 0.0
Gd232 Gd 0.47614 0.53148 -0.03128 0.0
Gd233 Gd 0.52659 0.51039 0.75375 0.0
C234 C 0.51808 0.62698 0.81103 0.0
C235 C 0.42278 0.58663 0.17116 0.0
C236 C 0.4179 0.63789 0.2256 0.0
C237 C 0.37584 0.65281 0.3169 0.0
C238 C 0.45628 0.67125 0.20118 0.0
C239 C 0.4203 0.72385 0.41878 0.0
C240 C 0.45547 0.71607 0.28761 0.0
C241 C 0.37643 0.69681 0.40989 0.0
C242 C 0.41322 0.48109 0.77363 0.0
C243 C 0.50531 0.42043 -0.02424 0.0
C244 C 0.58484 0.50071 0.48919 0.0
C245 C 0.61916 0.45874 0.47479 0.0
C246 C 0.6511 0.45448 0.33259 0.0
C247 C 0.60988 0.41646 0.576 0.0
C248 C 0.63438 0.36748 0.33052 0.0
C249 C 0.61774 0.37044 0.50379 0.0
C250 C 0.66034 0.40807 0.2628 0.0
C251 C 0.59074 0.52319 0.01913 0.0
O252 O 0.49633 0.5873 0.75619 0.0
O253 O 0.49526 0.58788 0.75003 0.0
O254 O 0.41284 0.5783 0.00832 0.0
O255 O 0.46128 0.56217 0.22551 0.0
O256 O 0.42081 0.47296 0.93851 0.0
O257 O 0.44471 0.51078 0.71009 0.0
O258 O 0.50773 0.4322 0.81074 0.0
O259 O 0.49892 0.45733 0.08416 0.0
O260 O 0.59348 0.53143 0.61335 0.0
O261 O 0.5386 0.48877 0.48418 0.0
O262 O 0.58482 0.48222 0.93948 0.0
O263 O 0.5549 0.55077 -0.0146 0.0
H264 H 0.34489 0.62826 0.33198 0.0
H265 H 0.48906 0.6606 0.13213 0.0
H266 H 0.4889 0.73715 0.28879 0.0
H267 H 0.34746 0.7033 0.50391 0.0
H268 H 0.66493 0.48658 0.26721 0.0
H269 H 0.58885 0.4185 0.69473 0.0
H270 H 0.59772 0.34023 0.56088 0.0
H271 H 0.67748 0.40621 0.13501 0.0
Gd272 Gd 0.97943 0.47635 -0.03934 0.0
Gd273 Gd 1.017 0.52695 0.67268 0.0
C274 C 0.90364 0.53364 0.73262 0.0
C275 C 0.91579 0.42766 0.14439 0.0
C276 C 0.86369 0.43402 0.19071 0.0
C277 C 0.83854 0.39743 0.28409 0.0
C278 C 0.83871 0.47763 0.15065 0.0
C279 C 0.77938 0.45868 0.37194 0.0
C280 C 0.79319 0.48735 0.2267 0.0
C281 C 0.7956 0.40966 0.37537 0.0
C282 C 1.00658 0.41196 0.7143 0.0
C283 C 0.09445 0.47986 0.93155 0.0
C284 C 0.05287 0.57438 0.40813 0.0
C285 C 0.10329 0.59387 0.38905 0.0
C286 C 0.11748 0.6189 0.23566 0.0
C287 C 0.14056 0.57572 0.50003 0.0
C288 C 0.1962 0.57833 0.25399 0.0
C289 C 0.18818 0.57028 0.43386 0.0
C290 C 0.16545 0.61331 0.17232 0.0
C291 C 1.01655 0.58511 -0.04083 0.0
O292 O 0.91944 0.52993 0.89334 0.0
O293 O 0.936 0.5274 0.60646 0.0
O294 O 0.923 0.42151 -0.02228 0.0
O295 O 0.94823 0.45722 0.21561 0.0
O296 O 0.02454 0.4135 0.87025 0.0
O297 O 0.98356 0.45199 0.68317 0.0
O298 O 0.08402 0.48569 0.76401 0.0
O299 O 0.05858 0.48258 0.0498 0.0
O300 O 0.02495 0.59519 0.52424 0.0
O301 O 0.04999 0.52648 0.41526 0.0
O302 O 0.05445 0.57668 0.8636 0.0
O303 O 0.98266 0.55678 0.91367 0.0
H304 H 0.85442 0.36146 0.2988 0.0
H305 H 0.85654 0.50642 0.08016 0.0
H306 H 0.77874 0.52418 0.21237 0.0
H307 H 0.78194 0.38438 0.47426 0.0
H308 H 0.09097 0.63753 0.15479 0.0
H309 H 0.13178 0.55962 0.62629 0.0
H310 H 0.21459 0.5501 0.51084 0.0
H311 H 0.17285 0.62518 0.03891 0.0
loop_
_geom_bond_atom_site_label_1
_geom_bond_atom_site_label_2
_geom_bond_distance
_geom_bond_site_symmetry_2
_ccdc_geom_bond_type
H0 C1 0.949 . S
C1 H0 0.949 . S
C1 C2 1.395 . S
C1 C3 1.391 . S
C2 C1 1.395 . S
C2 C5 1.390 . S
C3 C1 1.391 . S
C3 C7 1.387 . S
C3 C8 1.491 . S
H4 C5 0.950 . S
C5 C2 1.390 . S
C5 H4 0.950 . S
C5 C6 1.378 . S
C6 C5 1.378 . S
C6 C7 1.409 . S
C7 C3 1.387 . S
C7 C6 1.409 . S
C7 H9 0.951 1_556 S
C8 C3 1.491 . S
C8 C10 1.382 . S
C8 C12 1.404 . S
H9 C7 0.951 1_554 S
C10 C8 1.382 . S
C10 C11 1.390 . S
C10 H15 0.949 . S
C11 C10 1.390 . S
C11 C16 1.399 . S
C12 C8 1.404 . S
C12 H13 0.950 . S
C12 C14 1.375 . S
H13 C12 0.950 . S
C14 C12 1.375 . S
C14 C16 1.382 . S
C14 H18 0.950 . S
H15 C10 0.949 . S
C16 C11 1.399 . S
C16 C14 1.382 . S
C16 H17 0.952 . S
H17 C16 0.952 . S
H18 C14 0.950 . S
H19 C20 0.949 . S
C20 H19 0.949 . S
C20 C21 1.395 . S
C20 C22 1.391 . S
C21 C20 1.395 . S
C21 C24 1.390 1_655 S
C22 C20 1.391 . S
C22 C26 1.387 . S
C22 C27 1.491 . S
H23 C24 0.950 . S
C24 C21 1.390 1_455 S
C24 H23 0.950 . S
C24 C25 1.377 1_455 S
C25 C24 1.377 1_655 S
C25 C26 1.413 . S
C26 C22 1.387 . S
C26 C25 1.413 . S
C26 H28 0.951 1_556 S
C27 C22 1.491 . S
C27 C29 1.382 . S
C27 C31 1.404 . S
H28 C26 0.951 1_554 S
C29 C27 1.382 . S
C29 C30 1.390 . S
C29 H34 0.949 1_655 S
C30 C29 1.390 . S
C30 C35 1.399 . S
C31 C27 1.404 . S
C31 H32 0.950 . S
C31 C33 1.375 . S
H32 C31 0.950 . S
C33 C31 1.375 . S
C33 C35 1.382 . S
C33 H37 0.950 . S
H34 C29 0.949 1_455 S
C35 C30 1.399 . S
C35 C33 1.382 . S
C35 H36 0.952 . S
H36 C35 0.952 . S
H37 C33 0.950 . S
H38 C39 0.949 . S
C39 H38 0.949 . S
C39 C40 1.395 . S
C39 C41 1.391 . S
C40 C39 1.395 . S
C40 C43 1.390 1_565 S
C41 C39 1.391 . S
C41 C45 1.387 . S
C41 C46 1.491 . S
H42 C43 0.950 . S
C43 C40 1.390 1_545 S
C43 H42 0.950 . S
C43 C44 1.377 1_545 S
C44 C43 1.377 1_565 S
C44 C45 1.413 . S
C45 C41 1.387 . S
C45 C44 1.413 . S
C45 H47 0.951 1_556 S
C46 C41 1.491 . S
C46 C48 1.382 . S
C46 C50 1.404 . S
H47 C45 0.951 1_554 S
C48 C46 1.382 . S
C48 C49 1.390 . S
C48 H53 0.949 1_565 S
C49 C48 1.390 . S
C49 C54 1.399 . S
C50 C46 1.404 . S
C50 H51 0.950 . S
C50 C52 1.375 . S
H51 C50 0.950 . S
C52 C50 1.375 . S
C52 C54 1.382 . S
C52 H56 0.950 . S
H53 C48 0.949 1_545 S
C54 C49 1.399 . S
C54 C52 1.382 . S
C54 H55 0.952 . S
H55 C54 0.952 . S
H56 C52 0.950 . S
H57 C58 0.949 . S
C58 H57 0.949 . S
C58 C59 1.395 . S
C58 C60 1.391 . S
C59 C58 1.395 . S
C59 C62 1.390 . S
C60 C58 1.391 . S
C60 C64 1.387 . S
C60 C65 1.491 . S
H61 C62 0.950 . S
C62 C59 1.390 . S
C62 H61 0.950 . S
C62 C63 1.378 . S
C63 C62 1.378 . S
C63 C64 1.409 . S
C64 C60 1.387 . S
C64 C63 1.409 . S
C64 H66 0.951 1_556 S
C65 C60 1.491 . S
C65 C67 1.382 . S
C65 C69 1.404 . S
H66 C64 0.951 1_554 S
C67 C65 1.382 . S
C67 C68 1.390 . S
C67 H72 0.949 . S
C68 C67 1.390 . S
C68 C73 1.399 . S
C69 C65 1.404 . S
C69 H70 0.950 . S
C69 C71 1.375 . S
H70 C69 0.950 . S
C71 C69 1.375 . S
C71 C73 1.382 . S
C71 H75 0.950 . S
H72 C67 0.949 . S
C73 C68 1.399 . S
C73 C71 1.382 . S
C73 H74 0.952 . S
H74 C73 0.952 . S
H75 C71 0.950 . S
H76 C77 0.949 . S
C77 H76 0.949 . S
C77 C78 1.395 . S
C77 C79 1.391 1_554 S
C78 C77 1.395 . S
C78 C81 1.390 1_554 S
C79 C77 1.391 1_556 S
C79 C83 1.387 . S
C79 C84 1.491 . S
H80 C81 0.950 . S
C81 C78 1.390 1_556 S
C81 H80 0.950 . S
C81 C82 1.378 . S
C82 C81 1.378 . S
C82 C83 1.409 . S
C83 C79 1.387 . S
C83 C82 1.409 . S
C83 H85 0.951 . S
C84 C79 1.491 . S
C84 C86 1.382 1_556 S
C84 C88 1.404 . S
H85 C83 0.951 . S
C86 C84 1.382 1_554 S
C86 C87 1.390 . S
C86 H91 0.949 . S
C87 C86 1.390 . S
C87 C92 1.399 1_554 S
C88 C84 1.404 . S
C88 H89 0.950 . S
C88 C90 1.375 . S
H89 C88 0.950 . S
C90 C88 1.375 . S
C90 C92 1.382 . S
C90 H94 0.950 . S
H91 C86 0.949 . S
C92 C87 1.399 1_556 S
C92 C90 1.382 . S
C92 H93 0.951 . S
H93 C92 0.951 . S
H94 C90 0.950 . S
H95 C96 0.949 . S
C96 H95 0.949 . S
C96 C97 1.395 . S
C96 C98 1.391 1_554 S
C97 C96 1.395 . S
C97 C100 1.390 1_654 S
C98 C96 1.391 1_556 S
C98 C102 1.387 . S
C98 C103 1.491 . S
H99 C100 0.950 . S
C100 C97 1.390 1_456 S
C100 H99 0.950 . S
C100 C101 1.377 1_455 S
C101 C100 1.377 1_655 S
C101 C102 1.412 . S
C102 C98 1.387 . S
C102 C101 1.412 . S
C102 H104 0.951 . S
C103 C98 1.491 . S
C103 C105 1.382 1_556 S
C103 C107 1.404 . S
H104 C102 0.951 . S
C105 C103 1.382 1_554 S
C105 C106 1.390 . S
C105 H110 0.949 1_655 S
C106 C105 1.390 . S
C106 C111 1.399 . S
C107 C103 1.404 . S
C107 H108 0.950 . S
C107 C109 1.375 . S
H108 C107 0.950 . S
C109 C107 1.375 . S
C109 C111 1.382 1_556 S
C109 H113 0.950 . S
H110 C105 0.949 1_455 S
C111 C106 1.399 . S
C111 C109 1.382 1_554 S
C111 H112 0.952 . S
H112 C111 0.952 . S
H113 C109 0.950 . S
H114 C115 0.949 . S
C115 H114 0.949 . S
C115 C116 1.395 . S
C115 C117 1.391 1_554 S
C116 C115 1.395 . S
C116 C119 1.390 1_564 S
C117 C115 1.391 1_556 S
C117 C121 1.387 . S
C117 C122 1.491 . S
H118 C119 0.950 . S
C119 C116 1.390 1_546 S
C119 H118 0.950 . S
C119 C120 1.377 1_545 S
C120 C119 1.377 1_565 S
C120 C121 1.412 . S
C121 C117 1.387 . S
C121 C120 1.412 . S
C121 H123 0.951 . S
C122 C117 1.491 . S
C122 C124 1.382 1_556 S
C122 C126 1.404 . S
H123 C121 0.951 . S
C124 C122 1.382 1_554 S
C124 C125 1.390 . S
C124 H129 0.949 1_565 S
C125 C124 1.390 . S
C125 C130 1.399 . S
C126 C122 1.404 . S
C126 H127 0.950 . S
C126 C128 1.375 . S
H127 C126 0.950 . S
C128 C126 1.375 . S
C128 C130 1.382 1_556 S
C128 H132 0.950 . S
H129 C124 0.949 1_545 S
C130 C125 1.399 . S
C130 C128 1.382 1_554 S
C130 H131 0.952 . S
H131 C130 0.952 . S
H132 C128 0.950 . S
H133 C134 0.949 . S
C134 H133 0.949 . S
C134 C135 1.395 . S
C134 C136 1.391 1_554 S
C135 C134 1.395 . S
C135 C138 1.390 1_554 S
C136 C134 1.391 1_556 S
C136 C140 1.387 . S
C136 C141 1.491 . S
H137 C138 0.950 . S
C138 C135 1.390 1_556 S
C138 H137 0.950 . S
C138 C139 1.378 . S
C139 C138 1.378 . S
C139 C140 1.409 . S
C140 C136 1.387 . S
C140 C139 1.409 . S
C140 H142 0.951 . S
C141 C136 1.491 . S
C141 C143 1.382 1_556 S
C141 C145 1.404 . S
H142 C140 0.951 . S
C143 C141 1.382 1_554 S
C143 C144 1.390 . S
C143 H148 0.949 . S
C144 C143 1.390 . S
C144 C149 1.399 1_554 S
C145 C141 1.404 . S
C145 H146 0.950 . S
C145 C147 1.375 . S
H146 C145 0.950 . S
C147 C145 1.375 . S
C147 C149 1.382 . S
C147 H151 0.950 . S
H148 C143 0.949 . S
C149 C144 1.399 1_556 S
C149 C147 1.382 . S
C149 H150 0.952 1_556 S
H150 C149 0.952 1_554 S
H151 C147 0.950 . S
Gd152 C155 2.818 . S
Gd152 O172 2.377 1_554 S
Gd152 O174 2.448 . S
Gd152 O175 2.506 . S
Gd152 O176 2.435 1_554 S
Gd152 O177 2.717 1_564 S
Gd152 O179 2.395 1_565 S
Gd152 O183 2.327 1_455 S
Gd153 C164 2.818 . S
Gd153 O173 2.395 1_545 S
Gd153 O177 2.327 1_655 S
Gd153 O178 2.377 . S
Gd153 O180 2.448 . S
Gd153 O181 2.506 . S
Gd153 O182 2.435 . S
Gd153 O183 2.717 1_546 S
C154 O172 1.240 1_655 S
C154 O173 1.240 . S
C155 Gd152 2.818 . S
C155 C156 1.510 . S
C155 O174 1.249 . S
C155 O175 1.252 . S
C156 C155 1.510 . S
C156 C157 1.404 . S
C156 C158 1.352 . S
C157 C156 1.404 . S
C157 C161 1.389 . S
C157 H184 0.930 . S
C158 C156 1.352 . S
C158 C160 1.374 . S
C158 H185 0.931 1_455 S
C159 C160 1.359 . S
C159 C161 1.364 . S
C160 C158 1.374 . S
C160 C159 1.359 . S
C160 H186 0.931 . S
C161 C157 1.389 . S
C161 C159 1.364 . S
C161 H187 0.931 . S
C162 O176 1.256 . S
C162 O177 1.257 1_565 S
C163 O178 1.240 1_455 S
C163 O179 1.240 1_556 S
C164 Gd153 2.818 . S
C164 C165 1.510 . S
C164 O180 1.249 . S
C164 O181 1.252 . S
C165 C164 1.510 . S
C165 C166 1.404 . S
C165 C167 1.352 . S
C166 C165 1.404 . S
C166 C170 1.389 . S
C166 H188 0.930 . S
C167 C165 1.352 . S
C167 C169 1.374 . S
C167 H189 0.931 1_655 S
C168 C169 1.359 . S
C168 C170 1.364 . S
C169 C167 1.374 . S
C169 C168 1.359 . S
C169 H190 0.931 . S
C170 C166 1.389 . S
C170 C168 1.364 . S
C170 H191 0.931 . S
C171 O182 1.256 1_554 S
C171 O183 1.257 1_545 S
O172 Gd152 2.377 1_556 S
O172 C154 1.240 1_455 S
O173 Gd153 2.395 1_565 S
O173 C154 1.240 . S
O174 Gd152 2.448 . S
O174 C155 1.249 . S
O175 Gd152 2.506 . S
O175 C155 1.252 . S
O176 Gd152 2.435 1_556 S
O176 C162 1.256 . S
O177 Gd152 2.717 1_546 S
O177 Gd153 2.327 1_455 S
O177 C162 1.257 1_545 S
O178 Gd153 2.377 . S
O178 C163 1.240 1_655 S
O179 Gd152 2.395 1_545 S
O179 C163 1.240 1_554 S
O180 Gd153 2.448 . S
O180 C164 1.249 . S
O181 Gd153 2.506 . S
O181 C164 1.252 . S
O182 Gd153 2.435 . S
O182 C171 1.256 1_556 S
O183 Gd152 2.327 1_655 S
O183 Gd153 2.717 1_564 S
O183 C171 1.257 1_565 S
H184 C157 0.930 . S
H185 C158 0.931 1_655 S
H186 C160 0.931 . S
H187 C161 0.931 . S
H188 C166 0.930 . S
H189 C167 0.931 1_455 S
H190 C169 0.931 . S
H191 C170 0.931 . S
Gd192 C195 2.818 . S
Gd192 O212 2.377 1_554 S
Gd192 O214 2.448 . S
Gd192 O215 2.506 . S
Gd192 O216 2.435 1_554 S
Gd192 O217 2.717 1_554 S
Gd192 O219 2.395 . S
Gd192 O223 2.327 1_545 S
Gd193 C204 2.818 . S
Gd193 O213 2.395 . S
Gd193 O217 2.327 1_565 S
Gd193 O218 2.377 . S
Gd193 O220 2.448 . S
Gd193 O221 2.506 . S
Gd193 O222 2.435 . S
Gd193 O223 2.717 1_556 S
C194 O212 1.240 1_565 S
C194 O213 1.240 . S
C195 Gd192 2.818 . S
C195 C196 1.510 . S
C195 O214 1.249 . S
C195 O215 1.252 . S
C196 C195 1.510 . S
C196 C197 1.404 . S
C196 C198 1.352 . S
C197 C196 1.404 . S
C197 C201 1.389 . S
C197 H224 0.930 . S
C198 C196 1.352 . S
C198 C200 1.374 . S
C198 H225 0.931 1_545 S
C199 C200 1.359 . S
C199 C201 1.364 . S
C200 C198 1.374 . S
C200 C199 1.359 . S
C200 H226 0.936 . S
C201 C197 1.389 . S
C201 C199 1.364 . S
C201 H227 0.931 . S
C202 O216 1.256 . S
C202 O217 1.257 . S
C203 O218 1.240 1_545 S
C203 O219 1.240 1_556 S
C204 Gd193 2.818 . S
C204 C205 1.510 . S
C204 O220 1.249 . S
C204 O221 1.252 . S
C205 C204 1.510 . S
C205 C206 1.404 . S
C205 C207 1.352 . S
C206 C205 1.404 . S
C206 C210 1.389 . S
C206 H228 0.930 . S
C207 C205 1.352 . S
C207 C209 1.374 . S
C207 H229 0.931 1_565 S
C208 C209 1.359 . S
C208 C210 1.364 . S
C209 C207 1.374 . S
C209 C208 1.359 . S
C209 H230 0.932 . S
C210 C206 1.389 . S
C210 C208 1.364 . S
C210 H231 0.931 . S
C211 O222 1.256 1_554 S
C211 O223 1.257 . S
O212 Gd192 2.377 1_556 S
O212 C194 1.240 1_545 S
O213 Gd193 2.395 . S
O213 C194 1.240 . S
O214 Gd192 2.448 . S
O214 C195 1.249 . S
O215 Gd192 2.506 . S
O215 C195 1.252 . S
O216 Gd192 2.435 1_556 S
O216 C202 1.256 . S
O217 Gd192 2.717 1_556 S
O217 Gd193 2.327 1_545 S
O217 C202 1.257 . S
O218 Gd193 2.377 . S
O218 C203 1.240 1_565 S
O219 Gd192 2.395 . S
O219 C203 1.240 1_554 S
O220 Gd193 2.448 . S
O220 C204 1.249 . S
O221 Gd193 2.506 . S
O221 C204 1.252 . S
O222 Gd193 2.435 . S
O222 C211 1.256 1_556 S
O223 Gd192 2.327 1_565 S
O223 Gd193 2.717 1_554 S
O223 C211 1.257 . S
H224 C197 0.930 . S
H225 C198 0.931 1_565 S
H226 C200 0.936 . S
H227 C201 0.931 . S
H228 C206 0.930 . S
H229 C207 0.931 1_545 S
H230 C209 0.932 . S
H231 C210 0.931 . S
Gd232 C235 2.818 . S
Gd232 O252 2.377 1_554 S
Gd232 O254 2.448 . S
Gd232 O255 2.506 . S
Gd232 O256 2.435 1_554 S
Gd232 O257 2.717 1_554 S
Gd232 O259 2.395 . S
Gd232 O263 2.327 . S
Gd233 C244 2.818 . S
Gd233 O253 2.395 . S
Gd233 O257 2.327 . S
Gd233 O258 2.377 . S
Gd233 O260 2.448 . S
Gd233 O261 2.506 . S
Gd233 O262 2.435 . S
Gd233 O263 2.717 1_556 S
C234 O252 1.240 . S
C234 O253 1.240 . S
C235 Gd232 2.818 . S
C235 C236 1.510 . S
C235 O254 1.249 . S
C235 O255 1.252 . S
C236 C235 1.510 . S
C236 C237 1.404 . S
C236 C238 1.352 . S
C237 C236 1.404 . S
C237 C241 1.389 . S
C237 H264 0.930 . S
C238 C236 1.352 . S
C238 C240 1.374 . S
C238 H265 0.931 . S
C239 C240 1.359 . S
C239 C241 1.364 . S
C240 C238 1.374 . S
C240 C239 1.359 . S
C240 H266 0.931 . S
C241 C237 1.389 . S
C241 C239 1.364 . S
C241 H267 0.931 . S
C242 O256 1.256 . S
C242 O257 1.257 . S
C243 O258 1.240 . S
C243 O259 1.240 1_556 S
C244 Gd233 2.818 . S
C244 C245 1.510 . S
C244 O260 1.249 . S
C244 O261 1.252 . S
C245 C244 1.510 . S
C245 C246 1.404 . S
C245 C247 1.352 . S
C246 C245 1.404 . S
C246 C250 1.389 . S
C246 H268 0.930 . S
C247 C245 1.352 . S
C247 C249 1.374 . S
C247 H269 0.931 . S
C248 C249 1.359 . S
C248 C250 1.364 . S
C249 C247 1.374 . S
C249 C248 1.359 . S
C249 H270 0.931 . S
C250 C246 1.389 . S
C250 C248 1.364 . S
C250 H271 0.931 . S
C251 O262 1.256 1_554 S
C251 O263 1.257 . S
O252 Gd232 2.377 1_556 S
O252 C234 1.240 . S
O253 Gd233 2.395 . S
O253 C234 1.240 . S
O254 Gd232 2.448 . S
O254 C235 1.249 . S
O255 Gd232 2.506 . S
O255 C235 1.252 . S
O256 Gd232 2.435 1_556 S
O256 C242 1.256 . S
O257 Gd232 2.717 1_556 S
O257 Gd233 2.327 . S
O257 C242 1.257 . S
O258 Gd233 2.377 . S
O258 C243 1.240 . S
O259 Gd232 2.395 . S
O259 C243 1.240 1_554 S
O260 Gd233 2.448 . S
O260 C244 1.249 . S
O261 Gd233 2.506 . S
O261 C244 1.252 . S
O262 Gd233 2.435 . S
O262 C251 1.256 1_556 S
O263 Gd232 2.327 . S
O263 Gd233 2.717 1_554 S
O263 C251 1.257 . S
H264 C237 0.930 . S
H265 C238 0.931 . S
H266 C240 0.931 . S
H267 C241 0.931 . S
H268 C246 0.930 . S
H269 C247 0.931 . S
H270 C249 0.931 . S
H271 C250 0.931 . S
Gd272 C275 2.818 . S
Gd272 O292 2.377 1_554 S
Gd272 O294 2.448 . S
Gd272 O295 2.506 . S
Gd272 O296 2.435 1_554 S
Gd272 O297 2.717 1_654 S
Gd272 O299 2.395 1_655 S
Gd272 O303 2.327 . S
Gd273 C284 2.818 . S
Gd273 O293 2.395 1_455 S
Gd273 O297 2.327 . S
Gd273 O298 2.377 . S
Gd273 O300 2.448 . S
Gd273 O301 2.506 . S
Gd273 O302 2.435 . S
Gd273 O303 2.717 1_456 S
C274 O292 1.240 . S
C274 O293 1.240 . S
C275 Gd272 2.818 . S
C275 C276 1.510 . S
C275 O294 1.249 . S
C275 O295 1.252 . S
C276 C275 1.510 . S
C276 C277 1.404 . S
C276 C278 1.352 . S
C277 C276 1.404 . S
C277 C281 1.389 . S
C277 H304 0.930 . S
C278 C276 1.352 . S
C278 C280 1.374 . S
C278 H305 0.931 . S
C279 C280 1.359 . S
C279 C281 1.364 . S
C280 C278 1.374 . S
C280 C279 1.359 . S
C280 H306 0.931 . S
C281 C277 1.389 . S
C281 C279 1.364 . S
C281 H307 0.931 . S
C282 O296 1.265 . S
C282 O297 1.252 1_655 S
C283 O298 1.240 . S
C283 O299 1.240 1_556 S
C284 Gd273 2.818 . S
C284 C285 1.510 . S
C284 O300 1.249 . S
C284 O301 1.252 . S
C285 C284 1.510 . S
C285 C286 1.404 . S
C285 C287 1.352 . S
C286 C285 1.404 . S
C286 C290 1.389 . S
C286 H308 0.930 . S
C287 C285 1.352 . S
C287 C289 1.374 . S
C287 H309 0.931 . S
C288 C289 1.359 . S
C288 C290 1.364 . S
C289 C287 1.374 . S
C289 C288 1.359 . S
C289 H310 0.931 . S
C290 C286 1.389 . S
C290 C288 1.364 . S
C290 H311 0.931 . S
C291 O302 1.256 1_554 S
C291 O303 1.257 1_455 S
O292 Gd272 2.377 1_556 S
O292 C274 1.240 . S
O293 Gd273 2.395 1_655 S
O293 C274 1.240 . S
O294 Gd272 2.448 . S
O294 C275 1.249 . S
O295 Gd272 2.506 . S
O295 C275 1.252 . S
O296 Gd272 2.435 1_556 S
O296 C282 1.265 . S
O297 Gd272 2.717 1_456 S
O297 Gd273 2.327 . S
O297 C282 1.252 1_455 S
O298 Gd273 2.377 . S
O298 C283 1.240 . S
O299 Gd272 2.395 1_455 S
O299 C283 1.240 1_554 S
O300 Gd273 2.448 . S
O300 C284 1.249 . S
O301 Gd273 2.506 . S
O301 C284 1.252 . S
O302 Gd273 2.435 . S
O302 C291 1.256 1_556 S
O303 Gd272 2.327 . S
O303 Gd273 2.717 1_654 S
O303 C291 1.257 1_655 S
H304 C277 0.930 . S
H305 C278 0.931 . S
H306 C280 0.931 . S
H307 C281 0.931 . S
H308 C286 0.930 . S
H309 C287 0.931 . S
H310 C289 0.931 . S
H311 C290 0.931 . S
C125 C162 3.017 1_554 S
C202 C144 3.044 1_556 S
C242 C87 3.052 1_556 S
C282 C106 3.018 1_556 S
C171 C49 3.038 1_544 S
C68 C211 2.990 1_556 S
C11 C251 2.984 1_556 S
C30 C291 3.022 1_656 S
C168 C97 2.097 . S
C208 C116 2.014 . S
C248 C135 1.914 . S
C78 C288 1.989 . S
C21 C159 2.108 1_655 S
C199 C40 2.025 1_545 S
C239 C59 1.926 . S
C2 C279 2.000 . S
C101 C163 3.921 1_655 S
C120 C203 3.874 1_565 S
C243 C139 3.882 . S
C283 C82 3.928 . S
C25 C154 3.926 . S
C194 C44 3.873 . S
C234 C63 3.873 . S
C6 C274 3.925 . S
