# Generated by pormake.
# Topology the, (3,8)-cn, num edge types: 1
# Building blocks:
#     Node 0, Type 0, BuildingBlock: PAMTOO_clean_linker_0, # of connection points: 3
#     Node 1, Type 0, BuildingBlock: PAMTOO_clean_linker_0, # of connection points: 3
#     Node 2, Type 0, BuildingBlock: PAMTOO_clean_linker_0, # of connection points: 3
#     Node 3, Type 0, BuildingBlock: PAMTOO_clean_linker_0, # of connection points: 3
#     Node 4, Type 0, BuildingBlock: PAMTOO_clean_linker_0, # of connection points: 3
#     Node 5, Type 0, BuildingBlock: PAMTOO_clean_linker_0, # of connection points: 3
#     Node 6, Type 0, BuildingBlock: PAMTOO_clean_linker_0, # of connection points: 3
#     Node 7, Type 0, BuildingBlock: PAMTOO_clean_linker_0, # of connection points: 3
#     Node 8, Type 1, BuildingBlock: GIZVER_clean_sbu_0, # of connection points: 8
#     Node 9, Type 1, BuildingBlock: GIZVER_clean_sbu_0, # of connection points: 8
#     Node 10, Type 1, BuildingBlock: GIZVER_clean_sbu_0, # of connection points: 8
#     Edge 11, Type (0, 1), BuildingBlock: EZIPEK_clean_linker_0, # of connection points: 2
#     Edge 12, Type (0, 1), BuildingBlock: EZIPEK_clean_linker_0, # of connection points: 2
#     Edge 13, Type (0, 1), BuildingBlock: EZIPEK_clean_linker_0, # of connection points: 2
#     Edge 14, Type (0, 1), BuildingBlock: EZIPEK_clean_linker_0, # of connection points: 2
#     Edge 15, Type (0, 1), BuildingBlock: EZIPEK_clean_linker_0, # of connection points: 2
#     Edge 16, Type (0, 1), BuildingBlock: EZIPEK_clean_linker_0, # of connection points: 2
#     Edge 17, Type (0, 1), BuildingBlock: EZIPEK_clean_linker_0, # of connection points: 2
#     Edge 18, Type (0, 1), BuildingBlock: EZIPEK_clean_linker_0, # of connection points: 2
#     Edge 19, Type (0, 1), BuildingBlock: EZIPEK_clean_linker_0, # of connection points: 2
#     Edge 20, Type (0, 1), BuildingBlock: EZIPEK_clean_linker_0, # of connection points: 2
#     Edge 21, Type (0, 1), BuildingBlock: EZIPEK_clean_linker_0, # of connection points: 2
#     Edge 22, Type (0, 1), BuildingBlock: EZIPEK_clean_linker_0, # of connection points: 2
#     Edge 23, Type (0, 1), BuildingBlock: EZIPEK_clean_linker_0, # of connection points: 2
#     Edge 24, Type (0, 1), BuildingBlock: EZIPEK_clean_linker_0, # of connection points: 2
#     Edge 25, Type (0, 1), BuildingBlock: EZIPEK_clean_linker_0, # of connection points: 2
#     Edge 26, Type (0, 1), BuildingBlock: EZIPEK_clean_linker_0, # of connection points: 2
#     Edge 27, Type (0, 1), BuildingBlock: EZIPEK_clean_linker_0, # of connection points: 2
#     Edge 28, Type (0, 1), BuildingBlock: EZIPEK_clean_linker_0, # of connection points: 2
#     Edge 29, Type (0, 1), BuildingBlock: EZIPEK_clean_linker_0, # of connection points: 2
#     Edge 30, Type (0, 1), BuildingBlock: EZIPEK_clean_linker_0, # of connection points: 2
#     Edge 31, Type (0, 1), BuildingBlock: EZIPEK_clean_linker_0, # of connection points: 2
#     Edge 32, Type (0, 1), BuildingBlock: EZIPEK_clean_linker_0, # of connection points: 2
#     Edge 33, Type (0, 1), BuildingBlock: EZIPEK_clean_linker_0, # of connection points: 2
#     Edge 34, Type (0, 1), BuildingBlock: EZIPEK_clean_linker_0, # of connection points: 2
# Relax obj value: 0.078
# Max RMSD: 0.245
# Mean RMSD: 0.139
data_MOF--net-the--node1-GIZVER_clean_sbu_0--node2-PAMTOO_clean_linker_0--edge1-EZIPEK_clean_linker_0
_symmetry_space_group_name_H-M    P1
_symmetry_Int_Tables_number       1
_symmetry_cell_setting            triclinic
loop_
_symmetry_equiv_pos_as_xyz
'x, y, z'
_cell_length_a     30.948745
_cell_length_b     28.491899
_cell_length_c     26.325509
_cell_angle_alpha  88.519339
_cell_angle_beta   96.799384
_cell_angle_gamma 112.54256
loop_
_atom_site_label
_atom_site_type_symbol
_atom_site_fract_x
_atom_site_fract_y
_atom_site_fract_z
_atom_type_partial_charge
H0 H 0.27299 0.43834 0.36964 0.0
H1 H 0.27942 0.36452 0.51343 0.0
H2 H 0.36825 0.36084 0.40175 0.0
H3 H 0.28756 0.26741 0.48171 0.0
C4 C 0.32137 0.28438 0.50729 0.0
O5 O 0.34489 0.33374 0.49335 0.0
H6 H 0.31298 0.28545 0.54701 0.0
C7 C 0.28718 0.41558 0.3947 0.0
C8 C 0.32312 0.40207 0.38013 0.0
C9 C 0.27036 0.4008 0.44221 0.0
C10 C 0.29093 0.37438 0.47586 0.0
C11 C 0.3252 0.35899 0.46061 0.0
C12 C 0.34065 0.37182 0.41253 0.0
H13 H 0.7499 0.30236 0.43314 0.0
H14 H 0.64103 0.28591 0.30903 0.0
H15 H 0.77055 0.41705 0.31812 0.0
H16 H 0.68291 0.43789 0.29353 0.0
C17 C 0.66011 0.40149 0.27332 0.0
O18 O 0.68637 0.37258 0.26694 0.0
H19 H 0.63308 0.38217 0.29946 0.0
C20 C 0.73799 0.31555 0.39726 0.0
C21 C 0.76677 0.36221 0.37767 0.0
C22 C 0.69239 0.28804 0.37284 0.0
C23 C 0.67651 0.30621 0.32723 0.0
C24 C 0.7044 0.35282 0.30767 0.0
C25 C 0.74956 0.38048 0.33269 0.0
H26 H 0.63347 0.79612 0.30474 0.0
H27 H 0.73165 0.72166 0.31073 0.0
H28 H 0.74425 0.82686 0.42832 0.0
H29 H 0.83983 0.8307 0.40428 0.0
C30 C 0.82638 0.79278 0.38496 0.0
O31 O 0.78023 0.76582 0.39387 0.0
H32 H 0.82874 0.80214 0.34386 0.0
C33 C 0.66591 0.79239 0.31986 0.0
C34 C 0.68751 0.81628 0.36782 0.0
C35 C 0.68446 0.76202 0.29422 0.0
C36 C 0.72095 0.75091 0.32294 0.0
C37 C 0.7437 0.77576 0.36945 0.0
C38 C 0.72736 0.8089 0.39151 0.0
H39 H 0.26279 0.77518 0.42406 0.0
H40 H 0.2135 0.68991 0.28216 0.0
H41 H 0.35714 0.79462 0.30976 0.0
H42 H 0.2561 0.658 0.2068 0.0
C43 C 0.28609 0.67324 0.23746 0.0
O44 O 0.2948 0.72403 0.24668 0.0
H45 H 0.27251 0.6491 0.27049 0.0
C46 C 0.26911 0.76664 0.38642 0.0
C47 C 0.31349 0.7931 0.36897 0.0
C48 C 0.2337 0.72742 0.35622 0.0
C49 C 0.24113 0.71889 0.30636 0.0
C50 C 0.2862 0.74061 0.29081 0.0
C51 C 0.32244 0.77737 0.32228 0.0
H52 H 0.30024 0.80232 0.68577 0.0
H53 H 0.27686 0.67968 0.79179 0.0
H54 H 0.40535 0.81222 0.81179 0.0
H55 H 0.40897 0.70961 0.81293 0.0
C56 C 0.38257 0.69178 0.84013 0.0
O57 O 0.35859 0.72268 0.84815 0.0
H58 H 0.3577 0.6559 0.82039 0.0
C59 C 0.3109 0.78705 0.72104 0.0
C60 C 0.3557 0.81319 0.74735 0.0
C61 C 0.28225 0.73847 0.73622 0.0
C62 C 0.29782 0.71771 0.78045 0.0
C63 C 0.34181 0.74473 0.80846 0.0
C64 C 0.37029 0.79278 0.79217 0.0
H65 H 0.27319 0.41353 0.80403 0.0
H66 H 0.23196 0.29456 0.6895 0.0
H67 H 0.34927 0.31491 0.80327 0.0
H68 H 0.35342 0.32334 0.68784 0.0
C69 C 0.32647 0.28516 0.67614 0.0
O70 O 0.30238 0.26687 0.71822 0.0
H71 H 0.30178 0.28931 0.64372 0.0
C72 C 0.27628 0.37988 0.78937 0.0
C73 C 0.31299 0.36529 0.81118 0.0
C74 C 0.247 0.3546 0.74524 0.0
C75 C 0.25279 0.31259 0.72486 0.0
C76 C 0.28991 0.29853 0.74549 0.0
C77 C 0.31935 0.32436 0.78901 0.0
H78 H 0.63424 0.30192 0.80898 0.0
H79 H 0.76093 0.43577 0.80748 0.0
H80 H 0.73278 0.31431 0.70083 0.0
H81 H 0.83164 0.35715 0.74411 0.0
C82 C 0.83595 0.39632 0.75437 0.0
O83 O 0.79414 0.40129 0.73609 0.0
H84 H 0.84269 0.40148 0.79671 0.0
C85 C 0.6672 0.3222 0.79356 0.0
C86 C 0.67963 0.3006 0.75239 0.0
C87 C 0.69523 0.37214 0.81167 0.0
C88 C 0.73899 0.3976 0.79361 0.0
C89 C 0.75304 0.37553 0.75518 0.0
C90 C 0.72263 0.32865 0.73325 0.0
H91 H 0.6578 0.77736 0.73892 0.0
H92 H 0.74737 0.69678 0.72145 0.0
H93 H 0.72789 0.79582 0.60328 0.0
H94 H 0.73844 0.68338 0.58232 0.0
C95 C 0.76757 0.69323 0.61386 0.0
O96 O 0.77447 0.73957 0.63485 0.0
H97 H 0.75609 0.66284 0.64248 0.0
C98 C 0.68132 0.76874 0.71675 0.0
C99 C 0.69107 0.79162 0.66919 0.0
C100 C 0.69995 0.73275 0.73451 0.0
C101 C 0.7319 0.72349 0.70711 0.0
C102 C 0.7421 0.74665 0.66009 0.0
C103 C 0.72016 0.77872 0.64011 0.0
Co104 Co 0.11036 0.50633 0.59069 0.0
Co105 Co 0.0676 0.48316 0.49775 0.0
Co106 Co 0.0299 0.5574 0.54367 0.0
O107 O 0.04858 0.49768 0.55765 0.0
H108 H 0.02353 0.46822 0.56879 0.0
O109 O 1.01328 0.61795 0.53033 0.0
Co110 Co 0.95841 0.61904 0.49011 0.0
Co111 Co 0.99163 0.63379 0.58791 0.0
H112 H 0.04086 0.6476 0.52497 0.0
O113 O 0.07559 0.42414 0.48337 0.0
O114 O 0.12918 0.49476 0.52448 0.0
O115 O 0.06956 0.52809 0.44099 0.0
O116 O 0.07778 0.59032 0.49348 0.0
O117 O 0.98153 0.51503 0.48725 0.0
O118 O 0.91053 0.62738 0.45237 0.0
O119 O 0.98002 0.6877 0.48275 0.0
O120 O 0.92755 0.54799 0.49107 0.0
O121 O 0.98141 0.52504 0.59318 0.0
O122 O 0.98497 0.58788 0.64372 0.0
O123 O 0.93234 0.62319 0.55355 0.0
O124 O 0.97836 0.69104 0.6 0.0
C125 C 0.14132 0.46063 0.62863 0.0
C126 C 0.12046 0.60448 0.60442 0.0
C127 C 0.08236 0.57514 0.44988 0.0
C128 C 0.11899 0.45207 0.49999 0.0
C129 C 0.93814 0.67513 0.4573 0.0
C130 C 0.93884 0.51163 0.47957 0.0
C131 C 0.97214 0.54093 0.63399 0.0
C132 C 0.93727 0.66468 0.57627 0.0
O133 O 0.16494 0.50894 0.62352 0.0
O134 O 0.09732 0.44034 0.60825 0.0
O135 O 0.07729 0.59862 0.60074 0.0
O136 O 0.13281 0.57607 0.57828 0.0
Co137 Co 0.55974 0.95791 0.51055 0.0
Co138 Co 0.57917 0.99088 0.60523 0.0
Co139 Co 0.51665 0.04444 0.55026 0.0
O140 O 0.5694 1.02104 0.54492 0.0
H141 H 0.59824 0.04834 0.53801 0.0
O142 O 0.46337 0.06783 0.55381 0.0
Co143 Co 0.4717 0.13056 0.58823 0.0
Co144 Co 0.45591 0.09892 0.49095 0.0
H145 H 0.43432 0.04028 0.55969 0.0
O146 O 0.63585 0.98784 0.62662 0.0
O147 O 0.57348 0.92941 0.57819 0.0
O148 O 0.53427 0.97688 0.65387 0.0
O149 O 0.48061 0.9869 0.5956 0.0
O150 O 0.55325 0.08683 0.61274 0.0
O151 O 0.47558 0.18627 0.61962 0.0
O152 O 0.41052 0.11735 0.59752 0.0
O153 O 0.53731 0.15303 0.58589 0.0
O154 O 0.55414 0.10288 0.50642 0.0
O155 O 0.50498 0.1188 0.44672 0.0
O156 O 0.45955 0.15865 0.51994 0.0
O157 O 0.3996 0.10372 0.46663 0.0
C158 C 0.60006 0.92675 0.47607 0.0
C159 C 0.4684 0.95276 0.48816 0.0
C160 C 0.49188 0.96953 0.6383 0.0
C161 C 0.61434 0.9425 0.60632 0.0
C162 C 0.43028 0.16371 0.61688 0.0
C163 C 0.56029 0.13379 0.61719 0.0
C164 C 0.54636 0.12457 0.46516 0.0
C165 C 0.41821 0.14603 0.49304 0.0
O166 O 0.55525 0.90197 0.47772 0.0
O167 O 0.62044 0.9722 0.49754 0.0
O168 O 0.47877 1.0008 0.48893 0.0
O169 O 0.49422 0.93404 0.51582 0.0
Co170 Co 0.4695 0.5741 0.14964 0.0
Co171 Co 0.46317 0.48581 0.14696 0.0
Co172 Co 0.52075 0.54332 0.05317 0.0
O173 O 0.46764 0.52953 0.09537 0.0
H174 H 0.43782 0.51884 0.07391 0.0
O175 O 0.57407 0.55623 1.01098 0.0
Co176 Co 0.56991 0.51468 0.95249 0.0
Co177 Co 0.58111 0.60428 0.9637 0.0
H178 H 0.60374 0.56477 0.03233 0.0
O179 O 0.40575 0.44161 0.16139 0.0
O180 O 0.45174 0.51812 0.19959 0.0
O181 O 0.51546 0.46672 0.16252 0.0
O182 O 0.54868 0.49538 0.09122 0.0
O183 O 0.47549 0.48597 1.00597 0.0
O184 O 0.57015 0.47545 0.90125 0.0
O185 O 0.62959 0.51489 0.96276 0.0
O186 O 0.50758 0.50716 0.93348 0.0
O187 O 0.49249 0.59071 1.01588 0.0
O188 O 0.53186 0.62881 0.95107 0.0
O189 O 0.59046 0.57522 0.90729 0.0
O190 O 0.63884 0.64744 0.95278 0.0
C191 C 0.42339 0.60209 0.1733 0.0
C192 C 0.56643 0.61142 0.14626 0.0
C193 C 0.54657 0.47119 0.13343 0.0
C194 C 0.41611 0.47441 0.1989 0.0
C195 C 0.61266 0.48443 0.92252 0.0
C196 C 0.47194 0.48493 0.95698 0.0
C197 C 0.49773 0.61961 0.97704 0.0
C198 C 0.62542 0.61983 0.91081 0.0
O199 O 0.46593 0.61587 0.19662 0.0
O200 O 0.40937 0.56877 0.13561 0.0
O201 O 0.56496 0.60285 0.09853 0.0
O202 O 0.53277 0.58591 0.17116 0.0
C203 C 0.23822 0.4654 0.46303 0.0
C204 C 0.23175 0.41382 0.45749 0.0
C205 C 0.15451 0.3877 0.48805 0.0
C206 C 0.15771 0.4387 0.48528 0.0
N207 N 0.19995 0.52492 0.45864 0.0
N208 N 0.17969 0.32514 0.45526 0.0
C209 C 0.19881 0.47735 0.46946 0.0
C210 C 0.18867 0.37465 0.46718 0.0
N211 N 0.2821 0.50288 0.46356 0.0
N212 N 0.12062 0.35225 0.51296 0.0
H213 H 0.20324 0.314 0.4385 0.0
H214 H 0.14693 0.29594 0.45729 0.0
H215 H 0.09676 0.36089 0.53187 0.0
H216 H 0.11986 0.31578 0.51997 0.0
H217 H 0.28944 0.54068 0.47299 0.0
H218 H 0.31213 0.49546 0.46016 0.0
H219 H 0.22875 0.55348 0.44535 0.0
H220 H 0.1706 0.53447 0.45725 0.0
C221 C 0.626 0.25698 0.42713 0.0
C222 C 0.6578 0.24585 0.3996 0.0
C223 C 0.61769 0.15455 0.41611 0.0
C224 C 0.58646 0.16599 0.44438 0.0
N225 N 0.56733 0.22878 0.48605 0.0
N226 N 0.68877 0.18599 0.37314 0.0
C227 C 0.59245 0.21742 0.45238 0.0
C228 C 0.65519 0.19512 0.39584 0.0
N229 N 0.6272 0.30549 0.42834 0.0
N230 N 0.61041 0.10486 0.40726 0.0
H231 H 0.71568 0.21467 0.35688 0.0
H232 H 0.69196 0.15095 0.37306 0.0
H233 H 0.58396 0.07466 0.42241 0.0
H234 H 0.62863 0.09315 0.38289 0.0
H235 H 0.60075 0.31474 0.44096 0.0
H236 H 0.65324 0.33655 0.41385 0.0
H237 H 0.57388 0.26548 0.49862 0.0
H238 H 0.54244 0.20112 0.50521 0.0
C239 C 0.86212 0.72732 0.36962 0.0
C240 C 0.85698 0.76295 0.40304 0.0
C241 C 0.91618 0.75108 0.46725 0.0
C242 C 0.91926 0.71334 0.43546 0.0
N243 N 0.90566 0.6756 0.35165 0.0
N244 N 0.86761 0.79455 0.48987 0.0
C245 C 0.89504 0.70432 0.38523 0.0
C246 C 0.88088 0.77101 0.45355 0.0
N247 N 0.83342 0.71287 0.3244 0.0
N248 N 0.94793 0.76966 0.5096 0.0
H249 H 0.8396 0.80649 0.48294 0.0
H250 H 0.88029 0.79621 0.52855 0.0
H251 H 0.97596 0.75847 0.51985 0.0
H252 H 0.9499 0.80083 0.531 0.0
H253 H 0.83145 0.68299 0.30114 0.0
H254 H 0.808 0.72737 0.31182 0.0
H255 H 0.89326 0.67118 0.31287 0.0
H256 H 0.93115 0.66029 0.36159 0.0
C257 C 0.36493 0.82969 0.45221 0.0
C258 C 0.35111 0.83619 0.40002 0.0
C259 C 0.41375 0.92211 0.40488 0.0
C260 C 0.42433 0.91679 0.45819 0.0
N261 N 0.39593 0.87245 0.5341 0.0
N262 N 0.35412 0.89528 0.33154 0.0
C263 C 0.39558 0.87264 0.48232 0.0
C264 C 0.37301 0.88449 0.37773 0.0
N265 N 0.35091 0.78244 0.47283 0.0
N266 N 0.44332 0.96149 0.37942 0.0
H267 H 0.32308 0.86991 0.31166 0.0
H268 H 0.36635 0.93137 0.31591 0.0
H269 H 0.4738 0.98944 0.39737 0.0
H270 H 0.43961 0.96382 0.33967 0.0
H271 H 0.36346 0.77602 0.50981 0.0
H272 H 0.33133 0.74928 0.45135 0.0
H273 H 0.37299 0.84242 0.55329 0.0
H274 H 0.41462 0.90514 0.55648 0.0
C275 C 0.24232 0.69732 0.65031 0.0
C276 C 0.2389 0.70713 0.70207 0.0
C277 C 0.15494 0.65123 0.68994 0.0
C278 C 0.15791 0.64537 0.63709 0.0
N279 N 0.20131 0.6771 0.56484 0.0
N280 N 0.18886 0.70333 0.76705 0.0
C281 C 0.20062 0.67322 0.61662 0.0
C282 C 0.19418 0.68722 0.72064 0.0
N283 N 0.28526 0.70804 0.63377 0.0
N284 N 0.11615 0.62068 0.71179 0.0
H285 H 0.21651 0.73036 0.79004 0.0
H286 H 0.15613 0.69368 0.78021 0.0
H287 H 0.08698 0.59303 0.69147 0.0
H288 H 0.1147 0.6198 0.75117 0.0
H289 H 0.28903 0.69734 0.5975 0.0
H290 H 0.31684 0.72207 0.6579 0.0
H291 H 0.23088 0.70049 0.54815 0.0
H292 H 0.17087 0.66177 0.53897 0.0
C293 C 0.33146 0.1982 0.66075 0.0
C294 C 0.351 0.25209 0.65806 0.0
C295 C 0.4184 0.24675 0.62081 0.0
C296 C 0.40226 0.19354 0.6307 0.0
N297 N 0.34743 0.1216 0.67099 0.0
N298 N 0.4077 0.3248 0.61913 0.0
C299 C 0.35973 0.16997 0.65338 0.0
C300 C 0.39291 0.27552 0.63432 0.0
N301 N 0.28496 0.1734 0.66674 0.0
N302 N 0.45736 0.2708 0.59609 0.0
H303 H 0.38918 0.34849 0.62045 0.0
H304 H 0.38918 0.34849 0.62045 0.0
H305 H 0.47194 0.25233 0.57397 0.0
H306 H 0.47289 0.31028 0.59363 0.0
H307 H 0.268 0.13396 0.66417 0.0
H308 H 0.26189 0.1921 0.66689 0.0
H309 H 0.31917 0.10468 0.69216 0.0
H310 H 0.36847 0.10062 0.6701 0.0
C311 C 0.91477 0.42488 0.71547 0.0
C312 C 0.87691 0.43609 0.73051 0.0
C313 C 0.90168 0.51429 0.68263 0.0
C314 C 0.93998 0.50432 0.66749 0.0
N315 N 0.98998 0.45667 0.68062 0.0
N316 N 0.85201 0.50369 0.7493 0.0
C317 C 0.94855 0.46128 0.68692 0.0
C318 C 0.87621 0.48487 0.72102 0.0
N319 N 0.91914 0.38023 0.72923 0.0
N320 N 0.88734 0.54965 0.65835 0.0
H321 H 0.8362 0.48474 0.78075 0.0
H322 H 0.85331 0.54074 0.74572 0.0
H323 H 0.90167 0.56861 0.62639 0.0
H324 H 0.85715 0.55496 0.66582 0.0
H325 H 0.94133 0.3665 0.71324 0.0
H326 H 0.90033 0.35655 0.75659 0.0
H327 H 1.00042 0.4288 0.6978 0.0
H328 H 1.01622 0.48371 0.66205 0.0
C329 C 0.62217 0.8176 0.64716 0.0
C330 C 0.67135 0.82962 0.65016 0.0
C331 C 0.68199 0.91373 0.61637 0.0
C332 C 0.63412 0.90378 0.62086 0.0
N333 N 0.56184 0.84944 0.65318 0.0
N334 N 0.74956 0.89512 0.64972 0.0
C335 C 0.60522 0.85675 0.64006 0.0
C336 C 0.70186 0.87938 0.63796 0.0
N337 N 0.59038 0.76925 0.65092 0.0
N338 N 0.70825 0.95506 0.59052 0.0
H339 H 0.76575 0.87262 0.66888 0.0
H340 H 0.77257 0.93257 0.64566 0.0
H341 H 0.69463 0.98051 0.57299 0.0
H342 H 0.74199 0.96094 0.58209 0.0
H343 H 0.59909 0.73727 0.65288 0.0
H344 H 0.59909 0.73727 0.65288 0.0
H345 H 0.53965 0.81484 0.66672 0.0
H346 H 0.55096 0.8795 0.65607 0.0
C347 C 0.3241 0.19688 0.51381 0.0
C348 C 0.34861 0.24975 0.50523 0.0
C349 C 0.41398 0.23115 0.47887 0.0
C350 C 0.39202 0.17999 0.4929 0.0
N351 N 0.32755 0.11409 0.52811 0.0
N352 N 0.42544 0.31718 0.49826 0.0
C353 C 0.34721 0.16263 0.51102 0.0
C354 C 0.39578 0.26722 0.49237 0.0
N355 N 0.27842 0.17903 0.5247 0.0
N356 N 0.45265 0.24555 0.45296 0.0
H357 H 0.41888 0.34353 0.51938 0.0
H358 H 0.4606 0.33042 0.49151 0.0
H359 H 0.46689 0.22 0.44225 0.0
H360 H 0.46724 0.28143 0.43734 0.0
H361 H 0.2566 0.14063 0.52318 0.0
H362 H 0.261 0.20223 0.53307 0.0
H363 H 0.29887 0.10171 0.54911 0.0
H364 H 0.34177 0.08673 0.52502 0.0
C365 C 0.81437 0.41501 0.45585 0.0
C366 C 0.81308 0.39465 0.40674 0.0
C367 C 0.89797 0.44605 0.40755 0.0
C368 C 0.89938 0.46457 0.4576 0.0
N369 N 0.86193 0.45422 0.53465 0.0
N370 N 0.85594 0.38131 0.34153 0.0
C371 C 0.85849 0.4447 0.48342 0.0
C372 C 0.85571 0.40712 0.38445 0.0
N373 N 0.77343 0.40899 0.47502 0.0
N374 N 0.93576 0.46753 0.38071 0.0
H375 H 0.82582 0.35241 0.32403 0.0
H376 H 0.88666 0.38519 0.32627 0.0
H377 H 0.96733 0.49576 0.39605 0.0
H378 H 0.93466 0.45988 0.342 0.0
H379 H 0.77252 0.42773 0.50809 0.0
H380 H 0.74014 0.38956 0.45542 0.0
H381 H 0.83432 0.43694 0.5566 0.0
H382 H 0.8939 0.47502 0.55614 0.0
C383 C 0.67596 0.8977 0.38514 0.0
C384 C 0.66625 0.84573 0.39581 0.0
C385 C 0.62132 0.85078 0.46508 0.0
C386 C 0.62672 0.90122 0.45107 0.0
N387 N 0.65363 0.97 0.39225 0.0
N388 N 0.62438 0.77055 0.44121 0.0
C389 C 0.65294 0.9242 0.40987 0.0
C390 C 0.63754 0.82174 0.43457 0.0
N391 N 0.70777 0.92197 0.35184 0.0
N392 N 0.60185 0.83091 0.50865 0.0
H393 H 0.63588 0.74797 0.42018 0.0
H394 H 0.59896 0.7496 0.46445 0.0
H395 H 0.58876 0.85019 0.53172 0.0
H396 H 0.60245 0.79727 0.52451 0.0
H397 H 0.72053 0.9611 0.34668 0.0
H398 H 0.7242 0.90346 0.33212 0.0
H399 H 0.66749 0.98598 0.35884 0.0
H400 H 0.63686 0.99035 0.40855 0.0
C401 C 0.18559 0.63721 0.37624 0.0
C402 C 0.1921 0.68932 0.37827 0.0
C403 C 0.11758 0.66493 0.41595 0.0
C404 C 0.11224 0.61303 0.41436 0.0
N405 N 0.12734 0.55207 0.36412 0.0
N406 N 0.1592 0.75192 0.38976 0.0
C407 C 0.14181 0.59957 0.38551 0.0
C408 C 0.15662 0.70313 0.39537 0.0
N409 N 0.22161 0.62344 0.36657 0.0
N410 N 0.08378 0.67695 0.43464 0.0
H411 H 0.18662 0.78009 0.37375 0.0
H412 H 0.13297 0.76403 0.39778 0.0
H413 H 0.051 0.64909 0.43983 0.0
H414 H 0.08756 0.71377 0.44366 0.0
H415 H 0.21868 0.58581 0.36569 0.0
H416 H 0.25586 0.64971 0.36477 0.0
H417 H 0.14719 0.54199 0.34036 0.0
H418 H 0.09272 0.52592 0.36246 0.0
C419 C 0.39432 0.90562 0.72393 0.0
C420 C 0.39083 0.85455 0.72083 0.0
C421 C 0.44763 0.87841 0.65817 0.0
C422 C 0.4548 0.93029 0.6647 0.0
N423 N 0.4377 0.99463 0.70573 0.0
N424 N 0.41844 0.79302 0.69003 0.0
C425 C 0.42871 0.94433 0.69803 0.0
C426 C 0.41878 0.84124 0.68947 0.0
N427 N 0.36433 0.91678 0.75104 0.0
N428 N 0.46656 0.86409 0.62002 0.0
H429 H 0.39619 0.76338 0.71014 0.0
H430 H 0.44285 0.78315 0.67355 0.0
H431 H 0.48857 0.89007 0.59676 0.0
H432 H 0.45732 0.82647 0.60844 0.0
H433 H 0.3615 0.95202 0.75086 0.0
H434 H 0.34008 0.88955 0.7717 0.0
H435 H 0.42357 1.00813 0.73325 0.0
H436 H 0.46163 1.02345 0.68619 0.0
C437 C 0.1721 0.37119 0.72506 0.0
C438 C 0.21801 0.37884 0.71391 0.0
C439 C 0.21007 0.43304 0.64222 0.0
C440 C 0.1659 0.42957 0.65628 0.0
N441 N 0.10812 0.4013 0.71623 0.0
N442 N 0.28318 0.42102 0.66527 0.0
C443 C 0.14748 0.39979 0.69881 0.0
C444 C 0.23753 0.41067 0.67327 0.0
N445 N 0.15183 0.33608 0.76037 0.0
N446 N 0.22545 0.4566 0.59818 0.0
H447 H 0.30406 0.40372 0.68514 0.0
H448 H 0.3017 0.44943 0.64134 0.0
H449 H 0.20807 0.47572 0.57542 0.0
H450 H 0.25351 0.45394 0.58188 0.0
H451 H 0.11663 0.32448 0.76642 0.0
H452 H 0.16936 0.31547 0.78088 0.0
H453 H 0.09593 0.38503 0.75024 0.0
H454 H 0.0897 0.42259 0.69914 0.0
C455 C 0.66654 0.21601 0.70949 0.0
C456 C 0.64744 0.25059 0.72642 0.0
C457 C 0.56983 0.18943 0.69265 0.0
C458 C 0.5902 0.16542 0.66224 0.0
N459 N 0.66059 0.15594 0.64264 0.0
N460 N 0.57778 0.27176 0.7209 0.0
C461 C 0.63943 0.17827 0.67118 0.0
C462 C 0.59799 0.23755 0.71521 0.0
N463 N 0.70952 0.21793 0.73104 0.0
N464 N 0.524 0.16581 0.70111 0.0
H465 H 0.59718 0.3102 0.72903 0.0
H466 H 0.54192 0.26292 0.71016 0.0
H467 H 0.50342 0.12918 0.68668 0.0
H468 H 0.50863 0.18105 0.72598 0.0
H469 H 0.7233 0.19137 0.72231 0.0
H470 H 0.7285 0.24223 0.76191 0.0
H471 H 0.69709 0.16791 0.64451 0.0
H472 H 0.64165 0.1277 0.61501 0.0
C473 C 0.85538 0.71216 0.6341 0.0
C474 C 0.8137 0.69455 0.5989 0.0
C475 C 0.85076 0.65375 0.54895 0.0
C476 C 0.89537 0.67839 0.57969 0.0
N477 N 0.939 0.75263 0.63622 0.0
N478 N 0.7831 0.66924 0.51041 0.0
C479 C 0.89777 0.7147 0.61735 0.0
C480 C 0.81513 0.67268 0.55193 0.0
N481 N 0.85526 0.72527 0.68356 0.0
N482 N 0.83944 0.61071 0.51989 0.0
H483 H 0.75902 0.68678 0.50912 0.0
H484 H 0.78567 0.65561 0.47492 0.0
H485 H 0.85838 0.58757 0.52132 0.0
H486 H 0.80603 0.59282 0.49977 0.0
H487 H 0.88537 0.73525 0.71007 0.0
H488 H 0.82479 0.7205 0.69965 0.0
H489 H 0.93993 0.77966 0.6628 0.0
H490 H 0.96993 0.76314 0.61924 0.0
C491 C 0.39441 0.45403 0.33826 0.0
C492 C 0.34563 0.42325 0.33334 0.0
C493 C 0.34167 0.43544 0.24073 0.0
C494 C 0.39159 0.45848 0.24522 0.0
N495 N 0.46584 0.47734 0.29881 0.0
N496 N 0.27379 0.3778 0.27842 0.0
C497 C 0.41821 0.46462 0.29413 0.0
C498 C 0.31933 0.4121 0.28413 0.0
N499 N 0.41795 0.47414 0.38484 0.0
N500 N 0.31552 0.43719 0.19566 0.0
H501 H 0.25658 0.35876 0.30908 0.0
H502 H 0.25468 0.36474 0.24279 0.0
H503 H 0.33062 0.45564 0.16362 0.0
H504 H 0.27894 0.42509 0.19187 0.0
H505 H 0.45264 0.50051 0.38923 0.0
H506 H 0.40135 0.46905 0.41798 0.0
H507 H 0.48564 0.47765 0.33381 0.0
H508 H 0.48473 0.48135 0.26765 0.0
C509 C 0.38543 0.63376 0.91471 0.0
C510 C 0.40708 0.68037 0.89006 0.0
C511 C 0.48052 0.69496 0.94611 0.0
C512 C 0.46279 0.6429 0.95922 0.0
N513 N 0.39572 0.56296 0.95974 0.0
N514 N 0.47285 0.76053 0.88929 0.0
C515 C 0.4141 0.61265 0.94589 0.0
C516 C 0.45373 0.71302 0.90867 0.0
N517 N 0.33749 0.60999 0.90839 0.0
N518 N 0.52293 0.72691 0.97009 0.0
H519 H 0.45294 0.77637 0.8654 0.0
H520 H 0.50844 0.78377 0.89588 0.0
H521 H 0.5422 0.71445 0.99869 0.0
H522 H 0.53672 0.7661 0.96554 0.0
H523 H 0.31912 0.57807 0.92864 0.0
H524 H 0.31591 0.62581 0.88723 0.0
H525 H 0.36248 0.53748 0.94491 0.0
H526 H 0.41437 0.54599 0.98377 0.0
C527 C 0.38113 0.44677 0.83927 0.0
C528 C 0.34977 0.39778 0.8516 0.0
C529 C 0.39703 0.40526 0.93534 0.0
C530 C 0.42622 0.45619 0.92458 0.0
N531 N 0.43655 0.52899 0.87052 0.0
N532 N 0.32182 0.33479 0.91544 0.0
C533 C 0.4151 0.47801 0.87796 0.0
C534 C 0.35571 0.37857 0.90109 0.0
N535 N 0.3806 0.46272 0.78984 0.0
N536 N 0.41019 0.38069 0.97578 0.0
H537 H 0.29141 0.31434 0.89119 0.0
H538 H 0.32178 0.32159 0.95272 0.0
H539 H 0.44104 0.39714 1.00057 0.0
H540 H 0.3928 0.34202 0.9818 0.0
H541 H 0.40637 0.49565 0.77788 0.0
H542 H 0.35749 0.4407 0.75966 0.0
H543 H 0.42589 0.5475 0.83986 0.0
H544 H 0.46126 0.55374 0.89769 0.0
C545 C 0.6602 0.43794 0.81683 0.0
C546 C 0.67583 0.40164 0.84215 0.0
C547 C 0.65422 0.42282 0.92322 0.0
C548 C 0.64107 0.46102 0.89815 0.0
N549 N 0.64267 0.51316 0.82441 0.0
N550 N 0.695 0.365 0.92069 0.0
C551 C 0.64755 0.47103 0.84594 0.0
C552 C 0.6751 0.39578 0.89584 0.0
N553 N 0.65561 0.43953 0.76455 0.0
N554 N 0.64474 0.4107 0.97234 0.0
H555 H 0.70953 0.34401 0.90155 0.0
H556 H 0.70014 0.36304 0.96037 0.0
H557 H 0.63041 0.43019 0.99376 0.0
H558 H 0.64834 0.37943 0.99083 0.0
H559 H 0.63944 0.46118 0.74376 0.0
H560 H 0.6639 0.41568 0.7415 0.0
H561 H 0.65165 0.52561 0.78813 0.0
H562 H 0.6344 0.53874 0.84496 0.0
C563 C 0.63431 0.66735 0.77474 0.0
C564 C 0.68222 0.70089 0.77876 0.0
C565 C 0.69464 0.67005 0.86466 0.0
C566 C 0.64519 0.644 0.86383 0.0
N567 N 0.56699 0.62876 0.82056 0.0
N568 N 0.75759 0.73882 0.82999 0.0
C569 C 0.61459 0.64522 0.81949 0.0
C570 C 0.71248 0.70346 0.82437 0.0
N571 N 0.60782 0.6556 0.72807 0.0
N572 N 0.72452 0.66187 0.90312 0.0
H573 H 0.77163 0.76442 0.80153 0.0
H574 H 0.77958 0.74563 0.86444 0.0
H575 H 0.71259 0.63616 0.93218 0.0
H576 H 0.76097 0.67642 0.90313 0.0
H577 H 0.57377 0.62783 0.72296 0.0
H578 H 0.62176 0.66908 0.69394 0.0
H579 H 0.54439 0.63374 0.79017 0.0
H580 H 0.55047 0.61583 0.85328 0.0
C581 C 0.62264 0.74147 0.21372 0.0
C582 C 0.66267 0.73628 0.24159 0.0
C583 C 0.649 0.66137 0.18821 0.0
C584 C 0.60283 0.65844 0.17167 0.0
N585 N 0.54827 0.70086 0.16041 0.0
N586 N 0.72805 0.71849 0.21849 0.0
C587 C 0.59051 0.70031 0.18163 0.0
C588 C 0.68063 0.70409 0.21831 0.0
N589 N 0.61973 0.78804 0.21105 0.0
N590 N 0.66242 0.62303 0.17652 0.0
H591 H 0.75162 0.75397 0.23315 0.0
H592 H 0.74298 0.69865 0.19839 0.0
H593 H 0.64035 0.59203 0.15337 0.0
H594 H 0.69424 0.62108 0.19222 0.0
H595 H 0.59342 0.7955 0.18804 0.0
H596 H 0.6478 0.8206 0.22602 0.0
H597 H 0.53488 0.727 0.17139 0.0
H598 H 0.52598 0.67392 0.13303 0.0
C599 C 0.3555 0.64696 0.259 0.0
C600 C 0.32894 0.66562 0.22239 0.0
C601 C 0.37229 0.65252 0.15522 0.0
C602 C 0.39129 0.62454 0.19012 0.0
N603 N 0.39701 0.59045 0.27457 0.0
N604 N 0.31464 0.69091 0.13592 0.0
C605 C 0.38223 0.62089 0.242 0.0
C606 C 0.33844 0.67025 0.17056 0.0
N607 N 0.35588 0.65498 0.31002 0.0
N608 N 0.38805 0.66392 0.10827 0.0
H609 H 0.2934 0.70901 0.14658 0.0
H610 H 0.3148 0.6889 0.09652 0.0
H611 H 0.41339 0.65241 0.09606 0.0
H612 H 0.37923 0.68842 0.08301 0.0
H613 H 0.37778 0.64591 0.33832 0.0
H614 H 0.33863 0.67629 0.32365 0.0
H615 H 0.38675 0.582 0.31111 0.0
H616 H 0.41582 0.56969 0.26357 0.0
C617 C 0.65716 0.45629 0.19503 0.0
C618 C 0.63581 0.41114 0.22233 0.0
C619 C 0.56025 0.39512 0.17014 0.0
C620 C 0.57944 0.44469 0.15 0.0
N621 N 0.64941 0.50971 0.12396 0.0
N622 N 0.5738 0.32812 0.22042 0.0
C623 C 0.62908 0.4714 0.15616 0.0
C624 C 0.58945 0.37723 0.20455 0.0
N625 N 0.70391 0.48524 0.20719 0.0
N626 N 0.51369 0.36584 0.15691 0.0
H627 H 0.59532 0.31399 0.24401 0.0
H628 H 0.54151 0.30018 0.20673 0.0
H629 H 0.49304 0.37619 0.12805 0.0
H630 H 0.49541 0.3321 0.17456 0.0
H631 H 0.72029 0.52202 0.19438 0.0
H632 H 0.72633 0.47248 0.23113 0.0
H633 H 0.68563 0.52837 0.12389 0.0
H634 H 0.63008 0.51913 0.09332 0.0
loop_
_geom_bond_atom_site_label_1
_geom_bond_atom_site_label_2
_geom_bond_distance
_geom_bond_site_symmetry_2
_ccdc_geom_bond_type
H0 C7 0.929 . S
H1 C10 0.930 . S
H2 C12 0.929 . S
H3 C4 0.969 . S
C4 H3 0.969 . S
C4 O5 1.550 . S
C4 H6 0.973 . S
O5 C4 1.550 . S
O5 C11 1.412 . S
H6 C4 0.973 . S
C7 H0 0.929 . S
C7 C8 1.400 . S
C7 C9 1.364 . S
C8 C7 1.400 . S
C8 C12 1.377 . S
C9 C7 1.364 . S
C9 C10 1.374 . S
C10 H1 0.930 . S
C10 C9 1.374 . S
C10 C11 1.383 . S
C11 O5 1.412 . S
C11 C10 1.383 . S
C11 C12 1.394 . S
C12 H2 0.929 . S
C12 C8 1.377 . S
C12 C11 1.394 . S
H13 C20 0.929 . S
H14 C23 0.930 . S
H15 C25 0.929 . S
H16 C17 0.969 . S
C17 H16 0.969 . S
C17 O18 1.550 . S
C17 H19 0.973 . S
O18 C17 1.550 . S
O18 C24 1.412 . S
H19 C17 0.973 . S
C20 H13 0.929 . S
C20 C21 1.400 . S
C20 C22 1.364 . S
C21 C20 1.400 . S
C21 C25 1.377 . S
C22 C20 1.364 . S
C22 C23 1.374 . S
C23 H14 0.930 . S
C23 C22 1.374 . S
C23 C24 1.383 . S
C24 O18 1.412 . S
C24 C23 1.383 . S
C24 C25 1.394 . S
C25 H15 0.929 . S
C25 C21 1.377 . S
C25 C24 1.394 . S
H26 C33 0.929 . S
H27 C36 0.930 . S
H28 C38 0.929 . S
H29 C30 0.969 . S
C30 H29 0.969 . S
C30 O31 1.550 . S
C30 H32 0.973 . S
O31 C30 1.550 . S
O31 C37 1.412 . S
H32 C30 0.973 . S
C33 H26 0.929 . S
C33 C34 1.400 . S
C33 C35 1.364 . S
C34 C33 1.400 . S
C34 C38 1.377 . S
C35 C33 1.364 . S
C35 C36 1.374 . S
C36 H27 0.930 . S
C36 C35 1.374 . S
C36 C37 1.383 . S
C37 O31 1.412 . S
C37 C36 1.383 . S
C37 C38 1.394 . S
C38 H28 0.929 . S
C38 C34 1.377 . S
C38 C37 1.394 . S
H39 C46 0.929 . S
H40 C49 0.930 . S
H41 C51 0.929 . S
H42 C43 0.969 . S
C43 H42 0.969 . S
C43 O44 1.550 . S
C43 H45 0.973 . S
O44 C43 1.550 . S
O44 C50 1.412 . S
H45 C43 0.973 . S
C46 H39 0.929 . S
C46 C47 1.400 . S
C46 C48 1.364 . S
C47 C46 1.400 . S
C47 C51 1.377 . S
C48 C46 1.364 . S
C48 C49 1.374 . S
C49 H40 0.930 . S
C49 C48 1.374 . S
C49 C50 1.383 . S
C50 O44 1.412 . S
C50 C49 1.383 . S
C50 C51 1.394 . S
C51 H41 0.929 . S
C51 C47 1.377 . S
C51 C50 1.394 . S
H52 C59 0.929 . S
H53 C62 0.930 . S
H54 C64 0.929 . S
H55 C56 0.969 . S
C56 H55 0.969 . S
C56 O57 1.550 . S
C56 H58 0.973 . S
O57 C56 1.550 . S
O57 C63 1.412 . S
H58 C56 0.973 . S
C59 H52 0.929 . S
C59 C60 1.400 . S
C59 C61 1.364 . S
C60 C59 1.400 . S
C60 C64 1.377 . S
C61 C59 1.364 . S
C61 C62 1.374 . S
C62 H53 0.930 . S
C62 C61 1.374 . S
C62 C63 1.383 . S
C63 O57 1.412 . S
C63 C62 1.383 . S
C63 C64 1.394 . S
C64 H54 0.929 . S
C64 C60 1.377 . S
C64 C63 1.394 . S
H65 C72 0.929 . S
H66 C75 0.930 . S
H67 C77 0.929 . S
H68 C69 0.969 . S
C69 H68 0.969 . S
C69 O70 1.550 . S
C69 H71 0.973 . S
O70 C69 1.550 . S
O70 C76 1.412 . S
H71 C69 0.973 . S
C72 H65 0.929 . S
C72 C73 1.400 . S
C72 C74 1.364 . S
C73 C72 1.400 . S
C73 C77 1.377 . S
C74 C72 1.364 . S
C74 C75 1.374 . S
C75 H66 0.930 . S
C75 C74 1.374 . S
C75 C76 1.383 . S
C76 O70 1.412 . S
C76 C75 1.383 . S
C76 C77 1.394 . S
C77 H67 0.929 . S
C77 C73 1.377 . S
C77 C76 1.394 . S
H78 C85 0.929 . S
H79 C88 0.930 . S
H80 C90 0.929 . S
H81 C82 0.969 . S
C82 H81 0.969 . S
C82 O83 1.550 . S
C82 H84 0.973 . S
O83 C82 1.550 . S
O83 C89 1.412 . S
H84 C82 0.973 . S
C85 H78 0.929 . S
C85 C86 1.400 . S
C85 C87 1.364 . S
C86 C85 1.400 . S
C86 C90 1.377 . S
C87 C85 1.364 . S
C87 C88 1.374 . S
C88 H79 0.930 . S
C88 C87 1.374 . S
C88 C89 1.383 . S
C89 O83 1.412 . S
C89 C88 1.383 . S
C89 C90 1.394 . S
C90 H80 0.929 . S
C90 C86 1.377 . S
C90 C89 1.394 . S
H91 C98 0.929 . S
H92 C101 0.930 . S
H93 C103 0.929 . S
H94 C95 0.969 . S
C95 H94 0.969 . S
C95 O96 1.550 . S
C95 H97 0.973 . S
O96 C95 1.550 . S
O96 C102 1.412 . S
H97 C95 0.973 . S
C98 H91 0.929 . S
C98 C99 1.400 . S
C98 C100 1.364 . S
C99 C98 1.400 . S
C99 C103 1.377 . S
C100 C98 1.364 . S
C100 C101 1.374 . S
C101 H92 0.930 . S
C101 C100 1.374 . S
C101 C102 1.383 . S
C102 O96 1.412 . S
C102 C101 1.383 . S
C102 C103 1.394 . S
C103 H93 0.929 . S
C103 C99 1.377 . S
C103 C102 1.394 . S
Co104 O107 2.042 . S
Co104 O114 2.264 . S
Co104 O133 2.286 . S
Co104 O134 2.069 . S
Co104 O136 2.015 . S
Co105 O107 2.122 . S
Co105 O113 2.073 . S
Co105 O114 2.327 . S
Co105 O115 1.976 . S
Co106 O107 2.087 . S
Co106 O109 2.087 1_455 S
Co106 O116 2.111 . S
Co106 O117 2.143 1_455 S
Co106 O121 2.111 1_455 S
Co106 O135 2.143 . S
O107 Co104 2.042 . S
O107 Co105 2.122 . S
O107 Co106 2.087 . S
O107 H108 0.980 . S
H108 O107 0.980 . S
O109 Co106 2.087 1_655 S
O109 Co110 2.042 . S
O109 Co111 2.122 . S
O109 H112 0.980 1_655 S
Co110 O109 2.042 . S
Co110 O118 2.286 . S
Co110 O119 2.069 . S
Co110 O120 2.015 . S
Co110 O123 2.264 . S
Co111 O109 2.122 . S
Co111 O122 1.976 . S
Co111 O123 2.327 . S
Co111 O124 2.073 . S
H112 O109 0.980 1_455 S
O113 Co105 2.073 . S
O113 C128 1.245 . S
O114 Co104 2.264 . S
O114 Co105 2.327 . S
O114 C128 1.257 . S
O115 Co105 1.976 . S
O115 C127 1.251 . S
O116 Co106 2.111 . S
O116 C127 1.274 . S
O117 Co106 2.143 1_655 S
O117 C130 1.246 . S
O118 Co110 2.286 . S
O118 C129 1.259 . S
O119 Co110 2.069 . S
O119 C129 1.289 . S
O120 Co110 2.015 . S
O120 C130 1.257 . S
O121 Co106 2.111 1_655 S
O121 C131 1.274 . S
O122 Co111 1.976 . S
O122 C131 1.251 . S
O123 Co110 2.264 . S
O123 Co111 2.327 . S
O123 C132 1.257 . S
O124 Co111 2.073 . S
O124 C132 1.245 . S
C125 O133 1.259 . S
C125 O134 1.289 . S
C126 O135 1.246 . S
C126 O136 1.257 . S
C127 O115 1.251 . S
C127 O116 1.274 . S
C128 O113 1.245 . S
C128 O114 1.257 . S
C129 O118 1.259 . S
C129 O119 1.289 . S
C130 O117 1.246 . S
C130 O120 1.257 . S
C131 O121 1.274 . S
C131 O122 1.251 . S
C132 O123 1.257 . S
C132 O124 1.245 . S
O133 Co104 2.286 . S
O133 C125 1.259 . S
O134 Co104 2.069 . S
O134 C125 1.289 . S
O135 Co106 2.143 . S
O135 C126 1.246 . S
O136 Co104 2.015 . S
O136 C126 1.257 . S
Co137 O140 2.042 . S
Co137 O147 2.264 . S
Co137 O166 2.286 . S
Co137 O167 2.069 . S
Co137 O169 2.015 . S
Co138 O140 2.122 . S
Co138 O146 2.073 . S
Co138 O147 2.327 . S
Co138 O148 1.976 . S
Co139 O140 2.087 1_545 S
Co139 O142 2.087 . S
Co139 O149 2.111 1_545 S
Co139 O150 2.143 . S
Co139 O154 2.111 . S
Co139 O168 2.143 1_545 S
O140 Co137 2.042 . S
O140 Co138 2.122 . S
O140 Co139 2.087 1_565 S
O140 H141 0.980 1_565 S
H141 O140 0.980 1_545 S
O142 Co139 2.087 . S
O142 Co143 2.042 . S
O142 Co144 2.122 . S
O142 H145 0.980 . S
Co143 O142 2.042 . S
Co143 O151 2.286 . S
Co143 O152 2.069 . S
Co143 O153 2.015 . S
Co143 O156 2.264 . S
Co144 O142 2.122 . S
Co144 O155 1.976 . S
Co144 O156 2.327 . S
Co144 O157 2.073 . S
H145 O142 0.980 . S
O146 Co138 2.073 . S
O146 C161 1.245 . S
O147 Co137 2.264 . S
O147 Co138 2.327 . S
O147 C161 1.257 . S
O148 Co138 1.976 . S
O148 C160 1.251 . S
O149 Co139 2.111 1_565 S
O149 C160 1.274 . S
O150 Co139 2.143 . S
O150 C163 1.246 . S
O151 Co143 2.286 . S
O151 C162 1.259 . S
O152 Co143 2.069 . S
O152 C162 1.289 . S
O153 Co143 2.015 . S
O153 C163 1.257 . S
O154 Co139 2.111 . S
O154 C164 1.274 . S
O155 Co144 1.976 . S
O155 C164 1.251 . S
O156 Co143 2.264 . S
O156 Co144 2.327 . S
O156 C165 1.257 . S
O157 Co144 2.073 . S
O157 C165 1.245 . S
C158 O166 1.259 . S
C158 O167 1.289 . S
C159 O168 1.246 . S
C159 O169 1.257 . S
C160 O148 1.251 . S
C160 O149 1.274 . S
C161 O146 1.245 . S
C161 O147 1.257 . S
C162 O151 1.259 . S
C162 O152 1.289 . S
C163 O150 1.246 . S
C163 O153 1.257 . S
C164 O154 1.274 . S
C164 O155 1.251 . S
C165 O156 1.257 . S
C165 O157 1.245 . S
O166 Co137 2.286 . S
O166 C158 1.259 . S
O167 Co137 2.069 . S
O167 C158 1.289 . S
O168 Co139 2.143 1_565 S
O168 C159 1.246 . S
O169 Co137 2.015 . S
O169 C159 1.257 . S
Co170 O173 2.042 . S
Co170 O180 2.264 . S
Co170 O199 2.286 . S
Co170 O200 2.069 . S
Co170 O202 2.015 . S
Co171 O173 2.122 . S
Co171 O179 2.073 . S
Co171 O180 2.327 . S
Co171 O181 1.976 . S
Co172 O173 2.087 . S
Co172 O175 2.087 1_554 S
Co172 O182 2.111 . S
Co172 O183 2.143 1_554 S
Co172 O187 2.111 1_554 S
Co172 O201 2.143 . S
O173 Co170 2.042 . S
O173 Co171 2.122 . S
O173 Co172 2.087 . S
O173 H174 0.980 . S
H174 O173 0.980 . S
O175 Co172 2.087 1_556 S
O175 Co176 2.042 . S
O175 Co177 2.122 . S
O175 H178 0.980 . S
Co176 O175 2.042 . S
Co176 O184 2.286 . S
Co176 O185 2.069 . S
Co176 O186 2.015 . S
Co176 O189 2.264 . S
Co177 O175 2.122 . S
Co177 O188 1.976 . S
Co177 O189 2.327 . S
Co177 O190 2.073 . S
H178 O175 0.980 . S
O179 Co171 2.073 . S
O179 C194 1.245 . S
O180 Co170 2.264 . S
O180 Co171 2.327 . S
O180 C194 1.257 . S
O181 Co171 1.976 . S
O181 C193 1.251 . S
O182 Co172 2.111 . S
O182 C193 1.274 . S
O183 Co172 2.143 1_556 S
O183 C196 1.246 . S
O184 Co176 2.286 . S
O184 C195 1.259 . S
O185 Co176 2.069 . S
O185 C195 1.289 . S
O186 Co176 2.015 . S
O186 C196 1.257 . S
O187 Co172 2.111 1_556 S
O187 C197 1.274 . S
O188 Co177 1.976 . S
O188 C197 1.251 . S
O189 Co176 2.264 . S
O189 Co177 2.327 . S
O189 C198 1.257 . S
O190 Co177 2.073 . S
O190 C198 1.245 . S
C191 O199 1.259 . S
C191 O200 1.289 . S
C192 O201 1.246 . S
C192 O202 1.257 . S
C193 O181 1.251 . S
C193 O182 1.274 . S
C194 O179 1.245 . S
C194 O180 1.257 . S
C195 O184 1.259 . S
C195 O185 1.289 . S
C196 O183 1.246 . S
C196 O186 1.257 . S
C197 O187 1.274 . S
C197 O188 1.251 . S
C198 O189 1.257 . S
C198 O190 1.245 . S
O199 Co170 2.286 . S
O199 C191 1.259 . S
O200 Co170 2.069 . S
O200 C191 1.289 . S
O201 Co172 2.143 . S
O201 C192 1.246 . S
O202 Co170 2.015 . S
O202 C192 1.257 . S
C203 C204 1.363 . S
C203 C209 1.379 . S
C203 N211 1.356 . S
C204 C203 1.363 . S
C204 C210 1.363 . S
C205 C206 1.363 . S
C205 C210 1.379 . S
C205 N212 1.356 . S
C206 C205 1.363 . S
C206 C209 1.363 . S
N207 C209 1.356 . S
N207 H219 0.984 . S
N207 H220 0.985 . S
N208 C210 1.356 . S
N208 H213 0.984 . S
N208 H214 0.985 . S
C209 C203 1.379 . S
C209 C206 1.363 . S
C209 N207 1.356 . S
C210 C204 1.363 . S
C210 C205 1.379 . S
C210 N208 1.356 . S
N211 C203 1.356 . S
N211 H217 0.984 . S
N211 H218 0.984 . S
N212 C205 1.356 . S
N212 H215 0.984 . S
N212 H216 0.985 . S
H213 N208 0.984 . S
H214 N208 0.985 . S
H215 N212 0.984 . S
H216 N212 0.985 . S
H217 N211 0.984 . S
H218 N211 0.984 . S
H219 N207 0.984 . S
H220 N207 0.985 . S
C221 C222 1.363 . S
C221 C227 1.379 . S
C221 N229 1.356 . S
C222 C221 1.363 . S
C222 C228 1.363 . S
C223 C224 1.363 . S
C223 C228 1.379 . S
C223 N230 1.356 . S
C224 C223 1.363 . S
C224 C227 1.363 . S
N225 C227 1.356 . S
N225 H237 0.984 . S
N225 H238 0.985 . S
N226 C228 1.356 . S
N226 H231 0.984 . S
N226 H232 0.985 . S
C227 C221 1.379 . S
C227 C224 1.363 . S
C227 N225 1.356 . S
C228 C222 1.363 . S
C228 C223 1.379 . S
C228 N226 1.356 . S
N229 C221 1.356 . S
N229 H235 0.984 . S
N229 H236 0.984 . S
N230 C223 1.356 . S
N230 H233 0.984 . S
N230 H234 0.985 . S
H231 N226 0.984 . S
H232 N226 0.985 . S
H233 N230 0.984 . S
H234 N230 0.985 . S
H235 N229 0.984 . S
H236 N229 0.984 . S
H237 N225 0.984 . S
H238 N225 0.985 . S
C239 C240 1.363 . S
C239 C245 1.379 . S
C239 N247 1.356 . S
C240 C239 1.363 . S
C240 C246 1.363 . S
C241 C242 1.363 . S
C241 C246 1.379 . S
C241 N248 1.356 . S
C242 C241 1.363 . S
C242 C245 1.363 . S
N243 C245 1.356 . S
N243 H255 0.984 . S
N243 H256 0.985 . S
N244 C246 1.356 . S
N244 H249 0.984 . S
N244 H250 0.985 . S
C245 C239 1.379 . S
C245 C242 1.363 . S
C245 N243 1.356 . S
C246 C240 1.363 . S
C246 C241 1.379 . S
C246 N244 1.356 . S
N247 C239 1.356 . S
N247 H253 0.984 . S
N247 H254 0.984 . S
N248 C241 1.356 . S
N248 H251 0.984 . S
N248 H252 0.985 . S
H249 N244 0.984 . S
H250 N244 0.985 . S
H251 N248 0.984 . S
H252 N248 0.985 . S
H253 N247 0.984 . S
H254 N247 0.984 . S
H255 N243 0.984 . S
H256 N243 0.985 . S
C257 C258 1.363 . S
C257 C263 1.379 . S
C257 N265 1.356 . S
C258 C257 1.363 . S
C258 C264 1.363 . S
C259 C260 1.363 . S
C259 C264 1.379 . S
C259 N266 1.356 . S
C260 C259 1.363 . S
C260 C263 1.363 . S
N261 C263 1.356 . S
N261 H273 0.984 . S
N261 H274 0.985 . S
N262 C264 1.356 . S
N262 H267 0.984 . S
N262 H268 0.985 . S
C263 C257 1.379 . S
C263 C260 1.363 . S
C263 N261 1.356 . S
C264 C258 1.363 . S
C264 C259 1.379 . S
C264 N262 1.356 . S
N265 C257 1.356 . S
N265 H271 0.984 . S
N265 H272 0.984 . S
N266 C259 1.356 . S
N266 H269 0.984 . S
N266 H270 0.985 . S
H267 N262 0.984 . S
H268 N262 0.985 . S
H269 N266 0.984 . S
H270 N266 0.985 . S
H271 N265 0.984 . S
H272 N265 0.984 . S
H273 N261 0.984 . S
H274 N261 0.985 . S
C275 C276 1.363 . S
C275 C281 1.379 . S
C275 N283 1.356 . S
C276 C275 1.363 . S
C276 C282 1.363 . S
C277 C278 1.363 . S
C277 C282 1.379 . S
C277 N284 1.356 . S
C278 C277 1.363 . S
C278 C281 1.363 . S
N279 C281 1.356 . S
N279 H291 0.984 . S
N279 H292 0.985 . S
N280 C282 1.356 . S
N280 H285 0.984 . S
N280 H286 0.985 . S
C281 C275 1.379 . S
C281 C278 1.363 . S
C281 N279 1.356 . S
C282 C276 1.363 . S
C282 C277 1.379 . S
C282 N280 1.356 . S
N283 C275 1.356 . S
N283 H289 0.984 . S
N283 H290 0.984 . S
N284 C277 1.356 . S
N284 H287 0.984 . S
N284 H288 0.985 . S
H285 N280 0.984 . S
H286 N280 0.985 . S
H287 N284 0.984 . S
H288 N284 0.985 . S
H289 N283 0.984 . S
H290 N283 0.984 . S
H291 N279 0.984 . S
H292 N279 0.985 . S
C293 C294 1.363 . S
C293 C299 1.379 . S
C293 N301 1.356 . S
C294 C293 1.363 . S
C294 C300 1.363 . S
C295 C296 1.363 . S
C295 C300 1.379 . S
C295 N302 1.356 . S
C296 C295 1.363 . S
C296 C299 1.363 . S
N297 C299 1.356 . S
N297 H309 0.984 . S
N297 H310 0.985 . S
N298 C300 1.356 . S
N298 H303 0.984 . S
N298 H304 0.985 . S
C299 C293 1.379 . S
C299 C296 1.363 . S
C299 N297 1.356 . S
C300 C294 1.363 . S
C300 C295 1.379 . S
C300 N298 1.356 . S
N301 C293 1.356 . S
N301 H307 0.984 . S
N301 H308 0.984 . S
N302 C295 1.356 . S
N302 H305 0.984 . S
N302 H306 0.985 . S
H303 N298 0.984 . S
H304 N298 0.985 . S
H305 N302 0.984 . S
H306 N302 0.985 . S
H307 N301 0.984 . S
H308 N301 0.984 . S
H309 N297 0.984 . S
H310 N297 0.985 . S
C311 C312 1.363 . S
C311 C317 1.379 . S
C311 N319 1.356 . S
C312 C311 1.363 . S
C312 C318 1.363 . S
C313 C314 1.363 . S
C313 C318 1.379 . S
C313 N320 1.356 . S
C314 C313 1.363 . S
C314 C317 1.363 . S
N315 C317 1.356 . S
N315 H327 0.984 . S
N315 H328 0.985 . S
N316 C318 1.356 . S
N316 H321 0.984 . S
N316 H322 0.985 . S
C317 C311 1.379 . S
C317 C314 1.363 . S
C317 N315 1.356 . S
C318 C312 1.363 . S
C318 C313 1.379 . S
C318 N316 1.356 . S
N319 C311 1.356 . S
N319 H325 0.984 . S
N319 H326 0.984 . S
N320 C313 1.356 . S
N320 H323 0.984 . S
N320 H324 0.985 . S
H321 N316 0.984 . S
H322 N316 0.985 . S
H323 N320 0.984 . S
H324 N320 0.985 . S
H325 N319 0.984 . S
H326 N319 0.984 . S
H327 N315 0.984 . S
H328 N315 0.985 . S
C329 C330 1.363 . S
C329 C335 1.379 . S
C329 N337 1.356 . S
C330 C329 1.363 . S
C330 C336 1.363 . S
C331 C332 1.363 . S
C331 C336 1.379 . S
C331 N338 1.356 . S
C332 C331 1.363 . S
C332 C335 1.363 . S
N333 C335 1.356 . S
N333 H345 0.984 . S
N333 H346 0.985 . S
N334 C336 1.356 . S
N334 H339 0.984 . S
N334 H340 0.985 . S
C335 C329 1.379 . S
C335 C332 1.363 . S
C335 N333 1.356 . S
C336 C330 1.363 . S
C336 C331 1.379 . S
C336 N334 1.356 . S
N337 C329 1.356 . S
N337 H343 0.984 . S
N337 H344 0.984 . S
N338 C331 1.356 . S
N338 H341 0.984 . S
N338 H342 0.985 . S
H339 N334 0.984 . S
H340 N334 0.985 . S
H341 N338 0.984 . S
H342 N338 0.985 . S
H343 N337 0.984 . S
H344 N337 0.984 . S
H345 N333 0.984 . S
H346 N333 0.985 . S
C347 C348 1.363 . S
C347 C353 1.379 . S
C347 N355 1.356 . S
C348 C347 1.363 . S
C348 C354 1.363 . S
C349 C350 1.363 . S
C349 C354 1.379 . S
C349 N356 1.356 . S
C350 C349 1.363 . S
C350 C353 1.363 . S
N351 C353 1.356 . S
N351 H363 0.984 . S
N351 H364 0.985 . S
N352 C354 1.356 . S
N352 H357 0.984 . S
N352 H358 0.985 . S
C353 C347 1.379 . S
C353 C350 1.363 . S
C353 N351 1.356 . S
C354 C348 1.363 . S
C354 C349 1.379 . S
C354 N352 1.356 . S
N355 C347 1.356 . S
N355 H361 0.984 . S
N355 H362 0.984 . S
N356 C349 1.356 . S
N356 H359 0.984 . S
N356 H360 0.985 . S
H357 N352 0.984 . S
H358 N352 0.985 . S
H359 N356 0.984 . S
H360 N356 0.985 . S
H361 N355 0.984 . S
H362 N355 0.984 . S
H363 N351 0.984 . S
H364 N351 0.985 . S
C365 C366 1.363 . S
C365 C371 1.379 . S
C365 N373 1.356 . S
C366 C365 1.363 . S
C366 C372 1.363 . S
C367 C368 1.363 . S
C367 C372 1.379 . S
C367 N374 1.356 . S
C368 C367 1.363 . S
C368 C371 1.363 . S
N369 C371 1.356 . S
N369 H381 0.984 . S
N369 H382 0.985 . S
N370 C372 1.356 . S
N370 H375 0.984 . S
N370 H376 0.985 . S
C371 C365 1.379 . S
C371 C368 1.363 . S
C371 N369 1.356 . S
C372 C366 1.363 . S
C372 C367 1.379 . S
C372 N370 1.356 . S
N373 C365 1.356 . S
N373 H379 0.984 . S
N373 H380 0.984 . S
N374 C367 1.356 . S
N374 H377 0.984 . S
N374 H378 0.985 . S
H375 N370 0.984 . S
H376 N370 0.985 . S
H377 N374 0.984 . S
H378 N374 0.985 . S
H379 N373 0.984 . S
H380 N373 0.984 . S
H381 N369 0.984 . S
H382 N369 0.985 . S
C383 C384 1.363 . S
C383 C389 1.379 . S
C383 N391 1.356 . S
C384 C383 1.363 . S
C384 C390 1.363 . S
C385 C386 1.363 . S
C385 C390 1.379 . S
C385 N392 1.356 . S
C386 C385 1.363 . S
C386 C389 1.363 . S
N387 C389 1.356 . S
N387 H399 0.984 . S
N387 H400 0.985 . S
N388 C390 1.356 . S
N388 H393 0.984 . S
N388 H394 0.985 . S
C389 C383 1.379 . S
C389 C386 1.363 . S
C389 N387 1.356 . S
C390 C384 1.363 . S
C390 C385 1.379 . S
C390 N388 1.356 . S
N391 C383 1.356 . S
N391 H397 0.984 . S
N391 H398 0.984 . S
N392 C385 1.356 . S
N392 H395 0.984 . S
N392 H396 0.985 . S
H393 N388 0.984 . S
H394 N388 0.985 . S
H395 N392 0.984 . S
H396 N392 0.985 . S
H397 N391 0.984 . S
H398 N391 0.984 . S
H399 N387 0.984 . S
H400 N387 0.985 . S
C401 C402 1.363 . S
C401 C407 1.379 . S
C401 N409 1.356 . S
C402 C401 1.363 . S
C402 C408 1.363 . S
C403 C404 1.363 . S
C403 C408 1.379 . S
C403 N410 1.356 . S
C404 C403 1.363 . S
C404 C407 1.363 . S
N405 C407 1.356 . S
N405 H417 0.984 . S
N405 H418 0.985 . S
N406 C408 1.356 . S
N406 H411 0.984 . S
N406 H412 0.985 . S
C407 C401 1.379 . S
C407 C404 1.363 . S
C407 N405 1.356 . S
C408 C402 1.363 . S
C408 C403 1.379 . S
C408 N406 1.356 . S
N409 C401 1.356 . S
N409 H415 0.984 . S
N409 H416 0.984 . S
N410 C403 1.356 . S
N410 H413 0.984 . S
N410 H414 0.985 . S
H411 N406 0.984 . S
H412 N406 0.985 . S
H413 N410 0.984 . S
H414 N410 0.985 . S
H415 N409 0.984 . S
H416 N409 0.984 . S
H417 N405 0.984 . S
H418 N405 0.985 . S
C419 C420 1.363 . S
C419 C425 1.379 . S
C419 N427 1.356 . S
C420 C419 1.363 . S
C420 C426 1.363 . S
C421 C422 1.363 . S
C421 C426 1.379 . S
C421 N428 1.356 . S
C422 C421 1.363 . S
C422 C425 1.363 . S
N423 C425 1.356 . S
N423 H435 0.984 . S
N423 H436 0.985 . S
N424 C426 1.356 . S
N424 H429 0.984 . S
N424 H430 0.985 . S
C425 C419 1.379 . S
C425 C422 1.363 . S
C425 N423 1.356 . S
C426 C420 1.363 . S
C426 C421 1.379 . S
C426 N424 1.356 . S
N427 C419 1.356 . S
N427 H433 0.984 . S
N427 H434 0.984 . S
N428 C421 1.356 . S
N428 H431 0.984 . S
N428 H432 0.985 . S
H429 N424 0.984 . S
H430 N424 0.985 . S
H431 N428 0.984 . S
H432 N428 0.985 . S
H433 N427 0.984 . S
H434 N427 0.984 . S
H435 N423 0.984 . S
H436 N423 0.985 . S
C437 C438 1.363 . S
C437 C443 1.379 . S
C437 N445 1.356 . S
C438 C437 1.363 . S
C438 C444 1.363 . S
C439 C440 1.363 . S
C439 C444 1.379 . S
C439 N446 1.356 . S
C440 C439 1.363 . S
C440 C443 1.363 . S
N441 C443 1.356 . S
N441 H453 0.984 . S
N441 H454 0.985 . S
N442 C444 1.356 . S
N442 H447 0.984 . S
N442 H448 0.985 . S
C443 C437 1.379 . S
C443 C440 1.363 . S
C443 N441 1.356 . S
C444 C438 1.363 . S
C444 C439 1.379 . S
C444 N442 1.356 . S
N445 C437 1.356 . S
N445 H451 0.984 . S
N445 H452 0.984 . S
N446 C439 1.356 . S
N446 H449 0.984 . S
N446 H450 0.985 . S
H447 N442 0.984 . S
H448 N442 0.985 . S
H449 N446 0.984 . S
H450 N446 0.985 . S
H451 N445 0.984 . S
H452 N445 0.984 . S
H453 N441 0.984 . S
H454 N441 0.985 . S
C455 C456 1.363 . S
C455 C461 1.379 . S
C455 N463 1.356 . S
C456 C455 1.363 . S
C456 C462 1.363 . S
C457 C458 1.363 . S
C457 C462 1.379 . S
C457 N464 1.356 . S
C458 C457 1.363 . S
C458 C461 1.363 . S
N459 C461 1.356 . S
N459 H471 0.984 . S
N459 H472 0.985 . S
N460 C462 1.356 . S
N460 H465 0.984 . S
N460 H466 0.985 . S
C461 C455 1.379 . S
C461 C458 1.363 . S
C461 N459 1.356 . S
C462 C456 1.363 . S
C462 C457 1.379 . S
C462 N460 1.356 . S
N463 C455 1.356 . S
N463 H469 0.984 . S
N463 H470 0.984 . S
N464 C457 1.356 . S
N464 H467 0.984 . S
N464 H468 0.985 . S
H465 N460 0.984 . S
H466 N460 0.985 . S
H467 N464 0.984 . S
H468 N464 0.985 . S
H469 N463 0.984 . S
H470 N463 0.984 . S
H471 N459 0.984 . S
H472 N459 0.985 . S
C473 C474 1.363 . S
C473 C479 1.379 . S
C473 N481 1.356 . S
C474 C473 1.363 . S
C474 C480 1.363 . S
C475 C476 1.363 . S
C475 C480 1.379 . S
C475 N482 1.356 . S
C476 C475 1.363 . S
C476 C479 1.363 . S
N477 C479 1.356 . S
N477 H489 0.984 . S
N477 H490 0.985 . S
N478 C480 1.356 . S
N478 H483 0.984 . S
N478 H484 0.985 . S
C479 C473 1.379 . S
C479 C476 1.363 . S
C479 N477 1.356 . S
C480 C474 1.363 . S
C480 C475 1.379 . S
C480 N478 1.356 . S
N481 C473 1.356 . S
N481 H487 0.984 . S
N481 H488 0.984 . S
N482 C475 1.356 . S
N482 H485 0.984 . S
N482 H486 0.985 . S
H483 N478 0.984 . S
H484 N478 0.985 . S
H485 N482 0.984 . S
H486 N482 0.985 . S
H487 N481 0.984 . S
H488 N481 0.984 . S
H489 N477 0.984 . S
H490 N477 0.985 . S
C491 C492 1.363 . S
C491 C497 1.379 . S
C491 N499 1.356 . S
C492 C491 1.363 . S
C492 C498 1.363 . S
C493 C494 1.363 . S
C493 C498 1.379 . S
C493 N500 1.356 . S
C494 C493 1.363 . S
C494 C497 1.363 . S
N495 C497 1.356 . S
N495 H507 0.984 . S
N495 H508 0.985 . S
N496 C498 1.356 . S
N496 H501 0.984 . S
N496 H502 0.985 . S
C497 C491 1.379 . S
C497 C494 1.363 . S
C497 N495 1.356 . S
C498 C492 1.363 . S
C498 C493 1.379 . S
C498 N496 1.356 . S
N499 C491 1.356 . S
N499 H505 0.984 . S
N499 H506 0.984 . S
N500 C493 1.356 . S
N500 H503 0.984 . S
N500 H504 0.985 . S
H501 N496 0.984 . S
H502 N496 0.985 . S
H503 N500 0.984 . S
H504 N500 0.985 . S
H505 N499 0.984 . S
H506 N499 0.984 . S
H507 N495 0.984 . S
H508 N495 0.985 . S
C509 C510 1.363 . S
C509 C515 1.379 . S
C509 N517 1.356 . S
C510 C509 1.363 . S
C510 C516 1.363 . S
C511 C512 1.363 . S
C511 C516 1.379 . S
C511 N518 1.356 . S
C512 C511 1.363 . S
C512 C515 1.363 . S
N513 C515 1.356 . S
N513 H525 0.984 . S
N513 H526 0.985 . S
N514 C516 1.356 . S
N514 H519 0.984 . S
N514 H520 0.985 . S
C515 C509 1.379 . S
C515 C512 1.363 . S
C515 N513 1.356 . S
C516 C510 1.363 . S
C516 C511 1.379 . S
C516 N514 1.356 . S
N517 C509 1.356 . S
N517 H523 0.984 . S
N517 H524 0.984 . S
N518 C511 1.356 . S
N518 H521 0.984 . S
N518 H522 0.985 . S
H519 N514 0.984 . S
H520 N514 0.985 . S
H521 N518 0.984 . S
H522 N518 0.985 . S
H523 N517 0.984 . S
H524 N517 0.984 . S
H525 N513 0.984 . S
H526 N513 0.985 . S
C527 C528 1.363 . S
C527 C533 1.379 . S
C527 N535 1.356 . S
C528 C527 1.363 . S
C528 C534 1.363 . S
C529 C530 1.363 . S
C529 C534 1.379 . S
C529 N536 1.356 . S
C530 C529 1.363 . S
C530 C533 1.363 . S
N531 C533 1.356 . S
N531 H543 0.984 . S
N531 H544 0.985 . S
N532 C534 1.356 . S
N532 H537 0.984 . S
N532 H538 0.985 . S
C533 C527 1.379 . S
C533 C530 1.363 . S
C533 N531 1.356 . S
C534 C528 1.363 . S
C534 C529 1.379 . S
C534 N532 1.356 . S
N535 C527 1.356 . S
N535 H541 0.984 . S
N535 H542 0.984 . S
N536 C529 1.356 . S
N536 H539 0.984 . S
N536 H540 0.985 . S
H537 N532 0.984 . S
H538 N532 0.985 . S
H539 N536 0.984 . S
H540 N536 0.985 . S
H541 N535 0.984 . S
H542 N535 0.984 . S
H543 N531 0.984 . S
H544 N531 0.985 . S
C545 C546 1.363 . S
C545 C551 1.379 . S
C545 N553 1.356 . S
C546 C545 1.363 . S
C546 C552 1.363 . S
C547 C548 1.363 . S
C547 C552 1.379 . S
C547 N554 1.356 . S
C548 C547 1.363 . S
C548 C551 1.363 . S
N549 C551 1.356 . S
N549 H561 0.984 . S
N549 H562 0.985 . S
N550 C552 1.356 . S
N550 H555 0.984 . S
N550 H556 0.985 . S
C551 C545 1.379 . S
C551 C548 1.363 . S
C551 N549 1.356 . S
C552 C546 1.363 . S
C552 C547 1.379 . S
C552 N550 1.356 . S
N553 C545 1.356 . S
N553 H559 0.984 . S
N553 H560 0.984 . S
N554 C547 1.356 . S
N554 H557 0.984 . S
N554 H558 0.985 . S
H555 N550 0.984 . S
H556 N550 0.985 . S
H557 N554 0.984 . S
H558 N554 0.985 . S
H559 N553 0.984 . S
H560 N553 0.984 . S
H561 N549 0.984 . S
H562 N549 0.985 . S
C563 C564 1.363 . S
C563 C569 1.379 . S
C563 N571 1.356 . S
C564 C563 1.363 . S
C564 C570 1.363 . S
C565 C566 1.363 . S
C565 C570 1.379 . S
C565 N572 1.356 . S
C566 C565 1.363 . S
C566 C569 1.363 . S
N567 C569 1.356 . S
N567 H579 0.984 . S
N567 H580 0.985 . S
N568 C570 1.356 . S
N568 H573 0.984 . S
N568 H574 0.985 . S
C569 C563 1.379 . S
C569 C566 1.363 . S
C569 N567 1.356 . S
C570 C564 1.363 . S
C570 C565 1.379 . S
C570 N568 1.356 . S
N571 C563 1.356 . S
N571 H577 0.984 . S
N571 H578 0.984 . S
N572 C565 1.356 . S
N572 H575 0.984 . S
N572 H576 0.985 . S
H573 N568 0.984 . S
H574 N568 0.985 . S
H575 N572 0.984 . S
H576 N572 0.985 . S
H577 N571 0.984 . S
H578 N571 0.984 . S
H579 N567 0.984 . S
H580 N567 0.985 . S
C581 C582 1.363 . S
C581 C587 1.379 . S
C581 N589 1.356 . S
C582 C581 1.363 . S
C582 C588 1.363 . S
C583 C584 1.363 . S
C583 C588 1.379 . S
C583 N590 1.356 . S
C584 C583 1.363 . S
C584 C587 1.363 . S
N585 C587 1.356 . S
N585 H597 0.984 . S
N585 H598 0.985 . S
N586 C588 1.356 . S
N586 H591 0.984 . S
N586 H592 0.985 . S
C587 C581 1.379 . S
C587 C584 1.363 . S
C587 N585 1.356 . S
C588 C582 1.363 . S
C588 C583 1.379 . S
C588 N586 1.356 . S
N589 C581 1.356 . S
N589 H595 0.984 . S
N589 H596 0.984 . S
N590 C583 1.356 . S
N590 H593 0.984 . S
N590 H594 0.985 . S
H591 N586 0.984 . S
H592 N586 0.985 . S
H593 N590 0.984 . S
H594 N590 0.985 . S
H595 N589 0.984 . S
H596 N589 0.984 . S
H597 N585 0.984 . S
H598 N585 0.985 . S
C599 C600 1.363 . S
C599 C605 1.379 . S
C599 N607 1.356 . S
C600 C599 1.363 . S
C600 C606 1.363 . S
C601 C602 1.363 . S
C601 C606 1.379 . S
C601 N608 1.356 . S
C602 C601 1.363 . S
C602 C605 1.363 . S
N603 C605 1.356 . S
N603 H615 0.984 . S
N603 H616 0.985 . S
N604 C606 1.356 . S
N604 H609 0.984 . S
N604 H610 0.985 . S
C605 C599 1.379 . S
C605 C602 1.363 . S
C605 N603 1.356 . S
C606 C600 1.363 . S
C606 C601 1.379 . S
C606 N604 1.356 . S
N607 C599 1.356 . S
N607 H613 0.984 . S
N607 H614 0.984 . S
N608 C601 1.356 . S
N608 H611 0.984 . S
N608 H612 0.985 . S
H609 N604 0.984 . S
H610 N604 0.985 . S
H611 N608 0.984 . S
H612 N608 0.985 . S
H613 N607 0.984 . S
H614 N607 0.984 . S
H615 N603 0.984 . S
H616 N603 0.985 . S
C617 C618 1.363 . S
C617 C623 1.379 . S
C617 N625 1.356 . S
C618 C617 1.363 . S
C618 C624 1.363 . S
C619 C620 1.363 . S
C619 C624 1.379 . S
C619 N626 1.356 . S
C620 C619 1.363 . S
C620 C623 1.363 . S
N621 C623 1.356 . S
N621 H633 0.984 . S
N621 H634 0.985 . S
N622 C624 1.356 . S
N622 H627 0.984 . S
N622 H628 0.985 . S
C623 C617 1.379 . S
C623 C620 1.363 . S
C623 N621 1.356 . S
C624 C618 1.363 . S
C624 C619 1.379 . S
C624 N622 1.356 . S
N625 C617 1.356 . S
N625 H631 0.984 . S
N625 H632 0.984 . S
N626 C619 1.356 . S
N626 H629 0.984 . S
N626 H630 0.985 . S
H627 N622 0.984 . S
H628 N622 0.985 . S
H629 N626 0.984 . S
H630 N626 0.985 . S
H631 N625 0.984 . S
H632 N625 0.984 . S
H633 N621 0.984 . S
H634 N621 0.985 . S
C206 C128 1.476 . S
C204 C9 1.564 . S
C224 C164 1.954 . S
C222 C22 2.070 . S
C242 C129 1.344 . S
C240 C30 1.349 . S
C260 C159 1.237 . S
C258 C47 1.251 . S
C278 C126 1.231 . S
C276 C61 1.267 . S
C294 C69 1.324 . S
C296 C162 1.403 . S
C312 C82 1.170 . S
C314 C131 1.006 . S
C332 C161 1.615 . S
C330 C99 1.661 . S
C350 C165 1.455 . S
C348 C4 1.503 . S
C368 C130 1.676 . S
C366 C21 1.733 . S
C386 C158 1.862 . S
C384 C34 1.856 . S
C404 C127 0.868 . S
C402 C48 0.921 . S
C422 C160 1.362 . S
C420 C60 1.436 . S
C438 C74 1.528 . S
C440 C125 1.530 . S
C456 C86 1.547 . S
C458 C163 1.466 . S
C476 C132 1.312 . S
C474 C95 1.339 . S
C494 C194 1.731 . S
C492 C8 1.854 . S
C510 C56 1.371 . S
C512 C197 1.349 . S
C530 C196 1.621 . S
C528 C73 1.623 . S
C546 C87 2.177 . S
C548 C195 2.149 . S
C566 C198 1.749 . S
C564 C100 1.882 . S
C582 C35 1.993 . S
C584 C192 1.931 . S
C602 C191 1.372 . S
C600 C43 1.364 . S
C618 C17 1.937 . S
C620 C193 1.861 . S
