# Generated by pormake.
# Topology nom, (4,4)-cn, num edge types: 1
# Building blocks:
#     Node 0, Type 0, BuildingBlock: NAWXER_clean_linker_0, # of connection points: 4
#     Node 1, Type 0, BuildingBlock: NAWXER_clean_linker_0, # of connection points: 4
#     Node 2, Type 0, BuildingBlock: NAWXER_clean_linker_0, # of connection points: 4
#     Node 3, Type 0, BuildingBlock: NAWXER_clean_linker_0, # of connection points: 4
#     Node 4, Type 0, BuildingBlock: NAWXER_clean_linker_0, # of connection points: 4
#     Node 5, Type 0, BuildingBlock: NAWXER_clean_linker_0, # of connection points: 4
#     Node 6, Type 1, BuildingBlock: GALJAG_clean_sbu_0, # of connection points: 4
#     Node 7, Type 1, BuildingBlock: GALJAG_clean_sbu_0, # of connection points: 4
#     Node 8, Type 1, BuildingBlock: GALJAG_clean_sbu_0, # of connection points: 4
#     Node 9, Type 1, BuildingBlock: GALJAG_clean_sbu_0, # of connection points: 4
#     Node 10, Type 1, BuildingBlock: GALJAG_clean_sbu_0, # of connection points: 4
#     Node 11, Type 1, BuildingBlock: GALJAG_clean_sbu_0, # of connection points: 4
#     Edge 12, Type (0, 1), BuildingBlock: CIFDUS_clean_linker_0, # of connection points: 2
#     Edge 13, Type (0, 1), BuildingBlock: CIFDUS_clean_linker_0, # of connection points: 2
#     Edge 14, Type (0, 1), BuildingBlock: CIFDUS_clean_linker_0, # of connection points: 2
#     Edge 15, Type (0, 1), BuildingBlock: CIFDUS_clean_linker_0, # of connection points: 2
#     Edge 16, Type (0, 1), BuildingBlock: CIFDUS_clean_linker_0, # of connection points: 2
#     Edge 17, Type (0, 1), BuildingBlock: CIFDUS_clean_linker_0, # of connection points: 2
#     Edge 18, Type (0, 1), BuildingBlock: CIFDUS_clean_linker_0, # of connection points: 2
#     Edge 19, Type (0, 1), BuildingBlock: CIFDUS_clean_linker_0, # of connection points: 2
#     Edge 20, Type (0, 1), BuildingBlock: CIFDUS_clean_linker_0, # of connection points: 2
#     Edge 21, Type (0, 1), BuildingBlock: CIFDUS_clean_linker_0, # of connection points: 2
#     Edge 22, Type (0, 1), BuildingBlock: CIFDUS_clean_linker_0, # of connection points: 2
#     Edge 23, Type (0, 1), BuildingBlock: CIFDUS_clean_linker_0, # of connection points: 2
#     Edge 24, Type (0, 1), BuildingBlock: CIFDUS_clean_linker_0, # of connection points: 2
#     Edge 25, Type (0, 1), BuildingBlock: CIFDUS_clean_linker_0, # of connection points: 2
#     Edge 26, Type (0, 1), BuildingBlock: CIFDUS_clean_linker_0, # of connection points: 2
#     Edge 27, Type (0, 1), BuildingBlock: CIFDUS_clean_linker_0, # of connection points: 2
#     Edge 28, Type (0, 1), BuildingBlock: CIFDUS_clean_linker_0, # of connection points: 2
#     Edge 29, Type (0, 1), BuildingBlock: CIFDUS_clean_linker_0, # of connection points: 2
#     Edge 30, Type (0, 1), BuildingBlock: CIFDUS_clean_linker_0, # of connection points: 2
#     Edge 31, Type (0, 1), BuildingBlock: CIFDUS_clean_linker_0, # of connection points: 2
#     Edge 32, Type (0, 1), BuildingBlock: CIFDUS_clean_linker_0, # of connection points: 2
#     Edge 33, Type (0, 1), BuildingBlock: CIFDUS_clean_linker_0, # of connection points: 2
#     Edge 34, Type (0, 1), BuildingBlock: CIFDUS_clean_linker_0, # of connection points: 2
#     Edge 35, Type (0, 1), BuildingBlock: CIFDUS_clean_linker_0, # of connection points: 2
# Relax obj value: 0.004
# Max RMSD: 0.115
# Mean RMSD: 0.086
data_MOF--net-nom--node1-GALJAG_clean_sbu_0--node2-NAWXER_clean_linker_0--edge1-CIFDUS_clean_linker_0
_symmetry_space_group_name_H-M    P1
_symmetry_Int_Tables_number       1
_symmetry_cell_setting            triclinic
loop_
_symmetry_equiv_pos_as_xyz
'x, y, z'
_cell_length_a     46.736073
_cell_length_b     46.606519
_cell_length_c     53.181484
_cell_angle_alpha  90.128193
_cell_angle_beta   90.004504
_cell_angle_gamma 120.03317
loop_
_atom_site_label
_atom_site_type_symbol
_atom_site_fract_x
_atom_site_fract_y
_atom_site_fract_z
_atom_type_partial_charge
C0 C 0.89856 0.50726 0.34336 0.0
C1 C 0.88398 0.48086 0.36046 0.0
C2 C 0.93118 0.51958 0.33555 0.0
C3 C 0.94985 0.5059 0.34489 0.0
C4 C 0.90272 0.46727 0.36987 0.0
C5 C 0.93556 0.48 0.36239 0.0
C6 C 0.98467 0.51962 0.33722 0.0
C7 C 0.92432 0.46278 0.27007 0.0
C8 C 0.93057 0.48088 0.24763 0.0
C9 C 0.9447 0.47679 0.29108 0.0
C10 C 0.9714 0.50949 0.29033 0.0
C11 C 0.95755 0.51347 0.24687 0.0
C12 C 0.97767 0.52757 0.26795 0.0
C13 C 0.9947 0.52402 0.31181 0.0
C14 C 0.14401 0.58878 0.31854 0.0
C15 C 0.15212 0.61287 0.29969 0.0
C16 C 0.11129 0.56893 0.32646 0.0
C17 C 0.08612 0.57365 0.31647 0.0
C18 C 0.12647 0.61624 0.28888 0.0
C19 C 0.094 0.59705 0.29728 0.0
C20 C 0.05126 0.55385 0.32483 0.0
C21 C 0.11213 0.60035 0.39481 0.0
C22 C 0.10858 0.57676 0.41284 0.0
C23 C 0.08995 0.5913 0.37466 0.0
C24 C 0.06439 0.55828 0.37185 0.0
C25 C 0.08231 0.54404 0.41041 0.0
C26 C 0.06044 0.53494 0.39015 0.0
C27 C 0.04117 0.54758 0.35031 0.0
H28 H 0.88457 0.51806 0.33579 0.0
H29 H 0.94195 0.54 0.32237 0.0
H30 H 0.89205 0.44705 0.38322 0.0
H31 H 0.94969 0.46937 0.37001 0.0
H32 H 0.9037 0.43771 0.27143 0.0
H33 H 0.93994 0.46166 0.30768 0.0
H34 H 0.96364 0.52797 0.22979 0.0
H35 H 0.99841 0.55261 0.26666 0.0
H36 H 0.16291 0.5854 0.32748 0.0
H37 H 0.1058 0.55008 0.34049 0.0
H38 H 0.1313 0.63359 0.27376 0.0
H39 H 0.07497 0.6007 0.28882 0.0
H40 H 0.13181 0.62588 0.39646 0.0
H41 H 0.0929 0.61 0.36121 0.0
H42 H 0.07903 0.5253 0.42395 0.0
H43 H 0.04071 0.50942 0.38852 0.0
N44 N 0.00824 0.53088 0.35545 0.0
N45 N 0.02755 0.54151 0.3067 0.0
C46 C 0.40283 0.89719 0.50754 0.0
C47 C 0.41662 0.88474 0.5248 0.0
C48 C 0.4208 0.93002 0.49953 0.0
C49 C 0.45291 0.95105 0.50863 0.0
C50 C 0.44882 0.90573 0.53383 0.0
C51 C 0.46669 0.93877 0.52601 0.0
C52 C 0.471 0.98632 0.50121 0.0
C53 C 0.47337 0.9312 0.43345 0.0
C54 C 0.45354 0.93047 0.41329 0.0
C55 C 0.47957 0.95243 0.45386 0.0
C56 C 0.46611 0.97344 0.45461 0.0
C57 C 0.44018 0.95168 0.41408 0.0
C58 C 0.44668 0.97317 0.43443 0.0
C59 C 0.47352 0.99653 0.47598 0.0
C60 C 0.5481 0.14611 0.48288 0.0
C61 C 0.52833 0.15278 0.46665 0.0
C62 C 0.53796 0.11365 0.49035 0.0
C63 C 0.50751 0.08727 0.48218 0.0
C64 C 0.4982 0.12616 0.4581 0.0
C65 C 0.48797 0.0938 0.46575 0.0
C66 C 0.49611 0.05258 0.48962 0.0
C67 C 0.50846 0.1076 0.56333 0.0
C68 C 0.53226 0.10691 0.57915 0.0
C69 C 0.49681 0.0871 0.54208 0.0
C70 C 0.50884 0.06563 0.53632 0.0
C71 C 0.54413 0.08533 0.57327 0.0
C72 C 0.53237 0.06477 0.55218 0.0
C73 C 0.49599 0.04255 0.51474 0.0
H74 H 0.37813 0.88148 0.5002 0.0
H75 H 0.40933 0.93915 0.48656 0.0
H76 H 0.45988 0.89677 0.54732 0.0
H77 H 0.49127 0.95471 0.53347 0.0
H78 H 0.4847 0.91584 0.43329 0.0
H79 H 0.49541 0.95284 0.46889 0.0
H80 H 0.42444 0.95151 0.39907 0.0
H81 H 0.43618 0.98929 0.43457 0.0
H82 H 0.57135 0.16598 0.48998 0.0
H83 H 0.55406 0.10924 0.50236 0.0
H84 H 0.48266 0.13022 0.44519 0.0
H85 H 0.4646 0.0738 0.45889 0.0
H86 H 0.49891 0.12403 0.56737 0.0
H87 H 0.47817 0.08769 0.53036 0.0
H88 H 0.56202 0.0838 0.5853 0.0
H89 H 0.54167 0.04809 0.54823 0.0
N90 N 0.48303 0.00972 0.51957 0.0
N91 N 0.48524 0.02917 0.47116 0.0
C92 C 0.54659 0.46267 0.59835 0.0
C93 C 0.52587 0.44562 0.57785 0.0
C94 C 0.53344 0.46703 0.6207 0.0
C95 C 0.49931 0.45463 0.62303 0.0
C96 C 0.49155 0.43247 0.58059 0.0
C97 C 0.4785 0.43729 0.60281 0.0
C98 C 0.48576 0.46251 0.6455 0.0
C99 C 0.50876 0.38636 0.67491 0.0
C100 C 0.53426 0.3978 0.6928 0.0
C101 C 0.49667 0.40678 0.66684 0.0
C102 C 0.50978 0.439 0.67656 0.0
C103 C 0.54789 0.43029 0.70213 0.0
C104 C 0.53545 0.45058 0.6943 0.0
C105 C 0.49418 0.45896 0.67028 0.0
C106 C 0.41612 0.50038 0.73612 0.0
C107 C 0.44126 0.52093 0.75313 0.0
C108 C 0.42364 0.48887 0.71415 0.0
C109 C 0.45652 0.49816 0.70853 0.0
C110 C 0.47404 0.52963 0.74758 0.0
C111 C 0.48153 0.51833 0.72559 0.0
C112 C 0.46534 0.48555 0.68594 0.0
C113 C 0.41536 0.541 0.65628 0.0
C114 C 0.38945 0.52261 0.63916 0.0
C115 C 0.43676 0.52969 0.66368 0.0
C116 C 0.43217 0.49933 0.65461 0.0
C117 C 0.38547 0.49258 0.62979 0.0
C118 C 0.40649 0.48111 0.63746 0.0
C119 C 0.45484 0.48687 0.66118 0.0
H120 H 0.57315 0.47372 0.5969 0.0
H121 H 0.55014 0.48123 0.63582 0.0
H122 H 0.47467 0.4186 0.56549 0.0
H123 H 0.45209 0.4276 0.60415 0.0
H124 H 0.49793 0.36148 0.66735 0.0
H125 H 0.47626 0.39691 0.65364 0.0
H126 H 0.56743 0.43958 0.71608 0.0
H127 H 0.54561 0.47519 0.70229 0.0
H128 H 0.39061 0.49328 0.73971 0.0
H129 H 0.40373 0.47252 0.7017 0.0
H130 H 0.49396 0.54475 0.76045 0.0
H131 H 0.50702 0.52537 0.7219 0.0
H132 H 0.41913 0.56414 0.66404 0.0
H133 H 0.45704 0.54486 0.67625 0.0
H134 H 0.36645 0.4781 0.61611 0.0
H135 H 0.40271 0.45788 0.62984 0.0
N136 N 0.46591 0.47568 0.64198 0.0
N137 N 0.48427 0.47126 0.68947 0.0
C138 C 0.90162 0.40959 0.82095 0.0
C139 C 0.88647 0.42357 0.80662 0.0
C140 C 0.93462 0.42882 0.82829 0.0
C141 C 0.95305 0.46226 0.82122 0.0
C142 C 0.90484 0.4571 0.79973 0.0
C143 C 0.93805 0.4762 0.8067 0.0
C144 C 0.98843 0.48203 0.82773 0.0
C145 C 0.93302 0.47042 0.8993 0.0
C146 C 0.94035 0.45568 0.91948 0.0
C147 C 0.95222 0.4797 0.8775 0.0
C148 C 0.97868 0.47364 0.87505 0.0
C149 C 0.9671 0.45 0.91709 0.0
C150 C 0.98601 0.45888 0.89513 0.0
C151 C 1.00037 0.48485 0.85257 0.0
C152 C 0.14714 0.57401 0.84195 0.0
C153 C 0.15876 0.55523 0.85447 0.0
C154 C 0.1136 0.56016 0.83621 0.0
C155 C 0.09106 0.52737 0.84302 0.0
C156 C 0.13592 0.52236 0.86126 0.0
C157 C 0.10238 0.50873 0.85583 0.0
C158 C 0.0556 0.51226 0.83704 0.0
C159 C 0.10767 0.52082 0.7641 0.0
C160 C 0.10564 0.54253 0.74683 0.0
C161 C 0.08776 0.51058 0.78551 0.0
C162 C 0.06561 0.52203 0.79017 0.0
C163 C 0.08337 0.5539 0.75151 0.0
C164 C 0.06334 0.54351 0.77291 0.0
C165 C 0.04371 0.51046 0.81237 0.0
H166 H 0.8879 0.38379 0.82651 0.0
H167 H 0.94593 0.41745 0.83913 0.0
H168 H 0.8937 0.4683 0.78851 0.0
H169 H 0.95201 0.50187 0.80087 0.0
H170 H 0.91245 0.47492 0.9003 0.0
H171 H 0.94669 0.49224 0.86282 0.0
H172 H 0.97392 0.43931 0.93238 0.0
H173 H 0.00659 0.45439 0.89392 0.0
H174 H 0.16385 0.59955 0.83684 0.0
H175 H 0.1052 0.57512 0.82665 0.0
H176 H 0.14395 0.5069 0.87048 0.0
H177 H 0.08532 0.48334 0.86119 0.0
H178 H 0.12468 0.51175 0.76105 0.0
H179 H 0.08937 0.49335 0.79826 0.0
H180 H 0.08094 0.57027 0.73836 0.0
H181 H 0.04611 0.55231 0.77602 0.0
N182 N 0.01054 0.49533 0.80862 0.0
N183 N 0.03354 0.49952 0.85619 0.0
C184 C 0.5143 0.90101 0.98883 0.0
C185 C 0.49122 0.88626 0.96931 0.0
C186 C 0.52698 0.93434 0.99484 0.0
C187 C 0.51621 0.95351 0.98192 0.0
C188 C 0.48152 0.9057 0.95554 0.0
C189 C 0.49393 0.9391 0.96181 0.0
C190 C 0.52937 0.98881 0.98882 0.0
C191 C 0.47108 0.93235 0.05598 0.0
C192 C 0.48834 0.9386 0.07886 0.0
C193 C 0.48619 0.95199 0.03491 0.0
C194 C 0.51925 0.97781 0.03595 0.0
C195 C 0.5213 0.96475 0.07996 0.0
C196 C 0.53655 0.9841 0.05875 0.0
C197 C 0.53491 0.99999 0.01406 0.0
C198 C 0.60262 0.14829 0.01028 0.0
C199 C 0.63047 0.15554 0.02508 0.0
C200 C 0.5818 0.11608 1.00129 0.0
C201 C 0.58859 0.09067 0.00691 0.0
C202 C 0.63738 0.13004 0.03016 0.0
C203 C 0.61654 0.09797 0.02134 0.0
C204 C 0.5658 0.05584 0.99979 0.0
C205 C 0.60303 0.11047 0.92536 0.0
C206 C 0.57684 0.11003 0.91199 0.0
C207 C 0.59664 0.08964 0.94609 0.0
C208 C 0.56395 0.06783 0.9535 0.0
C209 C 0.54421 0.08832 0.91962 0.0
C210 C 0.53784 0.06717 0.94003 0.0
C211 C 0.55636 0.04493 0.97481 0.0
H212 H 0.52276 0.88678 0.99936 0.0
H213 H 0.54529 0.9451 0.00965 0.0
H214 H 0.46381 0.89488 0.94034 0.0
H215 H 0.48571 0.9535 0.95125 0.0
H216 H 0.4458 0.91229 0.05429 0.0
H217 H 0.47171 0.94724 0.01792 0.0
H218 H 0.5352 0.97077 0.09735 0.0
H219 H 0.56187 0.0042 0.06024 0.0
H220 H 0.59634 0.16725 0.00627 0.0
H221 H 0.55995 0.11085 0.99064 0.0
H222 H 0.65892 0.13481 0.04105 0.0
H223 H 0.62218 0.07868 0.02592 0.0
H224 H 0.62841 0.12704 0.91984 0.0
H225 H 0.61711 0.09028 0.95615 0.0
H226 H 0.52359 0.08726 0.90948 0.0
H227 H 0.51245 0.05036 0.94542 0.0
N228 N 0.53915 0.01175 0.97016 0.0
N229 N 0.554 0.033 0.01849 0.0
C230 C 0.50654 0.63581 0.17706 0.0
C231 C 0.48428 0.62413 0.19728 0.0
C232 C 0.52109 0.61779 0.16844 0.0
C233 C 0.51295 0.58717 0.17937 0.0
C234 C 0.47608 0.5936 0.20826 0.0
C235 C 0.4902 0.57525 0.19934 0.0
C236 C 0.53116 0.56977 0.17251 0.0
C237 C 0.48437 0.56922 0.09745 0.0
C238 C 0.50712 0.58945 0.07895 0.0
C239 C 0.49537 0.56338 0.12033 0.0
C240 C 0.5293 0.57737 0.12508 0.0
C241 C 0.54112 0.60417 0.08423 0.0
C242 C 0.55204 0.59784 0.10688 0.0
C243 C 0.54128 0.56823 0.14774 0.0
C244 C 0.61566 0.49365 0.15817 0.0
C245 C 0.64099 0.51244 0.14082 0.0
C246 C 0.59353 0.50397 0.1657 0.0
C247 C 0.59691 0.5338 0.15662 0.0
C248 C 0.64378 0.54192 0.13146 0.0
C249 C 0.62213 0.55249 0.13934 0.0
C250 C 0.57327 0.54502 0.16322 0.0
C251 C 0.61432 0.53554 0.23796 0.0
C252 C 0.58999 0.51155 0.25376 0.0
C253 C 0.60534 0.5463 0.21638 0.0
C254 C 0.57186 0.53316 0.21015 0.0
C255 C 0.55651 0.49861 0.24751 0.0
C256 C 0.54757 0.50952 0.22603 0.0
C257 C 0.56178 0.54487 0.18784 0.0
H258 H 0.51377 0.65961 0.16861 0.0
H259 H 0.53978 0.62868 0.15398 0.0
H260 H 0.45894 0.58407 0.22387 0.0
H261 H 0.48385 0.55202 0.20839 0.0
H262 H 0.45802 0.55697 0.09401 0.0
H263 H 0.47736 0.54694 0.1339 0.0
H264 H 0.55945 0.62049 0.07081 0.0
H265 H 0.57836 0.60884 0.11015 0.0
H266 H 0.61281 0.47092 0.16593 0.0
H267 H 0.57358 0.48834 0.17829 0.0
H268 H 0.66231 0.55665 0.1176 0.0
H269 H 0.62498 0.57532 0.1317 0.0
H270 H 0.64031 0.54589 0.24223 0.0
H271 H 0.62451 0.56505 0.20466 0.0
H272 H 0.5372 0.48051 0.2595 0.0
H273 H 0.52159 0.49937 0.22173 0.0
N274 N 0.54136 0.55744 0.19148 0.0
N275 N 0.56227 0.55643 0.14422 0.0
In276 In 0.6382 0.40773 0.41596 0.0
O277 O 0.69215 0.44961 0.41821 0.0
O278 O 0.68074 0.40697 0.39617 0.0
C279 C 0.61951 0.42428 0.45942 0.0
C280 C 0.61871 0.42605 0.37396 0.0
C281 C 0.61556 0.34286 0.42517 0.0
O282 O 0.64556 0.42267 0.45762 0.0
O283 O 0.6035 0.41857 0.4392 0.0
O284 O 0.59667 0.35332 0.41797 0.0
O285 O 0.64546 0.36492 0.4274 0.0
C286 C 0.70268 0.43494 0.40419 0.0
O287 O 0.60889 0.3961 0.37911 0.0
O288 O 0.63786 0.44652 0.3901 0.0
In289 In 0.25134 0.6367 0.58133 0.0
O290 O 0.26679 0.5971 0.58073 0.0
O291 O 0.29833 0.64287 0.59911 0.0
C292 C 0.2097 0.61264 0.5413 0.0
C293 C 0.21787 0.62165 0.62513 0.0
C294 C 0.28737 0.70147 0.56961 0.0
O295 O 0.24023 0.62309 0.53938 0.0
O296 O 0.20026 0.61363 0.56326 0.0
O297 O 0.25971 0.68942 0.58048 0.0
O298 O 0.29662 0.68088 0.56469 0.0
C299 C 0.29306 0.61447 0.59308 0.0
O300 O 0.23434 0.65107 0.61721 0.0
O301 O 0.21846 0.60017 0.61102 0.0
In302 In 0.64333 0.25293 0.74328 0.0
O303 O 0.69799 0.26922 0.73974 0.0
O304 O 0.68433 0.29541 0.76542 0.0
C305 C 0.62243 0.21715 0.70028 0.0
C306 C 0.6257 0.21113 0.78298 0.0
C307 C 0.62287 0.29647 0.73305 0.0
O308 O 0.65261 0.23633 0.70514 0.0
O309 O 0.60288 0.21564 0.71724 0.0
O310 O 0.60533 0.27019 0.74533 0.0
O311 O 0.65058 0.30077 0.72622 0.0
C312 C 0.70727 0.29218 0.75583 0.0
O313 O 0.61769 0.23322 0.78138 0.0
O314 O 0.64159 0.20966 0.76438 0.0
In315 In 0.4055 0.63612 0.91432 0.0
O316 O 0.35068 0.60021 0.92087 0.0
O317 O 0.36368 0.63688 0.89269 0.0
C318 C 0.42406 0.61848 0.9571 0.0
C319 C 0.42453 0.61147 0.87576 0.0
C320 C 0.42932 0.70188 0.92138 0.0
O321 O 0.39621 0.61615 0.95425 0.0
O322 O 0.4426 0.62901 0.93804 0.0
O323 O 0.43144 0.69014 0.90053 0.0
O324 O 0.41552 0.68062 0.93841 0.0
C325 C 0.3409 0.61263 0.90428 0.0
O326 O 0.44169 0.64099 0.88341 0.0
O327 O 0.39836 0.59413 0.88809 0.0
In328 In 0.78578 0.40824 0.07907 0.0
O329 O 0.80929 0.40031 0.11465 0.0
O330 O 0.82113 0.4492 0.10498 0.0
C331 C 0.74537 0.34663 0.06163 0.0
C332 C 0.74104 0.42586 0.09203 0.0
C333 C 0.82854 0.4302 0.04031 0.0
O334 O 0.76115 0.35185 0.08208 0.0
O335 O 0.74996 0.37239 0.05033 0.0
O336 O 0.80915 0.44107 0.0448 0.0
O337 O 0.82677 0.40872 0.05563 0.0
C338 C 0.8249 0.43078 0.12027 0.0
O339 O 0.7657 0.4438 0.07837 0.0
O340 O 0.73859 0.3988 0.09877 0.0
In341 In 0.39722 0.78961 0.24361 0.0
O342 O 0.42538 0.76163 0.24925 0.0
O343 O 0.39617 0.75207 0.21612 0.0
C344 C 0.41701 0.83155 0.2833 0.0
C345 C 0.42627 0.8306 0.20458 0.0
C346 C 0.33239 0.74991 0.25382 0.0
O347 O 0.42023 0.8062 0.28298 0.0
O348 O 0.40428 0.83563 0.26375 0.0
O349 O 0.34268 0.77535 0.2402 0.0
O350 O 0.35462 0.74466 0.26203 0.0
C351 C 0.41535 0.74589 0.2287 0.0
O352 O 0.39519 0.81456 0.2073 0.0
O353 O 0.44242 0.82626 0.22173 0.0
H354 H 0.18202 0.6774 0.28386 0.0
H355 H 0.20129 0.59695 0.29632 0.0
H356 H 0.25856 0.63249 0.28381 0.0
H357 H 0.30332 0.68629 0.26925 0.0
H358 H 0.283 0.76496 0.25296 0.0
H359 H 0.22554 0.72971 0.26626 0.0
C360 C 0.1984 0.66724 0.28343 0.0
C361 C 0.18702 0.63438 0.2913 0.0
C362 C 0.23113 0.68745 0.27536 0.0
C363 C 0.20923 0.62226 0.29103 0.0
C364 C 0.24203 0.64249 0.2836 0.0
C365 C 0.28625 0.69565 0.26855 0.0
C366 C 0.2973 0.72817 0.26031 0.0
C367 C 0.25325 0.67512 0.27581 0.0
C368 C 0.27495 0.73995 0.2592 0.0
C369 C 0.24219 0.71986 0.26689 0.0
H370 H 0.59063 0.20129 0.45447 0.0
H371 H 0.49035 0.1819 0.46026 0.0
H372 H 0.50803 0.23825 0.44644 0.0
H373 H 0.55236 0.29376 0.43384 0.0
H374 H 0.65293 0.31368 0.43059 0.0
H375 H 0.63478 0.25658 0.44256 0.0
C376 C 0.57265 0.20943 0.45302 0.0
C377 C 0.53919 0.18726 0.45843 0.0
C378 C 0.58305 0.24205 0.4455 0.0
C379 C 0.5162 0.1982 0.4559 0.0
C380 C 0.52631 0.23053 0.44813 0.0
C381 C 0.57021 0.28547 0.4356 0.0
C382 C 0.60389 0.30783 0.43129 0.0
C383 C 0.55969 0.25271 0.44295 0.0
C384 C 0.62684 0.29691 0.43385 0.0
C385 C 0.61651 0.26428 0.4407 0.0
H386 H 0.40491 0.58653 0.63003 0.0
H387 H 0.32305 0.48595 0.62901 0.0
H388 H 0.28678 0.50518 0.61298 0.0
H389 H 0.27783 0.55067 0.59975 0.0
H390 H 0.35835 0.65147 0.60433 0.0
H391 H 0.39544 0.63209 0.61874 0.0
C392 C 0.37905 0.56879 0.6267 0.0
C393 C 0.36698 0.53475 0.6306 0.0
C394 C 0.35802 0.58007 0.61802 0.0
C395 C 0.33337 0.51222 0.62572 0.0
C396 C 0.31246 0.5232 0.61668 0.0
C397 C 0.30357 0.5683 0.60374 0.0
C398 C 0.31547 0.60237 0.60081 0.0
C399 C 0.32452 0.55704 0.61268 0.0
C400 C 0.34869 0.62508 0.60643 0.0
C401 C 0.36988 0.61403 0.61469 0.0
H402 H 0.85936 0.365 0.78187 0.0
H403 H 0.83617 0.4364 0.81299 0.0
H404 H 0.77835 0.40183 0.80014 0.0
H405 H 0.73444 0.35099 0.78042 0.0
H406 H 0.75828 0.28088 0.74747 0.0
H407 H 0.81588 0.3152 0.76064 0.0
C408 C 0.84153 0.37283 0.78587 0.0
C409 C 0.85173 0.40296 0.79846 0.0
C410 C 0.80858 0.35311 0.77809 0.0
C411 C 0.82871 0.41327 0.80325 0.0
C412 C 0.79573 0.39351 0.79598 0.0
C413 C 0.75228 0.34327 0.77614 0.0
C414 C 0.74218 0.31341 0.76314 0.0
C415 C 0.78538 0.36335 0.78344 0.0
C416 C 0.76553 0.30381 0.75745 0.0
C417 C 0.79842 0.32337 0.76502 0.0
H418 H 0.48638 0.85691 0.92388 0.0
H419 H 0.46467 0.83564 1.00272 0.0
H420 H 0.44335 0.77676 0.99474 0.0
H421 H 0.43176 0.73155 0.96565 0.0
H422 H 0.45454 0.75212 0.88686 0.0
H423 H 0.47455 0.81104 0.89446 0.0
C424 C 0.4767 0.83925 0.93921 0.0
C425 C 0.47709 0.8505 0.96384 0.0
C426 C 0.46485 0.80542 0.93452 0.0
C427 C 0.46484 0.82753 0.98364 0.0
C428 C 0.45261 0.79389 0.97909 0.0
C429 C 0.44107 0.7489 0.95011 0.0
C430 C 0.44168 0.73753 0.92574 0.0
C431 C 0.4527 0.78261 0.95466 0.0
C432 C 0.4539 0.76032 0.90582 0.0
C433 C 0.46528 0.79398 0.91015 0.0
H434 H 0.62735 0.44894 0.13207 0.0
H435 H 0.70685 0.55071 0.12969 0.0
H436 H 0.74384 0.53295 0.11271 0.0
H437 H 0.75402 0.48862 0.09885 0.0
H438 H 0.67657 0.38668 0.10519 0.0
H439 H 0.63847 0.40439 0.12068 0.0
C440 C 0.65288 0.46728 0.12827 0.0
C441 C 0.66402 0.5012 0.13196 0.0
C442 C 0.67441 0.45686 0.11914 0.0
C443 C 0.6972 0.52449 0.1265 0.0
C444 C 0.71853 0.51437 0.11693 0.0
C445 C 0.72872 0.47035 0.10348 0.0
C446 C 0.71788 0.43649 0.10067 0.0
C447 C 0.70736 0.48067 0.11306 0.0
C448 C 0.68531 0.41293 0.10716 0.0
C449 C 0.66359 0.42304 0.11602 0.0
H450 H 0.35349 0.85296 0.54179 0.0
H451 H 0.43641 0.83886 0.52723 0.0
H452 H 0.4037 0.78082 0.54006 0.0
H453 H 0.35117 0.73391 0.55441 0.0
H454 H 0.26857 0.74825 0.56999 0.0
H455 H 0.30148 0.80645 0.55766 0.0
C456 C 0.3643 0.83708 0.54138 0.0
C457 C 0.39718 0.84999 0.53346 0.0
C458 C 0.34542 0.80389 0.54889 0.0
C459 C 0.41117 0.82944 0.53338 0.0
C460 C 0.39246 0.79628 0.5406 0.0
C461 C 0.34039 0.7498 0.55511 0.0
C462 C 0.30746 0.73683 0.56293 0.0
C463 C 0.35952 0.78321 0.54823 0.0
C464 C 0.29388 0.75771 0.56401 0.0
C465 C 0.31265 0.79094 0.55693 0.0
H466 H 0.59754 0.4106 0.69645 0.0
H467 H 0.49662 0.33483 0.71012 0.0
H468 H 0.51514 0.29719 0.72503 0.0
H469 H 0.56003 0.28537 0.73322 0.0
H470 H 0.66076 0.3602 0.71747 0.0
H471 H 0.64245 0.39874 0.70457 0.0
C472 C 0.5797 0.38592 0.70288 0.0
C473 C 0.54582 0.37543 0.7022 0.0
C474 C 0.5905 0.36427 0.71105 0.0
C475 C 0.52284 0.34329 0.71028 0.0
C476 C 0.53341 0.32183 0.71889 0.0
C477 C 0.57795 0.3102 0.72714 0.0
C478 C 0.61166 0.32 0.72636 0.0
C479 C 0.56717 0.33198 0.71922 0.0
C480 C 0.63463 0.3521 0.71819 0.0
C481 C 0.62419 0.37414 0.71081 0.0
H482 H 0.1861 0.54528 0.89648 0.0
H483 H 0.21204 0.59786 0.82583 0.0
H484 H 0.27056 0.62136 0.83555 0.0
H485 H 0.31447 0.62588 0.86361 0.0
H486 H 0.28826 0.57015 0.93273 0.0
H487 H 0.22967 0.54839 0.9238 0.0
C488 C 0.20446 0.56151 0.88299 0.0
C489 C 0.19449 0.56972 0.86044 0.0
C490 C 0.23806 0.57427 0.88838 0.0
C491 C 0.21885 0.59146 0.84353 0.0
C492 C 0.25238 0.60473 0.84897 0.0
C493 C 0.2959 0.60903 0.87673 0.0
C494 C 0.3056 0.59967 0.89881 0.0
C495 C 0.26226 0.59622 0.87129 0.0
C496 C 0.28135 0.57765 0.91557 0.0
C497 C 0.24787 0.56524 0.9105 0.0
H498 H 0.65086 0.21514 1.00237 0.0
H499 H 0.65834 0.17178 0.07194 0.0
H500 H 0.69501 0.22678 0.08916 0.0
H501 H 0.72508 0.28741 0.0846 0.0
H502 H 0.7159 0.33077 0.01564 0.0
H503 H 0.6795 0.27569 0.99826 0.0
C504 C 0.66019 0.21771 0.02139 0.0
C505 C 0.65198 0.18927 0.0357 0.0
C506 C 0.68101 0.24948 0.03135 0.0
C507 C 0.6647 0.19315 0.06026 0.0
C508 C 0.68554 0.22464 0.07023 0.0
C509 C 0.71511 0.28476 0.06577 0.0
C510 C 0.72323 0.3131 0.05143 0.0
C511 C 0.69397 0.25299 0.05593 0.0
C512 C 0.71 0.30932 0.0271 0.0
C513 C 0.68919 0.27783 0.01712 0.0
H514 H 0.45514 0.65254 0.17134 0.0
H515 H 0.48401 0.64181 0.24613 0.0
H516 H 0.4654 0.67879 0.26272 0.0
H517 H 0.44229 0.71554 0.25559 0.0
H518 H 0.4115 0.72412 0.18084 0.0
H519 H 0.4296 0.68683 0.16457 0.0
C520 C 0.45726 0.65831 0.19126 0.0
C521 C 0.47098 0.64467 0.20749 0.0
C522 C 0.44632 0.67932 0.20064 0.0
C523 C 0.47328 0.65191 0.23333 0.0
C524 C 0.46284 0.67317 0.24278 0.0
C525 C 0.43957 0.70918 0.23576 0.0
C526 C 0.42579 0.72268 0.21941 0.0
C527 C 0.44956 0.68725 0.22657 0.0
C528 C 0.42203 0.71401 0.19381 0.0
C529 C 0.43241 0.69273 0.18446 0.0
H530 H 0.85523 0.5147 0.37899 0.0
H531 H 0.83492 0.41649 0.35921 0.0
H532 H 0.77689 0.39367 0.37084 0.0
H533 H 0.73193 0.40176 0.38611 0.0
H534 H 0.75231 0.4994 0.40794 0.0
H535 H 0.81038 0.52246 0.39604 0.0
C536 C 0.83799 0.48833 0.37722 0.0
C537 C 0.84914 0.46725 0.36819 0.0
C538 C 0.8048 0.47537 0.38428 0.0
C539 C 0.82682 0.43308 0.36625 0.0
C540 C 0.79368 0.42009 0.3728 0.0
C541 C 0.74909 0.4281 0.38824 0.0
C542 C 0.7379 0.44893 0.3977 0.0
C543 C 0.7824 0.441 0.38176 0.0
C544 C 0.76042 0.48291 0.40068 0.0
C545 C 0.79356 0.49609 0.39384 0.0
H546 H 0.09389 0.56142 0.4621 0.0
H547 H 0.17603 0.613 0.41136 0.0
H548 H 0.21484 0.62741 0.44643 0.0
H549 H 0.22531 0.62562 0.49175 0.0
H550 H 0.14274 0.57576 0.54242 0.0
H551 H 0.10424 0.55993 0.50716 0.0
C552 C 0.1203 0.57563 0.45872 0.0
C553 C 0.13209 0.58607 0.43419 0.0
C554 C 0.14238 0.58397 0.47896 0.0
C555 C 0.16636 0.60493 0.43012 0.0
C556 C 0.18854 0.613 0.45014 0.0
C557 C 0.1989 0.61105 0.49498 0.0
C558 C 0.18687 0.60169 0.5196 0.0
C559 C 0.17683 0.60265 0.47465 0.0
C560 C 0.15259 0.58321 0.52362 0.0
C561 C 0.13055 0.5742 0.50348 0.0
H562 H 0.59554 0.14327 0.5959 0.0
H563 H 0.49546 0.11721 0.61409 0.0
H564 H 0.51452 0.14907 0.65316 0.0
H565 H 0.55947 0.18305 0.68271 0.0
H566 H 0.65962 0.20951 0.66428 0.0
H567 H 0.64065 0.17842 0.62489 0.0
C568 C 0.57791 0.1445 0.60847 0.0
C569 C 0.54413 0.12781 0.60215 0.0
C570 C 0.58902 0.16274 0.63092 0.0
C571 C 0.52163 0.13008 0.6184 0.0
C572 C 0.53248 0.1481 0.64082 0.0
C573 C 0.57712 0.18195 0.67008 0.0
C574 C 0.61086 0.19836 0.67646 0.0
C575 C 0.56608 0.1643 0.64736 0.0
C576 C 0.6335 0.19701 0.65982 0.0
C577 C 0.62267 0.17926 0.63729 0.0
H578 H 0.47672 0.58184 0.77516 0.0
H579 H 0.38822 0.48682 0.7845 0.0
H580 H 0.3756 0.50621 0.82334 0.0
H581 H 0.38964 0.55015 0.85474 0.0
H582 H 0.47876 0.64467 0.84582 0.0
H583 H 0.49159 0.62513 0.80709 0.0
C584 C 0.45486 0.56518 0.7858 0.0
C585 C 0.43346 0.53289 0.77677 0.0
C586 C 0.44796 0.57633 0.80833 0.0
C587 C 0.4049 0.51196 0.79069 0.0
C588 C 0.39779 0.52294 0.81305 0.0
C589 C 0.41199 0.5664 0.84441 0.0
C590 C 0.43323 0.59881 0.85318 0.0
C591 C 0.41913 0.55507 0.82206 0.0
C592 C 0.46202 0.61959 0.83952 0.0
C593 C 0.46933 0.60847 0.81732 0.0
H594 H 0.91433 0.48981 0.94264 0.0
H595 H 0.92174 0.40142 0.94952 0.0
H596 H 0.88975 0.38705 0.9883 0.0
H597 H 0.85818 0.39859 0.01963 0.0
H598 H 0.84727 0.48464 0.01105 0.0
H599 H 0.88172 0.50064 0.97331 0.0
C600 C 0.90862 0.46715 0.95238 0.0
C601 C 0.92054 0.44679 0.94305 0.0
C602 C 0.88954 0.45858 0.97438 0.0
C603 C 0.91341 0.4179 0.95637 0.0
C604 C 0.89489 0.4095 0.9785 0.0
C605 C 0.86355 0.42097 0.00957 0.0
C606 C 0.85038 0.44051 0.01812 0.0
C607 C 0.88275 0.4296 0.98763 0.0
C608 C 0.85717 0.46921 0.0048 0.0
C609 C 0.87683 0.47835 0.98323 0.0
H610 H 0.51538 0.91794 0.11504 0.0
H611 H 0.42403 0.91355 0.09391 0.0
H612 H 0.3967 0.87941 0.13055 0.0
H613 H 0.39865 0.85084 0.16881 0.0
H614 H 0.49079 0.85797 0.19104 0.0
H615 H 0.51799 0.89161 0.15409 0.0
C616 C 0.48961 0.90995 0.11857 0.0
C617 C 0.47186 0.91825 0.10153 0.0
C618 C 0.47415 0.89088 0.13998 0.0
C619 C 0.43827 0.90707 0.10633 0.0
C620 C 0.42261 0.88773 0.12743 0.0
C621 C 0.42469 0.85984 0.16557 0.0
C622 C 0.44265 0.85188 0.18259 0.0
C623 C 0.44028 0.87943 0.14436 0.0
C624 C 0.47642 0.86382 0.17824 0.0
C625 C 0.49199 0.883 0.15708 0.0
H626 H 0.56458 0.44853 0.27133 0.0
H627 H 0.63652 0.55017 0.2885 0.0
H628 H 0.6515 0.5327 0.3272 0.0
H629 H 0.64387 0.48868 0.35637 0.0
H630 H 0.57257 0.38688 0.3391 0.0
H631 H 0.55736 0.40429 0.30039 0.0
C632 C 0.58341 0.46685 0.28363 0.0
C633 C 0.5994 0.50061 0.27703 0.0
C634 C 0.59192 0.45662 0.30586 0.0
C635 C 0.62409 0.52401 0.29298 0.0
C636 C 0.63253 0.51406 0.31519 0.0
C637 C 0.62493 0.4703 0.34417 0.0
C638 C 0.60926 0.43655 0.35065 0.0
C639 C 0.61658 0.48046 0.32184 0.0
C640 C 0.58496 0.41302 0.33455 0.0
C641 C 0.57627 0.42296 0.31241 0.0
H642 H 0.45008 0.94329 0.36372 0.0
H643 H 0.44298 0.86698 0.41356 0.0
H644 H 0.43351 0.83055 0.37768 0.0
H645 H 0.42545 0.81957 0.33206 0.0
H646 H 0.42874 0.89468 0.28293 0.0
H647 H 0.44112 0.93214 0.31861 0.0
C648 C 0.44605 0.91856 0.36685 0.0
C649 C 0.44728 0.90804 0.3914 0.0
C650 C 0.43994 0.89744 0.34619 0.0
C651 C 0.44267 0.87605 0.39489 0.0
C652 C 0.43705 0.85505 0.37437 0.0
C653 C 0.42916 0.84424 0.32921 0.0
C654 C 0.4263 0.85441 0.30494 0.0
C655 C 0.43554 0.86544 0.34993 0.0
C656 C 0.43077 0.88628 0.30148 0.0
C657 C 0.43782 0.90771 0.32186 0.0
H658 H 0.57921 0.43711 0.57034 0.0
H659 H 0.50476 0.44785 0.53016 0.0
H660 H 0.52717 0.44238 0.49029 0.0
H661 H 0.56772 0.43437 0.4666 0.0
H662 H 0.64398 0.42666 0.50645 0.0
H663 H 0.6216 0.43213 0.54659 0.0
C664 C 0.56807 0.43871 0.55291 0.0
C665 C 0.54002 0.44256 0.55348 0.0
C666 C 0.58157 0.43634 0.5299 0.0
C667 C 0.5258 0.44407 0.53052 0.0
C668 C 0.53882 0.44129 0.50761 0.0
C669 C 0.57956 0.43409 0.48407 0.0
C670 C 0.60742 0.43005 0.48356 0.0
C671 C 0.56662 0.43733 0.50706 0.0
C672 C 0.62255 0.42983 0.50633 0.0
C673 C 0.60968 0.43282 0.5293 0.0
H674 H 0.14046 0.60427 0.72652 0.0
H675 H 0.11634 0.50288 0.71513 0.0
H676 H 0.14937 0.51862 0.67678 0.0
H677 H 0.18435 0.56084 0.6462 0.0
H678 H 0.20882 0.66238 0.65719 0.0
H679 H 0.17623 0.64691 0.69593 0.0
C680 C 0.14232 0.58564 0.71554 0.0
C681 C 0.12601 0.55247 0.72366 0.0
C682 C 0.16136 0.59486 0.69347 0.0
C683 C 0.12898 0.52864 0.70944 0.0
C684 C 0.14771 0.53758 0.68745 0.0
C685 C 0.18259 0.57962 0.65707 0.0
C686 C 0.19888 0.61268 0.64883 0.0
C687 C 0.16394 0.57057 0.67927 0.0
C688 C 0.19648 0.63674 0.66316 0.0
C689 C 0.17784 0.62791 0.68529 0.0
H690 H 0.615 0.1164 0.87167 0.0
H691 H 0.55249 0.15123 0.9024 0.0
H692 H 0.5618 0.18559 0.86513 0.0
H693 H 0.58779 0.20566 0.82367 0.0
H694 H 0.64864 0.16895 0.7925 0.0
H695 H 0.63987 0.1354 0.82994 0.0
C696 C 0.60367 0.13175 0.87023 0.0
C697 C 0.5833 0.13152 0.88974 0.0
C698 C 0.60868 0.15095 0.84861 0.0
C699 C 0.56824 0.15102 0.88754 0.0
C700 C 0.57357 0.17065 0.86627 0.0
C701 C 0.59902 0.19023 0.82507 0.0
C702 C 0.61885 0.18983 0.80534 0.0
C703 C 0.59368 0.17075 0.84664 0.0
C704 C 0.63318 0.16964 0.80739 0.0
C705 C 0.62827 0.15051 0.82883 0.0
H706 H 0.45245 0.59463 0.06873 0.0
H707 H 0.53559 0.59526 0.03266 0.0
H708 H 0.51767 0.60471 0.99208 0.0
H709 H 0.47835 0.61285 0.96654 0.0
H710 H 0.39334 0.60839 1.00228 0.0
H711 H 0.4116 0.59951 0.04303 0.0
C712 C 0.46648 0.59633 0.05201 0.0
C713 C 0.49559 0.59453 0.05403 0.0
C714 C 0.45559 0.60092 0.02852 0.0
C715 C 0.51355 0.59735 0.03199 0.0
C716 C 0.50316 0.60245 0.00863 0.0
C717 C 0.46379 0.60979 0.98325 0.0
C718 C 0.4346 0.61136 0.98139 0.0
C719 C 0.47427 0.60437 0.00666 0.0
C720 C 0.41588 0.6072 1.00318 0.0
C721 C 0.42635 0.60222 0.02653 0.0
H722 H 0.91068 0.51099 0.21369 0.0
H723 H 0.90285 0.41674 0.23043 0.0
H724 H 0.86888 0.39252 0.19294 0.0
H725 H 0.84215 0.39845 0.15469 0.0
H726 H 0.85296 0.49387 0.1375 0.0
H727 H 0.88555 0.51732 0.17549 0.0
C728 C 0.90195 0.48525 0.20905 0.0
C729 C 0.90944 0.46584 0.22496 0.0
C730 C 0.88303 0.47165 0.18721 0.0
C731 C 0.89714 0.43226 0.2188 0.0
C732 C 0.8779 0.4184 0.19722 0.0
C733 C 0.85171 0.42436 0.15929 0.0
C734 C 0.84514 0.44435 0.14326 0.0
C735 C 0.87076 0.4379 0.18121 0.0
C736 C 0.85772 0.47791 0.14944 0.0
C737 C 0.87633 0.49139 0.17122 0.0
loop_
_geom_bond_atom_site_label_1
_geom_bond_atom_site_label_2
_geom_bond_distance
_geom_bond_site_symmetry_2
_ccdc_geom_bond_type
C0 C1 1.384 . S
C0 C2 1.384 . S
C0 H28 0.931 . S
C1 C0 1.384 . S
C1 C4 1.382 . S
C2 C0 1.384 . S
C2 C3 1.381 . S
C2 H29 0.930 . S
C3 C2 1.381 . S
C3 C5 1.381 . S
C3 C6 1.487 . S
C4 C1 1.382 . S
C4 C5 1.387 . S
C4 H30 0.930 . S
C5 C3 1.381 . S
C5 C4 1.387 . S
C5 H31 0.931 . S
C6 C3 1.487 . S
C6 C13 1.399 . S
C6 N44 1.343 1_655 S
C7 C8 1.384 . S
C7 C9 1.384 . S
C7 H32 0.931 . S
C8 C7 1.384 . S
C8 C11 1.382 . S
C9 C7 1.384 . S
C9 C10 1.381 . S
C9 H33 0.930 . S
C10 C9 1.381 . S
C10 C12 1.381 . S
C10 C13 1.487 . S
C11 C8 1.382 . S
C11 C12 1.387 . S
C11 H34 0.930 . S
C12 C10 1.381 . S
C12 C11 1.387 . S
C12 H35 0.938 . S
C13 C6 1.399 . S
C13 C10 1.487 . S
C13 N45 1.343 1_655 S
C14 C15 1.384 . S
C14 C16 1.384 . S
C14 H36 0.931 . S
C15 C14 1.384 . S
C15 C18 1.382 . S
C16 C14 1.384 . S
C16 C17 1.381 . S
C16 H37 0.930 . S
C17 C16 1.381 . S
C17 C19 1.381 . S
C17 C20 1.487 . S
C18 C15 1.382 . S
C18 C19 1.387 . S
C18 H38 0.930 . S
C19 C17 1.381 . S
C19 C18 1.387 . S
C19 H39 0.931 . S
C20 C17 1.487 . S
C20 C27 1.399 . S
C20 N45 1.343 . S
C21 C22 1.384 . S
C21 C23 1.384 . S
C21 H40 0.931 . S
C22 C21 1.384 . S
C22 C25 1.382 . S
C23 C21 1.384 . S
C23 C24 1.381 . S
C23 H41 0.930 . S
C24 C23 1.381 . S
C24 C26 1.381 . S
C24 C27 1.487 . S
C25 C22 1.382 . S
C25 C26 1.387 . S
C25 H42 0.930 . S
C26 C24 1.381 . S
C26 C25 1.387 . S
C26 H43 0.931 . S
C27 C20 1.399 . S
C27 C24 1.487 . S
C27 N44 1.343 . S
H28 C0 0.931 . S
H29 C2 0.930 . S
H30 C4 0.930 . S
H31 C5 0.931 . S
H32 C7 0.931 . S
H33 C9 0.930 . S
H34 C11 0.930 . S
H35 C12 0.938 . S
H36 C14 0.931 . S
H37 C16 0.930 . S
H38 C18 0.930 . S
H39 C19 0.931 . S
H40 C21 0.931 . S
H41 C23 0.930 . S
H42 C25 0.930 . S
H43 C26 0.931 . S
N44 C6 1.343 1_455 S
N44 C27 1.343 . S
N45 C13 1.343 1_455 S
N45 C20 1.343 . S
C46 C47 1.384 . S
C46 C48 1.384 . S
C46 H74 0.931 . S
C47 C46 1.384 . S
C47 C50 1.382 . S
C48 C46 1.384 . S
C48 C49 1.381 . S
C48 H75 0.930 . S
C49 C48 1.381 . S
C49 C51 1.381 . S
C49 C52 1.487 . S
C50 C47 1.382 . S
C50 C51 1.387 . S
C50 H76 0.930 . S
C51 C49 1.381 . S
C51 C50 1.387 . S
C51 H77 0.931 . S
C52 C49 1.487 . S
C52 C59 1.399 . S
C52 N90 1.343 1_565 S
C53 C54 1.384 . S
C53 C55 1.384 . S
C53 H78 0.931 . S
C54 C53 1.384 . S
C54 C57 1.382 . S
C55 C53 1.384 . S
C55 C56 1.381 . S
C55 H79 0.930 . S
C56 C55 1.381 . S
C56 C58 1.381 . S
C56 C59 1.487 . S
C57 C54 1.382 . S
C57 C58 1.387 . S
C57 H80 0.930 . S
C58 C56 1.381 . S
C58 C57 1.387 . S
C58 H81 0.931 . S
C59 C52 1.399 . S
C59 C56 1.487 . S
C59 N91 1.343 1_565 S
C60 C61 1.384 . S
C60 C62 1.384 . S
C60 H82 0.931 . S
C61 C60 1.384 . S
C61 C64 1.382 . S
C62 C60 1.384 . S
C62 C63 1.381 . S
C62 H83 0.930 . S
C63 C62 1.381 . S
C63 C65 1.381 . S
C63 C66 1.487 . S
C64 C61 1.382 . S
C64 C65 1.387 . S
C64 H84 0.930 . S
C65 C63 1.381 . S
C65 C64 1.387 . S
C65 H85 0.931 . S
C66 C63 1.487 . S
C66 C73 1.399 . S
C66 N91 1.343 . S
C67 C68 1.384 . S
C67 C69 1.384 . S
C67 H86 0.931 . S
C68 C67 1.384 . S
C68 C71 1.382 . S
C69 C67 1.384 . S
C69 C70 1.381 . S
C69 H87 0.930 . S
C70 C69 1.381 . S
C70 C72 1.381 . S
C70 C73 1.487 . S
C71 C68 1.382 . S
C71 C72 1.387 . S
C71 H88 0.930 . S
C72 C70 1.381 . S
C72 C71 1.387 . S
C72 H89 0.931 . S
C73 C66 1.399 . S
C73 C70 1.487 . S
C73 N90 1.343 . S
H74 C46 0.931 . S
H75 C48 0.930 . S
H76 C50 0.930 . S
H77 C51 0.931 . S
H78 C53 0.931 . S
H79 C55 0.930 . S
H80 C57 0.930 . S
H81 C58 0.931 . S
H82 C60 0.931 . S
H83 C62 0.930 . S
H84 C64 0.930 . S
H85 C65 0.931 . S
H86 C67 0.931 . S
H87 C69 0.930 . S
H88 C71 0.930 . S
H89 C72 0.931 . S
N90 C52 1.343 1_545 S
N90 C73 1.343 . S
N91 C59 1.343 1_545 S
N91 C66 1.343 . S
C92 C93 1.384 . S
C92 C94 1.384 . S
C92 H120 0.931 . S
C93 C92 1.384 . S
C93 C96 1.382 . S
C94 C92 1.384 . S
C94 C95 1.381 . S
C94 H121 0.930 . S
C95 C94 1.381 . S
C95 C97 1.381 . S
C95 C98 1.487 . S
C96 C93 1.382 . S
C96 C97 1.387 . S
C96 H122 0.930 . S
C97 C95 1.381 . S
C97 C96 1.387 . S
C97 H123 0.931 . S
C98 C95 1.487 . S
C98 C105 1.399 . S
C98 N136 1.343 . S
C99 C100 1.384 . S
C99 C101 1.384 . S
C99 H124 0.931 . S
C100 C99 1.384 . S
C100 C103 1.382 . S
C101 C99 1.384 . S
C101 C102 1.381 . S
C101 H125 0.930 . S
C102 C101 1.381 . S
C102 C104 1.381 . S
C102 C105 1.487 . S
C103 C100 1.382 . S
C103 C104 1.387 . S
C103 H126 0.930 . S
C104 C102 1.381 . S
C104 C103 1.387 . S
C104 H127 0.931 . S
C105 C98 1.399 . S
C105 C102 1.487 . S
C105 N137 1.343 . S
C106 C107 1.384 . S
C106 C108 1.384 . S
C106 H128 0.931 . S
C107 C106 1.384 . S
C107 C110 1.382 . S
C108 C106 1.384 . S
C108 C109 1.381 . S
C108 H129 0.930 . S
C109 C108 1.381 . S
C109 C111 1.381 . S
C109 C112 1.487 . S
C110 C107 1.382 . S
C110 C111 1.387 . S
C110 H130 0.930 . S
C111 C109 1.381 . S
C111 C110 1.387 . S
C111 H131 0.931 . S
C112 C109 1.487 . S
C112 C119 1.399 . S
C112 N137 1.343 . S
C113 C114 1.384 . S
C113 C115 1.384 . S
C113 H132 0.931 . S
C114 C113 1.384 . S
C114 C117 1.382 . S
C115 C113 1.384 . S
C115 C116 1.381 . S
C115 H133 0.930 . S
C116 C115 1.381 . S
C116 C118 1.381 . S
C116 C119 1.487 . S
C117 C114 1.382 . S
C117 C118 1.387 . S
C117 H134 0.930 . S
C118 C116 1.381 . S
C118 C117 1.387 . S
C118 H135 0.931 . S
C119 C112 1.399 . S
C119 C116 1.487 . S
C119 N136 1.343 . S
H120 C92 0.931 . S
H121 C94 0.930 . S
H122 C96 0.930 . S
H123 C97 0.931 . S
H124 C99 0.931 . S
H125 C101 0.930 . S
H126 C103 0.930 . S
H127 C104 0.931 . S
H128 C106 0.931 . S
H129 C108 0.930 . S
H130 C110 0.930 . S
H131 C111 0.931 . S
H132 C113 0.931 . S
H133 C115 0.930 . S
H134 C117 0.930 . S
H135 C118 0.931 . S
N136 C98 1.343 . S
N136 C119 1.343 . S
N137 C105 1.343 . S
N137 C112 1.343 . S
C138 C139 1.384 . S
C138 C140 1.384 . S
C138 H166 0.931 . S
C139 C138 1.384 . S
C139 C142 1.382 . S
C140 C138 1.384 . S
C140 C141 1.381 . S
C140 H167 0.930 . S
C141 C140 1.381 . S
C141 C143 1.381 . S
C141 C144 1.487 . S
C142 C139 1.382 . S
C142 C143 1.387 . S
C142 H168 0.930 . S
C143 C141 1.381 . S
C143 C142 1.387 . S
C143 H169 0.931 . S
C144 C141 1.487 . S
C144 C151 1.399 . S
C144 N182 1.343 1_655 S
C145 C146 1.384 . S
C145 C147 1.384 . S
C145 H170 0.931 . S
C146 C145 1.384 . S
C146 C149 1.382 . S
C147 C145 1.384 . S
C147 C148 1.381 . S
C147 H171 0.930 . S
C148 C147 1.381 . S
C148 C150 1.381 . S
C148 C151 1.487 . S
C149 C146 1.382 . S
C149 C150 1.387 . S
C149 H172 0.930 . S
C150 C148 1.381 . S
C150 C149 1.387 . S
C150 H173 0.931 . S
C151 C144 1.399 . S
C151 C148 1.487 . S
C151 N183 1.343 1_655 S
C152 C153 1.384 . S
C152 C154 1.384 . S
C152 H174 0.931 . S
C153 C152 1.384 . S
C153 C156 1.382 . S
C154 C152 1.384 . S
C154 C155 1.381 . S
C154 H175 0.930 . S
C155 C154 1.381 . S
C155 C157 1.381 . S
C155 C158 1.487 . S
C156 C153 1.382 . S
C156 C157 1.387 . S
C156 H176 0.930 . S
C157 C155 1.381 . S
C157 C156 1.387 . S
C157 H177 0.931 . S
C158 C155 1.487 . S
C158 C165 1.399 . S
C158 N183 1.343 . S
C159 C160 1.384 . S
C159 C161 1.384 . S
C159 H178 0.931 . S
C160 C159 1.384 . S
C160 C163 1.382 . S
C161 C159 1.384 . S
C161 C162 1.381 . S
C161 H179 0.930 . S
C162 C161 1.381 . S
C162 C164 1.381 . S
C162 C165 1.487 . S
C163 C160 1.382 . S
C163 C164 1.387 . S
C163 H180 0.930 . S
C164 C162 1.381 . S
C164 C163 1.387 . S
C164 H181 0.931 . S
C165 C158 1.399 . S
C165 C162 1.487 . S
C165 N182 1.343 . S
H166 C138 0.931 . S
H167 C140 0.930 . S
H168 C142 0.930 . S
H169 C143 0.931 . S
H170 C145 0.931 . S
H171 C147 0.930 . S
H172 C149 0.930 . S
H173 C150 0.931 . S
H174 C152 0.931 . S
H175 C154 0.930 . S
H176 C156 0.930 . S
H177 C157 0.931 . S
H178 C159 0.931 . S
H179 C161 0.930 . S
H180 C163 0.930 . S
H181 C164 0.931 . S
N182 C144 1.343 1_455 S
N182 C165 1.343 . S
N183 C151 1.343 1_455 S
N183 C158 1.343 . S
C184 C185 1.384 . S
C184 C186 1.384 . S
C184 H212 0.931 . S
C185 C184 1.384 . S
C185 C188 1.382 . S
C186 C184 1.384 . S
C186 C187 1.381 . S
C186 H213 0.930 1_556 S
C187 C186 1.381 . S
C187 C189 1.381 . S
C187 C190 1.487 . S
C188 C185 1.382 . S
C188 C189 1.387 . S
C188 H214 0.930 . S
C189 C187 1.381 . S
C189 C188 1.387 . S
C189 H215 0.931 . S
C190 C187 1.487 . S
C190 C197 1.399 1_556 S
C190 N228 1.343 1_565 S
C191 C192 1.384 . S
C191 C193 1.384 . S
C191 H216 0.931 . S
C192 C191 1.384 . S
C192 C195 1.382 . S
C193 C191 1.384 . S
C193 C194 1.381 . S
C193 H217 0.930 . S
C194 C193 1.381 . S
C194 C196 1.381 . S
C194 C197 1.487 . S
C195 C192 1.382 . S
C195 C196 1.387 . S
C195 H218 0.930 . S
C196 C194 1.381 . S
C196 C195 1.387 . S
C196 H219 0.930 . S
C197 C190 1.399 1_554 S
C197 C194 1.487 . S
C197 N229 1.343 1_565 S
C198 C199 1.384 . S
C198 C200 1.384 1_554 S
C198 H220 0.931 1_554 S
C199 C198 1.384 . S
C199 C202 1.382 . S
C200 C198 1.384 1_556 S
C200 C201 1.381 1_556 S
C200 H221 0.930 . S
C201 C200 1.381 1_554 S
C201 C203 1.381 . S
C201 C204 1.487 1_554 S
C202 C199 1.382 . S
C202 C203 1.387 . S
C202 H222 0.930 . S
C203 C201 1.381 . S
C203 C202 1.387 . S
C203 H223 0.931 . S
C204 C201 1.487 1_556 S
C204 C211 1.399 . S
C204 N229 1.343 1_556 S
C205 C206 1.384 . S
C205 C207 1.384 . S
C205 H224 0.931 . S
C206 C205 1.384 . S
C206 C209 1.382 . S
C207 C205 1.384 . S
C207 C208 1.381 . S
C207 H225 0.930 . S
C208 C207 1.381 . S
C208 C210 1.381 . S
C208 C211 1.487 . S
C209 C206 1.382 . S
C209 C210 1.387 . S
C209 H226 0.930 . S
C210 C208 1.381 . S
C210 C209 1.387 . S
C210 H227 0.931 . S
C211 C204 1.399 . S
C211 C208 1.487 . S
C211 N228 1.343 . S
H212 C184 0.931 . S
H213 C186 0.930 1_554 S
H214 C188 0.930 . S
H215 C189 0.931 . S
H216 C191 0.931 . S
H217 C193 0.930 . S
H218 C195 0.930 . S
H219 C196 0.930 . S
H220 C198 0.931 1_556 S
H221 C200 0.930 . S
H222 C202 0.930 . S
H223 C203 0.931 . S
H224 C205 0.931 . S
H225 C207 0.930 . S
H226 C209 0.930 . S
H227 C210 0.931 . S
N228 C190 1.343 1_545 S
N228 C211 1.343 . S
N229 C197 1.343 1_545 S
N229 C204 1.343 1_554 S
C230 C231 1.384 . S
C230 C232 1.384 . S
C230 H258 0.931 . S
C231 C230 1.384 . S
C231 C234 1.382 . S
C232 C230 1.384 . S
C232 C233 1.381 . S
C232 H259 0.930 . S
C233 C232 1.381 . S
C233 C235 1.381 . S
C233 C236 1.487 . S
C234 C231 1.382 . S
C234 C235 1.387 . S
C234 H260 0.930 . S
C235 C233 1.381 . S
C235 C234 1.387 . S
C235 H261 0.931 . S
C236 C233 1.487 . S
C236 C243 1.399 . S
C236 N274 1.343 . S
C237 C238 1.384 . S
C237 C239 1.384 . S
C237 H262 0.931 . S
C238 C237 1.384 . S
C238 C241 1.382 . S
C239 C237 1.384 . S
C239 C240 1.381 . S
C239 H263 0.930 . S
C240 C239 1.381 . S
C240 C242 1.381 . S
C240 C243 1.487 . S
C241 C238 1.382 . S
C241 C242 1.387 . S
C241 H264 0.930 . S
C242 C240 1.381 . S
C242 C241 1.387 . S
C242 H265 0.931 . S
C243 C236 1.399 . S
C243 C240 1.487 . S
C243 N275 1.343 . S
C244 C245 1.384 . S
C244 C246 1.384 . S
C244 H266 0.931 . S
C245 C244 1.384 . S
C245 C248 1.382 . S
C246 C244 1.384 . S
C246 C247 1.381 . S
C246 H267 0.930 . S
C247 C246 1.381 . S
C247 C249 1.381 . S
C247 C250 1.487 . S
C248 C245 1.382 . S
C248 C249 1.387 . S
C248 H268 0.930 . S
C249 C247 1.381 . S
C249 C248 1.387 . S
C249 H269 0.931 . S
C250 C247 1.487 . S
C250 C257 1.399 . S
C250 N275 1.343 . S
C251 C252 1.384 . S
C251 C253 1.384 . S
C251 H270 0.931 . S
C252 C251 1.384 . S
C252 C255 1.382 . S
C253 C251 1.384 . S
C253 C254 1.381 . S
C253 H271 0.930 . S
C254 C253 1.381 . S
C254 C256 1.381 . S
C254 C257 1.487 . S
C255 C252 1.382 . S
C255 C256 1.387 . S
C255 H272 0.930 . S
C256 C254 1.381 . S
C256 C255 1.387 . S
C256 H273 0.931 . S
C257 C250 1.399 . S
C257 C254 1.487 . S
C257 N274 1.343 . S
H258 C230 0.931 . S
H259 C232 0.930 . S
H260 C234 0.930 . S
H261 C235 0.931 . S
H262 C237 0.931 . S
H263 C239 0.930 . S
H264 C241 0.930 . S
H265 C242 0.931 . S
H266 C244 0.931 . S
H267 C246 0.930 . S
H268 C248 0.930 . S
H269 C249 0.931 . S
H270 C251 0.931 . S
H271 C253 0.930 . S
H272 C255 0.930 . S
H273 C256 0.931 . S
N274 C236 1.343 . S
N274 C257 1.343 . S
N275 C243 1.343 . S
N275 C250 1.343 . S
In276 O277 2.294 . S
In276 O278 2.326 . S
In276 O282 2.266 . S
In276 O283 2.326 . S
In276 O284 2.266 . S
In276 O285 2.326 . S
In276 O287 2.294 . S
In276 O288 2.326 . S
O277 In276 2.294 . S
O277 C286 1.240 . S
O278 In276 2.326 . S
O278 C286 1.252 . S
C279 O282 1.252 . S
C279 O283 1.260 . S
C280 O287 1.240 . S
C280 O288 1.252 . S
C281 O284 1.252 . S
C281 O285 1.260 . S
O282 In276 2.266 . S
O282 C279 1.252 . S
O283 In276 2.326 . S
O283 C279 1.260 . S
O284 In276 2.266 . S
O284 C281 1.252 . S
O285 In276 2.326 . S
O285 C281 1.260 . S
C286 O277 1.240 . S
C286 O278 1.252 . S
O287 In276 2.294 . S
O287 C280 1.240 . S
O288 In276 2.326 . S
O288 C280 1.252 . S
In289 O290 2.294 . S
In289 O291 2.326 . S
In289 O295 2.266 . S
In289 O296 2.326 . S
In289 O297 2.266 . S
In289 O298 2.326 . S
In289 O300 2.294 . S
In289 O301 2.326 . S
O290 In289 2.294 . S
O290 C299 1.240 . S
O291 In289 2.326 . S
O291 C299 1.252 . S
C292 O295 1.252 . S
C292 O296 1.260 . S
C293 O300 1.240 . S
C293 O301 1.252 . S
C294 O297 1.252 . S
C294 O298 1.260 . S
O295 In289 2.266 . S
O295 C292 1.252 . S
O296 In289 2.326 . S
O296 C292 1.260 . S
O297 In289 2.266 . S
O297 C294 1.252 . S
O298 In289 2.326 . S
O298 C294 1.260 . S
C299 O290 1.240 . S
C299 O291 1.252 . S
O300 In289 2.294 . S
O300 C293 1.240 . S
O301 In289 2.326 . S
O301 C293 1.252 . S
In302 O303 2.294 . S
In302 O304 2.326 . S
In302 O308 2.266 . S
In302 O309 2.326 . S
In302 O310 2.266 . S
In302 O311 2.326 . S
In302 O313 2.294 . S
In302 O314 2.326 . S
O303 In302 2.294 . S
O303 C312 1.240 . S
O304 In302 2.326 . S
O304 C312 1.252 . S
C305 O308 1.252 . S
C305 O309 1.260 . S
C306 O313 1.240 . S
C306 O314 1.252 . S
C307 O310 1.252 . S
C307 O311 1.260 . S
O308 In302 2.266 . S
O308 C305 1.252 . S
O309 In302 2.326 . S
O309 C305 1.260 . S
O310 In302 2.266 . S
O310 C307 1.252 . S
O311 In302 2.326 . S
O311 C307 1.260 . S
C312 O303 1.240 . S
C312 O304 1.252 . S
O313 In302 2.294 . S
O313 C306 1.240 . S
O314 In302 2.326 . S
O314 C306 1.252 . S
In315 O316 2.294 . S
In315 O317 2.326 . S
In315 O321 2.266 . S
In315 O322 2.326 . S
In315 O323 2.266 . S
In315 O324 2.326 . S
In315 O326 2.294 . S
In315 O327 2.326 . S
O316 In315 2.294 . S
O316 C325 1.240 . S
O317 In315 2.326 . S
O317 C325 1.252 . S
C318 O321 1.252 . S
C318 O322 1.260 . S
C319 O326 1.240 . S
C319 O327 1.252 . S
C320 O323 1.252 . S
C320 O324 1.260 . S
O321 In315 2.266 . S
O321 C318 1.252 . S
O322 In315 2.326 . S
O322 C318 1.260 . S
O323 In315 2.266 . S
O323 C320 1.252 . S
O324 In315 2.326 . S
O324 C320 1.260 . S
C325 O316 1.240 . S
C325 O317 1.252 . S
O326 In315 2.294 . S
O326 C319 1.240 . S
O327 In315 2.326 . S
O327 C319 1.252 . S
In328 O329 2.294 . S
In328 O330 2.326 . S
In328 O334 2.266 . S
In328 O335 2.326 . S
In328 O336 2.266 . S
In328 O337 2.326 . S
In328 O339 2.294 . S
In328 O340 2.326 . S
O329 In328 2.294 . S
O329 C338 1.240 . S
O330 In328 2.326 . S
O330 C338 1.252 . S
C331 O334 1.252 . S
C331 O335 1.260 . S
C332 O339 1.240 . S
C332 O340 1.252 . S
C333 O336 1.252 . S
C333 O337 1.260 . S
O334 In328 2.266 . S
O334 C331 1.252 . S
O335 In328 2.326 . S
O335 C331 1.260 . S
O336 In328 2.266 . S
O336 C333 1.252 . S
O337 In328 2.326 . S
O337 C333 1.260 . S
C338 O329 1.240 . S
C338 O330 1.252 . S
O339 In328 2.294 . S
O339 C332 1.240 . S
O340 In328 2.326 . S
O340 C332 1.252 . S
In341 O342 2.294 . S
In341 O343 2.326 . S
In341 O347 2.266 . S
In341 O348 2.326 . S
In341 O349 2.266 . S
In341 O350 2.326 . S
In341 O352 2.294 . S
In341 O353 2.326 . S
O342 In341 2.294 . S
O342 C351 1.240 . S
O343 In341 2.326 . S
O343 C351 1.252 . S
C344 O347 1.252 . S
C344 O348 1.260 . S
C345 O352 1.240 . S
C345 O353 1.252 . S
C346 O349 1.252 . S
C346 O350 1.260 . S
O347 In341 2.266 . S
O347 C344 1.252 . S
O348 In341 2.326 . S
O348 C344 1.260 . S
O349 In341 2.266 . S
O349 C346 1.252 . S
O350 In341 2.326 . S
O350 C346 1.260 . S
C351 O342 1.240 . S
C351 O343 1.252 . S
O352 In341 2.294 . S
O352 C345 1.240 . S
O353 In341 2.326 . S
O353 C345 1.252 . S
H354 C360 0.930 . S
H355 C363 0.930 . S
H356 C364 0.930 . S
H357 C365 0.930 . S
H358 C368 0.930 . S
H359 C369 0.930 . S
C360 H354 0.930 . S
C360 C361 1.355 . S
C360 C362 1.415 . S
C361 C360 1.355 . S
C361 C363 1.419 . S
C362 C360 1.415 . S
C362 C367 1.425 . S
C362 C369 1.409 . S
C363 H355 0.930 . S
C363 C361 1.419 . S
C363 C364 1.362 . S
C364 H356 0.930 . S
C364 C363 1.362 . S
C364 C367 1.409 . S
C365 H357 0.930 . S
C365 C366 1.355 . S
C365 C367 1.415 . S
C366 C365 1.355 . S
C366 C368 1.419 . S
C367 C362 1.425 . S
C367 C364 1.409 . S
C367 C365 1.415 . S
C368 H358 0.930 . S
C368 C366 1.419 . S
C368 C369 1.362 . S
C369 H359 0.930 . S
C369 C362 1.409 . S
C369 C368 1.362 . S
H370 C376 0.930 . S
H371 C379 0.930 . S
H372 C380 0.930 . S
H373 C381 0.930 . S
H374 C384 0.930 . S
H375 C385 0.930 . S
C376 H370 0.930 . S
C376 C377 1.355 . S
C376 C378 1.415 . S
C377 C376 1.355 . S
C377 C379 1.419 . S
C378 C376 1.415 . S
C378 C383 1.425 . S
C378 C385 1.409 . S
C379 H371 0.930 . S
C379 C377 1.419 . S
C379 C380 1.362 . S
C380 H372 0.930 . S
C380 C379 1.362 . S
C380 C383 1.409 . S
C381 H373 0.930 . S
C381 C382 1.355 . S
C381 C383 1.415 . S
C382 C381 1.355 . S
C382 C384 1.419 . S
C383 C378 1.425 . S
C383 C380 1.409 . S
C383 C381 1.415 . S
C384 H374 0.930 . S
C384 C382 1.419 . S
C384 C385 1.362 . S
C385 H375 0.930 . S
C385 C378 1.409 . S
C385 C384 1.362 . S
H386 C392 0.930 . S
H387 C395 0.930 . S
H388 C396 0.930 . S
H389 C397 0.930 . S
H390 C400 0.930 . S
H391 C401 0.930 . S
C392 H386 0.930 . S
C392 C393 1.355 . S
C392 C394 1.415 . S
C393 C392 1.355 . S
C393 C395 1.419 . S
C394 C392 1.415 . S
C394 C399 1.425 . S
C394 C401 1.409 . S
C395 H387 0.930 . S
C395 C393 1.419 . S
C395 C396 1.362 . S
C396 H388 0.930 . S
C396 C395 1.362 . S
C396 C399 1.409 . S
C397 H389 0.930 . S
C397 C398 1.355 . S
C397 C399 1.415 . S
C398 C397 1.355 . S
C398 C400 1.419 . S
C399 C394 1.425 . S
C399 C396 1.409 . S
C399 C397 1.415 . S
C400 H390 0.930 . S
C400 C398 1.419 . S
C400 C401 1.362 . S
C401 H391 0.930 . S
C401 C394 1.409 . S
C401 C400 1.362 . S
H402 C408 0.930 . S
H403 C411 0.930 . S
H404 C412 0.930 . S
H405 C413 0.930 . S
H406 C416 0.930 . S
H407 C417 0.930 . S
C408 H402 0.930 . S
C408 C409 1.355 . S
C408 C410 1.415 . S
C409 C408 1.355 . S
C409 C411 1.419 . S
C410 C408 1.415 . S
C410 C415 1.425 . S
C410 C417 1.409 . S
C411 H403 0.930 . S
C411 C409 1.419 . S
C411 C412 1.362 . S
C412 H404 0.930 . S
C412 C411 1.362 . S
C412 C415 1.409 . S
C413 H405 0.930 . S
C413 C414 1.355 . S
C413 C415 1.415 . S
C414 C413 1.355 . S
C414 C416 1.419 . S
C415 C410 1.425 . S
C415 C412 1.409 . S
C415 C413 1.415 . S
C416 H406 0.930 . S
C416 C414 1.419 . S
C416 C417 1.362 . S
C417 H407 0.930 . S
C417 C410 1.409 . S
C417 C416 1.362 . S
H418 C424 0.930 . S
H419 C427 0.930 . S
H420 C428 0.930 . S
H421 C429 0.930 . S
H422 C432 0.930 . S
H423 C433 0.930 . S
C424 H418 0.930 . S
C424 C425 1.355 . S
C424 C426 1.415 . S
C425 C424 1.355 . S
C425 C427 1.419 . S
C426 C424 1.415 . S
C426 C431 1.425 . S
C426 C433 1.409 . S
C427 H419 0.930 . S
C427 C425 1.419 . S
C427 C428 1.362 . S
C428 H420 0.930 . S
C428 C427 1.362 . S
C428 C431 1.409 . S
C429 H421 0.930 . S
C429 C430 1.355 . S
C429 C431 1.415 . S
C430 C429 1.355 . S
C430 C432 1.419 . S
C431 C426 1.425 . S
C431 C428 1.409 . S
C431 C429 1.415 . S
C432 H422 0.930 . S
C432 C430 1.419 . S
C432 C433 1.362 . S
C433 H423 0.930 . S
C433 C426 1.409 . S
C433 C432 1.362 . S
H434 C440 0.930 . S
H435 C443 0.930 . S
H436 C444 0.930 . S
H437 C445 0.930 . S
H438 C448 0.930 . S
H439 C449 0.930 . S
C440 H434 0.930 . S
C440 C441 1.355 . S
C440 C442 1.415 . S
C441 C440 1.355 . S
C441 C443 1.419 . S
C442 C440 1.415 . S
C442 C447 1.425 . S
C442 C449 1.409 . S
C443 H435 0.930 . S
C443 C441 1.419 . S
C443 C444 1.362 . S
C444 H436 0.930 . S
C444 C443 1.362 . S
C444 C447 1.409 . S
C445 H437 0.930 . S
C445 C446 1.355 . S
C445 C447 1.415 . S
C446 C445 1.355 . S
C446 C448 1.419 . S
C447 C442 1.425 . S
C447 C444 1.409 . S
C447 C445 1.415 . S
C448 H438 0.930 . S
C448 C446 1.419 . S
C448 C449 1.362 . S
C449 H439 0.930 . S
C449 C442 1.409 . S
C449 C448 1.362 . S
H450 C456 0.930 . S
H451 C459 0.930 . S
H452 C460 0.930 . S
H453 C461 0.930 . S
H454 C464 0.930 . S
H455 C465 0.930 . S
C456 H450 0.930 . S
C456 C457 1.355 . S
C456 C458 1.415 . S
C457 C456 1.355 . S
C457 C459 1.419 . S
C458 C456 1.415 . S
C458 C463 1.425 . S
C458 C465 1.409 . S
C459 H451 0.930 . S
C459 C457 1.419 . S
C459 C460 1.362 . S
C460 H452 0.930 . S
C460 C459 1.362 . S
C460 C463 1.409 . S
C461 H453 0.930 . S
C461 C462 1.355 . S
C461 C463 1.415 . S
C462 C461 1.355 . S
C462 C464 1.419 . S
C463 C458 1.425 . S
C463 C460 1.409 . S
C463 C461 1.415 . S
C464 H454 0.930 . S
C464 C462 1.419 . S
C464 C465 1.362 . S
C465 H455 0.930 . S
C465 C458 1.409 . S
C465 C464 1.362 . S
H466 C472 0.930 . S
H467 C475 0.930 . S
H468 C476 0.930 . S
H469 C477 0.930 . S
H470 C480 0.930 . S
H471 C481 0.930 . S
C472 H466 0.930 . S
C472 C473 1.355 . S
C472 C474 1.415 . S
C473 C472 1.355 . S
C473 C475 1.419 . S
C474 C472 1.415 . S
C474 C479 1.425 . S
C474 C481 1.409 . S
C475 H467 0.930 . S
C475 C473 1.419 . S
C475 C476 1.362 . S
C476 H468 0.930 . S
C476 C475 1.362 . S
C476 C479 1.409 . S
C477 H469 0.930 . S
C477 C478 1.355 . S
C477 C479 1.415 . S
C478 C477 1.355 . S
C478 C480 1.419 . S
C479 C474 1.425 . S
C479 C476 1.409 . S
C479 C477 1.415 . S
C480 H470 0.930 . S
C480 C478 1.419 . S
C480 C481 1.362 . S
C481 H471 0.930 . S
C481 C474 1.409 . S
C481 C480 1.362 . S
H482 C488 0.930 . S
H483 C491 0.930 . S
H484 C492 0.930 . S
H485 C493 0.930 . S
H486 C496 0.930 . S
H487 C497 0.930 . S
C488 H482 0.930 . S
C488 C489 1.355 . S
C488 C490 1.415 . S
C489 C488 1.355 . S
C489 C491 1.419 . S
C490 C488 1.415 . S
C490 C495 1.425 . S
C490 C497 1.409 . S
C491 H483 0.930 . S
C491 C489 1.419 . S
C491 C492 1.362 . S
C492 H484 0.930 . S
C492 C491 1.362 . S
C492 C495 1.409 . S
C493 H485 0.930 . S
C493 C494 1.355 . S
C493 C495 1.415 . S
C494 C493 1.355 . S
C494 C496 1.419 . S
C495 C490 1.425 . S
C495 C492 1.409 . S
C495 C493 1.415 . S
C496 H486 0.930 . S
C496 C494 1.419 . S
C496 C497 1.362 . S
C497 H487 0.930 . S
C497 C490 1.409 . S
C497 C496 1.362 . S
H498 C504 0.930 . S
H499 C507 0.930 . S
H500 C508 0.930 . S
H501 C509 0.930 . S
H502 C512 0.930 . S
H503 C513 0.916 1_556 S
C504 H498 0.930 . S
C504 C505 1.355 . S
C504 C506 1.415 . S
C505 C504 1.355 . S
C505 C507 1.419 . S
C506 C504 1.415 . S
C506 C511 1.425 . S
C506 C513 1.409 . S
C507 H499 0.930 . S
C507 C505 1.419 . S
C507 C508 1.362 . S
C508 H500 0.930 . S
C508 C507 1.362 . S
C508 C511 1.409 . S
C509 H501 0.930 . S
C509 C510 1.355 . S
C509 C511 1.415 . S
C510 C509 1.355 . S
C510 C512 1.419 . S
C511 C506 1.425 . S
C511 C508 1.409 . S
C511 C509 1.415 . S
C512 H502 0.930 . S
C512 C510 1.419 . S
C512 C513 1.362 . S
C513 H503 0.916 1_554 S
C513 C506 1.409 . S
C513 C512 1.362 . S
H514 C520 0.930 . S
H515 C523 0.930 . S
H516 C524 0.930 . S
H517 C525 0.930 . S
H518 C528 0.930 . S
H519 C529 0.930 . S
C520 H514 0.930 . S
C520 C521 1.355 . S
C520 C522 1.415 . S
C521 C520 1.355 . S
C521 C523 1.419 . S
C522 C520 1.415 . S
C522 C527 1.425 . S
C522 C529 1.409 . S
C523 H515 0.930 . S
C523 C521 1.419 . S
C523 C524 1.362 . S
C524 H516 0.930 . S
C524 C523 1.362 . S
C524 C527 1.409 . S
C525 H517 0.930 . S
C525 C526 1.355 . S
C525 C527 1.415 . S
C526 C525 1.355 . S
C526 C528 1.419 . S
C527 C522 1.425 . S
C527 C524 1.409 . S
C527 C525 1.415 . S
C528 H518 0.930 . S
C528 C526 1.419 . S
C528 C529 1.362 . S
C529 H519 0.930 . S
C529 C522 1.409 . S
C529 C528 1.362 . S
H530 C536 0.930 . S
H531 C539 0.930 . S
H532 C540 0.930 . S
H533 C541 0.930 . S
H534 C544 0.930 . S
H535 C545 0.930 . S
C536 H530 0.930 . S
C536 C537 1.355 . S
C536 C538 1.415 . S
C537 C536 1.355 . S
C537 C539 1.419 . S
C538 C536 1.415 . S
C538 C543 1.425 . S
C538 C545 1.409 . S
C539 H531 0.930 . S
C539 C537 1.419 . S
C539 C540 1.362 . S
C540 H532 0.930 . S
C540 C539 1.362 . S
C540 C543 1.409 . S
C541 H533 0.930 . S
C541 C542 1.355 . S
C541 C543 1.415 . S
C542 C541 1.355 . S
C542 C544 1.419 . S
C543 C538 1.425 . S
C543 C540 1.409 . S
C543 C541 1.415 . S
C544 H534 0.930 . S
C544 C542 1.419 . S
C544 C545 1.362 . S
C545 H535 0.930 . S
C545 C538 1.409 . S
C545 C544 1.362 . S
H546 C552 0.930 . S
H547 C555 0.930 . S
H548 C556 0.930 . S
H549 C557 0.930 . S
H550 C560 0.930 . S
H551 C561 0.930 . S
C552 H546 0.930 . S
C552 C553 1.355 . S
C552 C554 1.415 . S
C553 C552 1.355 . S
C553 C555 1.419 . S
C554 C552 1.415 . S
C554 C559 1.425 . S
C554 C561 1.409 . S
C555 H547 0.930 . S
C555 C553 1.419 . S
C555 C556 1.362 . S
C556 H548 0.930 . S
C556 C555 1.362 . S
C556 C559 1.409 . S
C557 H549 0.930 . S
C557 C558 1.355 . S
C557 C559 1.415 . S
C558 C557 1.355 . S
C558 C560 1.419 . S
C559 C554 1.425 . S
C559 C556 1.409 . S
C559 C557 1.415 . S
C560 H550 0.930 . S
C560 C558 1.419 . S
C560 C561 1.362 . S
C561 H551 0.930 . S
C561 C554 1.409 . S
C561 C560 1.362 . S
H562 C568 0.930 . S
H563 C571 0.930 . S
H564 C572 0.930 . S
H565 C573 0.930 . S
H566 C576 0.930 . S
H567 C577 0.930 . S
C568 H562 0.930 . S
C568 C569 1.355 . S
C568 C570 1.415 . S
C569 C568 1.355 . S
C569 C571 1.419 . S
C570 C568 1.415 . S
C570 C575 1.425 . S
C570 C577 1.409 . S
C571 H563 0.930 . S
C571 C569 1.419 . S
C571 C572 1.362 . S
C572 H564 0.930 . S
C572 C571 1.362 . S
C572 C575 1.409 . S
C573 H565 0.930 . S
C573 C574 1.355 . S
C573 C575 1.415 . S
C574 C573 1.355 . S
C574 C576 1.419 . S
C575 C570 1.425 . S
C575 C572 1.409 . S
C575 C573 1.415 . S
C576 H566 0.930 . S
C576 C574 1.419 . S
C576 C577 1.362 . S
C577 H567 0.930 . S
C577 C570 1.409 . S
C577 C576 1.362 . S
H578 C584 0.930 . S
H579 C587 0.930 . S
H580 C588 0.930 . S
H581 C589 0.930 . S
H582 C592 0.930 . S
H583 C593 0.930 . S
C584 H578 0.930 . S
C584 C585 1.355 . S
C584 C586 1.415 . S
C585 C584 1.355 . S
C585 C587 1.419 . S
C586 C584 1.415 . S
C586 C591 1.425 . S
C586 C593 1.409 . S
C587 H579 0.930 . S
C587 C585 1.419 . S
C587 C588 1.362 . S
C588 H580 0.930 . S
C588 C587 1.362 . S
C588 C591 1.409 . S
C589 H581 0.930 . S
C589 C590 1.355 . S
C589 C591 1.415 . S
C590 C589 1.355 . S
C590 C592 1.419 . S
C591 C586 1.425 . S
C591 C588 1.409 . S
C591 C589 1.415 . S
C592 H582 0.930 . S
C592 C590 1.419 . S
C592 C593 1.362 . S
C593 H583 0.930 . S
C593 C586 1.409 . S
C593 C592 1.362 . S
H594 C600 0.930 . S
H595 C603 0.930 . S
H596 C604 0.930 . S
H597 C605 0.930 . S
H598 C608 0.930 . S
H599 C609 0.930 . S
C600 H594 0.930 . S
C600 C601 1.355 . S
C600 C602 1.415 . S
C601 C600 1.355 . S
C601 C603 1.419 . S
C602 C600 1.415 . S
C602 C607 1.425 . S
C602 C609 1.409 . S
C603 H595 0.930 . S
C603 C601 1.419 . S
C603 C604 1.362 . S
C604 H596 0.930 . S
C604 C603 1.362 . S
C604 C607 1.409 . S
C605 H597 0.930 . S
C605 C606 1.355 1_556 S
C605 C607 1.415 . S
C606 C605 1.355 1_554 S
C606 C608 1.419 . S
C607 C602 1.425 . S
C607 C604 1.409 . S
C607 C605 1.415 . S
C608 H598 0.930 . S
C608 C606 1.419 . S
C608 C609 1.362 1_554 S
C609 H599 0.930 . S
C609 C602 1.409 . S
C609 C608 1.362 1_556 S
H610 C616 0.930 . S
H611 C619 0.930 . S
H612 C620 0.930 . S
H613 C621 0.930 . S
H614 C624 0.930 . S
H615 C625 0.930 . S
C616 H610 0.930 . S
C616 C617 1.355 . S
C616 C618 1.415 . S
C617 C616 1.355 . S
C617 C619 1.419 . S
C618 C616 1.415 . S
C618 C623 1.425 . S
C618 C625 1.409 . S
C619 H611 0.930 . S
C619 C617 1.419 . S
C619 C620 1.362 . S
C620 H612 0.930 . S
C620 C619 1.362 . S
C620 C623 1.409 . S
C621 H613 0.930 . S
C621 C622 1.355 . S
C621 C623 1.415 . S
C622 C621 1.355 . S
C622 C624 1.419 . S
C623 C618 1.425 . S
C623 C620 1.409 . S
C623 C621 1.415 . S
C624 H614 0.930 . S
C624 C622 1.419 . S
C624 C625 1.362 . S
C625 H615 0.930 . S
C625 C618 1.409 . S
C625 C624 1.362 . S
H626 C632 0.930 . S
H627 C635 0.930 . S
H628 C636 0.930 . S
H629 C637 0.930 . S
H630 C640 0.930 . S
H631 C641 0.930 . S
C632 H626 0.930 . S
C632 C633 1.355 . S
C632 C634 1.415 . S
C633 C632 1.355 . S
C633 C635 1.419 . S
C634 C632 1.415 . S
C634 C639 1.425 . S
C634 C641 1.409 . S
C635 H627 0.930 . S
C635 C633 1.419 . S
C635 C636 1.362 . S
C636 H628 0.930 . S
C636 C635 1.362 . S
C636 C639 1.409 . S
C637 H629 0.930 . S
C637 C638 1.355 . S
C637 C639 1.415 . S
C638 C637 1.355 . S
C638 C640 1.419 . S
C639 C634 1.425 . S
C639 C636 1.409 . S
C639 C637 1.415 . S
C640 H630 0.930 . S
C640 C638 1.419 . S
C640 C641 1.362 . S
C641 H631 0.930 . S
C641 C634 1.409 . S
C641 C640 1.362 . S
H642 C648 0.930 . S
H643 C651 0.930 . S
H644 C652 0.930 . S
H645 C653 0.930 . S
H646 C656 0.930 . S
H647 C657 0.930 . S
C648 H642 0.930 . S
C648 C649 1.355 . S
C648 C650 1.415 . S
C649 C648 1.355 . S
C649 C651 1.419 . S
C650 C648 1.415 . S
C650 C655 1.425 . S
C650 C657 1.409 . S
C651 H643 0.930 . S
C651 C649 1.419 . S
C651 C652 1.362 . S
C652 H644 0.930 . S
C652 C651 1.362 . S
C652 C655 1.409 . S
C653 H645 0.930 . S
C653 C654 1.355 . S
C653 C655 1.415 . S
C654 C653 1.355 . S
C654 C656 1.419 . S
C655 C650 1.425 . S
C655 C652 1.409 . S
C655 C653 1.415 . S
C656 H646 0.930 . S
C656 C654 1.419 . S
C656 C657 1.362 . S
C657 H647 0.930 . S
C657 C650 1.409 . S
C657 C656 1.362 . S
H658 C664 0.930 . S
H659 C667 0.930 . S
H660 C668 0.930 . S
H661 C669 0.930 . S
H662 C672 0.930 . S
H663 C673 0.930 . S
C664 H658 0.930 . S
C664 C665 1.355 . S
C664 C666 1.415 . S
C665 C664 1.355 . S
C665 C667 1.419 . S
C666 C664 1.415 . S
C666 C671 1.425 . S
C666 C673 1.409 . S
C667 H659 0.930 . S
C667 C665 1.419 . S
C667 C668 1.362 . S
C668 H660 0.930 . S
C668 C667 1.362 . S
C668 C671 1.409 . S
C669 H661 0.930 . S
C669 C670 1.355 . S
C669 C671 1.415 . S
C670 C669 1.355 . S
C670 C672 1.419 . S
C671 C666 1.425 . S
C671 C668 1.409 . S
C671 C669 1.415 . S
C672 H662 0.930 . S
C672 C670 1.419 . S
C672 C673 1.362 . S
C673 H663 0.930 . S
C673 C666 1.409 . S
C673 C672 1.362 . S
H674 C680 0.930 . S
H675 C683 0.930 . S
H676 C684 0.930 . S
H677 C685 0.930 . S
H678 C688 0.930 . S
H679 C689 0.930 . S
C680 H674 0.930 . S
C680 C681 1.355 . S
C680 C682 1.415 . S
C681 C680 1.355 . S
C681 C683 1.419 . S
C682 C680 1.415 . S
C682 C687 1.425 . S
C682 C689 1.409 . S
C683 H675 0.930 . S
C683 C681 1.419 . S
C683 C684 1.362 . S
C684 H676 0.930 . S
C684 C683 1.362 . S
C684 C687 1.409 . S
C685 H677 0.930 . S
C685 C686 1.355 . S
C685 C687 1.415 . S
C686 C685 1.355 . S
C686 C688 1.419 . S
C687 C682 1.425 . S
C687 C684 1.409 . S
C687 C685 1.415 . S
C688 H678 0.930 . S
C688 C686 1.419 . S
C688 C689 1.362 . S
C689 H679 0.930 . S
C689 C682 1.409 . S
C689 C688 1.362 . S
H690 C696 0.930 . S
H691 C699 0.930 . S
H692 C700 0.930 . S
H693 C701 0.930 . S
H694 C704 0.930 . S
H695 C705 0.930 . S
C696 H690 0.930 . S
C696 C697 1.355 . S
C696 C698 1.415 . S
C697 C696 1.355 . S
C697 C699 1.419 . S
C698 C696 1.415 . S
C698 C703 1.425 . S
C698 C705 1.409 . S
C699 H691 0.930 . S
C699 C697 1.419 . S
C699 C700 1.362 . S
C700 H692 0.930 . S
C700 C699 1.362 . S
C700 C703 1.409 . S
C701 H693 0.930 . S
C701 C702 1.355 . S
C701 C703 1.415 . S
C702 C701 1.355 . S
C702 C704 1.419 . S
C703 C698 1.425 . S
C703 C700 1.409 . S
C703 C701 1.415 . S
C704 H694 0.930 . S
C704 C702 1.419 . S
C704 C705 1.362 . S
C705 H695 0.930 . S
C705 C698 1.409 . S
C705 C704 1.362 . S
H706 C712 0.930 . S
H707 C715 0.930 . S
H708 C716 0.930 1_556 S
H709 C717 0.930 . S
H710 C720 0.930 . S
H711 C721 0.930 . S
C712 H706 0.930 . S
C712 C713 1.355 . S
C712 C714 1.415 . S
C713 C712 1.355 . S
C713 C715 1.419 . S
C714 C712 1.415 . S
C714 C719 1.425 . S
C714 C721 1.409 . S
C715 H707 0.930 . S
C715 C713 1.419 . S
C715 C716 1.362 . S
C716 H708 0.930 1_554 S
C716 C715 1.362 . S
C716 C719 1.409 . S
C717 H709 0.930 . S
C717 C718 1.355 . S
C717 C719 1.415 1_556 S
C718 C717 1.355 . S
C718 C720 1.419 . S
C719 C714 1.425 . S
C719 C716 1.409 . S
C719 C717 1.415 1_554 S
C720 H710 0.930 . S
C720 C718 1.419 . S
C720 C721 1.362 1_556 S
C721 H711 0.930 . S
C721 C714 1.409 . S
C721 C720 1.362 1_554 S
H722 C728 0.930 . S
H723 C731 0.930 . S
H724 C732 0.930 . S
H725 C733 0.930 . S
H726 C736 0.930 . S
H727 C737 0.930 . S
C728 H722 0.930 . S
C728 C729 1.355 . S
C728 C730 1.415 . S
C729 C728 1.355 . S
C729 C731 1.419 . S
C730 C728 1.415 . S
C730 C735 1.425 . S
C730 C737 1.409 . S
C731 H723 0.930 . S
C731 C729 1.419 . S
C731 C732 1.362 . S
C732 H724 0.930 . S
C732 C731 1.362 . S
C732 C735 1.409 . S
C733 H725 0.930 . S
C733 C734 1.355 . S
C733 C735 1.415 . S
C734 C733 1.355 . S
C734 C736 1.419 . S
C735 C730 1.425 . S
C735 C732 1.409 . S
C735 C733 1.415 . S
C736 H726 0.930 . S
C736 C734 1.419 . S
C736 C737 1.362 . S
C737 H727 0.930 . S
C737 C730 1.409 . S
C737 C736 1.362 . S
C366 C346 1.561 . S
C361 C15 1.563 . S
C377 C61 1.533 . S
C382 C281 1.556 . S
C393 C114 1.531 . S
C398 C299 1.557 . S
C409 C139 1.555 . S
C414 C312 1.550 . S
C430 C320 1.560 . S
C425 C185 1.553 . S
C441 C245 1.530 . S
C446 C332 1.555 . S
C457 C47 1.559 . S
C462 C294 1.560 . S
C473 C100 1.543 . S
C478 C307 1.554 . S
C489 C153 1.556 . S
C494 C325 1.556 . S
C510 C331 1.563 . S
C505 C199 1.558 . S
C526 C351 1.550 . S
C521 C231 1.544 . S
C542 C286 1.559 . S
C537 C1 1.563 . S
C553 C22 1.565 . S
C558 C292 1.582 . S
C569 C68 1.581 . S
C574 C305 1.583 . S
C590 C319 1.578 . S
C585 C107 1.580 . S
C601 C146 1.586 . S
C606 C333 1.589 . S
C622 C345 1.563 . S
C617 C192 1.559 . S
C638 C280 1.566 . S
C633 C252 1.550 . S
C654 C344 1.584 . S
C649 C54 1.570 . S
C665 C93 1.573 . S
C670 C279 1.573 . S
C686 C293 1.569 . S
C681 C160 1.564 . S
C697 C206 1.541 . S
C702 C306 1.564 . S
C713 C238 1.572 . S
C718 C318 1.576 . S
C729 C8 1.562 . S
C734 C338 1.568 . S
