# Generated by pormake.
# Topology ptr, (4,4)-cn, num edge types: 1
# Building blocks:
#     Node 0, Type 0, BuildingBlock: NAHDIM_clean_sbu_0, # of connection points: 4
#     Node 1, Type 0, BuildingBlock: NAHDIM_clean_sbu_0, # of connection points: 4
#     Node 2, Type 0, BuildingBlock: NAHDIM_clean_sbu_0, # of connection points: 4
#     Node 3, Type 0, BuildingBlock: NAHDIM_clean_sbu_0, # of connection points: 4
#     Node 4, Type 0, BuildingBlock: NAHDIM_clean_sbu_0, # of connection points: 4
#     Node 5, Type 0, BuildingBlock: NAHDIM_clean_sbu_0, # of connection points: 4
#     Node 6, Type 0, BuildingBlock: NAHDIM_clean_sbu_0, # of connection points: 4
#     Node 7, Type 0, BuildingBlock: NAHDIM_clean_sbu_0, # of connection points: 4
#     Node 8, Type 0, BuildingBlock: NAHDIM_clean_sbu_0, # of connection points: 4
#     Node 9, Type 0, BuildingBlock: NAHDIM_clean_sbu_0, # of connection points: 4
#     Node 10, Type 0, BuildingBlock: NAHDIM_clean_sbu_0, # of connection points: 4
#     Node 11, Type 0, BuildingBlock: NAHDIM_clean_sbu_0, # of connection points: 4
#     Node 12, Type 0, BuildingBlock: NAHDIM_clean_sbu_0, # of connection points: 4
#     Node 13, Type 0, BuildingBlock: NAHDIM_clean_sbu_0, # of connection points: 4
#     Node 14, Type 0, BuildingBlock: NAHDIM_clean_sbu_0, # of connection points: 4
#     Node 15, Type 0, BuildingBlock: NAHDIM_clean_sbu_0, # of connection points: 4
#     Node 16, Type 0, BuildingBlock: NAHDIM_clean_sbu_0, # of connection points: 4
#     Node 17, Type 0, BuildingBlock: NAHDIM_clean_sbu_0, # of connection points: 4
#     Node 18, Type 1, BuildingBlock: NAHDIM_clean_linker_0, # of connection points: 4
#     Node 19, Type 1, BuildingBlock: NAHDIM_clean_linker_0, # of connection points: 4
#     Node 20, Type 1, BuildingBlock: NAHDIM_clean_linker_0, # of connection points: 4
#     Node 21, Type 1, BuildingBlock: NAHDIM_clean_linker_0, # of connection points: 4
#     Node 22, Type 1, BuildingBlock: NAHDIM_clean_linker_0, # of connection points: 4
#     Node 23, Type 1, BuildingBlock: NAHDIM_clean_linker_0, # of connection points: 4
#     Node 24, Type 1, BuildingBlock: NAHDIM_clean_linker_0, # of connection points: 4
#     Node 25, Type 1, BuildingBlock: NAHDIM_clean_linker_0, # of connection points: 4
#     Node 26, Type 1, BuildingBlock: NAHDIM_clean_linker_0, # of connection points: 4
#     Node 27, Type 1, BuildingBlock: NAHDIM_clean_linker_0, # of connection points: 4
#     Node 28, Type 1, BuildingBlock: NAHDIM_clean_linker_0, # of connection points: 4
#     Node 29, Type 1, BuildingBlock: NAHDIM_clean_linker_0, # of connection points: 4
#     Node 30, Type 1, BuildingBlock: NAHDIM_clean_linker_0, # of connection points: 4
#     Node 31, Type 1, BuildingBlock: NAHDIM_clean_linker_0, # of connection points: 4
#     Node 32, Type 1, BuildingBlock: NAHDIM_clean_linker_0, # of connection points: 4
#     Node 33, Type 1, BuildingBlock: NAHDIM_clean_linker_0, # of connection points: 4
#     Node 34, Type 1, BuildingBlock: NAHDIM_clean_linker_0, # of connection points: 4
#     Node 35, Type 1, BuildingBlock: NAHDIM_clean_linker_0, # of connection points: 4
#     Edge 36, Type (0, 1), BuildingBlock: MIFKUJ_clean_linker_0, # of connection points: 2
#     Edge 37, Type (0, 1), BuildingBlock: MIFKUJ_clean_linker_0, # of connection points: 2
#     Edge 38, Type (0, 1), BuildingBlock: MIFKUJ_clean_linker_0, # of connection points: 2
#     Edge 39, Type (0, 1), BuildingBlock: MIFKUJ_clean_linker_0, # of connection points: 2
#     Edge 40, Type (0, 1), BuildingBlock: MIFKUJ_clean_linker_0, # of connection points: 2
#     Edge 41, Type (0, 1), BuildingBlock: MIFKUJ_clean_linker_0, # of connection points: 2
#     Edge 42, Type (0, 1), BuildingBlock: MIFKUJ_clean_linker_0, # of connection points: 2
#     Edge 43, Type (0, 1), BuildingBlock: MIFKUJ_clean_linker_0, # of connection points: 2
#     Edge 44, Type (0, 1), BuildingBlock: MIFKUJ_clean_linker_0, # of connection points: 2
#     Edge 45, Type (0, 1), BuildingBlock: MIFKUJ_clean_linker_0, # of connection points: 2
#     Edge 46, Type (0, 1), BuildingBlock: MIFKUJ_clean_linker_0, # of connection points: 2
#     Edge 47, Type (0, 1), BuildingBlock: MIFKUJ_clean_linker_0, # of connection points: 2
#     Edge 48, Type (0, 1), BuildingBlock: MIFKUJ_clean_linker_0, # of connection points: 2
#     Edge 49, Type (0, 1), BuildingBlock: MIFKUJ_clean_linker_0, # of connection points: 2
#     Edge 50, Type (0, 1), BuildingBlock: MIFKUJ_clean_linker_0, # of connection points: 2
#     Edge 51, Type (0, 1), BuildingBlock: MIFKUJ_clean_linker_0, # of connection points: 2
#     Edge 52, Type (0, 1), BuildingBlock: MIFKUJ_clean_linker_0, # of connection points: 2
#     Edge 53, Type (0, 1), BuildingBlock: MIFKUJ_clean_linker_0, # of connection points: 2
#     Edge 54, Type (0, 1), BuildingBlock: MIFKUJ_clean_linker_0, # of connection points: 2
#     Edge 55, Type (0, 1), BuildingBlock: MIFKUJ_clean_linker_0, # of connection points: 2
#     Edge 56, Type (0, 1), BuildingBlock: MIFKUJ_clean_linker_0, # of connection points: 2
#     Edge 57, Type (0, 1), BuildingBlock: MIFKUJ_clean_linker_0, # of connection points: 2
#     Edge 58, Type (0, 1), BuildingBlock: MIFKUJ_clean_linker_0, # of connection points: 2
#     Edge 59, Type (0, 1), BuildingBlock: MIFKUJ_clean_linker_0, # of connection points: 2
#     Edge 60, Type (0, 1), BuildingBlock: MIFKUJ_clean_linker_0, # of connection points: 2
#     Edge 61, Type (0, 1), BuildingBlock: MIFKUJ_clean_linker_0, # of connection points: 2
#     Edge 62, Type (0, 1), BuildingBlock: MIFKUJ_clean_linker_0, # of connection points: 2
#     Edge 63, Type (0, 1), BuildingBlock: MIFKUJ_clean_linker_0, # of connection points: 2
#     Edge 64, Type (0, 1), BuildingBlock: MIFKUJ_clean_linker_0, # of connection points: 2
#     Edge 65, Type (0, 1), BuildingBlock: MIFKUJ_clean_linker_0, # of connection points: 2
#     Edge 66, Type (0, 1), BuildingBlock: MIFKUJ_clean_linker_0, # of connection points: 2
#     Edge 67, Type (0, 1), BuildingBlock: MIFKUJ_clean_linker_0, # of connection points: 2
#     Edge 68, Type (0, 1), BuildingBlock: MIFKUJ_clean_linker_0, # of connection points: 2
#     Edge 69, Type (0, 1), BuildingBlock: MIFKUJ_clean_linker_0, # of connection points: 2
#     Edge 70, Type (0, 1), BuildingBlock: MIFKUJ_clean_linker_0, # of connection points: 2
#     Edge 71, Type (0, 1), BuildingBlock: MIFKUJ_clean_linker_0, # of connection points: 2
#     Edge 72, Type (0, 1), BuildingBlock: MIFKUJ_clean_linker_0, # of connection points: 2
#     Edge 73, Type (0, 1), BuildingBlock: MIFKUJ_clean_linker_0, # of connection points: 2
#     Edge 74, Type (0, 1), BuildingBlock: MIFKUJ_clean_linker_0, # of connection points: 2
#     Edge 75, Type (0, 1), BuildingBlock: MIFKUJ_clean_linker_0, # of connection points: 2
#     Edge 76, Type (0, 1), BuildingBlock: MIFKUJ_clean_linker_0, # of connection points: 2
#     Edge 77, Type (0, 1), BuildingBlock: MIFKUJ_clean_linker_0, # of connection points: 2
#     Edge 78, Type (0, 1), BuildingBlock: MIFKUJ_clean_linker_0, # of connection points: 2
#     Edge 79, Type (0, 1), BuildingBlock: MIFKUJ_clean_linker_0, # of connection points: 2
#     Edge 80, Type (0, 1), BuildingBlock: MIFKUJ_clean_linker_0, # of connection points: 2
#     Edge 81, Type (0, 1), BuildingBlock: MIFKUJ_clean_linker_0, # of connection points: 2
#     Edge 82, Type (0, 1), BuildingBlock: MIFKUJ_clean_linker_0, # of connection points: 2
#     Edge 83, Type (0, 1), BuildingBlock: MIFKUJ_clean_linker_0, # of connection points: 2
#     Edge 84, Type (0, 1), BuildingBlock: MIFKUJ_clean_linker_0, # of connection points: 2
#     Edge 85, Type (0, 1), BuildingBlock: MIFKUJ_clean_linker_0, # of connection points: 2
#     Edge 86, Type (0, 1), BuildingBlock: MIFKUJ_clean_linker_0, # of connection points: 2
#     Edge 87, Type (0, 1), BuildingBlock: MIFKUJ_clean_linker_0, # of connection points: 2
#     Edge 88, Type (0, 1), BuildingBlock: MIFKUJ_clean_linker_0, # of connection points: 2
#     Edge 89, Type (0, 1), BuildingBlock: MIFKUJ_clean_linker_0, # of connection points: 2
#     Edge 90, Type (0, 1), BuildingBlock: MIFKUJ_clean_linker_0, # of connection points: 2
#     Edge 91, Type (0, 1), BuildingBlock: MIFKUJ_clean_linker_0, # of connection points: 2
#     Edge 92, Type (0, 1), BuildingBlock: MIFKUJ_clean_linker_0, # of connection points: 2
#     Edge 93, Type (0, 1), BuildingBlock: MIFKUJ_clean_linker_0, # of connection points: 2
#     Edge 94, Type (0, 1), BuildingBlock: MIFKUJ_clean_linker_0, # of connection points: 2
#     Edge 95, Type (0, 1), BuildingBlock: MIFKUJ_clean_linker_0, # of connection points: 2
#     Edge 96, Type (0, 1), BuildingBlock: MIFKUJ_clean_linker_0, # of connection points: 2
#     Edge 97, Type (0, 1), BuildingBlock: MIFKUJ_clean_linker_0, # of connection points: 2
#     Edge 98, Type (0, 1), BuildingBlock: MIFKUJ_clean_linker_0, # of connection points: 2
#     Edge 99, Type (0, 1), BuildingBlock: MIFKUJ_clean_linker_0, # of connection points: 2
#     Edge 100, Type (0, 1), BuildingBlock: MIFKUJ_clean_linker_0, # of connection points: 2
#     Edge 101, Type (0, 1), BuildingBlock: MIFKUJ_clean_linker_0, # of connection points: 2
#     Edge 102, Type (0, 1), BuildingBlock: MIFKUJ_clean_linker_0, # of connection points: 2
#     Edge 103, Type (0, 1), BuildingBlock: MIFKUJ_clean_linker_0, # of connection points: 2
#     Edge 104, Type (0, 1), BuildingBlock: MIFKUJ_clean_linker_0, # of connection points: 2
#     Edge 105, Type (0, 1), BuildingBlock: MIFKUJ_clean_linker_0, # of connection points: 2
#     Edge 106, Type (0, 1), BuildingBlock: MIFKUJ_clean_linker_0, # of connection points: 2
#     Edge 107, Type (0, 1), BuildingBlock: MIFKUJ_clean_linker_0, # of connection points: 2
# Relax obj value: 0.084
# Max RMSD: 0.306
# Mean RMSD: 0.119
data_MOF--net-ptr--node1-NAHDIM_clean_sbu_0--node2-NAHDIM_clean_linker_0--edge1-MIFKUJ_clean_linker_0
_symmetry_space_group_name_H-M    P1
_symmetry_Int_Tables_number       1
_symmetry_cell_setting            triclinic
loop_
_symmetry_equiv_pos_as_xyz
'x, y, z'
_cell_length_a     116.23166
_cell_length_b     113.67265
_cell_length_c     96.07393
_cell_angle_alpha  92.220492
_cell_angle_beta   89.604584
_cell_angle_gamma 122.10947
loop_
_atom_site_label
_atom_site_type_symbol
_atom_site_fract_x
_atom_site_fract_y
_atom_site_fract_z
_atom_type_partial_charge
C0 C 0.01911 0.3376 0.02571 0.0
O1 O 0.0086 0.33584 0.03271 0.0
O2 O 0.99017 0.32421 0.99875 0.0
Zn3 Zn 0.00547 0.34321 0.00534 0.0
O4 O 0.99978 0.35224 0.0201 0.0
C5 C 0.00148 0.35509 0.98257 0.0
O6 O 0.98915 0.34731 0.98741 0.0
O7 O 0.02053 0.3414 0.01321 0.0
C8 C 0.00665 0.36546 0.02074 0.0
O9 O 0.01653 0.37213 0.0119 0.0
C10 C 0.98242 0.31389 0.00606 0.0
O11 O 0.98366 0.3152 0.0197 0.0
O12 O 0.01119 0.35507 0.98855 0.0
C13 C 0.68316 0.66397 0.99455 0.0
O14 O 0.67564 0.66843 0.9898 0.0
O15 O 0.66782 0.67159 0.02544 0.0
Zn16 Zn 0.66258 0.6538 0.01479 0.0
O17 O 0.64832 0.64916 1.00008 0.0
C18 C 0.65809 0.63938 0.04067 0.0
O19 O 0.66713 0.65179 0.04593 0.0
O20 O 0.67947 0.65689 0.00544 0.0
C21 C 0.63572 0.64184 0.00269 0.0
O22 O 0.63191 0.63761 0.01538 0.0
C23 C 0.66002 0.67341 0.03331 0.0
O24 O 0.64734 0.6632 0.03464 0.0
O25 O 0.65506 0.63789 0.02777 0.0
C26 C 0.33651 0.0265 0.99707 0.0
O27 O 0.32902 0.01321 0.99349 0.0
O28 O 0.33202 0.00023 0.01924 0.0
Zn29 Zn 0.34936 0.01527 0.01061 0.0
O30 O 0.35479 0.00901 0.9931 0.0
C31 C 0.36541 0.0117 0.0289 0.0
O32 O 0.35691 0.99914 0.02365 0.0
O33 O 0.34671 0.03068 0.00513 0.0
C34 C 0.35362 0.99745 0.98985 0.0
O35 O 0.34749 0.9871 0.99828 0.0
C36 C 0.32218 0.98917 0.01354 0.0
O37 O 0.32262 0.98631 0.00024 0.0
O38 O 0.36434 0.02166 0.02509 0.0
C39 C 0.98313 0.6721 0.99394 0.0
O40 O 0.99591 0.67779 0.99043 0.0
O41 O 0.00727 0.68046 0.01973 0.0
Zn42 Zn 0.99317 0.66128 0.01198 0.0
O43 O 0.99999 0.6542 0.99646 0.0
C44 C 0.99454 0.64892 0.03661 0.0
O45 O 0.00706 0.65969 0.03639 0.0
O46 O 0.97861 0.66346 0.00361 0.0
C47 C 0.00822 0.65015 0.99777 0.0
O48 O 0.01365 0.65114 0.01004 0.0
C49 C 0.02006 0.68725 0.01821 0.0
O50 O 0.02569 0.68158 0.01104 0.0
O51 O 0.98615 0.64745 0.02724 0.0
C52 C 0.32317 0.34445 0.02184 0.0
O53 O 0.33081 0.33967 0.02529 0.0
O54 O 0.33946 0.33952 0.99152 0.0
Zn55 Zn 0.34426 0.35712 0.00251 0.0
O56 O 0.35867 0.36244 0.01725 0.0
C57 C 0.35697 0.37258 0.97837 0.0
O58 O 0.35857 0.36209 0.97598 0.0
O59 O 0.32704 0.35298 0.0121 0.0
C60 C 0.36999 0.36352 0.01509 0.0
O61 O 0.37277 0.36086 0.00251 0.0
C62 C 0.34114 0.33003 0.99563 0.0
O63 O 0.34696 0.33159 0.00781 0.0
O64 O 0.35089 0.37285 0.98932 0.0
C65 C 0.66461 0.9787 0.01885 0.0
O66 O 0.67129 0.98676 0.00855 0.0
O67 O 0.66776 0.00925 0.00991 0.0
Zn68 Zn 0.65046 0.99294 0.01709 0.0
O69 O 0.64312 0.99924 0.03277 0.0
C70 C 0.63977 0.98339 0.98898 0.0
O71 O 0.65225 0.98675 0.98641 0.0
O72 O 0.65476 0.97913 0.0241 0.0
C73 C 0.63554 0.00384 0.03012 0.0
O74 O 0.63283 0.00468 0.01707 0.0
C75 C 0.66806 0.01729 0.00088 0.0
O76 O 0.65661 0.01576 0.99661 0.0
O77 O 0.63656 0.98452 0.00141 0.0
C78 C 0.68752 0.68037 0.36105 0.0
O79 O 0.67543 0.67577 0.36624 0.0
O80 O 0.66281 0.6715 0.33224 0.0
Zn81 Zn 0.67685 0.69009 0.34119 0.0
O82 O 0.6686 0.69625 0.35615 0.0
C83 C 0.67916 0.70395 0.31572 0.0
O84 O 0.66669 0.6933 0.31369 0.0
O85 O 0.69084 0.68735 0.35011 0.0
C86 C 0.66314 0.70311 0.35351 0.0
O87 O 0.66256 0.70613 0.34058 0.0
C88 C 0.65025 0.66691 0.33056 0.0
O89 O 0.64548 0.6746 0.33482 0.0
O90 O 0.68564 0.70473 0.32669 0.0
C91 C 0.33989 0.98838 0.33363 0.0
O92 O 0.33507 0.99551 0.32852 0.0
O93 O 0.32797 0.00249 0.36333 0.0
Zn94 Zn 0.32023 0.98338 0.35434 0.0
O95 O 0.30615 0.9795 0.3397 0.0
C96 C 0.3143 0.97098 0.38161 0.0
O97 O 0.32315 0.98368 0.38633 0.0
O98 O 0.33518 0.98229 0.34498 0.0
C99 C 0.29351 0.97278 0.34221 0.0
O100 O 0.28943 0.96857 0.35485 0.0
C101 C 0.32065 0.00576 0.37028 0.0
O102 O 0.30763 0.99648 0.37151 0.0
O103 O 0.3117 0.96862 0.36861 0.0
C104 C 0.01913 0.36382 0.33533 0.0
O105 O 0.00982 0.35722 0.34473 0.0
O106 O 0.01084 0.33352 0.35291 0.0
Zn107 Zn 0.02875 0.34611 0.34375 0.0
O108 O 0.03316 0.33527 0.33004 0.0
C109 C 0.04339 0.34863 0.36883 0.0
O110 O 0.03315 0.3358 0.37011 0.0
O111 O 0.02813 0.36084 0.33332 0.0
C112 C 0.04526 0.34141 0.32563 0.0
O113 O 0.05405 0.35413 0.33037 0.0
C114 C 0.0003 0.32452 0.34601 0.0
O115 O 0.00105 0.32325 0.33243 0.0
O116 O 0.04364 0.35529 0.35839 0.0
C117 C 0.6448 0.97116 0.32392 0.0
O118 O 0.65279 0.96912 0.31583 0.0
O119 O 0.67464 0.9905 0.35376 0.0
Zn120 Zn 0.6617 0.97109 0.3459 0.0
O121 O 0.67084 0.96574 0.3313 0.0
C122 C 0.65101 0.95964 0.37272 0.0
O123 O 0.65238 0.97177 0.37528 0.0
O124 O 0.64639 0.97177 0.33706 0.0
C125 C 0.68344 0.97017 0.33142 0.0
O126 O 0.69119 0.97853 0.34173 0.0
C127 C 0.68239 0.99389 0.36438 0.0
O128 O 0.68275 0.98421 0.37104 0.0
O129 O 0.65435 0.95707 0.3609 0.0
C130 C 0.99131 0.68145 0.35784 0.0
O131 O 0.99813 0.67545 0.35998 0.0
O132 O 0.01188 0.68039 0.3311 0.0
Zn133 Zn 0.01449 0.69743 0.34165 0.0
O134 O 0.02826 0.70381 0.35735 0.0
C135 C 0.02704 0.71325 0.31752 0.0
O136 O 0.02961 0.7034 0.31531 0.0
O137 O 0.9964 0.69183 0.35008 0.0
C138 C 0.04084 0.70871 0.35553 0.0
O139 O 0.04537 0.70965 0.3428 0.0
C140 C 0.01717 0.67354 0.33441 0.0
O141 O 0.02517 0.67757 0.34546 0.0
O142 O 0.02051 0.71298 0.32832 0.0
C143 C 0.32107 0.31812 0.36064 0.0
O144 O 0.32746 0.33164 0.36297 0.0
O145 O 0.32525 0.33903 0.33319 0.0
Zn146 Zn 0.30771 0.32581 0.34267 0.0
O147 O 0.30291 0.33552 0.35755 0.0
C148 C 0.29466 0.3131 0.31615 0.0
O149 O 0.30683 0.31572 0.31316 0.0
O150 O 0.31113 0.31235 0.35201 0.0
C151 C 0.30889 0.34862 0.35954 0.0
O152 O 0.31893 0.35684 0.35145 0.0
C153 C 0.32709 0.34773 0.32416 0.0
O154 O 0.31698 0.34909 0.32057 0.0
O155 O 0.29248 0.31617 0.32834 0.0
C156 C 0.35482 0.01778 0.6902 0.0
O157 O 0.34193 0.0091 0.69291 0.0
O158 O 0.32933 0.00794 0.66408 0.0
Zn159 Zn 0.34209 0.02701 0.67291 0.0
O160 O 0.33293 0.03146 0.68825 0.0
C161 C 0.35612 0.04279 0.64868 0.0
O162 O 0.36062 0.03436 0.64772 0.0
O163 O 0.3579 0.02707 0.68143 0.0
C164 C 0.32097 0.02906 0.68712 0.0
O165 O 0.31396 0.02309 0.67555 0.0
C166 C 0.32227 0.00583 0.65314 0.0
O167 O 0.32293 0.01644 0.64732 0.0
O168 O 0.34831 0.04157 0.65859 0.0
C169 C 0.0188 0.33215 0.66718 0.0
O170 O 0.01626 0.34103 0.67333 0.0
O171 O 0.9908 0.32777 0.68575 0.0
Zn172 Zn 0.99106 0.31226 0.67505 0.0
O173 O 0.97698 0.30504 0.65965 0.0
C174 C 0.98941 0.29953 0.70086 0.0
O175 O 0.99702 0.31258 0.7053 0.0
O176 O 0.00965 0.31925 0.66682 0.0
C177 C 0.9652 0.3025 0.6625 0.0
O178 O 0.96251 0.30432 0.67543 0.0
C179 C 0.98859 0.33617 0.67974 0.0
O180 O 0.98657 0.33484 0.66618 0.0
O181 O 0.98589 0.29679 0.68807 0.0
C182 C 0.67894 0.68735 0.65489 0.0
O183 O 0.67367 0.67448 0.65015 0.0
O184 O 0.6744 0.66452 0.68434 0.0
Zn185 Zn 0.69109 0.67836 0.67395 0.0
O186 O 0.69553 0.66865 0.65876 0.0
C187 C 0.70718 0.68297 0.69855 0.0
O188 O 0.69678 0.67054 0.70114 0.0
O189 O 0.68721 0.6918 0.66519 0.0
C190 C 0.70164 0.66246 0.66148 0.0
O191 O 0.70486 0.66214 0.67447 0.0
C192 C 0.66448 0.65354 0.67861 0.0
O193 O 0.66503 0.65065 0.66534 0.0
O194 O 0.70704 0.68866 0.68746 0.0
C195 C 0.32159 0.33146 0.65594 0.0
O196 O 0.33421 0.33621 0.65237 0.0
O197 O 0.34267 0.33619 0.68631 0.0
Zn198 Zn 0.32922 0.31869 0.67528 0.0
O199 O 0.33813 0.31325 0.66042 0.0
C200 C 0.32528 0.30252 0.69897 0.0
O201 O 0.33816 0.31221 0.70098 0.0
O202 O 0.31657 0.32303 0.66577 0.0
C203 C 0.34677 0.30991 0.66275 0.0
O204 O 0.35062 0.31015 0.67563 0.0
C205 C 0.3549 0.34477 0.68304 0.0
O206 O 0.35985 0.34221 0.6718 0.0
O207 O 0.319 0.30306 0.68846 0.0
C208 C 0.66007 0.02277 0.6691 0.0
O209 O 0.6579 0.01667 0.65666 0.0
O210 O 0.68054 0.01201 0.65416 0.0
Zn211 Zn 0.68774 0.03079 0.66383 0.0
O212 O 0.7021 0.03524 0.67837 0.0
C213 C 0.70084 0.04549 0.63897 0.0
O214 O 0.70259 0.03507 0.63671 0.0
O215 O 0.67211 0.02975 0.67407 0.0
C216 C 0.71464 0.04026 0.67611 0.0
O217 O 0.71906 0.04259 0.66329 0.0
C218 C 0.68643 0.00527 0.65336 0.0
O219 O 0.69861 0.01075 0.65891 0.0
O220 O 0.69478 0.04584 0.64989 0.0
C221 C 0.97972 0.65074 0.6865 0.0
O222 O 0.99055 0.66339 0.68689 0.0
O223 O 0.98723 0.67612 0.66308 0.0
Zn224 Zn 0.96912 0.66464 0.67244 0.0
O225 O 0.96648 0.67529 0.68809 0.0
C226 C 0.95562 0.65363 0.64607 0.0
O227 O 0.96722 0.65474 0.64319 0.0
O228 O 0.96889 0.64853 0.68073 0.0
C229 C 0.96279 0.68384 0.68634 0.0
O230 O 0.96083 0.68639 0.67364 0.0
C231 C 0.99433 0.68926 0.66235 0.0
O232 O 0.98987 0.69678 0.66799 0.0
O233 O 0.95395 0.65734 0.65819 0.0
C234 C 0.17893 0.26324 0.05584 0.0
C235 C 0.18514 0.2747 0.06734 0.0
C236 C 0.17667 0.27221 0.09089 0.0
C237 C 0.18171 0.28616 0.09471 0.0
C238 C 0.17559 0.28968 0.10535 0.0
C239 C 0.16401 0.27901 0.11203 0.0
C240 C 0.15911 0.26491 0.10835 0.0
C241 C 0.16576 0.26171 0.09804 0.0
C242 C 0.18131 0.30482 0.10915 0.0
C243 C 0.14658 0.2532 0.1149 0.0
C244 C 0.08625 0.3025 0.08796 0.0
C245 C 0.09209 0.29639 0.09676 0.0
C246 C 0.11403 0.30047 0.10417 0.0
C247 C 0.10877 0.28702 0.10897 0.0
C248 C 0.11724 0.28349 0.11548 0.0
C249 C 0.1312 0.29369 0.11755 0.0
C250 C 0.13652 0.30724 0.11278 0.0
C251 C 0.12787 0.3104 0.10603 0.0
C252 C 0.11125 0.26883 0.12012 0.0
C253 C 0.15134 0.31837 0.11481 0.0
C254 C 0.11332 0.29092 0.20848 0.0
C255 C 0.10839 0.27838 0.20067 0.0
C256 C 0.11718 0.2761 0.19258 0.0
C257 C 0.13114 0.28663 0.19212 0.0
C258 C 0.13617 0.29912 0.2002 0.0
C259 C 0.12719 0.30104 0.20837 0.0
C260 C 0.11151 0.26248 0.18437 0.0
C261 C 0.15098 0.31056 0.19997 0.0
C262 C 0.19539 0.24339 0.20033 0.0
C263 C 0.19632 0.25716 0.20355 0.0
C264 C 0.17724 0.26018 0.20001 0.0
C265 C 0.16333 0.2519 0.19714 0.0
C266 C 0.15647 0.25726 0.19051 0.0
C267 C 0.16368 0.27143 0.18711 0.0
C268 C 0.17771 0.28003 0.19049 0.0
C269 C 0.18439 0.27426 0.19679 0.0
C270 C 0.14151 0.24775 0.18714 0.0
C271 C 0.1856 0.2953 0.18756 0.0
C272 C 0.15632 0.28264 0.12186 0.0
C273 C 0.14804 0.28675 0.11611 0.0
C274 C 0.14024 0.29009 0.12452 0.0
C275 C 0.14068 0.28936 0.13914 0.0
C276 C 0.13311 0.29284 0.14792 0.0
C277 C 0.13314 0.29152 0.16225 0.0
C278 C 0.14075 0.28668 0.16836 0.0
C279 C 0.14034 0.28471 0.18284 0.0
C280 C 0.14823 0.28015 0.18862 0.0
C281 C 0.1564 0.27723 0.1803 0.0
C282 C 0.1568 0.27895 0.16574 0.0
C283 C 0.16474 0.27594 0.15699 0.0
C284 C 0.16486 0.27745 0.14265 0.0
C285 C 0.15678 0.28168 0.13647 0.0
C286 C 0.14883 0.28496 0.14512 0.0
C287 C 0.14888 0.28363 0.15976 0.0
C288 C 0.08644 0.28972 0.20188 0.0
C289 C 0.09108 0.28687 0.21557 0.0
O290 O 0.18199 0.26861 0.08016 0.0
O291 O 0.18335 0.2543 0.20617 0.0
O292 O 0.10515 0.29378 0.21616 0.0
O293 O 0.10616 0.30423 0.0977 0.0
H294 H 0.18045 0.28101 0.06619 0.0
H295 H 0.16773 0.25676 0.05701 0.0
H296 H 0.18308 0.25643 0.05643 0.0
H297 H 0.18111 0.26784 0.04542 0.0
H298 H 0.19038 0.29427 0.08934 0.0
H299 H 0.16204 0.25097 0.09503 0.0
H300 H 0.17462 0.30798 0.10468 0.0
H301 H 0.19169 0.31162 0.10505 0.0
H302 H 0.18164 0.30654 0.12064 0.0
H303 H 0.1431 0.24297 0.10957 0.0
H304 H 0.13816 0.25512 0.1146 0.0
H305 H 0.14878 0.25263 0.12598 0.0
H306 H 0.08723 0.2929 0.10709 0.0
H307 H 0.07701 0.28788 0.07126 0.0
H308 H 0.09458 0.31365 0.08649 0.0
H309 H 0.08035 0.30519 0.09536 0.0
H310 H 0.09809 0.27918 0.10755 0.0
H311 H 0.13186 0.32072 0.10227 0.0
H312 H 0.11744 0.26462 0.11624 0.0
H313 H 0.1006 0.26176 0.11638 0.0
H314 H 0.11141 0.26886 0.13167 0.0
H315 H 0.1536 0.32873 0.11183 0.0
H316 H 0.15757 0.31559 0.10837 0.0
H317 H 0.15446 0.31908 0.12587 0.0
H318 H 0.08659 0.2755 0.21633 0.0
H319 H 0.09772 0.27034 0.20077 0.0
H320 H 0.13092 0.31063 0.2145 0.0
H321 H 0.11172 0.26431 0.17308 0.0
H322 H 0.10088 0.25473 0.1872 0.0
H323 H 0.11787 0.25805 0.18612 0.0
H324 H 0.15319 0.31989 0.20639 0.0
H325 H 0.15407 0.31362 0.18909 0.0
H326 H 0.15727 0.3067 0.20397 0.0
H327 H 0.2005 0.26348 0.19414 0.0
H328 H 0.20553 0.24524 0.19764 0.0
H329 H 0.1884 0.23783 0.19131 0.0
H330 H 0.19145 0.23666 0.20945 0.0
H331 H 0.15789 0.24109 0.19985 0.0
H332 H 0.19511 0.28079 0.19943 0.0
H333 H 0.13939 0.24875 0.17614 0.0
H334 H 0.13564 0.25079 0.19387 0.0
H335 H 0.13783 0.23668 0.18882 0.0
H336 H 0.19604 0.30084 0.19212 0.0
H337 H 0.1802 0.30026 0.1918 0.0
H338 H 0.18635 0.29658 0.17613 0.0
H339 H 0.14753 0.2872 0.10488 0.0
H340 H 0.12698 0.29651 0.1438 0.0
H341 H 0.12702 0.29424 0.16846 0.0
H342 H 0.14775 0.27854 0.19972 0.0
H343 H 0.17095 0.27236 0.16111 0.0
H344 H 0.17123 0.27506 0.13644 0.0
H345 H 0.09092 0.30106 0.20095 0.0
H346 H 0.07518 0.28431 0.20143 0.0
H347 H 0.08964 0.28584 0.19281 0.0
C348 C 0.74217 0.91957 0.06319 0.0
C349 C 0.73043 0.91371 0.07343 0.0
C350 C 0.73255 0.90906 0.09737 0.0
C351 C 0.71909 0.89859 0.09993 0.0
C352 C 0.7161 0.88895 0.1102 0.0
C353 C 0.72686 0.88962 0.1178 0.0
C354 C 0.74045 0.90045 0.11544 0.0
C355 C 0.74307 0.91024 0.10546 0.0
C356 C 0.70148 0.8778 0.1126 0.0
C357 C 0.75227 0.90139 0.12302 0.0
C358 C 0.7092 0.78574 0.09257 0.0
C359 C 0.71615 0.80034 0.09819 0.0
C360 C 0.7106 0.81713 0.1072 0.0
C361 C 0.72387 0.82714 0.11185 0.0
C362 C 0.72671 0.83945 0.11891 0.0
C363 C 0.71602 0.8417 0.12159 0.0
C364 C 0.70265 0.83163 0.11698 0.0
C365 C 0.70014 0.8195 0.10976 0.0
C366 C 0.74113 0.85009 0.12349 0.0
C367 C 0.69102 0.83368 0.1197 0.0
C368 C 0.72199 0.82979 0.21153 0.0
C369 C 0.73456 0.84031 0.20646 0.0
C370 C 0.73556 0.85119 0.19902 0.0
C371 C 0.72379 0.85164 0.19667 0.0
C372 C 0.71124 0.84137 0.20218 0.0
C373 C 0.71052 0.83057 0.20954 0.0
C374 C 0.74913 0.86206 0.19336 0.0
C375 C 0.69853 0.8416 0.19995 0.0
C376 C 0.7467 0.96022 0.20152 0.0
C377 C 0.73758 0.94557 0.20684 0.0
C378 C 0.74083 0.92605 0.2036 0.0
C379 C 0.75069 0.92303 0.20011 0.0
C380 C 0.74703 0.9098 0.19479 0.0
C381 C 0.73312 0.8993 0.19312 0.0
C382 C 0.72308 0.90204 0.19741 0.0
C383 C 0.72703 0.9154 0.20264 0.0
C384 C 0.75801 0.90715 0.19054 0.0
C385 C 0.70817 0.89095 0.19607 0.0
C386 C 0.724 0.87832 0.1272 0.0
C387 C 0.72104 0.86566 0.12099 0.0
C388 C 0.71888 0.8547 0.12901 0.0
C389 C 0.71983 0.85636 0.14369 0.0
C390 C 0.71792 0.8456 0.15206 0.0
C391 C 0.71937 0.84751 0.16648 0.0
C392 C 0.72264 0.8602 0.1731 0.0
C393 C 0.7245 0.86237 0.18772 0.0
C394 C 0.72768 0.87509 0.19398 0.0
C395 C 0.72912 0.88581 0.18598 0.0
C396 C 0.72735 0.88385 0.17133 0.0
C397 C 0.72875 0.89443 0.16297 0.0
C398 C 0.72741 0.89256 0.14853 0.0
C399 C 0.72476 0.8801 0.14189 0.0
C400 C 0.72287 0.86914 0.15015 0.0
C401 C 0.7242 0.87104 0.16488 0.0
C402 C 0.73202 0.80919 0.20602 0.0
C403 C 0.72986 0.81492 0.21986 0.0
O404 O 0.73568 0.91787 0.08688 0.0
O405 O 0.74504 0.93934 0.2077 0.0
O406 O 0.72037 0.81864 0.21817 0.0
O407 O 0.70746 0.8051 0.10026 0.0
H408 H 0.72492 0.90216 0.07203 0.0
H409 H 0.74882 0.91556 0.06539 0.0
H410 H 0.74839 0.93111 0.06417 0.0
H411 H 0.73821 0.91633 0.05232 0.0
H412 H 0.71094 0.89793 0.09383 0.0
H413 H 0.75342 0.91846 0.10342 0.0
H414 H 0.69934 0.86783 0.10768 0.0
H415 H 0.69434 0.88034 0.10804 0.0
H416 H 0.69951 0.87628 0.12392 0.0
H417 H 0.76218 0.90913 0.11851 0.0
H418 H 0.75129 0.89112 0.12268 0.0
H419 H 0.75232 0.9045 0.13411 0.0
H420 H 0.72563 0.80783 0.09272 0.0
H421 H 0.71368 0.78643 0.08198 0.0
H422 H 0.69901 0.78304 0.08835 0.0
H423 H 0.71129 0.77508 0.10874 0.0
H424 H 0.73209 0.82547 0.10994 0.0
H425 H 0.68994 0.81173 0.10614 0.0
H426 H 0.74176 0.85114 0.13504 0.0
H427 H 0.74423 0.86041 0.11952 0.0
H428 H 0.74843 0.84723 0.11977 0.0
H429 H 0.68107 0.82444 0.11629 0.0
H430 H 0.69268 0.84279 0.11406 0.0
H431 H 0.69062 0.83592 0.13099 0.0
H432 H 0.73968 0.82415 0.22362 0.0
H433 H 0.74361 0.84005 0.20808 0.0
H434 H 0.70089 0.82249 0.21358 0.0
H435 H 0.7485 0.86176 0.18181 0.0
H436 H 0.75742 0.86051 0.19642 0.0
H437 H 0.75178 0.87256 0.1972 0.0
H438 H 0.68969 0.83324 0.20547 0.0
H439 H 0.69603 0.84032 0.18864 0.0
H440 H 0.70028 0.85181 0.20365 0.0
H441 H 0.72921 0.93988 0.19895 0.0
H442 H 0.74096 0.96549 0.20093 0.0
H443 H 0.75027 0.95962 0.19092 0.0
H444 H 0.75574 0.96657 0.20846 0.0
H445 H 0.76132 0.93125 0.20112 0.0
H446 H 0.71931 0.91747 0.20588 0.0
H447 H 0.75714 0.90457 0.17918 0.0
H448 H 0.75669 0.89809 0.196 0.0
H449 H 0.76836 0.91628 0.19292 0.0
H450 H 0.70162 0.89445 0.20067 0.0
H451 H 0.7061 0.88149 0.2013 0.0
H452 H 0.70535 0.88803 0.18489 0.0
H453 H 0.72059 0.86438 0.10971 0.0
H454 H 0.71543 0.83563 0.14755 0.0
H455 H 0.71795 0.83891 0.17236 0.0
H456 H 0.72925 0.87674 0.20518 0.0
H457 H 0.73099 0.90431 0.16747 0.0
H458 H 0.72862 0.90105 0.14262 0.0
H459 H 0.73934 0.80586 0.20753 0.0
H460 H 0.73622 0.81724 0.1981 0.0
H461 H 0.72226 0.80015 0.2019 0.0
C462 C 0.21024 0.88407 0.097 0.0
C463 C 0.20662 0.89492 0.09413 0.0
C464 C 0.19303 0.89456 0.11339 0.0
C465 C 0.1847 0.8999 0.11227 0.0
C466 C 0.17225 0.89382 0.11918 0.0
C467 C 0.16809 0.88208 0.12726 0.0
C468 C 0.17668 0.87684 0.12859 0.0
C469 C 0.18921 0.88336 0.12185 0.0
C470 C 0.16348 0.89984 0.11773 0.0
C471 C 0.17257 0.86422 0.13691 0.0
C472 C 0.09624 0.83684 0.06206 0.0
C473 C 0.0976 0.82846 0.0733 0.0
C474 C 0.10087 0.83612 0.09764 0.0
C475 C 0.10872 0.83095 0.10219 0.0
C476 C 0.11768 0.83732 0.11363 0.0
C477 C 0.11896 0.84924 0.12045 0.0
C478 C 0.11052 0.85403 0.11626 0.0
C479 C 0.10136 0.84718 0.10505 0.0
C480 C 0.12617 0.83163 0.11804 0.0
C481 C 0.1117 0.86681 0.1231 0.0
C482 C 0.08424 0.83197 0.20658 0.0
C483 C 0.09311 0.82728 0.20413 0.0
C484 C 0.10607 0.83614 0.19871 0.0
C485 C 0.1102 0.84991 0.19565 0.0
C486 C 0.10146 0.85479 0.19859 0.0
C487 C 0.08863 0.84577 0.20418 0.0
C488 C 0.1153 0.83073 0.19607 0.0
C489 C 0.10557 0.86944 0.19558 0.0
C490 C 0.20079 0.94135 0.21876 0.0
C491 C 0.19567 0.93063 0.23018 0.0
C492 C 0.18117 0.90809 0.2175 0.0
C493 C 0.1799 0.89548 0.21356 0.0
C494 C 0.16865 0.88516 0.2057 0.0
C495 C 0.15856 0.88768 0.20139 0.0
C496 C 0.15962 0.9003 0.20556 0.0
C497 C 0.17081 0.9103 0.21371 0.0
C498 C 0.1677 0.87169 0.20175 0.0
C499 C 0.14903 0.90334 0.20121 0.0
C500 C 0.15449 0.87478 0.13372 0.0
C501 C 0.14328 0.86599 0.12512 0.0
C502 C 0.1303 0.85774 0.13057 0.0
C503 C 0.12846 0.85795 0.14513 0.0
C504 C 0.11573 0.8492 0.15109 0.0
C505 C 0.11406 0.84954 0.16545 0.0
C506 C 0.12506 0.85866 0.17438 0.0
C507 C 0.12348 0.85909 0.18898 0.0
C508 C 0.13459 0.86848 0.19751 0.0
C509 C 0.14732 0.87752 0.19185 0.0
C510 C 0.14913 0.8771 0.1773 0.0
C511 C 0.16182 0.886 0.17127 0.0
C512 C 0.1636 0.88528 0.157 0.0
C513 C 0.15271 0.87581 0.14818 0.0
C514 C 0.1397 0.86714 0.15395 0.0
C515 C 0.13797 0.86762 0.16856 0.0
C516 C 0.04915 0.80573 0.20387 0.0
C517 C 0.06323 0.8093 0.20861 0.0
O518 O 0.20491 0.90046 0.10651 0.0
O519 O 0.19261 0.9178 0.22469 0.0
O520 O 0.07142 0.82353 0.21124 0.0
O521 O 0.09313 0.83093 0.08585 0.0
H522 H 0.197 0.88979 0.08785 0.0
H523 H 0.20135 0.87466 0.10122 0.0
H524 H 0.21887 0.8884 0.10457 0.0
H525 H 0.21306 0.88074 0.08721 0.0
H526 H 0.18793 0.90875 0.10587 0.0
H527 H 0.19599 0.87966 0.12311 0.0
H528 H 0.15436 0.89255 0.11126 0.0
H529 H 0.16896 0.91005 0.11275 0.0
H530 H 0.15994 0.90114 0.12811 0.0
H531 H 0.17957 0.86043 0.1354 0.0
H532 H 0.16211 0.85565 0.13393 0.0
H533 H 0.17259 0.86685 0.14816 0.0
H534 H 0.10862 0.83224 0.07403 0.0
H535 H 0.0997 0.83493 0.05188 0.0
H536 H 0.10267 0.84811 0.06494 0.0
H537 H 0.08555 0.83401 0.06094 0.0
H538 H 0.108 0.82209 0.09664 0.0
H539 H 0.0951 0.85095 0.1015 0.0
H540 H 0.13669 0.8384 0.11428 0.0
H541 H 0.12209 0.82091 0.1137 0.0
H542 H 0.12668 0.8316 0.12958 0.0
H543 H 0.10504 0.86969 0.11799 0.0
H544 H 0.12237 0.87574 0.12278 0.0
H545 H 0.10887 0.86495 0.13421 0.0
H546 H 0.06728 0.80595 0.1998 0.0
H547 H 0.08995 0.81675 0.20648 0.0
H548 H 0.08178 0.84934 0.20631 0.0
H549 H 0.1169 0.83032 0.1847 0.0
H550 H 0.11106 0.82017 0.20006 0.0
H551 H 0.12539 0.83791 0.20109 0.0
H552 H 0.09731 0.8714 0.19776 0.0
H553 H 0.10847 0.87153 0.1845 0.0
H554 H 0.11459 0.87689 0.20208 0.0
H555 H 0.18641 0.92974 0.23471 0.0
H556 H 0.20474 0.95193 0.22346 0.0
H557 H 0.19242 0.93892 0.21142 0.0
H558 H 0.20891 0.94136 0.21261 0.0
H559 H 0.18785 0.89378 0.21662 0.0
H560 H 0.17143 0.91985 0.21682 0.0
H561 H 0.16944 0.8713 0.19042 0.0
H562 H 0.15738 0.86272 0.20389 0.0
H563 H 0.1753 0.87055 0.20748 0.0
H564 H 0.15184 0.91406 0.20439 0.0
H565 H 0.1392 0.89588 0.20602 0.0
H566 H 0.14749 0.90193 0.18972 0.0
H567 H 0.1447 0.86546 0.11398 0.0
H568 H 0.10694 0.84195 0.14472 0.0
H569 H 0.10402 0.84257 0.16945 0.0
H570 H 0.13328 0.86883 0.20868 0.0
H571 H 0.17057 0.89355 0.17751 0.0
H572 H 0.1736 0.89229 0.15294 0.0
H573 H 0.04238 0.79435 0.20172 0.0
H574 H 0.05002 0.8111 0.19414 0.0
H575 H 0.04449 0.8091 0.21194 0.0
C576 C 0.28343 0.10938 0.94427 0.0
C577 C 0.28741 0.10311 0.93217 0.0
C578 C 0.29193 0.11947 0.91376 0.0
C579 C 0.27827 0.11474 0.91072 0.0
C580 C 0.27491 0.12184 0.90158 0.0
C581 C 0.28538 0.13396 0.89543 0.0
C582 C 0.29912 0.13856 0.89819 0.0
C583 C 0.30219 0.13116 0.90723 0.0
C584 C 0.26014 0.11654 0.89871 0.0
C585 C 0.31054 0.15151 0.89189 0.0
C586 C 0.25076 0.18687 0.94593 0.0
C587 C 0.2634 0.19137 0.93723 0.0
C588 C 0.26387 0.18251 0.91402 0.0
C589 C 0.2776 0.18687 0.91308 0.0
C590 C 0.28175 0.18001 0.90383 0.0
C591 C 0.27187 0.16828 0.8957 0.0
C592 C 0.25799 0.16397 0.89661 0.0
C593 C 0.25425 0.17143 0.90549 0.0
C594 C 0.29666 0.18515 0.90297 0.0
C595 C 0.24699 0.15122 0.88861 0.0
C596 C 0.26178 0.18191 0.80815 0.0
C597 C 0.27552 0.18659 0.81036 0.0
C598 C 0.27927 0.178 0.81633 0.0
C599 C 0.26905 0.16448 0.82014 0.0
C600 C 0.25525 0.15947 0.81715 0.0
C601 C 0.25181 0.16824 0.81105 0.0
C602 C 0.2941 0.18349 0.81898 0.0
C603 C 0.24412 0.14504 0.82087 0.0
C604 C 0.26923 0.07363 0.8084 0.0
C605 C 0.2721 0.08224 0.79547 0.0
C606 C 0.2803 0.10583 0.80533 0.0
C607 C 0.29178 0.11917 0.80749 0.0
C608 C 0.29099 0.12969 0.81472 0.0
C609 C 0.27836 0.12673 0.81993 0.0
C610 C 0.26664 0.11331 0.81764 0.0
C611 C 0.26771 0.10299 0.81036 0.0
C612 C 0.30367 0.1439 0.81696 0.0
C613 C 0.25299 0.10983 0.82305 0.0
C614 C 0.28197 0.14241 0.88702 0.0
C615 C 0.27919 0.15152 0.89422 0.0
C616 C 0.27588 0.15986 0.88717 0.0
C617 C 0.27562 0.15938 0.87243 0.0
C618 C 0.27295 0.16809 0.86496 0.0
C619 C 0.27208 0.16707 0.85048 0.0
C620 C 0.27394 0.15737 0.8429 0.0
C621 C 0.27269 0.15599 0.8282 0.0
C622 C 0.27443 0.14613 0.82101 0.0
C623 C 0.27742 0.13753 0.82812 0.0
C624 C 0.27888 0.13888 0.84281 0.0
C625 C 0.28199 0.13049 0.85029 0.0
C626 C 0.28315 0.13171 0.86476 0.0
C627 C 0.28112 0.14128 0.87231 0.0
C628 C 0.27799 0.14986 0.86499 0.0
C629 C 0.27702 0.14876 0.85022 0.0
C630 C 0.2535 0.20698 0.81363 0.0
C631 C 0.26392 0.20437 0.80678 0.0
O632 O 0.29569 0.11328 0.923 0.0
O633 O 0.28193 0.09609 0.79851 0.0
O634 O 0.25779 0.19031 0.80338 0.0
O635 O 0.25961 0.18866 0.92326 0.0
H636 H 0.27807 0.09481 0.92658 0.0
H637 H 0.27747 0.11365 0.94038 0.0
H638 H 0.29263 0.11791 0.94984 0.0
H639 H 0.27705 0.10126 0.95176 0.0
H640 H 0.27013 0.10565 0.91552 0.0
H641 H 0.31269 0.1347 0.90955 0.0
H642 H 0.25764 0.12394 0.90349 0.0
H643 H 0.25323 0.10614 0.90297 0.0
H644 H 0.25823 0.1159 0.88731 0.0
H645 H 0.3207 0.15382 0.89522 0.0
H646 H 0.3097 0.16054 0.89495 0.0
H647 H 0.30975 0.15029 0.88035 0.0
H648 H 0.26761 0.18502 0.94039 0.0
H649 H 0.25345 0.18866 0.95722 0.0
H650 H 0.24324 0.17561 0.94391 0.0
H651 H 0.24599 0.19277 0.94322 0.0
H652 H 0.28506 0.19564 0.91956 0.0
H653 H 0.24367 0.16823 0.90631 0.0
H654 H 0.29963 0.18513 0.89196 0.0
H655 H 0.29869 0.17809 0.90862 0.0
H656 H 0.30315 0.19581 0.9077 0.0
H657 H 0.23671 0.14776 0.89259 0.0
H658 H 0.24865 0.14248 0.88919 0.0
H659 H 0.24722 0.15359 0.87749 0.0
H660 H 0.27213 0.20783 0.81477 0.0
H661 H 0.28332 0.19697 0.80753 0.0
H662 H 0.24125 0.16465 0.80903 0.0
H663 H 0.29616 0.18471 0.83038 0.0
H664 H 0.30085 0.19369 0.81427 0.0
H665 H 0.29666 0.17595 0.81469 0.0
H666 H 0.23388 0.14267 0.81777 0.0
H667 H 0.24432 0.14391 0.83228 0.0
H668 H 0.24586 0.13725 0.81564 0.0
H669 H 0.26255 0.08133 0.79193 0.0
H670 H 0.26155 0.0625 0.80586 0.0
H671 H 0.26517 0.07725 0.81688 0.0
H672 H 0.27867 0.07457 0.81231 0.0
H673 H 0.30145 0.1213 0.80357 0.0
H674 H 0.25867 0.09277 0.80879 0.0
H675 H 0.30578 0.14639 0.8283 0.0
H676 H 0.30211 0.15187 0.81262 0.0
H677 H 0.31269 0.14463 0.81201 0.0
H678 H 0.24478 0.09896 0.82022 0.0
H679 H 0.25028 0.117 0.81879 0.0
H680 H 0.25354 0.11131 0.83457 0.0
H681 H 0.2794 0.15194 0.90553 0.0
H682 H 0.27141 0.17572 0.87025 0.0
H683 H 0.26983 0.17393 0.84533 0.0
H684 H 0.27325 0.14498 0.80975 0.0
H685 H 0.28356 0.12287 0.84504 0.0
H686 H 0.28552 0.12496 0.86998 0.0
H687 H 0.24441 0.20308 0.80679 0.0
H688 H 0.2581 0.21828 0.81601 0.0
H689 H 0.25014 0.20148 0.82356 0.0
C690 C 0.78363 0.06182 0.90782 0.0
C691 C 0.78679 0.07454 0.91704 0.0
C692 C 0.80093 0.09474 0.90264 0.0
C693 C 0.80116 0.10539 0.89562 0.0
C694 C 0.81293 0.11553 0.88906 0.0
C695 C 0.82475 0.1149 0.88944 0.0
C696 C 0.82459 0.10407 0.89638 0.0
C697 C 0.81269 0.0941 0.90295 0.0
C698 C 0.81277 0.12697 0.88178 0.0
C699 C 0.83701 0.10307 0.89688 0.0
C700 C 0.90964 0.20311 0.94369 0.0
C701 C 0.90076 0.1897 0.93582 0.0
C702 C 0.88583 0.18045 0.91523 0.0
C703 C 0.88563 0.16797 0.91403 0.0
C704 C 0.87716 0.15749 0.90415 0.0
C705 C 0.86852 0.15939 0.89549 0.0
C706 C 0.86873 0.17195 0.89665 0.0
C707 C 0.87754 0.1824 0.9064 0.0
C708 C 0.87732 0.1443 0.9031 0.0
C709 C 0.8595 0.17424 0.88775 0.0
C710 C 0.90486 0.17967 0.81007 0.0
C711 C 0.90418 0.1673 0.81307 0.0
C712 C 0.89249 0.15622 0.8189 0.0
C713 C 0.88111 0.15736 0.82147 0.0
C714 C 0.88161 0.16962 0.81807 0.0
C715 C 0.89355 0.18067 0.81258 0.0
C716 C 0.89237 0.14332 0.8224 0.0
C717 C 0.86959 0.17112 0.82039 0.0
C718 C 0.79401 0.05031 0.79994 0.0
C719 C 0.7985 0.06518 0.79658 0.0
C720 C 0.82114 0.08543 0.80165 0.0
C721 C 0.83374 0.08825 0.80626 0.0
C722 C 0.84272 0.10061 0.81384 0.0
C723 C 0.83913 0.1106 0.81642 0.0
C724 C 0.82672 0.10818 0.81097 0.0
C725 C 0.81776 0.09552 0.80375 0.0
C726 C 0.85588 0.10283 0.81935 0.0
C727 C 0.82279 0.11881 0.81305 0.0
C728 C 0.83737 0.12578 0.88285 0.0
C729 C 0.84678 0.13721 0.89121 0.0
C730 C 0.85883 0.14794 0.88573 0.0
C731 C 0.86153 0.14746 0.87141 0.0
C732 C 0.87351 0.15812 0.86552 0.0
C733 C 0.87594 0.15765 0.85137 0.0
C734 C 0.86655 0.14643 0.84257 0.0
C735 C 0.86887 0.14592 0.82814 0.0
C736 C 0.85961 0.1343 0.81983 0.0
C737 C 0.84799 0.12312 0.82554 0.0
C738 C 0.8453 0.12365 0.83986 0.0
C739 C 0.83364 0.11268 0.84593 0.0
C740 C 0.83097 0.11338 0.85998 0.0
C741 C 0.84001 0.12495 0.86858 0.0
C742 C 0.85203 0.13594 0.86279 0.0
C743 C 0.8546 0.13537 0.84839 0.0
C744 C 0.93747 0.19454 0.81277 0.0
C745 C 0.9279 0.19176 0.80039 0.0
O746 O 0.78916 0.08537 0.90886 0.0
O747 O 0.81249 0.07288 0.79524 0.0
O748 O 0.91616 0.19092 0.80495 0.0
O749 O 0.89379 0.19077 0.92477 0.0
H750 H 0.79589 0.0778 0.9237 0.0
H751 H 0.79235 0.06432 0.90104 0.0
H752 H 0.77457 0.05839 0.90105 0.0
H753 H 0.78165 0.05311 0.91438 0.0
H754 H 0.79204 0.10577 0.8954 0.0
H755 H 0.81272 0.08589 0.90823 0.0
H756 H 0.82088 0.13725 0.88624 0.0
H757 H 0.80285 0.12618 0.88271 0.0
H758 H 0.81493 0.12654 0.87056 0.0
H759 H 0.835 0.09351 0.90187 0.0
H760 H 0.84525 0.11224 0.90283 0.0
H761 H 0.84072 0.10318 0.88618 0.0
H762 H 0.89412 0.18064 0.94233 0.0
H763 H 0.92928 0.20726 0.94024 0.0
H764 H 0.90513 0.20149 0.95438 0.0
H765 H 0.90635 0.21037 0.94062 0.0
H766 H 0.89204 0.16633 0.92074 0.0
H767 H 0.87779 0.19207 0.90738 0.0
H768 H 0.86764 0.13561 0.90709 0.0
H769 H 0.88584 0.14516 0.9092 0.0
H770 H 0.87815 0.14162 0.89205 0.0
H771 H 0.86025 0.1842 0.89057 0.0
H772 H 0.84879 0.16558 0.88886 0.0
H773 H 0.86215 0.17431 0.87663 0.0
H774 H 0.92535 0.18177 0.79505 0.0
H775 H 0.91274 0.16622 0.8111 0.0
H776 H 0.8941 0.1902 0.81018 0.0
H777 H 0.88864 0.14024 0.83312 0.0
H778 H 0.90258 0.14478 0.82155 0.0
H779 H 0.88532 0.13465 0.8151 0.0
H780 H 0.87097 0.18053 0.81559 0.0
H781 H 0.86811 0.17188 0.83174 0.0
H782 H 0.86019 0.16182 0.81599 0.0
H783 H 0.79541 0.0694 0.80552 0.0
H784 H 0.78284 0.04392 0.80133 0.0
H785 H 0.79903 0.05037 0.80977 0.0
H786 H 0.79685 0.04544 0.79144 0.0
H787 H 0.83631 0.08046 0.80435 0.0
H788 H 0.80817 0.09353 0.79974 0.0
H789 H 0.85703 0.1056 0.83069 0.0
H790 H 0.8645 0.11161 0.81404 0.0
H791 H 0.85654 0.09348 0.81761 0.0
H792 H 0.81389 0.11631 0.80645 0.0
H793 H 0.83145 0.1293 0.81062 0.0
H794 H 0.82018 0.1192 0.82413 0.0
H795 H 0.84472 0.13771 0.90218 0.0
H796 H 0.8811 0.167 0.87177 0.0
H797 H 0.88531 0.1662 0.84742 0.0
H798 H 0.86157 0.13386 0.80883 0.0
H799 H 0.82635 0.10345 0.83988 0.0
H800 H 0.82177 0.10469 0.86403 0.0
H801 H 0.93915 0.20353 0.81944 0.0
H802 H 0.94741 0.19662 0.80897 0.0
H803 H 0.93308 0.18539 0.81937 0.0
C804 C 0.80481 0.68311 0.92344 0.0
C805 C 0.8069 0.69757 0.92568 0.0
C806 C 0.82061 0.70957 0.90605 0.0
C807 C 0.83042 0.72369 0.90811 0.0
C808 C 0.84285 0.72972 0.90115 0.0
C809 C 0.8455 0.72129 0.89213 0.0
C810 C 0.83542 0.707 0.8899 0.0
C811 C 0.82295 0.7014 0.89666 0.0
C812 C 0.8532 0.74502 0.9036 0.0
C813 C 0.83791 0.69753 0.88067 0.0
C814 C 0.91771 0.74751 0.95726 0.0
C815 C 0.91425 0.73678 0.94534 0.0
C816 C 0.91105 0.74099 0.92152 0.0
C817 C 0.90174 0.72737 0.91658 0.0
C818 C 0.89294 0.72482 0.90534 0.0
C819 C 0.89333 0.73614 0.89915 0.0
C820 C 0.90311 0.74992 0.90383 0.0
C821 C 0.91207 0.75216 0.91478 0.0
C822 C 0.88295 0.71 0.9004 0.0
C823 C 0.90371 0.76228 0.89775 0.0
C824 C 0.92977 0.75315 0.8138 0.0
C825 C 0.91966 0.73906 0.81512 0.0
C826 C 0.90687 0.73517 0.82045 0.0
C827 C 0.9042 0.74557 0.82457 0.0
C828 C 0.91422 0.75973 0.82279 0.0
C829 C 0.92684 0.76331 0.81729 0.0
C830 C 0.89627 0.71996 0.82184 0.0
C831 C 0.91167 0.77108 0.82695 0.0
C832 C 0.81715 0.74547 0.80695 0.0
C833 C 0.82188 0.74173 0.79345 0.0
C834 C 0.83616 0.73371 0.80287 0.0
C835 C 0.83659 0.72192 0.80533 0.0
C836 C 0.84721 0.72284 0.81316 0.0
C837 C 0.85762 0.73593 0.81877 0.0
C838 C 0.85751 0.748 0.81594 0.0
C839 C 0.84685 0.74679 0.80793 0.0
C840 C 0.84714 0.7098 0.81575 0.0
C841 C 0.86852 0.76214 0.82167 0.0
C842 C 0.85908 0.72711 0.8858 0.0
C843 C 0.8697 0.72919 0.89438 0.0
C844 C 0.88252 0.73352 0.88904 0.0
C845 C 0.88476 0.7355 0.87459 0.0
C846 C 0.89725 0.73907 0.8687 0.0
C847 C 0.89936 0.7411 0.85447 0.0
C848 C 0.88905 0.73963 0.8456 0.0
C849 C 0.89109 0.7417 0.83113 0.0
C850 C 0.88067 0.74031 0.82266 0.0
C851 C 0.86817 0.73692 0.82824 0.0
C852 C 0.86589 0.73468 0.84265 0.0
C853 C 0.85342 0.73119 0.8486 0.0
C854 C 0.85118 0.72877 0.86273 0.0
C855 C 0.86136 0.72986 0.87149 0.0
C856 C 0.87417 0.73381 0.86582 0.0
C857 C 0.87637 0.73603 0.85134 0.0
C858 C 0.96385 0.76049 0.81434 0.0
C859 C 0.94899 0.75019 0.81019 0.0
O860 O 0.80881 0.70382 0.91305 0.0
O861 O 0.82517 0.73189 0.79581 0.0
O862 O 0.94243 0.75736 0.80923 0.0
O863 O 0.91893 0.74363 0.93299 0.0
H864 H 0.81606 0.7041 0.93248 0.0
H865 H 0.81424 0.68403 0.91949 0.0
H866 H 0.79638 0.67668 0.91583 0.0
H867 H 0.8024 0.67769 0.93342 0.0
H868 H 0.82835 0.72994 0.91526 0.0
H869 H 0.81511 0.69053 0.89491 0.0
H870 H 0.86168 0.74636 0.91015 0.0
H871 H 0.84878 0.75052 0.90898 0.0
H872 H 0.85751 0.74996 0.89356 0.0
H873 H 0.82986 0.6864 0.88166 0.0
H874 H 0.84788 0.69896 0.88328 0.0
H875 H 0.83816 0.70018 0.86963 0.0
H876 H 0.90296 0.7298 0.94497 0.0
H877 H 0.91395 0.74227 0.96729 0.0
H878 H 0.91276 0.7534 0.9553 0.0
H879 H 0.92887 0.75499 0.95815 0.0
H880 H 0.90126 0.71875 0.9216 0.0
H881 H 0.91944 0.76263 0.91864 0.0
H882 H 0.88234 0.70912 0.88884 0.0
H883 H 0.8727 0.70675 0.90429 0.0
H884 H 0.88574 0.70273 0.90424 0.0
H885 H 0.91099 0.77218 0.90351 0.0
H886 H 0.8935 0.76089 0.8979 0.0
H887 H 0.90688 0.76316 0.88673 0.0
H888 H 0.94454 0.74266 0.81867 0.0
H889 H 0.92168 0.73109 0.81197 0.0
H890 H 0.93465 0.77413 0.81603 0.0
H891 H 0.89413 0.71773 0.83303 0.0
H892 H 0.89955 0.71311 0.81722 0.0
H893 H 0.88664 0.71737 0.81667 0.0
H894 H 0.92068 0.78162 0.82534 0.0
H895 H 0.90885 0.77032 0.83809 0.0
H896 H 0.90301 0.76974 0.82072 0.0
H897 H 0.83091 0.75125 0.78948 0.0
H898 H 0.81408 0.75299 0.80487 0.0
H899 H 0.82542 0.75036 0.81491 0.0
H900 H 0.80838 0.73603 0.81133 0.0
H901 H 0.8284 0.71189 0.80127 0.0
H902 H 0.84687 0.75609 0.80588 0.0
H903 H 0.84545 0.70755 0.82698 0.0
H904 H 0.85714 0.71131 0.81311 0.0
H905 H 0.83907 0.70065 0.80959 0.0
H906 H 0.86682 0.77049 0.81882 0.0
H907 H 0.8785 0.76462 0.81763 0.0
H908 H 0.86903 0.76206 0.83321 0.0
H909 H 0.86794 0.72731 0.90541 0.0
H910 H 0.90552 0.74028 0.87502 0.0
H911 H 0.9092 0.74386 0.85053 0.0
H912 H 0.88233 0.742 0.8116 0.0
H913 H 0.84519 0.7302 0.84239 0.0
H914 H 0.84137 0.72606 0.86673 0.0
H915 H 0.96933 0.75498 0.81531 0.0
H916 H 0.96443 0.76569 0.82458 0.0
H917 H 0.96898 0.76858 0.80649 0.0
C918 C 0.84647 0.60918 0.39358 0.0
C919 C 0.85415 0.61958 0.40571 0.0
C920 C 0.84424 0.61465 0.42863 0.0
C921 C 0.84902 0.62802 0.43433 0.0
C922 C 0.84178 0.6302 0.44479 0.0
C923 C 0.82937 0.61878 0.44941 0.0
C924 C 0.82472 0.60521 0.44385 0.0
C925 C 0.83242 0.6033 0.43373 0.0
C926 C 0.8472 0.64477 0.45063 0.0
C927 C 0.81138 0.59281 0.44821 0.0
C928 C 0.76376 0.64906 0.41289 0.0
C929 C 0.77232 0.64407 0.41837 0.0
C930 C 0.78128 0.64166 0.43986 0.0
C931 C 0.77685 0.62755 0.44004 0.0
C932 C 0.78422 0.62317 0.44738 0.0
C933 C 0.79637 0.63317 0.45453 0.0
C934 C 0.80078 0.64742 0.45448 0.0
C935 C 0.79301 0.65146 0.44732 0.0
C936 C 0.77907 0.60787 0.44742 0.0
C937 C 0.8138 0.65838 0.46179 0.0
C938 C 0.77515 0.62566 0.5462 0.0
C939 C 0.76935 0.61399 0.53692 0.0
C940 C 0.77757 0.61129 0.52831 0.0
C941 C 0.79183 0.62074 0.5286 0.0
C942 C 0.79767 0.63249 0.53796 0.0
C943 C 0.78924 0.63466 0.54678 0.0
C944 C 0.77099 0.59832 0.51891 0.0
C945 C 0.81281 0.64281 0.53858 0.0
C946 C 0.85208 0.57207 0.53716 0.0
C947 C 0.85304 0.58602 0.53838 0.0
C948 C 0.83471 0.59021 0.53511 0.0
C949 C 0.82085 0.58267 0.53191 0.0
C950 C 0.81469 0.58895 0.52566 0.0
C951 C 0.82257 0.60332 0.52307 0.0
C952 C 0.83653 0.61117 0.52689 0.0
C953 C 0.84253 0.60447 0.53266 0.0
C954 C 0.79978 0.5802 0.52178 0.0
C955 C 0.84511 0.62663 0.52493 0.0
C956 C 0.82073 0.62122 0.45905 0.0
C957 C 0.81313 0.62617 0.45336 0.0
C958 C 0.80465 0.62869 0.46159 0.0
C959 C 0.80379 0.62638 0.47602 0.0
C960 C 0.79553 0.62902 0.48466 0.0
C961 C 0.79472 0.62668 0.49883 0.0
C962 C 0.80181 0.62123 0.50486 0.0
C963 C 0.80065 0.61834 0.51918 0.0
C964 C 0.80779 0.61284 0.52479 0.0
C965 C 0.81607 0.61005 0.51651 0.0
C966 C 0.81745 0.61297 0.50218 0.0
C967 C 0.82573 0.61035 0.49352 0.0
C968 C 0.82706 0.61333 0.47946 0.0
C969 C 0.8198 0.61859 0.47341 0.0
C970 C 0.81132 0.62121 0.48193 0.0
C971 C 0.81024 0.61852 0.49635 0.0
C972 C 0.74835 0.62771 0.56517 0.0
C973 C 0.75375 0.62314 0.55349 0.0
O974 O 0.85074 0.61252 0.418 0.0
O975 O 0.84014 0.58344 0.54078 0.0
O976 O 0.76757 0.62853 0.55484 0.0
O977 O 0.77428 0.64597 0.4327 0.0
H978 H 0.8509 0.62722 0.40593 0.0
H979 H 0.83535 0.60392 0.3952 0.0
H980 H 0.84917 0.60115 0.39282 0.0
H981 H 0.84892 0.61461 0.38361 0.0
H982 H 0.85837 0.63674 0.43051 0.0
H983 H 0.8289 0.59301 0.42927 0.0
H984 H 0.84084 0.64857 0.4467 0.0
H985 H 0.85788 0.65209 0.44758 0.0
H986 H 0.84665 0.64484 0.46217 0.0
H987 H 0.80861 0.58322 0.44192 0.0
H988 H 0.80311 0.59488 0.44714 0.0
H989 H 0.81204 0.5909 0.45932 0.0
H990 H 0.78194 0.64751 0.41268 0.0
H991 H 0.74653 0.63089 0.40475 0.0
H992 H 0.77075 0.65803 0.40627 0.0
H993 H 0.76322 0.65574 0.4215 0.0
H994 H 0.76755 0.61993 0.43458 0.0
H995 H 0.79626 0.66233 0.44719 0.0
H996 H 0.7787 0.60465 0.45826 0.0
H997 H 0.78617 0.60585 0.44159 0.0
H998 H 0.76879 0.60133 0.44256 0.0
H999 H 0.81625 0.66907 0.46001 0.0
H1000 H 0.82236 0.65743 0.45809 0.0
H1001 H 0.81291 0.65677 0.47316 0.0
H1002 H 0.75073 0.62418 0.54283 0.0
H1003 H 0.75845 0.60685 0.53648 0.0
H1004 H 0.79362 0.64358 0.55403 0.0
H1005 H 0.7713 0.60121 0.50795 0.0
H1006 H 0.76021 0.59095 0.5216 0.0
H1007 H 0.77661 0.59294 0.51956 0.0
H1008 H 0.81559 0.65214 0.54532 0.0
H1009 H 0.8167 0.64617 0.52795 0.0
H1010 H 0.81797 0.63778 0.54275 0.0
H1011 H 0.85681 0.5911 0.52824 0.0
H1012 H 0.86211 0.5736 0.53458 0.0
H1013 H 0.84475 0.56541 0.52871 0.0
H1014 H 0.84855 0.56658 0.54709 0.0
H1015 H 0.8149 0.5717 0.53402 0.0
H1016 H 0.85322 0.61041 0.53549 0.0
H1017 H 0.79814 0.58196 0.51088 0.0
H1018 H 0.79403 0.58328 0.52866 0.0
H1019 H 0.79556 0.56892 0.52284 0.0
H1020 H 0.85514 0.63153 0.53033 0.0
H1021 H 0.83976 0.63173 0.52891 0.0
H1022 H 0.84686 0.62859 0.51366 0.0
H1023 H 0.81372 0.62796 0.44228 0.0
H1024 H 0.78965 0.63299 0.48056 0.0
H1025 H 0.78832 0.62907 0.50498 0.0
H1026 H 0.80673 0.61051 0.53574 0.0
H1027 H 0.83134 0.60604 0.49752 0.0
H1028 H 0.83371 0.61128 0.47335 0.0
H1029 H 0.7348 0.60924 0.57487 0.0
H1030 H 0.74505 0.63431 0.56026 0.0
H1031 H 0.75743 0.63671 0.57076 0.0
C1032 C 0.39448 0.25 0.3948 0.0
C1033 C 0.38433 0.24664 0.4065 0.0
C1034 C 0.38915 0.24242 0.42971 0.0
C1035 C 0.376 0.23241 0.43383 0.0
C1036 C 0.37397 0.22306 0.4441 0.0
C1037 C 0.38533 0.22365 0.45021 0.0
C1038 C 0.39863 0.2341 0.4464 0.0
C1039 C 0.40035 0.24355 0.43637 0.0
C1040 C 0.35967 0.21229 0.44812 0.0
C1041 C 0.411 0.23495 0.45249 0.0
C1042 C 0.371 0.12126 0.42401 0.0
C1043 C 0.37749 0.13587 0.4295 0.0
C1044 C 0.37111 0.15185 0.43906 0.0
C1045 C 0.38431 0.16221 0.44359 0.0
C1046 C 0.38677 0.17437 0.4507 0.0
C1047 C 0.37581 0.17615 0.45349 0.0
C1048 C 0.36252 0.16575 0.44897 0.0
C1049 C 0.36036 0.15375 0.44175 0.0
C1050 C 0.40111 0.18535 0.45522 0.0
C1051 C 0.3506 0.16731 0.45181 0.0
C1052 C 0.38287 0.16369 0.54293 0.0
C1053 C 0.39446 0.17218 0.53508 0.0
C1054 C 0.39572 0.18335 0.52796 0.0
C1055 C 0.38501 0.18585 0.52836 0.0
C1056 C 0.37352 0.17758 0.5366 0.0
C1057 C 0.37271 0.16673 0.54394 0.0
C1058 C 0.40843 0.19233 0.5198 0.0
C1059 C 0.36194 0.17997 0.53734 0.0
C1060 C 0.41488 0.29603 0.53972 0.0
C1061 C 0.40363 0.28113 0.5427 0.0
C1062 C 0.40444 0.26024 0.53822 0.0
C1063 C 0.41367 0.25629 0.53488 0.0
C1064 C 0.40932 0.24329 0.52839 0.0
C1065 C 0.39532 0.23388 0.5255 0.0
C1066 C 0.38584 0.23756 0.52945 0.0
C1067 C 0.39051 0.25075 0.53571 0.0
C1068 C 0.41972 0.2397 0.52443 0.0
C1069 C 0.3708 0.22759 0.52695 0.0
C1070 C 0.38326 0.21256 0.4595 0.0
C1071 C 0.38015 0.1999 0.45316 0.0
C1072 C 0.37831 0.18897 0.46104 0.0
C1073 C 0.37949 0.1906 0.47572 0.0
C1074 C 0.37743 0.17972 0.48397 0.0
C1075 C 0.37914 0.18158 0.49836 0.0
C1076 C 0.3831 0.19444 0.50506 0.0
C1077 C 0.38556 0.19664 0.51961 0.0
C1078 C 0.38924 0.20947 0.52597 0.0
C1079 C 0.39068 0.2203 0.51816 0.0
C1080 C 0.38844 0.21835 0.50355 0.0
C1081 C 0.38996 0.22906 0.49532 0.0
C1082 C 0.38801 0.22711 0.48092 0.0
C1083 C 0.38471 0.21448 0.47417 0.0
C1084 C 0.3829 0.20347 0.48229 0.0
C1085 C 0.38473 0.20539 0.49699 0.0
C1086 C 0.38024 0.13653 0.53195 0.0
C1087 C 0.38643 0.14445 0.54591 0.0
O1088 O 0.3913 0.25093 0.41917 0.0
O1089 O 0.40938 0.27321 0.5439 0.0
O1090 O 0.38102 0.15246 0.54956 0.0
O1091 O 0.36832 0.13994 0.43213 0.0
H1092 H 0.37715 0.23513 0.40594 0.0
H1093 H 0.39984 0.24444 0.39626 0.0
H1094 H 0.40216 0.26134 0.39482 0.0
H1095 H 0.38913 0.24659 0.38452 0.0
H1096 H 0.36734 0.23184 0.42892 0.0
H1097 H 0.41045 0.25145 0.43319 0.0
H1098 H 0.35701 0.20194 0.44374 0.0
H1099 H 0.35213 0.21458 0.44415 0.0
H1100 H 0.35889 0.21166 0.45963 0.0
H1101 H 0.42055 0.24304 0.44766 0.0
H1102 H 0.41012 0.22476 0.45104 0.0
H1103 H 0.41169 0.23743 0.46386 0.0
H1104 H 0.38654 0.14364 0.42365 0.0
H1105 H 0.37508 0.12206 0.41319 0.0
H1106 H 0.36046 0.11792 0.42032 0.0
H1107 H 0.3746 0.11136 0.43987 0.0
H1108 H 0.39275 0.16091 0.44158 0.0
H1109 H 0.35022 0.14572 0.43823 0.0
H1110 H 0.40179 0.18636 0.46677 0.0
H1111 H 0.40386 0.19558 0.45132 0.0
H1112 H 0.40864 0.18284 0.45141 0.0
H1113 H 0.34079 0.15791 0.44838 0.0
H1114 H 0.35196 0.17635 0.44626 0.0
H1115 H 0.35016 0.16941 0.46312 0.0
H1116 H 0.39763 0.15123 0.54499 0.0
H1117 H 0.40258 0.17021 0.53446 0.0
H1118 H 0.36388 0.16023 0.55015 0.0
H1119 H 0.40613 0.18971 0.5085 0.0
H1120 H 0.41674 0.19074 0.52263 0.0
H1121 H 0.41205 0.20349 0.52157 0.0
H1122 H 0.35335 0.17209 0.54354 0.0
H1123 H 0.35815 0.17968 0.52667 0.0
H1124 H 0.3656 0.19043 0.54216 0.0
H1125 H 0.39643 0.27724 0.53362 0.0
H1126 H 0.41054 0.30261 0.53845 0.0
H1127 H 0.42005 0.29611 0.52993 0.0
H1128 H 0.42254 0.30059 0.54836 0.0
H1129 H 0.42438 0.26362 0.53705 0.0
H1130 H 0.38326 0.25358 0.53872 0.0
H1131 H 0.41867 0.23664 0.51317 0.0
H1132 H 0.41791 0.23068 0.53034 0.0
H1133 H 0.43029 0.2485 0.52662 0.0
H1134 H 0.36467 0.23151 0.53172 0.0
H1135 H 0.36755 0.21736 0.53126 0.0
H1136 H 0.3686 0.22587 0.51557 0.0
H1137 H 0.37933 0.19858 0.44189 0.0
H1138 H 0.37455 0.16964 0.47938 0.0
H1139 H 0.37745 0.17282 0.50415 0.0
H1140 H 0.39125 0.21114 0.53711 0.0
H1141 H 0.39273 0.23909 0.49991 0.0
H1142 H 0.3893 0.2357 0.47512 0.0
H1143 H 0.36902 0.12971 0.53269 0.0
H1144 H 0.38446 0.13005 0.52893 0.0
H1145 H 0.38264 0.14393 0.52357 0.0
C1146 C 0.87544 0.2194 0.41538 0.0
C1147 C 0.87484 0.23254 0.41488 0.0
C1148 C 0.8619 0.2302 0.43538 0.0
C1149 C 0.85145 0.23244 0.43253 0.0
C1150 C 0.83916 0.22538 0.43972 0.0
C1151 C 0.83729 0.21572 0.44975 0.0
C1152 C 0.84792 0.21348 0.4526 0.0
C1153 C 0.86023 0.22102 0.44556 0.0
C1154 C 0.82814 0.22815 0.43651 0.0
C1155 C 0.84624 0.20296 0.46286 0.0
C1156 C 0.73786 0.13477 0.43213 0.0
C1157 C 0.74789 0.13412 0.42214 0.0
C1158 C 0.76972 0.14962 0.43465 0.0
C1159 C 0.77966 0.14965 0.44274 0.0
C1160 C 0.79015 0.16193 0.44927 0.0
C1161 C 0.79065 0.17451 0.44767 0.0
C1162 C 0.7809 0.17468 0.43911 0.0
C1163 C 0.77054 0.16222 0.4326 0.0
C1164 C 0.80051 0.16138 0.45815 0.0
C1165 C 0.78128 0.18798 0.43713 0.0
C1166 C 0.75608 0.16622 0.53054 0.0
C1167 C 0.76619 0.16308 0.52898 0.0
C1168 C 0.77901 0.1729 0.52389 0.0
C1169 C 0.78169 0.18605 0.52017 0.0
C1170 C 0.77178 0.1895 0.5225 0.0
C1171 C 0.75912 0.17955 0.52781 0.0
C1172 C 0.78953 0.16906 0.52205 0.0
C1173 C 0.77438 0.2035 0.51885 0.0
C1174 C 0.87376 0.27891 0.54097 0.0
C1175 C 0.86755 0.26791 0.55205 0.0
C1176 C 0.8524 0.2457 0.53903 0.0
C1177 C 0.85061 0.23287 0.53515 0.0
C1178 C 0.83918 0.2228 0.52739 0.0
C1179 C 0.82937 0.22577 0.5232 0.0
C1180 C 0.83098 0.23867 0.52723 0.0
C1181 C 0.84246 0.24851 0.53517 0.0
C1182 C 0.83768 0.20904 0.52351 0.0
C1183 C 0.82069 0.24213 0.52292 0.0
C1184 C 0.82405 0.2075 0.45681 0.0
C1185 C 0.8134 0.19611 0.44936 0.0
C1186 C 0.80097 0.18725 0.45562 0.0
C1187 C 0.79896 0.18982 0.46966 0.0
C1188 C 0.78653 0.18116 0.47622 0.0
C1189 C 0.7849 0.18327 0.49026 0.0
C1190 C 0.79568 0.19402 0.49834 0.0
C1191 C 0.79439 0.19572 0.51282 0.0
C1192 C 0.80539 0.20636 0.52058 0.0
C1193 C 0.8177 0.21551 0.51422 0.0
C1194 C 0.81908 0.21416 0.49969 0.0
C1195 C 0.83121 0.22339 0.49291 0.0
C1196 C 0.83274 0.22148 0.47877 0.0
C1197 C 0.82227 0.21016 0.47093 0.0
C1198 C 0.80974 0.20115 0.47741 0.0
C1199 C 0.80813 0.20319 0.4918 0.0
C1200 C 0.72235 0.1378 0.52509 0.0
C1201 C 0.73642 0.1425 0.53098 0.0
O1202 O 0.87361 0.23679 0.42823 0.0
O1203 O 0.86392 0.255 0.54628 0.0
O1204 O 0.74328 0.15662 0.53445 0.0
O1205 O 0.75955 0.13715 0.42925 0.0
H1206 H 0.86585 0.23014 0.40844 0.0
H1207 H 0.86584 0.21073 0.41954 0.0
H1208 H 0.88403 0.22132 0.42216 0.0
H1209 H 0.87675 0.21608 0.40476 0.0
H1210 H 0.85295 0.2397 0.42467 0.0
H1211 H 0.86847 0.21946 0.44766 0.0
H1212 H 0.81956 0.21885 0.43102 0.0
H1213 H 0.8318 0.2372 0.42983 0.0
H1214 H 0.82417 0.23008 0.44632 0.0
H1215 H 0.85454 0.20086 0.46215 0.0
H1216 H 0.83637 0.19301 0.46108 0.0
H1217 H 0.8463 0.20692 0.47362 0.0
H1218 H 0.7506 0.14167 0.4138 0.0
H1219 H 0.72837 0.13189 0.42643 0.0
H1220 H 0.74225 0.14542 0.43676 0.0
H1221 H 0.73531 0.12754 0.44073 0.0
H1222 H 0.77902 0.1399 0.44414 0.0
H1223 H 0.76307 0.16242 0.42614 0.0
H1224 H 0.79948 0.16387 0.4692 0.0
H1225 H 0.81093 0.1693 0.4549 0.0
H1226 H 0.7993 0.151 0.45748 0.0
H1227 H 0.7731 0.18647 0.42994 0.0
H1228 H 0.79126 0.19591 0.43291 0.0
H1229 H 0.78017 0.19214 0.44736 0.0
H1230 H 0.74172 0.14035 0.52249 0.0
H1231 H 0.76405 0.15294 0.53163 0.0
H1232 H 0.75131 0.18195 0.5293 0.0
H1233 H 0.79087 0.1677 0.51077 0.0
H1234 H 0.78658 0.15925 0.52716 0.0
H1235 H 0.79949 0.17752 0.52642 0.0
H1236 H 0.76563 0.2046 0.52135 0.0
H1237 H 0.77648 0.20503 0.50756 0.0
H1238 H 0.7835 0.21186 0.52464 0.0
H1239 H 0.85845 0.26748 0.55643 0.0
H1240 H 0.87694 0.2893 0.54571 0.0
H1241 H 0.86623 0.27643 0.53255 0.0
H1242 H 0.88274 0.27938 0.53624 0.0
H1243 H 0.8583 0.23078 0.53821 0.0
H1244 H 0.84364 0.25837 0.53811 0.0
H1245 H 0.83884 0.20828 0.51209 0.0
H1246 H 0.82739 0.20033 0.52618 0.0
H1247 H 0.84538 0.20778 0.52886 0.0
H1248 H 0.82361 0.25279 0.52649 0.0
H1249 H 0.81065 0.23457 0.52731 0.0
H1250 H 0.81951 0.24119 0.51139 0.0
H1251 H 0.81495 0.19385 0.43868 0.0
H1252 H 0.77794 0.17256 0.47061 0.0
H1253 H 0.77512 0.1762 0.49474 0.0
H1254 H 0.80445 0.20737 0.53174 0.0
H1255 H 0.83971 0.23213 0.49848 0.0
H1256 H 0.84233 0.22883 0.47412 0.0
H1257 H 0.71662 0.12648 0.52234 0.0
H1258 H 0.72342 0.14345 0.51551 0.0
H1259 H 0.71645 0.13999 0.53275 0.0
C1260 C 0.03129 0.4886 0.27902 0.0
C1261 C 0.02085 0.47613 0.2699 0.0
C1262 C 0.01864 0.48274 0.24689 0.0
C1263 C 0.00452 0.47539 0.24489 0.0
C1264 C 0.99854 0.48027 0.23603 0.0
C1265 C 0.0069 0.49281 0.22915 0.0
C1266 C 0.0212 0.49996 0.23079 0.0
C1267 C 0.0269 0.49467 0.23948 0.0
C1268 C 0.98329 0.47219 0.23424 0.0
C1269 C 0.03044 0.51344 0.22375 0.0
C1270 C 0.96272 0.53027 0.28398 0.0
C1271 C 0.97423 0.53896 0.27399 0.0
C1272 C 0.97441 0.53066 0.25041 0.0
C1273 C 0.98841 0.5376 0.24811 0.0
C1274 C 0.99365 0.53224 0.23831 0.0
C1275 C 0.98469 0.51954 0.23092 0.0
C1276 C 0.9705 0.51273 0.233 0.0
C1277 C 0.96553 0.5186 0.24252 0.0
C1278 C 0.00879 0.54 0.23613 0.0
C1279 C 0.9606 0.499 0.22561 0.0
C1280 C 0.97157 0.5322 0.14322 0.0
C1281 C 0.98561 0.53854 0.14553 0.0
C1282 C 0.99083 0.53125 0.15157 0.0
C1283 C 0.98185 0.51732 0.15523 0.0
C1284 C 0.9678 0.51067 0.15215 0.0
C1285 C 0.96286 0.5182 0.14607 0.0
C1286 C 0.00592 0.53851 0.15434 0.0
C1287 C 0.95799 0.49575 0.15568 0.0
C1288 C 0.02564 0.45421 0.14392 0.0
C1289 C 0.01293 0.45198 0.13664 0.0
C1290 C 0.01025 0.47188 0.13956 0.0
C1291 C 0.01872 0.48629 0.14134 0.0
C1292 C 0.01428 0.49414 0.14846 0.0
C1293 C 0.00092 0.48736 0.15364 0.0
C1294 C 0.99204 0.47285 0.15121 0.0
C1295 C 0.99681 0.46524 0.14417 0.0
C1296 C 0.02395 0.50961 0.15075 0.0
C1297 C 0.97761 0.46538 0.15625 0.0
C1298 C 0.00066 0.499 0.22114 0.0
C1299 C 0.99582 0.50621 0.22869 0.0
C1300 C 0.99021 0.51275 0.22199 0.0
C1301 C 0.98959 0.51234 0.20728 0.0
C1302 C 0.98457 0.51931 0.20016 0.0
C1303 C 0.98373 0.51858 0.18568 0.0
C1304 C 0.98793 0.51088 0.17775 0.0
C1305 C 0.98704 0.51 0.16302 0.0
C1306 C 0.99126 0.50222 0.15546 0.0
C1307 C 0.99647 0.49532 0.16223 0.0
C1308 C 0.99754 0.49617 0.17694 0.0
C1309 C 0.00288 0.48947 0.18407 0.0
C1310 C 0.00388 0.49035 0.19855 0.0
C1311 C 0.99962 0.49798 0.20644 0.0
C1312 C 0.99414 0.50475 0.19949 0.0
C1313 C 0.99319 0.50393 0.18471 0.0
C1314 C 0.95942 0.55247 0.15193 0.0
C1315 C 0.97011 0.55277 0.14229 0.0
O1316 O 0.02449 0.47861 0.25605 0.0
O1317 O 0.01528 0.46479 0.13307 0.0
O1318 O 0.96615 0.53927 0.13824 0.0
O1319 O 0.96924 0.53522 0.26042 0.0
H1320 H 0.01082 0.47499 0.27165 0.0
H1321 H 0.03147 0.49806 0.27612 0.0
H1322 H 0.04162 0.49048 0.27761 0.0
H1323 H 0.02856 0.4868 0.29018 0.0
H1324 H 0.99819 0.4659 0.25034 0.0
H1325 H 0.03782 0.50014 0.24101 0.0
H1326 H 0.97921 0.47805 0.23952 0.0
H1327 H 0.9784 0.46176 0.23873 0.0
H1328 H 0.98045 0.47091 0.22302 0.0
H1329 H 0.04127 0.51813 0.22676 0.0
H1330 H 0.02743 0.52101 0.22646 0.0
H1331 H 0.0294 0.51157 0.21227 0.0
H1332 H 0.9822 0.5365 0.27578 0.0
H1333 H 0.9665 0.53299 0.29494 0.0
H1334 H 0.95872 0.51906 0.28185 0.0
H1335 H 0.95428 0.53205 0.28265 0.0
H1336 H 0.99521 0.54715 0.25405 0.0
H1337 H 0.95472 0.51342 0.24434 0.0
H1338 H 0.01103 0.54039 0.22484 0.0
H1339 H 0.01303 0.53444 0.24114 0.0
H1340 H 0.01403 0.55078 0.2407 0.0
H1341 H 0.95015 0.49426 0.22971 0.0
H1342 H 0.96395 0.49157 0.22671 0.0
H1343 H 0.96026 0.50056 0.21434 0.0
H1344 H 0.97973 0.55799 0.14852 0.0
H1345 H 0.99249 0.54917 0.14265 0.0
H1346 H 0.95208 0.51332 0.14396 0.0
H1347 H 0.00788 0.53921 0.16573 0.0
H1348 H 0.01163 0.54916 0.15032 0.0
H1349 H 0.00986 0.53237 0.14942 0.0
H1350 H 0.94746 0.49189 0.15208 0.0
H1351 H 0.95799 0.49477 0.16714 0.0
H1352 H 0.9613 0.48901 0.15084 0.0
H1353 H 0.00443 0.44684 0.14408 0.0
H1354 H 0.02399 0.44413 0.14708 0.0
H1355 H 0.02798 0.46103 0.15344 0.0
H1356 H 0.03451 0.45923 0.13692 0.0
H1357 H 0.02899 0.49133 0.13747 0.0
H1358 H 0.98999 0.45417 0.14219 0.0
H1359 H 0.02533 0.51237 0.16209 0.0
H1360 H 0.0196 0.5152 0.14603 0.0
H1361 H 0.03406 0.51329 0.14615 0.0
H1362 H 0.97167 0.45429 0.15258 0.0
H1363 H 0.97243 0.47059 0.15259 0.0
H1364 H 0.97764 0.46589 0.16781 0.0
H1365 H 0.9964 0.5067 0.23999 0.0
H1366 H 0.98121 0.5254 0.20572 0.0
H1367 H 0.97972 0.52411 0.18078 0.0
H1368 H 0.99054 0.50159 0.14417 0.0
H1369 H 0.00635 0.48347 0.17856 0.0
H1370 H 0.00801 0.48494 0.20347 0.0
H1371 H 0.96215 0.56322 0.15484 0.0
H1372 H 0.95893 0.5472 0.16161 0.0
H1373 H 0.94919 0.54671 0.14689 0.0
C1374 C 0.47092 0.43454 0.28333 0.0
C1375 C 0.46189 0.4319 0.27059 0.0
C1376 C 0.47335 0.43368 0.24884 0.0
C1377 C 0.47078 0.44261 0.24171 0.0
C1378 C 0.47963 0.45105 0.23141 0.0
C1379 C 0.49122 0.45047 0.22817 0.0
C1380 C 0.49337 0.44087 0.23476 0.0
C1381 C 0.48428 0.43246 0.24495 0.0
C1382 C 0.47686 0.46094 0.22432 0.0
C1383 C 0.50555 0.4399 0.23145 0.0
C1384 C 0.55946 0.52255 0.27298 0.0
C1385 C 0.56738 0.53222 0.26114 0.0
C1386 C 0.55046 0.52034 0.24213 0.0
C1387 C 0.55248 0.50928 0.23968 0.0
C1388 C 0.54344 0.49771 0.23112 0.0
C1389 C 0.53213 0.49713 0.22494 0.0
C1390 C 0.53031 0.50842 0.22701 0.0
C1391 C 0.53961 0.51995 0.23548 0.0
C1392 C 0.54578 0.48592 0.22897 0.0
C1393 C 0.51833 0.50811 0.22061 0.0
C1394 C 0.5499 0.50912 0.13365 0.0
C1395 C 0.55431 0.5017 0.14077 0.0
C1396 C 0.5452 0.49034 0.14865 0.0
C1397 C 0.53151 0.48667 0.14967 0.0
C1398 C 0.52702 0.49403 0.14217 0.0
C1399 C 0.53626 0.50505 0.13405 0.0
C1400 C 0.55024 0.48241 0.15604 0.0
C1401 C 0.51252 0.49041 0.14293 0.0
C1402 C 0.44605 0.37622 0.14199 0.0
C1403 C 0.45145 0.3911 0.13782 0.0
C1404 C 0.47441 0.41136 0.142 0.0
C1405 C 0.4875 0.4149 0.1457 0.0
C1406 C 0.49697 0.42808 0.1516 0.0
C1407 C 0.49328 0.43804 0.1536 0.0
C1408 C 0.48025 0.43476 0.14923 0.0
C1409 C 0.47093 0.42143 0.14348 0.0
C1410 C 0.51082 0.43128 0.156 0.0
C1411 C 0.47614 0.44528 0.15086 0.0
C1412 C 0.50173 0.46088 0.21898 0.0
C1413 C 0.51162 0.47362 0.2252 0.0
C1414 C 0.52166 0.48421 0.21732 0.0
C1415 C 0.52176 0.48219 0.20272 0.0
C1416 C 0.53141 0.49279 0.1944 0.0
C1417 C 0.53137 0.4907 0.18003 0.0
C1418 C 0.52192 0.47779 0.17346 0.0
C1419 C 0.52197 0.47547 0.15888 0.0
C1420 C 0.51254 0.46245 0.15275 0.0
C1421 C 0.50286 0.45166 0.16075 0.0
C1422 C 0.50248 0.45386 0.1753 0.0
C1423 C 0.49272 0.44332 0.18363 0.0
C1424 C 0.49236 0.44562 0.19792 0.0
C1425 C 0.50191 0.45846 0.20446 0.0
C1426 C 0.51193 0.4692 0.19629 0.0
C1427 C 0.51212 0.46695 0.18167 0.0
C1428 C 0.55876 0.53974 0.13675 0.0
C1429 C 0.56714 0.53341 0.13239 0.0
O1430 O 0.46559 0.42634 0.25963 0.0
O1431 O 0.46548 0.39817 0.1371 0.0
O1432 O 0.55876 0.52024 0.12631 0.0
O1433 O 0.55851 0.53138 0.25099 0.0
H1434 H 0.46363 0.4422 0.26804 0.0
H1435 H 0.48167 0.44234 0.28094 0.0
H1436 H 0.47026 0.42485 0.28627 0.0
H1437 H 0.46786 0.43867 0.29233 0.0
H1438 H 0.46196 0.4431 0.24431 0.0
H1439 H 0.48601 0.42533 0.25036 0.0
H1440 H 0.48487 0.47181 0.22739 0.0
H1441 H 0.46681 0.45927 0.2271 0.0
H1442 H 0.47723 0.45968 0.21284 0.0
H1443 H 0.50542 0.43143 0.23698 0.0
H1444 H 0.51499 0.44991 0.23447 0.0
H1445 H 0.50591 0.43808 0.22006 0.0
H1446 H 0.5743 0.52925 0.25645 0.0
H1447 H 0.56656 0.52346 0.28124 0.0
H1448 H 0.55354 0.51155 0.26905 0.0
H1449 H 0.5523 0.52522 0.27762 0.0
H1450 H 0.56094 0.50947 0.24452 0.0
H1451 H 0.53818 0.52856 0.23733 0.0
H1452 H 0.53759 0.47658 0.23407 0.0
H1453 H 0.55572 0.4885 0.23335 0.0
H1454 H 0.54535 0.48319 0.21768 0.0
H1455 H 0.51845 0.51781 0.22307 0.0
H1456 H 0.50874 0.49916 0.2245 0.0
H1457 H 0.5183 0.5066 0.20913 0.0
H1458 H 0.57221 0.53267 0.14182 0.0
H1459 H 0.56488 0.50486 0.14016 0.0
H1460 H 0.53299 0.51081 0.12829 0.0
H1461 H 0.55085 0.4848 0.16742 0.0
H1462 H 0.56047 0.48516 0.15248 0.0
H1463 H 0.54305 0.47104 0.15429 0.0
H1464 H 0.51096 0.4979 0.13746 0.0
H1465 H 0.50955 0.4902 0.15397 0.0
H1466 H 0.50565 0.47987 0.13811 0.0
H1467 H 0.44835 0.39589 0.14618 0.0
H1468 H 0.43479 0.37033 0.14269 0.0
H1469 H 0.45031 0.37636 0.15235 0.0
H1470 H 0.44899 0.37076 0.1343 0.0
H1471 H 0.49015 0.40711 0.14432 0.0
H1472 H 0.46097 0.41895 0.14014 0.0
H1473 H 0.51241 0.43399 0.16735 0.0
H1474 H 0.5188 0.44043 0.15049 0.0
H1475 H 0.51211 0.42239 0.15376 0.0
H1476 H 0.46599 0.44146 0.14612 0.0
H1477 H 0.48376 0.45508 0.14596 0.0
H1478 H 0.47587 0.44777 0.1621 0.0
H1479 H 0.51152 0.47532 0.23638 0.0
H1480 H 0.53903 0.50287 0.19891 0.0
H1481 H 0.53893 0.49932 0.17416 0.0
H1482 H 0.51269 0.46071 0.14158 0.0
H1483 H 0.48517 0.43318 0.17919 0.0
H1484 H 0.48458 0.43717 0.20381 0.0
H1485 H 0.55309 0.54004 0.12764 0.0
H1486 H 0.56545 0.55047 0.14125 0.0
H1487 H 0.55139 0.53349 0.14486 0.0
C1488 C 0.42454 0.95932 0.23792 0.0
C1489 C 0.43271 0.96935 0.25022 0.0
C1490 C 0.45488 0.98604 0.24005 0.0
C1491 C 0.46338 0.99991 0.23666 0.0
C1492 C 0.476 0.00465 0.23052 0.0
C1493 C 0.48005 0.99512 0.22731 0.0
C1494 C 0.47163 0.98109 0.23096 0.0
C1495 C 0.4592 0.97672 0.23747 0.0
C1496 C 0.48489 0.01981 0.22727 0.0
C1497 C 0.47565 0.97067 0.22773 0.0
C1498 C 0.58108 0.03807 0.25402 0.0
C1499 C 0.57064 0.02403 0.26002 0.0
C1500 C 0.55124 0.01319 0.24339 0.0
C1501 C 0.54381 0.00186 0.23406 0.0
C1502 C 0.53232 0.99977 0.22702 0.0
C1503 C 0.5284 0.00955 0.22909 0.0
C1504 C 0.53575 0.02098 0.23867 0.0
C1505 C 0.54703 0.0226 0.24587 0.0
C1506 C 0.52449 0.98719 0.21724 0.0
C1507 C 0.53186 0.03161 0.24109 0.0
C1508 C 0.56147 0.04291 0.1458 0.0
C1509 C 0.55505 0.02856 0.14753 0.0
C1510 C 0.54184 0.02091 0.15278 0.0
C1511 C 0.5351 0.02785 0.15672 0.0
C1512 C 0.54143 0.04224 0.15454 0.0
C1513 C 0.55445 0.04951 0.14886 0.0
C1514 C 0.53518 0.00546 0.15432 0.0
C1515 C 0.53456 0.05002 0.15841 0.0
C1516 C 0.42823 0.98727 0.1477 0.0
C1517 C 0.4394 0.99952 0.13985 0.0
C1518 C 0.46082 0.00026 0.14055 0.0
C1519 C 0.46502 0.9908 0.14027 0.0
C1520 C 0.47721 0.99413 0.1468 0.0
C1521 C 0.48543 0.00733 0.15359 0.0
C1522 C 0.48164 0.01726 0.15318 0.0
C1523 C 0.46941 0.01365 0.14656 0.0
C1524 C 0.48107 0.98338 0.14689 0.0
C1525 C 0.49034 0.03154 0.16006 0.0
C1526 C 0.49285 0.99981 0.2197 0.0
C1527 C 0.5043 0.00251 0.22724 0.0
C1528 C 0.51689 0.00799 0.22084 0.0
C1529 C 0.51826 0.01135 0.20666 0.0
C1530 C 0.53098 0.01793 0.2002 0.0
C1531 C 0.53218 0.02103 0.1862 0.0
C1532 C 0.52067 0.01741 0.17801 0.0
C1533 C 0.52174 0.02029 0.16369 0.0
C1534 C 0.51008 0.01664 0.15593 0.0
C1535 C 0.49735 0.01035 0.16214 0.0
C1536 C 0.49609 0.00744 0.17644 0.0
C1537 C 0.48343 0.00121 0.18302 0.0
C1538 C 0.48232 0.99863 0.19715 0.0
C1539 C 0.49382 0.00212 0.20525 0.0
C1540 C 0.50662 0.00811 0.19877 0.0
C1541 C 0.50779 0.01093 0.18438 0.0
C1542 C 0.59764 0.06285 0.14764 0.0
C1543 C 0.58488 0.04871 0.14398 0.0
O1544 O 0.4426 0.98221 0.24552 0.0
O1545 O 0.44856 0.99617 0.13478 0.0
O1546 O 0.57436 0.05069 0.14115 0.0
O1547 O 0.56247 0.01465 0.24948 0.0
H1548 H 0.43754 0.96491 0.25627 0.0
H1549 H 0.43113 0.95729 0.23118 0.0
H1550 H 0.41996 0.96371 0.23141 0.0
H1551 H 0.41631 0.94921 0.24181 0.0
H1552 H 0.46003 0.00706 0.23882 0.0
H1553 H 0.45288 0.966 0.24027 0.0
H1554 H 0.49558 0.02397 0.23054 0.0
H1555 H 0.48138 0.02622 0.23251 0.0
H1556 H 0.48475 0.02094 0.21586 0.0
H1557 H 0.4675 0.95992 0.23019 0.0
H1558 H 0.4849 0.97354 0.23388 0.0
H1559 H 0.47816 0.97083 0.21653 0.0
H1560 H 0.56428 0.02556 0.2677 0.0
H1561 H 0.58785 0.04542 0.26248 0.0
H1562 H 0.57594 0.04274 0.24903 0.0
H1563 H 0.58736 0.03682 0.24605 0.0
H1564 H 0.54709 0.9946 0.2323 0.0
H1565 H 0.55258 0.03136 0.25317 0.0
H1566 H 0.52639 0.99051 0.20632 0.0
H1567 H 0.5134 0.98201 0.21902 0.0
H1568 H 0.52751 0.97951 0.21851 0.0
H1569 H 0.53925 0.04049 0.24802 0.0
H1570 H 0.5217 0.02661 0.24592 0.0
H1571 H 0.53115 0.03564 0.231 0.0
H1572 H 0.58249 0.04226 0.15327 0.0
H1573 H 0.56032 0.02334 0.14471 0.0
H1574 H 0.55944 0.06055 0.14724 0.0
H1575 H 0.53506 0.0033 0.1655 0.0
H1576 H 0.54065 0.00128 0.14856 0.0
H1577 H 0.52448 0.99984 0.15049 0.0
H1578 H 0.5415 0.06144 0.15766 0.0
H1579 H 0.53069 0.04777 0.1692 0.0
H1580 H 0.52574 0.04649 0.15129 0.0
H1581 H 0.44435 0.00857 0.1474 0.0
H1582 H 0.42069 0.98969 0.15171 0.0
H1583 H 0.43276 0.98519 0.1567 0.0
H1584 H 0.42293 0.97772 0.1408 0.0
H1585 H 0.45846 0.9806 0.13531 0.0
H1586 H 0.46662 0.02133 0.14609 0.0
H1587 H 0.48095 0.98031 0.15775 0.0
H1588 H 0.49156 0.98787 0.14301 0.0
H1589 H 0.47404 0.97393 0.14039 0.0
H1590 H 0.48626 0.03827 0.15833 0.0
H1591 H 0.50081 0.03667 0.15597 0.0
H1592 H 0.491 0.03061 0.17145 0.0
H1593 H 0.50342 0.00033 0.23823 0.0
H1594 H 0.54018 0.02088 0.20593 0.0
H1595 H 0.54226 0.02623 0.18187 0.0
H1596 H 0.51095 0.01896 0.14498 0.0
H1597 H 0.47421 0.99829 0.17735 0.0
H1598 H 0.47232 0.99381 0.20162 0.0
H1599 H 0.60062 0.06979 0.13871 0.0
H1600 H 0.60621 0.06163 0.15041 0.0
H1601 H 0.59567 0.06785 0.15673 0.0
C1602 C 0.54996 0.9753 0.77258 0.0
C1603 C 0.54974 0.98552 0.76279 0.0
C1604 C 0.54194 0.99818 0.77743 0.0
C1605 C 0.54595 0.0111 0.78375 0.0
C1606 C 0.53679 0.01314 0.79141 0.0
C1607 C 0.52329 0.00185 0.79293 0.0
C1608 C 0.5191 0.98873 0.78652 0.0
C1609 C 0.52844 0.98704 0.77876 0.0
C1610 C 0.54155 0.02732 0.79794 0.0
C1611 C 0.50478 0.97648 0.78798 0.0
C1612 C 0.4345 0.00477 0.75951 0.0
C1613 C 0.44211 0.00103 0.76887 0.0
C1614 C 0.46485 0.01042 0.77862 0.0
C1615 C 0.46206 0.99761 0.78339 0.0
C1616 C 0.47194 0.99671 0.79071 0.0
C1617 C 0.48484 0.00885 0.79347 0.0
C1618 C 0.48774 0.02173 0.78862 0.0
C1619 C 0.47769 0.02233 0.7812 0.0
C1620 C 0.46854 0.98276 0.7956 0.0
C1621 C 0.50139 0.03486 0.79142 0.0
C1622 C 0.46357 0.01173 0.87978 0.0
C1623 C 0.46061 0.99834 0.87594 0.0
C1624 C 0.47064 0.99637 0.87027 0.0
C1625 C 0.48393 0.008 0.8686 0.0
C1626 C 0.48717 0.02136 0.87342 0.0
C1627 C 0.47693 0.02303 0.87905 0.0
C1628 C 0.46693 0.98193 0.86558 0.0
C1629 C 0.5013 0.03393 0.87201 0.0
C1630 C 0.5505 0.97374 0.87159 0.0
C1631 C 0.55475 0.98562 0.88246 0.0
C1632 C 0.53579 0.98891 0.88181 0.0
C1633 C 0.52192 0.97942 0.87956 0.0
C1634 C 0.51389 0.98322 0.87257 0.0
C1635 C 0.51985 0.99701 0.86818 0.0
C1636 C 0.53377 0.00685 0.87112 0.0
C1637 C 0.54164 0.00263 0.87778 0.0
C1638 C 0.49908 0.97243 0.86975 0.0
C1639 C 0.54036 0.02178 0.86714 0.0
C1640 C 0.5136 0.00376 0.80134 0.0
C1641 C 0.50455 0.00612 0.79433 0.0
C1642 C 0.49516 0.00798 0.80161 0.0
C1643 C 0.49505 0.00798 0.81633 0.0
C1644 C 0.48607 0.01035 0.82399 0.0
C1645 C 0.4858 0.00998 0.83844 0.0
C1646 C 0.49441 0.00713 0.8458 0.0
C1647 C 0.49393 0.00637 0.86047 0.0
C1648 C 0.50253 0.0034 0.86748 0.0
C1649 C 0.51158 0.00096 0.86019 0.0
C1650 C 0.51221 0.00168 0.84549 0.0
C1651 C 0.52105 0.99913 0.83776 0.0
C1652 C 0.52162 0.99992 0.82333 0.0
C1653 C 0.5132 0.00306 0.81602 0.0
C1654 C 0.50401 0.00537 0.82355 0.0
C1655 C 0.50361 0.00482 0.8383 0.0
C1656 C 0.44133 0.01652 0.86607 0.0
C1657 C 0.44092 0.00798 0.87827 0.0
O1658 O 0.55146 0.99701 0.77032 0.0
O1659 O 0.54326 0.98461 0.88809 0.0
O1660 O 0.45381 0.01409 0.88416 0.0
O1661 O 0.45547 0.01167 0.77155 0.0
H1662 H 0.53988 0.98021 0.75697 0.0
H1663 H 0.54147 0.9714 0.78002 0.0
H1664 H 0.55965 0.98042 0.77868 0.0
H1665 H 0.54883 0.96622 0.76649 0.0
H1666 H 0.55636 0.01964 0.78265 0.0
H1667 H 0.5251 0.97696 0.77393 0.0
H1668 H 0.53458 0.03071 0.79488 0.0
H1669 H 0.55203 0.03527 0.79485 0.0
H1670 H 0.54132 0.02679 0.80946 0.0
H1671 H 0.50336 0.96672 0.78322 0.0
H1672 H 0.49758 0.97862 0.78286 0.0
H1673 H 0.50212 0.9749 0.79916 0.0
H1674 H 0.43664 0.99577 0.77849 0.0
H1675 H 0.43037 0.99172 0.74174 0.0
H1676 H 0.44055 0.01646 0.75917 0.0
H1677 H 0.42623 0.00428 0.76614 0.0
H1678 H 0.45221 0.98826 0.78143 0.0
H1679 H 0.47979 0.03215 0.77748 0.0
H1680 H 0.46865 0.98296 0.80716 0.0
H1681 H 0.47633 0.98055 0.79198 0.0
H1682 H 0.4584 0.97414 0.79177 0.0
H1683 H 0.50195 0.04413 0.78726 0.0
H1684 H 0.50947 0.03372 0.78659 0.0
H1685 H 0.5035 0.0366 0.80282 0.0
H1686 H 0.43731 0.99741 0.87373 0.0
H1687 H 0.45048 0.98941 0.87726 0.0
H1688 H 0.47917 0.03328 0.88235 0.0
H1689 H 0.46788 0.98141 0.85409 0.0
H1690 H 0.4564 0.97386 0.8684 0.0
H1691 H 0.47407 0.9795 0.87033 0.0
H1692 H 0.50246 0.04341 0.87721 0.0
H1693 H 0.50364 0.03587 0.8608 0.0
H1694 H 0.50886 0.03198 0.87656 0.0
H1695 H 0.56097 0.99566 0.87723 0.0
H1696 H 0.55959 0.97441 0.86691 0.0
H1697 H 0.54446 0.9744 0.86309 0.0
H1698 H 0.54422 0.96351 0.87643 0.0
H1699 H 0.5175 0.9689 0.88294 0.0
H1700 H 0.55231 0.01008 0.87998 0.0
H1701 H 0.49644 0.97232 0.85864 0.0
H1702 H 0.49275 0.97511 0.87617 0.0
H1703 H 0.49643 0.96183 0.87228 0.0
H1704 H 0.55062 0.02854 0.87199 0.0
H1705 H 0.53392 0.02591 0.87032 0.0
H1706 H 0.54138 0.02235 0.85566 0.0
H1707 H 0.50465 0.00623 0.78304 0.0
H1708 H 0.47916 0.01253 0.81889 0.0
H1709 H 0.47865 0.01189 0.84374 0.0
H1710 H 0.50198 0.00269 0.87872 0.0
H1711 H 0.52767 0.99651 0.84278 0.0
H1712 H 0.52866 0.9979 0.81797 0.0
H1713 H 0.4463 0.02769 0.86928 0.0
H1714 H 0.43091 0.01253 0.86201 0.0
H1715 H 0.44734 0.01566 0.85748 0.0
C1716 C 0.98857 0.53243 0.73614 0.0
C1717 C 0.98399 0.53914 0.74714 0.0
C1718 C 0.99258 0.53591 0.76882 0.0
C1719 C 0.98044 0.5257 0.77483 0.0
C1720 C 0.98055 0.51717 0.78494 0.0
C1721 C 0.99303 0.51889 0.78907 0.0
C1722 C 0.00532 0.52955 0.78342 0.0
C1723 C 0.00493 0.53807 0.7735 0.0
C1724 C 0.9673 0.50614 0.79103 0.0
C1725 C 0.01883 0.53165 0.78751 0.0
C1726 C 0.99102 0.4325 0.74574 0.0
C1727 C 0.99283 0.44514 0.75316 0.0
C1728 C 0.98874 0.45303 0.77527 0.0
C1729 C 0.00132 0.46539 0.77782 0.0
C1730 C 0.00234 0.47618 0.78636 0.0
C1731 C 0.99048 0.47462 0.79236 0.0
C1732 C 0.97785 0.46198 0.79023 0.0
C1733 C 0.97718 0.45122 0.78185 0.0
C1734 C 0.01606 0.48937 0.78871 0.0
C1735 C 0.96505 0.46002 0.79653 0.0
C1736 C 0.01058 0.46905 0.879 0.0
C1737 C 0.02129 0.47915 0.8711 0.0
C1738 C 0.0201 0.48924 0.86446 0.0
C1739 C 0.00795 0.48922 0.86568 0.0
C1740 C 0.99738 0.47944 0.87407 0.0
C1741 C 0.99888 0.46952 0.88068 0.0
C1742 C 0.03168 0.49967 0.85577 0.0
C1743 C 0.98433 0.47919 0.87564 0.0
C1744 C 0.02945 0.59559 0.86519 0.0
C1745 C 0.02145 0.58325 0.87454 0.0
C1746 C 0.02318 0.56276 0.87147 0.0
C1747 C 0.0322 0.55924 0.8661 0.0
C1748 C 0.0276 0.54567 0.86113 0.0
C1749 C 0.01362 0.53529 0.86185 0.0
C1750 C 0.00453 0.5386 0.868 0.0
C1751 C 0.00941 0.55233 0.87277 0.0
C1752 C 0.03762 0.54248 0.85483 0.0
C1753 C 0.98964 0.52768 0.86925 0.0
C1754 C 0.99311 0.50883 0.79839 0.0
C1755 C 0.99062 0.49633 0.79227 0.0
C1756 C 0.99133 0.48662 0.80007 0.0
C1757 C 0.99428 0.48923 0.8145 0.0
C1758 C 0.99494 0.4796 0.82266 0.0
C1759 C 0.99843 0.48252 0.83673 0.0
C1760 C 0.00161 0.49528 0.84314 0.0
C1761 C 0.00593 0.49867 0.85725 0.0
C1762 C 0.00928 0.51154 0.86322 0.0
C1763 C 0.00849 0.52124 0.85543 0.0
C1764 C 0.00401 0.51796 0.84135 0.0
C1765 C 0.00303 0.52745 0.83322 0.0
C1766 C 0.99915 0.52435 0.81923 0.0
C1767 C 0.99632 0.51177 0.81277 0.0
C1768 C 0.99695 0.50193 0.82084 0.0
C1769 C 0.00071 0.50499 0.83516 0.0
C1770 C 0.01787 0.44764 0.86782 0.0
C1771 C 0.02021 0.45458 0.88243 0.0
O1772 O 0.99276 0.54391 0.75859 0.0
O1773 O 0.02819 0.57625 0.87537 0.0
O1774 O 0.01096 0.45858 0.88493 0.0
O1775 O 0.98751 0.44279 0.76646 0.0
H1776 H 0.97351 0.53117 0.75019 0.0
H1777 H 0.98815 0.52328 0.74044 0.0
H1778 H 0.99916 0.53992 0.73296 0.0
H1779 H 0.98176 0.52883 0.72681 0.0
H1780 H 0.97089 0.52441 0.77177 0.0
H1781 H 0.01425 0.54614 0.76894 0.0
H1782 H 0.96502 0.49571 0.7874 0.0
H1783 H 0.95867 0.50714 0.78794 0.0
H1784 H 0.96813 0.50674 0.80257 0.0
H1785 H 0.02739 0.54005 0.78172 0.0
H1786 H 0.01863 0.52186 0.7855 0.0
H1787 H 0.02075 0.53435 0.79883 0.0
H1788 H 0.98997 0.45137 0.74703 0.0
H1789 H 0.011 0.4373 0.74307 0.0
H1790 H 0.98394 0.43036 0.73672 0.0
H1791 H 0.98326 0.42338 0.75176 0.0
H1792 H 0.01041 0.46669 0.77321 0.0
H1793 H 0.96753 0.44156 0.77995 0.0
H1794 H 0.01808 0.49202 0.80004 0.0
H1795 H 0.0161 0.49809 0.78383 0.0
H1796 H 0.02443 0.48851 0.78425 0.0
H1797 H 0.95608 0.44942 0.79425 0.0
H1798 H 0.96303 0.46775 0.7924 0.0
H1799 H 0.9664 0.46191 0.808 0.0
H1800 H 0.03073 0.46385 0.8833 0.0
H1801 H 0.03054 0.47915 0.86985 0.0
H1802 H 0.99072 0.46179 0.8869 0.0
H1803 H 0.02854 0.49765 0.84462 0.0
H1804 H 0.04093 0.4992 0.85696 0.0
H1805 H 0.03427 0.51035 0.85874 0.0
H1806 H 0.97721 0.47117 0.88284 0.0
H1807 H 0.97924 0.47707 0.86529 0.0
H1808 H 0.98659 0.48952 0.87962 0.0
H1809 H 0.01123 0.5765 0.86956 0.0
H1810 H 0.02423 0.60137 0.8643 0.0
H1811 H 0.0302 0.59181 0.85459 0.0
H1812 H 0.0399 0.6028 0.86944 0.0
H1813 H 0.04285 0.56732 0.86542 0.0
H1814 H 0.00248 0.55486 0.87753 0.0
H1815 H 0.03442 0.53819 0.844 0.0
H1816 H 0.03779 0.53446 0.8609 0.0
H1817 H 0.04808 0.55182 0.85468 0.0
H1818 H 0.98408 0.53164 0.87523 0.0
H1819 H 0.98841 0.51852 0.87444 0.0
H1820 H 0.98495 0.5241 0.85869 0.0
H1821 H 0.98856 0.49434 0.78114 0.0
H1822 H 0.99281 0.46972 0.81823 0.0
H1823 H 0.9988 0.47472 0.84247 0.0
H1824 H 0.01295 0.51422 0.87394 0.0
H1825 H 0.00533 0.53741 0.83755 0.0
H1826 H 0.9986 0.53205 0.81347 0.0
H1827 H 0.02504 0.4441 0.86602 0.0
H1828 H 0.01959 0.45506 0.85969 0.0
H1829 H 0.00729 0.43854 0.86662 0.0
C1830 C 0.53549 0.55049 0.74422 0.0
C1831 C 0.53962 0.56507 0.7498 0.0
C1832 C 0.52942 0.55956 0.77248 0.0
C1833 C 0.51983 0.56344 0.77234 0.0
C1834 C 0.50808 0.55653 0.78038 0.0
C1835 C 0.50581 0.54534 0.78847 0.0
C1836 C 0.51566 0.54162 0.78879 0.0
C1837 C 0.52751 0.54901 0.78099 0.0
C1838 C 0.49798 0.56102 0.78001 0.0
C1839 C 0.5135 0.52955 0.79699 0.0
C1840 C 0.42508 0.49058 0.7296 0.0
C1841 C 0.42978 0.48434 0.74032 0.0
C1842 C 0.43653 0.49418 0.76388 0.0
C1843 C 0.44578 0.49032 0.76708 0.0
C1844 C 0.45595 0.49782 0.77732 0.0
C1845 C 0.45701 0.5096 0.78425 0.0
C1846 C 0.44745 0.51331 0.7812 0.0
C1847 C 0.43711 0.5053 0.77127 0.0
C1848 C 0.46571 0.49332 0.7805 0.0
C1849 C 0.44842 0.52601 0.78802 0.0
C1850 C 0.42503 0.49523 0.87078 0.0
C1851 C 0.43368 0.49026 0.8684 0.0
C1852 C 0.44665 0.49886 0.86285 0.0
C1853 C 0.45095 0.51262 0.8595 0.0
C1854 C 0.44242 0.51776 0.86239 0.0
C1855 C 0.42963 0.50903 0.86819 0.0
C1856 C 0.45566 0.49317 0.86032 0.0
C1857 C 0.44668 0.5324 0.85908 0.0
C1858 C 0.54064 0.6053 0.88065 0.0
C1859 C 0.53589 0.59443 0.89188 0.0
C1860 C 0.52189 0.57189 0.87905 0.0
C1861 C 0.52099 0.55948 0.87503 0.0
C1862 C 0.50974 0.54889 0.86738 0.0
C1863 C 0.49925 0.55093 0.86337 0.0
C1864 C 0.49998 0.56339 0.86754 0.0
C1865 C 0.51119 0.57366 0.87548 0.0
C1866 C 0.50917 0.53561 0.8634 0.0
C1867 C 0.48899 0.56594 0.86349 0.0
C1868 C 0.49273 0.53692 0.79577 0.0
C1869 C 0.48132 0.52744 0.7877 0.0
C1870 C 0.46875 0.5187 0.79376 0.0
C1871 C 0.46753 0.51913 0.80841 0.0
C1872 C 0.45521 0.51009 0.81494 0.0
C1873 C 0.45404 0.51083 0.82933 0.0
C1874 C 0.4652 0.52053 0.83777 0.0
C1875 C 0.46407 0.52144 0.8524 0.0
C1876 C 0.47538 0.53124 0.86046 0.0
C1877 C 0.48781 0.54034 0.85429 0.0
C1878 C 0.4891 0.53963 0.83967 0.0
C1879 C 0.50139 0.54879 0.83308 0.0
C1880 C 0.5026 0.54794 0.81872 0.0
C1881 C 0.49156 0.53798 0.81036 0.0
C1882 C 0.47896 0.5289 0.81672 0.0
C1883 C 0.47777 0.52964 0.8314 0.0
C1884 C 0.39015 0.4708 0.86642 0.0
C1885 C 0.40347 0.47303 0.87206 0.0
O1886 O 0.54044 0.56568 0.76423 0.0
O1887 O 0.53328 0.58185 0.88613 0.0
O1888 O 0.41223 0.48702 0.87556 0.0
O1889 O 0.42708 0.4875 0.75356 0.0
H1890 H 0.53181 0.56724 0.74639 0.0
H1891 H 0.52537 0.54262 0.74822 0.0
H1892 H 0.54302 0.54793 0.74758 0.0
H1893 H 0.53479 0.54981 0.73266 0.0
H1894 H 0.52155 0.57184 0.76593 0.0
H1895 H 0.53507 0.54619 0.78101 0.0
H1896 H 0.48884 0.55313 0.77391 0.0
H1897 H 0.50224 0.57121 0.77514 0.0
H1898 H 0.49469 0.56176 0.79072 0.0
H1899 H 0.52136 0.52701 0.79483 0.0
H1900 H 0.50334 0.52018 0.79449 0.0
H1901 H 0.51384 0.53212 0.8083 0.0
H1902 H 0.44094 0.48922 0.73899 0.0
H1903 H 0.42731 0.48838 0.71888 0.0
H1904 H 0.43054 0.50203 0.73145 0.0
H1905 H 0.41399 0.48621 0.73041 0.0
H1906 H 0.44507 0.48146 0.76152 0.0
H1907 H 0.42981 0.50809 0.76875 0.0
H1908 H 0.46727 0.4936 0.79193 0.0
H1909 H 0.47571 0.50063 0.77588 0.0
H1910 H 0.46207 0.48268 0.77618 0.0
H1911 H 0.4414 0.52851 0.78308 0.0
H1912 H 0.45895 0.53516 0.78746 0.0
H1913 H 0.44583 0.5242 0.79918 0.0
H1914 H 0.4077 0.46964 0.86348 0.0
H1915 H 0.43033 0.47971 0.87091 0.0
H1916 H 0.42295 0.51281 0.87029 0.0
H1917 H 0.45685 0.49219 0.84894 0.0
H1918 H 0.45144 0.48281 0.8648 0.0
H1919 H 0.46592 0.50046 0.86492 0.0
H1920 H 0.43846 0.53447 0.86099 0.0
H1921 H 0.44972 0.53434 0.84801 0.0
H1922 H 0.45563 0.53987 0.86564 0.0
H1923 H 0.52647 0.59308 0.89651 0.0
H1924 H 0.54401 0.61569 0.88552 0.0
H1925 H 0.53225 0.60254 0.8732 0.0
H1926 H 0.54913 0.60596 0.87459 0.0
H1927 H 0.52921 0.55813 0.8779 0.0
H1928 H 0.51154 0.58307 0.87862 0.0
H1929 H 0.5105 0.53508 0.85199 0.0
H1930 H 0.49909 0.52647 0.86594 0.0
H1931 H 0.5172 0.53492 0.86879 0.0
H1932 H 0.49179 0.57676 0.86616 0.0
H1933 H 0.47954 0.55871 0.86902 0.0
H1934 H 0.48676 0.56385 0.85213 0.0
H1935 H 0.48224 0.52689 0.77647 0.0
H1936 H 0.44631 0.50237 0.80898 0.0
H1937 H 0.44425 0.50368 0.83374 0.0
H1938 H 0.47442 0.53194 0.87166 0.0
H1939 H 0.51024 0.55671 0.83895 0.0
H1940 H 0.51231 0.55523 0.81423 0.0
H1941 H 0.38294 0.45964 0.86349 0.0
H1942 H 0.39215 0.47693 0.85699 0.0
H1943 H 0.38537 0.47421 0.87433 0.0
C1944 C 0.61666 0.76536 0.61245 0.0
C1945 C 0.62236 0.76184 0.5996 0.0
C1946 C 0.62743 0.78069 0.58401 0.0
C1947 C 0.61386 0.776 0.58056 0.0
C1948 C 0.61072 0.78381 0.57221 0.0
C1949 C 0.62133 0.79655 0.56718 0.0
C1950 C 0.63499 0.80117 0.57037 0.0
C1951 C 0.63785 0.79314 0.57873 0.0
C1952 C 0.59604 0.77858 0.56895 0.0
C1953 C 0.64654 0.81469 0.56513 0.0
C1954 C 0.60144 0.85429 0.62417 0.0
C1955 C 0.61131 0.86041 0.61209 0.0
C1956 C 0.60624 0.84891 0.58916 0.0
C1957 C 0.61941 0.85313 0.58492 0.0
C1958 C 0.62155 0.84522 0.57487 0.0
C1959 C 0.61028 0.83276 0.56912 0.0
C1960 C 0.59695 0.82879 0.57301 0.0
C1961 C 0.59511 0.83711 0.58282 0.0
C1962 C 0.63588 0.84997 0.57072 0.0
C1963 C 0.58469 0.81547 0.56729 0.0
C1964 C 0.58969 0.84003 0.48165 0.0
C1965 C 0.60364 0.84684 0.48475 0.0
C1966 C 0.60908 0.83968 0.49066 0.0
C1967 C 0.60031 0.82554 0.49386 0.0
C1968 C 0.5863 0.81861 0.49039 0.0
C1969 C 0.58125 0.82591 0.48406 0.0
C1970 C 0.62414 0.84726 0.49369 0.0
C1971 C 0.5766 0.80353 0.49347 0.0
C1972 C 0.60238 0.7372 0.47432 0.0
C1973 C 0.60842 0.74836 0.46334 0.0
C1974 C 0.6161 0.77047 0.47643 0.0
C1975 C 0.62748 0.78341 0.48038 0.0
C1976 C 0.62618 0.79348 0.4879 0.0
C1977 C 0.61312 0.79036 0.49184 0.0
C1978 C 0.60153 0.7773 0.48787 0.0
C1979 C 0.60312 0.76757 0.48005 0.0
C1980 C 0.63875 0.80737 0.49174 0.0
C1981 C 0.58744 0.77354 0.49192 0.0
C1982 C 0.61808 0.80537 0.55921 0.0
C1983 C 0.61605 0.81484 0.56678 0.0
C1984 C 0.61253 0.82324 0.56014 0.0
C1985 C 0.61099 0.82222 0.54547 0.0
C1986 C 0.60736 0.83041 0.53844 0.0
C1987 C 0.60547 0.82903 0.52404 0.0
C1988 C 0.60752 0.81966 0.51606 0.0
C1989 C 0.60557 0.81813 0.50141 0.0
C1990 C 0.60774 0.80874 0.49382 0.0
C1991 C 0.61159 0.80059 0.50047 0.0
C1992 C 0.61338 0.80182 0.51513 0.0
C1993 C 0.61688 0.79352 0.52221 0.0
C1994 C 0.6185 0.79471 0.53663 0.0
C1995 C 0.61662 0.8042 0.54455 0.0
C1996 C 0.61306 0.81266 0.53765 0.0
C1997 C 0.61141 0.81145 0.52292 0.0
C1998 C 0.57522 0.86093 0.48143 0.0
C1999 C 0.58797 0.86036 0.47938 0.0
O2000 O 0.63097 0.77374 0.59249 0.0
O2001 O 0.61817 0.76115 0.46933 0.0
O2002 O 0.58403 0.8467 0.47628 0.0
O2003 O 0.60403 0.85582 0.59961 0.0
H2004 H 0.61381 0.75422 0.59262 0.0
H2005 H 0.61047 0.76964 0.60932 0.0
H2006 H 0.62503 0.77321 0.61946 0.0
H2007 H 0.61004 0.75585 0.61831 0.0
H2008 H 0.60562 0.76636 0.58444 0.0
H2009 H 0.64829 0.79667 0.58137 0.0
H2010 H 0.59347 0.78605 0.5734 0.0
H2011 H 0.58896 0.76821 0.57319 0.0
H2012 H 0.59442 0.77788 0.55749 0.0
H2013 H 0.65663 0.81663 0.56816 0.0
H2014 H 0.6457 0.82343 0.56937 0.0
H2015 H 0.6459 0.81462 0.5536 0.0
H2016 H 0.61823 0.85645 0.61288 0.0
H2017 H 0.60706 0.85794 0.6343 0.0
H2018 H 0.596 0.84276 0.6234 0.0
H2019 H 0.59379 0.85731 0.62391 0.0
H2020 H 0.62801 0.86252 0.58959 0.0
H2021 H 0.58498 0.83405 0.58609 0.0
H2022 H 0.63652 0.84918 0.55922 0.0
H2023 H 0.63884 0.8431 0.57527 0.0
H2024 H 0.64328 0.86084 0.57443 0.0
H2025 H 0.5751 0.81343 0.57207 0.0
H2026 H 0.58582 0.80655 0.56916 0.0
H2027 H 0.58387 0.816 0.55586 0.0
H2028 H 0.59384 0.86408 0.48942 0.0
H2029 H 0.61027 0.8577 0.48247 0.0
H2030 H 0.57054 0.82073 0.48141 0.0
H2031 H 0.62599 0.84912 0.50511 0.0
H2032 H 0.6298 0.85745 0.48868 0.0
H2033 H 0.62825 0.84084 0.49 0.0
H2034 H 0.56581 0.80032 0.49207 0.0
H2035 H 0.57815 0.80149 0.50429 0.0
H2036 H 0.57861 0.79698 0.48629 0.0
H2037 H 0.60003 0.74903 0.45875 0.0
H2038 H 0.5953 0.72681 0.46927 0.0
H2039 H 0.59657 0.73937 0.48209 0.0
H2040 H 0.61048 0.73688 0.48002 0.0
H2041 H 0.63746 0.78562 0.47752 0.0
H2042 H 0.59414 0.7577 0.477 0.0
H2043 H 0.64041 0.80835 0.5032 0.0
H2044 H 0.63741 0.81591 0.48874 0.0
H2045 H 0.64796 0.80872 0.48664 0.0
H2046 H 0.57975 0.76233 0.48985 0.0
H2047 H 0.58453 0.77968 0.48584 0.0
H2048 H 0.58721 0.77614 0.50314 0.0
H2049 H 0.6171 0.81559 0.57805 0.0
H2050 H 0.60577 0.83788 0.54402 0.0
H2051 H 0.60243 0.83544 0.51927 0.0
H2052 H 0.60614 0.80755 0.48261 0.0
H2053 H 0.61838 0.78596 0.51669 0.0
H2054 H 0.62119 0.78806 0.54151 0.0
H2055 H 0.56891 0.85737 0.47172 0.0
H2056 H 0.578 0.8717 0.48436 0.0
H2057 H 0.56907 0.85408 0.48993 0.0
C2058 C 0.13848 0.75413 0.63008 0.0
C2059 C 0.13255 0.75802 0.61822 0.0
C2060 C 0.14315 0.76352 0.59553 0.0
C2061 C 0.14079 0.77392 0.59199 0.0
C2062 C 0.14895 0.78376 0.58224 0.0
C2063 C 0.15976 0.78323 0.57603 0.0
C2064 C 0.1618 0.7724 0.5792 0.0
C2065 C 0.15327 0.76251 0.58875 0.0
C2066 C 0.14625 0.79494 0.57885 0.0
C2067 C 0.1733 0.77156 0.57293 0.0
C2068 C 0.24868 0.88585 0.60723 0.0
C2069 C 0.24051 0.87121 0.60167 0.0
C2070 C 0.21889 0.85546 0.58941 0.0
C2071 C 0.22155 0.84492 0.58641 0.0
C2072 C 0.21205 0.83267 0.57894 0.0
C2073 C 0.19969 0.83096 0.57434 0.0
C2074 C 0.197 0.84154 0.57733 0.0
C2075 C 0.20666 0.85366 0.58485 0.0
C2076 C 0.2152 0.82155 0.57592 0.0
C2077 C 0.18393 0.84005 0.57256 0.0
C2078 C 0.22292 0.84547 0.48549 0.0
C2079 C 0.22274 0.83326 0.48802 0.0
C2080 C 0.21187 0.82233 0.49497 0.0
C2081 C 0.20077 0.82344 0.49915 0.0
C2082 C 0.20059 0.83539 0.49597 0.0
C2083 C 0.21176 0.84632 0.48934 0.0
C2084 C 0.21237 0.80968 0.49804 0.0
C2085 C 0.18875 0.83677 0.49988 0.0
C2086 C 0.11181 0.71599 0.4836 0.0
C2087 C 0.11755 0.73126 0.48071 0.0
C2088 C 0.14057 0.75072 0.48667 0.0
C2089 C 0.15333 0.75341 0.49053 0.0
C2090 C 0.16289 0.76593 0.49752 0.0
C2091 C 0.15966 0.77614 0.50042 0.0
C2092 C 0.14694 0.77371 0.49606 0.0
C2093 C 0.13749 0.76099 0.48923 0.0
C2094 C 0.17636 0.76817 0.50197 0.0
C2095 C 0.14331 0.78451 0.49874 0.0
C2096 C 0.16959 0.79463 0.56717 0.0
C2097 C 0.17961 0.807 0.57392 0.0
C2098 C 0.18953 0.81807 0.56642 0.0
C2099 C 0.18964 0.81679 0.55174 0.0
C2100 C 0.19974 0.82757 0.54392 0.0
C2101 C 0.19987 0.82616 0.52949 0.0
C2102 C 0.18976 0.814 0.52228 0.0
C2103 C 0.18981 0.81249 0.50759 0.0
C2104 C 0.17971 0.8002 0.50078 0.0
C2105 C 0.16954 0.78924 0.50825 0.0
C2106 C 0.16929 0.79058 0.52295 0.0
C2107 C 0.15922 0.77976 0.5308 0.0
C2108 C 0.1592 0.78111 0.54527 0.0
C2109 C 0.16931 0.79326 0.55245 0.0
C2110 C 0.17945 0.80436 0.54473 0.0
C2111 C 0.17945 0.80301 0.52997 0.0
C2112 C 0.2553 0.86077 0.4868 0.0
C2113 C 0.24548 0.85801 0.4747 0.0
O2114 O 0.13599 0.75447 0.60559 0.0
O2115 O 0.1316 0.73815 0.48046 0.0
O2116 O 0.23363 0.85671 0.47963 0.0
O2117 O 0.2278 0.86747 0.59662 0.0
H2118 H 0.13722 0.76948 0.61939 0.0
H2119 H 0.14973 0.76 0.62938 0.0
H2120 H 0.13462 0.74284 0.62946 0.0
H2121 H 0.13578 0.7568 0.64033 0.0
H2122 H 0.13262 0.77439 0.59692 0.0
H2123 H 0.15487 0.75431 0.59145 0.0
H2124 H 0.15438 0.80503 0.58362 0.0
H2125 H 0.13631 0.79269 0.58284 0.0
H2126 H 0.14643 0.79608 0.5674 0.0
H2127 H 0.17408 0.76307 0.57723 0.0
H2128 H 0.18309 0.78156 0.57487 0.0
H2129 H 0.17175 0.76973 0.56148 0.0
H2130 H 0.24017 0.86336 0.60856 0.0
H2131 H 0.25002 0.88509 0.61868 0.0
H2132 H 0.24135 0.88939 0.60871 0.0
H2133 H 0.26507 0.89531 0.59365 0.0
H2134 H 0.231 0.84616 0.58985 0.0
H2135 H 0.2047 0.86184 0.58719 0.0
H2136 H 0.20718 0.81163 0.58033 0.0
H2137 H 0.22521 0.82439 0.58032 0.0
H2138 H 0.21518 0.81971 0.56448 0.0
H2139 H 0.18343 0.84929 0.57562 0.0
H2140 H 0.17516 0.83074 0.57711 0.0
H2141 H 0.1829 0.83847 0.56105 0.0
H2142 H 0.24305 0.84826 0.46893 0.0
H2143 H 0.2311 0.83221 0.48485 0.0
H2144 H 0.21189 0.85568 0.48722 0.0
H2145 H 0.21032 0.80728 0.50921 0.0
H2146 H 0.22235 0.81106 0.49548 0.0
H2147 H 0.20436 0.8006 0.49179 0.0
H2148 H 0.18922 0.84566 0.49486 0.0
H2149 H 0.18876 0.8384 0.51134 0.0
H2150 H 0.17901 0.82708 0.49684 0.0
H2151 H 0.11427 0.73552 0.48943 0.0
H2152 H 0.10055 0.71022 0.48411 0.0
H2153 H 0.11583 0.71522 0.49376 0.0
H2154 H 0.11476 0.71104 0.47531 0.0
H2155 H 0.15566 0.74547 0.48834 0.0
H2156 H 0.12779 0.75917 0.48583 0.0
H2157 H 0.17797 0.77061 0.51336 0.0
H2158 H 0.18468 0.77719 0.49663 0.0
H2159 H 0.17705 0.75893 0.49949 0.0
H2160 H 0.13329 0.78133 0.4941 0.0
H2161 H 0.15121 0.79452 0.49438 0.0
H2162 H 0.14306 0.78635 0.51014 0.0
H2163 H 0.17973 0.80801 0.58521 0.0
H2164 H 0.20773 0.8372 0.54887 0.0
H2165 H 0.208 0.83476 0.52407 0.0
H2166 H 0.17991 0.79904 0.48953 0.0
H2167 H 0.15125 0.77012 0.52586 0.0
H2168 H 0.1512 0.77247 0.55078 0.0
H2169 H 0.25726 0.86988 0.49347 0.0
H2170 H 0.26511 0.86274 0.4827 0.0
H2171 H 0.25106 0.85168 0.49348 0.0
C2172 C 0.15933 0.39334 0.61589 0.0
C2173 C 0.14971 0.39037 0.60355 0.0
C2174 C 0.16139 0.3853 0.58498 0.0
C2175 C 0.17214 0.39908 0.58325 0.0
C2176 C 0.18325 0.40198 0.57492 0.0
C2177 C 0.18367 0.3909 0.56827 0.0
C2178 C 0.17272 0.37706 0.56969 0.0
C2179 C 0.16166 0.37447 0.57794 0.0
C2180 C 0.19468 0.41688 0.57344 0.0
C2181 C 0.17286 0.36498 0.56281 0.0
C2182 C 0.26399 0.41431 0.62462 0.0
C2183 C 0.25725 0.40253 0.61348 0.0
C2184 C 0.25034 0.4053 0.59061 0.0
C2185 C 0.23942 0.39168 0.58774 0.0
C2186 C 0.22933 0.38897 0.57791 0.0
C2187 C 0.23008 0.40017 0.57104 0.0
C2188 C 0.24127 0.41388 0.57375 0.0
C2189 C 0.25143 0.4162 0.58329 0.0
C2190 C 0.21774 0.37419 0.57507 0.0
C2191 C 0.24232 0.42617 0.56696 0.0
C2192 C 0.25914 0.40808 0.48414 0.0
C2193 C 0.24805 0.3944 0.48536 0.0
C2194 C 0.23582 0.39181 0.49114 0.0
C2195 C 0.23465 0.40313 0.49567 0.0
C2196 C 0.24557 0.4169 0.49376 0.0
C2197 C 0.25765 0.41918 0.48791 0.0
C2198 C 0.22424 0.37701 0.49271 0.0
C2199 C 0.24459 0.4292 0.49827 0.0
C2200 C 0.15077 0.41007 0.48093 0.0
C2201 C 0.15453 0.40451 0.46801 0.0
C2202 C 0.1676 0.39543 0.47821 0.0
C2203 C 0.16717 0.3833 0.48131 0.0
C2204 C 0.17783 0.38381 0.48867 0.0
C2205 C 0.18917 0.39685 0.49315 0.0
C2206 C 0.18986 0.40921 0.48977 0.0
C2207 C 0.17912 0.4084 0.48226 0.0
C2208 C 0.17686 0.37043 0.4919 0.0
C2209 C 0.20185 0.42329 0.49433 0.0
C2210 C 0.19595 0.39371 0.56057 0.0
C2211 C 0.20688 0.39539 0.56833 0.0
C2212 C 0.21868 0.39769 0.56189 0.0
C2213 C 0.21956 0.39808 0.5472 0.0
C2214 C 0.23103 0.39981 0.54031 0.0
C2215 C 0.23196 0.40058 0.52589 0.0
C2216 C 0.22141 0.39959 0.51779 0.0
C2217 C 0.22236 0.4006 0.50314 0.0
C2218 C 0.21168 0.39954 0.4954 0.0
C2219 C 0.20001 0.39755 0.50191 0.0
C2220 C 0.19888 0.39653 0.51656 0.0
C2221 C 0.18731 0.3946 0.52346 0.0
C2222 C 0.18629 0.39361 0.53786 0.0
C2223 C 0.19685 0.39464 0.54593 0.0
C2224 C 0.20867 0.39674 0.53922 0.0
C2225 C 0.20963 0.39757 0.5245 0.0
C2226 C 0.29092 0.41201 0.4884 0.0
C2227 C 0.27704 0.40302 0.48113 0.0
O2228 O 0.15071 0.38192 0.59345 0.0
O2229 O 0.15664 0.39407 0.47152 0.0
O2230 O 0.27139 0.41098 0.4794 0.0
O2231 O 0.25989 0.40825 0.60048 0.0
H2232 H 0.15232 0.40033 0.59898 0.0
H2233 H 0.17005 0.39906 0.61252 0.0
H2234 H 0.157 0.38347 0.62042 0.0
H2235 H 0.15829 0.39987 0.62409 0.0
H2236 H 0.17202 0.40763 0.58843 0.0
H2237 H 0.15329 0.36389 0.57925 0.0
H2238 H 0.20398 0.41862 0.57868 0.0
H2239 H 0.19223 0.42438 0.57808 0.0
H2240 H 0.19703 0.41905 0.56226 0.0
H2241 H 0.1637 0.35481 0.56523 0.0
H2242 H 0.18203 0.36511 0.56628 0.0
H2243 H 0.17342 0.36598 0.55134 0.0
H2244 H 0.24612 0.39666 0.61548 0.0
H2245 H 0.26183 0.41006 0.6352 0.0
H2246 H 0.25994 0.42118 0.62384 0.0
H2247 H 0.27517 0.42064 0.62322 0.0
H2248 H 0.2388 0.3832 0.59318 0.0
H2249 H 0.26 0.42665 0.58553 0.0
H2250 H 0.20839 0.37271 0.57994 0.0
H2251 H 0.21983 0.36655 0.57936 0.0
H2252 H 0.21572 0.37197 0.56369 0.0
H2253 H 0.25062 0.43624 0.57164 0.0
H2254 H 0.2326 0.4258 0.56791 0.0
H2255 H 0.24435 0.42581 0.55571 0.0
H2256 H 0.2708 0.39435 0.48816 0.0
H2257 H 0.2489 0.38574 0.48184 0.0
H2258 H 0.26618 0.42969 0.48667 0.0
H2259 H 0.22213 0.37497 0.50394 0.0
H2260 H 0.22647 0.36936 0.48802 0.0
H2261 H 0.21489 0.37539 0.48772 0.0
H2262 H 0.25384 0.43925 0.49571 0.0
H2263 H 0.24305 0.42916 0.50969 0.0
H2264 H 0.23566 0.42839 0.49313 0.0
H2265 H 0.16393 0.41317 0.46344 0.0
H2266 H 0.14871 0.41814 0.47798 0.0
H2267 H 0.1416 0.40154 0.48591 0.0
H2268 H 0.1592 0.41486 0.48873 0.0
H2269 H 0.15832 0.37335 0.47806 0.0
H2270 H 0.17977 0.41793 0.47979 0.0
H2271 H 0.17603 0.36912 0.50332 0.0
H2272 H 0.18622 0.37084 0.48855 0.0
H2273 H 0.16793 0.36122 0.4867 0.0
H2274 H 0.20072 0.43193 0.4912 0.0
H2275 H 0.21126 0.4247 0.48968 0.0
H2276 H 0.20314 0.42392 0.50583 0.0
H2277 H 0.20621 0.39498 0.57959 0.0
H2278 H 0.23945 0.40062 0.54601 0.0
H2279 H 0.24109 0.40202 0.52118 0.0
H2280 H 0.21251 0.4004 0.48418 0.0
H2281 H 0.17888 0.39381 0.51781 0.0
H2282 H 0.17715 0.39211 0.5426 0.0
H2283 H 0.29575 0.4059 0.48969 0.0
H2284 H 0.28964 0.4156 0.49889 0.0
H2285 H 0.29776 0.42131 0.48235 0.0
H2286 H 0.9922 0.35588 0.04477 0.0
H2287 H 0.99076 0.36983 0.064 0.0
H2288 H 0.01431 0.40682 0.04063 0.0
H2289 H 0.01602 0.39305 0.02159 0.0
H2290 H 0.02471 0.4105 0.06587 0.0
H2291 H 0.97987 0.39213 0.04653 0.0
H2292 H 0.95694 0.37363 0.03836 0.0
H2293 H 0.94799 0.35673 0.07903 0.0
H2294 H 0.97094 0.37503 0.08739 0.0
H2295 H 0.02149 0.45913 0.10963 0.0
H2296 H 0.01773 0.44363 0.08953 0.0
H2297 H 0.99424 0.40806 0.11477 0.0
H2298 H 0.99752 0.42358 0.13485 0.0
H2299 H 0.98318 0.40291 0.08912 0.0
H2300 H 0.0277 0.42067 0.10843 0.0
H2301 H 0.05061 0.43887 0.11694 0.0
H2302 H 0.06023 0.45633 0.07653 0.0
H2303 H 0.0373 0.43835 0.06784 0.0
C2304 C 0.99689 0.36695 0.04367 0.0
C2305 C 0.00433 0.37339 0.03174 0.0
C2306 C 0.99603 0.37491 0.05465 0.0
C2307 C 0.00241 0.38938 0.05375 0.0
C2308 C 0.00937 0.39569 0.04159 0.0
C2309 C 0.01033 0.3878 0.03071 0.0
C2310 C 0.00283 0.39817 0.06579 0.0
C2311 C 0.0156 0.40896 0.0708 0.0
C2312 C 0.99098 0.39585 0.07256 0.0
C2313 C 0.97717 0.38487 0.06754 0.0
C2314 C 0.97305 0.3844 0.0537 0.0
C2315 C 0.96004 0.37397 0.04904 0.0
C2316 C 0.95103 0.36399 0.05816 0.0
C2317 C 0.95499 0.36445 0.07197 0.0
C2318 C 0.96799 0.37486 0.07668 0.0
C2319 C 0.01526 0.44801 0.11084 0.0
C2320 C 0.00961 0.44255 0.12378 0.0
C2321 C 0.01321 0.43916 0.09936 0.0
C2322 C 0.00586 0.42469 0.1007 0.0
C2323 C 0.99992 0.41919 0.1135 0.0
C2324 C 0.00181 0.42804 0.12495 0.0
C2325 C 0.00505 0.41539 0.08896 0.0
C2326 C 0.99226 0.40446 0.08411 0.0
C2327 C 0.01689 0.41749 0.08235 0.0
C2328 C 0.03074 0.42823 0.08752 0.0
C2329 C 0.03467 0.42844 0.10139 0.0
C2330 C 0.04766 0.43871 0.10624 0.0
C2331 C 0.05686 0.44877 0.09729 0.0
C2332 C 0.05309 0.44855 0.08346 0.0
C2333 C 0.0401 0.43831 0.07856 0.0
H2334 H 0.06691 0.45671 0.10107 0.0
H2335 H 0.94096 0.35592 0.05454 0.0
H2336 H 0.65974 0.63948 0.0691 0.0
H2337 H 0.64565 0.62029 0.08425 0.0
H2338 H 0.62524 0.59324 0.0482 0.0
H2339 H 0.63911 0.61241 0.03299 0.0
H2340 H 0.60747 0.59181 0.06684 0.0
H2341 H 0.64788 0.58993 0.06822 0.0
H2342 H 0.67234 0.59954 0.07187 0.0
H2343 H 0.66949 0.61042 0.1145 0.0
H2344 H 0.64505 0.60104 0.11106 0.0
H2345 H 0.56727 0.53106 0.10344 0.0
H2346 H 0.58416 0.5476 0.08766 0.0
H2347 H 0.60775 0.57437 0.12279 0.0
H2348 H 0.59127 0.55737 0.13868 0.0
H2349 H 0.62428 0.57542 0.10412 0.0
H2350 H 0.58504 0.57923 0.10305 0.0
H2351 H 0.56072 0.57069 0.10008 0.0
H2352 H 0.56157 0.55766 0.05773 0.0
H2353 H 0.58585 0.56596 0.06051 0.0
C2354 C 0.65238 0.62941 0.06438 0.0
C2355 C 0.65053 0.62749 0.04983 0.0
C2356 C 0.64436 0.61843 0.07307 0.0
C2357 C 0.63445 0.6053 0.06736 0.0
C2358 C 0.63282 0.60328 0.05283 0.0
C2359 C 0.64079 0.61425 0.04415 0.0
C2360 C 0.62516 0.59391 0.07651 0.0
C2361 C 0.61114 0.58805 0.07484 0.0
C2362 C 0.62997 0.58934 0.08724 0.0
C2363 C 0.64465 0.59488 0.08935 0.0
C2364 C 0.65249 0.59446 0.07835 0.0
C2365 C 0.66635 0.59985 0.08038 0.0
C2366 C 0.67247 0.60561 0.0934 0.0
C2367 C 0.66474 0.60596 0.10442 0.0
C2368 C 0.65088 0.6006 0.10244 0.0
C2369 C 0.5762 0.5403 0.10784 0.0
C2370 C 0.57802 0.54284 0.12236 0.0
C2371 C 0.58579 0.54985 0.09878 0.0
C2372 C 0.59711 0.5624 0.10401 0.0
C2373 C 0.59912 0.56478 0.11849 0.0
C2374 C 0.58969 0.55509 0.12756 0.0
C2375 C 0.60656 0.57328 0.09443 0.0
C2376 C 0.6206 0.57909 0.09605 0.0
C2377 C 0.6018 0.57798 0.08375 0.0
C2378 C 0.58722 0.57309 0.08203 0.0
C2379 C 0.58001 0.57447 0.09313 0.0
C2380 C 0.56624 0.56968 0.09148 0.0
C2381 C 0.5596 0.56361 0.07874 0.0
C2382 C 0.56672 0.56235 0.0676 0.0
C2383 C 0.58049 0.5671 0.06921 0.0
H2384 H 0.54893 0.5599 0.07748 0.0
H2385 H 0.6832 0.60978 0.09495 0.0
H2386 H 0.37639 0.99606 0.03115 0.0
H2387 H 0.39087 0.99693 0.04986 0.0
H2388 H 0.39176 0.03231 0.06917 0.0
H2389 H 0.37746 0.03175 0.05004 0.0
H2390 H 0.4165 0.03392 0.07186 0.0
H2391 H 0.36933 0.00066 0.07999 0.0
H2392 H 0.34646 0.98102 0.07321 0.0
H2393 H 0.36209 0.95445 0.06717 0.0
H2394 H 0.38511 0.97401 0.07365 0.0
H2395 H 0.43506 0.02096 0.1383 0.0
H2396 H 0.42404 0.0255 0.11941 0.0
H2397 H 0.41877 0.98982 0.09583 0.0
H2398 H 0.42964 0.98518 0.11473 0.0
H2399 H 0.39572 0.98981 0.09671 0.0
H2400 H 0.44269 0.02269 0.08704 0.0
H2401 H 0.46599 0.04221 0.09255 0.0
H2402 H 0.45114 0.06915 0.10108 0.0
H2403 H 0.4277 0.04972 0.09581 0.0
C2404 C 0.37981 0.00415 0.03927 0.0
C2405 C 0.37564 0.0137 0.03929 0.0
C2406 C 0.38808 0.00464 0.04996 0.0
C2407 C 0.39209 0.01445 0.06108 0.0
C2408 C 0.38867 0.02459 0.06072 0.0
C2409 C 0.38052 0.02425 0.04983 0.0
C2410 C 0.39889 0.01328 0.07346 0.0
C2411 C 0.41189 0.02438 0.07747 0.0
C2412 C 0.39291 0.00074 0.08062 0.0
C2413 C 0.37897 0.98883 0.07722 0.0
C2414 C 0.3679 0.99064 0.07717 0.0
C2415 C 0.3549 0.97952 0.07337 0.0
C2416 C 0.35283 0.9665 0.06973 0.0
C2417 C 0.36372 0.96455 0.06998 0.0
C2418 C 0.37674 0.97564 0.07372 0.0
C2419 C 0.43167 0.01419 0.12901 0.0
C2420 C 0.43334 0.00282 0.12789 0.0
C2421 C 0.42542 0.01681 0.11823 0.0
C2422 C 0.42071 0.00807 0.10617 0.0
C2423 C 0.42238 0.99672 0.10503 0.0
C2424 C 0.42862 0.99411 0.11579 0.0
C2425 C 0.41349 0.01033 0.09494 0.0
C2426 C 0.40032 0.99942 0.0912 0.0
C2427 C 0.41935 0.02301 0.08805 0.0
C2428 C 0.43343 0.03471 0.09119 0.0
C2429 C 0.44438 0.03274 0.09021 0.0
C2430 C 0.45761 0.0438 0.09327 0.0
C2431 C 0.46004 0.0569 0.0972 0.0
C2432 C 0.44924 0.05899 0.09805 0.0
C2433 C 0.43598 0.04796 0.09502 0.0
H2434 H 0.47029 0.06545 0.09956 0.0
H2435 H 0.34279 0.95791 0.0667 0.0
H2436 H 0.36266 0.01442 0.96782 0.0
H2437 H 0.37589 0.01393 0.94819 0.0
H2438 H 0.37355 0.97771 0.96396 0.0
H2439 H 0.36021 0.97807 0.98365 0.0
H2440 H 0.39989 0.99881 0.95769 0.0
H2441 H 0.35621 0.97358 0.93569 0.0
H2442 H 0.33373 0.96881 0.92858 0.0
H2443 H 0.35273 0.00596 0.90537 0.0
H2444 H 0.37535 0.01108 0.91251 0.0
H2445 H 0.42928 0.98758 0.8968 0.0
H2446 H 0.41343 0.98417 0.91546 0.0
H2447 H 0.41475 0.02121 0.90425 0.0
H2448 H 0.43075 0.02492 0.88589 0.0
H2449 H 0.38796 0.99766 0.90794 0.0
H2450 H 0.43148 0.02356 0.93132 0.0
H2451 H 0.45397 0.02845 0.93857 0.0
H2452 H 0.43506 0.98982 0.95929 0.0
H2453 H 0.41244 0.98459 0.95197 0.0
C2454 C 0.36482 0.00625 0.96704 0.0
C2455 C 0.36041 0.99629 0.97729 0.0
C2456 C 0.37234 0.00596 0.9558 0.0
C2457 C 0.37565 0.99576 0.95463 0.0
C2458 C 0.37107 0.98565 0.9647 0.0
C2459 C 0.3634 0.98583 0.97588 0.0
C2460 C 0.38451 0.99619 0.94326 0.0
C2461 C 0.39717 0.99828 0.9468 0.0
C2462 C 0.38106 0.99581 0.92909 0.0
C2463 C 0.36748 0.99278 0.92475 0.0
C2464 C 0.3556 0.98081 0.92917 0.0
C2465 C 0.34283 0.97802 0.92512 0.0
C2466 C 0.3418 0.98709 0.91656 0.0
C2467 C 0.35354 0.99895 0.91201 0.0
C2468 C 0.36634 0.00179 0.91605 0.0
C2469 C 0.42612 0.99495 0.89828 0.0
C2470 C 0.43101 0.00626 0.88955 0.0
C2471 C 0.41712 0.99301 0.90894 0.0
C2472 C 0.41286 0.00238 0.91111 0.0
C2473 C 0.41781 0.01378 0.90259 0.0
C2474 C 0.42697 0.01585 0.89205 0.0
C2475 C 0.40335 0.00039 0.9224 0.0
C2476 C 0.39059 0.99803 0.91883 0.0
C2477 C 0.4067 0.00051 0.93654 0.0
C2478 C 0.42028 0.0036 0.94094 0.0
C2479 C 0.43212 0.01603 0.93729 0.0
C2480 C 0.44489 0.01888 0.94144 0.0
C2481 C 0.44595 0.00943 0.94934 0.0
C2482 C 0.43423 0.99712 0.95314 0.0
C2483 C 0.42143 0.99421 0.949 0.0
H2484 H 0.45584 0.01165 0.95256 0.0
H2485 H 0.3319 0.98492 0.91343 0.0
H2486 H 0.02592 0.37456 0.97163 0.0
H2487 H 0.02984 0.3911 0.9538 0.0
H2488 H 0.98666 0.37347 0.95004 0.0
H2489 H 0.98265 0.35684 0.96763 0.0
H2490 H 0.99826 0.3788 0.9249 0.0
H2491 H 0.00656 0.40306 0.96943 0.0
H2492 H 0.01742 0.41168 0.99264 0.0
H2493 H 0.05656 0.43511 0.97381 0.0
H2494 H 0.04594 0.42644 0.95048 0.0
H2495 H 0.99662 0.43304 0.89316 0.0
H2496 H 0.99418 0.41596 0.9096 0.0
H2497 H 0.03775 0.43567 0.91157 0.0
H2498 H 0.04023 0.45293 0.89532 0.0
H2499 H 0.02696 0.42929 0.93712 0.0
H2500 H 0.0181 0.40572 0.89226 0.0
H2501 H 0.00682 0.39702 0.86924 0.0
H2502 H 0.96826 0.37229 0.88884 0.0
H2503 H 0.97928 0.38101 0.91199 0.0
C2504 C 0.01726 0.37413 0.96691 0.0
C2505 C 0.00398 0.36446 0.97111 0.0
C2506 C 0.01952 0.38362 0.95677 0.0
C2507 C 0.00855 0.38362 0.95074 0.0
C2508 C 0.99527 0.37366 0.95458 0.0
C2509 C 0.99301 0.3642 0.96468 0.0
C2510 C 0.01082 0.39426 0.94076 0.0
C2511 C 0.00444 0.38984 0.9276 0.0
C2512 C 0.01909 0.40866 0.94422 0.0
C2513 C 0.02547 0.41398 0.95822 0.0
C2514 C 0.01749 0.40996 0.97025 0.0
C2515 C 0.0236 0.41487 0.98342 0.0
C2516 C 0.03767 0.42391 0.9847 0.0
C2517 C 0.04566 0.42809 0.97281 0.0
C2518 C 0.0396 0.42318 0.9596 0.0
C2519 C 0.00567 0.43382 0.89726 0.0
C2520 C 0.01863 0.44447 0.89319 0.0
C2521 C 0.00427 0.424 0.90654 0.0
C2522 C 0.01579 0.42448 0.91171 0.0
C2523 C 0.02874 0.43514 0.90773 0.0
C2524 C 0.03014 0.44499 0.89848 0.0
C2525 C 0.01433 0.41384 0.92127 0.0
C2526 C 0.02086 0.41826 0.93436 0.0
C2527 C 0.00615 0.39944 0.91777 0.0
C2528 C 0.99951 0.39412 0.90386 0.0
C2529 C 0.0072 0.39851 0.89166 0.0
C2530 C 0.00086 0.39356 0.87859 0.0
C2531 C 0.98683 0.38413 0.87758 0.0
C2532 C 0.97913 0.37961 0.88964 0.0
C2533 C 0.98542 0.38454 0.90274 0.0
H2534 H 0.98194 0.38031 0.86745 0.0
H2535 H 0.04238 0.4277 0.99491 0.0
H2536 H 0.64015 0.6466 0.9749 0.0
H2537 H 0.62318 0.63864 0.95621 0.0
H2538 H 0.59115 0.61957 0.9862 0.0
H2539 H 0.60807 0.62724 0.00494 0.0
H2540 H 0.58551 0.6024 0.96445 0.0
H2541 H 0.5995 0.65007 0.97112 0.0
H2542 H 0.61562 0.67542 0.97341 0.0
H2543 H 0.62934 0.67538 0.93181 0.0
H2544 H 0.61342 0.64998 0.92933 0.0
H2545 H 0.53241 0.59543 0.92011 0.0
H2546 H 0.54946 0.60322 0.93882 0.0
H2547 H 0.5802 0.61185 0.90848 0.0
H2548 H 0.56315 0.60354 0.88974 0.0
H2549 H 0.5863 0.63438 0.93019 0.0
H2550 H 0.57178 0.58609 0.92415 0.0
H2551 H 0.55488 0.5609 0.92232 0.0
H2552 H 0.54122 0.56254 0.96357 0.0
H2553 H 0.55791 0.58781 0.96556 0.0
C2554 C 0.6295 0.64078 0.97754 0.0
C2555 C 0.62546 0.63757 0.99142 0.0
C2556 C 0.6198 0.63627 0.96684 0.0
C2557 C 0.60588 0.62863 0.96981 0.0
C2558 C 0.60183 0.62545 0.98366 0.0
C2559 C 0.61152 0.62989 0.99437 0.0
C2560 C 0.59555 0.62369 0.95843 0.0
C2561 C 0.58559 0.60944 0.95709 0.0
C2562 C 0.59577 0.63282 0.94866 0.0
C2563 C 0.60536 0.6481 0.9501 0.0
C2564 C 0.60603 0.65545 0.9625 0.0
C2565 C 0.61512 0.66983 0.96382 0.0
C2566 C 0.62353 0.677 0.95278 0.0
C2567 C 0.62284 0.66981 0.94036 0.0
C2568 C 0.61377 0.65542 0.93899 0.0
C2569 C 0.54281 0.599 0.91741 0.0
C2570 C 0.54649 0.59924 0.9034 0.0
C2571 C 0.55251 0.60342 0.92811 0.0
C2572 C 0.56607 0.60822 0.92497 0.0
C2573 C 0.56979 0.60832 0.91105 0.0
C2574 C 0.56004 0.60363 0.90037 0.0
C2575 C 0.57638 0.61317 0.93627 0.0
C2576 C 0.58628 0.6274 0.93759 0.0
C2577 C 0.57602 0.60406 0.9461 0.0
C2578 C 0.56598 0.58887 0.94494 0.0
C2579 C 0.56507 0.58111 0.93277 0.0
C2580 C 0.55555 0.56681 0.93172 0.0
C2581 C 0.54695 0.56013 0.9428 0.0
C2582 C 0.54787 0.56774 0.95498 0.0
C2583 C 0.55736 0.58205 0.95608 0.0
H2584 H 0.53959 0.54905 0.94197 0.0
H2585 H 0.63056 0.68813 0.95382 0.0
H2586 H 0.99342 0.63981 0.97362 0.0
H2587 H 0.99677 0.62745 0.95423 0.0
H2588 H 0.03209 0.63285 0.9751 0.0
H2589 H 0.02867 0.64506 0.99479 0.0
H2590 H 0.03479 0.63935 0.94514 0.0
H2591 H 0.00711 0.60322 0.9763 0.0
H2592 H 0.98772 0.59 0.99177 0.0
H2593 H 0.95997 0.57938 0.95743 0.0
H2594 H 0.97922 0.59275 0.94179 0.0
H2595 H 0.04021 0.59432 0.89617 0.0
H2596 H 0.03874 0.60454 0.9185 0.0
H2597 H 0.99865 0.59476 0.90709 0.0
H2598 H 0.99997 0.58425 0.88488 0.0
H2599 H 0.99966 0.58985 0.93398 0.0
H2600 H 0.02649 0.62713 0.90335 0.0
H2601 H 0.04538 0.64095 0.8875 0.0
H2602 H 0.0742 0.65001 0.92031 0.0
H2603 H 0.05546 0.63606 0.93631 0.0
C2604 C 0.00195 0.63845 0.97408 0.0
C2605 C 0.01078 0.64339 0.98574 0.0
C2606 C 0.00381 0.63134 0.96302 0.0
C2607 C 0.01461 0.62918 0.96332 0.0
C2608 C 0.02367 0.63441 0.97474 0.0
C2609 C 0.02169 0.64134 0.98596 0.0
C2610 C 0.01623 0.62133 0.95167 0.0
C2611 C 0.02729 0.62845 0.94282 0.0
C2612 C 0.00622 0.60722 0.94855 0.0
C2613 C 0.99461 0.5991 0.9579 0.0
C2614 C 0.99688 0.59818 0.97207 0.0
C2615 C 0.98591 0.59063 0.98087 0.0
C2616 C 0.97262 0.58388 0.97559 0.0
C2617 C 0.97027 0.58463 0.9615 0.0
C2618 C 0.98121 0.59218 0.95266 0.0
C2619 C 0.03099 0.59412 0.89856 0.0
C2620 C 0.02011 0.58832 0.88889 0.0
C2621 C 0.0302 0.60005 0.91126 0.0
C2622 C 0.01864 0.60054 0.9144 0.0
C2623 C 0.00765 0.59446 0.9049 0.0
C2624 C 0.00841 0.58847 0.89223 0.0
C2625 C 0.01818 0.60789 0.92728 0.0
C2626 C 0.0073 0.60069 0.93636 0.0
C2627 C 0.0283 0.62197 0.93055 0.0
C2628 C 0.03958 0.63042 0.92097 0.0
C2629 C 0.03686 0.63198 0.90715 0.0
C2630 C 0.04754 0.63985 0.89814 0.0
C2631 C 0.06098 0.64632 0.90288 0.0
C2632 C 0.06378 0.64497 0.91665 0.0
C2633 C 0.05313 0.63708 0.92569 0.0
H2634 H 0.06924 0.65242 0.89589 0.0
H2635 H 0.96414 0.57804 0.98242 0.0
H2636 H 0.35884 0.39765 0.98159 0.0
H2637 H 0.3681 0.41638 0.96513 0.0
H2638 H 0.3762 0.39174 0.9362 0.0
H2639 H 0.36733 0.3732 0.95269 0.0
H2640 H 0.39704 0.41746 0.93742 0.0
H2641 H 0.34847 0.39556 0.93232 0.0
H2642 H 0.32525 0.38707 0.94046 0.0
H2643 H 0.33759 0.42841 0.95498 0.0
H2644 H 0.36093 0.43711 0.94707 0.0
H2645 H 0.40224 0.44836 0.87324 0.0
H2646 H 0.39582 0.43312 0.89288 0.0
H2647 H 0.39167 0.46256 0.91865 0.0
H2648 H 0.39795 0.47779 0.89891 0.0
H2649 H 0.37005 0.43647 0.92081 0.0
H2650 H 0.41832 0.45859 0.92364 0.0
H2651 H 0.44122 0.46679 0.91475 0.0
H2652 H 0.42926 0.42474 0.90391 0.0
H2653 H 0.40622 0.4163 0.91254 0.0
C2654 C 0.36258 0.39622 0.97171 0.0
C2655 C 0.36232 0.38392 0.96844 0.0
C2656 C 0.36783 0.40693 0.96229 0.0
C2657 C 0.37273 0.40543 0.94935 0.0
C2658 C 0.37252 0.39317 0.94612 0.0
C2659 C 0.36739 0.38254 0.95555 0.0
C2660 C 0.3781 0.41656 0.9391 0.0
C2661 C 0.39109 0.42153 0.9337 0.0
C2662 C 0.3705 0.42217 0.93452 0.0
C2663 C 0.35647 0.41695 0.93925 0.0
C2664 C 0.34625 0.40282 0.93735 0.0
C2665 C 0.33307 0.39797 0.9419 0.0
C2666 C 0.32996 0.40719 0.94827 0.0
C2667 C 0.34002 0.42128 0.95007 0.0
C2668 C 0.35322 0.42617 0.94554 0.0
C2669 C 0.40017 0.45167 0.88316 0.0
C2670 C 0.4008 0.46435 0.88462 0.0
C2671 C 0.39652 0.44298 0.89438 0.0
C2672 C 0.39343 0.44678 0.90729 0.0
C2673 C 0.39409 0.45946 0.9088 0.0
C2674 C 0.39775 0.46818 0.89757 0.0
C2675 C 0.38888 0.43717 0.91897 0.0
C2676 C 0.37606 0.43251 0.92464 0.0
C2677 C 0.3966 0.43179 0.92374 0.0
C2678 C 0.4105 0.43682 0.91865 0.0
C2679 C 0.42054 0.4511 0.91928 0.0
C2680 C 0.43356 0.45579 0.91429 0.0
C2681 C 0.43669 0.44629 0.90875 0.0
C2682 C 0.42682 0.43208 0.9082 0.0
C2683 C 0.41378 0.42734 0.91315 0.0
H2684 H 0.44677 0.44994 0.90489 0.0
H2685 H 0.31975 0.40342 0.95179 0.0
H2686 H 0.64534 0.98687 0.96123 0.0
H2687 H 0.63043 0.98553 0.94258 0.0
H2688 H 0.59786 0.97259 0.97172 0.0
H2689 H 0.61272 0.97397 0.9905 0.0
H2690 H 0.58968 0.95818 0.94488 0.0
H2691 H 0.61561 0.00499 0.96533 0.0
H2692 H 0.63698 0.02639 0.97289 0.0
H2693 H 0.65128 0.03196 0.93088 0.0
H2694 H 0.63008 0.01043 0.92311 0.0
H2695 H 0.54697 0.97329 0.90806 0.0
H2696 H 0.56119 0.97184 0.92563 0.0
H2697 H 0.59603 0.99376 0.89929 0.0
H2698 H 0.58194 0.99588 0.88199 0.0
H2699 H 0.60344 0.0032 0.92444 0.0
H2700 H 0.57826 0.95746 0.90326 0.0
H2701 H 0.55788 0.93543 0.89498 0.0
H2702 H 0.54316 0.92714 0.93679 0.0
H2703 H 0.56336 0.94923 0.94531 0.0
C2704 C 0.63494 0.98349 0.96365 0.0
C2705 C 0.63024 0.98063 0.97737 0.0
C2706 C 0.62645 0.98278 0.95298 0.0
C2707 C 0.61311 0.97911 0.95583 0.0
C2708 C 0.60814 0.97546 0.96934 0.0
C2709 C 0.61665 0.9763 0.98005 0.0
C2710 C 0.6047 0.98009 0.945 0.0
C2711 C 0.59258 0.96802 0.94047 0.0
C2712 C 0.60872 0.99289 0.93906 0.0
C2713 C 0.62131 0.00603 0.94366 0.0
C2714 C 0.62334 0.01073 0.95772 0.0
C2715 C 0.63543 0.02289 0.96204 0.0
C2716 C 0.6455 0.03051 0.95238 0.0
C2717 C 0.64348 0.02603 0.93836 0.0
C2718 C 0.63143 0.01386 0.93399 0.0
C2719 C 0.5577 0.978 0.9061 0.0
C2720 C 0.56342 0.98499 0.89375 0.0
C2721 C 0.5658 0.977 0.91609 0.0
C2722 C 0.57968 0.98253 0.91374 0.0
C2723 C 0.58538 0.98945 0.90139 0.0
C2724 C 0.57733 0.99066 0.89151 0.0
C2725 C 0.5883 0.98125 0.92419 0.0
C2726 C 0.60049 0.9933 0.92872 0.0
C2727 C 0.58442 0.96837 0.92998 0.0
C2728 C 0.57227 0.95507 0.9249 0.0
C2729 C 0.57063 0.95099 0.91068 0.0
C2730 C 0.55911 0.93849 0.90594 0.0
C2731 C 0.54921 0.92991 0.91535 0.0
C2732 C 0.55082 0.93381 0.92952 0.0
C2733 C 0.56231 0.94631 0.9343 0.0
H2734 H 0.54031 0.92023 0.91166 0.0
H2735 H 0.65485 0.03991 0.95575 0.0
H2736 H 0.63874 0.00305 0.05821 0.0
H2737 H 0.62857 0.00946 0.07701 0.0
H2738 H 0.60851 0.01995 0.04678 0.0
H2739 H 0.61876 0.01373 0.02791 0.0
H2740 H 0.62018 0.03961 0.06754 0.0
H2741 H 0.59086 0.98983 0.06398 0.0
H2742 H 0.58553 0.96572 0.06327 0.0
H2743 H 0.60268 0.97209 0.10436 0.0
H2744 H 0.60828 0.9963 0.10525 0.0
H2745 H 0.57946 0.0488 0.11587 0.0
H2746 H 0.58606 0.03954 0.09616 0.0
H2747 H 0.6042 0.02514 0.1245 0.0
H2748 H 0.59698 0.03377 0.14428 0.0
H2749 H 0.59246 0.00683 0.10399 0.0
H2750 H 0.62304 0.05655 0.10736 0.0
H2751 H 0.62913 0.08093 0.1084 0.0
H2752 H 0.61067 0.07506 0.06809 0.0
H2753 H 0.60431 0.05058 0.06689 0.0
C2754 C 0.63216 0.00672 0.05555 0.0
C2755 C 0.62954 0.00785 0.04155 0.0
C2756 C 0.6263 0.01031 0.06631 0.0
C2757 C 0.61764 0.01501 0.06329 0.0
C2758 C 0.61513 0.0163 0.04934 0.0
C2759 C 0.62098 0.01272 0.03857 0.0
C2760 C 0.61141 0.01885 0.07467 0.0
C2761 C 0.61394 0.03238 0.07539 0.0
C2762 C 0.60355 0.00951 0.0851 0.0
C2763 C 0.60009 0.99492 0.08463 0.0
C2764 C 0.59358 0.98612 0.07283 0.0
C2765 C 0.59049 0.97243 0.0724 0.0
C2766 C 0.59379 0.96738 0.08375 0.0
C2767 C 0.60014 0.97601 0.09557 0.0
C2768 C 0.60326 0.98971 0.09605 0.0
C2769 C 0.58458 0.04338 0.11792 0.0
C2770 C 0.58757 0.04185 0.13164 0.0
C2771 C 0.58848 0.03822 0.10663 0.0
C2772 C 0.59585 0.03185 0.10883 0.0
C2773 C 0.59852 0.02999 0.12253 0.0
C2774 C 0.59442 0.03494 0.13381 0.0
C2775 C 0.60129 0.02764 0.09691 0.0
C2776 C 0.59863 0.01405 0.0961 0.0
C2777 C 0.60915 0.03696 0.08645 0.0
C2778 C 0.61309 0.05171 0.0871 0.0
C2779 C 0.62021 0.06044 0.09875 0.0
C2780 C 0.62372 0.07427 0.09937 0.0
C2781 C 0.62026 0.07953 0.08833 0.0
C2782 C 0.61333 0.07097 0.07664 0.0
C2783 C 0.60978 0.05712 0.07598 0.0
H2784 H 0.62298 0.09024 0.08883 0.0
H2785 H 0.5914 0.95678 0.08339 0.0
H2786 H 0.01115 0.64761 0.05551 0.0
H2787 H 0.00533 0.62934 0.07172 0.0
H2788 H 0.9636 0.60749 0.05742 0.0
H2789 H 0.96935 0.62582 0.04104 0.0
H2790 H 0.96619 0.60849 0.08628 0.0
H2791 H 0.98226 0.59545 0.04671 0.0
H2792 H 0.99782 0.59873 0.02758 0.0
H2793 H 0.02949 0.60864 0.05726 0.0
H2794 H 0.01418 0.60564 0.07658 0.0
H2795 H 0.95123 0.54787 0.12194 0.0
H2796 H 0.95402 0.5625 0.1025 0.0
H2797 H 0.99614 0.59052 0.11418 0.0
H2798 H 0.99335 0.57614 0.1338 0.0
H2799 H 0.99121 0.58415 0.08486 0.0
H2800 H 0.97528 0.59924 0.12417 0.0
H2801 H 0.95945 0.59576 0.14308 0.0
H2802 H 0.92691 0.58135 0.11318 0.0
H2803 H 0.94252 0.58454 0.0941 0.0
C2804 C 0.00071 0.63897 0.05582 0.0
C2805 C 0.99072 0.63815 0.04694 0.0
C2806 C 0.99742 0.62849 0.06505 0.0
C2807 C 0.98408 0.61698 0.06562 0.0
C2808 C 0.97398 0.61627 0.05707 0.0
C2809 C 0.97728 0.62673 0.04772 0.0
C2810 C 0.98084 0.60575 0.07522 0.0
C2811 C 0.97145 0.60297 0.0858 0.0
C2812 C 0.98784 0.59867 0.07468 0.0
C2813 C 0.9971 0.60043 0.0631 0.0
C2814 C 0.99258 0.59844 0.04916 0.0
C2815 C 0.00134 0.60023 0.03828 0.0
C2816 C 0.01464 0.60392 0.0412 0.0
C2817 C 0.01919 0.60579 0.05501 0.0
C2818 C 0.01047 0.60404 0.06594 0.0
C2819 C 0.96107 0.55716 0.12036 0.0
C2820 C 0.97201 0.56104 0.12956 0.0
C2821 C 0.96266 0.56546 0.10924 0.0
C2822 C 0.97525 0.57764 0.10702 0.0
C2823 C 0.98634 0.58117 0.11576 0.0
C2824 C 0.98472 0.57298 0.12698 0.0
C2825 C 0.97675 0.5871 0.09602 0.0
C2826 C 0.98582 0.58955 0.08519 0.0
C2827 C 0.9694 0.5938 0.09628 0.0
C2828 C 0.96002 0.59196 0.10773 0.0
C2829 C 0.96472 0.5952 0.12164 0.0
C2830 C 0.95579 0.59331 0.13239 0.0
C2831 C 0.94217 0.58829 0.12934 0.0
C2832 C 0.93746 0.5852 0.11553 0.0
C2833 C 0.94634 0.58705 0.10474 0.0
H2834 H 0.93528 0.58684 0.13767 0.0
H2835 H 0.02142 0.60529 0.03276 0.0
H2836 H 0.36871 0.3729 0.04129 0.0
H2837 H 0.38478 0.3795 0.06064 0.0
H2838 H 0.4096 0.3701 0.03481 0.0
H2839 H 0.39354 0.36346 0.0153 0.0
H2840 H 0.40503 0.35881 0.06075 0.0
H2841 H 0.42032 0.40305 0.04217 0.0
H2842 H 0.41804 0.42186 0.03351 0.0
H2843 H 0.40364 0.42649 0.07337 0.0
H2844 H 0.40564 0.40755 0.08222 0.0
H2845 H 0.45791 0.38593 0.1116 0.0
H2846 H 0.4462 0.38321 0.08947 0.0
H2847 H 0.41906 0.3926 0.1108 0.0
H2848 H 0.43082 0.39544 0.13291 0.0
H2849 H 0.42669 0.40492 0.0857 0.0
H2850 H 0.40942 0.3596 0.10358 0.0
H2851 H 0.41116 0.34053 0.11247 0.0
H2852 H 0.42875 0.3377 0.07401 0.0
H2853 H 0.42731 0.35691 0.06497 0.0
C2854 C 0.3776 0.37226 0.03968 0.0
C2855 C 0.37986 0.36767 0.02674 0.0
C2856 C 0.38681 0.37611 0.05074 0.0
C2857 C 0.39845 0.37542 0.04911 0.0
C2858 C 0.4007 0.37075 0.03625 0.0
C2859 C 0.39153 0.367 0.02512 0.0
C2860 C 0.40799 0.37919 0.06102 0.0
C2861 C 0.40999 0.36898 0.06605 0.0
C2862 C 0.4142 0.39237 0.06809 0.0
C2863 C 0.41302 0.4038 0.06283 0.0
C2864 C 0.41656 0.408 0.04906 0.0
C2865 C 0.41534 0.4187 0.04412 0.0
C2866 C 0.41067 0.42534 0.05287 0.0
C2867 C 0.40724 0.42132 0.0666 0.0
C2868 C 0.40843 0.41062 0.07159 0.0
C2869 C 0.4496 0.38764 0.11149 0.0
C2870 C 0.44531 0.39098 0.12393 0.0
C2871 C 0.44288 0.38602 0.09889 0.0
C2872 C 0.43168 0.38758 0.09853 0.0
C2873 C 0.42769 0.39139 0.11085 0.0
C2874 C 0.43439 0.39299 0.12346 0.0
C2875 C 0.42363 0.3845 0.08549 0.0
C2876 C 0.42188 0.39482 0.08029 0.0
C2877 C 0.41759 0.3714 0.07828 0.0
C2878 C 0.41841 0.3598 0.08366 0.0
C2879 C 0.41377 0.35499 0.09706 0.0
C2880 C 0.41468 0.34415 0.10212 0.0
C2881 C 0.4201 0.33794 0.09383 0.0
C2882 C 0.42458 0.34254 0.08044 0.0
C2883 C 0.42372 0.3534 0.07534 0.0
H2884 H 0.4208 0.32953 0.09776 0.0
H2885 H 0.40973 0.43363 0.04902 0.0
H2886 H 0.64865 0.71557 0.35118 0.0
H2887 H 0.63992 0.72364 0.36995 0.0
H2888 H 0.65681 0.70974 0.40035 0.0
H2889 H 0.66528 0.7013 0.38161 0.0
H2890 H 0.6324 0.70298 0.40777 0.0
H2891 H 0.67198 0.74449 0.39334 0.0
H2892 H 0.68755 0.76182 0.37685 0.0
H2893 H 0.65675 0.76991 0.36572 0.0
H2894 H 0.64091 0.75247 0.38201 0.0
H2895 H 0.62907 0.74325 0.46527 0.0
H2896 H 0.63855 0.73575 0.44663 0.0
H2897 H 0.61261 0.73818 0.41657 0.0
H2898 H 0.60267 0.74516 0.43522 0.0
H2899 H 0.64204 0.75112 0.40954 0.0
H2900 H 0.60248 0.70849 0.42445 0.0
H2901 H 0.58802 0.69164 0.44186 0.0
H2902 H 0.62074 0.68658 0.4533 0.0
H2903 H 0.63548 0.70359 0.4361 0.0
C2904 C 0.65051 0.71422 0.36186 0.0
C2905 C 0.65771 0.70784 0.3649 0.0
C2906 C 0.64557 0.71891 0.37259 0.0
C2907 C 0.64789 0.71751 0.38658 0.0
C2908 C 0.65492 0.71097 0.38964 0.0
C2909 C 0.65978 0.70617 0.37891 0.0
C2910 C 0.64287 0.72274 0.398 0.0
C2911 C 0.63468 0.71357 0.40823 0.0
C2912 C 0.6457 0.73652 0.39856 0.0
C2913 C 0.65521 0.74706 0.38879 0.0
C2914 C 0.66848 0.74988 0.3873 0.0
C2915 C 0.67736 0.75974 0.378 0.0
C2916 C 0.67312 0.76693 0.37021 0.0
C2917 C 0.66001 0.76431 0.37174 0.0
C2918 C 0.65108 0.75445 0.38102 0.0
C2919 C 0.62528 0.74205 0.45472 0.0
C2920 C 0.61487 0.74446 0.45177 0.0
C2921 C 0.63076 0.73785 0.44409 0.0
C2922 C 0.62618 0.73632 0.43029 0.0
C2923 C 0.61622 0.73927 0.42719 0.0
C2924 C 0.61054 0.74321 0.43785 0.0
C2925 C 0.63157 0.73132 0.41913 0.0
C2926 C 0.63982 0.74055 0.40901 0.0
C2927 C 0.62899 0.71768 0.41878 0.0
C2928 C 0.62013 0.70744 0.42911 0.0
C2929 C 0.60664 0.7039 0.43078 0.0
C2930 C 0.59838 0.6943 0.44059 0.0
C2931 C 0.60347 0.68808 0.44872 0.0
C2932 C 0.61682 0.69143 0.44702 0.0
C2933 C 0.62513 0.70105 0.43724 0.0
H2934 H 0.59706 0.68064 0.4563 0.0
H2935 H 0.68002 0.77456 0.36302 0.0
H2936 H 0.29888 0.94314 0.37511 0.0
H2937 H 0.28697 0.92423 0.39108 0.0
H2938 H 0.30134 0.95395 0.42595 0.0
H2939 H 0.31368 0.97292 0.41003 0.0
H2940 H 0.30326 0.93303 0.43224 0.0
H2941 H 0.26812 0.93748 0.41308 0.0
H2942 H 0.25444 0.9391 0.39465 0.0
H2943 H 0.2422 0.89821 0.37868 0.0
H2944 H 0.25598 0.89641 0.39691 0.0
H2945 H 0.25455 0.88561 0.48012 0.0
H2946 H 0.26612 0.90489 0.46435 0.0
H2947 H 0.26205 0.87631 0.43106 0.0
H2948 H 0.25088 0.85702 0.4469 0.0
H2949 H 0.25451 0.89676 0.42455 0.0
H2950 H 0.29071 0.89338 0.44454 0.0
H2951 H 0.30387 0.89242 0.464 0.0
H2952 H 0.31325 0.9325 0.4797 0.0
H2953 H 0.29995 0.9336 0.46044 0.0
C2954 C 0.29951 0.94566 0.38618 0.0
C2955 C 0.30718 0.95953 0.39131 0.0
C2956 C 0.29263 0.93483 0.3953 0.0
C2957 C 0.29305 0.93767 0.40971 0.0
C2958 C 0.30084 0.95151 0.41487 0.0
C2959 C 0.30786 0.96234 0.40576 0.0
C2960 C 0.28549 0.92616 0.41938 0.0
C2961 C 0.29256 0.92523 0.43064 0.0
C2962 C 0.27154 0.91586 0.41724 0.0
C2963 C 0.26319 0.91687 0.40629 0.0
C2964 C 0.2626 0.92887 0.40558 0.0
C2965 C 0.25481 0.92982 0.39518 0.0
C2966 C 0.24748 0.91878 0.38548 0.0
C2967 C 0.2479 0.90676 0.38619 0.0
C2968 C 0.25569 0.90576 0.39656 0.0
C2969 C 0.25621 0.88346 0.46947 0.0
C2970 C 0.25203 0.86984 0.46481 0.0
C2971 C 0.26276 0.89445 0.46048 0.0
C2972 C 0.26499 0.89198 0.44661 0.0
C2973 C 0.26042 0.87838 0.44177 0.0
C2974 C 0.25409 0.8674 0.45081 0.0
C2975 C 0.27234 0.90368 0.43724 0.0
C2976 C 0.26521 0.90462 0.42608 0.0
C2977 C 0.28616 0.91411 0.4396 0.0
C2978 C 0.2942 0.91349 0.45114 0.0
C2979 C 0.29546 0.90192 0.45222 0.0
C2980 C 0.30297 0.90137 0.4632 0.0
C2981 C 0.30936 0.91237 0.4731 0.0
C2982 C 0.30828 0.92397 0.47203 0.0
C2983 C 0.30076 0.92457 0.46109 0.0
H2984 H 0.31517 0.91193 0.48159 0.0
H2985 H 0.24146 0.91953 0.37743 0.0
H2986 H 0.04498 0.33813 0.39335 0.0
H2987 H 0.06392 0.34846 0.4101 0.0
H2988 H 0.08634 0.38397 0.38456 0.0
H2989 H 0.06745 0.37368 0.36769 0.0
H2990 H 0.10187 0.37406 0.3931 0.0
H2991 H 0.07253 0.38702 0.41399 0.0
H2992 H 0.051 0.38334 0.42303 0.0
H2993 H 0.05007 0.3561 0.45338 0.0
H2994 H 0.07151 0.35947 0.44438 0.0
H2995 H 0.1536 0.41625 0.44389 0.0
H2996 H 0.13484 0.40728 0.42694 0.0
H2997 H 0.1109 0.37109 0.45127 0.0
H2998 H 0.12962 0.38005 0.46826 0.0
H2999 H 0.09635 0.38215 0.44315 0.0
H3000 H 0.12539 0.36874 0.42176 0.0
H3001 H 0.14694 0.37247 0.41269 0.0
H3002 H 0.14842 0.40069 0.38323 0.0
H3003 H 0.12697 0.39728 0.39227 0.0
C3004 C 0.05391 0.34816 0.39131 0.0
C3005 C 0.0547 0.35509 0.37919 0.0
C3006 C 0.06471 0.35408 0.40093 0.0
C3007 C 0.07649 0.36703 0.39863 0.0
C3008 C 0.07733 0.37397 0.38653 0.0
C3009 C 0.0665 0.36809 0.37694 0.0
C3010 C 0.08806 0.37316 0.4087 0.0
C3011 C 0.10072 0.37604 0.404 0.0
C3012 C 0.08647 0.37545 0.42298 0.0
C3013 C 0.07356 0.37339 0.42841 0.0
C3014 C 0.06767 0.38015 0.42251 0.0
C3015 C 0.0555 0.37814 0.42764 0.0
C3016 C 0.04915 0.36946 0.43875 0.0
C3017 C 0.05499 0.36281 0.44476 0.0
C3018 C 0.06716 0.36477 0.43966 0.0
C3019 C 0.14438 0.40632 0.44553 0.0
C3020 C 0.14315 0.39873 0.45726 0.0
C3021 C 0.13368 0.40121 0.43586 0.0
C3022 C 0.12153 0.38845 0.43778 0.0
C3023 C 0.1202 0.38094 0.44957 0.0
C3024 C 0.13091 0.38602 0.45922 0.0
C3025 C 0.11014 0.38297 0.42756 0.0
C3026 C 0.0975 0.38022 0.43223 0.0
C3027 C 0.11176 0.38081 0.41326 0.0
C3028 C 0.12465 0.38287 0.4078 0.0
C3029 C 0.13037 0.37583 0.41343 0.0
C3030 C 0.14256 0.37787 0.40828 0.0
C3031 C 0.14907 0.38684 0.39742 0.0
C3032 C 0.14338 0.39377 0.39166 0.0
C3033 C 0.13121 0.39178 0.39679 0.0
H3034 H 0.15849 0.38841 0.39344 0.0
H3035 H 0.03973 0.36793 0.44271 0.0
H3036 H 0.07048 0.35159 0.31494 0.0
H3037 H 0.07714 0.34109 0.29655 0.0
H3038 H 0.03608 0.30558 0.2935 0.0
H3039 H 0.02932 0.31597 0.31211 0.0
H3040 H 0.05485 0.29798 0.29228 0.0
H3041 H 0.04709 0.33013 0.26979 0.0
H3042 H 0.04966 0.35281 0.26651 0.0
H3043 H 0.09256 0.37161 0.261 0.0
H3044 H 0.09029 0.34907 0.26445 0.0
H3045 H 0.06612 0.27279 0.22759 0.0
H3046 H 0.05719 0.28088 0.24625 0.0
H3047 H 0.09567 0.31998 0.24942 0.0
H3048 H 0.10434 0.31223 0.23033 0.0
H3049 H 0.07643 0.32474 0.25017 0.0
H3050 H 0.08451 0.29295 0.27377 0.0
H3051 H 0.08211 0.27039 0.27743 0.0
H3052 H 0.03894 0.25102 0.28108 0.0
H3053 H 0.04107 0.27344 0.27727 0.0
C3054 C 0.06285 0.34153 0.31041 0.0
C3055 C 0.04934 0.33467 0.31492 0.0
C3056 C 0.06668 0.33556 0.29986 0.0
C3057 C 0.05706 0.32266 0.29351 0.0
C3058 C 0.04365 0.31557 0.29824 0.0
C3059 C 0.0398 0.32154 0.30884 0.0
C3060 C 0.06104 0.31679 0.28175 0.0
C3061 C 0.0594 0.30372 0.28297 0.0
C3062 C 0.06716 0.32439 0.26972 0.0
C3063 C 0.06853 0.33793 0.26749 0.0
C3064 C 0.05709 0.33912 0.26797 0.0
C3065 C 0.05849 0.35195 0.26607 0.0
C3066 C 0.07127 0.36365 0.26357 0.0
C3067 C 0.08267 0.36254 0.26294 0.0
C3068 C 0.08133 0.34974 0.26485 0.0
C3069 C 0.07269 0.28306 0.23239 0.0
C3070 C 0.08604 0.29171 0.22774 0.0
C3071 C 0.06761 0.28766 0.24309 0.0
C3072 C 0.07585 0.30094 0.24948 0.0
C3073 C 0.08914 0.30965 0.24474 0.0
C3074 C 0.09414 0.30515 0.2339 0.0
C3075 C 0.07057 0.30603 0.26079 0.0
C3076 C 0.07188 0.31895 0.25945 0.0
C3077 C 0.0642 0.29829 0.27272 0.0
C3078 C 0.06293 0.28484 0.2751 0.0
C3079 C 0.0745 0.28386 0.27526 0.0
C3080 C 0.07318 0.2711 0.27737 0.0
C3081 C 0.06038 0.25928 0.27945 0.0
C3082 C 0.04885 0.26019 0.27945 0.0
C3083 C 0.0501 0.27292 0.27733 0.0
H3084 H 0.05938 0.24941 0.28108 0.0
H3085 H 0.07233 0.37357 0.26211 0.0
H3086 H 0.70523 0.7266 0.31553 0.0
H3087 H 0.71481 0.74558 0.29937 0.0
H3088 H 0.67626 0.72604 0.27748 0.0
H3089 H 0.66674 0.70691 0.29333 0.0
H3090 H 0.69613 0.73549 0.25953 0.0
H3091 H 0.68701 0.75402 0.30116 0.0
H3092 H 0.68862 0.76018 0.32628 0.0
H3093 H 0.73193 0.78696 0.32349 0.0
H3094 H 0.7306 0.78081 0.29838 0.0
H3095 H 0.70416 0.79192 0.22269 0.0
H3096 H 0.69652 0.77338 0.23918 0.0
H3097 H 0.73689 0.79412 0.25721 0.0
H3098 H 0.74454 0.81279 0.2408 0.0
H3099 H 0.71744 0.78442 0.27717 0.0
H3100 H 0.72617 0.76661 0.23505 0.0
H3101 H 0.72424 0.7605 0.20991 0.0
H3102 H 0.6812 0.73232 0.2136 0.0
H3103 H 0.68285 0.73841 0.23874 0.0
C3104 C 0.69881 0.72633 0.30724 0.0
C3105 C 0.68521 0.71527 0.30575 0.0
C3106 C 0.70429 0.73722 0.29805 0.0
C3107 C 0.6962 0.73734 0.28732 0.0
C3108 C 0.6827 0.72618 0.28568 0.0
C3109 C 0.67726 0.71526 0.29478 0.0
C3110 C 0.7017 0.7491 0.27782 0.0
C3111 C 0.70066 0.74617 0.26339 0.0
C3112 C 0.70791 0.76308 0.28285 0.0
C3113 C 0.70872 0.76685 0.29793 0.0
C3114 C 0.69689 0.76115 0.30593 0.0
C3115 C 0.69775 0.76465 0.32016 0.0
C3116 C 0.71037 0.77393 0.32648 0.0
C3117 C 0.72216 0.77976 0.31858 0.0
C3118 C 0.72136 0.77628 0.30435 0.0
C3119 C 0.71135 0.7926 0.23029 0.0
C3120 C 0.72489 0.8039 0.23062 0.0
C3121 C 0.70701 0.78196 0.23963 0.0
C3122 C 0.71617 0.78232 0.24935 0.0
C3123 C 0.72966 0.79366 0.24981 0.0
C3124 C 0.73401 0.80431 0.24046 0.0
C3125 C 0.71169 0.77076 0.25891 0.0
C3126 C 0.71296 0.77374 0.27332 0.0
C3127 C 0.70563 0.75681 0.25387 0.0
C3128 C 0.70462 0.75306 0.23876 0.0
C3129 C 0.71628 0.75919 0.23049 0.0
C3130 C 0.71524 0.75572 0.21623 0.0
C3131 C 0.7026 0.74606 0.21015 0.0
C3132 C 0.69098 0.73982 0.21832 0.0
C3133 C 0.69197 0.74326 0.23257 0.0
H3134 H 0.70182 0.74338 0.19912 0.0
H3135 H 0.71101 0.77662 0.3375 0.0
H3136 H 0.29849 0.97844 0.31463 0.0
H3137 H 0.28189 0.97157 0.29575 0.0
H3138 H 0.24929 0.95215 0.32508 0.0
H3139 H 0.26584 0.95876 0.34402 0.0
H3140 H 0.24382 0.93556 0.30263 0.0
H3141 H 0.25849 0.98326 0.31125 0.0
H3142 H 0.27494 0.00847 0.31449 0.0
H3143 H 0.2892 0.00972 0.27289 0.0
H3144 H 0.27295 0.98446 0.26947 0.0
H3145 H 0.19179 0.93067 0.25837 0.0
H3146 H 0.20853 0.93777 0.27729 0.0
H3147 H 0.2398 0.94766 0.24724 0.0
H3148 H 0.22308 0.94004 0.22829 0.0
H3149 H 0.2458 0.96924 0.26983 0.0
H3150 H 0.23086 0.92108 0.26174 0.0
H3151 H 0.21381 0.896 0.2588 0.0
H3152 H 0.19937 0.89597 0.30006 0.0
H3153 H 0.2162 0.92114 0.30316 0.0
C3154 C 0.28779 0.97277 0.31709 0.0
C3155 C 0.28349 0.96916 0.33084 0.0
C3156 C 0.27831 0.96889 0.30628 0.0
C3157 C 0.26434 0.96146 0.30901 0.0
C3158 C 0.26002 0.95788 0.32273 0.0
C3159 C 0.2695 0.96171 0.33355 0.0
C3160 C 0.25424 0.95713 0.29751 0.0
C3161 C 0.24416 0.94297 0.29559 0.0
C3162 C 0.25481 0.96674 0.28814 0.0
C3163 C 0.2646 0.98194 0.29015 0.0
C3164 C 0.26522 0.98889 0.30283 0.0
C3165 C 0.27449 0.00319 0.30469 0.0
C3166 C 0.28314 0.01068 0.29392 0.0
C3167 C 0.28251 0.00389 0.28124 0.0
C3168 C 0.27326 0.98959 0.27933 0.0
C3169 C 0.20224 0.93441 0.25578 0.0
C3170 C 0.20617 0.93521 0.2418 0.0
C3171 C 0.21176 0.93843 0.26659 0.0
C3172 C 0.22539 0.94336 0.2636 0.0
C3173 C 0.22935 0.94404 0.2497 0.0
C3174 C 0.21978 0.93975 0.2389 0.0
C3175 C 0.23548 0.94775 0.27504 0.0
C3176 C 0.24552 0.96189 0.27692 0.0
C3177 C 0.2348 0.93815 0.28444 0.0
C3178 C 0.22468 0.92303 0.28261 0.0
C3179 C 0.22395 0.91576 0.27013 0.0
C3180 C 0.21435 0.90152 0.26844 0.0
C3181 C 0.20548 0.8944 0.27922 0.0
C3182 C 0.20622 0.90151 0.29171 0.0
C3183 C 0.2158 0.91576 0.29344 0.0
H3184 H 0.19806 0.88337 0.2779 0.0
H3185 H 0.29031 0.02176 0.29538 0.0
H3186 H 0.67023 0.95344 0.30844 0.0
H3187 H 0.68009 0.94794 0.28868 0.0
H3188 H 0.71984 0.97267 0.30805 0.0
H3189 H 0.71006 0.9784 0.32784 0.0
H3190 H 0.72055 0.97851 0.28125 0.0
H3191 H 0.70316 0.93738 0.3067 0.0
H3192 H 0.68611 0.91706 0.31943 0.0
H3193 H 0.66076 0.90054 0.28265 0.0
H3194 H 0.67758 0.92088 0.26975 0.0
H3195 H 0.75139 0.95596 0.23185 0.0
H3196 H 0.74262 0.95877 0.2542 0.0
H3197 H 0.70245 0.93914 0.23592 0.0
H3198 H 0.7112 0.93649 0.2135 0.0
H3199 H 0.70307 0.93033 0.26313 0.0
H3200 H 0.72007 0.9725 0.23842 0.0
H3201 H 0.73736 0.99279 0.22582 0.0
H3202 H 0.76384 0.00725 0.26178 0.0
H3203 H 0.74677 0.9869 0.27453 0.0
C3204 C 0.68106 0.95765 0.30857 0.0
C3205 C 0.68936 0.96636 0.31973 0.0
C3206 C 0.68668 0.95443 0.29728 0.0
C3207 C 0.70068 0.95977 0.29696 0.0
C3208 C 0.709 0.96842 0.30811 0.0
C3209 C 0.70339 0.97165 0.31942 0.0
C3210 C 0.70667 0.95675 0.2847 0.0
C3211 C 0.7169 0.96797 0.27745 0.0
C3212 C 0.70173 0.943 0.27958 0.0
C3213 C 0.69159 0.93072 0.28729 0.0
C3214 C 0.6939 0.92947 0.30135 0.0
C3215 C 0.68429 0.91794 0.3086 0.0
C3216 C 0.67235 0.90753 0.30186 0.0
C3217 C 0.67001 0.90862 0.28786 0.0
C3218 C 0.67959 0.92014 0.28057 0.0
C3219 C 0.74067 0.95216 0.23266 0.0
C3220 C 0.73198 0.9461 0.22094 0.0
C3221 C 0.73569 0.95376 0.24539 0.0
C3222 C 0.72192 0.94925 0.24665 0.0
C3223 C 0.71311 0.94268 0.23514 0.0
C3224 C 0.71811 0.94121 0.22236 0.0
C3225 C 0.71685 0.95208 0.25973 0.0
C3226 C 0.70679 0.94085 0.26707 0.0
C3227 C 0.72198 0.96581 0.26498 0.0
C3228 C 0.73222 0.97809 0.25737 0.0
C3229 C 0.72963 0.97994 0.2436 0.0
C3230 C 0.73938 0.99146 0.23644 0.0
C3231 C 0.75171 0.00128 0.24298 0.0
C3232 C 0.75429 0.99962 0.25672 0.0
C3233 C 0.74459 0.98809 0.26392 0.0
H3234 H 0.75924 0.0102 0.23742 0.0
H3235 H 0.66491 0.89861 0.30749 0.0
H3236 H 0.03915 0.7153 0.29256 0.0
H3237 H 0.04686 0.7336 0.27594 0.0
H3238 H 0.03361 0.75507 0.30315 0.0
H3239 H 0.02555 0.73655 0.31978 0.0
H3240 H 0.02621 0.75479 0.2771 0.0
H3241 H 0.06762 0.76686 0.29977 0.0
H3242 H 0.08507 0.76304 0.30903 0.0
H3243 H 0.09204 0.75242 0.26778 0.0
H3244 H 0.07449 0.75599 0.2583 0.0
H3245 H 0.05779 0.81415 0.23544 0.0
H3246 H 0.05344 0.79991 0.25568 0.0
H3247 H 0.06137 0.77257 0.23092 0.0
H3248 H 0.06573 0.78677 0.21069 0.0
H3249 H 0.07256 0.77797 0.25759 0.0
H3250 H 0.02959 0.76406 0.2356 0.0
H3251 H 0.01227 0.76815 0.22652 0.0
H3252 H 0.00858 0.78279 0.26717 0.0
H3253 H 0.02605 0.77899 0.27644 0.0
C3254 C 0.0379 0.72393 0.29506 0.0
C3255 C 0.03176 0.72448 0.30753 0.0
C3256 C 0.0424 0.73444 0.28557 0.0
C3257 C 0.04104 0.74585 0.28839 0.0
C3258 C 0.03482 0.7464 0.30078 0.0
C3259 C 0.03023 0.73582 0.31028 0.0
C3260 C 0.04576 0.75694 0.27817 0.0
C3261 C 0.03643 0.76005 0.27305 0.0
C3262 C 0.05904 0.76368 0.2727 0.0
C3263 C 0.06966 0.76159 0.27834 0.0
C3264 C 0.07281 0.76362 0.29269 0.0
C3265 C 0.08272 0.76151 0.29797 0.0
C3266 C 0.08964 0.75747 0.289 0.0
C3267 C 0.08667 0.75555 0.27472 0.0
C3268 C 0.07675 0.75763 0.26938 0.0
C3269 C 0.0588 0.80522 0.23441 0.0
C3270 C 0.06212 0.80156 0.22152 0.0
C3271 C 0.05627 0.79708 0.24594 0.0
C3272 C 0.05697 0.78512 0.24475 0.0
C3273 C 0.0608 0.78177 0.23205 0.0
C3274 C 0.06327 0.78986 0.22052 0.0
C3275 C 0.05296 0.77563 0.25646 0.0
C3276 C 0.06241 0.77282 0.26181 0.0
C3277 C 0.03982 0.76922 0.26221 0.0
C3278 C 0.02923 0.77139 0.25667 0.0
C3279 C 0.02516 0.76825 0.24257 0.0
C3280 C 0.01531 0.7705 0.2374 0.0
C3281 C 0.00935 0.77576 0.24626 0.0
C3282 C 0.01322 0.77874 0.26032 0.0
C3283 C 0.02309 0.77654 0.26554 0.0
H3284 H 0.00172 0.7775 0.24223 0.0
H3285 H 0.09731 0.75584 0.29311 0.0
H3286 H 0.26797 0.30498 0.31904 0.0
H3287 H 0.25047 0.29635 0.30069 0.0
H3288 H 0.27947 0.29988 0.27024 0.0
H3289 H 0.297 0.30852 0.28845 0.0
H3290 H 0.26462 0.31107 0.26177 0.0
H3291 H 0.25609 0.26863 0.28176 0.0
H3292 H 0.25114 0.25297 0.30104 0.0
H3293 H 0.21429 0.25196 0.30933 0.0
H3294 H 0.2191 0.26777 0.2902 0.0
H3295 H 0.22393 0.27201 0.20355 0.0
H3296 H 0.23977 0.28232 0.22332 0.0
H3297 H 0.20619 0.26987 0.25111 0.0
H3298 H 0.19028 0.2588 0.23142 0.0
H3299 H 0.22242 0.26433 0.26222 0.0
H3300 H 0.22936 0.30514 0.24199 0.0
H3301 H 0.23381 0.32134 0.22339 0.0
H3302 H 0.27279 0.32658 0.2165 0.0
H3303 H 0.2685 0.31026 0.23493 0.0
C3304 C 0.27061 0.30387 0.30844 0.0
C3305 C 0.28388 0.30741 0.30522 0.0
C3306 C 0.26059 0.29891 0.29798 0.0
C3307 C 0.26367 0.29742 0.28412 0.0
C3308 C 0.27689 0.30097 0.28087 0.0
C3309 C 0.28689 0.30584 0.29132 0.0
C3310 C 0.25316 0.29225 0.27292 0.0
C3311 C 0.25543 0.30081 0.26177 0.0
C3312 C 0.24096 0.27907 0.27323 0.0
C3313 C 0.23803 0.26949 0.28465 0.0
C3314 C 0.24698 0.26516 0.28776 0.0
C3315 C 0.24419 0.25624 0.29865 0.0
C3316 C 0.23243 0.25151 0.30643 0.0
C3317 C 0.22341 0.25565 0.30331 0.0
C3318 C 0.22615 0.26458 0.29244 0.0
C3319 C 0.21996 0.27164 0.21387 0.0
C3320 C 0.20588 0.26481 0.21586 0.0
C3321 C 0.22902 0.27761 0.22517 0.0
C3322 C 0.22424 0.27717 0.23874 0.0
C3323 C 0.21016 0.27044 0.24076 0.0
C3324 C 0.20106 0.26421 0.22946 0.0
C3325 C 0.23391 0.28307 0.25084 0.0
C3326 C 0.2315 0.27466 0.2622 0.0
C3327 C 0.24589 0.2965 0.25083 0.0
C3328 C 0.24856 0.30639 0.23979 0.0
C3329 C 0.23884 0.30968 0.23645 0.0
C3330 C 0.24134 0.31889 0.22595 0.0
C3331 C 0.25356 0.32496 0.21875 0.0
C3332 C 0.26332 0.32186 0.22208 0.0
C3333 C 0.26087 0.31265 0.23257 0.0
H3334 H 0.25548 0.33209 0.21062 0.0
H3335 H 0.23029 0.2446 0.31485 0.0
H3336 H 0.29067 0.33465 0.37999 0.0
H3337 H 0.28427 0.34443 0.39936 0.0
H3338 H 0.31104 0.38565 0.38454 0.0
H3339 H 0.31777 0.37595 0.36529 0.0
H3340 H 0.31416 0.38581 0.41154 0.0
H3341 H 0.27603 0.36862 0.38076 0.0
H3342 H 0.2571 0.35146 0.36541 0.0
H3343 H 0.23831 0.32505 0.39987 0.0
H3344 H 0.25722 0.34198 0.41539 0.0
H3345 H 0.28916 0.41736 0.45755 0.0
H3346 H 0.29344 0.40849 0.43572 0.0
H3347 H 0.27245 0.36718 0.45142 0.0
H3348 H 0.26828 0.37601 0.47331 0.0
H3349 H 0.26611 0.36807 0.42318 0.0
H3350 H 0.30536 0.38534 0.45344 0.0
H3351 H 0.32422 0.40305 0.4685 0.0
H3352 H 0.34081 0.4301 0.43418 0.0
H3353 H 0.32191 0.41262 0.41896 0.0
C3354 C 0.29516 0.3458 0.3808 0.0
C3355 C 0.30472 0.35452 0.37107 0.0
C3356 C 0.29143 0.35137 0.39185 0.0
C3357 C 0.29702 0.36577 0.39331 0.0
C3358 C 0.30657 0.37451 0.38361 0.0
C3359 C 0.31038 0.36894 0.3726 0.0
C3360 C 0.29325 0.37172 0.40523 0.0
C3361 C 0.30366 0.38209 0.41392 0.0
C3362 C 0.27953 0.36672 0.40851 0.0
C3363 C 0.26811 0.35652 0.39921 0.0
C3364 C 0.26791 0.35911 0.38505 0.0
C3365 C 0.25718 0.34943 0.37632 0.0
C3366 C 0.24653 0.33716 0.38165 0.0
C3367 C 0.24657 0.33456 0.39574 0.0
C3368 C 0.25729 0.3442 0.40452 0.0
C3369 C 0.28537 0.40637 0.45627 0.0
C3370 C 0.27846 0.39737 0.46714 0.0
C3371 C 0.28782 0.40133 0.44383 0.0
C3372 C 0.28336 0.38721 0.44203 0.0
C3373 C 0.27597 0.37811 0.45262 0.0
C3374 C 0.27362 0.38316 0.46511 0.0
C3375 C 0.28701 0.38205 0.42943 0.0
C3376 C 0.2766 0.37183 0.42067 0.0
C3377 C 0.30071 0.38727 0.426 0.0
C3378 C 0.31214 0.39774 0.43511 0.0
C3379 C 0.31297 0.39511 0.44914 0.0
C3380 C 0.32367 0.4051 0.4577 0.0
C3381 C 0.33369 0.41771 0.45231 0.0
C3382 C 0.33303 0.42034 0.43835 0.0
C3383 C 0.32233 0.41039 0.42975 0.0
H3384 H 0.34197 0.42543 0.45896 0.0
H3385 H 0.23822 0.32968 0.37488 0.0
H3386 H 0.64144 0.93194 0.36919 0.0
H3387 H 0.63198 0.91439 0.38692 0.0
H3388 H 0.6391 0.94588 0.41822 0.0
H3389 H 0.64842 0.96349 0.40053 0.0
H3390 H 0.64735 0.92693 0.426 0.0
H3391 H 0.60877 0.92665 0.40662 0.0
H3392 H 0.59389 0.92484 0.38739 0.0
H3393 H 0.58512 0.88396 0.37591 0.0
H3394 H 0.60011 0.8856 0.39496 0.0
H3395 H 0.6063 0.88824 0.48158 0.0
H3396 H 0.61827 0.9043 0.46302 0.0
H3397 H 0.60053 0.86991 0.43273 0.0
H3398 H 0.58801 0.85391 0.45121 0.0
H3399 H 0.59856 0.88946 0.42333 0.0
H3400 H 0.63529 0.88819 0.443 0.0
H3401 H 0.65049 0.88934 0.46149 0.0
H3402 H 0.66354 0.93185 0.47145 0.0
H3403 H 0.64825 0.9309 0.45315 0.0
C3404 C 0.64104 0.93514 0.37985 0.0
C3405 C 0.64561 0.94908 0.38346 0.0
C3406 C 0.63562 0.92511 0.38995 0.0
C3407 C 0.63483 0.92887 0.40384 0.0
C3408 C 0.63966 0.94281 0.40754 0.0
C3409 C 0.64491 0.95282 0.39742 0.0
C3410 C 0.62857 0.91819 0.41445 0.0
C3411 C 0.63666 0.91878 0.42554 0.0
C3412 C 0.61475 0.90734 0.4135 0.0
C3413 C 0.60567 0.90631 0.40211 0.0
C3414 C 0.60376 0.91732 0.39991 0.0
C3415 C 0.59529 0.91632 0.38907 0.0
C3416 C 0.58859 0.90431 0.38041 0.0
C3417 C 0.59033 0.89326 0.38261 0.0
C3418 C 0.5988 0.89422 0.39344 0.0
C3419 C 0.60514 0.88411 0.47097 0.0
C3420 C 0.59645 0.86981 0.4679 0.0
C3421 C 0.61203 0.89328 0.46037 0.0
C3422 C 0.61054 0.88831 0.44647 0.0
C3423 C 0.60193 0.87399 0.44338 0.0
C3424 C 0.59486 0.86483 0.45397 0.0
C3425 C 0.61729 0.89817 0.43511 0.0
C3426 C 0.60929 0.89747 0.42383 0.0
C3427 C 0.63126 0.90879 0.43578 0.0
C3428 C 0.64053 0.90944 0.44676 0.0
C3429 C 0.64132 0.89776 0.44919 0.0
C3430 C 0.64997 0.89838 0.45963 0.0
C3431 C 0.65796 0.91065 0.46766 0.0
C3432 C 0.65734 0.92234 0.46523 0.0
C3433 C 0.6487 0.92178 0.45481 0.0
H3434 H 0.66464 0.91111 0.47574 0.0
H3435 H 0.58204 0.90355 0.37202 0.0
H3436 H 0.03554 0.71152 0.38278 0.0
H3437 H 0.05073 0.71795 0.40294 0.0
H3438 H 0.08234 0.72176 0.37611 0.0
H3439 H 0.0672 0.71537 0.35581 0.0
H3440 H 0.07845 0.70618 0.3993 0.0
H3441 H 0.08526 0.75039 0.38943 0.0
H3442 H 0.07826 0.76686 0.3846 0.0
H3443 H 0.05908 0.75962 0.42439 0.0
H3444 H 0.0658 0.74294 0.42938 0.0
H3445 H 0.12708 0.73186 0.45413 0.0
H3446 H 0.11621 0.73077 0.43198 0.0
H3447 H 0.08374 0.73058 0.45424 0.0
H3448 H 0.09483 0.73214 0.4764 0.0
H3449 H 0.0899 0.74589 0.43207 0.0
H3450 H 0.08086 0.70042 0.44124 0.0
H3451 H 0.08684 0.68321 0.44638 0.0
H3452 H 0.10896 0.69189 0.40827 0.0
H3453 H 0.10327 0.70932 0.40301 0.0
C3454 C 0.04574 0.71378 0.38114 0.0
C3455 C 0.05017 0.71294 0.36769 0.0
C3456 C 0.05443 0.71752 0.39267 0.0
C3457 C 0.06769 0.72045 0.391 0.0
C3458 C 0.07215 0.71959 0.3776 0.0
C3459 C 0.0635 0.71596 0.36603 0.0
C3460 C 0.07669 0.72392 0.40333 0.0
C3461 C 0.08118 0.71501 0.40634 0.0
C3462 C 0.07995 0.73524 0.41266 0.0
C3463 C 0.07594 0.74532 0.40973 0.0
C3464 C 0.07946 0.75222 0.39711 0.0
C3465 C 0.07555 0.76161 0.39435 0.0
C3466 C 0.0682 0.76427 0.40417 0.0
C3467 C 0.06477 0.75755 0.41679 0.0
C3468 C 0.06863 0.74814 0.41959 0.0
C3469 C 0.1178 0.73192 0.45428 0.0
C3470 C 0.11189 0.7323 0.46699 0.0
C3471 C 0.11152 0.73117 0.44163 0.0
C3472 C 0.09906 0.73041 0.44144 0.0
C3473 C 0.09336 0.73119 0.45411 0.0
C3474 C 0.09969 0.73208 0.46676 0.0
C3475 C 0.09156 0.72806 0.42813 0.0
C3476 C 0.08731 0.73715 0.42496 0.0
C3477 C 0.0884 0.71681 0.4187 0.0
C3478 C 0.09177 0.70629 0.42181 0.0
C3479 C 0.08708 0.69874 0.43401 0.0
C3480 C 0.09041 0.68893 0.43694 0.0
C3481 C 0.0983 0.68649 0.42768 0.0
C3482 C 0.10286 0.69382 0.41545 0.0
C3483 C 0.09959 0.70366 0.41249 0.0
H3484 H 0.10086 0.67889 0.42996 0.0
H3485 H 0.06519 0.77154 0.40202 0.0
H3486 H 0.29559 0.02507 0.68848 0.0
H3487 H 0.28664 0.03331 0.70692 0.0
H3488 H 0.3246 0.05167 0.72972 0.0
H3489 H 0.33353 0.04325 0.7115 0.0
H3490 H 0.30378 0.03898 0.74688 0.0
H3491 H 0.31676 0.07144 0.7105 0.0
H3492 H 0.31692 0.07861 0.68656 0.0
H3493 H 0.27387 0.06109 0.68797 0.0
H3494 H 0.27343 0.05366 0.71187 0.0
H3495 H 0.29719 0.08545 0.79269 0.0
H3496 H 0.30477 0.07567 0.7743 0.0
H3497 H 0.26548 0.05629 0.754 0.0
H3498 H 0.25788 0.06612 0.77233 0.0
H3499 H 0.28616 0.06885 0.73552 0.0
H3500 H 0.27352 0.0372 0.77245 0.0
H3501 H 0.27368 0.03041 0.79648 0.0
H3502 H 0.31648 0.0468 0.79412 0.0
H3503 H 0.31662 0.05388 0.77013 0.0
C3504 C 0.30202 0.03081 0.69744 0.0
C3505 C 0.3153 0.03356 0.69848 0.0
C3506 C 0.29691 0.03557 0.70795 0.0
C3507 C 0.30502 0.04328 0.71961 0.0
C3508 C 0.31817 0.04577 0.72081 0.0
C3509 C 0.32326 0.04097 0.71036 0.0
C3510 C 0.29991 0.04892 0.73051 0.0
C3511 C 0.30007 0.04564 0.74441 0.0
C3512 C 0.29479 0.05736 0.72726 0.0
C3513 C 0.29504 0.06187 0.71291 0.0
C3514 C 0.30731 0.06903 0.70566 0.0
C3515 C 0.30746 0.07315 0.69211 0.0
C3516 C 0.29541 0.07027 0.68573 0.0
C3517 C 0.2832 0.0633 0.69291 0.0
C3518 C 0.28299 0.05913 0.70647 0.0
C3519 C 0.29022 0.07919 0.78424 0.0
C3520 C 0.277 0.07669 0.78383 0.0
C3521 C 0.29452 0.07354 0.7738 0.0
C3522 C 0.28565 0.06517 0.76284 0.0
C3523 C 0.27249 0.06274 0.76235 0.0
C3524 C 0.26817 0.06836 0.77281 0.0
C3525 C 0.29012 0.05897 0.75188 0.0
C3526 C 0.28982 0.06215 0.73797 0.0
C3527 C 0.29517 0.05048 0.75513 0.0
C3528 C 0.2951 0.04619 0.76954 0.0
C3529 C 0.28299 0.03946 0.7771 0.0
C3530 C 0.28302 0.03554 0.7907 0.0
C3531 C 0.29509 0.03821 0.79684 0.0
C3532 C 0.30715 0.04476 0.78936 0.0
C3533 C 0.30717 0.04872 0.77575 0.0
H3534 H 0.29509 0.03516 0.80737 0.0
H3535 H 0.29555 0.07348 0.67524 0.0
H3536 H 0.99349 0.30197 0.72908 0.0
H3537 H 0.9836 0.28343 0.74566 0.0
H3538 H 0.9636 0.25297 0.71186 0.0
H3539 H 0.97326 0.27149 0.69521 0.0
H3540 H 0.94639 0.24812 0.73226 0.0
H3541 H 0.99122 0.25673 0.72908 0.0
H3542 H 0.01626 0.27069 0.72945 0.0
H3543 H 0.01637 0.28334 0.77217 0.0
H3544 H 0.9913 0.2696 0.772 0.0
H3545 H 0.92948 0.18891 0.77206 0.0
H3546 H 0.94012 0.20717 0.75507 0.0
H3547 H 0.95196 0.23843 0.78809 0.0
H3548 H 0.94089 0.22028 0.80507 0.0
H3549 H 0.97346 0.24244 0.76806 0.0
H3550 H 0.92822 0.23386 0.77052 0.0
H3551 H 0.90321 0.21925 0.76978 0.0
H3552 H 0.90416 0.20576 0.72766 0.0
H3553 H 0.92922 0.22012 0.72823 0.0
C3554 C 0.98708 0.29132 0.72514 0.0
C3555 C 0.98417 0.28822 0.71081 0.0
C3556 C 0.98147 0.28072 0.73464 0.0
C3557 C 0.97295 0.26679 0.73 0.0
C3558 C 0.97015 0.26364 0.71568 0.0
C3559 C 0.97572 0.27424 0.70617 0.0
C3560 C 0.96656 0.25557 0.74013 0.0
C3561 C 0.95235 0.24676 0.73994 0.0
C3562 C 0.9743 0.25394 0.75034 0.0
C3563 C 0.98937 0.26224 0.75049 0.0
C3564 C 0.99657 0.26258 0.73852 0.0
C3565 C 0.01077 0.27044 0.7387 0.0
C3566 C 0.0179 0.27793 0.75081 0.0
C3567 C 0.01083 0.27755 0.76279 0.0
C3568 C 0.99663 0.26972 0.76266 0.0
C3569 C 0.93439 0.19968 0.77571 0.0
C3570 C 0.93468 0.20314 0.78998 0.0
C3571 C 0.94044 0.21007 0.76601 0.0
C3572 C 0.94692 0.22411 0.77039 0.0
C3573 C 0.94714 0.22764 0.78457 0.0
C3574 C 0.94087 0.21725 0.79425 0.0
C3575 C 0.95339 0.2351 0.76013 0.0
C3576 C 0.96758 0.24383 0.76032 0.0
C3577 C 0.94566 0.23658 0.74985 0.0
C3578 C 0.9306 0.22792 0.74948 0.0
C3579 C 0.92311 0.22765 0.76115 0.0
C3580 C 0.90892 0.21945 0.76075 0.0
C3581 C 0.9021 0.21154 0.7487 0.0
C3582 C 0.90946 0.21186 0.737 0.0
C3583 C 0.92366 0.22003 0.73735 0.0
H3584 H 0.89112 0.20521 0.7484 0.0
H3585 H 0.02889 0.284 0.75093 0.0
H3586 H 0.7301 0.70901 0.69701 0.0
H3587 H 0.74993 0.72004 0.71273 0.0
H3588 H 0.73117 0.68351 0.73726 0.0
H3589 H 0.71125 0.67256 0.72183 0.0
H3590 H 0.74235 0.7062 0.75371 0.0
H3591 H 0.75642 0.69031 0.71373 0.0
H3592 H 0.76058 0.68842 0.68878 0.0
H3593 H 0.78859 0.73258 0.68848 0.0
H3594 H 0.78445 0.73476 0.7134 0.0
H3595 H 0.7986 0.71571 0.79163 0.0
H3596 H 0.7796 0.70683 0.77504 0.0
H3597 H 0.80033 0.74594 0.75469 0.0
H3598 H 0.81944 0.75485 0.77124 0.0
H3599 H 0.78864 0.72354 0.73591 0.0
H3600 H 0.77532 0.73909 0.77639 0.0
H3601 H 0.77127 0.74068 0.80143 0.0
H3602 H 0.74182 0.69679 0.80081 0.0
H3603 H 0.74584 0.69489 0.77581 0.0
C3604 C 0.73019 0.70335 0.70578 0.0
C3605 C 0.71911 0.68989 0.70814 0.0
C3606 C 0.74155 0.70964 0.71471 0.0
C3607 C 0.74211 0.70253 0.72608 0.0
C3608 C 0.73097 0.68919 0.72856 0.0
C3609 C 0.7196 0.68293 0.71969 0.0
C3610 C 0.75425 0.70891 0.73545 0.0
C3611 C 0.75244 0.70986 0.74982 0.0
C3612 C 0.76749 0.71402 0.73036 0.0
C3613 C 0.77002 0.71272 0.71539 0.0
C3614 C 0.76339 0.69963 0.70832 0.0
C3615 C 0.76575 0.6985 0.69418 0.0
C3616 C 0.77482 0.71038 0.68704 0.0
C3617 C 0.78156 0.7234 0.69402 0.0
C3618 C 0.77921 0.72459 0.70815 0.0
C3619 C 0.79916 0.72235 0.78351 0.0
C3620 C 0.81057 0.73591 0.7826 0.0
C3621 C 0.78828 0.71731 0.77411 0.0
C3622 C 0.78852 0.72577 0.76371 0.0
C3623 C 0.79997 0.73923 0.76262 0.0
C3624 C 0.81086 0.7443 0.77206 0.0
C3625 C 0.77668 0.72061 0.75415 0.0
C3626 C 0.77854 0.71994 0.73977 0.0
C3627 C 0.76348 0.71571 0.75923 0.0
C3628 C 0.76097 0.71683 0.77425 0.0
C3629 C 0.76805 0.72975 0.78162 0.0
C3630 C 0.76575 0.73071 0.7958 0.0
C3631 C 0.75631 0.71884 0.80271 0.0
C3632 C 0.74913 0.70598 0.79545 0.0
C3633 C 0.75141 0.70496 0.78127 0.0
H3634 H 0.75454 0.7196 0.81369 0.0
H3635 H 0.77664 0.70948 0.6761 0.0
H3636 H 0.69503 0.65956 0.6337 0.0
H3637 H 0.70237 0.64997 0.6149 0.0
H3638 H 0.72461 0.64176 0.64467 0.0
H3639 H 0.71736 0.65134 0.66351 0.0
H3640 H 0.7397 0.6551 0.6216 0.0
H3641 H 0.69506 0.61559 0.63127 0.0
H3642 H 0.67025 0.60358 0.63403 0.0
H3643 H 0.66577 0.61168 0.59176 0.0
H3644 H 0.69058 0.6239 0.5888 0.0
H3645 H 0.76204 0.61297 0.57921 0.0
H3646 H 0.75242 0.62513 0.59948 0.0
H3647 H 0.71545 0.6176 0.56668 0.0
H3648 H 0.72404 0.6051 0.54563 0.0
H3649 H 0.70776 0.61452 0.59101 0.0
H3650 H 0.75081 0.65494 0.58077 0.0
H3651 H 0.77552 0.66885 0.5769 0.0
H3652 H 0.78296 0.66148 0.61842 0.0
H3653 H 0.75828 0.64742 0.62247 0.0
C3654 C 0.70143 0.65566 0.63626 0.0
C3655 C 0.70561 0.65621 0.65011 0.0
C3656 C 0.70558 0.65014 0.62551 0.0
C3657 C 0.71398 0.6451 0.62842 0.0
C3658 C 0.71813 0.64561 0.64222 0.0
C3659 C 0.71394 0.65105 0.65297 0.0
C3660 C 0.71873 0.63957 0.61706 0.0
C3661 C 0.73274 0.64611 0.615 0.0
C3662 C 0.70961 0.62822 0.60811 0.0
C3663 C 0.69469 0.62078 0.60986 0.0
C3664 C 0.68879 0.6149 0.6226 0.0
C3665 C 0.67473 0.60804 0.62419 0.0
C3666 C 0.66644 0.6069 0.61309 0.0
C3667 C 0.6722 0.61258 0.60035 0.0
C3668 C 0.68626 0.61947 0.59871 0.0
C3669 C 0.75318 0.61346 0.5771 0.0
C3670 C 0.74555 0.6101 0.5593 0.0
C3671 C 0.74758 0.62173 0.58932 0.0
C3672 C 0.73361 0.62376 0.58495 0.0
C3673 C 0.7241 0.61671 0.56872 0.0
C3674 C 0.72891 0.60825 0.55581 0.0
C3675 C 0.72883 0.62998 0.59553 0.0
C3676 C 0.71479 0.62357 0.59748 0.0
C3677 C 0.73791 0.64163 0.60422 0.0
C3678 C 0.75272 0.64993 0.60181 0.0
C3679 C 0.75772 0.6562 0.58902 0.0
C3680 C 0.77172 0.66414 0.58681 0.0
C3681 C 0.7808 0.66599 0.59738 0.0
C3682 C 0.77591 0.65999 0.61022 0.0
C3683 C 0.76193 0.65205 0.61248 0.0
H3684 H 0.79163 0.67212 0.59565 0.0
H3685 H 0.65555 0.60158 0.61434 0.0
H3686 H 0.34701 0.06043 0.64678 0.0
H3687 H 0.35256 0.07753 0.62918 0.0
H3688 H 0.37882 0.0662 0.6091 0.0
H3689 H 0.37338 0.04907 0.62675 0.0
H3690 H 0.39043 0.09469 0.61174 0.0
H3691 H 0.34819 0.05459 0.59526 0.0
H3692 H 0.32427 0.03555 0.5973 0.0
H3693 H 0.31274 0.06524 0.60582 0.0
H3694 H 0.33663 0.08446 0.60403 0.0
H3695 H 0.39915 0.13045 0.54989 0.0
H3696 H 0.39429 0.11299 0.5669 0.0
H3697 H 0.36269 0.118 0.58417 0.0
H3698 H 0.36692 0.13474 0.56664 0.0
H3699 H 0.35399 0.0922 0.58273 0.0
H3700 H 0.39574 0.13228 0.60018 0.0
H3701 H 0.4196 0.1517 0.59905 0.0
H3702 H 0.43206 0.12284 0.58984 0.0
H3703 H 0.40824 0.10326 0.59074 0.0
C3704 C 0.35399 0.06157 0.63865 0.0
C3705 C 0.35972 0.05334 0.63814 0.0
C3706 C 0.35711 0.07132 0.62856 0.0
C3707 C 0.36598 0.07302 0.61776 0.0
C3708 C 0.37192 0.06502 0.61734 0.0
C3709 C 0.36877 0.05521 0.62741 0.0
C3710 C 0.36902 0.08316 0.60689 0.0
C3711 C 0.38251 0.09407 0.60525 0.0
C3712 C 0.35862 0.0825 0.59869 0.0
C3713 C 0.34422 0.07096 0.59962 0.0
C3714 C 0.34057 0.05706 0.59766 0.0
C3715 C 0.32701 0.04623 0.59876 0.0
C3716 C 0.317 0.04918 0.60171 0.0
C3717 C 0.32051 0.06297 0.60354 0.0
C3718 C 0.33406 0.07383 0.60247 0.0
C3719 C 0.39122 0.12785 0.55738 0.0
C3720 C 0.38365 0.13421 0.55708 0.0
C3721 C 0.38849 0.11794 0.56716 0.0
C3722 C 0.37833 0.11438 0.57708 0.0
C3723 C 0.37065 0.12062 0.57671 0.0
C3724 C 0.37317 0.13031 0.56673 0.0
C3725 C 0.37545 0.10393 0.58763 0.0
C3726 C 0.36196 0.0929 0.5892 0.0
C3727 C 0.38585 0.10456 0.59587 0.0
C3728 C 0.40019 0.11632 0.5954 0.0
C3729 C 0.40356 0.13009 0.59782 0.0
C3730 C 0.41708 0.14112 0.59724 0.0
C3731 C 0.42734 0.13851 0.59434 0.0
C3732 C 0.4241 0.12485 0.59206 0.0
C3733 C 0.41059 0.11378 0.59263 0.0
H3734 H 0.4378 0.14706 0.59389 0.0
H3735 H 0.30651 0.04079 0.60256 0.0
H3736 H 0.94159 0.30219 0.66399 0.0
H3737 H 0.92505 0.29634 0.64532 0.0
H3738 H 0.94882 0.28747 0.61715 0.0
H3739 H 0.96568 0.29379 0.63569 0.0
H3740 H 0.94087 0.30194 0.60465 0.0
H3741 H 0.91859 0.26125 0.63177 0.0
H3742 H 0.90956 0.24808 0.6531 0.0
H3743 H 0.88274 0.26308 0.65828 0.0
H3744 H 0.89175 0.2765 0.63707 0.0
H3745 H 0.89021 0.26612 0.55175 0.0
H3746 H 0.9067 0.27209 0.57061 0.0
H3747 H 0.88468 0.28455 0.59729 0.0
H3748 H 0.86805 0.27845 0.57847 0.0
H3749 H 0.89157 0.26825 0.61052 0.0
H3750 H 0.91397 0.30869 0.58282 0.0
H3751 H 0.92294 0.32129 0.56117 0.0
H3752 H 0.94952 0.30592 0.55673 0.0
H3753 H 0.94056 0.29306 0.57826 0.0
C3754 C 0.94327 0.29892 0.65384 0.0
C3755 C 0.95492 0.2984 0.65133 0.0
C3756 C 0.93376 0.29552 0.64318 0.0
C3757 C 0.93557 0.29125 0.62987 0.0
C3758 C 0.9472 0.29071 0.62734 0.0
C3759 C 0.95681 0.29428 0.63795 0.0
C3760 C 0.9255 0.28767 0.6185 0.0
C3761 C 0.93012 0.29442 0.60588 0.0
C3762 C 0.91142 0.27809 0.62018 0.0
C3763 C 0.90594 0.26998 0.6329 0.0
C3764 C 0.91084 0.26182 0.63751 0.0
C3765 C 0.90571 0.2543 0.64957 0.0
C3766 C 0.89561 0.25477 0.65706 0.0
C3767 C 0.89058 0.26274 0.65248 0.0
C3768 C 0.89568 0.27029 0.64043 0.0
C3769 C 0.88889 0.27012 0.56165 0.0
C3770 C 0.87778 0.2717 0.5637 0.0
C3771 C 0.89834 0.27358 0.57238 0.0
C3772 C 0.89696 0.27884 0.58531 0.0
C3773 C 0.8859 0.28047 0.58739 0.0
C3774 C 0.87644 0.27701 0.57665 0.0
C3775 C 0.90697 0.28249 0.59672 0.0
C3776 C 0.90233 0.27576 0.60933 0.0
C3777 C 0.92104 0.292 0.59499 0.0
C3778 C 0.92651 0.29981 0.58209 0.0
C3779 C 0.92166 0.30791 0.57717 0.0
C3780 C 0.92675 0.31512 0.56493 0.0
C3781 C 0.93677 0.31438 0.55756 0.0
C3782 C 0.94174 0.30647 0.56244 0.0
C3783 C 0.93667 0.29923 0.57467 0.0
H3784 H 0.9407 0.31997 0.54808 0.0
H3785 H 0.89165 0.24894 0.6664 0.0
H3786 H 0.34012 0.30731 0.63509 0.0
H3787 H 0.34927 0.30038 0.61572 0.0
H3788 H 0.37514 0.29611 0.64432 0.0
H3789 H 0.36611 0.30314 0.6638 0.0
H3790 H 0.3888 0.3102 0.62149 0.0
H3791 H 0.34728 0.26754 0.63047 0.0
H3792 H 0.32266 0.25245 0.63426 0.0
H3793 H 0.31445 0.2605 0.59337 0.0
H3794 H 0.33903 0.2758 0.58941 0.0
H3795 H 0.41047 0.28029 0.57 0.0
H3796 H 0.4001 0.28286 0.59123 0.0
H3797 H 0.37094 0.28565 0.56633 0.0
H3798 H 0.38102 0.28263 0.5451 0.0
H3799 H 0.35897 0.27089 0.58848 0.0
H3800 H 0.39992 0.31476 0.58005 0.0
H3801 H 0.42443 0.3304 0.57601 0.0
H3802 H 0.43358 0.32069 0.6156 0.0
H3803 H 0.4091 0.30483 0.61978 0.0
C3804 C 0.34774 0.30488 0.63729 0.0
C3805 C 0.35236 0.30574 0.65101 0.0
C3806 C 0.35291 0.30085 0.6262 0.0
C3807 C 0.36276 0.29756 0.6286 0.0
C3808 C 0.36751 0.29855 0.64225 0.0
C3809 C 0.36231 0.30255 0.65337 0.0
C3810 C 0.36831 0.2934 0.61678 0.0
C3811 C 0.38232 0.30145 0.61441 0.0
C3812 C 0.3598 0.28218 0.60738 0.0
C3813 C 0.345 0.27291 0.60969 0.0
C3814 C 0.34022 0.26617 0.62232 0.0
C3815 C 0.32627 0.25757 0.62449 0.0
C3816 C 0.317 0.25554 0.61407 0.0
C3817 C 0.32165 0.26209 0.60144 0.0
C3818 C 0.33559 0.27072 0.59922 0.0
C3819 C 0.40166 0.28113 0.56908 0.0
C3820 C 0.39641 0.28105 0.5559 0.0
C3821 C 0.39582 0.28273 0.5812 0.0
C3822 C 0.38485 0.28463 0.58037 0.0
C3823 C 0.37937 0.28417 0.56724 0.0
C3824 C 0.38513 0.28245 0.55512 0.0
C3825 C 0.37946 0.28777 0.5931 0.0
C3826 C 0.36548 0.27955 0.59563 0.0
C3827 C 0.38798 0.2989 0.60261 0.0
C3828 C 0.40269 0.3085 0.60015 0.0
C3829 C 0.40716 0.31589 0.58784 0.0
C3830 C 0.42105 0.3248 0.58554 0.0
C3831 C 0.43056 0.32651 0.59553 0.0
C3832 C 0.4262 0.31934 0.60786 0.0
C3833 C 0.41232 0.31039 0.61021 0.0
H3834 H 0.4413 0.33342 0.59373 0.0
H3835 H 0.3062 0.24888 0.61577 0.0
H3836 H 0.71552 0.04873 0.61549 0.0
H3837 H 0.72317 0.06682 0.59852 0.0
H3838 H 0.70499 0.0855 0.62251 0.0
H3839 H 0.69722 0.0674 0.6395 0.0
H3840 H 0.69854 0.08294 0.59512 0.0
H3841 H 0.73896 0.10066 0.62266 0.0
H3842 H 0.75734 0.09993 0.63444 0.0
H3843 H 0.77022 0.09205 0.59507 0.0
H3844 H 0.75178 0.09253 0.58306 0.0
H3845 H 0.72727 0.14418 0.55702 0.0
H3846 H 0.72286 0.12918 0.5766 0.0
H3847 H 0.7381 0.10745 0.55287 0.0
H3848 H 0.74245 0.12236 0.53325 0.0
H3849 H 0.74658 0.11254 0.58095 0.0
H3850 H 0.70544 0.0936 0.55371 0.0
H3851 H 0.68707 0.09432 0.54189 0.0
H3852 H 0.67555 0.10448 0.58094 0.0
H3853 H 0.69401 0.10405 0.59297 0.0
C3854 C 0.71319 0.05671 0.6172 0.0
C3855 C 0.70575 0.05662 0.62885 0.0
C3856 C 0.71763 0.06709 0.60752 0.0
C3857 C 0.71475 0.07758 0.60932 0.0
C3858 C 0.70734 0.07752 0.62094 0.0
C3859 C 0.70293 0.06717 0.63065 0.0
C3860 C 0.71908 0.08834 0.59883 0.0
C3861 C 0.70907 0.08958 0.5922 0.0
C3862 C 0.73279 0.09677 0.5948 0.0
C3863 C 0.7439 0.0965 0.60197 0.0
C3864 C 0.74564 0.09865 0.61652 0.0
C3865 C 0.75608 0.0983 0.62324 0.0
C3866 C 0.76492 0.09591 0.61551 0.0
C3867 C 0.76335 0.09388 0.60104 0.0
C3868 C 0.75292 0.09421 0.59427 0.0
C3869 C 0.72983 0.13632 0.55608 0.0
C3870 C 0.73516 0.13439 0.54363 0.0
C3871 C 0.72729 0.12776 0.56723 0.0
C3872 C 0.73005 0.11714 0.56611 0.0
C3873 C 0.73592 0.11559 0.55393 0.0
C3874 C 0.73837 0.12408 0.54274 0.0
C3875 C 0.72604 0.10711 0.57729 0.0
C3876 C 0.73607 0.10597 0.58398 0.0
C3877 C 0.71235 0.09876 0.5814 0.0
C3878 C 0.70121 0.09895 0.57421 0.0
C3879 C 0.69907 0.09611 0.55976 0.0
C3880 C 0.68863 0.09645 0.55303 0.0
C3881 C 0.68017 0.09948 0.56065 0.0
C3882 C 0.68213 0.10216 0.57504 0.0
C3883 C 0.69257 0.10187 0.58182 0.0
H3884 H 0.67209 0.09973 0.55542 0.0
H3885 H 0.773 0.09565 0.62073 0.0
H3886 H 0.95668 0.64649 0.61884 0.0
H3887 H 0.93848 0.63676 0.60128 0.0
H3888 H 0.91149 0.6381 0.63142 0.0
H3889 H 0.92966 0.64783 0.64913 0.0
H3890 H 0.89976 0.61299 0.61646 0.0
H3891 H 0.92429 0.66151 0.60674 0.0
H3892 H 0.94475 0.68422 0.60196 0.0
H3893 H 0.9516 0.6666 0.56488 0.0
H3894 H 0.93128 0.64373 0.56954 0.0
H3895 H 0.84802 0.59196 0.56541 0.0
H3896 H 0.86462 0.60543 0.58403 0.0
H3897 H 0.89711 0.61301 0.55639 0.0
H3898 H 0.88059 0.6003 0.5375 0.0
H3899 H 0.90513 0.63508 0.57135 0.0
H3900 H 0.88297 0.58658 0.5817 0.0
H3901 H 0.86344 0.56318 0.58631 0.0
H3902 H 0.85314 0.57978 0.62177 0.0
H3903 H 0.87253 0.60332 0.61725 0.0
C3904 C 0.94689 0.64477 0.62175 0.0
C3905 C 0.94463 0.64796 0.63539 0.0
C3906 C 0.93652 0.63926 0.61168 0.0
C3907 C 0.92368 0.63685 0.61501 0.0
C3908 C 0.92134 0.63993 0.62863 0.0
C3909 C 0.93174 0.64552 0.63872 0.0
C3910 C 0.91265 0.63079 0.60432 0.0
C3911 C 0.90081 0.61792 0.60668 0.0
C3912 C 0.91418 0.63709 0.59146 0.0
C3913 C 0.92631 0.65088 0.58854 0.0
C3914 C 0.93021 0.66246 0.59761 0.0
C3915 C 0.94177 0.67536 0.59491 0.0
C3916 C 0.94948 0.67685 0.58313 0.0
C3917 C 0.94562 0.66544 0.574 0.0
C3918 C 0.93407 0.6525 0.57665 0.0
C3919 C 0.85871 0.5967 0.56322 0.0
C3920 C 0.86302 0.59514 0.54993 0.0
C3921 C 0.8682 0.60429 0.57394 0.0
C3922 C 0.88214 0.61004 0.57173 0.0
C3923 C 0.88644 0.60871 0.55839 0.0
C3924 C 0.877 0.60141 0.54761 0.0
C3925 C 0.89229 0.61708 0.58332 0.0
C3926 C 0.90398 0.63017 0.58116 0.0
C3927 C 0.89071 0.61087 0.59629 0.0
C3928 C 0.8791 0.59672 0.59904 0.0
C3929 C 0.87649 0.58525 0.59042 0.0
C3930 C 0.86545 0.57196 0.59303 0.0
C3931 C 0.85703 0.57 0.6043 0.0
C3932 C 0.85966 0.58132 0.61302 0.0
C3933 C 0.87067 0.59463 0.61045 0.0
H3934 H 0.84849 0.5597 0.6063 0.0
H3935 H 0.95843 0.68685 0.58107 0.0
H3936 H 0.96083 0.70681 0.68691 0.0
H3937 H 0.95726 0.71811 0.70727 0.0
H3938 H 0.95585 0.68752 0.73361 0.0
H3939 H 0.95961 0.67628 0.71339 0.0
H3940 H 0.93463 0.69287 0.73825 0.0
H3941 H 0.98334 0.7173 0.73436 0.0
H3942 H 0.00512 0.73065 0.72224 0.0
H3943 H 0.99731 0.76288 0.7152 0.0
H3944 H 0.97537 0.74961 0.72711 0.0
H3945 H 0.94471 0.7242 0.80595 0.0
H3946 H 0.94551 0.71294 0.78406 0.0
H3947 H 0.9527 0.74839 0.7617 0.0
H3948 H 0.95213 0.75979 0.78366 0.0
H3949 H 0.97002 0.74096 0.75395 0.0
H3950 H 0.92209 0.71758 0.7592 0.0
H3951 H 0.90026 0.7044 0.77125 0.0
H3952 H 0.90606 0.67041 0.77538 0.0
H3953 H 0.92805 0.68347 0.76355 0.0
C3954 C 0.95975 0.70248 0.69704 0.0
C3955 C 0.96055 0.69068 0.69856 0.0
C3956 C 0.95773 0.70896 0.70864 0.0
C3957 C 0.95632 0.70364 0.72192 0.0
C3958 C 0.95689 0.69175 0.72343 0.0
C3959 C 0.95911 0.6854 0.71188 0.0
C3960 C 0.95447 0.71061 0.73431 0.0
C3961 C 0.94239 0.70333 0.74179 0.0
C3962 C 0.96447 0.72439 0.73864 0.0
C3963 C 0.97764 0.73238 0.73147 0.0
C3964 C 0.9862 0.72717 0.7301 0.0
C3965 C 0.99859 0.73473 0.7233 0.0
C3966 C 0.00258 0.74759 0.71791 0.0
C3967 C 0.9942 0.75291 0.71935 0.0
C3968 C 0.98179 0.74537 0.72614 0.0
C3969 C 0.94624 0.72948 0.79632 0.0
C3970 C 0.94813 0.74275 0.79646 0.0
C3971 C 0.94668 0.72304 0.78382 0.0
C3972 C 0.949 0.72974 0.7712 0.0
C3973 C 0.95083 0.74299 0.7713 0.0
C3974 C 0.95041 0.74945 0.78381 0.0
C3975 C 0.95018 0.7232 0.75803 0.0
C3976 C 0.96216 0.73054 0.75039 0.0
C3977 C 0.94004 0.7095 0.75351 0.0
C3978 C 0.92679 0.70157 0.76059 0.0
C3979 C 0.91877 0.70734 0.76277 0.0
C3980 C 0.90636 0.69988 0.76955 0.0
C3981 C 0.90179 0.68659 0.77411 0.0
C3982 C 0.90962 0.68071 0.77186 0.0
C3983 C 0.92206 0.68813 0.76511 0.0
H3984 H 0.89217 0.68083 0.77935 0.0
H3985 H 0.01218 0.75343 0.71265 0.0
H3986 H 0.29814 0.28246 0.69983 0.0
H3987 H 0.28672 0.26408 0.71658 0.0
H3988 H 0.32514 0.2786 0.73714 0.0
H3989 H 0.33662 0.29693 0.72047 0.0
H3990 H 0.31009 0.2503 0.7337 0.0
H3991 H 0.30378 0.28672 0.75094 0.0
H3992 H 0.29672 0.30363 0.74976 0.0
H3993 H 0.25553 0.27039 0.74132 0.0
H3994 H 0.2624 0.25328 0.74226 0.0
H3995 H 0.29051 0.22412 0.80161 0.0
H3996 H 0.29978 0.23863 0.78137 0.0
H3997 H 0.2597 0.21808 0.7627 0.0
H3998 H 0.2504 0.20325 0.78278 0.0
H3999 H 0.27397 0.24775 0.76372 0.0
H4000 H 0.28038 0.21115 0.74868 0.0
H4001 H 0.28783 0.19463 0.75073 0.0
H4002 H 0.32924 0.22859 0.75577 0.0
H4003 H 0.32201 0.24533 0.75398 0.0
C4004 C 0.30416 0.28172 0.70789 0.0
C4005 C 0.31828 0.2912 0.70886 0.0
C4006 C 0.29762 0.27123 0.71747 0.0
C4007 C 0.30508 0.27004 0.72815 0.0
C4008 C 0.3192 0.27933 0.72897 0.0
C4009 C 0.32573 0.28984 0.71947 0.0
C4010 C 0.2982 0.25931 0.73868 0.0
C4011 C 0.30226 0.2498 0.74033 0.0
C4012 C 0.28779 0.25848 0.74712 0.0
C4013 C 0.28364 0.26874 0.74649 0.0
C4014 C 0.29325 0.28303 0.74869 0.0
C4015 C 0.28927 0.29264 0.7481 0.0
C4016 C 0.27569 0.28809 0.74542 0.0
C4017 C 0.26605 0.2739 0.74336 0.0
C4018 C 0.26998 0.26424 0.74393 0.0
C4019 C 0.28369 0.22262 0.79314 0.0
C4020 C 0.2697 0.21271 0.79387 0.0
C4021 C 0.289 0.23088 0.78159 0.0
C4022 C 0.2804 0.22943 0.77059 0.0
C4023 C 0.26647 0.21938 0.77114 0.0
C4024 C 0.26118 0.21096 0.7826 0.0
C4025 C 0.28595 0.23885 0.75882 0.0
C4026 C 0.28168 0.24814 0.75696 0.0
C4027 C 0.29622 0.23953 0.75026 0.0
C4028 C 0.30063 0.2295 0.75133 0.0
C4029 C 0.29106 0.2151 0.75036 0.0
C4030 C 0.29524 0.20569 0.75145 0.0
C4031 C 0.30899 0.21055 0.75342 0.0
C4032 C 0.31859 0.22484 0.75427 0.0
C4033 C 0.31445 0.23429 0.75321 0.0
H4034 H 0.31221 0.20325 0.75424 0.0
H4035 H 0.27263 0.29555 0.74497 0.0
H4036 H 0.74122 0.04764 0.67518 0.0
H4037 H 0.75683 0.05335 0.69491 0.0
H4038 H 0.72522 0.04649 0.72344 0.0
H4039 H 0.70956 0.04072 0.70385 0.0
H4040 H 0.75008 0.0709 0.72977 0.0
H4041 H 0.73245 0.02234 0.71904 0.0
H4042 H 0.72742 0.00215 0.70379 0.0
H4043 H 0.76995 0.02081 0.69586 0.0
H4044 H 0.77521 0.04121 0.71093 0.0
H4045 H 0.77445 0.06382 0.79412 0.0
H4046 H 0.76169 0.06124 0.77289 0.0
H4047 H 0.79371 0.06325 0.74802 0.0
H4048 H 0.80627 0.06535 0.76928 0.0
H4049 H 0.7702 0.04276 0.73867 0.0
H4050 H 0.78824 0.09065 0.75061 0.0
H4051 H 0.79347 0.11091 0.76584 0.0
H4052 H 0.75087 0.0942 0.7712 0.0
H4053 H 0.74537 0.07373 0.75616 0.0
C4054 C 0.73759 0.04734 0.68566 0.0
C4055 C 0.72414 0.04368 0.68795 0.0
C4056 C 0.74652 0.05059 0.69691 0.0
C4057 C 0.74215 0.0503 0.71062 0.0
C4058 C 0.72879 0.0468 0.71293 0.0
C4059 C 0.71984 0.04344 0.70172 0.0
C4060 C 0.75144 0.0535 0.72263 0.0
C4061 C 0.75441 0.0647 0.73181 0.0
C4062 C 0.75736 0.04563 0.72502 0.0
C4063 C 0.75421 0.03337 0.71598 0.0
C4064 C 0.74072 0.0222 0.71394 0.0
C4065 C 0.73783 0.0107 0.70535 0.0
C4066 C 0.74836 0.01022 0.69882 0.0
C4067 C 0.7618 0.02121 0.7009 0.0
C4068 C 0.76475 0.03274 0.70947 0.0
C4069 C 0.77885 0.06395 0.7841 0.0
C4070 C 0.79149 0.06512 0.78335 0.0
C4071 C 0.77158 0.06251 0.77198 0.0
C4072 C 0.77685 0.06231 0.75883 0.0
C4073 C 0.78949 0.06349 0.75804 0.0
C4074 C 0.79671 0.0648 0.77018 0.0
C4075 C 0.76881 0.06014 0.74596 0.0
C4076 C 0.76603 0.04911 0.7366 0.0
C4077 C 0.76314 0.06823 0.74337 0.0
C4078 C 0.7664 0.08059 0.75234 0.0
C4079 C 0.77999 0.09125 0.75511 0.0
C4080 C 0.783 0.10278 0.7637 0.0
C4081 C 0.77251 0.10383 0.7695 0.0
C4082 C 0.75898 0.09337 0.7667 0.0
C4083 C 0.75591 0.0818 0.75813 0.0
H4084 H 0.77486 0.11277 0.77615 0.0
H4085 H 0.7461 0.00131 0.69218 0.0
H4086 H 0.01473 0.32266 0.04869 0.0
H4087 H 0.02934 0.31585 0.05879 0.0
H4088 H 0.05947 0.33815 0.02766 0.0
H4089 H 0.04447 0.34451 0.01704 0.0
H4090 H 0.05724 0.31471 0.03051 0.0
H4091 H 0.06377 0.35013 0.06304 0.0
H4092 H 0.05764 0.36337 0.07903 0.0
H4093 H 0.03617 0.32807 0.10467 0.0
H4094 H 0.042 0.31454 0.08873 0.0
H4095 H 0.10679 0.29933 0.06848 0.0
H4096 H 0.09509 0.31322 0.0553 0.0
H4097 H 0.05256 0.28687 0.08278 0.0
H4098 H 0.06309 0.27236 0.0968 0.0
H4099 H 0.06463 0.31708 0.08161 0.0
H4100 H 0.05694 0.28161 0.04686 0.0
H4101 H 0.06392 0.26918 0.03075 0.0
H4102 H 0.0896 0.3068 0.00939 0.0
H4103 H 0.08291 0.3195 0.0255 0.0
C4104 C 0.02451 0.32624 0.04403 0.0
C4105 C 0.02848 0.33419 0.0321 0.0
C4106 C 0.03293 0.3224 0.04989 0.0
C4107 C 0.04568 0.32674 0.04421 0.0
C4108 C 0.04971 0.33474 0.0323 0.0
C4109 C 0.04116 0.33839 0.02625 0.0
C4110 C 0.05437 0.32223 0.05038 0.0
C4111 C 0.05916 0.31558 0.04165 0.0
C4112 C 0.05679 0.32319 0.06495 0.0
C4113 C 0.05326 0.33129 0.07462 0.0
C4114 C 0.05767 0.34516 0.07203 0.0
C4115 C 0.05425 0.35272 0.0811 0.0
C4116 C 0.0465 0.34656 0.09284 0.0
C4117 C 0.04217 0.33283 0.09556 0.0
C4118 C 0.04555 0.32521 0.08653 0.0
C4119 C 0.09654 0.29663 0.0707 0.0
C4120 C 0.08706 0.28619 0.0859 0.0
C4121 C 0.08943 0.30565 0.06306 0.0
C4122 C 0.07298 0.30219 0.06826 0.0
C4123 C 0.0626 0.28902 0.08041 0.0
C4124 C 0.06874 0.27941 0.08863 0.0
C4125 C 0.06721 0.30948 0.06175 0.0
C4126 C 0.06295 0.31656 0.07045 0.0
C4127 C 0.06554 0.30918 0.04717 0.0
C4128 C 0.06956 0.30154 0.0375 0.0
C4129 C 0.06417 0.28726 0.03881 0.0
C4130 C 0.06805 0.28016 0.02966 0.0
C4131 C 0.07724 0.2872 0.01909 0.0
C4132 C 0.08252 0.30136 0.01761 0.0
C4133 C 0.07868 0.30851 0.02674 0.0
H4134 H 0.08023 0.28169 0.01201 0.0
H4135 H 0.04387 0.35243 0.09985 0.0
H4136 H 0.64665 0.68078 0.05186 0.0
H4137 H 0.65634 0.70221 0.06641 0.0
H4138 H 0.69549 0.7173 0.04799 0.0
H4139 H 0.68597 0.69595 0.03355 0.0
H4140 H 0.69736 0.72015 0.07599 0.0
H4141 H 0.6764 0.73042 0.03937 0.0
H4142 H 0.65759 0.72637 0.02405 0.0
H4143 H 0.63538 0.72693 0.0597 0.0
H4144 H 0.65398 0.73079 0.07526 0.0
H4145 H 0.73974 0.79647 0.10073 0.0
H4146 H 0.72597 0.76963 0.0862 0.0
H4147 H 0.68107 0.7583 0.10515 0.0
H4148 H 0.69369 0.78493 0.12029 0.0
H4149 H 0.68031 0.75198 0.07697 0.0
H4150 H 0.70145 0.74285 0.11345 0.0
H4151 H 0.71999 0.74672 0.12907 0.0
H4152 H 0.74153 0.74363 0.09405 0.0
H4153 H 0.7232 0.73994 0.07817 0.0
C4154 C 0.6573 0.6887 0.05084 0.0
C4155 C 0.66554 0.68664 0.04157 0.0
C4156 C 0.66281 0.70096 0.05913 0.0
C4157 C 0.67662 0.71137 0.05824 0.0
C4158 C 0.68481 0.70939 0.04886 0.0
C4159 C 0.67933 0.69718 0.04059 0.0
C4160 C 0.68275 0.72414 0.06739 0.0
C4161 C 0.69376 0.72722 0.07605 0.0
C4162 C 0.67773 0.73308 0.06782 0.0
C4163 C 0.66651 0.73073 0.05849 0.0
C4164 C 0.66745 0.72955 0.04396 0.0
C4165 C 0.65684 0.72732 0.03523 0.0
C4166 C 0.64528 0.72635 0.0409 0.0
C4167 C 0.64432 0.72765 0.05532 0.0
C4168 C 0.6549 0.72987 0.0641 0.0
C4169 C 0.72902 0.78912 0.10219 0.0
C4170 C 0.71775 0.79449 0.11006 0.0
C4171 C 0.72024 0.77264 0.09268 0.0
C4172 C 0.70198 0.76136 0.09351 0.0
C4173 C 0.69191 0.76557 0.10454 0.0
C4174 C 0.69972 0.78182 0.11449 0.0
C4175 C 0.69511 0.74811 0.08528 0.0
C4176 C 0.6839 0.7449 0.0769 0.0
C4177 C 0.69995 0.73904 0.08508 0.0
C4178 C 0.711 0.74126 0.0946 0.0
C4179 C 0.71019 0.74311 0.10906 0.0
C4180 C 0.72065 0.74525 0.11797 0.0
C4181 C 0.73195 0.74546 0.11255 0.0
C4182 C 0.73278 0.74349 0.09823 0.0
C4183 C 0.72235 0.74135 0.08927 0.0
H4184 H 0.74004 0.74712 0.11947 0.0
H4185 H 0.63708 0.72463 0.03412 0.0
H4186 H 0.31773 0.9928 0.04088 0.0
H4187 H 0.2978 0.97766 0.05456 0.0
H4188 H 0.27953 0.94928 0.01891 0.0
H4189 H 0.29938 0.96451 0.00503 0.0
H4190 H 0.26157 0.9541 0.03206 0.0
H4191 H 0.29444 0.94262 0.04583 0.0
H4192 H 0.31631 0.94746 0.05528 0.0
H4193 H 0.30974 0.96369 0.09354 0.0
H4194 H 0.28795 0.95914 0.08426 0.0
H4195 H 0.20952 0.89528 0.06591 0.0
H4196 H 0.22867 0.91221 0.05229 0.0
H4197 H 0.24812 0.93705 0.08983 0.0
H4198 H 0.22934 0.91978 0.10354 0.0
H4199 H 0.26557 0.93488 0.07595 0.0
H4200 H 0.23351 0.94687 0.06375 0.0
H4201 H 0.21172 0.94309 0.05545 0.0
H4202 H 0.21678 0.92794 0.01569 0.0
H4203 H 0.23852 0.93145 0.02381 0.0
C4204 C 0.3095 0.98333 0.03593 0.0
C4205 C 0.31017 0.97984 0.02186 0.0
C4206 C 0.29813 0.97466 0.04379 0.0
C4207 C 0.28725 0.96227 0.0378 0.0
C4208 C 0.28783 0.95879 0.02374 0.0
C4209 C 0.2992 0.96748 0.01584 0.0
C4210 C 0.27522 0.95297 0.04617 0.0
C4211 C 0.26239 0.94974 0.04157 0.0
C4212 C 0.2764 0.94773 0.05885 0.0
C4213 C 0.28961 0.95064 0.06431 0.0
C4214 C 0.29772 0.94734 0.05621 0.0
C4215 C 0.31009 0.95001 0.06154 0.0
C4216 C 0.3144 0.95588 0.075 0.0
C4217 C 0.30639 0.95914 0.08312 0.0
C4218 C 0.29403 0.95652 0.07784 0.0
C4219 C 0.21779 0.90449 0.0712 0.0
C4220 C 0.21777 0.90635 0.08574 0.0
C4221 C 0.22871 0.91419 0.06341 0.0
C4222 C 0.23977 0.92607 0.06998 0.0
C4223 C 0.23969 0.92802 0.0845 0.0
C4224 C 0.22888 0.9182 0.09232 0.0
C4225 C 0.25182 0.93594 0.06187 0.0
C4226 C 0.26468 0.93927 0.06648 0.0
C4227 C 0.25069 0.94147 0.04935 0.0
C4228 C 0.23759 0.9393 0.04444 0.0
C4229 C 0.22992 0.94262 0.05327 0.0
C4230 C 0.21759 0.94055 0.04859 0.0
C4231 C 0.21285 0.93524 0.03507 0.0
C4232 C 0.22045 0.93203 0.02618 0.0
C4233 C 0.23279 0.93407 0.03081 0.0
H4234 H 0.2033 0.93365 0.03146 0.0
H4235 H 0.32391 0.95784 0.07917 0.0
H4236 H 0.3128 0.01992 0.98473 0.0
H4237 H 0.30753 0.03533 0.97344 0.0
H4238 H 0.34745 0.07044 0.98437 0.0
H4239 H 0.35272 0.05497 0.99612 0.0
H4240 H 0.32839 0.07699 0.98762 0.0
H4241 H 0.34071 0.05636 0.9513 0.0
H4242 H 0.34059 0.03736 0.93788 0.0
H4243 H 0.29817 0.01857 0.92829 0.0
H4244 H 0.29798 0.03735 0.94182 0.0
H4245 H 0.31409 0.116 0.94122 0.0
H4246 H 0.32542 0.1053 0.95163 0.0
H4247 H 0.28836 0.06503 0.94697 0.0
H4248 H 0.2771 0.07562 0.93645 0.0
H4249 H 0.31031 0.06408 0.93909 0.0
H4250 H 0.29792 0.08359 0.97809 0.0
H4251 H 0.29836 0.10275 0.99156 0.0
H4252 H 0.34178 0.12418 0.99565 0.0
H4253 H 0.34161 0.10522 0.98203 0.0
C4254 C 0.32047 0.03092 0.98481 0.0
C4255 C 0.33323 0.03622 0.99119 0.0
C4256 C 0.31746 0.03972 0.97828 0.0
C4257 C 0.32722 0.05398 0.97775 0.0
C4258 C 0.33982 0.05943 0.98456 0.0
C4259 C 0.34281 0.05061 0.99126 0.0
C4260 C 0.3241 0.06297 0.96991 0.0
C4261 C 0.3247 0.07435 0.97692 0.0
C4262 C 0.31924 0.0595 0.95595 0.0
C4263 C 0.31933 0.04825 0.94765 0.0
C4264 C 0.33134 0.04814 0.9464 0.0
C4265 C 0.33132 0.03741 0.93876 0.0
C4266 C 0.31937 0.02676 0.93225 0.0
C4267 C 0.30742 0.02683 0.93333 0.0
C4268 C 0.30737 0.03753 0.94097 0.0
C4269 C 0.30845 0.10484 0.94227 0.0
C4270 C 0.29478 0.09659 0.93781 0.0
C4271 C 0.31489 0.09877 0.94829 0.0
C4272 C 0.30771 0.08438 0.95012 0.0
C4273 C 0.29411 0.07614 0.94558 0.0
C4274 C 0.28769 0.08219 0.93957 0.0
C4275 C 0.31413 0.07777 0.95697 0.0
C4276 C 0.3142 0.06686 0.94973 0.0
C4277 C 0.31969 0.08175 0.97065 0.0
C4278 C 0.31977 0.09308 0.97892 0.0
C4279 C 0.30757 0.09244 0.98177 0.0
C4280 C 0.30777 0.10325 0.98945 0.0
C4281 C 0.3201 0.1147 0.99442 0.0
C4282 C 0.33224 0.11533 0.99177 0.0
C4283 C 0.3321 0.10455 0.98408 0.0
H4284 H 0.32023 0.12306 0.00036 0.0
H4285 H 0.31938 0.01845 0.92636 0.0
H4286 H 0.97633 0.30828 0.9783 0.0
H4287 H 0.96254 0.2856 0.96636 0.0
H4288 H 0.95337 0.26579 0.00579 0.0
H4289 H 0.96734 0.28854 0.01788 0.0
H4290 H 0.96207 0.25395 0.98668 0.0
H4291 H 0.92897 0.26682 0.9879 0.0
H4292 H 0.92026 0.28213 0.98456 0.0
H4293 H 0.92725 0.282 0.94063 0.0
H4294 H 0.93619 0.26684 0.94372 0.0
H4295 H 0.91462 0.18014 0.95451 0.0
H4296 H 0.92837 0.20568 0.97129 0.0
H4297 H 0.93277 0.23347 0.93006 0.0
H4298 H 0.91905 0.20855 0.91215 0.0
H4299 H 0.92503 0.24144 0.9526 0.0
H4300 H 0.95969 0.23089 0.9509 0.0
H4301 H 0.96983 0.21673 0.95332 0.0
H4302 H 0.96139 0.21369 0.99707 0.0
H4303 H 0.95105 0.22769 0.99487 0.0
C4304 C 0.97128 0.29913 0.98448 0.0
C4305 C 0.97297 0.30022 0.99905 0.0
C4306 C 0.96333 0.28616 0.97763 0.0
C4307 C 0.95685 0.27401 0.9852 0.0
C4308 C 0.95827 0.27505 0.99977 0.0
C4309 C 0.96621 0.28806 0.00666 0.0
C4310 C 0.94932 0.26024 0.97774 0.0
C4311 C 0.95375 0.25105 0.97947 0.0
C4312 C 0.93879 0.25671 0.96798 0.0
C4313 C 0.93334 0.26576 0.96607 0.0
C4314 C 0.92874 0.27013 0.97754 0.0
C4315 C 0.92375 0.27877 0.97568 0.0
C4316 C 0.92323 0.28305 0.96239 0.0
C4317 C 0.92767 0.27868 0.95092 0.0
C4318 C 0.93268 0.27004 0.95272 0.0
C4319 C 0.91864 0.19006 0.94982 0.0
C4320 C 0.91326 0.19146 0.93208 0.0
C4321 C 0.92669 0.20599 0.9603 0.0
C4322 C 0.93147 0.22227 0.95271 0.0
C4323 C 0.92929 0.22346 0.93431 0.0
C4324 C 0.92133 0.20812 0.92295 0.0
C4325 C 0.93782 0.23518 0.96152 0.0
C4326 C 0.93322 0.24423 0.95996 0.0
C4327 C 0.94827 0.23865 0.97134 0.0
C4328 C 0.95443 0.23018 0.97268 0.0
C4329 C 0.95989 0.2271 0.96101 0.0
C4330 C 0.96569 0.21912 0.96235 0.0
C4331 C 0.96621 0.21427 0.97533 0.0
C4332 C 0.96096 0.21742 0.98701 0.0
C4333 C 0.95513 0.22539 0.98573 0.0
H4334 H 0.97071 0.2081 0.97635 0.0
H4335 H 0.91936 0.28975 0.96098 0.0
H4336 H 0.69161 0.67503 0.96906 0.0
H4337 H 0.71295 0.68155 0.95766 0.0
H4338 H 0.72513 0.66797 0.99282 0.0
H4339 H 0.70372 0.6613 0.0043 0.0
H4340 H 0.74557 0.69476 0.98311 0.0
H4341 H 0.71456 0.64775 0.9652 0.0
H4342 H 0.69331 0.62904 0.95388 0.0
H4343 H 0.70267 0.65278 0.91721 0.0
H4344 H 0.7239 0.67172 0.9284 0.0
H4345 H 0.80143 0.69451 0.95339 0.0
H4346 H 0.78082 0.68974 0.96529 0.0
H4347 H 0.76429 0.69287 0.92649 0.0
H4348 H 0.78448 0.69672 0.91442 0.0
H4349 H 0.74587 0.67181 0.93825 0.0
H4350 H 0.77641 0.71865 0.95477 0.0
H4351 H 0.7973 0.73852 0.9655 0.0
H4352 H 0.78877 0.7172 0.00374 0.0
H4353 H 0.76793 0.69712 0.99318 0.0
C4354 C 0.6988 0.6734 0.97437 0.0
C4355 C 0.69596 0.6676 0.98757 0.0
C4356 C 0.71098 0.67711 0.96783 0.0
C4357 C 0.72057 0.67519 0.97439 0.0
C4358 C 0.71784 0.66953 0.98761 0.0
C4359 C 0.70558 0.66566 0.99411 0.0
C4360 C 0.7334 0.679 0.96736 0.0
C4361 C 0.74571 0.68966 0.97339 0.0
C4362 C 0.73346 0.67264 0.95446 0.0
C4363 C 0.72075 0.6612 0.94769 0.0
C4364 C 0.71204 0.64902 0.95476 0.0
C4365 C 0.70001 0.63837 0.94836 0.0
C4366 C 0.69663 0.63974 0.93484 0.0
C4367 C 0.70529 0.65174 0.92768 0.0
C4368 C 0.71733 0.66243 0.93405 0.0
C4369 C 0.79345 0.69436 0.94746 0.0
C4370 C 0.79472 0.69626 0.93303 0.0
C4371 C 0.7817 0.69172 0.95427 0.0
C4372 C 0.77106 0.69121 0.94687 0.0
C4373 C 0.77237 0.69327 0.93247 0.0
C4374 C 0.78399 0.6956 0.92559 0.0
C4375 C 0.75824 0.6877 0.95393 0.0
C4376 C 0.74585 0.67704 0.94794 0.0
C4377 C 0.75813 0.69427 0.96674 0.0
C4378 C 0.77067 0.70632 0.97313 0.0
C4379 C 0.77905 0.71815 0.96543 0.0
C4380 C 0.79087 0.72946 0.97149 0.0
C4381 C 0.79438 0.72911 0.98528 0.0
C4382 C 0.78605 0.71745 0.99305 0.0
C4383 C 0.77422 0.70611 0.98704 0.0
H4384 H 0.80353 0.73787 0.98995 0.0
H4385 H 0.6873 0.63148 0.92991 0.0
H4386 H 0.99128 0.69263 0.9756 0.0
H4387 H 0.97814 0.70163 0.96626 0.0
H4388 H 0.9428 0.67106 0.988 0.0
H4389 H 0.95596 0.66194 0.99759 0.0
H4390 H 0.93783 0.67569 0.95937 0.0
H4391 H 0.95808 0.70049 0.00259 0.0
H4392 H 0.97681 0.71352 0.01972 0.0
H4393 H 0.99891 0.74552 0.99056 0.0
H4394 H 0.98039 0.73255 0.97314 0.0
H4395 H 0.90216 0.711 0.9562 0.0
H4396 H 0.9128 0.69839 0.96307 0.0
H4397 H 0.95132 0.73135 0.94821 0.0
H4398 H 0.94074 0.7441 0.94154 0.0
H4399 H 0.95385 0.72453 0.97375 0.0
H4400 H 0.93305 0.69966 0.93052 0.0
H4401 H 0.91421 0.68633 0.91355 0.0
H4402 H 0.89284 0.65426 0.94282 0.0
H4403 H 0.91148 0.6675 0.96005 0.0
C4404 C 0.98068 0.68769 0.97833 0.0
C4405 C 0.97469 0.67663 0.98744 0.0
C4406 C 0.97319 0.69286 0.97296 0.0
C4407 C 0.95956 0.68706 0.97653 0.0
C4408 C 0.95333 0.67564 0.98514 0.0
C4409 C 0.96087 0.67051 0.99064 0.0
C4410 C 0.95222 0.69364 0.97195 0.0
C4411 C 0.94117 0.68629 0.96264 0.0
C4412 C 0.95679 0.70755 0.97606 0.0
C4413 C 0.96791 0.71548 0.98652 0.0
C4414 C 0.96699 0.71025 0.99978 0.0
C4415 C 0.97756 0.71763 0.00955 0.0
C4416 C 0.98906 0.73032 0.00622 0.0
C4417 C 0.99001 0.73568 0.99312 0.0
C4418 C 0.97947 0.72832 0.98329 0.0
C4419 C 0.91285 0.71542 0.95418 0.0
C4420 C 0.92058 0.72841 0.94812 0.0
C4421 C 0.91891 0.70821 0.95809 0.0
C4422 C 0.93282 0.71385 0.95601 0.0
C4423 C 0.94055 0.72677 0.94985 0.0
C4424 C 0.9345 0.734 0.94596 0.0
C4425 C 0.93949 0.70667 0.96097 0.0
C4426 C 0.95045 0.71392 0.97043 0.0
C4427 C 0.93478 0.69266 0.957 0.0
C4428 C 0.92361 0.68464 0.94663 0.0
C4429 C 0.92429 0.68982 0.93338 0.0
C4430 C 0.91365 0.68227 0.92371 0.0
C4431 C 0.90232 0.66947 0.92712 0.0
C4432 C 0.90162 0.66418 0.9402 0.0
C4433 C 0.91222 0.6717 0.94992 0.0
H4434 H 0.8941 0.66364 0.91962 0.0
H4435 H 0.99719 0.736 0.01383 0.0
H4436 H 0.34215 0.30721 0.00151 0.0
H4437 H 0.33102 0.28476 0.98867 0.0
H4438 H 0.31614 0.30048 0.95804 0.0
H4439 H 0.32715 0.32292 0.97084 0.0
H4440 H 0.29613 0.27596 0.96741 0.0
H4441 H 0.3409 0.29432 0.94985 0.0
H4442 H 0.36573 0.30521 0.95132 0.0
H4443 H 0.36046 0.27097 0.97414 0.0
H4444 H 0.33558 0.25997 0.97299 0.0
H4445 H 0.26556 0.21419 0.92527 0.0
H4446 H 0.2809 0.23875 0.93221 0.0
H4447 H 0.2992 0.22733 0.96358 0.0
H4448 H 0.28416 0.20282 0.95638 0.0
H4449 H 0.31814 0.25055 0.95177 0.0
H4450 H 0.27398 0.23342 0.97144 0.0
H4451 H 0.24909 0.22236 0.97068 0.0
H4452 H 0.2533 0.25431 0.94474 0.0
H4453 H 0.27821 0.26544 0.94518 0.0
C4454 C 0.33665 0.30595 0.99196 0.0
C4455 C 0.33549 0.31684 0.98725 0.0
C4456 C 0.33034 0.29312 0.98459 0.0
C4457 C 0.32281 0.29097 0.97235 0.0
C4458 C 0.3219 0.30192 0.96746 0.0
C4459 C 0.32823 0.31475 0.97479 0.0
C4460 C 0.31512 0.27703 0.9652 0.0
C4461 C 0.30098 0.27052 0.96374 0.0
C4462 C 0.32141 0.2698 0.96074 0.0
C4463 C 0.33637 0.27638 0.96143 0.0
C4464 C 0.34503 0.28917 0.95528 0.0
C4465 C 0.35912 0.29535 0.95604 0.0
C4466 C 0.36467 0.2888 0.96284 0.0
C4467 C 0.35614 0.27604 0.96888 0.0
C4468 C 0.34205 0.26981 0.96817 0.0
C4469 C 0.27307 0.21697 0.93342 0.0
C4470 C 0.27381 0.20663 0.94018 0.0
C4471 C 0.28176 0.23098 0.93745 0.0
C4472 C 0.29109 0.23486 0.94853 0.0
C4473 C 0.29212 0.22459 0.95498 0.0
C4474 C 0.28352 0.2106 0.95088 0.0
C4475 C 0.29916 0.24948 0.95405 0.0
C4476 C 0.31333 0.25609 0.95527 0.0
C4477 C 0.29291 0.25679 0.9584 0.0
C4478 C 0.27794 0.25017 0.95822 0.0
C4479 C 0.26959 0.23803 0.96549 0.0
C4480 C 0.25548 0.23175 0.96513 0.0
C4481 C 0.24961 0.23761 0.95763 0.0
C4482 C 0.25785 0.24977 0.95052 0.0
C4483 C 0.27197 0.25607 0.95082 0.0
H4484 H 0.23869 0.23274 0.95737 0.0
H4485 H 0.37558 0.2936 0.96342 0.0
H4486 H 0.69364 0.02414 0.00818 0.0
H4487 H 0.71426 0.0368 0.99456 0.0
H4488 H 0.69219 0.0439 0.96354 0.0
H4489 H 0.67146 0.03121 0.97709 0.0
H4490 H 0.70591 0.03232 0.95244 0.0
H4491 H 0.71587 0.07068 0.98354 0.0
H4492 H 0.71883 0.08276 0.00635 0.0
H4493 H 0.75058 0.07604 0.01738 0.0
H4494 H 0.74768 0.06374 0.99471 0.0
H4495 H 0.76291 0.07294 0.91072 0.0
H4496 H 0.7433 0.06579 0.92564 0.0
H4497 H 0.76393 0.05971 0.95912 0.0
H4498 H 0.78371 0.06715 0.9443 0.0
H4499 H 0.75085 0.07201 0.9688 0.0
H4500 H 0.74016 0.03242 0.93932 0.0
H4501 H 0.73733 0.01956 0.91705 0.0
H4502 H 0.70698 0.02751 0.90371 0.0
H4503 H 0.70978 0.0406 0.92584 0.0
C4504 C 0.69321 0.0286 0.99858 0.0
C4505 C 0.68089 0.02662 0.99369 0.0
C4506 C 0.70503 0.03588 0.99083 0.0
C4507 C 0.70476 0.04132 0.97806 0.0
C4508 C 0.6926 0.03979 0.97339 0.0
C4509 C 0.68078 0.03258 0.98117 0.0
C4510 C 0.71686 0.04754 0.96908 0.0
C4511 C 0.71567 0.04119 0.9559 0.0
C4512 C 0.72969 0.05878 0.97382 0.0
C4513 C 0.73147 0.06618 0.98746 0.0
C4514 C 0.7234 0.07167 0.99088 0.0
C4515 C 0.72509 0.07858 0.00377 0.0
C4516 C 0.73486 0.08014 0.01332 0.0
C4517 C 0.743 0.07481 0.00998 0.0
C4518 C 0.74135 0.06789 0.9971 0.0
C4519 C 0.76333 0.07027 0.92133 0.0
C4520 C 0.77492 0.07081 0.92644 0.0
C4521 C 0.7521 0.06611 0.92981 0.0
C4522 C 0.75212 0.06213 0.94346 0.0
C4523 C 0.76373 0.0628 0.94864 0.0
C4524 C 0.775 0.06702 0.94018 0.0
C4525 C 0.73987 0.05681 0.95216 0.0
C4526 C 0.74104 0.06325 0.96529 0.0
C4527 C 0.72703 0.04553 0.94747 0.0
C4528 C 0.72529 0.03762 0.93417 0.0
C4529 C 0.73296 0.03153 0.93159 0.0
C4530 C 0.73135 0.02418 0.91901 0.0
C4531 C 0.72201 0.02275 0.90896 0.0
C4532 C 0.71423 0.02864 0.9115 0.0
C4533 C 0.71582 0.03602 0.92406 0.0
H4534 H 0.72078 0.01706 0.89922 0.0
H4535 H 0.73615 0.08549 0.0233 0.0
H4536 H 0.68703 0.978 0.01194 0.0
H4537 H 0.69529 0.96462 0.02243 0.0
H4538 H 0.66085 0.94619 0.04964 0.0
H4539 H 0.65265 0.95987 0.0394 0.0
H4540 H 0.68322 0.9537 0.06388 0.0
H4541 H 0.66277 0.9274 0.02166 0.0
H4542 H 0.65798 0.92338 0.99638 0.0
H4543 H 0.69991 0.93826 0.9887 0.0
H4544 H 0.70499 0.94255 0.01393 0.0
H4545 H 0.70544 0.89895 0.06053 0.0
H4546 H 0.69111 0.9074 0.05304 0.0
H4547 H 0.72023 0.94819 0.07073 0.0
H4548 H 0.73444 0.93965 0.0785 0.0
H4549 H 0.69674 0.92606 0.03487 0.0
H4550 H 0.70461 0.96529 0.08025 0.0
H4551 H 0.70758 0.96753 0.10581 0.0
H4552 H 0.68716 0.92318 0.10783 0.0
H4553 H 0.68388 0.92065 0.08232 0.0
C4554 C 0.68114 0.97104 0.02009 0.0
C4555 C 0.66915 0.96997 0.0248 0.0
C4556 C 0.68586 0.96335 0.02605 0.0
C4557 C 0.6786 0.95425 0.0367 0.0
C4558 C 0.6666 0.95312 0.04142 0.0
C4559 C 0.66191 0.96091 0.03552 0.0
C4560 C 0.68381 0.94624 0.04308 0.0
C4561 C 0.68611 0.94759 0.05755 0.0
C4562 C 0.6873 0.93801 0.03488 0.0
C4563 C 0.68428 0.93538 0.01969 0.0
C4564 C 0.67099 0.9299 0.01458 0.0
C4565 C 0.66822 0.92756 0.00026 0.0
C4566 C 0.67864 0.93058 0.99094 0.0
C4567 C 0.69185 0.93592 0.99593 0.0
C4568 C 0.69468 0.93829 0.01024 0.0
C4569 C 0.70863 0.90964 0.06305 0.0
C4570 C 0.72097 0.91862 0.07021 0.0
C4571 C 0.70048 0.91448 0.05872 0.0
C4572 C 0.70453 0.9284 0.0614 0.0
C4573 C 0.71676 0.93734 0.06877 0.0
C4574 C 0.72489 0.93248 0.07316 0.0
C4575 C 0.69651 0.93383 0.05562 0.0
C4576 C 0.69371 0.93203 0.04124 0.0
C4577 C 0.69231 0.94139 0.06396 0.0
C4578 C 0.6941 0.9428 0.07934 0.0
C4579 C 0.70069 0.95601 0.08615 0.0
C4580 C 0.70244 0.95733 0.10063 0.0
C4581 C 0.6976 0.94551 0.10843 0.0
C4582 C 0.69095 0.93233 0.10177 0.0
C4583 C 0.68916 0.93095 0.0873 0.0
H4584 H 0.69897 0.94655 0.11964 0.0
H4585 H 0.67647 0.92876 0.97985 0.0
H4586 H 0.01119 0.70356 0.02899 0.0
H4587 H 0.02485 0.72734 0.03867 0.0
H4588 H 0.06142 0.72729 0.0309 0.0
H4589 H 0.04779 0.70341 0.0211 0.0
H4590 H 0.06116 0.73822 0.05732 0.0
H4591 H 0.05295 0.74326 0.0101 0.0
H4592 H 0.03973 0.73975 0.98872 0.0
H4593 H 0.01972 0.758 0.00948 0.0
H4594 H 0.03239 0.76108 0.03117 0.0
H4595 H 0.1072 0.81187 0.06518 0.0
H4596 H 0.0942 0.78752 0.05676 0.0
H4597 H 0.05684 0.78629 0.06344 0.0
H4598 H 0.06983 0.81066 0.07194 0.0
H4599 H 0.05807 0.77608 0.03734 0.0
H4600 H 0.06556 0.76998 0.08484 0.0
H4601 H 0.07928 0.77409 0.106 0.0
H4602 H 0.1014 0.75876 0.08419 0.0
H4603 H 0.08794 0.75477 0.06281 0.0
C4604 C 0.02214 0.70857 0.02935 0.0
C4605 C 0.02842 0.7016 0.02425 0.0
C4606 C 0.02993 0.72219 0.03485 0.0
C4607 C 0.04414 0.7291 0.0354 0.0
C4608 C 0.05045 0.72212 0.03054 0.0
C4609 C 0.04266 0.70851 0.0249 0.0
C4610 C 0.05235 0.74363 0.04104 0.0
C4611 C 0.06063 0.74655 0.05284 0.0
C4612 C 0.05142 0.75441 0.03533 0.0
C4613 C 0.0435 0.75221 0.02236 0.0
C4614 C 0.04555 0.74629 0.0102 0.0
C4615 C 0.03815 0.74438 0.99801 0.0
C4616 C 0.0288 0.74854 0.99777 0.0
C4617 C 0.02686 0.75465 0.00972 0.0
C4618 C 0.03412 0.75644 0.02198 0.0
C4619 C 0.09621 0.80634 0.06502 0.0
C4620 C 0.08951 0.81311 0.06925 0.0
C4621 C 0.08881 0.79244 0.06023 0.0
C4622 C 0.07457 0.7851 0.05954 0.0
C4623 C 0.06783 0.79179 0.0639 0.0
C4624 C 0.07523 0.80566 0.06879 0.0
C4625 C 0.06673 0.77061 0.0537 0.0
C4626 C 0.05855 0.76773 0.04183 0.0
C4627 C 0.06777 0.75989 0.05932 0.0
C4628 C 0.07583 0.76221 0.07218 0.0
C4629 C 0.07343 0.7676 0.08451 0.0
C4630 C 0.08114 0.76989 0.09656 0.0
C4631 C 0.09123 0.76672 0.09643 0.0
C4632 C 0.09359 0.76123 0.08427 0.0
C4633 C 0.08592 0.75894 0.07219 0.0
H4634 H 0.09719 0.7685 0.10577 0.0
H4635 H 0.02313 0.74711 0.9883 0.0
H4636 H 0.30457 0.35188 0.01741 0.0
H4637 H 0.28186 0.34151 0.02731 0.0
H4638 H 0.28887 0.3144 0.05103 0.0
H4639 H 0.31148 0.32463 0.04122 0.0
H4640 H 0.26481 0.30027 0.03673 0.0
H4641 H 0.28866 0.34097 0.06715 0.0
H4642 H 0.30323 0.36608 0.07297 0.0
H4643 H 0.27484 0.37316 0.05249 0.0
H4644 H 0.26019 0.34809 0.04637 0.0
H4645 H 0.20508 0.27023 0.07597 0.0
H4646 H 0.22928 0.28364 0.07048 0.0
H4647 H 0.22342 0.31237 0.04825 0.0
H4648 H 0.19929 0.29918 0.05402 0.0
H4649 H 0.24716 0.32602 0.06243 0.0
H4650 H 0.22388 0.28601 0.0311 0.0
H4651 H 0.20915 0.26104 0.0247 0.0
H4652 H 0.23643 0.25289 0.04594 0.0
H4653 H 0.25123 0.2778 0.05266 0.0
C4654 C 0.30132 0.34381 0.02484 0.0
C4655 C 0.30983 0.33906 0.02849 0.0
C4656 C 0.28836 0.33793 0.03052 0.0
C4657 C 0.2837 0.32721 0.03994 0.0
C4658 C 0.29227 0.32264 0.04377 0.0
C4659 C 0.30521 0.32854 0.03816 0.0
C4660 C 0.26966 0.32022 0.04528 0.0
C4661 C 0.26102 0.30587 0.04254 0.0
C4662 C 0.26461 0.3276 0.05251 0.0
C4663 C 0.2734 0.34267 0.05618 0.0
C4664 C 0.28559 0.3479 0.06378 0.0
C4665 C 0.29385 0.36212 0.06715 0.0
C4666 C 0.28999 0.37122 0.06307 0.0
C4667 C 0.27783 0.3661 0.05563 0.0
C4668 C 0.26954 0.35189 0.05222 0.0
C4669 C 0.20903 0.27959 0.07019 0.0
C4670 C 0.20035 0.28378 0.06556 0.0
C4671 C 0.22282 0.28718 0.06697 0.0
C4672 C 0.22812 0.29892 0.05881 0.0
C4673 C 0.21956 0.30338 0.05458 0.0
C4674 C 0.2058 0.29584 0.05787 0.0
C4675 C 0.24236 0.30605 0.05395 0.0
C4676 C 0.251 0.32042 0.0567 0.0
C4677 C 0.24741 0.29872 0.04661 0.0
C4678 C 0.23858 0.28375 0.04251 0.0
C4679 C 0.22669 0.27888 0.03449 0.0
C4680 C 0.21833 0.26474 0.0308 0.0
C4681 C 0.22184 0.25538 0.03494 0.0
C4682 C 0.23372 0.26015 0.04276 0.0
C4683 C 0.2421 0.27428 0.04651 0.0
H4684 H 0.21536 0.24443 0.03207 0.0
H4685 H 0.29639 0.38222 0.06569 0.0
H4686 H 0.71176 0.68521 0.35111 0.0
H4687 H 0.72608 0.67764 0.36087 0.0
H4688 H 0.69835 0.65949 0.39483 0.0
H4689 H 0.68402 0.66704 0.38522 0.0
H4690 H 0.72521 0.67377 0.40358 0.0
H4691 H 0.69685 0.63921 0.36802 0.0
H4692 H 0.68718 0.63098 0.3443 0.0
H4693 H 0.72716 0.64708 0.32813 0.0
H4694 H 0.73709 0.65558 0.35174 0.0
H4695 H 0.74573 0.62684 0.43542 0.0
H4696 H 0.73269 0.64024 0.42426 0.0
H4697 H 0.75635 0.64674 0.37873 0.0
H4698 H 0.76989 0.6334 0.38865 0.0
H4699 H 0.73284 0.64114 0.37534 0.0
H4700 H 0.76169 0.67631 0.40984 0.0
H4701 H 0.7722 0.68559 0.43311 0.0
H4702 H 0.7328 0.66984 0.45069 0.0
H4703 H 0.72206 0.66036 0.42753 0.0
C4704 C 0.70876 0.6797 0.36072 0.0
C4705 C 0.6967 0.67665 0.36735 0.0
C4706 C 0.71693 0.67535 0.36625 0.0
C4707 C 0.71319 0.66788 0.37849 0.0
C4708 C 0.7014 0.66522 0.38537 0.0
C4709 C 0.6932 0.66951 0.37982 0.0
C4710 C 0.7213 0.66243 0.38393 0.0
C4711 C 0.7268 0.66654 0.39747 0.0
C4712 C 0.72368 0.65331 0.37581 0.0
C4713 C 0.71772 0.64816 0.36162 0.0
C4714 C 0.70359 0.6411 0.35939 0.0
C4715 C 0.69806 0.63637 0.34597 0.0
C4716 C 0.70655 0.63855 0.33471 0.0
C4717 C 0.72059 0.64543 0.33686 0.0
C4718 C 0.72618 0.65019 0.35025 0.0
C4719 C 0.74735 0.63016 0.4248 0.0
C4720 C 0.76115 0.63105 0.41401 0.0
C4721 C 0.73992 0.63924 0.41802 0.0
C4722 C 0.74393 0.64601 0.40072 0.0
C4723 C 0.75466 0.6431 0.38922 0.0
C4724 C 0.76257 0.63414 0.39502 0.0
C4725 C 0.73687 0.65249 0.39506 0.0
C4726 C 0.73148 0.64852 0.38145 0.0
C4727 C 0.7347 0.66182 0.40308 0.0
C4728 C 0.74108 0.66744 0.41701 0.0
C4729 C 0.75527 0.67475 0.4187 0.0
C4730 C 0.76127 0.68007 0.43186 0.0
C4731 C 0.75317 0.67826 0.44338 0.0
C4732 C 0.73906 0.6712 0.44176 0.0
C4733 C 0.73301 0.66586 0.42862 0.0
H4734 H 0.75783 0.68237 0.45357 0.0
H4735 H 0.70226 0.63487 0.32433 0.0
H4736 H 0.30869 0.01493 0.38862 0.0
H4737 H 0.31938 0.03731 0.40152 0.0
H4738 H 0.35736 0.05024 0.38132 0.0
H4739 H 0.34683 0.02777 0.36861 0.0
H4740 H 0.36143 0.05622 0.4083 0.0
H4741 H 0.33731 0.06305 0.37248 0.0
H4742 H 0.31743 0.05761 0.35813 0.0
H4743 H 0.29722 0.0601 0.39466 0.0
H4744 H 0.31691 0.06537 0.40926 0.0
H4745 H 0.4022 0.1337 0.43064 0.0
H4746 H 0.38902 0.10668 0.41646 0.0
H4747 H 0.34434 0.09316 0.43772 0.0
H4748 H 0.35637 0.11988 0.45257 0.0
H4749 H 0.34278 0.08664 0.40931 0.0
H4750 H 0.36697 0.08014 0.44493 0.0
H4751 H 0.38678 0.08555 0.45937 0.0
H4752 H 0.40687 0.08241 0.42304 0.0
H4753 H 0.38725 0.07717 0.40834 0.0
C4754 C 0.3193 0.02256 0.38684 0.0
C4755 C 0.32691 0.01956 0.37758 0.0
C4756 C 0.32538 0.03539 0.39419 0.0
C4757 C 0.33915 0.04552 0.39229 0.0
C4758 C 0.34673 0.04258 0.38296 0.0
C4759 C 0.34068 0.02974 0.37568 0.0
C4760 C 0.34578 0.05901 0.40036 0.0
C4761 C 0.35749 0.06299 0.4083 0.0
C4762 C 0.34039 0.06764 0.40073 0.0
C4763 C 0.32853 0.06447 0.39198 0.0
C4764 C 0.32858 0.06233 0.37747 0.0
C4765 C 0.31736 0.05929 0.36928 0.0
C4766 C 0.30605 0.05847 0.37548 0.0
C4767 C 0.30597 0.06072 0.38987 0.0
C4768 C 0.31716 0.06374 0.39811 0.0
C4769 C 0.39168 0.12594 0.43256 0.0
C4770 C 0.38009 0.13051 0.44115 0.0
C4771 C 0.38322 0.10933 0.42327 0.0
C4772 C 0.36515 0.09729 0.42495 0.0
C4773 C 0.35502 0.10087 0.4366 0.0
C4774 C 0.36252 0.11719 0.44637 0.0
C4775 C 0.35849 0.08387 0.41701 0.0
C4776 C 0.34674 0.07988 0.4092 0.0
C4777 C 0.36387 0.07526 0.41669 0.0
C4778 C 0.3757 0.07842 0.42551 0.0
C4779 C 0.37566 0.08072 0.44 0.0
C4780 C 0.38685 0.08374 0.44824 0.0
C4781 C 0.3981 0.08437 0.44212 0.0
C4782 C 0.39816 0.08195 0.42776 0.0
C4783 C 0.387 0.07894 0.41947 0.0
H4784 H 0.40675 0.0867 0.44852 0.0
H4785 H 0.29737 0.05613 0.36913 0.0
H4786 H 0.97602 0.30375 0.33462 0.0
H4787 H 0.95461 0.28929 0.34661 0.0
H4788 H 0.97366 0.31111 0.38556 0.0
H4789 H 0.99514 0.32545 0.3737 0.0
H4790 H 0.95879 0.28364 0.38859 0.0
H4791 H 0.95199 0.31739 0.36792 0.0
H4792 H 0.95127 0.33077 0.3487 0.0
H4793 H 0.92062 0.29295 0.32757 0.0
H4794 H 0.92129 0.27933 0.34658 0.0
H4795 H 0.89865 0.25425 0.42732 0.0
H4796 H 0.91952 0.2712 0.41591 0.0
H4797 H 0.90106 0.25251 0.37576 0.0
H4798 H 0.87987 0.23601 0.38713 0.0
H4799 H 0.91583 0.27924 0.37374 0.0
H4800 H 0.92318 0.24536 0.39342 0.0
H4801 H 0.92387 0.23157 0.41223 0.0
H4802 H 0.9535 0.26905 0.43464 0.0
H4803 H 0.95285 0.28307 0.41604 0.0
C4804 C 0.97565 0.30549 0.34573 0.0
C4805 C 0.98729 0.31577 0.3532 0.0
C4806 C 0.96339 0.29726 0.35256 0.0
C4807 C 0.96249 0.29923 0.36695 0.0
C4808 C 0.97411 0.30942 0.37444 0.0
C4809 C 0.98638 0.31763 0.36764 0.0
C4810 C 0.94953 0.29046 0.37429 0.0
C4811 C 0.94943 0.28283 0.38547 0.0
C4812 C 0.93726 0.28915 0.37001 0.0
C4813 C 0.93678 0.29733 0.35862 0.0
C4814 C 0.94516 0.31192 0.35913 0.0
C4815 C 0.94476 0.31955 0.34828 0.0
C4816 C 0.93593 0.31271 0.33691 0.0
C4817 C 0.92746 0.29823 0.33638 0.0
C4818 C 0.92784 0.29055 0.34719 0.0
C4819 C 0.89892 0.25393 0.41606 0.0
C4820 C 0.88752 0.24391 0.40809 0.0
C4821 C 0.91093 0.26354 0.40954 0.0
C4822 C 0.91197 0.263 0.39497 0.0
C4823 C 0.90053 0.25317 0.38701 0.0
C4824 C 0.88844 0.24374 0.3935 0.0
C4825 C 0.92506 0.27235 0.38803 0.0
C4826 C 0.92519 0.28008 0.3769 0.0
C4827 C 0.93736 0.27368 0.39229 0.0
C4828 C 0.93787 0.26526 0.4034 0.0
C4829 C 0.92979 0.25066 0.40239 0.0
C4830 C 0.93017 0.2428 0.41302 0.0
C4831 C 0.9387 0.24943 0.42464 0.0
C4832 C 0.94689 0.26393 0.42564 0.0
C4833 C 0.94652 0.27183 0.41506 0.0
H4834 H 0.93898 0.24333 0.43286 0.0
H4835 H 0.93563 0.31864 0.32852 0.0
H4836 H 0.03738 0.37994 0.31571 0.0
H4837 H 0.03759 0.39801 0.30251 0.0
H4838 H 0.00131 0.39028 0.32324 0.0
H4839 H 0.00093 0.3721 0.33639 0.0
H4840 H 0.00011 0.39329 0.29529 0.0
H4841 H 0.03197 0.41769 0.33344 0.0
H4842 H 0.05197 0.42418 0.34813 0.0
H4843 H 0.07768 0.43961 0.31256 0.0
H4844 H 0.05779 0.43303 0.29761 0.0
H4845 H 0.00154 0.45544 0.2857 0.0
H4846 H 0.00123 0.43535 0.29438 0.0
H4847 H 0.03842 0.44756 0.27283 0.0
H4848 H 0.03884 0.46783 0.26424 0.0
H4849 H 0.03985 0.44173 0.29919 0.0
H4850 H 0.00845 0.4192 0.2613 0.0
H4851 H 0.98857 0.41279 0.24645 0.0
H4852 H 0.96214 0.39382 0.28094 0.0
H4853 H 0.98188 0.4003 0.29606 0.0
C4854 C 0.02943 0.38206 0.31745 0.0
C4855 C 0.01918 0.37463 0.32717 0.0
C4856 C 0.02958 0.39241 0.30992 0.0
C4857 C 0.01954 0.39557 0.312 0.0
C4858 C 0.00916 0.388 0.32148 0.0
C4859 C 0.009 0.37766 0.32904 0.0
C4860 C 0.01997 0.40696 0.3045 0.0
C4861 C 0.00873 0.40391 0.29624 0.0
C4862 C 0.03141 0.42073 0.30541 0.0
C4863 C 0.04338 0.42473 0.31439 0.0
C4864 C 0.04188 0.42236 0.32874 0.0
C4865 C 0.0532 0.42607 0.33711 0.0
C4866 C 0.06609 0.43226 0.33127 0.0
C4867 C 0.06769 0.43479 0.31706 0.0
C4868 C 0.0564 0.43108 0.30863 0.0
C4869 C 0.00952 0.4537 0.28263 0.0
C4870 C 0.0201 0.46306 0.27412 0.0
C4871 C 0.00933 0.44221 0.28757 0.0
C4872 C 0.01971 0.43985 0.2841 0.0
C4873 C 0.03027 0.44915 0.27556 0.0
C4874 C 0.03046 0.46066 0.2706 0.0
C4875 C 0.0199 0.42812 0.2901 0.0
C4876 C 0.03126 0.43109 0.29811 0.0
C4877 C 0.00859 0.41429 0.28891 0.0
C4878 C 0.99667 0.41034 0.27985 0.0
C4879 C 0.99841 0.41376 0.26575 0.0
C4880 C 0.98716 0.41009 0.25728 0.0
C4881 C 0.97411 0.40293 0.26276 0.0
C4882 C 0.97227 0.39938 0.27671 0.0
C4883 C 0.98348 0.40303 0.28524 0.0
H4884 H 0.96541 0.4001 0.25618 0.0
H4885 H 0.07484 0.43513 0.33778 0.0
H4886 H 0.62443 0.65606 0.32039 0.0
H4887 H 0.60997 0.63369 0.30787 0.0
H4888 H 0.64119 0.62435 0.31225 0.0
H4889 H 0.65582 0.64683 0.32437 0.0
H4890 H 0.63129 0.61789 0.2868 0.0
H4891 H 0.6119 0.60941 0.33263 0.0
H4892 H 0.60172 0.61382 0.35321 0.0
H4893 H 0.56873 0.60808 0.32779 0.0
H4894 H 0.5788 0.6038 0.30702 0.0
H4895 H 0.59347 0.5455 0.27115 0.0
H4896 H 0.60708 0.56872 0.28227 0.0
H4897 H 0.57417 0.57526 0.2761 0.0
H4898 H 0.56034 0.55182 0.2654 0.0
H4899 H 0.58438 0.58371 0.30144 0.0
H4900 H 0.60333 0.59107 0.25574 0.0
H4901 H 0.61349 0.58644 0.23529 0.0
H4902 H 0.64736 0.59417 0.26053 0.0
H4903 H 0.63731 0.59868 0.28117 0.0
C4904 C 0.62818 0.64921 0.31873 0.0
C4905 C 0.64126 0.65321 0.32339 0.0
C4906 C 0.61989 0.6364 0.31161 0.0
C4907 C 0.62443 0.62725 0.30925 0.0
C4908 C 0.63747 0.63123 0.31393 0.0
C4909 C 0.64581 0.64408 0.32089 0.0
C4910 C 0.61573 0.61361 0.30171 0.0
C4911 C 0.62109 0.61035 0.2901 0.0
C4912 C 0.60227 0.60392 0.30575 0.0
C4913 C 0.59618 0.60642 0.31825 0.0
C4914 C 0.60252 0.60918 0.33141 0.0
C4915 C 0.59676 0.61164 0.34312 0.0
C4916 C 0.58461 0.61127 0.34181 0.0
C4917 C 0.57816 0.60839 0.32879 0.0
C4918 C 0.58388 0.60593 0.31705 0.0
C4919 C 0.58923 0.55199 0.27199 0.0
C4920 C 0.576 0.54701 0.26703 0.0
C4921 C 0.59701 0.56526 0.27832 0.0
C4922 C 0.59177 0.57387 0.27975 0.0
C4923 C 0.57848 0.56886 0.27498 0.0
C4924 C 0.57064 0.55552 0.26876 0.0
C4925 C 0.6 0.58793 0.28663 0.0
C4926 C 0.59456 0.59127 0.29809 0.0
C4927 C 0.61339 0.59769 0.28246 0.0
C4928 C 0.61951 0.59511 0.27003 0.0
C4929 C 0.6129 0.5917 0.25695 0.0
C4930 C 0.61865 0.58911 0.24532 0.0
C4931 C 0.63105 0.58998 0.24661 0.0
C4932 C 0.63775 0.59349 0.25954 0.0
C4933 C 0.63204 0.59608 0.2712 0.0
H4934 H 0.63548 0.58796 0.2376 0.0
H4935 H 0.58017 0.61318 0.35088 0.0
H4936 H 0.35054 0.99843 0.30824 0.0
H4937 H 0.3666 0.99501 0.29497 0.0
H4938 H 0.36846 0.9715 0.3281 0.0
H4939 H 0.35244 0.97495 0.34153 0.0
H4940 H 0.39369 0.98975 0.31761 0.0
H4941 H 0.34961 0.95461 0.29992 0.0
H4942 H 0.32664 0.94543 0.29023 0.0
H4943 H 0.3438 0.97015 0.25438 0.0
H4944 H 0.36688 0.97965 0.26396 0.0
H4945 H 0.42398 0.95959 0.27646 0.0
H4946 H 0.40858 0.96278 0.29143 0.0
H4947 H 0.40475 0.98657 0.25992 0.0
H4948 H 0.42011 0.98343 0.24496 0.0
H4949 H 0.38023 0.96724 0.27025 0.0
H4950 H 0.42427 0.00279 0.2882 0.0
H4951 H 0.44725 0.01209 0.29793 0.0
H4952 H 0.43017 0.98655 0.33327 0.0
H4953 H 0.40708 0.97694 0.32364 0.0
C4954 C 0.3544 0.99259 0.31276 0.0
C4955 C 0.35014 0.98689 0.32591 0.0
C4956 C 0.36355 0.99061 0.30513 0.0
C4957 C 0.36858 0.98285 0.31048 0.0
C4958 C 0.36466 0.97749 0.32377 0.0
C4959 C 0.35547 0.97943 0.33141 0.0
C4960 C 0.3777 0.98013 0.30204 0.0
C4961 C 0.39069 0.98464 0.30734 0.0
C4962 C 0.37384 0.97368 0.28855 0.0
C4963 C 0.35997 0.96794 0.28272 0.0
C4964 C 0.34849 0.95818 0.29002 0.0
C4965 C 0.33545 0.9529 0.28454 0.0
C4966 C 0.33376 0.95723 0.27171 0.0
C4967 C 0.34512 0.96682 0.26432 0.0
C4968 C 0.35819 0.97214 0.26977 0.0
C4969 C 0.41989 0.96555 0.27278 0.0
C4970 C 0.42332 0.97136 0.2596 0.0
C4971 C 0.41113 0.96739 0.28133 0.0
C4972 C 0.40562 0.97501 0.27682 0.0
C4973 C 0.4089 0.98067 0.2636 0.0
C4974 C 0.41769 0.9789 0.25509 0.0
C4975 C 0.39628 0.97699 0.28575 0.0
C4976 C 0.38322 0.9723 0.28055 0.0
C4977 C 0.40009 0.98327 0.29931 0.0
C4978 C 0.41395 0.98903 0.30512 0.0
C4979 C 0.42542 0.99906 0.29799 0.0
C4980 C 0.43846 0.00441 0.30349 0.0
C4981 C 0.44017 0.99988 0.31619 0.0
C4982 C 0.42883 0.99003 0.32342 0.0
C4983 C 0.41576 0.98463 0.31795 0.0
H4984 H 0.45027 0.00404 0.32044 0.0
H4985 H 0.32366 0.95313 0.26749 0.0
H4986 H 0.63923 0.97113 0.29634 0.0
H4987 H 0.62546 0.97907 0.28617 0.0
H4988 H 0.61512 0.98678 0.32729 0.0
H4989 H 0.62875 0.97866 0.33759 0.0
H4990 H 0.59341 0.97564 0.30926 0.0
H4991 H 0.64005 0.01321 0.31016 0.0
H4992 H 0.66455 0.02451 0.30569 0.0
H4993 H 0.65632 0.01705 0.26167 0.0
H4994 H 0.63174 0.00552 0.26589 0.0
H4995 H 0.57305 0.02176 0.28816 0.0
H4996 H 0.58467 0.01192 0.29966 0.0
H4997 H 0.59617 0.00327 0.25957 0.0
H4998 H 0.58466 0.01315 0.24808 0.0
H4999 H 0.61724 0.01521 0.27795 0.0
H5000 H 0.57045 0.97748 0.27718 0.0
H5001 H 0.54599 0.9663 0.28179 0.0
H5002 H 0.55452 0.97437 0.32573 0.0
H5003 H 0.57907 0.98578 0.32137 0.0
C5004 C 0.63391 0.97435 0.30324 0.0
C5005 C 0.63521 0.97441 0.31778 0.0
C5006 C 0.62608 0.97893 0.2974 0.0
C5007 C 0.61948 0.98375 0.30599 0.0
C5008 C 0.62019 0.98316 0.32049 0.0
C5009 C 0.628 0.97855 0.32635 0.0
C5010 C 0.61245 0.99006 0.29982 0.0
C5011 C 0.59864 0.9844 0.30255 0.0
C5012 C 0.61926 0.00138 0.29093 0.0
C5013 C 0.63405 0.00838 0.28835 0.0
C5014 C 0.64346 0.01389 0.29953 0.0
C5015 C 0.65736 0.02035 0.29704 0.0
C5016 C 0.66199 0.02147 0.2834 0.0
C5017 C 0.65272 0.01616 0.27222 0.0
C5018 C 0.6388 0.00967 0.27466 0.0
C5019 C 0.57803 0.01772 0.28184 0.0
C5020 C 0.57786 0.0181 0.26724 0.0
C5021 C 0.58462 0.01207 0.28839 0.0
C5022 C 0.59115 0.00673 0.28044 0.0
C5023 C 0.59117 0.00731 0.26589 0.0
C5024 C 0.58458 0.01292 0.25934 0.0
C5025 C 0.59814 0.00069 0.28724 0.0
C5026 C 0.61199 0.00645 0.28466 0.0
C5027 C 0.59136 0.98951 0.29628 0.0
C5028 C 0.57661 0.98261 0.29893 0.0
C5029 C 0.56712 0.97697 0.28782 0.0
C5030 C 0.55324 0.97058 0.29039 0.0
C5031 C 0.54871 0.96966 0.30404 0.0
C5032 C 0.55805 0.97511 0.31516 0.0
C5033 C 0.57194 0.98153 0.31264 0.0
H5034 H 0.53796 0.9647 0.30601 0.0
H5035 H 0.67275 0.02648 0.2815 0.0
H5036 H 0.9988 0.66078 0.31288 0.0
H5037 H 0.99244 0.63907 0.30014 0.0
H5038 H 0.0215 0.6357 0.32453 0.0
H5039 H 0.02796 0.65744 0.33734 0.0
H5040 H 0.02163 0.62909 0.2962 0.0
H5041 H 0.98922 0.6175 0.333 0.0
H5042 H 0.97212 0.61945 0.34644 0.0
H5043 H 0.94689 0.60785 0.30975 0.0
H5044 H 0.96395 0.60603 0.29603 0.0
H5045 H 0.99713 0.55723 0.28919 0.0
H5046 H 0.00528 0.58125 0.29662 0.0
H5047 H 0.97233 0.57906 0.27374 0.0
H5048 H 0.964 0.55487 0.26649 0.0
H5049 H 0.97406 0.58929 0.29933 0.0
H5050 H 0.00532 0.59887 0.26278 0.0
H5051 H 0.02231 0.59698 0.24907 0.0
H5052 H 0.04956 0.61242 0.28444 0.0
H5053 H 0.03264 0.61421 0.29844 0.0
C5054 C 0.00391 0.65548 0.31549 0.0
C5055 C 0.01382 0.66079 0.3262 0.0
C5056 C 0.00025 0.64306 0.30821 0.0
C5057 C 0.00642 0.63573 0.31149 0.0
C5058 C 0.01662 0.64121 0.32186 0.0
C5059 C 0.02024 0.6536 0.32921 0.0
C5060 C 0.00185 0.62205 0.30451 0.0
C5061 C 0.01127 0.62033 0.29696 0.0
C5062 C 0.98823 0.61077 0.3052 0.0
C5063 C 0.97793 0.61179 0.31346 0.0
C5064 C 0.98008 0.61548 0.32777 0.0
C5065 C 0.97038 0.61654 0.33545 0.0
C5066 C 0.95844 0.61381 0.32895 0.0
C5067 C 0.95615 0.60998 0.31476 0.0
C5068 C 0.96583 0.60893 0.30703 0.0
C5069 C 0.99179 0.56197 0.28553 0.0
C5070 C 0.98007 0.55427 0.27709 0.0
C5071 C 0.99647 0.57571 0.28975 0.0
C5072 C 0.98952 0.58203 0.28559 0.0
C5073 C 0.97789 0.57442 0.277 0.0
C5074 C 0.97319 0.56065 0.2728 0.0
C5075 C 0.99386 0.59622 0.29106 0.0
C5076 C 0.9844 0.59805 0.29839 0.0
C5077 C 0.00742 0.60759 0.29009 0.0
C5078 C 0.01765 0.60656 0.2817 0.0
C5079 C 0.01489 0.60176 0.26768 0.0
C5080 C 0.02452 0.60072 0.25984 0.0
C5081 C 0.037 0.60455 0.26589 0.0
C5082 C 0.03988 0.60945 0.27977 0.0
C5083 C 0.03028 0.61049 0.28766 0.0
H5084 H 0.04444 0.60375 0.2598 0.0
H5085 H 0.95094 0.61464 0.33491 0.0
H5086 H 0.33683 0.37108 0.30908 0.0
H5087 H 0.35924 0.38474 0.29862 0.0
H5088 H 0.3698 0.35626 0.3135 0.0
H5089 H 0.34769 0.34293 0.3244 0.0
H5090 H 0.38996 0.38098 0.31812 0.0
H5091 H 0.36153 0.35683 0.27827 0.0
H5092 H 0.34218 0.34877 0.26203 0.0
H5093 H 0.35655 0.39101 0.25267 0.0
H5094 H 0.37589 0.39934 0.26902 0.0
H5095 H 0.4488 0.40436 0.27711 0.0
H5096 H 0.42531 0.38933 0.28471 0.0
H5097 H 0.41811 0.42234 0.27886 0.0
H5098 H 0.44162 0.43747 0.27149 0.0
H5099 H 0.3964 0.39513 0.26906 0.0
H5100 H 0.42498 0.41854 0.30987 0.0
H5101 H 0.44456 0.42548 0.32541 0.0
H5102 H 0.42971 0.38259 0.33205 0.0
H5103 H 0.41014 0.37539 0.31635 0.0
C5104 C 0.34393 0.36773 0.31008 0.0
C5105 C 0.3405 0.35595 0.31758 0.0
C5106 C 0.35671 0.37549 0.30403 0.0
C5107 C 0.36618 0.37144 0.30509 0.0
C5108 C 0.36271 0.35963 0.31254 0.0
C5109 C 0.35004 0.35201 0.31876 0.0
C5110 C 0.37985 0.37968 0.29885 0.0
C5111 C 0.39131 0.38386 0.30732 0.0
C5112 C 0.3817 0.38368 0.28481 0.0
C5113 C 0.37008 0.37871 0.27498 0.0
C5114 C 0.3605 0.36441 0.27284 0.0
C5115 C 0.34955 0.35979 0.2636 0.0
C5116 C 0.34811 0.36937 0.25635 0.0
C5117 C 0.35766 0.3836 0.25831 0.0
C5118 C 0.36863 0.38827 0.26755 0.0
C5119 C 0.44216 0.40836 0.27737 0.0
C5120 C 0.44707 0.42213 0.27388 0.0
C5121 C 0.42878 0.39978 0.28168 0.0
C5122 C 0.42005 0.4048 0.28244 0.0
C5123 C 0.42471 0.4183 0.27833 0.0
C5124 C 0.43814 0.42693 0.27417 0.0
C5125 C 0.40633 0.39627 0.28833 0.0
C5126 C 0.39494 0.39212 0.27981 0.0
C5127 C 0.4045 0.3921 0.30225 0.0
C5128 C 0.41618 0.39643 0.31182 0.0
C5129 C 0.42595 0.41059 0.31455 0.0
C5130 C 0.43703 0.41457 0.3234 0.0
C5131 C 0.4384 0.40448 0.32969 0.0
C5132 C 0.42865 0.39039 0.32716 0.0
C5133 C 0.41756 0.38635 0.31829 0.0
H5134 H 0.44698 0.40759 0.33655 0.0
H5135 H 0.33963 0.36578 0.2492 0.0
H5136 H 0.34321 0.32814 0.37776 0.0
H5137 H 0.35277 0.31545 0.38713 0.0
H5138 H 0.32025 0.27734 0.36773 0.0
H5139 H 0.31053 0.29 0.35825 0.0
H5140 H 0.32679 0.27427 0.39511 0.0
H5141 H 0.3494 0.29331 0.35218 0.0
H5142 H 0.36204 0.31187 0.3356 0.0
H5143 H 0.39477 0.33425 0.3654 0.0
H5144 H 0.38222 0.31591 0.38225 0.0
H5145 H 0.35858 0.23521 0.39584 0.0
H5146 H 0.34688 0.24704 0.38999 0.0
H5147 H 0.38118 0.28598 0.40588 0.0
H5148 H 0.393 0.27418 0.41159 0.0
H5149 H 0.37342 0.28859 0.38071 0.0
H5150 H 0.35135 0.26947 0.4235 0.0
H5151 H 0.33882 0.25112 0.4403 0.0
H5152 H 0.30531 0.22911 0.41131 0.0
H5153 H 0.31773 0.24724 0.39423 0.0
C5154 C 0.33799 0.31704 0.37555 0.0
C5155 C 0.32615 0.3101 0.36715 0.0
C5156 C 0.3435 0.30981 0.38091 0.0
C5157 C 0.3373 0.2955 0.37799 0.0
C5158 C 0.32519 0.2884 0.37007 0.0
C5159 C 0.31968 0.29565 0.36463 0.0
C5160 C 0.34386 0.28814 0.3827 0.0
C5161 C 0.33691 0.27725 0.39185 0.0
C5162 C 0.35719 0.2923 0.37868 0.0
C5163 C 0.3648 0.3033 0.36853 0.0
C5164 C 0.35924 0.30224 0.35524 0.0
C5165 C 0.3664 0.31271 0.34579 0.0
C5166 C 0.37918 0.32425 0.34946 0.0
C5167 C 0.38485 0.32532 0.36258 0.0
C5168 C 0.37773 0.31489 0.37208 0.0
C5169 C 0.36351 0.24625 0.39831 0.0
C5170 C 0.37661 0.25375 0.40435 0.0
C5171 C 0.35682 0.253 0.39499 0.0
C5172 C 0.3631 0.26737 0.39764 0.0
C5173 C 0.37613 0.27487 0.40381 0.0
C5174 C 0.38283 0.26812 0.40713 0.0
C5175 C 0.3564 0.27471 0.39321 0.0
C5176 C 0.36331 0.2856 0.38406 0.0
C5177 C 0.34306 0.27056 0.39727 0.0
C5178 C 0.33553 0.25965 0.40753 0.0
C5179 C 0.34136 0.26066 0.42065 0.0
C5180 C 0.33427 0.25031 0.43023 0.0
C5181 C 0.32129 0.23894 0.42686 0.0
C5182 C 0.31537 0.23792 0.4139 0.0
C5183 C 0.32243 0.24824 0.40427 0.0
H5184 H 0.31582 0.23093 0.43429 0.0
H5185 H 0.38471 0.33235 0.34213 0.0
H5186 H 0.6848 0.0164 0.3522 0.0
H5187 H 0.69644 0.04035 0.36152 0.0
H5188 H 0.70918 0.02864 0.39774 0.0
H5189 H 0.69745 0.00455 0.38854 0.0
H5190 H 0.69811 0.04416 0.4045 0.0
H5191 H 0.73172 0.04689 0.3729 0.0
H5192 H 0.74014 0.04391 0.35023 0.0
H5193 H 0.72967 0.07088 0.33178 0.0
H5194 H 0.72101 0.07387 0.3543 0.0
H5195 H 0.745 0.11085 0.43337 0.0
H5196 H 0.73419 0.08736 0.42292 0.0
H5197 H 0.72432 0.10092 0.38601 0.0
H5198 H 0.73553 0.12464 0.39633 0.0
H5199 H 0.73364 0.08453 0.37915 0.0
H5200 H 0.70016 0.08213 0.40996 0.0
H5201 H 0.69112 0.08517 0.43218 0.0
H5202 H 0.70027 0.0576 0.45153 0.0
H5203 H 0.70956 0.05455 0.42948 0.0
C5204 C 0.69016 0.01891 0.36211 0.0
C5205 C 0.6902 0.00856 0.36964 0.0
C5206 C 0.69685 0.03263 0.36739 0.0
C5207 C 0.70375 0.03628 0.38027 0.0
C5208 C 0.70392 0.02602 0.38777 0.0
C5209 C 0.69726 0.01228 0.38247 0.0
C5210 C 0.71037 0.05072 0.38614 0.0
C5211 C 0.70603 0.05298 0.39907 0.0
C5212 C 0.72034 0.06224 0.37879 0.0
C5213 C 0.7256 0.0605 0.36526 0.0
C5214 C 0.73111 0.0521 0.36398 0.0
C5215 C 0.73595 0.05042 0.35116 0.0
C5216 C 0.73541 0.05717 0.33957 0.0
C5217 C 0.73007 0.06564 0.34077 0.0
C5218 C 0.72521 0.06734 0.35356 0.0
C5219 C 0.74064 0.10885 0.42297 0.0
C5220 C 0.74133 0.11962 0.41554 0.0
C5221 C 0.73436 0.0954 0.41706 0.0
C5222 C 0.72834 0.09235 0.40373 0.0
C5223 C 0.72895 0.10306 0.39629 0.0
C5224 C 0.73532 0.11657 0.40218 0.0
C5225 C 0.72148 0.07797 0.39759 0.0
C5226 C 0.72573 0.07572 0.3846 0.0
C5227 C 0.71131 0.06646 0.40481 0.0
C5228 C 0.70567 0.06821 0.41809 0.0
C5229 C 0.70034 0.0768 0.41898 0.0
C5230 C 0.69515 0.07851 0.43154 0.0
C5231 C 0.69515 0.07161 0.44327 0.0
C5232 C 0.7003 0.06295 0.44245 0.0
C5233 C 0.70551 0.06122 0.42991 0.0
H5234 H 0.69113 0.07295 0.45298 0.0
H5235 H 0.73916 0.05586 0.32965 0.0
H5236 H 0.97471 0.69177 0.35652 0.0
H5237 H 0.95204 0.68192 0.36634 0.0
H5238 H 0.9546 0.64867 0.38299 0.0
H5239 H 0.97716 0.65835 0.37316 0.0
H5240 H 0.93059 0.63896 0.36976 0.0
H5241 H 0.95804 0.67476 0.40425 0.0
H5242 H 0.97492 0.6986 0.41291 0.0
H5243 H 0.95004 0.71295 0.39763 0.0
H5244 H 0.93309 0.68922 0.38869 0.0
H5245 H 0.87164 0.61067 0.41064 0.0
H5246 H 0.89559 0.62192 0.40433 0.0
H5247 H 0.8944 0.65618 0.38823 0.0
H5248 H 0.87055 0.64509 0.39479 0.0
H5249 H 0.91799 0.66543 0.40189 0.0
H5250 H 0.89101 0.63008 0.36671 0.0
H5251 H 0.87405 0.60636 0.35781 0.0
H5252 H 0.89808 0.59135 0.37393 0.0
H5253 H 0.91508 0.61496 0.38313 0.0
C5254 C 0.97047 0.68239 0.36232 0.0
C5255 C 0.97775 0.67585 0.36406 0.0
C5256 C 0.95753 0.67681 0.36798 0.0
C5257 C 0.95167 0.66461 0.37549 0.0
C5258 C 0.95893 0.65809 0.37724 0.0
C5259 C 0.97185 0.66367 0.37164 0.0
C5260 C 0.9378 0.65839 0.38118 0.0
C5261 C 0.92789 0.64468 0.37695 0.0
C5262 C 0.9342 0.66596 0.3903 0.0
C5263 C 0.94436 0.68023 0.39568 0.0
C5264 C 0.95622 0.68302 0.40263 0.0
C5265 C 0.96579 0.69651 0.40761 0.0
C5266 C 0.96357 0.70729 0.40579 0.0
C5267 C 0.95175 0.70459 0.39901 0.0
C5268 C 0.94216 0.69112 0.394 0.0
C5269 C 0.87659 0.62073 0.40602 0.0
C5270 C 0.8693 0.6271 0.40337 0.0
C5271 C 0.89022 0.6271 0.40232 0.0
C5272 C 0.89674 0.63983 0.39567 0.0
C5273 C 0.88959 0.64639 0.39338 0.0
C5274 C 0.87598 0.64005 0.39713 0.0
C5275 C 0.91079 0.646 0.39047 0.0
C5276 C 0.92072 0.65969 0.39475 0.0
C5277 C 0.91441 0.63844 0.38134 0.0
C5278 C 0.90424 0.62426 0.37573 0.0
C5279 C 0.89262 0.6217 0.36845 0.0
C5280 C 0.88301 0.60828 0.36334 0.0
C5281 C 0.88497 0.59735 0.36533 0.0
C5282 C 0.89657 0.59983 0.37241 0.0
C5283 C 0.9062 0.61322 0.37757 0.0
H5284 H 0.87752 0.58697 0.36136 0.0
H5285 H 0.97098 0.71772 0.40966 0.0
H5286 H 0.35111 0.99838 0.7085 0.0
H5287 H 0.36839 0.99631 0.7203 0.0
H5288 H 0.39986 0.03256 0.70013 0.0
H5289 H 0.38252 0.03457 0.68801 0.0
H5290 H 0.40521 0.01235 0.69942 0.0
H5291 H 0.39344 0.03454 0.73456 0.0
H5292 H 0.3783 0.03835 0.74954 0.0
H5293 H 0.36302 0.99879 0.76755 0.0
H5294 H 0.37791 0.99465 0.75253 0.0
H5295 H 0.46065 0.0108 0.74272 0.0
H5296 H 0.44447 0.01923 0.72843 0.0
H5297 H 0.40193 0.98178 0.75018 0.0
H5298 H 0.41695 0.9725 0.7652 0.0
H5299 H 0.4042 0.00725 0.75055 0.0
H5300 H 0.41408 0.98424 0.71358 0.0
H5301 H 0.4289 0.98013 0.69838 0.0
H5302 H 0.44782 0.0216 0.68389 0.0
H5303 H 0.43322 0.02601 0.69914 0.0
C5304 C 0.3617 0.00596 0.70657 0.0
C5305 C 0.36543 0.01668 0.69734 0.0
C5306 C 0.37158 0.0048 0.7134 0.0
C5307 C 0.38544 0.01443 0.7113 0.0
C5308 C 0.38923 0.02507 0.70197 0.0
C5309 C 0.37931 0.02621 0.69507 0.0
C5310 C 0.39584 0.01303 0.71861 0.0
C5311 C 0.40522 0.01159 0.71064 0.0
C5312 C 0.39569 0.01179 0.73323 0.0
C5313 C 0.38674 0.01425 0.74234 0.0
C5314 C 0.38678 0.02661 0.74164 0.0
C5315 C 0.37825 0.02883 0.75015 0.0
C5316 C 0.36969 0.01881 0.75947 0.0
C5317 C 0.36965 0.00655 0.76032 0.0
C5318 C 0.37815 0.00426 0.75182 0.0
C5319 C 0.44971 0.00508 0.74363 0.0
C5320 C 0.44074 0.99229 0.75743 0.0
C5321 C 0.43963 0.01061 0.73528 0.0
C5322 C 0.4216 0.00197 0.73839 0.0
C5323 C 0.41281 0.98702 0.74907 0.0
C5324 C 0.42194 0.98068 0.75786 0.0
C5325 C 0.41338 0.00638 0.73133 0.0
C5326 C 0.40437 0.00831 0.73936 0.0
C5327 C 0.41392 0.00815 0.7168 0.0
C5328 C 0.4227 0.00551 0.70764 0.0
C5329 C 0.42148 0.99252 0.70724 0.0
C5330 C 0.42983 0.99013 0.6986 0.0
C5331 C 0.43933 0.00062 0.69021 0.0
C5332 C 0.44048 0.0135 0.69042 0.0
C5333 C 0.43217 0.01595 0.69905 0.0
H5334 H 0.44578 0.99875 0.68353 0.0
H5335 H 0.36309 0.02055 0.76605 0.0
H5336 H 0.98443 0.35594 0.67012 0.0
H5337 H 0.98616 0.37566 0.6833 0.0
H5338 H 0.99551 0.36236 0.72071 0.0
H5339 H 0.99364 0.34251 0.70766 0.0
H5340 H 0.97783 0.37094 0.7256 0.0
H5341 H 0.02059 0.38806 0.70264 0.0
H5342 H 0.03533 0.39212 0.68248 0.0
H5343 H 0.02044 0.41517 0.66345 0.0
H5344 H 0.00546 0.41108 0.68342 0.0
H5345 H 0.00708 0.43604 0.77392 0.0
H5346 H 5e-05 0.41097 0.75786 0.0
H5347 H 0.00231 0.43346 0.7132 0.0
H5348 H 0.00948 0.4591 0.72805 0.0
H5349 H 0.0118 0.41845 0.71092 0.0
H5350 H 0.96885 0.4014 0.73308 0.0
H5351 H 0.95347 0.39714 0.75271 0.0
H5352 H 0.96782 0.374 0.77258 0.0
H5353 H 0.98338 0.37825 0.75312 0.0
C5354 C 0.98679 0.35716 0.68116 0.0
C5355 C 0.98901 0.34773 0.68782 0.0
C5356 C 0.98779 0.36845 0.68867 0.0
C5357 C 0.99113 0.37055 0.70294 0.0
C5358 C 0.99295 0.36093 0.7097 0.0
C5359 C 0.99192 0.34962 0.70221 0.0
C5360 C 0.9932 0.38306 0.71071 0.0
C5361 C 0.98534 0.38135 0.72249 0.0
C5362 C 0.00275 0.39661 0.70643 0.0
C5363 C 0.01181 0.39914 0.69445 0.0
C5364 C 0.02038 0.3939 0.6941 0.0
C5365 C 0.02879 0.39623 0.68272 0.0
C5366 C 0.0288 0.40387 0.67167 0.0
C5367 C 0.02041 0.40924 0.672 0.0
C5368 C 0.01197 0.40692 0.68335 0.0
C5369 C 0.0066 0.43565 0.76266 0.0
C5370 C 0.00657 0.44939 0.75274 0.0
C5371 C 0.00144 0.41987 0.75262 0.0
C5372 C 0.99928 0.41907 0.73391 0.0
C5373 C 0.00309 0.43415 0.72445 0.0
C5374 C 0.00832 0.45039 0.73351 0.0
C5375 C 0.99634 0.40642 0.72582 0.0
C5376 C 0.00413 0.40809 0.71399 0.0
C5377 C 0.98668 0.39287 0.73003 0.0
C5378 C 0.9774 0.39032 0.74176 0.0
C5379 C 0.96878 0.39549 0.74169 0.0
C5380 C 0.96002 0.39305 0.75277 0.0
C5381 C 0.95971 0.38535 0.76391 0.0
C5382 C 0.9681 0.38 0.76396 0.0
C5383 C 0.97688 0.38241 0.75291 0.0
H5384 H 0.95293 0.38349 0.77249 0.0
H5385 H 0.03532 0.40566 0.66287 0.0
H5386 H 0.63897 0.63492 0.66843 0.0
H5387 H 0.6183 0.62084 0.68176 0.0
H5388 H 0.64142 0.63753 0.72013 0.0
H5389 H 0.66213 0.65192 0.70689 0.0
H5390 H 0.62203 0.60653 0.71712 0.0
H5391 H 0.62481 0.65028 0.71348 0.0
H5392 H 0.62726 0.66984 0.70065 0.0
H5393 H 0.59139 0.64166 0.67637 0.0
H5394 H 0.58886 0.62189 0.68892 0.0
H5395 H 0.56562 0.5782 0.76158 0.0
H5396 H 0.58715 0.59429 0.75067 0.0
H5397 H 0.56571 0.59104 0.71279 0.0
H5398 H 0.54407 0.5756 0.72398 0.0
H5399 H 0.58517 0.61625 0.71638 0.0
H5400 H 0.58218 0.57261 0.71798 0.0
H5401 H 0.57935 0.55198 0.72894 0.0
H5402 H 0.61477 0.57812 0.75464 0.0
H5403 H 0.61771 0.59893 0.74395 0.0
C5404 C 0.63967 0.63554 0.6797 0.0
C5405 C 0.65215 0.64454 0.68663 0.0
C5406 C 0.62786 0.62753 0.68728 0.0
C5407 C 0.62838 0.62822 0.70189 0.0
C5408 C 0.64086 0.6369 0.70885 0.0
C5409 C 0.65264 0.64512 0.70128 0.0
C5410 C 0.6158 0.62 0.70986 0.0
C5411 C 0.61403 0.60874 0.71718 0.0
C5412 C 0.60528 0.62271 0.70952 0.0
C5413 C 0.60673 0.63459 0.70204 0.0
C5414 C 0.61752 0.64824 0.70532 0.0
C5415 C 0.61891 0.65937 0.69811 0.0
C5416 C 0.60951 0.65699 0.68768 0.0
C5417 C 0.59868 0.64348 0.68445 0.0
C5418 C 0.59725 0.63231 0.69161 0.0
C5419 C 0.56546 0.58112 0.75102 0.0
C5420 C 0.5531 0.57578 0.74368 0.0
C5421 C 0.57781 0.5902 0.74472 0.0
C5422 C 0.57811 0.59372 0.7308 0.0
C5423 C 0.56578 0.58853 0.72354 0.0
C5424 C 0.55342 0.57969 0.72992 0.0
C5425 C 0.59123 0.60258 0.72367 0.0
C5426 C 0.59314 0.614 0.71646 0.0
C5427 C 0.60178 0.59983 0.72388 0.0
C5428 C 0.60008 0.58733 0.73027 0.0
C5429 C 0.58931 0.57397 0.72604 0.0
C5430 C 0.58769 0.56224 0.73219 0.0
C5431 C 0.59685 0.56374 0.74251 0.0
C5432 C 0.60767 0.57698 0.74666 0.0
C5433 C 0.60932 0.58874 0.74055 0.0
H5434 H 0.59558 0.55465 0.74726 0.0
H5435 H 0.6106 0.66562 0.68211 0.0
H5436 H 0.65772 0.67924 0.63699 0.0
H5437 H 0.65037 0.69358 0.627 0.0
H5438 H 0.68351 0.73001 0.64819 0.0
H5439 H 0.69067 0.71554 0.65868 0.0
H5440 H 0.66143 0.73052 0.65047 0.0
H5441 H 0.68365 0.72335 0.61222 0.0
H5442 H 0.68903 0.71 0.59551 0.0
H5443 H 0.64787 0.68757 0.58002 0.0
H5444 H 0.64219 0.70066 0.59677 0.0
H5445 H 0.64767 0.77453 0.61217 0.0
H5446 H 0.65944 0.76356 0.62076 0.0
H5447 H 0.62597 0.72342 0.60624 0.0
H5448 H 0.61421 0.73432 0.59762 0.0
H5449 H 0.65086 0.72713 0.59998 0.0
H5450 H 0.6287 0.73344 0.63989 0.0
H5451 H 0.62378 0.74727 0.65648 0.0
H5452 H 0.66596 0.77219 0.66845 0.0
H5453 H 0.67115 0.75863 0.65178 0.0
C5454 C 0.66351 0.69031 0.63948 0.0
C5455 C 0.67483 0.69627 0.64858 0.0
C5456 C 0.65933 0.69853 0.63368 0.0
C5457 C 0.66654 0.71294 0.6366 0.0
C5458 C 0.67783 0.71892 0.64573 0.0
C5459 C 0.68192 0.71066 0.6517 0.0
C5460 C 0.66194 0.72158 0.63044 0.0
C5461 C 0.65939 0.72998 0.63938 0.0
C5462 C 0.65908 0.72077 0.61599 0.0
C5463 C 0.66248 0.71293 0.60583 0.0
C5464 C 0.67572 0.71551 0.60532 0.0
C5465 C 0.67883 0.708 0.59582 0.0
C5466 C 0.66879 0.69793 0.58672 0.0
C5467 C 0.65563 0.69537 0.58708 0.0
C5468 C 0.65247 0.70285 0.59656 0.0
C5469 C 0.64292 0.76339 0.61069 0.0
C5470 C 0.63009 0.75529 0.60409 0.0
C5471 C 0.64961 0.75714 0.61564 0.0
C5472 C 0.64354 0.74267 0.61419 0.0
C5473 C 0.63085 0.7346 0.60741 0.0
C5474 C 0.62415 0.74083 0.6025 0.0
C5475 C 0.65017 0.73582 0.62004 0.0
C5476 C 0.6531 0.72778 0.61102 0.0
C5477 C 0.65348 0.73705 0.63438 0.0
C5478 C 0.65033 0.74512 0.64448 0.0
C5479 C 0.63694 0.74194 0.64599 0.0
C5480 C 0.6341 0.74971 0.65541 0.0
C5481 C 0.64456 0.76062 0.66348 0.0
C5482 C 0.65787 0.76375 0.66217 0.0
C5483 C 0.66077 0.75602 0.65274 0.0
H5484 H 0.64234 0.76663 0.67078 0.0
H5485 H 0.67121 0.69212 0.57939 0.0
H5486 H 0.31996 0.98198 0.66163 0.0
H5487 H 0.30666 0.95871 0.65062 0.0
H5488 H 0.29221 0.97414 0.61924 0.0
H5489 H 0.30543 0.99749 0.63024 0.0
H5490 H 0.27181 0.94924 0.6289 0.0
H5491 H 0.31694 0.96835 0.61165 0.0
H5492 H 0.34181 0.97961 0.61348 0.0
H5493 H 0.33681 0.94572 0.63674 0.0
H5494 H 0.3119 0.93435 0.63522 0.0
H5495 H 0.2407 0.88737 0.57594 0.0
H5496 H 0.25489 0.91425 0.59063 0.0
H5497 H 0.28037 0.89986 0.62019 0.0
H5498 H 0.26688 0.87264 0.60631 0.0
H5499 H 0.29494 0.92507 0.61293 0.0
H5500 H 0.25052 0.90703 0.63232 0.0
H5501 H 0.22558 0.89565 0.63164 0.0
H5502 H 0.22922 0.92716 0.6054 0.0
H5503 H 0.25419 0.93866 0.60586 0.0
C5504 C 0.31392 0.98044 0.65242 0.0
C5505 C 0.31381 0.99162 0.64677 0.0
C5506 C 0.30636 0.96713 0.64611 0.0
C5507 C 0.29857 0.96473 0.63402 0.0
C5508 C 0.29818 0.97578 0.62855 0.0
C5509 C 0.30577 0.98912 0.63483 0.0
C5510 C 0.291 0.95073 0.627 0.0
C5511 C 0.27688 0.94402 0.62523 0.0
C5512 C 0.29758 0.94377 0.62254 0.0
C5513 C 0.31256 0.95057 0.62344 0.0
C5514 C 0.32115 0.96335 0.61725 0.0
C5515 C 0.33525 0.96974 0.61822 0.0
C5516 C 0.34089 0.9634 0.62525 0.0
C5517 C 0.33243 0.95063 0.63131 0.0
C5518 C 0.31832 0.9442 0.63039 0.0
C5519 C 0.24836 0.88987 0.58382 0.0
C5520 C 0.25051 0.87629 0.59141 0.0
C5521 C 0.25669 0.90627 0.59355 0.0
C5522 C 0.26834 0.90962 0.60773 0.0
C5523 C 0.27288 0.89723 0.61208 0.0
C5524 C 0.2651 0.88053 0.603 0.0
C5525 C 0.2757 0.92351 0.61489 0.0
C5526 C 0.28982 0.93022 0.61665 0.0
C5527 C 0.26913 0.93045 0.61937 0.0
C5528 C 0.25417 0.92354 0.61893 0.0
C5529 C 0.24598 0.91146 0.62633 0.0
C5530 C 0.23185 0.90501 0.62601 0.0
C5531 C 0.22581 0.91064 0.61843 0.0
C5532 C 0.2339 0.92278 0.61122 0.0
C5533 C 0.24804 0.92927 0.61152 0.0
H5534 H 0.21487 0.90563 0.61818 0.0
H5535 H 0.35181 0.96836 0.62598 0.0
H5536 H 0.02846 0.31683 0.65514 0.0
H5537 H 0.05021 0.3256 0.64348 0.0
H5538 H 0.06062 0.3677 0.65203 0.0
H5539 H 0.03899 0.35909 0.66364 0.0
H5540 H 0.06549 0.3632 0.62489 0.0
H5541 H 0.07471 0.35454 0.67107 0.0
H5542 H 0.07081 0.34022 0.6913 0.0
H5543 H 0.07663 0.31202 0.66574 0.0
H5544 H 0.08039 0.32608 0.6453 0.0
H5545 H 0.13597 0.40256 0.61264 0.0
H5546 H 0.11325 0.39156 0.62248 0.0
H5547 H 0.10837 0.35132 0.61639 0.0
H5548 H 0.1313 0.36237 0.607 0.0
H5549 H 0.09984 0.35329 0.64102 0.0
H5550 H 0.0918 0.36222 0.59507 0.0
H5551 H 0.09552 0.37616 0.57457 0.0
H5552 H 0.08704 0.4031 0.59889 0.0
H5553 H 0.08345 0.38943 0.61961 0.0
C5554 C 0.0354 0.32795 0.65456 0.0
C5555 C 0.032 0.33726 0.66034 0.0
C5556 C 0.04783 0.33294 0.64793 0.0
C5557 C 0.05704 0.3473 0.64694 0.0
C5558 C 0.05364 0.35659 0.65265 0.0
C5559 C 0.04129 0.35163 0.65935 0.0
C5560 C 0.07022 0.35275 0.63991 0.0
C5561 C 0.07306 0.36115 0.62847 0.0
C5562 C 0.0799 0.34971 0.64435 0.0
C5563 C 0.07767 0.34127 0.65663 0.0
C5564 C 0.07504 0.34521 0.66974 0.0
C5565 C 0.07288 0.33716 0.68125 0.0
C5566 C 0.07343 0.32519 0.6798 0.0
C5567 C 0.07618 0.32127 0.66684 0.0
C5568 C 0.07833 0.32929 0.6553 0.0
C5569 C 0.12996 0.39135 0.61323 0.0
C5570 C 0.13526 0.3833 0.60867 0.0
C5571 C 0.11697 0.38506 0.61882 0.0
C5572 C 0.10896 0.37057 0.6199 0.0
C5573 C 0.1143 0.36251 0.61554 0.0
C5574 C 0.12735 0.36881 0.61006 0.0
C5575 C 0.09522 0.36391 0.62604 0.0
C5576 C 0.09225 0.35527 0.63731 0.0
C5577 C 0.08536 0.36664 0.62138 0.0
C5578 C 0.08746 0.37486 0.60892 0.0
C5579 C 0.09082 0.37117 0.59608 0.0
C5580 C 0.09289 0.37902 0.58441 0.0
C5581 C 0.09155 0.39052 0.58543 0.0
C5582 C 0.08809 0.39419 0.59812 0.0
C5583 C 0.08602 0.38639 0.60982 0.0
H5584 H 0.09316 0.39658 0.57639 0.0
H5585 H 0.07176 0.31897 0.68872 0.0
H5586 H 0.29605 0.32561 0.66221 0.0
H5587 H 0.2842 0.33596 0.65242 0.0
H5588 H 0.31768 0.35953 0.62495 0.0
H5589 H 0.32964 0.34939 0.63476 0.0
H5590 H 0.3107 0.37579 0.63832 0.0
H5591 H 0.28724 0.33208 0.61251 0.0
H5592 H 0.27411 0.30653 0.60939 0.0
H5593 H 0.24176 0.30412 0.63356 0.0
H5594 H 0.25478 0.32966 0.63698 0.0
H5595 H 0.28008 0.40481 0.60168 0.0
H5596 H 0.28992 0.39087 0.60618 0.0
H5597 H 0.25686 0.36566 0.63354 0.0
H5598 H 0.24677 0.3793 0.62869 0.0
H5599 H 0.26367 0.34984 0.61895 0.0
H5600 H 0.28736 0.39293 0.64614 0.0
H5601 H 0.3003 0.41842 0.64985 0.0
H5602 H 0.3321 0.42186 0.6239 0.0
H5603 H 0.31924 0.39638 0.61987 0.0
C5604 C 0.30082 0.33288 0.65398 0.0
C5605 C 0.31382 0.33672 0.64931 0.0
C5606 C 0.29401 0.33874 0.64835 0.0
C5607 C 0.30002 0.34847 0.6379 0.0
C5608 C 0.31285 0.35206 0.63302 0.0
C5609 C 0.31967 0.34623 0.63863 0.0
C5610 C 0.29336 0.35555 0.63265 0.0
C5611 C 0.3005 0.37012 0.63386 0.0
C5612 C 0.27992 0.34814 0.62718 0.0
C5613 C 0.27205 0.33278 0.62511 0.0
C5614 C 0.27738 0.3261 0.61725 0.0
C5615 C 0.26994 0.31162 0.61541 0.0
C5616 C 0.25712 0.30371 0.6213 0.0
C5617 C 0.25169 0.31026 0.62901 0.0
C5618 C 0.25909 0.32474 0.6309 0.0
C5619 C 0.27475 0.39608 0.60838 0.0
C5620 C 0.26256 0.393 0.6147 0.0
C5621 C 0.28043 0.38819 0.61104 0.0
C5622 C 0.27422 0.37733 0.62035 0.0
C5623 C 0.26182 0.37396 0.6263 0.0
C5624 C 0.25607 0.38175 0.62354 0.0
C5625 C 0.28104 0.37007 0.62461 0.0
C5626 C 0.27391 0.3555 0.62329 0.0
C5627 C 0.29448 0.37746 0.63008 0.0
C5628 C 0.30228 0.39276 0.63259 0.0
C5629 C 0.29707 0.39913 0.64115 0.0
C5630 C 0.30439 0.41357 0.64332 0.0
C5631 C 0.317 0.42176 0.63709 0.0
C5632 C 0.32232 0.41551 0.6287 0.0
C5633 C 0.31503 0.40107 0.62648 0.0
H5634 H 0.32265 0.43294 0.63878 0.0
H5635 H 0.25138 0.2925 0.61986 0.0
H5636 H 0.66068 0.99055 0.64232 0.0
H5637 H 0.64821 0.96659 0.63299 0.0
H5638 H 0.68314 0.96366 0.64048 0.0
H5639 H 0.69578 0.98774 0.64976 0.0
H5640 H 0.67055 0.95128 0.61517 0.0
H5641 H 0.65787 0.95042 0.66302 0.0
H5642 H 0.64957 0.95735 0.68349 0.0
H5643 H 0.61167 0.94274 0.66219 0.0
H5644 H 0.61982 0.9359 0.6415 0.0
H5645 H 0.63849 0.87782 0.61806 0.0
H5646 H 0.65129 0.90304 0.62235 0.0
H5647 H 0.61521 0.90361 0.61373 0.0
H5648 H 0.60237 0.87832 0.60931 0.0
H5649 H 0.62789 0.91745 0.63848 0.0
H5650 H 0.64012 0.91685 0.59108 0.0
H5651 H 0.64848 0.90978 0.57079 0.0
H5652 H 0.6872 0.92685 0.59128 0.0
H5653 H 0.679 0.93384 0.61181 0.0
C5654 C 0.66577 0.98487 0.6419 0.0
C5655 C 0.67921 0.99104 0.6469 0.0
C5656 C 0.65861 0.97116 0.63659 0.0
C5657 C 0.6647 0.9633 0.6362 0.0
C5658 C 0.67825 0.96955 0.64072 0.0
C5659 C 0.68544 0.98329 0.64606 0.0
C5660 C 0.65672 0.9484 0.63163 0.0
C5661 C 0.6613 0.94384 0.62034 0.0
C5662 C 0.64449 0.93878 0.6382 0.0
C5663 C 0.63952 0.94279 0.65066 0.0
C5664 C 0.64781 0.94879 0.66266 0.0
C5665 C 0.64312 0.95268 0.67431 0.0
C5666 C 0.63012 0.95053 0.67413 0.0
C5667 C 0.62175 0.94443 0.66231 0.0
C5668 C 0.62639 0.94053 0.65062 0.0
C5669 C 0.63334 0.88335 0.61688 0.0
C5670 C 0.61944 0.87613 0.61336 0.0
C5671 C 0.64066 0.89775 0.6193 0.0
C5672 C 0.6342 0.90519 0.61831 0.0
C5673 C 0.62038 0.89805 0.61455 0.0
C5674 C 0.61308 0.88365 0.612 0.0
C5675 C 0.64172 0.92028 0.62203 0.0
C5676 C 0.63708 0.92489 0.63321 0.0
C5677 C 0.6539 0.92991 0.61538 0.0
C5678 C 0.65889 0.92575 0.60305 0.0
C5679 C 0.65038 0.91899 0.59132 0.0
C5680 C 0.6551 0.91501 0.57976 0.0
C5681 C 0.66835 0.91783 0.57976 0.0
C5682 C 0.67693 0.92466 0.59131 0.0
C5683 C 0.67225 0.92864 0.6029 0.0
H5684 H 0.67199 0.91475 0.5708 0.0
H5685 H 0.62651 0.95355 0.68315 0.0
H5686 H 0.01239 0.71705 0.65898 0.0
H5687 H 0.03497 0.72801 0.64879 0.0
H5688 H 0.02922 0.68766 0.64029 0.0
H5689 H 0.00673 0.67663 0.65059 0.0
H5690 H 0.05336 0.70501 0.65234 0.0
H5691 H 0.02828 0.70628 0.61401 0.0
H5692 H 0.01274 0.71116 0.60186 0.0
H5693 H 0.03958 0.75481 0.61145 0.0
H5694 H 0.0552 0.75018 0.62384 0.0
H5695 H 0.11334 0.73025 0.61329 0.0
H5696 H 0.08896 0.71798 0.61807 0.0
H5697 H 0.09314 0.75686 0.63097 0.0
H5698 H 0.1175 0.76915 0.62624 0.0
H5699 H 0.06939 0.73928 0.61521 0.0
H5700 H 0.09361 0.73732 0.65483 0.0
H5701 H 0.10914 0.73212 0.66649 0.0
H5702 H 0.08346 0.68902 0.6538 0.0
H5703 H 0.06789 0.69402 0.64185 0.0
C5704 C 0.01589 0.7105 0.65487 0.0
C5705 C 0.00776 0.69596 0.65563 0.0
C5706 C 0.02878 0.71678 0.64898 0.0
C5707 C 0.03374 0.70865 0.64367 0.0
C5708 C 0.0256 0.69414 0.64431 0.0
C5709 C 0.01272 0.68785 0.65018 0.0
C5710 C 0.04767 0.7153 0.63805 0.0
C5711 C 0.05677 0.71232 0.64405 0.0
C5712 C 0.05222 0.72502 0.6274 0.0
C5713 C 0.04284 0.72786 0.61998 0.0
C5714 C 0.03081 0.71691 0.61364 0.0
C5715 C 0.022 0.71963 0.60669 0.0
C5716 C 0.02515 0.73328 0.60592 0.0
C5717 C 0.03714 0.74424 0.61208 0.0
C5718 C 0.04598 0.74157 0.61905 0.0
C5719 C 0.10899 0.73618 0.61693 0.0
C5720 C 0.11729 0.75064 0.61942 0.0
C5721 C 0.0951 0.72917 0.61969 0.0
C5722 C 0.0893 0.73651 0.62499 0.0
C5723 C 0.09743 0.75102 0.62686 0.0
C5724 C 0.11133 0.75802 0.62419 0.0
C5725 C 0.07499 0.72901 0.62956 0.0
C5726 C 0.06587 0.73186 0.6234 0.0
C5727 C 0.07038 0.71911 0.64002 0.0
C5728 C 0.07967 0.71607 0.64732 0.0
C5729 C 0.09133 0.72675 0.65443 0.0
C5730 C 0.10014 0.72384 0.6611 0.0
C5731 C 0.09731 0.71025 0.66086 0.0
C5732 C 0.08565 0.69954 0.65396 0.0
C5733 C 0.07683 0.70241 0.64724 0.0
H5734 H 0.10414 0.70801 0.66604 0.0
H5735 H 0.01832 0.73537 0.60053 0.0
H5736 H 0.00195 0.65148 0.69675 0.0
H5737 H 0.00279 0.63258 0.70693 0.0
H5738 H 0.95955 0.60523 0.70043 0.0
H5739 H 0.95859 0.6241 0.69021 0.0
H5740 H 0.96815 0.60384 0.72684 0.0
H5741 H 0.9804 0.60204 0.67922 0.0
H5742 H 0.99357 0.6116 0.65791 0.0
H5743 H 0.03021 0.62239 0.67982 0.0
H5744 H 0.01727 0.61307 0.70133 0.0
H5745 H 0.96198 0.53959 0.73788 0.0
H5746 H 0.96161 0.55877 0.72767 0.0
H5747 H 0.00522 0.58471 0.73218 0.0
H5748 H 0.00565 0.56544 0.74224 0.0
H5749 H 0.99679 0.58717 0.70703 0.0
H5750 H 0.98514 0.5892 0.75446 0.0
H5751 H 0.97246 0.58003 0.77611 0.0
H5752 H 0.93545 0.56948 0.75517 0.0
H5753 H 0.94788 0.57841 0.73332 0.0
C5754 C 0.99261 0.64145 0.69747 0.0
C5755 C 0.9802 0.63928 0.69265 0.0
C5756 C 0.99312 0.63065 0.70325 0.0
C5757 C 0.98125 0.61749 0.70433 0.0
C5758 C 0.96882 0.61532 0.69966 0.0
C5759 C 0.96831 0.62609 0.69379 0.0
C5760 C 0.98179 0.60603 0.71043 0.0
C5761 C 0.97426 0.60005 0.72241 0.0
C5762 C 0.99009 0.60141 0.70486 0.0
C5763 C 0.99788 0.60699 0.69193 0.0
C5764 C 0.99128 0.60656 0.67953 0.0
C5765 C 0.9987 0.61191 0.66741 0.0
C5766 C 0.01273 0.61763 0.66752 0.0
C5767 C 0.01935 0.61797 0.67975 0.0
C5768 C 0.01198 0.61265 0.69191 0.0
C5769 C 0.97147 0.54942 0.73678 0.0
C5770 C 0.98381 0.55114 0.74112 0.0
C5771 C 0.97125 0.56036 0.73097 0.0
C5772 C 0.98337 0.57323 0.72938 0.0
C5773 C 0.99575 0.57489 0.7334 0.0
C5774 C 0.99598 0.56393 0.73921 0.0
C5775 C 0.98309 0.58491 0.72341 0.0
C5776 C 0.99069 0.59095 0.71148 0.0
C5777 C 0.97493 0.58967 0.72908 0.0
C5778 C 0.96742 0.58436 0.74222 0.0
C5779 C 0.97428 0.58483 0.75444 0.0
C5780 C 0.96714 0.57969 0.76675 0.0
C5781 C 0.95315 0.57415 0.76701 0.0
C5782 C 0.94628 0.57377 0.75496 0.0
C5783 C 0.95337 0.57888 0.7426 0.0
H5784 H 0.94765 0.57018 0.77655 0.0
H5785 H 0.01845 0.62177 0.65812 0.0
H5786 H 0.38174 0.36494 0.68002 0.0
H5787 H 0.39465 0.38753 0.69257 0.0
H5788 H 0.35949 0.37727 0.71704 0.0
H5789 H 0.34651 0.35469 0.70458 0.0
H5790 H 0.37087 0.40272 0.70561 0.0
H5791 H 0.38573 0.37819 0.73199 0.0
H5792 H 0.39525 0.36364 0.73558 0.0
H5793 H 0.4326 0.39418 0.717 0.0
H5794 H 0.42323 0.40884 0.71312 0.0
H5795 H 0.40435 0.46374 0.74875 0.0
H5796 H 0.39193 0.43897 0.74185 0.0
H5797 H 0.42628 0.4454 0.71802 0.0
H5798 H 0.43884 0.47009 0.72519 0.0
H5799 H 0.41474 0.42117 0.73072 0.0
H5800 H 0.39962 0.44472 0.70264 0.0
H5801 H 0.39037 0.45942 0.69844 0.0
H5802 H 0.35372 0.43072 0.71936 0.0
H5803 H 0.36286 0.41595 0.72387 0.0
C5804 C 0.37679 0.36743 0.68816 0.0
C5805 C 0.36308 0.35803 0.69126 0.0
C5806 C 0.3842 0.38032 0.69537 0.0
C5807 C 0.37804 0.38404 0.70578 0.0
C5808 C 0.36443 0.37459 0.70905 0.0
C5809 C 0.35705 0.36168 0.70193 0.0
C5810 C 0.38553 0.3981 0.71269 0.0
C5811 C 0.38034 0.40667 0.71132 0.0
C5812 C 0.39805 0.40335 0.71983 0.0
C5813 C 0.40372 0.39456 0.72215 0.0
C5814 C 0.39593 0.38175 0.72856 0.0
C5815 C 0.40131 0.37349 0.73067 0.0
C5816 C 0.41451 0.37797 0.72649 0.0
C5817 C 0.42237 0.39072 0.72022 0.0
C5818 C 0.41703 0.39902 0.71807 0.0
C5819 C 0.40935 0.45979 0.74231 0.0
C5820 C 0.42263 0.46879 0.73764 0.0
C5821 C 0.40222 0.44567 0.73829 0.0
C5822 C 0.40813 0.44037 0.72928 0.0
C5823 C 0.42154 0.44925 0.725 0.0
C5824 C 0.4287 0.46334 0.72909 0.0
C5825 C 0.40009 0.42581 0.7236 0.0
C5826 C 0.4052 0.41716 0.72514 0.0
C5827 C 0.38753 0.4205 0.71651 0.0
C5828 C 0.38198 0.42931 0.71372 0.0
C5829 C 0.38963 0.4416 0.70643 0.0
C5830 C 0.3844 0.44994 0.70399 0.0
C5831 C 0.37148 0.44603 0.70866 0.0
C5832 C 0.36374 0.43375 0.71576 0.0
C5833 C 0.36894 0.42539 0.71827 0.0
H5834 H 0.36745 0.4525 0.70675 0.0
H5835 H 0.41866 0.37156 0.72814 0.0
H5836 H 0.6611 0.03363 0.69528 0.0
H5837 H 0.64206 0.02816 0.71041 0.0
H5838 H 0.61391 0.00103 0.67796 0.0
H5839 H 0.63291 0.00658 0.66265 0.0
H5840 H 0.60505 0.01626 0.69154 0.0
H5841 H 0.62176 0.98742 0.70376 0.0
H5842 H 0.63913 0.98244 0.71051 0.0
H5843 H 0.64793 0.00775 0.74803 0.0
H5844 H 0.63073 0.01304 0.74141 0.0
H5845 H 0.54803 0.97717 0.73524 0.0
H5846 H 0.56655 0.98439 0.7187 0.0
H5847 H 0.59551 0.01152 0.75061 0.0
H5848 H 0.57705 0.00423 0.7672 0.0
H5849 H 0.6037 0.99618 0.73693 0.0
H5850 H 0.58651 0.02468 0.72465 0.0
H5851 H 0.56894 0.02932 0.71775 0.0
H5852 H 0.56069 0.00415 0.68022 0.0
H5853 H 0.5781 0.9992 0.68699 0.0
C5854 C 0.65086 0.0266 0.69129 0.0
C5855 C 0.64853 0.02044 0.67779 0.0
C5856 C 0.63999 0.02345 0.69998 0.0
C5857 C 0.62659 0.01401 0.69538 0.0
C5858 C 0.62418 0.0083 0.68172 0.0
C5859 C 0.63506 0.01146 0.673 0.0
C5860 C 0.61514 0.00969 0.70503 0.0
C5861 C 0.60466 0.01172 0.70139 0.0
C5862 C 0.61475 0.00396 0.71797 0.0
C5863 C 0.62505 0.00074 0.72202 0.0
C5864 C 0.62747 0.99201 0.7134 0.0
C5865 C 0.63727 0.98911 0.71721 0.0
C5866 C 0.64465 0.9948 0.72967 0.0
C5867 C 0.64222 0.00336 0.73837 0.0
C5868 C 0.63243 0.00631 0.7346 0.0
C5869 C 0.55834 0.98476 0.73866 0.0
C5870 C 0.56109 0.99031 0.75243 0.0
C5871 C 0.56889 0.9889 0.72922 0.0
C5872 C 0.58238 0.99863 0.73338 0.0
C5873 C 0.58516 0.00406 0.74716 0.0
C5874 C 0.57463 0.99994 0.7566 0.0
C5875 C 0.59366 0.00285 0.72351 0.0
C5876 C 0.6041 0.00075 0.72709 0.0
C5877 C 0.59395 0.00846 0.71051 0.0
C5878 C 0.58352 0.01146 0.7064 0.0
C5879 C 0.58088 0.02004 0.71498 0.0
C5880 C 0.57096 0.02274 0.71108 0.0
C5881 C 0.56368 0.017 0.69857 0.0
C5882 C 0.56633 0.00857 0.68992 0.0
C5883 C 0.57623 0.00583 0.69377 0.0
H5884 H 0.55601 0.0191 0.69558 0.0
H5885 H 0.65224 0.99255 0.73261 0.0
loop_
_geom_bond_atom_site_label_1
_geom_bond_atom_site_label_2
_geom_bond_distance
_geom_bond_site_symmetry_2
_ccdc_geom_bond_type
C0 O1 1.160 . S
C0 O7 1.185 . S
O1 C0 1.160 . S
O2 Zn3 1.899 1_656 S
O2 C10 1.284 . S
Zn3 O2 1.899 1_454 S
Zn3 O4 2.032 . S
Zn3 O7 2.086 . S
Zn3 O12 1.977 1_554 S
O4 Zn3 2.032 . S
O4 C8 1.220 1_455 S
C5 O6 1.191 1_455 S
C5 O12 1.267 . S
O6 C5 1.191 1_655 S
O7 C0 1.185 . S
O7 Zn3 2.086 . S
C8 O4 1.220 1_655 S
C8 O9 1.250 . S
O9 C8 1.250 . S
C10 O2 1.284 . S
C10 O11 1.273 1_556 S
O11 C10 1.273 1_554 S
O12 Zn3 1.977 1_556 S
O12 C5 1.267 . S
C13 O14 1.160 . S
C13 O20 1.185 . S
O14 C13 1.160 . S
O15 Zn16 1.899 . S
O15 C23 1.284 . S
Zn16 O15 1.899 . S
Zn16 O17 2.032 1_554 S
Zn16 O20 2.086 . S
Zn16 O25 1.977 . S
O17 Zn16 2.032 1_556 S
O17 C21 1.278 . S
C18 O19 1.203 . S
C18 O25 1.267 . S
O19 C18 1.203 . S
O20 C13 1.185 . S
O20 Zn16 2.086 . S
C21 O17 1.278 . S
C21 O22 1.211 1_556 S
O22 C21 1.211 1_554 S
C23 O15 1.284 . S
C23 O24 1.273 . S
O24 C23 1.273 . S
O25 Zn16 1.977 . S
O25 C18 1.267 . S
C26 O27 1.160 . S
C26 O33 1.185 1_556 S
O27 C26 1.160 . S
O28 Zn29 1.899 . S
O28 C36 1.284 1_545 S
Zn29 O28 1.899 . S
Zn29 O30 2.032 1_554 S
Zn29 O33 2.086 . S
Zn29 O38 1.977 . S
O30 Zn29 2.032 1_556 S
O30 C34 1.278 . S
C31 O32 1.203 . S
C31 O38 1.267 . S
O32 C31 1.203 . S
O33 C26 1.185 1_554 S
O33 Zn29 2.086 . S
C34 O30 1.278 . S
C34 O35 1.179 1_556 S
O35 C34 1.179 1_554 S
C36 O28 1.284 1_565 S
C36 O37 1.273 . S
O37 C36 1.273 . S
O38 Zn29 1.977 . S
O38 C31 1.267 . S
C39 O40 1.160 . S
C39 O46 1.185 1_556 S
O40 C39 1.160 . S
O41 Zn42 1.899 1_455 S
O41 C49 1.284 . S
Zn42 O41 1.899 1_655 S
Zn42 O43 2.032 1_654 S
Zn42 O46 2.086 . S
Zn42 O51 1.977 . S
O43 Zn42 2.032 1_456 S
O43 C47 1.278 . S
C44 O45 1.203 1_655 S
C44 O51 1.267 . S
O45 C44 1.203 1_455 S
O46 C39 1.185 1_554 S
O46 Zn42 2.086 . S
C47 O43 1.278 . S
C47 O48 1.183 1_556 S
O48 C47 1.183 1_554 S
C49 O41 1.284 . S
C49 O50 1.273 . S
O50 C49 1.273 . S
O51 Zn42 1.977 . S
O51 C44 1.267 . S
C52 O53 1.160 . S
C52 O59 1.185 . S
O53 C52 1.160 . S
O54 Zn55 1.896 1_556 S
O54 C62 1.284 . S
Zn55 O54 1.896 1_554 S
Zn55 O56 2.037 . S
Zn55 O59 2.088 . S
Zn55 O64 1.974 1_554 S
O56 Zn55 2.037 . S
O56 C60 1.278 . S
C57 O58 1.203 . S
C57 O64 1.267 . S
O58 C57 1.203 . S
O59 C52 1.185 . S
O59 Zn55 2.088 . S
C60 O56 1.278 . S
C60 O61 1.211 . S
O61 C60 1.211 . S
C62 O54 1.284 . S
C62 O63 1.273 . S
O63 C62 1.273 . S
O64 Zn55 1.974 1_556 S
O64 C57 1.267 . S
C65 O66 1.160 . S
C65 O72 1.185 . S
O66 C65 1.160 . S
O67 Zn68 1.872 1_546 S
O67 C75 1.279 1_556 S
Zn68 O67 1.872 1_564 S
Zn68 O69 2.032 1_565 S
Zn68 O72 2.086 . S
Zn68 O77 1.977 1_554 S
O69 Zn68 2.032 1_545 S
O69 C73 1.278 . S
C70 O71 1.203 1_565 S
C70 O77 1.267 . S
O71 C70 1.203 1_545 S
O72 C65 1.185 . S
O72 Zn68 2.086 . S
C73 O69 1.278 . S
C73 O74 1.211 . S
O74 C73 1.211 . S
C75 O67 1.279 1_554 S
C75 O76 1.273 . S
O76 C75 1.273 . S
O77 Zn68 1.977 1_556 S
O77 C70 1.267 . S
C78 O79 1.160 . S
C78 O85 1.185 . S
O79 C78 1.160 . S
O80 Zn81 1.899 . S
O80 C88 1.284 . S
Zn81 O80 1.899 . S
Zn81 O82 2.032 . S
Zn81 O85 2.086 . S
Zn81 O90 1.977 . S
O82 Zn81 2.032 . S
O82 C86 1.278 . S
C83 O84 1.203 . S
C83 O90 1.267 . S
O84 C83 1.203 . S
O85 C78 1.185 . S
O85 Zn81 2.086 . S
C86 O82 1.278 . S
C86 O87 1.211 . S
O87 C86 1.211 . S
C88 O80 1.284 . S
C88 O89 1.273 . S
O89 C88 1.273 . S
O90 Zn81 1.977 . S
O90 C83 1.267 . S
C91 O92 1.230 . S
C91 O98 1.185 . S
O92 C91 1.230 . S
O93 Zn94 1.907 . S
O93 C101 1.275 1_565 S
Zn94 O93 1.907 . S
Zn94 O95 2.032 . S
Zn94 O98 2.086 . S
Zn94 O103 1.977 . S
O95 Zn94 2.032 . S
O95 C99 1.278 . S
C96 O97 1.203 . S
C96 O103 1.267 . S
O97 C96 1.203 . S
O98 C91 1.185 . S
O98 Zn94 2.086 . S
C99 O95 1.278 . S
C99 O100 1.211 . S
O100 C99 1.211 . S
C101 O93 1.275 1_545 S
C101 O102 1.264 . S
O102 C101 1.264 . S
O103 Zn94 1.977 . S
O103 C96 1.267 . S
C104 O105 1.160 . S
C104 O111 1.185 . S
O105 C104 1.160 . S
O106 Zn107 1.899 . S
O106 C114 1.284 . S
Zn107 O106 1.899 . S
Zn107 O108 2.032 . S
Zn107 O111 2.086 . S
Zn107 O116 1.977 . S
O108 Zn107 2.032 . S
O108 C112 1.278 . S
C109 O110 1.203 . S
C109 O116 1.267 . S
O110 C109 1.203 . S
O111 C104 1.185 . S
O111 Zn107 2.086 . S
C112 O108 1.278 . S
C112 O113 1.211 . S
O113 C112 1.211 . S
C114 O106 1.284 . S
C114 O115 1.273 . S
O115 C114 1.273 . S
O116 Zn107 1.977 . S
O116 C109 1.267 . S
C117 O118 1.160 . S
C117 O124 1.185 . S
O118 C117 1.160 . S
O119 Zn120 1.946 . S
O119 C127 1.290 1_565 S
Zn120 O119 1.946 . S
Zn120 O121 2.032 . S
Zn120 O124 2.086 . S
Zn120 O129 1.977 . S
O121 Zn120 2.032 . S
O121 C125 1.278 . S
C122 O123 1.203 . S
C122 O129 1.267 . S
O123 C122 1.203 . S
O124 C117 1.185 . S
O124 Zn120 2.086 . S
C125 O121 1.278 . S
C125 O126 1.211 . S
O126 C125 1.211 . S
C127 O119 1.290 1_545 S
C127 O128 1.314 . S
O128 C127 1.314 . S
O129 Zn120 1.977 . S
O129 C122 1.267 . S
C130 O131 1.160 . S
C130 O137 1.185 . S
O131 C130 1.160 . S
O132 Zn133 1.899 . S
O132 C140 1.284 . S
Zn133 O132 1.899 . S
Zn133 O134 2.032 . S
Zn133 O137 2.086 1_455 S
Zn133 O142 1.977 . S
O134 Zn133 2.032 . S
O134 C138 1.278 . S
C135 O136 1.203 . S
C135 O142 1.267 . S
O136 C135 1.203 . S
O137 C130 1.185 . S
O137 Zn133 2.086 1_655 S
C138 O134 1.278 . S
C138 O139 1.211 . S
O139 C138 1.211 . S
C140 O132 1.284 . S
C140 O141 1.273 . S
O141 C140 1.273 . S
O142 Zn133 1.977 . S
O142 C135 1.267 . S
C143 O144 1.160 . S
C143 O150 1.185 . S
O144 C143 1.160 . S
O145 Zn146 1.899 . S
O145 C153 1.284 . S
Zn146 O145 1.899 . S
Zn146 O147 2.032 . S
Zn146 O150 2.086 . S
Zn146 O155 1.977 . S
O147 Zn146 2.032 . S
O147 C151 1.278 . S
C148 O149 1.203 . S
C148 O155 1.267 . S
O149 C148 1.203 . S
O150 C143 1.185 . S
O150 Zn146 2.086 . S
C151 O147 1.278 . S
C151 O152 1.211 . S
O152 C151 1.211 . S
C153 O145 1.284 . S
C153 O154 1.273 . S
O154 C153 1.273 . S
O155 Zn146 1.977 . S
O155 C148 1.267 . S
C156 O157 1.160 . S
C156 O163 1.185 . S
O157 C156 1.160 . S
O158 Zn159 1.899 . S
O158 C166 1.281 . S
Zn159 O158 1.899 . S
Zn159 O160 2.032 . S
Zn159 O163 2.086 . S
Zn159 O168 1.977 . S
O160 Zn159 2.032 . S
O160 C164 1.278 . S
C161 O162 1.203 . S
C161 O168 1.267 . S
O162 C161 1.203 . S
O163 C156 1.185 . S
O163 Zn159 2.086 . S
C164 O160 1.278 . S
C164 O165 1.211 . S
O165 C164 1.211 . S
C166 O158 1.281 . S
C166 O167 1.331 . S
O167 C166 1.331 . S
O168 Zn159 1.977 . S
O168 C161 1.267 . S
C169 O170 1.160 . S
C169 O176 1.185 . S
O170 C169 1.160 . S
O171 Zn172 1.899 . S
O171 C179 1.284 . S
Zn172 O171 1.899 . S
Zn172 O173 2.032 . S
Zn172 O176 2.086 1_655 S
Zn172 O181 1.977 . S
O173 Zn172 2.032 . S
O173 C177 1.278 . S
C174 O175 1.203 . S
C174 O181 1.267 . S
O175 C174 1.203 . S
O176 C169 1.185 . S
O176 Zn172 2.086 1_455 S
C177 O173 1.278 . S
C177 O178 1.211 . S
O178 C177 1.211 . S
C179 O171 1.284 . S
C179 O180 1.273 . S
O180 C179 1.273 . S
O181 Zn172 1.977 . S
O181 C174 1.267 . S
C182 O183 1.160 . S
C182 O189 1.185 . S
O183 C182 1.160 . S
O184 Zn185 1.899 . S
O184 C192 1.284 . S
Zn185 O184 1.899 . S
Zn185 O186 2.032 . S
Zn185 O189 2.086 . S
Zn185 O194 1.977 . S
O186 Zn185 2.032 . S
O186 C190 1.278 . S
C187 O188 1.203 . S
C187 O194 1.267 . S
O188 C187 1.203 . S
O189 C182 1.185 . S
O189 Zn185 2.086 . S
C190 O186 1.278 . S
C190 O191 1.211 . S
O191 C190 1.211 . S
C192 O184 1.284 . S
C192 O193 1.273 . S
O193 C192 1.273 . S
O194 Zn185 1.977 . S
O194 C187 1.267 . S
C195 O196 1.160 . S
C195 O202 1.185 . S
O196 C195 1.160 . S
O197 Zn198 1.899 . S
O197 C205 1.284 . S
Zn198 O197 1.899 . S
Zn198 O199 2.032 . S
Zn198 O202 2.086 . S
Zn198 O207 1.977 . S
O199 Zn198 2.032 . S
O199 C203 1.278 . S
C200 O201 1.203 . S
C200 O207 1.267 . S
O201 C200 1.203 . S
O202 C195 1.185 . S
O202 Zn198 2.086 . S
C203 O199 1.278 . S
C203 O204 1.211 . S
O204 C203 1.211 . S
C205 O197 1.284 . S
C205 O206 1.273 . S
O206 C205 1.273 . S
O207 Zn198 1.977 . S
O207 C200 1.267 . S
C208 O209 1.160 . S
C208 O215 1.185 . S
O209 C208 1.160 . S
O210 Zn211 1.899 . S
O210 C218 1.312 . S
Zn211 O210 1.899 . S
Zn211 O212 2.032 . S
Zn211 O215 2.086 . S
Zn211 O220 1.977 . S
O212 Zn211 2.032 . S
O212 C216 1.278 . S
C213 O214 1.203 . S
C213 O220 1.267 . S
O214 C213 1.203 . S
O215 C208 1.185 . S
O215 Zn211 2.086 . S
C216 O212 1.278 . S
C216 O217 1.211 . S
O217 C216 1.211 . S
C218 O210 1.312 . S
C218 O219 1.270 . S
O219 C218 1.270 . S
O220 Zn211 1.977 . S
O220 C213 1.267 . S
C221 O222 1.160 . S
C221 O228 1.185 . S
O222 C221 1.160 . S
O223 Zn224 1.899 . S
O223 C231 1.284 . S
Zn224 O223 1.899 . S
Zn224 O225 2.032 . S
Zn224 O228 2.086 . S
Zn224 O233 1.977 . S
O225 Zn224 2.032 . S
O225 C229 1.278 . S
C226 O227 1.203 . S
C226 O233 1.267 . S
O227 C226 1.203 . S
O228 C221 1.185 . S
O228 Zn224 2.086 . S
C229 O225 1.278 . S
C229 O230 1.211 . S
O230 C229 1.211 . S
C231 O223 1.284 . S
C231 O232 1.273 . S
O232 C231 1.273 . S
O233 Zn224 1.977 . S
O233 C226 1.267 . S
C234 C235 1.560 . S
C234 H295 0.959 . S
C234 H296 0.959 . S
C234 H297 0.960 . S
C235 C234 1.560 . S
C235 O290 1.426 . S
C235 H294 0.980 . S
C236 C237 1.407 . S
C236 C241 1.418 . S
C236 O290 1.334 . S
C237 C236 1.407 . S
C237 C238 1.360 . S
C237 H298 0.929 . S
C238 C237 1.360 . S
C238 C239 1.401 . S
C238 C242 1.527 . S
C239 C238 1.401 . S
C239 C240 1.405 . S
C239 C272 1.587 . S
C240 C239 1.405 . S
C240 C241 1.332 . S
C240 C243 1.496 . S
C241 C236 1.418 . S
C241 C240 1.332 . S
C241 H299 0.929 . S
C242 C238 1.527 . S
C242 H300 0.959 . S
C242 H301 0.961 . S
C242 H302 0.961 . S
C243 C240 1.496 . S
C243 H303 0.960 . S
C243 H304 0.960 . S
C243 H305 0.961 . S
C244 C245 1.517 . S
C244 H307 0.961 . S
C244 H308 0.960 . S
C244 H309 0.959 . S
C245 C244 1.517 . S
C245 O293 1.468 . S
C245 H306 0.980 . S
C246 C247 1.349 . S
C246 C251 1.367 . S
C246 O293 1.408 . S
C247 C246 1.349 . S
C247 C248 1.407 . S
C247 H310 0.930 . S
C248 C247 1.407 . S
C248 C249 1.449 . S
C248 C252 1.535 . S
C249 C248 1.449 . S
C249 C250 1.384 . S
C249 C274 1.553 . S
C250 C249 1.384 . S
C250 C251 1.364 . S
C250 C253 1.450 . S
C251 C246 1.367 . S
C251 C250 1.364 . S
C251 H311 0.931 . S
C252 C248 1.535 . S
C252 H312 0.959 . S
C252 H313 0.961 . S
C252 H314 0.959 . S
C253 C250 1.450 . S
C253 H315 0.960 . S
C253 H316 0.960 . S
C253 H317 0.960 . S
C254 C255 1.309 . S
C254 C259 1.304 . S
C254 O292 1.435 . S
C255 C254 1.309 . S
C255 C256 1.476 . S
C255 H319 0.930 . S
C256 C255 1.476 . S
C256 C257 1.400 . S
C256 C260 1.567 . S
C257 C256 1.400 . S
C257 C258 1.373 . S
C257 C279 1.432 . S
C258 C257 1.373 . S
C258 C259 1.339 . S
C258 C261 1.530 . S
C259 C254 1.304 . S
C259 C258 1.339 . S
C259 H320 0.930 . S
C260 C256 1.567 . S
C260 H321 0.961 . S
C260 H322 0.960 . S
C260 H323 0.958 . S
C261 C258 1.530 . S
C261 H324 0.961 . S
C261 H325 0.960 . S
C261 H326 0.960 . S
C262 C263 1.530 . S
C262 H328 0.961 . S
C262 H329 0.961 . S
C262 H330 0.959 . S
C263 C262 1.530 . S
C263 O291 1.412 . S
C263 H327 0.980 . S
C264 C265 1.288 . S
C264 C269 1.377 . S
C264 O291 1.393 . S
C265 C264 1.288 . S
C265 C266 1.369 . S
C265 H331 0.932 . S
C266 C265 1.369 . S
C266 C267 1.398 . S
C266 C270 1.527 . S
C267 C266 1.398 . S
C267 C268 1.380 . S
C267 C281 1.497 . S
C268 C267 1.380 . S
C268 C269 1.383 . S
C268 C271 1.603 . S
C269 C264 1.377 . S
C269 C268 1.383 . S
C269 H332 0.929 . S
C270 C266 1.527 . S
C270 H333 0.961 . S
C270 H334 0.959 . S
C270 H335 0.959 . S
C271 C268 1.603 . S
C271 H336 0.960 . S
C271 H337 0.962 . S
C271 H338 0.961 . S
C272 C239 1.587 . S
C272 C273 1.360 . S
C272 C285 1.412 . S
C273 C272 1.360 . S
C273 C274 1.365 . S
C273 H339 0.929 . S
C274 C249 1.553 . S
C274 C273 1.365 . S
C274 C275 1.404 . S
C275 C274 1.404 . S
C275 C276 1.395 . S
C275 C286 1.451 . S
C276 C275 1.395 . S
C276 C277 1.322 . S
C276 H340 0.930 . S
C277 C276 1.322 . S
C277 C278 1.459 . S
C277 H341 0.929 . S
C278 C277 1.459 . S
C278 C279 1.445 . S
C278 C287 1.395 . S
C279 C257 1.432 . S
C279 C278 1.445 . S
C279 C280 1.370 . S
C280 C279 1.370 . S
C280 C281 1.438 . S
C280 H342 0.930 . S
C281 C267 1.497 . S
C281 C280 1.438 . S
C281 C282 1.360 . S
C282 C281 1.360 . S
C282 C283 1.401 . S
C282 C287 1.446 . S
C283 C282 1.401 . S
C283 C284 1.347 . S
C283 H343 0.929 . S
C284 C283 1.347 . S
C284 C285 1.455 . S
C284 H344 0.930 . S
C285 C272 1.412 . S
C285 C284 1.455 . S
C285 C286 1.331 . S
C286 C275 1.451 . S
C286 C285 1.331 . S
C286 C287 1.497 . S
C287 C278 1.395 . S
C287 C282 1.446 . S
C287 C286 1.497 . S
C288 C289 1.582 . S
C288 H345 0.962 . S
C288 H346 0.959 . S
C288 H347 0.958 . S
C289 C288 1.582 . S
C289 O292 1.458 . S
C289 H318 0.980 . S
O290 C235 1.426 . S
O290 C236 1.334 . S
O291 C263 1.412 . S
O291 C264 1.393 . S
O292 C254 1.435 . S
O292 C289 1.458 . S
O293 C245 1.468 . S
O293 C246 1.408 . S
H294 C235 0.980 . S
H295 C234 0.959 . S
H296 C234 0.959 . S
H297 C234 0.960 . S
H298 C237 0.929 . S
H299 C241 0.929 . S
H300 C242 0.959 . S
H301 C242 0.961 . S
H302 C242 0.961 . S
H303 C243 0.960 . S
H304 C243 0.960 . S
H305 C243 0.961 . S
H306 C245 0.980 . S
H307 C244 0.961 . S
H308 C244 0.960 . S
H309 C244 0.959 . S
H310 C247 0.930 . S
H311 C251 0.931 . S
H312 C252 0.959 . S
H313 C252 0.961 . S
H314 C252 0.959 . S
H315 C253 0.960 . S
H316 C253 0.960 . S
H317 C253 0.960 . S
H318 C289 0.980 . S
H319 C255 0.930 . S
H320 C259 0.930 . S
H321 C260 0.961 . S
H322 C260 0.960 . S
H323 C260 0.958 . S
H324 C261 0.961 . S
H325 C261 0.960 . S
H326 C261 0.960 . S
H327 C263 0.980 . S
H328 C262 0.961 . S
H329 C262 0.961 . S
H330 C262 0.959 . S
H331 C265 0.932 . S
H332 C269 0.929 . S
H333 C270 0.961 . S
H334 C270 0.959 . S
H335 C270 0.959 . S
H336 C271 0.960 . S
H337 C271 0.962 . S
H338 C271 0.961 . S
H339 C273 0.929 . S
H340 C276 0.930 . S
H341 C277 0.929 . S
H342 C280 0.930 . S
H343 C283 0.929 . S
H344 C284 0.930 . S
H345 C288 0.962 . S
H346 C288 0.959 . S
H347 C288 0.958 . S
C348 C349 1.560 . S
C348 H409 0.959 . S
C348 H410 0.959 . S
C348 H411 0.960 . S
C349 C348 1.560 . S
C349 O404 1.426 . S
C349 H408 0.980 . S
C350 C351 1.407 . S
C350 C355 1.418 . S
C350 O404 1.334 . S
C351 C350 1.407 . S
C351 C352 1.360 . S
C351 H412 0.929 . S
C352 C351 1.360 . S
C352 C353 1.401 . S
C352 C356 1.527 . S
C353 C352 1.401 . S
C353 C354 1.405 . S
C353 C386 1.587 . S
C354 C353 1.405 . S
C354 C355 1.332 . S
C354 C357 1.496 . S
C355 C350 1.418 . S
C355 C354 1.332 . S
C355 H413 0.929 . S
C356 C352 1.527 . S
C356 H414 0.959 . S
C356 H415 0.961 . S
C356 H416 0.961 . S
C357 C354 1.496 . S
C357 H417 0.960 . S
C357 H418 0.960 . S
C357 H419 0.961 . S
C358 C359 1.517 . S
C358 H421 0.961 . S
C358 H422 0.960 . S
C358 H423 0.959 . S
C359 C358 1.517 . S
C359 O407 1.468 . S
C359 H420 0.980 . S
C360 C361 1.349 . S
C360 C365 1.367 . S
C360 O407 1.408 . S
C361 C360 1.349 . S
C361 C362 1.407 . S
C361 H424 0.930 . S
C362 C361 1.407 . S
C362 C363 1.449 . S
C362 C366 1.535 . S
C363 C362 1.449 . S
C363 C364 1.384 . S
C363 C388 1.553 . S
C364 C363 1.384 . S
C364 C365 1.364 . S
C364 C367 1.450 . S
C365 C360 1.367 . S
C365 C364 1.364 . S
C365 H425 0.931 . S
C366 C362 1.535 . S
C366 H426 0.959 . S
C366 H427 0.961 . S
C366 H428 0.959 . S
C367 C364 1.450 . S
C367 H429 0.960 . S
C367 H430 0.960 . S
C367 H431 0.960 . S
C368 C369 1.309 . S
C368 C373 1.304 . S
C368 O406 1.435 . S
C369 C368 1.309 . S
C369 C370 1.476 . S
C369 H433 0.930 . S
C370 C369 1.476 . S
C370 C371 1.400 . S
C370 C374 1.567 . S
C371 C370 1.400 . S
C371 C372 1.373 . S
C371 C393 1.432 . S
C372 C371 1.373 . S
C372 C373 1.339 . S
C372 C375 1.530 . S
C373 C368 1.304 . S
C373 C372 1.339 . S
C373 H434 0.930 . S
C374 C370 1.567 . S
C374 H435 0.961 . S
C374 H436 0.960 . S
C374 H437 0.958 . S
C375 C372 1.530 . S
C375 H438 0.961 . S
C375 H439 0.960 . S
C375 H440 0.960 . S
C376 C377 1.530 . S
C376 H442 0.961 . S
C376 H443 0.961 . S
C376 H444 0.959 . S
C377 C376 1.530 . S
C377 O405 1.412 . S
C377 H441 0.980 . S
C378 C379 1.288 . S
C378 C383 1.377 . S
C378 O405 1.393 . S
C379 C378 1.288 . S
C379 C380 1.369 . S
C379 H445 0.932 . S
C380 C379 1.369 . S
C380 C381 1.398 . S
C380 C384 1.527 . S
C381 C380 1.398 . S
C381 C382 1.380 . S
C381 C395 1.497 . S
C382 C381 1.380 . S
C382 C383 1.383 . S
C382 C385 1.603 . S
C383 C378 1.377 . S
C383 C382 1.383 . S
C383 H446 0.929 . S
C384 C380 1.527 . S
C384 H447 0.961 . S
C384 H448 0.959 . S
C384 H449 0.959 . S
C385 C382 1.603 . S
C385 H450 0.960 . S
C385 H451 0.962 . S
C385 H452 0.961 . S
C386 C353 1.587 . S
C386 C387 1.360 . S
C386 C399 1.412 . S
C387 C386 1.360 . S
C387 C388 1.365 . S
C387 H453 0.929 . S
C388 C363 1.553 . S
C388 C387 1.365 . S
C388 C389 1.404 . S
C389 C388 1.404 . S
C389 C390 1.395 . S
C389 C400 1.451 . S
C390 C389 1.395 . S
C390 C391 1.322 . S
C390 H454 0.930 . S
C391 C390 1.322 . S
C391 C392 1.459 . S
C391 H455 0.929 . S
C392 C391 1.459 . S
C392 C393 1.445 . S
C392 C401 1.395 . S
C393 C371 1.432 . S
C393 C392 1.445 . S
C393 C394 1.370 . S
C394 C393 1.370 . S
C394 C395 1.438 . S
C394 H456 0.930 . S
C395 C381 1.497 . S
C395 C394 1.438 . S
C395 C396 1.360 . S
C396 C395 1.360 . S
C396 C397 1.401 . S
C396 C401 1.446 . S
C397 C396 1.401 . S
C397 C398 1.347 . S
C397 H457 0.929 . S
C398 C397 1.347 . S
C398 C399 1.455 . S
C398 H458 0.930 . S
C399 C386 1.412 . S
C399 C398 1.455 . S
C399 C400 1.331 . S
C400 C389 1.451 . S
C400 C399 1.331 . S
C400 C401 1.497 . S
C401 C392 1.395 . S
C401 C396 1.446 . S
C401 C400 1.497 . S
C402 C403 1.582 . S
C402 H459 0.962 . S
C402 H460 0.959 . S
C402 H461 0.958 . S
C403 C402 1.582 . S
C403 O406 1.458 . S
C403 H432 0.980 . S
O404 C349 1.426 . S
O404 C350 1.334 . S
O405 C377 1.412 . S
O405 C378 1.393 . S
O406 C368 1.435 . S
O406 C403 1.458 . S
O407 C359 1.468 . S
O407 C360 1.408 . S
H408 C349 0.980 . S
H409 C348 0.959 . S
H410 C348 0.959 . S
H411 C348 0.960 . S
H412 C351 0.929 . S
H413 C355 0.929 . S
H414 C356 0.959 . S
H415 C356 0.961 . S
H416 C356 0.961 . S
H417 C357 0.960 . S
H418 C357 0.960 . S
H419 C357 0.961 . S
H420 C359 0.980 . S
H421 C358 0.961 . S
H422 C358 0.960 . S
H423 C358 0.959 . S
H424 C361 0.930 . S
H425 C365 0.931 . S
H426 C366 0.959 . S
H427 C366 0.961 . S
H428 C366 0.959 . S
H429 C367 0.960 . S
H430 C367 0.960 . S
H431 C367 0.960 . S
H432 C403 0.980 . S
H433 C369 0.930 . S
H434 C373 0.930 . S
H435 C374 0.961 . S
H436 C374 0.960 . S
H437 C374 0.958 . S
H438 C375 0.961 . S
H439 C375 0.960 . S
H440 C375 0.960 . S
H441 C377 0.980 . S
H442 C376 0.961 . S
H443 C376 0.961 . S
H444 C376 0.959 . S
H445 C379 0.932 . S
H446 C383 0.929 . S
H447 C384 0.961 . S
H448 C384 0.959 . S
H449 C384 0.959 . S
H450 C385 0.960 . S
H451 C385 0.962 . S
H452 C385 0.961 . S
H453 C387 0.929 . S
H454 C390 0.930 . S
H455 C391 0.929 . S
H456 C394 0.930 . S
H457 C397 0.929 . S
H458 C398 0.930 . S
H459 C402 0.962 . S
H460 C402 0.959 . S
H461 C402 0.958 . S
C462 C463 1.560 . S
C462 H523 0.959 . S
C462 H524 0.959 . S
C462 H525 0.960 . S
C463 C462 1.560 . S
C463 O518 1.426 . S
C463 H522 0.980 . S
C464 C465 1.407 . S
C464 C469 1.418 . S
C464 O518 1.334 . S
C465 C464 1.407 . S
C465 C466 1.360 . S
C465 H526 0.929 . S
C466 C465 1.360 . S
C466 C467 1.401 . S
C466 C470 1.527 . S
C467 C466 1.401 . S
C467 C468 1.405 . S
C467 C500 1.587 . S
C468 C467 1.405 . S
C468 C469 1.332 . S
C468 C471 1.496 . S
C469 C464 1.418 . S
C469 C468 1.332 . S
C469 H527 0.929 . S
C470 C466 1.527 . S
C470 H528 0.959 . S
C470 H529 0.961 . S
C470 H530 0.961 . S
C471 C468 1.496 . S
C471 H531 0.960 . S
C471 H532 0.960 . S
C471 H533 0.961 . S
C472 C473 1.517 . S
C472 H535 0.961 . S
C472 H536 0.960 . S
C472 H537 0.959 . S
C473 C472 1.517 . S
C473 O521 1.468 . S
C473 H534 0.980 . S
C474 C475 1.349 . S
C474 C479 1.367 . S
C474 O521 1.408 . S
C475 C474 1.349 . S
C475 C476 1.407 . S
C475 H538 0.930 . S
C476 C475 1.407 . S
C476 C477 1.449 . S
C476 C480 1.535 . S
C477 C476 1.449 . S
C477 C478 1.384 . S
C477 C502 1.553 . S
C478 C477 1.384 . S
C478 C479 1.364 . S
C478 C481 1.450 . S
C479 C474 1.367 . S
C479 C478 1.364 . S
C479 H539 0.931 . S
C480 C476 1.535 . S
C480 H540 0.959 . S
C480 H541 0.961 . S
C480 H542 0.959 . S
C481 C478 1.450 . S
C481 H543 0.960 . S
C481 H544 0.960 . S
C481 H545 0.960 . S
C482 C483 1.309 . S
C482 C487 1.304 . S
C482 O520 1.435 . S
C483 C482 1.309 . S
C483 C484 1.476 . S
C483 H547 0.930 . S
C484 C483 1.476 . S
C484 C485 1.400 . S
C484 C488 1.567 . S
C485 C484 1.400 . S
C485 C486 1.373 . S
C485 C507 1.432 . S
C486 C485 1.373 . S
C486 C487 1.339 . S
C486 C489 1.530 . S
C487 C482 1.304 . S
C487 C486 1.339 . S
C487 H548 0.930 . S
C488 C484 1.567 . S
C488 H549 0.961 . S
C488 H550 0.960 . S
C488 H551 0.958 . S
C489 C486 1.530 . S
C489 H552 0.961 . S
C489 H553 0.960 . S
C489 H554 0.960 . S
C490 C491 1.530 . S
C490 H556 0.961 . S
C490 H557 0.961 . S
C490 H558 0.959 . S
C491 C490 1.530 . S
C491 O519 1.412 . S
C491 H555 0.980 . S
C492 C493 1.288 . S
C492 C497 1.377 . S
C492 O519 1.393 . S
C493 C492 1.288 . S
C493 C494 1.369 . S
C493 H559 0.932 . S
C494 C493 1.369 . S
C494 C495 1.398 . S
C494 C498 1.527 . S
C495 C494 1.398 . S
C495 C496 1.380 . S
C495 C509 1.497 . S
C496 C495 1.380 . S
C496 C497 1.383 . S
C496 C499 1.603 . S
C497 C492 1.377 . S
C497 C496 1.383 . S
C497 H560 0.929 . S
C498 C494 1.527 . S
C498 H561 0.961 . S
C498 H562 0.959 . S
C498 H563 0.959 . S
C499 C496 1.603 . S
C499 H564 0.960 . S
C499 H565 0.962 . S
C499 H566 0.961 . S
C500 C467 1.587 . S
C500 C501 1.360 . S
C500 C513 1.412 . S
C501 C500 1.360 . S
C501 C502 1.365 . S
C501 H567 0.929 . S
C502 C477 1.553 . S
C502 C501 1.365 . S
C502 C503 1.404 . S
C503 C502 1.404 . S
C503 C504 1.395 . S
C503 C514 1.451 . S
C504 C503 1.395 . S
C504 C505 1.322 . S
C504 H568 0.930 . S
C505 C504 1.322 . S
C505 C506 1.459 . S
C505 H569 0.929 . S
C506 C505 1.459 . S
C506 C507 1.445 . S
C506 C515 1.395 . S
C507 C485 1.432 . S
C507 C506 1.445 . S
C507 C508 1.370 . S
C508 C507 1.370 . S
C508 C509 1.438 . S
C508 H570 0.930 . S
C509 C495 1.497 . S
C509 C508 1.438 . S
C509 C510 1.360 . S
C510 C509 1.360 . S
C510 C511 1.401 . S
C510 C515 1.446 . S
C511 C510 1.401 . S
C511 C512 1.347 . S
C511 H571 0.929 . S
C512 C511 1.347 . S
C512 C513 1.455 . S
C512 H572 0.930 . S
C513 C500 1.412 . S
C513 C512 1.455 . S
C513 C514 1.331 . S
C514 C503 1.451 . S
C514 C513 1.331 . S
C514 C515 1.497 . S
C515 C506 1.395 . S
C515 C510 1.446 . S
C515 C514 1.497 . S
C516 C517 1.582 . S
C516 H573 0.962 . S
C516 H574 0.959 . S
C516 H575 0.958 . S
C517 C516 1.582 . S
C517 O520 1.458 . S
C517 H546 0.980 . S
O518 C463 1.426 . S
O518 C464 1.334 . S
O519 C491 1.412 . S
O519 C492 1.393 . S
O520 C482 1.435 . S
O520 C517 1.458 . S
O521 C473 1.468 . S
O521 C474 1.408 . S
H522 C463 0.980 . S
H523 C462 0.959 . S
H524 C462 0.959 . S
H525 C462 0.960 . S
H526 C465 0.929 . S
H527 C469 0.929 . S
H528 C470 0.959 . S
H529 C470 0.961 . S
H530 C470 0.961 . S
H531 C471 0.960 . S
H532 C471 0.960 . S
H533 C471 0.961 . S
H534 C473 0.980 . S
H535 C472 0.961 . S
H536 C472 0.960 . S
H537 C472 0.959 . S
H538 C475 0.930 . S
H539 C479 0.931 . S
H540 C480 0.959 . S
H541 C480 0.961 . S
H542 C480 0.959 . S
H543 C481 0.960 . S
H544 C481 0.960 . S
H545 C481 0.960 . S
H546 C517 0.980 . S
H547 C483 0.930 . S
H548 C487 0.930 . S
H549 C488 0.961 . S
H550 C488 0.960 . S
H551 C488 0.958 . S
H552 C489 0.961 . S
H553 C489 0.960 . S
H554 C489 0.960 . S
H555 C491 0.980 . S
H556 C490 0.961 . S
H557 C490 0.961 . S
H558 C490 0.959 . S
H559 C493 0.932 . S
H560 C497 0.929 . S
H561 C498 0.961 . S
H562 C498 0.959 . S
H563 C498 0.959 . S
H564 C499 0.960 . S
H565 C499 0.962 . S
H566 C499 0.961 . S
H567 C501 0.929 . S
H568 C504 0.930 . S
H569 C505 0.929 . S
H570 C508 0.930 . S
H571 C511 0.929 . S
H572 C512 0.930 . S
H573 C516 0.962 . S
H574 C516 0.959 . S
H575 C516 0.958 . S
C576 C577 1.560 . S
C576 H637 0.959 . S
C576 H638 0.959 . S
C576 H639 0.960 . S
C577 C576 1.560 . S
C577 O632 1.426 . S
C577 H636 0.980 . S
C578 C579 1.407 . S
C578 C583 1.418 . S
C578 O632 1.334 . S
C579 C578 1.407 . S
C579 C580 1.360 . S
C579 H640 0.929 . S
C580 C579 1.360 . S
C580 C581 1.401 . S
C580 C584 1.527 . S
C581 C580 1.401 . S
C581 C582 1.405 . S
C581 C614 1.587 . S
C582 C581 1.405 . S
C582 C583 1.332 . S
C582 C585 1.496 . S
C583 C578 1.418 . S
C583 C582 1.332 . S
C583 H641 0.929 . S
C584 C580 1.527 . S
C584 H642 0.959 . S
C584 H643 0.961 . S
C584 H644 0.961 . S
C585 C582 1.496 . S
C585 H645 0.960 . S
C585 H646 0.960 . S
C585 H647 0.961 . S
C586 C587 1.517 . S
C586 H649 0.961 . S
C586 H650 0.960 . S
C586 H651 0.959 . S
C587 C586 1.517 . S
C587 O635 1.468 . S
C587 H648 0.980 . S
C588 C589 1.349 . S
C588 C593 1.367 . S
C588 O635 1.408 . S
C589 C588 1.349 . S
C589 C590 1.407 . S
C589 H652 0.930 . S
C590 C589 1.407 . S
C590 C591 1.449 . S
C590 C594 1.535 . S
C591 C590 1.449 . S
C591 C592 1.384 . S
C591 C616 1.553 . S
C592 C591 1.384 . S
C592 C593 1.364 . S
C592 C595 1.450 . S
C593 C588 1.367 . S
C593 C592 1.364 . S
C593 H653 0.931 . S
C594 C590 1.535 . S
C594 H654 0.959 . S
C594 H655 0.961 . S
C594 H656 0.959 . S
C595 C592 1.450 . S
C595 H657 0.960 . S
C595 H658 0.960 . S
C595 H659 0.960 . S
C596 C597 1.309 . S
C596 C601 1.304 . S
C596 O634 1.435 . S
C597 C596 1.309 . S
C597 C598 1.476 . S
C597 H661 0.930 . S
C598 C597 1.476 . S
C598 C599 1.400 . S
C598 C602 1.567 . S
C599 C598 1.400 . S
C599 C600 1.373 . S
C599 C621 1.432 . S
C600 C599 1.373 . S
C600 C601 1.339 . S
C600 C603 1.530 . S
C601 C596 1.304 . S
C601 C600 1.339 . S
C601 H662 0.930 . S
C602 C598 1.567 . S
C602 H663 0.961 . S
C602 H664 0.960 . S
C602 H665 0.958 . S
C603 C600 1.530 . S
C603 H666 0.961 . S
C603 H667 0.960 . S
C603 H668 0.960 . S
C604 C605 1.530 . S
C604 H670 0.961 . S
C604 H671 0.961 . S
C604 H672 0.959 . S
C605 C604 1.530 . S
C605 O633 1.412 . S
C605 H669 0.980 . S
C606 C607 1.288 . S
C606 C611 1.377 . S
C606 O633 1.393 . S
C607 C606 1.288 . S
C607 C608 1.369 . S
C607 H673 0.932 . S
C608 C607 1.369 . S
C608 C609 1.398 . S
C608 C612 1.527 . S
C609 C608 1.398 . S
C609 C610 1.380 . S
C609 C623 1.497 . S
C610 C609 1.380 . S
C610 C611 1.383 . S
C610 C613 1.603 . S
C611 C606 1.377 . S
C611 C610 1.383 . S
C611 H674 0.929 . S
C612 C608 1.527 . S
C612 H675 0.961 . S
C612 H676 0.959 . S
C612 H677 0.959 . S
C613 C610 1.603 . S
C613 H678 0.960 . S
C613 H679 0.962 . S
C613 H680 0.961 . S
C614 C581 1.587 . S
C614 C615 1.360 . S
C614 C627 1.412 . S
C615 C614 1.360 . S
C615 C616 1.365 . S
C615 H681 0.929 . S
C616 C591 1.553 . S
C616 C615 1.365 . S
C616 C617 1.404 . S
C617 C616 1.404 . S
C617 C618 1.395 . S
C617 C628 1.451 . S
C618 C617 1.395 . S
C618 C619 1.322 . S
C618 H682 0.930 . S
C619 C618 1.322 . S
C619 C620 1.459 . S
C619 H683 0.929 . S
C620 C619 1.459 . S
C620 C621 1.445 . S
C620 C629 1.395 . S
C621 C599 1.432 . S
C621 C620 1.445 . S
C621 C622 1.370 . S
C622 C621 1.370 . S
C622 C623 1.438 . S
C622 H684 0.930 . S
C623 C609 1.497 . S
C623 C622 1.438 . S
C623 C624 1.360 . S
C624 C623 1.360 . S
C624 C625 1.401 . S
C624 C629 1.446 . S
C625 C624 1.401 . S
C625 C626 1.347 . S
C625 H685 0.929 . S
C626 C625 1.347 . S
C626 C627 1.455 . S
C626 H686 0.930 . S
C627 C614 1.412 . S
C627 C626 1.455 . S
C627 C628 1.331 . S
C628 C617 1.451 . S
C628 C627 1.331 . S
C628 C629 1.497 . S
C629 C620 1.395 . S
C629 C624 1.446 . S
C629 C628 1.497 . S
C630 C631 1.582 . S
C630 H687 0.962 . S
C630 H688 0.959 . S
C630 H689 0.958 . S
C631 C630 1.582 . S
C631 O634 1.458 . S
C631 H660 0.980 . S
O632 C577 1.426 . S
O632 C578 1.334 . S
O633 C605 1.412 . S
O633 C606 1.393 . S
O634 C596 1.435 . S
O634 C631 1.458 . S
O635 C587 1.468 . S
O635 C588 1.408 . S
H636 C577 0.980 . S
H637 C576 0.959 . S
H638 C576 0.959 . S
H639 C576 0.960 . S
H640 C579 0.929 . S
H641 C583 0.929 . S
H642 C584 0.959 . S
H643 C584 0.961 . S
H644 C584 0.961 . S
H645 C585 0.960 . S
H646 C585 0.960 . S
H647 C585 0.961 . S
H648 C587 0.980 . S
H649 C586 0.961 . S
H650 C586 0.960 . S
H651 C586 0.959 . S
H652 C589 0.930 . S
H653 C593 0.931 . S
H654 C594 0.959 . S
H655 C594 0.961 . S
H656 C594 0.959 . S
H657 C595 0.960 . S
H658 C595 0.960 . S
H659 C595 0.960 . S
H660 C631 0.980 . S
H661 C597 0.930 . S
H662 C601 0.930 . S
H663 C602 0.961 . S
H664 C602 0.960 . S
H665 C602 0.958 . S
H666 C603 0.961 . S
H667 C603 0.960 . S
H668 C603 0.960 . S
H669 C605 0.980 . S
H670 C604 0.961 . S
H671 C604 0.961 . S
H672 C604 0.959 . S
H673 C607 0.932 . S
H674 C611 0.929 . S
H675 C612 0.961 . S
H676 C612 0.959 . S
H677 C612 0.959 . S
H678 C613 0.960 . S
H679 C613 0.962 . S
H680 C613 0.961 . S
H681 C615 0.929 . S
H682 C618 0.930 . S
H683 C619 0.929 . S
H684 C622 0.930 . S
H685 C625 0.929 . S
H686 C626 0.930 . S
H687 C630 0.962 . S
H688 C630 0.959 . S
H689 C630 0.958 . S
C690 C691 1.560 . S
C690 H751 0.959 . S
C690 H752 0.959 . S
C690 H753 0.960 . S
C691 C690 1.560 . S
C691 O746 1.426 . S
C691 H750 0.980 . S
C692 C693 1.407 . S
C692 C697 1.418 . S
C692 O746 1.334 . S
C693 C692 1.407 . S
C693 C694 1.360 . S
C693 H754 0.929 . S
C694 C693 1.360 . S
C694 C695 1.401 . S
C694 C698 1.527 . S
C695 C694 1.401 . S
C695 C696 1.405 . S
C695 C728 1.587 . S
C696 C695 1.405 . S
C696 C697 1.332 . S
C696 C699 1.496 . S
C697 C692 1.418 . S
C697 C696 1.332 . S
C697 H755 0.929 . S
C698 C694 1.527 . S
C698 H756 0.959 . S
C698 H757 0.961 . S
C698 H758 0.961 . S
C699 C696 1.496 . S
C699 H759 0.960 . S
C699 H760 0.960 . S
C699 H761 0.961 . S
C700 C701 1.517 . S
C700 H763 0.961 . S
C700 H764 0.960 . S
C700 H765 0.959 . S
C701 C700 1.517 . S
C701 O749 1.468 . S
C701 H762 0.980 . S
C702 C703 1.349 . S
C702 C707 1.367 . S
C702 O749 1.408 . S
C703 C702 1.349 . S
C703 C704 1.407 . S
C703 H766 0.930 . S
C704 C703 1.407 . S
C704 C705 1.449 . S
C704 C708 1.535 . S
C705 C704 1.449 . S
C705 C706 1.384 . S
C705 C730 1.553 . S
C706 C705 1.384 . S
C706 C707 1.364 . S
C706 C709 1.450 . S
C707 C702 1.367 . S
C707 C706 1.364 . S
C707 H767 0.931 . S
C708 C704 1.535 . S
C708 H768 0.959 . S
C708 H769 0.961 . S
C708 H770 0.959 . S
C709 C706 1.450 . S
C709 H771 0.960 . S
C709 H772 0.960 . S
C709 H773 0.960 . S
C710 C711 1.309 . S
C710 C715 1.304 . S
C710 O748 1.435 . S
C711 C710 1.309 . S
C711 C712 1.476 . S
C711 H775 0.930 . S
C712 C711 1.476 . S
C712 C713 1.400 . S
C712 C716 1.567 . S
C713 C712 1.400 . S
C713 C714 1.373 . S
C713 C735 1.432 . S
C714 C713 1.373 . S
C714 C715 1.339 . S
C714 C717 1.530 . S
C715 C710 1.304 . S
C715 C714 1.339 . S
C715 H776 0.930 . S
C716 C712 1.567 . S
C716 H777 0.961 . S
C716 H778 0.960 . S
C716 H779 0.958 . S
C717 C714 1.530 . S
C717 H780 0.961 . S
C717 H781 0.960 . S
C717 H782 0.960 . S
C718 C719 1.530 . S
C718 H784 0.961 . S
C718 H785 0.961 . S
C718 H786 0.959 . S
C719 C718 1.530 . S
C719 O747 1.412 . S
C719 H783 0.980 . S
C720 C721 1.288 . S
C720 C725 1.377 . S
C720 O747 1.393 . S
C721 C720 1.288 . S
C721 C722 1.369 . S
C721 H787 0.932 . S
C722 C721 1.369 . S
C722 C723 1.398 . S
C722 C726 1.527 . S
C723 C722 1.398 . S
C723 C724 1.380 . S
C723 C737 1.497 . S
C724 C723 1.380 . S
C724 C725 1.383 . S
C724 C727 1.603 . S
C725 C720 1.377 . S
C725 C724 1.383 . S
C725 H788 0.929 . S
C726 C722 1.527 . S
C726 H789 0.961 . S
C726 H790 0.959 . S
C726 H791 0.959 . S
C727 C724 1.603 . S
C727 H792 0.960 . S
C727 H793 0.962 . S
C727 H794 0.961 . S
C728 C695 1.587 . S
C728 C729 1.360 . S
C728 C741 1.412 . S
C729 C728 1.360 . S
C729 C730 1.365 . S
C729 H795 0.929 . S
C730 C705 1.553 . S
C730 C729 1.365 . S
C730 C731 1.404 . S
C731 C730 1.404 . S
C731 C732 1.395 . S
C731 C742 1.451 . S
C732 C731 1.395 . S
C732 C733 1.322 . S
C732 H796 0.930 . S
C733 C732 1.322 . S
C733 C734 1.459 . S
C733 H797 0.929 . S
C734 C733 1.459 . S
C734 C735 1.445 . S
C734 C743 1.395 . S
C735 C713 1.432 . S
C735 C734 1.445 . S
C735 C736 1.370 . S
C736 C735 1.370 . S
C736 C737 1.438 . S
C736 H798 0.930 . S
C737 C723 1.497 . S
C737 C736 1.438 . S
C737 C738 1.360 . S
C738 C737 1.360 . S
C738 C739 1.401 . S
C738 C743 1.446 . S
C739 C738 1.401 . S
C739 C740 1.347 . S
C739 H799 0.929 . S
C740 C739 1.347 . S
C740 C741 1.455 . S
C740 H800 0.930 . S
C741 C728 1.412 . S
C741 C740 1.455 . S
C741 C742 1.331 . S
C742 C731 1.451 . S
C742 C741 1.331 . S
C742 C743 1.497 . S
C743 C734 1.395 . S
C743 C738 1.446 . S
C743 C742 1.497 . S
C744 C745 1.582 . S
C744 H801 0.962 . S
C744 H802 0.959 . S
C744 H803 0.958 . S
C745 C744 1.582 . S
C745 O748 1.458 . S
C745 H774 0.980 . S
O746 C691 1.426 . S
O746 C692 1.334 . S
O747 C719 1.412 . S
O747 C720 1.393 . S
O748 C710 1.435 . S
O748 C745 1.458 . S
O749 C701 1.468 . S
O749 C702 1.408 . S
H750 C691 0.980 . S
H751 C690 0.959 . S
H752 C690 0.959 . S
H753 C690 0.960 . S
H754 C693 0.929 . S
H755 C697 0.929 . S
H756 C698 0.959 . S
H757 C698 0.961 . S
H758 C698 0.961 . S
H759 C699 0.960 . S
H760 C699 0.960 . S
H761 C699 0.961 . S
H762 C701 0.980 . S
H763 C700 0.961 . S
H764 C700 0.960 . S
H765 C700 0.959 . S
H766 C703 0.930 . S
H767 C707 0.931 . S
H768 C708 0.959 . S
H769 C708 0.961 . S
H770 C708 0.959 . S
H771 C709 0.960 . S
H772 C709 0.960 . S
H773 C709 0.960 . S
H774 C745 0.980 . S
H775 C711 0.930 . S
H776 C715 0.930 . S
H777 C716 0.961 . S
H778 C716 0.960 . S
H779 C716 0.958 . S
H780 C717 0.961 . S
H781 C717 0.960 . S
H782 C717 0.960 . S
H783 C719 0.980 . S
H784 C718 0.961 . S
H785 C718 0.961 . S
H786 C718 0.959 . S
H787 C721 0.932 . S
H788 C725 0.929 . S
H789 C726 0.961 . S
H790 C726 0.959 . S
H791 C726 0.959 . S
H792 C727 0.960 . S
H793 C727 0.962 . S
H794 C727 0.961 . S
H795 C729 0.929 . S
H796 C732 0.930 . S
H797 C733 0.929 . S
H798 C736 0.930 . S
H799 C739 0.929 . S
H800 C740 0.930 . S
H801 C744 0.962 . S
H802 C744 0.959 . S
H803 C744 0.958 . S
C804 C805 1.560 . S
C804 H865 0.959 . S
C804 H866 0.959 . S
C804 H867 0.960 . S
C805 C804 1.560 . S
C805 O860 1.426 . S
C805 H864 0.980 . S
C806 C807 1.407 . S
C806 C811 1.418 . S
C806 O860 1.334 . S
C807 C806 1.407 . S
C807 C808 1.360 . S
C807 H868 0.929 . S
C808 C807 1.360 . S
C808 C809 1.401 . S
C808 C812 1.527 . S
C809 C808 1.401 . S
C809 C810 1.405 . S
C809 C842 1.587 . S
C810 C809 1.405 . S
C810 C811 1.332 . S
C810 C813 1.496 . S
C811 C806 1.418 . S
C811 C810 1.332 . S
C811 H869 0.929 . S
C812 C808 1.527 . S
C812 H870 0.959 . S
C812 H871 0.961 . S
C812 H872 0.961 . S
C813 C810 1.496 . S
C813 H873 0.960 . S
C813 H874 0.960 . S
C813 H875 0.961 . S
C814 C815 1.517 . S
C814 H877 0.961 . S
C814 H878 0.960 . S
C814 H879 0.959 . S
C815 C814 1.517 . S
C815 O863 1.468 . S
C815 H876 0.980 . S
C816 C817 1.349 . S
C816 C821 1.367 . S
C816 O863 1.408 . S
C817 C816 1.349 . S
C817 C818 1.407 . S
C817 H880 0.930 . S
C818 C817 1.407 . S
C818 C819 1.449 . S
C818 C822 1.535 . S
C819 C818 1.449 . S
C819 C820 1.384 . S
C819 C844 1.553 . S
C820 C819 1.384 . S
C820 C821 1.364 . S
C820 C823 1.450 . S
C821 C816 1.367 . S
C821 C820 1.364 . S
C821 H881 0.931 . S
C822 C818 1.535 . S
C822 H882 0.959 . S
C822 H883 0.961 . S
C822 H884 0.959 . S
C823 C820 1.450 . S
C823 H885 0.960 . S
C823 H886 0.960 . S
C823 H887 0.960 . S
C824 C825 1.309 . S
C824 C829 1.304 . S
C824 O862 1.435 . S
C825 C824 1.309 . S
C825 C826 1.476 . S
C825 H889 0.930 . S
C826 C825 1.476 . S
C826 C827 1.400 . S
C826 C830 1.567 . S
C827 C826 1.400 . S
C827 C828 1.373 . S
C827 C849 1.432 . S
C828 C827 1.373 . S
C828 C829 1.339 . S
C828 C831 1.530 . S
C829 C824 1.304 . S
C829 C828 1.339 . S
C829 H890 0.930 . S
C830 C826 1.567 . S
C830 H891 0.961 . S
C830 H892 0.960 . S
C830 H893 0.958 . S
C831 C828 1.530 . S
C831 H894 0.961 . S
C831 H895 0.960 . S
C831 H896 0.960 . S
C832 C833 1.530 . S
C832 H898 0.961 . S
C832 H899 0.961 . S
C832 H900 0.959 . S
C833 C832 1.530 . S
C833 O861 1.412 . S
C833 H897 0.980 . S
C834 C835 1.288 . S
C834 C839 1.377 . S
C834 O861 1.393 . S
C835 C834 1.288 . S
C835 C836 1.369 . S
C835 H901 0.932 . S
C836 C835 1.369 . S
C836 C837 1.398 . S
C836 C840 1.527 . S
C837 C836 1.398 . S
C837 C838 1.380 . S
C837 C851 1.497 . S
C838 C837 1.380 . S
C838 C839 1.383 . S
C838 C841 1.603 . S
C839 C834 1.377 . S
C839 C838 1.383 . S
C839 H902 0.929 . S
C840 C836 1.527 . S
C840 H903 0.961 . S
C840 H904 0.959 . S
C840 H905 0.959 . S
C841 C838 1.603 . S
C841 H906 0.960 . S
C841 H907 0.962 . S
C841 H908 0.961 . S
C842 C809 1.587 . S
C842 C843 1.360 . S
C842 C855 1.412 . S
C843 C842 1.360 . S
C843 C844 1.365 . S
C843 H909 0.929 . S
C844 C819 1.553 . S
C844 C843 1.365 . S
C844 C845 1.404 . S
C845 C844 1.404 . S
C845 C846 1.395 . S
C845 C856 1.451 . S
C846 C845 1.395 . S
C846 C847 1.322 . S
C846 H910 0.930 . S
C847 C846 1.322 . S
C847 C848 1.459 . S
C847 H911 0.929 . S
C848 C847 1.459 . S
C848 C849 1.445 . S
C848 C857 1.395 . S
C849 C827 1.432 . S
C849 C848 1.445 . S
C849 C850 1.370 . S
C850 C849 1.370 . S
C850 C851 1.438 . S
C850 H912 0.930 . S
C851 C837 1.497 . S
C851 C850 1.438 . S
C851 C852 1.360 . S
C852 C851 1.360 . S
C852 C853 1.401 . S
C852 C857 1.446 . S
C853 C852 1.401 . S
C853 C854 1.347 . S
C853 H913 0.929 . S
C854 C853 1.347 . S
C854 C855 1.455 . S
C854 H914 0.930 . S
C855 C842 1.412 . S
C855 C854 1.455 . S
C855 C856 1.331 . S
C856 C845 1.451 . S
C856 C855 1.331 . S
C856 C857 1.497 . S
C857 C848 1.395 . S
C857 C852 1.446 . S
C857 C856 1.497 . S
C858 C859 1.582 . S
C858 H915 0.962 . S
C858 H916 0.959 . S
C858 H917 0.958 . S
C859 C858 1.582 . S
C859 O862 1.458 . S
C859 H888 0.980 . S
O860 C805 1.426 . S
O860 C806 1.334 . S
O861 C833 1.412 . S
O861 C834 1.393 . S
O862 C824 1.435 . S
O862 C859 1.458 . S
O863 C815 1.468 . S
O863 C816 1.408 . S
H864 C805 0.980 . S
H865 C804 0.959 . S
H866 C804 0.959 . S
H867 C804 0.960 . S
H868 C807 0.929 . S
H869 C811 0.929 . S
H870 C812 0.959 . S
H871 C812 0.961 . S
H872 C812 0.961 . S
H873 C813 0.960 . S
H874 C813 0.960 . S
H875 C813 0.961 . S
H876 C815 0.980 . S
H877 C814 0.961 . S
H878 C814 0.960 . S
H879 C814 0.959 . S
H880 C817 0.930 . S
H881 C821 0.931 . S
H882 C822 0.959 . S
H883 C822 0.961 . S
H884 C822 0.959 . S
H885 C823 0.960 . S
H886 C823 0.960 . S
H887 C823 0.960 . S
H888 C859 0.980 . S
H889 C825 0.930 . S
H890 C829 0.930 . S
H891 C830 0.961 . S
H892 C830 0.960 . S
H893 C830 0.958 . S
H894 C831 0.961 . S
H895 C831 0.960 . S
H896 C831 0.960 . S
H897 C833 0.980 . S
H898 C832 0.961 . S
H899 C832 0.961 . S
H900 C832 0.959 . S
H901 C835 0.932 . S
H902 C839 0.929 . S
H903 C840 0.961 . S
H904 C840 0.959 . S
H905 C840 0.959 . S
H906 C841 0.960 . S
H907 C841 0.962 . S
H908 C841 0.961 . S
H909 C843 0.929 . S
H910 C846 0.930 . S
H911 C847 0.929 . S
H912 C850 0.930 . S
H913 C853 0.929 . S
H914 C854 0.930 . S
H915 C858 0.962 . S
H916 C858 0.959 . S
H917 C858 0.958 . S
C918 C919 1.560 . S
C918 H979 0.959 . S
C918 H980 0.959 . S
C918 H981 0.960 . S
C919 C918 1.560 . S
C919 O974 1.426 . S
C919 H978 0.980 . S
C920 C921 1.407 . S
C920 C925 1.418 . S
C920 O974 1.334 . S
C921 C920 1.407 . S
C921 C922 1.360 . S
C921 H982 0.929 . S
C922 C921 1.360 . S
C922 C923 1.401 . S
C922 C926 1.527 . S
C923 C922 1.401 . S
C923 C924 1.405 . S
C923 C956 1.587 . S
C924 C923 1.405 . S
C924 C925 1.332 . S
C924 C927 1.496 . S
C925 C920 1.418 . S
C925 C924 1.332 . S
C925 H983 0.929 . S
C926 C922 1.527 . S
C926 H984 0.959 . S
C926 H985 0.961 . S
C926 H986 0.961 . S
C927 C924 1.496 . S
C927 H987 0.960 . S
C927 H988 0.960 . S
C927 H989 0.961 . S
C928 C929 1.517 . S
C928 H991 0.961 . S
C928 H992 0.960 . S
C928 H993 0.959 . S
C929 C928 1.517 . S
C929 O977 1.468 . S
C929 H990 0.980 . S
C930 C931 1.349 . S
C930 C935 1.367 . S
C930 O977 1.408 . S
C931 C930 1.349 . S
C931 C932 1.407 . S
C931 H994 0.930 . S
C932 C931 1.407 . S
C932 C933 1.449 . S
C932 C936 1.535 . S
C933 C932 1.449 . S
C933 C934 1.384 . S
C933 C958 1.553 . S
C934 C933 1.384 . S
C934 C935 1.364 . S
C934 C937 1.450 . S
C935 C930 1.367 . S
C935 C934 1.364 . S
C935 H995 0.931 . S
C936 C932 1.535 . S
C936 H996 0.959 . S
C936 H997 0.961 . S
C936 H998 0.959 . S
C937 C934 1.450 . S
C937 H999 0.960 . S
C937 H1000 0.960 . S
C937 H1001 0.960 . S
C938 C939 1.309 . S
C938 C943 1.304 . S
C938 O976 1.435 . S
C939 C938 1.309 . S
C939 C940 1.476 . S
C939 H1003 0.930 . S
C940 C939 1.476 . S
C940 C941 1.400 . S
C940 C944 1.567 . S
C941 C940 1.400 . S
C941 C942 1.373 . S
C941 C963 1.432 . S
C942 C941 1.373 . S
C942 C943 1.339 . S
C942 C945 1.530 . S
C943 C938 1.304 . S
C943 C942 1.339 . S
C943 H1004 0.930 . S
C944 C940 1.567 . S
C944 H1005 0.961 . S
C944 H1006 0.960 . S
C944 H1007 0.958 . S
C945 C942 1.530 . S
C945 H1008 0.961 . S
C945 H1009 0.960 . S
C945 H1010 0.960 . S
C946 C947 1.530 . S
C946 H1012 0.961 . S
C946 H1013 0.961 . S
C946 H1014 0.959 . S
C947 C946 1.530 . S
C947 O975 1.412 . S
C947 H1011 0.980 . S
C948 C949 1.288 . S
C948 C953 1.377 . S
C948 O975 1.393 . S
C949 C948 1.288 . S
C949 C950 1.369 . S
C949 H1015 0.932 . S
C950 C949 1.369 . S
C950 C951 1.398 . S
C950 C954 1.527 . S
C951 C950 1.398 . S
C951 C952 1.380 . S
C951 C965 1.497 . S
C952 C951 1.380 . S
C952 C953 1.383 . S
C952 C955 1.603 . S
C953 C948 1.377 . S
C953 C952 1.383 . S
C953 H1016 0.929 . S
C954 C950 1.527 . S
C954 H1017 0.961 . S
C954 H1018 0.959 . S
C954 H1019 0.959 . S
C955 C952 1.603 . S
C955 H1020 0.960 . S
C955 H1021 0.962 . S
C955 H1022 0.961 . S
C956 C923 1.587 . S
C956 C957 1.360 . S
C956 C969 1.412 . S
C957 C956 1.360 . S
C957 C958 1.365 . S
C957 H1023 0.929 . S
C958 C933 1.553 . S
C958 C957 1.365 . S
C958 C959 1.404 . S
C959 C958 1.404 . S
C959 C960 1.395 . S
C959 C970 1.451 . S
C960 C959 1.395 . S
C960 C961 1.322 . S
C960 H1024 0.930 . S
C961 C960 1.322 . S
C961 C962 1.459 . S
C961 H1025 0.929 . S
C962 C961 1.459 . S
C962 C963 1.445 . S
C962 C971 1.395 . S
C963 C941 1.432 . S
C963 C962 1.445 . S
C963 C964 1.370 . S
C964 C963 1.370 . S
C964 C965 1.438 . S
C964 H1026 0.930 . S
C965 C951 1.497 . S
C965 C964 1.438 . S
C965 C966 1.360 . S
C966 C965 1.360 . S
C966 C967 1.401 . S
C966 C971 1.446 . S
C967 C966 1.401 . S
C967 C968 1.347 . S
C967 H1027 0.929 . S
C968 C967 1.347 . S
C968 C969 1.455 . S
C968 H1028 0.930 . S
C969 C956 1.412 . S
C969 C968 1.455 . S
C969 C970 1.331 . S
C970 C959 1.451 . S
C970 C969 1.331 . S
C970 C971 1.497 . S
C971 C962 1.395 . S
C971 C966 1.446 . S
C971 C970 1.497 . S
C972 C973 1.582 . S
C972 H1029 0.962 . S
C972 H1030 0.959 . S
C972 H1031 0.958 . S
C973 C972 1.582 . S
C973 O976 1.458 . S
C973 H1002 0.980 . S
O974 C919 1.426 . S
O974 C920 1.334 . S
O975 C947 1.412 . S
O975 C948 1.393 . S
O976 C938 1.435 . S
O976 C973 1.458 . S
O977 C929 1.468 . S
O977 C930 1.408 . S
H978 C919 0.980 . S
H979 C918 0.959 . S
H980 C918 0.959 . S
H981 C918 0.960 . S
H982 C921 0.929 . S
H983 C925 0.929 . S
H984 C926 0.959 . S
H985 C926 0.961 . S
H986 C926 0.961 . S
H987 C927 0.960 . S
H988 C927 0.960 . S
H989 C927 0.961 . S
H990 C929 0.980 . S
H991 C928 0.961 . S
H992 C928 0.960 . S
H993 C928 0.959 . S
H994 C931 0.930 . S
H995 C935 0.931 . S
H996 C936 0.959 . S
H997 C936 0.961 . S
H998 C936 0.959 . S
H999 C937 0.960 . S
H1000 C937 0.960 . S
H1001 C937 0.960 . S
H1002 C973 0.980 . S
H1003 C939 0.930 . S
H1004 C943 0.930 . S
H1005 C944 0.961 . S
H1006 C944 0.960 . S
H1007 C944 0.958 . S
H1008 C945 0.961 . S
H1009 C945 0.960 . S
H1010 C945 0.960 . S
H1011 C947 0.980 . S
H1012 C946 0.961 . S
H1013 C946 0.961 . S
H1014 C946 0.959 . S
H1015 C949 0.932 . S
H1016 C953 0.929 . S
H1017 C954 0.961 . S
H1018 C954 0.959 . S
H1019 C954 0.959 . S
H1020 C955 0.960 . S
H1021 C955 0.962 . S
H1022 C955 0.961 . S
H1023 C957 0.929 . S
H1024 C960 0.930 . S
H1025 C961 0.929 . S
H1026 C964 0.930 . S
H1027 C967 0.929 . S
H1028 C968 0.930 . S
H1029 C972 0.962 . S
H1030 C972 0.959 . S
H1031 C972 0.958 . S
C1032 C1033 1.560 . S
C1032 H1093 0.959 . S
C1032 H1094 0.959 . S
C1032 H1095 0.960 . S
C1033 C1032 1.560 . S
C1033 O1088 1.426 . S
C1033 H1092 0.980 . S
C1034 C1035 1.407 . S
C1034 C1039 1.418 . S
C1034 O1088 1.334 . S
C1035 C1034 1.407 . S
C1035 C1036 1.360 . S
C1035 H1096 0.929 . S
C1036 C1035 1.360 . S
C1036 C1037 1.401 . S
C1036 C1040 1.527 . S
C1037 C1036 1.401 . S
C1037 C1038 1.405 . S
C1037 C1070 1.587 . S
C1038 C1037 1.405 . S
C1038 C1039 1.332 . S
C1038 C1041 1.496 . S
C1039 C1034 1.418 . S
C1039 C1038 1.332 . S
C1039 H1097 0.929 . S
C1040 C1036 1.527 . S
C1040 H1098 0.959 . S
C1040 H1099 0.961 . S
C1040 H1100 0.961 . S
C1041 C1038 1.496 . S
C1041 H1101 0.960 . S
C1041 H1102 0.960 . S
C1041 H1103 0.961 . S
C1042 C1043 1.517 . S
C1042 H1105 0.961 . S
C1042 H1106 0.960 . S
C1042 H1107 0.959 . S
C1043 C1042 1.517 . S
C1043 O1091 1.468 . S
C1043 H1104 0.980 . S
C1044 C1045 1.349 . S
C1044 C1049 1.367 . S
C1044 O1091 1.408 . S
C1045 C1044 1.349 . S
C1045 C1046 1.407 . S
C1045 H1108 0.930 . S
C1046 C1045 1.407 . S
C1046 C1047 1.449 . S
C1046 C1050 1.535 . S
C1047 C1046 1.449 . S
C1047 C1048 1.384 . S
C1047 C1072 1.553 . S
C1048 C1047 1.384 . S
C1048 C1049 1.364 . S
C1048 C1051 1.450 . S
C1049 C1044 1.367 . S
C1049 C1048 1.364 . S
C1049 H1109 0.931 . S
C1050 C1046 1.535 . S
C1050 H1110 0.959 . S
C1050 H1111 0.961 . S
C1050 H1112 0.959 . S
C1051 C1048 1.450 . S
C1051 H1113 0.960 . S
C1051 H1114 0.960 . S
C1051 H1115 0.960 . S
C1052 C1053 1.309 . S
C1052 C1057 1.304 . S
C1052 O1090 1.435 . S
C1053 C1052 1.309 . S
C1053 C1054 1.476 . S
C1053 H1117 0.930 . S
C1054 C1053 1.476 . S
C1054 C1055 1.400 . S
C1054 C1058 1.567 . S
C1055 C1054 1.400 . S
C1055 C1056 1.373 . S
C1055 C1077 1.432 . S
C1056 C1055 1.373 . S
C1056 C1057 1.339 . S
C1056 C1059 1.530 . S
C1057 C1052 1.304 . S
C1057 C1056 1.339 . S
C1057 H1118 0.930 . S
C1058 C1054 1.567 . S
C1058 H1119 0.961 . S
C1058 H1120 0.960 . S
C1058 H1121 0.958 . S
C1059 C1056 1.530 . S
C1059 H1122 0.961 . S
C1059 H1123 0.960 . S
C1059 H1124 0.960 . S
C1060 C1061 1.530 . S
C1060 H1126 0.961 . S
C1060 H1127 0.961 . S
C1060 H1128 0.959 . S
C1061 C1060 1.530 . S
C1061 O1089 1.412 . S
C1061 H1125 0.980 . S
C1062 C1063 1.288 . S
C1062 C1067 1.377 . S
C1062 O1089 1.393 . S
C1063 C1062 1.288 . S
C1063 C1064 1.369 . S
C1063 H1129 0.932 . S
C1064 C1063 1.369 . S
C1064 C1065 1.398 . S
C1064 C1068 1.527 . S
C1065 C1064 1.398 . S
C1065 C1066 1.380 . S
C1065 C1079 1.497 . S
C1066 C1065 1.380 . S
C1066 C1067 1.383 . S
C1066 C1069 1.603 . S
C1067 C1062 1.377 . S
C1067 C1066 1.383 . S
C1067 H1130 0.929 . S
C1068 C1064 1.527 . S
C1068 H1131 0.961 . S
C1068 H1132 0.959 . S
C1068 H1133 0.959 . S
C1069 C1066 1.603 . S
C1069 H1134 0.960 . S
C1069 H1135 0.962 . S
C1069 H1136 0.961 . S
C1070 C1037 1.587 . S
C1070 C1071 1.360 . S
C1070 C1083 1.412 . S
C1071 C1070 1.360 . S
C1071 C1072 1.365 . S
C1071 H1137 0.929 . S
C1072 C1047 1.553 . S
C1072 C1071 1.365 . S
C1072 C1073 1.404 . S
C1073 C1072 1.404 . S
C1073 C1074 1.395 . S
C1073 C1084 1.451 . S
C1074 C1073 1.395 . S
C1074 C1075 1.322 . S
C1074 H1138 0.930 . S
C1075 C1074 1.322 . S
C1075 C1076 1.459 . S
C1075 H1139 0.929 . S
C1076 C1075 1.459 . S
C1076 C1077 1.445 . S
C1076 C1085 1.395 . S
C1077 C1055 1.432 . S
C1077 C1076 1.445 . S
C1077 C1078 1.370 . S
C1078 C1077 1.370 . S
C1078 C1079 1.438 . S
C1078 H1140 0.930 . S
C1079 C1065 1.497 . S
C1079 C1078 1.438 . S
C1079 C1080 1.360 . S
C1080 C1079 1.360 . S
C1080 C1081 1.401 . S
C1080 C1085 1.446 . S
C1081 C1080 1.401 . S
C1081 C1082 1.347 . S
C1081 H1141 0.929 . S
C1082 C1081 1.347 . S
C1082 C1083 1.455 . S
C1082 H1142 0.930 . S
C1083 C1070 1.412 . S
C1083 C1082 1.455 . S
C1083 C1084 1.331 . S
C1084 C1073 1.451 . S
C1084 C1083 1.331 . S
C1084 C1085 1.497 . S
C1085 C1076 1.395 . S
C1085 C1080 1.446 . S
C1085 C1084 1.497 . S
C1086 C1087 1.582 . S
C1086 H1143 0.962 . S
C1086 H1144 0.959 . S
C1086 H1145 0.958 . S
C1087 C1086 1.582 . S
C1087 O1090 1.458 . S
C1087 H1116 0.980 . S
O1088 C1033 1.426 . S
O1088 C1034 1.334 . S
O1089 C1061 1.412 . S
O1089 C1062 1.393 . S
O1090 C1052 1.435 . S
O1090 C1087 1.458 . S
O1091 C1043 1.468 . S
O1091 C1044 1.408 . S
H1092 C1033 0.980 . S
H1093 C1032 0.959 . S
H1094 C1032 0.959 . S
H1095 C1032 0.960 . S
H1096 C1035 0.929 . S
H1097 C1039 0.929 . S
H1098 C1040 0.959 . S
H1099 C1040 0.961 . S
H1100 C1040 0.961 . S
H1101 C1041 0.960 . S
H1102 C1041 0.960 . S
H1103 C1041 0.961 . S
H1104 C1043 0.980 . S
H1105 C1042 0.961 . S
H1106 C1042 0.960 . S
H1107 C1042 0.959 . S
H1108 C1045 0.930 . S
H1109 C1049 0.931 . S
H1110 C1050 0.959 . S
H1111 C1050 0.961 . S
H1112 C1050 0.959 . S
H1113 C1051 0.960 . S
H1114 C1051 0.960 . S
H1115 C1051 0.960 . S
H1116 C1087 0.980 . S
H1117 C1053 0.930 . S
H1118 C1057 0.930 . S
H1119 C1058 0.961 . S
H1120 C1058 0.960 . S
H1121 C1058 0.958 . S
H1122 C1059 0.961 . S
H1123 C1059 0.960 . S
H1124 C1059 0.960 . S
H1125 C1061 0.980 . S
H1126 C1060 0.961 . S
H1127 C1060 0.961 . S
H1128 C1060 0.959 . S
H1129 C1063 0.932 . S
H1130 C1067 0.929 . S
H1131 C1068 0.961 . S
H1132 C1068 0.959 . S
H1133 C1068 0.959 . S
H1134 C1069 0.960 . S
H1135 C1069 0.962 . S
H1136 C1069 0.961 . S
H1137 C1071 0.929 . S
H1138 C1074 0.930 . S
H1139 C1075 0.929 . S
H1140 C1078 0.930 . S
H1141 C1081 0.929 . S
H1142 C1082 0.930 . S
H1143 C1086 0.962 . S
H1144 C1086 0.959 . S
H1145 C1086 0.958 . S
C1146 C1147 1.560 . S
C1146 H1207 0.959 . S
C1146 H1208 0.959 . S
C1146 H1209 0.960 . S
C1147 C1146 1.560 . S
C1147 O1202 1.426 . S
C1147 H1206 0.980 . S
C1148 C1149 1.407 . S
C1148 C1153 1.418 . S
C1148 O1202 1.334 . S
C1149 C1148 1.407 . S
C1149 C1150 1.360 . S
C1149 H1210 0.929 . S
C1150 C1149 1.360 . S
C1150 C1151 1.401 . S
C1150 C1154 1.527 . S
C1151 C1150 1.401 . S
C1151 C1152 1.405 . S
C1151 C1184 1.587 . S
C1152 C1151 1.405 . S
C1152 C1153 1.332 . S
C1152 C1155 1.496 . S
C1153 C1148 1.418 . S
C1153 C1152 1.332 . S
C1153 H1211 0.929 . S
C1154 C1150 1.527 . S
C1154 H1212 0.959 . S
C1154 H1213 0.961 . S
C1154 H1214 0.961 . S
C1155 C1152 1.496 . S
C1155 H1215 0.960 . S
C1155 H1216 0.960 . S
C1155 H1217 0.961 . S
C1156 C1157 1.517 . S
C1156 H1219 0.961 . S
C1156 H1220 0.960 . S
C1156 H1221 0.959 . S
C1157 C1156 1.517 . S
C1157 O1205 1.468 . S
C1157 H1218 0.980 . S
C1158 C1159 1.349 . S
C1158 C1163 1.367 . S
C1158 O1205 1.408 . S
C1159 C1158 1.349 . S
C1159 C1160 1.407 . S
C1159 H1222 0.930 . S
C1160 C1159 1.407 . S
C1160 C1161 1.449 . S
C1160 C1164 1.535 . S
C1161 C1160 1.449 . S
C1161 C1162 1.384 . S
C1161 C1186 1.553 . S
C1162 C1161 1.384 . S
C1162 C1163 1.364 . S
C1162 C1165 1.450 . S
C1163 C1158 1.367 . S
C1163 C1162 1.364 . S
C1163 H1223 0.931 . S
C1164 C1160 1.535 . S
C1164 H1224 0.959 . S
C1164 H1225 0.961 . S
C1164 H1226 0.959 . S
C1165 C1162 1.450 . S
C1165 H1227 0.960 . S
C1165 H1228 0.960 . S
C1165 H1229 0.960 . S
C1166 C1167 1.309 . S
C1166 C1171 1.304 . S
C1166 O1204 1.435 . S
C1167 C1166 1.309 . S
C1167 C1168 1.476 . S
C1167 H1231 0.930 . S
C1168 C1167 1.476 . S
C1168 C1169 1.400 . S
C1168 C1172 1.567 . S
C1169 C1168 1.400 . S
C1169 C1170 1.373 . S
C1169 C1191 1.432 . S
C1170 C1169 1.373 . S
C1170 C1171 1.339 . S
C1170 C1173 1.530 . S
C1171 C1166 1.304 . S
C1171 C1170 1.339 . S
C1171 H1232 0.930 . S
C1172 C1168 1.567 . S
C1172 H1233 0.961 . S
C1172 H1234 0.960 . S
C1172 H1235 0.958 . S
C1173 C1170 1.530 . S
C1173 H1236 0.961 . S
C1173 H1237 0.960 . S
C1173 H1238 0.960 . S
C1174 C1175 1.530 . S
C1174 H1240 0.961 . S
C1174 H1241 0.961 . S
C1174 H1242 0.959 . S
C1175 C1174 1.530 . S
C1175 O1203 1.412 . S
C1175 H1239 0.980 . S
C1176 C1177 1.288 . S
C1176 C1181 1.377 . S
C1176 O1203 1.393 . S
C1177 C1176 1.288 . S
C1177 C1178 1.369 . S
C1177 H1243 0.932 . S
C1178 C1177 1.369 . S
C1178 C1179 1.398 . S
C1178 C1182 1.527 . S
C1179 C1178 1.398 . S
C1179 C1180 1.380 . S
C1179 C1193 1.497 . S
C1180 C1179 1.380 . S
C1180 C1181 1.383 . S
C1180 C1183 1.603 . S
C1181 C1176 1.377 . S
C1181 C1180 1.383 . S
C1181 H1244 0.929 . S
C1182 C1178 1.527 . S
C1182 H1245 0.961 . S
C1182 H1246 0.959 . S
C1182 H1247 0.959 . S
C1183 C1180 1.603 . S
C1183 H1248 0.960 . S
C1183 H1249 0.962 . S
C1183 H1250 0.961 . S
C1184 C1151 1.587 . S
C1184 C1185 1.360 . S
C1184 C1197 1.412 . S
C1185 C1184 1.360 . S
C1185 C1186 1.365 . S
C1185 H1251 0.929 . S
C1186 C1161 1.553 . S
C1186 C1185 1.365 . S
C1186 C1187 1.404 . S
C1187 C1186 1.404 . S
C1187 C1188 1.395 . S
C1187 C1198 1.451 . S
C1188 C1187 1.395 . S
C1188 C1189 1.322 . S
C1188 H1252 0.930 . S
C1189 C1188 1.322 . S
C1189 C1190 1.459 . S
C1189 H1253 0.929 . S
C1190 C1189 1.459 . S
C1190 C1191 1.445 . S
C1190 C1199 1.395 . S
C1191 C1169 1.432 . S
C1191 C1190 1.445 . S
C1191 C1192 1.370 . S
C1192 C1191 1.370 . S
C1192 C1193 1.438 . S
C1192 H1254 0.930 . S
C1193 C1179 1.497 . S
C1193 C1192 1.438 . S
C1193 C1194 1.360 . S
C1194 C1193 1.360 . S
C1194 C1195 1.401 . S
C1194 C1199 1.446 . S
C1195 C1194 1.401 . S
C1195 C1196 1.347 . S
C1195 H1255 0.929 . S
C1196 C1195 1.347 . S
C1196 C1197 1.455 . S
C1196 H1256 0.930 . S
C1197 C1184 1.412 . S
C1197 C1196 1.455 . S
C1197 C1198 1.331 . S
C1198 C1187 1.451 . S
C1198 C1197 1.331 . S
C1198 C1199 1.497 . S
C1199 C1190 1.395 . S
C1199 C1194 1.446 . S
C1199 C1198 1.497 . S
C1200 C1201 1.582 . S
C1200 H1257 0.962 . S
C1200 H1258 0.959 . S
C1200 H1259 0.958 . S
C1201 C1200 1.582 . S
C1201 O1204 1.458 . S
C1201 H1230 0.980 . S
O1202 C1147 1.426 . S
O1202 C1148 1.334 . S
O1203 C1175 1.412 . S
O1203 C1176 1.393 . S
O1204 C1166 1.435 . S
O1204 C1201 1.458 . S
O1205 C1157 1.468 . S
O1205 C1158 1.408 . S
H1206 C1147 0.980 . S
H1207 C1146 0.959 . S
H1208 C1146 0.959 . S
H1209 C1146 0.960 . S
H1210 C1149 0.929 . S
H1211 C1153 0.929 . S
H1212 C1154 0.959 . S
H1213 C1154 0.961 . S
H1214 C1154 0.961 . S
H1215 C1155 0.960 . S
H1216 C1155 0.960 . S
H1217 C1155 0.961 . S
H1218 C1157 0.980 . S
H1219 C1156 0.961 . S
H1220 C1156 0.960 . S
H1221 C1156 0.959 . S
H1222 C1159 0.930 . S
H1223 C1163 0.931 . S
H1224 C1164 0.959 . S
H1225 C1164 0.961 . S
H1226 C1164 0.959 . S
H1227 C1165 0.960 . S
H1228 C1165 0.960 . S
H1229 C1165 0.960 . S
H1230 C1201 0.980 . S
H1231 C1167 0.930 . S
H1232 C1171 0.930 . S
H1233 C1172 0.961 . S
H1234 C1172 0.960 . S
H1235 C1172 0.958 . S
H1236 C1173 0.961 . S
H1237 C1173 0.960 . S
H1238 C1173 0.960 . S
H1239 C1175 0.980 . S
H1240 C1174 0.961 . S
H1241 C1174 0.961 . S
H1242 C1174 0.959 . S
H1243 C1177 0.932 . S
H1244 C1181 0.929 . S
H1245 C1182 0.961 . S
H1246 C1182 0.959 . S
H1247 C1182 0.959 . S
H1248 C1183 0.960 . S
H1249 C1183 0.962 . S
H1250 C1183 0.961 . S
H1251 C1185 0.929 . S
H1252 C1188 0.930 . S
H1253 C1189 0.929 . S
H1254 C1192 0.930 . S
H1255 C1195 0.929 . S
H1256 C1196 0.930 . S
H1257 C1200 0.962 . S
H1258 C1200 0.959 . S
H1259 C1200 0.958 . S
C1260 C1261 1.560 . S
C1260 H1321 0.959 . S
C1260 H1322 0.959 . S
C1260 H1323 0.960 . S
C1261 C1260 1.560 . S
C1261 O1316 1.426 . S
C1261 H1320 0.980 . S
C1262 C1263 1.407 1_455 S
C1262 C1267 1.418 . S
C1262 O1316 1.334 . S
C1263 C1262 1.407 1_655 S
C1263 C1264 1.360 . S
C1263 H1324 0.929 . S
C1264 C1263 1.360 . S
C1264 C1265 1.401 1_655 S
C1264 C1268 1.527 . S
C1265 C1264 1.401 1_455 S
C1265 C1266 1.405 . S
C1265 C1298 1.587 1_455 S
C1266 C1265 1.405 . S
C1266 C1267 1.332 . S
C1266 C1269 1.496 . S
C1267 C1262 1.418 . S
C1267 C1266 1.332 . S
C1267 H1325 0.929 . S
C1268 C1264 1.527 . S
C1268 H1326 0.959 . S
C1268 H1327 0.961 . S
C1268 H1328 0.961 . S
C1269 C1266 1.496 . S
C1269 H1329 0.960 . S
C1269 H1330 0.960 . S
C1269 H1331 0.961 . S
C1270 C1271 1.517 . S
C1270 H1333 0.961 . S
C1270 H1334 0.960 . S
C1270 H1335 0.959 . S
C1271 C1270 1.517 . S
C1271 O1319 1.468 . S
C1271 H1332 0.963 1_655 S
C1272 C1273 1.349 . S
C1272 C1277 1.367 . S
C1272 O1319 1.408 . S
C1273 C1272 1.349 . S
C1273 C1274 1.407 1_655 S
C1273 H1336 0.930 1_655 S
C1274 C1273 1.407 1_455 S
C1274 C1275 1.449 1_455 S
C1274 C1278 1.536 . S
C1275 C1274 1.449 1_655 S
C1275 C1276 1.384 . S
C1275 C1300 1.553 . S
C1276 C1275 1.384 . S
C1276 C1277 1.364 . S
C1276 C1279 1.450 . S
C1277 C1272 1.367 . S
C1277 C1276 1.364 . S
C1277 H1337 0.931 . S
C1278 C1274 1.536 . S
C1278 H1338 0.959 . S
C1278 H1339 0.961 . S
C1278 H1340 0.959 . S
C1279 C1276 1.450 . S
C1279 H1341 0.960 . S
C1279 H1342 0.960 . S
C1279 H1343 0.960 . S
C1280 C1281 1.309 . S
C1280 C1285 1.304 . S
C1280 O1318 1.435 . S
C1281 C1280 1.309 . S
C1281 C1282 1.484 . S
C1281 H1345 0.930 1_655 S
C1282 C1281 1.484 . S
C1282 C1283 1.405 . S
C1282 C1286 1.554 1_655 S
C1283 C1282 1.405 . S
C1283 C1284 1.373 . S
C1283 C1305 1.432 . S
C1284 C1283 1.373 . S
C1284 C1285 1.339 . S
C1284 C1287 1.530 . S
C1285 C1280 1.304 . S
C1285 C1284 1.339 . S
C1285 H1346 0.930 . S
C1286 C1282 1.554 1_455 S
C1286 H1347 0.961 . S
C1286 H1348 0.960 . S
C1286 H1349 0.958 . S
C1287 C1284 1.530 . S
C1287 H1350 0.961 . S
C1287 H1351 0.960 . S
C1287 H1352 0.960 . S
C1288 C1289 1.530 . S
C1288 H1354 0.961 . S
C1288 H1355 0.961 . S
C1288 H1356 0.959 . S
C1289 C1288 1.530 . S
C1289 O1317 1.412 . S
C1289 H1353 0.980 1_455 S
C1290 C1291 1.288 . S
C1290 C1295 1.377 1_455 S
C1290 O1317 1.393 . S
C1291 C1290 1.288 . S
C1291 C1292 1.369 . S
C1291 H1357 0.932 . S
C1292 C1291 1.369 . S
C1292 C1293 1.338 1_455 S
C1292 C1296 1.527 . S
C1293 C1292 1.338 1_655 S
C1293 C1294 1.397 . S
C1293 C1307 1.540 . S
C1294 C1293 1.397 . S
C1294 C1295 1.383 . S
C1294 C1297 1.603 . S
C1295 C1290 1.377 1_655 S
C1295 C1294 1.383 . S
C1295 H1358 0.929 . S
C1296 C1292 1.527 . S
C1296 H1359 0.961 . S
C1296 H1360 0.959 . S
C1296 H1361 0.959 . S
C1297 C1294 1.603 . S
C1297 H1362 0.960 . S
C1297 H1363 0.962 . S
C1297 H1364 0.961 . S
C1298 C1265 1.587 1_655 S
C1298 C1299 1.360 . S
C1298 C1311 1.412 . S
C1299 C1298 1.360 . S
C1299 C1300 1.365 . S
C1299 H1365 0.929 . S
C1300 C1275 1.553 . S
C1300 C1299 1.365 . S
C1300 C1301 1.404 . S
C1301 C1300 1.404 . S
C1301 C1302 1.395 . S
C1301 C1312 1.451 . S
C1302 C1301 1.395 . S
C1302 C1303 1.322 . S
C1302 H1366 0.930 . S
C1303 C1302 1.322 . S
C1303 C1304 1.459 . S
C1303 H1367 0.929 . S
C1304 C1303 1.459 . S
C1304 C1305 1.445 . S
C1304 C1313 1.395 . S
C1305 C1283 1.432 . S
C1305 C1304 1.445 . S
C1305 C1306 1.370 . S
C1306 C1305 1.370 . S
C1306 C1307 1.438 . S
C1306 H1368 0.930 . S
C1307 C1293 1.540 . S
C1307 C1306 1.438 . S
C1307 C1308 1.360 . S
C1308 C1307 1.360 . S
C1308 C1309 1.401 . S
C1308 C1313 1.446 . S
C1309 C1308 1.401 . S
C1309 C1310 1.347 . S
C1309 H1369 0.963 . S
C1310 C1309 1.347 . S
C1310 C1311 1.455 . S
C1310 H1370 0.964 . S
C1311 C1298 1.412 . S
C1311 C1310 1.455 . S
C1311 C1312 1.331 . S
C1312 C1301 1.451 . S
C1312 C1311 1.331 . S
C1312 C1313 1.497 . S
C1313 C1304 1.395 . S
C1313 C1308 1.446 . S
C1313 C1312 1.497 . S
C1314 C1315 1.582 . S
C1314 H1371 0.962 . S
C1314 H1372 0.959 . S
C1314 H1373 0.958 . S
C1315 C1314 1.582 . S
C1315 O1318 1.458 . S
C1315 H1344 0.980 . S
O1316 C1261 1.426 . S
O1316 C1262 1.334 . S
O1317 C1289 1.412 . S
O1317 C1290 1.393 . S
O1318 C1280 1.435 . S
O1318 C1315 1.458 . S
O1319 C1271 1.468 . S
O1319 C1272 1.408 . S
H1320 C1261 0.980 . S
H1321 C1260 0.959 . S
H1322 C1260 0.959 . S
H1323 C1260 0.960 . S
H1324 C1263 0.929 . S
H1325 C1267 0.929 . S
H1326 C1268 0.959 . S
H1327 C1268 0.961 . S
H1328 C1268 0.961 . S
H1329 C1269 0.960 . S
H1330 C1269 0.960 . S
H1331 C1269 0.961 . S
H1332 C1271 0.963 1_455 S
H1333 C1270 0.961 . S
H1334 C1270 0.960 . S
H1335 C1270 0.959 . S
H1336 C1273 0.930 1_455 S
H1337 C1277 0.931 . S
H1338 C1278 0.959 . S
H1339 C1278 0.961 . S
H1340 C1278 0.959 . S
H1341 C1279 0.960 . S
H1342 C1279 0.960 . S
H1343 C1279 0.960 . S
H1344 C1315 0.980 . S
H1345 C1281 0.930 1_455 S
H1346 C1285 0.930 . S
H1347 C1286 0.961 . S
H1348 C1286 0.960 . S
H1349 C1286 0.958 . S
H1350 C1287 0.961 . S
H1351 C1287 0.960 . S
H1352 C1287 0.960 . S
H1353 C1289 0.980 1_655 S
H1354 C1288 0.961 . S
H1355 C1288 0.961 . S
H1356 C1288 0.959 . S
H1357 C1291 0.932 . S
H1358 C1295 0.929 . S
H1359 C1296 0.961 . S
H1360 C1296 0.959 . S
H1361 C1296 0.959 . S
H1362 C1297 0.960 . S
H1363 C1297 0.962 . S
H1364 C1297 0.961 . S
H1365 C1299 0.929 . S
H1366 C1302 0.930 . S
H1367 C1303 0.929 . S
H1368 C1306 0.930 . S
H1369 C1309 0.963 . S
H1370 C1310 0.964 . S
H1371 C1314 0.962 . S
H1372 C1314 0.959 . S
H1373 C1314 0.958 . S
C1374 C1375 1.560 . S
C1374 H1435 0.959 . S
C1374 H1436 0.959 . S
C1374 H1437 0.960 . S
C1375 C1374 1.560 . S
C1375 O1430 1.426 . S
C1375 H1434 0.980 . S
C1376 C1377 1.407 . S
C1376 C1381 1.418 . S
C1376 O1430 1.334 . S
C1377 C1376 1.407 . S
C1377 C1378 1.360 . S
C1377 H1438 0.929 . S
C1378 C1377 1.360 . S
C1378 C1379 1.401 . S
C1378 C1382 1.527 . S
C1379 C1378 1.401 . S
C1379 C1380 1.405 . S
C1379 C1412 1.587 . S
C1380 C1379 1.405 . S
C1380 C1381 1.332 . S
C1380 C1383 1.496 . S
C1381 C1376 1.418 . S
C1381 C1380 1.332 . S
C1381 H1439 0.929 . S
C1382 C1378 1.527 . S
C1382 H1440 0.959 . S
C1382 H1441 0.961 . S
C1382 H1442 0.961 . S
C1383 C1380 1.496 . S
C1383 H1443 0.960 . S
C1383 H1444 0.960 . S
C1383 H1445 0.961 . S
C1384 C1385 1.517 . S
C1384 H1447 0.961 . S
C1384 H1448 0.960 . S
C1384 H1449 0.959 . S
C1385 C1384 1.517 . S
C1385 O1433 1.468 . S
C1385 H1446 0.980 . S
C1386 C1387 1.349 . S
C1386 C1391 1.367 . S
C1386 O1433 1.408 . S
C1387 C1386 1.349 . S
C1387 C1388 1.407 . S
C1387 H1450 0.930 . S
C1388 C1387 1.407 . S
C1388 C1389 1.449 . S
C1388 C1392 1.535 . S
C1389 C1388 1.449 . S
C1389 C1390 1.384 . S
C1389 C1414 1.553 . S
C1390 C1389 1.384 . S
C1390 C1391 1.364 . S
C1390 C1393 1.450 . S
C1391 C1386 1.367 . S
C1391 C1390 1.364 . S
C1391 H1451 0.931 . S
C1392 C1388 1.535 . S
C1392 H1452 0.959 . S
C1392 H1453 0.961 . S
C1392 H1454 0.959 . S
C1393 C1390 1.450 . S
C1393 H1455 0.960 . S
C1393 H1456 0.960 . S
C1393 H1457 0.960 . S
C1394 C1395 1.309 . S
C1394 C1399 1.304 . S
C1394 O1432 1.435 . S
C1395 C1394 1.309 . S
C1395 C1396 1.476 . S
C1395 H1459 0.930 . S
C1396 C1395 1.476 . S
C1396 C1397 1.400 . S
C1396 C1400 1.567 . S
C1397 C1396 1.400 . S
C1397 C1398 1.373 . S
C1397 C1419 1.432 . S
C1398 C1397 1.373 . S
C1398 C1399 1.339 . S
C1398 C1401 1.530 . S
C1399 C1394 1.304 . S
C1399 C1398 1.339 . S
C1399 H1460 0.930 . S
C1400 C1396 1.567 . S
C1400 H1461 0.961 . S
C1400 H1462 0.960 . S
C1400 H1463 0.958 . S
C1401 C1398 1.530 . S
C1401 H1464 0.961 . S
C1401 H1465 0.960 . S
C1401 H1466 0.960 . S
C1402 C1403 1.530 . S
C1402 H1468 0.961 . S
C1402 H1469 0.961 . S
C1402 H1470 0.959 . S
C1403 C1402 1.530 . S
C1403 O1431 1.412 . S
C1403 H1467 0.980 . S
C1404 C1405 1.288 . S
C1404 C1409 1.377 . S
C1404 O1431 1.393 . S
C1405 C1404 1.288 . S
C1405 C1406 1.369 . S
C1405 H1471 0.932 . S
C1406 C1405 1.369 . S
C1406 C1407 1.398 . S
C1406 C1410 1.527 . S
C1407 C1406 1.398 . S
C1407 C1408 1.380 . S
C1407 C1421 1.497 . S
C1408 C1407 1.380 . S
C1408 C1409 1.383 . S
C1408 C1411 1.603 . S
C1409 C1404 1.377 . S
C1409 C1408 1.383 . S
C1409 H1472 0.929 . S
C1410 C1406 1.527 . S
C1410 H1473 0.961 . S
C1410 H1474 0.959 . S
C1410 H1475 0.959 . S
C1411 C1408 1.603 . S
C1411 H1476 0.960 . S
C1411 H1477 0.962 . S
C1411 H1478 0.961 . S
C1412 C1379 1.587 . S
C1412 C1413 1.360 . S
C1412 C1425 1.412 . S
C1413 C1412 1.360 . S
C1413 C1414 1.365 . S
C1413 H1479 0.929 . S
C1414 C1389 1.553 . S
C1414 C1413 1.365 . S
C1414 C1415 1.404 . S
C1415 C1414 1.404 . S
C1415 C1416 1.395 . S
C1415 C1426 1.451 . S
C1416 C1415 1.395 . S
C1416 C1417 1.322 . S
C1416 H1480 0.930 . S
C1417 C1416 1.322 . S
C1417 C1418 1.459 . S
C1417 H1481 0.929 . S
C1418 C1417 1.459 . S
C1418 C1419 1.445 . S
C1418 C1427 1.395 . S
C1419 C1397 1.432 . S
C1419 C1418 1.445 . S
C1419 C1420 1.370 . S
C1420 C1419 1.370 . S
C1420 C1421 1.438 . S
C1420 H1482 0.930 . S
C1421 C1407 1.497 . S
C1421 C1420 1.438 . S
C1421 C1422 1.360 . S
C1422 C1421 1.360 . S
C1422 C1423 1.401 . S
C1422 C1427 1.446 . S
C1423 C1422 1.401 . S
C1423 C1424 1.347 . S
C1423 H1483 0.929 . S
C1424 C1423 1.347 . S
C1424 C1425 1.455 . S
C1424 H1484 0.930 . S
C1425 C1412 1.412 . S
C1425 C1424 1.455 . S
C1425 C1426 1.331 . S
C1426 C1415 1.451 . S
C1426 C1425 1.331 . S
C1426 C1427 1.497 . S
C1427 C1418 1.395 . S
C1427 C1422 1.446 . S
C1427 C1426 1.497 . S
C1428 C1429 1.582 . S
C1428 H1485 0.962 . S
C1428 H1486 0.959 . S
C1428 H1487 0.958 . S
C1429 C1428 1.582 . S
C1429 O1432 1.458 . S
C1429 H1458 0.980 . S
O1430 C1375 1.426 . S
O1430 C1376 1.334 . S
O1431 C1403 1.412 . S
O1431 C1404 1.393 . S
O1432 C1394 1.435 . S
O1432 C1429 1.458 . S
O1433 C1385 1.468 . S
O1433 C1386 1.408 . S
H1434 C1375 0.980 . S
H1435 C1374 0.959 . S
H1436 C1374 0.959 . S
H1437 C1374 0.960 . S
H1438 C1377 0.929 . S
H1439 C1381 0.929 . S
H1440 C1382 0.959 . S
H1441 C1382 0.961 . S
H1442 C1382 0.961 . S
H1443 C1383 0.960 . S
H1444 C1383 0.960 . S
H1445 C1383 0.961 . S
H1446 C1385 0.980 . S
H1447 C1384 0.961 . S
H1448 C1384 0.960 . S
H1449 C1384 0.959 . S
H1450 C1387 0.930 . S
H1451 C1391 0.931 . S
H1452 C1392 0.959 . S
H1453 C1392 0.961 . S
H1454 C1392 0.959 . S
H1455 C1393 0.960 . S
H1456 C1393 0.960 . S
H1457 C1393 0.960 . S
H1458 C1429 0.980 . S
H1459 C1395 0.930 . S
H1460 C1399 0.930 . S
H1461 C1400 0.961 . S
H1462 C1400 0.960 . S
H1463 C1400 0.958 . S
H1464 C1401 0.961 . S
H1465 C1401 0.960 . S
H1466 C1401 0.960 . S
H1467 C1403 0.980 . S
H1468 C1402 0.961 . S
H1469 C1402 0.961 . S
H1470 C1402 0.959 . S
H1471 C1405 0.932 . S
H1472 C1409 0.929 . S
H1473 C1410 0.961 . S
H1474 C1410 0.959 . S
H1475 C1410 0.959 . S
H1476 C1411 0.960 . S
H1477 C1411 0.962 . S
H1478 C1411 0.961 . S
H1479 C1413 0.929 . S
H1480 C1416 0.930 . S
H1481 C1417 0.929 . S
H1482 C1420 0.930 . S
H1483 C1423 0.929 . S
H1484 C1424 0.930 . S
H1485 C1428 0.962 . S
H1486 C1428 0.959 . S
H1487 C1428 0.958 . S
C1488 C1489 1.560 . S
C1488 H1549 0.959 . S
C1488 H1550 0.959 . S
C1488 H1551 0.960 . S
C1489 C1488 1.560 . S
C1489 O1544 1.426 . S
C1489 H1548 0.980 . S
C1490 C1491 1.407 1_565 S
C1490 C1495 1.418 . S
C1490 O1544 1.334 . S
C1491 C1490 1.407 1_545 S
C1491 C1492 1.360 . S
C1491 H1552 0.929 . S
C1492 C1491 1.360 . S
C1492 C1493 1.401 1_545 S
C1492 C1496 1.527 . S
C1493 C1492 1.401 1_565 S
C1493 C1494 1.405 . S
C1493 C1526 1.587 1_565 S
C1494 C1493 1.405 . S
C1494 C1495 1.332 . S
C1494 C1497 1.496 . S
C1495 C1490 1.418 . S
C1495 C1494 1.332 . S
C1495 H1553 0.929 . S
C1496 C1492 1.527 . S
C1496 H1554 0.959 . S
C1496 H1555 0.961 . S
C1496 H1556 0.961 . S
C1497 C1494 1.496 . S
C1497 H1557 0.960 . S
C1497 H1558 0.960 . S
C1497 H1559 0.961 . S
C1498 C1499 1.517 . S
C1498 H1561 0.961 1_545 S
C1498 H1562 0.960 . S
C1498 H1563 0.959 . S
C1499 C1498 1.517 . S
C1499 O1547 1.468 . S
C1499 H1560 0.980 1_545 S
C1500 C1501 1.326 1_545 S
C1500 C1505 1.367 . S
C1500 O1547 1.408 . S
C1501 C1500 1.326 1_565 S
C1501 C1502 1.391 . S
C1501 H1564 0.972 . S
C1502 C1501 1.391 . S
C1502 C1503 1.449 1_565 S
C1502 C1506 1.535 . S
C1503 C1502 1.449 1_545 S
C1503 C1504 1.384 . S
C1503 C1528 1.553 . S
C1504 C1503 1.384 . S
C1504 C1505 1.364 . S
C1504 C1507 1.450 . S
C1505 C1500 1.367 . S
C1505 C1504 1.364 . S
C1505 H1565 0.931 . S
C1506 C1502 1.535 . S
C1506 H1566 0.959 . S
C1506 H1567 0.961 . S
C1506 H1568 0.959 . S
C1507 C1504 1.450 . S
C1507 H1569 0.960 . S
C1507 H1570 0.960 . S
C1507 H1571 0.960 . S
C1508 C1509 1.309 . S
C1508 C1513 1.304 . S
C1508 O1546 1.435 . S
C1509 C1508 1.309 . S
C1509 C1510 1.494 1_545 S
C1509 H1573 0.930 1_545 S
C1510 C1509 1.494 1_565 S
C1510 C1511 1.345 1_565 S
C1510 C1514 1.604 . S
C1511 C1510 1.345 1_545 S
C1511 C1512 1.373 . S
C1511 C1533 1.432 . S
C1512 C1511 1.373 . S
C1512 C1513 1.339 . S
C1512 C1515 1.530 . S
C1513 C1508 1.304 . S
C1513 C1512 1.339 . S
C1513 H1574 0.930 . S
C1514 C1510 1.604 . S
C1514 H1575 0.961 . S
C1514 H1576 0.960 . S
C1514 H1577 0.958 . S
C1515 C1512 1.530 . S
C1515 H1578 0.961 . S
C1515 H1579 0.960 . S
C1515 H1580 0.960 . S
C1516 C1517 1.530 1_565 S
C1516 H1582 1.010 . S
C1516 H1583 0.961 . S
C1516 H1584 0.959 . S
C1517 C1516 1.530 1_545 S
C1517 O1545 1.412 1_545 S
C1517 H1581 0.980 . S
C1518 C1519 1.288 . S
C1518 C1523 1.377 1_565 S
C1518 O1545 1.393 . S
C1519 C1518 1.288 . S
C1519 C1520 1.369 . S
C1519 H1585 0.932 . S
C1520 C1519 1.369 . S
C1520 C1521 1.398 1_565 S
C1520 C1524 1.527 . S
C1521 C1520 1.398 1_545 S
C1521 C1522 1.380 . S
C1521 C1535 1.497 . S
C1522 C1521 1.380 . S
C1522 C1523 1.383 . S
C1522 C1525 1.603 . S
C1523 C1518 1.377 1_545 S
C1523 C1522 1.383 . S
C1523 H1586 0.929 . S
C1524 C1520 1.527 . S
C1524 H1587 0.961 . S
C1524 H1588 0.959 . S
C1524 H1589 0.959 . S
C1525 C1522 1.603 . S
C1525 H1590 0.960 . S
C1525 H1591 0.962 . S
C1525 H1592 0.961 . S
C1526 C1493 1.587 1_545 S
C1526 C1527 1.360 . S
C1526 C1539 1.412 . S
C1527 C1526 1.360 . S
C1527 C1528 1.365 . S
C1527 H1593 0.929 . S
C1528 C1503 1.553 . S
C1528 C1527 1.365 . S
C1528 C1529 1.404 . S
C1529 C1528 1.404 . S
C1529 C1530 1.395 . S
C1529 C1540 1.451 . S
C1530 C1529 1.395 . S
C1530 C1531 1.322 . S
C1530 H1594 0.930 . S
C1531 C1530 1.322 . S
C1531 C1532 1.459 . S
C1531 H1595 0.929 . S
C1532 C1531 1.459 . S
C1532 C1533 1.445 . S
C1532 C1541 1.395 . S
C1533 C1511 1.432 . S
C1533 C1532 1.445 . S
C1533 C1534 1.370 . S
C1534 C1533 1.370 . S
C1534 C1535 1.438 . S
C1534 H1596 0.930 . S
C1535 C1521 1.497 . S
C1535 C1534 1.438 . S
C1535 C1536 1.360 . S
C1536 C1535 1.360 . S
C1536 C1537 1.401 . S
C1536 C1541 1.446 . S
C1537 C1536 1.401 . S
C1537 C1538 1.347 . S
C1537 H1597 0.929 . S
C1538 C1537 1.347 . S
C1538 C1539 1.455 . S
C1538 H1598 0.930 . S
C1539 C1526 1.412 . S
C1539 C1538 1.455 . S
C1539 C1540 1.331 . S
C1540 C1529 1.451 . S
C1540 C1539 1.331 . S
C1540 C1541 1.497 . S
C1541 C1532 1.395 . S
C1541 C1536 1.446 . S
C1541 C1540 1.497 . S
C1542 C1543 1.582 . S
C1542 H1599 0.962 . S
C1542 H1600 0.959 . S
C1542 H1601 0.958 . S
C1543 C1542 1.582 . S
C1543 O1546 1.458 . S
C1543 H1572 0.980 . S
O1544 C1489 1.426 . S
O1544 C1490 1.334 . S
O1545 C1517 1.412 1_565 S
O1545 C1518 1.393 . S
O1546 C1508 1.435 . S
O1546 C1543 1.458 . S
O1547 C1499 1.468 . S
O1547 C1500 1.408 . S
H1548 C1489 0.980 . S
H1549 C1488 0.959 . S
H1550 C1488 0.959 . S
H1551 C1488 0.960 . S
H1552 C1491 0.929 . S
H1553 C1495 0.929 . S
H1554 C1496 0.959 . S
H1555 C1496 0.961 . S
H1556 C1496 0.961 . S
H1557 C1497 0.960 . S
H1558 C1497 0.960 . S
H1559 C1497 0.961 . S
H1560 C1499 0.980 1_565 S
H1561 C1498 0.961 1_565 S
H1562 C1498 0.960 . S
H1563 C1498 0.959 . S
H1564 C1501 0.972 . S
H1565 C1505 0.931 . S
H1566 C1506 0.959 . S
H1567 C1506 0.961 . S
H1568 C1506 0.959 . S
H1569 C1507 0.960 . S
H1570 C1507 0.960 . S
H1571 C1507 0.960 . S
H1572 C1543 0.980 . S
H1573 C1509 0.930 1_565 S
H1574 C1513 0.930 . S
H1575 C1514 0.961 . S
H1576 C1514 0.960 . S
H1577 C1514 0.958 . S
H1578 C1515 0.961 . S
H1579 C1515 0.960 . S
H1580 C1515 0.960 . S
H1581 C1517 0.980 . S
H1582 C1516 1.010 . S
H1583 C1516 0.961 . S
H1584 C1516 0.959 . S
H1585 C1519 0.932 . S
H1586 C1523 0.929 . S
H1587 C1524 0.961 . S
H1588 C1524 0.959 . S
H1589 C1524 0.959 . S
H1590 C1525 0.960 . S
H1591 C1525 0.962 . S
H1592 C1525 0.961 . S
H1593 C1527 0.929 . S
H1594 C1530 0.930 . S
H1595 C1531 0.929 . S
H1596 C1534 0.930 . S
H1597 C1537 0.929 . S
H1598 C1538 0.930 . S
H1599 C1542 0.962 . S
H1600 C1542 0.959 . S
H1601 C1542 0.958 . S
C1602 C1603 1.560 . S
C1602 H1663 0.959 . S
C1602 H1664 0.959 . S
C1602 H1665 0.960 . S
C1603 C1602 1.560 . S
C1603 O1658 1.426 . S
C1603 H1662 0.980 1_565 S
C1604 C1605 1.407 1_565 S
C1604 C1609 1.418 . S
C1604 O1658 1.334 . S
C1605 C1604 1.407 1_545 S
C1605 C1606 1.360 . S
C1605 H1666 0.929 . S
C1606 C1605 1.360 . S
C1606 C1607 1.401 . S
C1606 C1610 1.527 . S
C1607 C1606 1.401 . S
C1607 C1608 1.405 1_545 S
C1607 C1640 1.587 . S
C1608 C1607 1.405 1_565 S
C1608 C1609 1.332 . S
C1608 C1611 1.496 . S
C1609 C1604 1.418 . S
C1609 C1608 1.332 . S
C1609 H1667 0.929 . S
C1610 C1606 1.527 . S
C1610 H1668 0.959 . S
C1610 H1669 0.961 . S
C1610 H1670 0.961 . S
C1611 C1608 1.496 . S
C1611 H1671 0.960 . S
C1611 H1672 0.960 . S
C1611 H1673 0.961 . S
C1612 C1613 1.517 . S
C1612 H1675 0.961 . S
C1612 H1676 0.960 . S
C1612 H1677 0.959 . S
C1613 C1612 1.517 . S
C1613 O1661 1.468 . S
C1613 H1674 0.980 . S
C1614 C1615 1.349 . S
C1614 C1619 1.367 . S
C1614 O1661 1.408 . S
C1615 C1614 1.349 . S
C1615 C1616 1.407 . S
C1615 H1678 0.946 . S
C1616 C1615 1.407 . S
C1616 C1617 1.449 . S
C1616 C1620 1.535 1_545 S
C1617 C1616 1.449 . S
C1617 C1618 1.384 . S
C1617 C1642 1.553 . S
C1618 C1617 1.384 . S
C1618 C1619 1.364 . S
C1618 C1621 1.450 . S
C1619 C1614 1.367 . S
C1619 C1618 1.364 . S
C1619 H1679 0.931 . S
C1620 C1616 1.535 1_565 S
C1620 H1680 0.959 . S
C1620 H1681 0.961 . S
C1620 H1682 0.959 . S
C1621 C1618 1.450 . S
C1621 H1683 0.960 . S
C1621 H1684 0.960 . S
C1621 H1685 0.960 . S
C1622 C1623 1.309 1_545 S
C1622 C1627 1.304 . S
C1622 O1660 1.435 . S
C1623 C1622 1.309 1_565 S
C1623 C1624 1.476 . S
C1623 H1687 0.930 . S
C1624 C1623 1.476 . S
C1624 C1625 1.400 1_565 S
C1624 C1628 1.567 . S
C1625 C1624 1.400 1_545 S
C1625 C1626 1.373 . S
C1625 C1647 1.432 . S
C1626 C1625 1.373 . S
C1626 C1627 1.339 . S
C1626 C1629 1.530 . S
C1627 C1622 1.304 . S
C1627 C1626 1.339 . S
C1627 H1688 0.930 . S
C1628 C1624 1.567 . S
C1628 H1689 0.961 . S
C1628 H1690 0.960 . S
C1628 H1691 0.958 . S
C1629 C1626 1.530 . S
C1629 H1692 0.961 . S
C1629 H1693 0.960 . S
C1629 H1694 0.960 . S
C1630 C1631 1.530 . S
C1630 H1696 0.961 . S
C1630 H1697 0.961 . S
C1630 H1698 0.959 . S
C1631 C1630 1.530 . S
C1631 O1659 1.412 . S
C1631 H1695 0.980 . S
C1632 C1633 1.288 . S
C1632 C1637 1.377 1_565 S
C1632 O1659 1.393 . S
C1633 C1632 1.288 . S
C1633 C1634 1.369 . S
C1633 H1699 0.932 . S
C1634 C1633 1.369 . S
C1634 C1635 1.398 . S
C1634 C1638 1.527 . S
C1635 C1634 1.398 . S
C1635 C1636 1.380 1_565 S
C1635 C1649 1.497 1_565 S
C1636 C1635 1.380 1_545 S
C1636 C1637 1.383 . S
C1636 C1639 1.603 . S
C1637 C1632 1.377 1_545 S
C1637 C1636 1.383 . S
C1637 H1700 0.929 . S
C1638 C1634 1.527 . S
C1638 H1701 0.961 . S
C1638 H1702 0.959 . S
C1638 H1703 0.959 . S
C1639 C1636 1.603 . S
C1639 H1704 0.960 . S
C1639 H1705 0.962 . S
C1639 H1706 0.961 . S
C1640 C1607 1.587 . S
C1640 C1641 1.360 . S
C1640 C1653 1.412 . S
C1641 C1640 1.360 . S
C1641 C1642 1.365 . S
C1641 H1707 0.929 . S
C1642 C1617 1.553 . S
C1642 C1641 1.365 . S
C1642 C1643 1.404 . S
C1643 C1642 1.404 . S
C1643 C1644 1.395 . S
C1643 C1654 1.451 . S
C1644 C1643 1.395 . S
C1644 C1645 1.322 . S
C1644 H1708 0.930 . S
C1645 C1644 1.322 . S
C1645 C1646 1.459 . S
C1645 H1709 0.929 . S
C1646 C1645 1.459 . S
C1646 C1647 1.445 . S
C1646 C1655 1.395 . S
C1647 C1625 1.432 . S
C1647 C1646 1.445 . S
C1647 C1648 1.370 . S
C1648 C1647 1.370 . S
C1648 C1649 1.438 . S
C1648 H1710 0.930 . S
C1649 C1635 1.497 1_545 S
C1649 C1648 1.438 . S
C1649 C1650 1.360 . S
C1650 C1649 1.360 . S
C1650 C1651 1.401 . S
C1650 C1655 1.446 . S
C1651 C1650 1.401 . S
C1651 C1652 1.347 . S
C1651 H1711 0.933 . S
C1652 C1651 1.347 . S
C1652 C1653 1.455 . S
C1652 H1712 0.930 . S
C1653 C1640 1.412 . S
C1653 C1652 1.455 . S
C1653 C1654 1.331 . S
C1654 C1643 1.451 . S
C1654 C1653 1.331 . S
C1654 C1655 1.497 . S
C1655 C1646 1.395 . S
C1655 C1650 1.446 . S
C1655 C1654 1.497 . S
C1656 C1657 1.582 . S
C1656 H1713 0.962 . S
C1656 H1714 0.959 . S
C1656 H1715 0.958 . S
C1657 C1656 1.582 . S
C1657 O1660 1.458 . S
C1657 H1686 0.982 1_545 S
O1658 C1603 1.426 . S
O1658 C1604 1.334 . S
O1659 C1631 1.412 . S
O1659 C1632 1.393 . S
O1660 C1622 1.435 . S
O1660 C1657 1.458 . S
O1661 C1613 1.468 . S
O1661 C1614 1.408 . S
H1662 C1603 0.980 1_545 S
H1663 C1602 0.959 . S
H1664 C1602 0.959 . S
H1665 C1602 0.960 . S
H1666 C1605 0.929 . S
H1667 C1609 0.929 . S
H1668 C1610 0.959 . S
H1669 C1610 0.961 . S
H1670 C1610 0.961 . S
H1671 C1611 0.960 . S
H1672 C1611 0.960 . S
H1673 C1611 0.961 . S
H1674 C1613 0.980 . S
H1675 C1612 0.961 . S
H1676 C1612 0.960 . S
H1677 C1612 0.959 . S
H1678 C1615 0.946 . S
H1679 C1619 0.931 . S
H1680 C1620 0.959 . S
H1681 C1620 0.961 . S
H1682 C1620 0.959 . S
H1683 C1621 0.960 . S
H1684 C1621 0.960 . S
H1685 C1621 0.960 . S
H1686 C1657 0.982 1_565 S
H1687 C1623 0.930 . S
H1688 C1627 0.930 . S
H1689 C1628 0.961 . S
H1690 C1628 0.960 . S
H1691 C1628 0.958 . S
H1692 C1629 0.961 . S
H1693 C1629 0.960 . S
H1694 C1629 0.960 . S
H1695 C1631 0.980 . S
H1696 C1630 0.961 . S
H1697 C1630 0.961 . S
H1698 C1630 0.959 . S
H1699 C1633 0.932 . S
H1700 C1637 0.929 . S
H1701 C1638 0.961 . S
H1702 C1638 0.959 . S
H1703 C1638 0.959 . S
H1704 C1639 0.960 . S
H1705 C1639 0.962 . S
H1706 C1639 0.961 . S
H1707 C1641 0.929 . S
H1708 C1644 0.930 . S
H1709 C1645 0.929 . S
H1710 C1648 0.930 . S
H1711 C1651 0.933 . S
H1712 C1652 0.930 . S
H1713 C1656 0.962 . S
H1714 C1656 0.959 . S
H1715 C1656 0.958 . S
C1716 C1717 1.560 . S
C1716 H1777 0.959 . S
C1716 H1778 0.959 . S
C1716 H1779 0.960 . S
C1717 C1716 1.560 . S
C1717 O1772 1.426 . S
C1717 H1776 0.980 1_455 S
C1718 C1719 1.407 1_455 S
C1718 C1723 1.418 . S
C1718 O1772 1.334 . S
C1719 C1718 1.407 1_655 S
C1719 C1720 1.360 . S
C1719 H1780 0.929 . S
C1720 C1719 1.360 . S
C1720 C1721 1.401 . S
C1720 C1724 1.527 . S
C1721 C1720 1.401 . S
C1721 C1722 1.405 1_655 S
C1721 C1754 1.587 . S
C1722 C1721 1.405 1_455 S
C1722 C1723 1.332 . S
C1722 C1725 1.496 . S
C1723 C1718 1.418 . S
C1723 C1722 1.332 . S
C1723 H1781 0.929 . S
C1724 C1720 1.527 . S
C1724 H1782 0.959 . S
C1724 H1783 0.961 . S
C1724 H1784 0.961 . S
C1725 C1722 1.496 . S
C1725 H1785 0.960 . S
C1725 H1786 0.960 . S
C1725 H1787 0.961 . S
C1726 C1727 1.517 . S
C1726 H1789 0.961 . S
C1726 H1790 0.960 . S
C1726 H1791 0.959 . S
C1727 C1726 1.517 . S
C1727 O1775 1.468 . S
C1727 H1788 0.980 . S
C1728 C1729 1.349 . S
C1728 C1733 1.367 . S
C1728 O1775 1.408 . S
C1729 C1728 1.349 . S
C1729 C1730 1.407 . S
C1729 H1792 0.857 1_655 S
C1730 C1729 1.407 . S
C1730 C1731 1.449 . S
C1730 C1734 1.535 1_655 S
C1731 C1730 1.449 . S
C1731 C1732 1.384 . S
C1731 C1756 1.553 . S
C1732 C1731 1.384 . S
C1732 C1733 1.364 . S
C1732 C1735 1.450 . S
C1733 C1728 1.367 . S
C1733 C1732 1.364 . S
C1733 H1793 0.931 . S
C1734 C1730 1.535 1_455 S
C1734 H1794 0.959 . S
C1734 H1795 0.961 . S
C1734 H1796 0.959 . S
C1735 C1732 1.450 . S
C1735 H1797 0.960 . S
C1735 H1798 0.960 . S
C1735 H1799 0.960 . S
C1736 C1737 1.309 1_655 S
C1736 C1741 1.304 . S
C1736 O1774 1.435 . S
C1737 C1736 1.309 1_455 S
C1737 C1738 1.476 . S
C1737 H1801 0.930 . S
C1738 C1737 1.476 . S
C1738 C1739 1.400 1_455 S
C1738 C1742 1.567 . S
C1739 C1738 1.400 1_655 S
C1739 C1740 1.373 . S
C1739 C1761 1.432 . S
C1740 C1739 1.373 . S
C1740 C1741 1.339 . S
C1740 C1743 1.530 . S
C1741 C1736 1.304 . S
C1741 C1740 1.339 . S
C1741 H1802 0.930 . S
C1742 C1738 1.567 . S
C1742 H1803 0.961 . S
C1742 H1804 0.960 . S
C1742 H1805 0.958 . S
C1743 C1740 1.530 . S
C1743 H1806 0.961 . S
C1743 H1807 0.960 . S
C1743 H1808 0.960 . S
C1744 C1745 1.530 . S
C1744 H1810 0.961 . S
C1744 H1811 0.961 . S
C1744 H1812 0.959 . S
C1745 C1744 1.530 . S
C1745 O1773 1.412 . S
C1745 H1809 0.926 1_455 S
C1746 C1747 1.288 . S
C1746 C1751 1.377 1_455 S
C1746 O1773 1.393 . S
C1747 C1746 1.288 . S
C1747 C1748 1.369 . S
C1747 H1813 0.932 . S
C1748 C1747 1.369 . S
C1748 C1749 1.398 . S
C1748 C1752 1.527 . S
C1749 C1748 1.398 . S
C1749 C1750 1.380 1_455 S
C1749 C1763 1.497 1_455 S
C1750 C1749 1.380 1_655 S
C1750 C1751 1.383 . S
C1750 C1753 1.603 . S
C1751 C1746 1.377 1_655 S
C1751 C1750 1.383 . S
C1751 H1814 0.929 . S
C1752 C1748 1.527 . S
C1752 H1815 0.961 . S
C1752 H1816 0.959 . S
C1752 H1817 0.959 . S
C1753 C1750 1.603 . S
C1753 H1818 0.960 . S
C1753 H1819 0.962 . S
C1753 H1820 0.961 . S
C1754 C1721 1.587 . S
C1754 C1755 1.360 . S
C1754 C1767 1.412 . S
C1755 C1754 1.360 . S
C1755 C1756 1.365 . S
C1755 H1821 0.929 . S
C1756 C1731 1.553 . S
C1756 C1755 1.365 . S
C1756 C1757 1.404 . S
C1757 C1756 1.404 . S
C1757 C1758 1.395 . S
C1757 C1768 1.451 . S
C1758 C1757 1.395 . S
C1758 C1759 1.322 . S
C1758 H1822 0.930 . S
C1759 C1758 1.322 . S
C1759 C1760 1.459 . S
C1759 H1823 0.929 . S
C1760 C1759 1.459 . S
C1760 C1761 1.445 . S
C1760 C1769 1.395 . S
C1761 C1739 1.432 . S
C1761 C1760 1.445 . S
C1761 C1762 1.370 . S
C1762 C1761 1.370 . S
C1762 C1763 1.438 . S
C1762 H1824 0.930 . S
C1763 C1749 1.497 1_655 S
C1763 C1762 1.438 . S
C1763 C1764 1.360 . S
C1764 C1763 1.360 . S
C1764 C1765 1.401 . S
C1764 C1769 1.446 . S
C1765 C1764 1.401 . S
C1765 C1766 1.347 . S
C1765 H1825 0.929 . S
C1766 C1765 1.347 . S
C1766 C1767 1.455 . S
C1766 H1826 0.930 . S
C1767 C1754 1.412 . S
C1767 C1766 1.455 . S
C1767 C1768 1.331 . S
C1768 C1757 1.451 . S
C1768 C1767 1.331 . S
C1768 C1769 1.497 . S
C1769 C1760 1.395 . S
C1769 C1764 1.446 . S
C1769 C1768 1.497 . S
C1770 C1771 1.582 1_655 S
C1770 H1827 0.962 1_655 S
C1770 H1828 0.959 . S
C1770 H1829 0.958 . S
C1771 C1770 1.582 1_455 S
C1771 O1774 1.458 1_455 S
C1771 H1800 0.980 . S
O1772 C1717 1.426 . S
O1772 C1718 1.334 . S
O1773 C1745 1.412 . S
O1773 C1746 1.393 . S
O1774 C1736 1.435 . S
O1774 C1771 1.458 1_655 S
O1775 C1727 1.468 . S
O1775 C1728 1.408 . S
H1776 C1717 0.980 1_655 S
H1777 C1716 0.959 . S
H1778 C1716 0.959 . S
H1779 C1716 0.960 . S
H1780 C1719 0.929 . S
H1781 C1723 0.929 . S
H1782 C1724 0.959 . S
H1783 C1724 0.961 . S
H1784 C1724 0.961 . S
H1785 C1725 0.960 . S
H1786 C1725 0.960 . S
H1787 C1725 0.961 . S
H1788 C1727 0.980 . S
H1789 C1726 0.961 . S
H1790 C1726 0.960 . S
H1791 C1726 0.959 . S
H1792 C1729 0.857 1_455 S
H1793 C1733 0.931 . S
H1794 C1734 0.959 . S
H1795 C1734 0.961 . S
H1796 C1734 0.959 . S
H1797 C1735 0.960 . S
H1798 C1735 0.960 . S
H1799 C1735 0.960 . S
H1800 C1771 0.980 . S
H1801 C1737 0.930 . S
H1802 C1741 0.930 . S
H1803 C1742 0.961 . S
H1804 C1742 0.960 . S
H1805 C1742 0.958 . S
H1806 C1743 0.961 . S
H1807 C1743 0.960 . S
H1808 C1743 0.960 . S
H1809 C1745 0.926 1_655 S
H1810 C1744 0.961 . S
H1811 C1744 0.961 . S
H1812 C1744 0.959 . S
H1813 C1747 0.932 . S
H1814 C1751 0.929 . S
H1815 C1752 0.961 . S
H1816 C1752 0.959 . S
H1817 C1752 0.959 . S
H1818 C1753 0.960 . S
H1819 C1753 0.962 . S
H1820 C1753 0.961 . S
H1821 C1755 0.929 . S
H1822 C1758 0.930 . S
H1823 C1759 0.929 . S
H1824 C1762 0.930 . S
H1825 C1765 0.929 . S
H1826 C1766 0.930 . S
H1827 C1770 0.962 1_455 S
H1828 C1770 0.959 . S
H1829 C1770 0.958 . S
C1830 C1831 1.560 . S
C1830 H1891 0.959 . S
C1830 H1892 0.959 . S
C1830 H1893 0.960 . S
C1831 C1830 1.560 . S
C1831 O1886 1.426 . S
C1831 H1890 0.980 . S
C1832 C1833 1.407 . S
C1832 C1837 1.418 . S
C1832 O1886 1.334 . S
C1833 C1832 1.407 . S
C1833 C1834 1.360 . S
C1833 H1894 0.929 . S
C1834 C1833 1.360 . S
C1834 C1835 1.401 . S
C1834 C1838 1.527 . S
C1835 C1834 1.401 . S
C1835 C1836 1.405 . S
C1835 C1868 1.587 . S
C1836 C1835 1.405 . S
C1836 C1837 1.332 . S
C1836 C1839 1.496 . S
C1837 C1832 1.418 . S
C1837 C1836 1.332 . S
C1837 H1895 0.929 . S
C1838 C1834 1.527 . S
C1838 H1896 0.959 . S
C1838 H1897 0.961 . S
C1838 H1898 0.961 . S
C1839 C1836 1.496 . S
C1839 H1899 0.960 . S
C1839 H1900 0.960 . S
C1839 H1901 0.961 . S
C1840 C1841 1.517 . S
C1840 H1903 0.961 . S
C1840 H1904 0.960 . S
C1840 H1905 0.959 . S
C1841 C1840 1.517 . S
C1841 O1889 1.468 . S
C1841 H1902 0.980 . S
C1842 C1843 1.349 . S
C1842 C1847 1.367 . S
C1842 O1889 1.408 . S
C1843 C1842 1.349 . S
C1843 C1844 1.407 . S
C1843 H1906 0.930 . S
C1844 C1843 1.407 . S
C1844 C1845 1.449 . S
C1844 C1848 1.535 . S
C1845 C1844 1.449 . S
C1845 C1846 1.384 . S
C1845 C1870 1.553 . S
C1846 C1845 1.384 . S
C1846 C1847 1.364 . S
C1846 C1849 1.450 . S
C1847 C1842 1.367 . S
C1847 C1846 1.364 . S
C1847 H1907 0.931 . S
C1848 C1844 1.535 . S
C1848 H1908 0.959 . S
C1848 H1909 0.961 . S
C1848 H1910 0.959 . S
C1849 C1846 1.450 . S
C1849 H1911 0.960 . S
C1849 H1912 0.960 . S
C1849 H1913 0.960 . S
C1850 C1851 1.309 . S
C1850 C1855 1.304 . S
C1850 O1888 1.435 . S
C1851 C1850 1.309 . S
C1851 C1852 1.476 . S
C1851 H1915 0.930 . S
C1852 C1851 1.476 . S
C1852 C1853 1.400 . S
C1852 C1856 1.567 . S
C1853 C1852 1.400 . S
C1853 C1854 1.373 . S
C1853 C1875 1.432 . S
C1854 C1853 1.373 . S
C1854 C1855 1.339 . S
C1854 C1857 1.530 . S
C1855 C1850 1.304 . S
C1855 C1854 1.339 . S
C1855 H1916 0.930 . S
C1856 C1852 1.567 . S
C1856 H1917 0.961 . S
C1856 H1918 0.960 . S
C1856 H1919 0.958 . S
C1857 C1854 1.530 . S
C1857 H1920 0.961 . S
C1857 H1921 0.960 . S
C1857 H1922 0.960 . S
C1858 C1859 1.530 . S
C1858 H1924 0.961 . S
C1858 H1925 0.961 . S
C1858 H1926 0.959 . S
C1859 C1858 1.530 . S
C1859 O1887 1.412 . S
C1859 H1923 0.980 . S
C1860 C1861 1.288 . S
C1860 C1865 1.377 . S
C1860 O1887 1.393 . S
C1861 C1860 1.288 . S
C1861 C1862 1.369 . S
C1861 H1927 0.932 . S
C1862 C1861 1.369 . S
C1862 C1863 1.398 . S
C1862 C1866 1.527 . S
C1863 C1862 1.398 . S
C1863 C1864 1.380 . S
C1863 C1877 1.497 . S
C1864 C1863 1.380 . S
C1864 C1865 1.383 . S
C1864 C1867 1.603 . S
C1865 C1860 1.377 . S
C1865 C1864 1.383 . S
C1865 H1928 0.929 . S
C1866 C1862 1.527 . S
C1866 H1929 0.961 . S
C1866 H1930 0.959 . S
C1866 H1931 0.959 . S
C1867 C1864 1.603 . S
C1867 H1932 0.960 . S
C1867 H1933 0.962 . S
C1867 H1934 0.961 . S
C1868 C1835 1.587 . S
C1868 C1869 1.360 . S
C1868 C1881 1.412 . S
C1869 C1868 1.360 . S
C1869 C1870 1.365 . S
C1869 H1935 0.929 . S
C1870 C1845 1.553 . S
C1870 C1869 1.365 . S
C1870 C1871 1.404 . S
C1871 C1870 1.404 . S
C1871 C1872 1.395 . S
C1871 C1882 1.451 . S
C1872 C1871 1.395 . S
C1872 C1873 1.322 . S
C1872 H1936 0.930 . S
C1873 C1872 1.322 . S
C1873 C1874 1.459 . S
C1873 H1937 0.929 . S
C1874 C1873 1.459 . S
C1874 C1875 1.445 . S
C1874 C1883 1.395 . S
C1875 C1853 1.432 . S
C1875 C1874 1.445 . S
C1875 C1876 1.370 . S
C1876 C1875 1.370 . S
C1876 C1877 1.438 . S
C1876 H1938 0.930 . S
C1877 C1863 1.497 . S
C1877 C1876 1.438 . S
C1877 C1878 1.360 . S
C1878 C1877 1.360 . S
C1878 C1879 1.401 . S
C1878 C1883 1.446 . S
C1879 C1878 1.401 . S
C1879 C1880 1.347 . S
C1879 H1939 0.929 . S
C1880 C1879 1.347 . S
C1880 C1881 1.455 . S
C1880 H1940 0.930 . S
C1881 C1868 1.412 . S
C1881 C1880 1.455 . S
C1881 C1882 1.331 . S
C1882 C1871 1.451 . S
C1882 C1881 1.331 . S
C1882 C1883 1.497 . S
C1883 C1874 1.395 . S
C1883 C1878 1.446 . S
C1883 C1882 1.497 . S
C1884 C1885 1.582 . S
C1884 H1941 0.962 . S
C1884 H1942 0.959 . S
C1884 H1943 0.958 . S
C1885 C1884 1.582 . S
C1885 O1888 1.458 . S
C1885 H1914 0.980 . S
O1886 C1831 1.426 . S
O1886 C1832 1.334 . S
O1887 C1859 1.412 . S
O1887 C1860 1.393 . S
O1888 C1850 1.435 . S
O1888 C1885 1.458 . S
O1889 C1841 1.468 . S
O1889 C1842 1.408 . S
H1890 C1831 0.980 . S
H1891 C1830 0.959 . S
H1892 C1830 0.959 . S
H1893 C1830 0.960 . S
H1894 C1833 0.929 . S
H1895 C1837 0.929 . S
H1896 C1838 0.959 . S
H1897 C1838 0.961 . S
H1898 C1838 0.961 . S
H1899 C1839 0.960 . S
H1900 C1839 0.960 . S
H1901 C1839 0.961 . S
H1902 C1841 0.980 . S
H1903 C1840 0.961 . S
H1904 C1840 0.960 . S
H1905 C1840 0.959 . S
H1906 C1843 0.930 . S
H1907 C1847 0.931 . S
H1908 C1848 0.959 . S
H1909 C1848 0.961 . S
H1910 C1848 0.959 . S
H1911 C1849 0.960 . S
H1912 C1849 0.960 . S
H1913 C1849 0.960 . S
H1914 C1885 0.980 . S
H1915 C1851 0.930 . S
H1916 C1855 0.930 . S
H1917 C1856 0.961 . S
H1918 C1856 0.960 . S
H1919 C1856 0.958 . S
H1920 C1857 0.961 . S
H1921 C1857 0.960 . S
H1922 C1857 0.960 . S
H1923 C1859 0.980 . S
H1924 C1858 0.961 . S
H1925 C1858 0.961 . S
H1926 C1858 0.959 . S
H1927 C1861 0.932 . S
H1928 C1865 0.929 . S
H1929 C1866 0.961 . S
H1930 C1866 0.959 . S
H1931 C1866 0.959 . S
H1932 C1867 0.960 . S
H1933 C1867 0.962 . S
H1934 C1867 0.961 . S
H1935 C1869 0.929 . S
H1936 C1872 0.930 . S
H1937 C1873 0.929 . S
H1938 C1876 0.930 . S
H1939 C1879 0.929 . S
H1940 C1880 0.930 . S
H1941 C1884 0.962 . S
H1942 C1884 0.959 . S
H1943 C1884 0.958 . S
C1944 C1945 1.560 . S
C1944 H2005 0.959 . S
C1944 H2006 0.959 . S
C1944 H2007 0.960 . S
C1945 C1944 1.560 . S
C1945 O2000 1.426 . S
C1945 H2004 0.980 . S
C1946 C1947 1.407 . S
C1946 C1951 1.418 . S
C1946 O2000 1.334 . S
C1947 C1946 1.407 . S
C1947 C1948 1.360 . S
C1947 H2008 0.929 . S
C1948 C1947 1.360 . S
C1948 C1949 1.401 . S
C1948 C1952 1.527 . S
C1949 C1948 1.401 . S
C1949 C1950 1.405 . S
C1949 C1982 1.587 . S
C1950 C1949 1.405 . S
C1950 C1951 1.332 . S
C1950 C1953 1.496 . S
C1951 C1946 1.418 . S
C1951 C1950 1.332 . S
C1951 H2009 0.929 . S
C1952 C1948 1.527 . S
C1952 H2010 0.959 . S
C1952 H2011 0.961 . S
C1952 H2012 0.961 . S
C1953 C1950 1.496 . S
C1953 H2013 0.960 . S
C1953 H2014 0.960 . S
C1953 H2015 0.961 . S
C1954 C1955 1.517 . S
C1954 H2017 0.961 . S
C1954 H2018 0.960 . S
C1954 H2019 0.959 . S
C1955 C1954 1.517 . S
C1955 O2003 1.468 . S
C1955 H2016 0.980 . S
C1956 C1957 1.349 . S
C1956 C1961 1.367 . S
C1956 O2003 1.408 . S
C1957 C1956 1.349 . S
C1957 C1958 1.407 . S
C1957 H2020 0.930 . S
C1958 C1957 1.407 . S
C1958 C1959 1.449 . S
C1958 C1962 1.535 . S
C1959 C1958 1.449 . S
C1959 C1960 1.384 . S
C1959 C1984 1.553 . S
C1960 C1959 1.384 . S
C1960 C1961 1.364 . S
C1960 C1963 1.450 . S
C1961 C1956 1.367 . S
C1961 C1960 1.364 . S
C1961 H2021 0.931 . S
C1962 C1958 1.535 . S
C1962 H2022 0.959 . S
C1962 H2023 0.961 . S
C1962 H2024 0.959 . S
C1963 C1960 1.450 . S
C1963 H2025 0.960 . S
C1963 H2026 0.960 . S
C1963 H2027 0.960 . S
C1964 C1965 1.309 . S
C1964 C1969 1.304 . S
C1964 O2002 1.435 . S
C1965 C1964 1.309 . S
C1965 C1966 1.476 . S
C1965 H2029 0.930 . S
C1966 C1965 1.476 . S
C1966 C1967 1.400 . S
C1966 C1970 1.567 . S
C1967 C1966 1.400 . S
C1967 C1968 1.373 . S
C1967 C1989 1.432 . S
C1968 C1967 1.373 . S
C1968 C1969 1.339 . S
C1968 C1971 1.530 . S
C1969 C1964 1.304 . S
C1969 C1968 1.339 . S
C1969 H2030 0.930 . S
C1970 C1966 1.567 . S
C1970 H2031 0.961 . S
C1970 H2032 0.960 . S
C1970 H2033 0.958 . S
C1971 C1968 1.530 . S
C1971 H2034 0.961 . S
C1971 H2035 0.960 . S
C1971 H2036 0.960 . S
C1972 C1973 1.530 . S
C1972 H2038 0.961 . S
C1972 H2039 0.961 . S
C1972 H2040 0.959 . S
C1973 C1972 1.530 . S
C1973 O2001 1.412 . S
C1973 H2037 0.980 . S
C1974 C1975 1.288 . S
C1974 C1979 1.377 . S
C1974 O2001 1.393 . S
C1975 C1974 1.288 . S
C1975 C1976 1.369 . S
C1975 H2041 0.932 . S
C1976 C1975 1.369 . S
C1976 C1977 1.398 . S
C1976 C1980 1.527 . S
C1977 C1976 1.398 . S
C1977 C1978 1.380 . S
C1977 C1991 1.497 . S
C1978 C1977 1.380 . S
C1978 C1979 1.383 . S
C1978 C1981 1.603 . S
C1979 C1974 1.377 . S
C1979 C1978 1.383 . S
C1979 H2042 0.929 . S
C1980 C1976 1.527 . S
C1980 H2043 0.961 . S
C1980 H2044 0.959 . S
C1980 H2045 0.959 . S
C1981 C1978 1.603 . S
C1981 H2046 0.960 . S
C1981 H2047 0.962 . S
C1981 H2048 0.961 . S
C1982 C1949 1.587 . S
C1982 C1983 1.360 . S
C1982 C1995 1.412 . S
C1983 C1982 1.360 . S
C1983 C1984 1.365 . S
C1983 H2049 0.929 . S
C1984 C1959 1.553 . S
C1984 C1983 1.365 . S
C1984 C1985 1.404 . S
C1985 C1984 1.404 . S
C1985 C1986 1.395 . S
C1985 C1996 1.451 . S
C1986 C1985 1.395 . S
C1986 C1987 1.322 . S
C1986 H2050 0.930 . S
C1987 C1986 1.322 . S
C1987 C1988 1.459 . S
C1987 H2051 0.929 . S
C1988 C1987 1.459 . S
C1988 C1989 1.445 . S
C1988 C1997 1.395 . S
C1989 C1967 1.432 . S
C1989 C1988 1.445 . S
C1989 C1990 1.370 . S
C1990 C1989 1.370 . S
C1990 C1991 1.438 . S
C1990 H2052 0.930 . S
C1991 C1977 1.497 . S
C1991 C1990 1.438 . S
C1991 C1992 1.360 . S
C1992 C1991 1.360 . S
C1992 C1993 1.401 . S
C1992 C1997 1.446 . S
C1993 C1992 1.401 . S
C1993 C1994 1.347 . S
C1993 H2053 0.929 . S
C1994 C1993 1.347 . S
C1994 C1995 1.455 . S
C1994 H2054 0.930 . S
C1995 C1982 1.412 . S
C1995 C1994 1.455 . S
C1995 C1996 1.331 . S
C1996 C1985 1.451 . S
C1996 C1995 1.331 . S
C1996 C1997 1.497 . S
C1997 C1988 1.395 . S
C1997 C1992 1.446 . S
C1997 C1996 1.497 . S
C1998 C1999 1.582 . S
C1998 H2055 0.962 . S
C1998 H2056 0.959 . S
C1998 H2057 0.958 . S
C1999 C1998 1.582 . S
C1999 O2002 1.458 . S
C1999 H2028 0.980 . S
O2000 C1945 1.426 . S
O2000 C1946 1.334 . S
O2001 C1973 1.412 . S
O2001 C1974 1.393 . S
O2002 C1964 1.435 . S
O2002 C1999 1.458 . S
O2003 C1955 1.468 . S
O2003 C1956 1.408 . S
H2004 C1945 0.980 . S
H2005 C1944 0.959 . S
H2006 C1944 0.959 . S
H2007 C1944 0.960 . S
H2008 C1947 0.929 . S
H2009 C1951 0.929 . S
H2010 C1952 0.959 . S
H2011 C1952 0.961 . S
H2012 C1952 0.961 . S
H2013 C1953 0.960 . S
H2014 C1953 0.960 . S
H2015 C1953 0.961 . S
H2016 C1955 0.980 . S
H2017 C1954 0.961 . S
H2018 C1954 0.960 . S
H2019 C1954 0.959 . S
H2020 C1957 0.930 . S
H2021 C1961 0.931 . S
H2022 C1962 0.959 . S
H2023 C1962 0.961 . S
H2024 C1962 0.959 . S
H2025 C1963 0.960 . S
H2026 C1963 0.960 . S
H2027 C1963 0.960 . S
H2028 C1999 0.980 . S
H2029 C1965 0.930 . S
H2030 C1969 0.930 . S
H2031 C1970 0.961 . S
H2032 C1970 0.960 . S
H2033 C1970 0.958 . S
H2034 C1971 0.961 . S
H2035 C1971 0.960 . S
H2036 C1971 0.960 . S
H2037 C1973 0.980 . S
H2038 C1972 0.961 . S
H2039 C1972 0.961 . S
H2040 C1972 0.959 . S
H2041 C1975 0.932 . S
H2042 C1979 0.929 . S
H2043 C1980 0.961 . S
H2044 C1980 0.959 . S
H2045 C1980 0.959 . S
H2046 C1981 0.960 . S
H2047 C1981 0.962 . S
H2048 C1981 0.961 . S
H2049 C1983 0.929 . S
H2050 C1986 0.930 . S
H2051 C1987 0.929 . S
H2052 C1990 0.930 . S
H2053 C1993 0.929 . S
H2054 C1994 0.930 . S
H2055 C1998 0.962 . S
H2056 C1998 0.959 . S
H2057 C1998 0.958 . S
C2058 C2059 1.560 . S
C2058 H2119 0.959 . S
C2058 H2120 0.959 . S
C2058 H2121 0.960 . S
C2059 C2058 1.560 . S
C2059 O2114 1.426 . S
C2059 H2118 0.980 . S
C2060 C2061 1.407 . S
C2060 C2065 1.418 . S
C2060 O2114 1.334 . S
C2061 C2060 1.407 . S
C2061 C2062 1.360 . S
C2061 H2122 0.929 . S
C2062 C2061 1.360 . S
C2062 C2063 1.401 . S
C2062 C2066 1.527 . S
C2063 C2062 1.401 . S
C2063 C2064 1.405 . S
C2063 C2096 1.587 . S
C2064 C2063 1.405 . S
C2064 C2065 1.332 . S
C2064 C2067 1.496 . S
C2065 C2060 1.418 . S
C2065 C2064 1.332 . S
C2065 H2123 0.929 . S
C2066 C2062 1.527 . S
C2066 H2124 0.959 . S
C2066 H2125 0.961 . S
C2066 H2126 0.961 . S
C2067 C2064 1.496 . S
C2067 H2127 0.960 . S
C2067 H2128 0.960 . S
C2067 H2129 0.961 . S
C2068 C2069 1.517 . S
C2068 H2131 0.961 . S
C2068 H2132 0.960 . S
C2068 H2133 0.959 . S
C2069 C2068 1.517 . S
C2069 O2117 1.468 . S
C2069 H2130 0.980 . S
C2070 C2071 1.349 . S
C2070 C2075 1.367 . S
C2070 O2117 1.408 . S
C2071 C2070 1.349 . S
C2071 C2072 1.407 . S
C2071 H2134 0.930 . S
C2072 C2071 1.407 . S
C2072 C2073 1.449 . S
C2072 C2076 1.535 . S
C2073 C2072 1.449 . S
C2073 C2074 1.384 . S
C2073 C2098 1.553 . S
C2074 C2073 1.384 . S
C2074 C2075 1.364 . S
C2074 C2077 1.450 . S
C2075 C2070 1.367 . S
C2075 C2074 1.364 . S
C2075 H2135 0.931 . S
C2076 C2072 1.535 . S
C2076 H2136 0.959 . S
C2076 H2137 0.961 . S
C2076 H2138 0.959 . S
C2077 C2074 1.450 . S
C2077 H2139 0.960 . S
C2077 H2140 0.960 . S
C2077 H2141 0.960 . S
C2078 C2079 1.309 . S
C2078 C2083 1.304 . S
C2078 O2116 1.435 . S
C2079 C2078 1.309 . S
C2079 C2080 1.476 . S
C2079 H2143 0.930 . S
C2080 C2079 1.476 . S
C2080 C2081 1.400 . S
C2080 C2084 1.567 . S
C2081 C2080 1.400 . S
C2081 C2082 1.373 . S
C2081 C2103 1.432 . S
C2082 C2081 1.373 . S
C2082 C2083 1.339 . S
C2082 C2085 1.530 . S
C2083 C2078 1.304 . S
C2083 C2082 1.339 . S
C2083 H2144 0.930 . S
C2084 C2080 1.567 . S
C2084 H2145 0.961 . S
C2084 H2146 0.960 . S
C2084 H2147 0.958 . S
C2085 C2082 1.530 . S
C2085 H2148 0.961 . S
C2085 H2149 0.960 . S
C2085 H2150 0.960 . S
C2086 C2087 1.530 . S
C2086 H2152 0.961 . S
C2086 H2153 0.961 . S
C2086 H2154 0.959 . S
C2087 C2086 1.530 . S
C2087 O2115 1.412 . S
C2087 H2151 0.980 . S
C2088 C2089 1.288 . S
C2088 C2093 1.377 . S
C2088 O2115 1.393 . S
C2089 C2088 1.288 . S
C2089 C2090 1.369 . S
C2089 H2155 0.932 . S
C2090 C2089 1.369 . S
C2090 C2091 1.398 . S
C2090 C2094 1.527 . S
C2091 C2090 1.398 . S
C2091 C2092 1.380 . S
C2091 C2105 1.497 . S
C2092 C2091 1.380 . S
C2092 C2093 1.383 . S
C2092 C2095 1.603 . S
C2093 C2088 1.377 . S
C2093 C2092 1.383 . S
C2093 H2156 0.929 . S
C2094 C2090 1.527 . S
C2094 H2157 0.961 . S
C2094 H2158 0.959 . S
C2094 H2159 0.959 . S
C2095 C2092 1.603 . S
C2095 H2160 0.960 . S
C2095 H2161 0.962 . S
C2095 H2162 0.961 . S
C2096 C2063 1.587 . S
C2096 C2097 1.360 . S
C2096 C2109 1.412 . S
C2097 C2096 1.360 . S
C2097 C2098 1.365 . S
C2097 H2163 0.929 . S
C2098 C2073 1.553 . S
C2098 C2097 1.365 . S
C2098 C2099 1.404 . S
C2099 C2098 1.404 . S
C2099 C2100 1.395 . S
C2099 C2110 1.451 . S
C2100 C2099 1.395 . S
C2100 C2101 1.322 . S
C2100 H2164 0.930 . S
C2101 C2100 1.322 . S
C2101 C2102 1.459 . S
C2101 H2165 0.929 . S
C2102 C2101 1.459 . S
C2102 C2103 1.445 . S
C2102 C2111 1.395 . S
C2103 C2081 1.432 . S
C2103 C2102 1.445 . S
C2103 C2104 1.370 . S
C2104 C2103 1.370 . S
C2104 C2105 1.438 . S
C2104 H2166 0.930 . S
C2105 C2091 1.497 . S
C2105 C2104 1.438 . S
C2105 C2106 1.360 . S
C2106 C2105 1.360 . S
C2106 C2107 1.401 . S
C2106 C2111 1.446 . S
C2107 C2106 1.401 . S
C2107 C2108 1.347 . S
C2107 H2167 0.929 . S
C2108 C2107 1.347 . S
C2108 C2109 1.455 . S
C2108 H2168 0.930 . S
C2109 C2096 1.412 . S
C2109 C2108 1.455 . S
C2109 C2110 1.331 . S
C2110 C2099 1.451 . S
C2110 C2109 1.331 . S
C2110 C2111 1.497 . S
C2111 C2102 1.395 . S
C2111 C2106 1.446 . S
C2111 C2110 1.497 . S
C2112 C2113 1.582 . S
C2112 H2169 0.962 . S
C2112 H2170 0.959 . S
C2112 H2171 0.958 . S
C2113 C2112 1.582 . S
C2113 O2116 1.458 . S
C2113 H2142 0.980 . S
O2114 C2059 1.426 . S
O2114 C2060 1.334 . S
O2115 C2087 1.412 . S
O2115 C2088 1.393 . S
O2116 C2078 1.435 . S
O2116 C2113 1.458 . S
O2117 C2069 1.468 . S
O2117 C2070 1.408 . S
H2118 C2059 0.980 . S
H2119 C2058 0.959 . S
H2120 C2058 0.959 . S
H2121 C2058 0.960 . S
H2122 C2061 0.929 . S
H2123 C2065 0.929 . S
H2124 C2066 0.959 . S
H2125 C2066 0.961 . S
H2126 C2066 0.961 . S
H2127 C2067 0.960 . S
H2128 C2067 0.960 . S
H2129 C2067 0.961 . S
H2130 C2069 0.980 . S
H2131 C2068 0.961 . S
H2132 C2068 0.960 . S
H2133 C2068 0.959 . S
H2134 C2071 0.930 . S
H2135 C2075 0.931 . S
H2136 C2076 0.959 . S
H2137 C2076 0.961 . S
H2138 C2076 0.959 . S
H2139 C2077 0.960 . S
H2140 C2077 0.960 . S
H2141 C2077 0.960 . S
H2142 C2113 0.980 . S
H2143 C2079 0.930 . S
H2144 C2083 0.930 . S
H2145 C2084 0.961 . S
H2146 C2084 0.960 . S
H2147 C2084 0.958 . S
H2148 C2085 0.961 . S
H2149 C2085 0.960 . S
H2150 C2085 0.960 . S
H2151 C2087 0.980 . S
H2152 C2086 0.961 . S
H2153 C2086 0.961 . S
H2154 C2086 0.959 . S
H2155 C2089 0.932 . S
H2156 C2093 0.929 . S
H2157 C2094 0.961 . S
H2158 C2094 0.959 . S
H2159 C2094 0.959 . S
H2160 C2095 0.960 . S
H2161 C2095 0.962 . S
H2162 C2095 0.961 . S
H2163 C2097 0.929 . S
H2164 C2100 0.930 . S
H2165 C2101 0.929 . S
H2166 C2104 0.930 . S
H2167 C2107 0.929 . S
H2168 C2108 0.930 . S
H2169 C2112 0.962 . S
H2170 C2112 0.959 . S
H2171 C2112 0.958 . S
C2172 C2173 1.560 . S
C2172 H2233 0.959 . S
C2172 H2234 0.959 . S
C2172 H2235 0.960 . S
C2173 C2172 1.560 . S
C2173 O2228 1.426 . S
C2173 H2232 0.980 . S
C2174 C2175 1.407 . S
C2174 C2179 1.418 . S
C2174 O2228 1.334 . S
C2175 C2174 1.407 . S
C2175 C2176 1.360 . S
C2175 H2236 0.929 . S
C2176 C2175 1.360 . S
C2176 C2177 1.401 . S
C2176 C2180 1.527 . S
C2177 C2176 1.401 . S
C2177 C2178 1.405 . S
C2177 C2210 1.587 . S
C2178 C2177 1.405 . S
C2178 C2179 1.332 . S
C2178 C2181 1.496 . S
C2179 C2174 1.418 . S
C2179 C2178 1.332 . S
C2179 H2237 0.929 . S
C2180 C2176 1.527 . S
C2180 H2238 0.959 . S
C2180 H2239 0.961 . S
C2180 H2240 0.961 . S
C2181 C2178 1.496 . S
C2181 H2241 0.960 . S
C2181 H2242 0.960 . S
C2181 H2243 0.961 . S
C2182 C2183 1.517 . S
C2182 H2245 0.961 . S
C2182 H2246 0.960 . S
C2182 H2247 0.959 . S
C2183 C2182 1.517 . S
C2183 O2231 1.468 . S
C2183 H2244 0.980 . S
C2184 C2185 1.349 . S
C2184 C2189 1.367 . S
C2184 O2231 1.408 . S
C2185 C2184 1.349 . S
C2185 C2186 1.407 . S
C2185 H2248 0.930 . S
C2186 C2185 1.407 . S
C2186 C2187 1.449 . S
C2186 C2190 1.535 . S
C2187 C2186 1.449 . S
C2187 C2188 1.384 . S
C2187 C2212 1.553 . S
C2188 C2187 1.384 . S
C2188 C2189 1.364 . S
C2188 C2191 1.450 . S
C2189 C2184 1.367 . S
C2189 C2188 1.364 . S
C2189 H2249 0.931 . S
C2190 C2186 1.535 . S
C2190 H2250 0.959 . S
C2190 H2251 0.961 . S
C2190 H2252 0.959 . S
C2191 C2188 1.450 . S
C2191 H2253 0.960 . S
C2191 H2254 0.960 . S
C2191 H2255 0.960 . S
C2192 C2193 1.309 . S
C2192 C2197 1.304 . S
C2192 O2230 1.435 . S
C2193 C2192 1.309 . S
C2193 C2194 1.476 . S
C2193 H2257 0.930 . S
C2194 C2193 1.476 . S
C2194 C2195 1.400 . S
C2194 C2198 1.567 . S
C2195 C2194 1.400 . S
C2195 C2196 1.373 . S
C2195 C2217 1.432 . S
C2196 C2195 1.373 . S
C2196 C2197 1.339 . S
C2196 C2199 1.530 . S
C2197 C2192 1.304 . S
C2197 C2196 1.339 . S
C2197 H2258 0.930 . S
C2198 C2194 1.567 . S
C2198 H2259 0.961 . S
C2198 H2260 0.960 . S
C2198 H2261 0.958 . S
C2199 C2196 1.530 . S
C2199 H2262 0.961 . S
C2199 H2263 0.960 . S
C2199 H2264 0.960 . S
C2200 C2201 1.530 . S
C2200 H2266 0.961 . S
C2200 H2267 0.961 . S
C2200 H2268 0.959 . S
C2201 C2200 1.530 . S
C2201 O2229 1.412 . S
C2201 H2265 0.980 . S
C2202 C2203 1.288 . S
C2202 C2207 1.377 . S
C2202 O2229 1.393 . S
C2203 C2202 1.288 . S
C2203 C2204 1.369 . S
C2203 H2269 0.932 . S
C2204 C2203 1.369 . S
C2204 C2205 1.398 . S
C2204 C2208 1.527 . S
C2205 C2204 1.398 . S
C2205 C2206 1.380 . S
C2205 C2219 1.497 . S
C2206 C2205 1.380 . S
C2206 C2207 1.383 . S
C2206 C2209 1.603 . S
C2207 C2202 1.377 . S
C2207 C2206 1.383 . S
C2207 H2270 0.929 . S
C2208 C2204 1.527 . S
C2208 H2271 0.961 . S
C2208 H2272 0.959 . S
C2208 H2273 0.959 . S
C2209 C2206 1.603 . S
C2209 H2274 0.960 . S
C2209 H2275 0.962 . S
C2209 H2276 0.961 . S
C2210 C2177 1.587 . S
C2210 C2211 1.360 . S
C2210 C2223 1.412 . S
C2211 C2210 1.360 . S
C2211 C2212 1.365 . S
C2211 H2277 0.929 . S
C2212 C2187 1.553 . S
C2212 C2211 1.365 . S
C2212 C2213 1.404 . S
C2213 C2212 1.404 . S
C2213 C2214 1.395 . S
C2213 C2224 1.451 . S
C2214 C2213 1.395 . S
C2214 C2215 1.322 . S
C2214 H2278 0.930 . S
C2215 C2214 1.322 . S
C2215 C2216 1.459 . S
C2215 H2279 0.929 . S
C2216 C2215 1.459 . S
C2216 C2217 1.445 . S
C2216 C2225 1.395 . S
C2217 C2195 1.432 . S
C2217 C2216 1.445 . S
C2217 C2218 1.370 . S
C2218 C2217 1.370 . S
C2218 C2219 1.438 . S
C2218 H2280 0.930 . S
C2219 C2205 1.497 . S
C2219 C2218 1.438 . S
C2219 C2220 1.360 . S
C2220 C2219 1.360 . S
C2220 C2221 1.401 . S
C2220 C2225 1.446 . S
C2221 C2220 1.401 . S
C2221 C2222 1.347 . S
C2221 H2281 0.929 . S
C2222 C2221 1.347 . S
C2222 C2223 1.455 . S
C2222 H2282 0.930 . S
C2223 C2210 1.412 . S
C2223 C2222 1.455 . S
C2223 C2224 1.331 . S
C2224 C2213 1.451 . S
C2224 C2223 1.331 . S
C2224 C2225 1.497 . S
C2225 C2216 1.395 . S
C2225 C2220 1.446 . S
C2225 C2224 1.497 . S
C2226 C2227 1.582 . S
C2226 H2283 0.962 . S
C2226 H2284 0.959 . S
C2226 H2285 0.958 . S
C2227 C2226 1.582 . S
C2227 O2230 1.458 . S
C2227 H2256 0.980 . S
O2228 C2173 1.426 . S
O2228 C2174 1.334 . S
O2229 C2201 1.412 . S
O2229 C2202 1.393 . S
O2230 C2192 1.435 . S
O2230 C2227 1.458 . S
O2231 C2183 1.468 . S
O2231 C2184 1.408 . S
H2232 C2173 0.980 . S
H2233 C2172 0.959 . S
H2234 C2172 0.959 . S
H2235 C2172 0.960 . S
H2236 C2175 0.929 . S
H2237 C2179 0.929 . S
H2238 C2180 0.959 . S
H2239 C2180 0.961 . S
H2240 C2180 0.961 . S
H2241 C2181 0.960 . S
H2242 C2181 0.960 . S
H2243 C2181 0.961 . S
H2244 C2183 0.980 . S
H2245 C2182 0.961 . S
H2246 C2182 0.960 . S
H2247 C2182 0.959 . S
H2248 C2185 0.930 . S
H2249 C2189 0.931 . S
H2250 C2190 0.959 . S
H2251 C2190 0.961 . S
H2252 C2190 0.959 . S
H2253 C2191 0.960 . S
H2254 C2191 0.960 . S
H2255 C2191 0.960 . S
H2256 C2227 0.980 . S
H2257 C2193 0.930 . S
H2258 C2197 0.930 . S
H2259 C2198 0.961 . S
H2260 C2198 0.960 . S
H2261 C2198 0.958 . S
H2262 C2199 0.961 . S
H2263 C2199 0.960 . S
H2264 C2199 0.960 . S
H2265 C2201 0.980 . S
H2266 C2200 0.961 . S
H2267 C2200 0.961 . S
H2268 C2200 0.959 . S
H2269 C2203 0.932 . S
H2270 C2207 0.929 . S
H2271 C2208 0.961 . S
H2272 C2208 0.959 . S
H2273 C2208 0.959 . S
H2274 C2209 0.960 . S
H2275 C2209 0.962 . S
H2276 C2209 0.961 . S
H2277 C2211 0.929 . S
H2278 C2214 0.930 . S
H2279 C2215 0.929 . S
H2280 C2218 0.930 . S
H2281 C2221 0.929 . S
H2282 C2222 0.930 . S
H2283 C2226 0.962 . S
H2284 C2226 0.959 . S
H2285 C2226 0.958 . S
H2286 C2304 0.951 . S
H2287 C2306 0.951 . S
H2288 C2308 0.950 . S
H2289 C2309 0.950 . S
H2290 C2311 0.950 . S
H2291 C2314 0.950 . S
H2292 C2315 0.950 . S
H2293 C2317 0.950 . S
H2294 C2318 0.950 . S
H2295 C2319 0.951 . S
H2296 C2321 0.951 . S
H2297 C2323 0.950 . S
H2298 C2324 0.950 . S
H2299 C2326 0.950 . S
H2300 C2329 0.950 . S
H2301 C2330 0.950 . S
H2302 C2332 0.950 . S
H2303 C2333 0.950 . S
C2304 H2286 0.951 . S
C2304 C2305 1.366 . S
C2304 C2306 1.388 . S
C2305 C2304 1.366 . S
C2305 C2309 1.385 1_655 S
C2306 H2287 0.951 . S
C2306 C2304 1.388 . S
C2306 C2307 1.366 . S
C2307 C2306 1.366 . S
C2307 C2308 1.414 1_655 S
C2307 C2310 1.499 . S
C2308 H2288 0.950 . S
C2308 C2307 1.414 1_455 S
C2308 C2309 1.374 . S
C2309 H2289 0.950 . S
C2309 C2305 1.385 1_455 S
C2309 C2308 1.374 . S
C2310 C2307 1.499 . S
C2310 C2311 1.373 1_655 S
C2310 C2312 1.389 . S
C2311 H2290 0.950 . S
C2311 C2310 1.373 1_455 S
C2311 C2327 1.377 . S
C2312 C2310 1.389 . S
C2312 C2313 1.524 . S
C2312 C2326 1.377 . S
C2313 C2312 1.524 . S
C2313 C2314 1.397 . S
C2313 C2318 1.363 . S
C2314 H2291 0.950 . S
C2314 C2313 1.397 . S
C2314 C2315 1.334 . S
C2315 H2292 0.950 . S
C2315 C2314 1.334 . S
C2315 C2316 1.287 . S
C2316 C2315 1.287 . S
C2316 C2317 1.524 . S
C2316 H2335 0.913 . S
C2317 H2293 0.950 . S
C2317 C2316 1.524 . S
C2317 C2318 1.415 . S
C2318 H2294 0.950 . S
C2318 C2313 1.363 . S
C2318 C2317 1.415 . S
C2319 H2295 0.951 . S
C2319 C2320 1.366 1_455 S
C2319 C2321 1.388 . S
C2320 C2319 1.366 1_655 S
C2320 C2324 1.385 . S
C2321 H2296 0.951 . S
C2321 C2319 1.388 . S
C2321 C2322 1.366 1_455 S
C2322 C2321 1.366 1_655 S
C2322 C2323 1.414 . S
C2322 C2325 1.499 . S
C2323 H2297 0.950 . S
C2323 C2322 1.414 . S
C2323 C2324 1.374 . S
C2324 H2298 0.950 . S
C2324 C2320 1.385 . S
C2324 C2323 1.374 . S
C2325 C2322 1.499 . S
C2325 C2326 1.373 . S
C2325 C2327 1.389 1_655 S
C2326 H2299 0.950 . S
C2326 C2312 1.377 . S
C2326 C2325 1.373 . S
C2327 C2311 1.377 . S
C2327 C2325 1.389 1_455 S
C2327 C2328 1.524 . S
C2328 C2327 1.524 . S
C2328 C2329 1.397 . S
C2328 C2333 1.363 . S
C2329 H2300 0.950 . S
C2329 C2328 1.397 . S
C2329 C2330 1.334 . S
C2330 H2301 0.950 . S
C2330 C2329 1.334 . S
C2330 C2331 1.287 . S
C2331 C2330 1.287 . S
C2331 C2332 1.524 . S
C2331 H2334 0.999 . S
C2332 H2302 0.950 . S
C2332 C2331 1.524 . S
C2332 C2333 1.415 . S
C2333 H2303 0.950 . S
C2333 C2328 1.363 . S
C2333 C2332 1.415 . S
H2334 C2331 0.999 . S
H2335 C2316 0.913 . S
H2336 C2354 0.951 . S
H2337 C2356 0.951 . S
H2338 C2358 0.950 . S
H2339 C2359 0.950 . S
H2340 C2361 0.950 . S
H2341 C2364 0.950 . S
H2342 C2365 0.950 . S
H2343 C2367 0.950 . S
H2344 C2368 0.950 . S
H2345 C2369 0.951 . S
H2346 C2371 0.951 . S
H2347 C2373 0.950 . S
H2348 C2374 0.950 . S
H2349 C2376 0.950 . S
H2350 C2379 0.950 . S
H2351 C2380 0.950 . S
H2352 C2382 0.950 . S
H2353 C2383 0.950 . S
C2354 H2336 0.951 . S
C2354 C2355 1.366 . S
C2354 C2356 1.388 . S
C2355 C2354 1.366 . S
C2355 C2359 1.385 . S
C2356 H2337 0.951 . S
C2356 C2354 1.388 . S
C2356 C2357 1.366 . S
C2357 C2356 1.366 . S
C2357 C2358 1.414 . S
C2357 C2360 1.499 . S
C2358 H2338 0.950 . S
C2358 C2357 1.414 . S
C2358 C2359 1.374 . S
C2359 H2339 0.950 . S
C2359 C2355 1.385 . S
C2359 C2358 1.374 . S
C2360 C2357 1.499 . S
C2360 C2361 1.373 . S
C2360 C2362 1.389 . S
C2361 H2340 0.950 . S
C2361 C2360 1.373 . S
C2361 C2377 1.377 . S
C2362 C2360 1.389 . S
C2362 C2363 1.524 . S
C2362 C2376 1.377 . S
C2363 C2362 1.524 . S
C2363 C2364 1.397 . S
C2363 C2368 1.363 . S
C2364 H2341 0.950 . S
C2364 C2363 1.397 . S
C2364 C2365 1.334 . S
C2365 H2342 0.950 . S
C2365 C2364 1.334 . S
C2365 C2366 1.287 . S
C2366 C2365 1.287 . S
C2366 C2367 1.524 . S
C2366 H2385 0.913 . S
C2367 H2343 0.950 . S
C2367 C2366 1.524 . S
C2367 C2368 1.415 . S
C2368 H2344 0.950 . S
C2368 C2363 1.363 . S
C2368 C2367 1.415 . S
C2369 H2345 0.951 . S
C2369 C2370 1.366 . S
C2369 C2371 1.388 . S
C2370 C2369 1.366 . S
C2370 C2374 1.385 . S
C2371 H2346 0.951 . S
C2371 C2369 1.388 . S
C2371 C2372 1.366 . S
C2372 C2371 1.366 . S
C2372 C2373 1.414 . S
C2372 C2375 1.499 . S
C2373 H2347 0.950 . S
C2373 C2372 1.414 . S
C2373 C2374 1.374 . S
C2374 H2348 0.950 . S
C2374 C2370 1.385 . S
C2374 C2373 1.374 . S
C2375 C2372 1.499 . S
C2375 C2376 1.373 . S
C2375 C2377 1.389 . S
C2376 H2349 0.950 . S
C2376 C2362 1.377 . S
C2376 C2375 1.373 . S
C2377 C2361 1.377 . S
C2377 C2375 1.389 . S
C2377 C2378 1.524 . S
C2378 C2377 1.524 . S
C2378 C2379 1.397 . S
C2378 C2383 1.363 . S
C2379 H2350 0.950 . S
C2379 C2378 1.397 . S
C2379 C2380 1.334 . S
C2380 H2351 0.950 . S
C2380 C2379 1.334 . S
C2380 C2381 1.287 . S
C2381 C2380 1.287 . S
C2381 C2382 1.524 . S
C2381 H2384 0.999 . S
C2382 H2352 0.950 . S
C2382 C2381 1.524 . S
C2382 C2383 1.415 . S
C2383 H2353 0.950 . S
C2383 C2378 1.363 . S
C2383 C2382 1.415 . S
H2384 C2381 0.999 . S
H2385 C2366 0.913 . S
H2386 C2404 0.951 . S
H2387 C2406 0.951 . S
H2388 C2408 0.950 . S
H2389 C2409 0.950 . S
H2390 C2411 0.950 . S
H2391 C2414 0.924 1_545 S
H2392 C2415 0.950 . S
H2393 C2417 0.950 . S
H2394 C2418 0.950 . S
H2395 C2419 0.951 . S
H2396 C2421 0.951 . S
H2397 C2423 0.950 1_565 S
H2398 C2424 0.943 1_565 S
H2399 C2426 0.950 1_565 S
H2400 C2429 0.950 . S
H2401 C2430 0.950 . S
H2402 C2432 0.950 . S
H2403 C2433 0.950 . S
C2404 H2386 0.951 . S
C2404 C2405 1.366 . S
C2404 C2406 1.388 . S
C2405 C2404 1.366 . S
C2405 C2409 1.385 . S
C2406 H2387 0.951 . S
C2406 C2404 1.388 . S
C2406 C2407 1.366 . S
C2407 C2406 1.366 . S
C2407 C2408 1.414 . S
C2407 C2410 1.499 . S
C2408 H2388 0.950 . S
C2408 C2407 1.414 . S
C2408 C2409 1.374 . S
C2409 H2389 0.950 . S
C2409 C2405 1.385 . S
C2409 C2408 1.374 . S
C2410 C2407 1.499 . S
C2410 C2411 1.373 . S
C2410 C2412 1.389 . S
C2411 H2390 0.950 . S
C2411 C2410 1.373 . S
C2411 C2427 1.377 . S
C2412 C2410 1.389 . S
C2412 C2413 1.524 1_545 S
C2412 C2426 1.377 . S
C2413 C2412 1.524 1_565 S
C2413 C2414 1.397 . S
C2413 C2418 1.363 . S
C2414 H2391 0.924 1_565 S
C2414 C2413 1.397 . S
C2414 C2415 1.334 . S
C2415 H2392 0.950 . S
C2415 C2414 1.334 . S
C2415 C2416 1.287 . S
C2416 C2415 1.287 . S
C2416 C2417 1.524 . S
C2416 H2435 0.913 . S
C2417 H2393 0.950 . S
C2417 C2416 1.524 . S
C2417 C2418 1.415 . S
C2418 H2394 0.950 . S
C2418 C2413 1.363 . S
C2418 C2417 1.415 . S
C2419 H2395 0.951 . S
C2419 C2420 1.366 . S
C2419 C2421 1.388 . S
C2420 C2419 1.366 . S
C2420 C2424 1.388 . S
C2421 H2396 0.951 . S
C2421 C2419 1.388 . S
C2421 C2422 1.366 . S
C2422 C2421 1.366 . S
C2422 C2423 1.414 . S
C2422 C2425 1.499 . S
C2423 H2397 0.950 1_545 S
C2423 C2422 1.414 . S
C2423 C2424 1.377 . S
C2424 H2398 0.943 1_545 S
C2424 C2420 1.388 . S
C2424 C2423 1.377 . S
C2425 C2422 1.499 . S
C2425 C2426 1.373 . S
C2425 C2427 1.389 . S
C2426 H2399 0.950 1_545 S
C2426 C2412 1.377 . S
C2426 C2425 1.373 . S
C2427 C2411 1.377 . S
C2427 C2425 1.389 . S
C2427 C2428 1.524 . S
C2428 C2427 1.524 . S
C2428 C2429 1.397 . S
C2428 C2433 1.363 . S
C2429 H2400 0.950 . S
C2429 C2428 1.397 . S
C2429 C2430 1.334 . S
C2430 H2401 0.950 . S
C2430 C2429 1.334 . S
C2430 C2431 1.287 . S
C2431 C2430 1.287 . S
C2431 C2432 1.524 . S
C2431 H2434 0.999 . S
C2432 H2402 0.950 . S
C2432 C2431 1.524 . S
C2432 C2433 1.415 . S
C2433 H2403 0.950 . S
C2433 C2428 1.363 . S
C2433 C2432 1.415 . S
H2434 C2431 0.999 . S
H2435 C2416 0.913 . S
H2436 C2454 0.951 . S
H2437 C2456 0.951 . S
H2438 C2458 0.950 . S
H2439 C2459 0.950 . S
H2440 C2461 0.950 . S
H2441 C2464 0.950 . S
H2442 C2465 0.950 . S
H2443 C2467 0.950 . S
H2444 C2468 0.932 1_545 S
H2445 C2469 0.951 . S
H2446 C2471 0.951 . S
H2447 C2473 0.950 . S
H2448 C2474 0.950 . S
H2449 C2476 0.950 . S
H2450 C2479 0.950 . S
H2451 C2480 0.950 . S
H2452 C2482 0.950 . S
H2453 C2483 0.950 1_565 S
C2454 H2436 0.951 . S
C2454 C2455 1.366 . S
C2454 C2456 1.388 . S
C2455 C2454 1.366 . S
C2455 C2459 1.385 1_545 S
C2456 H2437 0.951 . S
C2456 C2454 1.388 . S
C2456 C2457 1.282 1_545 S
C2457 C2456 1.282 1_565 S
C2457 C2458 1.459 . S
C2457 C2460 1.541 . S
C2458 H2438 0.950 . S
C2458 C2457 1.459 . S
C2458 C2459 1.374 . S
C2459 H2439 0.950 . S
C2459 C2455 1.385 1_565 S
C2459 C2458 1.374 . S
C2460 C2457 1.541 . S
C2460 C2461 1.373 1_565 S
C2460 C2462 1.389 . S
C2461 H2440 0.950 . S
C2461 C2460 1.373 1_545 S
C2461 C2477 1.377 . S
C2462 C2460 1.389 . S
C2462 C2463 1.524 . S
C2462 C2476 1.377 . S
C2463 C2462 1.524 . S
C2463 C2464 1.397 . S
C2463 C2468 1.363 . S
C2464 H2441 0.950 . S
C2464 C2463 1.397 . S
C2464 C2465 1.334 . S
C2465 H2442 0.950 . S
C2465 C2464 1.334 . S
C2465 C2466 1.287 . S
C2466 C2465 1.287 . S
C2466 C2467 1.524 . S
C2466 H2485 0.913 . S
C2467 H2443 0.950 . S
C2467 C2466 1.524 . S
C2467 C2468 1.415 . S
C2468 H2444 0.932 1_565 S
C2468 C2463 1.363 . S
C2468 C2467 1.415 . S
C2469 H2445 0.951 . S
C2469 C2470 1.366 . S
C2469 C2471 1.388 . S
C2470 C2469 1.366 . S
C2470 C2474 1.385 1_565 S
C2471 H2446 0.951 . S
C2471 C2469 1.388 . S
C2471 C2472 1.366 . S
C2472 C2471 1.366 . S
C2472 C2473 1.414 1_565 S
C2472 C2475 1.499 . S
C2473 H2447 0.950 . S
C2473 C2472 1.414 1_545 S
C2473 C2474 1.374 . S
C2474 H2448 0.950 . S
C2474 C2470 1.385 1_545 S
C2474 C2473 1.374 . S
C2475 C2472 1.499 . S
C2475 C2476 1.373 . S
C2475 C2477 1.389 1_565 S
C2476 H2449 0.950 . S
C2476 C2462 1.377 . S
C2476 C2475 1.373 . S
C2477 C2461 1.377 . S
C2477 C2475 1.389 1_545 S
C2477 C2478 1.524 . S
C2478 C2477 1.524 . S
C2478 C2479 1.397 . S
C2478 C2483 1.363 . S
C2479 H2450 0.950 . S
C2479 C2478 1.397 . S
C2479 C2480 1.334 . S
C2480 H2451 0.950 . S
C2480 C2479 1.334 . S
C2480 C2481 1.287 . S
C2481 C2480 1.287 . S
C2481 C2482 1.524 . S
C2481 H2484 0.999 . S
C2482 H2452 0.950 . S
C2482 C2481 1.524 . S
C2482 C2483 1.415 . S
C2483 H2453 0.950 1_545 S
C2483 C2478 1.363 . S
C2483 C2482 1.415 . S
H2484 C2481 0.999 . S
H2485 C2466 0.913 . S
H2486 C2504 0.951 . S
H2487 C2506 0.951 . S
H2488 C2508 0.950 1_655 S
H2489 C2509 0.950 1_655 S
H2490 C2511 0.950 1_655 S
H2491 C2514 0.950 . S
H2492 C2515 0.950 . S
H2493 C2517 0.950 . S
H2494 C2518 0.950 . S
H2495 C2519 0.951 . S
H2496 C2521 0.951 . S
H2497 C2523 0.950 . S
H2498 C2524 0.950 . S
H2499 C2526 0.950 . S
H2500 C2529 0.950 1_455 S
H2501 C2530 0.950 . S
H2502 C2532 0.950 . S
H2503 C2533 0.950 . S
C2504 H2486 0.951 . S
C2504 C2505 1.366 . S
C2504 C2506 1.388 . S
C2505 C2504 1.366 . S
C2505 C2509 1.385 . S
C2506 H2487 0.951 . S
C2506 C2504 1.388 . S
C2506 C2507 1.366 . S
C2507 C2506 1.366 . S
C2507 C2508 1.414 . S
C2507 C2510 1.499 . S
C2508 H2488 0.950 1_455 S
C2508 C2507 1.414 . S
C2508 C2509 1.374 . S
C2509 H2489 0.950 1_455 S
C2509 C2505 1.385 . S
C2509 C2508 1.374 . S
C2510 C2507 1.499 . S
C2510 C2511 1.373 . S
C2510 C2512 1.389 . S
C2511 H2490 0.950 1_455 S
C2511 C2510 1.373 . S
C2511 C2527 1.377 . S
C2512 C2510 1.389 . S
C2512 C2513 1.524 . S
C2512 C2526 1.377 . S
C2513 C2512 1.524 . S
C2513 C2514 1.397 . S
C2513 C2518 1.363 . S
C2514 H2491 0.950 . S
C2514 C2513 1.397 . S
C2514 C2515 1.334 . S
C2515 H2492 0.950 . S
C2515 C2514 1.334 . S
C2515 C2516 1.287 . S
C2516 C2515 1.287 . S
C2516 C2517 1.524 . S
C2516 H2535 0.913 . S
C2517 H2493 0.950 . S
C2517 C2516 1.524 . S
C2517 C2518 1.415 . S
C2518 H2494 0.950 . S
C2518 C2513 1.363 . S
C2518 C2517 1.415 . S
C2519 H2495 0.951 . S
C2519 C2520 1.366 1_655 S
C2519 C2521 1.388 . S
C2520 C2519 1.366 1_455 S
C2520 C2524 1.385 . S
C2521 H2496 0.951 . S
C2521 C2519 1.388 . S
C2521 C2522 1.366 1_655 S
C2522 C2521 1.366 1_455 S
C2522 C2523 1.414 . S
C2522 C2525 1.499 . S
C2523 H2497 0.950 . S
C2523 C2522 1.414 . S
C2523 C2524 1.374 . S
C2524 H2498 0.950 . S
C2524 C2520 1.385 . S
C2524 C2523 1.374 . S
C2525 C2522 1.499 . S
C2525 C2526 1.373 . S
C2525 C2527 1.389 . S
C2526 H2499 0.950 . S
C2526 C2512 1.377 . S
C2526 C2525 1.373 . S
C2527 C2511 1.377 . S
C2527 C2525 1.389 . S
C2527 C2528 1.524 1_455 S
C2528 C2527 1.524 1_655 S
C2528 C2529 1.397 . S
C2528 C2533 1.363 . S
C2529 H2500 0.950 1_655 S
C2529 C2528 1.397 . S
C2529 C2530 1.334 . S
C2530 H2501 0.950 . S
C2530 C2529 1.334 . S
C2530 C2531 1.287 . S
C2531 C2530 1.287 . S
C2531 C2532 1.524 . S
C2531 H2534 0.999 . S
C2532 H2502 0.950 . S
C2532 C2531 1.524 . S
C2532 C2533 1.415 . S
C2533 H2503 0.950 . S
C2533 C2528 1.363 . S
C2533 C2532 1.415 . S
H2534 C2531 0.999 . S
H2535 C2516 0.913 . S
H2536 C2554 0.951 . S
H2537 C2556 0.951 . S
H2538 C2558 0.950 . S
H2539 C2559 0.950 . S
H2540 C2561 0.950 . S
H2541 C2564 0.950 . S
H2542 C2565 0.950 . S
H2543 C2567 0.950 . S
H2544 C2568 0.950 . S
H2545 C2569 0.951 . S
H2546 C2571 0.951 . S
H2547 C2573 0.950 . S
H2548 C2574 0.950 . S
H2549 C2576 0.950 . S
H2550 C2579 0.950 . S
H2551 C2580 0.950 . S
H2552 C2582 0.950 . S
H2553 C2583 0.950 . S
C2554 H2536 0.951 . S
C2554 C2555 1.366 . S
C2554 C2556 1.388 . S
C2555 C2554 1.366 . S
C2555 C2559 1.385 . S
C2556 H2537 0.951 . S
C2556 C2554 1.388 . S
C2556 C2557 1.366 . S
C2557 C2556 1.366 . S
C2557 C2558 1.414 . S
C2557 C2560 1.499 . S
C2558 H2538 0.950 . S
C2558 C2557 1.414 . S
C2558 C2559 1.374 . S
C2559 H2539 0.950 . S
C2559 C2555 1.385 . S
C2559 C2558 1.374 . S
C2560 C2557 1.499 . S
C2560 C2561 1.373 . S
C2560 C2562 1.389 . S
C2561 H2540 0.950 . S
C2561 C2560 1.373 . S
C2561 C2577 1.377 . S
C2562 C2560 1.389 . S
C2562 C2563 1.524 . S
C2562 C2576 1.377 . S
C2563 C2562 1.524 . S
C2563 C2564 1.397 . S
C2563 C2568 1.363 . S
C2564 H2541 0.950 . S
C2564 C2563 1.397 . S
C2564 C2565 1.334 . S
C2565 H2542 0.950 . S
C2565 C2564 1.334 . S
C2565 C2566 1.287 . S
C2566 C2565 1.287 . S
C2566 C2567 1.524 . S
C2566 H2585 0.913 . S
C2567 H2543 0.950 . S
C2567 C2566 1.524 . S
C2567 C2568 1.415 . S
C2568 H2544 0.950 . S
C2568 C2563 1.363 . S
C2568 C2567 1.415 . S
C2569 H2545 0.951 . S
C2569 C2570 1.366 . S
C2569 C2571 1.388 . S
C2570 C2569 1.366 . S
C2570 C2574 1.385 . S
C2571 H2546 0.951 . S
C2571 C2569 1.388 . S
C2571 C2572 1.366 . S
C2572 C2571 1.366 . S
C2572 C2573 1.414 . S
C2572 C2575 1.499 . S
C2573 H2547 0.950 . S
C2573 C2572 1.414 . S
C2573 C2574 1.374 . S
C2574 H2548 0.950 . S
C2574 C2570 1.385 . S
C2574 C2573 1.374 . S
C2575 C2572 1.499 . S
C2575 C2576 1.373 . S
C2575 C2577 1.389 . S
C2576 H2549 0.950 . S
C2576 C2562 1.377 . S
C2576 C2575 1.373 . S
C2577 C2561 1.377 . S
C2577 C2575 1.389 . S
C2577 C2578 1.524 . S
C2578 C2577 1.524 . S
C2578 C2579 1.397 . S
C2578 C2583 1.363 . S
C2579 H2550 0.950 . S
C2579 C2578 1.397 . S
C2579 C2580 1.334 . S
C2580 H2551 0.950 . S
C2580 C2579 1.334 . S
C2580 C2581 1.287 . S
C2581 C2580 1.287 . S
C2581 C2582 1.524 . S
C2581 H2584 0.999 . S
C2582 H2552 0.950 . S
C2582 C2581 1.524 . S
C2582 C2583 1.415 . S
C2583 H2553 0.950 . S
C2583 C2578 1.363 . S
C2583 C2582 1.415 . S
H2584 C2581 0.999 . S
H2585 C2566 0.913 . S
H2586 C2604 0.951 . S
H2587 C2606 0.951 . S
H2588 C2608 0.950 . S
H2589 C2609 0.950 . S
H2590 C2611 0.950 . S
H2591 C2614 0.950 1_455 S
H2592 C2615 0.950 . S
H2593 C2617 0.950 . S
H2594 C2618 0.950 . S
H2595 C2619 0.951 . S
H2596 C2621 0.951 . S
H2597 C2623 0.950 . S
H2598 C2624 0.950 . S
H2599 C2626 0.950 . S
H2600 C2629 0.950 . S
H2601 C2630 0.950 . S
H2602 C2632 0.950 . S
H2603 C2633 0.950 . S
C2604 H2586 0.951 . S
C2604 C2605 1.366 1_655 S
C2604 C2606 1.388 . S
C2605 C2604 1.366 1_455 S
C2605 C2609 1.385 . S
C2606 H2587 0.951 . S
C2606 C2604 1.388 . S
C2606 C2607 1.366 1_655 S
C2607 C2606 1.366 1_455 S
C2607 C2608 1.414 . S
C2607 C2610 1.499 . S
C2608 H2588 0.950 . S
C2608 C2607 1.414 . S
C2608 C2609 1.374 . S
C2609 H2589 0.950 . S
C2609 C2605 1.385 . S
C2609 C2608 1.374 . S
C2610 C2607 1.499 . S
C2610 C2611 1.373 . S
C2610 C2612 1.389 1_455 S
C2611 H2590 0.950 . S
C2611 C2610 1.373 . S
C2611 C2627 1.377 . S
C2612 C2610 1.389 1_655 S
C2612 C2613 1.524 . S
C2612 C2626 1.377 . S
C2613 C2612 1.524 . S
C2613 C2614 1.397 . S
C2613 C2618 1.363 . S
C2614 H2591 0.950 1_655 S
C2614 C2613 1.397 . S
C2614 C2615 1.334 . S
C2615 H2592 0.950 . S
C2615 C2614 1.334 . S
C2615 C2616 1.287 . S
C2616 C2615 1.287 . S
C2616 C2617 1.524 . S
C2616 H2635 0.913 . S
C2617 H2593 0.950 . S
C2617 C2616 1.524 . S
C2617 C2618 1.415 . S
C2618 H2594 0.950 . S
C2618 C2613 1.363 . S
C2618 C2617 1.415 . S
C2619 H2595 0.951 . S
C2619 C2620 1.384 . S
C2619 C2621 1.388 . S
C2620 C2619 1.384 . S
C2620 C2624 1.355 1_455 S
C2621 H2596 0.951 . S
C2621 C2619 1.388 . S
C2621 C2622 1.366 . S
C2622 C2621 1.366 . S
C2622 C2623 1.414 1_455 S
C2622 C2625 1.499 . S
C2623 H2597 0.950 . S
C2623 C2622 1.414 1_655 S
C2623 C2624 1.374 . S
C2624 H2598 0.950 . S
C2624 C2620 1.355 1_655 S
C2624 C2623 1.374 . S
C2625 C2622 1.499 . S
C2625 C2626 1.373 1_455 S
C2625 C2627 1.389 . S
C2626 H2599 0.950 . S
C2626 C2612 1.377 . S
C2626 C2625 1.373 1_655 S
C2627 C2611 1.377 . S
C2627 C2625 1.389 . S
C2627 C2628 1.524 . S
C2628 C2627 1.524 . S
C2628 C2629 1.397 . S
C2628 C2633 1.363 . S
C2629 H2600 0.950 . S
C2629 C2628 1.397 . S
C2629 C2630 1.334 . S
C2630 H2601 0.950 . S
C2630 C2629 1.334 . S
C2630 C2631 1.287 . S
C2631 C2630 1.287 . S
C2631 C2632 1.524 . S
C2631 H2634 0.999 . S
C2632 H2602 0.950 . S
C2632 C2631 1.524 . S
C2632 C2633 1.415 . S
C2633 H2603 0.950 . S
C2633 C2628 1.363 . S
C2633 C2632 1.415 . S
H2634 C2631 0.999 . S
H2635 C2616 0.913 . S
H2636 C2654 0.951 . S
H2637 C2656 0.951 . S
H2638 C2658 0.950 . S
H2639 C2659 0.950 . S
H2640 C2661 0.950 . S
H2641 C2664 0.950 . S
H2642 C2665 0.950 . S
H2643 C2667 0.950 . S
H2644 C2668 0.950 . S
H2645 C2669 0.951 . S
H2646 C2671 0.951 . S
H2647 C2673 0.950 . S
H2648 C2674 0.950 . S
H2649 C2676 0.950 . S
H2650 C2679 0.950 . S
H2651 C2680 0.950 . S
H2652 C2682 0.950 . S
H2653 C2683 0.950 . S
C2654 H2636 0.951 . S
C2654 C2655 1.366 . S
C2654 C2656 1.388 . S
C2655 C2654 1.366 . S
C2655 C2659 1.385 . S
C2656 H2637 0.951 . S
C2656 C2654 1.388 . S
C2656 C2657 1.366 . S
C2657 C2656 1.366 . S
C2657 C2658 1.414 . S
C2657 C2660 1.499 . S
C2658 H2638 0.950 . S
C2658 C2657 1.414 . S
C2658 C2659 1.374 . S
C2659 H2639 0.950 . S
C2659 C2655 1.385 . S
C2659 C2658 1.374 . S
C2660 C2657 1.499 . S
C2660 C2661 1.373 . S
C2660 C2662 1.389 . S
C2661 H2640 0.950 . S
C2661 C2660 1.373 . S
C2661 C2677 1.377 . S
C2662 C2660 1.389 . S
C2662 C2663 1.524 . S
C2662 C2676 1.377 . S
C2663 C2662 1.524 . S
C2663 C2664 1.397 . S
C2663 C2668 1.363 . S
C2664 H2641 0.950 . S
C2664 C2663 1.397 . S
C2664 C2665 1.334 . S
C2665 H2642 0.950 . S
C2665 C2664 1.334 . S
C2665 C2666 1.287 . S
C2666 C2665 1.287 . S
C2666 C2667 1.524 . S
C2666 H2685 0.913 . S
C2667 H2643 0.950 . S
C2667 C2666 1.524 . S
C2667 C2668 1.415 . S
C2668 H2644 0.950 . S
C2668 C2663 1.363 . S
C2668 C2667 1.415 . S
C2669 H2645 0.951 . S
C2669 C2670 1.366 . S
C2669 C2671 1.388 . S
C2670 C2669 1.366 . S
C2670 C2674 1.385 . S
C2671 H2646 0.951 . S
C2671 C2669 1.388 . S
C2671 C2672 1.366 . S
C2672 C2671 1.366 . S
C2672 C2673 1.414 . S
C2672 C2675 1.499 . S
C2673 H2647 0.950 . S
C2673 C2672 1.414 . S
C2673 C2674 1.374 . S
C2674 H2648 0.950 . S
C2674 C2670 1.385 . S
C2674 C2673 1.374 . S
C2675 C2672 1.499 . S
C2675 C2676 1.373 . S
C2675 C2677 1.389 . S
C2676 H2649 0.950 . S
C2676 C2662 1.377 . S
C2676 C2675 1.373 . S
C2677 C2661 1.377 . S
C2677 C2675 1.389 . S
C2677 C2678 1.524 . S
C2678 C2677 1.524 . S
C2678 C2679 1.397 . S
C2678 C2683 1.363 . S
C2679 H2650 0.950 . S
C2679 C2678 1.397 . S
C2679 C2680 1.334 . S
C2680 H2651 0.950 . S
C2680 C2679 1.334 . S
C2680 C2681 1.287 . S
C2681 C2680 1.287 . S
C2681 C2682 1.524 . S
C2681 H2684 0.999 . S
C2682 H2652 0.950 . S
C2682 C2681 1.524 . S
C2682 C2683 1.415 . S
C2683 H2653 0.950 . S
C2683 C2678 1.363 . S
C2683 C2682 1.415 . S
H2684 C2681 0.999 . S
H2685 C2666 0.913 . S
H2686 C2704 0.951 . S
H2687 C2706 0.951 . S
H2688 C2708 0.950 . S
H2689 C2709 0.950 . S
H2690 C2711 0.950 . S
H2691 C2714 0.950 . S
H2692 C2715 0.950 . S
H2693 C2717 0.950 . S
H2694 C2718 0.950 . S
H2695 C2719 0.951 . S
H2696 C2721 0.951 . S
H2697 C2723 1.028 1_545 S
H2698 C2724 0.951 . S
H2699 C2726 0.950 . S
H2700 C2729 0.950 . S
H2701 C2730 0.950 . S
H2702 C2732 0.950 . S
H2703 C2733 0.950 . S
C2704 H2686 0.951 . S
C2704 C2705 1.366 . S
C2704 C2706 1.388 . S
C2705 C2704 1.366 . S
C2705 C2709 1.385 . S
C2706 H2687 0.951 . S
C2706 C2704 1.388 . S
C2706 C2707 1.366 . S
C2707 C2706 1.366 . S
C2707 C2708 1.414 . S
C2707 C2710 1.499 . S
C2708 H2688 0.950 . S
C2708 C2707 1.414 . S
C2708 C2709 1.374 . S
C2709 H2689 0.950 . S
C2709 C2705 1.385 . S
C2709 C2708 1.374 . S
C2710 C2707 1.499 . S
C2710 C2711 1.373 . S
C2710 C2712 1.389 1_565 S
C2711 H2690 0.950 . S
C2711 C2710 1.373 . S
C2711 C2727 1.377 . S
C2712 C2710 1.389 1_545 S
C2712 C2713 1.524 . S
C2712 C2726 1.377 . S
C2713 C2712 1.524 . S
C2713 C2714 1.397 . S
C2713 C2718 1.363 . S
C2714 H2691 0.950 . S
C2714 C2713 1.397 . S
C2714 C2715 1.334 . S
C2715 H2692 0.950 . S
C2715 C2714 1.334 . S
C2715 C2716 1.287 . S
C2716 C2715 1.287 . S
C2716 C2717 1.524 . S
C2716 H2735 0.913 . S
C2717 H2693 0.950 . S
C2717 C2716 1.524 . S
C2717 C2718 1.415 . S
C2718 H2694 0.950 . S
C2718 C2713 1.363 . S
C2718 C2717 1.415 . S
C2719 H2695 0.951 . S
C2719 C2720 1.366 . S
C2719 C2721 1.388 . S
C2720 C2719 1.366 . S
C2720 C2724 1.387 1_565 S
C2721 H2696 0.951 . S
C2721 C2719 1.388 . S
C2721 C2722 1.366 . S
C2722 C2721 1.366 . S
C2722 C2723 1.431 . S
C2722 C2725 1.499 . S
C2723 H2697 1.028 1_565 S
C2723 C2722 1.431 . S
C2723 C2724 1.330 1_565 S
C2724 H2698 0.951 . S
C2724 C2720 1.387 1_545 S
C2724 C2723 1.330 1_545 S
C2725 C2722 1.499 . S
C2725 C2726 1.373 1_565 S
C2725 C2727 1.389 . S
C2726 H2699 0.950 . S
C2726 C2712 1.377 . S
C2726 C2725 1.373 1_545 S
C2727 C2711 1.377 . S
C2727 C2725 1.389 . S
C2727 C2728 1.524 . S
C2728 C2727 1.524 . S
C2728 C2729 1.397 . S
C2728 C2733 1.363 . S
C2729 H2700 0.950 . S
C2729 C2728 1.397 . S
C2729 C2730 1.334 . S
C2730 H2701 0.950 . S
C2730 C2729 1.334 . S
C2730 C2731 1.287 . S
C2731 C2730 1.287 . S
C2731 C2732 1.524 . S
C2731 H2734 0.999 . S
C2732 H2702 0.950 . S
C2732 C2731 1.524 . S
C2732 C2733 1.415 . S
C2733 H2703 0.950 . S
C2733 C2728 1.363 . S
C2733 C2732 1.415 . S
H2734 C2731 0.999 . S
H2735 C2716 0.913 . S
H2736 C2754 0.951 . S
H2737 C2756 0.951 . S
H2738 C2758 0.950 . S
H2739 C2759 0.950 . S
H2740 C2761 0.950 . S
H2741 C2764 0.950 . S
H2742 C2765 0.950 . S
H2743 C2767 0.950 . S
H2744 C2768 0.950 . S
H2745 C2769 0.954 . S
H2746 C2771 0.947 . S
H2747 C2773 0.950 . S
H2748 C2774 0.950 . S
H2749 C2776 0.950 . S
H2750 C2779 0.950 . S
H2751 C2780 0.950 . S
H2752 C2782 0.950 . S
H2753 C2783 0.950 . S
C2754 H2736 0.951 . S
C2754 C2755 1.366 . S
C2754 C2756 1.388 . S
C2755 C2754 1.366 . S
C2755 C2759 1.385 . S
C2756 H2737 0.951 . S
C2756 C2754 1.388 . S
C2756 C2757 1.366 . S
C2757 C2756 1.366 . S
C2757 C2758 1.414 . S
C2757 C2760 1.499 . S
C2758 H2738 0.950 . S
C2758 C2757 1.414 . S
C2758 C2759 1.374 . S
C2759 H2739 0.950 . S
C2759 C2755 1.385 . S
C2759 C2758 1.374 . S
C2760 C2757 1.499 . S
C2760 C2761 1.373 . S
C2760 C2762 1.389 1_545 S
C2761 H2740 0.950 . S
C2761 C2760 1.373 . S
C2761 C2777 1.377 . S
C2762 C2760 1.389 1_565 S
C2762 C2763 1.524 . S
C2762 C2776 1.377 . S
C2763 C2762 1.524 . S
C2763 C2764 1.397 . S
C2763 C2768 1.363 . S
C2764 H2741 0.950 . S
C2764 C2763 1.397 . S
C2764 C2765 1.334 . S
C2765 H2742 0.950 . S
C2765 C2764 1.334 . S
C2765 C2766 1.287 . S
C2766 C2765 1.287 . S
C2766 C2767 1.524 . S
C2766 H2785 0.913 . S
C2767 H2743 0.950 . S
C2767 C2766 1.524 . S
C2767 C2768 1.415 . S
C2768 H2744 0.950 . S
C2768 C2763 1.363 . S
C2768 C2767 1.415 . S
C2769 H2745 0.954 . S
C2769 C2770 1.365 1_565 S
C2769 C2771 1.385 1_565 S
C2770 C2769 1.365 1_545 S
C2770 C2774 1.385 . S
C2771 H2746 0.947 . S
C2771 C2769 1.385 1_545 S
C2771 C2772 1.366 . S
C2772 C2771 1.366 . S
C2772 C2773 1.414 . S
C2772 C2775 1.499 . S
C2773 H2747 0.950 . S
C2773 C2772 1.414 . S
C2773 C2774 1.374 . S
C2774 H2748 0.950 . S
C2774 C2770 1.385 . S
C2774 C2773 1.374 . S
C2775 C2772 1.499 . S
C2775 C2776 1.373 1_545 S
C2775 C2777 1.389 . S
C2776 H2749 0.950 . S
C2776 C2762 1.377 . S
C2776 C2775 1.373 1_565 S
C2777 C2761 1.377 . S
C2777 C2775 1.389 . S
C2777 C2778 1.524 . S
C2778 C2777 1.524 . S
C2778 C2779 1.397 . S
C2778 C2783 1.363 . S
C2779 H2750 0.950 . S
C2779 C2778 1.397 . S
C2779 C2780 1.334 . S
C2780 H2751 0.950 . S
C2780 C2779 1.334 . S
C2780 C2781 1.287 . S
C2781 C2780 1.287 . S
C2781 C2782 1.524 . S
C2781 H2784 0.999 . S
C2782 H2752 0.950 . S
C2782 C2781 1.524 . S
C2782 C2783 1.415 . S
C2783 H2753 0.950 . S
C2783 C2778 1.363 . S
C2783 C2782 1.415 . S
H2784 C2781 0.999 . S
H2785 C2766 0.913 . S
H2786 C2804 0.951 . S
H2787 C2806 0.951 . S
H2788 C2808 0.950 . S
H2789 C2809 0.950 . S
H2790 C2811 0.950 . S
H2791 C2814 0.950 . S
H2792 C2815 0.950 . S
H2793 C2817 0.950 . S
H2794 C2818 0.950 . S
H2795 C2819 0.951 . S
H2796 C2821 0.951 . S
H2797 C2823 0.950 . S
H2798 C2824 0.950 . S
H2799 C2826 0.983 . S
H2800 C2829 0.950 1_455 S
H2801 C2830 0.950 . S
H2802 C2832 0.950 . S
H2803 C2833 0.950 . S
C2804 H2786 0.951 . S
C2804 C2805 1.366 1_455 S
C2804 C2806 1.388 . S
C2805 C2804 1.366 1_655 S
C2805 C2809 1.385 . S
C2806 H2787 0.951 . S
C2806 C2804 1.388 . S
C2806 C2807 1.366 1_455 S
C2807 C2806 1.366 1_655 S
C2807 C2808 1.414 . S
C2807 C2810 1.499 . S
C2808 H2788 0.950 . S
C2808 C2807 1.414 . S
C2808 C2809 1.374 . S
C2809 H2789 0.950 . S
C2809 C2805 1.385 . S
C2809 C2808 1.374 . S
C2810 C2807 1.499 . S
C2810 C2811 1.373 . S
C2810 C2812 1.389 . S
C2811 H2790 0.950 . S
C2811 C2810 1.373 . S
C2811 C2827 1.377 . S
C2812 C2810 1.389 . S
C2812 C2813 1.524 1_655 S
C2812 C2826 1.359 1_655 S
C2813 C2812 1.524 1_455 S
C2813 C2814 1.397 1_455 S
C2813 C2818 1.363 . S
C2814 H2791 0.950 . S
C2814 C2813 1.397 1_655 S
C2814 C2815 1.334 . S
C2815 H2792 0.950 . S
C2815 C2814 1.334 . S
C2815 C2816 1.287 1_655 S
C2816 C2815 1.287 1_455 S
C2816 C2817 1.524 . S
C2816 H2835 0.913 . S
C2817 H2793 0.950 . S
C2817 C2816 1.524 . S
C2817 C2818 1.415 . S
C2818 H2794 0.950 . S
C2818 C2813 1.363 . S
C2818 C2817 1.415 . S
C2819 H2795 0.951 . S
C2819 C2820 1.366 . S
C2819 C2821 1.388 . S
C2820 C2819 1.366 . S
C2820 C2824 1.385 1_655 S
C2821 H2796 0.951 . S
C2821 C2819 1.388 . S
C2821 C2822 1.366 . S
C2822 C2821 1.366 . S
C2822 C2823 1.414 1_655 S
C2822 C2825 1.499 . S
C2823 H2797 0.950 . S
C2823 C2822 1.414 1_455 S
C2823 C2824 1.374 . S
C2824 H2798 0.950 . S
C2824 C2820 1.385 1_455 S
C2824 C2823 1.374 . S
C2825 C2822 1.499 . S
C2825 C2826 1.359 1_655 S
C2825 C2827 1.389 . S
C2826 H2799 0.983 . S
C2826 C2812 1.359 1_455 S
C2826 C2825 1.359 1_455 S
C2827 C2811 1.377 . S
C2827 C2825 1.389 . S
C2827 C2828 1.524 . S
C2828 C2827 1.524 . S
C2828 C2829 1.397 . S
C2828 C2833 1.363 . S
C2829 H2800 0.950 1_655 S
C2829 C2828 1.397 . S
C2829 C2830 1.334 . S
C2830 H2801 0.950 . S
C2830 C2829 1.334 . S
C2830 C2831 1.287 . S
C2831 C2830 1.287 . S
C2831 C2832 1.524 . S
C2831 H2834 0.999 . S
C2832 H2802 0.950 . S
C2832 C2831 1.524 . S
C2832 C2833 1.415 . S
C2833 H2803 0.950 . S
C2833 C2828 1.363 . S
C2833 C2832 1.415 . S
H2834 C2831 0.999 . S
H2835 C2816 0.913 . S
H2836 C2854 0.951 . S
H2837 C2856 0.951 . S
H2838 C2858 0.950 . S
H2839 C2859 0.950 . S
H2840 C2861 0.950 . S
H2841 C2864 0.950 . S
H2842 C2865 0.950 . S
H2843 C2867 0.950 . S
H2844 C2868 0.950 . S
H2845 C2869 0.951 . S
H2846 C2871 0.951 . S
H2847 C2873 0.950 . S
H2848 C2874 0.950 . S
H2849 C2876 0.950 . S
H2850 C2879 0.950 . S
H2851 C2880 0.950 . S
H2852 C2882 0.950 . S
H2853 C2883 0.950 . S
C2854 H2836 0.951 . S
C2854 C2855 1.366 . S
C2854 C2856 1.388 . S
C2855 C2854 1.366 . S
C2855 C2859 1.385 . S
C2856 H2837 0.951 . S
C2856 C2854 1.388 . S
C2856 C2857 1.366 . S
C2857 C2856 1.366 . S
C2857 C2858 1.414 . S
C2857 C2860 1.499 . S
C2858 H2838 0.950 . S
C2858 C2857 1.414 . S
C2858 C2859 1.374 . S
C2859 H2839 0.950 . S
C2859 C2855 1.385 . S
C2859 C2858 1.374 . S
C2860 C2857 1.499 . S
C2860 C2861 1.373 . S
C2860 C2862 1.389 . S
C2861 H2840 0.950 . S
C2861 C2860 1.373 . S
C2861 C2877 1.377 . S
C2862 C2860 1.389 . S
C2862 C2863 1.524 . S
C2862 C2876 1.377 . S
C2863 C2862 1.524 . S
C2863 C2864 1.397 . S
C2863 C2868 1.363 . S
C2864 H2841 0.950 . S
C2864 C2863 1.397 . S
C2864 C2865 1.334 . S
C2865 H2842 0.950 . S
C2865 C2864 1.334 . S
C2865 C2866 1.287 . S
C2866 C2865 1.287 . S
C2866 C2867 1.524 . S
C2866 H2885 0.913 . S
C2867 H2843 0.950 . S
C2867 C2866 1.524 . S
C2867 C2868 1.415 . S
C2868 H2844 0.950 . S
C2868 C2863 1.363 . S
C2868 C2867 1.415 . S
C2869 H2845 0.951 . S
C2869 C2870 1.366 . S
C2869 C2871 1.388 . S
C2870 C2869 1.366 . S
C2870 C2874 1.385 . S
C2871 H2846 0.951 . S
C2871 C2869 1.388 . S
C2871 C2872 1.366 . S
C2872 C2871 1.366 . S
C2872 C2873 1.414 . S
C2872 C2875 1.499 . S
C2873 H2847 0.950 . S
C2873 C2872 1.414 . S
C2873 C2874 1.374 . S
C2874 H2848 0.950 . S
C2874 C2870 1.385 . S
C2874 C2873 1.374 . S
C2875 C2872 1.499 . S
C2875 C2876 1.373 . S
C2875 C2877 1.389 . S
C2876 H2849 0.950 . S
C2876 C2862 1.377 . S
C2876 C2875 1.373 . S
C2877 C2861 1.377 . S
C2877 C2875 1.389 . S
C2877 C2878 1.524 . S
C2878 C2877 1.524 . S
C2878 C2879 1.397 . S
C2878 C2883 1.363 . S
C2879 H2850 0.950 . S
C2879 C2878 1.397 . S
C2879 C2880 1.334 . S
C2880 H2851 0.950 . S
C2880 C2879 1.334 . S
C2880 C2881 1.287 . S
C2881 C2880 1.287 . S
C2881 C2882 1.524 . S
C2881 H2884 0.999 . S
C2882 H2852 0.950 . S
C2882 C2881 1.524 . S
C2882 C2883 1.415 . S
C2883 H2853 0.950 . S
C2883 C2878 1.363 . S
C2883 C2882 1.415 . S
H2884 C2881 0.999 . S
H2885 C2866 0.913 . S
H2886 C2904 0.951 . S
H2887 C2906 0.951 . S
H2888 C2908 0.950 . S
H2889 C2909 0.950 . S
H2890 C2911 0.950 . S
H2891 C2914 0.950 . S
H2892 C2915 0.950 . S
H2893 C2917 0.950 . S
H2894 C2918 0.950 . S
H2895 C2919 0.951 . S
H2896 C2921 0.951 . S
H2897 C2923 0.950 . S
H2898 C2924 0.950 . S
H2899 C2926 0.950 . S
H2900 C2929 0.950 . S
H2901 C2930 0.950 . S
H2902 C2932 0.950 . S
H2903 C2933 0.950 . S
C2904 H2886 0.951 . S
C2904 C2905 1.366 . S
C2904 C2906 1.388 . S
C2905 C2904 1.366 . S
C2905 C2909 1.385 . S
C2906 H2887 0.951 . S
C2906 C2904 1.388 . S
C2906 C2907 1.366 . S
C2907 C2906 1.366 . S
C2907 C2908 1.414 . S
C2907 C2910 1.499 . S
C2908 H2888 0.950 . S
C2908 C2907 1.414 . S
C2908 C2909 1.374 . S
C2909 H2889 0.950 . S
C2909 C2905 1.385 . S
C2909 C2908 1.374 . S
C2910 C2907 1.499 . S
C2910 C2911 1.373 . S
C2910 C2912 1.389 . S
C2911 H2890 0.950 . S
C2911 C2910 1.373 . S
C2911 C2927 1.377 . S
C2912 C2910 1.389 . S
C2912 C2913 1.524 . S
C2912 C2926 1.377 . S
C2913 C2912 1.524 . S
C2913 C2914 1.397 . S
C2913 C2918 1.363 . S
C2914 H2891 0.950 . S
C2914 C2913 1.397 . S
C2914 C2915 1.334 . S
C2915 H2892 0.950 . S
C2915 C2914 1.334 . S
C2915 C2916 1.287 . S
C2916 C2915 1.287 . S
C2916 C2917 1.524 . S
C2916 H2935 0.913 . S
C2917 H2893 0.950 . S
C2917 C2916 1.524 . S
C2917 C2918 1.415 . S
C2918 H2894 0.950 . S
C2918 C2913 1.363 . S
C2918 C2917 1.415 . S
C2919 H2895 0.951 . S
C2919 C2920 1.366 . S
C2919 C2921 1.388 . S
C2920 C2919 1.366 . S
C2920 C2924 1.385 . S
C2921 H2896 0.951 . S
C2921 C2919 1.388 . S
C2921 C2922 1.366 . S
C2922 C2921 1.366 . S
C2922 C2923 1.414 . S
C2922 C2925 1.499 . S
C2923 H2897 0.950 . S
C2923 C2922 1.414 . S
C2923 C2924 1.374 . S
C2924 H2898 0.950 . S
C2924 C2920 1.385 . S
C2924 C2923 1.374 . S
C2925 C2922 1.499 . S
C2925 C2926 1.373 . S
C2925 C2927 1.389 . S
C2926 H2899 0.950 . S
C2926 C2912 1.377 . S
C2926 C2925 1.373 . S
C2927 C2911 1.377 . S
C2927 C2925 1.389 . S
C2927 C2928 1.524 . S
C2928 C2927 1.524 . S
C2928 C2929 1.397 . S
C2928 C2933 1.363 . S
C2929 H2900 0.950 . S
C2929 C2928 1.397 . S
C2929 C2930 1.334 . S
C2930 H2901 0.950 . S
C2930 C2929 1.334 . S
C2930 C2931 1.287 . S
C2931 C2930 1.287 . S
C2931 C2932 1.524 . S
C2931 H2934 0.999 . S
C2932 H2902 0.950 . S
C2932 C2931 1.524 . S
C2932 C2933 1.415 . S
C2933 H2903 0.950 . S
C2933 C2928 1.363 . S
C2933 C2932 1.415 . S
H2934 C2931 0.999 . S
H2935 C2916 0.913 . S
H2936 C2954 0.951 . S
H2937 C2956 0.951 . S
H2938 C2958 0.950 . S
H2939 C2959 0.950 . S
H2940 C2961 0.950 . S
H2941 C2964 0.950 . S
H2942 C2965 0.950 . S
H2943 C2967 0.950 . S
H2944 C2968 0.950 . S
H2945 C2969 0.951 . S
H2946 C2971 0.951 . S
H2947 C2973 0.950 . S
H2948 C2974 0.950 . S
H2949 C2976 0.950 . S
H2950 C2979 0.950 . S
H2951 C2980 0.950 . S
H2952 C2982 0.950 . S
H2953 C2983 0.950 . S
C2954 H2936 0.951 . S
C2954 C2955 1.366 . S
C2954 C2956 1.388 . S
C2955 C2954 1.366 . S
C2955 C2959 1.385 . S
C2956 H2937 0.951 . S
C2956 C2954 1.388 . S
C2956 C2957 1.366 . S
C2957 C2956 1.366 . S
C2957 C2958 1.414 . S
C2957 C2960 1.499 . S
C2958 H2938 0.950 . S
C2958 C2957 1.414 . S
C2958 C2959 1.374 . S
C2959 H2939 0.950 . S
C2959 C2955 1.385 . S
C2959 C2958 1.374 . S
C2960 C2957 1.499 . S
C2960 C2961 1.373 . S
C2960 C2962 1.389 . S
C2961 H2940 0.950 . S
C2961 C2960 1.373 . S
C2961 C2977 1.377 . S
C2962 C2960 1.389 . S
C2962 C2963 1.524 . S
C2962 C2976 1.377 . S
C2963 C2962 1.524 . S
C2963 C2964 1.397 . S
C2963 C2968 1.363 . S
C2964 H2941 0.950 . S
C2964 C2963 1.397 . S
C2964 C2965 1.334 . S
C2965 H2942 0.950 . S
C2965 C2964 1.334 . S
C2965 C2966 1.287 . S
C2966 C2965 1.287 . S
C2966 C2967 1.524 . S
C2966 H2985 0.913 . S
C2967 H2943 0.950 . S
C2967 C2966 1.524 . S
C2967 C2968 1.415 . S
C2968 H2944 0.950 . S
C2968 C2963 1.363 . S
C2968 C2967 1.415 . S
C2969 H2945 0.951 . S
C2969 C2970 1.366 . S
C2969 C2971 1.388 . S
C2970 C2969 1.366 . S
C2970 C2974 1.385 . S
C2971 H2946 0.951 . S
C2971 C2969 1.388 . S
C2971 C2972 1.366 . S
C2972 C2971 1.366 . S
C2972 C2973 1.414 . S
C2972 C2975 1.499 . S
C2973 H2947 0.950 . S
C2973 C2972 1.414 . S
C2973 C2974 1.374 . S
C2974 H2948 0.950 . S
C2974 C2970 1.385 . S
C2974 C2973 1.374 . S
C2975 C2972 1.499 . S
C2975 C2976 1.373 . S
C2975 C2977 1.389 . S
C2976 H2949 0.950 . S
C2976 C2962 1.377 . S
C2976 C2975 1.373 . S
C2977 C2961 1.377 . S
C2977 C2975 1.389 . S
C2977 C2978 1.524 . S
C2978 C2977 1.524 . S
C2978 C2979 1.397 . S
C2978 C2983 1.363 . S
C2979 H2950 0.950 . S
C2979 C2978 1.397 . S
C2979 C2980 1.334 . S
C2980 H2951 0.950 . S
C2980 C2979 1.334 . S
C2980 C2981 1.287 . S
C2981 C2980 1.287 . S
C2981 C2982 1.524 . S
C2981 H2984 0.999 . S
C2982 H2952 0.950 . S
C2982 C2981 1.524 . S
C2982 C2983 1.415 . S
C2983 H2953 0.950 . S
C2983 C2978 1.363 . S
C2983 C2982 1.415 . S
H2984 C2981 0.999 . S
H2985 C2966 0.913 . S
H2986 C3004 0.951 . S
H2987 C3006 0.951 . S
H2988 C3008 0.950 . S
H2989 C3009 0.950 . S
H2990 C3011 0.950 . S
H2991 C3014 0.950 . S
H2992 C3015 0.950 . S
H2993 C3017 0.950 . S
H2994 C3018 0.950 . S
H2995 C3019 0.951 . S
H2996 C3021 0.951 . S
H2997 C3023 0.950 . S
H2998 C3024 0.950 . S
H2999 C3026 0.950 . S
H3000 C3029 0.950 . S
H3001 C3030 0.950 . S
H3002 C3032 0.950 . S
H3003 C3033 0.950 . S
C3004 H2986 0.951 . S
C3004 C3005 1.366 . S
C3004 C3006 1.388 . S
C3005 C3004 1.366 . S
C3005 C3009 1.385 . S
C3006 H2987 0.951 . S
C3006 C3004 1.388 . S
C3006 C3007 1.366 . S
C3007 C3006 1.366 . S
C3007 C3008 1.414 . S
C3007 C3010 1.499 . S
C3008 H2988 0.950 . S
C3008 C3007 1.414 . S
C3008 C3009 1.374 . S
C3009 H2989 0.950 . S
C3009 C3005 1.385 . S
C3009 C3008 1.374 . S
C3010 C3007 1.499 . S
C3010 C3011 1.373 . S
C3010 C3012 1.389 . S
C3011 H2990 0.950 . S
C3011 C3010 1.373 . S
C3011 C3027 1.377 . S
C3012 C3010 1.389 . S
C3012 C3013 1.524 . S
C3012 C3026 1.377 . S
C3013 C3012 1.524 . S
C3013 C3014 1.397 . S
C3013 C3018 1.363 . S
C3014 H2991 0.950 . S
C3014 C3013 1.397 . S
C3014 C3015 1.334 . S
C3015 H2992 0.950 . S
C3015 C3014 1.334 . S
C3015 C3016 1.287 . S
C3016 C3015 1.287 . S
C3016 C3017 1.524 . S
C3016 H3035 0.913 . S
C3017 H2993 0.950 . S
C3017 C3016 1.524 . S
C3017 C3018 1.415 . S
C3018 H2994 0.950 . S
C3018 C3013 1.363 . S
C3018 C3017 1.415 . S
C3019 H2995 0.951 . S
C3019 C3020 1.366 . S
C3019 C3021 1.388 . S
C3020 C3019 1.366 . S
C3020 C3024 1.385 . S
C3021 H2996 0.951 . S
C3021 C3019 1.388 . S
C3021 C3022 1.366 . S
C3022 C3021 1.366 . S
C3022 C3023 1.414 . S
C3022 C3025 1.499 . S
C3023 H2997 0.950 . S
C3023 C3022 1.414 . S
C3023 C3024 1.374 . S
C3024 H2998 0.950 . S
C3024 C3020 1.385 . S
C3024 C3023 1.374 . S
C3025 C3022 1.499 . S
C3025 C3026 1.373 . S
C3025 C3027 1.389 . S
C3026 H2999 0.950 . S
C3026 C3012 1.377 . S
C3026 C3025 1.373 . S
C3027 C3011 1.377 . S
C3027 C3025 1.389 . S
C3027 C3028 1.524 . S
C3028 C3027 1.524 . S
C3028 C3029 1.397 . S
C3028 C3033 1.363 . S
C3029 H3000 0.950 . S
C3029 C3028 1.397 . S
C3029 C3030 1.334 . S
C3030 H3001 0.950 . S
C3030 C3029 1.334 . S
C3030 C3031 1.287 . S
C3031 C3030 1.287 . S
C3031 C3032 1.524 . S
C3031 H3034 0.999 . S
C3032 H3002 0.950 . S
C3032 C3031 1.524 . S
C3032 C3033 1.415 . S
C3033 H3003 0.950 . S
C3033 C3028 1.363 . S
C3033 C3032 1.415 . S
H3034 C3031 0.999 . S
H3035 C3016 0.913 . S
H3036 C3054 0.951 . S
H3037 C3056 0.951 . S
H3038 C3058 0.950 . S
H3039 C3059 0.950 . S
H3040 C3061 0.950 . S
H3041 C3064 0.950 . S
H3042 C3065 0.950 . S
H3043 C3067 0.950 . S
H3044 C3068 0.950 . S
H3045 C3069 0.951 . S
H3046 C3071 0.951 . S
H3047 C3073 0.950 . S
H3048 C3074 0.950 . S
H3049 C3076 0.950 . S
H3050 C3079 0.950 . S
H3051 C3080 0.950 . S
H3052 C3082 0.950 . S
H3053 C3083 0.950 . S
C3054 H3036 0.951 . S
C3054 C3055 1.366 . S
C3054 C3056 1.388 . S
C3055 C3054 1.366 . S
C3055 C3059 1.385 . S
C3056 H3037 0.951 . S
C3056 C3054 1.388 . S
C3056 C3057 1.366 . S
C3057 C3056 1.366 . S
C3057 C3058 1.414 . S
C3057 C3060 1.499 . S
C3058 H3038 0.950 . S
C3058 C3057 1.414 . S
C3058 C3059 1.374 . S
C3059 H3039 0.950 . S
C3059 C3055 1.385 . S
C3059 C3058 1.374 . S
C3060 C3057 1.499 . S
C3060 C3061 1.373 . S
C3060 C3062 1.389 . S
C3061 H3040 0.950 . S
C3061 C3060 1.373 . S
C3061 C3077 1.377 . S
C3062 C3060 1.389 . S
C3062 C3063 1.524 . S
C3062 C3076 1.377 . S
C3063 C3062 1.524 . S
C3063 C3064 1.397 . S
C3063 C3068 1.363 . S
C3064 H3041 0.950 . S
C3064 C3063 1.397 . S
C3064 C3065 1.334 . S
C3065 H3042 0.950 . S
C3065 C3064 1.334 . S
C3065 C3066 1.287 . S
C3066 C3065 1.287 . S
C3066 C3067 1.524 . S
C3066 H3085 0.913 . S
C3067 H3043 0.950 . S
C3067 C3066 1.524 . S
C3067 C3068 1.415 . S
C3068 H3044 0.950 . S
C3068 C3063 1.363 . S
C3068 C3067 1.415 . S
C3069 H3045 0.951 . S
C3069 C3070 1.366 . S
C3069 C3071 1.388 . S
C3070 C3069 1.366 . S
C3070 C3074 1.385 . S
C3071 H3046 0.951 . S
C3071 C3069 1.388 . S
C3071 C3072 1.366 . S
C3072 C3071 1.366 . S
C3072 C3073 1.414 . S
C3072 C3075 1.499 . S
C3073 H3047 0.950 . S
C3073 C3072 1.414 . S
C3073 C3074 1.374 . S
C3074 H3048 0.950 . S
C3074 C3070 1.385 . S
C3074 C3073 1.374 . S
C3075 C3072 1.499 . S
C3075 C3076 1.373 . S
C3075 C3077 1.389 . S
C3076 H3049 0.950 . S
C3076 C3062 1.377 . S
C3076 C3075 1.373 . S
C3077 C3061 1.377 . S
C3077 C3075 1.389 . S
C3077 C3078 1.524 . S
C3078 C3077 1.524 . S
C3078 C3079 1.397 . S
C3078 C3083 1.363 . S
C3079 H3050 0.950 . S
C3079 C3078 1.397 . S
C3079 C3080 1.334 . S
C3080 H3051 0.950 . S
C3080 C3079 1.334 . S
C3080 C3081 1.287 . S
C3081 C3080 1.287 . S
C3081 C3082 1.524 . S
C3081 H3084 0.999 . S
C3082 H3052 0.950 . S
C3082 C3081 1.524 . S
C3082 C3083 1.415 . S
C3083 H3053 0.950 . S
C3083 C3078 1.363 . S
C3083 C3082 1.415 . S
H3084 C3081 0.999 . S
H3085 C3066 0.913 . S
H3086 C3104 0.951 . S
H3087 C3106 0.951 . S
H3088 C3108 0.950 . S
H3089 C3109 0.950 . S
H3090 C3111 0.950 . S
H3091 C3114 0.950 . S
H3092 C3115 0.950 . S
H3093 C3117 0.950 . S
H3094 C3118 0.950 . S
H3095 C3119 0.951 . S
H3096 C3121 0.951 . S
H3097 C3123 0.950 . S
H3098 C3124 0.950 . S
H3099 C3126 0.950 . S
H3100 C3129 0.950 . S
H3101 C3130 0.950 . S
H3102 C3132 0.950 . S
H3103 C3133 0.950 . S
C3104 H3086 0.951 . S
C3104 C3105 1.366 . S
C3104 C3106 1.388 . S
C3105 C3104 1.366 . S
C3105 C3109 1.385 . S
C3106 H3087 0.951 . S
C3106 C3104 1.388 . S
C3106 C3107 1.366 . S
C3107 C3106 1.366 . S
C3107 C3108 1.414 . S
C3107 C3110 1.499 . S
C3108 H3088 0.950 . S
C3108 C3107 1.414 . S
C3108 C3109 1.374 . S
C3109 H3089 0.950 . S
C3109 C3105 1.385 . S
C3109 C3108 1.374 . S
C3110 C3107 1.499 . S
C3110 C3111 1.373 . S
C3110 C3112 1.389 . S
C3111 H3090 0.950 . S
C3111 C3110 1.373 . S
C3111 C3127 1.377 . S
C3112 C3110 1.389 . S
C3112 C3113 1.524 . S
C3112 C3126 1.377 . S
C3113 C3112 1.524 . S
C3113 C3114 1.397 . S
C3113 C3118 1.363 . S
C3114 H3091 0.950 . S
C3114 C3113 1.397 . S
C3114 C3115 1.334 . S
C3115 H3092 0.950 . S
C3115 C3114 1.334 . S
C3115 C3116 1.287 . S
C3116 C3115 1.287 . S
C3116 C3117 1.524 . S
C3116 H3135 0.913 . S
C3117 H3093 0.950 . S
C3117 C3116 1.524 . S
C3117 C3118 1.415 . S
C3118 H3094 0.950 . S
C3118 C3113 1.363 . S
C3118 C3117 1.415 . S
C3119 H3095 0.951 . S
C3119 C3120 1.366 . S
C3119 C3121 1.388 . S
C3120 C3119 1.366 . S
C3120 C3124 1.385 . S
C3121 H3096 0.951 . S
C3121 C3119 1.388 . S
C3121 C3122 1.366 . S
C3122 C3121 1.366 . S
C3122 C3123 1.414 . S
C3122 C3125 1.499 . S
C3123 H3097 0.950 . S
C3123 C3122 1.414 . S
C3123 C3124 1.374 . S
C3124 H3098 0.950 . S
C3124 C3120 1.385 . S
C3124 C3123 1.374 . S
C3125 C3122 1.499 . S
C3125 C3126 1.373 . S
C3125 C3127 1.389 . S
C3126 H3099 0.950 . S
C3126 C3112 1.377 . S
C3126 C3125 1.373 . S
C3127 C3111 1.377 . S
C3127 C3125 1.389 . S
C3127 C3128 1.524 . S
C3128 C3127 1.524 . S
C3128 C3129 1.397 . S
C3128 C3133 1.363 . S
C3129 H3100 0.950 . S
C3129 C3128 1.397 . S
C3129 C3130 1.334 . S
C3130 H3101 0.950 . S
C3130 C3129 1.334 . S
C3130 C3131 1.287 . S
C3131 C3130 1.287 . S
C3131 C3132 1.524 . S
C3131 H3134 0.999 . S
C3132 H3102 0.950 . S
C3132 C3131 1.524 . S
C3132 C3133 1.415 . S
C3133 H3103 0.950 . S
C3133 C3128 1.363 . S
C3133 C3132 1.415 . S
H3134 C3131 0.999 . S
H3135 C3116 0.913 . S
H3136 C3154 0.951 . S
H3137 C3156 0.951 . S
H3138 C3158 0.950 . S
H3139 C3159 0.950 . S
H3140 C3161 0.950 . S
H3141 C3164 0.950 . S
H3142 C3165 0.950 1_545 S
H3143 C3167 0.950 . S
H3144 C3168 0.950 . S
H3145 C3169 0.951 . S
H3146 C3171 0.951 . S
H3147 C3173 0.950 . S
H3148 C3174 0.950 . S
H3149 C3176 0.950 . S
H3150 C3179 0.950 . S
H3151 C3180 0.950 . S
H3152 C3182 0.950 . S
H3153 C3183 0.950 . S
C3154 H3136 0.951 . S
C3154 C3155 1.366 . S
C3154 C3156 1.388 . S
C3155 C3154 1.366 . S
C3155 C3159 1.385 . S
C3156 H3137 0.951 . S
C3156 C3154 1.388 . S
C3156 C3157 1.366 . S
C3157 C3156 1.366 . S
C3157 C3158 1.414 . S
C3157 C3160 1.499 . S
C3158 H3138 0.950 . S
C3158 C3157 1.414 . S
C3158 C3159 1.374 . S
C3159 H3139 0.950 . S
C3159 C3155 1.385 . S
C3159 C3158 1.374 . S
C3160 C3157 1.499 . S
C3160 C3161 1.373 . S
C3160 C3162 1.389 . S
C3161 H3140 0.950 . S
C3161 C3160 1.373 . S
C3161 C3177 1.377 . S
C3162 C3160 1.389 . S
C3162 C3163 1.524 . S
C3162 C3176 1.377 . S
C3163 C3162 1.524 . S
C3163 C3164 1.397 . S
C3163 C3168 1.363 . S
C3164 H3141 0.950 . S
C3164 C3163 1.397 . S
C3164 C3165 1.334 . S
C3165 H3142 0.950 1_565 S
C3165 C3164 1.334 . S
C3165 C3166 1.287 1_565 S
C3166 C3165 1.287 1_545 S
C3166 C3167 1.524 . S
C3166 H3185 0.913 . S
C3167 H3143 0.950 . S
C3167 C3166 1.524 . S
C3167 C3168 1.415 1_545 S
C3168 H3144 0.950 . S
C3168 C3163 1.363 . S
C3168 C3167 1.415 1_565 S
C3169 H3145 0.951 . S
C3169 C3170 1.366 . S
C3169 C3171 1.388 . S
C3170 C3169 1.366 . S
C3170 C3174 1.385 . S
C3171 H3146 0.951 . S
C3171 C3169 1.388 . S
C3171 C3172 1.366 . S
C3172 C3171 1.366 . S
C3172 C3173 1.414 . S
C3172 C3175 1.499 . S
C3173 H3147 0.950 . S
C3173 C3172 1.414 . S
C3173 C3174 1.374 . S
C3174 H3148 0.950 . S
C3174 C3170 1.385 . S
C3174 C3173 1.374 . S
C3175 C3172 1.499 . S
C3175 C3176 1.373 . S
C3175 C3177 1.389 . S
C3176 H3149 0.950 . S
C3176 C3162 1.377 . S
C3176 C3175 1.373 . S
C3177 C3161 1.377 . S
C3177 C3175 1.389 . S
C3177 C3178 1.524 . S
C3178 C3177 1.524 . S
C3178 C3179 1.397 . S
C3178 C3183 1.363 . S
C3179 H3150 0.950 . S
C3179 C3178 1.397 . S
C3179 C3180 1.334 . S
C3180 H3151 0.950 . S
C3180 C3179 1.334 . S
C3180 C3181 1.287 . S
C3181 C3180 1.287 . S
C3181 C3182 1.524 . S
C3181 H3184 0.999 . S
C3182 H3152 0.950 . S
C3182 C3181 1.524 . S
C3182 C3183 1.415 . S
C3183 H3153 0.950 . S
C3183 C3178 1.363 . S
C3183 C3182 1.415 . S
H3184 C3181 0.999 . S
H3185 C3166 0.913 . S
H3186 C3204 0.951 . S
H3187 C3206 0.951 . S
H3188 C3208 0.950 . S
H3189 C3209 0.950 . S
H3190 C3211 0.950 . S
H3191 C3214 0.950 . S
H3192 C3215 0.950 . S
H3193 C3217 0.950 . S
H3194 C3218 0.950 . S
H3195 C3219 0.951 . S
H3196 C3221 0.951 . S
H3197 C3223 0.950 . S
H3198 C3224 0.950 . S
H3199 C3226 0.950 . S
H3200 C3229 0.950 . S
H3201 C3230 0.950 . S
H3202 C3232 0.950 . S
H3203 C3233 0.950 . S
C3204 H3186 0.951 . S
C3204 C3205 1.366 . S
C3204 C3206 1.388 . S
C3205 C3204 1.366 . S
C3205 C3209 1.385 . S
C3206 H3187 0.951 . S
C3206 C3204 1.388 . S
C3206 C3207 1.366 . S
C3207 C3206 1.366 . S
C3207 C3208 1.414 . S
C3207 C3210 1.499 . S
C3208 H3188 0.950 . S
C3208 C3207 1.414 . S
C3208 C3209 1.374 . S
C3209 H3189 0.950 . S
C3209 C3205 1.385 . S
C3209 C3208 1.374 . S
C3210 C3207 1.499 . S
C3210 C3211 1.373 . S
C3210 C3212 1.389 . S
C3211 H3190 0.950 . S
C3211 C3210 1.373 . S
C3211 C3227 1.377 . S
C3212 C3210 1.389 . S
C3212 C3213 1.524 . S
C3212 C3226 1.377 . S
C3213 C3212 1.524 . S
C3213 C3214 1.397 . S
C3213 C3218 1.363 . S
C3214 H3191 0.950 . S
C3214 C3213 1.397 . S
C3214 C3215 1.334 . S
C3215 H3192 0.950 . S
C3215 C3214 1.334 . S
C3215 C3216 1.287 . S
C3216 C3215 1.287 . S
C3216 C3217 1.524 . S
C3216 H3235 0.913 . S
C3217 H3193 0.950 . S
C3217 C3216 1.524 . S
C3217 C3218 1.415 . S
C3218 H3194 0.950 . S
C3218 C3213 1.363 . S
C3218 C3217 1.415 . S
C3219 H3195 0.951 . S
C3219 C3220 1.366 . S
C3219 C3221 1.388 . S
C3220 C3219 1.366 . S
C3220 C3224 1.385 . S
C3221 H3196 0.951 . S
C3221 C3219 1.388 . S
C3221 C3222 1.366 . S
C3222 C3221 1.366 . S
C3222 C3223 1.414 . S
C3222 C3225 1.499 . S
C3223 H3197 0.950 . S
C3223 C3222 1.414 . S
C3223 C3224 1.374 . S
C3224 H3198 0.950 . S
C3224 C3220 1.385 . S
C3224 C3223 1.374 . S
C3225 C3222 1.499 . S
C3225 C3226 1.373 . S
C3225 C3227 1.389 . S
C3226 H3199 0.950 . S
C3226 C3212 1.377 . S
C3226 C3225 1.373 . S
C3227 C3211 1.377 . S
C3227 C3225 1.389 . S
C3227 C3228 1.524 . S
C3228 C3227 1.524 . S
C3228 C3229 1.397 . S
C3228 C3233 1.363 . S
C3229 H3200 0.950 . S
C3229 C3228 1.397 . S
C3229 C3230 1.334 . S
C3230 H3201 0.950 . S
C3230 C3229 1.334 . S
C3230 C3231 1.287 . S
C3231 C3230 1.287 . S
C3231 C3232 1.524 . S
C3231 H3234 0.999 . S
C3232 H3202 0.950 . S
C3232 C3231 1.524 . S
C3232 C3233 1.415 . S
C3233 H3203 0.950 . S
C3233 C3228 1.363 . S
C3233 C3232 1.415 . S
H3234 C3231 0.999 . S
H3235 C3216 0.913 . S
H3236 C3254 0.951 . S
H3237 C3256 0.951 . S
H3238 C3258 0.950 . S
H3239 C3259 0.950 . S
H3240 C3261 0.950 . S
H3241 C3264 0.950 . S
H3242 C3265 0.950 . S
H3243 C3267 0.950 . S
H3244 C3268 0.950 . S
H3245 C3269 0.951 . S
H3246 C3271 0.951 . S
H3247 C3273 0.950 . S
H3248 C3274 0.950 . S
H3249 C3276 0.950 . S
H3250 C3279 0.950 . S
H3251 C3280 0.950 . S
H3252 C3282 0.950 . S
H3253 C3283 0.950 . S
C3254 H3236 0.951 . S
C3254 C3255 1.366 . S
C3254 C3256 1.388 . S
C3255 C3254 1.366 . S
C3255 C3259 1.385 . S
C3256 H3237 0.951 . S
C3256 C3254 1.388 . S
C3256 C3257 1.366 . S
C3257 C3256 1.366 . S
C3257 C3258 1.414 . S
C3257 C3260 1.499 . S
C3258 H3238 0.950 . S
C3258 C3257 1.414 . S
C3258 C3259 1.374 . S
C3259 H3239 0.950 . S
C3259 C3255 1.385 . S
C3259 C3258 1.374 . S
C3260 C3257 1.499 . S
C3260 C3261 1.373 . S
C3260 C3262 1.389 . S
C3261 H3240 0.950 . S
C3261 C3260 1.373 . S
C3261 C3277 1.377 . S
C3262 C3260 1.389 . S
C3262 C3263 1.524 . S
C3262 C3276 1.377 . S
C3263 C3262 1.524 . S
C3263 C3264 1.397 . S
C3263 C3268 1.363 . S
C3264 H3241 0.950 . S
C3264 C3263 1.397 . S
C3264 C3265 1.334 . S
C3265 H3242 0.950 . S
C3265 C3264 1.334 . S
C3265 C3266 1.287 . S
C3266 C3265 1.287 . S
C3266 C3267 1.524 . S
C3266 H3285 0.913 . S
C3267 H3243 0.950 . S
C3267 C3266 1.524 . S
C3267 C3268 1.415 . S
C3268 H3244 0.950 . S
C3268 C3263 1.363 . S
C3268 C3267 1.415 . S
C3269 H3245 0.951 . S
C3269 C3270 1.366 . S
C3269 C3271 1.388 . S
C3270 C3269 1.366 . S
C3270 C3274 1.385 . S
C3271 H3246 0.951 . S
C3271 C3269 1.388 . S
C3271 C3272 1.366 . S
C3272 C3271 1.366 . S
C3272 C3273 1.414 . S
C3272 C3275 1.499 . S
C3273 H3247 0.950 . S
C3273 C3272 1.414 . S
C3273 C3274 1.374 . S
C3274 H3248 0.950 . S
C3274 C3270 1.385 . S
C3274 C3273 1.374 . S
C3275 C3272 1.499 . S
C3275 C3276 1.373 . S
C3275 C3277 1.389 . S
C3276 H3249 0.950 . S
C3276 C3262 1.377 . S
C3276 C3275 1.373 . S
C3277 C3261 1.377 . S
C3277 C3275 1.389 . S
C3277 C3278 1.524 . S
C3278 C3277 1.524 . S
C3278 C3279 1.397 . S
C3278 C3283 1.363 . S
C3279 H3250 0.950 . S
C3279 C3278 1.397 . S
C3279 C3280 1.334 . S
C3280 H3251 0.950 . S
C3280 C3279 1.334 . S
C3280 C3281 1.287 . S
C3281 C3280 1.287 . S
C3281 C3282 1.524 . S
C3281 H3284 0.999 . S
C3282 H3252 0.950 . S
C3282 C3281 1.524 . S
C3282 C3283 1.415 . S
C3283 H3253 0.950 . S
C3283 C3278 1.363 . S
C3283 C3282 1.415 . S
H3284 C3281 0.999 . S
H3285 C3266 0.913 . S
H3286 C3304 0.951 . S
H3287 C3306 0.951 . S
H3288 C3308 0.950 . S
H3289 C3309 0.950 . S
H3290 C3311 0.950 . S
H3291 C3314 0.950 . S
H3292 C3315 0.950 . S
H3293 C3317 0.950 . S
H3294 C3318 0.950 . S
H3295 C3319 0.951 . S
H3296 C3321 0.951 . S
H3297 C3323 0.950 . S
H3298 C3324 0.950 . S
H3299 C3326 0.950 . S
H3300 C3329 0.950 . S
H3301 C3330 0.950 . S
H3302 C3332 0.950 . S
H3303 C3333 0.950 . S
C3304 H3286 0.951 . S
C3304 C3305 1.366 . S
C3304 C3306 1.388 . S
C3305 C3304 1.366 . S
C3305 C3309 1.385 . S
C3306 H3287 0.951 . S
C3306 C3304 1.388 . S
C3306 C3307 1.366 . S
C3307 C3306 1.366 . S
C3307 C3308 1.414 . S
C3307 C3310 1.499 . S
C3308 H3288 0.950 . S
C3308 C3307 1.414 . S
C3308 C3309 1.374 . S
C3309 H3289 0.950 . S
C3309 C3305 1.385 . S
C3309 C3308 1.374 . S
C3310 C3307 1.499 . S
C3310 C3311 1.373 . S
C3310 C3312 1.389 . S
C3311 H3290 0.950 . S
C3311 C3310 1.373 . S
C3311 C3327 1.377 . S
C3312 C3310 1.389 . S
C3312 C3313 1.524 . S
C3312 C3326 1.377 . S
C3313 C3312 1.524 . S
C3313 C3314 1.397 . S
C3313 C3318 1.363 . S
C3314 H3291 0.950 . S
C3314 C3313 1.397 . S
C3314 C3315 1.334 . S
C3315 H3292 0.950 . S
C3315 C3314 1.334 . S
C3315 C3316 1.287 . S
C3316 C3315 1.287 . S
C3316 C3317 1.524 . S
C3316 H3335 0.913 . S
C3317 H3293 0.950 . S
C3317 C3316 1.524 . S
C3317 C3318 1.415 . S
C3318 H3294 0.950 . S
C3318 C3313 1.363 . S
C3318 C3317 1.415 . S
C3319 H3295 0.951 . S
C3319 C3320 1.366 . S
C3319 C3321 1.388 . S
C3320 C3319 1.366 . S
C3320 C3324 1.385 . S
C3321 H3296 0.951 . S
C3321 C3319 1.388 . S
C3321 C3322 1.366 . S
C3322 C3321 1.366 . S
C3322 C3323 1.414 . S
C3322 C3325 1.499 . S
C3323 H3297 0.950 . S
C3323 C3322 1.414 . S
C3323 C3324 1.374 . S
C3324 H3298 0.950 . S
C3324 C3320 1.385 . S
C3324 C3323 1.374 . S
C3325 C3322 1.499 . S
C3325 C3326 1.373 . S
C3325 C3327 1.389 . S
C3326 H3299 0.950 . S
C3326 C3312 1.377 . S
C3326 C3325 1.373 . S
C3327 C3311 1.377 . S
C3327 C3325 1.389 . S
C3327 C3328 1.524 . S
C3328 C3327 1.524 . S
C3328 C3329 1.397 . S
C3328 C3333 1.363 . S
C3329 H3300 0.950 . S
C3329 C3328 1.397 . S
C3329 C3330 1.334 . S
C3330 H3301 0.950 . S
C3330 C3329 1.334 . S
C3330 C3331 1.287 . S
C3331 C3330 1.287 . S
C3331 C3332 1.524 . S
C3331 H3334 0.999 . S
C3332 H3302 0.950 . S
C3332 C3331 1.524 . S
C3332 C3333 1.415 . S
C3333 H3303 0.950 . S
C3333 C3328 1.363 . S
C3333 C3332 1.415 . S
H3334 C3331 0.999 . S
H3335 C3316 0.913 . S
H3336 C3354 0.951 . S
H3337 C3356 0.951 . S
H3338 C3358 0.950 . S
H3339 C3359 0.950 . S
H3340 C3361 0.950 . S
H3341 C3364 0.950 . S
H3342 C3365 0.950 . S
H3343 C3367 0.950 . S
H3344 C3368 0.950 . S
H3345 C3369 0.951 . S
H3346 C3371 0.951 . S
H3347 C3373 0.950 . S
H3348 C3374 0.950 . S
H3349 C3376 0.950 . S
H3350 C3379 0.950 . S
H3351 C3380 0.950 . S
H3352 C3382 0.950 . S
H3353 C3383 0.950 . S
C3354 H3336 0.951 . S
C3354 C3355 1.366 . S
C3354 C3356 1.388 . S
C3355 C3354 1.366 . S
C3355 C3359 1.385 . S
C3356 H3337 0.951 . S
C3356 C3354 1.388 . S
C3356 C3357 1.366 . S
C3357 C3356 1.366 . S
C3357 C3358 1.414 . S
C3357 C3360 1.499 . S
C3358 H3338 0.950 . S
C3358 C3357 1.414 . S
C3358 C3359 1.374 . S
C3359 H3339 0.950 . S
C3359 C3355 1.385 . S
C3359 C3358 1.374 . S
C3360 C3357 1.499 . S
C3360 C3361 1.373 . S
C3360 C3362 1.389 . S
C3361 H3340 0.950 . S
C3361 C3360 1.373 . S
C3361 C3377 1.377 . S
C3362 C3360 1.389 . S
C3362 C3363 1.524 . S
C3362 C3376 1.377 . S
C3363 C3362 1.524 . S
C3363 C3364 1.397 . S
C3363 C3368 1.363 . S
C3364 H3341 0.950 . S
C3364 C3363 1.397 . S
C3364 C3365 1.334 . S
C3365 H3342 0.950 . S
C3365 C3364 1.334 . S
C3365 C3366 1.287 . S
C3366 C3365 1.287 . S
C3366 C3367 1.524 . S
C3366 H3385 0.913 . S
C3367 H3343 0.950 . S
C3367 C3366 1.524 . S
C3367 C3368 1.415 . S
C3368 H3344 0.950 . S
C3368 C3363 1.363 . S
C3368 C3367 1.415 . S
C3369 H3345 0.951 . S
C3369 C3370 1.366 . S
C3369 C3371 1.388 . S
C3370 C3369 1.366 . S
C3370 C3374 1.385 . S
C3371 H3346 0.951 . S
C3371 C3369 1.388 . S
C3371 C3372 1.366 . S
C3372 C3371 1.366 . S
C3372 C3373 1.414 . S
C3372 C3375 1.499 . S
C3373 H3347 0.950 . S
C3373 C3372 1.414 . S
C3373 C3374 1.374 . S
C3374 H3348 0.950 . S
C3374 C3370 1.385 . S
C3374 C3373 1.374 . S
C3375 C3372 1.499 . S
C3375 C3376 1.373 . S
C3375 C3377 1.389 . S
C3376 H3349 0.950 . S
C3376 C3362 1.377 . S
C3376 C3375 1.373 . S
C3377 C3361 1.377 . S
C3377 C3375 1.389 . S
C3377 C3378 1.524 . S
C3378 C3377 1.524 . S
C3378 C3379 1.397 . S
C3378 C3383 1.363 . S
C3379 H3350 0.950 . S
C3379 C3378 1.397 . S
C3379 C3380 1.334 . S
C3380 H3351 0.950 . S
C3380 C3379 1.334 . S
C3380 C3381 1.287 . S
C3381 C3380 1.287 . S
C3381 C3382 1.524 . S
C3381 H3384 0.999 . S
C3382 H3352 0.950 . S
C3382 C3381 1.524 . S
C3382 C3383 1.415 . S
C3383 H3353 0.950 . S
C3383 C3378 1.363 . S
C3383 C3382 1.415 . S
H3384 C3381 0.999 . S
H3385 C3366 0.913 . S
H3386 C3404 0.951 . S
H3387 C3406 0.951 . S
H3388 C3408 0.950 . S
H3389 C3409 0.950 . S
H3390 C3411 0.950 . S
H3391 C3414 0.950 . S
H3392 C3415 0.950 . S
H3393 C3417 0.950 . S
H3394 C3418 0.950 . S
H3395 C3419 0.951 . S
H3396 C3421 0.951 . S
H3397 C3423 0.950 . S
H3398 C3424 0.950 . S
H3399 C3426 0.950 . S
H3400 C3429 0.950 . S
H3401 C3430 0.950 . S
H3402 C3432 0.950 . S
H3403 C3433 0.950 . S
C3404 H3386 0.951 . S
C3404 C3405 1.366 . S
C3404 C3406 1.388 . S
C3405 C3404 1.366 . S
C3405 C3409 1.385 . S
C3406 H3387 0.951 . S
C3406 C3404 1.388 . S
C3406 C3407 1.366 . S
C3407 C3406 1.366 . S
C3407 C3408 1.414 . S
C3407 C3410 1.499 . S
C3408 H3388 0.950 . S
C3408 C3407 1.414 . S
C3408 C3409 1.374 . S
C3409 H3389 0.950 . S
C3409 C3405 1.385 . S
C3409 C3408 1.374 . S
C3410 C3407 1.499 . S
C3410 C3411 1.373 . S
C3410 C3412 1.389 . S
C3411 H3390 0.950 . S
C3411 C3410 1.373 . S
C3411 C3427 1.377 . S
C3412 C3410 1.389 . S
C3412 C3413 1.524 . S
C3412 C3426 1.377 . S
C3413 C3412 1.524 . S
C3413 C3414 1.397 . S
C3413 C3418 1.363 . S
C3414 H3391 0.950 . S
C3414 C3413 1.397 . S
C3414 C3415 1.334 . S
C3415 H3392 0.950 . S
C3415 C3414 1.334 . S
C3415 C3416 1.287 . S
C3416 C3415 1.287 . S
C3416 C3417 1.524 . S
C3416 H3435 0.913 . S
C3417 H3393 0.950 . S
C3417 C3416 1.524 . S
C3417 C3418 1.415 . S
C3418 H3394 0.950 . S
C3418 C3413 1.363 . S
C3418 C3417 1.415 . S
C3419 H3395 0.951 . S
C3419 C3420 1.366 . S
C3419 C3421 1.388 . S
C3420 C3419 1.366 . S
C3420 C3424 1.385 . S
C3421 H3396 0.951 . S
C3421 C3419 1.388 . S
C3421 C3422 1.366 . S
C3422 C3421 1.366 . S
C3422 C3423 1.414 . S
C3422 C3425 1.499 . S
C3423 H3397 0.950 . S
C3423 C3422 1.414 . S
C3423 C3424 1.374 . S
C3424 H3398 0.950 . S
C3424 C3420 1.385 . S
C3424 C3423 1.374 . S
C3425 C3422 1.499 . S
C3425 C3426 1.373 . S
C3425 C3427 1.389 . S
C3426 H3399 0.950 . S
C3426 C3412 1.377 . S
C3426 C3425 1.373 . S
C3427 C3411 1.377 . S
C3427 C3425 1.389 . S
C3427 C3428 1.524 . S
C3428 C3427 1.524 . S
C3428 C3429 1.397 . S
C3428 C3433 1.363 . S
C3429 H3400 0.950 . S
C3429 C3428 1.397 . S
C3429 C3430 1.334 . S
C3430 H3401 0.950 . S
C3430 C3429 1.334 . S
C3430 C3431 1.287 . S
C3431 C3430 1.287 . S
C3431 C3432 1.524 . S
C3431 H3434 0.999 . S
C3432 H3402 0.950 . S
C3432 C3431 1.524 . S
C3432 C3433 1.415 . S
C3433 H3403 0.950 . S
C3433 C3428 1.363 . S
C3433 C3432 1.415 . S
H3434 C3431 0.999 . S
H3435 C3416 0.913 . S
H3436 C3454 0.951 . S
H3437 C3456 0.951 . S
H3438 C3458 0.950 . S
H3439 C3459 0.950 . S
H3440 C3461 0.950 . S
H3441 C3464 0.950 . S
H3442 C3465 0.950 . S
H3443 C3467 0.950 . S
H3444 C3468 0.950 . S
H3445 C3469 0.951 . S
H3446 C3471 0.951 . S
H3447 C3473 0.950 . S
H3448 C3474 0.950 . S
H3449 C3476 0.950 . S
H3450 C3479 0.950 . S
H3451 C3480 0.950 . S
H3452 C3482 0.950 . S
H3453 C3483 0.950 . S
C3454 H3436 0.951 . S
C3454 C3455 1.366 . S
C3454 C3456 1.388 . S
C3455 C3454 1.366 . S
C3455 C3459 1.385 . S
C3456 H3437 0.951 . S
C3456 C3454 1.388 . S
C3456 C3457 1.366 . S
C3457 C3456 1.366 . S
C3457 C3458 1.414 . S
C3457 C3460 1.499 . S
C3458 H3438 0.950 . S
C3458 C3457 1.414 . S
C3458 C3459 1.374 . S
C3459 H3439 0.950 . S
C3459 C3455 1.385 . S
C3459 C3458 1.374 . S
C3460 C3457 1.499 . S
C3460 C3461 1.373 . S
C3460 C3462 1.389 . S
C3461 H3440 0.950 . S
C3461 C3460 1.373 . S
C3461 C3477 1.377 . S
C3462 C3460 1.389 . S
C3462 C3463 1.524 . S
C3462 C3476 1.377 . S
C3463 C3462 1.524 . S
C3463 C3464 1.397 . S
C3463 C3468 1.363 . S
C3464 H3441 0.950 . S
C3464 C3463 1.397 . S
C3464 C3465 1.334 . S
C3465 H3442 0.950 . S
C3465 C3464 1.334 . S
C3465 C3466 1.287 . S
C3466 C3465 1.287 . S
C3466 C3467 1.524 . S
C3466 H3485 0.913 . S
C3467 H3443 0.950 . S
C3467 C3466 1.524 . S
C3467 C3468 1.415 . S
C3468 H3444 0.950 . S
C3468 C3463 1.363 . S
C3468 C3467 1.415 . S
C3469 H3445 0.951 . S
C3469 C3470 1.366 . S
C3469 C3471 1.388 . S
C3470 C3469 1.366 . S
C3470 C3474 1.385 . S
C3471 H3446 0.951 . S
C3471 C3469 1.388 . S
C3471 C3472 1.366 . S
C3472 C3471 1.366 . S
C3472 C3473 1.414 . S
C3472 C3475 1.499 . S
C3473 H3447 0.950 . S
C3473 C3472 1.414 . S
C3473 C3474 1.374 . S
C3474 H3448 0.950 . S
C3474 C3470 1.385 . S
C3474 C3473 1.374 . S
C3475 C3472 1.499 . S
C3475 C3476 1.373 . S
C3475 C3477 1.389 . S
C3476 H3449 0.950 . S
C3476 C3462 1.377 . S
C3476 C3475 1.373 . S
C3477 C3461 1.377 . S
C3477 C3475 1.389 . S
C3477 C3478 1.524 . S
C3478 C3477 1.524 . S
C3478 C3479 1.397 . S
C3478 C3483 1.363 . S
C3479 H3450 0.950 . S
C3479 C3478 1.397 . S
C3479 C3480 1.334 . S
C3480 H3451 0.950 . S
C3480 C3479 1.334 . S
C3480 C3481 1.287 . S
C3481 C3480 1.287 . S
C3481 C3482 1.524 . S
C3481 H3484 0.999 . S
C3482 H3452 0.950 . S
C3482 C3481 1.524 . S
C3482 C3483 1.415 . S
C3483 H3453 0.950 . S
C3483 C3478 1.363 . S
C3483 C3482 1.415 . S
H3484 C3481 0.999 . S
H3485 C3466 0.913 . S
H3486 C3504 0.951 . S
H3487 C3506 0.951 . S
H3488 C3508 0.950 . S
H3489 C3509 0.950 . S
H3490 C3511 0.950 . S
H3491 C3514 0.950 . S
H3492 C3515 0.950 . S
H3493 C3517 0.950 . S
H3494 C3518 0.950 . S
H3495 C3519 0.951 . S
H3496 C3521 0.951 . S
H3497 C3523 0.950 . S
H3498 C3524 0.950 . S
H3499 C3526 0.950 . S
H3500 C3529 0.950 . S
H3501 C3530 0.950 . S
H3502 C3532 0.950 . S
H3503 C3533 0.950 . S
C3504 H3486 0.951 . S
C3504 C3505 1.366 . S
C3504 C3506 1.388 . S
C3505 C3504 1.366 . S
C3505 C3509 1.385 . S
C3506 H3487 0.951 . S
C3506 C3504 1.388 . S
C3506 C3507 1.366 . S
C3507 C3506 1.366 . S
C3507 C3508 1.414 . S
C3507 C3510 1.499 . S
C3508 H3488 0.950 . S
C3508 C3507 1.414 . S
C3508 C3509 1.374 . S
C3509 H3489 0.950 . S
C3509 C3505 1.385 . S
C3509 C3508 1.374 . S
C3510 C3507 1.499 . S
C3510 C3511 1.373 . S
C3510 C3512 1.389 . S
C3511 H3490 0.950 . S
C3511 C3510 1.373 . S
C3511 C3527 1.377 . S
C3512 C3510 1.389 . S
C3512 C3513 1.524 . S
C3512 C3526 1.377 . S
C3513 C3512 1.524 . S
C3513 C3514 1.397 . S
C3513 C3518 1.363 . S
C3514 H3491 0.950 . S
C3514 C3513 1.397 . S
C3514 C3515 1.334 . S
C3515 H3492 0.950 . S
C3515 C3514 1.334 . S
C3515 C3516 1.287 . S
C3516 C3515 1.287 . S
C3516 C3517 1.524 . S
C3516 H3535 0.913 . S
C3517 H3493 0.950 . S
C3517 C3516 1.524 . S
C3517 C3518 1.415 . S
C3518 H3494 0.950 . S
C3518 C3513 1.363 . S
C3518 C3517 1.415 . S
C3519 H3495 0.951 . S
C3519 C3520 1.366 . S
C3519 C3521 1.388 . S
C3520 C3519 1.366 . S
C3520 C3524 1.385 . S
C3521 H3496 0.951 . S
C3521 C3519 1.388 . S
C3521 C3522 1.366 . S
C3522 C3521 1.366 . S
C3522 C3523 1.414 . S
C3522 C3525 1.499 . S
C3523 H3497 0.950 . S
C3523 C3522 1.414 . S
C3523 C3524 1.374 . S
C3524 H3498 0.950 . S
C3524 C3520 1.385 . S
C3524 C3523 1.374 . S
C3525 C3522 1.499 . S
C3525 C3526 1.373 . S
C3525 C3527 1.389 . S
C3526 H3499 0.950 . S
C3526 C3512 1.377 . S
C3526 C3525 1.373 . S
C3527 C3511 1.377 . S
C3527 C3525 1.389 . S
C3527 C3528 1.524 . S
C3528 C3527 1.524 . S
C3528 C3529 1.397 . S
C3528 C3533 1.363 . S
C3529 H3500 0.950 . S
C3529 C3528 1.397 . S
C3529 C3530 1.334 . S
C3530 H3501 0.950 . S
C3530 C3529 1.334 . S
C3530 C3531 1.287 . S
C3531 C3530 1.287 . S
C3531 C3532 1.524 . S
C3531 H3534 0.999 . S
C3532 H3502 0.950 . S
C3532 C3531 1.524 . S
C3532 C3533 1.415 . S
C3533 H3503 0.950 . S
C3533 C3528 1.363 . S
C3533 C3532 1.415 . S
H3534 C3531 0.999 . S
H3535 C3516 0.913 . S
H3536 C3554 0.951 . S
H3537 C3556 0.951 . S
H3538 C3558 0.950 . S
H3539 C3559 0.950 . S
H3540 C3561 0.950 . S
H3541 C3564 0.950 . S
H3542 C3565 0.950 . S
H3543 C3567 0.957 . S
H3544 C3568 0.950 . S
H3545 C3569 0.951 . S
H3546 C3571 0.951 . S
H3547 C3573 0.950 . S
H3548 C3574 0.950 . S
H3549 C3576 0.950 . S
H3550 C3579 0.950 . S
H3551 C3580 0.950 . S
H3552 C3582 0.950 . S
H3553 C3583 0.950 . S
C3554 H3536 0.951 . S
C3554 C3555 1.366 . S
C3554 C3556 1.388 . S
C3555 C3554 1.366 . S
C3555 C3559 1.385 . S
C3556 H3537 0.951 . S
C3556 C3554 1.388 . S
C3556 C3557 1.366 . S
C3557 C3556 1.366 . S
C3557 C3558 1.414 . S
C3557 C3560 1.499 . S
C3558 H3538 0.950 . S
C3558 C3557 1.414 . S
C3558 C3559 1.374 . S
C3559 H3539 0.950 . S
C3559 C3555 1.385 . S
C3559 C3558 1.374 . S
C3560 C3557 1.499 . S
C3560 C3561 1.373 . S
C3560 C3562 1.389 . S
C3561 H3540 0.950 . S
C3561 C3560 1.373 . S
C3561 C3577 1.377 . S
C3562 C3560 1.389 . S
C3562 C3563 1.524 . S
C3562 C3576 1.377 . S
C3563 C3562 1.524 . S
C3563 C3564 1.397 . S
C3563 C3568 1.363 . S
C3564 H3541 0.950 . S
C3564 C3563 1.397 . S
C3564 C3565 1.334 . S
C3565 H3542 0.950 . S
C3565 C3564 1.334 . S
C3565 C3566 1.287 1_655 S
C3566 C3565 1.287 1_455 S
C3566 C3567 1.528 . S
C3566 H3585 0.913 . S
C3567 H3543 0.957 . S
C3567 C3566 1.528 . S
C3567 C3568 1.403 1_455 S
C3568 H3544 0.950 . S
C3568 C3563 1.363 . S
C3568 C3567 1.403 1_655 S
C3569 H3545 0.951 . S
C3569 C3570 1.366 . S
C3569 C3571 1.388 . S
C3570 C3569 1.366 . S
C3570 C3574 1.385 . S
C3571 H3546 0.951 . S
C3571 C3569 1.388 . S
C3571 C3572 1.366 . S
C3572 C3571 1.366 . S
C3572 C3573 1.414 . S
C3572 C3575 1.499 . S
C3573 H3547 0.950 . S
C3573 C3572 1.414 . S
C3573 C3574 1.374 . S
C3574 H3548 0.950 . S
C3574 C3570 1.385 . S
C3574 C3573 1.374 . S
C3575 C3572 1.499 . S
C3575 C3576 1.373 . S
C3575 C3577 1.389 . S
C3576 H3549 0.950 . S
C3576 C3562 1.377 . S
C3576 C3575 1.373 . S
C3577 C3561 1.377 . S
C3577 C3575 1.389 . S
C3577 C3578 1.524 . S
C3578 C3577 1.524 . S
C3578 C3579 1.397 . S
C3578 C3583 1.363 . S
C3579 H3550 0.950 . S
C3579 C3578 1.397 . S
C3579 C3580 1.334 . S
C3580 H3551 0.950 . S
C3580 C3579 1.334 . S
C3580 C3581 1.287 . S
C3581 C3580 1.287 . S
C3581 C3582 1.524 . S
C3581 H3584 0.999 . S
C3582 H3552 0.950 . S
C3582 C3581 1.524 . S
C3582 C3583 1.415 . S
C3583 H3553 0.950 . S
C3583 C3578 1.363 . S
C3583 C3582 1.415 . S
H3584 C3581 0.999 . S
H3585 C3566 0.913 . S
H3586 C3604 0.951 . S
H3587 C3606 0.951 . S
H3588 C3608 0.950 . S
H3589 C3609 0.950 . S
H3590 C3611 0.950 . S
H3591 C3614 0.950 . S
H3592 C3615 0.950 . S
H3593 C3617 0.950 . S
H3594 C3618 0.950 . S
H3595 C3619 0.951 . S
H3596 C3621 0.951 . S
H3597 C3623 0.950 . S
H3598 C3624 0.950 . S
H3599 C3626 0.950 . S
H3600 C3629 0.950 . S
H3601 C3630 0.950 . S
H3602 C3632 0.950 . S
H3603 C3633 0.950 . S
C3604 H3586 0.951 . S
C3604 C3605 1.366 . S
C3604 C3606 1.388 . S
C3605 C3604 1.366 . S
C3605 C3609 1.385 . S
C3606 H3587 0.951 . S
C3606 C3604 1.388 . S
C3606 C3607 1.366 . S
C3607 C3606 1.366 . S
C3607 C3608 1.414 . S
C3607 C3610 1.499 . S
C3608 H3588 0.950 . S
C3608 C3607 1.414 . S
C3608 C3609 1.374 . S
C3609 H3589 0.950 . S
C3609 C3605 1.385 . S
C3609 C3608 1.374 . S
C3610 C3607 1.499 . S
C3610 C3611 1.373 . S
C3610 C3612 1.389 . S
C3611 H3590 0.950 . S
C3611 C3610 1.373 . S
C3611 C3627 1.377 . S
C3612 C3610 1.389 . S
C3612 C3613 1.524 . S
C3612 C3626 1.377 . S
C3613 C3612 1.524 . S
C3613 C3614 1.397 . S
C3613 C3618 1.363 . S
C3614 H3591 0.950 . S
C3614 C3613 1.397 . S
C3614 C3615 1.334 . S
C3615 H3592 0.950 . S
C3615 C3614 1.334 . S
C3615 C3616 1.287 . S
C3616 C3615 1.287 . S
C3616 C3617 1.524 . S
C3616 H3635 0.913 . S
C3617 H3593 0.950 . S
C3617 C3616 1.524 . S
C3617 C3618 1.415 . S
C3618 H3594 0.950 . S
C3618 C3613 1.363 . S
C3618 C3617 1.415 . S
C3619 H3595 0.951 . S
C3619 C3620 1.366 . S
C3619 C3621 1.388 . S
C3620 C3619 1.366 . S
C3620 C3624 1.385 . S
C3621 H3596 0.951 . S
C3621 C3619 1.388 . S
C3621 C3622 1.366 . S
C3622 C3621 1.366 . S
C3622 C3623 1.414 . S
C3622 C3625 1.499 . S
C3623 H3597 0.950 . S
C3623 C3622 1.414 . S
C3623 C3624 1.374 . S
C3624 H3598 0.950 . S
C3624 C3620 1.385 . S
C3624 C3623 1.374 . S
C3625 C3622 1.499 . S
C3625 C3626 1.373 . S
C3625 C3627 1.389 . S
C3626 H3599 0.950 . S
C3626 C3612 1.377 . S
C3626 C3625 1.373 . S
C3627 C3611 1.377 . S
C3627 C3625 1.389 . S
C3627 C3628 1.524 . S
C3628 C3627 1.524 . S
C3628 C3629 1.397 . S
C3628 C3633 1.363 . S
C3629 H3600 0.950 . S
C3629 C3628 1.397 . S
C3629 C3630 1.334 . S
C3630 H3601 0.950 . S
C3630 C3629 1.334 . S
C3630 C3631 1.287 . S
C3631 C3630 1.287 . S
C3631 C3632 1.524 . S
C3631 H3634 0.999 . S
C3632 H3602 0.950 . S
C3632 C3631 1.524 . S
C3632 C3633 1.415 . S
C3633 H3603 0.950 . S
C3633 C3628 1.363 . S
C3633 C3632 1.415 . S
H3634 C3631 0.999 . S
H3635 C3616 0.913 . S
H3636 C3654 0.951 . S
H3637 C3656 0.951 . S
H3638 C3658 0.950 . S
H3639 C3659 0.950 . S
H3640 C3661 0.950 . S
H3641 C3664 0.950 . S
H3642 C3665 0.950 . S
H3643 C3667 0.950 . S
H3644 C3668 0.950 . S
H3645 C3669 0.951 . S
H3646 C3671 0.951 . S
H3647 C3673 0.950 . S
H3648 C3674 0.950 . S
H3649 C3676 0.950 . S
H3650 C3679 0.950 . S
H3651 C3680 0.950 . S
H3652 C3682 0.950 . S
H3653 C3683 0.950 . S
C3654 H3636 0.951 . S
C3654 C3655 1.366 . S
C3654 C3656 1.388 . S
C3655 C3654 1.366 . S
C3655 C3659 1.385 . S
C3656 H3637 0.951 . S
C3656 C3654 1.388 . S
C3656 C3657 1.366 . S
C3657 C3656 1.366 . S
C3657 C3658 1.414 . S
C3657 C3660 1.499 . S
C3658 H3638 0.950 . S
C3658 C3657 1.414 . S
C3658 C3659 1.374 . S
C3659 H3639 0.950 . S
C3659 C3655 1.385 . S
C3659 C3658 1.374 . S
C3660 C3657 1.499 . S
C3660 C3661 1.373 . S
C3660 C3662 1.389 . S
C3661 H3640 0.950 . S
C3661 C3660 1.373 . S
C3661 C3677 1.377 . S
C3662 C3660 1.389 . S
C3662 C3663 1.524 . S
C3662 C3676 1.377 . S
C3663 C3662 1.524 . S
C3663 C3664 1.397 . S
C3663 C3668 1.363 . S
C3664 H3641 0.950 . S
C3664 C3663 1.397 . S
C3664 C3665 1.334 . S
C3665 H3642 0.950 . S
C3665 C3664 1.334 . S
C3665 C3666 1.287 . S
C3666 C3665 1.287 . S
C3666 C3667 1.524 . S
C3666 H3685 0.913 . S
C3667 H3643 0.950 . S
C3667 C3666 1.524 . S
C3667 C3668 1.415 . S
C3668 H3644 0.950 . S
C3668 C3663 1.363 . S
C3668 C3667 1.415 . S
C3669 H3645 0.951 . S
C3669 C3670 1.366 . S
C3669 C3671 1.388 . S
C3670 C3669 1.366 . S
C3670 C3674 1.385 . S
C3671 H3646 0.951 . S
C3671 C3669 1.388 . S
C3671 C3672 1.366 . S
C3672 C3671 1.366 . S
C3672 C3673 1.414 . S
C3672 C3675 1.499 . S
C3673 H3647 0.950 . S
C3673 C3672 1.414 . S
C3673 C3674 1.374 . S
C3674 H3648 0.950 . S
C3674 C3670 1.385 . S
C3674 C3673 1.374 . S
C3675 C3672 1.499 . S
C3675 C3676 1.373 . S
C3675 C3677 1.389 . S
C3676 H3649 0.950 . S
C3676 C3662 1.377 . S
C3676 C3675 1.373 . S
C3677 C3661 1.377 . S
C3677 C3675 1.389 . S
C3677 C3678 1.524 . S
C3678 C3677 1.524 . S
C3678 C3679 1.397 . S
C3678 C3683 1.363 . S
C3679 H3650 0.950 . S
C3679 C3678 1.397 . S
C3679 C3680 1.334 . S
C3680 H3651 0.950 . S
C3680 C3679 1.334 . S
C3680 C3681 1.287 . S
C3681 C3680 1.287 . S
C3681 C3682 1.524 . S
C3681 H3684 0.999 . S
C3682 H3652 0.950 . S
C3682 C3681 1.524 . S
C3682 C3683 1.415 . S
C3683 H3653 0.950 . S
C3683 C3678 1.363 . S
C3683 C3682 1.415 . S
H3684 C3681 0.999 . S
H3685 C3666 0.913 . S
H3686 C3704 0.951 . S
H3687 C3706 0.951 . S
H3688 C3708 0.950 . S
H3689 C3709 0.950 . S
H3690 C3711 0.950 . S
H3691 C3714 0.950 . S
H3692 C3715 0.950 . S
H3693 C3717 0.950 . S
H3694 C3718 0.950 . S
H3695 C3719 0.951 . S
H3696 C3721 0.951 . S
H3697 C3723 0.950 . S
H3698 C3724 0.950 . S
H3699 C3726 0.950 . S
H3700 C3729 0.950 . S
H3701 C3730 0.950 . S
H3702 C3732 0.950 . S
H3703 C3733 0.950 . S
C3704 H3686 0.951 . S
C3704 C3705 1.366 . S
C3704 C3706 1.388 . S
C3705 C3704 1.366 . S
C3705 C3709 1.385 . S
C3706 H3687 0.951 . S
C3706 C3704 1.388 . S
C3706 C3707 1.366 . S
C3707 C3706 1.366 . S
C3707 C3708 1.414 . S
C3707 C3710 1.499 . S
C3708 H3688 0.950 . S
C3708 C3707 1.414 . S
C3708 C3709 1.374 . S
C3709 H3689 0.950 . S
C3709 C3705 1.385 . S
C3709 C3708 1.374 . S
C3710 C3707 1.499 . S
C3710 C3711 1.373 . S
C3710 C3712 1.389 . S
C3711 H3690 0.950 . S
C3711 C3710 1.373 . S
C3711 C3727 1.377 . S
C3712 C3710 1.389 . S
C3712 C3713 1.524 . S
C3712 C3726 1.377 . S
C3713 C3712 1.524 . S
C3713 C3714 1.397 . S
C3713 C3718 1.363 . S
C3714 H3691 0.950 . S
C3714 C3713 1.397 . S
C3714 C3715 1.334 . S
C3715 H3692 0.950 . S
C3715 C3714 1.334 . S
C3715 C3716 1.287 . S
C3716 C3715 1.287 . S
C3716 C3717 1.524 . S
C3716 H3735 0.913 . S
C3717 H3693 0.950 . S
C3717 C3716 1.524 . S
C3717 C3718 1.415 . S
C3718 H3694 0.950 . S
C3718 C3713 1.363 . S
C3718 C3717 1.415 . S
C3719 H3695 0.951 . S
C3719 C3720 1.366 . S
C3719 C3721 1.388 . S
C3720 C3719 1.366 . S
C3720 C3724 1.385 . S
C3721 H3696 0.951 . S
C3721 C3719 1.388 . S
C3721 C3722 1.366 . S
C3722 C3721 1.366 . S
C3722 C3723 1.414 . S
C3722 C3725 1.499 . S
C3723 H3697 0.950 . S
C3723 C3722 1.414 . S
C3723 C3724 1.374 . S
C3724 H3698 0.950 . S
C3724 C3720 1.385 . S
C3724 C3723 1.374 . S
C3725 C3722 1.499 . S
C3725 C3726 1.373 . S
C3725 C3727 1.389 . S
C3726 H3699 0.950 . S
C3726 C3712 1.377 . S
C3726 C3725 1.373 . S
C3727 C3711 1.377 . S
C3727 C3725 1.389 . S
C3727 C3728 1.524 . S
C3728 C3727 1.524 . S
C3728 C3729 1.397 . S
C3728 C3733 1.363 . S
C3729 H3700 0.950 . S
C3729 C3728 1.397 . S
C3729 C3730 1.334 . S
C3730 H3701 0.950 . S
C3730 C3729 1.334 . S
C3730 C3731 1.287 . S
C3731 C3730 1.287 . S
C3731 C3732 1.524 . S
C3731 H3734 0.999 . S
C3732 H3702 0.950 . S
C3732 C3731 1.524 . S
C3732 C3733 1.415 . S
C3733 H3703 0.950 . S
C3733 C3728 1.363 . S
C3733 C3732 1.415 . S
H3734 C3731 0.999 . S
H3735 C3716 0.913 . S
H3736 C3754 0.951 . S
H3737 C3756 0.951 . S
H3738 C3758 0.950 . S
H3739 C3759 0.950 . S
H3740 C3761 0.950 . S
H3741 C3764 0.950 . S
H3742 C3765 0.950 . S
H3743 C3767 0.950 . S
H3744 C3768 0.950 . S
H3745 C3769 0.951 . S
H3746 C3771 0.951 . S
H3747 C3773 0.950 . S
H3748 C3774 0.950 . S
H3749 C3776 0.950 . S
H3750 C3779 0.950 . S
H3751 C3780 0.950 . S
H3752 C3782 0.950 . S
H3753 C3783 0.950 . S
C3754 H3736 0.951 . S
C3754 C3755 1.366 . S
C3754 C3756 1.388 . S
C3755 C3754 1.366 . S
C3755 C3759 1.385 . S
C3756 H3737 0.951 . S
C3756 C3754 1.388 . S
C3756 C3757 1.366 . S
C3757 C3756 1.366 . S
C3757 C3758 1.414 . S
C3757 C3760 1.499 . S
C3758 H3738 0.950 . S
C3758 C3757 1.414 . S
C3758 C3759 1.374 . S
C3759 H3739 0.950 . S
C3759 C3755 1.385 . S
C3759 C3758 1.374 . S
C3760 C3757 1.499 . S
C3760 C3761 1.373 . S
C3760 C3762 1.389 . S
C3761 H3740 0.950 . S
C3761 C3760 1.373 . S
C3761 C3777 1.377 . S
C3762 C3760 1.389 . S
C3762 C3763 1.524 . S
C3762 C3776 1.377 . S
C3763 C3762 1.524 . S
C3763 C3764 1.397 . S
C3763 C3768 1.363 . S
C3764 H3741 0.950 . S
C3764 C3763 1.397 . S
C3764 C3765 1.334 . S
C3765 H3742 0.950 . S
C3765 C3764 1.334 . S
C3765 C3766 1.287 . S
C3766 C3765 1.287 . S
C3766 C3767 1.524 . S
C3766 H3785 0.913 . S
C3767 H3743 0.950 . S
C3767 C3766 1.524 . S
C3767 C3768 1.415 . S
C3768 H3744 0.950 . S
C3768 C3763 1.363 . S
C3768 C3767 1.415 . S
C3769 H3745 0.951 . S
C3769 C3770 1.366 . S
C3769 C3771 1.388 . S
C3770 C3769 1.366 . S
C3770 C3774 1.385 . S
C3771 H3746 0.951 . S
C3771 C3769 1.388 . S
C3771 C3772 1.366 . S
C3772 C3771 1.366 . S
C3772 C3773 1.414 . S
C3772 C3775 1.499 . S
C3773 H3747 0.950 . S
C3773 C3772 1.414 . S
C3773 C3774 1.374 . S
C3774 H3748 0.950 . S
C3774 C3770 1.385 . S
C3774 C3773 1.374 . S
C3775 C3772 1.499 . S
C3775 C3776 1.373 . S
C3775 C3777 1.389 . S
C3776 H3749 0.950 . S
C3776 C3762 1.377 . S
C3776 C3775 1.373 . S
C3777 C3761 1.377 . S
C3777 C3775 1.389 . S
C3777 C3778 1.524 . S
C3778 C3777 1.524 . S
C3778 C3779 1.397 . S
C3778 C3783 1.363 . S
C3779 H3750 0.950 . S
C3779 C3778 1.397 . S
C3779 C3780 1.334 . S
C3780 H3751 0.950 . S
C3780 C3779 1.334 . S
C3780 C3781 1.287 . S
C3781 C3780 1.287 . S
C3781 C3782 1.524 . S
C3781 H3784 0.999 . S
C3782 H3752 0.950 . S
C3782 C3781 1.524 . S
C3782 C3783 1.415 . S
C3783 H3753 0.950 . S
C3783 C3778 1.363 . S
C3783 C3782 1.415 . S
H3784 C3781 0.999 . S
H3785 C3766 0.913 . S
H3786 C3804 0.951 . S
H3787 C3806 0.951 . S
H3788 C3808 0.950 . S
H3789 C3809 0.950 . S
H3790 C3811 0.950 . S
H3791 C3814 0.950 . S
H3792 C3815 0.950 . S
H3793 C3817 0.950 . S
H3794 C3818 0.950 . S
H3795 C3819 0.951 . S
H3796 C3821 0.951 . S
H3797 C3823 0.950 . S
H3798 C3824 0.950 . S
H3799 C3826 0.950 . S
H3800 C3829 0.950 . S
H3801 C3830 0.950 . S
H3802 C3832 0.950 . S
H3803 C3833 0.950 . S
C3804 H3786 0.951 . S
C3804 C3805 1.366 . S
C3804 C3806 1.388 . S
C3805 C3804 1.366 . S
C3805 C3809 1.385 . S
C3806 H3787 0.951 . S
C3806 C3804 1.388 . S
C3806 C3807 1.366 . S
C3807 C3806 1.366 . S
C3807 C3808 1.414 . S
C3807 C3810 1.499 . S
C3808 H3788 0.950 . S
C3808 C3807 1.414 . S
C3808 C3809 1.374 . S
C3809 H3789 0.950 . S
C3809 C3805 1.385 . S
C3809 C3808 1.374 . S
C3810 C3807 1.499 . S
C3810 C3811 1.373 . S
C3810 C3812 1.389 . S
C3811 H3790 0.950 . S
C3811 C3810 1.373 . S
C3811 C3827 1.377 . S
C3812 C3810 1.389 . S
C3812 C3813 1.524 . S
C3812 C3826 1.377 . S
C3813 C3812 1.524 . S
C3813 C3814 1.397 . S
C3813 C3818 1.363 . S
C3814 H3791 0.950 . S
C3814 C3813 1.397 . S
C3814 C3815 1.334 . S
C3815 H3792 0.950 . S
C3815 C3814 1.334 . S
C3815 C3816 1.287 . S
C3816 C3815 1.287 . S
C3816 C3817 1.524 . S
C3816 H3835 0.913 . S
C3817 H3793 0.950 . S
C3817 C3816 1.524 . S
C3817 C3818 1.415 . S
C3818 H3794 0.950 . S
C3818 C3813 1.363 . S
C3818 C3817 1.415 . S
C3819 H3795 0.951 . S
C3819 C3820 1.366 . S
C3819 C3821 1.388 . S
C3820 C3819 1.366 . S
C3820 C3824 1.385 . S
C3821 H3796 0.951 . S
C3821 C3819 1.388 . S
C3821 C3822 1.366 . S
C3822 C3821 1.366 . S
C3822 C3823 1.414 . S
C3822 C3825 1.499 . S
C3823 H3797 0.950 . S
C3823 C3822 1.414 . S
C3823 C3824 1.374 . S
C3824 H3798 0.950 . S
C3824 C3820 1.385 . S
C3824 C3823 1.374 . S
C3825 C3822 1.499 . S
C3825 C3826 1.373 . S
C3825 C3827 1.389 . S
C3826 H3799 0.950 . S
C3826 C3812 1.377 . S
C3826 C3825 1.373 . S
C3827 C3811 1.377 . S
C3827 C3825 1.389 . S
C3827 C3828 1.524 . S
C3828 C3827 1.524 . S
C3828 C3829 1.397 . S
C3828 C3833 1.363 . S
C3829 H3800 0.950 . S
C3829 C3828 1.397 . S
C3829 C3830 1.334 . S
C3830 H3801 0.950 . S
C3830 C3829 1.334 . S
C3830 C3831 1.287 . S
C3831 C3830 1.287 . S
C3831 C3832 1.524 . S
C3831 H3834 0.999 . S
C3832 H3802 0.950 . S
C3832 C3831 1.524 . S
C3832 C3833 1.415 . S
C3833 H3803 0.950 . S
C3833 C3828 1.363 . S
C3833 C3832 1.415 . S
H3834 C3831 0.999 . S
H3835 C3816 0.913 . S
H3836 C3854 0.951 . S
H3837 C3856 0.951 . S
H3838 C3858 0.950 . S
H3839 C3859 0.950 . S
H3840 C3861 0.950 . S
H3841 C3864 0.950 . S
H3842 C3865 0.950 . S
H3843 C3867 0.950 . S
H3844 C3868 0.950 . S
H3845 C3869 0.951 . S
H3846 C3871 0.951 . S
H3847 C3873 0.950 . S
H3848 C3874 0.950 . S
H3849 C3876 0.950 . S
H3850 C3879 0.950 . S
H3851 C3880 0.950 . S
H3852 C3882 0.950 . S
H3853 C3883 0.950 . S
C3854 H3836 0.951 . S
C3854 C3855 1.366 . S
C3854 C3856 1.388 . S
C3855 C3854 1.366 . S
C3855 C3859 1.385 . S
C3856 H3837 0.951 . S
C3856 C3854 1.388 . S
C3856 C3857 1.366 . S
C3857 C3856 1.366 . S
C3857 C3858 1.414 . S
C3857 C3860 1.499 . S
C3858 H3838 0.950 . S
C3858 C3857 1.414 . S
C3858 C3859 1.374 . S
C3859 H3839 0.950 . S
C3859 C3855 1.385 . S
C3859 C3858 1.374 . S
C3860 C3857 1.499 . S
C3860 C3861 1.373 . S
C3860 C3862 1.389 . S
C3861 H3840 0.950 . S
C3861 C3860 1.373 . S
C3861 C3877 1.377 . S
C3862 C3860 1.389 . S
C3862 C3863 1.524 . S
C3862 C3876 1.377 . S
C3863 C3862 1.524 . S
C3863 C3864 1.397 . S
C3863 C3868 1.363 . S
C3864 H3841 0.950 . S
C3864 C3863 1.397 . S
C3864 C3865 1.334 . S
C3865 H3842 0.950 . S
C3865 C3864 1.334 . S
C3865 C3866 1.287 . S
C3866 C3865 1.287 . S
C3866 C3867 1.524 . S
C3866 H3885 0.913 . S
C3867 H3843 0.950 . S
C3867 C3866 1.524 . S
C3867 C3868 1.415 . S
C3868 H3844 0.950 . S
C3868 C3863 1.363 . S
C3868 C3867 1.415 . S
C3869 H3845 0.951 . S
C3869 C3870 1.366 . S
C3869 C3871 1.388 . S
C3870 C3869 1.366 . S
C3870 C3874 1.385 . S
C3871 H3846 0.951 . S
C3871 C3869 1.388 . S
C3871 C3872 1.366 . S
C3872 C3871 1.366 . S
C3872 C3873 1.414 . S
C3872 C3875 1.499 . S
C3873 H3847 0.950 . S
C3873 C3872 1.414 . S
C3873 C3874 1.374 . S
C3874 H3848 0.950 . S
C3874 C3870 1.385 . S
C3874 C3873 1.374 . S
C3875 C3872 1.499 . S
C3875 C3876 1.373 . S
C3875 C3877 1.389 . S
C3876 H3849 0.950 . S
C3876 C3862 1.377 . S
C3876 C3875 1.373 . S
C3877 C3861 1.377 . S
C3877 C3875 1.389 . S
C3877 C3878 1.524 . S
C3878 C3877 1.524 . S
C3878 C3879 1.397 . S
C3878 C3883 1.363 . S
C3879 H3850 0.950 . S
C3879 C3878 1.397 . S
C3879 C3880 1.334 . S
C3880 H3851 0.950 . S
C3880 C3879 1.334 . S
C3880 C3881 1.287 . S
C3881 C3880 1.287 . S
C3881 C3882 1.524 . S
C3881 H3884 0.999 . S
C3882 H3852 0.950 . S
C3882 C3881 1.524 . S
C3882 C3883 1.415 . S
C3883 H3853 0.950 . S
C3883 C3878 1.363 . S
C3883 C3882 1.415 . S
H3884 C3881 0.999 . S
H3885 C3866 0.913 . S
H3886 C3904 0.951 . S
H3887 C3906 0.951 . S
H3888 C3908 0.950 . S
H3889 C3909 0.950 . S
H3890 C3911 0.950 . S
H3891 C3914 0.950 . S
H3892 C3915 0.950 . S
H3893 C3917 0.950 . S
H3894 C3918 0.950 . S
H3895 C3919 0.951 . S
H3896 C3921 0.951 . S
H3897 C3923 0.950 . S
H3898 C3924 0.950 . S
H3899 C3926 0.950 . S
H3900 C3929 0.950 . S
H3901 C3930 0.950 . S
H3902 C3932 0.950 . S
H3903 C3933 0.950 . S
C3904 H3886 0.951 . S
C3904 C3905 1.366 . S
C3904 C3906 1.388 . S
C3905 C3904 1.366 . S
C3905 C3909 1.385 . S
C3906 H3887 0.951 . S
C3906 C3904 1.388 . S
C3906 C3907 1.366 . S
C3907 C3906 1.366 . S
C3907 C3908 1.414 . S
C3907 C3910 1.499 . S
C3908 H3888 0.950 . S
C3908 C3907 1.414 . S
C3908 C3909 1.374 . S
C3909 H3889 0.950 . S
C3909 C3905 1.385 . S
C3909 C3908 1.374 . S
C3910 C3907 1.499 . S
C3910 C3911 1.373 . S
C3910 C3912 1.389 . S
C3911 H3890 0.950 . S
C3911 C3910 1.373 . S
C3911 C3927 1.377 . S
C3912 C3910 1.389 . S
C3912 C3913 1.524 . S
C3912 C3926 1.377 . S
C3913 C3912 1.524 . S
C3913 C3914 1.397 . S
C3913 C3918 1.363 . S
C3914 H3891 0.950 . S
C3914 C3913 1.397 . S
C3914 C3915 1.334 . S
C3915 H3892 0.950 . S
C3915 C3914 1.334 . S
C3915 C3916 1.287 . S
C3916 C3915 1.287 . S
C3916 C3917 1.524 . S
C3916 H3935 0.913 . S
C3917 H3893 0.950 . S
C3917 C3916 1.524 . S
C3917 C3918 1.415 . S
C3918 H3894 0.950 . S
C3918 C3913 1.363 . S
C3918 C3917 1.415 . S
C3919 H3895 0.951 . S
C3919 C3920 1.366 . S
C3919 C3921 1.388 . S
C3920 C3919 1.366 . S
C3920 C3924 1.385 . S
C3921 H3896 0.951 . S
C3921 C3919 1.388 . S
C3921 C3922 1.366 . S
C3922 C3921 1.366 . S
C3922 C3923 1.414 . S
C3922 C3925 1.499 . S
C3923 H3897 0.950 . S
C3923 C3922 1.414 . S
C3923 C3924 1.374 . S
C3924 H3898 0.950 . S
C3924 C3920 1.385 . S
C3924 C3923 1.374 . S
C3925 C3922 1.499 . S
C3925 C3926 1.373 . S
C3925 C3927 1.389 . S
C3926 H3899 0.950 . S
C3926 C3912 1.377 . S
C3926 C3925 1.373 . S
C3927 C3911 1.377 . S
C3927 C3925 1.389 . S
C3927 C3928 1.524 . S
C3928 C3927 1.524 . S
C3928 C3929 1.397 . S
C3928 C3933 1.363 . S
C3929 H3900 0.950 . S
C3929 C3928 1.397 . S
C3929 C3930 1.334 . S
C3930 H3901 0.950 . S
C3930 C3929 1.334 . S
C3930 C3931 1.287 . S
C3931 C3930 1.287 . S
C3931 C3932 1.524 . S
C3931 H3934 0.999 . S
C3932 H3902 0.950 . S
C3932 C3931 1.524 . S
C3932 C3933 1.415 . S
C3933 H3903 0.950 . S
C3933 C3928 1.363 . S
C3933 C3932 1.415 . S
H3934 C3931 0.999 . S
H3935 C3916 0.913 . S
H3936 C3954 0.951 . S
H3937 C3956 0.951 . S
H3938 C3958 0.950 . S
H3939 C3959 0.950 . S
H3940 C3961 0.950 . S
H3941 C3964 0.950 . S
H3942 C3965 0.950 . S
H3943 C3967 0.950 1_455 S
H3944 C3968 0.950 . S
H3945 C3969 0.951 . S
H3946 C3971 0.951 . S
H3947 C3973 0.950 . S
H3948 C3974 0.950 . S
H3949 C3976 0.950 . S
H3950 C3979 0.950 . S
H3951 C3980 0.950 . S
H3952 C3982 0.950 . S
H3953 C3983 0.950 . S
C3954 H3936 0.951 . S
C3954 C3955 1.366 . S
C3954 C3956 1.388 . S
C3955 C3954 1.366 . S
C3955 C3959 1.385 . S
C3956 H3937 0.951 . S
C3956 C3954 1.388 . S
C3956 C3957 1.366 . S
C3957 C3956 1.366 . S
C3957 C3958 1.414 . S
C3957 C3960 1.499 . S
C3958 H3938 0.950 . S
C3958 C3957 1.414 . S
C3958 C3959 1.374 . S
C3959 H3939 0.950 . S
C3959 C3955 1.385 . S
C3959 C3958 1.374 . S
C3960 C3957 1.499 . S
C3960 C3961 1.373 . S
C3960 C3962 1.389 . S
C3961 H3940 0.950 . S
C3961 C3960 1.373 . S
C3961 C3977 1.377 . S
C3962 C3960 1.389 . S
C3962 C3963 1.524 . S
C3962 C3976 1.377 . S
C3963 C3962 1.524 . S
C3963 C3964 1.397 . S
C3963 C3968 1.363 . S
C3964 H3941 0.950 . S
C3964 C3963 1.397 . S
C3964 C3965 1.334 . S
C3965 H3942 0.950 . S
C3965 C3964 1.334 . S
C3965 C3966 1.285 1_655 S
C3966 C3965 1.285 1_455 S
C3966 C3967 1.517 1_455 S
C3966 H3985 0.923 . S
C3967 H3943 0.950 1_655 S
C3967 C3966 1.517 1_655 S
C3967 C3968 1.415 . S
C3968 H3944 0.950 . S
C3968 C3963 1.363 . S
C3968 C3967 1.415 . S
C3969 H3945 0.951 . S
C3969 C3970 1.366 . S
C3969 C3971 1.388 . S
C3970 C3969 1.366 . S
C3970 C3974 1.385 . S
C3971 H3946 0.951 . S
C3971 C3969 1.388 . S
C3971 C3972 1.366 . S
C3972 C3971 1.366 . S
C3972 C3973 1.414 . S
C3972 C3975 1.499 . S
C3973 H3947 0.950 . S
C3973 C3972 1.414 . S
C3973 C3974 1.374 . S
C3974 H3948 0.950 . S
C3974 C3970 1.385 . S
C3974 C3973 1.374 . S
C3975 C3972 1.499 . S
C3975 C3976 1.373 . S
C3975 C3977 1.389 . S
C3976 H3949 0.950 . S
C3976 C3962 1.377 . S
C3976 C3975 1.373 . S
C3977 C3961 1.377 . S
C3977 C3975 1.389 . S
C3977 C3978 1.524 . S
C3978 C3977 1.524 . S
C3978 C3979 1.397 . S
C3978 C3983 1.363 . S
C3979 H3950 0.950 . S
C3979 C3978 1.397 . S
C3979 C3980 1.334 . S
C3980 H3951 0.950 . S
C3980 C3979 1.334 . S
C3980 C3981 1.287 . S
C3981 C3980 1.287 . S
C3981 C3982 1.524 . S
C3981 H3984 0.999 . S
C3982 H3952 0.950 . S
C3982 C3981 1.524 . S
C3982 C3983 1.415 . S
C3983 H3953 0.950 . S
C3983 C3978 1.363 . S
C3983 C3982 1.415 . S
H3984 C3981 0.999 . S
H3985 C3966 0.923 . S
H3986 C4004 0.951 . S
H3987 C4006 0.951 . S
H3988 C4008 0.950 . S
H3989 C4009 0.950 . S
H3990 C4011 0.950 . S
H3991 C4014 0.950 . S
H3992 C4015 0.950 . S
H3993 C4017 0.950 . S
H3994 C4018 0.950 . S
H3995 C4019 0.951 . S
H3996 C4021 0.951 . S
H3997 C4023 0.950 . S
H3998 C4024 0.950 . S
H3999 C4026 0.950 . S
H4000 C4029 0.950 . S
H4001 C4030 0.950 . S
H4002 C4032 0.950 . S
H4003 C4033 0.950 . S
C4004 H3986 0.951 . S
C4004 C4005 1.366 . S
C4004 C4006 1.388 . S
C4005 C4004 1.366 . S
C4005 C4009 1.385 . S
C4006 H3987 0.951 . S
C4006 C4004 1.388 . S
C4006 C4007 1.366 . S
C4007 C4006 1.366 . S
C4007 C4008 1.414 . S
C4007 C4010 1.499 . S
C4008 H3988 0.950 . S
C4008 C4007 1.414 . S
C4008 C4009 1.374 . S
C4009 H3989 0.950 . S
C4009 C4005 1.385 . S
C4009 C4008 1.374 . S
C4010 C4007 1.499 . S
C4010 C4011 1.373 . S
C4010 C4012 1.389 . S
C4011 H3990 0.950 . S
C4011 C4010 1.373 . S
C4011 C4027 1.377 . S
C4012 C4010 1.389 . S
C4012 C4013 1.524 . S
C4012 C4026 1.377 . S
C4013 C4012 1.524 . S
C4013 C4014 1.397 . S
C4013 C4018 1.363 . S
C4014 H3991 0.950 . S
C4014 C4013 1.397 . S
C4014 C4015 1.334 . S
C4015 H3992 0.950 . S
C4015 C4014 1.334 . S
C4015 C4016 1.287 . S
C4016 C4015 1.287 . S
C4016 C4017 1.524 . S
C4016 H4035 0.913 . S
C4017 H3993 0.950 . S
C4017 C4016 1.524 . S
C4017 C4018 1.415 . S
C4018 H3994 0.950 . S
C4018 C4013 1.363 . S
C4018 C4017 1.415 . S
C4019 H3995 0.951 . S
C4019 C4020 1.366 . S
C4019 C4021 1.388 . S
C4020 C4019 1.366 . S
C4020 C4024 1.385 . S
C4021 H3996 0.951 . S
C4021 C4019 1.388 . S
C4021 C4022 1.366 . S
C4022 C4021 1.366 . S
C4022 C4023 1.414 . S
C4022 C4025 1.499 . S
C4023 H3997 0.950 . S
C4023 C4022 1.414 . S
C4023 C4024 1.374 . S
C4024 H3998 0.950 . S
C4024 C4020 1.385 . S
C4024 C4023 1.374 . S
C4025 C4022 1.499 . S
C4025 C4026 1.373 . S
C4025 C4027 1.389 . S
C4026 H3999 0.950 . S
C4026 C4012 1.377 . S
C4026 C4025 1.373 . S
C4027 C4011 1.377 . S
C4027 C4025 1.389 . S
C4027 C4028 1.524 . S
C4028 C4027 1.524 . S
C4028 C4029 1.397 . S
C4028 C4033 1.363 . S
C4029 H4000 0.950 . S
C4029 C4028 1.397 . S
C4029 C4030 1.334 . S
C4030 H4001 0.950 . S
C4030 C4029 1.334 . S
C4030 C4031 1.287 . S
C4031 C4030 1.287 . S
C4031 C4032 1.524 . S
C4031 H4034 0.999 . S
C4032 H4002 0.950 . S
C4032 C4031 1.524 . S
C4032 C4033 1.415 . S
C4033 H4003 0.950 . S
C4033 C4028 1.363 . S
C4033 C4032 1.415 . S
H4034 C4031 0.999 . S
H4035 C4016 0.913 . S
H4036 C4054 0.951 . S
H4037 C4056 0.951 . S
H4038 C4058 0.950 . S
H4039 C4059 0.950 . S
H4040 C4061 0.950 . S
H4041 C4064 0.950 . S
H4042 C4065 0.950 . S
H4043 C4067 0.950 . S
H4044 C4068 0.950 . S
H4045 C4069 0.951 . S
H4046 C4071 0.951 . S
H4047 C4073 0.950 . S
H4048 C4074 0.950 . S
H4049 C4076 0.950 . S
H4050 C4079 0.950 . S
H4051 C4080 0.950 . S
H4052 C4082 0.950 . S
H4053 C4083 0.950 . S
C4054 H4036 0.951 . S
C4054 C4055 1.366 . S
C4054 C4056 1.388 . S
C4055 C4054 1.366 . S
C4055 C4059 1.385 . S
C4056 H4037 0.951 . S
C4056 C4054 1.388 . S
C4056 C4057 1.366 . S
C4057 C4056 1.366 . S
C4057 C4058 1.414 . S
C4057 C4060 1.499 . S
C4058 H4038 0.950 . S
C4058 C4057 1.414 . S
C4058 C4059 1.374 . S
C4059 H4039 0.950 . S
C4059 C4055 1.385 . S
C4059 C4058 1.374 . S
C4060 C4057 1.499 . S
C4060 C4061 1.373 . S
C4060 C4062 1.389 . S
C4061 H4040 0.950 . S
C4061 C4060 1.373 . S
C4061 C4077 1.377 . S
C4062 C4060 1.389 . S
C4062 C4063 1.524 . S
C4062 C4076 1.377 . S
C4063 C4062 1.524 . S
C4063 C4064 1.397 . S
C4063 C4068 1.363 . S
C4064 H4041 0.950 . S
C4064 C4063 1.397 . S
C4064 C4065 1.334 . S
C4065 H4042 0.950 . S
C4065 C4064 1.334 . S
C4065 C4066 1.287 . S
C4066 C4065 1.287 . S
C4066 C4067 1.524 . S
C4066 H4085 0.967 . S
C4067 H4043 0.950 . S
C4067 C4066 1.524 . S
C4067 C4068 1.415 . S
C4068 H4044 0.950 . S
C4068 C4063 1.363 . S
C4068 C4067 1.415 . S
C4069 H4045 0.951 . S
C4069 C4070 1.366 . S
C4069 C4071 1.388 . S
C4070 C4069 1.366 . S
C4070 C4074 1.385 . S
C4071 H4046 0.951 . S
C4071 C4069 1.388 . S
C4071 C4072 1.366 . S
C4072 C4071 1.366 . S
C4072 C4073 1.414 . S
C4072 C4075 1.499 . S
C4073 H4047 0.950 . S
C4073 C4072 1.414 . S
C4073 C4074 1.374 . S
C4074 H4048 0.950 . S
C4074 C4070 1.385 . S
C4074 C4073 1.374 . S
C4075 C4072 1.499 . S
C4075 C4076 1.373 . S
C4075 C4077 1.389 . S
C4076 H4049 0.950 . S
C4076 C4062 1.377 . S
C4076 C4075 1.373 . S
C4077 C4061 1.377 . S
C4077 C4075 1.389 . S
C4077 C4078 1.524 . S
C4078 C4077 1.524 . S
C4078 C4079 1.397 . S
C4078 C4083 1.363 . S
C4079 H4050 0.950 . S
C4079 C4078 1.397 . S
C4079 C4080 1.334 . S
C4080 H4051 0.950 . S
C4080 C4079 1.334 . S
C4080 C4081 1.287 . S
C4081 C4080 1.287 . S
C4081 C4082 1.524 . S
C4081 H4084 0.999 . S
C4082 H4052 0.950 . S
C4082 C4081 1.524 . S
C4082 C4083 1.415 . S
C4083 H4053 0.950 . S
C4083 C4078 1.363 . S
C4083 C4082 1.415 . S
H4084 C4081 0.999 . S
H4085 C4066 0.967 . S
H4086 C4104 0.951 . S
H4087 C4106 0.951 . S
H4088 C4108 0.950 . S
H4089 C4109 0.950 . S
H4090 C4111 0.950 . S
H4091 C4114 0.950 . S
H4092 C4115 0.950 . S
H4093 C4117 0.950 . S
H4094 C4118 0.950 . S
H4095 C4119 0.951 . S
H4096 C4121 0.951 . S
H4097 C4123 0.950 . S
H4098 C4124 0.950 . S
H4099 C4126 0.950 . S
H4100 C4129 0.950 . S
H4101 C4130 0.950 . S
H4102 C4132 0.950 . S
H4103 C4133 0.950 . S
C4104 H4086 0.951 . S
C4104 C4105 1.366 . S
C4104 C4106 1.388 . S
C4105 C4104 1.366 . S
C4105 C4109 1.385 . S
C4106 H4087 0.951 . S
C4106 C4104 1.388 . S
C4106 C4107 1.366 . S
C4107 C4106 1.366 . S
C4107 C4108 1.414 . S
C4107 C4110 1.499 . S
C4108 H4088 0.950 . S
C4108 C4107 1.414 . S
C4108 C4109 1.374 . S
C4109 H4089 0.950 . S
C4109 C4105 1.385 . S
C4109 C4108 1.374 . S
C4110 C4107 1.499 . S
C4110 C4111 1.373 . S
C4110 C4112 1.389 . S
C4111 H4090 0.950 . S
C4111 C4110 1.373 . S
C4111 C4127 1.377 . S
C4112 C4110 1.389 . S
C4112 C4113 1.524 . S
C4112 C4126 1.377 . S
C4113 C4112 1.524 . S
C4113 C4114 1.397 . S
C4113 C4118 1.363 . S
C4114 H4091 0.950 . S
C4114 C4113 1.397 . S
C4114 C4115 1.334 . S
C4115 H4092 0.950 . S
C4115 C4114 1.334 . S
C4115 C4116 1.287 . S
C4116 C4115 1.287 . S
C4116 C4117 1.524 . S
C4116 H4135 0.913 . S
C4117 H4093 0.950 . S
C4117 C4116 1.524 . S
C4117 C4118 1.415 . S
C4118 H4094 0.950 . S
C4118 C4113 1.363 . S
C4118 C4117 1.415 . S
C4119 H4095 0.951 . S
C4119 C4120 1.366 . S
C4119 C4121 1.388 . S
C4120 C4119 1.366 . S
C4120 C4124 1.385 . S
C4121 H4096 0.951 . S
C4121 C4119 1.388 . S
C4121 C4122 1.366 . S
C4122 C4121 1.366 . S
C4122 C4123 1.414 . S
C4122 C4125 1.499 . S
C4123 H4097 0.950 . S
C4123 C4122 1.414 . S
C4123 C4124 1.374 . S
C4124 H4098 0.950 . S
C4124 C4120 1.385 . S
C4124 C4123 1.374 . S
C4125 C4122 1.499 . S
C4125 C4126 1.373 . S
C4125 C4127 1.389 . S
C4126 H4099 0.950 . S
C4126 C4112 1.377 . S
C4126 C4125 1.373 . S
C4127 C4111 1.377 . S
C4127 C4125 1.389 . S
C4127 C4128 1.524 . S
C4128 C4127 1.524 . S
C4128 C4129 1.397 . S
C4128 C4133 1.363 . S
C4129 H4100 0.950 . S
C4129 C4128 1.397 . S
C4129 C4130 1.334 . S
C4130 H4101 0.950 . S
C4130 C4129 1.334 . S
C4130 C4131 1.287 . S
C4131 C4130 1.287 . S
C4131 C4132 1.524 . S
C4131 H4134 0.999 . S
C4132 H4102 0.950 . S
C4132 C4131 1.524 . S
C4132 C4133 1.415 . S
C4133 H4103 0.950 . S
C4133 C4128 1.363 . S
C4133 C4132 1.415 . S
H4134 C4131 0.999 . S
H4135 C4116 0.913 . S
H4136 C4154 0.951 . S
H4137 C4156 0.951 . S
H4138 C4158 0.950 . S
H4139 C4159 0.950 . S
H4140 C4161 0.950 . S
H4141 C4164 0.950 . S
H4142 C4165 0.950 . S
H4143 C4167 0.950 . S
H4144 C4168 0.950 . S
H4145 C4169 0.951 . S
H4146 C4171 0.951 . S
H4147 C4173 0.950 . S
H4148 C4174 0.950 . S
H4149 C4176 0.950 . S
H4150 C4179 0.950 . S
H4151 C4180 0.950 . S
H4152 C4182 0.950 . S
H4153 C4183 0.950 . S
C4154 H4136 0.951 . S
C4154 C4155 1.366 . S
C4154 C4156 1.388 . S
C4155 C4154 1.366 . S
C4155 C4159 1.385 . S
C4156 H4137 0.951 . S
C4156 C4154 1.388 . S
C4156 C4157 1.366 . S
C4157 C4156 1.366 . S
C4157 C4158 1.414 . S
C4157 C4160 1.499 . S
C4158 H4138 0.950 . S
C4158 C4157 1.414 . S
C4158 C4159 1.374 . S
C4159 H4139 0.950 . S
C4159 C4155 1.385 . S
C4159 C4158 1.374 . S
C4160 C4157 1.499 . S
C4160 C4161 1.373 . S
C4160 C4162 1.389 . S
C4161 H4140 0.950 . S
C4161 C4160 1.373 . S
C4161 C4177 1.377 . S
C4162 C4160 1.389 . S
C4162 C4163 1.524 . S
C4162 C4176 1.377 . S
C4163 C4162 1.524 . S
C4163 C4164 1.397 . S
C4163 C4168 1.363 . S
C4164 H4141 0.950 . S
C4164 C4163 1.397 . S
C4164 C4165 1.334 . S
C4165 H4142 0.950 . S
C4165 C4164 1.334 . S
C4165 C4166 1.287 . S
C4166 C4165 1.287 . S
C4166 C4167 1.524 . S
C4166 H4185 0.913 . S
C4167 H4143 0.950 . S
C4167 C4166 1.524 . S
C4167 C4168 1.415 . S
C4168 H4144 0.950 . S
C4168 C4163 1.363 . S
C4168 C4167 1.415 . S
C4169 H4145 0.951 . S
C4169 C4170 1.366 . S
C4169 C4171 1.388 . S
C4170 C4169 1.366 . S
C4170 C4174 1.385 . S
C4171 H4146 0.951 . S
C4171 C4169 1.388 . S
C4171 C4172 1.366 . S
C4172 C4171 1.366 . S
C4172 C4173 1.414 . S
C4172 C4175 1.499 . S
C4173 H4147 0.950 . S
C4173 C4172 1.414 . S
C4173 C4174 1.374 . S
C4174 H4148 0.950 . S
C4174 C4170 1.385 . S
C4174 C4173 1.374 . S
C4175 C4172 1.499 . S
C4175 C4176 1.373 . S
C4175 C4177 1.389 . S
C4176 H4149 0.950 . S
C4176 C4162 1.377 . S
C4176 C4175 1.373 . S
C4177 C4161 1.377 . S
C4177 C4175 1.389 . S
C4177 C4178 1.524 . S
C4178 C4177 1.524 . S
C4178 C4179 1.397 . S
C4178 C4183 1.363 . S
C4179 H4150 0.950 . S
C4179 C4178 1.397 . S
C4179 C4180 1.334 . S
C4180 H4151 0.950 . S
C4180 C4179 1.334 . S
C4180 C4181 1.287 . S
C4181 C4180 1.287 . S
C4181 C4182 1.524 . S
C4181 H4184 0.999 . S
C4182 H4152 0.950 . S
C4182 C4181 1.524 . S
C4182 C4183 1.415 . S
C4183 H4153 0.950 . S
C4183 C4178 1.363 . S
C4183 C4182 1.415 . S
H4184 C4181 0.999 . S
H4185 C4166 0.913 . S
H4186 C4204 0.948 1_545 S
H4187 C4206 0.951 . S
H4188 C4208 0.950 . S
H4189 C4209 0.950 . S
H4190 C4211 0.950 . S
H4191 C4214 0.950 . S
H4192 C4215 0.950 . S
H4193 C4217 0.950 . S
H4194 C4218 0.950 . S
H4195 C4219 0.951 . S
H4196 C4221 0.951 . S
H4197 C4223 0.950 . S
H4198 C4224 0.950 . S
H4199 C4226 0.950 . S
H4200 C4229 0.950 . S
H4201 C4230 0.950 . S
H4202 C4232 0.950 . S
H4203 C4233 0.950 . S
C4204 H4186 0.948 1_565 S
C4204 C4205 1.366 . S
C4204 C4206 1.388 . S
C4205 C4204 1.366 . S
C4205 C4209 1.385 . S
C4206 H4187 0.951 . S
C4206 C4204 1.388 . S
C4206 C4207 1.366 . S
C4207 C4206 1.366 . S
C4207 C4208 1.414 . S
C4207 C4210 1.499 . S
C4208 H4188 0.950 . S
C4208 C4207 1.414 . S
C4208 C4209 1.374 . S
C4209 H4189 0.950 . S
C4209 C4205 1.385 . S
C4209 C4208 1.374 . S
C4210 C4207 1.499 . S
C4210 C4211 1.373 . S
C4210 C4212 1.389 . S
C4211 H4190 0.950 . S
C4211 C4210 1.373 . S
C4211 C4227 1.377 . S
C4212 C4210 1.389 . S
C4212 C4213 1.524 . S
C4212 C4226 1.377 . S
C4213 C4212 1.524 . S
C4213 C4214 1.397 . S
C4213 C4218 1.363 . S
C4214 H4191 0.950 . S
C4214 C4213 1.397 . S
C4214 C4215 1.334 . S
C4215 H4192 0.950 . S
C4215 C4214 1.334 . S
C4215 C4216 1.287 . S
C4216 C4215 1.287 . S
C4216 C4217 1.524 . S
C4216 H4235 0.913 . S
C4217 H4193 0.950 . S
C4217 C4216 1.524 . S
C4217 C4218 1.415 . S
C4218 H4194 0.950 . S
C4218 C4213 1.363 . S
C4218 C4217 1.415 . S
C4219 H4195 0.951 . S
C4219 C4220 1.366 . S
C4219 C4221 1.388 . S
C4220 C4219 1.366 . S
C4220 C4224 1.385 . S
C4221 H4196 0.951 . S
C4221 C4219 1.388 . S
C4221 C4222 1.366 . S
C4222 C4221 1.366 . S
C4222 C4223 1.414 . S
C4222 C4225 1.499 . S
C4223 H4197 0.950 . S
C4223 C4222 1.414 . S
C4223 C4224 1.374 . S
C4224 H4198 0.950 . S
C4224 C4220 1.385 . S
C4224 C4223 1.374 . S
C4225 C4222 1.499 . S
C4225 C4226 1.373 . S
C4225 C4227 1.389 . S
C4226 H4199 0.950 . S
C4226 C4212 1.377 . S
C4226 C4225 1.373 . S
C4227 C4211 1.377 . S
C4227 C4225 1.389 . S
C4227 C4228 1.524 . S
C4228 C4227 1.524 . S
C4228 C4229 1.397 . S
C4228 C4233 1.363 . S
C4229 H4200 0.950 . S
C4229 C4228 1.397 . S
C4229 C4230 1.334 . S
C4230 H4201 0.950 . S
C4230 C4229 1.334 . S
C4230 C4231 1.287 . S
C4231 C4230 1.287 . S
C4231 C4232 1.524 . S
C4231 H4234 0.999 . S
C4232 H4202 0.950 . S
C4232 C4231 1.524 . S
C4232 C4233 1.415 . S
C4233 H4203 0.950 . S
C4233 C4228 1.363 . S
C4233 C4232 1.415 . S
H4234 C4231 0.999 . S
H4235 C4216 0.913 . S
H4236 C4254 0.951 . S
H4237 C4256 0.951 . S
H4238 C4258 0.950 . S
H4239 C4259 0.950 . S
H4240 C4261 0.950 . S
H4241 C4264 0.950 . S
H4242 C4265 0.950 . S
H4243 C4267 0.950 . S
H4244 C4268 0.950 . S
H4245 C4269 0.951 . S
H4246 C4271 0.951 . S
H4247 C4273 0.950 . S
H4248 C4274 0.950 . S
H4249 C4276 0.950 . S
H4250 C4279 0.950 . S
H4251 C4280 0.950 . S
H4252 C4282 0.950 . S
H4253 C4283 0.950 . S
C4254 H4236 0.951 . S
C4254 C4255 1.366 . S
C4254 C4256 1.388 . S
C4255 C4254 1.366 . S
C4255 C4259 1.385 . S
C4256 H4237 0.951 . S
C4256 C4254 1.388 . S
C4256 C4257 1.366 . S
C4257 C4256 1.366 . S
C4257 C4258 1.414 . S
C4257 C4260 1.499 . S
C4258 H4238 0.950 . S
C4258 C4257 1.414 . S
C4258 C4259 1.374 . S
C4259 H4239 0.950 . S
C4259 C4255 1.385 . S
C4259 C4258 1.374 . S
C4260 C4257 1.499 . S
C4260 C4261 1.373 . S
C4260 C4262 1.389 . S
C4261 H4240 0.950 . S
C4261 C4260 1.373 . S
C4261 C4277 1.377 . S
C4262 C4260 1.389 . S
C4262 C4263 1.524 . S
C4262 C4276 1.377 . S
C4263 C4262 1.524 . S
C4263 C4264 1.397 . S
C4263 C4268 1.363 . S
C4264 H4241 0.950 . S
C4264 C4263 1.397 . S
C4264 C4265 1.334 . S
C4265 H4242 0.950 . S
C4265 C4264 1.334 . S
C4265 C4266 1.287 . S
C4266 C4265 1.287 . S
C4266 C4267 1.524 . S
C4266 H4285 0.832 1_545 S
C4267 H4243 0.950 . S
C4267 C4266 1.524 . S
C4267 C4268 1.415 . S
C4268 H4244 0.950 . S
C4268 C4263 1.363 . S
C4268 C4267 1.415 . S
C4269 H4245 0.951 . S
C4269 C4270 1.366 . S
C4269 C4271 1.388 . S
C4270 C4269 1.366 . S
C4270 C4274 1.385 . S
C4271 H4246 0.951 . S
C4271 C4269 1.388 . S
C4271 C4272 1.366 . S
C4272 C4271 1.366 . S
C4272 C4273 1.414 . S
C4272 C4275 1.499 . S
C4273 H4247 0.950 . S
C4273 C4272 1.414 . S
C4273 C4274 1.374 . S
C4274 H4248 0.950 . S
C4274 C4270 1.385 . S
C4274 C4273 1.374 . S
C4275 C4272 1.499 . S
C4275 C4276 1.373 . S
C4275 C4277 1.389 . S
C4276 H4249 0.950 . S
C4276 C4262 1.377 . S
C4276 C4275 1.373 . S
C4277 C4261 1.377 . S
C4277 C4275 1.389 . S
C4277 C4278 1.524 . S
C4278 C4277 1.524 . S
C4278 C4279 1.397 . S
C4278 C4283 1.363 . S
C4279 H4250 0.950 . S
C4279 C4278 1.397 . S
C4279 C4280 1.334 . S
C4280 H4251 0.950 . S
C4280 C4279 1.334 . S
C4280 C4281 1.287 . S
C4281 C4280 1.287 . S
C4281 C4282 1.524 . S
C4281 H4284 0.999 . S
C4282 H4252 0.950 . S
C4282 C4281 1.524 . S
C4282 C4283 1.415 . S
C4283 H4253 0.950 . S
C4283 C4278 1.363 . S
C4283 C4282 1.415 . S
H4284 C4281 0.999 . S
H4285 C4266 0.832 1_565 S
H4286 C4304 0.951 . S
H4287 C4306 0.951 . S
H4288 C4308 0.950 . S
H4289 C4309 0.950 1_554 S
H4290 C4311 0.950 . S
H4291 C4314 0.950 . S
H4292 C4315 0.950 . S
H4293 C4317 0.950 . S
H4294 C4318 0.950 . S
H4295 C4319 0.951 . S
H4296 C4321 0.951 . S
H4297 C4323 0.950 . S
H4298 C4324 0.950 . S
H4299 C4326 0.950 . S
H4300 C4329 0.950 . S
H4301 C4330 0.950 . S
H4302 C4332 0.950 . S
H4303 C4333 0.950 . S
C4304 H4286 0.951 . S
C4304 C4305 1.366 . S
C4304 C4306 1.388 . S
C4305 C4304 1.366 . S
C4305 C4309 1.385 . S
C4306 H4287 0.951 . S
C4306 C4304 1.388 . S
C4306 C4307 1.366 . S
C4307 C4306 1.366 . S
C4307 C4308 1.414 . S
C4307 C4310 1.499 . S
C4308 H4288 0.950 . S
C4308 C4307 1.414 . S
C4308 C4309 1.374 . S
C4309 H4289 0.950 1_556 S
C4309 C4305 1.385 . S
C4309 C4308 1.374 . S
C4310 C4307 1.499 . S
C4310 C4311 1.373 . S
C4310 C4312 1.389 . S
C4311 H4290 0.950 . S
C4311 C4310 1.373 . S
C4311 C4327 1.377 . S
C4312 C4310 1.389 . S
C4312 C4313 1.524 . S
C4312 C4326 1.377 . S
C4313 C4312 1.524 . S
C4313 C4314 1.397 . S
C4313 C4318 1.363 . S
C4314 H4291 0.950 . S
C4314 C4313 1.397 . S
C4314 C4315 1.334 . S
C4315 H4292 0.950 . S
C4315 C4314 1.334 . S
C4315 C4316 1.287 . S
C4316 C4315 1.287 . S
C4316 C4317 1.524 . S
C4316 H4335 0.913 . S
C4317 H4293 0.950 . S
C4317 C4316 1.524 . S
C4317 C4318 1.415 . S
C4318 H4294 0.950 . S
C4318 C4313 1.363 . S
C4318 C4317 1.415 . S
C4319 H4295 0.951 . S
C4319 C4320 1.366 . S
C4319 C4321 1.388 . S
C4320 C4319 1.366 . S
C4320 C4324 1.385 . S
C4321 H4296 0.951 . S
C4321 C4319 1.388 . S
C4321 C4322 1.366 . S
C4322 C4321 1.366 . S
C4322 C4323 1.414 . S
C4322 C4325 1.499 . S
C4323 H4297 0.950 . S
C4323 C4322 1.414 . S
C4323 C4324 1.374 . S
C4324 H4298 0.950 . S
C4324 C4320 1.385 . S
C4324 C4323 1.374 . S
C4325 C4322 1.499 . S
C4325 C4326 1.373 . S
C4325 C4327 1.389 . S
C4326 H4299 0.950 . S
C4326 C4312 1.377 . S
C4326 C4325 1.373 . S
C4327 C4311 1.377 . S
C4327 C4325 1.389 . S
C4327 C4328 1.524 . S
C4328 C4327 1.524 . S
C4328 C4329 1.397 . S
C4328 C4333 1.363 . S
C4329 H4300 0.950 . S
C4329 C4328 1.397 . S
C4329 C4330 1.334 . S
C4330 H4301 0.950 . S
C4330 C4329 1.334 . S
C4330 C4331 1.287 . S
C4331 C4330 1.287 . S
C4331 C4332 1.524 . S
C4331 H4334 0.999 . S
C4332 H4302 0.950 . S
C4332 C4331 1.524 . S
C4332 C4333 1.415 . S
C4333 H4303 0.950 . S
C4333 C4328 1.363 . S
C4333 C4332 1.415 . S
H4334 C4331 0.999 . S
H4335 C4316 0.913 . S
H4336 C4354 0.951 . S
H4337 C4356 0.951 . S
H4338 C4358 0.950 . S
H4339 C4359 0.950 1_554 S
H4340 C4361 0.950 . S
H4341 C4364 0.950 . S
H4342 C4365 0.950 . S
H4343 C4367 0.950 . S
H4344 C4368 0.950 . S
H4345 C4369 0.951 . S
H4346 C4371 0.951 . S
H4347 C4373 0.950 . S
H4348 C4374 0.950 . S
H4349 C4376 0.950 . S
H4350 C4379 0.950 . S
H4351 C4380 0.950 . S
H4352 C4382 0.950 1_554 S
H4353 C4383 0.950 . S
C4354 H4336 0.951 . S
C4354 C4355 1.366 . S
C4354 C4356 1.388 . S
C4355 C4354 1.366 . S
C4355 C4359 1.385 . S
C4356 H4337 0.951 . S
C4356 C4354 1.388 . S
C4356 C4357 1.366 . S
C4357 C4356 1.366 . S
C4357 C4358 1.414 . S
C4357 C4360 1.499 . S
C4358 H4338 0.950 . S
C4358 C4357 1.414 . S
C4358 C4359 1.374 . S
C4359 H4339 0.950 1_556 S
C4359 C4355 1.385 . S
C4359 C4358 1.374 . S
C4360 C4357 1.499 . S
C4360 C4361 1.373 . S
C4360 C4362 1.389 . S
C4361 H4340 0.950 . S
C4361 C4360 1.373 . S
C4361 C4377 1.377 . S
C4362 C4360 1.389 . S
C4362 C4363 1.524 . S
C4362 C4376 1.377 . S
C4363 C4362 1.524 . S
C4363 C4364 1.397 . S
C4363 C4368 1.363 . S
C4364 H4341 0.950 . S
C4364 C4363 1.397 . S
C4364 C4365 1.334 . S
C4365 H4342 0.950 . S
C4365 C4364 1.334 . S
C4365 C4366 1.287 . S
C4366 C4365 1.287 . S
C4366 C4367 1.524 . S
C4366 H4385 0.913 . S
C4367 H4343 0.950 . S
C4367 C4366 1.524 . S
C4367 C4368 1.415 . S
C4368 H4344 0.950 . S
C4368 C4363 1.363 . S
C4368 C4367 1.415 . S
C4369 H4345 0.951 . S
C4369 C4370 1.366 . S
C4369 C4371 1.388 . S
C4370 C4369 1.366 . S
C4370 C4374 1.385 . S
C4371 H4346 0.951 . S
C4371 C4369 1.388 . S
C4371 C4372 1.366 . S
C4372 C4371 1.366 . S
C4372 C4373 1.414 . S
C4372 C4375 1.499 . S
C4373 H4347 0.950 . S
C4373 C4372 1.414 . S
C4373 C4374 1.374 . S
C4374 H4348 0.950 . S
C4374 C4370 1.385 . S
C4374 C4373 1.374 . S
C4375 C4372 1.499 . S
C4375 C4376 1.373 . S
C4375 C4377 1.389 . S
C4376 H4349 0.950 . S
C4376 C4362 1.377 . S
C4376 C4375 1.373 . S
C4377 C4361 1.377 . S
C4377 C4375 1.389 . S
C4377 C4378 1.524 . S
C4378 C4377 1.524 . S
C4378 C4379 1.397 . S
C4378 C4383 1.363 . S
C4379 H4350 0.950 . S
C4379 C4378 1.397 . S
C4379 C4380 1.334 . S
C4380 H4351 0.950 . S
C4380 C4379 1.334 . S
C4380 C4381 1.287 . S
C4381 C4380 1.287 . S
C4381 C4382 1.524 . S
C4381 H4384 0.999 1_556 S
C4382 H4352 0.950 1_556 S
C4382 C4381 1.524 . S
C4382 C4383 1.415 . S
C4383 H4353 0.950 . S
C4383 C4378 1.363 . S
C4383 C4382 1.415 . S
H4384 C4381 0.999 1_554 S
H4385 C4366 0.913 . S
H4386 C4404 0.951 . S
H4387 C4406 0.951 . S
H4388 C4408 0.950 . S
H4389 C4409 0.950 . S
H4390 C4411 0.950 . S
H4391 C4414 0.950 . S
H4392 C4415 0.950 1_554 S
H4393 C4417 0.896 1_455 S
H4394 C4418 0.950 . S
H4395 C4419 0.951 . S
H4396 C4421 0.951 . S
H4397 C4423 0.950 . S
H4398 C4424 0.950 . S
H4399 C4426 0.950 . S
H4400 C4429 0.950 . S
H4401 C4430 0.950 . S
H4402 C4432 0.950 . S
H4403 C4433 0.950 . S
C4404 H4386 0.951 . S
C4404 C4405 1.366 . S
C4404 C4406 1.388 . S
C4405 C4404 1.366 . S
C4405 C4409 1.385 . S
C4406 H4387 0.951 . S
C4406 C4404 1.388 . S
C4406 C4407 1.366 . S
C4407 C4406 1.366 . S
C4407 C4408 1.414 . S
C4407 C4410 1.499 . S
C4408 H4388 0.950 . S
C4408 C4407 1.414 . S
C4408 C4409 1.374 . S
C4409 H4389 0.950 . S
C4409 C4405 1.385 . S
C4409 C4408 1.374 . S
C4410 C4407 1.499 . S
C4410 C4411 1.373 . S
C4410 C4412 1.389 . S
C4411 H4390 0.950 . S
C4411 C4410 1.373 . S
C4411 C4427 1.377 . S
C4412 C4410 1.389 . S
C4412 C4413 1.524 . S
C4412 C4426 1.377 . S
C4413 C4412 1.524 . S
C4413 C4414 1.397 . S
C4413 C4418 1.363 . S
C4414 H4391 0.950 . S
C4414 C4413 1.397 . S
C4414 C4415 1.334 . S
C4415 H4392 0.950 1_556 S
C4415 C4414 1.334 . S
C4415 C4416 1.287 . S
C4416 C4415 1.287 . S
C4416 C4417 1.534 . S
C4416 H4435 0.913 1_655 S
C4417 H4393 0.896 1_655 S
C4417 C4416 1.534 . S
C4417 C4418 1.477 . S
C4418 H4394 0.950 . S
C4418 C4413 1.363 . S
C4418 C4417 1.477 . S
C4419 H4395 0.951 . S
C4419 C4420 1.366 . S
C4419 C4421 1.388 . S
C4420 C4419 1.366 . S
C4420 C4424 1.385 . S
C4421 H4396 0.951 . S
C4421 C4419 1.388 . S
C4421 C4422 1.366 . S
C4422 C4421 1.366 . S
C4422 C4423 1.414 . S
C4422 C4425 1.499 . S
C4423 H4397 0.950 . S
C4423 C4422 1.414 . S
C4423 C4424 1.374 . S
C4424 H4398 0.950 . S
C4424 C4420 1.385 . S
C4424 C4423 1.374 . S
C4425 C4422 1.499 . S
C4425 C4426 1.373 . S
C4425 C4427 1.389 . S
C4426 H4399 0.950 . S
C4426 C4412 1.377 . S
C4426 C4425 1.373 . S
C4427 C4411 1.377 . S
C4427 C4425 1.389 . S
C4427 C4428 1.524 . S
C4428 C4427 1.524 . S
C4428 C4429 1.397 . S
C4428 C4433 1.363 . S
C4429 H4400 0.950 . S
C4429 C4428 1.397 . S
C4429 C4430 1.334 . S
C4430 H4401 0.950 . S
C4430 C4429 1.334 . S
C4430 C4431 1.287 . S
C4431 C4430 1.287 . S
C4431 C4432 1.524 . S
C4431 H4434 0.999 . S
C4432 H4402 0.950 . S
C4432 C4431 1.524 . S
C4432 C4433 1.415 . S
C4433 H4403 0.950 . S
C4433 C4428 1.363 . S
C4433 C4432 1.415 . S
H4434 C4431 0.999 . S
H4435 C4416 0.913 1_455 S
H4436 C4454 0.951 . S
H4437 C4456 0.951 . S
H4438 C4458 0.950 . S
H4439 C4459 0.950 . S
H4440 C4461 0.950 . S
H4441 C4464 0.950 . S
H4442 C4465 0.950 . S
H4443 C4467 0.950 . S
H4444 C4468 0.950 . S
H4445 C4469 0.951 . S
H4446 C4471 0.951 . S
H4447 C4473 0.950 . S
H4448 C4474 0.950 . S
H4449 C4476 0.950 . S
H4450 C4479 0.950 . S
H4451 C4480 0.950 . S
H4452 C4482 0.950 . S
H4453 C4483 0.950 . S
C4454 H4436 0.951 . S
C4454 C4455 1.366 . S
C4454 C4456 1.388 . S
C4455 C4454 1.366 . S
C4455 C4459 1.385 . S
C4456 H4437 0.951 . S
C4456 C4454 1.388 . S
C4456 C4457 1.366 . S
C4457 C4456 1.366 . S
C4457 C4458 1.414 . S
C4457 C4460 1.499 . S
C4458 H4438 0.950 . S
C4458 C4457 1.414 . S
C4458 C4459 1.374 . S
C4459 H4439 0.950 . S
C4459 C4455 1.385 . S
C4459 C4458 1.374 . S
C4460 C4457 1.499 . S
C4460 C4461 1.373 . S
C4460 C4462 1.389 . S
C4461 H4440 0.950 . S
C4461 C4460 1.373 . S
C4461 C4477 1.377 . S
C4462 C4460 1.389 . S
C4462 C4463 1.524 . S
C4462 C4476 1.377 . S
C4463 C4462 1.524 . S
C4463 C4464 1.397 . S
C4463 C4468 1.363 . S
C4464 H4441 0.950 . S
C4464 C4463 1.397 . S
C4464 C4465 1.334 . S
C4465 H4442 0.950 . S
C4465 C4464 1.334 . S
C4465 C4466 1.287 . S
C4466 C4465 1.287 . S
C4466 C4467 1.524 . S
C4466 H4485 0.913 . S
C4467 H4443 0.950 . S
C4467 C4466 1.524 . S
C4467 C4468 1.415 . S
C4468 H4444 0.950 . S
C4468 C4463 1.363 . S
C4468 C4467 1.415 . S
C4469 H4445 0.951 . S
C4469 C4470 1.366 . S
C4469 C4471 1.388 . S
C4470 C4469 1.366 . S
C4470 C4474 1.385 . S
C4471 H4446 0.951 . S
C4471 C4469 1.388 . S
C4471 C4472 1.366 . S
C4472 C4471 1.366 . S
C4472 C4473 1.414 . S
C4472 C4475 1.499 . S
C4473 H4447 0.950 . S
C4473 C4472 1.414 . S
C4473 C4474 1.374 . S
C4474 H4448 0.950 . S
C4474 C4470 1.385 . S
C4474 C4473 1.374 . S
C4475 C4472 1.499 . S
C4475 C4476 1.373 . S
C4475 C4477 1.389 . S
C4476 H4449 0.950 . S
C4476 C4462 1.377 . S
C4476 C4475 1.373 . S
C4477 C4461 1.377 . S
C4477 C4475 1.389 . S
C4477 C4478 1.524 . S
C4478 C4477 1.524 . S
C4478 C4479 1.397 . S
C4478 C4483 1.363 . S
C4479 H4450 0.950 . S
C4479 C4478 1.397 . S
C4479 C4480 1.334 . S
C4480 H4451 0.950 . S
C4480 C4479 1.334 . S
C4480 C4481 1.287 . S
C4481 C4480 1.287 . S
C4481 C4482 1.524 . S
C4481 H4484 0.999 . S
C4482 H4452 0.950 . S
C4482 C4481 1.524 . S
C4482 C4483 1.415 . S
C4483 H4453 0.950 . S
C4483 C4478 1.363 . S
C4483 C4482 1.415 . S
H4484 C4481 0.999 . S
H4485 C4466 0.913 . S
H4486 C4504 0.951 1_554 S
H4487 C4506 0.951 . S
H4488 C4508 0.950 . S
H4489 C4509 0.950 . S
H4490 C4511 0.950 . S
H4491 C4514 0.950 . S
H4492 C4515 0.950 . S
H4493 C4517 0.950 . S
H4494 C4518 0.950 . S
H4495 C4519 0.951 . S
H4496 C4521 0.951 . S
H4497 C4523 0.950 . S
H4498 C4524 0.950 . S
H4499 C4526 0.950 . S
H4500 C4529 0.950 . S
H4501 C4530 0.950 . S
H4502 C4532 0.950 . S
H4503 C4533 0.950 . S
C4504 H4486 0.951 1_556 S
C4504 C4505 1.366 . S
C4504 C4506 1.388 . S
C4505 C4504 1.366 . S
C4505 C4509 1.385 . S
C4506 H4487 0.951 . S
C4506 C4504 1.388 . S
C4506 C4507 1.366 . S
C4507 C4506 1.366 . S
C4507 C4508 1.414 . S
C4507 C4510 1.499 . S
C4508 H4488 0.950 . S
C4508 C4507 1.414 . S
C4508 C4509 1.374 . S
C4509 H4489 0.950 . S
C4509 C4505 1.385 . S
C4509 C4508 1.374 . S
C4510 C4507 1.499 . S
C4510 C4511 1.373 . S
C4510 C4512 1.389 . S
C4511 H4490 0.950 . S
C4511 C4510 1.373 . S
C4511 C4527 1.377 . S
C4512 C4510 1.389 . S
C4512 C4513 1.524 . S
C4512 C4526 1.377 . S
C4513 C4512 1.524 . S
C4513 C4514 1.397 . S
C4513 C4518 1.363 . S
C4514 H4491 0.950 . S
C4514 C4513 1.397 . S
C4514 C4515 1.334 1_556 S
C4515 H4492 0.950 . S
C4515 C4514 1.334 1_554 S
C4515 C4516 1.287 . S
C4516 C4515 1.287 . S
C4516 C4517 1.524 . S
C4516 H4535 0.913 . S
C4517 H4493 0.950 . S
C4517 C4516 1.524 . S
C4517 C4518 1.415 1_554 S
C4518 H4494 0.950 . S
C4518 C4513 1.363 . S
C4518 C4517 1.415 1_556 S
C4519 H4495 0.951 . S
C4519 C4520 1.366 . S
C4519 C4521 1.388 . S
C4520 C4519 1.366 . S
C4520 C4524 1.385 . S
C4521 H4496 0.951 . S
C4521 C4519 1.388 . S
C4521 C4522 1.366 . S
C4522 C4521 1.366 . S
C4522 C4523 1.414 . S
C4522 C4525 1.499 . S
C4523 H4497 0.950 . S
C4523 C4522 1.414 . S
C4523 C4524 1.374 . S
C4524 H4498 0.950 . S
C4524 C4520 1.385 . S
C4524 C4523 1.374 . S
C4525 C4522 1.499 . S
C4525 C4526 1.373 . S
C4525 C4527 1.389 . S
C4526 H4499 0.950 . S
C4526 C4512 1.377 . S
C4526 C4525 1.373 . S
C4527 C4511 1.377 . S
C4527 C4525 1.389 . S
C4527 C4528 1.524 . S
C4528 C4527 1.524 . S
C4528 C4529 1.397 . S
C4528 C4533 1.363 . S
C4529 H4500 0.950 . S
C4529 C4528 1.397 . S
C4529 C4530 1.334 . S
C4530 H4501 0.950 . S
C4530 C4529 1.334 . S
C4530 C4531 1.287 . S
C4531 C4530 1.287 . S
C4531 C4532 1.524 . S
C4531 H4534 0.999 . S
C4532 H4502 0.950 . S
C4532 C4531 1.524 . S
C4532 C4533 1.415 . S
C4533 H4503 0.950 . S
C4533 C4528 1.363 . S
C4533 C4532 1.415 . S
H4534 C4531 0.999 . S
H4535 C4516 0.913 . S
H4536 C4554 0.951 . S
H4537 C4556 0.951 . S
H4538 C4558 0.950 . S
H4539 C4559 0.950 . S
H4540 C4561 0.950 . S
H4541 C4564 0.950 . S
H4542 C4565 0.950 . S
H4543 C4567 0.950 . S
H4544 C4568 0.950 . S
H4545 C4569 0.951 . S
H4546 C4571 0.951 . S
H4547 C4573 0.950 . S
H4548 C4574 0.950 . S
H4549 C4576 0.950 . S
H4550 C4579 0.950 . S
H4551 C4580 0.950 . S
H4552 C4582 0.950 . S
H4553 C4583 0.950 . S
C4554 H4536 0.951 . S
C4554 C4555 1.366 . S
C4554 C4556 1.388 . S
C4555 C4554 1.366 . S
C4555 C4559 1.385 . S
C4556 H4537 0.951 . S
C4556 C4554 1.388 . S
C4556 C4557 1.366 . S
C4557 C4556 1.366 . S
C4557 C4558 1.414 . S
C4557 C4560 1.499 . S
C4558 H4538 0.950 . S
C4558 C4557 1.414 . S
C4558 C4559 1.374 . S
C4559 H4539 0.950 . S
C4559 C4555 1.385 . S
C4559 C4558 1.374 . S
C4560 C4557 1.499 . S
C4560 C4561 1.373 . S
C4560 C4562 1.389 . S
C4561 H4540 0.950 . S
C4561 C4560 1.373 . S
C4561 C4577 1.377 . S
C4562 C4560 1.389 . S
C4562 C4563 1.524 . S
C4562 C4576 1.377 . S
C4563 C4562 1.524 . S
C4563 C4564 1.397 . S
C4563 C4568 1.363 . S
C4564 H4541 0.950 . S
C4564 C4563 1.397 . S
C4564 C4565 1.334 . S
C4565 H4542 0.950 . S
C4565 C4564 1.334 . S
C4565 C4566 1.287 . S
C4566 C4565 1.287 . S
C4566 C4567 1.524 . S
C4566 H4585 0.913 1_554 S
C4567 H4543 0.950 . S
C4567 C4566 1.524 . S
C4567 C4568 1.415 . S
C4568 H4544 0.950 . S
C4568 C4563 1.363 . S
C4568 C4567 1.415 . S
C4569 H4545 0.951 . S
C4569 C4570 1.366 . S
C4569 C4571 1.388 . S
C4570 C4569 1.366 . S
C4570 C4574 1.385 . S
C4571 H4546 0.951 . S
C4571 C4569 1.388 . S
C4571 C4572 1.366 . S
C4572 C4571 1.366 . S
C4572 C4573 1.414 . S
C4572 C4575 1.499 . S
C4573 H4547 0.950 . S
C4573 C4572 1.414 . S
C4573 C4574 1.374 . S
C4574 H4548 0.950 . S
C4574 C4570 1.385 . S
C4574 C4573 1.374 . S
C4575 C4572 1.499 . S
C4575 C4576 1.373 . S
C4575 C4577 1.389 . S
C4576 H4549 0.950 . S
C4576 C4562 1.377 . S
C4576 C4575 1.373 . S
C4577 C4561 1.377 . S
C4577 C4575 1.389 . S
C4577 C4578 1.524 . S
C4578 C4577 1.524 . S
C4578 C4579 1.397 . S
C4578 C4583 1.363 . S
C4579 H4550 0.950 . S
C4579 C4578 1.397 . S
C4579 C4580 1.334 . S
C4580 H4551 0.950 . S
C4580 C4579 1.334 . S
C4580 C4581 1.287 . S
C4581 C4580 1.287 . S
C4581 C4582 1.524 . S
C4581 H4584 0.999 . S
C4582 H4552 0.950 . S
C4582 C4581 1.524 . S
C4582 C4583 1.415 . S
C4583 H4553 0.950 . S
C4583 C4578 1.363 . S
C4583 C4582 1.415 . S
H4584 C4581 0.999 . S
H4585 C4566 0.913 1_556 S
H4586 C4604 0.951 . S
H4587 C4606 0.951 . S
H4588 C4608 0.950 . S
H4589 C4609 0.950 . S
H4590 C4611 0.950 . S
H4591 C4614 0.950 . S
H4592 C4615 0.950 . S
H4593 C4617 0.950 . S
H4594 C4618 0.950 . S
H4595 C4619 0.951 . S
H4596 C4621 0.951 . S
H4597 C4623 0.950 . S
H4598 C4624 0.950 . S
H4599 C4626 0.950 . S
H4600 C4629 0.950 . S
H4601 C4630 0.950 . S
H4602 C4632 0.950 . S
H4603 C4633 0.950 . S
C4604 H4586 0.951 . S
C4604 C4605 1.366 . S
C4604 C4606 1.388 . S
C4605 C4604 1.366 . S
C4605 C4609 1.385 . S
C4606 H4587 0.951 . S
C4606 C4604 1.388 . S
C4606 C4607 1.366 . S
C4607 C4606 1.366 . S
C4607 C4608 1.414 . S
C4607 C4610 1.499 . S
C4608 H4588 0.950 . S
C4608 C4607 1.414 . S
C4608 C4609 1.374 . S
C4609 H4589 0.950 . S
C4609 C4605 1.385 . S
C4609 C4608 1.374 . S
C4610 C4607 1.499 . S
C4610 C4611 1.373 . S
C4610 C4612 1.389 . S
C4611 H4590 0.950 . S
C4611 C4610 1.373 . S
C4611 C4627 1.377 . S
C4612 C4610 1.389 . S
C4612 C4613 1.524 . S
C4612 C4626 1.377 . S
C4613 C4612 1.524 . S
C4613 C4614 1.397 . S
C4613 C4618 1.363 . S
C4614 H4591 0.950 . S
C4614 C4613 1.397 . S
C4614 C4615 1.334 . S
C4615 H4592 0.950 . S
C4615 C4614 1.334 . S
C4615 C4616 1.287 . S
C4616 C4615 1.287 . S
C4616 C4617 1.524 . S
C4616 H4635 0.913 . S
C4617 H4593 0.950 . S
C4617 C4616 1.524 . S
C4617 C4618 1.415 . S
C4618 H4594 0.950 . S
C4618 C4613 1.363 . S
C4618 C4617 1.415 . S
C4619 H4595 0.951 . S
C4619 C4620 1.366 . S
C4619 C4621 1.388 . S
C4620 C4619 1.366 . S
C4620 C4624 1.385 . S
C4621 H4596 0.951 . S
C4621 C4619 1.388 . S
C4621 C4622 1.366 . S
C4622 C4621 1.366 . S
C4622 C4623 1.414 . S
C4622 C4625 1.499 . S
C4623 H4597 0.950 . S
C4623 C4622 1.414 . S
C4623 C4624 1.374 . S
C4624 H4598 0.950 . S
C4624 C4620 1.385 . S
C4624 C4623 1.374 . S
C4625 C4622 1.499 . S
C4625 C4626 1.373 . S
C4625 C4627 1.389 . S
C4626 H4599 0.950 . S
C4626 C4612 1.377 . S
C4626 C4625 1.373 . S
C4627 C4611 1.377 . S
C4627 C4625 1.389 . S
C4627 C4628 1.524 . S
C4628 C4627 1.524 . S
C4628 C4629 1.397 . S
C4628 C4633 1.363 . S
C4629 H4600 0.950 . S
C4629 C4628 1.397 . S
C4629 C4630 1.334 . S
C4630 H4601 0.950 . S
C4630 C4629 1.334 . S
C4630 C4631 1.287 . S
C4631 C4630 1.287 . S
C4631 C4632 1.524 . S
C4631 H4634 0.999 . S
C4632 H4602 0.950 . S
C4632 C4631 1.524 . S
C4632 C4633 1.415 . S
C4633 H4603 0.950 . S
C4633 C4628 1.363 . S
C4633 C4632 1.415 . S
H4634 C4631 0.999 . S
H4635 C4616 0.913 . S
H4636 C4654 0.951 . S
H4637 C4656 0.951 . S
H4638 C4658 0.950 . S
H4639 C4659 0.950 . S
H4640 C4661 0.950 . S
H4641 C4664 0.950 . S
H4642 C4665 0.950 . S
H4643 C4667 0.950 . S
H4644 C4668 0.950 . S
H4645 C4669 0.951 . S
H4646 C4671 0.951 . S
H4647 C4673 0.950 . S
H4648 C4674 0.950 . S
H4649 C4676 0.950 . S
H4650 C4679 0.950 . S
H4651 C4680 0.950 . S
H4652 C4682 0.950 . S
H4653 C4683 0.950 . S
C4654 H4636 0.951 . S
C4654 C4655 1.366 . S
C4654 C4656 1.388 . S
C4655 C4654 1.366 . S
C4655 C4659 1.385 . S
C4656 H4637 0.951 . S
C4656 C4654 1.388 . S
C4656 C4657 1.366 . S
C4657 C4656 1.366 . S
C4657 C4658 1.414 . S
C4657 C4660 1.499 . S
C4658 H4638 0.950 . S
C4658 C4657 1.414 . S
C4658 C4659 1.374 . S
C4659 H4639 0.950 . S
C4659 C4655 1.385 . S
C4659 C4658 1.374 . S
C4660 C4657 1.499 . S
C4660 C4661 1.373 . S
C4660 C4662 1.389 . S
C4661 H4640 0.950 . S
C4661 C4660 1.373 . S
C4661 C4677 1.377 . S
C4662 C4660 1.389 . S
C4662 C4663 1.524 . S
C4662 C4676 1.377 . S
C4663 C4662 1.524 . S
C4663 C4664 1.397 . S
C4663 C4668 1.363 . S
C4664 H4641 0.950 . S
C4664 C4663 1.397 . S
C4664 C4665 1.334 . S
C4665 H4642 0.950 . S
C4665 C4664 1.334 . S
C4665 C4666 1.287 . S
C4666 C4665 1.287 . S
C4666 C4667 1.524 . S
C4666 H4685 0.913 . S
C4667 H4643 0.950 . S
C4667 C4666 1.524 . S
C4667 C4668 1.415 . S
C4668 H4644 0.950 . S
C4668 C4663 1.363 . S
C4668 C4667 1.415 . S
C4669 H4645 0.951 . S
C4669 C4670 1.366 . S
C4669 C4671 1.388 . S
C4670 C4669 1.366 . S
C4670 C4674 1.385 . S
C4671 H4646 0.951 . S
C4671 C4669 1.388 . S
C4671 C4672 1.366 . S
C4672 C4671 1.366 . S
C4672 C4673 1.414 . S
C4672 C4675 1.499 . S
C4673 H4647 0.950 . S
C4673 C4672 1.414 . S
C4673 C4674 1.374 . S
C4674 H4648 0.950 . S
C4674 C4670 1.385 . S
C4674 C4673 1.374 . S
C4675 C4672 1.499 . S
C4675 C4676 1.373 . S
C4675 C4677 1.389 . S
C4676 H4649 0.950 . S
C4676 C4662 1.377 . S
C4676 C4675 1.373 . S
C4677 C4661 1.377 . S
C4677 C4675 1.389 . S
C4677 C4678 1.524 . S
C4678 C4677 1.524 . S
C4678 C4679 1.397 . S
C4678 C4683 1.363 . S
C4679 H4650 0.950 . S
C4679 C4678 1.397 . S
C4679 C4680 1.334 . S
C4680 H4651 0.950 . S
C4680 C4679 1.334 . S
C4680 C4681 1.287 . S
C4681 C4680 1.287 . S
C4681 C4682 1.524 . S
C4681 H4684 0.999 . S
C4682 H4652 0.950 . S
C4682 C4681 1.524 . S
C4682 C4683 1.415 . S
C4683 H4653 0.950 . S
C4683 C4678 1.363 . S
C4683 C4682 1.415 . S
H4684 C4681 0.999 . S
H4685 C4666 0.913 . S
H4686 C4704 0.951 . S
H4687 C4706 0.951 . S
H4688 C4708 0.950 . S
H4689 C4709 0.950 . S
H4690 C4711 0.950 . S
H4691 C4714 0.950 . S
H4692 C4715 0.950 . S
H4693 C4717 0.950 . S
H4694 C4718 0.950 . S
H4695 C4719 0.951 . S
H4696 C4721 0.951 . S
H4697 C4723 0.950 . S
H4698 C4724 0.950 . S
H4699 C4726 0.950 . S
H4700 C4729 0.950 . S
H4701 C4730 0.950 . S
H4702 C4732 0.950 . S
H4703 C4733 0.950 . S
C4704 H4686 0.951 . S
C4704 C4705 1.366 . S
C4704 C4706 1.388 . S
C4705 C4704 1.366 . S
C4705 C4709 1.385 . S
C4706 H4687 0.951 . S
C4706 C4704 1.388 . S
C4706 C4707 1.366 . S
C4707 C4706 1.366 . S
C4707 C4708 1.414 . S
C4707 C4710 1.499 . S
C4708 H4688 0.950 . S
C4708 C4707 1.414 . S
C4708 C4709 1.374 . S
C4709 H4689 0.950 . S
C4709 C4705 1.385 . S
C4709 C4708 1.374 . S
C4710 C4707 1.499 . S
C4710 C4711 1.373 . S
C4710 C4712 1.389 . S
C4711 H4690 0.950 . S
C4711 C4710 1.373 . S
C4711 C4727 1.377 . S
C4712 C4710 1.389 . S
C4712 C4713 1.524 . S
C4712 C4726 1.377 . S
C4713 C4712 1.524 . S
C4713 C4714 1.397 . S
C4713 C4718 1.363 . S
C4714 H4691 0.950 . S
C4714 C4713 1.397 . S
C4714 C4715 1.334 . S
C4715 H4692 0.950 . S
C4715 C4714 1.334 . S
C4715 C4716 1.287 . S
C4716 C4715 1.287 . S
C4716 C4717 1.524 . S
C4716 H4735 0.913 . S
C4717 H4693 0.950 . S
C4717 C4716 1.524 . S
C4717 C4718 1.415 . S
C4718 H4694 0.950 . S
C4718 C4713 1.363 . S
C4718 C4717 1.415 . S
C4719 H4695 0.951 . S
C4719 C4720 1.366 . S
C4719 C4721 1.388 . S
C4720 C4719 1.366 . S
C4720 C4724 1.385 . S
C4721 H4696 0.951 . S
C4721 C4719 1.388 . S
C4721 C4722 1.366 . S
C4722 C4721 1.366 . S
C4722 C4723 1.414 . S
C4722 C4725 1.499 . S
C4723 H4697 0.950 . S
C4723 C4722 1.414 . S
C4723 C4724 1.374 . S
C4724 H4698 0.950 . S
C4724 C4720 1.385 . S
C4724 C4723 1.374 . S
C4725 C4722 1.499 . S
C4725 C4726 1.373 . S
C4725 C4727 1.389 . S
C4726 H4699 0.950 . S
C4726 C4712 1.377 . S
C4726 C4725 1.373 . S
C4727 C4711 1.377 . S
C4727 C4725 1.389 . S
C4727 C4728 1.524 . S
C4728 C4727 1.524 . S
C4728 C4729 1.397 . S
C4728 C4733 1.363 . S
C4729 H4700 0.950 . S
C4729 C4728 1.397 . S
C4729 C4730 1.334 . S
C4730 H4701 0.950 . S
C4730 C4729 1.334 . S
C4730 C4731 1.287 . S
C4731 C4730 1.287 . S
C4731 C4732 1.524 . S
C4731 H4734 0.999 . S
C4732 H4702 0.950 . S
C4732 C4731 1.524 . S
C4732 C4733 1.415 . S
C4733 H4703 0.950 . S
C4733 C4728 1.363 . S
C4733 C4732 1.415 . S
H4734 C4731 0.999 . S
H4735 C4716 0.913 . S
H4736 C4754 0.951 . S
H4737 C4756 0.951 . S
H4738 C4758 0.950 . S
H4739 C4759 0.950 . S
H4740 C4761 0.950 . S
H4741 C4764 0.950 . S
H4742 C4765 0.950 . S
H4743 C4767 0.950 . S
H4744 C4768 0.950 . S
H4745 C4769 0.951 . S
H4746 C4771 0.951 . S
H4747 C4773 0.950 . S
H4748 C4774 0.950 . S
H4749 C4776 0.950 . S
H4750 C4779 0.950 . S
H4751 C4780 0.950 . S
H4752 C4782 0.950 . S
H4753 C4783 0.950 . S
C4754 H4736 0.951 . S
C4754 C4755 1.366 . S
C4754 C4756 1.388 . S
C4755 C4754 1.366 . S
C4755 C4759 1.385 . S
C4756 H4737 0.951 . S
C4756 C4754 1.388 . S
C4756 C4757 1.366 . S
C4757 C4756 1.366 . S
C4757 C4758 1.414 . S
C4757 C4760 1.499 . S
C4758 H4738 0.950 . S
C4758 C4757 1.414 . S
C4758 C4759 1.374 . S
C4759 H4739 0.950 . S
C4759 C4755 1.385 . S
C4759 C4758 1.374 . S
C4760 C4757 1.499 . S
C4760 C4761 1.373 . S
C4760 C4762 1.389 . S
C4761 H4740 0.950 . S
C4761 C4760 1.373 . S
C4761 C4777 1.377 . S
C4762 C4760 1.389 . S
C4762 C4763 1.524 . S
C4762 C4776 1.377 . S
C4763 C4762 1.524 . S
C4763 C4764 1.397 . S
C4763 C4768 1.363 . S
C4764 H4741 0.950 . S
C4764 C4763 1.397 . S
C4764 C4765 1.334 . S
C4765 H4742 0.950 . S
C4765 C4764 1.334 . S
C4765 C4766 1.287 . S
C4766 C4765 1.287 . S
C4766 C4767 1.524 . S
C4766 H4785 0.913 . S
C4767 H4743 0.950 . S
C4767 C4766 1.524 . S
C4767 C4768 1.415 . S
C4768 H4744 0.950 . S
C4768 C4763 1.363 . S
C4768 C4767 1.415 . S
C4769 H4745 0.951 . S
C4769 C4770 1.366 . S
C4769 C4771 1.388 . S
C4770 C4769 1.366 . S
C4770 C4774 1.385 . S
C4771 H4746 0.951 . S
C4771 C4769 1.388 . S
C4771 C4772 1.366 . S
C4772 C4771 1.366 . S
C4772 C4773 1.414 . S
C4772 C4775 1.499 . S
C4773 H4747 0.950 . S
C4773 C4772 1.414 . S
C4773 C4774 1.374 . S
C4774 H4748 0.950 . S
C4774 C4770 1.385 . S
C4774 C4773 1.374 . S
C4775 C4772 1.499 . S
C4775 C4776 1.373 . S
C4775 C4777 1.389 . S
C4776 H4749 0.950 . S
C4776 C4762 1.377 . S
C4776 C4775 1.373 . S
C4777 C4761 1.377 . S
C4777 C4775 1.389 . S
C4777 C4778 1.524 . S
C4778 C4777 1.524 . S
C4778 C4779 1.397 . S
C4778 C4783 1.363 . S
C4779 H4750 0.950 . S
C4779 C4778 1.397 . S
C4779 C4780 1.334 . S
C4780 H4751 0.950 . S
C4780 C4779 1.334 . S
C4780 C4781 1.287 . S
C4781 C4780 1.287 . S
C4781 C4782 1.524 . S
C4781 H4784 0.999 . S
C4782 H4752 0.950 . S
C4782 C4781 1.524 . S
C4782 C4783 1.415 . S
C4783 H4753 0.950 . S
C4783 C4778 1.363 . S
C4783 C4782 1.415 . S
H4784 C4781 0.999 . S
H4785 C4766 0.913 . S
H4786 C4804 0.951 . S
H4787 C4806 0.951 . S
H4788 C4808 0.950 . S
H4789 C4809 0.950 . S
H4790 C4811 0.950 . S
H4791 C4814 0.950 . S
H4792 C4815 0.950 . S
H4793 C4817 0.950 . S
H4794 C4818 0.950 . S
H4795 C4819 0.951 . S
H4796 C4821 0.951 . S
H4797 C4823 0.950 . S
H4798 C4824 0.950 . S
H4799 C4826 0.950 . S
H4800 C4829 0.950 . S
H4801 C4830 0.950 . S
H4802 C4832 0.950 . S
H4803 C4833 0.950 . S
C4804 H4786 0.951 . S
C4804 C4805 1.366 . S
C4804 C4806 1.388 . S
C4805 C4804 1.366 . S
C4805 C4809 1.385 . S
C4806 H4787 0.951 . S
C4806 C4804 1.388 . S
C4806 C4807 1.366 . S
C4807 C4806 1.366 . S
C4807 C4808 1.414 . S
C4807 C4810 1.499 . S
C4808 H4788 0.950 . S
C4808 C4807 1.414 . S
C4808 C4809 1.374 . S
C4809 H4789 0.950 . S
C4809 C4805 1.385 . S
C4809 C4808 1.374 . S
C4810 C4807 1.499 . S
C4810 C4811 1.373 . S
C4810 C4812 1.389 . S
C4811 H4790 0.950 . S
C4811 C4810 1.373 . S
C4811 C4827 1.377 . S
C4812 C4810 1.389 . S
C4812 C4813 1.524 . S
C4812 C4826 1.377 . S
C4813 C4812 1.524 . S
C4813 C4814 1.397 . S
C4813 C4818 1.363 . S
C4814 H4791 0.950 . S
C4814 C4813 1.397 . S
C4814 C4815 1.334 . S
C4815 H4792 0.950 . S
C4815 C4814 1.334 . S
C4815 C4816 1.287 . S
C4816 C4815 1.287 . S
C4816 C4817 1.524 . S
C4816 H4835 0.913 . S
C4817 H4793 0.950 . S
C4817 C4816 1.524 . S
C4817 C4818 1.415 . S
C4818 H4794 0.950 . S
C4818 C4813 1.363 . S
C4818 C4817 1.415 . S
C4819 H4795 0.951 . S
C4819 C4820 1.366 . S
C4819 C4821 1.388 . S
C4820 C4819 1.366 . S
C4820 C4824 1.385 . S
C4821 H4796 0.951 . S
C4821 C4819 1.388 . S
C4821 C4822 1.366 . S
C4822 C4821 1.366 . S
C4822 C4823 1.414 . S
C4822 C4825 1.499 . S
C4823 H4797 0.950 . S
C4823 C4822 1.414 . S
C4823 C4824 1.374 . S
C4824 H4798 0.950 . S
C4824 C4820 1.385 . S
C4824 C4823 1.374 . S
C4825 C4822 1.499 . S
C4825 C4826 1.373 . S
C4825 C4827 1.389 . S
C4826 H4799 0.950 . S
C4826 C4812 1.377 . S
C4826 C4825 1.373 . S
C4827 C4811 1.377 . S
C4827 C4825 1.389 . S
C4827 C4828 1.524 . S
C4828 C4827 1.524 . S
C4828 C4829 1.397 . S
C4828 C4833 1.363 . S
C4829 H4800 0.950 . S
C4829 C4828 1.397 . S
C4829 C4830 1.334 . S
C4830 H4801 0.950 . S
C4830 C4829 1.334 . S
C4830 C4831 1.287 . S
C4831 C4830 1.287 . S
C4831 C4832 1.524 . S
C4831 H4834 0.999 . S
C4832 H4802 0.950 . S
C4832 C4831 1.524 . S
C4832 C4833 1.415 . S
C4833 H4803 0.950 . S
C4833 C4828 1.363 . S
C4833 C4832 1.415 . S
H4834 C4831 0.999 . S
H4835 C4816 0.913 . S
H4836 C4854 0.951 . S
H4837 C4856 0.951 . S
H4838 C4858 0.950 . S
H4839 C4859 0.950 . S
H4840 C4861 0.950 1_655 S
H4841 C4864 0.950 . S
H4842 C4865 0.950 . S
H4843 C4867 0.950 . S
H4844 C4868 0.950 . S
H4845 C4869 0.951 . S
H4846 C4871 0.929 1_655 S
H4847 C4873 0.950 . S
H4848 C4874 0.950 . S
H4849 C4876 0.950 . S
H4850 C4879 0.877 1_455 S
H4851 C4880 0.950 . S
H4852 C4882 0.950 . S
H4853 C4883 0.950 . S
C4854 H4836 0.951 . S
C4854 C4855 1.366 . S
C4854 C4856 1.388 . S
C4855 C4854 1.366 . S
C4855 C4859 1.385 . S
C4856 H4837 0.951 . S
C4856 C4854 1.388 . S
C4856 C4857 1.366 . S
C4857 C4856 1.366 . S
C4857 C4858 1.414 . S
C4857 C4860 1.499 . S
C4858 H4838 0.950 . S
C4858 C4857 1.414 . S
C4858 C4859 1.374 . S
C4859 H4839 0.950 . S
C4859 C4855 1.385 . S
C4859 C4858 1.374 . S
C4860 C4857 1.499 . S
C4860 C4861 1.373 . S
C4860 C4862 1.389 . S
C4861 H4840 0.950 1_455 S
C4861 C4860 1.373 . S
C4861 C4877 1.377 . S
C4862 C4860 1.389 . S
C4862 C4863 1.524 . S
C4862 C4876 1.377 . S
C4863 C4862 1.524 . S
C4863 C4864 1.397 . S
C4863 C4868 1.363 . S
C4864 H4841 0.950 . S
C4864 C4863 1.397 . S
C4864 C4865 1.334 . S
C4865 H4842 0.950 . S
C4865 C4864 1.334 . S
C4865 C4866 1.287 . S
C4866 C4865 1.287 . S
C4866 C4867 1.524 . S
C4866 H4885 0.913 . S
C4867 H4843 0.950 . S
C4867 C4866 1.524 . S
C4867 C4868 1.415 . S
C4868 H4844 0.950 . S
C4868 C4863 1.363 . S
C4868 C4867 1.415 . S
C4869 H4845 0.951 . S
C4869 C4870 1.366 1_655 S
C4869 C4871 1.361 1_655 S
C4870 C4869 1.366 1_455 S
C4870 C4874 1.385 . S
C4871 H4846 0.929 1_455 S
C4871 C4869 1.361 1_455 S
C4871 C4872 1.416 . S
C4872 C4871 1.416 . S
C4872 C4873 1.414 . S
C4872 C4875 1.499 . S
C4873 H4847 0.950 . S
C4873 C4872 1.414 . S
C4873 C4874 1.374 . S
C4874 H4848 0.950 . S
C4874 C4870 1.385 . S
C4874 C4873 1.374 . S
C4875 C4872 1.499 . S
C4875 C4876 1.373 . S
C4875 C4877 1.389 . S
C4876 H4849 0.950 . S
C4876 C4862 1.377 . S
C4876 C4875 1.373 . S
C4877 C4861 1.377 . S
C4877 C4875 1.389 . S
C4877 C4878 1.524 1_455 S
C4878 C4877 1.524 1_655 S
C4878 C4879 1.397 . S
C4878 C4883 1.363 . S
C4879 H4850 0.877 1_655 S
C4879 C4878 1.397 . S
C4879 C4880 1.334 . S
C4880 H4851 0.950 . S
C4880 C4879 1.334 . S
C4880 C4881 1.287 . S
C4881 C4880 1.287 . S
C4881 C4882 1.524 . S
C4881 H4884 0.999 . S
C4882 H4852 0.950 . S
C4882 C4881 1.524 . S
C4882 C4883 1.415 . S
C4883 H4853 0.950 . S
C4883 C4878 1.363 . S
C4883 C4882 1.415 . S
H4884 C4881 0.999 . S
H4885 C4866 0.913 . S
H4886 C4904 0.951 . S
H4887 C4906 0.951 . S
H4888 C4908 0.950 . S
H4889 C4909 0.950 . S
H4890 C4911 0.950 . S
H4891 C4914 0.950 . S
H4892 C4915 0.950 . S
H4893 C4917 0.950 . S
H4894 C4918 0.950 . S
H4895 C4919 0.951 . S
H4896 C4921 0.951 . S
H4897 C4923 0.950 . S
H4898 C4924 0.950 . S
H4899 C4926 0.950 . S
H4900 C4929 0.950 . S
H4901 C4930 0.950 . S
H4902 C4932 0.950 . S
H4903 C4933 0.950 . S
C4904 H4886 0.951 . S
C4904 C4905 1.366 . S
C4904 C4906 1.388 . S
C4905 C4904 1.366 . S
C4905 C4909 1.385 . S
C4906 H4887 0.951 . S
C4906 C4904 1.388 . S
C4906 C4907 1.366 . S
C4907 C4906 1.366 . S
C4907 C4908 1.414 . S
C4907 C4910 1.499 . S
C4908 H4888 0.950 . S
C4908 C4907 1.414 . S
C4908 C4909 1.374 . S
C4909 H4889 0.950 . S
C4909 C4905 1.385 . S
C4909 C4908 1.374 . S
C4910 C4907 1.499 . S
C4910 C4911 1.373 . S
C4910 C4912 1.389 . S
C4911 H4890 0.950 . S
C4911 C4910 1.373 . S
C4911 C4927 1.377 . S
C4912 C4910 1.389 . S
C4912 C4913 1.524 . S
C4912 C4926 1.377 . S
C4913 C4912 1.524 . S
C4913 C4914 1.397 . S
C4913 C4918 1.363 . S
C4914 H4891 0.950 . S
C4914 C4913 1.397 . S
C4914 C4915 1.334 . S
C4915 H4892 0.950 . S
C4915 C4914 1.334 . S
C4915 C4916 1.287 . S
C4916 C4915 1.287 . S
C4916 C4917 1.524 . S
C4916 H4935 0.913 . S
C4917 H4893 0.950 . S
C4917 C4916 1.524 . S
C4917 C4918 1.415 . S
C4918 H4894 0.950 . S
C4918 C4913 1.363 . S
C4918 C4917 1.415 . S
C4919 H4895 0.951 . S
C4919 C4920 1.366 . S
C4919 C4921 1.388 . S
C4920 C4919 1.366 . S
C4920 C4924 1.385 . S
C4921 H4896 0.951 . S
C4921 C4919 1.388 . S
C4921 C4922 1.366 . S
C4922 C4921 1.366 . S
C4922 C4923 1.414 . S
C4922 C4925 1.499 . S
C4923 H4897 0.950 . S
C4923 C4922 1.414 . S
C4923 C4924 1.374 . S
C4924 H4898 0.950 . S
C4924 C4920 1.385 . S
C4924 C4923 1.374 . S
C4925 C4922 1.499 . S
C4925 C4926 1.373 . S
C4925 C4927 1.389 . S
C4926 H4899 0.950 . S
C4926 C4912 1.377 . S
C4926 C4925 1.373 . S
C4927 C4911 1.377 . S
C4927 C4925 1.389 . S
C4927 C4928 1.524 . S
C4928 C4927 1.524 . S
C4928 C4929 1.397 . S
C4928 C4933 1.363 . S
C4929 H4900 0.950 . S
C4929 C4928 1.397 . S
C4929 C4930 1.334 . S
C4930 H4901 0.950 . S
C4930 C4929 1.334 . S
C4930 C4931 1.287 . S
C4931 C4930 1.287 . S
C4931 C4932 1.524 . S
C4931 H4934 0.999 . S
C4932 H4902 0.950 . S
C4932 C4931 1.524 . S
C4932 C4933 1.415 . S
C4933 H4903 0.950 . S
C4933 C4928 1.363 . S
C4933 C4932 1.415 . S
H4934 C4931 0.999 . S
H4935 C4916 0.913 . S
H4936 C4954 0.951 . S
H4937 C4956 0.951 . S
H4938 C4958 0.950 . S
H4939 C4959 0.950 . S
H4940 C4961 0.971 . S
H4941 C4964 0.950 . S
H4942 C4965 0.950 . S
H4943 C4967 0.950 . S
H4944 C4968 0.950 . S
H4945 C4969 0.951 . S
H4946 C4971 0.951 . S
H4947 C4973 0.950 . S
H4948 C4974 0.953 1_545 S
H4949 C4976 0.950 . S
H4950 C4979 0.950 . S
H4951 C4980 0.950 . S
H4952 C4982 0.950 . S
H4953 C4983 0.950 1_565 S
C4954 H4936 0.951 . S
C4954 C4955 1.366 . S
C4954 C4956 1.388 . S
C4955 C4954 1.366 . S
C4955 C4959 1.385 . S
C4956 H4937 0.951 . S
C4956 C4954 1.388 . S
C4956 C4957 1.366 . S
C4957 C4956 1.366 . S
C4957 C4958 1.414 . S
C4957 C4960 1.499 . S
C4958 H4938 0.950 . S
C4958 C4957 1.414 . S
C4958 C4959 1.374 . S
C4959 H4939 0.950 . S
C4959 C4955 1.385 . S
C4959 C4958 1.374 . S
C4960 C4957 1.499 . S
C4960 C4961 1.373 . S
C4960 C4962 1.389 . S
C4961 H4940 0.971 . S
C4961 C4960 1.373 . S
C4961 C4977 1.377 . S
C4962 C4960 1.389 . S
C4962 C4963 1.524 . S
C4962 C4976 1.377 . S
C4963 C4962 1.524 . S
C4963 C4964 1.397 . S
C4963 C4968 1.363 . S
C4964 H4941 0.950 . S
C4964 C4963 1.397 . S
C4964 C4965 1.334 . S
C4965 H4942 0.950 . S
C4965 C4964 1.334 . S
C4965 C4966 1.287 . S
C4966 C4965 1.287 . S
C4966 C4967 1.524 . S
C4966 H4985 0.913 . S
C4967 H4943 0.950 . S
C4967 C4966 1.524 . S
C4967 C4968 1.415 . S
C4968 H4944 0.950 . S
C4968 C4963 1.363 . S
C4968 C4967 1.415 . S
C4969 H4945 0.951 . S
C4969 C4970 1.366 . S
C4969 C4971 1.388 . S
C4970 C4969 1.366 . S
C4970 C4974 1.385 . S
C4971 H4946 0.951 . S
C4971 C4969 1.388 . S
C4971 C4972 1.366 . S
C4972 C4971 1.366 . S
C4972 C4973 1.414 . S
C4972 C4975 1.499 . S
C4973 H4947 0.950 . S
C4973 C4972 1.414 . S
C4973 C4974 1.374 . S
C4974 H4948 0.953 1_565 S
C4974 C4970 1.385 . S
C4974 C4973 1.374 . S
C4975 C4972 1.499 . S
C4975 C4976 1.373 . S
C4975 C4977 1.389 . S
C4976 H4949 0.950 . S
C4976 C4962 1.377 . S
C4976 C4975 1.373 . S
C4977 C4961 1.377 . S
C4977 C4975 1.389 . S
C4977 C4978 1.524 1_565 S
C4978 C4977 1.524 1_545 S
C4978 C4979 1.397 . S
C4978 C4983 1.363 . S
C4979 H4950 0.950 . S
C4979 C4978 1.397 . S
C4979 C4980 1.334 . S
C4980 H4951 0.950 . S
C4980 C4979 1.334 . S
C4980 C4981 1.287 . S
C4981 C4980 1.287 . S
C4981 C4982 1.524 . S
C4981 H4984 0.999 . S
C4982 H4952 0.950 . S
C4982 C4981 1.524 . S
C4982 C4983 1.415 . S
C4983 H4953 0.950 1_545 S
C4983 C4978 1.363 . S
C4983 C4982 1.415 . S
H4984 C4981 0.999 . S
H4985 C4966 0.913 . S
H4986 C5004 0.951 . S
H4987 C5006 0.951 . S
H4988 C5008 0.950 . S
H4989 C5009 0.950 . S
H4990 C5011 0.950 . S
H4991 C5014 0.950 . S
H4992 C5015 0.950 . S
H4993 C5017 0.950 . S
H4994 C5018 0.990 . S
H4995 C5019 0.898 1_545 S
H4996 C5021 0.951 . S
H4997 C5023 0.950 . S
H4998 C5024 0.950 . S
H4999 C5026 0.950 1_545 S
H5000 C5029 0.950 . S
H5001 C5030 0.950 . S
H5002 C5032 0.950 . S
H5003 C5033 0.950 . S
C5004 H4986 0.951 . S
C5004 C5005 1.366 . S
C5004 C5006 1.388 . S
C5005 C5004 1.366 . S
C5005 C5009 1.385 . S
C5006 H4987 0.951 . S
C5006 C5004 1.388 . S
C5006 C5007 1.366 . S
C5007 C5006 1.366 . S
C5007 C5008 1.414 . S
C5007 C5010 1.499 . S
C5008 H4988 0.950 . S
C5008 C5007 1.414 . S
C5008 C5009 1.374 . S
C5009 H4989 0.950 . S
C5009 C5005 1.385 . S
C5009 C5008 1.374 . S
C5010 C5007 1.499 . S
C5010 C5011 1.373 . S
C5010 C5012 1.389 . S
C5011 H4990 0.950 . S
C5011 C5010 1.373 . S
C5011 C5027 1.377 . S
C5012 C5010 1.389 . S
C5012 C5013 1.524 1_565 S
C5012 C5026 1.377 . S
C5013 C5012 1.524 1_545 S
C5013 C5014 1.397 . S
C5013 C5018 1.363 . S
C5014 H4991 0.950 . S
C5014 C5013 1.397 . S
C5014 C5015 1.334 . S
C5015 H4992 0.950 . S
C5015 C5014 1.334 . S
C5015 C5016 1.287 . S
C5016 C5015 1.287 . S
C5016 C5017 1.524 . S
C5016 H5035 0.913 . S
C5017 H4993 0.950 . S
C5017 C5016 1.524 . S
C5017 C5018 1.415 . S
C5018 H4994 0.990 . S
C5018 C5013 1.363 . S
C5018 C5017 1.415 . S
C5019 H4995 0.898 1_565 S
C5019 C5020 1.366 . S
C5019 C5021 1.388 . S
C5020 C5019 1.366 . S
C5020 C5024 1.385 . S
C5021 H4996 0.951 . S
C5021 C5019 1.388 . S
C5021 C5022 1.366 . S
C5022 C5021 1.366 . S
C5022 C5023 1.414 . S
C5022 C5025 1.499 . S
C5023 H4997 0.950 . S
C5023 C5022 1.414 . S
C5023 C5024 1.374 . S
C5024 H4998 0.950 . S
C5024 C5020 1.385 . S
C5024 C5023 1.374 . S
C5025 C5022 1.499 . S
C5025 C5026 1.373 . S
C5025 C5027 1.389 . S
C5026 H4999 0.950 1_565 S
C5026 C5012 1.377 . S
C5026 C5025 1.373 . S
C5027 C5011 1.377 . S
C5027 C5025 1.389 . S
C5027 C5028 1.524 . S
C5028 C5027 1.524 . S
C5028 C5029 1.397 . S
C5028 C5033 1.363 . S
C5029 H5000 0.950 . S
C5029 C5028 1.397 . S
C5029 C5030 1.334 . S
C5030 H5001 0.950 . S
C5030 C5029 1.334 . S
C5030 C5031 1.287 . S
C5031 C5030 1.287 . S
C5031 C5032 1.524 . S
C5031 H5034 0.999 . S
C5032 H5002 0.950 . S
C5032 C5031 1.524 . S
C5032 C5033 1.415 . S
C5033 H5003 0.950 . S
C5033 C5028 1.363 . S
C5033 C5032 1.415 . S
H5034 C5031 0.999 . S
H5035 C5016 0.913 . S
H5036 C5054 0.934 1_655 S
H5037 C5056 0.951 . S
H5038 C5058 0.950 . S
H5039 C5059 0.950 . S
H5040 C5061 0.950 . S
H5041 C5064 0.950 . S
H5042 C5065 0.950 . S
H5043 C5067 0.950 . S
H5044 C5068 0.950 . S
H5045 C5069 0.951 . S
H5046 C5071 0.951 . S
H5047 C5073 0.950 . S
H5048 C5074 0.950 . S
H5049 C5076 0.950 . S
H5050 C5079 0.950 . S
H5051 C5080 0.950 . S
H5052 C5082 0.950 . S
H5053 C5083 0.950 . S
C5054 H5036 0.934 1_455 S
C5054 C5055 1.376 . S
C5054 C5056 1.394 1_455 S
C5055 C5054 1.376 . S
C5055 C5059 1.385 . S
C5056 H5037 0.951 . S
C5056 C5054 1.394 1_655 S
C5056 C5057 1.366 1_655 S
C5057 C5056 1.366 1_455 S
C5057 C5058 1.414 . S
C5057 C5060 1.499 . S
C5058 H5038 0.950 . S
C5058 C5057 1.414 . S
C5058 C5059 1.374 . S
C5059 H5039 0.950 . S
C5059 C5055 1.385 . S
C5059 C5058 1.374 . S
C5060 C5057 1.499 . S
C5060 C5061 1.373 . S
C5060 C5062 1.389 1_455 S
C5061 H5040 0.950 . S
C5061 C5060 1.373 . S
C5061 C5077 1.377 . S
C5062 C5060 1.389 1_655 S
C5062 C5063 1.524 . S
C5062 C5076 1.377 . S
C5063 C5062 1.524 . S
C5063 C5064 1.397 . S
C5063 C5068 1.363 . S
C5064 H5041 0.950 . S
C5064 C5063 1.397 . S
C5064 C5065 1.334 . S
C5065 H5042 0.950 . S
C5065 C5064 1.334 . S
C5065 C5066 1.287 . S
C5066 C5065 1.287 . S
C5066 C5067 1.524 . S
C5066 H5085 0.913 . S
C5067 H5043 0.950 . S
C5067 C5066 1.524 . S
C5067 C5068 1.415 . S
C5068 H5044 0.950 . S
C5068 C5063 1.363 . S
C5068 C5067 1.415 . S
C5069 H5045 0.951 . S
C5069 C5070 1.313 1_455 S
C5069 C5071 1.388 . S
C5070 C5069 1.313 1_655 S
C5070 C5074 1.472 . S
C5071 H5046 0.951 . S
C5071 C5069 1.388 . S
C5071 C5072 1.366 . S
C5072 C5071 1.366 . S
C5072 C5073 1.414 1_455 S
C5072 C5075 1.499 . S
C5073 H5047 0.950 . S
C5073 C5072 1.414 1_655 S
C5073 C5074 1.374 . S
C5074 H5048 0.950 . S
C5074 C5070 1.472 . S
C5074 C5073 1.374 . S
C5075 C5072 1.499 . S
C5075 C5076 1.373 1_455 S
C5075 C5077 1.389 . S
C5076 H5049 0.950 . S
C5076 C5062 1.377 . S
C5076 C5075 1.373 1_655 S
C5077 C5061 1.377 . S
C5077 C5075 1.389 . S
C5077 C5078 1.524 . S
C5078 C5077 1.524 . S
C5078 C5079 1.397 . S
C5078 C5083 1.363 . S
C5079 H5050 0.950 . S
C5079 C5078 1.397 . S
C5079 C5080 1.334 . S
C5080 H5051 0.950 . S
C5080 C5079 1.334 . S
C5080 C5081 1.287 . S
C5081 C5080 1.287 . S
C5081 C5082 1.524 . S
C5081 H5084 0.999 . S
C5082 H5052 0.950 . S
C5082 C5081 1.524 . S
C5082 C5083 1.415 . S
C5083 H5053 0.950 . S
C5083 C5078 1.363 . S
C5083 C5082 1.415 . S
H5084 C5081 0.999 . S
H5085 C5066 0.913 . S
H5086 C5104 0.951 . S
H5087 C5106 0.951 . S
H5088 C5108 0.950 . S
H5089 C5109 0.950 . S
H5090 C5111 0.950 . S
H5091 C5114 0.950 . S
H5092 C5115 0.950 . S
H5093 C5117 0.950 . S
H5094 C5118 0.950 . S
H5095 C5119 0.951 . S
H5096 C5121 0.951 . S
H5097 C5123 0.950 . S
H5098 C5124 0.950 . S
H5099 C5126 0.950 . S
H5100 C5129 0.950 . S
H5101 C5130 0.950 . S
H5102 C5132 0.950 . S
H5103 C5133 0.950 . S
C5104 H5086 0.951 . S
C5104 C5105 1.366 . S
C5104 C5106 1.388 . S
C5105 C5104 1.366 . S
C5105 C5109 1.385 . S
C5106 H5087 0.951 . S
C5106 C5104 1.388 . S
C5106 C5107 1.366 . S
C5107 C5106 1.366 . S
C5107 C5108 1.414 . S
C5107 C5110 1.499 . S
C5108 H5088 0.950 . S
C5108 C5107 1.414 . S
C5108 C5109 1.374 . S
C5109 H5089 0.950 . S
C5109 C5105 1.385 . S
C5109 C5108 1.374 . S
C5110 C5107 1.499 . S
C5110 C5111 1.373 . S
C5110 C5112 1.389 . S
C5111 H5090 0.950 . S
C5111 C5110 1.373 . S
C5111 C5127 1.377 . S
C5112 C5110 1.389 . S
C5112 C5113 1.524 . S
C5112 C5126 1.377 . S
C5113 C5112 1.524 . S
C5113 C5114 1.397 . S
C5113 C5118 1.363 . S
C5114 H5091 0.950 . S
C5114 C5113 1.397 . S
C5114 C5115 1.334 . S
C5115 H5092 0.950 . S
C5115 C5114 1.334 . S
C5115 C5116 1.287 . S
C5116 C5115 1.287 . S
C5116 C5117 1.524 . S
C5116 H5135 0.913 . S
C5117 H5093 0.950 . S
C5117 C5116 1.524 . S
C5117 C5118 1.415 . S
C5118 H5094 0.950 . S
C5118 C5113 1.363 . S
C5118 C5117 1.415 . S
C5119 H5095 0.951 . S
C5119 C5120 1.366 . S
C5119 C5121 1.388 . S
C5120 C5119 1.366 . S
C5120 C5124 1.385 . S
C5121 H5096 0.951 . S
C5121 C5119 1.388 . S
C5121 C5122 1.366 . S
C5122 C5121 1.366 . S
C5122 C5123 1.414 . S
C5122 C5125 1.499 . S
C5123 H5097 0.950 . S
C5123 C5122 1.414 . S
C5123 C5124 1.374 . S
C5124 H5098 0.950 . S
C5124 C5120 1.385 . S
C5124 C5123 1.374 . S
C5125 C5122 1.499 . S
C5125 C5126 1.373 . S
C5125 C5127 1.389 . S
C5126 H5099 0.950 . S
C5126 C5112 1.377 . S
C5126 C5125 1.373 . S
C5127 C5111 1.377 . S
C5127 C5125 1.389 . S
C5127 C5128 1.524 . S
C5128 C5127 1.524 . S
C5128 C5129 1.397 . S
C5128 C5133 1.363 . S
C5129 H5100 0.950 . S
C5129 C5128 1.397 . S
C5129 C5130 1.334 . S
C5130 H5101 0.950 . S
C5130 C5129 1.334 . S
C5130 C5131 1.287 . S
C5131 C5130 1.287 . S
C5131 C5132 1.524 . S
C5131 H5134 0.999 . S
C5132 H5102 0.950 . S
C5132 C5131 1.524 . S
C5132 C5133 1.415 . S
C5133 H5103 0.950 . S
C5133 C5128 1.363 . S
C5133 C5132 1.415 . S
H5134 C5131 0.999 . S
H5135 C5116 0.913 . S
H5136 C5154 0.951 . S
H5137 C5156 0.951 . S
H5138 C5158 0.950 . S
H5139 C5159 0.950 . S
H5140 C5161 0.950 . S
H5141 C5164 0.950 . S
H5142 C5165 0.950 . S
H5143 C5167 0.950 . S
H5144 C5168 0.950 . S
H5145 C5169 0.951 . S
H5146 C5171 0.951 . S
H5147 C5173 0.950 . S
H5148 C5174 0.950 . S
H5149 C5176 0.950 . S
H5150 C5179 0.950 . S
H5151 C5180 0.950 . S
H5152 C5182 0.950 . S
H5153 C5183 0.950 . S
C5154 H5136 0.951 . S
C5154 C5155 1.366 . S
C5154 C5156 1.388 . S
C5155 C5154 1.366 . S
C5155 C5159 1.385 . S
C5156 H5137 0.951 . S
C5156 C5154 1.388 . S
C5156 C5157 1.366 . S
C5157 C5156 1.366 . S
C5157 C5158 1.414 . S
C5157 C5160 1.499 . S
C5158 H5138 0.950 . S
C5158 C5157 1.414 . S
C5158 C5159 1.374 . S
C5159 H5139 0.950 . S
C5159 C5155 1.385 . S
C5159 C5158 1.374 . S
C5160 C5157 1.499 . S
C5160 C5161 1.373 . S
C5160 C5162 1.389 . S
C5161 H5140 0.950 . S
C5161 C5160 1.373 . S
C5161 C5177 1.377 . S
C5162 C5160 1.389 . S
C5162 C5163 1.524 . S
C5162 C5176 1.377 . S
C5163 C5162 1.524 . S
C5163 C5164 1.397 . S
C5163 C5168 1.363 . S
C5164 H5141 0.950 . S
C5164 C5163 1.397 . S
C5164 C5165 1.334 . S
C5165 H5142 0.950 . S
C5165 C5164 1.334 . S
C5165 C5166 1.287 . S
C5166 C5165 1.287 . S
C5166 C5167 1.524 . S
C5166 H5185 0.913 . S
C5167 H5143 0.950 . S
C5167 C5166 1.524 . S
C5167 C5168 1.415 . S
C5168 H5144 0.950 . S
C5168 C5163 1.363 . S
C5168 C5167 1.415 . S
C5169 H5145 0.951 . S
C5169 C5170 1.366 . S
C5169 C5171 1.388 . S
C5170 C5169 1.366 . S
C5170 C5174 1.385 . S
C5171 H5146 0.951 . S
C5171 C5169 1.388 . S
C5171 C5172 1.366 . S
C5172 C5171 1.366 . S
C5172 C5173 1.414 . S
C5172 C5175 1.499 . S
C5173 H5147 0.950 . S
C5173 C5172 1.414 . S
C5173 C5174 1.374 . S
C5174 H5148 0.950 . S
C5174 C5170 1.385 . S
C5174 C5173 1.374 . S
C5175 C5172 1.499 . S
C5175 C5176 1.373 . S
C5175 C5177 1.389 . S
C5176 H5149 0.950 . S
C5176 C5162 1.377 . S
C5176 C5175 1.373 . S
C5177 C5161 1.377 . S
C5177 C5175 1.389 . S
C5177 C5178 1.524 . S
C5178 C5177 1.524 . S
C5178 C5179 1.397 . S
C5178 C5183 1.363 . S
C5179 H5150 0.950 . S
C5179 C5178 1.397 . S
C5179 C5180 1.334 . S
C5180 H5151 0.950 . S
C5180 C5179 1.334 . S
C5180 C5181 1.287 . S
C5181 C5180 1.287 . S
C5181 C5182 1.524 . S
C5181 H5184 0.999 . S
C5182 H5152 0.950 . S
C5182 C5181 1.524 . S
C5182 C5183 1.415 . S
C5183 H5153 0.950 . S
C5183 C5178 1.363 . S
C5183 C5182 1.415 . S
H5184 C5181 0.999 . S
H5185 C5166 0.913 . S
H5186 C5204 0.951 . S
H5187 C5206 0.951 . S
H5188 C5208 0.950 . S
H5189 C5209 0.950 . S
H5190 C5211 0.950 . S
H5191 C5214 0.950 . S
H5192 C5215 0.950 . S
H5193 C5217 0.950 . S
H5194 C5218 0.950 . S
H5195 C5219 0.951 . S
H5196 C5221 0.951 . S
H5197 C5223 0.950 . S
H5198 C5224 0.950 . S
H5199 C5226 0.950 . S
H5200 C5229 0.950 . S
H5201 C5230 0.950 . S
H5202 C5232 0.950 . S
H5203 C5233 0.950 . S
C5204 H5186 0.951 . S
C5204 C5205 1.366 . S
C5204 C5206 1.388 . S
C5205 C5204 1.366 . S
C5205 C5209 1.385 . S
C5206 H5187 0.951 . S
C5206 C5204 1.388 . S
C5206 C5207 1.366 . S
C5207 C5206 1.366 . S
C5207 C5208 1.414 . S
C5207 C5210 1.499 . S
C5208 H5188 0.950 . S
C5208 C5207 1.414 . S
C5208 C5209 1.374 . S
C5209 H5189 0.950 . S
C5209 C5205 1.385 . S
C5209 C5208 1.374 . S
C5210 C5207 1.499 . S
C5210 C5211 1.373 . S
C5210 C5212 1.389 . S
C5211 H5190 0.950 . S
C5211 C5210 1.373 . S
C5211 C5227 1.377 . S
C5212 C5210 1.389 . S
C5212 C5213 1.524 . S
C5212 C5226 1.377 . S
C5213 C5212 1.524 . S
C5213 C5214 1.397 . S
C5213 C5218 1.363 . S
C5214 H5191 0.950 . S
C5214 C5213 1.397 . S
C5214 C5215 1.334 . S
C5215 H5192 0.950 . S
C5215 C5214 1.334 . S
C5215 C5216 1.287 . S
C5216 C5215 1.287 . S
C5216 C5217 1.524 . S
C5216 H5235 0.913 . S
C5217 H5193 0.950 . S
C5217 C5216 1.524 . S
C5217 C5218 1.415 . S
C5218 H5194 0.950 . S
C5218 C5213 1.363 . S
C5218 C5217 1.415 . S
C5219 H5195 0.951 . S
C5219 C5220 1.366 . S
C5219 C5221 1.388 . S
C5220 C5219 1.366 . S
C5220 C5224 1.385 . S
C5221 H5196 0.951 . S
C5221 C5219 1.388 . S
C5221 C5222 1.366 . S
C5222 C5221 1.366 . S
C5222 C5223 1.414 . S
C5222 C5225 1.499 . S
C5223 H5197 0.950 . S
C5223 C5222 1.414 . S
C5223 C5224 1.374 . S
C5224 H5198 0.950 . S
C5224 C5220 1.385 . S
C5224 C5223 1.374 . S
C5225 C5222 1.499 . S
C5225 C5226 1.373 . S
C5225 C5227 1.389 . S
C5226 H5199 0.950 . S
C5226 C5212 1.377 . S
C5226 C5225 1.373 . S
C5227 C5211 1.377 . S
C5227 C5225 1.389 . S
C5227 C5228 1.524 . S
C5228 C5227 1.524 . S
C5228 C5229 1.397 . S
C5228 C5233 1.363 . S
C5229 H5200 0.950 . S
C5229 C5228 1.397 . S
C5229 C5230 1.334 . S
C5230 H5201 0.950 . S
C5230 C5229 1.334 . S
C5230 C5231 1.287 . S
C5231 C5230 1.287 . S
C5231 C5232 1.524 . S
C5231 H5234 0.999 . S
C5232 H5202 0.950 . S
C5232 C5231 1.524 . S
C5232 C5233 1.415 . S
C5233 H5203 0.950 . S
C5233 C5228 1.363 . S
C5233 C5232 1.415 . S
H5234 C5231 0.999 . S
H5235 C5216 0.913 . S
H5236 C5254 0.951 . S
H5237 C5256 0.951 . S
H5238 C5258 0.950 . S
H5239 C5259 0.950 . S
H5240 C5261 0.950 . S
H5241 C5264 0.950 . S
H5242 C5265 0.950 . S
H5243 C5267 0.950 . S
H5244 C5268 0.950 . S
H5245 C5269 0.951 . S
H5246 C5271 0.951 . S
H5247 C5273 0.950 . S
H5248 C5274 0.950 . S
H5249 C5276 0.950 . S
H5250 C5279 0.950 . S
H5251 C5280 0.950 . S
H5252 C5282 0.950 . S
H5253 C5283 0.950 . S
C5254 H5236 0.951 . S
C5254 C5255 1.366 . S
C5254 C5256 1.388 . S
C5255 C5254 1.366 . S
C5255 C5259 1.385 . S
C5256 H5237 0.951 . S
C5256 C5254 1.388 . S
C5256 C5257 1.366 . S
C5257 C5256 1.366 . S
C5257 C5258 1.414 . S
C5257 C5260 1.499 . S
C5258 H5238 0.950 . S
C5258 C5257 1.414 . S
C5258 C5259 1.374 . S
C5259 H5239 0.950 . S
C5259 C5255 1.385 . S
C5259 C5258 1.374 . S
C5260 C5257 1.499 . S
C5260 C5261 1.373 . S
C5260 C5262 1.389 . S
C5261 H5240 0.950 . S
C5261 C5260 1.373 . S
C5261 C5277 1.377 . S
C5262 C5260 1.389 . S
C5262 C5263 1.524 . S
C5262 C5276 1.377 . S
C5263 C5262 1.524 . S
C5263 C5264 1.397 . S
C5263 C5268 1.363 . S
C5264 H5241 0.950 . S
C5264 C5263 1.397 . S
C5264 C5265 1.334 . S
C5265 H5242 0.950 . S
C5265 C5264 1.334 . S
C5265 C5266 1.287 . S
C5266 C5265 1.287 . S
C5266 C5267 1.524 . S
C5266 H5285 0.913 . S
C5267 H5243 0.950 . S
C5267 C5266 1.524 . S
C5267 C5268 1.415 . S
C5268 H5244 0.950 . S
C5268 C5263 1.363 . S
C5268 C5267 1.415 . S
C5269 H5245 0.951 . S
C5269 C5270 1.366 . S
C5269 C5271 1.388 . S
C5270 C5269 1.366 . S
C5270 C5274 1.385 . S
C5271 H5246 0.951 . S
C5271 C5269 1.388 . S
C5271 C5272 1.366 . S
C5272 C5271 1.366 . S
C5272 C5273 1.414 . S
C5272 C5275 1.499 . S
C5273 H5247 0.950 . S
C5273 C5272 1.414 . S
C5273 C5274 1.374 . S
C5274 H5248 0.950 . S
C5274 C5270 1.385 . S
C5274 C5273 1.374 . S
C5275 C5272 1.499 . S
C5275 C5276 1.373 . S
C5275 C5277 1.389 . S
C5276 H5249 0.950 . S
C5276 C5262 1.377 . S
C5276 C5275 1.373 . S
C5277 C5261 1.377 . S
C5277 C5275 1.389 . S
C5277 C5278 1.524 . S
C5278 C5277 1.524 . S
C5278 C5279 1.397 . S
C5278 C5283 1.363 . S
C5279 H5250 0.950 . S
C5279 C5278 1.397 . S
C5279 C5280 1.334 . S
C5280 H5251 0.950 . S
C5280 C5279 1.334 . S
C5280 C5281 1.287 . S
C5281 C5280 1.287 . S
C5281 C5282 1.524 . S
C5281 H5284 0.999 . S
C5282 H5252 0.950 . S
C5282 C5281 1.524 . S
C5282 C5283 1.415 . S
C5283 H5253 0.950 . S
C5283 C5278 1.363 . S
C5283 C5282 1.415 . S
H5284 C5281 0.999 . S
H5285 C5266 0.913 . S
H5286 C5304 0.951 . S
H5287 C5306 1.017 . S
H5288 C5308 0.950 . S
H5289 C5309 0.950 . S
H5290 C5311 0.950 . S
H5291 C5314 0.950 . S
H5292 C5315 0.950 . S
H5293 C5317 0.966 . S
H5294 C5318 0.950 1_565 S
H5295 C5319 0.951 . S
H5296 C5321 0.951 . S
H5297 C5323 0.958 . S
H5298 C5324 0.950 . S
H5299 C5326 0.950 . S
H5300 C5329 0.960 . S
H5301 C5330 0.950 . S
H5302 C5332 0.950 . S
H5303 C5333 0.950 . S
C5304 H5286 0.951 . S
C5304 C5305 1.366 . S
C5304 C5306 1.388 . S
C5305 C5304 1.366 . S
C5305 C5309 1.385 . S
C5306 H5287 1.017 . S
C5306 C5304 1.388 . S
C5306 C5307 1.366 . S
C5307 C5306 1.366 . S
C5307 C5308 1.414 . S
C5307 C5310 1.499 . S
C5308 H5288 0.950 . S
C5308 C5307 1.414 . S
C5308 C5309 1.374 . S
C5309 H5289 0.950 . S
C5309 C5305 1.385 . S
C5309 C5308 1.374 . S
C5310 C5307 1.499 . S
C5310 C5311 1.373 . S
C5310 C5312 1.389 . S
C5311 H5290 0.950 . S
C5311 C5310 1.373 . S
C5311 C5327 1.377 . S
C5312 C5310 1.389 . S
C5312 C5313 1.524 . S
C5312 C5326 1.377 . S
C5313 C5312 1.524 . S
C5313 C5314 1.397 . S
C5313 C5318 1.363 . S
C5314 H5291 0.950 . S
C5314 C5313 1.397 . S
C5314 C5315 1.334 . S
C5315 H5292 0.950 . S
C5315 C5314 1.334 . S
C5315 C5316 1.287 . S
C5316 C5315 1.287 . S
C5316 C5317 1.524 . S
C5316 H5335 0.913 . S
C5317 H5293 0.966 . S
C5317 C5316 1.524 . S
C5317 C5318 1.415 . S
C5318 H5294 0.950 1_545 S
C5318 C5313 1.363 . S
C5318 C5317 1.415 . S
C5319 H5295 0.951 . S
C5319 C5320 1.366 . S
C5319 C5321 1.388 . S
C5320 C5319 1.366 . S
C5320 C5324 1.385 1_545 S
C5321 H5296 0.951 . S
C5321 C5319 1.388 . S
C5321 C5322 1.366 . S
C5322 C5321 1.366 . S
C5322 C5323 1.384 1_545 S
C5322 C5325 1.499 . S
C5323 H5297 0.958 . S
C5323 C5322 1.384 1_565 S
C5323 C5324 1.399 . S
C5324 H5298 0.950 . S
C5324 C5320 1.385 1_565 S
C5324 C5323 1.399 . S
C5325 C5322 1.499 . S
C5325 C5326 1.373 . S
C5325 C5327 1.389 . S
C5326 H5299 0.950 . S
C5326 C5312 1.377 . S
C5326 C5325 1.373 . S
C5327 C5311 1.377 . S
C5327 C5325 1.389 . S
C5327 C5328 1.524 . S
C5328 C5327 1.524 . S
C5328 C5329 1.371 1_545 S
C5328 C5333 1.363 . S
C5329 H5300 0.960 . S
C5329 C5328 1.371 1_565 S
C5329 C5330 1.349 . S
C5330 H5301 0.950 . S
C5330 C5329 1.349 . S
C5330 C5331 1.287 1_565 S
C5331 C5330 1.287 1_545 S
C5331 C5332 1.524 . S
C5331 H5334 0.999 . S
C5332 H5302 0.950 . S
C5332 C5331 1.524 . S
C5332 C5333 1.415 . S
C5333 H5303 0.950 . S
C5333 C5328 1.363 . S
C5333 C5332 1.415 . S
H5334 C5331 0.999 . S
H5335 C5316 0.913 . S
H5336 C5354 0.951 . S
H5337 C5356 0.951 . S
H5338 C5358 0.950 1_455 S
H5339 C5359 0.944 1_455 S
H5340 C5361 0.950 . S
H5341 C5364 0.950 . S
H5342 C5365 0.950 . S
H5343 C5367 0.950 . S
H5344 C5368 0.950 1_655 S
H5345 C5369 0.951 . S
H5346 C5371 0.899 1_455 S
H5347 C5373 0.950 . S
H5348 C5374 0.950 . S
H5349 C5376 0.950 1_455 S
H5350 C5379 0.950 . S
H5351 C5380 0.950 . S
H5352 C5382 0.950 . S
H5353 C5383 0.950 . S
C5354 H5336 0.951 . S
C5354 C5355 1.366 . S
C5354 C5356 1.388 . S
C5355 C5354 1.366 . S
C5355 C5359 1.385 . S
C5356 H5337 0.951 . S
C5356 C5354 1.388 . S
C5356 C5357 1.366 . S
C5357 C5356 1.366 . S
C5357 C5358 1.414 . S
C5357 C5360 1.499 . S
C5358 H5338 0.950 1_655 S
C5358 C5357 1.414 . S
C5358 C5359 1.374 . S
C5359 H5339 0.944 1_655 S
C5359 C5355 1.385 . S
C5359 C5358 1.374 . S
C5360 C5357 1.499 . S
C5360 C5361 1.373 . S
C5360 C5362 1.389 . S
C5361 H5340 0.950 . S
C5361 C5360 1.373 . S
C5361 C5377 1.377 . S
C5362 C5360 1.389 . S
C5362 C5363 1.524 1_655 S
C5362 C5376 1.377 . S
C5363 C5362 1.524 1_455 S
C5363 C5364 1.397 . S
C5363 C5368 1.363 . S
C5364 H5341 0.950 . S
C5364 C5363 1.397 . S
C5364 C5365 1.334 . S
C5365 H5342 0.950 . S
C5365 C5364 1.334 . S
C5365 C5366 1.287 . S
C5366 C5365 1.287 . S
C5366 C5367 1.524 . S
C5366 H5385 0.913 . S
C5367 H5343 0.950 . S
C5367 C5366 1.524 . S
C5367 C5368 1.415 . S
C5368 H5344 0.950 1_455 S
C5368 C5363 1.363 . S
C5368 C5367 1.415 . S
C5369 H5345 0.951 . S
C5369 C5370 1.366 1_455 S
C5369 C5371 1.417 1_455 S
C5370 C5369 1.366 1_655 S
C5370 C5374 1.385 . S
C5371 H5346 0.899 1_655 S
C5371 C5369 1.417 1_655 S
C5371 C5372 1.392 . S
C5372 C5371 1.392 . S
C5372 C5373 1.414 . S
C5372 C5375 1.499 . S
C5373 H5347 0.950 . S
C5373 C5372 1.414 . S
C5373 C5374 1.374 . S
C5374 H5348 0.950 . S
C5374 C5370 1.385 . S
C5374 C5373 1.374 . S
C5375 C5372 1.499 . S
C5375 C5376 1.373 . S
C5375 C5377 1.389 . S
C5376 H5349 0.950 1_655 S
C5376 C5362 1.377 . S
C5376 C5375 1.373 . S
C5377 C5361 1.377 . S
C5377 C5375 1.389 . S
C5377 C5378 1.524 . S
C5378 C5377 1.524 . S
C5378 C5379 1.397 . S
C5378 C5383 1.363 . S
C5379 H5350 0.950 . S
C5379 C5378 1.397 . S
C5379 C5380 1.334 . S
C5380 H5351 0.950 . S
C5380 C5379 1.334 . S
C5380 C5381 1.287 . S
C5381 C5380 1.287 . S
C5381 C5382 1.524 . S
C5381 H5384 0.999 . S
C5382 H5352 0.950 . S
C5382 C5381 1.524 . S
C5382 C5383 1.415 . S
C5383 H5353 0.950 . S
C5383 C5378 1.363 . S
C5383 C5382 1.415 . S
H5384 C5381 0.999 . S
H5385 C5366 0.913 . S
H5386 C5404 0.951 . S
H5387 C5406 0.951 . S
H5388 C5408 0.950 . S
H5389 C5409 0.950 . S
H5390 C5411 0.950 . S
H5391 C5414 0.950 . S
H5392 C5415 0.950 . S
H5393 C5417 0.950 . S
H5394 C5418 0.950 . S
H5395 C5419 0.951 . S
H5396 C5421 0.951 . S
H5397 C5423 0.950 . S
H5398 C5424 0.950 . S
H5399 C5426 0.950 . S
H5400 C5429 0.950 . S
H5401 C5430 0.950 . S
H5402 C5432 0.950 . S
H5403 C5433 0.950 . S
C5404 H5386 0.951 . S
C5404 C5405 1.366 . S
C5404 C5406 1.388 . S
C5405 C5404 1.366 . S
C5405 C5409 1.385 . S
C5406 H5387 0.951 . S
C5406 C5404 1.388 . S
C5406 C5407 1.366 . S
C5407 C5406 1.366 . S
C5407 C5408 1.414 . S
C5407 C5410 1.499 . S
C5408 H5388 0.950 . S
C5408 C5407 1.414 . S
C5408 C5409 1.374 . S
C5409 H5389 0.950 . S
C5409 C5405 1.385 . S
C5409 C5408 1.374 . S
C5410 C5407 1.499 . S
C5410 C5411 1.373 . S
C5410 C5412 1.389 . S
C5411 H5390 0.950 . S
C5411 C5410 1.373 . S
C5411 C5427 1.377 . S
C5412 C5410 1.389 . S
C5412 C5413 1.524 . S
C5412 C5426 1.377 . S
C5413 C5412 1.524 . S
C5413 C5414 1.397 . S
C5413 C5418 1.363 . S
C5414 H5391 0.950 . S
C5414 C5413 1.397 . S
C5414 C5415 1.334 . S
C5415 H5392 0.950 . S
C5415 C5414 1.334 . S
C5415 C5416 1.287 . S
C5416 C5415 1.287 . S
C5416 C5417 1.524 . S
C5416 H5435 0.913 . S
C5417 H5393 0.950 . S
C5417 C5416 1.524 . S
C5417 C5418 1.415 . S
C5418 H5394 0.950 . S
C5418 C5413 1.363 . S
C5418 C5417 1.415 . S
C5419 H5395 0.951 . S
C5419 C5420 1.366 . S
C5419 C5421 1.388 . S
C5420 C5419 1.366 . S
C5420 C5424 1.385 . S
C5421 H5396 0.951 . S
C5421 C5419 1.388 . S
C5421 C5422 1.366 . S
C5422 C5421 1.366 . S
C5422 C5423 1.414 . S
C5422 C5425 1.499 . S
C5423 H5397 0.950 . S
C5423 C5422 1.414 . S
C5423 C5424 1.374 . S
C5424 H5398 0.950 . S
C5424 C5420 1.385 . S
C5424 C5423 1.374 . S
C5425 C5422 1.499 . S
C5425 C5426 1.373 . S
C5425 C5427 1.389 . S
C5426 H5399 0.950 . S
C5426 C5412 1.377 . S
C5426 C5425 1.373 . S
C5427 C5411 1.377 . S
C5427 C5425 1.389 . S
C5427 C5428 1.524 . S
C5428 C5427 1.524 . S
C5428 C5429 1.397 . S
C5428 C5433 1.363 . S
C5429 H5400 0.950 . S
C5429 C5428 1.397 . S
C5429 C5430 1.334 . S
C5430 H5401 0.950 . S
C5430 C5429 1.334 . S
C5430 C5431 1.287 . S
C5431 C5430 1.287 . S
C5431 C5432 1.524 . S
C5431 H5434 0.999 . S
C5432 H5402 0.950 . S
C5432 C5431 1.524 . S
C5432 C5433 1.415 . S
C5433 H5403 0.950 . S
C5433 C5428 1.363 . S
C5433 C5432 1.415 . S
H5434 C5431 0.999 . S
H5435 C5416 0.913 . S
H5436 C5454 0.951 . S
H5437 C5456 0.951 . S
H5438 C5458 0.950 . S
H5439 C5459 0.950 . S
H5440 C5461 0.950 . S
H5441 C5464 0.950 . S
H5442 C5465 0.950 . S
H5443 C5467 0.950 . S
H5444 C5468 0.950 . S
H5445 C5469 0.951 . S
H5446 C5471 0.951 . S
H5447 C5473 0.950 . S
H5448 C5474 0.950 . S
H5449 C5476 0.950 . S
H5450 C5479 0.950 . S
H5451 C5480 0.950 . S
H5452 C5482 0.950 . S
H5453 C5483 0.950 . S
C5454 H5436 0.951 . S
C5454 C5455 1.366 . S
C5454 C5456 1.388 . S
C5455 C5454 1.366 . S
C5455 C5459 1.385 . S
C5456 H5437 0.951 . S
C5456 C5454 1.388 . S
C5456 C5457 1.366 . S
C5457 C5456 1.366 . S
C5457 C5458 1.414 . S
C5457 C5460 1.499 . S
C5458 H5438 0.950 . S
C5458 C5457 1.414 . S
C5458 C5459 1.374 . S
C5459 H5439 0.950 . S
C5459 C5455 1.385 . S
C5459 C5458 1.374 . S
C5460 C5457 1.499 . S
C5460 C5461 1.373 . S
C5460 C5462 1.389 . S
C5461 H5440 0.950 . S
C5461 C5460 1.373 . S
C5461 C5477 1.377 . S
C5462 C5460 1.389 . S
C5462 C5463 1.524 . S
C5462 C5476 1.377 . S
C5463 C5462 1.524 . S
C5463 C5464 1.397 . S
C5463 C5468 1.363 . S
C5464 H5441 0.950 . S
C5464 C5463 1.397 . S
C5464 C5465 1.334 . S
C5465 H5442 0.950 . S
C5465 C5464 1.334 . S
C5465 C5466 1.287 . S
C5466 C5465 1.287 . S
C5466 C5467 1.524 . S
C5466 H5485 0.913 . S
C5467 H5443 0.950 . S
C5467 C5466 1.524 . S
C5467 C5468 1.415 . S
C5468 H5444 0.950 . S
C5468 C5463 1.363 . S
C5468 C5467 1.415 . S
C5469 H5445 0.951 . S
C5469 C5470 1.366 . S
C5469 C5471 1.388 . S
C5470 C5469 1.366 . S
C5470 C5474 1.385 . S
C5471 H5446 0.951 . S
C5471 C5469 1.388 . S
C5471 C5472 1.366 . S
C5472 C5471 1.366 . S
C5472 C5473 1.414 . S
C5472 C5475 1.499 . S
C5473 H5447 0.950 . S
C5473 C5472 1.414 . S
C5473 C5474 1.374 . S
C5474 H5448 0.950 . S
C5474 C5470 1.385 . S
C5474 C5473 1.374 . S
C5475 C5472 1.499 . S
C5475 C5476 1.373 . S
C5475 C5477 1.389 . S
C5476 H5449 0.950 . S
C5476 C5462 1.377 . S
C5476 C5475 1.373 . S
C5477 C5461 1.377 . S
C5477 C5475 1.389 . S
C5477 C5478 1.524 . S
C5478 C5477 1.524 . S
C5478 C5479 1.397 . S
C5478 C5483 1.363 . S
C5479 H5450 0.950 . S
C5479 C5478 1.397 . S
C5479 C5480 1.334 . S
C5480 H5451 0.950 . S
C5480 C5479 1.334 . S
C5480 C5481 1.287 . S
C5481 C5480 1.287 . S
C5481 C5482 1.524 . S
C5481 H5484 0.999 . S
C5482 H5452 0.950 . S
C5482 C5481 1.524 . S
C5482 C5483 1.415 . S
C5483 H5453 0.950 . S
C5483 C5478 1.363 . S
C5483 C5482 1.415 . S
H5484 C5481 0.999 . S
H5485 C5466 0.913 . S
H5486 C5504 0.951 . S
H5487 C5506 0.951 . S
H5488 C5508 0.950 . S
H5489 C5509 0.950 . S
H5490 C5511 0.950 . S
H5491 C5514 0.950 . S
H5492 C5515 0.950 . S
H5493 C5517 0.950 . S
H5494 C5518 0.950 . S
H5495 C5519 0.951 . S
H5496 C5521 0.951 . S
H5497 C5523 0.950 . S
H5498 C5524 0.950 . S
H5499 C5526 0.950 . S
H5500 C5529 0.950 . S
H5501 C5530 0.950 . S
H5502 C5532 0.950 . S
H5503 C5533 0.950 . S
C5504 H5486 0.951 . S
C5504 C5505 1.366 . S
C5504 C5506 1.388 . S
C5505 C5504 1.366 . S
C5505 C5509 1.385 . S
C5506 H5487 0.951 . S
C5506 C5504 1.388 . S
C5506 C5507 1.366 . S
C5507 C5506 1.366 . S
C5507 C5508 1.414 . S
C5507 C5510 1.499 . S
C5508 H5488 0.950 . S
C5508 C5507 1.414 . S
C5508 C5509 1.374 . S
C5509 H5489 0.950 . S
C5509 C5505 1.385 . S
C5509 C5508 1.374 . S
C5510 C5507 1.499 . S
C5510 C5511 1.373 . S
C5510 C5512 1.389 . S
C5511 H5490 0.950 . S
C5511 C5510 1.373 . S
C5511 C5527 1.377 . S
C5512 C5510 1.389 . S
C5512 C5513 1.524 . S
C5512 C5526 1.377 . S
C5513 C5512 1.524 . S
C5513 C5514 1.397 . S
C5513 C5518 1.363 . S
C5514 H5491 0.950 . S
C5514 C5513 1.397 . S
C5514 C5515 1.334 . S
C5515 H5492 0.950 . S
C5515 C5514 1.334 . S
C5515 C5516 1.287 . S
C5516 C5515 1.287 . S
C5516 C5517 1.524 . S
C5516 H5535 0.913 . S
C5517 H5493 0.950 . S
C5517 C5516 1.524 . S
C5517 C5518 1.415 . S
C5518 H5494 0.950 . S
C5518 C5513 1.363 . S
C5518 C5517 1.415 . S
C5519 H5495 0.951 . S
C5519 C5520 1.366 . S
C5519 C5521 1.388 . S
C5520 C5519 1.366 . S
C5520 C5524 1.385 . S
C5521 H5496 0.951 . S
C5521 C5519 1.388 . S
C5521 C5522 1.366 . S
C5522 C5521 1.366 . S
C5522 C5523 1.414 . S
C5522 C5525 1.499 . S
C5523 H5497 0.950 . S
C5523 C5522 1.414 . S
C5523 C5524 1.374 . S
C5524 H5498 0.950 . S
C5524 C5520 1.385 . S
C5524 C5523 1.374 . S
C5525 C5522 1.499 . S
C5525 C5526 1.373 . S
C5525 C5527 1.389 . S
C5526 H5499 0.950 . S
C5526 C5512 1.377 . S
C5526 C5525 1.373 . S
C5527 C5511 1.377 . S
C5527 C5525 1.389 . S
C5527 C5528 1.524 . S
C5528 C5527 1.524 . S
C5528 C5529 1.397 . S
C5528 C5533 1.363 . S
C5529 H5500 0.950 . S
C5529 C5528 1.397 . S
C5529 C5530 1.334 . S
C5530 H5501 0.950 . S
C5530 C5529 1.334 . S
C5530 C5531 1.287 . S
C5531 C5530 1.287 . S
C5531 C5532 1.524 . S
C5531 H5534 0.999 . S
C5532 H5502 0.950 . S
C5532 C5531 1.524 . S
C5532 C5533 1.415 . S
C5533 H5503 0.950 . S
C5533 C5528 1.363 . S
C5533 C5532 1.415 . S
H5534 C5531 0.999 . S
H5535 C5516 0.913 . S
H5536 C5554 0.951 . S
H5537 C5556 0.951 . S
H5538 C5558 0.950 . S
H5539 C5559 0.950 . S
H5540 C5561 0.950 . S
H5541 C5564 0.950 . S
H5542 C5565 0.950 . S
H5543 C5567 0.950 . S
H5544 C5568 0.950 . S
H5545 C5569 0.951 . S
H5546 C5571 0.951 . S
H5547 C5573 0.950 . S
H5548 C5574 0.950 . S
H5549 C5576 0.950 . S
H5550 C5579 0.950 . S
H5551 C5580 0.950 . S
H5552 C5582 0.950 . S
H5553 C5583 0.950 . S
C5554 H5536 0.951 . S
C5554 C5555 1.366 . S
C5554 C5556 1.388 . S
C5555 C5554 1.366 . S
C5555 C5559 1.385 . S
C5556 H5537 0.951 . S
C5556 C5554 1.388 . S
C5556 C5557 1.366 . S
C5557 C5556 1.366 . S
C5557 C5558 1.414 . S
C5557 C5560 1.499 . S
C5558 H5538 0.950 . S
C5558 C5557 1.414 . S
C5558 C5559 1.374 . S
C5559 H5539 0.950 . S
C5559 C5555 1.385 . S
C5559 C5558 1.374 . S
C5560 C5557 1.499 . S
C5560 C5561 1.373 . S
C5560 C5562 1.389 . S
C5561 H5540 0.950 . S
C5561 C5560 1.373 . S
C5561 C5577 1.377 . S
C5562 C5560 1.389 . S
C5562 C5563 1.524 . S
C5562 C5576 1.377 . S
C5563 C5562 1.524 . S
C5563 C5564 1.397 . S
C5563 C5568 1.363 . S
C5564 H5541 0.950 . S
C5564 C5563 1.397 . S
C5564 C5565 1.334 . S
C5565 H5542 0.950 . S
C5565 C5564 1.334 . S
C5565 C5566 1.287 . S
C5566 C5565 1.287 . S
C5566 C5567 1.524 . S
C5566 H5585 0.913 . S
C5567 H5543 0.950 . S
C5567 C5566 1.524 . S
C5567 C5568 1.415 . S
C5568 H5544 0.950 . S
C5568 C5563 1.363 . S
C5568 C5567 1.415 . S
C5569 H5545 0.951 . S
C5569 C5570 1.366 . S
C5569 C5571 1.388 . S
C5570 C5569 1.366 . S
C5570 C5574 1.385 . S
C5571 H5546 0.951 . S
C5571 C5569 1.388 . S
C5571 C5572 1.366 . S
C5572 C5571 1.366 . S
C5572 C5573 1.414 . S
C5572 C5575 1.499 . S
C5573 H5547 0.950 . S
C5573 C5572 1.414 . S
C5573 C5574 1.374 . S
C5574 H5548 0.950 . S
C5574 C5570 1.385 . S
C5574 C5573 1.374 . S
C5575 C5572 1.499 . S
C5575 C5576 1.373 . S
C5575 C5577 1.389 . S
C5576 H5549 0.950 . S
C5576 C5562 1.377 . S
C5576 C5575 1.373 . S
C5577 C5561 1.377 . S
C5577 C5575 1.389 . S
C5577 C5578 1.524 . S
C5578 C5577 1.524 . S
C5578 C5579 1.397 . S
C5578 C5583 1.363 . S
C5579 H5550 0.950 . S
C5579 C5578 1.397 . S
C5579 C5580 1.334 . S
C5580 H5551 0.950 . S
C5580 C5579 1.334 . S
C5580 C5581 1.287 . S
C5581 C5580 1.287 . S
C5581 C5582 1.524 . S
C5581 H5584 0.999 . S
C5582 H5552 0.950 . S
C5582 C5581 1.524 . S
C5582 C5583 1.415 . S
C5583 H5553 0.950 . S
C5583 C5578 1.363 . S
C5583 C5582 1.415 . S
H5584 C5581 0.999 . S
H5585 C5566 0.913 . S
H5586 C5604 0.951 . S
H5587 C5606 0.951 . S
H5588 C5608 0.950 . S
H5589 C5609 0.950 . S
H5590 C5611 0.950 . S
H5591 C5614 0.950 . S
H5592 C5615 0.950 . S
H5593 C5617 0.950 . S
H5594 C5618 0.950 . S
H5595 C5619 0.951 . S
H5596 C5621 0.951 . S
H5597 C5623 0.950 . S
H5598 C5624 0.950 . S
H5599 C5626 0.950 . S
H5600 C5629 0.950 . S
H5601 C5630 0.950 . S
H5602 C5632 0.950 . S
H5603 C5633 0.950 . S
C5604 H5586 0.951 . S
C5604 C5605 1.366 . S
C5604 C5606 1.388 . S
C5605 C5604 1.366 . S
C5605 C5609 1.385 . S
C5606 H5587 0.951 . S
C5606 C5604 1.388 . S
C5606 C5607 1.366 . S
C5607 C5606 1.366 . S
C5607 C5608 1.414 . S
C5607 C5610 1.499 . S
C5608 H5588 0.950 . S
C5608 C5607 1.414 . S
C5608 C5609 1.374 . S
C5609 H5589 0.950 . S
C5609 C5605 1.385 . S
C5609 C5608 1.374 . S
C5610 C5607 1.499 . S
C5610 C5611 1.373 . S
C5610 C5612 1.389 . S
C5611 H5590 0.950 . S
C5611 C5610 1.373 . S
C5611 C5627 1.377 . S
C5612 C5610 1.389 . S
C5612 C5613 1.524 . S
C5612 C5626 1.377 . S
C5613 C5612 1.524 . S
C5613 C5614 1.397 . S
C5613 C5618 1.363 . S
C5614 H5591 0.950 . S
C5614 C5613 1.397 . S
C5614 C5615 1.334 . S
C5615 H5592 0.950 . S
C5615 C5614 1.334 . S
C5615 C5616 1.287 . S
C5616 C5615 1.287 . S
C5616 C5617 1.524 . S
C5616 H5635 0.913 . S
C5617 H5593 0.950 . S
C5617 C5616 1.524 . S
C5617 C5618 1.415 . S
C5618 H5594 0.950 . S
C5618 C5613 1.363 . S
C5618 C5617 1.415 . S
C5619 H5595 0.951 . S
C5619 C5620 1.366 . S
C5619 C5621 1.388 . S
C5620 C5619 1.366 . S
C5620 C5624 1.385 . S
C5621 H5596 0.951 . S
C5621 C5619 1.388 . S
C5621 C5622 1.366 . S
C5622 C5621 1.366 . S
C5622 C5623 1.414 . S
C5622 C5625 1.499 . S
C5623 H5597 0.950 . S
C5623 C5622 1.414 . S
C5623 C5624 1.374 . S
C5624 H5598 0.950 . S
C5624 C5620 1.385 . S
C5624 C5623 1.374 . S
C5625 C5622 1.499 . S
C5625 C5626 1.373 . S
C5625 C5627 1.389 . S
C5626 H5599 0.950 . S
C5626 C5612 1.377 . S
C5626 C5625 1.373 . S
C5627 C5611 1.377 . S
C5627 C5625 1.389 . S
C5627 C5628 1.524 . S
C5628 C5627 1.524 . S
C5628 C5629 1.397 . S
C5628 C5633 1.363 . S
C5629 H5600 0.950 . S
C5629 C5628 1.397 . S
C5629 C5630 1.334 . S
C5630 H5601 0.950 . S
C5630 C5629 1.334 . S
C5630 C5631 1.287 . S
C5631 C5630 1.287 . S
C5631 C5632 1.524 . S
C5631 H5634 0.999 . S
C5632 H5602 0.950 . S
C5632 C5631 1.524 . S
C5632 C5633 1.415 . S
C5633 H5603 0.950 . S
C5633 C5628 1.363 . S
C5633 C5632 1.415 . S
H5634 C5631 0.999 . S
H5635 C5616 0.913 . S
H5636 C5654 0.951 . S
H5637 C5656 0.951 . S
H5638 C5658 0.950 . S
H5639 C5659 0.950 . S
H5640 C5661 0.950 . S
H5641 C5664 0.950 . S
H5642 C5665 0.950 . S
H5643 C5667 0.950 . S
H5644 C5668 0.950 . S
H5645 C5669 0.951 . S
H5646 C5671 0.951 . S
H5647 C5673 0.950 . S
H5648 C5674 0.950 . S
H5649 C5676 0.950 . S
H5650 C5679 0.950 . S
H5651 C5680 0.950 . S
H5652 C5682 0.950 . S
H5653 C5683 0.950 . S
C5654 H5636 0.951 . S
C5654 C5655 1.366 . S
C5654 C5656 1.388 . S
C5655 C5654 1.366 . S
C5655 C5659 1.385 . S
C5656 H5637 0.951 . S
C5656 C5654 1.388 . S
C5656 C5657 1.366 . S
C5657 C5656 1.366 . S
C5657 C5658 1.414 . S
C5657 C5660 1.499 . S
C5658 H5638 0.950 . S
C5658 C5657 1.414 . S
C5658 C5659 1.374 . S
C5659 H5639 0.950 . S
C5659 C5655 1.385 . S
C5659 C5658 1.374 . S
C5660 C5657 1.499 . S
C5660 C5661 1.373 . S
C5660 C5662 1.389 . S
C5661 H5640 0.950 . S
C5661 C5660 1.373 . S
C5661 C5677 1.377 . S
C5662 C5660 1.389 . S
C5662 C5663 1.524 . S
C5662 C5676 1.377 . S
C5663 C5662 1.524 . S
C5663 C5664 1.397 . S
C5663 C5668 1.363 . S
C5664 H5641 0.950 . S
C5664 C5663 1.397 . S
C5664 C5665 1.334 . S
C5665 H5642 0.950 . S
C5665 C5664 1.334 . S
C5665 C5666 1.287 . S
C5666 C5665 1.287 . S
C5666 C5667 1.524 . S
C5666 H5685 0.913 . S
C5667 H5643 0.950 . S
C5667 C5666 1.524 . S
C5667 C5668 1.415 . S
C5668 H5644 0.950 . S
C5668 C5663 1.363 . S
C5668 C5667 1.415 . S
C5669 H5645 0.951 . S
C5669 C5670 1.366 . S
C5669 C5671 1.388 . S
C5670 C5669 1.366 . S
C5670 C5674 1.385 . S
C5671 H5646 0.951 . S
C5671 C5669 1.388 . S
C5671 C5672 1.366 . S
C5672 C5671 1.366 . S
C5672 C5673 1.414 . S
C5672 C5675 1.499 . S
C5673 H5647 0.950 . S
C5673 C5672 1.414 . S
C5673 C5674 1.374 . S
C5674 H5648 0.950 . S
C5674 C5670 1.385 . S
C5674 C5673 1.374 . S
C5675 C5672 1.499 . S
C5675 C5676 1.373 . S
C5675 C5677 1.389 . S
C5676 H5649 0.950 . S
C5676 C5662 1.377 . S
C5676 C5675 1.373 . S
C5677 C5661 1.377 . S
C5677 C5675 1.389 . S
C5677 C5678 1.524 . S
C5678 C5677 1.524 . S
C5678 C5679 1.397 . S
C5678 C5683 1.363 . S
C5679 H5650 0.950 . S
C5679 C5678 1.397 . S
C5679 C5680 1.334 . S
C5680 H5651 0.950 . S
C5680 C5679 1.334 . S
C5680 C5681 1.287 . S
C5681 C5680 1.287 . S
C5681 C5682 1.524 . S
C5681 H5684 0.999 . S
C5682 H5652 0.950 . S
C5682 C5681 1.524 . S
C5682 C5683 1.415 . S
C5683 H5653 0.950 . S
C5683 C5678 1.363 . S
C5683 C5682 1.415 . S
H5684 C5681 0.999 . S
H5685 C5666 0.913 . S
H5686 C5704 0.951 . S
H5687 C5706 0.951 . S
H5688 C5708 0.950 . S
H5689 C5709 0.950 . S
H5690 C5711 0.950 . S
H5691 C5714 0.950 . S
H5692 C5715 0.950 . S
H5693 C5717 0.950 . S
H5694 C5718 0.950 . S
H5695 C5719 0.951 . S
H5696 C5721 0.951 . S
H5697 C5723 0.950 . S
H5698 C5724 0.950 . S
H5699 C5726 0.950 . S
H5700 C5729 0.950 . S
H5701 C5730 0.950 . S
H5702 C5732 0.950 . S
H5703 C5733 0.950 . S
C5704 H5686 0.951 . S
C5704 C5705 1.366 . S
C5704 C5706 1.388 . S
C5705 C5704 1.366 . S
C5705 C5709 1.385 . S
C5706 H5687 0.951 . S
C5706 C5704 1.388 . S
C5706 C5707 1.366 . S
C5707 C5706 1.366 . S
C5707 C5708 1.414 . S
C5707 C5710 1.499 . S
C5708 H5688 0.950 . S
C5708 C5707 1.414 . S
C5708 C5709 1.374 . S
C5709 H5689 0.950 . S
C5709 C5705 1.385 . S
C5709 C5708 1.374 . S
C5710 C5707 1.499 . S
C5710 C5711 1.373 . S
C5710 C5712 1.389 . S
C5711 H5690 0.950 . S
C5711 C5710 1.373 . S
C5711 C5727 1.377 . S
C5712 C5710 1.389 . S
C5712 C5713 1.524 . S
C5712 C5726 1.377 . S
C5713 C5712 1.524 . S
C5713 C5714 1.397 . S
C5713 C5718 1.363 . S
C5714 H5691 0.950 . S
C5714 C5713 1.397 . S
C5714 C5715 1.334 . S
C5715 H5692 0.950 . S
C5715 C5714 1.334 . S
C5715 C5716 1.287 . S
C5716 C5715 1.287 . S
C5716 C5717 1.524 . S
C5716 H5735 0.913 . S
C5717 H5693 0.950 . S
C5717 C5716 1.524 . S
C5717 C5718 1.415 . S
C5718 H5694 0.950 . S
C5718 C5713 1.363 . S
C5718 C5717 1.415 . S
C5719 H5695 0.951 . S
C5719 C5720 1.366 . S
C5719 C5721 1.388 . S
C5720 C5719 1.366 . S
C5720 C5724 1.385 . S
C5721 H5696 0.951 . S
C5721 C5719 1.388 . S
C5721 C5722 1.366 . S
C5722 C5721 1.366 . S
C5722 C5723 1.414 . S
C5722 C5725 1.499 . S
C5723 H5697 0.950 . S
C5723 C5722 1.414 . S
C5723 C5724 1.374 . S
C5724 H5698 0.950 . S
C5724 C5720 1.385 . S
C5724 C5723 1.374 . S
C5725 C5722 1.499 . S
C5725 C5726 1.373 . S
C5725 C5727 1.389 . S
C5726 H5699 0.950 . S
C5726 C5712 1.377 . S
C5726 C5725 1.373 . S
C5727 C5711 1.377 . S
C5727 C5725 1.389 . S
C5727 C5728 1.524 . S
C5728 C5727 1.524 . S
C5728 C5729 1.397 . S
C5728 C5733 1.363 . S
C5729 H5700 0.950 . S
C5729 C5728 1.397 . S
C5729 C5730 1.334 . S
C5730 H5701 0.950 . S
C5730 C5729 1.334 . S
C5730 C5731 1.287 . S
C5731 C5730 1.287 . S
C5731 C5732 1.524 . S
C5731 H5734 0.999 . S
C5732 H5702 0.950 . S
C5732 C5731 1.524 . S
C5732 C5733 1.415 . S
C5733 H5703 0.950 . S
C5733 C5728 1.363 . S
C5733 C5732 1.415 . S
H5734 C5731 0.999 . S
H5735 C5716 0.913 . S
H5736 C5754 0.951 . S
H5737 C5756 0.951 1_455 S
H5738 C5758 0.950 . S
H5739 C5759 0.950 . S
H5740 C5761 0.950 . S
H5741 C5764 0.950 . S
H5742 C5765 0.950 . S
H5743 C5767 0.950 . S
H5744 C5768 0.950 . S
H5745 C5769 0.951 . S
H5746 C5771 0.951 . S
H5747 C5773 0.950 . S
H5748 C5774 0.950 . S
H5749 C5776 0.950 . S
H5750 C5779 0.950 1_455 S
H5751 C5780 0.950 . S
H5752 C5782 0.950 . S
H5753 C5783 0.950 . S
C5754 H5736 0.951 . S
C5754 C5755 1.366 . S
C5754 C5756 1.388 . S
C5755 C5754 1.366 . S
C5755 C5759 1.385 . S
C5756 H5737 0.951 1_655 S
C5756 C5754 1.388 . S
C5756 C5757 1.366 . S
C5757 C5756 1.366 . S
C5757 C5758 1.414 . S
C5757 C5760 1.499 . S
C5758 H5738 0.950 . S
C5758 C5757 1.414 . S
C5758 C5759 1.374 . S
C5759 H5739 0.950 . S
C5759 C5755 1.385 . S
C5759 C5758 1.374 . S
C5760 C5757 1.499 . S
C5760 C5761 1.373 . S
C5760 C5762 1.389 . S
C5761 H5740 0.950 . S
C5761 C5760 1.373 . S
C5761 C5777 1.377 . S
C5762 C5760 1.389 . S
C5762 C5763 1.524 . S
C5762 C5776 1.377 . S
C5763 C5762 1.524 . S
C5763 C5764 1.397 . S
C5763 C5768 1.363 1_655 S
C5764 H5741 0.950 . S
C5764 C5763 1.397 . S
C5764 C5765 1.334 . S
C5765 H5742 0.950 . S
C5765 C5764 1.334 . S
C5765 C5766 1.287 . S
C5766 C5765 1.287 . S
C5766 C5767 1.524 1_655 S
C5766 H5785 0.913 . S
C5767 H5743 0.950 . S
C5767 C5766 1.524 1_455 S
C5767 C5768 1.415 . S
C5768 H5744 0.950 . S
C5768 C5763 1.363 1_455 S
C5768 C5767 1.415 . S
C5769 H5745 0.951 . S
C5769 C5770 1.366 . S
C5769 C5771 1.388 . S
C5770 C5769 1.366 . S
C5770 C5774 1.385 1_655 S
C5771 H5746 0.951 . S
C5771 C5769 1.388 . S
C5771 C5772 1.366 . S
C5772 C5771 1.366 . S
C5772 C5773 1.414 1_655 S
C5772 C5775 1.499 . S
C5773 H5747 0.950 . S
C5773 C5772 1.414 1_455 S
C5773 C5774 1.374 . S
C5774 H5748 0.950 . S
C5774 C5770 1.385 1_455 S
C5774 C5773 1.374 . S
C5775 C5772 1.499 . S
C5775 C5776 1.373 . S
C5775 C5777 1.389 . S
C5776 H5749 0.950 . S
C5776 C5762 1.377 . S
C5776 C5775 1.373 . S
C5777 C5761 1.377 . S
C5777 C5775 1.389 . S
C5777 C5778 1.524 . S
C5778 C5777 1.524 . S
C5778 C5779 1.397 . S
C5778 C5783 1.363 . S
C5779 H5750 0.950 1_655 S
C5779 C5778 1.397 . S
C5779 C5780 1.334 . S
C5780 H5751 0.950 . S
C5780 C5779 1.334 . S
C5780 C5781 1.287 . S
C5781 C5780 1.287 . S
C5781 C5782 1.524 . S
C5781 H5784 0.999 . S
C5782 H5752 0.950 . S
C5782 C5781 1.524 . S
C5782 C5783 1.415 . S
C5783 H5753 0.950 . S
C5783 C5778 1.363 . S
C5783 C5782 1.415 . S
H5784 C5781 0.999 . S
H5785 C5766 0.913 . S
H5786 C5804 0.951 . S
H5787 C5806 0.951 . S
H5788 C5808 0.950 . S
H5789 C5809 0.950 . S
H5790 C5811 0.950 . S
H5791 C5814 0.950 . S
H5792 C5815 0.950 . S
H5793 C5817 0.950 . S
H5794 C5818 0.950 . S
H5795 C5819 0.951 . S
H5796 C5821 0.951 . S
H5797 C5823 0.950 . S
H5798 C5824 0.950 . S
H5799 C5826 0.950 . S
H5800 C5829 0.950 . S
H5801 C5830 0.950 . S
H5802 C5832 0.950 . S
H5803 C5833 0.950 . S
C5804 H5786 0.951 . S
C5804 C5805 1.366 . S
C5804 C5806 1.388 . S
C5805 C5804 1.366 . S
C5805 C5809 1.385 . S
C5806 H5787 0.951 . S
C5806 C5804 1.388 . S
C5806 C5807 1.366 . S
C5807 C5806 1.366 . S
C5807 C5808 1.414 . S
C5807 C5810 1.499 . S
C5808 H5788 0.950 . S
C5808 C5807 1.414 . S
C5808 C5809 1.374 . S
C5809 H5789 0.950 . S
C5809 C5805 1.385 . S
C5809 C5808 1.374 . S
C5810 C5807 1.499 . S
C5810 C5811 1.373 . S
C5810 C5812 1.389 . S
C5811 H5790 0.950 . S
C5811 C5810 1.373 . S
C5811 C5827 1.377 . S
C5812 C5810 1.389 . S
C5812 C5813 1.524 . S
C5812 C5826 1.377 . S
C5813 C5812 1.524 . S
C5813 C5814 1.397 . S
C5813 C5818 1.363 . S
C5814 H5791 0.950 . S
C5814 C5813 1.397 . S
C5814 C5815 1.334 . S
C5815 H5792 0.950 . S
C5815 C5814 1.334 . S
C5815 C5816 1.287 . S
C5816 C5815 1.287 . S
C5816 C5817 1.524 . S
C5816 H5835 0.913 . S
C5817 H5793 0.950 . S
C5817 C5816 1.524 . S
C5817 C5818 1.415 . S
C5818 H5794 0.950 . S
C5818 C5813 1.363 . S
C5818 C5817 1.415 . S
C5819 H5795 0.951 . S
C5819 C5820 1.366 . S
C5819 C5821 1.388 . S
C5820 C5819 1.366 . S
C5820 C5824 1.385 . S
C5821 H5796 0.951 . S
C5821 C5819 1.388 . S
C5821 C5822 1.366 . S
C5822 C5821 1.366 . S
C5822 C5823 1.414 . S
C5822 C5825 1.499 . S
C5823 H5797 0.950 . S
C5823 C5822 1.414 . S
C5823 C5824 1.374 . S
C5824 H5798 0.950 . S
C5824 C5820 1.385 . S
C5824 C5823 1.374 . S
C5825 C5822 1.499 . S
C5825 C5826 1.373 . S
C5825 C5827 1.389 . S
C5826 H5799 0.950 . S
C5826 C5812 1.377 . S
C5826 C5825 1.373 . S
C5827 C5811 1.377 . S
C5827 C5825 1.389 . S
C5827 C5828 1.524 . S
C5828 C5827 1.524 . S
C5828 C5829 1.397 . S
C5828 C5833 1.363 . S
C5829 H5800 0.950 . S
C5829 C5828 1.397 . S
C5829 C5830 1.334 . S
C5830 H5801 0.950 . S
C5830 C5829 1.334 . S
C5830 C5831 1.287 . S
C5831 C5830 1.287 . S
C5831 C5832 1.524 . S
C5831 H5834 0.999 . S
C5832 H5802 0.950 . S
C5832 C5831 1.524 . S
C5832 C5833 1.415 . S
C5833 H5803 0.950 . S
C5833 C5828 1.363 . S
C5833 C5832 1.415 . S
H5834 C5831 0.999 . S
H5835 C5816 0.913 . S
H5836 C5854 0.951 . S
H5837 C5856 0.951 . S
H5838 C5858 0.942 1_565 S
H5839 C5859 0.950 . S
H5840 C5861 0.950 . S
H5841 C5864 0.950 . S
H5842 C5865 0.950 . S
H5843 C5867 0.950 . S
H5844 C5868 0.950 . S
H5845 C5869 0.951 . S
H5846 C5871 0.951 . S
H5847 C5873 0.950 . S
H5848 C5874 0.950 . S
H5849 C5876 0.950 . S
H5850 C5879 0.950 . S
H5851 C5880 0.950 . S
H5852 C5882 0.938 1_565 S
H5853 C5883 0.950 1_565 S
C5854 H5836 0.951 . S
C5854 C5855 1.366 . S
C5854 C5856 1.388 . S
C5855 C5854 1.366 . S
C5855 C5859 1.385 . S
C5856 H5837 0.951 . S
C5856 C5854 1.388 . S
C5856 C5857 1.366 . S
C5857 C5856 1.366 . S
C5857 C5858 1.414 . S
C5857 C5860 1.499 . S
C5858 H5838 0.942 1_545 S
C5858 C5857 1.414 . S
C5858 C5859 1.374 . S
C5859 H5839 0.950 . S
C5859 C5855 1.385 . S
C5859 C5858 1.374 . S
C5860 C5857 1.499 . S
C5860 C5861 1.373 . S
C5860 C5862 1.389 . S
C5861 H5840 0.950 . S
C5861 C5860 1.373 . S
C5861 C5877 1.377 . S
C5862 C5860 1.389 . S
C5862 C5863 1.524 . S
C5862 C5876 1.377 . S
C5863 C5862 1.524 . S
C5863 C5864 1.397 1_545 S
C5863 C5868 1.363 . S
C5864 H5841 0.950 . S
C5864 C5863 1.397 1_565 S
C5864 C5865 1.334 . S
C5865 H5842 0.950 . S
C5865 C5864 1.334 . S
C5865 C5866 1.287 1_565 S
C5866 C5865 1.287 1_545 S
C5866 C5867 1.524 . S
C5866 H5885 0.913 . S
C5867 H5843 0.950 . S
C5867 C5866 1.524 . S
C5867 C5868 1.415 . S
C5868 H5844 0.950 . S
C5868 C5863 1.363 . S
C5868 C5867 1.415 . S
C5869 H5845 0.951 . S
C5869 C5870 1.357 1_565 S
C5869 C5871 1.388 . S
C5870 C5869 1.357 1_545 S
C5870 C5874 1.389 . S
C5871 H5846 0.951 . S
C5871 C5869 1.388 . S
C5871 C5872 1.366 1_565 S
C5872 C5871 1.366 1_545 S
C5872 C5873 1.414 . S
C5872 C5875 1.499 . S
C5873 H5847 0.950 . S
C5873 C5872 1.414 . S
C5873 C5874 1.374 . S
C5874 H5848 0.950 . S
C5874 C5870 1.389 . S
C5874 C5873 1.374 . S
C5875 C5872 1.499 . S
C5875 C5876 1.373 . S
C5875 C5877 1.389 . S
C5876 H5849 0.950 . S
C5876 C5862 1.377 . S
C5876 C5875 1.373 . S
C5877 C5861 1.377 . S
C5877 C5875 1.389 . S
C5877 C5878 1.524 . S
C5878 C5877 1.524 . S
C5878 C5879 1.397 . S
C5878 C5883 1.363 . S
C5879 H5850 0.950 . S
C5879 C5878 1.397 . S
C5879 C5880 1.334 . S
C5880 H5851 0.950 . S
C5880 C5879 1.334 . S
C5880 C5881 1.287 . S
C5881 C5880 1.287 . S
C5881 C5882 1.524 . S
C5881 H5884 0.999 . S
C5882 H5852 0.938 1_545 S
C5882 C5881 1.524 . S
C5882 C5883 1.415 . S
C5883 H5853 0.950 1_545 S
C5883 C5878 1.363 . S
C5883 C5882 1.415 . S
H5884 C5881 0.999 . S
H5885 C5866 0.913 . S
C2305 C8 1.204 . S
C2320 C1289 1.020 1_655 S
C2355 C18 1.521 . S
C2370 C1429 1.043 . S
C2420 C1517 1.102 . S
C2405 C31 1.247 . S
C2455 C34 1.316 . S
C2470 C1657 1.013 1_565 S
C2505 C5 1.278 . S
C2520 C1771 1.020 . S
C2555 C21 1.571 . S
C2570 C1859 1.222 . S
C2605 C47 1.158 . S
C2620 C1745 1.006 . S
C2670 C1885 1.198 . S
C2655 C57 1.439 . S
C2720 C1631 1.116 . S
C2705 C70 1.285 . S
C2755 C73 1.260 . S
C2770 C1543 0.975 . S
C2820 C1315 1.034 . S
C2805 C44 1.305 . S
C2855 C60 1.483 . S
C2870 C1403 1.350 . S
C2905 C86 1.636 . S
C2920 C1973 1.254 . S
C2955 C96 1.612 . S
C2970 C2113 1.092 . S
C3020 C2201 1.259 . S
C3005 C109 1.665 . S
C3055 C112 1.742 . S
C3070 C289 1.153 . S
C3105 C83 1.741 . S
C3120 C403 1.172 . S
C3155 C99 1.673 . S
C3170 C491 1.285 . S
C3205 C125 1.369 . S
C3220 C377 1.253 . S
C3255 C135 1.538 . S
C3270 C517 1.316 . S
C3320 C263 1.452 . S
C3305 C148 1.604 . S
C3370 C2227 1.582 . S
C3355 C151 1.811 . S
C3420 C1999 1.349 . S
C3405 C122 1.591 . S
C3470 C2087 1.491 . S
C3455 C138 1.619 . S
C3505 C164 1.470 . S
C3520 C605 1.119 . S
C3555 C174 1.612 . S
C3570 C745 1.091 . S
C3605 C187 1.688 . S
C3620 C833 1.292 . S
C3655 C190 1.897 . S
C3670 C973 1.287 . S
C3720 C1087 1.134 . S
C3705 C161 1.715 . S
C3770 C1175 1.327 . S
C3755 C177 1.714 . S
C3820 C1061 1.435 . S
C3805 C203 1.565 . S
C3870 C1201 1.314 . S
C3855 C213 1.548 . S
C3905 C226 1.551 . S
C3920 C947 1.398 . S
C3970 C859 1.417 . S
C3955 C229 1.631 . S
C4005 C200 1.651 . S
C4020 C631 1.406 . S
C4070 C719 1.464 . S
C4055 C216 1.589 . S
C4120 C245 0.922 . S
C4105 C0 1.623 . S
C4155 C23 1.491 . S
C4170 C359 0.825 . S
C4220 C463 1.183 . S
C4205 C36 1.627 . S
C4270 C577 1.127 . S
C4255 C26 1.467 . S
C4320 C701 0.914 . S
C4305 C10 1.661 . S
C4370 C805 1.105 . S
C4355 C13 1.474 1_556 S
C4405 C39 1.727 . S
C4420 C815 1.353 . S
C4455 C62 1.572 . S
C4470 C587 1.178 . S
C4505 C75 1.693 1_556 S
C4520 C691 1.461 . S
C4555 C65 1.596 . S
C4570 C349 1.486 . S
C4620 C473 1.336 . S
C4605 C49 1.760 . S
C4655 C52 1.566 . S
C4670 C235 1.439 . S
C4720 C929 0.879 . S
C4705 C78 1.538 . S
C4755 C101 1.676 . S
C4770 C1043 0.957 . S
C4805 C114 1.663 1_655 S
C4820 C1147 1.255 . S
C4870 C1261 0.879 . S
C4855 C104 1.036 . S
C4905 C88 1.508 . S
C4920 C1385 0.849 . S
C4955 C91 1.051 . S
C4970 C1489 0.891 . S
C5005 C117 1.206 . S
C5020 C1499 0.797 1_565 S
C5055 C140 1.112 . S
C5070 C1271 0.808 . S
C5120 C1375 1.352 . S
C5105 C153 1.579 . S
C5155 C143 1.499 . S
C5170 C1033 1.385 . S
C5205 C127 1.787 . S
C5220 C1157 1.366 . S
C5270 C919 1.582 . S
C5255 C130 1.739 . S
C5320 C1613 0.792 . S
C5305 C156 1.225 . S
C5355 C179 1.083 . S
C5370 C1727 0.776 . S
C5405 C192 1.480 . S
C5420 C1831 1.098 . S
C5470 C1945 1.063 . S
C5455 C182 1.371 . S
C5520 C2069 1.000 . S
C5505 C166 1.654 1_565 S
C5555 C169 1.648 . S
C5570 C2173 1.242 . S
C5605 C195 1.642 . S
C5620 C2183 1.275 . S
C5655 C218 1.742 1_565 S
C5670 C1955 1.330 . S
C5720 C2059 1.499 . S
C5705 C231 1.719 1_455 S
C5770 C1717 0.893 1_655 S
C5755 C221 1.020 . S
C5820 C1841 1.202 . S
C5805 C205 1.617 . S
C5855 C208 1.097 . S
C5870 C1603 0.944 1_545 S
