# Generated by pormake.
# Topology tsx, (6,3)-cn, num edge types: 1
# Building blocks:
#     Node 0, Type 0, BuildingBlock: LEVNOQ01_clean_sbu_1, # of connection points: 6
#     Node 1, Type 0, BuildingBlock: LEVNOQ01_clean_sbu_1, # of connection points: 6
#     Node 2, Type 1, BuildingBlock: PAMTOO_clean_linker_0, # of connection points: 3
#     Node 3, Type 1, BuildingBlock: PAMTOO_clean_linker_0, # of connection points: 3
#     Node 4, Type 1, BuildingBlock: PAMTOO_clean_linker_0, # of connection points: 3
#     Node 5, Type 1, BuildingBlock: PAMTOO_clean_linker_0, # of connection points: 3
#     Edge 6, Type (0, 1), BuildingBlock: EZIPEK_clean_linker_0, # of connection points: 2
#     Edge 7, Type (0, 1), BuildingBlock: EZIPEK_clean_linker_0, # of connection points: 2
#     Edge 8, Type (0, 1), BuildingBlock: EZIPEK_clean_linker_0, # of connection points: 2
#     Edge 9, Type (0, 1), BuildingBlock: EZIPEK_clean_linker_0, # of connection points: 2
#     Edge 10, Type (0, 1), BuildingBlock: EZIPEK_clean_linker_0, # of connection points: 2
#     Edge 11, Type (0, 1), BuildingBlock: EZIPEK_clean_linker_0, # of connection points: 2
#     Edge 12, Type (0, 1), BuildingBlock: EZIPEK_clean_linker_0, # of connection points: 2
#     Edge 13, Type (0, 1), BuildingBlock: EZIPEK_clean_linker_0, # of connection points: 2
#     Edge 14, Type (0, 1), BuildingBlock: EZIPEK_clean_linker_0, # of connection points: 2
#     Edge 15, Type (0, 1), BuildingBlock: EZIPEK_clean_linker_0, # of connection points: 2
#     Edge 16, Type (0, 1), BuildingBlock: EZIPEK_clean_linker_0, # of connection points: 2
#     Edge 17, Type (0, 1), BuildingBlock: EZIPEK_clean_linker_0, # of connection points: 2
# Relax obj value: 0.130
# Max RMSD: 0.141
# Mean RMSD: 0.136
data_MOF--net-tsx--node1-LEVNOQ01_clean_sbu_1--node2-PAMTOO_clean_linker_0--edge1-EZIPEK_clean_linker_0
_symmetry_space_group_name_H-M    P1
_symmetry_Int_Tables_number       1
_symmetry_cell_setting            triclinic
loop_
_symmetry_equiv_pos_as_xyz
'x, y, z'
_cell_length_a     13.851144
_cell_length_b     17.015993
_cell_length_c     25.644299
_cell_angle_alpha  88.420765
_cell_angle_beta   90.369379
_cell_angle_gamma 90.998044
loop_
_atom_site_label
_atom_site_type_symbol
_atom_site_fract_x
_atom_site_fract_y
_atom_site_fract_z
_atom_type_partial_charge
O0 O 0.15669 0.91672 0.07823 0.0
Mg1 Mg 0.21243 0.97938 0.01058 0.0
O2 O 0.02239 0.98015 0.06528 0.0
Mg3 Mg 0.05352 -0.00645 -0.02269 0.0
O4 O 0.17363 0.09333 -0.00228 0.0
O5 O 0.31254 0.05517 0.03656 0.0
O6 O 0.09905 0.01521 0.89173 0.0
O7 O 0.94867 0.10629 -0.02671 0.0
Mg8 Mg 0.8877 0.96736 0.89963 0.0
O9 O 0.93595 0.89696 0.95972 0.0
O10 O 0.98569 0.97396 0.83749 0.0
O11 O 0.82808 0.07415 0.92031 0.0
O12 O 0.80721 0.8676 0.91186 0.0
C13 C 0.22057 0.86075 0.9531 0.0
C14 C 0.07987 0.9443 0.09626 0.0
C15 C 0.25637 0.10987 0.01992 0.0
C16 C 0.06929 0.00226 0.84575 0.0
C17 C 0.8693 0.12342 0.94949 0.0
C18 C 0.86821 0.84651 0.94767 0.0
O19 O 0.27813 0.91851 0.94996 0.0
O20 O 0.13823 0.87101 -0.0268 0.0
O21 O 0.65994 0.54142 0.56791 0.0
Mg22 Mg 0.69116 0.60367 0.49805 0.0
O23 O 0.50519 0.57223 0.56584 0.0
Mg24 Mg 0.50268 0.60288 0.47684 0.0
O25 O 0.61802 0.70646 0.48921 0.0
O26 O 0.7752 0.69919 0.51179 0.0
O27 O 0.52121 0.63444 0.38836 0.0
O28 O 0.39369 0.71007 0.48832 0.0
Mg29 Mg 0.32896 0.57738 0.41069 0.0
O30 O 0.37585 0.50765 0.47183 0.0
O31 O 0.40817 0.57617 0.34227 0.0
O32 O 0.274 0.68594 0.43281 0.0
O33 O 0.24364 0.48166 0.42325 0.0
C34 C 0.68539 0.47966 0.43944 0.0
C35 C 0.57854 0.54393 0.58989 0.0
C36 C 0.69973 0.74037 0.50183 0.0
C37 C 0.48666 0.61461 0.34451 0.0
C38 C 0.31423 0.73012 0.46577 0.0
C39 C 0.30069 0.46307 0.46144 0.0
O40 O 0.74441 0.53683 0.43775 0.0
O41 O 0.60162 0.48934 0.45919 0.0
H42 H 0.11115 0.90042 0.34467 0.0
H43 H 0.96851 0.11244 0.29699 0.0
H44 H 0.03371 0.06591 0.45897 0.0
H45 H 0.79842 0.12781 0.388 0.0
C46 C 0.84572 0.1782 0.37629 0.0
O47 O 0.94169 0.16507 0.39136 0.0
H48 H 0.84611 0.18205 0.33306 0.0
C49 C 0.07662 0.95453 0.35506 0.0
C50 C 0.08113 0.97909 0.40647 0.0
C51 C 0.03716 0.00286 0.3158 0.0
C52 C 0.9962 0.0747 0.32811 0.0
C53 C 0.9886 0.09698 0.38014 0.0
C54 C 0.03361 0.04905 0.41929 0.0
H55 H 0.22375 0.1944 0.63391 0.0
H56 H 0.00634 0.01063 0.63557 0.0
H57 H 0.03084 0.17226 0.50405 0.0
H58 H 0.80689 0.10104 0.54296 0.0
C59 C 0.8402 0.04608 0.5581 0.0
O60 O 0.93636 0.04346 0.54289 0.0
H61 H 0.83943 0.04726 0.60132 0.0
C62 C 0.16595 0.16279 0.61435 0.0
C63 C 0.13437 0.18851 0.56508 0.0
C64 C 0.11737 0.10082 0.64041 0.0
C65 C 0.04252 0.05959 0.6155 0.0
C66 C 0.00942 0.08452 0.5663 0.0
C67 C 0.05487 0.15049 0.54162 0.0
H68 H 0.69378 0.36189 0.81002 0.0
H69 H 0.50154 0.55722 0.81697 0.0
H70 H 0.58646 0.4349 0.95749 0.0
H71 H 0.35686 0.51708 0.95261 0.0
C72 C 0.38336 0.55342 0.91916 0.0
O73 O 0.48352 0.55359 0.91736 0.0
H74 H 0.35118 0.524 0.88498 0.0
C75 C 0.65033 0.4005 0.83281 0.0
C76 C 0.64968 0.39253 0.88752 0.0
C77 C 0.59529 0.45903 0.8076 0.0
C78 C 0.54123 0.51056 0.83656 0.0
C79 C 0.53675 0.50215 0.89046 0.0
C80 C 0.59143 0.44311 0.91595 0.0
H81 H 0.71529 0.66746 0.12316 0.0
H82 H 0.52965 0.46754 0.15239 0.0
H83 H 0.69002 0.48783 0.00913 0.0
H84 H 0.45118 0.45203 0.01013 0.0
C85 C 0.45369 0.41224 0.04414 0.0
O86 O 0.5496 0.40615 0.06022 0.0
H87 H 0.41179 0.44306 0.07407 0.0
C88 C 0.68605 0.61143 0.11066 0.0
C89 C 0.7092 0.58352 0.06158 0.0
C90 C 0.62381 0.56864 0.14358 0.0
C91 C 0.58077 0.49844 0.12717 0.0
C92 C 0.60034 0.46994 0.07765 0.0
C93 C 0.66917 0.51065 0.04609 0.0
C94 C 0.31134 0.22043 0.07464 0.0
C95 C 0.29143 0.19158 0.02455 0.0
C96 C 0.36778 0.30855 -0.01454 0.0
C97 C 0.4031 0.33208 0.03569 0.0
N98 N 0.41555 0.29989 0.12825 0.0
N99 N 0.31128 0.2026 0.93155 0.0
C100 C 0.37733 0.28452 0.0803 0.0
C101 C 0.32183 0.23427 -0.02018 0.0
N102 N 0.26319 0.18867 0.11665 0.0
N103 N 0.37489 0.35668 0.94256 0.0
H104 H 0.27581 0.14915 0.92518 0.0
H105 H 0.34402 0.22675 0.89816 0.0
H106 H 0.42137 0.40382 0.94031 0.0
H107 H 0.33412 0.34872 0.90871 0.0
H108 H 0.26812 0.21117 0.15397 0.0
H109 H 0.20857 0.14633 0.11234 0.0
H110 H 0.4067 0.26198 0.16053 0.0
H111 H 0.46313 0.34638 0.13506 0.0
C112 C 0.32193 0.7483 -0.01671 0.0
C113 C 0.25748 0.78098 0.94586 0.0
C114 C 0.29125 0.67483 0.8868 0.0
C115 C 0.34688 0.63637 0.92646 0.0
N116 N 0.40374 0.63343 0.01607 0.0
N117 N 0.16033 0.76426 0.86877 0.0
C118 C 0.35934 0.67244 -0.02435 0.0
C119 C 0.23556 0.74073 0.89973 0.0
N120 N 0.3483 0.78986 0.02618 0.0
N121 N 0.29445 0.65133 0.83636 0.0
H122 H 0.11633 0.8109 0.87824 0.0
H123 H 0.13588 0.73253 0.83694 0.0
H124 H 0.34071 0.60826 0.8238 0.0
H125 H 0.26068 0.68189 0.80574 0.0
H126 H 0.4047 0.77346 0.05105 0.0
H127 H 0.31777 0.84326 0.0354 0.0
H128 H 0.39752 0.65022 0.05458 0.0
H129 H 0.44084 0.58154 0.0121 0.0
C130 C 0.89591 0.73913 0.02088 0.0
C131 C 0.85745 0.76462 -0.02846 0.0
C132 C 0.73583 0.6601 -0.0235 0.0
C133 C 0.76993 0.63536 0.02631 0.0
N134 N 0.9053 0.63188 0.08563 0.0
N135 N 0.78608 0.71261 0.89298 0.0
C136 C 0.85806 0.66842 0.04509 0.0
C137 C 0.79297 0.71248 0.94607 0.0
N138 N 0.96638 0.78132 0.04527 0.0
N139 N 0.64546 0.64078 0.95965 0.0
H140 H 0.83369 0.74545 0.86926 0.0
H141 H 0.7422 0.67234 0.87344 0.0
H142 H 0.59618 0.60982 -0.01703 0.0
H143 H 0.61664 0.66469 0.92513 0.0
H144 H 0.98854 0.76952 0.08353 0.0
H145 H 1.00155 0.82931 0.02813 0.0
H146 H 0.97393 0.64879 0.09835 0.0
H147 H 0.8798 0.5792 0.10274 0.0
C148 C 0.72014 0.2009 0.95916 0.0
C149 C 0.82166 0.20184 0.95215 0.0
C150 C 0.81077 0.3384 0.9179 0.0
C151 C 0.7086 0.32988 0.91445 0.0
N152 N 0.5668 0.24752 0.92645 0.0
N153 N 0.9654 0.27358 0.92507 0.0
C154 C 0.66324 0.26015 0.9345 0.0
C155 C 0.86791 0.27185 0.93257 0.0
N156 N 0.67816 0.14181 -0.01136 0.0
N157 N 0.85301 0.41016 0.90729 0.0
H158 H 0.01009 0.22827 0.93775 0.0
H159 H 1.00149 0.31859 0.90443 0.0
H160 H 0.81315 0.45952 0.8964 0.0
H161 H 0.92597 0.42237 0.91374 0.0
H162 H 0.60546 0.14108 -0.0011 0.0
H163 H 0.71899 0.09823 0.00734 0.0
H164 H 0.53155 0.19446 0.93578 0.0
H165 H 0.52419 0.28715 0.9054 0.0
C166 C 0.68133 0.85678 0.55854 0.0
C167 C 0.70672 0.82628 0.50965 0.0
C168 C 0.78847 0.95062 0.48625 0.0
C169 C 0.78155 0.97453 0.53875 0.0
N170 N 0.67851 0.96965 0.61441 0.0
N171 N 0.77379 0.84537 0.42416 0.0
C172 C 0.71489 0.9334 0.57206 0.0
C173 C 0.75543 0.87434 0.47226 0.0
N174 N 0.62788 0.81122 0.59265 0.0
N175 N 0.82318 0.00225 0.44936 0.0
H176 H 0.74546 0.7915 0.41217 0.0
H177 H 0.81949 0.87273 0.3969 0.0
H178 H 0.84502 0.05864 0.45878 0.0
H179 H 0.82248 -0.0081 0.40956 0.0
H180 H 0.61828 0.82433 0.63167 0.0
H181 H 0.59506 0.75841 0.58191 0.0
H182 H 0.62467 0.94518 0.63819 0.0
H183 H 0.6929 0.02854 0.6221 0.0
C184 C 0.78851 0.3615 0.45831 0.0
C185 C 0.71954 0.40001 0.42578 0.0
C186 C 0.72273 0.2893 0.36602 0.0
C187 C 0.7996 0.25437 0.39571 0.0
N188 N 0.86631 0.23992 0.48219 0.0
N189 N 0.62562 0.40432 0.34665 0.0
C190 C 0.82212 0.28581 0.44523 0.0
C191 C 0.68733 0.36456 0.37932 0.0
N192 N 0.82302 0.39751 0.50183 0.0
N193 N 0.67759 0.24768 0.32769 0.0
H194 H 0.59472 0.45743 0.35622 0.0
H195 H 0.61028 0.38776 0.30866 0.0
H196 H 0.69426 0.18997 0.3192 0.0
H197 H 0.61536 0.26626 0.30839 0.0
H198 H 0.88305 0.37797 0.52279 0.0
H199 H 0.79559 0.44983 0.51531 0.0
H200 H 0.87624 0.25585 0.52081 0.0
H201 H 0.88013 0.18127 0.47619 0.0
C202 C 0.18288 0.40271 0.52437 0.0
C203 C 0.27022 0.39618 0.49616 0.0
C204 C 0.26833 0.25333 0.51261 0.0
C205 C 0.18053 0.25984 0.54045 0.0
N206 N 0.06082 0.3402 0.57975 0.0
N207 N 0.40542 0.31984 0.47046 0.0
C208 C 0.13979 0.33451 0.54838 0.0
C209 C 0.31623 0.32278 0.49279 0.0
N210 N 0.13996 0.47435 0.52689 0.0
N211 N 0.30367 0.18041 0.50359 0.0
H212 H 0.44109 0.36971 0.45513 0.0
H213 H 0.44742 0.26976 0.47041 0.0
H214 H 0.27055 0.12864 0.51774 0.0
H215 H 0.362 0.1703 0.47949 0.0
H216 H 0.07009 0.48231 0.54019 0.0
H217 H 0.17353 0.52657 0.51381 0.0
H218 H 0.03413 0.39308 0.59246 0.0
H219 H 0.02391 0.29137 0.59561 0.0
C220 C 0.1669 0.80342 0.48829 0.0
C221 C 0.26587 0.80668 0.47464 0.0
C222 C 0.24469 0.94282 0.44186 0.0
C223 C 0.14288 0.93164 0.44381 0.0
N224 N 0.00633 0.8533 0.47188 0.0
N225 N 0.40278 0.88236 0.44297 0.0
C226 C 0.10393 0.86325 0.46926 0.0
C227 C 0.30654 0.87822 0.45417 0.0
N228 N 0.13338 0.74136 0.51827 0.0
N229 N 0.28147 0.01475 0.42667 0.0
H230 H 0.45008 0.83756 0.45342 0.0
H231 H 0.4354 0.9288 0.42208 0.0
H232 H 0.23707 0.06211 0.41731 0.0
H233 H 0.35465 0.02953 0.42781 0.0
H234 H 0.06358 0.73724 0.53303 0.0
H235 H 0.17922 0.6974 0.53234 0.0
H236 H 0.97169 0.80143 0.48438 0.0
H237 H 0.96021 0.8972 0.45888 0.0
C238 C 0.14997 0.98065 0.18346 0.0
C239 C 0.06985 0.95176 0.15366 0.0
C240 C 0.96697 0.9565 0.23124 0.0
C241 C 0.04823 0.9818 0.26069 0.0
N242 N 0.22016 0.00586 0.26786 0.0
N243 N 0.9058 0.90163 0.15095 0.0
C244 C 0.1407 -0.01106 0.23785 0.0
C245 C 0.97921 0.93679 0.17808 0.0
N246 N 0.23273 0.00755 0.15963 0.0
N247 N 0.87797 0.95218 0.25407 0.0
H248 H 0.9112 0.8877 0.11185 0.0
H249 H 0.84184 0.88093 0.16785 0.0
H250 H 0.86744 0.96105 0.29371 0.0
H251 H 0.81377 0.94379 0.23351 0.0
H252 H 0.2879 0.0378 0.17872 0.0
H253 H 0.24326 0.00941 0.11975 0.0
H254 H 0.29066 -0.00229 0.25544 0.0
H255 H 0.21679 0.0235 0.30637 0.0
C256 C 0.0982 0.11562 0.78656 0.0
C257 C 0.12104 0.03754 0.80096 0.0
C258 C 0.179 0.01464 0.71314 0.0
C259 C 0.13475 0.08556 0.69645 0.0
N260 N 0.04933 0.20399 0.71663 0.0
N261 N 0.19998 0.91729 0.78346 0.0
C262 C 0.09591 0.13746 0.73308 0.0
C263 C 0.16815 -0.01131 0.76593 0.0
N264 N 0.07576 0.16774 0.82404 0.0
N265 N 0.22979 0.97257 0.67829 0.0
H266 H 0.20009 0.90226 0.82315 0.0
H267 H 0.22637 0.87421 0.75961 0.0
H268 H 0.23886 -0.0085 0.63953 0.0
H269 H 0.26804 0.92219 0.68818 0.0
H270 H 0.06643 0.22757 0.81637 0.0
H271 H 0.0768 0.15256 0.86369 0.0
H272 H 0.0094 0.23841 0.74126 0.0
H273 H 0.04383 0.22211 0.67767 0.0
C274 C 0.64317 0.56183 0.6792 0.0
C275 C 0.57618 0.523 0.64601 0.0
C276 C 0.52434 0.437 0.71898 0.0
C277 C 0.59697 0.47191 0.75058 0.0
N278 N 0.7366 0.55698 0.75925 0.0
N279 N 0.46231 0.41685 0.63148 0.0
C280 C 0.6601 0.53087 0.73006 0.0
C281 C 0.51885 0.45874 0.66508 0.0
N282 N 0.68783 0.63037 0.66273 0.0
N283 N 0.45949 0.38458 0.74087 0.0
H284 H 0.45586 0.43174 0.59189 0.0
H285 H 0.42685 0.36437 0.64195 0.0
H286 H 0.46429 0.36482 0.77968 0.0
H287 H 0.39817 0.36401 0.72152 0.0
H288 H 0.72894 0.66588 0.6871 0.0
H289 H 0.67641 0.65603 0.62592 0.0
H290 H 0.79115 0.59388 0.74439 0.0
H291 H 0.75057 0.53609 0.79714 0.0
C292 C 0.48438 0.66012 0.25153 0.0
C293 C 0.53838 0.63287 0.29529 0.0
C294 C 0.65942 0.57859 0.23878 0.0
C295 C 0.60105 0.59916 0.19517 0.0
N296 N 0.47793 0.68182 0.15765 0.0
N297 N 0.69688 0.60334 0.32909 0.0
C298 C 0.51987 0.64765 0.20075 0.0
C299 C 0.63263 0.6042 0.28859 0.0
N300 N 0.39841 0.69623 0.25898 0.0
N301 N 0.73837 0.53266 0.2329 0.0
H302 H 0.68233 0.62945 0.36432 0.0
H303 H 0.76865 0.58721 0.32535 0.0
H304 H 0.76209 0.51495 0.19658 0.0
H305 H 0.77647 0.5081 0.26431 0.0
H306 H 0.34939 0.70918 0.22917 0.0
H307 H 0.37552 0.71183 0.29596 0.0
H308 H 0.42256 0.72225 0.15913 0.0
H309 H 0.50504 0.67508 0.12026 0.0
loop_
_geom_bond_atom_site_label_1
_geom_bond_atom_site_label_2
_geom_bond_distance
_geom_bond_site_symmetry_2
_ccdc_geom_bond_type
O0 Mg1 1.990 . S
O0 C14 1.253 . S
Mg1 O0 1.990 . S
Mg1 O4 2.180 . S
Mg1 O5 2.117 . S
Mg1 O19 2.030 1_545 S
O2 Mg3 2.069 1_554 S
O2 C14 1.260 . S
Mg3 O2 2.069 1_556 S
Mg3 O4 2.098 1_556 S
Mg3 O6 2.082 . S
Mg3 O7 2.072 1_456 S
Mg3 O9 2.099 1_445 S
Mg3 O20 2.079 1_545 S
O4 Mg1 2.180 . S
O4 Mg3 2.098 1_554 S
O4 C15 1.279 . S
O5 Mg1 2.117 . S
O5 C15 1.250 . S
O6 Mg3 2.082 . S
O6 C16 1.264 . S
O7 Mg3 2.072 1_654 S
O7 C17 1.260 1_554 S
Mg8 O9 2.180 1_545 S
Mg8 O10 2.030 . S
Mg8 O11 1.990 . S
Mg8 O12 2.117 1_545 S
O9 Mg3 2.099 1_665 S
O9 Mg8 2.180 1_565 S
O9 C18 1.279 1_556 S
O10 Mg8 2.030 . S
O10 C16 1.248 1_655 S
O11 Mg8 1.990 . S
O11 C17 1.253 . S
O12 Mg8 2.117 1_565 S
O12 C18 1.250 1_556 S
C13 O19 1.248 . S
C13 O20 1.264 1_554 S
C14 O0 1.253 . S
C14 O2 1.260 . S
C15 O4 1.279 . S
C15 O5 1.250 . S
C16 O6 1.264 . S
C16 O10 1.248 1_455 S
C17 O7 1.260 1_556 S
C17 O11 1.253 . S
C18 O9 1.279 1_554 S
C18 O12 1.250 1_554 S
O19 Mg1 2.030 1_565 S
O19 C13 1.248 . S
O20 Mg3 2.079 1_565 S
O20 C13 1.264 1_556 S
O21 Mg22 1.990 . S
O21 C35 1.253 . S
Mg22 O21 1.990 . S
Mg22 O25 2.180 . S
Mg22 O26 2.117 . S
Mg22 O40 2.030 . S
O23 Mg24 2.072 . S
O23 C35 1.260 . S
Mg24 O23 2.072 . S
Mg24 O25 2.099 . S
Mg24 O27 2.079 . S
Mg24 O28 2.072 . S
Mg24 O30 2.099 . S
Mg24 O41 2.079 . S
O25 Mg22 2.180 . S
O25 Mg24 2.099 . S
O25 C36 1.279 . S
O26 Mg22 2.117 . S
O26 C36 1.250 . S
O27 Mg24 2.079 . S
O27 C37 1.264 . S
O28 Mg24 2.072 . S
O28 C38 1.260 . S
Mg29 O30 2.180 . S
Mg29 O31 2.030 . S
Mg29 O32 1.990 . S
Mg29 O33 2.117 . S
O30 Mg24 2.099 . S
O30 Mg29 2.180 . S
O30 C39 1.279 . S
O31 Mg29 2.030 . S
O31 C37 1.248 . S
O32 Mg29 1.990 . S
O32 C38 1.253 . S
O33 Mg29 2.117 . S
O33 C39 1.250 . S
C34 O40 1.248 . S
C34 O41 1.264 . S
C35 O21 1.253 . S
C35 O23 1.260 . S
C36 O25 1.279 . S
C36 O26 1.250 . S
C37 O27 1.264 . S
C37 O31 1.248 . S
C38 O28 1.260 . S
C38 O32 1.253 . S
C39 O30 1.279 . S
C39 O33 1.250 . S
O40 Mg22 2.030 . S
O40 C34 1.248 . S
O41 Mg24 2.079 . S
O41 C34 1.264 . S
H42 C49 0.929 . S
H43 C52 0.930 1_655 S
H44 C54 0.929 . S
H45 C46 0.969 . S
C46 H45 0.969 . S
C46 O47 1.550 . S
C46 H48 0.973 . S
O47 C46 1.550 . S
O47 C53 1.412 1_655 S
H48 C46 0.973 . S
C49 H42 0.929 . S
C49 C50 1.400 . S
C49 C51 1.364 . S
C50 C49 1.400 . S
C50 C54 1.377 . S
C51 C49 1.364 . S
C51 C52 1.374 1_565 S
C52 H43 0.930 1_455 S
C52 C51 1.374 1_545 S
C52 C53 1.383 . S
C53 O47 1.412 1_455 S
C53 C52 1.383 . S
C53 C54 1.394 1_545 S
C54 H44 0.929 . S
C54 C50 1.377 . S
C54 C53 1.394 1_565 S
H55 C62 0.929 . S
H56 C65 0.930 . S
H57 C67 0.929 . S
H58 C59 0.969 1_545 S
C59 H58 0.969 1_565 S
C59 O60 1.550 1_565 S
C59 H61 0.973 . S
O60 C59 1.550 1_545 S
O60 C66 1.412 . S
H61 C59 0.973 . S
C62 H55 0.929 . S
C62 C63 1.400 . S
C62 C64 1.364 . S
C63 C62 1.400 . S
C63 C67 1.377 . S
C64 C62 1.364 . S
C64 C65 1.374 1_455 S
C65 H56 0.930 . S
C65 C64 1.374 1_655 S
C65 C66 1.383 . S
C66 O60 1.412 . S
C66 C65 1.383 . S
C66 C67 1.394 1_655 S
C67 H57 0.929 . S
C67 C63 1.377 . S
C67 C66 1.394 1_455 S
H68 C75 0.929 . S
H69 C78 0.930 . S
H70 C80 0.929 1_554 S
H71 C72 0.969 . S
C72 H71 0.969 . S
C72 O73 1.550 1_556 S
C72 H74 0.973 . S
O73 C72 1.550 1_554 S
O73 C79 1.412 1_554 S
H74 C72 0.973 . S
C75 H68 0.929 . S
C75 C76 1.400 . S
C75 C77 1.364 . S
C76 C75 1.400 . S
C76 C80 1.377 . S
C77 C75 1.364 . S
C77 C78 1.374 . S
C78 H69 0.930 . S
C78 C77 1.374 . S
C78 C79 1.383 . S
C79 O73 1.412 1_556 S
C79 C78 1.383 . S
C79 C80 1.394 . S
C80 H70 0.929 1_556 S
C80 C76 1.377 . S
C80 C79 1.394 . S
H81 C88 0.929 . S
H82 C91 0.930 . S
H83 C93 0.929 1_556 S
H84 C85 0.969 . S
C85 H84 0.969 . S
C85 O86 1.550 . S
C85 H87 0.973 . S
O86 C85 1.550 . S
O86 C92 1.412 . S
H87 C85 0.973 . S
C88 H81 0.929 . S
C88 C89 1.400 . S
C88 C90 1.364 . S
C89 C88 1.400 . S
C89 C93 1.377 . S
C90 C88 1.364 . S
C90 C91 1.374 . S
C91 H82 0.930 . S
C91 C90 1.374 . S
C91 C92 1.383 . S
C92 O86 1.412 . S
C92 C91 1.383 . S
C92 C93 1.394 . S
C93 H83 0.929 1_554 S
C93 C89 1.377 . S
C93 C92 1.394 . S
C94 C95 1.363 . S
C94 C100 1.379 . S
C94 N102 1.356 . S
C95 C94 1.363 . S
C95 C101 1.363 1_554 S
C96 C97 1.363 1_556 S
C96 C101 1.379 . S
C96 N103 1.356 . S
C97 C96 1.363 1_554 S
C97 C100 1.363 . S
N98 C100 1.356 . S
N98 H110 0.984 . S
N98 H111 0.985 . S
N99 C101 1.356 . S
N99 H104 0.984 . S
N99 H105 0.985 . S
C100 C94 1.379 . S
C100 C97 1.363 . S
C100 N98 1.356 . S
C101 C95 1.363 1_556 S
C101 C96 1.379 . S
C101 N99 1.356 . S
N102 C94 1.356 . S
N102 H108 0.984 . S
N102 H109 0.984 . S
N103 C96 1.356 . S
N103 H106 0.984 . S
N103 H107 0.985 . S
H104 N99 0.984 . S
H105 N99 0.985 . S
H106 N103 0.984 . S
H107 N103 0.985 . S
H108 N102 0.984 . S
H109 N102 0.984 . S
H110 N98 0.984 . S
H111 N98 0.985 . S
C112 C113 1.363 . S
C112 C118 1.379 . S
C112 N120 1.356 . S
C113 C112 1.363 . S
C113 C119 1.363 1_554 S
C114 C115 1.363 1_556 S
C114 C119 1.379 . S
C114 N121 1.356 . S
C115 C114 1.363 1_554 S
C115 C118 1.363 . S
N116 C118 1.356 . S
N116 H128 0.984 . S
N116 H129 0.985 . S
N117 C119 1.356 . S
N117 H122 0.984 . S
N117 H123 0.985 . S
C118 C112 1.379 . S
C118 C115 1.363 . S
C118 N116 1.356 . S
C119 C113 1.363 1_556 S
C119 C114 1.379 . S
C119 N117 1.356 . S
N120 C112 1.356 . S
N120 H126 0.984 . S
N120 H127 0.984 . S
N121 C114 1.356 . S
N121 H124 0.984 . S
N121 H125 0.985 . S
H122 N117 0.984 . S
H123 N117 0.985 . S
H124 N121 0.984 . S
H125 N121 0.985 . S
H126 N120 0.984 . S
H127 N120 0.984 . S
H128 N116 0.984 . S
H129 N116 0.985 . S
C130 C131 1.363 . S
C130 C136 1.379 . S
C130 N138 1.356 . S
C131 C130 1.363 . S
C131 C137 1.363 1_554 S
C132 C133 1.363 . S
C132 C137 1.379 1_554 S
C132 N139 1.356 1_554 S
C133 C132 1.363 . S
C133 C136 1.363 . S
N134 C136 1.356 . S
N134 H146 0.984 . S
N134 H147 0.985 . S
N135 C137 1.356 . S
N135 H140 0.984 . S
N135 H141 0.985 . S
C136 C130 1.379 . S
C136 C133 1.363 . S
C136 N134 1.356 . S
C137 C131 1.363 1_556 S
C137 C132 1.379 1_556 S
C137 N135 1.356 . S
N138 C130 1.356 . S
N138 H144 0.984 . S
N138 H145 0.984 . S
N139 C132 1.356 1_556 S
N139 H142 0.984 . S
N139 H143 0.985 . S
H140 N135 0.984 . S
H141 N135 0.985 . S
H142 N139 0.984 . S
H143 N139 0.985 . S
H144 N138 0.984 . S
H145 N138 0.984 . S
H146 N134 0.984 . S
H147 N134 0.985 . S
C148 C149 1.363 1_554 S
C148 C154 1.379 . S
C148 N156 1.356 . S
C149 C148 1.363 1_556 S
C149 C155 1.363 . S
C150 C151 1.363 . S
C150 C155 1.379 . S
C150 N157 1.356 . S
C151 C150 1.363 . S
C151 C154 1.363 1_556 S
N152 C154 1.356 . S
N152 H164 0.984 . S
N152 H165 0.985 . S
N153 C155 1.356 . S
N153 H158 0.984 . S
N153 H159 0.985 . S
C154 C148 1.379 . S
C154 C151 1.363 1_554 S
C154 N152 1.356 . S
C155 C149 1.363 . S
C155 C150 1.379 . S
C155 N153 1.356 . S
N156 C148 1.356 . S
N156 H162 0.984 . S
N156 H163 0.984 . S
N157 C150 1.356 . S
N157 H160 0.984 . S
N157 H161 0.985 . S
H158 N153 0.984 . S
H159 N153 0.985 . S
H160 N157 0.984 . S
H161 N157 0.985 . S
H162 N156 0.984 . S
H163 N156 0.984 . S
H164 N152 0.984 . S
H165 N152 0.985 . S
C166 C167 1.363 . S
C166 C172 1.379 . S
C166 N174 1.356 . S
C167 C166 1.363 . S
C167 C173 1.363 . S
C168 C169 1.363 . S
C168 C173 1.379 . S
C168 N175 1.356 . S
C169 C168 1.363 . S
C169 C172 1.363 . S
N170 C172 1.356 . S
N170 H182 0.984 . S
N170 H183 0.985 1_565 S
N171 C173 1.356 . S
N171 H176 0.984 . S
N171 H177 0.985 . S
C172 C166 1.379 . S
C172 C169 1.363 . S
C172 N170 1.356 . S
C173 C167 1.363 . S
C173 C168 1.379 . S
C173 N171 1.356 . S
N174 C166 1.356 . S
N174 H180 0.984 . S
N174 H181 0.984 . S
N175 C168 1.356 . S
N175 H178 0.984 . S
N175 H179 0.985 . S
H176 N171 0.984 . S
H177 N171 0.985 . S
H178 N175 0.984 . S
H179 N175 0.985 . S
H180 N174 0.984 . S
H181 N174 0.984 . S
H182 N170 0.984 . S
H183 N170 0.985 1_545 S
C184 C185 1.363 . S
C184 C190 1.379 . S
C184 N192 1.356 . S
C185 C184 1.363 . S
C185 C191 1.363 . S
C186 C187 1.363 . S
C186 C191 1.379 . S
C186 N193 1.356 . S
C187 C186 1.363 . S
C187 C190 1.363 . S
N188 C190 1.356 . S
N188 H200 0.984 . S
N188 H201 0.985 . S
N189 C191 1.356 . S
N189 H194 0.984 . S
N189 H195 0.985 . S
C190 C184 1.379 . S
C190 C187 1.363 . S
C190 N188 1.356 . S
C191 C185 1.363 . S
C191 C186 1.379 . S
C191 N189 1.356 . S
N192 C184 1.356 . S
N192 H198 0.984 . S
N192 H199 0.984 . S
N193 C186 1.356 . S
N193 H196 0.984 . S
N193 H197 0.985 . S
H194 N189 0.984 . S
H195 N189 0.985 . S
H196 N193 0.984 . S
H197 N193 0.985 . S
H198 N192 0.984 . S
H199 N192 0.984 . S
H200 N188 0.984 . S
H201 N188 0.985 . S
C202 C203 1.363 . S
C202 C208 1.379 . S
C202 N210 1.356 . S
C203 C202 1.363 . S
C203 C209 1.363 . S
C204 C205 1.363 . S
C204 C209 1.379 . S
C204 N211 1.356 . S
C205 C204 1.363 . S
C205 C208 1.363 . S
N206 C208 1.356 . S
N206 H218 0.984 . S
N206 H219 0.985 . S
N207 C209 1.356 . S
N207 H212 0.984 . S
N207 H213 0.985 . S
C208 C202 1.379 . S
C208 C205 1.363 . S
C208 N206 1.356 . S
C209 C203 1.363 . S
C209 C204 1.379 . S
C209 N207 1.356 . S
N210 C202 1.356 . S
N210 H216 0.984 . S
N210 H217 0.984 . S
N211 C204 1.356 . S
N211 H214 0.984 . S
N211 H215 0.985 . S
H212 N207 0.984 . S
H213 N207 0.985 . S
H214 N211 0.984 . S
H215 N211 0.985 . S
H216 N210 0.984 . S
H217 N210 0.984 . S
H218 N206 0.984 . S
H219 N206 0.985 . S
C220 C221 1.363 . S
C220 C226 1.379 . S
C220 N228 1.356 . S
C221 C220 1.363 . S
C221 C227 1.363 . S
C222 C223 1.363 . S
C222 C227 1.379 . S
C222 N229 1.356 . S
C223 C222 1.363 . S
C223 C226 1.363 . S
N224 C226 1.356 . S
N224 H236 0.984 . S
N224 H237 0.985 . S
N225 C227 1.356 . S
N225 H230 0.984 . S
N225 H231 0.985 . S
C226 C220 1.379 . S
C226 C223 1.363 . S
C226 N224 1.356 . S
C227 C221 1.363 . S
C227 C222 1.379 . S
C227 N225 1.356 . S
N228 C220 1.356 . S
N228 H234 0.984 . S
N228 H235 0.984 . S
N229 C222 1.356 . S
N229 H232 0.984 . S
N229 H233 0.985 . S
H230 N225 0.984 . S
H231 N225 0.985 . S
H232 N229 0.984 . S
H233 N229 0.985 . S
H234 N228 0.984 . S
H235 N228 0.984 . S
H236 N224 0.984 . S
H237 N224 0.985 . S
C238 C239 1.363 . S
C238 C244 1.379 . S
C238 N246 1.356 . S
C239 C238 1.363 . S
C239 C245 1.363 1_545 S
C240 C241 1.363 . S
C240 C245 1.379 . S
C240 N247 1.356 1_455 S
C241 C240 1.363 . S
C241 C244 1.363 1_565 S
N242 C244 1.356 . S
N242 H254 0.984 . S
N242 H255 0.985 . S
N243 C245 1.356 1_655 S
N243 H248 0.984 . S
N243 H249 0.985 . S
C244 C238 1.379 . S
C244 C241 1.363 1_545 S
C244 N242 1.356 . S
C245 C239 1.363 1_565 S
C245 C240 1.379 . S
C245 N243 1.356 1_455 S
N246 C238 1.356 . S
N246 H252 0.984 . S
N246 H253 0.984 . S
N247 C240 1.356 1_655 S
N247 H250 0.984 . S
N247 H251 0.985 . S
H248 N243 0.984 . S
H249 N243 0.985 . S
H250 N247 0.984 . S
H251 N247 0.985 . S
H252 N246 0.984 . S
H253 N246 0.984 . S
H254 N242 0.984 . S
H255 N242 0.985 . S
C256 C257 1.363 . S
C256 C262 1.378 1_455 S
C256 N264 1.356 1_455 S
C257 C256 1.363 . S
C257 C263 1.363 . S
C258 C259 1.363 . S
C258 C263 1.379 . S
C258 N265 1.356 . S
C259 C258 1.363 . S
C259 C262 1.361 1_455 S
N260 C262 1.359 . S
N260 H272 0.984 . S
N260 H273 0.985 . S
N261 C263 1.356 1_565 S
N261 H266 0.984 . S
N261 H267 0.985 . S
C262 C256 1.378 1_655 S
C262 C259 1.361 1_655 S
C262 N260 1.359 . S
C263 C257 1.363 . S
C263 C258 1.379 . S
C263 N261 1.356 1_545 S
N264 C256 1.356 1_655 S
N264 H270 0.984 . S
N264 H271 0.984 1_655 S
N265 C258 1.356 . S
N265 H268 0.984 . S
N265 H269 0.985 1_545 S
H266 N261 0.984 . S
H267 N261 0.985 . S
H268 N265 0.984 . S
H269 N265 0.985 1_565 S
H270 N264 0.984 . S
H271 N264 0.984 1_455 S
H272 N260 0.984 . S
H273 N260 0.985 . S
C274 C275 1.363 . S
C274 C280 1.379 . S
C274 N282 1.356 . S
C275 C274 1.363 . S
C275 C281 1.363 . S
C276 C277 1.363 . S
C276 C281 1.379 . S
C276 N283 1.356 . S
C277 C276 1.363 . S
C277 C280 1.363 . S
N278 C280 1.356 . S
N278 H290 0.984 . S
N278 H291 0.985 . S
N279 C281 1.356 . S
N279 H284 0.984 . S
N279 H285 0.985 . S
C280 C274 1.379 . S
C280 C277 1.363 . S
C280 N278 1.356 . S
C281 C275 1.363 . S
C281 C276 1.379 . S
C281 N279 1.356 . S
N282 C274 1.356 . S
N282 H288 0.984 . S
N282 H289 0.984 . S
N283 C276 1.356 . S
N283 H286 0.984 . S
N283 H287 0.985 . S
H284 N279 0.984 . S
H285 N279 0.985 . S
H286 N283 0.984 . S
H287 N283 0.985 . S
H288 N282 0.984 . S
H289 N282 0.984 . S
H290 N278 0.984 . S
H291 N278 0.985 . S
C292 C293 1.363 . S
C292 C298 1.379 . S
C292 N300 1.356 . S
C293 C292 1.363 . S
C293 C299 1.363 . S
C294 C295 1.363 . S
C294 C299 1.379 . S
C294 N301 1.356 . S
C295 C294 1.363 . S
C295 C298 1.363 . S
N296 C298 1.356 . S
N296 H308 0.984 . S
N296 H309 0.985 . S
N297 C299 1.356 . S
N297 H302 0.984 . S
N297 H303 0.985 . S
C298 C292 1.379 . S
C298 C295 1.363 . S
C298 N296 1.356 . S
C299 C293 1.363 . S
C299 C294 1.379 . S
C299 N297 1.356 . S
N300 C292 1.356 . S
N300 H306 0.984 . S
N300 H307 0.984 . S
N301 C294 1.356 . S
N301 H304 0.984 . S
N301 H305 0.985 . S
H302 N297 0.984 . S
H303 N297 0.985 . S
H304 N301 0.984 . S
H305 N301 0.985 . S
H306 N300 0.984 . S
H307 N300 0.984 . S
H308 N296 0.984 . S
H309 N296 0.985 . S
C97 C85 1.363 . S
C95 C15 1.343 . S
C113 C13 1.509 . S
C115 C72 1.387 1_554 S
C131 C18 1.300 . S
C133 C89 1.534 . S
C149 C17 1.422 . S
C151 C76 1.490 . S
C167 C36 1.343 . S
C169 C59 1.363 . S
C185 C34 1.509 . S
C187 C46 1.387 . S
C205 C63 1.534 . S
C203 C39 1.300 . S
C223 C50 1.490 . S
C221 C38 1.422 . S
C239 C14 1.544 . S
C241 C51 1.609 . S
C257 C16 1.426 . S
C259 C64 1.481 . S
C277 C77 1.609 . S
C275 C35 1.544 . S
C293 C37 1.427 . S
C295 C90 1.481 . S
