# Generated by pormake.
# Topology pyr, (3,6)-cn, num edge types: 1
# Building blocks:
#     Node 0, Type 0, BuildingBlock: ESEHIV_clean_linker_0, # of connection points: 3
#     Node 1, Type 0, BuildingBlock: ESEHIV_clean_linker_0, # of connection points: 3
#     Node 2, Type 0, BuildingBlock: ESEHIV_clean_linker_0, # of connection points: 3
#     Node 3, Type 0, BuildingBlock: ESEHIV_clean_linker_0, # of connection points: 3
#     Node 4, Type 0, BuildingBlock: ESEHIV_clean_linker_0, # of connection points: 3
#     Node 5, Type 0, BuildingBlock: ESEHIV_clean_linker_0, # of connection points: 3
#     Node 6, Type 0, BuildingBlock: ESEHIV_clean_linker_0, # of connection points: 3
#     Node 7, Type 0, BuildingBlock: ESEHIV_clean_linker_0, # of connection points: 3
#     Node 8, Type 1, BuildingBlock: BETDEL_clean_sbu_0, # of connection points: 6
#     Node 9, Type 1, BuildingBlock: BETDEL_clean_sbu_0, # of connection points: 6
#     Node 10, Type 1, BuildingBlock: BETDEL_clean_sbu_0, # of connection points: 6
#     Node 11, Type 1, BuildingBlock: BETDEL_clean_sbu_0, # of connection points: 6
#     Edge 12, Type (0, 1), BuildingBlock: XIVTED_clean_linker_0, # of connection points: 2
#     Edge 13, Type (0, 1), BuildingBlock: XIVTED_clean_linker_0, # of connection points: 2
#     Edge 14, Type (0, 1), BuildingBlock: XIVTED_clean_linker_0, # of connection points: 2
#     Edge 15, Type (0, 1), BuildingBlock: XIVTED_clean_linker_0, # of connection points: 2
#     Edge 16, Type (0, 1), BuildingBlock: XIVTED_clean_linker_0, # of connection points: 2
#     Edge 17, Type (0, 1), BuildingBlock: XIVTED_clean_linker_0, # of connection points: 2
#     Edge 18, Type (0, 1), BuildingBlock: XIVTED_clean_linker_0, # of connection points: 2
#     Edge 19, Type (0, 1), BuildingBlock: XIVTED_clean_linker_0, # of connection points: 2
#     Edge 20, Type (0, 1), BuildingBlock: XIVTED_clean_linker_0, # of connection points: 2
#     Edge 21, Type (0, 1), BuildingBlock: XIVTED_clean_linker_0, # of connection points: 2
#     Edge 22, Type (0, 1), BuildingBlock: XIVTED_clean_linker_0, # of connection points: 2
#     Edge 23, Type (0, 1), BuildingBlock: XIVTED_clean_linker_0, # of connection points: 2
#     Edge 24, Type (0, 1), BuildingBlock: XIVTED_clean_linker_0, # of connection points: 2
#     Edge 25, Type (0, 1), BuildingBlock: XIVTED_clean_linker_0, # of connection points: 2
#     Edge 26, Type (0, 1), BuildingBlock: XIVTED_clean_linker_0, # of connection points: 2
#     Edge 27, Type (0, 1), BuildingBlock: XIVTED_clean_linker_0, # of connection points: 2
#     Edge 28, Type (0, 1), BuildingBlock: XIVTED_clean_linker_0, # of connection points: 2
#     Edge 29, Type (0, 1), BuildingBlock: XIVTED_clean_linker_0, # of connection points: 2
#     Edge 30, Type (0, 1), BuildingBlock: XIVTED_clean_linker_0, # of connection points: 2
#     Edge 31, Type (0, 1), BuildingBlock: XIVTED_clean_linker_0, # of connection points: 2
#     Edge 32, Type (0, 1), BuildingBlock: XIVTED_clean_linker_0, # of connection points: 2
#     Edge 33, Type (0, 1), BuildingBlock: XIVTED_clean_linker_0, # of connection points: 2
#     Edge 34, Type (0, 1), BuildingBlock: XIVTED_clean_linker_0, # of connection points: 2
#     Edge 35, Type (0, 1), BuildingBlock: XIVTED_clean_linker_0, # of connection points: 2
# Relax obj value: 0.032
# Max RMSD: 0.092
# Mean RMSD: 0.039
data_MOF--net-pyr--node1-BETDEL_clean_sbu_0--node2-ESEHIV_clean_linker_0--edge1-XIVTED_clean_linker_0
_symmetry_space_group_name_H-M    P1
_symmetry_Int_Tables_number       1
_symmetry_cell_setting            triclinic
loop_
_symmetry_equiv_pos_as_xyz
'x, y, z'
_cell_length_a     34.958354
_cell_length_b     36.178483
_cell_length_c     33.522503
_cell_angle_alpha  91.337319
_cell_angle_beta   88.705034
_cell_angle_gamma 95.660722
loop_
_atom_site_label
_atom_site_type_symbol
_atom_site_fract_x
_atom_site_fract_y
_atom_site_fract_z
_atom_type_partial_charge
H0 H 0.17165 0.24621 0.20905 0.0
H1 H 0.26818 0.18839 0.23886 0.0
H2 H 0.26737 0.24347 0.12686 0.0
C3 C 0.20058 0.23914 0.20252 0.0
C4 C 0.21859 0.24962 0.16609 0.0
C5 C 0.21785 0.21626 0.22841 0.0
C6 C 0.25485 0.20653 0.21921 0.0
C7 C 0.27244 0.21538 0.18225 0.0
C8 C 0.25484 0.23806 0.15628 0.0
H9 H 0.21487 0.86205 0.71487 0.0
H10 H 0.3078 0.79335 0.71879 0.0
H11 H 0.24436 0.79746 0.61097 0.0
C12 C 0.23276 0.84286 0.70012 0.0
C13 C 0.22637 0.83234 0.65997 0.0
C14 C 0.26249 0.82965 0.72136 0.0
C15 C 0.28453 0.80358 0.70281 0.0
C16 C 0.27769 0.79123 0.66336 0.0
C17 C 0.24852 0.80571 0.64196 0.0
H18 H 0.6897 0.30097 0.88812 0.0
H19 H 0.68818 0.39465 0.81165 0.0
H20 H 0.59734 0.30569 0.80605 0.0
C21 C 0.67595 0.31522 0.86518 0.0
C22 C 0.6414 0.29874 0.84882 0.0
C23 C 0.69302 0.34994 0.85233 0.0
C24 C 0.67494 0.36832 0.82245 0.0
C25 C 0.64072 0.35229 0.80512 0.0
C26 C 0.62421 0.31756 0.81858 0.0
H27 H 0.80301 0.69366 0.39098 0.0
H28 H 0.89134 0.69031 0.30011 0.0
H29 H 0.8037 0.59833 0.3123 0.0
C30 C 0.81621 0.67906 0.36654 0.0
C31 C 0.79966 0.64369 0.35452 0.0
C32 C 0.84925 0.69617 0.3473 0.0
C33 C 0.86536 0.67771 0.31447 0.0
C34 C 0.8493 0.64217 0.30156 0.0
C35 C 0.81627 0.6256 0.32177 0.0
H36 H 0.73469 0.82963 0.79555 0.0
H37 H 0.82545 0.75926 0.80873 0.0
H38 H 0.73718 0.76288 0.89942 0.0
C39 C 0.74686 0.80773 0.81108 0.0
C40 C 0.73055 0.79589 0.84779 0.0
C41 C 0.78154 0.79518 0.79714 0.0
C42 C 0.79855 0.769 0.8192 0.0
C43 C 0.78321 0.75793 0.85649 0.0
C44 C 0.74852 0.77045 0.87004 0.0
H45 H 0.70595 0.24502 0.27305 0.0
H46 H 0.79325 0.17131 0.28736 0.0
H47 H 0.77073 0.25044 0.38082 0.0
C48 C 0.72873 0.23563 0.29044 0.0
C49 C 0.7361 0.25152 0.32846 0.0
C50 C 0.74911 0.20664 0.27542 0.0
C51 C 0.77804 0.19421 0.29852 0.0
C52 C 0.78617 0.20969 0.33663 0.0
C53 C 0.76522 0.23868 0.35125 0.0
H54 H 0.31715 0.72116 0.1227 0.0
H55 H 0.31831 0.62822 0.20009 0.0
H56 H 0.40723 0.71869 0.20811 0.0
C57 C 0.33061 0.70736 0.14618 0.0
C58 C 0.36427 0.72469 0.16374 0.0
C59 C 0.31403 0.67232 0.15865 0.0
C60 C 0.33146 0.65464 0.18942 0.0
C61 C 0.36477 0.67133 0.20779 0.0
C62 C 0.38098 0.70629 0.1947 0.0
H63 H 0.10274 0.31961 0.71294 0.0
H64 H 0.19198 0.31448 0.62293 0.0
H65 H 0.19749 0.40462 0.70922 0.0
C66 C 0.12926 0.33111 0.69874 0.0
C67 C 0.14752 0.36483 0.71384 0.0
C68 C 0.14554 0.31183 0.66656 0.0
C69 C 0.18029 0.32765 0.64918 0.0
C70 C 0.19982 0.36075 0.66447 0.0
C71 C 0.18307 0.3791 0.69701 0.0
Dy72 Dy 0.00902 0.01852 0.46679 0.0
C73 C 0.92872 0.96133 0.60276 0.0
C74 C 0.04037 0.05708 0.40364 0.0
Dy75 Dy 0.96615 0.99816 0.54156 0.0
O76 O 0.04745 0.02374 0.41247 0.0
O77 O 0.01559 0.06911 0.42886 0.0
O78 O 0.04325 0.96971 0.47032 0.0
O79 O 0.02617 0.99643 0.52323 0.0
C80 C 0.04197 0.96895 0.50899 0.0
C81 C 0.93525 0.04907 0.49968 0.0
O82 O 0.00243 0.04617 0.56868 0.0
O83 O 0.03009 0.06602 0.50831 0.0
O84 O 0.91232 0.97622 0.57374 0.0
O85 O 0.96588 0.96724 0.59904 0.0
O86 O 0.93467 0.04874 0.53839 0.0
O87 O 0.94951 0.0208 0.48524 0.0
O88 O 0.96791 0.97339 0.44104 0.0
O89 O 0.95596 0.94679 0.50238 0.0
C90 C 0.02444 0.07062 0.54735 0.0
C91 C 0.95442 0.94485 0.46293 0.0
Dy92 Dy 0.53748 0.02772 0.03331 0.0
C93 C 0.40497 0.95413 0.94367 0.0
C94 C 0.5986 0.06916 0.0656 0.0
Dy95 Dy 0.46588 0.99582 0.97598 0.0
O96 O 0.59674 0.03351 0.05871 0.0
O97 O 0.56713 0.0821 0.05477 0.0
O98 O 0.52298 0.98591 0.08277 0.0
O99 O 0.48976 0.98531 0.033 0.0
C100 C 0.49337 0.96878 0.06501 0.0
C101 C 0.50954 0.05487 0.94434 0.0
O102 O 0.43802 0.02791 0.0246 0.0
O103 O 0.49191 0.06448 0.0492 0.0
O104 O 0.40636 0.98965 0.95133 0.0
O105 O 0.43677 0.94143 0.95386 0.0
O106 O 0.4797 0.03789 0.92684 0.0
O107 O 0.51352 0.03828 0.97625 0.0
O108 O 0.56571 0.99544 0.98541 0.0
O109 O 0.51206 0.96002 0.95863 0.0
C110 C 0.45426 0.05658 0.04581 0.0
C111 C 0.54968 0.96744 0.96316 0.0
Dy112 Dy 0.51168 0.47547 0.47946 0.0
C113 C 0.44043 0.59154 0.56996 0.0
C114 C 0.56122 0.43491 0.43786 0.0
Dy115 Dy 0.48539 0.54171 0.53505 0.0
O116 O 0.52447 0.4337 0.43145 0.0
O117 O 0.5708 0.45862 0.46651 0.0
O118 O 0.46153 0.43268 0.49371 0.0
O119 O 0.46524 0.48502 0.52027 0.0
C120 C 0.44508 0.45422 0.51909 0.0
C121 C 0.55696 0.55086 0.50307 0.0
O122 O 0.50297 0.50354 0.58181 0.0
O123 O 0.53819 0.46713 0.53896 0.0
O124 O 0.4778 0.59439 0.57052 0.0
O125 O 0.42781 0.56112 0.55127 0.0
O126 O 0.5474 0.56606 0.53701 0.0
O127 O 0.52735 0.53481 0.48717 0.0
O128 O 0.4859 0.509 0.4329 0.0
O129 O 0.46276 0.55482 0.47488 0.0
C130 C 0.52734 0.47785 0.57541 0.0
C131 C 0.46694 0.53892 0.43897 0.0
Dy132 Dy 0.01712 0.46602 0.02271 0.0
C133 C 0.95263 0.60734 0.99629 0.0
C134 C 0.05639 0.40523 0.02386 0.0
Dy135 Dy 0.99124 0.5463 0.99499 0.0
O136 O 0.02019 0.40543 0.0339 0.0
O137 O 0.07072 0.43805 0.0132 0.0
O138 O 0.99085 0.46957 0.08576 0.0
O139 O 0.99041 0.51237 0.04673 0.0
C140 C 0.98016 0.50274 0.08132 0.0
C141 C 0.02592 0.50875 0.93547 0.0
O142 O 0.04428 0.56402 0.02992 0.0
O143 O 0.06852 0.5063 0.03725 0.0
O144 O 0.93884 0.57494 0.00886 0.0
O145 O 0.9879 0.60654 0.98307 0.0
O146 O 0.01245 0.54061 0.93019 0.0
O147 O 0.01958 0.50066 0.97134 0.0
O148 O 0.96508 0.44888 0.98538 0.0
O149 O 0.93964 0.50634 0.98183 0.0
C150 C 0.07165 0.54327 0.04058 0.0
C151 C 0.93713 0.46964 0.97623 0.0
H152 H 0.1644 0.24139 0.28169 0.0
H153 H 0.09312 0.03513 0.35007 0.0
H154 H 0.21506 0.14237 0.24198 0.0
H155 H 0.03934 0.1314 0.39238 0.0
H156 H 0.13712 0.07503 0.3088 0.0
H157 H 0.11841 0.20272 0.32322 0.0
C158 C 0.16622 0.21169 0.28218 0.0
C159 C 0.19389 0.19518 0.2587 0.0
C160 C 0.1156 0.08754 0.32689 0.0
C161 C 0.14135 0.15098 0.30531 0.0
C162 C 0.09034 0.0647 0.35021 0.0
C163 C 0.06283 0.08016 0.37456 0.0
C164 C 0.1134 0.12613 0.32815 0.0
C165 C 0.0603 0.11856 0.37383 0.0
C166 C 0.13993 0.18967 0.30567 0.0
C167 C 0.19495 0.15656 0.26028 0.0
N168 N 0.08556 0.14042 0.35113 0.0
N169 N 0.16899 0.13585 0.28299 0.0
H170 H 0.26164 0.90195 0.74735 0.0
H171 H 0.39743 0.87965 0.92742 0.0
H172 H 0.28819 0.79458 0.7864 0.0
H173 H 0.34432 0.98007 0.90735 0.0
H174 H 0.35361 0.84651 0.87984 0.0
H175 H 0.28691 0.92977 0.80915 0.0
C176 C 0.27199 0.88398 0.76923 0.0
C177 C 0.27305 0.84578 0.7613 0.0
C178 C 0.35105 0.87564 0.88636 0.0
C179 C 0.30326 0.87793 0.83195 0.0
C180 C 0.37606 0.89453 0.91345 0.0
C181 C 0.3747 0.93267 0.92076 0.0
C182 C 0.325 0.89526 0.86608 0.0
C183 C 0.34644 0.95069 0.9022 0.0
C184 C 0.2867 0.90002 0.80454 0.0
C185 C 0.2876 0.82425 0.79072 0.0
N186 N 0.32308 0.93195 0.87517 0.0
N187 N 0.30267 0.84071 0.82448 0.0
H188 H 0.62689 0.42578 0.80153 0.0
H189 H 0.55902 0.4117 0.57535 0.0
H190 H 0.61348 0.3226 0.73398 0.0
H191 H 0.53147 0.50155 0.65442 0.0
H192 H 0.58527 0.38144 0.63152 0.0
H193 H 0.59815 0.45667 0.74664 0.0
C194 C 0.61796 0.40964 0.77515 0.0
C195 C 0.62261 0.37148 0.77242 0.0
C196 C 0.57343 0.40773 0.63667 0.0
C197 C 0.58995 0.40677 0.70935 0.0
C198 C 0.55854 0.4252 0.60452 0.0
C199 C 0.54297 0.45937 0.61 0.0
C200 C 0.57347 0.42467 0.67478 0.0
C201 C 0.54303 0.47521 0.64873 0.0
C202 C 0.60137 0.42725 0.74394 0.0
C203 C 0.6102 0.35194 0.73759 0.0
N204 N 0.5583 0.4579 0.67955 0.0
N205 N 0.59479 0.36981 0.70741 0.0
H206 H 0.85973 0.56788 0.29623 0.0
H207 H 0.96734 0.5767 0.08168 0.0
H208 H 0.88181 0.66932 0.23077 0.0
H209 H 0.94727 0.47771 0.15114 0.0
H210 H 0.93453 0.61113 0.13417 0.0
H211 H 0.88995 0.53452 0.24198 0.0
C212 C 0.87061 0.58318 0.2703 0.0
C213 C 0.86787 0.62159 0.26821 0.0
C214 C 0.93713 0.58184 0.13783 0.0
C215 C 0.90334 0.58329 0.20565 0.0
C216 C 0.95558 0.56213 0.10771 0.0
C217 C 0.95959 0.52419 0.11181 0.0
C218 C 0.92265 0.56344 0.17237 0.0
C219 C 0.9447 0.5069 0.14666 0.0
C220 C 0.88818 0.56407 0.23933 0.0
C221 C 0.88346 0.63983 0.234 0.0
N222 N 0.92694 0.52657 0.17545 0.0
N223 N 0.90042 0.62056 0.20412 0.0
H224 H 0.27281 0.14083 0.1852 0.0
H225 H 0.4725 0.12828 0.07118 0.0
H226 H 0.3401 0.23916 0.14282 0.0
H227 H 0.37932 0.04051 0.06903 0.0
H228 H 0.43037 0.16842 0.10724 0.0
H229 H 0.31889 0.10266 0.15389 0.0
C230 C 0.29781 0.15445 0.16998 0.0
C231 C 0.30302 0.19324 0.16695 0.0
C232 C 0.4193 0.14039 0.09876 0.0
C233 C 0.35529 0.14954 0.13024 0.0
C234 C 0.44324 0.11743 0.07841 0.0
C235 C 0.42926 0.08104 0.06719 0.0
C236 C 0.38152 0.12651 0.10847 0.0
C237 C 0.39114 0.06843 0.07697 0.0
C238 C 0.32379 0.13259 0.1517 0.0
C239 C 0.33529 0.20933 0.14587 0.0
N240 N 0.36861 0.09112 0.09732 0.0
N241 N 0.36043 0.18731 0.12822 0.0
H242 H 0.21172 0.90528 0.66597 0.0
H243 H 0.07163 0.90517 0.48441 0.0
H244 H 0.17752 0.80356 0.60042 0.0
H245 H 0.06589 0.98024 0.58575 0.0
H246 H 0.11518 0.86969 0.52124 0.0
H247 H 0.16396 0.9359 0.63113 0.0
C248 C 0.19388 0.8891 0.64462 0.0
C249 C 0.19824 0.85133 0.63694 0.0
C250 C 0.10409 0.89373 0.53545 0.0
C251 C 0.14408 0.88707 0.59575 0.0
C252 C 0.07939 0.914 0.51451 0.0
C253 C 0.06543 0.94574 0.53208 0.0
C254 C 0.11542 0.90582 0.57384 0.0
C255 C 0.0761 0.95597 0.57114 0.0
C256 C 0.1667 0.9068 0.62457 0.0
C257 C 0.17529 0.83263 0.60743 0.0
N258 N 0.10088 0.93632 0.59054 0.0
N259 N 0.14921 0.85073 0.58779 0.0
H260 H 0.75656 0.31542 0.87265 0.0
H261 H 0.87365 0.50261 0.95446 0.0
H262 H 0.71355 0.42322 0.87287 0.0
H263 H 0.91808 0.39546 0.95652 0.0
H264 H 0.81522 0.47355 0.92437 0.0
H265 H 0.81571 0.34365 0.9031 0.0
C266 C 0.75939 0.345 0.87925 0.0
C267 C 0.72974 0.36688 0.87017 0.0
C268 C 0.83767 0.4563 0.93137 0.0
C269 C 0.79792 0.39953 0.9048 0.0
C270 C 0.87125 0.47291 0.94866 0.0
C271 C 0.90116 0.45155 0.9582 0.0
C272 C 0.83357 0.41787 0.92335 0.0
C273 C 0.89593 0.41313 0.94979 0.0
C274 C 0.79335 0.36113 0.89647 0.0
C275 C 0.73561 0.4052 0.87882 0.0
N276 N 0.86286 0.39756 0.93287 0.0
N277 N 0.76885 0.4202 0.89565 0.0
H278 H 0.7863 0.64393 0.43552 0.0
H279 H 0.57625 0.53289 0.42579 0.0
H280 H 0.73511 0.60233 0.32531 0.0
H281 H 0.62239 0.58918 0.53154 0.0
H282 H 0.6365 0.55203 0.38964 0.0
H283 H 0.72892 0.61842 0.47193 0.0
C284 C 0.76294 0.62953 0.41886 0.0
C285 C 0.76553 0.62582 0.37705 0.0
C286 C 0.63353 0.56005 0.42079 0.0
C287 C 0.69947 0.59586 0.41902 0.0
C288 C 0.59919 0.54902 0.44149 0.0
C289 C 0.59426 0.55962 0.48171 0.0
C290 C 0.66326 0.58173 0.44048 0.0
C291 C 0.62491 0.58052 0.50054 0.0
C292 C 0.73018 0.61476 0.4398 0.0
C293 C 0.73459 0.60586 0.35746 0.0
N294 N 0.65799 0.59096 0.47977 0.0
N295 N 0.70281 0.59183 0.37855 0.0
H296 H 0.24382 0.30793 0.11844 0.0
H297 H 0.0327 0.33672 0.05276 0.0
H298 H 0.14441 0.23116 0.14442 0.0
H299 H 0.13352 0.40534 0.01259 0.0
H300 H 0.07417 0.29249 0.07824 0.0
H301 H 0.20543 0.33955 0.07213 0.0
C302 C 0.21401 0.29764 0.11415 0.0
C303 C 0.1969 0.26768 0.13605 0.0
C304 C 0.08726 0.31689 0.06323 0.0
C305 C 0.15295 0.30336 0.08337 0.0
C306 C 0.06357 0.34202 0.04861 0.0
C307 C 0.07989 0.37486 0.03132 0.0
C308 C 0.12741 0.32511 0.06092 0.0
C309 C 0.11994 0.38047 0.02632 0.0
C310 C 0.19212 0.31557 0.08771 0.0
C311 C 0.15832 0.25505 0.12914 0.0
N312 N 0.14245 0.35614 0.04175 0.0
N313 N 0.13752 0.27323 0.10376 0.0
H314 H 0.63876 0.2718 0.92547 0.0
H315 H 0.50389 0.0867 0.87251 0.0
H316 H 0.60253 0.24134 0.80583 0.0
H317 H 0.56518 0.10141 0.98263 0.0
H318 H 0.53704 0.14501 0.849 0.0
H319 H 0.60958 0.21161 0.94835 0.0
C320 C 0.62501 0.25248 0.90383 0.0
C321 C 0.62335 0.26202 0.86344 0.0
C322 C 0.54345 0.13551 0.87828 0.0
C323 C 0.58899 0.19295 0.88996 0.0
C324 C 0.5245 0.10218 0.89176 0.0
C325 C 0.53169 0.08921 0.92974 0.0
C326 C 0.56959 0.1565 0.9031 0.0
C327 C 0.5587 0.11044 0.95331 0.0
C328 C 0.60815 0.21809 0.91707 0.0
C329 C 0.60417 0.2358 0.83729 0.0
N330 N 0.57647 0.14319 0.93977 0.0
N331 N 0.58771 0.20269 0.851 0.0
H332 H 0.86087 0.71714 0.42522 0.0
H333 H 0.94884 0.9263 0.38247 0.0
H334 H 0.87901 0.75827 0.30584 0.0
H335 H 0.92468 0.88143 0.49958 0.0
H336 H 0.92484 0.8658 0.35285 0.0
H337 H 0.8862 0.77746 0.4519 0.0
C338 C 0.87007 0.73896 0.40452 0.0
C339 C 0.86727 0.7326 0.36315 0.0
C340 C 0.92481 0.86933 0.38501 0.0
C341 C 0.89692 0.80237 0.39377 0.0
C342 C 0.93841 0.90389 0.40196 0.0
C343 C 0.93883 0.90915 0.44367 0.0
C344 C 0.91158 0.83981 0.40994 0.0
C345 C 0.92502 0.87895 0.46734 0.0
C346 C 0.88473 0.7735 0.41983 0.0
C347 C 0.88065 0.76185 0.33792 0.0
N348 N 0.9121 0.84581 0.45019 0.0
N349 N 0.8947 0.79553 0.35361 0.0
H350 H 0.35598 0.79333 0.66409 0.0
H351 H 0.36246 0.59 0.56599 0.0
H352 H 0.25538 0.72709 0.62108 0.0
H353 H 0.46293 0.65893 0.60504 0.0
H354 H 0.32267 0.6397 0.5855 0.0
H355 H 0.39564 0.74496 0.64093 0.0
C356 C 0.34227 0.76859 0.64956 0.0
C357 C 0.30226 0.76401 0.64486 0.0
C358 C 0.35339 0.64398 0.58987 0.0
C359 C 0.34756 0.70833 0.6183 0.0
C360 C 0.37609 0.61556 0.57892 0.0
C361 C 0.416 0.6204 0.58407 0.0
C362 C 0.37075 0.67749 0.60611 0.0
C363 C 0.43224 0.65405 0.60074 0.0
C364 C 0.36494 0.74097 0.63632 0.0
C365 C 0.28611 0.73172 0.62522 0.0
N366 N 0.40955 0.68132 0.61115 0.0
N367 N 0.30878 0.70493 0.61295 0.0
H368 H 0.75511 0.81885 0.72637 0.0
H369 H 0.95862 0.92473 0.66318 0.0
H370 H 0.85833 0.81773 0.79464 0.0
H371 H 0.85183 0.94214 0.60773 0.0
H372 H 0.92328 0.88064 0.70825 0.0
H373 H 0.79147 0.85873 0.67787 0.0
C374 C 0.78545 0.82661 0.73089 0.0
C375 C 0.80368 0.8148 0.76449 0.0
C376 C 0.90758 0.89421 0.68629 0.0
C377 C 0.84528 0.86038 0.70951 0.0
C378 C 0.9277 0.91943 0.66078 0.0
C379 C 0.90796 0.93706 0.63204 0.0
C380 C 0.86757 0.88657 0.68271 0.0
C381 C 0.868 0.92915 0.62974 0.0
C382 C 0.80615 0.84938 0.70332 0.0
C383 C 0.84315 0.8255 0.76882 0.0
N384 N 0.84906 0.90437 0.65474 0.0
N385 N 0.86255 0.84781 0.74176 0.0
H386 H 0.74388 0.1317 0.25887 0.0
H387 H 0.60918 0.14428 0.07605 0.0
H388 H 0.72633 0.23629 0.20593 0.0
H389 H 0.65735 0.04331 0.10535 0.0
H390 H 0.65465 0.17913 0.12073 0.0
H391 H 0.71601 0.09918 0.20052 0.0
C392 C 0.73499 0.14796 0.23464 0.0
C393 C 0.7372 0.18691 0.23762 0.0
C394 C 0.65574 0.14945 0.11691 0.0
C395 C 0.70406 0.14955 0.17105 0.0
C396 C 0.62976 0.12958 0.0915 0.0
C397 C 0.62937 0.09092 0.08751 0.0
C398 C 0.68095 0.13033 0.13892 0.0
C399 C 0.65666 0.07312 0.10789 0.0
C400 C 0.7188 0.12927 0.20135 0.0
C401 C 0.72441 0.20624 0.2054 0.0
N402 N 0.68099 0.09291 0.13329 0.0
N403 N 0.70785 0.18734 0.17373 0.0
H404 H 0.39081 0.70144 0.27933 0.0
H405 H 0.45882 0.51236 0.36141 0.0
H406 H 0.37771 0.59777 0.21259 0.0
H407 H 0.4411 0.60798 0.43651 0.0
H408 H 0.43522 0.54445 0.30453 0.0
H409 H 0.41615 0.66916 0.33494 0.0
C410 C 0.39357 0.67195 0.27622 0.0
C411 C 0.382 0.65233 0.24119 0.0
C412 C 0.43646 0.55832 0.33352 0.0
C413 C 0.41094 0.61504 0.30497 0.0
C414 C 0.44998 0.54002 0.36603 0.0
C415 C 0.45192 0.55733 0.40401 0.0
C416 C 0.42525 0.59443 0.33879 0.0
C417 C 0.44001 0.5933 0.40799 0.0
C418 C 0.40778 0.65346 0.30811 0.0
C419 C 0.38589 0.61398 0.23914 0.0
N420 N 0.42742 0.61062 0.37588 0.0
N421 N 0.40008 0.59664 0.27046 0.0
H422 H 0.07466 0.38613 0.71757 0.0
H423 H 0.08201 0.46159 0.94296 0.0
H424 H 0.17828 0.38996 0.78542 0.0
H425 H 0.01039 0.50508 0.85616 0.0
H426 H 0.11165 0.42558 0.88953 0.0
H427 H 0.04458 0.42042 0.77194 0.0
C428 C 0.09099 0.39406 0.74403 0.0
C429 C 0.12904 0.38529 0.74697 0.0
C430 C 0.08931 0.44288 0.88227 0.0
C431 C 0.09464 0.42405 0.80949 0.0
C432 C 0.07211 0.46305 0.9128 0.0
C433 C 0.04343 0.48593 0.90403 0.0
C434 C 0.07715 0.44508 0.84279 0.0
C435 C 0.03241 0.48771 0.86418 0.0
C436 C 0.07389 0.41373 0.77492 0.0
C437 C 0.14897 0.39639 0.78187 0.0
N438 N 0.04901 0.46733 0.83509 0.0
N439 N 0.13146 0.41493 0.81191 0.0
H440 H 0.72959 0.82648 0.9224 0.0
H441 H 0.53296 0.91705 0.90222 0.0
H442 H 0.66327 0.81267 0.81506 0.0
H443 H 0.6239 0.95926 0.98114 0.0
H444 H 0.57471 0.87188 0.87446 0.0
H445 H 0.68379 0.86693 0.95038 0.0
C446 C 0.70486 0.83134 0.90505 0.0
C447 C 0.69995 0.81607 0.86648 0.0
C448 C 0.5854 0.89121 0.89773 0.0
C449 C 0.64808 0.8631 0.89792 0.0
C450 C 0.56171 0.91693 0.91357 0.0
C451 C 0.57506 0.94193 0.944 0.0
C452 C 0.62229 0.89024 0.91297 0.0
C453 C 0.61251 0.94067 0.95757 0.0
C454 C 0.67905 0.85483 0.92082 0.0
C455 C 0.66794 0.82403 0.84491 0.0
N456 N 0.63473 0.91504 0.94212 0.0
N457 N 0.64309 0.84717 0.86095 0.0
H458 H 0.85482 0.18324 0.31427 0.0
H459 H 0.89367 0.10391 0.52831 0.0
H460 H 0.78041 0.19668 0.41714 0.0
H461 H 0.93511 0.05613 0.41842 0.0
H462 H 0.86139 0.14785 0.48979 0.0
H463 H 0.8942 0.14666 0.35435 0.0
C464 C 0.84685 0.17876 0.34532 0.0
C465 C 0.81381 0.19271 0.36212 0.0
C466 C 0.87767 0.12785 0.47414 0.0
C467 C 0.85927 0.15138 0.40822 0.0
C468 C 0.8961 0.10279 0.49604 0.0
C469 C 0.91684 0.07624 0.47643 0.0
C470 C 0.88042 0.12665 0.43233 0.0
C471 C 0.91926 0.07611 0.43463 0.0
C472 C 0.86941 0.15793 0.36813 0.0
C473 C 0.80565 0.1868 0.40284 0.0
N474 N 0.90124 0.10099 0.41389 0.0
N475 N 0.82809 0.16642 0.42442 0.0
H476 H 0.2498 0.70449 0.13591 0.0
H477 H 0.13587 0.51194 0.06382 0.0
H478 H 0.29651 0.59853 0.13864 0.0
H479 H 0.09007 0.61805 0.05591 0.0
H480 H 0.19463 0.54338 0.09151 0.0
H481 H 0.19131 0.6737 0.1064 0.0
C482 C 0.24796 0.67481 0.13007 0.0
C483 C 0.27832 0.65415 0.13992 0.0
C484 C 0.17176 0.55983 0.0837 0.0
C485 C 0.21094 0.61855 0.10648 0.0
C486 C 0.13805 0.54186 0.06786 0.0
C487 C 0.1077 0.56226 0.05742 0.0
C488 C 0.17542 0.59862 0.08933 0.0
C489 C 0.11255 0.60105 0.06343 0.0
C490 C 0.21438 0.65719 0.11342 0.0
C491 C 0.27378 0.61561 0.13215 0.0
N492 N 0.14566 0.6179 0.07899 0.0
N493 N 0.24085 0.59914 0.11599 0.0
H494 H 0.25784 0.32149 0.63444 0.0
H495 H 0.40427 0.49563 0.57261 0.0
H496 H 0.22893 0.43405 0.65282 0.0
H497 H 0.40518 0.38612 0.51949 0.0
H498 H 0.34495 0.47428 0.60993 0.0
H499 H 0.31722 0.34522 0.60059 0.0
C500 C 0.26373 0.35123 0.63123 0.0
C501 C 0.23762 0.37564 0.64609 0.0
C502 C 0.35817 0.45505 0.58998 0.0
C503 C 0.30677 0.40321 0.60782 0.0
C504 C 0.39192 0.46727 0.56861 0.0
C505 C 0.40946 0.4428 0.54251 0.0
C506 C 0.34237 0.4179 0.58574 0.0
C507 C 0.39258 0.40606 0.53907 0.0
C508 C 0.2979 0.36478 0.612 0.0
C509 C 0.248 0.41404 0.64207 0.0
N510 N 0.36022 0.39475 0.56046 0.0
N511 N 0.28169 0.42663 0.62327 0.0
H512 H 0.76058 0.70001 0.90591 0.0
H513 H 0.97486 0.6748 0.9644 0.0
H514 H 0.85913 0.77449 0.87099 0.0
H515 H 0.87605 0.60755 0.01148 0.0
H516 H 0.93208 0.71734 0.93816 0.0
H517 H 0.80127 0.67 0.95136 0.0
C518 C 0.79074 0.70998 0.90787 0.0
C519 C 0.80682 0.739 0.88396 0.0
C520 C 0.91973 0.69364 0.95484 0.0
C521 C 0.85325 0.70535 0.93583 0.0
C522 C 0.94418 0.66952 0.96994 0.0
C523 C 0.92874 0.63744 0.9893 0.0
C524 C 0.87971 0.68513 0.95875 0.0
C525 C 0.88892 0.63184 0.99611 0.0
C526 C 0.81389 0.69306 0.93388 0.0
C527 C 0.8459 0.75131 0.88789 0.0
N528 N 0.8656 0.6551 0.98011 0.0
N529 N 0.86785 0.73421 0.91306 0.0
H530 H 0.40109 0.78248 0.20797 0.0
H531 H 0.43757 0.92295 0.02633 0.0
H532 H 0.36791 0.75242 0.08728 0.0
H533 H 0.4985 0.93626 0.13674 0.0
H534 H 0.40482 0.86402 0.05014 0.0
H535 H 0.43058 0.84218 0.18432 0.0
C536 C 0.4001 0.78816 0.17647 0.0
C537 C 0.38193 0.76185 0.14972 0.0
C538 C 0.4253 0.87991 0.06917 0.0
C539 C 0.41516 0.83115 0.12249 0.0
C540 C 0.44391 0.91357 0.05557 0.0
C541 C 0.47098 0.93442 0.07938 0.0
C542 C 0.43346 0.86727 0.10716 0.0
C543 C 0.47794 0.92103 0.11727 0.0
C544 C 0.4168 0.82251 0.16303 0.0
C545 C 0.38096 0.77171 0.10933 0.0
N546 N 0.45934 0.88845 0.12996 0.0
N547 N 0.39724 0.80544 0.09703 0.0
H548 H 0.06788 0.28622 0.66488 0.0
H549 H 0.09215 0.11012 0.52605 0.0
H550 H 0.18008 0.25262 0.63295 0.0
H551 H 0.99933 0.10887 0.61312 0.0
H552 H 0.12157 0.16785 0.55685 0.0
H553 H 0.03886 0.22638 0.63897 0.0
C554 C 0.08661 0.26647 0.65278 0.0
C555 C 0.12681 0.27518 0.65111 0.0
C556 C 0.09486 0.15482 0.56931 0.0
C557 C 0.09319 0.2068 0.62013 0.0
C558 C 0.078 0.12195 0.55172 0.0
C559 C 0.04332 0.10454 0.56717 0.0
C560 C 0.07644 0.17108 0.60196 0.0
C561 C 0.02626 0.12119 0.6005 0.0
C562 C 0.06984 0.2323 0.63779 0.0
C563 C 0.14904 0.24815 0.6341 0.0
N564 N 0.04274 0.15379 0.61652 0.0
N565 N 0.13196 0.21555 0.61898 0.0
H566 H 0.7576 0.31561 0.37179 0.0
H567 H 0.54382 0.37851 0.38384 0.0
H568 H 0.65812 0.25148 0.32303 0.0
H569 H 0.63837 0.43495 0.44866 0.0
H570 H 0.58705 0.33466 0.35648 0.0
H571 H 0.71583 0.36197 0.39696 0.0
C572 C 0.72703 0.31121 0.36648 0.0
C573 C 0.71146 0.27975 0.3449 0.0
C574 C 0.59844 0.35671 0.37658 0.0
C575 C 0.66362 0.3328 0.37318 0.0
C576 C 0.57379 0.38181 0.39202 0.0
C577 C 0.58759 0.41023 0.41858 0.0
C578 C 0.6372 0.36012 0.38771 0.0
C579 C 0.62662 0.41329 0.42831 0.0
C580 C 0.70324 0.33776 0.38065 0.0
C581 C 0.67162 0.27565 0.33869 0.0
N582 N 0.65009 0.38846 0.41295 0.0
N583 N 0.64919 0.30184 0.35264 0.0
loop_
_geom_bond_atom_site_label_1
_geom_bond_atom_site_label_2
_geom_bond_distance
_geom_bond_site_symmetry_2
_ccdc_geom_bond_type
H0 C3 0.931 . S
H1 C6 0.928 . S
H2 C8 0.930 . S
C3 H0 0.931 . S
C3 C4 1.413 . S
C3 C5 1.360 . S
C4 C3 1.413 . S
C4 C8 1.429 . S
C5 C3 1.360 . S
C5 C6 1.372 . S
C6 H1 0.928 . S
C6 C5 1.372 . S
C6 C7 1.404 . S
C7 C6 1.404 . S
C7 C8 1.391 . S
C8 H2 0.930 . S
C8 C4 1.429 . S
C8 C7 1.391 . S
H9 C12 0.931 . S
H10 C15 0.928 . S
H11 C17 0.930 . S
C12 H9 0.931 . S
C12 C13 1.413 . S
C12 C14 1.360 . S
C13 C12 1.413 . S
C13 C17 1.429 . S
C14 C12 1.360 . S
C14 C15 1.372 . S
C15 H10 0.928 . S
C15 C14 1.372 . S
C15 C16 1.404 . S
C16 C15 1.404 . S
C16 C17 1.391 . S
C17 H11 0.930 . S
C17 C13 1.429 . S
C17 C16 1.391 . S
H18 C21 0.931 . S
H19 C24 0.928 . S
H20 C26 0.930 . S
C21 H18 0.931 . S
C21 C22 1.413 . S
C21 C23 1.360 . S
C22 C21 1.413 . S
C22 C26 1.429 . S
C23 C21 1.360 . S
C23 C24 1.372 . S
C24 H19 0.928 . S
C24 C23 1.372 . S
C24 C25 1.404 . S
C25 C24 1.404 . S
C25 C26 1.391 . S
C26 H20 0.930 . S
C26 C22 1.429 . S
C26 C25 1.391 . S
H27 C30 0.931 . S
H28 C33 0.928 . S
H29 C35 0.930 . S
C30 H27 0.931 . S
C30 C31 1.413 . S
C30 C32 1.360 . S
C31 C30 1.413 . S
C31 C35 1.429 . S
C32 C30 1.360 . S
C32 C33 1.372 . S
C33 H28 0.928 . S
C33 C32 1.372 . S
C33 C34 1.404 . S
C34 C33 1.404 . S
C34 C35 1.391 . S
C35 H29 0.930 . S
C35 C31 1.429 . S
C35 C34 1.391 . S
H36 C39 0.931 . S
H37 C42 0.928 . S
H38 C44 0.930 . S
C39 H36 0.931 . S
C39 C40 1.413 . S
C39 C41 1.360 . S
C40 C39 1.413 . S
C40 C44 1.429 . S
C41 C39 1.360 . S
C41 C42 1.372 . S
C42 H37 0.928 . S
C42 C41 1.372 . S
C42 C43 1.404 . S
C43 C42 1.404 . S
C43 C44 1.391 . S
C44 H38 0.930 . S
C44 C40 1.429 . S
C44 C43 1.391 . S
H45 C48 0.931 . S
H46 C51 0.928 . S
H47 C53 0.930 . S
C48 H45 0.931 . S
C48 C49 1.413 . S
C48 C50 1.360 . S
C49 C48 1.413 . S
C49 C53 1.429 . S
C50 C48 1.360 . S
C50 C51 1.372 . S
C51 H46 0.928 . S
C51 C50 1.372 . S
C51 C52 1.404 . S
C52 C51 1.404 . S
C52 C53 1.391 . S
C53 H47 0.930 . S
C53 C49 1.429 . S
C53 C52 1.391 . S
H54 C57 0.931 . S
H55 C60 0.928 . S
H56 C62 0.930 . S
C57 H54 0.931 . S
C57 C58 1.413 . S
C57 C59 1.360 . S
C58 C57 1.413 . S
C58 C62 1.429 . S
C59 C57 1.360 . S
C59 C60 1.372 . S
C60 H55 0.928 . S
C60 C59 1.372 . S
C60 C61 1.404 . S
C61 C60 1.404 . S
C61 C62 1.391 . S
C62 H56 0.930 . S
C62 C58 1.429 . S
C62 C61 1.391 . S
H63 C66 0.931 . S
H64 C69 0.928 . S
H65 C71 0.930 . S
C66 H63 0.931 . S
C66 C67 1.413 . S
C66 C68 1.360 . S
C67 C66 1.413 . S
C67 C71 1.429 . S
C68 C66 1.360 . S
C68 C69 1.372 . S
C69 H64 0.928 . S
C69 C68 1.372 . S
C69 C70 1.404 . S
C70 C69 1.404 . S
C70 C71 1.391 . S
C71 H65 0.930 . S
C71 C67 1.429 . S
C71 C70 1.391 . S
Dy72 O76 2.398 . S
Dy72 O77 2.491 . S
Dy72 O78 2.403 1_545 S
Dy72 O79 2.664 1_545 S
Dy72 O83 2.326 . S
Dy72 O87 2.310 1_455 S
Dy72 O88 2.351 1_445 S
C73 O84 1.185 . S
C73 O85 1.355 . S
C74 O76 1.185 . S
C74 O77 1.355 . S
Dy75 O79 2.310 1_655 S
Dy75 O82 2.351 1_665 S
Dy75 O84 2.398 . S
Dy75 O85 2.491 . S
Dy75 O86 2.403 1_565 S
Dy75 O87 2.664 1_565 S
Dy75 O89 2.326 . S
O76 Dy72 2.398 . S
O76 C74 1.185 . S
O77 Dy72 2.491 . S
O77 C74 1.355 . S
O78 Dy72 2.403 1_565 S
O78 C80 1.254 . S
O79 Dy72 2.664 1_565 S
O79 Dy75 2.310 1_455 S
O79 C80 1.268 . S
C80 O78 1.254 . S
C80 O79 1.268 . S
C81 O86 1.254 . S
C81 O87 1.268 . S
O82 Dy75 2.351 1_445 S
O82 C90 1.249 . S
O83 Dy72 2.326 . S
O83 C90 1.267 . S
O84 C73 1.185 . S
O84 Dy75 2.398 . S
O85 C73 1.355 . S
O85 Dy75 2.491 . S
O86 Dy75 2.403 1_545 S
O86 C81 1.254 . S
O87 Dy72 2.310 1_655 S
O87 Dy75 2.664 1_545 S
O87 C81 1.268 . S
O88 Dy72 2.351 1_665 S
O88 C91 1.249 . S
O89 Dy75 2.326 . S
O89 C91 1.267 . S
C90 O82 1.249 . S
C90 O83 1.267 . S
C91 O88 1.249 . S
C91 O89 1.267 . S
Dy92 O96 2.398 . S
Dy92 O97 2.491 . S
Dy92 O98 2.403 1_545 S
Dy92 O99 2.664 1_545 S
Dy92 O103 2.326 . S
Dy92 O107 2.310 1_554 S
Dy92 O108 2.351 1_544 S
C93 O104 1.185 . S
C93 O105 1.355 . S
C94 O96 1.185 . S
C94 O97 1.355 . S
Dy95 O99 2.310 1_546 S
Dy95 O102 2.351 1_556 S
Dy95 O104 2.398 1_545 S
Dy95 O105 2.491 1_545 S
Dy95 O106 2.403 . S
Dy95 O107 2.664 . S
Dy95 O109 2.326 1_545 S
O96 Dy92 2.398 . S
O96 C94 1.185 . S
O97 Dy92 2.491 . S
O97 C94 1.355 . S
O98 Dy92 2.403 1_565 S
O98 C100 1.254 . S
O99 Dy92 2.664 1_565 S
O99 Dy95 2.310 1_564 S
O99 C100 1.268 . S
C100 O98 1.254 . S
C100 O99 1.268 . S
C101 O106 1.254 . S
C101 O107 1.268 . S
O102 Dy95 2.351 1_554 S
O102 C110 1.249 . S
O103 Dy92 2.326 . S
O103 C110 1.267 . S
O104 C93 1.185 . S
O104 Dy95 2.398 1_565 S
O105 C93 1.355 . S
O105 Dy95 2.491 1_565 S
O106 Dy95 2.403 . S
O106 C101 1.254 . S
O107 Dy92 2.310 1_556 S
O107 Dy95 2.664 . S
O107 C101 1.268 . S
O108 Dy92 2.351 1_566 S
O108 C111 1.249 . S
O109 Dy95 2.326 1_565 S
O109 C111 1.267 . S
C110 O102 1.249 . S
C110 O103 1.267 . S
C111 O108 1.249 . S
C111 O109 1.267 . S
Dy112 O116 2.398 . S
Dy112 O117 2.491 . S
Dy112 O118 2.403 . S
Dy112 O119 2.664 . S
Dy112 O123 2.326 . S
Dy112 O127 2.310 . S
Dy112 O128 2.351 . S
C113 O124 1.185 . S
C113 O125 1.355 . S
C114 O116 1.185 . S
C114 O117 1.355 . S
Dy115 O119 2.310 . S
Dy115 O122 2.351 . S
Dy115 O124 2.398 . S
Dy115 O125 2.491 . S
Dy115 O126 2.403 . S
Dy115 O127 2.664 . S
Dy115 O129 2.326 . S
O116 Dy112 2.398 . S
O116 C114 1.185 . S
O117 Dy112 2.491 . S
O117 C114 1.355 . S
O118 Dy112 2.403 . S
O118 C120 1.254 . S
O119 Dy112 2.664 . S
O119 Dy115 2.310 . S
O119 C120 1.268 . S
C120 O118 1.254 . S
C120 O119 1.268 . S
C121 O126 1.254 . S
C121 O127 1.268 . S
O122 Dy115 2.351 . S
O122 C130 1.249 . S
O123 Dy112 2.326 . S
O123 C130 1.267 . S
O124 C113 1.185 . S
O124 Dy115 2.398 . S
O125 C113 1.355 . S
O125 Dy115 2.491 . S
O126 Dy115 2.403 . S
O126 C121 1.254 . S
O127 Dy112 2.310 . S
O127 Dy115 2.664 . S
O127 C121 1.268 . S
O128 Dy112 2.351 . S
O128 C131 1.249 . S
O129 Dy115 2.326 . S
O129 C131 1.267 . S
C130 O122 1.249 . S
C130 O123 1.267 . S
C131 O128 1.249 . S
C131 O129 1.267 . S
Dy132 O136 2.398 . S
Dy132 O137 2.491 . S
Dy132 O138 2.403 1_455 S
Dy132 O139 2.664 1_455 S
Dy132 O143 2.326 . S
Dy132 O147 2.310 1_554 S
Dy132 O148 2.351 1_454 S
C133 O144 1.185 . S
C133 O145 1.355 . S
C134 O136 1.185 . S
C134 O137 1.355 . S
Dy135 O139 2.310 1_556 S
Dy135 O142 2.351 1_656 S
Dy135 O144 2.398 . S
Dy135 O145 2.491 . S
Dy135 O146 2.403 1_655 S
Dy135 O147 2.664 1_655 S
Dy135 O149 2.326 . S
O136 Dy132 2.398 . S
O136 C134 1.185 . S
O137 Dy132 2.491 . S
O137 C134 1.355 . S
O138 Dy132 2.403 1_655 S
O138 C140 1.254 . S
O139 Dy132 2.664 1_655 S
O139 Dy135 2.310 1_554 S
O139 C140 1.268 . S
C140 O138 1.254 . S
C140 O139 1.268 . S
C141 O146 1.254 . S
C141 O147 1.268 . S
O142 Dy135 2.351 1_454 S
O142 C150 1.249 . S
O143 Dy132 2.326 . S
O143 C150 1.267 . S
O144 C133 1.185 . S
O144 Dy135 2.398 . S
O145 C133 1.355 . S
O145 Dy135 2.491 . S
O146 Dy135 2.403 1_455 S
O146 C141 1.254 . S
O147 Dy132 2.310 1_556 S
O147 Dy135 2.664 1_455 S
O147 C141 1.268 . S
O148 Dy132 2.351 1_656 S
O148 C151 1.249 . S
O149 Dy135 2.326 . S
O149 C151 1.267 . S
C150 O142 1.249 . S
C150 O143 1.267 . S
C151 O148 1.249 . S
C151 O149 1.267 . S
H152 C158 0.930 . S
H153 C162 0.930 . S
H154 C167 0.929 . S
H155 C165 0.929 . S
H156 C160 0.929 . S
H157 C166 0.929 . S
C158 H152 0.930 . S
C158 C159 1.367 . S
C158 C166 1.378 . S
C159 C158 1.367 . S
C159 C167 1.433 . S
C160 H156 0.929 . S
C160 C162 1.378 . S
C160 C164 1.350 . S
C161 C164 1.463 . S
C161 C166 1.350 . S
C161 N169 1.427 . S
C162 H153 0.930 . S
C162 C160 1.378 . S
C162 C163 1.367 . S
C163 C162 1.367 . S
C163 C165 1.433 . S
C164 C160 1.350 . S
C164 C161 1.463 . S
C164 N168 1.427 . S
C165 H155 0.929 . S
C165 C163 1.433 . S
C165 N168 1.384 . S
C166 H157 0.929 . S
C166 C158 1.378 . S
C166 C161 1.350 . S
C167 H154 0.929 . S
C167 C159 1.433 . S
C167 N169 1.384 . S
N168 C164 1.427 . S
N168 C165 1.384 . S
N169 C161 1.427 . S
N169 C167 1.384 . S
H170 C176 0.930 . S
H171 C180 0.930 . S
H172 C185 0.929 . S
H173 C183 0.929 . S
H174 C178 0.929 . S
H175 C184 0.929 . S
C176 H170 0.930 . S
C176 C177 1.367 . S
C176 C184 1.378 . S
C177 C176 1.367 . S
C177 C185 1.433 . S
C178 H174 0.929 . S
C178 C180 1.378 . S
C178 C182 1.350 . S
C179 C182 1.463 . S
C179 C184 1.350 . S
C179 N187 1.427 . S
C180 H171 0.930 . S
C180 C178 1.378 . S
C180 C181 1.367 . S
C181 C180 1.367 . S
C181 C183 1.433 . S
C182 C178 1.350 . S
C182 C179 1.463 . S
C182 N186 1.427 . S
C183 H173 0.929 . S
C183 C181 1.433 . S
C183 N186 1.384 . S
C184 H175 0.929 . S
C184 C176 1.378 . S
C184 C179 1.350 . S
C185 H172 0.929 . S
C185 C177 1.433 . S
C185 N187 1.384 . S
N186 C182 1.427 . S
N186 C183 1.384 . S
N187 C179 1.427 . S
N187 C185 1.384 . S
H188 C194 0.930 . S
H189 C198 0.930 . S
H190 C203 0.929 . S
H191 C201 0.929 . S
H192 C196 0.929 . S
H193 C202 0.929 . S
C194 H188 0.930 . S
C194 C195 1.367 . S
C194 C202 1.378 . S
C195 C194 1.367 . S
C195 C203 1.433 . S
C196 H192 0.929 . S
C196 C198 1.378 . S
C196 C200 1.350 . S
C197 C200 1.463 . S
C197 C202 1.350 . S
C197 N205 1.427 . S
C198 H189 0.930 . S
C198 C196 1.378 . S
C198 C199 1.367 . S
C199 C198 1.367 . S
C199 C201 1.433 . S
C200 C196 1.350 . S
C200 C197 1.463 . S
C200 N204 1.427 . S
C201 H191 0.929 . S
C201 C199 1.433 . S
C201 N204 1.384 . S
C202 H193 0.929 . S
C202 C194 1.378 . S
C202 C197 1.350 . S
C203 H190 0.929 . S
C203 C195 1.433 . S
C203 N205 1.384 . S
N204 C200 1.427 . S
N204 C201 1.384 . S
N205 C197 1.427 . S
N205 C203 1.384 . S
H206 C212 0.930 . S
H207 C216 0.930 . S
H208 C221 0.929 . S
H209 C219 0.929 . S
H210 C214 0.929 . S
H211 C220 0.929 . S
C212 H206 0.930 . S
C212 C213 1.367 . S
C212 C220 1.378 . S
C213 C212 1.367 . S
C213 C221 1.433 . S
C214 H210 0.929 . S
C214 C216 1.378 . S
C214 C218 1.350 . S
C215 C218 1.463 . S
C215 C220 1.350 . S
C215 N223 1.427 . S
C216 H207 0.930 . S
C216 C214 1.378 . S
C216 C217 1.367 . S
C217 C216 1.367 . S
C217 C219 1.433 . S
C218 C214 1.350 . S
C218 C215 1.463 . S
C218 N222 1.427 . S
C219 H209 0.929 . S
C219 C217 1.433 . S
C219 N222 1.384 . S
C220 H211 0.929 . S
C220 C212 1.378 . S
C220 C215 1.350 . S
C221 H208 0.929 . S
C221 C213 1.433 . S
C221 N223 1.384 . S
N222 C218 1.427 . S
N222 C219 1.384 . S
N223 C215 1.427 . S
N223 C221 1.384 . S
H224 C230 0.930 . S
H225 C234 0.930 . S
H226 C239 0.929 . S
H227 C237 0.929 . S
H228 C232 0.929 . S
H229 C238 0.929 . S
C230 H224 0.930 . S
C230 C231 1.367 . S
C230 C238 1.378 . S
C231 C230 1.367 . S
C231 C239 1.433 . S
C232 H228 0.929 . S
C232 C234 1.378 . S
C232 C236 1.350 . S
C233 C236 1.463 . S
C233 C238 1.350 . S
C233 N241 1.427 . S
C234 H225 0.930 . S
C234 C232 1.378 . S
C234 C235 1.367 . S
C235 C234 1.367 . S
C235 C237 1.433 . S
C236 C232 1.350 . S
C236 C233 1.463 . S
C236 N240 1.427 . S
C237 H227 0.929 . S
C237 C235 1.433 . S
C237 N240 1.384 . S
C238 H229 0.929 . S
C238 C230 1.378 . S
C238 C233 1.350 . S
C239 H226 0.929 . S
C239 C231 1.433 . S
C239 N241 1.384 . S
N240 C236 1.427 . S
N240 C237 1.384 . S
N241 C233 1.427 . S
N241 C239 1.384 . S
H242 C248 0.930 . S
H243 C252 0.930 . S
H244 C257 0.929 . S
H245 C255 0.930 . S
H246 C250 0.929 . S
H247 C256 0.929 . S
C248 H242 0.930 . S
C248 C249 1.367 . S
C248 C256 1.378 . S
C249 C248 1.367 . S
C249 C257 1.433 . S
C250 H246 0.929 . S
C250 C252 1.378 . S
C250 C254 1.350 . S
C251 C254 1.463 . S
C251 C256 1.350 . S
C251 N259 1.427 . S
C252 H243 0.930 . S
C252 C250 1.378 . S
C252 C253 1.367 . S
C253 C252 1.367 . S
C253 C255 1.433 . S
C254 C250 1.350 . S
C254 C251 1.463 . S
C254 N258 1.427 . S
C255 H245 0.930 . S
C255 C253 1.433 . S
C255 N258 1.384 . S
C256 H247 0.929 . S
C256 C248 1.378 . S
C256 C251 1.350 . S
C257 H244 0.929 . S
C257 C249 1.433 . S
C257 N259 1.384 . S
N258 C254 1.427 . S
N258 C255 1.384 . S
N259 C251 1.427 . S
N259 C257 1.384 . S
H260 C266 0.930 . S
H261 C270 0.930 1_554 S
H262 C275 0.929 . S
H263 C273 0.929 . S
H264 C268 0.929 . S
H265 C274 0.929 . S
C266 H260 0.930 . S
C266 C267 1.367 . S
C266 C274 1.378 . S
C267 C266 1.367 . S
C267 C275 1.433 . S
C268 H264 0.929 . S
C268 C270 1.378 . S
C268 C272 1.350 . S
C269 C272 1.463 . S
C269 C274 1.350 . S
C269 N277 1.427 . S
C270 H261 0.930 1_556 S
C270 C268 1.378 . S
C270 C271 1.367 . S
C271 C270 1.367 . S
C271 C273 1.433 . S
C272 C268 1.350 . S
C272 C269 1.463 . S
C272 N276 1.427 . S
C273 H263 0.929 . S
C273 C271 1.433 . S
C273 N276 1.384 . S
C274 H265 0.929 . S
C274 C266 1.378 . S
C274 C269 1.350 . S
C275 H262 0.929 . S
C275 C267 1.433 . S
C275 N277 1.384 . S
N276 C272 1.427 . S
N276 C273 1.384 . S
N277 C269 1.427 . S
N277 C275 1.384 . S
H278 C284 0.930 . S
H279 C288 0.930 . S
H280 C293 0.929 . S
H281 C291 0.929 . S
H282 C286 0.929 . S
H283 C292 0.929 . S
C284 H278 0.930 . S
C284 C285 1.367 . S
C284 C292 1.378 . S
C285 C284 1.367 . S
C285 C293 1.433 . S
C286 H282 0.929 . S
C286 C288 1.378 . S
C286 C290 1.350 . S
C287 C290 1.463 . S
C287 C292 1.350 . S
C287 N295 1.427 . S
C288 H279 0.930 . S
C288 C286 1.378 . S
C288 C289 1.367 . S
C289 C288 1.367 . S
C289 C291 1.433 . S
C290 C286 1.350 . S
C290 C287 1.463 . S
C290 N294 1.427 . S
C291 H281 0.929 . S
C291 C289 1.433 . S
C291 N294 1.384 . S
C292 H283 0.929 . S
C292 C284 1.378 . S
C292 C287 1.350 . S
C293 H280 0.929 . S
C293 C285 1.433 . S
C293 N295 1.384 . S
N294 C290 1.427 . S
N294 C291 1.384 . S
N295 C287 1.427 . S
N295 C293 1.384 . S
H296 C302 0.930 . S
H297 C306 0.930 . S
H298 C311 0.929 . S
H299 C309 0.929 . S
H300 C304 0.929 . S
H301 C310 0.929 . S
C302 H296 0.930 . S
C302 C303 1.367 . S
C302 C310 1.378 . S
C303 C302 1.367 . S
C303 C311 1.433 . S
C304 H300 0.929 . S
C304 C306 1.378 . S
C304 C308 1.350 . S
C305 C308 1.463 . S
C305 C310 1.350 . S
C305 N313 1.427 . S
C306 H297 0.930 . S
C306 C304 1.378 . S
C306 C307 1.367 . S
C307 C306 1.367 . S
C307 C309 1.433 . S
C308 C304 1.350 . S
C308 C305 1.463 . S
C308 N312 1.427 . S
C309 H299 0.929 . S
C309 C307 1.433 . S
C309 N312 1.384 . S
C310 H301 0.929 . S
C310 C302 1.378 . S
C310 C305 1.350 . S
C311 H298 0.929 . S
C311 C303 1.433 . S
C311 N313 1.384 . S
N312 C308 1.427 . S
N312 C309 1.384 . S
N313 C305 1.427 . S
N313 C311 1.384 . S
H314 C320 0.930 . S
H315 C324 0.930 . S
H316 C329 0.929 . S
H317 C327 0.929 1_554 S
H318 C322 0.929 . S
H319 C328 0.929 . S
C320 H314 0.930 . S
C320 C321 1.367 . S
C320 C328 1.378 . S
C321 C320 1.367 . S
C321 C329 1.433 . S
C322 H318 0.929 . S
C322 C324 1.378 . S
C322 C326 1.350 . S
C323 C326 1.463 . S
C323 C328 1.350 . S
C323 N331 1.427 . S
C324 H315 0.930 . S
C324 C322 1.378 . S
C324 C325 1.367 . S
C325 C324 1.367 . S
C325 C327 1.433 . S
C326 C322 1.350 . S
C326 C323 1.463 . S
C326 N330 1.427 . S
C327 H317 0.929 1_556 S
C327 C325 1.433 . S
C327 N330 1.384 . S
C328 H319 0.929 . S
C328 C320 1.378 . S
C328 C323 1.350 . S
C329 H316 0.929 . S
C329 C321 1.433 . S
C329 N331 1.384 . S
N330 C326 1.427 . S
N330 C327 1.384 . S
N331 C323 1.427 . S
N331 C329 1.384 . S
H332 C338 0.930 . S
H333 C342 0.930 . S
H334 C347 0.929 . S
H335 C345 0.929 . S
H336 C340 0.929 . S
H337 C346 0.929 . S
C338 H332 0.930 . S
C338 C339 1.367 . S
C338 C346 1.378 . S
C339 C338 1.367 . S
C339 C347 1.433 . S
C340 H336 0.929 . S
C340 C342 1.378 . S
C340 C344 1.350 . S
C341 C344 1.463 . S
C341 C346 1.350 . S
C341 N349 1.427 . S
C342 H333 0.930 . S
C342 C340 1.378 . S
C342 C343 1.367 . S
C343 C342 1.367 . S
C343 C345 1.433 . S
C344 C340 1.350 . S
C344 C341 1.463 . S
C344 N348 1.427 . S
C345 H335 0.929 . S
C345 C343 1.433 . S
C345 N348 1.384 . S
C346 H337 0.929 . S
C346 C338 1.378 . S
C346 C341 1.350 . S
C347 H334 0.929 . S
C347 C339 1.433 . S
C347 N349 1.384 . S
N348 C344 1.427 . S
N348 C345 1.384 . S
N349 C341 1.427 . S
N349 C347 1.384 . S
H350 C356 0.930 . S
H351 C360 0.930 . S
H352 C365 0.929 . S
H353 C363 0.929 . S
H354 C358 0.929 . S
H355 C364 0.929 . S
C356 H350 0.930 . S
C356 C357 1.367 . S
C356 C364 1.378 . S
C357 C356 1.367 . S
C357 C365 1.433 . S
C358 H354 0.929 . S
C358 C360 1.378 . S
C358 C362 1.350 . S
C359 C362 1.463 . S
C359 C364 1.350 . S
C359 N367 1.427 . S
C360 H351 0.930 . S
C360 C358 1.378 . S
C360 C361 1.367 . S
C361 C360 1.367 . S
C361 C363 1.433 . S
C362 C358 1.350 . S
C362 C359 1.463 . S
C362 N366 1.427 . S
C363 H353 0.929 . S
C363 C361 1.433 . S
C363 N366 1.384 . S
C364 H355 0.929 . S
C364 C356 1.378 . S
C364 C359 1.350 . S
C365 H352 0.929 . S
C365 C357 1.433 . S
C365 N367 1.384 . S
N366 C362 1.427 . S
N366 C363 1.384 . S
N367 C359 1.427 . S
N367 C365 1.384 . S
H368 C374 0.930 . S
H369 C378 0.930 . S
H370 C383 0.929 . S
H371 C381 0.929 . S
H372 C376 0.929 . S
H373 C382 0.929 . S
C374 H368 0.930 . S
C374 C375 1.367 . S
C374 C382 1.378 . S
C375 C374 1.367 . S
C375 C383 1.433 . S
C376 H372 0.929 . S
C376 C378 1.378 . S
C376 C380 1.350 . S
C377 C380 1.463 . S
C377 C382 1.350 . S
C377 N385 1.427 . S
C378 H369 0.930 . S
C378 C376 1.378 . S
C378 C379 1.367 . S
C379 C378 1.367 . S
C379 C381 1.433 . S
C380 C376 1.350 . S
C380 C377 1.463 . S
C380 N384 1.427 . S
C381 H371 0.929 . S
C381 C379 1.433 . S
C381 N384 1.384 . S
C382 H373 0.929 . S
C382 C374 1.378 . S
C382 C377 1.350 . S
C383 H370 0.929 . S
C383 C375 1.433 . S
C383 N385 1.384 . S
N384 C380 1.427 . S
N384 C381 1.384 . S
N385 C377 1.427 . S
N385 C383 1.384 . S
H386 C392 0.930 . S
H387 C396 0.930 . S
H388 C401 0.929 . S
H389 C399 0.929 . S
H390 C394 0.929 . S
H391 C400 0.929 . S
C392 H386 0.930 . S
C392 C393 1.367 . S
C392 C400 1.378 . S
C393 C392 1.367 . S
C393 C401 1.433 . S
C394 H390 0.929 . S
C394 C396 1.378 . S
C394 C398 1.350 . S
C395 C398 1.463 . S
C395 C400 1.350 . S
C395 N403 1.427 . S
C396 H387 0.930 . S
C396 C394 1.378 . S
C396 C397 1.367 . S
C397 C396 1.367 . S
C397 C399 1.433 . S
C398 C394 1.350 . S
C398 C395 1.463 . S
C398 N402 1.427 . S
C399 H389 0.929 . S
C399 C397 1.433 . S
C399 N402 1.384 . S
C400 H391 0.929 . S
C400 C392 1.378 . S
C400 C395 1.350 . S
C401 H388 0.929 . S
C401 C393 1.433 . S
C401 N403 1.384 . S
N402 C398 1.427 . S
N402 C399 1.384 . S
N403 C395 1.427 . S
N403 C401 1.384 . S
H404 C410 0.930 . S
H405 C414 0.930 . S
H406 C419 0.929 . S
H407 C417 0.929 . S
H408 C412 0.929 . S
H409 C418 0.929 . S
C410 H404 0.930 . S
C410 C411 1.367 . S
C410 C418 1.378 . S
C411 C410 1.367 . S
C411 C419 1.433 . S
C412 H408 0.929 . S
C412 C414 1.378 . S
C412 C416 1.350 . S
C413 C416 1.463 . S
C413 C418 1.350 . S
C413 N421 1.427 . S
C414 H405 0.930 . S
C414 C412 1.378 . S
C414 C415 1.367 . S
C415 C414 1.367 . S
C415 C417 1.433 . S
C416 C412 1.350 . S
C416 C413 1.463 . S
C416 N420 1.427 . S
C417 H407 0.929 . S
C417 C415 1.433 . S
C417 N420 1.384 . S
C418 H409 0.929 . S
C418 C410 1.378 . S
C418 C413 1.350 . S
C419 H406 0.929 . S
C419 C411 1.433 . S
C419 N421 1.384 . S
N420 C416 1.427 . S
N420 C417 1.384 . S
N421 C413 1.427 . S
N421 C419 1.384 . S
H422 C428 0.930 . S
H423 C432 0.930 . S
H424 C437 0.929 . S
H425 C435 0.929 . S
H426 C430 0.929 . S
H427 C436 0.929 . S
C428 H422 0.930 . S
C428 C429 1.367 . S
C428 C436 1.378 . S
C429 C428 1.367 . S
C429 C437 1.433 . S
C430 H426 0.929 . S
C430 C432 1.378 . S
C430 C434 1.350 . S
C431 C434 1.463 . S
C431 C436 1.350 . S
C431 N439 1.427 . S
C432 H423 0.930 . S
C432 C430 1.378 . S
C432 C433 1.367 . S
C433 C432 1.367 . S
C433 C435 1.433 . S
C434 C430 1.350 . S
C434 C431 1.463 . S
C434 N438 1.427 . S
C435 H425 0.929 . S
C435 C433 1.433 . S
C435 N438 1.384 . S
C436 H427 0.929 . S
C436 C428 1.378 . S
C436 C431 1.350 . S
C437 H424 0.929 . S
C437 C429 1.433 . S
C437 N439 1.384 . S
N438 C434 1.427 . S
N438 C435 1.384 . S
N439 C431 1.427 . S
N439 C437 1.384 . S
H440 C446 0.930 . S
H441 C450 0.930 . S
H442 C455 0.929 . S
H443 C453 0.929 . S
H444 C448 0.929 . S
H445 C454 0.929 . S
C446 H440 0.930 . S
C446 C447 1.367 . S
C446 C454 1.378 . S
C447 C446 1.367 . S
C447 C455 1.433 . S
C448 H444 0.929 . S
C448 C450 1.378 . S
C448 C452 1.350 . S
C449 C452 1.463 . S
C449 C454 1.350 . S
C449 N457 1.427 . S
C450 H441 0.930 . S
C450 C448 1.378 . S
C450 C451 1.367 . S
C451 C450 1.367 . S
C451 C453 1.433 . S
C452 C448 1.350 . S
C452 C449 1.463 . S
C452 N456 1.427 . S
C453 H443 0.929 . S
C453 C451 1.433 . S
C453 N456 1.384 . S
C454 H445 0.929 . S
C454 C446 1.378 . S
C454 C449 1.350 . S
C455 H442 0.929 . S
C455 C447 1.433 . S
C455 N457 1.384 . S
N456 C452 1.427 . S
N456 C453 1.384 . S
N457 C449 1.427 . S
N457 C455 1.384 . S
H458 C464 0.930 . S
H459 C468 0.930 . S
H460 C473 0.929 . S
H461 C471 0.929 . S
H462 C466 0.929 . S
H463 C472 0.929 . S
C464 H458 0.930 . S
C464 C465 1.367 . S
C464 C472 1.378 . S
C465 C464 1.367 . S
C465 C473 1.433 . S
C466 H462 0.929 . S
C466 C468 1.378 . S
C466 C470 1.350 . S
C467 C470 1.463 . S
C467 C472 1.350 . S
C467 N475 1.427 . S
C468 H459 0.930 . S
C468 C466 1.378 . S
C468 C469 1.367 . S
C469 C468 1.367 . S
C469 C471 1.433 . S
C470 C466 1.350 . S
C470 C467 1.463 . S
C470 N474 1.427 . S
C471 H461 0.929 . S
C471 C469 1.433 . S
C471 N474 1.384 . S
C472 H463 0.929 . S
C472 C464 1.378 . S
C472 C467 1.350 . S
C473 H460 0.929 . S
C473 C465 1.433 . S
C473 N475 1.384 . S
N474 C470 1.427 . S
N474 C471 1.384 . S
N475 C467 1.427 . S
N475 C473 1.384 . S
H476 C482 0.930 . S
H477 C486 0.930 . S
H478 C491 0.929 . S
H479 C489 0.929 . S
H480 C484 0.929 . S
H481 C490 0.929 . S
C482 H476 0.930 . S
C482 C483 1.367 . S
C482 C490 1.378 . S
C483 C482 1.367 . S
C483 C491 1.433 . S
C484 H480 0.929 . S
C484 C486 1.378 . S
C484 C488 1.350 . S
C485 C488 1.463 . S
C485 C490 1.350 . S
C485 N493 1.427 . S
C486 H477 0.930 . S
C486 C484 1.378 . S
C486 C487 1.367 . S
C487 C486 1.367 . S
C487 C489 1.433 . S
C488 C484 1.350 . S
C488 C485 1.463 . S
C488 N492 1.427 . S
C489 H479 0.929 . S
C489 C487 1.433 . S
C489 N492 1.384 . S
C490 H481 0.929 . S
C490 C482 1.378 . S
C490 C485 1.350 . S
C491 H478 0.929 . S
C491 C483 1.433 . S
C491 N493 1.384 . S
N492 C488 1.427 . S
N492 C489 1.384 . S
N493 C485 1.427 . S
N493 C491 1.384 . S
H494 C500 0.930 . S
H495 C504 0.930 . S
H496 C509 0.929 . S
H497 C507 0.929 . S
H498 C502 0.929 . S
H499 C508 0.929 . S
C500 H494 0.930 . S
C500 C501 1.367 . S
C500 C508 1.378 . S
C501 C500 1.367 . S
C501 C509 1.433 . S
C502 H498 0.929 . S
C502 C504 1.378 . S
C502 C506 1.350 . S
C503 C506 1.463 . S
C503 C508 1.350 . S
C503 N511 1.427 . S
C504 H495 0.930 . S
C504 C502 1.378 . S
C504 C505 1.367 . S
C505 C504 1.367 . S
C505 C507 1.433 . S
C506 C502 1.350 . S
C506 C503 1.463 . S
C506 N510 1.427 . S
C507 H497 0.929 . S
C507 C505 1.433 . S
C507 N510 1.384 . S
C508 H499 0.929 . S
C508 C500 1.378 . S
C508 C503 1.350 . S
C509 H496 0.929 . S
C509 C501 1.433 . S
C509 N511 1.384 . S
N510 C506 1.427 . S
N510 C507 1.384 . S
N511 C503 1.427 . S
N511 C509 1.384 . S
H512 C518 0.930 . S
H513 C522 0.930 . S
H514 C527 0.929 . S
H515 C525 0.929 . S
H516 C520 0.929 . S
H517 C526 0.929 . S
C518 H512 0.930 . S
C518 C519 1.367 . S
C518 C526 1.378 . S
C519 C518 1.367 . S
C519 C527 1.433 . S
C520 H516 0.929 . S
C520 C522 1.378 . S
C520 C524 1.350 . S
C521 C524 1.463 . S
C521 C526 1.350 . S
C521 N529 1.427 . S
C522 H513 0.930 . S
C522 C520 1.378 . S
C522 C523 1.367 . S
C523 C522 1.367 . S
C523 C525 1.433 . S
C524 C520 1.350 . S
C524 C521 1.463 . S
C524 N528 1.427 . S
C525 H515 0.929 . S
C525 C523 1.433 . S
C525 N528 1.384 . S
C526 H517 0.929 . S
C526 C518 1.378 . S
C526 C521 1.350 . S
C527 H514 0.929 . S
C527 C519 1.433 . S
C527 N529 1.384 . S
N528 C524 1.427 . S
N528 C525 1.384 . S
N529 C521 1.427 . S
N529 C527 1.384 . S
H530 C536 0.930 . S
H531 C540 0.930 . S
H532 C545 0.929 . S
H533 C543 0.929 . S
H534 C538 0.929 . S
H535 C544 0.929 . S
C536 H530 0.930 . S
C536 C537 1.367 . S
C536 C544 1.378 . S
C537 C536 1.367 . S
C537 C545 1.433 . S
C538 H534 0.929 . S
C538 C540 1.378 . S
C538 C542 1.350 . S
C539 C542 1.463 . S
C539 C544 1.350 . S
C539 N547 1.427 . S
C540 H531 0.930 . S
C540 C538 1.378 . S
C540 C541 1.367 . S
C541 C540 1.367 . S
C541 C543 1.433 . S
C542 C538 1.350 . S
C542 C539 1.463 . S
C542 N546 1.427 . S
C543 H533 0.929 . S
C543 C541 1.433 . S
C543 N546 1.384 . S
C544 H535 0.929 . S
C544 C536 1.378 . S
C544 C539 1.350 . S
C545 H532 0.929 . S
C545 C537 1.433 . S
C545 N547 1.384 . S
N546 C542 1.427 . S
N546 C543 1.384 . S
N547 C539 1.427 . S
N547 C545 1.384 . S
H548 C554 0.930 . S
H549 C558 0.930 . S
H550 C563 0.929 . S
H551 C561 0.929 . S
H552 C556 0.929 . S
H553 C562 0.929 . S
C554 H548 0.930 . S
C554 C555 1.367 . S
C554 C562 1.378 . S
C555 C554 1.367 . S
C555 C563 1.433 . S
C556 H552 0.929 . S
C556 C558 1.378 . S
C556 C560 1.350 . S
C557 C560 1.463 . S
C557 C562 1.350 . S
C557 N565 1.427 . S
C558 H549 0.930 . S
C558 C556 1.378 . S
C558 C559 1.367 . S
C559 C558 1.367 . S
C559 C561 1.433 . S
C560 C556 1.350 . S
C560 C557 1.463 . S
C560 N564 1.427 . S
C561 H551 0.929 . S
C561 C559 1.433 . S
C561 N564 1.384 . S
C562 H553 0.929 . S
C562 C554 1.378 . S
C562 C557 1.350 . S
C563 H550 0.929 . S
C563 C555 1.433 . S
C563 N565 1.384 . S
N564 C560 1.427 . S
N564 C561 1.384 . S
N565 C557 1.427 . S
N565 C563 1.384 . S
H566 C572 0.930 . S
H567 C576 0.930 . S
H568 C581 0.929 . S
H569 C579 0.929 . S
H570 C574 0.929 . S
H571 C580 0.929 . S
C572 H566 0.930 . S
C572 C573 1.367 . S
C572 C580 1.378 . S
C573 C572 1.367 . S
C573 C581 1.433 . S
C574 H570 0.929 . S
C574 C576 1.378 . S
C574 C578 1.350 . S
C575 C578 1.463 . S
C575 C580 1.350 . S
C575 N583 1.427 . S
C576 H567 0.930 . S
C576 C574 1.378 . S
C576 C577 1.367 . S
C577 C576 1.367 . S
C577 C579 1.433 . S
C578 C574 1.350 . S
C578 C575 1.463 . S
C578 N582 1.427 . S
C579 H569 0.929 . S
C579 C577 1.433 . S
C579 N582 1.384 . S
C580 H571 0.929 . S
C580 C572 1.378 . S
C580 C575 1.350 . S
C581 H568 0.929 . S
C581 C573 1.433 . S
C581 N583 1.384 . S
N582 C578 1.427 . S
N582 C579 1.384 . S
N583 C575 1.427 . S
N583 C581 1.384 . S
C159 C5 1.386 . S
C163 C74 1.376 . S
C177 C14 1.318 . S
C181 C93 1.297 . S
C199 C130 1.752 . S
C195 C25 1.781 . S
C213 C34 1.726 . S
C217 C140 1.686 . S
C235 C110 1.775 . S
C231 C7 1.749 . S
C253 C80 1.366 . S
C249 C13 1.425 . S
C271 C151 1.529 . S
C267 C23 1.552 . S
C289 C121 1.438 . S
C285 C31 1.465 . S
C303 C4 1.576 . S
C307 C134 1.573 . S
C325 C101 1.698 . S
C321 C22 1.757 . S
C339 C32 1.743 . S
C343 C91 1.734 . S
C357 C16 1.212 . S
C361 C113 1.197 . S
C379 C73 1.372 . S
C375 C41 1.378 . S
C393 C50 1.325 . S
C397 C94 1.299 . S
C411 C61 1.776 . S
C415 C131 1.748 . S
C429 C67 1.735 . S
C433 C141 1.693 . S
C447 C40 1.767 . S
C451 C111 1.791 . S
C469 C81 1.343 . S
C465 C52 1.402 . S
C487 C150 1.532 . S
C483 C59 1.560 . S
C505 C120 1.440 . S
C501 C70 1.459 . S
C519 C43 1.572 . S
C523 C133 1.573 . S
C541 C100 1.717 . S
C537 C58 1.766 . S
C559 C90 1.721 . S
C555 C68 1.728 . S
C573 C49 1.221 . S
C577 C114 1.201 . S
