# Generated by pormake.
# Topology zzz, (3,6)-cn, num edge types: 1
# Building blocks:
#     Node 0, Type 0, BuildingBlock: CUQRIR_clean_linker_1, # of connection points: 3
#     Node 1, Type 0, BuildingBlock: CUQRIR_clean_linker_1, # of connection points: 3
#     Node 2, Type 0, BuildingBlock: CUQRIR_clean_linker_1, # of connection points: 3
#     Node 3, Type 0, BuildingBlock: CUQRIR_clean_linker_1, # of connection points: 3
#     Node 4, Type 0, BuildingBlock: CUQRIR_clean_linker_1, # of connection points: 3
#     Node 5, Type 0, BuildingBlock: CUQRIR_clean_linker_1, # of connection points: 3
#     Node 6, Type 0, BuildingBlock: CUQRIR_clean_linker_1, # of connection points: 3
#     Node 7, Type 0, BuildingBlock: CUQRIR_clean_linker_1, # of connection points: 3
#     Node 8, Type 1, BuildingBlock: KUMBOL_clean_sbu_1, # of connection points: 6
#     Node 9, Type 1, BuildingBlock: KUMBOL_clean_sbu_1, # of connection points: 6
#     Node 10, Type 1, BuildingBlock: KUMBOL_clean_sbu_1, # of connection points: 6
#     Node 11, Type 1, BuildingBlock: KUMBOL_clean_sbu_1, # of connection points: 6
#     Edge 12, Type (0, 1), BuildingBlock: UVAHIK_clean_linker_0, # of connection points: 2
#     Edge 13, Type (0, 1), BuildingBlock: UVAHIK_clean_linker_0, # of connection points: 2
#     Edge 14, Type (0, 1), BuildingBlock: UVAHIK_clean_linker_0, # of connection points: 2
#     Edge 15, Type (0, 1), BuildingBlock: UVAHIK_clean_linker_0, # of connection points: 2
#     Edge 16, Type (0, 1), BuildingBlock: UVAHIK_clean_linker_0, # of connection points: 2
#     Edge 17, Type (0, 1), BuildingBlock: UVAHIK_clean_linker_0, # of connection points: 2
#     Edge 18, Type (0, 1), BuildingBlock: UVAHIK_clean_linker_0, # of connection points: 2
#     Edge 19, Type (0, 1), BuildingBlock: UVAHIK_clean_linker_0, # of connection points: 2
#     Edge 20, Type (0, 1), BuildingBlock: UVAHIK_clean_linker_0, # of connection points: 2
#     Edge 21, Type (0, 1), BuildingBlock: UVAHIK_clean_linker_0, # of connection points: 2
#     Edge 22, Type (0, 1), BuildingBlock: UVAHIK_clean_linker_0, # of connection points: 2
#     Edge 23, Type (0, 1), BuildingBlock: UVAHIK_clean_linker_0, # of connection points: 2
#     Edge 24, Type (0, 1), BuildingBlock: UVAHIK_clean_linker_0, # of connection points: 2
#     Edge 25, Type (0, 1), BuildingBlock: UVAHIK_clean_linker_0, # of connection points: 2
#     Edge 26, Type (0, 1), BuildingBlock: UVAHIK_clean_linker_0, # of connection points: 2
#     Edge 27, Type (0, 1), BuildingBlock: UVAHIK_clean_linker_0, # of connection points: 2
#     Edge 28, Type (0, 1), BuildingBlock: UVAHIK_clean_linker_0, # of connection points: 2
#     Edge 29, Type (0, 1), BuildingBlock: UVAHIK_clean_linker_0, # of connection points: 2
#     Edge 30, Type (0, 1), BuildingBlock: UVAHIK_clean_linker_0, # of connection points: 2
#     Edge 31, Type (0, 1), BuildingBlock: UVAHIK_clean_linker_0, # of connection points: 2
#     Edge 32, Type (0, 1), BuildingBlock: UVAHIK_clean_linker_0, # of connection points: 2
#     Edge 33, Type (0, 1), BuildingBlock: UVAHIK_clean_linker_0, # of connection points: 2
#     Edge 34, Type (0, 1), BuildingBlock: UVAHIK_clean_linker_0, # of connection points: 2
#     Edge 35, Type (0, 1), BuildingBlock: UVAHIK_clean_linker_0, # of connection points: 2
# Relax obj value: 0.171
# Max RMSD: 0.097
# Mean RMSD: 0.085
data_MOF--net-zzz--node1-KUMBOL_clean_sbu_1--node2-CUQRIR_clean_linker_1--edge1-UVAHIK_clean_linker_0
_symmetry_space_group_name_H-M    P1
_symmetry_Int_Tables_number       1
_symmetry_cell_setting            triclinic
loop_
_symmetry_equiv_pos_as_xyz
'x, y, z'
_cell_length_a     61.567119
_cell_length_b     61.454887
_cell_length_c     18.491175
_cell_angle_alpha  90.124015
_cell_angle_beta   90.083212
_cell_angle_gamma 90.327812
loop_
_atom_site_label
_atom_site_type_symbol
_atom_site_fract_x
_atom_site_fract_y
_atom_site_fract_z
_atom_type_partial_charge
C0 C 0.75405 0.55254 0.30126 0.0
N1 N 0.77519 0.55925 0.30213 0.0
N2 N 0.74391 0.55922 0.2398 0.0
C3 C 0.74332 0.53939 0.35943 0.0
C4 C 0.7596 0.57003 0.20323 0.0
N5 N 0.77846 0.57018 0.24094 0.0
C6 C 0.75706 0.57876 0.12757 0.0
H7 H 0.74562 0.52185 0.34751 0.0
H8 H 0.72561 0.54266 0.36091 0.0
H9 H 0.75067 0.54305 0.41295 0.0
H10 H 0.75739 0.5968 0.12951 0.0
H11 H 0.74159 0.57351 0.10201 0.0
H12 H 0.77081 0.57337 0.09329 0.0
C13 C 1.00554 0.75944 0.28509 0.0
N14 N 0.99883 0.78052 0.28375 0.0
N15 N 0.99944 0.74882 0.22348 0.0
C16 C 0.01768 0.74915 0.3463 0.0
C17 C 0.98914 0.76424 0.18444 0.0
N18 N 0.98865 0.78333 0.22094 0.0
C19 C 0.98143 0.76117 0.10766 0.0
H20 H 0.03535 0.75171 0.33779 0.0
H21 H 0.01445 0.73137 0.34811 0.0
H22 H 0.01313 0.75675 0.39858 0.0
H23 H 0.9899 0.74749 0.08072 0.0
H24 H 0.9841 0.77616 0.0755 0.0
H25 H 0.96376 0.75753 0.10814 0.0
C26 C 0.7932 0.01877 0.25569 0.0
N27 N 0.77361 1.00934 0.26887 0.0
N28 N 0.80469 1.00691 0.20674 0.0
C29 C 0.80068 0.03989 0.28821 0.0
C30 C 0.79113 0.99015 0.19009 0.0
N31 N 0.77235 0.99163 0.22773 0.0
C32 C 0.79577 0.9732 0.13332 0.0
H33 H 0.79456 0.05347 0.25455 0.0
H34 H 0.81868 0.04079 0.2897 0.0
H35 H 0.79404 0.04182 0.34361 0.0
H36 H 0.81007 0.96352 0.14985 0.0
H37 H 0.79981 0.98131 0.08145 0.0
H38 H 0.78194 0.96183 0.12514 0.0
C39 C 0.53291 0.78934 0.22498 0.0
N40 N 0.54185 0.76961 0.23865 0.0
N41 N 0.54531 0.80079 0.17729 0.0
C42 C 0.51161 0.79689 0.25482 0.0
C43 C 0.56196 0.78717 0.1622 0.0
N44 N 0.5599 0.76836 0.19958 0.0
C45 C 0.57944 0.79187 0.10757 0.0
H46 H 0.49834 0.79076 0.21948 0.0
H47 H 0.51093 0.81493 0.25605 0.0
H48 H 0.509 0.79032 0.30998 0.0
H49 H 0.58873 0.80653 0.12446 0.0
H50 H 0.57185 0.79546 0.05447 0.0
H51 H 0.59091 0.77814 0.10166 0.0
C52 C 0.28986 0.51885 0.08749 0.0
N53 N 0.271 0.50788 0.07482 0.0
N54 N 0.30388 0.50653 0.12688 0.0
C55 C 0.29403 0.54193 0.06514 0.0
C56 C 0.29272 0.4877 0.13748 0.0
N57 N 0.27273 0.48857 0.10666 0.0
C58 C 0.30084 0.46905 0.18272 0.0
H59 H 0.31172 0.54546 0.06327 0.0
H60 H 0.28637 0.55298 0.10504 0.0
H61 H 0.28662 0.54513 1.0115 0.0
H62 H 0.30375 0.47477 0.23891 0.0
H63 H 0.31649 0.46314 0.16099 0.0
H64 H 0.28931 0.45513 0.18308 0.0
C65 C 0.03882 0.29049 0.09635 0.0
N66 N 0.04692 0.27034 0.08366 0.0
N67 N 0.0499 0.3005 0.15087 0.0
C68 C 0.01948 0.29986 0.05858 0.0
C69 C 0.06477 0.28554 0.17133 0.0
N70 N 0.06304 0.26733 0.13036 0.0
C71 C 0.07983 0.28815 0.23478 0.0
H72 H 0.02035 0.3179 0.05837 0.0
H73 H 1.00457 0.29483 0.08795 0.0
H74 H 0.01836 0.2936 1.00233 0.0
H75 H 0.07046 0.28577 0.28538 0.0
H76 H 0.08679 0.30484 0.23597 0.0
H77 H 0.09319 0.27612 0.23285 0.0
C78 C 0.24996 0.04859 0.02405 0.0
N79 N 0.27083 0.05569 0.01943 0.0
N80 N 0.23902 0.05978 0.07588 0.0
C81 C 0.24091 0.02952 0.98311 0.0
C82 C 0.2541 0.0737 0.10291 0.0
N83 N 0.27343 0.07121 0.06904 0.0
C84 C 0.25031 0.08844 0.16662 0.0
H85 H 0.22293 0.03035 0.98014 0.0
H86 H 0.24549 1.01435 1.01163 0.0
H87 H 0.24788 0.02891 0.92782 0.0
H88 H 0.24983 0.07854 0.21672 0.0
H89 H 0.23437 0.09661 0.16117 0.0
H90 H 0.26332 0.10093 0.17153 0.0
C91 C 0.50768 0.26197 0.06774 0.0
N92 N 0.49984 0.28264 0.06548 0.0
N93 N 0.50068 0.25149 0.12832 0.0
C94 C 0.52168 0.25187 1.0107 0.0
C95 C 0.48865 0.26661 0.16309 0.0
N96 N 0.48799 0.28535 0.12492 0.0
C97 C 0.47945 0.26373 0.23803 0.0
H98 H 0.51933 0.23396 1.00931 0.0
H99 H 0.53896 0.25534 0.02369 0.0
H100 H 0.51802 0.25889 0.95682 0.0
H101 H 0.48823 0.25097 0.2685 0.0
H102 H 0.46213 0.25883 0.23352 0.0
H103 H 0.48038 0.27916 0.26919 0.0
C104 C 0.05611 0.06198 0.82301 0.0
C105 C 0.03307 0.06091 0.92891 0.0
C106 C 0.03932 0.05243 0.86117 0.0
C107 C 0.04303 0.08001 0.95507 0.0
C108 C 0.06711 0.08034 0.85095 0.0
C109 C 0.06004 0.08971 0.91615 0.0
N110 N 0.06233 0.05265 0.75988 0.0
C111 C 0.08063 0.05959 0.72497 0.0
C112 C 0.08515 0.08838 0.81324 0.0
C113 C 0.09214 0.07774 0.75059 0.0
Gd114 Gd 1.00016 0.03999 0.55849 0.0
Gd115 Gd 0.04091 0.02362 0.71696 0.0
N116 N 0.03032 0.03385 0.83466 0.0
C117 C 0.01767 0.04941 0.96956 0.0
C118 C 0.01692 0.02155 0.87704 0.0
C119 C 1.00994 0.02938 0.94418 0.0
H120 H 1.01163 1.00565 0.85915 0.0
H121 H 0.99879 0.01985 0.9766 0.0
H122 H 0.02778 0.03085 0.40792 0.0
H123 H 0.08587 0.05147 0.67614 0.0
H124 H 0.02792 1.00449 0.30638 0.0
H125 H 1.01242 0.05535 0.02189 0.0
H126 H 0.03823 0.08696 1.00645 0.0
H127 H 0.95062 0.03335 0.63879 0.0
H128 H 0.09405 0.10247 0.83285 0.0
H129 H 0.10632 0.08358 0.72186 0.0
H130 H 0.969 0.95564 0.36117 0.0
H131 H 0.06801 0.10406 0.93794 0.0
H132 H 0.92288 0.97407 0.56006 0.0
H133 H 0.92174 1.00569 0.64282 0.0
N134 N 0.96996 0.01606 0.5625 0.0
C135 C 0.96993 0.99979 0.5124 0.0
C136 C 0.95224 0.01896 0.60586 0.0
C137 C 0.93609 0.98579 0.5599 0.0
C138 C 0.93543 1.00357 0.60687 0.0
C139 C 0.95311 0.9841 0.51022 0.0
H140 H 0.94065 0.9555 0.45481 0.0
N141 N 1.00165 0.01527 0.46231 0.0
C142 C 0.98593 0.99972 0.45969 0.0
C143 C 1.001 0.98581 0.34829 0.0
C144 C 0.98548 0.98421 0.4034 0.0
C145 C 0.01617 0.01761 0.40711 0.0
C146 C 0.01619 1.00281 0.34956 0.0
O147 O 0.03873 0.05841 0.67631 0.0
O148 O 1.00296 0.06397 0.65197 0.0
O149 O 1.00445 0.06841 0.49078 0.0
O150 O 0.97295 0.053 0.49742 0.0
O151 O 1.00508 1.0149 0.73172 0.0
O152 O 0.98674 0.0422 0.67294 0.0
O153 O 0.02007 1.00884 0.55512 0.0
O154 O 0.01821 0.99792 0.6716 0.0
O155 O 0.05799 1.00478 0.79822 0.0
O156 O 0.06651 1.00143 0.6856 0.0
O157 O 0.03529 0.04903 0.53487 0.0
O158 O 0.05673 0.02658 0.60632 0.0
C159 C 0.02129 0.07041 0.68192 0.0
C160 C 0.98835 0.02811 0.72639 0.0
C161 C 0.98493 0.06452 0.38147 0.0
C162 C 1.00237 0.07181 0.26522 0.0
C163 C 0.96982 0.04942 0.27032 0.0
C164 C 0.96907 0.05195 0.34547 0.0
C165 C 0.98633 0.05936 0.23017 0.0
C166 C 1.00146 0.07442 0.34064 0.0
C167 C 0.98531 0.06636 0.46141 0.0
C168 C 0.96941 0.96793 0.40327 0.0
C169 C 0.9533 0.96782 0.45674 0.0
H170 H 1.00114 0.97427 0.30391 0.0
C171 C 0.01868 0.99307 0.60262 0.0
C172 C 0.05374 0.03898 0.54883 0.0
C173 C 0.0632 0.96922 0.75188 0.0
C174 C 0.04018 0.93914 0.79139 0.0
C175 C 0.06601 0.93377 0.6941 0.0
C176 C 0.07281 0.95543 0.70049 0.0
C177 C 0.04961 0.92568 0.73887 0.0
C178 C 0.0471 0.9608 0.79801 0.0
C179 C 0.0676 0.99283 0.7497 0.0
H180 H 0.95757 0.0397 0.24311 0.0
H181 H 0.95622 0.04389 0.37528 0.0
H182 H 0.98663 0.05729 0.17199 0.0
H183 H 0.01361 0.08439 0.36761 0.0
H184 H 0.07324 0.92334 0.65365 0.0
H185 H 0.08505 0.96161 0.66371 0.0
H186 H 0.04443 0.90889 0.73301 0.0
H187 H 0.03926 0.97121 0.8374 0.0
C188 C 0.50932 0.95861 0.62227 0.0
C189 C 0.47279 0.95194 0.6657 0.0
C190 C 0.48874 0.96629 0.63831 0.0
C191 C 0.47838 0.93038 0.68228 0.0
C192 C 0.51469 0.93669 0.63522 0.0
C193 C 0.49929 0.92278 0.66712 0.0
N194 N 0.52395 0.9725 0.59224 0.0
C195 C 0.54383 0.96529 0.5701 0.0
C196 C 0.53529 0.92934 0.61487 0.0
C197 C 0.54983 0.94365 0.58141 0.0
Gd198 Gd 0.53148 0.04601 0.74614 0.0
Gd199 Gd 0.51304 1.00888 0.58013 0.0
N200 N 0.48379 0.98721 0.62135 0.0
C201 C 0.45143 0.95935 0.67199 0.0
C202 C 0.46253 0.99338 0.61809 0.0
C203 C 0.44617 0.97996 0.646 0.0
H204 H 0.45802 1.00862 0.5936 0.0
H205 H 0.42947 0.98537 0.64614 0.0
H206 H 0.57135 0.07092 0.65008 0.0
H207 H 0.55519 0.97643 0.54512 0.0
H208 H 0.58246 0.10808 0.61839 0.0
H209 H 0.4387 0.94885 0.69272 0.0
H210 H 0.46642 0.91925 0.70443 0.0
H211 H 0.48972 0.05143 0.86159 0.0
H212 H 0.54002 0.91261 0.62395 0.0
H213 H 0.5657 0.93806 0.56484 0.0
H214 H 0.53051 0.15349 0.73775 0.0
H215 H 0.50322 0.90596 0.67848 0.0
H216 H 0.47539 0.11919 0.88094 0.0
H217 H 0.46717 0.08086 0.91148 0.0
N218 N 0.50979 0.07274 0.80016 0.0
C219 C 0.51497 0.09371 0.78419 0.0
C220 C 0.49312 0.06802 0.84626 0.0
C221 C 0.48519 0.10631 0.8581 0.0
C222 C 0.48046 0.08469 0.87537 0.0
C223 C 0.50272 0.11108 0.81257 0.0
H224 H 0.49914 0.14613 0.81629 0.0
N225 N 0.54422 0.08079 0.71318 0.0
C226 C 0.5328 0.09788 0.7402 0.0
C227 C 0.55664 0.12312 0.67854 0.0
C228 C 0.53864 0.1195 0.72309 0.0
C229 C 0.56209 0.08428 0.67096 0.0
C230 C 0.56845 0.10544 0.65265 0.0
O231 O 0.53251 0.99512 0.67465 0.0
O232 O 0.51689 1.01292 0.76757 0.0
O233 O 0.55916 0.03231 0.80302 0.0
O234 O 0.53886 0.05618 0.85585 0.0
O235 O 0.48771 0.03109 0.63411 0.0
O236 O 0.49839 0.03031 0.75235 0.0
O237 O 0.51866 0.06406 0.64747 0.0
O238 O 0.52617 0.04203 0.54982 0.0
O239 O 0.49217 0.01595 0.48881 0.0
O240 O 0.5187 0.99358 0.4757 0.0
O241 O 0.55989 0.03452 0.67563 0.0
O242 O 0.54806 0.01865 0.56741 0.0
C243 C 0.52568 0.99525 0.74169 0.0
C244 C 0.48305 0.0324 0.70365 0.0
C245 C 0.5497 0.02605 0.92451 0.0
C246 C 0.56375 1.00226 0.01854 0.0
C247 C 0.52511 1.00292 0.99329 0.0
C248 C 0.52859 0.01849 0.93961 0.0
C249 C 0.54262 0.99464 0.03219 0.0
C250 C 0.56721 0.01801 0.96458 0.0
C251 C 0.55351 0.04123 0.86427 0.0
C252 C 0.5263 0.13679 0.75055 0.0
C253 C 0.50841 0.1326 0.79518 0.0
H254 H 0.56159 0.13948 0.66399 0.0
C255 C 0.52188 0.06119 0.57771 0.0
C256 C 0.56351 0.02607 0.61065 0.0
C257 C 0.48732 0.98813 0.4034 0.0
C258 C 0.45853 0.98574 0.31344 0.0
C259 C 0.47042 0.95327 0.37665 0.0
C260 C 0.48555 0.96566 0.4158 0.0
C261 C 0.45677 0.96327 0.32621 0.0
C262 C 0.47407 0.99793 0.35154 0.0
C263 C 0.50175 1.00224 0.44605 0.0
H264 H 0.50882 0.99709 1.00415 0.0
H265 H 0.51479 0.02435 0.9092 0.0
H266 H 0.53967 0.98248 0.07342 0.0
H267 H 0.58355 0.02362 0.95269 0.0
H268 H 0.46895 0.93597 0.38656 0.0
H269 H 0.49553 0.95778 0.45618 0.0
H270 H 0.44469 0.95357 0.29797 0.0
H271 H 0.47509 0.0154 0.34364 0.0
C272 C 0.47371 0.50263 0.83309 0.0
C273 C 0.49167 0.488 0.93942 0.0
C274 C 0.49098 0.50284 0.88148 0.0
C275 C 0.47529 0.47215 0.94596 0.0
C276 C 0.45675 0.4873 0.84149 0.0
C277 C 0.45792 0.47174 0.89692 0.0
N278 N 0.47286 0.51816 0.78069 0.0
C279 C 0.45435 0.52063 0.74071 0.0
C280 C 0.43872 0.48856 0.79566 0.0
C281 C 0.43733 0.50556 0.74605 0.0
Gd282 Gd 0.54045 0.52198 0.61239 0.0
Gd283 Gd 0.50334 0.54167 0.77481 0.0
N284 N 0.50699 0.51788 0.87256 0.0
C285 C 0.50866 0.48974 0.98963 0.0
C286 C 0.52299 0.52042 0.92313 0.0
C287 C 0.5242 0.50625 0.98203 0.0
H288 H 0.53481 0.53335 0.91765 0.0
H289 H 0.53709 0.50807 0.02148 0.0
H290 H 0.50921 0.50167 0.47837 0.0
H291 H 0.45221 0.53446 0.70577 0.0
H292 H 0.49747 0.51226 0.35567 0.0
H293 H 0.5097 0.4787 0.03508 0.0
H294 H 0.47569 0.46039 0.98952 0.0
H295 H 0.58722 0.54766 0.64408 0.0
H296 H 0.42537 0.47708 0.80034 0.0
H297 H 0.42295 0.50734 0.71291 0.0
H298 H 0.54323 0.57333 0.29837 0.0
H299 H 0.44514 0.45972 0.90365 0.0
H300 H 0.60058 0.59013 0.46564 0.0
H301 H 0.61087 0.57509 0.58496 0.0
N302 N 0.56379 0.54769 0.55968 0.0
C303 C 0.55846 0.55485 0.49266 0.0
C304 C 0.58269 0.55419 0.59203 0.0
C305 C 0.59021 0.57812 0.4913 0.0
C306 C 0.59609 0.56966 0.55866 0.0
C307 C 0.57132 0.57055 0.45699 0.0
H308 H 0.57469 0.59 0.35988 0.0
N309 N 0.53024 0.52889 0.4918 0.0
C310 C 0.54085 0.54541 0.4581 0.0
C311 C 0.51901 0.53998 0.35081 0.0
C312 C 0.53545 0.55153 0.38683 0.0
C313 C 0.51573 0.5163 0.45444 0.0
C314 C 0.50943 0.52198 0.38428 0.0
O315 O 0.52228 0.50994 0.77622 0.0
O316 O 0.5166 0.49839 0.66225 0.0
O317 O 0.55643 0.50049 0.53609 0.0
O318 O 0.56397 0.49837 0.65006 0.0
O319 O 0.5387 0.55148 0.7874 0.0
O320 O 0.55819 0.52662 0.71949 0.0
O321 O 0.53979 0.55817 0.64025 0.0
O322 O 0.50507 0.56465 0.67912 0.0
O323 O 0.50957 0.57018 0.84092 0.0
O324 O 0.47751 0.55586 0.83952 0.0
O325 O 0.504 0.51555 0.60134 0.0
O326 O 0.48731 0.54337 0.66353 0.0
C327 C 0.51845 0.49392 0.73106 0.0
C328 C 0.55651 0.54038 0.77415 0.0
C329 C 0.55861 0.46546 0.58846 0.0
C330 C 0.53353 0.43658 0.55209 0.0
C331 C 0.55945 0.43038 0.64882 0.0
C332 C 0.56753 0.45154 0.64065 0.0
C333 C 0.54243 0.42294 0.60508 0.0
C334 C 0.54173 0.45773 0.54387 0.0
C335 C 0.56477 0.48868 0.58746 0.0
C336 C 0.54729 0.56822 0.35276 0.0
C337 C 0.56525 0.57767 0.38772 0.0
H338 H 0.51436 0.54417 0.29606 0.0
C339 C 0.5225 0.57068 0.64292 0.0
C340 C 0.48775 0.52922 0.60962 0.0
C341 C 0.49183 0.56704 0.9533 0.0
C342 C 0.51134 0.57439 0.06617 0.0
C343 C 0.47925 0.55126 0.06646 0.0
C344 C 0.47698 0.554 0.99177 0.0
C345 C 0.49629 0.56143 0.10367 0.0
C346 C 0.50888 0.57723 0.99121 0.0
C347 C 0.49087 0.56883 0.87342 0.0
H348 H 0.56622 0.41983 0.68976 0.0
H349 H 0.58031 0.45724 0.67642 0.0
H350 H 0.53635 0.4065 0.61216 0.0
H351 H 0.53437 0.46833 0.50412 0.0
H352 H 0.46779 0.54114 0.09556 0.0
H353 H 0.46381 0.54567 0.96419 0.0
H354 H 0.49778 0.55911 0.16152 0.0
H355 H 0.52028 0.58752 0.96226 0.0
C356 C 0.04905 0.49028 0.87788 0.0
C357 C 0.04762 0.51371 0.98322 0.0
C358 C 0.03975 0.50753 0.91448 0.0
C359 C 0.06582 0.50311 1.01229 0.0
C360 C 0.06632 0.47859 0.90896 0.0
C361 C 0.07512 0.48554 0.9753 0.0
N362 N 0.04026 0.48409 0.81373 0.0
C363 C 0.04644 0.46517 0.781 0.0
C364 C 0.0737 0.45987 0.87353 0.0
C365 C 0.06344 0.45291 0.80995 0.0
Gd366 Gd 0.02874 0.54559 0.60701 0.0
Gd367 Gd 1.01231 0.5058 0.76788 0.0
N368 N 0.02182 0.51694 0.88572 0.0
C369 C 0.03635 0.52962 0.02204 0.0
C370 C 1.00964 0.53087 0.92628 0.0
C371 C 0.017 0.5379 0.99405 0.0
H372 H 0.99417 0.53658 0.90651 0.0
H373 H 1.00761 0.54946 0.02503 0.0
H374 H 0.01362 0.51849 0.45987 0.0
H375 H 0.03855 0.45993 0.73162 0.0
H376 H 0.98454 0.51962 0.367 0.0
H377 H 0.04187 0.53485 0.07499 0.0
H378 H 0.07229 0.50782 0.0646 0.0
H379 H 0.02823 0.59577 0.68504 0.0
H380 H 0.08691 0.4504 0.89573 0.0
H381 H 0.06869 0.4382 0.78306 0.0
H382 H 0.94156 0.5814 0.43543 0.0
H383 H 0.08864 0.477 0.99955 0.0
H384 H 0.96916 0.62712 0.62506 0.0
H385 H 1.00312 0.62653 0.69666 0.0
N386 N 1.00741 0.57745 0.61528 0.0
C387 C 0.98979 0.57836 0.57107 0.0
C388 C 0.01292 0.59511 0.65662 0.0
C389 C 0.97982 0.61319 0.62148 0.0
C390 C 0.99894 0.6129 0.66208 0.0
C391 C 0.97538 0.59612 0.57344 0.0
H392 H 0.9462 0.61007 0.52746 0.0
N393 N 1.00165 0.54584 0.51749 0.0
C394 C 0.9871 0.5623 0.5194 0.0
C395 C 0.96904 0.54771 0.41367 0.0
C396 C 0.97008 0.56344 0.46852 0.0
C397 C 1.00141 0.53105 0.46219 0.0
C398 C 0.98499 0.53164 0.40984 0.0
O399 O 0.04778 0.50701 0.73139 0.0
O400 O 0.05388 0.54223 0.69651 0.0
O401 O 0.0497 0.53908 0.51661 0.0
O402 O 0.04678 0.57203 0.55556 0.0
O403 O 1.00463 0.54183 0.78059 0.0
O404 O 0.0327 0.55884 0.72164 0.0
O405 O 0.99703 0.52626 0.60842 0.0
O406 O 0.98676 0.52887 0.72525 0.0
O407 O 0.99384 0.48833 0.8492 0.0
O408 O 0.98933 0.48061 0.73617 0.0
O409 O 0.03846 0.51035 0.58855 0.0
O410 O 0.01462 0.48979 0.65756 0.0
C411 C 0.06041 0.52434 0.72875 0.0
C412 C 0.01853 0.55808 0.77493 0.0
C413 C 0.08063 0.56082 0.50515 0.0
C414 C 0.11372 0.54674 0.45051 0.0
C415 C 0.11573 0.57508 0.54242 0.0
C416 C 0.09309 0.57497 0.54838 0.0
C417 C 0.12605 0.56095 0.49417 0.0
C418 C 0.09105 0.54706 0.45581 0.0
C419 C 0.05691 0.55891 0.51199 0.0
C420 C 0.95498 0.58042 0.47323 0.0
C421 C 0.95759 0.59671 0.52577 0.0
H422 H 0.95624 0.54804 0.37343 0.0
C423 C 0.9816 0.52867 0.65655 0.0
C424 C 0.02773 0.49212 0.60172 0.0
C425 C 0.95845 0.4812 0.8087 0.0
C426 C 0.92784 0.50526 0.83183 0.0
C427 C 0.92181 0.46684 0.80447 0.0
C428 C 0.94417 0.46367 0.79841 0.0
C429 C 0.91366 0.48741 0.82164 0.0
C430 C 0.95023 0.50195 0.82368 0.0
C431 C 0.98191 0.47824 0.80145 0.0
H432 H 0.12533 0.58594 0.57592 0.0
H433 H 0.08543 0.58569 0.58716 0.0
H434 H 0.14361 0.56115 0.4909 0.0
H435 H 0.08141 0.53587 0.4234 0.0
H436 H 0.91077 0.45325 0.79703 0.0
H437 H 0.95031 0.44763 0.78575 0.0
H438 H 0.89631 0.48905 0.82904 0.0
H439 H 0.96144 0.51546 0.82963 0.0
C440 C 0.20068 0.06895 0.09937 0.0
C441 C 0.2183 0.05487 0.10875 0.0
C442 C 0.18173 0.06647 0.14079 0.0
C443 C 0.15301 0.02815 0.26794 0.0
H444 H 0.12443 0.08083 0.3319 0.0
C445 C 0.09086 0.02844 0.50349 0.0
C446 C 0.07207 0.04123 0.49626 0.0
C447 C 0.10781 0.02988 0.4531 0.0
C448 C 0.13204 0.06592 0.314 0.0
H449 H 0.23012 0.02722 0.16828 0.0
H450 H 0.19732 0.02282 0.24156 0.0
H451 H 0.1551 0.08326 0.24914 0.0
H452 H 0.05667 0.06575 0.42961 0.0
H453 H 0.08634 0.06838 0.34221 0.0
H454 H 0.13021 1.01091 0.33448 0.0
C455 C 0.19765 0.03551 0.20107 0.0
C456 C 0.14967 0.06729 0.26607 0.0
C457 C 0.2165 0.03794 0.15912 0.0
C458 C 0.07086 0.05567 0.43731 0.0
C459 C 0.08793 0.05723 0.38717 0.0
C460 C 0.13551 0.02682 0.31635 0.0
C461 C 0.18005 0.04998 0.19355 0.0
C462 C 0.16056 0.04842 0.24245 0.0
C463 C 0.10661 0.04425 0.39409 0.0
C464 C 0.12484 0.04569 0.34048 0.0
H465 H 0.2019 0.0823 0.06144 0.0
H466 H 0.16853 0.07771 0.13207 0.0
H467 H 0.16054 1.01318 0.25027 0.0
H468 H 0.09248 0.01711 0.54791 0.0
H469 H 0.12202 0.01984 0.46092 0.0
C470 C 0.48741 0.21553 0.16736 0.0
C471 C 0.50491 0.22968 0.1539 0.0
C472 C 0.4903 0.19645 0.20753 0.0
C473 C 0.53152 0.15839 0.28401 0.0
H474 H 0.48606 0.14677 0.42388 0.0
C475 C 0.52831 0.07896 0.45638 0.0
C476 C 0.52116 0.08049 0.52855 0.0
C477 C 0.52735 0.09696 0.40981 0.0
C478 C 0.49903 0.14979 0.38565 0.0
H479 H 0.53933 0.23465 0.16971 0.0
H480 H 0.54464 0.20111 0.23971 0.0
H481 H 0.48282 0.17763 0.34253 0.0
H482 H 0.5073 0.10248 0.60762 0.0
H483 H 0.50593 0.13382 0.5272 0.0
H484 H 0.54786 0.13065 0.32828 0.0
C485 C 0.52862 0.20462 0.2187 0.0
C486 C 0.49703 0.16741 0.33803 0.0
C487 C 0.52567 0.22378 0.17826 0.0
C488 C 0.51312 0.10063 0.55277 0.0
C489 C 0.51213 0.11861 0.5062 0.0
C490 C 0.53348 0.14066 0.33155 0.0
C491 C 0.51081 0.19101 0.23586 0.0
C492 C 0.51318 0.17198 0.28623 0.0
C493 C 0.5191 0.11705 0.43379 0.0
C494 C 0.51726 0.13609 0.3832 0.0
H495 H 0.47123 0.21985 0.14962 0.0
H496 H 0.47627 0.18624 0.218 0.0
H497 H 0.54427 0.16128 0.24488 0.0
H498 H 0.53463 0.06378 0.43554 0.0
H499 H 0.53265 0.09496 0.3544 0.0
C500 C 0.34265 0.50026 0.15564 0.0
C501 C 0.32384 0.51287 0.16325 0.0
C502 C 0.36079 0.50374 0.20035 0.0
C503 C 0.3766 0.53042 0.3767 0.0
H504 H 0.43442 0.51349 0.31693 0.0
C505 C 0.45466 0.54587 0.55102 0.0
C506 C 0.46883 0.5281 0.55869 0.0
C507 C 0.43715 0.54501 0.50218 0.0
C508 C 0.41835 0.51821 0.3346 0.0
H509 H 0.30974 0.53982 0.22133 0.0
H510 H 0.34173 0.54694 0.29658 0.0
H511 H 0.40454 0.51164 0.23058 0.0
H512 H 0.47471 0.49502 0.52312 0.0
H513 H 0.44494 0.49395 0.43562 0.0
H514 H 0.39084 0.53758 0.48034 0.0
C515 C 0.34234 0.53368 0.25807 0.0
C516 C 0.40106 0.51704 0.28504 0.0
C517 C 0.32406 0.52993 0.21392 0.0
C518 C 0.46473 0.50933 0.51692 0.0
C519 C 0.44751 0.50864 0.46704 0.0
C520 C 0.394 0.53197 0.42581 0.0
C521 C 0.36087 0.52027 0.2535 0.0
C522 C 0.37975 0.52285 0.30532 0.0
C523 C 0.43349 0.52648 0.45887 0.0
C524 C 0.41507 0.52563 0.40573 0.0
H525 H 0.34304 0.48716 0.11644 0.0
H526 H 0.37439 0.49281 0.19475 0.0
H527 H 0.36057 0.53468 0.39573 0.0
H528 H 0.45722 0.56058 0.58234 0.0
H529 H 0.42671 0.55905 0.49725 0.0
C530 C 0.02864 0.3233 0.23512 0.0
C531 C 0.04574 0.32115 0.18567 0.0
C532 C 0.02626 0.3425 0.27577 0.0
C533 C 0.05775 0.39177 0.33712 0.0
H534 H 1.00104 0.41184 0.3975 0.0
C535 C 0.04509 0.47354 0.4937 0.0
C536 C 0.0302 0.47314 0.55146 0.0
C537 C 0.047 0.45563 0.44658 0.0
C538 C 0.01705 0.4064 0.38163 0.0
H539 H 0.07351 0.33727 0.13862 0.0
H540 H 0.06909 0.37113 0.20706 0.0
H541 H 1.00386 0.38007 0.3191 0.0
H542 H 1.0056 0.45329 0.60407 0.0
H543 H 1.00891 0.42241 0.52245 0.0
H544 H 0.07085 0.41832 0.39935 0.0
C545 C 0.05769 0.35796 0.21628 0.0
C546 C 0.01869 0.38805 0.33659 0.0
C547 C 0.06012 0.33869 0.17622 0.0
C548 C 0.01728 0.45434 0.56043 0.0
C549 C 0.01905 0.43658 0.51311 0.0
C550 C 0.05609 0.41024 0.3817 0.0
C551 C 0.04091 0.36011 0.26771 0.0
C552 C 0.03908 0.38027 0.31393 0.0
C553 C 0.03392 0.43691 0.45538 0.0
C554 C 0.03572 0.41773 0.40521 0.0
H555 H 0.01759 0.30981 0.24402 0.0
H556 H 0.01333 0.34319 0.31527 0.0
H557 H 0.0738 0.38624 0.32234 0.0
H558 H 0.0553 0.48769 0.48474 0.0
H559 H 0.05852 0.45659 0.40248 0.0
C560 C 0.84198 0.99664 0.17143 0.0
C561 C 0.82512 1.01192 0.17163 0.0
C562 C 0.86045 0.9997 0.12828 0.0
C563 C 0.87913 0.03034 0.96509 0.0
H564 H 0.93542 1.0075 0.01918 0.0
C565 C 0.95633 0.04455 0.79051 0.0
C566 C 0.9703 0.02677 0.78016 0.0
C567 C 0.93922 0.04346 0.84038 0.0
C568 C 0.91977 1.01382 1.00294 0.0
H569 H 0.81474 0.04286 0.12907 0.0
H570 H 0.84734 0.04883 0.05559 0.0
H571 H 0.90525 1.00533 0.1043 0.0
H572 H 0.97675 0.99365 0.81348 0.0
H573 H 0.94718 0.99188 0.90158 0.0
H574 H 0.89379 0.03899 0.86394 0.0
C575 C 0.84614 0.03409 0.08729 0.0
C576 C 0.90237 1.01256 0.05185 0.0
C577 C 0.82758 0.0309 0.13026 0.0
C578 C 0.96663 1.00782 0.82106 0.0
C579 C 0.94962 1.0068 0.87156 0.0
C580 C 0.89657 0.03176 0.91649 0.0
C581 C 0.8627 0.01829 0.08431 0.0
C582 C 0.88169 0.02065 0.0336 0.0
C583 C 0.9356 0.02459 0.88176 0.0
C584 C 0.91712 0.0234 0.93444 0.0
H585 H 0.84053 0.98195 0.2033 0.0
H586 H 0.87257 0.98701 0.12748 0.0
H587 H 0.86348 0.03639 0.94795 0.0
H588 H 0.95866 0.05943 0.76015 0.0
H589 H 0.92894 0.05756 0.84715 0.0
C590 C 0.52331 0.82402 0.09616 0.0
C591 C 0.54107 0.8215 0.14306 0.0
C592 C 0.52087 0.84319 0.05558 0.0
C593 C 0.55318 0.89073 0.98734 0.0
H594 H 0.49661 0.91364 0.93765 0.0
C595 C 0.54305 0.95959 0.77509 0.0
C596 C 0.52712 0.97542 0.78765 0.0
C597 C 0.54436 0.94099 0.81885 0.0
C598 C 0.51258 0.90762 0.95139 0.0
H599 H 0.56967 0.83722 0.18659 0.0
H600 H 0.5653 0.87087 0.11771 0.0
H601 H 0.49922 0.88187 0.01583 0.0
H602 H 0.49997 0.98402 0.85608 0.0
H603 H 0.50253 0.95202 0.93347 0.0
H604 H 0.56657 0.91678 0.92447 0.0
C605 C 0.55347 0.85796 0.11033 0.0
C606 C 0.51408 0.88914 0.99572 0.0
C607 C 0.55592 0.83877 0.15045 0.0
C608 C 0.51252 0.97219 0.84508 0.0
C609 C 0.51386 0.95366 0.88905 0.0
C610 C 0.55169 0.90922 0.94321 0.0
C611 C 0.53613 0.86036 0.06109 0.0
C612 C 0.53441 0.88035 0.01445 0.0
C613 C 0.52982 0.93774 0.87676 0.0
C614 C 0.53137 0.91796 0.92428 0.0
H615 H 0.51182 0.81079 0.08888 0.0
H616 H 0.50743 0.84417 0.01796 0.0
H617 H 0.56916 0.88441 0.99932 0.0
H618 H 0.55465 0.96166 0.73167 0.0
H619 H 0.5567 0.92905 0.80671 0.0
C620 C 0.71945 0.53625 0.16609 0.0
C621 C 0.72246 0.55408 0.21262 0.0
C622 C 0.70033 0.53404 0.12506 0.0
C623 C 0.65456 0.56762 0.05263 0.0
H624 H 0.63173 0.51153 0.99259 0.0
C625 C 0.57538 0.55841 0.88066 0.0
C626 C 0.57534 0.54266 0.82512 0.0
C627 C 0.59264 0.55978 0.93037 0.0
C628 C 0.63799 0.52736 1.00827 0.0
H629 H 0.70782 0.58336 0.25393 0.0
H630 H 0.67394 0.57919 0.18533 0.0
H631 H 0.66193 0.51327 0.07781 0.0
H632 H 0.59379 0.51606 0.77899 0.0
H633 H 0.62368 0.51846 0.86527 0.0
H634 H 0.63044 0.58166 0.98332 0.0
C635 C 0.68642 0.567 0.17898 0.0
C636 C 0.65541 0.52838 0.05735 0.0
C637 C 0.70564 0.56924 0.21951 0.0
C638 C 0.59315 0.52844 0.8207 0.0
C639 C 0.61029 0.52969 0.87077 0.0
C640 C 0.63702 0.5666 1.004 0.0
C641 C 0.68366 0.54967 0.12945 0.0
C642 C 0.66417 0.54853 0.07999 0.0
C643 C 0.61028 0.54531 0.92661 0.0
C644 C 0.62858 0.54645 0.98046 0.0
H645 H 0.73248 0.52472 0.15839 0.0
H646 H 0.69919 0.52065 0.08714 0.0
H647 H 0.66094 0.58349 0.06715 0.0
H648 H 0.56197 0.56961 0.88623 0.0
H649 H 0.59195 0.57194 0.97273 0.0
C650 C 0.9858 0.71273 0.18614 0.0
C651 C 1.00343 0.72672 0.20015 0.0
C652 C 0.98869 0.69317 0.14822 0.0
C653 C 0.0254 0.66815 0.01332 0.0
H654 H 0.99222 0.61578 0.0533 0.0
C655 C 0.03601 0.5895 0.84131 0.0
C656 C 0.01753 0.5766 0.82728 0.0
C657 C 0.03514 0.60695 0.89039 0.0
C658 C 1.00144 0.63032 0.04059 0.0
H659 H 0.03799 0.73108 0.18675 0.0
H660 H 0.04333 0.69668 0.12107 0.0
H661 H 0.98964 0.64691 0.13477 0.0
H662 H 0.98346 0.57236 0.85295 0.0
H663 H 0.98181 0.60282 0.93764 0.0
H664 H 0.03686 0.65183 0.91839 0.0
C665 C 0.02716 0.70082 0.13923 0.0
C666 C 1.00002 0.64822 0.08773 0.0
C667 C 0.02423 0.72035 0.1778 0.0
C668 C 0.99811 0.58172 0.8633 0.0
C669 C 0.9972 0.59922 0.91221 0.0
C670 C 0.02674 0.6503 0.96597 0.0
C671 C 1.00933 0.68715 0.12241 0.0
C672 C 1.01188 0.66749 0.07466 0.0
C673 C 0.01571 0.61216 0.92667 0.0
C674 C 0.01469 0.63109 0.97848 0.0
H675 H 0.96955 0.71755 0.20152 0.0
H676 H 0.97452 0.68333 0.13585 0.0
H677 H 0.0345 0.68277 1.00048 0.0
H678 H 0.05126 0.58597 0.81478 0.0
H679 H 0.04986 0.61619 0.90049 0.0
C680 C 0.0663 0.23509 0.20675 0.0
C681 C 0.07248 0.24645 0.14455 0.0
C682 C 0.06978 0.21274 0.21153 0.0
C683 C 0.06988 0.16665 0.0897 0.0
H684 H 0.07417 0.1356 0.27117 0.0
C685 C 0.01357 0.0976 0.16794 0.0
C686 C 0.0194 0.08344 0.22398 0.0
C687 C 0.02858 0.11276 0.14168 0.0
C688 C 0.07346 0.14368 0.21926 0.0
H689 H 0.08889 0.24424 0.04171 0.0
H690 H 0.09489 0.20486 0.04924 0.0
H691 H 0.0873 0.17278 0.26368 0.0
H692 H 0.04604 0.07183 0.28969 0.0
H693 H 0.07249 0.09796 0.24272 0.0
H694 H 0.0552 0.13779 0.04606 0.0
C695 C 0.08725 0.21315 0.09419 0.0
C696 C 0.0808 0.16515 0.21534 0.0
C697 C 0.08393 0.23559 0.08993 0.0
C698 C 0.04109 0.08296 0.24747 0.0
C699 C 0.05618 0.09793 0.22066 0.0
C700 C 0.0626 0.14509 0.0935 0.0
C701 C 0.0794 0.20135 0.1538 0.0
C702 C 0.07792 0.17725 0.15181 0.0
C703 C 0.04974 0.11387 0.17066 0.0
C704 C 0.06315 0.13379 0.15952 0.0
H705 H 0.05713 0.24318 0.24878 0.0
H706 H 0.06325 0.20416 0.25781 0.0
H707 H 0.0675 0.1755 0.03977 0.0
H708 H 0.99695 0.09825 0.14884 0.0
H709 H 0.02295 0.12477 0.10335 0.0
C710 C 0.3005 0.07074 0.16566 0.0
C711 C 0.29433 0.07774 0.09664 0.0
C712 C 0.32235 0.06982 0.18454 0.0
C713 C 0.36995 0.06907 0.21663 0.0
H714 H 0.39689 0.03297 0.06977 0.0
C715 C 0.4496 1.01318 0.21812 0.0
C716 C 0.44263 0.99733 0.26793 0.0
C717 C 0.43464 0.02736 0.18663 0.0
C718 C 0.38976 0.04338 0.11062 0.0
H719 H 0.30567 0.09167 0.99625 0.0
H720 H 0.3443 0.08958 0.02848 0.0
H721 H 0.36517 0.0549 0.03865 0.0
H722 H 0.41466 0.9832 0.32151 0.0
H723 H 0.38856 1.00813 0.26689 0.0
H724 H 0.39349 0.05605 0.28982 0.0
C725 C 0.33221 0.08483 0.06799 0.0
C726 C 0.37174 0.05606 0.0929 0.0
C727 C 0.3102 0.08613 0.04969 0.0
C728 C 0.4204 0.99508 0.28266 0.0
C729 C 0.40554 1.00942 0.25206 0.0
C730 C 0.38777 0.05627 0.23436 0.0
C731 C 0.33848 0.07563 0.13429 0.0
C732 C 0.361 0.06816 0.14675 0.0
C733 C 0.41266 0.02599 0.20554 0.0
C734 C 0.39716 0.04267 0.18225 0.0
H735 H 0.28862 0.06381 0.20216 0.0
H736 H 0.32656 0.06241 0.23573 0.0
H737 H 0.3622 0.07847 0.25888 0.0
H738 H 0.46671 1.01519 0.20609 0.0
H739 H 0.44035 0.04005 0.15066 0.0
C740 C 0.45833 0.30754 0.17611 0.0
C741 C 0.47974 0.30582 0.15055 0.0
C742 C 0.45136 0.32679 0.20904 0.0
C743 C 0.45951 0.35894 0.33725 0.0
H744 H 0.47312 0.41695 0.26833 0.0
C745 C 0.49714 0.41913 0.53219 0.0
C746 C 0.51601 0.42873 0.50395 0.0
C747 C 0.48146 0.41021 0.48606 0.0
C748 C 0.46909 0.40092 0.28864 0.0
H749 H 0.51031 0.32281 0.13666 0.0
H750 H 0.49787 0.3567 0.19012 0.0
H751 H 0.46521 0.38796 0.18165 0.0
H752 H 0.5329 0.43767 0.40579 0.0
H753 H 0.50648 0.42106 0.32531 0.0
H754 H 0.46627 0.37068 0.44312 0.0
C755 C 0.48645 0.3433 0.18476 0.0
C756 C 0.46423 0.38445 0.23896 0.0
C757 C 0.4936 0.32394 0.15431 0.0
C758 C 0.51847 0.43028 0.42884 0.0
C759 C 0.50308 0.42099 0.38271 0.0
C760 C 0.46486 0.37523 0.38682 0.0
C761 C 0.46553 0.34469 0.21436 0.0
C762 C 0.4609 0.36306 0.26292 0.0
C763 C 0.48466 0.41021 0.41073 0.0
C764 C 0.47136 0.39598 0.36259 0.0
H765 H 0.44739 0.29372 0.17318 0.0
H766 H 0.43529 0.32746 0.2327 0.0
H767 H 0.45705 0.34251 0.35686 0.0
H768 H 0.49467 0.41816 0.58984 0.0
H769 H 0.46729 0.40251 0.50966 0.0
C770 C 0.24864 0.47311 0.19846 0.0
C771 C 0.25431 0.4752 0.12544 0.0
C772 C 0.22786 0.46646 0.21784 0.0
C773 C 0.18164 0.4555 0.25045 0.0
H774 H 0.15269 0.50571 0.16929 0.0
C775 C 0.14201 0.51863 0.42619 0.0
C776 C 0.1242 0.53074 0.40193 0.0
C777 C 0.15137 0.50294 0.38164 0.0
C778 C 0.16001 0.49121 0.19168 0.0
H779 H 0.24369 0.46958 0.01544 0.0
H780 H 0.20646 0.45929 0.04923 0.0
H781 H 0.18197 0.4887 0.10296 0.0
H782 H 0.10209 0.53581 0.31208 0.0
H783 H 0.11851 0.50834 0.2341 0.0
H784 H 0.16071 0.45913 0.34187 0.0
C785 C 0.21834 0.46226 0.09141 0.0
C786 C 0.1768 0.48136 0.15332 0.0
C787 C 0.23952 0.46827 0.07211 0.0
C788 C 0.11578 0.52666 0.33236 0.0
C789 C 0.12516 0.51095 0.28769 0.0
C790 C 0.16476 0.46527 0.28866 0.0
C791 C 0.21205 0.46247 0.16447 0.0
C792 C 0.189 0.4647 0.1854 0.0
C793 C 0.14313 0.49898 0.31176 0.0
C794 C 0.15502 0.48429 0.26215 0.0
H795 H 0.25957 0.47874 0.24054 0.0
H796 H 0.22353 0.46711 0.27457 0.0
H797 H 0.19055 0.44239 0.27569 0.0
H798 H 0.14863 0.52117 0.47987 0.0
H799 H 0.16552 0.49439 0.4013 0.0
C800 C 0.99743 0.82122 0.19048 0.0
C801 C 0.98239 0.80403 0.19157 0.0
C802 C 0.99209 0.84092 0.15855 0.0
C803 C 0.97307 0.88353 0.10363 0.0
H804 H 0.97452 0.87148 0.89801 0.0
C805 C 0.02664 0.93118 0.91513 0.0
C806 C 0.02331 0.9306 0.84024 0.0
C807 C 1.01183 0.92115 0.96146 0.0
C808 C 0.97333 0.87555 0.95483 0.0
H809 H 0.94988 0.79387 0.16185 0.0
H810 H 0.94099 0.82821 0.10011 0.0
H811 H 0.96449 0.84283 0.98125 0.0
H812 H 1.0011 0.92109 0.75515 0.0
H813 H 0.97472 0.90415 0.83582 0.0
H814 H 0.98286 0.916 0.07778 0.0
C815 C 0.95656 0.82655 0.12682 0.0
C816 C 0.96754 0.859 1.00261 0.0
C817 C 0.96171 0.80696 0.16106 0.0
C818 C 1.00421 0.92126 0.8126 0.0
C819 C 0.98912 0.9116 0.85898 0.0
C820 C 0.9784 0.90025 0.05577 0.0
C821 C 0.97184 0.84358 0.12489 0.0
C822 C 0.9689 0.86249 0.07736 0.0
C823 C 0.99317 0.91065 0.93381 0.0
C824 C 0.98026 0.89596 0.98122 0.0
H825 H 0.01363 0.81911 0.21208 0.0
H826 H 1.00435 0.85362 0.15594 0.0
H827 H 0.97403 0.88655 0.16131 0.0
H828 H 0.04127 0.93841 0.93753 0.0
H829 H 0.01584 0.92051 0.01842 0.0
C830 C 0.74242 0.98232 0.14574 0.0
C831 C 0.75241 0.98014 0.21339 0.0
C832 C 0.72102 0.97549 0.13568 0.0
C833 C 0.67174 0.97521 0.23583 0.0
H834 H 0.64794 0.95135 0.05803 0.0
C835 C 0.58615 0.97116 0.06258 0.0
C836 C 0.5823 0.99365 0.0598 0.0
C837 C 0.60488 0.96328 0.09617 0.0
C838 C 0.65423 0.9576 0.10878 0.0
H839 H 0.74872 0.96801 0.32227 0.0
H840 H 0.71066 0.95674 0.30579 0.0
H841 H 0.68639 0.94641 0.08594 0.0
H842 H 0.59401 0.02543 0.09285 0.0
H843 H 0.62661 1.0117 0.15214 0.0
H844 H 0.63995 0.98784 0.25601 0.0
C845 C 0.71952 0.96343 0.26033 0.0
C846 C 0.67622 0.95485 0.1245 0.0
C847 C 0.74115 0.96988 0.26982 0.0
C848 C 0.59679 1.00804 0.09401 0.0
C849 C 0.61527 1.00015 0.12852 0.0
C850 C 0.6498 0.97819 0.21967 0.0
C851 C 0.70912 0.96674 0.19364 0.0
C852 C 0.68532 0.96443 0.18661 0.0
C853 C 0.61974 0.97776 0.12854 0.0
C854 C 0.6411 0.97018 0.15452 0.0
H855 H 0.75075 0.99061 0.10212 0.0
H856 H 0.71328 0.97858 0.08408 0.0
H857 H 0.6784 0.98284 0.2839 0.0
H858 H 0.57516 0.9598 0.0363 0.0
H859 H 0.60802 0.94595 0.09537 0.0
C860 C 0.56979 0.73725 0.1241 0.0
C861 C 0.57194 0.74865 0.18925 0.0
C862 C 0.57602 0.71552 0.11961 0.0
C863 C 0.57929 0.66876 0.2424 0.0
H864 H 0.58332 0.63963 0.05714 0.0
C865 C 0.52408 0.59938 0.16428 0.0
C866 C 0.52895 0.58616 0.10466 0.0
C867 C 0.53936 0.61441 0.18998 0.0
C868 C 0.5827 0.64717 0.11005 0.0
H869 H 0.58382 0.74732 0.29897 0.0
H870 H 0.59573 0.70943 0.29099 0.0
H871 H 0.59496 0.67714 0.06797 0.0
H872 H 0.55434 0.57608 0.03129 0.0
H873 H 0.58131 0.60199 0.07704 0.0
H874 H 0.56677 0.63877 0.28417 0.0
C875 C 0.58872 0.71695 0.24359 0.0
C876 C 0.58909 0.66893 0.11594 0.0
C877 C 0.58218 0.73868 0.24814 0.0
C878 C 0.5501 0.58651 0.07631 0.0
C879 C 0.56549 0.60137 0.10248 0.0
C880 C 0.57318 0.64688 0.23678 0.0
C881 C 0.58471 0.70475 0.18032 0.0
C882 C 0.58575 0.68049 0.18064 0.0
C883 C 0.55988 0.61638 0.15682 0.0
C884 C 0.57324 0.63634 0.16925 0.0
H885 H 0.56152 0.74463 0.07868 0.0
H886 H 0.57222 0.70681 0.07024 0.0
H887 H 0.57697 0.67684 0.29381 0.0
H888 H 0.5079 0.59939 0.18723 0.0
H889 H 0.53429 0.62569 0.23164 0.0
C890 C 0.8035 0.59631 0.18226 0.0
C891 C 0.79939 0.57561 0.2114 0.0
C892 C 0.82283 0.60041 0.14475 0.0
C893 C 0.87742 0.57803 0.10944 0.0
H894 H 0.86559 0.58974 0.90732 0.0
C895 C 0.93171 0.53948 0.90602 0.0
C896 C 0.91952 0.5267 0.85706 0.0
C897 C 0.92235 0.55727 0.94072 0.0
C898 C 0.86932 0.58671 0.96365 0.0
H899 H 0.81216 0.54325 0.22641 0.0
H900 H 0.8461 0.55046 0.16385 0.0
H901 H 0.83843 0.59866 0.99847 0.0
H902 H 0.88901 0.52483 0.79843 0.0
H903 H 0.87212 0.55451 0.8631 0.0
H904 H 0.90706 0.56389 0.07527 0.0
C905 C 0.83463 0.56363 0.17002 0.0
C906 C 0.85386 0.59209 0.01595 0.0
C907 C 0.81523 0.55945 0.20587 0.0
C908 C 0.89857 0.53364 0.83816 0.0
C909 C 0.88902 0.55112 0.87422 0.0
C910 C 0.89276 0.57252 0.05739 0.0
C911 C 0.83842 0.58396 0.13755 0.0
C912 C 0.85721 0.58632 0.08854 0.0
C913 C 0.90039 0.56232 0.92911 0.0
C914 C 0.8882 0.57534 0.98333 0.0
H915 H 0.79146 0.60901 0.18656 0.0
H916 H 0.82536 0.61616 0.11984 0.0
H917 H 0.88048 0.57376 0.16536 0.0
H918 H 0.94796 0.53493 0.92208 0.0
H919 H 0.93183 0.56597 0.98093 0.0
C920 C 0.0485 0.25055 0.96775 0.0
C921 C 0.03878 0.25356 0.0355 0.0
C922 C 0.04512 0.23126 0.92838 0.0
C923 C 0.02542 0.17335 0.95253 0.0
H924 H 0.03206 0.17188 0.74418 0.0
C925 C 1.00607 0.09732 0.77082 0.0
C926 C 0.02238 0.0915 0.72141 0.0
C927 C 1.00758 0.11684 0.81035 0.0
C928 C 0.03028 0.17199 0.80245 0.0
H929 H 0.01751 0.23909 0.11468 0.0
H930 H 1.0102 0.20603 0.04448 0.0
H931 H 0.0339 0.20656 0.80774 0.0
H932 H 0.05298 0.10155 0.67445 0.0
H933 H 0.05522 0.13605 0.74124 0.0
H934 H 0.02109 0.13863 0.94588 0.0
C935 C 0.02106 0.21813 0.02193 0.0
C936 C 0.03146 0.19196 0.83935 0.0
C937 C 0.02478 0.23732 0.06173 0.0
C938 C 0.04012 0.10568 0.71189 0.0
C939 C 0.04138 0.12543 0.75006 0.0
C940 C 0.02385 0.15341 0.91532 0.0
C941 C 0.03162 0.21445 0.95524 0.0
C942 C 0.02928 0.19306 0.91528 0.0
C943 C 0.02516 0.13126 0.79993 0.0
C944 C 0.02643 0.15246 0.83984 0.0
H945 H 0.05988 0.26257 0.94759 0.0
H946 H 0.05402 0.22922 0.87847 0.0
H947 H 0.02407 0.1731 1.01085 0.0
H948 H 0.99235 0.08656 0.77991 0.0
H949 H 0.99481 0.12085 0.84823 0.0
C950 C 0.30477 0.03458 1.00945 0.0
C951 C 0.28836 0.04686 0.97637 0.0
C952 C 0.32468 0.03106 0.97439 0.0
C953 C 0.35944 0.05521 0.82893 0.0
H954 H 0.39434 1.00386 0.86083 0.0
C955 C 0.44335 0.04238 0.68702 0.0
C956 C 0.46001 0.03334 0.72928 0.0
C957 C 0.42185 0.04318 0.71301 0.0
C958 C 0.38493 0.01843 0.8517 0.0
H959 H 0.2795 0.06426 0.87974 0.0
H960 H 0.31379 0.05742 0.81659 0.0
H961 H 0.35794 1.00579 0.91183 0.0
H962 H 0.46688 0.01775 0.83187 0.0
H963 H 0.42989 0.0194 0.8771 0.0
H964 H 0.38653 0.06784 0.76898 0.0
C965 C 0.31163 0.05088 0.87041 0.0
C966 C 0.36394 0.01955 0.88115 0.0
C967 C 0.29177 0.05444 0.90578 0.0
C968 C 0.45457 0.02501 0.79784 0.0
C969 C 0.43319 0.02573 0.82361 0.0
C970 C 0.38042 0.05404 0.79923 0.0
C971 C 0.3287 0.0397 0.90499 0.0
C972 C 0.35084 0.03801 0.87068 0.0
C973 C 0.41644 0.03482 0.78179 0.0
C974 C 0.39359 0.03571 0.8106 0.0
H975 H 0.30269 0.02898 0.06451 0.0
H976 H 0.33731 0.02259 1.00358 0.0
H977 H 0.3502 0.06993 0.82062 0.0
H978 H 0.44694 0.04894 0.63402 0.0
H979 H 0.40943 0.05014 0.6788 0.0
C980 C 0.52388 0.30702 0.99336 0.0
C981 C 0.50301 0.29937 1.01099 0.0
C982 C 0.52662 0.32652 0.95432 0.0
C983 C 0.49539 0.36945 0.85026 0.0
H984 H 0.54495 0.4055 0.90034 0.0
C985 C 0.50786 0.45435 0.71724 0.0
C986 C 0.51811 0.47093 0.75726 0.0
C987 C 0.50685 0.43294 0.74383 0.0
C988 C 0.53079 0.39589 0.88618 0.0
H989 H 0.46873 0.30551 0.99829 0.0
H990 H 0.47321 0.33946 0.93295 0.0
H991 H 0.54149 0.36943 0.95208 0.0
H992 H 0.53598 0.47768 0.85575 0.0
H993 H 0.53358 0.44089 0.90316 0.0
H994 H 0.48392 0.39634 0.78827 0.0
C995 C 0.48768 0.33052 0.94724 0.0
C996 C 0.52902 0.37479 0.91502 0.0
C997 C 0.48501 0.31096 0.98512 0.0
C998 C 0.52766 0.46542 0.82385 0.0
C999 C 0.52655 0.44407 0.85062 0.0
C1000 C 0.49696 0.39066 0.82252 0.0
C1001 C 0.50854 0.33901 0.93247 0.0
C1002 C 0.5112 0.36117 0.898 0.0
C1003 C 0.5161 0.42735 0.81112 0.0
C1004 C 0.51465 0.40438 0.84007 0.0
H1005 H 0.53807 0.29861 0.01334 0.0
H1006 H 0.54299 0.33201 0.94295 0.0
H1007 H 0.48158 0.35961 0.8341 0.0
H1008 H 0.50039 0.45794 0.66559 0.0
H1009 H 0.49891 0.4207 0.71116 0.0
C1010 C 0.2496 0.5144 0.96377 0.0
C1011 C 0.2515 0.51568 0.03929 0.0
C1012 C 0.22935 0.51706 0.92966 0.0
C1013 C 0.17198 0.53605 0.95874 0.0
H1014 H 0.15968 0.49764 0.79708 0.0
C1015 C 0.09248 0.54317 0.78763 0.0
C1016 C 0.08253 0.52389 0.76264 0.0
C1017 C 0.11297 0.54278 0.82142 0.0
C1018 C 0.16267 0.50841 0.84246 0.0
H1019 H 0.23385 0.52133 0.13827 0.0
H1020 H 0.19854 0.52636 0.0794 0.0
H1021 H 0.19511 0.49656 0.85552 0.0
H1022 H 0.08699 0.4892 0.75113 0.0
H1023 H 0.12229 0.48828 0.81142 0.0
H1024 H 0.1393 0.54752 0.9466 0.0
C1025 C 0.21261 0.52343 0.04583 0.0
C1026 C 0.18325 0.50802 0.87555 0.0
C1027 C 0.23288 0.52069 0.07983 0.0
C1028 C 0.09387 0.50427 0.7712 0.0
C1029 C 0.11435 0.50383 0.80496 0.0
C1030 C 0.15139 0.53648 0.92547 0.0
C1031 C 0.21036 0.52107 0.97022 0.0
C1032 C 0.18832 0.52185 0.93425 0.0
C1033 C 0.12429 0.52309 0.83086 0.0
C1034 C 0.14635 0.52266 0.86671 0.0
H1035 H 0.26364 0.51023 0.9315 0.0
H1036 H 0.22854 0.51554 0.87139 0.0
H1037 H 0.17512 0.54707 1.00335 0.0
H1038 H 0.0843 0.55863 0.78182 0.0
H1039 H 0.12006 0.55803 0.83933 0.0
C1040 C 0.02225 0.80434 0.36092 0.0
C1041 C 1.00149 0.79756 0.33779 0.0
C1042 C 0.02503 0.82422 0.39817 0.0
C1043 C 1.00123 0.87827 0.40453 0.0
H1044 H 0.03213 0.88811 0.58468 0.0
C1045 C 0.02569 0.96458 0.50733 0.0
C1046 C 0.01882 0.96987 0.57776 0.0
C1047 C 0.02441 0.94315 0.4813 0.0
C1048 C 0.02348 0.8856 0.53427 0.0
H1049 H 0.96737 0.80556 0.33986 0.0
H1050 H 0.97219 0.84028 0.40315 0.0
H1051 H 0.02842 0.85091 0.53619 0.0
H1052 H 1.00628 0.95628 0.67735 0.0
H1053 H 1.00472 0.91855 0.63206 0.0
H1054 H 0.99666 0.91289 0.40146 0.0
C1055 C 0.98632 0.83034 0.3926 0.0
C1056 C 0.02144 0.86433 0.50639 0.0
C1057 C 0.98353 0.81038 0.35691 0.0
C1058 C 1.01164 0.95286 0.62277 0.0
C1059 C 1.01077 0.93128 0.59706 0.0
C1060 C 1.0037 0.89952 0.4314 0.0
C1061 C 1.00714 0.83783 0.41199 0.0
C1062 C 1.01009 0.86038 0.44151 0.0
C1063 C 0.01684 0.9262 0.52571 0.0
C1064 C 0.01471 0.90348 0.49687 0.0
H1065 H 0.03642 0.79502 0.34595 0.0
H1066 H 0.04128 0.82954 0.41234 0.0
H1067 H 0.99251 0.87582 0.35419 0.0
H1068 H 0.03198 0.97707 0.47186 0.0
H1069 H 0.02947 0.9398 0.42632 0.0
C1070 C 0.73886 0.02902 0.27778 0.0
C1071 C 0.75573 0.01761 0.31145 0.0
C1072 C 0.71906 0.03246 0.31358 0.0
C1073 C 0.69096 0.02674 0.49485 0.0
H1074 H 0.6395 0.02547 0.3743 0.0
C1075 C 0.60367 0.0363 0.61644 0.0
C1076 C 0.58626 0.02566 0.58138 0.0
C1077 C 0.62463 0.03653 0.58578 0.0
C1078 C 0.65358 0.02559 0.40939 0.0
H1079 H 0.76532 1.00104 0.4089 0.0
H1080 H 0.73084 1.00655 0.47158 0.0
H1081 H 0.67495 0.0239 0.31869 0.0
H1082 H 0.57791 1.00616 0.48715 0.0
H1083 H 0.61402 1.00572 0.43632 0.0
H1084 H 0.66941 0.0273 0.58578 0.0
C1085 C 0.73283 1.01353 0.41832 0.0
C1086 C 0.67418 0.02511 0.37702 0.0
C1087 C 0.75272 1.01039 0.38267 0.0
C1088 C 0.59066 1.01477 0.5159 0.0
C1089 C 0.61156 1.01473 0.48596 0.0
C1090 C 0.6703 0.02698 0.52735 0.0
C1091 C 0.7154 0.02419 0.3838 0.0
C1092 C 0.69331 0.0256 0.41902 0.0
C1093 C 0.62892 0.02586 0.51958 0.0
C1094 C 0.65119 0.02626 0.48524 0.0
H1095 H 0.74069 0.03437 0.22235 0.0
H1096 H 0.70645 0.04119 0.2852 0.0
H1097 H 0.7051 0.02749 0.52961 0.0
H1098 H 0.60109 0.04477 0.66707 0.0
H1099 H 0.63734 0.04548 0.61354 0.0
C1100 C 0.52617 0.73258 0.24604 0.0
C1101 C 0.53306 0.75176 0.28078 0.0
C1102 C 0.52234 0.71348 0.28558 0.0
C1103 C 0.51406 0.69133 0.47209 0.0
H1104 H 0.53808 0.6386 0.38963 0.0
C1105 C 0.50299 0.60354 0.59305 0.0
C1106 C 0.52248 0.59211 0.6045 0.0
C1107 C 0.50289 0.62329 0.55475 0.0
C1108 C 0.53128 0.65319 0.41336 0.0
H1109 H 0.54081 0.7662 0.38411 0.0
H1110 H 0.53369 0.73301 0.45414 0.0
H1111 H 0.53876 0.67237 0.32008 0.0
H1112 H 0.55721 0.59356 0.5882 0.0
H1113 H 0.55688 0.62704 0.5171 0.0
H1114 H 0.50603 0.67177 0.5648 0.0
C1115 C 0.53107 0.73266 0.39623 0.0
C1116 C 0.53162 0.67258 0.37343 0.0
C1117 C 0.53505 0.75174 0.35638 0.0
C1118 C 0.54184 0.60127 0.57774 0.0
C1119 C 0.54168 0.62065 0.53773 0.0
C1120 C 0.51322 0.67176 0.51138 0.0
C1121 C 0.5252 0.71306 0.36121 0.0
C1122 C 0.52338 0.69207 0.40254 0.0
C1123 C 0.52219 0.63191 0.52571 0.0
C1124 C 0.52212 0.65254 0.4829 0.0
H1125 H 0.52474 0.73216 0.18769 0.0
H1126 H 0.51756 0.69889 0.25656 0.0
H1127 H 0.50728 0.70587 0.4961 0.0
H1128 H 0.48772 0.59712 0.61299 0.0
H1129 H 0.48761 0.63158 0.54641 0.0
C1130 C 0.80551 0.57263 0.37868 0.0
C1131 C 0.79194 0.55541 0.35622 0.0
C1132 C 0.82418 0.5688 0.42028 0.0
C1133 C 0.8628 0.5241 0.46902 0.0
H1134 H 0.88707 0.56839 0.59539 0.0
C1135 C 0.95226 0.52023 0.56605 0.0
C1136 C 0.95842 0.5295 0.63257 0.0
C1137 C 0.93107 0.52241 0.53926 0.0
C1138 C 0.88051 0.55563 0.56118 0.0
H1139 H 0.78714 0.5206 0.36206 0.0
H1140 H 0.81904 0.51385 0.4378 0.0
H1141 H 0.85156 0.57381 0.54082 0.0
H1142 H 0.94656 0.5474 0.72521 0.0
H1143 H 0.90926 0.5506 0.68005 0.0
H1144 H 0.8914 0.50562 0.49107 0.0
C1145 C 0.81564 0.53041 0.42176 0.0
C1146 C 0.86011 0.55891 0.52867 0.0
C1147 C 0.79701 0.53428 0.37943 0.0
C1148 C 0.94243 0.54018 0.67345 0.0
C1149 C 0.92106 0.54222 0.64695 0.0
C1150 C 0.88308 0.52073 0.50203 0.0
C1151 C 0.82987 0.54756 0.44164 0.0
C1152 C 0.85098 0.54335 0.48103 0.0
C1153 C 0.91506 0.5336 0.57877 0.0
C1154 C 0.89253 0.53658 0.54781 0.0
H1155 H 0.80209 0.58908 0.36131 0.0
H1156 H 0.83462 0.58252 0.43296 0.0
H1157 H 0.85671 0.51172 0.43241 0.0
H1158 H 0.96397 0.51143 0.53387 0.0
H1159 H 0.92751 0.51573 0.48633 0.0
loop_
_geom_bond_atom_site_label_1
_geom_bond_atom_site_label_2
_geom_bond_distance
_geom_bond_site_symmetry_2
_ccdc_geom_bond_type
C0 N1 1.317 . S
C0 N2 1.348 . S
C0 C3 1.485 . S
N1 C0 1.317 . S
N1 N5 1.370 . S
N2 C0 1.348 . S
N2 C4 1.346 . S
C3 C0 1.485 . S
C3 H7 0.960 . S
C3 H8 0.961 . S
C3 H9 0.960 . S
C4 N2 1.346 . S
C4 N5 1.307 . S
C4 C6 1.486 . S
N5 N1 1.370 . S
N5 C4 1.307 . S
C6 C4 1.486 . S
C6 H10 0.960 . S
C6 H11 0.960 . S
C6 H12 0.959 . S
H7 C3 0.960 . S
H8 C3 0.961 . S
H9 C3 0.960 . S
H10 C6 0.960 . S
H11 C6 0.960 . S
H12 C6 0.959 . S
C13 N14 1.317 . S
C13 N15 1.348 . S
C13 C16 1.485 . S
N14 C13 1.317 . S
N14 N18 1.370 . S
N15 C13 1.348 . S
N15 C17 1.346 . S
C16 C13 1.485 . S
C16 H20 0.960 . S
C16 H21 0.961 . S
C16 H22 0.960 . S
C17 N15 1.346 . S
C17 N18 1.307 . S
C17 C19 1.486 . S
N18 N14 1.370 . S
N18 C17 1.307 . S
C19 C17 1.486 . S
C19 H23 0.960 . S
C19 H24 0.960 . S
C19 H25 0.959 . S
H20 C16 0.960 . S
H21 C16 0.961 . S
H22 C16 0.960 . S
H23 C19 0.960 . S
H24 C19 0.960 . S
H25 C19 0.959 . S
C26 N27 1.317 . S
C26 N28 1.348 . S
C26 C29 1.485 . S
N27 C26 1.317 . S
N27 N31 1.370 . S
N28 C26 1.348 . S
N28 C30 1.346 . S
C29 C26 1.485 . S
C29 H33 0.960 . S
C29 H34 0.961 . S
C29 H35 0.960 . S
C30 N28 1.346 . S
C30 N31 1.307 . S
C30 C32 1.486 . S
N31 N27 1.370 . S
N31 C30 1.307 . S
C32 C30 1.486 . S
C32 H36 0.960 . S
C32 H37 0.960 . S
C32 H38 0.959 . S
H33 C29 0.960 . S
H34 C29 0.961 . S
H35 C29 0.960 . S
H36 C32 0.960 . S
H37 C32 0.960 . S
H38 C32 0.959 . S
C39 N40 1.317 . S
C39 N41 1.348 . S
C39 C42 1.485 . S
N40 C39 1.317 . S
N40 N44 1.370 . S
N41 C39 1.348 . S
N41 C43 1.346 . S
C42 C39 1.485 . S
C42 H46 0.960 . S
C42 H47 0.961 . S
C42 H48 0.960 . S
C43 N41 1.346 . S
C43 N44 1.307 . S
C43 C45 1.486 . S
N44 N40 1.370 . S
N44 C43 1.307 . S
C45 C43 1.486 . S
C45 H49 0.960 . S
C45 H50 0.960 . S
C45 H51 0.959 . S
H46 C42 0.960 . S
H47 C42 0.961 . S
H48 C42 0.960 . S
H49 C45 0.960 . S
H50 C45 0.960 . S
H51 C45 0.959 . S
C52 N53 1.317 1_556 S
C52 N54 1.348 1_556 S
C52 C55 1.485 . S
N53 C52 1.317 1_554 S
N53 N57 1.375 . S
N54 C52 1.348 1_554 S
N54 C56 1.346 . S
C55 C52 1.485 . S
C55 H59 0.960 . S
C55 H60 0.961 . S
C55 H61 0.960 . S
C56 N54 1.346 . S
C56 N57 1.307 . S
C56 C58 1.486 . S
N57 N53 1.375 . S
N57 C56 1.307 . S
C58 C56 1.486 . S
C58 H62 0.960 . S
C58 H63 0.960 . S
C58 H64 0.959 . S
H59 C55 0.960 . S
H60 C55 0.961 . S
H61 C55 0.960 . S
H62 C58 0.960 . S
H63 C58 0.960 . S
H64 C58 0.959 . S
C65 N66 1.317 1_556 S
C65 N67 1.348 1_556 S
C65 C68 1.485 . S
N66 C65 1.317 1_554 S
N66 N70 1.370 . S
N67 C65 1.348 1_554 S
N67 C69 1.346 . S
C68 C65 1.485 . S
C68 H72 0.960 . S
C68 H73 0.961 . S
C68 H74 0.960 . S
C69 N67 1.346 . S
C69 N70 1.307 . S
C69 C71 1.486 . S
N70 N66 1.370 . S
N70 C69 1.307 . S
C71 C69 1.486 . S
C71 H75 0.960 . S
C71 H76 0.960 . S
C71 H77 0.959 . S
H72 C68 0.960 . S
H73 C68 0.961 . S
H74 C68 0.960 . S
H75 C71 0.960 . S
H76 C71 0.960 . S
H77 C71 0.959 . S
C78 N79 1.317 1_556 S
C78 N80 1.348 1_556 S
C78 C81 1.485 . S
N79 C78 1.317 1_554 S
N79 N83 1.370 . S
N80 C78 1.348 1_554 S
N80 C82 1.346 . S
C81 C78 1.485 . S
C81 H85 0.960 . S
C81 H86 0.961 . S
C81 H87 0.960 . S
C82 N80 1.346 . S
C82 N83 1.307 . S
C82 C84 1.486 . S
N83 N79 1.370 . S
N83 C82 1.307 . S
C84 C82 1.486 . S
C84 H88 0.960 . S
C84 H89 0.960 . S
C84 H90 0.959 . S
H85 C81 0.960 . S
H86 C81 0.961 . S
H87 C81 0.960 . S
H88 C84 0.960 . S
H89 C84 0.960 . S
H90 C84 0.959 . S
C91 N92 1.317 . S
C91 N93 1.348 1_556 S
C91 C94 1.485 . S
N92 C91 1.317 . S
N92 N96 1.370 1_556 S
N93 C91 1.348 1_554 S
N93 C95 1.346 . S
C94 C91 1.485 . S
C94 H98 0.960 . S
C94 H99 0.961 . S
C94 H100 0.960 . S
C95 N93 1.346 . S
C95 N96 1.307 . S
C95 C97 1.486 . S
N96 N92 1.370 1_554 S
N96 C95 1.307 . S
C97 C95 1.486 . S
C97 H101 0.960 . S
C97 H102 0.960 . S
C97 H103 0.959 . S
H98 C94 0.960 . S
H99 C94 0.961 . S
H100 C94 0.960 . S
H101 C97 0.960 . S
H102 C97 0.960 . S
H103 C97 0.959 . S
C104 C106 1.422 . S
C104 C108 1.415 . S
C104 N110 1.369 . S
C105 C106 1.421 . S
C105 C107 1.417 . S
C105 C117 1.422 . S
C106 C104 1.422 . S
C106 C105 1.421 . S
C106 N116 1.359 . S
C107 C105 1.417 . S
C107 C109 1.329 . S
C107 H126 0.930 1_556 S
C108 C104 1.415 . S
C108 C109 1.437 . S
C108 C112 1.413 . S
C109 C107 1.329 . S
C109 C108 1.437 . S
C109 H131 0.929 . S
N110 C104 1.369 . S
N110 C111 1.338 . S
N110 Gd115 2.622 1_545 S
C111 N110 1.338 . S
C111 C113 1.378 . S
C111 H123 0.929 1_545 S
C112 C108 1.413 . S
C112 C113 1.348 . S
C112 H128 0.931 . S
C113 C111 1.378 . S
C113 C112 1.348 . S
C113 H129 0.930 . S
Gd114 N134 2.622 . S
Gd114 N141 2.570 . S
Gd114 O148 2.353 1_655 S
Gd114 O149 2.468 1_655 S
Gd114 O150 2.427 . S
Gd114 O152 2.388 . S
Gd114 O153 2.386 1_545 S
Gd114 O157 2.307 1_655 S
Gd114 C167 2.805 . S
Gd115 N110 2.622 1_565 S
Gd115 N116 2.570 1_565 S
Gd115 O147 2.386 1_565 S
Gd115 O151 2.307 1_465 S
Gd115 O154 2.353 . S
Gd115 O155 2.468 . S
Gd115 O156 2.427 . S
Gd115 O158 2.387 1_565 S
Gd115 C179 2.805 . S
N116 C106 1.359 . S
N116 Gd115 2.570 1_545 S
N116 C118 1.343 . S
C117 C105 1.422 . S
C117 C119 1.321 . S
C117 H125 0.931 1_556 S
C118 N116 1.343 . S
C118 C119 1.390 . S
C118 H120 0.931 1_455 S
C119 C117 1.321 . S
C119 C118 1.390 . S
C119 H121 0.930 1_455 S
H120 C118 0.931 1_655 S
H121 C119 0.930 1_655 S
H122 C145 0.931 . S
H123 C111 0.929 1_565 S
H124 C146 0.935 . S
H125 C117 0.931 1_554 S
H126 C107 0.930 1_554 S
H127 C136 0.929 . S
H128 C112 0.931 . S
H129 C113 0.930 . S
H130 C168 0.930 . S
H131 C109 0.929 . S
H132 C137 0.941 . S
H133 C138 0.930 . S
N134 Gd114 2.622 . S
N134 C135 1.369 . S
N134 C136 1.338 . S
C135 N134 1.369 . S
C135 C139 1.415 1_545 S
C135 C142 1.422 . S
C136 H127 0.929 . S
C136 N134 1.338 . S
C136 C138 1.378 . S
C137 H132 0.941 . S
C137 C138 1.336 1_565 S
C137 C139 1.415 . S
C138 H133 0.930 . S
C138 C136 1.378 . S
C138 C137 1.336 1_545 S
C139 C135 1.415 1_565 S
C139 C137 1.415 . S
C139 C169 1.437 . S
H140 C169 0.929 . S
N141 Gd114 2.570 . S
N141 C142 1.359 . S
N141 C145 1.343 1_655 S
C142 C135 1.422 . S
C142 N141 1.359 . S
C142 C144 1.421 1_545 S
C143 C144 1.422 . S
C143 C146 1.338 1_655 S
C143 H170 0.931 . S
C144 C142 1.421 1_565 S
C144 C143 1.422 . S
C144 C168 1.417 . S
C145 H122 0.931 . S
C145 N141 1.343 1_455 S
C145 C146 1.370 1_545 S
C146 H124 0.935 . S
C146 C143 1.338 1_455 S
C146 C145 1.370 1_565 S
O147 Gd115 2.386 1_545 S
O147 C159 1.265 . S
O148 Gd114 2.353 1_455 S
O148 C159 1.242 . S
O149 Gd114 2.468 1_455 S
O149 C167 1.263 1_455 S
O150 Gd114 2.427 . S
O150 C167 1.252 . S
O151 Gd115 2.307 1_645 S
O151 C160 1.261 . S
O152 Gd114 2.388 . S
O152 C160 1.252 . S
O153 Gd114 2.386 1_565 S
O153 C171 1.265 . S
O154 Gd115 2.353 . S
O154 C171 1.242 1_455 S
O155 Gd115 2.468 . S
O155 C179 1.263 . S
O156 Gd115 2.427 . S
O156 C179 1.252 . S
O157 Gd114 2.307 1_455 S
O157 C172 1.261 . S
O158 Gd115 2.387 1_545 S
O158 C172 1.254 . S
C159 O147 1.265 . S
C159 O148 1.242 . S
C160 O151 1.261 . S
C160 O152 1.252 . S
C161 C164 1.394 . S
C161 C166 1.370 1_655 S
C161 C167 1.500 . S
C162 C165 1.383 . S
C162 C166 1.395 1_655 S
C163 C164 1.396 . S
C163 C165 1.365 . S
C163 H180 0.929 . S
C164 C161 1.394 . S
C164 C163 1.396 . S
C164 H181 0.930 . S
C165 C162 1.383 . S
C165 C163 1.365 . S
C165 H182 0.931 . S
C166 C161 1.370 1_455 S
C166 C162 1.395 1_455 S
C166 H183 0.930 . S
C167 Gd114 2.805 . S
C167 O149 1.263 1_655 S
C167 O150 1.252 . S
C167 C161 1.500 . S
C168 H130 0.930 . S
C168 C144 1.417 . S
C168 C169 1.329 . S
C169 C139 1.437 . S
C169 H140 0.929 . S
C169 C168 1.329 . S
H170 C143 0.931 . S
C171 O153 1.265 . S
C171 O154 1.242 1_655 S
C172 O157 1.261 . S
C172 O158 1.254 . S
C173 C176 1.394 . S
C173 C178 1.370 . S
C173 C179 1.500 . S
C174 C177 1.383 . S
C174 C178 1.395 . S
C175 C176 1.396 . S
C175 C177 1.365 . S
C175 H184 0.929 . S
C176 C173 1.394 . S
C176 C175 1.396 . S
C176 H185 0.930 . S
C177 C174 1.383 . S
C177 C175 1.365 . S
C177 H186 0.931 . S
C178 C173 1.370 . S
C178 C174 1.395 . S
C178 H187 0.930 . S
C179 Gd115 2.805 . S
C179 O155 1.263 . S
C179 O156 1.252 . S
C179 C173 1.500 . S
H180 C163 0.929 . S
H181 C164 0.930 . S
H182 C165 0.931 . S
H183 C166 0.930 . S
H184 C175 0.929 . S
H185 C176 0.930 . S
H186 C177 0.931 . S
H187 C178 0.930 . S
C188 C190 1.422 . S
C188 C192 1.415 . S
C188 N194 1.369 . S
C189 C190 1.421 . S
C189 C191 1.417 . S
C189 C201 1.422 . S
C190 C188 1.422 . S
C190 C189 1.421 . S
C190 N200 1.359 . S
C191 C189 1.417 . S
C191 C193 1.329 . S
C191 H210 0.930 . S
C192 C188 1.415 . S
C192 C193 1.437 . S
C192 C196 1.413 . S
C193 C191 1.329 . S
C193 C192 1.437 . S
C193 H215 0.929 . S
N194 C188 1.369 . S
N194 C195 1.338 . S
N194 Gd199 2.622 . S
C195 N194 1.338 . S
C195 C197 1.378 . S
C195 H207 0.929 . S
C196 C192 1.413 . S
C196 C197 1.348 . S
C196 H212 0.931 . S
C197 C195 1.378 . S
C197 C196 1.348 . S
C197 H213 0.930 . S
Gd198 N218 2.622 . S
Gd198 N225 2.570 . S
Gd198 O232 2.353 1_545 S
Gd198 O233 2.468 . S
Gd198 O234 2.427 . S
Gd198 O236 2.388 . S
Gd198 O237 2.386 . S
Gd198 O241 2.307 . S
Gd198 C251 2.805 . S
Gd199 N194 2.622 . S
Gd199 N200 2.570 . S
Gd199 O231 2.386 . S
Gd199 O235 2.307 1_565 S
Gd199 O238 2.353 1_565 S
Gd199 O239 2.467 1_565 S
Gd199 O240 2.427 . S
Gd199 O242 2.388 . S
Gd199 C263 2.805 . S
N200 C190 1.359 . S
N200 Gd199 2.570 . S
N200 C202 1.343 . S
C201 C189 1.422 . S
C201 C203 1.321 . S
C201 H209 0.931 . S
C202 N200 1.343 . S
C202 C203 1.390 . S
C202 H204 0.931 . S
C203 C201 1.321 . S
C203 C202 1.390 . S
C203 H205 0.930 . S
H204 C202 0.931 . S
H205 C203 0.930 . S
H206 C229 0.931 . S
H207 C195 0.929 . S
H208 C230 0.930 . S
H209 C201 0.931 . S
H210 C191 0.930 . S
H211 C220 0.929 . S
H212 C196 0.931 . S
H213 C197 0.930 . S
H214 C252 0.930 . S
H215 C193 0.929 . S
H216 C221 0.931 . S
H217 C222 0.930 . S
N218 Gd198 2.622 . S
N218 C219 1.369 . S
N218 C220 1.338 . S
C219 N218 1.369 . S
C219 C223 1.415 . S
C219 C226 1.422 . S
C220 H211 0.929 . S
C220 N218 1.338 . S
C220 C222 1.378 . S
C221 H216 0.931 . S
C221 C222 1.348 . S
C221 C223 1.413 . S
C222 H217 0.930 . S
C222 C220 1.378 . S
C222 C221 1.348 . S
C223 C219 1.415 . S
C223 C221 1.413 . S
C223 C253 1.437 . S
H224 C253 0.929 . S
N225 Gd198 2.570 . S
N225 C226 1.359 . S
N225 C229 1.343 . S
C226 C219 1.422 . S
C226 N225 1.359 . S
C226 C228 1.421 . S
C227 C228 1.422 . S
C227 C230 1.321 . S
C227 H254 0.931 . S
C228 C226 1.421 . S
C228 C227 1.422 . S
C228 C252 1.417 . S
C229 H206 0.931 . S
C229 N225 1.343 . S
C229 C230 1.390 . S
C230 H208 0.930 . S
C230 C227 1.321 . S
C230 C229 1.390 . S
O231 Gd199 2.386 . S
O231 C243 1.265 . S
O232 Gd198 2.353 1_565 S
O232 C243 1.242 . S
O233 Gd198 2.468 . S
O233 C251 1.263 . S
O234 Gd198 2.427 . S
O234 C251 1.252 . S
O235 Gd199 2.307 1_545 S
O235 C244 1.261 . S
O236 Gd198 2.388 . S
O236 C244 1.252 . S
O237 Gd198 2.386 . S
O237 C255 1.265 . S
O238 Gd199 2.353 1_545 S
O238 C255 1.242 . S
O239 Gd199 2.467 1_545 S
O239 C263 1.263 1_545 S
O240 Gd199 2.427 . S
O240 C263 1.252 . S
O241 Gd198 2.307 . S
O241 C256 1.261 . S
O242 Gd199 2.388 . S
O242 C256 1.252 1_565 S
C243 O231 1.265 . S
C243 O232 1.242 . S
C244 O235 1.261 . S
C244 O236 1.252 . S
C245 C248 1.394 . S
C245 C250 1.370 . S
C245 C251 1.500 . S
C246 C249 1.383 1_556 S
C246 C250 1.395 . S
C247 C248 1.396 1_554 S
C247 C249 1.365 . S
C247 H264 0.929 . S
C248 C245 1.394 . S
C248 C247 1.396 1_556 S
C248 H265 0.930 . S
C249 C246 1.383 1_554 S
C249 C247 1.365 . S
C249 H266 0.931 . S
C250 C245 1.370 . S
C250 C246 1.395 . S
C250 H267 0.930 . S
C251 Gd198 2.805 . S
C251 O233 1.263 . S
C251 O234 1.252 . S
C251 C245 1.500 . S
C252 H214 0.930 . S
C252 C228 1.417 . S
C252 C253 1.329 . S
C253 C223 1.437 . S
C253 H224 0.929 . S
C253 C252 1.329 . S
H254 C227 0.931 . S
C255 O237 1.265 . S
C255 O238 1.242 . S
C256 O241 1.261 . S
C256 O242 1.252 1_545 S
C257 C260 1.394 1_545 S
C257 C262 1.370 . S
C257 C263 1.500 1_545 S
C258 C261 1.383 . S
C258 C262 1.395 . S
C259 C260 1.396 . S
C259 C261 1.365 1_565 S
C259 H268 0.929 . S
C260 C257 1.394 1_565 S
C260 C259 1.396 . S
C260 H269 0.930 . S
C261 C258 1.383 . S
C261 C259 1.365 1_545 S
C261 H270 0.931 . S
C262 C257 1.370 . S
C262 C258 1.395 . S
C262 H271 0.930 . S
C263 Gd199 2.805 . S
C263 O239 1.263 1_565 S
C263 O240 1.252 . S
C263 C257 1.500 1_565 S
H264 C247 0.929 . S
H265 C248 0.930 . S
H266 C249 0.931 . S
H267 C250 0.930 . S
H268 C259 0.929 . S
H269 C260 0.930 . S
H270 C261 0.931 . S
H271 C262 0.930 . S
C272 C274 1.422 . S
C272 C276 1.415 . S
C272 N278 1.369 . S
C273 C274 1.421 . S
C273 C275 1.417 . S
C273 C285 1.422 . S
C274 C272 1.422 . S
C274 C273 1.421 . S
C274 N284 1.359 . S
C275 C273 1.417 . S
C275 C277 1.329 . S
C275 H294 0.930 1_556 S
C276 C272 1.415 . S
C276 C277 1.437 . S
C276 C280 1.413 . S
C277 C275 1.329 . S
C277 C276 1.437 . S
C277 H299 0.929 . S
N278 C272 1.369 . S
N278 C279 1.338 . S
N278 Gd283 2.622 . S
C279 N278 1.338 . S
C279 C281 1.378 . S
C279 H291 0.929 . S
C280 C276 1.413 . S
C280 C281 1.348 . S
C280 H296 0.931 . S
C281 C279 1.378 . S
C281 C280 1.348 . S
C281 H297 0.930 . S
Gd282 N302 2.622 . S
Gd282 N309 2.570 . S
Gd282 O316 2.353 . S
Gd282 O317 2.468 . S
Gd282 O318 2.427 . S
Gd282 O320 2.388 . S
Gd282 O321 2.386 . S
Gd282 O325 2.307 . S
Gd282 C335 2.805 . S
Gd283 N278 2.622 . S
Gd283 N284 2.570 . S
Gd283 O315 2.386 . S
Gd283 O319 2.307 . S
Gd283 O322 2.353 . S
Gd283 O323 2.468 . S
Gd283 O324 2.427 . S
Gd283 O326 2.388 . S
Gd283 C347 2.805 . S
N284 C274 1.359 . S
N284 Gd283 2.570 . S
N284 C286 1.343 . S
C285 C273 1.422 . S
C285 C287 1.321 . S
C285 H293 0.931 1_556 S
C286 N284 1.343 . S
C286 C287 1.390 . S
C286 H288 0.931 . S
C287 C285 1.321 . S
C287 C286 1.390 . S
C287 H289 0.930 . S
H288 C286 0.931 . S
H289 C287 0.930 . S
H290 C313 0.931 . S
H291 C279 0.929 . S
H292 C314 0.930 . S
H293 C285 0.931 1_554 S
H294 C275 0.930 1_554 S
H295 C304 0.929 . S
H296 C280 0.931 . S
H297 C281 0.930 . S
H298 C336 0.930 . S
H299 C277 0.929 . S
H300 C305 0.931 . S
H301 C306 0.930 . S
N302 Gd282 2.622 . S
N302 C303 1.369 . S
N302 C304 1.338 . S
C303 N302 1.369 . S
C303 C307 1.415 . S
C303 C310 1.422 . S
C304 H295 0.929 . S
C304 N302 1.338 . S
C304 C306 1.378 . S
C305 H300 0.931 . S
C305 C306 1.348 . S
C305 C307 1.413 . S
C306 H301 0.930 . S
C306 C304 1.378 . S
C306 C305 1.348 . S
C307 C303 1.415 . S
C307 C305 1.413 . S
C307 C337 1.437 . S
H308 C337 0.929 . S
N309 Gd282 2.570 . S
N309 C310 1.359 . S
N309 C313 1.343 . S
C310 C303 1.422 . S
C310 N309 1.359 . S
C310 C312 1.421 . S
C311 C312 1.422 . S
C311 C314 1.321 . S
C311 H338 0.931 . S
C312 C310 1.421 . S
C312 C311 1.422 . S
C312 C336 1.417 . S
C313 H290 0.931 . S
C313 N309 1.343 . S
C313 C314 1.390 . S
C314 H292 0.930 . S
C314 C311 1.321 . S
C314 C313 1.390 . S
O315 Gd283 2.386 . S
O315 C327 1.265 . S
O316 Gd282 2.353 . S
O316 C327 1.242 . S
O317 Gd282 2.468 . S
O317 C335 1.263 . S
O318 Gd282 2.427 . S
O318 C335 1.252 . S
O319 Gd283 2.307 . S
O319 C328 1.261 . S
O320 Gd282 2.388 . S
O320 C328 1.252 . S
O321 Gd282 2.386 . S
O321 C339 1.265 . S
O322 Gd283 2.353 . S
O322 C339 1.242 . S
O323 Gd283 2.468 . S
O323 C347 1.263 . S
O324 Gd283 2.427 . S
O324 C347 1.252 . S
O325 Gd282 2.307 . S
O325 C340 1.261 . S
O326 Gd283 2.388 . S
O326 C340 1.252 . S
C327 O315 1.265 . S
C327 O316 1.242 . S
C328 O319 1.261 . S
C328 O320 1.252 . S
C329 C332 1.394 . S
C329 C334 1.370 . S
C329 C335 1.500 . S
C330 C333 1.383 . S
C330 C334 1.395 . S
C331 C332 1.396 . S
C331 C333 1.365 . S
C331 H348 0.929 . S
C332 C329 1.394 . S
C332 C331 1.396 . S
C332 H349 0.930 . S
C333 C330 1.383 . S
C333 C331 1.365 . S
C333 H350 0.931 . S
C334 C329 1.370 . S
C334 C330 1.395 . S
C334 H351 0.930 . S
C335 Gd282 2.805 . S
C335 O317 1.263 . S
C335 O318 1.252 . S
C335 C329 1.500 . S
C336 H298 0.930 . S
C336 C312 1.417 . S
C336 C337 1.329 . S
C337 C307 1.437 . S
C337 H308 0.929 . S
C337 C336 1.329 . S
H338 C311 0.931 . S
C339 O321 1.265 . S
C339 O322 1.242 . S
C340 O325 1.261 . S
C340 O326 1.252 . S
C341 C344 1.394 . S
C341 C346 1.370 . S
C341 C347 1.500 . S
C342 C345 1.383 . S
C342 C346 1.395 . S
C343 C344 1.396 . S
C343 C345 1.365 . S
C343 H352 0.929 . S
C344 C341 1.394 . S
C344 C343 1.396 . S
C344 H353 0.930 . S
C345 C342 1.383 . S
C345 C343 1.365 . S
C345 H354 0.931 . S
C346 C341 1.370 . S
C346 C342 1.395 . S
C346 H355 0.930 . S
C347 Gd283 2.805 . S
C347 O323 1.263 . S
C347 O324 1.252 . S
C347 C341 1.500 . S
H348 C331 0.929 . S
H349 C332 0.930 . S
H350 C333 0.931 . S
H351 C334 0.930 . S
H352 C343 0.929 . S
H353 C344 0.930 . S
H354 C345 0.931 . S
H355 C346 0.930 . S
C356 C358 1.422 . S
C356 C360 1.415 . S
C356 N362 1.369 . S
C357 C358 1.421 . S
C357 C359 1.417 . S
C357 C369 1.422 . S
C358 C356 1.422 . S
C358 C357 1.421 . S
C358 N368 1.359 . S
C359 C357 1.417 . S
C359 C361 1.329 . S
C359 H378 0.930 1_556 S
C360 C356 1.415 . S
C360 C361 1.437 . S
C360 C364 1.413 . S
C361 C359 1.329 . S
C361 C360 1.437 . S
C361 H383 0.929 . S
N362 C356 1.369 . S
N362 C363 1.335 1_455 S
N362 Gd367 2.622 1_455 S
C363 N362 1.335 1_655 S
C363 C365 1.370 1_655 S
C363 H375 0.941 . S
C364 C360 1.413 . S
C364 C365 1.348 . S
C364 H380 0.931 . S
C365 C363 1.370 1_455 S
C365 C364 1.348 . S
C365 H381 0.930 . S
Gd366 N386 2.622 . S
Gd366 N393 2.570 . S
Gd366 O400 2.353 . S
Gd366 O401 2.468 . S
Gd366 O402 2.427 . S
Gd366 O404 2.388 . S
Gd366 O405 2.386 1_455 S
Gd366 O409 2.307 . S
Gd366 C419 2.805 . S
Gd367 N362 2.622 1_655 S
Gd367 N368 2.570 1_655 S
Gd367 O399 2.386 1_655 S
Gd367 O403 2.307 1_655 S
Gd367 O406 2.353 . S
Gd367 O407 2.468 . S
Gd367 O408 2.427 . S
Gd367 O410 2.388 . S
Gd367 C431 2.805 . S
N368 C358 1.359 . S
N368 Gd367 2.570 1_455 S
N368 C370 1.343 . S
C369 C357 1.422 . S
C369 C371 1.321 . S
C369 H377 0.931 1_556 S
C370 N368 1.343 . S
C370 C371 1.390 . S
C370 H372 0.931 . S
C371 C369 1.321 . S
C371 C370 1.390 . S
C371 H373 0.930 . S
H372 C370 0.931 . S
H373 C371 0.930 . S
H374 C397 0.931 . S
H375 C363 0.941 . S
H376 C398 0.930 . S
H377 C369 0.931 1_554 S
H378 C359 0.930 1_554 S
H379 C388 0.929 . S
H380 C364 0.931 . S
H381 C365 0.930 . S
H382 C420 0.930 . S
H383 C361 0.929 . S
H384 C389 0.931 . S
H385 C390 0.930 . S
N386 Gd366 2.622 . S
N386 C387 1.369 . S
N386 C388 1.338 . S
C387 N386 1.369 . S
C387 C391 1.415 1_455 S
C387 C394 1.422 . S
C388 H379 0.929 . S
C388 N386 1.338 . S
C388 C390 1.378 . S
C389 H384 0.931 . S
C389 C390 1.348 1_655 S
C389 C391 1.413 . S
C390 H385 0.930 . S
C390 C388 1.378 . S
C390 C389 1.348 1_455 S
C391 C387 1.415 1_655 S
C391 C389 1.413 . S
C391 C421 1.437 . S
H392 C421 0.929 . S
N393 Gd366 2.570 . S
N393 C394 1.359 . S
N393 C397 1.343 . S
C394 C387 1.422 . S
C394 N393 1.359 . S
C394 C396 1.421 1_455 S
C395 C396 1.422 . S
C395 C398 1.321 . S
C395 H422 0.931 . S
C396 C394 1.421 1_655 S
C396 C395 1.422 . S
C396 C420 1.417 . S
C397 H374 0.931 . S
C397 N393 1.343 . S
C397 C398 1.390 1_455 S
C398 H376 0.930 . S
C398 C395 1.321 . S
C398 C397 1.390 1_655 S
O399 Gd367 2.386 1_455 S
O399 C411 1.265 . S
O400 Gd366 2.353 . S
O400 C411 1.242 . S
O401 Gd366 2.468 . S
O401 C419 1.263 . S
O402 Gd366 2.427 . S
O402 C419 1.252 . S
O403 Gd367 2.307 1_455 S
O403 C412 1.261 . S
O404 Gd366 2.388 . S
O404 C412 1.252 . S
O405 Gd366 2.386 1_655 S
O405 C423 1.265 . S
O406 Gd367 2.353 . S
O406 C423 1.242 . S
O407 Gd367 2.468 . S
O407 C431 1.263 . S
O408 Gd367 2.427 . S
O408 C431 1.252 . S
O409 Gd366 2.307 . S
O409 C424 1.261 . S
O410 Gd367 2.388 . S
O410 C424 1.252 1_655 S
C411 O399 1.265 . S
C411 O400 1.242 . S
C412 O403 1.261 . S
C412 O404 1.252 . S
C413 C416 1.394 . S
C413 C418 1.370 . S
C413 C419 1.500 . S
C414 C417 1.383 . S
C414 C418 1.395 . S
C415 C416 1.396 . S
C415 C417 1.365 . S
C415 H432 0.929 . S
C416 C413 1.394 . S
C416 C415 1.396 . S
C416 H433 0.930 . S
C417 C414 1.383 . S
C417 C415 1.365 . S
C417 H434 0.931 . S
C418 C413 1.370 . S
C418 C414 1.395 . S
C418 H435 0.930 . S
C419 Gd366 2.805 . S
C419 O401 1.263 . S
C419 O402 1.252 . S
C419 C413 1.500 . S
C420 H382 0.930 . S
C420 C396 1.417 . S
C420 C421 1.329 . S
C421 C391 1.437 . S
C421 H392 0.929 . S
C421 C420 1.329 . S
H422 C395 0.931 . S
C423 O405 1.265 . S
C423 O406 1.242 . S
C424 O409 1.261 . S
C424 O410 1.252 1_455 S
C425 C428 1.394 . S
C425 C430 1.370 . S
C425 C431 1.500 . S
C426 C429 1.383 . S
C426 C430 1.395 . S
C427 C428 1.396 . S
C427 C429 1.365 . S
C427 H436 0.929 . S
C428 C425 1.394 . S
C428 C427 1.396 . S
C428 H437 0.930 . S
C429 C426 1.383 . S
C429 C427 1.365 . S
C429 H438 0.931 . S
C430 C425 1.370 . S
C430 C426 1.395 . S
C430 H439 0.930 . S
C431 Gd367 2.805 . S
C431 O407 1.263 . S
C431 O408 1.252 . S
C431 C425 1.500 . S
H432 C415 0.929 . S
H433 C416 0.930 . S
H434 C417 0.931 . S
H435 C418 0.930 . S
H436 C427 0.929 . S
H437 C428 0.930 . S
H438 C429 0.931 . S
H439 C430 0.930 . S
C440 C441 1.349 . S
C440 C442 1.327 . S
C440 H465 0.950 . S
C441 C440 1.349 . S
C441 C457 1.349 . S
C442 C440 1.327 . S
C442 C461 1.429 . S
C442 H466 0.950 . S
C443 C460 1.574 . S
C443 C462 1.368 . S
C443 H467 0.952 . S
H444 C448 0.949 . S
C445 C446 1.349 . S
C445 C447 1.327 . S
C445 H468 0.950 1_545 S
C446 C445 1.349 . S
C446 C458 1.349 . S
C447 C445 1.327 . S
C447 C463 1.429 . S
C447 H469 0.950 1_545 S
C448 H444 0.949 . S
C448 C456 1.574 . S
C448 C464 1.368 . S
H449 C457 0.950 . S
H450 C455 0.950 . S
H451 C456 0.949 . S
H452 C458 0.950 . S
H453 C459 0.950 . S
H454 C460 0.949 1_565 S
C455 H450 0.950 . S
C455 C457 1.327 . S
C455 C461 1.429 . S
C456 C448 1.574 . S
C456 H451 0.949 . S
C456 C462 1.368 . S
C457 C441 1.349 . S
C457 H449 0.950 . S
C457 C455 1.327 . S
C458 C446 1.349 . S
C458 H452 0.950 . S
C458 C459 1.327 . S
C459 H453 0.950 . S
C459 C458 1.327 . S
C459 C463 1.429 . S
C460 C443 1.574 . S
C460 H454 0.949 1_545 S
C460 C464 1.368 . S
C461 C442 1.429 . S
C461 C455 1.429 . S
C461 C462 1.523 . S
C462 C443 1.368 . S
C462 C456 1.368 . S
C462 C461 1.523 . S
C463 C447 1.429 . S
C463 C459 1.429 . S
C463 C464 1.523 . S
C464 C448 1.368 . S
C464 C460 1.368 . S
C464 C463 1.523 . S
H465 C440 0.950 . S
H466 C442 0.950 . S
H467 C443 0.952 . S
H468 C445 0.950 1_565 S
H469 C447 0.950 1_565 S
C470 C471 1.349 . S
C470 C472 1.327 . S
C470 H495 0.950 . S
C471 C470 1.349 . S
C471 C487 1.349 . S
C472 C470 1.327 . S
C472 C491 1.429 . S
C472 H496 0.950 . S
C473 C490 1.574 . S
C473 C492 1.368 . S
C473 H497 0.949 . S
H474 C478 0.949 . S
C475 C476 1.349 . S
C475 C477 1.327 . S
C475 H498 0.950 . S
C476 C475 1.349 . S
C476 C488 1.349 . S
C477 C475 1.327 . S
C477 C493 1.429 . S
C477 H499 0.950 . S
C478 H474 0.949 . S
C478 C486 1.574 . S
C478 C494 1.368 . S
H479 C487 0.950 . S
H480 C485 0.950 . S
H481 C486 0.949 . S
H482 C488 0.950 . S
H483 C489 0.950 . S
H484 C490 0.949 . S
C485 H480 0.950 . S
C485 C487 1.327 . S
C485 C491 1.429 . S
C486 C478 1.574 . S
C486 H481 0.949 . S
C486 C492 1.368 . S
C487 C471 1.349 . S
C487 H479 0.950 . S
C487 C485 1.327 . S
C488 C476 1.349 . S
C488 H482 0.950 . S
C488 C489 1.327 . S
C489 H483 0.950 . S
C489 C488 1.327 . S
C489 C493 1.429 . S
C490 C473 1.574 . S
C490 H484 0.949 . S
C490 C494 1.368 . S
C491 C472 1.429 . S
C491 C485 1.429 . S
C491 C492 1.523 . S
C492 C473 1.368 . S
C492 C486 1.368 . S
C492 C491 1.523 . S
C493 C477 1.429 . S
C493 C489 1.429 . S
C493 C494 1.523 . S
C494 C478 1.368 . S
C494 C490 1.368 . S
C494 C493 1.523 . S
H495 C470 0.950 . S
H496 C472 0.950 . S
H497 C473 0.949 . S
H498 C475 0.950 . S
H499 C477 0.950 . S
C500 C501 1.349 . S
C500 C502 1.327 . S
C500 H525 0.950 . S
C501 C500 1.349 . S
C501 C517 1.349 . S
C502 C500 1.327 . S
C502 C521 1.429 . S
C502 H526 0.950 . S
C503 C520 1.574 . S
C503 C522 1.368 . S
C503 H527 0.949 . S
H504 C508 0.949 . S
C505 C506 1.349 . S
C505 C507 1.327 . S
C505 H528 0.950 . S
C506 C505 1.349 . S
C506 C518 1.349 . S
C507 C505 1.327 . S
C507 C523 1.429 . S
C507 H529 0.950 . S
C508 H504 0.949 . S
C508 C516 1.574 . S
C508 C524 1.368 . S
H509 C517 0.950 . S
H510 C515 0.950 . S
H511 C516 0.949 . S
H512 C518 0.950 . S
H513 C519 0.950 . S
H514 C520 0.949 . S
C515 H510 0.950 . S
C515 C517 1.327 . S
C515 C521 1.429 . S
C516 C508 1.574 . S
C516 H511 0.949 . S
C516 C522 1.368 . S
C517 C501 1.349 . S
C517 H509 0.950 . S
C517 C515 1.327 . S
C518 C506 1.349 . S
C518 H512 0.950 . S
C518 C519 1.327 . S
C519 H513 0.950 . S
C519 C518 1.327 . S
C519 C523 1.429 . S
C520 C503 1.574 . S
C520 H514 0.949 . S
C520 C524 1.368 . S
C521 C502 1.429 . S
C521 C515 1.429 . S
C521 C522 1.523 . S
C522 C503 1.368 . S
C522 C516 1.368 . S
C522 C521 1.523 . S
C523 C507 1.429 . S
C523 C519 1.429 . S
C523 C524 1.523 . S
C524 C508 1.368 . S
C524 C520 1.368 . S
C524 C523 1.523 . S
H525 C500 0.950 . S
H526 C502 0.950 . S
H527 C503 0.949 . S
H528 C505 0.950 . S
H529 C507 0.950 . S
C530 C531 1.349 . S
C530 C532 1.327 . S
C530 H555 0.950 . S
C531 C530 1.349 . S
C531 C547 1.349 . S
C532 C530 1.327 . S
C532 C551 1.429 . S
C532 H556 0.950 . S
C533 C550 1.574 . S
C533 C552 1.368 . S
C533 H557 0.949 . S
H534 C538 0.940 1_655 S
C535 C536 1.349 . S
C535 C537 1.327 . S
C535 H558 0.950 . S
C536 C535 1.349 . S
C536 C548 1.349 . S
C537 C535 1.327 . S
C537 C553 1.429 . S
C537 H559 0.950 . S
C538 H534 0.940 1_455 S
C538 C546 1.574 . S
C538 C554 1.368 . S
H539 C547 0.950 . S
H540 C545 0.950 . S
H541 C546 0.949 . S
H542 C548 0.950 1_655 S
H543 C549 0.950 1_655 S
H544 C550 0.949 . S
C545 H540 0.950 . S
C545 C547 1.327 . S
C545 C551 1.429 . S
C546 C538 1.574 . S
C546 H541 0.949 . S
C546 C552 1.368 . S
C547 C531 1.349 . S
C547 H539 0.950 . S
C547 C545 1.327 . S
C548 C536 1.349 . S
C548 H542 0.950 1_455 S
C548 C549 1.327 . S
C549 H543 0.950 1_455 S
C549 C548 1.327 . S
C549 C553 1.429 . S
C550 C533 1.574 . S
C550 H544 0.949 . S
C550 C554 1.368 . S
C551 C532 1.429 . S
C551 C545 1.429 . S
C551 C552 1.523 . S
C552 C533 1.368 . S
C552 C546 1.368 . S
C552 C551 1.523 . S
C553 C537 1.429 . S
C553 C549 1.429 . S
C553 C554 1.523 . S
C554 C538 1.368 . S
C554 C550 1.368 . S
C554 C553 1.523 . S
H555 C530 0.950 . S
H556 C532 0.950 . S
H557 C533 0.949 . S
H558 C535 0.950 . S
H559 C537 0.950 . S
C560 C561 1.349 . S
C560 C562 1.327 . S
C560 H585 0.950 . S
C561 C560 1.349 . S
C561 C577 1.349 . S
C562 C560 1.327 . S
C562 C581 1.429 . S
C562 H586 0.950 . S
C563 C580 1.574 . S
C563 C582 1.368 1_546 S
C563 H587 0.949 . S
H564 C568 0.949 . S
C565 C566 1.349 . S
C565 C567 1.327 . S
C565 H588 0.950 . S
C566 C565 1.349 . S
C566 C578 1.349 1_545 S
C567 C565 1.327 . S
C567 C583 1.429 1_545 S
C567 H589 0.950 . S
C568 H564 0.949 . S
C568 C576 1.574 . S
C568 C584 1.368 1_554 S
H569 C577 0.950 1_545 S
H570 C575 0.950 1_545 S
H571 C576 0.949 . S
H572 C578 0.950 . S
H573 C579 0.950 . S
H574 C580 0.949 . S
C575 H570 0.950 1_565 S
C575 C577 1.327 . S
C575 C581 1.429 . S
C576 C568 1.574 . S
C576 H571 0.949 . S
C576 C582 1.368 . S
C577 C561 1.349 . S
C577 H569 0.950 1_565 S
C577 C575 1.327 . S
C578 C566 1.349 1_565 S
C578 H572 0.950 . S
C578 C579 1.327 . S
C579 H573 0.950 . S
C579 C578 1.327 . S
C579 C583 1.429 . S
C580 C563 1.574 . S
C580 H574 0.949 . S
C580 C584 1.368 1_545 S
C581 C562 1.429 . S
C581 C575 1.429 . S
C581 C582 1.523 . S
C582 C563 1.368 1_564 S
C582 C576 1.368 . S
C582 C581 1.523 . S
C583 C567 1.429 1_565 S
C583 C579 1.429 . S
C583 C584 1.523 . S
C584 C568 1.368 1_556 S
C584 C580 1.368 1_565 S
C584 C583 1.523 . S
H585 C560 0.950 . S
H586 C562 0.950 . S
H587 C563 0.949 . S
H588 C565 0.950 . S
H589 C567 0.950 . S
C590 C591 1.349 . S
C590 C592 1.327 . S
C590 H615 0.950 . S
C591 C590 1.349 . S
C591 C607 1.349 . S
C592 C590 1.327 . S
C592 C611 1.429 . S
C592 H616 0.950 . S
C593 C610 1.574 . S
C593 C612 1.368 1_556 S
C593 H617 0.949 . S
H594 C598 0.949 . S
C595 C596 1.349 . S
C595 C597 1.327 . S
C595 H618 0.950 . S
C596 C595 1.349 . S
C596 C608 1.349 . S
C597 C595 1.327 . S
C597 C613 1.429 . S
C597 H619 0.950 . S
C598 H594 0.949 . S
C598 C606 1.574 . S
C598 C614 1.368 1_554 S
H599 C607 0.950 . S
H600 C605 0.950 . S
H601 C606 0.949 . S
H602 C608 0.950 . S
H603 C609 0.950 . S
H604 C610 0.949 . S
C605 H600 0.950 . S
C605 C607 1.327 . S
C605 C611 1.429 . S
C606 C598 1.574 . S
C606 H601 0.949 . S
C606 C612 1.368 . S
C607 C591 1.349 . S
C607 H599 0.950 . S
C607 C605 1.327 . S
C608 C596 1.349 . S
C608 H602 0.950 . S
C608 C609 1.327 . S
C609 H603 0.950 . S
C609 C608 1.327 . S
C609 C613 1.429 . S
C610 C593 1.574 . S
C610 H604 0.949 . S
C610 C614 1.368 . S
C611 C592 1.429 . S
C611 C605 1.429 . S
C611 C612 1.523 . S
C612 C593 1.368 1_554 S
C612 C606 1.368 . S
C612 C611 1.523 . S
C613 C597 1.429 . S
C613 C609 1.429 . S
C613 C614 1.523 . S
C614 C598 1.368 1_556 S
C614 C610 1.368 . S
C614 C613 1.523 . S
H615 C590 0.950 . S
H616 C592 0.950 . S
H617 C593 0.949 . S
H618 C595 0.950 . S
H619 C597 0.950 . S
C620 C621 1.349 . S
C620 C622 1.327 . S
C620 H645 0.950 . S
C621 C620 1.349 . S
C621 C637 1.349 . S
C622 C620 1.327 . S
C622 C641 1.429 . S
C622 H646 0.950 . S
C623 C640 1.574 1_554 S
C623 C642 1.368 . S
C623 H647 0.949 . S
H624 C628 0.949 . S
C625 C626 1.349 . S
C625 C627 1.327 . S
C625 H648 0.950 . S
C626 C625 1.349 . S
C626 C638 1.349 . S
C627 C625 1.327 . S
C627 C643 1.429 . S
C627 H649 0.950 . S
C628 H624 0.949 . S
C628 C636 1.574 1_556 S
C628 C644 1.368 . S
H629 C637 0.950 . S
H630 C635 0.950 . S
H631 C636 0.949 . S
H632 C638 0.950 . S
H633 C639 0.950 . S
H634 C640 0.949 . S
C635 H630 0.950 . S
C635 C637 1.327 . S
C635 C641 1.429 . S
C636 C628 1.574 1_554 S
C636 H631 0.949 . S
C636 C642 1.368 . S
C637 C621 1.349 . S
C637 H629 0.950 . S
C637 C635 1.327 . S
C638 C626 1.349 . S
C638 H632 0.950 . S
C638 C639 1.327 . S
C639 H633 0.950 . S
C639 C638 1.327 . S
C639 C643 1.429 . S
C640 C623 1.574 1_556 S
C640 H634 0.949 . S
C640 C644 1.368 . S
C641 C622 1.429 . S
C641 C635 1.429 . S
C641 C642 1.523 . S
C642 C623 1.368 . S
C642 C636 1.368 . S
C642 C641 1.523 . S
C643 C627 1.429 . S
C643 C639 1.429 . S
C643 C644 1.523 . S
C644 C628 1.368 . S
C644 C640 1.368 . S
C644 C643 1.523 . S
H645 C620 0.950 . S
H646 C622 0.950 . S
H647 C623 0.949 . S
H648 C625 0.950 . S
H649 C627 0.950 . S
C650 C651 1.349 . S
C650 C652 1.327 . S
C650 H675 0.950 . S
C651 C650 1.349 . S
C651 C667 1.349 . S
C652 C650 1.327 . S
C652 C671 1.429 . S
C652 H676 0.950 . S
C653 C670 1.581 . S
C653 C672 1.337 1_456 S
C653 H677 0.974 . S
H654 C658 0.949 . S
C655 C656 1.349 1_455 S
C655 C657 1.327 . S
C655 H678 0.950 . S
C656 C655 1.349 1_655 S
C656 C668 1.349 . S
C657 C655 1.327 . S
C657 C673 1.429 1_455 S
C657 H679 0.950 . S
C658 H654 0.949 . S
C658 C666 1.574 . S
C658 C674 1.368 1_554 S
H659 C667 0.954 . S
H660 C665 0.950 1_455 S
H661 C666 0.949 . S
H662 C668 0.950 . S
H663 C669 0.950 . S
H664 C670 0.949 . S
C665 H660 0.950 1_655 S
C665 C667 1.327 . S
C665 C671 1.429 . S
C666 C658 1.574 . S
C666 H661 0.949 . S
C666 C672 1.368 . S
C667 C651 1.349 . S
C667 H659 0.954 . S
C667 C665 1.327 . S
C668 C656 1.349 . S
C668 H662 0.950 . S
C668 C669 1.327 . S
C669 H663 0.950 . S
C669 C668 1.327 . S
C669 C673 1.429 . S
C670 C653 1.581 . S
C670 H664 0.949 . S
C670 C674 1.368 1_455 S
C671 C652 1.429 . S
C671 C665 1.429 . S
C671 C672 1.523 . S
C672 C653 1.337 1_654 S
C672 C666 1.368 . S
C672 C671 1.523 . S
C673 C657 1.429 1_655 S
C673 C669 1.429 . S
C673 C674 1.523 . S
C674 C658 1.368 1_556 S
C674 C670 1.368 1_655 S
C674 C673 1.523 . S
H675 C650 0.950 . S
H676 C652 0.950 . S
H677 C653 0.974 . S
H678 C655 0.950 . S
H679 C657 0.950 . S
C680 C681 1.349 . S
C680 C682 1.327 . S
C680 H705 0.950 . S
C681 C680 1.349 . S
C681 C697 1.349 . S
C682 C680 1.327 . S
C682 C701 1.429 . S
C682 H706 0.950 . S
C683 C700 1.574 . S
C683 C702 1.368 . S
C683 H707 0.949 . S
H684 C688 0.949 . S
C685 C686 1.349 . S
C685 C687 1.327 . S
C685 H708 0.950 . S
C686 C685 1.349 . S
C686 C698 1.349 1_455 S
C687 C685 1.327 . S
C687 C703 1.429 . S
C687 H709 0.950 . S
C688 H684 0.949 . S
C688 C696 1.574 . S
C688 C704 1.368 . S
H689 C697 0.950 . S
H690 C695 0.950 . S
H691 C696 0.949 . S
H692 C698 0.950 . S
H693 C699 0.950 1_655 S
H694 C700 0.949 . S
C695 H690 0.950 . S
C695 C697 1.327 . S
C695 C701 1.429 . S
C696 C688 1.574 . S
C696 H691 0.949 . S
C696 C702 1.368 . S
C697 C681 1.349 . S
C697 H689 0.950 . S
C697 C695 1.327 . S
C698 C686 1.349 1_655 S
C698 H692 0.950 . S
C698 C699 1.327 1_655 S
C699 H693 0.950 1_455 S
C699 C698 1.327 1_455 S
C699 C703 1.429 . S
C700 C683 1.574 . S
C700 H694 0.949 . S
C700 C704 1.368 . S
C701 C682 1.429 . S
C701 C695 1.429 . S
C701 C702 1.523 . S
C702 C683 1.368 . S
C702 C696 1.368 . S
C702 C701 1.523 . S
C703 C687 1.429 . S
C703 C699 1.429 . S
C703 C704 1.523 . S
C704 C688 1.368 . S
C704 C700 1.368 . S
C704 C703 1.523 . S
H705 C680 0.950 . S
H706 C682 0.950 . S
H707 C683 0.949 . S
H708 C685 0.950 . S
H709 C687 0.950 . S
C710 C711 1.349 . S
C710 C712 1.327 . S
C710 H735 0.950 . S
C711 C710 1.349 . S
C711 C727 1.349 . S
C712 C710 1.327 . S
C712 C731 1.429 . S
C712 H736 0.950 . S
C713 C730 1.574 . S
C713 C732 1.368 . S
C713 H737 0.949 . S
H714 C718 0.949 1_565 S
C715 C716 1.349 . S
C715 C717 1.327 . S
C715 H738 0.950 . S
C716 C715 1.349 . S
C716 C728 1.349 1_545 S
C717 C715 1.327 . S
C717 C733 1.429 . S
C717 H739 0.950 . S
C718 H714 0.949 1_545 S
C718 C726 1.574 . S
C718 C734 1.368 . S
H719 C727 0.950 . S
H720 C725 0.950 . S
H721 C726 0.949 . S
H722 C728 0.950 . S
H723 C729 0.934 1_565 S
H724 C730 0.949 . S
C725 H720 0.950 . S
C725 C727 1.327 . S
C725 C731 1.429 . S
C726 C718 1.574 . S
C726 H721 0.949 . S
C726 C732 1.368 . S
C727 C711 1.349 . S
C727 H719 0.950 . S
C727 C725 1.327 . S
C728 C716 1.349 1_565 S
C728 H722 0.950 . S
C728 C729 1.323 1_565 S
C729 H723 0.934 1_545 S
C729 C728 1.323 1_545 S
C729 C733 1.449 . S
C730 C713 1.574 . S
C730 H724 0.949 . S
C730 C734 1.368 . S
C731 C712 1.429 . S
C731 C725 1.429 . S
C731 C732 1.523 . S
C732 C713 1.368 . S
C732 C726 1.368 . S
C732 C731 1.523 . S
C733 C717 1.429 . S
C733 C729 1.449 . S
C733 C734 1.523 . S
C734 C718 1.368 . S
C734 C730 1.368 . S
C734 C733 1.523 . S
H735 C710 0.950 . S
H736 C712 0.950 . S
H737 C713 0.949 . S
H738 C715 0.950 . S
H739 C717 0.950 . S
C740 C741 1.349 . S
C740 C742 1.327 . S
C740 H765 0.950 . S
C741 C740 1.349 . S
C741 C757 1.349 . S
C742 C740 1.327 . S
C742 C761 1.429 . S
C742 H766 0.950 . S
C743 C760 1.574 . S
C743 C762 1.368 . S
C743 H767 0.949 . S
H744 C748 0.949 . S
C745 C746 1.349 . S
C745 C747 1.327 . S
C745 H768 0.950 . S
C746 C745 1.349 . S
C746 C758 1.349 . S
C747 C745 1.327 . S
C747 C763 1.429 . S
C747 H769 0.950 . S
C748 H744 0.949 . S
C748 C756 1.574 . S
C748 C764 1.368 . S
H749 C757 0.950 . S
H750 C755 0.950 . S
H751 C756 0.949 . S
H752 C758 0.950 . S
H753 C759 0.950 . S
H754 C760 0.949 . S
C755 H750 0.950 . S
C755 C757 1.327 . S
C755 C761 1.429 . S
C756 C748 1.574 . S
C756 H751 0.949 . S
C756 C762 1.368 . S
C757 C741 1.349 . S
C757 H749 0.950 . S
C757 C755 1.327 . S
C758 C746 1.349 . S
C758 H752 0.950 . S
C758 C759 1.327 . S
C759 H753 0.950 . S
C759 C758 1.327 . S
C759 C763 1.429 . S
C760 C743 1.574 . S
C760 H754 0.949 . S
C760 C764 1.368 . S
C761 C742 1.429 . S
C761 C755 1.429 . S
C761 C762 1.523 . S
C762 C743 1.368 . S
C762 C756 1.368 . S
C762 C761 1.523 . S
C763 C747 1.429 . S
C763 C759 1.429 . S
C763 C764 1.523 . S
C764 C748 1.368 . S
C764 C760 1.368 . S
C764 C763 1.523 . S
H765 C740 0.950 . S
H766 C742 0.950 . S
H767 C743 0.949 . S
H768 C745 0.950 . S
H769 C747 0.950 . S
C770 C771 1.349 . S
C770 C772 1.327 . S
C770 H795 0.950 . S
C771 C770 1.349 . S
C771 C787 1.349 . S
C772 C770 1.327 . S
C772 C791 1.429 . S
C772 H796 0.950 . S
C773 C790 1.574 . S
C773 C792 1.368 . S
C773 H797 0.949 . S
H774 C778 0.949 . S
C775 C776 1.349 . S
C775 C777 1.327 . S
C775 H798 0.950 . S
C776 C775 1.349 . S
C776 C788 1.349 . S
C777 C775 1.327 . S
C777 C793 1.429 . S
C777 H799 0.950 . S
C778 H774 0.949 . S
C778 C786 1.574 . S
C778 C794 1.368 . S
H779 C787 0.950 . S
H780 C785 0.950 . S
H781 C786 0.949 . S
H782 C788 0.950 . S
H783 C789 0.950 . S
H784 C790 0.949 . S
C785 H780 0.950 . S
C785 C787 1.327 . S
C785 C791 1.429 . S
C786 C778 1.574 . S
C786 H781 0.949 . S
C786 C792 1.368 . S
C787 C771 1.349 . S
C787 H779 0.950 . S
C787 C785 1.327 . S
C788 C776 1.349 . S
C788 H782 0.950 . S
C788 C789 1.327 . S
C789 H783 0.950 . S
C789 C788 1.327 . S
C789 C793 1.429 . S
C790 C773 1.574 . S
C790 H784 0.949 . S
C790 C794 1.368 . S
C791 C772 1.429 . S
C791 C785 1.429 . S
C791 C792 1.523 . S
C792 C773 1.368 . S
C792 C786 1.368 . S
C792 C791 1.523 . S
C793 C777 1.429 . S
C793 C789 1.429 . S
C793 C794 1.523 . S
C794 C778 1.368 . S
C794 C790 1.368 . S
C794 C793 1.523 . S
H795 C770 0.950 . S
H796 C772 0.950 . S
H797 C773 0.949 . S
H798 C775 0.950 . S
H799 C777 0.950 . S
C800 C801 1.349 . S
C800 C802 1.327 . S
C800 H825 0.950 . S
C801 C800 1.349 . S
C801 C817 1.349 . S
C802 C800 1.327 . S
C802 C821 1.429 . S
C802 H826 0.950 . S
C803 C820 1.574 . S
C803 C822 1.368 . S
C803 H827 0.949 . S
H804 C808 0.946 1_456 S
C805 C806 1.349 . S
C805 C807 1.327 1_456 S
C805 H828 0.954 1_556 S
C806 C805 1.349 . S
C806 C818 1.349 . S
C807 C805 1.327 1_654 S
C807 C823 1.424 1_654 S
C807 H829 0.950 . S
C808 H804 0.946 1_654 S
C808 C816 1.575 . S
C808 C824 1.370 . S
H809 C817 0.950 . S
H810 C815 0.950 . S
H811 C816 0.949 . S
H812 C818 0.950 . S
H813 C819 0.950 . S
H814 C820 0.949 . S
C815 H810 0.950 . S
C815 C817 1.327 . S
C815 C821 1.429 . S
C816 C808 1.575 . S
C816 H811 0.949 . S
C816 C822 1.368 . S
C817 C801 1.349 . S
C817 H809 0.950 . S
C817 C815 1.327 . S
C818 C806 1.349 . S
C818 H812 0.950 . S
C818 C819 1.327 . S
C819 H813 0.950 . S
C819 C818 1.327 . S
C819 C823 1.442 . S
C820 C803 1.574 . S
C820 H814 0.949 . S
C820 C824 1.368 . S
C821 C802 1.429 . S
C821 C815 1.429 . S
C821 C822 1.523 . S
C822 C803 1.368 . S
C822 C816 1.368 . S
C822 C821 1.523 . S
C823 C807 1.424 1_456 S
C823 C819 1.442 . S
C823 C824 1.516 1_456 S
C824 C808 1.370 . S
C824 C820 1.368 . S
C824 C823 1.516 1_654 S
H825 C800 0.950 . S
H826 C802 0.950 . S
H827 C803 0.949 . S
H828 C805 0.954 1_554 S
H829 C807 0.950 . S
C830 C831 1.349 . S
C830 C832 1.327 . S
C830 H855 0.950 1_565 S
C831 C830 1.349 . S
C831 C847 1.349 . S
C832 C830 1.327 . S
C832 C851 1.429 . S
C832 H856 0.950 1_565 S
C833 C850 1.574 . S
C833 C852 1.368 . S
C833 H857 0.949 . S
H834 C838 0.949 . S
C835 C836 1.349 1_565 S
C835 C837 1.327 1_556 S
C835 H858 0.950 . S
C836 C835 1.349 1_545 S
C836 C848 1.349 . S
C837 C835 1.327 1_554 S
C837 C853 1.429 1_565 S
C837 H859 0.950 . S
C838 H834 0.949 . S
C838 C846 1.574 . S
C838 C854 1.368 1_545 S
H839 C847 0.950 . S
H840 C845 0.950 . S
H841 C846 0.949 . S
H842 C848 0.950 . S
H843 C849 0.950 . S
H844 C850 0.949 . S
C845 H840 0.950 . S
C845 C847 1.327 . S
C845 C851 1.429 . S
C846 C838 1.574 . S
C846 H841 0.949 . S
C846 C852 1.368 1_545 S
C847 C831 1.349 . S
C847 H839 0.950 . S
C847 C845 1.327 . S
C848 C836 1.349 . S
C848 H842 0.950 . S
C848 C849 1.327 . S
C849 H843 0.950 . S
C849 C848 1.327 . S
C849 C853 1.429 1_556 S
C850 C833 1.574 . S
C850 H844 0.949 . S
C850 C854 1.368 . S
C851 C832 1.429 . S
C851 C845 1.429 . S
C851 C852 1.523 . S
C852 C833 1.368 . S
C852 C846 1.368 1_565 S
C852 C851 1.523 . S
C853 C837 1.429 1_545 S
C853 C849 1.429 1_554 S
C853 C854 1.523 1_545 S
C854 C838 1.368 1_565 S
C854 C850 1.368 . S
C854 C853 1.523 1_565 S
H855 C830 0.950 1_545 S
H856 C832 0.950 1_545 S
H857 C833 0.949 . S
H858 C835 0.950 . S
H859 C837 0.950 . S
C860 C861 1.349 . S
C860 C862 1.327 . S
C860 H885 0.950 . S
C861 C860 1.349 . S
C861 C877 1.349 . S
C862 C860 1.327 . S
C862 C881 1.429 . S
C862 H886 0.950 . S
C863 C880 1.574 . S
C863 C882 1.368 . S
C863 H887 0.949 . S
H864 C868 0.949 1_556 S
C865 C866 1.349 . S
C865 C867 1.327 1_556 S
C865 H888 0.950 . S
C866 C865 1.349 . S
C866 C878 1.349 . S
C867 C865 1.327 1_554 S
C867 C883 1.429 . S
C867 H889 0.950 . S
C868 H864 0.949 1_554 S
C868 C876 1.574 . S
C868 C884 1.368 . S
H869 C877 0.950 . S
H870 C875 0.950 . S
H871 C876 0.949 . S
H872 C878 0.950 . S
H873 C879 0.950 . S
H874 C880 0.949 . S
C875 H870 0.950 . S
C875 C877 1.327 . S
C875 C881 1.429 . S
C876 C868 1.574 . S
C876 H871 0.949 . S
C876 C882 1.368 . S
C877 C861 1.349 . S
C877 H869 0.950 . S
C877 C875 1.327 . S
C878 C866 1.349 . S
C878 H872 0.950 . S
C878 C879 1.327 . S
C879 H873 0.950 . S
C879 C878 1.327 . S
C879 C883 1.429 1_556 S
C880 C863 1.574 . S
C880 H874 0.949 . S
C880 C884 1.368 . S
C881 C862 1.429 . S
C881 C875 1.429 . S
C881 C882 1.523 . S
C882 C863 1.368 . S
C882 C876 1.368 . S
C882 C881 1.523 . S
C883 C867 1.429 . S
C883 C879 1.429 1_554 S
C883 C884 1.523 . S
C884 C868 1.368 . S
C884 C880 1.368 . S
C884 C883 1.523 . S
H885 C860 0.950 . S
H886 C862 0.950 . S
H887 C863 0.949 . S
H888 C865 0.950 . S
H889 C867 0.950 . S
C890 C891 1.349 . S
C890 C892 1.327 . S
C890 H915 0.950 . S
C891 C890 1.349 . S
C891 C907 1.349 . S
C892 C890 1.327 . S
C892 C911 1.429 . S
C892 H916 0.950 . S
C893 C910 1.574 . S
C893 C912 1.368 . S
C893 H917 0.949 . S
H894 C898 0.949 . S
C895 C896 1.349 . S
C895 C897 1.327 1_556 S
C895 H918 0.950 . S
C896 C895 1.349 . S
C896 C908 1.349 . S
C897 C895 1.327 1_554 S
C897 C913 1.429 1_554 S
C897 H919 0.949 . S
C898 H894 0.949 . S
C898 C906 1.574 . S
C898 C914 1.368 . S
H899 C907 0.950 . S
H900 C905 0.950 . S
H901 C906 0.949 . S
H902 C908 0.950 . S
H903 C909 0.950 . S
H904 C910 0.949 . S
C905 H900 0.950 . S
C905 C907 1.327 . S
C905 C911 1.429 . S
C906 C898 1.574 . S
C906 H901 0.949 . S
C906 C912 1.368 . S
C907 C891 1.349 . S
C907 H899 0.950 . S
C907 C905 1.327 . S
C908 C896 1.349 . S
C908 H902 0.950 . S
C908 C909 1.327 . S
C909 H903 0.950 . S
C909 C908 1.327 . S
C909 C913 1.428 . S
C910 C893 1.574 . S
C910 H904 0.949 . S
C910 C914 1.368 . S
C911 C892 1.429 . S
C911 C905 1.429 . S
C911 C912 1.523 . S
C912 C893 1.368 . S
C912 C906 1.368 . S
C912 C911 1.523 . S
C913 C897 1.429 1_556 S
C913 C909 1.428 . S
C913 C914 1.523 1_556 S
C914 C898 1.368 . S
C914 C910 1.368 . S
C914 C913 1.523 1_554 S
H915 C890 0.950 . S
H916 C892 0.950 . S
H917 C893 0.949 . S
H918 C895 0.950 . S
H919 C897 0.949 . S
C920 C921 1.349 . S
C920 C922 1.327 . S
C920 H945 0.950 . S
C921 C920 1.349 . S
C921 C937 1.349 . S
C922 C920 1.327 . S
C922 C941 1.429 . S
C922 H946 0.950 . S
C923 C940 1.574 . S
C923 C942 1.368 . S
C923 H947 0.949 . S
H924 C928 0.949 . S
C925 C926 1.349 . S
C925 C927 1.327 . S
C925 H948 0.950 . S
C926 C925 1.349 . S
C926 C938 1.349 . S
C927 C925 1.327 . S
C927 C943 1.429 . S
C927 H949 0.950 . S
C928 H924 0.949 . S
C928 C936 1.574 . S
C928 C944 1.368 . S
H929 C937 0.950 1_554 S
H930 C935 0.950 1_554 S
H931 C936 0.949 . S
H932 C938 0.950 . S
H933 C939 0.950 . S
H934 C940 0.949 . S
C935 H930 0.950 1_556 S
C935 C937 1.327 . S
C935 C941 1.429 . S
C936 C928 1.574 . S
C936 H931 0.949 . S
C936 C942 1.368 . S
C937 C921 1.349 . S
C937 H929 0.950 1_556 S
C937 C935 1.327 . S
C938 C926 1.349 . S
C938 H932 0.950 . S
C938 C939 1.327 . S
C939 H933 0.950 . S
C939 C938 1.327 . S
C939 C943 1.429 . S
C940 C923 1.574 . S
C940 H934 0.949 . S
C940 C944 1.368 . S
C941 C922 1.429 . S
C941 C935 1.429 . S
C941 C942 1.523 . S
C942 C923 1.368 . S
C942 C936 1.368 . S
C942 C941 1.523 . S
C943 C927 1.429 . S
C943 C939 1.429 . S
C943 C944 1.523 . S
C944 C928 1.368 . S
C944 C940 1.368 . S
C944 C943 1.523 . S
H945 C920 0.950 . S
H946 C922 0.950 . S
H947 C923 0.949 . S
H948 C925 0.950 . S
H949 C927 0.950 . S
C950 C951 1.349 . S
C950 C952 1.327 . S
C950 H975 0.950 . S
C951 C950 1.349 . S
C951 C967 1.349 . S
C952 C950 1.327 . S
C952 C971 1.429 . S
C952 H976 0.950 . S
C953 C970 1.574 . S
C953 C972 1.368 . S
C953 H977 0.949 . S
H954 C958 0.949 1_565 S
C955 C956 1.349 . S
C955 C957 1.327 . S
C955 H978 0.950 . S
C956 C955 1.349 . S
C956 C968 1.349 . S
C957 C955 1.327 . S
C957 C973 1.429 . S
C957 H979 0.950 . S
C958 H954 0.949 1_545 S
C958 C966 1.574 . S
C958 C974 1.368 . S
H959 C967 0.950 . S
H960 C965 0.950 . S
H961 C966 0.949 . S
H962 C968 0.950 1_565 S
H963 C969 0.950 1_565 S
H964 C970 0.949 . S
C965 H960 0.950 . S
C965 C967 1.327 . S
C965 C971 1.429 . S
C966 C958 1.574 . S
C966 H961 0.949 . S
C966 C972 1.368 . S
C967 C951 1.349 . S
C967 H959 0.950 . S
C967 C965 1.327 . S
C968 C956 1.349 . S
C968 H962 0.950 1_545 S
C968 C969 1.327 . S
C969 H963 0.950 1_545 S
C969 C968 1.327 . S
C969 C973 1.429 . S
C970 C953 1.574 . S
C970 H964 0.949 . S
C970 C974 1.368 . S
C971 C952 1.429 . S
C971 C965 1.429 . S
C971 C972 1.523 . S
C972 C953 1.368 . S
C972 C966 1.368 . S
C972 C971 1.523 . S
C973 C957 1.429 . S
C973 C969 1.429 . S
C973 C974 1.523 . S
C974 C958 1.368 . S
C974 C970 1.368 . S
C974 C973 1.523 . S
H975 C950 0.950 . S
H976 C952 0.950 . S
H977 C953 0.949 . S
H978 C955 0.950 . S
H979 C957 0.950 . S
C980 C981 1.349 . S
C980 C982 1.327 . S
C980 H1005 0.950 1_556 S
C981 C980 1.349 . S
C981 C997 1.349 . S
C982 C980 1.327 . S
C982 C1001 1.429 . S
C982 H1006 0.950 . S
C983 C1000 1.574 . S
C983 C1002 1.368 . S
C983 H1007 0.949 . S
H984 C988 0.949 . S
C985 C986 1.349 . S
C985 C987 1.327 . S
C985 H1008 0.950 . S
C986 C985 1.349 . S
C986 C998 1.349 . S
C987 C985 1.327 . S
C987 C1003 1.429 . S
C987 H1009 0.950 . S
C988 H984 0.949 . S
C988 C996 1.574 . S
C988 C1004 1.368 . S
H989 C997 0.950 . S
H990 C995 0.950 . S
H991 C996 0.949 . S
H992 C998 0.950 . S
H993 C999 0.950 . S
H994 C1000 0.949 . S
C995 H990 0.950 . S
C995 C997 1.327 . S
C995 C1001 1.429 . S
C996 C988 1.574 . S
C996 H991 0.949 . S
C996 C1002 1.368 . S
C997 C981 1.349 . S
C997 H989 0.950 . S
C997 C995 1.327 . S
C998 C986 1.349 . S
C998 H992 0.950 . S
C998 C999 1.327 . S
C999 H993 0.950 . S
C999 C998 1.327 . S
C999 C1003 1.429 . S
C1000 C983 1.574 . S
C1000 H994 0.949 . S
C1000 C1004 1.368 . S
C1001 C982 1.429 . S
C1001 C995 1.429 . S
C1001 C1002 1.523 . S
C1002 C983 1.368 . S
C1002 C996 1.368 . S
C1002 C1001 1.523 . S
C1003 C987 1.429 . S
C1003 C999 1.429 . S
C1003 C1004 1.523 . S
C1004 C988 1.368 . S
C1004 C1000 1.368 . S
C1004 C1003 1.523 . S
H1005 C980 0.950 1_554 S
H1006 C982 0.950 . S
H1007 C983 0.949 . S
H1008 C985 0.950 . S
H1009 C987 0.950 . S
C1010 C1011 1.349 . S
C1010 C1012 1.327 . S
C1010 H1035 0.950 . S
C1011 C1010 1.349 . S
C1011 C1027 1.349 . S
C1012 C1010 1.327 . S
C1012 C1031 1.429 . S
C1012 H1036 0.950 . S
C1013 C1030 1.574 . S
C1013 C1032 1.368 . S
C1013 H1037 0.949 . S
H1014 C1018 0.949 . S
C1015 C1016 1.349 . S
C1015 C1017 1.327 . S
C1015 H1038 0.950 . S
C1016 C1015 1.349 . S
C1016 C1028 1.349 . S
C1017 C1015 1.327 . S
C1017 C1033 1.429 . S
C1017 H1039 0.950 . S
C1018 H1014 0.949 . S
C1018 C1026 1.574 . S
C1018 C1034 1.368 . S
H1019 C1027 0.950 . S
H1020 C1025 0.950 . S
H1021 C1026 0.949 . S
H1022 C1028 0.950 . S
H1023 C1029 0.950 . S
H1024 C1030 0.949 . S
C1025 H1020 0.950 . S
C1025 C1027 1.327 . S
C1025 C1031 1.429 . S
C1026 C1018 1.574 . S
C1026 H1021 0.949 . S
C1026 C1032 1.368 . S
C1027 C1011 1.349 . S
C1027 H1019 0.950 . S
C1027 C1025 1.327 . S
C1028 C1016 1.349 . S
C1028 H1022 0.950 . S
C1028 C1029 1.327 . S
C1029 H1023 0.950 . S
C1029 C1028 1.327 . S
C1029 C1033 1.429 . S
C1030 C1013 1.574 . S
C1030 H1024 0.949 . S
C1030 C1034 1.368 . S
C1031 C1012 1.429 . S
C1031 C1025 1.429 . S
C1031 C1032 1.523 . S
C1032 C1013 1.368 . S
C1032 C1026 1.368 . S
C1032 C1031 1.523 . S
C1033 C1017 1.429 . S
C1033 C1029 1.429 . S
C1033 C1034 1.523 . S
C1034 C1018 1.368 . S
C1034 C1030 1.368 . S
C1034 C1033 1.523 . S
H1035 C1010 0.950 . S
H1036 C1012 0.950 . S
H1037 C1013 0.949 . S
H1038 C1015 0.950 . S
H1039 C1017 0.950 . S
C1040 C1041 1.349 . S
C1040 C1042 1.327 . S
C1040 H1065 0.971 . S
C1041 C1040 1.349 . S
C1041 C1057 1.349 . S
C1042 C1040 1.327 . S
C1042 C1061 1.429 . S
C1042 H1066 0.950 1_655 S
C1043 C1060 1.574 . S
C1043 C1062 1.368 . S
C1043 H1067 0.949 . S
H1044 C1048 0.949 . S
C1045 C1046 1.349 . S
C1045 C1047 1.327 . S
C1045 H1068 0.950 . S
C1046 C1045 1.349 . S
C1046 C1058 1.349 1_655 S
C1047 C1045 1.327 . S
C1047 C1063 1.429 . S
C1047 H1069 0.950 . S
C1048 H1044 0.949 . S
C1048 C1056 1.574 1_455 S
C1048 C1064 1.368 1_455 S
H1049 C1057 0.950 . S
H1050 C1055 0.950 . S
H1051 C1056 0.949 1_455 S
H1052 C1058 0.950 . S
H1053 C1059 0.950 . S
H1054 C1060 0.949 . S
C1055 H1050 0.950 . S
C1055 C1057 1.327 . S
C1055 C1061 1.429 . S
C1056 C1048 1.574 1_655 S
C1056 H1051 0.949 1_655 S
C1056 C1062 1.368 . S
C1057 C1041 1.349 . S
C1057 H1049 0.950 . S
C1057 C1055 1.327 . S
C1058 C1046 1.349 1_455 S
C1058 H1052 0.950 . S
C1058 C1059 1.327 . S
C1059 H1053 0.950 . S
C1059 C1058 1.327 . S
C1059 C1063 1.429 1_455 S
C1060 C1043 1.574 . S
C1060 H1054 0.949 . S
C1060 C1064 1.368 . S
C1061 C1042 1.429 . S
C1061 C1055 1.429 . S
C1061 C1062 1.523 . S
C1062 C1043 1.368 . S
C1062 C1056 1.368 . S
C1062 C1061 1.523 . S
C1063 C1047 1.429 . S
C1063 C1059 1.429 1_655 S
C1063 C1064 1.523 . S
C1064 C1048 1.368 1_655 S
C1064 C1060 1.368 . S
C1064 C1063 1.523 . S
H1065 C1040 0.971 . S
H1066 C1042 0.950 1_455 S
H1067 C1043 0.949 . S
H1068 C1045 0.950 . S
H1069 C1047 0.950 . S
C1070 C1071 1.349 . S
C1070 C1072 1.327 . S
C1070 H1095 0.950 1_565 S
C1071 C1070 1.349 . S
C1071 C1087 1.349 . S
C1072 C1070 1.327 . S
C1072 C1091 1.429 . S
C1072 H1096 0.950 1_565 S
C1073 C1090 1.574 . S
C1073 C1092 1.368 . S
C1073 H1097 0.949 . S
H1074 C1078 0.949 . S
C1075 C1076 1.349 . S
C1075 C1077 1.327 . S
C1075 H1098 0.950 . S
C1076 C1075 1.349 . S
C1076 C1088 1.349 1_565 S
C1077 C1075 1.327 . S
C1077 C1093 1.429 . S
C1077 H1099 0.950 . S
C1078 H1074 0.949 . S
C1078 C1086 1.574 . S
C1078 C1094 1.368 1_545 S
H1079 C1087 0.950 . S
H1080 C1085 0.950 . S
H1081 C1086 0.949 . S
H1082 C1088 0.950 . S
H1083 C1089 0.950 . S
H1084 C1090 0.949 . S
C1085 H1080 0.950 . S
C1085 C1087 1.327 . S
C1085 C1091 1.429 . S
C1086 C1078 1.574 . S
C1086 H1081 0.949 . S
C1086 C1092 1.368 1_545 S
C1087 C1071 1.349 . S
C1087 H1079 0.950 . S
C1087 C1085 1.327 . S
C1088 C1076 1.349 1_545 S
C1088 H1082 0.950 . S
C1088 C1089 1.327 . S
C1089 H1083 0.950 . S
C1089 C1088 1.327 . S
C1089 C1093 1.429 1_545 S
C1090 C1073 1.574 . S
C1090 H1084 0.949 . S
C1090 C1094 1.368 . S
C1091 C1072 1.429 . S
C1091 C1085 1.429 . S
C1091 C1092 1.523 . S
C1092 C1073 1.368 . S
C1092 C1086 1.368 1_565 S
C1092 C1091 1.523 . S
C1093 C1077 1.429 . S
C1093 C1089 1.429 1_565 S
C1093 C1094 1.523 . S
C1094 C1078 1.368 1_565 S
C1094 C1090 1.368 . S
C1094 C1093 1.523 . S
H1095 C1070 0.950 1_545 S
H1096 C1072 0.950 1_545 S
H1097 C1073 0.949 . S
H1098 C1075 0.950 . S
H1099 C1077 0.950 . S
C1100 C1101 1.349 . S
C1100 C1102 1.327 . S
C1100 H1125 0.950 . S
C1101 C1100 1.349 . S
C1101 C1117 1.349 . S
C1102 C1100 1.327 . S
C1102 C1121 1.429 . S
C1102 H1126 0.950 . S
C1103 C1120 1.574 . S
C1103 C1122 1.368 . S
C1103 H1127 0.949 . S
H1104 C1108 0.949 . S
C1105 C1106 1.349 . S
C1105 C1107 1.327 . S
C1105 H1128 0.950 . S
C1106 C1105 1.349 . S
C1106 C1118 1.349 . S
C1107 C1105 1.327 . S
C1107 C1123 1.429 . S
C1107 H1129 0.950 . S
C1108 H1104 0.949 . S
C1108 C1116 1.574 . S
C1108 C1124 1.368 . S
H1109 C1117 0.950 . S
H1110 C1115 0.950 . S
H1111 C1116 0.949 . S
H1112 C1118 0.950 . S
H1113 C1119 0.950 . S
H1114 C1120 0.949 . S
C1115 H1110 0.950 . S
C1115 C1117 1.327 . S
C1115 C1121 1.429 . S
C1116 C1108 1.574 . S
C1116 H1111 0.949 . S
C1116 C1122 1.368 . S
C1117 C1101 1.349 . S
C1117 H1109 0.950 . S
C1117 C1115 1.327 . S
C1118 C1106 1.349 . S
C1118 H1112 0.950 . S
C1118 C1119 1.327 . S
C1119 H1113 0.950 . S
C1119 C1118 1.327 . S
C1119 C1123 1.429 . S
C1120 C1103 1.574 . S
C1120 H1114 0.949 . S
C1120 C1124 1.368 . S
C1121 C1102 1.429 . S
C1121 C1115 1.429 . S
C1121 C1122 1.523 . S
C1122 C1103 1.368 . S
C1122 C1116 1.368 . S
C1122 C1121 1.523 . S
C1123 C1107 1.429 . S
C1123 C1119 1.429 . S
C1123 C1124 1.523 . S
C1124 C1108 1.368 . S
C1124 C1120 1.368 . S
C1124 C1123 1.523 . S
H1125 C1100 0.950 . S
H1126 C1102 0.950 . S
H1127 C1103 0.949 . S
H1128 C1105 0.950 . S
H1129 C1107 0.950 . S
C1130 C1131 1.349 . S
C1130 C1132 1.327 . S
C1130 H1155 0.950 . S
C1131 C1130 1.349 . S
C1131 C1147 1.349 . S
C1132 C1130 1.327 . S
C1132 C1151 1.429 . S
C1132 H1156 0.950 . S
C1133 C1150 1.574 . S
C1133 C1152 1.368 . S
C1133 H1157 0.949 . S
H1134 C1138 0.949 . S
C1135 C1136 1.349 . S
C1135 C1137 1.327 . S
C1135 H1158 0.950 . S
C1136 C1135 1.349 . S
C1136 C1148 1.349 . S
C1137 C1135 1.327 . S
C1137 C1153 1.429 . S
C1137 H1159 0.950 . S
C1138 H1134 0.949 . S
C1138 C1146 1.574 . S
C1138 C1154 1.368 . S
H1139 C1147 0.950 . S
H1140 C1145 0.950 . S
H1141 C1146 0.949 . S
H1142 C1148 0.950 . S
H1143 C1149 0.950 . S
H1144 C1150 0.949 . S
C1145 H1140 0.950 . S
C1145 C1147 1.327 . S
C1145 C1151 1.429 . S
C1146 C1138 1.574 . S
C1146 H1141 0.949 . S
C1146 C1152 1.368 . S
C1147 C1131 1.349 . S
C1147 H1139 0.950 . S
C1147 C1145 1.327 . S
C1148 C1136 1.349 . S
C1148 H1142 0.950 . S
C1148 C1149 1.327 . S
C1149 H1143 0.950 . S
C1149 C1148 1.327 . S
C1149 C1153 1.429 . S
C1150 C1133 1.574 . S
C1150 H1144 0.949 . S
C1150 C1154 1.368 . S
C1151 C1132 1.429 . S
C1151 C1145 1.429 . S
C1151 C1152 1.523 . S
C1152 C1133 1.368 . S
C1152 C1146 1.368 . S
C1152 C1151 1.523 . S
C1153 C1137 1.429 . S
C1153 C1149 1.429 . S
C1153 C1154 1.523 . S
C1154 C1138 1.368 . S
C1154 C1150 1.368 . S
C1154 C1153 1.523 . S
H1155 C1130 0.950 . S
H1156 C1132 0.950 . S
H1157 C1133 0.949 . S
H1158 C1135 0.950 . S
H1159 C1137 0.950 . S
C441 N80 1.891 . S
C446 C172 1.936 . S
C476 C255 1.959 . S
C471 N93 1.897 . S
C506 C340 1.925 . S
C501 N54 1.878 . S
C536 C424 1.916 . S
C531 N67 1.870 . S
C566 C160 1.937 . S
C561 N28 1.897 . S
C591 N41 1.903 . S
C596 C243 1.959 . S
C621 N2 1.884 . S
C626 C328 1.924 . S
C651 N15 1.876 . S
C656 C412 1.915 1_655 S
C686 C162 0.535 1_455 S
C681 N70 0.400 . S
C716 C258 0.521 . S
C711 N83 0.367 . S
C746 C330 0.533 . S
C741 N96 0.403 . S
C771 N57 0.381 . S
C776 C414 0.527 . S
C801 N18 0.395 . S
C806 C174 0.535 . S
C836 C246 0.521 . S
C831 N31 0.362 . S
C866 C342 0.533 . S
C861 N44 0.399 . S
C891 N5 0.376 . S
C896 C426 0.527 . S
C921 N66 1.930 1_556 S
C926 C159 1.988 . S
C951 N79 1.923 1_556 S
C956 C244 1.977 . S
C986 C327 2.008 . S
C981 N92 1.947 . S
C1016 C411 2.014 . S
C1011 N53 1.953 1_556 S
C1041 N14 1.939 . S
C1046 C171 1.988 . S
C1076 C256 1.978 1_565 S
C1071 N27 1.933 . S
C1106 C339 2.007 . S
C1101 N40 1.956 . S
C1131 N1 1.963 . S
C1136 C423 2.014 . S
