# Generated by pormake.
# Topology anh, (6,3)-cn, num edge types: 1
# Building blocks:
#     Node 0, Type 0, BuildingBlock: GEDQOX_clean_sbu_0, # of connection points: 6
#     Node 1, Type 0, BuildingBlock: GEDQOX_clean_sbu_0, # of connection points: 6
#     Node 2, Type 0, BuildingBlock: GEDQOX_clean_sbu_0, # of connection points: 6
#     Node 3, Type 1, BuildingBlock: BETDIP_clean_linker_0, # of connection points: 3
#     Node 4, Type 1, BuildingBlock: BETDIP_clean_linker_0, # of connection points: 3
#     Node 5, Type 1, BuildingBlock: BETDIP_clean_linker_0, # of connection points: 3
#     Node 6, Type 1, BuildingBlock: BETDIP_clean_linker_0, # of connection points: 3
#     Node 7, Type 1, BuildingBlock: BETDIP_clean_linker_0, # of connection points: 3
#     Node 8, Type 1, BuildingBlock: BETDIP_clean_linker_0, # of connection points: 3
#     Edge 9, Type (0, 1), BuildingBlock: XIVTED_clean_linker_0, # of connection points: 2
#     Edge 10, Type (0, 1), BuildingBlock: XIVTED_clean_linker_0, # of connection points: 2
#     Edge 11, Type (0, 1), BuildingBlock: XIVTED_clean_linker_0, # of connection points: 2
#     Edge 12, Type (0, 1), BuildingBlock: XIVTED_clean_linker_0, # of connection points: 2
#     Edge 13, Type (0, 1), BuildingBlock: XIVTED_clean_linker_0, # of connection points: 2
#     Edge 14, Type (0, 1), BuildingBlock: XIVTED_clean_linker_0, # of connection points: 2
#     Edge 15, Type (0, 1), BuildingBlock: XIVTED_clean_linker_0, # of connection points: 2
#     Edge 16, Type (0, 1), BuildingBlock: XIVTED_clean_linker_0, # of connection points: 2
#     Edge 17, Type (0, 1), BuildingBlock: XIVTED_clean_linker_0, # of connection points: 2
#     Edge 18, Type (0, 1), BuildingBlock: XIVTED_clean_linker_0, # of connection points: 2
#     Edge 19, Type (0, 1), BuildingBlock: XIVTED_clean_linker_0, # of connection points: 2
#     Edge 20, Type (0, 1), BuildingBlock: XIVTED_clean_linker_0, # of connection points: 2
#     Edge 21, Type (0, 1), BuildingBlock: XIVTED_clean_linker_0, # of connection points: 2
#     Edge 22, Type (0, 1), BuildingBlock: XIVTED_clean_linker_0, # of connection points: 2
#     Edge 23, Type (0, 1), BuildingBlock: XIVTED_clean_linker_0, # of connection points: 2
#     Edge 24, Type (0, 1), BuildingBlock: XIVTED_clean_linker_0, # of connection points: 2
#     Edge 25, Type (0, 1), BuildingBlock: XIVTED_clean_linker_0, # of connection points: 2
#     Edge 26, Type (0, 1), BuildingBlock: XIVTED_clean_linker_0, # of connection points: 2
# Relax obj value: 0.153
# Max RMSD: 0.181
# Mean RMSD: 0.125
data_MOF--net-anh--node1-GEDQOX_clean_sbu_0--node2-BETDIP_clean_linker_0--edge1-XIVTED_clean_linker_0
_symmetry_space_group_name_H-M    P1
_symmetry_Int_Tables_number       1
_symmetry_cell_setting            triclinic
loop_
_symmetry_equiv_pos_as_xyz
'x, y, z'
_cell_length_a     31.169211
_cell_length_b     30.154596
_cell_length_c     49.735212
_cell_angle_alpha  95.871283
_cell_angle_beta   91.059871
_cell_angle_gamma 101.26295
loop_
_atom_site_label
_atom_site_type_symbol
_atom_site_fract_x
_atom_site_fract_y
_atom_site_fract_z
_atom_type_partial_charge
Nd0 Nd 0.12592 0.61105 0.1465 0.0
Nd1 Nd 0.1035 0.50941 0.14986 0.0
C2 C 0.16122 0.69316 0.13389 0.0
C3 C 0.20446 0.72334 0.13914 0.0
C4 C 0.21775 0.75914 0.12336 0.0
C5 C 0.25888 0.78784 0.12825 0.0
C6 C 0.28753 0.78128 0.14908 0.0
C7 C 0.274 0.74493 0.16467 0.0
C8 C 0.233 0.7162 0.15968 0.0
C9 C 0.11324 0.58819 0.19794 0.0
C10 C 0.20831 0.55326 0.1502 0.0
C11 C 1.07116 0.42606 0.16202 0.0
C12 C 1.02827 0.3981 0.16709 0.0
C13 C 0.99312 0.41823 0.17552 0.0
C14 C 0.95277 0.39114 0.1805 0.0
C15 C 0.94676 0.34332 0.17721 0.0
C16 C 0.98212 0.32341 0.16855 0.0
C17 C 1.02241 0.35056 0.16353 0.0
C18 C 0.11752 0.53507 0.09897 0.0
C19 C 1.02153 0.56656 0.14492 0.0
O20 O 0.16042 0.65597 0.11768 0.0
O21 O 0.13735 0.68608 0.15498 0.0
O22 O 0.10153 0.62322 0.18909 0.0
O23 O 0.13353 0.568 0.18036 0.0
O24 O 0.19525 0.59123 0.14538 0.0
O25 O 0.17911 0.51674 0.15493 0.0
O26 O 0.08656 0.4604 0.18014 0.0
O27 O 0.07744 0.43607 0.13726 0.0
O28 O 0.13133 0.50073 0.10738 0.0
O29 O 0.09585 0.55278 0.11666 0.0
O30 O 1.03465 0.53066 0.15331 0.0
O31 O 1.05089 0.60077 0.13735 0.0
H32 H 0.19631 0.76489 0.10723 0.0
H33 H 0.26833 0.81493 0.11554 0.0
H34 H 0.29471 0.73907 0.18113 0.0
H35 H 0.22345 0.68853 0.172 0.0
H36 H 0.99693 0.45488 0.17837 0.0
H37 H 0.9262 0.40773 0.18677 0.0
H38 H 0.979 0.28681 0.16615 0.0
H39 H 1.04917 0.33437 0.15707 0.0
Nd40 Nd 0.53861 1.0012 0.51489 0.0
Nd41 Nd 0.63497 0.0235 0.50279 0.0
C42 C 0.46032 0.9689 0.53274 0.0
C43 C 0.42863 0.92518 0.52967 0.0
C44 C 0.44243 0.88358 0.52993 0.0
C45 C 0.41223 0.84241 0.52504 0.0
C46 C 0.36759 0.84197 0.51975 0.0
C47 C 0.35382 0.8838 0.52022 0.0
C48 C 0.38405 0.92493 0.52511 0.0
C49 C 0.55552 0.00812 0.46149 0.0
C50 C 0.59439 0.91737 0.50518 0.0
C51 C 0.71193 0.05624 0.48336 0.0
C52 C 0.73997 0.10086 0.48006 0.0
C53 C 0.75384 0.11045 0.45422 0.0
C54 C 0.78117 0.1519 0.4506 0.0
C55 C 0.79553 0.18463 0.4728 0.0
C56 C 0.78154 0.17505 0.49868 0.0
C57 C 0.75391 0.13368 0.50227 0.0
C58 C 0.61836 0.01666 0.55626 0.0
C59 C 0.58 0.10707 0.51418 0.0
O60 O 0.49693 0.97063 0.54653 0.0
O61 O 0.46615 0.99011 0.51105 0.0
O62 O 0.52386 0.02328 0.47346 0.0
O63 O 0.5758 0.98839 0.4772 0.0
O64 O 0.55923 0.9312 0.51466 0.0
O65 O 0.62722 0.94598 0.4961 0.0
O66 O 0.67576 0.04452 0.46833 0.0
O67 O 0.707 0.04481 0.50796 0.0
O68 O 0.65038 1.00206 0.54427 0.0
O69 O 0.59782 0.03618 0.54054 0.0
O70 O 0.61309 0.09279 0.5021 0.0
O71 O 0.54931 0.07849 0.5251 0.0
H72 H 0.47662 0.88283 0.53352 0.0
H73 H 0.42395 0.81091 0.52521 0.0
H74 H 0.31988 0.88485 0.51588 0.0
H75 H 0.37273 0.95663 0.52472 0.0
H76 H 0.74373 0.08565 0.4368 0.0
H77 H 0.79171 0.15799 0.43044 0.0
H78 H 0.7916 0.19975 0.51614 0.0
H79 H 0.7436 0.12743 0.52245 0.0
Nd80 Nd 0.5242 0.48243 0.82403 0.0
Nd81 Nd 0.61628 0.51235 0.84739 0.0
C82 C 0.45034 0.47825 0.79648 0.0
C83 C 0.42297 0.51266 0.79768 0.0
C84 C 0.39296 0.51405 0.77662 0.0
C85 C 0.36887 0.54883 0.77784 0.0
C86 C 0.37503 0.58275 0.80001 0.0
C87 C 0.40548 0.58113 0.82088 0.0
C88 C 0.42916 0.54649 0.81971 0.0
C89 C 0.5313 0.49029 0.87958 0.0
C90 C 0.56686 0.59254 0.83694 0.0
C91 C 0.68971 0.51949 0.87599 0.0
C92 C 0.72704 0.49712 0.87184 0.0
C93 C 0.76177 0.50588 0.89105 0.0
C94 C 0.80084 0.49181 0.88482 0.0
C95 C 0.80571 0.4693 0.85915 0.0
C96 C 0.76945 0.45724 0.84084 0.0
C97 C 0.73024 0.47092 0.84721 0.0
C98 C 0.61068 0.5068 0.79212 0.0
C99 C 0.5734 0.40162 0.83259 0.0
O100 O 0.48873 0.49091 0.78645 0.0
O101 O 0.45244 0.45859 0.81861 0.0
O102 O 0.50366 0.45836 0.86538 0.0
O103 O 0.55189 0.51768 0.86469 0.0
O104 O 0.53938 0.56009 0.82197 0.0
O105 O 0.59699 0.58243 0.85295 0.0
O106 O 0.65302 0.49344 0.88164 0.0
O107 O 0.6845 0.5469 0.85797 0.0
O108 O 0.63922 0.53695 0.80687 0.0
O109 O 0.5892 0.47861 0.80632 0.0
O110 O 0.60323 0.43344 0.84651 0.0
O111 O 0.54122 0.41218 0.81858 0.0
H112 H 0.38831 0.48848 0.7593 0.0
H113 H 0.34566 0.54935 0.76145 0.0
H114 H 0.41039 0.60611 0.8385 0.0
H115 H 0.45249 0.54617 0.83609 0.0
H116 H 0.75964 0.52596 0.91015 0.0
H117 H 0.8284 0.50211 0.89919 0.0
H118 H 0.77237 0.43992 0.82098 0.0
H119 H 0.70338 0.46361 0.83225 0.0
H120 H 0.58808 0.03208 0.18608 0.0
H121 H 0.64703 0.08536 0.26481 0.0
H122 H 0.54387 0.96726 0.25662 0.0
H123 H 0.65401 0.15228 0.24412 0.0
C124 C 0.66845 0.14064 0.22563 0.0
C125 C 0.59029 0.03026 0.20769 0.0
C126 C 0.56242 0.99536 0.21936 0.0
C127 C 0.62083 0.06314 0.22392 0.0
C128 C 0.62326 0.06082 0.25204 0.0
C129 C 0.59587 0.02607 0.26384 0.0
C130 C 0.56593 0.99332 0.24738 0.0
N131 N 0.64956 0.09744 0.21162 0.0
H132 H 0.58185 0.47138 0.51112 0.0
H133 H 0.59592 0.56263 0.58479 0.0
H134 H 0.57589 0.41838 0.58836 0.0
H135 H 0.65167 0.60092 0.55278 0.0
C136 C 0.62421 0.60144 0.53908 0.0
C137 C 0.58301 0.47689 0.53301 0.0
C138 C 0.57763 0.43937 0.5483 0.0
C139 C 0.59017 0.52168 0.54614 0.0
C140 C 0.59155 0.52843 0.57461 0.0
C141 C 0.58563 0.4913 0.58998 0.0
C142 C 0.57897 0.44715 0.57661 0.0
N143 N 0.59453 0.5597 0.53077 0.0
H144 H 0.08697 0.68396 0.85367 0.0
H145 H 0.1676 0.72159 0.92622 0.0
H146 H 0.0978 0.58397 0.90813 0.0
H147 H 0.18787 0.81275 0.88249 0.0
C148 C 0.17812 0.77663 0.876 0.0
C149 C 0.10063 0.67392 0.87172 0.0
C150 C 0.09 0.6286 0.87786 0.0
C151 C 0.12899 0.7071 0.88883 0.0
C152 C 0.14682 0.69544 0.91261 0.0
C153 C 0.13605 0.65063 0.9194 0.0
C154 C 0.10811 0.61761 0.90183 0.0
N155 N 0.13658 0.75308 0.88317 0.0
H156 H 0.10767 0.54513 0.47364 0.0
H157 H 1.05149 0.49641 0.39365 0.0
H158 H 0.16468 0.60403 0.40399 0.0
H159 H 0.98858 0.48976 0.41865 0.0
C160 C 0.99913 0.47155 0.43451 0.0
C161 C 0.10791 0.54659 0.45196 0.0
C162 C 0.14072 0.57767 0.4408 0.0
C163 C 0.07511 0.51756 0.43515 0.0
C164 C 0.07596 0.51912 0.40694 0.0
C165 C 0.10796 0.55052 0.3957 0.0
C166 C 0.14012 0.57952 0.41271 0.0
N167 N 1.0418 0.48678 0.44681 0.0
H168 H 0.57964 0.03923 0.83551 0.0
H169 H 0.5817 0.95455 0.76049 0.0
H170 H 0.59546 0.09916 0.76053 0.0
H171 H 0.52338 0.91172 0.78651 0.0
C172 C 0.54689 0.91104 0.80283 0.0
C173 C 0.58267 0.03566 0.81377 0.0
C174 C 0.58804 0.07432 0.79955 0.0
C175 C 0.5801 0.99217 0.79972 0.0
C176 C 0.58353 0.9879 0.77141 0.0
C177 C 0.58881 0.02624 0.75708 0.0
C178 C 0.59131 0.06928 0.77138 0.0
N179 N 0.57383 0.95286 0.81399 0.0
H180 H 0.57519 0.55978 0.16096 0.0
H181 H 0.63689 0.53987 0.08472 0.0
H182 H 0.49851 0.53496 0.08587 0.0
H183 H 0.69059 0.59943 0.10952 0.0
C184 C 0.6947 0.57816 0.12538 0.0
C185 C 0.57309 0.5533 0.13911 0.0
C186 C 0.53135 0.54729 0.12506 0.0
C187 C 0.61224 0.55154 0.12453 0.0
C188 C 0.60817 0.54292 0.09615 0.0
C189 C 0.56748 0.53662 0.08221 0.0
C190 C 0.52973 0.5389 0.09677 0.0
N191 N 0.65522 0.55726 0.13779 0.0
H192 H 0.25 0.48012 0.15368 0.0
H193 H 0.49576 0.62303 0.13863 0.0
H194 H 0.27918 0.62389 0.14611 0.0
H195 H 0.46537 0.47739 0.13669 0.0
H196 H 0.41834 0.62504 0.14661 0.0
H197 H 0.3287 0.47924 0.1519 0.0
C198 C 0.27274 0.51163 0.15178 0.0
C199 C 0.25703 0.55212 0.15001 0.0
C200 C 0.4286 0.59262 0.14505 0.0
C201 C 0.3487 0.55135 0.14805 0.0
C202 C 0.47321 0.59155 0.14095 0.0
C203 C 0.48803 0.55012 0.13795 0.0
C204 C 0.39765 0.55185 0.14594 0.0
C205 C 0.45619 0.5103 0.13978 0.0
C206 C 0.318 0.51107 0.15073 0.0
C207 C 0.28899 0.59166 0.14749 0.0
N208 N 0.413 0.51215 0.14356 0.0
N209 N 0.33272 0.59024 0.1466 0.0
H210 H 0.86816 0.22931 0.50374 0.0
H211 H 0.91901 0.4354 0.41184 0.0
H212 H 0.79039 0.23981 0.43287 0.0
H213 H 1.00967 0.41539 0.47388 0.0
H214 H 0.86857 0.36704 0.42213 0.0
H215 H 0.91734 0.30051 0.49598 0.0
C216 C 0.86124 0.24674 0.48666 0.0
C217 C 0.82514 0.22843 0.46886 0.0
C218 C 0.89943 0.37751 0.43357 0.0
C219 C 0.88139 0.30982 0.45983 0.0
C220 C 0.92818 0.41661 0.42774 0.0
C221 C 0.96855 0.43097 0.44197 0.0
C222 C 0.91097 0.35246 0.4539 0.0
C223 C 0.97887 0.40543 0.46237 0.0
C224 C 0.88949 0.28722 0.48216 0.0
C225 C 0.81809 0.25227 0.4469 0.0
N226 N 0.95023 0.36733 0.46773 0.0
N227 N 0.84588 0.29164 0.44305 0.0
H228 H 0.50284 0.62247 0.81014 0.0
H229 H 0.60746 0.88884 0.83841 0.0
H230 H 0.6215 0.67234 0.85918 0.0
H231 H 0.4931 0.83099 0.7871 0.0
H232 H 0.61182 0.81182 0.84932 0.0
H233 H 0.49714 0.70008 0.80484 0.0
C234 C 0.52777 0.64977 0.81996 0.0
C235 C 0.56284 0.64055 0.8351 0.0
C236 C 0.58568 0.81614 0.83583 0.0
C237 C 0.55668 0.73069 0.82875 0.0
C238 C 0.58309 0.86004 0.82966 0.0
C239 C 0.54982 0.8662 0.8118 0.0
C240 C 0.55466 0.77839 0.82408 0.0
C241 C 0.51928 0.82777 0.80093 0.0
C242 C 0.52447 0.69436 0.81684 0.0
C243 C 0.59394 0.67777 0.84731 0.0
N244 N 0.5225 0.78574 0.80719 0.0
N245 N 0.59026 0.72123 0.84373 0.0
H246 H 0.98083 0.63081 0.12482 0.0
H247 H 0.73034 0.51781 0.15578 0.0
H248 H 0.94976 0.50591 0.16179 0.0
H249 H 0.76787 0.63137 0.1095 0.0
H250 H 0.80892 0.5142 0.16151 0.0
H251 H 0.90277 0.63294 0.12219 0.0
C252 C 0.95779 0.60374 0.13248 0.0
C253 C 0.97286 0.56809 0.14353 0.0
C254 C 0.79989 0.54008 0.15024 0.0
C255 C 0.88143 0.57042 0.14063 0.0
C256 C 0.75485 0.5423 0.1471 0.0
C257 C 0.74187 0.57518 0.13221 0.0
C258 C 0.83254 0.57111 0.13859 0.0
C259 C 0.77574 0.60547 0.12123 0.0
C260 C 0.91278 0.60495 0.13094 0.0
C261 C 0.94037 0.53416 0.15304 0.0
N262 N 0.81874 0.60275 0.12463 0.0
N263 N 0.89666 0.53618 0.15141 0.0
H264 H 0.3808 0.76669 0.48767 0.0
H265 H 0.13103 0.63485 0.486 0.0
H266 H 0.28199 0.81756 0.53446 0.0
H267 H 0.22873 0.59411 0.43396 0.0
H268 H 0.18767 0.69585 0.50909 0.0
H269 H 0.32745 0.69758 0.4729 0.0
C270 C 0.34805 0.76314 0.49518 0.0
C271 C 0.33596 0.79828 0.51228 0.0
C272 C 0.19678 0.6732 0.49283 0.0
C273 C 0.27414 0.71908 0.49498 0.0
C274 C 0.16455 0.6382 0.47982 0.0
C275 C 0.17521 0.60969 0.45792 0.0
C276 C 0.23992 0.67944 0.48392 0.0
C277 C 0.21905 0.61572 0.45055 0.0
C278 C 0.31742 0.72368 0.48655 0.0
C279 C 0.29266 0.79176 0.52093 0.0
N280 N 0.24965 0.65004 0.46336 0.0
N281 N 0.26329 0.7531 0.51208 0.0
H282 H 0.64577 0.3663 0.8438 0.0
H283 H 0.51811 0.10675 0.8194 0.0
H284 H 0.50842 0.32644 0.82068 0.0
H285 H 0.65635 0.14665 0.80798 0.0
H286 H 0.5146 0.18705 0.83151 0.0
H287 H 0.65048 0.28562 0.84133 0.0
C288 C 0.61655 0.34063 0.83841 0.0
C289 C 0.5767 0.35314 0.83221 0.0
C290 C 0.54586 0.17814 0.82687 0.0
C291 C 0.58177 0.26097 0.8298 0.0
C292 C 0.54793 0.13239 0.8203 0.0
C293 C 0.58765 0.1203 0.81304 0.0
C294 C 0.58387 0.2119 0.82631 0.0
C295 C 0.62524 0.15476 0.8138 0.0
C296 C 0.6193 0.29466 0.83697 0.0
C297 C 0.53991 0.31838 0.82533 0.0
N298 N 0.62245 0.19907 0.82022 0.0
N299 N 0.54331 0.27396 0.82437 0.0
H300 H 0.52782 0.84351 0.50831 0.0
H301 H 0.68679 0.67781 0.54147 0.0
H302 H 0.66819 0.88036 0.50418 0.0
H303 H 0.55152 0.62652 0.51658 0.0
H304 H 0.67969 0.75314 0.53008 0.0
H305 H 0.53447 0.76506 0.51339 0.0
C306 C 0.56004 0.83514 0.50837 0.0
C307 C 0.59753 0.86882 0.50596 0.0
C308 C 0.65161 0.72541 0.52683 0.0
C309 C 0.60537 0.77891 0.512 0.0
C310 C 0.65563 0.68238 0.53335 0.0
C311 C 0.6198 0.6458 0.52983 0.0
C312 C 0.61108 0.73243 0.51722 0.0
C313 C 0.58009 0.6537 0.5194 0.0
C314 C 0.56377 0.79024 0.51115 0.0
C315 C 0.63836 0.85567 0.5059 0.0
N316 N 0.57665 0.69629 0.51374 0.0
N317 N 0.64121 0.81201 0.5092 0.0
H318 H 0.87267 0.44098 0.88491 0.0
H319 H 1.01939 0.64274 0.84779 0.0
H320 H 0.84057 0.49784 0.81279 0.0
H321 H 0.08142 0.53476 0.87041 0.0
H322 H 0.95619 0.58651 0.83065 0.0
H323 H 0.95051 0.46671 0.87716 0.0
C324 C 0.88206 0.45728 0.8669 0.0
C325 C 0.8503 0.46829 0.84982 0.0
C326 C 0.98411 0.57502 0.83878 0.0
C327 C 0.93861 0.49858 0.84127 0.0
C328 C 1.02066 0.60733 0.8486 0.0
C329 C 1.05581 0.5941 0.86162 0.0
C330 C 0.98178 0.5293 0.84282 0.0
C331 C 1.05434 0.54709 0.86193 0.0
C332 C 0.92641 0.47183 0.86242 0.0
C333 C 0.86404 0.4891 0.82662 0.0
N334 N 1.01724 0.51647 0.85365 0.0
N335 N 0.90726 0.50506 0.82351 0.0
H336 H 0.30868 0.87393 0.14676 0.0
H337 H 0.54454 0.90287 0.21841 0.0
H338 H 0.36575 0.76042 0.16493 0.0
H339 H 0.50023 0.01259 0.18431 0.0
H340 H 0.48023 0.84984 0.19759 0.0
H341 H 0.37889 0.92493 0.15896 0.0
C342 C 0.336 0.85952 0.15298 0.0
C343 C 0.33089 0.8126 0.15497 0.0
C344 C 0.48476 0.88538 0.19431 0.0
C345 C 0.41149 0.87128 0.16947 0.0
C346 C 0.5215 0.91563 0.20618 0.0
C347 C 0.52762 0.96217 0.20313 0.0
C348 C 0.4534 0.9018 0.17958 0.0
C349 C 0.49685 0.97692 0.18702 0.0
C350 C 0.37612 0.88881 0.16007 0.0
C351 C 0.3676 0.79634 0.16361 0.0
N352 N 0.46074 0.94694 0.17615 0.0
N353 N 0.4061 0.8256 0.17072 0.0
H354 H 0.63836 0.17704 0.49549 0.0
H355 H 0.51055 0.36936 0.55512 0.0
H356 H 0.51645 0.14958 0.53623 0.0
H357 H 0.63238 0.39996 0.51496 0.0
H358 H 0.50871 0.2882 0.54381 0.0
H359 H 0.63433 0.25773 0.49888 0.0
C360 C 0.61066 0.18784 0.5051 0.0
C361 C 0.57779 0.15623 0.51574 0.0
C362 C 0.53559 0.31248 0.53706 0.0
C363 C 0.57294 0.24893 0.51955 0.0
C364 C 0.53644 0.35886 0.54332 0.0
C365 C 0.57158 0.39141 0.53587 0.0
C366 C 0.57045 0.29819 0.52345 0.0
C367 C 0.60448 0.37597 0.52083 0.0
C368 C 0.60837 0.23402 0.50696 0.0
C369 C 0.5427 0.1725 0.52786 0.0
N370 N 0.60341 0.33045 0.5154 0.0
N371 N 0.54132 0.21755 0.52949 0.0
H372 H 0.40134 0.67327 0.81775 0.0
H373 H 0.15607 0.71032 0.83333 0.0
H374 H 0.28708 0.57264 0.78902 0.0
H375 H 0.26704 0.7935 0.87893 0.0
H376 H 0.20509 0.66838 0.80861 0.0
H377 H 0.35397 0.72678 0.83117 0.0
C378 C 0.36631 0.66265 0.81395 0.0
C379 C 0.34799 0.61811 0.8028 0.0
C380 C 0.21878 0.69578 0.82401 0.0
C381 C 0.29381 0.67914 0.81796 0.0
C382 C 0.19075 0.71921 0.83844 0.0
C383 C 0.20753 0.7537 0.85914 0.0
C384 C 0.26395 0.70744 0.8301 0.0
C385 C 0.25293 0.76625 0.86354 0.0
C386 C 0.33936 0.6932 0.82158 0.0
C387 C 0.30258 0.60655 0.79763 0.0
N388 N 0.27969 0.74267 0.84937 0.0
N389 N 0.27696 0.63669 0.80561 0.0
H390 H 0.89238 0.35845 0.21855 0.0
H391 H 0.71836 0.12492 0.18146 0.0
H392 H 0.90395 0.26183 0.1501 0.0
H393 H 0.70825 0.22381 0.24886 0.0
H394 H 0.78519 0.17488 0.16864 0.0
H395 H 0.82366 0.31022 0.22888 0.0
C396 C 0.88035 0.32729 0.2055 0.0
C397 C 0.90421 0.31437 0.18337 0.0
C398 C 0.76824 0.18571 0.18617 0.0
C399 C 0.82535 0.25829 0.19539 0.0
C400 C 0.73006 0.15723 0.19346 0.0
C401 C 0.70779 0.17034 0.21627 0.0
C402 C 0.78418 0.22749 0.20183 0.0
C403 C 0.72446 0.21247 0.23113 0.0
C404 C 0.84112 0.29953 0.21154 0.0
C405 C 0.88711 0.27301 0.16757 0.0
N406 N 0.7616 0.23943 0.22371 0.0
N407 N 0.84882 0.24648 0.1739 0.0
H408 H 0.17042 0.50656 0.06033 0.0
H409 H 0.16813 0.57616 0.93085 0.0
H410 H 0.08935 0.60548 0.0788 0.0
H411 H 0.12943 0.69639 0.96902 0.0
H412 H 0.17122 0.54784 0.97482 0.0
H413 H 0.18729 0.53748 0.01735 0.0
C414 C 0.1559 0.53457 0.05517 0.0
C415 C 0.12801 0.55312 0.07291 0.0
C416 C 0.16345 0.58108 0.97392 0.0
C417 C 0.14639 0.58833 0.02356 0.0
C418 C 0.16149 0.59716 0.94869 0.0
C419 C 0.14836 0.63859 0.94628 0.0
C420 C 0.15206 0.60662 -0.00301 0.0
C421 C 0.14003 0.66444 0.96998 0.0
C422 C 0.16534 0.55214 0.03053 0.0
C423 C 0.11069 0.5899 0.06555 0.0
N424 N 0.1413 0.64767 -0.00573 0.0
N425 N 0.12008 0.60619 0.04143 0.0
H426 H 0.53007 0.06725 0.42981 0.0
H427 H 0.60316 0.95462 0.29219 0.0
H428 H 0.60421 0.96041 0.42864 0.0
H429 H 0.58933 0.09477 0.30276 0.0
H430 H 0.59791 0.95192 0.34124 0.0
H431 H 0.54516 0.07402 0.38212 0.0
C432 C 0.54955 0.04523 0.41946 0.0
C433 C 0.56576 0.01307 0.43302 0.0
C434 C 0.59652 0.98336 0.33282 0.0
C435 C 0.58274 0.0203 0.37854 0.0
C436 C 0.59935 0.98487 0.30492 0.0
C437 C 0.59667 0.02498 0.29354 0.0
C438 C 0.58994 0.02193 0.34929 0.0
C439 C 0.59182 0.06331 0.31082 0.0
C440 C 0.55834 0.04929 0.39234 0.0
C441 C 0.59109 0.98557 0.4188 0.0
N442 N 0.58803 0.06068 0.33782 0.0
N443 N 0.5984 0.98942 0.39217 0.0
H444 H 0.553 0.4457 0.75789 0.0
H445 H 0.64226 0.55441 0.62426 0.0
H446 H 0.65622 0.56436 0.75916 0.0
H447 H 0.53182 0.44293 0.6242 0.0
H448 H 0.64699 0.56005 0.67373 0.0
H449 H 0.54449 0.4445 0.70878 0.0
C450 C 0.57387 0.47146 0.74779 0.0
C451 C 0.60542 0.50508 0.7625 0.0
C452 C 0.6216 0.53448 0.66288 0.0
C453 C 0.59597 0.50404 0.70642 0.0
C454 C 0.61871 0.53147 0.63465 0.0
C455 C 0.58685 0.49789 0.62004 0.0
C456 C 0.59244 0.50367 0.67659 0.0
C457 C 0.55744 0.46878 0.63459 0.0
C458 C 0.56898 0.47086 0.71978 0.0
C459 C 0.63158 0.53774 0.7485 0.0
N460 N 0.5611 0.47218 0.662 0.0
N461 N 0.62636 0.53635 0.72122 0.0
H462 H 0.55947 0.05476 0.58626 0.0
H463 H 0.63532 0.9743 0.72526 0.0
H464 H 0.66022 0.97607 0.59237 0.0
H465 H 0.54722 0.06754 0.72076 0.0
H466 H 0.64008 0.96914 0.67601 0.0
H467 H 0.54988 0.05472 0.63505 0.0
C468 C 0.57946 0.03739 0.59789 0.0
C469 C 0.61088 0.01566 0.58539 0.0
C470 C 0.61965 0.99069 0.6858 0.0
C471 C 0.6001 0.01533 0.64106 0.0
C472 C 0.61675 0.99343 0.71388 0.0
C473 C 0.59105 0.02159 0.72714 0.0
C474 C 0.59649 0.01609 0.67081 0.0
C475 C 0.56797 0.04595 0.7114 0.0
C476 C 0.57404 0.0374 0.62571 0.0
C477 C 0.6358 0.99347 0.6013 0.0
N478 N 0.57126 0.04267 0.6841 0.0
N479 N 0.62994 0.99394 0.62832 0.0
H480 H 0.48512 0.43836 0.91538 0.0
H481 H 0.62096 0.57969 0.04565 0.0
H482 H 0.5905 0.55353 0.91131 0.0
H483 H 0.50644 0.4745 0.05036 0.0
H484 H 0.61337 0.56713 -0.00373 0.0
H485 H 0.49502 0.44798 0.96478 0.0
C486 C 0.51033 0.46565 0.92492 0.0
C487 C 0.53689 0.49533 0.90933 0.0
C488 C 0.58993 0.54673 0.0081 0.0
C489 C 0.54859 0.50647 0.96571 0.0
C490 C 0.59442 0.55369 0.03629 0.0
C491 C 0.56422 0.5282 0.05217 0.0
C492 C 0.55507 0.51388 -0.00438 0.0
C493 C 0.53014 0.49533 0.03892 0.0
C494 C 0.51598 0.47116 0.95309 0.0
C495 C 0.56918 0.53004 0.92264 0.0
N496 N 0.52649 0.48914 0.01145 0.0
N497 N 0.57413 0.53465 0.95005 0.0
H498 H 0.13618 0.5173 0.22174 0.0
H499 H 0.10887 0.62719 0.37122 0.0
H500 H 0.08476 0.63953 0.23924 0.0
H501 H 0.10495 0.48342 0.35362 0.0
H502 H 0.10878 0.63463 0.32273 0.0
H503 H 0.13293 0.50582 0.27 0.0
C504 C 0.12405 0.54152 0.23569 0.0
C505 C 0.11071 0.5794 0.22656 0.0
C506 C 0.10779 0.6014 0.32943 0.0
C507 C 0.1076 0.56697 0.28146 0.0
C508 C 0.10807 0.59721 0.35706 0.0
C509 C 0.10699 0.55467 0.36631 0.0
C510 C 0.10709 0.56288 0.31088 0.0
C511 C 0.1056 0.51676 0.34718 0.0
C512 C 0.12216 0.53496 0.26314 0.0
C513 C 0.09543 0.60991 0.24543 0.0
N514 N 0.10606 0.52178 0.32028 0.0
N515 N 0.09463 0.60323 0.272 0.0
loop_
_geom_bond_atom_site_label_1
_geom_bond_atom_site_label_2
_geom_bond_distance
_geom_bond_site_symmetry_2
_ccdc_geom_bond_type
Nd0 C2 2.836 . S
Nd0 O20 2.500 . S
Nd0 O21 2.492 . S
Nd0 O22 2.487 . S
Nd0 O23 2.682 . S
Nd0 O24 2.410 . S
Nd0 O29 2.414 . S
Nd0 O31 2.424 1_455 S
Nd1 C11 2.836 1_455 S
Nd1 O23 2.414 . S
Nd1 O25 2.424 . S
Nd1 O26 2.500 1_455 S
Nd1 O27 2.492 1_455 S
Nd1 O28 2.487 . S
Nd1 O29 2.682 . S
Nd1 O30 2.410 1_455 S
C2 Nd0 2.836 . S
C2 C3 1.498 . S
C2 O20 1.258 . S
C2 O21 1.239 . S
C3 C2 1.498 . S
C3 C4 1.366 . S
C3 C8 1.407 . S
C4 C3 1.366 . S
C4 C5 1.392 . S
C4 H32 0.930 . S
C5 C4 1.392 . S
C5 C6 1.398 . S
C5 H33 0.929 . S
C6 C5 1.398 . S
C6 C7 1.352 . S
C7 C6 1.352 . S
C7 C8 1.384 . S
C7 H34 0.930 . S
C8 C3 1.407 . S
C8 C7 1.384 . S
C8 H35 0.929 . S
C9 O22 1.241 . S
C9 O23 1.273 . S
C10 O24 1.251 . S
C10 O25 1.268 . S
C11 Nd1 2.836 1_655 S
C11 C12 1.498 . S
C11 O26 1.258 . S
C11 O27 1.239 . S
C12 C11 1.498 . S
C12 C13 1.366 . S
C12 C17 1.407 . S
C13 C12 1.366 . S
C13 C14 1.392 . S
C13 H36 0.930 . S
C14 C13 1.392 . S
C14 C15 1.398 . S
C14 H37 0.929 . S
C15 C14 1.398 . S
C15 C16 1.352 . S
C16 C15 1.352 . S
C16 C17 1.384 . S
C16 H38 0.930 . S
C17 C12 1.407 . S
C17 C16 1.384 . S
C17 H39 0.929 . S
C18 O28 1.241 . S
C18 O29 1.273 . S
C19 O30 1.251 . S
C19 O31 1.268 . S
O20 Nd0 2.500 . S
O20 C2 1.258 . S
O21 Nd0 2.492 . S
O21 C2 1.239 . S
O22 Nd0 2.487 . S
O22 C9 1.241 . S
O23 Nd0 2.682 . S
O23 Nd1 2.414 . S
O23 C9 1.273 . S
O24 Nd0 2.410 . S
O24 C10 1.251 . S
O25 Nd1 2.424 . S
O25 C10 1.268 . S
O26 Nd1 2.500 1_655 S
O26 C11 1.258 . S
O27 Nd1 2.492 1_655 S
O27 C11 1.239 . S
O28 Nd1 2.487 . S
O28 C18 1.241 . S
O29 Nd0 2.414 . S
O29 Nd1 2.682 . S
O29 C18 1.273 . S
O30 Nd1 2.410 1_655 S
O30 C19 1.251 . S
O31 Nd0 2.424 1_655 S
O31 C19 1.268 . S
H32 C4 0.930 . S
H33 C5 0.929 . S
H34 C7 0.930 . S
H35 C8 0.929 . S
H36 C13 0.930 . S
H37 C14 0.929 . S
H38 C16 0.930 . S
H39 C17 0.929 . S
Nd40 C42 2.836 1_545 S
Nd40 O60 2.500 1_545 S
Nd40 O61 2.492 1_545 S
Nd40 O62 2.487 . S
Nd40 O63 2.682 . S
Nd40 O64 2.410 1_545 S
Nd40 O69 2.414 . S
Nd40 O71 2.424 . S
Nd41 C51 2.836 . S
Nd41 O63 2.414 . S
Nd41 O65 2.424 1_545 S
Nd41 O66 2.500 . S
Nd41 O67 2.492 . S
Nd41 O68 2.487 . S
Nd41 O69 2.682 . S
Nd41 O70 2.410 . S
C42 Nd40 2.836 1_565 S
C42 C43 1.498 . S
C42 O60 1.258 . S
C42 O61 1.239 . S
C43 C42 1.498 . S
C43 C44 1.366 . S
C43 C48 1.407 . S
C44 C43 1.366 . S
C44 C45 1.392 . S
C44 H72 0.930 . S
C45 C44 1.392 . S
C45 C46 1.398 . S
C45 H73 0.929 . S
C46 C45 1.398 . S
C46 C47 1.352 . S
C47 C46 1.352 . S
C47 C48 1.384 . S
C47 H74 0.930 . S
C48 C43 1.407 . S
C48 C47 1.384 . S
C48 H75 0.929 . S
C49 O62 1.241 . S
C49 O63 1.273 . S
C50 O64 1.251 . S
C50 O65 1.268 . S
C51 Nd41 2.836 . S
C51 C52 1.498 . S
C51 O66 1.258 . S
C51 O67 1.239 . S
C52 C51 1.498 . S
C52 C53 1.366 . S
C52 C57 1.407 . S
C53 C52 1.366 . S
C53 C54 1.392 . S
C53 H76 0.930 . S
C54 C53 1.392 . S
C54 C55 1.398 . S
C54 H77 0.929 . S
C55 C54 1.398 . S
C55 C56 1.352 . S
C56 C55 1.352 . S
C56 C57 1.384 . S
C56 H78 0.930 . S
C57 C52 1.407 . S
C57 C56 1.384 . S
C57 H79 0.929 . S
C58 O68 1.241 . S
C58 O69 1.273 . S
C59 O70 1.251 . S
C59 O71 1.268 . S
O60 Nd40 2.500 1_565 S
O60 C42 1.258 . S
O61 Nd40 2.492 1_565 S
O61 C42 1.239 . S
O62 Nd40 2.487 . S
O62 C49 1.241 . S
O63 Nd40 2.682 . S
O63 Nd41 2.414 . S
O63 C49 1.273 . S
O64 Nd40 2.410 1_565 S
O64 C50 1.251 . S
O65 Nd41 2.424 1_565 S
O65 C50 1.268 . S
O66 Nd41 2.500 . S
O66 C51 1.258 . S
O67 Nd41 2.492 . S
O67 C51 1.239 . S
O68 Nd41 2.487 . S
O68 C58 1.241 . S
O69 Nd40 2.414 . S
O69 Nd41 2.682 . S
O69 C58 1.273 . S
O70 Nd41 2.410 . S
O70 C59 1.251 . S
O71 Nd40 2.424 . S
O71 C59 1.268 . S
H72 C44 0.930 . S
H73 C45 0.929 . S
H74 C47 0.930 . S
H75 C48 0.929 . S
H76 C53 0.930 . S
H77 C54 0.929 . S
H78 C56 0.930 . S
H79 C57 0.929 . S
Nd80 C82 2.836 . S
Nd80 O100 2.500 . S
Nd80 O101 2.492 . S
Nd80 O102 2.487 . S
Nd80 O103 2.682 . S
Nd80 O104 2.410 . S
Nd80 O109 2.414 . S
Nd80 O111 2.424 . S
Nd81 C91 2.836 . S
Nd81 O103 2.414 . S
Nd81 O105 2.424 . S
Nd81 O106 2.500 . S
Nd81 O107 2.492 . S
Nd81 O108 2.487 . S
Nd81 O109 2.682 . S
Nd81 O110 2.410 . S
C82 Nd80 2.836 . S
C82 C83 1.498 . S
C82 O100 1.258 . S
C82 O101 1.239 . S
C83 C82 1.498 . S
C83 C84 1.366 . S
C83 C88 1.407 . S
C84 C83 1.366 . S
C84 C85 1.392 . S
C84 H112 0.930 . S
C85 C84 1.392 . S
C85 C86 1.398 . S
C85 H113 0.929 . S
C86 C85 1.398 . S
C86 C87 1.352 . S
C87 C86 1.352 . S
C87 C88 1.384 . S
C87 H114 0.930 . S
C88 C83 1.407 . S
C88 C87 1.384 . S
C88 H115 0.929 . S
C89 O102 1.241 . S
C89 O103 1.273 . S
C90 O104 1.251 . S
C90 O105 1.268 . S
C91 Nd81 2.836 . S
C91 C92 1.498 . S
C91 O106 1.258 . S
C91 O107 1.239 . S
C92 C91 1.498 . S
C92 C93 1.366 . S
C92 C97 1.407 . S
C93 C92 1.366 . S
C93 C94 1.392 . S
C93 H116 0.930 . S
C94 C93 1.392 . S
C94 C95 1.398 . S
C94 H117 0.929 . S
C95 C94 1.398 . S
C95 C96 1.352 . S
C96 C95 1.352 . S
C96 C97 1.384 . S
C96 H118 0.930 . S
C97 C92 1.407 . S
C97 C96 1.384 . S
C97 H119 0.929 . S
C98 O108 1.241 . S
C98 O109 1.273 . S
C99 O110 1.251 . S
C99 O111 1.268 . S
O100 Nd80 2.500 . S
O100 C82 1.258 . S
O101 Nd80 2.492 . S
O101 C82 1.239 . S
O102 Nd80 2.487 . S
O102 C89 1.241 . S
O103 Nd80 2.682 . S
O103 Nd81 2.414 . S
O103 C89 1.273 . S
O104 Nd80 2.410 . S
O104 C90 1.251 . S
O105 Nd81 2.424 . S
O105 C90 1.268 . S
O106 Nd81 2.500 . S
O106 C91 1.258 . S
O107 Nd81 2.492 . S
O107 C91 1.239 . S
O108 Nd81 2.487 . S
O108 C98 1.241 . S
O109 Nd80 2.414 . S
O109 Nd81 2.682 . S
O109 C98 1.273 . S
O110 Nd81 2.410 . S
O110 C99 1.251 . S
O111 Nd80 2.424 . S
O111 C99 1.268 . S
H112 C84 0.930 . S
H113 C85 0.929 . S
H114 C87 0.930 . S
H115 C88 0.929 . S
H116 C93 0.930 . S
H117 C94 0.929 . S
H118 C96 0.930 . S
H119 C97 0.929 . S
H120 C125 0.930 . S
H121 C128 0.930 . S
H122 C130 0.930 . S
H123 C124 1.016 . S
C124 H123 1.016 . S
C124 N131 1.286 . S
C125 H120 0.930 . S
C125 C126 1.397 . S
C125 C127 1.361 . S
C126 C125 1.397 . S
C126 C130 1.390 . S
C127 C125 1.361 . S
C127 C128 1.393 . S
C127 N131 1.413 . S
C128 H121 0.930 . S
C128 C127 1.393 . S
C128 C129 1.399 . S
C129 C128 1.399 . S
C129 C130 1.381 . S
C130 H122 0.930 . S
C130 C126 1.390 . S
C130 C129 1.381 . S
N131 C124 1.286 . S
N131 C127 1.413 . S
H132 C137 0.930 . S
H133 C140 0.930 . S
H134 C142 0.930 . S
H135 C136 1.016 . S
C136 H135 1.016 . S
C136 N143 1.286 . S
C137 H132 0.930 . S
C137 C138 1.397 . S
C137 C139 1.361 . S
C138 C137 1.397 . S
C138 C142 1.390 . S
C139 C137 1.361 . S
C139 C140 1.393 . S
C139 N143 1.413 . S
C140 H133 0.930 . S
C140 C139 1.393 . S
C140 C141 1.399 . S
C141 C140 1.399 . S
C141 C142 1.381 . S
C142 H134 0.930 . S
C142 C138 1.390 . S
C142 C141 1.381 . S
N143 C136 1.286 . S
N143 C139 1.413 . S
H144 C149 0.930 . S
H145 C152 0.930 . S
H146 C154 0.907 1_655 S
H147 C148 1.016 . S
C148 H147 1.016 . S
C148 N155 1.286 . S
C149 H144 0.930 . S
C149 C150 1.397 1_455 S
C149 C151 1.361 . S
C150 C149 1.397 1_655 S
C150 C154 1.388 1_655 S
C151 C149 1.361 . S
C151 C152 1.393 . S
C151 N155 1.413 . S
C152 H145 0.930 . S
C152 C151 1.393 . S
C152 C153 1.399 . S
C153 C152 1.399 . S
C153 C154 1.408 . S
C154 H146 0.907 1_455 S
C154 C150 1.388 1_455 S
C154 C153 1.408 . S
N155 C148 1.286 . S
N155 C151 1.413 . S
H156 C161 0.930 . S
H157 C164 0.930 . S
H158 C166 0.930 . S
H159 C160 1.016 . S
C160 H159 1.016 . S
C160 N167 1.286 . S
C161 H156 0.930 . S
C161 C162 1.397 . S
C161 C163 1.361 1_455 S
C162 C161 1.397 . S
C162 C166 1.390 . S
C163 C161 1.361 1_655 S
C163 C164 1.393 . S
C163 N167 1.413 . S
C164 H157 0.930 . S
C164 C163 1.393 . S
C164 C165 1.399 1_655 S
C165 C164 1.399 1_455 S
C165 C166 1.381 . S
C166 H158 0.930 . S
C166 C162 1.390 . S
C166 C165 1.381 . S
N167 C160 1.286 . S
N167 C163 1.413 . S
H168 C173 0.930 . S
H169 C176 0.930 . S
H170 C178 0.930 . S
H171 C172 1.016 . S
C172 H171 1.016 . S
C172 N179 1.286 . S
C173 H168 0.930 . S
C173 C174 1.397 . S
C173 C175 1.361 . S
C174 C173 1.397 . S
C174 C178 1.390 . S
C175 C173 1.361 . S
C175 C176 1.393 1_545 S
C175 N179 1.413 1_545 S
C176 H169 0.930 . S
C176 C175 1.393 1_565 S
C176 C177 1.399 1_565 S
C177 C176 1.399 1_545 S
C177 C178 1.381 . S
C178 H170 0.930 . S
C178 C174 1.390 . S
C178 C177 1.381 . S
N179 C172 1.286 . S
N179 C175 1.413 1_565 S
H180 C185 0.930 . S
H181 C188 0.930 . S
H182 C190 0.930 . S
H183 C184 1.016 . S
C184 H183 1.016 . S
C184 N191 1.286 . S
C185 H180 0.930 . S
C185 C186 1.397 . S
C185 C187 1.361 . S
C186 C185 1.397 . S
C186 C190 1.390 . S
C187 C185 1.361 . S
C187 C188 1.393 . S
C187 N191 1.413 . S
C188 H181 0.930 . S
C188 C187 1.393 . S
C188 C189 1.399 . S
C189 C188 1.399 . S
C189 C190 1.381 . S
C190 H182 0.930 . S
C190 C186 1.390 . S
C190 C189 1.381 . S
N191 C184 1.286 . S
N191 C187 1.413 . S
H192 C198 0.930 . S
H193 C202 0.930 . S
H194 C207 0.929 . S
H195 C205 0.929 . S
H196 C200 0.929 . S
H197 C206 0.929 . S
C198 H192 0.930 . S
C198 C199 1.367 . S
C198 C206 1.378 . S
C199 C198 1.367 . S
C199 C207 1.433 . S
C200 H196 0.929 . S
C200 C202 1.378 . S
C200 C204 1.350 . S
C201 C204 1.463 . S
C201 C206 1.350 . S
C201 N209 1.427 . S
C202 H193 0.930 . S
C202 C200 1.378 . S
C202 C203 1.367 . S
C203 C202 1.367 . S
C203 C205 1.433 . S
C204 C200 1.350 . S
C204 C201 1.463 . S
C204 N208 1.427 . S
C205 H195 0.929 . S
C205 C203 1.433 . S
C205 N208 1.384 . S
C206 H197 0.929 . S
C206 C198 1.378 . S
C206 C201 1.350 . S
C207 H194 0.929 . S
C207 C199 1.433 . S
C207 N209 1.384 . S
N208 C204 1.427 . S
N208 C205 1.384 . S
N209 C201 1.427 . S
N209 C207 1.384 . S
H210 C216 0.930 . S
H211 C220 0.930 . S
H212 C225 0.929 . S
H213 C223 0.929 . S
H214 C218 0.929 . S
H215 C224 0.929 . S
C216 H210 0.930 . S
C216 C217 1.367 . S
C216 C224 1.378 . S
C217 C216 1.367 . S
C217 C225 1.433 . S
C218 H214 0.929 . S
C218 C220 1.378 . S
C218 C222 1.350 . S
C219 C222 1.463 . S
C219 C224 1.350 . S
C219 N227 1.427 . S
C220 H211 0.930 . S
C220 C218 1.378 . S
C220 C221 1.367 . S
C221 C220 1.367 . S
C221 C223 1.433 . S
C222 C218 1.350 . S
C222 C219 1.463 . S
C222 N226 1.427 . S
C223 H213 0.929 . S
C223 C221 1.433 . S
C223 N226 1.384 . S
C224 H215 0.929 . S
C224 C216 1.378 . S
C224 C219 1.350 . S
C225 H212 0.929 . S
C225 C217 1.433 . S
C225 N227 1.384 . S
N226 C222 1.427 . S
N226 C223 1.384 . S
N227 C219 1.427 . S
N227 C225 1.384 . S
H228 C234 0.930 . S
H229 C238 0.930 . S
H230 C243 0.929 . S
H231 C241 0.929 . S
H232 C236 0.929 . S
H233 C242 0.929 . S
C234 H228 0.930 . S
C234 C235 1.367 . S
C234 C242 1.378 . S
C235 C234 1.367 . S
C235 C243 1.433 . S
C236 H232 0.929 . S
C236 C238 1.378 . S
C236 C240 1.350 . S
C237 C240 1.463 . S
C237 C242 1.350 . S
C237 N245 1.427 . S
C238 H229 0.930 . S
C238 C236 1.378 . S
C238 C239 1.367 . S
C239 C238 1.367 . S
C239 C241 1.433 . S
C240 C236 1.350 . S
C240 C237 1.463 . S
C240 N244 1.427 . S
C241 H231 0.929 . S
C241 C239 1.433 . S
C241 N244 1.384 . S
C242 H233 0.929 . S
C242 C234 1.378 . S
C242 C237 1.350 . S
C243 H230 0.929 . S
C243 C235 1.433 . S
C243 N245 1.384 . S
N244 C240 1.427 . S
N244 C241 1.384 . S
N245 C237 1.427 . S
N245 C243 1.384 . S
H246 C252 0.930 . S
H247 C256 0.930 . S
H248 C261 0.929 . S
H249 C259 0.929 . S
H250 C254 0.929 . S
H251 C260 0.929 . S
C252 H246 0.930 . S
C252 C253 1.367 . S
C252 C260 1.378 . S
C253 C252 1.367 . S
C253 C261 1.433 . S
C254 H250 0.929 . S
C254 C256 1.378 . S
C254 C258 1.350 . S
C255 C258 1.463 . S
C255 C260 1.350 . S
C255 N263 1.427 . S
C256 H247 0.930 . S
C256 C254 1.378 . S
C256 C257 1.367 . S
C257 C256 1.367 . S
C257 C259 1.433 . S
C258 C254 1.350 . S
C258 C255 1.463 . S
C258 N262 1.427 . S
C259 H249 0.929 . S
C259 C257 1.433 . S
C259 N262 1.384 . S
C260 H251 0.929 . S
C260 C252 1.378 . S
C260 C255 1.350 . S
C261 H248 0.929 . S
C261 C253 1.433 . S
C261 N263 1.384 . S
N262 C258 1.427 . S
N262 C259 1.384 . S
N263 C255 1.427 . S
N263 C261 1.384 . S
H264 C270 0.930 . S
H265 C274 0.930 . S
H266 C279 0.929 . S
H267 C277 0.929 . S
H268 C272 0.929 . S
H269 C278 0.929 . S
C270 H264 0.930 . S
C270 C271 1.367 . S
C270 C278 1.378 . S
C271 C270 1.367 . S
C271 C279 1.433 . S
C272 H268 0.929 . S
C272 C274 1.378 . S
C272 C276 1.350 . S
C273 C276 1.463 . S
C273 C278 1.350 . S
C273 N281 1.427 . S
C274 H265 0.930 . S
C274 C272 1.378 . S
C274 C275 1.367 . S
C275 C274 1.367 . S
C275 C277 1.433 . S
C276 C272 1.350 . S
C276 C273 1.463 . S
C276 N280 1.427 . S
C277 H267 0.929 . S
C277 C275 1.433 . S
C277 N280 1.384 . S
C278 H269 0.929 . S
C278 C270 1.378 . S
C278 C273 1.350 . S
C279 H266 0.929 . S
C279 C271 1.433 . S
C279 N281 1.384 . S
N280 C276 1.427 . S
N280 C277 1.384 . S
N281 C273 1.427 . S
N281 C279 1.384 . S
H282 C288 0.930 . S
H283 C292 0.930 . S
H284 C297 0.929 . S
H285 C295 0.929 . S
H286 C290 0.929 . S
H287 C296 0.929 . S
C288 H282 0.930 . S
C288 C289 1.367 . S
C288 C296 1.378 . S
C289 C288 1.367 . S
C289 C297 1.433 . S
C290 H286 0.929 . S
C290 C292 1.378 . S
C290 C294 1.350 . S
C291 C294 1.463 . S
C291 C296 1.350 . S
C291 N299 1.427 . S
C292 H283 0.930 . S
C292 C290 1.378 . S
C292 C293 1.367 . S
C293 C292 1.367 . S
C293 C295 1.433 . S
C294 C290 1.350 . S
C294 C291 1.463 . S
C294 N298 1.427 . S
C295 H285 0.929 . S
C295 C293 1.433 . S
C295 N298 1.384 . S
C296 H287 0.929 . S
C296 C288 1.378 . S
C296 C291 1.350 . S
C297 H284 0.929 . S
C297 C289 1.433 . S
C297 N299 1.384 . S
N298 C294 1.427 . S
N298 C295 1.384 . S
N299 C291 1.427 . S
N299 C297 1.384 . S
H300 C306 0.930 . S
H301 C310 0.930 . S
H302 C315 0.929 . S
H303 C313 0.929 . S
H304 C308 0.929 . S
H305 C314 0.929 . S
C306 H300 0.930 . S
C306 C307 1.367 . S
C306 C314 1.378 . S
C307 C306 1.367 . S
C307 C315 1.433 . S
C308 H304 0.929 . S
C308 C310 1.378 . S
C308 C312 1.350 . S
C309 C312 1.463 . S
C309 C314 1.350 . S
C309 N317 1.427 . S
C310 H301 0.930 . S
C310 C308 1.378 . S
C310 C311 1.367 . S
C311 C310 1.367 . S
C311 C313 1.433 . S
C312 C308 1.350 . S
C312 C309 1.463 . S
C312 N316 1.427 . S
C313 H303 0.929 . S
C313 C311 1.433 . S
C313 N316 1.384 . S
C314 H305 0.929 . S
C314 C306 1.378 . S
C314 C309 1.350 . S
C315 H302 0.929 . S
C315 C307 1.433 . S
C315 N317 1.384 . S
N316 C312 1.427 . S
N316 C313 1.384 . S
N317 C309 1.427 . S
N317 C315 1.384 . S
H318 C324 0.930 . S
H319 C328 0.930 . S
H320 C333 0.929 . S
H321 C331 0.929 . S
H322 C326 0.929 . S
H323 C332 0.929 . S
C324 H318 0.930 . S
C324 C325 1.367 . S
C324 C332 1.378 . S
C325 C324 1.367 . S
C325 C333 1.433 . S
C326 H322 0.929 . S
C326 C328 1.378 . S
C326 C330 1.350 . S
C327 C330 1.463 . S
C327 C332 1.350 . S
C327 N335 1.427 . S
C328 H319 0.930 . S
C328 C326 1.378 . S
C328 C329 1.367 . S
C329 C328 1.367 . S
C329 C331 1.433 . S
C330 C326 1.350 . S
C330 C327 1.463 . S
C330 N334 1.427 . S
C331 H321 0.929 . S
C331 C329 1.433 . S
C331 N334 1.384 . S
C332 H323 0.929 . S
C332 C324 1.378 . S
C332 C327 1.350 . S
C333 H320 0.929 . S
C333 C325 1.433 . S
C333 N335 1.384 . S
N334 C330 1.427 . S
N334 C331 1.384 . S
N335 C327 1.427 . S
N335 C333 1.384 . S
H336 C342 0.930 . S
H337 C346 0.930 . S
H338 C351 0.929 . S
H339 C349 0.929 1_545 S
H340 C344 0.929 . S
H341 C350 0.929 . S
C342 H336 0.930 . S
C342 C343 1.367 . S
C342 C350 1.378 . S
C343 C342 1.367 . S
C343 C351 1.433 . S
C344 H340 0.929 . S
C344 C346 1.378 . S
C344 C348 1.350 . S
C345 C348 1.463 . S
C345 C350 1.350 . S
C345 N353 1.427 . S
C346 H337 0.930 . S
C346 C344 1.378 . S
C346 C347 1.367 . S
C347 C346 1.367 . S
C347 C349 1.433 . S
C348 C344 1.350 . S
C348 C345 1.463 . S
C348 N352 1.427 . S
C349 H339 0.929 1_565 S
C349 C347 1.433 . S
C349 N352 1.384 . S
C350 H341 0.929 . S
C350 C342 1.378 . S
C350 C345 1.350 . S
C351 H338 0.929 . S
C351 C343 1.433 . S
C351 N353 1.384 . S
N352 C348 1.427 . S
N352 C349 1.384 . S
N353 C345 1.427 . S
N353 C351 1.384 . S
H354 C360 0.930 . S
H355 C364 0.930 . S
H356 C369 0.929 . S
H357 C367 0.929 . S
H358 C362 0.929 . S
H359 C368 0.929 . S
C360 H354 0.930 . S
C360 C361 1.367 . S
C360 C368 1.378 . S
C361 C360 1.367 . S
C361 C369 1.433 . S
C362 H358 0.929 . S
C362 C364 1.378 . S
C362 C366 1.350 . S
C363 C366 1.463 . S
C363 C368 1.350 . S
C363 N371 1.427 . S
C364 H355 0.930 . S
C364 C362 1.378 . S
C364 C365 1.367 . S
C365 C364 1.367 . S
C365 C367 1.433 . S
C366 C362 1.350 . S
C366 C363 1.463 . S
C366 N370 1.427 . S
C367 H357 0.929 . S
C367 C365 1.433 . S
C367 N370 1.384 . S
C368 H359 0.929 . S
C368 C360 1.378 . S
C368 C363 1.350 . S
C369 H356 0.929 . S
C369 C361 1.433 . S
C369 N371 1.384 . S
N370 C366 1.427 . S
N370 C367 1.384 . S
N371 C363 1.427 . S
N371 C369 1.384 . S
H372 C378 0.930 . S
H373 C382 0.930 . S
H374 C387 0.929 . S
H375 C385 0.929 . S
H376 C380 0.929 . S
H377 C386 0.929 . S
C378 H372 0.930 . S
C378 C379 1.367 . S
C378 C386 1.378 . S
C379 C378 1.367 . S
C379 C387 1.433 . S
C380 H376 0.929 . S
C380 C382 1.378 . S
C380 C384 1.350 . S
C381 C384 1.463 . S
C381 C386 1.350 . S
C381 N389 1.427 . S
C382 H373 0.930 . S
C382 C380 1.378 . S
C382 C383 1.367 . S
C383 C382 1.367 . S
C383 C385 1.433 . S
C384 C380 1.350 . S
C384 C381 1.463 . S
C384 N388 1.427 . S
C385 H375 0.929 . S
C385 C383 1.433 . S
C385 N388 1.384 . S
C386 H377 0.929 . S
C386 C378 1.378 . S
C386 C381 1.350 . S
C387 H374 0.929 . S
C387 C379 1.433 . S
C387 N389 1.384 . S
N388 C384 1.427 . S
N388 C385 1.384 . S
N389 C381 1.427 . S
N389 C387 1.384 . S
H390 C396 0.930 . S
H391 C400 0.930 . S
H392 C405 0.929 . S
H393 C403 0.929 . S
H394 C398 0.929 . S
H395 C404 0.929 . S
C396 H390 0.930 . S
C396 C397 1.367 . S
C396 C404 1.378 . S
C397 C396 1.367 . S
C397 C405 1.433 . S
C398 H394 0.929 . S
C398 C400 1.378 . S
C398 C402 1.350 . S
C399 C402 1.463 . S
C399 C404 1.350 . S
C399 N407 1.427 . S
C400 H391 0.930 . S
C400 C398 1.378 . S
C400 C401 1.367 . S
C401 C400 1.367 . S
C401 C403 1.433 . S
C402 C398 1.350 . S
C402 C399 1.463 . S
C402 N406 1.427 . S
C403 H393 0.929 . S
C403 C401 1.433 . S
C403 N406 1.384 . S
C404 H395 0.929 . S
C404 C396 1.378 . S
C404 C399 1.350 . S
C405 H392 0.929 . S
C405 C397 1.433 . S
C405 N407 1.384 . S
N406 C402 1.427 . S
N406 C403 1.384 . S
N407 C399 1.427 . S
N407 C405 1.384 . S
H408 C414 0.930 . S
H409 C418 0.930 1_655 S
H410 C423 0.929 1_655 S
H411 C421 0.929 . S
H412 C416 0.929 1_655 S
H413 C422 0.929 . S
C414 H408 0.930 . S
C414 C415 1.367 . S
C414 C422 1.378 . S
C415 C414 1.367 . S
C415 C423 1.433 . S
C416 H412 0.929 1_455 S
C416 C418 1.378 . S
C416 C420 1.350 1_556 S
C417 C420 1.463 . S
C417 C422 1.350 . S
C417 N425 1.427 . S
C418 H409 0.930 1_455 S
C418 C416 1.378 . S
C418 C419 1.367 . S
C419 C418 1.367 . S
C419 C421 1.433 . S
C420 C416 1.350 1_554 S
C420 C417 1.463 . S
C420 N424 1.427 1_554 S
C421 H411 0.929 . S
C421 C419 1.433 . S
C421 N424 1.384 . S
C422 H413 0.929 . S
C422 C414 1.378 . S
C422 C417 1.350 . S
C423 H410 0.929 1_455 S
C423 C415 1.433 . S
C423 N425 1.384 . S
N424 C420 1.427 1_556 S
N424 C421 1.384 . S
N425 C417 1.427 . S
N425 C423 1.384 . S
H426 C432 0.930 . S
H427 C436 0.930 1_565 S
H428 C441 0.929 1_565 S
H429 C439 0.929 . S
H430 C434 0.929 1_565 S
H431 C440 0.929 . S
C432 H426 0.930 . S
C432 C433 1.367 . S
C432 C440 1.378 . S
C433 C432 1.367 . S
C433 C441 1.433 . S
C434 H430 0.929 1_545 S
C434 C436 1.378 . S
C434 C438 1.350 . S
C435 C438 1.463 . S
C435 C440 1.350 . S
C435 N443 1.427 . S
C436 H427 0.930 1_545 S
C436 C434 1.378 . S
C436 C437 1.367 . S
C437 C436 1.367 . S
C437 C439 1.433 . S
C438 C434 1.350 . S
C438 C435 1.463 . S
C438 N442 1.427 . S
C439 H429 0.929 . S
C439 C437 1.433 . S
C439 N442 1.384 . S
C440 H431 0.929 . S
C440 C432 1.378 . S
C440 C435 1.350 . S
C441 H428 0.929 1_545 S
C441 C433 1.433 . S
C441 N443 1.384 . S
N442 C438 1.427 . S
N442 C439 1.384 . S
N443 C435 1.427 . S
N443 C441 1.384 . S
H444 C450 0.930 . S
H445 C454 0.930 . S
H446 C459 0.929 . S
H447 C457 0.929 . S
H448 C452 0.929 . S
H449 C458 0.929 . S
C450 H444 0.930 . S
C450 C451 1.367 . S
C450 C458 1.378 . S
C451 C450 1.367 . S
C451 C459 1.433 . S
C452 H448 0.929 . S
C452 C454 1.378 . S
C452 C456 1.350 . S
C453 C456 1.463 . S
C453 C458 1.350 . S
C453 N461 1.427 . S
C454 H445 0.930 . S
C454 C452 1.378 . S
C454 C455 1.367 . S
C455 C454 1.367 . S
C455 C457 1.433 . S
C456 C452 1.350 . S
C456 C453 1.463 . S
C456 N460 1.427 . S
C457 H447 0.929 . S
C457 C455 1.433 . S
C457 N460 1.384 . S
C458 H449 0.929 . S
C458 C450 1.378 . S
C458 C453 1.350 . S
C459 H446 0.929 . S
C459 C451 1.433 . S
C459 N461 1.384 . S
N460 C456 1.427 . S
N460 C457 1.384 . S
N461 C453 1.427 . S
N461 C459 1.384 . S
H462 C468 0.930 . S
H463 C472 0.930 . S
H464 C477 0.929 1_565 S
H465 C475 0.929 . S
H466 C470 0.929 . S
H467 C476 0.929 . S
C468 H462 0.930 . S
C468 C469 1.367 . S
C468 C476 1.378 . S
C469 C468 1.367 . S
C469 C477 1.433 . S
C470 H466 0.929 . S
C470 C472 1.378 . S
C470 C474 1.350 1_565 S
C471 C474 1.463 . S
C471 C476 1.350 . S
C471 N479 1.427 . S
C472 H463 0.930 . S
C472 C470 1.378 . S
C472 C473 1.367 1_565 S
C473 C472 1.367 1_545 S
C473 C475 1.433 . S
C474 C470 1.350 1_545 S
C474 C471 1.463 . S
C474 N478 1.427 . S
C475 H465 0.929 . S
C475 C473 1.433 . S
C475 N478 1.384 . S
C476 H467 0.929 . S
C476 C468 1.378 . S
C476 C471 1.350 . S
C477 H464 0.929 1_545 S
C477 C469 1.433 . S
C477 N479 1.384 . S
N478 C474 1.427 . S
N478 C475 1.384 . S
N479 C471 1.427 . S
N479 C477 1.384 . S
H480 C486 0.930 . S
H481 C490 0.930 . S
H482 C495 0.929 . S
H483 C493 0.929 . S
H484 C488 0.929 . S
H485 C494 0.929 . S
C486 H480 0.930 . S
C486 C487 1.367 . S
C486 C494 1.378 . S
C487 C486 1.367 . S
C487 C495 1.433 . S
C488 H484 0.929 . S
C488 C490 1.378 . S
C488 C492 1.350 . S
C489 C492 1.463 1_556 S
C489 C494 1.350 . S
C489 N497 1.427 . S
C490 H481 0.930 . S
C490 C488 1.378 . S
C490 C491 1.367 . S
C491 C490 1.367 . S
C491 C493 1.433 . S
C492 C488 1.350 . S
C492 C489 1.463 1_554 S
C492 N496 1.427 . S
C493 H483 0.929 . S
C493 C491 1.433 . S
C493 N496 1.384 . S
C494 H485 0.929 . S
C494 C486 1.378 . S
C494 C489 1.350 . S
C495 H482 0.929 . S
C495 C487 1.433 . S
C495 N497 1.384 . S
N496 C492 1.427 . S
N496 C493 1.384 . S
N497 C489 1.427 . S
N497 C495 1.384 . S
H498 C504 0.930 . S
H499 C508 0.924 1_655 S
H500 C513 0.929 . S
H501 C511 0.929 . S
H502 C506 0.929 . S
H503 C512 0.929 . S
C504 H498 0.930 . S
C504 C505 1.367 . S
C504 C512 1.378 . S
C505 C504 1.367 . S
C505 C513 1.433 . S
C506 H502 0.929 . S
C506 C508 1.378 . S
C506 C510 1.350 . S
C507 C510 1.463 . S
C507 C512 1.350 . S
C507 N515 1.427 . S
C508 H499 0.924 1_455 S
C508 C506 1.378 . S
C508 C509 1.367 . S
C509 C508 1.367 . S
C509 C511 1.433 . S
C510 C506 1.350 . S
C510 C507 1.463 . S
C510 N514 1.427 . S
C511 H501 0.929 . S
C511 C509 1.433 . S
C511 N514 1.384 . S
C512 H503 0.929 . S
C512 C504 1.378 . S
C512 C507 1.350 . S
C513 H500 0.929 . S
C513 C505 1.433 . S
C513 N515 1.384 . S
N514 C510 1.427 . S
N514 C511 1.384 . S
N515 C507 1.427 . S
N515 C513 1.384 . S
C199 C10 3.358 . S
C203 C186 3.332 . S
C217 C55 1.295 . S
C221 C160 1.288 . S
C235 C90 1.956 . S
C239 C172 1.909 . S
C253 C19 2.783 . S
C257 C184 2.693 . S
C275 C162 1.160 . S
C271 C46 1.154 . S
C293 C174 1.885 . S
C289 C99 1.892 . S
C307 C50 1.947 . S
C311 C136 1.881 . S
C325 C95 0.856 . S
C329 C150 0.869 . S
C343 C6 1.155 . S
C347 C126 1.145 1_565 S
C365 C138 1.845 . S
C361 C59 1.879 . S
C383 C148 0.294 . S
C379 C86 0.377 . S
C397 C15 1.294 . S
C401 C124 1.301 . S
C419 C153 1.247 . S
C415 C18 1.222 . S
C433 C49 1.521 . S
C437 C129 1.527 . S
C451 C98 1.410 . S
C455 C141 1.439 . S
C473 C177 1.474 . S
C469 C58 1.414 . S
C491 C189 1.776 . S
C487 C89 1.691 . S
C505 C9 1.504 . S
C509 C165 1.523 . S
