# Generated by pormake.
# Topology pyr, (3,6)-cn, num edge types: 1
# Building blocks:
#     Node 0, Type 0, BuildingBlock: BELTOD_clean_linker_0, # of connection points: 3
#     Node 1, Type 0, BuildingBlock: BELTOD_clean_linker_0, # of connection points: 3
#     Node 2, Type 0, BuildingBlock: BELTOD_clean_linker_0, # of connection points: 3
#     Node 3, Type 0, BuildingBlock: BELTOD_clean_linker_0, # of connection points: 3
#     Node 4, Type 0, BuildingBlock: BELTOD_clean_linker_0, # of connection points: 3
#     Node 5, Type 0, BuildingBlock: BELTOD_clean_linker_0, # of connection points: 3
#     Node 6, Type 0, BuildingBlock: BELTOD_clean_linker_0, # of connection points: 3
#     Node 7, Type 0, BuildingBlock: BELTOD_clean_linker_0, # of connection points: 3
#     Node 8, Type 1, BuildingBlock: JUFBIX_clean_sbu_0, # of connection points: 6
#     Node 9, Type 1, BuildingBlock: JUFBIX_clean_sbu_0, # of connection points: 6
#     Node 10, Type 1, BuildingBlock: JUFBIX_clean_sbu_0, # of connection points: 6
#     Node 11, Type 1, BuildingBlock: JUFBIX_clean_sbu_0, # of connection points: 6
#     Edge 12, Type (0, 1), BuildingBlock: OJICUG_clean_linker_0, # of connection points: 2
#     Edge 13, Type (0, 1), BuildingBlock: OJICUG_clean_linker_0, # of connection points: 2
#     Edge 14, Type (0, 1), BuildingBlock: OJICUG_clean_linker_0, # of connection points: 2
#     Edge 15, Type (0, 1), BuildingBlock: OJICUG_clean_linker_0, # of connection points: 2
#     Edge 16, Type (0, 1), BuildingBlock: OJICUG_clean_linker_0, # of connection points: 2
#     Edge 17, Type (0, 1), BuildingBlock: OJICUG_clean_linker_0, # of connection points: 2
#     Edge 18, Type (0, 1), BuildingBlock: OJICUG_clean_linker_0, # of connection points: 2
#     Edge 19, Type (0, 1), BuildingBlock: OJICUG_clean_linker_0, # of connection points: 2
#     Edge 20, Type (0, 1), BuildingBlock: OJICUG_clean_linker_0, # of connection points: 2
#     Edge 21, Type (0, 1), BuildingBlock: OJICUG_clean_linker_0, # of connection points: 2
#     Edge 22, Type (0, 1), BuildingBlock: OJICUG_clean_linker_0, # of connection points: 2
#     Edge 23, Type (0, 1), BuildingBlock: OJICUG_clean_linker_0, # of connection points: 2
#     Edge 24, Type (0, 1), BuildingBlock: OJICUG_clean_linker_0, # of connection points: 2
#     Edge 25, Type (0, 1), BuildingBlock: OJICUG_clean_linker_0, # of connection points: 2
#     Edge 26, Type (0, 1), BuildingBlock: OJICUG_clean_linker_0, # of connection points: 2
#     Edge 27, Type (0, 1), BuildingBlock: OJICUG_clean_linker_0, # of connection points: 2
#     Edge 28, Type (0, 1), BuildingBlock: OJICUG_clean_linker_0, # of connection points: 2
#     Edge 29, Type (0, 1), BuildingBlock: OJICUG_clean_linker_0, # of connection points: 2
#     Edge 30, Type (0, 1), BuildingBlock: OJICUG_clean_linker_0, # of connection points: 2
#     Edge 31, Type (0, 1), BuildingBlock: OJICUG_clean_linker_0, # of connection points: 2
#     Edge 32, Type (0, 1), BuildingBlock: OJICUG_clean_linker_0, # of connection points: 2
#     Edge 33, Type (0, 1), BuildingBlock: OJICUG_clean_linker_0, # of connection points: 2
#     Edge 34, Type (0, 1), BuildingBlock: OJICUG_clean_linker_0, # of connection points: 2
#     Edge 35, Type (0, 1), BuildingBlock: OJICUG_clean_linker_0, # of connection points: 2
# Relax obj value: 0.078
# Max RMSD: 0.102
# Mean RMSD: 0.044
data_MOF--net-pyr--node1-JUFBIX_clean_sbu_0--node2-BELTOD_clean_linker_0--edge1-OJICUG_clean_linker_0
_symmetry_space_group_name_H-M    P1
_symmetry_Int_Tables_number       1
_symmetry_cell_setting            triclinic
loop_
_symmetry_equiv_pos_as_xyz
'x, y, z'
_cell_length_a     32.848194
_cell_length_b     31.204013
_cell_length_c     32.587693
_cell_angle_alpha  81.845597
_cell_angle_beta   90.080122
_cell_angle_gamma 90.788538
loop_
_atom_site_label
_atom_site_type_symbol
_atom_site_fract_x
_atom_site_fract_y
_atom_site_fract_z
_atom_type_partial_charge
P0 P 0.2199 0.18298 0.20083 0.0
H1 H 0.25578 0.20532 0.11804 0.0
H2 H 0.30704 0.17009 0.08048 0.0
H3 H 0.30483 0.06007 0.17703 0.0
H4 H 0.25292 0.0951 0.21409 0.0
H5 H 0.18164 0.25845 0.22469 0.0
H6 H 0.13777 0.31406 0.18895 0.0
H7 H 0.13512 0.24705 0.08171 0.0
H8 H 0.17908 0.19081 0.11819 0.0
H9 H 0.23443 0.16847 0.29034 0.0
H10 H 0.14733 0.12548 0.20544 0.0
O11 O 0.25453 0.2132 0.22152 0.0
H12 H 0.19687 0.13014 0.34861 0.0
H13 H 0.10982 0.08514 0.26411 0.0
C14 C 0.24917 0.15229 0.16825 0.0
C15 C 0.26493 0.17282 0.13031 0.0
C16 C 0.29459 0.15277 0.10895 0.0
C17 C 0.31011 0.11226 0.12572 0.0
C18 C 0.29363 0.09133 0.1633 0.0
C19 C 0.26354 0.11116 0.18432 0.0
C20 C 0.18446 0.22099 0.17385 0.0
C21 C 0.17149 0.25549 0.19356 0.0
C22 C 0.14617 0.28722 0.17311 0.0
C23 C 0.13303 0.28522 0.13231 0.0
C24 C 0.14517 0.24988 0.11289 0.0
C25 C 0.1703 0.2177 0.13372 0.0
C26 C 0.19371 0.15005 0.24335 0.0
C27 C 0.20743 0.15022 0.2841 0.0
C28 C 0.1859 0.12782 0.31765 0.0
C29 C 0.15011 0.10418 0.31146 0.0
C30 C 0.13687 0.10334 0.27033 0.0
C31 C 0.15848 0.12608 0.23664 0.0
P32 P 0.47176 0.93257 0.5778 0.0
H33 H 0.49259 0.01019 0.61415 0.0
H34 H 0.49264 0.02442 0.68614 0.0
H35 H 0.47449 0.8878 0.72784 0.0
H36 H 0.47365 0.87401 0.65616 0.0
H37 H 0.42656 0.86902 0.53652 0.0
H38 H 0.43868 0.79327 0.53054 0.0
H39 H 0.55444 0.80078 0.59233 0.0
H40 H 0.54193 0.87693 0.59863 0.0
H41 H 0.42244 1.00032 0.52989 0.0
H42 H 0.40293 0.88611 0.61932 0.0
O43 O 0.49733 0.96777 0.54362 0.0
H44 H 0.34949 0.01588 0.53124 0.0
H45 H 0.33034 0.90123 0.62066 0.0
C46 C 0.48406 0.94097 0.62982 0.0
C47 C 0.49004 0.98318 0.63889 0.0
C48 C 0.48993 0.99128 0.68002 0.0
C49 C 0.48323 0.95725 0.71258 0.0
C50 C 0.47926 0.91473 0.70337 0.0
C51 C 0.47938 0.90673 0.66235 0.0
C52 C 0.48279 0.87818 0.56924 0.0
C53 C 0.45447 0.85448 0.54902 0.0
C54 C 0.4614 0.81112 0.54561 0.0
C55 C 0.49715 0.79097 0.56165 0.0
C56 C 0.52655 0.81549 0.57985 0.0
C57 C 0.5194 0.85887 0.58355 0.0
C58 C 0.41792 0.9419 0.57425 0.0
C59 C 0.4024 0.97828 0.54931 0.0
C60 C 0.36077 0.9871 0.5501 0.0
C61 C 0.3343 0.95988 0.57626 0.0
C62 C 0.35005 0.92311 0.60064 0.0
C63 C 0.39147 0.91428 0.59968 0.0
P64 P 0.71897 0.33558 0.84596 0.0
H65 H 0.75535 0.30931 0.92786 0.0
H66 H 0.80773 0.34308 0.96676 0.0
H67 H 0.80664 0.45682 0.8744 0.0
H68 H 0.75401 0.42324 0.83599 0.0
H69 H 0.68348 0.25745 0.82197 0.0
H70 H 0.63889 0.20069 0.85678 0.0
H71 H 0.6308 0.26985 0.96229 0.0
H72 H 0.67595 0.32687 0.92694 0.0
H73 H 0.73553 0.36711 0.75878 0.0
H74 H 0.64303 0.38434 0.84844 0.0
O75 O 0.75194 0.30828 0.82098 0.0
H76 H 0.69768 0.41193 0.70515 0.0
H77 H 0.60515 0.43083 0.79486 0.0
C78 C 0.7497 0.36419 0.8796 0.0
C79 C 0.76524 0.34215 0.91677 0.0
C80 C 0.7954 0.36138 0.93889 0.0
C81 C 0.81141 0.40259 0.92361 0.0
C82 C 0.79508 0.42496 0.88688 0.0
C83 C 0.76462 0.40592 0.8651 0.0
C84 C 0.68393 0.29578 0.87228 0.0
C85 C 0.67213 0.26049 0.8526 0.0
C86 C 0.64628 0.22816 0.87245 0.0
C87 C 0.63133 0.23051 0.91248 0.0
C88 C 0.64226 0.26671 0.93173 0.0
C89 C 0.66805 0.29933 0.91158 0.0
C90 C 0.69181 0.3718 0.8075 0.0
C91 C 0.70713 0.38087 0.76705 0.0
C92 C 0.68553 0.40702 0.73635 0.0
C93 C 0.64817 0.4252 0.74544 0.0
C94 C 0.63345 0.41695 0.78648 0.0
C95 C 0.65516 0.39055 0.81724 0.0
P96 P 0.93677 0.67099 0.43311 0.0
H97 H 1.01319 0.71256 0.40514 0.0
H98 H 0.05158 0.76537 0.43821 0.0
H99 H 0.99356 0.71809 0.55489 0.0
H100 H 0.95503 0.66536 0.52165 0.0
H101 H 0.89798 0.68552 0.35262 0.0
H102 H 0.90637 0.65224 0.29006 0.0
H103 H 1.00808 0.57949 0.34612 0.0
H104 H 0.99966 0.61349 0.40909 0.0
H105 H 0.87678 0.68008 0.49648 0.0
H106 H 0.92191 0.57725 0.43408 0.0
O107 O 0.91072 0.71669 0.4216 0.0
H108 H 0.81699 0.63603 0.51908 0.0
H109 H 0.86193 0.53321 0.4563 0.0
C110 C 0.98071 0.68566 0.46077 0.0
C111 C 1.01069 0.7115 0.43842 0.0
C112 C 0.03276 0.74176 0.45742 0.0
C113 C 0.02453 0.74652 0.49877 0.0
C114 C 0.99997 0.71531 0.52277 0.0
C115 C 0.97786 0.68513 0.50371 0.0
C116 C 0.94869 0.65246 0.38507 0.0
C117 C 0.92284 0.66336 0.35112 0.0
C118 C 0.92759 0.64428 0.31538 0.0
C119 C 0.95788 0.61339 0.31334 0.0
C120 C 0.98442 0.60317 0.34709 0.0
C121 C 0.97991 0.62276 0.38278 0.0
C122 C 0.90306 0.63253 0.46252 0.0
C123 C 0.8746 0.64741 0.48896 0.0
C124 C 0.84051 0.62203 0.50209 0.0
C125 C 0.83448 0.58155 0.48867 0.0
C126 C 0.86563 0.5646 0.46651 0.0
C127 C 0.89989 0.58991 0.45367 0.0
P128 P 0.85382 0.87919 0.88507 0.0
H129 H 0.81101 0.85372 0.9626 0.0
H130 H 0.74391 0.86949 0.98766 0.0
H131 H 0.71306 0.93378 0.86549 0.0
H132 H 0.77953 0.91541 0.84009 0.0
H133 H 0.90918 0.85214 0.95453 0.0
H134 H 0.93706 0.78226 0.98374 0.0
H135 H 0.86796 0.72011 0.8955 0.0
H136 H 0.83915 0.7904 0.86683 0.0
H137 H 0.83968 0.95516 0.82261 0.0
H138 H 0.90183 0.83361 0.828 0.0
O139 O 0.87851 0.91659 0.90777 0.0
H140 H 0.8665 0.97754 0.75269 0.0
H141 H 0.92896 0.85609 0.75891 0.0
C142 C 0.80076 0.8834 0.89941 0.0
C143 C 0.7895 0.87026 0.94084 0.0
C144 C 0.75111 0.87996 0.95535 0.0
C145 C 0.72299 0.90388 0.92898 0.0
C146 C 0.73366 0.91529 0.88688 0.0
C147 C 0.7721 0.9051 0.87227 0.0
C148 C 0.87263 0.82673 0.90785 0.0
C149 C 0.89976 0.82359 0.94145 0.0
C150 C 0.9156 0.78352 0.95834 0.0
C151 C 0.90499 0.74574 0.94172 0.0
C152 C 0.87706 0.74877 0.90865 0.0
C153 C 0.86054 0.78883 0.89231 0.0
C154 C 0.86687 0.89172 0.83039 0.0
C155 C 0.85761 0.93246 0.80831 0.0
C156 C 0.87336 0.94549 0.76839 0.0
C157 C 0.89982 0.91857 0.75014 0.0
C158 C 0.9087 0.87764 0.77205 0.0
C159 C 0.89256 0.86446 0.81166 0.0
P160 P 0.63736 0.22474 0.3725 0.0
H161 H 0.66569 0.26634 0.44128 0.0
H162 H 0.63149 0.31138 0.48511 0.0
H163 H 0.51534 0.2781 0.4345 0.0
H164 H 0.55034 0.23395 0.38956 0.0
H165 H 0.71529 0.21243 0.3345 0.0
H166 H 0.77233 0.16522 0.3556 0.0
H167 H 0.71199 0.12102 0.47206 0.0
H168 H 0.65536 0.16952 0.45099 0.0
H169 H 0.59569 0.23713 0.2926 0.0
H170 H 0.61247 0.13367 0.39369 0.0
O171 O 0.65277 0.26684 0.3384 0.0
H172 H 0.56931 0.18531 0.24951 0.0
H173 H 0.58624 0.08144 0.35053 0.0
C174 C 0.61053 0.24644 0.41261 0.0
C175 C 0.63275 0.26757 0.44062 0.0
C176 C 0.613 0.29327 0.46586 0.0
C177 C 0.57054 0.29857 0.46334 0.0
C178 C 0.54809 0.27512 0.43691 0.0
C179 C 0.56802 0.24953 0.41146 0.0
C180 C 0.6816 0.19509 0.39154 0.0
C181 C 0.71475 0.19332 0.36495 0.0
C182 C 0.74708 0.16583 0.37684 0.0
C183 C 0.74653 0.13904 0.41537 0.0
C184 C 0.71353 0.14156 0.44237 0.0
C185 C 0.6812 0.16929 0.43043 0.0
C186 C 0.60707 0.18903 0.34587 0.0
C187 C 0.59275 0.2034 0.30588 0.0
C188 C 0.57742 0.17372 0.28134 0.0
C189 C 0.57633 0.12921 0.29649 0.0
C190 C 0.58736 0.11547 0.3379 0.0
C191 C 0.60232 0.1453 0.36255 0.0
P192 P 0.35482 0.63372 0.17503 0.0
H193 H 0.30907 0.66985 0.10198 0.0
H194 H 0.24177 0.65418 0.07605 0.0
H195 H 0.21682 0.5683 0.18954 0.0
H196 H 0.28375 0.58558 0.21599 0.0
H197 H 0.42173 0.65975 0.11677 0.0
H198 H 0.45071 0.73018 0.088 0.0
H199 H 0.36286 0.79374 0.15614 0.0
H200 H 0.33283 0.72289 0.18396 0.0
H201 H 0.34881 0.55496 0.23562 0.0
H202 H 0.39129 0.68658 0.23488 0.0
O203 O 0.37844 0.59608 0.15263 0.0
H204 H 0.37535 0.53607 0.30607 0.0
H205 H 0.41828 0.66759 0.30438 0.0
C206 C 0.3016 0.62944 0.16128 0.0
C207 C 0.28876 0.64864 0.12192 0.0
C208 C 0.25031 0.6391 0.10679 0.0
C209 C 0.22384 0.60944 0.13036 0.0
C210 C 0.23613 0.59154 0.17055 0.0
C211 C 0.27467 0.60133 0.18575 0.0
C212 C 0.37514 0.68603 0.15266 0.0
C213 C 0.40835 0.68871 0.12534 0.0
C214 C 0.42494 0.72898 0.10887 0.0
C215 C 0.40913 0.76728 0.12004 0.0
C216 C 0.37577 0.76462 0.14731 0.0
C217 C 0.35856 0.72429 0.16304 0.0
C218 C 0.36708 0.62245 0.22979 0.0
C219 C 0.36263 0.58015 0.25089 0.0
C220 C 0.37807 0.56926 0.29111 0.0
C221 C 0.3991 0.60031 0.31066 0.0
C222 C 0.40249 0.64289 0.28999 0.0
C223 C 0.3866 0.65385 0.2501 0.0
P224 P 0.12062 0.30837 0.65764 0.0
H225 H 0.1241 0.29563 0.57089 0.0
H226 H 0.07841 0.25403 0.53272 0.0
H227 H 0.9867 0.25533 0.62731 0.0
H228 H 0.03275 0.29726 0.66557 0.0
H229 H 0.2069 0.29299 0.67171 0.0
H230 H 0.26757 0.33496 0.64755 0.0
H231 H 0.19306 0.42527 0.56876 0.0
H232 H 0.13221 0.38207 0.59193 0.0
H233 H 0.10315 0.28751 0.74612 0.0
H234 H 0.09892 0.39976 0.65217 0.0
O235 O 0.13366 0.25968 0.68173 0.0
H236 H 0.08766 0.33282 0.79917 0.0
H237 H 0.08433 0.44534 0.70536 0.0
C238 C 0.08186 0.29932 0.62114 0.0
C239 C 0.09334 0.28933 0.58227 0.0
C240 C 0.06698 0.26561 0.56027 0.0
C241 C 0.02932 0.25078 0.57753 0.0
C242 C 0.01572 0.26619 0.61353 0.0
C243 C 0.04206 0.29012 0.63543 0.0
C244 C 0.16516 0.33448 0.63356 0.0
C245 C 0.20363 0.32106 0.64834 0.0
C246 C 0.23827 0.345 0.63452 0.0
C247 C 0.23475 0.38322 0.60641 0.0
C248 C 0.19634 0.39588 0.59053 0.0
C249 C 0.16172 0.37135 0.60378 0.0
C250 C 0.10303 0.34045 0.69535 0.0
C251 C 0.09856 0.3218 0.73681 0.0
C252 C 0.0896 0.34765 0.76709 0.0
C253 C 0.08533 0.39255 0.75626 0.0
C254 C 0.08811 0.41087 0.71445 0.0
C255 C 0.09648 0.38485 0.68411 0.0
Co256 Co 0.99187 0.00605 0.50934 0.0
C257 C 0.02995 0.92561 0.51843 0.0
Co258 Co 0.04979 0.00241 0.54362 0.0
C259 C 0.91103 0.03152 0.48323 0.0
C260 C 0.93431 0.98354 0.44904 0.0
N261 N 0.94353 0.00621 0.48016 0.0
N262 N 0.88208 0.02613 0.45491 0.0
C263 C 0.89659 0.99566 0.43349 0.0
H264 H 0.90954 0.05499 0.50461 0.0
H265 H 0.95426 0.96066 0.43752 0.0
C266 C 1.01111 0.08211 0.53649 0.0
N267 N 0.09802 0.00251 0.57265 0.0
C268 C 0.13502 0.99127 0.56025 0.0
C269 C 0.10422 0.015 0.61014 0.0
N270 N 0.16418 0.99629 0.58842 0.0
C271 C 0.14489 0.01108 0.61999 0.0
C272 C 0.05943 0.02907 0.45867 0.0
O273 O 0.98571 0.0653 0.51406 0.0
O274 O 0.04072 0.06005 0.55262 0.0
O275 O 0.07799 0.02295 0.49323 0.0
O276 O 0.02113 0.02233 0.45818 0.0
O277 O 0.05856 0.94461 0.53514 0.0
H278 H 0.08077 0.02668 0.62885 0.0
H279 H 0.14036 0.97933 0.53114 0.0
O280 O 0.99849 0.94657 0.5054 0.0
O281 O 0.96285 0.99003 0.56069 0.0
O282 O 0.0211 0.9818 0.59358 0.0
C283 C 0.9824 0.97955 0.59433 0.0
H284 H 0.88153 0.98358 0.40781 0.0
H285 H 0.15923 0.01933 0.6478 0.0
Co286 Co 0.49629 0.00404 0.99345 0.0
C287 C 0.48301 0.93215 0.05371 0.0
Co288 Co 0.52897 0.0072 0.05223 0.0
C289 C 0.48419 0.99991 0.90651 0.0
C290 C 0.42845 0.99143 0.94083 0.0
N291 N 0.46853 0.99978 0.94479 0.0
N292 N 0.45561 0.99129 0.87893 0.0
C293 C 0.42042 0.9862 0.90041 0.0
H294 H 0.51632 0.00405 0.89948 0.0
H295 H 0.40671 0.98777 0.96602 0.0
C296 C 0.54244 0.07908 0.99165 0.0
N297 N 0.55705 0.01144 0.10133 0.0
C298 C 0.54204 0.02226 0.13701 0.0
C299 C 0.59769 0.00933 0.10747 0.0
N300 N 0.57156 0.02764 0.1647 0.0
C301 C 0.60663 0.01912 0.14632 0.0
C302 C 0.57436 0.96889 0.99506 0.0
O303 O 0.51796 0.05906 0.97049 0.0
O304 O 0.55121 0.06219 0.02844 0.0
O305 O 0.57437 0.97911 0.03143 0.0
O306 O 0.54275 0.9765 0.97281 0.0
O307 O 0.50652 0.95243 0.07562 0.0
H308 H 0.61986 0.00355 0.08449 0.0
H309 H 0.5102 0.02777 0.14225 0.0
O310 O 0.47504 0.94884 0.01672 0.0
O311 O 0.44993 0.03168 1.01448 0.0
O312 O 0.48312 0.03499 0.07211 0.0
C313 C 0.45092 0.04213 0.05081 0.0
H314 H 0.39109 0.97827 0.88809 0.0
H315 H 0.63683 0.02281 0.1588 0.0
Co316 Co 0.54948 0.53924 0.52016 0.0
C317 C 0.48211 0.55146 0.46744 0.0
Co318 Co 0.49079 0.52352 0.55168 0.0
C319 C 0.6361 0.53715 0.5056 0.0
C320 C 0.60503 0.57534 0.45574 0.0
N321 N 0.59871 0.55073 0.49279 0.0
N322 N 0.66521 0.55218 0.47803 0.0
C323 C 0.64583 0.57611 0.44653 0.0
H324 H 0.64215 0.51701 0.53475 0.0
H325 H 0.58178 0.59271 0.43696 0.0
C326 C 0.55761 0.51004 0.60449 0.0
N327 N 0.44189 0.51262 0.57856 0.0
C328 C 0.41123 0.48723 0.56809 0.0
C329 C 0.42824 0.5294 0.61183 0.0
N330 N 0.37892 0.4876 0.59336 0.0
C331 C 0.38934 0.51414 0.62094 0.0
C332 C 0.52414 0.45365 0.52251 0.0
O333 O 0.57712 0.52427 0.57162 0.0
O334 O 0.51898 0.50762 0.60295 0.0
O335 O 0.49322 0.46499 0.54143 0.0
O336 O 0.55205 0.48109 0.5106 0.0
O337 O 0.46241 0.53875 0.50053 0.0
H338 H 0.44545 0.55132 0.62835 0.0
H339 H 0.41238 0.46925 0.54204 0.0
O340 O 0.5207 0.55385 0.46911 0.0
O341 O 0.54717 0.59744 0.52964 0.0
O342 O 0.48887 0.58233 0.56131 0.0
C343 C 0.51674 0.60968 0.54869 0.0
H344 H 0.6604 0.59456 0.41976 0.0
H345 H 0.37051 0.52123 0.64632 0.0
Co346 Co 0.03002 0.51051 1.00074 0.0
C347 C 0.95187 0.47342 1.00092 0.0
Co348 Co 0.99751 0.50861 0.05966 0.0
C349 C 0.05469 0.4813 0.92598 0.0
C350 C 0.07451 0.5466 0.92774 0.0
N351 N 0.05533 0.51274 0.95027 0.0
N352 N 0.07208 0.49421 0.88873 0.0
C353 C 0.08489 0.5353 0.88983 0.0
H354 H 0.04098 0.44974 0.93545 0.0
H355 H 0.07932 0.57791 0.9377 0.0
C356 C 0.07598 0.54573 0.05911 0.0
N357 N 0.97216 0.50619 0.11008 0.0
C358 C 0.97427 0.5365 0.13556 0.0
C359 C 0.95189 0.47245 0.13167 0.0
N360 N 0.95675 0.52288 0.17251 0.0
C361 C 0.94248 0.48259 0.17027 0.0
C362 C 0.04498 0.43567 0.0553 0.0
O363 O 0.07602 0.53814 0.02182 0.0
O364 O 0.04447 0.53558 0.08118 0.0
O365 O 0.02035 0.45342 0.07751 0.0
O366 O 0.05386 0.45508 0.01934 0.0
O367 O 0.9509 0.48156 0.03804 0.0
H368 H 0.94579 0.4419 0.12063 0.0
H369 H 0.99032 0.56712 0.1279 0.0
O370 O 0.98389 0.48299 0.97961 0.0
O371 O 1.00611 0.56552 0.98243 0.0
O372 O 0.97457 0.5642 0.04174 0.0
C373 C 0.98224 0.58332 1.00541 0.0
H374 H 0.09932 0.55632 0.8646 0.0
H375 H 0.9271 0.46171 0.19499 0.0
C376 C 0.14682 0.0633 0.38424 0.0
C377 C 0.12653 0.08178 0.34799 0.0
H378 H 0.14186 0.03246 0.44711 0.0
C379 C 0.08361 0.08041 0.34791 0.0
H380 H 0.17974 0.06264 0.38543 0.0
C381 C 0.06176 0.06227 0.38335 0.0
C382 C 0.08222 0.04534 0.41993 0.0
H383 H 0.06674 0.09462 0.32093 0.0
H384 H 0.0288 0.06267 0.38244 0.0
C385 C 0.12503 0.04564 0.41969 0.0
C386 C 0.50175 0.99574 0.77295 0.0
C387 C 0.47666 0.96627 0.75552 0.0
H388 H 0.51451 0.02706 0.82607 0.0
C389 C 0.44415 0.94598 0.77902 0.0
H390 H 0.52702 0.01186 0.75553 0.0
C391 C 0.43702 0.95464 0.81917 0.0
C392 C 0.46226 0.98374 0.83688 0.0
H393 H 0.42384 0.92367 0.76619 0.0
H394 H 0.41209 0.93787 0.83655 0.0
C395 C 0.49473 0.00424 0.81335 0.0
C396 C 0.64418 0.47803 0.67934 0.0
C397 C 0.62427 0.45101 0.71168 0.0
H398 H 0.63892 0.51794 0.62049 0.0
C399 C 0.58158 0.44683 0.71 0.0
H400 H 0.67687 0.4829 0.6799 0.0
C401 C 0.55968 0.46758 0.67609 0.0
C402 C 0.57993 0.4928 0.64288 0.0
H403 H 0.56514 0.42605 0.73401 0.0
H404 H 0.52703 0.4624 0.67516 0.0
C405 C 0.62235 0.49845 0.64533 0.0
C406 C 0.95718 0.61304 0.2368 0.0
C407 C 0.95972 0.59016 0.27701 0.0
H408 H 0.95374 0.60926 0.17189 0.0
C409 C 0.96131 0.54477 0.28242 0.0
H410 H 0.95595 0.64807 0.23187 0.0
C411 C 0.95981 0.52259 0.24815 0.0
C412 C 0.95709 0.54547 0.20792 0.0
H413 H 0.96276 0.5264 0.31318 0.0
H414 H 0.96126 0.4876 0.25308 0.0
C415 C 0.95604 0.59089 0.20256 0.0
C416 C 0.37896 0.07784 0.13035 0.0
C417 C 0.34558 0.09364 0.10602 0.0
H418 H 0.43814 0.04999 0.13213 0.0
C419 C 0.34719 0.09276 0.06296 0.0
H420 H 0.37904 0.07861 0.16348 0.0
C421 C 0.3812 0.07597 0.04483 0.0
C422 C 0.4147 0.06047 0.06926 0.0
H423 H 0.32195 0.10467 0.04336 0.0
H424 H 0.38136 0.07538 1.01168 0.0
C425 C 0.41309 0.06177 0.11223 0.0
C426 C 0.26759 0.98313 0.5433 0.0
C427 C 0.29059 0.97017 0.57917 0.0
H428 H 0.20918 1.00175 0.51816 0.0
C429 C 0.27148 0.96662 0.61809 0.0
H430 H 0.28149 0.98596 0.5129 0.0
C431 C 0.23015 0.97547 0.6211 0.0
C432 C 0.20696 0.98786 0.58526 0.0
H433 H 0.28856 0.95719 0.64631 0.0
H434 H 0.21622 0.97193 0.65149 0.0
C435 C 0.22613 0.99172 0.54631 0.0
C436 C 0.84851 0.42027 0.98721 0.0
C437 C 0.84705 0.42081 0.94399 0.0
H438 H 0.88254 0.43687 0.03921 0.0
C439 C 0.88048 0.43815 0.92001 0.0
H440 H 0.82319 0.40714 1.00648 0.0
C441 C 0.91453 0.45459 0.93867 0.0
C442 C 0.9159 0.45463 0.98181 0.0
H443 H 0.88059 0.43846 0.88673 0.0
H444 H 0.93969 0.46763 0.91911 0.0
C445 C 0.88245 0.43735 1.00591 0.0
C446 C 0.76811 0.56138 0.52478 0.0
C447 C 0.79293 0.56261 0.48955 0.0
H448 H 0.70721 0.55641 0.54869 0.0
C449 C 0.77553 0.55353 0.45224 0.0
H450 H 0.78083 0.56827 0.55387 0.0
C451 C 0.73362 0.54736 0.4492 0.0
C452 C 0.70846 0.54954 0.48349 0.0
H453 H 0.79377 0.55476 0.42441 0.0
H454 H 0.72055 0.54314 0.41949 0.0
C455 C 0.72613 0.55452 0.52184 0.0
C456 C 0.07607 0.33826 0.13159 0.0
C457 C 0.10761 0.32067 0.1104 0.0
H458 H 0.03153 0.38763 0.13085 0.0
C459 C 0.11629 0.33926 0.06936 0.0
H460 H 0.0681 0.32436 0.16296 0.0
C461 C 0.09518 0.37582 0.05075 0.0
C462 C 0.06479 0.39442 0.07272 0.0
H463 H 0.14055 0.32666 0.05224 0.0
H464 H 0.1035 0.39023 0.01963 0.0
C465 C 0.05496 0.37454 0.11304 0.0
C466 C 0.57587 0.17401 0.91226 0.0
C467 C 0.60565 0.19442 0.93414 0.0
H468 H 0.53248 0.12208 0.91315 0.0
C469 C 0.61242 0.17823 0.97609 0.0
H470 H 0.5694 0.186 0.88011 0.0
C471 C 0.59109 0.14153 0.99516 0.0
C472 C 0.56239 0.12024 0.97277 0.0
H473 H 0.63533 0.1929 0.99378 0.0
H474 H 0.59791 0.12922 0.02715 0.0
C475 C 0.55452 0.13744 0.93131 0.0
C476 C 0.99399 0.81075 0.52203 0.0
C477 C 0.02928 0.78995 0.51131 0.0
H478 H 0.96671 0.87016 0.53172 0.0
C479 C 0.06601 0.81367 0.50545 0.0
H480 H 0.96502 0.7936 0.52579 0.0
C481 C 0.06699 0.85785 0.50932 0.0
C482 C 0.03095 0.8788 0.51759 0.0
H483 H 0.09342 0.7984 0.49657 0.0
H484 H 0.0953 0.87599 0.50394 0.0
C485 C 0.99474 0.85475 0.52472 0.0
C486 C 0.47122 0.71448 0.57136 0.0
C487 C 0.5031 0.74427 0.56003 0.0
H488 H 0.45069 0.64857 0.5772 0.0
C489 C 0.5402 0.72921 0.54665 0.0
H490 H 0.44247 0.72515 0.58233 0.0
C491 C 0.54493 0.68532 0.54356 0.0
C492 C 0.51276 0.65563 0.55424 0.0
H493 H 0.56521 0.75153 0.53759 0.0
H494 H 0.57362 0.67476 0.53238 0.0
C495 C 0.47604 0.6706 0.56867 0.0
C496 C 0.96258 0.92876 0.70565 0.0
C497 C 0.92042 0.9341 0.70984 0.0
H498 H 0.01504 0.9392 0.66645 0.0
C499 C 0.89863 0.95482 0.6756 0.0
H500 H 0.98039 0.91348 0.73154 0.0
C501 C 0.91851 0.96933 0.63794 0.0
C502 C 0.96077 0.96413 0.63392 0.0
H503 H 0.86611 0.95933 0.67781 0.0
H504 H 0.90085 0.98491 0.61208 0.0
C505 C 0.98251 0.9438 0.66834 0.0
C506 C 0.53917 0.104 0.23684 0.0
C507 C 0.56955 0.09744 0.26736 0.0
H508 H 0.51583 0.08666 0.18014 0.0
C509 C 0.59724 0.06365 0.26634 0.0
H510 H 0.51731 0.12965 0.23705 0.0
C511 C 0.59644 0.03903 0.23377 0.0
C512 C 0.5678 0.04751 0.20173 0.0
H513 H 0.62124 0.05804 0.28923 0.0
H514 H 0.61927 0.01453 0.23269 0.0
C515 C 0.53819 0.07914 0.20442 0.0
C516 C 0.46064 0.6003 0.35628 0.0
C517 C 0.41985 0.58788 0.35116 0.0
H518 H 0.51229 0.59818 0.39661 0.0
C519 C 0.3996 0.56315 0.38463 0.0
H520 H 0.47722 0.61891 0.33091 0.0
C521 C 0.41962 0.55158 0.42257 0.0
C522 C 0.46054 0.56381 0.42753 0.0
H523 H 0.36815 0.55319 0.3816 0.0
H524 H 0.40316 0.53272 0.44787 0.0
C525 C 0.48082 0.58816 0.39386 0.0
C526 C 0.05114 0.40946 0.82021 0.0
C527 C 0.08017 0.42028 0.78888 0.0
H528 H 0.02485 0.42512 0.87577 0.0
C529 C 0.10574 0.45651 0.79 0.0
H530 H 0.03081 0.38189 0.8197 0.0
C531 C 0.10298 0.48092 0.82258 0.0
C532 C 0.07434 0.46978 0.85447 0.0
H533 H 0.12872 0.46515 0.76634 0.0
H534 H 0.12395 0.50785 0.8232 0.0
C535 C 0.04803 0.43411 0.8525 0.0
C536 C 0.68318 0.9312 0.986 0.0
C537 C 0.68405 0.9189 0.94604 0.0
H538 H 0.64844 0.95597 0.03265 0.0
C539 C 0.64784 0.92233 0.9226 0.0
H540 H 0.71042 0.9301 1.00483 0.0
C541 C 0.61206 0.93792 0.93855 0.0
C542 C 0.61149 0.95035 0.97843 0.0
H543 H 0.64702 0.91282 0.89192 0.0
H544 H 0.58491 0.94045 0.9195 0.0
C545 C 0.64749 0.94646 1.00197 0.0
C546 C 0.79625 0.08486 0.39654 0.0
C547 C 0.77986 0.1079 0.42656 0.0
H548 H 0.84154 0.04121 0.38177 0.0
C549 C 0.79602 0.10147 0.46686 0.0
H550 H 0.78395 0.0884 0.36541 0.0
C551 C 0.82876 0.07368 0.47651 0.0
C552 C 0.84608 0.05177 0.44606 0.0
H553 H 0.7841 0.11876 0.49069 0.0
H554 H 0.8407 0.06973 0.50775 0.0
C555 C 0.82897 0.05723 0.40613 0.0
C556 C 0.18373 0.58851 0.0701 0.0
C557 C 0.18503 0.59515 0.11194 0.0
H558 H 0.14871 0.56807 0.02076 0.0
C559 C 0.14948 0.58661 0.13597 0.0
H560 H 0.21058 0.5939 0.05071 0.0
C561 C 0.11383 0.57138 0.11873 0.0
C562 C 0.11287 0.56423 0.07703 0.0
H563 H 0.14913 0.59172 0.16814 0.0
H564 H 0.08717 0.56476 0.13824 0.0
C565 C 0.1482 0.57335 0.0529 0.0
C566 C 0.30742 0.39509 0.58525 0.0
C567 C 0.27063 0.41177 0.59747 0.0
H568 H 0.37107 0.40671 0.57411 0.0
C569 C 0.26936 0.4547 0.60562 0.0
H570 H 0.30898 0.36198 0.57894 0.0
C571 C 0.30484 0.47997 0.60347 0.0
C572 C 0.34191 0.46288 0.59251 0.0
H573 H 0.24133 0.46803 0.61552 0.0
H574 H 0.3035 0.51264 0.61094 0.0
C575 C 0.34275 0.42062 0.58241 0.0
C576 C 0.94174 0.67807 0.93105 0.0
C577 C 0.92398 0.70369 0.95816 0.0
H578 H 0.97465 0.62055 0.92469 0.0
C579 C 0.92562 0.68948 1.00107 0.0
H580 H 0.9413 0.68838 0.89787 0.0
C581 C 0.94434 0.65035 0.01649 0.0
C582 C 0.96255 0.62498 0.98937 0.0
H583 H 0.91209 0.70849 0.02271 0.0
H584 H 0.94486 0.64016 0.04967 0.0
C585 C 0.96111 0.6394 0.94647 0.0
C586 C 0.43253 0.8214 0.06028 0.0
C587 C 0.42763 0.80978 0.10323 0.0
H588 H 0.45341 0.86942 1.01098 0.0
C589 C 0.44129 0.83854 0.12995 0.0
H590 H 0.42216 0.7998 0.03905 0.0
C591 C 0.45997 0.87802 0.11398 0.0
C592 C 0.46449 0.88986 0.07094 0.0
H593 H 0.43807 0.83015 0.16321 0.0
H594 H 0.47036 0.89953 0.13528 0.0
C595 C 0.45034 0.86123 0.04427 0.0
C596 C 1.00856 0.17437 0.5976 0.0
C597 C 1.01209 0.21011 0.56621 0.0
H598 H 1.00627 0.10539 0.61221 0.0
C599 C 1.00866 0.20356 0.52451 0.0
H600 H 1.0118 0.17821 0.62997 0.0
C601 C 1.00497 0.16152 0.51445 0.0
C602 C 1.00567 0.12597 0.54601 0.0
H603 H 1.01162 0.23059 0.49983 0.0
H604 H 1.00478 0.15669 0.48218 0.0
C605 C 1.00593 0.13263 0.58753 0.0
C606 C 0.56554 0.34256 0.52208 0.0
C607 C 0.55121 0.33296 0.48362 0.0
H608 H 0.56787 0.38911 0.56466 0.0
C609 C 0.52249 0.36057 0.46179 0.0
H610 H 0.58712 0.32167 0.54002 0.0
C611 C 0.51094 0.39856 0.47645 0.0
C612 C 0.52791 0.4095 0.51304 0.0
H613 H 0.51121 0.35467 0.43184 0.0
H614 H 0.49096 0.42081 0.45778 0.0
C615 C 0.55431 0.38083 0.53643 0.0
loop_
_geom_bond_atom_site_label_1
_geom_bond_atom_site_label_2
_geom_bond_distance
_geom_bond_site_symmetry_2
_ccdc_geom_bond_type
P0 O11 1.490 . S
P0 C14 1.812 . S
P0 C20 1.803 . S
P0 C26 1.819 . S
H1 C15 0.941 . S
H2 C16 0.939 . S
H3 C18 0.940 . S
H4 C19 0.940 . S
H5 C21 0.939 . S
H6 C22 0.942 . S
H7 C24 0.940 . S
H8 C25 0.939 . S
H9 C27 0.941 . S
H10 C31 0.939 . S
O11 P0 1.490 . S
H12 C28 0.939 . S
H13 C30 0.940 . S
C14 P0 1.812 . S
C14 C15 1.389 . S
C14 C19 1.391 . S
C15 H1 0.941 . S
C15 C14 1.389 . S
C15 C16 1.397 . S
C16 H2 0.939 . S
C16 C15 1.397 . S
C16 C17 1.378 . S
C17 C16 1.378 . S
C17 C18 1.378 . S
C18 H3 0.940 . S
C18 C17 1.378 . S
C18 C19 1.396 . S
C19 H4 0.940 . S
C19 C14 1.391 . S
C19 C18 1.396 . S
C20 P0 1.803 . S
C20 C21 1.378 . S
C20 C25 1.400 . S
C21 H5 0.939 . S
C21 C20 1.378 . S
C21 C22 1.361 . S
C22 H6 0.942 . S
C22 C21 1.361 . S
C22 C23 1.369 . S
C23 C22 1.369 . S
C23 C24 1.404 . S
C24 H7 0.940 . S
C24 C23 1.404 . S
C24 C25 1.389 . S
C25 H8 0.939 . S
C25 C20 1.400 . S
C25 C24 1.389 . S
C26 P0 1.819 . S
C26 C27 1.391 . S
C26 C31 1.391 . S
C27 H9 0.941 . S
C27 C26 1.391 . S
C27 C28 1.396 . S
C28 H12 0.939 . S
C28 C27 1.396 . S
C28 C29 1.397 . S
C29 C28 1.397 . S
C29 C30 1.385 . S
C30 H13 0.940 . S
C30 C29 1.385 . S
C30 C31 1.388 . S
C31 H10 0.939 . S
C31 C26 1.391 . S
C31 C30 1.388 . S
P32 O43 1.490 . S
P32 C46 1.812 . S
P32 C52 1.803 . S
P32 C58 1.819 . S
H33 C47 0.941 . S
H34 C48 0.939 . S
H35 C50 0.940 . S
H36 C51 0.940 . S
H37 C53 0.939 . S
H38 C54 0.942 . S
H39 C56 0.940 . S
H40 C57 0.939 . S
H41 C59 0.941 . S
H42 C63 0.939 . S
O43 P32 1.490 . S
H44 C60 0.939 . S
H45 C62 0.940 . S
C46 P32 1.812 . S
C46 C47 1.389 . S
C46 C51 1.391 . S
C47 H33 0.941 . S
C47 C46 1.389 . S
C47 C48 1.397 . S
C48 H34 0.939 . S
C48 C47 1.397 . S
C48 C49 1.378 . S
C49 C48 1.378 . S
C49 C50 1.378 . S
C50 H35 0.940 . S
C50 C49 1.378 . S
C50 C51 1.396 . S
C51 H36 0.940 . S
C51 C46 1.391 . S
C51 C50 1.396 . S
C52 P32 1.803 . S
C52 C53 1.378 . S
C52 C57 1.400 . S
C53 H37 0.939 . S
C53 C52 1.378 . S
C53 C54 1.361 . S
C54 H38 0.942 . S
C54 C53 1.361 . S
C54 C55 1.369 . S
C55 C54 1.369 . S
C55 C56 1.404 . S
C56 H39 0.940 . S
C56 C55 1.404 . S
C56 C57 1.389 . S
C57 H40 0.939 . S
C57 C52 1.400 . S
C57 C56 1.389 . S
C58 P32 1.819 . S
C58 C59 1.391 . S
C58 C63 1.391 . S
C59 H41 0.941 . S
C59 C58 1.391 . S
C59 C60 1.396 . S
C60 H44 0.939 . S
C60 C59 1.396 . S
C60 C61 1.397 . S
C61 C60 1.397 . S
C61 C62 1.385 . S
C62 H45 0.940 . S
C62 C61 1.385 . S
C62 C63 1.388 . S
C63 H42 0.939 . S
C63 C58 1.391 . S
C63 C62 1.388 . S
P64 O75 1.490 . S
P64 C78 1.812 . S
P64 C84 1.803 . S
P64 C90 1.819 . S
H65 C79 0.941 . S
H66 C80 0.939 . S
H67 C82 0.940 . S
H68 C83 0.940 . S
H69 C85 0.939 . S
H70 C86 0.942 . S
H71 C88 0.940 . S
H72 C89 0.939 . S
H73 C91 0.941 . S
H74 C95 0.939 . S
O75 P64 1.490 . S
H76 C92 0.939 . S
H77 C94 0.940 . S
C78 P64 1.812 . S
C78 C79 1.389 . S
C78 C83 1.391 . S
C79 H65 0.941 . S
C79 C78 1.389 . S
C79 C80 1.397 . S
C80 H66 0.939 . S
C80 C79 1.397 . S
C80 C81 1.378 . S
C81 C80 1.378 . S
C81 C82 1.378 . S
C82 H67 0.940 . S
C82 C81 1.378 . S
C82 C83 1.396 . S
C83 H68 0.940 . S
C83 C78 1.391 . S
C83 C82 1.396 . S
C84 P64 1.803 . S
C84 C85 1.378 . S
C84 C89 1.400 . S
C85 H69 0.939 . S
C85 C84 1.378 . S
C85 C86 1.361 . S
C86 H70 0.942 . S
C86 C85 1.361 . S
C86 C87 1.369 . S
C87 C86 1.369 . S
C87 C88 1.404 . S
C88 H71 0.940 . S
C88 C87 1.404 . S
C88 C89 1.389 . S
C89 H72 0.939 . S
C89 C84 1.400 . S
C89 C88 1.389 . S
C90 P64 1.819 . S
C90 C91 1.391 . S
C90 C95 1.391 . S
C91 H73 0.941 . S
C91 C90 1.391 . S
C91 C92 1.396 . S
C92 H76 0.939 . S
C92 C91 1.396 . S
C92 C93 1.397 . S
C93 C92 1.397 . S
C93 C94 1.385 . S
C94 H77 0.940 . S
C94 C93 1.385 . S
C94 C95 1.388 . S
C95 H74 0.939 . S
C95 C90 1.391 . S
C95 C94 1.388 . S
P96 O107 1.490 . S
P96 C110 1.812 . S
P96 C116 1.803 . S
P96 C122 1.819 . S
H97 C111 0.941 . S
H98 C112 0.939 . S
H99 C114 0.940 . S
H100 C115 0.940 . S
H101 C117 0.939 . S
H102 C118 0.942 . S
H103 C120 0.940 . S
H104 C121 0.939 . S
H105 C123 0.941 . S
H106 C127 0.939 . S
O107 P96 1.490 . S
H108 C124 0.939 . S
H109 C126 0.940 . S
C110 P96 1.812 . S
C110 C111 1.389 . S
C110 C115 1.391 . S
C111 H97 0.941 . S
C111 C110 1.389 . S
C111 C112 1.397 . S
C112 H98 0.939 . S
C112 C111 1.397 . S
C112 C113 1.378 . S
C113 C112 1.378 . S
C113 C114 1.378 . S
C114 H99 0.940 . S
C114 C113 1.378 . S
C114 C115 1.396 . S
C115 H100 0.940 . S
C115 C110 1.391 . S
C115 C114 1.396 . S
C116 P96 1.803 . S
C116 C117 1.378 . S
C116 C121 1.400 . S
C117 H101 0.939 . S
C117 C116 1.378 . S
C117 C118 1.361 . S
C118 H102 0.942 . S
C118 C117 1.361 . S
C118 C119 1.369 . S
C119 C118 1.369 . S
C119 C120 1.404 . S
C120 H103 0.940 . S
C120 C119 1.404 . S
C120 C121 1.389 . S
C121 H104 0.939 . S
C121 C116 1.400 . S
C121 C120 1.389 . S
C122 P96 1.819 . S
C122 C123 1.391 . S
C122 C127 1.391 . S
C123 H105 0.941 . S
C123 C122 1.391 . S
C123 C124 1.396 . S
C124 H108 0.939 . S
C124 C123 1.396 . S
C124 C125 1.397 . S
C125 C124 1.397 . S
C125 C126 1.385 . S
C126 H109 0.940 . S
C126 C125 1.385 . S
C126 C127 1.388 . S
C127 H106 0.939 . S
C127 C122 1.391 . S
C127 C126 1.388 . S
P128 O139 1.490 . S
P128 C142 1.812 . S
P128 C148 1.803 . S
P128 C154 1.819 . S
H129 C143 0.941 . S
H130 C144 0.933 1_554 S
H131 C146 0.940 . S
H132 C147 0.940 . S
H133 C149 0.939 . S
H134 C150 0.942 . S
H135 C152 0.940 . S
H136 C153 0.939 . S
H137 C155 0.941 . S
H138 C159 0.939 . S
O139 P128 1.490 . S
H140 C156 0.939 1_545 S
H141 C158 0.940 . S
C142 P128 1.812 . S
C142 C143 1.389 . S
C142 C147 1.391 . S
C143 H129 0.941 . S
C143 C142 1.389 . S
C143 C144 1.397 . S
C144 H130 0.933 1_556 S
C144 C143 1.397 . S
C144 C145 1.378 . S
C145 C144 1.378 . S
C145 C146 1.378 . S
C146 H131 0.940 . S
C146 C145 1.378 . S
C146 C147 1.396 . S
C147 H132 0.940 . S
C147 C142 1.391 . S
C147 C146 1.396 . S
C148 P128 1.803 . S
C148 C149 1.378 . S
C148 C153 1.400 . S
C149 H133 0.939 . S
C149 C148 1.378 . S
C149 C150 1.361 . S
C150 H134 0.942 . S
C150 C149 1.361 . S
C150 C151 1.369 . S
C151 C150 1.369 . S
C151 C152 1.404 . S
C152 H135 0.940 . S
C152 C151 1.404 . S
C152 C153 1.389 . S
C153 H136 0.939 . S
C153 C148 1.400 . S
C153 C152 1.389 . S
C154 P128 1.819 . S
C154 C155 1.391 . S
C154 C159 1.391 . S
C155 H137 0.941 . S
C155 C154 1.391 . S
C155 C156 1.396 . S
C156 H140 0.939 1_565 S
C156 C155 1.396 . S
C156 C157 1.397 . S
C157 C156 1.397 . S
C157 C158 1.385 . S
C158 H141 0.940 . S
C158 C157 1.385 . S
C158 C159 1.388 . S
C159 H138 0.939 . S
C159 C154 1.391 . S
C159 C158 1.388 . S
P160 O171 1.490 . S
P160 C174 1.812 . S
P160 C180 1.803 . S
P160 C186 1.819 . S
H161 C175 0.941 . S
H162 C176 0.939 . S
H163 C178 0.940 . S
H164 C179 0.940 . S
H165 C181 0.939 . S
H166 C182 0.942 . S
H167 C184 0.940 . S
H168 C185 0.939 . S
H169 C187 0.941 . S
H170 C191 0.939 . S
O171 P160 1.490 . S
H172 C188 0.939 . S
H173 C190 0.940 . S
C174 P160 1.812 . S
C174 C175 1.389 . S
C174 C179 1.391 . S
C175 H161 0.941 . S
C175 C174 1.389 . S
C175 C176 1.397 . S
C176 H162 0.939 . S
C176 C175 1.397 . S
C176 C177 1.378 . S
C177 C176 1.378 . S
C177 C178 1.378 . S
C178 H163 0.940 . S
C178 C177 1.378 . S
C178 C179 1.396 . S
C179 H164 0.940 . S
C179 C174 1.391 . S
C179 C178 1.396 . S
C180 P160 1.803 . S
C180 C181 1.378 . S
C180 C185 1.400 . S
C181 H165 0.939 . S
C181 C180 1.378 . S
C181 C182 1.361 . S
C182 H166 0.942 . S
C182 C181 1.361 . S
C182 C183 1.369 . S
C183 C182 1.369 . S
C183 C184 1.404 . S
C184 H167 0.940 . S
C184 C183 1.404 . S
C184 C185 1.389 . S
C185 H168 0.939 . S
C185 C180 1.400 . S
C185 C184 1.389 . S
C186 P160 1.819 . S
C186 C187 1.391 . S
C186 C191 1.391 . S
C187 H169 0.941 . S
C187 C186 1.391 . S
C187 C188 1.396 . S
C188 H172 0.939 . S
C188 C187 1.396 . S
C188 C189 1.397 . S
C189 C188 1.397 . S
C189 C190 1.385 . S
C190 H173 0.940 . S
C190 C189 1.385 . S
C190 C191 1.388 . S
C191 H170 0.939 . S
C191 C186 1.391 . S
C191 C190 1.388 . S
P192 O203 1.490 . S
P192 C206 1.812 . S
P192 C212 1.803 . S
P192 C218 1.819 . S
H193 C207 0.941 . S
H194 C208 0.939 . S
H195 C210 0.940 . S
H196 C211 0.940 . S
H197 C213 0.939 . S
H198 C214 0.942 . S
H199 C216 0.940 . S
H200 C217 0.939 . S
H201 C219 0.941 . S
H202 C223 0.939 . S
O203 P192 1.490 . S
H204 C220 0.939 . S
H205 C222 0.940 . S
C206 P192 1.812 . S
C206 C207 1.389 . S
C206 C211 1.391 . S
C207 H193 0.941 . S
C207 C206 1.389 . S
C207 C208 1.397 . S
C208 H194 0.939 . S
C208 C207 1.397 . S
C208 C209 1.378 . S
C209 C208 1.378 . S
C209 C210 1.378 . S
C210 H195 0.940 . S
C210 C209 1.378 . S
C210 C211 1.396 . S
C211 H196 0.940 . S
C211 C206 1.391 . S
C211 C210 1.396 . S
C212 P192 1.803 . S
C212 C213 1.378 . S
C212 C217 1.400 . S
C213 H197 0.939 . S
C213 C212 1.378 . S
C213 C214 1.361 . S
C214 H198 0.942 . S
C214 C213 1.361 . S
C214 C215 1.369 . S
C215 C214 1.369 . S
C215 C216 1.404 . S
C216 H199 0.940 . S
C216 C215 1.404 . S
C216 C217 1.389 . S
C217 H200 0.939 . S
C217 C212 1.400 . S
C217 C216 1.389 . S
C218 P192 1.819 . S
C218 C219 1.391 . S
C218 C223 1.391 . S
C219 H201 0.941 . S
C219 C218 1.391 . S
C219 C220 1.396 . S
C220 H204 0.939 . S
C220 C219 1.396 . S
C220 C221 1.397 . S
C221 C220 1.397 . S
C221 C222 1.385 . S
C222 H205 0.940 . S
C222 C221 1.385 . S
C222 C223 1.388 . S
C223 H202 0.939 . S
C223 C218 1.391 . S
C223 C222 1.388 . S
P224 O235 1.490 . S
P224 C238 1.812 . S
P224 C244 1.803 . S
P224 C250 1.819 . S
H225 C239 0.941 . S
H226 C240 0.939 . S
H227 C242 0.940 . S
H228 C243 0.940 . S
H229 C245 0.939 . S
H230 C246 0.942 . S
H231 C248 0.940 . S
H232 C249 0.939 . S
H233 C251 0.941 . S
H234 C255 0.939 . S
O235 P224 1.490 . S
H236 C252 0.939 . S
H237 C254 0.940 . S
C238 P224 1.812 . S
C238 C239 1.389 . S
C238 C243 1.391 . S
C239 H225 0.941 . S
C239 C238 1.389 . S
C239 C240 1.397 . S
C240 H226 0.939 . S
C240 C239 1.397 . S
C240 C241 1.378 . S
C241 C240 1.378 . S
C241 C242 1.378 . S
C242 H227 0.940 . S
C242 C241 1.378 . S
C242 C243 1.396 . S
C243 H228 0.940 . S
C243 C238 1.391 . S
C243 C242 1.396 . S
C244 P224 1.803 . S
C244 C245 1.378 . S
C244 C249 1.400 . S
C245 H229 0.939 . S
C245 C244 1.378 . S
C245 C246 1.361 . S
C246 H230 0.942 . S
C246 C245 1.361 . S
C246 C247 1.369 . S
C247 C246 1.369 . S
C247 C248 1.404 . S
C248 H231 0.940 . S
C248 C247 1.404 . S
C248 C249 1.389 . S
C249 H232 0.939 . S
C249 C244 1.400 . S
C249 C248 1.389 . S
C250 P224 1.819 . S
C250 C251 1.391 . S
C250 C255 1.391 . S
C251 H233 0.941 . S
C251 C250 1.391 . S
C251 C252 1.396 . S
C252 H236 0.939 . S
C252 C251 1.396 . S
C252 C253 1.397 . S
C253 C252 1.397 . S
C253 C254 1.385 . S
C254 H237 0.940 . S
C254 C253 1.385 . S
C254 C255 1.388 . S
C255 H234 0.939 . S
C255 C250 1.391 . S
C255 C254 1.388 . S
Co256 N261 2.057 . S
Co256 O273 2.021 . S
Co256 O276 2.062 . S
Co256 O280 2.117 1_545 S
Co256 O281 2.020 . S
C257 O277 1.259 1_655 S
C257 O280 1.258 . S
Co258 N267 2.057 . S
Co258 O274 2.117 1_565 S
Co258 O275 2.020 1_565 S
Co258 O277 2.021 . S
Co258 O282 2.062 . S
C259 N261 1.316 . S
C259 N262 1.347 . S
C259 H264 0.931 . S
C260 N261 1.375 . S
C260 C263 1.350 . S
C260 H265 0.930 1_545 S
N261 Co256 2.057 . S
N261 C259 1.316 . S
N261 C260 1.375 . S
N262 C259 1.347 . S
N262 C263 1.373 . S
C263 C260 1.350 . S
C263 N262 1.373 . S
C263 H284 0.931 . S
H264 C259 0.931 . S
H265 C260 0.930 1_565 S
C266 O273 1.259 1_455 S
C266 O274 1.258 . S
N267 Co258 2.057 . S
N267 C268 1.316 . S
N267 C269 1.375 1_565 S
C268 N267 1.316 . S
C268 N270 1.347 . S
C268 H279 0.931 . S
C269 N267 1.375 1_545 S
C269 C271 1.350 1_545 S
C269 H278 0.930 . S
N270 C268 1.347 . S
N270 C271 1.373 . S
C271 C269 1.350 1_565 S
C271 N270 1.373 . S
C271 H285 0.931 1_565 S
C272 O275 1.256 . S
C272 O276 1.255 1_455 S
O273 Co256 2.021 . S
O273 C266 1.259 1_655 S
O274 Co258 2.117 1_545 S
O274 C266 1.258 . S
O275 Co258 2.020 1_545 S
O275 C272 1.256 . S
O276 Co256 2.062 . S
O276 C272 1.255 1_655 S
O277 C257 1.259 1_455 S
O277 Co258 2.021 . S
H278 C269 0.930 . S
H279 C268 0.931 . S
O280 Co256 2.117 1_565 S
O280 C257 1.258 . S
O281 Co256 2.020 . S
O281 C283 1.256 1_545 S
O282 Co258 2.062 . S
O282 C283 1.255 1_455 S
C283 O281 1.256 1_565 S
C283 O282 1.255 1_655 S
H284 C263 0.931 . S
H285 C271 0.931 1_545 S
Co286 N291 2.057 1_545 S
Co286 O303 2.021 . S
Co286 O306 2.062 1_545 S
Co286 O310 2.117 1_546 S
Co286 O311 2.020 . S
C287 O307 1.259 . S
C287 O310 1.258 . S
Co288 N297 2.057 . S
Co288 O304 2.117 . S
Co288 O305 2.020 1_545 S
Co288 O307 2.021 1_545 S
Co288 O312 2.062 . S
C289 N291 1.316 . S
C289 N292 1.347 . S
C289 H294 0.931 1_565 S
C290 N291 1.375 . S
C290 C293 1.350 . S
C290 H295 0.930 . S
N291 Co286 2.057 1_565 S
N291 C289 1.316 . S
N291 C290 1.375 . S
N292 C289 1.347 . S
N292 C293 1.373 . S
C293 C290 1.350 . S
C293 N292 1.373 . S
C293 H314 0.931 . S
H294 C289 0.931 1_545 S
H295 C290 0.930 . S
C296 O303 1.259 . S
C296 O304 1.258 1_556 S
N297 Co288 2.057 . S
N297 C298 1.316 . S
N297 C299 1.375 . S
C298 N297 1.316 . S
C298 N300 1.347 . S
C298 H309 0.931 . S
C299 N297 1.375 . S
C299 C301 1.350 . S
C299 H308 0.930 . S
N300 C298 1.347 . S
N300 C301 1.373 . S
C301 C299 1.350 . S
C301 N300 1.373 . S
C301 H315 0.931 . S
C302 O305 1.256 1_556 S
C302 O306 1.255 . S
O303 Co286 2.021 . S
O303 C296 1.259 . S
O304 Co288 2.117 . S
O304 C296 1.258 1_554 S
O305 Co288 2.020 1_565 S
O305 C302 1.256 1_554 S
O306 Co286 2.062 1_565 S
O306 C302 1.255 . S
O307 C287 1.259 . S
O307 Co288 2.021 1_565 S
H308 C299 0.930 . S
H309 C298 0.931 . S
O310 Co286 2.117 1_564 S
O310 C287 1.258 . S
O311 Co286 2.020 . S
O311 C313 1.256 1_556 S
O312 Co288 2.062 . S
O312 C313 1.255 . S
C313 O311 1.256 1_554 S
C313 O312 1.255 . S
H314 C293 0.931 . S
H315 C301 0.931 . S
Co316 N321 2.057 . S
Co316 O333 2.021 . S
Co316 O336 2.062 . S
Co316 O340 2.117 . S
Co316 O341 2.020 . S
C317 O337 1.259 . S
C317 O340 1.258 . S
Co318 N327 2.057 . S
Co318 O334 2.117 . S
Co318 O335 2.020 . S
Co318 O337 2.021 . S
Co318 O342 2.062 . S
C319 N321 1.316 . S
C319 N322 1.347 . S
C319 H324 0.931 . S
C320 N321 1.375 . S
C320 C323 1.350 . S
C320 H325 0.930 . S
N321 Co316 2.057 . S
N321 C319 1.316 . S
N321 C320 1.375 . S
N322 C319 1.347 . S
N322 C323 1.373 . S
C323 C320 1.350 . S
C323 N322 1.373 . S
C323 H344 0.931 . S
H324 C319 0.931 . S
H325 C320 0.930 . S
C326 O333 1.259 . S
C326 O334 1.258 . S
N327 Co318 2.057 . S
N327 C328 1.316 . S
N327 C329 1.375 . S
C328 N327 1.316 . S
C328 N330 1.347 . S
C328 H339 0.931 . S
C329 N327 1.375 . S
C329 C331 1.350 . S
C329 H338 0.930 . S
N330 C328 1.347 . S
N330 C331 1.373 . S
C331 C329 1.350 . S
C331 N330 1.373 . S
C331 H345 0.931 . S
C332 O335 1.256 . S
C332 O336 1.255 . S
O333 Co316 2.021 . S
O333 C326 1.259 . S
O334 Co318 2.117 . S
O334 C326 1.258 . S
O335 Co318 2.020 . S
O335 C332 1.256 . S
O336 Co316 2.062 . S
O336 C332 1.255 . S
O337 C317 1.259 . S
O337 Co318 2.021 . S
H338 C329 0.930 . S
H339 C328 0.931 . S
O340 Co316 2.117 . S
O340 C317 1.258 . S
O341 Co316 2.020 . S
O341 C343 1.256 . S
O342 Co318 2.062 . S
O342 C343 1.255 . S
C343 O341 1.256 . S
C343 O342 1.255 . S
H344 C323 0.931 . S
H345 C331 0.931 . S
Co346 N351 2.057 . S
Co346 O363 2.021 . S
Co346 O366 2.062 . S
Co346 O370 2.117 1_455 S
Co346 O371 2.015 1_455 S
C347 O367 1.259 1_556 S
C347 O370 1.258 . S
Co348 N357 2.057 . S
Co348 O364 2.117 1_655 S
Co348 O365 2.020 1_655 S
Co348 O367 2.021 . S
Co348 O372 2.062 . S
C349 N351 1.316 . S
C349 N352 1.347 . S
C349 H354 0.931 . S
C350 N351 1.375 1_655 S
C350 C353 1.350 1_655 S
C350 H355 0.930 . S
N351 Co346 2.057 . S
N351 C349 1.316 . S
N351 C350 1.375 1_455 S
N352 C349 1.347 . S
N352 C353 1.373 . S
C353 C350 1.350 1_455 S
C353 N352 1.373 . S
C353 H374 0.931 1_455 S
H354 C349 0.931 . S
H355 C350 0.930 . S
C356 O363 1.259 1_554 S
C356 O364 1.258 . S
N357 Co348 2.057 . S
N357 C358 1.316 . S
N357 C359 1.375 1_655 S
C358 N357 1.316 . S
C358 N360 1.347 . S
C358 H369 0.931 . S
C359 N357 1.375 1_455 S
C359 C361 1.350 1_455 S
C359 H368 0.930 . S
N360 C358 1.347 . S
N360 C361 1.373 . S
C361 C359 1.350 1_655 S
C361 N360 1.373 . S
C361 H375 0.931 1_655 S
C362 O365 1.256 . S
C362 O366 1.255 1_554 S
O363 Co346 2.021 . S
O363 C356 1.259 1_556 S
O364 Co348 2.117 1_455 S
O364 C356 1.258 . S
O365 Co348 2.020 1_455 S
O365 C362 1.256 . S
O366 Co346 2.062 . S
O366 C362 1.255 1_556 S
O367 C347 1.259 1_554 S
O367 Co348 2.021 . S
H368 C359 0.930 . S
H369 C358 0.931 . S
O370 Co346 2.117 1_655 S
O370 C347 1.258 . S
O371 Co346 2.015 1_655 S
O371 C373 1.262 . S
O372 Co348 2.062 . S
O372 C373 1.255 1_554 S
C373 O371 1.262 . S
C373 O372 1.255 1_556 S
H374 C353 0.931 1_655 S
H375 C361 0.931 1_455 S
C376 C377 1.387 . S
C376 H380 0.950 1_545 S
C376 C385 1.390 . S
C377 C376 1.387 . S
C377 C379 1.387 . S
H378 C385 0.950 1_565 S
C379 C377 1.387 . S
C379 C381 1.390 . S
C379 H383 0.950 . S
H380 C376 0.950 1_565 S
C381 C379 1.390 . S
C381 C382 1.387 . S
C381 H384 0.950 . S
C382 C381 1.387 . S
C382 C385 1.387 . S
H383 C379 0.950 . S
H384 C381 0.950 . S
C385 C376 1.390 . S
C385 H378 0.950 1_545 S
C385 C382 1.387 . S
C386 C387 1.387 . S
C386 H390 0.950 . S
C386 C395 1.390 . S
C387 C386 1.387 . S
C387 C389 1.387 . S
H388 C395 0.950 . S
C389 C387 1.387 . S
C389 C391 1.390 . S
C389 H393 0.950 . S
H390 C386 0.950 . S
C391 C389 1.390 . S
C391 C392 1.387 . S
C391 H394 0.950 . S
C392 C391 1.387 . S
C392 C395 1.387 . S
H393 C389 0.950 . S
H394 C391 0.950 . S
C395 C386 1.390 . S
C395 H388 0.950 . S
C395 C392 1.387 . S
C396 C397 1.387 . S
C396 H400 0.950 . S
C396 C405 1.390 . S
C397 C396 1.387 . S
C397 C399 1.387 . S
H398 C405 0.950 . S
C399 C397 1.387 . S
C399 C401 1.390 . S
C399 H403 0.950 . S
H400 C396 0.950 . S
C401 C399 1.390 . S
C401 C402 1.387 . S
C401 H404 0.950 . S
C402 C401 1.387 . S
C402 C405 1.387 . S
H403 C399 0.950 . S
H404 C401 0.950 . S
C405 C396 1.390 . S
C405 H398 0.950 . S
C405 C402 1.387 . S
C406 C407 1.387 . S
C406 H410 0.950 . S
C406 C415 1.390 . S
C407 C406 1.387 . S
C407 C409 1.387 . S
H408 C415 0.950 . S
C409 C407 1.387 . S
C409 C411 1.390 . S
C409 H413 0.950 . S
H410 C406 0.950 . S
C411 C409 1.390 . S
C411 C412 1.387 . S
C411 H414 0.950 . S
C412 C411 1.387 . S
C412 C415 1.387 . S
H413 C409 0.950 . S
H414 C411 0.950 . S
C415 C406 1.390 . S
C415 H408 0.950 . S
C415 C412 1.387 . S
C416 C417 1.387 . S
C416 H420 0.950 . S
C416 C425 1.390 . S
C417 C416 1.387 . S
C417 C419 1.387 . S
H418 C425 0.950 1_565 S
C419 C417 1.387 . S
C419 C421 1.390 . S
C419 H423 0.950 . S
H420 C416 0.950 . S
C421 C419 1.390 . S
C421 C422 1.387 . S
C421 H424 0.950 . S
C422 C421 1.387 . S
C422 C425 1.387 . S
H423 C419 0.950 . S
H424 C421 0.950 . S
C425 C416 1.390 . S
C425 H418 0.950 1_545 S
C425 C422 1.387 . S
C426 C427 1.387 . S
C426 H430 0.950 . S
C426 C435 1.390 . S
C427 C426 1.387 . S
C427 C429 1.387 . S
H428 C435 0.950 . S
C429 C427 1.387 . S
C429 C431 1.390 . S
C429 H433 0.950 . S
H430 C426 0.950 . S
C431 C429 1.390 . S
C431 C432 1.387 . S
C431 H434 0.950 . S
C432 C431 1.387 . S
C432 C435 1.387 . S
H433 C429 0.950 . S
H434 C431 0.950 . S
C435 C426 1.390 . S
C435 H428 0.950 . S
C435 C432 1.387 . S
C436 C437 1.387 . S
C436 H440 0.950 . S
C436 C445 1.390 . S
C437 C436 1.387 . S
C437 C439 1.387 . S
H438 C445 0.950 . S
C439 C437 1.387 . S
C439 C441 1.390 . S
C439 H443 0.950 . S
H440 C436 0.950 . S
C441 C439 1.390 . S
C441 C442 1.387 . S
C441 H444 0.950 . S
C442 C441 1.387 . S
C442 C445 1.387 . S
H443 C439 0.950 . S
H444 C441 0.950 . S
C445 C436 1.390 . S
C445 H438 0.950 . S
C445 C442 1.387 . S
C446 C447 1.387 . S
C446 H450 0.950 . S
C446 C455 1.390 . S
C447 C446 1.387 . S
C447 C449 1.387 . S
H448 C455 0.950 . S
C449 C447 1.387 . S
C449 C451 1.390 . S
C449 H453 0.950 . S
H450 C446 0.950 . S
C451 C449 1.390 . S
C451 C452 1.387 . S
C451 H454 0.950 . S
C452 C451 1.387 . S
C452 C455 1.387 . S
H453 C449 0.950 . S
H454 C451 0.950 . S
C455 C446 1.390 . S
C455 H448 0.950 . S
C455 C452 1.387 . S
C456 C457 1.387 . S
C456 H460 0.950 . S
C456 C465 1.390 . S
C457 C456 1.387 . S
C457 C459 1.387 . S
H458 C465 0.950 . S
C459 C457 1.387 . S
C459 C461 1.390 . S
C459 H463 0.950 . S
H460 C456 0.950 . S
C461 C459 1.390 . S
C461 C462 1.387 . S
C461 H464 0.950 1_554 S
C462 C461 1.387 . S
C462 C465 1.387 . S
H463 C459 0.950 . S
H464 C461 0.950 1_556 S
C465 C456 1.390 . S
C465 H458 0.950 . S
C465 C462 1.387 . S
C466 C467 1.387 . S
C466 H470 0.950 . S
C466 C475 1.390 . S
C467 C466 1.387 . S
C467 C469 1.387 . S
H468 C475 0.950 . S
C469 C467 1.387 . S
C469 C471 1.392 . S
C469 H473 0.950 1_556 S
H470 C466 0.950 . S
C471 C469 1.392 . S
C471 C472 1.396 . S
C471 H474 0.939 1_556 S
C472 C471 1.396 . S
C472 C475 1.387 . S
H473 C469 0.950 1_554 S
H474 C471 0.939 1_554 S
C475 C466 1.390 . S
C475 H468 0.950 . S
C475 C472 1.387 . S
C476 C477 1.387 . S
C476 H480 0.950 . S
C476 C485 1.390 . S
C477 C476 1.387 . S
C477 C479 1.387 1_655 S
H478 C485 0.950 . S
C479 C477 1.387 1_455 S
C479 C481 1.390 . S
C479 H483 0.950 . S
H480 C476 0.950 . S
C481 C479 1.390 . S
C481 C482 1.387 1_455 S
C481 H484 0.950 . S
C482 C481 1.387 1_655 S
C482 C485 1.387 . S
H483 C479 0.950 . S
H484 C481 0.950 . S
C485 C476 1.390 . S
C485 H478 0.950 . S
C485 C482 1.387 . S
C486 C487 1.387 . S
C486 H490 0.950 . S
C486 C495 1.390 . S
C487 C486 1.387 . S
C487 C489 1.387 . S
H488 C495 0.950 . S
C489 C487 1.387 . S
C489 C491 1.390 . S
C489 H493 0.950 . S
H490 C486 0.950 . S
C491 C489 1.390 . S
C491 C492 1.387 . S
C491 H494 0.950 . S
C492 C491 1.387 . S
C492 C495 1.387 . S
H493 C489 0.950 . S
H494 C491 0.950 . S
C495 C486 1.390 . S
C495 H488 0.950 . S
C495 C492 1.387 . S
C496 C497 1.387 . S
C496 H500 0.950 . S
C496 C505 1.390 . S
C497 C496 1.387 . S
C497 C499 1.390 1_565 S
H498 C505 0.950 . S
C499 C497 1.390 1_545 S
C499 C501 1.390 . S
C499 H503 0.947 . S
H500 C496 0.950 . S
C501 C499 1.390 . S
C501 C502 1.387 1_545 S
C501 H504 0.950 . S
C502 C501 1.387 1_565 S
C502 C505 1.387 . S
H503 C499 0.947 . S
H504 C501 0.950 . S
C505 C496 1.390 . S
C505 H498 0.950 . S
C505 C502 1.387 . S
C506 C507 1.387 . S
C506 H510 0.950 . S
C506 C515 1.390 . S
C507 C506 1.387 . S
C507 C509 1.387 . S
H508 C515 0.950 . S
C509 C507 1.387 . S
C509 C511 1.390 . S
C509 H513 0.950 . S
H510 C506 0.950 . S
C511 C509 1.390 . S
C511 C512 1.387 . S
C511 H514 0.950 . S
C512 C511 1.387 . S
C512 C515 1.387 . S
H513 C509 0.950 . S
H514 C511 0.950 . S
C515 C506 1.390 . S
C515 H508 0.950 . S
C515 C512 1.387 . S
C516 C517 1.387 . S
C516 H520 0.950 . S
C516 C525 1.390 . S
C517 C516 1.387 . S
C517 C519 1.387 . S
H518 C525 0.950 . S
C519 C517 1.387 . S
C519 C521 1.390 . S
C519 H523 0.950 . S
H520 C516 0.950 . S
C521 C519 1.390 . S
C521 C522 1.387 . S
C521 H524 0.950 . S
C522 C521 1.387 . S
C522 C525 1.387 . S
H523 C519 0.950 . S
H524 C521 0.950 . S
C525 C516 1.390 . S
C525 H518 0.950 . S
C525 C522 1.387 . S
C526 C527 1.387 . S
C526 H530 0.950 1_455 S
C526 C535 1.390 . S
C527 C526 1.387 . S
C527 C529 1.387 . S
H528 C535 0.950 . S
C529 C527 1.387 . S
C529 C531 1.390 . S
C529 H533 0.950 . S
H530 C526 0.950 1_655 S
C531 C529 1.390 . S
C531 C532 1.387 . S
C531 H534 0.950 . S
C532 C531 1.387 . S
C532 C535 1.387 . S
H533 C529 0.950 . S
H534 C531 0.950 . S
C535 C526 1.390 . S
C535 H528 0.950 . S
C535 C532 1.387 . S
C536 C537 1.387 . S
C536 H540 0.950 . S
C536 C545 1.390 . S
C537 C536 1.387 . S
C537 C539 1.387 . S
H538 C545 0.950 1_554 S
C539 C537 1.387 . S
C539 C541 1.390 1_565 S
C539 H543 0.950 1_565 S
H540 C536 0.950 . S
C541 C539 1.390 1_545 S
C541 C542 1.387 1_545 S
C541 H544 0.950 . S
C542 C541 1.387 1_565 S
C542 C545 1.387 . S
H543 C539 0.950 1_545 S
H544 C541 0.950 . S
C545 C536 1.390 . S
C545 H538 0.950 1_556 S
C545 C542 1.387 . S
C546 C547 1.387 . S
C546 H550 0.950 . S
C546 C555 1.390 . S
C547 C546 1.387 . S
C547 C549 1.387 . S
H548 C555 0.950 . S
C549 C547 1.387 . S
C549 C551 1.390 . S
C549 H553 0.950 . S
H550 C546 0.950 . S
C551 C549 1.390 . S
C551 C552 1.387 . S
C551 H554 0.950 . S
C552 C551 1.387 . S
C552 C555 1.387 . S
H553 C549 0.950 . S
H554 C551 0.950 . S
C555 C546 1.390 . S
C555 H548 0.950 . S
C555 C552 1.387 . S
C556 C557 1.387 . S
C556 H560 0.950 . S
C556 C565 1.390 . S
C557 C556 1.387 . S
C557 C559 1.387 . S
H558 C565 0.950 . S
C559 C557 1.387 . S
C559 C561 1.390 . S
C559 H563 0.950 . S
H560 C556 0.950 . S
C561 C559 1.390 . S
C561 C562 1.387 . S
C561 H564 0.950 . S
C562 C561 1.387 . S
C562 C565 1.387 . S
H563 C559 0.950 . S
H564 C561 0.950 . S
C565 C556 1.390 . S
C565 H558 0.950 . S
C565 C562 1.387 . S
C566 C567 1.387 . S
C566 H570 0.950 . S
C566 C575 1.390 . S
C567 C566 1.387 . S
C567 C569 1.387 . S
H568 C575 0.950 . S
C569 C567 1.387 . S
C569 C571 1.390 . S
C569 H573 0.950 . S
H570 C566 0.950 . S
C571 C569 1.390 . S
C571 C572 1.387 . S
C571 H574 0.950 . S
C572 C571 1.387 . S
C572 C575 1.387 . S
H573 C569 0.950 . S
H574 C571 0.950 . S
C575 C566 1.390 . S
C575 H568 0.950 . S
C575 C572 1.387 . S
C576 C577 1.387 . S
C576 H580 0.950 . S
C576 C585 1.390 . S
C577 C576 1.387 . S
C577 C579 1.387 1_556 S
H578 C585 0.950 . S
C579 C577 1.387 1_554 S
C579 C581 1.390 . S
C579 H583 0.950 . S
H580 C576 0.950 . S
C581 C579 1.390 . S
C581 C582 1.387 1_554 S
C581 H584 0.950 . S
C582 C581 1.387 1_556 S
C582 C585 1.387 . S
H583 C579 0.950 . S
H584 C581 0.950 . S
C585 C576 1.390 . S
C585 H578 0.950 . S
C585 C582 1.387 . S
C586 C587 1.387 . S
C586 H590 0.950 . S
C586 C595 1.390 . S
C587 C586 1.387 . S
C587 C589 1.387 . S
H588 C595 0.966 . S
C589 C587 1.387 . S
C589 C591 1.390 . S
C589 H593 0.950 . S
H590 C586 0.950 . S
C591 C589 1.390 . S
C591 C592 1.387 . S
C591 H594 0.950 . S
C592 C591 1.387 . S
C592 C595 1.387 . S
H593 C589 0.950 . S
H594 C591 0.950 . S
C595 C586 1.390 . S
C595 H588 0.966 . S
C595 C592 1.387 . S
C596 C597 1.387 . S
C596 H600 0.950 1_455 S
C596 C605 1.390 . S
C597 C596 1.387 . S
C597 C599 1.387 . S
H598 C605 0.950 1_655 S
C599 C597 1.387 . S
C599 C601 1.390 . S
C599 H603 0.950 . S
H600 C596 0.950 1_655 S
C601 C599 1.390 . S
C601 C602 1.387 . S
C601 H604 0.950 . S
C602 C601 1.387 . S
C602 C605 1.387 . S
H603 C599 0.950 . S
H604 C601 0.950 . S
C605 C596 1.390 . S
C605 H598 0.950 1_455 S
C605 C602 1.387 . S
C606 C607 1.387 . S
C606 H610 0.950 . S
C606 C615 1.390 . S
C607 C606 1.387 . S
C607 C609 1.387 . S
H608 C615 0.950 . S
C609 C607 1.387 . S
C609 C611 1.390 . S
C609 H613 0.950 . S
H610 C606 0.950 . S
C611 C609 1.390 . S
C611 C612 1.387 . S
C611 H614 0.950 . S
C612 C611 1.387 . S
C612 C615 1.387 . S
H613 C609 0.950 . S
H614 C611 0.950 . S
C615 C606 1.390 . S
C615 H608 0.950 . S
C615 C612 1.387 . S
C377 C29 2.063 . S
C382 C272 2.195 . S
C387 C49 1.148 . S
C392 N292 1.132 . S
C402 C326 2.039 . S
C397 C93 1.920 . S
C407 C119 1.237 . S
C412 N360 1.237 . S
C422 C313 2.283 . S
C417 C17 2.172 . S
C432 N270 1.211 . S
C427 C61 1.312 . S
C442 C347 2.036 . S
C437 C81 1.931 . S
C452 N322 1.137 . S
C447 C125 1.029 . S
C457 C23 1.693 . S
C462 C362 1.800 . S
C472 C296 1.716 . S
C467 C87 1.609 . S
C477 C113 1.374 . S
C482 C257 1.498 . S
C487 C55 1.457 . S
C492 C343 1.443 . S
C502 C283 2.139 . S
C497 C157 2.131 . S
C507 C189 1.114 . S
C512 N300 1.177 . S
C517 C221 2.015 . S
C522 C317 2.011 . S
C527 C253 1.260 . S
C532 N352 1.291 . S
C537 C145 2.324 . S
C542 C302 2.320 . S
C552 N262 1.154 . S
C547 C183 1.125 . S
C562 C356 2.058 . S
C557 C209 2.046 . S
C572 N330 1.089 . S
C567 C247 1.002 . S
C577 C151 1.818 . S
C582 C373 1.815 . S
C592 C287 1.724 . S
C587 C215 1.733 . S
C602 C266 1.498 . S
C597 C241 1.366 . S
C607 C177 1.369 . S
C612 C332 1.480 . S
