# Generated by pormake.
# Topology zzz, (3,6)-cn, num edge types: 1
# Building blocks:
#     Node 0, Type 0, BuildingBlock: VETTIZ_charged_linker_0, # of connection points: 3
#     Node 1, Type 0, BuildingBlock: VETTIZ_charged_linker_0, # of connection points: 3
#     Node 2, Type 0, BuildingBlock: VETTIZ_charged_linker_0, # of connection points: 3
#     Node 3, Type 0, BuildingBlock: VETTIZ_charged_linker_0, # of connection points: 3
#     Node 4, Type 0, BuildingBlock: VETTIZ_charged_linker_0, # of connection points: 3
#     Node 5, Type 0, BuildingBlock: VETTIZ_charged_linker_0, # of connection points: 3
#     Node 6, Type 0, BuildingBlock: VETTIZ_charged_linker_0, # of connection points: 3
#     Node 7, Type 0, BuildingBlock: VETTIZ_charged_linker_0, # of connection points: 3
#     Node 8, Type 1, BuildingBlock: KUMBOL_clean_sbu_1, # of connection points: 6
#     Node 9, Type 1, BuildingBlock: KUMBOL_clean_sbu_1, # of connection points: 6
#     Node 10, Type 1, BuildingBlock: KUMBOL_clean_sbu_1, # of connection points: 6
#     Node 11, Type 1, BuildingBlock: KUMBOL_clean_sbu_1, # of connection points: 6
#     Edge 12, Type (0, 1), BuildingBlock: ZUJKAS_clean_linker_0, # of connection points: 2
#     Edge 13, Type (0, 1), BuildingBlock: ZUJKAS_clean_linker_0, # of connection points: 2
#     Edge 14, Type (0, 1), BuildingBlock: ZUJKAS_clean_linker_0, # of connection points: 2
#     Edge 15, Type (0, 1), BuildingBlock: ZUJKAS_clean_linker_0, # of connection points: 2
#     Edge 16, Type (0, 1), BuildingBlock: ZUJKAS_clean_linker_0, # of connection points: 2
#     Edge 17, Type (0, 1), BuildingBlock: ZUJKAS_clean_linker_0, # of connection points: 2
#     Edge 18, Type (0, 1), BuildingBlock: ZUJKAS_clean_linker_0, # of connection points: 2
#     Edge 19, Type (0, 1), BuildingBlock: ZUJKAS_clean_linker_0, # of connection points: 2
#     Edge 20, Type (0, 1), BuildingBlock: ZUJKAS_clean_linker_0, # of connection points: 2
#     Edge 21, Type (0, 1), BuildingBlock: ZUJKAS_clean_linker_0, # of connection points: 2
#     Edge 22, Type (0, 1), BuildingBlock: ZUJKAS_clean_linker_0, # of connection points: 2
#     Edge 23, Type (0, 1), BuildingBlock: ZUJKAS_clean_linker_0, # of connection points: 2
#     Edge 24, Type (0, 1), BuildingBlock: ZUJKAS_clean_linker_0, # of connection points: 2
#     Edge 25, Type (0, 1), BuildingBlock: ZUJKAS_clean_linker_0, # of connection points: 2
#     Edge 26, Type (0, 1), BuildingBlock: ZUJKAS_clean_linker_0, # of connection points: 2
#     Edge 27, Type (0, 1), BuildingBlock: ZUJKAS_clean_linker_0, # of connection points: 2
#     Edge 28, Type (0, 1), BuildingBlock: ZUJKAS_clean_linker_0, # of connection points: 2
#     Edge 29, Type (0, 1), BuildingBlock: ZUJKAS_clean_linker_0, # of connection points: 2
#     Edge 30, Type (0, 1), BuildingBlock: ZUJKAS_clean_linker_0, # of connection points: 2
#     Edge 31, Type (0, 1), BuildingBlock: ZUJKAS_clean_linker_0, # of connection points: 2
#     Edge 32, Type (0, 1), BuildingBlock: ZUJKAS_clean_linker_0, # of connection points: 2
#     Edge 33, Type (0, 1), BuildingBlock: ZUJKAS_clean_linker_0, # of connection points: 2
#     Edge 34, Type (0, 1), BuildingBlock: ZUJKAS_clean_linker_0, # of connection points: 2
#     Edge 35, Type (0, 1), BuildingBlock: ZUJKAS_clean_linker_0, # of connection points: 2
# Relax obj value: 0.294
# Max RMSD: 0.213
# Mean RMSD: 0.183
data_MOF--net-zzz--node1-KUMBOL_clean_sbu_1--node2-VETTIZ_charged_linker_0--edge1-ZUJKAS_clean_linker_0
_symmetry_space_group_name_H-M    P1
_symmetry_Int_Tables_number       1
_symmetry_cell_setting            triclinic
loop_
_symmetry_equiv_pos_as_xyz
'x, y, z'
_cell_length_a     69.967367
_cell_length_b     70.036306
_cell_length_c     25.967179
_cell_angle_alpha  90.002403
_cell_angle_beta   90.052295
_cell_angle_gamma 90.468911
loop_
_atom_site_label
_atom_site_type_symbol
_atom_site_fract_x
_atom_site_fract_y
_atom_site_fract_z
_atom_type_partial_charge
C0 C 0.79666 0.53753 0.24903 0.0
C1 C 0.8108 0.54731 0.27861 0.0
C2 C 0.81176 0.56739 0.27598 0.0
C3 C 0.78858 0.56733 0.20756 0.0
C4 C 0.78509 0.54817 0.21466 0.0
C5 C 0.76742 0.54208 0.18398 0.0
H6 H 0.70348 0.56879 0.99462 0.0
C7 C 0.77645 0.57448 0.16643 0.0
C8 C 0.76285 0.56039 0.15368 0.0
H9 H 0.70204 0.51554 0.07824 0.0
H10 H 0.72973 0.52599 0.12905 0.0
H11 H 0.71376 0.59764 0.08851 0.0
H12 H 0.74077 0.5688 0.96739 0.0
H13 H 0.76023 0.58282 0.98809 0.0
H14 H 0.73884 0.59397 0.96366 0.0
H15 H 0.71288 0.60242 0.02052 0.0
H16 H 0.73072 0.6135 0.06107 0.0
C17 C 0.75144 0.53694 0.22249 0.0
C18 C 0.7726 0.5254 0.14814 0.0
C19 C 0.8071 0.61996 0.04169 0.0
C20 C 0.801 0.62596 0.99269 0.0
C21 C 0.78124 0.62644 0.98227 0.0
C22 C 0.76817 0.61822 0.0168 0.0
C23 C 0.77507 0.60896 0.06095 0.0
C24 C 0.79394 0.61128 0.07506 0.0
C25 C 0.79851 0.60114 0.12463 0.0
C26 C 0.77964 0.59041 0.13394 0.0
C27 C 0.76641 0.59443 0.09505 0.0
C28 C 0.80318 0.61642 0.16603 0.0
C29 C 0.81536 0.58731 0.11598 0.0
C30 C 0.70896 0.55924 0.02384 0.0
C31 C 0.70053 0.54126 0.03182 0.0
C32 C 0.70816 0.52955 0.07118 0.0
C33 C 0.7242 0.53562 0.10068 0.0
C34 C 0.73265 0.55362 0.09097 0.0
C35 C 0.72488 0.56493 0.05271 0.0
C36 C 0.73597 0.58295 0.04371 0.0
C37 C 0.75109 0.58148 0.08527 0.0
C38 C 0.74937 0.56424 0.11332 0.0
C39 C 0.72267 0.60013 0.05363 0.0
C40 C 0.74439 0.58225 0.9881 0.0
H41 H 0.80052 0.59271 0.24253 0.0
H42 H 0.79468 0.52225 0.25288 0.0
H43 H 0.7852 0.52926 0.12408 0.0
H44 H 0.76079 0.52169 0.12169 0.0
H45 H 0.77619 0.51248 0.17087 0.0
H46 H 0.75022 0.54818 0.25256 0.0
H47 H 0.75452 0.52319 0.24203 0.0
H48 H 0.73729 0.53586 0.204 0.0
H49 H 0.82215 0.61988 0.05133 0.0
H50 H 0.77609 0.6316 0.94551 0.0
H51 H 0.75336 0.61828 1.00643 0.0
H52 H 0.80795 0.63017 0.14866 0.0
H53 H 0.81524 0.61202 0.19098 0.0
H54 H 0.79049 0.61953 0.19025 0.0
H55 H 0.81201 0.57708 0.0844 0.0
H56 H 0.81866 0.57898 0.15099 0.0
H57 H 0.82865 0.5952 0.10592 0.0
H58 H 0.82166 0.57533 0.30014 0.0
C59 C 0.80038 0.57742 0.24138 0.0
C60 C 0.92319 0.79293 0.93899 0.0
C61 C 0.91966 0.8126 0.93592 0.0
C62 C 0.92162 0.82381 0.98072 0.0
C63 C 0.93492 0.79678 0.02632 0.0
C64 C 0.93112 0.7854 0.9841 0.0
C65 C 0.9386 0.7655 0.99069 0.0
H66 H 1.00484 0.70784 0.08897 0.0
C67 C 0.94685 0.78568 0.0625 0.0
C68 C 0.94911 0.76738 0.04197 0.0
H69 H 0.96034 0.69539 0.97779 0.0
H70 H 0.94556 0.72526 0.99605 0.0
H71 H 0.01073 0.75568 0.0715 0.0
H72 H 0.97014 0.72784 0.17436 0.0
H73 H 0.98394 0.74601 0.20443 0.0
H74 H 0.99547 0.72468 0.18231 0.0
H75 H 0.01869 0.73984 0.1216 0.0
H76 H 0.01184 0.76387 0.13637 0.0
C77 C 0.95238 0.76136 0.94532 0.0
C78 C 0.92118 0.75163 0.99397 0.0
C79 C 0.97418 0.82011 0.21683 0.0
C80 C 0.9877 0.81589 0.25493 0.0
C81 C 0.99728 0.79817 0.2519 0.0
C82 C 0.99287 0.78481 0.2124 0.0
C83 C 0.97885 0.78923 0.17528 0.0
C84 C 0.97004 0.80684 0.17806 0.0
C85 C 0.95646 0.81021 0.13463 0.0
C86 C 0.95734 0.79128 0.10681 0.0
C87 C 0.97057 0.77877 0.12994 0.0
C88 C 0.96451 0.82697 0.10157 0.0
C89 C 0.93632 0.8137 0.15747 0.0
C90 C 0.992 0.71181 0.06844 0.0
C91 C 0.98401 0.69944 0.0306 0.0
C92 C 0.96689 0.70467 1.00633 0.0
C93 C 0.95837 0.72213 0.01662 0.0
C94 C 0.96705 0.73489 0.05107 0.0
C95 C 0.98286 0.72942 0.07906 0.0
C96 C 0.98767 0.74434 0.11998 0.0
C97 C 0.97314 0.76008 0.10817 0.0
C98 C 0.96166 0.75435 0.06623 0.0
C99 C 1.0084 0.75134 0.11223 0.0
C100 C 0.98423 0.73531 0.17334 0.0
H101 H 0.93103 0.82542 0.05808 0.0
H102 H 0.92138 0.78393 0.90539 0.0
H103 H 0.90741 0.75927 0.9987 0.0
H104 H 0.92212 0.74206 0.02795 0.0
H105 H 0.91983 0.7428 0.9586 0.0
H106 H 0.96264 0.77342 0.94007 0.0
H107 H 0.94436 0.75942 0.90874 0.0
H108 H 0.96113 0.74854 0.95081 0.0
H109 H 0.96704 0.83378 0.2165 0.0
H110 H 1.00795 0.79456 0.28041 0.0
H111 H 1.00059 0.77163 0.21187 0.0
H112 H 0.98008 0.82934 0.10811 0.0
H113 H 0.95724 0.8406 0.11068 0.0
H114 H 0.96337 0.82421 0.05972 0.0
H115 H 0.93349 0.80386 0.19029 0.0
H116 H 0.92469 0.8109 0.12961 0.0
H117 H 0.93501 0.82856 0.17198 0.0
H118 H 0.91894 0.83901 0.97958 0.0
C119 C 0.92909 0.81595 0.02603 0.0
C120 C 0.81564 0.99032 0.06668 0.0
C121 C 0.82504 0.98376 0.02178 0.0
C122 C 0.81577 0.97035 0.9901 0.0
C123 C 0.78831 0.96988 0.04664 0.0
C124 C 0.79723 0.98295 0.07874 0.0
C125 C 0.7847 0.98747 0.12503 0.0
H126 H 0.70227 0.96487 0.25785 0.0
C127 C 0.76973 0.96442 0.06917 0.0
C128 C 0.76748 0.97419 0.11622 0.0
H129 H 0.74213 1.00976 0.29764 0.0
H130 H 0.76195 1.00147 0.22327 0.0
H131 H 0.69833 0.97603 0.15248 0.0
H132 H 0.73295 0.93271 0.21951 0.0
H133 H 0.72291 0.9228 0.16325 0.0
H134 H 0.70741 0.93152 0.21342 0.0
H135 H 0.68938 0.95223 0.16076 0.0
H136 H 0.70096 0.95976 0.10202 0.0
C137 C 0.77904 1.00868 0.12201 0.0
C138 C 0.79561 0.98244 0.17472 0.0
C139 C 0.7226 0.92556 0.96293 0.0
C140 C 0.70396 0.919 0.97354 0.0
C141 C 0.69758 0.91861 0.02496 0.0
C142 C 0.70873 0.92658 0.06433 0.0
C143 C 0.72641 0.93509 0.05215 0.0
C144 C 0.7336 0.93345 1.0029 0.0
C145 C 0.75312 0.94245 0.9981 0.0
C146 C 0.75534 0.95169 0.05096 0.0
C147 C 0.73957 0.94747 0.082 0.0
C148 C 0.7525 0.95755 0.95446 0.0
C149 C 0.76775 0.9262 0.98928 0.0
C150 C 0.71547 0.97271 0.25142 0.0
C151 C 0.72081 0.98767 0.28426 0.0
C152 C 0.73775 0.99803 0.27303 0.0
C153 C 0.74918 0.99323 0.22987 0.0
C154 C 0.74336 0.97824 0.1969 0.0
C155 C 0.72656 0.96851 0.20822 0.0
C156 C 0.72095 0.95448 0.16752 0.0
C157 C 0.73725 0.95687 0.12987 0.0
C158 C 0.75078 0.97054 0.14698 0.0
C159 C 0.7014 0.96074 0.14451 0.0
C160 C 0.72088 0.93427 0.19193 0.0
H161 H 0.7914 0.95345 0.97577 0.0
H162 H 0.8225 1.00067 0.09172 0.0
H163 H 0.80126 0.96767 0.17241 0.0
H164 H 0.78641 0.98303 0.20914 0.0
H165 H 0.80788 0.99237 0.18066 0.0
H166 H 0.77446 0.01242 0.08226 0.0
H167 H 0.79131 0.01808 0.13244 0.0
H168 H 0.76687 0.01208 0.14722 0.0
H169 H 0.72793 0.92571 0.92379 0.0
H170 H 0.68328 0.91364 0.03417 0.0
H171 H 0.70265 0.92678 0.10218 0.0
H172 H 0.73936 0.96631 0.95761 0.0
H173 H 0.75242 0.95059 0.91601 0.0
H174 H 0.76456 0.96777 0.95571 0.0
H175 H 0.76173 0.91188 0.99889 0.0
H176 H 0.78049 0.92774 0.01447 0.0
H177 H 0.77247 0.92563 0.94848 0.0
H178 H 0.82265 0.96524 0.95539 0.0
C179 C 0.79759 0.96344 1.00214 0.0
C180 C 0.53539 0.73416 0.24269 0.0
C181 C 0.54379 0.71747 0.26381 0.0
C182 C 0.56166 0.71165 0.24524 0.0
C183 C 0.56201 0.73729 0.18293 0.0
C184 C 0.54508 0.74415 0.20263 0.0
C185 C 0.53967 0.7628 0.17604 0.0
H186 H 0.56202 0.82675 0.98175 0.0
C187 C 0.56804 0.7494 0.13935 0.0
C188 C 0.5554 0.76487 0.13509 0.0
H189 H 0.51655 0.83316 0.09233 0.0
H190 H 0.52499 0.80252 0.13142 0.0
H191 H 0.59455 0.81092 0.05741 0.0
H192 H 0.55268 0.78567 0.95734 0.0
H193 H 0.57124 0.76905 0.95857 0.0
H194 H 0.5757 0.79277 0.93378 0.0
H195 H 0.59491 0.81247 0.98836 0.0
H196 H 0.6059 0.79287 0.02163 0.0
C197 C 0.54068 0.77898 0.2162 0.0
C198 C 0.51972 0.76051 0.15156 0.0
C199 C 0.61648 0.72197 0.01639 0.0
C200 C 0.62108 0.72673 0.96532 0.0
C201 C 0.61686 0.7452 0.94731 0.0
C202 C 0.60643 0.75791 0.97795 0.0
C203 C 0.59975 0.7519 0.02653 0.0
C204 C 0.60542 0.73446 0.04562 0.0
C205 C 0.59579 0.72954 0.09559 0.0
C206 C 0.58255 0.74648 0.10208 0.0
C207 C 0.58508 0.75957 0.06199 0.0
C208 C 0.6114 0.72895 0.13815 0.0
C209 C 0.58458 0.71049 0.08773 0.0
C210 C 0.55406 0.8219 0.01512 0.0
C211 C 0.53896 0.83274 0.03461 0.0
C212 C 0.52844 0.82524 0.07672 0.0
C213 C 0.53344 0.80754 0.09963 0.0
C214 C 0.54901 0.79713 0.08001 0.0
C215 C 0.55876 0.80446 0.03789 0.0
C216 C 0.57409 0.79152 0.01896 0.0
C217 C 0.57312 0.77575 0.05859 0.0
C218 C 0.55828 0.77866 0.09462 0.0
C219 C 0.59343 0.80244 0.02128 0.0
C220 C 0.56832 0.78441 0.96431 0.0
H221 H 0.58412 0.71582 0.19294 0.0
H222 H 0.52186 0.73926 0.25716 0.0
H223 H 0.5191 0.7474 0.12741 0.0
H224 H 0.51613 0.77263 0.12629 0.0
H225 H 0.50853 0.75928 0.18174 0.0
H226 H 0.55432 0.77831 0.23815 0.0
H227 H 0.5287 0.77773 0.2441 0.0
H228 H 0.54025 0.79326 0.19843 0.0
H229 H 0.61925 0.7078 0.03116 0.0
H230 H 0.62037 0.74923 0.90815 0.0
H231 H 0.60303 0.77148 0.96134 0.0
H232 H 0.62456 0.73692 0.12677 0.0
H233 H 0.6157 0.71406 0.14683 0.0
H234 H 0.60669 0.73596 0.17422 0.0
H235 H 0.57778 0.71005 0.04897 0.0
H236 H 0.57267 0.70836 0.11483 0.0
H237 H 0.59421 0.69801 0.09075 0.0
H238 H 0.56846 0.69904 0.26081 0.0
C239 C 0.57076 0.72143 0.20552 0.0
C240 C 0.31783 0.48846 0.15718 0.0
C241 C 0.32846 0.48088 0.19897 0.0
C242 C 0.32057 0.46576 0.2276 0.0
C243 C 0.29182 0.46623 0.17595 0.0
C244 C 0.2995 0.4806 0.14577 0.0
C245 C 0.28591 0.48566 0.10196 0.0
H246 H 0.19875 0.46657 0.98659 0.0
C247 C 0.27259 0.46131 0.15667 0.0
C248 C 0.26888 0.47222 0.11221 0.0
H249 H 0.24034 0.50785 0.93357 0.0
H250 H 0.26133 0.49974 1.00591 0.0
H251 H 0.2273 0.433 0.01848 0.0
H252 H 0.2001 0.47935 0.09591 0.0
H253 H 0.2027 0.46211 0.14412 0.0
H254 H 0.1883 0.45676 0.08812 0.0
H255 H 0.20215 0.43414 0.03176 0.0
H256 H 0.21863 0.42395 0.07732 0.0
C257 C 0.29577 0.48113 0.0504 0.0
C258 C 0.2803 0.5068 0.10715 0.0
C259 C 0.22942 0.42109 0.27051 0.0
C260 C 0.2097 0.41711 0.26798 0.0
C261 C 0.20019 0.41959 0.22051 0.0
C262 C 0.20963 0.4278 0.17836 0.0
C263 C 0.22869 0.43396 0.18379 0.0
C264 C 0.23849 0.42983 0.22848 0.0
C265 C 0.25845 0.43791 0.22803 0.0
C266 C 0.25847 0.44881 0.17726 0.0
C267 C 0.24107 0.44636 0.15162 0.0
C268 C 0.27257 0.4209 0.22737 0.0
C269 C 0.26058 0.45144 0.27512 0.0
C270 C 0.21253 0.47368 0.98966 0.0
C271 C 0.21802 0.4875 0.95353 0.0
C272 C 0.23579 0.49696 0.96063 0.0
C273 C 0.24798 0.49219 1.00245 0.0
C274 C 0.2422 0.47802 0.03798 0.0
C275 C 0.22453 0.46932 0.031 0.0
C276 C 0.21947 0.45573 0.07321 0.0
C277 C 0.23733 0.4567 0.10585 0.0
C278 C 0.25092 0.46975 0.0858 0.0
C279 C 0.21658 0.43562 0.04928 0.0
C280 C 0.2017 0.4637 0.10182 0.0
H281 H 0.29748 0.44711 0.24045 0.0
H282 H 0.32368 0.49994 0.13399 0.0
H283 H 0.27565 0.50992 0.1472 0.0
H284 H 0.26828 0.51058 0.08172 0.0
H285 H 0.29263 0.5163 0.09796 0.0
H286 H 0.30178 0.46647 0.05115 0.0
H287 H 0.30768 0.49135 0.04297 0.0
H288 H 0.2858 0.48162 0.01755 0.0
H289 H 0.23728 0.41893 0.30595 0.0
H290 H 0.18502 0.41671 0.21694 0.0
H291 H 0.20133 0.43002 0.1442 0.0
H292 H 0.26558 0.4074 0.21439 0.0
H293 H 0.2786 0.41819 0.26625 0.0
H294 H 0.28445 0.42319 0.19974 0.0
H295 H 0.24744 0.46008 0.28032 0.0
H296 H 0.27225 0.46199 0.27126 0.0
H297 H 0.26291 0.44321 0.31111 0.0
H298 H 0.32837 0.45971 0.25972 0.0
C299 C 0.30252 0.45843 0.21633 0.0
C300 C 0.10883 0.23306 0.27555 0.0
C301 C 0.11258 0.21336 0.27352 0.0
C302 C 0.10991 0.2037 0.22635 0.0
C303 C 0.09555 0.2319 0.18932 0.0
C304 C 0.09995 0.24189 0.23357 0.0
C305 C 0.0919 0.26173 0.23288 0.0
H306 H 0.02847 0.32507 0.14111 0.0
C307 C 0.0829 0.24394 0.15744 0.0
C308 C 0.08063 0.26139 0.18263 0.0
H309 H 0.07029 0.33144 0.2629 0.0
H310 H 0.08297 0.30082 0.24355 0.0
H311 H 0.06131 0.30364 0.0562 0.0
H312 H 0.01911 0.27689 0.15644 0.0
H313 H 0.01778 0.26933 0.09118 0.0
H314 H 0.01203 0.29355 0.10736 0.0
H315 H 0.03629 0.30896 0.04988 0.0
H316 H 0.04585 0.2872 0.02441 0.0
C317 C 0.10894 0.27609 0.23097 0.0
C318 C 0.0787 0.26389 0.28053 0.0
C319 C 0.0542 0.21401 0.99874 0.0
C320 C 0.03997 0.21894 0.96341 0.0
C321 C 0.03041 0.2365 0.97038 0.0
C322 C 0.03551 0.24903 1.01132 0.0
C323 C 0.0501 0.24381 0.04607 0.0
C324 C 0.05887 0.22633 0.0392 0.0
C325 C 0.07288 0.22178 0.08065 0.0
C326 C 0.07213 0.23977 0.11258 0.0
C327 C 0.05879 0.25296 0.09295 0.0
C328 C 0.09279 0.21918 0.05548 0.0
C329 C 0.06524 0.204 0.11047 0.0
C330 C 0.0403 0.31965 0.16347 0.0
C331 C 0.04831 0.33069 0.20413 0.0
C332 C 0.06391 0.32335 0.23161 0.0
C333 C 0.07128 0.30545 0.22036 0.0
C334 C 0.06303 0.29433 0.18122 0.0
C335 C 0.04821 0.3015 0.15202 0.0
C336 C 0.04279 0.2876 0.10908 0.0
C337 C 0.05649 0.27096 0.11887 0.0
C338 C 0.06786 0.27514 0.16234 0.0
C339 C 0.04667 0.29732 0.05686 0.0
C340 C 0.02174 0.2815 0.11607 0.0
H341 H 0.09925 0.2045 0.15027 0.0
H342 H 0.11123 0.24106 0.31068 0.0
H343 H 0.06984 0.25078 0.28607 0.0
H344 H 0.06838 0.27561 0.27718 0.0
H345 H 0.08721 0.26618 0.31615 0.0
H346 H 0.12242 0.2692 0.21827 0.0
H347 H 0.11175 0.28251 0.26937 0.0
H348 H 0.10657 0.28766 0.20258 0.0
H349 H 0.06139 0.2004 0.99578 0.0
H350 H 0.0192 0.2406 0.94393 0.0
H351 H 0.02787 0.2622 0.0148 0.0
H352 H 0.09505 0.22974 0.024 0.0
H353 H 0.0942 0.20469 0.03858 0.0
H354 H 0.10473 0.22168 0.08262 0.0
H355 H 0.04957 0.2019 0.10514 0.0
H356 H 0.06699 0.20537 0.15266 0.0
H357 H 0.07229 0.19072 0.09732 0.0
H358 H 0.11266 0.18856 0.22308 0.0
C359 C 0.10162 0.21292 0.18417 0.0
C360 C 0.29621 0.03478 0.99007 0.0
C361 C 0.31318 0.04242 0.96805 0.0
C362 C 0.3196 0.06055 0.98365 0.0
C363 C 0.29371 0.06284 0.04495 0.0
C364 C 0.28648 0.04549 0.02825 0.0
C365 C 0.26788 0.04064 0.056 0.0
H366 H 0.20376 0.06738 0.24377 0.0
C367 C 0.28146 0.07015 0.08655 0.0
C368 C 0.26583 0.05758 0.09303 0.0
H369 H 0.19889 0.01744 0.14715 0.0
H370 H 0.22884 0.02615 0.10424 0.0
H371 H 0.24434 0.06176 0.27053 0.0
H372 H 0.2181 0.09727 0.15708 0.0
H373 H 0.236 0.11111 0.18734 0.0
H374 H 0.21681 0.10115 0.22534 0.0
H375 H 0.2365 0.08533 0.28602 0.0
H376 H 0.26048 0.0808 0.26374 0.0
C377 C 0.27039 0.02164 0.08512 0.0
C378 C 0.25161 0.03998 0.01595 0.0
C379 C 0.30809 0.12246 0.20059 0.0
C380 C 0.30222 0.12923 0.249 0.0
C381 C 0.28305 0.12637 0.26397 0.0
C382 C 0.27075 0.11489 0.2343 0.0
C383 C 0.27779 0.10598 0.18965 0.0
C384 C 0.29584 0.11061 0.17215 0.0
C385 C 0.30131 0.09928 0.12533 0.0
C386 C 0.2841 0.086 0.11999 0.0
C387 C 0.27044 0.09001 0.15763 0.0
C388 C 0.3199 0.08822 0.13802 0.0
C389 C 0.30306 0.11334 0.07926 0.0
C390 C 0.20877 0.05844 0.2126 0.0
C391 C 0.19861 0.04196 0.19826 0.0
C392 C 0.20633 0.03034 0.15889 0.0
C393 C 0.22366 0.03546 0.13385 0.0
C394 C 0.2335 0.05225 0.1487 0.0
C395 C 0.22588 0.06322 0.18789 0.0
C396 C 0.23827 0.07988 0.20204 0.0
C397 C 0.25427 0.0779 0.16342 0.0
C398 C 0.25176 0.06165 0.13177 0.0
C399 C 0.24523 0.07699 0.25844 0.0
C400 C 0.22677 0.09841 0.19292 0.0
H401 H 0.31597 0.08429 0.03193 0.0
H402 H 0.29077 0.02098 0.97798 0.0
H403 H 0.25226 0.05279 0.99064 0.0
H404 H 0.23734 0.03999 0.03391 0.0
H405 H 0.2528 0.02711 0.99118 0.0
H406 H 0.28384 0.02193 0.10801 0.0
H407 H 0.27114 1.00947 0.05775 0.0
H408 H 0.25868 0.01883 0.11254 0.0
H409 H 0.32272 0.1243 0.18789 0.0
H410 H 0.27806 0.1317 0.3007 0.0
H411 H 0.25665 0.11244 0.24912 0.0
H412 H 0.31928 0.08227 0.17772 0.0
H413 H 0.33265 0.09774 0.13566 0.0
H414 H 0.32237 0.07583 0.11289 0.0
H415 H 0.29561 0.12704 0.08673 0.0
H416 H 0.29619 0.10761 0.04391 0.0
H417 H 0.31823 0.1169 0.07082 0.0
H418 H 0.33244 0.06672 0.967 0.0
C419 C 0.30998 0.07076 0.02148 0.0
C420 C 0.49432 0.30257 0.99221 0.0
C421 C 0.48746 0.32067 0.97627 0.0
C422 C 0.47319 0.32951 1.00554 0.0
C423 C 0.47295 0.30326 0.06622 0.0
C424 C 0.4866 0.29396 0.03732 0.0
C425 C 0.49113 0.27453 0.06075 0.0
H426 H 0.47403 0.21224 0.26243 0.0
C427 C 0.46773 0.29124 0.11081 0.0
C428 C 0.47793 0.27398 0.10795 0.0
H429 H 0.5137 0.20285 0.13828 0.0
H430 H 0.50417 0.23315 0.09858 0.0
H431 H 0.48444 0.25164 0.2841 0.0
H432 H 0.43975 0.22794 0.19148 0.0
H433 H 0.4295 0.24751 0.22308 0.0
H434 H 0.43942 0.22823 0.26054 0.0
H435 H 0.46198 0.24459 0.31132 0.0
H436 H 0.46639 0.2686 0.28897 0.0
C437 C 0.51238 0.27434 0.07632 0.0
C438 C 0.48588 0.25885 0.02149 0.0
C439 C 0.42953 0.3206 0.25643 0.0
C440 C 0.42411 0.31347 0.30501 0.0
C441 C 0.42459 0.29361 0.31347 0.0
C442 C 0.43249 0.28139 0.27675 0.0
C443 C 0.44003 0.28908 0.231 0.0
C444 C 0.43744 0.30815 0.22006 0.0
C445 C 0.44574 0.31356 0.16857 0.0
C446 C 0.45539 0.29498 0.15301 0.0
C447 C 0.45217 0.28089 0.1901 0.0
C448 C 0.46044 0.32996 0.17704 0.0
C449 C 0.42891 0.31867 0.13213 0.0
C450 C 0.48073 0.21659 0.22662 0.0
C451 C 0.49479 0.20527 0.20405 0.0
C452 C 0.50285 0.2114 0.15678 0.0
C453 C 0.49738 0.229 0.13396 0.0
C454 C 0.48356 0.24046 0.1584 0.0
C455 C 0.47543 0.2338 0.20368 0.0
C456 C 0.46133 0.24728 0.2262 0.0
C457 C 0.46218 0.26341 0.18767 0.0
C458 C 0.47514 0.25971 0.14726 0.0
C459 C 0.46869 0.25333 0.28048 0.0
C460 C 0.44143 0.2373 0.22585 0.0
H461 H 0.4553 0.32875 0.07042 0.0
H462 H 0.50518 0.29535 0.97006 0.0
H463 H 0.47122 0.26111 1.00622 0.0
H464 H 0.48597 0.24446 0.03876 0.0
H465 H 0.49598 0.25905 0.98847 0.0
H466 H 0.51602 0.28723 0.09949 0.0
H467 H 0.52169 0.27429 0.04167 0.0
H468 H 0.51597 0.26185 0.1002 0.0
H469 H 0.42919 0.33577 0.24845 0.0
H470 H 0.42002 0.28767 0.35001 0.0
H471 H 0.43344 0.2666 0.28688 0.0
H472 H 0.46956 0.32695 0.21117 0.0
H473 H 0.45312 0.34375 0.18383 0.0
H474 H 0.47043 0.33191 0.14464 0.0
H475 H 0.41491 0.31338 0.14692 0.0
H476 H 0.43037 0.3119 0.09373 0.0
H477 H 0.42764 0.33437 0.12717 0.0
H478 H 0.46772 0.34332 0.99415 0.0
C479 C 0.46595 0.32097 0.04996 0.0
C480 C 0.06403 0.0322 0.7194 0.0
C481 C 0.05247 0.04328 0.80213 0.0
C482 C 0.05047 0.03171 0.75803 0.0
C483 C 0.06811 0.0559 0.80588 0.0
C484 C 0.08025 0.04416 0.72414 0.0
C485 C 0.08196 0.05637 0.76691 0.0
N486 N 0.06197 0.02006 0.67891 0.0
C487 C 0.07672 0.01763 0.64515 0.0
C488 C 0.09458 0.04297 0.68677 0.0
C489 C 0.09298 0.02935 0.64771 0.0
Gd490 Gd 0.99795 0.02738 0.57371 0.0
Gd491 Gd 0.03296 1.00252 0.67526 0.0
N492 N 0.03543 0.01953 0.75287 0.0
C493 C 0.03887 0.04153 0.84144 0.0
C494 C 0.02265 0.01701 0.79204 0.0
C495 C 0.02405 0.02813 0.83667 0.0
H496 H 0.01108 1.0068 0.78796 0.0
H497 H 0.01364 0.02645 0.86718 0.0
H498 H 0.02516 0.04537 0.47757 0.0
H499 H 0.07622 1.00649 0.61649 0.0
H500 H 0.03368 0.03689 0.38831 0.0
H501 H 0.03988 0.05019 0.87592 0.0
H502 H 0.06984 0.06504 0.83926 0.0
H503 H 0.95578 1.00703 0.59768 0.0
H504 H 0.10727 0.05191 0.68897 0.0
H505 H 0.10438 0.02768 0.61999 0.0
H506 H 0.98962 0.98645 0.34525 0.0
H507 H 0.09421 0.06581 0.77093 0.0
H508 H 0.94011 0.97247 0.46765 0.0
H509 H 0.93302 0.98476 0.55497 0.0
N510 N 0.97544 1.00688 0.53541 0.0
C511 C 0.97904 1.00121 0.48645 0.0
C512 C 0.95883 1.00174 0.55947 0.0
C513 C 0.95005 0.98225 0.48613 0.0
C514 C 0.94598 0.98917 0.53543 0.0
C515 C 0.96663 0.98845 0.46073 0.0
H516 H 0.96172 0.9727 0.39003 0.0
N517 N 1.00532 0.02245 0.48622 0.0
C518 C 0.99471 1.00898 0.46139 0.0
C519 C 0.01319 0.01381 0.38387 0.0
C520 C 0.99844 1.00416 0.40966 0.0
C521 C 0.01837 0.03318 0.45968 0.0
C522 C 0.02291 0.02868 0.40868 0.0
O523 O 0.0186 0.0307 0.69333 0.0
O524 O 0.02029 0.04509 0.61549 0.0
O525 O 0.98586 0.04958 0.52539 0.0
O526 O 0.97679 0.04677 0.60443 0.0
O527 O 1.00134 0.99633 0.68879 0.0
O528 O 0.98498 0.02165 0.65215 0.0
O529 O 0.99639 0.99486 0.58377 0.0
O530 O 0.02749 0.98742 0.59975 0.0
O531 O 0.0264 0.97766 0.72143 0.0
O532 O 0.05552 0.98299 0.69838 0.0
O533 O 0.02991 0.03295 0.56398 0.0
O534 O 0.04322 1.00501 0.59224 0.0
C535 C 0.02016 0.04628 0.66582 0.0
C536 C 0.98637 1.00768 0.68601 0.0
C537 C 0.98204 0.07783 0.5744 0.0
C538 C 1.00516 0.10423 0.57083 0.0
C539 C 0.97697 0.1063 0.62555 0.0
C540 C 0.97103 0.08819 0.60956 0.0
C541 C 0.99397 0.11423 0.6068 0.0
C542 C 0.99892 0.08604 0.55461 0.0
C543 C 0.9772 0.05767 0.56391 0.0
C544 C 0.98683 0.99053 0.38477 0.0
C545 C 0.97091 0.98272 0.41022 0.0
H546 H 0.01655 0.01051 0.34414 0.0
C547 C 0.01073 0.98288 0.5805 0.0
C548 C 0.04333 0.01993 0.56135 0.0
C549 C 0.04346 0.95136 0.68983 0.0
C550 C 0.02526 0.92374 0.65856 0.0
C551 C 0.05834 0.92832 0.63275 0.0
C552 C 0.05943 0.94509 0.6619 0.0
C553 C 0.04132 0.91772 0.63073 0.0
C554 C 0.02663 0.9403 0.68876 0.0
C555 C 0.04326 0.97035 0.71499 0.0
H556 H 0.96858 0.11408 0.65343 0.0
H557 H 0.95812 0.08202 0.6258 0.0
H558 H 0.9985 0.12801 0.62143 0.0
H559 H 1.00732 0.07808 0.52712 0.0
H560 H 0.07063 0.92368 0.61095 0.0
H561 H 0.07259 0.95334 0.66164 0.0
H562 H 0.04066 0.905 0.60706 0.0
H563 H 0.01437 0.94474 0.71112 0.0
C564 C 0.522 0.95773 0.53359 0.0
C565 C 0.50811 0.93427 0.59152 0.0
C566 C 0.50982 0.95325 0.57392 0.0
C567 C 0.51931 0.91998 0.5689 0.0
C568 C 0.53282 0.94335 0.50964 0.0
C569 C 0.53164 0.92451 0.52804 0.0
N570 N 0.52265 0.97601 0.51639 0.0
C571 C 0.53305 0.98079 0.47384 0.0
C572 C 0.54421 0.94831 0.4673 0.0
C573 C 0.54417 0.96708 0.44901 0.0
Gd574 Gd 0.52513 0.03867 0.65849 0.0
Gd575 Gd 0.50513 0.99836 0.56341 0.0
N576 N 0.49927 0.96742 0.59508 0.0
C577 C 0.49499 0.9302 0.63076 0.0
C578 C 0.48573 0.96338 0.63147 0.0
C579 C 0.48359 0.94478 0.65039 0.0
H580 H 0.47693 0.97456 0.64705 0.0
H581 H 0.4732 0.94172 0.68016 0.0
H582 H 0.57075 0.0416 0.61417 0.0
H583 H 0.53271 0.99521 0.45905 0.0
H584 H 0.58949 0.06174 0.55505 0.0
H585 H 0.4933 0.91581 0.6455 0.0
H586 H 0.51831 0.90534 0.58214 0.0
H587 H 0.48629 0.06357 0.68975 0.0
H588 H 0.55277 0.93769 0.44785 0.0
H589 H 0.55263 0.97097 0.41569 0.0
H590 H 0.54887 0.11522 0.52282 0.0
H591 H 0.53994 0.91329 0.51039 0.0
H592 H 0.48915 0.11759 0.61272 0.0
H593 H 0.4722 0.09502 0.67042 0.0
N594 N 0.51087 0.06834 0.64325 0.0
C595 C 0.52072 0.08075 0.61285 0.0
C596 C 0.49381 0.07336 0.66466 0.0
C597 C 0.49546 0.10388 0.62137 0.0
C598 C 0.48582 0.09115 0.65385 0.0
C599 C 0.51315 0.09879 0.60052 0.0
H600 H 0.51759 0.12482 0.55685 0.0
N601 N 0.54536 0.05787 0.60688 0.0
C602 C 0.53828 0.07521 0.59329 0.0
C603 C 0.56713 0.08242 0.54573 0.0
C604 C 0.54883 0.08778 0.5615 0.0
C605 C 0.56399 0.05369 0.59649 0.0
C606 C 0.57492 0.0655 0.56438 0.0
O607 O 0.51828 0.98638 0.63627 0.0
O608 O 0.52005 0.01026 0.69837 0.0
O609 O 0.54975 0.04586 0.70588 0.0
O610 O 0.52146 0.05228 0.73305 0.0
O611 O 0.4837 1.00808 0.62388 0.0
O612 O 0.49623 0.02886 0.68576 0.0
O613 O 0.5047 0.04497 0.59182 0.0
O614 O 0.51637 0.02588 0.52953 0.0
O615 O 0.47823 0.01038 0.53892 0.0
O616 O 0.49097 0.98662 0.49535 0.0
O617 O 0.54637 0.017 0.6256 0.0
O618 O 0.53357 0.01206 0.54576 0.0
C619 C 0.51989 0.99217 0.68432 0.0
C620 C 0.48223 0.01843 0.66627 0.0
C621 C 0.54296 0.04018 0.79381 0.0
C622 C 0.55523 0.01226 0.83945 0.0
C623 C 0.53649 0.03608 0.8849 0.0
C624 C 0.53472 0.04668 0.83969 0.0
C625 C 0.54656 0.01894 0.88485 0.0
C626 C 0.55326 0.02299 0.79398 0.0
C627 C 0.53934 0.05051 0.74533 0.0
C628 C 0.54107 0.10551 0.54776 0.0
C629 C 0.52331 0.11102 0.56735 0.0
H630 H 0.57568 0.09165 0.52128 0.0
C631 C 0.5094 0.04236 0.54341 0.0
C632 C 0.54836 0.01215 0.57679 0.0
C633 C 0.46098 0.99958 0.46324 0.0
C634 C 0.43587 0.01787 0.42125 0.0
C635 C 0.44143 0.98481 0.39693 0.0
C636 C 0.45629 0.98371 0.43266 0.0
C637 C 0.43129 1.00177 0.39107 0.0
C638 C 0.45069 0.01657 0.45758 0.0
C639 C 0.47708 0.99884 0.49947 0.0
H640 H 0.52989 0.04106 0.92004 0.0
H641 H 0.52658 0.05978 0.84026 0.0
H642 H 0.54742 0.01087 0.92033 0.0
H643 H 0.55981 0.018 0.75873 0.0
H644 H 0.43787 0.97254 0.37333 0.0
H645 H 0.46412 0.97049 0.43631 0.0
H646 H 0.4201 1.00238 0.36229 0.0
H647 H 0.4543 0.02883 0.48124 0.0
C648 C 0.46179 0.505 0.71149 0.0
C649 C 0.47315 0.49226 0.79283 0.0
C650 C 0.47626 0.50294 0.74756 0.0
C651 C 0.45553 0.48291 0.80015 0.0
C652 C 0.44378 0.49635 0.71987 0.0
C653 C 0.44089 0.48493 0.76372 0.0
N654 N 0.46496 0.51637 0.66986 0.0
C655 C 0.45022 0.52105 0.63784 0.0
C656 C 0.42904 0.49993 0.6848 0.0
C657 C 0.4322 0.51259 0.6441 0.0
Gd658 Gd 0.53167 0.50535 0.55964 0.0
Gd659 Gd 0.49623 0.52856 0.66129 0.0
N660 N 0.49323 0.51192 0.73914 0.0
C661 C 0.4877 0.49164 0.82985 0.0
C662 C 0.50697 0.51252 0.77656 0.0
C663 C 0.50456 0.50209 0.82205 0.0
H664 H 0.51989 0.52076 0.77076 0.0
H665 H 0.51566 0.50217 0.85109 0.0
H666 H 0.50506 0.49272 0.456 0.0
H667 H 0.45221 0.53151 0.60776 0.0
H668 H 0.49803 0.50528 0.36952 0.0
H669 H 0.48586 0.48359 0.86514 0.0
H670 H 0.45293 0.47444 0.83439 0.0
H671 H 0.57142 0.52729 0.59941 0.0
H672 H 0.41501 0.49355 0.68985 0.0
H673 H 0.42068 0.51606 0.61794 0.0
H674 H 0.54305 0.55669 0.34813 0.0
H675 H 0.42721 0.47802 0.77051 0.0
H676 H 0.58886 0.56718 0.48297 0.0
H677 H 0.59395 0.5522 0.5682 0.0
N678 N 0.55372 0.52868 0.53304 0.0
C679 C 0.55125 0.53594 0.48501 0.0
C680 C 0.56917 0.53382 0.56223 0.0
C681 C 0.57902 0.55625 0.4964 0.0
C682 C 0.58192 0.54785 0.54461 0.0
C683 C 0.56363 0.55021 0.46573 0.0
H684 H 0.56953 0.56903 0.40132 0.0
N685 N 0.52522 0.51458 0.47419 0.0
C686 C 0.5363 0.52897 0.45517 0.0
C687 C 0.51897 0.52792 0.37469 0.0
C688 C 0.53336 0.53615 0.40506 0.0
C689 C 0.51229 0.50549 0.44315 0.0
C690 C 0.50861 0.51229 0.39352 0.0
O691 O 0.50743 0.49881 0.67815 0.0
O692 O 0.51109 0.48483 0.59883 0.0
O693 O 0.54279 0.48472 0.505 0.0
O694 O 0.55631 0.48819 0.57919 0.0
O695 O 0.52815 0.53238 0.67674 0.0
O696 O 0.54262 0.50599 0.64139 0.0
O697 O 0.53012 0.5375 0.57519 0.0
O698 O 0.49849 0.54299 0.58402 0.0
O699 O 0.50639 0.55629 0.68614 0.0
O700 O 0.47721 0.54782 0.7019 0.0
O701 O 0.50019 0.49786 0.54686 0.0
O702 O 0.48407 0.52371 0.58068 0.0
C703 C 0.50783 0.48361 0.64859 0.0
C704 C 0.542 0.51974 0.67573 0.0
C705 C 0.55279 0.45702 0.54907 0.0
C706 C 0.53223 0.42905 0.56215 0.0
C707 C 0.56584 0.42818 0.58632 0.0
C708 C 0.56827 0.44701 0.56965 0.0
C709 C 0.54795 0.41926 0.58292 0.0
C710 C 0.53489 0.44792 0.54493 0.0
C711 C 0.55466 0.47757 0.53835 0.0
C712 C 0.54521 0.55088 0.38636 0.0
C713 C 0.56033 0.55787 0.41658 0.0
H714 H 0.51623 0.53304 0.33603 0.0
C715 C 0.51503 0.5478 0.56429 0.0
C716 C 0.48518 0.50916 0.54844 0.0
C717 C 0.49381 0.56547 0.76647 0.0
C718 C 0.51418 0.57993 0.83247 0.0
C719 C 0.48335 0.56629 0.8557 0.0
C720 C 0.48008 0.5612 0.80437 0.0
C721 C 0.50027 0.57567 0.86978 0.0
C722 C 0.51079 0.57488 0.78098 0.0
C723 C 0.49092 0.55994 0.71205 0.0
H724 H 0.57781 0.42057 0.60266 0.0
H725 H 0.5821 0.45391 0.57398 0.0
H726 H 0.5464 0.4048 0.5971 0.0
H727 H 0.52297 0.45565 0.52871 0.0
H728 H 0.47273 0.56294 0.88468 0.0
H729 H 0.46687 0.5539 0.79449 0.0
H730 H 0.50255 0.57948 0.90976 0.0
H731 H 0.52136 0.57852 0.75199 0.0
C732 C 0.03122 0.46483 0.70057 0.0
C733 C 0.04561 0.47506 0.78107 0.0
C734 C 0.03326 0.4783 0.73913 0.0
C735 C 0.05675 0.45848 0.78201 0.0
C736 C 0.04156 0.44764 0.70284 0.0
C737 C 0.05478 0.44482 0.74285 0.0
N738 N 0.01794 0.46784 0.66333 0.0
C739 C 0.01285 0.45337 0.63067 0.0
C740 C 0.03765 0.43349 0.6662 0.0
C741 C 0.02295 0.43622 0.63062 0.0
Gd742 Gd 0.02679 0.53405 0.56048 0.0
Gd743 Gd 1.00365 0.49827 0.66282 0.0
N744 N 0.02225 0.49411 0.73708 0.0
C745 C 0.04584 0.48827 0.82159 0.0
C746 C 0.02142 0.50638 0.77789 0.0
C747 C 0.03342 0.50381 0.82044 0.0
H748 H 0.01192 0.51846 0.77665 0.0
H749 H 0.03315 0.51384 0.85212 0.0
H750 H 0.04216 0.50751 0.46 0.0
H751 H 1.00093 0.45494 0.60464 0.0
H752 H 0.03128 0.49924 0.37245 0.0
H753 H 0.05514 0.48631 0.85452 0.0
H754 H 0.06648 0.4558 0.81364 0.0
H755 H 1.00587 0.57503 0.59132 0.0
H756 H 0.04528 0.42009 0.66653 0.0
H757 H 0.0192 0.42502 0.60359 0.0
H758 H 0.97974 0.54246 0.34088 0.0
H759 H 0.06301 0.4318 0.74492 0.0
H760 H 0.96817 0.59055 0.46823 0.0
H761 H 0.98224 0.59727 0.55394 0.0
N762 N 1.00461 0.55585 0.52799 0.0
C763 C 0.99789 0.55246 0.47976 0.0
C764 C 0.99972 0.57205 0.55396 0.0
C765 C 0.97851 0.58081 0.48443 0.0
C766 C 0.98641 0.58464 0.53286 0.0
C767 C 0.9844 0.56468 0.45695 0.0
H768 H 0.967 0.56973 0.3893 0.0
N769 N 0.01934 0.52669 0.4742 0.0
C770 C 1.00518 0.53715 0.45247 0.0
C771 C 1.00804 0.51924 0.37335 0.0
C772 C 0.99904 0.53362 0.40157 0.0
C773 C 0.02941 0.51405 0.44503 0.0
C774 C 0.02357 0.50969 0.39484 0.0
O775 O 0.03227 0.51269 0.67834 0.0
O776 O 0.04582 0.51228 0.59914 0.0
O777 O 0.04782 0.55486 0.58692 0.0
O778 O 0.04583 0.548 0.50615 0.0
O779 O 0.99977 0.5297 0.68236 0.0
O780 O 0.02316 0.54726 0.63946 0.0
O781 O 0.9946 0.53383 0.57688 0.0
O782 O 0.98811 0.50228 0.5876 0.0
O783 O 0.97733 0.50785 0.69605 0.0
O784 O 0.98461 0.47755 0.70145 0.0
O785 O 0.03316 0.50239 0.54856 0.0
O786 O 1.00605 0.4877 0.57993 0.0
C787 C 0.04752 0.51147 0.64934 0.0
C788 C 0.01052 0.54516 0.67675 0.0
C789 C 0.07636 0.55271 0.54068 0.0
C790 C 0.10232 0.52973 0.53409 0.0
C791 C 0.10916 0.56385 0.54093 0.0
C792 C 0.08963 0.56772 0.54297 0.0
C793 C 0.11551 0.54504 0.53612 0.0
C794 C 0.08273 0.53384 0.53721 0.0
C795 C 0.0558 0.55645 0.54191 0.0
C796 C 0.98478 0.54509 0.37971 0.0
C797 C 0.97755 0.56065 0.40726 0.0
H798 H 1.00373 0.51606 0.33418 0.0
C799 C 0.98334 0.51898 0.56912 0.0
C800 C 0.02077 0.4881 0.54822 0.0
C801 C 0.95445 0.48797 0.74052 0.0
C802 C 0.92634 0.50171 0.78142 0.0
C803 C 0.93003 0.46726 0.7771 0.0
C804 C 0.9475 0.46959 0.75163 0.0
C805 C 0.91941 0.48321 0.79175 0.0
C806 C 0.94383 0.50391 0.75576 0.0
C807 C 0.97244 0.49094 0.71215 0.0
H808 H 0.11943 0.57549 0.54226 0.0
H809 H 0.08489 0.58237 0.54603 0.0
H810 H 0.13071 0.54265 0.53265 0.0
H811 H 0.07227 0.52241 0.53647 0.0
H812 H 0.92467 0.45305 0.78543 0.0
H813 H 0.95545 0.45707 0.74023 0.0
H814 H 0.90596 0.48111 0.81165 0.0
H815 H 0.94902 0.51817 0.74694 0.0
H816 H 0.16975 0.06623 0.224 0.0
H817 H 0.14284 0.06033 0.28161 0.0
H818 H 0.15861 1.00111 0.29296 0.0
H819 H 0.18619 1.00714 0.23644 0.0
H820 H 0.11156 0.03794 0.27994 0.0
H821 H 0.15778 0.01599 0.44307 0.0
H822 H 0.16737 0.02642 0.38499 0.0
H823 H 0.16038 1.00165 0.38626 0.0
C824 C 0.16752 0.0519 0.23862 0.0
C825 C 0.1804 0.03723 0.22614 0.0
C826 C 0.15202 0.04853 0.27152 0.0
C827 C 0.14885 0.03038 0.29299 0.0
C828 C 0.16099 0.01538 0.27818 0.0
H829 H 0.06478 0.9912 0.52068 0.0
H830 H 0.08982 0.99343 0.45511 0.0
C831 C 0.17662 0.01877 0.24519 0.0
C832 C 0.13318 0.02759 0.33174 0.0
H833 H 0.12445 0.01468 0.45688 0.0
C834 C 0.11442 0.03282 0.31858 0.0
C835 C 0.13678 0.02101 0.38249 0.0
C836 C 0.15668 0.0161 0.40038 0.0
C837 C 0.09929 0.03158 0.35433 0.0
C838 C 0.10295 0.02514 0.40505 0.0
C839 C 0.12161 0.01965 0.41807 0.0
C840 C 0.08763 0.02398 0.44514 0.0
C841 C 0.07942 0.03693 0.33733 0.0
C842 C 0.07819 0.04047 0.46228 0.0
C843 C 0.06393 0.03926 0.50022 0.0
C844 C 0.0587 0.02152 0.52169 0.0
C845 C 0.06839 1.0051 0.50497 0.0
C846 C 0.08271 1.00633 0.46733 0.0
H847 H 0.07811 0.03727 0.2947 0.0
H848 H 0.06865 0.02671 0.35288 0.0
H849 H 0.076 0.05134 0.35226 0.0
H850 H 0.082 0.05433 0.4467 0.0
H851 H 0.05707 0.05224 0.51296 0.0
H852 H 0.50677 0.20265 0.30338 0.0
H853 H 0.51113 0.17392 0.35525 0.0
H854 H 0.49996 0.13897 0.22177 0.0
H855 H 0.49539 0.16797 0.16944 0.0
H856 H 0.47831 0.12801 0.30767 0.0
H857 H 0.55431 0.13554 0.36389 0.0
H858 H 0.54067 0.15656 0.37701 0.0
H859 H 0.54401 0.14893 0.31148 0.0
C860 C 0.50564 0.18885 0.28472 0.0
C861 C 0.50086 0.18763 0.2321 0.0
C862 C 0.5082 0.17238 0.3145 0.0
C863 C 0.50608 0.15414 0.29262 0.0
C864 C 0.50179 0.15283 0.23965 0.0
H865 H 0.53243 0.04867 0.46029 0.0
H866 H 0.53133 0.07505 0.39837 0.0
C867 C 0.49935 0.16941 0.20959 0.0
C868 C 0.50709 0.13669 0.32608 0.0
H869 H 0.53547 0.11361 0.41343 0.0
C870 C 0.4909 0.12477 0.33035 0.0
C871 C 0.52349 0.13229 0.35582 0.0
C872 C 0.54167 0.14389 0.35155 0.0
C873 C 0.49048 0.10901 0.36424 0.0
C874 C 0.50662 0.10504 0.39541 0.0
C875 C 0.52299 0.11666 0.39012 0.0
C876 C 0.50694 0.08879 0.4331 0.0
C877 C 0.47271 0.09669 0.36622 0.0
C878 C 0.49369 0.08761 0.47379 0.0
C879 C 0.49428 0.07246 0.50926 0.0
C880 C 0.50824 0.05821 0.50518 0.0
C881 C 0.52142 0.05934 0.46437 0.0
C882 C 0.52087 0.07451 0.42908 0.0
H883 H 0.4638 0.09839 0.33109 0.0
H884 H 0.47635 0.08138 0.37066 0.0
H885 H 0.464 0.10102 0.39986 0.0
H886 H 0.48302 0.09858 0.47865 0.0
H887 H 0.48389 0.07196 0.54013 0.0
H888 H 0.33765 0.51534 0.24296 0.0
H889 H 0.36612 0.52213 0.29581 0.0
H890 H 0.39014 0.46821 0.25056 0.0
H891 H 0.36182 0.46148 0.19797 0.0
H892 H 0.38613 0.47319 0.35883 0.0
H893 H 0.4235 0.53521 0.26988 0.0
H894 H 0.39811 0.53753 0.27851 0.0
H895 H 0.40711 0.52011 0.23424 0.0
C896 C 0.34942 0.5054 0.24237 0.0
C897 C 0.34763 0.48802 0.21558 0.0
C898 C 0.36565 0.50919 0.27297 0.0
C899 C 0.38036 0.49567 0.27733 0.0
C900 C 0.37907 0.47889 0.2479 0.0
H901 H 0.47585 0.47704 0.49203 0.0
H902 H 0.45121 0.4737 0.4255 0.0
C903 C 0.36296 0.47514 0.21734 0.0
C904 C 0.39592 0.49783 0.31665 0.0
H905 H 0.4346 0.52513 0.35152 0.0
C906 C 0.39678 0.48451 0.35708 0.0
C907 C 0.40973 0.51268 0.31484 0.0
C908 C 0.40976 0.52716 0.27191 0.0
C909 C 0.4108 0.48576 0.39599 0.0
C910 C 0.42487 0.50044 0.39387 0.0
C911 C 0.42396 0.51381 0.35337 0.0
C912 C 0.44035 0.50243 0.43372 0.0
C913 C 0.40993 0.47164 0.43987 0.0
C914 C 0.44311 0.51985 0.45969 0.0
C915 C 0.45751 0.52191 0.49697 0.0
C916 C 0.46958 0.50659 0.50954 0.0
C917 C 0.46686 0.48915 0.48346 0.0
C918 C 0.45258 0.48717 0.44568 0.0
H919 H 0.39536 0.46544 0.44432 0.0
H920 H 0.41984 0.45972 0.43189 0.0
H921 H 0.41416 0.47841 0.47687 0.0
H922 H 0.43405 0.53192 0.45127 0.0
H923 H 0.45932 0.53566 0.51545 0.0
H924 H 0.01327 0.33942 0.24494 0.0
H925 H 1.00553 0.36807 0.29547 0.0
H926 H 0.06051 0.39244 0.25721 0.0
H927 H 0.06792 0.36426 0.20603 0.0
H928 H 0.02381 0.37908 0.38039 0.0
H929 H 0.02873 0.43899 0.24282 0.0
H930 H 0.02728 0.41446 0.22185 0.0
H931 H 0.04988 0.42477 0.24104 0.0
C932 C 0.02327 0.35131 0.2454 0.0
C933 C 0.04107 0.34971 0.22074 0.0
C934 C 0.01898 0.3676 0.27491 0.0
C935 C 0.03234 0.38267 0.28013 0.0
C936 C 0.04968 0.38142 0.2531 0.0
H937 H 0.05284 0.47652 0.49533 0.0
H938 H 0.05504 0.45133 0.42974 0.0
C939 C 0.05393 0.36523 0.22367 0.0
C940 C 0.02923 0.3986 0.31789 0.0
H941 H 0.03195 0.44722 0.33253 0.0
C942 C 0.02532 0.39397 0.3696 0.0
C943 C 0.0313 0.41815 0.3044 0.0
C944 C 0.03433 0.4244 0.2494 0.0
C945 C 0.024 0.40814 0.40798 0.0
C946 C 0.02654 0.42759 0.39463 0.0
C947 C 0.03019 0.43231 0.34296 0.0
C948 C 0.02518 0.44319 0.43378 0.0
C949 C 0.02039 0.40219 0.46299 0.0
C950 C 1.00766 0.44719 0.45765 0.0
C951 C 1.00633 0.4617 0.49465 0.0
C952 C 0.02249 0.4726 0.50894 0.0
C953 C 0.04006 0.46857 0.48498 0.0
C954 C 0.04135 0.45413 0.44753 0.0
H955 H 0.0225 0.38663 0.46875 0.0
H956 H 0.02999 0.41013 0.48967 0.0
H957 H 1.00543 0.40562 0.47348 0.0
H958 H 0.99494 0.43914 0.44737 0.0
H959 H 0.99252 0.46449 0.51176 0.0
H960 H 0.8349 0.01743 0.97548 0.0
H961 H 0.86403 0.0236 0.92496 0.0
H962 H 0.88713 0.9699 0.9756 0.0
H963 H 0.85809 0.96381 0.02609 0.0
H964 H 0.91524 1.00017 0.96731 0.0
H965 H 0.87093 0.9925 0.79073 0.0
H966 H 0.86313 0.01043 0.83532 0.0
H967 H 0.86231 0.9857 0.85364 0.0
C968 C 0.84654 1.00736 0.97744 0.0
C969 C 0.84438 0.99031 1.00543 0.0
C970 C 0.86307 0.01073 0.94794 0.0
C971 C 0.87769 0.99705 0.94566 0.0
C972 C 0.8761 0.98066 0.97657 0.0
H973 H 0.98203 0.98042 0.76225 0.0
H974 H 0.9563 0.97775 0.82594 0.0
C975 C 0.85957 0.97726 1.00581 0.0
C976 C 0.89378 0.99894 0.908 0.0
H977 H 0.90355 0.99978 0.77888 0.0
C978 C 0.91269 1.00012 0.92611 0.0
C979 C 0.89054 0.99872 0.85412 0.0
C980 C 0.87067 0.99661 0.83205 0.0
C981 C 0.92834 1.0015 0.89196 0.0
C982 C 0.92509 1.00122 0.83802 0.0
C983 C 0.90615 1.0 0.82006 0.0
C984 C 0.94096 1.00262 0.79937 0.0
C985 C 0.94818 1.00375 0.91407 0.0
C986 C 0.94075 0.01707 0.76187 0.0
C987 C 0.95531 0.01849 0.72502 0.0
C988 C 0.97055 1.00545 0.72438 0.0
C989 C 0.97064 0.99079 0.76155 0.0
C990 C 0.95598 0.98935 0.79843 0.0
H991 H 0.94781 1.00903 0.95441 0.0
H992 H 0.95532 0.98966 0.91416 0.0
H993 H 0.95694 0.01378 0.89067 0.0
H994 H 0.92935 0.02743 0.76134 0.0
H995 H 0.95463 0.02999 0.69723 0.0
H996 H 0.50393 0.84735 1.0054 0.0
H997 H 0.49803 0.87606 0.95328 0.0
H998 H 0.55839 0.88892 0.95328 0.0
H999 H 0.56425 0.86073 1.00607 0.0
H1000 H 0.5374 0.92125 0.96436 0.0
H1001 H 0.50946 0.8787 0.79992 0.0
H1002 H 0.49666 0.87555 0.85929 0.0
H1003 H 0.52104 0.86784 0.85451 0.0
C1004 C 0.51588 0.8565 0.99508 0.0
C1005 C 0.53459 0.85154 1.00953 0.0
C1006 C 0.51253 0.87281 0.96467 0.0
C1007 C 0.52781 0.88452 0.94806 0.0
C1008 C 0.54633 0.88012 0.96494 0.0
H1009 H 0.53398 0.95592 0.67593 0.0
H1010 H 0.53546 0.93117 0.74206 0.0
C1011 C 0.54967 0.86389 0.99509 0.0
C1012 C 0.5249 0.90096 0.9118 0.0
H1013 H 0.51024 0.91205 0.78968 0.0
C1014 C 0.53136 0.91926 0.92623 0.0
C1015 C 0.51726 0.89844 0.86167 0.0
C1016 C 0.51084 0.87907 0.84254 0.0
C1017 C 0.53059 0.93496 0.89214 0.0
C1018 C 0.52294 0.93245 0.84183 0.0
C1019 C 0.5162 0.91416 0.82785 0.0
C1020 C 0.52248 0.94817 0.80216 0.0
C1021 C 0.53864 0.95385 0.91022 0.0
C1022 C 0.51471 0.96624 0.81301 0.0
C1023 C 0.51433 0.98065 0.77532 0.0
C1024 C 0.52112 0.97722 0.72519 0.0
C1025 C 0.52857 0.95909 0.71403 0.0
C1026 C 0.52938 0.94486 0.752 0.0
H1027 H 0.54887 0.95207 0.94258 0.0
H1028 H 0.54603 0.96142 0.8785 0.0
H1029 H 0.52682 0.96292 0.92428 0.0
H1030 H 0.5086 0.96918 0.85039 0.0
H1031 H 0.50824 0.99436 0.78511 0.0
H1032 H 0.69745 0.54635 0.92781 0.0
H1033 H 0.66981 0.54101 0.87278 0.0
H1034 H 0.63925 0.51594 1.00044 0.0
H1035 H 0.66682 0.52228 0.05698 0.0
H1036 H 0.65141 0.51135 0.84012 0.0
H1037 H 0.60064 0.5543 0.95485 0.0
H1038 H 0.62593 0.55408 0.96822 0.0
H1039 H 0.61083 0.53479 0.98996 0.0
C1040 C 0.68482 0.53984 0.94459 0.0
C1041 C 0.68431 0.53517 0.99739 0.0
C1042 C 0.66898 0.53665 0.91276 0.0
C1043 C 0.65208 0.5285 0.93234 0.0
C1044 C 0.65182 0.5228 0.98446 0.0
H1045 H 0.56353 0.49043 0.71278 0.0
H1046 H 0.58919 0.49177 0.77662 0.0
C1047 C 0.66774 0.52616 0.01668 0.0
C1048 C 0.63504 0.52616 0.89754 0.0
H1049 H 0.58798 0.53816 0.88232 0.0
C1050 C 0.63754 0.51718 0.84957 0.0
C1051 C 0.61692 0.53406 0.90898 0.0
C1052 C 0.6134 0.54502 0.95803 0.0
C1053 C 0.6227 0.51601 0.81293 0.0
C1054 C 0.60441 0.52338 0.82495 0.0
C1055 C 0.60185 0.53231 0.87299 0.0
C1056 C 0.58795 0.52238 0.78781 0.0
C1057 C 0.62714 0.50756 0.76085 0.0
C1058 C 0.57784 0.53895 0.77417 0.0
C1059 C 0.56274 0.53812 0.73845 0.0
C1060 C 0.55751 0.52073 0.71506 0.0
C1061 C 0.56739 0.50413 0.72936 0.0
C1062 C 0.5822 0.5049 0.76575 0.0
H1063 H 0.64268 0.50834 0.75219 0.0
H1064 H 0.62287 0.49227 0.76056 0.0
H1065 H 0.61931 0.51501 0.72965 0.0
H1066 H 0.58187 0.55263 0.79053 0.0
H1067 H 0.55545 0.55116 0.7282 0.0
H1068 H 0.01714 0.69542 0.97617 0.0
H1069 H 0.02545 0.66802 0.92158 0.0
H1070 H 0.97805 0.63606 0.98465 0.0
H1071 H 0.96991 0.66329 0.03938 0.0
H1072 H 0.00997 0.61297 0.96405 0.0
H1073 H 0.99149 0.65804 0.79543 0.0
H1074 H 0.0102 0.66744 0.83573 0.0
H1075 H 0.98634 0.66515 0.8607 0.0
C1076 C 1.00905 0.68224 0.98 0.0
C1077 C 0.99302 0.68143 0.01254 0.0
C1078 C 0.01357 0.66669 0.94808 0.0
C1079 C 1.00209 0.65007 0.94791 0.0
C1080 C 0.98709 0.64869 0.98367 0.0
H1081 H 0.98644 0.54716 0.76065 0.0
H1082 H 0.98503 0.57211 0.82645 0.0
C1083 C 0.98255 0.66421 0.01538 0.0
C1084 C 1.00451 0.63485 0.9079 0.0
H1085 H 1.00143 0.62667 0.77808 0.0
C1086 C 1.00817 0.61599 0.92338 0.0
C1087 C 1.00203 0.63866 0.85467 0.0
C1088 C 0.99713 0.65836 0.83543 0.0
C1089 C 0.00966 0.60099 0.88729 0.0
C1090 C 1.00699 0.60478 0.83411 0.0
C1091 C 1.00349 0.62367 0.81867 0.0
C1092 C 1.00773 0.58945 0.7938 0.0
C1093 C 0.01443 0.58127 0.9065 0.0
C1094 C 0.02047 0.59103 0.75216 0.0
C1095 C 0.02119 0.57684 0.71405 0.0
C1096 C 1.00909 0.56066 0.71628 0.0
C1097 C 0.99608 0.55928 0.75757 0.0
C1098 C 0.99537 0.5735 0.79567 0.0
H1099 H 0.02141 0.58177 0.94494 0.0
H1100 H 1.00105 0.57277 0.91026 0.0
H1101 H 0.02403 0.57377 0.87927 0.0
H1102 H 0.03006 0.60321 0.74939 0.0
H1103 H 0.03139 0.57853 0.68301 0.0
H1104 H 0.09551 0.2199 0.36606 0.0
H1105 H 0.09077 0.19715 0.43444 0.0
H1106 H 0.12882 0.15778 0.35953 0.0
H1107 H 0.13401 0.18093 0.29017 0.0
H1108 H 0.09388 0.14349 0.36757 0.0
H1109 H 0.11292 0.17177 0.558 0.0
H1110 H 0.1005 0.18995 0.52331 0.0
H1111 H 0.12313 0.18144 0.49953 0.0
C1112 C 0.10378 0.20691 0.36503 0.0
C1113 C 0.11494 0.20219 0.32186 0.0
C1114 C 0.10105 0.19381 0.40468 0.0
C1115 C 0.10946 0.17572 0.40238 0.0
C1116 C 0.1222 0.17168 0.36213 0.0
H1117 H 0.03834 0.08547 0.5437 0.0
H1118 H 0.06782 0.09932 0.51026 0.0
C1119 C 0.12503 0.18488 0.32232 0.0
C1120 C 0.10126 0.1602 0.43449 0.0
H1121 H 0.08252 0.15304 0.55419 0.0
C1122 C 0.09198 0.1451 0.40878 0.0
C1123 C 0.09883 0.16224 0.48825 0.0
C1124 C 0.10959 0.17715 0.51877 0.0
C1125 C 0.0786 0.13345 0.43414 0.0
C1126 C 0.07466 0.13689 0.4867 0.0
C1127 C 0.08537 0.15067 0.51364 0.0
C1128 C 0.05768 0.12839 0.51188 0.0
C1129 C 0.06755 0.11874 0.40342 0.0
C1130 C 0.04233 0.1402 0.52479 0.0
C1131 C 0.02538 0.13238 0.54405 0.0
C1132 C 0.02345 0.11254 0.55112 0.0
C1133 C 0.03908 0.10079 0.53873 0.0
C1134 C 0.05606 0.10866 0.51966 0.0
H1135 H 0.07073 0.11955 0.36156 0.0
H1136 H 0.07129 0.10423 0.41709 0.0
H1137 H 0.05194 0.12063 0.40895 0.0
H1138 H 0.04325 0.15547 0.51845 0.0
H1139 H 0.01364 0.14191 0.55191 0.0
H1140 H 0.33449 0.15175 0.23784 0.0
H1141 H 0.36444 0.14553 0.28344 0.0
H1142 H 0.33403 0.10993 0.39173 0.0
H1143 H 0.30432 0.11615 0.3473 0.0
H1144 H 0.36899 0.12401 0.43136 0.0
H1145 H 0.37613 0.09081 0.23677 0.0
H1146 H 0.3748 0.11638 0.23946 0.0
H1147 H 0.35435 0.10209 0.25691 0.0
C1148 C 0.33407 0.14341 0.27295 0.0
C1149 C 0.31717 0.13385 0.28776 0.0
C1150 C 0.3512 0.13984 0.29891 0.0
C1151 C 0.35151 0.12661 0.33951 0.0
C1152 C 0.33415 0.11997 0.35998 0.0
H1153 H 0.39753 0.02253 0.40747 0.0
H1154 H 0.3805 0.05224 0.39096 0.0
C1155 C 0.31705 0.12362 0.33439 0.0
C1156 C 0.369 0.11572 0.35149 0.0
H1157 H 0.39552 0.07934 0.30203 0.0
C1158 C 0.37526 0.11465 0.40284 0.0
C1159 C 0.37688 0.10323 0.31422 0.0
C1160 C 0.37019 0.103 0.25882 0.0
C1161 C 0.38838 0.10068 0.41836 0.0
C1162 C 0.39529 0.08762 0.3816 0.0
C1163 C 0.3901 0.0895 0.32985 0.0
C1164 C 0.40566 0.07025 0.3966 0.0
C1165 C 0.39381 0.09902 0.47434 0.0
C1166 C 0.42541 0.07069 0.4053 0.0
C1167 C 0.43525 0.0537 0.41416 0.0
C1168 C 0.42543 0.03605 0.41432 0.0
C1169 C 0.40554 0.03583 0.40675 0.0
C1170 C 0.39578 0.05278 0.39782 0.0
H1171 H 0.38774 0.11071 0.49799 0.0
H1172 H 0.38862 0.08512 0.48972 0.0
H1173 H 0.40961 0.09928 0.47828 0.0
H1174 H 0.43319 0.08409 0.40394 0.0
H1175 H 0.45061 0.05434 0.41935 0.0
H1176 H 0.43932 0.30957 0.40037 0.0
H1177 H 0.44362 0.3341 0.46444 0.0
H1178 H 0.40913 0.37263 0.37467 0.0
H1179 H 0.40515 0.34786 0.30868 0.0
H1180 H 0.44121 0.38809 0.3901 0.0
H1181 H 0.42056 0.36141 0.57977 0.0
H1182 H 0.43429 0.34286 0.55091 0.0
H1183 H 0.41199 0.35002 0.52165 0.0
C1184 C 0.43185 0.32292 0.39506 0.0
C1185 C 0.42194 0.32675 0.34917 0.0
C1186 C 0.43423 0.33703 0.43228 0.0
C1187 C 0.4265 0.35527 0.42512 0.0
C1188 C 0.41518 0.35866 0.38129 0.0
H1189 H 0.4966 0.44477 0.57566 0.0
H1190 H 0.46572 0.4304 0.55284 0.0
C1191 C 0.41297 0.34453 0.34351 0.0
C1192 C 0.43391 0.37131 0.45709 0.0
H1193 H 0.45231 0.37912 0.57716 0.0
C1194 C 0.44288 0.38661 0.43142 0.0
C1195 C 0.43598 0.36973 0.51122 0.0
C1196 C 0.42494 0.35518 0.54228 0.0
C1197 C 0.45579 0.39867 0.45712 0.0
C1198 C 0.45994 0.39519 0.50947 0.0
C1199 C 0.44936 0.38144 0.53663 0.0
C1200 C 0.47757 0.40302 0.53263 0.0
C1201 C 0.46639 0.41386 0.42708 0.0
C1202 C 0.49427 0.39216 0.52989 0.0
C1203 C 0.51195 0.40037 0.54176 0.0
C1204 C 0.51322 0.4196 0.55689 0.0
C1205 C 0.49621 0.43005 0.56299 0.0
C1206 C 0.47851 0.42184 0.5506 0.0
H1207 H 0.46073 0.41548 0.38735 0.0
H1208 H 0.46533 0.4278 0.44717 0.0
H1209 H 0.48177 0.41016 0.42475 0.0
H1210 H 0.49374 0.37761 0.51566 0.0
H1211 H 0.52467 0.39192 0.53623 0.0
H1212 H 0.17739 0.39497 0.2843 0.0
H1213 H 0.1534 0.40086 0.35097 0.0
H1214 H 0.19209 0.44005 0.42643 0.0
H1215 H 0.2158 0.43466 0.36044 0.0
H1216 H 0.16423 0.42109 0.4949 0.0
H1217 H 0.13315 0.45544 0.32 0.0
H1218 H 0.13703 0.43011 0.31874 0.0
H1219 H 0.15711 0.44624 0.32004 0.0
C1220 C 0.18102 0.40436 0.31603 0.0
C1221 C 0.19833 0.41476 0.31601 0.0
C1222 C 0.16734 0.40759 0.35428 0.0
C1223 C 0.17085 0.42123 0.39279 0.0
C1224 C 0.18909 0.42949 0.39693 0.0
H1225 H 0.13566 0.51284 0.56696 0.0
H1226 H 0.14818 0.48208 0.54075 0.0
C1227 C 0.20271 0.42632 0.35887 0.0
C1228 C 0.15496 0.43059 0.42013 0.0
H1229 H 0.12246 0.46566 0.39934 0.0
C1230 C 0.15465 0.43047 0.47418 0.0
C1231 C 0.14248 0.44279 0.39293 0.0
C1232 C 0.14239 0.44383 0.33477 0.0
C1233 C 0.14292 0.44305 0.50179 0.0
C1234 C 0.13174 0.45644 0.47445 0.0
C1235 C 0.13102 0.45546 0.42048 0.0
C1236 C 0.1227 0.47318 0.49938 0.0
C1237 C 0.14303 0.44216 0.55979 0.0
C1238 C 0.10421 0.47865 0.48485 0.0
C1239 C 0.09744 0.49674 0.4972 0.0
C1240 C 0.10878 0.5097 0.52574 0.0
C1241 C 0.1267 0.50358 0.54369 0.0
C1242 C 0.1337 0.48566 0.52994 0.0
H1243 H 0.14498 0.42724 0.57321 0.0
H1244 H 0.15527 0.4507 0.57468 0.0
H1245 H 0.12961 0.4478 0.57651 0.0
H1246 H 0.09544 0.46935 0.46109 0.0
H1247 H 0.08368 0.50079 0.4818 0.0
H1248 H 0.94131 0.80507 0.8521 0.0
H1249 H 0.94658 0.82571 0.77868 0.0
H1250 H 0.90104 0.86237 0.82935 0.0
H1251 H 0.89613 0.84189 0.90505 0.0
H1252 H 0.92984 0.84211 0.69746 0.0
H1253 H 0.94612 0.89705 0.84747 0.0
H1254 H 0.94066 0.8727 0.86436 0.0
H1255 H 0.92192 0.8885 0.84421 0.0
C1256 C 0.93189 0.81712 0.84692 0.0
C1257 C 0.9185 0.82203 0.8849 0.0
C1258 C 0.93496 0.82898 0.8047 0.0
C1259 C 0.92462 0.84593 0.7993 0.0
C1260 C 0.9096 0.84967 0.83369 0.0
H1261 H 0.98893 0.9376 0.65106 0.0
H1262 H 0.95918 0.92021 0.66861 0.0
C1263 C 0.90674 0.83794 0.87673 0.0
C1264 C 0.93209 0.86069 0.76344 0.0
H1265 H 0.95779 0.9023 0.76549 0.0
C1266 C 0.93553 0.85552 0.71193 0.0
C1267 C 0.93952 0.87826 0.78228 0.0
C1268 C 0.93702 0.88449 0.83759 0.0
C1269 C 0.94753 0.86662 0.6803 0.0
C1270 C 0.95612 0.88327 0.70068 0.0
C1271 C 0.95115 0.88944 0.75018 0.0
C1272 C 0.97272 0.8927 0.67604 0.0
C1273 C 0.95167 0.86005 0.62623 0.0
C1274 C 0.9901 0.88288 0.67308 0.0
C1275 C 1.00716 0.8928 0.66403 0.0
C1276 C 1.00708 0.91272 0.65799 0.0
C1277 C 0.98946 0.92229 0.65682 0.0
C1278 C 0.97243 0.91237 0.66613 0.0
H1279 H 0.94038 0.85017 0.61176 0.0
H1280 H 0.95287 0.87244 0.59973 0.0
H1281 H 0.96548 0.85236 0.62571 0.0
H1282 H 0.99068 0.86777 0.68179 0.0
H1283 H 0.02049 0.88506 0.66535 0.0
H1284 H 0.67773 0.89006 0.95873 0.0
H1285 H 0.64882 0.89202 0.90565 0.0
H1286 H 0.66845 0.9464 0.84651 0.0
H1287 H 0.69745 0.94379 0.89626 0.0
H1288 H 0.62353 0.91454 0.92455 0.0
H1289 H 0.63989 0.93167 0.72525 0.0
H1290 H 0.65789 0.92145 0.76654 0.0
H1291 H 0.65535 0.94709 0.7612 0.0
C1292 C 0.67618 0.90191 0.9323 0.0
C1293 C 0.68979 0.91678 0.93158 0.0
C1294 C 0.65964 0.90309 0.90209 0.0
C1295 C 0.65628 0.91934 0.87158 0.0
C1296 C 0.67072 0.93336 0.86792 0.0
H1297 H 0.57914 0.99967 0.91515 0.0
H1298 H 0.59883 0.97132 0.91519 0.0
C1299 C 0.68739 0.93195 0.89696 0.0
C1300 C 0.63665 0.924 0.85346 0.0
H1301 H 0.61511 0.95341 0.76681 0.0
C1302 C 0.62156 0.9224 0.88901 0.0
C1303 C 0.63333 0.93357 0.80625 0.0
C1304 C 0.64751 0.93326 0.76259 0.0
C1305 C 0.60453 0.93244 0.88199 0.0
C1306 C 0.60293 0.94507 0.83982 0.0
C1307 C 0.61667 0.94441 0.80052 0.0
C1308 C 0.58928 0.96116 0.84058 0.0
C1309 C 0.58877 0.93018 0.92112 0.0
C1310 C 0.57777 0.96535 0.79785 0.0
C1311 C 0.56659 0.98184 0.79746 0.0
C1312 C 0.56666 0.99442 0.83985 0.0
C1313 C 0.57823 0.9901 0.88247 0.0
C1314 C 0.58945 0.97375 0.88268 0.0
H1315 H 0.58889 0.91567 0.93842 0.0
H1316 H 0.59089 0.94064 0.95275 0.0
H1317 H 0.5746 0.93259 0.90324 0.0
H1318 H 0.5776 0.95601 0.7646 0.0
H1319 H 0.55797 0.98474 0.76388 0.0
H1320 H 0.60271 0.71979 0.8754 0.0
H1321 H 0.59671 0.68814 0.84119 0.0
H1322 H 0.64089 0.66529 0.93876 0.0
H1323 H 0.64659 0.69719 0.97472 0.0
H1324 H 0.61117 0.6554 0.80124 0.0
H1325 H 0.59285 0.64615 1.00892 0.0
H1326 H 0.60018 0.6689 0.98314 0.0
H1327 H 0.61753 0.6505 0.9939 0.0
C1328 C 0.61191 0.7083 0.88775 0.0
C1329 C 0.62471 0.71086 0.92895 0.0
C1330 C 0.60838 0.69008 0.86823 0.0
C1331 C 0.61776 0.67423 0.88918 0.0
C1332 C 0.63302 0.67727 0.92343 0.0
H1333 H 0.55076 0.5707 0.80715 0.0
H1334 H 0.57987 0.58968 0.82252 0.0
C1335 C 0.6364 0.69552 0.94359 0.0
C1336 C 0.60854 0.6552 0.88374 0.0
H1337 H 0.58003 0.6243 0.95125 0.0
C1338 C 0.60473 0.64824 0.83404 0.0
C1339 C 0.59996 0.64605 0.92677 0.0
C1340 C 0.60267 0.65327 0.98119 0.0
C1341 C 0.59145 0.63338 0.82585 0.0
C1342 C 0.58217 0.62497 0.86876 0.0
C1343 C 0.58718 0.63085 0.91857 0.0
C1344 C 0.56524 0.61231 0.86287 0.0
C1345 C 0.58637 0.62789 0.77129 0.0
C1346 C 0.54756 0.61828 0.88252 0.0
C1347 C 0.53107 0.60735 0.87445 0.0
C1348 C 0.53195 0.59031 0.84626 0.0
C1349 C 0.54975 0.58396 0.82828 0.0
C1350 C 0.56632 0.5948 0.83684 0.0
H1351 H 0.59253 0.63798 0.74263 0.0
H1352 H 0.592 0.61346 0.76295 0.0
H1353 H 0.57062 0.62742 0.76612 0.0
H1354 H 0.5464 0.63174 0.90282 0.0
H1355 H 0.51751 0.61262 0.88843 0.0
H1356 H 0.79716 0.60853 0.89997 0.0
H1357 H 0.82337 0.59612 0.84948 0.0
H1358 H 0.86339 0.6299 0.93793 0.0
H1359 H 0.83701 0.64222 0.98993 0.0
H1360 H 0.85578 0.60478 0.79374 0.0
H1361 H 0.87345 0.57584 0.98791 0.0
H1362 H 0.85194 0.58905 0.97589 0.0
H1363 H 0.8745 0.60134 0.98178 0.0
C1364 C 0.81138 0.61415 0.90723 0.0
C1365 C 0.81507 0.62596 0.95 0.0
C1366 C 0.82644 0.60691 0.87831 0.0
C1367 C 0.84536 0.6115 0.89139 0.0
C1368 C 0.84887 0.62573 0.92838 0.0
H1369 H 0.94004 0.53376 0.82883 0.0
H1370 H 0.92245 0.56269 0.85099 0.0
C1371 C 0.83379 0.63286 0.95782 0.0
C1372 C 0.86076 0.59865 0.87389 0.0
H1373 H 0.88975 0.56316 0.91781 0.0
C1374 C 0.86348 0.59591 0.82084 0.0
C1375 C 0.87057 0.58685 0.90942 0.0
C1376 C 0.86743 0.58823 0.96689 0.0
C1377 C 0.87535 0.58135 0.80238 0.0
C1378 C 0.88459 0.56925 0.83794 0.0
C1379 C 0.8826 0.57253 0.89083 0.0
C1380 C 0.89539 0.55229 0.8215 0.0
C1381 C 0.87762 0.57872 0.74509 0.0
C1382 C 0.88586 0.53676 0.79851 0.0
C1383 C 0.89582 0.52016 0.78621 0.0
C1384 C 0.91547 0.51887 0.79662 0.0
C1385 C 0.92493 0.53443 0.81993 0.0
C1386 C 0.91494 0.55096 0.83251 0.0
H1387 H 0.87355 0.59177 0.72349 0.0
H1388 H 0.89258 0.57501 0.73531 0.0
H1389 H 0.86822 0.56681 0.73213 0.0
H1390 H 0.87066 0.53741 0.79074 0.0
H1391 H 0.88822 0.50844 0.76795 0.0
H1392 H 0.06508 0.20219 0.89782 0.0
H1393 H 0.05952 0.17481 0.84136 0.0
H1394 H 0.99946 0.17598 0.87787 0.0
H1395 H 1.00502 0.20361 0.9348 0.0
H1396 H 0.04592 0.14002 0.87647 0.0
H1397 H 0.99922 0.16749 0.72054 0.0
H1398 H 0.01302 0.18309 0.76201 0.0
H1399 H 0.99126 0.17234 0.78502 0.0
C1400 C 0.05059 0.19691 0.89299 0.0
C1401 C 0.03549 0.20512 0.92094 0.0
C1402 C 0.04744 0.18117 0.86075 0.0
C1403 C 0.02908 0.17319 0.85512 0.0
C1404 C 0.01374 0.18195 0.88086 0.0
H1405 H 1.00577 0.0553 0.76058 0.0
H1406 H 1.00734 0.08604 0.80547 0.0
C1407 C 0.0169 0.19782 0.91333 0.0
C1408 C 0.02659 0.15482 0.82609 0.0
H1409 H 1.00469 0.13408 0.72174 0.0
C1410 C 0.03686 0.13877 0.8427 0.0
C1411 C 0.01493 0.1531 0.78164 0.0
C1412 C 1.00407 0.16993 0.76079 0.0
C1413 C 0.03573 0.12117 0.81656 0.0
C1414 C 0.02387 0.11937 0.77262 0.0
C1415 C 0.01369 0.13541 0.75558 0.0
C1416 C 0.0221 0.1009 0.74404 0.0
C1417 C 0.04757 0.10467 0.83543 0.0
C1418 C 0.0297 0.09894 0.69425 0.0
C1419 C 0.02901 0.08124 0.66878 0.0
C1420 C 0.02049 0.06521 0.6921 0.0
C1421 C 0.01261 0.0673 0.74161 0.0
C1422 C 0.01342 0.08492 0.76727 0.0
H1423 H 0.05852 0.10926 0.86396 0.0
H1424 H 0.0381 0.09391 0.854 0.0
H1425 H 0.05486 0.09763 0.80264 0.0
H1426 H 0.03657 0.11099 0.67555 0.0
H1427 H 0.03557 0.07993 0.63139 0.0
H1428 H 0.34056 0.01592 0.98689 0.0
H1429 H 0.36751 1.00828 0.93012 0.0
H1430 H 0.34115 0.04007 0.80735 0.0
H1431 H 0.31444 0.04799 0.86445 0.0
H1432 H 0.37407 0.99182 0.83264 0.0
H1433 H 0.39102 0.06935 0.83183 0.0
H1434 H 0.37346 0.05898 0.87446 0.0
H1435 H 0.36756 0.06356 0.8082 0.0
C1436 C 0.34014 0.02055 0.9471 0.0
C1437 C 0.32521 0.03224 0.92981 0.0
C1438 C 0.35567 0.01636 0.91477 0.0
C1439 C 0.35665 0.02394 0.86464 0.0
C1440 C 0.34096 0.03433 0.84607 0.0
H1441 H 0.44793 1.00163 0.63787 0.0
H1442 H 0.41749 1.00207 0.68438 0.0
C1443 C 0.32551 0.03858 0.87844 0.0
C1444 C 0.37472 0.02253 0.83386 0.0
H1445 H 0.4103 0.04974 0.7798 0.0
C1446 C 0.38196 1.00448 0.82093 0.0
C1447 C 0.38532 0.03902 0.8193 0.0
C1448 C 0.37909 0.05882 0.83451 0.0
C1449 C 0.39928 1.0025 0.79353 0.0
C1450 C 0.40962 0.01903 0.77791 0.0
C1451 C 0.4024 0.03704 0.7912 0.0
C1452 C 0.4283 0.01811 0.74961 0.0
C1453 C 0.40662 0.9827 0.78291 0.0
C1454 C 0.44459 0.02729 0.76984 0.0
C1455 C 0.462 0.02723 0.74309 0.0
C1456 C 0.46366 0.01802 0.69506 0.0
C1457 C 0.44733 1.00876 0.67483 0.0
C1458 C 0.42987 1.00889 0.70165 0.0
H1459 H 0.39995 0.97192 0.80879 0.0
H1460 H 0.40309 0.9787 0.74265 0.0
H1461 H 0.42238 0.98212 0.78761 0.0
H1462 H 0.44386 0.03457 0.80659 0.0
H1463 H 0.47415 0.03451 0.76021 0.0
H1464 H 0.52068 0.34118 0.96664 0.0
H1465 H 0.52714 0.36655 0.90333 0.0
H1466 H 0.47554 0.35131 0.82188 0.0
H1467 H 0.46914 0.32599 0.88503 0.0
H1468 H 0.50661 0.36279 0.75492 0.0
H1469 H 0.4936 0.41492 0.91214 0.0
H1470 H 0.5121 0.39788 0.92457 0.0
H1471 H 0.48775 0.38988 0.91832 0.0
C1472 C 0.51117 0.34273 0.93398 0.0
C1473 C 0.4946 0.33132 0.93027 0.0
C1474 C 0.5147 0.35744 0.89819 0.0
C1475 C 0.50167 0.36112 0.85806 0.0
C1476 C 0.48583 0.34883 0.85229 0.0
H1477 H 0.47737 0.46732 0.69771 0.0
H1478 H 0.47645 0.43734 0.74649 0.0
C1479 C 0.48226 0.33422 0.88818 0.0
C1480 C 0.50346 0.37871 0.82527 0.0
H1481 H 0.50157 0.42756 0.83082 0.0
C1482 C 0.50566 0.37695 0.77158 0.0
C1483 C 0.50183 0.39727 0.84662 0.0
C1484 C 0.49853 0.40023 0.90348 0.0
C1485 C 0.50649 0.39315 0.73911 0.0
C1486 C 0.50512 0.41167 0.76069 0.0
C1487 C 0.50278 0.41341 0.81421 0.0
C1488 C 0.50553 0.42945 0.72853 0.0
C1489 C 0.50829 0.39039 0.68172 0.0
C1490 C 0.52216 0.43517 0.70205 0.0
C1491 C 0.52278 0.45258 0.67501 0.0
C1492 C 0.50674 0.46452 0.67347 0.0
C1493 C 0.49003 0.4586 0.69899 0.0
C1494 C 0.48946 0.44136 0.72651 0.0
H1495 H 0.50579 0.37531 0.67015 0.0
H1496 H 0.49799 0.3996 0.66093 0.0
H1497 H 0.5229 0.39464 0.66937 0.0
H1498 H 0.53486 0.42645 0.70352 0.0
H1499 H 0.53597 0.45698 0.65658 0.0
H1500 H 0.20059 0.46195 0.88945 0.0
H1501 H 0.17415 0.46747 0.82996 0.0
H1502 H 0.17755 0.52786 0.86105 0.0
H1503 H 0.2043 0.52235 0.92075 0.0
H1504 H 0.13982 0.48149 0.85811 0.0
H1505 H 0.17073 0.52734 0.70472 0.0
H1506 H 0.18537 0.5141 0.74931 0.0
H1507 H 0.17458 0.53613 0.76894 0.0
C1508 C 0.19599 0.47648 0.88286 0.0
C1509 C 0.2046 0.49171 0.91001 0.0
C1510 C 0.1808 0.47962 0.84883 0.0
C1511 C 0.17373 0.49809 0.84063 0.0
C1512 C 0.18286 0.51349 0.86584 0.0
H1513 H 0.05754 0.52369 0.74539 0.0
H1514 H 0.08825 0.52055 0.78925 0.0
C1515 C 0.1982 0.51035 0.89999 0.0
C1516 C 0.15583 0.50071 0.80954 0.0
H1517 H 0.13687 0.52338 0.70437 0.0
C1518 C 0.13926 0.49064 0.82446 0.0
C1519 C 0.15498 0.51246 0.76512 0.0
C1520 C 0.17239 0.52301 0.74564 0.0
C1521 C 0.12197 0.49218 0.79702 0.0
C1522 C 0.12095 0.50434 0.75356 0.0
C1523 C 0.13756 0.51417 0.73788 0.0
C1524 C 0.10257 0.50719 0.72504 0.0
C1525 C 0.10492 0.48051 0.81434 0.0
C1526 C 0.10036 0.50117 0.67364 0.0
C1527 C 0.0826 0.50278 0.6485 0.0
C1528 C 0.06674 0.51055 0.67416 0.0
C1529 C 0.06925 0.51716 0.72491 0.0
C1530 C 0.08689 0.51547 0.75001 0.0
H1531 H 0.10913 0.46864 0.84029 0.0
H1532 H 0.09489 0.48982 0.83561 0.0
H1533 H 0.0972 0.47442 0.78068 0.0
H1534 H 0.11222 0.49474 0.65345 0.0
H1535 H 0.08114 0.49748 0.60952 0.0
H1536 H 0.96149 0.83649 0.30909 0.0
H1537 H 0.96705 0.86321 0.36758 0.0
H1538 H 0.02786 0.855 0.35511 0.0
H1539 H 0.02234 0.82839 0.29488 0.0
H1540 H 0.98409 0.86684 0.46044 0.0
H1541 H 0.02353 0.91102 0.31771 0.0
H1542 H 0.01074 0.88954 0.29992 0.0
H1543 H 0.03385 0.88807 0.32992 0.0
C1544 C 0.97609 0.84032 0.31868 0.0
C1545 C 0.99147 0.83037 0.29649 0.0
C1546 C 0.97925 0.85563 0.35243 0.0
C1547 C 0.99789 0.86157 0.3651 0.0
C1548 C 0.01332 0.8511 0.34506 0.0
H1549 H 0.03918 0.95998 0.54371 0.0
H1550 H 0.03619 0.93027 0.49492 0.0
C1551 C 0.01016 0.83568 0.31112 0.0
C1552 C 1.00084 0.8788 0.39873 0.0
H1553 H 0.02047 0.92378 0.40137 0.0
C1554 C 0.99207 0.87927 0.44743 0.0
C1555 C 0.01121 0.89515 0.38209 0.0
C1556 C 0.02024 0.89609 0.3294 0.0
C1557 C 0.99348 0.89539 0.47981 0.0
C1558 C 1.00368 0.91183 0.46303 0.0
C1559 C 0.01264 0.91128 0.41455 0.0
C1560 C 1.00528 0.92972 0.49487 0.0
C1561 C 0.98435 0.89442 0.53225 0.0
C1562 C 0.98893 0.9395 0.51179 0.0
C1563 C 0.99061 0.95653 0.54023 0.0
C1564 C 1.00866 0.96443 0.55178 0.0
C1565 C 0.02499 0.95448 0.53535 0.0
C1566 C 0.02332 0.93745 0.50716 0.0
H1567 H 0.98281 0.87945 0.54582 0.0
H1568 H 0.99292 0.90251 0.56076 0.0
H1569 H 0.96988 0.90075 0.5304 0.0
H1570 H 0.9748 0.9341 0.50251 0.0
H1571 H 0.97777 0.96346 0.55338 0.0
H1572 H 0.70704 0.96368 0.3582 0.0
H1573 H 0.68022 0.96911 0.41665 0.0
H1574 H 0.67706 0.02754 0.36542 0.0
H1575 H 0.70422 0.02217 0.30704 0.0
H1576 H 0.66911 0.02253 0.47391 0.0
H1577 H 0.62662 0.97263 0.35257 0.0
H1578 H 0.64829 0.96263 0.37749 0.0
H1579 H 0.64948 0.98212 0.33252 0.0
C1580 C 0.70093 0.97783 0.36028 0.0
C1581 C 0.70773 0.99248 0.32781 0.0
C1582 C 0.68549 0.98088 0.39348 0.0
C1583 C 0.67626 0.99861 0.39471 0.0
C1584 C 0.68385 0.01369 0.36504 0.0
H1585 H 0.55831 0.01806 0.4766 0.0
H1586 H 0.58953 0.01509 0.43637 0.0
C1587 C 0.69945 0.01066 0.33188 0.0
C1588 C 0.65787 1.00077 0.42354 0.0
H1589 H 0.612 0.98352 0.42895 0.0
C1590 C 0.65663 0.01399 0.46415 0.0
C1591 C 0.64142 0.98984 0.41048 0.0
C1592 C 0.64137 0.97613 0.36561 0.0
C1593 C 0.63951 0.01636 0.49228 0.0
C1594 C 0.62323 1.00508 0.4799 0.0
C1595 C 0.62448 0.99202 0.43901 0.0
C1596 C 0.60435 1.00733 0.50632 0.0
C1597 C 0.63884 0.03127 0.53412 0.0
C1598 C 0.60203 1.00388 0.55943 0.0
C1599 C 0.58393 1.00539 0.58276 0.0
C1600 C 0.56777 0.01028 0.55337 0.0
C1601 C 0.57025 0.01382 0.5004 0.0
C1602 C 0.58821 0.01229 0.47725 0.0
H1603 H 0.65097 0.04156 0.53127 0.0
H1604 H 0.62524 0.03932 0.53244 0.0
H1605 H 0.63964 0.02415 0.57221 0.0
H1606 H 0.61415 0.99971 0.58269 0.0
H1607 H 0.58254 1.00259 0.62361 0.0
H1608 H 0.51132 0.69546 0.25603 0.0
H1609 H 0.50276 0.66809 0.31107 0.0
H1610 H 0.54916 0.68255 0.41366 0.0
H1611 H 0.55733 0.70993 0.3596 0.0
H1612 H 0.52485 0.63771 0.32753 0.0
H1613 H 0.5093 0.6693 0.51762 0.0
H1614 H 0.51047 0.68353 0.45975 0.0
H1615 H 0.53201 0.67729 0.49372 0.0
C1616 C 0.51906 0.6933 0.29168 0.0
C1617 C 0.53473 0.70514 0.30404 0.0
C1618 C 0.51437 0.67746 0.3228 0.0
C1619 C 0.52518 0.67317 0.36712 0.0
C1620 C 0.54021 0.68563 0.38071 0.0
H1621 H 0.54551 0.57274 0.55801 0.0
H1622 H 0.54753 0.60276 0.50904 0.0
C1623 C 0.54487 0.7014 0.34975 0.0
C1624 C 0.52216 0.65479 0.39611 0.0
H1625 H 0.51733 0.63594 0.51737 0.0
C1626 C 0.52291 0.6374 0.36894 0.0
C1627 C 0.51975 0.65415 0.45037 0.0
C1628 C 0.51764 0.67208 0.48196 0.0
C1629 C 0.52188 0.61963 0.39445 0.0
C1630 C 0.52001 0.61905 0.44866 0.0
C1631 C 0.51896 0.63635 0.47585 0.0
C1632 C 0.51896 0.60059 0.4776 0.0
C1633 C 0.52339 0.60147 0.36358 0.0
C1634 C 0.50226 0.58933 0.47634 0.0
C1635 C 0.50108 0.57221 0.50436 0.0
C1636 C 0.51665 0.56583 0.53392 0.0
C1637 C 0.53339 0.57709 0.53502 0.0
C1638 C 0.53451 0.59431 0.5073 0.0
H1639 H 0.52654 0.60426 0.32233 0.0
H1640 H 0.53484 0.59238 0.37981 0.0
H1641 H 0.50976 0.59331 0.3662 0.0
H1642 H 0.49004 0.59387 0.45396 0.0
H1643 H 0.48798 0.56388 0.50266 0.0
H1644 H 0.83953 0.52372 0.24803 0.0
H1645 H 0.86831 0.51553 0.29767 0.0
H1646 H 0.84439 0.54254 0.43183 0.0
H1647 H 0.81579 0.55076 0.38231 0.0
H1648 H 0.89252 0.54362 0.34313 0.0
H1649 H 0.86624 0.49262 0.49078 0.0
H1650 H 0.8532 0.49749 0.43221 0.0
H1651 H 0.85229 0.51395 0.48524 0.0
C1652 C 0.84012 0.52719 0.28866 0.0
C1653 C 0.82523 0.53755 0.31152 0.0
C1654 C 0.85667 0.52274 0.31687 0.0
C1655 C 0.85858 0.52832 0.36874 0.0
C1656 C 0.84324 0.53777 0.39226 0.0
H1657 H 0.96157 0.55091 0.55122 0.0
H1658 H 0.93198 0.55315 0.50069 0.0
C1659 C 0.82682 0.54239 0.36397 0.0
C1660 C 0.87711 0.5259 0.39692 0.0
H1661 H 0.89714 0.50624 0.50482 0.0
C1662 C 0.89353 0.53534 0.37831 0.0
C1663 C 0.87857 0.51507 0.4428 0.0
C1664 C 0.8617 0.50405 0.46383 0.0
C1665 C 0.91113 0.53459 0.40478 0.0
C1666 C 0.91244 0.52421 0.45144 0.0
C1667 C 0.89615 0.51439 0.46941 0.0
C1668 C 0.93067 0.52309 0.48155 0.0
C1669 C 0.92829 0.54474 0.38236 0.0
C1670 C 0.93979 0.50547 0.4883 0.0
C1671 C 0.95685 0.50425 0.51649 0.0
C1672 C 0.96522 0.52061 0.53902 0.0
C1673 C 0.95588 0.53818 0.53308 0.0
C1674 C 0.93888 0.53944 0.50441 0.0
H1675 H 0.92603 0.54874 0.34142 0.0
H1676 H 0.93113 0.55799 0.40462 0.0
H1677 H 0.94116 0.53562 0.38502 0.0
H1678 H 0.93377 0.49264 0.47133 0.0
H1679 H 0.96357 0.49045 0.52034 0.0
loop_
_geom_bond_atom_site_label_1
_geom_bond_atom_site_label_2
_geom_bond_distance
_geom_bond_site_symmetry_2
_ccdc_geom_bond_type
C0 C1 1.391 . S
C0 C4 1.391 . S
C0 H42 0.948 . S
C1 C0 1.391 . S
C1 C2 1.391 . S
C2 C1 1.391 . S
C2 H58 0.947 . S
C2 C59 1.392 . S
C3 C4 1.391 . S
C3 C7 1.397 . S
C3 C59 1.419 . S
C4 C0 1.391 . S
C4 C3 1.391 . S
C4 C5 1.399 . S
C5 C4 1.399 . S
C5 C8 1.396 . S
C5 C17 1.453 . S
C5 C18 1.684 . S
H6 C30 0.948 . S
C7 C3 1.397 . S
C7 C8 1.394 . S
C7 C26 1.723 . S
C8 C5 1.396 . S
C8 C7 1.394 . S
C8 C38 1.723 . S
H9 C32 0.947 . S
H10 C33 0.948 . S
H11 C39 0.982 . S
H12 C40 0.979 . S
H13 C40 0.980 . S
H14 C40 0.983 . S
H15 C39 0.979 . S
H16 C39 0.977 . S
C17 C5 1.453 . S
C17 H46 0.982 . S
C17 H47 0.979 . S
C17 H48 0.977 . S
C18 C5 1.684 . S
C18 H43 0.979 . S
C18 H44 0.980 . S
C18 H45 0.983 . S
C19 C20 1.391 . S
C19 C24 1.391 . S
C19 H49 0.948 . S
C20 C19 1.391 . S
C20 C21 1.391 . S
C21 C20 1.391 . S
C21 C22 1.392 . S
C21 H50 0.947 1_554 S
C22 C21 1.392 . S
C22 C23 1.419 . S
C22 H51 0.948 . S
C23 C22 1.419 . S
C23 C24 1.391 . S
C23 C27 1.397 . S
C24 C19 1.391 . S
C24 C23 1.391 . S
C24 C25 1.399 . S
C25 C24 1.399 . S
C25 C26 1.396 . S
C25 C28 1.453 . S
C25 C29 1.684 . S
C26 C7 1.723 . S
C26 C25 1.396 . S
C26 C27 1.394 . S
C27 C23 1.397 . S
C27 C26 1.394 . S
C27 C37 1.723 . S
C28 C25 1.453 . S
C28 H52 0.982 . S
C28 H53 0.979 . S
C28 H54 0.977 . S
C29 C25 1.684 . S
C29 H55 0.979 . S
C29 H56 0.980 . S
C29 H57 0.983 . S
C30 H6 0.948 . S
C30 C31 1.391 . S
C30 C35 1.391 . S
C31 C30 1.391 . S
C31 C32 1.391 . S
C32 H9 0.947 . S
C32 C31 1.391 . S
C32 C33 1.392 . S
C33 H10 0.948 . S
C33 C32 1.392 . S
C33 C34 1.419 . S
C34 C33 1.419 . S
C34 C35 1.391 . S
C34 C38 1.397 . S
C35 C30 1.391 . S
C35 C34 1.391 . S
C35 C36 1.399 . S
C36 C35 1.399 . S
C36 C37 1.396 . S
C36 C39 1.453 . S
C36 C40 1.684 . S
C37 C27 1.723 . S
C37 C36 1.396 . S
C37 C38 1.394 . S
C38 C8 1.723 . S
C38 C34 1.397 . S
C38 C37 1.394 . S
C39 H11 0.982 . S
C39 H15 0.979 . S
C39 H16 0.977 . S
C39 C36 1.453 . S
C40 H12 0.979 . S
C40 H13 0.980 . S
C40 H14 0.983 . S
C40 C36 1.684 . S
H41 C59 0.948 . S
H42 C0 0.948 . S
H43 C18 0.979 . S
H44 C18 0.980 . S
H45 C18 0.983 . S
H46 C17 0.982 . S
H47 C17 0.979 . S
H48 C17 0.977 . S
H49 C19 0.948 . S
H50 C21 0.947 1_556 S
H51 C22 0.948 . S
H52 C28 0.982 . S
H53 C28 0.979 . S
H54 C28 0.977 . S
H55 C29 0.979 . S
H56 C29 0.980 . S
H57 C29 0.983 . S
H58 C2 0.947 . S
C59 C2 1.392 . S
C59 C3 1.419 . S
C59 H41 0.948 . S
C60 C61 1.391 . S
C60 C64 1.391 . S
C60 H102 0.948 1_554 S
C61 C60 1.391 . S
C61 C62 1.391 . S
C62 C61 1.391 . S
C62 H118 0.947 . S
C62 C119 1.392 . S
C63 C64 1.391 . S
C63 C67 1.397 . S
C63 C119 1.419 . S
C64 C60 1.391 . S
C64 C63 1.391 . S
C64 C65 1.399 . S
C65 C64 1.399 . S
C65 C68 1.396 . S
C65 C77 1.453 . S
C65 C78 1.684 . S
H66 C90 0.948 . S
C67 C63 1.397 . S
C67 C68 1.394 . S
C67 C86 1.723 . S
C68 C65 1.396 . S
C68 C67 1.394 . S
C68 C98 1.723 . S
H69 C92 0.947 . S
H70 C93 0.948 . S
H71 C99 0.982 . S
H72 C100 0.979 . S
H73 C100 0.980 . S
H74 C100 0.983 . S
H75 C99 0.979 . S
H76 C99 0.977 . S
C77 C65 1.453 . S
C77 H106 0.982 . S
C77 H107 0.979 . S
C77 H108 0.977 . S
C78 C65 1.684 . S
C78 H103 0.979 . S
C78 H104 0.980 . S
C78 H105 0.983 1_554 S
C79 C80 1.391 . S
C79 C84 1.391 . S
C79 H109 0.948 . S
C80 C79 1.391 . S
C80 C81 1.391 . S
C81 C80 1.391 . S
C81 C82 1.392 . S
C81 H110 0.947 . S
C82 C81 1.392 . S
C82 C83 1.419 . S
C82 H111 0.948 . S
C83 C82 1.419 . S
C83 C84 1.391 . S
C83 C87 1.397 . S
C84 C79 1.391 . S
C84 C83 1.391 . S
C84 C85 1.399 . S
C85 C84 1.399 . S
C85 C86 1.396 . S
C85 C88 1.453 . S
C85 C89 1.684 . S
C86 C67 1.723 . S
C86 C85 1.396 . S
C86 C87 1.394 . S
C87 C83 1.397 . S
C87 C86 1.394 . S
C87 C97 1.723 . S
C88 C85 1.453 . S
C88 H112 0.982 . S
C88 H113 0.979 . S
C88 H114 0.977 . S
C89 C85 1.684 . S
C89 H115 0.979 . S
C89 H116 0.980 . S
C89 H117 0.983 . S
C90 H66 0.948 . S
C90 C91 1.391 . S
C90 C95 1.391 . S
C91 C90 1.391 . S
C91 C92 1.391 . S
C92 H69 0.947 . S
C92 C91 1.391 . S
C92 C93 1.392 . S
C93 H70 0.948 . S
C93 C92 1.392 . S
C93 C94 1.419 . S
C94 C93 1.419 . S
C94 C95 1.391 . S
C94 C98 1.397 . S
C95 C90 1.391 . S
C95 C94 1.391 . S
C95 C96 1.399 . S
C96 C95 1.399 . S
C96 C97 1.396 . S
C96 C99 1.453 . S
C96 C100 1.684 . S
C97 C87 1.723 . S
C97 C96 1.396 . S
C97 C98 1.394 . S
C98 C68 1.723 . S
C98 C94 1.397 . S
C98 C97 1.394 . S
C99 H71 0.982 . S
C99 H75 0.979 . S
C99 H76 0.977 . S
C99 C96 1.453 . S
C100 H72 0.979 . S
C100 H73 0.980 . S
C100 H74 0.983 . S
C100 C96 1.684 . S
H101 C119 0.948 . S
H102 C60 0.948 1_556 S
H103 C78 0.979 . S
H104 C78 0.980 . S
H105 C78 0.983 1_556 S
H106 C77 0.982 . S
H107 C77 0.979 . S
H108 C77 0.977 . S
H109 C79 0.948 . S
H110 C81 0.947 . S
H111 C82 0.948 . S
H112 C88 0.982 . S
H113 C88 0.979 . S
H114 C88 0.977 . S
H115 C89 0.979 . S
H116 C89 0.980 . S
H117 C89 0.983 . S
H118 C62 0.947 . S
C119 C62 1.392 . S
C119 C63 1.419 . S
C119 H101 0.948 . S
C120 C121 1.391 . S
C120 C124 1.391 . S
C120 H162 0.948 . S
C121 C120 1.391 . S
C121 C122 1.391 . S
C122 C121 1.391 . S
C122 H178 0.947 . S
C122 C179 1.392 . S
C123 C124 1.391 . S
C123 C127 1.397 . S
C123 C179 1.419 . S
C124 C120 1.391 . S
C124 C123 1.391 . S
C124 C125 1.399 . S
C125 C124 1.399 . S
C125 C128 1.396 . S
C125 C137 1.453 . S
C125 C138 1.684 . S
H126 C150 0.948 . S
C127 C123 1.397 . S
C127 C128 1.394 . S
C127 C146 1.723 . S
C128 C125 1.396 . S
C128 C127 1.394 . S
C128 C158 1.723 . S
H129 C152 0.947 . S
H130 C153 0.948 . S
H131 C159 0.982 . S
H132 C160 0.979 . S
H133 C160 0.980 . S
H134 C160 0.983 . S
H135 C159 0.979 . S
H136 C159 0.977 . S
C137 C125 1.453 . S
C137 H166 0.982 . S
C137 H167 0.979 . S
C137 H168 0.977 . S
C138 C125 1.684 . S
C138 H163 0.979 . S
C138 H164 0.980 . S
C138 H165 0.983 . S
C139 C140 1.391 . S
C139 C144 1.391 . S
C139 H169 0.948 1_554 S
C140 C139 1.391 . S
C140 C141 1.391 . S
C141 C140 1.391 . S
C141 C142 1.392 . S
C141 H170 0.947 . S
C142 C141 1.392 . S
C142 C143 1.419 . S
C142 H171 0.948 . S
C143 C142 1.419 . S
C143 C144 1.391 . S
C143 C147 1.397 . S
C144 C139 1.391 . S
C144 C143 1.391 . S
C144 C145 1.399 . S
C145 C144 1.399 . S
C145 C146 1.396 . S
C145 C148 1.453 . S
C145 C149 1.684 . S
C146 C127 1.723 . S
C146 C145 1.396 . S
C146 C147 1.394 . S
C147 C143 1.397 . S
C147 C146 1.394 . S
C147 C157 1.723 . S
C148 C145 1.453 . S
C148 H172 0.982 . S
C148 H173 0.979 . S
C148 H174 0.977 . S
C149 C145 1.684 . S
C149 H175 0.979 . S
C149 H176 0.980 . S
C149 H177 0.983 1_554 S
C150 H126 0.948 . S
C150 C151 1.391 . S
C150 C155 1.391 . S
C151 C150 1.391 . S
C151 C152 1.391 . S
C152 H129 0.947 . S
C152 C151 1.391 . S
C152 C153 1.392 . S
C153 H130 0.948 . S
C153 C152 1.392 . S
C153 C154 1.419 . S
C154 C153 1.419 . S
C154 C155 1.391 . S
C154 C158 1.397 . S
C155 C150 1.391 . S
C155 C154 1.391 . S
C155 C156 1.399 . S
C156 C155 1.399 . S
C156 C157 1.396 . S
C156 C159 1.453 . S
C156 C160 1.684 . S
C157 C147 1.723 . S
C157 C156 1.396 . S
C157 C158 1.394 . S
C158 C128 1.723 . S
C158 C154 1.397 . S
C158 C157 1.394 . S
C159 H131 0.982 . S
C159 H135 0.979 . S
C159 H136 0.977 . S
C159 C156 1.453 . S
C160 H132 0.979 . S
C160 H133 0.980 . S
C160 H134 0.983 . S
C160 C156 1.684 . S
H161 C179 0.948 . S
H162 C120 0.948 . S
H163 C138 0.979 . S
H164 C138 0.980 . S
H165 C138 0.983 . S
H166 C137 0.982 . S
H167 C137 0.979 . S
H168 C137 0.977 . S
H169 C139 0.948 1_556 S
H170 C141 0.947 . S
H171 C142 0.948 . S
H172 C148 0.982 . S
H173 C148 0.979 . S
H174 C148 0.977 . S
H175 C149 0.979 . S
H176 C149 0.980 . S
H177 C149 0.983 1_556 S
H178 C122 0.947 . S
C179 C122 1.392 . S
C179 C123 1.419 . S
C179 H161 0.948 . S
C180 C181 1.391 . S
C180 C184 1.391 . S
C180 H222 0.948 . S
C181 C180 1.391 . S
C181 C182 1.391 . S
C182 C181 1.391 . S
C182 H238 0.947 . S
C182 C239 1.392 . S
C183 C184 1.391 . S
C183 C187 1.397 . S
C183 C239 1.419 . S
C184 C180 1.391 . S
C184 C183 1.391 . S
C184 C185 1.399 . S
C185 C184 1.399 . S
C185 C188 1.396 . S
C185 C197 1.453 . S
C185 C198 1.684 . S
H186 C210 0.948 . S
C187 C183 1.397 . S
C187 C188 1.394 . S
C187 C206 1.723 . S
C188 C185 1.396 . S
C188 C187 1.394 . S
C188 C218 1.723 . S
H189 C212 0.947 . S
H190 C213 0.948 . S
H191 C219 0.982 . S
H192 C220 0.979 . S
H193 C220 0.980 . S
H194 C220 0.983 . S
H195 C219 0.979 . S
H196 C219 0.977 . S
C197 C185 1.453 . S
C197 H226 0.982 . S
C197 H227 0.979 . S
C197 H228 0.977 . S
C198 C185 1.684 . S
C198 H223 0.979 . S
C198 H224 0.980 . S
C198 H225 0.983 . S
C199 C200 1.391 . S
C199 C204 1.391 . S
C199 H229 0.948 . S
C200 C199 1.391 . S
C200 C201 1.391 . S
C201 C200 1.391 . S
C201 C202 1.392 . S
C201 H230 0.947 1_554 S
C202 C201 1.392 . S
C202 C203 1.419 . S
C202 H231 0.948 . S
C203 C202 1.419 . S
C203 C204 1.391 . S
C203 C207 1.397 . S
C204 C199 1.391 . S
C204 C203 1.391 . S
C204 C205 1.399 . S
C205 C204 1.399 . S
C205 C206 1.396 . S
C205 C208 1.453 . S
C205 C209 1.684 . S
C206 C187 1.723 . S
C206 C205 1.396 . S
C206 C207 1.394 . S
C207 C203 1.397 . S
C207 C206 1.394 . S
C207 C217 1.723 . S
C208 C205 1.453 . S
C208 H232 0.982 . S
C208 H233 0.979 . S
C208 H234 0.977 . S
C209 C205 1.684 . S
C209 H235 0.979 . S
C209 H236 0.980 . S
C209 H237 0.983 . S
C210 H186 0.948 . S
C210 C211 1.391 . S
C210 C215 1.391 . S
C211 C210 1.391 . S
C211 C212 1.391 . S
C212 H189 0.947 . S
C212 C211 1.391 . S
C212 C213 1.392 . S
C213 H190 0.948 . S
C213 C212 1.392 . S
C213 C214 1.419 . S
C214 C213 1.419 . S
C214 C215 1.391 . S
C214 C218 1.397 . S
C215 C210 1.391 . S
C215 C214 1.391 . S
C215 C216 1.399 . S
C216 C215 1.399 . S
C216 C217 1.396 . S
C216 C219 1.453 . S
C216 C220 1.684 . S
C217 C207 1.723 . S
C217 C216 1.396 . S
C217 C218 1.394 . S
C218 C188 1.723 . S
C218 C214 1.397 . S
C218 C217 1.394 . S
C219 H191 0.982 . S
C219 H195 0.979 . S
C219 H196 0.977 . S
C219 C216 1.453 . S
C220 H192 0.979 . S
C220 H193 0.980 . S
C220 H194 0.983 . S
C220 C216 1.684 . S
H221 C239 0.948 . S
H222 C180 0.948 . S
H223 C198 0.979 . S
H224 C198 0.980 . S
H225 C198 0.983 . S
H226 C197 0.982 . S
H227 C197 0.979 . S
H228 C197 0.977 . S
H229 C199 0.948 . S
H230 C201 0.947 1_556 S
H231 C202 0.948 . S
H232 C208 0.982 . S
H233 C208 0.979 . S
H234 C208 0.977 . S
H235 C209 0.979 . S
H236 C209 0.980 . S
H237 C209 0.983 . S
H238 C182 0.947 . S
C239 C182 1.392 . S
C239 C183 1.419 . S
C239 H221 0.948 . S
C240 C241 1.391 . S
C240 C244 1.391 . S
C240 H282 0.948 . S
C241 C240 1.391 . S
C241 C242 1.391 . S
C242 C241 1.391 . S
C242 H298 0.947 . S
C242 C299 1.392 . S
C243 C244 1.391 . S
C243 C247 1.397 . S
C243 C299 1.419 . S
C244 C240 1.391 . S
C244 C243 1.391 . S
C244 C245 1.399 1_554 S
C245 C244 1.399 1_556 S
C245 C248 1.396 1_556 S
C245 C257 1.453 . S
C245 C258 1.684 . S
H246 C270 0.948 . S
C247 C243 1.397 . S
C247 C248 1.394 . S
C247 C266 1.723 . S
C248 C245 1.396 1_554 S
C248 C247 1.394 . S
C248 C278 1.723 1_554 S
H249 C272 0.947 . S
H250 C273 0.948 . S
H251 C279 0.982 . S
H252 C280 0.979 . S
H253 C280 0.980 1_554 S
H254 C280 0.983 . S
H255 C279 0.979 . S
H256 C279 0.977 1_554 S
C257 C245 1.453 . S
C257 H286 0.982 . S
C257 H287 0.979 . S
C257 H288 0.977 . S
C258 C245 1.684 . S
C258 H283 0.979 . S
C258 H284 0.980 . S
C258 H285 0.983 . S
C259 C260 1.391 . S
C259 C264 1.391 . S
C259 H289 0.948 . S
C260 C259 1.391 . S
C260 C261 1.391 . S
C261 C260 1.391 . S
C261 C262 1.392 . S
C261 H290 0.947 . S
C262 C261 1.392 . S
C262 C263 1.419 . S
C262 H291 0.948 . S
C263 C262 1.419 . S
C263 C264 1.391 . S
C263 C267 1.397 . S
C264 C259 1.391 . S
C264 C263 1.391 . S
C264 C265 1.399 . S
C265 C264 1.399 . S
C265 C266 1.396 . S
C265 C268 1.453 . S
C265 C269 1.684 . S
C266 C247 1.723 . S
C266 C265 1.396 . S
C266 C267 1.394 . S
C267 C263 1.397 . S
C267 C266 1.394 . S
C267 C277 1.723 . S
C268 C265 1.453 . S
C268 H292 0.982 . S
C268 H293 0.979 . S
C268 H294 0.977 . S
C269 C265 1.684 . S
C269 H295 0.979 . S
C269 H296 0.980 . S
C269 H297 0.983 . S
C270 H246 0.948 . S
C270 C271 1.391 . S
C270 C275 1.391 . S
C271 C270 1.391 . S
C271 C272 1.391 . S
C272 H249 0.947 . S
C272 C271 1.391 . S
C272 C273 1.392 . S
C273 H250 0.948 . S
C273 C272 1.392 . S
C273 C274 1.419 . S
C274 C273 1.419 . S
C274 C275 1.391 . S
C274 C278 1.397 . S
C275 C270 1.391 . S
C275 C274 1.391 . S
C275 C276 1.399 . S
C276 C275 1.399 . S
C276 C277 1.396 1_556 S
C276 C279 1.453 . S
C276 C280 1.684 . S
C277 C267 1.723 . S
C277 C276 1.396 1_554 S
C277 C278 1.394 1_554 S
C278 C248 1.723 1_556 S
C278 C274 1.397 . S
C278 C277 1.394 1_556 S
C279 H251 0.982 . S
C279 H255 0.979 . S
C279 H256 0.977 1_556 S
C279 C276 1.453 . S
C280 H252 0.979 . S
C280 H253 0.980 1_556 S
C280 H254 0.983 . S
C280 C276 1.684 . S
H281 C299 0.948 . S
H282 C240 0.948 . S
H283 C258 0.979 . S
H284 C258 0.980 . S
H285 C258 0.983 . S
H286 C257 0.982 . S
H287 C257 0.979 . S
H288 C257 0.977 . S
H289 C259 0.948 . S
H290 C261 0.947 . S
H291 C262 0.948 . S
H292 C268 0.982 . S
H293 C268 0.979 . S
H294 C268 0.977 . S
H295 C269 0.979 . S
H296 C269 0.980 . S
H297 C269 0.983 . S
H298 C242 0.947 . S
C299 C242 1.392 . S
C299 C243 1.419 . S
C299 H281 0.948 . S
C300 C301 1.391 . S
C300 C304 1.391 . S
C300 H342 0.948 . S
C301 C300 1.391 . S
C301 C302 1.391 . S
C302 C301 1.391 . S
C302 H358 0.947 . S
C302 C359 1.392 . S
C303 C304 1.391 . S
C303 C307 1.397 . S
C303 C359 1.419 . S
C304 C300 1.391 . S
C304 C303 1.391 . S
C304 C305 1.399 . S
C305 C304 1.399 . S
C305 C308 1.396 . S
C305 C317 1.453 . S
C305 C318 1.684 . S
H306 C330 0.948 . S
C307 C303 1.397 . S
C307 C308 1.394 . S
C307 C326 1.723 . S
C308 C305 1.396 . S
C308 C307 1.394 . S
C308 C338 1.723 . S
H309 C332 0.947 . S
H310 C333 0.948 . S
H311 C339 0.982 . S
H312 C340 0.979 . S
H313 C340 0.980 . S
H314 C340 0.983 . S
H315 C339 0.979 . S
H316 C339 0.977 . S
C317 C305 1.453 . S
C317 H346 0.982 . S
C317 H347 0.979 . S
C317 H348 0.977 . S
C318 C305 1.684 . S
C318 H343 0.979 . S
C318 H344 0.980 . S
C318 H345 0.983 . S
C319 C320 1.391 . S
C319 C324 1.391 . S
C319 H349 0.948 . S
C320 C319 1.391 . S
C320 C321 1.391 . S
C321 C320 1.391 . S
C321 C322 1.392 . S
C321 H350 0.947 . S
C322 C321 1.392 . S
C322 C323 1.419 . S
C322 H351 0.948 . S
C323 C322 1.419 . S
C323 C324 1.391 . S
C323 C327 1.397 . S
C324 C319 1.391 . S
C324 C323 1.391 . S
C324 C325 1.399 . S
C325 C324 1.399 . S
C325 C326 1.396 1_556 S
C325 C328 1.453 . S
C325 C329 1.684 . S
C326 C307 1.723 . S
C326 C325 1.396 1_554 S
C326 C327 1.394 1_554 S
C327 C323 1.397 . S
C327 C326 1.394 1_556 S
C327 C337 1.723 1_556 S
C328 C325 1.453 . S
C328 H352 0.982 . S
C328 H353 0.979 . S
C328 H354 0.977 1_556 S
C329 C325 1.684 . S
C329 H355 0.979 . S
C329 H356 0.980 1_556 S
C329 H357 0.983 . S
C330 H306 0.948 . S
C330 C331 1.391 . S
C330 C335 1.391 . S
C331 C330 1.391 . S
C331 C332 1.391 . S
C332 H309 0.947 . S
C332 C331 1.391 . S
C332 C333 1.392 . S
C333 H310 0.948 . S
C333 C332 1.392 . S
C333 C334 1.419 . S
C334 C333 1.419 . S
C334 C335 1.391 . S
C334 C338 1.397 . S
C335 C330 1.391 . S
C335 C334 1.391 . S
C335 C336 1.399 1_554 S
C336 C335 1.399 1_556 S
C336 C337 1.396 1_556 S
C336 C339 1.453 . S
C336 C340 1.684 . S
C337 C327 1.723 1_554 S
C337 C336 1.396 1_554 S
C337 C338 1.394 . S
C338 C308 1.723 . S
C338 C334 1.397 . S
C338 C337 1.394 . S
C339 H311 0.982 . S
C339 H315 0.979 . S
C339 H316 0.977 . S
C339 C336 1.453 . S
C340 H312 0.979 . S
C340 H313 0.980 . S
C340 H314 0.983 . S
C340 C336 1.684 . S
H341 C359 0.948 . S
H342 C300 0.948 . S
H343 C318 0.979 . S
H344 C318 0.980 . S
H345 C318 0.983 . S
H346 C317 0.982 . S
H347 C317 0.979 . S
H348 C317 0.977 . S
H349 C319 0.948 . S
H350 C321 0.947 . S
H351 C322 0.948 . S
H352 C328 0.982 . S
H353 C328 0.979 . S
H354 C328 0.977 1_554 S
H355 C329 0.979 . S
H356 C329 0.980 1_554 S
H357 C329 0.983 . S
H358 C302 0.947 . S
C359 C302 1.392 . S
C359 C303 1.419 . S
C359 H341 0.948 . S
C360 C361 1.391 . S
C360 C364 1.391 . S
C360 H402 0.948 . S
C361 C360 1.391 . S
C361 C362 1.391 . S
C362 C361 1.391 . S
C362 H418 0.947 . S
C362 C419 1.392 . S
C363 C364 1.391 . S
C363 C367 1.397 . S
C363 C419 1.419 . S
C364 C360 1.391 . S
C364 C363 1.391 . S
C364 C365 1.399 . S
C365 C364 1.399 . S
C365 C368 1.396 . S
C365 C377 1.453 . S
C365 C378 1.684 . S
H366 C390 0.948 . S
C367 C363 1.397 . S
C367 C368 1.394 . S
C367 C386 1.723 1_556 S
C368 C365 1.396 . S
C368 C367 1.394 . S
C368 C398 1.723 1_556 S
H369 C392 0.947 . S
H370 C393 0.948 1_556 S
H371 C399 0.982 . S
H372 C400 0.979 . S
H373 C400 0.980 . S
H374 C400 0.983 . S
H375 C399 0.979 . S
H376 C399 0.977 . S
C377 C365 1.453 . S
C377 H406 0.982 . S
C377 H407 0.979 . S
C377 H408 0.977 . S
C378 C365 1.684 . S
C378 H403 0.979 . S
C378 H404 0.980 . S
C378 H405 0.983 . S
C379 C380 1.391 . S
C379 C384 1.391 . S
C379 H409 0.948 . S
C380 C379 1.391 . S
C380 C381 1.391 . S
C381 C380 1.391 . S
C381 C382 1.392 . S
C381 H410 0.947 . S
C382 C381 1.392 . S
C382 C383 1.419 . S
C382 H411 0.948 . S
C383 C382 1.419 . S
C383 C384 1.391 . S
C383 C387 1.397 . S
C384 C379 1.391 . S
C384 C383 1.391 . S
C384 C385 1.399 . S
C385 C384 1.399 . S
C385 C386 1.396 . S
C385 C388 1.453 . S
C385 C389 1.684 . S
C386 C367 1.723 1_554 S
C386 C385 1.396 . S
C386 C387 1.394 . S
C387 C383 1.397 . S
C387 C386 1.394 . S
C387 C397 1.723 . S
C388 C385 1.453 . S
C388 H412 0.982 . S
C388 H413 0.979 . S
C388 H414 0.977 1_554 S
C389 C385 1.684 . S
C389 H415 0.979 . S
C389 H416 0.980 1_554 S
C389 H417 0.983 . S
C390 H366 0.948 . S
C390 C391 1.391 . S
C390 C395 1.391 . S
C391 C390 1.391 . S
C391 C392 1.391 . S
C392 H369 0.947 . S
C392 C391 1.391 . S
C392 C393 1.392 . S
C393 H370 0.948 1_554 S
C393 C392 1.392 . S
C393 C394 1.419 . S
C394 C393 1.419 . S
C394 C395 1.391 . S
C394 C398 1.397 . S
C395 C390 1.391 . S
C395 C394 1.391 . S
C395 C396 1.399 . S
C396 C395 1.399 . S
C396 C397 1.396 . S
C396 C399 1.453 . S
C396 C400 1.684 . S
C397 C387 1.723 . S
C397 C396 1.396 . S
C397 C398 1.394 . S
C398 C368 1.723 1_554 S
C398 C394 1.397 . S
C398 C397 1.394 . S
C399 H371 0.982 . S
C399 H375 0.979 . S
C399 H376 0.977 . S
C399 C396 1.453 . S
C400 H372 0.979 . S
C400 H373 0.980 . S
C400 H374 0.983 . S
C400 C396 1.684 . S
H401 C419 0.948 . S
H402 C360 0.948 . S
H403 C378 0.979 . S
H404 C378 0.980 . S
H405 C378 0.983 . S
H406 C377 0.982 . S
H407 C377 0.979 . S
H408 C377 0.977 . S
H409 C379 0.948 . S
H410 C381 0.947 . S
H411 C382 0.948 . S
H412 C388 0.982 . S
H413 C388 0.979 . S
H414 C388 0.977 1_556 S
H415 C389 0.979 . S
H416 C389 0.980 1_556 S
H417 C389 0.983 . S
H418 C362 0.947 . S
C419 C362 1.392 . S
C419 C363 1.419 . S
C419 H401 0.948 . S
C420 C421 1.391 . S
C420 C424 1.391 . S
C420 H462 0.948 . S
C421 C420 1.391 . S
C421 C422 1.391 . S
C422 C421 1.391 . S
C422 H478 0.947 . S
C422 C479 1.392 . S
C423 C424 1.391 . S
C423 C427 1.397 . S
C423 C479 1.419 . S
C424 C420 1.391 . S
C424 C423 1.391 . S
C424 C425 1.399 . S
C425 C424 1.399 . S
C425 C428 1.396 . S
C425 C437 1.453 . S
C425 C438 1.684 . S
H426 C450 0.948 . S
C427 C423 1.397 . S
C427 C428 1.394 . S
C427 C446 1.723 1_556 S
C428 C425 1.396 . S
C428 C427 1.394 . S
C428 C458 1.723 1_556 S
H429 C452 0.947 1_556 S
H430 C453 0.948 1_556 S
H431 C459 0.982 . S
H432 C460 0.979 . S
H433 C460 0.980 . S
H434 C460 0.983 . S
H435 C459 0.979 . S
H436 C459 0.977 . S
C437 C425 1.453 . S
C437 H466 0.982 . S
C437 H467 0.979 . S
C437 H468 0.977 . S
C438 C425 1.684 . S
C438 H463 0.979 . S
C438 H464 0.980 . S
C438 H465 0.983 . S
C439 C440 1.391 . S
C439 C444 1.391 . S
C439 H469 0.948 . S
C440 C439 1.391 . S
C440 C441 1.391 . S
C441 C440 1.391 . S
C441 C442 1.392 . S
C441 H470 0.947 . S
C442 C441 1.392 . S
C442 C443 1.419 . S
C442 H471 0.948 . S
C443 C442 1.419 . S
C443 C444 1.391 . S
C443 C447 1.397 . S
C444 C439 1.391 . S
C444 C443 1.391 . S
C444 C445 1.399 . S
C445 C444 1.399 . S
C445 C446 1.396 . S
C445 C448 1.453 . S
C445 C449 1.684 . S
C446 C427 1.723 1_554 S
C446 C445 1.396 . S
C446 C447 1.394 . S
C447 C443 1.397 . S
C447 C446 1.394 . S
C447 C457 1.723 . S
C448 C445 1.453 . S
C448 H472 0.982 . S
C448 H473 0.979 . S
C448 H474 0.977 1_554 S
C449 C445 1.684 . S
C449 H475 0.979 . S
C449 H476 0.980 1_554 S
C449 H477 0.983 . S
C450 H426 0.948 . S
C450 C451 1.391 . S
C450 C455 1.391 . S
C451 C450 1.391 . S
C451 C452 1.391 . S
C452 H429 0.947 1_554 S
C452 C451 1.391 . S
C452 C453 1.392 . S
C453 H430 0.948 1_554 S
C453 C452 1.392 . S
C453 C454 1.419 . S
C454 C453 1.419 . S
C454 C455 1.391 . S
C454 C458 1.397 . S
C455 C450 1.391 . S
C455 C454 1.391 . S
C455 C456 1.399 . S
C456 C455 1.399 . S
C456 C457 1.396 . S
C456 C459 1.453 . S
C456 C460 1.684 . S
C457 C447 1.723 . S
C457 C456 1.396 . S
C457 C458 1.394 . S
C458 C428 1.723 1_554 S
C458 C454 1.397 . S
C458 C457 1.394 . S
C459 H431 0.982 . S
C459 H435 0.979 . S
C459 H436 0.977 . S
C459 C456 1.453 . S
C460 H432 0.979 . S
C460 H433 0.980 . S
C460 H434 0.983 . S
C460 C456 1.684 . S
H461 C479 0.948 . S
H462 C420 0.948 . S
H463 C438 0.979 . S
H464 C438 0.980 . S
H465 C438 0.983 . S
H466 C437 0.982 . S
H467 C437 0.979 . S
H468 C437 0.977 . S
H469 C439 0.948 . S
H470 C441 0.947 . S
H471 C442 0.948 . S
H472 C448 0.982 . S
H473 C448 0.979 . S
H474 C448 0.977 1_556 S
H475 C449 0.979 . S
H476 C449 0.980 1_556 S
H477 C449 0.983 . S
H478 C422 0.947 . S
C479 C422 1.392 . S
C479 C423 1.419 . S
C479 H461 0.948 . S
C480 C482 1.422 . S
C480 C484 1.415 . S
C480 N486 1.369 1_545 S
C481 C482 1.421 . S
C481 C483 1.417 . S
C481 C493 1.422 . S
C482 C480 1.422 . S
C482 C481 1.421 . S
C482 N492 1.359 . S
C483 C481 1.417 . S
C483 C485 1.329 . S
C483 H502 0.930 . S
C484 C480 1.415 . S
C484 C485 1.437 . S
C484 C488 1.413 . S
C485 C483 1.329 . S
C485 C484 1.437 . S
C485 H507 0.929 . S
N486 C480 1.369 1_565 S
N486 C487 1.338 . S
N486 Gd491 2.622 . S
C487 N486 1.338 . S
C487 C489 1.378 1_565 S
C487 H499 0.929 . S
C488 C484 1.413 . S
C488 C489 1.348 . S
C488 H504 0.931 . S
C489 C487 1.378 1_545 S
C489 C488 1.348 . S
C489 H505 0.930 . S
Gd490 N510 2.622 . S
Gd490 N517 2.570 . S
Gd490 O524 2.353 1_655 S
Gd490 O525 2.465 1_655 S
Gd490 O526 2.427 . S
Gd490 O528 2.388 . S
Gd490 O529 2.386 1_545 S
Gd490 O533 2.307 1_655 S
Gd490 C543 2.805 . S
Gd491 N486 2.622 . S
Gd491 N492 2.570 1_565 S
Gd491 O523 2.386 1_565 S
Gd491 O527 2.303 1_465 S
Gd491 O530 2.353 . S
Gd491 O531 2.468 . S
Gd491 O532 2.427 . S
Gd491 O534 2.388 . S
Gd491 C555 2.805 . S
N492 C482 1.359 . S
N492 Gd491 2.570 1_545 S
N492 C494 1.343 . S
C493 C481 1.422 . S
C493 C495 1.321 . S
C493 H501 0.931 . S
C494 N492 1.343 . S
C494 C495 1.390 . S
C494 H496 0.863 1_445 S
C495 C493 1.321 . S
C495 C494 1.390 . S
C495 H497 0.983 . S
H496 C494 0.863 1_665 S
H497 C495 0.983 . S
H498 C521 0.924 1_455 S
H499 C487 0.929 . S
H500 C522 0.930 1_455 S
H501 C493 0.931 . S
H502 C483 0.930 . S
H503 C512 0.929 . S
H504 C488 0.931 . S
H505 C489 0.930 . S
H506 C544 0.930 . S
H507 C485 0.929 . S
H508 C513 0.940 . S
H509 C514 0.930 . S
N510 Gd490 2.622 . S
N510 C511 1.369 . S
N510 C512 1.338 . S
C511 N510 1.369 . S
C511 C515 1.415 1_545 S
C511 C518 1.422 . S
C512 H503 0.929 . S
C512 N510 1.338 . S
C512 C514 1.378 . S
C513 H508 0.940 . S
C513 C514 1.337 1_565 S
C513 C515 1.415 . S
C514 H509 0.930 . S
C514 C512 1.378 . S
C514 C513 1.337 1_545 S
C515 C511 1.415 1_565 S
C515 C513 1.415 . S
C515 C545 1.437 . S
H516 C545 0.929 . S
N517 Gd490 2.570 . S
N517 C518 1.359 . S
N517 C521 1.350 . S
C518 C511 1.422 . S
C518 N517 1.359 . S
C518 C520 1.421 1_545 S
C519 C520 1.422 . S
C519 C522 1.321 . S
C519 H546 0.931 . S
C520 C518 1.421 1_565 S
C520 C519 1.422 . S
C520 C544 1.417 . S
C521 H498 0.924 1_655 S
C521 N517 1.350 . S
C521 C522 1.391 1_545 S
C522 H500 0.930 1_655 S
C522 C519 1.321 . S
C522 C521 1.391 1_565 S
O523 Gd491 2.386 1_545 S
O523 C535 1.265 . S
O524 Gd490 2.353 1_455 S
O524 C535 1.242 . S
O525 Gd490 2.465 1_455 S
O525 C543 1.257 1_455 S
O526 Gd490 2.427 . S
O526 C543 1.252 . S
O527 Gd491 2.303 1_645 S
O527 C536 1.265 . S
O528 Gd490 2.388 . S
O528 C536 1.252 . S
O529 Gd490 2.386 1_565 S
O529 C547 1.265 . S
O530 Gd491 2.353 . S
O530 C547 1.242 1_455 S
O531 Gd491 2.468 . S
O531 C555 1.263 . S
O532 Gd491 2.427 . S
O532 C555 1.252 . S
O533 Gd490 2.307 1_455 S
O533 C548 1.261 . S
O534 Gd491 2.388 . S
O534 C548 1.252 1_565 S
C535 O523 1.265 . S
C535 O524 1.242 . S
C536 O527 1.265 . S
C536 O528 1.252 . S
C537 C540 1.394 . S
C537 C542 1.370 . S
C537 C543 1.500 . S
C538 C541 1.383 . S
C538 C542 1.395 . S
C539 C540 1.396 . S
C539 C541 1.365 . S
C539 H556 0.929 . S
C540 C537 1.394 . S
C540 C539 1.396 . S
C540 H557 0.930 . S
C541 C538 1.383 . S
C541 C539 1.365 . S
C541 H558 0.931 . S
C542 C537 1.370 . S
C542 C538 1.395 . S
C542 H559 0.930 1_655 S
C543 Gd490 2.805 . S
C543 O525 1.257 1_655 S
C543 O526 1.252 . S
C543 C537 1.500 . S
C544 H506 0.930 . S
C544 C520 1.417 . S
C544 C545 1.329 . S
C545 C515 1.437 . S
C545 H516 0.929 . S
C545 C544 1.329 . S
H546 C519 0.931 . S
C547 O529 1.265 . S
C547 O530 1.242 1_655 S
C548 O533 1.261 . S
C548 O534 1.252 1_545 S
C549 C552 1.394 . S
C549 C554 1.370 . S
C549 C555 1.500 . S
C550 C553 1.383 . S
C550 C554 1.395 . S
C551 C552 1.396 . S
C551 C553 1.365 . S
C551 H560 0.929 . S
C552 C549 1.394 . S
C552 C551 1.396 . S
C552 H561 0.930 . S
C553 C550 1.383 . S
C553 C551 1.365 . S
C553 H562 0.931 . S
C554 C549 1.370 . S
C554 C550 1.395 . S
C554 H563 0.961 . S
C555 Gd491 2.805 . S
C555 O531 1.263 . S
C555 O532 1.252 . S
C555 C549 1.500 . S
H556 C539 0.929 . S
H557 C540 0.930 . S
H558 C541 0.931 . S
H559 C542 0.930 1_455 S
H560 C551 0.929 . S
H561 C552 0.930 . S
H562 C553 0.931 . S
H563 C554 0.961 . S
C564 C566 1.422 . S
C564 C568 1.415 . S
C564 N570 1.369 . S
C565 C566 1.421 . S
C565 C567 1.417 . S
C565 C577 1.422 . S
C566 C564 1.422 . S
C566 C565 1.421 . S
C566 N576 1.359 . S
C567 C565 1.417 . S
C567 C569 1.329 . S
C567 H586 0.930 . S
C568 C564 1.415 . S
C568 C569 1.437 . S
C568 C572 1.413 . S
C569 C567 1.329 . S
C569 C568 1.437 . S
C569 H591 0.929 . S
N570 C564 1.369 . S
N570 C571 1.338 . S
N570 Gd575 2.622 . S
C571 N570 1.338 . S
C571 C573 1.378 . S
C571 H583 0.929 . S
C572 C568 1.413 . S
C572 C573 1.348 . S
C572 H588 0.931 . S
C573 C571 1.378 . S
C573 C572 1.348 . S
C573 H589 0.930 . S
Gd574 N594 2.622 . S
Gd574 N601 2.570 . S
Gd574 O608 2.353 1_545 S
Gd574 O609 2.468 . S
Gd574 O610 2.427 . S
Gd574 O612 2.388 . S
Gd574 O613 2.386 . S
Gd574 O617 2.307 . S
Gd574 C627 2.805 . S
Gd575 N570 2.622 . S
Gd575 N576 2.570 . S
Gd575 O607 2.386 . S
Gd575 O611 2.307 1_565 S
Gd575 O614 2.353 1_565 S
Gd575 O615 2.468 . S
Gd575 O616 2.427 . S
Gd575 O618 2.388 . S
Gd575 C639 2.805 . S
N576 C566 1.359 . S
N576 Gd575 2.570 . S
N576 C578 1.343 . S
C577 C565 1.422 . S
C577 C579 1.321 . S
C577 H585 0.931 . S
C578 N576 1.343 . S
C578 C579 1.390 . S
C578 H580 0.931 . S
C579 C577 1.321 . S
C579 C578 1.390 . S
C579 H581 0.930 . S
H580 C578 0.931 . S
H581 C579 0.930 . S
H582 C605 0.931 . S
H583 C571 0.929 . S
H584 C606 0.930 . S
H585 C577 0.931 . S
H586 C567 0.930 . S
H587 C596 0.929 . S
H588 C572 0.931 . S
H589 C573 0.930 . S
H590 C628 0.930 . S
H591 C569 0.929 . S
H592 C597 0.931 . S
H593 C598 0.930 . S
N594 Gd574 2.622 . S
N594 C595 1.369 . S
N594 C596 1.338 . S
C595 N594 1.369 . S
C595 C599 1.415 . S
C595 C602 1.422 . S
C596 H587 0.929 . S
C596 N594 1.338 . S
C596 C598 1.378 . S
C597 H592 0.931 . S
C597 C598 1.348 . S
C597 C599 1.413 . S
C598 H593 0.930 . S
C598 C596 1.378 . S
C598 C597 1.348 . S
C599 C595 1.415 . S
C599 C597 1.413 . S
C599 C629 1.437 . S
H600 C629 0.929 . S
N601 Gd574 2.570 . S
N601 C602 1.359 . S
N601 C605 1.343 . S
C602 C595 1.422 . S
C602 N601 1.359 . S
C602 C604 1.421 . S
C603 C604 1.422 . S
C603 C606 1.321 . S
C603 H630 0.931 . S
C604 C602 1.421 . S
C604 C603 1.422 . S
C604 C628 1.417 . S
C605 H582 0.931 . S
C605 N601 1.343 . S
C605 C606 1.390 . S
C606 H584 0.930 . S
C606 C603 1.321 . S
C606 C605 1.390 . S
O607 Gd575 2.386 . S
O607 C619 1.265 . S
O608 Gd574 2.353 1_565 S
O608 C619 1.242 . S
O609 Gd574 2.468 . S
O609 C627 1.263 . S
O610 Gd574 2.427 . S
O610 C627 1.252 . S
O611 Gd575 2.307 1_545 S
O611 C620 1.261 . S
O612 Gd574 2.388 . S
O612 C620 1.252 . S
O613 Gd574 2.386 . S
O613 C631 1.265 . S
O614 Gd575 2.353 1_545 S
O614 C631 1.242 . S
O615 Gd575 2.468 . S
O615 C639 1.263 . S
O616 Gd575 2.427 . S
O616 C639 1.252 . S
O617 Gd574 2.307 . S
O617 C632 1.261 1_545 S
O618 Gd575 2.388 . S
O618 C632 1.252 . S
C619 O607 1.265 . S
C619 O608 1.242 . S
C620 O611 1.261 . S
C620 O612 1.252 . S
C621 C624 1.394 . S
C621 C626 1.370 . S
C621 C627 1.500 . S
C622 C625 1.383 . S
C622 C626 1.395 . S
C623 C624 1.396 . S
C623 C625 1.365 . S
C623 H640 0.929 . S
C624 C621 1.394 . S
C624 C623 1.396 . S
C624 H641 0.930 . S
C625 C622 1.383 . S
C625 C623 1.365 . S
C625 H642 0.931 . S
C626 C621 1.370 . S
C626 C622 1.395 . S
C626 H643 0.930 . S
C627 Gd574 2.805 . S
C627 O609 1.263 . S
C627 O610 1.252 . S
C627 C621 1.500 . S
C628 H590 0.930 . S
C628 C604 1.417 . S
C628 C629 1.329 . S
C629 C599 1.437 . S
C629 H600 0.929 . S
C629 C628 1.329 . S
H630 C603 0.931 . S
C631 O613 1.265 . S
C631 O614 1.242 . S
C632 O617 1.261 1_565 S
C632 O618 1.252 . S
C633 C636 1.394 . S
C633 C638 1.370 1_565 S
C633 C639 1.500 . S
C634 C637 1.383 1_545 S
C634 C638 1.395 . S
C635 C636 1.396 . S
C635 C637 1.365 . S
C635 H644 0.929 . S
C636 C633 1.394 . S
C636 C635 1.396 . S
C636 H645 0.930 . S
C637 C634 1.383 1_565 S
C637 C635 1.365 . S
C637 H646 0.931 . S
C638 C633 1.370 1_545 S
C638 C634 1.395 . S
C638 H647 0.930 . S
C639 Gd575 2.805 . S
C639 O615 1.263 . S
C639 O616 1.252 . S
C639 C633 1.500 . S
H640 C623 0.929 . S
H641 C624 0.930 . S
H642 C625 0.931 . S
H643 C626 0.930 . S
H644 C635 0.929 . S
H645 C636 0.930 . S
H646 C637 0.931 . S
H647 C638 0.930 . S
C648 C650 1.422 . S
C648 C652 1.415 . S
C648 N654 1.369 . S
C649 C650 1.421 . S
C649 C651 1.417 . S
C649 C661 1.422 . S
C650 C648 1.422 . S
C650 C649 1.421 . S
C650 N660 1.359 . S
C651 C649 1.417 . S
C651 C653 1.329 . S
C651 H670 0.930 . S
C652 C648 1.415 . S
C652 C653 1.437 . S
C652 C656 1.413 . S
C653 C651 1.329 . S
C653 C652 1.437 . S
C653 H675 0.929 . S
N654 C648 1.369 . S
N654 C655 1.338 . S
N654 Gd659 2.622 . S
C655 N654 1.338 . S
C655 C657 1.378 . S
C655 H667 0.929 . S
C656 C652 1.413 . S
C656 C657 1.348 . S
C656 H672 0.931 . S
C657 C655 1.378 . S
C657 C656 1.348 . S
C657 H673 0.930 . S
Gd658 N678 2.622 . S
Gd658 N685 2.570 . S
Gd658 O692 2.353 . S
Gd658 O693 2.468 . S
Gd658 O694 2.427 . S
Gd658 O696 2.388 . S
Gd658 O697 2.386 . S
Gd658 O701 2.307 . S
Gd658 C711 2.805 . S
Gd659 N654 2.622 . S
Gd659 N660 2.570 . S
Gd659 O691 2.386 . S
Gd659 O695 2.307 . S
Gd659 O698 2.353 . S
Gd659 O699 2.468 . S
Gd659 O700 2.427 . S
Gd659 O702 2.388 . S
Gd659 C723 2.805 . S
N660 C650 1.359 . S
N660 Gd659 2.570 . S
N660 C662 1.343 . S
C661 C649 1.422 . S
C661 C663 1.321 . S
C661 H669 0.931 . S
C662 N660 1.343 . S
C662 C663 1.390 . S
C662 H664 0.931 . S
C663 C661 1.321 . S
C663 C662 1.390 . S
C663 H665 0.930 . S
H664 C662 0.931 . S
H665 C663 0.930 . S
H666 C689 0.931 . S
H667 C655 0.929 . S
H668 C690 0.930 . S
H669 C661 0.931 . S
H670 C651 0.930 . S
H671 C680 0.929 . S
H672 C656 0.931 . S
H673 C657 0.930 . S
H674 C712 0.930 . S
H675 C653 0.929 . S
H676 C681 0.931 . S
H677 C682 0.930 . S
N678 Gd658 2.622 . S
N678 C679 1.369 . S
N678 C680 1.338 . S
C679 N678 1.369 . S
C679 C683 1.415 . S
C679 C686 1.422 . S
C680 H671 0.929 . S
C680 N678 1.338 . S
C680 C682 1.378 . S
C681 H676 0.931 . S
C681 C682 1.348 . S
C681 C683 1.413 . S
C682 H677 0.930 . S
C682 C680 1.378 . S
C682 C681 1.348 . S
C683 C679 1.415 . S
C683 C681 1.413 . S
C683 C713 1.437 . S
H684 C713 0.929 . S
N685 Gd658 2.570 . S
N685 C686 1.359 . S
N685 C689 1.343 . S
C686 C679 1.422 . S
C686 N685 1.359 . S
C686 C688 1.421 . S
C687 C688 1.422 . S
C687 C690 1.321 . S
C687 H714 0.931 . S
C688 C686 1.421 . S
C688 C687 1.422 . S
C688 C712 1.417 . S
C689 H666 0.931 . S
C689 N685 1.343 . S
C689 C690 1.390 . S
C690 H668 0.930 . S
C690 C687 1.321 . S
C690 C689 1.390 . S
O691 Gd659 2.386 . S
O691 C703 1.265 . S
O692 Gd658 2.353 . S
O692 C703 1.242 . S
O693 Gd658 2.468 . S
O693 C711 1.263 . S
O694 Gd658 2.427 . S
O694 C711 1.252 . S
O695 Gd659 2.307 . S
O695 C704 1.261 . S
O696 Gd658 2.388 . S
O696 C704 1.252 . S
O697 Gd658 2.386 . S
O697 C715 1.265 . S
O698 Gd659 2.353 . S
O698 C715 1.242 . S
O699 Gd659 2.468 . S
O699 C723 1.263 . S
O700 Gd659 2.427 . S
O700 C723 1.252 . S
O701 Gd658 2.307 . S
O701 C716 1.261 . S
O702 Gd659 2.388 . S
O702 C716 1.252 . S
C703 O691 1.265 . S
C703 O692 1.242 . S
C704 O695 1.261 . S
C704 O696 1.252 . S
C705 C708 1.394 . S
C705 C710 1.370 . S
C705 C711 1.500 . S
C706 C709 1.383 . S
C706 C710 1.395 . S
C707 C708 1.396 . S
C707 C709 1.365 . S
C707 H724 0.929 . S
C708 C705 1.394 . S
C708 C707 1.396 . S
C708 H725 0.930 . S
C709 C706 1.383 . S
C709 C707 1.365 . S
C709 H726 0.931 . S
C710 C705 1.370 . S
C710 C706 1.395 . S
C710 H727 0.930 . S
C711 Gd658 2.805 . S
C711 O693 1.263 . S
C711 O694 1.252 . S
C711 C705 1.500 . S
C712 H674 0.930 . S
C712 C688 1.417 . S
C712 C713 1.329 . S
C713 C683 1.437 . S
C713 H684 0.929 . S
C713 C712 1.329 . S
H714 C687 0.931 . S
C715 O697 1.265 . S
C715 O698 1.242 . S
C716 O701 1.261 . S
C716 O702 1.252 . S
C717 C720 1.394 . S
C717 C722 1.370 . S
C717 C723 1.500 . S
C718 C721 1.383 . S
C718 C722 1.395 . S
C719 C720 1.396 . S
C719 C721 1.365 . S
C719 H728 0.929 . S
C720 C717 1.394 . S
C720 C719 1.396 . S
C720 H729 0.930 . S
C721 C718 1.383 . S
C721 C719 1.365 . S
C721 H730 0.931 . S
C722 C717 1.370 . S
C722 C718 1.395 . S
C722 H731 0.930 . S
C723 Gd659 2.805 . S
C723 O699 1.263 . S
C723 O700 1.252 . S
C723 C717 1.500 . S
H724 C707 0.929 . S
H725 C708 0.930 . S
H726 C709 0.931 . S
H727 C710 0.930 . S
H728 C719 0.929 . S
H729 C720 0.930 . S
H730 C721 0.931 . S
H731 C722 0.930 . S
C732 C734 1.422 . S
C732 C736 1.415 . S
C732 N738 1.369 1_455 S
C733 C734 1.421 . S
C733 C735 1.417 . S
C733 C745 1.422 . S
C734 C732 1.422 . S
C734 C733 1.421 . S
C734 N744 1.375 . S
C735 C733 1.417 . S
C735 C737 1.329 . S
C735 H754 0.930 . S
C736 C732 1.415 . S
C736 C737 1.437 . S
C736 C740 1.413 . S
C737 C735 1.329 . S
C737 C736 1.437 . S
C737 H759 0.929 . S
N738 C732 1.369 1_655 S
N738 C739 1.338 . S
N738 Gd743 2.622 . S
C739 N738 1.338 . S
C739 C741 1.378 1_655 S
C739 H751 0.929 . S
C740 C736 1.413 . S
C740 C741 1.348 . S
C740 H756 0.931 . S
C741 C739 1.378 1_455 S
C741 C740 1.348 . S
C741 H757 0.926 1_455 S
Gd742 N762 2.622 . S
Gd742 N769 2.570 . S
Gd742 O776 2.353 . S
Gd742 O777 2.468 . S
Gd742 O778 2.427 . S
Gd742 O780 2.388 . S
Gd742 O781 2.386 1_455 S
Gd742 O785 2.307 . S
Gd742 C795 2.805 . S
Gd743 N738 2.622 . S
Gd743 N744 2.556 1_655 S
Gd743 O775 2.386 1_655 S
Gd743 O779 2.306 1_655 S
Gd743 O782 2.353 . S
Gd743 O783 2.468 . S
Gd743 O784 2.427 . S
Gd743 O786 2.388 . S
Gd743 C807 2.805 . S
N744 C734 1.375 . S
N744 Gd743 2.556 1_455 S
N744 C746 1.349 . S
C745 C733 1.422 . S
C745 C747 1.321 . S
C745 H753 0.931 . S
C746 N744 1.349 . S
C746 C747 1.390 . S
C746 H748 0.931 1_455 S
C747 C745 1.321 . S
C747 C746 1.390 . S
C747 H749 0.930 . S
H748 C746 0.931 1_655 S
H749 C747 0.930 . S
H750 C773 0.931 . S
H751 C739 0.929 . S
H752 C774 0.937 . S
H753 C745 0.931 . S
H754 C735 0.930 . S
H755 C764 0.929 . S
H756 C740 0.931 . S
H757 C741 0.926 1_655 S
H758 C796 0.930 . S
H759 C737 0.929 . S
H760 C765 0.914 1_655 S
H761 C766 0.930 . S
N762 Gd742 2.622 . S
N762 C763 1.369 . S
N762 C764 1.338 . S
C763 N762 1.369 . S
C763 C767 1.398 1_455 S
C763 C770 1.422 . S
C764 H755 0.929 . S
C764 N762 1.338 . S
C764 C766 1.378 . S
C765 H760 0.914 1_455 S
C765 C766 1.371 . S
C765 C767 1.409 1_455 S
C766 H761 0.930 . S
C766 C764 1.378 . S
C766 C765 1.371 . S
C767 C763 1.398 1_655 S
C767 C765 1.409 1_655 S
C767 C797 1.461 . S
H768 C797 0.929 . S
N769 Gd742 2.570 . S
N769 C770 1.359 . S
N769 C773 1.343 . S
C770 C763 1.422 . S
C770 N769 1.359 . S
C770 C772 1.421 1_455 S
C771 C772 1.422 . S
C771 C774 1.341 . S
C771 H798 0.931 . S
C772 C770 1.421 1_655 S
C772 C771 1.422 . S
C772 C796 1.417 . S
C773 H750 0.931 . S
C773 N769 1.343 . S
C773 C774 1.367 1_455 S
C774 H752 0.937 . S
C774 C771 1.341 . S
C774 C773 1.367 1_655 S
O775 Gd743 2.386 1_455 S
O775 C787 1.265 . S
O776 Gd742 2.353 . S
O776 C787 1.242 . S
O777 Gd742 2.468 . S
O777 C795 1.263 . S
O778 Gd742 2.427 . S
O778 C795 1.252 . S
O779 Gd743 2.306 1_455 S
O779 C788 1.262 . S
O780 Gd742 2.388 . S
O780 C788 1.252 . S
O781 Gd742 2.386 1_655 S
O781 C799 1.265 . S
O782 Gd743 2.353 . S
O782 C799 1.242 . S
O783 Gd743 2.468 . S
O783 C807 1.263 . S
O784 Gd743 2.427 . S
O784 C807 1.252 . S
O785 Gd742 2.307 . S
O785 C800 1.261 . S
O786 Gd743 2.388 . S
O786 C800 1.252 1_655 S
C787 O775 1.265 . S
C787 O776 1.242 . S
C788 O779 1.262 . S
C788 O780 1.252 . S
C789 C792 1.394 . S
C789 C794 1.370 . S
C789 C795 1.500 . S
C790 C793 1.383 . S
C790 C794 1.395 . S
C791 C792 1.396 . S
C791 C793 1.365 . S
C791 H808 0.929 . S
C792 C789 1.394 . S
C792 C791 1.396 . S
C792 H809 0.930 . S
C793 C790 1.383 . S
C793 C791 1.365 . S
C793 H810 0.931 . S
C794 C789 1.370 . S
C794 C790 1.395 . S
C794 H811 0.930 . S
C795 Gd742 2.805 . S
C795 O777 1.263 . S
C795 O778 1.252 . S
C795 C789 1.500 . S
C796 H758 0.930 . S
C796 C772 1.417 . S
C796 C797 1.329 . S
C797 C767 1.461 . S
C797 H768 0.929 . S
C797 C796 1.329 . S
H798 C771 0.931 . S
C799 O781 1.265 . S
C799 O782 1.242 . S
C800 O785 1.261 . S
C800 O786 1.252 1_455 S
C801 C804 1.394 . S
C801 C806 1.370 . S
C801 C807 1.500 . S
C802 C805 1.383 . S
C802 C806 1.395 . S
C803 C804 1.396 . S
C803 C805 1.365 . S
C803 H812 0.929 . S
C804 C801 1.394 . S
C804 C803 1.396 . S
C804 H813 0.930 . S
C805 C802 1.383 . S
C805 C803 1.365 . S
C805 H814 0.931 . S
C806 C801 1.370 . S
C806 C802 1.395 . S
C806 H815 0.930 . S
C807 Gd743 2.805 . S
C807 O783 1.263 . S
C807 O784 1.252 . S
C807 C801 1.500 . S
H808 C791 0.929 . S
H809 C792 0.930 . S
H810 C793 0.931 . S
H811 C794 0.930 . S
H812 C803 0.929 . S
H813 C804 0.930 . S
H814 C805 0.931 . S
H815 C806 0.930 . S
H816 C824 0.929 . S
H817 C826 0.930 . S
H818 C828 0.930 . S
H819 C831 0.929 . S
H820 C834 0.930 . S
H821 C836 0.960 . S
H822 C836 0.960 . S
H823 C836 0.960 . S
C824 H816 0.929 . S
C824 C825 1.377 . S
C824 C826 1.384 . S
C825 C824 1.377 . S
C825 C831 1.390 . S
C826 H817 0.930 . S
C826 C824 1.384 . S
C826 C827 1.372 . S
C827 C826 1.372 . S
C827 C828 1.400 . S
C827 C832 1.490 . S
C828 H818 0.930 . S
C828 C827 1.400 . S
C828 C831 1.386 . S
H829 C845 0.953 . S
H830 C846 0.931 . S
C831 H819 0.929 . S
C831 C825 1.390 . S
C831 C828 1.386 . S
C832 C827 1.490 . S
C832 C834 1.395 . S
C832 C835 1.403 . S
H833 C839 0.930 . S
C834 H820 0.930 . S
C834 C832 1.395 . S
C834 C837 1.403 . S
C835 C832 1.403 . S
C835 C836 1.524 . S
C835 C839 1.400 . S
C836 H821 0.960 . S
C836 H822 0.960 . S
C836 H823 0.960 . S
C836 C835 1.524 . S
C837 C834 1.403 . S
C837 C838 1.392 . S
C837 C841 1.495 . S
C838 C837 1.392 . S
C838 C839 1.385 . S
C838 C840 1.478 . S
C839 H833 0.930 . S
C839 C835 1.400 . S
C839 C838 1.385 . S
C840 C838 1.478 . S
C840 C842 1.381 . S
C840 C846 1.383 . S
C841 C837 1.495 . S
C841 H847 0.959 . S
C841 H848 0.961 1_545 S
C841 H849 0.960 . S
C842 C840 1.381 . S
C842 C843 1.394 . S
C842 H850 0.930 . S
C843 C842 1.394 . S
C843 C844 1.383 . S
C843 H851 0.929 . S
C844 C843 1.383 . S
C844 C845 1.377 . S
C845 H829 0.953 . S
C845 C844 1.377 . S
C845 C846 1.379 . S
C846 H830 0.931 . S
C846 C840 1.383 . S
C846 C845 1.379 . S
H847 C841 0.959 . S
H848 C841 0.961 1_565 S
H849 C841 0.960 . S
H850 C842 0.930 . S
H851 C843 0.929 . S
H852 C860 0.929 . S
H853 C862 0.930 . S
H854 C864 0.930 . S
H855 C867 0.929 . S
H856 C870 0.930 . S
H857 C872 0.960 . S
H858 C872 0.960 . S
H859 C872 0.960 . S
C860 H852 0.929 . S
C860 C861 1.377 . S
C860 C862 1.384 . S
C861 C860 1.377 . S
C861 C867 1.390 . S
C862 H853 0.930 . S
C862 C860 1.384 . S
C862 C863 1.372 . S
C863 C862 1.372 . S
C863 C864 1.400 . S
C863 C868 1.490 . S
C864 H854 0.930 . S
C864 C863 1.400 . S
C864 C867 1.386 . S
H865 C881 0.930 . S
H866 C882 0.931 . S
C867 H855 0.929 . S
C867 C861 1.390 . S
C867 C864 1.386 . S
C868 C863 1.490 . S
C868 C870 1.395 . S
C868 C871 1.403 . S
H869 C875 0.930 . S
C870 H856 0.930 . S
C870 C868 1.395 . S
C870 C873 1.403 . S
C871 C868 1.403 . S
C871 C872 1.524 . S
C871 C875 1.400 . S
C872 H857 0.960 . S
C872 H858 0.960 . S
C872 H859 0.960 . S
C872 C871 1.524 . S
C873 C870 1.403 . S
C873 C874 1.392 . S
C873 C877 1.495 . S
C874 C873 1.392 . S
C874 C875 1.385 . S
C874 C876 1.478 . S
C875 H869 0.930 . S
C875 C871 1.400 . S
C875 C874 1.385 . S
C876 C874 1.478 . S
C876 C878 1.381 . S
C876 C882 1.383 . S
C877 C873 1.495 . S
C877 H883 0.959 . S
C877 H884 0.961 . S
C877 H885 0.960 . S
C878 C876 1.381 . S
C878 C879 1.394 . S
C878 H886 0.930 . S
C879 C878 1.394 . S
C879 C880 1.383 . S
C879 H887 0.929 . S
C880 C879 1.383 . S
C880 C881 1.377 . S
C881 H865 0.930 . S
C881 C880 1.377 . S
C881 C882 1.379 . S
C882 H866 0.931 . S
C882 C876 1.383 . S
C882 C881 1.379 . S
H883 C877 0.959 . S
H884 C877 0.961 . S
H885 C877 0.960 . S
H886 C878 0.930 . S
H887 C879 0.929 . S
H888 C896 0.929 . S
H889 C898 0.930 . S
H890 C900 0.930 . S
H891 C903 0.929 . S
H892 C906 0.930 . S
H893 C908 0.960 . S
H894 C908 0.960 . S
H895 C908 0.960 . S
C896 H888 0.929 . S
C896 C897 1.377 . S
C896 C898 1.384 . S
C897 C896 1.377 . S
C897 C903 1.390 . S
C898 H889 0.930 . S
C898 C896 1.384 . S
C898 C899 1.372 . S
C899 C898 1.372 . S
C899 C900 1.400 . S
C899 C904 1.490 . S
C900 H890 0.930 . S
C900 C899 1.400 . S
C900 C903 1.386 . S
H901 C917 0.930 . S
H902 C918 0.931 . S
C903 H891 0.929 . S
C903 C897 1.390 . S
C903 C900 1.386 . S
C904 C899 1.490 . S
C904 C906 1.395 . S
C904 C907 1.403 . S
H905 C911 0.930 . S
C906 H892 0.930 . S
C906 C904 1.395 . S
C906 C909 1.403 . S
C907 C904 1.403 . S
C907 C908 1.524 . S
C907 C911 1.400 . S
C908 H893 0.960 . S
C908 H894 0.960 . S
C908 H895 0.960 . S
C908 C907 1.524 . S
C909 C906 1.403 . S
C909 C910 1.392 . S
C909 C913 1.495 . S
C910 C909 1.392 . S
C910 C911 1.385 . S
C910 C912 1.478 . S
C911 H905 0.930 . S
C911 C907 1.400 . S
C911 C910 1.385 . S
C912 C910 1.478 . S
C912 C914 1.381 . S
C912 C918 1.383 . S
C913 C909 1.495 . S
C913 H919 0.959 . S
C913 H920 0.961 . S
C913 H921 0.960 . S
C914 C912 1.381 . S
C914 C915 1.394 . S
C914 H922 0.930 . S
C915 C914 1.394 . S
C915 C916 1.383 . S
C915 H923 0.929 . S
C916 C915 1.383 . S
C916 C917 1.377 . S
C917 H901 0.930 . S
C917 C916 1.377 . S
C917 C918 1.379 . S
C918 H902 0.931 . S
C918 C912 1.383 . S
C918 C917 1.379 . S
H919 C913 0.959 . S
H920 C913 0.961 . S
H921 C913 0.960 . S
H922 C914 0.930 . S
H923 C915 0.929 . S
H924 C932 0.929 . S
H925 C934 0.930 . S
H926 C936 0.930 . S
H927 C939 0.929 . S
H928 C942 0.930 . S
H929 C944 0.960 . S
H930 C944 0.960 . S
H931 C944 0.960 . S
C932 H924 0.929 . S
C932 C933 1.377 . S
C932 C934 1.384 . S
C933 C932 1.377 . S
C933 C939 1.390 . S
C934 H925 0.930 . S
C934 C932 1.384 . S
C934 C935 1.372 . S
C935 C934 1.372 . S
C935 C936 1.400 . S
C935 C940 1.490 . S
C936 H926 0.930 . S
C936 C935 1.400 . S
C936 C939 1.386 . S
H937 C953 0.930 . S
H938 C954 0.931 . S
C939 H927 0.929 . S
C939 C933 1.390 . S
C939 C936 1.386 . S
C940 C935 1.490 . S
C940 C942 1.395 . S
C940 C943 1.403 . S
H941 C947 0.930 . S
C942 H928 0.930 . S
C942 C940 1.395 . S
C942 C945 1.403 . S
C943 C940 1.403 . S
C943 C944 1.524 . S
C943 C947 1.400 . S
C944 H929 0.960 . S
C944 H930 0.960 . S
C944 H931 0.960 . S
C944 C943 1.524 . S
C945 C942 1.403 . S
C945 C946 1.392 . S
C945 C949 1.495 1_455 S
C946 C945 1.392 . S
C946 C947 1.385 . S
C946 C948 1.478 . S
C947 H941 0.930 . S
C947 C943 1.400 . S
C947 C946 1.385 . S
C948 C946 1.478 . S
C948 C950 1.381 . S
C948 C954 1.383 . S
C949 C945 1.495 1_655 S
C949 H955 0.959 . S
C949 H956 0.961 . S
C949 H957 0.960 . S
C950 C948 1.381 . S
C950 C951 1.394 . S
C950 H958 0.930 . S
C951 C950 1.394 . S
C951 C952 1.383 . S
C951 H959 0.929 . S
C952 C951 1.383 . S
C952 C953 1.377 . S
C953 H937 0.930 . S
C953 C952 1.377 . S
C953 C954 1.379 . S
C954 H938 0.931 . S
C954 C948 1.383 . S
C954 C953 1.379 . S
H955 C949 0.959 . S
H956 C949 0.961 . S
H957 C949 0.960 . S
H958 C950 0.930 . S
H959 C951 0.929 . S
H960 C968 0.929 . S
H961 C970 0.930 . S
H962 C972 0.930 . S
H963 C975 0.929 . S
H964 C978 0.930 . S
H965 C980 0.951 1_545 S
H966 C980 0.960 1_545 S
H967 C980 0.960 . S
C968 H960 0.929 . S
C968 C969 1.377 . S
C968 C970 1.384 . S
C969 C968 1.377 . S
C969 C975 1.390 . S
C970 H961 0.930 . S
C970 C968 1.384 . S
C970 C971 1.372 1_554 S
C971 C970 1.372 1_556 S
C971 C972 1.400 . S
C971 C976 1.490 . S
C972 H962 0.930 . S
C972 C971 1.400 . S
C972 C975 1.386 1_556 S
H973 C989 0.930 . S
H974 C990 0.931 . S
C975 H963 0.929 . S
C975 C969 1.390 . S
C975 C972 1.386 1_554 S
C976 C971 1.490 . S
C976 C978 1.395 . S
C976 C979 1.403 . S
H977 C983 0.930 . S
C978 H964 0.930 . S
C978 C976 1.395 . S
C978 C981 1.403 . S
C979 C976 1.403 . S
C979 C980 1.524 . S
C979 C983 1.400 . S
C980 H965 0.951 1_565 S
C980 H966 0.960 1_565 S
C980 H967 0.960 . S
C980 C979 1.524 . S
C981 C978 1.403 . S
C981 C982 1.392 . S
C981 C985 1.495 . S
C982 C981 1.392 . S
C982 C983 1.385 . S
C982 C984 1.478 . S
C983 H977 0.930 . S
C983 C979 1.400 . S
C983 C982 1.385 . S
C984 C982 1.478 . S
C984 C986 1.394 . S
C984 C990 1.383 . S
C985 C981 1.495 . S
C985 H991 0.959 . S
C985 H992 0.961 . S
C985 H993 0.960 . S
C986 C984 1.394 . S
C986 C987 1.390 1_565 S
C986 H994 0.922 1_565 S
C987 C986 1.390 1_545 S
C987 C988 1.383 1_545 S
C987 H995 0.929 . S
C988 C987 1.383 1_565 S
C988 C989 1.377 . S
C989 H973 0.930 . S
C989 C988 1.377 . S
C989 C990 1.379 . S
C990 H974 0.931 . S
C990 C984 1.383 . S
C990 C989 1.379 . S
H991 C985 0.959 . S
H992 C985 0.961 . S
H993 C985 0.960 . S
H994 C986 0.922 1_545 S
H995 C987 0.929 . S
H996 C1004 0.929 . S
H997 C1006 0.930 . S
H998 C1008 0.930 . S
H999 C1011 0.929 . S
H1000 C1014 0.930 . S
H1001 C1016 0.960 . S
H1002 C1016 0.960 . S
H1003 C1016 0.960 . S
C1004 H996 0.929 . S
C1004 C1005 1.377 . S
C1004 C1006 1.384 . S
C1005 C1004 1.377 . S
C1005 C1011 1.390 . S
C1006 H997 0.930 . S
C1006 C1004 1.384 . S
C1006 C1007 1.372 1_554 S
C1007 C1006 1.372 1_556 S
C1007 C1008 1.400 . S
C1007 C1012 1.490 . S
C1008 H998 0.930 . S
C1008 C1007 1.400 . S
C1008 C1011 1.386 1_556 S
H1009 C1025 0.930 . S
H1010 C1026 0.931 . S
C1011 H999 0.929 . S
C1011 C1005 1.390 . S
C1011 C1008 1.386 1_554 S
C1012 C1007 1.490 . S
C1012 C1014 1.395 . S
C1012 C1015 1.403 . S
H1013 C1019 0.930 . S
C1014 H1000 0.930 . S
C1014 C1012 1.395 . S
C1014 C1017 1.403 . S
C1015 C1012 1.403 . S
C1015 C1016 1.524 . S
C1015 C1019 1.400 . S
C1016 H1001 0.960 . S
C1016 H1002 0.960 . S
C1016 H1003 0.960 . S
C1016 C1015 1.524 . S
C1017 C1014 1.403 . S
C1017 C1018 1.392 . S
C1017 C1021 1.495 . S
C1018 C1017 1.392 . S
C1018 C1019 1.385 . S
C1018 C1020 1.478 . S
C1019 H1013 0.930 . S
C1019 C1015 1.400 . S
C1019 C1018 1.385 . S
C1020 C1018 1.478 . S
C1020 C1022 1.381 . S
C1020 C1026 1.383 . S
C1021 C1017 1.495 . S
C1021 H1027 0.959 . S
C1021 H1028 0.961 . S
C1021 H1029 0.960 . S
C1022 C1020 1.381 . S
C1022 C1023 1.394 . S
C1022 H1030 0.930 . S
C1023 C1022 1.394 . S
C1023 C1024 1.383 . S
C1023 H1031 0.929 . S
C1024 C1023 1.383 . S
C1024 C1025 1.377 . S
C1025 H1009 0.930 . S
C1025 C1024 1.377 . S
C1025 C1026 1.379 . S
C1026 H1010 0.931 . S
C1026 C1020 1.383 . S
C1026 C1025 1.379 . S
H1027 C1021 0.959 . S
H1028 C1021 0.961 . S
H1029 C1021 0.960 . S
H1030 C1022 0.930 . S
H1031 C1023 0.929 . S
H1032 C1040 0.929 . S
H1033 C1042 0.930 . S
H1034 C1044 0.930 . S
H1035 C1047 0.929 . S
H1036 C1050 0.930 . S
H1037 C1052 0.960 . S
H1038 C1052 0.960 . S
H1039 C1052 0.960 . S
C1040 H1032 0.929 . S
C1040 C1041 1.377 . S
C1040 C1042 1.384 1_554 S
C1041 C1040 1.377 . S
C1041 C1047 1.390 . S
C1042 H1033 0.930 . S
C1042 C1040 1.384 1_556 S
C1042 C1043 1.372 . S
C1043 C1042 1.372 . S
C1043 C1044 1.400 1_556 S
C1043 C1048 1.490 . S
C1044 H1034 0.930 . S
C1044 C1043 1.400 1_554 S
C1044 C1047 1.386 . S
H1045 C1061 0.930 . S
H1046 C1062 0.931 . S
C1047 H1035 0.929 . S
C1047 C1041 1.390 . S
C1047 C1044 1.386 . S
C1048 C1043 1.490 . S
C1048 C1050 1.395 . S
C1048 C1051 1.403 . S
H1049 C1055 0.930 . S
C1050 H1036 0.930 . S
C1050 C1048 1.395 . S
C1050 C1053 1.403 . S
C1051 C1048 1.403 . S
C1051 C1052 1.524 . S
C1051 C1055 1.400 . S
C1052 H1037 0.960 . S
C1052 H1038 0.960 . S
C1052 H1039 0.960 . S
C1052 C1051 1.524 . S
C1053 C1050 1.403 . S
C1053 C1054 1.392 . S
C1053 C1057 1.495 . S
C1054 C1053 1.392 . S
C1054 C1055 1.385 . S
C1054 C1056 1.478 . S
C1055 H1049 0.930 . S
C1055 C1051 1.400 . S
C1055 C1054 1.385 . S
C1056 C1054 1.478 . S
C1056 C1058 1.381 . S
C1056 C1062 1.383 . S
C1057 C1053 1.495 . S
C1057 H1063 0.959 . S
C1057 H1064 0.961 . S
C1057 H1065 0.960 . S
C1058 C1056 1.381 . S
C1058 C1059 1.394 . S
C1058 H1066 0.930 . S
C1059 C1058 1.394 . S
C1059 C1060 1.383 . S
C1059 H1067 0.929 . S
C1060 C1059 1.383 . S
C1060 C1061 1.377 . S
C1061 H1045 0.930 . S
C1061 C1060 1.377 . S
C1061 C1062 1.379 . S
C1062 H1046 0.931 . S
C1062 C1056 1.383 . S
C1062 C1061 1.379 . S
H1063 C1057 0.959 . S
H1064 C1057 0.961 . S
H1065 C1057 0.960 . S
H1066 C1058 0.930 . S
H1067 C1059 0.929 . S
H1068 C1076 0.929 . S
H1069 C1078 0.930 . S
H1070 C1080 0.930 . S
H1071 C1083 0.929 . S
H1072 C1086 0.930 . S
H1073 C1088 0.961 . S
H1074 C1088 0.960 1_455 S
H1075 C1088 0.960 . S
C1076 H1068 0.929 . S
C1076 C1077 1.377 . S
C1076 C1078 1.384 . S
C1077 C1076 1.377 . S
C1077 C1083 1.390 . S
C1078 H1069 0.930 . S
C1078 C1076 1.384 . S
C1078 C1079 1.372 1_554 S
C1079 C1078 1.372 1_556 S
C1079 C1080 1.400 . S
C1079 C1084 1.490 . S
C1080 H1070 0.930 . S
C1080 C1079 1.400 . S
C1080 C1083 1.386 1_556 S
H1081 C1097 0.930 . S
H1082 C1098 0.931 . S
C1083 H1071 0.929 . S
C1083 C1077 1.390 . S
C1083 C1080 1.386 1_554 S
C1084 C1079 1.490 . S
C1084 C1086 1.395 . S
C1084 C1087 1.403 . S
H1085 C1091 0.930 . S
C1086 H1072 0.930 . S
C1086 C1084 1.395 . S
C1086 C1089 1.403 . S
C1087 C1084 1.403 . S
C1087 C1088 1.524 . S
C1087 C1091 1.400 . S
C1088 H1073 0.961 . S
C1088 H1074 0.960 1_655 S
C1088 H1075 0.960 . S
C1088 C1087 1.524 . S
C1089 C1086 1.403 . S
C1089 C1090 1.392 . S
C1089 C1093 1.495 . S
C1090 C1089 1.392 . S
C1090 C1091 1.385 . S
C1090 C1092 1.478 . S
C1091 H1085 0.930 . S
C1091 C1087 1.400 . S
C1091 C1090 1.385 . S
C1092 C1090 1.478 . S
C1092 C1094 1.381 1_655 S
C1092 C1098 1.383 . S
C1093 C1089 1.495 . S
C1093 H1099 0.959 . S
C1093 H1100 0.961 . S
C1093 H1101 0.960 . S
C1094 C1092 1.381 1_455 S
C1094 C1095 1.394 . S
C1094 H1102 0.930 . S
C1095 C1094 1.394 . S
C1095 C1096 1.383 1_455 S
C1095 H1103 0.929 . S
C1096 C1095 1.383 1_655 S
C1096 C1097 1.377 . S
C1097 H1081 0.930 . S
C1097 C1096 1.377 . S
C1097 C1098 1.379 . S
C1098 H1082 0.931 . S
C1098 C1092 1.383 . S
C1098 C1097 1.379 . S
H1099 C1093 0.959 . S
H1100 C1093 0.961 . S
H1101 C1093 0.960 . S
H1102 C1094 0.930 . S
H1103 C1095 0.929 . S
H1104 C1112 0.929 . S
H1105 C1114 0.930 . S
H1106 C1116 0.930 . S
H1107 C1119 0.929 . S
H1108 C1122 0.930 . S
H1109 C1124 0.960 . S
H1110 C1124 0.960 . S
H1111 C1124 0.960 . S
C1112 H1104 0.929 . S
C1112 C1113 1.377 . S
C1112 C1114 1.384 . S
C1113 C1112 1.377 . S
C1113 C1119 1.390 . S
C1114 H1105 0.930 . S
C1114 C1112 1.384 . S
C1114 C1115 1.372 . S
C1115 C1114 1.372 . S
C1115 C1116 1.400 . S
C1115 C1120 1.490 . S
C1116 H1106 0.930 . S
C1116 C1115 1.400 . S
C1116 C1119 1.386 . S
H1117 C1133 0.930 . S
H1118 C1134 0.931 . S
C1119 H1107 0.929 . S
C1119 C1113 1.390 . S
C1119 C1116 1.386 . S
C1120 C1115 1.490 . S
C1120 C1122 1.395 . S
C1120 C1123 1.403 . S
H1121 C1127 0.930 . S
C1122 H1108 0.930 . S
C1122 C1120 1.395 . S
C1122 C1125 1.403 . S
C1123 C1120 1.403 . S
C1123 C1124 1.524 . S
C1123 C1127 1.400 . S
C1124 H1109 0.960 . S
C1124 H1110 0.960 . S
C1124 H1111 0.960 . S
C1124 C1123 1.524 . S
C1125 C1122 1.403 . S
C1125 C1126 1.392 . S
C1125 C1129 1.495 1_455 S
C1126 C1125 1.392 . S
C1126 C1127 1.385 . S
C1126 C1128 1.478 . S
C1127 H1121 0.930 . S
C1127 C1123 1.400 . S
C1127 C1126 1.385 . S
C1128 C1126 1.478 . S
C1128 C1130 1.381 1_455 S
C1128 C1134 1.383 . S
C1129 C1125 1.495 1_655 S
C1129 H1135 0.959 . S
C1129 H1136 0.961 . S
C1129 H1137 0.960 . S
C1130 C1128 1.381 1_655 S
C1130 C1131 1.394 . S
C1130 H1138 0.930 . S
C1131 C1130 1.394 . S
C1131 C1132 1.383 1_655 S
C1131 H1139 0.929 . S
C1132 C1131 1.383 1_455 S
C1132 C1133 1.377 . S
C1133 H1117 0.930 . S
C1133 C1132 1.377 . S
C1133 C1134 1.379 . S
C1134 H1118 0.931 . S
C1134 C1128 1.383 . S
C1134 C1133 1.379 . S
H1135 C1129 0.959 . S
H1136 C1129 0.961 . S
H1137 C1129 0.960 . S
H1138 C1130 0.930 . S
H1139 C1131 0.929 . S
H1140 C1148 0.929 . S
H1141 C1150 0.930 . S
H1142 C1152 0.930 . S
H1143 C1155 0.929 . S
H1144 C1158 0.930 . S
H1145 C1160 0.960 1_565 S
H1146 C1160 0.960 . S
H1147 C1160 0.960 . S
C1148 H1140 0.929 . S
C1148 C1149 1.377 . S
C1148 C1150 1.384 . S
C1149 C1148 1.377 . S
C1149 C1155 1.390 . S
C1150 H1141 0.930 . S
C1150 C1148 1.384 . S
C1150 C1151 1.372 . S
C1151 C1150 1.372 . S
C1151 C1152 1.400 . S
C1151 C1156 1.490 . S
C1152 H1142 0.930 . S
C1152 C1151 1.400 . S
C1152 C1155 1.386 . S
H1153 C1169 0.930 . S
H1154 C1170 0.910 1_565 S
C1155 H1143 0.929 . S
C1155 C1149 1.390 . S
C1155 C1152 1.386 . S
C1156 C1151 1.490 . S
C1156 C1158 1.395 . S
C1156 C1159 1.403 . S
H1157 C1163 0.930 . S
C1158 H1144 0.930 . S
C1158 C1156 1.395 . S
C1158 C1161 1.403 . S
C1159 C1156 1.403 . S
C1159 C1160 1.524 . S
C1159 C1163 1.400 . S
C1160 H1145 0.960 1_545 S
C1160 H1146 0.960 . S
C1160 H1147 0.960 . S
C1160 C1159 1.524 . S
C1161 C1158 1.403 . S
C1161 C1162 1.392 . S
C1161 C1165 1.495 . S
C1162 C1161 1.392 . S
C1162 C1163 1.385 . S
C1162 C1164 1.478 . S
C1163 H1157 0.930 . S
C1163 C1159 1.400 . S
C1163 C1162 1.385 . S
C1164 C1162 1.478 . S
C1164 C1166 1.381 . S
C1164 C1170 1.419 . S
C1165 C1161 1.495 . S
C1165 H1171 0.959 . S
C1165 H1172 0.961 . S
C1165 H1173 0.960 . S
C1166 C1164 1.381 . S
C1166 C1167 1.394 . S
C1166 H1174 0.930 . S
C1167 C1166 1.394 . S
C1167 C1168 1.383 . S
C1167 H1175 0.929 . S
C1168 C1167 1.383 . S
C1168 C1169 1.377 1_545 S
C1169 H1153 0.930 . S
C1169 C1168 1.377 1_565 S
C1169 C1170 1.365 1_565 S
C1170 H1154 0.910 1_545 S
C1170 C1164 1.419 . S
C1170 C1169 1.365 1_545 S
H1171 C1165 0.959 . S
H1172 C1165 0.961 . S
H1173 C1165 0.960 . S
H1174 C1166 0.930 . S
H1175 C1167 0.929 . S
H1176 C1184 0.929 . S
H1177 C1186 0.930 . S
H1178 C1188 0.930 . S
H1179 C1191 0.929 . S
H1180 C1194 0.930 . S
H1181 C1196 0.960 . S
H1182 C1196 0.960 . S
H1183 C1196 0.960 . S
C1184 H1176 0.929 . S
C1184 C1185 1.377 . S
C1184 C1186 1.384 . S
C1185 C1184 1.377 . S
C1185 C1191 1.390 . S
C1186 H1177 0.930 . S
C1186 C1184 1.384 . S
C1186 C1187 1.372 . S
C1187 C1186 1.372 . S
C1187 C1188 1.400 . S
C1187 C1192 1.490 . S
C1188 H1178 0.930 . S
C1188 C1187 1.400 . S
C1188 C1191 1.386 . S
H1189 C1205 0.930 . S
H1190 C1206 0.931 . S
C1191 H1179 0.929 . S
C1191 C1185 1.390 . S
C1191 C1188 1.386 . S
C1192 C1187 1.490 . S
C1192 C1194 1.395 . S
C1192 C1195 1.403 . S
H1193 C1199 0.930 . S
C1194 H1180 0.930 . S
C1194 C1192 1.395 . S
C1194 C1197 1.403 . S
C1195 C1192 1.403 . S
C1195 C1196 1.524 . S
C1195 C1199 1.400 . S
C1196 H1181 0.960 . S
C1196 H1182 0.960 . S
C1196 H1183 0.960 . S
C1196 C1195 1.524 . S
C1197 C1194 1.403 . S
C1197 C1198 1.392 . S
C1197 C1201 1.495 . S
C1198 C1197 1.392 . S
C1198 C1199 1.385 . S
C1198 C1200 1.478 . S
C1199 H1193 0.930 . S
C1199 C1195 1.400 . S
C1199 C1198 1.385 . S
C1200 C1198 1.478 . S
C1200 C1202 1.381 . S
C1200 C1206 1.383 . S
C1201 C1197 1.495 . S
C1201 H1207 0.959 . S
C1201 H1208 0.961 . S
C1201 H1209 0.960 . S
C1202 C1200 1.381 . S
C1202 C1203 1.394 . S
C1202 H1210 0.930 . S
C1203 C1202 1.394 . S
C1203 C1204 1.383 . S
C1203 H1211 0.929 . S
C1204 C1203 1.383 . S
C1204 C1205 1.377 . S
C1205 H1189 0.930 . S
C1205 C1204 1.377 . S
C1205 C1206 1.379 . S
C1206 H1190 0.931 . S
C1206 C1200 1.383 . S
C1206 C1205 1.379 . S
H1207 C1201 0.959 . S
H1208 C1201 0.961 . S
H1209 C1201 0.960 . S
H1210 C1202 0.930 . S
H1211 C1203 0.929 . S
H1212 C1220 0.929 . S
H1213 C1222 0.930 . S
H1214 C1224 0.930 . S
H1215 C1227 0.929 . S
H1216 C1230 0.930 . S
H1217 C1232 0.960 . S
H1218 C1232 0.960 . S
H1219 C1232 0.960 . S
C1220 H1212 0.929 . S
C1220 C1221 1.377 . S
C1220 C1222 1.384 . S
C1221 C1220 1.377 . S
C1221 C1227 1.390 . S
C1222 H1213 0.930 . S
C1222 C1220 1.384 . S
C1222 C1223 1.372 . S
C1223 C1222 1.372 . S
C1223 C1224 1.400 . S
C1223 C1228 1.490 . S
C1224 H1214 0.930 . S
C1224 C1223 1.400 . S
C1224 C1227 1.386 . S
H1225 C1241 0.930 . S
H1226 C1242 0.931 . S
C1227 H1215 0.929 . S
C1227 C1221 1.390 . S
C1227 C1224 1.386 . S
C1228 C1223 1.490 . S
C1228 C1230 1.395 . S
C1228 C1231 1.403 . S
H1229 C1235 0.930 . S
C1230 H1216 0.930 . S
C1230 C1228 1.395 . S
C1230 C1233 1.403 . S
C1231 C1228 1.403 . S
C1231 C1232 1.524 . S
C1231 C1235 1.400 . S
C1232 H1217 0.960 . S
C1232 H1218 0.960 . S
C1232 H1219 0.960 . S
C1232 C1231 1.524 . S
C1233 C1230 1.403 . S
C1233 C1234 1.392 . S
C1233 C1237 1.495 . S
C1234 C1233 1.392 . S
C1234 C1235 1.385 . S
C1234 C1236 1.478 . S
C1235 H1229 0.930 . S
C1235 C1231 1.400 . S
C1235 C1234 1.385 . S
C1236 C1234 1.478 . S
C1236 C1238 1.381 . S
C1236 C1242 1.383 . S
C1237 C1233 1.495 . S
C1237 H1243 0.959 . S
C1237 H1244 0.961 . S
C1237 H1245 0.960 . S
C1238 C1236 1.381 . S
C1238 C1239 1.394 . S
C1238 H1246 0.930 . S
C1239 C1238 1.394 . S
C1239 C1240 1.383 . S
C1239 H1247 0.929 . S
C1240 C1239 1.383 . S
C1240 C1241 1.377 . S
C1241 H1225 0.930 . S
C1241 C1240 1.377 . S
C1241 C1242 1.379 . S
C1242 H1226 0.931 . S
C1242 C1236 1.383 . S
C1242 C1241 1.379 . S
H1243 C1237 0.959 . S
H1244 C1237 0.961 . S
H1245 C1237 0.960 . S
H1246 C1238 0.930 . S
H1247 C1239 0.929 . S
H1248 C1256 0.929 1_554 S
H1249 C1258 0.930 . S
H1250 C1260 0.930 . S
H1251 C1263 0.929 . S
H1252 C1266 0.930 . S
H1253 C1268 0.960 . S
H1254 C1268 0.959 . S
H1255 C1268 0.960 . S
C1256 H1248 0.929 1_556 S
C1256 C1257 1.377 1_556 S
C1256 C1258 1.384 . S
C1257 C1256 1.377 1_554 S
C1257 C1263 1.390 . S
C1258 H1249 0.930 . S
C1258 C1256 1.384 . S
C1258 C1259 1.372 . S
C1259 C1258 1.372 . S
C1259 C1260 1.400 . S
C1259 C1264 1.490 . S
C1260 H1250 0.930 . S
C1260 C1259 1.400 . S
C1260 C1263 1.386 1_556 S
H1261 C1277 0.930 . S
H1262 C1278 0.931 . S
C1263 H1251 0.929 . S
C1263 C1257 1.390 . S
C1263 C1260 1.386 1_554 S
C1264 C1259 1.490 . S
C1264 C1266 1.395 . S
C1264 C1267 1.403 . S
H1265 C1271 0.930 . S
C1266 H1252 0.930 . S
C1266 C1264 1.395 . S
C1266 C1269 1.403 . S
C1267 C1264 1.403 . S
C1267 C1268 1.525 1_556 S
C1267 C1271 1.400 . S
C1268 H1253 0.960 . S
C1268 H1254 0.959 . S
C1268 H1255 0.960 . S
C1268 C1267 1.525 1_554 S
C1269 C1266 1.403 . S
C1269 C1270 1.392 . S
C1269 C1273 1.495 . S
C1270 C1269 1.392 . S
C1270 C1271 1.385 . S
C1270 C1272 1.478 . S
C1271 H1265 0.930 . S
C1271 C1267 1.400 . S
C1271 C1270 1.385 . S
C1272 C1270 1.478 . S
C1272 C1274 1.381 1_655 S
C1272 C1278 1.383 . S
C1273 C1269 1.495 . S
C1273 H1279 0.959 . S
C1273 H1280 0.961 . S
C1273 H1281 0.960 1_655 S
C1274 C1272 1.381 1_455 S
C1274 C1275 1.394 . S
C1274 H1282 0.930 . S
C1275 C1274 1.394 . S
C1275 C1276 1.383 . S
C1275 H1283 0.929 . S
C1276 C1275 1.383 . S
C1276 C1277 1.377 1_455 S
C1277 H1261 0.930 . S
C1277 C1276 1.377 1_655 S
C1277 C1278 1.379 . S
C1278 H1262 0.931 . S
C1278 C1272 1.383 . S
C1278 C1277 1.379 . S
H1279 C1273 0.959 . S
H1280 C1273 0.961 . S
H1281 C1273 0.960 1_455 S
H1282 C1274 0.930 . S
H1283 C1275 0.929 . S
H1284 C1292 0.929 . S
H1285 C1294 0.930 . S
H1286 C1296 0.930 . S
H1287 C1299 0.928 1_554 S
H1288 C1302 0.930 . S
H1289 C1304 0.960 . S
H1290 C1304 0.960 . S
H1291 C1304 0.960 . S
C1292 H1284 0.929 . S
C1292 C1293 1.377 . S
C1292 C1294 1.384 1_554 S
C1293 C1292 1.377 . S
C1293 C1299 1.390 1_554 S
C1294 H1285 0.930 . S
C1294 C1292 1.384 1_556 S
C1294 C1295 1.372 . S
C1295 C1294 1.372 . S
C1295 C1296 1.400 . S
C1295 C1300 1.490 . S
C1296 H1286 0.930 . S
C1296 C1295 1.400 . S
C1296 C1299 1.386 . S
H1297 C1313 0.930 . S
H1298 C1314 0.931 . S
C1299 H1287 0.928 1_556 S
C1299 C1293 1.390 1_556 S
C1299 C1296 1.386 . S
C1300 C1295 1.490 . S
C1300 C1302 1.395 . S
C1300 C1303 1.403 . S
H1301 C1307 0.930 . S
C1302 H1288 0.930 . S
C1302 C1300 1.395 . S
C1302 C1305 1.403 . S
C1303 C1300 1.403 . S
C1303 C1304 1.524 . S
C1303 C1307 1.400 . S
C1304 H1289 0.960 . S
C1304 H1290 0.960 . S
C1304 H1291 0.960 . S
C1304 C1303 1.524 . S
C1305 C1302 1.403 . S
C1305 C1306 1.392 . S
C1305 C1309 1.495 . S
C1306 C1305 1.392 . S
C1306 C1307 1.385 . S
C1306 C1308 1.478 . S
C1307 H1301 0.930 . S
C1307 C1303 1.400 . S
C1307 C1306 1.385 . S
C1308 C1306 1.478 . S
C1308 C1310 1.381 . S
C1308 C1314 1.383 1_565 S
C1309 C1305 1.495 . S
C1309 H1315 0.959 . S
C1309 H1316 0.961 . S
C1309 H1317 0.960 . S
C1310 C1308 1.381 . S
C1310 C1311 1.394 . S
C1310 H1318 0.930 . S
C1311 C1310 1.394 . S
C1311 C1312 1.383 1_565 S
C1311 H1319 0.929 . S
C1312 C1311 1.383 1_545 S
C1312 C1313 1.377 . S
C1313 H1297 0.930 . S
C1313 C1312 1.377 . S
C1313 C1314 1.379 . S
C1314 H1298 0.931 . S
C1314 C1308 1.383 1_545 S
C1314 C1313 1.379 . S
H1315 C1309 0.959 . S
H1316 C1309 0.961 . S
H1317 C1309 0.960 . S
H1318 C1310 0.930 . S
H1319 C1311 0.929 . S
H1320 C1328 0.929 . S
H1321 C1330 0.930 . S
H1322 C1332 0.929 1_554 S
H1323 C1335 0.929 . S
H1324 C1338 0.930 . S
H1325 C1340 0.960 . S
H1326 C1340 0.960 . S
H1327 C1340 0.960 . S
C1328 H1320 0.929 . S
C1328 C1329 1.377 1_556 S
C1328 C1330 1.384 . S
C1329 C1328 1.377 1_554 S
C1329 C1335 1.390 . S
C1330 H1321 0.930 . S
C1330 C1328 1.384 . S
C1330 C1331 1.372 . S
C1331 C1330 1.372 . S
C1331 C1332 1.400 . S
C1331 C1336 1.490 . S
C1332 H1322 0.929 1_556 S
C1332 C1331 1.400 . S
C1332 C1335 1.386 1_556 S
H1333 C1349 0.930 . S
H1334 C1350 0.931 . S
C1335 H1323 0.929 . S
C1335 C1329 1.390 . S
C1335 C1332 1.386 1_554 S
C1336 C1331 1.490 . S
C1336 C1338 1.395 . S
C1336 C1339 1.403 . S
H1337 C1343 0.930 . S
C1338 H1324 0.930 . S
C1338 C1336 1.395 . S
C1338 C1341 1.403 . S
C1339 C1336 1.403 . S
C1339 C1340 1.524 1_556 S
C1339 C1343 1.400 . S
C1340 H1325 0.960 . S
C1340 H1326 0.960 . S
C1340 H1327 0.960 . S
C1340 C1339 1.524 1_554 S
C1341 C1338 1.403 . S
C1341 C1342 1.392 . S
C1341 C1345 1.495 . S
C1342 C1341 1.392 . S
C1342 C1343 1.385 . S
C1342 C1344 1.478 . S
C1343 H1337 0.930 . S
C1343 C1339 1.400 . S
C1343 C1342 1.385 . S
C1344 C1342 1.478 . S
C1344 C1346 1.381 . S
C1344 C1350 1.383 . S
C1345 C1341 1.495 . S
C1345 H1351 0.959 . S
C1345 H1352 0.961 . S
C1345 H1353 0.960 . S
C1346 C1344 1.381 . S
C1346 C1347 1.394 . S
C1346 H1354 0.930 . S
C1347 C1346 1.394 . S
C1347 C1348 1.383 . S
C1347 H1355 0.929 . S
C1348 C1347 1.383 . S
C1348 C1349 1.377 . S
C1349 H1333 0.930 . S
C1349 C1348 1.377 . S
C1349 C1350 1.379 . S
C1350 H1334 0.931 . S
C1350 C1344 1.383 . S
C1350 C1349 1.379 . S
H1351 C1345 0.959 . S
H1352 C1345 0.961 . S
H1353 C1345 0.960 . S
H1354 C1346 0.930 . S
H1355 C1347 0.929 . S
H1356 C1364 0.931 . S
H1357 C1366 0.930 . S
H1358 C1368 0.930 . S
H1359 C1371 0.929 . S
H1360 C1374 0.930 . S
H1361 C1376 0.960 . S
H1362 C1376 0.960 . S
H1363 C1376 0.960 . S
C1364 H1356 0.931 . S
C1364 C1365 1.377 1_556 S
C1364 C1366 1.384 . S
C1365 C1364 1.377 1_554 S
C1365 C1371 1.390 . S
C1366 H1357 0.930 . S
C1366 C1364 1.384 . S
C1366 C1367 1.372 . S
C1367 C1366 1.372 . S
C1367 C1368 1.400 . S
C1367 C1372 1.490 . S
C1368 H1358 0.930 . S
C1368 C1367 1.400 . S
C1368 C1371 1.386 1_556 S
H1369 C1385 0.930 . S
H1370 C1386 0.931 . S
C1371 H1359 0.929 . S
C1371 C1365 1.390 . S
C1371 C1368 1.386 1_554 S
C1372 C1367 1.490 . S
C1372 C1374 1.395 . S
C1372 C1375 1.403 . S
H1373 C1379 0.930 . S
C1374 H1360 0.930 . S
C1374 C1372 1.395 . S
C1374 C1377 1.403 . S
C1375 C1372 1.403 . S
C1375 C1376 1.524 1_556 S
C1375 C1379 1.400 . S
C1376 H1361 0.960 . S
C1376 H1362 0.960 . S
C1376 H1363 0.960 . S
C1376 C1375 1.524 1_554 S
C1377 C1374 1.403 . S
C1377 C1378 1.392 . S
C1377 C1381 1.495 . S
C1378 C1377 1.392 . S
C1378 C1379 1.385 . S
C1378 C1380 1.478 . S
C1379 H1373 0.930 . S
C1379 C1375 1.400 . S
C1379 C1378 1.385 . S
C1380 C1378 1.478 . S
C1380 C1382 1.381 . S
C1380 C1386 1.383 . S
C1381 C1377 1.495 . S
C1381 H1387 0.959 . S
C1381 H1388 0.961 . S
C1381 H1389 0.960 . S
C1382 C1380 1.381 . S
C1382 C1383 1.394 . S
C1382 H1390 0.930 . S
C1383 C1382 1.394 . S
C1383 C1384 1.383 . S
C1383 H1391 0.929 . S
C1384 C1383 1.383 . S
C1384 C1385 1.377 . S
C1385 H1369 0.930 . S
C1385 C1384 1.377 . S
C1385 C1386 1.379 . S
C1386 H1370 0.931 . S
C1386 C1380 1.383 . S
C1386 C1385 1.379 . S
H1387 C1381 0.959 . S
H1388 C1381 0.961 . S
H1389 C1381 0.960 . S
H1390 C1382 0.930 . S
H1391 C1383 0.929 . S
H1392 C1400 0.929 . S
H1393 C1402 0.930 . S
H1394 C1404 0.930 . S
H1395 C1407 0.929 . S
H1396 C1410 0.930 . S
H1397 C1412 1.006 . S
H1398 C1412 0.967 . S
H1399 C1412 0.960 . S
C1400 H1392 0.929 . S
C1400 C1401 1.377 . S
C1400 C1402 1.384 . S
C1401 C1400 1.377 . S
C1401 C1407 1.390 . S
C1402 H1393 0.930 . S
C1402 C1400 1.384 . S
C1402 C1403 1.372 . S
C1403 C1402 1.372 . S
C1403 C1404 1.400 . S
C1403 C1408 1.490 . S
C1404 H1394 0.930 . S
C1404 C1403 1.400 . S
C1404 C1407 1.386 . S
H1405 C1421 0.930 . S
H1406 C1422 0.931 . S
C1407 H1395 0.929 . S
C1407 C1401 1.390 . S
C1407 C1404 1.386 . S
C1408 C1403 1.490 . S
C1408 C1410 1.395 . S
C1408 C1411 1.403 . S
H1409 C1415 0.930 . S
C1410 H1396 0.930 . S
C1410 C1408 1.395 . S
C1410 C1413 1.403 . S
C1411 C1408 1.403 . S
C1411 C1412 1.474 1_455 S
C1411 C1415 1.400 . S
C1412 H1397 1.006 . S
C1412 H1398 0.967 . S
C1412 H1399 0.960 . S
C1412 C1411 1.474 1_655 S
C1413 C1410 1.403 . S
C1413 C1414 1.392 . S
C1413 C1417 1.495 . S
C1414 C1413 1.392 . S
C1414 C1415 1.385 . S
C1414 C1416 1.478 . S
C1415 H1409 0.930 . S
C1415 C1411 1.400 . S
C1415 C1414 1.385 . S
C1416 C1414 1.478 . S
C1416 C1418 1.381 . S
C1416 C1422 1.383 . S
C1417 C1413 1.495 . S
C1417 H1423 0.959 . S
C1417 H1424 0.961 . S
C1417 H1425 0.960 . S
C1418 C1416 1.381 . S
C1418 C1419 1.394 . S
C1418 H1426 0.930 . S
C1419 C1418 1.394 . S
C1419 C1420 1.383 . S
C1419 H1427 0.929 . S
C1420 C1419 1.383 . S
C1420 C1421 1.377 . S
C1421 H1405 0.930 . S
C1421 C1420 1.377 . S
C1421 C1422 1.379 . S
C1422 H1406 0.931 . S
C1422 C1416 1.383 . S
C1422 C1421 1.379 . S
H1423 C1417 0.959 . S
H1424 C1417 0.961 . S
H1425 C1417 0.960 . S
H1426 C1418 0.930 . S
H1427 C1419 0.929 . S
H1428 C1436 0.929 . S
H1429 C1438 0.930 . S
H1430 C1440 0.930 . S
H1431 C1443 0.929 . S
H1432 C1446 0.930 . S
H1433 C1448 0.960 . S
H1434 C1448 0.960 . S
H1435 C1448 0.960 . S
C1436 H1428 0.929 . S
C1436 C1437 1.377 . S
C1436 C1438 1.384 . S
C1437 C1436 1.377 . S
C1437 C1443 1.390 . S
C1438 H1429 0.930 . S
C1438 C1436 1.384 . S
C1438 C1439 1.372 . S
C1439 C1438 1.372 . S
C1439 C1440 1.400 . S
C1439 C1444 1.490 . S
C1440 H1430 0.930 . S
C1440 C1439 1.400 . S
C1440 C1443 1.386 . S
H1441 C1457 0.930 . S
H1442 C1458 0.931 . S
C1443 H1431 0.929 . S
C1443 C1437 1.390 . S
C1443 C1440 1.386 . S
C1444 C1439 1.490 . S
C1444 C1446 1.395 . S
C1444 C1447 1.403 . S
H1445 C1451 0.930 . S
C1446 H1432 0.930 . S
C1446 C1444 1.395 . S
C1446 C1449 1.403 . S
C1447 C1444 1.403 . S
C1447 C1448 1.524 . S
C1447 C1451 1.400 . S
C1448 H1433 0.960 . S
C1448 H1434 0.960 . S
C1448 H1435 0.960 . S
C1448 C1447 1.524 . S
C1449 C1446 1.403 . S
C1449 C1450 1.392 . S
C1449 C1453 1.495 1_545 S
C1450 C1449 1.392 . S
C1450 C1451 1.385 . S
C1450 C1452 1.478 . S
C1451 H1445 0.930 . S
C1451 C1447 1.400 . S
C1451 C1450 1.385 . S
C1452 C1450 1.478 . S
C1452 C1454 1.381 . S
C1452 C1458 1.383 . S
C1453 C1449 1.495 1_565 S
C1453 H1459 0.959 . S
C1453 H1460 0.961 . S
C1453 H1461 0.960 . S
C1454 C1452 1.381 . S
C1454 C1455 1.394 . S
C1454 H1462 0.930 . S
C1455 C1454 1.394 . S
C1455 C1456 1.383 . S
C1455 H1463 0.929 . S
C1456 C1455 1.383 . S
C1456 C1457 1.377 . S
C1457 H1441 0.930 . S
C1457 C1456 1.377 . S
C1457 C1458 1.379 . S
C1458 H1442 0.931 . S
C1458 C1452 1.383 . S
C1458 C1457 1.379 . S
H1459 C1453 0.959 . S
H1460 C1453 0.961 . S
H1461 C1453 0.960 . S
H1462 C1454 0.930 . S
H1463 C1455 0.929 . S
H1464 C1472 0.929 . S
H1465 C1474 0.930 . S
H1466 C1476 0.930 . S
H1467 C1479 0.929 . S
H1468 C1482 0.930 . S
H1469 C1484 0.960 . S
H1470 C1484 0.960 . S
H1471 C1484 0.960 . S
C1472 H1464 0.929 . S
C1472 C1473 1.377 . S
C1472 C1474 1.384 . S
C1473 C1472 1.377 . S
C1473 C1479 1.390 . S
C1474 H1465 0.930 . S
C1474 C1472 1.384 . S
C1474 C1475 1.372 . S
C1475 C1474 1.372 . S
C1475 C1476 1.400 . S
C1475 C1480 1.490 . S
C1476 H1466 0.930 . S
C1476 C1475 1.400 . S
C1476 C1479 1.386 . S
H1477 C1493 0.930 . S
H1478 C1494 0.931 . S
C1479 H1467 0.929 . S
C1479 C1473 1.390 . S
C1479 C1476 1.386 . S
C1480 C1475 1.490 . S
C1480 C1482 1.395 . S
C1480 C1483 1.403 . S
H1481 C1487 0.930 . S
C1482 H1468 0.930 . S
C1482 C1480 1.395 . S
C1482 C1485 1.403 . S
C1483 C1480 1.403 . S
C1483 C1484 1.524 . S
C1483 C1487 1.400 . S
C1484 H1469 0.960 . S
C1484 H1470 0.960 . S
C1484 H1471 0.960 . S
C1484 C1483 1.524 . S
C1485 C1482 1.403 . S
C1485 C1486 1.392 . S
C1485 C1489 1.495 . S
C1486 C1485 1.392 . S
C1486 C1487 1.385 . S
C1486 C1488 1.478 . S
C1487 H1481 0.930 . S
C1487 C1483 1.400 . S
C1487 C1486 1.385 . S
C1488 C1486 1.478 . S
C1488 C1490 1.381 . S
C1488 C1494 1.383 . S
C1489 C1485 1.495 . S
C1489 H1495 0.959 . S
C1489 H1496 0.961 . S
C1489 H1497 0.960 . S
C1490 C1488 1.381 . S
C1490 C1491 1.394 . S
C1490 H1498 0.930 . S
C1491 C1490 1.394 . S
C1491 C1492 1.383 . S
C1491 H1499 0.929 . S
C1492 C1491 1.383 . S
C1492 C1493 1.377 . S
C1493 H1477 0.930 . S
C1493 C1492 1.377 . S
C1493 C1494 1.379 . S
C1494 H1478 0.931 . S
C1494 C1488 1.383 . S
C1494 C1493 1.379 . S
H1495 C1489 0.959 . S
H1496 C1489 0.961 . S
H1497 C1489 0.960 . S
H1498 C1490 0.930 . S
H1499 C1491 0.929 . S
H1500 C1508 0.929 . S
H1501 C1510 0.930 . S
H1502 C1512 0.930 . S
H1503 C1515 0.929 . S
H1504 C1518 0.930 . S
H1505 C1520 0.960 . S
H1506 C1520 0.960 . S
H1507 C1520 0.960 . S
C1508 H1500 0.929 . S
C1508 C1509 1.377 . S
C1508 C1510 1.384 . S
C1509 C1508 1.377 . S
C1509 C1515 1.390 . S
C1510 H1501 0.930 . S
C1510 C1508 1.384 . S
C1510 C1511 1.372 . S
C1511 C1510 1.372 . S
C1511 C1512 1.400 . S
C1511 C1516 1.490 . S
C1512 H1502 0.930 . S
C1512 C1511 1.400 . S
C1512 C1515 1.386 . S
H1513 C1529 0.930 . S
H1514 C1530 0.931 . S
C1515 H1503 0.929 . S
C1515 C1509 1.390 . S
C1515 C1512 1.386 . S
C1516 C1511 1.490 . S
C1516 C1518 1.395 . S
C1516 C1519 1.403 . S
H1517 C1523 0.930 . S
C1518 H1504 0.930 . S
C1518 C1516 1.395 . S
C1518 C1521 1.403 . S
C1519 C1516 1.403 . S
C1519 C1520 1.524 . S
C1519 C1523 1.400 . S
C1520 H1505 0.960 . S
C1520 H1506 0.960 . S
C1520 H1507 0.960 . S
C1520 C1519 1.524 . S
C1521 C1518 1.403 . S
C1521 C1522 1.392 . S
C1521 C1525 1.495 . S
C1522 C1521 1.392 . S
C1522 C1523 1.385 . S
C1522 C1524 1.478 . S
C1523 H1517 0.930 . S
C1523 C1519 1.400 . S
C1523 C1522 1.385 . S
C1524 C1522 1.478 . S
C1524 C1526 1.381 . S
C1524 C1530 1.383 . S
C1525 C1521 1.495 . S
C1525 H1531 0.959 . S
C1525 H1532 0.961 . S
C1525 H1533 0.960 . S
C1526 C1524 1.381 . S
C1526 C1527 1.394 . S
C1526 H1534 0.930 . S
C1527 C1526 1.394 . S
C1527 C1528 1.383 . S
C1527 H1535 0.929 . S
C1528 C1527 1.383 . S
C1528 C1529 1.377 . S
C1529 H1513 0.930 . S
C1529 C1528 1.377 . S
C1529 C1530 1.379 . S
C1530 H1514 0.931 . S
C1530 C1524 1.383 . S
C1530 C1529 1.379 . S
H1531 C1525 0.959 . S
H1532 C1525 0.961 . S
H1533 C1525 0.960 . S
H1534 C1526 0.930 . S
H1535 C1527 0.929 . S
H1536 C1544 0.929 . S
H1537 C1546 0.930 . S
H1538 C1548 0.930 . S
H1539 C1551 0.929 . S
H1540 C1554 0.930 . S
H1541 C1556 0.960 . S
H1542 C1556 0.960 . S
H1543 C1556 0.960 . S
C1544 H1536 0.929 . S
C1544 C1545 1.377 . S
C1544 C1546 1.384 . S
C1545 C1544 1.377 . S
C1545 C1551 1.390 . S
C1546 H1537 0.930 . S
C1546 C1544 1.384 . S
C1546 C1547 1.372 . S
C1547 C1546 1.372 . S
C1547 C1548 1.400 . S
C1547 C1552 1.490 . S
C1548 H1538 0.930 . S
C1548 C1547 1.400 . S
C1548 C1551 1.386 . S
H1549 C1565 0.930 . S
H1550 C1566 0.931 . S
C1551 H1539 0.929 . S
C1551 C1545 1.390 . S
C1551 C1548 1.386 . S
C1552 C1547 1.490 . S
C1552 C1554 1.395 . S
C1552 C1555 1.403 . S
H1553 C1559 0.930 1_455 S
C1554 H1540 0.930 . S
C1554 C1552 1.395 . S
C1554 C1557 1.403 . S
C1555 C1552 1.403 . S
C1555 C1556 1.524 1_655 S
C1555 C1559 1.400 . S
C1556 H1541 0.960 . S
C1556 H1542 0.960 . S
C1556 H1543 0.960 . S
C1556 C1555 1.524 1_455 S
C1557 C1554 1.403 . S
C1557 C1558 1.392 . S
C1557 C1561 1.495 . S
C1558 C1557 1.392 . S
C1558 C1559 1.385 . S
C1558 C1560 1.478 . S
C1559 H1553 0.930 1_655 S
C1559 C1555 1.400 . S
C1559 C1558 1.385 . S
C1560 C1558 1.478 . S
C1560 C1562 1.381 . S
C1560 C1566 1.383 . S
C1561 C1557 1.495 . S
C1561 H1567 0.959 . S
C1561 H1568 0.961 . S
C1561 H1569 0.960 . S
C1562 C1560 1.381 . S
C1562 C1563 1.394 . S
C1562 H1570 0.930 . S
C1563 C1562 1.394 . S
C1563 C1564 1.383 . S
C1563 H1571 0.929 . S
C1564 C1563 1.383 . S
C1564 C1565 1.377 . S
C1565 H1549 0.930 . S
C1565 C1564 1.377 . S
C1565 C1566 1.379 . S
C1566 H1550 0.931 . S
C1566 C1560 1.383 . S
C1566 C1565 1.379 . S
H1567 C1561 0.959 . S
H1568 C1561 0.961 . S
H1569 C1561 0.960 . S
H1570 C1562 0.930 . S
H1571 C1563 0.929 . S
H1572 C1580 0.929 . S
H1573 C1582 0.930 . S
H1574 C1584 0.930 . S
H1575 C1587 0.929 . S
H1576 C1590 0.930 . S
H1577 C1592 0.960 . S
H1578 C1592 0.960 . S
H1579 C1592 0.960 . S
C1580 H1572 0.929 . S
C1580 C1581 1.377 . S
C1580 C1582 1.384 . S
C1581 C1580 1.377 . S
C1581 C1587 1.390 . S
C1582 H1573 0.930 . S
C1582 C1580 1.384 . S
C1582 C1583 1.372 . S
C1583 C1582 1.372 . S
C1583 C1584 1.400 . S
C1583 C1588 1.490 . S
C1584 H1574 0.930 . S
C1584 C1583 1.400 . S
C1584 C1587 1.386 . S
H1585 C1601 0.930 . S
H1586 C1602 0.918 1_545 S
C1587 H1575 0.929 . S
C1587 C1581 1.390 . S
C1587 C1584 1.386 . S
C1588 C1583 1.490 . S
C1588 C1590 1.395 . S
C1588 C1591 1.403 . S
H1589 C1595 0.930 . S
C1590 H1576 0.930 . S
C1590 C1588 1.395 . S
C1590 C1593 1.403 . S
C1591 C1588 1.403 . S
C1591 C1592 1.524 . S
C1591 C1595 1.400 . S
C1592 H1577 0.960 . S
C1592 H1578 0.960 . S
C1592 H1579 0.960 . S
C1592 C1591 1.524 . S
C1593 C1590 1.403 . S
C1593 C1594 1.392 . S
C1593 C1597 1.495 . S
C1594 C1593 1.392 . S
C1594 C1595 1.385 . S
C1594 C1596 1.478 . S
C1595 H1589 0.930 . S
C1595 C1591 1.400 . S
C1595 C1594 1.385 . S
C1596 C1594 1.478 . S
C1596 C1598 1.381 . S
C1596 C1602 1.399 . S
C1597 C1593 1.495 . S
C1597 H1603 0.959 . S
C1597 H1604 0.961 1_565 S
C1597 H1605 0.960 . S
C1598 C1596 1.381 . S
C1598 C1599 1.394 . S
C1598 H1606 0.930 . S
C1599 C1598 1.394 . S
C1599 C1600 1.383 . S
C1599 H1607 0.929 . S
C1600 C1599 1.383 . S
C1600 C1601 1.377 1_565 S
C1601 H1585 0.930 . S
C1601 C1600 1.377 1_545 S
C1601 C1602 1.376 1_545 S
C1602 H1586 0.918 1_565 S
C1602 C1596 1.399 . S
C1602 C1601 1.376 1_565 S
H1603 C1597 0.959 . S
H1604 C1597 0.961 1_545 S
H1605 C1597 0.960 . S
H1606 C1598 0.930 . S
H1607 C1599 0.929 . S
H1608 C1616 0.929 . S
H1609 C1618 0.930 . S
H1610 C1620 0.930 . S
H1611 C1623 0.929 . S
H1612 C1626 0.930 . S
H1613 C1628 0.960 . S
H1614 C1628 0.960 . S
H1615 C1628 0.960 . S
C1616 H1608 0.929 . S
C1616 C1617 1.377 . S
C1616 C1618 1.384 . S
C1617 C1616 1.377 . S
C1617 C1623 1.390 . S
C1618 H1609 0.930 . S
C1618 C1616 1.384 . S
C1618 C1619 1.372 . S
C1619 C1618 1.372 . S
C1619 C1620 1.400 . S
C1619 C1624 1.490 . S
C1620 H1610 0.930 . S
C1620 C1619 1.400 . S
C1620 C1623 1.386 . S
H1621 C1637 0.930 . S
H1622 C1638 0.931 . S
C1623 H1611 0.929 . S
C1623 C1617 1.390 . S
C1623 C1620 1.386 . S
C1624 C1619 1.490 . S
C1624 C1626 1.395 . S
C1624 C1627 1.403 . S
H1625 C1631 0.930 . S
C1626 H1612 0.930 . S
C1626 C1624 1.395 . S
C1626 C1629 1.403 . S
C1627 C1624 1.403 . S
C1627 C1628 1.524 . S
C1627 C1631 1.400 . S
C1628 H1613 0.960 . S
C1628 H1614 0.960 . S
C1628 H1615 0.960 . S
C1628 C1627 1.524 . S
C1629 C1626 1.403 . S
C1629 C1630 1.392 . S
C1629 C1633 1.495 . S
C1630 C1629 1.392 . S
C1630 C1631 1.385 . S
C1630 C1632 1.478 . S
C1631 H1625 0.930 . S
C1631 C1627 1.400 . S
C1631 C1630 1.385 . S
C1632 C1630 1.478 . S
C1632 C1634 1.381 . S
C1632 C1638 1.383 . S
C1633 C1629 1.495 . S
C1633 H1639 0.959 . S
C1633 H1640 0.961 . S
C1633 H1641 0.960 . S
C1634 C1632 1.381 . S
C1634 C1635 1.394 . S
C1634 H1642 0.930 . S
C1635 C1634 1.394 . S
C1635 C1636 1.383 . S
C1635 H1643 0.929 . S
C1636 C1635 1.383 . S
C1636 C1637 1.377 . S
C1637 H1621 0.930 . S
C1637 C1636 1.377 . S
C1637 C1638 1.379 . S
C1638 H1622 0.931 . S
C1638 C1632 1.383 . S
C1638 C1637 1.379 . S
H1639 C1633 0.959 . S
H1640 C1633 0.961 . S
H1641 C1633 0.960 . S
H1642 C1634 0.930 . S
H1643 C1635 0.929 . S
H1644 C1652 0.929 . S
H1645 C1654 0.930 . S
H1646 C1656 0.930 . S
H1647 C1659 0.929 . S
H1648 C1662 0.930 . S
H1649 C1664 0.960 . S
H1650 C1664 0.960 . S
H1651 C1664 0.960 . S
C1652 H1644 0.929 . S
C1652 C1653 1.377 . S
C1652 C1654 1.384 . S
C1653 C1652 1.377 . S
C1653 C1659 1.390 . S
C1654 H1645 0.930 . S
C1654 C1652 1.384 . S
C1654 C1655 1.372 . S
C1655 C1654 1.372 . S
C1655 C1656 1.400 . S
C1655 C1660 1.490 . S
C1656 H1646 0.930 . S
C1656 C1655 1.400 . S
C1656 C1659 1.386 . S
H1657 C1673 0.930 . S
H1658 C1674 0.931 . S
C1659 H1647 0.929 . S
C1659 C1653 1.390 . S
C1659 C1656 1.386 . S
C1660 C1655 1.490 . S
C1660 C1662 1.395 . S
C1660 C1663 1.403 . S
H1661 C1667 0.930 . S
C1662 H1648 0.930 . S
C1662 C1660 1.395 . S
C1662 C1665 1.403 . S
C1663 C1660 1.403 . S
C1663 C1664 1.524 . S
C1663 C1667 1.400 . S
C1664 H1649 0.960 . S
C1664 H1650 0.960 . S
C1664 H1651 0.960 . S
C1664 C1663 1.524 . S
C1665 C1662 1.403 . S
C1665 C1666 1.392 . S
C1665 C1669 1.495 . S
C1666 C1665 1.392 . S
C1666 C1667 1.385 . S
C1666 C1668 1.478 . S
C1667 H1661 0.930 . S
C1667 C1663 1.400 . S
C1667 C1666 1.385 . S
C1668 C1666 1.478 . S
C1668 C1670 1.381 . S
C1668 C1674 1.383 . S
C1669 C1665 1.495 . S
C1669 H1675 0.959 . S
C1669 H1676 0.961 . S
C1669 H1677 0.960 . S
C1670 C1668 1.381 . S
C1670 C1671 1.394 . S
C1670 H1678 0.930 . S
C1671 C1670 1.394 . S
C1671 C1672 1.383 . S
C1671 H1679 0.929 . S
C1672 C1671 1.383 . S
C1672 C1673 1.377 . S
C1673 H1657 0.930 . S
C1673 C1672 1.377 . S
C1673 C1674 1.379 . S
C1674 H1658 0.931 . S
C1674 C1668 1.383 . S
C1674 C1673 1.379 . S
H1675 C1669 0.959 . S
H1676 C1669 0.961 . S
H1677 C1669 0.960 . S
H1678 C1670 0.930 . S
H1679 C1671 0.929 . S
C825 C391 2.172 . S
C844 C548 2.170 . S
C880 C631 2.205 . S
C861 C451 2.191 . S
C916 C716 2.184 . S
C897 C241 1.896 . S
C952 C800 2.142 . S
C933 C331 1.892 . S
C988 C536 2.179 1_565 S
C969 C121 1.954 . S
C1005 C211 2.154 . S
C1024 C619 2.192 . S
C1041 C31 2.127 . S
C1060 C704 2.167 . S
C1077 C91 1.923 . S
C1096 C788 2.147 1_655 S
C1132 C538 0.416 1_455 S
C1113 C301 0.491 . S
C1168 C634 0.610 . S
C1149 C380 0.210 . S
C1204 C706 0.452 . S
C1185 C440 0.243 . S
C1221 C260 0.462 . S
C1240 C790 0.507 . S
C1257 C61 0.371 . S
C1276 C550 0.394 . S
C1312 C622 0.429 . S
C1293 C140 0.389 . S
C1348 C718 0.432 . S
C1329 C200 0.372 . S
C1365 C20 0.357 . S
C1384 C802 0.399 . S
C1401 C320 2.519 . S
C1420 C535 2.645 . S
C1437 C361 2.220 . S
C1456 C620 2.651 . S
C1492 C703 2.666 . S
C1473 C421 2.264 . S
C1528 C787 2.676 . S
C1509 C271 2.549 . S
C1545 C80 2.542 . S
C1564 C547 2.646 . S
C1600 C632 2.654 . S
C1581 C151 2.532 . S
C1636 C715 2.679 . S
C1617 C181 2.235 . S
C1653 C1 2.239 . S
C1672 C799 2.685 . S
