# Generated by pormake.
# Topology ant, (3,6)-cn, num edge types: 1
# Building blocks:
#     Node 0, Type 0, BuildingBlock: QEWDON_clean_linker_0, # of connection points: 3
#     Node 1, Type 0, BuildingBlock: QEWDON_clean_linker_0, # of connection points: 3
#     Node 2, Type 0, BuildingBlock: QEWDON_clean_linker_0, # of connection points: 3
#     Node 3, Type 0, BuildingBlock: QEWDON_clean_linker_0, # of connection points: 3
#     Node 4, Type 0, BuildingBlock: QEWDON_clean_linker_0, # of connection points: 3
#     Node 5, Type 0, BuildingBlock: QEWDON_clean_linker_0, # of connection points: 3
#     Node 6, Type 0, BuildingBlock: QEWDON_clean_linker_0, # of connection points: 3
#     Node 7, Type 0, BuildingBlock: QEWDON_clean_linker_0, # of connection points: 3
#     Node 8, Type 1, BuildingBlock: MIDCAF_clean_sbu_0, # of connection points: 6
#     Node 9, Type 1, BuildingBlock: MIDCAF_clean_sbu_0, # of connection points: 6
#     Node 10, Type 1, BuildingBlock: MIDCAF_clean_sbu_0, # of connection points: 6
#     Node 11, Type 1, BuildingBlock: MIDCAF_clean_sbu_0, # of connection points: 6
#     Edge 12, Type (0, 1), BuildingBlock: CIFDUS_clean_linker_0, # of connection points: 2
#     Edge 13, Type (0, 1), BuildingBlock: CIFDUS_clean_linker_0, # of connection points: 2
#     Edge 14, Type (0, 1), BuildingBlock: CIFDUS_clean_linker_0, # of connection points: 2
#     Edge 15, Type (0, 1), BuildingBlock: CIFDUS_clean_linker_0, # of connection points: 2
#     Edge 16, Type (0, 1), BuildingBlock: CIFDUS_clean_linker_0, # of connection points: 2
#     Edge 17, Type (0, 1), BuildingBlock: CIFDUS_clean_linker_0, # of connection points: 2
#     Edge 18, Type (0, 1), BuildingBlock: CIFDUS_clean_linker_0, # of connection points: 2
#     Edge 19, Type (0, 1), BuildingBlock: CIFDUS_clean_linker_0, # of connection points: 2
#     Edge 20, Type (0, 1), BuildingBlock: CIFDUS_clean_linker_0, # of connection points: 2
#     Edge 21, Type (0, 1), BuildingBlock: CIFDUS_clean_linker_0, # of connection points: 2
#     Edge 22, Type (0, 1), BuildingBlock: CIFDUS_clean_linker_0, # of connection points: 2
#     Edge 23, Type (0, 1), BuildingBlock: CIFDUS_clean_linker_0, # of connection points: 2
#     Edge 24, Type (0, 1), BuildingBlock: CIFDUS_clean_linker_0, # of connection points: 2
#     Edge 25, Type (0, 1), BuildingBlock: CIFDUS_clean_linker_0, # of connection points: 2
#     Edge 26, Type (0, 1), BuildingBlock: CIFDUS_clean_linker_0, # of connection points: 2
#     Edge 27, Type (0, 1), BuildingBlock: CIFDUS_clean_linker_0, # of connection points: 2
#     Edge 28, Type (0, 1), BuildingBlock: CIFDUS_clean_linker_0, # of connection points: 2
#     Edge 29, Type (0, 1), BuildingBlock: CIFDUS_clean_linker_0, # of connection points: 2
#     Edge 30, Type (0, 1), BuildingBlock: CIFDUS_clean_linker_0, # of connection points: 2
#     Edge 31, Type (0, 1), BuildingBlock: CIFDUS_clean_linker_0, # of connection points: 2
#     Edge 32, Type (0, 1), BuildingBlock: CIFDUS_clean_linker_0, # of connection points: 2
#     Edge 33, Type (0, 1), BuildingBlock: CIFDUS_clean_linker_0, # of connection points: 2
#     Edge 34, Type (0, 1), BuildingBlock: CIFDUS_clean_linker_0, # of connection points: 2
#     Edge 35, Type (0, 1), BuildingBlock: CIFDUS_clean_linker_0, # of connection points: 2
# Relax obj value: 0.063
# Max RMSD: 0.160
# Mean RMSD: 0.126
data_MOF--net-ant--node1-MIDCAF_clean_sbu_0--node2-QEWDON_clean_linker_0--edge1-CIFDUS_clean_linker_0
_symmetry_space_group_name_H-M    P1
_symmetry_Int_Tables_number       1
_symmetry_cell_setting            triclinic
loop_
_symmetry_equiv_pos_as_xyz
'x, y, z'
_cell_length_a     26.928565
_cell_length_b     26.910101
_cell_length_c     61.036729
_cell_angle_alpha  97.210778
_cell_angle_beta   101.01444
_cell_angle_gamma 89.634451
loop_
_atom_site_label
_atom_site_type_symbol
_atom_site_fract_x
_atom_site_fract_y
_atom_site_fract_z
_atom_type_partial_charge
H0 H 0.15845 0.19325 0.06196 0.0
C1 C 0.15333 0.23306 0.06592 0.0
C2 C 0.14568 0.26242 0.04825 0.0
C3 C 0.15427 0.25477 0.08825 0.0
H4 H 0.12988 0.336 0.03858 0.0
C5 C 0.13647 0.31377 0.05245 0.0
C6 C 0.13628 0.33634 0.07446 0.0
C7 C 0.1467 0.30676 0.09224 0.0
C8 C 0.16163 0.22311 0.10715 0.0
H9 H 0.14973 0.32481 0.10932 0.0
C10 C 0.18755 0.17737 0.10564 0.0
C11 C 0.1879 0.14382 0.12166 0.0
C12 C 0.13989 0.23667 0.12625 0.0
H13 H 0.11851 0.27059 0.12807 0.0
C14 C 0.14351 0.20546 0.14305 0.0
H15 H 0.2064 0.16688 0.09166 0.0
C16 C 0.16653 0.15909 0.14068 0.0
H17 H 0.16512 0.13433 0.15322 0.0
H18 H 0.12622 0.21626 0.15752 0.0
H19 H 0.04421 0.78694 0.30163 0.0
C20 C 0.08161 0.78115 0.31118 0.0
C21 C 0.11827 0.7581 0.30005 0.0
C22 C 0.09347 0.79735 0.33447 0.0
H23 H 0.19574 0.73474 0.3034 0.0
C24 C 0.16717 0.75203 0.31208 0.0
C25 C 0.17996 0.76852 0.33511 0.0
C26 C 0.14304 0.79069 0.34638 0.0
C27 C 0.05487 0.82336 0.34603 0.0
H28 H 0.15292 0.80259 0.36433 0.0
C29 C 0.00385 0.8065 0.34123 0.0
C30 C 0.96723 0.83322 0.35138 0.0
C31 C 0.06872 0.86669 0.36141 0.0
H32 H 0.10732 0.881 0.36521 0.0
C33 C 0.03267 0.89289 0.37164 0.0
H34 H 0.99254 0.77301 0.32951 0.0
C35 C 0.98231 0.87649 0.36664 0.0
H36 H 0.95513 0.89742 0.37493 0.0
H37 H 0.04375 0.92627 0.38341 0.0
H38 H 0.6436 0.692 0.55859 0.0
C39 C 0.6436 0.73226 0.563 0.0
C40 C 0.62316 0.76217 0.54631 0.0
C41 C 0.6617 0.75387 0.58536 0.0
H42 H 0.60367 0.83751 0.53945 0.0
C43 C 0.62003 0.81421 0.55213 0.0
C44 C 0.63735 0.83633 0.57428 0.0
C45 C 0.65943 0.80614 0.59056 0.0
C46 C 0.67938 0.72187 0.60357 0.0
H47 H 0.67461 0.82372 0.60745 0.0
C48 C 0.70249 0.67557 0.59898 0.0
C49 C 0.71182 0.64167 0.61513 0.0
C50 C 0.6698 0.73581 0.62538 0.0
H51 H 0.6511 0.77041 0.62962 0.0
C52 C 0.68214 0.70417 0.64191 0.0
H53 H 0.71191 0.66539 0.58257 0.0
C54 C 0.70208 0.6572 0.63681 0.0
H55 H 0.70729 0.6324 0.64967 0.0
H56 H 0.67398 0.71515 0.65852 0.0
H57 H 0.56294 0.31642 0.79767 0.0
C58 C 0.60067 0.31615 0.8078 0.0
C59 C 0.64088 0.29827 0.79772 0.0
C60 C 0.60902 0.33318 0.83097 0.0
H61 H 0.72069 0.28371 0.80286 0.0
C62 C 0.68969 0.2982 0.81069 0.0
C63 C 0.69872 0.31508 0.83376 0.0
C64 C 0.65827 0.3324 0.84395 0.0
C65 C 0.56613 0.35174 0.84147 0.0
H66 H 0.66495 0.34445 0.86191 0.0
C67 C 0.52104 0.32313 0.83795 0.0
C68 C 0.47958 0.3417 0.84718 0.0
C69 C 0.56962 0.39883 0.85454 0.0
H70 H 0.60388 0.42152 0.85738 0.0
C71 C 0.52843 0.41753 0.8636 0.0
H72 H 0.51825 0.28648 0.82808 0.0
C73 C 0.48361 0.38932 0.8599 0.0
H74 H 0.45241 0.40428 0.86741 0.0
H75 H 0.53128 0.45399 0.87356 0.0
H76 H 0.04401 0.76188 0.93797 0.0
C77 C 0.04539 0.72545 0.92829 0.0
C78 C 0.06571 0.68493 0.93935 0.0
C79 C 0.02486 0.7188 0.90511 0.0
H80 H 0.08062 0.60584 0.93541 0.0
C81 C 0.06459 0.63724 0.9271 0.0
C82 C 0.04486 0.62996 0.90397 0.0
C83 C 0.02571 0.67073 0.89294 0.0
C84 C 0.99962 0.76118 0.89406 0.0
H85 H 0.0112 0.66477 0.87496 0.0
C86 C 0.01889 0.8109 0.89988 0.0
C87 C 0.99206 0.85088 0.8906 0.0
C88 C 0.95396 0.75224 0.87839 0.0
H89 H 0.93756 0.71487 0.87385 0.0
C90 C 0.9279 0.79164 0.86891 0.0
H91 H 0.05414 0.81867 0.9118 0.0
C92 C 0.94655 0.84058 0.87503 0.0
H93 H 0.92549 0.87055 0.86743 0.0
H94 H 0.89272 0.78426 0.85694 0.0
H95 H 0.69355 0.79866 0.20616 0.0
C96 C 0.65624 0.80042 0.19579 0.0
C97 C 0.61539 0.77485 0.20078 0.0
C98 C 0.64908 0.82834 0.17747 0.0
H99 H 0.53531 0.75818 0.1911 0.0
C100 C 0.56727 0.77756 0.18732 0.0
C101 C 0.55965 0.80515 0.16903 0.0
C102 C 0.60053 0.8307 0.16411 0.0
C103 C 0.69256 0.85488 0.17239 0.0
H104 H 0.59477 0.85154 0.14976 0.0
C105 C 0.73674 0.82885 0.16945 0.0
C106 C 0.77856 0.85412 0.16501 0.0
C107 C 0.69034 0.90644 0.17079 0.0
H108 H 0.65667 0.92715 0.17304 0.0
C109 C 0.73201 0.93183 0.16669 0.0
H110 H 0.73841 0.78891 0.17046 0.0
C111 C 0.77592 0.90596 0.16386 0.0
H112 H 0.80737 0.92625 0.16021 0.0
H113 H 0.73017 0.97165 0.16558 0.0
H114 H 0.53639 0.24206 0.43525 0.0
C115 C 0.53349 0.20538 0.42542 0.0
C116 C 0.55311 0.16388 0.43588 0.0
C117 C 0.50845 0.19961 0.40281 0.0
H118 H 0.56216 0.0839 0.43165 0.0
C119 C 0.54665 0.11596 0.42371 0.0
C120 C 0.52269 0.10934 0.40102 0.0
C121 C 0.50425 0.1512 0.39053 0.0
C122 C 0.48397 0.24353 0.39266 0.0
H123 H 0.48644 0.14585 0.37289 0.0
C124 C 0.50612 0.29225 0.39814 0.0
C125 C 0.47996 0.33391 0.3901 0.0
C126 C 0.4361 0.23733 0.37845 0.0
H127 H 0.41747 0.2009 0.37422 0.0
C128 C 0.41068 0.27833 0.37014 0.0
H129 H 0.54311 0.298 0.40889 0.0
C130 C 0.43217 0.32625 0.376 0.0
H131 H 0.41152 0.35748 0.36934 0.0
H132 H 0.37378 0.27302 0.35931 0.0
H133 H 0.20589 0.28765 0.70245 0.0
C134 C 0.16946 0.28548 0.6911 0.0
C135 C 0.12968 0.25741 0.69563 0.0
C136 C 0.16207 0.31172 0.67226 0.0
H137 H 0.05154 0.2339 0.68428 0.0
C138 C 0.08279 0.25494 0.68082 0.0
C139 C 0.07489 0.28118 0.66207 0.0
C140 C 0.11437 0.31005 0.6579 0.0
C141 C 0.20419 0.34142 0.66785 0.0
H142 H 0.10828 0.33037 0.64339 0.0
C143 C 0.25006 0.31844 0.6652 0.0
C144 C 0.29038 0.34656 0.66105 0.0
C145 C 0.19882 0.39287 0.66646 0.0
H146 H 0.16376 0.41122 0.6685 0.0
C147 C 0.23902 0.42116 0.66278 0.0
H148 H 0.25409 0.27859 0.66611 0.0
C149 C 0.28454 0.39827 0.6601 0.0
H150 H 0.31468 0.42078 0.65665 0.0
H151 H 0.23474 0.46089 0.6618 0.0
Zn152 Zn 0.20652 0.6875 0.14628 0.0
Zn153 Zn 0.09189 0.79646 0.10183 0.0
Zn154 Zn 0.15066 0.74647 0.12381 0.0
C155 C 0.11574 0.72545 0.0707 0.0
C156 C 0.17338 0.85896 0.1195 0.0
O157 O 0.12165 0.74406 0.15513 0.0
O158 O 0.18259 0.70368 0.17501 0.0
C159 C 0.15818 0.62698 0.1092 0.0
O160 O 0.13063 0.70558 0.08894 0.0
O161 O 0.09996 0.76962 0.07171 0.0
O162 O 0.12638 0.86174 0.11243 0.0
O163 O 0.19315 0.81645 0.12331 0.0
O164 O 0.18212 0.62332 0.12877 0.0
O165 O 0.14666 0.67053 0.10311 0.0
O166 O 0.22736 0.78121 0.13169 0.0
O167 O 0.27186 0.71619 0.14242 0.0
C168 C 0.27025 0.76023 0.13724 0.0
O169 O 0.08418 0.76614 0.14032 0.0
O170 O 0.02746 0.78336 0.11119 0.0
C171 C 0.14181 0.72748 0.17365 0.0
C172 C 0.03821 0.77581 0.1315 0.0
Zn173 Zn 0.53853 0.64714 0.34068 0.0
Zn174 Zn 0.64593 0.76823 0.39346 0.0
Zn175 Zn 0.58976 0.70974 0.36894 0.0
C176 C 0.56814 0.82481 0.37636 0.0
C177 C 0.70658 0.73379 0.36671 0.0
O178 O 0.58716 0.63761 0.38401 0.0
O179 O 0.56478 0.58534 0.35276 0.0
C180 C 0.47145 0.71758 0.35564 0.0
O181 O 0.54765 0.7807 0.37338 0.0
O182 O 0.61558 0.82973 0.38195 0.0
O183 O 0.71337 0.75018 0.38732 0.0
O184 O 0.66139 0.72184 0.35578 0.0
O185 O 0.47187 0.67219 0.3473 0.0
O186 O 0.51349 0.74222 0.36263 0.0
O187 O 0.62287 0.70461 0.33834 0.0
O188 O 0.5611 0.66472 0.31349 0.0
C189 C 0.60251 0.68901 0.31776 0.0
O190 O 0.60532 0.677 0.40085 0.0
O191 O 0.62822 0.74962 0.42131 0.0
C192 C 0.58017 0.59249 0.37377 0.0
C193 C 0.6154 0.70423 0.42009 0.0
Zn194 Zn 0.60582 0.29651 0.59545 0.0
Zn195 Zn 0.71561 0.19304 0.64235 0.0
Zn196 Zn 0.66395 0.24836 0.61887 0.0
C197 C 0.78335 0.25436 0.62923 0.0
C198 C 0.66348 0.12833 0.60867 0.0
O199 O 0.59899 0.27196 0.63575 0.0
O200 O 0.54232 0.28854 0.60646 0.0
C201 C 0.69019 0.35714 0.6108 0.0
O202 O 0.74241 0.27924 0.6247 0.0
O203 O 0.78134 0.21115 0.63505 0.0
O204 O 0.68477 0.12807 0.6289 0.0
O205 O 0.65682 0.17025 0.60039 0.0
O206 O 0.6433 0.36053 0.60363 0.0
O207 O 0.70881 0.31514 0.61614 0.0
O208 O 0.64024 0.20275 0.58508 0.0
O209 O 0.61023 0.26385 0.56567 0.0
C210 C 0.62424 0.21925 0.56608 0.0
O211 O 0.63716 0.2537 0.65124 0.0
O212 O 0.70029 0.21794 0.67199 0.0
C213 C 0.55322 0.28231 0.62692 0.0
C214 C 0.65968 0.24197 0.67046 0.0
Zn215 Zn 0.04025 0.16781 0.84122 0.0
Zn216 Zn 0.16731 0.27827 0.89347 0.0
Zn217 Zn 0.10134 0.22911 0.86903 0.0
C218 C 0.13813 0.21749 0.92067 0.0
C219 C 0.09064 0.34343 0.87983 0.0
O220 O 0.12871 0.22005 0.83703 0.0
O221 O 0.0661 0.17755 0.81358 0.0
C222 C 0.08186 0.11302 0.875 0.0
O223 O 0.11781 0.19522 0.90108 0.0
O224 O 0.15956 0.25966 0.92244 0.0
O225 O 0.13837 0.34364 0.88499 0.0
O226 O 0.0659 0.30151 0.87576 0.0
O227 O 0.05809 0.10611 0.85494 0.0
O228 O 0.09808 0.1573 0.88413 0.0
O229 O 0.02789 0.26709 0.86464 0.0
O230 O 0.97796 0.20321 0.84764 0.0
C231 C 0.98335 0.24791 0.85708 0.0
O232 O 0.16914 0.24318 0.85337 0.0
O233 O 0.2298 0.25598 0.8834 0.0
C234 C 0.10771 0.20131 0.81693 0.0
C235 C 0.21659 0.24933 0.86232 0.0
H236 H 0.16889 0.41549 0.05595 0.0
H237 H 0.07922 0.37976 0.10368 0.0
H238 H 0.07099 0.46847 0.11594 0.0
H239 H 0.09877 0.55506 0.11683 0.0
H240 H 0.18785 0.59292 0.0696 0.0
H241 H 0.18521 0.50478 0.05274 0.0
C242 C 0.14661 0.42711 0.06867 0.0
C243 C 0.1259 0.39075 0.07931 0.0
C244 C 0.14174 0.4786 0.07565 0.0
C245 C 0.09701 0.40672 0.09572 0.0
C246 C 0.09189 0.45752 0.10264 0.0
C247 C 0.11606 0.54413 0.10231 0.0
C248 C 0.14327 0.57999 0.09434 0.0
C249 C 0.11544 0.49361 0.09326 0.0
C250 C 0.16612 0.5658 0.07575 0.0
C251 C 0.16518 0.51536 0.06637 0.0
H252 H 0.92893 0.74007 0.35267 0.0
H253 H 0.88452 0.8895 0.3398 0.0
H254 H 0.79616 0.86782 0.33882 0.0
H255 H 0.73424 0.81111 0.34792 0.0
H256 H 0.77843 0.66354 0.36318 0.0
H257 H 0.86367 0.67895 0.35647 0.0
C258 C 0.89966 0.76737 0.34907 0.0
C259 C 0.91327 0.81652 0.34664 0.0
C260 C 0.84886 0.75491 0.34904 0.0
C261 C 0.87502 0.85167 0.34209 0.0
C262 C 0.82449 0.83929 0.34151 0.0
C263 C 0.76199 0.78164 0.34876 0.0
C264 C 0.75008 0.73591 0.35549 0.0
C265 C 0.81125 0.79167 0.3458 0.0
C266 C 0.78666 0.69855 0.35745 0.0
C267 C 0.83552 0.70768 0.35393 0.0
H268 H 0.76468 0.57541 0.64164 0.0
H269 H 0.68603 0.58567 0.57354 0.0
H270 H 0.68754 0.49586 0.56487 0.0
H271 H 0.69143 0.41471 0.57864 0.0
H272 H 0.75292 0.40339 0.64823 0.0
H273 H 0.77786 0.49225 0.65433 0.0
C274 C 0.74788 0.55824 0.62487 0.0
C275 C 0.72411 0.58818 0.60858 0.0
C276 C 0.74534 0.50571 0.62029 0.0
C277 C 0.70491 0.56469 0.58663 0.0
C278 C 0.70506 0.51278 0.58161 0.0
C279 C 0.7121 0.43146 0.59491 0.0
C280 C 0.72114 0.40279 0.61289 0.0
C281 C 0.72244 0.48301 0.59862 0.0
C282 C 0.74717 0.42451 0.634 0.0
C283 C 0.76033 0.47558 0.63756 0.0
H284 H 0.78461 0.36542 0.83221 0.0
H285 H 0.72689 0.2493 0.86359 0.0
H286 H 0.81307 0.22179 0.8767 0.0
H287 H 0.90258 0.22182 0.87322 0.0
H288 H 0.96152 0.33889 0.84282 0.0
H289 H 0.87734 0.37599 0.83565 0.0
C290 C 0.79131 0.33529 0.84261 0.0
C291 C 0.74989 0.30919 0.84696 0.0
C292 C 0.84095 0.31957 0.84992 0.0
C293 C 0.75846 0.27 0.86027 0.0
C294 C 0.80762 0.25402 0.86754 0.0
C295 C 0.8971 0.25629 0.86561 0.0
C296 C 0.93756 0.27744 0.85826 0.0
C297 C 0.84884 0.27713 0.8616 0.0
C298 C 0.93063 0.32217 0.84858 0.0
C299 C 0.88251 0.34305 0.84434 0.0
H300 H 0.9918 0.54682 0.90689 0.0
H301 H 0.10538 0.60108 0.8743 0.0
H302 H 0.12537 0.51494 0.86104 0.0
H303 H 0.11946 0.42514 0.86401 0.0
H304 H 0.00494 0.36985 0.89582 0.0
H305 H 0.97521 0.45543 0.90373 0.0
C306 C 0.01981 0.5395 0.89631 0.0
C307 C 0.0474 0.57968 0.89157 0.0
C308 C 0.03114 0.48994 0.88888 0.0
C309 C 0.08371 0.57041 0.87796 0.0
C310 C 0.09533 0.52128 0.87056 0.0
C311 C 0.08724 0.43186 0.87222 0.0
C312 C 0.06487 0.3918 0.87973 0.0
C313 C 0.07068 0.48087 0.8767 0.0
C314 C 0.02273 0.40039 0.89001 0.0
C315 C 0.00605 0.44927 0.89466 0.0
H316 H 0.87732 0.87807 0.18249 0.0
H317 H 0.78091 0.76794 0.13663 0.0
H318 H 0.85486 0.72831 0.12463 0.0
H319 H 0.94572 0.73216 0.12353 0.0
H320 H 0.04113 0.84487 0.16787 0.0
H321 H 0.9695 0.87552 0.18462 0.0
C322 C 0.87269 0.84502 0.17007 0.0
C323 C 0.82381 0.82629 0.16025 0.0
C324 C 0.91534 0.8227 0.16313 0.0
C325 C 0.8182 0.783 0.14444 0.0
C326 C 0.86043 0.76049 0.13749 0.0
C327 C 0.9509 0.76232 0.13739 0.0
C328 C 0.99881 0.78521 0.14509 0.0
C329 C 0.90901 0.78091 0.14624 0.0
C330 C 0.00519 0.82508 0.16258 0.0
C331 C 0.9639 0.84335 0.17175 0.0
H332 H 0.57175 0.36793 0.38492 0.0
H333 H 0.43543 0.4163 0.40781 0.0
H334 H 0.46168 0.50387 0.41018 0.0
H335 H 0.51542 0.56605 0.39899 0.0
H336 H 0.64734 0.51754 0.37264 0.0
H337 H 0.63221 0.43141 0.37905 0.0
C338 C 0.54863 0.3977 0.39104 0.0
C339 C 0.50148 0.38574 0.39593 0.0
C340 C 0.5633 0.44818 0.3917 0.0
C341 C 0.47161 0.42466 0.40369 0.0
C342 C 0.4866 0.47475 0.40504 0.0
C343 C 0.54207 0.53692 0.3957 0.0
C344 C 0.5829 0.54805 0.38576 0.0
C345 C 0.53132 0.48701 0.39819 0.0
C346 C 0.61627 0.50985 0.38076 0.0
C347 C 0.60712 0.46047 0.38409 0.0
H348 H 0.99973 0.34866 0.66158 0.0
H349 H 0.03751 0.204 0.63088 0.0
H350 H 0.94848 0.18668 0.61392 0.0
H351 H 0.85969 0.20642 0.61383 0.0
H352 H 0.82045 0.3484 0.64641 0.0
H353 H 0.90989 0.37409 0.65614 0.0
C354 C 0.98836 0.31423 0.6505 0.0
C355 C 0.02461 0.27759 0.64729 0.0
C356 C 0.93685 0.30401 0.6414 0.0
C357 C 0.00994 0.23266 0.63332 0.0
C358 C 0.95911 0.22268 0.6238 0.0
C359 C 0.87074 0.24358 0.62248 0.0
C360 C 0.83379 0.2756 0.62945 0.0
C361 C 0.92214 0.25711 0.62859 0.0
C362 C 0.84821 0.3236 0.64058 0.0
C363 C 0.89945 0.33789 0.64642 0.0
H364 H 0.388 0.37725 0.67767 0.0
H365 H 0.29749 0.26037 0.63328 0.0
H366 H 0.37316 0.22528 0.62121 0.0
H367 H 0.46329 0.2343 0.61969 0.0
H368 H 0.55271 0.35373 0.6623 0.0
H369 H 0.47997 0.38078 0.67909 0.0
C370 C 0.38502 0.3438 0.66553 0.0
C371 C 0.33719 0.32176 0.65621 0.0
C372 C 0.42865 0.32415 0.65848 0.0
C373 C 0.33388 0.27795 0.64077 0.0
C374 C 0.3771 0.25802 0.63376 0.0
C375 C 0.46697 0.26527 0.63316 0.0
C376 C 0.51351 0.29106 0.64039 0.0
C377 C 0.42442 0.28162 0.64202 0.0
C378 C 0.51794 0.33188 0.65738 0.0
C379 C 0.47599 0.34799 0.66657 0.0
H380 H 0.48015 0.86361 0.17544 0.0
H381 H 0.52579 0.74069 0.13179 0.0
H382 H 0.43723 0.7204 0.11484 0.0
H383 H 0.34778 0.72822 0.11776 0.0
H384 H 0.30112 0.8502 0.16154 0.0
H385 H 0.38884 0.88141 0.17286 0.0
C386 C 0.47046 0.8337 0.16161 0.0
C387 C 0.50891 0.80366 0.1547 0.0
C388 C 0.41939 0.82184 0.15226 0.0
C389 C 0.49649 0.76444 0.13708 0.0
C390 C 0.44595 0.7526 0.12759 0.0
C391 C 0.35679 0.76258 0.1292 0.0
C392 C 0.31854 0.78696 0.13891 0.0
C393 C 0.40717 0.77962 0.13578 0.0
C394 C 0.33012 0.83133 0.15372 0.0
C395 C 0.38031 0.84873 0.16037 0.0
H396 H 0.38281 0.36952 0.83346 0.0
H397 H 0.47195 0.24512 0.85549 0.0
H398 H 0.39503 0.19956 0.8577 0.0
H399 H 0.30411 0.20165 0.85942 0.0
H400 H 0.21698 0.32898 0.83986 0.0
H401 H 0.29049 0.36602 0.82981 0.0
C402 C 0.38517 0.33206 0.83835 0.0
C403 C 0.43284 0.31094 0.84462 0.0
C404 C 0.3409 0.30641 0.8398 0.0
C405 C 0.43559 0.26213 0.85063 0.0
C406 C 0.39165 0.2362 0.85199 0.0
C407 C 0.30093 0.23637 0.85197 0.0
C408 C 0.25468 0.2615 0.84939 0.0
C409 C 0.34427 0.25873 0.84739 0.0
C410 C 0.25125 0.30747 0.84065 0.0
C411 C 0.29376 0.32937 0.83551 0.0
H412 H 0.26322 0.82677 0.33773 0.0
H413 H 0.21279 0.69002 0.35707 0.0
H414 H 0.30059 0.6642 0.36754 0.0
H415 H 0.39016 0.6753 0.366 0.0
H416 H 0.44203 0.81202 0.34711 0.0
H417 H 0.35545 0.84383 0.342 0.0
C418 C 0.27184 0.79217 0.34496 0.0
C419 C 0.23203 0.76033 0.34685 0.0
C420 C 0.32246 0.7774 0.35067 0.0
C421 C 0.24309 0.7152 0.35582 0.0
C422 C 0.29317 0.7003 0.36157 0.0
C423 C 0.38256 0.71245 0.36115 0.0
C424 C 0.42205 0.7411 0.35663 0.0
C425 C 0.33294 0.73024 0.35827 0.0
C426 C 0.41212 0.7894 0.35068 0.0
C427 C 0.3626 0.80737 0.34762 0.0
H428 H 0.65656 0.91578 0.55274 0.0
H429 H 0.60159 0.87836 0.61072 0.0
H430 H 0.59762 0.96683 0.62455 0.0
H431 H 0.61853 0.0536 0.6225 0.0
H432 H 0.6758 0.09362 0.56574 0.0
H433 H 0.66831 0.00559 0.54856 0.0
C434 C 0.64298 0.92716 0.56819 0.0
C435 C 0.63051 0.89054 0.58097 0.0
C436 C 0.64096 0.97845 0.57617 0.0
C437 C 0.61274 0.90577 0.60092 0.0
C438 C 0.6101 0.95633 0.60877 0.0
C439 C 0.62834 0.04313 0.60611 0.0
C440 C 0.64777 0.07961 0.59537 0.0
C441 C 0.62544 0.99279 0.59687 0.0
C442 C 0.66019 0.06603 0.57415 0.0
C443 C 0.65655 0.01567 0.56452 0.0
H444 H 0.23257 0.08042 0.15158 0.0
H445 H 0.17583 0.0862 0.08071 0.0
H446 H 0.18071 0.9961 0.07329 0.0
H447 H 0.18155 0.9156 0.08769 0.0
H448 H 0.22731 0.90766 0.15863 0.0
H449 H 0.24667 0.99793 0.16528 0.0
C450 C 0.22183 0.06208 0.13447 0.0
C451 C 0.2029 0.0906 0.11687 0.0
C452 C 0.22228 0.00945 0.13034 0.0
C453 C 0.1908 0.06597 0.0947 0.0
C454 C 0.193 0.01402 0.09039 0.0
C455 C 0.19785 0.93347 0.10446 0.0
C456 C 0.20338 0.9055 0.12264 0.0
C457 C 0.20603 0.9854 0.10819 0.0
C458 C 0.22377 0.92856 0.14437 0.0
C459 C 0.23391 0.98029 0.14818 0.0
H460 H 0.47498 0.02606 0.40826 0.0
H461 H 0.56838 0.07956 0.36587 0.0
H462 H 0.58378 0.99329 0.35096 0.0
H463 H 0.58289 0.90376 0.35535 0.0
H464 H 0.48886 0.84931 0.3972 0.0
H465 H 0.46005 0.93467 0.40657 0.0
C466 C 0.49743 0.01859 0.39527 0.0
C467 C 0.52099 0.05872 0.38825 0.0
C468 C 0.50616 0.96888 0.38685 0.0
C469 C 0.5499 0.04908 0.37141 0.0
C470 C 0.55894 0.99982 0.36303 0.0
C471 C 0.5547 0.9105 0.36588 0.0
C472 C 0.53824 0.87078 0.37578 0.0
C473 C 0.53902 0.95954 0.37135 0.0
C474 C 0.50175 0.87949 0.38935 0.0
C475 C 0.48582 0.92833 0.3949 0.0
H476 H 0.08424 0.88969 0.88848 0.0
H477 H 0.94029 0.93048 0.90583 0.0
H478 H 0.96191 0.0192 0.90808 0.0
H479 H 0.01439 0.08365 0.89793 0.0
H480 H 0.15499 0.04315 0.87748 0.0
H481 H 0.14331 0.95652 0.88429 0.0
C482 C 0.05838 0.91814 0.8934 0.0
C483 C 0.01048 0.90368 0.89669 0.0
C484 C 0.07056 0.96927 0.89403 0.0
C485 C 0.9771 0.94082 0.90293 0.0
C486 C 0.98944 0.99154 0.90421 0.0
C487 C 0.04352 0.05624 0.89604 0.0
C488 C 0.08586 0.06964 0.88763 0.0
C489 C 0.03507 0.00612 0.89883 0.0
C490 C 0.1227 0.03373 0.88447 0.0
C491 C 0.11553 0.98404 0.88799 0.0
H492 H 0.07309 0.22674 0.01224 0.0
H493 H 0.234 0.24923 0.03436 0.0
H494 H 0.24739 0.22341 0.99609 0.0
H495 H 0.21203 0.20904 0.95586 0.0
H496 H 0.05125 0.18935 0.93281 0.0
H497 H 0.0388 0.19701 0.97188 0.0
C498 C 0.11097 0.22499 0.00857 0.0
C499 C 0.15258 0.24047 0.02573 0.0
C500 C 0.11826 0.21022 0.98647 0.0
C501 C 0.20164 0.23785 0.02117 0.0
C502 C 0.20924 0.22302 -0.00063 0.0
C503 C 0.17453 0.20419 0.95947 0.0
C504 C 0.1326 0.19889 0.9417 0.0
C505 C 0.16773 0.2109 0.98181 0.0
C506 C 0.08408 0.19291 0.94633 0.0
C507 C 0.07694 0.19832 0.96866 0.0
H508 H 0.09251 0.81617 0.26665 0.0
H509 H 0.12254 0.66383 0.27923 0.0
H510 H 0.1243 0.63892 0.23945 0.0
H511 H 0.13068 0.66334 0.20275 0.0
H512 H 0.10946 0.81696 0.19092 0.0
H513 H 0.08931 0.8387 0.22838 0.0
C514 C 0.09783 0.77732 0.26043 0.0
C515 C 0.1074 0.74174 0.27562 0.0
C516 C 0.10059 0.76375 0.2377 0.0
C517 C 0.11508 0.69162 0.26766 0.0
C518 C 0.11637 0.6775 0.24501 0.0
C519 C 0.12032 0.70126 0.20825 0.0
C520 C 0.12017 0.73842 0.19405 0.0
C521 C 0.11122 0.71364 0.23011 0.0
C522 C 0.10748 0.78754 0.20128 0.0
C523 C 0.09704 0.80005 0.22286 0.0
H524 H 0.67152 0.69425 0.52118 0.0
H525 H 0.53483 0.77969 0.51839 0.0
H526 H 0.51305 0.75629 0.47775 0.0
H527 H 0.5417 0.72634 0.44282 0.0
H528 H 0.68104 0.64645 0.44498 0.0
H529 H 0.69209 0.65066 0.48601 0.0
C530 C 0.63629 0.70651 0.51173 0.0
C531 C 0.60542 0.73965 0.52264 0.0
C532 C 0.6245 0.69368 0.48824 0.0
C533 C 0.55983 0.75523 0.51024 0.0
C534 C 0.54724 0.74168 0.48703 0.0
C535 C 0.57309 0.70769 0.45225 0.0
C536 C 0.6103 0.68577 0.44112 0.0
C537 C 0.58046 0.71293 0.47578 0.0
C538 C 0.65154 0.66266 0.45331 0.0
C539 C 0.65827 0.66598 0.47678 0.0
H540 H 0.61421 0.34883 0.76168 0.0
H541 H 0.65128 0.20226 0.7807 0.0
H542 H 0.65268 0.1697 0.74158 0.0
H543 H 0.65455 0.18576 0.7032 0.0
H544 H 0.62624 0.33375 0.68457 0.0
H545 H 0.60861 0.36307 0.72196 0.0
C546 C 0.62133 0.30957 0.75701 0.0
C547 C 0.63267 0.27775 0.77377 0.0
C548 C 0.62362 0.2916 0.73459 0.0
C549 C 0.64252 0.22711 0.76788 0.0
C550 C 0.64348 0.20864 0.7456 0.0
C551 C 0.64337 0.22413 0.70725 0.0
C552 C 0.64031 0.25745 0.69115 0.0
C553 C 0.63577 0.24092 0.72899 0.0
C554 C 0.62651 0.30716 0.69648 0.0
C555 C 0.61751 0.32404 0.71799 0.0
H556 H 0.05292 0.62668 0.97158 0.0
H557 H 0.12963 0.76012 0.96163 0.0
H558 H 0.16061 0.77838 0.00204 0.0
H559 H 0.15658 0.76272 0.04002 0.0
H560 H 0.07721 0.63257 0.0511 0.0
H561 H 0.05842 0.60508 0.01032 0.0
C562 C 0.07719 0.65922 0.97826 0.0
C563 C 0.08814 0.69264 0.96369 0.0
C564 C 0.09461 0.66972 0.00162 0.0
C565 C 0.1196 0.73463 0.97255 0.0
C566 C 0.13766 0.74486 0.99561 0.0
C567 C 0.13638 0.72755 0.03348 0.0
C568 C 0.11794 0.69971 0.04826 0.0
C569 C 0.1241 0.71355 0.01027 0.0
C570 C 0.092 0.65423 0.0399 0.0
C571 C 0.08068 0.63906 0.01662 0.0
H572 H 0.66267 0.80545 0.24387 0.0
H573 H 0.58158 0.68019 0.20132 0.0
H574 H 0.57759 0.63849 0.23423 0.0
H575 H 0.5864 0.64321 0.27501 0.0
H576 H 0.66335 0.7701 0.31792 0.0
H577 H 0.68142 0.80477 0.28508 0.0
C578 C 0.6453 0.76848 0.24183 0.0
C579 C 0.62171 0.74621 0.2203 0.0
C580 C 0.64232 0.74512 0.2609 0.0
C581 C 0.59917 0.69838 0.21781 0.0
C582 C 0.59692 0.67453 0.23659 0.0
C583 C 0.60803 0.67797 0.2772 0.0
C584 C 0.62335 0.70416 0.29884 0.0
C585 C 0.61666 0.69841 0.25823 0.0
C586 C 0.65171 0.74889 0.30147 0.0
C587 C 0.66144 0.76907 0.28265 0.0
H588 H 0.54012 0.11234 0.47024 0.0
H589 H 0.62826 0.23148 0.45429 0.0
H590 H 0.66736 0.25133 0.49388 0.0
H591 H 0.66659 0.24342 0.53307 0.0
H592 H 0.57438 0.1296 0.55015 0.0
H593 H 0.54824 0.09728 0.51008 0.0
C594 C 0.56862 0.14195 0.47546 0.0
C595 C 0.58068 0.17113 0.45951 0.0
C596 C 0.59031 0.15377 0.49838 0.0
C597 C 0.61764 0.20936 0.46638 0.0
C598 C 0.64018 0.2205 0.48896 0.0
C599 C 0.64211 0.21042 0.52798 0.0
C600 C 0.62237 0.18868 0.54428 0.0
C601 C 0.62547 0.19415 0.50512 0.0
C602 C 0.59046 0.14631 0.53777 0.0
C603 C 0.57495 0.1285 0.51488 0.0
H604 H 0.16771 0.30056 0.73798 0.0
H605 H 0.10177 0.16261 0.70038 0.0
H606 H 0.09552 0.12984 0.73538 0.0
H607 H 0.09873 0.14496 0.77622 0.0
H608 H 0.15704 0.28595 0.81304 0.0
H609 H 0.17834 0.31243 0.77914 0.0
C610 C 0.15331 0.26281 0.73751 0.0
C611 C 0.13493 0.23413 0.71668 0.0
C612 C 0.14864 0.24479 0.75764 0.0
C613 C 0.11567 0.18552 0.71626 0.0
C614 C 0.11205 0.16682 0.73624 0.0
C615 C 0.11716 0.18099 0.77685 0.0
C616 C 0.1279 0.21301 0.79728 0.0
C617 C 0.1268 0.19681 0.75697 0.0
C618 C 0.15101 0.25981 0.79784 0.0
C619 C 0.16204 0.27534 0.77829 0.0
loop_
_geom_bond_atom_site_label_1
_geom_bond_atom_site_label_2
_geom_bond_distance
_geom_bond_site_symmetry_2
_ccdc_geom_bond_type
H0 C1 0.949 . S
C1 H0 0.949 . S
C1 C2 1.395 . S
C1 C3 1.391 . S
C2 C1 1.395 . S
C2 C5 1.390 . S
C3 C1 1.391 . S
C3 C7 1.387 . S
C3 C8 1.491 . S
H4 C5 0.950 . S
C5 C2 1.390 . S
C5 H4 0.950 . S
C5 C6 1.378 . S
C6 C5 1.378 . S
C6 C7 1.409 . S
C7 C3 1.387 . S
C7 C6 1.409 . S
C7 H9 0.951 . S
C8 C3 1.491 . S
C8 C10 1.382 . S
C8 C12 1.404 . S
H9 C7 0.951 . S
C10 C8 1.382 . S
C10 C11 1.390 . S
C10 H15 0.949 . S
C11 C10 1.390 . S
C11 C16 1.399 . S
C12 C8 1.404 . S
C12 H13 0.950 . S
C12 C14 1.375 . S
H13 C12 0.950 . S
C14 C12 1.375 . S
C14 C16 1.382 . S
C14 H18 0.950 . S
H15 C10 0.949 . S
C16 C11 1.399 . S
C16 C14 1.382 . S
C16 H17 0.952 . S
H17 C16 0.952 . S
H18 C14 0.950 . S
H19 C20 0.949 . S
C20 H19 0.949 . S
C20 C21 1.395 . S
C20 C22 1.391 . S
C21 C20 1.395 . S
C21 C24 1.390 . S
C22 C20 1.391 . S
C22 C26 1.387 . S
C22 C27 1.491 . S
H23 C24 0.950 . S
C24 C21 1.390 . S
C24 H23 0.950 . S
C24 C25 1.378 . S
C25 C24 1.378 . S
C25 C26 1.409 . S
C26 C22 1.387 . S
C26 C25 1.409 . S
C26 H28 0.951 . S
C27 C22 1.491 . S
C27 C29 1.382 . S
C27 C31 1.404 . S
H28 C26 0.951 . S
C29 C27 1.382 . S
C29 C30 1.390 1_455 S
C29 H34 0.949 1_455 S
C30 C29 1.390 1_655 S
C30 C35 1.399 . S
C31 C27 1.404 . S
C31 H32 0.950 . S
C31 C33 1.375 . S
H32 C31 0.950 . S
C33 C31 1.375 . S
C33 C35 1.382 1_455 S
C33 H37 0.950 . S
H34 C29 0.949 1_655 S
C35 C30 1.399 . S
C35 C33 1.382 1_655 S
C35 H36 0.952 . S
H36 C35 0.952 . S
H37 C33 0.950 . S
H38 C39 0.949 . S
C39 H38 0.949 . S
C39 C40 1.395 . S
C39 C41 1.391 . S
C40 C39 1.395 . S
C40 C43 1.390 . S
C41 C39 1.391 . S
C41 C45 1.387 . S
C41 C46 1.491 . S
H42 C43 0.950 . S
C43 C40 1.390 . S
C43 H42 0.950 . S
C43 C44 1.378 . S
C44 C43 1.378 . S
C44 C45 1.409 . S
C45 C41 1.387 . S
C45 C44 1.409 . S
C45 H47 0.951 . S
C46 C41 1.491 . S
C46 C48 1.382 . S
C46 C50 1.404 . S
H47 C45 0.951 . S
C48 C46 1.382 . S
C48 C49 1.390 . S
C48 H53 0.949 . S
C49 C48 1.390 . S
C49 C54 1.399 . S
C50 C46 1.404 . S
C50 H51 0.950 . S
C50 C52 1.375 . S
H51 C50 0.950 . S
C52 C50 1.375 . S
C52 C54 1.382 . S
C52 H56 0.950 . S
H53 C48 0.949 . S
C54 C49 1.399 . S
C54 C52 1.382 . S
C54 H55 0.952 . S
H55 C54 0.952 . S
H56 C52 0.950 . S
H57 C58 0.949 . S
C58 H57 0.949 . S
C58 C59 1.395 . S
C58 C60 1.391 . S
C59 C58 1.395 . S
C59 C62 1.390 . S
C60 C58 1.391 . S
C60 C64 1.387 . S
C60 C65 1.491 . S
H61 C62 0.950 . S
C62 C59 1.390 . S
C62 H61 0.950 . S
C62 C63 1.378 . S
C63 C62 1.378 . S
C63 C64 1.409 . S
C64 C60 1.387 . S
C64 C63 1.409 . S
C64 H66 0.951 . S
C65 C60 1.491 . S
C65 C67 1.382 . S
C65 C69 1.404 . S
H66 C64 0.951 . S
C67 C65 1.382 . S
C67 C68 1.390 . S
C67 H72 0.949 . S
C68 C67 1.390 . S
C68 C73 1.399 . S
C69 C65 1.404 . S
C69 H70 0.950 . S
C69 C71 1.375 . S
H70 C69 0.950 . S
C71 C69 1.375 . S
C71 C73 1.382 . S
C71 H75 0.950 . S
H72 C67 0.949 . S
C73 C68 1.399 . S
C73 C71 1.382 . S
C73 H74 0.952 . S
H74 C73 0.952 . S
H75 C71 0.950 . S
H76 C77 0.949 . S
C77 H76 0.949 . S
C77 C78 1.395 . S
C77 C79 1.391 . S
C78 C77 1.395 . S
C78 C81 1.390 . S
C79 C77 1.391 . S
C79 C83 1.387 . S
C79 C84 1.491 1_455 S
H80 C81 0.950 . S
C81 C78 1.390 . S
C81 H80 0.950 . S
C81 C82 1.378 . S
C82 C81 1.378 . S
C82 C83 1.409 . S
C83 C79 1.387 . S
C83 C82 1.409 . S
C83 H85 0.952 . S
C84 C79 1.491 1_655 S
C84 C86 1.382 1_655 S
C84 C88 1.404 . S
H85 C83 0.952 . S
C86 C84 1.382 1_455 S
C86 C87 1.390 . S
C86 H91 0.949 . S
C87 C86 1.390 . S
C87 C92 1.399 1_455 S
C88 C84 1.404 . S
C88 H89 0.950 . S
C88 C90 1.375 . S
H89 C88 0.950 . S
C90 C88 1.375 . S
C90 C92 1.382 . S
C90 H94 0.950 . S
H91 C86 0.949 . S
C92 C87 1.399 1_655 S
C92 C90 1.382 . S
C92 H93 0.952 . S
H93 C92 0.952 . S
H94 C90 0.950 . S
H95 C96 0.949 . S
C96 H95 0.949 . S
C96 C97 1.395 . S
C96 C98 1.391 . S
C97 C96 1.395 . S
C97 C100 1.390 . S
C98 C96 1.391 . S
C98 C102 1.387 . S
C98 C103 1.491 . S
H99 C100 0.950 . S
C100 C97 1.390 . S
C100 H99 0.950 . S
C100 C101 1.378 . S
C101 C100 1.378 . S
C101 C102 1.409 . S
C102 C98 1.387 . S
C102 C101 1.409 . S
C102 H104 0.951 . S
C103 C98 1.491 . S
C103 C105 1.382 . S
C103 C107 1.404 . S
H104 C102 0.951 . S
C105 C103 1.382 . S
C105 C106 1.390 . S
C105 H110 0.949 . S
C106 C105 1.390 . S
C106 C111 1.399 . S
C107 C103 1.404 . S
C107 H108 0.950 . S
C107 C109 1.375 . S
H108 C107 0.950 . S
C109 C107 1.375 . S
C109 C111 1.382 . S
C109 H113 0.950 . S
H110 C105 0.949 . S
C111 C106 1.399 . S
C111 C109 1.382 . S
C111 H112 0.952 . S
H112 C111 0.952 . S
H113 C109 0.950 . S
H114 C115 0.949 . S
C115 H114 0.949 . S
C115 C116 1.395 . S
C115 C117 1.391 . S
C116 C115 1.395 . S
C116 C119 1.390 . S
C117 C115 1.391 . S
C117 C121 1.387 . S
C117 C122 1.491 . S
H118 C119 0.950 . S
C119 C116 1.390 . S
C119 H118 0.950 . S
C119 C120 1.378 . S
C120 C119 1.378 . S
C120 C121 1.409 . S
C121 C117 1.387 . S
C121 C120 1.409 . S
C121 H123 0.951 . S
C122 C117 1.491 . S
C122 C124 1.382 . S
C122 C126 1.404 . S
H123 C121 0.951 . S
C124 C122 1.382 . S
C124 C125 1.390 . S
C124 H129 0.949 . S
C125 C124 1.390 . S
C125 C130 1.399 . S
C126 C122 1.404 . S
C126 H127 0.950 . S
C126 C128 1.375 . S
H127 C126 0.950 . S
C128 C126 1.375 . S
C128 C130 1.382 . S
C128 H132 0.950 . S
H129 C124 0.949 . S
C130 C125 1.399 . S
C130 C128 1.382 . S
C130 H131 0.952 . S
H131 C130 0.952 . S
H132 C128 0.950 . S
H133 C134 0.949 . S
C134 H133 0.949 . S
C134 C135 1.395 . S
C134 C136 1.391 . S
C135 C134 1.395 . S
C135 C138 1.390 . S
C136 C134 1.391 . S
C136 C140 1.387 . S
C136 C141 1.491 . S
H137 C138 0.950 . S
C138 C135 1.390 . S
C138 H137 0.950 . S
C138 C139 1.378 . S
C139 C138 1.378 . S
C139 C140 1.409 . S
C140 C136 1.387 . S
C140 C139 1.409 . S
C140 H142 0.951 . S
C141 C136 1.491 . S
C141 C143 1.382 . S
C141 C145 1.404 . S
H142 C140 0.951 . S
C143 C141 1.382 . S
C143 C144 1.390 . S
C143 H148 0.949 . S
C144 C143 1.390 . S
C144 C149 1.399 . S
C145 C141 1.404 . S
C145 H146 0.950 . S
C145 C147 1.375 . S
H146 C145 0.950 . S
C147 C145 1.375 . S
C147 C149 1.382 . S
C147 H151 0.950 . S
H148 C143 0.949 . S
C149 C144 1.399 . S
C149 C147 1.382 . S
C149 H150 0.952 . S
H150 C149 0.952 . S
H151 C147 0.950 . S
Zn152 O158 1.920 . S
Zn152 O164 1.898 . S
Zn152 O167 1.905 . S
Zn153 O161 1.905 . S
Zn153 O162 1.898 . S
Zn153 O170 1.920 . S
Zn154 O157 2.080 . S
Zn154 O160 2.114 . S
Zn154 O163 2.120 . S
Zn154 O165 2.120 . S
Zn154 O166 2.114 . S
Zn154 O169 2.080 . S
C155 O160 1.166 . S
C155 O161 1.182 . S
C156 O162 1.167 . S
C156 O163 1.299 . S
O157 Zn154 2.080 . S
O157 C171 1.305 . S
O158 Zn152 1.920 . S
O158 C171 1.234 . S
C159 O164 1.167 . S
C159 O165 1.299 . S
O160 Zn154 2.114 . S
O160 C155 1.166 . S
O161 Zn153 1.905 . S
O161 C155 1.182 . S
O162 Zn153 1.898 . S
O162 C156 1.167 . S
O163 Zn154 2.120 . S
O163 C156 1.299 . S
O164 Zn152 1.898 . S
O164 C159 1.167 . S
O165 Zn154 2.120 . S
O165 C159 1.299 . S
O166 Zn154 2.114 . S
O166 C168 1.166 . S
O167 Zn152 1.905 . S
O167 C168 1.182 . S
C168 O166 1.166 . S
C168 O167 1.182 . S
O169 Zn154 2.080 . S
O169 C172 1.305 . S
O170 Zn153 1.920 . S
O170 C172 1.234 . S
C171 O157 1.305 . S
C171 O158 1.234 . S
C172 O169 1.305 . S
C172 O170 1.234 . S
Zn173 O179 1.920 . S
Zn173 O185 1.898 . S
Zn173 O188 1.905 . S
Zn174 O182 1.905 . S
Zn174 O183 1.898 . S
Zn174 O191 1.920 . S
Zn175 O178 2.080 . S
Zn175 O181 2.114 . S
Zn175 O184 2.120 . S
Zn175 O186 2.120 . S
Zn175 O187 2.114 . S
Zn175 O190 2.080 . S
C176 O181 1.166 . S
C176 O182 1.182 . S
C177 O183 1.167 . S
C177 O184 1.299 . S
O178 Zn175 2.080 . S
O178 C192 1.305 . S
O179 Zn173 1.920 . S
O179 C192 1.234 . S
C180 O185 1.167 . S
C180 O186 1.299 . S
O181 Zn175 2.114 . S
O181 C176 1.166 . S
O182 Zn174 1.905 . S
O182 C176 1.182 . S
O183 Zn174 1.898 . S
O183 C177 1.167 . S
O184 Zn175 2.120 . S
O184 C177 1.299 . S
O185 Zn173 1.898 . S
O185 C180 1.167 . S
O186 Zn175 2.120 . S
O186 C180 1.299 . S
O187 Zn175 2.114 . S
O187 C189 1.166 . S
O188 Zn173 1.905 . S
O188 C189 1.182 . S
C189 O187 1.166 . S
C189 O188 1.182 . S
O190 Zn175 2.080 . S
O190 C193 1.305 . S
O191 Zn174 1.920 . S
O191 C193 1.234 . S
C192 O178 1.305 . S
C192 O179 1.234 . S
C193 O190 1.305 . S
C193 O191 1.234 . S
Zn194 O200 1.920 . S
Zn194 O206 1.898 . S
Zn194 O209 1.905 . S
Zn195 O203 1.905 . S
Zn195 O204 1.898 . S
Zn195 O212 1.920 . S
Zn196 O199 2.080 . S
Zn196 O202 2.114 . S
Zn196 O205 2.120 . S
Zn196 O207 2.120 . S
Zn196 O208 2.114 . S
Zn196 O211 2.080 . S
C197 O202 1.166 . S
C197 O203 1.182 . S
C198 O204 1.167 . S
C198 O205 1.299 . S
O199 Zn196 2.080 . S
O199 C213 1.305 . S
O200 Zn194 1.920 . S
O200 C213 1.234 . S
C201 O206 1.167 . S
C201 O207 1.299 . S
O202 Zn196 2.114 . S
O202 C197 1.166 . S
O203 Zn195 1.905 . S
O203 C197 1.182 . S
O204 Zn195 1.898 . S
O204 C198 1.167 . S
O205 Zn196 2.120 . S
O205 C198 1.299 . S
O206 Zn194 1.898 . S
O206 C201 1.167 . S
O207 Zn196 2.120 . S
O207 C201 1.299 . S
O208 Zn196 2.114 . S
O208 C210 1.166 . S
O209 Zn194 1.905 . S
O209 C210 1.182 . S
C210 O208 1.166 . S
C210 O209 1.182 . S
O211 Zn196 2.080 . S
O211 C214 1.305 . S
O212 Zn195 1.920 . S
O212 C214 1.234 . S
C213 O199 1.305 . S
C213 O200 1.234 . S
C214 O211 1.305 . S
C214 O212 1.234 . S
Zn215 O221 1.920 1_655 S
Zn215 O227 1.898 1_655 S
Zn215 O230 1.905 . S
Zn216 O224 1.905 . S
Zn216 O225 1.898 . S
Zn216 O233 1.920 . S
Zn217 O220 2.080 . S
Zn217 O223 2.114 . S
Zn217 O226 2.120 . S
Zn217 O228 2.120 . S
Zn217 O229 2.114 . S
Zn217 O232 2.080 . S
C218 O223 1.166 . S
C218 O224 1.182 . S
C219 O225 1.167 . S
C219 O226 1.299 . S
O220 Zn217 2.080 . S
O220 C234 1.305 . S
O221 Zn215 1.920 1_455 S
O221 C234 1.234 . S
C222 O227 1.167 . S
C222 O228 1.299 . S
O223 Zn217 2.114 . S
O223 C218 1.166 . S
O224 Zn216 1.905 . S
O224 C218 1.182 . S
O225 Zn216 1.898 . S
O225 C219 1.167 . S
O226 Zn217 2.120 . S
O226 C219 1.299 . S
O227 Zn215 1.898 1_455 S
O227 C222 1.167 . S
O228 Zn217 2.120 . S
O228 C222 1.299 . S
O229 Zn217 2.114 . S
O229 C231 1.166 1_455 S
O230 Zn215 1.905 . S
O230 C231 1.182 . S
C231 O229 1.166 1_655 S
C231 O230 1.182 . S
O232 Zn217 2.080 . S
O232 C235 1.305 . S
O233 Zn216 1.920 . S
O233 C235 1.234 . S
C234 O220 1.305 . S
C234 O221 1.234 . S
C235 O232 1.305 . S
C235 O233 1.234 . S
H236 C242 0.930 . S
H237 C245 0.930 . S
H238 C246 0.930 . S
H239 C247 0.930 . S
H240 C250 0.930 . S
H241 C251 0.930 . S
C242 H236 0.930 . S
C242 C243 1.355 . S
C242 C244 1.415 . S
C243 C242 1.355 . S
C243 C245 1.419 . S
C244 C242 1.415 . S
C244 C249 1.425 . S
C244 C251 1.409 . S
C245 H237 0.930 . S
C245 C243 1.419 . S
C245 C246 1.362 . S
C246 H238 0.930 . S
C246 C245 1.362 . S
C246 C249 1.409 . S
C247 H239 0.930 . S
C247 C248 1.355 . S
C247 C249 1.415 . S
C248 C247 1.355 . S
C248 C250 1.419 . S
C249 C244 1.425 . S
C249 C246 1.409 . S
C249 C247 1.415 . S
C250 H240 0.930 . S
C250 C248 1.419 . S
C250 C251 1.362 . S
C251 H241 0.930 . S
C251 C244 1.409 . S
C251 C250 1.362 . S
H252 C258 0.930 . S
H253 C261 0.930 . S
H254 C262 0.930 . S
H255 C263 0.930 . S
H256 C266 0.930 . S
H257 C267 0.930 . S
C258 H252 0.930 . S
C258 C259 1.355 . S
C258 C260 1.415 . S
C259 C258 1.355 . S
C259 C261 1.419 . S
C260 C258 1.415 . S
C260 C265 1.425 . S
C260 C267 1.409 . S
C261 H253 0.930 . S
C261 C259 1.419 . S
C261 C262 1.362 . S
C262 H254 0.930 . S
C262 C261 1.362 . S
C262 C265 1.409 . S
C263 H255 0.930 . S
C263 C264 1.355 . S
C263 C265 1.415 . S
C264 C263 1.355 . S
C264 C266 1.419 . S
C265 C260 1.425 . S
C265 C262 1.409 . S
C265 C263 1.415 . S
C266 H256 0.930 . S
C266 C264 1.419 . S
C266 C267 1.362 . S
C267 H257 0.930 . S
C267 C260 1.409 . S
C267 C266 1.362 . S
H268 C274 0.930 . S
H269 C277 0.930 . S
H270 C278 0.930 . S
H271 C279 0.930 . S
H272 C282 0.930 . S
H273 C283 0.930 . S
C274 H268 0.930 . S
C274 C275 1.355 . S
C274 C276 1.415 . S
C275 C274 1.355 . S
C275 C277 1.419 . S
C276 C274 1.415 . S
C276 C281 1.425 . S
C276 C283 1.409 . S
C277 H269 0.930 . S
C277 C275 1.419 . S
C277 C278 1.362 . S
C278 H270 0.930 . S
C278 C277 1.362 . S
C278 C281 1.409 . S
C279 H271 0.930 . S
C279 C280 1.355 . S
C279 C281 1.415 . S
C280 C279 1.355 . S
C280 C282 1.419 . S
C281 C276 1.425 . S
C281 C278 1.409 . S
C281 C279 1.415 . S
C282 H272 0.930 . S
C282 C280 1.419 . S
C282 C283 1.362 . S
C283 H273 0.930 . S
C283 C276 1.409 . S
C283 C282 1.362 . S
H284 C290 0.930 . S
H285 C293 0.930 . S
H286 C294 0.930 . S
H287 C295 0.930 . S
H288 C298 0.930 . S
H289 C299 0.930 . S
C290 H284 0.930 . S
C290 C291 1.355 . S
C290 C292 1.415 . S
C291 C290 1.355 . S
C291 C293 1.419 . S
C292 C290 1.415 . S
C292 C297 1.425 . S
C292 C299 1.409 . S
C293 H285 0.930 . S
C293 C291 1.419 . S
C293 C294 1.362 . S
C294 H286 0.930 . S
C294 C293 1.362 . S
C294 C297 1.409 . S
C295 H287 0.930 . S
C295 C296 1.355 . S
C295 C297 1.415 . S
C296 C295 1.355 . S
C296 C298 1.419 . S
C297 C292 1.425 . S
C297 C294 1.409 . S
C297 C295 1.415 . S
C298 H288 0.930 . S
C298 C296 1.419 . S
C298 C299 1.362 . S
C299 H289 0.930 . S
C299 C292 1.409 . S
C299 C298 1.362 . S
H300 C306 0.930 . S
H301 C309 0.930 . S
H302 C310 0.930 . S
H303 C311 0.930 . S
H304 C314 0.930 1_655 S
H305 C315 0.930 . S
C306 H300 0.930 . S
C306 C307 1.355 1_655 S
C306 C308 1.415 1_655 S
C307 C306 1.355 1_455 S
C307 C309 1.419 . S
C308 C306 1.415 1_455 S
C308 C313 1.425 . S
C308 C315 1.409 1_455 S
C309 H301 0.930 . S
C309 C307 1.419 . S
C309 C310 1.362 . S
C310 H302 0.930 . S
C310 C309 1.362 . S
C310 C313 1.409 . S
C311 H303 0.930 . S
C311 C312 1.355 . S
C311 C313 1.415 . S
C312 C311 1.355 . S
C312 C314 1.419 . S
C313 C308 1.425 . S
C313 C310 1.409 . S
C313 C311 1.415 . S
C314 H304 0.930 1_455 S
C314 C312 1.419 . S
C314 C315 1.362 1_455 S
C315 H305 0.930 . S
C315 C308 1.409 1_655 S
C315 C314 1.362 1_655 S
H316 C322 0.930 . S
H317 C325 0.930 . S
H318 C326 0.930 . S
H319 C327 0.930 . S
H320 C330 0.930 1_455 S
H321 C331 0.930 . S
C322 H316 0.930 . S
C322 C323 1.355 . S
C322 C324 1.415 . S
C323 C322 1.355 . S
C323 C325 1.419 . S
C324 C322 1.415 . S
C324 C329 1.425 . S
C324 C331 1.409 . S
C325 H317 0.930 . S
C325 C323 1.419 . S
C325 C326 1.362 . S
C326 H318 0.930 . S
C326 C325 1.362 . S
C326 C329 1.409 . S
C327 H319 0.930 . S
C327 C328 1.355 . S
C327 C329 1.415 . S
C328 C327 1.355 . S
C328 C330 1.419 . S
C329 C324 1.425 . S
C329 C326 1.409 . S
C329 C327 1.415 . S
C330 H320 0.930 1_655 S
C330 C328 1.419 . S
C330 C331 1.362 . S
C331 H321 0.930 . S
C331 C324 1.409 . S
C331 C330 1.362 . S
H332 C338 0.930 . S
H333 C341 0.930 . S
H334 C342 0.930 . S
H335 C343 0.930 . S
H336 C346 0.930 . S
H337 C347 0.930 . S
C338 H332 0.930 . S
C338 C339 1.355 . S
C338 C340 1.415 . S
C339 C338 1.355 . S
C339 C341 1.419 . S
C340 C338 1.415 . S
C340 C345 1.425 . S
C340 C347 1.409 . S
C341 H333 0.930 . S
C341 C339 1.419 . S
C341 C342 1.362 . S
C342 H334 0.930 . S
C342 C341 1.362 . S
C342 C345 1.409 . S
C343 H335 0.930 . S
C343 C344 1.355 . S
C343 C345 1.415 . S
C344 C343 1.355 . S
C344 C346 1.419 . S
C345 C340 1.425 . S
C345 C342 1.409 . S
C345 C343 1.415 . S
C346 H336 0.930 . S
C346 C344 1.419 . S
C346 C347 1.362 . S
C347 H337 0.930 . S
C347 C340 1.409 . S
C347 C346 1.362 . S
H348 C354 0.930 . S
H349 C357 0.930 1_455 S
H350 C358 0.930 . S
H351 C359 0.930 . S
H352 C362 0.930 . S
H353 C363 0.930 . S
C354 H348 0.930 . S
C354 C355 1.355 1_655 S
C354 C356 1.415 . S
C355 C354 1.355 1_455 S
C355 C357 1.419 1_455 S
C356 C354 1.415 . S
C356 C361 1.425 . S
C356 C363 1.409 . S
C357 H349 0.930 1_655 S
C357 C355 1.419 1_655 S
C357 C358 1.362 . S
C358 H350 0.930 . S
C358 C357 1.362 . S
C358 C361 1.409 . S
C359 H351 0.930 . S
C359 C360 1.355 . S
C359 C361 1.415 . S
C360 C359 1.355 . S
C360 C362 1.419 . S
C361 C356 1.425 . S
C361 C358 1.409 . S
C361 C359 1.415 . S
C362 H352 0.930 . S
C362 C360 1.419 . S
C362 C363 1.362 . S
C363 H353 0.930 . S
C363 C356 1.409 . S
C363 C362 1.362 . S
H364 C370 0.930 . S
H365 C373 0.930 . S
H366 C374 0.930 . S
H367 C375 0.930 . S
H368 C378 0.930 . S
H369 C379 0.930 . S
C370 H364 0.930 . S
C370 C371 1.355 . S
C370 C372 1.415 . S
C371 C370 1.355 . S
C371 C373 1.419 . S
C372 C370 1.415 . S
C372 C377 1.425 . S
C372 C379 1.409 . S
C373 H365 0.930 . S
C373 C371 1.419 . S
C373 C374 1.362 . S
C374 H366 0.930 . S
C374 C373 1.362 . S
C374 C377 1.409 . S
C375 H367 0.930 . S
C375 C376 1.355 . S
C375 C377 1.415 . S
C376 C375 1.355 . S
C376 C378 1.419 . S
C377 C372 1.425 . S
C377 C374 1.409 . S
C377 C375 1.415 . S
C378 H368 0.930 . S
C378 C376 1.419 . S
C378 C379 1.362 . S
C379 H369 0.930 . S
C379 C372 1.409 . S
C379 C378 1.362 . S
H380 C386 0.930 . S
H381 C389 0.930 . S
H382 C390 0.930 . S
H383 C391 0.930 . S
H384 C394 0.930 . S
H385 C395 0.930 . S
C386 H380 0.930 . S
C386 C387 1.355 . S
C386 C388 1.415 . S
C387 C386 1.355 . S
C387 C389 1.419 . S
C388 C386 1.415 . S
C388 C393 1.425 . S
C388 C395 1.409 . S
C389 H381 0.930 . S
C389 C387 1.419 . S
C389 C390 1.362 . S
C390 H382 0.930 . S
C390 C389 1.362 . S
C390 C393 1.409 . S
C391 H383 0.930 . S
C391 C392 1.355 . S
C391 C393 1.415 . S
C392 C391 1.355 . S
C392 C394 1.419 . S
C393 C388 1.425 . S
C393 C390 1.409 . S
C393 C391 1.415 . S
C394 H384 0.930 . S
C394 C392 1.419 . S
C394 C395 1.362 . S
C395 H385 0.930 . S
C395 C388 1.409 . S
C395 C394 1.362 . S
H396 C402 0.930 . S
H397 C405 0.930 . S
H398 C406 0.930 . S
H399 C407 0.930 . S
H400 C410 0.930 . S
H401 C411 0.930 . S
C402 H396 0.930 . S
C402 C403 1.355 . S
C402 C404 1.415 . S
C403 C402 1.355 . S
C403 C405 1.419 . S
C404 C402 1.415 . S
C404 C409 1.425 . S
C404 C411 1.409 . S
C405 H397 0.930 . S
C405 C403 1.419 . S
C405 C406 1.362 . S
C406 H398 0.930 . S
C406 C405 1.362 . S
C406 C409 1.409 . S
C407 H399 0.930 . S
C407 C408 1.355 . S
C407 C409 1.415 . S
C408 C407 1.355 . S
C408 C410 1.419 . S
C409 C404 1.425 . S
C409 C406 1.409 . S
C409 C407 1.415 . S
C410 H400 0.930 . S
C410 C408 1.419 . S
C410 C411 1.362 . S
C411 H401 0.930 . S
C411 C404 1.409 . S
C411 C410 1.362 . S
H412 C418 0.930 . S
H413 C421 0.930 . S
H414 C422 0.930 . S
H415 C423 0.930 . S
H416 C426 0.930 . S
H417 C427 0.930 . S
C418 H412 0.930 . S
C418 C419 1.355 . S
C418 C420 1.415 . S
C419 C418 1.355 . S
C419 C421 1.419 . S
C420 C418 1.415 . S
C420 C425 1.425 . S
C420 C427 1.409 . S
C421 H413 0.930 . S
C421 C419 1.419 . S
C421 C422 1.362 . S
C422 H414 0.930 . S
C422 C421 1.362 . S
C422 C425 1.409 . S
C423 H415 0.930 . S
C423 C424 1.355 . S
C423 C425 1.415 . S
C424 C423 1.355 . S
C424 C426 1.419 . S
C425 C420 1.425 . S
C425 C422 1.409 . S
C425 C423 1.415 . S
C426 H416 0.930 . S
C426 C424 1.419 . S
C426 C427 1.362 . S
C427 H417 0.930 . S
C427 C420 1.409 . S
C427 C426 1.362 . S
H428 C434 0.930 . S
H429 C437 0.930 . S
H430 C438 0.930 . S
H431 C439 0.930 . S
H432 C442 0.930 . S
H433 C443 0.930 . S
C434 H428 0.930 . S
C434 C435 1.355 . S
C434 C436 1.415 . S
C435 C434 1.355 . S
C435 C437 1.419 . S
C436 C434 1.415 . S
C436 C441 1.425 . S
C436 C443 1.409 . S
C437 H429 0.930 . S
C437 C435 1.419 . S
C437 C438 1.362 . S
C438 H430 0.930 . S
C438 C437 1.362 . S
C438 C441 1.409 . S
C439 H431 0.930 . S
C439 C440 1.355 . S
C439 C441 1.415 1_545 S
C440 C439 1.355 . S
C440 C442 1.419 . S
C441 C436 1.425 . S
C441 C438 1.409 . S
C441 C439 1.415 1_565 S
C442 H432 0.930 . S
C442 C440 1.419 . S
C442 C443 1.362 1_545 S
C443 H433 0.930 . S
C443 C436 1.409 . S
C443 C442 1.362 1_565 S
H444 C450 0.930 . S
H445 C453 0.930 . S
H446 C454 0.930 . S
H447 C455 0.930 . S
H448 C458 0.930 . S
H449 C459 0.930 . S
C450 H444 0.930 . S
C450 C451 1.355 . S
C450 C452 1.415 1_545 S
C451 C450 1.355 . S
C451 C453 1.419 . S
C452 C450 1.415 1_565 S
C452 C457 1.425 . S
C452 C459 1.409 . S
C453 H445 0.930 . S
C453 C451 1.419 . S
C453 C454 1.362 1_545 S
C454 H446 0.930 . S
C454 C453 1.362 1_565 S
C454 C457 1.409 . S
C455 H447 0.930 . S
C455 C456 1.355 . S
C455 C457 1.415 . S
C456 C455 1.355 . S
C456 C458 1.419 . S
C457 C452 1.425 . S
C457 C454 1.409 . S
C457 C455 1.415 . S
C458 H448 0.930 . S
C458 C456 1.419 . S
C458 C459 1.362 . S
C459 H449 0.930 . S
C459 C452 1.409 . S
C459 C458 1.362 . S
H460 C466 0.930 . S
H461 C469 0.930 . S
H462 C470 0.930 . S
H463 C471 0.930 . S
H464 C474 0.930 . S
H465 C475 0.930 . S
C466 H460 0.930 . S
C466 C467 1.355 . S
C466 C468 1.415 . S
C467 C466 1.355 . S
C467 C469 1.419 . S
C468 C466 1.415 . S
C468 C473 1.425 . S
C468 C475 1.409 1_545 S
C469 H461 0.930 . S
C469 C467 1.419 . S
C469 C470 1.362 . S
C470 H462 0.930 . S
C470 C469 1.362 . S
C470 C473 1.409 . S
C471 H463 0.930 . S
C471 C472 1.355 . S
C471 C473 1.415 1_565 S
C472 C471 1.355 . S
C472 C474 1.419 . S
C473 C468 1.425 . S
C473 C470 1.409 . S
C473 C471 1.415 1_545 S
C474 H464 0.930 . S
C474 C472 1.419 . S
C474 C475 1.362 . S
C475 H465 0.930 . S
C475 C468 1.409 1_565 S
C475 C474 1.362 . S
H476 C482 0.930 . S
H477 C485 0.930 . S
H478 C486 0.930 . S
H479 C487 0.942 . S
H480 C490 0.930 . S
H481 C491 0.930 . S
C482 H476 0.930 . S
C482 C483 1.355 . S
C482 C484 1.415 1_565 S
C483 C482 1.355 . S
C483 C485 1.419 1_455 S
C484 C482 1.415 1_545 S
C484 C489 1.425 . S
C484 C491 1.409 . S
C485 H477 0.930 . S
C485 C483 1.419 1_655 S
C485 C486 1.362 1_565 S
C486 H478 0.930 . S
C486 C485 1.362 1_545 S
C486 C489 1.409 1_655 S
C487 H479 0.942 . S
C487 C488 1.355 . S
C487 C489 1.415 . S
C488 C487 1.355 . S
C488 C490 1.419 . S
C489 C484 1.425 . S
C489 C486 1.409 1_455 S
C489 C487 1.415 . S
C490 H480 0.930 . S
C490 C488 1.419 . S
C490 C491 1.362 . S
C491 H481 0.930 . S
C491 C484 1.409 . S
C491 C490 1.362 . S
H492 C498 0.930 . S
H493 C501 0.930 . S
H494 C502 0.930 . S
H495 C503 0.930 . S
H496 C506 0.930 . S
H497 C507 0.930 . S
C498 H492 0.930 . S
C498 C499 1.355 . S
C498 C500 1.415 1_554 S
C499 C498 1.355 . S
C499 C501 1.419 . S
C500 C498 1.415 1_556 S
C500 C505 1.425 . S
C500 C507 1.409 . S
C501 H493 0.930 . S
C501 C499 1.419 . S
C501 C502 1.362 1_554 S
C502 H494 0.930 . S
C502 C501 1.362 1_556 S
C502 C505 1.409 . S
C503 H495 0.930 . S
C503 C504 1.355 . S
C503 C505 1.415 . S
C504 C503 1.355 . S
C504 C506 1.419 . S
C505 C500 1.425 . S
C505 C502 1.409 . S
C505 C503 1.415 . S
C506 H496 0.930 . S
C506 C504 1.419 . S
C506 C507 1.362 . S
C507 H497 0.930 . S
C507 C500 1.409 . S
C507 C506 1.362 . S
H508 C514 0.930 . S
H509 C517 0.930 . S
H510 C518 0.930 . S
H511 C519 0.930 . S
H512 C522 0.930 . S
H513 C523 0.930 . S
C514 H508 0.930 . S
C514 C515 1.355 . S
C514 C516 1.415 . S
C515 C514 1.355 . S
C515 C517 1.419 . S
C516 C514 1.415 . S
C516 C521 1.425 . S
C516 C523 1.409 . S
C517 H509 0.930 . S
C517 C515 1.419 . S
C517 C518 1.362 . S
C518 H510 0.930 . S
C518 C517 1.362 . S
C518 C521 1.409 . S
C519 H511 0.930 . S
C519 C520 1.355 . S
C519 C521 1.415 . S
C520 C519 1.355 . S
C520 C522 1.419 . S
C521 C516 1.425 . S
C521 C518 1.409 . S
C521 C519 1.415 . S
C522 H512 0.930 . S
C522 C520 1.419 . S
C522 C523 1.362 . S
C523 H513 0.930 . S
C523 C516 1.409 . S
C523 C522 1.362 . S
H524 C530 0.930 . S
H525 C533 0.930 . S
H526 C534 0.930 . S
H527 C535 0.930 . S
H528 C538 0.930 . S
H529 C539 0.930 . S
C530 H524 0.930 . S
C530 C531 1.355 . S
C530 C532 1.415 . S
C531 C530 1.355 . S
C531 C533 1.419 . S
C532 C530 1.415 . S
C532 C537 1.425 . S
C532 C539 1.409 . S
C533 H525 0.930 . S
C533 C531 1.419 . S
C533 C534 1.362 . S
C534 H526 0.930 . S
C534 C533 1.362 . S
C534 C537 1.409 . S
C535 H527 0.930 . S
C535 C536 1.355 . S
C535 C537 1.415 . S
C536 C535 1.355 . S
C536 C538 1.419 . S
C537 C532 1.425 . S
C537 C534 1.409 . S
C537 C535 1.415 . S
C538 H528 0.930 . S
C538 C536 1.419 . S
C538 C539 1.362 . S
C539 H529 0.930 . S
C539 C532 1.409 . S
C539 C538 1.362 . S
H540 C546 0.930 . S
H541 C549 0.930 . S
H542 C550 0.930 . S
H543 C551 0.930 . S
H544 C554 0.930 . S
H545 C555 0.930 . S
C546 H540 0.930 . S
C546 C547 1.355 . S
C546 C548 1.415 . S
C547 C546 1.355 . S
C547 C549 1.419 . S
C548 C546 1.415 . S
C548 C553 1.425 . S
C548 C555 1.409 . S
C549 H541 0.930 . S
C549 C547 1.419 . S
C549 C550 1.362 . S
C550 H542 0.930 . S
C550 C549 1.362 . S
C550 C553 1.409 . S
C551 H543 0.930 . S
C551 C552 1.355 . S
C551 C553 1.415 . S
C552 C551 1.355 . S
C552 C554 1.419 . S
C553 C548 1.425 . S
C553 C550 1.409 . S
C553 C551 1.415 . S
C554 H544 0.930 . S
C554 C552 1.419 . S
C554 C555 1.362 . S
C555 H545 0.930 . S
C555 C548 1.409 . S
C555 C554 1.362 . S
H556 C562 0.930 . S
H557 C565 0.930 . S
H558 C566 0.930 . S
H559 C567 0.930 . S
H560 C570 0.930 . S
H561 C571 0.930 . S
C562 H556 0.930 . S
C562 C563 1.355 . S
C562 C564 1.415 1_556 S
C563 C562 1.355 . S
C563 C565 1.419 . S
C564 C562 1.415 1_554 S
C564 C569 1.425 . S
C564 C571 1.409 . S
C565 H557 0.930 . S
C565 C563 1.419 . S
C565 C566 1.362 1_556 S
C566 H558 0.930 . S
C566 C565 1.362 1_554 S
C566 C569 1.409 . S
C567 H559 0.930 . S
C567 C568 1.355 . S
C567 C569 1.415 . S
C568 C567 1.355 . S
C568 C570 1.419 . S
C569 C564 1.425 . S
C569 C566 1.409 . S
C569 C567 1.415 . S
C570 H560 0.930 . S
C570 C568 1.419 . S
C570 C571 1.362 . S
C571 H561 0.930 . S
C571 C564 1.409 . S
C571 C570 1.362 . S
H572 C578 0.930 . S
H573 C581 0.930 . S
H574 C582 0.930 . S
H575 C583 0.930 . S
H576 C586 0.930 . S
H577 C587 0.930 . S
C578 H572 0.930 . S
C578 C579 1.355 . S
C578 C580 1.415 . S
C579 C578 1.355 . S
C579 C581 1.419 . S
C580 C578 1.415 . S
C580 C585 1.425 . S
C580 C587 1.409 . S
C581 H573 0.930 . S
C581 C579 1.419 . S
C581 C582 1.362 . S
C582 H574 0.930 . S
C582 C581 1.362 . S
C582 C585 1.409 . S
C583 H575 0.930 . S
C583 C584 1.355 . S
C583 C585 1.415 . S
C584 C583 1.355 . S
C584 C586 1.419 . S
C585 C580 1.425 . S
C585 C582 1.409 . S
C585 C583 1.415 . S
C586 H576 0.930 . S
C586 C584 1.419 . S
C586 C587 1.362 . S
C587 H577 0.930 . S
C587 C580 1.409 . S
C587 C586 1.362 . S
H588 C594 0.930 . S
H589 C597 0.930 . S
H590 C598 0.930 . S
H591 C599 0.930 . S
H592 C602 0.930 . S
H593 C603 0.930 . S
C594 H588 0.930 . S
C594 C595 1.355 . S
C594 C596 1.415 . S
C595 C594 1.355 . S
C595 C597 1.419 . S
C596 C594 1.415 . S
C596 C601 1.425 . S
C596 C603 1.409 . S
C597 H589 0.930 . S
C597 C595 1.419 . S
C597 C598 1.362 . S
C598 H590 0.930 . S
C598 C597 1.362 . S
C598 C601 1.409 . S
C599 H591 0.930 . S
C599 C600 1.355 . S
C599 C601 1.415 . S
C600 C599 1.355 . S
C600 C602 1.419 . S
C601 C596 1.425 . S
C601 C598 1.409 . S
C601 C599 1.415 . S
C602 H592 0.930 . S
C602 C600 1.419 . S
C602 C603 1.362 . S
C603 H593 0.930 . S
C603 C596 1.409 . S
C603 C602 1.362 . S
H604 C610 0.930 . S
H605 C613 0.930 . S
H606 C614 0.930 . S
H607 C615 0.930 . S
H608 C618 0.930 . S
H609 C619 0.930 . S
C610 H604 0.930 . S
C610 C611 1.355 . S
C610 C612 1.415 . S
C611 C610 1.355 . S
C611 C613 1.419 . S
C612 C610 1.415 . S
C612 C617 1.425 . S
C612 C619 1.409 . S
C613 H605 0.930 . S
C613 C611 1.419 . S
C613 C614 1.362 . S
C614 H606 0.930 . S
C614 C613 1.362 . S
C614 C617 1.409 . S
C615 H607 0.930 . S
C615 C616 1.355 . S
C615 C617 1.415 . S
C616 C615 1.355 . S
C616 C618 1.419 . S
C617 C612 1.425 . S
C617 C614 1.409 . S
C617 C615 1.415 . S
C618 H608 0.930 . S
C618 C616 1.419 . S
C618 C619 1.362 . S
C619 H609 0.930 . S
C619 C612 1.409 . S
C619 C618 1.362 . S
C248 C159 1.360 . S
C243 C6 1.536 . S
C264 C177 1.339 . S
C259 C30 1.466 . S
C275 C49 1.356 . S
C280 C201 1.380 . S
C296 C231 1.260 . S
C291 C63 1.452 . S
C312 C219 1.331 . S
C307 C82 1.343 . S
C323 C106 1.414 . S
C328 C172 1.445 1_655 S
C339 C125 1.613 . S
C344 C192 1.503 . S
C355 C139 1.423 . S
C360 C197 1.377 . S
C371 C144 1.414 . S
C376 C213 1.431 . S
C387 C101 1.446 . S
C392 C168 1.350 . S
C408 C235 1.408 . S
C403 C68 1.445 . S
C424 C180 1.348 . S
C419 C25 1.421 . S
C435 C44 1.575 . S
C440 C198 1.461 . S
C451 C11 1.412 . S
C456 C156 1.321 . S
C472 C176 1.269 . S
C467 C120 1.373 . S
C488 C222 1.544 . S
C483 C87 1.590 . S
C504 C218 1.369 . S
C499 C2 1.556 . S
C520 C171 1.578 . S
C515 C21 1.544 . S
C531 C40 1.511 . S
C536 C193 1.407 . S
C547 C59 1.594 . S
C552 C214 1.536 . S
C568 C155 1.434 . S
C563 C78 1.655 . S
C579 C97 1.558 . S
C584 C189 1.456 . S
C600 C210 1.437 . S
C595 C116 1.665 . S
C616 C234 1.505 . S
C611 C135 1.489 . S
