# Generated by pormake.
# Topology zzz, (3,6)-cn, num edge types: 1
# Building blocks:
#     Node 0, Type 0, BuildingBlock: BETDIP_clean_linker_0, # of connection points: 3
#     Node 1, Type 0, BuildingBlock: BETDIP_clean_linker_0, # of connection points: 3
#     Node 2, Type 0, BuildingBlock: BETDIP_clean_linker_0, # of connection points: 3
#     Node 3, Type 0, BuildingBlock: BETDIP_clean_linker_0, # of connection points: 3
#     Node 4, Type 0, BuildingBlock: BETDIP_clean_linker_0, # of connection points: 3
#     Node 5, Type 0, BuildingBlock: BETDIP_clean_linker_0, # of connection points: 3
#     Node 6, Type 0, BuildingBlock: BETDIP_clean_linker_0, # of connection points: 3
#     Node 7, Type 0, BuildingBlock: BETDIP_clean_linker_0, # of connection points: 3
#     Node 8, Type 1, BuildingBlock: BETGAK_clean_sbu_0, # of connection points: 6
#     Node 9, Type 1, BuildingBlock: BETGAK_clean_sbu_0, # of connection points: 6
#     Node 10, Type 1, BuildingBlock: BETGAK_clean_sbu_0, # of connection points: 6
#     Node 11, Type 1, BuildingBlock: BETGAK_clean_sbu_0, # of connection points: 6
#     Edge 12, Type (0, 1), BuildingBlock: UVAHIK_clean_linker_0, # of connection points: 2
#     Edge 13, Type (0, 1), BuildingBlock: UVAHIK_clean_linker_0, # of connection points: 2
#     Edge 14, Type (0, 1), BuildingBlock: UVAHIK_clean_linker_0, # of connection points: 2
#     Edge 15, Type (0, 1), BuildingBlock: UVAHIK_clean_linker_0, # of connection points: 2
#     Edge 16, Type (0, 1), BuildingBlock: UVAHIK_clean_linker_0, # of connection points: 2
#     Edge 17, Type (0, 1), BuildingBlock: UVAHIK_clean_linker_0, # of connection points: 2
#     Edge 18, Type (0, 1), BuildingBlock: UVAHIK_clean_linker_0, # of connection points: 2
#     Edge 19, Type (0, 1), BuildingBlock: UVAHIK_clean_linker_0, # of connection points: 2
#     Edge 20, Type (0, 1), BuildingBlock: UVAHIK_clean_linker_0, # of connection points: 2
#     Edge 21, Type (0, 1), BuildingBlock: UVAHIK_clean_linker_0, # of connection points: 2
#     Edge 22, Type (0, 1), BuildingBlock: UVAHIK_clean_linker_0, # of connection points: 2
#     Edge 23, Type (0, 1), BuildingBlock: UVAHIK_clean_linker_0, # of connection points: 2
#     Edge 24, Type (0, 1), BuildingBlock: UVAHIK_clean_linker_0, # of connection points: 2
#     Edge 25, Type (0, 1), BuildingBlock: UVAHIK_clean_linker_0, # of connection points: 2
#     Edge 26, Type (0, 1), BuildingBlock: UVAHIK_clean_linker_0, # of connection points: 2
#     Edge 27, Type (0, 1), BuildingBlock: UVAHIK_clean_linker_0, # of connection points: 2
#     Edge 28, Type (0, 1), BuildingBlock: UVAHIK_clean_linker_0, # of connection points: 2
#     Edge 29, Type (0, 1), BuildingBlock: UVAHIK_clean_linker_0, # of connection points: 2
#     Edge 30, Type (0, 1), BuildingBlock: UVAHIK_clean_linker_0, # of connection points: 2
#     Edge 31, Type (0, 1), BuildingBlock: UVAHIK_clean_linker_0, # of connection points: 2
#     Edge 32, Type (0, 1), BuildingBlock: UVAHIK_clean_linker_0, # of connection points: 2
#     Edge 33, Type (0, 1), BuildingBlock: UVAHIK_clean_linker_0, # of connection points: 2
#     Edge 34, Type (0, 1), BuildingBlock: UVAHIK_clean_linker_0, # of connection points: 2
#     Edge 35, Type (0, 1), BuildingBlock: UVAHIK_clean_linker_0, # of connection points: 2
# Relax obj value: 0.233
# Max RMSD: 0.177
# Mean RMSD: 0.158
data_MOF--net-zzz--node1-BETGAK_clean_sbu_0--node2-BETDIP_clean_linker_0--edge1-UVAHIK_clean_linker_0
_symmetry_space_group_name_H-M    P1
_symmetry_Int_Tables_number       1
_symmetry_cell_setting            triclinic
loop_
_symmetry_equiv_pos_as_xyz
'x, y, z'
_cell_length_a     67.401695
_cell_length_b     67.407624
_cell_length_c     17.128968
_cell_angle_alpha  89.903345
_cell_angle_beta   90.017066
_cell_angle_gamma 89.976606
loop_
_atom_site_label
_atom_site_type_symbol
_atom_site_fract_x
_atom_site_fract_y
_atom_site_fract_z
_atom_type_partial_charge
H0 H 0.7589 0.51968 0.45195 0.0
H1 H 0.74307 0.53889 0.21987 0.0
H2 H 0.80435 0.53617 0.28795 0.0
H3 H 0.71824 0.55721 0.34889 0.0
C4 C 0.71406 0.54193 0.33703 0.0
C5 C 0.76321 0.52512 0.39488 0.0
C6 C 0.78345 0.52793 0.37695 0.0
C7 C 0.74854 0.52957 0.33852 0.0
C8 C 0.75426 0.53614 0.26405 0.0
C9 C 0.77431 0.53854 0.24551 0.0
C10 C 0.78875 0.53468 0.3025 0.0
N11 N 0.72805 0.52675 0.35468 0.0
H12 H 1.00796 0.75552 0.4219 0.0
H13 H 0.02467 0.74075 0.18586 0.0
H14 H 0.03661 0.79889 0.27499 0.0
H15 H 0.98348 0.72983 0.23083 0.0
C16 C 0.99373 0.71923 0.25677 0.0
C17 C 1.01484 0.75961 0.36705 0.0
C18 C 0.02256 0.77892 0.35655 0.0
C19 C 1.01562 0.74575 0.30525 0.0
C20 C 0.02421 0.75124 0.23375 0.0
C21 C 0.03185 0.77028 0.22336 0.0
C22 C 0.03108 0.78396 0.28454 0.0
N23 N 1.00742 0.72643 0.31333 0.0
H24 H 0.77814 1.00204 0.43744 0.0
H25 H 0.7979 0.01887 0.20732 0.0
H26 H 0.73622 0.02339 0.26718 0.0
H27 H 0.81197 0.97557 0.29401 0.0
C28 C 0.81996 0.98939 0.30294 0.0
C29 C 0.77489 1.00789 0.3799 0.0
C30 C 0.75512 1.01225 0.35856 0.0
C31 C 0.7903 1.01005 0.32458 0.0
C32 C 0.78602 1.01717 0.2495 0.0
C33 C 0.76666 0.02252 0.22938 0.0
C34 C 0.75136 0.01989 0.28382 0.0
N35 N 0.8102 1.00503 0.34316 0.0
H36 H 0.53045 0.78006 0.41707 0.0
H37 H 0.51758 0.79669 0.1792 0.0
H38 H 0.52212 0.73514 0.24164 0.0
H39 H 0.55548 0.81812 0.28343 0.0
C40 C 0.54033 0.82361 0.28562 0.0
C41 C 0.52745 0.77589 0.35718 0.0
C42 C 0.52711 0.75565 0.33575 0.0
C43 C 0.5246 0.79073 0.29975 0.0
C44 C 0.52038 0.78529 0.22259 0.0
C45 C 0.5194 0.7653 0.20158 0.0
C46 C 0.5231 0.75066 0.25791 0.0
N47 N 0.52543 0.81122 0.31864 0.0
H48 H 0.28345 0.50776 0.00859 0.0
H49 H 0.29665 0.53364 0.23317 0.0
H50 H 0.23625 0.52416 0.16525 0.0
H51 H 0.32139 0.54917 0.12837 0.0
C52 C 0.32672 0.53394 0.12943 0.0
C53 C 0.27851 0.51381 0.06381 0.0
C54 C 0.25801 0.51514 0.08037 0.0
C55 C 0.2926 0.52055 0.11895 0.0
C56 C 0.28601 0.52862 0.19006 0.0
C57 C 0.26579 0.52959 0.2072 0.0
C58 C 0.25196 0.52284 0.15247 0.0
N59 N 0.31336 0.51883 0.10456 0.0
H60 H 0.03384 0.27441 0.00654 0.0
H61 H 1.00431 0.29455 0.21502 0.0
H62 H 0.99427 0.23547 0.13034 0.0
H63 H 1.0032 0.32313 0.07317 0.0
C64 C 1.01743 0.32329 0.10312 0.0
C65 C 0.02367 0.27168 0.05432 0.0
C66 C 1.01381 0.25328 0.06028 0.0
C67 C 0.01971 0.28681 0.10901 0.0
C68 C 1.00678 0.28312 0.17164 0.0
C69 C 0.9976 0.26462 0.17989 0.0
C70 C 1.00096 0.24999 0.12333 0.0
N71 N 0.02901 0.30565 0.10303 0.0
H72 H 0.25901 0.02247 0.02164 0.0
H73 H 0.24521 0.98283 0.21234 0.0
H74 H 0.30198 0.97961 0.10127 0.0
H75 H 0.2151 0.98242 0.11898 0.0
C76 C 0.21343 0.99798 0.1344 0.0
C77 C 0.26321 1.01046 0.06034 0.0
C78 C 0.28216 1.00162 0.0536 0.0
C79 C 0.24943 1.0031 0.11551 0.0
C80 C 0.25525 0.98789 0.16706 0.0
C81 C 0.27406 0.97936 0.16135 0.0
C82 C 0.28722 0.98602 0.10405 0.0
N83 N 0.22979 1.01089 0.12005 0.0
H84 H 0.51415 0.25692 0.96419 0.0
H85 H 0.50056 0.23816 0.19892 0.0
H86 H 0.48598 0.29714 0.12491 0.0
H87 H 0.54172 0.2272 0.13891 0.0
C88 C 0.52989 0.21764 0.11784 0.0
C89 C 0.50757 0.25992 0.02064 0.0
C90 C 0.49961 0.2789 0.03683 0.0
C91 C 0.50763 0.24505 0.07904 0.0
C92 C 0.49994 0.24928 0.15318 0.0
C93 C 0.49178 0.26786 0.16919 0.0
C94 C 0.49135 0.2824 0.11068 0.0
N95 N 0.51583 0.22595 0.06497 0.0
La96 La 0.02904 1.0098 0.79184 0.0
La97 La 1.00751 0.02052 0.65104 0.0
C98 C 0.04136 0.99239 0.91243 0.0
C99 C 0.04842 0.9718 0.9225 0.0
C100 C 0.06858 0.96808 0.93786 0.0
C101 C 0.07608 0.94874 0.93398 0.0
C102 C 0.06353 0.93296 0.91382 0.0
C103 C 0.04324 0.93653 0.90261 0.0
C104 C 0.03571 0.95574 0.90738 0.0
C105 C 0.05222 0.02057 0.67471 0.0
C106 C 1.01644 0.97592 0.66832 0.0
C107 C 0.99499 0.03851 0.53216 0.0
C108 C 0.99007 0.05971 0.5218 0.0
C109 C 0.97026 0.06544 0.50988 0.0
C110 C 0.96491 0.08547 0.51193 0.0
C111 C 0.97929 0.10014 0.52594 0.0
C112 C 0.99922 0.09442 0.53482 0.0
C113 C 1.00456 0.07444 0.53269 0.0
C114 C 0.98452 1.00958 0.76857 0.0
C115 C 0.02054 0.05425 0.77272 0.0
O116 O 0.05257 1.00358 0.86847 0.0
O117 O 0.02252 0.99471 0.89605 0.0
O118 O 0.05535 0.02483 0.74727 0.0
O119 O 0.03689 1.00991 0.66989 0.0
O120 O 0.02144 0.98059 0.74095 0.0
O121 O 1.01255 0.98993 0.61654 0.0
O122 O 0.98346 0.02889 0.58034 0.0
O123 O 1.0137 0.03412 0.54333 0.0
O124 O 0.98145 1.00509 0.69617 0.0
O125 O 0.9997 0.02045 0.77304 0.0
O126 O 1.01649 0.04954 0.69942 0.0
O127 O 0.02317 0.04025 0.82565 0.0
H128 H 0.07866 0.98021 0.94995 0.0
H129 H 0.09174 0.9462 0.94408 0.0
H130 H 0.03322 0.92444 0.88904 0.0
H131 H 0.02007 0.95801 0.89598 0.0
H132 H 0.95881 0.05436 0.50166 0.0
H133 H 0.94944 0.08943 0.50477 0.0
H134 H 1.01072 0.1054 0.54379 0.0
H135 H 0.01998 0.07056 0.5419 0.0
La136 La 0.52289 0.03218 0.77262 0.0
La137 La 0.51105 1.009 0.62311 0.0
C138 C 0.54129 0.0435 0.89131 0.0
C139 C 0.5628 0.04192 0.90642 0.0
C140 C 0.5744 0.0592 0.90834 0.0
C141 C 0.59507 0.05799 0.90402 0.0
C142 C 0.6045 0.03945 0.89818 0.0
C143 C 0.59293 0.02214 0.90097 0.0
C144 C 0.57231 0.02335 0.905 0.0
C145 C 0.51242 0.05364 0.65008 0.0
C146 C 0.5565 1.01528 0.65609 0.0
C147 C 0.49675 1.00091 0.49253 0.0
C148 C 0.47901 0.98908 0.47287 0.0
C149 C 0.47743 0.96904 0.49546 0.0
C150 C 0.45938 0.95902 0.48854 0.0
C151 C 0.44257 0.96892 0.45988 0.0
C152 C 0.44438 0.98864 0.4341 0.0
C153 C 0.46246 0.99859 0.44017 0.0
C154 C 0.51333 0.98464 0.74588 0.0
C155 C 0.47811 0.0228 0.74813 0.0
O156 O 0.53664 0.05535 0.8335 0.0
O157 O 0.53121 0.02684 0.88901 0.0
O158 O 0.50849 0.05829 0.72199 0.0
O159 O 0.52247 0.03783 0.64923 0.0
O160 O 0.55165 0.02242 0.72567 0.0
O161 O 0.54297 1.01051 0.60315 0.0
O162 O 0.51183 0.99122 0.52291 0.0
O163 O 0.49306 1.01761 0.52927 0.0
O164 O 0.50809 0.97911 0.67654 0.0
O165 O 0.5166 1.0029 0.74128 0.0
O166 O 0.48252 0.01814 0.67468 0.0
O167 O 0.49195 0.02674 0.80098 0.0
H168 H 0.56744 0.07369 0.90918 0.0
H169 H 0.60364 0.07158 0.90379 0.0
H170 H 0.59973 1.00763 0.89613 0.0
H171 H 0.56388 1.00973 0.90281 0.0
H172 H 0.48989 0.96129 0.52132 0.0
H173 H 0.45835 0.94381 0.50869 0.0
H174 H 0.43169 0.99648 0.41044 0.0
H175 H 0.46329 1.014 0.42235 0.0
La176 La 0.5114 0.52538 0.78834 0.0
La177 La 0.53417 0.514 0.65055 0.0
C178 C 0.49929 0.54346 0.90721 0.0
C179 C 0.49323 0.5644 0.91473 0.0
C180 C 0.47397 0.5692 0.93981 0.0
C181 C 0.46709 0.58877 0.93505 0.0
C182 C 0.47933 0.60369 0.90407 0.0
C183 C 0.49881 0.59901 0.88209 0.0
C184 C 0.50573 0.57961 0.88758 0.0
C185 C 0.48902 0.51426 0.66958 0.0
C186 C 0.52618 0.559 0.66582 0.0
C187 C 0.54596 0.49623 0.53051 0.0
C188 C 0.54069 0.47626 0.50404 0.0
C189 C 0.55522 0.46363 0.47296 0.0
C190 C 0.55098 0.44353 0.46105 0.0
C191 C 0.53229 0.43599 0.48151 0.0
C192 C 0.51757 0.44879 0.50945 0.0
C193 C 0.5217 0.46878 0.52043 0.0
C194 C 0.55621 0.52511 0.77033 0.0
C195 C 0.51823 0.48079 0.76865 0.0
O196 O 0.48777 0.53264 0.86307 0.0
O197 O 0.5181 0.54022 0.8927 0.0
O198 O 0.48512 0.51063 0.74225 0.0
O199 O 0.5046 0.52464 0.66566 0.0
O200 O 0.51819 0.55451 0.73438 0.0
O201 O 0.53274 0.54506 0.61848 0.0
O202 O 0.55597 0.49665 0.59584 0.0
O203 O 0.53151 0.50923 0.53 0.0
O204 O 0.56023 0.52903 0.69799 0.0
O205 O 0.5408 0.51454 0.77309 0.0
O206 O 0.52189 0.48569 0.69508 0.0
O207 O 0.51652 0.4947 0.82237 0.0
H208 H 0.46406 0.5577 0.96064 0.0
H209 H 0.45208 0.59215 0.95327 0.0
H210 H 0.50867 0.61038 0.85984 0.0
H211 H 0.52067 0.57649 0.86794 0.0
H212 H 0.57001 0.46913 0.4608 0.0
H213 H 0.56243 0.43378 0.43886 0.0
H214 H 0.50298 0.4432 0.52438 0.0
H215 H 0.51024 0.47818 0.54487 0.0
La216 La 1.01741 0.50399 0.7813 0.0
La217 La 0.02757 0.52673 0.64108 0.0
C218 C 0.99907 0.49381 0.9018 0.0
C219 C 0.97858 0.49953 0.92166 0.0
C220 C 0.96409 0.48485 0.93244 0.0
C221 C 0.94397 0.48992 0.9326 0.0
C222 C 0.93803 0.50975 0.92186 0.0
C223 C 0.95263 0.52452 0.91531 0.0
C224 C 0.97266 0.51948 0.9152 0.0
C225 C 0.02886 0.48189 0.66271 0.0
C226 C 0.98341 0.51741 0.66118 0.0
C227 C 0.04449 0.53973 0.52074 0.0
C228 C 0.06486 0.54723 0.5105 0.0
C229 C 0.068 0.56658 0.48253 0.0
C230 C 0.08701 0.57492 0.48402 0.0
C231 C 0.10304 0.56407 0.5145 0.0
C232 C 0.10001 0.54449 0.53951 0.0
C233 C 0.08114 0.53611 0.53732 0.0
C234 C 1.01538 0.54867 0.75911 0.0
C235 C 0.06203 0.513 0.76236 0.0
O236 O 1.00062 0.48242 0.84034 0.0
O237 O 1.01213 0.50821 0.9009 0.0
O238 O 0.03277 0.47793 0.73527 0.0
O239 O 0.01796 0.49707 0.65934 0.0
O240 O 0.98846 0.51404 0.73478 0.0
O241 O 0.99723 0.52005 0.6076 0.0
O242 O 0.03321 0.55063 0.56551 0.0
O243 O 0.04264 0.52078 0.53645 0.0
O244 O 1.01121 0.55214 0.68658 0.0
O245 O 0.02679 0.53387 0.76309 0.0
O246 O 0.05701 0.52082 0.69392 0.0
O247 O 0.04852 0.50614 0.81115 0.0
H248 H 0.9683 0.46937 0.93673 0.0
H249 H 0.93306 0.47825 0.93925 0.0
H250 H 0.94862 0.5399 0.90593 0.0
H251 H 0.98341 0.53116 0.90535 0.0
H252 H 0.05565 0.57543 0.46185 0.0
H253 H 0.0891 0.58998 0.4635 0.0
H254 H 0.11226 0.53566 0.56137 0.0
H255 H 0.07927 0.52113 0.55909 0.0
C256 C 0.19126 0.02313 0.20184 0.0
C257 C 0.19633 1.00337 0.18476 0.0
C258 C 0.17515 0.02732 0.25147 0.0
C259 C 0.14894 1.00767 0.41782 0.0
H260 H 0.10176 0.03629 0.35297 0.0
C261 C 0.08692 0.02863 0.63435 0.0
C262 C 0.06784 0.02199 0.61399 0.0
C263 C 0.10234 0.02844 0.57974 0.0
C264 C 0.11489 0.02833 0.37179 0.0
H265 H 0.18861 0.97262 0.20568 0.0
H266 H 0.16114 0.97992 0.29388 0.0
H267 H 0.12974 0.03249 0.26169 0.0
H268 H 0.04976 1.01072 0.51941 0.0
H269 H 0.07675 1.01087 0.42286 0.0
H270 H 0.13433 1.00352 0.52771 0.0
C271 C 0.16935 0.99213 0.26837 0.0
C272 C 0.1309 0.0263 0.31991 0.0
C273 C 0.18504 0.98799 0.2178 0.0
C274 C 0.06431 1.01591 0.53675 0.0
C275 C 0.07972 1.01606 0.48153 0.0
C276 C 0.13318 1.01005 0.47005 0.0
C277 C 0.16425 1.0118 0.28595 0.0
C278 C 0.14796 1.01571 0.34224 0.0
C279 C 0.09899 0.02195 0.50299 0.0
C280 C 0.11589 0.02021 0.44743 0.0
H281 H 0.19968 0.03527 0.177 0.0
H282 H 0.17151 0.04261 0.26439 0.0
H283 H 0.1619 0.99939 0.43634 0.0
H284 H 0.09012 0.03347 0.69329 0.0
H285 H 0.11699 0.0332 0.59777 0.0
C286 C 0.54177 0.19132 0.20865 0.0
C287 C 0.52694 0.19825 0.15788 0.0
C288 C 0.53903 0.17399 0.25235 0.0
C289 C 0.53383 0.13178 0.31123 0.0
H290 H 0.48355 0.12414 0.41683 0.0
C291 C 0.52016 0.06382 0.51201 0.0
C292 C 0.51099 0.06785 0.58395 0.0
C293 C 0.52055 0.0782 0.45268 0.0
C294 C 0.4977 0.12604 0.38785 0.0
H295 H 0.49753 0.19229 0.11262 0.0
H296 H 0.49267 0.16185 0.18916 0.0
H297 H 0.48765 0.15196 0.32665 0.0
H298 H 0.4944 0.08984 0.64893 0.0
H299 H 0.4951 0.11489 0.54598 0.0
H300 H 0.54412 0.10629 0.37408 0.0
C301 C 0.50647 0.16992 0.19524 0.0
C302 C 0.49998 0.1419 0.33539 0.0
C303 C 0.5093 0.18727 0.15088 0.0
C304 C 0.50159 0.08627 0.59415 0.0
C305 C 0.50191 0.10062 0.53483 0.0
C306 C 0.53152 0.1159 0.36332 0.0
C307 C 0.52128 0.16311 0.24695 0.0
C308 C 0.51819 0.14519 0.29733 0.0
C309 C 0.5117 0.09694 0.4637 0.0
C310 C 0.51353 0.11295 0.40334 0.0
H311 H 0.55546 0.19956 0.21571 0.0
H312 H 0.55065 0.16945 0.29226 0.0
H313 H 0.54799 0.13368 0.28237 0.0
H314 H 0.52749 0.04973 0.50228 0.0
H315 H 0.52798 0.07471 0.39837 0.0
C316 C 0.35351 0.5453 0.21848 0.0
C317 C 0.34487 0.52973 0.17599 0.0
C318 C 0.36976 0.54189 0.26733 0.0
C319 C 0.41238 0.51012 0.30643 0.0
H320 H 0.40702 0.52921 0.51894 0.0
C321 C 0.47773 0.51927 0.53043 0.0
C322 C 0.47389 0.51268 0.60688 0.0
C323 C 0.46263 0.51924 0.47382 0.0
C324 C 0.40874 0.52372 0.45993 0.0
H325 H 0.34694 0.49839 0.14941 0.0
H326 H 0.37593 0.49246 0.23405 0.0
H327 H 0.37956 0.53322 0.4273 0.0
H328 H 0.45142 0.50017 0.68293 0.0
H329 H 0.42512 0.50048 0.58507 0.0
H330 H 0.44187 0.50107 0.33912 0.0
C331 C 0.36986 0.5073 0.22973 0.0
C332 C 0.39304 0.5261 0.40735 0.0
C333 C 0.35327 0.51067 0.18156 0.0
C334 C 0.45485 0.50547 0.62476 0.0
C335 C 0.43975 0.5057 0.56875 0.0
C336 C 0.42831 0.50806 0.35888 0.0
C337 C 0.37805 0.52285 0.27414 0.0
C338 C 0.39466 0.51938 0.32998 0.0
C339 C 0.44333 0.51287 0.49297 0.0
C340 C 0.42662 0.51481 0.43632 0.0
H341 H 0.34738 0.56015 0.21532 0.0
H342 H 0.37584 0.55419 0.30021 0.0
H343 H 0.41407 0.5049 0.24703 0.0
H344 H 0.49226 0.52489 0.5149 0.0
H345 H 0.46582 0.52492 0.41599 0.0
C346 C 1.01143 0.3583 0.14199 0.0
C347 C 0.02234 0.34076 0.15208 0.0
C348 C 1.01411 0.3744 0.1922 0.0
C349 C 0.04721 0.39511 0.34746 0.0
H350 H 0.99953 0.42403 0.40312 0.0
C351 C 0.04197 0.4498 0.60979 0.0
C352 C 0.03096 0.46729 0.59865 0.0
C353 C 0.04257 0.43518 0.55173 0.0
C354 C 1.01304 0.41629 0.38753 0.0
H355 H 0.04495 0.32638 0.22206 0.0
H356 H 0.04936 0.35433 0.31136 0.0
H357 H 0.99756 0.39698 0.30992 0.0
H358 H 1.0125 0.4835 0.51693 0.0
H359 H 1.01342 0.45796 0.41578 0.0
H360 H 0.06251 0.41425 0.42749 0.0
C361 C 0.03898 0.35587 0.26351 0.0
C362 C 1.01195 0.40075 0.33372 0.0
C363 C 0.03643 0.33979 0.21241 0.0
C364 C 0.02104 0.47013 0.52736 0.0
C365 C 0.02149 0.45545 0.46961 0.0
C366 C 0.04826 0.41059 0.40201 0.0
C367 C 0.02758 0.3733 0.25493 0.0
C368 C 0.02901 0.38995 0.31249 0.0
C369 C 0.03202 0.43766 0.4815 0.0
C370 C 0.03119 0.42141 0.42251 0.0
H371 H 1.00052 0.35946 0.09573 0.0
H372 H 1.00542 0.38767 0.18214 0.0
H373 H 0.06072 0.38736 0.3321 0.0
H374 H 0.0498 0.44722 0.66411 0.0
H375 H 0.05072 0.42162 0.563 0.0
C376 C 0.84975 0.97524 0.23766 0.0
C377 C 0.83932 0.99206 0.2628 0.0
C378 C 0.86693 0.97713 0.19248 0.0
C379 C 0.90455 1.01376 0.11814 0.0
H380 H 0.91164 0.97351 0.95934 0.0
C381 C 0.97267 1.01355 0.90743 0.0
C382 C 0.9693 1.00719 0.83047 0.0
C383 C 0.95779 1.0116 0.96444 0.0
C384 C 0.90987 0.98505 0.00265 0.0
H385 H 0.83884 0.02418 0.26127 0.0
H386 H 0.86845 0.02759 0.17989 0.0
H387 H 0.88409 0.97101 0.04904 0.0
H388 H 0.94766 0.99398 0.75282 0.0
H389 H 0.92172 0.99117 0.85031 0.0
H390 H 0.92986 0.02831 0.06837 0.0
C391 C 0.86375 1.01285 0.19678 0.0
C392 C 0.89415 0.98341 0.05551 0.0
C393 C 0.84669 1.01093 0.24337 0.0
C394 C 0.9508 0.99889 0.81173 0.0
C395 C 0.93592 0.99714 0.86813 0.0
C396 C 0.92021 1.01552 0.06444 0.0
C397 C 0.87395 0.99594 0.16941 0.0
C398 C 0.89117 0.99772 0.11419 0.0
C399 C 0.93915 1.00337 0.94557 0.0
C400 C 0.92303 1.00125 0.00544 0.0
H401 H 0.84444 0.96052 0.25211 0.0
H402 H 0.87456 0.96373 0.17491 0.0
H403 H 0.90299 0.02498 0.16282 0.0
H404 H 0.98679 0.02001 0.92358 0.0
H405 H 0.96099 1.01636 0.02343 0.0
C406 C 0.55095 0.85673 0.23585 0.0
C407 C 0.53575 0.84276 0.24637 0.0
C408 C 0.54771 0.87402 0.19222 0.0
C409 C 0.50768 0.90414 0.09261 0.0
H410 H 0.55255 0.9247 0.97617 0.0
C411 C 0.50199 0.95461 0.81797 0.0
C412 C 0.51416 0.97152 0.81526 0.0
C413 C 0.50372 0.94086 0.87893 0.0
C414 C 0.53993 0.91929 0.00905 0.0
H415 H 0.50515 0.83592 0.21936 0.0
H416 H 0.49964 0.86549 0.13997 0.0
H417 H 0.55721 0.89674 0.06405 0.0
H418 H 0.53771 0.98727 0.87388 0.0
H419 H 0.54127 0.96284 0.98001 0.0
H420 H 0.49028 0.92614 0.03272 0.0
C421 C 0.51395 0.86366 0.16773 0.0
C422 C 0.54257 0.90323 0.06012 0.0
C423 C 0.51708 0.84657 0.2132 0.0
C424 C 0.52797 0.97455 0.87537 0.0
C425 C 0.53008 0.96049 0.93556 0.0
C426 C 0.50499 0.91993 0.04011 0.0
C427 C 0.52931 0.8776 0.15558 0.0
C428 C 0.52649 0.89529 0.1028 0.0
C429 C 0.51804 0.94342 0.93763 0.0
C430 C 0.52107 0.92764 0.99762 0.0
H431 H 0.56548 0.85417 0.26097 0.0
H432 H 0.55982 0.88447 0.18689 0.0
H433 H 0.49494 0.89892 0.12507 0.0
H434 H 0.49125 0.95186 0.77215 0.0
H435 H 0.49436 0.9278 0.8785 0.0
C436 C 0.69215 0.52025 0.25247 0.0
C437 C 0.69587 0.53841 0.28992 0.0
C438 C 0.6759 0.51826 0.20155 0.0
C439 C 0.64234 0.54927 0.07946 0.0
H440 H 0.61179 0.50089 0.05849 0.0
C441 C 0.58883 0.53714 0.82101 0.0
C442 C 0.57084 0.52721 0.83452 0.0
C443 C 0.60329 0.53832 0.87943 0.0
C444 C 0.62004 0.51459 0.06407 0.0
H445 H 0.68516 0.56839 0.30596 0.0
H446 H 0.65672 0.56485 0.21945 0.0
H447 H 0.63801 0.50289 0.15687 0.0
H448 H 0.55376 0.51093 0.92044 0.0
H449 H 0.57896 0.51321 0.02331 0.0
H450 H 0.6243 0.56113 0.98791 0.0
C451 C 0.66648 0.55225 0.22737 0.0
C452 C 0.63526 0.51565 0.11994 0.0
C453 C 0.6827 0.55424 0.27762 0.0
C454 C 0.5675 0.51868 0.90832 0.0
C455 C 0.58201 0.51986 0.967 0.0
C456 C 0.62718 0.54822 0.02385 0.0
C457 C 0.66305 0.53438 0.1872 0.0
C458 C 0.64665 0.53303 0.12839 0.0
C459 C 0.60016 0.52965 0.95324 0.0
C460 C 0.61586 0.53084 0.01493 0.0
H461 H 0.70212 0.5078 0.26037 0.0
H462 H 0.67385 0.50431 0.17135 0.0
H463 H 0.65092 0.56282 0.08314 0.0
H464 H 0.59188 0.5438 0.76469 0.0
H465 H 0.61713 0.54573 0.86602 0.0
C466 C 1.01061 0.68586 0.23899 0.0
C467 C 0.99565 0.69951 0.21884 0.0
C468 C 1.0129 0.66817 0.19642 0.0
C469 C 1.00249 0.64803 1.00069 0.0
H470 H 1.01089 0.59608 0.0924 0.0
C471 C 0.99808 0.57858 0.81005 0.0
C472 C 1.01203 0.56342 0.82177 0.0
C473 C 0.99606 0.59395 0.86409 0.0
C474 C 1.00878 0.61051 0.06579 0.0
H475 H 0.97105 0.70505 0.14049 0.0
H476 H 0.97498 0.67444 0.06688 0.0
H477 H 1.00789 0.62526 0.17706 0.0
H478 H 0.03425 0.55191 0.90118 0.0
H479 H 0.03105 0.5791 0.99554 0.0
H480 H 1.00361 0.63368 0.88984 0.0
C481 C 0.98509 0.67737 0.11464 0.0
C482 C 1.00705 0.62723 0.11438 0.0
C483 C 0.98276 0.69487 0.15717 0.0
C484 C 0.02339 0.56346 0.89061 0.0
C485 C 0.0215 0.57902 0.94471 0.0
C486 C 1.00433 0.63146 0.9524 0.0
C487 C 1.00039 0.66394 0.13264 0.0
C488 C 1.00354 0.64614 0.08231 0.0
C489 C 1.00812 0.59474 0.93114 0.0
C490 C 1.00714 0.61238 0.98407 0.0
H491 H 0.0208 0.68904 0.28621 0.0
H492 H 0.02486 0.65814 0.21166 0.0
H493 H 1.00028 0.66243 0.97387 0.0
H494 H 0.98891 0.57878 0.75808 0.0
H495 H 0.98516 0.60539 0.85259 0.0
C496 C 0.96923 0.24755 0.2454 0.0
C497 C 0.98634 0.25933 0.25124 0.0
C498 C 0.96227 0.23712 0.31016 0.0
C499 C 0.98639 0.21343 0.4746 0.0
H500 H 0.93556 0.18674 0.48671 0.0
C501 C 0.96055 0.12956 0.47514 0.0
C502 C 0.97376 0.12141 0.52989 0.0
C503 C 0.95725 0.15 0.47271 0.0
C504 C 0.9498 0.19418 0.48487 0.0
H505 H 1.00776 0.27185 0.33167 0.0
H506 H 0.9952 0.25412 0.44557 0.0
H507 H 0.93764 0.21963 0.42717 0.0
H508 H 0.99244 0.12803 0.62966 0.0
H509 H 0.98686 0.16381 0.62471 0.0
H510 H 0.99877 0.18762 0.52779 0.0
C511 C 0.98755 0.25239 0.39039 0.0
C512 C 0.951 0.213 0.45079 0.0
C513 C 0.99464 0.26272 0.32525 0.0
C514 C 0.98257 0.13396 0.58552 0.0
C515 C 0.97927 0.15441 0.58307 0.0
C516 C 0.98516 0.19473 0.50906 0.0
C517 C 0.9722 0.23839 0.38225 0.0
C518 C 0.96953 0.22229 0.44083 0.0
C519 C 0.96708 0.16272 0.525 0.0
C520 C 0.96706 0.18442 0.51035 0.0
H521 H 0.96229 0.24503 0.18922 0.0
H522 H 0.95038 0.22657 0.30121 0.0
H523 H 1.00097 0.21994 0.46776 0.0
H524 H 0.95363 0.12031 0.43129 0.0
H525 H 0.94801 0.15592 0.42645 0.0
C526 C 0.28499 0.97168 0.29605 0.0
C527 C 0.28131 0.96508 0.21995 0.0
C528 C 0.29795 0.96115 0.34434 0.0
C529 C 0.3423 0.93174 0.30801 0.0
H530 H 0.35037 0.94268 0.52773 0.0
C531 C 0.42067 0.94009 0.42628 0.0
C532 C 0.42299 0.95906 0.45887 0.0
C533 C 0.40172 0.93192 0.41761 0.0
C534 C 0.34826 0.9392 0.46657 0.0
H535 H 0.2858 0.94122 0.13767 0.0
H536 H 0.30762 0.92214 0.22344 0.0
H537 H 0.31676 0.94269 0.47433 0.0
H538 H 0.40772 0.98356 0.51437 0.0
H539 H 0.37473 0.9695 0.49839 0.0
H540 H 0.37376 0.92935 0.29916 0.0
C541 C 0.30124 0.9358 0.24514 0.0
C542 C 0.32904 0.93927 0.43585 0.0
C543 C 0.28862 0.94658 0.19623 0.0
C544 C 0.40627 0.96906 0.4877 0.0
C545 C 0.38741 0.96085 0.47969 0.0
C546 C 0.36143 0.93146 0.33883 0.0
C547 C 0.30727 0.94374 0.31735 0.0
C548 C 0.32596 0.93687 0.35513 0.0
C549 C 0.38486 0.94249 0.4422 0.0
C550 C 0.3647 0.93643 0.41728 0.0
H551 H 0.27955 0.986 0.31518 0.0
H552 H 0.30217 0.96787 0.39924 0.0
H553 H 0.34073 0.92992 0.24555 0.0
H554 H 0.43337 0.93205 0.40401 0.0
H555 H 0.40018 0.91772 0.38872 0.0
C556 C 0.46927 0.28333 0.26679 0.0
C557 C 0.48722 0.27377 0.24988 0.0
C558 C 0.46797 0.29595 0.33107 0.0
C559 C 0.50031 0.32172 0.47922 0.0
H560 H 0.48253 0.36771 0.36223 0.0
C561 C 0.52242 0.40409 0.54266 0.0
C562 C 0.5278 0.41476 0.47551 0.0
C563 C 0.5147 0.38496 0.53637 0.0
C564 C 0.4875 0.35501 0.39587 0.0
H565 H 0.51675 0.26718 0.29221 0.0
H566 H 0.51498 0.2898 0.40143 0.0
H567 H 0.4704 0.3353 0.32711 0.0
H568 H 0.53064 0.4138 0.34989 0.0
H569 H 0.51737 0.38014 0.33826 0.0
H570 H 0.51865 0.34188 0.54394 0.0
C571 C 0.50168 0.28753 0.36718 0.0
C572 C 0.48023 0.33636 0.3769 0.0
C573 C 0.50278 0.27455 0.30409 0.0
C574 C 0.52653 0.40575 0.40224 0.0
C575 C 0.51875 0.38667 0.39576 0.0
C576 C 0.50765 0.34053 0.49815 0.0
C577 C 0.48491 0.29974 0.37684 0.0
C578 C 0.48735 0.31931 0.41542 0.0
C579 C 0.51219 0.37638 0.46253 0.0
C580 C 0.50205 0.35712 0.45366 0.0
H581 H 0.45698 0.28263 0.22606 0.0
H582 H 0.45455 0.30455 0.33893 0.0
H583 H 0.50583 0.30896 0.51098 0.0
H584 H 0.52368 0.41087 0.59959 0.0
H585 H 0.50992 0.37727 0.58866 0.0
C586 C 0.26321 0.55768 0.30193 0.0
C587 C 0.25866 0.53804 0.2814 0.0
C588 C 0.25295 0.56696 0.36282 0.0
C589 C 0.21482 0.55768 0.51763 0.0
H590 H 0.18914 0.60361 0.42615 0.0
C591 C 0.13439 0.571 0.58706 0.0
C592 C 0.12317 0.57261 0.51826 0.0
C593 C 0.15466 0.57528 0.58648 0.0
C594 C 0.19623 0.59092 0.45318 0.0
H595 H 0.24153 0.51206 0.31208 0.0
H596 H 0.22361 0.52802 0.41736 0.0
H597 H 0.22103 0.59272 0.37601 0.0
H598 H 0.12369 0.58151 0.39694 0.0
H599 H 0.15905 0.58819 0.39439 0.0
H600 H 0.18908 0.55433 0.5882 0.0
C601 C 0.23505 0.53642 0.38768 0.0
C602 C 0.21471 0.58482 0.42517 0.0
C603 C 0.24514 0.52727 0.32675 0.0
C604 C 0.13208 0.58018 0.45067 0.0
C605 C 0.15239 0.58416 0.44966 0.0
C606 C 0.19623 0.56356 0.54477 0.0
C607 C 0.23817 0.55663 0.40422 0.0
C608 C 0.22344 0.56725 0.45316 0.0
C609 C 0.16413 0.58084 0.51661 0.0
C610 C 0.18607 0.57937 0.50871 0.0
H611 H 0.27364 0.56623 0.26752 0.0
H612 H 0.25577 0.58249 0.37457 0.0
H613 H 0.22149 0.5444 0.54189 0.0
H614 H 0.12767 0.5655 0.64033 0.0
H615 H 0.1631 0.57304 0.63957 0.0
C616 C 0.0587 0.77269 0.12356 0.0
C617 C 0.03922 0.77687 0.14697 0.0
C618 C 0.067 0.78279 0.06 0.0
C619 C 0.05495 0.82084 0.9065 0.0
H620 H 0.10282 0.84584 0.9836 0.0
C621 C 0.06719 0.90163 0.83796 0.0
C622 C 0.07118 0.91259 0.9058 0.0
C623 C 0.07102 0.88128 0.83577 0.0
C624 C 0.0895 0.839 0.96075 0.0
H625 H 1.01259 0.79342 0.12085 0.0
H626 H 0.02684 0.8112 0.01133 0.0
H627 H 0.09266 0.81406 0.03651 0.0
H628 H 0.0836 0.91149 0.02204 0.0
H629 H 0.08938 0.87598 0.02055 0.0
H630 H 0.05033 0.84679 0.83819 0.0
C631 C 0.03584 0.80002 0.03981 0.0
C632 C 0.08382 0.82052 0.99022 0.0
C633 C 0.02763 0.78998 0.10305 0.0
C634 C 0.08044 0.90329 0.96914 0.0
C635 C 0.0839 0.88288 0.96767 0.0
C636 C 0.06037 0.83949 0.87835 0.0
C637 C 0.0559 0.79723 0.01954 0.0
C638 C 0.06566 0.812 0.96775 0.0
C639 C 0.07842 0.87144 0.90223 0.0
C640 C 0.07691 0.84946 0.90967 0.0
H641 H 0.06784 0.76261 0.15731 0.0
H642 H 0.08242 0.78016 0.04545 0.0
H643 H 0.04124 0.8143 0.88588 0.0
H644 H 0.06029 0.90867 0.7879 0.0
H645 H 0.0671 0.87313 0.7836 0.0
C646 C 0.74939 0.0465 0.14246 0.0
C647 C 0.76173 0.02989 0.15046 0.0
C648 C 0.74021 0.05055 0.07141 0.0
C649 C 0.71983 0.01989 0.91902 0.0
H650 H 0.69157 0.0691 0.88237 0.0
C651 C 0.63714 0.02358 0.92822 0.0
C652 C 0.6263 0.0381 0.88789 0.0
C653 C 0.65769 0.02262 0.92101 0.0
C654 C 0.6995 0.05523 0.88947 0.0
H655 H 0.7763 1.00596 0.08877 0.0
H656 H 0.76036 1.01314 0.96347 0.0
H657 H 0.72487 0.07 0.93668 0.0
H658 H 0.62838 0.06233 0.80474 0.0
H659 H 0.66454 0.06085 0.79313 0.0
H660 H 0.69415 1.00512 0.87475 0.0
C661 C 0.75746 0.02284 0.01249 0.0
C662 C 0.71857 0.05575 0.92137 0.0
C663 C 0.76667 0.01878 0.08401 0.0
C664 C 0.63642 0.05126 0.83799 0.0
C665 C 0.65707 0.0503 0.83071 0.0
C666 C 0.70092 0.0194 0.88605 0.0
C667 C 0.74316 0.03801 0.00678 0.0
C668 C 0.72815 0.03802 0.94311 0.0
C669 C 0.66796 0.03615 0.87319 0.0
C670 C 0.68993 0.03697 0.87748 0.0
H671 H 0.74564 0.05547 0.19279 0.0
H672 H 0.72929 0.06233 0.07001 0.0
H673 H 0.72677 1.00589 0.93373 0.0
H674 H 0.62984 1.01337 0.96775 0.0
H675 H 0.6656 1.01186 0.95627 0.0
C676 C 0.49451 0.76519 0.09367 0.0
C677 C 0.51306 0.75921 0.12273 0.0
C678 C 0.48602 0.75526 0.03026 0.0
C679 C 0.49524 0.71435 0.88689 0.0
H680 H 0.44593 0.69365 0.97011 0.0
C681 C 0.47528 0.63467 0.8259 0.0
C682 C 0.47237 0.62435 0.89624 0.0
C683 C 0.47295 0.65524 0.8229 0.0
C684 C 0.45955 0.69938 0.94522 0.0
H685 H 0.53831 0.74001 0.10374 0.0
H686 H 0.52368 0.72265 0.994 0.0
H687 H 0.4584 0.72531 0.01625 0.0
H688 H 0.46295 0.62691 0.01646 0.0
H689 H 0.45932 0.66277 0.01252 0.0
H690 H 0.49758 0.68744 0.82258 0.0
C691 C 0.51553 0.73494 0.01909 0.0
C692 C 0.4666 0.71771 0.9709 0.0
C693 C 0.52391 0.74474 0.08251 0.0
C694 C 0.46527 0.63459 0.96159 0.0
C695 C 0.46309 0.65517 0.95891 0.0
C696 C 0.4883 0.69593 0.86182 0.0
C697 C 0.49604 0.73931 0.99499 0.0
C698 C 0.48526 0.72467 0.94625 0.0
C699 C 0.46784 0.66585 0.89056 0.0
C700 C 0.4711 0.68762 0.89508 0.0
H701 H 0.48588 0.77635 0.12392 0.0
H702 H 0.47108 0.75911 0.01245 0.0
H703 H 0.50942 0.71958 0.86537 0.0
H704 H 0.48035 0.62692 0.77433 0.0
H705 H 0.47631 0.66293 0.76894 0.0
C706 C 0.79568 0.55698 0.15165 0.0
C707 C 0.78069 0.54296 0.16486 0.0
C708 C 0.80599 0.55712 0.08116 0.0
C709 C 0.82307 0.51848 0.95562 0.0
H710 H 0.85704 0.56106 0.88317 0.0
C711 C 0.90363 0.5029 0.87197 0.0
C712 C 0.91676 0.51507 0.9141 0.0
C713 C 0.88363 0.50805 0.86451 0.0
C714 C 0.84754 0.54898 0.90181 0.0
H715 H 0.76292 0.51983 0.11197 0.0
H716 H 0.78097 0.52004 0.98824 0.0
H717 H 0.82425 0.5688 0.9356 0.0
H718 H 0.91914 0.54225 0.98108 0.0
H719 H 0.88438 0.55101 0.96952 0.0
H720 H 0.84687 0.49883 0.92832 0.0
C721 C 0.78489 0.5308 0.03255 0.0
C722 C 0.82876 0.55341 0.93151 0.0
C723 C 0.77451 0.53073 0.10318 0.0
C724 C 0.90952 0.53267 0.94733 0.0
C725 C 0.88958 0.5378 0.94002 0.0
C726 C 0.84181 0.51407 0.92597 0.0
C727 C 0.80155 0.54311 0.02286 0.0
C728 C 0.81696 0.53832 0.96402 0.0
C729 C 0.87635 0.52544 0.89941 0.0
C730 C 0.85475 0.52942 0.90409 0.0
H731 H 0.80051 0.56672 0.19818 0.0
H732 H 0.81875 0.56678 0.07608 0.0
H733 H 0.81442 0.50645 0.98012 0.0
H734 H 0.90883 0.48944 0.84422 0.0
H735 H 0.87379 0.49828 0.83263 0.0
C736 C 0.03542 0.22783 0.99402 0.0
C737 C 1.01673 0.23675 0.004 0.0
C738 C 0.03702 0.20918 0.95782 0.0
C739 C 1.00698 0.16431 0.93611 0.0
H740 H 0.04708 0.1463 0.79036 0.0
C741 C 0.02012 0.08111 0.87442 0.0
C742 C 0.02153 0.0755 0.79561 0.0
C743 C 0.02044 0.10117 0.89565 0.0
C744 C 0.03576 0.15115 0.83093 0.0
H745 H 0.9854 0.234 0.97845 0.0
H746 H 0.98818 0.20177 0.91497 0.0
H747 H 0.04612 0.18134 0.82953 0.0
H748 H 0.02508 0.08664 0.67768 0.0
H749 H 0.02571 0.12165 0.71479 0.0
H750 H 0.99669 0.13427 0.93847 0.0
C751 C 1.00155 0.20889 0.93609 0.0
C752 C 0.03529 0.17117 0.85364 0.0
C753 C 0.99997 0.22743 0.9718 0.0
C754 C 0.02371 0.09044 0.73876 0.0
C755 C 0.02427 0.11051 0.76008 0.0
C756 C 1.00762 0.14434 0.91437 0.0
C757 C 0.01995 0.19916 0.93144 0.0
C758 C 0.02079 0.178 0.90616 0.0
C759 C 0.02243 0.11613 0.83875 0.0
C760 C 0.02199 0.13748 0.86149 0.0
H761 H 0.04853 0.23458 0.01905 0.0
H762 H 0.05141 0.20206 0.95507 0.0
H763 H 0.99577 0.169 0.97745 0.0
H764 H 0.01845 0.07001 0.91974 0.0
H765 H 0.01918 0.10499 0.95685 0.0
C766 C 0.30704 0.99417 0.9499 0.0
C767 C 0.29753 1.00833 0.99697 0.0
C768 C 0.32487 0.99859 0.91203 0.0
C769 C 0.36809 0.03231 0.93099 0.0
H770 H 0.38501 1.00493 0.74374 0.0
C771 C 0.45128 0.02446 0.85053 0.0
C772 C 0.45681 0.02362 0.77143 0.0
C773 C 0.43122 0.02468 0.8723 0.0
C774 C 0.38059 1.01298 0.7955 0.0
H775 H 0.29863 0.03868 0.03735 0.0
H776 H 0.32957 0.04679 0.96885 0.0
H777 H 0.35059 1.00301 0.78453 0.0
H778 H 0.44536 0.02283 0.6531 0.0
H779 H 0.41057 0.02382 0.69066 0.0
H780 H 0.39801 0.04268 0.94091 0.0
C781 C 0.32345 0.03203 0.96259 0.0
C782 C 0.36076 1.01165 0.81964 0.0
C783 C 0.30552 0.02754 1.0008 0.0
C784 C 0.44171 0.02332 0.71466 0.0
C785 C 0.42166 0.02376 0.73636 0.0
C786 C 0.38789 0.03381 0.90641 0.0
C787 C 0.33374 1.01739 0.91978 0.0
C788 C 0.35427 0.02093 0.88868 0.0
C789 C 0.41605 0.02429 0.8156 0.0
C790 C 0.39457 0.02386 0.83906 0.0
H791 H 0.30129 0.97918 0.94635 0.0
H792 H 0.33226 0.98679 0.88068 0.0
H793 H 0.36384 0.03955 0.98482 0.0
H794 H 0.46246 0.02457 0.89596 0.0
H795 H 0.42766 0.0247 0.93391 0.0
C796 C 0.48483 0.30815 0.96706 0.0
C797 C 0.50148 0.29619 0.98264 0.0
C798 C 0.48697 0.32702 0.93358 0.0
C799 C 0.52366 0.36764 0.91948 0.0
H800 H 0.48485 0.39116 0.78023 0.0
C801 C 0.5197 0.45286 0.86679 0.0
C802 C 0.51597 0.45947 0.79025 0.0
C803 C 0.51819 0.43263 0.88606 0.0
C804 C 0.49595 0.38486 0.81869 0.0
H805 H 0.53342 0.29443 0.97224 0.0
H806 H 0.53722 0.32733 0.91262 0.0
H807 H 0.48249 0.35606 0.81368 0.0
H808 H 0.50696 0.45001 0.67488 0.0
H809 H 0.50369 0.41498 0.70893 0.0
H810 H 0.53717 0.39641 0.9243 0.0
C811 C 0.52246 0.32215 0.92691 0.0
C812 C 0.49448 0.36468 0.83843 0.0
C813 C 0.52028 0.30315 0.95989 0.0
C814 C 0.51022 0.44541 0.73405 0.0
C815 C 0.5083 0.42529 0.7537 0.0
C816 C 0.52507 0.38784 0.90002 0.0
C817 C 0.50587 0.33459 0.91531 0.0
C818 C 0.50824 0.35578 0.88956 0.0
C819 C 0.51255 0.4185 0.82966 0.0
C820 C 0.51116 0.39682 0.84973 0.0
H821 H 0.47018 0.3033 0.98475 0.0
H822 H 0.47385 0.3361 0.92624 0.0
H823 H 0.53441 0.36145 0.95971 0.0
H824 H 0.52412 0.46328 0.91161 0.0
H825 H 0.52124 0.42812 0.94556 0.0
C826 C 0.23932 0.52051 0.95505 0.0
C827 C 0.24218 0.50953 0.02391 0.0
C828 C 0.22137 0.51912 0.91349 0.0
C829 C 0.1741 0.48985 0.89776 0.0
H830 H 0.1513 0.54037 0.83701 0.0
C831 C 0.08977 0.49959 0.84576 0.0
C832 C 0.0834 0.51207 0.78483 0.0
C833 C 0.10989 0.49848 0.86627 0.0
C834 C 0.15749 0.52607 0.85254 0.0
H835 H 0.22901 0.48773 0.10084 0.0
H836 H 0.19801 0.48507 0.02868 0.0
H837 H 0.18547 0.53896 0.88329 0.0
H838 H 0.09327 0.5336 0.69941 0.0
H839 H 0.12836 0.53148 0.73402 0.0
H840 H 0.14597 0.47704 0.86863 0.0
C841 C 0.20949 0.4947 0.00585 0.0
C842 C 0.17719 0.52524 0.87894 0.0
C843 C 0.22731 0.49617 0.04735 0.0
C844 C 0.09768 0.52357 0.74555 0.0
C845 C 0.11781 0.52252 0.76615 0.0
C846 C 0.1544 0.49069 0.87155 0.0
C847 C 0.20594 0.50664 0.93979 0.0
C848 C 0.18571 0.50716 0.90321 0.0
C849 C 0.12424 0.5099 0.82672 0.0
C850 C 0.14568 0.50886 0.84977 0.0
H851 H 0.25039 0.53115 0.93633 0.0
H852 H 0.21934 0.52833 0.86226 0.0
H853 H 0.18018 0.47559 0.91448 0.0
H854 H 0.07922 0.49054 0.87752 0.0
H855 H 0.11415 0.48885 0.91408 0.0
C856 C 0.03797 0.80554 0.43796 0.0
C857 C 0.02094 0.79482 0.41647 0.0
C858 C 0.03637 0.82356 0.47794 0.0
C859 C 1.00146 0.86523 0.50024 0.0
H860 H 0.04045 0.88423 0.64882 0.0
C861 C 1.0115 0.94902 0.56757 0.0
C862 C 1.01582 0.95461 0.64483 0.0
C863 C 1.01113 0.92894 0.54598 0.0
C864 C 0.0293 0.87917 0.60791 0.0
H865 H 0.98891 0.79413 0.42316 0.0
H866 H 0.98602 0.8256 0.49418 0.0
H867 H 0.0411 0.84963 0.60747 0.0
H868 H 0.02282 0.94323 0.75971 0.0
H869 H 0.02219 0.90841 0.7227 0.0
H870 H 0.98966 0.89476 0.5006 0.0
C871 C 1.00066 0.82012 0.47952 0.0
C872 C 0.02978 0.85931 0.58366 0.0
C873 C 1.00229 0.80194 0.43992 0.0
C874 C 0.01963 0.93955 0.69977 0.0
C875 C 0.01933 0.91951 0.6783 0.0
C876 C 1.00102 0.88511 0.52426 0.0
C877 C 0.01766 0.83147 0.49698 0.0
C878 C 1.01601 0.85209 0.52879 0.0
C879 C 1.0151 0.91387 0.60101 0.0
C880 C 1.01507 0.89244 0.57776 0.0
H881 H 0.05252 0.8005 0.41987 0.0
H882 H 0.04979 0.83187 0.48963 0.0
H883 H 0.99074 0.86034 0.45729 0.0
H884 H 1.00851 0.96016 0.52346 0.0
H885 H 1.00808 0.92525 0.48566 0.0
C886 C 0.7221 0.99654 0.38082 0.0
C887 C 0.73778 1.0081 0.40999 0.0
C888 C 0.70398 0.99544 0.4202 0.0
C889 C 0.67296 0.02394 0.55889 0.0
H890 H 0.63927 0.97747 0.54431 0.0
C891 C 0.59259 0.02215 0.68375 0.0
C892 C 0.57798 1.01327 0.63648 0.0
C893 C 0.61278 0.02051 0.66516 0.0
C894 C 0.64842 0.99063 0.54849 0.0
H895 H 0.74703 0.02692 0.50541 0.0
H896 H 0.71531 0.02473 0.57591 0.0
H897 H 0.67363 0.9756 0.50096 0.0
H898 H 0.57338 0.99568 0.53222 0.0
H899 H 0.60852 0.99292 0.49955 0.0
H900 H 0.64762 0.03895 0.60622 0.0
C901 C 0.71699 1.0167 0.52161 0.0
C902 C 0.66819 0.98957 0.52361 0.0
C903 C 0.73526 0.01776 0.48193 0.0
C904 C 0.58416 1.00268 0.57012 0.0
C905 C 0.60437 1.00097 0.55171 0.0
C906 C 0.65318 0.02495 0.58431 0.0
C907 C 0.70092 1.00586 0.49029 0.0
C908 C 0.68066 1.00633 0.52661 0.0
C909 C 0.61898 1.0099 0.59885 0.0
C910 C 0.6405 1.00843 0.57779 0.0
H911 H 0.72359 0.989 0.32529 0.0
H912 H 0.69205 0.98716 0.39328 0.0
H913 H 0.68194 0.03723 0.56152 0.0
H914 H 0.58842 0.03063 0.73477 0.0
H915 H 0.62357 0.02745 0.70311 0.0
C916 C 0.54552 0.72507 0.37476 0.0
C917 C 0.53066 0.73906 0.39169 0.0
C918 C 0.54612 0.70679 0.41342 0.0
C919 C 0.52684 0.6773 0.58106 0.0
H920 H 0.53492 0.63335 0.43881 0.0
C921 C 0.51496 0.59469 0.67398 0.0
C922 C 0.5273 0.58017 0.64057 0.0
C923 C 0.51575 0.61451 0.64855 0.0
C924 C 0.53296 0.64536 0.48 0.0
H925 H 0.50534 0.74519 0.46532 0.0
H926 H 0.50643 0.71313 0.53395 0.0
H927 H 0.53629 0.66711 0.38996 0.0
H928 H 0.55044 0.5753 0.55497 0.0
H929 H 0.55218 0.60969 0.51201 0.0
H930 H 0.52356 0.65541 0.6713 0.0
C931 C 0.51772 0.7164 0.49084 0.0
C932 C 0.53372 0.66484 0.45175 0.0
C933 C 0.51714 0.73483 0.45194 0.0
C934 C 0.54059 0.58602 0.58164 0.0
C935 C 0.54149 0.60582 0.55665 0.0
C936 C 0.52621 0.65771 0.60961 0.0
C937 C 0.53179 0.70185 0.46992 0.0
C938 C 0.53082 0.68113 0.50178 0.0
C939 C 0.52895 0.62039 0.58909 0.0
C940 C 0.52939 0.64141 0.5595 0.0
H941 H 0.55609 0.7279 0.32842 0.0
H942 H 0.55746 0.6962 0.39695 0.0
H943 H 0.52457 0.68945 0.62138 0.0
H944 H 0.50429 0.59065 0.71841 0.0
H945 H 0.50564 0.62512 0.6742 0.0
C946 C 0.80736 0.53834 0.48085 0.0
C947 C 0.79978 0.52338 0.43232 0.0
C948 C 0.82609 0.53624 0.51595 0.0
C949 C 0.87367 0.51065 0.47914 0.0
H950 H 0.8888 0.53153 0.68127 0.0
C951 C 0.9561 0.52253 0.5624 0.0
C952 C 0.96199 0.51795 0.63912 0.0
C953 C 0.93596 0.52272 0.54161 0.0
C954 C 0.88484 0.5255 0.6248 0.0
H955 H 0.80546 0.49432 0.38417 0.0
H956 H 0.83784 0.49032 0.44681 0.0
H957 H 0.85387 0.53152 0.64251 0.0
H958 H 0.95111 0.50985 0.75391 0.0
H959 H 0.91612 0.51018 0.71757 0.0
H960 H 0.9045 0.50453 0.46126 0.0
C961 C 0.8295 0.50378 0.45754 0.0
C962 C 0.86479 0.52564 0.60233 0.0
C963 C 0.8108 0.50589 0.42264 0.0
C964 C 0.94717 0.51366 0.69452 0.0
C965 C 0.92704 0.5139 0.67376 0.0
C966 C 0.89367 0.5106 0.50136 0.0
C967 C 0.83774 0.51921 0.50244 0.0
C968 C 0.85892 0.51826 0.529 0.0
C969 C 0.92111 0.51834 0.59693 0.0
C970 C 0.89961 0.51814 0.57426 0.0
H971 H 0.79939 0.55219 0.48746 0.0
H972 H 0.83195 0.54852 0.5495 0.0
H973 H 0.86984 0.50509 0.4218 0.0
H974 H 0.96704 0.52598 0.51814 0.0
H975 H 0.93203 0.52651 0.48213 0.0
loop_
_geom_bond_atom_site_label_1
_geom_bond_atom_site_label_2
_geom_bond_distance
_geom_bond_site_symmetry_2
_ccdc_geom_bond_type
H0 C5 0.930 . S
H1 C8 0.930 . S
H2 C10 0.930 . S
H3 C4 1.016 . S
C4 H3 1.016 . S
C4 N11 1.286 . S
C5 H0 0.930 . S
C5 C6 1.397 . S
C5 C7 1.361 . S
C6 C5 1.397 . S
C6 C10 1.390 . S
C7 C5 1.361 . S
C7 C8 1.393 . S
C7 N11 1.413 . S
C8 H1 0.930 . S
C8 C7 1.393 . S
C8 C9 1.399 . S
C9 C8 1.399 . S
C9 C10 1.381 . S
C10 H2 0.930 . S
C10 C6 1.390 . S
C10 C9 1.381 . S
N11 C4 1.286 . S
N11 C7 1.413 . S
H12 C17 0.930 . S
H13 C20 0.930 . S
H14 C22 0.930 . S
H15 C16 1.016 . S
C16 H15 1.016 . S
C16 N23 1.286 1_655 S
C17 H12 0.930 . S
C17 C18 1.400 . S
C17 C19 1.361 . S
C18 C17 1.400 . S
C18 C22 1.388 1_455 S
C19 C17 1.361 . S
C19 C20 1.393 . S
C19 N23 1.413 . S
C20 H13 0.930 . S
C20 C19 1.393 . S
C20 C21 1.399 1_455 S
C21 C20 1.399 1_655 S
C21 C22 1.381 . S
C22 H14 0.930 . S
C22 C18 1.388 1_655 S
C22 C21 1.381 . S
N23 C16 1.286 1_455 S
N23 C19 1.413 . S
H24 C29 0.930 . S
H25 C32 0.930 . S
H26 C34 0.930 . S
H27 C28 1.016 . S
C28 H27 1.016 . S
C28 N35 1.286 1_565 S
C29 H24 0.930 . S
C29 C30 1.397 . S
C29 C31 1.361 . S
C30 C29 1.397 . S
C30 C34 1.390 1_545 S
C31 C29 1.361 . S
C31 C32 1.393 . S
C31 N35 1.413 . S
C32 H25 0.930 . S
C32 C31 1.393 . S
C32 C33 1.396 1_545 S
C33 C32 1.396 1_565 S
C33 C34 1.383 . S
C34 H26 0.930 . S
C34 C30 1.390 1_565 S
C34 C33 1.383 . S
N35 C28 1.286 1_545 S
N35 C31 1.413 . S
H36 C41 0.930 . S
H37 C44 0.930 . S
H38 C46 0.930 . S
H39 C40 1.016 . S
C40 H39 1.016 . S
C40 N47 1.286 . S
C41 H36 0.930 . S
C41 C42 1.397 . S
C41 C43 1.361 . S
C42 C41 1.397 . S
C42 C46 1.390 . S
C43 C41 1.361 . S
C43 C44 1.393 . S
C43 N47 1.413 . S
C44 H37 0.930 . S
C44 C43 1.393 . S
C44 C45 1.399 . S
C45 C44 1.399 . S
C45 C46 1.381 . S
C46 H38 0.930 . S
C46 C42 1.390 . S
C46 C45 1.381 . S
N47 C40 1.286 . S
N47 C43 1.413 . S
H48 C53 0.930 . S
H49 C56 0.930 . S
H50 C58 0.930 . S
H51 C52 1.016 . S
C52 H51 1.016 . S
C52 N59 1.286 . S
C53 H48 0.930 . S
C53 C54 1.397 . S
C53 C55 1.361 1_556 S
C54 C53 1.397 . S
C54 C58 1.390 1_556 S
C55 C53 1.361 1_554 S
C55 C56 1.393 . S
C55 N59 1.413 . S
C56 H49 0.930 . S
C56 C55 1.393 . S
C56 C57 1.399 . S
C57 C56 1.399 . S
C57 C58 1.381 . S
C58 H50 0.930 . S
C58 C54 1.390 1_554 S
C58 C57 1.381 . S
N59 C52 1.286 . S
N59 C55 1.413 . S
H60 C65 0.930 . S
H61 C68 0.930 . S
H62 C70 0.935 . S
H63 C64 1.006 1_655 S
C64 H63 1.006 1_455 S
C64 N71 1.302 . S
C65 H60 0.930 . S
C65 C66 1.397 . S
C65 C67 1.361 1_556 S
C66 C65 1.397 . S
C66 C70 1.388 1_456 S
C67 C65 1.361 1_554 S
C67 C68 1.393 . S
C67 N71 1.413 . S
C68 H61 0.930 . S
C68 C67 1.393 . S
C68 C69 1.399 . S
C69 C68 1.399 . S
C69 C70 1.379 1_455 S
C70 H62 0.935 . S
C70 C66 1.388 1_654 S
C70 C69 1.379 1_655 S
N71 C64 1.302 . S
N71 C67 1.413 . S
H72 C77 0.930 . S
H73 C80 0.930 . S
H74 C82 0.941 . S
H75 C76 1.013 1_565 S
C76 H75 1.013 1_545 S
C76 N83 1.291 . S
C77 H72 0.930 . S
C77 C78 1.397 . S
C77 C79 1.361 1_556 S
C78 C77 1.397 . S
C78 C82 1.386 1_546 S
C79 C77 1.361 1_554 S
C79 C80 1.393 . S
C79 N83 1.413 . S
C80 H73 0.930 . S
C80 C79 1.393 . S
C80 C81 1.399 . S
C81 C80 1.399 . S
C81 C82 1.377 1_545 S
C82 H74 0.941 . S
C82 C78 1.386 1_564 S
C82 C81 1.377 1_565 S
N83 C76 1.291 . S
N83 C79 1.413 . S
H84 C89 0.930 . S
H85 C92 0.930 . S
H86 C94 0.930 . S
H87 C88 1.016 . S
C88 H87 1.016 . S
C88 N95 1.286 . S
C89 H84 0.930 . S
C89 C90 1.397 . S
C89 C91 1.361 1_556 S
C90 C89 1.397 . S
C90 C94 1.390 1_556 S
C91 C89 1.361 1_554 S
C91 C92 1.393 . S
C91 N95 1.413 . S
C92 H85 0.930 . S
C92 C91 1.393 . S
C92 C93 1.399 . S
C93 C92 1.399 . S
C93 C94 1.381 . S
C94 H86 0.930 . S
C94 C90 1.390 1_554 S
C94 C93 1.381 . S
N95 C88 1.286 . S
N95 C91 1.413 . S
La96 C98 2.928 . S
La96 O116 2.521 . S
La96 O117 2.630 . S
La96 O118 2.554 . S
La96 O119 2.757 1_565 S
La96 O120 2.470 . S
La96 O125 2.482 1_455 S
La96 O127 2.503 1_565 S
La97 C107 2.928 . S
La97 O119 2.482 1_655 S
La97 O121 2.503 1_545 S
La97 O122 2.521 . S
La97 O123 2.619 1_655 S
La97 O124 2.554 . S
La97 O125 2.757 1_545 S
La97 O126 2.470 . S
C98 La96 2.928 . S
C98 C99 1.503 . S
C98 O116 1.261 . S
C98 O117 1.248 . S
C99 C98 1.503 . S
C99 C100 1.394 . S
C99 C104 1.373 . S
C100 C99 1.394 . S
C100 C101 1.380 . S
C100 H128 0.930 . S
C101 C100 1.380 . S
C101 C102 1.376 . S
C101 H129 0.930 . S
C102 C101 1.376 . S
C102 C103 1.370 . S
C103 C102 1.370 . S
C103 C104 1.396 . S
C103 H130 0.929 1_455 S
C104 C99 1.373 . S
C104 C103 1.396 . S
C104 H131 0.929 1_455 S
C105 O118 1.265 . S
C105 O119 1.275 1_565 S
C106 O120 1.258 1_655 S
C106 O121 1.256 . S
C107 La97 2.928 . S
C107 C108 1.503 . S
C107 O122 1.261 . S
C107 O123 1.222 1_655 S
C108 C107 1.503 . S
C108 C109 1.394 . S
C108 C113 1.373 . S
C109 C108 1.394 . S
C109 C110 1.380 . S
C109 H132 0.930 . S
C110 C109 1.380 . S
C110 C111 1.376 . S
C110 H133 0.930 . S
C111 C110 1.376 . S
C111 C112 1.370 . S
C112 C111 1.370 . S
C112 C113 1.396 . S
C112 H134 0.929 1_655 S
C113 C108 1.373 . S
C113 C112 1.396 . S
C113 H135 0.929 1_655 S
C114 O124 1.272 . S
C114 O125 1.271 1_545 S
C115 O126 1.258 1_455 S
C115 O127 1.256 . S
O116 La96 2.521 . S
O116 C98 1.261 . S
O117 La96 2.630 . S
O117 C98 1.248 . S
O118 La96 2.554 . S
O118 C105 1.265 . S
O119 La96 2.757 1_545 S
O119 La97 2.482 1_455 S
O119 C105 1.275 1_545 S
O120 La96 2.470 . S
O120 C106 1.258 1_455 S
O121 La97 2.503 1_565 S
O121 C106 1.256 . S
O122 La97 2.521 . S
O122 C107 1.261 . S
O123 La97 2.619 1_455 S
O123 C107 1.222 1_455 S
O124 La97 2.554 . S
O124 C114 1.272 . S
O125 La96 2.482 1_655 S
O125 La97 2.757 1_565 S
O125 C114 1.271 1_565 S
O126 La97 2.470 . S
O126 C115 1.258 1_655 S
O127 La96 2.503 1_545 S
O127 C115 1.256 . S
H128 C100 0.930 . S
H129 C101 0.930 . S
H130 C103 0.929 1_655 S
H131 C104 0.929 1_655 S
H132 C109 0.930 . S
H133 C110 0.930 . S
H134 C112 0.929 1_455 S
H135 C113 0.929 1_455 S
La136 C138 2.928 . S
La136 O156 2.521 . S
La136 O157 2.630 1_545 S
La136 O158 2.554 . S
La136 O159 2.757 . S
La136 O160 2.470 . S
La136 O165 2.482 1_545 S
La136 O167 2.503 . S
La137 C147 2.928 . S
La137 O159 2.482 1_565 S
La137 O161 2.503 . S
La137 O162 2.521 . S
La137 O163 2.625 1_565 S
La137 O164 2.554 . S
La137 O165 2.757 . S
La137 O166 2.470 . S
C138 La136 2.928 . S
C138 C139 1.503 . S
C138 O156 1.261 . S
C138 O157 1.248 1_545 S
C139 C138 1.503 . S
C139 C140 1.394 . S
C139 C144 1.373 . S
C140 C139 1.394 . S
C140 C141 1.380 . S
C140 H168 0.930 . S
C141 C140 1.380 . S
C141 C142 1.376 . S
C141 H169 0.930 . S
C142 C141 1.376 . S
C142 C143 1.370 . S
C143 C142 1.370 . S
C143 C144 1.396 . S
C143 H170 0.929 1_545 S
C144 C139 1.373 . S
C144 C143 1.396 . S
C144 H171 0.929 1_545 S
C145 O158 1.240 . S
C145 O159 1.289 . S
C146 O160 1.258 1_565 S
C146 O161 1.256 . S
C147 La137 2.928 . S
C147 C148 1.503 . S
C147 O162 1.261 . S
C147 O163 1.236 1_565 S
C148 C147 1.503 . S
C148 C149 1.394 . S
C148 C153 1.373 . S
C149 C148 1.394 . S
C149 C150 1.380 . S
C149 H172 0.930 . S
C150 C149 1.380 . S
C150 C151 1.376 . S
C150 H173 0.930 . S
C151 C150 1.376 . S
C151 C152 1.370 . S
C152 C151 1.370 . S
C152 C153 1.396 . S
C152 H174 0.929 1_565 S
C153 C148 1.373 . S
C153 C152 1.396 . S
C153 H175 0.929 1_565 S
C154 O164 1.240 . S
C154 O165 1.289 . S
C155 O166 1.258 1_545 S
C155 O167 1.256 . S
O156 La136 2.521 . S
O156 C138 1.261 . S
O157 La136 2.630 1_565 S
O157 C138 1.248 1_565 S
O158 La136 2.554 . S
O158 C145 1.240 . S
O159 La136 2.757 . S
O159 La137 2.482 1_545 S
O159 C145 1.289 . S
O160 La136 2.470 . S
O160 C146 1.258 1_545 S
O161 La137 2.503 . S
O161 C146 1.256 . S
O162 La137 2.521 . S
O162 C147 1.261 . S
O163 La137 2.625 1_545 S
O163 C147 1.236 1_545 S
O164 La137 2.554 . S
O164 C154 1.240 . S
O165 La136 2.482 1_565 S
O165 La137 2.757 . S
O165 C154 1.289 . S
O166 La137 2.470 . S
O166 C155 1.258 1_565 S
O167 La136 2.503 . S
O167 C155 1.256 . S
H168 C140 0.930 . S
H169 C141 0.930 . S
H170 C143 0.929 1_565 S
H171 C144 0.929 1_565 S
H172 C149 0.930 . S
H173 C150 0.930 . S
H174 C152 0.929 1_545 S
H175 C153 0.929 1_545 S
La176 C178 2.928 . S
La176 O196 2.521 . S
La176 O197 2.628 . S
La176 O198 2.554 . S
La176 O199 2.757 . S
La176 O200 2.470 . S
La176 O205 2.482 . S
La176 O207 2.503 . S
La177 C187 2.928 . S
La177 O199 2.482 . S
La177 O201 2.503 . S
La177 O202 2.521 . S
La177 O203 2.628 . S
La177 O204 2.554 . S
La177 O205 2.757 . S
La177 O206 2.470 . S
C178 La176 2.928 . S
C178 C179 1.503 . S
C178 O196 1.261 . S
C178 O197 1.243 . S
C179 C178 1.503 . S
C179 C180 1.394 . S
C179 C184 1.373 . S
C180 C179 1.394 . S
C180 C181 1.380 . S
C180 H208 0.930 . S
C181 C180 1.380 . S
C181 C182 1.376 . S
C181 H209 0.930 . S
C182 C181 1.376 . S
C182 C183 1.370 . S
C183 C182 1.370 . S
C183 C184 1.396 . S
C183 H210 0.929 . S
C184 C179 1.373 . S
C184 C183 1.396 . S
C184 H211 0.929 . S
C185 O198 1.240 . S
C185 O199 1.289 . S
C186 O200 1.258 . S
C186 O201 1.256 . S
C187 La177 2.928 . S
C187 C188 1.503 . S
C187 O202 1.261 . S
C187 O203 1.243 . S
C188 C187 1.503 . S
C188 C189 1.394 . S
C188 C193 1.373 . S
C189 C188 1.394 . S
C189 C190 1.380 . S
C189 H212 0.930 . S
C190 C189 1.380 . S
C190 C191 1.376 . S
C190 H213 0.930 . S
C191 C190 1.376 . S
C191 C192 1.370 . S
C192 C191 1.370 . S
C192 C193 1.396 . S
C192 H214 0.929 . S
C193 C188 1.373 . S
C193 C192 1.396 . S
C193 H215 0.929 . S
C194 O204 1.240 . S
C194 O205 1.289 . S
C195 O206 1.258 . S
C195 O207 1.256 . S
O196 La176 2.521 . S
O196 C178 1.261 . S
O197 La176 2.628 . S
O197 C178 1.243 . S
O198 La176 2.554 . S
O198 C185 1.240 . S
O199 La176 2.757 . S
O199 La177 2.482 . S
O199 C185 1.289 . S
O200 La176 2.470 . S
O200 C186 1.258 . S
O201 La177 2.503 . S
O201 C186 1.256 . S
O202 La177 2.521 . S
O202 C187 1.261 . S
O203 La177 2.628 . S
O203 C187 1.243 . S
O204 La177 2.554 . S
O204 C194 1.240 . S
O205 La176 2.482 . S
O205 La177 2.757 . S
O205 C194 1.289 . S
O206 La177 2.470 . S
O206 C195 1.258 . S
O207 La176 2.503 . S
O207 C195 1.256 . S
H208 C180 0.930 . S
H209 C181 0.930 . S
H210 C183 0.929 . S
H211 C184 0.929 . S
H212 C189 0.930 . S
H213 C190 0.930 . S
H214 C192 0.929 . S
H215 C193 0.929 . S
La216 C218 2.928 . S
La216 O236 2.521 . S
La216 O237 2.628 . S
La216 O238 2.554 . S
La216 O239 2.757 1_655 S
La216 O240 2.470 . S
La216 O245 2.482 . S
La216 O247 2.503 1_655 S
La217 C227 2.928 . S
La217 O239 2.482 . S
La217 O241 2.503 1_455 S
La217 O242 2.521 . S
La217 O243 2.628 . S
La217 O244 2.554 . S
La217 O245 2.757 1_455 S
La217 O246 2.470 . S
C218 La216 2.928 . S
C218 C219 1.503 . S
C218 O236 1.261 . S
C218 O237 1.243 . S
C219 C218 1.503 . S
C219 C220 1.394 . S
C219 C224 1.373 . S
C220 C219 1.394 . S
C220 C221 1.380 . S
C220 H248 0.930 . S
C221 C220 1.380 . S
C221 C222 1.376 . S
C221 H249 0.930 . S
C222 C221 1.376 . S
C222 C223 1.370 . S
C223 C222 1.370 . S
C223 C224 1.396 . S
C223 H250 0.929 . S
C224 C219 1.373 . S
C224 C223 1.396 . S
C224 H251 0.929 . S
C225 O238 1.256 . S
C225 O239 1.280 1_655 S
C226 O240 1.258 . S
C226 O241 1.256 . S
C227 La217 2.928 . S
C227 C228 1.503 . S
C227 O242 1.261 . S
C227 O243 1.243 . S
C228 C227 1.503 . S
C228 C229 1.394 . S
C228 C233 1.373 . S
C229 C228 1.394 . S
C229 C230 1.380 . S
C229 H252 0.930 . S
C230 C229 1.380 . S
C230 C231 1.376 . S
C230 H253 0.930 . S
C231 C230 1.376 . S
C231 C232 1.370 . S
C232 C231 1.370 . S
C232 C233 1.396 . S
C232 H254 0.929 . S
C233 C228 1.373 . S
C233 C232 1.396 . S
C233 H255 0.929 . S
C234 O244 1.240 . S
C234 O245 1.289 1_455 S
C235 O246 1.258 . S
C235 O247 1.256 . S
O236 La216 2.521 . S
O236 C218 1.261 . S
O237 La216 2.628 . S
O237 C218 1.243 . S
O238 La216 2.554 . S
O238 C225 1.256 . S
O239 La216 2.757 1_455 S
O239 La217 2.482 . S
O239 C225 1.280 1_455 S
O240 La216 2.470 . S
O240 C226 1.258 . S
O241 La217 2.503 1_655 S
O241 C226 1.256 . S
O242 La217 2.521 . S
O242 C227 1.261 . S
O243 La217 2.628 . S
O243 C227 1.243 . S
O244 La217 2.554 . S
O244 C234 1.240 . S
O245 La216 2.482 . S
O245 La217 2.757 1_655 S
O245 C234 1.289 1_655 S
O246 La217 2.470 . S
O246 C235 1.258 . S
O247 La216 2.503 1_455 S
O247 C235 1.256 . S
H248 C220 0.930 . S
H249 C221 0.930 . S
H250 C223 0.929 . S
H251 C224 0.929 . S
H252 C229 0.930 . S
H253 C230 0.930 . S
H254 C232 0.929 . S
H255 C233 0.929 . S
C256 C257 1.388 . S
C256 C258 1.327 . S
C256 H281 0.950 . S
C257 C256 1.388 . S
C257 C273 1.311 1_545 S
C258 C256 1.327 . S
C258 C277 1.471 . S
C258 H282 0.950 . S
C259 C276 1.574 . S
C259 C278 1.368 1_565 S
C259 H283 0.949 . S
H260 C264 0.949 . S
C261 C262 1.349 1_565 S
C261 C263 1.327 . S
C261 H284 0.950 . S
C262 C261 1.349 1_545 S
C262 C274 1.349 . S
C263 C261 1.327 . S
C263 C279 1.429 1_565 S
C263 H285 0.950 . S
C264 H260 0.949 . S
C264 C272 1.574 . S
C264 C280 1.368 . S
H265 C273 0.950 . S
H266 C271 0.950 . S
H267 C272 0.949 . S
H268 C274 0.950 . S
H269 C275 0.950 . S
H270 C276 0.949 . S
C271 H266 0.950 . S
C271 C273 1.327 . S
C271 C277 1.387 1_565 S
C272 C264 1.574 . S
C272 H267 0.949 . S
C272 C278 1.368 . S
C273 C257 1.311 1_565 S
C273 H265 0.950 . S
C273 C271 1.327 . S
C274 C262 1.349 . S
C274 H268 0.950 . S
C274 C275 1.327 . S
C275 H269 0.950 . S
C275 C274 1.327 . S
C275 C279 1.429 . S
C276 C259 1.574 . S
C276 H270 0.949 . S
C276 C280 1.368 1_565 S
C277 C258 1.471 . S
C277 C271 1.387 1_545 S
C277 C278 1.524 . S
C278 C259 1.368 1_545 S
C278 C272 1.368 . S
C278 C277 1.524 . S
C279 C263 1.429 1_545 S
C279 C275 1.429 . S
C279 C280 1.523 . S
C280 C264 1.368 . S
C280 C276 1.368 1_545 S
C280 C279 1.523 . S
H281 C256 0.950 . S
H282 C258 0.950 . S
H283 C259 0.949 . S
H284 C261 0.950 . S
H285 C263 0.950 . S
C286 C287 1.349 . S
C286 C288 1.327 . S
C286 H311 0.950 . S
C287 C286 1.349 . S
C287 C303 1.349 . S
C288 C286 1.327 . S
C288 C307 1.429 . S
C288 H312 0.950 . S
C289 C306 1.574 . S
C289 C308 1.368 . S
C289 H313 0.949 . S
H290 C294 0.949 . S
C291 C292 1.349 . S
C291 C293 1.327 . S
C291 H314 0.950 . S
C292 C291 1.349 . S
C292 C304 1.349 . S
C293 C291 1.327 . S
C293 C309 1.429 . S
C293 H315 0.950 . S
C294 H290 0.949 . S
C294 C302 1.574 . S
C294 C310 1.368 . S
H295 C303 0.950 . S
H296 C301 0.950 . S
H297 C302 0.949 . S
H298 C304 0.950 . S
H299 C305 0.950 . S
H300 C306 0.949 . S
C301 H296 0.950 . S
C301 C303 1.327 . S
C301 C307 1.429 . S
C302 C294 1.574 . S
C302 H297 0.949 . S
C302 C308 1.368 . S
C303 C287 1.349 . S
C303 H295 0.950 . S
C303 C301 1.327 . S
C304 C292 1.349 . S
C304 H298 0.950 . S
C304 C305 1.327 . S
C305 H299 0.950 . S
C305 C304 1.327 . S
C305 C309 1.429 . S
C306 C289 1.574 . S
C306 H300 0.949 . S
C306 C310 1.368 . S
C307 C288 1.429 . S
C307 C301 1.429 . S
C307 C308 1.523 . S
C308 C289 1.368 . S
C308 C302 1.368 . S
C308 C307 1.523 . S
C309 C293 1.429 . S
C309 C305 1.429 . S
C309 C310 1.523 . S
C310 C294 1.368 . S
C310 C306 1.368 . S
C310 C309 1.523 . S
H311 C286 0.950 . S
H312 C288 0.950 . S
H313 C289 0.949 . S
H314 C291 0.950 . S
H315 C293 0.950 . S
C316 C317 1.349 . S
C316 C318 1.327 . S
C316 H341 0.950 . S
C317 C316 1.349 . S
C317 C333 1.349 . S
C318 C316 1.327 . S
C318 C337 1.429 . S
C318 H342 0.950 . S
C319 C336 1.574 . S
C319 C338 1.368 . S
C319 H343 0.949 . S
H320 C324 0.949 . S
C321 C322 1.349 . S
C321 C323 1.327 . S
C321 H344 0.950 . S
C322 C321 1.349 . S
C322 C334 1.349 . S
C323 C321 1.327 . S
C323 C339 1.429 . S
C323 H345 0.950 . S
C324 H320 0.949 . S
C324 C332 1.574 . S
C324 C340 1.368 . S
H325 C333 0.950 . S
H326 C331 0.950 . S
H327 C332 0.949 . S
H328 C334 0.950 . S
H329 C335 0.950 . S
H330 C336 0.949 . S
C331 H326 0.950 . S
C331 C333 1.327 . S
C331 C337 1.429 . S
C332 C324 1.574 . S
C332 H327 0.949 . S
C332 C338 1.368 . S
C333 C317 1.349 . S
C333 H325 0.950 . S
C333 C331 1.327 . S
C334 C322 1.349 . S
C334 H328 0.950 . S
C334 C335 1.327 . S
C335 H329 0.950 . S
C335 C334 1.327 . S
C335 C339 1.429 . S
C336 C319 1.574 . S
C336 H330 0.949 . S
C336 C340 1.368 . S
C337 C318 1.429 . S
C337 C331 1.429 . S
C337 C338 1.523 . S
C338 C319 1.368 . S
C338 C332 1.368 . S
C338 C337 1.523 . S
C339 C323 1.429 . S
C339 C335 1.429 . S
C339 C340 1.523 . S
C340 C324 1.368 . S
C340 C336 1.368 . S
C340 C339 1.523 . S
H341 C316 0.950 . S
H342 C318 0.950 . S
H343 C319 0.949 . S
H344 C321 0.950 . S
H345 C323 0.950 . S
C346 C347 1.349 1_655 S
C346 C348 1.327 . S
C346 H371 0.950 . S
C347 C346 1.349 1_455 S
C347 C363 1.349 . S
C348 C346 1.327 . S
C348 C367 1.429 1_655 S
C348 H372 0.950 . S
C349 C366 1.574 . S
C349 C368 1.368 . S
C349 H373 0.949 . S
H350 C354 0.949 . S
C351 C352 1.349 . S
C351 C353 1.327 . S
C351 H374 0.950 . S
C352 C351 1.349 . S
C352 C364 1.349 1_455 S
C353 C351 1.327 . S
C353 C369 1.429 . S
C353 H375 0.950 . S
C354 H350 0.949 . S
C354 C362 1.574 . S
C354 C370 1.368 1_655 S
H355 C363 0.950 . S
H356 C361 0.950 . S
H357 C362 0.949 . S
H358 C364 0.950 . S
H359 C365 0.950 . S
H360 C366 0.949 . S
C361 H356 0.950 . S
C361 C363 1.327 . S
C361 C367 1.429 . S
C362 C354 1.574 . S
C362 H357 0.949 . S
C362 C368 1.368 1_655 S
C363 C347 1.349 . S
C363 H355 0.950 . S
C363 C361 1.327 . S
C364 C352 1.349 1_655 S
C364 H358 0.950 . S
C364 C365 1.327 . S
C365 H359 0.950 . S
C365 C364 1.327 . S
C365 C369 1.429 1_655 S
C366 C349 1.574 . S
C366 H360 0.949 . S
C366 C370 1.368 . S
C367 C348 1.429 1_455 S
C367 C361 1.429 . S
C367 C368 1.523 . S
C368 C349 1.368 . S
C368 C362 1.368 1_455 S
C368 C367 1.523 . S
C369 C353 1.429 . S
C369 C365 1.429 1_455 S
C369 C370 1.523 . S
C370 C354 1.368 1_455 S
C370 C366 1.368 . S
C370 C369 1.523 . S
H371 C346 0.950 . S
H372 C348 0.950 . S
H373 C349 0.949 . S
H374 C351 0.950 . S
H375 C353 0.950 . S
C376 C377 1.382 . S
C376 C378 1.327 . S
C376 H401 0.950 . S
C377 C376 1.382 . S
C377 C393 1.317 1_565 S
C378 C376 1.327 . S
C378 C397 1.465 . S
C378 H402 0.950 . S
C379 C396 1.574 . S
C379 C398 1.327 1_545 S
C379 H403 0.949 . S
H380 C384 0.949 . S
C381 C382 1.349 1_545 S
C381 C383 1.327 . S
C381 H404 0.950 . S
C382 C381 1.349 1_565 S
C382 C394 1.349 . S
C383 C381 1.327 . S
C383 C399 1.429 1_545 S
C383 H405 0.950 . S
C384 H380 0.949 . S
C384 C392 1.574 1_556 S
C384 C400 1.416 1_556 S
H385 C393 0.950 . S
H386 C391 0.950 . S
H387 C392 0.949 . S
H388 C394 0.950 . S
H389 C395 0.950 . S
H390 C396 0.949 . S
C391 H386 0.950 . S
C391 C393 1.327 . S
C391 C397 1.393 1_545 S
C392 C384 1.574 1_554 S
C392 H387 0.949 . S
C392 C398 1.411 . S
C393 C377 1.317 1_545 S
C393 H385 0.950 . S
C393 C391 1.327 . S
C394 C382 1.349 . S
C394 H388 0.950 . S
C394 C395 1.327 . S
C395 H389 0.950 . S
C395 C394 1.327 . S
C395 C399 1.429 . S
C396 C379 1.574 . S
C396 H390 0.949 . S
C396 C400 1.322 1_545 S
C397 C378 1.465 . S
C397 C391 1.393 1_565 S
C397 C398 1.523 . S
C398 C379 1.327 1_565 S
C398 C392 1.411 . S
C398 C397 1.523 . S
C399 C383 1.429 1_565 S
C399 C395 1.429 . S
C399 C400 1.524 1_556 S
C400 C384 1.416 1_554 S
C400 C396 1.322 1_565 S
C400 C399 1.524 1_554 S
H401 C376 0.950 . S
H402 C378 0.950 . S
H403 C379 0.949 . S
H404 C381 0.950 . S
H405 C383 0.950 . S
C406 C407 1.349 . S
C406 C408 1.327 . S
C406 H431 0.950 . S
C407 C406 1.349 . S
C407 C423 1.349 . S
C408 C406 1.327 . S
C408 C427 1.429 . S
C408 H432 0.950 . S
C409 C426 1.574 1_554 S
C409 C428 1.368 . S
C409 H433 0.949 . S
H410 C414 0.949 . S
C411 C412 1.349 . S
C411 C413 1.327 . S
C411 H434 0.950 . S
C412 C411 1.349 . S
C412 C424 1.349 . S
C413 C411 1.327 . S
C413 C429 1.429 . S
C413 H435 0.950 . S
C414 H410 0.949 . S
C414 C422 1.574 . S
C414 C430 1.368 . S
H415 C423 0.950 . S
H416 C421 0.950 . S
H417 C422 0.949 . S
H418 C424 0.950 . S
H419 C425 0.949 1_554 S
H420 C426 0.949 . S
C421 H416 0.950 . S
C421 C423 1.327 . S
C421 C427 1.429 . S
C422 C414 1.574 . S
C422 H417 0.949 . S
C422 C428 1.368 . S
C423 C407 1.349 . S
C423 H415 0.950 . S
C423 C421 1.327 . S
C424 C412 1.349 . S
C424 H418 0.950 . S
C424 C425 1.327 . S
C425 H419 0.949 1_556 S
C425 C424 1.327 . S
C425 C429 1.429 . S
C426 C409 1.574 1_556 S
C426 H420 0.949 . S
C426 C430 1.368 1_556 S
C427 C408 1.429 . S
C427 C421 1.429 . S
C427 C428 1.523 . S
C428 C409 1.368 . S
C428 C422 1.368 . S
C428 C427 1.523 . S
C429 C413 1.429 . S
C429 C425 1.429 . S
C429 C430 1.523 1_556 S
C430 C414 1.368 . S
C430 C426 1.368 1_554 S
C430 C429 1.523 1_554 S
H431 C406 0.950 . S
H432 C408 0.950 . S
H433 C409 0.949 . S
H434 C411 0.950 . S
H435 C413 0.950 . S
C436 C437 1.349 . S
C436 C438 1.327 . S
C436 H461 0.950 . S
C437 C436 1.349 . S
C437 C453 1.349 . S
C438 C436 1.327 . S
C438 C457 1.429 . S
C438 H462 0.950 . S
C439 C456 1.574 1_554 S
C439 C458 1.368 . S
C439 H463 0.949 . S
H440 C444 0.949 . S
C441 C442 1.349 . S
C441 C443 1.327 . S
C441 H464 0.950 . S
C442 C441 1.349 . S
C442 C454 1.349 . S
C443 C441 1.327 . S
C443 C459 1.429 . S
C443 H465 0.950 . S
C444 H440 0.949 . S
C444 C452 1.574 . S
C444 C460 1.368 . S
H445 C453 0.950 . S
H446 C451 0.950 . S
H447 C452 0.949 . S
H448 C454 0.950 . S
H449 C455 0.950 . S
H450 C456 0.949 . S
C451 H446 0.950 . S
C451 C453 1.327 . S
C451 C457 1.429 . S
C452 C444 1.574 . S
C452 H447 0.949 . S
C452 C458 1.368 . S
C453 C437 1.349 . S
C453 H445 0.950 . S
C453 C451 1.327 . S
C454 C442 1.349 . S
C454 H448 0.950 . S
C454 C455 1.327 . S
C455 H449 0.950 . S
C455 C454 1.327 . S
C455 C459 1.429 . S
C456 C439 1.574 1_556 S
C456 H450 0.949 . S
C456 C460 1.368 1_556 S
C457 C438 1.429 . S
C457 C451 1.429 . S
C457 C458 1.523 . S
C458 C439 1.368 . S
C458 C452 1.368 . S
C458 C457 1.523 . S
C459 C443 1.429 . S
C459 C455 1.429 . S
C459 C460 1.523 1_556 S
C460 C444 1.368 . S
C460 C456 1.368 1_554 S
C460 C459 1.523 1_554 S
H461 C436 0.950 . S
H462 C438 0.950 . S
H463 C439 0.949 . S
H464 C441 0.950 . S
H465 C443 0.950 . S
C466 C467 1.363 . S
C466 C468 1.327 . S
C466 H491 0.950 . S
C467 C466 1.363 . S
C467 C483 1.336 1_655 S
C468 C466 1.327 . S
C468 C487 1.444 . S
C468 H492 0.950 . S
C469 C486 1.574 1_554 S
C469 C488 1.351 1_455 S
C469 H493 0.949 . S
H470 C474 0.949 . S
C471 C472 1.327 1_455 S
C471 C473 1.327 . S
C471 H494 0.950 . S
C472 C471 1.327 1_655 S
C472 C484 1.373 . S
C473 C471 1.327 . S
C473 C489 1.409 1_455 S
C473 H495 0.950 . S
C474 H470 0.949 . S
C474 C482 1.574 . S
C474 C490 1.390 . S
H475 C483 0.950 . S
H476 C481 0.950 . S
H477 C482 0.949 . S
H478 C484 0.950 . S
H479 C485 0.950 1_554 S
H480 C486 0.949 . S
C481 H476 0.950 . S
C481 C483 1.327 . S
C481 C487 1.414 1_455 S
C482 C474 1.574 . S
C482 H477 0.949 . S
C482 C488 1.387 . S
C483 C467 1.336 1_455 S
C483 H475 0.950 . S
C483 C481 1.327 . S
C484 C472 1.373 . S
C484 H478 0.950 . S
C484 C485 1.327 . S
C485 H479 0.950 1_556 S
C485 C484 1.327 . S
C485 C489 1.450 . S
C486 C469 1.574 1_556 S
C486 H480 0.949 . S
C486 C490 1.348 1_456 S
C487 C468 1.444 . S
C487 C481 1.414 1_655 S
C487 C488 1.523 . S
C488 C469 1.351 1_655 S
C488 C482 1.387 . S
C488 C487 1.523 . S
C489 C473 1.409 1_655 S
C489 C485 1.450 . S
C489 C490 1.523 1_556 S
C490 C474 1.390 . S
C490 C486 1.348 1_654 S
C490 C489 1.523 1_554 S
H491 C466 0.950 . S
H492 C468 0.950 . S
H493 C469 0.949 . S
H494 C471 0.950 . S
H495 C473 0.950 . S
C496 C497 1.349 1_655 S
C496 C498 1.327 . S
C496 H521 0.950 . S
C497 C496 1.349 1_455 S
C497 C513 1.349 . S
C498 C496 1.327 . S
C498 C517 1.429 . S
C498 H522 0.950 . S
C499 C516 1.583 . S
C499 C518 1.368 1_455 S
C499 H523 0.949 . S
H500 C504 0.949 . S
C501 C502 1.349 . S
C501 C503 1.327 . S
C501 H524 0.950 . S
C502 C501 1.349 . S
C502 C514 1.349 . S
C503 C501 1.327 . S
C503 C519 1.429 . S
C503 H525 0.950 1_655 S
C504 H500 0.949 . S
C504 C512 1.574 . S
C504 C520 1.368 . S
H505 C513 0.950 . S
H506 C511 0.950 . S
H507 C512 0.949 . S
H508 C514 0.950 . S
H509 C515 0.950 . S
H510 C516 0.977 . S
C511 H506 0.950 . S
C511 C513 1.327 . S
C511 C517 1.429 1_455 S
C512 C504 1.574 . S
C512 H507 0.949 . S
C512 C518 1.368 . S
C513 C497 1.349 . S
C513 H505 0.950 . S
C513 C511 1.327 . S
C514 C502 1.349 . S
C514 H508 0.950 . S
C514 C515 1.327 . S
C515 H509 0.950 . S
C515 C514 1.327 . S
C515 C519 1.429 . S
C516 C499 1.583 . S
C516 H510 0.977 . S
C516 C520 1.330 1_455 S
C517 C498 1.429 . S
C517 C511 1.429 1_655 S
C517 C518 1.523 . S
C518 C499 1.368 1_655 S
C518 C512 1.368 . S
C518 C517 1.523 . S
C519 C503 1.429 . S
C519 C515 1.429 . S
C519 C520 1.523 . S
C520 C504 1.368 . S
C520 C516 1.330 1_655 S
C520 C519 1.523 . S
H521 C496 0.950 . S
H522 C498 0.950 . S
H523 C499 0.949 . S
H524 C501 0.950 . S
H525 C503 0.950 1_455 S
C526 C527 1.349 . S
C526 C528 1.327 . S
C526 H551 0.950 . S
C527 C526 1.349 . S
C527 C543 1.349 1_545 S
C528 C526 1.327 . S
C528 C547 1.429 1_545 S
C528 H552 0.950 . S
C529 C546 1.574 . S
C529 C548 1.368 . S
C529 H553 0.949 . S
H530 C534 0.949 . S
C531 C532 1.349 . S
C531 C533 1.327 . S
C531 H554 0.950 . S
C532 C531 1.349 . S
C532 C544 1.349 . S
C533 C531 1.327 . S
C533 C549 1.429 . S
C533 H555 0.950 . S
C534 H530 0.949 . S
C534 C542 1.574 . S
C534 C550 1.368 . S
H535 C543 0.950 . S
H536 C541 0.950 . S
H537 C542 0.964 . S
H538 C544 0.950 . S
H539 C545 0.950 . S
H540 C546 0.949 . S
C541 H536 0.950 . S
C541 C543 1.327 . S
C541 C547 1.429 . S
C542 C534 1.574 . S
C542 H537 0.964 . S
C542 C548 1.368 . S
C543 C527 1.349 1_565 S
C543 H535 0.950 . S
C543 C541 1.327 . S
C544 C532 1.349 . S
C544 H538 0.950 . S
C544 C545 1.327 . S
C545 H539 0.950 . S
C545 C544 1.327 . S
C545 C549 1.429 . S
C546 C529 1.574 . S
C546 H540 0.949 . S
C546 C550 1.368 . S
C547 C528 1.429 1_565 S
C547 C541 1.429 . S
C547 C548 1.523 . S
C548 C529 1.368 . S
C548 C542 1.368 . S
C548 C547 1.523 . S
C549 C533 1.429 . S
C549 C545 1.429 . S
C549 C550 1.523 . S
C550 C534 1.368 . S
C550 C546 1.368 . S
C550 C549 1.523 . S
H551 C526 0.950 . S
H552 C528 0.950 . S
H553 C529 0.949 . S
H554 C531 0.950 . S
H555 C533 0.950 . S
C556 C557 1.349 . S
C556 C558 1.327 . S
C556 H581 0.950 . S
C557 C556 1.349 . S
C557 C573 1.349 . S
C558 C556 1.327 . S
C558 C577 1.429 . S
C558 H582 0.950 . S
C559 C576 1.574 . S
C559 C578 1.368 . S
C559 H583 0.949 . S
H560 C564 0.949 . S
C561 C562 1.349 . S
C561 C563 1.327 . S
C561 H584 0.950 . S
C562 C561 1.349 . S
C562 C574 1.349 . S
C563 C561 1.327 . S
C563 C579 1.429 . S
C563 H585 0.950 . S
C564 H560 0.949 . S
C564 C572 1.574 . S
C564 C580 1.368 . S
H565 C573 0.950 . S
H566 C571 0.950 . S
H567 C572 0.949 . S
H568 C574 0.950 . S
H569 C575 0.950 . S
H570 C576 0.949 . S
C571 H566 0.950 . S
C571 C573 1.327 . S
C571 C577 1.429 . S
C572 C564 1.574 . S
C572 H567 0.949 . S
C572 C578 1.368 . S
C573 C557 1.349 . S
C573 H565 0.950 . S
C573 C571 1.327 . S
C574 C562 1.349 . S
C574 H568 0.950 . S
C574 C575 1.327 . S
C575 H569 0.950 . S
C575 C574 1.327 . S
C575 C579 1.429 . S
C576 C559 1.574 . S
C576 H570 0.949 . S
C576 C580 1.368 . S
C577 C558 1.429 . S
C577 C571 1.429 . S
C577 C578 1.523 . S
C578 C559 1.368 . S
C578 C572 1.368 . S
C578 C577 1.523 . S
C579 C563 1.429 . S
C579 C575 1.429 . S
C579 C580 1.523 . S
C580 C564 1.368 . S
C580 C576 1.368 . S
C580 C579 1.523 . S
H581 C556 0.950 . S
H582 C558 0.950 . S
H583 C559 0.949 . S
H584 C561 0.950 . S
H585 C563 0.950 . S
C586 C587 1.349 . S
C586 C588 1.327 . S
C586 H611 0.950 . S
C587 C586 1.349 . S
C587 C603 1.349 . S
C588 C586 1.327 . S
C588 C607 1.429 . S
C588 H612 0.950 . S
C589 C606 1.574 . S
C589 C608 1.368 . S
C589 H613 0.949 . S
H590 C594 0.949 . S
C591 C592 1.349 . S
C591 C593 1.327 . S
C591 H614 0.950 . S
C592 C591 1.349 . S
C592 C604 1.349 . S
C593 C591 1.327 . S
C593 C609 1.429 . S
C593 H615 0.950 . S
C594 H590 0.949 . S
C594 C602 1.574 . S
C594 C610 1.368 . S
H595 C603 0.950 . S
H596 C601 0.950 . S
H597 C602 0.949 . S
H598 C604 0.950 . S
H599 C605 0.950 . S
H600 C606 0.949 . S
C601 H596 0.950 . S
C601 C603 1.327 . S
C601 C607 1.429 . S
C602 C594 1.574 . S
C602 H597 0.949 . S
C602 C608 1.368 . S
C603 C587 1.349 . S
C603 H595 0.950 . S
C603 C601 1.327 . S
C604 C592 1.349 . S
C604 H598 0.950 . S
C604 C605 1.327 . S
C605 H599 0.950 . S
C605 C604 1.327 . S
C605 C609 1.429 . S
C606 C589 1.574 . S
C606 H600 0.949 . S
C606 C610 1.368 . S
C607 C588 1.429 . S
C607 C601 1.429 . S
C607 C608 1.523 . S
C608 C589 1.368 . S
C608 C602 1.368 . S
C608 C607 1.523 . S
C609 C593 1.429 . S
C609 C605 1.429 . S
C609 C610 1.523 . S
C610 C594 1.368 . S
C610 C606 1.368 . S
C610 C609 1.523 . S
H611 C586 0.950 . S
H612 C588 0.950 . S
H613 C589 0.949 . S
H614 C591 0.950 . S
H615 C593 0.950 . S
C616 C617 1.349 1_455 S
C616 C618 1.327 . S
C616 H641 0.950 . S
C617 C616 1.349 1_655 S
C617 C633 1.349 . S
C618 C616 1.327 . S
C618 C637 1.429 . S
C618 H642 0.950 . S
C619 C636 1.579 . S
C619 C638 1.380 . S
C619 H643 0.934 1_455 S
H620 C624 0.949 . S
C621 C622 1.349 . S
C621 C623 1.327 . S
C621 H644 0.950 . S
C622 C621 1.349 . S
C622 C634 1.349 1_556 S
C623 C621 1.327 . S
C623 C639 1.429 1_556 S
C623 H645 0.950 . S
C624 H620 0.949 . S
C624 C632 1.574 . S
C624 C640 1.368 . S
H625 C633 0.950 . S
H626 C631 0.950 . S
H627 C632 0.949 . S
H628 C634 0.950 . S
H629 C635 0.950 . S
H630 C636 0.942 1_655 S
C631 H626 0.950 . S
C631 C633 1.327 . S
C631 C637 1.429 1_655 S
C632 C624 1.574 . S
C632 H627 0.949 . S
C632 C638 1.368 . S
C633 C617 1.349 . S
C633 H625 0.950 . S
C633 C631 1.327 . S
C634 C622 1.349 1_554 S
C634 H628 0.950 . S
C634 C635 1.327 . S
C635 H629 0.950 . S
C635 C634 1.327 . S
C635 C639 1.429 . S
C636 C619 1.579 . S
C636 H630 0.942 1_455 S
C636 C640 1.368 . S
C637 C618 1.429 . S
C637 C631 1.429 1_455 S
C637 C638 1.523 . S
C638 C619 1.380 . S
C638 C632 1.368 . S
C638 C637 1.523 . S
C639 C623 1.429 1_554 S
C639 C635 1.429 . S
C639 C640 1.523 . S
C640 C624 1.368 . S
C640 C636 1.368 . S
C640 C639 1.523 . S
H641 C616 0.950 . S
H642 C618 0.950 . S
H643 C619 0.934 1_655 S
H644 C621 0.950 . S
H645 C623 0.950 . S
C646 C647 1.349 1_545 S
C646 C648 1.327 . S
C646 H671 0.950 . S
C647 C646 1.349 1_565 S
C647 C663 1.349 . S
C648 C646 1.327 . S
C648 C667 1.429 . S
C648 H672 0.950 . S
C649 C666 1.574 . S
C649 C668 1.368 1_565 S
C649 H673 0.949 . S
H650 C654 0.949 . S
C651 C652 1.349 1_554 S
C651 C653 1.327 . S
C651 H674 0.950 1_545 S
C652 C651 1.349 1_556 S
C652 C664 1.349 . S
C653 C651 1.327 . S
C653 C669 1.429 . S
C653 H675 0.950 1_545 S
C654 H650 0.949 . S
C654 C662 1.574 . S
C654 C670 1.368 . S
H655 C663 0.950 . S
H656 C661 0.950 . S
H657 C662 0.949 . S
H658 C664 0.950 . S
H659 C665 0.950 . S
H660 C666 0.949 . S
C661 H656 0.950 . S
C661 C663 1.327 . S
C661 C667 1.429 1_565 S
C662 C654 1.574 . S
C662 H657 0.949 . S
C662 C668 1.368 . S
C663 C647 1.349 . S
C663 H655 0.950 . S
C663 C661 1.327 . S
C664 C652 1.349 . S
C664 H658 0.950 . S
C664 C665 1.327 1_556 S
C665 H659 0.950 . S
C665 C664 1.327 1_554 S
C665 C669 1.429 . S
C666 C649 1.574 . S
C666 H660 0.949 . S
C666 C670 1.368 1_565 S
C667 C648 1.429 . S
C667 C661 1.429 1_545 S
C667 C668 1.523 . S
C668 C649 1.368 1_545 S
C668 C662 1.368 . S
C668 C667 1.523 . S
C669 C653 1.429 . S
C669 C665 1.429 . S
C669 C670 1.523 . S
C670 C654 1.368 . S
C670 C666 1.368 1_545 S
C670 C669 1.523 . S
H671 C646 0.950 . S
H672 C648 0.950 . S
H673 C649 0.949 . S
H674 C651 0.950 1_565 S
H675 C653 0.950 1_565 S
C676 C677 1.349 . S
C676 C678 1.327 . S
C676 H701 0.950 . S
C677 C676 1.349 . S
C677 C693 1.349 . S
C678 C676 1.327 . S
C678 C697 1.429 . S
C678 H702 0.950 . S
C679 C696 1.574 . S
C679 C698 1.368 . S
C679 H703 0.949 . S
H680 C684 0.949 . S
C681 C682 1.349 . S
C681 C683 1.327 . S
C681 H704 0.950 . S
C682 C681 1.349 . S
C682 C694 1.349 1_556 S
C683 C681 1.327 . S
C683 C699 1.429 1_556 S
C683 H705 0.950 . S
C684 H680 0.949 . S
C684 C692 1.574 . S
C684 C700 1.368 . S
H685 C693 0.950 . S
H686 C691 0.950 . S
H687 C692 0.949 . S
H688 C694 0.950 . S
H689 C695 0.950 . S
H690 C696 0.949 . S
C691 H686 0.950 . S
C691 C693 1.327 . S
C691 C697 1.429 . S
C692 C684 1.574 . S
C692 H687 0.949 . S
C692 C698 1.368 . S
C693 C677 1.349 . S
C693 H685 0.950 . S
C693 C691 1.327 . S
C694 C682 1.349 1_554 S
C694 H688 0.950 . S
C694 C695 1.327 . S
C695 H689 0.950 . S
C695 C694 1.327 . S
C695 C699 1.429 . S
C696 C679 1.574 . S
C696 H690 0.949 . S
C696 C700 1.368 . S
C697 C678 1.429 . S
C697 C691 1.429 . S
C697 C698 1.523 . S
C698 C679 1.368 . S
C698 C692 1.368 . S
C698 C697 1.523 . S
C699 C683 1.429 1_554 S
C699 C695 1.429 . S
C699 C700 1.523 . S
C700 C684 1.368 . S
C700 C696 1.368 . S
C700 C699 1.523 . S
H701 C676 0.950 . S
H702 C678 0.950 . S
H703 C679 0.949 . S
H704 C681 0.950 . S
H705 C683 0.950 . S
C706 C707 1.349 . S
C706 C708 1.327 . S
C706 H731 0.950 . S
C707 C706 1.349 . S
C707 C723 1.349 . S
C708 C706 1.327 . S
C708 C727 1.429 . S
C708 H732 0.950 . S
C709 C726 1.574 . S
C709 C728 1.368 . S
C709 H733 0.949 . S
H710 C714 0.949 . S
C711 C712 1.349 . S
C711 C713 1.327 1_556 S
C711 H734 0.950 . S
C712 C711 1.349 . S
C712 C724 1.349 1_556 S
C713 C711 1.327 1_554 S
C713 C729 1.429 . S
C713 H735 0.950 . S
C714 H710 0.949 . S
C714 C722 1.574 . S
C714 C730 1.368 . S
H715 C723 0.950 . S
H716 C721 0.950 . S
H717 C722 0.949 . S
H718 C724 0.950 . S
H719 C725 0.950 . S
H720 C726 0.949 . S
C721 H716 0.950 . S
C721 C723 1.327 . S
C721 C727 1.429 . S
C722 C714 1.574 . S
C722 H717 0.949 . S
C722 C728 1.368 . S
C723 C707 1.349 . S
C723 H715 0.950 . S
C723 C721 1.327 . S
C724 C712 1.349 1_554 S
C724 H718 0.950 . S
C724 C725 1.327 . S
C725 H719 0.950 . S
C725 C724 1.327 . S
C725 C729 1.429 . S
C726 C709 1.574 . S
C726 H720 0.949 . S
C726 C730 1.368 . S
C727 C708 1.429 . S
C727 C721 1.429 . S
C727 C728 1.523 . S
C728 C709 1.368 . S
C728 C722 1.368 . S
C728 C727 1.523 . S
C729 C713 1.429 . S
C729 C725 1.429 . S
C729 C730 1.523 . S
C730 C714 1.368 . S
C730 C726 1.368 . S
C730 C729 1.523 . S
H731 C706 0.950 . S
H732 C708 0.950 . S
H733 C709 0.949 . S
H734 C711 0.950 . S
H735 C713 0.950 . S
C736 C737 1.349 . S
C736 C738 1.327 . S
C736 H761 0.950 . S
C737 C736 1.349 . S
C737 C753 1.349 1_455 S
C738 C736 1.327 . S
C738 C757 1.429 . S
C738 H762 0.950 . S
C739 C756 1.574 . S
C739 C758 1.368 1_655 S
C739 H763 0.949 . S
H740 C744 0.949 . S
C741 C742 1.351 . S
C741 C743 1.325 1_455 S
C741 H764 0.948 1_455 S
C742 C741 1.351 . S
C742 C754 1.349 . S
C743 C741 1.325 1_655 S
C743 C759 1.407 1_655 S
C743 H765 0.977 . S
C744 H740 0.949 . S
C744 C752 1.574 . S
C744 C760 1.368 . S
H745 C753 0.950 . S
H746 C751 0.950 . S
H747 C752 0.949 . S
H748 C754 0.950 . S
H749 C755 0.950 . S
H750 C756 0.949 . S
C751 H746 0.950 . S
C751 C753 1.327 . S
C751 C757 1.429 1_655 S
C752 C744 1.574 . S
C752 H747 0.949 . S
C752 C758 1.368 . S
C753 C737 1.349 1_655 S
C753 H745 0.950 . S
C753 C751 1.327 . S
C754 C742 1.349 . S
C754 H748 0.950 . S
C754 C755 1.327 . S
C755 H749 0.950 . S
C755 C754 1.327 . S
C755 C759 1.429 . S
C756 C739 1.574 . S
C756 H750 0.949 . S
C756 C760 1.368 1_655 S
C757 C738 1.429 . S
C757 C751 1.429 1_455 S
C757 C758 1.523 . S
C758 C739 1.368 1_455 S
C758 C752 1.368 . S
C758 C757 1.523 . S
C759 C743 1.407 1_455 S
C759 C755 1.429 . S
C759 C760 1.523 . S
C760 C744 1.368 . S
C760 C756 1.368 1_455 S
C760 C759 1.523 . S
H761 C736 0.950 . S
H762 C738 0.950 . S
H763 C739 0.949 . S
H764 C741 0.948 1_655 S
H765 C743 0.977 . S
C766 C767 1.349 1_565 S
C766 C768 1.327 . S
C766 H791 0.950 . S
C767 C766 1.349 1_545 S
C767 C783 1.349 . S
C768 C766 1.327 . S
C768 C787 1.429 1_565 S
C768 H792 0.950 . S
C769 C786 1.574 . S
C769 C788 1.368 . S
C769 H793 0.949 . S
H770 C774 0.949 . S
C771 C772 1.349 . S
C771 C773 1.327 . S
C771 H794 0.950 . S
C772 C771 1.349 . S
C772 C784 1.349 1_545 S
C773 C771 1.327 . S
C773 C789 1.429 . S
C773 H795 0.950 . S
C774 H770 0.949 . S
C774 C782 1.574 . S
C774 C790 1.368 1_565 S
H775 C783 0.950 . S
H776 C781 0.950 . S
H777 C782 0.949 . S
H778 C784 0.950 . S
H779 C785 0.950 . S
H780 C786 0.949 . S
C781 H776 0.950 . S
C781 C783 1.327 . S
C781 C787 1.429 . S
C782 C774 1.574 . S
C782 H777 0.949 . S
C782 C788 1.368 1_565 S
C783 C767 1.349 . S
C783 H775 0.950 . S
C783 C781 1.327 . S
C784 C772 1.349 1_565 S
C784 H778 0.950 . S
C784 C785 1.327 . S
C785 H779 0.950 . S
C785 C784 1.327 . S
C785 C789 1.429 1_565 S
C786 C769 1.574 . S
C786 H780 0.949 . S
C786 C790 1.368 . S
C787 C768 1.429 1_545 S
C787 C781 1.429 . S
C787 C788 1.523 . S
C788 C769 1.368 . S
C788 C782 1.368 1_545 S
C788 C787 1.523 . S
C789 C773 1.429 . S
C789 C785 1.429 1_545 S
C789 C790 1.523 . S
C790 C774 1.368 1_545 S
C790 C786 1.368 . S
C790 C789 1.523 . S
H791 C766 0.950 . S
H792 C768 0.950 . S
H793 C769 0.949 . S
H794 C771 0.950 . S
H795 C773 0.950 . S
C796 C797 1.349 . S
C796 C798 1.327 . S
C796 H821 0.950 . S
C797 C796 1.349 . S
C797 C813 1.349 . S
C798 C796 1.327 . S
C798 C817 1.429 . S
C798 H822 0.950 . S
C799 C816 1.574 . S
C799 C818 1.368 . S
C799 H823 0.949 . S
H800 C804 0.949 . S
C801 C802 1.349 . S
C801 C803 1.327 . S
C801 H824 0.950 . S
C802 C801 1.349 . S
C802 C814 1.349 . S
C803 C801 1.327 . S
C803 C819 1.429 . S
C803 H825 0.950 . S
C804 H800 0.949 . S
C804 C812 1.574 . S
C804 C820 1.368 . S
H805 C813 0.950 . S
H806 C811 0.950 . S
H807 C812 0.949 . S
H808 C814 0.950 . S
H809 C815 0.950 . S
H810 C816 0.949 . S
C811 H806 0.950 . S
C811 C813 1.327 . S
C811 C817 1.429 . S
C812 C804 1.574 . S
C812 H807 0.949 . S
C812 C818 1.368 . S
C813 C797 1.349 . S
C813 H805 0.950 . S
C813 C811 1.327 . S
C814 C802 1.349 . S
C814 H808 0.950 . S
C814 C815 1.327 . S
C815 H809 0.950 . S
C815 C814 1.327 . S
C815 C819 1.429 . S
C816 C799 1.574 . S
C816 H810 0.949 . S
C816 C820 1.368 . S
C817 C798 1.429 . S
C817 C811 1.429 . S
C817 C818 1.523 . S
C818 C799 1.368 . S
C818 C812 1.368 . S
C818 C817 1.523 . S
C819 C803 1.429 . S
C819 C815 1.429 . S
C819 C820 1.523 . S
C820 C804 1.368 . S
C820 C816 1.368 . S
C820 C819 1.523 . S
H821 C796 0.950 . S
H822 C798 0.950 . S
H823 C799 0.949 . S
H824 C801 0.950 . S
H825 C803 0.950 . S
C826 C827 1.349 . S
C826 C828 1.327 . S
C826 H851 0.950 . S
C827 C826 1.349 . S
C827 C843 1.349 . S
C828 C826 1.327 . S
C828 C847 1.429 . S
C828 H852 0.950 . S
C829 C846 1.574 . S
C829 C848 1.368 . S
C829 H853 0.949 . S
H830 C834 0.949 . S
C831 C832 1.349 . S
C831 C833 1.327 . S
C831 H854 0.950 . S
C832 C831 1.349 . S
C832 C844 1.349 . S
C833 C831 1.327 . S
C833 C849 1.429 . S
C833 H855 0.950 . S
C834 H830 0.949 . S
C834 C842 1.574 . S
C834 C850 1.368 . S
H835 C843 0.950 . S
H836 C841 0.950 . S
H837 C842 0.949 . S
H838 C844 0.950 . S
H839 C845 0.950 . S
H840 C846 0.949 . S
C841 H836 0.950 . S
C841 C843 1.327 . S
C841 C847 1.429 . S
C842 C834 1.574 . S
C842 H837 0.949 . S
C842 C848 1.368 . S
C843 C827 1.349 . S
C843 H835 0.950 . S
C843 C841 1.327 . S
C844 C832 1.349 . S
C844 H838 0.950 . S
C844 C845 1.327 . S
C845 H839 0.950 . S
C845 C844 1.327 . S
C845 C849 1.429 . S
C846 C829 1.574 . S
C846 H840 0.949 . S
C846 C850 1.368 . S
C847 C828 1.429 . S
C847 C841 1.429 . S
C847 C848 1.523 . S
C848 C829 1.368 . S
C848 C842 1.368 . S
C848 C847 1.523 . S
C849 C833 1.429 . S
C849 C845 1.429 . S
C849 C850 1.523 . S
C850 C834 1.368 . S
C850 C846 1.368 . S
C850 C849 1.523 . S
H851 C826 0.950 . S
H852 C828 0.950 . S
H853 C829 0.949 . S
H854 C831 0.950 . S
H855 C833 0.950 . S
C856 C857 1.349 1_455 S
C856 C858 1.327 . S
C856 H881 0.950 . S
C857 C856 1.349 1_655 S
C857 C873 1.349 . S
C858 C856 1.327 . S
C858 C877 1.429 1_455 S
C858 H882 0.950 . S
C859 C876 1.574 . S
C859 C878 1.368 . S
C859 H883 0.949 . S
H860 C864 0.949 . S
C861 C862 1.349 . S
C861 C863 1.327 . S
C861 H884 0.950 . S
C862 C861 1.349 . S
C862 C874 1.364 . S
C863 C861 1.327 . S
C863 C879 1.429 . S
C863 H885 0.950 . S
C864 H860 0.949 . S
C864 C872 1.574 . S
C864 C880 1.368 1_455 S
H865 C873 0.950 . S
H866 C871 0.950 . S
H867 C872 0.949 . S
H868 C874 0.938 1_455 S
H869 C875 0.959 . S
H870 C876 0.949 . S
C871 H866 0.950 . S
C871 C873 1.327 . S
C871 C877 1.429 . S
C872 C864 1.574 . S
C872 H867 0.949 . S
C872 C878 1.368 1_455 S
C873 C857 1.349 . S
C873 H865 0.950 . S
C873 C871 1.327 . S
C874 C862 1.364 . S
C874 H868 0.938 1_655 S
C874 C875 1.325 1_655 S
C875 H869 0.959 . S
C875 C874 1.325 1_455 S
C875 C879 1.421 1_455 S
C876 C859 1.574 . S
C876 H870 0.949 . S
C876 C880 1.368 . S
C877 C858 1.429 1_655 S
C877 C871 1.429 . S
C877 C878 1.523 . S
C878 C859 1.368 . S
C878 C872 1.368 1_655 S
C878 C877 1.523 . S
C879 C863 1.429 . S
C879 C875 1.421 1_655 S
C879 C880 1.523 . S
C880 C864 1.368 1_655 S
C880 C876 1.368 . S
C880 C879 1.523 . S
H881 C856 0.950 . S
H882 C858 0.950 . S
H883 C859 0.949 . S
H884 C861 0.950 . S
H885 C863 0.950 . S
C886 C887 1.349 . S
C886 C888 1.327 . S
C886 H911 0.950 . S
C887 C886 1.349 . S
C887 C903 1.349 1_565 S
C888 C886 1.327 . S
C888 C907 1.429 . S
C888 H912 0.950 . S
C889 C906 1.574 . S
C889 C908 1.368 1_545 S
C889 H913 0.949 . S
H890 C894 0.949 . S
C891 C892 1.349 1_545 S
C891 C893 1.327 . S
C891 H914 0.950 . S
C892 C891 1.349 1_565 S
C892 C904 1.349 . S
C893 C891 1.327 . S
C893 C909 1.429 1_545 S
C893 H915 0.950 . S
C894 H890 0.949 . S
C894 C902 1.574 . S
C894 C910 1.368 . S
H895 C903 0.950 . S
H896 C901 0.950 . S
H897 C902 0.949 . S
H898 C904 0.950 . S
H899 C905 0.950 . S
H900 C906 0.949 . S
C901 H896 0.950 . S
C901 C903 1.327 . S
C901 C907 1.429 1_545 S
C902 C894 1.574 . S
C902 H897 0.949 . S
C902 C908 1.368 . S
C903 C887 1.349 1_545 S
C903 H895 0.950 . S
C903 C901 1.327 . S
C904 C892 1.349 . S
C904 H898 0.950 . S
C904 C905 1.327 . S
C905 H899 0.950 . S
C905 C904 1.327 . S
C905 C909 1.429 . S
C906 C889 1.574 . S
C906 H900 0.949 . S
C906 C910 1.368 1_545 S
C907 C888 1.429 . S
C907 C901 1.429 1_565 S
C907 C908 1.523 . S
C908 C889 1.368 1_565 S
C908 C902 1.368 . S
C908 C907 1.523 . S
C909 C893 1.429 1_565 S
C909 C905 1.429 . S
C909 C910 1.523 . S
C910 C894 1.368 . S
C910 C906 1.368 1_565 S
C910 C909 1.523 . S
H911 C886 0.950 . S
H912 C888 0.950 . S
H913 C889 0.949 . S
H914 C891 0.950 . S
H915 C893 0.950 . S
C916 C917 1.349 . S
C916 C918 1.327 . S
C916 H941 0.950 . S
C917 C916 1.349 . S
C917 C933 1.349 . S
C918 C916 1.327 . S
C918 C937 1.429 . S
C918 H942 0.950 . S
C919 C936 1.574 . S
C919 C938 1.368 . S
C919 H943 0.949 . S
H920 C924 0.949 . S
C921 C922 1.349 . S
C921 C923 1.327 . S
C921 H944 0.950 . S
C922 C921 1.349 . S
C922 C934 1.349 . S
C923 C921 1.327 . S
C923 C939 1.429 . S
C923 H945 0.950 . S
C924 H920 0.949 . S
C924 C932 1.574 . S
C924 C940 1.368 . S
H925 C933 0.950 . S
H926 C931 0.950 . S
H927 C932 0.949 . S
H928 C934 0.950 . S
H929 C935 0.950 . S
H930 C936 0.949 . S
C931 H926 0.950 . S
C931 C933 1.327 . S
C931 C937 1.429 . S
C932 C924 1.574 . S
C932 H927 0.949 . S
C932 C938 1.368 . S
C933 C917 1.349 . S
C933 H925 0.950 . S
C933 C931 1.327 . S
C934 C922 1.349 . S
C934 H928 0.950 . S
C934 C935 1.327 . S
C935 H929 0.950 . S
C935 C934 1.327 . S
C935 C939 1.429 . S
C936 C919 1.574 . S
C936 H930 0.949 . S
C936 C940 1.368 . S
C937 C918 1.429 . S
C937 C931 1.429 . S
C937 C938 1.523 . S
C938 C919 1.368 . S
C938 C932 1.368 . S
C938 C937 1.523 . S
C939 C923 1.429 . S
C939 C935 1.429 . S
C939 C940 1.523 . S
C940 C924 1.368 . S
C940 C936 1.368 . S
C940 C939 1.523 . S
H941 C916 0.950 . S
H942 C918 0.950 . S
H943 C919 0.949 . S
H944 C921 0.950 . S
H945 C923 0.950 . S
C946 C947 1.349 . S
C946 C948 1.327 . S
C946 H971 0.950 . S
C947 C946 1.349 . S
C947 C963 1.349 . S
C948 C946 1.327 . S
C948 C967 1.429 . S
C948 H972 0.950 . S
C949 C966 1.574 . S
C949 C968 1.368 . S
C949 H973 0.949 . S
H950 C954 0.949 . S
C951 C952 1.349 . S
C951 C953 1.327 . S
C951 H974 0.950 . S
C952 C951 1.349 . S
C952 C964 1.349 . S
C953 C951 1.327 . S
C953 C969 1.429 . S
C953 H975 0.950 . S
C954 H950 0.949 . S
C954 C962 1.574 . S
C954 C970 1.368 . S
H955 C963 0.950 . S
H956 C961 0.950 . S
H957 C962 0.949 . S
H958 C964 0.950 . S
H959 C965 0.950 . S
H960 C966 0.949 . S
C961 H956 0.950 . S
C961 C963 1.327 . S
C961 C967 1.429 . S
C962 C954 1.574 . S
C962 H957 0.949 . S
C962 C968 1.368 . S
C963 C947 1.349 . S
C963 H955 0.950 . S
C963 C961 1.327 . S
C964 C952 1.349 . S
C964 H958 0.950 . S
C964 C965 1.327 . S
C965 H959 0.950 . S
C965 C964 1.327 . S
C965 C969 1.429 . S
C966 C949 1.574 . S
C966 H960 0.949 . S
C966 C970 1.368 . S
C967 C948 1.429 . S
C967 C961 1.429 . S
C967 C968 1.523 . S
C968 C949 1.368 . S
C968 C962 1.368 . S
C968 C967 1.523 . S
C969 C953 1.429 . S
C969 C965 1.429 . S
C969 C970 1.523 . S
C970 C954 1.368 . S
C970 C966 1.368 . S
C970 C969 1.523 . S
H971 C946 0.950 . S
H972 C948 0.950 . S
H973 C949 0.949 . S
H974 C951 0.950 . S
H975 C953 0.950 . S
C257 C76 1.737 . S
C262 C105 1.833 1_545 S
C292 C145 1.837 . S
C287 C88 1.733 . S
C322 C185 1.836 . S
C317 C52 1.737 . S
C352 C225 1.834 1_455 S
C347 C64 1.738 . S
C382 C114 1.833 1_565 S
C377 C28 1.739 . S
C407 C40 1.737 . S
C412 C154 1.840 . S
C437 C4 1.737 . S
C442 C194 1.836 . S
C467 C16 1.738 . S
C472 C234 1.833 1_655 S
C502 C111 0.315 . S
C497 C69 0.366 . S
C532 C151 0.315 . S
C527 C81 0.367 . S
C562 C191 0.315 . S
C557 C93 0.366 . S
C587 C57 0.366 . S
C592 C231 0.315 . S
C617 C21 0.382 . S
C622 C102 0.318 . S
C652 C142 0.315 . S
C647 C33 0.385 . S
C682 C182 0.315 . S
C677 C45 0.382 . S
C707 C9 0.382 . S
C712 C222 0.314 . S
C737 C66 1.892 . S
C742 C115 2.064 . S
C767 C78 1.892 . S
C772 C155 2.068 . S
C802 C195 2.069 . S
C797 C90 1.892 . S
C832 C235 2.068 . S
C827 C54 1.891 . S
C857 C18 1.894 1_655 S
C862 C106 2.073 . S
C892 C146 2.069 . S
C887 C30 1.895 1_565 S
C922 C186 2.069 . S
C917 C42 1.895 . S
C947 C6 1.896 . S
C952 C226 2.069 . S
