# Generated by pormake.
# Topology sit, (3,6)-cn, num edge types: 1
# Building blocks:
#     Node 0, Type 0, BuildingBlock: INOVEN_clean_linker_0, # of connection points: 3
#     Node 1, Type 0, BuildingBlock: INOVEN_clean_linker_0, # of connection points: 3
#     Node 2, Type 0, BuildingBlock: INOVEN_clean_linker_0, # of connection points: 3
#     Node 3, Type 0, BuildingBlock: INOVEN_clean_linker_0, # of connection points: 3
#     Node 4, Type 1, BuildingBlock: MIDCAF_clean_sbu_0, # of connection points: 6
#     Node 5, Type 1, BuildingBlock: MIDCAF_clean_sbu_0, # of connection points: 6
#     Edge 6, Type (0, 1), BuildingBlock: TEMPAE_clean_linker_10, # of connection points: 2
#     Edge 7, Type (0, 1), BuildingBlock: TEMPAE_clean_linker_10, # of connection points: 2
#     Edge 8, Type (0, 1), BuildingBlock: TEMPAE_clean_linker_10, # of connection points: 2
#     Edge 9, Type (0, 1), BuildingBlock: TEMPAE_clean_linker_10, # of connection points: 2
#     Edge 10, Type (0, 1), BuildingBlock: TEMPAE_clean_linker_10, # of connection points: 2
#     Edge 11, Type (0, 1), BuildingBlock: TEMPAE_clean_linker_10, # of connection points: 2
#     Edge 12, Type (0, 1), BuildingBlock: TEMPAE_clean_linker_10, # of connection points: 2
#     Edge 13, Type (0, 1), BuildingBlock: TEMPAE_clean_linker_10, # of connection points: 2
#     Edge 14, Type (0, 1), BuildingBlock: TEMPAE_clean_linker_10, # of connection points: 2
#     Edge 15, Type (0, 1), BuildingBlock: TEMPAE_clean_linker_10, # of connection points: 2
#     Edge 16, Type (0, 1), BuildingBlock: TEMPAE_clean_linker_10, # of connection points: 2
#     Edge 17, Type (0, 1), BuildingBlock: TEMPAE_clean_linker_10, # of connection points: 2
# Relax obj value: 0.072
# Max RMSD: 0.181
# Mean RMSD: 0.108
data_MOF--net-sit--node1-MIDCAF_clean_sbu_0--node2-INOVEN_clean_linker_0--edge1-TEMPAE_clean_linker_10
_symmetry_space_group_name_H-M    P1
_symmetry_Int_Tables_number       1
_symmetry_cell_setting            triclinic
loop_
_symmetry_equiv_pos_as_xyz
'x, y, z'
_cell_length_a     21.688606
_cell_length_b     33.067622
_cell_length_c     37.630276
_cell_angle_alpha  89.920441
_cell_angle_beta   86.692999
_cell_angle_gamma 83.338501
loop_
_atom_site_label
_atom_site_type_symbol
_atom_site_fract_x
_atom_site_fract_y
_atom_site_fract_z
_atom_type_partial_charge
H0 H -0.00107 0.28199 0.01414 0.0
H1 H 0.07407 0.39478 0.99239 0.0
H2 H 0.18456 0.29689 0.04225 0.0
N3 N 0.09379 0.24609 0.04654 0.0
N4 N 0.13904 0.2311 0.06313 0.0
C5 C 0.03636 0.30091 0.01529 0.0
C6 C 0.02979 0.34042 0.00118 0.0
C7 C 0.09137 0.2852 0.03067 0.0
C8 C 0.14123 0.30903 0.03122 0.0
C9 C 0.13497 0.34872 0.01736 0.0
C10 C 0.0788 0.36424 0.00319 0.0
H11 H 0.88804 0.74454 0.04781 0.0
H12 H 0.01265 0.65274 0.99142 0.0
H13 H 0.07875 0.76399 0.0229 0.0
N14 N 0.97103 0.79589 0.05712 0.0
N15 N 0.00859 0.82181 0.05501 0.0
C16 C 0.93389 0.73388 0.03615 0.0
C17 C 0.94478 0.69558 0.01935 0.0
C18 C -0.01789 0.7586 0.03783 0.0
C19 C 0.04142 0.74496 0.02208 0.0
C20 C 0.05257 0.70678 0.00518 0.0
C21 C 0.0043 0.6822 0.00454 0.0
H22 H 0.48251 0.81199 0.52321 0.0
H23 H 0.58875 0.91462 0.51023 0.0
H24 H 0.67454 0.80103 0.54728 0.0
N25 N 0.56958 0.76388 0.55362 0.0
N26 N 0.61306 0.74468 0.56914 0.0
C27 C 0.52459 0.82622 0.52531 0.0
C28 C 0.52823 0.86673 0.51381 0.0
C29 C 0.57612 0.80302 0.53909 0.0
C30 C 0.63314 0.81938 0.5391 0.0
C31 C 0.63747 0.85928 0.52785 0.0
C32 C 0.58436 0.8834 0.51755 0.0
H33 H 0.40058 0.26214 0.53263 0.0
H34 H 0.50317 0.15296 0.48969 0.0
H35 H 0.59918 0.24259 0.53992 0.0
N36 N 0.49554 0.29416 0.55699 0.0
N37 N 0.53961 0.31526 0.55735 0.0
C38 C 0.44458 0.24338 0.52746 0.0
C39 C 0.44623 0.20571 0.51043 0.0
C40 C 0.49964 0.25704 0.53777 0.0
C41 C 0.55677 0.23242 0.53123 0.0
C42 C 0.55854 0.19412 0.51453 0.0
C43 C 0.50277 0.1814 0.50408 0.0
Zn44 Zn 0.0135 0.09729 0.34044 0.0
Zn45 Zn 0.08047 0.94949 0.34176 0.0
Zn46 Zn 0.05303 0.0236 0.34123 0.0
C47 C 0.05127 0.96474 0.27342 0.0
C48 C -0.01428 0.96239 0.39181 0.0
O49 O 0.12402 0.05255 0.36798 0.0
O50 O 0.07044 0.1132 0.37594 0.0
C51 C 0.04653 0.07933 0.27063 0.0
O52 O 0.05336 1.00118 0.28516 0.0
O53 O 0.05576 0.93516 0.29467 0.0
O54 O 0.03004 0.93504 0.38444 0.0
O55 O -0.01712 0.99673 0.37544 0.0
O56 O 0.0325 0.10982 0.29077 0.0
O57 O 0.05297 0.04325 0.28409 0.0
O58 O 0.96182 0.03774 0.37223 0.0
O59 O 0.92516 0.09962 0.35582 0.0
C60 C 0.91807 0.06774 0.37314 0.0
O61 O 0.14378 1.00962 0.36613 0.0
O62 O 0.1697 0.94636 0.3476 0.0
C63 C 0.11784 0.08861 0.38158 0.0
C64 C 0.18323 0.97728 0.36364 0.0
Zn65 Zn 0.57141 0.5984 0.84166 0.0
Zn66 Zn 0.54267 0.44802 0.84055 0.0
Zn67 Zn 0.55489 0.52381 0.84374 0.0
C68 C 0.55412 0.46872 0.77129 0.0
C69 C 0.44122 0.48163 0.88144 0.0
O70 O 0.63771 0.53336 0.87381 0.0
O71 O 0.65022 0.59803 0.86426 0.0
C72 C 0.56248 0.58062 0.77237 0.0
O73 O 0.55731 0.50347 0.78636 0.0
O74 O 0.54629 0.43785 0.78986 0.0
O75 O 0.46294 0.448 0.86748 0.0
O76 O 0.4686 0.51377 0.87558 0.0
O77 O 0.56959 0.61073 0.79149 0.0
O78 O 0.55806 0.54542 0.78665 0.0
O79 O 0.47269 0.55651 0.87324 0.0
O80 O 0.49584 0.61984 0.87 0.0
C81 C 0.45919 0.59476 0.88043 0.0
O82 O 0.63404 0.49077 0.87049 0.0
O83 O 0.6174 0.42645 0.86447 0.0
C84 C 0.66738 0.56439 0.87842 0.0
C85 C 0.65002 0.45247 0.87547 0.0
C86 C 0.17753 0.18567 0.1093 0.0
C87 C 0.138 0.19363 0.08154 0.0
C88 C 0.16758 0.15523 0.13428 0.0
C89 C 0.11759 0.13172 0.1307 0.0
C90 C 0.08371 0.13557 0.09961 0.0
C91 C 0.09337 0.16715 0.07561 0.0
C92 C 0.20562 0.15176 0.16672 0.0
C93 C 0.03312 0.10909 0.09355 0.0
C94 C 0.09719 0.0614 0.20971 0.0
C95 C 0.05608 0.08707 0.2321 0.0
C96 C 0.11384 0.07365 0.1749 0.0
C97 C 0.09057 0.11297 0.16312 0.0
C98 C 0.04567 0.13752 0.18489 0.0
C99 C 0.02842 0.12394 0.21873 0.0
C100 C 0.15869 0.04531 0.15184 0.0
C101 C 0.019 0.17963 0.1737 0.0
H102 H 0.21252 0.20586 0.11333 0.0
H103 H 0.06385 0.17239 0.0534 0.0
H104 H 0.17646 0.16448 0.19021 0.0
H105 H 0.22118 0.11938 0.17233 0.0
H106 H 0.24712 0.1685 0.16348 0.0
H107 H 0.02357 0.10779 0.06491 0.0
H108 H 0.04591 0.07769 0.10327 0.0
H109 H -0.01041 0.12179 0.10848 0.0
H110 H 0.11849 0.03272 0.21981 0.0
H111 H -0.00458 0.14351 0.23563 0.0
H112 H 0.20698 0.04968 0.1578 0.0
H113 H 0.15307 0.05108 0.12308 0.0
H114 H 0.15222 1.01304 0.15757 0.0
H115 H 0.0569 0.19927 0.16936 0.0
H116 H -0.01564 0.19459 0.19387 0.0
H117 H -0.00396 0.178 0.14827 0.0
C118 C 0.04797 0.88315 0.07482 0.0
C119 C 0.00168 0.857 0.07718 0.0
C120 C 0.05175 0.91232 0.10148 0.0
C121 C 0.00862 0.91466 0.13129 0.0
C122 C 0.95723 0.89182 0.13141 0.0
C123 C 0.95438 0.86307 0.10434 0.0
C124 C 0.10568 0.9374 0.09966 0.0
C125 C 0.90923 0.89424 0.16222 0.0
C126 C 0.07155 0.91728 0.22242 0.0
C127 C 0.04613 0.95567 0.23535 0.0
C128 C 0.06171 0.9046 0.18807 0.0
C129 C 0.02596 0.93119 0.16561 0.0
C130 C 0.0035 0.97116 0.17756 0.0
C131 C 0.01314 0.98279 0.21266 0.0
C132 C 0.08732 0.86181 0.17656 0.0
C133 C 0.96699 1.00105 0.15422 0.0
H134 H 0.08384 0.87874 0.05345 0.0
H135 H 0.91767 0.84343 0.10595 0.0
H136 H 0.09071 0.96886 0.10945 0.0
H137 H 0.14206 0.92359 0.117 0.0
H138 H 0.12668 0.93875 0.07211 0.0
H139 H 0.86728 0.88003 0.15568 0.0
H140 H 0.92969 0.87812 0.18544 0.0
H141 H 0.89493 0.92639 0.17021 0.0
H142 H 0.09798 0.89642 0.23968 0.0
H143 H -0.00711 1.01237 0.22265 0.0
H144 H 0.11658 0.86254 0.15146 0.0
H145 H 0.04849 0.84391 0.17141 0.0
H146 H 0.11584 0.84558 0.19692 0.0
H147 H -0.01836 0.9963 0.12565 0.0
H148 H 0.97226 0.03293 0.16168 0.0
H149 H 0.91694 0.99699 0.15776 0.0
C150 C 0.64936 0.69635 0.61313 0.0
C151 C 0.60773 0.70736 0.58699 0.0
C152 C 0.63966 0.66489 0.63697 0.0
C153 C 0.58823 0.64261 0.63341 0.0
C154 C 0.55054 0.65031 0.60402 0.0
C155 C 0.55962 0.68348 0.58156 0.0
C156 C 0.68068 0.6586 0.66812 0.0
C157 C 0.49824 0.62545 0.59743 0.0
C158 C 0.59296 0.56572 0.70784 0.0
C159 C 0.55593 0.58838 0.73417 0.0
C160 C 0.59708 0.5802 0.67265 0.0
C161 C 0.56677 0.61924 0.66467 0.0
C162 C 0.52504 0.64019 0.69059 0.0
C163 C 0.51951 0.6241 0.72479 0.0
C164 C 0.63706 0.55504 0.64483 0.0
C165 C 0.49122 0.68179 0.68358 0.0
H166 H 0.68673 0.71482 0.61673 0.0
H167 H 0.52822 0.69131 0.56059 0.0
H168 H 0.65256 0.66606 0.69335 0.0
H169 H 0.70086 0.62634 0.66951 0.0
H170 H 0.71941 0.67789 0.66641 0.0
H171 H 0.49406 0.62146 0.56839 0.0
H172 H 0.50508 0.59498 0.60998 0.0
H173 H 0.45365 0.64179 0.60836 0.0
H174 H 0.62139 0.53814 0.71508 0.0
H175 H 0.49024 0.6413 0.7452 0.0
H176 H 0.68494 0.5638 0.64386 0.0
H177 H 0.61864 0.56004 0.61805 0.0
H178 H 0.63979 0.52209 0.65123 0.0
H179 H 0.52535 0.70376 0.67753 0.0
H180 H 0.46011 0.69368 0.70664 0.0
H181 H 0.46272 0.68052 0.66021 0.0
C182 C 0.57979 0.37785 0.57449 0.0
C183 C 0.53596 0.35021 0.57967 0.0
C184 C 0.58311 0.40921 0.5993 0.0
C185 C 0.54339 0.41157 0.63062 0.0
C186 C 0.496 0.3855 0.63454 0.0
C187 C 0.49245 0.35543 0.60883 0.0
C188 C 0.6315 0.43815 0.59312 0.0
C189 C 0.45266 0.3867 0.66754 0.0
C190 C 0.60261 0.4281 0.72052 0.0
C191 C 0.56324 0.46243 0.7326 0.0
C192 C 0.60064 0.41326 0.68594 0.0
C193 C 0.55913 0.43397 0.66249 0.0
C194 C 0.52472 0.47151 0.67324 0.0
C195 C 0.52587 0.48484 0.7087 0.0
C196 C 0.63792 0.37292 0.67608 0.0
C197 C 0.48317 0.49607 0.64839 0.0
H198 H 0.6127 0.37407 0.55162 0.0
H199 H 0.45819 0.33423 0.61288 0.0
H200 H 0.61238 0.46952 0.60144 0.0
H201 H 0.67181 0.42876 0.6093 0.0
H202 H 0.64849 0.43848 0.56471 0.0
H203 H 0.41603 0.3661 0.66543 0.0
H204 H 0.47967 0.37745 0.69099 0.0
H205 H 0.42978 0.41807 0.67254 0.0
H206 H 0.6317 0.41095 0.73914 0.0
H207 H 0.49509 0.5113 0.71813 0.0
H208 H 0.66492 0.37525 0.65041 0.0
H209 H 0.60589 0.3495 0.67283 0.0
H210 H 0.67078 0.3622 0.69662 0.0
H211 H 0.5008 0.49171 0.62022 0.0
H212 H 0.47914 0.52902 0.65512 0.0
H213 H 0.43589 0.48633 0.65113 0.0
C214 C 0.17947 0.41507 0.01941 0.0
C215 C 0.18824 0.37292 0.01287 0.0
C216 C 0.22162 0.44054 0.00476 0.0
C217 C 0.27362 0.42326 0.98332 0.0
C218 C 0.28629 0.38033 0.98011 0.0
C219 C 0.24333 0.35562 0.995 0.0
C220 C 0.20756 0.48604 0.00962 0.0
C221 C 0.34199 0.36063 0.95797 0.0
C222 C 0.33273 0.47217 0.89949 0.0
C223 C 0.39119 0.48053 0.90905 0.0
C224 C 0.29119 0.45697 0.92462 0.0
C225 C 0.30946 0.44938 0.95984 0.0
C226 C 0.36638 0.46122 0.97027 0.0
C227 C 0.40696 0.4764 0.94454 0.0
C228 C 0.23046 0.44525 0.91252 0.0
C229 C 0.38716 0.45442 0.0076 0.0
H230 H 0.13723 0.42842 0.03377 0.0
H231 H 0.25023 0.32311 0.98984 0.0
H232 H 0.25007 0.49961 0.01594 0.0
H233 H 0.19134 0.49992 0.98445 0.0
H234 H 0.17094 0.4942 0.03111 0.0
H235 H 0.34893 0.32707 0.96144 0.0
H236 H 0.33551 0.36721 0.92941 0.0
H237 H 0.38481 0.37332 0.9651 0.0
H238 H 0.32142 0.47466 0.87181 0.0
H239 H 0.45293 0.4822 0.95161 0.0
H240 H 0.19149 0.45654 0.93166 0.0
H241 H 0.23268 0.41157 0.91144 0.0
H242 H 0.22007 0.45748 0.88573 0.0
H243 H 0.34749 0.46021 0.02758 0.0
H244 H 0.42321 0.47426 0.01371 0.0
H245 H 0.40741 0.42226 0.01033 0.0
C246 C 0.90311 0.62835 0.01747 0.0
C247 C 0.89392 0.67074 0.01298 0.0
C248 C 0.8649 0.60298 0.0016 0.0
C249 C 0.81658 0.62058 0.98087 0.0
C250 C 0.80325 0.66355 0.97939 0.0
C251 C 0.84213 0.68817 -0.00443 0.0
C252 C 0.87941 0.55741 0.00464 0.0
C253 C 0.75145 0.68355 0.95795 0.0
C254 C 0.77275 0.57388 0.89589 0.0
C255 C 0.71283 0.5648 0.90564 0.0
C256 C 0.80972 0.58858 0.92118 0.0
C257 C 0.78535 0.59493 0.95679 0.0
C258 C 0.72688 0.58242 0.96728 0.0
C259 C 0.69093 0.56785 0.94139 0.0
C260 C 0.87223 0.60114 0.90897 0.0
C261 C 0.69964 0.58789 0.005 0.0
H262 H 0.94283 0.61491 0.03137 0.0
H263 H 0.8351 0.72088 0.99195 0.0
H264 H 0.83624 0.54319 0.01092 0.0
H265 H 0.90002 0.54466 0.97879 0.0
H266 H 0.91271 0.54875 0.02546 0.0
H267 H 0.74329 0.717 0.96242 0.0
H268 H 0.76338 0.67779 0.92918 0.0
H269 H 0.70755 0.67041 0.9648 0.0
H270 H 0.78881 0.57233 0.86804 0.0
H271 H 0.64381 0.56165 0.94865 0.0
H272 H 0.90811 0.58965 0.92751 0.0
H273 H 0.86947 0.63487 0.90887 0.0
H274 H 0.8875 0.58972 0.88175 0.0
H275 H 0.73593 0.58127 0.02447 0.0
H276 H 0.66246 0.56793 0.01068 0.0
H277 H 0.67903 0.61997 0.00907 0.0
C278 C 0.9138 0.34977 -0.00291 0.0
C279 C 0.973 0.35686 0.98327 0.0
C280 C 0.86015 0.366 0.98051 0.0
C281 C 0.86596 0.39032 0.94978 0.0
C282 C 0.9254 0.39794 0.93593 0.0
C283 C -0.02182 0.38059 0.95248 0.0
C284 C 0.79724 0.35725 -0.00413 0.0
C285 C 0.93328 0.42431 0.90354 0.0
C286 C 0.73849 0.39961 0.8848 0.0
C287 C 0.70618 0.43768 0.894 0.0
C288 C 0.79011 0.38364 0.90311 0.0
C289 C 0.81009 0.4065 0.93112 0.0
C290 C 0.7774 0.44487 0.94068 0.0
C291 C 0.72533 0.45977 0.92213 0.0
C292 C 0.82317 0.3423 0.89253 0.0
C293 C 0.79781 0.47057 0.96995 0.0
H294 H 0.90933 0.33194 0.02109 0.0
H295 H 0.02373 0.3855 0.94108 0.0
H296 H 0.76822 0.38623 0.00321 0.0
H297 H 0.77277 0.34194 0.97558 0.0
H298 H 0.8007 0.33763 0.01983 0.0
H299 H -0.0173 0.42863 0.89704 0.0
H300 H 0.91484 0.41036 0.88017 0.0
H301 H 0.90622 0.45465 0.908 0.0
H302 H 0.72329 0.38222 0.86321 0.0
H303 H 0.69835 0.48795 0.93035 0.0
H304 H 0.82441 0.32174 0.91587 0.0
H305 H 0.87204 0.34512 0.88341 0.0
H306 H 0.80042 0.32792 0.87089 0.0
H307 H 0.81258 0.45175 0.99305 0.0
H308 H 0.76035 0.49456 0.97935 0.0
H309 H 0.83828 0.48562 0.95963 0.0
C310 C 0.11673 0.6724 0.95428 0.0
C311 C 0.11388 0.6922 0.9874 0.0
C312 C 0.17355 0.65567 0.93802 0.0
C313 C 0.22909 0.65962 0.9549 0.0
C314 C 0.22688 0.68031 0.98796 0.0
C315 C 0.16912 0.69627 0.00393 0.0
C316 C 0.1741 0.63366 0.90282 0.0
C317 C 0.28546 0.68522 0.00651 0.0
C318 C 0.37121 0.58722 0.92509 0.0
C319 C 0.40057 0.6108 0.89998 0.0
C320 C 0.31555 0.60275 0.94363 0.0
C321 C 0.28954 0.64319 0.93717 0.0
C322 C 0.31997 0.66759 0.91252 0.0
C323 C 0.375 0.65104 0.89413 0.0
C324 C 0.28409 0.5756 0.96945 0.0
C325 C 0.29399 0.711 0.90518 0.0
H326 H 0.07426 0.66987 0.94102 0.0
H327 H 0.16709 0.71119 0.02967 0.0
H328 H 0.2012 0.64915 0.88212 0.0
H329 H 0.19723 0.6021 0.9051 0.0
H330 H 0.12654 0.63232 0.89372 0.0
H331 H 0.27579 0.70239 0.03196 0.0
H332 H 0.31035 0.65485 0.01212 0.0
H333 H 0.31718 0.70145 0.98893 0.0
H334 H 0.39251 0.55708 0.93081 0.0
H335 H 0.3978 0.6696 0.87484 0.0
H336 H 0.24233 0.56611 0.95759 0.0
H337 H 0.26834 0.59206 0.99461 0.0
H338 H 0.31519 0.5478 0.97583 0.0
H339 H 0.24803 0.7115 0.89359 0.0
H340 H 0.32505 0.72648 0.88651 0.0
H341 H 0.28671 0.7287 0.9304 0.0
C342 C 0.71163 0.91142 0.53188 0.0
C343 C 0.69856 0.87352 0.51961 0.0
C344 C 0.76265 0.9294 0.51704 0.0
C345 C 0.80013 0.90917 0.4889 0.0
C346 C 0.78908 0.86979 0.47804 0.0
C347 C 0.73874 0.85227 0.49385 0.0
C348 C 0.77528 0.97023 0.53099 0.0
C349 C 0.82755 0.84734 0.44788 0.0
C350 C 0.87509 0.965 0.41361 0.0
C351 C 0.93798 0.95456 0.41932 0.0
C352 C 0.82913 0.95301 0.43774 0.0
C353 C 0.84701 0.93007 0.46809 0.0
C354 C 0.91048 0.92237 0.47533 0.0
C355 C 0.95545 0.93421 0.45048 0.0
C356 C 0.76176 0.96244 0.42937 0.0
C357 C 0.93086 0.89995 0.50837 0.0
H358 H 0.68047 0.92762 0.55201 0.0
H359 H 0.72795 0.8232 0.48409 0.0
H360 H 0.79348 0.98946 0.5096 0.0
H361 H 0.73286 0.98711 0.54423 0.0
H362 H 0.81109 0.96529 0.55094 0.0
H363 H 0.81452 0.81624 0.44382 0.0
H364 H 0.82121 0.86467 0.42281 0.0
H365 H 0.87765 0.8448 0.45309 0.0
H366 H 0.86187 0.98061 0.38937 0.0
H367 H 0.00439 0.92685 0.45505 0.0
H368 H 0.73263 0.97256 0.45362 0.0
H369 H 0.74476 0.93439 0.41944 0.0
H370 H 0.75522 0.98644 0.40878 0.0
H371 H 0.90312 0.91315 0.53216 0.0
H372 H -0.01902 0.9011 0.51238 0.0
H373 H 0.92254 0.86757 0.50636 0.0
C374 C 0.36685 0.15749 0.51296 0.0
C375 C 0.38988 0.19155 0.49747 0.0
C376 C 0.31972 0.13928 0.49744 0.0
C377 C 0.29698 0.15483 0.465 0.0
C378 C 0.31895 0.19017 0.44995 0.0
C379 C 0.36508 0.20831 0.46657 0.0
C380 C 0.29722 0.10244 0.5153 0.0
C381 C 0.29533 0.20798 0.41564 0.0
C382 C 0.22753 0.08899 0.39893 0.0
C383 C 0.16409 0.10213 0.40473 0.0
C384 C 0.27135 0.10427 0.41978 0.0
C385 C 0.25105 0.13418 0.44617 0.0
C386 C 0.18688 0.14655 0.45278 0.0
C387 C 0.14419 0.1304 0.43195 0.0
C388 C 0.33936 0.08915 0.4131 0.0
C389 C 0.16348 0.17743 0.48141 0.0
H390 H 0.38691 0.14446 0.53675 0.0
H391 H 0.38394 0.2344 0.45453 0.0
H392 H 0.25006 0.09716 0.50787 0.0
H393 H 0.33029 0.07535 0.50762 0.0
H394 H 0.29665 0.10549 0.54472 0.0
H395 H 0.31573 0.23631 0.40814 0.0
H396 H 0.30684 0.18542 0.39375 0.0
H397 H 0.24396 0.21488 0.41811 0.0
H398 H 0.24294 0.06748 0.37764 0.0
H399 H 0.09497 0.14031 0.43672 0.0
H400 H 0.35966 0.0788 0.43843 0.0
H401 H 0.36476 0.11439 0.4028 0.0
H402 H 0.34701 0.06354 0.39366 0.0
H403 H 0.18156 0.16724 0.50734 0.0
H404 H 0.11189 0.18235 0.48432 0.0
H405 H 0.18096 0.207 0.47504 0.0
C406 C 0.489 0.92109 0.47052 0.0
C407 C 0.47632 0.89061 0.49531 0.0
C408 C 0.44194 0.94248 0.4517 0.0
C409 C 0.3812 0.93118 0.45535 0.0
C410 C 0.36727 0.90099 0.48031 0.0
C411 C 0.41449 0.88202 0.50074 0.0
C412 C 0.45799 0.97603 0.42671 0.0
C413 C 0.30327 0.88714 0.4841 0.0
C414 C 0.24106 0.99168 0.41683 0.0
C415 C 0.23975 0.97225 0.38391 0.0
C416 C 0.289 0.98032 0.43965 0.0
C417 C 0.33446 0.94732 0.43005 0.0
C418 C 0.33414 0.9283 0.39642 0.0
C419 C 0.28754 0.94159 0.3735 0.0
C420 C 0.28938 1.00251 0.47455 0.0
C421 C 0.38069 0.89224 0.38545 0.0
H422 H 0.53605 0.92777 0.46446 0.0
H423 H 0.40277 0.85973 0.5203 0.0
H424 H 0.46028 0.96498 0.39881 0.0
H425 H 0.42163 1.00257 0.42917 0.0
H426 H 0.50354 0.98638 0.43202 0.0
H427 H 0.29979 0.86358 0.50496 0.0
H428 H 0.26784 0.91333 0.4908 0.0
H429 H 0.29164 0.87438 0.45838 0.0
H430 H 0.20295 1.01418 0.42564 0.0
H431 H 0.28637 0.92622 0.34815 0.0
H432 H 0.33727 1.00865 0.47977 0.0
H433 H 0.27303 0.98342 0.49658 0.0
H434 H 0.25844 0.03173 0.47486 0.0
H435 H 0.42863 0.90081 0.38512 0.0
H436 H 0.37292 0.8803 0.35869 0.0
H437 H 0.3777 0.86735 0.40509 0.0
C438 C 0.61987 0.12536 0.50587 0.0
C439 C 0.61793 0.16803 0.50539 0.0
C440 C 0.66987 0.10038 0.48929 0.0
C441 C 0.71999 0.11845 0.47281 0.0
C442 C 0.72159 0.16104 0.47583 0.0
C443 C 0.67021 0.18541 0.49176 0.0
C444 C 0.66605 0.05522 0.4868 0.0
C445 C 0.77537 0.18133 0.45964 0.0
C446 C 0.8717 0.06313 0.4345 0.0
C447 C 0.86351 0.06839 0.39808 0.0
C448 C 0.82334 0.07625 0.45974 0.0
C449 C 0.76589 0.09455 0.44792 0.0
C450 C 0.75558 0.09537 0.41108 0.0
C451 C 0.80499 0.08287 0.38653 0.0
C452 C 0.83609 0.07422 0.49871 0.0
C453 C 0.69403 0.11289 0.39744 0.0
H454 H 0.58055 0.11148 0.51746 0.0
H455 H 0.66945 0.21823 0.49131 0.0
H456 H 0.6458 0.04846 0.46136 0.0
H457 H 0.71266 0.03764 0.48704 0.0
H458 H 0.63592 0.04462 0.50895 0.0
H459 H 0.77368 0.21347 0.46855 0.0
H460 H 0.82026 0.16453 0.46672 0.0
H461 H 0.77423 0.18089 0.43019 0.0
H462 H 0.91733 0.05207 0.44331 0.0
H463 H 0.79897 0.08671 0.35826 0.0
H464 H 0.79404 0.06874 0.51538 0.0
H465 H 0.85039 0.10375 0.5071 0.0
H466 H 0.87424 0.04987 0.50392 0.0
H467 H 0.65506 0.10065 0.41271 0.0
H468 H 0.69091 0.10605 0.36874 0.0
H469 H 0.68803 0.14645 0.40106 0.0
loop_
_geom_bond_atom_site_label_1
_geom_bond_atom_site_label_2
_geom_bond_distance
_geom_bond_site_symmetry_2
_ccdc_geom_bond_type
H0 C5 0.929 . S
H1 C10 0.931 . S
H2 C8 0.930 . S
N3 N4 1.234 . S
N3 C7 1.453 . S
N4 N3 1.234 . S
C5 H0 0.929 . S
C5 C6 1.373 1_554 S
C5 C7 1.368 . S
C6 C5 1.373 1_556 S
C6 C10 1.397 . S
C7 N3 1.453 . S
C7 C5 1.368 . S
C7 C8 1.373 . S
C8 H2 0.930 . S
C8 C7 1.373 . S
C8 C9 1.371 1_554 S
C9 C8 1.371 1_556 S
C9 C10 1.383 . S
C10 H1 0.931 . S
C10 C6 1.397 . S
C10 C9 1.383 . S
H11 C16 0.929 . S
H12 C21 0.931 . S
H13 C19 0.930 . S
N14 N15 1.234 1_655 S
N14 C18 1.453 . S
N15 N14 1.234 1_455 S
C16 H11 0.929 . S
C16 C17 1.373 1_554 S
C16 C18 1.368 . S
C17 C16 1.373 1_556 S
C17 C21 1.397 1_655 S
C18 N14 1.453 . S
C18 C16 1.368 . S
C18 C19 1.373 1_655 S
C19 H13 0.930 . S
C19 C18 1.373 1_455 S
C19 C20 1.366 1_554 S
C20 C19 1.366 1_556 S
C20 C21 1.386 . S
C21 H12 0.931 . S
C21 C17 1.397 1_455 S
C21 C20 1.386 . S
H22 C27 0.929 . S
H23 C32 0.931 . S
H24 C30 0.930 . S
N25 N26 1.234 . S
N25 C29 1.453 . S
N26 N25 1.234 . S
C27 H22 0.929 . S
C27 C28 1.373 . S
C27 C29 1.368 . S
C28 C27 1.373 . S
C28 C32 1.397 . S
C29 N25 1.453 . S
C29 C27 1.368 . S
C29 C30 1.373 . S
C30 H24 0.930 . S
C30 C29 1.373 . S
C30 C31 1.371 . S
C31 C30 1.371 . S
C31 C32 1.383 . S
C32 H23 0.931 . S
C32 C28 1.397 . S
C32 C31 1.383 . S
H33 C38 0.929 . S
H34 C43 0.931 . S
H35 C41 0.930 . S
N36 N37 1.234 . S
N36 C40 1.453 . S
N37 N36 1.234 . S
C38 H33 0.929 . S
C38 C39 1.373 . S
C38 C40 1.368 . S
C39 C38 1.373 . S
C39 C43 1.397 . S
C40 N36 1.453 . S
C40 C38 1.368 . S
C40 C41 1.373 . S
C41 H35 0.930 . S
C41 C40 1.373 . S
C41 C42 1.371 . S
C42 C41 1.371 . S
C42 C43 1.383 . S
C43 H34 0.931 . S
C43 C39 1.397 . S
C43 C42 1.383 . S
Zn44 O50 1.920 . S
Zn44 O56 1.898 . S
Zn44 O59 1.905 1_455 S
Zn45 O53 1.905 . S
Zn45 O54 1.898 . S
Zn45 O62 1.920 . S
Zn46 O49 2.080 . S
Zn46 O52 2.114 1_545 S
Zn46 O55 2.120 1_545 S
Zn46 O57 2.120 . S
Zn46 O58 2.114 1_455 S
Zn46 O61 2.080 1_545 S
C47 O52 1.166 . S
C47 O53 1.182 . S
C48 O54 1.167 . S
C48 O55 1.299 . S
O49 Zn46 2.080 . S
O49 C63 1.305 . S
O50 Zn44 1.920 . S
O50 C63 1.234 . S
C51 O56 1.167 . S
C51 O57 1.299 . S
O52 Zn46 2.114 1_565 S
O52 C47 1.166 . S
O53 Zn45 1.905 . S
O53 C47 1.182 . S
O54 Zn45 1.898 . S
O54 C48 1.167 . S
O55 Zn46 2.120 1_565 S
O55 C48 1.299 . S
O56 Zn44 1.898 . S
O56 C51 1.167 . S
O57 Zn46 2.120 . S
O57 C51 1.299 . S
O58 Zn46 2.114 1_655 S
O58 C60 1.166 . S
O59 Zn44 1.905 1_655 S
O59 C60 1.182 . S
C60 O58 1.166 . S
C60 O59 1.182 . S
O61 Zn46 2.080 1_565 S
O61 C64 1.305 . S
O62 Zn45 1.920 . S
O62 C64 1.234 . S
C63 O49 1.305 . S
C63 O50 1.234 . S
C64 O61 1.305 . S
C64 O62 1.234 . S
Zn65 O71 1.920 . S
Zn65 O77 1.898 . S
Zn65 O80 1.905 . S
Zn66 O74 1.905 . S
Zn66 O75 1.898 . S
Zn66 O83 1.920 . S
Zn67 O70 2.080 . S
Zn67 O73 2.114 . S
Zn67 O76 2.120 . S
Zn67 O78 2.120 . S
Zn67 O79 2.114 . S
Zn67 O82 2.080 . S
C68 O73 1.166 . S
C68 O74 1.182 . S
C69 O75 1.167 . S
C69 O76 1.299 . S
O70 Zn67 2.080 . S
O70 C84 1.305 . S
O71 Zn65 1.920 . S
O71 C84 1.234 . S
C72 O77 1.167 . S
C72 O78 1.299 . S
O73 Zn67 2.114 . S
O73 C68 1.166 . S
O74 Zn66 1.905 . S
O74 C68 1.182 . S
O75 Zn66 1.898 . S
O75 C69 1.167 . S
O76 Zn67 2.120 . S
O76 C69 1.299 . S
O77 Zn65 1.898 . S
O77 C72 1.167 . S
O78 Zn67 2.120 . S
O78 C72 1.299 . S
O79 Zn67 2.114 . S
O79 C81 1.166 . S
O80 Zn65 1.905 . S
O80 C81 1.182 . S
C81 O79 1.166 . S
C81 O80 1.182 . S
O82 Zn67 2.080 . S
O82 C85 1.305 . S
O83 Zn66 1.920 . S
O83 C85 1.234 . S
C84 O70 1.305 . S
C84 O71 1.234 . S
C85 O82 1.305 . S
C85 O83 1.234 . S
C86 C87 1.391 . S
C86 C88 1.394 . S
C86 H102 0.931 . S
C87 C86 1.391 . S
C87 C91 1.376 . S
C88 C86 1.394 . S
C88 C89 1.369 . S
C88 C92 1.531 . S
C89 C88 1.369 . S
C89 C90 1.410 . S
C89 C97 1.503 . S
C90 C89 1.410 . S
C90 C91 1.392 . S
C90 C93 1.511 . S
C91 C87 1.376 . S
C91 C90 1.392 . S
C91 H103 0.929 . S
C92 C88 1.531 . S
C92 H104 0.960 . S
C92 H105 0.962 . S
C92 H106 0.960 . S
C93 C90 1.511 . S
C93 H107 0.961 . S
C93 H108 0.961 . S
C93 H109 0.961 . S
C94 C95 1.370 . S
C94 C96 1.363 . S
C94 H110 0.931 . S
C95 C94 1.370 . S
C95 C99 1.408 . S
C96 C94 1.363 . S
C96 C97 1.370 . S
C96 C100 1.524 . S
C97 C89 1.503 . S
C97 C96 1.370 . S
C97 C98 1.403 . S
C98 C97 1.403 . S
C98 C99 1.404 . S
C98 C101 1.539 . S
C99 C95 1.408 . S
C99 C98 1.404 . S
C99 H111 0.930 . S
C100 C96 1.524 . S
C100 H112 0.956 . S
C100 H113 0.961 . S
C100 H114 0.961 . S
C101 C98 1.539 . S
C101 H115 0.958 . S
C101 H116 0.961 1_455 S
C101 H117 0.960 . S
H102 C86 0.931 . S
H103 C91 0.929 . S
H104 C92 0.960 . S
H105 C92 0.962 . S
H106 C92 0.960 . S
H107 C93 0.961 . S
H108 C93 0.961 . S
H109 C93 0.961 . S
H110 C94 0.931 . S
H111 C99 0.930 . S
H112 C100 0.956 . S
H113 C100 0.961 . S
H114 C100 0.961 . S
H115 C101 0.958 . S
H116 C101 0.961 1_655 S
H117 C101 0.960 . S
C118 C119 1.391 . S
C118 C120 1.394 . S
C118 H134 0.931 . S
C119 C118 1.391 . S
C119 C123 1.376 1_455 S
C120 C118 1.394 . S
C120 C121 1.369 . S
C120 C124 1.531 . S
C121 C120 1.369 . S
C121 C122 1.410 1_455 S
C121 C129 1.503 . S
C122 C121 1.410 1_655 S
C122 C123 1.392 . S
C122 C125 1.511 . S
C123 C119 1.376 1_655 S
C123 C122 1.392 . S
C123 H135 0.929 . S
C124 C120 1.531 . S
C124 H136 0.960 . S
C124 H137 0.962 . S
C124 H138 0.960 . S
C125 C122 1.511 . S
C125 H139 0.961 . S
C125 H140 0.961 . S
C125 H141 0.961 . S
C126 C127 1.370 . S
C126 C128 1.363 . S
C126 H142 0.931 . S
C127 C126 1.370 . S
C127 C131 1.408 . S
C128 C126 1.363 . S
C128 C129 1.370 . S
C128 C132 1.524 . S
C129 C121 1.503 . S
C129 C128 1.370 . S
C129 C130 1.403 . S
C130 C129 1.403 . S
C130 C131 1.404 . S
C130 C133 1.539 . S
C131 C127 1.408 . S
C131 C130 1.404 . S
C131 H143 0.930 . S
C132 C128 1.524 . S
C132 H144 0.956 . S
C132 H145 0.961 1_455 S
C132 H146 0.961 . S
C133 C130 1.539 . S
C133 H147 0.958 . S
C133 H148 0.961 . S
C133 H149 0.960 . S
H134 C118 0.931 . S
H135 C123 0.929 . S
H136 C124 0.960 . S
H137 C124 0.962 . S
H138 C124 0.960 . S
H139 C125 0.961 . S
H140 C125 0.961 . S
H141 C125 0.961 . S
H142 C126 0.931 . S
H143 C131 0.930 . S
H144 C132 0.956 . S
H145 C132 0.961 1_655 S
H146 C132 0.961 . S
H147 C133 0.958 . S
H148 C133 0.961 . S
H149 C133 0.960 . S
C150 C151 1.391 . S
C150 C152 1.394 . S
C150 H166 0.931 . S
C151 C150 1.391 . S
C151 C155 1.376 . S
C152 C150 1.394 . S
C152 C153 1.369 . S
C152 C156 1.531 . S
C153 C152 1.369 . S
C153 C154 1.410 . S
C153 C161 1.503 . S
C154 C153 1.410 . S
C154 C155 1.392 . S
C154 C157 1.511 . S
C155 C151 1.376 . S
C155 C154 1.392 . S
C155 H167 0.929 . S
C156 C152 1.531 . S
C156 H168 0.960 . S
C156 H169 0.962 . S
C156 H170 0.960 . S
C157 C154 1.511 . S
C157 H171 0.961 . S
C157 H172 0.961 . S
C157 H173 0.961 . S
C158 C159 1.370 . S
C158 C160 1.363 . S
C158 H174 0.931 . S
C159 C158 1.370 . S
C159 C163 1.408 . S
C160 C158 1.363 . S
C160 C161 1.370 . S
C160 C164 1.524 . S
C161 C153 1.503 . S
C161 C160 1.370 . S
C161 C162 1.403 . S
C162 C161 1.403 . S
C162 C163 1.404 . S
C162 C165 1.539 . S
C163 C159 1.408 . S
C163 C162 1.404 . S
C163 H175 0.930 . S
C164 C160 1.524 . S
C164 H176 0.956 . S
C164 H177 0.961 . S
C164 H178 0.961 . S
C165 C162 1.539 . S
C165 H179 0.958 . S
C165 H180 0.961 . S
C165 H181 0.960 . S
H166 C150 0.931 . S
H167 C155 0.929 . S
H168 C156 0.960 . S
H169 C156 0.962 . S
H170 C156 0.960 . S
H171 C157 0.961 . S
H172 C157 0.961 . S
H173 C157 0.961 . S
H174 C158 0.931 . S
H175 C163 0.930 . S
H176 C164 0.956 . S
H177 C164 0.961 . S
H178 C164 0.961 . S
H179 C165 0.958 . S
H180 C165 0.961 . S
H181 C165 0.960 . S
C182 C183 1.391 . S
C182 C184 1.394 . S
C182 H198 0.931 . S
C183 C182 1.391 . S
C183 C187 1.376 . S
C184 C182 1.394 . S
C184 C185 1.369 . S
C184 C188 1.531 . S
C185 C184 1.369 . S
C185 C186 1.410 . S
C185 C193 1.503 . S
C186 C185 1.410 . S
C186 C187 1.392 . S
C186 C189 1.511 . S
C187 C183 1.376 . S
C187 C186 1.392 . S
C187 H199 0.929 . S
C188 C184 1.531 . S
C188 H200 0.960 . S
C188 H201 0.962 . S
C188 H202 0.960 . S
C189 C186 1.511 . S
C189 H203 0.961 . S
C189 H204 0.961 . S
C189 H205 0.961 . S
C190 C191 1.370 . S
C190 C192 1.363 . S
C190 H206 0.931 . S
C191 C190 1.370 . S
C191 C195 1.408 . S
C192 C190 1.363 . S
C192 C193 1.370 . S
C192 C196 1.524 . S
C193 C185 1.503 . S
C193 C192 1.370 . S
C193 C194 1.403 . S
C194 C193 1.403 . S
C194 C195 1.404 . S
C194 C197 1.539 . S
C195 C191 1.408 . S
C195 C194 1.404 . S
C195 H207 0.930 . S
C196 C192 1.524 . S
C196 H208 0.956 . S
C196 H209 0.961 . S
C196 H210 0.961 . S
C197 C194 1.539 . S
C197 H211 0.958 . S
C197 H212 0.961 . S
C197 H213 0.960 . S
H198 C182 0.931 . S
H199 C187 0.929 . S
H200 C188 0.960 . S
H201 C188 0.962 . S
H202 C188 0.960 . S
H203 C189 0.961 . S
H204 C189 0.961 . S
H205 C189 0.961 . S
H206 C190 0.931 . S
H207 C195 0.930 . S
H208 C196 0.956 . S
H209 C196 0.961 . S
H210 C196 0.961 . S
H211 C197 0.958 . S
H212 C197 0.961 . S
H213 C197 0.960 . S
C214 C215 1.391 . S
C214 C216 1.394 . S
C214 H230 0.931 . S
C215 C214 1.391 . S
C215 C219 1.376 . S
C216 C214 1.394 . S
C216 C217 1.369 . S
C216 C220 1.531 . S
C217 C216 1.369 . S
C217 C218 1.410 . S
C217 C225 1.503 . S
C218 C217 1.410 . S
C218 C219 1.392 . S
C218 C221 1.511 . S
C219 C215 1.376 . S
C219 C218 1.392 . S
C219 H231 0.929 1_556 S
C220 C216 1.531 . S
C220 H232 0.960 . S
C220 H233 0.962 . S
C220 H234 0.960 . S
C221 C218 1.511 . S
C221 H235 0.961 . S
C221 H236 0.961 . S
C221 H237 0.961 1_556 S
C222 C223 1.370 . S
C222 C224 1.363 . S
C222 H238 0.931 . S
C223 C222 1.370 . S
C223 C227 1.408 . S
C224 C222 1.363 . S
C224 C225 1.370 . S
C224 C228 1.524 . S
C225 C217 1.503 . S
C225 C224 1.370 . S
C225 C226 1.403 . S
C226 C225 1.403 . S
C226 C227 1.404 . S
C226 C229 1.539 1_556 S
C227 C223 1.408 . S
C227 C226 1.404 . S
C227 H239 0.930 . S
C228 C224 1.524 . S
C228 H240 0.956 . S
C228 H241 0.961 . S
C228 H242 0.961 . S
C229 C226 1.539 1_554 S
C229 H243 0.958 . S
C229 H244 0.961 . S
C229 H245 0.960 . S
H230 C214 0.931 . S
H231 C219 0.929 1_554 S
H232 C220 0.960 . S
H233 C220 0.962 . S
H234 C220 0.960 . S
H235 C221 0.961 . S
H236 C221 0.961 . S
H237 C221 0.961 1_554 S
H238 C222 0.931 . S
H239 C227 0.930 . S
H240 C228 0.956 . S
H241 C228 0.961 . S
H242 C228 0.961 . S
H243 C229 0.958 . S
H244 C229 0.961 . S
H245 C229 0.960 . S
C246 C247 1.391 . S
C246 C248 1.394 . S
C246 H262 0.931 . S
C247 C246 1.391 . S
C247 C251 1.376 . S
C248 C246 1.394 . S
C248 C249 1.369 . S
C248 C252 1.531 . S
C249 C248 1.369 . S
C249 C250 1.410 . S
C249 C257 1.503 . S
C250 C249 1.410 . S
C250 C251 1.392 . S
C250 C253 1.511 . S
C251 C247 1.376 . S
C251 C250 1.392 . S
C251 H263 0.929 . S
C252 C248 1.531 . S
C252 H264 0.960 . S
C252 H265 0.962 . S
C252 H266 0.960 . S
C253 C250 1.511 . S
C253 H267 0.961 . S
C253 H268 0.961 . S
C253 H269 0.961 . S
C254 C255 1.370 . S
C254 C256 1.363 . S
C254 H270 0.931 . S
C255 C254 1.370 . S
C255 C259 1.408 . S
C256 C254 1.363 . S
C256 C257 1.370 . S
C256 C260 1.524 . S
C257 C249 1.503 . S
C257 C256 1.370 . S
C257 C258 1.403 . S
C258 C257 1.403 . S
C258 C259 1.404 . S
C258 C261 1.539 1_556 S
C259 C255 1.408 . S
C259 C258 1.404 . S
C259 H271 0.930 . S
C260 C256 1.524 . S
C260 H272 0.956 . S
C260 H273 0.961 . S
C260 H274 0.961 . S
C261 C258 1.539 1_554 S
C261 H275 0.958 . S
C261 H276 0.961 . S
C261 H277 0.960 . S
H262 C246 0.931 . S
H263 C251 0.929 . S
H264 C252 0.960 . S
H265 C252 0.962 . S
H266 C252 0.960 . S
H267 C253 0.961 . S
H268 C253 0.961 . S
H269 C253 0.961 . S
H270 C254 0.931 . S
H271 C259 0.930 . S
H272 C260 0.956 . S
H273 C260 0.961 . S
H274 C260 0.961 . S
H275 C261 0.958 . S
H276 C261 0.961 . S
H277 C261 0.960 . S
C278 C279 1.391 1_655 S
C278 C280 1.394 . S
C278 H294 0.931 1_556 S
C279 C278 1.391 1_455 S
C279 C283 1.376 . S
C280 C278 1.394 . S
C280 C281 1.369 . S
C280 C284 1.531 . S
C281 C280 1.369 . S
C281 C282 1.410 . S
C281 C289 1.503 . S
C282 C281 1.410 . S
C282 C283 1.392 1_655 S
C282 C285 1.511 . S
C283 C279 1.376 . S
C283 C282 1.392 1_455 S
C283 H295 0.929 . S
C284 C280 1.531 . S
C284 H296 0.960 . S
C284 H297 0.962 1_556 S
C284 H298 0.960 1_556 S
C285 C282 1.511 . S
C285 H299 0.961 . S
C285 H300 0.961 . S
C285 H301 0.961 . S
C286 C287 1.370 . S
C286 C288 1.363 . S
C286 H302 0.931 . S
C287 C286 1.370 . S
C287 C291 1.408 . S
C288 C286 1.363 . S
C288 C289 1.370 . S
C288 C292 1.524 . S
C289 C281 1.503 . S
C289 C288 1.370 . S
C289 C290 1.403 . S
C290 C289 1.403 . S
C290 C291 1.404 . S
C290 C293 1.539 . S
C291 C287 1.408 . S
C291 C290 1.404 . S
C291 H303 0.930 . S
C292 C288 1.524 . S
C292 H304 0.956 . S
C292 H305 0.961 . S
C292 H306 0.961 . S
C293 C290 1.539 . S
C293 H307 0.958 . S
C293 H308 0.961 . S
C293 H309 0.960 . S
H294 C278 0.931 1_554 S
H295 C283 0.929 . S
H296 C284 0.960 . S
H297 C284 0.962 1_554 S
H298 C284 0.960 1_554 S
H299 C285 0.961 . S
H300 C285 0.961 . S
H301 C285 0.961 . S
H302 C286 0.931 . S
H303 C291 0.930 . S
H304 C292 0.956 . S
H305 C292 0.961 . S
H306 C292 0.961 . S
H307 C293 0.958 . S
H308 C293 0.961 . S
H309 C293 0.960 . S
C310 C311 1.391 . S
C310 C312 1.394 . S
C310 H326 0.931 . S
C311 C310 1.391 . S
C311 C315 1.376 . S
C312 C310 1.394 . S
C312 C313 1.369 . S
C312 C316 1.531 . S
C313 C312 1.369 . S
C313 C314 1.410 . S
C313 C321 1.503 . S
C314 C313 1.410 . S
C314 C315 1.392 . S
C314 C317 1.511 . S
C315 C311 1.376 . S
C315 C314 1.392 . S
C315 H327 0.929 1_556 S
C316 C312 1.531 . S
C316 H328 0.960 . S
C316 H329 0.962 . S
C316 H330 0.960 . S
C317 C314 1.511 . S
C317 H331 0.961 1_556 S
C317 H332 0.961 . S
C317 H333 0.961 . S
C318 C319 1.370 . S
C318 C320 1.363 . S
C318 H334 0.931 . S
C319 C318 1.370 . S
C319 C323 1.408 . S
C320 C318 1.363 . S
C320 C321 1.370 . S
C320 C324 1.524 . S
C321 C313 1.503 . S
C321 C320 1.370 . S
C321 C322 1.403 . S
C322 C321 1.403 . S
C322 C323 1.404 . S
C322 C325 1.539 . S
C323 C319 1.408 . S
C323 C322 1.404 . S
C323 H335 0.930 . S
C324 C320 1.524 . S
C324 H336 0.956 . S
C324 H337 0.961 . S
C324 H338 0.961 . S
C325 C322 1.539 . S
C325 H339 0.958 . S
C325 H340 0.961 . S
C325 H341 0.960 . S
H326 C310 0.931 . S
H327 C315 0.929 1_554 S
H328 C316 0.960 . S
H329 C316 0.962 . S
H330 C316 0.960 . S
H331 C317 0.961 1_554 S
H332 C317 0.961 . S
H333 C317 0.961 . S
H334 C318 0.931 . S
H335 C323 0.930 . S
H336 C324 0.956 . S
H337 C324 0.961 . S
H338 C324 0.961 . S
H339 C325 0.958 . S
H340 C325 0.961 . S
H341 C325 0.960 . S
C342 C343 1.391 . S
C342 C344 1.394 . S
C342 H358 0.931 . S
C343 C342 1.391 . S
C343 C347 1.376 . S
C344 C342 1.394 . S
C344 C345 1.369 . S
C344 C348 1.531 . S
C345 C344 1.369 . S
C345 C346 1.410 . S
C345 C353 1.503 . S
C346 C345 1.410 . S
C346 C347 1.392 . S
C346 C349 1.511 . S
C347 C343 1.376 . S
C347 C346 1.392 . S
C347 H359 0.929 . S
C348 C344 1.531 . S
C348 H360 0.960 . S
C348 H361 0.962 . S
C348 H362 0.960 . S
C349 C346 1.511 . S
C349 H363 0.961 . S
C349 H364 0.961 . S
C349 H365 0.961 . S
C350 C351 1.370 . S
C350 C352 1.363 . S
C350 H366 0.931 . S
C351 C350 1.370 . S
C351 C355 1.408 . S
C352 C350 1.363 . S
C352 C353 1.370 . S
C352 C356 1.524 . S
C353 C345 1.503 . S
C353 C352 1.370 . S
C353 C354 1.403 . S
C354 C353 1.403 . S
C354 C355 1.404 . S
C354 C357 1.539 . S
C355 C351 1.408 . S
C355 C354 1.404 . S
C355 H367 0.930 1_655 S
C356 C352 1.524 . S
C356 H368 0.956 . S
C356 H369 0.961 . S
C356 H370 0.961 . S
C357 C354 1.539 . S
C357 H371 0.958 . S
C357 H372 0.961 1_655 S
C357 H373 0.960 . S
H358 C342 0.931 . S
H359 C347 0.929 . S
H360 C348 0.960 . S
H361 C348 0.962 . S
H362 C348 0.960 . S
H363 C349 0.961 . S
H364 C349 0.961 . S
H365 C349 0.961 . S
H366 C350 0.931 . S
H367 C355 0.930 1_455 S
H368 C356 0.956 . S
H369 C356 0.961 . S
H370 C356 0.961 . S
H371 C357 0.958 . S
H372 C357 0.961 1_455 S
H373 C357 0.960 . S
C374 C375 1.391 . S
C374 C376 1.394 . S
C374 H390 0.931 . S
C375 C374 1.391 . S
C375 C379 1.376 . S
C376 C374 1.394 . S
C376 C377 1.369 . S
C376 C380 1.531 . S
C377 C376 1.369 . S
C377 C378 1.410 . S
C377 C385 1.503 . S
C378 C377 1.410 . S
C378 C379 1.392 . S
C378 C381 1.511 . S
C379 C375 1.376 . S
C379 C378 1.392 . S
C379 H391 0.929 . S
C380 C376 1.531 . S
C380 H392 0.960 . S
C380 H393 0.962 . S
C380 H394 0.960 . S
C381 C378 1.511 . S
C381 H395 0.961 . S
C381 H396 0.961 . S
C381 H397 0.961 . S
C382 C383 1.370 . S
C382 C384 1.363 . S
C382 H398 0.931 . S
C383 C382 1.370 . S
C383 C387 1.408 . S
C384 C382 1.363 . S
C384 C385 1.370 . S
C384 C388 1.524 . S
C385 C377 1.503 . S
C385 C384 1.370 . S
C385 C386 1.403 . S
C386 C385 1.403 . S
C386 C387 1.404 . S
C386 C389 1.539 . S
C387 C383 1.408 . S
C387 C386 1.404 . S
C387 H399 0.930 . S
C388 C384 1.524 . S
C388 H400 0.956 . S
C388 H401 0.961 . S
C388 H402 0.961 . S
C389 C386 1.539 . S
C389 H403 0.958 . S
C389 H404 0.961 . S
C389 H405 0.960 . S
H390 C374 0.931 . S
H391 C379 0.929 . S
H392 C380 0.960 . S
H393 C380 0.962 . S
H394 C380 0.960 . S
H395 C381 0.961 . S
H396 C381 0.961 . S
H397 C381 0.961 . S
H398 C382 0.931 . S
H399 C387 0.930 . S
H400 C388 0.956 . S
H401 C388 0.961 . S
H402 C388 0.961 . S
H403 C389 0.958 . S
H404 C389 0.961 . S
H405 C389 0.960 . S
C406 C407 1.391 . S
C406 C408 1.394 . S
C406 H422 0.931 . S
C407 C406 1.391 . S
C407 C411 1.376 . S
C408 C406 1.394 . S
C408 C409 1.369 . S
C408 C412 1.531 . S
C409 C408 1.369 . S
C409 C410 1.410 . S
C409 C417 1.503 . S
C410 C409 1.410 . S
C410 C411 1.392 . S
C410 C413 1.511 . S
C411 C407 1.376 . S
C411 C410 1.392 . S
C411 H423 0.929 . S
C412 C408 1.531 . S
C412 H424 0.960 . S
C412 H425 0.962 . S
C412 H426 0.960 . S
C413 C410 1.511 . S
C413 H427 0.961 . S
C413 H428 0.961 . S
C413 H429 0.961 . S
C414 C415 1.370 . S
C414 C416 1.363 . S
C414 H430 0.931 . S
C415 C414 1.370 . S
C415 C419 1.408 . S
C416 C414 1.363 . S
C416 C417 1.370 . S
C416 C420 1.524 . S
C417 C409 1.503 . S
C417 C416 1.370 . S
C417 C418 1.403 . S
C418 C417 1.403 . S
C418 C419 1.404 . S
C418 C421 1.539 . S
C419 C415 1.408 . S
C419 C418 1.404 . S
C419 H431 0.930 . S
C420 C416 1.524 . S
C420 H432 0.956 . S
C420 H433 0.961 . S
C420 H434 0.961 . S
C421 C418 1.539 . S
C421 H435 0.958 . S
C421 H436 0.961 . S
C421 H437 0.960 . S
H422 C406 0.931 . S
H423 C411 0.929 . S
H424 C412 0.960 . S
H425 C412 0.962 . S
H426 C412 0.960 . S
H427 C413 0.961 . S
H428 C413 0.961 . S
H429 C413 0.961 . S
H430 C414 0.931 . S
H431 C419 0.930 . S
H432 C420 0.956 . S
H433 C420 0.961 . S
H434 C420 0.961 . S
H435 C421 0.958 . S
H436 C421 0.961 . S
H437 C421 0.960 . S
C438 C439 1.391 . S
C438 C440 1.394 . S
C438 H454 0.931 . S
C439 C438 1.391 . S
C439 C443 1.376 . S
C440 C438 1.394 . S
C440 C441 1.369 . S
C440 C444 1.531 . S
C441 C440 1.369 . S
C441 C442 1.410 . S
C441 C449 1.503 . S
C442 C441 1.410 . S
C442 C443 1.392 . S
C442 C445 1.511 . S
C443 C439 1.376 . S
C443 C442 1.392 . S
C443 H455 0.929 . S
C444 C440 1.531 . S
C444 H456 0.960 . S
C444 H457 0.962 . S
C444 H458 0.960 . S
C445 C442 1.511 . S
C445 H459 0.961 . S
C445 H460 0.961 . S
C445 H461 0.961 . S
C446 C447 1.370 . S
C446 C448 1.363 . S
C446 H462 0.931 . S
C447 C446 1.370 . S
C447 C451 1.408 . S
C448 C446 1.363 . S
C448 C449 1.370 . S
C448 C452 1.524 . S
C449 C441 1.503 . S
C449 C448 1.370 . S
C449 C450 1.403 . S
C450 C449 1.403 . S
C450 C451 1.404 . S
C450 C453 1.539 . S
C451 C447 1.408 . S
C451 C450 1.404 . S
C451 H463 0.930 . S
C452 C448 1.524 . S
C452 H464 0.956 . S
C452 H465 0.961 . S
C452 H466 0.961 . S
C453 C450 1.539 . S
C453 H467 0.958 . S
C453 H468 0.961 . S
C453 H469 0.960 . S
H454 C438 0.931 . S
H455 C443 0.929 . S
H456 C444 0.960 . S
H457 C444 0.962 . S
H458 C444 0.960 . S
H459 C445 0.961 . S
H460 C445 0.961 . S
H461 C445 0.961 . S
H462 C446 0.931 . S
H463 C451 0.930 . S
H464 C452 0.956 . S
H465 C452 0.961 . S
H466 C452 0.961 . S
H467 C453 0.958 . S
H468 C453 0.961 . S
H469 C453 0.960 . S
C95 C51 1.397 . S
C87 N4 1.525 . S
C127 C47 1.419 . S
C119 N15 1.504 . S
C159 C72 1.400 . S
C151 N26 1.527 . S
C183 N37 1.512 . S
C191 C68 1.415 . S
C215 C9 1.236 . S
C223 C69 1.146 . S
C255 C84 1.143 . S
C247 C17 1.261 . S
C279 C6 1.706 . S
C287 C85 1.598 . S
C319 C81 1.603 . S
C311 C20 1.746 . S
C351 C48 1.107 1_655 S
C343 C31 1.277 . S
C375 C39 1.275 . S
C383 C63 1.118 . S
C415 C64 1.563 . S
C407 C28 1.727 . S
C447 C60 1.618 . S
C439 C42 1.728 . S
