# Generated by pormake.
# Topology hwx, (6,3)-cn, num edge types: 1
# Building blocks:
#     Node 0, Type 0, BuildingBlock: OJICUG_clean_sbu_0, # of connection points: 6
#     Node 1, Type 0, BuildingBlock: OJICUG_clean_sbu_0, # of connection points: 6
#     Node 2, Type 0, BuildingBlock: OJICUG_clean_sbu_0, # of connection points: 6
#     Node 3, Type 0, BuildingBlock: OJICUG_clean_sbu_0, # of connection points: 6
#     Node 4, Type 1, BuildingBlock: BETDIP_clean_linker_0, # of connection points: 3
#     Node 5, Type 1, BuildingBlock: BETDIP_clean_linker_0, # of connection points: 3
#     Node 6, Type 1, BuildingBlock: BETDIP_clean_linker_0, # of connection points: 3
#     Node 7, Type 1, BuildingBlock: BETDIP_clean_linker_0, # of connection points: 3
#     Node 8, Type 1, BuildingBlock: BETDIP_clean_linker_0, # of connection points: 3
#     Node 9, Type 1, BuildingBlock: BETDIP_clean_linker_0, # of connection points: 3
#     Node 10, Type 1, BuildingBlock: BETDIP_clean_linker_0, # of connection points: 3
#     Node 11, Type 1, BuildingBlock: BETDIP_clean_linker_0, # of connection points: 3
#     Edge 12, Type (0, 1), BuildingBlock: MIFKUJ_clean_linker_0, # of connection points: 2
#     Edge 13, Type (0, 1), BuildingBlock: MIFKUJ_clean_linker_0, # of connection points: 2
#     Edge 14, Type (0, 1), BuildingBlock: MIFKUJ_clean_linker_0, # of connection points: 2
#     Edge 15, Type (0, 1), BuildingBlock: MIFKUJ_clean_linker_0, # of connection points: 2
#     Edge 16, Type (0, 1), BuildingBlock: MIFKUJ_clean_linker_0, # of connection points: 2
#     Edge 17, Type (0, 1), BuildingBlock: MIFKUJ_clean_linker_0, # of connection points: 2
#     Edge 18, Type (0, 1), BuildingBlock: MIFKUJ_clean_linker_0, # of connection points: 2
#     Edge 19, Type (0, 1), BuildingBlock: MIFKUJ_clean_linker_0, # of connection points: 2
#     Edge 20, Type (0, 1), BuildingBlock: MIFKUJ_clean_linker_0, # of connection points: 2
#     Edge 21, Type (0, 1), BuildingBlock: MIFKUJ_clean_linker_0, # of connection points: 2
#     Edge 22, Type (0, 1), BuildingBlock: MIFKUJ_clean_linker_0, # of connection points: 2
#     Edge 23, Type (0, 1), BuildingBlock: MIFKUJ_clean_linker_0, # of connection points: 2
#     Edge 24, Type (0, 1), BuildingBlock: MIFKUJ_clean_linker_0, # of connection points: 2
#     Edge 25, Type (0, 1), BuildingBlock: MIFKUJ_clean_linker_0, # of connection points: 2
#     Edge 26, Type (0, 1), BuildingBlock: MIFKUJ_clean_linker_0, # of connection points: 2
#     Edge 27, Type (0, 1), BuildingBlock: MIFKUJ_clean_linker_0, # of connection points: 2
#     Edge 28, Type (0, 1), BuildingBlock: MIFKUJ_clean_linker_0, # of connection points: 2
#     Edge 29, Type (0, 1), BuildingBlock: MIFKUJ_clean_linker_0, # of connection points: 2
#     Edge 30, Type (0, 1), BuildingBlock: MIFKUJ_clean_linker_0, # of connection points: 2
#     Edge 31, Type (0, 1), BuildingBlock: MIFKUJ_clean_linker_0, # of connection points: 2
#     Edge 32, Type (0, 1), BuildingBlock: MIFKUJ_clean_linker_0, # of connection points: 2
#     Edge 33, Type (0, 1), BuildingBlock: MIFKUJ_clean_linker_0, # of connection points: 2
#     Edge 34, Type (0, 1), BuildingBlock: MIFKUJ_clean_linker_0, # of connection points: 2
#     Edge 35, Type (0, 1), BuildingBlock: MIFKUJ_clean_linker_0, # of connection points: 2
# Relax obj value: 0.006
# Max RMSD: 0.048
# Mean RMSD: 0.043
data_MOF--net-hwx--node1-OJICUG_clean_sbu_0--node2-BETDIP_clean_linker_0--edge1-MIFKUJ_clean_linker_0
_symmetry_space_group_name_H-M    P1
_symmetry_Int_Tables_number       1
_symmetry_cell_setting            triclinic
loop_
_symmetry_equiv_pos_as_xyz
'x, y, z'
_cell_length_a     68.393778
_cell_length_b     68.348654
_cell_length_c     26.250052
_cell_angle_alpha  91.408375
_cell_angle_beta   91.391536
_cell_angle_gamma 89.991534
loop_
_atom_site_label
_atom_site_type_symbol
_atom_site_fract_x
_atom_site_fract_y
_atom_site_fract_z
_atom_type_partial_charge
Sc0 Sc 0.21847 0.21972 0.07482 0.0
Sc1 Sc 0.18837 0.18694 0.00239 0.0
Sc2 Sc 0.21928 0.21958 0.9407 0.0
O3 O 0.20869 0.20876 0.00598 0.0
C4 C 0.21518 0.25847 0.00975 0.0
C5 C 0.17292 0.21406 0.0937 0.0
C6 C 0.17391 0.21421 0.91198 0.0
C7 C 0.21617 0.17387 0.09477 0.0
C8 C 0.25772 0.21813 0.01169 0.0
C9 C 0.21677 0.17385 0.91323 0.0
O10 O 0.21546 0.24965 0.05185 0.0
O11 O 0.17029 0.20112 0.05857 0.0
O12 O 0.19052 0.22213 0.90625 0.0
O13 O 0.22257 0.19098 0.10559 0.0
O14 O 0.24911 0.218 0.96823 0.0
O15 O 0.20398 0.17016 0.94596 0.0
O16 O 0.24864 0.21902 0.05336 0.0
O17 O 0.20379 0.17025 0.0589 0.0
O18 O 0.22341 0.19096 0.90695 0.0
O19 O 0.18946 0.22187 0.10375 0.0
O20 O 0.21659 0.24954 0.96695 0.0
O21 O 0.17098 0.20123 0.94482 0.0
Sc22 Sc 0.27995 0.72003 0.43806 0.0
Sc23 Sc 0.30943 0.68802 0.51056 0.0
Sc24 Sc 0.27742 0.72066 0.57211 0.0
O25 O 0.28893 0.70958 0.50685 0.0
C26 C 0.28277 0.75911 0.5067 0.0
C27 C 0.32587 0.71433 0.42269 0.0
C28 C 0.32236 0.71589 0.60482 0.0
C29 C 0.28301 0.67416 0.41412 0.0
C30 C 0.23985 0.71906 0.49788 0.0
C31 C 0.27967 0.67501 0.59506 0.0
O32 O 0.283 0.75012 0.46369 0.0
O33 O 0.32825 0.70235 0.45855 0.0
O34 O 0.30562 0.7237 0.60957 0.0
O35 O 0.27599 0.69103 0.40542 0.0
O36 O 0.24795 0.71887 0.54193 0.0
O37 O 0.29291 0.67128 0.56309 0.0
O38 O 0.24945 0.71988 0.45712 0.0
O39 O 0.29537 0.67104 0.44997 0.0
O40 O 0.27294 0.69214 0.60277 0.0
O41 O 0.30932 0.72151 0.4104 0.0
O42 O 0.2806 0.75041 0.54846 0.0
O43 O 0.32581 0.70264 0.5714 0.0
Sc44 Sc 0.77938 0.77901 0.94899 0.0
Sc45 Sc 0.81054 0.81089 0.0206 0.0
Sc46 Sc 0.7779 0.78006 0.08304 0.0
O47 O 0.78927 0.78999 0.01756 0.0
C48 C 0.73981 0.78225 0.01057 0.0
C49 C 0.78375 0.82464 0.92714 0.0
C50 C 0.78236 0.82573 0.10887 0.0
C51 C 0.82514 0.78269 0.9304 0.0
C52 C 0.78085 0.74061 0.01607 0.0
C53 C 0.82351 0.78363 0.11214 0.0
O54 O 0.74917 0.78174 0.96931 0.0
O55 O 0.79592 0.82817 0.96362 0.0
O56 O 0.77425 0.80922 0.11471 0.0
O57 O 0.80849 0.77497 0.92095 0.0
O58 O 0.7802 0.74982 0.05869 0.0
O59 O 0.82736 0.79579 0.07788 0.0
O60 O 0.78052 0.7492 0.97364 0.0
O61 O 0.82789 0.79603 0.96438 0.0
O62 O 0.80636 0.77716 0.1189 0.0
O63 O 0.77698 0.80762 0.91699 0.0
O64 O 0.74818 0.78159 0.05427 0.0
O65 O 0.79584 0.82829 0.07724 0.0
Sc66 Sc 0.71859 0.28318 0.57645 0.0
Sc67 Sc 0.68719 0.31437 0.50656 0.0
Sc68 Sc 0.71729 0.28063 0.44225 0.0
O69 O 0.70767 0.29271 0.50851 0.0
C70 C 0.75682 0.28329 0.50907 0.0
C71 C 0.71603 0.32934 0.59698 0.0
C72 C 0.71476 0.32599 0.41586 0.0
C73 C 0.67327 0.28916 0.59953 0.0
C74 C 0.71404 0.2431 0.51186 0.0
C75 C 0.67167 0.28538 0.41758 0.0
O76 O 0.74845 0.28368 0.55181 0.0
O77 O 0.7029 0.33213 0.56281 0.0
O78 O 0.72129 0.30875 0.40852 0.0
O79 O 0.69002 0.28182 0.60911 0.0
O80 O 0.71451 0.25129 0.46895 0.0
O81 O 0.66906 0.29916 0.45009 0.0
O82 O 0.71541 0.25264 0.55408 0.0
O83 O 0.67001 0.30089 0.56351 0.0
O84 O 0.68821 0.27745 0.4106 0.0
O85 O 0.72306 0.31252 0.60608 0.0
O86 O 0.74741 0.28219 0.46678 0.0
O87 O 0.70227 0.33016 0.44949 0.0
H88 H 0.21482 0.50315 0.90578 0.0
H89 H 0.22674 0.50249 0.06783 0.0
H90 H 0.23136 0.55607 0.98736 0.0
H91 H 0.20748 0.47592 0.06392 0.0
C92 C 0.21073 0.46879 0.0277 0.0
C93 C 0.21872 0.51079 0.94126 0.0
C94 C 0.22276 0.5309 0.94143 0.0
C95 C 0.21941 0.5005 0.98689 0.0
C96 C 0.22508 0.51036 0.03275 0.0
C97 C 0.22964 0.53039 0.03296 0.0
C98 C 0.22804 0.54055 0.98736 0.0
N99 N 0.21522 0.48012 0.98484 0.0
H100 H 0.99734 0.72615 0.60723 0.0
H101 H 0.9948 0.72138 0.44344 0.0
H102 H 0.9419 0.72842 0.527 0.0
H103 H 0.02237 0.69992 0.46549 0.0
C104 C 0.02976 0.71098 0.48938 0.0
C105 C 0.98882 0.72556 0.57187 0.0
C106 C 0.96836 0.7269 0.57271 0.0
C107 C 0.99838 0.72301 0.52555 0.0
C108 C 0.98743 0.72263 0.47943 0.0
C109 C 0.96699 0.72448 0.47971 0.0
C110 C 0.95762 0.72636 0.52653 0.0
N111 N 0.01908 0.72183 0.52616 0.0
H112 H 0.78682 0.49551 0.10947 0.0
H113 H 0.77775 0.49518 0.94654 0.0
H114 H 0.77485 0.44153 0.02719 0.0
H115 H 0.79164 0.52411 0.95056 0.0
C116 C 0.78895 0.5305 0.98797 0.0
C117 C 0.78418 0.48754 0.07374 0.0
C118 C 0.78111 0.46724 0.07367 0.0
C119 C 0.78369 0.49773 0.02802 0.0
C120 C 0.77944 0.48747 0.9818 0.0
C121 C 0.77618 0.46718 0.98125 0.0
C122 C 0.77746 0.45718 0.02725 0.0
N123 N 0.78633 0.51838 0.03054 0.0
H124 H 0.00067 0.27974 0.41188 0.0
H125 H 0.00268 0.27071 0.57424 0.0
H126 H 0.05405 0.26193 0.48538 0.0
H127 H 0.9693 0.277 0.41847 0.0
C128 C 0.96488 0.28007 0.45722 0.0
C129 C 0.00842 0.27581 0.44647 0.0
C130 C 0.02829 0.27108 0.44365 0.0
C131 C 0.99903 0.27567 0.49377 0.0
C132 C 0.00988 0.27102 0.53792 0.0
C133 C 0.02965 0.26579 0.53494 0.0
C134 C 0.03876 0.26603 0.48783 0.0
N135 N 0.97873 0.27964 0.49843 0.0
H136 H 0.72503 0.99772 0.60985 0.0
H137 H 0.73086 0.99974 0.44718 0.0
H138 H 0.73211 0.94446 0.52144 0.0
H139 H 0.7502 0.02899 0.48353 0.0
C140 C 0.73734 0.03449 0.50276 0.0
C141 C 0.72674 0.99017 0.57343 0.0
C142 C 0.72831 0.9697 0.57106 0.0
C143 C 0.72791 0.00107 0.52905 0.0
C144 C 0.73027 0.99139 0.48166 0.0
C145 C 0.73121 0.97089 0.47863 0.0
C146 C 0.73034 0.96023 0.52347 0.0
N147 N 0.72631 0.02173 0.53278 0.0
H148 H 0.50202 0.23123 0.91137 0.0
H149 H 0.4998 0.22281 0.07324 0.0
H150 H 0.55387 0.23886 0.00594 0.0
H151 H 0.47534 0.19904 0.03988 0.0
C152 C 0.46774 0.20996 0.01741 0.0
C153 C 0.50936 0.23079 0.9484 0.0
C154 C 0.52927 0.23553 0.95345 0.0
C155 C 0.49872 0.22582 0.99117 0.0
C156 C 0.50802 0.2259 0.0396 0.0
C157 C 0.52792 0.23053 0.04473 0.0
C158 C 0.53847 0.23518 0.00168 0.0
N159 N 0.47841 0.22211 0.98499 0.0
H160 H 0.27802 0.00203 0.41509 0.0
H161 H 0.28378 0.00446 0.57927 0.0
H162 H 0.26739 0.05577 0.49802 0.0
H163 H 0.29857 0.97608 0.57074 0.0
C164 C 0.29349 0.96912 0.53526 0.0
C165 C 0.27767 0.01026 0.4509 0.0
C166 C 0.27214 0.03 0.45134 0.0
C167 C 0.2821 0.00082 0.49664 0.0
C168 C 0.28102 0.01144 0.54333 0.0
C169 C 0.27609 0.03138 0.5438 0.0
C170 C 0.27165 0.04048 0.49773 0.0
N171 N 0.28651 0.9805 0.49406 0.0
H172 H 0.49732 0.77259 0.10717 0.0
H173 H 0.49346 0.77731 0.94387 0.0
H174 H 0.44157 0.7683 0.02887 0.0
H175 H 0.52245 0.7913 0.95248 0.0
C176 C 0.52965 0.78517 0.98573 0.0
C177 C 0.48862 0.77298 0.07213 0.0
C178 C 0.46828 0.77057 0.07344 0.0
C179 C 0.49785 0.77601 0.02588 0.0
C180 C 0.48657 0.77585 0.98019 0.0
C181 C 0.4662 0.77327 0.98102 0.0
C182 C 0.45719 0.77094 0.02792 0.0
N183 N 0.51852 0.7783 0.0267 0.0
H184 H 0.13527 0.19988 0.0896 0.0
H185 H 0.10774 0.21085 0.14089 0.0
H186 H 0.14472 0.25421 0.21672 0.0
H187 H 0.17227 0.24325 0.16654 0.0
H188 H 0.12437 0.23423 0.28356 0.0
H189 H 0.11068 0.26649 0.12463 0.0
H190 H 0.10453 0.26764 0.03178 0.0
H191 H 0.05421 0.23071 0.04492 0.0
H192 H 0.06022 0.22912 0.1378 0.0
H193 H 0.06037 0.29141 0.41762 0.0
H194 H 0.0817 0.2838 0.34634 0.0
H195 H 0.04077 0.23989 0.28994 0.0
H196 H 0.01911 0.24789 0.36079 0.0
H197 H 0.06126 0.25815 0.21131 0.0
H198 H 0.07436 0.22614 0.36924 0.0
H199 H 0.07967 0.22537 0.46242 0.0
H200 H 0.13104 0.26093 0.45084 0.0
H201 H 0.12578 0.26229 0.35765 0.0
C202 C 0.13754 0.21177 0.11713 0.0
C203 C 0.15603 0.22062 0.12403 0.0
C204 C 0.12176 0.21808 0.14621 0.0
C205 C 0.12417 0.23343 0.18233 0.0
C206 C 0.14256 0.24231 0.1891 0.0
C207 C 0.15831 0.23601 0.1603 0.0
C208 C 0.10783 0.23997 0.2146 0.0
C209 C 0.11067 0.23965 0.26767 0.0
C210 C 0.08971 0.24644 0.19386 0.0
C211 C 0.08602 0.24752 0.13809 0.0
C212 C 0.09839 0.25849 0.10767 0.0
C213 C 0.09492 0.25924 0.05504 0.0
C214 C 0.07903 0.24921 0.03244 0.0
C215 C 0.06653 0.23845 0.06246 0.0
C216 C 0.06996 0.23763 0.1151 0.0
C217 C 0.05565 0.28064 0.38894 0.0
C218 C 0.03829 0.27009 0.39458 0.0
C219 C 0.0678 0.27628 0.34839 0.0
C220 C 0.06296 0.261 0.31365 0.0
C221 C 0.04474 0.2517 0.31649 0.0
C222 C 0.03242 0.25625 0.35685 0.0
C223 C 0.07812 0.25289 0.27993 0.0
C224 C 0.07499 0.25272 0.22693 0.0
C225 C 0.09599 0.2458 0.3006 0.0
C226 C 0.09958 0.24444 0.35647 0.0
C227 C 0.08674 0.23388 0.38658 0.0
C228 C 0.08972 0.23335 0.43941 0.0
C229 C 0.10566 0.24312 0.46255 0.0
C230 C 0.11869 0.25338 0.43286 0.0
C231 C 0.11571 0.25404 0.38003 0.0
H232 H 0.10794 0.24271 0.50346 0.0
H233 H 0.07637 0.2498 0.99169 0.0
H234 H 0.24955 0.67648 0.66178 0.0
H235 H 0.23688 0.64998 0.71192 0.0
H236 H 0.27867 0.61017 0.64572 0.0
H237 H 0.29135 0.63657 0.59462 0.0
H238 H 0.24261 0.59302 0.65399 0.0
H239 H 0.28777 0.62963 0.76162 0.0
H240 H 0.30184 0.65932 0.8033 0.0
H241 H 0.24778 0.67021 0.87886 0.0
H242 H 0.2333 0.64071 0.83703 0.0
H243 H 0.24287 0.52285 0.85494 0.0
H244 H 0.24884 0.54549 0.78593 0.0
H245 H 0.20887 0.587 0.85323 0.0
H246 H 0.20317 0.56456 0.92244 0.0
H247 H 0.24384 0.60277 0.84192 0.0
H248 H 0.19912 0.56476 0.73642 0.0
H249 H 0.18571 0.53473 0.69506 0.0
H250 H 0.23945 0.52573 0.61656 0.0
H251 H 0.2533 0.55559 0.65801 0.0
C252 C 0.25607 0.66211 0.65767 0.0
C253 C 0.27165 0.65875 0.62454 0.0
C254 C 0.24878 0.64696 0.68638 0.0
C255 C 0.257 0.62818 0.68297 0.0
C256 C 0.27214 0.62457 0.6489 0.0
C257 C 0.27943 0.63973 0.61997 0.0
C258 C 0.25036 0.6126 0.7168 0.0
C259 C 0.24304 0.59501 0.69513 0.0
C260 C 0.25068 0.61538 0.77038 0.0
C261 C 0.25939 0.63307 0.79579 0.0
C262 C 0.27884 0.63844 0.78682 0.0
C263 C 0.28689 0.65522 0.81052 0.0
C264 C 0.27569 0.66667 0.8436 0.0
C265 C 0.25643 0.66134 0.85316 0.0
C266 C 0.24829 0.64458 0.8295 0.0
C267 C 0.2349 0.53654 0.8539 0.0
C268 C 0.22267 0.54208 0.89396 0.0
C269 C 0.23832 0.54947 0.81456 0.0
C270 C 0.22937 0.56798 0.81459 0.0
C271 C 0.21602 0.57285 0.85263 0.0
C272 C 0.21272 0.56003 0.89201 0.0
C273 C 0.23572 0.58321 0.77928 0.0
C274 C 0.24321 0.60075 0.80078 0.0
C275 C 0.23561 0.58028 0.72572 0.0
C276 C 0.22731 0.56232 0.70073 0.0
C277 C 0.20815 0.55629 0.71069 0.0
C278 C 0.20045 0.53932 0.68715 0.0
C279 C 0.21174 0.5283 0.65331 0.0
C280 C 0.23073 0.53427 0.64283 0.0
C281 C 0.2385 0.55123 0.6663 0.0
H282 H 0.20575 0.51516 0.63511 0.0
H283 H 0.28196 0.67966 0.86192 0.0
H284 H 0.82165 0.75597 0.18538 0.0
H285 H 0.84806 0.74445 0.24084 0.0
H286 H 0.88841 0.78338 0.17046 0.0
H287 H 0.86208 0.79488 0.11396 0.0
H288 H 0.90472 0.74749 0.18619 0.0
H289 H 0.87067 0.79578 0.28376 0.0
H290 H 0.842 0.81215 0.32077 0.0
H291 H 0.82919 0.76062 0.40416 0.0
H292 H 0.85764 0.74382 0.36705 0.0
H293 H 0.97492 0.74652 0.3971 0.0
H294 H 0.95246 0.75414 0.32626 0.0
H295 H 0.90982 0.71449 0.38447 0.0
H296 H 0.93227 0.70663 0.45489 0.0
H297 H 0.89579 0.75186 0.37313 0.0
H298 H 0.93116 0.70397 0.2743 0.0
H299 H 0.96054 0.68891 0.23744 0.0
H300 H 0.97204 0.7416 0.15757 0.0
H301 H 0.94286 0.75709 0.19454 0.0
C302 C 0.83612 0.76213 0.18152 0.0
C303 C 0.83967 0.77652 0.14545 0.0
C304 C 0.8512 0.75551 0.21333 0.0
C305 C 0.87012 0.76324 0.21017 0.0
C306 C 0.87389 0.77725 0.17351 0.0
C307 C 0.85879 0.78388 0.14147 0.0
C308 C 0.88575 0.75701 0.24628 0.0
C309 C 0.90291 0.74866 0.2271 0.0
C310 C 0.88327 0.7584 0.29959 0.0
C311 C 0.86619 0.76848 0.32224 0.0
C312 C 0.86166 0.78788 0.30969 0.0
C313 C 0.84546 0.79725 0.33073 0.0
C314 C 0.83375 0.78741 0.3647 0.0
C315 C 0.83826 0.76821 0.3778 0.0
C316 C 0.85443 0.75876 0.3568 0.0
C317 C 0.96101 0.73897 0.39386 0.0
C318 C 0.95525 0.72613 0.43178 0.0
C319 C 0.94817 0.74338 0.35348 0.0
C320 C 0.92945 0.73496 0.3504 0.0
C321 C 0.92417 0.72123 0.38643 0.0
C322 C 0.93698 0.71678 0.42661 0.0
C323 C 0.91461 0.74195 0.31314 0.0
C324 C 0.8976 0.75062 0.33223 0.0
C325 C 0.9174 0.74106 0.25993 0.0
C326 C 0.93493 0.73176 0.23763 0.0
C327 C 0.94005 0.71241 0.24926 0.0
C328 C 0.95665 0.70378 0.22826 0.0
C329 C 0.96818 0.71431 0.1953 0.0
C330 C 0.96311 0.73347 0.18316 0.0
C331 C 0.94653 0.74218 0.20409 0.0
H332 H 0.98102 0.7076 0.17907 0.0
H333 H 0.82122 0.79469 0.38095 0.0
H334 H 0.70724 0.36814 0.58478 0.0
H335 H 0.7191 0.39608 0.63659 0.0
H336 H 0.75304 0.35715 0.7307 0.0
H337 H 0.74163 0.32924 0.67875 0.0
H338 H 0.7138 0.40486 0.73236 0.0
H339 H 0.79378 0.37871 0.77656 0.0
H340 H 0.82 0.36091 0.73222 0.0
H341 H 0.79523 0.37724 0.58753 0.0
H342 H 0.76904 0.39539 0.63096 0.0
H343 H 0.7478 0.43932 0.96872 0.0
H344 H 0.7389 0.42053 0.8918 0.0
H345 H 0.78135 0.45243 0.80756 0.0
H346 H 0.79106 0.4708 0.88561 0.0
H347 H 0.78345 0.41483 0.7838 0.0
H348 H 0.73231 0.46117 0.78965 0.0
H349 H 0.70622 0.48123 0.82766 0.0
H350 H 0.67383 0.42927 0.85911 0.0
H351 H 0.69985 0.40887 0.82196 0.0
C352 C 0.71733 0.36551 0.61632 0.0
C353 C 0.72344 0.3464 0.62761 0.0
C354 C 0.72409 0.38152 0.64586 0.0
C355 C 0.73714 0.37874 0.68713 0.0
C356 C 0.74331 0.35971 0.69838 0.0
C357 C 0.73664 0.34372 0.66879 0.0
C358 C 0.74346 0.3955 0.72054 0.0
C359 C 0.72904 0.40716 0.74326 0.0
C360 C 0.7634 0.39895 0.73348 0.0
C361 C 0.77935 0.38832 0.7071 0.0
C362 C 0.79399 0.37862 0.7353 0.0
C363 C 0.80884 0.36844 0.71031 0.0
C364 C 0.80926 0.36791 0.6571 0.0
C365 C 0.79486 0.37761 0.62875 0.0
C366 C 0.77999 0.38783 0.65354 0.0
C367 C 0.75541 0.44226 0.93401 0.0
C368 C 0.77028 0.45645 0.93341 0.0
C369 C 0.7501 0.43168 0.88981 0.0
C370 C 0.75925 0.43526 0.84369 0.0
C371 C 0.77403 0.4495 0.84271 0.0
C372 C 0.77946 0.46007 0.88719 0.0
C373 C 0.7537 0.42348 0.79735 0.0
C374 C 0.76825 0.41277 0.7722 0.0
C375 C 0.73391 0.42128 0.78108 0.0
C376 C 0.7181 0.43348 0.80317 0.0
C377 C 0.71968 0.45401 0.80493 0.0
C378 C 0.70489 0.46544 0.8263 0.0
C379 C 0.68839 0.45653 0.84583 0.0
C380 C 0.68662 0.43616 0.84394 0.0
C381 C 0.70137 0.42465 0.82264 0.0
H382 H 0.67696 0.46541 0.86239 0.0
H383 H 0.82075 0.36 0.63784 0.0
H384 H 0.66825 0.25004 0.36791 0.0
H385 H 0.64096 0.23806 0.31447 0.0
H386 H 0.6096 0.29182 0.3433 0.0
H387 H 0.63671 0.30373 0.39837 0.0
H388 H 0.58515 0.26095 0.34227 0.0
H389 H 0.6352 0.28473 0.23361 0.0
H390 H 0.66862 0.28699 0.201 0.0
H391 H 0.66745 0.22576 0.16031 0.0
H392 H 0.6341 0.22308 0.1933 0.0
H393 H 0.52305 0.25832 0.11861 0.0
H394 H 0.54478 0.26474 0.19271 0.0
H395 H 0.57707 0.21207 0.15682 0.0
H396 H 0.5558 0.20621 0.08153 0.0
H397 H 0.60058 0.24146 0.16449 0.0
H398 H 0.54899 0.21834 0.26815 0.0
H399 H 0.51537 0.21679 0.2997 0.0
H400 H 0.51885 0.27716 0.3483 0.0
H401 H 0.5524 0.27916 0.31642 0.0
C402 C 0.65555 0.25933 0.363 0.0
C403 C 0.65476 0.27797 0.38673 0.0
C404 C 0.63995 0.25244 0.33248 0.0
C405 C 0.62342 0.2642 0.32412 0.0
C406 C 0.62225 0.28254 0.34914 0.0
C407 C 0.63778 0.28936 0.38037 0.0
C408 C 0.60785 0.25772 0.28724 0.0
C409 C 0.58844 0.25683 0.30323 0.0
C410 C 0.61224 0.25203 0.23661 0.0
C411 C 0.63223 0.25367 0.21634 0.0
C412 C 0.64212 0.27172 0.21799 0.0
C413 C 0.66104 0.27308 0.19941 0.0
C414 C 0.67017 0.25652 0.17871 0.0
C415 C 0.66037 0.23857 0.17641 0.0
C416 C 0.64145 0.23713 0.195 0.0
C417 C 0.53444 0.24787 0.1277 0.0
C418 C 0.53783 0.23176 0.09501 0.0
C419 C 0.54682 0.25148 0.17002 0.0
C420 C 0.56253 0.23883 0.18054 0.0
C421 C 0.56507 0.22203 0.14944 0.0
C422 C 0.55291 0.21862 0.10672 0.0
C423 C 0.57777 0.24438 0.21944 0.0
C424 C 0.5972 0.24529 0.20366 0.0
C425 C 0.57331 0.25014 0.27003 0.0
C426 C 0.55317 0.24893 0.28952 0.0
C427 C 0.54254 0.23132 0.28523 0.0
C428 C 0.5235 0.23036 0.30324 0.0
C429 C 0.51497 0.24687 0.3259 0.0
C430 C 0.52547 0.26438 0.33072 0.0
C431 C 0.54451 0.26543 0.31275 0.0
H432 H 0.50022 0.2461 0.33979 0.0
H433 H 0.68482 0.2576 0.16436 0.0
H434 H 0.24575 0.17542 0.84354 0.0
H435 H 0.25759 0.149 0.78853 0.0
H436 H 0.21703 0.109 0.85412 0.0
H437 H 0.20517 0.13535 0.91014 0.0
H438 H 0.25325 0.09216 0.83952 0.0
H439 H 0.20578 0.12782 0.74218 0.0
H440 H 0.19037 0.15727 0.7066 0.0
H441 H 0.24269 0.16966 0.62618 0.0
H442 H 0.25853 0.14041 0.66188 0.0
H443 H 0.25533 0.02244 0.6278 0.0
H444 H 0.24764 0.04464 0.69943 0.0
H445 H 0.28533 0.08858 0.63883 0.0
H446 H 0.29282 0.06656 0.56719 0.0
H447 H 0.24934 0.10235 0.65308 0.0
H448 H 0.29667 0.0659 0.75069 0.0
H449 H 0.31151 0.03625 0.78674 0.0
H450 H 0.25871 0.0247 0.86594 0.0
H451 H 0.24344 0.05414 0.82979 0.0
C452 C 0.23932 0.16102 0.84651 0.0
C453 C 0.22432 0.15759 0.88092 0.0
C454 C 0.24614 0.14592 0.815 0.0
C455 C 0.238 0.12713 0.81683 0.0
C456 C 0.22346 0.12344 0.85212 0.0
C457 C 0.21664 0.13855 0.88387 0.0
C458 C 0.24416 0.11165 0.78019 0.0
C459 C 0.25219 0.09423 0.7987 0.0
C460 C 0.24295 0.11451 0.72705 0.0
C461 C 0.2334 0.13201 0.70508 0.0
C462 C 0.21405 0.1369 0.7172 0.0
C463 C 0.20523 0.15355 0.69697 0.0
C464 C 0.21556 0.16536 0.66425 0.0
C465 C 0.23472 0.16051 0.65157 0.0
C466 C 0.24362 0.14388 0.67175 0.0
C467 C 0.26237 0.03663 0.63071 0.0
C468 C 0.27453 0.0429 0.59195 0.0
C469 C 0.25797 0.0493 0.67154 0.0
C470 C 0.26586 0.0683 0.6743 0.0
C471 C 0.27899 0.07404 0.63724 0.0
C472 C 0.28328 0.06147 0.59644 0.0
C473 C 0.25889 0.08295 0.71224 0.0
C474 C 0.2505 0.10022 0.69388 0.0
C475 C 0.25969 0.07984 0.76534 0.0
C476 C 0.26884 0.06212 0.78708 0.0
C477 C 0.28816 0.05694 0.77542 0.0
C478 C 0.29666 0.04019 0.79595 0.0
C479 C 0.28604 0.02857 0.82849 0.0
C480 C 0.26691 0.0337 0.84067 0.0
C481 C 0.25833 0.05043 0.8202 0.0
H482 H 0.29265 0.01561 0.84437 0.0
H483 H 0.2087 0.17824 0.64863 0.0
H484 H 0.32642 0.72747 0.32547 0.0
H485 H 0.35503 0.7362 0.27663 0.0
H486 H 0.39281 0.72333 0.40532 0.0
H487 H 0.36427 0.71413 0.45432 0.0
H488 H 0.39927 0.76142 0.35151 0.0
H489 H 0.39437 0.69162 0.32451 0.0
H490 H 0.37668 0.66096 0.3031 0.0
H491 H 0.36219 0.68213 0.15424 0.0
H492 H 0.37953 0.71307 0.17508 0.0
H493 H 0.47663 0.74144 0.13946 0.0
H494 H 0.45698 0.7314 0.21146 0.0
H495 H 0.41794 0.77997 0.18632 0.0
H496 H 0.43736 0.78985 0.11405 0.0
H497 H 0.41682 0.72114 0.19944 0.0
H498 H 0.40162 0.79478 0.30541 0.0
H499 H 0.41862 0.82585 0.32662 0.0
H500 H 0.47411 0.79669 0.31854 0.0
H501 H 0.45745 0.76539 0.29805 0.0
C502 C 0.3408 0.72655 0.34347 0.0
C503 C 0.34312 0.72005 0.39365 0.0
C504 C 0.35709 0.7315 0.31551 0.0
C505 C 0.37593 0.73034 0.33749 0.0
C506 C 0.37833 0.72429 0.38788 0.0
C507 C 0.36205 0.71897 0.41561 0.0
C508 C 0.39307 0.73517 0.30709 0.0
C509 C 0.40327 0.75258 0.31847 0.0
C510 C 0.3983 0.72344 0.2645 0.0
C511 C 0.38812 0.70473 0.25153 0.0
C512 C 0.38728 0.6898 0.28736 0.0
C513 C 0.37734 0.67236 0.2753 0.0
C514 C 0.36828 0.66961 0.22738 0.0
C515 C 0.3692 0.68428 0.19136 0.0
C516 C 0.3791 0.70177 0.20326 0.0
C517 C 0.46411 0.75019 0.15018 0.0
C518 C 0.45845 0.7664 0.12147 0.0
C519 C 0.45287 0.7444 0.19098 0.0
C520 C 0.43608 0.75499 0.20416 0.0
C521 C 0.43095 0.77172 0.17698 0.0
C522 C 0.44199 0.77732 0.13577 0.0
C523 C 0.42281 0.74767 0.24308 0.0
C524 C 0.41316 0.72983 0.23302 0.0
C525 C 0.4181 0.75904 0.28684 0.0
C526 C 0.42826 0.77776 0.2998 0.0
C527 C 0.41744 0.79497 0.30841 0.0
C528 C 0.42703 0.81263 0.32026 0.0
C529 C 0.44743 0.81325 0.3238 0.0
C530 C 0.4583 0.7962 0.31562 0.0
C531 C 0.4488 0.77851 0.30379 0.0
H532 H 0.45482 0.82694 0.33295 0.0
H533 H 0.36057 0.65611 0.21814 0.0
H534 H 0.75605 0.82351 0.85026 0.0
H535 H 0.74511 0.85024 0.797 0.0
H536 H 0.78488 0.88967 0.87779 0.0
H537 H 0.79582 0.863 0.9321 0.0
H538 H 0.74933 0.90679 0.85966 0.0
H539 H 0.79689 0.87176 0.76364 0.0
H540 H 0.81261 0.84274 0.72482 0.0
H541 H 0.76085 0.83117 0.63318 0.0
H542 H 0.74471 0.85997 0.67202 0.0
H543 H 0.74999 0.97728 0.65822 0.0
H544 H 0.75692 0.95463 0.72724 0.0
H545 H 0.71675 0.91274 0.65739 0.0
H546 H 0.70961 0.93536 0.5887 0.0
H547 H 0.75362 0.89795 0.6721 0.0
H548 H 0.70644 0.93422 0.76941 0.0
H549 H 0.69194 0.96385 0.80836 0.0
H550 H 0.74472 0.97418 0.89682 0.0
H551 H 0.75966 0.94475 0.85784 0.0
C552 C 0.76253 0.83783 0.85688 0.0
C553 C 0.77698 0.84102 0.89523 0.0
C554 C 0.75623 0.85311 0.82632 0.0
C555 C 0.76436 0.87187 0.83304 0.0
C556 C 0.77845 0.87528 0.87198 0.0
C557 C 0.78474 0.85999 0.90277 0.0
C558 C 0.75848 0.88767 0.79824 0.0
C559 C 0.75049 0.905 0.81866 0.0
C560 C 0.75983 0.88521 0.74478 0.0
C561 C 0.76953 0.86792 0.7211 0.0
C562 C 0.7888 0.86294 0.73549 0.0
C563 C 0.7978 0.84654 0.71344 0.0
C564 C 0.78772 0.83509 0.67665 0.0
C565 C 0.76863 0.84004 0.66174 0.0
C566 C 0.75956 0.85641 0.68372 0.0
C567 C 0.74217 0.96351 0.6585 0.0
C568 C 0.72942 0.95798 0.61784 0.0
C569 C 0.74619 0.95056 0.69785 0.0
C570 C 0.73744 0.93197 0.69716 0.0
C571 C 0.72375 0.92697 0.65837 0.0
C572 C 0.71971 0.93988 0.61919 0.0
C573 C 0.74407 0.91693 0.73334 0.0
C574 C 0.75239 0.89976 0.71309 0.0
C575 C 0.74321 0.91969 0.78681 0.0
C576 C 0.73424 0.93739 0.81029 0.0
C577 C 0.71503 0.94291 0.79681 0.0
C578 C 0.70671 0.95964 0.81898 0.0
C579 C 0.71742 0.97092 0.85494 0.0
C580 C 0.73645 0.96545 0.86891 0.0
C581 C 0.74484 0.94873 0.84682 0.0
H582 H 0.71095 0.98387 0.87206 0.0
H583 H 0.7947 0.8224 0.65961 0.0
H584 H 0.86226 0.7978 0.93242 0.0
H585 H 0.88993 0.78706 0.88179 0.0
H586 H 0.85429 0.74163 0.81032 0.0
H587 H 0.82651 0.75214 0.86095 0.0
H588 H 0.89136 0.72862 0.83747 0.0
H589 H 0.86183 0.78255 0.74878 0.0
H590 H 0.84947 0.81626 0.74083 0.0
H591 H 0.90655 0.83896 0.78015 0.0
H592 H 0.91918 0.80535 0.78903 0.0
H593 H 0.93585 0.70784 0.60275 0.0
H594 H 0.91552 0.71611 0.67527 0.0
H595 H 0.95673 0.76093 0.72443 0.0
H596 H 0.97699 0.75294 0.6509 0.0
H597 H 0.92018 0.77501 0.71765 0.0
H598 H 0.95061 0.72029 0.79528 0.0
H599 H 0.96255 0.68638 0.80146 0.0
H600 H 0.90383 0.66481 0.78174 0.0
H601 H 0.89155 0.69858 0.77469 0.0
C602 C 0.86027 0.78547 0.9061 0.0
C603 C 0.84207 0.77593 0.90052 0.0
C604 C 0.87612 0.77938 0.87717 0.0
C605 C 0.87409 0.76365 0.84211 0.0
C606 C 0.85614 0.75379 0.83726 0.0
C607 C 0.84024 0.75991 0.86602 0.0
C608 C 0.89047 0.7579 0.80908 0.0
C609 C 0.89762 0.73869 0.811 0.0
C610 C 0.89894 0.77125 0.77569 0.0
C611 C 0.89139 0.79145 0.77017 0.0
C612 C 0.8717 0.79473 0.75617 0.0
C613 C 0.86465 0.81382 0.75141 0.0
C614 C 0.8772 0.82975 0.76015 0.0
C615 C 0.89684 0.82661 0.7735 0.0
C616 C 0.90395 0.80755 0.77838 0.0
C617 C 0.94071 0.71927 0.62944 0.0
C618 C 0.95791 0.72984 0.62108 0.0
C619 C 0.92917 0.72388 0.67111 0.0
C620 C 0.93466 0.73907 0.70545 0.0
C621 C 0.95227 0.74912 0.69843 0.0
C622 C 0.96388 0.74446 0.65669 0.0
C623 C 0.92099 0.74558 0.74539 0.0
C624 C 0.91424 0.76497 0.74471 0.0
C625 C 0.91287 0.73236 0.77977 0.0
C626 C 0.92018 0.71199 0.78413 0.0
C627 C 0.94025 0.70831 0.79187 0.0
C628 C 0.94708 0.68911 0.7956 0.0
C629 C 0.93396 0.67345 0.79191 0.0
C630 C 0.91398 0.67696 0.78458 0.0
C631 C 0.90707 0.69613 0.7808 0.0
H632 H 0.93927 0.65859 0.7948 0.0
H633 H 0.87172 0.84451 0.75644 0.0
H634 H 0.74531 0.32447 0.35027 0.0
H635 H 0.7588 0.35125 0.30223 0.0
H636 H 0.71575 0.39065 0.36438 0.0
H637 H 0.70205 0.36397 0.41249 0.0
H638 H 0.71907 0.39403 0.26158 0.0
H639 H 0.76183 0.39343 0.4083 0.0
H640 H 0.78396 0.37853 0.47194 0.0
H641 H 0.8236 0.36202 0.35405 0.0
H642 H 0.80156 0.37658 0.28954 0.0
H643 H 0.75978 0.47731 0.15664 0.0
H644 H 0.75144 0.45611 0.22679 0.0
H645 H 0.79005 0.41151 0.16816 0.0
H646 H 0.79859 0.43272 0.09823 0.0
H647 H 0.78912 0.41295 0.27588 0.0
H648 H 0.74505 0.41009 0.12935 0.0
H649 H 0.72308 0.42441 0.06438 0.0
H650 H 0.68585 0.44661 0.18182 0.0
H651 H 0.70783 0.43273 0.24758 0.0
C652 C 0.73864 0.3388 0.35369 0.0
C653 C 0.72257 0.34204 0.38528 0.0
C654 C 0.74648 0.35413 0.32647 0.0
C655 C 0.73843 0.37297 0.3303 0.0
C656 C 0.72223 0.37622 0.36113 0.0
C657 C 0.71443 0.36093 0.38859 0.0
C658 C 0.74659 0.38916 0.3009 0.0
C659 C 0.73429 0.39843 0.26546 0.0
C660 C 0.76655 0.39458 0.30527 0.0
C661 C 0.77995 0.38596 0.34401 0.0
C662 C 0.77519 0.3865 0.39587 0.0
C663 C 0.78773 0.37813 0.43212 0.0
C664 C 0.80515 0.36929 0.41703 0.0
C665 C 0.81009 0.36886 0.36567 0.0
C666 C 0.79759 0.37719 0.32925 0.0
C667 C 0.767 0.46326 0.15975 0.0
C668 C 0.77966 0.45653 0.12179 0.0
C669 C 0.76216 0.45114 0.19964 0.0
C670 C 0.76992 0.43216 0.2021 0.0
C671 C 0.78388 0.42609 0.16682 0.0
C672 C 0.78866 0.43816 0.1268 0.0
C673 C 0.76158 0.41775 0.23672 0.0
C674 C 0.77384 0.40874 0.27276 0.0
C675 C 0.74158 0.41246 0.23286 0.0
C676 C 0.7282 0.42058 0.19339 0.0
C677 C 0.73226 0.41817 0.14133 0.0
C678 C 0.7198 0.42618 0.10437 0.0
C679 C 0.7031 0.43646 0.11897 0.0
C680 C 0.69881 0.43869 0.17058 0.0
C681 C 0.71127 0.43075 0.20771 0.0
H682 H 0.69347 0.44265 0.0903 0.0
H683 H 0.81483 0.36281 0.44514 0.0
H684 H 0.13692 0.19873 0.90608 0.0
H685 H 0.1104 0.20712 0.8466 0.0
H686 H 0.1466 0.25154 0.78281 0.0
H687 H 0.17333 0.24307 0.8414 0.0
H688 H 0.08943 0.23938 0.82804 0.0
H689 H 0.1388 0.25169 0.65485 0.0
H690 H 0.17048 0.24029 0.62227 0.0
H691 H 0.16524 0.18706 0.70438 0.0
H692 H 0.13341 0.198 0.73681 0.0
H693 H 0.03613 0.28545 0.62566 0.0
H694 H 0.05855 0.27594 0.69521 0.0
H695 H 0.07057 0.22159 0.61457 0.0
H696 H 0.04885 0.23144 0.54457 0.0
H697 H 0.10288 0.23692 0.64314 0.0
H698 H 0.04289 0.22458 0.72626 0.0
H699 H 0.01008 0.23199 0.75852 0.0
H700 H 0.03413 0.27797 0.85525 0.0
H701 H 0.06706 0.27102 0.82303 0.0
C702 C 0.13925 0.21035 0.87957 0.0
C703 C 0.15738 0.22006 0.87815 0.0
C704 C 0.12402 0.21518 0.84576 0.0
C705 C 0.12662 0.22977 0.8099 0.0
C706 C 0.14441 0.24 0.80966 0.0
C707 C 0.15967 0.23514 0.84325 0.0
C708 C 0.11107 0.23374 0.77128 0.0
C709 C 0.09232 0.23887 0.78758 0.0
C710 C 0.11477 0.2326 0.71851 0.0
C711 C 0.13382 0.22579 0.69871 0.0
C712 C 0.14438 0.23753 0.66581 0.0
C713 C 0.16236 0.23115 0.64737 0.0
C714 C 0.1699 0.213 0.6614 0.0
C715 C 0.15943 0.20115 0.69371 0.0
C716 C 0.14142 0.20744 0.71217 0.0
C717 C 0.04336 0.27136 0.62346 0.0
C718 C 0.0409 0.25917 0.57999 0.0
C719 C 0.05611 0.2659 0.66314 0.0
C720 C 0.06622 0.248 0.66025 0.0
C721 C 0.06306 0.23551 0.61758 0.0
C722 C 0.05061 0.24109 0.57773 0.0
C723 C 0.08112 0.24276 0.69968 0.0
C724 C 0.09987 0.23745 0.68354 0.0
C725 C 0.0772 0.24317 0.75242 0.0
C726 C 0.05741 0.2474 0.77183 0.0
C727 C 0.04116 0.23638 0.75409 0.0
C728 C 0.02254 0.24048 0.77243 0.0
C729 C 0.02001 0.25548 0.80881 0.0
C730 C 0.0361 0.26638 0.82702 0.0
C731 C 0.05475 0.26236 0.80876 0.0
H732 H 0.00559 0.25862 0.82297 0.0
H733 H 0.18383 0.2081 0.64713 0.0
H734 H 0.28945 0.63513 0.42889 0.0
H735 H 0.27979 0.60767 0.37254 0.0
H736 H 0.25295 0.64774 0.26737 0.0
H737 H 0.26212 0.67525 0.32396 0.0
H738 H 0.23058 0.61676 0.27539 0.0
H739 H 0.29877 0.62853 0.24755 0.0
H740 H 0.33355 0.63264 0.27258 0.0
H741 H 0.33491 0.57431 0.32972 0.0
H742 H 0.30005 0.56994 0.30554 0.0
H743 H 0.26061 0.55519 0.04336 0.0
H744 H 0.26949 0.57615 0.1167 0.0
H745 H 0.22379 0.55005 0.203 0.0
H746 H 0.21437 0.52937 0.12858 0.0
H747 H 0.28186 0.57181 0.21099 0.0
H748 H 0.20333 0.58659 0.27698 0.0
H749 H 0.16946 0.58583 0.24223 0.0
H750 H 0.1904 0.59645 0.09249 0.0
H751 H 0.22433 0.59754 0.12648 0.0
C752 C 0.28145 0.63812 0.39383 0.0
C753 C 0.27669 0.65743 0.38077 0.0
C754 C 0.27596 0.62239 0.36165 0.0
C755 C 0.26586 0.62567 0.31547 0.0
C756 C 0.26071 0.64486 0.30288 0.0
C757 C 0.26604 0.66059 0.33521 0.0
C758 C 0.26117 0.60923 0.27932 0.0
C759 C 0.24177 0.60682 0.26165 0.0
C760 C 0.2758 0.59642 0.26086 0.0
C761 C 0.29676 0.59899 0.27528 0.0
C762 C 0.30645 0.61663 0.2658 0.0
C763 C 0.32618 0.619 0.27976 0.0
C764 C 0.33642 0.60377 0.30287 0.0
C765 C 0.32696 0.58611 0.3119 0.0
C766 C 0.30722 0.58367 0.29805 0.0
C767 C 0.25248 0.55386 0.07802 0.0
C768 C 0.23656 0.54093 0.08002 0.0
C769 C 0.2577 0.56571 0.12008 0.0
C770 C 0.24714 0.56486 0.1651 0.0
C771 C 0.23196 0.55112 0.16834 0.0
C772 C 0.22667 0.53924 0.12601 0.0
C773 C 0.2513 0.57943 0.20676 0.0
C774 C 0.2706 0.58148 0.22554 0.0
C775 C 0.23671 0.59233 0.22496 0.0
C776 C 0.21636 0.59188 0.20419 0.0
C777 C 0.20068 0.5888 0.23667 0.0
C778 C 0.18148 0.58831 0.21711 0.0
C779 C 0.17779 0.59101 0.16515 0.0
C780 C 0.19328 0.59428 0.13268 0.0
C781 C 0.2125 0.59482 0.15207 0.0
H782 H 0.16292 0.59061 0.15008 0.0
H783 H 0.35169 0.60563 0.31365 0.0
H784 H 0.32108 0.74379 0.6814 0.0
H785 H 0.34797 0.75542 0.73685 0.0
H786 H 0.38746 0.71578 0.66087 0.0
H787 H 0.3606 0.7038 0.60553 0.0
H788 H 0.39199 0.71452 0.76259 0.0
H789 H 0.38872 0.76453 0.63834 0.0
H790 H 0.37247 0.78932 0.58537 0.0
H791 H 0.3562 0.82169 0.72003 0.0
H792 H 0.37211 0.79694 0.77387 0.0
H793 H 0.47483 0.75236 0.89429 0.0
H794 H 0.45303 0.74523 0.82096 0.0
H795 H 0.40859 0.78197 0.88725 0.0
H796 H 0.43054 0.78966 0.95991 0.0
H797 H 0.4088 0.78494 0.78379 0.0
H798 H 0.40858 0.7337 0.9071 0.0
H799 H 0.42372 0.70872 0.96161 0.0
H800 H 0.44557 0.6786 0.82926 0.0
H801 H 0.43079 0.70359 0.774 0.0
C802 C 0.33547 0.73751 0.67635 0.0
C803 C 0.33864 0.72283 0.63893 0.0
C804 C 0.35086 0.74429 0.70791 0.0
C805 C 0.36976 0.73666 0.70248 0.0
C806 C 0.37298 0.72192 0.66552 0.0
C807 C 0.35759 0.71509 0.63394 0.0
C808 C 0.38601 0.74362 0.73663 0.0
C809 C 0.39593 0.72987 0.76645 0.0
C810 C 0.39083 0.76371 0.74244 0.0
C811 C 0.38149 0.77878 0.71016 0.0
C812 C 0.38157 0.77687 0.65668 0.0
C813 C 0.37243 0.79092 0.62649 0.0
C814 C 0.36327 0.80705 0.64932 0.0
C815 C 0.36329 0.80919 0.7024 0.0
C816 C 0.37239 0.79516 0.73277 0.0
C817 C 0.46063 0.75937 0.89256 0.0
C818 C 0.4543 0.7714 0.93311 0.0
C819 C 0.44814 0.75515 0.85084 0.0
C820 C 0.42908 0.76279 0.84918 0.0
C821 C 0.42321 0.77584 0.88792 0.0
C822 C 0.4357 0.78009 0.92957 0.0
C823 C 0.41466 0.75584 0.80978 0.0
C824 C 0.40504 0.76957 0.77923 0.0
C825 C 0.41001 0.73573 0.80337 0.0
C826 C 0.41878 0.72063 0.83649 0.0
C827 C 0.41674 0.72183 0.88966 0.0
C828 C 0.42524 0.70766 0.92068 0.0
C829 C 0.43565 0.69212 0.89892 0.0
C830 C 0.43754 0.69068 0.84607 0.0
C831 C 0.4291 0.70483 0.81488 0.0
H832 H 0.44222 0.68116 0.92299 0.0
H833 H 0.35618 0.8179 0.62588 0.0
H834 H 0.79865 0.86233 0.11511 0.0
H835 H 0.78873 0.89009 0.16871 0.0
H836 H 0.74188 0.85573 0.22758 0.0
H837 H 0.7516 0.82781 0.17392 0.0
H838 H 0.73038 0.89358 0.20449 0.0
H839 H 0.78242 0.86141 0.29672 0.0
H840 H 0.81544 0.84745 0.3081 0.0
H841 H 0.84095 0.90356 0.28136 0.0
H842 H 0.80805 0.9178 0.26909 0.0
H843 H 0.71092 0.93911 0.44219 0.0
H844 H 0.71849 0.91829 0.36844 0.0
H845 H 0.76506 0.95753 0.33038 0.0
H846 H 0.7577 0.97833 0.40508 0.0
H847 H 0.77748 0.92016 0.33529 0.0
H848 H 0.72461 0.95314 0.25319 0.0
H849 H 0.69134 0.96664 0.24344 0.0
H850 H 0.66703 0.90895 0.25244 0.0
H851 H 0.70014 0.89511 0.26301 0.0
C852 C 0.78617 0.86064 0.13926 0.0
C853 C 0.77601 0.84275 0.14043 0.0
C854 C 0.78055 0.87654 0.1699 0.0
C855 C 0.76468 0.8749 0.20232 0.0
C856 C 0.75418 0.85727 0.20274 0.0
C857 C 0.75983 0.8413 0.17226 0.0
C858 C 0.75944 0.89133 0.23717 0.0
C859 C 0.74059 0.89934 0.23336 0.0
C860 C 0.773 0.89913 0.27382 0.0
C861 C 0.79278 0.89062 0.28139 0.0
C862 C 0.79507 0.87074 0.29283 0.0
C863 C 0.81376 0.86278 0.29952 0.0
C864 C 0.83028 0.8746 0.29529 0.0
C865 C 0.82814 0.89442 0.28452 0.0
C866 C 0.80947 0.90244 0.27772 0.0
C867 C 0.72258 0.94345 0.41763 0.0
C868 C 0.73381 0.96024 0.42943 0.0
C869 C 0.7268 0.93163 0.37529 0.0
C870 C 0.74228 0.9364 0.34374 0.0
C871 C 0.75302 0.95362 0.3542 0.0
C872 C 0.74873 0.96554 0.39659 0.0
C873 C 0.74829 0.92237 0.30312 0.0
C874 C 0.76731 0.9147 0.30591 0.0
C875 C 0.73485 0.91486 0.26571 0.0
C876 C 0.71488 0.9231 0.25925 0.0
C877 C 0.71217 0.94334 0.25349 0.0
C878 C 0.69333 0.95105 0.24774 0.0
C879 C 0.67708 0.93866 0.24741 0.0
C880 C 0.67963 0.91853 0.25272 0.0
C881 C 0.69844 0.91074 0.25852 0.0
H882 H 0.66251 0.94466 0.24295 0.0
H883 H 0.84474 0.86841 0.3005 0.0
H884 H 0.67492 0.27706 0.69777 0.0
H885 H 0.64762 0.26786 0.75045 0.0
H886 H 0.60718 0.27903 0.62573 0.0
H887 H 0.63439 0.28913 0.5736 0.0
H888 H 0.59265 0.29229 0.71087 0.0
H889 H 0.62273 0.23175 0.65721 0.0
H890 H 0.65143 0.21035 0.64627 0.0
H891 H 0.66061 0.20939 0.80857 0.0
H892 H 0.63227 0.23118 0.82047 0.0
H893 H 0.53242 0.21604 0.86192 0.0
H894 H 0.55364 0.22452 0.79143 0.0
H895 H 0.57277 0.27641 0.87529 0.0
H896 H 0.55174 0.26798 0.94552 0.0
H897 H 0.59449 0.22884 0.79883 0.0
H898 H 0.57983 0.3123 0.78929 0.0
H899 H 0.55238 0.33531 0.80032 0.0
H900 H 0.51148 0.28942 0.76092 0.0
H901 H 0.53868 0.26621 0.74891 0.0
C902 C 0.66021 0.27755 0.6816 0.0
C903 C 0.65678 0.28368 0.6315 0.0
C904 C 0.64462 0.27223 0.71165 0.0
C905 C 0.62538 0.27234 0.69165 0.0
C906 C 0.62191 0.27875 0.64188 0.0
C907 C 0.63746 0.28448 0.61213 0.0
C908 C 0.60891 0.2657 0.72265 0.0
C909 C 0.593 0.27836 0.72982 0.0
C910 C 0.6092 0.24736 0.7467 0.0
C911 C 0.62543 0.2332 0.73969 0.0
C912 C 0.63087 0.22696 0.69057 0.0
C913 C 0.64711 0.21481 0.6842 0.0
C914 C 0.65788 0.20857 0.7267 0.0
C915 C 0.65228 0.21428 0.77569 0.0
C916 C 0.63613 0.22652 0.78227 0.0
C917 C 0.54097 0.22938 0.86478 0.0
C918 C 0.54057 0.24134 0.90901 0.0
C919 C 0.5531 0.23414 0.82478 0.0
C920 C 0.56466 0.25111 0.82821 0.0
C921 C 0.56382 0.26334 0.87178 0.0
C922 C 0.55191 0.25848 0.91189 0.0
C923 C 0.57855 0.25563 0.78787 0.0
C924 C 0.594 0.2426 0.7791 0.0
C925 C 0.57778 0.27355 0.76211 0.0
C926 C 0.56132 0.28748 0.76857 0.0
C927 C 0.56499 0.30714 0.78271 0.0
C928 C 0.54947 0.32021 0.78919 0.0
C929 C 0.5302 0.31382 0.78145 0.0
C930 C 0.52641 0.29434 0.76708 0.0
C931 C 0.54187 0.28122 0.76051 0.0
H932 H 0.51821 0.32396 0.78652 0.0
H933 H 0.67056 0.19932 0.72173 0.0
H934 H 0.21908 0.13558 0.06417 0.0
H935 H 0.23083 0.10812 0.11434 0.0
H936 H 0.24098 0.14725 0.2439 0.0
H937 H 0.23014 0.17489 0.19308 0.0
H938 H 0.26915 0.12246 0.24064 0.0
H939 H 0.19851 0.11691 0.22685 0.0
H940 H 0.16679 0.11396 0.18046 0.0
H941 H 0.1859 0.06064 0.10745 0.0
H942 H 0.21781 0.06339 0.15301 0.0
H943 H 0.23805 0.04889 0.43281 0.0
H944 H 0.22985 0.06965 0.3609 0.0
H945 H 0.28468 0.05464 0.29205 0.0
H946 H 0.29295 0.03372 0.36446 0.0
H947 H 0.22588 0.06479 0.2572 0.0
H948 H 0.30262 0.09829 0.24737 0.0
H949 H 0.33227 0.10296 0.30189 0.0
H950 H 0.29723 0.10338 0.43549 0.0
H951 H 0.26741 0.09898 0.38173 0.0
C952 C 0.22385 0.13831 0.10336 0.0
C953 C 0.22352 0.15734 0.12493 0.0
C954 C 0.23054 0.1226 0.13202 0.0
C955 C 0.23646 0.12552 0.18323 0.0
C956 C 0.2365 0.1446 0.20447 0.0
C957 C 0.23022 0.16038 0.17549 0.0
C958 C 0.24209 0.10875 0.2154 0.0
C959 C 0.25974 0.10979 0.24383 0.0
C960 C 0.22982 0.0922 0.21993 0.0
C961 C 0.21059 0.09046 0.19291 0.0
C962 C 0.19597 0.10462 0.20068 0.0
C963 C 0.17796 0.10297 0.17457 0.0
C964 C 0.17436 0.08715 0.14092 0.0
C965 C 0.18873 0.0729 0.13345 0.0
C966 C 0.20677 0.07449 0.15943 0.0
C967 C 0.24818 0.04977 0.40185 0.0
C968 C 0.26617 0.0399 0.4041 0.0
C969 C 0.24345 0.06153 0.36074 0.0
C970 C 0.25673 0.06379 0.32145 0.0
C971 C 0.2743 0.05313 0.32223 0.0
C972 C 0.27898 0.04117 0.36332 0.0
C973 C 0.25274 0.0787 0.28262 0.0
C974 C 0.23544 0.07729 0.25299 0.0
C975 C 0.26505 0.09515 0.27797 0.0
C976 C 0.28286 0.09805 0.31056 0.0
C977 C 0.30127 0.09943 0.28837 0.0
C978 C 0.3181 0.10203 0.31913 0.0
C979 C 0.31664 0.10339 0.37213 0.0
C980 C 0.29835 0.10224 0.39446 0.0
C981 C 0.28149 0.09967 0.36387 0.0
H982 H 0.32969 0.10539 0.39587 0.0
H983 H 0.16041 0.08591 0.12072 0.0
H984 H 0.2177 0.2831 0.92938 0.0
H985 H 0.21578 0.31877 0.9313 0.0
H986 H 0.20687 0.31866 0.09337 0.0
H987 H 0.20864 0.28293 0.09196 0.0
H988 H 0.18202 0.34404 0.04364 0.0
H989 H 0.25084 0.32947 0.0504 0.0
H990 H 0.28114 0.3137 0.02121 0.0
H991 H 0.27529 0.34243 0.878 0.0
H992 H 0.24478 0.35815 0.90607 0.0
H993 H 0.20324 0.44378 0.10312 0.0
H994 H 0.20271 0.40797 0.09834 0.0
H995 H 0.21566 0.40936 0.93839 0.0
H996 H 0.21655 0.44513 0.94321 0.0
H997 H 0.23798 0.38316 0.98534 0.0
H998 H 0.16968 0.39829 0.97814 0.0
H999 H 0.13902 0.41376 0.00586 0.0
H1000 H 0.1434 0.38398 0.14782 0.0
H1001 H 0.17424 0.36852 0.12123 0.0
C1002 C 0.21527 0.2906 0.96549 0.0
C1003 C 0.21345 0.2801 0.01059 0.0
C1004 C 0.21423 0.31101 0.96649 0.0
C1005 C 0.21139 0.32134 0.01256 0.0
C1006 C 0.20912 0.31094 0.05744 0.0
C1007 C 0.21022 0.29052 0.05655 0.0
C1008 C 0.21109 0.34302 0.01404 0.0
C1009 C 0.19433 0.35263 0.03151 0.0
C1010 C 0.22698 0.35415 0.99695 0.0
C1011 C 0.24542 0.34483 0.98015 0.0
C1012 C 0.25593 0.3323 0.01253 0.0
C1013 C 0.27316 0.32339 0.99621 0.0
C1014 C 0.28011 0.32702 0.94773 0.0
C1015 C 0.26988 0.33961 0.91552 0.0
C1016 C 0.25262 0.34854 0.93163 0.0
C1017 C 0.20588 0.43641 0.06693 0.0
C1018 C 0.20989 0.4472 0.0236 0.0
C1019 C 0.20549 0.41598 0.06417 0.0
C1020 C 0.20893 0.40598 0.01785 0.0
C1021 C 0.21294 0.41677 0.97448 0.0
C1022 C 0.21339 0.43721 0.97727 0.0
C1023 C 0.20888 0.38428 0.01503 0.0
C1024 C 0.22561 0.37462 0.99735 0.0
C1025 C 0.19292 0.37312 0.03175 0.0
C1026 C 0.17438 0.3824 0.04788 0.0
C1027 C 0.16419 0.39516 0.01545 0.0
C1028 C 0.14677 0.40391 0.03092 0.0
C1029 C 0.13929 0.3999 0.07862 0.0
C1030 C 0.14921 0.38709 0.1109 0.0
C1031 C 0.16666 0.37832 0.09563 0.0
H1032 H 0.1258 0.40668 0.09053 0.0
H1033 H 0.29345 0.3201 0.93515 0.0
H1034 H 0.21617 0.73338 0.42221 0.0
H1035 H 0.18039 0.73375 0.41841 0.0
H1036 H 0.17917 0.70282 0.55974 0.0
H1037 H 0.21484 0.7033 0.56493 0.0
H1038 H 0.15355 0.70833 0.40988 0.0
H1039 H 0.14066 0.71463 0.6284 0.0
H1040 H 0.15668 0.72934 0.70538 0.0
H1041 H 0.18547 0.77122 0.61367 0.0
H1042 H 0.16943 0.75694 0.53625 0.0
H1043 H 0.05539 0.68389 0.45442 0.0
H1044 H 0.09108 0.68632 0.45349 0.0
H1045 H 0.08785 0.74516 0.51673 0.0
H1046 H 0.05231 0.7422 0.52062 0.0
H1047 H 0.11574 0.72894 0.56088 0.0
H1048 H 0.09797 0.73363 0.38551 0.0
H1049 H 0.08188 0.72434 0.30337 0.0
H1050 H 0.11403 0.67037 0.29955 0.0
H1051 H 0.13013 0.67923 0.38203 0.0
C1052 C 0.20823 0.72669 0.45246 0.0
C1053 C 0.21827 0.71849 0.49413 0.0
C1054 C 0.18779 0.72687 0.45022 0.0
C1055 C 0.17702 0.71863 0.48925 0.0
C1056 C 0.18709 0.70979 0.52991 0.0
C1057 C 0.20749 0.70998 0.53272 0.0
C1058 C 0.15529 0.71927 0.48755 0.0
C1059 C 0.14528 0.71289 0.44286 0.0
C1060 C 0.14443 0.72576 0.53 0.0
C1061 C 0.15397 0.73458 0.57649 0.0
C1062 C 0.15034 0.72703 0.62469 0.0
C1063 C 0.15944 0.73529 0.6684 0.0
C1064 C 0.17213 0.75117 0.6644 0.0
C1065 C 0.1757 0.75888 0.6167 0.0
C1066 C 0.16662 0.75069 0.57289 0.0
C1067 C 0.06239 0.6973 0.46813 0.0
C1068 C 0.05122 0.71281 0.48778 0.0
C1069 C 0.08275 0.69877 0.46721 0.0
C1070 C 0.09224 0.71607 0.48424 0.0
C1071 C 0.08096 0.73164 0.50351 0.0
C1072 C 0.06064 0.72996 0.50565 0.0
C1073 C 0.11393 0.71774 0.48338 0.0
C1074 C 0.12396 0.72449 0.52772 0.0
C1075 C 0.12476 0.71243 0.43982 0.0
C1076 C 0.11513 0.70703 0.39018 0.0
C1077 C 0.10151 0.71972 0.36733 0.0
C1078 C 0.0924 0.71454 0.32068 0.0
C1079 C 0.0969 0.69676 0.29632 0.0
C1080 C 0.11055 0.68414 0.3185 0.0
C1081 C 0.11968 0.68924 0.36517 0.0
H1082 H 0.08983 0.69277 0.26021 0.0
H1083 H 0.17917 0.75752 0.69827 0.0
H1084 H 0.78166 0.71554 0.93316 0.0
H1085 H 0.78254 0.67988 0.93249 0.0
H1086 H 0.78287 0.68068 0.09684 0.0
H1087 H 0.78221 0.71645 0.0981 0.0
H1088 H 0.80899 0.65465 0.05984 0.0
H1089 H 0.74162 0.66929 0.03136 0.0
H1090 H 0.71315 0.68523 0.99066 0.0
H1091 H 0.72659 0.6574 0.84732 0.0
H1092 H 0.75535 0.64151 0.88701 0.0
H1093 H 0.78621 0.55284 0.07611 0.0
H1094 H 0.78457 0.58858 0.08366 0.0
H1095 H 0.78808 0.59248 0.92037 0.0
H1096 H 0.78978 0.55671 0.91257 0.0
H1097 H 0.75886 0.61602 0.96147 0.0
H1098 H 0.82736 0.60237 0.99238 0.0
H1099 H 0.85537 0.58658 0.03569 0.0
H1100 H 0.83855 0.61255 0.17865 0.0
H1101 H 0.81027 0.62829 0.13626 0.0
C1102 C 0.78193 0.70819 0.96927 0.0
C1103 C 0.78176 0.71892 0.01571 0.0
C1104 C 0.78236 0.68778 0.96876 0.0
C1105 C 0.78251 0.67763 0.0146 0.0
C1106 C 0.78269 0.68824 0.06104 0.0
C1107 C 0.78226 0.70869 0.06163 0.0
C1108 C 0.78253 0.65594 0.01381 0.0
C1109 C 0.79786 0.64619 0.03901 0.0
C1110 C 0.76813 0.64493 0.9861 0.0
C1111 C 0.75076 0.65435 0.96208 0.0
C1112 C 0.7386 0.66668 0.99107 0.0
C1113 C 0.72239 0.67569 0.9682 0.0
C1114 C 0.71809 0.67237 0.91642 0.0
C1115 C 0.72996 0.65998 0.88743 0.0
C1116 C 0.74621 0.65095 0.9101 0.0
C1117 C 0.78666 0.56131 0.04183 0.0
C1118 C 0.78816 0.55205 0.99366 0.0
C1119 C 0.78576 0.58171 0.04623 0.0
C1120 C 0.7863 0.59315 0.00259 0.0
C1121 C 0.78763 0.5839 0.95449 0.0
C1122 C 0.78868 0.56352 0.9501 0.0
C1123 C 0.78545 0.61478 0.00694 0.0
C1124 C 0.76993 0.6245 0.98247 0.0
C1125 C 0.79956 0.62574 0.03575 0.0
C1126 C 0.81658 0.61633 0.06124 0.0
C1127 C 0.82954 0.60457 0.03312 0.0
C1128 C 0.84548 0.59566 0.05749 0.0
C1129 C 0.8487 0.59851 0.10992 0.0
C1130 C 0.83602 0.61033 0.13806 0.0
C1131 C 0.82004 0.61926 0.11387 0.0
H1132 H 0.86106 0.59161 0.12871 0.0
H1133 H 0.70553 0.67936 0.89878 0.0
H1134 H 0.77991 0.28037 0.42577 0.0
H1135 H 0.81547 0.2806 0.42383 0.0
H1136 H 0.8186 0.28792 0.58747 0.0
H1137 H 0.78281 0.28784 0.59001 0.0
H1138 H 0.84458 0.31198 0.53811 0.0
H1139 H 0.8273 0.2443 0.53825 0.0
H1140 H 0.80933 0.21454 0.51004 0.0
H1141 H 0.83283 0.21882 0.36052 0.0
H1142 H 0.85071 0.2488 0.38761 0.0
H1143 H 0.94678 0.28701 0.54845 0.0
H1144 H 0.91154 0.28864 0.56249 0.0
H1145 H 0.90025 0.27949 0.40122 0.0
H1146 H 0.93544 0.2777 0.38702 0.0
H1147 H 0.87857 0.25543 0.45774 0.0
H1148 H 0.8945 0.32408 0.45677 0.0
H1149 H 0.91207 0.35411 0.48479 0.0
H1150 H 0.89108 0.34796 0.63642 0.0
H1151 H 0.87361 0.31771 0.60945 0.0
C1152 C 0.78807 0.28206 0.46148 0.0
C1153 C 0.77845 0.28392 0.50813 0.0
C1154 C 0.80842 0.28214 0.46025 0.0
C1155 C 0.81962 0.28401 0.50556 0.0
C1156 C 0.81016 0.28638 0.55212 0.0
C1157 C 0.78973 0.28624 0.55346 0.0
C1158 C 0.8412 0.2832 0.50382 0.0
C1159 C 0.85209 0.2995 0.52138 0.0
C1160 C 0.85087 0.267 0.48126 0.0
C1161 C 0.84022 0.24889 0.46487 0.0
C1162 C 0.82852 0.23898 0.49924 0.0
C1163 C 0.81837 0.22206 0.48347 0.0
C1164 C 0.8199 0.21482 0.43349 0.0
C1165 C 0.83164 0.22446 0.39921 0.0
C1166 C 0.8418 0.24141 0.41477 0.0
C1167 C 0.93679 0.28546 0.51598 0.0
C1168 C 0.94378 0.28216 0.46658 0.0
C1169 C 0.91668 0.28647 0.52404 0.0
C1170 C 0.90331 0.28426 0.48285 0.0
C1171 C 0.91033 0.2812 0.43351 0.0
C1172 C 0.93039 0.28023 0.42543 0.0
C1173 C 0.88198 0.28438 0.49106 0.0
C1174 C 0.87111 0.26788 0.47485 0.0
C1175 C 0.87239 0.30037 0.51494 0.0
C1176 C 0.88295 0.3185 0.53124 0.0
C1177 C 0.8938 0.32902 0.49621 0.0
C1178 C 0.9037 0.3461 0.51188 0.0
C1179 C 0.90275 0.3529 0.56239 0.0
C1180 C 0.89184 0.34265 0.59732 0.0
C1181 C 0.88193 0.32554 0.58187 0.0
H1182 H 0.91042 0.36614 0.57444 0.0
H1183 H 0.81203 0.20171 0.42136 0.0
H1184 H 0.70345 0.21844 0.43248 0.0
H1185 H 0.70335 0.18279 0.43066 0.0
H1186 H 0.72153 0.18292 0.58926 0.0
H1187 H 0.72118 0.21869 0.59173 0.0
H1188 H 0.73173 0.1594 0.43945 0.0
H1189 H 0.7071 0.14125 0.64564 0.0
H1190 H 0.68227 0.15157 0.7074 0.0
H1191 H 0.64799 0.17727 0.58732 0.0
H1192 H 0.67249 0.16696 0.52478 0.0
H1193 H 0.76316 0.06389 0.4903 0.0
H1194 H 0.7567 0.0991 0.4923 0.0
H1195 H 0.6954 0.0877 0.51464 0.0
H1196 H 0.70221 0.05259 0.51643 0.0
H1197 H 0.7037 0.11658 0.56879 0.0
H1198 H 0.71574 0.10189 0.39485 0.0
H1199 H 0.73321 0.08861 0.32054 0.0
H1200 H 0.78183 0.12668 0.35634 0.0
H1201 H 0.76475 0.14001 0.43128 0.0
C1202 C 0.70725 0.21092 0.46718 0.0
C1203 C 0.71248 0.22146 0.51218 0.0
C1204 C 0.7072 0.19049 0.46605 0.0
C1205 C 0.71244 0.1801 0.50977 0.0
C1206 C 0.71715 0.19056 0.55518 0.0
C1207 C 0.71704 0.21105 0.55648 0.0
C1208 C 0.71435 0.15842 0.50677 0.0
C1209 C 0.72552 0.15005 0.46768 0.0
C1210 C 0.70586 0.14608 0.54264 0.0
C1211 C 0.69174 0.15347 0.5806 0.0
C1212 C 0.69431 0.14918 0.63245 0.0
C1213 C 0.68027 0.15499 0.66757 0.0
C1214 C 0.66354 0.16499 0.65123 0.0
C1215 C 0.66096 0.16951 0.5999 0.0
C1216 C 0.67496 0.16377 0.56464 0.0
C1217 C 0.74835 0.069 0.49579 0.0
C1218 C 0.73319 0.05565 0.5033 0.0
C1219 C 0.7446 0.0891 0.49649 0.0
C1220 C 0.72546 0.09618 0.50256 0.0
C1221 C 0.7103 0.08272 0.51 0.0
C1222 C 0.71417 0.06265 0.51088 0.0
C1223 C 0.72129 0.11757 0.50187 0.0
C1224 C 0.70983 0.12592 0.54043 0.0
C1225 C 0.72868 0.12979 0.46396 0.0
C1226 C 0.73903 0.12182 0.41894 0.0
C1227 C 0.73021 0.10733 0.38707 0.0
C1228 C 0.74004 0.09981 0.34482 0.0
C1229 C 0.75864 0.10676 0.3338 0.0
C1230 C 0.76743 0.12129 0.36496 0.0
C1231 C 0.75768 0.12885 0.4073 0.0
H1232 H 0.76622 0.10092 0.30107 0.0
H1233 H 0.65253 0.16919 0.67833 0.0
H1234 H 0.28227 0.23182 0.08793 0.0
H1235 H 0.31801 0.23129 0.09004 0.0
H1236 H 0.31748 0.20092 0.94382 0.0
H1237 H 0.2818 0.20226 0.94047 0.0
H1238 H 0.34398 0.20478 0.09327 0.0
H1239 H 0.35608 0.21231 0.87588 0.0
H1240 H 0.34005 0.22771 0.8018 0.0
H1241 H 0.31259 0.26969 0.90121 0.0
H1242 H 0.32865 0.25471 0.97578 0.0
H1243 H 0.44259 0.18164 0.0448 0.0
H1244 H 0.40681 0.18317 0.04465 0.0
H1245 H 0.40902 0.24274 0.99377 0.0
H1246 H 0.44461 0.24076 0.99098 0.0
H1247 H 0.38162 0.22622 0.94541 0.0
H1248 H 0.39942 0.22965 0.12203 0.0
H1249 H 0.41557 0.2196 0.20223 0.0
H1250 H 0.38369 0.16545 0.19531 0.0
H1251 H 0.36752 0.17507 0.11469 0.0
C1252 C 0.2898 0.22507 0.05621 0.0
C1253 C 0.27928 0.21726 0.01381 0.0
C1254 C 0.31022 0.22472 0.05751 0.0
C1255 C 0.32048 0.21633 0.01675 0.0
C1256 C 0.30993 0.20795 0.97511 0.0
C1257 C 0.28954 0.20866 0.97331 0.0
C1258 C 0.34219 0.21639 0.01771 0.0
C1259 C 0.35222 0.2095 0.06097 0.0
C1260 C 0.35298 0.22301 0.97614 0.0
C1261 C 0.34342 0.23225 0.93142 0.0
C1262 C 0.34668 0.22487 0.88189 0.0
C1263 C 0.33757 0.23352 0.83982 0.0
C1264 C 0.32526 0.24963 0.8468 0.0
C1265 C 0.32207 0.25717 0.89586 0.0
C1266 C 0.33115 0.24859 0.93804 0.0
C1267 C 0.43534 0.19499 0.03345 0.0
C1268 C 0.44624 0.21102 0.01768 0.0
C1269 C 0.41493 0.19594 0.03374 0.0
C1270 C 0.40516 0.21319 0.01995 0.0
C1271 C 0.41616 0.22924 0.00437 0.0
C1272 C 0.4365 0.22812 0.00286 0.0
C1273 C 0.38348 0.2145 0.0209 0.0
C1274 C 0.37343 0.22156 0.97784 0.0
C1275 C 0.37272 0.20886 0.06358 0.0
C1276 C 0.3824 0.20301 0.11207 0.0
C1277 C 0.39596 0.21554 0.13742 0.0
C1278 C 0.4051 0.20993 0.18298 0.0
C1279 C 0.4007 0.19188 0.20378 0.0
C1280 C 0.3871 0.17942 0.17912 0.0
C1281 C 0.37793 0.18495 0.13352 0.0
H1282 H 0.40779 0.18756 0.23906 0.0
H1283 H 0.31821 0.25629 0.81419 0.0
H1284 H 0.2916 0.78265 0.58976 0.0
H1285 H 0.29462 0.81821 0.59314 0.0
H1286 H 0.28178 0.82009 0.43159 0.0
H1287 H 0.27925 0.78439 0.42756 0.0
H1288 H 0.31028 0.84476 0.45659 0.0
H1289 H 0.24683 0.83143 0.52043 0.0
H1290 H 0.22286 0.81589 0.5753 0.0
H1291 H 0.25119 0.8419 0.70811 0.0
H1292 H 0.27551 0.85739 0.65406 0.0
H1293 H 0.28457 0.94588 0.45097 0.0
H1294 H 0.28414 0.91012 0.44564 0.0
H1295 H 0.30252 0.90782 0.60376 0.0
H1296 H 0.30293 0.94369 0.60939 0.0
H1297 H 0.27128 0.88353 0.57999 0.0
H1298 H 0.33454 0.89742 0.5129 0.0
H1299 H 0.35752 0.91317 0.45568 0.0
H1300 H 0.32794 0.88642 0.32569 0.0
H1301 H 0.3046 0.87072 0.38213 0.0
C1302 C 0.2894 0.7906 0.55489 0.0
C1303 C 0.28501 0.78067 0.50844 0.0
C1304 C 0.29108 0.81095 0.55694 0.0
C1305 C 0.28807 0.82185 0.51279 0.0
C1306 C 0.2841 0.81198 0.46616 0.0
C1307 C 0.28262 0.79157 0.46395 0.0
C1308 C 0.28891 0.84355 0.51543 0.0
C1309 C 0.30156 0.85325 0.48312 0.0
C1310 C 0.27777 0.85462 0.55061 0.0
C1311 C 0.2631 0.84542 0.58322 0.0
C1312 C 0.24803 0.83372 0.56136 0.0
C1313 C 0.23437 0.82494 0.59231 0.0
C1314 C 0.23553 0.82787 0.64516 0.0
C1315 C 0.25032 0.83963 0.66717 0.0
C1316 C 0.26404 0.84843 0.63639 0.0
C1317 C 0.28861 0.93778 0.48456 0.0
C1318 C 0.2938 0.94753 0.53071 0.0
C1319 C 0.28842 0.91735 0.48138 0.0
C1320 C 0.29343 0.90634 0.52421 0.0
C1321 C 0.29863 0.91606 0.57027 0.0
C1322 C 0.29892 0.9365 0.57341 0.0
C1323 C 0.29269 0.88469 0.52135 0.0
C1324 C 0.28002 0.87501 0.55356 0.0
C1325 C 0.30364 0.87368 0.4857 0.0
C1326 C 0.31771 0.88305 0.45173 0.0
C1327 C 0.33283 0.89503 0.4721 0.0
C1328 C 0.34594 0.90392 0.43981 0.0
C1329 C 0.34416 0.90084 0.38708 0.0
C1330 C 0.32929 0.88881 0.36654 0.0
C1331 C 0.31613 0.8799 0.39866 0.0
H1332 H 0.35433 0.90774 0.36214 0.0
H1333 H 0.22494 0.82106 0.66906 0.0
H1334 H 0.71405 0.77485 0.08584 0.0
H1335 H 0.67834 0.77544 0.07991 0.0
H1336 H 0.68083 0.79247 0.92311 0.0
H1337 H 0.7166 0.79185 0.92847 0.0
H1338 H 0.65402 0.81437 0.98125 0.0
H1339 H 0.67036 0.74735 0.94432 0.0
H1340 H 0.68661 0.71576 0.95973 0.0
H1341 H 0.65627 0.7107 0.10011 0.0
H1342 H 0.64006 0.74242 0.08592 0.0
H1343 H 0.55436 0.79676 0.91336 0.0
H1344 H 0.59018 0.79644 0.91657 0.0
H1345 H 0.58939 0.77302 0.06769 0.0
H1346 H 0.55363 0.77296 0.06426 0.0
H1347 H 0.61563 0.75427 0.01083 0.0
H1348 H 0.5997 0.82133 0.04912 0.0
H1349 H 0.58385 0.85324 0.03525 0.0
H1350 H 0.61364 0.85855 0.89413 0.0
H1351 H 0.62947 0.82654 0.90683 0.0
C1352 C 0.70704 0.77881 0.05011 0.0
C1353 C 0.71819 0.78324 0.00755 0.0
C1354 C 0.68663 0.77905 0.04677 0.0
C1355 C 0.67701 0.78384 0.00096 0.0
C1356 C 0.68804 0.78869 0.95875 0.0
C1357 C 0.70845 0.78826 0.96186 0.0
C1358 C 0.6554 0.78366 0.99715 0.0
C1359 C 0.64559 0.8012 0.98699 0.0
C1360 C 0.6445 0.76652 0.0058 0.0
C1361 C 0.65414 0.74737 0.0143 0.0
C1362 C 0.66728 0.73959 0.9787 0.0
C1363 C 0.67646 0.72164 0.98717 0.0
C1364 C 0.67252 0.71126 0.03094 0.0
C1365 C 0.65934 0.71877 0.06625 0.0
C1366 C 0.65013 0.73673 0.058 0.0
C1367 C 0.56187 0.79157 0.94724 0.0
C1368 C 0.55125 0.78497 0.98855 0.0
C1369 C 0.5823 0.79146 0.94913 0.0
C1370 C 0.59246 0.78493 0.99263 0.0
C1371 C 0.58185 0.77815 0.03378 0.0
C1372 C 0.56141 0.77818 0.03182 0.0
C1373 C 0.61415 0.78505 0.99513 0.0
C1374 C 0.62401 0.76747 0.00502 0.0
C1375 C 0.6251 0.80218 0.98639 0.0
C1376 C 0.61561 0.82144 0.97868 0.0
C1377 C 0.60274 0.82923 0.01492 0.0
C1378 C 0.59379 0.84735 0.00731 0.0
C1379 C 0.59769 0.85789 0.96377 0.0
C1380 C 0.6106 0.85035 0.9278 0.0
C1381 C 0.61958 0.83223 0.93521 0.0
H1382 H 0.59075 0.87191 0.95795 0.0
H1383 H 0.67963 0.69736 0.03743 0.0
loop_
_geom_bond_atom_site_label_1
_geom_bond_atom_site_label_2
_geom_bond_distance
_geom_bond_site_symmetry_2
_ccdc_geom_bond_type
Sc0 O3 2.025 . S
Sc0 O10 2.105 . S
Sc0 O13 2.105 . S
Sc0 O16 2.105 . S
Sc0 O19 2.105 . S
Sc1 O3 2.025 . S
Sc1 O11 2.105 . S
Sc1 O15 2.105 1_554 S
Sc1 O17 2.105 . S
Sc1 O21 2.105 1_554 S
Sc2 O3 2.025 1_556 S
Sc2 O12 2.105 . S
Sc2 O14 2.105 . S
Sc2 O18 2.105 . S
Sc2 O20 2.105 . S
O3 Sc0 2.025 . S
O3 Sc1 2.025 . S
O3 Sc2 2.025 1_554 S
C4 O10 1.268 . S
C4 O20 1.268 1_554 S
C5 O11 1.268 . S
C5 O19 1.268 . S
C6 O12 1.268 . S
C6 O21 1.268 . S
C7 O13 1.268 . S
C7 O17 1.268 . S
C8 O14 1.268 1_554 S
C8 O16 1.268 . S
C9 O15 1.268 . S
C9 O18 1.268 . S
O10 Sc0 2.105 . S
O10 C4 1.268 . S
O11 Sc1 2.105 . S
O11 C5 1.268 . S
O12 Sc2 2.105 . S
O12 C6 1.268 . S
O13 Sc0 2.105 . S
O13 C7 1.268 . S
O14 Sc2 2.105 . S
O14 C8 1.268 1_556 S
O15 Sc1 2.105 1_556 S
O15 C9 1.268 . S
O16 Sc0 2.105 . S
O16 C8 1.268 . S
O17 Sc1 2.105 . S
O17 C7 1.268 . S
O18 Sc2 2.105 . S
O18 C9 1.268 . S
O19 Sc0 2.105 . S
O19 C5 1.268 . S
O20 Sc2 2.105 . S
O20 C4 1.268 1_556 S
O21 Sc1 2.105 1_556 S
O21 C6 1.268 . S
Sc22 O25 2.025 . S
Sc22 O32 2.105 . S
Sc22 O35 2.105 . S
Sc22 O38 2.105 . S
Sc22 O41 2.105 . S
Sc23 O25 2.025 . S
Sc23 O33 2.105 . S
Sc23 O37 2.105 . S
Sc23 O39 2.105 . S
Sc23 O43 2.105 . S
Sc24 O25 2.025 . S
Sc24 O34 2.105 . S
Sc24 O36 2.105 . S
Sc24 O40 2.105 . S
Sc24 O42 2.105 . S
O25 Sc22 2.025 . S
O25 Sc23 2.025 . S
O25 Sc24 2.025 . S
C26 O32 1.268 . S
C26 O42 1.268 . S
C27 O33 1.268 . S
C27 O41 1.268 . S
C28 O34 1.268 . S
C28 O43 1.268 . S
C29 O35 1.268 . S
C29 O39 1.268 . S
C30 O36 1.268 . S
C30 O38 1.268 . S
C31 O37 1.268 . S
C31 O40 1.268 . S
O32 Sc22 2.105 . S
O32 C26 1.268 . S
O33 Sc23 2.105 . S
O33 C27 1.268 . S
O34 Sc24 2.105 . S
O34 C28 1.268 . S
O35 Sc22 2.105 . S
O35 C29 1.268 . S
O36 Sc24 2.105 . S
O36 C30 1.268 . S
O37 Sc23 2.105 . S
O37 C31 1.268 . S
O38 Sc22 2.105 . S
O38 C30 1.268 . S
O39 Sc23 2.105 . S
O39 C29 1.268 . S
O40 Sc24 2.105 . S
O40 C31 1.268 . S
O41 Sc22 2.105 . S
O41 C27 1.268 . S
O42 Sc24 2.105 . S
O42 C26 1.268 . S
O43 Sc23 2.105 . S
O43 C28 1.268 . S
Sc44 O47 2.025 1_556 S
Sc44 O54 2.105 . S
Sc44 O57 2.105 . S
Sc44 O60 2.105 . S
Sc44 O63 2.105 . S
Sc45 O47 2.025 . S
Sc45 O55 2.105 1_554 S
Sc45 O59 2.105 . S
Sc45 O61 2.105 1_554 S
Sc45 O65 2.105 . S
Sc46 O47 2.025 . S
Sc46 O56 2.105 . S
Sc46 O58 2.105 . S
Sc46 O62 2.105 . S
Sc46 O64 2.105 . S
O47 Sc44 2.025 1_554 S
O47 Sc45 2.025 . S
O47 Sc46 2.025 . S
C48 O54 1.268 1_554 S
C48 O64 1.268 . S
C49 O55 1.268 . S
C49 O63 1.268 . S
C50 O56 1.268 . S
C50 O65 1.268 . S
C51 O57 1.268 . S
C51 O61 1.268 . S
C52 O58 1.268 . S
C52 O60 1.268 1_554 S
C53 O59 1.268 . S
C53 O62 1.268 . S
O54 Sc44 2.105 . S
O54 C48 1.268 1_556 S
O55 Sc45 2.105 1_556 S
O55 C49 1.268 . S
O56 Sc46 2.105 . S
O56 C50 1.268 . S
O57 Sc44 2.105 . S
O57 C51 1.268 . S
O58 Sc46 2.105 . S
O58 C52 1.268 . S
O59 Sc45 2.105 . S
O59 C53 1.268 . S
O60 Sc44 2.105 . S
O60 C52 1.268 1_556 S
O61 Sc45 2.105 1_556 S
O61 C51 1.268 . S
O62 Sc46 2.105 . S
O62 C53 1.268 . S
O63 Sc44 2.105 . S
O63 C49 1.268 . S
O64 Sc46 2.105 . S
O64 C48 1.268 . S
O65 Sc45 2.105 . S
O65 C50 1.268 . S
Sc66 O69 2.025 . S
Sc66 O76 2.105 . S
Sc66 O79 2.105 . S
Sc66 O82 2.105 . S
Sc66 O85 2.105 . S
Sc67 O69 2.025 . S
Sc67 O77 2.105 . S
Sc67 O81 2.105 . S
Sc67 O83 2.105 . S
Sc67 O87 2.105 . S
Sc68 O69 2.025 . S
Sc68 O78 2.105 . S
Sc68 O80 2.105 . S
Sc68 O84 2.105 . S
Sc68 O86 2.105 . S
O69 Sc66 2.025 . S
O69 Sc67 2.025 . S
O69 Sc68 2.025 . S
C70 O76 1.268 . S
C70 O86 1.268 . S
C71 O77 1.268 . S
C71 O85 1.268 . S
C72 O78 1.268 . S
C72 O87 1.268 . S
C73 O79 1.268 . S
C73 O83 1.268 . S
C74 O80 1.268 . S
C74 O82 1.268 . S
C75 O81 1.268 . S
C75 O84 1.268 . S
O76 Sc66 2.105 . S
O76 C70 1.268 . S
O77 Sc67 2.105 . S
O77 C71 1.268 . S
O78 Sc68 2.105 . S
O78 C72 1.268 . S
O79 Sc66 2.105 . S
O79 C73 1.268 . S
O80 Sc68 2.105 . S
O80 C74 1.268 . S
O81 Sc67 2.105 . S
O81 C75 1.268 . S
O82 Sc66 2.105 . S
O82 C74 1.268 . S
O83 Sc67 2.105 . S
O83 C73 1.268 . S
O84 Sc68 2.105 . S
O84 C75 1.268 . S
O85 Sc66 2.105 . S
O85 C71 1.268 . S
O86 Sc68 2.105 . S
O86 C70 1.268 . S
O87 Sc67 2.105 . S
O87 C72 1.268 . S
H88 C93 0.930 . S
H89 C96 0.930 . S
H90 C98 0.931 . S
H91 C92 1.016 . S
C92 H91 1.016 . S
C92 N99 1.286 1_554 S
C93 H88 0.930 . S
C93 C94 1.397 . S
C93 C95 1.361 . S
C94 C93 1.397 . S
C94 C98 1.384 1_556 S
C95 C93 1.361 . S
C95 C96 1.393 1_556 S
C95 N99 1.413 . S
C96 H89 0.930 . S
C96 C95 1.393 1_554 S
C96 C97 1.399 . S
C97 C96 1.399 . S
C97 C98 1.387 . S
C98 H90 0.931 . S
C98 C94 1.384 1_554 S
C98 C97 1.387 . S
N99 C92 1.286 1_556 S
N99 C95 1.413 . S
H100 C105 0.930 . S
H101 C108 0.930 . S
H102 C110 0.930 . S
H103 C104 1.016 . S
C104 H103 1.016 . S
C104 N111 1.286 . S
C105 H100 0.930 . S
C105 C106 1.397 . S
C105 C107 1.361 . S
C106 C105 1.397 . S
C106 C110 1.390 . S
C107 C105 1.361 . S
C107 C108 1.393 . S
C107 N111 1.413 1_655 S
C108 H101 0.930 . S
C108 C107 1.393 . S
C108 C109 1.399 . S
C109 C108 1.399 . S
C109 C110 1.381 . S
C110 H102 0.930 . S
C110 C106 1.390 . S
C110 C109 1.381 . S
N111 C104 1.286 . S
N111 C107 1.413 1_455 S
H112 C117 0.930 . S
H113 C120 0.930 . S
H114 C122 0.930 . S
H115 C116 1.016 1_556 S
C116 H115 1.016 1_554 S
C116 N123 1.286 . S
C117 H112 0.930 . S
C117 C118 1.397 . S
C117 C119 1.361 . S
C118 C117 1.397 . S
C118 C122 1.390 . S
C119 C117 1.361 . S
C119 C120 1.393 1_554 S
C119 N123 1.413 . S
C120 H113 0.930 . S
C120 C119 1.393 1_556 S
C120 C121 1.399 . S
C121 C120 1.399 . S
C121 C122 1.381 1_556 S
C122 H114 0.930 . S
C122 C118 1.390 . S
C122 C121 1.381 1_554 S
N123 C116 1.286 . S
N123 C119 1.413 . S
H124 C129 0.930 . S
H125 C132 0.930 . S
H126 C134 0.930 . S
H127 C128 1.016 . S
C128 H127 1.016 . S
C128 N135 1.286 . S
C129 H124 0.930 . S
C129 C130 1.397 . S
C129 C131 1.361 . S
C130 C129 1.397 . S
C130 C134 1.390 . S
C131 C129 1.361 . S
C131 C132 1.393 . S
C131 N135 1.413 1_455 S
C132 H125 0.930 . S
C132 C131 1.393 . S
C132 C133 1.399 . S
C133 C132 1.399 . S
C133 C134 1.381 . S
C134 H126 0.930 . S
C134 C130 1.390 . S
C134 C133 1.381 . S
N135 C128 1.286 . S
N135 C131 1.413 1_655 S
H136 C141 0.930 . S
H137 C144 0.930 . S
H138 C146 0.930 . S
H139 C140 1.016 . S
C140 H139 1.016 . S
C140 N147 1.286 . S
C141 H136 0.930 . S
C141 C142 1.397 . S
C141 C143 1.361 . S
C142 C141 1.397 . S
C142 C146 1.390 . S
C143 C141 1.361 . S
C143 C144 1.393 . S
C143 N147 1.413 1_565 S
C144 H137 0.930 . S
C144 C143 1.393 . S
C144 C145 1.399 . S
C145 C144 1.399 . S
C145 C146 1.381 . S
C146 H138 0.930 . S
C146 C142 1.390 . S
C146 C145 1.381 . S
N147 C140 1.286 . S
N147 C143 1.413 1_545 S
H148 C153 0.930 . S
H149 C156 0.930 . S
H150 C158 0.931 . S
H151 C152 1.016 . S
C152 H151 1.016 . S
C152 N159 1.286 1_554 S
C153 H148 0.930 . S
C153 C154 1.397 . S
C153 C155 1.361 . S
C154 C153 1.397 . S
C154 C158 1.388 1_556 S
C155 C153 1.361 . S
C155 C156 1.393 1_556 S
C155 N159 1.413 . S
C156 H149 0.930 . S
C156 C155 1.393 1_554 S
C156 C157 1.399 . S
C157 C156 1.399 . S
C157 C158 1.383 . S
C158 H150 0.931 . S
C158 C154 1.388 1_554 S
C158 C157 1.383 . S
N159 C152 1.286 1_556 S
N159 C155 1.413 . S
H160 C165 0.930 . S
H161 C168 0.930 . S
H162 C170 0.930 . S
H163 C164 1.016 . S
C164 H163 1.016 . S
C164 N171 1.286 . S
C165 H160 0.930 . S
C165 C166 1.397 . S
C165 C167 1.361 . S
C166 C165 1.397 . S
C166 C170 1.390 . S
C167 C165 1.361 . S
C167 C168 1.393 . S
C167 N171 1.413 1_545 S
C168 H161 0.930 . S
C168 C167 1.393 . S
C168 C169 1.399 . S
C169 C168 1.399 . S
C169 C170 1.381 . S
C170 H162 0.930 . S
C170 C166 1.390 . S
C170 C169 1.381 . S
N171 C164 1.286 . S
N171 C167 1.413 1_565 S
H172 C177 0.930 . S
H173 C180 0.930 . S
H174 C182 0.930 . S
H175 C176 1.016 1_556 S
C176 H175 1.016 1_554 S
C176 N183 1.286 . S
C177 H172 0.930 . S
C177 C178 1.397 . S
C177 C179 1.361 . S
C178 C177 1.397 . S
C178 C182 1.390 . S
C179 C177 1.361 . S
C179 C180 1.393 1_554 S
C179 N183 1.413 . S
C180 H173 0.930 . S
C180 C179 1.393 1_556 S
C180 C181 1.399 . S
C181 C180 1.399 . S
C181 C182 1.381 1_556 S
C182 H174 0.930 . S
C182 C178 1.390 . S
C182 C181 1.381 1_554 S
N183 C176 1.286 . S
N183 C179 1.413 . S
H184 C202 0.951 . S
H185 C204 0.951 . S
H186 C206 0.950 . S
H187 C207 0.950 . S
H188 C209 0.950 . S
H189 C212 0.950 . S
H190 C213 0.950 . S
H191 C215 0.950 . S
H192 C216 0.950 . S
H193 C217 0.951 . S
H194 C219 0.951 . S
H195 C221 0.950 . S
H196 C222 0.950 . S
H197 C224 0.950 . S
H198 C227 0.950 . S
H199 C228 0.950 . S
H200 C230 0.950 . S
H201 C231 0.950 . S
C202 H184 0.951 . S
C202 C203 1.366 . S
C202 C204 1.388 . S
C203 C202 1.366 . S
C203 C207 1.385 . S
C204 H185 0.951 . S
C204 C202 1.388 . S
C204 C205 1.366 . S
C205 C204 1.366 . S
C205 C206 1.414 . S
C205 C208 1.499 . S
C206 H186 0.950 . S
C206 C205 1.414 . S
C206 C207 1.374 . S
C207 H187 0.950 . S
C207 C203 1.385 . S
C207 C206 1.374 . S
C208 C205 1.499 . S
C208 C209 1.373 . S
C208 C210 1.389 . S
C209 H188 0.950 . S
C209 C208 1.373 . S
C209 C225 1.377 . S
C210 C208 1.389 . S
C210 C211 1.524 . S
C210 C224 1.377 . S
C211 C210 1.524 . S
C211 C212 1.397 . S
C211 C216 1.363 . S
C212 H189 0.950 . S
C212 C211 1.397 . S
C212 C213 1.334 . S
C213 H190 0.950 . S
C213 C212 1.334 . S
C213 C214 1.287 . S
C214 C213 1.287 . S
C214 C215 1.524 . S
C214 H233 0.913 . S
C215 H191 0.950 . S
C215 C214 1.524 . S
C215 C216 1.415 . S
C216 H192 0.950 . S
C216 C211 1.363 . S
C216 C215 1.415 . S
C217 H193 0.951 . S
C217 C218 1.366 . S
C217 C219 1.388 . S
C218 C217 1.366 . S
C218 C222 1.385 . S
C219 H194 0.951 . S
C219 C217 1.388 . S
C219 C220 1.366 . S
C220 C219 1.366 . S
C220 C221 1.414 . S
C220 C223 1.499 . S
C221 H195 0.950 . S
C221 C220 1.414 . S
C221 C222 1.374 . S
C222 H196 0.950 . S
C222 C218 1.385 . S
C222 C221 1.374 . S
C223 C220 1.499 . S
C223 C224 1.373 . S
C223 C225 1.389 . S
C224 H197 0.950 . S
C224 C210 1.377 . S
C224 C223 1.373 . S
C225 C209 1.377 . S
C225 C223 1.389 . S
C225 C226 1.524 . S
C226 C225 1.524 . S
C226 C227 1.397 . S
C226 C231 1.363 . S
C227 H198 0.950 . S
C227 C226 1.397 . S
C227 C228 1.334 . S
C228 H199 0.950 . S
C228 C227 1.334 . S
C228 C229 1.287 . S
C229 C228 1.287 . S
C229 C230 1.524 . S
C229 H232 0.999 . S
C230 H200 0.950 . S
C230 C229 1.524 . S
C230 C231 1.415 . S
C231 H201 0.950 . S
C231 C226 1.363 . S
C231 C230 1.415 . S
H232 C229 0.999 . S
H233 C214 0.913 . S
H234 C252 0.951 . S
H235 C254 0.951 . S
H236 C256 0.950 . S
H237 C257 0.950 . S
H238 C259 0.950 . S
H239 C262 0.950 . S
H240 C263 0.950 . S
H241 C265 0.950 . S
H242 C266 0.950 . S
H243 C267 0.951 . S
H244 C269 0.951 . S
H245 C271 0.950 . S
H246 C272 0.950 . S
H247 C274 0.950 . S
H248 C277 0.950 . S
H249 C278 0.950 . S
H250 C280 0.950 . S
H251 C281 0.950 . S
C252 H234 0.951 . S
C252 C253 1.366 . S
C252 C254 1.388 . S
C253 C252 1.366 . S
C253 C257 1.385 . S
C254 H235 0.951 . S
C254 C252 1.388 . S
C254 C255 1.366 . S
C255 C254 1.366 . S
C255 C256 1.414 . S
C255 C258 1.499 . S
C256 H236 0.950 . S
C256 C255 1.414 . S
C256 C257 1.374 . S
C257 H237 0.950 . S
C257 C253 1.385 . S
C257 C256 1.374 . S
C258 C255 1.499 . S
C258 C259 1.373 . S
C258 C260 1.389 . S
C259 H238 0.950 . S
C259 C258 1.373 . S
C259 C275 1.377 . S
C260 C258 1.389 . S
C260 C261 1.524 . S
C260 C274 1.377 . S
C261 C260 1.524 . S
C261 C262 1.397 . S
C261 C266 1.363 . S
C262 H239 0.950 . S
C262 C261 1.397 . S
C262 C263 1.334 . S
C263 H240 0.950 . S
C263 C262 1.334 . S
C263 C264 1.287 . S
C264 C263 1.287 . S
C264 C265 1.524 . S
C264 H283 0.913 . S
C265 H241 0.950 . S
C265 C264 1.524 . S
C265 C266 1.415 . S
C266 H242 0.950 . S
C266 C261 1.363 . S
C266 C265 1.415 . S
C267 H243 0.951 . S
C267 C268 1.366 . S
C267 C269 1.388 . S
C268 C267 1.366 . S
C268 C272 1.385 . S
C269 H244 0.951 . S
C269 C267 1.388 . S
C269 C270 1.366 . S
C270 C269 1.366 . S
C270 C271 1.414 . S
C270 C273 1.499 . S
C271 H245 0.950 . S
C271 C270 1.414 . S
C271 C272 1.374 . S
C272 H246 0.950 . S
C272 C268 1.385 . S
C272 C271 1.374 . S
C273 C270 1.499 . S
C273 C274 1.373 . S
C273 C275 1.389 . S
C274 H247 0.950 . S
C274 C260 1.377 . S
C274 C273 1.373 . S
C275 C259 1.377 . S
C275 C273 1.389 . S
C275 C276 1.524 . S
C276 C275 1.524 . S
C276 C277 1.397 . S
C276 C281 1.363 . S
C277 H248 0.950 . S
C277 C276 1.397 . S
C277 C278 1.334 . S
C278 H249 0.950 . S
C278 C277 1.334 . S
C278 C279 1.287 . S
C279 C278 1.287 . S
C279 C280 1.524 . S
C279 H282 0.999 . S
C280 H250 0.950 . S
C280 C279 1.524 . S
C280 C281 1.415 . S
C281 H251 0.950 . S
C281 C276 1.363 . S
C281 C280 1.415 . S
H282 C279 0.999 . S
H283 C264 0.913 . S
H284 C302 0.951 . S
H285 C304 0.951 . S
H286 C306 0.950 . S
H287 C307 0.950 . S
H288 C309 0.950 . S
H289 C312 0.950 . S
H290 C313 0.950 . S
H291 C315 0.950 . S
H292 C316 0.950 . S
H293 C317 0.951 . S
H294 C319 0.951 . S
H295 C321 0.950 . S
H296 C322 0.950 . S
H297 C324 0.950 . S
H298 C327 0.950 . S
H299 C328 0.950 . S
H300 C330 0.950 . S
H301 C331 0.950 . S
C302 H284 0.951 . S
C302 C303 1.366 . S
C302 C304 1.388 . S
C303 C302 1.366 . S
C303 C307 1.385 . S
C304 H285 0.951 . S
C304 C302 1.388 . S
C304 C305 1.366 . S
C305 C304 1.366 . S
C305 C306 1.414 . S
C305 C308 1.499 . S
C306 H286 0.950 . S
C306 C305 1.414 . S
C306 C307 1.374 . S
C307 H287 0.950 . S
C307 C303 1.385 . S
C307 C306 1.374 . S
C308 C305 1.499 . S
C308 C309 1.373 . S
C308 C310 1.389 . S
C309 H288 0.950 . S
C309 C308 1.373 . S
C309 C325 1.377 . S
C310 C308 1.389 . S
C310 C311 1.524 . S
C310 C324 1.377 . S
C311 C310 1.524 . S
C311 C312 1.397 . S
C311 C316 1.363 . S
C312 H289 0.950 . S
C312 C311 1.397 . S
C312 C313 1.334 . S
C313 H290 0.950 . S
C313 C312 1.334 . S
C313 C314 1.287 . S
C314 C313 1.287 . S
C314 C315 1.524 . S
C314 H333 0.913 . S
C315 H291 0.950 . S
C315 C314 1.524 . S
C315 C316 1.415 . S
C316 H292 0.950 . S
C316 C311 1.363 . S
C316 C315 1.415 . S
C317 H293 0.951 . S
C317 C318 1.366 . S
C317 C319 1.388 . S
C318 C317 1.366 . S
C318 C322 1.385 . S
C319 H294 0.951 . S
C319 C317 1.388 . S
C319 C320 1.366 . S
C320 C319 1.366 . S
C320 C321 1.414 . S
C320 C323 1.499 . S
C321 H295 0.950 . S
C321 C320 1.414 . S
C321 C322 1.374 . S
C322 H296 0.950 . S
C322 C318 1.385 . S
C322 C321 1.374 . S
C323 C320 1.499 . S
C323 C324 1.373 . S
C323 C325 1.389 . S
C324 H297 0.950 . S
C324 C310 1.377 . S
C324 C323 1.373 . S
C325 C309 1.377 . S
C325 C323 1.389 . S
C325 C326 1.524 . S
C326 C325 1.524 . S
C326 C327 1.397 . S
C326 C331 1.363 . S
C327 H298 0.950 . S
C327 C326 1.397 . S
C327 C328 1.334 . S
C328 H299 0.950 . S
C328 C327 1.334 . S
C328 C329 1.287 . S
C329 C328 1.287 . S
C329 C330 1.524 . S
C329 H332 0.999 . S
C330 H300 0.950 . S
C330 C329 1.524 . S
C330 C331 1.415 . S
C331 H301 0.950 . S
C331 C326 1.363 . S
C331 C330 1.415 . S
H332 C329 0.999 . S
H333 C314 0.913 . S
H334 C352 0.951 . S
H335 C354 0.951 . S
H336 C356 0.950 . S
H337 C357 0.950 . S
H338 C359 0.950 . S
H339 C362 0.950 . S
H340 C363 0.950 . S
H341 C365 0.950 . S
H342 C366 0.950 . S
H343 C367 0.951 . S
H344 C369 0.951 . S
H345 C371 0.950 . S
H346 C372 0.950 . S
H347 C374 0.950 . S
H348 C377 0.950 . S
H349 C378 0.950 . S
H350 C380 0.950 . S
H351 C381 0.950 . S
C352 H334 0.951 . S
C352 C353 1.366 . S
C352 C354 1.388 . S
C353 C352 1.366 . S
C353 C357 1.385 . S
C354 H335 0.951 . S
C354 C352 1.388 . S
C354 C355 1.366 . S
C355 C354 1.366 . S
C355 C356 1.414 . S
C355 C358 1.499 . S
C356 H336 0.950 . S
C356 C355 1.414 . S
C356 C357 1.374 . S
C357 H337 0.950 . S
C357 C353 1.385 . S
C357 C356 1.374 . S
C358 C355 1.499 . S
C358 C359 1.373 . S
C358 C360 1.389 . S
C359 H338 0.950 . S
C359 C358 1.373 . S
C359 C375 1.377 . S
C360 C358 1.389 . S
C360 C361 1.524 . S
C360 C374 1.377 . S
C361 C360 1.524 . S
C361 C362 1.397 . S
C361 C366 1.363 . S
C362 H339 0.950 . S
C362 C361 1.397 . S
C362 C363 1.334 . S
C363 H340 0.950 . S
C363 C362 1.334 . S
C363 C364 1.287 . S
C364 C363 1.287 . S
C364 C365 1.524 . S
C364 H383 0.913 . S
C365 H341 0.950 . S
C365 C364 1.524 . S
C365 C366 1.415 . S
C366 H342 0.950 . S
C366 C361 1.363 . S
C366 C365 1.415 . S
C367 H343 0.951 . S
C367 C368 1.366 . S
C367 C369 1.388 . S
C368 C367 1.366 . S
C368 C372 1.385 . S
C369 H344 0.951 . S
C369 C367 1.388 . S
C369 C370 1.366 . S
C370 C369 1.366 . S
C370 C371 1.414 . S
C370 C373 1.499 . S
C371 H345 0.950 . S
C371 C370 1.414 . S
C371 C372 1.374 . S
C372 H346 0.950 . S
C372 C368 1.385 . S
C372 C371 1.374 . S
C373 C370 1.499 . S
C373 C374 1.373 . S
C373 C375 1.389 . S
C374 H347 0.950 . S
C374 C360 1.377 . S
C374 C373 1.373 . S
C375 C359 1.377 . S
C375 C373 1.389 . S
C375 C376 1.524 . S
C376 C375 1.524 . S
C376 C377 1.397 . S
C376 C381 1.363 . S
C377 H348 0.950 . S
C377 C376 1.397 . S
C377 C378 1.334 . S
C378 H349 0.950 . S
C378 C377 1.334 . S
C378 C379 1.287 . S
C379 C378 1.287 . S
C379 C380 1.524 . S
C379 H382 0.999 . S
C380 H350 0.950 . S
C380 C379 1.524 . S
C380 C381 1.415 . S
C381 H351 0.950 . S
C381 C376 1.363 . S
C381 C380 1.415 . S
H382 C379 0.999 . S
H383 C364 0.913 . S
H384 C402 0.951 . S
H385 C404 0.951 . S
H386 C406 0.950 . S
H387 C407 0.950 . S
H388 C409 0.950 . S
H389 C412 0.950 . S
H390 C413 0.950 . S
H391 C415 0.950 . S
H392 C416 0.950 . S
H393 C417 0.951 . S
H394 C419 0.951 . S
H395 C421 0.950 . S
H396 C422 0.950 . S
H397 C424 0.950 . S
H398 C427 0.950 . S
H399 C428 0.950 . S
H400 C430 0.950 . S
H401 C431 0.950 . S
C402 H384 0.951 . S
C402 C403 1.366 . S
C402 C404 1.388 . S
C403 C402 1.366 . S
C403 C407 1.385 . S
C404 H385 0.951 . S
C404 C402 1.388 . S
C404 C405 1.366 . S
C405 C404 1.366 . S
C405 C406 1.414 . S
C405 C408 1.499 . S
C406 H386 0.950 . S
C406 C405 1.414 . S
C406 C407 1.374 . S
C407 H387 0.950 . S
C407 C403 1.385 . S
C407 C406 1.374 . S
C408 C405 1.499 . S
C408 C409 1.373 . S
C408 C410 1.389 . S
C409 H388 0.950 . S
C409 C408 1.373 . S
C409 C425 1.377 . S
C410 C408 1.389 . S
C410 C411 1.524 . S
C410 C424 1.377 . S
C411 C410 1.524 . S
C411 C412 1.397 . S
C411 C416 1.363 . S
C412 H389 0.950 . S
C412 C411 1.397 . S
C412 C413 1.334 . S
C413 H390 0.950 . S
C413 C412 1.334 . S
C413 C414 1.287 . S
C414 C413 1.287 . S
C414 C415 1.524 . S
C414 H433 0.913 . S
C415 H391 0.950 . S
C415 C414 1.524 . S
C415 C416 1.415 . S
C416 H392 0.950 . S
C416 C411 1.363 . S
C416 C415 1.415 . S
C417 H393 0.951 . S
C417 C418 1.366 . S
C417 C419 1.388 . S
C418 C417 1.366 . S
C418 C422 1.385 . S
C419 H394 0.951 . S
C419 C417 1.388 . S
C419 C420 1.366 . S
C420 C419 1.366 . S
C420 C421 1.414 . S
C420 C423 1.499 . S
C421 H395 0.950 . S
C421 C420 1.414 . S
C421 C422 1.374 . S
C422 H396 0.950 . S
C422 C418 1.385 . S
C422 C421 1.374 . S
C423 C420 1.499 . S
C423 C424 1.373 . S
C423 C425 1.389 . S
C424 H397 0.950 . S
C424 C410 1.377 . S
C424 C423 1.373 . S
C425 C409 1.377 . S
C425 C423 1.389 . S
C425 C426 1.524 . S
C426 C425 1.524 . S
C426 C427 1.397 . S
C426 C431 1.363 . S
C427 H398 0.950 . S
C427 C426 1.397 . S
C427 C428 1.334 . S
C428 H399 0.950 . S
C428 C427 1.334 . S
C428 C429 1.287 . S
C429 C428 1.287 . S
C429 C430 1.524 . S
C429 H432 0.999 . S
C430 H400 0.950 . S
C430 C429 1.524 . S
C430 C431 1.415 . S
C431 H401 0.950 . S
C431 C426 1.363 . S
C431 C430 1.415 . S
H432 C429 0.999 . S
H433 C414 0.913 . S
H434 C452 0.951 . S
H435 C454 0.951 . S
H436 C456 0.950 . S
H437 C457 0.950 . S
H438 C459 0.950 . S
H439 C462 0.950 . S
H440 C463 0.950 . S
H441 C465 0.950 . S
H442 C466 0.950 . S
H443 C467 0.951 . S
H444 C469 0.951 . S
H445 C471 0.950 . S
H446 C472 0.950 . S
H447 C474 0.950 . S
H448 C477 0.950 . S
H449 C478 0.950 . S
H450 C480 0.950 . S
H451 C481 0.950 . S
C452 H434 0.951 . S
C452 C453 1.366 . S
C452 C454 1.388 . S
C453 C452 1.366 . S
C453 C457 1.385 . S
C454 H435 0.951 . S
C454 C452 1.388 . S
C454 C455 1.366 . S
C455 C454 1.366 . S
C455 C456 1.414 . S
C455 C458 1.499 . S
C456 H436 0.950 . S
C456 C455 1.414 . S
C456 C457 1.374 . S
C457 H437 0.950 . S
C457 C453 1.385 . S
C457 C456 1.374 . S
C458 C455 1.499 . S
C458 C459 1.373 . S
C458 C460 1.389 . S
C459 H438 0.950 . S
C459 C458 1.373 . S
C459 C475 1.377 . S
C460 C458 1.389 . S
C460 C461 1.524 . S
C460 C474 1.377 . S
C461 C460 1.524 . S
C461 C462 1.397 . S
C461 C466 1.363 . S
C462 H439 0.950 . S
C462 C461 1.397 . S
C462 C463 1.334 . S
C463 H440 0.950 . S
C463 C462 1.334 . S
C463 C464 1.287 . S
C464 C463 1.287 . S
C464 C465 1.524 . S
C464 H483 0.913 . S
C465 H441 0.950 . S
C465 C464 1.524 . S
C465 C466 1.415 . S
C466 H442 0.950 . S
C466 C461 1.363 . S
C466 C465 1.415 . S
C467 H443 0.951 . S
C467 C468 1.366 . S
C467 C469 1.388 . S
C468 C467 1.366 . S
C468 C472 1.385 . S
C469 H444 0.951 . S
C469 C467 1.388 . S
C469 C470 1.366 . S
C470 C469 1.366 . S
C470 C471 1.414 . S
C470 C473 1.499 . S
C471 H445 0.950 . S
C471 C470 1.414 . S
C471 C472 1.374 . S
C472 H446 0.950 . S
C472 C468 1.385 . S
C472 C471 1.374 . S
C473 C470 1.499 . S
C473 C474 1.373 . S
C473 C475 1.389 . S
C474 H447 0.950 . S
C474 C460 1.377 . S
C474 C473 1.373 . S
C475 C459 1.377 . S
C475 C473 1.389 . S
C475 C476 1.524 . S
C476 C475 1.524 . S
C476 C477 1.397 . S
C476 C481 1.363 . S
C477 H448 0.950 . S
C477 C476 1.397 . S
C477 C478 1.334 . S
C478 H449 0.950 . S
C478 C477 1.334 . S
C478 C479 1.287 . S
C479 C478 1.287 . S
C479 C480 1.524 . S
C479 H482 0.999 . S
C480 H450 0.950 . S
C480 C479 1.524 . S
C480 C481 1.415 . S
C481 H451 0.950 . S
C481 C476 1.363 . S
C481 C480 1.415 . S
H482 C479 0.999 . S
H483 C464 0.913 . S
H484 C502 0.951 . S
H485 C504 0.951 . S
H486 C506 0.950 . S
H487 C507 0.950 . S
H488 C509 0.950 . S
H489 C512 0.950 . S
H490 C513 0.950 . S
H491 C515 0.950 . S
H492 C516 0.950 . S
H493 C517 0.951 . S
H494 C519 0.951 . S
H495 C521 0.950 . S
H496 C522 0.950 . S
H497 C524 0.950 . S
H498 C527 0.950 . S
H499 C528 0.950 . S
H500 C530 0.950 . S
H501 C531 0.950 . S
C502 H484 0.951 . S
C502 C503 1.366 . S
C502 C504 1.388 . S
C503 C502 1.366 . S
C503 C507 1.385 . S
C504 H485 0.951 . S
C504 C502 1.388 . S
C504 C505 1.366 . S
C505 C504 1.366 . S
C505 C506 1.414 . S
C505 C508 1.499 . S
C506 H486 0.950 . S
C506 C505 1.414 . S
C506 C507 1.374 . S
C507 H487 0.950 . S
C507 C503 1.385 . S
C507 C506 1.374 . S
C508 C505 1.499 . S
C508 C509 1.373 . S
C508 C510 1.389 . S
C509 H488 0.950 . S
C509 C508 1.373 . S
C509 C525 1.377 . S
C510 C508 1.389 . S
C510 C511 1.524 . S
C510 C524 1.377 . S
C511 C510 1.524 . S
C511 C512 1.397 . S
C511 C516 1.363 . S
C512 H489 0.950 . S
C512 C511 1.397 . S
C512 C513 1.334 . S
C513 H490 0.950 . S
C513 C512 1.334 . S
C513 C514 1.287 . S
C514 C513 1.287 . S
C514 C515 1.524 . S
C514 H533 0.913 . S
C515 H491 0.950 . S
C515 C514 1.524 . S
C515 C516 1.415 . S
C516 H492 0.950 . S
C516 C511 1.363 . S
C516 C515 1.415 . S
C517 H493 0.951 . S
C517 C518 1.366 . S
C517 C519 1.388 . S
C518 C517 1.366 . S
C518 C522 1.385 . S
C519 H494 0.951 . S
C519 C517 1.388 . S
C519 C520 1.366 . S
C520 C519 1.366 . S
C520 C521 1.414 . S
C520 C523 1.499 . S
C521 H495 0.950 . S
C521 C520 1.414 . S
C521 C522 1.374 . S
C522 H496 0.950 . S
C522 C518 1.385 . S
C522 C521 1.374 . S
C523 C520 1.499 . S
C523 C524 1.373 . S
C523 C525 1.389 . S
C524 H497 0.950 . S
C524 C510 1.377 . S
C524 C523 1.373 . S
C525 C509 1.377 . S
C525 C523 1.389 . S
C525 C526 1.524 . S
C526 C525 1.524 . S
C526 C527 1.397 . S
C526 C531 1.363 . S
C527 H498 0.950 . S
C527 C526 1.397 . S
C527 C528 1.334 . S
C528 H499 0.950 . S
C528 C527 1.334 . S
C528 C529 1.287 . S
C529 C528 1.287 . S
C529 C530 1.524 . S
C529 H532 0.999 . S
C530 H500 0.950 . S
C530 C529 1.524 . S
C530 C531 1.415 . S
C531 H501 0.950 . S
C531 C526 1.363 . S
C531 C530 1.415 . S
H532 C529 0.999 . S
H533 C514 0.913 . S
H534 C552 0.951 . S
H535 C554 0.951 . S
H536 C556 0.950 . S
H537 C557 0.950 . S
H538 C559 0.950 . S
H539 C562 0.950 . S
H540 C563 0.950 . S
H541 C565 0.950 . S
H542 C566 0.950 . S
H543 C567 0.951 . S
H544 C569 0.951 . S
H545 C571 0.950 . S
H546 C572 0.950 . S
H547 C574 0.950 . S
H548 C577 0.950 . S
H549 C578 0.950 . S
H550 C580 0.950 . S
H551 C581 0.950 . S
C552 H534 0.951 . S
C552 C553 1.366 . S
C552 C554 1.388 . S
C553 C552 1.366 . S
C553 C557 1.385 . S
C554 H535 0.951 . S
C554 C552 1.388 . S
C554 C555 1.366 . S
C555 C554 1.366 . S
C555 C556 1.414 . S
C555 C558 1.499 . S
C556 H536 0.950 . S
C556 C555 1.414 . S
C556 C557 1.374 . S
C557 H537 0.950 . S
C557 C553 1.385 . S
C557 C556 1.374 . S
C558 C555 1.499 . S
C558 C559 1.373 . S
C558 C560 1.389 . S
C559 H538 0.950 . S
C559 C558 1.373 . S
C559 C575 1.377 . S
C560 C558 1.389 . S
C560 C561 1.524 . S
C560 C574 1.377 . S
C561 C560 1.524 . S
C561 C562 1.397 . S
C561 C566 1.363 . S
C562 H539 0.950 . S
C562 C561 1.397 . S
C562 C563 1.334 . S
C563 H540 0.950 . S
C563 C562 1.334 . S
C563 C564 1.287 . S
C564 C563 1.287 . S
C564 C565 1.524 . S
C564 H583 0.913 . S
C565 H541 0.950 . S
C565 C564 1.524 . S
C565 C566 1.415 . S
C566 H542 0.950 . S
C566 C561 1.363 . S
C566 C565 1.415 . S
C567 H543 0.951 . S
C567 C568 1.366 . S
C567 C569 1.388 . S
C568 C567 1.366 . S
C568 C572 1.385 . S
C569 H544 0.951 . S
C569 C567 1.388 . S
C569 C570 1.366 . S
C570 C569 1.366 . S
C570 C571 1.414 . S
C570 C573 1.499 . S
C571 H545 0.950 . S
C571 C570 1.414 . S
C571 C572 1.374 . S
C572 H546 0.950 . S
C572 C568 1.385 . S
C572 C571 1.374 . S
C573 C570 1.499 . S
C573 C574 1.373 . S
C573 C575 1.389 . S
C574 H547 0.950 . S
C574 C560 1.377 . S
C574 C573 1.373 . S
C575 C559 1.377 . S
C575 C573 1.389 . S
C575 C576 1.524 . S
C576 C575 1.524 . S
C576 C577 1.397 . S
C576 C581 1.363 . S
C577 H548 0.950 . S
C577 C576 1.397 . S
C577 C578 1.334 . S
C578 H549 0.950 . S
C578 C577 1.334 . S
C578 C579 1.287 . S
C579 C578 1.287 . S
C579 C580 1.524 . S
C579 H582 0.999 . S
C580 H550 0.950 . S
C580 C579 1.524 . S
C580 C581 1.415 . S
C581 H551 0.950 . S
C581 C576 1.363 . S
C581 C580 1.415 . S
H582 C579 0.999 . S
H583 C564 0.913 . S
H584 C602 0.951 . S
H585 C604 0.951 . S
H586 C606 0.950 . S
H587 C607 0.950 . S
H588 C609 0.950 . S
H589 C612 0.950 . S
H590 C613 0.950 . S
H591 C615 0.950 . S
H592 C616 0.950 . S
H593 C617 0.951 . S
H594 C619 0.951 . S
H595 C621 0.950 . S
H596 C622 0.950 . S
H597 C624 0.950 . S
H598 C627 0.950 . S
H599 C628 0.950 . S
H600 C630 0.950 . S
H601 C631 0.950 . S
C602 H584 0.951 . S
C602 C603 1.366 . S
C602 C604 1.388 . S
C603 C602 1.366 . S
C603 C607 1.385 . S
C604 H585 0.951 . S
C604 C602 1.388 . S
C604 C605 1.366 . S
C605 C604 1.366 . S
C605 C606 1.414 . S
C605 C608 1.499 . S
C606 H586 0.950 . S
C606 C605 1.414 . S
C606 C607 1.374 . S
C607 H587 0.950 . S
C607 C603 1.385 . S
C607 C606 1.374 . S
C608 C605 1.499 . S
C608 C609 1.373 . S
C608 C610 1.389 . S
C609 H588 0.950 . S
C609 C608 1.373 . S
C609 C625 1.377 . S
C610 C608 1.389 . S
C610 C611 1.524 . S
C610 C624 1.377 . S
C611 C610 1.524 . S
C611 C612 1.397 . S
C611 C616 1.363 . S
C612 H589 0.950 . S
C612 C611 1.397 . S
C612 C613 1.334 . S
C613 H590 0.950 . S
C613 C612 1.334 . S
C613 C614 1.287 . S
C614 C613 1.287 . S
C614 C615 1.524 . S
C614 H633 0.913 . S
C615 H591 0.950 . S
C615 C614 1.524 . S
C615 C616 1.415 . S
C616 H592 0.950 . S
C616 C611 1.363 . S
C616 C615 1.415 . S
C617 H593 0.951 . S
C617 C618 1.366 . S
C617 C619 1.388 . S
C618 C617 1.366 . S
C618 C622 1.385 . S
C619 H594 0.951 . S
C619 C617 1.388 . S
C619 C620 1.366 . S
C620 C619 1.366 . S
C620 C621 1.414 . S
C620 C623 1.499 . S
C621 H595 0.950 . S
C621 C620 1.414 . S
C621 C622 1.374 . S
C622 H596 0.950 . S
C622 C618 1.385 . S
C622 C621 1.374 . S
C623 C620 1.499 . S
C623 C624 1.373 . S
C623 C625 1.389 . S
C624 H597 0.950 . S
C624 C610 1.377 . S
C624 C623 1.373 . S
C625 C609 1.377 . S
C625 C623 1.389 . S
C625 C626 1.524 . S
C626 C625 1.524 . S
C626 C627 1.397 . S
C626 C631 1.363 . S
C627 H598 0.950 . S
C627 C626 1.397 . S
C627 C628 1.334 . S
C628 H599 0.950 . S
C628 C627 1.334 . S
C628 C629 1.287 . S
C629 C628 1.287 . S
C629 C630 1.524 . S
C629 H632 0.999 . S
C630 H600 0.950 . S
C630 C629 1.524 . S
C630 C631 1.415 . S
C631 H601 0.950 . S
C631 C626 1.363 . S
C631 C630 1.415 . S
H632 C629 0.999 . S
H633 C614 0.913 . S
H634 C652 0.951 . S
H635 C654 0.951 . S
H636 C656 0.950 . S
H637 C657 0.950 . S
H638 C659 0.950 . S
H639 C662 0.950 . S
H640 C663 0.950 . S
H641 C665 0.950 . S
H642 C666 0.950 . S
H643 C667 0.951 . S
H644 C669 0.951 . S
H645 C671 0.950 . S
H646 C672 0.950 . S
H647 C674 0.950 . S
H648 C677 0.950 . S
H649 C678 0.950 . S
H650 C680 0.950 . S
H651 C681 0.950 . S
C652 H634 0.951 . S
C652 C653 1.366 . S
C652 C654 1.388 . S
C653 C652 1.366 . S
C653 C657 1.385 . S
C654 H635 0.951 . S
C654 C652 1.388 . S
C654 C655 1.366 . S
C655 C654 1.366 . S
C655 C656 1.414 . S
C655 C658 1.499 . S
C656 H636 0.950 . S
C656 C655 1.414 . S
C656 C657 1.374 . S
C657 H637 0.950 . S
C657 C653 1.385 . S
C657 C656 1.374 . S
C658 C655 1.499 . S
C658 C659 1.373 . S
C658 C660 1.389 . S
C659 H638 0.950 . S
C659 C658 1.373 . S
C659 C675 1.377 . S
C660 C658 1.389 . S
C660 C661 1.524 . S
C660 C674 1.377 . S
C661 C660 1.524 . S
C661 C662 1.397 . S
C661 C666 1.363 . S
C662 H639 0.950 . S
C662 C661 1.397 . S
C662 C663 1.334 . S
C663 H640 0.950 . S
C663 C662 1.334 . S
C663 C664 1.287 . S
C664 C663 1.287 . S
C664 C665 1.524 . S
C664 H683 0.913 . S
C665 H641 0.950 . S
C665 C664 1.524 . S
C665 C666 1.415 . S
C666 H642 0.950 . S
C666 C661 1.363 . S
C666 C665 1.415 . S
C667 H643 0.951 . S
C667 C668 1.366 . S
C667 C669 1.388 . S
C668 C667 1.366 . S
C668 C672 1.385 . S
C669 H644 0.951 . S
C669 C667 1.388 . S
C669 C670 1.366 . S
C670 C669 1.366 . S
C670 C671 1.414 . S
C670 C673 1.499 . S
C671 H645 0.950 . S
C671 C670 1.414 . S
C671 C672 1.374 . S
C672 H646 0.950 . S
C672 C668 1.385 . S
C672 C671 1.374 . S
C673 C670 1.499 . S
C673 C674 1.373 . S
C673 C675 1.389 . S
C674 H647 0.950 . S
C674 C660 1.377 . S
C674 C673 1.373 . S
C675 C659 1.377 . S
C675 C673 1.389 . S
C675 C676 1.524 . S
C676 C675 1.524 . S
C676 C677 1.397 . S
C676 C681 1.363 . S
C677 H648 0.950 . S
C677 C676 1.397 . S
C677 C678 1.334 . S
C678 H649 0.950 . S
C678 C677 1.334 . S
C678 C679 1.287 . S
C679 C678 1.287 . S
C679 C680 1.524 . S
C679 H682 0.999 . S
C680 H650 0.950 . S
C680 C679 1.524 . S
C680 C681 1.415 . S
C681 H651 0.950 . S
C681 C676 1.363 . S
C681 C680 1.415 . S
H682 C679 0.999 . S
H683 C664 0.913 . S
H684 C702 0.951 . S
H685 C704 0.951 . S
H686 C706 0.950 . S
H687 C707 0.950 . S
H688 C709 0.950 . S
H689 C712 0.950 . S
H690 C713 0.950 . S
H691 C715 0.950 . S
H692 C716 0.950 . S
H693 C717 0.951 . S
H694 C719 0.951 . S
H695 C721 0.950 . S
H696 C722 0.950 . S
H697 C724 0.950 . S
H698 C727 0.950 . S
H699 C728 0.950 . S
H700 C730 0.950 . S
H701 C731 0.950 . S
C702 H684 0.951 . S
C702 C703 1.366 . S
C702 C704 1.388 . S
C703 C702 1.366 . S
C703 C707 1.385 . S
C704 H685 0.951 . S
C704 C702 1.388 . S
C704 C705 1.366 . S
C705 C704 1.366 . S
C705 C706 1.414 . S
C705 C708 1.499 . S
C706 H686 0.950 . S
C706 C705 1.414 . S
C706 C707 1.374 . S
C707 H687 0.950 . S
C707 C703 1.385 . S
C707 C706 1.374 . S
C708 C705 1.499 . S
C708 C709 1.373 . S
C708 C710 1.389 . S
C709 H688 0.950 . S
C709 C708 1.373 . S
C709 C725 1.377 . S
C710 C708 1.389 . S
C710 C711 1.524 . S
C710 C724 1.377 . S
C711 C710 1.524 . S
C711 C712 1.397 . S
C711 C716 1.363 . S
C712 H689 0.950 . S
C712 C711 1.397 . S
C712 C713 1.334 . S
C713 H690 0.950 . S
C713 C712 1.334 . S
C713 C714 1.287 . S
C714 C713 1.287 . S
C714 C715 1.524 . S
C714 H733 0.913 . S
C715 H691 0.950 . S
C715 C714 1.524 . S
C715 C716 1.415 . S
C716 H692 0.950 . S
C716 C711 1.363 . S
C716 C715 1.415 . S
C717 H693 0.951 . S
C717 C718 1.366 . S
C717 C719 1.388 . S
C718 C717 1.366 . S
C718 C722 1.385 . S
C719 H694 0.951 . S
C719 C717 1.388 . S
C719 C720 1.366 . S
C720 C719 1.366 . S
C720 C721 1.414 . S
C720 C723 1.499 . S
C721 H695 0.950 . S
C721 C720 1.414 . S
C721 C722 1.374 . S
C722 H696 0.950 . S
C722 C718 1.385 . S
C722 C721 1.374 . S
C723 C720 1.499 . S
C723 C724 1.373 . S
C723 C725 1.389 . S
C724 H697 0.950 . S
C724 C710 1.377 . S
C724 C723 1.373 . S
C725 C709 1.377 . S
C725 C723 1.389 . S
C725 C726 1.524 . S
C726 C725 1.524 . S
C726 C727 1.397 . S
C726 C731 1.363 . S
C727 H698 0.950 . S
C727 C726 1.397 . S
C727 C728 1.334 . S
C728 H699 0.950 . S
C728 C727 1.334 . S
C728 C729 1.287 . S
C729 C728 1.287 . S
C729 C730 1.524 . S
C729 H732 0.999 . S
C730 H700 0.950 . S
C730 C729 1.524 . S
C730 C731 1.415 . S
C731 H701 0.950 . S
C731 C726 1.363 . S
C731 C730 1.415 . S
H732 C729 0.999 . S
H733 C714 0.913 . S
H734 C752 0.951 . S
H735 C754 0.951 . S
H736 C756 0.950 . S
H737 C757 0.950 . S
H738 C759 0.950 . S
H739 C762 0.950 . S
H740 C763 0.950 . S
H741 C765 0.950 . S
H742 C766 0.950 . S
H743 C767 0.951 . S
H744 C769 0.951 . S
H745 C771 0.950 . S
H746 C772 0.950 . S
H747 C774 0.950 . S
H748 C777 0.950 . S
H749 C778 0.950 . S
H750 C780 0.950 . S
H751 C781 0.950 . S
C752 H734 0.951 . S
C752 C753 1.366 . S
C752 C754 1.388 . S
C753 C752 1.366 . S
C753 C757 1.385 . S
C754 H735 0.951 . S
C754 C752 1.388 . S
C754 C755 1.366 . S
C755 C754 1.366 . S
C755 C756 1.414 . S
C755 C758 1.499 . S
C756 H736 0.950 . S
C756 C755 1.414 . S
C756 C757 1.374 . S
C757 H737 0.950 . S
C757 C753 1.385 . S
C757 C756 1.374 . S
C758 C755 1.499 . S
C758 C759 1.373 . S
C758 C760 1.389 . S
C759 H738 0.950 . S
C759 C758 1.373 . S
C759 C775 1.377 . S
C760 C758 1.389 . S
C760 C761 1.524 . S
C760 C774 1.377 . S
C761 C760 1.524 . S
C761 C762 1.397 . S
C761 C766 1.363 . S
C762 H739 0.950 . S
C762 C761 1.397 . S
C762 C763 1.334 . S
C763 H740 0.950 . S
C763 C762 1.334 . S
C763 C764 1.287 . S
C764 C763 1.287 . S
C764 C765 1.524 . S
C764 H783 0.913 . S
C765 H741 0.950 . S
C765 C764 1.524 . S
C765 C766 1.415 . S
C766 H742 0.950 . S
C766 C761 1.363 . S
C766 C765 1.415 . S
C767 H743 0.951 . S
C767 C768 1.366 . S
C767 C769 1.388 . S
C768 C767 1.366 . S
C768 C772 1.385 . S
C769 H744 0.951 . S
C769 C767 1.388 . S
C769 C770 1.366 . S
C770 C769 1.366 . S
C770 C771 1.414 . S
C770 C773 1.499 . S
C771 H745 0.950 . S
C771 C770 1.414 . S
C771 C772 1.374 . S
C772 H746 0.950 . S
C772 C768 1.385 . S
C772 C771 1.374 . S
C773 C770 1.499 . S
C773 C774 1.373 . S
C773 C775 1.389 . S
C774 H747 0.950 . S
C774 C760 1.377 . S
C774 C773 1.373 . S
C775 C759 1.377 . S
C775 C773 1.389 . S
C775 C776 1.524 . S
C776 C775 1.524 . S
C776 C777 1.397 . S
C776 C781 1.363 . S
C777 H748 0.950 . S
C777 C776 1.397 . S
C777 C778 1.334 . S
C778 H749 0.950 . S
C778 C777 1.334 . S
C778 C779 1.287 . S
C779 C778 1.287 . S
C779 C780 1.524 . S
C779 H782 0.999 . S
C780 H750 0.950 . S
C780 C779 1.524 . S
C780 C781 1.415 . S
C781 H751 0.950 . S
C781 C776 1.363 . S
C781 C780 1.415 . S
H782 C779 0.999 . S
H783 C764 0.913 . S
H784 C802 0.951 . S
H785 C804 0.951 . S
H786 C806 0.950 . S
H787 C807 0.950 . S
H788 C809 0.950 . S
H789 C812 0.950 . S
H790 C813 0.950 . S
H791 C815 0.950 . S
H792 C816 0.950 . S
H793 C817 0.951 . S
H794 C819 0.951 . S
H795 C821 0.950 . S
H796 C822 0.950 . S
H797 C824 0.950 . S
H798 C827 0.950 . S
H799 C828 0.950 . S
H800 C830 0.950 . S
H801 C831 0.950 . S
C802 H784 0.951 . S
C802 C803 1.366 . S
C802 C804 1.388 . S
C803 C802 1.366 . S
C803 C807 1.385 . S
C804 H785 0.951 . S
C804 C802 1.388 . S
C804 C805 1.366 . S
C805 C804 1.366 . S
C805 C806 1.414 . S
C805 C808 1.499 . S
C806 H786 0.950 . S
C806 C805 1.414 . S
C806 C807 1.374 . S
C807 H787 0.950 . S
C807 C803 1.385 . S
C807 C806 1.374 . S
C808 C805 1.499 . S
C808 C809 1.373 . S
C808 C810 1.389 . S
C809 H788 0.950 . S
C809 C808 1.373 . S
C809 C825 1.377 . S
C810 C808 1.389 . S
C810 C811 1.524 . S
C810 C824 1.377 . S
C811 C810 1.524 . S
C811 C812 1.397 . S
C811 C816 1.363 . S
C812 H789 0.950 . S
C812 C811 1.397 . S
C812 C813 1.334 . S
C813 H790 0.950 . S
C813 C812 1.334 . S
C813 C814 1.287 . S
C814 C813 1.287 . S
C814 C815 1.524 . S
C814 H833 0.913 . S
C815 H791 0.950 . S
C815 C814 1.524 . S
C815 C816 1.415 . S
C816 H792 0.950 . S
C816 C811 1.363 . S
C816 C815 1.415 . S
C817 H793 0.951 . S
C817 C818 1.366 . S
C817 C819 1.388 . S
C818 C817 1.366 . S
C818 C822 1.385 . S
C819 H794 0.951 . S
C819 C817 1.388 . S
C819 C820 1.366 . S
C820 C819 1.366 . S
C820 C821 1.414 . S
C820 C823 1.499 . S
C821 H795 0.950 . S
C821 C820 1.414 . S
C821 C822 1.374 . S
C822 H796 0.950 . S
C822 C818 1.385 . S
C822 C821 1.374 . S
C823 C820 1.499 . S
C823 C824 1.373 . S
C823 C825 1.389 . S
C824 H797 0.950 . S
C824 C810 1.377 . S
C824 C823 1.373 . S
C825 C809 1.377 . S
C825 C823 1.389 . S
C825 C826 1.524 . S
C826 C825 1.524 . S
C826 C827 1.397 . S
C826 C831 1.363 . S
C827 H798 0.950 . S
C827 C826 1.397 . S
C827 C828 1.334 . S
C828 H799 0.950 . S
C828 C827 1.334 . S
C828 C829 1.287 . S
C829 C828 1.287 . S
C829 C830 1.524 . S
C829 H832 0.999 . S
C830 H800 0.950 . S
C830 C829 1.524 . S
C830 C831 1.415 . S
C831 H801 0.950 . S
C831 C826 1.363 . S
C831 C830 1.415 . S
H832 C829 0.999 . S
H833 C814 0.913 . S
H834 C852 0.951 . S
H835 C854 0.951 . S
H836 C856 0.950 . S
H837 C857 0.950 . S
H838 C859 0.950 . S
H839 C862 0.950 . S
H840 C863 0.950 . S
H841 C865 0.950 . S
H842 C866 0.950 . S
H843 C867 0.951 . S
H844 C869 0.951 . S
H845 C871 0.950 . S
H846 C872 0.950 . S
H847 C874 0.950 . S
H848 C877 0.950 . S
H849 C878 0.950 . S
H850 C880 0.950 . S
H851 C881 0.950 . S
C852 H834 0.951 . S
C852 C853 1.366 . S
C852 C854 1.388 . S
C853 C852 1.366 . S
C853 C857 1.385 . S
C854 H835 0.951 . S
C854 C852 1.388 . S
C854 C855 1.366 . S
C855 C854 1.366 . S
C855 C856 1.414 . S
C855 C858 1.499 . S
C856 H836 0.950 . S
C856 C855 1.414 . S
C856 C857 1.374 . S
C857 H837 0.950 . S
C857 C853 1.385 . S
C857 C856 1.374 . S
C858 C855 1.499 . S
C858 C859 1.373 . S
C858 C860 1.389 . S
C859 H838 0.950 . S
C859 C858 1.373 . S
C859 C875 1.377 . S
C860 C858 1.389 . S
C860 C861 1.524 . S
C860 C874 1.377 . S
C861 C860 1.524 . S
C861 C862 1.397 . S
C861 C866 1.363 . S
C862 H839 0.950 . S
C862 C861 1.397 . S
C862 C863 1.334 . S
C863 H840 0.950 . S
C863 C862 1.334 . S
C863 C864 1.287 . S
C864 C863 1.287 . S
C864 C865 1.524 . S
C864 H883 0.913 . S
C865 H841 0.950 . S
C865 C864 1.524 . S
C865 C866 1.415 . S
C866 H842 0.950 . S
C866 C861 1.363 . S
C866 C865 1.415 . S
C867 H843 0.951 . S
C867 C868 1.366 . S
C867 C869 1.388 . S
C868 C867 1.366 . S
C868 C872 1.385 . S
C869 H844 0.951 . S
C869 C867 1.388 . S
C869 C870 1.366 . S
C870 C869 1.366 . S
C870 C871 1.414 . S
C870 C873 1.499 . S
C871 H845 0.950 . S
C871 C870 1.414 . S
C871 C872 1.374 . S
C872 H846 0.950 . S
C872 C868 1.385 . S
C872 C871 1.374 . S
C873 C870 1.499 . S
C873 C874 1.373 . S
C873 C875 1.389 . S
C874 H847 0.950 . S
C874 C860 1.377 . S
C874 C873 1.373 . S
C875 C859 1.377 . S
C875 C873 1.389 . S
C875 C876 1.524 . S
C876 C875 1.524 . S
C876 C877 1.397 . S
C876 C881 1.363 . S
C877 H848 0.950 . S
C877 C876 1.397 . S
C877 C878 1.334 . S
C878 H849 0.950 . S
C878 C877 1.334 . S
C878 C879 1.287 . S
C879 C878 1.287 . S
C879 C880 1.524 . S
C879 H882 0.999 . S
C880 H850 0.950 . S
C880 C879 1.524 . S
C880 C881 1.415 . S
C881 H851 0.950 . S
C881 C876 1.363 . S
C881 C880 1.415 . S
H882 C879 0.999 . S
H883 C864 0.913 . S
H884 C902 0.951 . S
H885 C904 0.951 . S
H886 C906 0.950 . S
H887 C907 0.950 . S
H888 C909 0.950 . S
H889 C912 0.950 . S
H890 C913 0.950 . S
H891 C915 0.950 . S
H892 C916 0.950 . S
H893 C917 0.951 . S
H894 C919 0.951 . S
H895 C921 0.950 . S
H896 C922 0.950 . S
H897 C924 0.950 . S
H898 C927 0.950 . S
H899 C928 0.950 . S
H900 C930 0.950 . S
H901 C931 0.950 . S
C902 H884 0.951 . S
C902 C903 1.366 . S
C902 C904 1.388 . S
C903 C902 1.366 . S
C903 C907 1.385 . S
C904 H885 0.951 . S
C904 C902 1.388 . S
C904 C905 1.366 . S
C905 C904 1.366 . S
C905 C906 1.414 . S
C905 C908 1.499 . S
C906 H886 0.950 . S
C906 C905 1.414 . S
C906 C907 1.374 . S
C907 H887 0.950 . S
C907 C903 1.385 . S
C907 C906 1.374 . S
C908 C905 1.499 . S
C908 C909 1.373 . S
C908 C910 1.389 . S
C909 H888 0.950 . S
C909 C908 1.373 . S
C909 C925 1.377 . S
C910 C908 1.389 . S
C910 C911 1.524 . S
C910 C924 1.377 . S
C911 C910 1.524 . S
C911 C912 1.397 . S
C911 C916 1.363 . S
C912 H889 0.950 . S
C912 C911 1.397 . S
C912 C913 1.334 . S
C913 H890 0.950 . S
C913 C912 1.334 . S
C913 C914 1.287 . S
C914 C913 1.287 . S
C914 C915 1.524 . S
C914 H933 0.913 . S
C915 H891 0.950 . S
C915 C914 1.524 . S
C915 C916 1.415 . S
C916 H892 0.950 . S
C916 C911 1.363 . S
C916 C915 1.415 . S
C917 H893 0.951 . S
C917 C918 1.366 . S
C917 C919 1.388 . S
C918 C917 1.366 . S
C918 C922 1.385 . S
C919 H894 0.951 . S
C919 C917 1.388 . S
C919 C920 1.366 . S
C920 C919 1.366 . S
C920 C921 1.414 . S
C920 C923 1.499 . S
C921 H895 0.950 . S
C921 C920 1.414 . S
C921 C922 1.374 . S
C922 H896 0.950 . S
C922 C918 1.385 . S
C922 C921 1.374 . S
C923 C920 1.499 . S
C923 C924 1.373 . S
C923 C925 1.389 . S
C924 H897 0.950 . S
C924 C910 1.377 . S
C924 C923 1.373 . S
C925 C909 1.377 . S
C925 C923 1.389 . S
C925 C926 1.524 . S
C926 C925 1.524 . S
C926 C927 1.397 . S
C926 C931 1.363 . S
C927 H898 0.950 . S
C927 C926 1.397 . S
C927 C928 1.334 . S
C928 H899 0.950 . S
C928 C927 1.334 . S
C928 C929 1.287 . S
C929 C928 1.287 . S
C929 C930 1.524 . S
C929 H932 0.999 . S
C930 H900 0.950 . S
C930 C929 1.524 . S
C930 C931 1.415 . S
C931 H901 0.950 . S
C931 C926 1.363 . S
C931 C930 1.415 . S
H932 C929 0.999 . S
H933 C914 0.913 . S
H934 C952 0.951 . S
H935 C954 0.951 . S
H936 C956 0.950 . S
H937 C957 0.950 . S
H938 C959 0.950 . S
H939 C962 0.950 . S
H940 C963 0.950 . S
H941 C965 0.950 . S
H942 C966 0.950 . S
H943 C967 0.951 . S
H944 C969 0.951 . S
H945 C971 0.950 . S
H946 C972 0.950 . S
H947 C974 0.950 . S
H948 C977 0.950 . S
H949 C978 0.950 . S
H950 C980 0.950 . S
H951 C981 0.950 . S
C952 H934 0.951 . S
C952 C953 1.366 . S
C952 C954 1.388 . S
C953 C952 1.366 . S
C953 C957 1.385 . S
C954 H935 0.951 . S
C954 C952 1.388 . S
C954 C955 1.366 . S
C955 C954 1.366 . S
C955 C956 1.414 . S
C955 C958 1.499 . S
C956 H936 0.950 . S
C956 C955 1.414 . S
C956 C957 1.374 . S
C957 H937 0.950 . S
C957 C953 1.385 . S
C957 C956 1.374 . S
C958 C955 1.499 . S
C958 C959 1.373 . S
C958 C960 1.389 . S
C959 H938 0.950 . S
C959 C958 1.373 . S
C959 C975 1.377 . S
C960 C958 1.389 . S
C960 C961 1.524 . S
C960 C974 1.377 . S
C961 C960 1.524 . S
C961 C962 1.397 . S
C961 C966 1.363 . S
C962 H939 0.950 . S
C962 C961 1.397 . S
C962 C963 1.334 . S
C963 H940 0.950 . S
C963 C962 1.334 . S
C963 C964 1.287 . S
C964 C963 1.287 . S
C964 C965 1.524 . S
C964 H983 0.913 . S
C965 H941 0.950 . S
C965 C964 1.524 . S
C965 C966 1.415 . S
C966 H942 0.950 . S
C966 C961 1.363 . S
C966 C965 1.415 . S
C967 H943 0.951 . S
C967 C968 1.366 . S
C967 C969 1.388 . S
C968 C967 1.366 . S
C968 C972 1.385 . S
C969 H944 0.951 . S
C969 C967 1.388 . S
C969 C970 1.366 . S
C970 C969 1.366 . S
C970 C971 1.414 . S
C970 C973 1.499 . S
C971 H945 0.950 . S
C971 C970 1.414 . S
C971 C972 1.374 . S
C972 H946 0.950 . S
C972 C968 1.385 . S
C972 C971 1.374 . S
C973 C970 1.499 . S
C973 C974 1.373 . S
C973 C975 1.389 . S
C974 H947 0.950 . S
C974 C960 1.377 . S
C974 C973 1.373 . S
C975 C959 1.377 . S
C975 C973 1.389 . S
C975 C976 1.524 . S
C976 C975 1.524 . S
C976 C977 1.397 . S
C976 C981 1.363 . S
C977 H948 0.950 . S
C977 C976 1.397 . S
C977 C978 1.334 . S
C978 H949 0.950 . S
C978 C977 1.334 . S
C978 C979 1.287 . S
C979 C978 1.287 . S
C979 C980 1.524 . S
C979 H982 0.999 . S
C980 H950 0.950 . S
C980 C979 1.524 . S
C980 C981 1.415 . S
C981 H951 0.950 . S
C981 C976 1.363 . S
C981 C980 1.415 . S
H982 C979 0.999 . S
H983 C964 0.913 . S
H984 C1002 0.951 . S
H985 C1004 0.951 . S
H986 C1006 0.950 . S
H987 C1007 0.950 . S
H988 C1009 0.950 . S
H989 C1012 0.950 . S
H990 C1013 0.950 . S
H991 C1015 0.950 . S
H992 C1016 0.950 1_556 S
H993 C1017 0.951 . S
H994 C1019 0.951 . S
H995 C1021 0.950 . S
H996 C1022 0.950 . S
H997 C1024 0.950 . S
H998 C1027 0.950 . S
H999 C1028 0.950 . S
H1000 C1030 0.950 1_554 S
H1001 C1031 0.950 . S
C1002 H984 0.951 . S
C1002 C1003 1.366 1_556 S
C1002 C1004 1.388 . S
C1003 C1002 1.366 1_554 S
C1003 C1007 1.385 . S
C1004 H985 0.951 . S
C1004 C1002 1.388 . S
C1004 C1005 1.366 1_556 S
C1005 C1004 1.366 1_554 S
C1005 C1006 1.414 . S
C1005 C1008 1.499 . S
C1006 H986 0.950 . S
C1006 C1005 1.414 . S
C1006 C1007 1.374 . S
C1007 H987 0.950 . S
C1007 C1003 1.385 . S
C1007 C1006 1.374 . S
C1008 C1005 1.499 . S
C1008 C1009 1.373 1_554 S
C1008 C1010 1.389 . S
C1009 H988 0.950 . S
C1009 C1008 1.373 1_556 S
C1009 C1025 1.377 . S
C1010 C1008 1.389 . S
C1010 C1011 1.524 . S
C1010 C1024 1.377 . S
C1011 C1010 1.524 . S
C1011 C1012 1.397 . S
C1011 C1016 1.363 . S
C1012 H989 0.950 . S
C1012 C1011 1.397 . S
C1012 C1013 1.334 . S
C1013 H990 0.950 . S
C1013 C1012 1.334 . S
C1013 C1014 1.287 . S
C1014 C1013 1.287 . S
C1014 C1015 1.524 . S
C1014 H1033 0.913 . S
C1015 H991 0.950 . S
C1015 C1014 1.524 . S
C1015 C1016 1.415 . S
C1016 H992 0.950 1_554 S
C1016 C1011 1.363 . S
C1016 C1015 1.415 . S
C1017 H993 0.951 . S
C1017 C1018 1.366 . S
C1017 C1019 1.388 . S
C1018 C1017 1.366 . S
C1018 C1022 1.385 1_554 S
C1019 H994 0.951 . S
C1019 C1017 1.388 . S
C1019 C1020 1.366 . S
C1020 C1019 1.366 . S
C1020 C1021 1.414 1_554 S
C1020 C1023 1.499 . S
C1021 H995 0.950 . S
C1021 C1020 1.414 1_556 S
C1021 C1022 1.374 . S
C1022 H996 0.950 . S
C1022 C1018 1.385 1_556 S
C1022 C1021 1.374 . S
C1023 C1020 1.499 . S
C1023 C1024 1.373 . S
C1023 C1025 1.389 1_554 S
C1024 H997 0.950 . S
C1024 C1010 1.377 . S
C1024 C1023 1.373 . S
C1025 C1009 1.377 . S
C1025 C1023 1.389 1_556 S
C1025 C1026 1.524 . S
C1026 C1025 1.524 . S
C1026 C1027 1.397 . S
C1026 C1031 1.363 1_556 S
C1027 H998 0.950 . S
C1027 C1026 1.397 . S
C1027 C1028 1.334 . S
C1028 H999 0.950 . S
C1028 C1027 1.334 . S
C1028 C1029 1.287 . S
C1029 C1028 1.287 . S
C1029 C1030 1.524 . S
C1029 H1032 0.999 . S
C1030 H1000 0.950 1_556 S
C1030 C1029 1.524 . S
C1030 C1031 1.415 1_556 S
C1031 H1001 0.950 . S
C1031 C1026 1.363 1_554 S
C1031 C1030 1.415 1_554 S
H1032 C1029 0.999 . S
H1033 C1014 0.913 . S
H1034 C1052 0.951 . S
H1035 C1054 0.951 . S
H1036 C1056 0.950 . S
H1037 C1057 0.950 . S
H1038 C1059 0.950 . S
H1039 C1062 0.950 . S
H1040 C1063 0.950 . S
H1041 C1065 0.950 . S
H1042 C1066 0.950 . S
H1043 C1067 0.951 . S
H1044 C1069 0.951 . S
H1045 C1071 0.950 . S
H1046 C1072 0.950 . S
H1047 C1074 0.950 . S
H1048 C1077 0.950 . S
H1049 C1078 0.950 . S
H1050 C1080 0.950 . S
H1051 C1081 0.950 . S
C1052 H1034 0.951 . S
C1052 C1053 1.366 . S
C1052 C1054 1.388 . S
C1053 C1052 1.366 . S
C1053 C1057 1.385 . S
C1054 H1035 0.951 . S
C1054 C1052 1.388 . S
C1054 C1055 1.366 . S
C1055 C1054 1.366 . S
C1055 C1056 1.414 . S
C1055 C1058 1.499 . S
C1056 H1036 0.950 . S
C1056 C1055 1.414 . S
C1056 C1057 1.374 . S
C1057 H1037 0.950 . S
C1057 C1053 1.385 . S
C1057 C1056 1.374 . S
C1058 C1055 1.499 . S
C1058 C1059 1.373 . S
C1058 C1060 1.389 . S
C1059 H1038 0.950 . S
C1059 C1058 1.373 . S
C1059 C1075 1.377 . S
C1060 C1058 1.389 . S
C1060 C1061 1.524 . S
C1060 C1074 1.377 . S
C1061 C1060 1.524 . S
C1061 C1062 1.397 . S
C1061 C1066 1.363 . S
C1062 H1039 0.950 . S
C1062 C1061 1.397 . S
C1062 C1063 1.334 . S
C1063 H1040 0.950 . S
C1063 C1062 1.334 . S
C1063 C1064 1.287 . S
C1064 C1063 1.287 . S
C1064 C1065 1.524 . S
C1064 H1083 0.913 . S
C1065 H1041 0.950 . S
C1065 C1064 1.524 . S
C1065 C1066 1.415 . S
C1066 H1042 0.950 . S
C1066 C1061 1.363 . S
C1066 C1065 1.415 . S
C1067 H1043 0.951 . S
C1067 C1068 1.366 . S
C1067 C1069 1.388 . S
C1068 C1067 1.366 . S
C1068 C1072 1.385 . S
C1069 H1044 0.951 . S
C1069 C1067 1.388 . S
C1069 C1070 1.366 . S
C1070 C1069 1.366 . S
C1070 C1071 1.414 . S
C1070 C1073 1.499 . S
C1071 H1045 0.950 . S
C1071 C1070 1.414 . S
C1071 C1072 1.374 . S
C1072 H1046 0.950 . S
C1072 C1068 1.385 . S
C1072 C1071 1.374 . S
C1073 C1070 1.499 . S
C1073 C1074 1.373 . S
C1073 C1075 1.389 . S
C1074 H1047 0.950 . S
C1074 C1060 1.377 . S
C1074 C1073 1.373 . S
C1075 C1059 1.377 . S
C1075 C1073 1.389 . S
C1075 C1076 1.524 . S
C1076 C1075 1.524 . S
C1076 C1077 1.397 . S
C1076 C1081 1.363 . S
C1077 H1048 0.950 . S
C1077 C1076 1.397 . S
C1077 C1078 1.334 . S
C1078 H1049 0.950 . S
C1078 C1077 1.334 . S
C1078 C1079 1.287 . S
C1079 C1078 1.287 . S
C1079 C1080 1.524 . S
C1079 H1082 0.999 . S
C1080 H1050 0.950 . S
C1080 C1079 1.524 . S
C1080 C1081 1.415 . S
C1081 H1051 0.950 . S
C1081 C1076 1.363 . S
C1081 C1080 1.415 . S
H1082 C1079 0.999 . S
H1083 C1064 0.913 . S
H1084 C1102 0.951 . S
H1085 C1104 0.951 . S
H1086 C1106 0.950 . S
H1087 C1107 0.950 . S
H1088 C1109 0.950 . S
H1089 C1112 0.950 . S
H1090 C1113 0.950 . S
H1091 C1115 0.950 . S
H1092 C1116 0.950 . S
H1093 C1117 0.951 . S
H1094 C1119 0.951 . S
H1095 C1121 0.950 . S
H1096 C1122 0.950 . S
H1097 C1124 0.950 . S
H1098 C1127 0.950 . S
H1099 C1128 0.950 . S
H1100 C1130 0.950 . S
H1101 C1131 0.950 . S
C1102 H1084 0.951 . S
C1102 C1103 1.366 1_556 S
C1102 C1104 1.388 . S
C1103 C1102 1.366 1_554 S
C1103 C1107 1.385 . S
C1104 H1085 0.951 . S
C1104 C1102 1.388 . S
C1104 C1105 1.366 1_556 S
C1105 C1104 1.366 1_554 S
C1105 C1106 1.414 . S
C1105 C1108 1.499 . S
C1106 H1086 0.950 . S
C1106 C1105 1.414 . S
C1106 C1107 1.374 . S
C1107 H1087 0.950 . S
C1107 C1103 1.385 . S
C1107 C1106 1.374 . S
C1108 C1105 1.499 . S
C1108 C1109 1.373 . S
C1108 C1110 1.389 1_554 S
C1109 H1088 0.950 . S
C1109 C1108 1.373 . S
C1109 C1125 1.377 . S
C1110 C1108 1.389 1_556 S
C1110 C1111 1.524 . S
C1110 C1124 1.377 . S
C1111 C1110 1.524 . S
C1111 C1112 1.397 . S
C1111 C1116 1.363 . S
C1112 H1089 0.950 . S
C1112 C1111 1.397 . S
C1112 C1113 1.334 . S
C1113 H1090 0.950 . S
C1113 C1112 1.334 . S
C1113 C1114 1.287 . S
C1114 C1113 1.287 . S
C1114 C1115 1.524 . S
C1114 H1133 0.913 . S
C1115 H1091 0.950 . S
C1115 C1114 1.524 . S
C1115 C1116 1.415 . S
C1116 H1092 0.950 . S
C1116 C1111 1.363 . S
C1116 C1115 1.415 . S
C1117 H1093 0.951 . S
C1117 C1118 1.366 . S
C1117 C1119 1.388 . S
C1118 C1117 1.366 . S
C1118 C1122 1.385 1_554 S
C1119 H1094 0.951 . S
C1119 C1117 1.388 . S
C1119 C1120 1.366 . S
C1120 C1119 1.366 . S
C1120 C1121 1.414 1_554 S
C1120 C1123 1.499 . S
C1121 H1095 0.950 . S
C1121 C1120 1.414 1_556 S
C1121 C1122 1.374 . S
C1122 H1096 0.950 . S
C1122 C1118 1.385 1_556 S
C1122 C1121 1.374 . S
C1123 C1120 1.499 . S
C1123 C1124 1.373 1_554 S
C1123 C1125 1.389 . S
C1124 H1097 0.950 . S
C1124 C1110 1.377 . S
C1124 C1123 1.373 1_556 S
C1125 C1109 1.377 . S
C1125 C1123 1.389 . S
C1125 C1126 1.524 . S
C1126 C1125 1.524 . S
C1126 C1127 1.397 . S
C1126 C1131 1.363 . S
C1127 H1098 0.950 . S
C1127 C1126 1.397 . S
C1127 C1128 1.334 . S
C1128 H1099 0.950 . S
C1128 C1127 1.334 . S
C1128 C1129 1.287 . S
C1129 C1128 1.287 . S
C1129 C1130 1.524 . S
C1129 H1132 0.999 . S
C1130 H1100 0.950 . S
C1130 C1129 1.524 . S
C1130 C1131 1.415 . S
C1131 H1101 0.950 . S
C1131 C1126 1.363 . S
C1131 C1130 1.415 . S
H1132 C1129 0.999 . S
H1133 C1114 0.913 . S
H1134 C1152 0.951 . S
H1135 C1154 0.951 . S
H1136 C1156 0.950 . S
H1137 C1157 0.950 . S
H1138 C1159 0.950 . S
H1139 C1162 0.950 . S
H1140 C1163 0.950 . S
H1141 C1165 0.950 . S
H1142 C1166 0.950 . S
H1143 C1167 0.951 . S
H1144 C1169 0.951 . S
H1145 C1171 0.950 . S
H1146 C1172 0.950 . S
H1147 C1174 0.950 . S
H1148 C1177 0.950 . S
H1149 C1178 0.950 . S
H1150 C1180 0.950 . S
H1151 C1181 0.950 . S
C1152 H1134 0.951 . S
C1152 C1153 1.366 . S
C1152 C1154 1.388 . S
C1153 C1152 1.366 . S
C1153 C1157 1.385 . S
C1154 H1135 0.951 . S
C1154 C1152 1.388 . S
C1154 C1155 1.366 . S
C1155 C1154 1.366 . S
C1155 C1156 1.414 . S
C1155 C1158 1.499 . S
C1156 H1136 0.950 . S
C1156 C1155 1.414 . S
C1156 C1157 1.374 . S
C1157 H1137 0.950 . S
C1157 C1153 1.385 . S
C1157 C1156 1.374 . S
C1158 C1155 1.499 . S
C1158 C1159 1.373 . S
C1158 C1160 1.389 . S
C1159 H1138 0.950 . S
C1159 C1158 1.373 . S
C1159 C1175 1.377 . S
C1160 C1158 1.389 . S
C1160 C1161 1.524 . S
C1160 C1174 1.377 . S
C1161 C1160 1.524 . S
C1161 C1162 1.397 . S
C1161 C1166 1.363 . S
C1162 H1139 0.950 . S
C1162 C1161 1.397 . S
C1162 C1163 1.334 . S
C1163 H1140 0.950 . S
C1163 C1162 1.334 . S
C1163 C1164 1.287 . S
C1164 C1163 1.287 . S
C1164 C1165 1.524 . S
C1164 H1183 0.913 . S
C1165 H1141 0.950 . S
C1165 C1164 1.524 . S
C1165 C1166 1.415 . S
C1166 H1142 0.950 . S
C1166 C1161 1.363 . S
C1166 C1165 1.415 . S
C1167 H1143 0.951 . S
C1167 C1168 1.366 . S
C1167 C1169 1.388 . S
C1168 C1167 1.366 . S
C1168 C1172 1.385 . S
C1169 H1144 0.951 . S
C1169 C1167 1.388 . S
C1169 C1170 1.366 . S
C1170 C1169 1.366 . S
C1170 C1171 1.414 . S
C1170 C1173 1.499 . S
C1171 H1145 0.950 . S
C1171 C1170 1.414 . S
C1171 C1172 1.374 . S
C1172 H1146 0.950 . S
C1172 C1168 1.385 . S
C1172 C1171 1.374 . S
C1173 C1170 1.499 . S
C1173 C1174 1.373 . S
C1173 C1175 1.389 . S
C1174 H1147 0.950 . S
C1174 C1160 1.377 . S
C1174 C1173 1.373 . S
C1175 C1159 1.377 . S
C1175 C1173 1.389 . S
C1175 C1176 1.524 . S
C1176 C1175 1.524 . S
C1176 C1177 1.397 . S
C1176 C1181 1.363 . S
C1177 H1148 0.950 . S
C1177 C1176 1.397 . S
C1177 C1178 1.334 . S
C1178 H1149 0.950 . S
C1178 C1177 1.334 . S
C1178 C1179 1.287 . S
C1179 C1178 1.287 . S
C1179 C1180 1.524 . S
C1179 H1182 0.999 . S
C1180 H1150 0.950 . S
C1180 C1179 1.524 . S
C1180 C1181 1.415 . S
C1181 H1151 0.950 . S
C1181 C1176 1.363 . S
C1181 C1180 1.415 . S
H1182 C1179 0.999 . S
H1183 C1164 0.913 . S
H1184 C1202 0.951 . S
H1185 C1204 0.951 . S
H1186 C1206 0.950 . S
H1187 C1207 0.950 . S
H1188 C1209 0.950 . S
H1189 C1212 0.950 . S
H1190 C1213 0.950 . S
H1191 C1215 0.950 . S
H1192 C1216 0.950 . S
H1193 C1217 0.951 . S
H1194 C1219 0.951 . S
H1195 C1221 0.950 . S
H1196 C1222 0.950 . S
H1197 C1224 0.950 . S
H1198 C1227 0.950 . S
H1199 C1228 0.950 . S
H1200 C1230 0.950 . S
H1201 C1231 0.950 . S
C1202 H1184 0.951 . S
C1202 C1203 1.366 . S
C1202 C1204 1.388 . S
C1203 C1202 1.366 . S
C1203 C1207 1.385 . S
C1204 H1185 0.951 . S
C1204 C1202 1.388 . S
C1204 C1205 1.366 . S
C1205 C1204 1.366 . S
C1205 C1206 1.414 . S
C1205 C1208 1.499 . S
C1206 H1186 0.950 . S
C1206 C1205 1.414 . S
C1206 C1207 1.374 . S
C1207 H1187 0.950 . S
C1207 C1203 1.385 . S
C1207 C1206 1.374 . S
C1208 C1205 1.499 . S
C1208 C1209 1.373 . S
C1208 C1210 1.389 . S
C1209 H1188 0.950 . S
C1209 C1208 1.373 . S
C1209 C1225 1.377 . S
C1210 C1208 1.389 . S
C1210 C1211 1.524 . S
C1210 C1224 1.377 . S
C1211 C1210 1.524 . S
C1211 C1212 1.397 . S
C1211 C1216 1.363 . S
C1212 H1189 0.950 . S
C1212 C1211 1.397 . S
C1212 C1213 1.334 . S
C1213 H1190 0.950 . S
C1213 C1212 1.334 . S
C1213 C1214 1.287 . S
C1214 C1213 1.287 . S
C1214 C1215 1.524 . S
C1214 H1233 0.913 . S
C1215 H1191 0.950 . S
C1215 C1214 1.524 . S
C1215 C1216 1.415 . S
C1216 H1192 0.950 . S
C1216 C1211 1.363 . S
C1216 C1215 1.415 . S
C1217 H1193 0.951 . S
C1217 C1218 1.366 . S
C1217 C1219 1.388 . S
C1218 C1217 1.366 . S
C1218 C1222 1.385 . S
C1219 H1194 0.951 . S
C1219 C1217 1.388 . S
C1219 C1220 1.366 . S
C1220 C1219 1.366 . S
C1220 C1221 1.414 . S
C1220 C1223 1.499 . S
C1221 H1195 0.950 . S
C1221 C1220 1.414 . S
C1221 C1222 1.374 . S
C1222 H1196 0.950 . S
C1222 C1218 1.385 . S
C1222 C1221 1.374 . S
C1223 C1220 1.499 . S
C1223 C1224 1.373 . S
C1223 C1225 1.389 . S
C1224 H1197 0.950 . S
C1224 C1210 1.377 . S
C1224 C1223 1.373 . S
C1225 C1209 1.377 . S
C1225 C1223 1.389 . S
C1225 C1226 1.524 . S
C1226 C1225 1.524 . S
C1226 C1227 1.397 . S
C1226 C1231 1.363 . S
C1227 H1198 0.950 . S
C1227 C1226 1.397 . S
C1227 C1228 1.334 . S
C1228 H1199 0.950 . S
C1228 C1227 1.334 . S
C1228 C1229 1.287 . S
C1229 C1228 1.287 . S
C1229 C1230 1.524 . S
C1229 H1232 0.999 . S
C1230 H1200 0.950 . S
C1230 C1229 1.524 . S
C1230 C1231 1.415 . S
C1231 H1201 0.950 . S
C1231 C1226 1.363 . S
C1231 C1230 1.415 . S
H1232 C1229 0.999 . S
H1233 C1214 0.913 . S
H1234 C1252 0.951 . S
H1235 C1254 0.951 . S
H1236 C1256 0.950 . S
H1237 C1257 0.950 . S
H1238 C1259 0.950 . S
H1239 C1262 0.950 . S
H1240 C1263 0.950 . S
H1241 C1265 0.950 . S
H1242 C1266 0.950 . S
H1243 C1267 0.951 . S
H1244 C1269 0.951 . S
H1245 C1271 0.950 . S
H1246 C1272 0.950 . S
H1247 C1274 0.950 . S
H1248 C1277 0.950 . S
H1249 C1278 0.950 . S
H1250 C1280 0.950 . S
H1251 C1281 0.950 . S
C1252 H1234 0.951 . S
C1252 C1253 1.366 . S
C1252 C1254 1.388 . S
C1253 C1252 1.366 . S
C1253 C1257 1.385 1_554 S
C1254 H1235 0.951 . S
C1254 C1252 1.388 . S
C1254 C1255 1.366 . S
C1255 C1254 1.366 . S
C1255 C1256 1.414 1_554 S
C1255 C1258 1.499 . S
C1256 H1236 0.950 . S
C1256 C1255 1.414 1_556 S
C1256 C1257 1.374 . S
C1257 H1237 0.950 . S
C1257 C1253 1.385 1_556 S
C1257 C1256 1.374 . S
C1258 C1255 1.499 . S
C1258 C1259 1.373 . S
C1258 C1260 1.389 1_554 S
C1259 H1238 0.950 . S
C1259 C1258 1.373 . S
C1259 C1275 1.377 . S
C1260 C1258 1.389 1_556 S
C1260 C1261 1.524 . S
C1260 C1274 1.377 . S
C1261 C1260 1.524 . S
C1261 C1262 1.397 . S
C1261 C1266 1.363 . S
C1262 H1239 0.950 . S
C1262 C1261 1.397 . S
C1262 C1263 1.334 . S
C1263 H1240 0.950 . S
C1263 C1262 1.334 . S
C1263 C1264 1.287 . S
C1264 C1263 1.287 . S
C1264 C1265 1.524 . S
C1264 H1283 0.913 . S
C1265 H1241 0.950 . S
C1265 C1264 1.524 . S
C1265 C1266 1.415 . S
C1266 H1242 0.950 . S
C1266 C1261 1.363 . S
C1266 C1265 1.415 . S
C1267 H1243 0.951 . S
C1267 C1268 1.366 1_556 S
C1267 C1269 1.388 . S
C1268 C1267 1.366 1_554 S
C1268 C1272 1.385 . S
C1269 H1244 0.951 . S
C1269 C1267 1.388 . S
C1269 C1270 1.366 1_556 S
C1270 C1269 1.366 1_554 S
C1270 C1271 1.414 . S
C1270 C1273 1.499 . S
C1271 H1245 0.950 . S
C1271 C1270 1.414 . S
C1271 C1272 1.374 . S
C1272 H1246 0.950 . S
C1272 C1268 1.385 . S
C1272 C1271 1.374 . S
C1273 C1270 1.499 . S
C1273 C1274 1.373 1_554 S
C1273 C1275 1.389 . S
C1274 H1247 0.950 . S
C1274 C1260 1.377 . S
C1274 C1273 1.373 1_556 S
C1275 C1259 1.377 . S
C1275 C1273 1.389 . S
C1275 C1276 1.524 . S
C1276 C1275 1.524 . S
C1276 C1277 1.397 . S
C1276 C1281 1.363 . S
C1277 H1248 0.950 . S
C1277 C1276 1.397 . S
C1277 C1278 1.334 . S
C1278 H1249 0.950 . S
C1278 C1277 1.334 . S
C1278 C1279 1.287 . S
C1279 C1278 1.287 . S
C1279 C1280 1.524 . S
C1279 H1282 0.999 . S
C1280 H1250 0.950 . S
C1280 C1279 1.524 . S
C1280 C1281 1.415 . S
C1281 H1251 0.950 . S
C1281 C1276 1.363 . S
C1281 C1280 1.415 . S
H1282 C1279 0.999 . S
H1283 C1264 0.913 . S
H1284 C1302 0.951 . S
H1285 C1304 0.951 . S
H1286 C1306 0.950 . S
H1287 C1307 0.950 . S
H1288 C1309 0.950 . S
H1289 C1312 0.950 . S
H1290 C1313 0.950 . S
H1291 C1315 0.950 . S
H1292 C1316 0.950 . S
H1293 C1317 0.951 . S
H1294 C1319 0.951 . S
H1295 C1321 0.950 . S
H1296 C1322 0.950 . S
H1297 C1324 0.950 . S
H1298 C1327 0.950 . S
H1299 C1328 0.950 . S
H1300 C1330 0.950 . S
H1301 C1331 0.950 . S
C1302 H1284 0.951 . S
C1302 C1303 1.366 . S
C1302 C1304 1.388 . S
C1303 C1302 1.366 . S
C1303 C1307 1.385 . S
C1304 H1285 0.951 . S
C1304 C1302 1.388 . S
C1304 C1305 1.366 . S
C1305 C1304 1.366 . S
C1305 C1306 1.414 . S
C1305 C1308 1.499 . S
C1306 H1286 0.950 . S
C1306 C1305 1.414 . S
C1306 C1307 1.374 . S
C1307 H1287 0.950 . S
C1307 C1303 1.385 . S
C1307 C1306 1.374 . S
C1308 C1305 1.499 . S
C1308 C1309 1.373 . S
C1308 C1310 1.389 . S
C1309 H1288 0.950 . S
C1309 C1308 1.373 . S
C1309 C1325 1.377 . S
C1310 C1308 1.389 . S
C1310 C1311 1.524 . S
C1310 C1324 1.377 . S
C1311 C1310 1.524 . S
C1311 C1312 1.397 . S
C1311 C1316 1.363 . S
C1312 H1289 0.950 . S
C1312 C1311 1.397 . S
C1312 C1313 1.334 . S
C1313 H1290 0.950 . S
C1313 C1312 1.334 . S
C1313 C1314 1.287 . S
C1314 C1313 1.287 . S
C1314 C1315 1.524 . S
C1314 H1333 0.913 . S
C1315 H1291 0.950 . S
C1315 C1314 1.524 . S
C1315 C1316 1.415 . S
C1316 H1292 0.950 . S
C1316 C1311 1.363 . S
C1316 C1315 1.415 . S
C1317 H1293 0.951 . S
C1317 C1318 1.366 . S
C1317 C1319 1.388 . S
C1318 C1317 1.366 . S
C1318 C1322 1.385 . S
C1319 H1294 0.951 . S
C1319 C1317 1.388 . S
C1319 C1320 1.366 . S
C1320 C1319 1.366 . S
C1320 C1321 1.414 . S
C1320 C1323 1.499 . S
C1321 H1295 0.950 . S
C1321 C1320 1.414 . S
C1321 C1322 1.374 . S
C1322 H1296 0.950 . S
C1322 C1318 1.385 . S
C1322 C1321 1.374 . S
C1323 C1320 1.499 . S
C1323 C1324 1.373 . S
C1323 C1325 1.389 . S
C1324 H1297 0.950 . S
C1324 C1310 1.377 . S
C1324 C1323 1.373 . S
C1325 C1309 1.377 . S
C1325 C1323 1.389 . S
C1325 C1326 1.524 . S
C1326 C1325 1.524 . S
C1326 C1327 1.397 . S
C1326 C1331 1.363 . S
C1327 H1298 0.950 . S
C1327 C1326 1.397 . S
C1327 C1328 1.334 . S
C1328 H1299 0.950 . S
C1328 C1327 1.334 . S
C1328 C1329 1.287 . S
C1329 C1328 1.287 . S
C1329 C1330 1.524 . S
C1329 H1332 0.999 . S
C1330 H1300 0.950 . S
C1330 C1329 1.524 . S
C1330 C1331 1.415 . S
C1331 H1301 0.950 . S
C1331 C1326 1.363 . S
C1331 C1330 1.415 . S
H1332 C1329 0.999 . S
H1333 C1314 0.913 . S
H1334 C1352 0.951 . S
H1335 C1354 0.951 . S
H1336 C1356 0.950 . S
H1337 C1357 0.950 . S
H1338 C1359 0.950 . S
H1339 C1362 0.950 . S
H1340 C1363 0.950 . S
H1341 C1365 0.950 . S
H1342 C1366 0.965 . S
H1343 C1367 0.951 . S
H1344 C1369 0.951 . S
H1345 C1371 0.950 . S
H1346 C1372 0.950 . S
H1347 C1374 0.950 1_556 S
H1348 C1377 0.950 . S
H1349 C1378 0.950 . S
H1350 C1380 0.950 . S
H1351 C1381 0.950 1_556 S
C1352 H1334 0.951 . S
C1352 C1353 1.366 . S
C1352 C1354 1.388 . S
C1353 C1352 1.366 . S
C1353 C1357 1.385 1_554 S
C1354 H1335 0.951 . S
C1354 C1352 1.388 . S
C1354 C1355 1.366 . S
C1355 C1354 1.366 . S
C1355 C1356 1.414 1_554 S
C1355 C1358 1.499 . S
C1356 H1336 0.950 . S
C1356 C1355 1.414 1_556 S
C1356 C1357 1.374 . S
C1357 H1337 0.950 . S
C1357 C1353 1.385 1_556 S
C1357 C1356 1.374 . S
C1358 C1355 1.499 . S
C1358 C1359 1.373 . S
C1358 C1360 1.389 1_554 S
C1359 H1338 0.950 . S
C1359 C1358 1.373 . S
C1359 C1375 1.377 . S
C1360 C1358 1.389 1_556 S
C1360 C1361 1.524 . S
C1360 C1374 1.377 1_556 S
C1361 C1360 1.524 . S
C1361 C1362 1.397 . S
C1361 C1366 1.355 1_556 S
C1362 H1339 0.950 . S
C1362 C1361 1.397 . S
C1362 C1363 1.334 . S
C1363 H1340 0.950 . S
C1363 C1362 1.334 . S
C1363 C1364 1.287 . S
C1364 C1363 1.287 . S
C1364 C1365 1.524 . S
C1364 H1383 0.913 . S
C1365 H1341 0.950 . S
C1365 C1364 1.524 . S
C1365 C1366 1.409 1_556 S
C1366 H1342 0.965 . S
C1366 C1361 1.355 1_554 S
C1366 C1365 1.409 1_554 S
C1367 H1343 0.951 . S
C1367 C1368 1.366 1_556 S
C1367 C1369 1.388 . S
C1368 C1367 1.366 1_554 S
C1368 C1372 1.385 . S
C1369 H1344 0.951 . S
C1369 C1367 1.388 . S
C1369 C1370 1.366 1_556 S
C1370 C1369 1.366 1_554 S
C1370 C1371 1.414 . S
C1370 C1373 1.499 . S
C1371 H1345 0.950 . S
C1371 C1370 1.414 . S
C1371 C1372 1.374 . S
C1372 H1346 0.950 . S
C1372 C1368 1.385 . S
C1372 C1371 1.374 . S
C1373 C1370 1.499 . S
C1373 C1374 1.373 . S
C1373 C1375 1.389 . S
C1374 H1347 0.950 1_554 S
C1374 C1360 1.377 1_554 S
C1374 C1373 1.373 . S
C1375 C1359 1.377 . S
C1375 C1373 1.389 . S
C1375 C1376 1.524 . S
C1376 C1375 1.524 . S
C1376 C1377 1.397 . S
C1376 C1381 1.363 . S
C1377 H1348 0.950 . S
C1377 C1376 1.397 . S
C1377 C1378 1.334 . S
C1378 H1349 0.950 . S
C1378 C1377 1.334 . S
C1378 C1379 1.287 . S
C1379 C1378 1.287 . S
C1379 C1380 1.524 . S
C1379 H1382 0.999 . S
C1380 H1350 0.950 . S
C1380 C1379 1.524 . S
C1380 C1381 1.415 . S
C1381 H1351 0.950 1_554 S
C1381 C1376 1.363 . S
C1381 C1380 1.415 . S
H1382 C1379 0.999 . S
H1383 C1364 0.913 . S
C203 C5 1.442 . S
C218 C130 1.456 . S
C253 C31 1.456 . S
C268 C94 1.467 . S
C318 C109 1.464 . S
C303 C53 1.476 . S
C353 C71 1.463 . S
C368 C121 1.454 . S
C418 C157 1.454 . S
C403 C75 1.463 . S
C468 C169 1.464 . S
C453 C9 1.476 . S
C518 C178 1.467 . S
C503 C27 1.456 . S
C568 C142 1.456 . S
C553 C49 1.443 . S
C603 C51 1.443 . S
C618 C106 1.449 . S
C653 C72 1.455 . S
C668 C118 1.460 . S
C703 C6 1.476 . S
C718 C133 1.468 . S
C768 C97 1.458 . S
C753 C29 1.463 . S
C803 C28 1.463 . S
C818 C181 1.458 . S
C868 C145 1.468 . S
C853 C50 1.476 . S
C918 C154 1.460 . S
C903 C73 1.455 . S
C953 C7 1.442 . S
C968 C166 1.449 . S
C1018 C92 1.506 . S
C1003 C4 1.502 . S
C1068 C104 1.512 . S
C1053 C30 1.502 . S
C1103 C52 1.502 . S
C1118 C116 1.511 . S
C1153 C70 1.502 . S
C1168 C128 1.506 . S
C1218 C140 1.507 . S
C1203 C74 1.502 . S
C1253 C8 1.502 . S
C1268 C152 1.512 . S
C1303 C26 1.502 . S
C1318 C164 1.511 . S
C1353 C48 1.502 . S
C1368 C176 1.506 . S
