# Generated by pormake.
# Topology tbo, (3,4)-cn, num edge types: 1
# Building blocks:
#     Node 0, Type 0, BuildingBlock: WUSLED_clean_sbu_0, # of connection points: 3
#     Node 1, Type 0, BuildingBlock: WUSLED_clean_sbu_0, # of connection points: 3
#     Node 2, Type 0, BuildingBlock: WUSLED_clean_sbu_0, # of connection points: 3
#     Node 3, Type 0, BuildingBlock: WUSLED_clean_sbu_0, # of connection points: 3
#     Node 4, Type 0, BuildingBlock: WUSLED_clean_sbu_0, # of connection points: 3
#     Node 5, Type 0, BuildingBlock: WUSLED_clean_sbu_0, # of connection points: 3
#     Node 6, Type 0, BuildingBlock: WUSLED_clean_sbu_0, # of connection points: 3
#     Node 7, Type 0, BuildingBlock: WUSLED_clean_sbu_0, # of connection points: 3
#     Node 8, Type 0, BuildingBlock: WUSLED_clean_sbu_0, # of connection points: 3
#     Node 9, Type 0, BuildingBlock: WUSLED_clean_sbu_0, # of connection points: 3
#     Node 10, Type 0, BuildingBlock: WUSLED_clean_sbu_0, # of connection points: 3
#     Node 11, Type 0, BuildingBlock: WUSLED_clean_sbu_0, # of connection points: 3
#     Node 12, Type 0, BuildingBlock: WUSLED_clean_sbu_0, # of connection points: 3
#     Node 13, Type 0, BuildingBlock: WUSLED_clean_sbu_0, # of connection points: 3
#     Node 14, Type 0, BuildingBlock: WUSLED_clean_sbu_0, # of connection points: 3
#     Node 15, Type 0, BuildingBlock: WUSLED_clean_sbu_0, # of connection points: 3
#     Node 16, Type 0, BuildingBlock: WUSLED_clean_sbu_0, # of connection points: 3
#     Node 17, Type 0, BuildingBlock: WUSLED_clean_sbu_0, # of connection points: 3
#     Node 18, Type 0, BuildingBlock: WUSLED_clean_sbu_0, # of connection points: 3
#     Node 19, Type 0, BuildingBlock: WUSLED_clean_sbu_0, # of connection points: 3
#     Node 20, Type 0, BuildingBlock: WUSLED_clean_sbu_0, # of connection points: 3
#     Node 21, Type 0, BuildingBlock: WUSLED_clean_sbu_0, # of connection points: 3
#     Node 22, Type 0, BuildingBlock: WUSLED_clean_sbu_0, # of connection points: 3
#     Node 23, Type 0, BuildingBlock: WUSLED_clean_sbu_0, # of connection points: 3
#     Node 24, Type 0, BuildingBlock: WUSLED_clean_sbu_0, # of connection points: 3
#     Node 25, Type 0, BuildingBlock: WUSLED_clean_sbu_0, # of connection points: 3
#     Node 26, Type 0, BuildingBlock: WUSLED_clean_sbu_0, # of connection points: 3
#     Node 27, Type 0, BuildingBlock: WUSLED_clean_sbu_0, # of connection points: 3
#     Node 28, Type 0, BuildingBlock: WUSLED_clean_sbu_0, # of connection points: 3
#     Node 29, Type 0, BuildingBlock: WUSLED_clean_sbu_0, # of connection points: 3
#     Node 30, Type 0, BuildingBlock: WUSLED_clean_sbu_0, # of connection points: 3
#     Node 31, Type 0, BuildingBlock: WUSLED_clean_sbu_0, # of connection points: 3
#     Node 32, Type 1, BuildingBlock: MUDLON_clean_linker_0, # of connection points: 4
#     Node 33, Type 1, BuildingBlock: MUDLON_clean_linker_0, # of connection points: 4
#     Node 34, Type 1, BuildingBlock: MUDLON_clean_linker_0, # of connection points: 4
#     Node 35, Type 1, BuildingBlock: MUDLON_clean_linker_0, # of connection points: 4
#     Node 36, Type 1, BuildingBlock: MUDLON_clean_linker_0, # of connection points: 4
#     Node 37, Type 1, BuildingBlock: MUDLON_clean_linker_0, # of connection points: 4
#     Node 38, Type 1, BuildingBlock: MUDLON_clean_linker_0, # of connection points: 4
#     Node 39, Type 1, BuildingBlock: MUDLON_clean_linker_0, # of connection points: 4
#     Node 40, Type 1, BuildingBlock: MUDLON_clean_linker_0, # of connection points: 4
#     Node 41, Type 1, BuildingBlock: MUDLON_clean_linker_0, # of connection points: 4
#     Node 42, Type 1, BuildingBlock: MUDLON_clean_linker_0, # of connection points: 4
#     Node 43, Type 1, BuildingBlock: MUDLON_clean_linker_0, # of connection points: 4
#     Node 44, Type 1, BuildingBlock: MUDLON_clean_linker_0, # of connection points: 4
#     Node 45, Type 1, BuildingBlock: MUDLON_clean_linker_0, # of connection points: 4
#     Node 46, Type 1, BuildingBlock: MUDLON_clean_linker_0, # of connection points: 4
#     Node 47, Type 1, BuildingBlock: MUDLON_clean_linker_0, # of connection points: 4
#     Node 48, Type 1, BuildingBlock: MUDLON_clean_linker_0, # of connection points: 4
#     Node 49, Type 1, BuildingBlock: MUDLON_clean_linker_0, # of connection points: 4
#     Node 50, Type 1, BuildingBlock: MUDLON_clean_linker_0, # of connection points: 4
#     Node 51, Type 1, BuildingBlock: MUDLON_clean_linker_0, # of connection points: 4
#     Node 52, Type 1, BuildingBlock: MUDLON_clean_linker_0, # of connection points: 4
#     Node 53, Type 1, BuildingBlock: MUDLON_clean_linker_0, # of connection points: 4
#     Node 54, Type 1, BuildingBlock: MUDLON_clean_linker_0, # of connection points: 4
#     Node 55, Type 1, BuildingBlock: MUDLON_clean_linker_0, # of connection points: 4
#     Edge 56, Type (0, 1), BuildingBlock: XIVTED_clean_linker_0, # of connection points: 2
#     Edge 57, Type (0, 1), BuildingBlock: XIVTED_clean_linker_0, # of connection points: 2
#     Edge 58, Type (0, 1), BuildingBlock: XIVTED_clean_linker_0, # of connection points: 2
#     Edge 59, Type (0, 1), BuildingBlock: XIVTED_clean_linker_0, # of connection points: 2
#     Edge 60, Type (0, 1), BuildingBlock: XIVTED_clean_linker_0, # of connection points: 2
#     Edge 61, Type (0, 1), BuildingBlock: XIVTED_clean_linker_0, # of connection points: 2
#     Edge 62, Type (0, 1), BuildingBlock: XIVTED_clean_linker_0, # of connection points: 2
#     Edge 63, Type (0, 1), BuildingBlock: XIVTED_clean_linker_0, # of connection points: 2
#     Edge 64, Type (0, 1), BuildingBlock: XIVTED_clean_linker_0, # of connection points: 2
#     Edge 65, Type (0, 1), BuildingBlock: XIVTED_clean_linker_0, # of connection points: 2
#     Edge 66, Type (0, 1), BuildingBlock: XIVTED_clean_linker_0, # of connection points: 2
#     Edge 67, Type (0, 1), BuildingBlock: XIVTED_clean_linker_0, # of connection points: 2
#     Edge 68, Type (0, 1), BuildingBlock: XIVTED_clean_linker_0, # of connection points: 2
#     Edge 69, Type (0, 1), BuildingBlock: XIVTED_clean_linker_0, # of connection points: 2
#     Edge 70, Type (0, 1), BuildingBlock: XIVTED_clean_linker_0, # of connection points: 2
#     Edge 71, Type (0, 1), BuildingBlock: XIVTED_clean_linker_0, # of connection points: 2
#     Edge 72, Type (0, 1), BuildingBlock: XIVTED_clean_linker_0, # of connection points: 2
#     Edge 73, Type (0, 1), BuildingBlock: XIVTED_clean_linker_0, # of connection points: 2
#     Edge 74, Type (0, 1), BuildingBlock: XIVTED_clean_linker_0, # of connection points: 2
#     Edge 75, Type (0, 1), BuildingBlock: XIVTED_clean_linker_0, # of connection points: 2
#     Edge 76, Type (0, 1), BuildingBlock: XIVTED_clean_linker_0, # of connection points: 2
#     Edge 77, Type (0, 1), BuildingBlock: XIVTED_clean_linker_0, # of connection points: 2
#     Edge 78, Type (0, 1), BuildingBlock: XIVTED_clean_linker_0, # of connection points: 2
#     Edge 79, Type (0, 1), BuildingBlock: XIVTED_clean_linker_0, # of connection points: 2
#     Edge 80, Type (0, 1), BuildingBlock: XIVTED_clean_linker_0, # of connection points: 2
#     Edge 81, Type (0, 1), BuildingBlock: XIVTED_clean_linker_0, # of connection points: 2
#     Edge 82, Type (0, 1), BuildingBlock: XIVTED_clean_linker_0, # of connection points: 2
#     Edge 83, Type (0, 1), BuildingBlock: XIVTED_clean_linker_0, # of connection points: 2
#     Edge 84, Type (0, 1), BuildingBlock: XIVTED_clean_linker_0, # of connection points: 2
#     Edge 85, Type (0, 1), BuildingBlock: XIVTED_clean_linker_0, # of connection points: 2
#     Edge 86, Type (0, 1), BuildingBlock: XIVTED_clean_linker_0, # of connection points: 2
#     Edge 87, Type (0, 1), BuildingBlock: XIVTED_clean_linker_0, # of connection points: 2
#     Edge 88, Type (0, 1), BuildingBlock: XIVTED_clean_linker_0, # of connection points: 2
#     Edge 89, Type (0, 1), BuildingBlock: XIVTED_clean_linker_0, # of connection points: 2
#     Edge 90, Type (0, 1), BuildingBlock: XIVTED_clean_linker_0, # of connection points: 2
#     Edge 91, Type (0, 1), BuildingBlock: XIVTED_clean_linker_0, # of connection points: 2
#     Edge 92, Type (0, 1), BuildingBlock: XIVTED_clean_linker_0, # of connection points: 2
#     Edge 93, Type (0, 1), BuildingBlock: XIVTED_clean_linker_0, # of connection points: 2
#     Edge 94, Type (0, 1), BuildingBlock: XIVTED_clean_linker_0, # of connection points: 2
#     Edge 95, Type (0, 1), BuildingBlock: XIVTED_clean_linker_0, # of connection points: 2
#     Edge 96, Type (0, 1), BuildingBlock: XIVTED_clean_linker_0, # of connection points: 2
#     Edge 97, Type (0, 1), BuildingBlock: XIVTED_clean_linker_0, # of connection points: 2
#     Edge 98, Type (0, 1), BuildingBlock: XIVTED_clean_linker_0, # of connection points: 2
#     Edge 99, Type (0, 1), BuildingBlock: XIVTED_clean_linker_0, # of connection points: 2
#     Edge 100, Type (0, 1), BuildingBlock: XIVTED_clean_linker_0, # of connection points: 2
#     Edge 101, Type (0, 1), BuildingBlock: XIVTED_clean_linker_0, # of connection points: 2
#     Edge 102, Type (0, 1), BuildingBlock: XIVTED_clean_linker_0, # of connection points: 2
#     Edge 103, Type (0, 1), BuildingBlock: XIVTED_clean_linker_0, # of connection points: 2
#     Edge 104, Type (0, 1), BuildingBlock: XIVTED_clean_linker_0, # of connection points: 2
#     Edge 105, Type (0, 1), BuildingBlock: XIVTED_clean_linker_0, # of connection points: 2
#     Edge 106, Type (0, 1), BuildingBlock: XIVTED_clean_linker_0, # of connection points: 2
#     Edge 107, Type (0, 1), BuildingBlock: XIVTED_clean_linker_0, # of connection points: 2
#     Edge 108, Type (0, 1), BuildingBlock: XIVTED_clean_linker_0, # of connection points: 2
#     Edge 109, Type (0, 1), BuildingBlock: XIVTED_clean_linker_0, # of connection points: 2
#     Edge 110, Type (0, 1), BuildingBlock: XIVTED_clean_linker_0, # of connection points: 2
#     Edge 111, Type (0, 1), BuildingBlock: XIVTED_clean_linker_0, # of connection points: 2
#     Edge 112, Type (0, 1), BuildingBlock: XIVTED_clean_linker_0, # of connection points: 2
#     Edge 113, Type (0, 1), BuildingBlock: XIVTED_clean_linker_0, # of connection points: 2
#     Edge 114, Type (0, 1), BuildingBlock: XIVTED_clean_linker_0, # of connection points: 2
#     Edge 115, Type (0, 1), BuildingBlock: XIVTED_clean_linker_0, # of connection points: 2
#     Edge 116, Type (0, 1), BuildingBlock: XIVTED_clean_linker_0, # of connection points: 2
#     Edge 117, Type (0, 1), BuildingBlock: XIVTED_clean_linker_0, # of connection points: 2
#     Edge 118, Type (0, 1), BuildingBlock: XIVTED_clean_linker_0, # of connection points: 2
#     Edge 119, Type (0, 1), BuildingBlock: XIVTED_clean_linker_0, # of connection points: 2
#     Edge 120, Type (0, 1), BuildingBlock: XIVTED_clean_linker_0, # of connection points: 2
#     Edge 121, Type (0, 1), BuildingBlock: XIVTED_clean_linker_0, # of connection points: 2
#     Edge 122, Type (0, 1), BuildingBlock: XIVTED_clean_linker_0, # of connection points: 2
#     Edge 123, Type (0, 1), BuildingBlock: XIVTED_clean_linker_0, # of connection points: 2
#     Edge 124, Type (0, 1), BuildingBlock: XIVTED_clean_linker_0, # of connection points: 2
#     Edge 125, Type (0, 1), BuildingBlock: XIVTED_clean_linker_0, # of connection points: 2
#     Edge 126, Type (0, 1), BuildingBlock: XIVTED_clean_linker_0, # of connection points: 2
#     Edge 127, Type (0, 1), BuildingBlock: XIVTED_clean_linker_0, # of connection points: 2
#     Edge 128, Type (0, 1), BuildingBlock: XIVTED_clean_linker_0, # of connection points: 2
#     Edge 129, Type (0, 1), BuildingBlock: XIVTED_clean_linker_0, # of connection points: 2
#     Edge 130, Type (0, 1), BuildingBlock: XIVTED_clean_linker_0, # of connection points: 2
#     Edge 131, Type (0, 1), BuildingBlock: XIVTED_clean_linker_0, # of connection points: 2
#     Edge 132, Type (0, 1), BuildingBlock: XIVTED_clean_linker_0, # of connection points: 2
#     Edge 133, Type (0, 1), BuildingBlock: XIVTED_clean_linker_0, # of connection points: 2
#     Edge 134, Type (0, 1), BuildingBlock: XIVTED_clean_linker_0, # of connection points: 2
#     Edge 135, Type (0, 1), BuildingBlock: XIVTED_clean_linker_0, # of connection points: 2
#     Edge 136, Type (0, 1), BuildingBlock: XIVTED_clean_linker_0, # of connection points: 2
#     Edge 137, Type (0, 1), BuildingBlock: XIVTED_clean_linker_0, # of connection points: 2
#     Edge 138, Type (0, 1), BuildingBlock: XIVTED_clean_linker_0, # of connection points: 2
#     Edge 139, Type (0, 1), BuildingBlock: XIVTED_clean_linker_0, # of connection points: 2
#     Edge 140, Type (0, 1), BuildingBlock: XIVTED_clean_linker_0, # of connection points: 2
#     Edge 141, Type (0, 1), BuildingBlock: XIVTED_clean_linker_0, # of connection points: 2
#     Edge 142, Type (0, 1), BuildingBlock: XIVTED_clean_linker_0, # of connection points: 2
#     Edge 143, Type (0, 1), BuildingBlock: XIVTED_clean_linker_0, # of connection points: 2
#     Edge 144, Type (0, 1), BuildingBlock: XIVTED_clean_linker_0, # of connection points: 2
#     Edge 145, Type (0, 1), BuildingBlock: XIVTED_clean_linker_0, # of connection points: 2
#     Edge 146, Type (0, 1), BuildingBlock: XIVTED_clean_linker_0, # of connection points: 2
#     Edge 147, Type (0, 1), BuildingBlock: XIVTED_clean_linker_0, # of connection points: 2
#     Edge 148, Type (0, 1), BuildingBlock: XIVTED_clean_linker_0, # of connection points: 2
#     Edge 149, Type (0, 1), BuildingBlock: XIVTED_clean_linker_0, # of connection points: 2
#     Edge 150, Type (0, 1), BuildingBlock: XIVTED_clean_linker_0, # of connection points: 2
#     Edge 151, Type (0, 1), BuildingBlock: XIVTED_clean_linker_0, # of connection points: 2
# Relax obj value: 0.001
# Max RMSD: 0.045
# Mean RMSD: 0.021
data_MOF--net-tbo--node1-WUSLED_clean_sbu_0--node2-MUDLON_clean_linker_0--edge1-XIVTED_clean_linker_0
_symmetry_space_group_name_H-M    P1
_symmetry_Int_Tables_number       1
_symmetry_cell_setting            triclinic
loop_
_symmetry_equiv_pos_as_xyz
'x, y, z'
_cell_length_a     119.27312
_cell_length_b     119.69862
_cell_length_c     119.45016
_cell_angle_alpha  89.56495
_cell_angle_beta   90.402038
_cell_angle_gamma 90.983025
loop_
_atom_site_label
_atom_site_type_symbol
_atom_site_fract_x
_atom_site_fract_y
_atom_site_fract_z
_atom_type_partial_charge
C0 C 0.19095 0.15156 0.1957 0.0
C1 C 0.20009 0.14787 0.18949 0.0
C2 C 0.20359 0.13324 0.20336 0.0
C3 C 0.20635 0.13877 0.19327 0.0
C4 C 0.19439 0.137 0.20952 0.0
C5 C 0.18813 0.14607 0.20571 0.0
U6 U 0.18583 0.17606 0.17572 0.0
O7 O 0.17009 0.18211 0.16833 0.0
O8 O 0.18018 0.19307 0.17921 0.0
C9 C 0.17073 0.19168 0.17363 0.0
C10 C 0.18433 0.16116 0.19193 0.0
C11 C 0.16053 0.19495 0.17954 0.0
C12 C 0.14742 0.19274 0.19491 0.0
C13 C 0.15709 0.1894 0.18934 0.0
C14 C 0.14454 0.20715 0.18088 0.0
C15 C 0.14104 0.20169 0.19077 0.0
C16 C 0.1542 0.20381 0.17534 0.0
C17 C 0.20636 0.18193 0.15181 0.0
C18 C 0.20474 0.19791 0.13926 0.0
C19 C 0.21953 0.18459 0.13658 0.0
C20 C 0.21568 0.17841 0.1458 0.0
C21 C 0.21413 0.19443 0.1332 0.0
C22 C 0.20088 0.19169 0.14848 0.0
C23 C 0.20257 0.17537 0.16158 0.0
O24 O 0.18923 0.171 0.19315 0.0
O25 O 0.17925 0.16001 0.1822 0.0
O26 O 0.19315 0.16967 0.16021 0.0
O27 O 0.2032 0.18054 0.17123 0.0
H28 H 0.20241 0.15206 0.18175 0.0
H29 H 0.21346 0.13619 0.18839 0.0
H30 H 0.19193 0.13286 0.21723 0.0
H31 H 0.18108 0.1488 0.21061 0.0
H32 H 0.14505 0.18843 0.20257 0.0
H33 H 0.16191 0.18255 0.19272 0.0
H34 H 0.13976 0.21395 0.17736 0.0
H35 H 0.15672 0.20815 0.16775 0.0
H36 H 0.20031 0.20538 0.13682 0.0
H37 H 0.22688 0.18175 0.13223 0.0
H38 H 0.22003 0.1709 0.14828 0.0
H39 H 0.19364 0.19451 0.15304 0.0
C40 C 0.81661 0.18108 0.1543 0.0
C41 C 0.82425 0.18419 0.14589 0.0
C42 C 0.80933 0.1932 0.13525 0.0
C43 C 0.82063 0.19015 0.13644 0.0
C44 C 0.80175 0.1901 0.14375 0.0
C45 C 0.80535 0.18407 0.15314 0.0
U46 U 0.83684 0.1757 0.17877 0.0
O47 O 0.83311 0.17148 0.19633 0.0
O48 O 0.84263 0.15988 0.18607 0.0
C49 C 0.83757 0.16155 0.19565 0.0
C50 C 0.82014 0.17477 0.16436 0.0
C51 C 0.83056 0.1522 0.19977 0.0
C52 C 0.81527 0.13873 0.19728 0.0
C53 C 0.82187 0.14762 0.19318 0.0
C54 C 0.82596 0.13898 0.21461 0.0
C55 C 0.81722 0.13433 0.20808 0.0
C56 C 0.83256 0.14782 0.21049 0.0
C57 C 0.86297 0.19422 0.18285 0.0
C58 C 0.87282 0.19776 0.20041 0.0
C59 C 0.88235 0.20088 0.1828 0.0
C60 C 0.87265 0.19749 0.17701 0.0
C61 C 0.88255 0.20114 0.19458 0.0
C62 C 0.86317 0.19428 0.19461 0.0
C63 C 0.85276 0.19095 0.17656 0.0
O64 O 0.82922 0.16877 0.16345 0.0
O65 O 0.81967 0.18024 0.17383 0.0
O66 O 0.84317 0.1928 0.18154 0.0
O67 O 0.85302 0.1812 0.17158 0.0
H68 H 0.83301 0.18202 0.14659 0.0
H69 H 0.82669 0.19226 0.13002 0.0
H70 H 0.79304 0.19247 0.14326 0.0
H71 H 0.79934 0.18181 0.15956 0.0
H72 H 0.80853 0.13543 0.19209 0.0
H73 H 0.82018 0.15095 0.18489 0.0
H74 H 0.82778 0.1357 0.22289 0.0
H75 H 0.83925 0.15125 0.21567 0.0
H76 H 0.87257 0.19799 0.20946 0.0
H77 H 0.88972 0.20322 0.17802 0.0
H78 H 0.8727 0.19744 0.16794 0.0
H79 H 0.85581 0.19176 0.19933 0.0
C80 C 0.81854 0.83926 0.1528 0.0
C81 C 0.82384 0.82946 0.14949 0.0
C82 C 0.8106 0.82735 0.13393 0.0
C83 C 0.81989 0.82354 0.14014 0.0
C84 C 0.8054 0.83724 0.1373 0.0
C85 C 0.80933 0.84312 0.14664 0.0
U86 U 0.8391 0.84424 0.17711 0.0
O87 O 0.84591 0.86007 0.1838 0.0
O88 O 0.83577 0.84896 0.19452 0.0
C89 C 0.84086 0.85873 0.19347 0.0
C90 C 0.82242 0.84552 0.16269 0.0
C91 C 0.83453 0.86837 0.1974 0.0
C92 C 0.81804 0.88003 0.19683 0.0
C93 C 0.82403 0.87096 0.19278 0.0
C94 C 0.83304 0.88405 0.21005 0.0
C95 C 0.82246 0.88667 0.20554 0.0
C96 C 0.839 0.87498 0.20602 0.0
C97 C 0.86409 0.82509 0.18153 0.0
C98 C 0.87816 0.82838 0.19601 0.0
C99 C 0.87878 0.81162 0.1848 0.0
C100 C 0.86923 0.81502 0.17892 0.0
C101 C 0.88338 0.81826 0.19344 0.0
C102 C 0.86859 0.83176 0.19012 0.0
C103 C 0.854 0.82846 0.1753 0.0
O104 O 0.82169 0.84013 0.17229 0.0
O105 O 0.83194 0.85109 0.16152 0.0
O106 O 0.85476 0.83809 0.16998 0.0
O107 O 0.84448 0.82707 0.18064 0.0
H108 H 0.83099 0.82638 0.15414 0.0
H109 H 0.82417 0.81604 0.13772 0.0
H110 H 0.79814 0.84033 0.13283 0.0
H111 H 0.80513 0.85066 0.14911 0.0
H112 H 0.80998 0.88188 0.19308 0.0
H113 H 0.82047 0.86595 0.18608 0.0
H114 H 0.83663 0.88887 0.21687 0.0
H115 H 0.84707 0.87307 0.2097 0.0
H116 H 0.88152 0.83376 0.20251 0.0
H117 H 0.88244 0.8037 0.18271 0.0
H118 H 0.86583 0.80974 0.17235 0.0
H119 H 0.86471 0.83958 0.19225 0.0
C120 C 0.16234 0.81644 0.18368 0.0
C121 C 0.16214 0.81411 0.19524 0.0
C122 C 0.14216 0.80945 0.19419 0.0
C123 C 0.15217 0.81063 0.20042 0.0
C124 C 0.14236 0.81202 0.18267 0.0
C125 C 0.15234 0.81542 0.17749 0.0
U126 U 0.1885 0.83515 0.17944 0.0
O127 O 0.20582 0.83067 0.17543 0.0
O128 O 0.19627 0.84122 0.16382 0.0
C129 C 0.20556 0.83572 0.16562 0.0
C130 C 0.17285 0.81955 0.17783 0.0
C131 C 0.20968 0.82925 0.15612 0.0
C132 C 0.20929 0.81273 0.14437 0.0
C133 C 0.20499 0.81879 0.15333 0.0
C134 C 0.22287 0.8276 0.14086 0.0
C135 C 0.21836 0.81703 0.13808 0.0
C136 C 0.21858 0.83362 0.14979 0.0
C137 C 0.19385 0.86037 0.19841 0.0
C138 C 0.21181 0.86965 0.20194 0.0
C139 C 0.19457 0.87943 0.20531 0.0
C140 C 0.18839 0.87002 0.20186 0.0
C141 C 0.20637 0.87937 0.20545 0.0
C142 C 0.20562 0.86027 0.19841 0.0
C143 C 0.18711 0.85054 0.19489 0.0
O144 O 0.17268 0.82889 0.17198 0.0
O145 O 0.18227 0.81821 0.18344 0.0
O146 O 0.19159 0.84072 0.19669 0.0
O147 O 0.18222 0.85137 0.18503 0.0
H148 H 0.16971 0.81481 0.20026 0.0
H149 H 0.15239 0.8086 0.20927 0.0
H150 H 0.1348 0.8114 0.17763 0.0
H151 H 0.15226 0.81718 0.16857 0.0
H152 H 0.20567 0.80459 0.14252 0.0
H153 H 0.19809 0.81529 0.15814 0.0
H154 H 0.2297 0.83128 0.13609 0.0
H155 H 0.22226 0.84172 0.15179 0.0
H156 H 0.22087 0.86921 0.20207 0.0
H157 H 0.19008 0.8868 0.20775 0.0
H158 H 0.17931 0.87029 0.20185 0.0
H159 H 0.21004 0.85293 0.19575 0.0
C160 C 0.16388 0.80781 0.83834 0.0
C161 C 0.16067 0.81233 0.82795 0.0
C162 C 0.14479 0.79922 0.82698 0.0
C163 C 0.1512 0.80806 0.82231 0.0
C164 C 0.14803 0.79484 0.83747 0.0
C165 C 0.15748 0.79909 0.84307 0.0
U166 U 0.18807 0.82893 0.8428 0.0
O167 O 0.19484 0.83575 0.85857 0.0
O168 O 0.20558 0.82594 0.84767 0.0
C169 C 0.20454 0.83087 0.8574 0.0
C170 C 0.17387 0.81198 0.84437 0.0
C171 C 0.20842 0.82442 0.86716 0.0
C172 C 0.2075 0.80786 0.87903 0.0
C173 C 0.20364 0.81394 0.86977 0.0
C174 C 0.22091 0.82271 0.8832 0.0
C175 C 0.21621 0.81216 0.88586 0.0
C176 C 0.21705 0.82877 0.87393 0.0
C177 C 0.19219 0.8542 0.82365 0.0
C178 C 0.20619 0.86862 0.82769 0.0
C179 C 0.19596 0.86901 0.81011 0.0
C180 C 0.19006 0.8593 0.81328 0.0
C181 C 0.2041 0.87381 0.81728 0.0
C182 C 0.20031 0.85889 0.83083 0.0
C183 C 0.18596 0.84397 0.82684 0.0
O184 O 0.18338 0.81154 0.83891 0.0
O185 O 0.17264 0.8214 0.84978 0.0
O186 O 0.1806 0.84441 0.83641 0.0
O187 O 0.19139 0.83461 0.82555 0.0
H188 H 0.16553 0.81908 0.82418 0.0
H189 H 0.14902 0.81156 0.81422 0.0
H190 H 0.1432 0.78818 0.84142 0.0
H191 H 0.15981 0.79555 0.85111 0.0
H192 H 0.20378 0.79971 0.88074 0.0
H193 H 0.19696 0.81045 0.8646 0.0
H194 H 0.2275 0.82636 0.88835 0.0
H195 H 0.2208 0.83687 0.87206 0.0
H196 H 0.21229 0.87214 0.83349 0.0
H197 H 0.19425 0.87265 0.80196 0.0
H198 H 0.18386 0.85574 0.8076 0.0
H199 H 0.20207 0.85504 0.83888 0.0
C200 C 0.15508 0.17963 0.82809 0.0
C201 C 0.15545 0.19136 0.82745 0.0
C202 C 0.13611 0.19158 0.82065 0.0
C203 C 0.1461 0.19725 0.82372 0.0
C204 C 0.13574 0.17983 0.82148 0.0
C205 C 0.14514 0.17394 0.82513 0.0
U206 U 0.18057 0.17515 0.84716 0.0
O207 O 0.18726 0.15966 0.85443 0.0
O208 O 0.19762 0.16986 0.84305 0.0
C209 C 0.19662 0.16044 0.84871 0.0
C210 C 0.16497 0.17321 0.83165 0.0
C211 C 0.19981 0.15035 0.84263 0.0
C212 C 0.19619 0.13635 0.82836 0.0
C213 C 0.1929 0.14584 0.83419 0.0
C214 C 0.21331 0.13578 0.83937 0.0
C215 C 0.20646 0.1312 0.83086 0.0
C216 C 0.21 0.14525 0.84519 0.0
C217 C 0.18675 0.19633 0.87051 0.0
C218 C 0.20375 0.19659 0.88186 0.0
C219 C 0.18872 0.20922 0.88604 0.0
C220 C 0.18242 0.20482 0.87714 0.0
C221 C 0.1995 0.20522 0.88848 0.0
C222 C 0.19742 0.19218 0.87295 0.0
C223 C 0.18002 0.19205 0.86105 0.0
O224 O 0.17481 0.178 0.82989 0.0
O225 O 0.16425 0.16825 0.84149 0.0
O226 O 0.17465 0.18253 0.86284 0.0
O227 O 0.18485 0.19261 0.8512 0.0
H228 H 0.16301 0.19597 0.82973 0.0
H229 H 0.14679 0.20626 0.82305 0.0
H230 H 0.12817 0.17517 0.81939 0.0
H231 H 0.14465 0.1649 0.82561 0.0
H232 H 0.19064 0.13299 0.82195 0.0
H233 H 0.18499 0.14968 0.83211 0.0
H234 H 0.22134 0.13218 0.8414 0.0
H235 H 0.21547 0.14866 0.85165 0.0
H236 H 0.21206 0.19339 0.88341 0.0
H237 H 0.18509 0.21571 0.89106 0.0
H238 H 0.17416 0.20808 0.87541 0.0
H239 H 0.20089 0.18561 0.86791 0.0
C240 C 0.82015 0.15253 0.84203 0.0
C241 C 0.82731 0.14449 0.83763 0.0
C242 C 0.81118 0.13355 0.83095 0.0
C243 C 0.82286 0.13507 0.83216 0.0
C244 C 0.80409 0.14177 0.8352 0.0
C245 C 0.80854 0.15112 0.84071 0.0
U246 U 0.84162 0.17636 0.84683 0.0
O247 O 0.83886 0.19383 0.85143 0.0
O248 O 0.84849 0.18297 0.86268 0.0
C249 C 0.84363 0.19266 0.86133 0.0
C250 C 0.82451 0.16234 0.84818 0.0
C251 C 0.83711 0.19656 0.87094 0.0
C252 C 0.81932 0.19945 0.88023 0.0
C253 C 0.82537 0.19546 0.87114 0.0
C254 C 0.83667 0.20544 0.88917 0.0
C255 C 0.82488 0.20453 0.88936 0.0
C256 C 0.8427 0.20151 0.88004 0.0
C257 C 0.86658 0.18019 0.8271 0.0
C258 C 0.88029 0.19533 0.82903 0.0
C259 C 0.88124 0.18275 0.81328 0.0
C260 C 0.87186 0.17686 0.81728 0.0
C261 C 0.88553 0.19212 0.81906 0.0
C262 C 0.87087 0.18943 0.83301 0.0
C263 C 0.85642 0.17417 0.83084 0.0
O264 O 0.83394 0.16102 0.85378 0.0
O265 O 0.82405 0.17194 0.8428 0.0
O266 O 0.84702 0.17961 0.82953 0.0
O267 O 0.85716 0.16902 0.84058 0.0
H268 H 0.83632 0.14542 0.8385 0.0
H269 H 0.82858 0.12889 0.82909 0.0
H270 H 0.79508 0.14103 0.83423 0.0
H271 H 0.80287 0.15727 0.84398 0.0
H272 H 0.81026 0.19873 0.87998 0.0
H273 H 0.82087 0.19161 0.86423 0.0
H274 H 0.84127 0.2091 0.89611 0.0
H275 H 0.85176 0.20236 0.88008 0.0
H276 H 0.8833 0.20257 0.83362 0.0
H277 H 0.88516 0.17995 0.80567 0.0
H278 H 0.86866 0.16973 0.81262 0.0
H279 H 0.86684 0.19215 0.8406 0.0
C280 C 0.84001 0.86379 0.82206 0.0
C281 C 0.83076 0.86796 0.82779 0.0
C282 C 0.8288 0.88279 0.81381 0.0
C283 C 0.8252 0.87738 0.8237 0.0
C284 C 0.8381 0.87855 0.80815 0.0
C285 C 0.84364 0.86915 0.81224 0.0
U286 U 0.8434 0.83901 0.84227 0.0
O287 O 0.848 0.82168 0.83866 0.0
O288 O 0.85875 0.83199 0.84957 0.0
C289 C 0.85752 0.82249 0.84421 0.0
C290 C 0.84586 0.8538 0.82607 0.0
C291 C 0.86747 0.81865 0.83824 0.0
C292 C 0.88209 0.82141 0.82435 0.0
C293 C 0.87265 0.82528 0.82996 0.0
C294 C 0.88122 0.80426 0.83524 0.0
C295 C 0.88646 0.81083 0.8269 0.0
C296 C 0.87182 0.80815 0.84085 0.0
C297 C 0.82277 0.83396 0.86627 0.0
C298 C 0.81915 0.81622 0.87576 0.0
C299 C 0.81402 0.83351 0.8846 0.0
C300 C 0.81814 0.83953 0.87537 0.0
C301 C 0.8144 0.82176 0.8849 0.0
C302 C 0.82334 0.82225 0.86657 0.0
C303 C 0.82685 0.84049 0.85654 0.0
O304 O 0.8509 0.8547 0.83585 0.0
O305 O 0.84034 0.84429 0.82485 0.0
O306 O 0.82582 0.83563 0.84673 0.0
O307 O 0.83655 0.8457 0.85791 0.0
H308 H 0.82784 0.86391 0.8354 0.0
H309 H 0.81815 0.88048 0.82834 0.0
H310 H 0.841 0.88236 0.80042 0.0
H311 H 0.85073 0.866 0.80768 0.0
H312 H 0.88585 0.82662 0.8179 0.0
H313 H 0.86937 0.83341 0.82781 0.0
H314 H 0.88444 0.79615 0.83753 0.0
H315 H 0.86794 0.80294 0.84724 0.0
H316 H 0.81947 0.80719 0.87559 0.0
H317 H 0.81063 0.8381 0.89154 0.0
H318 H 0.81768 0.84856 0.87533 0.0
H319 H 0.82692 0.81775 0.85966 0.0
C320 C 0.18173 0.65222 0.6963 0.0
C321 C 0.19106 0.64807 0.69066 0.0
C322 C 0.19358 0.63395 0.70527 0.0
C323 C 0.19692 0.63898 0.6951 0.0
C324 C 0.18412 0.63809 0.71075 0.0
C325 C 0.17827 0.64712 0.70631 0.0
U326 U 0.17736 0.67643 0.67548 0.0
O327 O 0.16163 0.68302 0.66857 0.0
O328 O 0.1726 0.69374 0.67883 0.0
C329 C 0.16287 0.69264 0.67371 0.0
C330 C 0.17564 0.66198 0.69208 0.0
C331 C 0.15312 0.69632 0.6801 0.0
C332 C 0.14081 0.69467 0.69619 0.0
C333 C 0.14995 0.69088 0.69006 0.0
C334 C 0.13788 0.70928 0.68239 0.0
C335 C 0.13469 0.70396 0.69246 0.0
C336 C 0.147 0.70549 0.67629 0.0
C337 C 0.19735 0.68126 0.65096 0.0
C338 C 0.19663 0.69775 0.63898 0.0
C339 C 0.20974 0.68308 0.63498 0.0
C340 C 0.20583 0.677 0.64425 0.0
C341 C 0.20524 0.69356 0.63226 0.0
C342 C 0.19271 0.69163 0.64824 0.0
C343 C 0.19361 0.67488 0.66087 0.0
O344 O 0.181 0.67162 0.69292 0.0
O345 O 0.1704 0.66072 0.68244 0.0
O346 O 0.18393 0.66956 0.65983 0.0
O347 O 0.19475 0.68007 0.67047 0.0
H348 H 0.19386 0.65194 0.68292 0.0
H349 H 0.20422 0.63606 0.69072 0.0
H350 H 0.1812 0.63431 0.71849 0.0
H351 H 0.17107 0.6502 0.71074 0.0
H352 H 0.13869 0.69045 0.70396 0.0
H353 H 0.15461 0.68379 0.69315 0.0
H354 H 0.13327 0.71635 0.67918 0.0
H355 H 0.14932 0.70976 0.66859 0.0
H356 H 0.1929 0.70572 0.63706 0.0
H357 H 0.21647 0.67968 0.63009 0.0
H358 H 0.20952 0.66902 0.64624 0.0
H359 H 0.18611 0.69503 0.65333 0.0
C360 C 0.8218 0.68396 0.6606 0.0
C361 C 0.82857 0.69249 0.65599 0.0
C362 C 0.81439 0.6961 0.64168 0.0
C363 C 0.82492 0.6985 0.64659 0.0
C364 C 0.80767 0.68751 0.64634 0.0
C365 C 0.81135 0.68149 0.65571 0.0
U366 U 0.84169 0.67992 0.68537 0.0
O367 O 0.83813 0.67495 0.70276 0.0
O368 O 0.84888 0.66456 0.69244 0.0
C369 C 0.84349 0.6655 0.70194 0.0
C370 C 0.82543 0.67768 0.67057 0.0
C371 C 0.8372 0.65547 0.70561 0.0
C372 C 0.82109 0.64285 0.70409 0.0
C373 C 0.82706 0.65233 0.7004 0.0
C374 C 0.83539 0.63949 0.71816 0.0
C375 C 0.82516 0.63632 0.71304 0.0
C376 C 0.84134 0.64898 0.71447 0.0
C377 C 0.86573 0.70123 0.68967 0.0
C378 C 0.87995 0.69971 0.70426 0.0
C379 C 0.87924 0.71633 0.69259 0.0
C380 C 0.87007 0.7118 0.68677 0.0
C381 C 0.88428 0.71038 0.70144 0.0
C382 C 0.87072 0.69518 0.69844 0.0
C383 C 0.85594 0.6968 0.68351 0.0
O384 O 0.83511 0.67267 0.66973 0.0
O385 O 0.82425 0.68286 0.68014 0.0
O386 O 0.8463 0.69746 0.68871 0.0
O387 O 0.85728 0.68717 0.67851 0.0
H388 H 0.83665 0.69455 0.65972 0.0
H389 H 0.83024 0.70515 0.64329 0.0
H390 H 0.79958 0.68535 0.64269 0.0
H391 H 0.80602 0.67492 0.65916 0.0
H392 H 0.81318 0.64074 0.70004 0.0
H393 H 0.82373 0.65727 0.69354 0.0
H394 H 0.83887 0.63459 0.72496 0.0
H395 H 0.84918 0.65127 0.71855 0.0
H396 H 0.88357 0.69496 0.7111 0.0
H397 H 0.88246 0.72448 0.69009 0.0
H398 H 0.86633 0.71656 0.68001 0.0
H399 H 0.86743 0.68701 0.70081 0.0
C400 C 0.825 0.33461 0.65597 0.0
C401 C 0.8296 0.32424 0.65338 0.0
C402 C 0.818 0.32312 0.63651 0.0
C403 C 0.82612 0.31853 0.64373 0.0
C404 C 0.81355 0.33359 0.6391 0.0
C405 C 0.81702 0.33927 0.64875 0.0
U406 U 0.84377 0.33849 0.6818 0.0
O407 O 0.85033 0.35385 0.68963 0.0
O408 O 0.83916 0.34255 0.69911 0.0
C409 C 0.84446 0.35227 0.6988 0.0
C410 C 0.82823 0.34055 0.66626 0.0
C411 C 0.83814 0.3619 0.70292 0.0
C412 C 0.82945 0.37999 0.70013 0.0
C413 C 0.8349 0.3707 0.69581 0.0
C414 C 0.83013 0.37167 0.71866 0.0
C415 C 0.82711 0.38065 0.71165 0.0
C416 C 0.83561 0.36244 0.71434 0.0
C417 C 0.86805 0.31868 0.68726 0.0
C418 C 0.87946 0.31959 0.70418 0.0
C419 C 0.88377 0.30623 0.68975 0.0
C420 C 0.87477 0.31009 0.68331 0.0
C421 C 0.8862 0.3109 0.7003 0.0
C422 C 0.87048 0.32346 0.69771 0.0
C423 C 0.85852 0.3225 0.68044 0.0
O424 O 0.82669 0.33491 0.67563 0.0
O425 O 0.83789 0.34599 0.66596 0.0
O426 O 0.85986 0.33233 0.67562 0.0
O427 O 0.84859 0.32109 0.685 0.0
H428 H 0.83582 0.32053 0.65885 0.0
H429 H 0.8298 0.31054 0.64192 0.0
H430 H 0.80718 0.3373 0.63382 0.0
H431 H 0.81336 0.34725 0.65065 0.0
H432 H 0.82733 0.38677 0.6945 0.0
H433 H 0.83671 0.37048 0.68694 0.0
H434 H 0.82826 0.37175 0.72751 0.0
H435 H 0.83798 0.35572 0.71997 0.0
H436 H 0.88118 0.32347 0.71218 0.0
H437 H 0.88868 0.29944 0.68657 0.0
H438 H 0.873 0.3063 0.67527 0.0
H439 H 0.8654 0.33014 0.70086 0.0
C440 C 0.15855 0.31156 0.68746 0.0
C441 C 0.15611 0.31685 0.69758 0.0
C442 C 0.13975 0.30459 0.70013 0.0
C443 C 0.1468 0.31339 0.70387 0.0
C444 C 0.14222 0.29942 0.68991 0.0
C445 C 0.15153 0.30287 0.68365 0.0
U446 U 0.18349 0.33116 0.68161 0.0
O447 O 0.20067 0.32718 0.67645 0.0
O448 O 0.1901 0.33763 0.66566 0.0
C449 C 0.19949 0.33209 0.66664 0.0
C450 C 0.1684 0.31493 0.68084 0.0
C451 C 0.20282 0.32546 0.65686 0.0
C452 C 0.19839 0.31587 0.63944 0.0
C453 C 0.19496 0.32192 0.64875 0.0
C454 C 0.21754 0.3166 0.64629 0.0
C455 C 0.20974 0.31314 0.63806 0.0
C456 C 0.21412 0.32272 0.65555 0.0
C457 C 0.18886 0.35636 0.70063 0.0
C458 C 0.20491 0.36898 0.69858 0.0
C459 C 0.19073 0.37273 0.71242 0.0
C460 C 0.18479 0.36311 0.70916 0.0
C461 C 0.20089 0.37579 0.70719 0.0
C462 C 0.19894 0.35934 0.69532 0.0
C463 C 0.18243 0.3463 0.69736 0.0
O464 O 0.16748 0.32432 0.67516 0.0
O465 O 0.17813 0.31402 0.68598 0.0
O466 O 0.18761 0.33677 0.69867 0.0
O467 O 0.17696 0.34703 0.6878 0.0
H468 H 0.16146 0.32358 0.70064 0.0
H469 H 0.14523 0.31747 0.71175 0.0
H470 H 0.1369 0.29275 0.68669 0.0
H471 H 0.15327 0.29874 0.67583 0.0
H472 H 0.19216 0.31348 0.63323 0.0
H473 H 0.18618 0.32388 0.64956 0.0
H474 H 0.2263 0.31448 0.64565 0.0
H475 H 0.22031 0.32531 0.66172 0.0
H476 H 0.21275 0.371 0.69446 0.0
H477 H 0.18729 0.37785 0.71894 0.0
H478 H 0.17699 0.36096 0.71331 0.0
H479 H 0.20219 0.35421 0.6887 0.0
C480 C 0.15578 0.30901 0.3351 0.0
C481 C 0.15258 0.31457 0.32523 0.0
C482 C 0.137 0.30135 0.32266 0.0
C483 C 0.14328 0.31076 0.31905 0.0
C484 C 0.14023 0.29589 0.33262 0.0
C485 C 0.14954 0.29968 0.33877 0.0
U486 U 0.17988 0.32969 0.34077 0.0
O487 O 0.18675 0.33591 0.35673 0.0
O488 O 0.19743 0.3265 0.34541 0.0
C489 C 0.19641 0.33096 0.35536 0.0
C490 C 0.16566 0.31271 0.34158 0.0
C491 C 0.20075 0.32431 0.36491 0.0
C492 C 0.19937 0.31727 0.38407 0.0
C493 C 0.19474 0.32304 0.37495 0.0
C494 C 0.21599 0.31375 0.37323 0.0
C495 C 0.21011 0.31265 0.38336 0.0
C496 C 0.21139 0.31956 0.36415 0.0
C497 C 0.1838 0.35556 0.32223 0.0
C498 C 0.19769 0.37008 0.32633 0.0
C499 C 0.18726 0.3706 0.30887 0.0
C500 C 0.18151 0.36078 0.31196 0.0
C501 C 0.19542 0.37539 0.31602 0.0
C502 C 0.19195 0.36024 0.3294 0.0
C503 C 0.1777 0.34522 0.3253 0.0
O504 O 0.17525 0.31244 0.33624 0.0
O505 O 0.16443 0.32188 0.3474 0.0
O506 O 0.17245 0.3454 0.33493 0.0
O507 O 0.18315 0.33592 0.3237 0.0
H508 H 0.15731 0.32181 0.3223 0.0
H509 H 0.14095 0.31523 0.31149 0.0
H510 H 0.1357 0.28853 0.33556 0.0
H511 H 0.15192 0.29528 0.34635 0.0
H512 H 0.19465 0.31671 0.39176 0.0
H513 H 0.18653 0.32664 0.37585 0.0
H514 H 0.22419 0.31013 0.37228 0.0
H515 H 0.21623 0.32043 0.35654 0.0
H516 H 0.20382 0.37358 0.3321 0.0
H517 H 0.18541 0.37433 0.30079 0.0
H518 H 0.17529 0.35724 0.30629 0.0
H519 H 0.19384 0.35629 0.33737 0.0
C520 C 0.15057 0.68325 0.32256 0.0
C521 C 0.14868 0.69403 0.32661 0.0
C522 C 0.13235 0.69574 0.31434 0.0
C523 C 0.13966 0.70023 0.32253 0.0
C524 C 0.13425 0.68488 0.31042 0.0
C525 C 0.14328 0.67871 0.31449 0.0
U526 U 0.17534 0.67882 0.34246 0.0
O527 O 0.18144 0.66339 0.35037 0.0
O528 O 0.19233 0.67296 0.33895 0.0
C529 C 0.19094 0.66373 0.34484 0.0
C530 C 0.16017 0.67672 0.32653 0.0
C531 C 0.19393 0.65338 0.3391 0.0
C532 C 0.18999 0.63895 0.32534 0.0
C533 C 0.18689 0.64868 0.33087 0.0
C534 C 0.2072 0.63852 0.33622 0.0
C535 C 0.20021 0.63375 0.32793 0.0
C536 C 0.20408 0.64824 0.34175 0.0
C537 C 0.18139 0.7008 0.36529 0.0
C538 C 0.19083 0.6988 0.38332 0.0
C539 C 0.18892 0.71713 0.3749 0.0
C540 C 0.18335 0.71236 0.36573 0.0
C541 C 0.19261 0.71044 0.3839 0.0
C542 C 0.18529 0.69401 0.3741 0.0
C543 C 0.17494 0.69617 0.35576 0.0
O544 O 0.17008 0.68142 0.32497 0.0
O545 O 0.15907 0.67213 0.33649 0.0
O546 O 0.16916 0.68689 0.35763 0.0
O547 O 0.18005 0.69632 0.34605 0.0
H548 H 0.15422 0.69765 0.33289 0.0
H549 H 0.13838 0.70851 0.32582 0.0
H550 H 0.1289 0.68122 0.30402 0.0
H551 H 0.14463 0.67041 0.31125 0.0
H552 H 0.18435 0.63545 0.3191 0.0
H553 H 0.17901 0.65257 0.32872 0.0
H554 H 0.21521 0.63488 0.33831 0.0
H555 H 0.20965 0.65179 0.34803 0.0
H556 H 0.19347 0.69339 0.39012 0.0
H557 H 0.19034 0.72609 0.37491 0.0
H558 H 0.18047 0.71774 0.35901 0.0
H559 H 0.18391 0.68504 0.37394 0.0
C560 C 0.8269 0.65563 0.33722 0.0
C561 C 0.83287 0.65208 0.32785 0.0
C562 C 0.81965 0.6365 0.32532 0.0
C563 C 0.82928 0.64258 0.32195 0.0
C564 C 0.81379 0.64008 0.33479 0.0
C565 C 0.81739 0.64956 0.34067 0.0
U566 U 0.84604 0.68125 0.34111 0.0
O567 O 0.84186 0.6984 0.34585 0.0
O568 O 0.85314 0.68858 0.35649 0.0
C569 C 0.84745 0.69784 0.35535 0.0
C570 C 0.83038 0.66572 0.34337 0.0
C571 C 0.84132 0.70141 0.3653 0.0
C572 C 0.82715 0.69824 0.37956 0.0
C573 C 0.833 0.69457 0.37019 0.0
C574 C 0.8379 0.71559 0.37924 0.0
C575 C 0.8295 0.70883 0.38417 0.0
C576 C 0.84375 0.71191 0.3699 0.0
C577 C 0.86968 0.68723 0.32036 0.0
C578 C 0.88118 0.70418 0.32102 0.0
C579 C 0.88496 0.69 0.30725 0.0
C580 C 0.87609 0.68345 0.31142 0.0
C581 C 0.88759 0.70048 0.31195 0.0
C582 C 0.8723 0.69761 0.32519 0.0
C583 C 0.86023 0.68033 0.32443 0.0
O584 O 0.84018 0.66528 0.34843 0.0
O585 O 0.82878 0.67522 0.33804 0.0
O586 O 0.85032 0.6849 0.32357 0.0
O587 O 0.86184 0.67525 0.33409 0.0
H588 H 0.84022 0.65671 0.32504 0.0
H589 H 0.83392 0.64014 0.31463 0.0
H590 H 0.80644 0.63552 0.33771 0.0
H591 H 0.8127 0.65217 0.34791 0.0
H592 H 0.82065 0.69287 0.38308 0.0
H593 H 0.83099 0.68644 0.3667 0.0
H594 H 0.84003 0.72372 0.38265 0.0
H595 H 0.85017 0.71729 0.36625 0.0
H596 H 0.88288 0.71225 0.32476 0.0
H597 H 0.88981 0.6868 0.30039 0.0
H598 H 0.8742 0.67544 0.30762 0.0
H599 H 0.86742 0.70066 0.33211 0.0
C600 C 0.84719 0.36382 0.32311 0.0
C601 C 0.8355 0.36393 0.32157 0.0
C602 C 0.83654 0.38337 0.31528 0.0
C603 C 0.83024 0.3736 0.31767 0.0
C604 C 0.84821 0.38328 0.31714 0.0
C605 C 0.85346 0.37361 0.32097 0.0
U606 U 0.85123 0.33798 0.34201 0.0
O607 O 0.85562 0.32082 0.33751 0.0
O608 O 0.86681 0.33063 0.34846 0.0
C609 C 0.8653 0.32133 0.34283 0.0
C610 C 0.85309 0.35355 0.3265 0.0
C611 C 0.87503 0.31748 0.33653 0.0
C612 C 0.88809 0.31923 0.32104 0.0
C613 C 0.87888 0.3232 0.32696 0.0
C614 C 0.88965 0.30385 0.33424 0.0
C615 C 0.8936 0.3095 0.32462 0.0
C616 C 0.88047 0.30781 0.34012 0.0
C617 C 0.83158 0.33198 0.36648 0.0
C618 C 0.8331 0.3152 0.37793 0.0
C619 C 0.81926 0.32903 0.38238 0.0
C620 C 0.82286 0.33558 0.3733 0.0
C621 C 0.82431 0.31874 0.3848 0.0
C622 C 0.83671 0.32177 0.36886 0.0
C623 C 0.83518 0.33893 0.35691 0.0
O624 O 0.85858 0.35397 0.33607 0.0
O625 O 0.84767 0.34402 0.32496 0.0
O626 O 0.83382 0.33435 0.34701 0.0
O627 O 0.84495 0.34405 0.3581 0.0
H628 H 0.83042 0.35651 0.32319 0.0
H629 H 0.82126 0.37328 0.31624 0.0
H630 H 0.85332 0.39069 0.31561 0.0
H631 H 0.86248 0.37373 0.32213 0.0
H632 H 0.89096 0.32383 0.31374 0.0
H633 H 0.87476 0.3307 0.32408 0.0
H634 H 0.89354 0.29623 0.33713 0.0
H635 H 0.87757 0.30327 0.34745 0.0
H636 H 0.83727 0.30739 0.37963 0.0
H637 H 0.81237 0.33195 0.38738 0.0
H638 H 0.81879 0.34344 0.37156 0.0
H639 H 0.8435 0.31889 0.3637 0.0
C640 C 0.68927 0.15472 0.70155 0.0
C641 C 0.69866 0.15066 0.69596 0.0
C642 C 0.70022 0.1355 0.70964 0.0
C643 C 0.70411 0.14114 0.69998 0.0
C644 C 0.69086 0.13971 0.71523 0.0
C645 C 0.68544 0.14921 0.71121 0.0
U646 U 0.68544 0.17901 0.68085 0.0
O647 O 0.66997 0.18531 0.67311 0.0
O648 O 0.68016 0.19623 0.68395 0.0
C649 C 0.6708 0.19498 0.6782 0.0
C650 C 0.68326 0.16456 0.69739 0.0
C651 C 0.66057 0.19874 0.68376 0.0
C652 C 0.64636 0.19677 0.69818 0.0
C653 C 0.65614 0.19302 0.69308 0.0
C654 C 0.64541 0.21196 0.6847 0.0
C655 C 0.64084 0.20627 0.69402 0.0
C656 C 0.65516 0.20822 0.67964 0.0
C657 C 0.70612 0.18385 0.65678 0.0
C658 C 0.70275 0.19248 0.63857 0.0
C659 C 0.72152 0.19243 0.64638 0.0
C660 C 0.71752 0.18672 0.65585 0.0
C661 C 0.7142 0.19534 0.63757 0.0
C662 C 0.69874 0.18684 0.64808 0.0
C663 C 0.70218 0.17764 0.66679 0.0
O664 O 0.68861 0.17419 0.6984 0.0
O665 O 0.67823 0.16336 0.68763 0.0
O666 O 0.69274 0.17189 0.66569 0.0
O667 O 0.70295 0.18304 0.67631 0.0
H668 H 0.70172 0.15482 0.68846 0.0
H669 H 0.71123 0.13808 0.69542 0.0
H670 H 0.68775 0.13573 0.72279 0.0
H671 H 0.67823 0.15226 0.71565 0.0
H672 H 0.64303 0.19214 0.70527 0.0
H673 H 0.66022 0.18567 0.69637 0.0
H674 H 0.64153 0.21941 0.6814 0.0
H675 H 0.6585 0.21276 0.67249 0.0
H676 H 0.69687 0.19444 0.63192 0.0
H677 H 0.73035 0.19466 0.64605 0.0
H678 H 0.72336 0.18454 0.66247 0.0
H679 H 0.68988 0.18477 0.64857 0.0
C680 C 0.32056 0.17532 0.65836 0.0
C681 C 0.32517 0.18568 0.65505 0.0
C682 C 0.31244 0.18625 0.639 0.0
C683 C 0.32112 0.19112 0.64546 0.0
C684 C 0.30797 0.1758 0.64231 0.0
C685 C 0.31199 0.1704 0.65191 0.0
U686 U 0.34159 0.17187 0.68237 0.0
O687 O 0.33879 0.16831 0.70022 0.0
O688 O 0.34811 0.15647 0.69007 0.0
C689 C 0.34318 0.15832 0.69967 0.0
C690 C 0.3245 0.16961 0.66855 0.0
C691 C 0.33638 0.14892 0.70429 0.0
C692 C 0.31902 0.14142 0.71216 0.0
C693 C 0.32526 0.15038 0.70775 0.0
C694 C 0.33484 0.1293 0.70971 0.0
C695 C 0.3237 0.13073 0.71317 0.0
C696 C 0.34111 0.1383 0.70537 0.0
C697 C 0.36703 0.19181 0.68425 0.0
C698 C 0.37994 0.19224 0.70008 0.0
C699 C 0.38326 0.20433 0.68404 0.0
C700 C 0.3736 0.19999 0.67886 0.0
C701 C 0.38653 0.20055 0.69474 0.0
C702 C 0.37028 0.18789 0.69487 0.0
C703 C 0.35672 0.18766 0.67876 0.0
O704 O 0.33383 0.16404 0.66753 0.0
O705 O 0.32414 0.17549 0.67779 0.0
O706 O 0.3474 0.18928 0.68427 0.0
O707 O 0.35724 0.17765 0.67437 0.0
H708 H 0.33185 0.18958 0.65991 0.0
H709 H 0.32484 0.1991 0.64307 0.0
H710 H 0.30118 0.17188 0.63762 0.0
H711 H 0.30833 0.16241 0.65436 0.0
H712 H 0.31056 0.14292 0.71492 0.0
H713 H 0.32135 0.15846 0.70708 0.0
H714 H 0.33869 0.12118 0.71022 0.0
H715 H 0.34967 0.13695 0.70279 0.0
H716 H 0.38228 0.18906 0.70827 0.0
H717 H 0.38802 0.21082 0.67975 0.0
H718 H 0.37118 0.20313 0.67068 0.0
H719 H 0.3653 0.18154 0.69914 0.0
C720 C 0.31963 0.83456 0.65651 0.0
C721 C 0.32501 0.82464 0.65373 0.0
C722 C 0.31232 0.82202 0.63781 0.0
C723 C 0.32138 0.81841 0.64447 0.0
C724 C 0.30702 0.83203 0.64063 0.0
C725 C 0.31065 0.83822 0.6499 0.0
U726 U 0.3395 0.83986 0.68119 0.0
O727 O 0.3467 0.85572 0.68751 0.0
O728 O 0.33599 0.84524 0.69834 0.0
C729 C 0.34133 0.85487 0.69706 0.0
C730 C 0.32329 0.84116 0.66626 0.0
C731 C 0.33545 0.86497 0.70078 0.0
C732 C 0.31883 0.87419 0.70764 0.0
C733 C 0.32395 0.86474 0.70329 0.0
C734 C 0.33651 0.88437 0.70669 0.0
C735 C 0.32508 0.8841 0.70953 0.0
C736 C 0.34163 0.8749 0.70241 0.0
C737 C 0.36375 0.81957 0.68678 0.0
C738 C 0.38349 0.8211 0.69208 0.0
C739 C 0.37231 0.8053 0.69854 0.0
C740 C 0.36297 0.8095 0.69287 0.0
C741 C 0.38271 0.811 0.69815 0.0
C742 C 0.37412 0.82534 0.68647 0.0
C743 C 0.35387 0.8235 0.68035 0.0
O744 O 0.32209 0.83618 0.67603 0.0
O745 O 0.33298 0.84642 0.66521 0.0
O746 O 0.35507 0.83289 0.67465 0.0
O747 O 0.34414 0.8226 0.68541 0.0
H748 H 0.332 0.82171 0.65873 0.0
H749 H 0.32574 0.81083 0.64247 0.0
H750 H 0.29994 0.83498 0.6358 0.0
H751 H 0.3064 0.84586 0.65194 0.0
H752 H 0.31004 0.87361 0.70983 0.0
H753 H 0.31894 0.8572 0.70213 0.0
H754 H 0.34155 0.89189 0.70783 0.0
H755 H 0.35051 0.87529 0.70053 0.0
H756 H 0.39135 0.82575 0.6917 0.0
H757 H 0.37145 0.79742 0.70299 0.0
H758 H 0.35514 0.80478 0.69314 0.0
H759 H 0.37506 0.8331 0.68181 0.0
C760 C 0.65806 0.81766 0.68396 0.0
C761 C 0.65354 0.82451 0.69221 0.0
C762 C 0.63886 0.81055 0.69596 0.0
C763 C 0.64401 0.821 0.69814 0.0
C764 C 0.64346 0.80375 0.68766 0.0
C765 C 0.65296 0.80728 0.68172 0.0
U766 U 0.68348 0.83702 0.67984 0.0
O767 O 0.70077 0.83309 0.67514 0.0
O768 O 0.69075 0.84414 0.66444 0.0
C769 C 0.70017 0.8387 0.66566 0.0
C770 C 0.66816 0.82114 0.67775 0.0
C771 C 0.70409 0.83284 0.65568 0.0
C772 C 0.70166 0.81884 0.64118 0.0
C773 C 0.69773 0.8242 0.65075 0.0
C774 C 0.71832 0.83071 0.64147 0.0
C775 C 0.71199 0.82207 0.63639 0.0
C776 C 0.7144 0.83603 0.651 0.0
C777 C 0.68904 0.86114 0.70039 0.0
C778 C 0.70514 0.86894 0.7105 0.0
C779 C 0.69092 0.88124 0.70317 0.0
C780 C 0.68497 0.872 0.69894 0.0
C781 C 0.70104 0.87981 0.70907 0.0
C782 C 0.69922 0.85971 0.70622 0.0
C783 C 0.68237 0.8514 0.69629 0.0
O784 O 0.6676 0.83082 0.67252 0.0
O785 O 0.6777 0.81975 0.68311 0.0
O786 O 0.68695 0.84152 0.69735 0.0
O787 O 0.67712 0.85273 0.68666 0.0
H788 H 0.65739 0.83255 0.69406 0.0
H789 H 0.64064 0.82652 0.70437 0.0
H790 H 0.63985 0.79559 0.68587 0.0
H791 H 0.65638 0.80186 0.67543 0.0
H792 H 0.69653 0.81229 0.63745 0.0
H793 H 0.68974 0.82164 0.65428 0.0
H794 H 0.7264 0.83327 0.63816 0.0
H795 H 0.71944 0.84266 0.65474 0.0
H796 H 0.71297 0.86756 0.7149 0.0
H797 H 0.68746 0.88948 0.70204 0.0
H798 H 0.67708 0.87336 0.69462 0.0
H799 H 0.70261 0.85147 0.70757 0.0
C800 C 0.6562 0.81422 0.34124 0.0
C801 C 0.64768 0.82103 0.33693 0.0
C802 C 0.63723 0.80455 0.33049 0.0
C803 C 0.63827 0.81623 0.33163 0.0
C804 C 0.6459 0.79783 0.33466 0.0
C805 C 0.65524 0.80261 0.34 0.0
U806 U 0.68007 0.83595 0.3452 0.0
O807 O 0.68704 0.84302 0.36078 0.0
O808 O 0.69769 0.83319 0.34982 0.0
C809 C 0.69675 0.83818 0.35953 0.0
C810 C 0.66608 0.8189 0.34717 0.0
C811 C 0.70076 0.83177 0.36927 0.0
C812 C 0.7 0.8152 0.38113 0.0
C813 C 0.69593 0.82134 0.372 0.0
C814 C 0.71364 0.82993 0.38499 0.0
C815 C 0.70894 0.81939 0.38771 0.0
C816 C 0.70958 0.83605 0.37584 0.0
C817 C 0.68405 0.86064 0.32495 0.0
C818 C 0.70118 0.86984 0.31843 0.0
C819 C 0.68402 0.88028 0.31948 0.0
C820 C 0.67836 0.87071 0.32343 0.0
C821 C 0.69551 0.87996 0.31687 0.0
C822 C 0.69554 0.86032 0.32247 0.0
C823 C 0.67784 0.85056 0.32888 0.0
O824 O 0.67563 0.81837 0.34181 0.0
O825 O 0.66476 0.82843 0.35238 0.0
O826 O 0.6727 0.85144 0.33853 0.0
O827 O 0.6829 0.84097 0.32772 0.0
H828 H 0.64825 0.83002 0.33775 0.0
H829 H 0.63173 0.82167 0.32861 0.0
H830 H 0.64553 0.78884 0.33373 0.0
H831 H 0.66175 0.79721 0.3432 0.0
H832 H 0.69609 0.80719 0.38307 0.0
H833 H 0.68906 0.81794 0.36703 0.0
H834 H 0.72061 0.83335 0.38978 0.0
H835 H 0.71341 0.84408 0.37383 0.0
H836 H 0.70996 0.86918 0.31634 0.0
H837 H 0.6794 0.88794 0.31855 0.0
H838 H 0.6695 0.87118 0.3253 0.0
H839 H 0.70019 0.85268 0.32354 0.0
C840 C 0.65419 0.18427 0.32238 0.0
C841 C 0.6509 0.19358 0.32855 0.0
C842 C 0.63592 0.19719 0.31505 0.0
C843 C 0.64182 0.19998 0.32493 0.0
C844 C 0.63923 0.18778 0.30899 0.0
C845 C 0.64828 0.1814 0.31262 0.0
U846 U 0.67928 0.17826 0.34164 0.0
O847 O 0.6853 0.16214 0.34809 0.0
O848 O 0.69611 0.17252 0.33731 0.0
C849 C 0.69468 0.16283 0.34241 0.0
C850 C 0.66383 0.17756 0.32586 0.0
C851 C 0.69735 0.15296 0.33573 0.0
C852 C 0.69428 0.14129 0.3194 0.0
C853 C 0.6915 0.15059 0.32578 0.0
C854 C 0.70867 0.13655 0.33296 0.0
C855 C 0.70294 0.13417 0.32289 0.0
C856 C 0.7059 0.14587 0.3393 0.0
C857 C 0.6865 0.19759 0.36623 0.0
C858 C 0.70472 0.20068 0.37506 0.0
C859 C 0.6878 0.20503 0.3851 0.0
C860 C 0.68134 0.20152 0.37591 0.0
C861 C 0.69959 0.20475 0.38477 0.0
C862 C 0.69825 0.1971 0.36591 0.0
C863 C 0.67947 0.19427 0.35654 0.0
O864 O 0.67372 0.18238 0.32453 0.0
O865 O 0.66283 0.17225 0.33549 0.0
O866 O 0.67359 0.18495 0.35775 0.0
O867 O 0.68413 0.1953 0.34663 0.0
H868 H 0.65541 0.19593 0.3361 0.0
H869 H 0.63957 0.20723 0.32973 0.0
H870 H 0.63479 0.18529 0.30145 0.0
H871 H 0.65069 0.17422 0.30778 0.0
H872 H 0.6896 0.13963 0.31178 0.0
H873 H 0.68483 0.15597 0.32292 0.0
H874 H 0.71547 0.13135 0.33582 0.0
H875 H 0.71051 0.14759 0.34697 0.0
H876 H 0.71377 0.20046 0.37442 0.0
H877 H 0.68353 0.2079 0.39248 0.0
H878 H 0.67228 0.20192 0.37636 0.0
H879 H 0.70244 0.19406 0.35855 0.0
C880 C 0.3263 0.14917 0.33697 0.0
C881 C 0.33422 0.14186 0.33259 0.0
C882 C 0.31926 0.13069 0.3239 0.0
C883 C 0.33072 0.13269 0.32616 0.0
C884 C 0.31139 0.13811 0.32826 0.0
C885 C 0.31489 0.14722 0.33475 0.0
U886 U 0.34561 0.1743 0.34332 0.0
O887 O 0.34141 0.19114 0.34898 0.0
O888 O 0.35215 0.18054 0.35942 0.0
C889 C 0.34664 0.18993 0.35863 0.0
C890 C 0.32971 0.15887 0.34385 0.0
C891 C 0.34023 0.19301 0.36858 0.0
C892 C 0.324 0.19084 0.38065 0.0
C893 C 0.33005 0.1876 0.37124 0.0
C894 C 0.33832 0.20482 0.38487 0.0
C895 C 0.32805 0.19952 0.38757 0.0
C896 C 0.34433 0.20159 0.37546 0.0
C897 C 0.37011 0.18157 0.32412 0.0
C898 C 0.38142 0.19842 0.32676 0.0
C899 C 0.3856 0.18584 0.31161 0.0
C900 C 0.37671 0.17881 0.31493 0.0
C901 C 0.388 0.19579 0.31743 0.0
C902 C 0.37256 0.19137 0.33008 0.0
C903 C 0.36051 0.17434 0.32722 0.0
O904 O 0.33922 0.15804 0.34942 0.0
O905 O 0.32841 0.16871 0.3391 0.0
O906 O 0.35065 0.17898 0.32623 0.0
O907 O 0.36167 0.16861 0.33658 0.0
H908 H 0.34309 0.1432 0.33414 0.0
H909 H 0.33702 0.1271 0.32308 0.0
H910 H 0.30252 0.137 0.32654 0.0
H911 H 0.30865 0.1528 0.338 0.0
H912 H 0.31619 0.18651 0.38254 0.0
H913 H 0.32678 0.18092 0.36602 0.0
H914 H 0.34161 0.21163 0.38989 0.0
H915 H 0.35217 0.20587 0.37351 0.0
H916 H 0.38314 0.20593 0.33152 0.0
H917 H 0.39039 0.18362 0.30432 0.0
H918 H 0.37491 0.17128 0.31022 0.0
H919 H 0.36755 0.19361 0.33723 0.0
C920 C 0.34421 0.86304 0.31848 0.0
C921 C 0.33255 0.86359 0.31688 0.0
C922 C 0.3345 0.88248 0.3092 0.0
C923 C 0.32775 0.87319 0.31226 0.0
C924 C 0.34615 0.88196 0.31107 0.0
C925 C 0.35094 0.87233 0.31562 0.0
U926 U 0.34602 0.83818 0.33889 0.0
O927 O 0.34992 0.82062 0.33562 0.0
O928 O 0.3608 0.83055 0.34675 0.0
C929 C 0.35933 0.82107 0.3414 0.0
C930 C 0.34958 0.85281 0.32276 0.0
C931 C 0.36922 0.81684 0.33563 0.0
C932 C 0.38367 0.81871 0.32144 0.0
C933 C 0.37443 0.82302 0.32703 0.0
C934 C 0.38258 0.80202 0.33301 0.0
C935 C 0.38781 0.80811 0.32431 0.0
C936 C 0.37338 0.80635 0.3386 0.0
C937 C 0.3238 0.83481 0.3619 0.0
C938 C 0.32403 0.82038 0.37636 0.0
C939 C 0.30814 0.83264 0.37465 0.0
C940 C 0.31329 0.83814 0.36565 0.0
C941 C 0.3134 0.82365 0.38009 0.0
C942 C 0.32917 0.8259 0.36731 0.0
C943 C 0.3289 0.84071 0.35231 0.0
O944 O 0.35437 0.85357 0.33267 0.0
O945 O 0.34395 0.84338 0.32133 0.0
O946 O 0.32813 0.83554 0.34267 0.0
O947 O 0.33883 0.84531 0.35411 0.0
H948 H 0.32714 0.85656 0.31905 0.0
H949 H 0.31878 0.8732 0.31083 0.0
H950 H 0.3516 0.889 0.30903 0.0
H951 H 0.35995 0.87212 0.31682 0.0
H952 H 0.38741 0.82357 0.31471 0.0
H953 H 0.37128 0.83113 0.32459 0.0
H954 H 0.38565 0.79391 0.33554 0.0
H955 H 0.36947 0.80147 0.34523 0.0
H956 H 0.32826 0.81344 0.3803 0.0
H957 H 0.30005 0.8355 0.37741 0.0
H958 H 0.30904 0.84503 0.3616 0.0
H959 H 0.33729 0.82319 0.36448 0.0
C960 C 0.69139 0.65209 0.20303 0.0
C961 C 0.70138 0.64984 0.19741 0.0
C962 C 0.70468 0.63389 0.20978 0.0
C963 C 0.70797 0.64083 0.20076 0.0
C964 C 0.69458 0.63615 0.2153 0.0
C965 C 0.68802 0.64517 0.21195 0.0
U966 U 0.68495 0.67679 0.18372 0.0
O967 O 0.66875 0.68268 0.17723 0.0
O968 O 0.67922 0.69364 0.18777 0.0
C969 C 0.66953 0.6922 0.18262 0.0
C970 C 0.68446 0.66163 0.19975 0.0
C971 C 0.65959 0.6953 0.18904 0.0
C972 C 0.64752 0.69327 0.20527 0.0
C973 C 0.65692 0.69001 0.19922 0.0
C974 C 0.64335 0.70708 0.19098 0.0
C975 C 0.64064 0.7019 0.20125 0.0
C976 C 0.65273 0.70381 0.18495 0.0
C977 C 0.70431 0.68339 0.15868 0.0
C978 C 0.71713 0.69684 0.14991 0.0
C979 C 0.70259 0.68785 0.1388 0.0
C980 C 0.69892 0.68192 0.14827 0.0
C981 C 0.71178 0.69535 0.13948 0.0
C982 C 0.71346 0.69091 0.15938 0.0
C983 C 0.70092 0.67671 0.16867 0.0
O984 O 0.68926 0.67153 0.20088 0.0
O985 O 0.67893 0.66054 0.19025 0.0
O986 O 0.69163 0.67068 0.16782 0.0
O987 O 0.702 0.68166 0.17842 0.0
H988 H 0.70408 0.65507 0.19047 0.0
H989 H 0.71561 0.63925 0.19624 0.0
H990 H 0.69186 0.63109 0.22235 0.0
H991 H 0.68033 0.64681 0.21639 0.0
H992 H 0.64577 0.68918 0.2132 0.0
H993 H 0.66215 0.68342 0.20251 0.0
H994 H 0.63816 0.71361 0.18753 0.0
H995 H 0.65465 0.70796 0.17708 0.0
H996 H 0.72414 0.70264 0.15079 0.0
H997 H 0.69838 0.68636 0.13087 0.0
H998 H 0.69194 0.67609 0.14736 0.0
H999 H 0.71788 0.69215 0.16724 0.0
C1000 C 0.32172 0.6743 0.15977 0.0
C1001 C 0.32958 0.67698 0.15141 0.0
C1002 C 0.31509 0.68603 0.14022 0.0
C1003 C 0.32628 0.68274 0.14172 0.0
C1004 C 0.30728 0.68334 0.14865 0.0
C1005 C 0.31056 0.67751 0.15828 0.0
U1006 U 0.34113 0.67013 0.18503 0.0
O1007 O 0.33704 0.6664 0.2026 0.0
O1008 O 0.34714 0.65471 0.19305 0.0
C1009 C 0.34165 0.65651 0.20235 0.0
C1010 C 0.32496 0.66828 0.17011 0.0
C1011 C 0.33447 0.64719 0.20625 0.0
C1012 C 0.31744 0.63586 0.20465 0.0
C1013 C 0.32435 0.64459 0.20073 0.0
C1014 C 0.33077 0.63215 0.21956 0.0
C1015 C 0.32055 0.62956 0.21414 0.0
C1016 C 0.33766 0.6409 0.21565 0.0
C1017 C 0.36627 0.69053 0.18837 0.0
C1018 C 0.38006 0.68985 0.20345 0.0
C1019 C 0.38015 0.70544 0.19039 0.0
C1020 C 0.37102 0.70067 0.1847 0.0
C1021 C 0.38472 0.70016 0.19989 0.0
C1022 C 0.37086 0.68509 0.19775 0.0
C1023 C 0.35635 0.68604 0.18245 0.0
O1024 O 0.33421 0.66248 0.16973 0.0
O1025 O 0.32397 0.67394 0.17942 0.0
O1026 O 0.34672 0.68755 0.18744 0.0
O1027 O 0.35727 0.67602 0.17815 0.0
H1028 H 0.33827 0.67464 0.15234 0.0
H1029 H 0.33251 0.68451 0.13537 0.0
H1030 H 0.29864 0.6859 0.14792 0.0
H1031 H 0.30438 0.67558 0.16464 0.0
H1032 H 0.3097 0.634 0.20019 0.0
H1033 H 0.32178 0.64934 0.19342 0.0
H1034 H 0.33336 0.62756 0.22696 0.0
H1035 H 0.34544 0.64282 0.22002 0.0
H1036 H 0.38334 0.68562 0.21079 0.0
H1037 H 0.38364 0.71328 0.18732 0.0
H1038 H 0.36759 0.70496 0.17746 0.0
H1039 H 0.36724 0.67725 0.20072 0.0
C1040 C 0.32064 0.33928 0.1595 0.0
C1041 C 0.32629 0.32969 0.15616 0.0
C1042 C 0.31386 0.32782 0.13993 0.0
C1043 C 0.32293 0.32401 0.14646 0.0
C1044 C 0.30829 0.33748 0.14333 0.0
C1045 C 0.31165 0.34314 0.15302 0.0
U1046 U 0.33995 0.34373 0.18487 0.0
O1047 O 0.34649 0.35935 0.19222 0.0
O1048 O 0.33576 0.34809 0.20219 0.0
C1049 C 0.34101 0.35781 0.20163 0.0
C1050 C 0.32398 0.34533 0.1697 0.0
C1051 C 0.33467 0.36743 0.20558 0.0
C1052 C 0.31964 0.38078 0.20345 0.0
C1053 C 0.32552 0.37159 0.19949 0.0
C1054 C 0.332 0.38168 0.21962 0.0
C1055 C 0.32284 0.38596 0.21356 0.0
C1056 C 0.33785 0.37252 0.21565 0.0
C1057 C 0.36479 0.32461 0.19007 0.0
C1058 C 0.378 0.32766 0.20537 0.0
C1059 C 0.3797 0.31142 0.19356 0.0
C1060 C 0.37036 0.3148 0.18733 0.0
C1061 C 0.38365 0.31781 0.20267 0.0
C1062 C 0.36865 0.33102 0.19913 0.0
C1063 C 0.35497 0.32801 0.18342 0.0
O1064 O 0.32279 0.33972 0.17913 0.0
O1065 O 0.33352 0.35095 0.16914 0.0
O1066 O 0.35593 0.33774 0.17831 0.0
O1067 O 0.34522 0.32649 0.1883 0.0
H1068 H 0.33325 0.32658 0.16108 0.0
H1069 H 0.32733 0.31653 0.14417 0.0
H1070 H 0.30139 0.34075 0.13844 0.0
H1071 H 0.30722 0.35056 0.15546 0.0
H1072 H 0.3127 0.38391 0.19853 0.0
H1073 H 0.32296 0.36774 0.19167 0.0
H1074 H 0.33458 0.38531 0.22752 0.0
H1075 H 0.34486 0.36938 0.22049 0.0
H1076 H 0.38088 0.33285 0.21224 0.0
H1077 H 0.38371 0.30371 0.19134 0.0
H1078 H 0.36746 0.30973 0.18038 0.0
H1079 H 0.36445 0.33864 0.20136 0.0
C1080 C 0.65921 0.32025 0.1901 0.0
C1081 C 0.65681 0.32576 0.2001 0.0
C1082 C 0.64012 0.31398 0.20268 0.0
C1083 C 0.64735 0.32265 0.20634 0.0
C1084 C 0.64252 0.30858 0.19257 0.0
C1085 C 0.65199 0.31169 0.18635 0.0
U1086 U 0.68518 0.33859 0.18528 0.0
O1087 O 0.70227 0.33399 0.18039 0.0
O1088 O 0.69248 0.3453 0.16972 0.0
C1089 C 0.70166 0.33944 0.17081 0.0
C1090 C 0.66928 0.32323 0.18362 0.0
C1091 C 0.70539 0.33333 0.16085 0.0
C1092 C 0.70193 0.32507 0.14255 0.0
C1093 C 0.69795 0.33028 0.15217 0.0
C1094 C 0.72075 0.32561 0.15029 0.0
C1095 C 0.71342 0.32279 0.14143 0.0
C1096 C 0.71678 0.33085 0.15986 0.0
C1097 C 0.69171 0.36258 0.20543 0.0
C1098 C 0.70698 0.37598 0.20249 0.0
C1099 C 0.69617 0.37647 0.21957 0.0
C1100 C 0.68962 0.36742 0.21584 0.0
C1101 C 0.70492 0.38088 0.21295 0.0
C1102 C 0.70044 0.36689 0.19878 0.0
C1103 C 0.68469 0.35309 0.20167 0.0
O1104 O 0.66897 0.33287 0.17829 0.0
O1105 O 0.67887 0.32157 0.1888 0.0
O1106 O 0.68924 0.34321 0.20267 0.0
O1107 O 0.67944 0.35452 0.19206 0.0
H1108 H 0.66228 0.33243 0.20309 0.0
H1109 H 0.64568 0.32709 0.214 0.0
H1110 H 0.63723 0.30179 0.18957 0.0
H1111 H 0.65374 0.30733 0.17866 0.0
H1112 H 0.69606 0.32309 0.13587 0.0
H1113 H 0.6891 0.33206 0.15274 0.0
H1114 H 0.72959 0.32377 0.14985 0.0
H1115 H 0.72265 0.33307 0.16646 0.0
H1116 H 0.71373 0.37907 0.19724 0.0
H1117 H 0.69426 0.38012 0.22759 0.0
H1118 H 0.6829 0.36421 0.22107 0.0
H1119 H 0.7022 0.36321 0.19073 0.0
C1120 C 0.6551 0.31953 0.83577 0.0
C1121 C 0.6517 0.32542 0.82616 0.0
C1122 C 0.63661 0.31178 0.82297 0.0
C1123 C 0.64252 0.32158 0.81982 0.0
C1124 C 0.63999 0.30603 0.83271 0.0
C1125 C 0.64915 0.30988 0.83904 0.0
U1126 U 0.68008 0.33932 0.84098 0.0
O1127 O 0.68713 0.34572 0.8568 0.0
O1128 O 0.69738 0.33536 0.84593 0.0
C1129 C 0.69645 0.3401 0.85577 0.0
C1130 C 0.665 0.32312 0.84227 0.0
C1131 C 0.69998 0.33324 0.86553 0.0
C1132 C 0.69724 0.32625 0.88455 0.0
C1133 C 0.69369 0.33276 0.87545 0.0
C1134 C 0.71342 0.32058 0.87402 0.0
C1135 C 0.70711 0.32003 0.88391 0.0
C1136 C 0.70992 0.32715 0.86496 0.0
C1137 C 0.68545 0.36407 0.82112 0.0
C1138 C 0.7021 0.37602 0.82226 0.0
C1139 C 0.6877 0.37986 0.80842 0.0
C1140 C 0.68142 0.37067 0.8123 0.0
C1141 C 0.69816 0.38261 0.81329 0.0
C1142 C 0.69579 0.36682 0.82614 0.0
C1143 C 0.67885 0.35425 0.82481 0.0
O1144 O 0.67464 0.32213 0.83714 0.0
O1145 O 0.66413 0.33262 0.84761 0.0
O1146 O 0.67369 0.35525 0.83443 0.0
O1147 O 0.68377 0.34458 0.82371 0.0
H1148 H 0.65625 0.33288 0.8235 0.0
H1149 H 0.64022 0.32614 0.8123 0.0
H1150 H 0.63554 0.29855 0.83547 0.0
H1151 H 0.65165 0.30525 0.84645 0.0
H1152 H 0.69215 0.32593 0.89203 0.0
H1153 H 0.686 0.33737 0.87621 0.0
H1154 H 0.72115 0.31603 0.87332 0.0
H1155 H 0.71501 0.32746 0.85748 0.0
H1156 H 0.71016 0.37783 0.82613 0.0
H1157 H 0.68432 0.38484 0.80163 0.0
H1158 H 0.67343 0.36869 0.80836 0.0
H1159 H 0.69903 0.36178 0.83297 0.0
C1160 C 0.65299 0.67981 0.82019 0.0
C1161 C 0.65056 0.68996 0.82537 0.0
C1162 C 0.63472 0.69261 0.81264 0.0
C1163 C 0.64151 0.69631 0.82162 0.0
C1164 C 0.63716 0.68236 0.80758 0.0
C1165 C 0.64621 0.67603 0.81132 0.0
U1166 U 0.67765 0.67437 0.83999 0.0
O1167 O 0.68385 0.65852 0.8469 0.0
O1168 O 0.69473 0.66893 0.83622 0.0
C1169 C 0.69341 0.65935 0.84152 0.0
C1170 C 0.66263 0.67317 0.82383 0.0
C1171 C 0.69667 0.64942 0.83521 0.0
C1172 C 0.69333 0.63589 0.82043 0.0
C1173 C 0.68995 0.64522 0.82647 0.0
C1174 C 0.71016 0.63488 0.83185 0.0
C1175 C 0.7035 0.6306 0.82303 0.0
C1176 C 0.70676 0.64419 0.83787 0.0
C1177 C 0.68369 0.69451 0.86433 0.0
C1178 C 0.69327 0.69089 0.88202 0.0
C1179 C 0.69219 0.70982 0.87485 0.0
C1180 C 0.6862 0.70593 0.86551 0.0
C1181 C 0.69575 0.70237 0.88328 0.0
C1182 C 0.68734 0.687 0.87263 0.0
C1183 C 0.67712 0.69074 0.85449 0.0
O1184 O 0.6725 0.67808 0.82267 0.0
O1185 O 0.6615 0.66793 0.83348 0.0
O1186 O 0.67131 0.68136 0.85564 0.0
O1187 O 0.68221 0.69161 0.84479 0.0
H1188 H 0.65569 0.69298 0.83226 0.0
H1189 H 0.63979 0.70409 0.8258 0.0
H1190 H 0.63221 0.67933 0.80057 0.0
H1191 H 0.64799 0.66822 0.80722 0.0
H1192 H 0.68793 0.63276 0.81379 0.0
H1193 H 0.68212 0.64919 0.8243 0.0
H1194 H 0.71812 0.63117 0.83397 0.0
H1195 H 0.71208 0.64736 0.84455 0.0
H1196 H 0.69576 0.68492 0.88838 0.0
H1197 H 0.69412 0.71867 0.87538 0.0
H1198 H 0.68351 0.71186 0.85919 0.0
H1199 H 0.68554 0.67813 0.87192 0.0
C1200 C 0.32306 0.64744 0.83457 0.0
C1201 C 0.32742 0.64529 0.82394 0.0
C1202 C 0.31462 0.62931 0.82188 0.0
C1203 C 0.32322 0.63632 0.81763 0.0
C1204 C 0.31035 0.6315 0.83258 0.0
C1205 C 0.31453 0.64048 0.83886 0.0
U1206 U 0.34415 0.67121 0.84011 0.0
O1207 O 0.34149 0.68827 0.84606 0.0
O1208 O 0.35168 0.67677 0.85608 0.0
C1209 C 0.34666 0.68645 0.85565 0.0
C1210 C 0.32728 0.65687 0.8413 0.0
C1211 C 0.34055 0.6896 0.86583 0.0
C1212 C 0.32316 0.69258 0.87582 0.0
C1213 C 0.32878 0.68927 0.86618 0.0
C1214 C 0.34099 0.69628 0.885 0.0
C1215 C 0.32918 0.69617 0.88536 0.0
C1216 C 0.3466 0.69306 0.87533 0.0
C1217 C 0.36835 0.67612 0.81947 0.0
C1218 C 0.38253 0.69083 0.82143 0.0
C1219 C 0.3829 0.67845 0.80549 0.0
C1220 C 0.37337 0.67281 0.8095 0.0
C1221 C 0.38762 0.68753 0.8114 0.0
C1222 C 0.37297 0.68516 0.82544 0.0
C1223 C 0.35827 0.67008 0.82338 0.0
O1224 O 0.33695 0.65531 0.84636 0.0
O1225 O 0.32652 0.66678 0.83658 0.0
O1226 O 0.34889 0.67568 0.82287 0.0
O1227 O 0.3594 0.66434 0.83274 0.0
H1228 H 0.33406 0.65056 0.82053 0.0
H1229 H 0.32678 0.6348 0.80947 0.0
H1230 H 0.30363 0.62638 0.83604 0.0
H1231 H 0.31106 0.64203 0.84705 0.0
H1232 H 0.31409 0.69251 0.87569 0.0
H1233 H 0.32392 0.68657 0.85897 0.0
H1234 H 0.34593 0.69879 0.89222 0.0
H1235 H 0.35568 0.6933 0.87526 0.0
H1236 H 0.38599 0.69771 0.82624 0.0
H1237 H 0.38645 0.67579 0.79765 0.0
H1238 H 0.36987 0.66588 0.80475 0.0
H1239 H 0.36918 0.68782 0.83317 0.0
C1240 C 0.34127 0.36471 0.81557 0.0
C1241 C 0.33091 0.36734 0.82028 0.0
C1242 C 0.32929 0.38336 0.80765 0.0
C1243 C 0.32495 0.37658 0.81634 0.0
C1244 C 0.33975 0.38072 0.80307 0.0
C1245 C 0.34566 0.37148 0.80699 0.0
U1246 U 0.34601 0.34018 0.83574 0.0
O1247 O 0.35077 0.32291 0.83214 0.0
O1248 O 0.36181 0.33353 0.84246 0.0
C1249 C 0.36052 0.32395 0.83726 0.0
C1250 C 0.34752 0.35487 0.81935 0.0
C1251 C 0.37026 0.32024 0.83088 0.0
C1252 C 0.38198 0.321 0.81431 0.0
C1253 C 0.37281 0.32485 0.82035 0.0
C1254 C 0.38621 0.30801 0.82934 0.0
C1255 C 0.38877 0.31248 0.81871 0.0
C1256 C 0.37704 0.31185 0.83535 0.0
C1257 C 0.32621 0.33514 0.86072 0.0
C1258 C 0.31487 0.32028 0.86926 0.0
C1259 C 0.32543 0.33308 0.88103 0.0
C1260 C 0.32941 0.33869 0.8715 0.0
C1261 C 0.31806 0.32383 0.88004 0.0
C1262 C 0.31886 0.32587 0.85973 0.0
C1263 C 0.33 0.34147 0.85065 0.0
O1264 O 0.35295 0.35595 0.8289 0.0
O1265 O 0.34216 0.34523 0.81842 0.0
O1266 O 0.32867 0.33649 0.84094 0.0
O1267 O 0.33962 0.34695 0.85151 0.0
H1268 H 0.32741 0.36222 0.82695 0.0
H1269 H 0.31699 0.37844 0.82014 0.0
H1270 H 0.34327 0.38565 0.79627 0.0
H1271 H 0.35364 0.36955 0.80325 0.0
H1272 H 0.38362 0.32455 0.80611 0.0
H1273 H 0.36765 0.33134 0.81677 0.0
H1274 H 0.39134 0.30158 0.83307 0.0
H1275 H 0.37522 0.30823 0.84349 0.0
H1276 H 0.3093 0.31312 0.86818 0.0
H1277 H 0.32793 0.33614 0.8892 0.0
H1278 H 0.33489 0.34592 0.87258 0.0
H1279 H 0.31611 0.32296 0.85159 0.0
H1280 H 0.27634 0.23799 0.95597 0.0
N1281 N 0.27337 0.25618 0.96803 0.0
H1282 H 0.26253 0.22827 0.94416 0.0
H1283 H 0.25093 0.26034 0.9672 0.0
H1284 H 0.23696 0.25065 0.95545 0.0
H1285 H 0.2634 0.27537 0.96084 0.0
H1286 H 0.27121 0.28896 0.94754 0.0
H1287 H 0.29424 0.25719 0.96045 0.0
H1288 H 0.3021 0.27063 0.94697 0.0
H1289 H 0.28215 0.24187 0.98245 0.0
H1290 H 0.2634 0.27224 0.98067 0.0
H1291 H 0.28209 0.24266 1.00286 0.0
H1292 H 0.26366 0.27343 1.00114 0.0
H1293 H 0.27701 0.23639 0.0581 0.0
H1294 H 0.26453 0.22518 0.07006 0.0
H1295 H 0.2411 0.25232 0.07055 0.0
H1296 H 0.25374 0.26348 0.05873 0.0
H1297 H 0.26687 0.27873 0.05427 0.0
H1298 H 0.27403 0.29277 0.06753 0.0
H1299 H 0.30028 0.27027 0.07762 0.0
H1300 H 0.29307 0.25643 0.06433 0.0
H1301 H 0.29086 0.25228 0.03805 0.0
H1302 H 0.2905 0.25273 0.01761 0.0
H1303 H 0.25674 0.26532 0.01828 0.0
N1304 N 0.27461 0.25757 0.05194 0.0
H1305 H 0.25746 0.2653 0.0388 0.0
C1306 C 0.26467 0.24985 0.96242 0.0
C1307 C 0.2677 0.24064 0.95603 0.0
C1308 C 0.25978 0.23509 0.94932 0.0
C1309 C 0.24863 0.2387 0.94882 0.0
C1310 C 0.24551 0.24775 0.95554 0.0
C1311 C 0.25346 0.25326 0.96231 0.0
C1312 C 0.27828 0.26526 0.96166 0.0
C1313 C 0.27193 0.27441 0.95807 0.0
C1314 C 0.27638 0.28213 0.95036 0.0
C1315 C 0.28726 0.28084 0.94609 0.0
C1316 C 0.29376 0.27196 0.95015 0.0
C1317 C 0.28929 0.26426 0.95784 0.0
C1318 C 0.27292 0.25702 0.98004 0.0
C1319 C 0.27809 0.24876 0.98651 0.0
C1320 C 0.27812 0.2493 0.99818 0.0
C1321 C 0.27303 0.25821 0.00372 0.0
C1322 C 0.26763 0.26642 0.9972 0.0
C1323 C 0.26754 0.2658 0.98546 0.0
C1324 C 0.26632 0.25071 0.05752 0.0
C1325 C 0.26907 0.23979 0.06062 0.0
C1326 C 0.26191 0.23341 0.06743 0.0
C1327 C 0.25182 0.23787 0.07133 0.0
C1328 C 0.24887 0.24869 0.06783 0.0
C1329 C 0.25605 0.25506 0.06098 0.0
C1330 C 0.27947 0.26656 0.05837 0.0
C1331 C 0.27425 0.27694 0.05923 0.0
C1332 C 0.27833 0.2849 0.06686 0.0
C1333 C 0.28771 0.28263 0.07369 0.0
C1334 C 0.29314 0.27238 0.07242 0.0
C1335 C 0.28904 0.26445 0.06485 0.0
C1336 C 0.27418 0.25861 0.03993 0.0
C1337 C 0.28343 0.25522 0.03376 0.0
C1338 C 0.28315 0.25539 0.02207 0.0
C1339 C 0.2735 0.25887 0.01622 0.0
C1340 C 0.26432 0.26262 0.02246 0.0
C1341 C 0.26468 0.26254 0.03421 0.0
H1342 H 0.77058 0.26244 0.95955 0.0
N1343 N 0.75319 0.25213 0.97066 0.0
H1344 H 0.78385 0.25348 0.94726 0.0
H1345 H 0.75608 0.23033 0.96818 0.0
H1346 H 0.7697 0.22116 0.95625 0.0
H1347 H 0.73573 0.24658 0.95788 0.0
H1348 H 0.72592 0.25841 0.94431 0.0
H1349 H 0.75607 0.27489 0.96806 0.0
H1350 H 0.74644 0.28667 0.95452 0.0
H1351 H 0.76928 0.26622 0.97951 0.0
H1352 H 0.74199 0.24379 0.988 0.0
H1353 H 0.77217 0.27047 0.99922 0.0
H1354 H 0.74532 0.24729 0.00788 0.0
H1355 H 0.78568 0.27006 0.06518 0.0
H1356 H 0.79365 0.25603 0.0777 0.0
H1357 H 0.76931 0.23169 0.06564 0.0
H1358 H 0.76118 0.24597 0.05341 0.0
H1359 H 0.74928 0.26029 0.06353 0.0
H1360 H 0.73859 0.27078 0.07708 0.0
H1361 H 0.7575 0.30071 0.06838 0.0
H1362 H 0.76853 0.28993 0.05521 0.0
H1363 H 0.78249 0.26766 0.03562 0.0
H1364 H 0.77914 0.26365 0.01589 0.0
H1365 H 0.74368 0.25964 0.02253 0.0
N1366 N 0.76773 0.26797 0.05209 0.0
H1367 H 0.74728 0.26287 0.04234 0.0
C1368 C 0.76224 0.24703 0.96472 0.0
C1369 C 0.7704 0.25342 0.959 0.0
C1370 C 0.77806 0.24825 0.95198 0.0
C1371 C 0.7778 0.23657 0.95062 0.0
C1372 C 0.77 0.23018 0.95686 0.0
C1373 C 0.76229 0.23538 0.96379 0.0
C1374 C 0.7466 0.25978 0.96405 0.0
C1375 C 0.73793 0.25539 0.95734 0.0
C1376 C 0.73242 0.26213 0.94952 0.0
C1377 C 0.73547 0.27347 0.94827 0.0
C1378 C 0.74382 0.278 0.95534 0.0
C1379 C 0.74937 0.27122 0.96313 0.0
C1380 C 0.75525 0.25481 0.98226 0.0
C1381 C 0.76388 0.26221 0.98562 0.0
C1382 C 0.76563 0.2645 0.99698 0.0
C1383 C 0.759 0.25923 0.00528 0.0
C1384 C 0.75046 0.25172 1.00182 0.0
C1385 C 0.74859 0.24962 0.99045 0.0
C1386 C 0.77292 0.25906 0.05835 0.0
C1387 C 0.78219 0.26164 0.06515 0.0
C1388 C 0.78675 0.25358 0.07226 0.0
C1389 C 0.78214 0.24268 0.0727 0.0
C1390 C 0.77299 0.24002 0.06563 0.0
C1391 C 0.76839 0.24814 0.05854 0.0
C1392 C 0.75984 0.27433 0.05845 0.0
C1393 C 0.75103 0.26913 0.06443 0.0
C1394 C 0.74486 0.27519 0.07215 0.0
C1395 C 0.74728 0.28659 0.074 0.0
C1396 C 0.75558 0.29189 0.06741 0.0
C1397 C 0.76181 0.2858 0.05977 0.0
C1398 C 0.76519 0.26571 0.04047 0.0
C1399 C 0.774 0.26588 0.03278 0.0
C1400 C 0.77203 0.26369 0.02146 0.0
C1401 C 0.7611 0.26142 0.01746 0.0
C1402 C 0.75224 0.26121 0.02523 0.0
C1403 C 0.75427 0.26319 0.03662 0.0
H1404 H 0.75512 0.7685 0.95723 0.0
N1405 N 0.76486 0.75107 0.96843 0.0
H1406 H 0.76445 0.78153 0.94445 0.0
H1407 H 0.78682 0.75368 0.96541 0.0
H1408 H 0.79639 0.76705 0.95299 0.0
H1409 H 0.76887 0.73403 0.9551 0.0
H1410 H 0.75586 0.72478 0.94215 0.0
H1411 H 0.74217 0.75437 0.9672 0.0
H1412 H 0.72895 0.74493 0.95456 0.0
H1413 H 0.75434 0.76888 0.97791 0.0
H1414 H 0.77029 0.73764 0.98531 0.0
H1415 H 0.75157 0.77198 0.99787 0.0
H1416 H 0.7672 0.74043 0.00532 0.0
H1417 H 0.75064 0.78564 0.05546 0.0
H1418 H 0.76238 0.79673 0.06822 0.0
H1419 H 0.78487 0.76898 0.07186 0.0
H1420 H 0.7729 0.7579 0.05947 0.0
H1421 H 0.76017 0.74297 0.05435 0.0
H1422 H 0.7524 0.72958 0.06793 0.0
H1423 H 0.72593 0.75255 0.07531 0.0
H1424 H 0.73377 0.76584 0.0617 0.0
H1425 H 0.73878 0.76908 0.0338 0.0
H1426 H 0.7412 0.76578 0.01377 0.0
H1427 H 0.77355 0.75141 0.02068 0.0
N1428 N 0.75274 0.7642 0.05044 0.0
H1429 H 0.77086 0.75439 0.04062 0.0
C1430 C 0.77029 0.76001 0.96222 0.0
C1431 C 0.76414 0.7682 0.95646 0.0
C1432 C 0.76953 0.77572 0.94917 0.0
C1433 C 0.7812 0.7753 0.94754 0.0
C1434 C 0.78737 0.76747 0.9538 0.0
C1435 C 0.78196 0.7599 0.96102 0.0
C1436 C 0.75653 0.74482 0.96215 0.0
C1437 C 0.76012 0.73629 0.95514 0.0
C1438 C 0.75264 0.73099 0.94777 0.0
C1439 C 0.74131 0.7341 0.94725 0.0
C1440 C 0.73763 0.74242 0.95459 0.0
C1441 C 0.74516 0.74776 0.96194 0.0
C1442 C 0.76264 0.75304 0.98011 0.0
C1443 C 0.7572 0.76265 0.98382 0.0
C1444 C 0.75554 0.76436 0.99528 0.0
C1445 C 0.7592 0.75648 0.00329 0.0
C1446 C 0.76446 0.7468 0.99947 0.0
C1447 C 0.76615 0.74513 0.98804 0.0
C1448 C 0.76087 0.77099 0.05641 0.0
C1449 C 0.75824 0.78206 0.05884 0.0
C1450 C 0.76499 0.78839 0.06613 0.0
C1451 C 0.77456 0.78373 0.07116 0.0
C1452 C 0.77747 0.77278 0.06829 0.0
C1453 C 0.77069 0.76645 0.06104 0.0
C1454 C 0.74753 0.75544 0.05703 0.0
C1455 C 0.75261 0.74506 0.05877 0.0
C1456 C 0.74819 0.73743 0.06659 0.0
C1457 C 0.73858 0.74001 0.07277 0.0
C1458 C 0.73326 0.75021 0.07063 0.0
C1459 C 0.73772 0.75784 0.06287 0.0
C1460 C 0.75461 0.76207 0.03873 0.0
C1461 C 0.74638 0.7652 0.03095 0.0
C1462 C 0.74782 0.76337 0.0195 0.0
C1463 C 0.7576 0.75836 0.01553 0.0
C1464 C 0.76585 0.75516 0.02339 0.0
C1465 C 0.76435 0.75695 0.03486 0.0
H1466 H 0.28036 0.75113 0.96115 0.0
N1467 N 0.26174 0.74181 0.97107 0.0
H1468 H 0.29282 0.74195 0.94823 0.0
H1469 H 0.26257 0.72001 0.96691 0.0
H1470 H 0.2754 0.71054 0.95435 0.0
H1471 H 0.24412 0.7384 0.95776 0.0
H1472 H 0.23567 0.75165 0.94464 0.0
H1473 H 0.26694 0.76412 0.96942 0.0
H1474 H 0.25848 0.77752 0.95639 0.0
H1475 H 0.28202 0.74552 0.98204 0.0
H1476 H 0.24617 0.74424 0.98664 0.0
H1477 H 0.28471 0.74894 1.00183 0.0
H1478 H 0.24875 0.74853 0.00641 0.0
H1479 H 0.29269 0.75912 0.06546 0.0
H1480 H 0.30044 0.74575 0.07884 0.0
H1481 H 0.27536 0.7213 0.06864 0.0
H1482 H 0.26743 0.73487 0.05571 0.0
H1483 H 0.25474 0.75 0.06309 0.0
H1484 H 0.24395 0.76084 0.07638 0.0
H1485 H 0.26566 0.78948 0.07022 0.0
H1486 H 0.27655 0.77844 0.05716 0.0
H1487 H 0.28674 0.76426 0.03623 0.0
H1488 H 0.28369 0.76146 0.01622 0.0
H1489 H 0.25395 0.7416 0.0236 0.0
N1490 N 0.27429 0.75677 0.05307 0.0
H1491 H 0.25665 0.74529 0.04346 0.0
C1492 C 0.27042 0.73626 0.96494 0.0
C1493 C 0.27926 0.74226 0.9598 0.0
C1494 C 0.28647 0.73694 0.95245 0.0
C1495 C 0.28509 0.72548 0.95011 0.0
C1496 C 0.27659 0.7194 0.95574 0.0
C1497 C 0.26933 0.72476 0.96303 0.0
C1498 C 0.25611 0.75025 0.96454 0.0
C1499 C 0.24714 0.74698 0.95762 0.0
C1500 C 0.24232 0.75458 0.95015 0.0
C1501 C 0.24642 0.76565 0.94943 0.0
C1502 C 0.25521 0.76902 0.95664 0.0
C1503 C 0.26001 0.7614 0.96414 0.0
C1504 C 0.26381 0.74449 0.98273 0.0
C1505 C 0.27467 0.74609 0.98722 0.0
C1506 C 0.27621 0.74819 0.99866 0.0
C1507 C 0.26696 0.74902 0.00588 0.0
C1508 C 0.25613 0.7477 1.00127 0.0
C1509 C 0.25461 0.74536 0.9899 0.0
C1510 C 0.27955 0.74804 0.05951 0.0
C1511 C 0.28901 0.7508 0.066 0.0
C1512 C 0.29344 0.74311 0.07362 0.0
C1513 C 0.28851 0.73241 0.0749 0.0
C1514 C 0.27927 0.72951 0.06805 0.0
C1515 C 0.27478 0.73726 0.06049 0.0
C1516 C 0.2665 0.76343 0.05917 0.0
C1517 C 0.25702 0.75867 0.06441 0.0
C1518 C 0.25084 0.7649 0.07202 0.0
C1519 C 0.25404 0.77599 0.07452 0.0
C1520 C 0.26311 0.7809 0.06869 0.0
C1521 C 0.26927 0.77466 0.06113 0.0
C1522 C 0.27207 0.75486 0.04135 0.0
C1523 C 0.27955 0.75935 0.03347 0.0
C1524 C 0.27782 0.75762 0.02201 0.0
C1525 C 0.26862 0.75116 0.01814 0.0
C1526 C 0.26106 0.74673 0.02613 0.0
C1527 C 0.26268 0.74868 0.03759 0.0
H1528 H 0.96057 0.2421 0.28251 0.0
N1529 N 0.97064 0.24577 0.26307 0.0
H1530 H 0.94949 0.25524 0.29323 0.0
H1531 H 0.96863 0.26797 0.25853 0.0
H1532 H 0.95746 0.28127 0.26915 0.0
H1533 H 0.96178 0.25524 0.24428 0.0
H1534 H 0.94803 0.24663 0.23165 0.0
H1535 H 0.96429 0.22437 0.26276 0.0
H1536 H 0.95099 0.21541 0.24984 0.0
H1537 H 0.98486 0.23662 0.27743 0.0
H1538 H 0.98336 0.2554 0.24661 0.0
H1539 H 0.00525 0.23595 0.27612 0.0
H1540 H 0.00385 0.25443 0.24489 0.0
H1541 H 0.06022 0.23914 0.28156 0.0
H1542 H 0.07256 0.25143 0.29255 0.0
H1543 H 0.07441 0.27456 0.26463 0.0
H1544 H 0.06222 0.26209 0.25368 0.0
H1545 H 0.05676 0.24918 0.23878 0.0
H1546 H 0.0697 0.24186 0.22482 0.0
H1547 H 0.079 0.21564 0.248 0.0
H1548 H 0.06603 0.22299 0.26175 0.0
H1549 H 0.0395 0.22578 0.26581 0.0
H1550 H 0.01909 0.22694 0.26569 0.0
H1551 H 0.02167 0.26062 0.25249 0.0
N1552 N 0.05431 0.24154 0.26022 0.0
H1553 H 0.04213 0.25911 0.25218 0.0
C1554 C 0.96534 0.25406 0.26976 0.0
C1555 C 0.96007 0.25069 0.27968 0.0
C1556 C 0.95377 0.25823 0.28579 0.0
C1557 C 0.95256 0.26931 0.28202 0.0
C1558 C 0.95813 0.27276 0.2722 0.0
C1559 C 0.96454 0.26521 0.26615 0.0
C1560 C 0.96393 0.24044 0.25453 0.0
C1561 C 0.95953 0.24653 0.24547 0.0
C1562 C 0.9517 0.24154 0.2382 0.0
C1563 C 0.94824 0.23032 0.23978 0.0
C1564 C 0.95321 0.22412 0.24851 0.0
C1565 C 0.96091 0.22917 0.25583 0.0
C1566 C 0.98265 0.24595 0.26211 0.0
C1567 C 0.98899 0.24056 0.27035 0.0
C1568 C 1.00064 0.24011 0.2695 0.0
C1569 C 0.00625 0.24497 0.26029 0.0
C1570 C 0.99985 0.25062 0.25212 0.0
C1571 C 0.98813 0.25114 0.25304 0.0
C1572 C 0.0603 0.24968 0.26685 0.0
C1573 C 0.06314 0.24696 0.27792 0.0
C1574 C 0.07017 0.25402 0.28418 0.0
C1575 C 0.07453 0.26398 0.27946 0.0
C1576 C 0.07132 0.26689 0.26846 0.0
C1577 C 0.06427 0.25981 0.26222 0.0
C1578 C 0.06049 0.23659 0.25128 0.0
C1579 C 0.06148 0.24176 0.24074 0.0
C1580 C 0.06892 0.2376 0.23281 0.0
C1581 C 0.07544 0.22818 0.2353 0.0
C1582 C 0.07403 0.2228 0.24572 0.0
C1583 C 0.06665 0.22699 0.25361 0.0
C1584 C 0.04232 0.24236 0.25916 0.0
C1585 C 0.03563 0.23335 0.26279 0.0
C1586 C 0.02396 0.2341 0.26281 0.0
C1587 C 0.01867 0.24397 0.2593 0.0
C1588 C 0.02541 0.25288 0.25524 0.0
C1589 C 0.03714 0.25207 0.25512 0.0
H1590 H 0.76423 0.05863 0.26413 0.0
N1591 N 0.74599 0.04866 0.25391 0.0
H1592 H 0.77741 0.07175 0.2556 0.0
H1593 H 0.7475 0.05413 0.23234 0.0
H1594 H 0.76052 0.06768 0.22373 0.0
H1595 H 0.72768 0.06024 0.24971 0.0
H1596 H 0.71834 0.07316 0.2622 0.0
H1597 H 0.75012 0.0508 0.27642 0.0
H1598 H 0.74116 0.06402 0.28888 0.0
H1599 H 0.76422 0.03934 0.26456 0.0
H1600 H 0.73253 0.03161 0.24862 0.0
H1601 H 0.76763 0.01957 0.26721 0.0
H1602 H 0.73558 0.01168 0.2518 0.0
H1603 H 0.78285 0.96273 0.26703 0.0
H1604 H 0.79335 0.95045 0.25479 0.0
H1605 H 0.76382 0.94588 0.23404 0.0
H1606 H 0.75339 0.95787 0.24645 0.0
H1607 H 0.73976 0.96089 0.26003 0.0
H1608 H 0.72793 0.94703 0.26964 0.0
H1609 H 0.75265 0.94491 0.29622 0.0
H1610 H 0.76468 0.9582 0.28611 0.0
H1611 H 0.76658 0.98374 0.27965 0.0
H1612 H 0.76253 0.00357 0.27736 0.0
H1613 H 0.74602 0.99643 0.24579 0.0
N1614 N 0.76112 0.96711 0.26605 0.0
H1615 H 0.74959 0.97661 0.24853 0.0
C1616 C 0.75487 0.05527 0.24883 0.0
C1617 C 0.76348 0.06029 0.25526 0.0
C1618 C 0.77097 0.06795 0.25038 0.0
C1619 C 0.76996 0.07091 0.239 0.0
C1620 C 0.76162 0.06554 0.23249 0.0
C1621 C 0.75416 0.05781 0.23738 0.0
C1622 C 0.7396 0.05462 0.26208 0.0
C1623 C 0.73046 0.06085 0.25834 0.0
C1624 C 0.72524 0.06832 0.26546 0.0
C1625 C 0.72913 0.06982 0.27651 0.0
C1626 C 0.73791 0.06308 0.28045 0.0
C1627 C 0.74309 0.05553 0.27331 0.0
C1628 C 0.74813 0.03702 0.25621 0.0
C1629 C 0.75793 0.03342 0.26167 0.0
C1630 C 0.75983 0.02202 0.2633 0.0
C1631 C 0.75191 0.01391 0.2597 0.0
C1632 C 0.742 0.01759 0.25448 0.0
C1633 C 0.74018 0.02899 0.25274 0.0
C1634 C 0.76738 0.9613 0.25768 0.0
C1635 C 0.77874 0.95925 0.25971 0.0
C1636 C 0.78472 0.95223 0.25268 0.0
C1637 C 0.77942 0.94709 0.24345 0.0
C1638 C 0.76813 0.94955 0.24117 0.0
C1639 C 0.76216 0.95654 0.24822 0.0
C1640 C 0.7532 0.96038 0.27229 0.0
C1641 C 0.74261 0.95742 0.26792 0.0
C1642 C 0.7358 0.94956 0.27351 0.0
C1643 C 0.73939 0.94465 0.28366 0.0
C1644 C 0.74972 0.94822 0.28829 0.0
C1645 C 0.75657 0.95592 0.28261 0.0
C1646 C 0.75855 0.97871 0.26423 0.0
C1647 C 0.76207 0.9865 0.27226 0.0
C1648 C 0.75981 0.99785 0.27087 0.0
C1649 C 0.75402 1.00172 0.26132 0.0
C1650 C 0.75038 0.99382 0.25332 0.0
C1651 C 0.75254 0.98242 0.2548 0.0
H1652 H 0.0621 0.76406 0.26909 0.0
N1653 N 0.05149 0.75509 0.25078 0.0
H1654 H 0.07406 0.75412 0.28238 0.0
H1655 H 0.05411 0.73313 0.2524 0.0
H1656 H 0.06624 0.72309 0.26551 0.0
H1657 H 0.06309 0.74916 0.23302 0.0
H1658 H 0.07713 0.76023 0.22288 0.0
H1659 H 0.05637 0.77722 0.25413 0.0
H1660 H 0.07034 0.78855 0.2439 0.0
H1661 H 0.04116 0.76136 0.27038 0.0
H1662 H 0.03592 0.757 0.23491 0.0
H1663 H 0.02152 0.76568 0.27261 0.0
H1664 H 0.01636 0.76214 0.23692 0.0
H1665 H 0.95887 0.7756 0.28025 0.0
H1666 H 0.94592 0.76258 0.28967 0.0
H1667 H 0.95406 0.73709 0.26577 0.0
H1668 H 0.96673 0.75015 0.25635 0.0
H1669 H 0.96065 0.76359 0.24235 0.0
H1670 H 0.94747 0.77288 0.22987 0.0
H1671 H 0.95155 0.80325 0.2489 0.0
H1672 H 0.96466 0.79377 0.2615 0.0
H1673 H 0.98717 0.78115 0.27282 0.0
H1674 H 0.00718 0.77817 0.2701 0.0
H1675 H 0.99921 0.75558 0.24296 0.0
N1676 N 0.97005 0.77234 0.26145 0.0
H1677 H 0.97944 0.75934 0.24522 0.0
C1678 C 0.05718 0.7493 0.25975 0.0
C1679 C 0.0628 0.75509 0.26838 0.0
C1680 C 0.06971 0.7494 0.27593 0.0
C1681 C 0.07122 0.7378 0.27497 0.0
C1682 C 0.0652 0.73199 0.2666 0.0
C1683 C 0.05827 0.73769 0.25908 0.0
C1684 C 0.0587 0.76236 0.24426 0.0
C1685 C 0.06453 0.75781 0.2353 0.0
C1686 C 0.07252 0.76418 0.2295 0.0
C1687 C 0.07488 0.77531 0.23255 0.0
C1688 C 0.06882 0.77997 0.24141 0.0
C1689 C 0.06079 0.77355 0.24722 0.0
C1690 C 0.04009 0.75868 0.25242 0.0
C1691 C 0.03587 0.76146 0.263 0.0
C1692 C 0.02454 0.76407 0.26426 0.0
C1693 C 0.01718 0.7642 0.25497 0.0
C1694 C 0.02158 0.76184 0.24435 0.0
C1695 C 0.03284 0.75903 0.24314 0.0
C1696 C 0.96382 0.76392 0.26763 0.0
C1697 C 0.958 0.76713 0.2772 0.0
C1698 C 0.95061 0.75967 0.28257 0.0
C1699 C 0.94887 0.7488 0.27843 0.0
C1700 C 0.95505 0.74545 0.26907 0.0
C1701 C 0.96243 0.75293 0.26371 0.0
C1702 C 0.9637 0.77802 0.25288 0.0
C1703 C 0.95895 0.7723 0.24371 0.0
C1704 C 0.95137 0.77765 0.23655 0.0
C1705 C 0.94836 0.7888 0.23842 0.0
C1706 C 0.95353 0.79462 0.24731 0.0
C1707 C 0.96112 0.78926 0.25444 0.0
C1708 C 0.98176 0.77039 0.25937 0.0
C1709 C 0.9898 0.77562 0.26624 0.0
C1710 C 1.00125 0.7738 0.26473 0.0
C1711 C 0.00495 0.76653 0.25635 0.0
C1712 C 0.99681 0.76136 0.2494 0.0
C1713 C 0.98538 0.76337 0.2508 0.0
H1714 H 0.29635 0.95481 0.24107 0.0
N1715 N 0.27837 0.96638 0.24626 0.0
H1716 H 0.30686 0.9422 0.25324 0.0
H1717 H 0.27586 0.96416 0.26889 0.0
H1718 H 0.28652 0.95187 0.28126 0.0
H1719 H 0.25999 0.95777 0.25686 0.0
H1720 H 0.24655 0.94423 0.24906 0.0
H1721 H 0.27619 0.9608 0.22487 0.0
H1722 H 0.26246 0.94773 0.21676 0.0
H1723 H 0.28903 0.98084 0.23307 0.0
H1724 H 0.2659 0.9788 0.26051 0.0
H1725 H 0.28823 1.00118 0.2333 0.0
H1726 H 0.26554 0.99924 0.26138 0.0
H1727 H 0.29309 0.06538 0.24397 0.0
H1728 H 0.30145 0.07741 0.25829 0.0
H1729 H 0.28131 0.06061 0.28348 0.0
H1730 H 0.27278 0.04881 0.26891 0.0
H1731 H 0.25724 0.05587 0.25657 0.0
H1732 H 0.24299 0.06823 0.24888 0.0
H1733 H 0.26138 0.07056 0.21787 0.0
H1734 H 0.27541 0.05791 0.22558 0.0
H1735 H 0.29388 0.03705 0.24235 0.0
H1736 H 0.29432 0.01672 0.24313 0.0
H1737 H 0.25942 0.01579 0.25276 0.0
N1738 N 0.27683 0.05024 0.24646 0.0
H1739 H 0.25932 0.03617 0.25263 0.0
C1740 C 0.2854 0.96046 0.25406 0.0
C1741 C 0.29434 0.95435 0.24989 0.0
C1742 C 0.30034 0.94717 0.25689 0.0
C1743 C 0.29754 0.94596 0.26827 0.0
C1744 C 0.28881 0.95245 0.27252 0.0
C1745 C 0.28278 0.9596 0.26548 0.0
C1746 C 0.26915 0.96016 0.24143 0.0
C1747 C 0.26047 0.95571 0.24807 0.0
C1748 C 0.25275 0.948 0.24356 0.0
C1749 C 0.25351 0.9447 0.23229 0.0
C1750 C 0.26178 0.94981 0.22553 0.0
C1751 C 0.26955 0.95739 0.23009 0.0
C1752 C 0.2777 0.97835 0.24686 0.0
C1753 C 0.2839 0.98485 0.23926 0.0
C1754 C 0.28349 0.9965 0.2395 0.0
C1755 C 0.27696 1.00198 0.24749 0.0
C1756 C 0.27063 0.99538 0.25506 0.0
C1757 C 0.27093 0.98367 0.25469 0.0
C1758 C 0.28239 0.05622 0.25538 0.0
C1759 C 0.29063 0.06421 0.25261 0.0
C1760 C 0.29541 0.07104 0.26084 0.0
C1761 C 0.29208 0.07 0.27208 0.0
C1762 C 0.28398 0.06175 0.27489 0.0
C1763 C 0.27916 0.05493 0.26661 0.0
C1764 C 0.26737 0.0559 0.24159 0.0
C1765 C 0.25805 0.0588 0.24802 0.0
C1766 C 0.24997 0.06599 0.24365 0.0
C1767 C 0.25108 0.07052 0.23278 0.0
C1768 C 0.26016 0.06717 0.22621 0.0
C1769 C 0.2682 0.05994 0.23059 0.0
C1770 C 0.27658 0.03819 0.24723 0.0
C1771 C 0.28635 0.03244 0.24467 0.0
C1772 C 0.28653 0.02078 0.24503 0.0
C1773 C 0.27684 0.01449 0.24781 0.0
C1774 C 0.26708 0.02029 0.25064 0.0
C1775 C 0.26697 0.03201 0.25046 0.0
H1776 H 0.0646 0.72678 0.76852 0.0
N1777 N 0.05423 0.74618 0.76795 0.0
H1778 H 0.07642 0.71885 0.75407 0.0
H1779 H 0.05654 0.75421 0.74653 0.0
H1780 H 0.06825 0.7463 0.73192 0.0
H1781 H 0.06594 0.76501 0.76141 0.0
H1782 H 0.08018 0.77496 0.77235 0.0
H1783 H 0.05905 0.74323 0.7895 0.0
H1784 H 0.0732 0.75331 0.80066 0.0
H1785 H 0.0364 0.73312 0.77148 0.0
H1786 H 0.04601 0.76636 0.76082 0.0
H1787 H 0.01662 0.73782 0.76941 0.0
H1788 H 0.02633 0.77134 0.75922 0.0
H1789 H 0.9683 0.74432 0.76203 0.0
H1790 H 0.95386 0.73398 0.75152 0.0
H1791 H 0.94825 0.76321 0.73089 0.0
H1792 H 0.9624 0.77354 0.74173 0.0
H1793 H 0.96845 0.78809 0.76258 0.0
H1794 H 0.95511 0.79592 0.77572 0.0
H1795 H 0.95094 0.7634 0.79127 0.0
H1796 H 0.96381 0.75563 0.77785 0.0
H1797 H 0.98252 0.75276 0.77577 0.0
H1798 H 1.00223 0.74815 0.77763 0.0
H1799 H 0.00979 0.76862 0.74858 0.0
N1800 N 0.97318 0.76668 0.75991 0.0
H1801 H 0.99003 0.77358 0.74713 0.0
C1802 C 0.0597 0.74104 0.75863 0.0
C1803 C 0.0652 0.73095 0.76046 0.0
C1804 C 0.07193 0.72643 0.75217 0.0
C1805 C 0.07334 0.73196 0.74183 0.0
C1806 C 0.06747 0.7419 0.73984 0.0
C1807 C 0.0607 0.7464 0.74816 0.0
C1808 C 0.06141 0.75333 0.77466 0.0
C1809 C 0.06729 0.76252 0.77002 0.0
C1810 C 0.07545 0.76824 0.77632 0.0
C1811 C 0.07793 0.76487 0.78736 0.0
C1812 C 0.07165 0.756 0.79212 0.0
C1813 C 0.06349 0.7503 0.78582 0.0
C1814 C 0.0427 0.74936 0.76641 0.0
C1815 C 0.03422 0.74146 0.76875 0.0
C1816 C 0.02291 0.74422 0.76766 0.0
C1817 C 0.0198 0.75501 0.76424 0.0
C1818 C 0.02836 0.76291 0.76176 0.0
C1819 C 0.03968 0.7601 0.76277 0.0
C1820 C 0.96634 0.75975 0.75269 0.0
C1821 C 0.96406 0.74844 0.75516 0.0
C1822 C 0.95582 0.74252 0.7491 0.0
C1823 C 0.94975 0.74782 0.74047 0.0
C1824 C 0.95257 0.75894 0.73764 0.0
C1825 C 0.96073 0.76483 0.74372 0.0
C1826 C 0.96727 0.77132 0.76924 0.0
C1827 C 0.96487 0.78274 0.76903 0.0
C1828 C 0.95723 0.78719 0.77656 0.0
C1829 C 0.95182 0.78028 0.78451 0.0
C1830 C 0.95476 0.76895 0.78514 0.0
C1831 C 0.96233 0.7645 0.77755 0.0
C1832 C 0.98477 0.76367 0.76136 0.0
C1833 C 0.98837 0.75636 0.76986 0.0
C1834 C 0.99972 0.75362 0.77084 0.0
C1835 C 0.0077 0.758 0.76326 0.0
C1836 C 0.00399 0.76523 0.75471 0.0
C1837 C 0.99268 0.76803 0.75381 0.0
H1838 H 0.27662 0.05111 0.77034 0.0
N1839 N 0.2548 0.0464 0.76463 0.0
H1840 H 0.28911 0.06447 0.76088 0.0
H1841 H 0.25133 0.05635 0.74504 0.0
H1842 H 0.26396 0.06921 0.73509 0.0
H1843 H 0.23312 0.05116 0.76427 0.0
H1844 H 0.22321 0.06374 0.77676 0.0
H1845 H 0.26329 0.05578 0.78387 0.0
H1846 H 0.25357 0.06836 0.79624 0.0
H1847 H 0.26574 0.03667 0.78244 0.0
H1848 H 0.24945 0.02986 0.75088 0.0
H1849 H 0.26927 0.01683 0.78504 0.0
H1850 H 0.25343 0.01 0.75308 0.0
H1851 H 0.28909 0.95352 0.77981 0.0
H1852 H 0.29935 0.94176 0.76693 0.0
H1853 H 0.27724 0.95178 0.73997 0.0
H1854 H 0.26693 0.96341 0.75303 0.0
H1855 H 0.25291 0.95425 0.76518 0.0
H1856 H 0.24031 0.94031 0.77346 0.0
H1857 H 0.25641 0.94519 0.80561 0.0
H1858 H 0.26912 0.95914 0.79717 0.0
H1859 H 0.28359 0.98202 0.78157 0.0
H1860 H 0.28013 1.00193 0.77883 0.0
H1861 H 0.24837 0.99372 0.76297 0.0
N1862 N 0.27061 0.96482 0.77567 0.0
H1863 H 0.2522 0.97393 0.76524 0.0
C1864 C 0.26297 0.0529 0.75845 0.0
C1865 C 0.27382 0.05503 0.76265 0.0
C1866 C 0.281 0.06261 0.75715 0.0
C1867 C 0.27752 0.0681 0.74727 0.0
C1868 C 0.26685 0.06542 0.74282 0.0
C1869 C 0.25965 0.05797 0.7484 0.0
C1870 C 0.2489 0.05243 0.77312 0.0
C1871 C 0.23754 0.0547 0.77139 0.0
C1872 C 0.23193 0.06198 0.77847 0.0
C1873 C 0.23761 0.06713 0.78747 0.0
C1874 C 0.24889 0.06445 0.78948 0.0
C1875 C 0.25449 0.05721 0.78237 0.0
C1876 C 0.25716 0.03476 0.7665 0.0
C1877 C 0.26292 0.03093 0.77605 0.0
C1878 C 0.26505 0.01952 0.77746 0.0
C1879 C 0.26162 0.01171 0.76929 0.0
C1880 C 0.256 0.01566 0.75968 0.0
C1881 C 0.25378 0.02703 0.75835 0.0
C1882 C 0.2773 0.95934 0.76741 0.0
C1883 C 0.28661 0.95333 0.77107 0.0
C1884 C 0.29247 0.94664 0.76367 0.0
C1885 C 0.28912 0.94579 0.75239 0.0
C1886 C 0.27997 0.95213 0.74863 0.0
C1887 C 0.27411 0.95886 0.75607 0.0
C1888 C 0.26197 0.95781 0.7806 0.0
C1889 C 0.2536 0.95254 0.77405 0.0
C1890 C 0.24636 0.94454 0.77882 0.0
C1891 C 0.24739 0.94158 0.7902 0.0
C1892 C 0.25549 0.94717 0.7968 0.0
C1893 C 0.26269 0.95521 0.79203 0.0
C1894 C 0.26817 0.97646 0.77374 0.0
C1895 C 0.27591 0.98456 0.77747 0.0
C1896 C 0.27385 0.99595 0.77597 0.0
C1897 C 0.26391 0.99953 0.77075 0.0
C1898 C 0.25618 0.99134 0.76691 0.0
C1899 C 0.25832 0.97994 0.7683 0.0
H1900 H 0.96258 0.24412 0.76239 0.0
N1901 N 0.96975 0.26367 0.7719 0.0
H1902 H 0.94991 0.23024 0.77077 0.0
H1903 H 0.96294 0.26282 0.79304 0.0
H1904 H 0.94997 0.24916 0.80146 0.0
H1905 H 0.95769 0.28158 0.77584 0.0
H1906 H 0.94454 0.29074 0.76312 0.0
H1907 H 0.96721 0.25926 0.74962 0.0
H1908 H 0.95372 0.26808 0.73684 0.0
H1909 H 0.98253 0.24514 0.76753 0.0
H1910 H 0.98419 0.28076 0.7726 0.0
H1911 H 1.00288 0.24457 0.76706 0.0
H1912 H 0.00456 0.2804 0.77139 0.0
H1913 H 0.06059 0.2419 0.76375 0.0
H1914 H 0.07297 0.22882 0.7733 0.0
H1915 H 0.0712 0.2486 0.80338 0.0
H1916 H 0.05936 0.26195 0.79346 0.0
H1917 H 0.0668 0.27991 0.77455 0.0
H1918 H 0.08011 0.28801 0.76113 0.0
H1919 H 0.06883 0.26408 0.73639 0.0
H1920 H 0.05571 0.25598 0.74993 0.0
H1921 H 0.04032 0.24809 0.75931 0.0
H1922 H 0.01984 0.24862 0.75793 0.0
H1923 H 0.01977 0.27527 0.78222 0.0
N1924 N 0.0538 0.2619 0.7719 0.0
H1925 H 0.0402 0.27508 0.78289 0.0
C1926 C 0.96376 0.25448 0.77714 0.0
C1927 C 0.96006 0.24514 0.77099 0.0
C1928 C 0.95272 0.23726 0.77578 0.0
C1929 C 0.94879 0.23862 0.78677 0.0
C1930 C 0.95289 0.24775 0.79304 0.0
C1931 C 0.96029 0.25558 0.78825 0.0
C1932 C 0.96333 0.26974 0.76369 0.0
C1933 C 0.95699 0.27876 0.76727 0.0
C1934 C 0.9494 0.28388 0.76001 0.0
C1935 C 0.9479 0.28002 0.749 0.0
C1936 C 0.95467 0.27129 0.74525 0.0
C1937 C 0.96234 0.26619 0.75254 0.0
C1938 C 0.98173 0.26304 0.77028 0.0
C1939 C 0.98721 0.2529 0.76838 0.0
C1940 C 0.99895 0.25259 0.76802 0.0
C1941 C 0.00549 0.26241 0.76936 0.0
C1942 C 0.99991 0.27259 0.77067 0.0
C1943 C 0.98822 0.27286 0.77123 0.0
C1944 C 0.05921 0.25299 0.77789 0.0
C1945 C 0.06278 0.24334 0.77243 0.0
C1946 C 0.06983 0.23582 0.77796 0.0
C1947 C 0.0733 0.23772 0.7891 0.0
C1948 C 0.069 0.247 0.79472 0.0
C1949 C 0.06211 0.25457 0.78914 0.0
C1950 C 0.06026 0.26739 0.76327 0.0
C1951 C 0.06707 0.27659 0.76615 0.0
C1952 C 0.07465 0.2812 0.75846 0.0
C1953 C 0.0756 0.27665 0.74768 0.0
C1954 C 0.06844 0.26768 0.74467 0.0
C1955 C 0.06084 0.26309 0.75238 0.0
C1956 C 0.04176 0.26172 0.77106 0.0
C1957 C 0.03588 0.25415 0.76417 0.0
C1958 C 0.02412 0.25439 0.76351 0.0
C1959 C 0.01804 0.26208 0.76987 0.0
C1960 C 0.02407 0.26945 0.77693 0.0
C1961 C 0.03577 0.2693 0.77743 0.0
H1962 H 0.78872 0.9595 0.75108 0.0
N1963 N 0.76861 0.96732 0.75573 0.0
H1964 H 0.79994 0.94671 0.76244 0.0
H1965 H 0.76444 0.96108 0.77754 0.0
H1966 H 0.77564 0.94858 0.78898 0.0
H1967 H 0.74924 0.9591 0.76516 0.0
H1968 H 0.73615 0.94567 0.75675 0.0
H1969 H 0.76836 0.96029 0.7347 0.0
H1970 H 0.75528 0.94678 0.72617 0.0
H1971 H 0.77678 0.98455 0.7441 0.0
H1972 H 0.75532 0.97637 0.77194 0.0
H1973 H 0.77319 0.00442 0.74674 0.0
H1974 H 0.75222 0.99606 0.7751 0.0
H1975 H 0.7719 0.06066 0.76258 0.0
H1976 H 0.7833 0.07344 0.77382 0.0
H1977 H 0.7656 0.0624 0.8035 0.0
H1978 H 0.75382 0.05005 0.79198 0.0
H1979 H 0.73452 0.05847 0.77337 0.0
H1980 H 0.72489 0.07156 0.76095 0.0
H1981 H 0.74989 0.06636 0.73559 0.0
H1982 H 0.75945 0.05318 0.74815 0.0
H1983 H 0.77306 0.03977 0.76129 0.0
H1984 H 0.77677 0.02006 0.75802 0.0
H1985 H 0.7429 0.01155 0.76809 0.0
N1986 N 0.75374 0.04837 0.76981 0.0
H1987 H 0.73956 0.03121 0.77193 0.0
C1988 C 0.77577 0.96133 0.76339 0.0
C1989 C 0.78596 0.95732 0.75944 0.0
C1990 C 0.79236 0.95002 0.76596 0.0
C1991 C 0.78866 0.94654 0.77661 0.0
C1992 C 0.77866 0.95095 0.78075 0.0
C1993 C 0.77227 0.95824 0.77422 0.0
C1994 C 0.75983 0.96071 0.75054 0.0
C1995 C 0.75055 0.95663 0.75661 0.0
C1996 C 0.74309 0.94887 0.7518 0.0
C1997 C 0.74472 0.94507 0.74082 0.0
C1998 C 0.75372 0.94958 0.7346 0.0
C1999 C 0.7612 0.95729 0.73945 0.0
C2000 C 0.76645 0.97893 0.75784 0.0
C2001 C 0.7714 0.98706 0.75087 0.0
C2002 C 0.76939 0.99843 0.75246 0.0
C2003 C 0.76241 1.00195 0.76116 0.0
C2004 C 0.7575 0.99374 0.76819 0.0
C2005 C 0.75941 0.98237 0.76649 0.0
C2006 C 0.76187 0.0545 0.77645 0.0
C2007 C 0.77053 0.0609 0.77151 0.0
C2008 C 0.77713 0.06818 0.778 0.0
C2009 C 0.7753 0.06912 0.78959 0.0
C2010 C 0.76708 0.06214 0.79457 0.0
C2011 C 0.76042 0.05497 0.78805 0.0
C2012 C 0.74766 0.0549 0.7617 0.0
C2013 C 0.73778 0.06002 0.76505 0.0
C2014 C 0.7323 0.06747 0.75793 0.0
C2015 C 0.73664 0.07003 0.74728 0.0
C2016 C 0.74641 0.06465 0.74379 0.0
C2017 C 0.75184 0.05709 0.75092 0.0
C2018 C 0.75606 0.03693 0.76704 0.0
C2019 C 0.76646 0.03366 0.76284 0.0
C2020 C 0.76853 0.02234 0.76088 0.0
C2021 C 0.76018 0.01409 0.7629 0.0
C2022 C 0.74966 0.01754 0.76672 0.0
C2023 C 0.74767 0.0288 0.76882 0.0
H2024 H 0.25955 0.75278 0.45708 0.0
N2025 N 0.25178 0.77084 0.46845 0.0
H2026 H 0.24867 0.74087 0.44446 0.0
H2027 H 0.2296 0.77004 0.4662 0.0
H2028 H 0.21848 0.75781 0.45392 0.0
H2029 H 0.24742 0.78958 0.45747 0.0
H2030 H 0.25914 0.79912 0.44354 0.0
H2031 H 0.27369 0.76612 0.46398 0.0
H2032 H 0.28541 0.7754 0.44979 0.0
H2033 H 0.2627 0.75279 0.47731 0.0
H2034 H 0.24751 0.78402 0.48557 0.0
H2035 H 0.2663 0.74912 0.49715 0.0
H2036 H 0.25148 0.7807 0.50542 0.0
H2037 H 0.26641 0.7329 0.55366 0.0
H2038 H 0.2539 0.72221 0.56605 0.0
H2039 H 0.23483 0.75199 0.57183 0.0
H2040 H 0.24754 0.7626 0.55975 0.0
H2041 H 0.26117 0.77659 0.55375 0.0
H2042 H 0.26996 0.78881 0.56772 0.0
H2043 H 0.2943 0.76338 0.57506 0.0
H2044 H 0.28518 0.75111 0.56134 0.0
H2045 H 0.27997 0.75028 0.53292 0.0
H2046 H 0.27716 0.75445 0.51301 0.0
H2047 H 0.24546 0.76951 0.52068 0.0
N2048 N 0.26652 0.75479 0.54983 0.0
H2049 H 0.24859 0.76572 0.5405 0.0
C2050 C 0.24537 0.7624 0.46252 0.0
C2051 C 0.25058 0.75384 0.45658 0.0
C2052 C 0.2443 0.74697 0.44937 0.0
C2053 C 0.23268 0.74845 0.44801 0.0
C2054 C 0.22743 0.75659 0.45453 0.0
C2055 C 0.23374 0.7635 0.46165 0.0
C2056 C 0.25964 0.77715 0.46171 0.0
C2057 C 0.2558 0.78661 0.45599 0.0
C2058 C 0.26247 0.79196 0.44795 0.0
C2059 C 0.27315 0.7879 0.44538 0.0
C2060 C 0.27724 0.77875 0.45156 0.0
C2061 C 0.27054 0.77341 0.45966 0.0
C2062 C 0.25471 0.76866 0.47998 0.0
C2063 C 0.26022 0.75891 0.48339 0.0
C2064 C 0.26235 0.75687 0.49477 0.0
C2065 C 0.25912 0.76458 0.50297 0.0
C2066 C 0.25388 0.77445 0.49943 0.0
C2067 C 0.25169 0.77643 0.48808 0.0
C2068 C 0.25794 0.74851 0.55571 0.0
C2069 C 0.25939 0.73704 0.55744 0.0
C2070 C 0.2522 0.73095 0.56451 0.0
C2071 C 0.24338 0.73625 0.57003 0.0
C2072 C 0.24164 0.74767 0.56787 0.0
C2073 C 0.24885 0.75374 0.56082 0.0
C2074 C 0.27251 0.76289 0.55656 0.0
C2075 C 0.26847 0.77371 0.55826 0.0
C2076 C 0.27356 0.78072 0.56624 0.0
C2077 C 0.28277 0.77704 0.57264 0.0
C2078 C 0.28708 0.76641 0.57047 0.0
C2079 C 0.28198 0.75943 0.56255 0.0
C2080 C 0.26451 0.75759 0.53822 0.0
C2081 C 0.27245 0.75452 0.53026 0.0
C2082 C 0.27077 0.75684 0.51888 0.0
C2083 C 0.26105 0.76228 0.51516 0.0
C2084 C 0.25313 0.76545 0.5232 0.0
C2085 C 0.25486 0.76319 0.5346 0.0
H2086 H 0.7776 0.78378 0.56442 0.0
N2087 N 0.77263 0.76525 0.55332 0.0
H2088 H 0.76524 0.79447 0.5764 0.0
H2089 H 0.74989 0.76216 0.55512 0.0
H2090 H 0.73742 0.77278 0.56715 0.0
H2091 H 0.76119 0.74758 0.56291 0.0
H2092 H 0.76858 0.7344 0.57654 0.0
H2093 H 0.79388 0.76314 0.55974 0.0
H2094 H 0.80132 0.75019 0.5738 0.0
H2095 H 0.77881 0.77856 0.53655 0.0
H2096 H 0.76166 0.74733 0.5435 0.0
H2097 H 0.77582 0.77578 0.51649 0.0
H2098 H 0.7592 0.74414 0.52358 0.0
H2099 H 0.76423 0.77403 0.46846 0.0
H2100 H 0.75415 0.78598 0.45521 0.0
H2101 H 0.73238 0.75806 0.44657 0.0
H2102 H 0.74282 0.74613 0.45949 0.0
H2103 H 0.76334 0.73016 0.46536 0.0
H2104 H 0.77637 0.72255 0.45176 0.0
H2105 H 0.79241 0.75506 0.44858 0.0
H2106 H 0.77914 0.76261 0.46176 0.0
H2107 H 0.77902 0.76243 0.48116 0.0
H2108 H 0.78163 0.76551 0.5011 0.0
H2109 H 0.74947 0.74955 0.50748 0.0
N2110 N 0.76117 0.75144 0.47105 0.0
H2111 H 0.74727 0.74594 0.48748 0.0
C2112 C 0.7647 0.77219 0.55893 0.0
C2113 C 0.76878 0.7815 0.56481 0.0
C2114 C 0.7617 0.78759 0.57163 0.0
C2115 C 0.75035 0.78444 0.57277 0.0
C2116 C 0.74615 0.77533 0.56655 0.0
C2117 C 0.75326 0.76928 0.55963 0.0
C2118 C 0.77703 0.75634 0.56018 0.0
C2119 C 0.77002 0.74806 0.56497 0.0
C2120 C 0.77424 0.74059 0.57293 0.0
C2121 C 0.78553 0.74129 0.5764 0.0
C2122 C 0.79262 0.7493 0.57126 0.0
C2123 C 0.78839 0.75673 0.56324 0.0
C2124 C 0.77062 0.76315 0.54158 0.0
C2125 C 0.77449 0.77105 0.53373 0.0
C2126 C 0.77285 0.76938 0.52225 0.0
C2127 C 0.76734 0.75967 0.51831 0.0
C2128 C 0.76335 0.75179 0.52623 0.0
C2129 C 0.76488 0.75355 0.53773 0.0
C2130 C 0.7543 0.75915 0.46485 0.0
C2131 C 0.75721 0.77053 0.46379 0.0
C2132 C 0.75139 0.77737 0.45625 0.0
C2133 C 0.74254 0.77295 0.44968 0.0
C2134 C 0.7393 0.7617 0.45128 0.0
C2135 C 0.74516 0.75488 0.45874 0.0
C2136 C 0.77026 0.7469 0.46468 0.0
C2137 C 0.76984 0.73555 0.4619 0.0
C2138 C 0.77731 0.73123 0.45413 0.0
C2139 C 0.7854 0.73821 0.44896 0.0
C2140 C 0.78617 0.74948 0.45221 0.0
C2141 C 0.77865 0.7538 0.45992 0.0
C2142 C 0.76298 0.75375 0.48278 0.0
C2143 C 0.77256 0.75949 0.4868 0.0
C2144 C 0.77399 0.76137 0.49828 0.0
C2145 C 0.76579 0.75775 0.50602 0.0
C2146 C 0.75611 0.75225 0.50189 0.0
C2147 C 0.75477 0.75025 0.49043 0.0
H2148 H 0.77841 0.25583 0.56091 0.0
N2149 N 0.75968 0.26414 0.55065 0.0
H2150 H 0.79085 0.26583 0.57383 0.0
H2151 H 0.75986 0.28589 0.55498 0.0
H2152 H 0.77209 0.29595 0.56815 0.0
H2153 H 0.74187 0.26738 0.56328 0.0
H2154 H 0.73313 0.25428 0.57646 0.0
H2155 H 0.76462 0.24198 0.55287 0.0
H2156 H 0.75573 0.22861 0.56584 0.0
H2157 H 0.77936 0.25766 0.54074 0.0
H2158 H 0.74465 0.26493 0.5342 0.0
H2159 H 0.78237 0.25477 0.5209 0.0
H2160 H 0.74736 0.2613 0.51434 0.0
H2161 H 0.79091 0.24554 0.45791 0.0
H2162 H 0.80179 0.25749 0.44513 0.0
H2163 H 0.77998 0.28497 0.45228 0.0
H2164 H 0.76945 0.2731 0.46521 0.0
H2165 H 0.75457 0.26095 0.45863 0.0
H2166 H 0.7411 0.25244 0.44573 0.0
H2167 H 0.75598 0.22022 0.45168 0.0
H2168 H 0.76976 0.22899 0.46426 0.0
H2169 H 0.78251 0.24058 0.48574 0.0
H2170 H 0.77942 0.24319 0.50574 0.0
H2171 H 0.75491 0.26839 0.49796 0.0
N2172 N 0.77233 0.25059 0.46871 0.0
H2173 H 0.75751 0.26507 0.47809 0.0
C2174 C 0.76821 0.27016 0.55691 0.0
C2175 C 0.77713 0.26465 0.56223 0.0
C2176 C 0.78418 0.27036 0.56973 0.0
C2177 C 0.78242 0.28169 0.57215 0.0
C2178 C 0.77379 0.28728 0.56642 0.0
C2179 C 0.76678 0.28156 0.5589 0.0
C2180 C 0.75382 0.25566 0.55709 0.0
C2181 C 0.74478 0.25886 0.56367 0.0
C2182 C 0.73979 0.25133 0.57118 0.0
C2183 C 0.74372 0.24035 0.57226 0.0
C2184 C 0.75258 0.23703 0.56535 0.0
C2185 C 0.75761 0.24462 0.55785 0.0
C2186 C 0.76176 0.26172 0.53901 0.0
C2187 C 0.77233 0.25857 0.53508 0.0
C2188 C 0.77402 0.25679 0.52364 0.0
C2189 C 0.76514 0.25785 0.51586 0.0
C2190 C 0.7545 0.26067 0.51993 0.0
C2191 C 0.75289 0.26264 0.53133 0.0
C2192 C 0.77938 0.25835 0.46255 0.0
C2193 C 0.78865 0.25421 0.45688 0.0
C2194 C 0.79477 0.26103 0.44949 0.0
C2195 C 0.79169 0.27218 0.44756 0.0
C2196 C 0.78267 0.27646 0.45362 0.0
C2197 C 0.77657 0.26963 0.46103 0.0
C2198 C 0.76325 0.24559 0.46237 0.0
C2199 C 0.75487 0.25205 0.45728 0.0
C2200 C 0.7471 0.24712 0.44991 0.0
C2201 C 0.74749 0.23563 0.44753 0.0
C2202 C 0.75556 0.22913 0.45309 0.0
C2203 C 0.76337 0.23408 0.46039 0.0
C2204 C 0.7704 0.25271 0.4804 0.0
C2205 C 0.77647 0.24666 0.48841 0.0
C2206 C 0.77474 0.24825 0.49985 0.0
C2207 C 0.76694 0.25608 0.5036 0.0
C2208 C 0.76087 0.26217 0.49549 0.0
C2209 C 0.76249 0.26041 0.48404 0.0
H2210 H 0.28961 0.25734 0.46682 0.0
N2211 N 0.26791 0.25593 0.47147 0.0
H2212 H 0.30016 0.2454 0.45429 0.0
H2213 H 0.26032 0.23625 0.46235 0.0
H2214 H 0.2708 0.22413 0.45006 0.0
H2215 H 0.24692 0.25036 0.46381 0.0
H2216 H 0.23621 0.26064 0.44968 0.0
H2217 H 0.27226 0.27639 0.46389 0.0
H2218 H 0.26139 0.28707 0.45025 0.0
H2219 H 0.27489 0.26833 0.4885 0.0
H2220 H 0.25456 0.23938 0.4805 0.0
H2221 H 0.27077 0.26569 0.50836 0.0
H2222 H 0.25085 0.23624 0.50036 0.0
H2223 H 0.27072 0.25166 0.56335 0.0
H2224 H 0.2832 0.24204 0.57629 0.0
H2225 H 0.26438 0.21131 0.57108 0.0
H2226 H 0.25216 0.22099 0.55778 0.0
H2227 H 0.23455 0.23959 0.56629 0.0
H2228 H 0.22648 0.2529 0.57919 0.0
H2229 H 0.24904 0.27866 0.56661 0.0
H2230 H 0.2573 0.26511 0.55402 0.0
H2231 H 0.27137 0.2515 0.54364 0.0
H2232 H 0.27492 0.2544 0.52384 0.0
H2233 H 0.24125 0.24273 0.51611 0.0
N2234 N 0.25206 0.24272 0.55304 0.0
H2235 H 0.238 0.23928 0.53604 0.0
C2236 C 0.27423 0.2477 0.46558 0.0
C2237 C 0.28556 0.24996 0.46336 0.0
C2238 C 0.29156 0.2431 0.45621 0.0
C2239 C 0.28631 0.23382 0.45109 0.0
C2240 C 0.27506 0.2313 0.45372 0.0
C2241 C 0.26907 0.23818 0.46087 0.0
C2242 C 0.26048 0.26257 0.46474 0.0
C2243 C 0.25007 0.25839 0.46092 0.0
C2244 C 0.24392 0.26434 0.4529 0.0
C2245 C 0.24802 0.27462 0.44864 0.0
C2246 C 0.2581 0.27905 0.45307 0.0
C2247 C 0.26428 0.27305 0.46097 0.0
C2248 C 0.26516 0.25401 0.48305 0.0
C2249 C 0.2696 0.26133 0.49108 0.0
C2250 C 0.2673 0.25974 0.50244 0.0
C2251 C 0.26055 0.25067 0.50607 0.0
C2252 C 0.25599 0.24339 0.49793 0.0
C2253 C 0.2582 0.24509 0.48653 0.0
C2254 C 0.26051 0.237 0.5595 0.0
C2255 C 0.26944 0.2428 0.56475 0.0
C2256 C 0.2765 0.2373 0.57228 0.0
C2257 C 0.27475 0.22591 0.57485 0.0
C2258 C 0.26609 0.22004 0.56924 0.0
C2259 C 0.25906 0.22555 0.56164 0.0
C2260 C 0.24646 0.25132 0.55917 0.0
C2261 C 0.23758 0.24817 0.56619 0.0
C2262 C 0.23297 0.25583 0.57354 0.0
C2263 C 0.23711 0.2669 0.57401 0.0
C2264 C 0.24575 0.27017 0.56662 0.0
C2265 C 0.25041 0.26246 0.5593 0.0
C2266 C 0.25441 0.24499 0.54138 0.0
C2267 C 0.26475 0.24947 0.53775 0.0
C2268 C 0.26674 0.25125 0.52633 0.0
C2269 C 0.25839 0.24879 0.51827 0.0
C2270 C 0.24798 0.24452 0.52199 0.0
C2271 C 0.24606 0.24262 0.53339 0.0
H2272 H 0.77287 0.45619 0.78618 0.0
N2273 N 0.76998 0.46748 0.7672 0.0
H2274 H 0.75973 0.44303 0.7951 0.0
H2275 H 0.74795 0.46393 0.76114 0.0
H2276 H 0.73472 0.45103 0.77007 0.0
H2277 H 0.76226 0.45658 0.74851 0.0
H2278 H 0.77277 0.44338 0.73741 0.0
H2279 H 0.79194 0.46432 0.76789 0.0
H2280 H 0.80272 0.45153 0.75648 0.0
H2281 H 0.77771 0.48463 0.77903 0.0
H2282 H 0.75778 0.47654 0.74993 0.0
H2283 H 0.7745 0.50448 0.77584 0.0
H2284 H 0.75374 0.49626 0.7471 0.0
H2285 H 0.76164 0.55834 0.77371 0.0
H2286 H 0.75136 0.57058 0.78603 0.0
H2287 H 0.72142 0.56523 0.76608 0.0
H2288 H 0.73189 0.55306 0.75363 0.0
H2289 H 0.75112 0.56172 0.73637 0.0
H2290 H 0.76461 0.57517 0.72846 0.0
H2291 H 0.78931 0.56482 0.75289 0.0
H2292 H 0.77568 0.55142 0.76078 0.0
H2293 H 0.75786 0.53807 0.77455 0.0
H2294 H 0.76158 0.51843 0.77727 0.0
H2295 H 0.76044 0.51358 0.74143 0.0
N2296 N 0.75373 0.54883 0.75433 0.0
H2297 H 0.75591 0.53324 0.73884 0.0
C2298 C 0.76145 0.46108 0.77303 0.0
C2299 C 0.76448 0.45523 0.78276 0.0
C2300 C 0.75694 0.44773 0.78785 0.0
C2301 C 0.74617 0.4459 0.78326 0.0
C2302 C 0.743 0.4521 0.77373 0.0
C2303 C 0.75056 0.4596 0.76865 0.0
C2304 C 0.77632 0.46135 0.75915 0.0
C2305 C 0.77112 0.45566 0.7502 0.0
C2306 C 0.77718 0.44811 0.74381 0.0
C2307 C 0.78858 0.4462 0.74615 0.0
C2308 C 0.79389 0.45253 0.75461 0.0
C2309 C 0.7878 0.45996 0.76106 0.0
C2310 C 0.76788 0.4791 0.76486 0.0
C2311 C 0.77252 0.48717 0.77202 0.0
C2312 C 0.77056 0.49853 0.77022 0.0
C2313 C 0.76372 0.50211 0.76127 0.0
C2314 C 0.75915 0.49394 0.75402 0.0
C2315 C 0.76131 0.48257 0.75571 0.0
C2316 C 0.7475 0.55472 0.76272 0.0
C2317 C 0.75283 0.55963 0.77207 0.0
C2318 C 0.74691 0.56662 0.77916 0.0
C2319 C 0.73557 0.56894 0.77703 0.0
C2320 C 0.73018 0.56373 0.76789 0.0
C2321 C 0.7361 0.55669 0.76083 0.0
C2322 C 0.76237 0.5556 0.74913 0.0
C2323 C 0.75951 0.56224 0.73987 0.0
C2324 C 0.76725 0.56989 0.73536 0.0
C2325 C 0.77804 0.57111 0.74006 0.0
C2326 C 0.78102 0.56419 0.74916 0.0
C2327 C 0.77327 0.55648 0.75364 0.0
C2328 C 0.75645 0.53724 0.75641 0.0
C2329 C 0.75832 0.53287 0.76723 0.0
C2330 C 0.76059 0.52152 0.76879 0.0
C2331 C 0.76133 0.51426 0.75958 0.0
C2332 C 0.7597 0.51875 0.74877 0.0
C2333 C 0.75721 0.53004 0.74725 0.0
H2334 H 0.25318 0.55039 0.783 0.0
N2335 N 0.2528 0.54689 0.76108 0.0
H2336 H 0.26575 0.56296 0.79342 0.0
H2337 H 0.2714 0.55768 0.75273 0.0
H2338 H 0.28418 0.57001 0.76306 0.0
H2339 H 0.25692 0.55313 0.73937 0.0
H2340 H 0.24651 0.5671 0.72858 0.0
H2341 H 0.2333 0.55561 0.76629 0.0
H2342 H 0.2226 0.56924 0.75548 0.0
H2343 H 0.24055 0.52932 0.76743 0.0
H2344 H 0.26972 0.53864 0.74827 0.0
H2345 H 0.24393 0.5096 0.76376 0.0
H2346 H 0.27352 0.51898 0.74496 0.0
H2347 H 0.26133 0.456 0.76655 0.0
H2348 H 0.27193 0.44387 0.779 0.0
H2349 H 0.30163 0.45006 0.75923 0.0
H2350 H 0.29097 0.46252 0.74697 0.0
H2351 H 0.27192 0.45345 0.72947 0.0
H2352 H 0.25889 0.43946 0.72176 0.0
H2353 H 0.2339 0.44919 0.74565 0.0
H2354 H 0.24706 0.46304 0.75339 0.0
H2355 H 0.25988 0.47544 0.76611 0.0
H2356 H 0.25602 0.49508 0.76894 0.0
H2357 H 0.26765 0.5026 0.73547 0.0
N2358 N 0.26904 0.46609 0.74731 0.0
H2359 H 0.27197 0.48287 0.73292 0.0
C2360 C 0.26135 0.55304 0.76714 0.0
C2361 C 0.26007 0.5545 0.77867 0.0
C2362 C 0.26729 0.56167 0.7846 0.0
C2363 C 0.27596 0.56757 0.77907 0.0
C2364 C 0.27749 0.56574 0.76756 0.0
C2365 C 0.27025 0.55857 0.76164 0.0
C2366 C 0.2459 0.55343 0.75369 0.0
C2367 C 0.24936 0.55652 0.74286 0.0
C2368 C 0.24337 0.56448 0.73668 0.0
C2369 C 0.23382 0.56945 0.74124 0.0
C2370 C 0.23006 0.5658 0.75181 0.0
C2371 C 0.23607 0.55792 0.75796 0.0
C2372 C 0.25489 0.53544 0.75823 0.0
C2373 C 0.2477 0.52708 0.76245 0.0
C2374 C 0.24973 0.5158 0.76042 0.0
C2375 C 0.25909 0.51261 0.75416 0.0
C2376 C 0.26618 0.52107 0.74973 0.0
C2377 C 0.26407 0.53237 0.75169 0.0
C2378 C 0.27539 0.46027 0.75581 0.0
C2379 C 0.27018 0.45502 0.76504 0.0
C2380 C 0.27624 0.44793 0.7721 0.0
C2381 C 0.28762 0.44586 0.77007 0.0
C2382 C 0.29292 0.45152 0.76113 0.0
C2383 C 0.28685 0.45865 0.7541 0.0
C2384 C 0.2605 0.45928 0.74196 0.0
C2385 C 0.26354 0.4527 0.73287 0.0
C2386 C 0.25607 0.44473 0.72847 0.0
C2387 C 0.24535 0.44314 0.73313 0.0
C2388 C 0.24214 0.45008 0.74198 0.0
C2389 C 0.24963 0.45808 0.74635 0.0
C2390 C 0.26638 0.47764 0.7493 0.0
C2391 C 0.26169 0.48126 0.75939 0.0
C2392 C 0.25936 0.49257 0.76095 0.0
C2393 C 0.26152 0.50052 0.75244 0.0
C2394 C 0.26606 0.49681 0.7423 0.0
C2395 C 0.26846 0.48552 0.74079 0.0
H2396 H 0.26848 0.55036 0.26742 0.0
N2397 N 0.24628 0.54754 0.26194 0.0
H2398 H 0.28174 0.56338 0.25848 0.0
H2399 H 0.2431 0.55924 0.24329 0.0
H2400 H 0.25637 0.572 0.23402 0.0
H2401 H 0.22452 0.55196 0.26206 0.0
H2402 H 0.21479 0.56481 0.27441 0.0
H2403 H 0.25515 0.55755 0.28069 0.0
H2404 H 0.2456 0.57043 0.29291 0.0
H2405 H 0.25591 0.5379 0.2806 0.0
H2406 H 0.24205 0.53088 0.24795 0.0
H2407 H 0.2594 0.51812 0.28353 0.0
H2408 H 0.246 0.51106 0.25055 0.0
H2409 H 0.28158 0.45651 0.27895 0.0
H2410 H 0.29263 0.44487 0.26659 0.0
H2411 H 0.26945 0.45152 0.23948 0.0
H2412 H 0.25848 0.46322 0.25195 0.0
H2413 H 0.24449 0.45543 0.2642 0.0
H2414 H 0.2321 0.44146 0.27273 0.0
H2415 H 0.24859 0.44664 0.30463 0.0
H2416 H 0.2611 0.46062 0.29594 0.0
H2417 H 0.27455 0.48357 0.28109 0.0
H2418 H 0.27096 0.50341 0.27806 0.0
H2419 H 0.2404 0.4947 0.26022 0.0
N2420 N 0.26225 0.46618 0.2744 0.0
H2421 H 0.24438 0.47496 0.26285 0.0
C2422 C 0.25476 0.5539 0.25603 0.0
C2423 C 0.26582 0.55497 0.26008 0.0
C2424 C 0.27341 0.5624 0.25491 0.0
C2425 C 0.2701 0.56885 0.24559 0.0
C2426 C 0.25916 0.56735 0.24131 0.0
C2427 C 0.25159 0.55999 0.2465 0.0
C2428 C 0.24052 0.55371 0.27043 0.0
C2429 C 0.22908 0.55578 0.26895 0.0
C2430 C 0.22358 0.56321 0.27594 0.0
C2431 C 0.22943 0.56874 0.2846 0.0
C2432 C 0.24079 0.56625 0.28641 0.0
C2433 C 0.24629 0.55884 0.27939 0.0
C2434 C 0.24856 0.5359 0.26406 0.0
C2435 C 0.25362 0.53213 0.27403 0.0
C2436 C 0.25573 0.52075 0.27565 0.0
C2437 C 0.25298 0.51289 0.26729 0.0
C2438 C 0.24804 0.51676 0.25729 0.0
C2439 C 0.24584 0.52811 0.25573 0.0
C2440 C 0.26924 0.46069 0.26641 0.0
C2441 C 0.27903 0.45562 0.27028 0.0
C2442 C 0.28532 0.44899 0.26319 0.0
C2443 C 0.28189 0.44723 0.25204 0.0
C2444 C 0.27224 0.45261 0.24805 0.0
C2445 C 0.26599 0.45934 0.25516 0.0
C2446 C 0.25373 0.45914 0.27947 0.0
C2447 C 0.24531 0.45379 0.27307 0.0
C2448 C 0.2382 0.44576 0.27798 0.0
C2449 C 0.23939 0.44287 0.28936 0.0
C2450 C 0.24754 0.44856 0.29582 0.0
C2451 C 0.25462 0.45661 0.29091 0.0
C2452 C 0.25973 0.47776 0.27231 0.0
C2453 C 0.2671 0.48599 0.2765 0.0
C2454 C 0.26496 0.49733 0.27483 0.0
C2455 C 0.25532 0.50075 0.26896 0.0
C2456 C 0.24798 0.49245 0.26467 0.0
C2457 C 0.25019 0.48108 0.26626 0.0
H2458 H 0.79648 0.45487 0.24826 0.0
N2459 N 0.77871 0.46664 0.25357 0.0
H2460 H 0.80739 0.44269 0.2605 0.0
H2461 H 0.77658 0.4649 0.27625 0.0
H2462 H 0.78754 0.45276 0.28872 0.0
H2463 H 0.76034 0.45891 0.26494 0.0
H2464 H 0.74609 0.4458 0.25791 0.0
H2465 H 0.77613 0.45968 0.23263 0.0
H2466 H 0.76211 0.4463 0.22555 0.0
H2467 H 0.79379 0.48142 0.2463 0.0
H2468 H 0.76216 0.47885 0.26337 0.0
H2469 H 0.79312 0.50174 0.24714 0.0
H2470 H 0.76102 0.49921 0.26369 0.0
H2471 H 0.79711 0.55921 0.2549 0.0
H2472 H 0.80505 0.57237 0.26851 0.0
H2473 H 0.77519 0.56852 0.28859 0.0
H2474 H 0.76725 0.55571 0.27476 0.0
H2475 H 0.75431 0.55217 0.25963 0.0
H2476 H 0.74118 0.56522 0.25089 0.0
H2477 H 0.76664 0.57495 0.22696 0.0
H2478 H 0.77975 0.56225 0.23608 0.0
H2479 H 0.78418 0.53713 0.23898 0.0
H2480 H 0.78416 0.51676 0.23887 0.0
H2481 H 0.7679 0.5162 0.27113 0.0
N2482 N 0.77649 0.55044 0.25467 0.0
H2483 H 0.76738 0.53661 0.27077 0.0
C2484 C 0.78578 0.46075 0.26135 0.0
C2485 C 0.79464 0.45458 0.25713 0.0
C2486 C 0.80087 0.44765 0.26416 0.0
C2487 C 0.79835 0.44672 0.27562 0.0
C2488 C 0.78962 0.45318 0.27992 0.0
C2489 C 0.7834 0.46017 0.27284 0.0
C2490 C 0.76926 0.46034 0.24925 0.0
C2491 C 0.76061 0.45642 0.25626 0.0
C2492 C 0.75254 0.44881 0.25225 0.0
C2493 C 0.75299 0.44488 0.24118 0.0
C2494 C 0.76139 0.44921 0.23408 0.0
C2495 C 0.76943 0.45685 0.23809 0.0
C2496 C 0.778 0.4786 0.2546 0.0
C2497 C 0.78665 0.48528 0.25016 0.0
C2498 C 0.78617 0.49692 0.25056 0.0
C2499 C 0.7769 0.50224 0.25529 0.0
C2500 C 0.76832 0.49548 0.26001 0.0
C2501 C 0.76891 0.48378 0.25975 0.0
C2502 C 0.78166 0.55641 0.26383 0.0
C2503 C 0.79243 0.56102 0.26239 0.0
C2504 C 0.79694 0.56854 0.27019 0.0
C2505 C 0.79073 0.57161 0.27963 0.0
C2506 C 0.78014 0.56651 0.28133 0.0
C2507 C 0.77563 0.55903 0.27349 0.0
C2508 C 0.76802 0.55637 0.24853 0.0
C2509 C 0.75698 0.55704 0.25243 0.0
C2510 C 0.74948 0.56447 0.24737 0.0
C2511 C 0.7529 0.5713 0.23832 0.0
C2512 C 0.76378 0.57005 0.23407 0.0
C2513 C 0.77125 0.5627 0.23917 0.0
C2514 C 0.77596 0.53841 0.25492 0.0
C2515 C 0.78056 0.53258 0.24599 0.0
C2516 C 0.78063 0.52091 0.24602 0.0
C2517 C 0.77622 0.51472 0.2551 0.0
C2518 C 0.77134 0.52061 0.26396 0.0
C2519 C 0.77113 0.53234 0.26383 0.0
H2520 H 0.5635 0.28659 0.74802 0.0
N2521 N 0.55507 0.26591 0.74769 0.0
H2522 H 0.57599 0.29482 0.76218 0.0
H2523 H 0.56041 0.25655 0.76791 0.0
H2524 H 0.57254 0.26477 0.78227 0.0
H2525 H 0.55789 0.24385 0.75267 0.0
H2526 H 0.57065 0.23116 0.74318 0.0
H2527 H 0.5661 0.26983 0.72885 0.0
H2528 H 0.57876 0.25728 0.71925 0.0
H2529 H 0.54149 0.27508 0.73274 0.0
H2530 H 0.54149 0.25505 0.76282 0.0
H2531 H 0.52104 0.27498 0.73265 0.0
H2532 H 0.52101 0.25541 0.76325 0.0
H2533 H 0.45822 0.28529 0.74358 0.0
H2534 H 0.44595 0.29396 0.7572 0.0
H2535 H 0.45794 0.27128 0.78276 0.0
H2536 H 0.47019 0.26263 0.76896 0.0
H2537 H 0.46336 0.24815 0.75623 0.0
H2538 H 0.4508 0.23435 0.74757 0.0
H2539 H 0.45178 0.25324 0.71659 0.0
H2540 H 0.46454 0.26689 0.72532 0.0
H2541 H 0.48565 0.28354 0.74103 0.0
H2542 H 0.50606 0.28293 0.74184 0.0
H2543 H 0.50393 0.24924 0.7551 0.0
N2544 N 0.47101 0.26763 0.74662 0.0
H2545 H 0.48349 0.25025 0.75485 0.0
C2546 C 0.56098 0.27103 0.75692 0.0
C2547 C 0.5653 0.2819 0.7556 0.0
C2548 C 0.57241 0.28658 0.76372 0.0
C2549 C 0.57535 0.28044 0.77336 0.0
C2550 C 0.57061 0.26968 0.77487 0.0
C2551 C 0.56354 0.265 0.76671 0.0
C2552 C 0.56113 0.25779 0.74144 0.0
C2553 C 0.56234 0.24676 0.74531 0.0
C2554 C 0.56966 0.23955 0.73991 0.0
C2555 C 0.57576 0.24322 0.73048 0.0
C2556 C 0.57411 0.25413 0.72639 0.0
C2557 C 0.5669 0.26132 0.73186 0.0
C2558 C 0.54302 0.26524 0.74783 0.0
C2559 C 0.53703 0.27072 0.73937 0.0
C2560 C 0.52532 0.27074 0.73943 0.0
C2561 C 0.51927 0.26536 0.74807 0.0
C2562 C 0.52532 0.25961 0.75643 0.0
C2563 C 0.53708 0.25948 0.75627 0.0
C2564 C 0.46506 0.27336 0.75525 0.0
C2565 C 0.45833 0.28235 0.75217 0.0
C2566 C 0.45135 0.2873 0.75998 0.0
C2567 C 0.45093 0.2833 0.77108 0.0
C2568 C 0.45797 0.27447 0.77425 0.0
C2569 C 0.46501 0.26956 0.7664 0.0
C2570 C 0.46491 0.25856 0.74137 0.0
C2571 C 0.46107 0.24921 0.74752 0.0
C2572 C 0.45379 0.24136 0.74257 0.0
C2573 C 0.45019 0.24272 0.7314 0.0
C2574 C 0.45446 0.25185 0.72516 0.0
C2575 C 0.46173 0.25967 0.73012 0.0
C2576 C 0.48302 0.26694 0.7477 0.0
C2577 C 0.48961 0.27607 0.74418 0.0
C2578 C 0.5013 0.27563 0.74455 0.0
C2579 C 0.50675 0.26594 0.74833 0.0
C2580 C 0.50009 0.25686 0.75217 0.0
C2581 C 0.48835 0.25738 0.75194 0.0
H2582 H 0.45854 0.73006 0.74524 0.0
N2583 N 0.46979 0.74877 0.7498 0.0
H2584 H 0.44639 0.71914 0.75776 0.0
H2585 H 0.46744 0.75211 0.77233 0.0
H2586 H 0.45527 0.74125 0.78497 0.0
H2587 H 0.4596 0.76624 0.76017 0.0
H2588 H 0.44629 0.77903 0.75164 0.0
H2589 H 0.46478 0.75083 0.72818 0.0
H2590 H 0.45128 0.76352 0.71955 0.0
H2591 H 0.48655 0.73574 0.74417 0.0
H2592 H 0.47953 0.76669 0.76068 0.0
H2593 H 0.5066 0.73868 0.74767 0.0
H2594 H 0.49952 0.77002 0.76373 0.0
H2595 H 0.55482 0.74083 0.75903 0.0
H2596 H 0.56796 0.72839 0.76853 0.0
H2597 H 0.57632 0.75463 0.79197 0.0
H2598 H 0.56347 0.76709 0.78214 0.0
H2599 H 0.55706 0.78475 0.76251 0.0
H2600 H 0.5701 0.79428 0.7497 0.0
H2601 H 0.57497 0.76319 0.7324 0.0
H2602 H 0.56192 0.75382 0.7451 0.0
H2603 H 0.5423 0.75246 0.74537 0.0
H2604 H 0.52233 0.74932 0.74216 0.0
H2605 H 0.51526 0.76435 0.77409 0.0
N2606 N 0.55206 0.76304 0.76346 0.0
H2607 H 0.53531 0.76797 0.77693 0.0
C2608 C 0.46386 0.74187 0.75782 0.0
C2609 C 0.458 0.73241 0.75396 0.0
C2610 C 0.45109 0.72618 0.76114 0.0
C2611 C 0.44983 0.72934 0.77237 0.0
C2612 C 0.45597 0.73867 0.77633 0.0
C2613 C 0.46297 0.74486 0.76913 0.0
C2614 C 0.46323 0.75754 0.74479 0.0
C2615 C 0.45804 0.76571 0.75127 0.0
C2616 C 0.45032 0.77298 0.74639 0.0
C2617 C 0.44762 0.77224 0.73493 0.0
C2618 C 0.45323 0.76441 0.72837 0.0
C2619 C 0.46094 0.75713 0.73328 0.0
C2620 C 0.48153 0.751 0.75203 0.0
C2621 C 0.48937 0.74323 0.74846 0.0
C2622 C 0.50084 0.74499 0.7504 0.0
C2623 C 0.50478 0.75465 0.75592 0.0
C2624 C 0.49686 0.76241 0.75957 0.0
C2625 C 0.48536 0.76057 0.75773 0.0
C2626 C 0.55825 0.75493 0.76986 0.0
C2627 C 0.55939 0.74385 0.76629 0.0
C2628 C 0.56688 0.73672 0.77177 0.0
C2629 C 0.57334 0.74055 0.78094 0.0
C2630 C 0.5717 0.75147 0.7848 0.0
C2631 C 0.56427 0.75857 0.77929 0.0
C2632 C 0.55843 0.76862 0.75477 0.0
C2633 C 0.56077 0.78007 0.75579 0.0
C2634 C 0.5683 0.78547 0.74854 0.0
C2635 C 0.57365 0.77948 0.74006 0.0
C2636 C 0.57092 0.76808 0.73874 0.0
C2637 C 0.56342 0.7627 0.74603 0.0
C2638 C 0.54033 0.76062 0.76137 0.0
C2639 C 0.5365 0.75516 0.75166 0.0
C2640 C 0.525 0.75326 0.74988 0.0
C2641 C 0.51707 0.75661 0.75784 0.0
C2642 C 0.52102 0.76186 0.76764 0.0
C2643 C 0.53249 0.76386 0.76934 0.0
H2644 H 0.56561 0.76098 0.26339 0.0
N2645 N 0.55367 0.74255 0.27066 0.0
H2646 H 0.57804 0.7727 0.27467 0.0
H2647 H 0.55565 0.74245 0.29285 0.0
H2648 H 0.5677 0.75453 0.30439 0.0
H2649 H 0.56609 0.72456 0.27336 0.0
H2650 H 0.5795 0.7169 0.26021 0.0
H2651 H 0.55628 0.74907 0.24876 0.0
H2652 H 0.56955 0.74137 0.23545 0.0
H2653 H 0.54493 0.76185 0.26187 0.0
H2654 H 0.53634 0.72864 0.27345 0.0
H2655 H 0.52514 0.76569 0.25877 0.0
H2656 H 0.5165 0.73219 0.2699 0.0
H2657 H 0.46757 0.78067 0.25892 0.0
H2658 H 0.45441 0.78934 0.27171 0.0
H2659 H 0.44993 0.75767 0.28889 0.0
H2660 H 0.46266 0.74907 0.27584 0.0
H2661 H 0.46758 0.73689 0.26093 0.0
H2662 H 0.45358 0.72573 0.25069 0.0
H2663 H 0.44831 0.75353 0.22805 0.0
H2664 H 0.46199 0.76471 0.23864 0.0
H2665 H 0.48942 0.76592 0.24497 0.0
H2666 H 0.50929 0.76172 0.24741 0.0
H2667 H 0.50125 0.7422 0.27698 0.0
N2668 N 0.47233 0.75913 0.2575 0.0
H2669 H 0.48146 0.74604 0.27415 0.0
C2670 C 0.55979 0.75069 0.27728 0.0
C2671 C 0.56593 0.75955 0.27233 0.0
C2672 C 0.57301 0.76634 0.27884 0.0
C2673 C 0.57402 0.76451 0.29046 0.0
C2674 C 0.56736 0.75603 0.29544 0.0
C2675 C 0.56037 0.74919 0.2889 0.0
C2676 C 0.56018 0.73734 0.26207 0.0
C2677 C 0.56666 0.72811 0.26501 0.0
C2678 C 0.5743 0.72374 0.25747 0.0
C2679 C 0.57566 0.72855 0.24677 0.0
C2680 C 0.56883 0.73756 0.24367 0.0
C2681 C 0.56116 0.74192 0.25124 0.0
C2682 C 0.54212 0.74495 0.26804 0.0
C2683 C 0.5388 0.75534 0.26367 0.0
C2684 C 0.52742 0.75749 0.26181 0.0
C2685 C 0.51913 0.74928 0.26414 0.0
C2686 C 0.52257 0.73881 0.26823 0.0
C2687 C 0.53392 0.73671 0.27017 0.0
C2688 C 0.46622 0.76427 0.26642 0.0
C2689 C 0.46393 0.77569 0.26561 0.0
C2690 C 0.4564 0.78062 0.27295 0.0
C2691 C 0.451 0.77419 0.2813 0.0
C2692 C 0.45376 0.76285 0.28244 0.0
C2693 C 0.46122 0.75793 0.27506 0.0
C2694 C 0.46573 0.75169 0.25058 0.0
C2695 C 0.4635 0.74052 0.2537 0.0
C2696 C 0.45552 0.73413 0.24778 0.0
C2697 C 0.44966 0.73879 0.23865 0.0
C2698 C 0.45245 0.74975 0.2352 0.0
C2699 C 0.46035 0.75612 0.24114 0.0
C2700 C 0.48394 0.75642 0.25939 0.0
C2701 C 0.49199 0.76072 0.25196 0.0
C2702 C 0.50336 0.75836 0.25343 0.0
C2703 C 0.50696 0.75165 0.26244 0.0
C2704 C 0.49882 0.74728 0.26986 0.0
C2705 C 0.48744 0.74957 0.26832 0.0
H2706 H 0.56113 0.27036 0.29388 0.0
N2707 N 0.55312 0.27115 0.27309 0.0
H2708 H 0.57359 0.25633 0.30192 0.0
H2709 H 0.55804 0.2511 0.26368 0.0
H2710 H 0.57016 0.23688 0.2717 0.0
H2711 H 0.5555 0.26644 0.25093 0.0
H2712 H 0.56938 0.27498 0.23831 0.0
H2713 H 0.56549 0.28935 0.27689 0.0
H2714 H 0.57904 0.29828 0.26427 0.0
H2715 H 0.53988 0.2865 0.28137 0.0
H2716 H 0.53922 0.25599 0.26251 0.0
H2717 H 0.51945 0.28704 0.28068 0.0
H2718 H 0.51871 0.25604 0.26228 0.0
H2719 H 0.45727 0.27519 0.29168 0.0
H2720 H 0.44482 0.26126 0.30038 0.0
H2721 H 0.45414 0.23729 0.27534 0.0
H2722 H 0.46692 0.25125 0.267 0.0
H2723 H 0.46169 0.26494 0.25299 0.0
H2724 H 0.44861 0.27401 0.24017 0.0
H2725 H 0.44944 0.30345 0.26091 0.0
H2726 H 0.46237 0.29414 0.27384 0.0
H2727 H 0.48345 0.27917 0.28895 0.0
H2728 H 0.50385 0.27824 0.28868 0.0
H2729 H 0.50218 0.2645 0.25531 0.0
N2730 N 0.46904 0.27311 0.2731 0.0
H2731 H 0.48168 0.26494 0.25598 0.0
C2732 C 0.55859 0.26177 0.27825 0.0
C2733 C 0.56287 0.26292 0.28913 0.0
C2734 C 0.56999 0.25488 0.2937 0.0
C2735 C 0.57298 0.2455 0.28742 0.0
C2736 C 0.56819 0.24409 0.2767 0.0
C2737 C 0.56111 0.25216 0.27214 0.0
C2738 C 0.55959 0.27722 0.26487 0.0
C2739 C 0.56053 0.27346 0.25382 0.0
C2740 C 0.56844 0.27841 0.2466 0.0
C2741 C 0.57548 0.28721 0.25033 0.0
C2742 C 0.57397 0.29135 0.2612 0.0
C2743 C 0.56615 0.28636 0.26839 0.0
C2744 C 0.54107 0.27116 0.27217 0.0
C2745 C 0.53528 0.27987 0.27715 0.0
C2746 C 0.52358 0.28008 0.27682 0.0
C2747 C 0.51732 0.27147 0.2716 0.0
C2748 C 0.52319 0.26285 0.26634 0.0
C2749 C 0.53496 0.26273 0.26656 0.0
C2750 C 0.46292 0.26427 0.27871 0.0
C2751 C 0.45674 0.26686 0.28822 0.0
C2752 C 0.44955 0.25892 0.29309 0.0
C2753 C 0.44831 0.24819 0.28846 0.0
C2754 C 0.45491 0.24545 0.27916 0.0
C2755 C 0.46217 0.25342 0.27433 0.0
C2756 C 0.46302 0.2789 0.26439 0.0
C2757 C 0.45927 0.27343 0.25466 0.0
C2758 C 0.45177 0.27865 0.24731 0.0
C2759 C 0.44786 0.28943 0.24956 0.0
C2760 C 0.45211 0.29507 0.25902 0.0
C2761 C 0.45959 0.28984 0.26635 0.0
C2762 C 0.48105 0.27229 0.27247 0.0
C2763 C 0.48751 0.27594 0.2816 0.0
C2764 C 0.4992 0.27549 0.28136 0.0
C2765 C 0.50477 0.27147 0.27189 0.0
C2766 C 0.49823 0.2676 0.26278 0.0
C2767 C 0.48648 0.26794 0.2631 0.0
H2768 H 0.21605 0.21727 0.13112 0.0
H2769 H 0.24667 0.21538 0.07167 0.0
H2770 H 0.2221 0.18683 0.11317 0.0
H2771 H 0.24118 0.24579 0.08988 0.0
H2772 H 0.23659 0.20491 0.0862 0.0
H2773 H 0.22399 0.22798 0.11548 0.0
C2774 C 0.21894 0.21283 0.12385 0.0
C2775 C 0.21845 0.2011 0.12351 0.0
C2776 C 0.23752 0.21389 0.08699 0.0
C2777 C 0.22769 0.21334 0.10559 0.0
C2778 C 0.24332 0.21987 0.0787 0.0
C2779 C 0.24484 0.2315 0.07956 0.0
C2780 C 0.23323 0.21954 0.09625 0.0
C2781 C 0.24013 0.23687 0.08879 0.0
C2782 C 0.22354 0.21896 0.11494 0.0
C2783 C 0.22247 0.19583 0.11391 0.0
N2784 N 0.23462 0.23084 0.0968 0.0
N2785 N 0.22695 0.20197 0.10537 0.0
H2786 H 0.78925 0.19131 0.12385 0.0
H2787 H 0.80403 0.2394 0.07919 0.0
H2788 H 0.82057 0.20998 0.12384 0.0
H2789 H 0.77034 0.22702 0.08507 0.0
H2790 H 0.81085 0.22686 0.09385 0.0
H2791 H 0.78281 0.20262 0.10805 0.0
C2792 C 0.79478 0.1978 0.12057 0.0
C2793 C 0.80547 0.19971 0.12529 0.0
C2794 C 0.80197 0.22686 0.0919 0.0
C2795 C 0.79818 0.21257 0.107 0.0
C2796 C 0.79805 0.23406 0.08354 0.0
C2797 C 0.78656 0.23438 0.08091 0.0
C2798 C 0.79438 0.21985 0.09765 0.0
C2799 C 0.77928 0.22702 0.08669 0.0
C2800 C 0.7911 0.20421 0.11149 0.0
C2801 C 0.81232 0.20808 0.12045 0.0
N2802 N 0.78331 0.22011 0.0948 0.0
N2803 N 0.80855 0.2142 0.1116 0.0
H2804 H 0.80294 0.83556 0.11379 0.0
H2805 H 0.7838 0.77555 0.09061 0.0
H2806 H 0.80818 0.80461 0.13169 0.0
H2807 H 0.77988 0.80623 0.07186 0.0
H2808 H 0.79341 0.786 0.10537 0.0
H2809 H 0.79492 0.82497 0.09815 0.0
C2810 C 0.80239 0.82653 0.11445 0.0
C2811 C 0.8062 0.82098 0.12412 0.0
C2812 C 0.79051 0.79045 0.098 0.0
C2813 C 0.79709 0.80878 0.10617 0.0
C2814 C 0.78508 0.78447 0.0895 0.0
C2815 C 0.78101 0.78999 0.07992 0.0
C2816 C 0.79186 0.80209 0.097 0.0
C2817 C 0.78273 0.80162 0.07914 0.0
C2818 C 0.79787 0.82049 0.10548 0.0
C2819 C 0.80546 0.80926 0.12439 0.0
N2820 N 0.78799 0.80727 0.08757 0.0
N2821 N 0.80094 0.80357 0.11558 0.0
H2822 H 0.20742 0.80422 0.12215 0.0
H2823 H 0.2641 0.78926 0.09032 0.0
H2824 H 0.24052 0.81498 0.13274 0.0
H2825 H 0.23158 0.77657 0.07998 0.0
H2826 H 0.25532 0.79901 0.10566 0.0
H2827 H 0.21584 0.79406 0.10666 0.0
C2828 C 0.21645 0.8044 0.12128 0.0
C2829 C 0.22325 0.81054 0.12875 0.0
C2830 C 0.25007 0.79413 0.10004 0.0
C2831 C 0.23293 0.79902 0.11096 0.0
C2832 C 0.25508 0.78862 0.09119 0.0
C2833 C 0.24857 0.78215 0.08374 0.0
C2834 C 0.23842 0.79321 0.10155 0.0
C2835 C 0.23694 0.78142 0.08553 0.0
C2836 C 0.22124 0.79864 0.11239 0.0
C2837 C 0.2349 0.81055 0.1271 0.0
N2838 N 0.23223 0.7869 0.09423 0.0
N2839 N 0.23934 0.80492 0.1184 0.0
H2840 H 0.20411 0.79945 0.90094 0.0
H2841 H 0.25809 0.78051 0.93614 0.0
H2842 H 0.23797 0.81001 0.89316 0.0
H2843 H 0.22451 0.76835 0.9428 0.0
H2844 H 0.25071 0.79228 0.92111 0.0
H2845 H 0.21129 0.78865 0.9168 0.0
C2846 C 0.21306 0.79947 0.90252 0.0
C2847 C 0.22043 0.80565 0.89566 0.0
C2848 C 0.24494 0.78708 0.92589 0.0
C2849 C 0.22872 0.79339 0.91394 0.0
C2850 C 0.24914 0.78041 0.93454 0.0
C2851 C 0.24192 0.7734 0.94076 0.0
C2852 C 0.23341 0.78677 0.9234 0.0
C2853 C 0.23041 0.77351 0.93815 0.0
C2854 C 0.21715 0.79335 0.91164 0.0
C2855 C 0.23194 0.8055 0.89828 0.0
N2856 N 0.22652 0.78005 0.92967 0.0
N2857 N 0.23571 0.79946 0.90718 0.0
H2858 H 0.20133 0.22725 0.89459 0.0
H2859 H 0.24583 0.21642 0.94388 0.0
H2860 H 0.21323 0.19452 0.90361 0.0
H2861 H 0.23306 0.24894 0.93538 0.0
H2862 H 0.23358 0.20815 0.92957 0.0
H2863 H 0.21248 0.23523 0.90986 0.0
C2864 C 0.20622 0.22171 0.89983 0.0
C2865 C 0.2063 0.21017 0.89778 0.0
C2866 C 0.23341 0.21709 0.93087 0.0
C2867 C 0.21926 0.21931 0.91527 0.0
C2868 C 0.24043 0.22183 0.93903 0.0
C2869 C 0.24052 0.23341 0.94083 0.0
C2870 C 0.22643 0.22398 0.92441 0.0
C2871 C 0.23321 0.23996 0.93438 0.0
C2872 C 0.21264 0.22629 0.90852 0.0
C2873 C 0.213 0.20347 0.90475 0.0
N2874 N 0.22652 0.23517 0.92643 0.0
N2875 N 0.2192 0.20813 0.91316 0.0
H2876 H 0.82918 0.22353 0.90164 0.0
H2877 H 0.77271 0.21881 0.93693 0.0
H2878 H 0.80575 0.19574 0.89904 0.0
H2879 H 0.79963 0.24204 0.94497 0.0
H2880 H 0.78446 0.21061 0.92268 0.0
H2881 H 0.81826 0.23081 0.9171 0.0
C2882 C 0.82181 0.21888 0.90436 0.0
C2883 C 0.81841 0.20898 0.89896 0.0
C2884 C 0.78783 0.21746 0.9276 0.0
C2885 C 0.80572 0.21744 0.91659 0.0
C2886 C 0.78114 0.22212 0.93583 0.0
C2887 C 0.78515 0.23116 0.94225 0.0
C2888 C 0.7986 0.2219 0.92563 0.0
C2889 C 0.79609 0.23521 0.94016 0.0
C2890 C 0.81554 0.2231 0.91317 0.0
C2891 C 0.80862 0.20349 0.90277 0.0
N2892 N 0.8024 0.23059 0.93201 0.0
N2893 N 0.80262 0.20782 0.9113 0.0
H2894 H 0.7957 0.82621 0.8974 0.0
H2895 H 0.79849 0.76995 0.93356 0.0
H2896 H 0.82244 0.80253 0.89464 0.0
H2897 H 0.77659 0.79708 0.94157 0.0
H2898 H 0.80695 0.7815 0.9189 0.0
H2899 H 0.78814 0.8154 0.91312 0.0
C2900 C 0.80006 0.8188 0.90013 0.0
C2901 C 0.80976 0.81532 0.89462 0.0
C2902 C 0.80034 0.78495 0.9239 0.0
C2903 C 0.80097 0.80275 0.91256 0.0
C2904 C 0.79553 0.77838 0.93237 0.0
C2905 C 0.78678 0.78251 0.9389 0.0
C2906 C 0.79633 0.79574 0.92182 0.0
C2907 C 0.78318 0.79344 0.93668 0.0
C2908 C 0.79569 0.8126 0.9091 0.0
C2909 C 0.81486 0.80549 0.89846 0.0
N2910 N 0.78793 0.79964 0.92831 0.0
N2911 N 0.81039 0.79955 0.90715 0.0
H2912 H 0.12479 0.18874 0.20104 0.0
H2913 H 0.09001 0.24097 0.2227 0.0
H2914 H 0.13401 0.22313 0.19418 0.0
H2915 H 0.08106 0.20663 0.23014 0.0
H2916 H 0.10545 0.23454 0.21121 0.0
H2917 H 0.10829 0.19508 0.21106 0.0
C2918 C 0.12338 0.19763 0.20167 0.0
C2919 C 0.13085 0.2054 0.19676 0.0
C2920 C 0.10007 0.2284 0.2153 0.0
C2921 C 0.11186 0.21273 0.20814 0.0
C2922 C 0.09118 0.23207 0.2218 0.0
C2923 C 0.08422 0.22434 0.22745 0.0
C2924 C 0.10207 0.21691 0.21443 0.0
C2925 C 0.0863 0.21291 0.22609 0.0
C2926 C 0.11391 0.20124 0.20733 0.0
C2927 C 0.12844 0.21681 0.1977 0.0
N2928 N 0.09505 0.20955 0.21977 0.0
N2929 N 0.11919 0.22012 0.2033 0.0
H2930 H 0.8087 0.13196 0.22921 0.0
H2931 H 0.7795 0.07222 0.21804 0.0
H2932 H 0.80956 0.11546 0.19723 0.0
H2933 H 0.77664 0.09053 0.24887 0.0
H2934 H 0.79086 0.08764 0.2103 0.0
H2935 H 0.79741 0.11647 0.23664 0.0
C2936 C 0.80656 0.12505 0.22375 0.0
C2937 C 0.81013 0.12501 0.21258 0.0
C2938 C 0.78776 0.08825 0.21877 0.0
C2939 C 0.79708 0.10721 0.22103 0.0
C2940 C 0.78123 0.07947 0.22318 0.0
C2941 C 0.77714 0.08002 0.23416 0.0
C2942 C 0.7902 0.09767 0.22537 0.0
C2943 C 0.77978 0.0896 0.24045 0.0
C2944 C 0.80005 0.11621 0.22799 0.0
C2945 C 0.80691 0.11589 0.20587 0.0
N2946 N 0.78612 0.09801 0.23597 0.0
N2947 N 0.8006 0.10735 0.2102 0.0
H2948 H 0.90202 0.8078 0.18543 0.0
H2949 H 0.93147 0.80216 0.24566 0.0
H2950 H 0.88781 0.82018 0.21597 0.0
H2951 H 0.94447 0.78732 0.21571 0.0
H2952 H 0.91615 0.80996 0.23464 0.0
H2953 H 0.91816 0.80117 0.19613 0.0
C2954 C 0.90226 0.8091 0.19439 0.0
C2955 C 0.89347 0.81453 0.19979 0.0
C2956 C 0.92237 0.80503 0.23046 0.0
C2957 C 0.91206 0.80705 0.2121 0.0
C2958 C 0.9312 0.80064 0.23674 0.0
C2959 C 0.93932 0.79407 0.23162 0.0
C2960 C 0.92161 0.80287 0.21894 0.0
C2961 C 0.93835 0.79223 0.22005 0.0
C2962 C 0.91152 0.80536 0.20049 0.0
C2963 C 0.8944 0.81616 0.2114 0.0
N2964 N 0.92966 0.79659 0.21411 0.0
N2965 N 0.90349 0.81241 0.21716 0.0
H2966 H 0.20151 0.89395 0.22242 0.0
H2967 H 0.2592 0.92835 0.21746 0.0
H2968 H 0.22636 0.88768 0.1972 0.0
H2969 H 0.2313 0.9397 0.23698 0.0
H2970 H 0.24755 0.91295 0.21061 0.0
H2971 H 0.21254 0.91021 0.22853 0.0
C2972 C 0.20923 0.89601 0.21809 0.0
C2973 C 0.21298 0.88937 0.20925 0.0
C2974 C 0.24395 0.91884 0.21634 0.0
C2975 C 0.22576 0.90792 0.21639 0.0
C2976 C 0.25058 0.92773 0.22022 0.0
C2977 C 0.24625 0.93546 0.22779 0.0
C2978 C 0.23289 0.91752 0.22012 0.0
C2979 C 0.23508 0.93392 0.23126 0.0
C2980 C 0.21555 0.90529 0.22164 0.0
C2981 C 0.22318 0.89239 0.20416 0.0
N2982 N 0.22881 0.92512 0.22743 0.0
N2983 N 0.22922 0.90141 0.20782 0.0
H2984 H 0.12868 0.8103 0.8148 0.0
H2985 H 0.09345 0.75449 0.80064 0.0
H2986 H 0.13821 0.77721 0.82539 0.0
H2987 H 0.08441 0.78708 0.78819 0.0
H2988 H 0.10951 0.76291 0.8103 0.0
H2989 H 0.11228 0.80217 0.80523 0.0
C2990 C 0.12737 0.80133 0.81507 0.0
C2991 C 0.13485 0.79445 0.82096 0.0
C2992 C 0.10401 0.76825 0.80548 0.0
C2993 C 0.116 0.78509 0.81013 0.0
C2994 C 0.09476 0.76345 0.80003 0.0
C2995 C 0.0875 0.77008 0.79362 0.0
C2996 C 0.10609 0.7798 0.80455 0.0
C2997 C 0.08982 0.78162 0.79295 0.0
C2998 C 0.11797 0.7967 0.80966 0.0
C2999 C 0.13261 0.78289 0.82113 0.0
N3000 N 0.0989 0.78611 0.79835 0.0
N3001 N 0.12341 0.7786 0.81581 0.0
H3002 H 0.20402 0.12701 0.80836 0.0
H3003 H 0.23894 0.07042 0.81022 0.0
H3004 H 0.21737 0.11266 0.83881 0.0
H3005 H 0.22376 0.08378 0.78019 0.0
H3006 H 0.23077 0.08557 0.82093 0.0
H3007 H 0.2107 0.11094 0.79802 0.0
C3008 C 0.20826 0.12044 0.81291 0.0
C3009 C 0.21015 0.12125 0.8245 0.0
C3010 C 0.22917 0.08515 0.81201 0.0
C3011 C 0.21798 0.10283 0.81264 0.0
C3012 C 0.23387 0.07652 0.80588 0.0
C3013 C 0.23206 0.07581 0.79427 0.0
C3014 C 0.22265 0.0932 0.8065 0.0
C3015 C 0.22529 0.08389 0.78913 0.0
C3016 C 0.21213 0.11128 0.80698 0.0
C3017 C 0.21587 0.11252 0.82987 0.0
N3018 N 0.22089 0.09226 0.79526 0.0
N3019 N 0.2196 0.10371 0.8239 0.0
H3020 H 0.90356 0.2012 0.83049 0.0
H3021 H 0.93063 0.22945 0.77578 0.0
H3022 H 0.8896 0.19797 0.79722 0.0
H3023 H 0.9465 0.23058 0.80837 0.0
H3024 H 0.91566 0.21777 0.78358 0.0
H3025 H 0.91928 0.21209 0.82271 0.0
C3026 C 0.90378 0.2028 0.82156 0.0
C3027 C 0.89523 0.19864 0.81451 0.0
C3028 C 0.92243 0.22052 0.78903 0.0
C3029 C 0.91325 0.21104 0.80553 0.0
C3030 C 0.93107 0.22713 0.78455 0.0
C3031 C 0.93991 0.23101 0.7914 0.0
C3032 C 0.92255 0.21776 0.80047 0.0
C3033 C 0.93981 0.22791 0.80278 0.0
C3034 C 0.91279 0.20896 0.81711 0.0
C3035 C 0.89605 0.20087 0.80297 0.0
N3036 N 0.93126 0.2215 0.80696 0.0
N3037 N 0.90486 0.20693 0.79887 0.0
H3038 H 0.80609 0.88637 0.81313 0.0
H3039 H 0.81147 0.94415 0.77905 0.0
H3040 H 0.83776 0.90178 0.80403 0.0
H3041 H 0.7799 0.92893 0.78873 0.0
H3042 H 0.82129 0.92907 0.7887 0.0
H3043 H 0.7964 0.90233 0.80497 0.0
C3044 C 0.81103 0.89315 0.80952 0.0
C3045 C 0.82279 0.89267 0.80925 0.0
C3046 C 0.81221 0.92906 0.78877 0.0
C3047 C 0.81169 0.91096 0.79973 0.0
C3048 C 0.80659 0.93766 0.78321 0.0
C3049 C 0.79482 0.93784 0.78305 0.0
C3050 C 0.80603 0.92053 0.79418 0.0
C3051 C 0.78897 0.92925 0.78874 0.0
C3052 C 0.80548 0.90224 0.80479 0.0
C3053 C 0.82869 0.90167 0.80428 0.0
N3054 N 0.79462 0.92094 0.79401 0.0
N3055 N 0.82309 0.9104 0.7997 0.0
H3056 H 0.21233 0.11597 0.19131 0.0
H3057 H 0.24199 0.08771 0.24457 0.0
H3058 H 0.21025 0.12869 0.22493 0.0
H3059 H 0.24257 0.07354 0.21145 0.0
H3060 H 0.23012 0.10258 0.2375 0.0
H3061 H 0.22344 0.10041 0.19842 0.0
C3062 C 0.21424 0.11553 0.20018 0.0
C3063 C 0.21033 0.12368 0.20753 0.0
C3064 C 0.23279 0.0962 0.23177 0.0
C3065 C 0.22299 0.1058 0.21574 0.0
C3066 C 0.23951 0.08761 0.23583 0.0
C3067 C 0.2433 0.07928 0.22862 0.0
C3068 C 0.22982 0.09654 0.22038 0.0
C3069 C 0.23998 0.07983 0.21731 0.0
C3070 C 0.22053 0.10659 0.20424 0.0
C3071 C 0.21295 0.12255 0.21896 0.0
N3072 N 0.23346 0.08831 0.21354 0.0
N3073 N 0.21912 0.11382 0.2227 0.0
H3074 H 0.22638 0.87896 0.82086 0.0
H3075 H 0.22502 0.93676 0.78667 0.0
H3076 H 0.19631 0.8922 0.80587 0.0
H3077 H 0.25418 0.92488 0.80439 0.0
H3078 H 0.21431 0.92055 0.79362 0.0
H3079 H 0.23663 0.89581 0.815 0.0
C3080 C 0.22189 0.88544 0.81642 0.0
C3081 C 0.21043 0.88411 0.81387 0.0
C3082 C 0.22304 0.92152 0.79604 0.0
C3083 C 0.22221 0.90343 0.80697 0.0
C3084 C 0.22917 0.93076 0.79204 0.0
C3085 C 0.24053 0.9322 0.79494 0.0
C3086 C 0.22832 0.91361 0.80294 0.0
C3087 C 0.24542 0.92421 0.80204 0.0
C3088 C 0.22778 0.89505 0.81302 0.0
C3089 C 0.20515 0.89274 0.80789 0.0
N3090 N 0.23931 0.91524 0.80574 0.0
N3091 N 0.21108 0.902 0.80464 0.0
H3092 H 0.12093 0.1856 0.80415 0.0
H3093 H 0.09017 0.24416 0.80357 0.0
H3094 H 0.12861 0.21201 0.82756 0.0
H3095 H 0.07646 0.21499 0.78695 0.0
H3096 H 0.10473 0.23267 0.81181 0.0
H3097 H 0.10509 0.19634 0.79713 0.0
C3098 C 0.11925 0.19359 0.80791 0.0
C3099 C 0.12621 0.19788 0.81647 0.0
C3100 C 0.0985 0.22876 0.80643 0.0
C3101 C 0.10814 0.21033 0.80827 0.0
C3102 C 0.09008 0.23531 0.80176 0.0
C3103 C 0.08195 0.23057 0.79456 0.0
C3104 C 0.09895 0.21737 0.80381 0.0
C3105 C 0.08259 0.21908 0.79232 0.0
C3106 C 0.11022 0.19975 0.80384 0.0
C3107 C 0.12367 0.20842 0.82082 0.0
N3108 N 0.09097 0.21289 0.79688 0.0
N3109 N 0.1149 0.21428 0.81664 0.0
H3110 H 0.79223 0.12154 0.83666 0.0
H3111 H 0.79724 0.07668 0.78766 0.0
H3112 H 0.81909 0.12233 0.8126 0.0
H3113 H 0.76713 0.08171 0.80673 0.0
H3114 H 0.80639 0.09193 0.79798 0.0
H3115 H 0.78397 0.10546 0.82707 0.0
C3116 C 0.79638 0.11839 0.82932 0.0
C3117 C 0.80634 0.12343 0.82539 0.0
C3118 C 0.79779 0.08964 0.79992 0.0
C3119 C 0.79697 0.10479 0.81445 0.0
C3120 C 0.79253 0.08095 0.794 0.0
C3121 C 0.78135 0.07784 0.79628 0.0
C3122 C 0.79187 0.09524 0.80823 0.0
C3123 C 0.7758 0.08361 0.80477 0.0
C3124 C 0.79168 0.10914 0.82388 0.0
C3125 C 0.81146 0.11871 0.81601 0.0
N3126 N 0.7811 0.09201 0.81039 0.0
N3127 N 0.80671 0.10968 0.81084 0.0
H3128 H 0.90574 0.82222 0.82079 0.0
H3129 H 0.93217 0.76955 0.79029 0.0
H3130 H 0.88974 0.78965 0.81913 0.0
H3131 H 0.95 0.80098 0.79435 0.0
H3132 H 0.91661 0.77691 0.80086 0.0
H3133 H 0.92189 0.81485 0.81085 0.0
C3134 C 0.90559 0.81353 0.8183 0.0
C3135 C 0.89636 0.80654 0.82083 0.0
C3136 C 0.92394 0.78219 0.7995 0.0
C3137 C 0.91486 0.79804 0.80952 0.0
C3138 C 0.93291 0.77796 0.79353 0.0
C3139 C 0.94251 0.78461 0.79145 0.0
C3140 C 0.92446 0.79322 0.80341 0.0
C3141 C 0.94276 0.79556 0.79564 0.0
C3142 C 0.91485 0.80932 0.81269 0.0
C3143 C 0.89672 0.79532 0.81751 0.0
N3144 N 0.93386 0.79953 0.80139 0.0
N3145 N 0.90578 0.79144 0.81202 0.0
H3146 H 0.83036 0.9074 0.21186 0.0
H3147 H 0.77114 0.92735 0.23493 0.0
H3148 H 0.79986 0.88759 0.20969 0.0
H3149 H 0.80146 0.9475 0.23666 0.0
H3150 H 0.78132 0.91315 0.2248 0.0
H3151 H 0.8198 0.92247 0.22026 0.0
C3152 C 0.82144 0.90621 0.21316 0.0
C3153 C 0.81602 0.89616 0.2101 0.0
C3154 C 0.78575 0.9207 0.22734 0.0
C3155 C 0.80383 0.91347 0.21967 0.0
C3156 C 0.77991 0.92887 0.23306 0.0
C3157 C 0.78543 0.93868 0.23668 0.0
C3158 C 0.79723 0.92227 0.22521 0.0
C3159 C 0.79687 0.94003 0.23418 0.0
C3160 C 0.8154 0.91485 0.21791 0.0
C3161 C 0.8044 0.8952 0.2118 0.0
N3162 N 0.80239 0.93192 0.22865 0.0
N3163 N 0.79872 0.90371 0.21652 0.0
H3164 H 0.12608 0.79527 0.18542 0.0
H3165 H 0.09058 0.78972 0.24175 0.0
H3166 H 0.13422 0.81385 0.21533 0.0
H3167 H 0.08009 0.77551 0.21018 0.0
H3168 H 0.10642 0.79889 0.23231 0.0
H3169 H 0.10915 0.7881 0.19442 0.0
C3170 C 0.12427 0.79795 0.19384 0.0
C3171 C 0.13165 0.80522 0.19958 0.0
C3172 C 0.10061 0.79382 0.22744 0.0
C3173 C 0.11225 0.79681 0.21008 0.0
C3174 C 0.0915 0.78864 0.23281 0.0
C3175 C 0.084 0.78175 0.22678 0.0
C3176 C 0.10227 0.79208 0.21595 0.0
C3177 C 0.08575 0.78055 0.21524 0.0
C3178 C 0.1146 0.79379 0.19901 0.0
C3179 C 0.1289 0.80816 0.2106 0.0
N3180 N 0.09472 0.7856 0.21023 0.0
N3181 N 0.11946 0.80391 0.21549 0.0
H3182 H 0.89748 0.218 0.18879 0.0
H3183 H 0.93162 0.21554 0.24632 0.0
H3184 H 0.89103 0.19328 0.21458 0.0
H3185 H 0.94364 0.23377 0.21732 0.0
H3186 H 0.91625 0.20794 0.23507 0.0
H3187 H 0.91392 0.22452 0.19931 0.0
C3188 C 0.89955 0.21385 0.1966 0.0
C3189 C 0.89278 0.20505 0.20078 0.0
C3190 C 0.92228 0.21355 0.23115 0.0
C3191 C 0.91153 0.21268 0.213 0.0
C3192 C 0.93115 0.21785 0.23756 0.0
C3193 C 0.93905 0.22531 0.2328 0.0
C3194 C 0.92116 0.21678 0.21989 0.0
C3195 C 0.93771 0.22818 0.22143 0.0
C3196 C 0.90892 0.21764 0.20264 0.0
C3197 C 0.89583 0.2002 0.21109 0.0
N3198 N 0.92892 0.22396 0.21539 0.0
N3199 N 0.90493 0.20411 0.21685 0.0
H3200 H 0.20956 0.71615 0.63112 0.0
H3201 H 0.23545 0.7145 0.5694 0.0
H3202 H 0.21128 0.68613 0.61147 0.0
H3203 H 0.23581 0.74386 0.59018 0.0
H3204 H 0.22538 0.70426 0.58412 0.0
H3205 H 0.21776 0.72674 0.61556 0.0
C3206 C 0.21155 0.71179 0.6235 0.0
C3207 C 0.20975 0.7002 0.62264 0.0
C3208 C 0.22761 0.71296 0.58543 0.0
C3209 C 0.2193 0.7123 0.60479 0.0
C3210 C 0.2334 0.71881 0.57704 0.0
C3211 C 0.23653 0.73008 0.57853 0.0
C3212 C 0.22491 0.71839 0.59542 0.0
C3213 C 0.23347 0.73524 0.58856 0.0
C3214 C 0.21631 0.71784 0.61463 0.0
C3215 C 0.21267 0.69501 0.61258 0.0
N3216 N 0.22789 0.72936 0.59662 0.0
N3217 N 0.21731 0.70108 0.60407 0.0
H3218 H 0.82626 0.70308 0.62317 0.0
H3219 H 0.77443 0.73513 0.59557 0.0
H3220 H 0.79329 0.70403 0.63775 0.0
H3221 H 0.80615 0.73141 0.57891 0.0
H3222 H 0.78139 0.72396 0.61117 0.0
H3223 H 0.81934 0.71387 0.60713 0.0
C3224 C 0.81758 0.70559 0.62302 0.0
C3225 C 0.81034 0.70262 0.63183 0.0
C3226 C 0.78683 0.72554 0.60409 0.0
C3227 C 0.80235 0.71492 0.61345 0.0
C3228 C 0.78282 0.73186 0.59511 0.0
C3229 C 0.78967 0.73419 0.58582 0.0
C3230 C 0.79781 0.72151 0.60389 0.0
C3231 C 0.80059 0.72994 0.58591 0.0
C3232 C 0.81362 0.71169 0.61383 0.0
C3233 C 0.79914 0.70599 0.6311 0.0
N3234 N 0.80432 0.72382 0.5948 0.0
N3235 N 0.79551 0.71197 0.62211 0.0
H3236 H 0.81336 0.3314 0.61549 0.0
H3237 H 0.78931 0.27308 0.59236 0.0
H3238 H 0.81328 0.30067 0.63462 0.0
H3239 H 0.79039 0.30344 0.57262 0.0
H3240 H 0.799 0.28285 0.60753 0.0
H3241 H 0.80566 0.3212 0.59945 0.0
C3242 C 0.81173 0.32251 0.61632 0.0
C3243 C 0.81393 0.31691 0.62646 0.0
C3244 C 0.79718 0.28737 0.59986 0.0
C3245 C 0.80516 0.30514 0.60807 0.0
C3246 C 0.79172 0.28176 0.59113 0.0
C3247 C 0.789 0.28742 0.58115 0.0
C3248 C 0.79995 0.29877 0.59867 0.0
C3249 C 0.79216 0.29876 0.5802 0.0
C3250 C 0.80738 0.31667 0.60713 0.0
C3251 C 0.81182 0.30533 0.62697 0.0
N3252 N 0.79742 0.30406 0.58885 0.0
N3253 N 0.8075 0.29986 0.61794 0.0
H3254 H 0.1986 0.29597 0.6272 0.0
H3255 H 0.24901 0.28267 0.58606 0.0
H3256 H 0.22933 0.31557 0.62614 0.0
H3257 H 0.21555 0.26891 0.58181 0.0
H3258 H 0.24217 0.29443 0.60106 0.0
H3259 H 0.20489 0.28551 0.61102 0.0
C3260 C 0.20663 0.29816 0.62354 0.0
C3261 C 0.21343 0.30671 0.62811 0.0
C3262 C 0.23631 0.28888 0.5968 0.0
C3263 C 0.22077 0.29456 0.60962 0.0
C3264 C 0.24019 0.28221 0.58815 0.0
C3265 C 0.23287 0.27472 0.58262 0.0
C3266 C 0.22503 0.28803 0.60005 0.0
C3267 C 0.22157 0.27438 0.58593 0.0
C3268 C 0.21023 0.29213 0.61431 0.0
C3269 C 0.22385 0.30895 0.62307 0.0
N3270 N 0.21803 0.28087 0.59445 0.0
N3271 N 0.22721 0.3029 0.61414 0.0
H3272 H 0.20006 0.29886 0.39912 0.0
H3273 H 0.25761 0.28579 0.43093 0.0
H3274 H 0.23211 0.31357 0.3902 0.0
H3275 H 0.22527 0.27647 0.44448 0.0
H3276 H 0.24828 0.29511 0.4154 0.0
H3277 H 0.20899 0.28975 0.41522 0.0
C3278 C 0.20895 0.30023 0.40055 0.0
C3279 C 0.21533 0.30697 0.39321 0.0
C3280 C 0.2432 0.29107 0.42179 0.0
C3281 C 0.22562 0.29645 0.41157 0.0
C3282 C 0.24853 0.2858 0.43074 0.0
C3283 C 0.24225 0.28041 0.43916 0.0
C3284 C 0.23145 0.29092 0.4211 0.0
C3285 C 0.23049 0.28044 0.43818 0.0
C3286 C 0.21404 0.29498 0.40973 0.0
C3287 C 0.22686 0.30829 0.39545 0.0
N3288 N 0.22547 0.28561 0.42931 0.0
N3289 N 0.23161 0.30307 0.40439 0.0
H3290 H 0.18728 0.73009 0.3941 0.0
H3291 H 0.23496 0.72651 0.44149 0.0
H3292 H 0.21032 0.70274 0.39661 0.0
H3293 H 0.21577 0.75604 0.4344 0.0
H3294 H 0.22501 0.7169 0.42626 0.0
H3295 H 0.19659 0.73891 0.41003 0.0
C3296 C 0.19434 0.72595 0.39794 0.0
C3297 C 0.19807 0.71568 0.39388 0.0
C3298 C 0.22295 0.72546 0.42809 0.0
C3299 C 0.2087 0.72572 0.41236 0.0
C3300 C 0.22866 0.73098 0.43677 0.0
C3301 C 0.22623 0.74214 0.43929 0.0
C3302 C 0.21472 0.73111 0.4219 0.0
C3303 C 0.21784 0.74741 0.43295 0.0
C3304 C 0.19963 0.73098 0.40711 0.0
C3305 C 0.20709 0.71061 0.39947 0.0
N3306 N 0.21243 0.74186 0.42457 0.0
N3307 N 0.21212 0.71569 0.4084 0.0
H3308 H 0.823 0.69719 0.40306 0.0
H3309 H 0.79149 0.74916 0.42964 0.0
H3310 H 0.82141 0.72982 0.38757 0.0
H3311 H 0.79516 0.71758 0.44688 0.0
H3312 H 0.80241 0.74206 0.41418 0.0
H3313 H 0.81254 0.70424 0.41903 0.0
C3314 C 0.82041 0.70582 0.40299 0.0
C3315 C 0.82312 0.71292 0.39395 0.0
C3316 C 0.80088 0.73668 0.42136 0.0
C3317 C 0.8112 0.72107 0.41225 0.0
C3318 C 0.79471 0.74077 0.43027 0.0
C3319 C 0.79243 0.734 0.43967 0.0
C3320 C 0.80481 0.7257 0.42175 0.0
C3321 C 0.7966 0.72308 0.43979 0.0
C3322 C 0.8145 0.70985 0.41214 0.0
C3323 C 0.81966 0.72407 0.3944 0.0
N3324 N 0.80257 0.71927 0.43097 0.0
N3325 N 0.81388 0.72777 0.40336 0.0
H3326 H 0.82133 0.29595 0.38552 0.0
H3327 H 0.79736 0.29459 0.44809 0.0
H3328 H 0.81805 0.32538 0.4058 0.0
H3329 H 0.799 0.26559 0.42693 0.0
H3330 H 0.80581 0.30588 0.43311 0.0
H3331 H 0.81422 0.28456 0.40106 0.0
C3332 C 0.81921 0.30002 0.39327 0.0
C3333 C 0.82028 0.31167 0.39432 0.0
C3334 C 0.80437 0.29703 0.43177 0.0
C3335 C 0.81199 0.29864 0.41216 0.0
C3336 C 0.79949 0.29058 0.44031 0.0
C3337 C 0.79744 0.2791 0.43881 0.0
C3338 C 0.8072 0.29199 0.42161 0.0
C3339 C 0.80055 0.27436 0.42857 0.0
C3340 C 0.81508 0.29351 0.40213 0.0
C3341 C 0.81722 0.31646 0.40454 0.0
N3342 N 0.80523 0.28083 0.42038 0.0
N3343 N 0.81321 0.30994 0.41304 0.0
H3344 H 0.12917 0.72575 0.6964 0.0
H3345 H 0.07707 0.71017 0.7359 0.0
H3346 H 0.11843 0.69188 0.70373 0.0
H3347 H 0.08823 0.74398 0.72888 0.0
H3348 H 0.09156 0.70332 0.72344 0.0
H3349 H 0.11363 0.73257 0.70749 0.0
C3350 C 0.1235 0.71973 0.70026 0.0
C3351 C 0.12515 0.7082 0.69911 0.0
C3352 C 0.0908 0.71224 0.72458 0.0
C3353 C 0.10734 0.71599 0.71197 0.0
C3354 C 0.08254 0.71617 0.73172 0.0
C3355 C 0.08143 0.72768 0.7335 0.0
C3356 C 0.09806 0.71987 0.71916 0.0
C3357 C 0.08867 0.73504 0.72769 0.0
C3358 C 0.11464 0.72364 0.70666 0.0
C3359 C 0.1176 0.70083 0.70449 0.0
N3360 N 0.0967 0.73101 0.72085 0.0
N3361 N 0.10905 0.70484 0.71069 0.0
H3362 H 0.82206 0.62919 0.73474 0.0
H3363 H 0.78209 0.57733 0.71825 0.0
H3364 H 0.81357 0.6206 0.70065 0.0
H3365 H 0.79174 0.58519 0.75221 0.0
H3366 H 0.79391 0.59286 0.7116 0.0
H3367 H 0.81141 0.61283 0.74124 0.0
C3368 C 0.81804 0.62383 0.7286 0.0
C3369 C 0.81874 0.62631 0.71711 0.0
C3370 C 0.7935 0.59115 0.72051 0.0
C3371 C 0.80636 0.60758 0.72454 0.0
C3372 C 0.78671 0.58231 0.72431 0.0
C3373 C 0.78588 0.57996 0.73582 0.0
C3374 C 0.79948 0.59777 0.72825 0.0
C3375 C 0.79221 0.5866 0.74327 0.0
C3376 C 0.81189 0.6145 0.73234 0.0
C3377 C 0.81315 0.61913 0.70959 0.0
N3378 N 0.79868 0.59523 0.73936 0.0
N3379 N 0.8072 0.61011 0.71344 0.0
H3380 H 0.90721 0.30467 0.69356 0.0
H3381 H 0.92673 0.28593 0.7551 0.0
H3382 H 0.88663 0.30716 0.72299 0.0
H3383 H 0.94835 0.28468 0.72632 0.0
H3384 H 0.91201 0.29367 0.74332 0.0
H3385 H 0.92232 0.29718 0.70522 0.0
C3386 C 0.90584 0.30362 0.70246 0.0
C3387 C 0.8956 0.30657 0.70729 0.0
C3388 C 0.91997 0.29174 0.73956 0.0
C3389 C 0.91292 0.29805 0.7207 0.0
C3390 C 0.92844 0.28738 0.74631 0.0
C3391 C 0.93888 0.28473 0.74174 0.0
C3392 C 0.92186 0.29346 0.72808 0.0
C3393 C 0.94044 0.28653 0.73021 0.0
C3394 C 0.9145 0.29939 0.70912 0.0
C3395 C 0.8944 0.30516 0.7189 0.0
N3396 N 0.93203 0.29079 0.72378 0.0
N3397 N 0.90293 0.30098 0.72518 0.0
H3398 H 0.21213 0.39121 0.69404 0.0
H3399 H 0.23229 0.42893 0.74582 0.0
H3400 H 0.20413 0.38371 0.72851 0.0
H3401 H 0.24159 0.43591 0.71158 0.0
H3402 H 0.22112 0.4129 0.73946 0.0
H3403 H 0.22247 0.40791 0.70017 0.0
C3404 C 0.21259 0.39303 0.7029 0.0
C3405 C 0.20723 0.386 0.71076 0.0
C3406 C 0.22556 0.41796 0.73332 0.0
C3407 C 0.21896 0.40524 0.71783 0.0
C3408 C 0.23188 0.42719 0.73694 0.0
C3409 C 0.23791 0.43382 0.72923 0.0
C3410 C 0.22525 0.41528 0.72189 0.0
C3411 C 0.23719 0.43098 0.71785 0.0
C3412 C 0.21844 0.40262 0.70639 0.0
C3413 C 0.20798 0.38893 0.72212 0.0
N3414 N 0.23101 0.42192 0.71453 0.0
N3415 N 0.21373 0.39829 0.7253 0.0
H3416 H 0.13509 0.29953 0.29982 0.0
H3417 H 0.07468 0.26926 0.30182 0.0
H3418 H 0.11671 0.29337 0.33031 0.0
H3419 H 0.09361 0.27431 0.27148 0.0
H3420 H 0.08938 0.27926 0.31222 0.0
H3421 H 0.11934 0.29165 0.28913 0.0
C3422 C 0.1277 0.29663 0.30427 0.0
C3423 C 0.12727 0.29707 0.316 0.0
C3424 C 0.09029 0.27824 0.30327 0.0
C3425 C 0.10922 0.2879 0.30379 0.0
C3426 C 0.08191 0.2725 0.29733 0.0
C3427 C 0.08291 0.27088 0.28575 0.0
C3428 C 0.09979 0.2824 0.29762 0.0
C3429 C 0.0924 0.27544 0.28037 0.0
C3430 C 0.11873 0.29206 0.29815 0.0
C3431 C 0.11751 0.29303 0.3213 0.0
N3432 N 0.10049 0.28092 0.28635 0.0
N3433 N 0.1089 0.2886 0.31516 0.0
H3434 H 0.21097 0.61534 0.33641 0.0
H3435 H 0.21518 0.58493 0.27709 0.0
H3436 H 0.19747 0.6288 0.30561 0.0
H3437 H 0.23139 0.57295 0.30717 0.0
H3438 H 0.20727 0.60018 0.28777 0.0
H3439 H 0.21737 0.59909 0.32616 0.0
C3440 C 0.20936 0.61491 0.32749 0.0
C3441 C 0.20371 0.62353 0.32188 0.0
C3442 C 0.21251 0.59419 0.29206 0.0
C3443 C 0.21092 0.60481 0.31009 0.0
C3444 C 0.21696 0.58541 0.28598 0.0
C3445 C 0.22398 0.57761 0.29123 0.0
C3446 C 0.21506 0.59523 0.3035 0.0
C3447 C 0.22614 0.57882 0.30274 0.0
C3448 C 0.21297 0.60558 0.32165 0.0
C3449 C 0.20168 0.62235 0.31034 0.0
N3450 N 0.22172 0.58746 0.30847 0.0
N3451 N 0.20532 0.6132 0.30484 0.0
H3452 H 0.90315 0.71343 0.3233 0.0
H3453 H 0.93401 0.73487 0.26755 0.0
H3454 H 0.89317 0.70373 0.2899 0.0
H3455 H 0.94379 0.74555 0.3007 0.0
H3456 H 0.9194 0.72297 0.27575 0.0
H3457 H 0.91824 0.72501 0.31533 0.0
C3458 C 0.90409 0.71376 0.3143 0.0
C3459 C 0.89686 0.70756 0.30728 0.0
C3460 C 0.92476 0.72788 0.28125 0.0
C3461 C 0.91423 0.72073 0.2981 0.0
C3462 C 0.93318 0.73463 0.27657 0.0
C3463 C 0.9402 0.74121 0.28344 0.0
C3464 C 0.92328 0.72768 0.29291 0.0
C3465 C 0.93852 0.74071 0.29507 0.0
C3466 C 0.91276 0.72033 0.30975 0.0
C3467 C 0.89862 0.70822 0.29567 0.0
N3468 N 0.93024 0.73406 0.29943 0.0
N3469 N 0.90709 0.71467 0.29146 0.0
H3470 H 0.81581 0.39189 0.32023 0.0
H3471 H 0.82079 0.44197 0.27553 0.0
H3472 H 0.84468 0.39795 0.29929 0.0
H3473 H 0.78988 0.43278 0.29204 0.0
H3474 H 0.83029 0.42721 0.28591 0.0
H3475 H 0.80674 0.408 0.31156 0.0
C3476 C 0.82025 0.39657 0.31382 0.0
C3477 C 0.83105 0.39348 0.3105 0.0
C3478 C 0.82144 0.42845 0.28732 0.0
C3479 C 0.82074 0.41207 0.30064 0.0
C3480 C 0.81599 0.43687 0.28136 0.0
C3481 C 0.80447 0.43858 0.28281 0.0
C3482 C 0.81535 0.42164 0.29482 0.0
C3483 C 0.79877 0.43184 0.29069 0.0
C3484 C 0.81508 0.40582 0.30891 0.0
C3485 C 0.83644 0.40005 0.30227 0.0
N3486 N 0.80425 0.42363 0.29634 0.0
N3487 N 0.83123 0.40899 0.29763 0.0
H3488 H 0.19917 0.63088 0.72731 0.0
H3489 H 0.2292 0.57215 0.71867 0.0
H3490 H 0.20274 0.61577 0.69487 0.0
H3491 H 0.22574 0.58848 0.75053 0.0
H3492 H 0.21987 0.58797 0.70958 0.0
H3493 H 0.2091 0.61531 0.73575 0.0
C3494 C 0.202 0.62425 0.72195 0.0
C3495 C 0.20001 0.62461 0.71036 0.0
C3496 C 0.22115 0.58806 0.71856 0.0
C3497 C 0.21157 0.60669 0.72001 0.0
C3498 C 0.22651 0.57905 0.72375 0.0
C3499 C 0.22817 0.5789 0.73542 0.0
C3500 C 0.21747 0.597 0.72507 0.0
C3501 C 0.22445 0.58807 0.74156 0.0
C3502 C 0.20774 0.61536 0.72678 0.0
C3503 C 0.20412 0.61587 0.70383 0.0
N3504 N 0.21929 0.5967 0.73633 0.0
N3505 N 0.20966 0.60724 0.70875 0.0
H3506 H 0.18724 0.39382 0.30499 0.0
H3507 H 0.24648 0.42637 0.30364 0.0
H3508 H 0.21769 0.38079 0.31938 0.0
H3509 H 0.21702 0.43779 0.28609 0.0
H3510 H 0.23565 0.41039 0.31076 0.0
H3511 H 0.19766 0.41056 0.29905 0.0
C3512 C 0.19613 0.39444 0.30687 0.0
C3513 C 0.20158 0.38581 0.31267 0.0
C3514 C 0.23153 0.41641 0.30539 0.0
C3515 C 0.21355 0.40509 0.30599 0.0
C3516 C 0.23769 0.4256 0.30139 0.0
C3517 C 0.23267 0.43347 0.29425 0.0
C3518 C 0.22022 0.41504 0.30227 0.0
C3519 C 0.22129 0.43189 0.29147 0.0
C3520 C 0.20206 0.40405 0.30353 0.0
C3521 C 0.21307 0.38724 0.31506 0.0
N3522 N 0.21546 0.42285 0.29547 0.0
N3523 N 0.21866 0.39667 0.31169 0.0
H3524 H 0.13238 0.71804 0.30875 0.0
H3525 H 0.06957 0.71676 0.28439 0.0
H3526 H 0.11087 0.68868 0.30927 0.0
H3527 H 0.09202 0.74533 0.2818 0.0
H3528 H 0.08405 0.70678 0.29482 0.0
H3529 H 0.11711 0.72863 0.30034 0.0
C3530 C 0.12442 0.71383 0.30721 0.0
C3531 C 0.12295 0.70242 0.3097 0.0
C3532 C 0.08578 0.71526 0.29202 0.0
C3533 C 0.10542 0.7145 0.29992 0.0
C3534 C 0.07752 0.72096 0.28602 0.0
C3535 C 0.07956 0.73191 0.28214 0.0
C3536 C 0.09619 0.72053 0.29417 0.0
C3537 C 0.08998 0.73696 0.28471 0.0
C3538 C 0.11571 0.71988 0.30233 0.0
C3539 C 0.11246 0.69741 0.30735 0.0
N3540 N 0.0979 0.73122 0.29049 0.0
N3541 N 0.10412 0.70346 0.30257 0.0
H3542 H 0.83208 0.6198 0.31604 0.0
H3543 H 0.77864 0.58818 0.28937 0.0
H3544 H 0.79798 0.63058 0.3199 0.0
H3545 H 0.81236 0.57592 0.28693 0.0
H3546 H 0.78564 0.60354 0.30085 0.0
H3547 H 0.82514 0.60369 0.30538 0.0
C3548 C 0.82314 0.61881 0.31462 0.0
C3549 C 0.81561 0.62658 0.3189 0.0
C3550 C 0.79152 0.59747 0.29786 0.0
C3551 C 0.8076 0.60808 0.30676 0.0
C3552 C 0.78751 0.58861 0.29136 0.0
C3553 C 0.7949 0.58066 0.28717 0.0
C3554 C 0.80305 0.59849 0.30019 0.0
C3555 C 0.80635 0.58188 0.28986 0.0
C3556 C 0.81918 0.60957 0.30859 0.0
C3557 C 0.8041 0.62476 0.31691 0.0
N3558 N 0.81007 0.59064 0.29616 0.0
N3559 N 0.80047 0.61574 0.31098 0.0
H3560 H 0.91287 0.30037 0.33309 0.0
H3561 H 0.93711 0.28371 0.27318 0.0
H3562 H 0.89651 0.30851 0.3018 0.0
H3563 H 0.95075 0.27221 0.30469 0.0
H3564 H 0.92355 0.29481 0.28341 0.0
H3565 H 0.92801 0.29185 0.32271 0.0
C3566 C 0.91244 0.30037 0.32403 0.0
C3567 C 0.9033 0.30507 0.31833 0.0
C3568 C 0.92956 0.28992 0.28808 0.0
C3569 C 0.92075 0.29539 0.30635 0.0
C3570 C 0.93736 0.28364 0.28225 0.0
C3571 C 0.94504 0.27696 0.28809 0.0
C3572 C 0.92945 0.28955 0.29984 0.0
C3573 C 0.94488 0.27711 0.29984 0.0
C3574 C 0.92114 0.29554 0.3181 0.0
C3575 C 0.90339 0.30504 0.30656 0.0
N3576 N 0.9372 0.28325 0.30531 0.0
N3577 N 0.91193 0.30022 0.30097 0.0
H3578 H 0.83178 0.39084 0.73168 0.0
H3579 H 0.7869 0.4394 0.72411 0.0
H3580 H 0.81036 0.39362 0.70254 0.0
H3581 H 0.80408 0.43198 0.75516 0.0
H3582 H 0.79639 0.42373 0.71538 0.0
H3583 H 0.82274 0.40698 0.7397 0.0
C3584 C 0.82512 0.39478 0.72698 0.0
C3585 C 0.82178 0.39073 0.71644 0.0
C3586 C 0.7981 0.42559 0.72409 0.0
C3587 C 0.81146 0.40947 0.72556 0.0
C3588 C 0.79266 0.43452 0.7291 0.0
C3589 C 0.79469 0.4371 0.74041 0.0
C3590 C 0.80567 0.4192 0.73041 0.0
C3591 C 0.80237 0.43052 0.74638 0.0
C3592 C 0.82 0.40407 0.73155 0.0
C3593 C 0.81329 0.39645 0.71065 0.0
N3594 N 0.80755 0.42191 0.74132 0.0
N3595 N 0.80841 0.40551 0.71529 0.0
H3596 H 0.12497 0.31725 0.712 0.0
H3597 H 0.08902 0.26443 0.73403 0.0
H3598 H 0.13216 0.28308 0.70374 0.0
H3599 H 0.08258 0.29837 0.74375 0.0
H3600 H 0.10424 0.27127 0.72212 0.0
H3601 H 0.10905 0.31063 0.72317 0.0
C3602 C 0.12325 0.30836 0.71256 0.0
C3603 C 0.12995 0.30072 0.7069 0.0
C3604 C 0.09948 0.27724 0.72682 0.0
C3605 C 0.11162 0.29308 0.71959 0.0
C3606 C 0.09071 0.27334 0.73356 0.0
C3607 C 0.08447 0.28083 0.73991 0.0
C3608 C 0.10207 0.28872 0.72638 0.0
C3609 C 0.08723 0.29227 0.73911 0.0
C3610 C 0.1141 0.30458 0.71889 0.0
C3611 C 0.12716 0.2893 0.70781 0.0
N3612 N 0.09582 0.29586 0.73249 0.0
N3613 N 0.11824 0.28584 0.71403 0.0
H3614 H 0.90357 0.70027 0.70881 0.0
H3615 H 0.92953 0.75669 0.73468 0.0
H3616 H 0.8869 0.73199 0.70845 0.0
H3617 H 0.9477 0.72583 0.73377 0.0
H3618 H 0.91367 0.74743 0.72556 0.0
H3619 H 0.9195 0.70905 0.71864 0.0
C3620 C 0.90323 0.70905 0.71086 0.0
C3621 C 0.8939 0.71541 0.70773 0.0
C3622 C 0.92112 0.74266 0.72732 0.0
C3623 C 0.91213 0.72552 0.7189 0.0
C3624 C 0.93024 0.74798 0.73246 0.0
C3625 C 0.94006 0.74209 0.7349 0.0
C3626 C 0.92171 0.7313 0.72456 0.0
C3627 C 0.9403 0.73071 0.7321 0.0
C3628 C 0.91235 0.71407 0.71641 0.0
C3629 C 0.89397 0.72679 0.71051 0.0
N3630 N 0.93128 0.72569 0.72705 0.0
N3631 N 0.90292 0.73146 0.71591 0.0
H3632 H 0.73433 0.1927 0.6268 0.0
H3633 H 0.72175 0.23806 0.57895 0.0
H3634 H 0.70391 0.21172 0.62508 0.0
H3635 H 0.75476 0.22518 0.5856 0.0
H3636 H 0.71444 0.22674 0.59443 0.0
H3637 H 0.74134 0.20295 0.61046 0.0
C3638 C 0.72912 0.19906 0.62305 0.0
C3639 C 0.7185 0.20135 0.62743 0.0
C3640 C 0.72327 0.22636 0.59247 0.0
C3641 C 0.72644 0.21299 0.6085 0.0
C3642 C 0.72748 0.23285 0.58364 0.0
C3643 C 0.73894 0.23268 0.58098 0.0
C3644 C 0.73053 0.21955 0.59869 0.0
C3645 C 0.74586 0.22554 0.58724 0.0
C3646 C 0.73312 0.20486 0.61366 0.0
C3647 C 0.71207 0.20953 0.62198 0.0
N3648 N 0.74156 0.2193 0.59581 0.0
N3649 N 0.71614 0.21504 0.61283 0.0
H3650 H 0.30642 0.17741 0.61862 0.0
H3651 H 0.28189 0.23475 0.59484 0.0
H3652 H 0.30792 0.20854 0.63659 0.0
H3653 H 0.28265 0.20439 0.57559 0.0
H3654 H 0.29193 0.22538 0.60995 0.0
H3655 H 0.29803 0.18714 0.60264 0.0
C3656 C 0.30498 0.18629 0.61921 0.0
C3657 C 0.30785 0.19215 0.629 0.0
C3658 C 0.28996 0.22077 0.6024 0.0
C3659 C 0.29828 0.20337 0.61069 0.0
C3660 C 0.28429 0.22616 0.5937 0.0
C3661 C 0.28141 0.22038 0.58386 0.0
C3662 C 0.29275 0.20949 0.60134 0.0
C3663 C 0.28455 0.20915 0.58305 0.0
C3664 C 0.30024 0.19186 0.61006 0.0
C3665 C 0.30595 0.2037 0.6292 0.0
N3666 N 0.29001 0.20407 0.59168 0.0
N3667 N 0.30124 0.2089 0.62022 0.0
H3668 H 0.31006 0.79923 0.63629 0.0
H3669 H 0.28626 0.79987 0.57331 0.0
H3670 H 0.30537 0.82951 0.6171 0.0
H3671 H 0.28989 0.76996 0.59334 0.0
H3672 H 0.29359 0.8109 0.589 0.0
H3673 H 0.30327 0.78838 0.62033 0.0
C3674 C 0.30769 0.8036 0.62869 0.0
C3675 C 0.30831 0.81532 0.62807 0.0
C3676 C 0.29281 0.80192 0.58994 0.0
C3677 C 0.30037 0.80291 0.60972 0.0
C3678 C 0.28858 0.79562 0.58099 0.0
C3679 C 0.28748 0.78394 0.58195 0.0
C3680 C 0.29596 0.79653 0.59995 0.0
C3681 C 0.29076 0.7789 0.5921 0.0
C3682 C 0.30373 0.7974 0.61959 0.0
C3683 C 0.30491 0.82051 0.61803 0.0
N3684 N 0.29482 0.78521 0.60067 0.0
N3685 N 0.3011 0.81428 0.60927 0.0
H3686 H 0.71092 0.79972 0.63111 0.0
H3687 H 0.74912 0.80695 0.5766 0.0
H3688 H 0.72284 0.8316 0.61842 0.0
H3689 H 0.73541 0.77521 0.58772 0.0
H3690 H 0.73877 0.81619 0.59138 0.0
H3691 H 0.71894 0.79066 0.61479 0.0
C3692 C 0.71512 0.80484 0.62485 0.0
C3693 C 0.71627 0.81645 0.62622 0.0
C3694 C 0.73794 0.80721 0.59055 0.0
C3695 C 0.7256 0.80609 0.60755 0.0
C3696 C 0.74388 0.80193 0.58213 0.0
C3697 C 0.74319 0.79028 0.58095 0.0
C3698 C 0.7313 0.80081 0.59795 0.0
C3699 C 0.73614 0.78422 0.58826 0.0
C3700 C 0.71975 0.79965 0.61555 0.0
C3701 C 0.72193 0.82261 0.61786 0.0
N3702 N 0.73055 0.78954 0.5965 0.0
N3703 N 0.72641 0.81736 0.60894 0.0
H3704 H 0.71572 0.82666 0.40852 0.0
H3705 H 0.73595 0.76629 0.42872 0.0
H3706 H 0.71268 0.79687 0.38853 0.0
H3707 H 0.73699 0.79525 0.45006 0.0
H3708 H 0.72741 0.77749 0.41398 0.0
H3709 H 0.72367 0.81549 0.42378 0.0
C3710 C 0.71674 0.81778 0.40732 0.0
C3711 C 0.71352 0.81271 0.3972 0.0
C3712 C 0.72946 0.78141 0.42189 0.0
C3713 C 0.72256 0.79986 0.41468 0.0
C3714 C 0.73427 0.77499 0.43037 0.0
C3715 C 0.73714 0.77979 0.44073 0.0
C3716 C 0.7275 0.79279 0.42368 0.0
C3717 C 0.73501 0.79119 0.4422 0.0
C3718 C 0.72123 0.8114 0.41607 0.0
C3719 C 0.71491 0.80113 0.39621 0.0
N3720 N 0.73033 0.7973 0.43378 0.0
N3721 N 0.71934 0.79513 0.40481 0.0
H3722 H 0.71936 0.19631 0.39303 0.0
H3723 H 0.72537 0.24038 0.44291 0.0
H3724 H 0.69563 0.2225 0.39865 0.0
H3725 H 0.75232 0.21939 0.43222 0.0
H3726 H 0.71356 0.23267 0.42795 0.0
H3727 H 0.73076 0.20345 0.40855 0.0
C3728 C 0.71655 0.20359 0.39747 0.0
C3729 C 0.7065 0.20881 0.39444 0.0
C3730 C 0.72205 0.22974 0.42891 0.0
C3731 C 0.71948 0.21692 0.41241 0.0
C3732 C 0.72883 0.23417 0.43743 0.0
C3733 C 0.73991 0.23057 0.43887 0.0
C3734 C 0.72632 0.22159 0.42178 0.0
C3735 C 0.7438 0.22233 0.4316 0.0
C3736 C 0.72305 0.20762 0.40639 0.0
C3737 C 0.70321 0.21808 0.40073 0.0
N3738 N 0.73703 0.21814 0.42339 0.0
N3739 N 0.70968 0.22183 0.40939 0.0
H3740 H 0.30528 0.20214 0.38921 0.0
H3741 H 0.30837 0.22743 0.45113 0.0
H3742 H 0.33595 0.20545 0.40839 0.0
H3743 H 0.27802 0.22549 0.43129 0.0
H3744 H 0.31836 0.21811 0.43613 0.0
H3745 H 0.2949 0.20923 0.40515 0.0
C3746 C 0.30983 0.20424 0.39681 0.0
C3747 C 0.32153 0.20324 0.39741 0.0
C3748 C 0.3095 0.21966 0.43509 0.0
C3749 C 0.30968 0.21151 0.41569 0.0
C3750 C 0.30379 0.22502 0.44364 0.0
C3751 C 0.29233 0.2273 0.44248 0.0
C3752 C 0.30373 0.21656 0.42527 0.0
C3753 C 0.28681 0.22381 0.43264 0.0
C3754 C 0.30389 0.20836 0.40589 0.0
C3755 C 0.32696 0.20625 0.40746 0.0
N3756 N 0.29257 0.21868 0.42441 0.0
N3757 N 0.32101 0.21027 0.41617 0.0
H3758 H 0.29124 0.81762 0.38171 0.0
H3759 H 0.29591 0.79231 0.44391 0.0
H3760 H 0.32253 0.81608 0.39996 0.0
H3761 H 0.26508 0.7945 0.42495 0.0
H3762 H 0.30605 0.80044 0.42792 0.0
H3763 H 0.28175 0.80868 0.39748 0.0
C3764 C 0.29612 0.81544 0.38907 0.0
C3765 C 0.3077 0.81771 0.38953 0.0
C3766 C 0.29707 0.79914 0.42728 0.0
C3767 C 0.29685 0.80732 0.40769 0.0
C3768 C 0.29127 0.79447 0.4364 0.0
C3769 C 0.27959 0.79282 0.43584 0.0
C3770 C 0.29114 0.80213 0.41752 0.0
C3771 C 0.27403 0.79583 0.42588 0.0
C3772 C 0.2907 0.81027 0.39807 0.0
C3773 C 0.31361 0.81444 0.39921 0.0
N3774 N 0.27984 0.80033 0.41717 0.0
N3775 N 0.30811 0.80946 0.40792 0.0
H3776 H 0.62206 0.21455 0.68373 0.0
H3777 H 0.59136 0.23003 0.74089 0.0
H3778 H 0.63579 0.2073 0.71646 0.0
H3779 H 0.57979 0.2402 0.70812 0.0
H3780 H 0.60654 0.21981 0.73212 0.0
H3781 H 0.60556 0.22231 0.69255 0.0
C3782 C 0.62163 0.2146 0.69278 0.0
C3783 C 0.63042 0.21036 0.69934 0.0
C3784 C 0.60064 0.22421 0.72684 0.0
C3785 C 0.61141 0.21916 0.70954 0.0
C3786 C 0.59191 0.22998 0.73184 0.0
C3787 C 0.58431 0.23604 0.72524 0.0
C3788 C 0.60177 0.22447 0.71514 0.0
C3789 C 0.58554 0.23578 0.71356 0.0
C3790 C 0.61216 0.21899 0.69782 0.0
C3791 C 0.62922 0.21042 0.71104 0.0
N3792 N 0.59411 0.23015 0.7089 0.0
N3793 N 0.61993 0.21481 0.71576 0.0
H3794 H 0.30124 0.1261 0.71008 0.0
H3795 H 0.30061 0.06909 0.7454 0.0
H3796 H 0.33071 0.11343 0.72676 0.0
H3797 H 0.27083 0.0875 0.73698 0.0
H3798 H 0.31201 0.08409 0.73698 0.0
H3799 H 0.29021 0.11076 0.71815 0.0
C3800 C 0.30541 0.12015 0.71549 0.0
C3801 C 0.31695 0.12117 0.71778 0.0
C3802 C 0.30298 0.0848 0.73697 0.0
C3803 C 0.30432 0.10338 0.72691 0.0
C3804 C 0.29644 0.07626 0.74182 0.0
C3805 C 0.28468 0.07695 0.7419 0.0
C3806 C 0.29773 0.09407 0.73208 0.0
C3807 C 0.27981 0.08641 0.73695 0.0
C3808 C 0.29909 0.11134 0.72005 0.0
C3809 C 0.32188 0.11296 0.72463 0.0
N3810 N 0.28634 0.09455 0.73224 0.0
N3811 N 0.31554 0.10442 0.72895 0.0
H3812 H 0.40427 0.81 0.69034 0.0
H3813 H 0.42735 0.7771 0.74422 0.0
H3814 H 0.38398 0.80114 0.71893 0.0
H3815 H 0.44684 0.78274 0.71433 0.0
H3816 H 0.41194 0.78735 0.73569 0.0
H3817 H 0.42043 0.80149 0.69957 0.0
C3818 C 0.40323 0.80636 0.6986 0.0
C3819 C 0.39272 0.80626 0.70385 0.0
C3820 C 0.4196 0.78639 0.731 0.0
C3821 C 0.4112 0.79641 0.71443 0.0
C3822 C 0.42846 0.78062 0.73591 0.0
C3823 C 0.43845 0.77905 0.73 0.0
C3824 C 0.42069 0.79069 0.72008 0.0
C3825 C 0.43926 0.78363 0.71916 0.0
C3826 C 0.41245 0.80143 0.70384 0.0
C3827 C 0.39187 0.80128 0.7145 0.0
N3828 N 0.43051 0.78922 0.71455 0.0
N3829 N 0.40096 0.79656 0.71943 0.0
H3830 H 0.71102 0.88149 0.72974 0.0
H3831 H 0.73587 0.94329 0.71956 0.0
H3832 H 0.70507 0.90041 0.69945 0.0
H3833 H 0.73738 0.92593 0.75131 0.0
H3834 H 0.72497 0.92759 0.71181 0.0
H3835 H 0.72121 0.89753 0.73752 0.0
C3836 C 0.71191 0.889 0.72469 0.0
C3837 C 0.70721 0.88958 0.7139 0.0
C3838 C 0.72764 0.92725 0.72049 0.0
C3839 C 0.71882 0.90807 0.72282 0.0
C3840 C 0.73389 0.93619 0.72491 0.0
C3841 C 0.73753 0.93595 0.73611 0.0
C3842 C 0.72509 0.91793 0.72729 0.0
C3843 C 0.73463 0.92656 0.74267 0.0
C3844 C 0.71766 0.8982 0.72918 0.0
C3845 C 0.70847 0.89962 0.70784 0.0
N3846 N 0.72865 0.91792 0.73816 0.0
N3847 N 0.7142 0.90845 0.71236 0.0
H3848 H 0.62527 0.81208 0.31217 0.0
H3849 H 0.58703 0.75691 0.30789 0.0
H3850 H 0.62615 0.7851 0.33634 0.0
H3851 H 0.58063 0.78666 0.28834 0.0
H3852 H 0.6016 0.76707 0.31814 0.0
H3853 H 0.60919 0.80292 0.30304 0.0
C3854 C 0.62205 0.80429 0.31563 0.0
C3855 C 0.62718 0.79934 0.32502 0.0
C3856 C 0.59696 0.77141 0.31166 0.0
C3857 C 0.60884 0.78872 0.31448 0.0
C3858 C 0.58855 0.76563 0.30583 0.0
C3859 C 0.58251 0.7709 0.2972 0.0
C3860 C 0.59951 0.78257 0.30881 0.0
C3861 C 0.58514 0.78216 0.29479 0.0
C3862 C 0.61288 0.79904 0.31038 0.0
C3863 C 0.62267 0.78914 0.329 0.0
N3864 N 0.59348 0.78759 0.30051 0.0
N3865 N 0.61383 0.78416 0.32369 0.0
H3866 H 0.70467 0.13313 0.30004 0.0
H3867 H 0.72488 0.06957 0.29921 0.0
H3868 H 0.70861 0.11304 0.32992 0.0
H3869 H 0.72312 0.09089 0.26994 0.0
H3870 H 0.71812 0.08499 0.31056 0.0
H3871 H 0.71037 0.11728 0.28882 0.0
C3872 C 0.70664 0.12536 0.30425 0.0
C3873 C 0.70615 0.12445 0.31596 0.0
C3874 C 0.71917 0.08626 0.30164 0.0
C3875 C 0.71284 0.10623 0.30313 0.0
C3876 C 0.72307 0.07747 0.29516 0.0
C3877 C 0.72455 0.07888 0.28356 0.0
C3878 C 0.71673 0.09656 0.29652 0.0
C3879 C 0.72193 0.08929 0.27879 0.0
C3880 C 0.70997 0.11631 0.29783 0.0
C3881 C 0.70899 0.11418 0.32093 0.0
N3882 N 0.71818 0.0977 0.28528 0.0
N3883 N 0.71222 0.10549 0.3145 0.0
H3884 H 0.38777 0.21866 0.31628 0.0
H3885 H 0.44978 0.22535 0.29128 0.0
H3886 H 0.40897 0.19062 0.30969 0.0
H3887 H 0.42719 0.25272 0.29585 0.0
H3888 H 0.43531 0.21248 0.2985 0.0
H3889 H 0.40259 0.23127 0.3096 0.0
C3890 C 0.39558 0.21515 0.31352 0.0
C3891 C 0.39711 0.20354 0.31358 0.0
C3892 C 0.43355 0.22131 0.29795 0.0
C3893 C 0.41413 0.21798 0.30574 0.0
C3894 C 0.44179 0.22866 0.29377 0.0
C3895 C 0.43975 0.24017 0.29299 0.0
C3896 C 0.42318 0.22548 0.30136 0.0
C3897 C 0.42926 0.24397 0.29648 0.0
C3898 C 0.40403 0.22236 0.30962 0.0
C3899 C 0.40736 0.1995 0.30969 0.0
N3900 N 0.4214 0.23666 0.30049 0.0
N3901 N 0.41548 0.2067 0.30594 0.0
H3902 H 0.34323 0.89573 0.29237 0.0
H3903 H 0.28835 0.93231 0.28455 0.0
H3904 H 0.3142 0.89218 0.3136 0.0
H3905 H 0.31977 0.94007 0.26826 0.0
H3906 H 0.29756 0.91756 0.29521 0.0
H3907 H 0.33468 0.91184 0.28332 0.0
C3908 C 0.33511 0.89838 0.29523 0.0
C3909 C 0.32946 0.89252 0.3038 0.0
C3910 C 0.30245 0.92254 0.28935 0.0
C3911 C 0.31949 0.91093 0.29326 0.0
C3912 C 0.29721 0.93104 0.28331 0.0
C3913 C 0.30325 0.93748 0.27543 0.0
C3914 C 0.31382 0.92036 0.28749 0.0
C3915 C 0.31469 0.93523 0.27407 0.0
C3916 C 0.3302 0.90757 0.29 0.0
C3917 C 0.31883 0.89628 0.30693 0.0
N3918 N 0.31957 0.92683 0.27998 0.0
N3919 N 0.31418 0.9052 0.30164 0.0
H3920 H 0.72282 0.13125 0.71081 0.0
H3921 H 0.7142 0.07305 0.74343 0.0
H3922 H 0.69046 0.1164 0.71824 0.0
H3923 H 0.74674 0.0869 0.73508 0.0
H3924 H 0.70542 0.08843 0.73332 0.0
H3925 H 0.73179 0.11467 0.71866 0.0
C3926 C 0.71759 0.12447 0.714 0.0
C3927 C 0.70585 0.12529 0.71393 0.0
C3928 C 0.71448 0.08809 0.73362 0.0
C3929 C 0.71609 0.1063 0.72304 0.0
C3930 C 0.7195 0.07931 0.73943 0.0
C3931 C 0.73123 0.07871 0.74018 0.0
C3932 C 0.72121 0.09641 0.72855 0.0
C3933 C 0.73767 0.08698 0.73466 0.0
C3934 C 0.72273 0.11502 0.71853 0.0
C3935 C 0.69953 0.11627 0.7183 0.0
N3936 N 0.73258 0.09553 0.72916 0.0
N3937 N 0.70472 0.1072 0.7227 0.0
H3938 H 0.68765 0.89618 0.30243 0.0
H3939 H 0.74722 0.9262 0.29482 0.0
H3940 H 0.71722 0.88688 0.32115 0.0
H3941 H 0.71634 0.94187 0.28479 0.0
H3942 H 0.7364 0.91107 0.30343 0.0
H3943 H 0.69799 0.91234 0.29488 0.0
C3944 C 0.69627 0.89756 0.30505 0.0
C3945 C 0.70155 0.89006 0.31243 0.0
C3946 C 0.73198 0.91785 0.2994 0.0
C3947 C 0.7135 0.90847 0.3036 0.0
C3948 C 0.73816 0.92658 0.29453 0.0
C3949 C 0.73273 0.93546 0.28911 0.0
C3950 C 0.72024 0.91784 0.29876 0.0
C3951 C 0.72094 0.93518 0.28875 0.0
C3952 C 0.70218 0.90677 0.30068 0.0
C3953 C 0.71282 0.89224 0.31533 0.0
N3954 N 0.71509 0.9265 0.29346 0.0
N3955 N 0.71841 0.90118 0.31086 0.0
H3956 H 0.63116 0.20352 0.29346 0.0
H3957 H 0.57621 0.23766 0.30897 0.0
H3958 H 0.61912 0.20673 0.32725 0.0
H3959 H 0.58979 0.23571 0.27564 0.0
H3960 H 0.59136 0.22581 0.31581 0.0
H3961 H 0.61554 0.21468 0.28678 0.0
C3962 C 0.62519 0.20651 0.29948 0.0
C3963 C 0.62646 0.20413 0.31095 0.0
C3964 C 0.59099 0.22794 0.307 0.0
C3965 C 0.60853 0.21708 0.30333 0.0
C3966 C 0.58235 0.23474 0.30308 0.0
C3967 C 0.58168 0.2377 0.29169 0.0
C3968 C 0.59903 0.22407 0.29948 0.0
C3969 C 0.58982 0.23353 0.28445 0.0
C3970 C 0.61629 0.21295 0.29566 0.0
C3971 C 0.61855 0.20844 0.31836 0.0
N3972 N 0.59814 0.22697 0.28847 0.0
N3973 N 0.60992 0.21468 0.31442 0.0
H3974 H 0.3004 0.11732 0.32643 0.0
H3975 H 0.31358 0.0785 0.27404 0.0
H3976 H 0.32951 0.12185 0.30546 0.0
H3977 H 0.28108 0.07961 0.28966 0.0
H3978 H 0.32047 0.09271 0.28706 0.0
H3979 H 0.29408 0.10194 0.31449 0.0
C3980 C 0.30546 0.11514 0.31931 0.0
C3981 C 0.3155 0.121 0.31695 0.0
C3982 C 0.31184 0.08981 0.28766 0.0
C3983 C 0.30837 0.10319 0.30335 0.0
C3984 C 0.30788 0.08171 0.2802 0.0
C3985 C 0.29668 0.07788 0.28064 0.0
C3986 C 0.3046 0.09411 0.29571 0.0
C3987 C 0.28979 0.0822 0.28902 0.0
C3988 C 0.30186 0.10629 0.31253 0.0
C3989 C 0.3218 0.11754 0.30773 0.0
N3990 N 0.29385 0.0901 0.29618 0.0
N3991 N 0.31812 0.10889 0.30128 0.0
H3992 H 0.40719 0.81872 0.31725 0.0
H3993 H 0.43125 0.76421 0.28797 0.0
H3994 H 0.3903 0.78655 0.3173 0.0
H3995 H 0.44993 0.79534 0.29025 0.0
H3996 H 0.41621 0.77239 0.29868 0.0
H3997 H 0.42278 0.81055 0.30709 0.0
C3998 C 0.40674 0.80995 0.31509 0.0
C3999 C 0.39741 0.80332 0.31817 0.0
C4000 C 0.42361 0.77743 0.29689 0.0
C4001 C 0.41528 0.79389 0.30659 0.0
C4002 C 0.43228 0.77273 0.29084 0.0
C4003 C 0.44196 0.77905 0.28823 0.0
C4004 C 0.42452 0.7886 0.30036 0.0
C4005 C 0.4426 0.79017 0.29195 0.0
C4006 C 0.41568 0.80528 0.30935 0.0
C4007 C 0.39737 0.79196 0.31526 0.0
N4008 N 0.434 0.79458 0.29781 0.0
N4009 N 0.40613 0.78763 0.30963 0.0
H4010 H 0.30375 0.89217 0.70636 0.0
H4011 H 0.31159 0.94131 0.7511 0.0
H4012 H 0.33435 0.89852 0.72495 0.0
H4013 H 0.2796 0.93199 0.73651 0.0
H4014 H 0.32047 0.92694 0.74 0.0
H4015 H 0.29514 0.90784 0.71589 0.0
C4016 C 0.30867 0.89683 0.71244 0.0
C4017 C 0.31981 0.89395 0.71484 0.0
C4018 C 0.31151 0.92806 0.73918 0.0
C4019 C 0.31002 0.91204 0.72569 0.0
C4020 C 0.30642 0.93626 0.74555 0.0
C4021 C 0.29479 0.93783 0.74484 0.0
C4022 C 0.30496 0.92134 0.732 0.0
C4023 C 0.28859 0.93117 0.73729 0.0
C4024 C 0.30376 0.90583 0.71783 0.0
C4025 C 0.3258 0.90048 0.72267 0.0
N4026 N 0.29374 0.92318 0.73123 0.0
N4027 N 0.32083 0.90917 0.72781 0.0
H4028 H 0.63454 0.81332 0.71834 0.0
H4029 H 0.57742 0.77713 0.71751 0.0
H4030 H 0.62027 0.7989 0.68832 0.0
H4031 H 0.59035 0.794 0.7468 0.0
H4032 H 0.59292 0.78514 0.70661 0.0
H4033 H 0.61825 0.80656 0.72881 0.0
C4034 C 0.62795 0.80882 0.71391 0.0
C4035 C 0.62883 0.80669 0.7024 0.0
C4036 C 0.59233 0.78714 0.71541 0.0
C4037 C 0.61016 0.79874 0.71443 0.0
C4038 C 0.5835 0.78253 0.72165 0.0
C4039 C 0.58256 0.78488 0.73311 0.0
C4040 C 0.60036 0.7941 0.72066 0.0
C4041 C 0.59063 0.79206 0.73798 0.0
C4042 C 0.61866 0.8049 0.71992 0.0
C4043 C 0.62007 0.80062 0.6972 0.0
N4044 N 0.5992 0.79635 0.73175 0.0
N4045 N 0.61113 0.79684 0.70325 0.0
H4046 H 0.40689 0.20618 0.68546 0.0
H4047 H 0.43142 0.23389 0.74151 0.0
H4048 H 0.38916 0.2063 0.71684 0.0
H4049 H 0.44897 0.23433 0.71002 0.0
H4050 H 0.41652 0.22255 0.73297 0.0
H4051 H 0.42287 0.21543 0.69459 0.0
C4052 C 0.40635 0.20815 0.69428 0.0
C4053 C 0.39661 0.20551 0.70036 0.0
C4054 C 0.42366 0.22506 0.72794 0.0
C4055 C 0.41497 0.21605 0.71091 0.0
C4056 C 0.43223 0.23148 0.73284 0.0
C4057 C 0.44149 0.23511 0.72648 0.0
C4058 C 0.42429 0.22224 0.71657 0.0
C4059 C 0.44193 0.23187 0.71522 0.0
C4060 C 0.41551 0.21338 0.6995 0.0
C4061 C 0.3965 0.20808 0.71182 0.0
N4062 N 0.43345 0.22566 0.71062 0.0
N4063 N 0.4055 0.21326 0.71669 0.0
H4064 H 0.73354 0.69983 0.13326 0.0
H4065 H 0.7168 0.73436 0.07805 0.0
H4066 H 0.69936 0.70483 0.12252 0.0
H4067 H 0.75096 0.72861 0.08842 0.0
H4068 H 0.71024 0.72315 0.09398 0.0
H4069 H 0.74006 0.71008 0.11673 0.0
C4070 C 0.72739 0.70313 0.12746 0.0
C4071 C 0.71586 0.70148 0.12935 0.0
C4072 C 0.71917 0.72429 0.09275 0.0
C4073 C 0.72331 0.71314 0.11025 0.0
C4074 C 0.72292 0.73072 0.08366 0.0
C4075 C 0.73445 0.73247 0.08188 0.0
C4076 C 0.72699 0.7196 0.10019 0.0
C4077 C 0.742 0.7274 0.08937 0.0
C4078 C 0.73113 0.70892 0.11796 0.0
C4079 C 0.70832 0.70578 0.12138 0.0
N4080 N 0.73814 0.72126 0.09821 0.0
N4081 N 0.71217 0.71143 0.11222 0.0
H4082 H 0.32696 0.70216 0.1285 0.0
H4083 H 0.27611 0.71797 0.08809 0.0
H4084 H 0.29516 0.68435 0.12853 0.0
H4085 H 0.31021 0.72911 0.0822 0.0
H4086 H 0.28277 0.70608 0.10331 0.0
H4087 H 0.32085 0.71264 0.112 0.0
C4088 C 0.31874 0.70035 0.125 0.0
C4089 C 0.31158 0.69233 0.12999 0.0
C4090 C 0.2888 0.71107 0.09864 0.0
C4091 C 0.30444 0.70451 0.11117 0.0
C4092 C 0.28502 0.71782 0.08986 0.0
C4093 C 0.29259 0.72461 0.08378 0.0
C4094 C 0.30024 0.71114 0.10149 0.0
C4095 C 0.30401 0.7242 0.08673 0.0
C4096 C 0.31523 0.7064 0.1156 0.0
C4097 C 0.30092 0.69057 0.12515 0.0
N4098 N 0.30747 0.71765 0.0954 0.0
N4099 N 0.29766 0.69664 0.11606 0.0
H4100 H 0.32694 0.31806 0.12397 0.0
H4101 H 0.27475 0.29481 0.08789 0.0
H4102 H 0.29237 0.32366 0.13241 0.0
H4103 H 0.30927 0.28835 0.07997 0.0
H4104 H 0.28108 0.30644 0.1035 0.0
H4105 H 0.32067 0.30786 0.10736 0.0
C4106 C 0.31803 0.31712 0.12237 0.0
C4107 C 0.31018 0.32172 0.12966 0.0
C4108 C 0.28728 0.30253 0.09831 0.0
C4109 C 0.30293 0.31013 0.11052 0.0
C4110 C 0.28367 0.29595 0.08932 0.0
C4111 C 0.29148 0.29054 0.08259 0.0
C4112 C 0.2988 0.30373 0.10063 0.0
C4113 C 0.30293 0.29222 0.08501 0.0
C4114 C 0.31445 0.31135 0.11283 0.0
C4115 C 0.29874 0.32039 0.127 0.0
N4116 N 0.30624 0.29861 0.09384 0.0
N4117 N 0.29547 0.3147 0.11768 0.0
H4118 H 0.70376 0.30632 0.12829 0.0
H4119 H 0.75676 0.30221 0.08801 0.0
H4120 H 0.73316 0.32774 0.13068 0.0
H4121 H 0.72544 0.28471 0.08153 0.0
H4122 H 0.74819 0.31139 0.10381 0.0
H4123 H 0.71147 0.29803 0.11137 0.0
C4124 C 0.71179 0.30934 0.12524 0.0
C4125 C 0.71783 0.31771 0.13101 0.0
C4126 C 0.74315 0.3056 0.0989 0.0
C4127 C 0.72677 0.30815 0.1117 0.0
C4128 C 0.74802 0.30039 0.08978 0.0
C4129 C 0.74183 0.29267 0.08332 0.0
C4130 C 0.73199 0.30304 0.10173 0.0
C4131 C 0.73061 0.29049 0.08631 0.0
C4132 C 0.71621 0.30457 0.1156 0.0
C4133 C 0.72828 0.32116 0.12669 0.0
N4134 N 0.72607 0.29561 0.09531 0.0
N4135 N 0.7324 0.31635 0.11736 0.0
H4136 H 0.71523 0.29879 0.88333 0.0
H4137 H 0.72846 0.29524 0.94907 0.0
H4138 H 0.70741 0.32514 0.9063 0.0
H4139 H 0.7313 0.26741 0.92657 0.0
H4140 H 0.72117 0.30655 0.93355 0.0
H4141 H 0.72165 0.2874 0.89909 0.0
C4142 C 0.7149 0.3022 0.89169 0.0
C4143 C 0.71081 0.31296 0.89349 0.0
C4144 C 0.72333 0.29795 0.93204 0.0
C4145 C 0.71811 0.29991 0.91162 0.0
C4146 C 0.72753 0.2915 0.94088 0.0
C4147 C 0.73048 0.28034 0.93914 0.0
C4148 C 0.72216 0.29324 0.92134 0.0
C4149 C 0.729 0.27592 0.92836 0.0
C4150 C 0.71851 0.29566 0.9007 0.0
C4151 C 0.71042 0.31686 0.90454 0.0
N4152 N 0.72501 0.28238 0.91988 0.0
N4153 N 0.71407 0.31037 0.91318 0.0
H4154 H 0.71318 0.69251 0.8947 0.0
H4155 H 0.72471 0.7444 0.93508 0.0
H4156 H 0.69266 0.72188 0.89483 0.0
H4157 H 0.74039 0.71242 0.93962 0.0
H4158 H 0.71308 0.73642 0.92018 0.0
H4159 H 0.7235 0.69977 0.91089 0.0
C4160 C 0.71076 0.70044 0.89816 0.0
C4161 C 0.70202 0.70658 0.8933 0.0
C4162 C 0.71902 0.73113 0.92448 0.0
C4163 C 0.71398 0.71505 0.91181 0.0
C4164 C 0.72563 0.73566 0.93307 0.0
C4165 C 0.73361 0.72911 0.93866 0.0
C4166 C 0.72043 0.71996 0.92133 0.0
C4167 C 0.73452 0.71788 0.93545 0.0
C4168 C 0.71671 0.70461 0.90739 0.0
C4169 C 0.69945 0.71692 0.89811 0.0
N4170 N 0.72807 0.71369 0.92698 0.0
N4171 N 0.70542 0.72083 0.90704 0.0
H4172 H 0.33506 0.71327 0.89966 0.0
H4173 H 0.27855 0.70949 0.93488 0.0
H4174 H 0.30954 0.68779 0.89438 0.0
H4175 H 0.30739 0.72931 0.9451 0.0
H4176 H 0.28959 0.70171 0.91981 0.0
H4177 H 0.32489 0.71959 0.91602 0.0
C4178 C 0.32739 0.70891 0.90197 0.0
C4179 C 0.32318 0.69996 0.89555 0.0
C4180 C 0.29353 0.70771 0.92539 0.0
C4181 C 0.31134 0.70735 0.91425 0.0
C4182 C 0.28724 0.71211 0.93409 0.0
C4183 C 0.292 0.72012 0.94134 0.0
C4184 C 0.30465 0.71138 0.92381 0.0
C4185 C 0.30327 0.72332 0.93965 0.0
C4186 C 0.32154 0.71258 0.91131 0.0
C4187 C 0.31304 0.69484 0.89891 0.0
N4188 N 0.30917 0.71901 0.93104 0.0
N4189 N 0.30746 0.69863 0.90797 0.0
H4190 H 0.32923 0.31851 0.89953 0.0
H4191 H 0.27571 0.28866 0.9278 0.0
H4192 H 0.29665 0.31594 0.88372 0.0
H4193 H 0.30855 0.28962 0.94319 0.0
H4194 H 0.28303 0.29966 0.91213 0.0
H4195 H 0.32165 0.30885 0.91603 0.0
C4196 C 0.32047 0.31598 0.89954 0.0
C4197 C 0.31359 0.31802 0.89018 0.0
C4198 C 0.28864 0.29752 0.91895 0.0
C4199 C 0.30486 0.30688 0.90904 0.0
C4200 C 0.28443 0.2913 0.92797 0.0
C4201 C 0.29151 0.28819 0.93687 0.0
C4202 C 0.30003 0.30069 0.91877 0.0
C4203 C 0.30281 0.29171 0.93647 0.0
C4204 C 0.31616 0.31041 0.90895 0.0
C4205 C 0.30233 0.31441 0.89065 0.0
N4206 N 0.30672 0.29774 0.92757 0.0
N4207 N 0.29833 0.30903 0.8999 0.0
H4208 H 0.62543 0.68896 0.21304 0.0
H4209 H 0.58977 0.74111 0.23346 0.0
H4210 H 0.63326 0.72326 0.20432 0.0
H4211 H 0.58216 0.70695 0.24294 0.0
H4212 H 0.6052 0.73459 0.22205 0.0
H4213 H 0.60929 0.69527 0.22365 0.0
C4214 C 0.6238 0.69782 0.21339 0.0
C4215 C 0.63075 0.70558 0.20775 0.0
C4216 C 0.60013 0.7285 0.22659 0.0
C4217 C 0.61216 0.71287 0.2198 0.0
C4218 C 0.59124 0.73222 0.23304 0.0
C4219 C 0.58462 0.72458 0.2392 0.0
C4220 C 0.60248 0.71705 0.22625 0.0
C4221 C 0.58711 0.71317 0.23847 0.0
C4222 C 0.61453 0.70142 0.21939 0.0
C4223 C 0.62808 0.71695 0.20838 0.0
N4224 N 0.59584 0.70976 0.23214 0.0
N4225 N 0.61903 0.72023 0.2143 0.0
H4226 H 0.29765 0.62955 0.21599 0.0
H4227 H 0.29289 0.56777 0.24215 0.0
H4228 H 0.32633 0.60886 0.22229 0.0
H4229 H 0.26485 0.58978 0.23791 0.0
H4230 H 0.30526 0.58239 0.23441 0.0
H4231 H 0.28546 0.61467 0.22329 0.0
C4232 C 0.30139 0.62184 0.21883 0.0
C4233 C 0.31305 0.62047 0.2185 0.0
C4234 C 0.29639 0.58399 0.23516 0.0
C4235 C 0.29911 0.60337 0.22702 0.0
C4236 C 0.28933 0.57567 0.23962 0.0
C4237 C 0.27778 0.5775 0.24066 0.0
C4238 C 0.2919 0.59424 0.2317 0.0
C4239 C 0.27364 0.58787 0.2371 0.0
C4240 C 0.29442 0.61336 0.22307 0.0
C4241 C 0.3174 0.61035 0.2225 0.0
N4242 N 0.28068 0.59582 0.2328 0.0
N4243 N 0.31044 0.60219 0.22657 0.0
H4244 H 0.40304 0.3083 0.19518 0.0
H4245 H 0.42975 0.30127 0.25652 0.0
H4246 H 0.3869 0.31888 0.22545 0.0
H4247 H 0.44521 0.28886 0.22662 0.0
H4248 H 0.41455 0.30872 0.2451 0.0
H4249 H 0.41892 0.30185 0.20638 0.0
C4250 C 0.4028 0.30924 0.20418 0.0
C4251 C 0.39355 0.31412 0.20936 0.0
C4252 C 0.42128 0.30441 0.24101 0.0
C4253 C 0.41184 0.30685 0.22225 0.0
C4254 C 0.43003 0.30022 0.24753 0.0
C4255 C 0.43883 0.29444 0.24254 0.0
C4256 C 0.42125 0.30282 0.22937 0.0
C4257 C 0.43857 0.29315 0.23086 0.0
C4258 C 0.41191 0.30561 0.21057 0.0
C4259 C 0.39386 0.3153 0.22105 0.0
N4260 N 0.42993 0.2973 0.22468 0.0
N4261 N 0.40282 0.31167 0.22709 0.0
H4262 H 0.71257 0.39911 0.20093 0.0
H4263 H 0.74541 0.42649 0.25293 0.0
H4264 H 0.7131 0.38467 0.23414 0.0
H4265 H 0.74298 0.44237 0.22045 0.0
H4266 H 0.73349 0.4112 0.24617 0.0
H4267 H 0.72389 0.4149 0.20778 0.0
C4268 C 0.71511 0.39922 0.20965 0.0
C4269 C 0.71186 0.39053 0.21696 0.0
C4270 C 0.73551 0.41804 0.24052 0.0
C4271 C 0.72476 0.40866 0.2249 0.0
C4272 C 0.74226 0.42685 0.24441 0.0
C4273 C 0.74522 0.4358 0.23727 0.0
C4274 C 0.73168 0.4181 0.22938 0.0
C4275 C 0.74106 0.43561 0.22623 0.0
C4276 C 0.72151 0.40829 0.21358 0.0
C4277 C 0.71528 0.39123 0.22822 0.0
N4278 N 0.73453 0.4269 0.22262 0.0
N4279 N 0.72154 0.40011 0.23182 0.0
H4280 H 0.6198 0.32347 0.8125 0.0
H4281 H 0.59206 0.26911 0.7842 0.0
H4282 H 0.63191 0.29001 0.81745 0.0
H4283 H 0.57825 0.30207 0.78076 0.0
H4284 H 0.60651 0.27668 0.79665 0.0
H4285 H 0.60453 0.31593 0.80085 0.0
C4286 C 0.61928 0.31454 0.81112 0.0
C4287 C 0.62716 0.30737 0.81599 0.0
C4288 C 0.6003 0.28227 0.79322 0.0
C4289 C 0.60965 0.29866 0.80272 0.0
C4290 C 0.59196 0.27792 0.78616 0.0
C4291 C 0.58386 0.28494 0.78141 0.0
C4292 C 0.60063 0.29375 0.79555 0.0
C4293 C 0.58438 0.29636 0.7841 0.0
C4294 C 0.61051 0.31024 0.80452 0.0
C4295 C 0.62596 0.29585 0.81401 0.0
N4296 N 0.59263 0.3004 0.79096 0.0
N4297 N 0.61741 0.29188 0.80752 0.0
H4298 H 0.71404 0.61178 0.83077 0.0
H4299 H 0.72123 0.58525 0.7699 0.0
H4300 H 0.70164 0.62703 0.80036 0.0
H4301 H 0.73648 0.57179 0.79985 0.0
H4302 H 0.71254 0.59965 0.78115 0.0
H4303 H 0.72106 0.59629 0.81979 0.0
C4304 C 0.7128 0.6119 0.82178 0.0
C4305 C 0.70729 0.62081 0.8165 0.0
C4306 C 0.71775 0.59352 0.78528 0.0
C4307 C 0.71522 0.60296 0.80385 0.0
C4308 C 0.72265 0.58522 0.77886 0.0
C4309 C 0.72963 0.57728 0.78392 0.0
C4310 C 0.7198 0.59389 0.79686 0.0
C4311 C 0.73129 0.57781 0.79556 0.0
C4312 C 0.71677 0.60301 0.81552 0.0
C4313 C 0.70573 0.62033 0.80484 0.0
N4314 N 0.72644 0.58598 0.80162 0.0
N4315 N 0.70971 0.6116 0.79892 0.0
H4316 H 0.40608 0.67867 0.8014 0.0
H4317 H 0.43479 0.73805 0.78709 0.0
H4318 H 0.3922 0.71015 0.81125 0.0
H4319 H 0.44622 0.7067 0.77416 0.0
H4320 H 0.42038 0.7279 0.79777 0.0
H4321 H 0.42191 0.68874 0.79301 0.0
C4322 C 0.40634 0.68771 0.8018 0.0
C4323 C 0.3977 0.69356 0.80696 0.0
C4324 C 0.42609 0.72323 0.79265 0.0
C4325 C 0.41595 0.70517 0.79743 0.0
C4326 C 0.43437 0.72902 0.78662 0.0
C4327 C 0.4417 0.72322 0.77967 0.0
C4328 C 0.42513 0.71155 0.79178 0.0
C4329 C 0.44066 0.71153 0.77928 0.0
C4330 C 0.41543 0.69345 0.79704 0.0
C4331 C 0.39868 0.70527 0.80743 0.0
N4332 N 0.43252 0.7061 0.78521 0.0
N4333 N 0.40759 0.71068 0.80267 0.0
H4334 H 0.30665 0.38449 0.80359 0.0
H4335 H 0.30958 0.44637 0.77745 0.0
H4336 H 0.33721 0.40418 0.80137 0.0
H4337 H 0.27963 0.42561 0.77777 0.0
H4338 H 0.31961 0.43155 0.78731 0.0
H4339 H 0.29635 0.40007 0.79544 0.0
C4340 C 0.31119 0.39212 0.8015 0.0
C4341 C 0.32284 0.39298 0.80315 0.0
C4342 C 0.31083 0.43027 0.78527 0.0
C4343 C 0.31109 0.41086 0.79366 0.0
C4344 C 0.3051 0.43872 0.7796 0.0
C4345 C 0.29372 0.43727 0.77674 0.0
C4346 C 0.30516 0.42027 0.78812 0.0
C4347 C 0.28833 0.42721 0.77992 0.0
C4348 C 0.30531 0.401 0.79677 0.0
C4349 C 0.32827 0.40306 0.80011 0.0
N4350 N 0.2941 0.4191 0.78538 0.0
N4351 N 0.32236 0.41158 0.7955 0.0
H4352 H 0.7276 0.63355 0.21165 0.0
H4353 H 0.72999 0.57051 0.23476 0.0
H4354 H 0.6981 0.61277 0.21662 0.0
H4355 H 0.75889 0.5925 0.23159 0.0
H4356 H 0.71815 0.58555 0.22763 0.0
H4357 H 0.7392 0.61819 0.21817 0.0
C4358 C 0.72355 0.62572 0.21403 0.0
C4359 C 0.71183 0.62448 0.21356 0.0
C4360 C 0.72709 0.58705 0.22846 0.0
C4361 C 0.72511 0.60681 0.2212 0.0
C4362 C 0.73386 0.57848 0.23258 0.0
C4363 C 0.74549 0.58018 0.23373 0.0
C4364 C 0.73198 0.59741 0.22548 0.0
C4365 C 0.75001 0.59068 0.23065 0.0
C4366 C 0.73019 0.61696 0.21783 0.0
C4367 C 0.70708 0.61417 0.21696 0.0
N4368 N 0.74327 0.59885 0.22669 0.0
N4369 N 0.71373 0.60575 0.22062 0.0
H4370 H 0.70123 0.3889 0.79139 0.0
H4371 H 0.74242 0.4406 0.80542 0.0
H4372 H 0.71072 0.39814 0.82505 0.0
H4373 H 0.73267 0.431 0.77193 0.0
H4374 H 0.73062 0.4254 0.81286 0.0
H4375 H 0.71237 0.40462 0.78422 0.0
C4376 C 0.70559 0.39428 0.79729 0.0
C4377 C 0.70498 0.39218 0.80886 0.0
C4378 C 0.73103 0.42665 0.80389 0.0
C4379 C 0.71793 0.4102 0.80066 0.0
C4380 C 0.7378 0.43531 0.79963 0.0
C4381 C 0.73856 0.43712 0.78801 0.0
C4382 C 0.72497 0.4197 0.7965 0.0
C4383 C 0.73225 0.43006 0.78094 0.0
C4384 C 0.71201 0.40324 0.79318 0.0
C4385 C 0.71102 0.39934 0.81607 0.0
N4386 N 0.72577 0.42167 0.78528 0.0
N4387 N 0.71723 0.40803 0.81185 0.0
H4388 H 0.6137 0.68562 0.80573 0.0
H4389 H 0.59427 0.74708 0.78818 0.0
H4390 H 0.63425 0.71537 0.80979 0.0
H4391 H 0.57279 0.71785 0.78523 0.0
H4392 H 0.60886 0.73551 0.7963 0.0
H4393 H 0.5986 0.69714 0.79825 0.0
C4394 C 0.61506 0.69457 0.80503 0.0
C4395 C 0.6253 0.69952 0.8084 0.0
C4396 C 0.60095 0.73161 0.79392 0.0
C4397 C 0.60798 0.71277 0.79989 0.0
C4398 C 0.59255 0.73824 0.78935 0.0
C4399 C 0.58221 0.73347 0.78607 0.0
C4400 C 0.59908 0.72006 0.79522 0.0
C4401 C 0.58064 0.72189 0.78754 0.0
C4402 C 0.6064 0.70115 0.8008 0.0
C4403 C 0.62648 0.71118 0.80744 0.0
N4404 N 0.58898 0.71559 0.79201 0.0
N4405 N 0.61796 0.71739 0.80326 0.0
H4406 H 0.30982 0.62892 0.79936 0.0
H4407 H 0.2844 0.56648 0.80056 0.0
H4408 H 0.30878 0.60816 0.82905 0.0
H4409 H 0.28326 0.58815 0.77153 0.0
H4410 H 0.29456 0.58114 0.81076 0.0
H4411 H 0.30147 0.61353 0.78864 0.0
C4412 C 0.30793 0.62109 0.80361 0.0
C4413 C 0.30997 0.61987 0.81515 0.0
C4414 C 0.29214 0.58267 0.80214 0.0
C4415 C 0.30029 0.60222 0.80293 0.0
C4416 C 0.28629 0.5743 0.79631 0.0
C4417 C 0.28291 0.57606 0.78516 0.0
C4418 C 0.29463 0.5929 0.79681 0.0
C4419 C 0.28579 0.58633 0.78006 0.0
C4420 C 0.3031 0.61232 0.7975 0.0
C4421 C 0.3072 0.60956 0.82022 0.0
N4422 N 0.29143 0.59436 0.78593 0.0
N4423 N 0.30249 0.60116 0.81409 0.0
H4424 H 0.39562 0.29078 0.81686 0.0
H4425 H 0.44524 0.30523 0.77399 0.0
H4426 H 0.40386 0.32428 0.80567 0.0
H4427 H 0.43769 0.27194 0.7862 0.0
H4428 H 0.43051 0.31245 0.78594 0.0
H4429 H 0.41135 0.28384 0.80613 0.0
C4430 C 0.40078 0.29671 0.81223 0.0
C4431 C 0.39838 0.30816 0.81221 0.0
C4432 C 0.43211 0.30358 0.78606 0.0
C4433 C 0.41639 0.3002 0.79973 0.0
C4434 C 0.44051 0.29944 0.77921 0.0
C4435 C 0.4427 0.28794 0.77904 0.0
C4436 C 0.42579 0.29618 0.79279 0.0
C4437 C 0.43639 0.28087 0.78612 0.0
C4438 C 0.40974 0.29272 0.80604 0.0
C4439 C 0.40528 0.31538 0.80584 0.0
N4440 N 0.42819 0.28509 0.79264 0.0
N4441 N 0.41394 0.31128 0.79986 0.0
H4442 H 0.30008 0.38947 0.21329 0.0
H4443 H 0.30465 0.44508 0.25001 0.0
H4444 H 0.33144 0.40475 0.22376 0.0
H4445 H 0.27324 0.43121 0.23793 0.0
H4446 H 0.3146 0.43083 0.23967 0.0
H4447 H 0.29011 0.40514 0.22137 0.0
C4448 C 0.30489 0.39616 0.21718 0.0
C4449 C 0.31664 0.39572 0.21791 0.0
C4450 C 0.30554 0.43093 0.2392 0.0
C4451 C 0.30523 0.41365 0.22731 0.0
C4452 C 0.29984 0.43906 0.24514 0.0
C4453 C 0.28808 0.43931 0.2449 0.0
C4454 C 0.29945 0.42292 0.23301 0.0
C4455 C 0.28231 0.43139 0.2383 0.0
C4456 C 0.29917 0.40509 0.22185 0.0
C4457 C 0.32238 0.4046 0.22318 0.0
N4458 N 0.28804 0.42347 0.2327 0.0
N4459 N 0.31663 0.41315 0.22771 0.0
H4460 H 0.61889 0.30809 0.19543 0.0
H4461 H 0.59675 0.29319 0.257 0.0
H4462 H 0.63886 0.31166 0.2255 0.0
H4463 H 0.57573 0.29106 0.22749 0.0
H4464 H 0.61215 0.30009 0.24547 0.0
H4465 H 0.60299 0.30179 0.20685 0.0
C4466 C 0.61995 0.30752 0.20443 0.0
C4467 C 0.63025 0.31042 0.2095 0.0
C4468 C 0.60417 0.29816 0.24149 0.0
C4469 C 0.61204 0.30328 0.22263 0.0
C4470 C 0.59531 0.29429 0.2481 0.0
C4471 C 0.58484 0.29161 0.24325 0.0
C4472 C 0.60265 0.29935 0.22988 0.0
C4473 C 0.58365 0.29294 0.2316 0.0
C4474 C 0.61084 0.30399 0.21094 0.0
C4475 C 0.63106 0.30967 0.22121 0.0
N4476 N 0.59244 0.29671 0.22532 0.0
N4477 N 0.62211 0.30615 0.22736 0.0
H4478 H 0.38713 0.72219 0.20535 0.0
H4479 H 0.448 0.71637 0.23341 0.0
H4480 H 0.40371 0.69058 0.20875 0.0
H4481 H 0.42958 0.74707 0.23154 0.0
H4482 H 0.43209 0.7066 0.22449 0.0
H4483 H 0.40284 0.7313 0.21491 0.0
C4484 C 0.39411 0.71716 0.20807 0.0
C4485 C 0.39413 0.70561 0.20615 0.0
C4486 C 0.43156 0.71548 0.22603 0.0
C4487 C 0.41222 0.71601 0.21725 0.0
C4488 C 0.44063 0.72106 0.23116 0.0
C4489 C 0.44021 0.7326 0.23315 0.0
C4490 C 0.422 0.72148 0.22289 0.0
C4491 C 0.43043 0.73823 0.22997 0.0
C4492 C 0.40308 0.72236 0.2136 0.0
C4493 C 0.40332 0.6995 0.2101 0.0
N4494 N 0.42177 0.73263 0.22501 0.0
N4495 N 0.41203 0.70478 0.21541 0.0
loop_
_geom_bond_atom_site_label_1
_geom_bond_atom_site_label_2
_geom_bond_distance
_geom_bond_site_symmetry_2
_ccdc_geom_bond_type
C0 C1 1.264 . S
C0 C5 1.479 . S
C0 C10 1.465 . S
C1 C0 1.264 . S
C1 C3 1.339 . S
C1 H28 0.931 . S
C2 C3 1.395 . S
C2 C4 1.320 . S
C3 C1 1.339 . S
C3 C2 1.395 . S
C3 H29 0.929 . S
C4 C2 1.320 . S
C4 C5 1.405 . S
C4 H30 0.930 . S
C5 C0 1.479 . S
C5 C4 1.405 . S
C5 H31 0.931 . S
U6 O7 2.454 . S
U6 O8 2.458 . S
U6 C9 2.984 . S
U6 C10 2.847 . S
U6 C23 2.882 . S
U6 O24 2.441 . S
U6 O25 2.420 . S
U6 O26 2.455 . S
U6 O27 2.449 . S
O7 U6 2.454 . S
O7 C9 1.353 . S
O8 U6 2.458 . S
O8 C9 1.286 . S
C9 U6 2.984 . S
C9 O7 1.353 . S
C9 O8 1.286 . S
C9 C11 1.363 . S
C10 C0 1.465 . S
C10 U6 2.847 . S
C10 O24 1.249 . S
C10 O25 1.202 . S
C11 C9 1.363 . S
C11 C13 1.408 . S
C11 C16 1.342 . S
C12 C13 1.310 . S
C12 C15 1.461 . S
C12 H32 0.932 . S
C13 C11 1.408 . S
C13 C12 1.310 . S
C13 H33 0.930 . S
C14 C15 1.474 . S
C14 C16 1.285 . S
C14 H34 0.929 . S
C15 C12 1.461 . S
C15 C14 1.474 . S
C16 C11 1.342 . S
C16 C14 1.285 . S
C16 H35 0.930 . S
C17 C20 1.424 . S
C17 C22 1.245 . S
C17 C23 1.428 . S
C18 C21 1.260 . S
C18 C22 1.477 . S
C18 H36 0.932 . S
C19 C20 1.384 . S
C19 C21 1.479 . S
C19 H37 0.929 . S
C20 C17 1.424 . S
C20 C19 1.384 . S
C20 H38 0.928 . S
C21 C18 1.260 . S
C21 C19 1.479 . S
C22 C17 1.245 . S
C22 C18 1.477 . S
C22 H39 0.932 . S
C23 U6 2.882 . S
C23 C17 1.428 . S
C23 O26 1.301 . S
C23 O27 1.282 . S
O24 U6 2.441 . S
O24 C10 1.249 . S
O25 U6 2.420 . S
O25 C10 1.202 . S
O26 U6 2.455 . S
O26 C23 1.301 . S
O27 U6 2.449 . S
O27 C23 1.282 . S
H28 C1 0.931 . S
H29 C3 0.929 . S
H30 C4 0.930 . S
H31 C5 0.931 . S
H32 C12 0.932 . S
H33 C13 0.930 . S
H34 C14 0.929 . S
H35 C16 0.930 . S
H36 C18 0.932 . S
H37 C19 0.929 . S
H38 C20 0.928 . S
H39 C22 0.932 . S
C40 C41 1.264 . S
C40 C45 1.479 . S
C40 C50 1.465 . S
C41 C40 1.264 . S
C41 C43 1.339 . S
C41 H68 0.931 . S
C42 C43 1.395 . S
C42 C44 1.320 . S
C43 C41 1.339 . S
C43 C42 1.395 . S
C43 H69 0.929 . S
C44 C42 1.320 . S
C44 C45 1.405 . S
C44 H70 0.930 . S
C45 C40 1.479 . S
C45 C44 1.405 . S
C45 H71 0.931 . S
U46 O47 2.454 . S
U46 O48 2.458 . S
U46 C49 2.984 . S
U46 C50 2.847 . S
U46 C63 2.882 . S
U46 O64 2.441 . S
U46 O65 2.420 . S
U46 O66 2.455 . S
U46 O67 2.449 . S
O47 U46 2.454 . S
O47 C49 1.353 . S
O48 U46 2.458 . S
O48 C49 1.286 . S
C49 U46 2.984 . S
C49 O47 1.353 . S
C49 O48 1.286 . S
C49 C51 1.363 . S
C50 C40 1.465 . S
C50 U46 2.847 . S
C50 O64 1.249 . S
C50 O65 1.202 . S
C51 C49 1.363 . S
C51 C53 1.408 . S
C51 C56 1.342 . S
C52 C53 1.310 . S
C52 C55 1.461 . S
C52 H72 0.932 . S
C53 C51 1.408 . S
C53 C52 1.310 . S
C53 H73 0.930 . S
C54 C55 1.474 . S
C54 C56 1.285 . S
C54 H74 0.929 . S
C55 C52 1.461 . S
C55 C54 1.474 . S
C56 C51 1.342 . S
C56 C54 1.285 . S
C56 H75 0.930 . S
C57 C60 1.424 . S
C57 C62 1.245 . S
C57 C63 1.428 . S
C58 C61 1.260 . S
C58 C62 1.477 . S
C58 H76 0.932 . S
C59 C60 1.384 . S
C59 C61 1.479 . S
C59 H77 0.929 . S
C60 C57 1.424 . S
C60 C59 1.384 . S
C60 H78 0.928 . S
C61 C58 1.260 . S
C61 C59 1.479 . S
C62 C57 1.245 . S
C62 C58 1.477 . S
C62 H79 0.932 . S
C63 U46 2.882 . S
C63 C57 1.428 . S
C63 O66 1.301 . S
C63 O67 1.282 . S
O64 U46 2.441 . S
O64 C50 1.249 . S
O65 U46 2.420 . S
O65 C50 1.202 . S
O66 U46 2.455 . S
O66 C63 1.301 . S
O67 U46 2.449 . S
O67 C63 1.282 . S
H68 C41 0.931 . S
H69 C43 0.929 . S
H70 C44 0.930 . S
H71 C45 0.931 . S
H72 C52 0.932 . S
H73 C53 0.930 . S
H74 C54 0.929 . S
H75 C56 0.930 . S
H76 C58 0.932 . S
H77 C59 0.929 . S
H78 C60 0.928 . S
H79 C62 0.932 . S
C80 C81 1.264 . S
C80 C85 1.479 . S
C80 C90 1.465 . S
C81 C80 1.264 . S
C81 C83 1.339 . S
C81 H108 0.931 . S
C82 C83 1.395 . S
C82 C84 1.320 . S
C83 C81 1.339 . S
C83 C82 1.395 . S
C83 H109 0.929 . S
C84 C82 1.320 . S
C84 C85 1.405 . S
C84 H110 0.930 . S
C85 C80 1.479 . S
C85 C84 1.405 . S
C85 H111 0.931 . S
U86 O87 2.454 . S
U86 O88 2.458 . S
U86 C89 2.984 . S
U86 C90 2.847 . S
U86 C103 2.882 . S
U86 O104 2.441 . S
U86 O105 2.420 . S
U86 O106 2.455 . S
U86 O107 2.449 . S
O87 U86 2.454 . S
O87 C89 1.353 . S
O88 U86 2.458 . S
O88 C89 1.286 . S
C89 U86 2.984 . S
C89 O87 1.353 . S
C89 O88 1.286 . S
C89 C91 1.363 . S
C90 C80 1.465 . S
C90 U86 2.847 . S
C90 O104 1.249 . S
C90 O105 1.202 . S
C91 C89 1.363 . S
C91 C93 1.408 . S
C91 C96 1.342 . S
C92 C93 1.310 . S
C92 C95 1.461 . S
C92 H112 0.932 . S
C93 C91 1.408 . S
C93 C92 1.310 . S
C93 H113 0.930 . S
C94 C95 1.474 . S
C94 C96 1.285 . S
C94 H114 0.929 . S
C95 C92 1.461 . S
C95 C94 1.474 . S
C96 C91 1.342 . S
C96 C94 1.285 . S
C96 H115 0.930 . S
C97 C100 1.424 . S
C97 C102 1.245 . S
C97 C103 1.428 . S
C98 C101 1.260 . S
C98 C102 1.477 . S
C98 H116 0.932 . S
C99 C100 1.384 . S
C99 C101 1.479 . S
C99 H117 0.929 . S
C100 C97 1.424 . S
C100 C99 1.384 . S
C100 H118 0.928 . S
C101 C98 1.260 . S
C101 C99 1.479 . S
C102 C97 1.245 . S
C102 C98 1.477 . S
C102 H119 0.932 . S
C103 U86 2.882 . S
C103 C97 1.428 . S
C103 O106 1.301 . S
C103 O107 1.282 . S
O104 U86 2.441 . S
O104 C90 1.249 . S
O105 U86 2.420 . S
O105 C90 1.202 . S
O106 U86 2.455 . S
O106 C103 1.301 . S
O107 U86 2.449 . S
O107 C103 1.282 . S
H108 C81 0.931 . S
H109 C83 0.929 . S
H110 C84 0.930 . S
H111 C85 0.931 . S
H112 C92 0.932 . S
H113 C93 0.930 . S
H114 C94 0.929 . S
H115 C96 0.930 . S
H116 C98 0.932 . S
H117 C99 0.929 . S
H118 C100 0.928 . S
H119 C102 0.932 . S
C120 C121 1.264 . S
C120 C125 1.479 . S
C120 C130 1.465 . S
C121 C120 1.264 . S
C121 C123 1.339 . S
C121 H148 0.931 . S
C122 C123 1.395 . S
C122 C124 1.320 . S
C123 C121 1.339 . S
C123 C122 1.395 . S
C123 H149 0.929 . S
C124 C122 1.320 . S
C124 C125 1.405 . S
C124 H150 0.930 . S
C125 C120 1.479 . S
C125 C124 1.405 . S
C125 H151 0.931 . S
U126 O127 2.454 . S
U126 O128 2.458 . S
U126 C129 2.984 . S
U126 C130 2.847 . S
U126 C143 2.882 . S
U126 O144 2.441 . S
U126 O145 2.420 . S
U126 O146 2.455 . S
U126 O147 2.449 . S
O127 U126 2.454 . S
O127 C129 1.353 . S
O128 U126 2.458 . S
O128 C129 1.286 . S
C129 U126 2.984 . S
C129 O127 1.353 . S
C129 O128 1.286 . S
C129 C131 1.363 . S
C130 C120 1.465 . S
C130 U126 2.847 . S
C130 O144 1.249 . S
C130 O145 1.202 . S
C131 C129 1.363 . S
C131 C133 1.408 . S
C131 C136 1.342 . S
C132 C133 1.310 . S
C132 C135 1.461 . S
C132 H152 0.932 . S
C133 C131 1.408 . S
C133 C132 1.310 . S
C133 H153 0.930 . S
C134 C135 1.474 . S
C134 C136 1.285 . S
C134 H154 0.929 . S
C135 C132 1.461 . S
C135 C134 1.474 . S
C136 C131 1.342 . S
C136 C134 1.285 . S
C136 H155 0.930 . S
C137 C140 1.424 . S
C137 C142 1.245 . S
C137 C143 1.428 . S
C138 C141 1.260 . S
C138 C142 1.477 . S
C138 H156 0.932 . S
C139 C140 1.384 . S
C139 C141 1.479 . S
C139 H157 0.929 . S
C140 C137 1.424 . S
C140 C139 1.384 . S
C140 H158 0.928 . S
C141 C138 1.260 . S
C141 C139 1.479 . S
C142 C137 1.245 . S
C142 C138 1.477 . S
C142 H159 0.932 . S
C143 U126 2.882 . S
C143 C137 1.428 . S
C143 O146 1.301 . S
C143 O147 1.282 . S
O144 U126 2.441 . S
O144 C130 1.249 . S
O145 U126 2.420 . S
O145 C130 1.202 . S
O146 U126 2.455 . S
O146 C143 1.301 . S
O147 U126 2.449 . S
O147 C143 1.282 . S
H148 C121 0.931 . S
H149 C123 0.929 . S
H150 C124 0.930 . S
H151 C125 0.931 . S
H152 C132 0.932 . S
H153 C133 0.930 . S
H154 C134 0.929 . S
H155 C136 0.930 . S
H156 C138 0.932 . S
H157 C139 0.929 . S
H158 C140 0.928 . S
H159 C142 0.932 . S
C160 C161 1.264 . S
C160 C165 1.479 . S
C160 C170 1.465 . S
C161 C160 1.264 . S
C161 C163 1.339 . S
C161 H188 0.931 . S
C162 C163 1.395 . S
C162 C164 1.320 . S
C163 C161 1.339 . S
C163 C162 1.395 . S
C163 H189 0.929 . S
C164 C162 1.320 . S
C164 C165 1.405 . S
C164 H190 0.930 . S
C165 C160 1.479 . S
C165 C164 1.405 . S
C165 H191 0.931 . S
U166 O167 2.454 . S
U166 O168 2.458 . S
U166 C169 2.984 . S
U166 C170 2.847 . S
U166 C183 2.882 . S
U166 O184 2.441 . S
U166 O185 2.420 . S
U166 O186 2.455 . S
U166 O187 2.449 . S
O167 U166 2.454 . S
O167 C169 1.353 . S
O168 U166 2.458 . S
O168 C169 1.286 . S
C169 U166 2.984 . S
C169 O167 1.353 . S
C169 O168 1.286 . S
C169 C171 1.363 . S
C170 C160 1.465 . S
C170 U166 2.847 . S
C170 O184 1.249 . S
C170 O185 1.202 . S
C171 C169 1.363 . S
C171 C173 1.408 . S
C171 C176 1.342 . S
C172 C173 1.310 . S
C172 C175 1.461 . S
C172 H192 0.932 . S
C173 C171 1.408 . S
C173 C172 1.310 . S
C173 H193 0.930 . S
C174 C175 1.474 . S
C174 C176 1.285 . S
C174 H194 0.929 . S
C175 C172 1.461 . S
C175 C174 1.474 . S
C176 C171 1.342 . S
C176 C174 1.285 . S
C176 H195 0.930 . S
C177 C180 1.424 . S
C177 C182 1.245 . S
C177 C183 1.428 . S
C178 C181 1.260 . S
C178 C182 1.477 . S
C178 H196 0.932 . S
C179 C180 1.384 . S
C179 C181 1.479 . S
C179 H197 0.929 . S
C180 C177 1.424 . S
C180 C179 1.384 . S
C180 H198 0.928 . S
C181 C178 1.260 . S
C181 C179 1.479 . S
C182 C177 1.245 . S
C182 C178 1.477 . S
C182 H199 0.932 . S
C183 U166 2.882 . S
C183 C177 1.428 . S
C183 O186 1.301 . S
C183 O187 1.282 . S
O184 U166 2.441 . S
O184 C170 1.249 . S
O185 U166 2.420 . S
O185 C170 1.202 . S
O186 U166 2.455 . S
O186 C183 1.301 . S
O187 U166 2.449 . S
O187 C183 1.282 . S
H188 C161 0.931 . S
H189 C163 0.929 . S
H190 C164 0.930 . S
H191 C165 0.931 . S
H192 C172 0.932 . S
H193 C173 0.930 . S
H194 C174 0.929 . S
H195 C176 0.930 . S
H196 C178 0.932 . S
H197 C179 0.929 . S
H198 C180 0.928 . S
H199 C182 0.932 . S
C200 C201 1.264 . S
C200 C205 1.479 . S
C200 C210 1.465 . S
C201 C200 1.264 . S
C201 C203 1.339 . S
C201 H228 0.931 . S
C202 C203 1.395 . S
C202 C204 1.320 . S
C203 C201 1.339 . S
C203 C202 1.395 . S
C203 H229 0.929 . S
C204 C202 1.320 . S
C204 C205 1.405 . S
C204 H230 0.930 . S
C205 C200 1.479 . S
C205 C204 1.405 . S
C205 H231 0.931 . S
U206 O207 2.454 . S
U206 O208 2.458 . S
U206 C209 2.984 . S
U206 C210 2.847 . S
U206 C223 2.882 . S
U206 O224 2.441 . S
U206 O225 2.420 . S
U206 O226 2.455 . S
U206 O227 2.449 . S
O207 U206 2.454 . S
O207 C209 1.353 . S
O208 U206 2.458 . S
O208 C209 1.286 . S
C209 U206 2.984 . S
C209 O207 1.353 . S
C209 O208 1.286 . S
C209 C211 1.363 . S
C210 C200 1.465 . S
C210 U206 2.847 . S
C210 O224 1.249 . S
C210 O225 1.202 . S
C211 C209 1.363 . S
C211 C213 1.408 . S
C211 C216 1.342 . S
C212 C213 1.310 . S
C212 C215 1.461 . S
C212 H232 0.932 . S
C213 C211 1.408 . S
C213 C212 1.310 . S
C213 H233 0.930 . S
C214 C215 1.474 . S
C214 C216 1.285 . S
C214 H234 0.929 . S
C215 C212 1.461 . S
C215 C214 1.474 . S
C216 C211 1.342 . S
C216 C214 1.285 . S
C216 H235 0.930 . S
C217 C220 1.424 . S
C217 C222 1.245 . S
C217 C223 1.428 . S
C218 C221 1.260 . S
C218 C222 1.477 . S
C218 H236 0.932 . S
C219 C220 1.384 . S
C219 C221 1.479 . S
C219 H237 0.929 . S
C220 C217 1.424 . S
C220 C219 1.384 . S
C220 H238 0.928 . S
C221 C218 1.260 . S
C221 C219 1.479 . S
C222 C217 1.245 . S
C222 C218 1.477 . S
C222 H239 0.932 . S
C223 U206 2.882 . S
C223 C217 1.428 . S
C223 O226 1.301 . S
C223 O227 1.282 . S
O224 U206 2.441 . S
O224 C210 1.249 . S
O225 U206 2.420 . S
O225 C210 1.202 . S
O226 U206 2.455 . S
O226 C223 1.301 . S
O227 U206 2.449 . S
O227 C223 1.282 . S
H228 C201 0.931 . S
H229 C203 0.929 . S
H230 C204 0.930 . S
H231 C205 0.931 . S
H232 C212 0.932 . S
H233 C213 0.930 . S
H234 C214 0.929 . S
H235 C216 0.930 . S
H236 C218 0.932 . S
H237 C219 0.929 . S
H238 C220 0.928 . S
H239 C222 0.932 . S
C240 C241 1.264 . S
C240 C245 1.479 . S
C240 C250 1.465 . S
C241 C240 1.264 . S
C241 C243 1.339 . S
C241 H268 0.931 . S
C242 C243 1.395 . S
C242 C244 1.320 . S
C243 C241 1.339 . S
C243 C242 1.395 . S
C243 H269 0.929 . S
C244 C242 1.320 . S
C244 C245 1.405 . S
C244 H270 0.930 . S
C245 C240 1.479 . S
C245 C244 1.405 . S
C245 H271 0.931 . S
U246 O247 2.454 . S
U246 O248 2.458 . S
U246 C249 2.984 . S
U246 C250 2.847 . S
U246 C263 2.882 . S
U246 O264 2.441 . S
U246 O265 2.420 . S
U246 O266 2.455 . S
U246 O267 2.449 . S
O247 U246 2.454 . S
O247 C249 1.353 . S
O248 U246 2.458 . S
O248 C249 1.286 . S
C249 U246 2.984 . S
C249 O247 1.353 . S
C249 O248 1.286 . S
C249 C251 1.363 . S
C250 C240 1.465 . S
C250 U246 2.847 . S
C250 O264 1.249 . S
C250 O265 1.202 . S
C251 C249 1.363 . S
C251 C253 1.408 . S
C251 C256 1.342 . S
C252 C253 1.310 . S
C252 C255 1.461 . S
C252 H272 0.932 . S
C253 C251 1.408 . S
C253 C252 1.310 . S
C253 H273 0.930 . S
C254 C255 1.474 . S
C254 C256 1.285 . S
C254 H274 0.929 . S
C255 C252 1.461 . S
C255 C254 1.474 . S
C256 C251 1.342 . S
C256 C254 1.285 . S
C256 H275 0.930 . S
C257 C260 1.424 . S
C257 C262 1.245 . S
C257 C263 1.428 . S
C258 C261 1.260 . S
C258 C262 1.477 . S
C258 H276 0.932 . S
C259 C260 1.384 . S
C259 C261 1.479 . S
C259 H277 0.929 . S
C260 C257 1.424 . S
C260 C259 1.384 . S
C260 H278 0.928 . S
C261 C258 1.260 . S
C261 C259 1.479 . S
C262 C257 1.245 . S
C262 C258 1.477 . S
C262 H279 0.932 . S
C263 U246 2.882 . S
C263 C257 1.428 . S
C263 O266 1.301 . S
C263 O267 1.282 . S
O264 U246 2.441 . S
O264 C250 1.249 . S
O265 U246 2.420 . S
O265 C250 1.202 . S
O266 U246 2.455 . S
O266 C263 1.301 . S
O267 U246 2.449 . S
O267 C263 1.282 . S
H268 C241 0.931 . S
H269 C243 0.929 . S
H270 C244 0.930 . S
H271 C245 0.931 . S
H272 C252 0.932 . S
H273 C253 0.930 . S
H274 C254 0.929 . S
H275 C256 0.930 . S
H276 C258 0.932 . S
H277 C259 0.929 . S
H278 C260 0.928 . S
H279 C262 0.932 . S
C280 C281 1.264 . S
C280 C285 1.479 . S
C280 C290 1.465 . S
C281 C280 1.264 . S
C281 C283 1.339 . S
C281 H308 0.931 . S
C282 C283 1.395 . S
C282 C284 1.320 . S
C283 C281 1.339 . S
C283 C282 1.395 . S
C283 H309 0.929 . S
C284 C282 1.320 . S
C284 C285 1.405 . S
C284 H310 0.930 . S
C285 C280 1.479 . S
C285 C284 1.405 . S
C285 H311 0.931 . S
U286 O287 2.454 . S
U286 O288 2.458 . S
U286 C289 2.984 . S
U286 C290 2.847 . S
U286 C303 2.882 . S
U286 O304 2.441 . S
U286 O305 2.420 . S
U286 O306 2.455 . S
U286 O307 2.449 . S
O287 U286 2.454 . S
O287 C289 1.353 . S
O288 U286 2.458 . S
O288 C289 1.286 . S
C289 U286 2.984 . S
C289 O287 1.353 . S
C289 O288 1.286 . S
C289 C291 1.363 . S
C290 C280 1.465 . S
C290 U286 2.847 . S
C290 O304 1.249 . S
C290 O305 1.202 . S
C291 C289 1.363 . S
C291 C293 1.408 . S
C291 C296 1.342 . S
C292 C293 1.310 . S
C292 C295 1.461 . S
C292 H312 0.932 . S
C293 C291 1.408 . S
C293 C292 1.310 . S
C293 H313 0.930 . S
C294 C295 1.474 . S
C294 C296 1.285 . S
C294 H314 0.929 . S
C295 C292 1.461 . S
C295 C294 1.474 . S
C296 C291 1.342 . S
C296 C294 1.285 . S
C296 H315 0.930 . S
C297 C300 1.424 . S
C297 C302 1.245 . S
C297 C303 1.428 . S
C298 C301 1.260 . S
C298 C302 1.477 . S
C298 H316 0.932 . S
C299 C300 1.384 . S
C299 C301 1.479 . S
C299 H317 0.929 . S
C300 C297 1.424 . S
C300 C299 1.384 . S
C300 H318 0.928 . S
C301 C298 1.260 . S
C301 C299 1.479 . S
C302 C297 1.245 . S
C302 C298 1.477 . S
C302 H319 0.932 . S
C303 U286 2.882 . S
C303 C297 1.428 . S
C303 O306 1.301 . S
C303 O307 1.282 . S
O304 U286 2.441 . S
O304 C290 1.249 . S
O305 U286 2.420 . S
O305 C290 1.202 . S
O306 U286 2.455 . S
O306 C303 1.301 . S
O307 U286 2.449 . S
O307 C303 1.282 . S
H308 C281 0.931 . S
H309 C283 0.929 . S
H310 C284 0.930 . S
H311 C285 0.931 . S
H312 C292 0.932 . S
H313 C293 0.930 . S
H314 C294 0.929 . S
H315 C296 0.930 . S
H316 C298 0.932 . S
H317 C299 0.929 . S
H318 C300 0.928 . S
H319 C302 0.932 . S
C320 C321 1.264 . S
C320 C325 1.479 . S
C320 C330 1.465 . S
C321 C320 1.264 . S
C321 C323 1.339 . S
C321 H348 0.931 . S
C322 C323 1.395 . S
C322 C324 1.320 . S
C323 C321 1.339 . S
C323 C322 1.395 . S
C323 H349 0.929 . S
C324 C322 1.320 . S
C324 C325 1.405 . S
C324 H350 0.930 . S
C325 C320 1.479 . S
C325 C324 1.405 . S
C325 H351 0.931 . S
U326 O327 2.454 . S
U326 O328 2.458 . S
U326 C329 2.984 . S
U326 C330 2.847 . S
U326 C343 2.882 . S
U326 O344 2.441 . S
U326 O345 2.420 . S
U326 O346 2.455 . S
U326 O347 2.449 . S
O327 U326 2.454 . S
O327 C329 1.353 . S
O328 U326 2.458 . S
O328 C329 1.286 . S
C329 U326 2.984 . S
C329 O327 1.353 . S
C329 O328 1.286 . S
C329 C331 1.363 . S
C330 C320 1.465 . S
C330 U326 2.847 . S
C330 O344 1.249 . S
C330 O345 1.202 . S
C331 C329 1.363 . S
C331 C333 1.408 . S
C331 C336 1.342 . S
C332 C333 1.310 . S
C332 C335 1.461 . S
C332 H352 0.932 . S
C333 C331 1.408 . S
C333 C332 1.310 . S
C333 H353 0.930 . S
C334 C335 1.474 . S
C334 C336 1.285 . S
C334 H354 0.929 . S
C335 C332 1.461 . S
C335 C334 1.474 . S
C336 C331 1.342 . S
C336 C334 1.285 . S
C336 H355 0.930 . S
C337 C340 1.424 . S
C337 C342 1.245 . S
C337 C343 1.428 . S
C338 C341 1.260 . S
C338 C342 1.477 . S
C338 H356 0.932 . S
C339 C340 1.384 . S
C339 C341 1.479 . S
C339 H357 0.929 . S
C340 C337 1.424 . S
C340 C339 1.384 . S
C340 H358 0.928 . S
C341 C338 1.260 . S
C341 C339 1.479 . S
C342 C337 1.245 . S
C342 C338 1.477 . S
C342 H359 0.932 . S
C343 U326 2.882 . S
C343 C337 1.428 . S
C343 O346 1.301 . S
C343 O347 1.282 . S
O344 U326 2.441 . S
O344 C330 1.249 . S
O345 U326 2.420 . S
O345 C330 1.202 . S
O346 U326 2.455 . S
O346 C343 1.301 . S
O347 U326 2.449 . S
O347 C343 1.282 . S
H348 C321 0.931 . S
H349 C323 0.929 . S
H350 C324 0.930 . S
H351 C325 0.931 . S
H352 C332 0.932 . S
H353 C333 0.930 . S
H354 C334 0.929 . S
H355 C336 0.930 . S
H356 C338 0.932 . S
H357 C339 0.929 . S
H358 C340 0.928 . S
H359 C342 0.932 . S
C360 C361 1.264 . S
C360 C365 1.479 . S
C360 C370 1.465 . S
C361 C360 1.264 . S
C361 C363 1.339 . S
C361 H388 0.931 . S
C362 C363 1.395 . S
C362 C364 1.320 . S
C363 C361 1.339 . S
C363 C362 1.395 . S
C363 H389 0.929 . S
C364 C362 1.320 . S
C364 C365 1.405 . S
C364 H390 0.930 . S
C365 C360 1.479 . S
C365 C364 1.405 . S
C365 H391 0.931 . S
U366 O367 2.454 . S
U366 O368 2.458 . S
U366 C369 2.984 . S
U366 C370 2.847 . S
U366 C383 2.882 . S
U366 O384 2.441 . S
U366 O385 2.420 . S
U366 O386 2.455 . S
U366 O387 2.449 . S
O367 U366 2.454 . S
O367 C369 1.353 . S
O368 U366 2.458 . S
O368 C369 1.286 . S
C369 U366 2.984 . S
C369 O367 1.353 . S
C369 O368 1.286 . S
C369 C371 1.363 . S
C370 C360 1.465 . S
C370 U366 2.847 . S
C370 O384 1.249 . S
C370 O385 1.202 . S
C371 C369 1.363 . S
C371 C373 1.408 . S
C371 C376 1.342 . S
C372 C373 1.310 . S
C372 C375 1.461 . S
C372 H392 0.932 . S
C373 C371 1.408 . S
C373 C372 1.310 . S
C373 H393 0.930 . S
C374 C375 1.474 . S
C374 C376 1.285 . S
C374 H394 0.929 . S
C375 C372 1.461 . S
C375 C374 1.474 . S
C376 C371 1.342 . S
C376 C374 1.285 . S
C376 H395 0.930 . S
C377 C380 1.424 . S
C377 C382 1.245 . S
C377 C383 1.428 . S
C378 C381 1.260 . S
C378 C382 1.477 . S
C378 H396 0.932 . S
C379 C380 1.384 . S
C379 C381 1.479 . S
C379 H397 0.929 . S
C380 C377 1.424 . S
C380 C379 1.384 . S
C380 H398 0.928 . S
C381 C378 1.260 . S
C381 C379 1.479 . S
C382 C377 1.245 . S
C382 C378 1.477 . S
C382 H399 0.932 . S
C383 U366 2.882 . S
C383 C377 1.428 . S
C383 O386 1.301 . S
C383 O387 1.282 . S
O384 U366 2.441 . S
O384 C370 1.249 . S
O385 U366 2.420 . S
O385 C370 1.202 . S
O386 U366 2.455 . S
O386 C383 1.301 . S
O387 U366 2.449 . S
O387 C383 1.282 . S
H388 C361 0.931 . S
H389 C363 0.929 . S
H390 C364 0.930 . S
H391 C365 0.931 . S
H392 C372 0.932 . S
H393 C373 0.930 . S
H394 C374 0.929 . S
H395 C376 0.930 . S
H396 C378 0.932 . S
H397 C379 0.929 . S
H398 C380 0.928 . S
H399 C382 0.932 . S
C400 C401 1.264 . S
C400 C405 1.479 . S
C400 C410 1.465 . S
C401 C400 1.264 . S
C401 C403 1.339 . S
C401 H428 0.931 . S
C402 C403 1.395 . S
C402 C404 1.320 . S
C403 C401 1.339 . S
C403 C402 1.395 . S
C403 H429 0.929 . S
C404 C402 1.320 . S
C404 C405 1.405 . S
C404 H430 0.930 . S
C405 C400 1.479 . S
C405 C404 1.405 . S
C405 H431 0.931 . S
U406 O407 2.454 . S
U406 O408 2.458 . S
U406 C409 2.984 . S
U406 C410 2.847 . S
U406 C423 2.882 . S
U406 O424 2.441 . S
U406 O425 2.420 . S
U406 O426 2.455 . S
U406 O427 2.449 . S
O407 U406 2.454 . S
O407 C409 1.353 . S
O408 U406 2.458 . S
O408 C409 1.286 . S
C409 U406 2.984 . S
C409 O407 1.353 . S
C409 O408 1.286 . S
C409 C411 1.363 . S
C410 C400 1.465 . S
C410 U406 2.847 . S
C410 O424 1.249 . S
C410 O425 1.202 . S
C411 C409 1.363 . S
C411 C413 1.408 . S
C411 C416 1.342 . S
C412 C413 1.310 . S
C412 C415 1.461 . S
C412 H432 0.932 . S
C413 C411 1.408 . S
C413 C412 1.310 . S
C413 H433 0.930 . S
C414 C415 1.474 . S
C414 C416 1.285 . S
C414 H434 0.929 . S
C415 C412 1.461 . S
C415 C414 1.474 . S
C416 C411 1.342 . S
C416 C414 1.285 . S
C416 H435 0.930 . S
C417 C420 1.424 . S
C417 C422 1.245 . S
C417 C423 1.428 . S
C418 C421 1.260 . S
C418 C422 1.477 . S
C418 H436 0.932 . S
C419 C420 1.384 . S
C419 C421 1.479 . S
C419 H437 0.929 . S
C420 C417 1.424 . S
C420 C419 1.384 . S
C420 H438 0.928 . S
C421 C418 1.260 . S
C421 C419 1.479 . S
C422 C417 1.245 . S
C422 C418 1.477 . S
C422 H439 0.932 . S
C423 U406 2.882 . S
C423 C417 1.428 . S
C423 O426 1.301 . S
C423 O427 1.282 . S
O424 U406 2.441 . S
O424 C410 1.249 . S
O425 U406 2.420 . S
O425 C410 1.202 . S
O426 U406 2.455 . S
O426 C423 1.301 . S
O427 U406 2.449 . S
O427 C423 1.282 . S
H428 C401 0.931 . S
H429 C403 0.929 . S
H430 C404 0.930 . S
H431 C405 0.931 . S
H432 C412 0.932 . S
H433 C413 0.930 . S
H434 C414 0.929 . S
H435 C416 0.930 . S
H436 C418 0.932 . S
H437 C419 0.929 . S
H438 C420 0.928 . S
H439 C422 0.932 . S
C440 C441 1.264 . S
C440 C445 1.479 . S
C440 C450 1.465 . S
C441 C440 1.264 . S
C441 C443 1.339 . S
C441 H468 0.931 . S
C442 C443 1.395 . S
C442 C444 1.320 . S
C443 C441 1.339 . S
C443 C442 1.395 . S
C443 H469 0.929 . S
C444 C442 1.320 . S
C444 C445 1.405 . S
C444 H470 0.930 . S
C445 C440 1.479 . S
C445 C444 1.405 . S
C445 H471 0.931 . S
U446 O447 2.454 . S
U446 O448 2.458 . S
U446 C449 2.984 . S
U446 C450 2.847 . S
U446 C463 2.882 . S
U446 O464 2.441 . S
U446 O465 2.420 . S
U446 O466 2.455 . S
U446 O467 2.449 . S
O447 U446 2.454 . S
O447 C449 1.353 . S
O448 U446 2.458 . S
O448 C449 1.286 . S
C449 U446 2.984 . S
C449 O447 1.353 . S
C449 O448 1.286 . S
C449 C451 1.363 . S
C450 C440 1.465 . S
C450 U446 2.847 . S
C450 O464 1.249 . S
C450 O465 1.202 . S
C451 C449 1.363 . S
C451 C453 1.408 . S
C451 C456 1.342 . S
C452 C453 1.310 . S
C452 C455 1.461 . S
C452 H472 0.932 . S
C453 C451 1.408 . S
C453 C452 1.310 . S
C453 H473 0.930 . S
C454 C455 1.474 . S
C454 C456 1.285 . S
C454 H474 0.929 . S
C455 C452 1.461 . S
C455 C454 1.474 . S
C456 C451 1.342 . S
C456 C454 1.285 . S
C456 H475 0.930 . S
C457 C460 1.424 . S
C457 C462 1.245 . S
C457 C463 1.428 . S
C458 C461 1.260 . S
C458 C462 1.477 . S
C458 H476 0.932 . S
C459 C460 1.384 . S
C459 C461 1.479 . S
C459 H477 0.929 . S
C460 C457 1.424 . S
C460 C459 1.384 . S
C460 H478 0.928 . S
C461 C458 1.260 . S
C461 C459 1.479 . S
C462 C457 1.245 . S
C462 C458 1.477 . S
C462 H479 0.932 . S
C463 U446 2.882 . S
C463 C457 1.428 . S
C463 O466 1.301 . S
C463 O467 1.282 . S
O464 U446 2.441 . S
O464 C450 1.249 . S
O465 U446 2.420 . S
O465 C450 1.202 . S
O466 U446 2.455 . S
O466 C463 1.301 . S
O467 U446 2.449 . S
O467 C463 1.282 . S
H468 C441 0.931 . S
H469 C443 0.929 . S
H470 C444 0.930 . S
H471 C445 0.931 . S
H472 C452 0.932 . S
H473 C453 0.930 . S
H474 C454 0.929 . S
H475 C456 0.930 . S
H476 C458 0.932 . S
H477 C459 0.929 . S
H478 C460 0.928 . S
H479 C462 0.932 . S
C480 C481 1.264 . S
C480 C485 1.479 . S
C480 C490 1.465 . S
C481 C480 1.264 . S
C481 C483 1.339 . S
C481 H508 0.931 . S
C482 C483 1.395 . S
C482 C484 1.320 . S
C483 C481 1.339 . S
C483 C482 1.395 . S
C483 H509 0.929 . S
C484 C482 1.320 . S
C484 C485 1.405 . S
C484 H510 0.930 . S
C485 C480 1.479 . S
C485 C484 1.405 . S
C485 H511 0.931 . S
U486 O487 2.454 . S
U486 O488 2.458 . S
U486 C489 2.984 . S
U486 C490 2.847 . S
U486 C503 2.882 . S
U486 O504 2.441 . S
U486 O505 2.420 . S
U486 O506 2.455 . S
U486 O507 2.449 . S
O487 U486 2.454 . S
O487 C489 1.353 . S
O488 U486 2.458 . S
O488 C489 1.286 . S
C489 U486 2.984 . S
C489 O487 1.353 . S
C489 O488 1.286 . S
C489 C491 1.363 . S
C490 C480 1.465 . S
C490 U486 2.847 . S
C490 O504 1.249 . S
C490 O505 1.202 . S
C491 C489 1.363 . S
C491 C493 1.408 . S
C491 C496 1.342 . S
C492 C493 1.310 . S
C492 C495 1.461 . S
C492 H512 0.932 . S
C493 C491 1.408 . S
C493 C492 1.310 . S
C493 H513 0.930 . S
C494 C495 1.474 . S
C494 C496 1.285 . S
C494 H514 0.929 . S
C495 C492 1.461 . S
C495 C494 1.474 . S
C496 C491 1.342 . S
C496 C494 1.285 . S
C496 H515 0.930 . S
C497 C500 1.424 . S
C497 C502 1.245 . S
C497 C503 1.428 . S
C498 C501 1.260 . S
C498 C502 1.477 . S
C498 H516 0.932 . S
C499 C500 1.384 . S
C499 C501 1.479 . S
C499 H517 0.929 . S
C500 C497 1.424 . S
C500 C499 1.384 . S
C500 H518 0.928 . S
C501 C498 1.260 . S
C501 C499 1.479 . S
C502 C497 1.245 . S
C502 C498 1.477 . S
C502 H519 0.932 . S
C503 U486 2.882 . S
C503 C497 1.428 . S
C503 O506 1.301 . S
C503 O507 1.282 . S
O504 U486 2.441 . S
O504 C490 1.249 . S
O505 U486 2.420 . S
O505 C490 1.202 . S
O506 U486 2.455 . S
O506 C503 1.301 . S
O507 U486 2.449 . S
O507 C503 1.282 . S
H508 C481 0.931 . S
H509 C483 0.929 . S
H510 C484 0.930 . S
H511 C485 0.931 . S
H512 C492 0.932 . S
H513 C493 0.930 . S
H514 C494 0.929 . S
H515 C496 0.930 . S
H516 C498 0.932 . S
H517 C499 0.929 . S
H518 C500 0.928 . S
H519 C502 0.932 . S
C520 C521 1.264 . S
C520 C525 1.479 . S
C520 C530 1.465 . S
C521 C520 1.264 . S
C521 C523 1.339 . S
C521 H548 0.931 . S
C522 C523 1.395 . S
C522 C524 1.320 . S
C523 C521 1.339 . S
C523 C522 1.395 . S
C523 H549 0.929 . S
C524 C522 1.320 . S
C524 C525 1.405 . S
C524 H550 0.930 . S
C525 C520 1.479 . S
C525 C524 1.405 . S
C525 H551 0.931 . S
U526 O527 2.454 . S
U526 O528 2.458 . S
U526 C529 2.984 . S
U526 C530 2.847 . S
U526 C543 2.882 . S
U526 O544 2.441 . S
U526 O545 2.420 . S
U526 O546 2.455 . S
U526 O547 2.449 . S
O527 U526 2.454 . S
O527 C529 1.353 . S
O528 U526 2.458 . S
O528 C529 1.286 . S
C529 U526 2.984 . S
C529 O527 1.353 . S
C529 O528 1.286 . S
C529 C531 1.363 . S
C530 C520 1.465 . S
C530 U526 2.847 . S
C530 O544 1.249 . S
C530 O545 1.202 . S
C531 C529 1.363 . S
C531 C533 1.408 . S
C531 C536 1.342 . S
C532 C533 1.310 . S
C532 C535 1.461 . S
C532 H552 0.932 . S
C533 C531 1.408 . S
C533 C532 1.310 . S
C533 H553 0.930 . S
C534 C535 1.474 . S
C534 C536 1.285 . S
C534 H554 0.929 . S
C535 C532 1.461 . S
C535 C534 1.474 . S
C536 C531 1.342 . S
C536 C534 1.285 . S
C536 H555 0.930 . S
C537 C540 1.424 . S
C537 C542 1.245 . S
C537 C543 1.428 . S
C538 C541 1.260 . S
C538 C542 1.477 . S
C538 H556 0.932 . S
C539 C540 1.384 . S
C539 C541 1.479 . S
C539 H557 0.929 . S
C540 C537 1.424 . S
C540 C539 1.384 . S
C540 H558 0.928 . S
C541 C538 1.260 . S
C541 C539 1.479 . S
C542 C537 1.245 . S
C542 C538 1.477 . S
C542 H559 0.932 . S
C543 U526 2.882 . S
C543 C537 1.428 . S
C543 O546 1.301 . S
C543 O547 1.282 . S
O544 U526 2.441 . S
O544 C530 1.249 . S
O545 U526 2.420 . S
O545 C530 1.202 . S
O546 U526 2.455 . S
O546 C543 1.301 . S
O547 U526 2.449 . S
O547 C543 1.282 . S
H548 C521 0.931 . S
H549 C523 0.929 . S
H550 C524 0.930 . S
H551 C525 0.931 . S
H552 C532 0.932 . S
H553 C533 0.930 . S
H554 C534 0.929 . S
H555 C536 0.930 . S
H556 C538 0.932 . S
H557 C539 0.929 . S
H558 C540 0.928 . S
H559 C542 0.932 . S
C560 C561 1.264 . S
C560 C565 1.479 . S
C560 C570 1.465 . S
C561 C560 1.264 . S
C561 C563 1.339 . S
C561 H588 0.931 . S
C562 C563 1.395 . S
C562 C564 1.320 . S
C563 C561 1.339 . S
C563 C562 1.395 . S
C563 H589 0.929 . S
C564 C562 1.320 . S
C564 C565 1.405 . S
C564 H590 0.930 . S
C565 C560 1.479 . S
C565 C564 1.405 . S
C565 H591 0.931 . S
U566 O567 2.454 . S
U566 O568 2.458 . S
U566 C569 2.984 . S
U566 C570 2.847 . S
U566 C583 2.882 . S
U566 O584 2.441 . S
U566 O585 2.420 . S
U566 O586 2.455 . S
U566 O587 2.449 . S
O567 U566 2.454 . S
O567 C569 1.353 . S
O568 U566 2.458 . S
O568 C569 1.286 . S
C569 U566 2.984 . S
C569 O567 1.353 . S
C569 O568 1.286 . S
C569 C571 1.363 . S
C570 C560 1.465 . S
C570 U566 2.847 . S
C570 O584 1.249 . S
C570 O585 1.202 . S
C571 C569 1.363 . S
C571 C573 1.408 . S
C571 C576 1.342 . S
C572 C573 1.310 . S
C572 C575 1.461 . S
C572 H592 0.932 . S
C573 C571 1.408 . S
C573 C572 1.310 . S
C573 H593 0.930 . S
C574 C575 1.474 . S
C574 C576 1.285 . S
C574 H594 0.929 . S
C575 C572 1.461 . S
C575 C574 1.474 . S
C576 C571 1.342 . S
C576 C574 1.285 . S
C576 H595 0.930 . S
C577 C580 1.424 . S
C577 C582 1.245 . S
C577 C583 1.428 . S
C578 C581 1.260 . S
C578 C582 1.477 . S
C578 H596 0.932 . S
C579 C580 1.384 . S
C579 C581 1.479 . S
C579 H597 0.929 . S
C580 C577 1.424 . S
C580 C579 1.384 . S
C580 H598 0.928 . S
C581 C578 1.260 . S
C581 C579 1.479 . S
C582 C577 1.245 . S
C582 C578 1.477 . S
C582 H599 0.932 . S
C583 U566 2.882 . S
C583 C577 1.428 . S
C583 O586 1.301 . S
C583 O587 1.282 . S
O584 U566 2.441 . S
O584 C570 1.249 . S
O585 U566 2.420 . S
O585 C570 1.202 . S
O586 U566 2.455 . S
O586 C583 1.301 . S
O587 U566 2.449 . S
O587 C583 1.282 . S
H588 C561 0.931 . S
H589 C563 0.929 . S
H590 C564 0.930 . S
H591 C565 0.931 . S
H592 C572 0.932 . S
H593 C573 0.930 . S
H594 C574 0.929 . S
H595 C576 0.930 . S
H596 C578 0.932 . S
H597 C579 0.929 . S
H598 C580 0.928 . S
H599 C582 0.932 . S
C600 C601 1.264 . S
C600 C605 1.479 . S
C600 C610 1.465 . S
C601 C600 1.264 . S
C601 C603 1.339 . S
C601 H628 0.931 . S
C602 C603 1.395 . S
C602 C604 1.320 . S
C603 C601 1.339 . S
C603 C602 1.395 . S
C603 H629 0.929 . S
C604 C602 1.320 . S
C604 C605 1.405 . S
C604 H630 0.930 . S
C605 C600 1.479 . S
C605 C604 1.405 . S
C605 H631 0.931 . S
U606 O607 2.454 . S
U606 O608 2.458 . S
U606 C609 2.984 . S
U606 C610 2.847 . S
U606 C623 2.882 . S
U606 O624 2.441 . S
U606 O625 2.420 . S
U606 O626 2.455 . S
U606 O627 2.449 . S
O607 U606 2.454 . S
O607 C609 1.353 . S
O608 U606 2.458 . S
O608 C609 1.286 . S
C609 U606 2.984 . S
C609 O607 1.353 . S
C609 O608 1.286 . S
C609 C611 1.363 . S
C610 C600 1.465 . S
C610 U606 2.847 . S
C610 O624 1.249 . S
C610 O625 1.202 . S
C611 C609 1.363 . S
C611 C613 1.408 . S
C611 C616 1.342 . S
C612 C613 1.310 . S
C612 C615 1.461 . S
C612 H632 0.932 . S
C613 C611 1.408 . S
C613 C612 1.310 . S
C613 H633 0.930 . S
C614 C615 1.474 . S
C614 C616 1.285 . S
C614 H634 0.929 . S
C615 C612 1.461 . S
C615 C614 1.474 . S
C616 C611 1.342 . S
C616 C614 1.285 . S
C616 H635 0.930 . S
C617 C620 1.424 . S
C617 C622 1.245 . S
C617 C623 1.428 . S
C618 C621 1.260 . S
C618 C622 1.477 . S
C618 H636 0.932 . S
C619 C620 1.384 . S
C619 C621 1.479 . S
C619 H637 0.929 . S
C620 C617 1.424 . S
C620 C619 1.384 . S
C620 H638 0.928 . S
C621 C618 1.260 . S
C621 C619 1.479 . S
C622 C617 1.245 . S
C622 C618 1.477 . S
C622 H639 0.932 . S
C623 U606 2.882 . S
C623 C617 1.428 . S
C623 O626 1.301 . S
C623 O627 1.282 . S
O624 U606 2.441 . S
O624 C610 1.249 . S
O625 U606 2.420 . S
O625 C610 1.202 . S
O626 U606 2.455 . S
O626 C623 1.301 . S
O627 U606 2.449 . S
O627 C623 1.282 . S
H628 C601 0.931 . S
H629 C603 0.929 . S
H630 C604 0.930 . S
H631 C605 0.931 . S
H632 C612 0.932 . S
H633 C613 0.930 . S
H634 C614 0.929 . S
H635 C616 0.930 . S
H636 C618 0.932 . S
H637 C619 0.929 . S
H638 C620 0.928 . S
H639 C622 0.932 . S
C640 C641 1.264 . S
C640 C645 1.479 . S
C640 C650 1.465 . S
C641 C640 1.264 . S
C641 C643 1.339 . S
C641 H668 0.931 . S
C642 C643 1.395 . S
C642 C644 1.320 . S
C643 C641 1.339 . S
C643 C642 1.395 . S
C643 H669 0.929 . S
C644 C642 1.320 . S
C644 C645 1.405 . S
C644 H670 0.930 . S
C645 C640 1.479 . S
C645 C644 1.405 . S
C645 H671 0.931 . S
U646 O647 2.454 . S
U646 O648 2.458 . S
U646 C649 2.984 . S
U646 C650 2.847 . S
U646 C663 2.882 . S
U646 O664 2.441 . S
U646 O665 2.420 . S
U646 O666 2.455 . S
U646 O667 2.449 . S
O647 U646 2.454 . S
O647 C649 1.353 . S
O648 U646 2.458 . S
O648 C649 1.286 . S
C649 U646 2.984 . S
C649 O647 1.353 . S
C649 O648 1.286 . S
C649 C651 1.363 . S
C650 C640 1.465 . S
C650 U646 2.847 . S
C650 O664 1.249 . S
C650 O665 1.202 . S
C651 C649 1.363 . S
C651 C653 1.408 . S
C651 C656 1.342 . S
C652 C653 1.310 . S
C652 C655 1.461 . S
C652 H672 0.932 . S
C653 C651 1.408 . S
C653 C652 1.310 . S
C653 H673 0.930 . S
C654 C655 1.474 . S
C654 C656 1.285 . S
C654 H674 0.929 . S
C655 C652 1.461 . S
C655 C654 1.474 . S
C656 C651 1.342 . S
C656 C654 1.285 . S
C656 H675 0.930 . S
C657 C660 1.424 . S
C657 C662 1.245 . S
C657 C663 1.428 . S
C658 C661 1.260 . S
C658 C662 1.477 . S
C658 H676 0.932 . S
C659 C660 1.384 . S
C659 C661 1.479 . S
C659 H677 0.929 . S
C660 C657 1.424 . S
C660 C659 1.384 . S
C660 H678 0.928 . S
C661 C658 1.260 . S
C661 C659 1.479 . S
C662 C657 1.245 . S
C662 C658 1.477 . S
C662 H679 0.932 . S
C663 U646 2.882 . S
C663 C657 1.428 . S
C663 O666 1.301 . S
C663 O667 1.282 . S
O664 U646 2.441 . S
O664 C650 1.249 . S
O665 U646 2.420 . S
O665 C650 1.202 . S
O666 U646 2.455 . S
O666 C663 1.301 . S
O667 U646 2.449 . S
O667 C663 1.282 . S
H668 C641 0.931 . S
H669 C643 0.929 . S
H670 C644 0.930 . S
H671 C645 0.931 . S
H672 C652 0.932 . S
H673 C653 0.930 . S
H674 C654 0.929 . S
H675 C656 0.930 . S
H676 C658 0.932 . S
H677 C659 0.929 . S
H678 C660 0.928 . S
H679 C662 0.932 . S
C680 C681 1.264 . S
C680 C685 1.479 . S
C680 C690 1.465 . S
C681 C680 1.264 . S
C681 C683 1.339 . S
C681 H708 0.931 . S
C682 C683 1.395 . S
C682 C684 1.320 . S
C683 C681 1.339 . S
C683 C682 1.395 . S
C683 H709 0.929 . S
C684 C682 1.320 . S
C684 C685 1.405 . S
C684 H710 0.930 . S
C685 C680 1.479 . S
C685 C684 1.405 . S
C685 H711 0.931 . S
U686 O687 2.454 . S
U686 O688 2.458 . S
U686 C689 2.984 . S
U686 C690 2.847 . S
U686 C703 2.882 . S
U686 O704 2.441 . S
U686 O705 2.420 . S
U686 O706 2.455 . S
U686 O707 2.449 . S
O687 U686 2.454 . S
O687 C689 1.353 . S
O688 U686 2.458 . S
O688 C689 1.286 . S
C689 U686 2.984 . S
C689 O687 1.353 . S
C689 O688 1.286 . S
C689 C691 1.363 . S
C690 C680 1.465 . S
C690 U686 2.847 . S
C690 O704 1.249 . S
C690 O705 1.202 . S
C691 C689 1.363 . S
C691 C693 1.408 . S
C691 C696 1.342 . S
C692 C693 1.310 . S
C692 C695 1.461 . S
C692 H712 0.932 . S
C693 C691 1.408 . S
C693 C692 1.310 . S
C693 H713 0.930 . S
C694 C695 1.474 . S
C694 C696 1.285 . S
C694 H714 0.929 . S
C695 C692 1.461 . S
C695 C694 1.474 . S
C696 C691 1.342 . S
C696 C694 1.285 . S
C696 H715 0.930 . S
C697 C700 1.424 . S
C697 C702 1.245 . S
C697 C703 1.428 . S
C698 C701 1.260 . S
C698 C702 1.477 . S
C698 H716 0.932 . S
C699 C700 1.384 . S
C699 C701 1.479 . S
C699 H717 0.929 . S
C700 C697 1.424 . S
C700 C699 1.384 . S
C700 H718 0.928 . S
C701 C698 1.260 . S
C701 C699 1.479 . S
C702 C697 1.245 . S
C702 C698 1.477 . S
C702 H719 0.932 . S
C703 U686 2.882 . S
C703 C697 1.428 . S
C703 O706 1.301 . S
C703 O707 1.282 . S
O704 U686 2.441 . S
O704 C690 1.249 . S
O705 U686 2.420 . S
O705 C690 1.202 . S
O706 U686 2.455 . S
O706 C703 1.301 . S
O707 U686 2.449 . S
O707 C703 1.282 . S
H708 C681 0.931 . S
H709 C683 0.929 . S
H710 C684 0.930 . S
H711 C685 0.931 . S
H712 C692 0.932 . S
H713 C693 0.930 . S
H714 C694 0.929 . S
H715 C696 0.930 . S
H716 C698 0.932 . S
H717 C699 0.929 . S
H718 C700 0.928 . S
H719 C702 0.932 . S
C720 C721 1.264 . S
C720 C725 1.479 . S
C720 C730 1.465 . S
C721 C720 1.264 . S
C721 C723 1.339 . S
C721 H748 0.931 . S
C722 C723 1.395 . S
C722 C724 1.320 . S
C723 C721 1.339 . S
C723 C722 1.395 . S
C723 H749 0.929 . S
C724 C722 1.320 . S
C724 C725 1.405 . S
C724 H750 0.930 . S
C725 C720 1.479 . S
C725 C724 1.405 . S
C725 H751 0.931 . S
U726 O727 2.454 . S
U726 O728 2.458 . S
U726 C729 2.984 . S
U726 C730 2.847 . S
U726 C743 2.882 . S
U726 O744 2.441 . S
U726 O745 2.420 . S
U726 O746 2.455 . S
U726 O747 2.449 . S
O727 U726 2.454 . S
O727 C729 1.353 . S
O728 U726 2.458 . S
O728 C729 1.286 . S
C729 U726 2.984 . S
C729 O727 1.353 . S
C729 O728 1.286 . S
C729 C731 1.363 . S
C730 C720 1.465 . S
C730 U726 2.847 . S
C730 O744 1.249 . S
C730 O745 1.202 . S
C731 C729 1.363 . S
C731 C733 1.408 . S
C731 C736 1.342 . S
C732 C733 1.310 . S
C732 C735 1.461 . S
C732 H752 0.932 . S
C733 C731 1.408 . S
C733 C732 1.310 . S
C733 H753 0.930 . S
C734 C735 1.474 . S
C734 C736 1.285 . S
C734 H754 0.929 . S
C735 C732 1.461 . S
C735 C734 1.474 . S
C736 C731 1.342 . S
C736 C734 1.285 . S
C736 H755 0.930 . S
C737 C740 1.424 . S
C737 C742 1.245 . S
C737 C743 1.428 . S
C738 C741 1.260 . S
C738 C742 1.477 . S
C738 H756 0.932 . S
C739 C740 1.384 . S
C739 C741 1.479 . S
C739 H757 0.929 . S
C740 C737 1.424 . S
C740 C739 1.384 . S
C740 H758 0.928 . S
C741 C738 1.260 . S
C741 C739 1.479 . S
C742 C737 1.245 . S
C742 C738 1.477 . S
C742 H759 0.932 . S
C743 U726 2.882 . S
C743 C737 1.428 . S
C743 O746 1.301 . S
C743 O747 1.282 . S
O744 U726 2.441 . S
O744 C730 1.249 . S
O745 U726 2.420 . S
O745 C730 1.202 . S
O746 U726 2.455 . S
O746 C743 1.301 . S
O747 U726 2.449 . S
O747 C743 1.282 . S
H748 C721 0.931 . S
H749 C723 0.929 . S
H750 C724 0.930 . S
H751 C725 0.931 . S
H752 C732 0.932 . S
H753 C733 0.930 . S
H754 C734 0.929 . S
H755 C736 0.930 . S
H756 C738 0.932 . S
H757 C739 0.929 . S
H758 C740 0.928 . S
H759 C742 0.932 . S
C760 C761 1.264 . S
C760 C765 1.479 . S
C760 C770 1.465 . S
C761 C760 1.264 . S
C761 C763 1.339 . S
C761 H788 0.931 . S
C762 C763 1.395 . S
C762 C764 1.320 . S
C763 C761 1.339 . S
C763 C762 1.395 . S
C763 H789 0.929 . S
C764 C762 1.320 . S
C764 C765 1.405 . S
C764 H790 0.930 . S
C765 C760 1.479 . S
C765 C764 1.405 . S
C765 H791 0.931 . S
U766 O767 2.454 . S
U766 O768 2.458 . S
U766 C769 2.984 . S
U766 C770 2.847 . S
U766 C783 2.882 . S
U766 O784 2.441 . S
U766 O785 2.420 . S
U766 O786 2.455 . S
U766 O787 2.449 . S
O767 U766 2.454 . S
O767 C769 1.353 . S
O768 U766 2.458 . S
O768 C769 1.286 . S
C769 U766 2.984 . S
C769 O767 1.353 . S
C769 O768 1.286 . S
C769 C771 1.363 . S
C770 C760 1.465 . S
C770 U766 2.847 . S
C770 O784 1.249 . S
C770 O785 1.202 . S
C771 C769 1.363 . S
C771 C773 1.408 . S
C771 C776 1.342 . S
C772 C773 1.310 . S
C772 C775 1.461 . S
C772 H792 0.932 . S
C773 C771 1.408 . S
C773 C772 1.310 . S
C773 H793 0.930 . S
C774 C775 1.474 . S
C774 C776 1.285 . S
C774 H794 0.929 . S
C775 C772 1.461 . S
C775 C774 1.474 . S
C776 C771 1.342 . S
C776 C774 1.285 . S
C776 H795 0.930 . S
C777 C780 1.424 . S
C777 C782 1.245 . S
C777 C783 1.428 . S
C778 C781 1.260 . S
C778 C782 1.477 . S
C778 H796 0.932 . S
C779 C780 1.384 . S
C779 C781 1.479 . S
C779 H797 0.929 . S
C780 C777 1.424 . S
C780 C779 1.384 . S
C780 H798 0.928 . S
C781 C778 1.260 . S
C781 C779 1.479 . S
C782 C777 1.245 . S
C782 C778 1.477 . S
C782 H799 0.932 . S
C783 U766 2.882 . S
C783 C777 1.428 . S
C783 O786 1.301 . S
C783 O787 1.282 . S
O784 U766 2.441 . S
O784 C770 1.249 . S
O785 U766 2.420 . S
O785 C770 1.202 . S
O786 U766 2.455 . S
O786 C783 1.301 . S
O787 U766 2.449 . S
O787 C783 1.282 . S
H788 C761 0.931 . S
H789 C763 0.929 . S
H790 C764 0.930 . S
H791 C765 0.931 . S
H792 C772 0.932 . S
H793 C773 0.930 . S
H794 C774 0.929 . S
H795 C776 0.930 . S
H796 C778 0.932 . S
H797 C779 0.929 . S
H798 C780 0.928 . S
H799 C782 0.932 . S
C800 C801 1.264 . S
C800 C805 1.479 . S
C800 C810 1.465 . S
C801 C800 1.264 . S
C801 C803 1.339 . S
C801 H828 0.931 . S
C802 C803 1.395 . S
C802 C804 1.320 . S
C803 C801 1.339 . S
C803 C802 1.395 . S
C803 H829 0.929 . S
C804 C802 1.320 . S
C804 C805 1.405 . S
C804 H830 0.930 . S
C805 C800 1.479 . S
C805 C804 1.405 . S
C805 H831 0.931 . S
U806 O807 2.454 . S
U806 O808 2.458 . S
U806 C809 2.984 . S
U806 C810 2.847 . S
U806 C823 2.882 . S
U806 O824 2.441 . S
U806 O825 2.420 . S
U806 O826 2.455 . S
U806 O827 2.449 . S
O807 U806 2.454 . S
O807 C809 1.353 . S
O808 U806 2.458 . S
O808 C809 1.286 . S
C809 U806 2.984 . S
C809 O807 1.353 . S
C809 O808 1.286 . S
C809 C811 1.363 . S
C810 C800 1.465 . S
C810 U806 2.847 . S
C810 O824 1.249 . S
C810 O825 1.202 . S
C811 C809 1.363 . S
C811 C813 1.408 . S
C811 C816 1.342 . S
C812 C813 1.310 . S
C812 C815 1.461 . S
C812 H832 0.932 . S
C813 C811 1.408 . S
C813 C812 1.310 . S
C813 H833 0.930 . S
C814 C815 1.474 . S
C814 C816 1.285 . S
C814 H834 0.929 . S
C815 C812 1.461 . S
C815 C814 1.474 . S
C816 C811 1.342 . S
C816 C814 1.285 . S
C816 H835 0.930 . S
C817 C820 1.424 . S
C817 C822 1.245 . S
C817 C823 1.428 . S
C818 C821 1.260 . S
C818 C822 1.477 . S
C818 H836 0.932 . S
C819 C820 1.384 . S
C819 C821 1.479 . S
C819 H837 0.929 . S
C820 C817 1.424 . S
C820 C819 1.384 . S
C820 H838 0.928 . S
C821 C818 1.260 . S
C821 C819 1.479 . S
C822 C817 1.245 . S
C822 C818 1.477 . S
C822 H839 0.932 . S
C823 U806 2.882 . S
C823 C817 1.428 . S
C823 O826 1.301 . S
C823 O827 1.282 . S
O824 U806 2.441 . S
O824 C810 1.249 . S
O825 U806 2.420 . S
O825 C810 1.202 . S
O826 U806 2.455 . S
O826 C823 1.301 . S
O827 U806 2.449 . S
O827 C823 1.282 . S
H828 C801 0.931 . S
H829 C803 0.929 . S
H830 C804 0.930 . S
H831 C805 0.931 . S
H832 C812 0.932 . S
H833 C813 0.930 . S
H834 C814 0.929 . S
H835 C816 0.930 . S
H836 C818 0.932 . S
H837 C819 0.929 . S
H838 C820 0.928 . S
H839 C822 0.932 . S
C840 C841 1.264 . S
C840 C845 1.479 . S
C840 C850 1.465 . S
C841 C840 1.264 . S
C841 C843 1.339 . S
C841 H868 0.931 . S
C842 C843 1.395 . S
C842 C844 1.320 . S
C843 C841 1.339 . S
C843 C842 1.395 . S
C843 H869 0.929 . S
C844 C842 1.320 . S
C844 C845 1.405 . S
C844 H870 0.930 . S
C845 C840 1.479 . S
C845 C844 1.405 . S
C845 H871 0.931 . S
U846 O847 2.454 . S
U846 O848 2.458 . S
U846 C849 2.984 . S
U846 C850 2.847 . S
U846 C863 2.882 . S
U846 O864 2.441 . S
U846 O865 2.420 . S
U846 O866 2.455 . S
U846 O867 2.449 . S
O847 U846 2.454 . S
O847 C849 1.353 . S
O848 U846 2.458 . S
O848 C849 1.286 . S
C849 U846 2.984 . S
C849 O847 1.353 . S
C849 O848 1.286 . S
C849 C851 1.363 . S
C850 C840 1.465 . S
C850 U846 2.847 . S
C850 O864 1.249 . S
C850 O865 1.202 . S
C851 C849 1.363 . S
C851 C853 1.408 . S
C851 C856 1.342 . S
C852 C853 1.310 . S
C852 C855 1.461 . S
C852 H872 0.932 . S
C853 C851 1.408 . S
C853 C852 1.310 . S
C853 H873 0.930 . S
C854 C855 1.474 . S
C854 C856 1.285 . S
C854 H874 0.929 . S
C855 C852 1.461 . S
C855 C854 1.474 . S
C856 C851 1.342 . S
C856 C854 1.285 . S
C856 H875 0.930 . S
C857 C860 1.424 . S
C857 C862 1.245 . S
C857 C863 1.428 . S
C858 C861 1.260 . S
C858 C862 1.477 . S
C858 H876 0.932 . S
C859 C860 1.384 . S
C859 C861 1.479 . S
C859 H877 0.929 . S
C860 C857 1.424 . S
C860 C859 1.384 . S
C860 H878 0.928 . S
C861 C858 1.260 . S
C861 C859 1.479 . S
C862 C857 1.245 . S
C862 C858 1.477 . S
C862 H879 0.932 . S
C863 U846 2.882 . S
C863 C857 1.428 . S
C863 O866 1.301 . S
C863 O867 1.282 . S
O864 U846 2.441 . S
O864 C850 1.249 . S
O865 U846 2.420 . S
O865 C850 1.202 . S
O866 U846 2.455 . S
O866 C863 1.301 . S
O867 U846 2.449 . S
O867 C863 1.282 . S
H868 C841 0.931 . S
H869 C843 0.929 . S
H870 C844 0.930 . S
H871 C845 0.931 . S
H872 C852 0.932 . S
H873 C853 0.930 . S
H874 C854 0.929 . S
H875 C856 0.930 . S
H876 C858 0.932 . S
H877 C859 0.929 . S
H878 C860 0.928 . S
H879 C862 0.932 . S
C880 C881 1.264 . S
C880 C885 1.479 . S
C880 C890 1.465 . S
C881 C880 1.264 . S
C881 C883 1.339 . S
C881 H908 0.931 . S
C882 C883 1.395 . S
C882 C884 1.320 . S
C883 C881 1.339 . S
C883 C882 1.395 . S
C883 H909 0.929 . S
C884 C882 1.320 . S
C884 C885 1.405 . S
C884 H910 0.930 . S
C885 C880 1.479 . S
C885 C884 1.405 . S
C885 H911 0.931 . S
U886 O887 2.454 . S
U886 O888 2.458 . S
U886 C889 2.984 . S
U886 C890 2.847 . S
U886 C903 2.882 . S
U886 O904 2.441 . S
U886 O905 2.420 . S
U886 O906 2.455 . S
U886 O907 2.449 . S
O887 U886 2.454 . S
O887 C889 1.353 . S
O888 U886 2.458 . S
O888 C889 1.286 . S
C889 U886 2.984 . S
C889 O887 1.353 . S
C889 O888 1.286 . S
C889 C891 1.363 . S
C890 C880 1.465 . S
C890 U886 2.847 . S
C890 O904 1.249 . S
C890 O905 1.202 . S
C891 C889 1.363 . S
C891 C893 1.408 . S
C891 C896 1.342 . S
C892 C893 1.310 . S
C892 C895 1.461 . S
C892 H912 0.932 . S
C893 C891 1.408 . S
C893 C892 1.310 . S
C893 H913 0.930 . S
C894 C895 1.474 . S
C894 C896 1.285 . S
C894 H914 0.929 . S
C895 C892 1.461 . S
C895 C894 1.474 . S
C896 C891 1.342 . S
C896 C894 1.285 . S
C896 H915 0.930 . S
C897 C900 1.424 . S
C897 C902 1.245 . S
C897 C903 1.428 . S
C898 C901 1.260 . S
C898 C902 1.477 . S
C898 H916 0.932 . S
C899 C900 1.384 . S
C899 C901 1.479 . S
C899 H917 0.929 . S
C900 C897 1.424 . S
C900 C899 1.384 . S
C900 H918 0.928 . S
C901 C898 1.260 . S
C901 C899 1.479 . S
C902 C897 1.245 . S
C902 C898 1.477 . S
C902 H919 0.932 . S
C903 U886 2.882 . S
C903 C897 1.428 . S
C903 O906 1.301 . S
C903 O907 1.282 . S
O904 U886 2.441 . S
O904 C890 1.249 . S
O905 U886 2.420 . S
O905 C890 1.202 . S
O906 U886 2.455 . S
O906 C903 1.301 . S
O907 U886 2.449 . S
O907 C903 1.282 . S
H908 C881 0.931 . S
H909 C883 0.929 . S
H910 C884 0.930 . S
H911 C885 0.931 . S
H912 C892 0.932 . S
H913 C893 0.930 . S
H914 C894 0.929 . S
H915 C896 0.930 . S
H916 C898 0.932 . S
H917 C899 0.929 . S
H918 C900 0.928 . S
H919 C902 0.932 . S
C920 C921 1.264 . S
C920 C925 1.479 . S
C920 C930 1.465 . S
C921 C920 1.264 . S
C921 C923 1.339 . S
C921 H948 0.931 . S
C922 C923 1.395 . S
C922 C924 1.320 . S
C923 C921 1.339 . S
C923 C922 1.395 . S
C923 H949 0.929 . S
C924 C922 1.320 . S
C924 C925 1.405 . S
C924 H950 0.930 . S
C925 C920 1.479 . S
C925 C924 1.405 . S
C925 H951 0.931 . S
U926 O927 2.454 . S
U926 O928 2.458 . S
U926 C929 2.984 . S
U926 C930 2.847 . S
U926 C943 2.882 . S
U926 O944 2.441 . S
U926 O945 2.420 . S
U926 O946 2.455 . S
U926 O947 2.449 . S
O927 U926 2.454 . S
O927 C929 1.353 . S
O928 U926 2.458 . S
O928 C929 1.286 . S
C929 U926 2.984 . S
C929 O927 1.353 . S
C929 O928 1.286 . S
C929 C931 1.363 . S
C930 C920 1.465 . S
C930 U926 2.847 . S
C930 O944 1.249 . S
C930 O945 1.202 . S
C931 C929 1.363 . S
C931 C933 1.408 . S
C931 C936 1.342 . S
C932 C933 1.310 . S
C932 C935 1.461 . S
C932 H952 0.932 . S
C933 C931 1.408 . S
C933 C932 1.310 . S
C933 H953 0.930 . S
C934 C935 1.474 . S
C934 C936 1.285 . S
C934 H954 0.929 . S
C935 C932 1.461 . S
C935 C934 1.474 . S
C936 C931 1.342 . S
C936 C934 1.285 . S
C936 H955 0.930 . S
C937 C940 1.424 . S
C937 C942 1.245 . S
C937 C943 1.428 . S
C938 C941 1.260 . S
C938 C942 1.477 . S
C938 H956 0.932 . S
C939 C940 1.384 . S
C939 C941 1.479 . S
C939 H957 0.929 . S
C940 C937 1.424 . S
C940 C939 1.384 . S
C940 H958 0.928 . S
C941 C938 1.260 . S
C941 C939 1.479 . S
C942 C937 1.245 . S
C942 C938 1.477 . S
C942 H959 0.932 . S
C943 U926 2.882 . S
C943 C937 1.428 . S
C943 O946 1.301 . S
C943 O947 1.282 . S
O944 U926 2.441 . S
O944 C930 1.249 . S
O945 U926 2.420 . S
O945 C930 1.202 . S
O946 U926 2.455 . S
O946 C943 1.301 . S
O947 U926 2.449 . S
O947 C943 1.282 . S
H948 C921 0.931 . S
H949 C923 0.929 . S
H950 C924 0.930 . S
H951 C925 0.931 . S
H952 C932 0.932 . S
H953 C933 0.930 . S
H954 C934 0.929 . S
H955 C936 0.930 . S
H956 C938 0.932 . S
H957 C939 0.929 . S
H958 C940 0.928 . S
H959 C942 0.932 . S
C960 C961 1.264 . S
C960 C965 1.479 . S
C960 C970 1.465 . S
C961 C960 1.264 . S
C961 C963 1.339 . S
C961 H988 0.931 . S
C962 C963 1.395 . S
C962 C964 1.320 . S
C963 C961 1.339 . S
C963 C962 1.395 . S
C963 H989 0.929 . S
C964 C962 1.320 . S
C964 C965 1.405 . S
C964 H990 0.930 . S
C965 C960 1.479 . S
C965 C964 1.405 . S
C965 H991 0.931 . S
U966 O967 2.454 . S
U966 O968 2.458 . S
U966 C969 2.984 . S
U966 C970 2.847 . S
U966 C983 2.882 . S
U966 O984 2.441 . S
U966 O985 2.420 . S
U966 O986 2.455 . S
U966 O987 2.449 . S
O967 U966 2.454 . S
O967 C969 1.353 . S
O968 U966 2.458 . S
O968 C969 1.286 . S
C969 U966 2.984 . S
C969 O967 1.353 . S
C969 O968 1.286 . S
C969 C971 1.363 . S
C970 C960 1.465 . S
C970 U966 2.847 . S
C970 O984 1.249 . S
C970 O985 1.202 . S
C971 C969 1.363 . S
C971 C973 1.408 . S
C971 C976 1.342 . S
C972 C973 1.310 . S
C972 C975 1.461 . S
C972 H992 0.932 . S
C973 C971 1.408 . S
C973 C972 1.310 . S
C973 H993 0.930 . S
C974 C975 1.474 . S
C974 C976 1.285 . S
C974 H994 0.929 . S
C975 C972 1.461 . S
C975 C974 1.474 . S
C976 C971 1.342 . S
C976 C974 1.285 . S
C976 H995 0.930 . S
C977 C980 1.424 . S
C977 C982 1.245 . S
C977 C983 1.428 . S
C978 C981 1.260 . S
C978 C982 1.477 . S
C978 H996 0.932 . S
C979 C980 1.384 . S
C979 C981 1.479 . S
C979 H997 0.929 . S
C980 C977 1.424 . S
C980 C979 1.384 . S
C980 H998 0.928 . S
C981 C978 1.260 . S
C981 C979 1.479 . S
C982 C977 1.245 . S
C982 C978 1.477 . S
C982 H999 0.932 . S
C983 U966 2.882 . S
C983 C977 1.428 . S
C983 O986 1.301 . S
C983 O987 1.282 . S
O984 U966 2.441 . S
O984 C970 1.249 . S
O985 U966 2.420 . S
O985 C970 1.202 . S
O986 U966 2.455 . S
O986 C983 1.301 . S
O987 U966 2.449 . S
O987 C983 1.282 . S
H988 C961 0.931 . S
H989 C963 0.929 . S
H990 C964 0.930 . S
H991 C965 0.931 . S
H992 C972 0.932 . S
H993 C973 0.930 . S
H994 C974 0.929 . S
H995 C976 0.930 . S
H996 C978 0.932 . S
H997 C979 0.929 . S
H998 C980 0.928 . S
H999 C982 0.932 . S
C1000 C1001 1.264 . S
C1000 C1005 1.479 . S
C1000 C1010 1.465 . S
C1001 C1000 1.264 . S
C1001 C1003 1.339 . S
C1001 H1028 0.931 . S
C1002 C1003 1.395 . S
C1002 C1004 1.320 . S
C1003 C1001 1.339 . S
C1003 C1002 1.395 . S
C1003 H1029 0.929 . S
C1004 C1002 1.320 . S
C1004 C1005 1.405 . S
C1004 H1030 0.930 . S
C1005 C1000 1.479 . S
C1005 C1004 1.405 . S
C1005 H1031 0.931 . S
U1006 O1007 2.454 . S
U1006 O1008 2.458 . S
U1006 C1009 2.984 . S
U1006 C1010 2.847 . S
U1006 C1023 2.882 . S
U1006 O1024 2.441 . S
U1006 O1025 2.420 . S
U1006 O1026 2.455 . S
U1006 O1027 2.449 . S
O1007 U1006 2.454 . S
O1007 C1009 1.353 . S
O1008 U1006 2.458 . S
O1008 C1009 1.286 . S
C1009 U1006 2.984 . S
C1009 O1007 1.353 . S
C1009 O1008 1.286 . S
C1009 C1011 1.363 . S
C1010 C1000 1.465 . S
C1010 U1006 2.847 . S
C1010 O1024 1.249 . S
C1010 O1025 1.202 . S
C1011 C1009 1.363 . S
C1011 C1013 1.408 . S
C1011 C1016 1.342 . S
C1012 C1013 1.310 . S
C1012 C1015 1.461 . S
C1012 H1032 0.932 . S
C1013 C1011 1.408 . S
C1013 C1012 1.310 . S
C1013 H1033 0.930 . S
C1014 C1015 1.474 . S
C1014 C1016 1.285 . S
C1014 H1034 0.929 . S
C1015 C1012 1.461 . S
C1015 C1014 1.474 . S
C1016 C1011 1.342 . S
C1016 C1014 1.285 . S
C1016 H1035 0.930 . S
C1017 C1020 1.424 . S
C1017 C1022 1.245 . S
C1017 C1023 1.428 . S
C1018 C1021 1.260 . S
C1018 C1022 1.477 . S
C1018 H1036 0.932 . S
C1019 C1020 1.384 . S
C1019 C1021 1.479 . S
C1019 H1037 0.929 . S
C1020 C1017 1.424 . S
C1020 C1019 1.384 . S
C1020 H1038 0.928 . S
C1021 C1018 1.260 . S
C1021 C1019 1.479 . S
C1022 C1017 1.245 . S
C1022 C1018 1.477 . S
C1022 H1039 0.932 . S
C1023 U1006 2.882 . S
C1023 C1017 1.428 . S
C1023 O1026 1.301 . S
C1023 O1027 1.282 . S
O1024 U1006 2.441 . S
O1024 C1010 1.249 . S
O1025 U1006 2.420 . S
O1025 C1010 1.202 . S
O1026 U1006 2.455 . S
O1026 C1023 1.301 . S
O1027 U1006 2.449 . S
O1027 C1023 1.282 . S
H1028 C1001 0.931 . S
H1029 C1003 0.929 . S
H1030 C1004 0.930 . S
H1031 C1005 0.931 . S
H1032 C1012 0.932 . S
H1033 C1013 0.930 . S
H1034 C1014 0.929 . S
H1035 C1016 0.930 . S
H1036 C1018 0.932 . S
H1037 C1019 0.929 . S
H1038 C1020 0.928 . S
H1039 C1022 0.932 . S
C1040 C1041 1.264 . S
C1040 C1045 1.479 . S
C1040 C1050 1.465 . S
C1041 C1040 1.264 . S
C1041 C1043 1.339 . S
C1041 H1068 0.931 . S
C1042 C1043 1.395 . S
C1042 C1044 1.320 . S
C1043 C1041 1.339 . S
C1043 C1042 1.395 . S
C1043 H1069 0.929 . S
C1044 C1042 1.320 . S
C1044 C1045 1.405 . S
C1044 H1070 0.930 . S
C1045 C1040 1.479 . S
C1045 C1044 1.405 . S
C1045 H1071 0.931 . S
U1046 O1047 2.454 . S
U1046 O1048 2.458 . S
U1046 C1049 2.984 . S
U1046 C1050 2.847 . S
U1046 C1063 2.882 . S
U1046 O1064 2.441 . S
U1046 O1065 2.420 . S
U1046 O1066 2.455 . S
U1046 O1067 2.449 . S
O1047 U1046 2.454 . S
O1047 C1049 1.353 . S
O1048 U1046 2.458 . S
O1048 C1049 1.286 . S
C1049 U1046 2.984 . S
C1049 O1047 1.353 . S
C1049 O1048 1.286 . S
C1049 C1051 1.363 . S
C1050 C1040 1.465 . S
C1050 U1046 2.847 . S
C1050 O1064 1.249 . S
C1050 O1065 1.202 . S
C1051 C1049 1.363 . S
C1051 C1053 1.408 . S
C1051 C1056 1.342 . S
C1052 C1053 1.310 . S
C1052 C1055 1.461 . S
C1052 H1072 0.932 . S
C1053 C1051 1.408 . S
C1053 C1052 1.310 . S
C1053 H1073 0.930 . S
C1054 C1055 1.474 . S
C1054 C1056 1.285 . S
C1054 H1074 0.929 . S
C1055 C1052 1.461 . S
C1055 C1054 1.474 . S
C1056 C1051 1.342 . S
C1056 C1054 1.285 . S
C1056 H1075 0.930 . S
C1057 C1060 1.424 . S
C1057 C1062 1.245 . S
C1057 C1063 1.428 . S
C1058 C1061 1.260 . S
C1058 C1062 1.477 . S
C1058 H1076 0.932 . S
C1059 C1060 1.384 . S
C1059 C1061 1.479 . S
C1059 H1077 0.929 . S
C1060 C1057 1.424 . S
C1060 C1059 1.384 . S
C1060 H1078 0.928 . S
C1061 C1058 1.260 . S
C1061 C1059 1.479 . S
C1062 C1057 1.245 . S
C1062 C1058 1.477 . S
C1062 H1079 0.932 . S
C1063 U1046 2.882 . S
C1063 C1057 1.428 . S
C1063 O1066 1.301 . S
C1063 O1067 1.282 . S
O1064 U1046 2.441 . S
O1064 C1050 1.249 . S
O1065 U1046 2.420 . S
O1065 C1050 1.202 . S
O1066 U1046 2.455 . S
O1066 C1063 1.301 . S
O1067 U1046 2.449 . S
O1067 C1063 1.282 . S
H1068 C1041 0.931 . S
H1069 C1043 0.929 . S
H1070 C1044 0.930 . S
H1071 C1045 0.931 . S
H1072 C1052 0.932 . S
H1073 C1053 0.930 . S
H1074 C1054 0.929 . S
H1075 C1056 0.930 . S
H1076 C1058 0.932 . S
H1077 C1059 0.929 . S
H1078 C1060 0.928 . S
H1079 C1062 0.932 . S
C1080 C1081 1.264 . S
C1080 C1085 1.479 . S
C1080 C1090 1.465 . S
C1081 C1080 1.264 . S
C1081 C1083 1.339 . S
C1081 H1108 0.931 . S
C1082 C1083 1.395 . S
C1082 C1084 1.320 . S
C1083 C1081 1.339 . S
C1083 C1082 1.395 . S
C1083 H1109 0.929 . S
C1084 C1082 1.320 . S
C1084 C1085 1.405 . S
C1084 H1110 0.930 . S
C1085 C1080 1.479 . S
C1085 C1084 1.405 . S
C1085 H1111 0.931 . S
U1086 O1087 2.454 . S
U1086 O1088 2.458 . S
U1086 C1089 2.984 . S
U1086 C1090 2.847 . S
U1086 C1103 2.882 . S
U1086 O1104 2.441 . S
U1086 O1105 2.420 . S
U1086 O1106 2.455 . S
U1086 O1107 2.449 . S
O1087 U1086 2.454 . S
O1087 C1089 1.353 . S
O1088 U1086 2.458 . S
O1088 C1089 1.286 . S
C1089 U1086 2.984 . S
C1089 O1087 1.353 . S
C1089 O1088 1.286 . S
C1089 C1091 1.363 . S
C1090 C1080 1.465 . S
C1090 U1086 2.847 . S
C1090 O1104 1.249 . S
C1090 O1105 1.202 . S
C1091 C1089 1.363 . S
C1091 C1093 1.408 . S
C1091 C1096 1.342 . S
C1092 C1093 1.310 . S
C1092 C1095 1.461 . S
C1092 H1112 0.932 . S
C1093 C1091 1.408 . S
C1093 C1092 1.310 . S
C1093 H1113 0.930 . S
C1094 C1095 1.474 . S
C1094 C1096 1.285 . S
C1094 H1114 0.929 . S
C1095 C1092 1.461 . S
C1095 C1094 1.474 . S
C1096 C1091 1.342 . S
C1096 C1094 1.285 . S
C1096 H1115 0.930 . S
C1097 C1100 1.424 . S
C1097 C1102 1.245 . S
C1097 C1103 1.428 . S
C1098 C1101 1.260 . S
C1098 C1102 1.477 . S
C1098 H1116 0.932 . S
C1099 C1100 1.384 . S
C1099 C1101 1.479 . S
C1099 H1117 0.929 . S
C1100 C1097 1.424 . S
C1100 C1099 1.384 . S
C1100 H1118 0.928 . S
C1101 C1098 1.260 . S
C1101 C1099 1.479 . S
C1102 C1097 1.245 . S
C1102 C1098 1.477 . S
C1102 H1119 0.932 . S
C1103 U1086 2.882 . S
C1103 C1097 1.428 . S
C1103 O1106 1.301 . S
C1103 O1107 1.282 . S
O1104 U1086 2.441 . S
O1104 C1090 1.249 . S
O1105 U1086 2.420 . S
O1105 C1090 1.202 . S
O1106 U1086 2.455 . S
O1106 C1103 1.301 . S
O1107 U1086 2.449 . S
O1107 C1103 1.282 . S
H1108 C1081 0.931 . S
H1109 C1083 0.929 . S
H1110 C1084 0.930 . S
H1111 C1085 0.931 . S
H1112 C1092 0.932 . S
H1113 C1093 0.930 . S
H1114 C1094 0.929 . S
H1115 C1096 0.930 . S
H1116 C1098 0.932 . S
H1117 C1099 0.929 . S
H1118 C1100 0.928 . S
H1119 C1102 0.932 . S
C1120 C1121 1.264 . S
C1120 C1125 1.479 . S
C1120 C1130 1.465 . S
C1121 C1120 1.264 . S
C1121 C1123 1.339 . S
C1121 H1148 0.931 . S
C1122 C1123 1.395 . S
C1122 C1124 1.320 . S
C1123 C1121 1.339 . S
C1123 C1122 1.395 . S
C1123 H1149 0.929 . S
C1124 C1122 1.320 . S
C1124 C1125 1.405 . S
C1124 H1150 0.930 . S
C1125 C1120 1.479 . S
C1125 C1124 1.405 . S
C1125 H1151 0.931 . S
U1126 O1127 2.454 . S
U1126 O1128 2.458 . S
U1126 C1129 2.984 . S
U1126 C1130 2.847 . S
U1126 C1143 2.882 . S
U1126 O1144 2.441 . S
U1126 O1145 2.420 . S
U1126 O1146 2.455 . S
U1126 O1147 2.449 . S
O1127 U1126 2.454 . S
O1127 C1129 1.353 . S
O1128 U1126 2.458 . S
O1128 C1129 1.286 . S
C1129 U1126 2.984 . S
C1129 O1127 1.353 . S
C1129 O1128 1.286 . S
C1129 C1131 1.363 . S
C1130 C1120 1.465 . S
C1130 U1126 2.847 . S
C1130 O1144 1.249 . S
C1130 O1145 1.202 . S
C1131 C1129 1.363 . S
C1131 C1133 1.408 . S
C1131 C1136 1.342 . S
C1132 C1133 1.310 . S
C1132 C1135 1.461 . S
C1132 H1152 0.932 . S
C1133 C1131 1.408 . S
C1133 C1132 1.310 . S
C1133 H1153 0.930 . S
C1134 C1135 1.474 . S
C1134 C1136 1.285 . S
C1134 H1154 0.929 . S
C1135 C1132 1.461 . S
C1135 C1134 1.474 . S
C1136 C1131 1.342 . S
C1136 C1134 1.285 . S
C1136 H1155 0.930 . S
C1137 C1140 1.424 . S
C1137 C1142 1.245 . S
C1137 C1143 1.428 . S
C1138 C1141 1.260 . S
C1138 C1142 1.477 . S
C1138 H1156 0.932 . S
C1139 C1140 1.384 . S
C1139 C1141 1.479 . S
C1139 H1157 0.929 . S
C1140 C1137 1.424 . S
C1140 C1139 1.384 . S
C1140 H1158 0.928 . S
C1141 C1138 1.260 . S
C1141 C1139 1.479 . S
C1142 C1137 1.245 . S
C1142 C1138 1.477 . S
C1142 H1159 0.932 . S
C1143 U1126 2.882 . S
C1143 C1137 1.428 . S
C1143 O1146 1.301 . S
C1143 O1147 1.282 . S
O1144 U1126 2.441 . S
O1144 C1130 1.249 . S
O1145 U1126 2.420 . S
O1145 C1130 1.202 . S
O1146 U1126 2.455 . S
O1146 C1143 1.301 . S
O1147 U1126 2.449 . S
O1147 C1143 1.282 . S
H1148 C1121 0.931 . S
H1149 C1123 0.929 . S
H1150 C1124 0.930 . S
H1151 C1125 0.931 . S
H1152 C1132 0.932 . S
H1153 C1133 0.930 . S
H1154 C1134 0.929 . S
H1155 C1136 0.930 . S
H1156 C1138 0.932 . S
H1157 C1139 0.929 . S
H1158 C1140 0.928 . S
H1159 C1142 0.932 . S
C1160 C1161 1.264 . S
C1160 C1165 1.479 . S
C1160 C1170 1.465 . S
C1161 C1160 1.264 . S
C1161 C1163 1.339 . S
C1161 H1188 0.931 . S
C1162 C1163 1.395 . S
C1162 C1164 1.320 . S
C1163 C1161 1.339 . S
C1163 C1162 1.395 . S
C1163 H1189 0.929 . S
C1164 C1162 1.320 . S
C1164 C1165 1.405 . S
C1164 H1190 0.930 . S
C1165 C1160 1.479 . S
C1165 C1164 1.405 . S
C1165 H1191 0.931 . S
U1166 O1167 2.454 . S
U1166 O1168 2.458 . S
U1166 C1169 2.984 . S
U1166 C1170 2.847 . S
U1166 C1183 2.882 . S
U1166 O1184 2.441 . S
U1166 O1185 2.420 . S
U1166 O1186 2.455 . S
U1166 O1187 2.449 . S
O1167 U1166 2.454 . S
O1167 C1169 1.353 . S
O1168 U1166 2.458 . S
O1168 C1169 1.286 . S
C1169 U1166 2.984 . S
C1169 O1167 1.353 . S
C1169 O1168 1.286 . S
C1169 C1171 1.363 . S
C1170 C1160 1.465 . S
C1170 U1166 2.847 . S
C1170 O1184 1.249 . S
C1170 O1185 1.202 . S
C1171 C1169 1.363 . S
C1171 C1173 1.408 . S
C1171 C1176 1.342 . S
C1172 C1173 1.310 . S
C1172 C1175 1.461 . S
C1172 H1192 0.932 . S
C1173 C1171 1.408 . S
C1173 C1172 1.310 . S
C1173 H1193 0.930 . S
C1174 C1175 1.474 . S
C1174 C1176 1.285 . S
C1174 H1194 0.929 . S
C1175 C1172 1.461 . S
C1175 C1174 1.474 . S
C1176 C1171 1.342 . S
C1176 C1174 1.285 . S
C1176 H1195 0.930 . S
C1177 C1180 1.424 . S
C1177 C1182 1.245 . S
C1177 C1183 1.428 . S
C1178 C1181 1.260 . S
C1178 C1182 1.477 . S
C1178 H1196 0.932 . S
C1179 C1180 1.384 . S
C1179 C1181 1.479 . S
C1179 H1197 0.929 . S
C1180 C1177 1.424 . S
C1180 C1179 1.384 . S
C1180 H1198 0.928 . S
C1181 C1178 1.260 . S
C1181 C1179 1.479 . S
C1182 C1177 1.245 . S
C1182 C1178 1.477 . S
C1182 H1199 0.932 . S
C1183 U1166 2.882 . S
C1183 C1177 1.428 . S
C1183 O1186 1.301 . S
C1183 O1187 1.282 . S
O1184 U1166 2.441 . S
O1184 C1170 1.249 . S
O1185 U1166 2.420 . S
O1185 C1170 1.202 . S
O1186 U1166 2.455 . S
O1186 C1183 1.301 . S
O1187 U1166 2.449 . S
O1187 C1183 1.282 . S
H1188 C1161 0.931 . S
H1189 C1163 0.929 . S
H1190 C1164 0.930 . S
H1191 C1165 0.931 . S
H1192 C1172 0.932 . S
H1193 C1173 0.930 . S
H1194 C1174 0.929 . S
H1195 C1176 0.930 . S
H1196 C1178 0.932 . S
H1197 C1179 0.929 . S
H1198 C1180 0.928 . S
H1199 C1182 0.932 . S
C1200 C1201 1.264 . S
C1200 C1205 1.479 . S
C1200 C1210 1.465 . S
C1201 C1200 1.264 . S
C1201 C1203 1.339 . S
C1201 H1228 0.931 . S
C1202 C1203 1.395 . S
C1202 C1204 1.320 . S
C1203 C1201 1.339 . S
C1203 C1202 1.395 . S
C1203 H1229 0.929 . S
C1204 C1202 1.320 . S
C1204 C1205 1.405 . S
C1204 H1230 0.930 . S
C1205 C1200 1.479 . S
C1205 C1204 1.405 . S
C1205 H1231 0.931 . S
U1206 O1207 2.454 . S
U1206 O1208 2.458 . S
U1206 C1209 2.984 . S
U1206 C1210 2.847 . S
U1206 C1223 2.882 . S
U1206 O1224 2.441 . S
U1206 O1225 2.420 . S
U1206 O1226 2.455 . S
U1206 O1227 2.449 . S
O1207 U1206 2.454 . S
O1207 C1209 1.353 . S
O1208 U1206 2.458 . S
O1208 C1209 1.286 . S
C1209 U1206 2.984 . S
C1209 O1207 1.353 . S
C1209 O1208 1.286 . S
C1209 C1211 1.363 . S
C1210 C1200 1.465 . S
C1210 U1206 2.847 . S
C1210 O1224 1.249 . S
C1210 O1225 1.202 . S
C1211 C1209 1.363 . S
C1211 C1213 1.408 . S
C1211 C1216 1.342 . S
C1212 C1213 1.310 . S
C1212 C1215 1.461 . S
C1212 H1232 0.932 . S
C1213 C1211 1.408 . S
C1213 C1212 1.310 . S
C1213 H1233 0.930 . S
C1214 C1215 1.474 . S
C1214 C1216 1.285 . S
C1214 H1234 0.929 . S
C1215 C1212 1.461 . S
C1215 C1214 1.474 . S
C1216 C1211 1.342 . S
C1216 C1214 1.285 . S
C1216 H1235 0.930 . S
C1217 C1220 1.424 . S
C1217 C1222 1.245 . S
C1217 C1223 1.428 . S
C1218 C1221 1.260 . S
C1218 C1222 1.477 . S
C1218 H1236 0.932 . S
C1219 C1220 1.384 . S
C1219 C1221 1.479 . S
C1219 H1237 0.929 . S
C1220 C1217 1.424 . S
C1220 C1219 1.384 . S
C1220 H1238 0.928 . S
C1221 C1218 1.260 . S
C1221 C1219 1.479 . S
C1222 C1217 1.245 . S
C1222 C1218 1.477 . S
C1222 H1239 0.932 . S
C1223 U1206 2.882 . S
C1223 C1217 1.428 . S
C1223 O1226 1.301 . S
C1223 O1227 1.282 . S
O1224 U1206 2.441 . S
O1224 C1210 1.249 . S
O1225 U1206 2.420 . S
O1225 C1210 1.202 . S
O1226 U1206 2.455 . S
O1226 C1223 1.301 . S
O1227 U1206 2.449 . S
O1227 C1223 1.282 . S
H1228 C1201 0.931 . S
H1229 C1203 0.929 . S
H1230 C1204 0.930 . S
H1231 C1205 0.931 . S
H1232 C1212 0.932 . S
H1233 C1213 0.930 . S
H1234 C1214 0.929 . S
H1235 C1216 0.930 . S
H1236 C1218 0.932 . S
H1237 C1219 0.929 . S
H1238 C1220 0.928 . S
H1239 C1222 0.932 . S
C1240 C1241 1.264 . S
C1240 C1245 1.479 . S
C1240 C1250 1.465 . S
C1241 C1240 1.264 . S
C1241 C1243 1.339 . S
C1241 H1268 0.931 . S
C1242 C1243 1.395 . S
C1242 C1244 1.320 . S
C1243 C1241 1.339 . S
C1243 C1242 1.395 . S
C1243 H1269 0.929 . S
C1244 C1242 1.320 . S
C1244 C1245 1.405 . S
C1244 H1270 0.930 . S
C1245 C1240 1.479 . S
C1245 C1244 1.405 . S
C1245 H1271 0.931 . S
U1246 O1247 2.454 . S
U1246 O1248 2.458 . S
U1246 C1249 2.984 . S
U1246 C1250 2.847 . S
U1246 C1263 2.882 . S
U1246 O1264 2.441 . S
U1246 O1265 2.420 . S
U1246 O1266 2.455 . S
U1246 O1267 2.449 . S
O1247 U1246 2.454 . S
O1247 C1249 1.353 . S
O1248 U1246 2.458 . S
O1248 C1249 1.286 . S
C1249 U1246 2.984 . S
C1249 O1247 1.353 . S
C1249 O1248 1.286 . S
C1249 C1251 1.363 . S
C1250 C1240 1.465 . S
C1250 U1246 2.847 . S
C1250 O1264 1.249 . S
C1250 O1265 1.202 . S
C1251 C1249 1.363 . S
C1251 C1253 1.408 . S
C1251 C1256 1.342 . S
C1252 C1253 1.310 . S
C1252 C1255 1.461 . S
C1252 H1272 0.932 . S
C1253 C1251 1.408 . S
C1253 C1252 1.310 . S
C1253 H1273 0.930 . S
C1254 C1255 1.474 . S
C1254 C1256 1.285 . S
C1254 H1274 0.929 . S
C1255 C1252 1.461 . S
C1255 C1254 1.474 . S
C1256 C1251 1.342 . S
C1256 C1254 1.285 . S
C1256 H1275 0.930 . S
C1257 C1260 1.424 . S
C1257 C1262 1.245 . S
C1257 C1263 1.428 . S
C1258 C1261 1.260 . S
C1258 C1262 1.477 . S
C1258 H1276 0.932 . S
C1259 C1260 1.384 . S
C1259 C1261 1.479 . S
C1259 H1277 0.929 . S
C1260 C1257 1.424 . S
C1260 C1259 1.384 . S
C1260 H1278 0.928 . S
C1261 C1258 1.260 . S
C1261 C1259 1.479 . S
C1262 C1257 1.245 . S
C1262 C1258 1.477 . S
C1262 H1279 0.932 . S
C1263 U1246 2.882 . S
C1263 C1257 1.428 . S
C1263 O1266 1.301 . S
C1263 O1267 1.282 . S
O1264 U1246 2.441 . S
O1264 C1250 1.249 . S
O1265 U1246 2.420 . S
O1265 C1250 1.202 . S
O1266 U1246 2.455 . S
O1266 C1263 1.301 . S
O1267 U1246 2.449 . S
O1267 C1263 1.282 . S
H1268 C1241 0.931 . S
H1269 C1243 0.929 . S
H1270 C1244 0.930 . S
H1271 C1245 0.931 . S
H1272 C1252 0.932 . S
H1273 C1253 0.930 . S
H1274 C1254 0.929 . S
H1275 C1256 0.930 . S
H1276 C1258 0.932 . S
H1277 C1259 0.929 . S
H1278 C1260 0.928 . S
H1279 C1262 0.932 . S
H1280 C1307 0.929 . S
N1281 C1306 1.433 . S
N1281 C1312 1.435 . S
N1281 C1318 1.423 . S
H1282 C1308 0.930 . S
H1283 C1311 0.931 . S
H1284 C1310 0.929 . S
H1285 C1313 0.930 . S
H1286 C1314 0.932 . S
H1287 C1317 0.929 . S
H1288 C1316 0.931 . S
H1289 C1319 0.929 . S
H1290 C1323 0.932 . S
H1291 C1320 0.931 . S
H1292 C1322 0.929 . S
H1293 C1325 0.929 . S
H1294 C1326 0.930 . S
H1295 C1328 0.929 . S
H1296 C1329 0.931 . S
H1297 C1331 0.930 . S
H1298 C1332 0.932 . S
H1299 C1334 0.931 . S
H1300 C1335 0.929 . S
H1301 C1337 0.929 . S
H1302 C1338 0.931 . S
H1303 C1340 0.929 . S
N1304 C1324 1.433 . S
N1304 C1330 1.435 . S
N1304 C1336 1.423 . S
H1305 C1341 0.932 . S
C1306 N1281 1.433 . S
C1306 C1307 1.363 . S
C1306 C1311 1.370 . S
C1307 H1280 0.929 . S
C1307 C1306 1.363 . S
C1307 C1308 1.385 . S
C1308 H1282 0.930 . S
C1308 C1307 1.385 . S
C1308 C1309 1.357 . S
C1309 C1308 1.357 . S
C1309 C1310 1.406 . S
C1310 H1284 0.929 . S
C1310 C1309 1.406 . S
C1310 C1311 1.391 . S
C1311 H1283 0.931 . S
C1311 C1306 1.370 . S
C1311 C1310 1.391 . S
C1312 N1281 1.435 . S
C1312 C1313 1.358 . S
C1312 C1317 1.371 . S
C1313 H1285 0.930 . S
C1313 C1312 1.358 . S
C1313 C1314 1.405 . S
C1314 H1286 0.932 . S
C1314 C1313 1.405 . S
C1314 C1315 1.383 . S
C1315 C1314 1.383 . S
C1315 C1316 1.393 . S
C1316 H1288 0.931 . S
C1316 C1315 1.393 . S
C1316 C1317 1.382 . S
C1317 H1287 0.929 . S
C1317 C1312 1.371 . S
C1317 C1316 1.382 . S
C1318 N1281 1.423 . S
C1318 C1319 1.362 . S
C1318 C1323 1.388 . S
C1319 H1289 0.929 . S
C1319 C1318 1.362 . S
C1319 C1320 1.376 . S
C1320 H1291 0.931 . S
C1320 C1319 1.376 . S
C1320 C1321 1.399 . S
C1321 C1320 1.399 . S
C1321 C1322 1.350 . S
C1321 C1339 1.467 1_556 S
C1322 H1292 0.929 . S
C1322 C1321 1.350 . S
C1322 C1323 1.443 . S
C1323 H1290 0.932 . S
C1323 C1318 1.388 . S
C1323 C1322 1.443 . S
C1324 N1304 1.433 . S
C1324 C1325 1.363 . S
C1324 C1329 1.370 . S
C1325 H1293 0.929 . S
C1325 C1324 1.363 . S
C1325 C1326 1.385 . S
C1326 H1294 0.930 . S
C1326 C1325 1.385 . S
C1326 C1327 1.357 . S
C1327 C1326 1.357 . S
C1327 C1328 1.406 . S
C1328 H1295 0.929 . S
C1328 C1327 1.406 . S
C1328 C1329 1.391 . S
C1329 H1296 0.931 . S
C1329 C1324 1.370 . S
C1329 C1328 1.391 . S
C1330 N1304 1.435 . S
C1330 C1331 1.358 . S
C1330 C1335 1.371 . S
C1331 H1297 0.930 . S
C1331 C1330 1.358 . S
C1331 C1332 1.405 . S
C1332 H1298 0.932 . S
C1332 C1331 1.405 . S
C1332 C1333 1.383 . S
C1333 C1332 1.383 . S
C1333 C1334 1.393 . S
C1334 H1299 0.931 . S
C1334 C1333 1.393 . S
C1334 C1335 1.382 . S
C1335 H1300 0.929 . S
C1335 C1330 1.371 . S
C1335 C1334 1.382 . S
C1336 N1304 1.423 . S
C1336 C1337 1.362 . S
C1336 C1341 1.388 . S
C1337 H1301 0.929 . S
C1337 C1336 1.362 . S
C1337 C1338 1.376 . S
C1338 H1302 0.931 . S
C1338 C1337 1.376 . S
C1338 C1339 1.396 . S
C1339 C1321 1.467 1_554 S
C1339 C1338 1.396 . S
C1339 C1340 1.348 . S
C1340 H1303 0.929 . S
C1340 C1339 1.348 . S
C1340 C1341 1.443 . S
C1341 H1305 0.932 . S
C1341 C1336 1.388 . S
C1341 C1340 1.443 . S
H1342 C1369 0.929 . S
N1343 C1368 1.433 . S
N1343 C1374 1.435 . S
N1343 C1380 1.423 . S
H1344 C1370 0.930 . S
H1345 C1373 0.931 . S
H1346 C1372 0.929 . S
H1347 C1375 0.930 . S
H1348 C1376 0.932 . S
H1349 C1379 0.929 . S
H1350 C1378 0.931 . S
H1351 C1381 0.929 . S
H1352 C1385 0.932 . S
H1353 C1382 0.933 . S
H1354 C1384 0.925 . S
H1355 C1387 0.929 . S
H1356 C1388 0.930 . S
H1357 C1390 0.929 . S
H1358 C1391 0.931 . S
H1359 C1393 0.930 . S
H1360 C1394 0.932 . S
H1361 C1396 0.931 . S
H1362 C1397 0.929 . S
H1363 C1399 0.929 . S
H1364 C1400 0.931 . S
H1365 C1402 0.929 . S
N1366 C1386 1.433 . S
N1366 C1392 1.435 . S
N1366 C1398 1.423 . S
H1367 C1403 0.932 . S
C1368 N1343 1.433 . S
C1368 C1369 1.363 . S
C1368 C1373 1.370 . S
C1369 H1342 0.929 . S
C1369 C1368 1.363 . S
C1369 C1370 1.385 . S
C1370 H1344 0.930 . S
C1370 C1369 1.385 . S
C1370 C1371 1.357 . S
C1371 C1370 1.357 . S
C1371 C1372 1.406 . S
C1372 H1346 0.929 . S
C1372 C1371 1.406 . S
C1372 C1373 1.391 . S
C1373 H1345 0.931 . S
C1373 C1368 1.370 . S
C1373 C1372 1.391 . S
C1374 N1343 1.435 . S
C1374 C1375 1.358 . S
C1374 C1379 1.371 . S
C1375 H1347 0.930 . S
C1375 C1374 1.358 . S
C1375 C1376 1.405 . S
C1376 H1348 0.932 . S
C1376 C1375 1.405 . S
C1376 C1377 1.383 . S
C1377 C1376 1.383 . S
C1377 C1378 1.393 . S
C1378 H1350 0.931 . S
C1378 C1377 1.393 . S
C1378 C1379 1.382 . S
C1379 H1349 0.929 . S
C1379 C1374 1.371 . S
C1379 C1378 1.382 . S
C1380 N1343 1.423 . S
C1380 C1381 1.362 . S
C1380 C1385 1.388 . S
C1381 H1351 0.929 . S
C1381 C1380 1.362 . S
C1381 C1382 1.376 . S
C1382 H1353 0.933 . S
C1382 C1381 1.376 . S
C1382 C1383 1.396 1_556 S
C1383 C1382 1.396 1_554 S
C1383 C1384 1.348 1_554 S
C1383 C1401 1.472 . S
C1384 H1354 0.925 . S
C1384 C1383 1.348 1_556 S
C1384 C1385 1.443 . S
C1385 H1352 0.932 . S
C1385 C1380 1.388 . S
C1385 C1384 1.443 . S
C1386 N1366 1.433 . S
C1386 C1387 1.363 . S
C1386 C1391 1.370 . S
C1387 H1355 0.929 . S
C1387 C1386 1.363 . S
C1387 C1388 1.385 . S
C1388 H1356 0.930 . S
C1388 C1387 1.385 . S
C1388 C1389 1.357 . S
C1389 C1388 1.357 . S
C1389 C1390 1.406 . S
C1390 H1357 0.929 . S
C1390 C1389 1.406 . S
C1390 C1391 1.391 . S
C1391 H1358 0.931 . S
C1391 C1386 1.370 . S
C1391 C1390 1.391 . S
C1392 N1366 1.435 . S
C1392 C1393 1.358 . S
C1392 C1397 1.371 . S
C1393 H1359 0.930 . S
C1393 C1392 1.358 . S
C1393 C1394 1.405 . S
C1394 H1360 0.932 . S
C1394 C1393 1.405 . S
C1394 C1395 1.383 . S
C1395 C1394 1.383 . S
C1395 C1396 1.393 . S
C1396 H1361 0.931 . S
C1396 C1395 1.393 . S
C1396 C1397 1.382 . S
C1397 H1362 0.929 . S
C1397 C1392 1.371 . S
C1397 C1396 1.382 . S
C1398 N1366 1.423 . S
C1398 C1399 1.362 . S
C1398 C1403 1.388 . S
C1399 H1363 0.929 . S
C1399 C1398 1.362 . S
C1399 C1400 1.376 . S
C1400 H1364 0.931 . S
C1400 C1399 1.376 . S
C1400 C1401 1.396 . S
C1401 C1383 1.472 . S
C1401 C1400 1.396 . S
C1401 C1402 1.348 . S
C1402 H1365 0.929 . S
C1402 C1401 1.348 . S
C1402 C1403 1.443 . S
C1403 H1367 0.932 . S
C1403 C1398 1.388 . S
C1403 C1402 1.443 . S
H1404 C1431 0.929 . S
N1405 C1430 1.433 . S
N1405 C1436 1.435 . S
N1405 C1442 1.423 . S
H1406 C1432 0.930 . S
H1407 C1435 0.931 . S
H1408 C1434 0.929 . S
H1409 C1437 0.930 . S
H1410 C1438 0.932 . S
H1411 C1441 0.929 . S
H1412 C1440 0.931 . S
H1413 C1443 0.929 . S
H1414 C1447 0.932 . S
H1415 C1444 0.931 . S
H1416 C1446 0.929 . S
H1417 C1449 0.929 . S
H1418 C1450 0.930 . S
H1419 C1452 0.929 . S
H1420 C1453 0.931 . S
H1421 C1455 0.930 . S
H1422 C1456 0.932 . S
H1423 C1458 0.931 . S
H1424 C1459 0.929 . S
H1425 C1461 0.929 . S
H1426 C1462 0.931 . S
H1427 C1464 0.929 . S
N1428 C1448 1.433 . S
N1428 C1454 1.435 . S
N1428 C1460 1.423 . S
H1429 C1465 0.932 . S
C1430 N1405 1.433 . S
C1430 C1431 1.363 . S
C1430 C1435 1.370 . S
C1431 H1404 0.929 . S
C1431 C1430 1.363 . S
C1431 C1432 1.385 . S
C1432 H1406 0.930 . S
C1432 C1431 1.385 . S
C1432 C1433 1.357 . S
C1433 C1432 1.357 . S
C1433 C1434 1.406 . S
C1434 H1408 0.929 . S
C1434 C1433 1.406 . S
C1434 C1435 1.391 . S
C1435 H1407 0.931 . S
C1435 C1430 1.370 . S
C1435 C1434 1.391 . S
C1436 N1405 1.435 . S
C1436 C1437 1.358 . S
C1436 C1441 1.371 . S
C1437 H1409 0.930 . S
C1437 C1436 1.358 . S
C1437 C1438 1.405 . S
C1438 H1410 0.932 . S
C1438 C1437 1.405 . S
C1438 C1439 1.383 . S
C1439 C1438 1.383 . S
C1439 C1440 1.393 . S
C1440 H1412 0.931 . S
C1440 C1439 1.393 . S
C1440 C1441 1.382 . S
C1441 H1411 0.929 . S
C1441 C1436 1.371 . S
C1441 C1440 1.382 . S
C1442 N1405 1.423 . S
C1442 C1443 1.362 . S
C1442 C1447 1.388 . S
C1443 H1413 0.929 . S
C1443 C1442 1.362 . S
C1443 C1444 1.376 . S
C1444 H1415 0.931 . S
C1444 C1443 1.376 . S
C1444 C1445 1.392 . S
C1445 C1444 1.392 . S
C1445 C1446 1.344 . S
C1445 C1463 1.480 1_556 S
C1446 H1416 0.929 . S
C1446 C1445 1.344 . S
C1446 C1447 1.443 . S
C1447 H1414 0.932 . S
C1447 C1442 1.388 . S
C1447 C1446 1.443 . S
C1448 N1428 1.433 . S
C1448 C1449 1.363 . S
C1448 C1453 1.370 . S
C1449 H1417 0.929 . S
C1449 C1448 1.363 . S
C1449 C1450 1.385 . S
C1450 H1418 0.930 . S
C1450 C1449 1.385 . S
C1450 C1451 1.357 . S
C1451 C1450 1.357 . S
C1451 C1452 1.406 . S
C1452 H1419 0.929 . S
C1452 C1451 1.406 . S
C1452 C1453 1.391 . S
C1453 H1420 0.931 . S
C1453 C1448 1.370 . S
C1453 C1452 1.391 . S
C1454 N1428 1.435 . S
C1454 C1455 1.358 . S
C1454 C1459 1.371 . S
C1455 H1421 0.930 . S
C1455 C1454 1.358 . S
C1455 C1456 1.405 . S
C1456 H1422 0.932 . S
C1456 C1455 1.405 . S
C1456 C1457 1.383 . S
C1457 C1456 1.383 . S
C1457 C1458 1.393 . S
C1458 H1423 0.931 . S
C1458 C1457 1.393 . S
C1458 C1459 1.382 . S
C1459 H1424 0.929 . S
C1459 C1454 1.371 . S
C1459 C1458 1.382 . S
C1460 N1428 1.423 . S
C1460 C1461 1.362 . S
C1460 C1465 1.388 . S
C1461 H1425 0.929 . S
C1461 C1460 1.362 . S
C1461 C1462 1.376 . S
C1462 H1426 0.931 . S
C1462 C1461 1.376 . S
C1462 C1463 1.396 . S
C1463 C1445 1.480 1_554 S
C1463 C1462 1.396 . S
C1463 C1464 1.348 . S
C1464 H1427 0.929 . S
C1464 C1463 1.348 . S
C1464 C1465 1.443 . S
C1465 H1429 0.932 . S
C1465 C1460 1.388 . S
C1465 C1464 1.443 . S
H1466 C1493 0.929 . S
N1467 C1492 1.433 . S
N1467 C1498 1.435 . S
N1467 C1504 1.423 . S
H1468 C1494 0.930 . S
H1469 C1497 0.931 . S
H1470 C1496 0.929 . S
H1471 C1499 0.930 . S
H1472 C1500 0.932 . S
H1473 C1503 0.929 . S
H1474 C1502 0.931 . S
H1475 C1505 0.929 . S
H1476 C1509 0.932 . S
H1477 C1506 0.964 . S
H1478 C1508 0.929 . S
H1479 C1511 0.929 . S
H1480 C1512 0.930 . S
H1481 C1514 0.929 . S
H1482 C1515 0.931 . S
H1483 C1517 0.930 . S
H1484 C1518 0.932 . S
H1485 C1520 0.931 . S
H1486 C1521 0.929 . S
H1487 C1523 0.929 . S
H1488 C1524 0.931 . S
H1489 C1526 0.929 . S
N1490 C1510 1.433 . S
N1490 C1516 1.435 . S
N1490 C1522 1.423 . S
H1491 C1527 0.932 . S
C1492 N1467 1.433 . S
C1492 C1493 1.363 . S
C1492 C1497 1.370 . S
C1493 H1466 0.929 . S
C1493 C1492 1.363 . S
C1493 C1494 1.385 . S
C1494 H1468 0.930 . S
C1494 C1493 1.385 . S
C1494 C1495 1.357 . S
C1495 C1494 1.357 . S
C1495 C1496 1.406 . S
C1496 H1470 0.929 . S
C1496 C1495 1.406 . S
C1496 C1497 1.391 . S
C1497 H1469 0.931 . S
C1497 C1492 1.370 . S
C1497 C1496 1.391 . S
C1498 N1467 1.435 . S
C1498 C1499 1.358 . S
C1498 C1503 1.371 . S
C1499 H1471 0.930 . S
C1499 C1498 1.358 . S
C1499 C1500 1.405 . S
C1500 H1472 0.932 . S
C1500 C1499 1.405 . S
C1500 C1501 1.383 . S
C1501 C1500 1.383 . S
C1501 C1502 1.393 . S
C1502 H1474 0.931 . S
C1502 C1501 1.393 . S
C1502 C1503 1.382 . S
C1503 H1473 0.929 . S
C1503 C1498 1.371 . S
C1503 C1502 1.382 . S
C1504 N1467 1.423 . S
C1504 C1505 1.362 . S
C1504 C1509 1.388 . S
C1505 H1475 0.929 . S
C1505 C1504 1.362 . S
C1505 C1506 1.376 . S
C1506 H1477 0.964 . S
C1506 C1505 1.376 . S
C1506 C1507 1.396 1_556 S
C1507 C1506 1.396 1_554 S
C1507 C1508 1.348 1_554 S
C1507 C1525 1.472 . S
C1508 H1478 0.929 . S
C1508 C1507 1.348 1_556 S
C1508 C1509 1.443 . S
C1509 H1476 0.932 . S
C1509 C1504 1.388 . S
C1509 C1508 1.443 . S
C1510 N1490 1.433 . S
C1510 C1511 1.363 . S
C1510 C1515 1.370 . S
C1511 H1479 0.929 . S
C1511 C1510 1.363 . S
C1511 C1512 1.385 . S
C1512 H1480 0.930 . S
C1512 C1511 1.385 . S
C1512 C1513 1.357 . S
C1513 C1512 1.357 . S
C1513 C1514 1.406 . S
C1514 H1481 0.929 . S
C1514 C1513 1.406 . S
C1514 C1515 1.391 . S
C1515 H1482 0.931 . S
C1515 C1510 1.370 . S
C1515 C1514 1.391 . S
C1516 N1490 1.435 . S
C1516 C1517 1.358 . S
C1516 C1521 1.371 . S
C1517 H1483 0.930 . S
C1517 C1516 1.358 . S
C1517 C1518 1.405 . S
C1518 H1484 0.932 . S
C1518 C1517 1.405 . S
C1518 C1519 1.383 . S
C1519 C1518 1.383 . S
C1519 C1520 1.393 . S
C1520 H1485 0.931 . S
C1520 C1519 1.393 . S
C1520 C1521 1.382 . S
C1521 H1486 0.929 . S
C1521 C1516 1.371 . S
C1521 C1520 1.382 . S
C1522 N1490 1.423 . S
C1522 C1523 1.362 . S
C1522 C1527 1.388 . S
C1523 H1487 0.929 . S
C1523 C1522 1.362 . S
C1523 C1524 1.376 . S
C1524 H1488 0.931 . S
C1524 C1523 1.376 . S
C1524 C1525 1.396 . S
C1525 C1507 1.472 . S
C1525 C1524 1.396 . S
C1525 C1526 1.348 . S
C1526 H1489 0.929 . S
C1526 C1525 1.348 . S
C1526 C1527 1.443 . S
C1527 H1491 0.932 . S
C1527 C1522 1.388 . S
C1527 C1526 1.443 . S
H1528 C1555 0.929 . S
N1529 C1554 1.433 . S
N1529 C1560 1.435 . S
N1529 C1566 1.423 . S
H1530 C1556 0.930 . S
H1531 C1559 0.931 . S
H1532 C1558 0.929 . S
H1533 C1561 0.930 . S
H1534 C1562 0.932 . S
H1535 C1565 0.929 . S
H1536 C1564 0.931 . S
H1537 C1567 0.929 . S
H1538 C1571 0.932 . S
H1539 C1568 0.934 1_455 S
H1540 C1570 0.960 . S
H1541 C1573 0.929 . S
H1542 C1574 0.930 . S
H1543 C1576 0.929 . S
H1544 C1577 0.931 . S
H1545 C1579 0.930 . S
H1546 C1580 0.932 . S
H1547 C1582 0.931 . S
H1548 C1583 0.929 . S
H1549 C1585 0.929 . S
H1550 C1586 0.931 . S
H1551 C1588 0.929 . S
N1552 C1572 1.433 . S
N1552 C1578 1.435 . S
N1552 C1584 1.423 . S
H1553 C1589 0.932 . S
C1554 N1529 1.433 . S
C1554 C1555 1.363 . S
C1554 C1559 1.370 . S
C1555 H1528 0.929 . S
C1555 C1554 1.363 . S
C1555 C1556 1.385 . S
C1556 H1530 0.930 . S
C1556 C1555 1.385 . S
C1556 C1557 1.357 . S
C1557 C1556 1.357 . S
C1557 C1558 1.406 . S
C1558 H1532 0.929 . S
C1558 C1557 1.406 . S
C1558 C1559 1.391 . S
C1559 H1531 0.931 . S
C1559 C1554 1.370 . S
C1559 C1558 1.391 . S
C1560 N1529 1.435 . S
C1560 C1561 1.358 . S
C1560 C1565 1.371 . S
C1561 H1533 0.930 . S
C1561 C1560 1.358 . S
C1561 C1562 1.405 . S
C1562 H1534 0.932 . S
C1562 C1561 1.405 . S
C1562 C1563 1.383 . S
C1563 C1562 1.383 . S
C1563 C1564 1.393 . S
C1564 H1536 0.931 . S
C1564 C1563 1.393 . S
C1564 C1565 1.382 . S
C1565 H1535 0.929 . S
C1565 C1560 1.371 . S
C1565 C1564 1.382 . S
C1566 N1529 1.423 . S
C1566 C1567 1.362 . S
C1566 C1571 1.388 . S
C1567 H1537 0.929 . S
C1567 C1566 1.362 . S
C1567 C1568 1.376 . S
C1568 H1539 0.934 1_655 S
C1568 C1567 1.376 . S
C1568 C1569 1.396 1_655 S
C1569 C1568 1.396 1_455 S
C1569 C1570 1.348 1_455 S
C1569 C1587 1.472 . S
C1570 H1540 0.960 . S
C1570 C1569 1.348 1_655 S
C1570 C1571 1.443 . S
C1571 H1538 0.932 . S
C1571 C1566 1.388 . S
C1571 C1570 1.443 . S
C1572 N1552 1.433 . S
C1572 C1573 1.363 . S
C1572 C1577 1.370 . S
C1573 H1541 0.929 . S
C1573 C1572 1.363 . S
C1573 C1574 1.385 . S
C1574 H1542 0.930 . S
C1574 C1573 1.385 . S
C1574 C1575 1.357 . S
C1575 C1574 1.357 . S
C1575 C1576 1.406 . S
C1576 H1543 0.929 . S
C1576 C1575 1.406 . S
C1576 C1577 1.391 . S
C1577 H1544 0.931 . S
C1577 C1572 1.370 . S
C1577 C1576 1.391 . S
C1578 N1552 1.435 . S
C1578 C1579 1.358 . S
C1578 C1583 1.371 . S
C1579 H1545 0.930 . S
C1579 C1578 1.358 . S
C1579 C1580 1.405 . S
C1580 H1546 0.932 . S
C1580 C1579 1.405 . S
C1580 C1581 1.383 . S
C1581 C1580 1.383 . S
C1581 C1582 1.393 . S
C1582 H1547 0.931 . S
C1582 C1581 1.393 . S
C1582 C1583 1.382 . S
C1583 H1548 0.929 . S
C1583 C1578 1.371 . S
C1583 C1582 1.382 . S
C1584 N1552 1.423 . S
C1584 C1585 1.362 . S
C1584 C1589 1.388 . S
C1585 H1549 0.929 . S
C1585 C1584 1.362 . S
C1585 C1586 1.376 . S
C1586 H1550 0.931 . S
C1586 C1585 1.376 . S
C1586 C1587 1.396 . S
C1587 C1569 1.472 . S
C1587 C1586 1.396 . S
C1587 C1588 1.348 . S
C1588 H1551 0.929 . S
C1588 C1587 1.348 . S
C1588 C1589 1.443 . S
C1589 H1553 0.932 . S
C1589 C1584 1.388 . S
C1589 C1588 1.443 . S
H1590 C1617 0.929 . S
N1591 C1616 1.433 . S
N1591 C1622 1.435 . S
N1591 C1628 1.423 . S
H1592 C1618 0.930 . S
H1593 C1621 0.931 . S
H1594 C1620 0.929 . S
H1595 C1623 0.930 . S
H1596 C1624 0.932 . S
H1597 C1627 0.929 . S
H1598 C1626 0.931 . S
H1599 C1629 0.929 . S
H1600 C1633 0.932 . S
H1601 C1630 0.931 . S
H1602 C1632 0.929 . S
H1603 C1635 0.929 . S
H1604 C1636 0.930 . S
H1605 C1638 0.929 . S
H1606 C1639 0.931 . S
H1607 C1641 0.930 . S
H1608 C1642 0.932 . S
H1609 C1644 0.931 . S
H1610 C1645 0.929 . S
H1611 C1647 0.929 . S
H1612 C1648 0.931 . S
H1613 C1650 0.929 . S
N1614 C1634 1.433 . S
N1614 C1640 1.435 . S
N1614 C1646 1.423 . S
H1615 C1651 0.932 . S
C1616 N1591 1.433 . S
C1616 C1617 1.363 . S
C1616 C1621 1.370 . S
C1617 H1590 0.929 . S
C1617 C1616 1.363 . S
C1617 C1618 1.385 . S
C1618 H1592 0.930 . S
C1618 C1617 1.385 . S
C1618 C1619 1.357 . S
C1619 C1618 1.357 . S
C1619 C1620 1.406 . S
C1620 H1594 0.929 . S
C1620 C1619 1.406 . S
C1620 C1621 1.391 . S
C1621 H1593 0.931 . S
C1621 C1616 1.370 . S
C1621 C1620 1.391 . S
C1622 N1591 1.435 . S
C1622 C1623 1.358 . S
C1622 C1627 1.371 . S
C1623 H1595 0.930 . S
C1623 C1622 1.358 . S
C1623 C1624 1.405 . S
C1624 H1596 0.932 . S
C1624 C1623 1.405 . S
C1624 C1625 1.383 . S
C1625 C1624 1.383 . S
C1625 C1626 1.393 . S
C1626 H1598 0.931 . S
C1626 C1625 1.393 . S
C1626 C1627 1.382 . S
C1627 H1597 0.929 . S
C1627 C1622 1.371 . S
C1627 C1626 1.382 . S
C1628 N1591 1.423 . S
C1628 C1629 1.362 . S
C1628 C1633 1.388 . S
C1629 H1599 0.929 . S
C1629 C1628 1.362 . S
C1629 C1630 1.376 . S
C1630 H1601 0.931 . S
C1630 C1629 1.376 . S
C1630 C1631 1.396 . S
C1631 C1630 1.396 . S
C1631 C1632 1.348 . S
C1631 C1649 1.472 1_545 S
C1632 H1602 0.929 . S
C1632 C1631 1.348 . S
C1632 C1633 1.443 . S
C1633 H1600 0.932 . S
C1633 C1628 1.388 . S
C1633 C1632 1.443 . S
C1634 N1614 1.433 . S
C1634 C1635 1.363 . S
C1634 C1639 1.370 . S
C1635 H1603 0.929 . S
C1635 C1634 1.363 . S
C1635 C1636 1.385 . S
C1636 H1604 0.930 . S
C1636 C1635 1.385 . S
C1636 C1637 1.357 . S
C1637 C1636 1.357 . S
C1637 C1638 1.406 . S
C1638 H1605 0.929 . S
C1638 C1637 1.406 . S
C1638 C1639 1.391 . S
C1639 H1606 0.931 . S
C1639 C1634 1.370 . S
C1639 C1638 1.391 . S
C1640 N1614 1.435 . S
C1640 C1641 1.358 . S
C1640 C1645 1.371 . S
C1641 H1607 0.930 . S
C1641 C1640 1.358 . S
C1641 C1642 1.405 . S
C1642 H1608 0.932 . S
C1642 C1641 1.405 . S
C1642 C1643 1.383 . S
C1643 C1642 1.383 . S
C1643 C1644 1.393 . S
C1644 H1609 0.931 . S
C1644 C1643 1.393 . S
C1644 C1645 1.382 . S
C1645 H1610 0.929 . S
C1645 C1640 1.371 . S
C1645 C1644 1.382 . S
C1646 N1614 1.423 . S
C1646 C1647 1.362 . S
C1646 C1651 1.388 . S
C1647 H1611 0.929 . S
C1647 C1646 1.362 . S
C1647 C1648 1.376 . S
C1648 H1612 0.931 . S
C1648 C1647 1.376 . S
C1648 C1649 1.396 . S
C1649 C1631 1.472 1_565 S
C1649 C1648 1.396 . S
C1649 C1650 1.348 . S
C1650 H1613 0.929 . S
C1650 C1649 1.348 . S
C1650 C1651 1.443 . S
C1651 H1615 0.932 . S
C1651 C1646 1.388 . S
C1651 C1650 1.443 . S
H1652 C1679 0.929 . S
N1653 C1678 1.433 . S
N1653 C1684 1.435 . S
N1653 C1690 1.423 . S
H1654 C1680 0.930 . S
H1655 C1683 0.931 . S
H1656 C1682 0.929 . S
H1657 C1685 0.930 . S
H1658 C1686 0.932 . S
H1659 C1689 0.929 . S
H1660 C1688 0.931 . S
H1661 C1691 0.929 . S
H1662 C1695 0.932 . S
H1663 C1692 0.931 . S
H1664 C1694 0.929 . S
H1665 C1697 0.929 . S
H1666 C1698 0.930 . S
H1667 C1700 0.929 . S
H1668 C1701 0.931 . S
H1669 C1703 0.930 . S
H1670 C1704 0.932 . S
H1671 C1706 0.931 . S
H1672 C1707 0.929 . S
H1673 C1709 0.929 . S
H1674 C1710 0.978 . S
H1675 C1712 0.924 . S
N1676 C1696 1.433 . S
N1676 C1702 1.435 . S
N1676 C1708 1.423 . S
H1677 C1713 0.932 . S
C1678 N1653 1.433 . S
C1678 C1679 1.363 . S
C1678 C1683 1.370 . S
C1679 H1652 0.929 . S
C1679 C1678 1.363 . S
C1679 C1680 1.385 . S
C1680 H1654 0.930 . S
C1680 C1679 1.385 . S
C1680 C1681 1.357 . S
C1681 C1680 1.357 . S
C1681 C1682 1.406 . S
C1682 H1656 0.929 . S
C1682 C1681 1.406 . S
C1682 C1683 1.391 . S
C1683 H1655 0.931 . S
C1683 C1678 1.370 . S
C1683 C1682 1.391 . S
C1684 N1653 1.435 . S
C1684 C1685 1.358 . S
C1684 C1689 1.371 . S
C1685 H1657 0.930 . S
C1685 C1684 1.358 . S
C1685 C1686 1.405 . S
C1686 H1658 0.932 . S
C1686 C1685 1.405 . S
C1686 C1687 1.383 . S
C1687 C1686 1.383 . S
C1687 C1688 1.393 . S
C1688 H1660 0.931 . S
C1688 C1687 1.393 . S
C1688 C1689 1.382 . S
C1689 H1659 0.929 . S
C1689 C1684 1.371 . S
C1689 C1688 1.382 . S
C1690 N1653 1.423 . S
C1690 C1691 1.362 . S
C1690 C1695 1.388 . S
C1691 H1661 0.929 . S
C1691 C1690 1.362 . S
C1691 C1692 1.376 . S
C1692 H1663 0.931 . S
C1692 C1691 1.376 . S
C1692 C1693 1.396 . S
C1693 C1692 1.396 . S
C1693 C1694 1.348 . S
C1693 C1711 1.472 . S
C1694 H1664 0.929 . S
C1694 C1693 1.348 . S
C1694 C1695 1.443 . S
C1695 H1662 0.932 . S
C1695 C1690 1.388 . S
C1695 C1694 1.443 . S
C1696 N1676 1.433 . S
C1696 C1697 1.363 . S
C1696 C1701 1.370 . S
C1697 H1665 0.929 . S
C1697 C1696 1.363 . S
C1697 C1698 1.385 . S
C1698 H1666 0.930 . S
C1698 C1697 1.385 . S
C1698 C1699 1.357 . S
C1699 C1698 1.357 . S
C1699 C1700 1.406 . S
C1700 H1667 0.929 . S
C1700 C1699 1.406 . S
C1700 C1701 1.391 . S
C1701 H1668 0.931 . S
C1701 C1696 1.370 . S
C1701 C1700 1.391 . S
C1702 N1676 1.435 . S
C1702 C1703 1.358 . S
C1702 C1707 1.371 . S
C1703 H1669 0.930 . S
C1703 C1702 1.358 . S
C1703 C1704 1.405 . S
C1704 H1670 0.932 . S
C1704 C1703 1.405 . S
C1704 C1705 1.383 . S
C1705 C1704 1.383 . S
C1705 C1706 1.393 . S
C1706 H1671 0.931 . S
C1706 C1705 1.393 . S
C1706 C1707 1.382 . S
C1707 H1672 0.929 . S
C1707 C1702 1.371 . S
C1707 C1706 1.382 . S
C1708 N1676 1.423 . S
C1708 C1709 1.362 . S
C1708 C1713 1.388 . S
C1709 H1673 0.929 . S
C1709 C1708 1.362 . S
C1709 C1710 1.376 . S
C1710 H1674 0.978 . S
C1710 C1709 1.376 . S
C1710 C1711 1.396 1_655 S
C1711 C1693 1.472 . S
C1711 C1710 1.396 1_455 S
C1711 C1712 1.348 1_455 S
C1712 H1675 0.924 . S
C1712 C1711 1.348 1_655 S
C1712 C1713 1.443 . S
C1713 H1677 0.932 . S
C1713 C1708 1.388 . S
C1713 C1712 1.443 . S
H1714 C1741 0.929 . S
N1715 C1740 1.433 . S
N1715 C1746 1.435 . S
N1715 C1752 1.423 . S
H1716 C1742 0.930 . S
H1717 C1745 0.931 . S
H1718 C1744 0.929 . S
H1719 C1747 0.930 . S
H1720 C1748 0.932 . S
H1721 C1751 0.929 . S
H1722 C1750 0.931 . S
H1723 C1753 0.929 . S
H1724 C1757 0.932 . S
H1725 C1754 0.931 . S
H1726 C1756 0.929 . S
H1727 C1759 0.929 . S
H1728 C1760 0.930 . S
H1729 C1762 0.929 . S
H1730 C1763 0.931 . S
H1731 C1765 0.930 . S
H1732 C1766 0.932 . S
H1733 C1768 0.931 . S
H1734 C1769 0.929 . S
H1735 C1771 0.929 . S
H1736 C1772 0.931 . S
H1737 C1774 0.929 . S
N1738 C1758 1.433 . S
N1738 C1764 1.435 . S
N1738 C1770 1.423 . S
H1739 C1775 0.932 . S
C1740 N1715 1.433 . S
C1740 C1741 1.363 . S
C1740 C1745 1.370 . S
C1741 H1714 0.929 . S
C1741 C1740 1.363 . S
C1741 C1742 1.385 . S
C1742 H1716 0.930 . S
C1742 C1741 1.385 . S
C1742 C1743 1.357 . S
C1743 C1742 1.357 . S
C1743 C1744 1.406 . S
C1744 H1718 0.929 . S
C1744 C1743 1.406 . S
C1744 C1745 1.391 . S
C1745 H1717 0.931 . S
C1745 C1740 1.370 . S
C1745 C1744 1.391 . S
C1746 N1715 1.435 . S
C1746 C1747 1.358 . S
C1746 C1751 1.371 . S
C1747 H1719 0.930 . S
C1747 C1746 1.358 . S
C1747 C1748 1.405 . S
C1748 H1720 0.932 . S
C1748 C1747 1.405 . S
C1748 C1749 1.383 . S
C1749 C1748 1.383 . S
C1749 C1750 1.393 . S
C1750 H1722 0.931 . S
C1750 C1749 1.393 . S
C1750 C1751 1.382 . S
C1751 H1721 0.929 . S
C1751 C1746 1.371 . S
C1751 C1750 1.382 . S
C1752 N1715 1.423 . S
C1752 C1753 1.362 . S
C1752 C1757 1.388 . S
C1753 H1723 0.929 . S
C1753 C1752 1.362 . S
C1753 C1754 1.376 . S
C1754 H1725 0.931 . S
C1754 C1753 1.376 . S
C1754 C1755 1.396 . S
C1755 C1754 1.396 . S
C1755 C1756 1.348 . S
C1755 C1773 1.472 1_565 S
C1756 H1726 0.929 . S
C1756 C1755 1.348 . S
C1756 C1757 1.443 . S
C1757 H1724 0.932 . S
C1757 C1752 1.388 . S
C1757 C1756 1.443 . S
C1758 N1738 1.433 . S
C1758 C1759 1.363 . S
C1758 C1763 1.370 . S
C1759 H1727 0.929 . S
C1759 C1758 1.363 . S
C1759 C1760 1.385 . S
C1760 H1728 0.930 . S
C1760 C1759 1.385 . S
C1760 C1761 1.357 . S
C1761 C1760 1.357 . S
C1761 C1762 1.406 . S
C1762 H1729 0.929 . S
C1762 C1761 1.406 . S
C1762 C1763 1.391 . S
C1763 H1730 0.931 . S
C1763 C1758 1.370 . S
C1763 C1762 1.391 . S
C1764 N1738 1.435 . S
C1764 C1765 1.358 . S
C1764 C1769 1.371 . S
C1765 H1731 0.930 . S
C1765 C1764 1.358 . S
C1765 C1766 1.405 . S
C1766 H1732 0.932 . S
C1766 C1765 1.405 . S
C1766 C1767 1.383 . S
C1767 C1766 1.383 . S
C1767 C1768 1.393 . S
C1768 H1733 0.931 . S
C1768 C1767 1.393 . S
C1768 C1769 1.382 . S
C1769 H1734 0.929 . S
C1769 C1764 1.371 . S
C1769 C1768 1.382 . S
C1770 N1738 1.423 . S
C1770 C1771 1.362 . S
C1770 C1775 1.388 . S
C1771 H1735 0.929 . S
C1771 C1770 1.362 . S
C1771 C1772 1.376 . S
C1772 H1736 0.931 . S
C1772 C1771 1.376 . S
C1772 C1773 1.396 . S
C1773 C1755 1.472 1_545 S
C1773 C1772 1.396 . S
C1773 C1774 1.348 . S
C1774 H1737 0.929 . S
C1774 C1773 1.348 . S
C1774 C1775 1.443 . S
C1775 H1739 0.932 . S
C1775 C1770 1.388 . S
C1775 C1774 1.443 . S
H1776 C1803 0.929 . S
N1777 C1802 1.433 . S
N1777 C1808 1.435 . S
N1777 C1814 1.423 . S
H1778 C1804 0.930 . S
H1779 C1807 0.931 . S
H1780 C1806 0.929 . S
H1781 C1809 0.930 . S
H1782 C1810 0.932 . S
H1783 C1813 0.929 . S
H1784 C1812 0.931 . S
H1785 C1815 0.929 . S
H1786 C1819 0.932 . S
H1787 C1816 0.931 . S
H1788 C1818 0.929 . S
H1789 C1821 0.929 . S
H1790 C1822 0.930 . S
H1791 C1824 0.929 . S
H1792 C1825 0.931 . S
H1793 C1827 0.930 . S
H1794 C1828 0.932 . S
H1795 C1830 0.931 . S
H1796 C1831 0.929 . S
H1797 C1833 0.929 . S
H1798 C1834 0.962 . S
H1799 C1836 0.929 1_455 S
N1800 C1820 1.433 . S
N1800 C1826 1.435 . S
N1800 C1832 1.423 . S
H1801 C1837 0.932 . S
C1802 N1777 1.433 . S
C1802 C1803 1.363 . S
C1802 C1807 1.370 . S
C1803 H1776 0.929 . S
C1803 C1802 1.363 . S
C1803 C1804 1.385 . S
C1804 H1778 0.930 . S
C1804 C1803 1.385 . S
C1804 C1805 1.357 . S
C1805 C1804 1.357 . S
C1805 C1806 1.406 . S
C1806 H1780 0.929 . S
C1806 C1805 1.406 . S
C1806 C1807 1.391 . S
C1807 H1779 0.931 . S
C1807 C1802 1.370 . S
C1807 C1806 1.391 . S
C1808 N1777 1.435 . S
C1808 C1809 1.358 . S
C1808 C1813 1.371 . S
C1809 H1781 0.930 . S
C1809 C1808 1.358 . S
C1809 C1810 1.405 . S
C1810 H1782 0.932 . S
C1810 C1809 1.405 . S
C1810 C1811 1.383 . S
C1811 C1810 1.383 . S
C1811 C1812 1.393 . S
C1812 H1784 0.931 . S
C1812 C1811 1.393 . S
C1812 C1813 1.382 . S
C1813 H1783 0.929 . S
C1813 C1808 1.371 . S
C1813 C1812 1.382 . S
C1814 N1777 1.423 . S
C1814 C1815 1.362 . S
C1814 C1819 1.388 . S
C1815 H1785 0.929 . S
C1815 C1814 1.362 . S
C1815 C1816 1.376 . S
C1816 H1787 0.931 . S
C1816 C1815 1.376 . S
C1816 C1817 1.396 . S
C1817 C1816 1.396 . S
C1817 C1818 1.348 . S
C1817 C1835 1.472 . S
C1818 H1788 0.929 . S
C1818 C1817 1.348 . S
C1818 C1819 1.443 . S
C1819 H1786 0.932 . S
C1819 C1814 1.388 . S
C1819 C1818 1.443 . S
C1820 N1800 1.433 . S
C1820 C1821 1.363 . S
C1820 C1825 1.370 . S
C1821 H1789 0.929 . S
C1821 C1820 1.363 . S
C1821 C1822 1.385 . S
C1822 H1790 0.930 . S
C1822 C1821 1.385 . S
C1822 C1823 1.357 . S
C1823 C1822 1.357 . S
C1823 C1824 1.406 . S
C1824 H1791 0.929 . S
C1824 C1823 1.406 . S
C1824 C1825 1.391 . S
C1825 H1792 0.931 . S
C1825 C1820 1.370 . S
C1825 C1824 1.391 . S
C1826 N1800 1.435 . S
C1826 C1827 1.358 . S
C1826 C1831 1.371 . S
C1827 H1793 0.930 . S
C1827 C1826 1.358 . S
C1827 C1828 1.405 . S
C1828 H1794 0.932 . S
C1828 C1827 1.405 . S
C1828 C1829 1.383 . S
C1829 C1828 1.383 . S
C1829 C1830 1.393 . S
C1830 H1795 0.931 . S
C1830 C1829 1.393 . S
C1830 C1831 1.382 . S
C1831 H1796 0.929 . S
C1831 C1826 1.371 . S
C1831 C1830 1.382 . S
C1832 N1800 1.423 . S
C1832 C1833 1.362 . S
C1832 C1837 1.388 . S
C1833 H1797 0.929 . S
C1833 C1832 1.362 . S
C1833 C1834 1.376 . S
C1834 H1798 0.962 . S
C1834 C1833 1.376 . S
C1834 C1835 1.396 1_655 S
C1835 C1817 1.472 . S
C1835 C1834 1.396 1_455 S
C1835 C1836 1.348 1_455 S
C1836 H1799 0.929 1_655 S
C1836 C1835 1.348 1_655 S
C1836 C1837 1.443 . S
C1837 H1801 0.932 . S
C1837 C1832 1.388 . S
C1837 C1836 1.443 . S
H1838 C1865 0.929 . S
N1839 C1864 1.433 . S
N1839 C1870 1.435 . S
N1839 C1876 1.423 . S
H1840 C1866 0.930 . S
H1841 C1869 0.931 . S
H1842 C1868 0.929 . S
H1843 C1871 0.930 . S
H1844 C1872 0.932 . S
H1845 C1875 0.929 . S
H1846 C1874 0.931 . S
H1847 C1877 0.929 . S
H1848 C1881 0.932 . S
H1849 C1878 0.931 . S
H1850 C1880 0.929 . S
H1851 C1883 0.929 . S
H1852 C1884 0.930 . S
H1853 C1886 0.929 . S
H1854 C1887 0.931 . S
H1855 C1889 0.930 . S
H1856 C1890 0.932 . S
H1857 C1892 0.931 . S
H1858 C1893 0.929 . S
H1859 C1895 0.929 . S
H1860 C1896 0.931 . S
H1861 C1898 0.929 . S
N1862 C1882 1.433 . S
N1862 C1888 1.435 . S
N1862 C1894 1.423 . S
H1863 C1899 0.932 . S
C1864 N1839 1.433 . S
C1864 C1865 1.363 . S
C1864 C1869 1.370 . S
C1865 H1838 0.929 . S
C1865 C1864 1.363 . S
C1865 C1866 1.385 . S
C1866 H1840 0.930 . S
C1866 C1865 1.385 . S
C1866 C1867 1.357 . S
C1867 C1866 1.357 . S
C1867 C1868 1.406 . S
C1868 H1842 0.929 . S
C1868 C1867 1.406 . S
C1868 C1869 1.391 . S
C1869 H1841 0.931 . S
C1869 C1864 1.370 . S
C1869 C1868 1.391 . S
C1870 N1839 1.435 . S
C1870 C1871 1.358 . S
C1870 C1875 1.371 . S
C1871 H1843 0.930 . S
C1871 C1870 1.358 . S
C1871 C1872 1.405 . S
C1872 H1844 0.932 . S
C1872 C1871 1.405 . S
C1872 C1873 1.383 . S
C1873 C1872 1.383 . S
C1873 C1874 1.393 . S
C1874 H1846 0.931 . S
C1874 C1873 1.393 . S
C1874 C1875 1.382 . S
C1875 H1845 0.929 . S
C1875 C1870 1.371 . S
C1875 C1874 1.382 . S
C1876 N1839 1.423 . S
C1876 C1877 1.362 . S
C1876 C1881 1.388 . S
C1877 H1847 0.929 . S
C1877 C1876 1.362 . S
C1877 C1878 1.376 . S
C1878 H1849 0.931 . S
C1878 C1877 1.376 . S
C1878 C1879 1.396 . S
C1879 C1878 1.396 . S
C1879 C1880 1.348 . S
C1879 C1897 1.472 1_545 S
C1880 H1850 0.929 . S
C1880 C1879 1.348 . S
C1880 C1881 1.443 . S
C1881 H1848 0.932 . S
C1881 C1876 1.388 . S
C1881 C1880 1.443 . S
C1882 N1862 1.433 . S
C1882 C1883 1.363 . S
C1882 C1887 1.370 . S
C1883 H1851 0.929 . S
C1883 C1882 1.363 . S
C1883 C1884 1.385 . S
C1884 H1852 0.930 . S
C1884 C1883 1.385 . S
C1884 C1885 1.357 . S
C1885 C1884 1.357 . S
C1885 C1886 1.406 . S
C1886 H1853 0.929 . S
C1886 C1885 1.406 . S
C1886 C1887 1.391 . S
C1887 H1854 0.931 . S
C1887 C1882 1.370 . S
C1887 C1886 1.391 . S
C1888 N1862 1.435 . S
C1888 C1889 1.358 . S
C1888 C1893 1.371 . S
C1889 H1855 0.930 . S
C1889 C1888 1.358 . S
C1889 C1890 1.405 . S
C1890 H1856 0.932 . S
C1890 C1889 1.405 . S
C1890 C1891 1.383 . S
C1891 C1890 1.383 . S
C1891 C1892 1.393 . S
C1892 H1857 0.931 . S
C1892 C1891 1.393 . S
C1892 C1893 1.382 . S
C1893 H1858 0.929 . S
C1893 C1888 1.371 . S
C1893 C1892 1.382 . S
C1894 N1862 1.423 . S
C1894 C1895 1.362 . S
C1894 C1899 1.388 . S
C1895 H1859 0.929 . S
C1895 C1894 1.362 . S
C1895 C1896 1.376 . S
C1896 H1860 0.931 . S
C1896 C1895 1.376 . S
C1896 C1897 1.396 . S
C1897 C1879 1.472 1_565 S
C1897 C1896 1.396 . S
C1897 C1898 1.348 . S
C1898 H1861 0.929 . S
C1898 C1897 1.348 . S
C1898 C1899 1.443 . S
C1899 H1863 0.932 . S
C1899 C1894 1.388 . S
C1899 C1898 1.443 . S
H1900 C1927 0.929 . S
N1901 C1926 1.433 . S
N1901 C1932 1.435 . S
N1901 C1938 1.423 . S
H1902 C1928 0.930 . S
H1903 C1931 0.931 . S
H1904 C1930 0.929 . S
H1905 C1933 0.930 . S
H1906 C1934 0.932 . S
H1907 C1937 0.929 . S
H1908 C1936 0.931 . S
H1909 C1939 0.929 . S
H1910 C1943 0.932 . S
H1911 C1940 0.931 . S
H1912 C1942 0.963 . S
H1913 C1945 0.929 . S
H1914 C1946 0.930 . S
H1915 C1948 0.929 . S
H1916 C1949 0.931 . S
H1917 C1951 0.930 . S
H1918 C1952 0.932 . S
H1919 C1954 0.931 . S
H1920 C1955 0.929 . S
H1921 C1957 0.929 . S
H1922 C1958 0.931 . S
H1923 C1960 0.929 . S
N1924 C1944 1.433 . S
N1924 C1950 1.435 . S
N1924 C1956 1.423 . S
H1925 C1961 0.932 . S
C1926 N1901 1.433 . S
C1926 C1927 1.363 . S
C1926 C1931 1.370 . S
C1927 H1900 0.929 . S
C1927 C1926 1.363 . S
C1927 C1928 1.385 . S
C1928 H1902 0.930 . S
C1928 C1927 1.385 . S
C1928 C1929 1.357 . S
C1929 C1928 1.357 . S
C1929 C1930 1.406 . S
C1930 H1904 0.929 . S
C1930 C1929 1.406 . S
C1930 C1931 1.391 . S
C1931 H1903 0.931 . S
C1931 C1926 1.370 . S
C1931 C1930 1.391 . S
C1932 N1901 1.435 . S
C1932 C1933 1.358 . S
C1932 C1937 1.371 . S
C1933 H1905 0.930 . S
C1933 C1932 1.358 . S
C1933 C1934 1.405 . S
C1934 H1906 0.932 . S
C1934 C1933 1.405 . S
C1934 C1935 1.383 . S
C1935 C1934 1.383 . S
C1935 C1936 1.393 . S
C1936 H1908 0.931 . S
C1936 C1935 1.393 . S
C1936 C1937 1.382 . S
C1937 H1907 0.929 . S
C1937 C1932 1.371 . S
C1937 C1936 1.382 . S
C1938 N1901 1.423 . S
C1938 C1939 1.362 . S
C1938 C1943 1.388 . S
C1939 H1909 0.929 . S
C1939 C1938 1.362 . S
C1939 C1940 1.376 . S
C1940 H1911 0.931 . S
C1940 C1939 1.376 . S
C1940 C1941 1.396 1_655 S
C1941 C1940 1.396 1_455 S
C1941 C1942 1.348 1_455 S
C1941 C1959 1.472 . S
C1942 H1912 0.963 . S
C1942 C1941 1.348 1_655 S
C1942 C1943 1.443 . S
C1943 H1910 0.932 . S
C1943 C1938 1.388 . S
C1943 C1942 1.443 . S
C1944 N1924 1.433 . S
C1944 C1945 1.363 . S
C1944 C1949 1.370 . S
C1945 H1913 0.929 . S
C1945 C1944 1.363 . S
C1945 C1946 1.385 . S
C1946 H1914 0.930 . S
C1946 C1945 1.385 . S
C1946 C1947 1.357 . S
C1947 C1946 1.357 . S
C1947 C1948 1.406 . S
C1948 H1915 0.929 . S
C1948 C1947 1.406 . S
C1948 C1949 1.391 . S
C1949 H1916 0.931 . S
C1949 C1944 1.370 . S
C1949 C1948 1.391 . S
C1950 N1924 1.435 . S
C1950 C1951 1.358 . S
C1950 C1955 1.371 . S
C1951 H1917 0.930 . S
C1951 C1950 1.358 . S
C1951 C1952 1.405 . S
C1952 H1918 0.932 . S
C1952 C1951 1.405 . S
C1952 C1953 1.383 . S
C1953 C1952 1.383 . S
C1953 C1954 1.393 . S
C1954 H1919 0.931 . S
C1954 C1953 1.393 . S
C1954 C1955 1.382 . S
C1955 H1920 0.929 . S
C1955 C1950 1.371 . S
C1955 C1954 1.382 . S
C1956 N1924 1.423 . S
C1956 C1957 1.362 . S
C1956 C1961 1.388 . S
C1957 H1921 0.929 . S
C1957 C1956 1.362 . S
C1957 C1958 1.376 . S
C1958 H1922 0.931 . S
C1958 C1957 1.376 . S
C1958 C1959 1.396 . S
C1959 C1941 1.472 . S
C1959 C1958 1.396 . S
C1959 C1960 1.348 . S
C1960 H1923 0.929 . S
C1960 C1959 1.348 . S
C1960 C1961 1.443 . S
C1961 H1925 0.932 . S
C1961 C1956 1.388 . S
C1961 C1960 1.443 . S
H1962 C1989 0.929 . S
N1963 C1988 1.433 . S
N1963 C1994 1.435 . S
N1963 C2000 1.423 . S
H1964 C1990 0.930 . S
H1965 C1993 0.931 . S
H1966 C1992 0.929 . S
H1967 C1995 0.930 . S
H1968 C1996 0.932 . S
H1969 C1999 0.929 . S
H1970 C1998 0.931 . S
H1971 C2001 0.929 . S
H1972 C2005 0.932 . S
H1973 C2002 0.931 . S
H1974 C2004 0.929 . S
H1975 C2007 0.929 . S
H1976 C2008 0.930 . S
H1977 C2010 0.929 . S
H1978 C2011 0.931 . S
H1979 C2013 0.930 . S
H1980 C2014 0.932 . S
H1981 C2016 0.931 . S
H1982 C2017 0.929 . S
H1983 C2019 0.929 . S
H1984 C2020 0.931 . S
H1985 C2022 0.929 . S
N1986 C2006 1.433 . S
N1986 C2012 1.435 . S
N1986 C2018 1.423 . S
H1987 C2023 0.932 . S
C1988 N1963 1.433 . S
C1988 C1989 1.363 . S
C1988 C1993 1.370 . S
C1989 H1962 0.929 . S
C1989 C1988 1.363 . S
C1989 C1990 1.385 . S
C1990 H1964 0.930 . S
C1990 C1989 1.385 . S
C1990 C1991 1.357 . S
C1991 C1990 1.357 . S
C1991 C1992 1.406 . S
C1992 H1966 0.929 . S
C1992 C1991 1.406 . S
C1992 C1993 1.391 . S
C1993 H1965 0.931 . S
C1993 C1988 1.370 . S
C1993 C1992 1.391 . S
C1994 N1963 1.435 . S
C1994 C1995 1.358 . S
C1994 C1999 1.371 . S
C1995 H1967 0.930 . S
C1995 C1994 1.358 . S
C1995 C1996 1.405 . S
C1996 H1968 0.932 . S
C1996 C1995 1.405 . S
C1996 C1997 1.383 . S
C1997 C1996 1.383 . S
C1997 C1998 1.393 . S
C1998 H1970 0.931 . S
C1998 C1997 1.393 . S
C1998 C1999 1.382 . S
C1999 H1969 0.929 . S
C1999 C1994 1.371 . S
C1999 C1998 1.382 . S
C2000 N1963 1.423 . S
C2000 C2001 1.362 . S
C2000 C2005 1.388 . S
C2001 H1971 0.929 . S
C2001 C2000 1.362 . S
C2001 C2002 1.376 . S
C2002 H1973 0.931 . S
C2002 C2001 1.376 . S
C2002 C2003 1.439 . S
C2003 C2002 1.439 . S
C2003 C2004 1.388 . S
C2003 C2021 1.397 1_565 S
C2004 H1974 0.929 . S
C2004 C2003 1.388 . S
C2004 C2005 1.443 . S
C2005 H1972 0.932 . S
C2005 C2000 1.388 . S
C2005 C2004 1.443 . S
C2006 N1986 1.433 . S
C2006 C2007 1.363 . S
C2006 C2011 1.370 . S
C2007 H1975 0.929 . S
C2007 C2006 1.363 . S
C2007 C2008 1.385 . S
C2008 H1976 0.930 . S
C2008 C2007 1.385 . S
C2008 C2009 1.357 . S
C2009 C2008 1.357 . S
C2009 C2010 1.406 . S
C2010 H1977 0.929 . S
C2010 C2009 1.406 . S
C2010 C2011 1.391 . S
C2011 H1978 0.931 . S
C2011 C2006 1.370 . S
C2011 C2010 1.391 . S
C2012 N1986 1.435 . S
C2012 C2013 1.358 . S
C2012 C2017 1.371 . S
C2013 H1979 0.930 . S
C2013 C2012 1.358 . S
C2013 C2014 1.405 . S
C2014 H1980 0.932 . S
C2014 C2013 1.405 . S
C2014 C2015 1.383 . S
C2015 C2014 1.383 . S
C2015 C2016 1.393 . S
C2016 H1981 0.931 . S
C2016 C2015 1.393 . S
C2016 C2017 1.382 . S
C2017 H1982 0.929 . S
C2017 C2012 1.371 . S
C2017 C2016 1.382 . S
C2018 N1986 1.423 . S
C2018 C2019 1.362 . S
C2018 C2023 1.388 . S
C2019 H1983 0.929 . S
C2019 C2018 1.362 . S
C2019 C2020 1.376 . S
C2020 H1984 0.931 . S
C2020 C2019 1.376 . S
C2020 C2021 1.396 . S
C2021 C2003 1.397 1_545 S
C2021 C2020 1.396 . S
C2021 C2022 1.348 . S
C2022 H1985 0.929 . S
C2022 C2021 1.348 . S
C2022 C2023 1.443 . S
C2023 H1987 0.932 . S
C2023 C2018 1.388 . S
C2023 C2022 1.443 . S
H2024 C2051 0.929 . S
N2025 C2050 1.433 . S
N2025 C2056 1.435 . S
N2025 C2062 1.423 . S
H2026 C2052 0.930 . S
H2027 C2055 0.931 . S
H2028 C2054 0.929 . S
H2029 C2057 0.930 . S
H2030 C2058 0.932 . S
H2031 C2061 0.929 . S
H2032 C2060 0.931 . S
H2033 C2063 0.929 . S
H2034 C2067 0.932 . S
H2035 C2064 0.931 . S
H2036 C2066 0.929 . S
H2037 C2069 0.929 . S
H2038 C2070 0.930 . S
H2039 C2072 0.929 . S
H2040 C2073 0.931 . S
H2041 C2075 0.930 . S
H2042 C2076 0.932 . S
H2043 C2078 0.931 . S
H2044 C2079 0.929 . S
H2045 C2081 0.929 . S
H2046 C2082 0.931 . S
H2047 C2084 0.929 . S
N2048 C2068 1.433 . S
N2048 C2074 1.435 . S
N2048 C2080 1.423 . S
H2049 C2085 0.932 . S
C2050 N2025 1.433 . S
C2050 C2051 1.363 . S
C2050 C2055 1.370 . S
C2051 H2024 0.929 . S
C2051 C2050 1.363 . S
C2051 C2052 1.385 . S
C2052 H2026 0.930 . S
C2052 C2051 1.385 . S
C2052 C2053 1.357 . S
C2053 C2052 1.357 . S
C2053 C2054 1.406 . S
C2054 H2028 0.929 . S
C2054 C2053 1.406 . S
C2054 C2055 1.391 . S
C2055 H2027 0.931 . S
C2055 C2050 1.370 . S
C2055 C2054 1.391 . S
C2056 N2025 1.435 . S
C2056 C2057 1.358 . S
C2056 C2061 1.371 . S
C2057 H2029 0.930 . S
C2057 C2056 1.358 . S
C2057 C2058 1.405 . S
C2058 H2030 0.932 . S
C2058 C2057 1.405 . S
C2058 C2059 1.383 . S
C2059 C2058 1.383 . S
C2059 C2060 1.393 . S
C2060 H2032 0.931 . S
C2060 C2059 1.393 . S
C2060 C2061 1.382 . S
C2061 H2031 0.929 . S
C2061 C2056 1.371 . S
C2061 C2060 1.382 . S
C2062 N2025 1.423 . S
C2062 C2063 1.362 . S
C2062 C2067 1.388 . S
C2063 H2033 0.929 . S
C2063 C2062 1.362 . S
C2063 C2064 1.376 . S
C2064 H2035 0.931 . S
C2064 C2063 1.376 . S
C2064 C2065 1.396 . S
C2065 C2064 1.396 . S
C2065 C2066 1.348 . S
C2065 C2083 1.472 . S
C2066 H2036 0.929 . S
C2066 C2065 1.348 . S
C2066 C2067 1.443 . S
C2067 H2034 0.932 . S
C2067 C2062 1.388 . S
C2067 C2066 1.443 . S
C2068 N2048 1.433 . S
C2068 C2069 1.363 . S
C2068 C2073 1.370 . S
C2069 H2037 0.929 . S
C2069 C2068 1.363 . S
C2069 C2070 1.385 . S
C2070 H2038 0.930 . S
C2070 C2069 1.385 . S
C2070 C2071 1.357 . S
C2071 C2070 1.357 . S
C2071 C2072 1.406 . S
C2072 H2039 0.929 . S
C2072 C2071 1.406 . S
C2072 C2073 1.391 . S
C2073 H2040 0.931 . S
C2073 C2068 1.370 . S
C2073 C2072 1.391 . S
C2074 N2048 1.435 . S
C2074 C2075 1.358 . S
C2074 C2079 1.371 . S
C2075 H2041 0.930 . S
C2075 C2074 1.358 . S
C2075 C2076 1.405 . S
C2076 H2042 0.932 . S
C2076 C2075 1.405 . S
C2076 C2077 1.383 . S
C2077 C2076 1.383 . S
C2077 C2078 1.393 . S
C2078 H2043 0.931 . S
C2078 C2077 1.393 . S
C2078 C2079 1.382 . S
C2079 H2044 0.929 . S
C2079 C2074 1.371 . S
C2079 C2078 1.382 . S
C2080 N2048 1.423 . S
C2080 C2081 1.362 . S
C2080 C2085 1.388 . S
C2081 H2045 0.929 . S
C2081 C2080 1.362 . S
C2081 C2082 1.376 . S
C2082 H2046 0.931 . S
C2082 C2081 1.376 . S
C2082 C2083 1.396 . S
C2083 C2065 1.472 . S
C2083 C2082 1.396 . S
C2083 C2084 1.348 . S
C2084 H2047 0.929 . S
C2084 C2083 1.348 . S
C2084 C2085 1.443 . S
C2085 H2049 0.932 . S
C2085 C2080 1.388 . S
C2085 C2084 1.443 . S
H2086 C2113 0.929 . S
N2087 C2112 1.433 . S
N2087 C2118 1.435 . S
N2087 C2124 1.423 . S
H2088 C2114 0.930 . S
H2089 C2117 0.931 . S
H2090 C2116 0.929 . S
H2091 C2119 0.930 . S
H2092 C2120 0.932 . S
H2093 C2123 0.929 . S
H2094 C2122 0.931 . S
H2095 C2125 0.929 . S
H2096 C2129 0.932 . S
H2097 C2126 0.931 . S
H2098 C2128 0.929 . S
H2099 C2131 0.929 . S
H2100 C2132 0.930 . S
H2101 C2134 0.929 . S
H2102 C2135 0.931 . S
H2103 C2137 0.930 . S
H2104 C2138 0.932 . S
H2105 C2140 0.931 . S
H2106 C2141 0.929 . S
H2107 C2143 0.929 . S
H2108 C2144 0.931 . S
H2109 C2146 0.929 . S
N2110 C2130 1.433 . S
N2110 C2136 1.435 . S
N2110 C2142 1.423 . S
H2111 C2147 0.932 . S
C2112 N2087 1.433 . S
C2112 C2113 1.363 . S
C2112 C2117 1.370 . S
C2113 H2086 0.929 . S
C2113 C2112 1.363 . S
C2113 C2114 1.385 . S
C2114 H2088 0.930 . S
C2114 C2113 1.385 . S
C2114 C2115 1.357 . S
C2115 C2114 1.357 . S
C2115 C2116 1.406 . S
C2116 H2090 0.929 . S
C2116 C2115 1.406 . S
C2116 C2117 1.391 . S
C2117 H2089 0.931 . S
C2117 C2112 1.370 . S
C2117 C2116 1.391 . S
C2118 N2087 1.435 . S
C2118 C2119 1.358 . S
C2118 C2123 1.371 . S
C2119 H2091 0.930 . S
C2119 C2118 1.358 . S
C2119 C2120 1.405 . S
C2120 H2092 0.932 . S
C2120 C2119 1.405 . S
C2120 C2121 1.383 . S
C2121 C2120 1.383 . S
C2121 C2122 1.393 . S
C2122 H2094 0.931 . S
C2122 C2121 1.393 . S
C2122 C2123 1.382 . S
C2123 H2093 0.929 . S
C2123 C2118 1.371 . S
C2123 C2122 1.382 . S
C2124 N2087 1.423 . S
C2124 C2125 1.362 . S
C2124 C2129 1.388 . S
C2125 H2095 0.929 . S
C2125 C2124 1.362 . S
C2125 C2126 1.376 . S
C2126 H2097 0.931 . S
C2126 C2125 1.376 . S
C2126 C2127 1.396 . S
C2127 C2126 1.396 . S
C2127 C2128 1.348 . S
C2127 C2145 1.472 . S
C2128 H2098 0.929 . S
C2128 C2127 1.348 . S
C2128 C2129 1.443 . S
C2129 H2096 0.932 . S
C2129 C2124 1.388 . S
C2129 C2128 1.443 . S
C2130 N2110 1.433 . S
C2130 C2131 1.363 . S
C2130 C2135 1.370 . S
C2131 H2099 0.929 . S
C2131 C2130 1.363 . S
C2131 C2132 1.385 . S
C2132 H2100 0.930 . S
C2132 C2131 1.385 . S
C2132 C2133 1.357 . S
C2133 C2132 1.357 . S
C2133 C2134 1.406 . S
C2134 H2101 0.929 . S
C2134 C2133 1.406 . S
C2134 C2135 1.391 . S
C2135 H2102 0.931 . S
C2135 C2130 1.370 . S
C2135 C2134 1.391 . S
C2136 N2110 1.435 . S
C2136 C2137 1.358 . S
C2136 C2141 1.371 . S
C2137 H2103 0.930 . S
C2137 C2136 1.358 . S
C2137 C2138 1.405 . S
C2138 H2104 0.932 . S
C2138 C2137 1.405 . S
C2138 C2139 1.383 . S
C2139 C2138 1.383 . S
C2139 C2140 1.393 . S
C2140 H2105 0.931 . S
C2140 C2139 1.393 . S
C2140 C2141 1.382 . S
C2141 H2106 0.929 . S
C2141 C2136 1.371 . S
C2141 C2140 1.382 . S
C2142 N2110 1.423 . S
C2142 C2143 1.362 . S
C2142 C2147 1.388 . S
C2143 H2107 0.929 . S
C2143 C2142 1.362 . S
C2143 C2144 1.376 . S
C2144 H2108 0.931 . S
C2144 C2143 1.376 . S
C2144 C2145 1.396 . S
C2145 C2127 1.472 . S
C2145 C2144 1.396 . S
C2145 C2146 1.348 . S
C2146 H2109 0.929 . S
C2146 C2145 1.348 . S
C2146 C2147 1.443 . S
C2147 H2111 0.932 . S
C2147 C2142 1.388 . S
C2147 C2146 1.443 . S
H2148 C2175 0.929 . S
N2149 C2174 1.433 . S
N2149 C2180 1.435 . S
N2149 C2186 1.423 . S
H2150 C2176 0.930 . S
H2151 C2179 0.931 . S
H2152 C2178 0.929 . S
H2153 C2181 0.930 . S
H2154 C2182 0.932 . S
H2155 C2185 0.929 . S
H2156 C2184 0.931 . S
H2157 C2187 0.929 . S
H2158 C2191 0.932 . S
H2159 C2188 0.931 . S
H2160 C2190 0.929 . S
H2161 C2193 0.929 . S
H2162 C2194 0.930 . S
H2163 C2196 0.929 . S
H2164 C2197 0.931 . S
H2165 C2199 0.930 . S
H2166 C2200 0.932 . S
H2167 C2202 0.931 . S
H2168 C2203 0.929 . S
H2169 C2205 0.929 . S
H2170 C2206 0.931 . S
H2171 C2208 0.929 . S
N2172 C2192 1.433 . S
N2172 C2198 1.435 . S
N2172 C2204 1.423 . S
H2173 C2209 0.932 . S
C2174 N2149 1.433 . S
C2174 C2175 1.363 . S
C2174 C2179 1.370 . S
C2175 H2148 0.929 . S
C2175 C2174 1.363 . S
C2175 C2176 1.385 . S
C2176 H2150 0.930 . S
C2176 C2175 1.385 . S
C2176 C2177 1.357 . S
C2177 C2176 1.357 . S
C2177 C2178 1.406 . S
C2178 H2152 0.929 . S
C2178 C2177 1.406 . S
C2178 C2179 1.391 . S
C2179 H2151 0.931 . S
C2179 C2174 1.370 . S
C2179 C2178 1.391 . S
C2180 N2149 1.435 . S
C2180 C2181 1.358 . S
C2180 C2185 1.371 . S
C2181 H2153 0.930 . S
C2181 C2180 1.358 . S
C2181 C2182 1.405 . S
C2182 H2154 0.932 . S
C2182 C2181 1.405 . S
C2182 C2183 1.383 . S
C2183 C2182 1.383 . S
C2183 C2184 1.393 . S
C2184 H2156 0.931 . S
C2184 C2183 1.393 . S
C2184 C2185 1.382 . S
C2185 H2155 0.929 . S
C2185 C2180 1.371 . S
C2185 C2184 1.382 . S
C2186 N2149 1.423 . S
C2186 C2187 1.362 . S
C2186 C2191 1.388 . S
C2187 H2157 0.929 . S
C2187 C2186 1.362 . S
C2187 C2188 1.376 . S
C2188 H2159 0.931 . S
C2188 C2187 1.376 . S
C2188 C2189 1.396 . S
C2189 C2188 1.396 . S
C2189 C2190 1.348 . S
C2189 C2207 1.472 . S
C2190 H2160 0.929 . S
C2190 C2189 1.348 . S
C2190 C2191 1.443 . S
C2191 H2158 0.932 . S
C2191 C2186 1.388 . S
C2191 C2190 1.443 . S
C2192 N2172 1.433 . S
C2192 C2193 1.363 . S
C2192 C2197 1.370 . S
C2193 H2161 0.929 . S
C2193 C2192 1.363 . S
C2193 C2194 1.385 . S
C2194 H2162 0.930 . S
C2194 C2193 1.385 . S
C2194 C2195 1.357 . S
C2195 C2194 1.357 . S
C2195 C2196 1.406 . S
C2196 H2163 0.929 . S
C2196 C2195 1.406 . S
C2196 C2197 1.391 . S
C2197 H2164 0.931 . S
C2197 C2192 1.370 . S
C2197 C2196 1.391 . S
C2198 N2172 1.435 . S
C2198 C2199 1.358 . S
C2198 C2203 1.371 . S
C2199 H2165 0.930 . S
C2199 C2198 1.358 . S
C2199 C2200 1.405 . S
C2200 H2166 0.932 . S
C2200 C2199 1.405 . S
C2200 C2201 1.383 . S
C2201 C2200 1.383 . S
C2201 C2202 1.393 . S
C2202 H2167 0.931 . S
C2202 C2201 1.393 . S
C2202 C2203 1.382 . S
C2203 H2168 0.929 . S
C2203 C2198 1.371 . S
C2203 C2202 1.382 . S
C2204 N2172 1.423 . S
C2204 C2205 1.362 . S
C2204 C2209 1.388 . S
C2205 H2169 0.929 . S
C2205 C2204 1.362 . S
C2205 C2206 1.376 . S
C2206 H2170 0.931 . S
C2206 C2205 1.376 . S
C2206 C2207 1.396 . S
C2207 C2189 1.472 . S
C2207 C2206 1.396 . S
C2207 C2208 1.348 . S
C2208 H2171 0.929 . S
C2208 C2207 1.348 . S
C2208 C2209 1.443 . S
C2209 H2173 0.932 . S
C2209 C2204 1.388 . S
C2209 C2208 1.443 . S
H2210 C2237 0.929 . S
N2211 C2236 1.433 . S
N2211 C2242 1.435 . S
N2211 C2248 1.423 . S
H2212 C2238 0.930 . S
H2213 C2241 0.931 . S
H2214 C2240 0.929 . S
H2215 C2243 0.930 . S
H2216 C2244 0.932 . S
H2217 C2247 0.929 . S
H2218 C2246 0.931 . S
H2219 C2249 0.929 . S
H2220 C2253 0.932 . S
H2221 C2250 0.931 . S
H2222 C2252 0.929 . S
H2223 C2255 0.929 . S
H2224 C2256 0.930 . S
H2225 C2258 0.929 . S
H2226 C2259 0.931 . S
H2227 C2261 0.930 . S
H2228 C2262 0.932 . S
H2229 C2264 0.931 . S
H2230 C2265 0.929 . S
H2231 C2267 0.929 . S
H2232 C2268 0.931 . S
H2233 C2270 0.929 . S
N2234 C2254 1.433 . S
N2234 C2260 1.435 . S
N2234 C2266 1.423 . S
H2235 C2271 0.932 . S
C2236 N2211 1.433 . S
C2236 C2237 1.363 . S
C2236 C2241 1.370 . S
C2237 H2210 0.929 . S
C2237 C2236 1.363 . S
C2237 C2238 1.385 . S
C2238 H2212 0.930 . S
C2238 C2237 1.385 . S
C2238 C2239 1.357 . S
C2239 C2238 1.357 . S
C2239 C2240 1.406 . S
C2240 H2214 0.929 . S
C2240 C2239 1.406 . S
C2240 C2241 1.391 . S
C2241 H2213 0.931 . S
C2241 C2236 1.370 . S
C2241 C2240 1.391 . S
C2242 N2211 1.435 . S
C2242 C2243 1.358 . S
C2242 C2247 1.371 . S
C2243 H2215 0.930 . S
C2243 C2242 1.358 . S
C2243 C2244 1.405 . S
C2244 H2216 0.932 . S
C2244 C2243 1.405 . S
C2244 C2245 1.383 . S
C2245 C2244 1.383 . S
C2245 C2246 1.393 . S
C2246 H2218 0.931 . S
C2246 C2245 1.393 . S
C2246 C2247 1.382 . S
C2247 H2217 0.929 . S
C2247 C2242 1.371 . S
C2247 C2246 1.382 . S
C2248 N2211 1.423 . S
C2248 C2249 1.362 . S
C2248 C2253 1.388 . S
C2249 H2219 0.929 . S
C2249 C2248 1.362 . S
C2249 C2250 1.376 . S
C2250 H2221 0.931 . S
C2250 C2249 1.376 . S
C2250 C2251 1.396 . S
C2251 C2250 1.396 . S
C2251 C2252 1.348 . S
C2251 C2269 1.472 . S
C2252 H2222 0.929 . S
C2252 C2251 1.348 . S
C2252 C2253 1.443 . S
C2253 H2220 0.932 . S
C2253 C2248 1.388 . S
C2253 C2252 1.443 . S
C2254 N2234 1.433 . S
C2254 C2255 1.363 . S
C2254 C2259 1.370 . S
C2255 H2223 0.929 . S
C2255 C2254 1.363 . S
C2255 C2256 1.385 . S
C2256 H2224 0.930 . S
C2256 C2255 1.385 . S
C2256 C2257 1.357 . S
C2257 C2256 1.357 . S
C2257 C2258 1.406 . S
C2258 H2225 0.929 . S
C2258 C2257 1.406 . S
C2258 C2259 1.391 . S
C2259 H2226 0.931 . S
C2259 C2254 1.370 . S
C2259 C2258 1.391 . S
C2260 N2234 1.435 . S
C2260 C2261 1.358 . S
C2260 C2265 1.371 . S
C2261 H2227 0.930 . S
C2261 C2260 1.358 . S
C2261 C2262 1.405 . S
C2262 H2228 0.932 . S
C2262 C2261 1.405 . S
C2262 C2263 1.383 . S
C2263 C2262 1.383 . S
C2263 C2264 1.393 . S
C2264 H2229 0.931 . S
C2264 C2263 1.393 . S
C2264 C2265 1.382 . S
C2265 H2230 0.929 . S
C2265 C2260 1.371 . S
C2265 C2264 1.382 . S
C2266 N2234 1.423 . S
C2266 C2267 1.362 . S
C2266 C2271 1.388 . S
C2267 H2231 0.929 . S
C2267 C2266 1.362 . S
C2267 C2268 1.376 . S
C2268 H2232 0.931 . S
C2268 C2267 1.376 . S
C2268 C2269 1.396 . S
C2269 C2251 1.472 . S
C2269 C2268 1.396 . S
C2269 C2270 1.348 . S
C2270 H2233 0.929 . S
C2270 C2269 1.348 . S
C2270 C2271 1.443 . S
C2271 H2235 0.932 . S
C2271 C2266 1.388 . S
C2271 C2270 1.443 . S
H2272 C2299 0.929 . S
N2273 C2298 1.433 . S
N2273 C2304 1.435 . S
N2273 C2310 1.423 . S
H2274 C2300 0.930 . S
H2275 C2303 0.931 . S
H2276 C2302 0.929 . S
H2277 C2305 0.930 . S
H2278 C2306 0.932 . S
H2279 C2309 0.929 . S
H2280 C2308 0.931 . S
H2281 C2311 0.929 . S
H2282 C2315 0.932 . S
H2283 C2312 0.931 . S
H2284 C2314 0.929 . S
H2285 C2317 0.929 . S
H2286 C2318 0.930 . S
H2287 C2320 0.929 . S
H2288 C2321 0.931 . S
H2289 C2323 0.930 . S
H2290 C2324 0.932 . S
H2291 C2326 0.931 . S
H2292 C2327 0.929 . S
H2293 C2329 0.929 . S
H2294 C2330 0.931 . S
H2295 C2332 0.929 . S
N2296 C2316 1.433 . S
N2296 C2322 1.435 . S
N2296 C2328 1.423 . S
H2297 C2333 0.932 . S
C2298 N2273 1.433 . S
C2298 C2299 1.363 . S
C2298 C2303 1.370 . S
C2299 H2272 0.929 . S
C2299 C2298 1.363 . S
C2299 C2300 1.385 . S
C2300 H2274 0.930 . S
C2300 C2299 1.385 . S
C2300 C2301 1.357 . S
C2301 C2300 1.357 . S
C2301 C2302 1.406 . S
C2302 H2276 0.929 . S
C2302 C2301 1.406 . S
C2302 C2303 1.391 . S
C2303 H2275 0.931 . S
C2303 C2298 1.370 . S
C2303 C2302 1.391 . S
C2304 N2273 1.435 . S
C2304 C2305 1.358 . S
C2304 C2309 1.371 . S
C2305 H2277 0.930 . S
C2305 C2304 1.358 . S
C2305 C2306 1.405 . S
C2306 H2278 0.932 . S
C2306 C2305 1.405 . S
C2306 C2307 1.383 . S
C2307 C2306 1.383 . S
C2307 C2308 1.393 . S
C2308 H2280 0.931 . S
C2308 C2307 1.393 . S
C2308 C2309 1.382 . S
C2309 H2279 0.929 . S
C2309 C2304 1.371 . S
C2309 C2308 1.382 . S
C2310 N2273 1.423 . S
C2310 C2311 1.362 . S
C2310 C2315 1.388 . S
C2311 H2281 0.929 . S
C2311 C2310 1.362 . S
C2311 C2312 1.376 . S
C2312 H2283 0.931 . S
C2312 C2311 1.376 . S
C2312 C2313 1.396 . S
C2313 C2312 1.396 . S
C2313 C2314 1.348 . S
C2313 C2331 1.472 . S
C2314 H2284 0.929 . S
C2314 C2313 1.348 . S
C2314 C2315 1.443 . S
C2315 H2282 0.932 . S
C2315 C2310 1.388 . S
C2315 C2314 1.443 . S
C2316 N2296 1.433 . S
C2316 C2317 1.363 . S
C2316 C2321 1.370 . S
C2317 H2285 0.929 . S
C2317 C2316 1.363 . S
C2317 C2318 1.385 . S
C2318 H2286 0.930 . S
C2318 C2317 1.385 . S
C2318 C2319 1.357 . S
C2319 C2318 1.357 . S
C2319 C2320 1.406 . S
C2320 H2287 0.929 . S
C2320 C2319 1.406 . S
C2320 C2321 1.391 . S
C2321 H2288 0.931 . S
C2321 C2316 1.370 . S
C2321 C2320 1.391 . S
C2322 N2296 1.435 . S
C2322 C2323 1.358 . S
C2322 C2327 1.371 . S
C2323 H2289 0.930 . S
C2323 C2322 1.358 . S
C2323 C2324 1.405 . S
C2324 H2290 0.932 . S
C2324 C2323 1.405 . S
C2324 C2325 1.383 . S
C2325 C2324 1.383 . S
C2325 C2326 1.393 . S
C2326 H2291 0.931 . S
C2326 C2325 1.393 . S
C2326 C2327 1.382 . S
C2327 H2292 0.929 . S
C2327 C2322 1.371 . S
C2327 C2326 1.382 . S
C2328 N2296 1.423 . S
C2328 C2329 1.362 . S
C2328 C2333 1.388 . S
C2329 H2293 0.929 . S
C2329 C2328 1.362 . S
C2329 C2330 1.376 . S
C2330 H2294 0.931 . S
C2330 C2329 1.376 . S
C2330 C2331 1.396 . S
C2331 C2313 1.472 . S
C2331 C2330 1.396 . S
C2331 C2332 1.348 . S
C2332 H2295 0.929 . S
C2332 C2331 1.348 . S
C2332 C2333 1.443 . S
C2333 H2297 0.932 . S
C2333 C2328 1.388 . S
C2333 C2332 1.443 . S
H2334 C2361 0.929 . S
N2335 C2360 1.433 . S
N2335 C2366 1.435 . S
N2335 C2372 1.423 . S
H2336 C2362 0.930 . S
H2337 C2365 0.931 . S
H2338 C2364 0.929 . S
H2339 C2367 0.930 . S
H2340 C2368 0.932 . S
H2341 C2371 0.929 . S
H2342 C2370 0.931 . S
H2343 C2373 0.929 . S
H2344 C2377 0.932 . S
H2345 C2374 0.931 . S
H2346 C2376 0.929 . S
H2347 C2379 0.929 . S
H2348 C2380 0.930 . S
H2349 C2382 0.929 . S
H2350 C2383 0.931 . S
H2351 C2385 0.930 . S
H2352 C2386 0.932 . S
H2353 C2388 0.931 . S
H2354 C2389 0.929 . S
H2355 C2391 0.929 . S
H2356 C2392 0.931 . S
H2357 C2394 0.929 . S
N2358 C2378 1.433 . S
N2358 C2384 1.435 . S
N2358 C2390 1.423 . S
H2359 C2395 0.932 . S
C2360 N2335 1.433 . S
C2360 C2361 1.363 . S
C2360 C2365 1.370 . S
C2361 H2334 0.929 . S
C2361 C2360 1.363 . S
C2361 C2362 1.385 . S
C2362 H2336 0.930 . S
C2362 C2361 1.385 . S
C2362 C2363 1.357 . S
C2363 C2362 1.357 . S
C2363 C2364 1.406 . S
C2364 H2338 0.929 . S
C2364 C2363 1.406 . S
C2364 C2365 1.391 . S
C2365 H2337 0.931 . S
C2365 C2360 1.370 . S
C2365 C2364 1.391 . S
C2366 N2335 1.435 . S
C2366 C2367 1.358 . S
C2366 C2371 1.371 . S
C2367 H2339 0.930 . S
C2367 C2366 1.358 . S
C2367 C2368 1.405 . S
C2368 H2340 0.932 . S
C2368 C2367 1.405 . S
C2368 C2369 1.383 . S
C2369 C2368 1.383 . S
C2369 C2370 1.393 . S
C2370 H2342 0.931 . S
C2370 C2369 1.393 . S
C2370 C2371 1.382 . S
C2371 H2341 0.929 . S
C2371 C2366 1.371 . S
C2371 C2370 1.382 . S
C2372 N2335 1.423 . S
C2372 C2373 1.362 . S
C2372 C2377 1.388 . S
C2373 H2343 0.929 . S
C2373 C2372 1.362 . S
C2373 C2374 1.376 . S
C2374 H2345 0.931 . S
C2374 C2373 1.376 . S
C2374 C2375 1.396 . S
C2375 C2374 1.396 . S
C2375 C2376 1.348 . S
C2375 C2393 1.472 . S
C2376 H2346 0.929 . S
C2376 C2375 1.348 . S
C2376 C2377 1.443 . S
C2377 H2344 0.932 . S
C2377 C2372 1.388 . S
C2377 C2376 1.443 . S
C2378 N2358 1.433 . S
C2378 C2379 1.363 . S
C2378 C2383 1.370 . S
C2379 H2347 0.929 . S
C2379 C2378 1.363 . S
C2379 C2380 1.385 . S
C2380 H2348 0.930 . S
C2380 C2379 1.385 . S
C2380 C2381 1.357 . S
C2381 C2380 1.357 . S
C2381 C2382 1.406 . S
C2382 H2349 0.929 . S
C2382 C2381 1.406 . S
C2382 C2383 1.391 . S
C2383 H2350 0.931 . S
C2383 C2378 1.370 . S
C2383 C2382 1.391 . S
C2384 N2358 1.435 . S
C2384 C2385 1.358 . S
C2384 C2389 1.371 . S
C2385 H2351 0.930 . S
C2385 C2384 1.358 . S
C2385 C2386 1.405 . S
C2386 H2352 0.932 . S
C2386 C2385 1.405 . S
C2386 C2387 1.383 . S
C2387 C2386 1.383 . S
C2387 C2388 1.393 . S
C2388 H2353 0.931 . S
C2388 C2387 1.393 . S
C2388 C2389 1.382 . S
C2389 H2354 0.929 . S
C2389 C2384 1.371 . S
C2389 C2388 1.382 . S
C2390 N2358 1.423 . S
C2390 C2391 1.362 . S
C2390 C2395 1.388 . S
C2391 H2355 0.929 . S
C2391 C2390 1.362 . S
C2391 C2392 1.376 . S
C2392 H2356 0.931 . S
C2392 C2391 1.376 . S
C2392 C2393 1.396 . S
C2393 C2375 1.472 . S
C2393 C2392 1.396 . S
C2393 C2394 1.348 . S
C2394 H2357 0.929 . S
C2394 C2393 1.348 . S
C2394 C2395 1.443 . S
C2395 H2359 0.932 . S
C2395 C2390 1.388 . S
C2395 C2394 1.443 . S
H2396 C2423 0.929 . S
N2397 C2422 1.433 . S
N2397 C2428 1.435 . S
N2397 C2434 1.423 . S
H2398 C2424 0.930 . S
H2399 C2427 0.931 . S
H2400 C2426 0.929 . S
H2401 C2429 0.930 . S
H2402 C2430 0.932 . S
H2403 C2433 0.929 . S
H2404 C2432 0.931 . S
H2405 C2435 0.929 . S
H2406 C2439 0.932 . S
H2407 C2436 0.931 . S
H2408 C2438 0.929 . S
H2409 C2441 0.929 . S
H2410 C2442 0.930 . S
H2411 C2444 0.929 . S
H2412 C2445 0.931 . S
H2413 C2447 0.930 . S
H2414 C2448 0.932 . S
H2415 C2450 0.931 . S
H2416 C2451 0.929 . S
H2417 C2453 0.929 . S
H2418 C2454 0.931 . S
H2419 C2456 0.929 . S
N2420 C2440 1.433 . S
N2420 C2446 1.435 . S
N2420 C2452 1.423 . S
H2421 C2457 0.932 . S
C2422 N2397 1.433 . S
C2422 C2423 1.363 . S
C2422 C2427 1.370 . S
C2423 H2396 0.929 . S
C2423 C2422 1.363 . S
C2423 C2424 1.385 . S
C2424 H2398 0.930 . S
C2424 C2423 1.385 . S
C2424 C2425 1.357 . S
C2425 C2424 1.357 . S
C2425 C2426 1.406 . S
C2426 H2400 0.929 . S
C2426 C2425 1.406 . S
C2426 C2427 1.391 . S
C2427 H2399 0.931 . S
C2427 C2422 1.370 . S
C2427 C2426 1.391 . S
C2428 N2397 1.435 . S
C2428 C2429 1.358 . S
C2428 C2433 1.371 . S
C2429 H2401 0.930 . S
C2429 C2428 1.358 . S
C2429 C2430 1.405 . S
C2430 H2402 0.932 . S
C2430 C2429 1.405 . S
C2430 C2431 1.383 . S
C2431 C2430 1.383 . S
C2431 C2432 1.393 . S
C2432 H2404 0.931 . S
C2432 C2431 1.393 . S
C2432 C2433 1.382 . S
C2433 H2403 0.929 . S
C2433 C2428 1.371 . S
C2433 C2432 1.382 . S
C2434 N2397 1.423 . S
C2434 C2435 1.362 . S
C2434 C2439 1.388 . S
C2435 H2405 0.929 . S
C2435 C2434 1.362 . S
C2435 C2436 1.376 . S
C2436 H2407 0.931 . S
C2436 C2435 1.376 . S
C2436 C2437 1.396 . S
C2437 C2436 1.396 . S
C2437 C2438 1.348 . S
C2437 C2455 1.472 . S
C2438 H2408 0.929 . S
C2438 C2437 1.348 . S
C2438 C2439 1.443 . S
C2439 H2406 0.932 . S
C2439 C2434 1.388 . S
C2439 C2438 1.443 . S
C2440 N2420 1.433 . S
C2440 C2441 1.363 . S
C2440 C2445 1.370 . S
C2441 H2409 0.929 . S
C2441 C2440 1.363 . S
C2441 C2442 1.385 . S
C2442 H2410 0.930 . S
C2442 C2441 1.385 . S
C2442 C2443 1.357 . S
C2443 C2442 1.357 . S
C2443 C2444 1.406 . S
C2444 H2411 0.929 . S
C2444 C2443 1.406 . S
C2444 C2445 1.391 . S
C2445 H2412 0.931 . S
C2445 C2440 1.370 . S
C2445 C2444 1.391 . S
C2446 N2420 1.435 . S
C2446 C2447 1.358 . S
C2446 C2451 1.371 . S
C2447 H2413 0.930 . S
C2447 C2446 1.358 . S
C2447 C2448 1.405 . S
C2448 H2414 0.932 . S
C2448 C2447 1.405 . S
C2448 C2449 1.383 . S
C2449 C2448 1.383 . S
C2449 C2450 1.393 . S
C2450 H2415 0.931 . S
C2450 C2449 1.393 . S
C2450 C2451 1.382 . S
C2451 H2416 0.929 . S
C2451 C2446 1.371 . S
C2451 C2450 1.382 . S
C2452 N2420 1.423 . S
C2452 C2453 1.362 . S
C2452 C2457 1.388 . S
C2453 H2417 0.929 . S
C2453 C2452 1.362 . S
C2453 C2454 1.376 . S
C2454 H2418 0.931 . S
C2454 C2453 1.376 . S
C2454 C2455 1.396 . S
C2455 C2437 1.472 . S
C2455 C2454 1.396 . S
C2455 C2456 1.348 . S
C2456 H2419 0.929 . S
C2456 C2455 1.348 . S
C2456 C2457 1.443 . S
C2457 H2421 0.932 . S
C2457 C2452 1.388 . S
C2457 C2456 1.443 . S
H2458 C2485 0.929 . S
N2459 C2484 1.433 . S
N2459 C2490 1.435 . S
N2459 C2496 1.423 . S
H2460 C2486 0.930 . S
H2461 C2489 0.931 . S
H2462 C2488 0.929 . S
H2463 C2491 0.930 . S
H2464 C2492 0.932 . S
H2465 C2495 0.929 . S
H2466 C2494 0.931 . S
H2467 C2497 0.929 . S
H2468 C2501 0.932 . S
H2469 C2498 0.931 . S
H2470 C2500 0.929 . S
H2471 C2503 0.929 . S
H2472 C2504 0.930 . S
H2473 C2506 0.929 . S
H2474 C2507 0.931 . S
H2475 C2509 0.930 . S
H2476 C2510 0.932 . S
H2477 C2512 0.931 . S
H2478 C2513 0.929 . S
H2479 C2515 0.929 . S
H2480 C2516 0.931 . S
H2481 C2518 0.929 . S
N2482 C2502 1.433 . S
N2482 C2508 1.435 . S
N2482 C2514 1.423 . S
H2483 C2519 0.932 . S
C2484 N2459 1.433 . S
C2484 C2485 1.363 . S
C2484 C2489 1.370 . S
C2485 H2458 0.929 . S
C2485 C2484 1.363 . S
C2485 C2486 1.385 . S
C2486 H2460 0.930 . S
C2486 C2485 1.385 . S
C2486 C2487 1.357 . S
C2487 C2486 1.357 . S
C2487 C2488 1.406 . S
C2488 H2462 0.929 . S
C2488 C2487 1.406 . S
C2488 C2489 1.391 . S
C2489 H2461 0.931 . S
C2489 C2484 1.370 . S
C2489 C2488 1.391 . S
C2490 N2459 1.435 . S
C2490 C2491 1.358 . S
C2490 C2495 1.371 . S
C2491 H2463 0.930 . S
C2491 C2490 1.358 . S
C2491 C2492 1.405 . S
C2492 H2464 0.932 . S
C2492 C2491 1.405 . S
C2492 C2493 1.383 . S
C2493 C2492 1.383 . S
C2493 C2494 1.393 . S
C2494 H2466 0.931 . S
C2494 C2493 1.393 . S
C2494 C2495 1.382 . S
C2495 H2465 0.929 . S
C2495 C2490 1.371 . S
C2495 C2494 1.382 . S
C2496 N2459 1.423 . S
C2496 C2497 1.362 . S
C2496 C2501 1.388 . S
C2497 H2467 0.929 . S
C2497 C2496 1.362 . S
C2497 C2498 1.376 . S
C2498 H2469 0.931 . S
C2498 C2497 1.376 . S
C2498 C2499 1.396 . S
C2499 C2498 1.396 . S
C2499 C2500 1.348 . S
C2499 C2517 1.472 . S
C2500 H2470 0.929 . S
C2500 C2499 1.348 . S
C2500 C2501 1.443 . S
C2501 H2468 0.932 . S
C2501 C2496 1.388 . S
C2501 C2500 1.443 . S
C2502 N2482 1.433 . S
C2502 C2503 1.363 . S
C2502 C2507 1.370 . S
C2503 H2471 0.929 . S
C2503 C2502 1.363 . S
C2503 C2504 1.385 . S
C2504 H2472 0.930 . S
C2504 C2503 1.385 . S
C2504 C2505 1.357 . S
C2505 C2504 1.357 . S
C2505 C2506 1.406 . S
C2506 H2473 0.929 . S
C2506 C2505 1.406 . S
C2506 C2507 1.391 . S
C2507 H2474 0.931 . S
C2507 C2502 1.370 . S
C2507 C2506 1.391 . S
C2508 N2482 1.435 . S
C2508 C2509 1.358 . S
C2508 C2513 1.371 . S
C2509 H2475 0.930 . S
C2509 C2508 1.358 . S
C2509 C2510 1.405 . S
C2510 H2476 0.932 . S
C2510 C2509 1.405 . S
C2510 C2511 1.383 . S
C2511 C2510 1.383 . S
C2511 C2512 1.393 . S
C2512 H2477 0.931 . S
C2512 C2511 1.393 . S
C2512 C2513 1.382 . S
C2513 H2478 0.929 . S
C2513 C2508 1.371 . S
C2513 C2512 1.382 . S
C2514 N2482 1.423 . S
C2514 C2515 1.362 . S
C2514 C2519 1.388 . S
C2515 H2479 0.929 . S
C2515 C2514 1.362 . S
C2515 C2516 1.376 . S
C2516 H2480 0.931 . S
C2516 C2515 1.376 . S
C2516 C2517 1.396 . S
C2517 C2499 1.472 . S
C2517 C2516 1.396 . S
C2517 C2518 1.348 . S
C2518 H2481 0.929 . S
C2518 C2517 1.348 . S
C2518 C2519 1.443 . S
C2519 H2483 0.932 . S
C2519 C2514 1.388 . S
C2519 C2518 1.443 . S
H2520 C2547 0.929 . S
N2521 C2546 1.433 . S
N2521 C2552 1.435 . S
N2521 C2558 1.423 . S
H2522 C2548 0.930 . S
H2523 C2551 0.931 . S
H2524 C2550 0.929 . S
H2525 C2553 0.930 . S
H2526 C2554 0.932 . S
H2527 C2557 0.929 . S
H2528 C2556 0.931 . S
H2529 C2559 0.929 . S
H2530 C2563 0.932 . S
H2531 C2560 0.931 . S
H2532 C2562 0.929 . S
H2533 C2565 0.929 . S
H2534 C2566 0.930 . S
H2535 C2568 0.929 . S
H2536 C2569 0.931 . S
H2537 C2571 0.930 . S
H2538 C2572 0.932 . S
H2539 C2574 0.931 . S
H2540 C2575 0.929 . S
H2541 C2577 0.929 . S
H2542 C2578 0.931 . S
H2543 C2580 0.929 . S
N2544 C2564 1.433 . S
N2544 C2570 1.435 . S
N2544 C2576 1.423 . S
H2545 C2581 0.932 . S
C2546 N2521 1.433 . S
C2546 C2547 1.363 . S
C2546 C2551 1.370 . S
C2547 H2520 0.929 . S
C2547 C2546 1.363 . S
C2547 C2548 1.385 . S
C2548 H2522 0.930 . S
C2548 C2547 1.385 . S
C2548 C2549 1.357 . S
C2549 C2548 1.357 . S
C2549 C2550 1.406 . S
C2550 H2524 0.929 . S
C2550 C2549 1.406 . S
C2550 C2551 1.391 . S
C2551 H2523 0.931 . S
C2551 C2546 1.370 . S
C2551 C2550 1.391 . S
C2552 N2521 1.435 . S
C2552 C2553 1.358 . S
C2552 C2557 1.371 . S
C2553 H2525 0.930 . S
C2553 C2552 1.358 . S
C2553 C2554 1.405 . S
C2554 H2526 0.932 . S
C2554 C2553 1.405 . S
C2554 C2555 1.383 . S
C2555 C2554 1.383 . S
C2555 C2556 1.393 . S
C2556 H2528 0.931 . S
C2556 C2555 1.393 . S
C2556 C2557 1.382 . S
C2557 H2527 0.929 . S
C2557 C2552 1.371 . S
C2557 C2556 1.382 . S
C2558 N2521 1.423 . S
C2558 C2559 1.362 . S
C2558 C2563 1.388 . S
C2559 H2529 0.929 . S
C2559 C2558 1.362 . S
C2559 C2560 1.376 . S
C2560 H2531 0.931 . S
C2560 C2559 1.376 . S
C2560 C2561 1.396 . S
C2561 C2560 1.396 . S
C2561 C2562 1.348 . S
C2561 C2579 1.472 . S
C2562 H2532 0.929 . S
C2562 C2561 1.348 . S
C2562 C2563 1.443 . S
C2563 H2530 0.932 . S
C2563 C2558 1.388 . S
C2563 C2562 1.443 . S
C2564 N2544 1.433 . S
C2564 C2565 1.363 . S
C2564 C2569 1.370 . S
C2565 H2533 0.929 . S
C2565 C2564 1.363 . S
C2565 C2566 1.385 . S
C2566 H2534 0.930 . S
C2566 C2565 1.385 . S
C2566 C2567 1.357 . S
C2567 C2566 1.357 . S
C2567 C2568 1.406 . S
C2568 H2535 0.929 . S
C2568 C2567 1.406 . S
C2568 C2569 1.391 . S
C2569 H2536 0.931 . S
C2569 C2564 1.370 . S
C2569 C2568 1.391 . S
C2570 N2544 1.435 . S
C2570 C2571 1.358 . S
C2570 C2575 1.371 . S
C2571 H2537 0.930 . S
C2571 C2570 1.358 . S
C2571 C2572 1.405 . S
C2572 H2538 0.932 . S
C2572 C2571 1.405 . S
C2572 C2573 1.383 . S
C2573 C2572 1.383 . S
C2573 C2574 1.393 . S
C2574 H2539 0.931 . S
C2574 C2573 1.393 . S
C2574 C2575 1.382 . S
C2575 H2540 0.929 . S
C2575 C2570 1.371 . S
C2575 C2574 1.382 . S
C2576 N2544 1.423 . S
C2576 C2577 1.362 . S
C2576 C2581 1.388 . S
C2577 H2541 0.929 . S
C2577 C2576 1.362 . S
C2577 C2578 1.376 . S
C2578 H2542 0.931 . S
C2578 C2577 1.376 . S
C2578 C2579 1.396 . S
C2579 C2561 1.472 . S
C2579 C2578 1.396 . S
C2579 C2580 1.348 . S
C2580 H2543 0.929 . S
C2580 C2579 1.348 . S
C2580 C2581 1.443 . S
C2581 H2545 0.932 . S
C2581 C2576 1.388 . S
C2581 C2580 1.443 . S
H2582 C2609 0.929 . S
N2583 C2608 1.433 . S
N2583 C2614 1.435 . S
N2583 C2620 1.423 . S
H2584 C2610 0.930 . S
H2585 C2613 0.931 . S
H2586 C2612 0.929 . S
H2587 C2615 0.930 . S
H2588 C2616 0.932 . S
H2589 C2619 0.929 . S
H2590 C2618 0.931 . S
H2591 C2621 0.929 . S
H2592 C2625 0.932 . S
H2593 C2622 0.931 . S
H2594 C2624 0.929 . S
H2595 C2627 0.929 . S
H2596 C2628 0.930 . S
H2597 C2630 0.929 . S
H2598 C2631 0.931 . S
H2599 C2633 0.930 . S
H2600 C2634 0.932 . S
H2601 C2636 0.931 . S
H2602 C2637 0.929 . S
H2603 C2639 0.929 . S
H2604 C2640 0.931 . S
H2605 C2642 0.929 . S
N2606 C2626 1.433 . S
N2606 C2632 1.435 . S
N2606 C2638 1.423 . S
H2607 C2643 0.932 . S
C2608 N2583 1.433 . S
C2608 C2609 1.363 . S
C2608 C2613 1.370 . S
C2609 H2582 0.929 . S
C2609 C2608 1.363 . S
C2609 C2610 1.385 . S
C2610 H2584 0.930 . S
C2610 C2609 1.385 . S
C2610 C2611 1.357 . S
C2611 C2610 1.357 . S
C2611 C2612 1.406 . S
C2612 H2586 0.929 . S
C2612 C2611 1.406 . S
C2612 C2613 1.391 . S
C2613 H2585 0.931 . S
C2613 C2608 1.370 . S
C2613 C2612 1.391 . S
C2614 N2583 1.435 . S
C2614 C2615 1.358 . S
C2614 C2619 1.371 . S
C2615 H2587 0.930 . S
C2615 C2614 1.358 . S
C2615 C2616 1.405 . S
C2616 H2588 0.932 . S
C2616 C2615 1.405 . S
C2616 C2617 1.383 . S
C2617 C2616 1.383 . S
C2617 C2618 1.393 . S
C2618 H2590 0.931 . S
C2618 C2617 1.393 . S
C2618 C2619 1.382 . S
C2619 H2589 0.929 . S
C2619 C2614 1.371 . S
C2619 C2618 1.382 . S
C2620 N2583 1.423 . S
C2620 C2621 1.362 . S
C2620 C2625 1.388 . S
C2621 H2591 0.929 . S
C2621 C2620 1.362 . S
C2621 C2622 1.376 . S
C2622 H2593 0.931 . S
C2622 C2621 1.376 . S
C2622 C2623 1.396 . S
C2623 C2622 1.396 . S
C2623 C2624 1.348 . S
C2623 C2641 1.472 . S
C2624 H2594 0.929 . S
C2624 C2623 1.348 . S
C2624 C2625 1.443 . S
C2625 H2592 0.932 . S
C2625 C2620 1.388 . S
C2625 C2624 1.443 . S
C2626 N2606 1.433 . S
C2626 C2627 1.363 . S
C2626 C2631 1.370 . S
C2627 H2595 0.929 . S
C2627 C2626 1.363 . S
C2627 C2628 1.385 . S
C2628 H2596 0.930 . S
C2628 C2627 1.385 . S
C2628 C2629 1.357 . S
C2629 C2628 1.357 . S
C2629 C2630 1.406 . S
C2630 H2597 0.929 . S
C2630 C2629 1.406 . S
C2630 C2631 1.391 . S
C2631 H2598 0.931 . S
C2631 C2626 1.370 . S
C2631 C2630 1.391 . S
C2632 N2606 1.435 . S
C2632 C2633 1.358 . S
C2632 C2637 1.371 . S
C2633 H2599 0.930 . S
C2633 C2632 1.358 . S
C2633 C2634 1.405 . S
C2634 H2600 0.932 . S
C2634 C2633 1.405 . S
C2634 C2635 1.383 . S
C2635 C2634 1.383 . S
C2635 C2636 1.393 . S
C2636 H2601 0.931 . S
C2636 C2635 1.393 . S
C2636 C2637 1.382 . S
C2637 H2602 0.929 . S
C2637 C2632 1.371 . S
C2637 C2636 1.382 . S
C2638 N2606 1.423 . S
C2638 C2639 1.362 . S
C2638 C2643 1.388 . S
C2639 H2603 0.929 . S
C2639 C2638 1.362 . S
C2639 C2640 1.376 . S
C2640 H2604 0.931 . S
C2640 C2639 1.376 . S
C2640 C2641 1.396 . S
C2641 C2623 1.472 . S
C2641 C2640 1.396 . S
C2641 C2642 1.348 . S
C2642 H2605 0.929 . S
C2642 C2641 1.348 . S
C2642 C2643 1.443 . S
C2643 H2607 0.932 . S
C2643 C2638 1.388 . S
C2643 C2642 1.443 . S
H2644 C2671 0.929 . S
N2645 C2670 1.433 . S
N2645 C2676 1.435 . S
N2645 C2682 1.423 . S
H2646 C2672 0.930 . S
H2647 C2675 0.931 . S
H2648 C2674 0.929 . S
H2649 C2677 0.930 . S
H2650 C2678 0.932 . S
H2651 C2681 0.929 . S
H2652 C2680 0.931 . S
H2653 C2683 0.929 . S
H2654 C2687 0.932 . S
H2655 C2684 0.931 . S
H2656 C2686 0.929 . S
H2657 C2689 0.929 . S
H2658 C2690 0.930 . S
H2659 C2692 0.929 . S
H2660 C2693 0.931 . S
H2661 C2695 0.930 . S
H2662 C2696 0.932 . S
H2663 C2698 0.931 . S
H2664 C2699 0.929 . S
H2665 C2701 0.929 . S
H2666 C2702 0.931 . S
H2667 C2704 0.929 . S
N2668 C2688 1.433 . S
N2668 C2694 1.435 . S
N2668 C2700 1.423 . S
H2669 C2705 0.932 . S
C2670 N2645 1.433 . S
C2670 C2671 1.363 . S
C2670 C2675 1.370 . S
C2671 H2644 0.929 . S
C2671 C2670 1.363 . S
C2671 C2672 1.385 . S
C2672 H2646 0.930 . S
C2672 C2671 1.385 . S
C2672 C2673 1.357 . S
C2673 C2672 1.357 . S
C2673 C2674 1.406 . S
C2674 H2648 0.929 . S
C2674 C2673 1.406 . S
C2674 C2675 1.391 . S
C2675 H2647 0.931 . S
C2675 C2670 1.370 . S
C2675 C2674 1.391 . S
C2676 N2645 1.435 . S
C2676 C2677 1.358 . S
C2676 C2681 1.371 . S
C2677 H2649 0.930 . S
C2677 C2676 1.358 . S
C2677 C2678 1.405 . S
C2678 H2650 0.932 . S
C2678 C2677 1.405 . S
C2678 C2679 1.383 . S
C2679 C2678 1.383 . S
C2679 C2680 1.393 . S
C2680 H2652 0.931 . S
C2680 C2679 1.393 . S
C2680 C2681 1.382 . S
C2681 H2651 0.929 . S
C2681 C2676 1.371 . S
C2681 C2680 1.382 . S
C2682 N2645 1.423 . S
C2682 C2683 1.362 . S
C2682 C2687 1.388 . S
C2683 H2653 0.929 . S
C2683 C2682 1.362 . S
C2683 C2684 1.376 . S
C2684 H2655 0.931 . S
C2684 C2683 1.376 . S
C2684 C2685 1.396 . S
C2685 C2684 1.396 . S
C2685 C2686 1.348 . S
C2685 C2703 1.472 . S
C2686 H2656 0.929 . S
C2686 C2685 1.348 . S
C2686 C2687 1.443 . S
C2687 H2654 0.932 . S
C2687 C2682 1.388 . S
C2687 C2686 1.443 . S
C2688 N2668 1.433 . S
C2688 C2689 1.363 . S
C2688 C2693 1.370 . S
C2689 H2657 0.929 . S
C2689 C2688 1.363 . S
C2689 C2690 1.385 . S
C2690 H2658 0.930 . S
C2690 C2689 1.385 . S
C2690 C2691 1.357 . S
C2691 C2690 1.357 . S
C2691 C2692 1.406 . S
C2692 H2659 0.929 . S
C2692 C2691 1.406 . S
C2692 C2693 1.391 . S
C2693 H2660 0.931 . S
C2693 C2688 1.370 . S
C2693 C2692 1.391 . S
C2694 N2668 1.435 . S
C2694 C2695 1.358 . S
C2694 C2699 1.371 . S
C2695 H2661 0.930 . S
C2695 C2694 1.358 . S
C2695 C2696 1.405 . S
C2696 H2662 0.932 . S
C2696 C2695 1.405 . S
C2696 C2697 1.383 . S
C2697 C2696 1.383 . S
C2697 C2698 1.393 . S
C2698 H2663 0.931 . S
C2698 C2697 1.393 . S
C2698 C2699 1.382 . S
C2699 H2664 0.929 . S
C2699 C2694 1.371 . S
C2699 C2698 1.382 . S
C2700 N2668 1.423 . S
C2700 C2701 1.362 . S
C2700 C2705 1.388 . S
C2701 H2665 0.929 . S
C2701 C2700 1.362 . S
C2701 C2702 1.376 . S
C2702 H2666 0.931 . S
C2702 C2701 1.376 . S
C2702 C2703 1.396 . S
C2703 C2685 1.472 . S
C2703 C2702 1.396 . S
C2703 C2704 1.348 . S
C2704 H2667 0.929 . S
C2704 C2703 1.348 . S
C2704 C2705 1.443 . S
C2705 H2669 0.932 . S
C2705 C2700 1.388 . S
C2705 C2704 1.443 . S
H2706 C2733 0.929 . S
N2707 C2732 1.433 . S
N2707 C2738 1.435 . S
N2707 C2744 1.423 . S
H2708 C2734 0.930 . S
H2709 C2737 0.931 . S
H2710 C2736 0.929 . S
H2711 C2739 0.930 . S
H2712 C2740 0.932 . S
H2713 C2743 0.929 . S
H2714 C2742 0.931 . S
H2715 C2745 0.929 . S
H2716 C2749 0.932 . S
H2717 C2746 0.931 . S
H2718 C2748 0.929 . S
H2719 C2751 0.929 . S
H2720 C2752 0.930 . S
H2721 C2754 0.929 . S
H2722 C2755 0.931 . S
H2723 C2757 0.930 . S
H2724 C2758 0.932 . S
H2725 C2760 0.931 . S
H2726 C2761 0.929 . S
H2727 C2763 0.929 . S
H2728 C2764 0.931 . S
H2729 C2766 0.929 . S
N2730 C2750 1.433 . S
N2730 C2756 1.435 . S
N2730 C2762 1.423 . S
H2731 C2767 0.932 . S
C2732 N2707 1.433 . S
C2732 C2733 1.363 . S
C2732 C2737 1.370 . S
C2733 H2706 0.929 . S
C2733 C2732 1.363 . S
C2733 C2734 1.385 . S
C2734 H2708 0.930 . S
C2734 C2733 1.385 . S
C2734 C2735 1.357 . S
C2735 C2734 1.357 . S
C2735 C2736 1.406 . S
C2736 H2710 0.929 . S
C2736 C2735 1.406 . S
C2736 C2737 1.391 . S
C2737 H2709 0.931 . S
C2737 C2732 1.370 . S
C2737 C2736 1.391 . S
C2738 N2707 1.435 . S
C2738 C2739 1.358 . S
C2738 C2743 1.371 . S
C2739 H2711 0.930 . S
C2739 C2738 1.358 . S
C2739 C2740 1.405 . S
C2740 H2712 0.932 . S
C2740 C2739 1.405 . S
C2740 C2741 1.383 . S
C2741 C2740 1.383 . S
C2741 C2742 1.393 . S
C2742 H2714 0.931 . S
C2742 C2741 1.393 . S
C2742 C2743 1.382 . S
C2743 H2713 0.929 . S
C2743 C2738 1.371 . S
C2743 C2742 1.382 . S
C2744 N2707 1.423 . S
C2744 C2745 1.362 . S
C2744 C2749 1.388 . S
C2745 H2715 0.929 . S
C2745 C2744 1.362 . S
C2745 C2746 1.376 . S
C2746 H2717 0.931 . S
C2746 C2745 1.376 . S
C2746 C2747 1.396 . S
C2747 C2746 1.396 . S
C2747 C2748 1.348 . S
C2747 C2765 1.472 . S
C2748 H2718 0.929 . S
C2748 C2747 1.348 . S
C2748 C2749 1.443 . S
C2749 H2716 0.932 . S
C2749 C2744 1.388 . S
C2749 C2748 1.443 . S
C2750 N2730 1.433 . S
C2750 C2751 1.363 . S
C2750 C2755 1.370 . S
C2751 H2719 0.929 . S
C2751 C2750 1.363 . S
C2751 C2752 1.385 . S
C2752 H2720 0.930 . S
C2752 C2751 1.385 . S
C2752 C2753 1.357 . S
C2753 C2752 1.357 . S
C2753 C2754 1.406 . S
C2754 H2721 0.929 . S
C2754 C2753 1.406 . S
C2754 C2755 1.391 . S
C2755 H2722 0.931 . S
C2755 C2750 1.370 . S
C2755 C2754 1.391 . S
C2756 N2730 1.435 . S
C2756 C2757 1.358 . S
C2756 C2761 1.371 . S
C2757 H2723 0.930 . S
C2757 C2756 1.358 . S
C2757 C2758 1.405 . S
C2758 H2724 0.932 . S
C2758 C2757 1.405 . S
C2758 C2759 1.383 . S
C2759 C2758 1.383 . S
C2759 C2760 1.393 . S
C2760 H2725 0.931 . S
C2760 C2759 1.393 . S
C2760 C2761 1.382 . S
C2761 H2726 0.929 . S
C2761 C2756 1.371 . S
C2761 C2760 1.382 . S
C2762 N2730 1.423 . S
C2762 C2763 1.362 . S
C2762 C2767 1.388 . S
C2763 H2727 0.929 . S
C2763 C2762 1.362 . S
C2763 C2764 1.376 . S
C2764 H2728 0.931 . S
C2764 C2763 1.376 . S
C2764 C2765 1.396 . S
C2765 C2747 1.472 . S
C2765 C2764 1.396 . S
C2765 C2766 1.348 . S
C2766 H2729 0.929 . S
C2766 C2765 1.348 . S
C2766 C2767 1.443 . S
C2767 H2731 0.932 . S
C2767 C2762 1.388 . S
C2767 C2766 1.443 . S
H2768 C2774 0.930 . S
H2769 C2778 0.930 . S
H2770 C2783 0.929 . S
H2771 C2781 0.929 . S
H2772 C2776 0.929 . S
H2773 C2782 0.929 . S
C2774 H2768 0.930 . S
C2774 C2775 1.367 . S
C2774 C2782 1.378 . S
C2775 C2774 1.367 . S
C2775 C2783 1.433 . S
C2776 H2772 0.929 . S
C2776 C2778 1.378 . S
C2776 C2780 1.350 . S
C2777 C2780 1.463 . S
C2777 C2782 1.350 . S
C2777 N2785 1.427 . S
C2778 H2769 0.930 . S
C2778 C2776 1.378 . S
C2778 C2779 1.367 . S
C2779 C2778 1.367 . S
C2779 C2781 1.433 . S
C2780 C2776 1.350 . S
C2780 C2777 1.463 . S
C2780 N2784 1.427 . S
C2781 H2771 0.929 . S
C2781 C2779 1.433 . S
C2781 N2784 1.384 . S
C2782 H2773 0.929 . S
C2782 C2774 1.378 . S
C2782 C2777 1.350 . S
C2783 H2770 0.929 . S
C2783 C2775 1.433 . S
C2783 N2785 1.384 . S
N2784 C2780 1.427 . S
N2784 C2781 1.384 . S
N2785 C2777 1.427 . S
N2785 C2783 1.384 . S
H2786 C2792 0.930 . S
H2787 C2796 0.930 . S
H2788 C2801 0.929 . S
H2789 C2799 0.929 . S
H2790 C2794 0.929 . S
H2791 C2800 0.929 . S
C2792 H2786 0.930 . S
C2792 C2793 1.367 . S
C2792 C2800 1.378 . S
C2793 C2792 1.367 . S
C2793 C2801 1.433 . S
C2794 H2790 0.929 . S
C2794 C2796 1.378 . S
C2794 C2798 1.350 . S
C2795 C2798 1.463 . S
C2795 C2800 1.350 . S
C2795 N2803 1.427 . S
C2796 H2787 0.930 . S
C2796 C2794 1.378 . S
C2796 C2797 1.367 . S
C2797 C2796 1.367 . S
C2797 C2799 1.433 . S
C2798 C2794 1.350 . S
C2798 C2795 1.463 . S
C2798 N2802 1.427 . S
C2799 H2789 0.929 . S
C2799 C2797 1.433 . S
C2799 N2802 1.384 . S
C2800 H2791 0.929 . S
C2800 C2792 1.378 . S
C2800 C2795 1.350 . S
C2801 H2788 0.929 . S
C2801 C2793 1.433 . S
C2801 N2803 1.384 . S
N2802 C2798 1.427 . S
N2802 C2799 1.384 . S
N2803 C2795 1.427 . S
N2803 C2801 1.384 . S
H2804 C2810 0.930 . S
H2805 C2814 0.930 . S
H2806 C2819 0.929 . S
H2807 C2817 0.929 . S
H2808 C2812 0.929 . S
H2809 C2818 0.929 . S
C2810 H2804 0.930 . S
C2810 C2811 1.367 . S
C2810 C2818 1.378 . S
C2811 C2810 1.367 . S
C2811 C2819 1.433 . S
C2812 H2808 0.929 . S
C2812 C2814 1.378 . S
C2812 C2816 1.350 . S
C2813 C2816 1.463 . S
C2813 C2818 1.350 . S
C2813 N2821 1.427 . S
C2814 H2805 0.930 . S
C2814 C2812 1.378 . S
C2814 C2815 1.367 . S
C2815 C2814 1.367 . S
C2815 C2817 1.433 . S
C2816 C2812 1.350 . S
C2816 C2813 1.463 . S
C2816 N2820 1.427 . S
C2817 H2807 0.929 . S
C2817 C2815 1.433 . S
C2817 N2820 1.384 . S
C2818 H2809 0.929 . S
C2818 C2810 1.378 . S
C2818 C2813 1.350 . S
C2819 H2806 0.929 . S
C2819 C2811 1.433 . S
C2819 N2821 1.384 . S
N2820 C2816 1.427 . S
N2820 C2817 1.384 . S
N2821 C2813 1.427 . S
N2821 C2819 1.384 . S
H2822 C2828 0.930 . S
H2823 C2832 0.930 . S
H2824 C2837 0.929 . S
H2825 C2835 0.929 . S
H2826 C2830 0.929 . S
H2827 C2836 0.929 . S
C2828 H2822 0.930 . S
C2828 C2829 1.367 . S
C2828 C2836 1.378 . S
C2829 C2828 1.367 . S
C2829 C2837 1.433 . S
C2830 H2826 0.929 . S
C2830 C2832 1.378 . S
C2830 C2834 1.350 . S
C2831 C2834 1.463 . S
C2831 C2836 1.350 . S
C2831 N2839 1.427 . S
C2832 H2823 0.930 . S
C2832 C2830 1.378 . S
C2832 C2833 1.367 . S
C2833 C2832 1.367 . S
C2833 C2835 1.433 . S
C2834 C2830 1.350 . S
C2834 C2831 1.463 . S
C2834 N2838 1.427 . S
C2835 H2825 0.929 . S
C2835 C2833 1.433 . S
C2835 N2838 1.384 . S
C2836 H2827 0.929 . S
C2836 C2828 1.378 . S
C2836 C2831 1.350 . S
C2837 H2824 0.929 . S
C2837 C2829 1.433 . S
C2837 N2839 1.384 . S
N2838 C2834 1.427 . S
N2838 C2835 1.384 . S
N2839 C2831 1.427 . S
N2839 C2837 1.384 . S
H2840 C2846 0.930 . S
H2841 C2850 0.930 . S
H2842 C2855 0.929 . S
H2843 C2853 0.929 . S
H2844 C2848 0.929 . S
H2845 C2854 0.929 . S
C2846 H2840 0.930 . S
C2846 C2847 1.367 . S
C2846 C2854 1.378 . S
C2847 C2846 1.367 . S
C2847 C2855 1.433 . S
C2848 H2844 0.929 . S
C2848 C2850 1.378 . S
C2848 C2852 1.350 . S
C2849 C2852 1.463 . S
C2849 C2854 1.350 . S
C2849 N2857 1.427 . S
C2850 H2841 0.930 . S
C2850 C2848 1.378 . S
C2850 C2851 1.367 . S
C2851 C2850 1.367 . S
C2851 C2853 1.433 . S
C2852 C2848 1.350 . S
C2852 C2849 1.463 . S
C2852 N2856 1.427 . S
C2853 H2843 0.929 . S
C2853 C2851 1.433 . S
C2853 N2856 1.384 . S
C2854 H2845 0.929 . S
C2854 C2846 1.378 . S
C2854 C2849 1.350 . S
C2855 H2842 0.929 . S
C2855 C2847 1.433 . S
C2855 N2857 1.384 . S
N2856 C2852 1.427 . S
N2856 C2853 1.384 . S
N2857 C2849 1.427 . S
N2857 C2855 1.384 . S
H2858 C2864 0.930 . S
H2859 C2868 0.930 . S
H2860 C2873 0.929 . S
H2861 C2871 0.929 . S
H2862 C2866 0.929 . S
H2863 C2872 0.929 . S
C2864 H2858 0.930 . S
C2864 C2865 1.367 . S
C2864 C2872 1.378 . S
C2865 C2864 1.367 . S
C2865 C2873 1.433 . S
C2866 H2862 0.929 . S
C2866 C2868 1.378 . S
C2866 C2870 1.350 . S
C2867 C2870 1.463 . S
C2867 C2872 1.350 . S
C2867 N2875 1.427 . S
C2868 H2859 0.930 . S
C2868 C2866 1.378 . S
C2868 C2869 1.367 . S
C2869 C2868 1.367 . S
C2869 C2871 1.433 . S
C2870 C2866 1.350 . S
C2870 C2867 1.463 . S
C2870 N2874 1.427 . S
C2871 H2861 0.929 . S
C2871 C2869 1.433 . S
C2871 N2874 1.384 . S
C2872 H2863 0.929 . S
C2872 C2864 1.378 . S
C2872 C2867 1.350 . S
C2873 H2860 0.929 . S
C2873 C2865 1.433 . S
C2873 N2875 1.384 . S
N2874 C2870 1.427 . S
N2874 C2871 1.384 . S
N2875 C2867 1.427 . S
N2875 C2873 1.384 . S
H2876 C2882 0.930 . S
H2877 C2886 0.930 . S
H2878 C2891 0.929 . S
H2879 C2889 0.929 . S
H2880 C2884 0.929 . S
H2881 C2890 0.929 . S
C2882 H2876 0.930 . S
C2882 C2883 1.367 . S
C2882 C2890 1.378 . S
C2883 C2882 1.367 . S
C2883 C2891 1.433 . S
C2884 H2880 0.929 . S
C2884 C2886 1.378 . S
C2884 C2888 1.350 . S
C2885 C2888 1.463 . S
C2885 C2890 1.350 . S
C2885 N2893 1.427 . S
C2886 H2877 0.930 . S
C2886 C2884 1.378 . S
C2886 C2887 1.367 . S
C2887 C2886 1.367 . S
C2887 C2889 1.433 . S
C2888 C2884 1.350 . S
C2888 C2885 1.463 . S
C2888 N2892 1.427 . S
C2889 H2879 0.929 . S
C2889 C2887 1.433 . S
C2889 N2892 1.384 . S
C2890 H2881 0.929 . S
C2890 C2882 1.378 . S
C2890 C2885 1.350 . S
C2891 H2878 0.929 . S
C2891 C2883 1.433 . S
C2891 N2893 1.384 . S
N2892 C2888 1.427 . S
N2892 C2889 1.384 . S
N2893 C2885 1.427 . S
N2893 C2891 1.384 . S
H2894 C2900 0.930 . S
H2895 C2904 0.930 . S
H2896 C2909 0.929 . S
H2897 C2907 0.929 . S
H2898 C2902 0.929 . S
H2899 C2908 0.929 . S
C2900 H2894 0.930 . S
C2900 C2901 1.367 . S
C2900 C2908 1.378 . S
C2901 C2900 1.367 . S
C2901 C2909 1.433 . S
C2902 H2898 0.929 . S
C2902 C2904 1.378 . S
C2902 C2906 1.350 . S
C2903 C2906 1.463 . S
C2903 C2908 1.350 . S
C2903 N2911 1.427 . S
C2904 H2895 0.930 . S
C2904 C2902 1.378 . S
C2904 C2905 1.367 . S
C2905 C2904 1.367 . S
C2905 C2907 1.433 . S
C2906 C2902 1.350 . S
C2906 C2903 1.463 . S
C2906 N2910 1.427 . S
C2907 H2897 0.929 . S
C2907 C2905 1.433 . S
C2907 N2910 1.384 . S
C2908 H2899 0.929 . S
C2908 C2900 1.378 . S
C2908 C2903 1.350 . S
C2909 H2896 0.929 . S
C2909 C2901 1.433 . S
C2909 N2911 1.384 . S
N2910 C2906 1.427 . S
N2910 C2907 1.384 . S
N2911 C2903 1.427 . S
N2911 C2909 1.384 . S
H2912 C2918 0.930 . S
H2913 C2922 0.930 . S
H2914 C2927 0.929 . S
H2915 C2925 0.929 . S
H2916 C2920 0.929 . S
H2917 C2926 0.929 . S
C2918 H2912 0.930 . S
C2918 C2919 1.367 . S
C2918 C2926 1.378 . S
C2919 C2918 1.367 . S
C2919 C2927 1.433 . S
C2920 H2916 0.929 . S
C2920 C2922 1.378 . S
C2920 C2924 1.350 . S
C2921 C2924 1.463 . S
C2921 C2926 1.350 . S
C2921 N2929 1.427 . S
C2922 H2913 0.930 . S
C2922 C2920 1.378 . S
C2922 C2923 1.367 . S
C2923 C2922 1.367 . S
C2923 C2925 1.433 . S
C2924 C2920 1.350 . S
C2924 C2921 1.463 . S
C2924 N2928 1.427 . S
C2925 H2915 0.929 . S
C2925 C2923 1.433 . S
C2925 N2928 1.384 . S
C2926 H2917 0.929 . S
C2926 C2918 1.378 . S
C2926 C2921 1.350 . S
C2927 H2914 0.929 . S
C2927 C2919 1.433 . S
C2927 N2929 1.384 . S
N2928 C2924 1.427 . S
N2928 C2925 1.384 . S
N2929 C2921 1.427 . S
N2929 C2927 1.384 . S
H2930 C2936 0.930 . S
H2931 C2940 0.930 . S
H2932 C2945 0.929 . S
H2933 C2943 0.929 . S
H2934 C2938 0.929 . S
H2935 C2944 0.929 . S
C2936 H2930 0.930 . S
C2936 C2937 1.367 . S
C2936 C2944 1.378 . S
C2937 C2936 1.367 . S
C2937 C2945 1.433 . S
C2938 H2934 0.929 . S
C2938 C2940 1.378 . S
C2938 C2942 1.350 . S
C2939 C2942 1.463 . S
C2939 C2944 1.350 . S
C2939 N2947 1.427 . S
C2940 H2931 0.930 . S
C2940 C2938 1.378 . S
C2940 C2941 1.367 . S
C2941 C2940 1.367 . S
C2941 C2943 1.433 . S
C2942 C2938 1.350 . S
C2942 C2939 1.463 . S
C2942 N2946 1.427 . S
C2943 H2933 0.929 . S
C2943 C2941 1.433 . S
C2943 N2946 1.384 . S
C2944 H2935 0.929 . S
C2944 C2936 1.378 . S
C2944 C2939 1.350 . S
C2945 H2932 0.929 . S
C2945 C2937 1.433 . S
C2945 N2947 1.384 . S
N2946 C2942 1.427 . S
N2946 C2943 1.384 . S
N2947 C2939 1.427 . S
N2947 C2945 1.384 . S
H2948 C2954 0.930 . S
H2949 C2958 0.930 . S
H2950 C2963 0.929 . S
H2951 C2961 0.929 . S
H2952 C2956 0.929 . S
H2953 C2962 0.929 . S
C2954 H2948 0.930 . S
C2954 C2955 1.367 . S
C2954 C2962 1.378 . S
C2955 C2954 1.367 . S
C2955 C2963 1.433 . S
C2956 H2952 0.929 . S
C2956 C2958 1.378 . S
C2956 C2960 1.350 . S
C2957 C2960 1.463 . S
C2957 C2962 1.350 . S
C2957 N2965 1.427 . S
C2958 H2949 0.930 . S
C2958 C2956 1.378 . S
C2958 C2959 1.367 . S
C2959 C2958 1.367 . S
C2959 C2961 1.433 . S
C2960 C2956 1.350 . S
C2960 C2957 1.463 . S
C2960 N2964 1.427 . S
C2961 H2951 0.929 . S
C2961 C2959 1.433 . S
C2961 N2964 1.384 . S
C2962 H2953 0.929 . S
C2962 C2954 1.378 . S
C2962 C2957 1.350 . S
C2963 H2950 0.929 . S
C2963 C2955 1.433 . S
C2963 N2965 1.384 . S
N2964 C2960 1.427 . S
N2964 C2961 1.384 . S
N2965 C2957 1.427 . S
N2965 C2963 1.384 . S
H2966 C2972 0.930 . S
H2967 C2976 0.930 . S
H2968 C2981 0.929 . S
H2969 C2979 0.929 . S
H2970 C2974 0.929 . S
H2971 C2980 0.929 . S
C2972 H2966 0.930 . S
C2972 C2973 1.367 . S
C2972 C2980 1.378 . S
C2973 C2972 1.367 . S
C2973 C2981 1.433 . S
C2974 H2970 0.929 . S
C2974 C2976 1.378 . S
C2974 C2978 1.350 . S
C2975 C2978 1.463 . S
C2975 C2980 1.350 . S
C2975 N2983 1.427 . S
C2976 H2967 0.930 . S
C2976 C2974 1.378 . S
C2976 C2977 1.367 . S
C2977 C2976 1.367 . S
C2977 C2979 1.433 . S
C2978 C2974 1.350 . S
C2978 C2975 1.463 . S
C2978 N2982 1.427 . S
C2979 H2969 0.929 . S
C2979 C2977 1.433 . S
C2979 N2982 1.384 . S
C2980 H2971 0.929 . S
C2980 C2972 1.378 . S
C2980 C2975 1.350 . S
C2981 H2968 0.929 . S
C2981 C2973 1.433 . S
C2981 N2983 1.384 . S
N2982 C2978 1.427 . S
N2982 C2979 1.384 . S
N2983 C2975 1.427 . S
N2983 C2981 1.384 . S
H2984 C2990 0.930 . S
H2985 C2994 0.930 . S
H2986 C2999 0.929 . S
H2987 C2997 0.929 . S
H2988 C2992 0.929 . S
H2989 C2998 0.929 . S
C2990 H2984 0.930 . S
C2990 C2991 1.367 . S
C2990 C2998 1.378 . S
C2991 C2990 1.367 . S
C2991 C2999 1.433 . S
C2992 H2988 0.929 . S
C2992 C2994 1.378 . S
C2992 C2996 1.350 . S
C2993 C2996 1.463 . S
C2993 C2998 1.350 . S
C2993 N3001 1.427 . S
C2994 H2985 0.930 . S
C2994 C2992 1.378 . S
C2994 C2995 1.367 . S
C2995 C2994 1.367 . S
C2995 C2997 1.433 . S
C2996 C2992 1.350 . S
C2996 C2993 1.463 . S
C2996 N3000 1.427 . S
C2997 H2987 0.929 . S
C2997 C2995 1.433 . S
C2997 N3000 1.384 . S
C2998 H2989 0.929 . S
C2998 C2990 1.378 . S
C2998 C2993 1.350 . S
C2999 H2986 0.929 . S
C2999 C2991 1.433 . S
C2999 N3001 1.384 . S
N3000 C2996 1.427 . S
N3000 C2997 1.384 . S
N3001 C2993 1.427 . S
N3001 C2999 1.384 . S
H3002 C3008 0.930 . S
H3003 C3012 0.930 . S
H3004 C3017 0.929 . S
H3005 C3015 0.929 . S
H3006 C3010 0.929 . S
H3007 C3016 0.929 . S
C3008 H3002 0.930 . S
C3008 C3009 1.367 . S
C3008 C3016 1.378 . S
C3009 C3008 1.367 . S
C3009 C3017 1.433 . S
C3010 H3006 0.929 . S
C3010 C3012 1.378 . S
C3010 C3014 1.350 . S
C3011 C3014 1.463 . S
C3011 C3016 1.350 . S
C3011 N3019 1.427 . S
C3012 H3003 0.930 . S
C3012 C3010 1.378 . S
C3012 C3013 1.367 . S
C3013 C3012 1.367 . S
C3013 C3015 1.433 . S
C3014 C3010 1.350 . S
C3014 C3011 1.463 . S
C3014 N3018 1.427 . S
C3015 H3005 0.929 . S
C3015 C3013 1.433 . S
C3015 N3018 1.384 . S
C3016 H3007 0.929 . S
C3016 C3008 1.378 . S
C3016 C3011 1.350 . S
C3017 H3004 0.929 . S
C3017 C3009 1.433 . S
C3017 N3019 1.384 . S
N3018 C3014 1.427 . S
N3018 C3015 1.384 . S
N3019 C3011 1.427 . S
N3019 C3017 1.384 . S
H3020 C3026 0.930 . S
H3021 C3030 0.930 . S
H3022 C3035 0.929 . S
H3023 C3033 0.929 . S
H3024 C3028 0.929 . S
H3025 C3034 0.929 . S
C3026 H3020 0.930 . S
C3026 C3027 1.367 . S
C3026 C3034 1.378 . S
C3027 C3026 1.367 . S
C3027 C3035 1.433 . S
C3028 H3024 0.929 . S
C3028 C3030 1.378 . S
C3028 C3032 1.350 . S
C3029 C3032 1.463 . S
C3029 C3034 1.350 . S
C3029 N3037 1.427 . S
C3030 H3021 0.930 . S
C3030 C3028 1.378 . S
C3030 C3031 1.367 . S
C3031 C3030 1.367 . S
C3031 C3033 1.433 . S
C3032 C3028 1.350 . S
C3032 C3029 1.463 . S
C3032 N3036 1.427 . S
C3033 H3023 0.929 . S
C3033 C3031 1.433 . S
C3033 N3036 1.384 . S
C3034 H3025 0.929 . S
C3034 C3026 1.378 . S
C3034 C3029 1.350 . S
C3035 H3022 0.929 . S
C3035 C3027 1.433 . S
C3035 N3037 1.384 . S
N3036 C3032 1.427 . S
N3036 C3033 1.384 . S
N3037 C3029 1.427 . S
N3037 C3035 1.384 . S
H3038 C3044 0.930 . S
H3039 C3048 0.930 . S
H3040 C3053 0.929 . S
H3041 C3051 0.929 . S
H3042 C3046 0.929 . S
H3043 C3052 0.929 . S
C3044 H3038 0.930 . S
C3044 C3045 1.367 . S
C3044 C3052 1.378 . S
C3045 C3044 1.367 . S
C3045 C3053 1.433 . S
C3046 H3042 0.929 . S
C3046 C3048 1.378 . S
C3046 C3050 1.350 . S
C3047 C3050 1.463 . S
C3047 C3052 1.350 . S
C3047 N3055 1.427 . S
C3048 H3039 0.930 . S
C3048 C3046 1.378 . S
C3048 C3049 1.367 . S
C3049 C3048 1.367 . S
C3049 C3051 1.433 . S
C3050 C3046 1.350 . S
C3050 C3047 1.463 . S
C3050 N3054 1.427 . S
C3051 H3041 0.929 . S
C3051 C3049 1.433 . S
C3051 N3054 1.384 . S
C3052 H3043 0.929 . S
C3052 C3044 1.378 . S
C3052 C3047 1.350 . S
C3053 H3040 0.929 . S
C3053 C3045 1.433 . S
C3053 N3055 1.384 . S
N3054 C3050 1.427 . S
N3054 C3051 1.384 . S
N3055 C3047 1.427 . S
N3055 C3053 1.384 . S
H3056 C3062 0.930 . S
H3057 C3066 0.930 . S
H3058 C3071 0.929 . S
H3059 C3069 0.929 . S
H3060 C3064 0.929 . S
H3061 C3070 0.929 . S
C3062 H3056 0.930 . S
C3062 C3063 1.367 . S
C3062 C3070 1.378 . S
C3063 C3062 1.367 . S
C3063 C3071 1.433 . S
C3064 H3060 0.929 . S
C3064 C3066 1.378 . S
C3064 C3068 1.350 . S
C3065 C3068 1.463 . S
C3065 C3070 1.350 . S
C3065 N3073 1.427 . S
C3066 H3057 0.930 . S
C3066 C3064 1.378 . S
C3066 C3067 1.367 . S
C3067 C3066 1.367 . S
C3067 C3069 1.433 . S
C3068 C3064 1.350 . S
C3068 C3065 1.463 . S
C3068 N3072 1.427 . S
C3069 H3059 0.929 . S
C3069 C3067 1.433 . S
C3069 N3072 1.384 . S
C3070 H3061 0.929 . S
C3070 C3062 1.378 . S
C3070 C3065 1.350 . S
C3071 H3058 0.929 . S
C3071 C3063 1.433 . S
C3071 N3073 1.384 . S
N3072 C3068 1.427 . S
N3072 C3069 1.384 . S
N3073 C3065 1.427 . S
N3073 C3071 1.384 . S
H3074 C3080 0.930 . S
H3075 C3084 0.930 . S
H3076 C3089 0.929 . S
H3077 C3087 0.929 . S
H3078 C3082 0.929 . S
H3079 C3088 0.929 . S
C3080 H3074 0.930 . S
C3080 C3081 1.367 . S
C3080 C3088 1.378 . S
C3081 C3080 1.367 . S
C3081 C3089 1.433 . S
C3082 H3078 0.929 . S
C3082 C3084 1.378 . S
C3082 C3086 1.350 . S
C3083 C3086 1.463 . S
C3083 C3088 1.350 . S
C3083 N3091 1.427 . S
C3084 H3075 0.930 . S
C3084 C3082 1.378 . S
C3084 C3085 1.367 . S
C3085 C3084 1.367 . S
C3085 C3087 1.433 . S
C3086 C3082 1.350 . S
C3086 C3083 1.463 . S
C3086 N3090 1.427 . S
C3087 H3077 0.929 . S
C3087 C3085 1.433 . S
C3087 N3090 1.384 . S
C3088 H3079 0.929 . S
C3088 C3080 1.378 . S
C3088 C3083 1.350 . S
C3089 H3076 0.929 . S
C3089 C3081 1.433 . S
C3089 N3091 1.384 . S
N3090 C3086 1.427 . S
N3090 C3087 1.384 . S
N3091 C3083 1.427 . S
N3091 C3089 1.384 . S
H3092 C3098 0.930 . S
H3093 C3102 0.930 . S
H3094 C3107 0.929 . S
H3095 C3105 0.929 . S
H3096 C3100 0.929 . S
H3097 C3106 0.929 . S
C3098 H3092 0.930 . S
C3098 C3099 1.367 . S
C3098 C3106 1.378 . S
C3099 C3098 1.367 . S
C3099 C3107 1.433 . S
C3100 H3096 0.929 . S
C3100 C3102 1.378 . S
C3100 C3104 1.350 . S
C3101 C3104 1.463 . S
C3101 C3106 1.350 . S
C3101 N3109 1.427 . S
C3102 H3093 0.930 . S
C3102 C3100 1.378 . S
C3102 C3103 1.367 . S
C3103 C3102 1.367 . S
C3103 C3105 1.433 . S
C3104 C3100 1.350 . S
C3104 C3101 1.463 . S
C3104 N3108 1.427 . S
C3105 H3095 0.929 . S
C3105 C3103 1.433 . S
C3105 N3108 1.384 . S
C3106 H3097 0.929 . S
C3106 C3098 1.378 . S
C3106 C3101 1.350 . S
C3107 H3094 0.929 . S
C3107 C3099 1.433 . S
C3107 N3109 1.384 . S
N3108 C3104 1.427 . S
N3108 C3105 1.384 . S
N3109 C3101 1.427 . S
N3109 C3107 1.384 . S
H3110 C3116 0.930 . S
H3111 C3120 0.930 . S
H3112 C3125 0.929 . S
H3113 C3123 0.929 . S
H3114 C3118 0.929 . S
H3115 C3124 0.929 . S
C3116 H3110 0.930 . S
C3116 C3117 1.367 . S
C3116 C3124 1.378 . S
C3117 C3116 1.367 . S
C3117 C3125 1.433 . S
C3118 H3114 0.929 . S
C3118 C3120 1.378 . S
C3118 C3122 1.350 . S
C3119 C3122 1.463 . S
C3119 C3124 1.350 . S
C3119 N3127 1.427 . S
C3120 H3111 0.930 . S
C3120 C3118 1.378 . S
C3120 C3121 1.367 . S
C3121 C3120 1.367 . S
C3121 C3123 1.433 . S
C3122 C3118 1.350 . S
C3122 C3119 1.463 . S
C3122 N3126 1.427 . S
C3123 H3113 0.929 . S
C3123 C3121 1.433 . S
C3123 N3126 1.384 . S
C3124 H3115 0.929 . S
C3124 C3116 1.378 . S
C3124 C3119 1.350 . S
C3125 H3112 0.929 . S
C3125 C3117 1.433 . S
C3125 N3127 1.384 . S
N3126 C3122 1.427 . S
N3126 C3123 1.384 . S
N3127 C3119 1.427 . S
N3127 C3125 1.384 . S
H3128 C3134 0.930 . S
H3129 C3138 0.930 . S
H3130 C3143 0.929 . S
H3131 C3141 0.929 . S
H3132 C3136 0.929 . S
H3133 C3142 0.929 . S
C3134 H3128 0.930 . S
C3134 C3135 1.367 . S
C3134 C3142 1.378 . S
C3135 C3134 1.367 . S
C3135 C3143 1.433 . S
C3136 H3132 0.929 . S
C3136 C3138 1.378 . S
C3136 C3140 1.350 . S
C3137 C3140 1.463 . S
C3137 C3142 1.350 . S
C3137 N3145 1.427 . S
C3138 H3129 0.930 . S
C3138 C3136 1.378 . S
C3138 C3139 1.367 . S
C3139 C3138 1.367 . S
C3139 C3141 1.433 . S
C3140 C3136 1.350 . S
C3140 C3137 1.463 . S
C3140 N3144 1.427 . S
C3141 H3131 0.929 . S
C3141 C3139 1.433 . S
C3141 N3144 1.384 . S
C3142 H3133 0.929 . S
C3142 C3134 1.378 . S
C3142 C3137 1.350 . S
C3143 H3130 0.929 . S
C3143 C3135 1.433 . S
C3143 N3145 1.384 . S
N3144 C3140 1.427 . S
N3144 C3141 1.384 . S
N3145 C3137 1.427 . S
N3145 C3143 1.384 . S
H3146 C3152 0.930 . S
H3147 C3156 0.930 . S
H3148 C3161 0.929 . S
H3149 C3159 0.929 . S
H3150 C3154 0.929 . S
H3151 C3160 0.929 . S
C3152 H3146 0.930 . S
C3152 C3153 1.367 . S
C3152 C3160 1.378 . S
C3153 C3152 1.367 . S
C3153 C3161 1.433 . S
C3154 H3150 0.929 . S
C3154 C3156 1.378 . S
C3154 C3158 1.350 . S
C3155 C3158 1.463 . S
C3155 C3160 1.350 . S
C3155 N3163 1.427 . S
C3156 H3147 0.930 . S
C3156 C3154 1.378 . S
C3156 C3157 1.367 . S
C3157 C3156 1.367 . S
C3157 C3159 1.433 . S
C3158 C3154 1.350 . S
C3158 C3155 1.463 . S
C3158 N3162 1.427 . S
C3159 H3149 0.929 . S
C3159 C3157 1.433 . S
C3159 N3162 1.384 . S
C3160 H3151 0.929 . S
C3160 C3152 1.378 . S
C3160 C3155 1.350 . S
C3161 H3148 0.929 . S
C3161 C3153 1.433 . S
C3161 N3163 1.384 . S
N3162 C3158 1.427 . S
N3162 C3159 1.384 . S
N3163 C3155 1.427 . S
N3163 C3161 1.384 . S
H3164 C3170 0.930 . S
H3165 C3174 0.930 . S
H3166 C3179 0.929 . S
H3167 C3177 0.929 . S
H3168 C3172 0.929 . S
H3169 C3178 0.929 . S
C3170 H3164 0.930 . S
C3170 C3171 1.367 . S
C3170 C3178 1.378 . S
C3171 C3170 1.367 . S
C3171 C3179 1.433 . S
C3172 H3168 0.929 . S
C3172 C3174 1.378 . S
C3172 C3176 1.350 . S
C3173 C3176 1.463 . S
C3173 C3178 1.350 . S
C3173 N3181 1.427 . S
C3174 H3165 0.930 . S
C3174 C3172 1.378 . S
C3174 C3175 1.367 . S
C3175 C3174 1.367 . S
C3175 C3177 1.433 . S
C3176 C3172 1.350 . S
C3176 C3173 1.463 . S
C3176 N3180 1.427 . S
C3177 H3167 0.929 . S
C3177 C3175 1.433 . S
C3177 N3180 1.384 . S
C3178 H3169 0.929 . S
C3178 C3170 1.378 . S
C3178 C3173 1.350 . S
C3179 H3166 0.929 . S
C3179 C3171 1.433 . S
C3179 N3181 1.384 . S
N3180 C3176 1.427 . S
N3180 C3177 1.384 . S
N3181 C3173 1.427 . S
N3181 C3179 1.384 . S
H3182 C3188 0.930 . S
H3183 C3192 0.930 . S
H3184 C3197 0.929 . S
H3185 C3195 0.929 . S
H3186 C3190 0.929 . S
H3187 C3196 0.929 . S
C3188 H3182 0.930 . S
C3188 C3189 1.367 . S
C3188 C3196 1.378 . S
C3189 C3188 1.367 . S
C3189 C3197 1.433 . S
C3190 H3186 0.929 . S
C3190 C3192 1.378 . S
C3190 C3194 1.350 . S
C3191 C3194 1.463 . S
C3191 C3196 1.350 . S
C3191 N3199 1.427 . S
C3192 H3183 0.930 . S
C3192 C3190 1.378 . S
C3192 C3193 1.367 . S
C3193 C3192 1.367 . S
C3193 C3195 1.433 . S
C3194 C3190 1.350 . S
C3194 C3191 1.463 . S
C3194 N3198 1.427 . S
C3195 H3185 0.929 . S
C3195 C3193 1.433 . S
C3195 N3198 1.384 . S
C3196 H3187 0.929 . S
C3196 C3188 1.378 . S
C3196 C3191 1.350 . S
C3197 H3184 0.929 . S
C3197 C3189 1.433 . S
C3197 N3199 1.384 . S
N3198 C3194 1.427 . S
N3198 C3195 1.384 . S
N3199 C3191 1.427 . S
N3199 C3197 1.384 . S
H3200 C3206 0.930 . S
H3201 C3210 0.930 . S
H3202 C3215 0.929 . S
H3203 C3213 0.929 . S
H3204 C3208 0.929 . S
H3205 C3214 0.929 . S
C3206 H3200 0.930 . S
C3206 C3207 1.367 . S
C3206 C3214 1.378 . S
C3207 C3206 1.367 . S
C3207 C3215 1.433 . S
C3208 H3204 0.929 . S
C3208 C3210 1.378 . S
C3208 C3212 1.350 . S
C3209 C3212 1.463 . S
C3209 C3214 1.350 . S
C3209 N3217 1.427 . S
C3210 H3201 0.930 . S
C3210 C3208 1.378 . S
C3210 C3211 1.367 . S
C3211 C3210 1.367 . S
C3211 C3213 1.433 . S
C3212 C3208 1.350 . S
C3212 C3209 1.463 . S
C3212 N3216 1.427 . S
C3213 H3203 0.929 . S
C3213 C3211 1.433 . S
C3213 N3216 1.384 . S
C3214 H3205 0.929 . S
C3214 C3206 1.378 . S
C3214 C3209 1.350 . S
C3215 H3202 0.929 . S
C3215 C3207 1.433 . S
C3215 N3217 1.384 . S
N3216 C3212 1.427 . S
N3216 C3213 1.384 . S
N3217 C3209 1.427 . S
N3217 C3215 1.384 . S
H3218 C3224 0.930 . S
H3219 C3228 0.930 . S
H3220 C3233 0.929 . S
H3221 C3231 0.929 . S
H3222 C3226 0.929 . S
H3223 C3232 0.929 . S
C3224 H3218 0.930 . S
C3224 C3225 1.367 . S
C3224 C3232 1.378 . S
C3225 C3224 1.367 . S
C3225 C3233 1.433 . S
C3226 H3222 0.929 . S
C3226 C3228 1.378 . S
C3226 C3230 1.350 . S
C3227 C3230 1.463 . S
C3227 C3232 1.350 . S
C3227 N3235 1.427 . S
C3228 H3219 0.930 . S
C3228 C3226 1.378 . S
C3228 C3229 1.367 . S
C3229 C3228 1.367 . S
C3229 C3231 1.433 . S
C3230 C3226 1.350 . S
C3230 C3227 1.463 . S
C3230 N3234 1.427 . S
C3231 H3221 0.929 . S
C3231 C3229 1.433 . S
C3231 N3234 1.384 . S
C3232 H3223 0.929 . S
C3232 C3224 1.378 . S
C3232 C3227 1.350 . S
C3233 H3220 0.929 . S
C3233 C3225 1.433 . S
C3233 N3235 1.384 . S
N3234 C3230 1.427 . S
N3234 C3231 1.384 . S
N3235 C3227 1.427 . S
N3235 C3233 1.384 . S
H3236 C3242 0.930 . S
H3237 C3246 0.930 . S
H3238 C3251 0.929 . S
H3239 C3249 0.929 . S
H3240 C3244 0.929 . S
H3241 C3250 0.929 . S
C3242 H3236 0.930 . S
C3242 C3243 1.367 . S
C3242 C3250 1.378 . S
C3243 C3242 1.367 . S
C3243 C3251 1.433 . S
C3244 H3240 0.929 . S
C3244 C3246 1.378 . S
C3244 C3248 1.350 . S
C3245 C3248 1.463 . S
C3245 C3250 1.350 . S
C3245 N3253 1.427 . S
C3246 H3237 0.930 . S
C3246 C3244 1.378 . S
C3246 C3247 1.367 . S
C3247 C3246 1.367 . S
C3247 C3249 1.433 . S
C3248 C3244 1.350 . S
C3248 C3245 1.463 . S
C3248 N3252 1.427 . S
C3249 H3239 0.929 . S
C3249 C3247 1.433 . S
C3249 N3252 1.384 . S
C3250 H3241 0.929 . S
C3250 C3242 1.378 . S
C3250 C3245 1.350 . S
C3251 H3238 0.929 . S
C3251 C3243 1.433 . S
C3251 N3253 1.384 . S
N3252 C3248 1.427 . S
N3252 C3249 1.384 . S
N3253 C3245 1.427 . S
N3253 C3251 1.384 . S
H3254 C3260 0.930 . S
H3255 C3264 0.930 . S
H3256 C3269 0.929 . S
H3257 C3267 0.929 . S
H3258 C3262 0.929 . S
H3259 C3268 0.929 . S
C3260 H3254 0.930 . S
C3260 C3261 1.367 . S
C3260 C3268 1.378 . S
C3261 C3260 1.367 . S
C3261 C3269 1.433 . S
C3262 H3258 0.929 . S
C3262 C3264 1.378 . S
C3262 C3266 1.350 . S
C3263 C3266 1.463 . S
C3263 C3268 1.350 . S
C3263 N3271 1.427 . S
C3264 H3255 0.930 . S
C3264 C3262 1.378 . S
C3264 C3265 1.367 . S
C3265 C3264 1.367 . S
C3265 C3267 1.433 . S
C3266 C3262 1.350 . S
C3266 C3263 1.463 . S
C3266 N3270 1.427 . S
C3267 H3257 0.929 . S
C3267 C3265 1.433 . S
C3267 N3270 1.384 . S
C3268 H3259 0.929 . S
C3268 C3260 1.378 . S
C3268 C3263 1.350 . S
C3269 H3256 0.929 . S
C3269 C3261 1.433 . S
C3269 N3271 1.384 . S
N3270 C3266 1.427 . S
N3270 C3267 1.384 . S
N3271 C3263 1.427 . S
N3271 C3269 1.384 . S
H3272 C3278 0.930 . S
H3273 C3282 0.930 . S
H3274 C3287 0.929 . S
H3275 C3285 0.929 . S
H3276 C3280 0.929 . S
H3277 C3286 0.929 . S
C3278 H3272 0.930 . S
C3278 C3279 1.367 . S
C3278 C3286 1.378 . S
C3279 C3278 1.367 . S
C3279 C3287 1.433 . S
C3280 H3276 0.929 . S
C3280 C3282 1.378 . S
C3280 C3284 1.350 . S
C3281 C3284 1.463 . S
C3281 C3286 1.350 . S
C3281 N3289 1.427 . S
C3282 H3273 0.930 . S
C3282 C3280 1.378 . S
C3282 C3283 1.367 . S
C3283 C3282 1.367 . S
C3283 C3285 1.433 . S
C3284 C3280 1.350 . S
C3284 C3281 1.463 . S
C3284 N3288 1.427 . S
C3285 H3275 0.929 . S
C3285 C3283 1.433 . S
C3285 N3288 1.384 . S
C3286 H3277 0.929 . S
C3286 C3278 1.378 . S
C3286 C3281 1.350 . S
C3287 H3274 0.929 . S
C3287 C3279 1.433 . S
C3287 N3289 1.384 . S
N3288 C3284 1.427 . S
N3288 C3285 1.384 . S
N3289 C3281 1.427 . S
N3289 C3287 1.384 . S
H3290 C3296 0.930 . S
H3291 C3300 0.930 . S
H3292 C3305 0.929 . S
H3293 C3303 0.929 . S
H3294 C3298 0.929 . S
H3295 C3304 0.929 . S
C3296 H3290 0.930 . S
C3296 C3297 1.367 . S
C3296 C3304 1.378 . S
C3297 C3296 1.367 . S
C3297 C3305 1.433 . S
C3298 H3294 0.929 . S
C3298 C3300 1.378 . S
C3298 C3302 1.350 . S
C3299 C3302 1.463 . S
C3299 C3304 1.350 . S
C3299 N3307 1.427 . S
C3300 H3291 0.930 . S
C3300 C3298 1.378 . S
C3300 C3301 1.367 . S
C3301 C3300 1.367 . S
C3301 C3303 1.433 . S
C3302 C3298 1.350 . S
C3302 C3299 1.463 . S
C3302 N3306 1.427 . S
C3303 H3293 0.929 . S
C3303 C3301 1.433 . S
C3303 N3306 1.384 . S
C3304 H3295 0.929 . S
C3304 C3296 1.378 . S
C3304 C3299 1.350 . S
C3305 H3292 0.929 . S
C3305 C3297 1.433 . S
C3305 N3307 1.384 . S
N3306 C3302 1.427 . S
N3306 C3303 1.384 . S
N3307 C3299 1.427 . S
N3307 C3305 1.384 . S
H3308 C3314 0.930 . S
H3309 C3318 0.930 . S
H3310 C3323 0.929 . S
H3311 C3321 0.929 . S
H3312 C3316 0.929 . S
H3313 C3322 0.929 . S
C3314 H3308 0.930 . S
C3314 C3315 1.367 . S
C3314 C3322 1.378 . S
C3315 C3314 1.367 . S
C3315 C3323 1.433 . S
C3316 H3312 0.929 . S
C3316 C3318 1.378 . S
C3316 C3320 1.350 . S
C3317 C3320 1.463 . S
C3317 C3322 1.350 . S
C3317 N3325 1.427 . S
C3318 H3309 0.930 . S
C3318 C3316 1.378 . S
C3318 C3319 1.367 . S
C3319 C3318 1.367 . S
C3319 C3321 1.433 . S
C3320 C3316 1.350 . S
C3320 C3317 1.463 . S
C3320 N3324 1.427 . S
C3321 H3311 0.929 . S
C3321 C3319 1.433 . S
C3321 N3324 1.384 . S
C3322 H3313 0.929 . S
C3322 C3314 1.378 . S
C3322 C3317 1.350 . S
C3323 H3310 0.929 . S
C3323 C3315 1.433 . S
C3323 N3325 1.384 . S
N3324 C3320 1.427 . S
N3324 C3321 1.384 . S
N3325 C3317 1.427 . S
N3325 C3323 1.384 . S
H3326 C3332 0.930 . S
H3327 C3336 0.930 . S
H3328 C3341 0.929 . S
H3329 C3339 0.929 . S
H3330 C3334 0.929 . S
H3331 C3340 0.929 . S
C3332 H3326 0.930 . S
C3332 C3333 1.367 . S
C3332 C3340 1.378 . S
C3333 C3332 1.367 . S
C3333 C3341 1.433 . S
C3334 H3330 0.929 . S
C3334 C3336 1.378 . S
C3334 C3338 1.350 . S
C3335 C3338 1.463 . S
C3335 C3340 1.350 . S
C3335 N3343 1.427 . S
C3336 H3327 0.930 . S
C3336 C3334 1.378 . S
C3336 C3337 1.367 . S
C3337 C3336 1.367 . S
C3337 C3339 1.433 . S
C3338 C3334 1.350 . S
C3338 C3335 1.463 . S
C3338 N3342 1.427 . S
C3339 H3329 0.929 . S
C3339 C3337 1.433 . S
C3339 N3342 1.384 . S
C3340 H3331 0.929 . S
C3340 C3332 1.378 . S
C3340 C3335 1.350 . S
C3341 H3328 0.929 . S
C3341 C3333 1.433 . S
C3341 N3343 1.384 . S
N3342 C3338 1.427 . S
N3342 C3339 1.384 . S
N3343 C3335 1.427 . S
N3343 C3341 1.384 . S
H3344 C3350 0.930 . S
H3345 C3354 0.930 . S
H3346 C3359 0.929 . S
H3347 C3357 0.929 . S
H3348 C3352 0.929 . S
H3349 C3358 0.929 . S
C3350 H3344 0.930 . S
C3350 C3351 1.367 . S
C3350 C3358 1.378 . S
C3351 C3350 1.367 . S
C3351 C3359 1.433 . S
C3352 H3348 0.929 . S
C3352 C3354 1.378 . S
C3352 C3356 1.350 . S
C3353 C3356 1.463 . S
C3353 C3358 1.350 . S
C3353 N3361 1.427 . S
C3354 H3345 0.930 . S
C3354 C3352 1.378 . S
C3354 C3355 1.367 . S
C3355 C3354 1.367 . S
C3355 C3357 1.433 . S
C3356 C3352 1.350 . S
C3356 C3353 1.463 . S
C3356 N3360 1.427 . S
C3357 H3347 0.929 . S
C3357 C3355 1.433 . S
C3357 N3360 1.384 . S
C3358 H3349 0.929 . S
C3358 C3350 1.378 . S
C3358 C3353 1.350 . S
C3359 H3346 0.929 . S
C3359 C3351 1.433 . S
C3359 N3361 1.384 . S
N3360 C3356 1.427 . S
N3360 C3357 1.384 . S
N3361 C3353 1.427 . S
N3361 C3359 1.384 . S
H3362 C3368 0.930 . S
H3363 C3372 0.930 . S
H3364 C3377 0.929 . S
H3365 C3375 0.929 . S
H3366 C3370 0.929 . S
H3367 C3376 0.929 . S
C3368 H3362 0.930 . S
C3368 C3369 1.367 . S
C3368 C3376 1.378 . S
C3369 C3368 1.367 . S
C3369 C3377 1.433 . S
C3370 H3366 0.929 . S
C3370 C3372 1.378 . S
C3370 C3374 1.350 . S
C3371 C3374 1.463 . S
C3371 C3376 1.350 . S
C3371 N3379 1.427 . S
C3372 H3363 0.930 . S
C3372 C3370 1.378 . S
C3372 C3373 1.367 . S
C3373 C3372 1.367 . S
C3373 C3375 1.433 . S
C3374 C3370 1.350 . S
C3374 C3371 1.463 . S
C3374 N3378 1.427 . S
C3375 H3365 0.929 . S
C3375 C3373 1.433 . S
C3375 N3378 1.384 . S
C3376 H3367 0.929 . S
C3376 C3368 1.378 . S
C3376 C3371 1.350 . S
C3377 H3364 0.929 . S
C3377 C3369 1.433 . S
C3377 N3379 1.384 . S
N3378 C3374 1.427 . S
N3378 C3375 1.384 . S
N3379 C3371 1.427 . S
N3379 C3377 1.384 . S
H3380 C3386 0.930 . S
H3381 C3390 0.930 . S
H3382 C3395 0.929 . S
H3383 C3393 0.929 . S
H3384 C3388 0.929 . S
H3385 C3394 0.929 . S
C3386 H3380 0.930 . S
C3386 C3387 1.367 . S
C3386 C3394 1.378 . S
C3387 C3386 1.367 . S
C3387 C3395 1.433 . S
C3388 H3384 0.929 . S
C3388 C3390 1.378 . S
C3388 C3392 1.350 . S
C3389 C3392 1.463 . S
C3389 C3394 1.350 . S
C3389 N3397 1.427 . S
C3390 H3381 0.930 . S
C3390 C3388 1.378 . S
C3390 C3391 1.367 . S
C3391 C3390 1.367 . S
C3391 C3393 1.433 . S
C3392 C3388 1.350 . S
C3392 C3389 1.463 . S
C3392 N3396 1.427 . S
C3393 H3383 0.929 . S
C3393 C3391 1.433 . S
C3393 N3396 1.384 . S
C3394 H3385 0.929 . S
C3394 C3386 1.378 . S
C3394 C3389 1.350 . S
C3395 H3382 0.929 . S
C3395 C3387 1.433 . S
C3395 N3397 1.384 . S
N3396 C3392 1.427 . S
N3396 C3393 1.384 . S
N3397 C3389 1.427 . S
N3397 C3395 1.384 . S
H3398 C3404 0.930 . S
H3399 C3408 0.930 . S
H3400 C3413 0.929 . S
H3401 C3411 0.929 . S
H3402 C3406 0.929 . S
H3403 C3412 0.929 . S
C3404 H3398 0.930 . S
C3404 C3405 1.367 . S
C3404 C3412 1.378 . S
C3405 C3404 1.367 . S
C3405 C3413 1.433 . S
C3406 H3402 0.929 . S
C3406 C3408 1.378 . S
C3406 C3410 1.350 . S
C3407 C3410 1.463 . S
C3407 C3412 1.350 . S
C3407 N3415 1.427 . S
C3408 H3399 0.930 . S
C3408 C3406 1.378 . S
C3408 C3409 1.367 . S
C3409 C3408 1.367 . S
C3409 C3411 1.433 . S
C3410 C3406 1.350 . S
C3410 C3407 1.463 . S
C3410 N3414 1.427 . S
C3411 H3401 0.929 . S
C3411 C3409 1.433 . S
C3411 N3414 1.384 . S
C3412 H3403 0.929 . S
C3412 C3404 1.378 . S
C3412 C3407 1.350 . S
C3413 H3400 0.929 . S
C3413 C3405 1.433 . S
C3413 N3415 1.384 . S
N3414 C3410 1.427 . S
N3414 C3411 1.384 . S
N3415 C3407 1.427 . S
N3415 C3413 1.384 . S
H3416 C3422 0.930 . S
H3417 C3426 0.930 . S
H3418 C3431 0.929 . S
H3419 C3429 0.929 . S
H3420 C3424 0.929 . S
H3421 C3430 0.929 . S
C3422 H3416 0.930 . S
C3422 C3423 1.367 . S
C3422 C3430 1.378 . S
C3423 C3422 1.367 . S
C3423 C3431 1.433 . S
C3424 H3420 0.929 . S
C3424 C3426 1.378 . S
C3424 C3428 1.350 . S
C3425 C3428 1.463 . S
C3425 C3430 1.350 . S
C3425 N3433 1.427 . S
C3426 H3417 0.930 . S
C3426 C3424 1.378 . S
C3426 C3427 1.367 . S
C3427 C3426 1.367 . S
C3427 C3429 1.433 . S
C3428 C3424 1.350 . S
C3428 C3425 1.463 . S
C3428 N3432 1.427 . S
C3429 H3419 0.929 . S
C3429 C3427 1.433 . S
C3429 N3432 1.384 . S
C3430 H3421 0.929 . S
C3430 C3422 1.378 . S
C3430 C3425 1.350 . S
C3431 H3418 0.929 . S
C3431 C3423 1.433 . S
C3431 N3433 1.384 . S
N3432 C3428 1.427 . S
N3432 C3429 1.384 . S
N3433 C3425 1.427 . S
N3433 C3431 1.384 . S
H3434 C3440 0.930 . S
H3435 C3444 0.930 . S
H3436 C3449 0.929 . S
H3437 C3447 0.929 . S
H3438 C3442 0.929 . S
H3439 C3448 0.929 . S
C3440 H3434 0.930 . S
C3440 C3441 1.367 . S
C3440 C3448 1.378 . S
C3441 C3440 1.367 . S
C3441 C3449 1.433 . S
C3442 H3438 0.929 . S
C3442 C3444 1.378 . S
C3442 C3446 1.350 . S
C3443 C3446 1.463 . S
C3443 C3448 1.350 . S
C3443 N3451 1.427 . S
C3444 H3435 0.930 . S
C3444 C3442 1.378 . S
C3444 C3445 1.367 . S
C3445 C3444 1.367 . S
C3445 C3447 1.433 . S
C3446 C3442 1.350 . S
C3446 C3443 1.463 . S
C3446 N3450 1.427 . S
C3447 H3437 0.929 . S
C3447 C3445 1.433 . S
C3447 N3450 1.384 . S
C3448 H3439 0.929 . S
C3448 C3440 1.378 . S
C3448 C3443 1.350 . S
C3449 H3436 0.929 . S
C3449 C3441 1.433 . S
C3449 N3451 1.384 . S
N3450 C3446 1.427 . S
N3450 C3447 1.384 . S
N3451 C3443 1.427 . S
N3451 C3449 1.384 . S
H3452 C3458 0.930 . S
H3453 C3462 0.930 . S
H3454 C3467 0.929 . S
H3455 C3465 0.929 . S
H3456 C3460 0.929 . S
H3457 C3466 0.929 . S
C3458 H3452 0.930 . S
C3458 C3459 1.367 . S
C3458 C3466 1.378 . S
C3459 C3458 1.367 . S
C3459 C3467 1.433 . S
C3460 H3456 0.929 . S
C3460 C3462 1.378 . S
C3460 C3464 1.350 . S
C3461 C3464 1.463 . S
C3461 C3466 1.350 . S
C3461 N3469 1.427 . S
C3462 H3453 0.930 . S
C3462 C3460 1.378 . S
C3462 C3463 1.367 . S
C3463 C3462 1.367 . S
C3463 C3465 1.433 . S
C3464 C3460 1.350 . S
C3464 C3461 1.463 . S
C3464 N3468 1.427 . S
C3465 H3455 0.929 . S
C3465 C3463 1.433 . S
C3465 N3468 1.384 . S
C3466 H3457 0.929 . S
C3466 C3458 1.378 . S
C3466 C3461 1.350 . S
C3467 H3454 0.929 . S
C3467 C3459 1.433 . S
C3467 N3469 1.384 . S
N3468 C3464 1.427 . S
N3468 C3465 1.384 . S
N3469 C3461 1.427 . S
N3469 C3467 1.384 . S
H3470 C3476 0.930 . S
H3471 C3480 0.930 . S
H3472 C3485 0.929 . S
H3473 C3483 0.929 . S
H3474 C3478 0.929 . S
H3475 C3484 0.929 . S
C3476 H3470 0.930 . S
C3476 C3477 1.367 . S
C3476 C3484 1.378 . S
C3477 C3476 1.367 . S
C3477 C3485 1.433 . S
C3478 H3474 0.929 . S
C3478 C3480 1.378 . S
C3478 C3482 1.350 . S
C3479 C3482 1.463 . S
C3479 C3484 1.350 . S
C3479 N3487 1.427 . S
C3480 H3471 0.930 . S
C3480 C3478 1.378 . S
C3480 C3481 1.367 . S
C3481 C3480 1.367 . S
C3481 C3483 1.433 . S
C3482 C3478 1.350 . S
C3482 C3479 1.463 . S
C3482 N3486 1.427 . S
C3483 H3473 0.929 . S
C3483 C3481 1.433 . S
C3483 N3486 1.384 . S
C3484 H3475 0.929 . S
C3484 C3476 1.378 . S
C3484 C3479 1.350 . S
C3485 H3472 0.929 . S
C3485 C3477 1.433 . S
C3485 N3487 1.384 . S
N3486 C3482 1.427 . S
N3486 C3483 1.384 . S
N3487 C3479 1.427 . S
N3487 C3485 1.384 . S
H3488 C3494 0.930 . S
H3489 C3498 0.930 . S
H3490 C3503 0.929 . S
H3491 C3501 0.929 . S
H3492 C3496 0.929 . S
H3493 C3502 0.929 . S
C3494 H3488 0.930 . S
C3494 C3495 1.367 . S
C3494 C3502 1.378 . S
C3495 C3494 1.367 . S
C3495 C3503 1.433 . S
C3496 H3492 0.929 . S
C3496 C3498 1.378 . S
C3496 C3500 1.350 . S
C3497 C3500 1.463 . S
C3497 C3502 1.350 . S
C3497 N3505 1.427 . S
C3498 H3489 0.930 . S
C3498 C3496 1.378 . S
C3498 C3499 1.367 . S
C3499 C3498 1.367 . S
C3499 C3501 1.433 . S
C3500 C3496 1.350 . S
C3500 C3497 1.463 . S
C3500 N3504 1.427 . S
C3501 H3491 0.929 . S
C3501 C3499 1.433 . S
C3501 N3504 1.384 . S
C3502 H3493 0.929 . S
C3502 C3494 1.378 . S
C3502 C3497 1.350 . S
C3503 H3490 0.929 . S
C3503 C3495 1.433 . S
C3503 N3505 1.384 . S
N3504 C3500 1.427 . S
N3504 C3501 1.384 . S
N3505 C3497 1.427 . S
N3505 C3503 1.384 . S
H3506 C3512 0.930 . S
H3507 C3516 0.930 . S
H3508 C3521 0.929 . S
H3509 C3519 0.929 . S
H3510 C3514 0.929 . S
H3511 C3520 0.929 . S
C3512 H3506 0.930 . S
C3512 C3513 1.367 . S
C3512 C3520 1.378 . S
C3513 C3512 1.367 . S
C3513 C3521 1.433 . S
C3514 H3510 0.929 . S
C3514 C3516 1.378 . S
C3514 C3518 1.350 . S
C3515 C3518 1.463 . S
C3515 C3520 1.350 . S
C3515 N3523 1.427 . S
C3516 H3507 0.930 . S
C3516 C3514 1.378 . S
C3516 C3517 1.367 . S
C3517 C3516 1.367 . S
C3517 C3519 1.433 . S
C3518 C3514 1.350 . S
C3518 C3515 1.463 . S
C3518 N3522 1.427 . S
C3519 H3509 0.929 . S
C3519 C3517 1.433 . S
C3519 N3522 1.384 . S
C3520 H3511 0.929 . S
C3520 C3512 1.378 . S
C3520 C3515 1.350 . S
C3521 H3508 0.929 . S
C3521 C3513 1.433 . S
C3521 N3523 1.384 . S
N3522 C3518 1.427 . S
N3522 C3519 1.384 . S
N3523 C3515 1.427 . S
N3523 C3521 1.384 . S
H3524 C3530 0.930 . S
H3525 C3534 0.930 . S
H3526 C3539 0.929 . S
H3527 C3537 0.929 . S
H3528 C3532 0.929 . S
H3529 C3538 0.929 . S
C3530 H3524 0.930 . S
C3530 C3531 1.367 . S
C3530 C3538 1.378 . S
C3531 C3530 1.367 . S
C3531 C3539 1.433 . S
C3532 H3528 0.929 . S
C3532 C3534 1.378 . S
C3532 C3536 1.350 . S
C3533 C3536 1.463 . S
C3533 C3538 1.350 . S
C3533 N3541 1.427 . S
C3534 H3525 0.930 . S
C3534 C3532 1.378 . S
C3534 C3535 1.367 . S
C3535 C3534 1.367 . S
C3535 C3537 1.433 . S
C3536 C3532 1.350 . S
C3536 C3533 1.463 . S
C3536 N3540 1.427 . S
C3537 H3527 0.929 . S
C3537 C3535 1.433 . S
C3537 N3540 1.384 . S
C3538 H3529 0.929 . S
C3538 C3530 1.378 . S
C3538 C3533 1.350 . S
C3539 H3526 0.929 . S
C3539 C3531 1.433 . S
C3539 N3541 1.384 . S
N3540 C3536 1.427 . S
N3540 C3537 1.384 . S
N3541 C3533 1.427 . S
N3541 C3539 1.384 . S
H3542 C3548 0.930 . S
H3543 C3552 0.930 . S
H3544 C3557 0.929 . S
H3545 C3555 0.929 . S
H3546 C3550 0.929 . S
H3547 C3556 0.929 . S
C3548 H3542 0.930 . S
C3548 C3549 1.367 . S
C3548 C3556 1.378 . S
C3549 C3548 1.367 . S
C3549 C3557 1.433 . S
C3550 H3546 0.929 . S
C3550 C3552 1.378 . S
C3550 C3554 1.350 . S
C3551 C3554 1.463 . S
C3551 C3556 1.350 . S
C3551 N3559 1.427 . S
C3552 H3543 0.930 . S
C3552 C3550 1.378 . S
C3552 C3553 1.367 . S
C3553 C3552 1.367 . S
C3553 C3555 1.433 . S
C3554 C3550 1.350 . S
C3554 C3551 1.463 . S
C3554 N3558 1.427 . S
C3555 H3545 0.929 . S
C3555 C3553 1.433 . S
C3555 N3558 1.384 . S
C3556 H3547 0.929 . S
C3556 C3548 1.378 . S
C3556 C3551 1.350 . S
C3557 H3544 0.929 . S
C3557 C3549 1.433 . S
C3557 N3559 1.384 . S
N3558 C3554 1.427 . S
N3558 C3555 1.384 . S
N3559 C3551 1.427 . S
N3559 C3557 1.384 . S
H3560 C3566 0.930 . S
H3561 C3570 0.930 . S
H3562 C3575 0.929 . S
H3563 C3573 0.929 . S
H3564 C3568 0.929 . S
H3565 C3574 0.929 . S
C3566 H3560 0.930 . S
C3566 C3567 1.367 . S
C3566 C3574 1.378 . S
C3567 C3566 1.367 . S
C3567 C3575 1.433 . S
C3568 H3564 0.929 . S
C3568 C3570 1.378 . S
C3568 C3572 1.350 . S
C3569 C3572 1.463 . S
C3569 C3574 1.350 . S
C3569 N3577 1.427 . S
C3570 H3561 0.930 . S
C3570 C3568 1.378 . S
C3570 C3571 1.367 . S
C3571 C3570 1.367 . S
C3571 C3573 1.433 . S
C3572 C3568 1.350 . S
C3572 C3569 1.463 . S
C3572 N3576 1.427 . S
C3573 H3563 0.929 . S
C3573 C3571 1.433 . S
C3573 N3576 1.384 . S
C3574 H3565 0.929 . S
C3574 C3566 1.378 . S
C3574 C3569 1.350 . S
C3575 H3562 0.929 . S
C3575 C3567 1.433 . S
C3575 N3577 1.384 . S
N3576 C3572 1.427 . S
N3576 C3573 1.384 . S
N3577 C3569 1.427 . S
N3577 C3575 1.384 . S
H3578 C3584 0.930 . S
H3579 C3588 0.930 . S
H3580 C3593 0.929 . S
H3581 C3591 0.929 . S
H3582 C3586 0.929 . S
H3583 C3592 0.929 . S
C3584 H3578 0.930 . S
C3584 C3585 1.367 . S
C3584 C3592 1.378 . S
C3585 C3584 1.367 . S
C3585 C3593 1.433 . S
C3586 H3582 0.929 . S
C3586 C3588 1.378 . S
C3586 C3590 1.350 . S
C3587 C3590 1.463 . S
C3587 C3592 1.350 . S
C3587 N3595 1.427 . S
C3588 H3579 0.930 . S
C3588 C3586 1.378 . S
C3588 C3589 1.367 . S
C3589 C3588 1.367 . S
C3589 C3591 1.433 . S
C3590 C3586 1.350 . S
C3590 C3587 1.463 . S
C3590 N3594 1.427 . S
C3591 H3581 0.929 . S
C3591 C3589 1.433 . S
C3591 N3594 1.384 . S
C3592 H3583 0.929 . S
C3592 C3584 1.378 . S
C3592 C3587 1.350 . S
C3593 H3580 0.929 . S
C3593 C3585 1.433 . S
C3593 N3595 1.384 . S
N3594 C3590 1.427 . S
N3594 C3591 1.384 . S
N3595 C3587 1.427 . S
N3595 C3593 1.384 . S
H3596 C3602 0.930 . S
H3597 C3606 0.930 . S
H3598 C3611 0.929 . S
H3599 C3609 0.929 . S
H3600 C3604 0.929 . S
H3601 C3610 0.929 . S
C3602 H3596 0.930 . S
C3602 C3603 1.367 . S
C3602 C3610 1.378 . S
C3603 C3602 1.367 . S
C3603 C3611 1.433 . S
C3604 H3600 0.929 . S
C3604 C3606 1.378 . S
C3604 C3608 1.350 . S
C3605 C3608 1.463 . S
C3605 C3610 1.350 . S
C3605 N3613 1.427 . S
C3606 H3597 0.930 . S
C3606 C3604 1.378 . S
C3606 C3607 1.367 . S
C3607 C3606 1.367 . S
C3607 C3609 1.433 . S
C3608 C3604 1.350 . S
C3608 C3605 1.463 . S
C3608 N3612 1.427 . S
C3609 H3599 0.929 . S
C3609 C3607 1.433 . S
C3609 N3612 1.384 . S
C3610 H3601 0.929 . S
C3610 C3602 1.378 . S
C3610 C3605 1.350 . S
C3611 H3598 0.929 . S
C3611 C3603 1.433 . S
C3611 N3613 1.384 . S
N3612 C3608 1.427 . S
N3612 C3609 1.384 . S
N3613 C3605 1.427 . S
N3613 C3611 1.384 . S
H3614 C3620 0.930 . S
H3615 C3624 0.930 . S
H3616 C3629 0.929 . S
H3617 C3627 0.929 . S
H3618 C3622 0.929 . S
H3619 C3628 0.929 . S
C3620 H3614 0.930 . S
C3620 C3621 1.367 . S
C3620 C3628 1.378 . S
C3621 C3620 1.367 . S
C3621 C3629 1.433 . S
C3622 H3618 0.929 . S
C3622 C3624 1.378 . S
C3622 C3626 1.350 . S
C3623 C3626 1.463 . S
C3623 C3628 1.350 . S
C3623 N3631 1.427 . S
C3624 H3615 0.930 . S
C3624 C3622 1.378 . S
C3624 C3625 1.367 . S
C3625 C3624 1.367 . S
C3625 C3627 1.433 . S
C3626 C3622 1.350 . S
C3626 C3623 1.463 . S
C3626 N3630 1.427 . S
C3627 H3617 0.929 . S
C3627 C3625 1.433 . S
C3627 N3630 1.384 . S
C3628 H3619 0.929 . S
C3628 C3620 1.378 . S
C3628 C3623 1.350 . S
C3629 H3616 0.929 . S
C3629 C3621 1.433 . S
C3629 N3631 1.384 . S
N3630 C3626 1.427 . S
N3630 C3627 1.384 . S
N3631 C3623 1.427 . S
N3631 C3629 1.384 . S
H3632 C3638 0.930 . S
H3633 C3642 0.930 . S
H3634 C3647 0.929 . S
H3635 C3645 0.929 . S
H3636 C3640 0.929 . S
H3637 C3646 0.929 . S
C3638 H3632 0.930 . S
C3638 C3639 1.367 . S
C3638 C3646 1.378 . S
C3639 C3638 1.367 . S
C3639 C3647 1.433 . S
C3640 H3636 0.929 . S
C3640 C3642 1.378 . S
C3640 C3644 1.350 . S
C3641 C3644 1.463 . S
C3641 C3646 1.350 . S
C3641 N3649 1.427 . S
C3642 H3633 0.930 . S
C3642 C3640 1.378 . S
C3642 C3643 1.367 . S
C3643 C3642 1.367 . S
C3643 C3645 1.433 . S
C3644 C3640 1.350 . S
C3644 C3641 1.463 . S
C3644 N3648 1.427 . S
C3645 H3635 0.929 . S
C3645 C3643 1.433 . S
C3645 N3648 1.384 . S
C3646 H3637 0.929 . S
C3646 C3638 1.378 . S
C3646 C3641 1.350 . S
C3647 H3634 0.929 . S
C3647 C3639 1.433 . S
C3647 N3649 1.384 . S
N3648 C3644 1.427 . S
N3648 C3645 1.384 . S
N3649 C3641 1.427 . S
N3649 C3647 1.384 . S
H3650 C3656 0.930 . S
H3651 C3660 0.930 . S
H3652 C3665 0.929 . S
H3653 C3663 0.929 . S
H3654 C3658 0.929 . S
H3655 C3664 0.929 . S
C3656 H3650 0.930 . S
C3656 C3657 1.367 . S
C3656 C3664 1.378 . S
C3657 C3656 1.367 . S
C3657 C3665 1.433 . S
C3658 H3654 0.929 . S
C3658 C3660 1.378 . S
C3658 C3662 1.350 . S
C3659 C3662 1.463 . S
C3659 C3664 1.350 . S
C3659 N3667 1.427 . S
C3660 H3651 0.930 . S
C3660 C3658 1.378 . S
C3660 C3661 1.367 . S
C3661 C3660 1.367 . S
C3661 C3663 1.433 . S
C3662 C3658 1.350 . S
C3662 C3659 1.463 . S
C3662 N3666 1.427 . S
C3663 H3653 0.929 . S
C3663 C3661 1.433 . S
C3663 N3666 1.384 . S
C3664 H3655 0.929 . S
C3664 C3656 1.378 . S
C3664 C3659 1.350 . S
C3665 H3652 0.929 . S
C3665 C3657 1.433 . S
C3665 N3667 1.384 . S
N3666 C3662 1.427 . S
N3666 C3663 1.384 . S
N3667 C3659 1.427 . S
N3667 C3665 1.384 . S
H3668 C3674 0.930 . S
H3669 C3678 0.930 . S
H3670 C3683 0.929 . S
H3671 C3681 0.929 . S
H3672 C3676 0.929 . S
H3673 C3682 0.929 . S
C3674 H3668 0.930 . S
C3674 C3675 1.367 . S
C3674 C3682 1.378 . S
C3675 C3674 1.367 . S
C3675 C3683 1.433 . S
C3676 H3672 0.929 . S
C3676 C3678 1.378 . S
C3676 C3680 1.350 . S
C3677 C3680 1.463 . S
C3677 C3682 1.350 . S
C3677 N3685 1.427 . S
C3678 H3669 0.930 . S
C3678 C3676 1.378 . S
C3678 C3679 1.367 . S
C3679 C3678 1.367 . S
C3679 C3681 1.433 . S
C3680 C3676 1.350 . S
C3680 C3677 1.463 . S
C3680 N3684 1.427 . S
C3681 H3671 0.929 . S
C3681 C3679 1.433 . S
C3681 N3684 1.384 . S
C3682 H3673 0.929 . S
C3682 C3674 1.378 . S
C3682 C3677 1.350 . S
C3683 H3670 0.929 . S
C3683 C3675 1.433 . S
C3683 N3685 1.384 . S
N3684 C3680 1.427 . S
N3684 C3681 1.384 . S
N3685 C3677 1.427 . S
N3685 C3683 1.384 . S
H3686 C3692 0.930 . S
H3687 C3696 0.930 . S
H3688 C3701 0.929 . S
H3689 C3699 0.929 . S
H3690 C3694 0.929 . S
H3691 C3700 0.929 . S
C3692 H3686 0.930 . S
C3692 C3693 1.367 . S
C3692 C3700 1.378 . S
C3693 C3692 1.367 . S
C3693 C3701 1.433 . S
C3694 H3690 0.929 . S
C3694 C3696 1.378 . S
C3694 C3698 1.350 . S
C3695 C3698 1.463 . S
C3695 C3700 1.350 . S
C3695 N3703 1.427 . S
C3696 H3687 0.930 . S
C3696 C3694 1.378 . S
C3696 C3697 1.367 . S
C3697 C3696 1.367 . S
C3697 C3699 1.433 . S
C3698 C3694 1.350 . S
C3698 C3695 1.463 . S
C3698 N3702 1.427 . S
C3699 H3689 0.929 . S
C3699 C3697 1.433 . S
C3699 N3702 1.384 . S
C3700 H3691 0.929 . S
C3700 C3692 1.378 . S
C3700 C3695 1.350 . S
C3701 H3688 0.929 . S
C3701 C3693 1.433 . S
C3701 N3703 1.384 . S
N3702 C3698 1.427 . S
N3702 C3699 1.384 . S
N3703 C3695 1.427 . S
N3703 C3701 1.384 . S
H3704 C3710 0.930 . S
H3705 C3714 0.930 . S
H3706 C3719 0.929 . S
H3707 C3717 0.929 . S
H3708 C3712 0.929 . S
H3709 C3718 0.929 . S
C3710 H3704 0.930 . S
C3710 C3711 1.367 . S
C3710 C3718 1.378 . S
C3711 C3710 1.367 . S
C3711 C3719 1.433 . S
C3712 H3708 0.929 . S
C3712 C3714 1.378 . S
C3712 C3716 1.350 . S
C3713 C3716 1.463 . S
C3713 C3718 1.350 . S
C3713 N3721 1.427 . S
C3714 H3705 0.930 . S
C3714 C3712 1.378 . S
C3714 C3715 1.367 . S
C3715 C3714 1.367 . S
C3715 C3717 1.433 . S
C3716 C3712 1.350 . S
C3716 C3713 1.463 . S
C3716 N3720 1.427 . S
C3717 H3707 0.929 . S
C3717 C3715 1.433 . S
C3717 N3720 1.384 . S
C3718 H3709 0.929 . S
C3718 C3710 1.378 . S
C3718 C3713 1.350 . S
C3719 H3706 0.929 . S
C3719 C3711 1.433 . S
C3719 N3721 1.384 . S
N3720 C3716 1.427 . S
N3720 C3717 1.384 . S
N3721 C3713 1.427 . S
N3721 C3719 1.384 . S
H3722 C3728 0.930 . S
H3723 C3732 0.930 . S
H3724 C3737 0.929 . S
H3725 C3735 0.929 . S
H3726 C3730 0.929 . S
H3727 C3736 0.929 . S
C3728 H3722 0.930 . S
C3728 C3729 1.367 . S
C3728 C3736 1.378 . S
C3729 C3728 1.367 . S
C3729 C3737 1.433 . S
C3730 H3726 0.929 . S
C3730 C3732 1.378 . S
C3730 C3734 1.350 . S
C3731 C3734 1.463 . S
C3731 C3736 1.350 . S
C3731 N3739 1.427 . S
C3732 H3723 0.930 . S
C3732 C3730 1.378 . S
C3732 C3733 1.367 . S
C3733 C3732 1.367 . S
C3733 C3735 1.433 . S
C3734 C3730 1.350 . S
C3734 C3731 1.463 . S
C3734 N3738 1.427 . S
C3735 H3725 0.929 . S
C3735 C3733 1.433 . S
C3735 N3738 1.384 . S
C3736 H3727 0.929 . S
C3736 C3728 1.378 . S
C3736 C3731 1.350 . S
C3737 H3724 0.929 . S
C3737 C3729 1.433 . S
C3737 N3739 1.384 . S
N3738 C3734 1.427 . S
N3738 C3735 1.384 . S
N3739 C3731 1.427 . S
N3739 C3737 1.384 . S
H3740 C3746 0.930 . S
H3741 C3750 0.930 . S
H3742 C3755 0.929 . S
H3743 C3753 0.929 . S
H3744 C3748 0.929 . S
H3745 C3754 0.929 . S
C3746 H3740 0.930 . S
C3746 C3747 1.367 . S
C3746 C3754 1.378 . S
C3747 C3746 1.367 . S
C3747 C3755 1.433 . S
C3748 H3744 0.929 . S
C3748 C3750 1.378 . S
C3748 C3752 1.350 . S
C3749 C3752 1.463 . S
C3749 C3754 1.350 . S
C3749 N3757 1.427 . S
C3750 H3741 0.930 . S
C3750 C3748 1.378 . S
C3750 C3751 1.367 . S
C3751 C3750 1.367 . S
C3751 C3753 1.433 . S
C3752 C3748 1.350 . S
C3752 C3749 1.463 . S
C3752 N3756 1.427 . S
C3753 H3743 0.929 . S
C3753 C3751 1.433 . S
C3753 N3756 1.384 . S
C3754 H3745 0.929 . S
C3754 C3746 1.378 . S
C3754 C3749 1.350 . S
C3755 H3742 0.929 . S
C3755 C3747 1.433 . S
C3755 N3757 1.384 . S
N3756 C3752 1.427 . S
N3756 C3753 1.384 . S
N3757 C3749 1.427 . S
N3757 C3755 1.384 . S
H3758 C3764 0.930 . S
H3759 C3768 0.930 . S
H3760 C3773 0.929 . S
H3761 C3771 0.929 . S
H3762 C3766 0.929 . S
H3763 C3772 0.929 . S
C3764 H3758 0.930 . S
C3764 C3765 1.367 . S
C3764 C3772 1.378 . S
C3765 C3764 1.367 . S
C3765 C3773 1.433 . S
C3766 H3762 0.929 . S
C3766 C3768 1.378 . S
C3766 C3770 1.350 . S
C3767 C3770 1.463 . S
C3767 C3772 1.350 . S
C3767 N3775 1.427 . S
C3768 H3759 0.930 . S
C3768 C3766 1.378 . S
C3768 C3769 1.367 . S
C3769 C3768 1.367 . S
C3769 C3771 1.433 . S
C3770 C3766 1.350 . S
C3770 C3767 1.463 . S
C3770 N3774 1.427 . S
C3771 H3761 0.929 . S
C3771 C3769 1.433 . S
C3771 N3774 1.384 . S
C3772 H3763 0.929 . S
C3772 C3764 1.378 . S
C3772 C3767 1.350 . S
C3773 H3760 0.929 . S
C3773 C3765 1.433 . S
C3773 N3775 1.384 . S
N3774 C3770 1.427 . S
N3774 C3771 1.384 . S
N3775 C3767 1.427 . S
N3775 C3773 1.384 . S
H3776 C3782 0.930 . S
H3777 C3786 0.930 . S
H3778 C3791 0.929 . S
H3779 C3789 0.929 . S
H3780 C3784 0.929 . S
H3781 C3790 0.929 . S
C3782 H3776 0.930 . S
C3782 C3783 1.367 . S
C3782 C3790 1.378 . S
C3783 C3782 1.367 . S
C3783 C3791 1.433 . S
C3784 H3780 0.929 . S
C3784 C3786 1.378 . S
C3784 C3788 1.350 . S
C3785 C3788 1.463 . S
C3785 C3790 1.350 . S
C3785 N3793 1.427 . S
C3786 H3777 0.930 . S
C3786 C3784 1.378 . S
C3786 C3787 1.367 . S
C3787 C3786 1.367 . S
C3787 C3789 1.433 . S
C3788 C3784 1.350 . S
C3788 C3785 1.463 . S
C3788 N3792 1.427 . S
C3789 H3779 0.929 . S
C3789 C3787 1.433 . S
C3789 N3792 1.384 . S
C3790 H3781 0.929 . S
C3790 C3782 1.378 . S
C3790 C3785 1.350 . S
C3791 H3778 0.929 . S
C3791 C3783 1.433 . S
C3791 N3793 1.384 . S
N3792 C3788 1.427 . S
N3792 C3789 1.384 . S
N3793 C3785 1.427 . S
N3793 C3791 1.384 . S
H3794 C3800 0.930 . S
H3795 C3804 0.930 . S
H3796 C3809 0.929 . S
H3797 C3807 0.929 . S
H3798 C3802 0.929 . S
H3799 C3808 0.929 . S
C3800 H3794 0.930 . S
C3800 C3801 1.367 . S
C3800 C3808 1.378 . S
C3801 C3800 1.367 . S
C3801 C3809 1.433 . S
C3802 H3798 0.929 . S
C3802 C3804 1.378 . S
C3802 C3806 1.350 . S
C3803 C3806 1.463 . S
C3803 C3808 1.350 . S
C3803 N3811 1.427 . S
C3804 H3795 0.930 . S
C3804 C3802 1.378 . S
C3804 C3805 1.367 . S
C3805 C3804 1.367 . S
C3805 C3807 1.433 . S
C3806 C3802 1.350 . S
C3806 C3803 1.463 . S
C3806 N3810 1.427 . S
C3807 H3797 0.929 . S
C3807 C3805 1.433 . S
C3807 N3810 1.384 . S
C3808 H3799 0.929 . S
C3808 C3800 1.378 . S
C3808 C3803 1.350 . S
C3809 H3796 0.929 . S
C3809 C3801 1.433 . S
C3809 N3811 1.384 . S
N3810 C3806 1.427 . S
N3810 C3807 1.384 . S
N3811 C3803 1.427 . S
N3811 C3809 1.384 . S
H3812 C3818 0.930 . S
H3813 C3822 0.930 . S
H3814 C3827 0.929 . S
H3815 C3825 0.929 . S
H3816 C3820 0.929 . S
H3817 C3826 0.929 . S
C3818 H3812 0.930 . S
C3818 C3819 1.367 . S
C3818 C3826 1.378 . S
C3819 C3818 1.367 . S
C3819 C3827 1.433 . S
C3820 H3816 0.929 . S
C3820 C3822 1.378 . S
C3820 C3824 1.350 . S
C3821 C3824 1.463 . S
C3821 C3826 1.350 . S
C3821 N3829 1.427 . S
C3822 H3813 0.930 . S
C3822 C3820 1.378 . S
C3822 C3823 1.367 . S
C3823 C3822 1.367 . S
C3823 C3825 1.433 . S
C3824 C3820 1.350 . S
C3824 C3821 1.463 . S
C3824 N3828 1.427 . S
C3825 H3815 0.929 . S
C3825 C3823 1.433 . S
C3825 N3828 1.384 . S
C3826 H3817 0.929 . S
C3826 C3818 1.378 . S
C3826 C3821 1.350 . S
C3827 H3814 0.929 . S
C3827 C3819 1.433 . S
C3827 N3829 1.384 . S
N3828 C3824 1.427 . S
N3828 C3825 1.384 . S
N3829 C3821 1.427 . S
N3829 C3827 1.384 . S
H3830 C3836 0.930 . S
H3831 C3840 0.930 . S
H3832 C3845 0.929 . S
H3833 C3843 0.929 . S
H3834 C3838 0.929 . S
H3835 C3844 0.929 . S
C3836 H3830 0.930 . S
C3836 C3837 1.367 . S
C3836 C3844 1.378 . S
C3837 C3836 1.367 . S
C3837 C3845 1.433 . S
C3838 H3834 0.929 . S
C3838 C3840 1.378 . S
C3838 C3842 1.350 . S
C3839 C3842 1.463 . S
C3839 C3844 1.350 . S
C3839 N3847 1.427 . S
C3840 H3831 0.930 . S
C3840 C3838 1.378 . S
C3840 C3841 1.367 . S
C3841 C3840 1.367 . S
C3841 C3843 1.433 . S
C3842 C3838 1.350 . S
C3842 C3839 1.463 . S
C3842 N3846 1.427 . S
C3843 H3833 0.929 . S
C3843 C3841 1.433 . S
C3843 N3846 1.384 . S
C3844 H3835 0.929 . S
C3844 C3836 1.378 . S
C3844 C3839 1.350 . S
C3845 H3832 0.929 . S
C3845 C3837 1.433 . S
C3845 N3847 1.384 . S
N3846 C3842 1.427 . S
N3846 C3843 1.384 . S
N3847 C3839 1.427 . S
N3847 C3845 1.384 . S
H3848 C3854 0.930 . S
H3849 C3858 0.930 . S
H3850 C3863 0.929 . S
H3851 C3861 0.929 . S
H3852 C3856 0.929 . S
H3853 C3862 0.929 . S
C3854 H3848 0.930 . S
C3854 C3855 1.367 . S
C3854 C3862 1.378 . S
C3855 C3854 1.367 . S
C3855 C3863 1.433 . S
C3856 H3852 0.929 . S
C3856 C3858 1.378 . S
C3856 C3860 1.350 . S
C3857 C3860 1.463 . S
C3857 C3862 1.350 . S
C3857 N3865 1.427 . S
C3858 H3849 0.930 . S
C3858 C3856 1.378 . S
C3858 C3859 1.367 . S
C3859 C3858 1.367 . S
C3859 C3861 1.433 . S
C3860 C3856 1.350 . S
C3860 C3857 1.463 . S
C3860 N3864 1.427 . S
C3861 H3851 0.929 . S
C3861 C3859 1.433 . S
C3861 N3864 1.384 . S
C3862 H3853 0.929 . S
C3862 C3854 1.378 . S
C3862 C3857 1.350 . S
C3863 H3850 0.929 . S
C3863 C3855 1.433 . S
C3863 N3865 1.384 . S
N3864 C3860 1.427 . S
N3864 C3861 1.384 . S
N3865 C3857 1.427 . S
N3865 C3863 1.384 . S
H3866 C3872 0.930 . S
H3867 C3876 0.930 . S
H3868 C3881 0.929 . S
H3869 C3879 0.929 . S
H3870 C3874 0.929 . S
H3871 C3880 0.929 . S
C3872 H3866 0.930 . S
C3872 C3873 1.367 . S
C3872 C3880 1.378 . S
C3873 C3872 1.367 . S
C3873 C3881 1.433 . S
C3874 H3870 0.929 . S
C3874 C3876 1.378 . S
C3874 C3878 1.350 . S
C3875 C3878 1.463 . S
C3875 C3880 1.350 . S
C3875 N3883 1.427 . S
C3876 H3867 0.930 . S
C3876 C3874 1.378 . S
C3876 C3877 1.367 . S
C3877 C3876 1.367 . S
C3877 C3879 1.433 . S
C3878 C3874 1.350 . S
C3878 C3875 1.463 . S
C3878 N3882 1.427 . S
C3879 H3869 0.929 . S
C3879 C3877 1.433 . S
C3879 N3882 1.384 . S
C3880 H3871 0.929 . S
C3880 C3872 1.378 . S
C3880 C3875 1.350 . S
C3881 H3868 0.929 . S
C3881 C3873 1.433 . S
C3881 N3883 1.384 . S
N3882 C3878 1.427 . S
N3882 C3879 1.384 . S
N3883 C3875 1.427 . S
N3883 C3881 1.384 . S
H3884 C3890 0.930 . S
H3885 C3894 0.930 . S
H3886 C3899 0.929 . S
H3887 C3897 0.929 . S
H3888 C3892 0.929 . S
H3889 C3898 0.929 . S
C3890 H3884 0.930 . S
C3890 C3891 1.367 . S
C3890 C3898 1.378 . S
C3891 C3890 1.367 . S
C3891 C3899 1.433 . S
C3892 H3888 0.929 . S
C3892 C3894 1.378 . S
C3892 C3896 1.350 . S
C3893 C3896 1.463 . S
C3893 C3898 1.350 . S
C3893 N3901 1.427 . S
C3894 H3885 0.930 . S
C3894 C3892 1.378 . S
C3894 C3895 1.367 . S
C3895 C3894 1.367 . S
C3895 C3897 1.433 . S
C3896 C3892 1.350 . S
C3896 C3893 1.463 . S
C3896 N3900 1.427 . S
C3897 H3887 0.929 . S
C3897 C3895 1.433 . S
C3897 N3900 1.384 . S
C3898 H3889 0.929 . S
C3898 C3890 1.378 . S
C3898 C3893 1.350 . S
C3899 H3886 0.929 . S
C3899 C3891 1.433 . S
C3899 N3901 1.384 . S
N3900 C3896 1.427 . S
N3900 C3897 1.384 . S
N3901 C3893 1.427 . S
N3901 C3899 1.384 . S
H3902 C3908 0.930 . S
H3903 C3912 0.930 . S
H3904 C3917 0.929 . S
H3905 C3915 0.929 . S
H3906 C3910 0.929 . S
H3907 C3916 0.929 . S
C3908 H3902 0.930 . S
C3908 C3909 1.367 . S
C3908 C3916 1.378 . S
C3909 C3908 1.367 . S
C3909 C3917 1.433 . S
C3910 H3906 0.929 . S
C3910 C3912 1.378 . S
C3910 C3914 1.350 . S
C3911 C3914 1.463 . S
C3911 C3916 1.350 . S
C3911 N3919 1.427 . S
C3912 H3903 0.930 . S
C3912 C3910 1.378 . S
C3912 C3913 1.367 . S
C3913 C3912 1.367 . S
C3913 C3915 1.433 . S
C3914 C3910 1.350 . S
C3914 C3911 1.463 . S
C3914 N3918 1.427 . S
C3915 H3905 0.929 . S
C3915 C3913 1.433 . S
C3915 N3918 1.384 . S
C3916 H3907 0.929 . S
C3916 C3908 1.378 . S
C3916 C3911 1.350 . S
C3917 H3904 0.929 . S
C3917 C3909 1.433 . S
C3917 N3919 1.384 . S
N3918 C3914 1.427 . S
N3918 C3915 1.384 . S
N3919 C3911 1.427 . S
N3919 C3917 1.384 . S
H3920 C3926 0.930 . S
H3921 C3930 0.930 . S
H3922 C3935 0.929 . S
H3923 C3933 0.929 . S
H3924 C3928 0.929 . S
H3925 C3934 0.929 . S
C3926 H3920 0.930 . S
C3926 C3927 1.367 . S
C3926 C3934 1.378 . S
C3927 C3926 1.367 . S
C3927 C3935 1.433 . S
C3928 H3924 0.929 . S
C3928 C3930 1.378 . S
C3928 C3932 1.350 . S
C3929 C3932 1.463 . S
C3929 C3934 1.350 . S
C3929 N3937 1.427 . S
C3930 H3921 0.930 . S
C3930 C3928 1.378 . S
C3930 C3931 1.367 . S
C3931 C3930 1.367 . S
C3931 C3933 1.433 . S
C3932 C3928 1.350 . S
C3932 C3929 1.463 . S
C3932 N3936 1.427 . S
C3933 H3923 0.929 . S
C3933 C3931 1.433 . S
C3933 N3936 1.384 . S
C3934 H3925 0.929 . S
C3934 C3926 1.378 . S
C3934 C3929 1.350 . S
C3935 H3922 0.929 . S
C3935 C3927 1.433 . S
C3935 N3937 1.384 . S
N3936 C3932 1.427 . S
N3936 C3933 1.384 . S
N3937 C3929 1.427 . S
N3937 C3935 1.384 . S
H3938 C3944 0.930 . S
H3939 C3948 0.930 . S
H3940 C3953 0.929 . S
H3941 C3951 0.929 . S
H3942 C3946 0.929 . S
H3943 C3952 0.929 . S
C3944 H3938 0.930 . S
C3944 C3945 1.367 . S
C3944 C3952 1.378 . S
C3945 C3944 1.367 . S
C3945 C3953 1.433 . S
C3946 H3942 0.929 . S
C3946 C3948 1.378 . S
C3946 C3950 1.350 . S
C3947 C3950 1.463 . S
C3947 C3952 1.350 . S
C3947 N3955 1.427 . S
C3948 H3939 0.930 . S
C3948 C3946 1.378 . S
C3948 C3949 1.367 . S
C3949 C3948 1.367 . S
C3949 C3951 1.433 . S
C3950 C3946 1.350 . S
C3950 C3947 1.463 . S
C3950 N3954 1.427 . S
C3951 H3941 0.929 . S
C3951 C3949 1.433 . S
C3951 N3954 1.384 . S
C3952 H3943 0.929 . S
C3952 C3944 1.378 . S
C3952 C3947 1.350 . S
C3953 H3940 0.929 . S
C3953 C3945 1.433 . S
C3953 N3955 1.384 . S
N3954 C3950 1.427 . S
N3954 C3951 1.384 . S
N3955 C3947 1.427 . S
N3955 C3953 1.384 . S
H3956 C3962 0.930 . S
H3957 C3966 0.930 . S
H3958 C3971 0.929 . S
H3959 C3969 0.929 . S
H3960 C3964 0.929 . S
H3961 C3970 0.929 . S
C3962 H3956 0.930 . S
C3962 C3963 1.367 . S
C3962 C3970 1.378 . S
C3963 C3962 1.367 . S
C3963 C3971 1.433 . S
C3964 H3960 0.929 . S
C3964 C3966 1.378 . S
C3964 C3968 1.350 . S
C3965 C3968 1.463 . S
C3965 C3970 1.350 . S
C3965 N3973 1.427 . S
C3966 H3957 0.930 . S
C3966 C3964 1.378 . S
C3966 C3967 1.367 . S
C3967 C3966 1.367 . S
C3967 C3969 1.433 . S
C3968 C3964 1.350 . S
C3968 C3965 1.463 . S
C3968 N3972 1.427 . S
C3969 H3959 0.929 . S
C3969 C3967 1.433 . S
C3969 N3972 1.384 . S
C3970 H3961 0.929 . S
C3970 C3962 1.378 . S
C3970 C3965 1.350 . S
C3971 H3958 0.929 . S
C3971 C3963 1.433 . S
C3971 N3973 1.384 . S
N3972 C3968 1.427 . S
N3972 C3969 1.384 . S
N3973 C3965 1.427 . S
N3973 C3971 1.384 . S
H3974 C3980 0.930 . S
H3975 C3984 0.930 . S
H3976 C3989 0.929 . S
H3977 C3987 0.929 . S
H3978 C3982 0.929 . S
H3979 C3988 0.929 . S
C3980 H3974 0.930 . S
C3980 C3981 1.367 . S
C3980 C3988 1.378 . S
C3981 C3980 1.367 . S
C3981 C3989 1.433 . S
C3982 H3978 0.929 . S
C3982 C3984 1.378 . S
C3982 C3986 1.350 . S
C3983 C3986 1.463 . S
C3983 C3988 1.350 . S
C3983 N3991 1.427 . S
C3984 H3975 0.930 . S
C3984 C3982 1.378 . S
C3984 C3985 1.367 . S
C3985 C3984 1.367 . S
C3985 C3987 1.433 . S
C3986 C3982 1.350 . S
C3986 C3983 1.463 . S
C3986 N3990 1.427 . S
C3987 H3977 0.929 . S
C3987 C3985 1.433 . S
C3987 N3990 1.384 . S
C3988 H3979 0.929 . S
C3988 C3980 1.378 . S
C3988 C3983 1.350 . S
C3989 H3976 0.929 . S
C3989 C3981 1.433 . S
C3989 N3991 1.384 . S
N3990 C3986 1.427 . S
N3990 C3987 1.384 . S
N3991 C3983 1.427 . S
N3991 C3989 1.384 . S
H3992 C3998 0.930 . S
H3993 C4002 0.930 . S
H3994 C4007 0.929 . S
H3995 C4005 0.929 . S
H3996 C4000 0.929 . S
H3997 C4006 0.929 . S
C3998 H3992 0.930 . S
C3998 C3999 1.367 . S
C3998 C4006 1.378 . S
C3999 C3998 1.367 . S
C3999 C4007 1.433 . S
C4000 H3996 0.929 . S
C4000 C4002 1.378 . S
C4000 C4004 1.350 . S
C4001 C4004 1.463 . S
C4001 C4006 1.350 . S
C4001 N4009 1.427 . S
C4002 H3993 0.930 . S
C4002 C4000 1.378 . S
C4002 C4003 1.367 . S
C4003 C4002 1.367 . S
C4003 C4005 1.433 . S
C4004 C4000 1.350 . S
C4004 C4001 1.463 . S
C4004 N4008 1.427 . S
C4005 H3995 0.929 . S
C4005 C4003 1.433 . S
C4005 N4008 1.384 . S
C4006 H3997 0.929 . S
C4006 C3998 1.378 . S
C4006 C4001 1.350 . S
C4007 H3994 0.929 . S
C4007 C3999 1.433 . S
C4007 N4009 1.384 . S
N4008 C4004 1.427 . S
N4008 C4005 1.384 . S
N4009 C4001 1.427 . S
N4009 C4007 1.384 . S
H4010 C4016 0.930 . S
H4011 C4020 0.930 . S
H4012 C4025 0.929 . S
H4013 C4023 0.929 . S
H4014 C4018 0.929 . S
H4015 C4024 0.929 . S
C4016 H4010 0.930 . S
C4016 C4017 1.367 . S
C4016 C4024 1.378 . S
C4017 C4016 1.367 . S
C4017 C4025 1.433 . S
C4018 H4014 0.929 . S
C4018 C4020 1.378 . S
C4018 C4022 1.350 . S
C4019 C4022 1.463 . S
C4019 C4024 1.350 . S
C4019 N4027 1.427 . S
C4020 H4011 0.930 . S
C4020 C4018 1.378 . S
C4020 C4021 1.367 . S
C4021 C4020 1.367 . S
C4021 C4023 1.433 . S
C4022 C4018 1.350 . S
C4022 C4019 1.463 . S
C4022 N4026 1.427 . S
C4023 H4013 0.929 . S
C4023 C4021 1.433 . S
C4023 N4026 1.384 . S
C4024 H4015 0.929 . S
C4024 C4016 1.378 . S
C4024 C4019 1.350 . S
C4025 H4012 0.929 . S
C4025 C4017 1.433 . S
C4025 N4027 1.384 . S
N4026 C4022 1.427 . S
N4026 C4023 1.384 . S
N4027 C4019 1.427 . S
N4027 C4025 1.384 . S
H4028 C4034 0.930 . S
H4029 C4038 0.930 . S
H4030 C4043 0.929 . S
H4031 C4041 0.929 . S
H4032 C4036 0.929 . S
H4033 C4042 0.929 . S
C4034 H4028 0.930 . S
C4034 C4035 1.367 . S
C4034 C4042 1.378 . S
C4035 C4034 1.367 . S
C4035 C4043 1.433 . S
C4036 H4032 0.929 . S
C4036 C4038 1.378 . S
C4036 C4040 1.350 . S
C4037 C4040 1.463 . S
C4037 C4042 1.350 . S
C4037 N4045 1.427 . S
C4038 H4029 0.930 . S
C4038 C4036 1.378 . S
C4038 C4039 1.367 . S
C4039 C4038 1.367 . S
C4039 C4041 1.433 . S
C4040 C4036 1.350 . S
C4040 C4037 1.463 . S
C4040 N4044 1.427 . S
C4041 H4031 0.929 . S
C4041 C4039 1.433 . S
C4041 N4044 1.384 . S
C4042 H4033 0.929 . S
C4042 C4034 1.378 . S
C4042 C4037 1.350 . S
C4043 H4030 0.929 . S
C4043 C4035 1.433 . S
C4043 N4045 1.384 . S
N4044 C4040 1.427 . S
N4044 C4041 1.384 . S
N4045 C4037 1.427 . S
N4045 C4043 1.384 . S
H4046 C4052 0.930 . S
H4047 C4056 0.930 . S
H4048 C4061 0.929 . S
H4049 C4059 0.929 . S
H4050 C4054 0.929 . S
H4051 C4060 0.929 . S
C4052 H4046 0.930 . S
C4052 C4053 1.367 . S
C4052 C4060 1.378 . S
C4053 C4052 1.367 . S
C4053 C4061 1.433 . S
C4054 H4050 0.929 . S
C4054 C4056 1.378 . S
C4054 C4058 1.350 . S
C4055 C4058 1.463 . S
C4055 C4060 1.350 . S
C4055 N4063 1.427 . S
C4056 H4047 0.930 . S
C4056 C4054 1.378 . S
C4056 C4057 1.367 . S
C4057 C4056 1.367 . S
C4057 C4059 1.433 . S
C4058 C4054 1.350 . S
C4058 C4055 1.463 . S
C4058 N4062 1.427 . S
C4059 H4049 0.929 . S
C4059 C4057 1.433 . S
C4059 N4062 1.384 . S
C4060 H4051 0.929 . S
C4060 C4052 1.378 . S
C4060 C4055 1.350 . S
C4061 H4048 0.929 . S
C4061 C4053 1.433 . S
C4061 N4063 1.384 . S
N4062 C4058 1.427 . S
N4062 C4059 1.384 . S
N4063 C4055 1.427 . S
N4063 C4061 1.384 . S
H4064 C4070 0.930 . S
H4065 C4074 0.930 . S
H4066 C4079 0.929 . S
H4067 C4077 0.929 . S
H4068 C4072 0.929 . S
H4069 C4078 0.929 . S
C4070 H4064 0.930 . S
C4070 C4071 1.367 . S
C4070 C4078 1.378 . S
C4071 C4070 1.367 . S
C4071 C4079 1.433 . S
C4072 H4068 0.929 . S
C4072 C4074 1.378 . S
C4072 C4076 1.350 . S
C4073 C4076 1.463 . S
C4073 C4078 1.350 . S
C4073 N4081 1.427 . S
C4074 H4065 0.930 . S
C4074 C4072 1.378 . S
C4074 C4075 1.367 . S
C4075 C4074 1.367 . S
C4075 C4077 1.433 . S
C4076 C4072 1.350 . S
C4076 C4073 1.463 . S
C4076 N4080 1.427 . S
C4077 H4067 0.929 . S
C4077 C4075 1.433 . S
C4077 N4080 1.384 . S
C4078 H4069 0.929 . S
C4078 C4070 1.378 . S
C4078 C4073 1.350 . S
C4079 H4066 0.929 . S
C4079 C4071 1.433 . S
C4079 N4081 1.384 . S
N4080 C4076 1.427 . S
N4080 C4077 1.384 . S
N4081 C4073 1.427 . S
N4081 C4079 1.384 . S
H4082 C4088 0.930 . S
H4083 C4092 0.930 . S
H4084 C4097 0.929 . S
H4085 C4095 0.929 . S
H4086 C4090 0.929 . S
H4087 C4096 0.929 . S
C4088 H4082 0.930 . S
C4088 C4089 1.367 . S
C4088 C4096 1.378 . S
C4089 C4088 1.367 . S
C4089 C4097 1.433 . S
C4090 H4086 0.929 . S
C4090 C4092 1.378 . S
C4090 C4094 1.350 . S
C4091 C4094 1.463 . S
C4091 C4096 1.350 . S
C4091 N4099 1.427 . S
C4092 H4083 0.930 . S
C4092 C4090 1.378 . S
C4092 C4093 1.367 . S
C4093 C4092 1.367 . S
C4093 C4095 1.433 . S
C4094 C4090 1.350 . S
C4094 C4091 1.463 . S
C4094 N4098 1.427 . S
C4095 H4085 0.929 . S
C4095 C4093 1.433 . S
C4095 N4098 1.384 . S
C4096 H4087 0.929 . S
C4096 C4088 1.378 . S
C4096 C4091 1.350 . S
C4097 H4084 0.929 . S
C4097 C4089 1.433 . S
C4097 N4099 1.384 . S
N4098 C4094 1.427 . S
N4098 C4095 1.384 . S
N4099 C4091 1.427 . S
N4099 C4097 1.384 . S
H4100 C4106 0.930 . S
H4101 C4110 0.930 . S
H4102 C4115 0.929 . S
H4103 C4113 0.929 . S
H4104 C4108 0.929 . S
H4105 C4114 0.929 . S
C4106 H4100 0.930 . S
C4106 C4107 1.367 . S
C4106 C4114 1.378 . S
C4107 C4106 1.367 . S
C4107 C4115 1.433 . S
C4108 H4104 0.929 . S
C4108 C4110 1.378 . S
C4108 C4112 1.350 . S
C4109 C4112 1.463 . S
C4109 C4114 1.350 . S
C4109 N4117 1.427 . S
C4110 H4101 0.930 . S
C4110 C4108 1.378 . S
C4110 C4111 1.367 . S
C4111 C4110 1.367 . S
C4111 C4113 1.433 . S
C4112 C4108 1.350 . S
C4112 C4109 1.463 . S
C4112 N4116 1.427 . S
C4113 H4103 0.929 . S
C4113 C4111 1.433 . S
C4113 N4116 1.384 . S
C4114 H4105 0.929 . S
C4114 C4106 1.378 . S
C4114 C4109 1.350 . S
C4115 H4102 0.929 . S
C4115 C4107 1.433 . S
C4115 N4117 1.384 . S
N4116 C4112 1.427 . S
N4116 C4113 1.384 . S
N4117 C4109 1.427 . S
N4117 C4115 1.384 . S
H4118 C4124 0.930 . S
H4119 C4128 0.930 . S
H4120 C4133 0.929 . S
H4121 C4131 0.929 . S
H4122 C4126 0.929 . S
H4123 C4132 0.929 . S
C4124 H4118 0.930 . S
C4124 C4125 1.367 . S
C4124 C4132 1.378 . S
C4125 C4124 1.367 . S
C4125 C4133 1.433 . S
C4126 H4122 0.929 . S
C4126 C4128 1.378 . S
C4126 C4130 1.350 . S
C4127 C4130 1.463 . S
C4127 C4132 1.350 . S
C4127 N4135 1.427 . S
C4128 H4119 0.930 . S
C4128 C4126 1.378 . S
C4128 C4129 1.367 . S
C4129 C4128 1.367 . S
C4129 C4131 1.433 . S
C4130 C4126 1.350 . S
C4130 C4127 1.463 . S
C4130 N4134 1.427 . S
C4131 H4121 0.929 . S
C4131 C4129 1.433 . S
C4131 N4134 1.384 . S
C4132 H4123 0.929 . S
C4132 C4124 1.378 . S
C4132 C4127 1.350 . S
C4133 H4120 0.929 . S
C4133 C4125 1.433 . S
C4133 N4135 1.384 . S
N4134 C4130 1.427 . S
N4134 C4131 1.384 . S
N4135 C4127 1.427 . S
N4135 C4133 1.384 . S
H4136 C4142 0.930 . S
H4137 C4146 0.930 . S
H4138 C4151 0.929 . S
H4139 C4149 0.929 . S
H4140 C4144 0.929 . S
H4141 C4150 0.929 . S
C4142 H4136 0.930 . S
C4142 C4143 1.367 . S
C4142 C4150 1.378 . S
C4143 C4142 1.367 . S
C4143 C4151 1.433 . S
C4144 H4140 0.929 . S
C4144 C4146 1.378 . S
C4144 C4148 1.350 . S
C4145 C4148 1.463 . S
C4145 C4150 1.350 . S
C4145 N4153 1.427 . S
C4146 H4137 0.930 . S
C4146 C4144 1.378 . S
C4146 C4147 1.367 . S
C4147 C4146 1.367 . S
C4147 C4149 1.433 . S
C4148 C4144 1.350 . S
C4148 C4145 1.463 . S
C4148 N4152 1.427 . S
C4149 H4139 0.929 . S
C4149 C4147 1.433 . S
C4149 N4152 1.384 . S
C4150 H4141 0.929 . S
C4150 C4142 1.378 . S
C4150 C4145 1.350 . S
C4151 H4138 0.929 . S
C4151 C4143 1.433 . S
C4151 N4153 1.384 . S
N4152 C4148 1.427 . S
N4152 C4149 1.384 . S
N4153 C4145 1.427 . S
N4153 C4151 1.384 . S
H4154 C4160 0.930 . S
H4155 C4164 0.930 . S
H4156 C4169 0.929 . S
H4157 C4167 0.929 . S
H4158 C4162 0.929 . S
H4159 C4168 0.929 . S
C4160 H4154 0.930 . S
C4160 C4161 1.367 . S
C4160 C4168 1.378 . S
C4161 C4160 1.367 . S
C4161 C4169 1.433 . S
C4162 H4158 0.929 . S
C4162 C4164 1.378 . S
C4162 C4166 1.350 . S
C4163 C4166 1.463 . S
C4163 C4168 1.350 . S
C4163 N4171 1.427 . S
C4164 H4155 0.930 . S
C4164 C4162 1.378 . S
C4164 C4165 1.367 . S
C4165 C4164 1.367 . S
C4165 C4167 1.433 . S
C4166 C4162 1.350 . S
C4166 C4163 1.463 . S
C4166 N4170 1.427 . S
C4167 H4157 0.929 . S
C4167 C4165 1.433 . S
C4167 N4170 1.384 . S
C4168 H4159 0.929 . S
C4168 C4160 1.378 . S
C4168 C4163 1.350 . S
C4169 H4156 0.929 . S
C4169 C4161 1.433 . S
C4169 N4171 1.384 . S
N4170 C4166 1.427 . S
N4170 C4167 1.384 . S
N4171 C4163 1.427 . S
N4171 C4169 1.384 . S
H4172 C4178 0.930 . S
H4173 C4182 0.930 . S
H4174 C4187 0.929 . S
H4175 C4185 0.929 . S
H4176 C4180 0.929 . S
H4177 C4186 0.929 . S
C4178 H4172 0.930 . S
C4178 C4179 1.367 . S
C4178 C4186 1.378 . S
C4179 C4178 1.367 . S
C4179 C4187 1.433 . S
C4180 H4176 0.929 . S
C4180 C4182 1.378 . S
C4180 C4184 1.350 . S
C4181 C4184 1.463 . S
C4181 C4186 1.350 . S
C4181 N4189 1.427 . S
C4182 H4173 0.930 . S
C4182 C4180 1.378 . S
C4182 C4183 1.367 . S
C4183 C4182 1.367 . S
C4183 C4185 1.433 . S
C4184 C4180 1.350 . S
C4184 C4181 1.463 . S
C4184 N4188 1.427 . S
C4185 H4175 0.929 . S
C4185 C4183 1.433 . S
C4185 N4188 1.384 . S
C4186 H4177 0.929 . S
C4186 C4178 1.378 . S
C4186 C4181 1.350 . S
C4187 H4174 0.929 . S
C4187 C4179 1.433 . S
C4187 N4189 1.384 . S
N4188 C4184 1.427 . S
N4188 C4185 1.384 . S
N4189 C4181 1.427 . S
N4189 C4187 1.384 . S
H4190 C4196 0.930 . S
H4191 C4200 0.930 . S
H4192 C4205 0.929 . S
H4193 C4203 0.929 . S
H4194 C4198 0.929 . S
H4195 C4204 0.929 . S
C4196 H4190 0.930 . S
C4196 C4197 1.367 . S
C4196 C4204 1.378 . S
C4197 C4196 1.367 . S
C4197 C4205 1.433 . S
C4198 H4194 0.929 . S
C4198 C4200 1.378 . S
C4198 C4202 1.350 . S
C4199 C4202 1.463 . S
C4199 C4204 1.350 . S
C4199 N4207 1.427 . S
C4200 H4191 0.930 . S
C4200 C4198 1.378 . S
C4200 C4201 1.367 . S
C4201 C4200 1.367 . S
C4201 C4203 1.433 . S
C4202 C4198 1.350 . S
C4202 C4199 1.463 . S
C4202 N4206 1.427 . S
C4203 H4193 0.929 . S
C4203 C4201 1.433 . S
C4203 N4206 1.384 . S
C4204 H4195 0.929 . S
C4204 C4196 1.378 . S
C4204 C4199 1.350 . S
C4205 H4192 0.929 . S
C4205 C4197 1.433 . S
C4205 N4207 1.384 . S
N4206 C4202 1.427 . S
N4206 C4203 1.384 . S
N4207 C4199 1.427 . S
N4207 C4205 1.384 . S
H4208 C4214 0.930 . S
H4209 C4218 0.930 . S
H4210 C4223 0.929 . S
H4211 C4221 0.929 . S
H4212 C4216 0.929 . S
H4213 C4222 0.929 . S
C4214 H4208 0.930 . S
C4214 C4215 1.367 . S
C4214 C4222 1.378 . S
C4215 C4214 1.367 . S
C4215 C4223 1.433 . S
C4216 H4212 0.929 . S
C4216 C4218 1.378 . S
C4216 C4220 1.350 . S
C4217 C4220 1.463 . S
C4217 C4222 1.350 . S
C4217 N4225 1.427 . S
C4218 H4209 0.930 . S
C4218 C4216 1.378 . S
C4218 C4219 1.367 . S
C4219 C4218 1.367 . S
C4219 C4221 1.433 . S
C4220 C4216 1.350 . S
C4220 C4217 1.463 . S
C4220 N4224 1.427 . S
C4221 H4211 0.929 . S
C4221 C4219 1.433 . S
C4221 N4224 1.384 . S
C4222 H4213 0.929 . S
C4222 C4214 1.378 . S
C4222 C4217 1.350 . S
C4223 H4210 0.929 . S
C4223 C4215 1.433 . S
C4223 N4225 1.384 . S
N4224 C4220 1.427 . S
N4224 C4221 1.384 . S
N4225 C4217 1.427 . S
N4225 C4223 1.384 . S
H4226 C4232 0.930 . S
H4227 C4236 0.930 . S
H4228 C4241 0.929 . S
H4229 C4239 0.929 . S
H4230 C4234 0.929 . S
H4231 C4240 0.929 . S
C4232 H4226 0.930 . S
C4232 C4233 1.367 . S
C4232 C4240 1.378 . S
C4233 C4232 1.367 . S
C4233 C4241 1.433 . S
C4234 H4230 0.929 . S
C4234 C4236 1.378 . S
C4234 C4238 1.350 . S
C4235 C4238 1.463 . S
C4235 C4240 1.350 . S
C4235 N4243 1.427 . S
C4236 H4227 0.930 . S
C4236 C4234 1.378 . S
C4236 C4237 1.367 . S
C4237 C4236 1.367 . S
C4237 C4239 1.433 . S
C4238 C4234 1.350 . S
C4238 C4235 1.463 . S
C4238 N4242 1.427 . S
C4239 H4229 0.929 . S
C4239 C4237 1.433 . S
C4239 N4242 1.384 . S
C4240 H4231 0.929 . S
C4240 C4232 1.378 . S
C4240 C4235 1.350 . S
C4241 H4228 0.929 . S
C4241 C4233 1.433 . S
C4241 N4243 1.384 . S
N4242 C4238 1.427 . S
N4242 C4239 1.384 . S
N4243 C4235 1.427 . S
N4243 C4241 1.384 . S
H4244 C4250 0.930 . S
H4245 C4254 0.930 . S
H4246 C4259 0.929 . S
H4247 C4257 0.929 . S
H4248 C4252 0.929 . S
H4249 C4258 0.929 . S
C4250 H4244 0.930 . S
C4250 C4251 1.367 . S
C4250 C4258 1.378 . S
C4251 C4250 1.367 . S
C4251 C4259 1.433 . S
C4252 H4248 0.929 . S
C4252 C4254 1.378 . S
C4252 C4256 1.350 . S
C4253 C4256 1.463 . S
C4253 C4258 1.350 . S
C4253 N4261 1.427 . S
C4254 H4245 0.930 . S
C4254 C4252 1.378 . S
C4254 C4255 1.367 . S
C4255 C4254 1.367 . S
C4255 C4257 1.433 . S
C4256 C4252 1.350 . S
C4256 C4253 1.463 . S
C4256 N4260 1.427 . S
C4257 H4247 0.929 . S
C4257 C4255 1.433 . S
C4257 N4260 1.384 . S
C4258 H4249 0.929 . S
C4258 C4250 1.378 . S
C4258 C4253 1.350 . S
C4259 H4246 0.929 . S
C4259 C4251 1.433 . S
C4259 N4261 1.384 . S
N4260 C4256 1.427 . S
N4260 C4257 1.384 . S
N4261 C4253 1.427 . S
N4261 C4259 1.384 . S
H4262 C4268 0.930 . S
H4263 C4272 0.930 . S
H4264 C4277 0.929 . S
H4265 C4275 0.929 . S
H4266 C4270 0.929 . S
H4267 C4276 0.929 . S
C4268 H4262 0.930 . S
C4268 C4269 1.367 . S
C4268 C4276 1.378 . S
C4269 C4268 1.367 . S
C4269 C4277 1.433 . S
C4270 H4266 0.929 . S
C4270 C4272 1.378 . S
C4270 C4274 1.350 . S
C4271 C4274 1.463 . S
C4271 C4276 1.350 . S
C4271 N4279 1.427 . S
C4272 H4263 0.930 . S
C4272 C4270 1.378 . S
C4272 C4273 1.367 . S
C4273 C4272 1.367 . S
C4273 C4275 1.433 . S
C4274 C4270 1.350 . S
C4274 C4271 1.463 . S
C4274 N4278 1.427 . S
C4275 H4265 0.929 . S
C4275 C4273 1.433 . S
C4275 N4278 1.384 . S
C4276 H4267 0.929 . S
C4276 C4268 1.378 . S
C4276 C4271 1.350 . S
C4277 H4264 0.929 . S
C4277 C4269 1.433 . S
C4277 N4279 1.384 . S
N4278 C4274 1.427 . S
N4278 C4275 1.384 . S
N4279 C4271 1.427 . S
N4279 C4277 1.384 . S
H4280 C4286 0.930 . S
H4281 C4290 0.930 . S
H4282 C4295 0.929 . S
H4283 C4293 0.929 . S
H4284 C4288 0.929 . S
H4285 C4294 0.929 . S
C4286 H4280 0.930 . S
C4286 C4287 1.367 . S
C4286 C4294 1.378 . S
C4287 C4286 1.367 . S
C4287 C4295 1.433 . S
C4288 H4284 0.929 . S
C4288 C4290 1.378 . S
C4288 C4292 1.350 . S
C4289 C4292 1.463 . S
C4289 C4294 1.350 . S
C4289 N4297 1.427 . S
C4290 H4281 0.930 . S
C4290 C4288 1.378 . S
C4290 C4291 1.367 . S
C4291 C4290 1.367 . S
C4291 C4293 1.433 . S
C4292 C4288 1.350 . S
C4292 C4289 1.463 . S
C4292 N4296 1.427 . S
C4293 H4283 0.929 . S
C4293 C4291 1.433 . S
C4293 N4296 1.384 . S
C4294 H4285 0.929 . S
C4294 C4286 1.378 . S
C4294 C4289 1.350 . S
C4295 H4282 0.929 . S
C4295 C4287 1.433 . S
C4295 N4297 1.384 . S
N4296 C4292 1.427 . S
N4296 C4293 1.384 . S
N4297 C4289 1.427 . S
N4297 C4295 1.384 . S
H4298 C4304 0.930 . S
H4299 C4308 0.930 . S
H4300 C4313 0.929 . S
H4301 C4311 0.929 . S
H4302 C4306 0.929 . S
H4303 C4312 0.929 . S
C4304 H4298 0.930 . S
C4304 C4305 1.367 . S
C4304 C4312 1.378 . S
C4305 C4304 1.367 . S
C4305 C4313 1.433 . S
C4306 H4302 0.929 . S
C4306 C4308 1.378 . S
C4306 C4310 1.350 . S
C4307 C4310 1.463 . S
C4307 C4312 1.350 . S
C4307 N4315 1.427 . S
C4308 H4299 0.930 . S
C4308 C4306 1.378 . S
C4308 C4309 1.367 . S
C4309 C4308 1.367 . S
C4309 C4311 1.433 . S
C4310 C4306 1.350 . S
C4310 C4307 1.463 . S
C4310 N4314 1.427 . S
C4311 H4301 0.929 . S
C4311 C4309 1.433 . S
C4311 N4314 1.384 . S
C4312 H4303 0.929 . S
C4312 C4304 1.378 . S
C4312 C4307 1.350 . S
C4313 H4300 0.929 . S
C4313 C4305 1.433 . S
C4313 N4315 1.384 . S
N4314 C4310 1.427 . S
N4314 C4311 1.384 . S
N4315 C4307 1.427 . S
N4315 C4313 1.384 . S
H4316 C4322 0.930 . S
H4317 C4326 0.930 . S
H4318 C4331 0.929 . S
H4319 C4329 0.929 . S
H4320 C4324 0.929 . S
H4321 C4330 0.929 . S
C4322 H4316 0.930 . S
C4322 C4323 1.367 . S
C4322 C4330 1.378 . S
C4323 C4322 1.367 . S
C4323 C4331 1.433 . S
C4324 H4320 0.929 . S
C4324 C4326 1.378 . S
C4324 C4328 1.350 . S
C4325 C4328 1.463 . S
C4325 C4330 1.350 . S
C4325 N4333 1.427 . S
C4326 H4317 0.930 . S
C4326 C4324 1.378 . S
C4326 C4327 1.367 . S
C4327 C4326 1.367 . S
C4327 C4329 1.433 . S
C4328 C4324 1.350 . S
C4328 C4325 1.463 . S
C4328 N4332 1.427 . S
C4329 H4319 0.929 . S
C4329 C4327 1.433 . S
C4329 N4332 1.384 . S
C4330 H4321 0.929 . S
C4330 C4322 1.378 . S
C4330 C4325 1.350 . S
C4331 H4318 0.929 . S
C4331 C4323 1.433 . S
C4331 N4333 1.384 . S
N4332 C4328 1.427 . S
N4332 C4329 1.384 . S
N4333 C4325 1.427 . S
N4333 C4331 1.384 . S
H4334 C4340 0.930 . S
H4335 C4344 0.930 . S
H4336 C4349 0.929 . S
H4337 C4347 0.929 . S
H4338 C4342 0.929 . S
H4339 C4348 0.929 . S
C4340 H4334 0.930 . S
C4340 C4341 1.367 . S
C4340 C4348 1.378 . S
C4341 C4340 1.367 . S
C4341 C4349 1.433 . S
C4342 H4338 0.929 . S
C4342 C4344 1.378 . S
C4342 C4346 1.350 . S
C4343 C4346 1.463 . S
C4343 C4348 1.350 . S
C4343 N4351 1.427 . S
C4344 H4335 0.930 . S
C4344 C4342 1.378 . S
C4344 C4345 1.367 . S
C4345 C4344 1.367 . S
C4345 C4347 1.433 . S
C4346 C4342 1.350 . S
C4346 C4343 1.463 . S
C4346 N4350 1.427 . S
C4347 H4337 0.929 . S
C4347 C4345 1.433 . S
C4347 N4350 1.384 . S
C4348 H4339 0.929 . S
C4348 C4340 1.378 . S
C4348 C4343 1.350 . S
C4349 H4336 0.929 . S
C4349 C4341 1.433 . S
C4349 N4351 1.384 . S
N4350 C4346 1.427 . S
N4350 C4347 1.384 . S
N4351 C4343 1.427 . S
N4351 C4349 1.384 . S
H4352 C4358 0.930 . S
H4353 C4362 0.930 . S
H4354 C4367 0.929 . S
H4355 C4365 0.929 . S
H4356 C4360 0.929 . S
H4357 C4366 0.929 . S
C4358 H4352 0.930 . S
C4358 C4359 1.367 . S
C4358 C4366 1.378 . S
C4359 C4358 1.367 . S
C4359 C4367 1.433 . S
C4360 H4356 0.929 . S
C4360 C4362 1.378 . S
C4360 C4364 1.350 . S
C4361 C4364 1.463 . S
C4361 C4366 1.350 . S
C4361 N4369 1.427 . S
C4362 H4353 0.930 . S
C4362 C4360 1.378 . S
C4362 C4363 1.367 . S
C4363 C4362 1.367 . S
C4363 C4365 1.433 . S
C4364 C4360 1.350 . S
C4364 C4361 1.463 . S
C4364 N4368 1.427 . S
C4365 H4355 0.929 . S
C4365 C4363 1.433 . S
C4365 N4368 1.384 . S
C4366 H4357 0.929 . S
C4366 C4358 1.378 . S
C4366 C4361 1.350 . S
C4367 H4354 0.929 . S
C4367 C4359 1.433 . S
C4367 N4369 1.384 . S
N4368 C4364 1.427 . S
N4368 C4365 1.384 . S
N4369 C4361 1.427 . S
N4369 C4367 1.384 . S
H4370 C4376 0.930 . S
H4371 C4380 0.930 . S
H4372 C4385 0.929 . S
H4373 C4383 0.929 . S
H4374 C4378 0.929 . S
H4375 C4384 0.929 . S
C4376 H4370 0.930 . S
C4376 C4377 1.367 . S
C4376 C4384 1.378 . S
C4377 C4376 1.367 . S
C4377 C4385 1.433 . S
C4378 H4374 0.929 . S
C4378 C4380 1.378 . S
C4378 C4382 1.350 . S
C4379 C4382 1.463 . S
C4379 C4384 1.350 . S
C4379 N4387 1.427 . S
C4380 H4371 0.930 . S
C4380 C4378 1.378 . S
C4380 C4381 1.367 . S
C4381 C4380 1.367 . S
C4381 C4383 1.433 . S
C4382 C4378 1.350 . S
C4382 C4379 1.463 . S
C4382 N4386 1.427 . S
C4383 H4373 0.929 . S
C4383 C4381 1.433 . S
C4383 N4386 1.384 . S
C4384 H4375 0.929 . S
C4384 C4376 1.378 . S
C4384 C4379 1.350 . S
C4385 H4372 0.929 . S
C4385 C4377 1.433 . S
C4385 N4387 1.384 . S
N4386 C4382 1.427 . S
N4386 C4383 1.384 . S
N4387 C4379 1.427 . S
N4387 C4385 1.384 . S
H4388 C4394 0.930 . S
H4389 C4398 0.930 . S
H4390 C4403 0.929 . S
H4391 C4401 0.929 . S
H4392 C4396 0.929 . S
H4393 C4402 0.929 . S
C4394 H4388 0.930 . S
C4394 C4395 1.367 . S
C4394 C4402 1.378 . S
C4395 C4394 1.367 . S
C4395 C4403 1.433 . S
C4396 H4392 0.929 . S
C4396 C4398 1.378 . S
C4396 C4400 1.350 . S
C4397 C4400 1.463 . S
C4397 C4402 1.350 . S
C4397 N4405 1.427 . S
C4398 H4389 0.930 . S
C4398 C4396 1.378 . S
C4398 C4399 1.367 . S
C4399 C4398 1.367 . S
C4399 C4401 1.433 . S
C4400 C4396 1.350 . S
C4400 C4397 1.463 . S
C4400 N4404 1.427 . S
C4401 H4391 0.929 . S
C4401 C4399 1.433 . S
C4401 N4404 1.384 . S
C4402 H4393 0.929 . S
C4402 C4394 1.378 . S
C4402 C4397 1.350 . S
C4403 H4390 0.929 . S
C4403 C4395 1.433 . S
C4403 N4405 1.384 . S
N4404 C4400 1.427 . S
N4404 C4401 1.384 . S
N4405 C4397 1.427 . S
N4405 C4403 1.384 . S
H4406 C4412 0.930 . S
H4407 C4416 0.930 . S
H4408 C4421 0.929 . S
H4409 C4419 0.929 . S
H4410 C4414 0.929 . S
H4411 C4420 0.929 . S
C4412 H4406 0.930 . S
C4412 C4413 1.367 . S
C4412 C4420 1.378 . S
C4413 C4412 1.367 . S
C4413 C4421 1.433 . S
C4414 H4410 0.929 . S
C4414 C4416 1.378 . S
C4414 C4418 1.350 . S
C4415 C4418 1.463 . S
C4415 C4420 1.350 . S
C4415 N4423 1.427 . S
C4416 H4407 0.930 . S
C4416 C4414 1.378 . S
C4416 C4417 1.367 . S
C4417 C4416 1.367 . S
C4417 C4419 1.433 . S
C4418 C4414 1.350 . S
C4418 C4415 1.463 . S
C4418 N4422 1.427 . S
C4419 H4409 0.929 . S
C4419 C4417 1.433 . S
C4419 N4422 1.384 . S
C4420 H4411 0.929 . S
C4420 C4412 1.378 . S
C4420 C4415 1.350 . S
C4421 H4408 0.929 . S
C4421 C4413 1.433 . S
C4421 N4423 1.384 . S
N4422 C4418 1.427 . S
N4422 C4419 1.384 . S
N4423 C4415 1.427 . S
N4423 C4421 1.384 . S
H4424 C4430 0.930 . S
H4425 C4434 0.930 . S
H4426 C4439 0.929 . S
H4427 C4437 0.929 . S
H4428 C4432 0.929 . S
H4429 C4438 0.929 . S
C4430 H4424 0.930 . S
C4430 C4431 1.367 . S
C4430 C4438 1.378 . S
C4431 C4430 1.367 . S
C4431 C4439 1.433 . S
C4432 H4428 0.929 . S
C4432 C4434 1.378 . S
C4432 C4436 1.350 . S
C4433 C4436 1.463 . S
C4433 C4438 1.350 . S
C4433 N4441 1.427 . S
C4434 H4425 0.930 . S
C4434 C4432 1.378 . S
C4434 C4435 1.367 . S
C4435 C4434 1.367 . S
C4435 C4437 1.433 . S
C4436 C4432 1.350 . S
C4436 C4433 1.463 . S
C4436 N4440 1.427 . S
C4437 H4427 0.929 . S
C4437 C4435 1.433 . S
C4437 N4440 1.384 . S
C4438 H4429 0.929 . S
C4438 C4430 1.378 . S
C4438 C4433 1.350 . S
C4439 H4426 0.929 . S
C4439 C4431 1.433 . S
C4439 N4441 1.384 . S
N4440 C4436 1.427 . S
N4440 C4437 1.384 . S
N4441 C4433 1.427 . S
N4441 C4439 1.384 . S
H4442 C4448 0.930 . S
H4443 C4452 0.930 . S
H4444 C4457 0.929 . S
H4445 C4455 0.929 . S
H4446 C4450 0.929 . S
H4447 C4456 0.929 . S
C4448 H4442 0.930 . S
C4448 C4449 1.367 . S
C4448 C4456 1.378 . S
C4449 C4448 1.367 . S
C4449 C4457 1.433 . S
C4450 H4446 0.929 . S
C4450 C4452 1.378 . S
C4450 C4454 1.350 . S
C4451 C4454 1.463 . S
C4451 C4456 1.350 . S
C4451 N4459 1.427 . S
C4452 H4443 0.930 . S
C4452 C4450 1.378 . S
C4452 C4453 1.367 . S
C4453 C4452 1.367 . S
C4453 C4455 1.433 . S
C4454 C4450 1.350 . S
C4454 C4451 1.463 . S
C4454 N4458 1.427 . S
C4455 H4445 0.929 . S
C4455 C4453 1.433 . S
C4455 N4458 1.384 . S
C4456 H4447 0.929 . S
C4456 C4448 1.378 . S
C4456 C4451 1.350 . S
C4457 H4444 0.929 . S
C4457 C4449 1.433 . S
C4457 N4459 1.384 . S
N4458 C4454 1.427 . S
N4458 C4455 1.384 . S
N4459 C4451 1.427 . S
N4459 C4457 1.384 . S
H4460 C4466 0.930 . S
H4461 C4470 0.930 . S
H4462 C4475 0.929 . S
H4463 C4473 0.929 . S
H4464 C4468 0.929 . S
H4465 C4474 0.929 . S
C4466 H4460 0.930 . S
C4466 C4467 1.367 . S
C4466 C4474 1.378 . S
C4467 C4466 1.367 . S
C4467 C4475 1.433 . S
C4468 H4464 0.929 . S
C4468 C4470 1.378 . S
C4468 C4472 1.350 . S
C4469 C4472 1.463 . S
C4469 C4474 1.350 . S
C4469 N4477 1.427 . S
C4470 H4461 0.930 . S
C4470 C4468 1.378 . S
C4470 C4471 1.367 . S
C4471 C4470 1.367 . S
C4471 C4473 1.433 . S
C4472 C4468 1.350 . S
C4472 C4469 1.463 . S
C4472 N4476 1.427 . S
C4473 H4463 0.929 . S
C4473 C4471 1.433 . S
C4473 N4476 1.384 . S
C4474 H4465 0.929 . S
C4474 C4466 1.378 . S
C4474 C4469 1.350 . S
C4475 H4462 0.929 . S
C4475 C4467 1.433 . S
C4475 N4477 1.384 . S
N4476 C4472 1.427 . S
N4476 C4473 1.384 . S
N4477 C4469 1.427 . S
N4477 C4475 1.384 . S
H4478 C4484 0.930 . S
H4479 C4488 0.930 . S
H4480 C4493 0.929 . S
H4481 C4491 0.929 . S
H4482 C4486 0.929 . S
H4483 C4492 0.929 . S
C4484 H4478 0.930 . S
C4484 C4485 1.367 . S
C4484 C4492 1.378 . S
C4485 C4484 1.367 . S
C4485 C4493 1.433 . S
C4486 H4482 0.929 . S
C4486 C4488 1.378 . S
C4486 C4490 1.350 . S
C4487 C4490 1.463 . S
C4487 C4492 1.350 . S
C4487 N4495 1.427 . S
C4488 H4479 0.930 . S
C4488 C4486 1.378 . S
C4488 C4489 1.367 . S
C4489 C4488 1.367 . S
C4489 C4491 1.433 . S
C4490 C4486 1.350 . S
C4490 C4487 1.463 . S
C4490 N4494 1.427 . S
C4491 H4481 0.929 . S
C4491 C4489 1.433 . S
C4491 N4494 1.384 . S
C4492 H4483 0.929 . S
C4492 C4484 1.378 . S
C4492 C4487 1.350 . S
C4493 H4480 0.929 . S
C4493 C4485 1.433 . S
C4493 N4495 1.384 . S
N4494 C4490 1.427 . S
N4494 C4491 1.384 . S
N4495 C4487 1.427 . S
N4495 C4493 1.384 . S
C2779 C1327 1.435 . S
C2775 C21 1.538 . S
C2797 C1389 1.350 . S
C2793 C42 1.498 . S
C2811 C82 1.533 . S
C2815 C1451 1.423 . S
C2833 C1519 1.426 . S
C2829 C135 1.472 . S
C2847 C175 1.419 . S
C2851 C1501 1.381 . S
C2865 C221 1.602 . S
C2869 C1309 1.519 . S
C2883 C255 1.622 . S
C2887 C1371 1.526 . S
C2905 C1433 1.523 . S
C2901 C301 1.621 . S
C2923 C1581 1.476 . S
C2919 C15 1.534 . S
C2937 C55 1.529 . S
C2941 C1619 1.402 . S
C2955 C101 1.613 . S
C2959 C1705 1.591 . S
C2977 C1749 1.480 . S
C2973 C141 1.543 . S
C2991 C162 1.398 . S
C2995 C1811 1.384 . S
C3013 C1873 1.554 . S
C3009 C215 1.583 . S
C3027 C261 1.614 . S
C3031 C1929 1.489 . S
C3049 C1991 1.440 . S
C3045 C282 1.551 . S
C3063 C2 1.568 . S
C3067 C1767 1.555 . S
C3081 C181 1.392 . S
C3085 C1891 1.374 . S
C3103 C1947 1.442 . S
C3099 C202 1.544 . S
C3117 C242 1.569 . S
C3121 C2009 1.445 . S
C3139 C1829 1.469 . S
C3135 C295 1.516 . S
C3157 C1637 1.509 . S
C3153 C95 1.623 . S
C3171 C122 1.524 . S
C3175 C1687 1.460 . S
C3193 C1563 1.538 . S
C3189 C61 1.571 . S
C3211 C2071 1.525 . S
C3207 C341 1.629 . S
C3225 C362 1.438 . S
C3229 C2121 1.377 . S
C3243 C402 1.495 . S
C3247 C2177 1.372 . S
C3265 C2263 1.458 . S
C3261 C455 1.516 . S
C3279 C495 1.492 . S
C3283 C2245 1.456 . S
C3297 C541 1.603 . S
C3301 C2053 1.507 . S
C3315 C575 1.518 . S
C3319 C2139 1.478 . S
C3333 C621 1.668 . S
C3337 C2195 1.581 . S
C3355 C1805 1.454 . S
C3351 C335 1.579 . S
C3369 C375 1.457 . S
C3373 C2325 1.414 . S
C3391 C1935 1.546 . S
C3387 C421 1.559 . S
C3405 C461 1.553 . S
C3409 C2387 1.467 . S
C3423 C482 1.446 . S
C3427 C1575 1.351 . S
C3445 C2431 1.536 . S
C3441 C535 1.582 . S
C3459 C581 1.568 . S
C3463 C1699 1.463 . S
C3481 C2487 1.486 . S
C3477 C602 1.600 . S
C3495 C322 1.649 . S
C3499 C2369 1.638 . S
C3517 C2449 1.422 . S
C3513 C501 1.447 . S
C3531 C522 1.539 . S
C3535 C1681 1.447 . S
C3553 C2505 1.382 . S
C3549 C562 1.536 . S
C3567 C615 1.669 . S
C3571 C1557 1.582 . S
C3585 C415 1.516 . S
C3589 C2307 1.477 . S
C3603 C442 1.506 . S
C3607 C1953 1.439 . S
C3621 C381 1.516 . S
C3625 C1823 1.357 . S
C3639 C661 1.453 . S
C3643 C2183 1.436 . S
C3661 C2257 1.318 . S
C3657 C682 1.467 . S
C3675 C722 1.516 . S
C3679 C2077 1.501 . S
C3693 C775 1.547 . S
C3697 C2115 1.408 . S
C3711 C815 1.557 . S
C3715 C2133 1.445 . S
C3729 C861 1.553 . S
C3733 C2201 1.547 . S
C3751 C2239 1.466 . S
C3747 C895 1.590 . S
C3765 C941 1.619 . S
C3769 C2059 1.587 . S
C3787 C2555 1.435 . S
C3783 C655 1.485 . S
C3801 C695 1.543 . S
C3805 C1867 1.434 . S
C3823 C2617 1.552 . S
C3819 C741 1.565 . S
C3837 C781 1.548 . S
C3841 C1997 1.510 . S
C3855 C802 1.487 . S
C3859 C2673 1.385 . S
C3873 C855 1.514 . S
C3877 C1625 1.468 . S
C3895 C2753 1.549 . S
C3891 C901 1.629 . S
C3909 C922 1.560 . S
C3913 C1743 1.438 . S
C3931 C2015 1.479 . S
C3927 C642 1.492 . S
C3949 C1643 1.495 . S
C3945 C821 1.512 . S
C3963 C842 1.502 . S
C3967 C2735 1.398 . S
C3981 C882 1.633 . S
C3985 C1761 1.530 . S
C4003 C2691 1.479 . S
C3999 C935 1.610 . S
C4021 C1885 1.368 . S
C4017 C735 1.521 . S
C4039 C2635 1.502 . S
C4035 C762 1.539 . S
C4057 C2573 1.492 . S
C4053 C701 1.529 . S
C4071 C981 1.496 . S
C4075 C1457 1.481 . S
C4089 C1002 1.492 . S
C4093 C1513 1.351 . S
C4111 C1333 1.453 . S
C4107 C1042 1.479 . S
C4129 C1395 1.431 . S
C4125 C1095 1.487 . S
C4147 C1377 1.523 . S
C4143 C1135 1.549 . S
C4165 C1439 1.575 . S
C4161 C1181 1.593 . S
C4183 C1495 1.432 . S
C4179 C1215 1.564 . S
C4197 C1261 1.614 . S
C4201 C1315 1.569 . S
C4215 C975 1.502 . S
C4219 C2679 1.444 . S
C4237 C2425 1.428 . S
C4233 C1015 1.522 . S
C4255 C2759 1.561 . S
C4251 C1061 1.573 . S
C4273 C2493 1.466 . S
C4269 C1101 1.520 . S
C4287 C1122 1.489 . S
C4291 C2549 1.387 . S
C4309 C2319 1.443 . S
C4305 C1175 1.578 . S
C4327 C2611 1.491 . S
C4323 C1221 1.606 . S
C4341 C1242 1.528 . S
C4345 C2381 1.405 . S
C4363 C2511 1.453 . S
C4359 C962 1.468 . S
C4381 C2301 1.409 . S
C4377 C1141 1.503 . S
C4399 C2629 1.472 . S
C4395 C1162 1.565 . S
C4413 C1202 1.652 . S
C4417 C2363 1.560 . S
C4431 C1255 1.589 . S
C4435 C2567 1.477 . S
C4449 C1055 1.502 . S
C4453 C2443 1.376 . S
C4467 C1082 1.517 . S
C4471 C2741 1.435 . S
C4489 C2697 1.491 . S
C4485 C1021 1.519 . S
