# Generated by pormake.
# Topology anh, (6,3)-cn, num edge types: 1
# Building blocks:
#     Node 0, Type 0, BuildingBlock: GEDQOX_clean_sbu_0, # of connection points: 6
#     Node 1, Type 0, BuildingBlock: GEDQOX_clean_sbu_0, # of connection points: 6
#     Node 2, Type 0, BuildingBlock: GEDQOX_clean_sbu_0, # of connection points: 6
#     Node 3, Type 1, BuildingBlock: MIDCAF_clean_linker_0, # of connection points: 3
#     Node 4, Type 1, BuildingBlock: MIDCAF_clean_linker_0, # of connection points: 3
#     Node 5, Type 1, BuildingBlock: MIDCAF_clean_linker_0, # of connection points: 3
#     Node 6, Type 1, BuildingBlock: MIDCAF_clean_linker_0, # of connection points: 3
#     Node 7, Type 1, BuildingBlock: MIDCAF_clean_linker_0, # of connection points: 3
#     Node 8, Type 1, BuildingBlock: MIDCAF_clean_linker_0, # of connection points: 3
#     Edge 9, Type (0, 1), BuildingBlock: MIFKUJ_clean_linker_0, # of connection points: 2
#     Edge 10, Type (0, 1), BuildingBlock: MIFKUJ_clean_linker_0, # of connection points: 2
#     Edge 11, Type (0, 1), BuildingBlock: MIFKUJ_clean_linker_0, # of connection points: 2
#     Edge 12, Type (0, 1), BuildingBlock: MIFKUJ_clean_linker_0, # of connection points: 2
#     Edge 13, Type (0, 1), BuildingBlock: MIFKUJ_clean_linker_0, # of connection points: 2
#     Edge 14, Type (0, 1), BuildingBlock: MIFKUJ_clean_linker_0, # of connection points: 2
#     Edge 15, Type (0, 1), BuildingBlock: MIFKUJ_clean_linker_0, # of connection points: 2
#     Edge 16, Type (0, 1), BuildingBlock: MIFKUJ_clean_linker_0, # of connection points: 2
#     Edge 17, Type (0, 1), BuildingBlock: MIFKUJ_clean_linker_0, # of connection points: 2
#     Edge 18, Type (0, 1), BuildingBlock: MIFKUJ_clean_linker_0, # of connection points: 2
#     Edge 19, Type (0, 1), BuildingBlock: MIFKUJ_clean_linker_0, # of connection points: 2
#     Edge 20, Type (0, 1), BuildingBlock: MIFKUJ_clean_linker_0, # of connection points: 2
#     Edge 21, Type (0, 1), BuildingBlock: MIFKUJ_clean_linker_0, # of connection points: 2
#     Edge 22, Type (0, 1), BuildingBlock: MIFKUJ_clean_linker_0, # of connection points: 2
#     Edge 23, Type (0, 1), BuildingBlock: MIFKUJ_clean_linker_0, # of connection points: 2
#     Edge 24, Type (0, 1), BuildingBlock: MIFKUJ_clean_linker_0, # of connection points: 2
#     Edge 25, Type (0, 1), BuildingBlock: MIFKUJ_clean_linker_0, # of connection points: 2
#     Edge 26, Type (0, 1), BuildingBlock: MIFKUJ_clean_linker_0, # of connection points: 2
# Relax obj value: 0.162
# Max RMSD: 0.200
# Mean RMSD: 0.152
data_MOF--net-anh--node1-GEDQOX_clean_sbu_0--node2-MIDCAF_clean_linker_0--edge1-MIFKUJ_clean_linker_0
_symmetry_space_group_name_H-M    P1
_symmetry_Int_Tables_number       1
_symmetry_cell_setting            triclinic
loop_
_symmetry_equiv_pos_as_xyz
'x, y, z'
_cell_length_a     45.548154
_cell_length_b     44.103941
_cell_length_c     82.646907
_cell_angle_alpha  93.222675
_cell_angle_beta   90.880783
_cell_angle_gamma 108.43496
loop_
_atom_site_label
_atom_site_type_symbol
_atom_site_fract_x
_atom_site_fract_y
_atom_site_fract_z
_atom_type_partial_charge
Nd0 Nd 0.07998 0.53829 0.14511 0.0
Nd1 Nd 0.05968 0.46728 0.15036 0.0
C2 C 0.10735 0.59688 0.13607 0.0
C3 C 0.1367 0.62259 0.14038 0.0
C4 C 0.15438 0.63973 0.12815 0.0
C5 C 0.18232 0.66407 0.13206 0.0
C6 C 0.19296 0.67185 0.14831 0.0
C7 C 0.17528 0.65446 0.16052 0.0
C8 C 0.14753 0.62996 0.1566 0.0
C9 C 0.07243 0.52395 0.17693 0.0
C10 C 0.13362 0.50142 0.14854 0.0
C11 C 1.0343 0.40912 0.16055 0.0
C12 C 1.00361 0.38554 0.16248 0.0
C13 C 0.97706 0.39489 0.16437 0.0
C14 C 0.94827 0.37196 0.16656 0.0
C15 C 0.94557 0.33929 0.16689 0.0
C16 C 0.97225 0.33013 0.16472 0.0
C17 C 1.00094 0.35303 0.16255 0.0
C18 C 0.0686 0.4825 0.11871 0.0
C19 C 1.00619 0.50319 0.14512 0.0
O20 O 0.10967 0.57124 0.12817 0.0
O21 O 0.08663 0.59027 0.14725 0.0
O22 O 0.06485 0.54697 0.17084 0.0
O23 O 0.08505 0.51048 0.1666 0.0
O24 O 0.12624 0.52615 0.14343 0.0
O25 O 0.11216 0.4765 0.15395 0.0
O26 O 1.04176 0.43526 0.17014 0.0
O27 O 1.04302 0.41443 0.14569 0.0
O28 O 0.07622 0.45933 0.1247 0.0
O29 O 0.05538 0.49527 0.12901 0.0
O30 O 1.01358 0.47996 0.15199 0.0
O31 O 1.02789 0.52672 0.13881 0.0
H32 H 0.14652 0.63432 0.11556 0.0
H33 H 0.19534 0.67717 0.1224 0.0
H34 H 0.1831 0.65956 0.17313 0.0
H35 H 0.13457 0.6168 0.16627 0.0
H36 H 0.97864 0.4199 0.16432 0.0
H37 H 0.92828 0.3799 0.16833 0.0
H38 H 0.97097 0.30518 0.16461 0.0
H39 H 1.02115 0.34534 0.16099 0.0
Nd40 Nd 0.50944 1.00026 0.51408 0.0
Nd41 Nd 0.57745 0.02071 0.50532 0.0
C42 C 0.45426 0.97286 0.52577 0.0
C43 C 0.43056 0.94146 0.52255 0.0
C44 C 0.40446 0.93225 0.53211 0.0
C45 C 0.38151 0.90266 0.52875 0.0
C46 C 0.3843 0.88181 0.51574 0.0
C47 C 0.4108 0.89116 0.50632 0.0
C48 C 0.43372 0.92065 0.50972 0.0
C49 C 0.51992 0.00607 0.48167 0.0
C50 C 0.54441 0.94516 0.50777 0.0
C51 C 0.63137 0.04521 0.49172 0.0
C52 C 0.65531 0.0761 0.48966 0.0
C53 C 0.64779 0.10416 0.48751 0.0
C54 C 0.67119 0.13302 0.48531 0.0
C55 C 0.70248 0.1343 0.4853 0.0
C56 C 0.70976 0.1061 0.48767 0.0
C57 C 0.68641 0.07733 0.48978 0.0
C58 C 0.56742 0.01352 0.53767 0.0
C59 C 0.54348 0.07589 0.5136 0.0
O60 O 0.48008 0.9726 0.53284 0.0
O61 O 0.45889 0.99185 0.51381 0.0
O62 O 0.49836 0.01447 0.48887 0.0
O63 O 0.53381 0.9937 0.49128 0.0
O64 O 0.52122 0.95294 0.51429 0.0
O65 O 0.56769 0.96664 0.50135 0.0
O66 O 0.60464 0.03978 0.48406 0.0
O67 O 0.62875 0.03496 0.50633 0.0
O68 O 0.58933 0.00611 0.5302 0.0
O69 O 0.5532 0.0263 0.52841 0.0
O70 O 0.56557 0.06825 0.50575 0.0
O71 O 0.52114 0.05394 0.52041 0.0
H72 H 0.40176 0.948 0.54211 0.0
H73 H 0.36166 0.89607 0.53639 0.0
H74 H 0.41357 0.87601 0.49606 0.0
H75 H 0.45378 0.92742 0.50221 0.0
H76 H 0.62388 0.10372 0.48737 0.0
H77 H 0.66471 0.15417 0.48336 0.0
H78 H 0.73358 0.10626 0.48806 0.0
H79 H 0.69267 0.05596 0.49151 0.0
Nd80 Nd 0.50143 0.49295 0.83078 0.0
Nd81 Nd 0.56486 0.52138 0.84788 0.0
C82 C 0.45262 0.4815 0.81095 0.0
C83 C 0.44338 0.50195 0.79987 0.0
C84 C 0.4121 0.49548 0.7955 0.0
C85 C 0.40251 0.518 0.78752 0.0
C86 C 0.42408 0.54747 0.78401 0.0
C87 C 0.45565 0.55285 0.78744 0.0
C88 C 0.46528 0.53016 0.79521 0.0
C89 C 0.50197 0.49168 0.86396 0.0
C90 C 0.53041 0.57047 0.83889 0.0
C91 C 0.61467 0.53533 0.86708 0.0
C92 C 0.6435 0.5272 0.86601 0.0
C93 C 0.64304 0.49576 0.86166 0.0
C94 C 0.67044 0.48953 0.85785 0.0
C95 C 0.69852 0.51473 0.85811 0.0
C96 C 0.69913 0.54585 0.86322 0.0
C97 C 0.67184 0.55199 0.86721 0.0
C98 C 0.56619 0.52344 0.81481 0.0
C99 C 0.53658 0.44253 0.83854 0.0
O100 O 0.47729 0.47399 0.80712 0.0
O101 O 0.45243 0.48994 0.82637 0.0
O102 O 0.48457 0.46824 0.85442 0.0
O103 O 0.51694 0.51469 0.856 0.0
O104 O 0.51475 0.54748 0.82816 0.0
O105 O 0.54734 0.56444 0.8506 0.0
O106 O 0.58924 0.51203 0.86954 0.0
O107 O 0.61097 0.55407 0.85606 0.0
O108 O 0.58508 0.54499 0.82463 0.0
O109 O 0.54977 0.50054 0.82245 0.0
O110 O 0.55754 0.46664 0.84675 0.0
O111 O 0.51354 0.44678 0.8301 0.0
H112 H 0.39492 0.47385 0.79904 0.0
H113 H 0.37795 0.51339 0.78524 0.0
H114 H 0.47261 0.57533 0.78492 0.0
H115 H 0.48963 0.53547 0.79835 0.0
H116 H 0.62142 0.47625 0.86053 0.0
H117 H 0.66948 0.46536 0.85395 0.0
H118 H 0.72066 0.56556 0.86374 0.0
H119 H 0.67266 0.57638 0.87051 0.0
C120 C 0.47125 0.92116 0.22492 0.0
C121 C 0.4693 0.91838 0.2079 0.0
C122 C 0.49341 0.93859 0.19931 0.0
C123 C 0.51859 0.96149 0.2076 0.0
H124 H 0.59807 0.04387 0.20198 0.0
H125 H 0.64131 0.08185 0.189 0.0
H126 H 0.68852 0.11191 0.23569 0.0
H127 H 0.646 0.07434 0.24858 0.0
H128 H 0.59914 0.06478 0.27979 0.0
H129 H 0.59857 0.06799 0.30942 0.0
H130 H 0.54151 0.96894 0.30836 0.0
H131 H 0.54154 0.96568 0.27873 0.0
H132 H 0.4967 0.94514 0.24631 0.0
H133 H 0.45339 0.90561 0.23193 0.0
H134 H 0.49251 0.93713 0.18618 0.0
H135 H 0.53658 0.97692 0.20063 0.0
N136 N 0.56933 0.01029 0.22593 0.0
N137 N 0.59271 0.03417 0.25102 0.0
N138 N 0.54706 0.99071 0.25025 0.0
C139 C 0.59272 0.03289 0.23455 0.0
C140 C 0.57006 0.01319 0.25896 0.0
C141 C 0.54633 0.98907 0.23377 0.0
C142 C 0.61846 0.05588 0.22634 0.0
C143 C 0.6177 0.05856 0.20945 0.0
C144 C 0.64237 0.08041 0.20203 0.0
C145 C 0.66842 0.0997 0.21131 0.0
C146 C 0.66903 0.09706 0.22815 0.0
C147 C 0.64443 0.07556 0.23556 0.0
C148 C 0.57033 0.01498 0.27691 0.0
C149 C 0.58655 0.04364 0.28586 0.0
C150 C 0.58616 0.04556 0.3028 0.0
C151 C 0.57008 0.01869 0.31111 0.0
C152 C 0.55428 0.98991 0.30221 0.0
C153 C 0.55416 0.98814 0.28527 0.0
C154 C 0.52026 0.9645 0.22467 0.0
C155 C 0.49632 0.94383 0.23318 0.0
C156 C 0.52931 0.40258 0.55946 0.0
C157 C 0.53856 0.39861 0.54357 0.0
C158 C 0.54877 0.42572 0.53437 0.0
C159 C 0.54995 0.45613 0.54103 0.0
H160 H 0.52693 0.55102 0.53388 0.0
H161 H 0.52739 0.59974 0.52069 0.0
H162 H 0.58406 0.65766 0.56048 0.0
H163 H 0.58329 0.60944 0.57368 0.0
H164 H 0.5598 0.57945 0.60911 0.0
H165 H 0.55919 0.58405 0.63866 0.0
H166 H 0.53782 0.48157 0.63972 0.0
H167 H 0.53798 0.47676 0.61029 0.0
H168 H 0.52375 0.43473 0.57852 0.0
H169 H 0.52174 0.38239 0.56699 0.0
H170 H 0.55588 0.42342 0.52204 0.0
H171 H 0.55832 0.47659 0.53375 0.0
N172 N 0.54809 0.51834 0.55621 0.0
N173 N 0.55249 0.55043 0.58043 0.0
N174 N 0.54511 0.49571 0.58144 0.0
C175 C 0.55199 0.54759 0.56395 0.0
C176 C 0.54893 0.52461 0.58927 0.0
C177 C 0.54478 0.49223 0.56499 0.0
C178 C 0.55497 0.57639 0.55484 0.0
C179 C 0.53984 0.57417 0.53965 0.0
C180 C 0.53994 0.602 0.53217 0.0
C181 C 0.55578 0.63248 0.53956 0.0
C182 C 0.5719 0.63455 0.55441 0.0
C183 C 0.5713 0.60689 0.56201 0.0
C184 C 0.54889 0.52771 0.60725 0.0
C185 C 0.55491 0.55786 0.61562 0.0
C186 C 0.5547 0.56055 0.63257 0.0
C187 C 0.54831 0.53317 0.64152 0.0
C188 C 0.54234 0.50308 0.63317 0.0
C189 C 0.54267 0.50038 0.61626 0.0
C190 C 0.54135 0.46006 0.5571 0.0
C191 C 0.53072 0.4328 0.56613 0.0
C192 C 1.00841 0.53102 0.87443 0.0
C193 C 1.0052 0.53092 0.85748 0.0
C194 C 1.03161 0.54463 0.84856 0.0
C195 C 0.06038 0.55917 0.85648 0.0
H196 H 0.14558 0.61858 0.84889 0.0
H197 H 0.18966 0.63952 0.83219 0.0
H198 H 0.25084 0.66001 0.87469 0.0
H199 H 0.20646 0.63809 0.89156 0.0
H200 H 0.17485 0.59724 0.92527 0.0
H201 H 0.17675 0.5912 0.95459 0.0
H202 H 0.07962 0.58174 0.95657 0.0
H203 H 0.07754 0.58729 0.92747 0.0
H204 H 1.03849 0.54575 0.89544 0.0
H205 H 0.98847 0.52119 0.88172 0.0
H206 H 1.02992 0.54467 0.83547 0.0
H207 H 0.08014 0.57004 0.84924 0.0
N208 N 0.11811 0.59349 0.87359 0.0
N209 N 0.14852 0.60899 0.89767 0.0
N210 N 0.09623 0.57771 0.89837 0.0
C211 C 0.14572 0.60941 0.88126 0.0
C212 C 0.12366 0.59331 0.90628 0.0
C213 C 0.09331 0.57749 0.88202 0.0
C214 C 0.17247 0.62603 0.87157 0.0
C215 C 0.16833 0.62784 0.85479 0.0
C216 C 0.19365 0.64032 0.84519 0.0
C217 C 0.2238 0.65142 0.8521 0.0
C218 C 0.22787 0.65135 0.869 0.0
C219 C 0.20245 0.6388 0.87866 0.0
C220 C 0.12602 0.59258 0.92409 0.0
C221 C 0.15405 0.59425 0.93203 0.0
C222 C 0.15512 0.59065 0.94875 0.0
C223 C 0.12834 0.58609 0.95778 0.0
C224 C 0.10066 0.58553 0.94991 0.0
C225 C 0.09945 0.5885 0.93323 0.0
C226 C 0.06333 0.5603 0.87349 0.0
C227 C 1.03713 0.54547 0.88234 0.0
C228 C 0.15168 0.58686 0.43846 0.0
C229 C 0.14686 0.59576 0.45453 0.0
C230 C 0.11889 0.57939 0.46164 0.0
C231 C 0.09619 0.55466 0.45281 0.0
H232 H 1.01331 0.47556 0.45661 0.0
H233 H 0.97123 0.43443 0.46862 0.0
H234 H 0.94698 0.38332 0.42173 0.0
H235 H 0.98858 0.42381 0.40976 0.0
H236 H 1.00953 0.46783 0.37869 0.0
H237 H 1.01187 0.46707 0.34919 0.0
H238 H 0.10898 0.5219 0.35331 0.0
H239 H 0.10677 0.52301 0.38286 0.0
H240 H 0.13351 0.55657 0.41719 0.0
H241 H 0.17282 0.59926 0.43258 0.0
H242 H 0.11462 0.58565 0.47405 0.0
H243 H 0.07481 0.54263 0.45857 0.0
N244 N 0.05243 0.49998 0.43392 0.0
N245 N 1.03243 0.47599 0.4083 0.0
N246 N 0.0783 0.51926 0.41038 0.0
C247 C 1.03033 0.47716 0.42469 0.0
C248 C 0.05627 0.49691 0.40105 0.0
C249 C 0.07657 0.5211 0.42679 0.0
C250 C 1.0045 0.45303 0.43221 0.0
C251 C 0.99898 0.45556 0.44887 0.0
C252 C 0.97482 0.43212 0.45574 0.0
C253 C 0.95601 0.40555 0.44613 0.0
C254 C 0.96137 0.40326 0.4295 0.0
C255 C 0.98519 0.42668 0.42262 0.0
C256 C 0.05795 0.49558 0.38314 0.0
C257 C 1.03144 0.47962 0.37334 0.0
C258 C 1.03271 0.47927 0.35645 0.0
C259 C 0.06059 0.49444 0.34901 0.0
C260 C 0.08724 0.50984 0.35876 0.0
C261 C 0.08589 0.51063 0.37567 0.0
C262 C 0.10088 0.54616 0.43661 0.0
C263 C 0.12897 0.56249 0.4296 0.0
C264 C 0.52813 0.11188 0.79564 0.0
C265 C 0.53838 0.12059 0.81186 0.0
C266 C 0.54904 0.09932 0.82055 0.0
C267 C 0.54969 0.07013 0.81306 0.0
H268 H 0.51441 0.95179 0.8121 0.0
H269 H 0.51221 0.89974 0.82227 0.0
H270 H 0.58546 0.89497 0.79078 0.0
H271 H 0.58694 0.94616 0.78022 0.0
H272 H 0.55329 0.9583 0.74166 0.0
H273 H 0.55223 0.95677 0.71213 0.0
H274 H 0.54187 0.05091 0.7138 0.0
H275 H 0.54232 0.05234 0.74324 0.0
H276 H 0.52134 0.07761 0.77556 0.0
H277 H 0.52017 0.1278 0.78851 0.0
H278 H 0.55693 0.10529 0.8331 0.0
H279 H 0.55847 0.05447 0.81995 0.0
N280 N 0.54554 0.00733 0.79588 0.0
N281 N 0.5503 0.98117 0.77089 0.0
N282 N 0.54417 0.03182 0.77149 0.0
C283 C 0.54917 0.98144 0.78732 0.0
C284 C 0.54765 0.0062 0.76287 0.0
C285 C 0.54323 0.03281 0.78792 0.0
C286 C 0.55087 0.95294 0.79541 0.0
C287 C 0.53037 0.93984 0.8076 0.0
C288 C 0.52898 0.91008 0.81332 0.0
C289 C 0.54869 0.89351 0.80727 0.0
C290 C 0.57017 0.9074 0.79567 0.0
C291 C 0.57097 0.93661 0.78965 0.0
C292 C 0.54784 0.00542 0.74489 0.0
C293 C 0.55081 0.97872 0.73576 0.0
C294 C 0.55035 0.97787 0.71881 0.0
C295 C 0.54688 0.00368 0.71061 0.0
C296 C 0.54409 0.03042 0.71974 0.0
C297 C 0.54458 0.0313 0.73666 0.0
C298 C 0.54013 0.06195 0.79668 0.0
C299 C 0.52904 0.08308 0.78817 0.0
C300 C 0.66874 0.47739 0.1124 0.0
C301 C 0.6827 0.49092 0.12754 0.0
C302 C 0.66535 0.50431 0.13819 0.0
C303 C 0.63521 0.50442 0.13367 0.0
H304 H 0.52816 0.53821 0.13719 0.0
H305 H 0.47651 0.53937 0.14502 0.0
H306 H 0.43477 0.44961 0.11728 0.0
H307 H 0.48586 0.44886 0.10945 0.0
H308 H 0.52349 0.5198 0.07074 0.0
H309 H 0.51799 0.51918 0.0412 0.0
H310 H 0.58839 0.4733 0.03597 0.0
H311 H 0.59444 0.4744 0.06549 0.0
H312 H 0.62986 0.46732 0.09597 0.0
H313 H 0.68111 0.46731 0.10366 0.0
H314 H 0.67507 0.51479 0.15002 0.0
H315 H 0.62287 0.51549 0.14196 0.0
N316 N 0.56734 0.49489 0.12128 0.0
N317 N 0.53831 0.4971 0.09769 0.0
N318 N 0.58873 0.49535 0.09545 0.0
C319 C 0.54028 0.49606 0.11405 0.0
C320 C 0.56237 0.49694 0.08833 0.0
C321 C 0.59185 0.49445 0.1118 0.0
C322 C 0.51124 0.49316 0.1229 0.0
C323 C 0.50798 0.51821 0.1333 0.0
C324 C 0.47826 0.51897 0.13765 0.0
C325 C 0.45112 0.49488 0.13155 0.0
C326 C 0.45481 0.46901 0.12196 0.0
C327 C 0.48426 0.46828 0.11766 0.0
C328 C 0.55941 0.49716 0.07046 0.0
C329 C 0.53787 0.50967 0.0633 0.0
C330 C 0.53481 0.50946 0.04642 0.0
C331 C 0.55275 0.49616 0.03637 0.0
C332 C 0.5742 0.48356 0.04348 0.0
C333 C 0.57774 0.48436 0.06036 0.0
C334 C 0.62187 0.49153 0.11828 0.0
C335 C 0.63909 0.47767 0.1079 0.0
H336 H 0.18375 0.54698 0.1367 0.0
H337 H 0.23716 0.54657 0.13479 0.0
H338 H 0.2128 0.45677 0.15757 0.0
H339 H 0.15915 0.45668 0.15916 0.0
H340 H 0.28261 0.54868 0.15469 0.0
H341 H 0.25671 0.41176 0.14417 0.0
H342 H 0.21525 0.36449 0.13235 0.0
H343 H 0.18413 0.4243 0.10158 0.0
H344 H 0.22563 0.47183 0.11306 0.0
H345 H 0.42723 0.51513 0.15935 0.0
H346 H 0.37456 0.51717 0.16331 0.0
H347 H 0.34986 0.48275 0.1135 0.0
H348 H 0.40196 0.4802 0.10961 0.0
H349 H 0.30455 0.4534 0.13 0.0
H350 H 0.36278 0.56514 0.12885 0.0
H351 H 0.40412 0.61539 0.13726 0.0
H352 H 0.37115 0.61024 0.18575 0.0
H353 H 0.32962 0.55992 0.17761 0.0
C354 C 0.18965 0.52708 0.14133 0.0
C355 C 0.16675 0.50174 0.148 0.0
C356 C 0.22044 0.52695 0.14028 0.0
C357 C 0.22941 0.50146 0.14582 0.0
C358 C 0.20672 0.47651 0.15286 0.0
C359 C 0.17588 0.47655 0.15385 0.0
C360 C 0.26218 0.50077 0.14395 0.0
C361 C 0.28729 0.52773 0.14935 0.0
C362 C 0.26889 0.47384 0.13672 0.0
C363 C 0.24406 0.44537 0.12961 0.0
C364 C 0.24107 0.41479 0.13484 0.0
C365 C 0.21756 0.38796 0.12821 0.0
C366 C 0.197 0.39141 0.11626 0.0
C367 C 0.19999 0.42167 0.11088 0.0
C368 C 0.22348 0.44857 0.11746 0.0
C369 C 0.41065 0.50818 0.14921 0.0
C370 C 0.41911 0.49723 0.13418 0.0
C371 C 0.38037 0.50943 0.15147 0.0
C372 C 0.35776 0.50032 0.13869 0.0
C373 C 0.36639 0.48969 0.12368 0.0
C374 C 0.39642 0.48817 0.12146 0.0
C375 C 0.32509 0.50124 0.14084 0.0
C376 C 0.29994 0.47429 0.13548 0.0
C377 C 0.3184 0.52846 0.14773 0.0
C378 C 0.34331 0.55864 0.15266 0.0
C379 C 0.36447 0.57465 0.14132 0.0
C380 C 0.38788 0.60317 0.14603 0.0
C381 C 0.39031 0.61595 0.16204 0.0
C382 C 0.36929 0.60026 0.17336 0.0
C383 C 0.34574 0.57182 0.1687 0.0
H384 H 0.40842 0.63806 0.16566 0.0
H385 H 0.17881 0.37061 0.11116 0.0
H386 H 0.75428 0.14217 0.46756 0.0
H387 H 0.79679 0.19134 0.46441 0.0
H388 H 0.75007 0.24484 0.49355 0.0
H389 H 0.70753 0.19541 0.49712 0.0
H390 H 0.77463 0.27515 0.46588 0.0
H391 H 0.80937 0.22961 0.51027 0.0
H392 H 0.82019 0.18716 0.52511 0.0
H393 H 0.88449 0.17783 0.48922 0.0
H394 H 0.87371 0.21991 0.47402 0.0
H395 H 0.91188 0.41199 0.46708 0.0
H396 H 0.86842 0.36906 0.47704 0.0
H397 H 0.90017 0.29855 0.45091 0.0
H398 H 0.94363 0.34112 0.44115 0.0
H399 H 0.88213 0.28081 0.48116 0.0
H400 H 0.84241 0.32147 0.43533 0.0
H401 H 0.83116 0.36331 0.42015 0.0
H402 H 0.77611 0.38165 0.45891 0.0
H403 H 0.7874 0.34018 0.47442 0.0
C404 C 0.75311 0.16428 0.47347 0.0
C405 C 0.72759 0.1647 0.48276 0.0
C406 C 0.77741 0.19241 0.4716 0.0
C407 C 0.7768 0.22166 0.47894 0.0
C408 C 0.75103 0.22247 0.48783 0.0
C409 C 0.72668 0.19422 0.48979 0.0
C410 C 0.80325 0.2512 0.47722 0.0
C411 C 0.79808 0.27671 0.46952 0.0
C412 C 0.83387 0.25303 0.4818 0.0
C413 C 0.84054 0.22777 0.49093 0.0
C414 C 0.82564 0.21834 0.50547 0.0
C415 C 0.83179 0.19437 0.51396 0.0
C416 C 0.85297 0.17976 0.5081 0.0
C417 C 0.86808 0.18915 0.49374 0.0
C418 C 0.86198 0.21309 0.48519 0.0
C419 C 0.90975 0.3873 0.46366 0.0
C420 C 0.93098 0.37989 0.45323 0.0
C421 C 0.88485 0.36284 0.46926 0.0
C422 C 0.8809 0.33062 0.46458 0.0
C423 C 0.90272 0.32322 0.45465 0.0
C424 C 0.92741 0.34758 0.44899 0.0
C425 C 0.85361 0.30441 0.46947 0.0
C426 C 0.85864 0.27951 0.47777 0.0
C427 C 0.82289 0.30316 0.46544 0.0
C428 C 0.81607 0.32803 0.45612 0.0
C429 C 0.82813 0.33463 0.44068 0.0
C430 C 0.82171 0.35824 0.432 0.0
C431 C 0.80302 0.37521 0.43858 0.0
C432 C 0.79064 0.36854 0.45384 0.0
C433 C 0.79704 0.34498 0.46258 0.0
H434 H 0.79805 0.39347 0.43184 0.0
H435 H 0.85771 0.16121 0.51469 0.0
H436 H 0.56978 0.62595 0.85348 0.0
H437 H 0.57166 0.68077 0.849 0.0
H438 H 0.4923 0.64498 0.81592 0.0
H439 H 0.49105 0.59015 0.8199 0.0
H440 H 0.53217 0.69128 0.80333 0.0
H441 H 0.48922 0.67886 0.85583 0.0
H442 H 0.48591 0.66583 0.88451 0.0
H443 H 0.57267 0.73941 0.89567 0.0
H444 H 0.5767 0.7526 0.86701 0.0
H445 H 0.49819 0.84022 0.8033 0.0
H446 H 0.49466 0.78517 0.80916 0.0
H447 H 0.58883 0.8184 0.8281 0.0
H448 H 0.59285 0.87338 0.82175 0.0
H449 H 0.54089 0.77402 0.84796 0.0
H450 H 0.58053 0.78697 0.79431 0.0
H451 H 0.58127 0.79827 0.76546 0.0
H452 H 0.49639 0.72098 0.75622 0.0
H453 H 0.49452 0.7099 0.78516 0.0
C454 C 0.55253 0.62973 0.84538 0.0
C455 C 0.5302 0.60365 0.8371 0.0
C456 C 0.55354 0.66115 0.84287 0.0
C457 C 0.53183 0.66718 0.8323 0.0
C458 C 0.50931 0.64108 0.82415 0.0
C459 C 0.50856 0.60968 0.82647 0.0
C460 C 0.53334 0.70063 0.82924 0.0
C461 C 0.5335 0.70918 0.81311 0.0
C462 C 0.53578 0.72431 0.84197 0.0
C463 C 0.5334 0.71651 0.85924 0.0
C464 C 0.5077 0.6921 0.86438 0.0
C465 C 0.50568 0.68472 0.88063 0.0
C466 C 0.5291 0.70173 0.8919 0.0
C467 C 0.55456 0.72622 0.88693 0.0
C468 C 0.55671 0.73369 0.87068 0.0
C469 C 0.518 0.83574 0.80885 0.0
C470 C 0.54574 0.86092 0.81217 0.0
C471 C 0.516 0.80436 0.81209 0.0
C472 C 0.54147 0.79775 0.81898 0.0
C473 C 0.56892 0.82304 0.82277 0.0
C474 C 0.5712 0.85433 0.81916 0.0
C475 C 0.5395 0.76438 0.82211 0.0
C476 C 0.53931 0.75595 0.83823 0.0
C477 C 0.53645 0.74067 0.80936 0.0
C478 C 0.53706 0.74804 0.79203 0.0
C479 C 0.56165 0.77281 0.78623 0.0
C480 C 0.56233 0.7791 0.76982 0.0
C481 C 0.53879 0.76048 0.75903 0.0
C482 C 0.51454 0.73549 0.76461 0.0
C483 C 0.51361 0.72927 0.78103 0.0
H484 H 0.53942 0.76532 0.74632 0.0
H485 H 0.52749 0.69597 0.90448 0.0
H486 H 0.95658 0.46551 0.16121 0.0
H487 H 0.90227 0.46366 0.15935 0.0
H488 H 0.92555 0.5368 0.12497 0.0
H489 H 0.97991 0.53888 0.12682 0.0
H490 H 0.87244 0.50797 0.16599 0.0
H491 H 0.86497 0.52052 0.09687 0.0
H492 H 0.88857 0.50707 0.07191 0.0
H493 H 0.90861 0.43057 0.09488 0.0
H494 H 0.88483 0.4433 0.11988 0.0
H495 H 0.73031 0.53848 0.14427 0.0
H496 H 0.78443 0.54067 0.14845 0.0
H497 H 0.76386 0.44709 0.12395 0.0
H498 H 0.70996 0.4445 0.11998 0.0
H499 H 0.81553 0.48493 0.11275 0.0
H500 H 0.7772 0.45993 0.16568 0.0
H501 H 0.75188 0.46725 0.1911 0.0
H502 H 0.8206 0.55911 0.20134 0.0
H503 H 0.84612 0.5525 0.17586 0.0
C504 C 0.95024 0.48123 0.15323 0.0
C505 C 0.9729 0.50226 0.14412 0.0
C506 C 0.91905 0.48027 0.15225 0.0
C507 C 0.90943 0.49995 0.14195 0.0
C508 C 0.93206 0.52113 0.13292 0.0
C509 C 0.96331 0.52235 0.13403 0.0
C510 C 0.8758 0.49793 0.14042 0.0
C511 C 0.8601 0.50311 0.15432 0.0
C512 C 0.85915 0.49099 0.1253 0.0
C513 C 0.8734 0.4831 0.11029 0.0
C514 C 0.87435 0.50079 0.09657 0.0
C515 C 0.88777 0.4933 0.08243 0.0
C516 C 0.90012 0.46802 0.08183 0.0
C517 C 0.89911 0.4502 0.09538 0.0
C518 C 0.88572 0.45758 0.10955 0.0
C519 C 0.7371 0.51809 0.14 0.0
C520 C 0.71539 0.49143 0.13163 0.0
C521 C 0.76827 0.51943 0.14235 0.0
C522 C 0.77867 0.49408 0.13648 0.0
C523 C 0.75687 0.46721 0.12847 0.0
C524 C 0.72582 0.46581 0.12617 0.0
C525 C 0.81218 0.49557 0.13829 0.0
C526 C 0.82789 0.49018 0.12442 0.0
C527 C 0.82866 0.50182 0.15348 0.0
C528 C 0.81337 0.50587 0.16878 0.0
C529 C 0.78676 0.48181 0.17329 0.0
C530 C 0.7724 0.4858 0.18772 0.0
C531 C 0.78457 0.51367 0.1978 0.0
C532 C 0.81117 0.53756 0.1935 0.0
C533 C 0.8256 0.53369 0.17907 0.0
H534 H 0.77342 0.51672 0.20897 0.0
H535 H 0.91036 0.46214 0.07085 0.0
H536 H 0.39082 0.82398 0.50571 0.0
H537 H 0.35001 0.77424 0.49721 0.0
H538 H 0.28068 0.81916 0.50838 0.0
H539 H 0.32135 0.8693 0.51657 0.0
H540 H 0.26558 0.75687 0.51869 0.0
H541 H 0.29876 0.81217 0.47037 0.0
H542 H 0.33696 0.83997 0.45089 0.0
H543 H 0.36382 0.75567 0.44224 0.0
H544 H 0.32608 0.7275 0.46186 0.0
H545 H 0.1385 0.64585 0.47287 0.0
H546 H 0.1785 0.69275 0.48543 0.0
H547 H 0.24919 0.65339 0.46902 0.0
H548 H 0.20932 0.60675 0.45626 0.0
H549 H 0.26365 0.71312 0.46191 0.0
H550 H 0.23012 0.657 0.50969 0.0
H551 H 0.19259 0.629 0.5294 0.0
H552 H 0.16693 0.71368 0.53937 0.0
H553 H 0.20403 0.74208 0.51954 0.0
C554 C 0.36692 0.8234 0.50629 0.0
C555 C 0.35944 0.85082 0.51169 0.0
C556 C 0.34361 0.79487 0.50151 0.0
C557 C 0.31233 0.79312 0.50202 0.0
C558 C 0.30469 0.82001 0.50793 0.0
C559 C 0.328 0.84863 0.51265 0.0
C560 C 0.28771 0.76362 0.49575 0.0
C561 C 0.26489 0.74743 0.50623 0.0
C562 C 0.28725 0.75103 0.47959 0.0
C563 C 0.30982 0.76784 0.4677 0.0
C564 C 0.31299 0.79965 0.46441 0.0
C565 C 0.33453 0.81545 0.45333 0.0
C566 C 0.35286 0.79962 0.44536 0.0
C567 C 0.34964 0.76791 0.44843 0.0
C568 C 0.32816 0.75201 0.45953 0.0
C569 C 0.16255 0.64697 0.47219 0.0
C570 C 0.17079 0.62267 0.46354 0.0
C571 C 0.18541 0.67379 0.47938 0.0
C572 C 0.21692 0.67658 0.47826 0.0
C573 C 0.22508 0.65189 0.46999 0.0
C574 C 0.20228 0.62525 0.4627 0.0
C575 C 0.24148 0.70596 0.48488 0.0
C576 C 0.26429 0.72233 0.47441 0.0
C577 C 0.24196 0.71857 0.50107 0.0
C578 C 0.21964 0.70157 0.51301 0.0
C579 C 0.2163 0.66958 0.51598 0.0
C580 C 0.19513 0.65365 0.5272 0.0
C581 C 0.17733 0.66952 0.5356 0.0
C582 C 0.18071 0.7014 0.53284 0.0
C583 C 0.20182 0.71743 0.52162 0.0
H584 H 0.16096 0.65715 0.54428 0.0
H585 H 0.36952 0.8119 0.43678 0.0
H586 H 0.58289 0.42334 0.85211 0.0
H587 H 0.58613 0.36889 0.85191 0.0
H588 H 0.49872 0.33299 0.82516 0.0
H589 H 0.4952 0.38698 0.82535 0.0
H590 H 0.5018 0.29542 0.84985 0.0
H591 H 0.56684 0.34488 0.80622 0.0
H592 H 0.61048 0.38627 0.79505 0.0
H593 H 0.67416 0.36301 0.82712 0.0
H594 H 0.63081 0.32173 0.83862 0.0
H595 H 0.49336 0.14899 0.80929 0.0
H596 H 0.49626 0.20347 0.81826 0.0
H597 H 0.58676 0.21883 0.84023 0.0
H598 H 0.58436 0.1643 0.83077 0.0
H599 H 0.58726 0.26779 0.82278 0.0
H600 H 0.52382 0.21327 0.86377 0.0
H601 H 0.48079 0.17221 0.87553 0.0
H602 H 0.41506 0.20506 0.84992 0.0
H603 H 0.45769 0.24604 0.83782 0.0
C604 C 0.56435 0.40387 0.8462 0.0
C605 C 0.53887 0.40967 0.83868 0.0
C606 C 0.56627 0.37274 0.84608 0.0
C607 C 0.54273 0.34685 0.83844 0.0
C608 C 0.51712 0.35255 0.83115 0.0
C609 C 0.51525 0.38356 0.83121 0.0
C610 C 0.54467 0.31375 0.83768 0.0
C611 C 0.52039 0.28932 0.84387 0.0
C612 C 0.56952 0.30595 0.83043 0.0
C613 C 0.59557 0.3305 0.8234 0.0
C614 C 0.59013 0.34876 0.81096 0.0
C615 C 0.61481 0.37216 0.80456 0.0
C616 C 0.64506 0.37734 0.81041 0.0
C617 C 0.65071 0.35902 0.82263 0.0
C618 C 0.6261 0.3356 0.82908 0.0
C619 C 0.51383 0.16386 0.81612 0.0
C620 C 0.53869 0.15231 0.81924 0.0
C621 C 0.51535 0.19498 0.82138 0.0
C622 C 0.54162 0.21529 0.83007 0.0
C623 C 0.56621 0.2036 0.83359 0.0
C624 C 0.56469 0.17234 0.82831 0.0
C625 C 0.54383 0.24918 0.83451 0.0
C626 C 0.56889 0.27382 0.82903 0.0
C627 C 0.51979 0.25722 0.84254 0.0
C628 C 0.494 0.23263 0.8498 0.0
C629 C 0.50019 0.2116 0.86055 0.0
C630 C 0.47586 0.18836 0.86729 0.0
C631 C 0.44521 0.18599 0.86345 0.0
C632 C 0.43882 0.20692 0.85288 0.0
C633 C 0.46306 0.23019 0.8461 0.0
H634 H 0.42641 0.16798 0.86869 0.0
H635 H 0.66414 0.39548 0.80545 0.0
H636 H 0.59374 0.9227 0.50491 0.0
H637 H 0.59424 0.86799 0.50758 0.0
H638 H 0.4954 0.83669 0.51356 0.0
H639 H 0.49504 0.89165 0.51162 0.0
H640 H 0.51934 0.81136 0.5347 0.0
H641 H 0.53181 0.81872 0.4777 0.0
H642 H 0.5548 0.84194 0.45259 0.0
H643 H 0.64197 0.83183 0.46712 0.0
H644 H 0.61961 0.80893 0.49243 0.0
H645 H 0.50434 0.64545 0.52869 0.0
H646 H 0.50109 0.69684 0.52032 0.0
H647 H 0.60023 0.73813 0.52641 0.0
H648 H 0.60359 0.68689 0.53489 0.0
H649 H 0.57403 0.75627 0.49785 0.0
H650 H 0.55995 0.75111 0.55571 0.0
H651 H 0.53502 0.72652 0.58014 0.0
H652 H 0.44742 0.73088 0.56242 0.0
H653 H 0.47178 0.75507 0.53775 0.0
C654 C 0.57206 0.90409 0.50662 0.0
C655 C 0.54436 0.91154 0.50804 0.0
C656 C 0.57233 0.87271 0.50807 0.0
C657 C 0.54478 0.84789 0.51055 0.0
C658 C 0.517 0.85528 0.51167 0.0
C659 C 0.51681 0.88675 0.51052 0.0
C660 C 0.54514 0.81464 0.51284 0.0
C661 C 0.53083 0.7992 0.52642 0.0
C662 C 0.56057 0.7987 0.50227 0.0
C663 C 0.57409 0.81236 0.48703 0.0
C664 C 0.55594 0.82165 0.4756 0.0
C665 C 0.56885 0.83473 0.46132 0.0
C666 C 0.59984 0.83843 0.45828 0.0
C667 C 0.61797 0.82898 0.4695 0.0
C668 C 0.60518 0.81592 0.48381 0.0
C669 C 0.52548 0.66532 0.52793 0.0
C670 C 0.55421 0.66221 0.53249 0.0
C671 C 0.52358 0.69468 0.52324 0.0
C672 C 0.55041 0.72134 0.52285 0.0
C673 C 0.57927 0.71786 0.52662 0.0
C674 C 0.58113 0.68865 0.53153 0.0
C675 C 0.54823 0.75337 0.5196 0.0
C676 C 0.56229 0.76851 0.50594 0.0
C677 C 0.53222 0.76891 0.52994 0.0
C678 C 0.51761 0.75455 0.54481 0.0
C679 C 0.53532 0.74656 0.55696 0.0
C680 C 0.5213 0.73274 0.57086 0.0
C681 C 0.48963 0.72705 0.57281 0.0
C682 C 0.47193 0.73524 0.56088 0.0
C683 C 0.48583 0.74902 0.54694 0.0
H684 H 0.47882 0.71636 0.58359 0.0
H685 H 0.6098 0.84856 0.44722 0.0
H686 H 0.72405 0.46987 0.86745 0.0
H687 H 0.77452 0.46532 0.85996 0.0
H688 H 0.78648 0.54172 0.82775 0.0
H689 H 0.73661 0.54685 0.83552 0.0
H690 H 0.80465 0.45565 0.83228 0.0
H691 H 0.85907 0.5926 0.83337 0.0
H692 H 0.8497 0.64142 0.84495 0.0
H693 H 0.80295 0.58972 0.88457 0.0
H694 H 0.81245 0.54077 0.87336 0.0
H695 H 0.98285 0.55895 0.83365 0.0
H696 H 0.92881 0.54773 0.8251 0.0
H697 H 0.9023 0.46778 0.85555 0.0
H698 H 0.9565 0.47804 0.86363 0.0
H699 H 0.89072 0.55547 0.84732 0.0
H700 H 0.83056 0.41714 0.8442 0.0
H701 H 0.84051 0.36821 0.83336 0.0
H702 H 0.90106 0.42223 0.79852 0.0
H703 H 0.89114 0.47139 0.80897 0.0
C704 C 0.73735 0.48531 0.85861 0.0
C705 C 0.72697 0.50918 0.85232 0.0
C706 C 0.76599 0.48258 0.85426 0.0
C707 C 0.78437 0.50353 0.8435 0.0
C708 C 0.77285 0.5257 0.83628 0.0
C709 C 0.74452 0.52873 0.84079 0.0
C710 C 0.81693 0.50493 0.84137 0.0
C711 C 0.82358 0.47736 0.8356 0.0
C712 C 0.84148 0.53353 0.84537 0.0
C713 C 0.83614 0.56297 0.85241 0.0
C714 C 0.84689 0.59171 0.84458 0.0
C715 C 0.84155 0.61939 0.85108 0.0
C716 C 0.82564 0.61864 0.86545 0.0
C717 C 0.81517 0.59024 0.87341 0.0
C718 C 0.82051 0.56253 0.86698 0.0
C719 C 0.96572 0.53815 0.83801 0.0
C720 C 0.97388 0.51968 0.84954 0.0
C721 C 0.93479 0.53187 0.83316 0.0
C722 C 0.91151 0.50706 0.83975 0.0
C723 C 0.91987 0.48688 0.85017 0.0
C724 C 0.95083 0.49304 0.85496 0.0
C725 C 0.8788 0.50609 0.83828 0.0
C726 C 0.87199 0.53383 0.84357 0.0
C727 C 0.85432 0.47759 0.83393 0.0
C728 C 0.86027 0.44805 0.82748 0.0
C729 C 0.84589 0.41858 0.83418 0.0
C730 C 0.85155 0.39079 0.8281 0.0
C731 C 0.87147 0.39213 0.81529 0.0
C732 C 0.88573 0.42124 0.80849 0.0
C733 C 0.88014 0.4491 0.81451 0.0
H734 H 0.87582 0.37059 0.8106 0.0
H735 H 0.82149 0.64007 0.87044 0.0
H736 H 0.2488 0.68412 0.1337 0.0
H737 H 0.2972 0.72705 0.14121 0.0
H738 H 0.25169 0.76167 0.18008 0.0
H739 H 0.20326 0.71909 0.17255 0.0
H740 H 0.28801 0.8105 0.16254 0.0
H741 H 0.29707 0.71835 0.18839 0.0
H742 H 0.29642 0.66227 0.18866 0.0
H743 H 0.37157 0.6814 0.15598 0.0
H744 H 0.37236 0.73758 0.15533 0.0
H745 H 0.40853 0.90508 0.21536 0.0
H746 H 0.36364 0.86421 0.20251 0.0
H747 H 0.42258 0.83726 0.16805 0.0
H748 H 0.46799 0.87781 0.1812 0.0
H749 H 0.38172 0.78496 0.18013 0.0
H750 H 0.37586 0.87868 0.1562 0.0
H751 H 0.37563 0.93441 0.15547 0.0
H752 H 0.29438 0.91244 0.18397 0.0
H753 H 0.29437 0.85666 0.18507 0.0
C754 C 0.24908 0.70105 0.14376 0.0
C755 C 0.22226 0.69815 0.15258 0.0
C756 C 0.27677 0.72543 0.1481 0.0
C757 C 0.27809 0.74743 0.16127 0.0
C758 C 0.2512 0.74494 0.16988 0.0
C759 C 0.22362 0.72045 0.16565 0.0
C760 C 0.30753 0.77283 0.16631 0.0
C761 C 0.30844 0.80494 0.1665 0.0
C762 C 0.33446 0.76558 0.17101 0.0
C763 C 0.33452 0.73205 0.17165 0.0
C764 C 0.31332 0.71055 0.18117 0.0
C765 C 0.31294 0.67877 0.18141 0.0
C766 C 0.33384 0.66826 0.17228 0.0
C767 C 0.35534 0.68958 0.163 0.0
C768 C 0.35577 0.7214 0.16271 0.0
C769 C 0.41203 0.89042 0.20507 0.0
C770 C 0.44189 0.89464 0.19934 0.0
C771 C 0.38627 0.86724 0.19763 0.0
C772 C 0.38966 0.84783 0.1842 0.0
C773 C 0.4194 0.85202 0.17836 0.0
C774 C 0.44528 0.87536 0.1858 0.0
C775 C 0.36207 0.82272 0.17664 0.0
C776 C 0.36146 0.79063 0.17597 0.0
C777 C 0.3354 0.82999 0.17146 0.0
C778 C 0.33527 0.86352 0.17082 0.0
C779 C 0.35808 0.88578 0.16242 0.0
C780 C 0.35797 0.91738 0.16192 0.0
C781 C 0.33504 0.92697 0.1697 0.0
C782 C 0.31214 0.90497 0.17796 0.0
C783 C 0.31216 0.87335 0.1785 0.0
H784 H 0.335 0.95145 0.1693 0.0
H785 H 0.33334 0.6436 0.17241 0.0
H786 H 0.50022 0.0999 0.52702 0.0
H787 H 0.50086 0.15551 0.5293 0.0
H788 H 0.58843 0.18464 0.50585 0.0
H789 H 0.58812 0.12893 0.50359 0.0
H790 H 0.5881 0.2244 0.53233 0.0
H791 H 0.52331 0.18147 0.48512 0.0
H792 H 0.48027 0.14284 0.46898 0.0
H793 H 0.41486 0.16286 0.50131 0.0
H794 H 0.45756 0.20128 0.5178 0.0
H795 H 0.58309 0.3831 0.52599 0.0
H796 H 0.58502 0.32944 0.51793 0.0
H797 H 0.49632 0.28753 0.53893 0.0
H798 H 0.49385 0.34094 0.54658 0.0
H799 H 0.4999 0.25538 0.51106 0.0
H800 H 0.56443 0.2942 0.55948 0.0
H801 H 0.60716 0.33209 0.57617 0.0
H802 H 0.67271 0.31924 0.54183 0.0
H803 H 0.63029 0.28157 0.52482 0.0
C804 C 0.51966 0.11806 0.52233 0.0
C805 C 0.54408 0.10983 0.51507 0.0
C806 C 0.5199 0.14989 0.52357 0.0
C807 C 0.5445 0.17426 0.51756 0.0
C808 C 0.56914 0.16624 0.51051 0.0
C809 C 0.56888 0.13433 0.5092 0.0
C810 C 0.54451 0.20807 0.51887 0.0
C811 C 0.56909 0.2313 0.52741 0.0
C812 C 0.51945 0.21702 0.51271 0.0
C813 C 0.49368 0.19407 0.50277 0.0
C814 C 0.49977 0.17746 0.48886 0.0
C815 C 0.47542 0.15563 0.47964 0.0
C816 C 0.44485 0.15035 0.48413 0.0
C817 C 0.43856 0.16696 0.49785 0.0
C818 C 0.46282 0.18879 0.50713 0.0
C819 C 0.56374 0.36247 0.52861 0.0
C820 C 0.53845 0.36634 0.53707 0.0
C821 C 0.56501 0.33178 0.52414 0.0
C822 C 0.54106 0.30437 0.52806 0.0
C823 C 0.51517 0.30825 0.53583 0.0
C824 C 0.5139 0.33883 0.54031 0.0
C825 C 0.54328 0.27162 0.52472 0.0
C826 C 0.51909 0.24857 0.51581 0.0
C827 C 0.56865 0.26281 0.53057 0.0
C828 C 0.59417 0.28538 0.54079 0.0
C829 C 0.58794 0.29966 0.55543 0.0
C830 C 0.6121 0.32106 0.56495 0.0
C831 C 0.64262 0.32815 0.56004 0.0
C832 C 0.64905 0.31378 0.54561 0.0
C833 C 0.62497 0.2924 0.53602 0.0
H834 H 0.6613 0.34471 0.56743 0.0
H835 H 0.42603 0.13344 0.47697 0.0
H836 H 0.38097 0.54749 0.76052 0.0
H837 H 0.35092 0.58466 0.76034 0.0
H838 H 0.41058 0.64337 0.79901 0.0
H839 H 0.44111 0.60727 0.79868 0.0
H840 H 0.31936 0.58304 0.78458 0.0
H841 H 0.39864 0.71261 0.80862 0.0
H842 H 0.44384 0.75542 0.80014 0.0
H843 H 0.43067 0.7127 0.75152 0.0
H844 H 0.38456 0.67005 0.75954 0.0
H845 H 0.27514 0.63309 0.85527 0.0
H846 H 0.31262 0.63284 0.83466 0.0
H847 H 0.27018 0.68345 0.80351 0.0
H848 H 0.23257 0.68445 0.82434 0.0
H849 H 0.34317 0.69716 0.80363 0.0
H850 H 0.24397 0.61749 0.79294 0.0
H851 H 0.19612 0.57731 0.8011 0.0
H852 H 0.24948 0.52183 0.82011 0.0
H853 H 0.2977 0.56205 0.81237 0.0
C854 C 0.38843 0.56918 0.76841 0.0
C855 C 0.41289 0.5742 0.77984 0.0
C856 C 0.37134 0.59049 0.76829 0.0
C857 C 0.37802 0.61661 0.77986 0.0
C858 C 0.40494 0.62373 0.78981 0.0
C859 C 0.42237 0.60281 0.78971 0.0
C860 C 0.35327 0.63022 0.78478 0.0
C861 C 0.32451 0.60824 0.78823 0.0
C862 C 0.35943 0.66313 0.7895 0.0
C863 C 0.38795 0.68803 0.78471 0.0
C864 C 0.40517 0.71235 0.79608 0.0
C865 C 0.43103 0.73663 0.79135 0.0
C866 C 0.44013 0.73684 0.7753 0.0
C867 C 0.42355 0.71254 0.76396 0.0
C868 C 0.39752 0.68827 0.76859 0.0
C869 C 0.27445 0.6454 0.84437 0.0
C870 C 0.25064 0.65848 0.84137 0.0
C871 C 0.29585 0.64511 0.83256 0.0
C872 C 0.29384 0.65784 0.81758 0.0
C873 C 0.27199 0.67354 0.81504 0.0
C874 C 0.25043 0.67382 0.82688 0.0
C875 C 0.31117 0.6496 0.80403 0.0
C876 C 0.33815 0.67238 0.79919 0.0
C877 C 0.30341 0.61753 0.79777 0.0
C878 C 0.27444 0.59287 0.80213 0.0
C879 C 0.2455 0.59683 0.79896 0.0
C880 C 0.21832 0.57405 0.8035 0.0
C881 C 0.21976 0.54705 0.81113 0.0
C882 C 0.2484 0.54276 0.8142 0.0
C883 C 0.27566 0.56553 0.80972 0.0
H884 H 0.19869 0.52943 0.81464 0.0
H885 H 0.46 0.75588 0.77165 0.0
H886 H 0.88779 0.33505 0.15466 0.0
H887 H 0.83835 0.29425 0.15937 0.0
H888 H 0.88544 0.24739 0.19022 0.0
H889 H 0.93473 0.28806 0.18571 0.0
H890 H 0.845 0.20465 0.16949 0.0
H891 H 0.8439 0.29399 0.2059 0.0
H892 H 0.84642 0.34987 0.2129 0.0
H893 H 0.76749 0.33834 0.18123 0.0
H894 H 0.76476 0.28246 0.17388 0.0
H895 H 0.72982 0.10918 0.21724 0.0
H896 H 0.77399 0.1493 0.20647 0.0
H897 H 0.71206 0.18205 0.17731 0.0
H898 H 0.66747 0.14206 0.18834 0.0
H899 H 0.75656 0.23186 0.19342 0.0
H900 H 0.75428 0.14056 0.15929 0.0
H901 H 0.75158 0.08455 0.15255 0.0
H902 H 0.83658 0.09955 0.17977 0.0
H903 H 0.83958 0.15554 0.18688 0.0
C904 C 0.88758 0.31622 0.16257 0.0
C905 C 0.91529 0.31482 0.16977 0.0
C906 C 0.8593 0.29286 0.16521 0.0
C907 C 0.85815 0.26779 0.1752 0.0
C908 C 0.88576 0.26636 0.18238 0.0
C909 C 0.91397 0.28962 0.17974 0.0
C910 C 0.82833 0.2429 0.17827 0.0
C911 C 0.82574 0.2106 0.17483 0.0
C912 C 0.8028 0.25066 0.18473 0.0
C913 C 0.80436 0.28419 0.18919 0.0
C914 C 0.82724 0.30345 0.20033 0.0
C915 C 0.82868 0.33511 0.20438 0.0
C916 C 0.80719 0.34768 0.19748 0.0
C917 C 0.78416 0.32859 0.18655 0.0
C918 C 0.78264 0.29692 0.18244 0.0
C919 C 0.72556 0.12487 0.20851 0.0
C920 C 0.69513 0.12253 0.20368 0.0
C921 C 0.75085 0.14765 0.20226 0.0
C922 C 0.74638 0.16854 0.19098 0.0
C923 C 0.71605 0.1661 0.18597 0.0
C924 C 0.69063 0.14311 0.19218 0.0
C925 C 0.77354 0.1936 0.185 0.0
C926 C 0.77563 0.22591 0.18787 0.0
C927 C 0.79865 0.18587 0.178 0.0
C928 C 0.79703 0.15221 0.17371 0.0
C929 C 0.77228 0.13186 0.16394 0.0
C930 C 0.77072 0.10012 0.16004 0.0
C931 C 0.79386 0.08848 0.16575 0.0
C932 C 0.81866 0.10859 0.17536 0.0
C933 C 0.82033 0.14035 0.17931 0.0
H934 H 0.79261 0.0639 0.16272 0.0
H935 H 0.80834 0.37219 0.20063 0.0
H936 H 0.05841 0.53393 0.10596 0.0
H937 H 0.07204 0.55388 0.0792 0.0
H938 H 0.10908 0.47672 0.06784 0.0
H939 H 0.09634 0.45723 0.09488 0.0
H940 H 0.14659 0.53218 0.05805 0.0
H941 H 1.03686 0.47504 0.05321 0.0
H942 H 0.98245 0.46258 0.06103 0.0
H943 H 0.98547 0.55889 0.05315 0.0
H944 H 1.04001 0.57207 0.0455 0.0
H945 H 0.14957 0.54262 0.97221 0.0
H946 H 0.14287 0.52746 0.00028 0.0
H947 H 0.10044 0.60085 0.01065 0.0
H948 H 0.10627 0.61532 0.98245 0.0
H949 H 0.06626 0.54773 0.02122 0.0
H950 H 0.17473 0.60569 0.02587 0.0
H951 H 0.22953 0.62001 0.01862 0.0
H952 H 0.22973 0.525 0.02731 0.0
H953 H 0.17479 0.50996 0.0344 0.0
C954 C 0.06944 0.52121 0.09775 0.0
C955 C 0.07618 0.49394 0.10242 0.0
C956 C 0.07712 0.53257 0.08244 0.0
C957 C 0.09116 0.51651 0.07142 0.0
C958 C 0.09819 0.48942 0.07614 0.0
C959 C 0.09076 0.47822 0.09153 0.0
C960 C 0.09838 0.52792 0.05496 0.0
C961 C 0.12898 0.53522 0.04989 0.0
C962 C 0.07555 0.5327 0.04451 0.0
C963 C 1.0426 0.5246 0.04891 0.0
C964 C 1.02597 0.49361 0.05324 0.0
C965 C 0.9951 0.48642 0.05763 0.0
C966 C 0.98055 0.50996 0.05762 0.0
C967 C 0.99679 0.5407 0.05317 0.0
C968 C 1.02766 0.54803 0.04879 0.0
C969 C 0.13941 0.55591 0.9806 0.0
C970 C 0.12841 0.5801 0.97522 0.0
C971 C 0.13561 0.54727 -0.00336 0.0
C972 C 0.12131 0.56314 0.00764 0.0
C973 C 0.11142 0.58817 0.00238 0.0
C974 C 0.11482 0.59648 0.98631 0.0
C975 C 0.11459 0.55221 0.02426 0.0
C976 C 0.08399 0.54485 0.02935 0.0
C977 C 0.13748 0.54762 0.03475 0.0
C978 C 0.17055 0.55662 0.03052 0.0
C979 C 0.18639 0.58777 0.02611 0.0
C980 C 0.21749 0.59603 0.02205 0.0
C981 C 0.23308 0.57341 0.02246 0.0
C982 C 0.21762 0.54249 0.02698 0.0
C983 C 0.1865 0.5341 0.03103 0.0
H984 H 0.25716 0.57985 0.01932 0.0
H985 H 0.95668 0.50439 0.06103 0.0
H986 H 0.55795 0.98137 0.46402 0.0
H987 H 0.56912 0.98715 0.43532 0.0
H988 H 0.50975 0.04605 0.43191 0.0
H989 H 0.49772 0.03937 0.46052 0.0
H990 H 0.49878 0.00564 0.40696 0.0
H991 H 0.59001 0.0784 0.43234 0.0
H992 H 0.63482 0.09638 0.45164 0.0
H993 H 0.67243 0.02707 0.42941 0.0
H994 H 0.62763 0.00842 0.41004 0.0
H995 H 0.5538 0.0627 0.33023 0.0
H996 H 0.54856 0.06405 0.35976 0.0
H997 H 0.57905 0.98118 0.36183 0.0
H998 H 0.58373 0.97932 0.33225 0.0
H999 H 0.60603 0.03723 0.38728 0.0
H1000 H 0.50966 0.96397 0.36274 0.0
H1001 H 0.46453 0.9501 0.34367 0.0
H1002 H 0.43724 0.02766 0.36503 0.0
H1003 H 0.48254 0.0423 0.38407 0.0
C1004 C 0.54733 0.99557 0.45713 0.0
C1005 C 0.52696 0.00991 0.46443 0.0
C1006 C 0.55388 0.99905 0.44076 0.0
C1007 C 0.54064 0.01744 0.43148 0.0
C1008 C 0.52026 0.03178 0.43881 0.0
C1009 C 0.51343 0.02799 0.45515 0.0
C1010 C 0.5473 0.02086 0.41402 0.0
C1011 C 0.52228 0.01303 0.40273 0.0
C1012 C 0.57795 0.0303 0.40842 0.0
C1013 C 0.6053 0.04182 0.41981 0.0
C1014 C 0.60775 0.06686 0.43161 0.0
C1015 C 0.63315 0.07718 0.44257 0.0
C1016 C 0.6564 0.06279 0.4418 0.0
C1017 C 0.65437 0.03817 0.43 0.0
C1018 C 0.629 0.02775 0.41901 0.0
C1019 C 0.55972 0.04503 0.33703 0.0
C1020 C 0.56905 0.02083 0.32902 0.0
C1021 C 0.55672 0.04582 0.35384 0.0
C1022 C 0.56348 0.02275 0.3629 0.0
C1023 C 0.57389 0.99926 0.35501 0.0
C1024 C 0.57633 0.99809 0.33816 0.0
C1025 C 0.55752 0.02174 0.38043 0.0
C1026 C 0.58264 0.03003 0.39165 0.0
C1027 C 0.52701 0.01341 0.38603 0.0
C1028 C 0.49967 0.00445 0.37468 0.0
C1029 C 0.4942 0.97825 0.36326 0.0
C1030 C 0.46856 0.97021 0.35248 0.0
C1031 C 0.44808 0.98805 0.3531 0.0
C1032 C 0.45315 0.0139 0.36454 0.0
C1033 C 0.4788 0.02207 0.37533 0.0
H1034 H 0.42823 0.98178 0.34475 0.0
H1035 H 0.67602 0.07079 0.45032 0.0
H1036 H 0.601 0.57127 0.79711 0.0
H1037 H 0.59731 0.57583 0.76787 0.0
H1038 H 0.52181 0.48673 0.76363 0.0
H1039 H 0.52738 0.48087 0.79261 0.0
H1040 H 0.55799 0.48649 0.74089 0.0
H1041 H 0.51562 0.56763 0.76274 0.0
H1042 H 0.51667 0.61664 0.77917 0.0
H1043 H 0.59348 0.67206 0.75285 0.0
H1044 H 0.59359 0.62355 0.73656 0.0
H1045 H 0.50669 0.49505 0.66125 0.0
H1046 H 0.50864 0.49661 0.69086 0.0
H1047 H 0.59135 0.57859 0.69218 0.0
H1048 H 0.58955 0.57717 0.66249 0.0
H1049 H 0.55218 0.58438 0.71612 0.0
H1050 H 0.59729 0.50563 0.69597 0.0
H1051 H 0.59909 0.45816 0.67927 0.0
H1052 H 0.5191 0.39968 0.70249 0.0
H1053 H 0.51656 0.44692 0.71917 0.0
C1054 C 0.58369 0.55263 0.7899 0.0
C1055 C 0.56409 0.52592 0.79715 0.0
C1056 C 0.58132 0.55546 0.77321 0.0
C1057 C 0.5587 0.53208 0.76353 0.0
C1058 C 0.53926 0.50529 0.77081 0.0
C1059 C 0.5422 0.50206 0.78742 0.0
C1060 C 0.55624 0.53445 0.7457 0.0
C1061 C 0.55614 0.50776 0.73556 0.0
C1062 C 0.55503 0.56264 0.73861 0.0
C1063 C 0.55476 0.59181 0.74848 0.0
C1064 C 0.53289 0.5902 0.76053 0.0
C1065 C 0.53325 0.61788 0.76981 0.0
C1066 C 0.55504 0.64733 0.76704 0.0
C1067 C 0.5766 0.64922 0.755 0.0
C1068 C 0.5765 0.62165 0.74574 0.0
C1069 C 0.5253 0.51342 0.66784 0.0
C1070 C 0.54819 0.53575 0.65952 0.0
C1071 C 0.52632 0.51436 0.68476 0.0
C1072 C 0.5504 0.53743 0.69371 0.0
C1073 C 0.57257 0.56058 0.6855 0.0
C1074 C 0.5715 0.55974 0.66854 0.0
C1075 C 0.55328 0.53625 0.71155 0.0
C1076 C 0.5537 0.56312 0.72161 0.0
C1077 C 0.55495 0.50837 0.71864 0.0
C1078 C 0.55656 0.47987 0.7087 0.0
C1079 C 0.57995 0.48269 0.69743 0.0
C1080 C 0.58112 0.45582 0.68798 0.0
C1081 C 0.55917 0.42594 0.68979 0.0
C1082 C 0.53605 0.42285 0.70109 0.0
C1083 C 0.53475 0.44966 0.71055 0.0
H1084 H 0.56012 0.40516 0.68247 0.0
H1085 H 0.55519 0.66869 0.77422 0.0
H1086 H 0.5245 0.0306 0.55551 0.0
H1087 H 0.51725 0.02693 0.58476 0.0
H1088 H 0.59177 0.98659 0.58841 0.0
H1089 H 0.59876 0.98976 0.5592 0.0
H1090 H 0.54366 0.9552 0.60599 0.0
H1091 H 0.60319 0.06533 0.59922 0.0
H1092 H 0.61372 0.11817 0.58794 0.0
H1093 H 0.53042 0.12746 0.60809 0.0
H1094 H 0.51918 0.07444 0.61931 0.0
H1095 H 0.5836 0.98246 0.68993 0.0
H1096 H 0.58311 0.98201 0.66035 0.0
H1097 H 0.5086 0.02279 0.66097 0.0
H1098 H 0.50885 0.02317 0.69058 0.0
H1099 H 0.55284 0.05304 0.64107 0.0
H1100 H 0.49485 0.9443 0.6493 0.0
H1101 H 0.4843 0.89146 0.66057 0.0
H1102 H 0.56425 0.87933 0.63773 0.0
H1103 H 0.57554 0.93233 0.62651 0.0
C1104 C 0.53925 0.0209 0.56258 0.0
C1105 C 0.56235 0.01069 0.55516 0.0
C1106 C 0.53516 0.01888 0.57926 0.0
C1107 C 0.55423 0.00683 0.58879 0.0
C1108 C 0.57683 0.99599 0.5813 0.0
C1109 C 0.58088 0.99794 0.56463 0.0
C1110 C 0.55114 0.00598 0.60661 0.0
C1111 C 0.54596 0.97663 0.61369 0.0
C1112 C 0.55334 0.03381 0.61659 0.0
C1113 C 0.56018 0.06578 0.60995 0.0
C1114 C 0.587 0.07854 0.60114 0.0
C1115 C 0.59312 0.10853 0.59477 0.0
C1116 C 0.5727 0.12612 0.59725 0.0
C1117 C 0.54618 0.11379 0.60615 0.0
C1118 C 0.53994 0.08378 0.61253 0.0
C1119 C 0.56685 0.99096 0.68377 0.0
C1120 C 0.54624 1.00281 0.69261 0.0
C1121 C 0.56661 0.99072 0.66686 0.0
C1122 C 0.5456 1.00207 0.65844 0.0
C1123 C 0.52503 0.01395 0.66722 0.0
C1124 C 0.52528 0.01425 0.68414 0.0
C1125 C 0.54569 1.0023 0.6405 0.0
C1126 C 0.55031 0.03154 0.63338 0.0
C1127 C 0.54295 0.97436 0.63049 0.0
C1128 C 0.53619 0.94243 0.63718 0.0
C1129 C 0.51032 0.93048 0.64678 0.0
C1130 C 0.50418 0.90048 0.65315 0.0
C1131 C 0.52363 0.88208 0.6499 0.0
C1132 C 0.54922 0.89362 0.64025 0.0
C1133 C 0.55548 0.92363 0.63387 0.0
H1134 H 0.51884 0.85886 0.65484 0.0
H1135 H 0.57747 0.14933 0.59231 0.0
H1136 H 0.53094 0.54159 0.88533 0.0
H1137 H 0.53994 0.54046 0.91443 0.0
H1138 H 0.49335 0.43841 0.91153 0.0
H1139 H 0.48318 0.43976 0.88237 0.0
H1140 H 0.47679 0.4631 0.93742 0.0
H1141 H 0.57455 0.47153 0.91538 0.0
H1142 H 0.62023 0.49287 0.89884 0.0
H1143 H 0.64255 0.58392 0.9257 0.0
H1144 H 0.59684 0.56318 0.94236 0.0
H1145 H 0.54147 0.44409 0.01498 0.0
H1146 H 0.53329 0.44193 0.98544 0.0
H1147 H 0.54751 0.5435 0.98796 0.0
H1148 H 0.55497 0.54566 0.01756 0.0
H1149 H 0.58163 0.5161 0.96244 0.0
H1150 H 0.47982 0.50402 0.9838 0.0
H1151 H 0.43546 0.47834 0.00049 0.0
H1152 H 0.42299 0.38794 0.97437 0.0
H1153 H 0.46762 0.41303 0.95769 0.0
C1154 C 0.5225 0.51893 0.89091 0.0
C1155 C 0.50638 0.49074 0.88163 0.0
C1156 C 0.52789 0.51825 0.90754 0.0
C1157 C 0.51793 0.48923 0.91518 0.0
C1158 C 0.50138 0.46108 0.90593 0.0
C1159 C 0.49557 0.46184 0.88929 0.0
C1160 C 0.52448 0.48854 0.93283 0.0
C1161 C 0.49984 0.47428 0.9428 0.0
C1162 C 0.55451 0.50326 0.93998 0.0
C1163 C 0.58211 0.51586 0.93004 0.0
C1164 C 0.58908 0.49616 0.9177 0.0
C1165 C 0.61501 0.50813 0.90832 0.0
C1166 C 0.63423 0.53976 0.91119 0.0
C1167 C 0.62762 0.55943 0.92349 0.0
C1168 C 0.60175 0.54756 0.93293 0.0
C1169 C 0.54298 0.46594 0.00919 0.0
C1170 C 0.54878 0.49504 0.01849 0.0
C1171 C 0.53826 0.46467 0.99237 0.0
C1172 C 0.53981 0.49256 0.98458 0.0
C1173 C 0.54628 0.52176 0.99379 0.0
C1174 C 0.55037 0.52293 0.01065 0.0
C1175 C 0.53391 0.4911 0.96684 0.0
C1176 C 0.55869 0.50487 0.95693 0.0
C1177 C 0.50421 0.47533 0.9597 0.0
C1178 C 0.47726 0.46031 0.96963 0.0
C1179 C 0.4678 0.4786 0.98172 0.0
C1180 C 0.44257 0.46417 0.99116 0.0
C1181 C 0.42647 0.43151 0.98852 0.0
C1182 C 0.43551 0.41323 0.97642 0.0
C1183 C 0.46076 0.42754 0.96696 0.0
H1184 H 0.40694 0.42038 0.99584 0.0
H1185 H 0.65428 0.54899 0.90391 0.0
H1186 H 1.03782 0.54348 0.19902 0.0
H1187 H 1.03586 0.53553 0.22803 0.0
H1188 H 0.1013 0.48327 0.22306 0.0
H1189 H 0.10216 0.48998 0.19378 0.0
H1190 H 0.06011 0.45586 0.24356 0.0
H1191 H 0.12335 0.56355 0.23804 0.0
H1192 H 0.13744 0.61816 0.22855 0.0
H1193 H 0.06103 0.63418 0.25339 0.0
H1194 H 0.04621 0.57948 0.26285 0.0
H1195 H 0.10222 0.47962 0.32916 0.0
H1196 H 0.10429 0.48182 0.29955 0.0
H1197 H 1.02379 0.51331 0.2991 0.0
H1198 H 1.02141 0.51084 0.32862 0.0
H1199 H 0.07578 0.5511 0.28169 0.0
H1200 H 1.01351 0.44079 0.28674 0.0
H1201 H 1.00283 0.3867 0.29654 0.0
H1202 H 0.08311 0.37704 0.27303 0.0
H1203 H 0.09453 0.43131 0.26328 0.0
C1204 C 0.05167 0.53017 0.20412 0.0
C1205 C 0.07041 0.51765 0.19425 0.0
C1206 C 0.05068 0.52578 0.22071 0.0
C1207 C 0.06906 0.50952 0.22784 0.0
C1208 C 0.08708 0.49609 0.21787 0.0
C1209 C 0.08764 0.5 0.20118 0.0
C1210 C 0.0697 0.50706 0.2457 0.0
C1211 C 0.06401 0.47678 0.25188 0.0
C1212 C 0.07458 0.53429 0.25662 0.0
C1213 C 0.08352 0.5673 0.25104 0.0
C1214 C 0.10943 0.57864 0.24139 0.0
C1215 C 0.11756 0.60962 0.23603 0.0
C1216 C 0.1001 0.62961 0.24034 0.0
C1217 C 0.07452 0.61867 0.25005 0.0
C1218 C 0.06626 0.58768 0.25543 0.0
C1219 C 0.08497 0.48694 0.3227 0.0
C1220 C 0.06162 0.49501 0.33113 0.0
C1221 C 0.08609 0.48805 0.30584 0.0
C1222 C 0.06412 0.49762 0.29719 0.0
C1223 C 1.04089 0.5058 0.30559 0.0
C1224 C 1.03947 0.50423 0.32239 0.0
C1225 C 0.06576 0.49997 0.27943 0.0
C1226 C 0.07201 0.53028 0.27331 0.0
C1227 C 0.06198 0.4729 0.26862 0.0
C1228 C 0.05507 0.44025 0.27444 0.0
C1229 C 1.02906 0.42726 0.28379 0.0
C1230 C 1.02283 0.39654 0.28931 0.0
C1231 C 1.04233 0.37848 0.28545 0.0
C1232 C 0.06805 0.39108 0.27603 0.0
C1233 C 0.0744 0.4218 0.2705 0.0
H1234 H 1.03746 0.3547 0.28973 0.0
H1235 H 0.10643 0.65359 0.23617 0.0
loop_
_geom_bond_atom_site_label_1
_geom_bond_atom_site_label_2
_geom_bond_distance
_geom_bond_site_symmetry_2
_ccdc_geom_bond_type
Nd0 C2 2.836 . S
Nd0 O20 2.500 . S
Nd0 O21 2.492 . S
Nd0 O22 2.487 . S
Nd0 O23 2.682 . S
Nd0 O24 2.410 . S
Nd0 O29 2.414 . S
Nd0 O31 2.424 1_455 S
Nd1 C11 2.836 1_455 S
Nd1 O23 2.414 . S
Nd1 O25 2.424 . S
Nd1 O26 2.500 1_455 S
Nd1 O27 2.492 1_455 S
Nd1 O28 2.487 . S
Nd1 O29 2.682 . S
Nd1 O30 2.410 1_455 S
C2 Nd0 2.836 . S
C2 C3 1.498 . S
C2 O20 1.258 . S
C2 O21 1.239 . S
C3 C2 1.498 . S
C3 C4 1.366 . S
C3 C8 1.407 . S
C4 C3 1.366 . S
C4 C5 1.392 . S
C4 H32 0.930 . S
C5 C4 1.392 . S
C5 C6 1.398 . S
C5 H33 0.929 . S
C6 C5 1.398 . S
C6 C7 1.352 . S
C7 C6 1.352 . S
C7 C8 1.384 . S
C7 H34 0.930 . S
C8 C3 1.407 . S
C8 C7 1.384 . S
C8 H35 0.929 . S
C9 O22 1.241 . S
C9 O23 1.273 . S
C10 O24 1.251 . S
C10 O25 1.268 . S
C11 Nd1 2.836 1_655 S
C11 C12 1.498 . S
C11 O26 1.258 . S
C11 O27 1.239 . S
C12 C11 1.498 . S
C12 C13 1.366 . S
C12 C17 1.407 . S
C13 C12 1.366 . S
C13 C14 1.392 . S
C13 H36 0.930 . S
C14 C13 1.392 . S
C14 C15 1.398 . S
C14 H37 0.929 . S
C15 C14 1.398 . S
C15 C16 1.352 . S
C16 C15 1.352 . S
C16 C17 1.384 . S
C16 H38 0.930 . S
C17 C12 1.407 . S
C17 C16 1.384 . S
C17 H39 0.929 . S
C18 O28 1.241 . S
C18 O29 1.273 . S
C19 O30 1.251 . S
C19 O31 1.268 . S
O20 Nd0 2.500 . S
O20 C2 1.258 . S
O21 Nd0 2.492 . S
O21 C2 1.239 . S
O22 Nd0 2.487 . S
O22 C9 1.241 . S
O23 Nd0 2.682 . S
O23 Nd1 2.414 . S
O23 C9 1.273 . S
O24 Nd0 2.410 . S
O24 C10 1.251 . S
O25 Nd1 2.424 . S
O25 C10 1.268 . S
O26 Nd1 2.500 1_655 S
O26 C11 1.258 . S
O27 Nd1 2.492 1_655 S
O27 C11 1.239 . S
O28 Nd1 2.487 . S
O28 C18 1.241 . S
O29 Nd0 2.414 . S
O29 Nd1 2.682 . S
O29 C18 1.273 . S
O30 Nd1 2.410 1_655 S
O30 C19 1.251 . S
O31 Nd0 2.424 1_655 S
O31 C19 1.268 . S
H32 C4 0.930 . S
H33 C5 0.929 . S
H34 C7 0.930 . S
H35 C8 0.929 . S
H36 C13 0.930 . S
H37 C14 0.929 . S
H38 C16 0.930 . S
H39 C17 0.929 . S
Nd40 C42 2.836 1_545 S
Nd40 O60 2.500 1_545 S
Nd40 O61 2.492 1_545 S
Nd40 O62 2.487 . S
Nd40 O63 2.682 . S
Nd40 O64 2.410 1_545 S
Nd40 O69 2.414 . S
Nd40 O71 2.424 . S
Nd41 C51 2.836 . S
Nd41 O63 2.414 . S
Nd41 O65 2.424 1_545 S
Nd41 O66 2.500 . S
Nd41 O67 2.492 . S
Nd41 O68 2.487 . S
Nd41 O69 2.682 . S
Nd41 O70 2.410 . S
C42 Nd40 2.836 1_565 S
C42 C43 1.498 . S
C42 O60 1.258 . S
C42 O61 1.239 . S
C43 C42 1.498 . S
C43 C44 1.366 . S
C43 C48 1.407 . S
C44 C43 1.366 . S
C44 C45 1.392 . S
C44 H72 0.930 . S
C45 C44 1.392 . S
C45 C46 1.398 . S
C45 H73 0.929 . S
C46 C45 1.398 . S
C46 C47 1.352 . S
C47 C46 1.352 . S
C47 C48 1.384 . S
C47 H74 0.930 . S
C48 C43 1.407 . S
C48 C47 1.384 . S
C48 H75 0.929 . S
C49 O62 1.241 . S
C49 O63 1.273 . S
C50 O64 1.251 . S
C50 O65 1.268 . S
C51 Nd41 2.836 . S
C51 C52 1.498 . S
C51 O66 1.258 . S
C51 O67 1.239 . S
C52 C51 1.498 . S
C52 C53 1.366 . S
C52 C57 1.407 . S
C53 C52 1.366 . S
C53 C54 1.392 . S
C53 H76 0.930 . S
C54 C53 1.392 . S
C54 C55 1.398 . S
C54 H77 0.929 . S
C55 C54 1.398 . S
C55 C56 1.352 . S
C56 C55 1.352 . S
C56 C57 1.384 . S
C56 H78 0.930 . S
C57 C52 1.407 . S
C57 C56 1.384 . S
C57 H79 0.929 . S
C58 O68 1.241 . S
C58 O69 1.273 . S
C59 O70 1.251 . S
C59 O71 1.268 . S
O60 Nd40 2.500 1_565 S
O60 C42 1.258 . S
O61 Nd40 2.492 1_565 S
O61 C42 1.239 . S
O62 Nd40 2.487 . S
O62 C49 1.241 . S
O63 Nd40 2.682 . S
O63 Nd41 2.414 . S
O63 C49 1.273 . S
O64 Nd40 2.410 1_565 S
O64 C50 1.251 . S
O65 Nd41 2.424 1_565 S
O65 C50 1.268 . S
O66 Nd41 2.500 . S
O66 C51 1.258 . S
O67 Nd41 2.492 . S
O67 C51 1.239 . S
O68 Nd41 2.487 . S
O68 C58 1.241 . S
O69 Nd40 2.414 . S
O69 Nd41 2.682 . S
O69 C58 1.273 . S
O70 Nd41 2.410 . S
O70 C59 1.251 . S
O71 Nd40 2.424 . S
O71 C59 1.268 . S
H72 C44 0.930 . S
H73 C45 0.929 . S
H74 C47 0.930 . S
H75 C48 0.929 . S
H76 C53 0.930 . S
H77 C54 0.929 . S
H78 C56 0.930 . S
H79 C57 0.929 . S
Nd80 C82 2.836 . S
Nd80 O100 2.500 . S
Nd80 O101 2.492 . S
Nd80 O102 2.487 . S
Nd80 O103 2.682 . S
Nd80 O104 2.410 . S
Nd80 O109 2.414 . S
Nd80 O111 2.424 . S
Nd81 C91 2.836 . S
Nd81 O103 2.414 . S
Nd81 O105 2.424 . S
Nd81 O106 2.500 . S
Nd81 O107 2.492 . S
Nd81 O108 2.487 . S
Nd81 O109 2.682 . S
Nd81 O110 2.410 . S
C82 Nd80 2.836 . S
C82 C83 1.498 . S
C82 O100 1.258 . S
C82 O101 1.239 . S
C83 C82 1.498 . S
C83 C84 1.366 . S
C83 C88 1.407 . S
C84 C83 1.366 . S
C84 C85 1.392 . S
C84 H112 0.930 . S
C85 C84 1.392 . S
C85 C86 1.398 . S
C85 H113 0.929 . S
C86 C85 1.398 . S
C86 C87 1.352 . S
C87 C86 1.352 . S
C87 C88 1.384 . S
C87 H114 0.930 . S
C88 C83 1.407 . S
C88 C87 1.384 . S
C88 H115 0.929 . S
C89 O102 1.241 . S
C89 O103 1.273 . S
C90 O104 1.251 . S
C90 O105 1.268 . S
C91 Nd81 2.836 . S
C91 C92 1.498 . S
C91 O106 1.258 . S
C91 O107 1.239 . S
C92 C91 1.498 . S
C92 C93 1.366 . S
C92 C97 1.407 . S
C93 C92 1.366 . S
C93 C94 1.392 . S
C93 H116 0.930 . S
C94 C93 1.392 . S
C94 C95 1.398 . S
C94 H117 0.929 . S
C95 C94 1.398 . S
C95 C96 1.352 . S
C96 C95 1.352 . S
C96 C97 1.384 . S
C96 H118 0.930 . S
C97 C92 1.407 . S
C97 C96 1.384 . S
C97 H119 0.929 . S
C98 O108 1.241 . S
C98 O109 1.273 . S
C99 O110 1.251 . S
C99 O111 1.268 . S
O100 Nd80 2.500 . S
O100 C82 1.258 . S
O101 Nd80 2.492 . S
O101 C82 1.239 . S
O102 Nd80 2.487 . S
O102 C89 1.241 . S
O103 Nd80 2.682 . S
O103 Nd81 2.414 . S
O103 C89 1.273 . S
O104 Nd80 2.410 . S
O104 C90 1.251 . S
O105 Nd81 2.424 . S
O105 C90 1.268 . S
O106 Nd81 2.500 . S
O106 C91 1.258 . S
O107 Nd81 2.492 . S
O107 C91 1.239 . S
O108 Nd81 2.487 . S
O108 C98 1.241 . S
O109 Nd80 2.414 . S
O109 Nd81 2.682 . S
O109 C98 1.273 . S
O110 Nd81 2.410 . S
O110 C99 1.251 . S
O111 Nd80 2.424 . S
O111 C99 1.268 . S
H112 C84 0.930 . S
H113 C85 0.929 . S
H114 C87 0.930 . S
H115 C88 0.929 . S
H116 C93 0.930 . S
H117 C94 0.929 . S
H118 C96 0.930 . S
H119 C97 0.929 . S
C120 C121 1.384 . S
C120 H133 0.947 . S
C120 C155 1.382 . S
C121 C120 1.384 . S
C121 C122 1.378 . S
C122 C121 1.378 . S
C122 C123 1.378 . S
C122 H134 0.952 . S
C123 C122 1.378 . S
C123 H135 0.950 . S
C123 C154 1.383 . S
H124 C143 0.947 . S
H125 C144 0.946 . S
H126 C146 0.953 . S
H127 C147 0.945 . S
H128 C149 0.952 . S
H129 C150 0.949 . S
H130 C152 0.950 1_565 S
H131 C153 0.955 . S
H132 C155 0.951 . S
H133 C120 0.947 . S
H134 C122 0.952 . S
H135 C123 0.950 . S
N136 C139 1.382 . S
N136 C141 1.363 1_545 S
N137 C139 1.371 . S
N137 C140 1.372 . S
N138 C140 1.356 1_565 S
N138 C141 1.377 . S
C139 N136 1.382 . S
C139 N137 1.371 . S
C139 C142 1.480 . S
C140 N137 1.372 . S
C140 N138 1.356 1_545 S
C140 C148 1.457 . S
C141 N136 1.363 1_565 S
C141 N138 1.377 . S
C141 C154 1.479 . S
C142 C139 1.480 . S
C142 C143 1.383 . S
C142 C147 1.385 . S
C143 H124 0.947 . S
C143 C142 1.383 . S
C143 C144 1.388 . S
C144 H125 0.946 . S
C144 C143 1.388 . S
C144 C145 1.384 . S
C145 C144 1.384 . S
C145 C146 1.377 . S
C146 H126 0.953 . S
C146 C145 1.377 . S
C146 C147 1.369 . S
C147 H127 0.945 . S
C147 C142 1.385 . S
C147 C146 1.369 . S
C148 C140 1.457 . S
C148 C149 1.372 . S
C148 C153 1.357 1_545 S
C149 H128 0.952 . S
C149 C148 1.372 . S
C149 C150 1.389 . S
C150 H129 0.949 . S
C150 C149 1.389 . S
C150 C151 1.387 . S
C151 C150 1.387 . S
C151 C152 1.372 . S
C152 H130 0.950 1_545 S
C152 C151 1.372 . S
C152 C153 1.378 1_545 S
C153 H131 0.955 . S
C153 C148 1.357 1_565 S
C153 C152 1.378 1_565 S
C154 C123 1.383 . S
C154 C141 1.479 . S
C154 C155 1.398 . S
C155 C120 1.382 . S
C155 H132 0.951 . S
C155 C154 1.398 . S
C156 C157 1.384 . S
C156 H169 0.947 . S
C156 C191 1.382 . S
C157 C156 1.384 . S
C157 C158 1.378 . S
C158 C157 1.378 . S
C158 C159 1.378 . S
C158 H170 0.952 . S
C159 C158 1.378 . S
C159 H171 0.950 . S
C159 C190 1.383 . S
H160 C179 0.947 . S
H161 C180 0.946 . S
H162 C182 0.953 . S
H163 C183 0.945 . S
H164 C185 0.952 . S
H165 C186 0.949 . S
H166 C188 0.950 . S
H167 C189 0.948 . S
H168 C191 0.951 . S
H169 C156 0.947 . S
H170 C158 0.952 . S
H171 C159 0.950 . S
N172 C175 1.382 . S
N172 C177 1.363 . S
N173 C175 1.371 . S
N173 C176 1.372 . S
N174 C176 1.361 . S
N174 C177 1.377 . S
C175 N172 1.382 . S
C175 N173 1.371 . S
C175 C178 1.480 . S
C176 N173 1.372 . S
C176 N174 1.361 . S
C176 C184 1.457 . S
C177 N172 1.363 . S
C177 N174 1.377 . S
C177 C190 1.479 . S
C178 C175 1.480 . S
C178 C179 1.383 . S
C178 C183 1.385 . S
C179 H160 0.947 . S
C179 C178 1.383 . S
C179 C180 1.388 . S
C180 H161 0.946 . S
C180 C179 1.388 . S
C180 C181 1.384 . S
C181 C180 1.384 . S
C181 C182 1.377 . S
C182 H162 0.953 . S
C182 C181 1.377 . S
C182 C183 1.369 . S
C183 H163 0.945 . S
C183 C178 1.385 . S
C183 C182 1.369 . S
C184 C176 1.457 . S
C184 C185 1.372 . S
C184 C189 1.364 . S
C185 H164 0.952 . S
C185 C184 1.372 . S
C185 C186 1.389 . S
C186 H165 0.949 . S
C186 C185 1.389 . S
C186 C187 1.387 . S
C187 C186 1.387 . S
C187 C188 1.372 . S
C188 H166 0.950 . S
C188 C187 1.372 . S
C188 C189 1.379 . S
C189 H167 0.948 . S
C189 C184 1.364 . S
C189 C188 1.379 . S
C190 C159 1.383 . S
C190 C177 1.479 . S
C190 C191 1.398 . S
C191 C156 1.382 . S
C191 H168 0.951 . S
C191 C190 1.398 . S
C192 C193 1.384 . S
C192 H205 0.947 . S
C192 C227 1.382 . S
C193 C192 1.384 . S
C193 C194 1.378 . S
C194 C193 1.378 . S
C194 C195 1.378 . S
C194 H206 0.952 . S
C195 C194 1.378 . S
C195 H207 0.950 . S
C195 C226 1.383 . S
H196 C215 0.947 . S
H197 C216 0.946 . S
H198 C218 0.953 . S
H199 C219 0.945 . S
H200 C221 0.952 . S
H201 C222 0.949 . S
H202 C224 0.950 1_655 S
H203 C225 0.948 1_655 S
H204 C227 0.951 . S
H205 C192 0.947 . S
H206 C194 0.952 . S
H207 C195 0.950 . S
N208 C211 1.382 . S
N208 C213 1.363 . S
N209 C211 1.371 . S
N209 C212 1.372 . S
N210 C212 1.361 . S
N210 C213 1.377 . S
C211 N208 1.382 . S
C211 N209 1.371 . S
C211 C214 1.480 . S
C212 N209 1.372 . S
C212 N210 1.361 . S
C212 C220 1.457 . S
C213 N208 1.363 . S
C213 N210 1.377 . S
C213 C226 1.479 1_455 S
C214 C211 1.480 . S
C214 C215 1.383 . S
C214 C219 1.385 . S
C215 H196 0.947 . S
C215 C214 1.383 . S
C215 C216 1.388 . S
C216 H197 0.946 . S
C216 C215 1.388 . S
C216 C217 1.384 . S
C217 C216 1.384 . S
C217 C218 1.377 . S
C218 H198 0.953 . S
C218 C217 1.377 . S
C218 C219 1.369 . S
C219 H199 0.945 . S
C219 C214 1.385 . S
C219 C218 1.369 . S
C220 C212 1.457 . S
C220 C221 1.372 . S
C220 C225 1.364 . S
C221 H200 0.952 . S
C221 C220 1.372 . S
C221 C222 1.389 . S
C222 H201 0.949 . S
C222 C221 1.389 . S
C222 C223 1.387 . S
C223 C222 1.387 . S
C223 C224 1.372 . S
C224 H202 0.950 1_455 S
C224 C223 1.372 . S
C224 C225 1.379 . S
C225 H203 0.948 1_455 S
C225 C220 1.364 . S
C225 C224 1.379 . S
C226 C195 1.383 . S
C226 C213 1.479 1_655 S
C226 C227 1.398 . S
C227 C192 1.382 . S
C227 H204 0.951 . S
C227 C226 1.398 . S
C228 C229 1.384 . S
C228 H241 0.947 . S
C228 C263 1.382 . S
C229 C228 1.384 . S
C229 C230 1.378 . S
C230 C229 1.378 . S
C230 C231 1.378 . S
C230 H242 0.952 . S
C231 C230 1.378 . S
C231 H243 0.950 . S
C231 C262 1.383 . S
H232 C251 0.947 . S
H233 C252 0.946 . S
H234 C254 0.953 . S
H235 C255 0.945 . S
H236 C257 0.952 . S
H237 C258 0.949 . S
H238 C260 0.950 . S
H239 C261 0.948 . S
H240 C263 0.951 . S
H241 C228 0.947 . S
H242 C230 0.952 . S
H243 C231 0.950 . S
N244 C247 1.382 1_455 S
N244 C249 1.363 . S
N245 C247 1.371 . S
N245 C248 1.372 1_655 S
N246 C248 1.361 . S
N246 C249 1.377 . S
C247 N244 1.382 1_655 S
C247 N245 1.371 . S
C247 C250 1.480 . S
C248 N245 1.372 1_455 S
C248 N246 1.361 . S
C248 C256 1.457 . S
C249 N244 1.363 . S
C249 N246 1.377 . S
C249 C262 1.479 . S
C250 C247 1.480 . S
C250 C251 1.383 . S
C250 C255 1.385 . S
C251 H232 0.947 . S
C251 C250 1.383 . S
C251 C252 1.388 . S
C252 H233 0.946 . S
C252 C251 1.388 . S
C252 C253 1.384 . S
C253 C252 1.384 . S
C253 C254 1.377 . S
C254 H234 0.953 . S
C254 C253 1.377 . S
C254 C255 1.369 . S
C255 H235 0.945 . S
C255 C250 1.385 . S
C255 C254 1.369 . S
C256 C248 1.457 . S
C256 C257 1.372 1_455 S
C256 C261 1.364 . S
C257 H236 0.952 . S
C257 C256 1.372 1_655 S
C257 C258 1.389 . S
C258 H237 0.949 . S
C258 C257 1.389 . S
C258 C259 1.387 1_655 S
C259 C258 1.387 1_455 S
C259 C260 1.372 . S
C260 H238 0.950 . S
C260 C259 1.372 . S
C260 C261 1.379 . S
C261 H239 0.948 . S
C261 C256 1.364 . S
C261 C260 1.379 . S
C262 C231 1.383 . S
C262 C249 1.479 . S
C262 C263 1.398 . S
C263 C228 1.382 . S
C263 H240 0.951 . S
C263 C262 1.398 . S
C264 C265 1.384 . S
C264 H277 0.947 . S
C264 C299 1.382 . S
C265 C264 1.384 . S
C265 C266 1.378 . S
C266 C265 1.378 . S
C266 C267 1.378 . S
C266 H278 0.952 . S
C267 C266 1.378 . S
C267 H279 0.950 . S
C267 C298 1.383 . S
H268 C287 0.947 . S
H269 C288 0.946 . S
H270 C290 0.953 . S
H271 C291 0.945 . S
H272 C293 0.952 . S
H273 C294 0.949 . S
H274 C296 0.950 . S
H275 C297 0.948 . S
H276 C299 0.951 . S
H277 C264 0.947 . S
H278 C266 0.952 . S
H279 C267 0.950 . S
N280 C283 1.382 1_545 S
N280 C285 1.363 . S
N281 C283 1.371 . S
N281 C284 1.372 1_565 S
N282 C284 1.361 . S
N282 C285 1.377 . S
C283 N280 1.382 1_565 S
C283 N281 1.371 . S
C283 C286 1.480 . S
C284 N281 1.372 1_545 S
C284 N282 1.361 . S
C284 C292 1.457 . S
C285 N280 1.363 . S
C285 N282 1.377 . S
C285 C298 1.479 . S
C286 C283 1.480 . S
C286 C287 1.383 . S
C286 C291 1.385 . S
C287 H268 0.947 . S
C287 C286 1.383 . S
C287 C288 1.388 . S
C288 H269 0.946 . S
C288 C287 1.388 . S
C288 C289 1.384 . S
C289 C288 1.384 . S
C289 C290 1.377 . S
C290 H270 0.953 . S
C290 C289 1.377 . S
C290 C291 1.369 . S
C291 H271 0.945 . S
C291 C286 1.385 . S
C291 C290 1.369 . S
C292 C284 1.457 . S
C292 C293 1.372 1_545 S
C292 C297 1.364 . S
C293 H272 0.952 . S
C293 C292 1.372 1_565 S
C293 C294 1.389 . S
C294 H273 0.949 . S
C294 C293 1.389 . S
C294 C295 1.387 1_565 S
C295 C294 1.387 1_545 S
C295 C296 1.372 . S
C296 H274 0.950 . S
C296 C295 1.372 . S
C296 C297 1.379 . S
C297 H275 0.948 . S
C297 C292 1.364 . S
C297 C296 1.379 . S
C298 C267 1.383 . S
C298 C285 1.479 . S
C298 C299 1.398 . S
C299 C264 1.382 . S
C299 H276 0.951 . S
C299 C298 1.398 . S
C300 C301 1.384 . S
C300 H313 0.947 . S
C300 C335 1.382 . S
C301 C300 1.384 . S
C301 C302 1.378 . S
C302 C301 1.378 . S
C302 C303 1.378 . S
C302 H314 0.952 . S
C303 C302 1.378 . S
C303 H315 0.950 . S
C303 C334 1.383 . S
H304 C323 0.947 . S
H305 C324 0.946 . S
H306 C326 0.953 . S
H307 C327 0.945 . S
H308 C329 0.952 . S
H309 C330 0.949 . S
H310 C332 0.950 . S
H311 C333 0.948 . S
H312 C335 0.951 . S
H313 C300 0.947 . S
H314 C302 0.952 . S
H315 C303 0.950 . S
N316 C319 1.382 . S
N316 C321 1.363 . S
N317 C319 1.371 . S
N317 C320 1.372 . S
N318 C320 1.361 . S
N318 C321 1.377 . S
C319 N316 1.382 . S
C319 N317 1.371 . S
C319 C322 1.480 . S
C320 N317 1.372 . S
C320 N318 1.361 . S
C320 C328 1.457 . S
C321 N316 1.363 . S
C321 N318 1.377 . S
C321 C334 1.479 . S
C322 C319 1.480 . S
C322 C323 1.383 . S
C322 C327 1.385 . S
C323 H304 0.947 . S
C323 C322 1.383 . S
C323 C324 1.388 . S
C324 H305 0.946 . S
C324 C323 1.388 . S
C324 C325 1.384 . S
C325 C324 1.384 . S
C325 C326 1.377 . S
C326 H306 0.953 . S
C326 C325 1.377 . S
C326 C327 1.369 . S
C327 H307 0.945 . S
C327 C322 1.385 . S
C327 C326 1.369 . S
C328 C320 1.457 . S
C328 C329 1.372 . S
C328 C333 1.364 . S
C329 H308 0.952 . S
C329 C328 1.372 . S
C329 C330 1.389 . S
C330 H309 0.949 . S
C330 C329 1.389 . S
C330 C331 1.387 . S
C331 C330 1.387 . S
C331 C332 1.372 . S
C332 H310 0.950 . S
C332 C331 1.372 . S
C332 C333 1.379 . S
C333 H311 0.948 . S
C333 C328 1.364 . S
C333 C332 1.379 . S
C334 C303 1.383 . S
C334 C321 1.479 . S
C334 C335 1.398 . S
C335 C300 1.382 . S
C335 H312 0.951 . S
C335 C334 1.398 . S
H336 C354 0.951 . S
H337 C356 0.951 . S
H338 C358 0.950 . S
H339 C359 0.950 . S
H340 C361 0.950 . S
H341 C364 0.950 . S
H342 C365 0.950 . S
H343 C367 0.950 . S
H344 C368 0.950 . S
H345 C369 0.951 . S
H346 C371 0.951 . S
H347 C373 0.950 . S
H348 C374 0.950 . S
H349 C376 0.950 . S
H350 C379 0.950 . S
H351 C380 0.950 . S
H352 C382 0.950 . S
H353 C383 0.950 . S
C354 H336 0.951 . S
C354 C355 1.366 . S
C354 C356 1.388 . S
C355 C354 1.366 . S
C355 C359 1.385 . S
C356 H337 0.951 . S
C356 C354 1.388 . S
C356 C357 1.366 . S
C357 C356 1.366 . S
C357 C358 1.414 . S
C357 C360 1.499 . S
C358 H338 0.950 . S
C358 C357 1.414 . S
C358 C359 1.374 . S
C359 H339 0.950 . S
C359 C355 1.385 . S
C359 C358 1.374 . S
C360 C357 1.499 . S
C360 C361 1.373 . S
C360 C362 1.389 . S
C361 H340 0.950 . S
C361 C360 1.373 . S
C361 C377 1.377 . S
C362 C360 1.389 . S
C362 C363 1.524 . S
C362 C376 1.377 . S
C363 C362 1.524 . S
C363 C364 1.397 . S
C363 C368 1.363 . S
C364 H341 0.950 . S
C364 C363 1.397 . S
C364 C365 1.334 . S
C365 H342 0.950 . S
C365 C364 1.334 . S
C365 C366 1.287 . S
C366 C365 1.287 . S
C366 C367 1.524 . S
C366 H385 0.913 . S
C367 H343 0.950 . S
C367 C366 1.524 . S
C367 C368 1.415 . S
C368 H344 0.950 . S
C368 C363 1.363 . S
C368 C367 1.415 . S
C369 H345 0.951 . S
C369 C370 1.366 . S
C369 C371 1.388 . S
C370 C369 1.366 . S
C370 C374 1.385 . S
C371 H346 0.951 . S
C371 C369 1.388 . S
C371 C372 1.366 . S
C372 C371 1.366 . S
C372 C373 1.414 . S
C372 C375 1.499 . S
C373 H347 0.950 . S
C373 C372 1.414 . S
C373 C374 1.374 . S
C374 H348 0.950 . S
C374 C370 1.385 . S
C374 C373 1.374 . S
C375 C372 1.499 . S
C375 C376 1.373 . S
C375 C377 1.389 . S
C376 H349 0.950 . S
C376 C362 1.377 . S
C376 C375 1.373 . S
C377 C361 1.377 . S
C377 C375 1.389 . S
C377 C378 1.524 . S
C378 C377 1.524 . S
C378 C379 1.397 . S
C378 C383 1.363 . S
C379 H350 0.950 . S
C379 C378 1.397 . S
C379 C380 1.334 . S
C380 H351 0.950 . S
C380 C379 1.334 . S
C380 C381 1.287 . S
C381 C380 1.287 . S
C381 C382 1.524 . S
C381 H384 0.999 . S
C382 H352 0.950 . S
C382 C381 1.524 . S
C382 C383 1.415 . S
C383 H353 0.950 . S
C383 C378 1.363 . S
C383 C382 1.415 . S
H384 C381 0.999 . S
H385 C366 0.913 . S
H386 C404 0.951 . S
H387 C406 0.951 . S
H388 C408 0.950 . S
H389 C409 0.950 . S
H390 C411 0.950 . S
H391 C414 0.950 . S
H392 C415 0.950 . S
H393 C417 0.950 . S
H394 C418 0.950 . S
H395 C419 0.951 . S
H396 C421 0.951 . S
H397 C423 0.950 . S
H398 C424 0.950 . S
H399 C426 0.950 . S
H400 C429 0.950 . S
H401 C430 0.950 . S
H402 C432 0.950 . S
H403 C433 0.950 . S
C404 H386 0.951 . S
C404 C405 1.366 . S
C404 C406 1.388 . S
C405 C404 1.366 . S
C405 C409 1.385 . S
C406 H387 0.951 . S
C406 C404 1.388 . S
C406 C407 1.366 . S
C407 C406 1.366 . S
C407 C408 1.414 . S
C407 C410 1.499 . S
C408 H388 0.950 . S
C408 C407 1.414 . S
C408 C409 1.374 . S
C409 H389 0.950 . S
C409 C405 1.385 . S
C409 C408 1.374 . S
C410 C407 1.499 . S
C410 C411 1.373 . S
C410 C412 1.389 . S
C411 H390 0.950 . S
C411 C410 1.373 . S
C411 C427 1.377 . S
C412 C410 1.389 . S
C412 C413 1.524 . S
C412 C426 1.377 . S
C413 C412 1.524 . S
C413 C414 1.397 . S
C413 C418 1.363 . S
C414 H391 0.950 . S
C414 C413 1.397 . S
C414 C415 1.334 . S
C415 H392 0.950 . S
C415 C414 1.334 . S
C415 C416 1.287 . S
C416 C415 1.287 . S
C416 C417 1.524 . S
C416 H435 0.913 . S
C417 H393 0.950 . S
C417 C416 1.524 . S
C417 C418 1.415 . S
C418 H394 0.950 . S
C418 C413 1.363 . S
C418 C417 1.415 . S
C419 H395 0.951 . S
C419 C420 1.366 . S
C419 C421 1.388 . S
C420 C419 1.366 . S
C420 C424 1.385 . S
C421 H396 0.951 . S
C421 C419 1.388 . S
C421 C422 1.366 . S
C422 C421 1.366 . S
C422 C423 1.414 . S
C422 C425 1.499 . S
C423 H397 0.950 . S
C423 C422 1.414 . S
C423 C424 1.374 . S
C424 H398 0.950 . S
C424 C420 1.385 . S
C424 C423 1.374 . S
C425 C422 1.499 . S
C425 C426 1.373 . S
C425 C427 1.389 . S
C426 H399 0.950 . S
C426 C412 1.377 . S
C426 C425 1.373 . S
C427 C411 1.377 . S
C427 C425 1.389 . S
C427 C428 1.524 . S
C428 C427 1.524 . S
C428 C429 1.397 . S
C428 C433 1.363 . S
C429 H400 0.950 . S
C429 C428 1.397 . S
C429 C430 1.334 . S
C430 H401 0.950 . S
C430 C429 1.334 . S
C430 C431 1.287 . S
C431 C430 1.287 . S
C431 C432 1.524 . S
C431 H434 0.999 . S
C432 H402 0.950 . S
C432 C431 1.524 . S
C432 C433 1.415 . S
C433 H403 0.950 . S
C433 C428 1.363 . S
C433 C432 1.415 . S
H434 C431 0.999 . S
H435 C416 0.913 . S
H436 C454 0.951 . S
H437 C456 0.951 . S
H438 C458 0.950 . S
H439 C459 0.950 . S
H440 C461 0.950 . S
H441 C464 0.950 . S
H442 C465 0.950 . S
H443 C467 0.950 . S
H444 C468 0.950 . S
H445 C469 0.951 . S
H446 C471 0.951 . S
H447 C473 0.950 . S
H448 C474 0.950 . S
H449 C476 0.950 . S
H450 C479 0.950 . S
H451 C480 0.950 . S
H452 C482 0.950 . S
H453 C483 0.950 . S
C454 H436 0.951 . S
C454 C455 1.366 . S
C454 C456 1.388 . S
C455 C454 1.366 . S
C455 C459 1.385 . S
C456 H437 0.951 . S
C456 C454 1.388 . S
C456 C457 1.366 . S
C457 C456 1.366 . S
C457 C458 1.414 . S
C457 C460 1.499 . S
C458 H438 0.950 . S
C458 C457 1.414 . S
C458 C459 1.374 . S
C459 H439 0.950 . S
C459 C455 1.385 . S
C459 C458 1.374 . S
C460 C457 1.499 . S
C460 C461 1.373 . S
C460 C462 1.389 . S
C461 H440 0.950 . S
C461 C460 1.373 . S
C461 C477 1.377 . S
C462 C460 1.389 . S
C462 C463 1.524 . S
C462 C476 1.377 . S
C463 C462 1.524 . S
C463 C464 1.397 . S
C463 C468 1.363 . S
C464 H441 0.950 . S
C464 C463 1.397 . S
C464 C465 1.334 . S
C465 H442 0.950 . S
C465 C464 1.334 . S
C465 C466 1.287 . S
C466 C465 1.287 . S
C466 C467 1.524 . S
C466 H485 0.913 . S
C467 H443 0.950 . S
C467 C466 1.524 . S
C467 C468 1.415 . S
C468 H444 0.950 . S
C468 C463 1.363 . S
C468 C467 1.415 . S
C469 H445 0.951 . S
C469 C470 1.366 . S
C469 C471 1.388 . S
C470 C469 1.366 . S
C470 C474 1.385 . S
C471 H446 0.951 . S
C471 C469 1.388 . S
C471 C472 1.366 . S
C472 C471 1.366 . S
C472 C473 1.414 . S
C472 C475 1.499 . S
C473 H447 0.950 . S
C473 C472 1.414 . S
C473 C474 1.374 . S
C474 H448 0.950 . S
C474 C470 1.385 . S
C474 C473 1.374 . S
C475 C472 1.499 . S
C475 C476 1.373 . S
C475 C477 1.389 . S
C476 H449 0.950 . S
C476 C462 1.377 . S
C476 C475 1.373 . S
C477 C461 1.377 . S
C477 C475 1.389 . S
C477 C478 1.524 . S
C478 C477 1.524 . S
C478 C479 1.397 . S
C478 C483 1.363 . S
C479 H450 0.950 . S
C479 C478 1.397 . S
C479 C480 1.334 . S
C480 H451 0.950 . S
C480 C479 1.334 . S
C480 C481 1.287 . S
C481 C480 1.287 . S
C481 C482 1.524 . S
C481 H484 0.999 . S
C482 H452 0.950 . S
C482 C481 1.524 . S
C482 C483 1.415 . S
C483 H453 0.950 . S
C483 C478 1.363 . S
C483 C482 1.415 . S
H484 C481 0.999 . S
H485 C466 0.913 . S
H486 C504 0.951 . S
H487 C506 0.951 . S
H488 C508 0.950 . S
H489 C509 0.950 . S
H490 C511 0.950 . S
H491 C514 0.950 . S
H492 C515 0.950 . S
H493 C517 0.950 . S
H494 C518 0.950 . S
H495 C519 0.951 . S
H496 C521 0.951 . S
H497 C523 0.950 . S
H498 C524 0.950 . S
H499 C526 0.950 . S
H500 C529 0.950 . S
H501 C530 0.950 . S
H502 C532 0.950 . S
H503 C533 0.950 . S
C504 H486 0.951 . S
C504 C505 1.366 . S
C504 C506 1.388 . S
C505 C504 1.366 . S
C505 C509 1.385 . S
C506 H487 0.951 . S
C506 C504 1.388 . S
C506 C507 1.366 . S
C507 C506 1.366 . S
C507 C508 1.414 . S
C507 C510 1.499 . S
C508 H488 0.950 . S
C508 C507 1.414 . S
C508 C509 1.374 . S
C509 H489 0.950 . S
C509 C505 1.385 . S
C509 C508 1.374 . S
C510 C507 1.499 . S
C510 C511 1.373 . S
C510 C512 1.389 . S
C511 H490 0.950 . S
C511 C510 1.373 . S
C511 C527 1.377 . S
C512 C510 1.389 . S
C512 C513 1.524 . S
C512 C526 1.377 . S
C513 C512 1.524 . S
C513 C514 1.397 . S
C513 C518 1.363 . S
C514 H491 0.950 . S
C514 C513 1.397 . S
C514 C515 1.334 . S
C515 H492 0.950 . S
C515 C514 1.334 . S
C515 C516 1.287 . S
C516 C515 1.287 . S
C516 C517 1.524 . S
C516 H535 0.913 . S
C517 H493 0.950 . S
C517 C516 1.524 . S
C517 C518 1.415 . S
C518 H494 0.950 . S
C518 C513 1.363 . S
C518 C517 1.415 . S
C519 H495 0.951 . S
C519 C520 1.366 . S
C519 C521 1.388 . S
C520 C519 1.366 . S
C520 C524 1.385 . S
C521 H496 0.951 . S
C521 C519 1.388 . S
C521 C522 1.366 . S
C522 C521 1.366 . S
C522 C523 1.414 . S
C522 C525 1.499 . S
C523 H497 0.950 . S
C523 C522 1.414 . S
C523 C524 1.374 . S
C524 H498 0.950 . S
C524 C520 1.385 . S
C524 C523 1.374 . S
C525 C522 1.499 . S
C525 C526 1.373 . S
C525 C527 1.389 . S
C526 H499 0.950 . S
C526 C512 1.377 . S
C526 C525 1.373 . S
C527 C511 1.377 . S
C527 C525 1.389 . S
C527 C528 1.524 . S
C528 C527 1.524 . S
C528 C529 1.397 . S
C528 C533 1.363 . S
C529 H500 0.950 . S
C529 C528 1.397 . S
C529 C530 1.334 . S
C530 H501 0.950 . S
C530 C529 1.334 . S
C530 C531 1.287 . S
C531 C530 1.287 . S
C531 C532 1.524 . S
C531 H534 0.999 . S
C532 H502 0.950 . S
C532 C531 1.524 . S
C532 C533 1.415 . S
C533 H503 0.950 . S
C533 C528 1.363 . S
C533 C532 1.415 . S
H534 C531 0.999 . S
H535 C516 0.913 . S
H536 C554 0.951 . S
H537 C556 0.951 . S
H538 C558 0.950 . S
H539 C559 0.950 . S
H540 C561 0.950 . S
H541 C564 0.950 . S
H542 C565 0.950 . S
H543 C567 0.950 . S
H544 C568 0.950 . S
H545 C569 0.951 . S
H546 C571 0.951 . S
H547 C573 0.950 . S
H548 C574 0.950 . S
H549 C576 0.950 . S
H550 C579 0.950 . S
H551 C580 0.950 . S
H552 C582 0.950 . S
H553 C583 0.950 . S
C554 H536 0.951 . S
C554 C555 1.366 . S
C554 C556 1.388 . S
C555 C554 1.366 . S
C555 C559 1.385 . S
C556 H537 0.951 . S
C556 C554 1.388 . S
C556 C557 1.366 . S
C557 C556 1.366 . S
C557 C558 1.414 . S
C557 C560 1.499 . S
C558 H538 0.950 . S
C558 C557 1.414 . S
C558 C559 1.374 . S
C559 H539 0.950 . S
C559 C555 1.385 . S
C559 C558 1.374 . S
C560 C557 1.499 . S
C560 C561 1.373 . S
C560 C562 1.389 . S
C561 H540 0.950 . S
C561 C560 1.373 . S
C561 C577 1.377 . S
C562 C560 1.389 . S
C562 C563 1.524 . S
C562 C576 1.377 . S
C563 C562 1.524 . S
C563 C564 1.397 . S
C563 C568 1.363 . S
C564 H541 0.950 . S
C564 C563 1.397 . S
C564 C565 1.334 . S
C565 H542 0.950 . S
C565 C564 1.334 . S
C565 C566 1.287 . S
C566 C565 1.287 . S
C566 C567 1.524 . S
C566 H585 0.913 . S
C567 H543 0.950 . S
C567 C566 1.524 . S
C567 C568 1.415 . S
C568 H544 0.950 . S
C568 C563 1.363 . S
C568 C567 1.415 . S
C569 H545 0.951 . S
C569 C570 1.366 . S
C569 C571 1.388 . S
C570 C569 1.366 . S
C570 C574 1.385 . S
C571 H546 0.951 . S
C571 C569 1.388 . S
C571 C572 1.366 . S
C572 C571 1.366 . S
C572 C573 1.414 . S
C572 C575 1.499 . S
C573 H547 0.950 . S
C573 C572 1.414 . S
C573 C574 1.374 . S
C574 H548 0.950 . S
C574 C570 1.385 . S
C574 C573 1.374 . S
C575 C572 1.499 . S
C575 C576 1.373 . S
C575 C577 1.389 . S
C576 H549 0.950 . S
C576 C562 1.377 . S
C576 C575 1.373 . S
C577 C561 1.377 . S
C577 C575 1.389 . S
C577 C578 1.524 . S
C578 C577 1.524 . S
C578 C579 1.397 . S
C578 C583 1.363 . S
C579 H550 0.950 . S
C579 C578 1.397 . S
C579 C580 1.334 . S
C580 H551 0.950 . S
C580 C579 1.334 . S
C580 C581 1.287 . S
C581 C580 1.287 . S
C581 C582 1.524 . S
C581 H584 0.999 . S
C582 H552 0.950 . S
C582 C581 1.524 . S
C582 C583 1.415 . S
C583 H553 0.950 . S
C583 C578 1.363 . S
C583 C582 1.415 . S
H584 C581 0.999 . S
H585 C566 0.913 . S
H586 C604 0.951 . S
H587 C606 0.951 . S
H588 C608 0.950 . S
H589 C609 0.950 . S
H590 C611 0.950 . S
H591 C614 0.950 . S
H592 C615 0.950 . S
H593 C617 0.950 . S
H594 C618 0.950 . S
H595 C619 0.951 . S
H596 C621 0.951 . S
H597 C623 0.950 . S
H598 C624 0.950 . S
H599 C626 0.950 . S
H600 C629 0.950 . S
H601 C630 0.950 . S
H602 C632 0.950 . S
H603 C633 0.950 . S
C604 H586 0.951 . S
C604 C605 1.366 . S
C604 C606 1.388 . S
C605 C604 1.366 . S
C605 C609 1.385 . S
C606 H587 0.951 . S
C606 C604 1.388 . S
C606 C607 1.366 . S
C607 C606 1.366 . S
C607 C608 1.414 . S
C607 C610 1.499 . S
C608 H588 0.950 . S
C608 C607 1.414 . S
C608 C609 1.374 . S
C609 H589 0.950 . S
C609 C605 1.385 . S
C609 C608 1.374 . S
C610 C607 1.499 . S
C610 C611 1.373 . S
C610 C612 1.389 . S
C611 H590 0.950 . S
C611 C610 1.373 . S
C611 C627 1.377 . S
C612 C610 1.389 . S
C612 C613 1.524 . S
C612 C626 1.377 . S
C613 C612 1.524 . S
C613 C614 1.397 . S
C613 C618 1.363 . S
C614 H591 0.950 . S
C614 C613 1.397 . S
C614 C615 1.334 . S
C615 H592 0.950 . S
C615 C614 1.334 . S
C615 C616 1.287 . S
C616 C615 1.287 . S
C616 C617 1.524 . S
C616 H635 0.913 . S
C617 H593 0.950 . S
C617 C616 1.524 . S
C617 C618 1.415 . S
C618 H594 0.950 . S
C618 C613 1.363 . S
C618 C617 1.415 . S
C619 H595 0.951 . S
C619 C620 1.366 . S
C619 C621 1.388 . S
C620 C619 1.366 . S
C620 C624 1.385 . S
C621 H596 0.951 . S
C621 C619 1.388 . S
C621 C622 1.366 . S
C622 C621 1.366 . S
C622 C623 1.414 . S
C622 C625 1.499 . S
C623 H597 0.950 . S
C623 C622 1.414 . S
C623 C624 1.374 . S
C624 H598 0.950 . S
C624 C620 1.385 . S
C624 C623 1.374 . S
C625 C622 1.499 . S
C625 C626 1.373 . S
C625 C627 1.389 . S
C626 H599 0.950 . S
C626 C612 1.377 . S
C626 C625 1.373 . S
C627 C611 1.377 . S
C627 C625 1.389 . S
C627 C628 1.524 . S
C628 C627 1.524 . S
C628 C629 1.397 . S
C628 C633 1.363 . S
C629 H600 0.950 . S
C629 C628 1.397 . S
C629 C630 1.334 . S
C630 H601 0.950 . S
C630 C629 1.334 . S
C630 C631 1.287 . S
C631 C630 1.287 . S
C631 C632 1.524 . S
C631 H634 0.999 . S
C632 H602 0.950 . S
C632 C631 1.524 . S
C632 C633 1.415 . S
C633 H603 0.950 . S
C633 C628 1.363 . S
C633 C632 1.415 . S
H634 C631 0.999 . S
H635 C616 0.913 . S
H636 C654 0.951 . S
H637 C656 0.951 . S
H638 C658 0.950 . S
H639 C659 0.950 . S
H640 C661 0.950 . S
H641 C664 0.950 . S
H642 C665 0.950 . S
H643 C667 0.950 . S
H644 C668 0.950 . S
H645 C669 0.951 . S
H646 C671 0.951 . S
H647 C673 0.950 . S
H648 C674 0.950 . S
H649 C676 0.950 . S
H650 C679 0.950 . S
H651 C680 0.950 . S
H652 C682 0.950 . S
H653 C683 0.950 . S
C654 H636 0.951 . S
C654 C655 1.366 . S
C654 C656 1.388 . S
C655 C654 1.366 . S
C655 C659 1.385 . S
C656 H637 0.951 . S
C656 C654 1.388 . S
C656 C657 1.366 . S
C657 C656 1.366 . S
C657 C658 1.414 . S
C657 C660 1.499 . S
C658 H638 0.950 . S
C658 C657 1.414 . S
C658 C659 1.374 . S
C659 H639 0.950 . S
C659 C655 1.385 . S
C659 C658 1.374 . S
C660 C657 1.499 . S
C660 C661 1.373 . S
C660 C662 1.389 . S
C661 H640 0.950 . S
C661 C660 1.373 . S
C661 C677 1.377 . S
C662 C660 1.389 . S
C662 C663 1.524 . S
C662 C676 1.377 . S
C663 C662 1.524 . S
C663 C664 1.397 . S
C663 C668 1.363 . S
C664 H641 0.950 . S
C664 C663 1.397 . S
C664 C665 1.334 . S
C665 H642 0.950 . S
C665 C664 1.334 . S
C665 C666 1.287 . S
C666 C665 1.287 . S
C666 C667 1.524 . S
C666 H685 0.913 . S
C667 H643 0.950 . S
C667 C666 1.524 . S
C667 C668 1.415 . S
C668 H644 0.950 . S
C668 C663 1.363 . S
C668 C667 1.415 . S
C669 H645 0.951 . S
C669 C670 1.366 . S
C669 C671 1.388 . S
C670 C669 1.366 . S
C670 C674 1.385 . S
C671 H646 0.951 . S
C671 C669 1.388 . S
C671 C672 1.366 . S
C672 C671 1.366 . S
C672 C673 1.414 . S
C672 C675 1.499 . S
C673 H647 0.950 . S
C673 C672 1.414 . S
C673 C674 1.374 . S
C674 H648 0.950 . S
C674 C670 1.385 . S
C674 C673 1.374 . S
C675 C672 1.499 . S
C675 C676 1.373 . S
C675 C677 1.389 . S
C676 H649 0.950 . S
C676 C662 1.377 . S
C676 C675 1.373 . S
C677 C661 1.377 . S
C677 C675 1.389 . S
C677 C678 1.524 . S
C678 C677 1.524 . S
C678 C679 1.397 . S
C678 C683 1.363 . S
C679 H650 0.950 . S
C679 C678 1.397 . S
C679 C680 1.334 . S
C680 H651 0.950 . S
C680 C679 1.334 . S
C680 C681 1.287 . S
C681 C680 1.287 . S
C681 C682 1.524 . S
C681 H684 0.999 . S
C682 H652 0.950 . S
C682 C681 1.524 . S
C682 C683 1.415 . S
C683 H653 0.950 . S
C683 C678 1.363 . S
C683 C682 1.415 . S
H684 C681 0.999 . S
H685 C666 0.913 . S
H686 C704 0.951 . S
H687 C706 0.951 . S
H688 C708 0.950 . S
H689 C709 0.950 . S
H690 C711 0.950 . S
H691 C714 0.950 . S
H692 C715 0.950 . S
H693 C717 0.950 . S
H694 C718 0.950 . S
H695 C719 0.951 . S
H696 C721 0.951 . S
H697 C723 0.950 . S
H698 C724 0.950 . S
H699 C726 0.950 . S
H700 C729 0.950 . S
H701 C730 0.950 . S
H702 C732 0.950 . S
H703 C733 0.950 . S
C704 H686 0.951 . S
C704 C705 1.366 . S
C704 C706 1.388 . S
C705 C704 1.366 . S
C705 C709 1.385 . S
C706 H687 0.951 . S
C706 C704 1.388 . S
C706 C707 1.366 . S
C707 C706 1.366 . S
C707 C708 1.414 . S
C707 C710 1.499 . S
C708 H688 0.950 . S
C708 C707 1.414 . S
C708 C709 1.374 . S
C709 H689 0.950 . S
C709 C705 1.385 . S
C709 C708 1.374 . S
C710 C707 1.499 . S
C710 C711 1.373 . S
C710 C712 1.389 . S
C711 H690 0.950 . S
C711 C710 1.373 . S
C711 C727 1.377 . S
C712 C710 1.389 . S
C712 C713 1.524 . S
C712 C726 1.377 . S
C713 C712 1.524 . S
C713 C714 1.397 . S
C713 C718 1.363 . S
C714 H691 0.950 . S
C714 C713 1.397 . S
C714 C715 1.334 . S
C715 H692 0.950 . S
C715 C714 1.334 . S
C715 C716 1.287 . S
C716 C715 1.287 . S
C716 C717 1.524 . S
C716 H735 0.913 . S
C717 H693 0.950 . S
C717 C716 1.524 . S
C717 C718 1.415 . S
C718 H694 0.950 . S
C718 C713 1.363 . S
C718 C717 1.415 . S
C719 H695 0.951 . S
C719 C720 1.366 . S
C719 C721 1.388 . S
C720 C719 1.366 . S
C720 C724 1.385 . S
C721 H696 0.951 . S
C721 C719 1.388 . S
C721 C722 1.366 . S
C722 C721 1.366 . S
C722 C723 1.414 . S
C722 C725 1.499 . S
C723 H697 0.950 . S
C723 C722 1.414 . S
C723 C724 1.374 . S
C724 H698 0.950 . S
C724 C720 1.385 . S
C724 C723 1.374 . S
C725 C722 1.499 . S
C725 C726 1.373 . S
C725 C727 1.389 . S
C726 H699 0.950 . S
C726 C712 1.377 . S
C726 C725 1.373 . S
C727 C711 1.377 . S
C727 C725 1.389 . S
C727 C728 1.524 . S
C728 C727 1.524 . S
C728 C729 1.397 . S
C728 C733 1.363 . S
C729 H700 0.950 . S
C729 C728 1.397 . S
C729 C730 1.334 . S
C730 H701 0.950 . S
C730 C729 1.334 . S
C730 C731 1.287 . S
C731 C730 1.287 . S
C731 C732 1.524 . S
C731 H734 0.999 . S
C732 H702 0.950 . S
C732 C731 1.524 . S
C732 C733 1.415 . S
C733 H703 0.950 . S
C733 C728 1.363 . S
C733 C732 1.415 . S
H734 C731 0.999 . S
H735 C716 0.913 . S
H736 C754 0.951 . S
H737 C756 0.951 . S
H738 C758 0.950 . S
H739 C759 0.950 . S
H740 C761 0.950 . S
H741 C764 0.950 . S
H742 C765 0.950 . S
H743 C767 0.950 . S
H744 C768 0.950 . S
H745 C769 0.951 . S
H746 C771 0.951 . S
H747 C773 0.950 . S
H748 C774 0.950 . S
H749 C776 0.950 . S
H750 C779 0.950 . S
H751 C780 0.950 . S
H752 C782 0.950 . S
H753 C783 0.950 . S
C754 H736 0.951 . S
C754 C755 1.366 . S
C754 C756 1.388 . S
C755 C754 1.366 . S
C755 C759 1.385 . S
C756 H737 0.951 . S
C756 C754 1.388 . S
C756 C757 1.366 . S
C757 C756 1.366 . S
C757 C758 1.414 . S
C757 C760 1.499 . S
C758 H738 0.950 . S
C758 C757 1.414 . S
C758 C759 1.374 . S
C759 H739 0.950 . S
C759 C755 1.385 . S
C759 C758 1.374 . S
C760 C757 1.499 . S
C760 C761 1.373 . S
C760 C762 1.389 . S
C761 H740 0.950 . S
C761 C760 1.373 . S
C761 C777 1.377 . S
C762 C760 1.389 . S
C762 C763 1.524 . S
C762 C776 1.377 . S
C763 C762 1.524 . S
C763 C764 1.397 . S
C763 C768 1.363 . S
C764 H741 0.950 . S
C764 C763 1.397 . S
C764 C765 1.334 . S
C765 H742 0.950 . S
C765 C764 1.334 . S
C765 C766 1.287 . S
C766 C765 1.287 . S
C766 C767 1.524 . S
C766 H785 0.913 . S
C767 H743 0.950 . S
C767 C766 1.524 . S
C767 C768 1.415 . S
C768 H744 0.950 . S
C768 C763 1.363 . S
C768 C767 1.415 . S
C769 H745 0.951 . S
C769 C770 1.366 . S
C769 C771 1.388 . S
C770 C769 1.366 . S
C770 C774 1.385 . S
C771 H746 0.951 . S
C771 C769 1.388 . S
C771 C772 1.366 . S
C772 C771 1.366 . S
C772 C773 1.414 . S
C772 C775 1.499 . S
C773 H747 0.950 . S
C773 C772 1.414 . S
C773 C774 1.374 . S
C774 H748 0.950 . S
C774 C770 1.385 . S
C774 C773 1.374 . S
C775 C772 1.499 . S
C775 C776 1.373 . S
C775 C777 1.389 . S
C776 H749 0.950 . S
C776 C762 1.377 . S
C776 C775 1.373 . S
C777 C761 1.377 . S
C777 C775 1.389 . S
C777 C778 1.524 . S
C778 C777 1.524 . S
C778 C779 1.397 . S
C778 C783 1.363 . S
C779 H750 0.950 . S
C779 C778 1.397 . S
C779 C780 1.334 . S
C780 H751 0.950 . S
C780 C779 1.334 . S
C780 C781 1.287 . S
C781 C780 1.287 . S
C781 C782 1.524 . S
C781 H784 0.999 . S
C782 H752 0.950 . S
C782 C781 1.524 . S
C782 C783 1.415 . S
C783 H753 0.950 . S
C783 C778 1.363 . S
C783 C782 1.415 . S
H784 C781 0.999 . S
H785 C766 0.913 . S
H786 C804 0.951 . S
H787 C806 0.951 . S
H788 C808 0.950 . S
H789 C809 0.950 . S
H790 C811 0.950 . S
H791 C814 0.950 . S
H792 C815 0.950 . S
H793 C817 0.950 . S
H794 C818 0.950 . S
H795 C819 0.951 . S
H796 C821 0.951 . S
H797 C823 0.950 . S
H798 C824 0.950 . S
H799 C826 0.950 . S
H800 C829 0.950 . S
H801 C830 0.950 . S
H802 C832 0.950 . S
H803 C833 0.950 . S
C804 H786 0.951 . S
C804 C805 1.366 . S
C804 C806 1.388 . S
C805 C804 1.366 . S
C805 C809 1.385 . S
C806 H787 0.951 . S
C806 C804 1.388 . S
C806 C807 1.366 . S
C807 C806 1.366 . S
C807 C808 1.414 . S
C807 C810 1.499 . S
C808 H788 0.950 . S
C808 C807 1.414 . S
C808 C809 1.374 . S
C809 H789 0.950 . S
C809 C805 1.385 . S
C809 C808 1.374 . S
C810 C807 1.499 . S
C810 C811 1.373 . S
C810 C812 1.389 . S
C811 H790 0.950 . S
C811 C810 1.373 . S
C811 C827 1.377 . S
C812 C810 1.389 . S
C812 C813 1.524 . S
C812 C826 1.377 . S
C813 C812 1.524 . S
C813 C814 1.397 . S
C813 C818 1.363 . S
C814 H791 0.950 . S
C814 C813 1.397 . S
C814 C815 1.334 . S
C815 H792 0.950 . S
C815 C814 1.334 . S
C815 C816 1.287 . S
C816 C815 1.287 . S
C816 C817 1.524 . S
C816 H835 0.913 . S
C817 H793 0.950 . S
C817 C816 1.524 . S
C817 C818 1.415 . S
C818 H794 0.950 . S
C818 C813 1.363 . S
C818 C817 1.415 . S
C819 H795 0.951 . S
C819 C820 1.366 . S
C819 C821 1.388 . S
C820 C819 1.366 . S
C820 C824 1.385 . S
C821 H796 0.951 . S
C821 C819 1.388 . S
C821 C822 1.366 . S
C822 C821 1.366 . S
C822 C823 1.414 . S
C822 C825 1.499 . S
C823 H797 0.950 . S
C823 C822 1.414 . S
C823 C824 1.374 . S
C824 H798 0.950 . S
C824 C820 1.385 . S
C824 C823 1.374 . S
C825 C822 1.499 . S
C825 C826 1.373 . S
C825 C827 1.389 . S
C826 H799 0.950 . S
C826 C812 1.377 . S
C826 C825 1.373 . S
C827 C811 1.377 . S
C827 C825 1.389 . S
C827 C828 1.524 . S
C828 C827 1.524 . S
C828 C829 1.397 . S
C828 C833 1.363 . S
C829 H800 0.950 . S
C829 C828 1.397 . S
C829 C830 1.334 . S
C830 H801 0.950 . S
C830 C829 1.334 . S
C830 C831 1.287 . S
C831 C830 1.287 . S
C831 C832 1.524 . S
C831 H834 0.999 . S
C832 H802 0.950 . S
C832 C831 1.524 . S
C832 C833 1.415 . S
C833 H803 0.950 . S
C833 C828 1.363 . S
C833 C832 1.415 . S
H834 C831 0.999 . S
H835 C816 0.913 . S
H836 C854 0.951 . S
H837 C856 0.951 . S
H838 C858 0.950 . S
H839 C859 0.950 . S
H840 C861 0.950 . S
H841 C864 0.950 . S
H842 C865 0.950 . S
H843 C867 0.950 . S
H844 C868 0.950 . S
H845 C869 0.951 . S
H846 C871 0.951 . S
H847 C873 0.950 . S
H848 C874 0.950 . S
H849 C876 0.950 . S
H850 C879 0.950 . S
H851 C880 0.950 . S
H852 C882 0.950 . S
H853 C883 0.950 . S
C854 H836 0.951 . S
C854 C855 1.366 . S
C854 C856 1.388 . S
C855 C854 1.366 . S
C855 C859 1.385 . S
C856 H837 0.951 . S
C856 C854 1.388 . S
C856 C857 1.366 . S
C857 C856 1.366 . S
C857 C858 1.414 . S
C857 C860 1.499 . S
C858 H838 0.950 . S
C858 C857 1.414 . S
C858 C859 1.374 . S
C859 H839 0.950 . S
C859 C855 1.385 . S
C859 C858 1.374 . S
C860 C857 1.499 . S
C860 C861 1.373 . S
C860 C862 1.389 . S
C861 H840 0.950 . S
C861 C860 1.373 . S
C861 C877 1.377 . S
C862 C860 1.389 . S
C862 C863 1.524 . S
C862 C876 1.377 . S
C863 C862 1.524 . S
C863 C864 1.397 . S
C863 C868 1.363 . S
C864 H841 0.950 . S
C864 C863 1.397 . S
C864 C865 1.334 . S
C865 H842 0.950 . S
C865 C864 1.334 . S
C865 C866 1.287 . S
C866 C865 1.287 . S
C866 C867 1.524 . S
C866 H885 0.913 . S
C867 H843 0.950 . S
C867 C866 1.524 . S
C867 C868 1.415 . S
C868 H844 0.950 . S
C868 C863 1.363 . S
C868 C867 1.415 . S
C869 H845 0.951 . S
C869 C870 1.366 . S
C869 C871 1.388 . S
C870 C869 1.366 . S
C870 C874 1.385 . S
C871 H846 0.951 . S
C871 C869 1.388 . S
C871 C872 1.366 . S
C872 C871 1.366 . S
C872 C873 1.414 . S
C872 C875 1.499 . S
C873 H847 0.950 . S
C873 C872 1.414 . S
C873 C874 1.374 . S
C874 H848 0.950 . S
C874 C870 1.385 . S
C874 C873 1.374 . S
C875 C872 1.499 . S
C875 C876 1.373 . S
C875 C877 1.389 . S
C876 H849 0.950 . S
C876 C862 1.377 . S
C876 C875 1.373 . S
C877 C861 1.377 . S
C877 C875 1.389 . S
C877 C878 1.524 . S
C878 C877 1.524 . S
C878 C879 1.397 . S
C878 C883 1.363 . S
C879 H850 0.950 . S
C879 C878 1.397 . S
C879 C880 1.334 . S
C880 H851 0.950 . S
C880 C879 1.334 . S
C880 C881 1.287 . S
C881 C880 1.287 . S
C881 C882 1.524 . S
C881 H884 0.999 . S
C882 H852 0.950 . S
C882 C881 1.524 . S
C882 C883 1.415 . S
C883 H853 0.950 . S
C883 C878 1.363 . S
C883 C882 1.415 . S
H884 C881 0.999 . S
H885 C866 0.913 . S
H886 C904 0.951 . S
H887 C906 0.951 . S
H888 C908 0.950 . S
H889 C909 0.950 . S
H890 C911 0.950 . S
H891 C914 0.950 . S
H892 C915 0.950 . S
H893 C917 0.950 . S
H894 C918 0.950 . S
H895 C919 0.951 . S
H896 C921 0.951 . S
H897 C923 0.950 . S
H898 C924 0.950 . S
H899 C926 0.950 . S
H900 C929 0.950 . S
H901 C930 0.950 . S
H902 C932 0.950 . S
H903 C933 0.950 . S
C904 H886 0.951 . S
C904 C905 1.366 . S
C904 C906 1.388 . S
C905 C904 1.366 . S
C905 C909 1.385 . S
C906 H887 0.951 . S
C906 C904 1.388 . S
C906 C907 1.366 . S
C907 C906 1.366 . S
C907 C908 1.414 . S
C907 C910 1.499 . S
C908 H888 0.950 . S
C908 C907 1.414 . S
C908 C909 1.374 . S
C909 H889 0.950 . S
C909 C905 1.385 . S
C909 C908 1.374 . S
C910 C907 1.499 . S
C910 C911 1.373 . S
C910 C912 1.389 . S
C911 H890 0.950 . S
C911 C910 1.373 . S
C911 C927 1.377 . S
C912 C910 1.389 . S
C912 C913 1.524 . S
C912 C926 1.377 . S
C913 C912 1.524 . S
C913 C914 1.397 . S
C913 C918 1.363 . S
C914 H891 0.950 . S
C914 C913 1.397 . S
C914 C915 1.334 . S
C915 H892 0.950 . S
C915 C914 1.334 . S
C915 C916 1.287 . S
C916 C915 1.287 . S
C916 C917 1.524 . S
C916 H935 0.913 . S
C917 H893 0.950 . S
C917 C916 1.524 . S
C917 C918 1.415 . S
C918 H894 0.950 . S
C918 C913 1.363 . S
C918 C917 1.415 . S
C919 H895 0.951 . S
C919 C920 1.366 . S
C919 C921 1.388 . S
C920 C919 1.366 . S
C920 C924 1.385 . S
C921 H896 0.951 . S
C921 C919 1.388 . S
C921 C922 1.366 . S
C922 C921 1.366 . S
C922 C923 1.414 . S
C922 C925 1.499 . S
C923 H897 0.950 . S
C923 C922 1.414 . S
C923 C924 1.374 . S
C924 H898 0.950 . S
C924 C920 1.385 . S
C924 C923 1.374 . S
C925 C922 1.499 . S
C925 C926 1.373 . S
C925 C927 1.389 . S
C926 H899 0.950 . S
C926 C912 1.377 . S
C926 C925 1.373 . S
C927 C911 1.377 . S
C927 C925 1.389 . S
C927 C928 1.524 . S
C928 C927 1.524 . S
C928 C929 1.397 . S
C928 C933 1.363 . S
C929 H900 0.950 . S
C929 C928 1.397 . S
C929 C930 1.334 . S
C930 H901 0.950 . S
C930 C929 1.334 . S
C930 C931 1.287 . S
C931 C930 1.287 . S
C931 C932 1.524 . S
C931 H934 0.999 . S
C932 H902 0.950 . S
C932 C931 1.524 . S
C932 C933 1.415 . S
C933 H903 0.950 . S
C933 C928 1.363 . S
C933 C932 1.415 . S
H934 C931 0.999 . S
H935 C916 0.913 . S
H936 C954 0.951 . S
H937 C956 0.951 . S
H938 C958 0.950 . S
H939 C959 0.950 . S
H940 C961 0.950 . S
H941 C964 0.950 . S
H942 C965 0.950 . S
H943 C967 0.950 . S
H944 C968 0.950 1_455 S
H945 C969 0.951 . S
H946 C971 0.951 . S
H947 C973 0.950 . S
H948 C974 0.950 . S
H949 C976 0.950 . S
H950 C979 0.950 . S
H951 C980 0.950 . S
H952 C982 0.950 . S
H953 C983 0.950 . S
C954 H936 0.951 . S
C954 C955 1.366 . S
C954 C956 1.388 . S
C955 C954 1.366 . S
C955 C959 1.385 . S
C956 H937 0.951 . S
C956 C954 1.388 . S
C956 C957 1.366 . S
C957 C956 1.366 . S
C957 C958 1.414 . S
C957 C960 1.499 . S
C958 H938 0.950 . S
C958 C957 1.414 . S
C958 C959 1.374 . S
C959 H939 0.950 . S
C959 C955 1.385 . S
C959 C958 1.374 . S
C960 C957 1.499 . S
C960 C961 1.373 . S
C960 C962 1.389 . S
C961 H940 0.950 . S
C961 C960 1.373 . S
C961 C977 1.377 . S
C962 C960 1.389 . S
C962 C963 1.524 1_455 S
C962 C976 1.377 . S
C963 C962 1.524 1_655 S
C963 C964 1.397 . S
C963 C968 1.363 . S
C964 H941 0.950 . S
C964 C963 1.397 . S
C964 C965 1.334 . S
C965 H942 0.950 . S
C965 C964 1.334 . S
C965 C966 1.287 . S
C966 C965 1.287 . S
C966 C967 1.524 . S
C966 H985 0.913 . S
C967 H943 0.950 . S
C967 C966 1.524 . S
C967 C968 1.415 . S
C968 H944 0.950 1_655 S
C968 C963 1.363 . S
C968 C967 1.415 . S
C969 H945 0.951 . S
C969 C970 1.366 . S
C969 C971 1.388 1_556 S
C970 C969 1.366 . S
C970 C974 1.385 . S
C971 H946 0.951 . S
C971 C969 1.388 1_554 S
C971 C972 1.366 . S
C972 C971 1.366 . S
C972 C973 1.414 . S
C972 C975 1.499 . S
C973 H947 0.950 . S
C973 C972 1.414 . S
C973 C974 1.374 1_554 S
C974 H948 0.950 . S
C974 C970 1.385 . S
C974 C973 1.374 1_556 S
C975 C972 1.499 . S
C975 C976 1.373 . S
C975 C977 1.389 . S
C976 H949 0.950 . S
C976 C962 1.377 . S
C976 C975 1.373 . S
C977 C961 1.377 . S
C977 C975 1.389 . S
C977 C978 1.524 . S
C978 C977 1.524 . S
C978 C979 1.397 . S
C978 C983 1.363 . S
C979 H950 0.950 . S
C979 C978 1.397 . S
C979 C980 1.334 . S
C980 H951 0.950 . S
C980 C979 1.334 . S
C980 C981 1.287 . S
C981 C980 1.287 . S
C981 C982 1.524 . S
C981 H984 0.999 . S
C982 H952 0.950 . S
C982 C981 1.524 . S
C982 C983 1.415 . S
C983 H953 0.950 . S
C983 C978 1.363 . S
C983 C982 1.415 . S
H984 C981 0.999 . S
H985 C966 0.913 . S
H986 C1004 0.951 . S
H987 C1006 0.951 . S
H988 C1008 0.950 . S
H989 C1009 0.950 . S
H990 C1011 0.950 . S
H991 C1014 0.950 1_545 S
H992 C1015 0.950 . S
H993 C1017 0.950 . S
H994 C1018 0.950 . S
H995 C1019 0.951 . S
H996 C1021 0.951 . S
H997 C1023 0.950 1_565 S
H998 C1024 0.950 1_565 S
H999 C1026 0.950 1_565 S
H1000 C1029 0.950 . S
H1001 C1030 0.950 . S
H1002 C1032 0.950 . S
H1003 C1033 0.950 . S
C1004 H986 0.951 . S
C1004 C1005 1.366 1_565 S
C1004 C1006 1.388 . S
C1005 C1004 1.366 1_545 S
C1005 C1009 1.385 . S
C1006 H987 0.951 . S
C1006 C1004 1.388 . S
C1006 C1007 1.366 1_565 S
C1007 C1006 1.366 1_545 S
C1007 C1008 1.414 . S
C1007 C1010 1.499 . S
C1008 H988 0.950 . S
C1008 C1007 1.414 . S
C1008 C1009 1.374 . S
C1009 H989 0.950 . S
C1009 C1005 1.385 . S
C1009 C1008 1.374 . S
C1010 C1007 1.499 . S
C1010 C1011 1.373 . S
C1010 C1012 1.389 . S
C1011 H990 0.950 . S
C1011 C1010 1.373 . S
C1011 C1027 1.377 . S
C1012 C1010 1.389 . S
C1012 C1013 1.524 1_545 S
C1012 C1026 1.377 . S
C1013 C1012 1.524 1_565 S
C1013 C1014 1.397 . S
C1013 C1018 1.363 . S
C1014 H991 0.950 1_565 S
C1014 C1013 1.397 . S
C1014 C1015 1.334 . S
C1015 H992 0.950 . S
C1015 C1014 1.334 . S
C1015 C1016 1.287 . S
C1016 C1015 1.287 . S
C1016 C1017 1.524 . S
C1016 H1035 0.913 . S
C1017 H993 0.950 . S
C1017 C1016 1.524 . S
C1017 C1018 1.415 . S
C1018 H994 0.950 . S
C1018 C1013 1.363 . S
C1018 C1017 1.415 . S
C1019 H995 0.951 . S
C1019 C1020 1.366 . S
C1019 C1021 1.388 . S
C1020 C1019 1.366 . S
C1020 C1024 1.385 . S
C1021 H996 0.951 . S
C1021 C1019 1.388 . S
C1021 C1022 1.366 . S
C1022 C1021 1.366 . S
C1022 C1023 1.414 . S
C1022 C1025 1.499 . S
C1023 H997 0.950 1_545 S
C1023 C1022 1.414 . S
C1023 C1024 1.374 . S
C1024 H998 0.950 1_545 S
C1024 C1020 1.385 . S
C1024 C1023 1.374 . S
C1025 C1022 1.499 . S
C1025 C1026 1.373 . S
C1025 C1027 1.389 . S
C1026 H999 0.950 1_545 S
C1026 C1012 1.377 . S
C1026 C1025 1.373 . S
C1027 C1011 1.377 . S
C1027 C1025 1.389 . S
C1027 C1028 1.524 . S
C1028 C1027 1.524 . S
C1028 C1029 1.397 . S
C1028 C1033 1.363 . S
C1029 H1000 0.950 . S
C1029 C1028 1.397 . S
C1029 C1030 1.334 . S
C1030 H1001 0.950 . S
C1030 C1029 1.334 . S
C1030 C1031 1.287 . S
C1031 C1030 1.287 . S
C1031 C1032 1.524 . S
C1031 H1034 0.999 . S
C1032 H1002 0.950 . S
C1032 C1031 1.524 . S
C1032 C1033 1.415 . S
C1033 H1003 0.950 . S
C1033 C1028 1.363 . S
C1033 C1032 1.415 . S
H1034 C1031 0.999 . S
H1035 C1016 0.913 . S
H1036 C1054 0.951 . S
H1037 C1056 0.951 . S
H1038 C1058 0.950 . S
H1039 C1059 0.950 . S
H1040 C1061 0.950 . S
H1041 C1064 0.950 . S
H1042 C1065 0.950 . S
H1043 C1067 0.950 . S
H1044 C1068 0.950 . S
H1045 C1069 0.951 . S
H1046 C1071 0.951 . S
H1047 C1073 0.950 . S
H1048 C1074 0.950 . S
H1049 C1076 0.950 . S
H1050 C1079 0.950 . S
H1051 C1080 0.950 . S
H1052 C1082 0.950 . S
H1053 C1083 0.950 . S
C1054 H1036 0.951 . S
C1054 C1055 1.366 . S
C1054 C1056 1.388 . S
C1055 C1054 1.366 . S
C1055 C1059 1.385 . S
C1056 H1037 0.951 . S
C1056 C1054 1.388 . S
C1056 C1057 1.366 . S
C1057 C1056 1.366 . S
C1057 C1058 1.414 . S
C1057 C1060 1.499 . S
C1058 H1038 0.950 . S
C1058 C1057 1.414 . S
C1058 C1059 1.374 . S
C1059 H1039 0.950 . S
C1059 C1055 1.385 . S
C1059 C1058 1.374 . S
C1060 C1057 1.499 . S
C1060 C1061 1.373 . S
C1060 C1062 1.389 . S
C1061 H1040 0.950 . S
C1061 C1060 1.373 . S
C1061 C1077 1.377 . S
C1062 C1060 1.389 . S
C1062 C1063 1.524 . S
C1062 C1076 1.377 . S
C1063 C1062 1.524 . S
C1063 C1064 1.397 . S
C1063 C1068 1.363 . S
C1064 H1041 0.950 . S
C1064 C1063 1.397 . S
C1064 C1065 1.334 . S
C1065 H1042 0.950 . S
C1065 C1064 1.334 . S
C1065 C1066 1.287 . S
C1066 C1065 1.287 . S
C1066 C1067 1.524 . S
C1066 H1085 0.913 . S
C1067 H1043 0.950 . S
C1067 C1066 1.524 . S
C1067 C1068 1.415 . S
C1068 H1044 0.950 . S
C1068 C1063 1.363 . S
C1068 C1067 1.415 . S
C1069 H1045 0.951 . S
C1069 C1070 1.366 . S
C1069 C1071 1.388 . S
C1070 C1069 1.366 . S
C1070 C1074 1.385 . S
C1071 H1046 0.951 . S
C1071 C1069 1.388 . S
C1071 C1072 1.366 . S
C1072 C1071 1.366 . S
C1072 C1073 1.414 . S
C1072 C1075 1.499 . S
C1073 H1047 0.950 . S
C1073 C1072 1.414 . S
C1073 C1074 1.374 . S
C1074 H1048 0.950 . S
C1074 C1070 1.385 . S
C1074 C1073 1.374 . S
C1075 C1072 1.499 . S
C1075 C1076 1.373 . S
C1075 C1077 1.389 . S
C1076 H1049 0.950 . S
C1076 C1062 1.377 . S
C1076 C1075 1.373 . S
C1077 C1061 1.377 . S
C1077 C1075 1.389 . S
C1077 C1078 1.524 . S
C1078 C1077 1.524 . S
C1078 C1079 1.397 . S
C1078 C1083 1.363 . S
C1079 H1050 0.950 . S
C1079 C1078 1.397 . S
C1079 C1080 1.334 . S
C1080 H1051 0.950 . S
C1080 C1079 1.334 . S
C1080 C1081 1.287 . S
C1081 C1080 1.287 . S
C1081 C1082 1.524 . S
C1081 H1084 0.999 . S
C1082 H1052 0.950 . S
C1082 C1081 1.524 . S
C1082 C1083 1.415 . S
C1083 H1053 0.950 . S
C1083 C1078 1.363 . S
C1083 C1082 1.415 . S
H1084 C1081 0.999 . S
H1085 C1066 0.913 . S
H1086 C1104 0.951 . S
H1087 C1106 0.951 . S
H1088 C1108 0.950 . S
H1089 C1109 0.950 . S
H1090 C1111 0.950 . S
H1091 C1114 0.950 . S
H1092 C1115 0.950 . S
H1093 C1117 0.950 . S
H1094 C1118 0.950 . S
H1095 C1119 0.951 . S
H1096 C1121 0.951 . S
H1097 C1123 0.950 . S
H1098 C1124 0.950 . S
H1099 C1126 0.950 . S
H1100 C1129 0.950 . S
H1101 C1130 0.950 . S
H1102 C1132 0.950 . S
H1103 C1133 0.950 . S
C1104 H1086 0.951 . S
C1104 C1105 1.366 . S
C1104 C1106 1.388 . S
C1105 C1104 1.366 . S
C1105 C1109 1.385 1_545 S
C1106 H1087 0.951 . S
C1106 C1104 1.388 . S
C1106 C1107 1.366 . S
C1107 C1106 1.366 . S
C1107 C1108 1.414 1_545 S
C1107 C1110 1.499 . S
C1108 H1088 0.950 . S
C1108 C1107 1.414 1_565 S
C1108 C1109 1.374 . S
C1109 H1089 0.950 . S
C1109 C1105 1.385 1_565 S
C1109 C1108 1.374 . S
C1110 C1107 1.499 . S
C1110 C1111 1.373 1_545 S
C1110 C1112 1.389 . S
C1111 H1090 0.950 . S
C1111 C1110 1.373 1_565 S
C1111 C1127 1.377 . S
C1112 C1110 1.389 . S
C1112 C1113 1.524 . S
C1112 C1126 1.377 . S
C1113 C1112 1.524 . S
C1113 C1114 1.397 . S
C1113 C1118 1.363 . S
C1114 H1091 0.950 . S
C1114 C1113 1.397 . S
C1114 C1115 1.334 . S
C1115 H1092 0.950 . S
C1115 C1114 1.334 . S
C1115 C1116 1.287 . S
C1116 C1115 1.287 . S
C1116 C1117 1.524 . S
C1116 H1135 0.913 . S
C1117 H1093 0.950 . S
C1117 C1116 1.524 . S
C1117 C1118 1.415 . S
C1118 H1094 0.950 . S
C1118 C1113 1.363 . S
C1118 C1117 1.415 . S
C1119 H1095 0.951 . S
C1119 C1120 1.366 1_565 S
C1119 C1121 1.388 . S
C1120 C1119 1.366 1_545 S
C1120 C1124 1.385 . S
C1121 H1096 0.951 . S
C1121 C1119 1.388 . S
C1121 C1122 1.366 1_565 S
C1122 C1121 1.366 1_545 S
C1122 C1123 1.414 . S
C1122 C1125 1.499 . S
C1123 H1097 0.950 . S
C1123 C1122 1.414 . S
C1123 C1124 1.374 . S
C1124 H1098 0.950 . S
C1124 C1120 1.385 . S
C1124 C1123 1.374 . S
C1125 C1122 1.499 . S
C1125 C1126 1.373 . S
C1125 C1127 1.389 1_545 S
C1126 H1099 0.950 . S
C1126 C1112 1.377 . S
C1126 C1125 1.373 . S
C1127 C1111 1.377 . S
C1127 C1125 1.389 1_565 S
C1127 C1128 1.524 . S
C1128 C1127 1.524 . S
C1128 C1129 1.397 . S
C1128 C1133 1.363 . S
C1129 H1100 0.950 . S
C1129 C1128 1.397 . S
C1129 C1130 1.334 . S
C1130 H1101 0.950 . S
C1130 C1129 1.334 . S
C1130 C1131 1.287 . S
C1131 C1130 1.287 . S
C1131 C1132 1.524 . S
C1131 H1134 0.999 . S
C1132 H1102 0.950 . S
C1132 C1131 1.524 . S
C1132 C1133 1.415 . S
C1133 H1103 0.950 . S
C1133 C1128 1.363 . S
C1133 C1132 1.415 . S
H1134 C1131 0.999 . S
H1135 C1116 0.913 . S
H1136 C1154 0.951 . S
H1137 C1156 0.951 . S
H1138 C1158 0.950 . S
H1139 C1159 0.950 . S
H1140 C1161 0.950 . S
H1141 C1164 0.950 . S
H1142 C1165 0.950 . S
H1143 C1167 0.950 . S
H1144 C1168 0.950 . S
H1145 C1169 0.951 . S
H1146 C1171 0.951 . S
H1147 C1173 0.950 . S
H1148 C1174 0.950 . S
H1149 C1176 0.950 . S
H1150 C1179 0.950 . S
H1151 C1180 0.950 . S
H1152 C1182 0.950 . S
H1153 C1183 0.950 . S
C1154 H1136 0.951 . S
C1154 C1155 1.366 . S
C1154 C1156 1.388 . S
C1155 C1154 1.366 . S
C1155 C1159 1.385 . S
C1156 H1137 0.951 . S
C1156 C1154 1.388 . S
C1156 C1157 1.366 . S
C1157 C1156 1.366 . S
C1157 C1158 1.414 . S
C1157 C1160 1.499 . S
C1158 H1138 0.950 . S
C1158 C1157 1.414 . S
C1158 C1159 1.374 . S
C1159 H1139 0.950 . S
C1159 C1155 1.385 . S
C1159 C1158 1.374 . S
C1160 C1157 1.499 . S
C1160 C1161 1.373 . S
C1160 C1162 1.389 . S
C1161 H1140 0.950 . S
C1161 C1160 1.373 . S
C1161 C1177 1.377 . S
C1162 C1160 1.389 . S
C1162 C1163 1.524 . S
C1162 C1176 1.377 . S
C1163 C1162 1.524 . S
C1163 C1164 1.397 . S
C1163 C1168 1.363 . S
C1164 H1141 0.950 . S
C1164 C1163 1.397 . S
C1164 C1165 1.334 . S
C1165 H1142 0.950 . S
C1165 C1164 1.334 . S
C1165 C1166 1.287 . S
C1166 C1165 1.287 . S
C1166 C1167 1.524 . S
C1166 H1185 0.913 . S
C1167 H1143 0.950 . S
C1167 C1166 1.524 . S
C1167 C1168 1.415 . S
C1168 H1144 0.950 . S
C1168 C1163 1.363 . S
C1168 C1167 1.415 . S
C1169 H1145 0.951 . S
C1169 C1170 1.366 . S
C1169 C1171 1.388 1_554 S
C1170 C1169 1.366 . S
C1170 C1174 1.385 . S
C1171 H1146 0.951 . S
C1171 C1169 1.388 1_556 S
C1171 C1172 1.366 . S
C1172 C1171 1.366 . S
C1172 C1173 1.414 . S
C1172 C1175 1.499 . S
C1173 H1147 0.950 . S
C1173 C1172 1.414 . S
C1173 C1174 1.374 1_556 S
C1174 H1148 0.950 . S
C1174 C1170 1.385 . S
C1174 C1173 1.374 1_554 S
C1175 C1172 1.499 . S
C1175 C1176 1.373 . S
C1175 C1177 1.389 . S
C1176 H1149 0.950 . S
C1176 C1162 1.377 . S
C1176 C1175 1.373 . S
C1177 C1161 1.377 . S
C1177 C1175 1.389 . S
C1177 C1178 1.524 . S
C1178 C1177 1.524 . S
C1178 C1179 1.397 . S
C1178 C1183 1.363 . S
C1179 H1150 0.950 . S
C1179 C1178 1.397 . S
C1179 C1180 1.334 . S
C1180 H1151 0.950 . S
C1180 C1179 1.334 . S
C1180 C1181 1.287 . S
C1181 C1180 1.287 . S
C1181 C1182 1.524 . S
C1181 H1184 0.999 . S
C1182 H1152 0.950 . S
C1182 C1181 1.524 . S
C1182 C1183 1.415 . S
C1183 H1153 0.950 . S
C1183 C1178 1.363 . S
C1183 C1182 1.415 . S
H1184 C1181 0.999 . S
H1185 C1166 0.913 . S
H1186 C1204 0.951 . S
H1187 C1206 0.951 . S
H1188 C1208 0.950 . S
H1189 C1209 0.950 . S
H1190 C1211 0.950 . S
H1191 C1214 0.932 1_455 S
H1192 C1215 0.950 . S
H1193 C1217 0.950 . S
H1194 C1218 0.950 . S
H1195 C1219 0.951 . S
H1196 C1221 0.951 . S
H1197 C1223 0.950 . S
H1198 C1224 0.950 . S
H1199 C1226 0.950 . S
H1200 C1229 0.950 . S
H1201 C1230 0.950 . S
H1202 C1232 0.950 . S
H1203 C1233 0.950 . S
C1204 H1186 0.951 . S
C1204 C1205 1.366 1_655 S
C1204 C1206 1.388 . S
C1205 C1204 1.366 1_455 S
C1205 C1209 1.385 . S
C1206 H1187 0.951 . S
C1206 C1204 1.388 . S
C1206 C1207 1.366 1_655 S
C1207 C1206 1.366 1_455 S
C1207 C1208 1.414 . S
C1207 C1210 1.499 . S
C1208 H1188 0.950 . S
C1208 C1207 1.414 . S
C1208 C1209 1.374 . S
C1209 H1189 0.950 . S
C1209 C1205 1.385 . S
C1209 C1208 1.374 . S
C1210 C1207 1.499 . S
C1210 C1211 1.373 . S
C1210 C1212 1.389 1_455 S
C1211 H1190 0.950 . S
C1211 C1210 1.373 . S
C1211 C1227 1.377 . S
C1212 C1210 1.389 1_655 S
C1212 C1213 1.524 . S
C1212 C1226 1.377 . S
C1213 C1212 1.524 . S
C1213 C1214 1.397 . S
C1213 C1218 1.363 . S
C1214 H1191 0.932 1_655 S
C1214 C1213 1.397 . S
C1214 C1215 1.334 . S
C1215 H1192 0.950 . S
C1215 C1214 1.334 . S
C1215 C1216 1.287 . S
C1216 C1215 1.287 . S
C1216 C1217 1.524 . S
C1216 H1235 0.913 . S
C1217 H1193 0.950 . S
C1217 C1216 1.524 . S
C1217 C1218 1.415 . S
C1218 H1194 0.950 . S
C1218 C1213 1.363 . S
C1218 C1217 1.415 . S
C1219 H1195 0.951 . S
C1219 C1220 1.392 . S
C1219 C1221 1.388 . S
C1220 C1219 1.392 . S
C1220 C1224 1.362 1_455 S
C1221 H1196 0.951 . S
C1221 C1219 1.388 . S
C1221 C1222 1.366 . S
C1222 C1221 1.366 . S
C1222 C1223 1.414 1_455 S
C1222 C1225 1.499 . S
C1223 H1197 0.950 . S
C1223 C1222 1.414 1_655 S
C1223 C1224 1.374 . S
C1224 H1198 0.950 . S
C1224 C1220 1.362 1_655 S
C1224 C1223 1.374 . S
C1225 C1222 1.499 . S
C1225 C1226 1.373 1_455 S
C1225 C1227 1.389 . S
C1226 H1199 0.950 . S
C1226 C1212 1.377 . S
C1226 C1225 1.373 1_655 S
C1227 C1211 1.377 . S
C1227 C1225 1.389 . S
C1227 C1228 1.524 . S
C1228 C1227 1.524 . S
C1228 C1229 1.397 . S
C1228 C1233 1.363 . S
C1229 H1200 0.950 . S
C1229 C1228 1.397 . S
C1229 C1230 1.334 . S
C1230 H1201 0.950 . S
C1230 C1229 1.334 . S
C1230 C1231 1.287 . S
C1231 C1230 1.287 . S
C1231 C1232 1.524 . S
C1231 H1234 0.999 . S
C1232 H1202 0.950 . S
C1232 C1231 1.524 . S
C1232 C1233 1.415 . S
C1233 H1203 0.950 . S
C1233 C1228 1.363 . S
C1233 C1232 1.415 . S
H1234 C1231 0.999 . S
H1235 C1216 0.913 . S
C355 C10 3.070 . S
C370 C325 3.001 . S
C405 C55 1.147 . S
C420 C253 1.146 . S
C455 C90 1.839 . S
C470 C289 1.794 . S
C505 C19 2.909 . S
C520 C301 2.904 . S
C570 C229 1.265 . S
C555 C46 1.254 . S
C620 C265 1.990 . S
C605 C99 2.005 . S
C655 C50 1.851 . S
C670 C181 1.799 . S
C705 C95 0.473 . S
C720 C193 0.458 . S
C755 C6 1.291 . S
C770 C121 1.292 . S
C820 C157 1.954 . S
C805 C59 1.974 . S
C870 C217 0.281 . S
C855 C86 0.346 . S
C905 C15 1.169 . S
C920 C145 1.158 . S
C970 C223 1.121 . S
C955 C18 1.106 . S
C1005 C49 1.451 . S
C1020 C151 1.487 . S
C1055 C98 1.340 . S
C1070 C187 1.373 . S
C1120 C295 1.378 . S
C1105 C58 1.340 . S
C1170 C331 1.762 . S
C1155 C89 1.693 . S
C1205 C9 1.455 . S
C1220 C259 1.508 . S
