# Generated by pormake.
# Topology csq, (4,8)-cn, num edge types: 1
# Building blocks:
#     Node 0, Type 0, BuildingBlock: NAHDIM_clean_linker_0, # of connection points: 4
#     Node 1, Type 0, BuildingBlock: NAHDIM_clean_linker_0, # of connection points: 4
#     Node 2, Type 0, BuildingBlock: NAHDIM_clean_linker_0, # of connection points: 4
#     Node 3, Type 0, BuildingBlock: NAHDIM_clean_linker_0, # of connection points: 4
#     Node 4, Type 0, BuildingBlock: NAHDIM_clean_linker_0, # of connection points: 4
#     Node 5, Type 0, BuildingBlock: NAHDIM_clean_linker_0, # of connection points: 4
#     Node 6, Type 1, BuildingBlock: TAGTUT_clean_sbu_3, # of connection points: 8
#     Node 7, Type 1, BuildingBlock: TAGTUT_clean_sbu_3, # of connection points: 8
#     Node 8, Type 1, BuildingBlock: TAGTUT_clean_sbu_3, # of connection points: 8
#     Edge 9, Type (0, 1), BuildingBlock: CIFDUS_clean_linker_0, # of connection points: 2
#     Edge 10, Type (0, 1), BuildingBlock: CIFDUS_clean_linker_0, # of connection points: 2
#     Edge 11, Type (0, 1), BuildingBlock: CIFDUS_clean_linker_0, # of connection points: 2
#     Edge 12, Type (0, 1), BuildingBlock: CIFDUS_clean_linker_0, # of connection points: 2
#     Edge 13, Type (0, 1), BuildingBlock: CIFDUS_clean_linker_0, # of connection points: 2
#     Edge 14, Type (0, 1), BuildingBlock: CIFDUS_clean_linker_0, # of connection points: 2
#     Edge 15, Type (0, 1), BuildingBlock: CIFDUS_clean_linker_0, # of connection points: 2
#     Edge 16, Type (0, 1), BuildingBlock: CIFDUS_clean_linker_0, # of connection points: 2
#     Edge 17, Type (0, 1), BuildingBlock: CIFDUS_clean_linker_0, # of connection points: 2
#     Edge 18, Type (0, 1), BuildingBlock: CIFDUS_clean_linker_0, # of connection points: 2
#     Edge 19, Type (0, 1), BuildingBlock: CIFDUS_clean_linker_0, # of connection points: 2
#     Edge 20, Type (0, 1), BuildingBlock: CIFDUS_clean_linker_0, # of connection points: 2
#     Edge 21, Type (0, 1), BuildingBlock: CIFDUS_clean_linker_0, # of connection points: 2
#     Edge 22, Type (0, 1), BuildingBlock: CIFDUS_clean_linker_0, # of connection points: 2
#     Edge 23, Type (0, 1), BuildingBlock: CIFDUS_clean_linker_0, # of connection points: 2
#     Edge 24, Type (0, 1), BuildingBlock: CIFDUS_clean_linker_0, # of connection points: 2
#     Edge 25, Type (0, 1), BuildingBlock: CIFDUS_clean_linker_0, # of connection points: 2
#     Edge 26, Type (0, 1), BuildingBlock: CIFDUS_clean_linker_0, # of connection points: 2
#     Edge 27, Type (0, 1), BuildingBlock: CIFDUS_clean_linker_0, # of connection points: 2
#     Edge 28, Type (0, 1), BuildingBlock: CIFDUS_clean_linker_0, # of connection points: 2
#     Edge 29, Type (0, 1), BuildingBlock: CIFDUS_clean_linker_0, # of connection points: 2
#     Edge 30, Type (0, 1), BuildingBlock: CIFDUS_clean_linker_0, # of connection points: 2
#     Edge 31, Type (0, 1), BuildingBlock: CIFDUS_clean_linker_0, # of connection points: 2
#     Edge 32, Type (0, 1), BuildingBlock: CIFDUS_clean_linker_0, # of connection points: 2
# Relax obj value: 0.052
# Max RMSD: 0.123
# Mean RMSD: 0.092
data_MOF--net-csq--node1-TAGTUT_clean_sbu_3--node2-NAHDIM_clean_linker_0--edge1-CIFDUS_clean_linker_0
_symmetry_space_group_name_H-M    P1
_symmetry_Int_Tables_number       1
_symmetry_cell_setting            triclinic
loop_
_symmetry_equiv_pos_as_xyz
'x, y, z'
_cell_length_a     62.549889
_cell_length_b     61.710355
_cell_length_c     24.152515
_cell_angle_alpha  92.37393
_cell_angle_beta   92.548702
_cell_angle_gamma 120.00138
loop_
_atom_site_label
_atom_site_type_symbol
_atom_site_fract_x
_atom_site_fract_y
_atom_site_fract_z
_atom_type_partial_charge
C0 C 0.35656 0.55147 0.46717 0.0
C1 C 0.34461 0.52513 0.43797 0.0
C2 C 0.32295 0.51324 0.34651 0.0
C3 C 0.30718 0.48749 0.35111 0.0
C4 C 0.28514 0.474 0.31693 0.0
C5 C 0.27859 0.48668 0.27813 0.0
C6 C 0.29467 0.51267 0.27319 0.0
C7 C 0.31699 0.52545 0.30663 0.0
C8 C 0.26872 0.44628 0.32271 0.0
C9 C 0.2882 0.52716 0.23352 0.0
C10 C 0.16618 0.50854 0.40987 0.0
C11 C 0.14197 0.49158 0.37403 0.0
C12 C 0.15566 0.46558 0.32494 0.0
C13 C 0.16991 0.48314 0.28756 0.0
C14 C 0.18715 0.48021 0.258 0.0
C15 C 0.19006 0.45919 0.2657 0.0
C16 C 0.17487 0.44081 0.30111 0.0
C17 C 0.15767 0.44418 0.33007 0.0
C18 C 0.20281 0.50005 0.21983 0.0
C19 C 0.1773 0.41802 0.30931 0.0
C20 C 0.13053 0.39617 0.92503 0.0
C21 C 0.14187 0.42177 0.94176 0.0
C22 C 0.16634 0.43491 0.96539 0.0
C23 C 0.17929 0.42182 0.97441 0.0
C24 C 0.16826 0.39627 0.95487 0.0
C25 C 0.14408 0.38387 0.92948 0.0
C26 C 0.17791 0.4625 0.98256 0.0
C27 C 0.18161 0.3818 0.96287 0.0
C28 C 0.37373 0.52546 0.05872 0.0
C29 C 0.36307 0.50505 0.01062 0.0
C30 C 0.3223 0.49429 0.97061 0.0
C31 C 0.30824 0.5061 0.96934 0.0
C32 C 0.28273 0.49244 0.97539 0.0
C33 C 0.27123 0.46638 0.98212 0.0
C34 C 0.28474 0.45385 0.97513 0.0
C35 C 0.31029 0.46801 0.96975 0.0
C36 C 0.26863 0.50627 0.98053 0.0
C37 C 0.27276 0.42593 0.9796 0.0
C38 C 0.25452 0.47298 0.24431 0.0
C39 C 0.23327 0.46877 0.2697 0.0
C40 C 0.21026 0.4577 0.23949 0.0
C41 C 0.20799 0.44953 0.18301 0.0
C42 C 0.18489 0.43704 0.15236 0.0
C43 C 0.18314 0.43084 0.09563 0.0
C44 C 0.20455 0.43794 0.06701 0.0
C45 C 0.20334 0.43414 0.00837 0.0
C46 C 0.22521 0.44281 0.98126 0.0
C47 C 0.24824 0.45438 0.01156 0.0
C48 C 0.24965 0.45688 0.07027 0.0
C49 C 0.27249 0.46725 0.10207 0.0
C50 C 0.27396 0.47136 0.15939 0.0
C51 C 0.25284 0.46626 0.18697 0.0
C52 C 0.22951 0.45471 0.15614 0.0
C53 C 0.22785 0.44952 0.09783 0.0
C54 C 0.06549 0.3562 0.93209 0.0
C55 C 0.08743 0.38299 0.93341 0.0
O56 O 0.34369 0.52683 0.38102 0.0
O57 O 0.34733 0.50877 0.97518 0.0
O58 O 0.10635 0.3828 0.90605 0.0
O59 O 0.14033 0.46893 0.35776 0.0
H60 H 0.32549 0.51475 0.45209 0.0
H61 H 0.34504 0.56006 0.45715 0.0
H62 H 0.37537 0.56377 0.45341 0.0
H63 H 0.35787 0.55054 0.51297 0.0
H64 H 0.31213 0.47797 0.38138 0.0
H65 H 0.32941 0.54533 0.30341 0.0
H66 H 0.25143 0.4429 0.34096 0.0
H67 H 0.27784 0.43864 0.34976 0.0
H68 H 0.26346 0.43583 0.28121 0.0
H69 H 0.30011 0.54777 0.24256 0.0
H70 H 0.26856 0.52211 0.23549 0.0
H71 H 0.29071 0.52243 0.1904 0.0
H72 H 0.14117 0.50118 0.33668 0.0
H73 H 0.1671 0.52633 0.42438 0.0
H74 H 0.18247 0.51348 0.38565 0.0
H75 H 0.16747 0.49888 0.44664 0.0
H76 H 0.16804 0.49942 0.28199 0.0
H77 H 0.14633 0.43056 0.35846 0.0
H78 H 0.19985 0.49143 0.17688 0.0
H79 H 0.22271 0.50828 0.23337 0.0
H80 H 0.19845 0.51542 0.21904 0.0
H81 H 0.1628 0.40446 0.33477 0.0
H82 H 0.19576 0.42397 0.33028 0.0
H83 H 0.17608 0.40844 0.26836 0.0
H84 H 0.09358 0.38922 0.97819 0.0
H85 H 0.13154 0.43144 0.93673 0.0
H86 H 0.13518 0.36416 0.91559 0.0
H87 H 0.17688 0.465 0.02794 0.0
H88 H 0.16815 0.47099 0.96091 0.0
H89 H 0.19773 0.47284 0.9737 0.0
H90 H 0.17006 0.36179 0.94727 0.0
H91 H 0.18709 0.38274 0.00766 0.0
H92 H 0.19879 0.39044 0.94056 0.0
H93 H 0.3529 0.48701 0.03063 0.0
H94 H 0.38839 0.52447 0.08425 0.0
H95 H 0.35876 0.52261 0.08581 0.0
H96 H 0.38139 0.54445 0.04321 0.0
H97 H 0.31761 0.52632 0.96808 0.0
H98 H 0.32094 0.45863 0.96753 0.0
H99 H 0.2654 0.50817 0.02486 0.0
H100 H 0.25028 0.49556 0.95684 0.0
H101 H 0.27891 0.52534 0.96527 0.0
H102 H 0.28405 0.41834 0.96224 0.0
H103 H 0.254 0.41606 0.95755 0.0
H104 H 0.27066 0.42192 0.02404 0.0
H105 H 0.23488 0.47535 0.3129 0.0
H106 H 0.16794 0.43202 0.17199 0.0
H107 H 0.16484 0.42117 0.07429 0.0
H108 H 0.22433 0.44097 0.93624 0.0
H109 H 0.28963 0.47254 0.0832 0.0
H110 H 0.29202 0.47942 0.18154 0.0
H111 H 0.05877 0.3481 0.88866 0.0
H112 H 0.05006 0.35597 0.95368 0.0
H113 H 0.07123 0.34418 0.95373 0.0
C114 C 0.88386 0.31077 0.47091 0.0
C115 C 0.89972 0.32948 0.42959 0.0
C116 C 0.87021 0.31235 0.34669 0.0
C117 C 0.87506 0.29342 0.3285 0.0
C118 C 0.85914 0.27461 0.28766 0.0
C119 C 0.83766 0.27438 0.26564 0.0
C120 C 0.83292 0.29363 0.28366 0.0
C121 C 0.84965 0.31268 0.32293 0.0
C122 C 0.86503 0.25464 0.26906 0.0
C123 C 0.80979 0.29374 0.26318 0.0
C124 C 0.72582 0.13879 0.4512 0.0
C125 C 0.70995 0.13378 0.39681 0.0
C126 C 0.73597 0.14936 0.31916 0.0
C127 C 0.72918 0.16665 0.30166 0.0
C128 C 0.74475 0.18643 0.27042 0.0
C129 C 0.76711 0.18835 0.25439 0.0
C130 C 0.77335 0.17018 0.26939 0.0
C131 C 0.7576 0.15082 0.30159 0.0
C132 C 0.73737 0.20541 0.25514 0.0
C133 C 0.79678 0.17143 0.25204 0.0
C134 C 0.69479 0.15412 0.92031 0.0
C135 C 0.69254 0.17105 0.95703 0.0
C136 C 0.71363 0.19281 0.98087 0.0
C137 C 0.73745 0.19755 0.96852 0.0
C138 C 0.73972 0.18109 0.9299 0.0
C139 C 0.71831 0.15969 0.90596 0.0
C140 C 0.71047 0.21026 0.02091 0.0
C141 C 0.7648 0.18562 0.91558 0.0
C142 C 0.82379 0.37895 0.89623 0.0
C143 C 0.84587 0.37659 0.91819 0.0
C144 C 0.83057 0.33161 0.92867 0.0
C145 C 0.81518 0.32857 0.97187 0.0
C146 C 0.80276 0.30564 0.99659 0.0
C147 C 0.80653 0.28565 0.97918 0.0
C148 C 0.8222 0.28879 0.93605 0.0
C149 C 0.83372 0.31163 0.9109 0.0
C150 C 0.78551 0.30283 0.04111 0.0
C151 C 0.82685 0.26807 0.91648 0.0
C152 C 0.81885 0.25267 0.22865 0.0
C153 C 0.80382 0.23047 0.25358 0.0
C154 C 0.78414 0.20983 0.22329 0.0
C155 C 0.77929 0.21109 0.16626 0.0
C156 C 0.75985 0.1905 0.13451 0.0
C157 C 0.75386 0.19256 0.07967 0.0
C158 C 0.76701 0.21535 0.05458 0.0
C159 C 0.75982 0.21818 0.00027 0.0
C160 C 0.77319 0.24115 0.9767 0.0
C161 C 0.79393 0.26143 0.00574 0.0
C162 C 0.80157 0.25879 0.05991 0.0
C163 C 0.82262 0.27851 0.09001 0.0
C164 C 0.82881 0.27633 0.14483 0.0
C165 C 0.81413 0.2544 0.1716 0.0
C166 C 0.7939 0.23369 0.14071 0.0
C167 C 0.78764 0.23587 0.08483 0.0
C168 C 0.64983 0.10943 0.97104 0.0
C169 C 0.65097 0.12042 0.91473 0.0
O170 O 0.88465 0.33053 0.38713 0.0
O171 O 0.84232 0.35311 0.9021 0.0
O172 O 0.67501 0.13215 0.89839 0.0
O173 O 0.72207 0.13107 0.35269 0.0
H174 H 0.91232 0.3236 0.41202 0.0
H175 H 0.87275 0.29165 0.44984 0.0
H176 H 0.87104 0.3163 0.48862 0.0
H177 H 0.8958 0.30998 0.5053 0.0
H178 H 0.89116 0.29314 0.3458 0.0
H179 H 0.84619 0.32747 0.33707 0.0
H180 H 0.8526 0.23697 0.28817 0.0
H181 H 0.88448 0.26008 0.28152 0.0
H182 H 0.8618 0.25079 0.22321 0.0
H183 H 0.80672 0.30717 0.28879 0.0
H184 H 0.79324 0.27475 0.26353 0.0
H185 H 0.81145 0.29925 0.21976 0.0
H186 H 0.70752 0.15034 0.39393 0.0
H187 H 0.71574 0.13954 0.48731 0.0
H188 H 0.74321 0.15715 0.45106 0.0
H189 H 0.7309 0.12409 0.45624 0.0
H190 H 0.71172 0.16478 0.31209 0.0
H191 H 0.76241 0.13707 0.31436 0.0
H192 H 0.73246 0.20322 0.20974 0.0
H193 H 0.75306 0.22479 0.26526 0.0
H194 H 0.7212 0.20315 0.27705 0.0
H195 H 0.79777 0.15455 0.26232 0.0
H196 H 0.81304 0.18826 0.27345 0.0
H197 H 0.79806 0.17337 0.20661 0.0
H198 H 0.6445 0.13421 0.91803 0.0
H199 H 0.67451 0.16733 0.96802 0.0
H200 H 0.71988 0.1467 0.87716 0.0
H201 H 0.71585 0.20814 0.06388 0.0
H202 H 0.69104 0.20626 0.0193 0.0
H203 H 0.72273 0.23009 0.01171 0.0
H204 H 0.76344 0.17108 0.88459 0.0
H205 H 0.77546 0.18579 0.95378 0.0
H206 H 0.77536 0.20428 0.89864 0.0
H207 H 0.84789 0.3795 0.96436 0.0
H208 H 0.82698 0.39799 0.90817 0.0
H209 H 0.80657 0.36503 0.91402 0.0
H210 H 0.82095 0.37566 0.85024 0.0
H211 H 0.81244 0.34379 0.986 0.0
H212 H 0.84554 0.31411 0.8774 0.0
H213 H 0.79447 0.30349 0.08234 0.0
H214 H 0.76805 0.28447 0.03457 0.0
H215 H 0.78089 0.31803 0.04208 0.0
H216 H 0.84203 0.27462 0.88803 0.0
H217 H 0.80974 0.25263 0.89409 0.0
H218 H 0.8316 0.26027 0.95254 0.0
H219 H 0.80687 0.22957 0.29782 0.0
H220 H 0.74879 0.17265 0.15203 0.0
H221 H 0.73847 0.17614 0.05759 0.0
H222 H 0.7672 0.24336 0.93554 0.0
H223 H 0.83431 0.29601 0.07182 0.0
H224 H 0.84494 0.29222 0.1664 0.0
H225 H 0.63048 0.09956 0.98339 0.0
H226 H 0.66137 0.12456 0.00376 0.0
H227 H 0.65672 0.09596 0.96891 0.0
C228 C 0.47211 0.80817 0.32187 0.0
C229 C 0.49703 0.83029 0.30902 0.0
C230 C 0.5087 0.82048 0.22075 0.0
C231 C 0.53267 0.825 0.23459 0.0
C232 C 0.54282 0.81332 0.20269 0.0
C233 C 0.52859 0.79662 0.15633 0.0
C234 C 0.50464 0.7926 0.1415 0.0
C235 C 0.49521 0.805 0.17343 0.0
C236 C 0.56863 0.81854 0.219 0.0
C237 C 0.48871 0.77469 0.09292 0.0
C238 C 0.573 0.66527 0.26887 0.0
C239 C 0.55563 0.67204 0.29825 0.0
C240 C 0.54033 0.68869 0.22534 0.0
C241 C 0.51969 0.68425 0.19121 0.0
C242 C 0.52081 0.70226 0.15588 0.0
C243 C 0.54319 0.72533 0.15476 0.0
C244 C 0.56436 0.72973 0.18793 0.0
C245 C 0.56278 0.71139 0.22269 0.0
C246 C 0.49793 0.69691 0.12071 0.0
C247 C 0.58854 0.75417 0.18784 0.0
C248 C 0.59182 0.72341 0.78607 0.0
C249 C 0.56804 0.71984 0.78832 0.0
C250 C 0.56246 0.73202 0.83065 0.0
C251 C 0.58142 0.74881 0.87076 0.0
C252 C 0.60546 0.7521 0.86942 0.0
C253 C 0.61042 0.73926 0.82708 0.0
C254 C 0.53657 0.72795 0.8306 0.0
C255 C 0.62619 0.77021 0.91086 0.0
C256 C 0.58975 0.91369 0.83134 0.0
C257 C 0.58272 0.89876 0.77439 0.0
C258 C 0.56901 0.85733 0.81136 0.0
C259 C 0.54747 0.83551 0.82219 0.0
C260 C 0.54833 0.81784 0.8553 0.0
C261 C 0.57147 0.8224 0.87887 0.0
C262 C 0.59347 0.84438 0.86751 0.0
C263 C 0.59205 0.8615 0.83309 0.0
C264 C 0.52448 0.79417 0.86427 0.0
C265 C 0.61848 0.84961 0.89112 0.0
C266 C 0.53799 0.78204 0.1258 0.0
C267 C 0.53646 0.76125 0.15032 0.0
C268 C 0.54391 0.74589 0.12354 0.0
C269 C 0.55255 0.75088 0.06979 0.0
C270 C 0.55912 0.73516 0.04041 0.0
C271 C 0.56721 0.74006 0.98705 0.0
C272 C 0.56937 0.76106 0.96151 0.0
C273 C 0.57709 0.76603 0.90701 0.0
C274 C 0.57881 0.78696 0.88292 0.0
C275 C 0.57264 0.80301 0.91103 0.0
C276 C 0.56512 0.7986 0.96572 0.0
C277 C 0.55911 0.81463 0.99556 0.0
C278 C 0.55047 0.80941 0.04825 0.0
C279 C 0.54762 0.78802 0.07315 0.0
C280 C 0.55454 0.77213 0.0447 0.0
C281 C 0.56324 0.77739 0.99083 0.0
C282 C 0.63291 0.71498 0.70827 0.0
C283 C 0.61095 0.70133 0.74394 0.0
O284 O 0.4983 0.83105 0.25186 0.0
O285 O 0.56647 0.87345 0.77901 0.0
O286 O 0.5965 0.71247 0.74206 0.0
O287 O 0.53771 0.67079 0.26017 0.0
H288 H 0.51181 0.82733 0.32819 0.0
H289 H 0.47031 0.79034 0.30437 0.0
H290 H 0.45658 0.81002 0.30328 0.0
H291 H 0.47076 0.8072 0.36752 0.0
H292 H 0.54348 0.83777 0.2701 0.0
H293 H 0.47685 0.80196 0.16275 0.0
H294 H 0.56754 0.80169 0.23647 0.0
H295 H 0.57858 0.83464 0.25061 0.0
H296 H 0.57955 0.82251 0.18193 0.0
H297 H 0.46968 0.77184 0.09021 0.0
H298 H 0.48746 0.7562 0.09638 0.0
H299 H 0.49726 0.78211 0.05367 0.0
H300 H 0.56668 0.69139 0.31839 0.0
H301 H 0.58731 0.66618 0.29937 0.0
H302 H 0.5826 0.67857 0.23694 0.0
H303 H 0.56243 0.64605 0.24797 0.0
H304 H 0.50251 0.66669 0.193 0.0
H305 H 0.57915 0.71525 0.24795 0.0
H306 H 0.50238 0.70066 0.07688 0.0
H307 H 0.49135 0.70966 0.13573 0.0
H308 H 0.4827 0.67722 0.12207 0.0
H309 H 0.60347 0.7546 0.2154 0.0
H310 H 0.5859 0.76999 0.20176 0.0
H311 H 0.59462 0.75723 0.14496 0.0
H312 H 0.61901 0.70285 0.787 0.0
H313 H 0.55388 0.70764 0.75625 0.0
H314 H 0.62904 0.74253 0.82459 0.0
H315 H 0.5304 0.72589 0.87344 0.0
H316 H 0.52308 0.71107 0.80372 0.0
H317 H 0.53648 0.74453 0.81478 0.0
H318 H 0.64336 0.76931 0.90685 0.0
H319 H 0.62042 0.76615 0.95379 0.0
H320 H 0.63035 0.78963 0.90455 0.0
H321 H 0.59965 0.90118 0.75569 0.0
H322 H 0.6011 0.93413 0.82628 0.0
H323 H 0.60091 0.90864 0.85908 0.0
H324 H 0.57285 0.91003 0.85203 0.0
H325 H 0.52984 0.83236 0.8044 0.0
H326 H 0.6089 0.8779 0.82298 0.0
H327 H 0.51998 0.79465 0.90806 0.0
H328 H 0.52646 0.77742 0.85651 0.0
H329 H 0.50867 0.79195 0.83684 0.0
H330 H 0.63334 0.86904 0.88511 0.0
H331 H 0.62314 0.83629 0.87031 0.0
H332 H 0.61803 0.84669 0.93622 0.0
H333 H 0.52943 0.75701 0.19113 0.0
H334 H 0.55777 0.71873 0.05817 0.0
H335 H 0.57178 0.72723 0.96599 0.0
H336 H 0.58401 0.79018 0.84044 0.0
H337 H 0.56083 0.83129 0.9782 0.0
H338 H 0.54591 0.82227 0.06915 0.0
H339 H 0.64306 0.70455 0.70449 0.0
H340 H 0.6459 0.73399 0.72826 0.0
H341 H 0.62676 0.7173 0.66622 0.0
C342 C 0.88816 0.61471 0.41547 0.0
C343 C 0.89304 0.59883 0.37288 0.0
C344 C 0.87637 0.60127 0.28244 0.0
C345 C 0.85936 0.57582 0.2681 0.0
C346 C 0.83863 0.56865 0.23116 0.0
C347 C 0.83513 0.58736 0.20764 0.0
C348 C 0.85299 0.613 0.21965 0.0
C349 C 0.87358 0.61963 0.25673 0.0
C350 C 0.82026 0.54114 0.21789 0.0
C351 C 0.85 0.63336 0.19431 0.0
C352 C 0.71372 0.57342 0.39468 0.0
C353 C 0.69526 0.57224 0.34899 0.0
C354 C 0.71118 0.56095 0.26845 0.0
C355 C 0.72984 0.58523 0.25832 0.0
C356 C 0.74841 0.58877 0.22324 0.0
C357 C 0.74857 0.56763 0.19883 0.0
C358 C 0.72952 0.54316 0.20813 0.0
C359 C 0.71077 0.5402 0.24201 0.0
C360 C 0.76816 0.61514 0.21331 0.0
C361 C 0.72938 0.52012 0.18393 0.0
C362 C 0.69728 0.53868 0.83569 0.0
C363 C 0.71857 0.56224 0.83658 0.0
C364 C 0.74029 0.56767 0.86793 0.0
C365 C 0.74083 0.5487 0.89786 0.0
C366 C 0.71962 0.52441 0.8952 0.0
C367 C 0.69789 0.51974 0.86478 0.0
C368 C 0.76249 0.59379 0.86974 0.0
C369 C 0.71979 0.50346 0.92498 0.0
C370 C 0.91833 0.58123 0.98027 0.0
C371 C 0.90843 0.56561 0.92448 0.0
C372 C 0.87348 0.5704 0.8928 0.0
C373 C 0.86888 0.59015 0.88718 0.0
C374 C 0.84557 0.58705 0.89626 0.0
C375 C 0.82652 0.56348 0.91058 0.0
C376 C 0.83026 0.5427 0.90968 0.0
C377 C 0.85379 0.54637 0.90076 0.0
C378 C 0.84192 0.60941 0.89537 0.0
C379 C 0.80997 0.5171 0.92259 0.0
C380 C 0.81232 0.58014 0.17217 0.0
C381 C 0.79175 0.57737 0.19824 0.0
C382 C 0.76974 0.57112 0.1675 0.0
C383 C 0.76814 0.56776 0.10893 0.0
C384 C 0.74669 0.56263 0.0765 0.0
C385 C 0.74514 0.55864 0.01895 0.0
C386 C 0.76491 0.5594 0.99172 0.0
C387 C 0.76332 0.5546 0.93338 0.0
C388 C 0.78351 0.55587 0.9077 0.0
C389 C 0.80541 0.56206 0.93888 0.0
C390 C 0.80734 0.56687 0.99714 0.0
C391 C 0.82925 0.57323 0.02955 0.0
C392 C 0.83098 0.57774 0.08678 0.0
C393 C 0.81085 0.57593 0.11393 0.0
C394 C 0.78865 0.5697 0.08218 0.0
C395 C 0.78695 0.5653 0.02363 0.0
C396 C 0.63405 0.52252 0.78842 0.0
C397 C 0.65249 0.5164 0.81241 0.0
O398 O 0.89542 0.6086 0.32145 0.0
O399 O 0.89711 0.57533 0.89113 0.0
O400 O 0.67662 0.53511 0.80645 0.0
O401 O 0.69345 0.55664 0.30387 0.0
H402 H 0.87667 0.5796 0.37206 0.0
H403 H 0.86947 0.61212 0.40554 0.0
H404 H 0.90184 0.63499 0.41442 0.0
H405 H 0.88875 0.60876 0.45804 0.0
H406 H 0.8622 0.56155 0.28587 0.0
H407 H 0.88711 0.63921 0.26738 0.0
H408 H 0.80196 0.53672 0.23209 0.0
H409 H 0.82614 0.52889 0.238 0.0
H410 H 0.81784 0.53668 0.17223 0.0
H411 H 0.86584 0.6524 0.20687 0.0
H412 H 0.83272 0.63235 0.2072 0.0
H413 H 0.84825 0.63042 0.14828 0.0
H414 H 0.70145 0.59142 0.33588 0.0
H415 H 0.71495 0.58561 0.43128 0.0
H416 H 0.73246 0.58143 0.37924 0.0
H417 H 0.70792 0.55434 0.40795 0.0
H418 H 0.73014 0.60152 0.27752 0.0
H419 H 0.69617 0.52157 0.24987 0.0
H420 H 0.77163 0.61674 0.16855 0.0
H421 H 0.78571 0.61965 0.23686 0.0
H422 H 0.76304 0.62926 0.22693 0.0
H423 H 0.71484 0.50262 0.20027 0.0
H424 H 0.74766 0.52167 0.1933 0.0
H425 H 0.726 0.51857 0.13808 0.0
H426 H 0.6489 0.49714 0.80066 0.0
H427 H 0.71788 0.57664 0.81365 0.0
H428 H 0.68156 0.5013 0.86359 0.0
H429 H 0.76937 0.60119 0.91349 0.0
H430 H 0.75823 0.60701 0.84873 0.0
H431 H 0.77763 0.59313 0.84891 0.0
H432 H 0.70343 0.48489 0.91143 0.0
H433 H 0.71968 0.50695 0.97038 0.0
H434 H 0.73687 0.5028 0.91765 0.0
H435 H 0.89511 0.54609 0.93387 0.0
H436 H 0.92865 0.5744 0.0059 0.0
H437 H 0.90262 0.57939 0.00342 0.0
H438 H 0.93073 0.60141 0.97418 0.0
H439 H 0.88405 0.60844 0.87919 0.0
H440 H 0.85675 0.53055 0.9013 0.0
H441 H 0.84116 0.61571 0.9386 0.0
H442 H 0.82407 0.60417 0.8722 0.0
H443 H 0.85718 0.62536 0.87607 0.0
H444 H 0.81439 0.5022 0.9114 0.0
H445 H 0.7922 0.51251 0.89994 0.0
H446 H 0.80736 0.51713 0.96776 0.0
H447 H 0.79287 0.58007 0.2432 0.0
H448 H 0.73084 0.5616 0.09532 0.0
H449 H 0.72816 0.55476 0.99617 0.0
H450 H 0.78223 0.55218 0.86301 0.0
H451 H 0.84541 0.57481 0.01127 0.0
H452 H 0.84827 0.58251 0.10949 0.0
H453 H 0.61682 0.52681 0.85813 0.0
H454 H 0.62359 0.50767 0.75341 0.0
H455 H 0.644 0.53799 0.75989 0.0
C456 C 0.25737 0.89357 0.75041 0.0
C457 C 0.27858 0.89769 0.79168 0.0
C458 C 0.26396 0.86008 0.84541 0.0
C459 C 0.24915 0.8648 0.88034 0.0
C460 C 0.23704 0.8487 0.92207 0.0
C461 C 0.23958 0.82737 0.92846 0.0
C462 C 0.25448 0.82262 0.89326 0.0
C463 C 0.26652 0.83912 0.85236 0.0
C464 C 0.22112 0.85416 0.95869 0.0
C465 C 0.25729 0.79984 0.89809 0.0
C466 C 0.07132 0.70302 0.78384 0.0
C467 C 0.09341 0.70151 0.80867 0.0
C468 C 0.11649 0.71984 0.89811 0.0
C469 C 0.13752 0.71798 0.88949 0.0
C470 C 0.15994 0.73362 0.92096 0.0
C471 C 0.1615 0.75199 0.96079 0.0
C472 C 0.14002 0.7533 0.97077 0.0
C473 C 0.11759 0.73672 0.94006 0.0
C474 C 0.18224 0.73123 0.9097 0.0
C475 C 0.14102 0.773 0.01167 0.0
C476 C 0.18063 0.71753 0.31471 0.0
C477 C 0.19294 0.71109 0.27587 0.0
C478 C 0.20809 0.72843 0.23907 0.0
C479 C 0.21096 0.7527 0.24118 0.0
C480 C 0.1993 0.75954 0.28172 0.0
C481 C 0.18444 0.74188 0.3184 0.0
C482 C 0.2208 0.72073 0.19748 0.0
C483 C 0.20215 0.78532 0.28547 0.0
C484 C 0.40083 0.89295 0.1699 0.0
C485 C 0.38439 0.88974 0.21756 0.0
C486 C 0.34492 0.85044 0.2176 0.0
C487 C 0.33437 0.82566 0.19566 0.0
C488 C 0.30869 0.81063 0.18387 0.0
C489 C 0.29314 0.82052 0.19568 0.0
C490 C 0.3036 0.84521 0.22065 0.0
C491 C 0.32943 0.85997 0.2313 0.0
C492 C 0.29822 0.78431 0.1578 0.0
C493 C 0.28749 0.85606 0.23524 0.0
C494 C 0.22512 0.80894 0.96882 0.0
C495 C 0.20081 0.79073 0.95154 0.0
C496 C 0.18618 0.77184 0.98557 0.0
C497 C 0.19574 0.77156 0.03961 0.0
C498 C 0.18139 0.75334 0.07577 0.0
C499 C 0.19102 0.7534 0.129 0.0
C500 C 0.21569 0.77109 0.14729 0.0
C501 C 0.22591 0.77085 0.20063 0.0
C502 C 0.25096 0.78771 0.21591 0.0
C503 C 0.2661 0.80523 0.17973 0.0
C504 C 0.25584 0.80669 0.12756 0.0
C505 C 0.27023 0.82483 0.09118 0.0
C506 C 0.26006 0.82598 0.03972 0.0
C507 C 0.23534 0.80851 0.02186 0.0
C508 C 0.22051 0.78991 0.05762 0.0
C509 C 0.23064 0.78933 0.11101 0.0
C510 C 0.12391 0.6792 0.30268 0.0
C511 C 0.14542 0.67692 0.32894 0.0
O512 O 0.27571 0.87464 0.80368 0.0
O513 O 0.37 0.86441 0.2256 0.0
O514 O 0.16468 0.70049 0.34824 0.0
O515 O 0.09505 0.70592 0.86595 0.0
H516 H 0.27856 0.90818 0.83023 0.0
H517 H 0.25891 0.91178 0.74135 0.0
H518 H 0.23932 0.88189 0.76819 0.0
H519 H 0.25762 0.88382 0.71093 0.0
H520 H 0.24656 0.88066 0.87479 0.0
H521 H 0.27789 0.83559 0.82497 0.0
H522 H 0.20142 0.8394 0.94965 0.0
H523 H 0.22292 0.8727 0.95221 0.0
H524 H 0.22623 0.8537 0.00308 0.0
H525 H 0.26893 0.79844 0.8663 0.0
H526 H 0.23881 0.78256 0.89345 0.0
H527 H 0.26584 0.80061 0.93991 0.0
H528 H 0.11028 0.71653 0.7912 0.0
H529 H 0.06993 0.70044 0.73775 0.0
H530 H 0.07366 0.72172 0.79556 0.0
H531 H 0.05382 0.68837 0.7996 0.0
H532 H 0.13648 0.70446 0.85785 0.0
H533 H 0.1011 0.73779 0.94661 0.0
H534 H 0.19322 0.73337 0.94905 0.0
H535 H 0.19427 0.74632 0.88331 0.0
H536 H 0.17688 0.71288 0.88755 0.0
H537 H 0.12286 0.77209 0.01304 0.0
H538 H 0.155 0.79197 0.00034 0.0
H539 H 0.14685 0.77057 0.05391 0.0
H540 H 0.1516 0.66863 0.29598 0.0
H541 H 0.19084 0.69257 0.27438 0.0
H542 H 0.17507 0.74676 0.34894 0.0
H543 H 0.21387 0.72121 0.1547 0.0
H544 H 0.21764 0.70157 0.20285 0.0
H545 H 0.24103 0.73422 0.20164 0.0
H546 H 0.19163 0.78764 0.31883 0.0
H547 H 0.1956 0.78885 0.24518 0.0
H548 H 0.22202 0.79974 0.29367 0.0
H549 H 0.37262 0.89768 0.20413 0.0
H550 H 0.41294 0.91318 0.16361 0.0
H551 H 0.38907 0.88353 0.13085 0.0
H552 H 0.41257 0.88448 0.17839 0.0
H553 H 0.34646 0.81835 0.18621 0.0
H554 H 0.33745 0.87881 0.25062 0.0
H555 H 0.28742 0.78198 0.11802 0.0
H556 H 0.28537 0.77066 0.18581 0.0
H557 H 0.31288 0.7797 0.14955 0.0
H558 H 0.29821 0.87479 0.25831 0.0
H559 H 0.27261 0.84317 0.26087 0.0
H560 H 0.27842 0.85792 0.19661 0.0
H561 H 0.19335 0.79085 0.91018 0.0
H562 H 0.16247 0.73898 0.06346 0.0
H563 H 0.17899 0.73912 0.15529 0.0
H564 H 0.25889 0.78684 0.25606 0.0
H565 H 0.2895 0.83851 0.10224 0.0
H566 H 0.27194 0.8405 0.01371 0.0
H567 H 0.11751 0.68836 0.33301 0.0
H568 H 0.10816 0.66035 0.28823 0.0
H569 H 0.12995 0.69067 0.2662 0.0
C570 C 0.37004 0.30231 0.4486 0.0
C571 C 0.39579 0.30977 0.43044 0.0
C572 C 0.40737 0.29211 0.353 0.0
C573 C 0.43241 0.30183 0.37036 0.0
C574 C 0.44604 0.29176 0.34707 0.0
C575 C 0.43419 0.27115 0.30671 0.0
C576 C 0.40891 0.26144 0.28909 0.0
C577 C 0.39608 0.27257 0.31146 0.0
C578 C 0.47301 0.30293 0.36623 0.0
C579 C 0.39509 0.23884 0.24795 0.0
C580 C 0.4287 0.13311 0.49981 0.0
C581 C 0.44418 0.13333 0.45203 0.0
C582 C 0.461 0.17436 0.41218 0.0
C583 C 0.43873 0.16962 0.38399 0.0
C584 C 0.43825 0.18684 0.34856 0.0
C585 C 0.46034 0.20961 0.34221 0.0
C586 C 0.48258 0.21492 0.37213 0.0
C587 C 0.48263 0.19711 0.40641 0.0
C588 C 0.4141 0.1806 0.31763 0.0
C589 C 0.50631 0.23931 0.36748 0.0
C590 C 0.4898 0.16579 0.00451 0.0
C591 C 0.46684 0.16036 0.02382 0.0
C592 C 0.46325 0.17945 0.04661 0.0
C593 C 0.48335 0.20442 0.05297 0.0
C594 C 0.50659 0.20997 0.03454 0.0
C595 C 0.50939 0.19059 0.00991 0.0
C596 C 0.43781 0.17276 0.06359 0.0
C597 C 0.52845 0.23632 0.04089 0.0
C598 C 0.42424 0.32986 0.94285 0.0
C599 C 0.44987 0.33502 0.928 0.0
C600 C 0.45437 0.29919 0.9442 0.0
C601 C 0.43678 0.27418 0.95004 0.0
C602 C 0.44138 0.26018 0.98816 0.0
C603 C 0.46443 0.27143 0.01999 0.0
C604 C 0.48275 0.29641 0.01217 0.0
C605 C 0.47746 0.31008 0.97441 0.0
C606 C 0.42148 0.23352 0.99514 0.0
C607 C 0.50775 0.30869 0.04413 0.0
C608 C 0.4475 0.25843 0.28623 0.0
C609 C 0.45072 0.24285 0.32192 0.0
C610 C 0.46001 0.22761 0.3037 0.0
C611 C 0.46644 0.22789 0.24824 0.0
C612 C 0.4751 0.2122 0.228 0.0
C613 C 0.48016 0.21165 0.17265 0.0
C614 C 0.47646 0.22653 0.13521 0.0
C615 C 0.47967 0.22461 0.07796 0.0
C616 C 0.47641 0.24008 0.04209 0.0
C617 C 0.46928 0.25701 0.06142 0.0
C618 C 0.46522 0.25865 0.11825 0.0
C619 C 0.45724 0.27487 0.13886 0.0
C620 C 0.45207 0.27536 0.19425 0.0
C621 C 0.45446 0.25948 0.231 0.0
C622 C 0.46355 0.2438 0.21172 0.0
C623 C 0.46874 0.24325 0.15519 0.0
C624 C 0.47955 0.11086 0.02965 0.0
C625 C 0.47783 0.12223 0.97542 0.0
O626 O 0.39351 0.30102 0.37549 0.0
O627 O 0.44851 0.31271 0.91029 0.0
O628 O 0.4939 0.14795 0.98038 0.0
O629 O 0.46253 0.15774 0.44522 0.0
H630 H 0.40327 0.30047 0.45737 0.0
H631 H 0.35797 0.28158 0.44356 0.0
H632 H 0.36145 0.3109 0.42298 0.0
H633 H 0.37118 0.30848 0.49306 0.0
H634 H 0.44136 0.31733 0.4018 0.0
H635 H 0.37677 0.26534 0.29823 0.0
H636 H 0.47518 0.28999 0.39344 0.0
H637 H 0.48051 0.32139 0.39 0.0
H638 H 0.48419 0.30533 0.33009 0.0
H639 H 0.37473 0.23081 0.24721 0.0
H640 H 0.3994 0.22396 0.25793 0.0
H641 H 0.40085 0.24438 0.20563 0.0
H642 H 0.4313 0.12505 0.41402 0.0
H643 H 0.41537 0.11353 0.50895 0.0
H644 H 0.41797 0.14232 0.48803 0.0
H645 H 0.44077 0.1436 0.53785 0.0
H646 H 0.42155 0.1526 0.38916 0.0
H647 H 0.49967 0.20082 0.42877 0.0
H648 H 0.41658 0.18282 0.27257 0.0
H649 H 0.40817 0.19383 0.33298 0.0
H650 H 0.3991 0.16117 0.32301 0.0
H651 H 0.52147 0.2416 0.39728 0.0
H652 H 0.50321 0.25537 0.37511 0.0
H653 H 0.51231 0.24003 0.3247 0.0
H654 H 0.45835 0.11776 0.96826 0.0
H655 H 0.4514 0.14141 0.02122 0.0
H656 H 0.52706 0.1947 0.99514 0.0
H657 H 0.43767 0.17246 0.10947 0.0
H658 H 0.42328 0.154 0.04514 0.0
H659 H 0.43286 0.18688 0.05083 0.0
H660 H 0.54592 0.23703 0.03065 0.0
H661 H 0.5308 0.24447 0.08412 0.0
H662 H 0.52505 0.24826 0.01283 0.0
H663 H 0.46218 0.34338 0.96697 0.0
H664 H 0.42481 0.34774 0.95478 0.0
H665 H 0.41842 0.31796 0.97869 0.0
H666 H 0.41016 0.31981 0.90748 0.0
H667 H 0.41909 0.26595 0.92602 0.0
H668 H 0.49128 0.3293 0.9685 0.0
H669 H 0.41755 0.2311 0.03956 0.0
H670 H 0.42806 0.2205 0.98228 0.0
H671 H 0.404 0.22812 0.97005 0.0
H672 H 0.52057 0.3276 0.03042 0.0
H673 H 0.51627 0.29674 0.03898 0.0
H674 H 0.50549 0.31055 0.08909 0.0
H675 H 0.4449 0.24174 0.36389 0.0
H676 H 0.47778 0.19991 0.25455 0.0
H677 H 0.48664 0.19911 0.15932 0.0
H678 H 0.47849 0.23823 0.99806 0.0
H679 H 0.45456 0.28713 0.11221 0.0
H680 H 0.4458 0.28806 0.20778 0.0
H681 H 0.46818 0.09005 0.02482 0.0
H682 H 0.49907 0.11663 0.0423 0.0
H683 H 0.4724 0.11759 0.06355 0.0
C684 C 0.04154 0.49462 0.56186 0.0
C685 C 0.0344 0.45558 0.75757 0.0
C686 C 0.96657 0.45862 0.75582 0.0
Mg687 Mg 0.01767 0.52804 0.51642 0.0
Mg688 Mg 0.01466 0.56785 0.60571 0.0
O689 O 0.00469 0.53416 0.58637 0.0
Mg690 Mg 0.01451 0.51615 0.63967 0.0
O691 O 0.02397 0.49623 0.68875 0.0
Mg692 Mg 0.00171 0.46172 0.65048 0.0
Mg693 Mg 0.02163 0.49829 0.76598 0.0
C694 C 0.98976 0.54154 0.71493 0.0
O695 O 0.04518 0.55223 0.68922 0.0
O696 O 0.99547 0.54439 0.47161 0.0
O697 O 0.0412 0.53922 0.77642 0.0
O698 O 0.05224 0.56739 0.52293 0.0
O699 O 0.99419 0.57113 0.53631 0.0
O700 O 0.05312 0.59268 0.59226 0.0
O701 O 0.984 0.47927 0.59766 0.0
O702 O 0.98344 0.48864 0.50976 0.0
C703 C 0.97508 0.473 0.54722 0.0
C704 C 0.98886 0.56026 0.48719 0.0
O705 O 0.99036 0.52145 0.70142 0.0
O706 O 0.0223 0.44816 0.70959 0.0
O707 O -8e-05 0.56126 0.68736 0.0
O708 O 0.97116 0.45061 0.71091 0.0
O709 O 0.03704 0.47485 0.78633 0.0
O710 O 0.98316 0.47842 0.78369 0.0
O711 O 0.03784 0.51289 0.57359 0.0
O712 O 0.03133 0.47454 0.5879 0.0
C713 C 0.06315 0.58846 0.55151 0.0
C714 C 0.04952 0.55671 0.74245 0.0
C715 C 0.49725 0.04258 0.52658 0.0
C716 C 0.57283 0.03378 0.45301 0.0
C717 C 0.52463 0.95616 0.484 0.0
Mg718 Mg 0.45774 0.0083 0.61232 0.0
Mg719 Mg 0.47045 0.97802 0.7054 0.0
O720 O 0.46986 0.98458 0.63095 0.0
Mg721 Mg 0.50059 0.99905 0.58993 0.0
O722 O 0.52963 0.01396 0.5441 0.0
Mg723 Mg 0.51158 0.00301 0.4681 0.0
Mg724 Mg 0.55322 0.00421 0.55836 0.0
C725 C 0.50116 0.95398 0.6586 0.0
O726 O 0.52825 0.02059 0.66595 0.0
O727 O 0.42147 0.98144 0.65424 0.0
O728 O 0.56151 0.01735 0.64602 0.0
O729 O 0.47423 0.03216 0.6963 0.0
O730 O 0.43127 0.95918 0.71128 0.0
O731 O 0.48744 0.0132 0.75372 0.0
O732 O 0.47534 0.97925 0.51101 0.0
O733 O 0.44354 0.98492 0.52878 0.0
C734 C 0.45412 0.97666 0.4967 0.0
C735 C 0.41552 0.96413 0.68825 0.0
O736 O 0.50571 0.96587 0.61415 0.0
O737 O 0.55076 0.02803 0.43524 0.0
O738 O 0.48954 0.95715 0.69773 0.0
O739 O 0.51596 0.96785 0.45699 0.0
O740 O 0.57753 0.02631 0.49824 0.0
O741 O 0.53778 0.96565 0.52975 0.0
O742 O 0.49454 0.03124 0.57122 0.0
O743 O 0.50504 0.03655 0.48347 0.0
C744 C 0.48486 0.03182 0.74253 0.0
C745 C 0.55012 0.02437 0.67889 0.0
C746 C 0.51591 0.55323 0.70706 0.0
C747 C 0.43903 0.47726 0.79128 0.0
C748 C 0.46613 0.43343 0.71379 0.0
Mg749 Mg 0.54256 0.55251 0.59732 0.0
Mg750 Mg 0.51508 0.50976 0.4905 0.0
O751 O 0.52227 0.51644 0.56746 0.0
Mg752 Mg 0.49614 0.50398 0.62152 0.0
O753 O 0.47214 0.49323 0.68037 0.0
Mg754 Mg 0.49499 0.49644 0.7452 0.0
Mg755 Mg 0.44258 0.46216 0.66868 0.0
C756 C 0.48022 0.45529 0.53142 0.0
O757 O 0.46535 0.5037 0.56404 0.0
O758 O 0.57146 0.5564 0.53656 0.0
O759 O 0.43044 0.47074 0.59073 0.0
O760 O 0.52525 0.56566 0.52932 0.0
O761 O 0.55292 0.5249 0.4693 0.0
O762 O 0.50337 0.53517 0.46266 0.0
O763 O 0.5242 0.50301 0.68299 0.0
O764 O 0.55844 0.53788 0.66394 0.0
C765 C 0.54741 0.51858 0.69216 0.0
C766 C 0.57218 0.54431 0.4928 0.0
O767 O 0.48213 0.46418 0.58169 0.0
O768 O 0.46276 0.48944 0.79917 0.0
O769 O 0.4895 0.46928 0.49094 0.0
O770 O 0.4814 0.4543 0.74041 0.0
O771 O 0.42749 0.46543 0.74488 0.0
O772 O 0.45014 0.43194 0.67682 0.0
O773 O 0.51193 0.54439 0.6563 0.0
O774 O 0.50934 0.53862 0.74686 0.0
C775 C 0.51156 0.5575 0.48369 0.0
C776 C 0.44171 0.48874 0.55885 0.0
H777 H 0.12145 0.5211 0.38653 0.0
H778 H 0.11535 0.45235 0.43921 0.0
H779 H 0.08263 0.44667 0.49817 0.0
H780 H 0.05743 0.46211 0.53826 0.0
H781 H 0.06487 0.53223 0.49158 0.0
H782 H 0.09543 0.5365 0.42658 0.0
C783 C 0.11264 0.50472 0.41037 0.0
C784 C 0.12035 0.48687 0.40732 0.0
C785 C 0.09429 0.50192 0.4455 0.0
C786 C 0.10935 0.46605 0.43961 0.0
C787 C 0.09075 0.46287 0.47366 0.0
C788 C 0.06553 0.47828 0.51364 0.0
C789 C 0.05888 0.49685 0.51989 0.0
C790 C 0.08329 0.4808 0.47731 0.0
C791 C 0.06969 0.51769 0.4877 0.0
C792 C 0.08717 0.52014 0.45055 0.0
H793 H 0.66454 0.12957 0.37855 0.0
H794 H 0.69891 0.08551 0.41379 0.0
H795 H 0.65853 0.0493 0.42706 0.0
H796 H 0.61445 0.03208 0.44017 0.0
H797 H 0.57955 0.07539 0.40295 0.0
H798 H 0.61909 0.10987 0.37729 0.0
C799 C 0.66313 0.11197 0.3887 0.0
C800 C 0.68476 0.11052 0.39768 0.0
C801 C 0.63981 0.09115 0.39565 0.0
C802 C 0.68262 0.08736 0.4088 0.0
C803 C 0.65954 0.06662 0.41605 0.0
C804 C 0.61543 0.04887 0.42522 0.0
C805 C 0.59433 0.05144 0.42401 0.0
C806 C 0.63817 0.06859 0.41138 0.0
C807 C 0.5956 0.07305 0.40399 0.0
C808 C 0.61824 0.09283 0.38995 0.0
H809 H 0.51784 0.62285 0.28734 0.0
H810 H 0.5677 0.68137 0.41023 0.0
H811 H 0.55444 0.65144 0.48177 0.0
H812 H 0.53372 0.60797 0.50601 0.0
H813 H 0.4857 0.5486 0.38242 0.0
H814 H 0.49252 0.57957 0.3153 0.0
C815 C 0.5253 0.62909 0.33009 0.0
C816 C 0.54372 0.6543 0.34343 0.0
C817 C 0.51803 0.6116 0.37089 0.0
C818 C 0.55344 0.66212 0.39889 0.0
C819 C 0.54594 0.64499 0.43981 0.0
C820 C 0.52421 0.60173 0.46486 0.0
C821 C 0.50965 0.5759 0.44906 0.0
C822 C 0.52893 0.61955 0.42585 0.0
C823 C 0.49729 0.56832 0.39563 0.0
C824 C 0.50133 0.58604 0.357 0.0
H825 H 0.89899 0.55836 0.35814 0.0
H826 H 0.93913 0.63628 0.41957 0.0
H827 H 0.97356 0.63159 0.45474 0.0
H828 H 0.99005 0.60415 0.47784 0.0
H829 H 0.95109 0.52668 0.41383 0.0
H830 H 0.91862 0.5325 0.36868 0.0
C831 C 0.91533 0.57431 0.37914 0.0
C832 C 0.91582 0.59719 0.3892 0.0
C833 C 0.93527 0.57158 0.39855 0.0
C834 C 0.93761 0.61808 0.41383 0.0
C835 C 0.95745 0.61548 0.43359 0.0
C836 C 0.97467 0.58869 0.45305 0.0
C837 C 0.97269 0.56497 0.4496 0.0
C838 C 0.9561 0.59213 0.4278 0.0
C839 C 0.95296 0.54513 0.41685 0.0
C840 C 0.93431 0.54839 0.39155 0.0
H841 H 0.38569 0.92933 0.27511 0.0
H842 H 0.4178 0.88172 0.27875 0.0
H843 H 0.44381 0.90563 0.36278 0.0
H844 H 0.45661 0.93961 0.43682 0.0
H845 H 0.42232 0.98535 0.43491 0.0
H846 H 0.39817 0.96282 0.34856 0.0
C847 C 0.39836 0.92418 0.29435 0.0
C848 C 0.39992 0.9039 0.27061 0.0
C849 C 0.41293 0.93775 0.34294 0.0
C850 C 0.41637 0.89736 0.29616 0.0
C851 C 0.43123 0.91102 0.34415 0.0
C852 C 0.44402 0.94476 0.41708 0.0
C853 C 0.44125 0.9641 0.44214 0.0
C854 C 0.42964 0.93125 0.36801 0.0
C855 C 0.42469 0.97043 0.41654 0.0
C856 C 0.41084 0.95755 0.3672 0.0
H857 H 0.42425 0.33708 0.52295 0.0
H858 H 0.40327 0.34553 0.3563 0.0
H859 H 0.42837 0.39118 0.37216 0.0
H860 H 0.45523 0.42874 0.43462 0.0
H861 H 0.47505 0.42009 0.60224 0.0
H862 H 0.45135 0.37452 0.58508 0.0
C863 C 0.42546 0.34897 0.48998 0.0
C864 C 0.41243 0.33798 0.43821 0.0
C865 C 0.4395 0.37514 0.49978 0.0
C866 C 0.41357 0.35354 0.39615 0.0
C867 C 0.4278 0.37963 0.40529 0.0
C868 C 0.45449 0.41685 0.4672 0.0
C869 C 0.46663 0.42775 0.51984 0.0
C870 C 0.44074 0.39064 0.45705 0.0
C871 C 0.46541 0.41214 0.56178 0.0
C872 C 0.45202 0.38609 0.55186 0.0
H873 H 0.53358 0.88394 0.76458 0.0
H874 H 0.6034 0.93674 0.70361 0.0
H875 H 0.58337 0.95665 0.65432 0.0
H876 H 0.54686 0.96189 0.63874 0.0
H877 H 0.47787 0.9093 0.70332 0.0
H878 H 0.49659 0.88586 0.73977 0.0
C879 C 0.54435 0.89934 0.73921 0.0
C880 C 0.5699 0.90864 0.73709 0.0
C881 C 0.53282 0.91069 0.71172 0.0
C882 C 0.58365 0.92908 0.70525 0.0
C883 C 0.57222 0.94048 0.6773 0.0
C884 C 0.53578 0.9448 0.65905 0.0
C885 C 0.51106 0.9372 0.66832 0.0
C886 C 0.54691 0.93181 0.68139 0.0
C887 C 0.49697 0.91542 0.6959 0.0
C888 C 0.50768 0.90213 0.71698 0.0
H889 H 0.60587 0.4735 0.85298 0.0
H890 H 0.6697 0.56818 0.87478 0.0
H891 H 0.63456 0.57674 0.8116 0.0
H892 H 0.5901 0.55376 0.74664 0.0
H893 H 0.53628 0.47418 0.73131 0.0
H894 H 0.56038 0.46279 0.79242 0.0
C895 C 0.61067 0.49276 0.84855 0.0
C896 C 0.64308 0.51938 0.86211 0.0
C897 C 0.59074 0.50023 0.80788 0.0
C898 C 0.65129 0.55288 0.86184 0.0
C899 C 0.62975 0.55788 0.82063 0.0
C900 C 0.58463 0.53495 0.75773 0.0
C901 C 0.56213 0.51418 0.73515 0.0
C902 C 0.60063 0.53175 0.7929 0.0
C903 C 0.55389 0.48925 0.74973 0.0
C904 C 0.56762 0.48232 0.78477 0.0
H905 H 0.07364 0.65883 0.86641 0.0
H906 H 0.10551 0.68715 0.71235 0.0
H907 H 0.09685 0.64531 0.67924 0.0
H908 H 0.07746 0.60005 0.69175 0.0
H909 H 0.04614 0.57239 0.84696 0.0
H910 H 0.05796 0.61463 0.8823 0.0
C911 C 0.07913 0.65597 0.82604 0.0
C912 C 0.09043 0.67612 0.79206 0.0
C913 C 0.07417 0.63194 0.80737 0.0
C914 C 0.09702 0.67194 0.73942 0.0
C915 C 0.09199 0.64804 0.72041 0.0
C916 C 0.07347 0.60333 0.73347 0.0
C917 C 0.06075 0.58297 0.76627 0.0
C918 C 0.08019 0.62778 0.75367 0.0
C919 C 0.05603 0.58763 0.82067 0.0
C920 C 0.0626 0.61181 0.84092 0.0
H921 H 0.50465 0.09701 0.96528 0.0
H922 H 0.46312 0.12293 0.8689 0.0
H923 H 0.46485 0.10027 0.78551 0.0
H924 H 0.47292 0.06856 0.7434 0.0
H925 H 0.51187 0.04037 0.84157 0.0
H926 H 0.51643 0.06859 0.92074 0.0
C927 C 0.49592 0.0978 0.9263 0.0
C928 C 0.48274 0.11082 0.924 0.0
C929 C 0.49637 0.08414 0.8788 0.0
C930 C 0.47269 0.11241 0.87209 0.0
C931 C 0.47366 0.09946 0.82443 0.0
C932 C 0.48278 0.06885 0.78178 0.0
C933 C 0.49167 0.05205 0.7867 0.0
C934 C 0.48463 0.08451 0.82776 0.0
C935 C 0.50455 0.05287 0.83674 0.0
C936 C 0.50712 0.06896 0.88217 0.0
H937 H 0.36042 0.46408 0.95906 0.0
H938 H 0.40875 0.54433 0.98374 0.0
H939 H 0.43767 0.54194 0.92325 0.0
H940 H 0.44792 0.51749 0.8578 0.0
H941 H 0.39688 0.43831 0.82359 0.0
H942 H 0.37028 0.43976 0.89326 0.0
C943 C 0.37738 0.48102 0.95165 0.0
C944 C 0.38258 0.50416 0.9773 0.0
C945 C 0.3934 0.4797 0.91477 0.0
C946 C 0.40444 0.52608 0.96615 0.0
C947 C 0.42098 0.52479 0.93109 0.0
C948 C 0.43114 0.50054 0.86639 0.0
C949 C 0.42431 0.4778 0.83633 0.0
C950 C 0.41549 0.50176 0.90464 0.0
C951 C 0.40236 0.45599 0.84656 0.0
C952 C 0.38721 0.45683 0.88621 0.0
H953 H 0.8591 0.37832 0.81186 0.0
H954 H 0.88509 0.41907 0.97258 0.0
H955 H 0.92405 0.44941 0.9357 0.0
H956 H 0.95173 0.46261 0.85887 0.0
H957 H 0.92528 0.42076 0.6989 0.0
H958 H 0.88549 0.39285 0.73425 0.0
C959 C 0.87327 0.39393 0.83869 0.0
C960 C 0.8694 0.39626 0.895 0.0
C961 C 0.89557 0.41109 0.81737 0.0
C962 C 0.88777 0.41672 0.92923 0.0
C963 C 0.91002 0.43406 0.90815 0.0
C964 C 0.93717 0.44755 0.83162 0.0
C965 C 0.94167 0.44365 0.7765 0.0
C966 C 0.9143 0.43119 0.85245 0.0
C967 C 0.92251 0.42407 0.7417 0.0
C968 C 0.8997 0.40804 0.76184 0.0
H969 H 0.91307 0.52543 0.89102 0.0
H970 H 0.94908 0.60593 0.88743 0.0
H971 H 0.97939 0.60568 0.82765 0.0
H972 H 0.99286 0.58234 0.76914 0.0
H973 H 0.9553 0.50153 0.76713 0.0
H974 H 0.92869 0.50217 0.83738 0.0
C975 C 0.92781 0.54293 0.87784 0.0
C976 C 0.92894 0.56567 0.89381 0.0
C977 C 0.94476 0.54257 0.84228 0.0
C978 C 0.94801 0.58823 0.87616 0.0
C979 C 0.96523 0.58808 0.84172 0.0
C980 C 0.97896 0.56484 0.78426 0.0
C981 C 0.97586 0.5419 0.76241 0.0
C982 C 0.96335 0.56531 0.82339 0.0
C983 C 0.9581 0.51945 0.78329 0.0
C984 C 0.94274 0.51979 0.82317 0.0
H985 H 0.31063 0.88291 0.7525 0.0
H986 H 0.3022 0.94791 0.77595 0.0
H987 H 0.34288 0.97418 0.74075 0.0
H988 H 0.38206 0.97895 0.70886 0.0
H989 H 0.39105 0.9141 0.69556 0.0
H990 H 0.34893 0.88748 0.72175 0.0
C991 C 0.31755 0.90282 0.75033 0.0
C992 C 0.30339 0.91347 0.76765 0.0
C993 C 0.34117 0.91785 0.732 0.0
C994 C 0.3128 0.9393 0.76326 0.0
C995 C 0.33605 0.95431 0.74325 0.0
C996 C 0.37458 0.95895 0.71119 0.0
C997 C 0.38947 0.94841 0.70028 0.0
C998 C 0.35057 0.94385 0.72824 0.0
C999 C 0.37986 0.92256 0.70404 0.0
C1000 C 0.35581 0.90735 0.71897 0.0
H1001 H 0.42935 0.33169 0.82228 0.0
H1002 H 0.49333 0.3798 0.93412 0.0
H1003 H 0.50688 0.41298 0.87012 0.0
H1004 H 0.49706 0.4305 0.7912 0.0
H1005 H 0.43104 0.38427 0.68318 0.0
H1006 H 0.42213 0.34804 0.73593 0.0
C1007 C 0.44633 0.34939 0.83234 0.0
C1008 C 0.45988 0.35361 0.88375 0.0
C1009 C 0.45359 0.36875 0.79613 0.0
C1010 C 0.48227 0.37631 0.89546 0.0
C1011 C 0.49004 0.39529 0.85888 0.0
C1012 C 0.48092 0.41242 0.77838 0.0
C1013 C 0.46439 0.4103 0.73417 0.0
C1014 C 0.4753 0.39207 0.81036 0.0
C1015 C 0.44392 0.38655 0.71749 0.0
C1016 C 0.4387 0.36586 0.74797 0.0
H1017 H 0.07349 0.38275 0.82406 0.0
H1018 H 0.08389 0.42137 0.98456 0.0
H1019 H 0.06953 0.4479 0.94408 0.0
H1020 H 0.05255 0.459 0.86401 0.0
H1021 H 0.04034 0.41921 0.70387 0.0
H1022 H 0.05677 0.39421 0.74329 0.0
C1023 C 0.07266 0.39705 0.84997 0.0
C1024 C 0.07972 0.40013 0.90714 0.0
C1025 C 0.06397 0.41193 0.82659 0.0
C1026 C 0.07857 0.41868 0.94042 0.0
C1027 C 0.07033 0.43382 0.91733 0.0
C1028 C 0.05361 0.44499 0.83755 0.0
C1029 C 0.04518 0.44102 0.78104 0.0
C1030 C 0.06277 0.43045 0.86059 0.0
C1031 C 0.04658 0.42262 0.74756 0.0
C1032 C 0.05601 0.40832 0.77004 0.0
H1033 H 0.60334 0.10606 0.87966 0.0
H1034 H 0.6602 0.08724 0.85543 0.0
H1035 H 0.6331 0.05427 0.78419 0.0
H1036 H 0.59434 0.03264 0.72499 0.0
H1037 H 0.53778 0.05211 0.74756 0.0
H1038 H 0.56338 0.08249 0.82412 0.0
C1039 C 0.60977 0.09476 0.85858 0.0
C1040 C 0.63401 0.09963 0.87142 0.0
C1041 C 0.59407 0.0758 0.81779 0.0
C1042 C 0.64187 0.08434 0.8451 0.0
C1043 C 0.62635 0.06541 0.80462 0.0
C1044 C 0.58744 0.0433 0.74698 0.0
C1045 C 0.56406 0.03999 0.73042 0.0
C1046 C 0.60256 0.06124 0.79002 0.0
C1047 C 0.55548 0.05396 0.75975 0.0
C1048 C 0.57027 0.07158 0.8032 0.0
H1049 H 0.5871 0.66356 0.81012 0.0
H1050 H 0.5955 0.6777 0.63675 0.0
H1051 H 0.56636 0.63355 0.6103 0.0
H1052 H 0.53848 0.59067 0.6366 0.0
H1053 H 0.52928 0.57733 0.8105 0.0
H1054 H 0.55837 0.62139 0.83619 0.0
C1055 C 0.58288 0.65687 0.76655 0.0
C1056 C 0.59443 0.67376 0.72579 0.0
C1057 C 0.56565 0.6316 0.75157 0.0
C1058 C 0.58783 0.66505 0.66932 0.0
C1059 C 0.57089 0.63978 0.65404 0.0
C1060 C 0.54276 0.59738 0.68008 0.0
C1061 C 0.53182 0.58054 0.72142 0.0
C1062 C 0.55972 0.62286 0.69486 0.0
C1063 C 0.53746 0.58973 0.77762 0.0
C1064 C 0.55419 0.61497 0.79252 0.0
H1065 H 0.45749 0.11815 0.54944 0.0
H1066 H 0.45887 0.11334 0.37084 0.0
H1067 H 0.47661 0.08608 0.37762 0.0
H1068 H 0.48957 0.06187 0.43355 0.0
H1069 H 0.48663 0.06539 0.61175 0.0
H1070 H 0.47127 0.09468 0.60556 0.0
C1071 C 0.46137 0.11105 0.51178 0.0
C1072 C 0.45598 0.11718 0.45931 0.0
C1073 C 0.47118 0.09502 0.51588 0.0
C1074 C 0.46222 0.10839 0.41153 0.0
C1075 C 0.47239 0.09283 0.41537 0.0
C1076 C 0.48574 0.06915 0.47112 0.0
C1077 C 0.48915 0.06132 0.52299 0.0
C1078 C 0.47659 0.08572 0.46723 0.0
C1079 C 0.48399 0.07093 0.5712 0.0
C1080 C 0.47524 0.08773 0.56773 0.0
H1081 H 0.39248 0.53832 0.41877 0.0
H1082 H 0.32818 0.48258 0.49363 0.0
H1083 H 0.35184 0.46397 0.53013 0.0
H1084 H 0.39159 0.46658 0.55005 0.0
H1085 H 0.45705 0.52439 0.48234 0.0
H1086 H 0.43215 0.53892 0.43318 0.0
C1087 C 0.38368 0.52198 0.44272 0.0
C1088 C 0.35874 0.51207 0.45428 0.0
C1089 C 0.39761 0.51183 0.46504 0.0
C1090 C 0.34741 0.4907 0.48469 0.0
C1091 C 0.36093 0.48007 0.50561 0.0
C1092 C 0.40046 0.4821 0.52382 0.0
C1093 C 0.4263 0.4945 0.52047 0.0
C1094 C 0.38619 0.49093 0.49742 0.0
C1095 C 0.43728 0.51453 0.486 0.0
C1096 C 0.42304 0.52295 0.45808 0.0
H1097 H 0.89169 0.36969 0.43455 0.0
H1098 H 0.94295 0.34675 0.49368 0.0
H1099 H 0.96955 0.38837 0.54127 0.0
H1100 H 0.97959 0.43217 0.56036 0.0
H1101 H 0.93034 0.45586 0.49267 0.0
H1102 H 0.9015 0.41302 0.45382 0.0
C1103 C 0.90876 0.37377 0.4574 0.0
C1104 C 0.91565 0.35528 0.45942 0.0
C1105 C 0.92425 0.39787 0.48319 0.0
C1106 C 0.93752 0.36083 0.49071 0.0
C1107 C 0.95267 0.38456 0.51796 0.0
C1108 C 0.9623 0.42773 0.53797 0.0
C1109 C 0.95675 0.44681 0.52981 0.0
C1110 C 0.94641 0.40334 0.5138 0.0
C1111 C 0.93472 0.44123 0.49959 0.0
C1112 C 0.91835 0.41684 0.47728 0.0
H1113 H 0.52076 0.85491 0.40855 0.0
H1114 H 0.47846 0.85909 0.26775 0.0
H1115 H 0.48238 0.8977 0.31038 0.0
H1116 H 0.49866 0.9307 0.38664 0.0
H1117 H 0.54068 0.92619 0.52812 0.0
H1118 H 0.53588 0.8872 0.48635 0.0
C1119 C 0.51262 0.86444 0.38705 0.0
C1120 C 0.49998 0.85459 0.33439 0.0
C1121 C 0.5148 0.88648 0.41198 0.0
C1122 C 0.48885 0.86668 0.30765 0.0
C1123 C 0.49097 0.88866 0.33215 0.0
C1124 C 0.50673 0.92119 0.40852 0.0
C1125 C 0.5202 0.93157 0.4603 0.0
C1126 C 0.50404 0.89882 0.38414 0.0
C1127 C 0.53033 0.91878 0.4881 0.0
C1128 C 0.52764 0.89647 0.46421 0.0
H1129 H 0.67921 0.599 0.40748 0.0
H1130 H 0.65568 0.52345 0.34371 0.0
H1131 H 0.61538 0.50849 0.38078 0.0
H1132 H 0.58682 0.51685 0.43165 0.0
H1133 H 0.6114 0.59192 0.50088 0.0
H1134 H 0.65129 0.60709 0.46141 0.0
C1135 C 0.66514 0.5793 0.40143 0.0
C1136 C 0.67014 0.56256 0.37143 0.0
C1137 C 0.64225 0.57073 0.42393 0.0
C1138 C 0.65209 0.5369 0.36528 0.0
C1139 C 0.62907 0.52829 0.3867 0.0
C1140 C 0.60089 0.53654 0.43781 0.0
C1141 C 0.59618 0.55327 0.46879 0.0
C1142 C 0.62392 0.54505 0.41591 0.0
C1143 C 0.61466 0.57867 0.47727 0.0
C1144 C 0.63743 0.58737 0.45465 0.0
H1145 H 0.13242 0.68481 0.4323 0.0
H1146 H 0.13789 0.62934 0.3289 0.0
H1147 H 0.1169 0.59807 0.39536 0.0
H1148 H 0.09179 0.58492 0.47487 0.0
H1149 H 0.08335 0.63914 0.57579 0.0
H1150 H 0.11135 0.67253 0.51971 0.0
C1151 C 0.12948 0.66602 0.42512 0.0
C1152 C 0.13664 0.65941 0.3756 0.0
C1153 C 0.11678 0.64784 0.46303 0.0
C1154 C 0.1326 0.63494 0.36662 0.0
C1155 C 0.12052 0.617 0.40454 0.0
C1156 C 0.09648 0.60413 0.4855 0.0
C1157 C 0.08516 0.6094 0.52906 0.0
C1158 C 0.11176 0.62301 0.45179 0.0
C1159 C 0.09176 0.63448 0.54258 0.0
C1160 C 0.10756 0.65357 0.51003 0.0
loop_
_geom_bond_atom_site_label_1
_geom_bond_atom_site_label_2
_geom_bond_distance
_geom_bond_site_symmetry_2
_ccdc_geom_bond_type
C0 C1 1.560 . S
C0 H61 0.959 . S
C0 H62 0.959 . S
C0 H63 0.960 . S
C1 C0 1.560 . S
C1 O56 1.426 . S
C1 H60 0.980 . S
C2 C3 1.407 . S
C2 C7 1.418 . S
C2 O56 1.334 . S
C3 C2 1.407 . S
C3 C4 1.360 . S
C3 H64 0.929 . S
C4 C3 1.360 . S
C4 C5 1.401 . S
C4 C8 1.527 . S
C5 C4 1.401 . S
C5 C6 1.405 . S
C5 C38 1.587 . S
C6 C5 1.405 . S
C6 C7 1.332 . S
C6 C9 1.496 . S
C7 C2 1.418 . S
C7 C6 1.332 . S
C7 H65 0.929 . S
C8 C4 1.527 . S
C8 H66 0.959 . S
C8 H67 0.961 . S
C8 H68 0.961 . S
C9 C6 1.496 . S
C9 H69 0.960 . S
C9 H70 0.960 . S
C9 H71 0.961 . S
C10 C11 1.517 . S
C10 H73 0.961 . S
C10 H74 0.960 . S
C10 H75 0.959 . S
C11 C10 1.517 . S
C11 O59 1.468 . S
C11 H72 0.980 . S
C12 C13 1.349 . S
C12 C17 1.367 . S
C12 O59 1.408 . S
C13 C12 1.349 . S
C13 C14 1.407 . S
C13 H76 0.930 . S
C14 C13 1.407 . S
C14 C15 1.449 . S
C14 C18 1.535 . S
C15 C14 1.449 . S
C15 C16 1.384 . S
C15 C40 1.553 . S
C16 C15 1.384 . S
C16 C17 1.364 . S
C16 C19 1.450 . S
C17 C12 1.367 . S
C17 C16 1.364 . S
C17 H77 0.931 . S
C18 C14 1.535 . S
C18 H78 0.959 . S
C18 H79 0.961 . S
C18 H80 0.959 . S
C19 C16 1.450 . S
C19 H81 0.960 . S
C19 H82 0.960 . S
C19 H83 0.960 . S
C20 C21 1.309 1_556 S
C20 C25 1.304 . S
C20 O58 1.435 . S
C21 C20 1.309 1_554 S
C21 C22 1.476 . S
C21 H85 0.930 . S
C22 C21 1.476 . S
C22 C23 1.400 . S
C22 C26 1.567 . S
C23 C22 1.400 . S
C23 C24 1.373 . S
C23 C45 1.432 . S
C24 C23 1.373 . S
C24 C25 1.339 1_554 S
C24 C27 1.530 . S
C25 C20 1.304 . S
C25 C24 1.339 1_556 S
C25 H86 0.930 . S
C26 C22 1.567 . S
C26 H87 0.961 . S
C26 H88 0.960 . S
C26 H89 0.958 . S
C27 C24 1.530 . S
C27 H90 0.961 . S
C27 H91 0.960 . S
C27 H92 0.960 . S
C28 C29 1.530 . S
C28 H94 0.961 . S
C28 H95 0.961 . S
C28 H96 0.959 . S
C29 C28 1.530 . S
C29 O57 1.412 . S
C29 H93 0.980 . S
C30 C31 1.288 1_556 S
C30 C35 1.377 . S
C30 O57 1.393 . S
C31 C30 1.288 1_554 S
C31 C32 1.369 . S
C31 H97 0.932 1_554 S
C32 C31 1.369 . S
C32 C33 1.398 . S
C32 C36 1.527 . S
C33 C32 1.398 . S
C33 C34 1.380 . S
C33 C47 1.497 . S
C34 C33 1.380 . S
C34 C35 1.383 1_554 S
C34 C37 1.603 . S
C35 C30 1.377 . S
C35 C34 1.383 1_556 S
C35 H98 0.929 . S
C36 C32 1.527 . S
C36 H99 0.961 . S
C36 H100 0.959 . S
C36 H101 0.959 . S
C37 C34 1.603 . S
C37 H102 0.960 . S
C37 H103 0.962 . S
C37 H104 0.961 . S
C38 C5 1.587 . S
C38 C39 1.360 . S
C38 C51 1.412 . S
C39 C38 1.360 . S
C39 C40 1.365 . S
C39 H105 0.929 . S
C40 C15 1.553 . S
C40 C39 1.365 . S
C40 C41 1.404 . S
C41 C40 1.404 . S
C41 C42 1.395 . S
C41 C52 1.451 . S
C42 C41 1.395 . S
C42 C43 1.322 . S
C42 H106 0.930 . S
C43 C42 1.322 . S
C43 C44 1.459 . S
C43 H107 0.929 . S
C44 C43 1.459 . S
C44 C45 1.445 . S
C44 C53 1.395 . S
C45 C23 1.432 . S
C45 C44 1.445 . S
C45 C46 1.370 . S
C46 C45 1.370 . S
C46 C47 1.438 . S
C46 H108 0.930 . S
C47 C33 1.497 . S
C47 C46 1.438 . S
C47 C48 1.360 . S
C48 C47 1.360 . S
C48 C49 1.401 . S
C48 C53 1.446 . S
C49 C48 1.401 . S
C49 C50 1.347 . S
C49 H109 0.929 . S
C50 C49 1.347 . S
C50 C51 1.455 . S
C50 H110 0.930 . S
C51 C38 1.412 . S
C51 C50 1.455 . S
C51 C52 1.331 . S
C52 C41 1.451 . S
C52 C51 1.331 . S
C52 C53 1.497 . S
C53 C44 1.395 . S
C53 C48 1.446 . S
C53 C52 1.497 . S
C54 C55 1.582 . S
C54 H111 0.962 . S
C54 H112 0.959 . S
C54 H113 0.958 . S
C55 C54 1.582 . S
C55 O58 1.458 . S
C55 H84 0.980 . S
O56 C1 1.426 . S
O56 C2 1.334 . S
O57 C29 1.412 . S
O57 C30 1.393 . S
O58 C20 1.435 . S
O58 C55 1.458 . S
O59 C11 1.468 . S
O59 C12 1.408 . S
H60 C1 0.980 . S
H61 C0 0.959 . S
H62 C0 0.959 . S
H63 C0 0.960 . S
H64 C3 0.929 . S
H65 C7 0.929 . S
H66 C8 0.959 . S
H67 C8 0.961 . S
H68 C8 0.961 . S
H69 C9 0.960 . S
H70 C9 0.960 . S
H71 C9 0.961 . S
H72 C11 0.980 . S
H73 C10 0.961 . S
H74 C10 0.960 . S
H75 C10 0.959 . S
H76 C13 0.930 . S
H77 C17 0.931 . S
H78 C18 0.959 . S
H79 C18 0.961 . S
H80 C18 0.959 . S
H81 C19 0.960 . S
H82 C19 0.960 . S
H83 C19 0.960 . S
H84 C55 0.980 . S
H85 C21 0.930 . S
H86 C25 0.930 . S
H87 C26 0.961 . S
H88 C26 0.960 . S
H89 C26 0.958 . S
H90 C27 0.961 . S
H91 C27 0.960 . S
H92 C27 0.960 . S
H93 C29 0.980 . S
H94 C28 0.961 . S
H95 C28 0.961 . S
H96 C28 0.959 . S
H97 C31 0.932 1_556 S
H98 C35 0.929 . S
H99 C36 0.961 . S
H100 C36 0.959 . S
H101 C36 0.959 . S
H102 C37 0.960 . S
H103 C37 0.962 . S
H104 C37 0.961 . S
H105 C39 0.929 . S
H106 C42 0.930 . S
H107 C43 0.929 . S
H108 C46 0.930 . S
H109 C49 0.929 . S
H110 C50 0.930 . S
H111 C54 0.962 . S
H112 C54 0.959 . S
H113 C54 0.958 . S
C114 C115 1.560 . S
C114 H175 0.959 . S
C114 H176 0.959 . S
C114 H177 0.960 . S
C115 C114 1.560 . S
C115 O170 1.426 . S
C115 H174 0.980 . S
C116 C117 1.407 . S
C116 C121 1.418 . S
C116 O170 1.334 . S
C117 C116 1.407 . S
C117 C118 1.360 . S
C117 H178 0.929 . S
C118 C117 1.360 . S
C118 C119 1.401 . S
C118 C122 1.527 . S
C119 C118 1.401 . S
C119 C120 1.405 . S
C119 C152 1.587 . S
C120 C119 1.405 . S
C120 C121 1.332 . S
C120 C123 1.496 . S
C121 C116 1.418 . S
C121 C120 1.332 . S
C121 H179 0.929 . S
C122 C118 1.527 . S
C122 H180 0.959 . S
C122 H181 0.961 . S
C122 H182 0.961 . S
C123 C120 1.496 . S
C123 H183 0.960 . S
C123 H184 0.960 . S
C123 H185 0.961 . S
C124 C125 1.517 . S
C124 H187 0.961 . S
C124 H188 0.960 . S
C124 H189 0.959 . S
C125 C124 1.517 . S
C125 O173 1.468 . S
C125 H186 0.980 . S
C126 C127 1.349 . S
C126 C131 1.367 . S
C126 O173 1.408 . S
C127 C126 1.349 . S
C127 C128 1.407 . S
C127 H190 0.930 . S
C128 C127 1.407 . S
C128 C129 1.449 . S
C128 C132 1.535 . S
C129 C128 1.449 . S
C129 C130 1.384 . S
C129 C154 1.553 . S
C130 C129 1.384 . S
C130 C131 1.364 . S
C130 C133 1.450 . S
C131 C126 1.367 . S
C131 C130 1.364 . S
C131 H191 0.931 . S
C132 C128 1.535 . S
C132 H192 0.959 . S
C132 H193 0.961 . S
C132 H194 0.959 . S
C133 C130 1.450 . S
C133 H195 0.960 . S
C133 H196 0.960 . S
C133 H197 0.960 . S
C134 C135 1.309 . S
C134 C139 1.304 . S
C134 O172 1.435 . S
C135 C134 1.309 . S
C135 C136 1.476 . S
C135 H199 0.930 . S
C136 C135 1.476 . S
C136 C137 1.400 . S
C136 C140 1.567 . S
C137 C136 1.400 . S
C137 C138 1.373 . S
C137 C159 1.432 . S
C138 C137 1.373 . S
C138 C139 1.339 . S
C138 C141 1.530 . S
C139 C134 1.304 . S
C139 C138 1.339 . S
C139 H200 0.930 . S
C140 C136 1.567 . S
C140 H201 0.961 1_556 S
C140 H202 0.960 . S
C140 H203 0.958 . S
C141 C138 1.530 . S
C141 H204 0.961 . S
C141 H205 0.960 . S
C141 H206 0.960 . S
C142 C143 1.530 . S
C142 H208 0.961 . S
C142 H209 0.961 . S
C142 H210 0.959 . S
C143 C142 1.530 . S
C143 O171 1.412 . S
C143 H207 0.980 . S
C144 C145 1.288 . S
C144 C149 1.377 . S
C144 O171 1.393 . S
C145 C144 1.288 . S
C145 C146 1.369 . S
C145 H211 0.932 . S
C146 C145 1.369 . S
C146 C147 1.398 . S
C146 C150 1.527 . S
C147 C146 1.398 . S
C147 C148 1.380 . S
C147 C161 1.497 . S
C148 C147 1.380 . S
C148 C149 1.383 . S
C148 C151 1.603 . S
C149 C144 1.377 . S
C149 C148 1.383 . S
C149 H212 0.929 . S
C150 C146 1.527 . S
C150 H213 0.961 1_556 S
C150 H214 0.959 . S
C150 H215 0.959 . S
C151 C148 1.603 . S
C151 H216 0.960 . S
C151 H217 0.962 . S
C151 H218 0.961 . S
C152 C119 1.587 . S
C152 C153 1.360 . S
C152 C165 1.412 . S
C153 C152 1.360 . S
C153 C154 1.365 . S
C153 H219 0.929 . S
C154 C129 1.553 . S
C154 C153 1.365 . S
C154 C155 1.404 . S
C155 C154 1.404 . S
C155 C156 1.395 . S
C155 C166 1.451 . S
C156 C155 1.395 . S
C156 C157 1.322 . S
C156 H220 0.930 . S
C157 C156 1.322 . S
C157 C158 1.459 . S
C157 H221 0.929 . S
C158 C157 1.459 . S
C158 C159 1.445 1_554 S
C158 C167 1.395 . S
C159 C137 1.432 . S
C159 C158 1.445 1_556 S
C159 C160 1.370 . S
C160 C159 1.370 . S
C160 C161 1.438 . S
C160 H222 0.930 . S
C161 C147 1.497 . S
C161 C160 1.438 . S
C161 C162 1.360 1_556 S
C162 C161 1.360 1_554 S
C162 C163 1.401 . S
C162 C167 1.446 . S
C163 C162 1.401 . S
C163 C164 1.347 . S
C163 H223 0.929 . S
C164 C163 1.347 . S
C164 C165 1.455 . S
C164 H224 0.930 . S
C165 C152 1.412 . S
C165 C164 1.455 . S
C165 C166 1.331 . S
C166 C155 1.451 . S
C166 C165 1.331 . S
C166 C167 1.497 . S
C167 C158 1.395 . S
C167 C162 1.446 . S
C167 C166 1.497 . S
C168 C169 1.582 . S
C168 H225 0.962 . S
C168 H226 0.959 . S
C168 H227 0.958 . S
C169 C168 1.582 . S
C169 O172 1.458 . S
C169 H198 0.980 . S
O170 C115 1.426 . S
O170 C116 1.334 . S
O171 C143 1.412 . S
O171 C144 1.393 . S
O172 C134 1.435 . S
O172 C169 1.458 . S
O173 C125 1.468 . S
O173 C126 1.408 . S
H174 C115 0.980 . S
H175 C114 0.959 . S
H176 C114 0.959 . S
H177 C114 0.960 . S
H178 C117 0.929 . S
H179 C121 0.929 . S
H180 C122 0.959 . S
H181 C122 0.961 . S
H182 C122 0.961 . S
H183 C123 0.960 . S
H184 C123 0.960 . S
H185 C123 0.961 . S
H186 C125 0.980 . S
H187 C124 0.961 . S
H188 C124 0.960 . S
H189 C124 0.959 . S
H190 C127 0.930 . S
H191 C131 0.931 . S
H192 C132 0.959 . S
H193 C132 0.961 . S
H194 C132 0.959 . S
H195 C133 0.960 . S
H196 C133 0.960 . S
H197 C133 0.960 . S
H198 C169 0.980 . S
H199 C135 0.930 . S
H200 C139 0.930 . S
H201 C140 0.961 1_554 S
H202 C140 0.960 . S
H203 C140 0.958 . S
H204 C141 0.961 . S
H205 C141 0.960 . S
H206 C141 0.960 . S
H207 C143 0.980 . S
H208 C142 0.961 . S
H209 C142 0.961 . S
H210 C142 0.959 . S
H211 C145 0.932 . S
H212 C149 0.929 . S
H213 C150 0.961 1_554 S
H214 C150 0.959 . S
H215 C150 0.959 . S
H216 C151 0.960 . S
H217 C151 0.962 . S
H218 C151 0.961 . S
H219 C153 0.929 . S
H220 C156 0.930 . S
H221 C157 0.929 . S
H222 C160 0.930 . S
H223 C163 0.929 . S
H224 C164 0.930 . S
H225 C168 0.962 . S
H226 C168 0.959 . S
H227 C168 0.958 . S
C228 C229 1.560 . S
C228 H289 0.959 . S
C228 H290 0.959 . S
C228 H291 0.960 . S
C229 C228 1.560 . S
C229 O284 1.426 . S
C229 H288 0.980 . S
C230 C231 1.407 . S
C230 C235 1.418 . S
C230 O284 1.334 . S
C231 C230 1.407 . S
C231 C232 1.360 . S
C231 H292 0.929 . S
C232 C231 1.360 . S
C232 C233 1.401 . S
C232 C236 1.527 . S
C233 C232 1.401 . S
C233 C234 1.405 . S
C233 C266 1.587 . S
C234 C233 1.405 . S
C234 C235 1.332 . S
C234 C237 1.496 . S
C235 C230 1.418 . S
C235 C234 1.332 . S
C235 H293 0.929 . S
C236 C232 1.527 . S
C236 H294 0.959 . S
C236 H295 0.961 . S
C236 H296 0.961 . S
C237 C234 1.496 . S
C237 H297 0.960 . S
C237 H298 0.960 . S
C237 H299 0.961 . S
C238 C239 1.517 . S
C238 H301 0.961 . S
C238 H302 0.960 . S
C238 H303 0.959 . S
C239 C238 1.517 . S
C239 O287 1.468 . S
C239 H300 0.980 . S
C240 C241 1.349 . S
C240 C245 1.367 . S
C240 O287 1.408 . S
C241 C240 1.349 . S
C241 C242 1.407 . S
C241 H304 0.930 . S
C242 C241 1.407 . S
C242 C243 1.449 . S
C242 C246 1.535 . S
C243 C242 1.449 . S
C243 C244 1.384 . S
C243 C268 1.553 . S
C244 C243 1.384 . S
C244 C245 1.364 . S
C244 C247 1.450 . S
C245 C240 1.367 . S
C245 C244 1.364 . S
C245 H305 0.931 . S
C246 C242 1.535 . S
C246 H306 0.959 . S
C246 H307 0.961 . S
C246 H308 0.959 . S
C247 C244 1.450 . S
C247 H309 0.960 . S
C247 H310 0.960 . S
C247 H311 0.960 . S
C248 C249 1.309 . S
C248 C253 1.304 . S
C248 O286 1.435 . S
C249 C248 1.309 . S
C249 C250 1.476 . S
C249 H313 0.930 . S
C250 C249 1.476 . S
C250 C251 1.400 . S
C250 C254 1.567 . S
C251 C250 1.400 . S
C251 C252 1.373 . S
C251 C273 1.432 . S
C252 C251 1.373 . S
C252 C253 1.339 . S
C252 C255 1.530 . S
C253 C248 1.304 . S
C253 C252 1.339 . S
C253 H314 0.930 . S
C254 C250 1.567 . S
C254 H315 0.961 . S
C254 H316 0.960 . S
C254 H317 0.958 . S
C255 C252 1.530 . S
C255 H318 0.961 . S
C255 H319 0.960 . S
C255 H320 0.960 . S
C256 C257 1.530 . S
C256 H322 0.961 . S
C256 H323 0.961 . S
C256 H324 0.959 . S
C257 C256 1.530 . S
C257 O285 1.412 . S
C257 H321 0.980 . S
C258 C259 1.288 . S
C258 C263 1.377 . S
C258 O285 1.393 . S
C259 C258 1.288 . S
C259 C260 1.369 . S
C259 H325 0.932 . S
C260 C259 1.369 . S
C260 C261 1.398 . S
C260 C264 1.527 . S
C261 C260 1.398 . S
C261 C262 1.380 . S
C261 C275 1.497 . S
C262 C261 1.380 . S
C262 C263 1.383 . S
C262 C265 1.603 . S
C263 C258 1.377 . S
C263 C262 1.383 . S
C263 H326 0.929 . S
C264 C260 1.527 . S
C264 H327 0.961 . S
C264 H328 0.959 . S
C264 H329 0.959 . S
C265 C262 1.603 . S
C265 H330 0.960 . S
C265 H331 0.962 . S
C265 H332 0.961 . S
C266 C233 1.587 . S
C266 C267 1.360 . S
C266 C279 1.412 . S
C267 C266 1.360 . S
C267 C268 1.365 . S
C267 H333 0.929 . S
C268 C243 1.553 . S
C268 C267 1.365 . S
C268 C269 1.404 . S
C269 C268 1.404 . S
C269 C270 1.395 . S
C269 C280 1.451 . S
C270 C269 1.395 . S
C270 C271 1.322 . S
C270 H334 0.930 . S
C271 C270 1.322 . S
C271 C272 1.459 1_554 S
C271 H335 0.929 . S
C272 C271 1.459 1_556 S
C272 C273 1.445 . S
C272 C281 1.395 1_556 S
C273 C251 1.432 . S
C273 C272 1.445 . S
C273 C274 1.370 . S
C274 C273 1.370 . S
C274 C275 1.438 . S
C274 H336 0.930 . S
C275 C261 1.497 . S
C275 C274 1.438 . S
C275 C276 1.360 . S
C276 C275 1.360 . S
C276 C277 1.401 1_556 S
C276 C281 1.446 1_556 S
C277 C276 1.401 1_554 S
C277 C278 1.347 . S
C277 H337 0.929 . S
C278 C277 1.347 . S
C278 C279 1.455 . S
C278 H338 0.930 . S
C279 C266 1.412 . S
C279 C278 1.455 . S
C279 C280 1.331 . S
C280 C269 1.451 . S
C280 C279 1.331 . S
C280 C281 1.497 . S
C281 C272 1.395 1_554 S
C281 C276 1.446 1_554 S
C281 C280 1.497 . S
C282 C283 1.582 . S
C282 H339 0.962 . S
C282 H340 0.959 . S
C282 H341 0.958 . S
C283 C282 1.582 . S
C283 O286 1.458 . S
C283 H312 0.980 . S
O284 C229 1.426 . S
O284 C230 1.334 . S
O285 C257 1.412 . S
O285 C258 1.393 . S
O286 C248 1.435 . S
O286 C283 1.458 . S
O287 C239 1.468 . S
O287 C240 1.408 . S
H288 C229 0.980 . S
H289 C228 0.959 . S
H290 C228 0.959 . S
H291 C228 0.960 . S
H292 C231 0.929 . S
H293 C235 0.929 . S
H294 C236 0.959 . S
H295 C236 0.961 . S
H296 C236 0.961 . S
H297 C237 0.960 . S
H298 C237 0.960 . S
H299 C237 0.961 . S
H300 C239 0.980 . S
H301 C238 0.961 . S
H302 C238 0.960 . S
H303 C238 0.959 . S
H304 C241 0.930 . S
H305 C245 0.931 . S
H306 C246 0.959 . S
H307 C246 0.961 . S
H308 C246 0.959 . S
H309 C247 0.960 . S
H310 C247 0.960 . S
H311 C247 0.960 . S
H312 C283 0.980 . S
H313 C249 0.930 . S
H314 C253 0.930 . S
H315 C254 0.961 . S
H316 C254 0.960 . S
H317 C254 0.958 . S
H318 C255 0.961 . S
H319 C255 0.960 . S
H320 C255 0.960 . S
H321 C257 0.980 . S
H322 C256 0.961 . S
H323 C256 0.961 . S
H324 C256 0.959 . S
H325 C259 0.932 . S
H326 C263 0.929 . S
H327 C264 0.961 . S
H328 C264 0.959 . S
H329 C264 0.959 . S
H330 C265 0.960 . S
H331 C265 0.962 . S
H332 C265 0.961 . S
H333 C267 0.929 . S
H334 C270 0.930 . S
H335 C271 0.929 . S
H336 C274 0.930 . S
H337 C277 0.929 . S
H338 C278 0.930 . S
H339 C282 0.962 . S
H340 C282 0.959 . S
H341 C282 0.958 . S
C342 C343 1.560 . S
C342 H403 0.959 . S
C342 H404 0.959 . S
C342 H405 0.960 . S
C343 C342 1.560 . S
C343 O398 1.426 . S
C343 H402 0.980 . S
C344 C345 1.407 . S
C344 C349 1.418 . S
C344 O398 1.334 . S
C345 C344 1.407 . S
C345 C346 1.360 . S
C345 H406 0.929 . S
C346 C345 1.360 . S
C346 C347 1.401 . S
C346 C350 1.527 . S
C347 C346 1.401 . S
C347 C348 1.405 . S
C347 C380 1.587 . S
C348 C347 1.405 . S
C348 C349 1.332 . S
C348 C351 1.496 . S
C349 C344 1.418 . S
C349 C348 1.332 . S
C349 H407 0.929 . S
C350 C346 1.527 . S
C350 H408 0.959 . S
C350 H409 0.961 . S
C350 H410 0.961 . S
C351 C348 1.496 . S
C351 H411 0.960 . S
C351 H412 0.960 . S
C351 H413 0.961 . S
C352 C353 1.517 . S
C352 H415 0.961 . S
C352 H416 0.960 . S
C352 H417 0.959 . S
C353 C352 1.517 . S
C353 O401 1.468 . S
C353 H414 0.980 . S
C354 C355 1.349 . S
C354 C359 1.367 . S
C354 O401 1.408 . S
C355 C354 1.349 . S
C355 C356 1.407 . S
C355 H418 0.930 . S
C356 C355 1.407 . S
C356 C357 1.449 . S
C356 C360 1.535 . S
C357 C356 1.449 . S
C357 C358 1.384 . S
C357 C382 1.553 . S
C358 C357 1.384 . S
C358 C359 1.364 . S
C358 C361 1.450 . S
C359 C354 1.367 . S
C359 C358 1.364 . S
C359 H419 0.931 . S
C360 C356 1.535 . S
C360 H420 0.959 . S
C360 H421 0.961 . S
C360 H422 0.959 . S
C361 C358 1.450 . S
C361 H423 0.960 . S
C361 H424 0.960 . S
C361 H425 0.960 . S
C362 C363 1.309 . S
C362 C367 1.304 . S
C362 O400 1.435 . S
C363 C362 1.309 . S
C363 C364 1.476 . S
C363 H427 0.930 . S
C364 C363 1.476 . S
C364 C365 1.400 . S
C364 C368 1.567 . S
C365 C364 1.400 . S
C365 C366 1.373 . S
C365 C387 1.432 . S
C366 C365 1.373 . S
C366 C367 1.339 . S
C366 C369 1.530 . S
C367 C362 1.304 . S
C367 C366 1.339 . S
C367 H428 0.930 . S
C368 C364 1.567 . S
C368 H429 0.961 . S
C368 H430 0.960 . S
C368 H431 0.958 . S
C369 C366 1.530 . S
C369 H432 0.961 . S
C369 H433 0.960 . S
C369 H434 0.960 . S
C370 C371 1.530 . S
C370 H436 0.961 . S
C370 H437 0.961 . S
C370 H438 0.959 . S
C371 C370 1.530 . S
C371 O399 1.412 . S
C371 H435 0.980 . S
C372 C373 1.288 . S
C372 C377 1.377 . S
C372 O399 1.393 . S
C373 C372 1.288 . S
C373 C374 1.369 . S
C373 H439 0.932 . S
C374 C373 1.369 . S
C374 C375 1.398 . S
C374 C378 1.527 . S
C375 C374 1.398 . S
C375 C376 1.380 . S
C375 C389 1.497 . S
C376 C375 1.380 . S
C376 C377 1.383 . S
C376 C379 1.603 . S
C377 C372 1.377 . S
C377 C376 1.383 . S
C377 H440 0.929 . S
C378 C374 1.527 . S
C378 H441 0.961 . S
C378 H442 0.959 . S
C378 H443 0.959 . S
C379 C376 1.603 . S
C379 H444 0.960 . S
C379 H445 0.962 . S
C379 H446 0.961 . S
C380 C347 1.587 . S
C380 C381 1.360 . S
C380 C393 1.412 . S
C381 C380 1.360 . S
C381 C382 1.365 . S
C381 H447 0.929 . S
C382 C357 1.553 . S
C382 C381 1.365 . S
C382 C383 1.404 . S
C383 C382 1.404 . S
C383 C384 1.395 . S
C383 C394 1.451 . S
C384 C383 1.395 . S
C384 C385 1.322 . S
C384 H448 0.930 . S
C385 C384 1.322 . S
C385 C386 1.459 1_554 S
C385 H449 0.929 1_554 S
C386 C385 1.459 1_556 S
C386 C387 1.445 . S
C386 C395 1.395 1_556 S
C387 C365 1.432 . S
C387 C386 1.445 . S
C387 C388 1.370 . S
C388 C387 1.370 . S
C388 C389 1.438 . S
C388 H450 0.930 . S
C389 C375 1.497 . S
C389 C388 1.438 . S
C389 C390 1.360 . S
C390 C389 1.360 . S
C390 C391 1.401 1_556 S
C390 C395 1.446 1_556 S
C391 C390 1.401 1_554 S
C391 C392 1.347 . S
C391 H451 0.929 1_554 S
C392 C391 1.347 . S
C392 C393 1.455 . S
C392 H452 0.930 . S
C393 C380 1.412 . S
C393 C392 1.455 . S
C393 C394 1.331 . S
C394 C383 1.451 . S
C394 C393 1.331 . S
C394 C395 1.497 . S
C395 C386 1.395 1_554 S
C395 C390 1.446 1_554 S
C395 C394 1.497 . S
C396 C397 1.582 . S
C396 H453 0.962 . S
C396 H454 0.959 . S
C396 H455 0.958 . S
C397 C396 1.582 . S
C397 O400 1.458 . S
C397 H426 0.980 . S
O398 C343 1.426 . S
O398 C344 1.334 . S
O399 C371 1.412 . S
O399 C372 1.393 . S
O400 C362 1.435 . S
O400 C397 1.458 . S
O401 C353 1.468 . S
O401 C354 1.408 . S
H402 C343 0.980 . S
H403 C342 0.959 . S
H404 C342 0.959 . S
H405 C342 0.960 . S
H406 C345 0.929 . S
H407 C349 0.929 . S
H408 C350 0.959 . S
H409 C350 0.961 . S
H410 C350 0.961 . S
H411 C351 0.960 . S
H412 C351 0.960 . S
H413 C351 0.961 . S
H414 C353 0.980 . S
H415 C352 0.961 . S
H416 C352 0.960 . S
H417 C352 0.959 . S
H418 C355 0.930 . S
H419 C359 0.931 . S
H420 C360 0.959 . S
H421 C360 0.961 . S
H422 C360 0.959 . S
H423 C361 0.960 . S
H424 C361 0.960 . S
H425 C361 0.960 . S
H426 C397 0.980 . S
H427 C363 0.930 . S
H428 C367 0.930 . S
H429 C368 0.961 . S
H430 C368 0.960 . S
H431 C368 0.958 . S
H432 C369 0.961 . S
H433 C369 0.960 . S
H434 C369 0.960 . S
H435 C371 0.980 . S
H436 C370 0.961 . S
H437 C370 0.961 . S
H438 C370 0.959 . S
H439 C373 0.932 . S
H440 C377 0.929 . S
H441 C378 0.961 . S
H442 C378 0.959 . S
H443 C378 0.959 . S
H444 C379 0.960 . S
H445 C379 0.962 . S
H446 C379 0.961 . S
H447 C381 0.929 . S
H448 C384 0.930 . S
H449 C385 0.929 1_556 S
H450 C388 0.930 . S
H451 C391 0.929 1_556 S
H452 C392 0.930 . S
H453 C396 0.962 . S
H454 C396 0.959 . S
H455 C396 0.958 . S
C456 C457 1.560 . S
C456 H517 0.959 . S
C456 H518 0.959 . S
C456 H519 0.960 . S
C457 C456 1.560 . S
C457 O512 1.426 . S
C457 H516 0.980 . S
C458 C459 1.407 . S
C458 C463 1.418 . S
C458 O512 1.334 . S
C459 C458 1.407 . S
C459 C460 1.360 . S
C459 H520 0.929 . S
C460 C459 1.360 . S
C460 C461 1.401 . S
C460 C464 1.527 . S
C461 C460 1.401 . S
C461 C462 1.405 . S
C461 C494 1.587 . S
C462 C461 1.405 . S
C462 C463 1.332 . S
C462 C465 1.496 . S
C463 C458 1.418 . S
C463 C462 1.332 . S
C463 H521 0.929 . S
C464 C460 1.527 . S
C464 H522 0.959 . S
C464 H523 0.961 . S
C464 H524 0.961 . S
C465 C462 1.496 . S
C465 H525 0.960 . S
C465 H526 0.960 . S
C465 H527 0.961 1_556 S
C466 C467 1.517 . S
C466 H529 0.961 . S
C466 H530 0.960 . S
C466 H531 0.959 . S
C467 C466 1.517 . S
C467 O515 1.468 . S
C467 H528 0.980 . S
C468 C469 1.349 . S
C468 C473 1.367 . S
C468 O515 1.408 . S
C469 C468 1.349 . S
C469 C470 1.407 . S
C469 H532 0.930 . S
C470 C469 1.407 . S
C470 C471 1.449 . S
C470 C474 1.535 . S
C471 C470 1.449 . S
C471 C472 1.384 . S
C471 C496 1.553 . S
C472 C471 1.384 . S
C472 C473 1.364 . S
C472 C475 1.450 . S
C473 C468 1.367 . S
C473 C472 1.364 . S
C473 H533 0.931 . S
C474 C470 1.535 . S
C474 H534 0.959 . S
C474 H535 0.961 . S
C474 H536 0.959 . S
C475 C472 1.450 . S
C475 H537 0.960 . S
C475 H538 0.960 . S
C475 H539 0.960 1_556 S
C476 C477 1.309 . S
C476 C481 1.304 . S
C476 O514 1.435 . S
C477 C476 1.309 . S
C477 C478 1.476 . S
C477 H541 0.930 . S
C478 C477 1.476 . S
C478 C479 1.400 . S
C478 C482 1.567 . S
C479 C478 1.400 . S
C479 C480 1.373 . S
C479 C501 1.432 . S
C480 C479 1.373 . S
C480 C481 1.339 . S
C480 C483 1.530 . S
C481 C476 1.304 . S
C481 C480 1.339 . S
C481 H542 0.930 . S
C482 C478 1.567 . S
C482 H543 0.961 . S
C482 H544 0.960 . S
C482 H545 0.958 . S
C483 C480 1.530 . S
C483 H546 0.961 . S
C483 H547 0.960 . S
C483 H548 0.960 . S
C484 C485 1.530 . S
C484 H550 0.961 . S
C484 H551 0.961 . S
C484 H552 0.959 . S
C485 C484 1.530 . S
C485 O513 1.412 . S
C485 H549 0.980 . S
C486 C487 1.288 . S
C486 C491 1.377 . S
C486 O513 1.393 . S
C487 C486 1.288 . S
C487 C488 1.369 . S
C487 H553 0.932 . S
C488 C487 1.369 . S
C488 C489 1.398 . S
C488 C492 1.527 . S
C489 C488 1.398 . S
C489 C490 1.380 . S
C489 C503 1.497 . S
C490 C489 1.380 . S
C490 C491 1.383 . S
C490 C493 1.603 . S
C491 C486 1.377 . S
C491 C490 1.383 . S
C491 H554 0.929 . S
C492 C488 1.527 . S
C492 H555 0.961 . S
C492 H556 0.959 . S
C492 H557 0.959 . S
C493 C490 1.603 . S
C493 H558 0.960 . S
C493 H559 0.962 . S
C493 H560 0.961 . S
C494 C461 1.587 . S
C494 C495 1.360 . S
C494 C507 1.412 1_556 S
C495 C494 1.360 . S
C495 C496 1.365 . S
C495 H561 0.929 . S
C496 C471 1.553 . S
C496 C495 1.365 . S
C496 C497 1.404 1_556 S
C497 C496 1.404 1_554 S
C497 C498 1.395 . S
C497 C508 1.451 . S
C498 C497 1.395 . S
C498 C499 1.322 . S
C498 H562 0.930 . S
C499 C498 1.322 . S
C499 C500 1.459 . S
C499 H563 0.929 . S
C500 C499 1.459 . S
C500 C501 1.445 . S
C500 C509 1.395 . S
C501 C479 1.432 . S
C501 C500 1.445 . S
C501 C502 1.370 . S
C502 C501 1.370 . S
C502 C503 1.438 . S
C502 H564 0.930 . S
C503 C489 1.497 . S
C503 C502 1.438 . S
C503 C504 1.360 . S
C504 C503 1.360 . S
C504 C505 1.401 . S
C504 C509 1.446 . S
C505 C504 1.401 . S
C505 C506 1.347 . S
C505 H565 0.929 . S
C506 C505 1.347 . S
C506 C507 1.455 . S
C506 H566 0.930 . S
C507 C494 1.412 1_554 S
C507 C506 1.455 . S
C507 C508 1.331 . S
C508 C497 1.451 . S
C508 C507 1.331 . S
C508 C509 1.497 . S
C509 C500 1.395 . S
C509 C504 1.446 . S
C509 C508 1.497 . S
C510 C511 1.582 . S
C510 H567 0.962 . S
C510 H568 0.959 . S
C510 H569 0.958 . S
C511 C510 1.582 . S
C511 O514 1.458 . S
C511 H540 0.980 . S
O512 C457 1.426 . S
O512 C458 1.334 . S
O513 C485 1.412 . S
O513 C486 1.393 . S
O514 C476 1.435 . S
O514 C511 1.458 . S
O515 C467 1.468 . S
O515 C468 1.408 . S
H516 C457 0.980 . S
H517 C456 0.959 . S
H518 C456 0.959 . S
H519 C456 0.960 . S
H520 C459 0.929 . S
H521 C463 0.929 . S
H522 C464 0.959 . S
H523 C464 0.961 . S
H524 C464 0.961 . S
H525 C465 0.960 . S
H526 C465 0.960 . S
H527 C465 0.961 1_554 S
H528 C467 0.980 . S
H529 C466 0.961 . S
H530 C466 0.960 . S
H531 C466 0.959 . S
H532 C469 0.930 . S
H533 C473 0.931 . S
H534 C474 0.959 . S
H535 C474 0.961 . S
H536 C474 0.959 . S
H537 C475 0.960 . S
H538 C475 0.960 . S
H539 C475 0.960 1_554 S
H540 C511 0.980 . S
H541 C477 0.930 . S
H542 C481 0.930 . S
H543 C482 0.961 . S
H544 C482 0.960 . S
H545 C482 0.958 . S
H546 C483 0.961 . S
H547 C483 0.960 . S
H548 C483 0.960 . S
H549 C485 0.980 . S
H550 C484 0.961 . S
H551 C484 0.961 . S
H552 C484 0.959 . S
H553 C487 0.932 . S
H554 C491 0.929 . S
H555 C492 0.961 . S
H556 C492 0.959 . S
H557 C492 0.959 . S
H558 C493 0.960 . S
H559 C493 0.962 . S
H560 C493 0.961 . S
H561 C495 0.929 . S
H562 C498 0.930 . S
H563 C499 0.929 . S
H564 C502 0.930 . S
H565 C505 0.929 . S
H566 C506 0.930 . S
H567 C510 0.962 . S
H568 C510 0.959 . S
H569 C510 0.958 . S
C570 C571 1.560 . S
C570 H631 0.959 . S
C570 H632 0.959 . S
C570 H633 0.960 . S
C571 C570 1.560 . S
C571 O626 1.426 . S
C571 H630 0.980 . S
C572 C573 1.407 . S
C572 C577 1.418 . S
C572 O626 1.334 . S
C573 C572 1.407 . S
C573 C574 1.360 . S
C573 H634 0.929 . S
C574 C573 1.360 . S
C574 C575 1.401 . S
C574 C578 1.527 . S
C575 C574 1.401 . S
C575 C576 1.405 . S
C575 C608 1.587 . S
C576 C575 1.405 . S
C576 C577 1.332 . S
C576 C579 1.496 . S
C577 C572 1.418 . S
C577 C576 1.332 . S
C577 H635 0.929 . S
C578 C574 1.527 . S
C578 H636 0.959 . S
C578 H637 0.961 . S
C578 H638 0.961 . S
C579 C576 1.496 . S
C579 H639 0.960 . S
C579 H640 0.960 . S
C579 H641 0.961 . S
C580 C581 1.517 . S
C580 H643 0.961 . S
C580 H644 0.960 . S
C580 H645 0.959 . S
C581 C580 1.517 . S
C581 O629 1.468 . S
C581 H642 0.980 . S
C582 C583 1.349 . S
C582 C587 1.367 . S
C582 O629 1.408 . S
C583 C582 1.349 . S
C583 C584 1.407 . S
C583 H646 0.930 . S
C584 C583 1.407 . S
C584 C585 1.449 . S
C584 C588 1.535 . S
C585 C584 1.449 . S
C585 C586 1.384 . S
C585 C610 1.553 . S
C586 C585 1.384 . S
C586 C587 1.364 . S
C586 C589 1.450 . S
C587 C582 1.367 . S
C587 C586 1.364 . S
C587 H647 0.931 . S
C588 C584 1.535 . S
C588 H648 0.959 . S
C588 H649 0.961 . S
C588 H650 0.959 . S
C589 C586 1.450 . S
C589 H651 0.960 . S
C589 H652 0.960 . S
C589 H653 0.960 . S
C590 C591 1.309 . S
C590 C595 1.304 . S
C590 O628 1.435 . S
C591 C590 1.309 . S
C591 C592 1.476 1_556 S
C591 H655 0.930 . S
C592 C591 1.476 1_554 S
C592 C593 1.400 . S
C592 C596 1.567 . S
C593 C592 1.400 . S
C593 C594 1.373 . S
C593 C615 1.432 . S
C594 C593 1.373 . S
C594 C595 1.339 1_554 S
C594 C597 1.530 . S
C595 C590 1.304 . S
C595 C594 1.339 1_556 S
C595 H656 0.930 . S
C596 C592 1.567 . S
C596 H657 0.961 . S
C596 H658 0.960 . S
C596 H659 0.958 . S
C597 C594 1.530 . S
C597 H660 0.961 . S
C597 H661 0.960 . S
C597 H662 0.960 . S
C598 C599 1.530 . S
C598 H664 0.961 . S
C598 H665 0.961 . S
C598 H666 0.959 . S
C599 C598 1.530 . S
C599 O627 1.412 . S
C599 H663 0.980 . S
C600 C601 1.288 . S
C600 C605 1.377 . S
C600 O627 1.393 . S
C601 C600 1.288 . S
C601 C602 1.369 1_556 S
C601 H667 0.932 . S
C602 C601 1.369 1_554 S
C602 C603 1.398 . S
C602 C606 1.527 . S
C603 C602 1.398 . S
C603 C604 1.380 . S
C603 C617 1.497 . S
C604 C603 1.380 . S
C604 C605 1.383 1_554 S
C604 C607 1.603 . S
C605 C600 1.377 . S
C605 C604 1.383 1_556 S
C605 H668 0.929 . S
C606 C602 1.527 . S
C606 H669 0.961 . S
C606 H670 0.959 . S
C606 H671 0.959 . S
C607 C604 1.603 . S
C607 H672 0.960 . S
C607 H673 0.962 . S
C607 H674 0.961 . S
C608 C575 1.587 . S
C608 C609 1.360 . S
C608 C621 1.412 . S
C609 C608 1.360 . S
C609 C610 1.365 . S
C609 H675 0.929 . S
C610 C585 1.553 . S
C610 C609 1.365 . S
C610 C611 1.404 . S
C611 C610 1.404 . S
C611 C612 1.395 . S
C611 C622 1.451 . S
C612 C611 1.395 . S
C612 C613 1.322 . S
C612 H676 0.930 . S
C613 C612 1.322 . S
C613 C614 1.459 . S
C613 H677 0.929 . S
C614 C613 1.459 . S
C614 C615 1.445 . S
C614 C623 1.395 . S
C615 C593 1.432 . S
C615 C614 1.445 . S
C615 C616 1.370 . S
C616 C615 1.370 . S
C616 C617 1.438 . S
C616 H678 0.930 1_554 S
C617 C603 1.497 . S
C617 C616 1.438 . S
C617 C618 1.360 . S
C618 C617 1.360 . S
C618 C619 1.401 . S
C618 C623 1.446 . S
C619 C618 1.401 . S
C619 C620 1.347 . S
C619 H679 0.929 . S
C620 C619 1.347 . S
C620 C621 1.455 . S
C620 H680 0.930 . S
C621 C608 1.412 . S
C621 C620 1.455 . S
C621 C622 1.331 . S
C622 C611 1.451 . S
C622 C621 1.331 . S
C622 C623 1.497 . S
C623 C614 1.395 . S
C623 C618 1.446 . S
C623 C622 1.497 . S
C624 C625 1.582 . S
C624 H681 0.962 . S
C624 H682 0.959 . S
C624 H683 0.958 . S
C625 C624 1.582 . S
C625 O628 1.458 . S
C625 H654 0.980 . S
O626 C571 1.426 . S
O626 C572 1.334 . S
O627 C599 1.412 . S
O627 C600 1.393 . S
O628 C590 1.435 . S
O628 C625 1.458 . S
O629 C581 1.468 . S
O629 C582 1.408 . S
H630 C571 0.980 . S
H631 C570 0.959 . S
H632 C570 0.959 . S
H633 C570 0.960 . S
H634 C573 0.929 . S
H635 C577 0.929 . S
H636 C578 0.959 . S
H637 C578 0.961 . S
H638 C578 0.961 . S
H639 C579 0.960 . S
H640 C579 0.960 . S
H641 C579 0.961 . S
H642 C581 0.980 . S
H643 C580 0.961 . S
H644 C580 0.960 . S
H645 C580 0.959 . S
H646 C583 0.930 . S
H647 C587 0.931 . S
H648 C588 0.959 . S
H649 C588 0.961 . S
H650 C588 0.959 . S
H651 C589 0.960 . S
H652 C589 0.960 . S
H653 C589 0.960 . S
H654 C625 0.980 . S
H655 C591 0.930 . S
H656 C595 0.930 . S
H657 C596 0.961 . S
H658 C596 0.960 . S
H659 C596 0.958 . S
H660 C597 0.961 . S
H661 C597 0.960 . S
H662 C597 0.960 . S
H663 C599 0.980 . S
H664 C598 0.961 . S
H665 C598 0.961 . S
H666 C598 0.959 . S
H667 C601 0.932 . S
H668 C605 0.929 . S
H669 C606 0.961 . S
H670 C606 0.959 . S
H671 C606 0.959 . S
H672 C607 0.960 . S
H673 C607 0.962 . S
H674 C607 0.961 . S
H675 C609 0.929 . S
H676 C612 0.930 . S
H677 C613 0.929 . S
H678 C616 0.930 1_556 S
H679 C619 0.929 . S
H680 C620 0.930 . S
H681 C624 0.962 . S
H682 C624 0.959 . S
H683 C624 0.958 . S
C684 O711 1.312 . S
C684 O712 1.208 . S
C685 O706 1.331 . S
C685 O709 1.244 . S
C686 O708 1.264 . S
C686 O710 1.273 . S
Mg687 O689 1.936 1_455 S
Mg687 O696 2.081 1_455 S
Mg687 O698 2.023 . S
Mg687 O702 2.031 1_455 S
Mg687 O711 2.291 . S
Mg688 O689 1.963 . S
Mg688 O699 1.942 . S
Mg688 O700 1.955 1_655 S
Mg688 O707 1.986 . S
O689 Mg687 1.936 1_655 S
O689 Mg688 1.963 . S
O689 Mg690 1.915 1_655 S
Mg690 O689 1.915 1_455 S
Mg690 O691 1.915 . S
Mg690 O695 2.013 . S
Mg690 O701 2.114 1_455 S
Mg690 O705 2.013 1_455 S
Mg690 O711 2.114 . S
O691 Mg690 1.915 . S
O691 Mg692 1.936 . S
O691 Mg693 1.963 . S
Mg692 O691 1.936 . S
Mg692 O701 2.291 1_455 S
Mg692 O706 2.081 . S
Mg692 O708 2.023 1_455 S
Mg692 O712 2.031 . S
Mg693 O691 1.963 . S
Mg693 O697 1.986 . S
Mg693 O709 1.942 . S
Mg693 O710 1.955 1_455 S
C694 O705 1.191 . S
C694 O707 1.307 . S
O695 Mg690 2.013 . S
O695 C714 1.191 . S
O696 Mg687 2.081 1_655 S
O696 C704 1.331 . S
O697 Mg693 1.986 . S
O697 C714 1.307 . S
O698 Mg687 2.023 . S
O698 C713 1.264 . S
O699 Mg688 1.942 . S
O699 C704 1.244 . S
O700 Mg688 1.955 1_455 S
O700 C713 1.273 . S
O701 Mg690 2.114 1_655 S
O701 Mg692 2.291 1_655 S
O701 C703 1.312 . S
O702 Mg687 2.031 1_655 S
O702 C703 1.208 . S
C703 O701 1.312 . S
C703 O702 1.208 . S
C704 O696 1.331 . S
C704 O699 1.244 . S
O705 Mg690 2.013 1_655 S
O705 C694 1.191 . S
O706 C685 1.331 . S
O706 Mg692 2.081 . S
O707 Mg688 1.986 . S
O707 C694 1.307 . S
O708 C686 1.264 . S
O708 Mg692 2.023 1_655 S
O709 C685 1.244 . S
O709 Mg693 1.942 . S
O710 C686 1.273 . S
O710 Mg693 1.955 1_655 S
O711 C684 1.312 . S
O711 Mg687 2.291 . S
O711 Mg690 2.114 . S
O712 C684 1.208 . S
O712 Mg692 2.031 . S
C713 O698 1.264 . S
C713 O700 1.273 . S
C714 O695 1.191 . S
C714 O697 1.307 . S
C715 O742 1.312 . S
C715 O743 1.208 . S
C716 O737 1.331 . S
C716 O740 1.244 . S
C717 O739 1.264 . S
C717 O741 1.273 . S
Mg718 O720 1.936 . S
Mg718 O727 2.081 1_545 S
Mg718 O729 2.023 . S
Mg718 O733 2.031 1_545 S
Mg718 O742 2.291 . S
Mg719 O720 1.963 . S
Mg719 O730 1.942 1_545 S
Mg719 O731 1.955 . S
Mg719 O738 1.986 1_545 S
O720 Mg718 1.936 . S
O720 Mg719 1.963 . S
O720 Mg721 1.915 . S
Mg721 O720 1.915 . S
Mg721 O722 1.915 . S
Mg721 O726 2.013 . S
Mg721 O732 2.114 1_545 S
Mg721 O736 2.013 1_545 S
Mg721 O742 2.114 . S
O722 Mg721 1.915 . S
O722 Mg723 1.936 . S
O722 Mg724 1.963 . S
Mg723 O722 1.936 . S
Mg723 O732 2.291 1_545 S
Mg723 O737 2.081 . S
Mg723 O739 2.023 1_545 S
Mg723 O743 2.031 . S
Mg724 O722 1.963 . S
Mg724 O728 1.986 . S
Mg724 O740 1.942 . S
Mg724 O741 1.955 1_545 S
C725 O736 1.191 . S
C725 O738 1.307 . S
O726 Mg721 2.013 . S
O726 C745 1.191 . S
O727 Mg718 2.081 1_565 S
O727 C735 1.331 . S
O728 Mg724 1.986 . S
O728 C745 1.307 . S
O729 Mg718 2.023 . S
O729 C744 1.264 . S
O730 Mg719 1.942 1_565 S
O730 C735 1.244 . S
O731 Mg719 1.955 . S
O731 C744 1.273 . S
O732 Mg721 2.114 1_565 S
O732 Mg723 2.291 1_565 S
O732 C734 1.312 . S
O733 Mg718 2.031 1_565 S
O733 C734 1.208 . S
C734 O732 1.312 . S
C734 O733 1.208 . S
C735 O727 1.331 . S
C735 O730 1.244 . S
O736 Mg721 2.013 1_565 S
O736 C725 1.191 . S
O737 C716 1.331 . S
O737 Mg723 2.081 . S
O738 Mg719 1.986 1_565 S
O738 C725 1.307 . S
O739 C717 1.264 . S
O739 Mg723 2.023 1_565 S
O740 C716 1.244 . S
O740 Mg724 1.942 . S
O741 C717 1.273 . S
O741 Mg724 1.955 1_565 S
O742 C715 1.312 . S
O742 Mg718 2.291 . S
O742 Mg721 2.114 . S
O743 C715 1.208 . S
O743 Mg723 2.031 . S
C744 O729 1.264 . S
C744 O731 1.273 . S
C745 O726 1.191 . S
C745 O728 1.307 . S
C746 O773 1.312 . S
C746 O774 1.208 . S
C747 O768 1.331 . S
C747 O771 1.244 . S
C748 O770 1.264 . S
C748 O772 1.273 . S
Mg749 O751 1.936 . S
Mg749 O758 2.081 . S
Mg749 O760 2.023 . S
Mg749 O764 2.031 . S
Mg749 O773 2.291 . S
Mg750 O751 1.963 . S
Mg750 O761 1.942 . S
Mg750 O762 1.955 . S
Mg750 O769 1.986 . S
O751 Mg749 1.936 . S
O751 Mg750 1.963 . S
O751 Mg752 1.915 . S
Mg752 O751 1.915 . S
Mg752 O753 1.915 . S
Mg752 O757 2.013 . S
Mg752 O763 2.114 . S
Mg752 O767 2.013 . S
Mg752 O773 2.114 . S
O753 Mg752 1.915 . S
O753 Mg754 1.936 . S
O753 Mg755 1.963 . S
Mg754 O753 1.936 . S
Mg754 O763 2.291 . S
Mg754 O768 2.081 . S
Mg754 O770 2.023 . S
Mg754 O774 2.031 . S
Mg755 O753 1.963 . S
Mg755 O759 1.986 . S
Mg755 O771 1.942 . S
Mg755 O772 1.955 . S
C756 O767 1.191 . S
C756 O769 1.307 . S
O757 Mg752 2.013 . S
O757 C776 1.191 . S
O758 Mg749 2.081 . S
O758 C766 1.331 . S
O759 Mg755 1.986 . S
O759 C776 1.307 . S
O760 Mg749 2.023 . S
O760 C775 1.264 . S
O761 Mg750 1.942 . S
O761 C766 1.244 . S
O762 Mg750 1.955 . S
O762 C775 1.273 . S
O763 Mg752 2.114 . S
O763 Mg754 2.291 . S
O763 C765 1.312 . S
O764 Mg749 2.031 . S
O764 C765 1.208 . S
C765 O763 1.312 . S
C765 O764 1.208 . S
C766 O758 1.331 . S
C766 O761 1.244 . S
O767 Mg752 2.013 . S
O767 C756 1.191 . S
O768 C747 1.331 . S
O768 Mg754 2.081 . S
O769 Mg750 1.986 . S
O769 C756 1.307 . S
O770 C748 1.264 . S
O770 Mg754 2.023 . S
O771 C747 1.244 . S
O771 Mg755 1.942 . S
O772 C748 1.273 . S
O772 Mg755 1.955 . S
O773 C746 1.312 . S
O773 Mg749 2.291 . S
O773 Mg752 2.114 . S
O774 C746 1.208 . S
O774 Mg754 2.031 . S
C775 O760 1.264 . S
C775 O762 1.273 . S
C776 O757 1.191 . S
C776 O759 1.307 . S
H777 C783 0.930 . S
H778 C786 0.930 . S
H779 C787 0.930 . S
H780 C788 0.930 . S
H781 C791 0.930 . S
H782 C792 0.930 . S
C783 H777 0.930 . S
C783 C784 1.355 . S
C783 C785 1.415 . S
C784 C783 1.355 . S
C784 C786 1.419 . S
C785 C783 1.415 . S
C785 C790 1.425 . S
C785 C792 1.409 . S
C786 H778 0.930 . S
C786 C784 1.419 . S
C786 C787 1.362 . S
C787 H779 0.930 . S
C787 C786 1.362 . S
C787 C790 1.409 . S
C788 H780 0.930 . S
C788 C789 1.355 . S
C788 C790 1.415 . S
C789 C788 1.355 . S
C789 C791 1.419 . S
C790 C785 1.425 . S
C790 C787 1.409 . S
C790 C788 1.415 . S
C791 H781 0.930 . S
C791 C789 1.419 . S
C791 C792 1.362 . S
C792 H782 0.930 . S
C792 C785 1.409 . S
C792 C791 1.362 . S
H793 C799 0.930 . S
H794 C802 0.930 . S
H795 C803 0.930 . S
H796 C804 0.930 . S
H797 C807 0.930 . S
H798 C808 0.930 . S
C799 H793 0.930 . S
C799 C800 1.355 . S
C799 C801 1.415 . S
C800 C799 1.355 . S
C800 C802 1.419 . S
C801 C799 1.415 . S
C801 C806 1.425 . S
C801 C808 1.409 . S
C802 H794 0.930 . S
C802 C800 1.419 . S
C802 C803 1.362 . S
C803 H795 0.930 . S
C803 C802 1.362 . S
C803 C806 1.409 . S
C804 H796 0.930 . S
C804 C805 1.355 . S
C804 C806 1.415 . S
C805 C804 1.355 . S
C805 C807 1.419 . S
C806 C801 1.425 . S
C806 C803 1.409 . S
C806 C804 1.415 . S
C807 H797 0.930 . S
C807 C805 1.419 . S
C807 C808 1.362 . S
C808 H798 0.930 . S
C808 C801 1.409 . S
C808 C807 1.362 . S
H809 C815 0.930 . S
H810 C818 0.930 . S
H811 C819 0.930 . S
H812 C820 0.930 . S
H813 C823 0.930 . S
H814 C824 0.930 . S
C815 H809 0.930 . S
C815 C816 1.355 . S
C815 C817 1.415 . S
C816 C815 1.355 . S
C816 C818 1.419 . S
C817 C815 1.415 . S
C817 C822 1.425 . S
C817 C824 1.409 . S
C818 H810 0.930 . S
C818 C816 1.419 . S
C818 C819 1.362 . S
C819 H811 0.930 . S
C819 C818 1.362 . S
C819 C822 1.409 . S
C820 H812 0.930 . S
C820 C821 1.355 . S
C820 C822 1.415 . S
C821 C820 1.355 . S
C821 C823 1.419 . S
C822 C817 1.425 . S
C822 C819 1.409 . S
C822 C820 1.415 . S
C823 H813 0.930 . S
C823 C821 1.419 . S
C823 C824 1.362 . S
C824 H814 0.930 . S
C824 C817 1.409 . S
C824 C823 1.362 . S
H825 C831 0.930 . S
H826 C834 0.930 . S
H827 C835 0.930 . S
H828 C836 0.930 . S
H829 C839 0.930 . S
H830 C840 0.930 . S
C831 H825 0.930 . S
C831 C832 1.355 . S
C831 C833 1.415 . S
C832 C831 1.355 . S
C832 C834 1.419 . S
C833 C831 1.415 . S
C833 C838 1.425 . S
C833 C840 1.409 . S
C834 H826 0.930 . S
C834 C832 1.419 . S
C834 C835 1.362 . S
C835 H827 0.930 . S
C835 C834 1.362 . S
C835 C838 1.409 . S
C836 H828 0.930 . S
C836 C837 1.355 . S
C836 C838 1.415 . S
C837 C836 1.355 . S
C837 C839 1.419 . S
C838 C833 1.425 . S
C838 C835 1.409 . S
C838 C836 1.415 . S
C839 H829 0.930 . S
C839 C837 1.419 . S
C839 C840 1.362 . S
C840 H830 0.930 . S
C840 C833 1.409 . S
C840 C839 1.362 . S
H841 C847 0.930 . S
H842 C850 0.930 . S
H843 C851 0.930 . S
H844 C852 0.930 . S
H845 C855 0.930 . S
H846 C856 0.930 . S
C847 H841 0.930 . S
C847 C848 1.355 . S
C847 C849 1.415 . S
C848 C847 1.355 . S
C848 C850 1.419 . S
C849 C847 1.415 . S
C849 C854 1.425 . S
C849 C856 1.409 . S
C850 H842 0.930 . S
C850 C848 1.419 . S
C850 C851 1.362 . S
C851 H843 0.930 . S
C851 C850 1.362 . S
C851 C854 1.409 . S
C852 H844 0.930 . S
C852 C853 1.355 . S
C852 C854 1.415 . S
C853 C852 1.355 . S
C853 C855 1.419 . S
C854 C849 1.425 . S
C854 C851 1.409 . S
C854 C852 1.415 . S
C855 H845 0.930 . S
C855 C853 1.419 . S
C855 C856 1.362 . S
C856 H846 0.930 . S
C856 C849 1.409 . S
C856 C855 1.362 . S
H857 C863 0.930 . S
H858 C866 0.930 . S
H859 C867 0.930 . S
H860 C868 0.930 . S
H861 C871 0.930 . S
H862 C872 0.930 . S
C863 H857 0.930 . S
C863 C864 1.355 . S
C863 C865 1.415 . S
C864 C863 1.355 . S
C864 C866 1.419 . S
C865 C863 1.415 . S
C865 C870 1.425 . S
C865 C872 1.409 . S
C866 H858 0.930 . S
C866 C864 1.419 . S
C866 C867 1.362 . S
C867 H859 0.930 . S
C867 C866 1.362 . S
C867 C870 1.409 . S
C868 H860 0.930 . S
C868 C869 1.355 . S
C868 C870 1.415 . S
C869 C868 1.355 . S
C869 C871 1.419 . S
C870 C865 1.425 . S
C870 C867 1.409 . S
C870 C868 1.415 . S
C871 H861 0.930 . S
C871 C869 1.419 . S
C871 C872 1.362 . S
C872 H862 0.930 . S
C872 C865 1.409 . S
C872 C871 1.362 . S
H873 C879 0.930 . S
H874 C882 0.930 . S
H875 C883 0.930 . S
H876 C884 0.930 . S
H877 C887 0.930 . S
H878 C888 0.930 . S
C879 H873 0.930 . S
C879 C880 1.355 . S
C879 C881 1.415 . S
C880 C879 1.355 . S
C880 C882 1.419 . S
C881 C879 1.415 . S
C881 C886 1.425 . S
C881 C888 1.409 . S
C882 H874 0.930 . S
C882 C880 1.419 . S
C882 C883 1.362 . S
C883 H875 0.930 . S
C883 C882 1.362 . S
C883 C886 1.409 . S
C884 H876 0.930 . S
C884 C885 1.355 . S
C884 C886 1.415 . S
C885 C884 1.355 . S
C885 C887 1.419 . S
C886 C881 1.425 . S
C886 C883 1.409 . S
C886 C884 1.415 . S
C887 H877 0.930 . S
C887 C885 1.419 . S
C887 C888 1.362 . S
C888 H878 0.930 . S
C888 C881 1.409 . S
C888 C887 1.362 . S
H889 C895 0.930 . S
H890 C898 0.930 . S
H891 C899 0.930 . S
H892 C900 0.930 . S
H893 C903 0.930 . S
H894 C904 0.930 . S
C895 H889 0.930 . S
C895 C896 1.355 . S
C895 C897 1.415 . S
C896 C895 1.355 . S
C896 C898 1.419 . S
C897 C895 1.415 . S
C897 C902 1.425 . S
C897 C904 1.409 . S
C898 H890 0.930 . S
C898 C896 1.419 . S
C898 C899 1.362 . S
C899 H891 0.930 . S
C899 C898 1.362 . S
C899 C902 1.409 . S
C900 H892 0.930 . S
C900 C901 1.355 . S
C900 C902 1.415 . S
C901 C900 1.355 . S
C901 C903 1.419 . S
C902 C897 1.425 . S
C902 C899 1.409 . S
C902 C900 1.415 . S
C903 H893 0.930 . S
C903 C901 1.419 . S
C903 C904 1.362 . S
C904 H894 0.930 . S
C904 C897 1.409 . S
C904 C903 1.362 . S
H905 C911 0.930 . S
H906 C914 0.930 . S
H907 C915 0.930 . S
H908 C916 0.930 . S
H909 C919 0.930 . S
H910 C920 0.930 . S
C911 H905 0.930 . S
C911 C912 1.355 . S
C911 C913 1.415 . S
C912 C911 1.355 . S
C912 C914 1.419 . S
C913 C911 1.415 . S
C913 C918 1.425 . S
C913 C920 1.409 . S
C914 H906 0.930 . S
C914 C912 1.419 . S
C914 C915 1.362 . S
C915 H907 0.930 . S
C915 C914 1.362 . S
C915 C918 1.409 . S
C916 H908 0.930 . S
C916 C917 1.355 . S
C916 C918 1.415 . S
C917 C916 1.355 . S
C917 C919 1.419 . S
C918 C913 1.425 . S
C918 C915 1.409 . S
C918 C916 1.415 . S
C919 H909 0.930 . S
C919 C917 1.419 . S
C919 C920 1.362 . S
C920 H910 0.930 . S
C920 C913 1.409 . S
C920 C919 1.362 . S
H921 C927 0.930 . S
H922 C930 0.930 . S
H923 C931 0.930 . S
H924 C932 0.930 . S
H925 C935 0.930 . S
H926 C936 0.930 . S
C927 H921 0.930 . S
C927 C928 1.355 . S
C927 C929 1.415 . S
C928 C927 1.355 . S
C928 C930 1.419 . S
C929 C927 1.415 . S
C929 C934 1.425 . S
C929 C936 1.409 . S
C930 H922 0.930 . S
C930 C928 1.419 . S
C930 C931 1.362 . S
C931 H923 0.930 . S
C931 C930 1.362 . S
C931 C934 1.409 . S
C932 H924 0.930 . S
C932 C933 1.355 . S
C932 C934 1.415 . S
C933 C932 1.355 . S
C933 C935 1.419 . S
C934 C929 1.425 . S
C934 C931 1.409 . S
C934 C932 1.415 . S
C935 H925 0.930 . S
C935 C933 1.419 . S
C935 C936 1.362 . S
C936 H926 0.930 . S
C936 C929 1.409 . S
C936 C935 1.362 . S
H937 C943 0.930 . S
H938 C946 0.930 . S
H939 C947 0.930 . S
H940 C948 0.930 . S
H941 C951 0.930 . S
H942 C952 0.930 . S
C943 H937 0.930 . S
C943 C944 1.355 . S
C943 C945 1.415 . S
C944 C943 1.355 . S
C944 C946 1.419 . S
C945 C943 1.415 . S
C945 C950 1.425 . S
C945 C952 1.409 . S
C946 H938 0.930 . S
C946 C944 1.419 . S
C946 C947 1.362 . S
C947 H939 0.930 . S
C947 C946 1.362 . S
C947 C950 1.409 . S
C948 H940 0.930 . S
C948 C949 1.355 . S
C948 C950 1.415 . S
C949 C948 1.355 . S
C949 C951 1.419 . S
C950 C945 1.425 . S
C950 C947 1.409 . S
C950 C948 1.415 . S
C951 H941 0.930 . S
C951 C949 1.419 . S
C951 C952 1.362 . S
C952 H942 0.930 . S
C952 C945 1.409 . S
C952 C951 1.362 . S
H953 C959 0.930 . S
H954 C962 0.930 . S
H955 C963 0.930 . S
H956 C964 0.930 . S
H957 C967 0.930 . S
H958 C968 0.930 . S
C959 H953 0.930 . S
C959 C960 1.355 . S
C959 C961 1.415 . S
C960 C959 1.355 . S
C960 C962 1.419 . S
C961 C959 1.415 . S
C961 C966 1.425 . S
C961 C968 1.409 . S
C962 H954 0.930 . S
C962 C960 1.419 . S
C962 C963 1.362 . S
C963 H955 0.930 . S
C963 C962 1.362 . S
C963 C966 1.409 . S
C964 H956 0.930 . S
C964 C965 1.355 . S
C964 C966 1.415 . S
C965 C964 1.355 . S
C965 C967 1.419 . S
C966 C961 1.425 . S
C966 C963 1.409 . S
C966 C964 1.415 . S
C967 H957 0.930 . S
C967 C965 1.419 . S
C967 C968 1.362 . S
C968 H958 0.930 . S
C968 C961 1.409 . S
C968 C967 1.362 . S
H969 C975 0.930 . S
H970 C978 0.930 . S
H971 C979 0.930 . S
H972 C980 0.930 . S
H973 C983 0.930 . S
H974 C984 0.930 . S
C975 H969 0.930 . S
C975 C976 1.355 . S
C975 C977 1.415 . S
C976 C975 1.355 . S
C976 C978 1.419 . S
C977 C975 1.415 . S
C977 C982 1.425 . S
C977 C984 1.409 . S
C978 H970 0.930 . S
C978 C976 1.419 . S
C978 C979 1.362 . S
C979 H971 0.930 . S
C979 C978 1.362 . S
C979 C982 1.409 . S
C980 H972 0.930 . S
C980 C981 1.355 . S
C980 C982 1.415 . S
C981 C980 1.355 . S
C981 C983 1.419 . S
C982 C977 1.425 . S
C982 C979 1.409 . S
C982 C980 1.415 . S
C983 H973 0.930 . S
C983 C981 1.419 . S
C983 C984 1.362 . S
C984 H974 0.930 . S
C984 C977 1.409 . S
C984 C983 1.362 . S
H985 C991 0.930 . S
H986 C994 0.930 . S
H987 C995 0.930 . S
H988 C996 0.930 . S
H989 C999 0.930 . S
H990 C1000 0.930 . S
C991 H985 0.930 . S
C991 C992 1.355 . S
C991 C993 1.415 . S
C992 C991 1.355 . S
C992 C994 1.419 . S
C993 C991 1.415 . S
C993 C998 1.425 . S
C993 C1000 1.409 . S
C994 H986 0.930 . S
C994 C992 1.419 . S
C994 C995 1.362 . S
C995 H987 0.930 . S
C995 C994 1.362 . S
C995 C998 1.409 . S
C996 H988 0.930 . S
C996 C997 1.355 . S
C996 C998 1.415 . S
C997 C996 1.355 . S
C997 C999 1.419 . S
C998 C993 1.425 . S
C998 C995 1.409 . S
C998 C996 1.415 . S
C999 H989 0.930 . S
C999 C997 1.419 . S
C999 C1000 1.362 . S
C1000 H990 0.930 . S
C1000 C993 1.409 . S
C1000 C999 1.362 . S
H1001 C1007 0.930 . S
H1002 C1010 0.930 . S
H1003 C1011 0.930 . S
H1004 C1012 0.930 . S
H1005 C1015 0.930 . S
H1006 C1016 0.930 . S
C1007 H1001 0.930 . S
C1007 C1008 1.355 . S
C1007 C1009 1.415 . S
C1008 C1007 1.355 . S
C1008 C1010 1.419 . S
C1009 C1007 1.415 . S
C1009 C1014 1.425 . S
C1009 C1016 1.409 . S
C1010 H1002 0.930 . S
C1010 C1008 1.419 . S
C1010 C1011 1.362 . S
C1011 H1003 0.930 . S
C1011 C1010 1.362 . S
C1011 C1014 1.409 . S
C1012 H1004 0.930 . S
C1012 C1013 1.355 . S
C1012 C1014 1.415 . S
C1013 C1012 1.355 . S
C1013 C1015 1.419 . S
C1014 C1009 1.425 . S
C1014 C1011 1.409 . S
C1014 C1012 1.415 . S
C1015 H1005 0.930 . S
C1015 C1013 1.419 . S
C1015 C1016 1.362 . S
C1016 H1006 0.930 . S
C1016 C1009 1.409 . S
C1016 C1015 1.362 . S
H1017 C1023 0.930 . S
H1018 C1026 0.930 . S
H1019 C1027 0.930 . S
H1020 C1028 0.930 . S
H1021 C1031 0.930 . S
H1022 C1032 0.930 . S
C1023 H1017 0.930 . S
C1023 C1024 1.355 . S
C1023 C1025 1.415 . S
C1024 C1023 1.355 . S
C1024 C1026 1.419 . S
C1025 C1023 1.415 . S
C1025 C1030 1.425 . S
C1025 C1032 1.409 . S
C1026 H1018 0.930 . S
C1026 C1024 1.419 . S
C1026 C1027 1.362 . S
C1027 H1019 0.930 . S
C1027 C1026 1.362 . S
C1027 C1030 1.409 . S
C1028 H1020 0.930 . S
C1028 C1029 1.355 . S
C1028 C1030 1.415 . S
C1029 C1028 1.355 . S
C1029 C1031 1.419 . S
C1030 C1025 1.425 . S
C1030 C1027 1.409 . S
C1030 C1028 1.415 . S
C1031 H1021 0.930 . S
C1031 C1029 1.419 . S
C1031 C1032 1.362 . S
C1032 H1022 0.930 . S
C1032 C1025 1.409 . S
C1032 C1031 1.362 . S
H1033 C1039 0.930 . S
H1034 C1042 0.930 . S
H1035 C1043 0.930 . S
H1036 C1044 0.930 . S
H1037 C1047 0.930 . S
H1038 C1048 0.930 . S
C1039 H1033 0.930 . S
C1039 C1040 1.355 . S
C1039 C1041 1.415 . S
C1040 C1039 1.355 . S
C1040 C1042 1.419 . S
C1041 C1039 1.415 . S
C1041 C1046 1.425 . S
C1041 C1048 1.409 . S
C1042 H1034 0.930 . S
C1042 C1040 1.419 . S
C1042 C1043 1.362 . S
C1043 H1035 0.930 . S
C1043 C1042 1.362 . S
C1043 C1046 1.409 . S
C1044 H1036 0.930 . S
C1044 C1045 1.355 . S
C1044 C1046 1.415 . S
C1045 C1044 1.355 . S
C1045 C1047 1.419 . S
C1046 C1041 1.425 . S
C1046 C1043 1.409 . S
C1046 C1044 1.415 . S
C1047 H1037 0.930 . S
C1047 C1045 1.419 . S
C1047 C1048 1.362 . S
C1048 H1038 0.930 . S
C1048 C1041 1.409 . S
C1048 C1047 1.362 . S
H1049 C1055 0.930 . S
H1050 C1058 0.930 . S
H1051 C1059 0.930 . S
H1052 C1060 0.930 . S
H1053 C1063 0.930 . S
H1054 C1064 0.930 . S
C1055 H1049 0.930 . S
C1055 C1056 1.355 . S
C1055 C1057 1.415 . S
C1056 C1055 1.355 . S
C1056 C1058 1.419 . S
C1057 C1055 1.415 . S
C1057 C1062 1.425 . S
C1057 C1064 1.409 . S
C1058 H1050 0.930 . S
C1058 C1056 1.419 . S
C1058 C1059 1.362 . S
C1059 H1051 0.930 . S
C1059 C1058 1.362 . S
C1059 C1062 1.409 . S
C1060 H1052 0.930 . S
C1060 C1061 1.355 . S
C1060 C1062 1.415 . S
C1061 C1060 1.355 . S
C1061 C1063 1.419 . S
C1062 C1057 1.425 . S
C1062 C1059 1.409 . S
C1062 C1060 1.415 . S
C1063 H1053 0.930 . S
C1063 C1061 1.419 . S
C1063 C1064 1.362 . S
C1064 H1054 0.930 . S
C1064 C1057 1.409 . S
C1064 C1063 1.362 . S
H1065 C1071 0.930 . S
H1066 C1074 0.930 . S
H1067 C1075 0.930 . S
H1068 C1076 0.930 . S
H1069 C1079 0.930 . S
H1070 C1080 0.930 . S
C1071 H1065 0.930 . S
C1071 C1072 1.355 . S
C1071 C1073 1.415 . S
C1072 C1071 1.355 . S
C1072 C1074 1.419 . S
C1073 C1071 1.415 . S
C1073 C1078 1.425 . S
C1073 C1080 1.409 . S
C1074 H1066 0.930 . S
C1074 C1072 1.419 . S
C1074 C1075 1.362 . S
C1075 H1067 0.930 . S
C1075 C1074 1.362 . S
C1075 C1078 1.409 . S
C1076 H1068 0.930 . S
C1076 C1077 1.355 . S
C1076 C1078 1.415 . S
C1077 C1076 1.355 . S
C1077 C1079 1.419 . S
C1078 C1073 1.425 . S
C1078 C1075 1.409 . S
C1078 C1076 1.415 . S
C1079 H1069 0.930 . S
C1079 C1077 1.419 . S
C1079 C1080 1.362 . S
C1080 H1070 0.930 . S
C1080 C1073 1.409 . S
C1080 C1079 1.362 . S
H1081 C1087 0.930 . S
H1082 C1090 0.930 . S
H1083 C1091 0.930 . S
H1084 C1092 0.930 . S
H1085 C1095 0.930 . S
H1086 C1096 0.930 . S
C1087 H1081 0.930 . S
C1087 C1088 1.355 . S
C1087 C1089 1.415 . S
C1088 C1087 1.355 . S
C1088 C1090 1.419 . S
C1089 C1087 1.415 . S
C1089 C1094 1.425 . S
C1089 C1096 1.409 . S
C1090 H1082 0.930 . S
C1090 C1088 1.419 . S
C1090 C1091 1.362 . S
C1091 H1083 0.930 . S
C1091 C1090 1.362 . S
C1091 C1094 1.409 . S
C1092 H1084 0.930 . S
C1092 C1093 1.355 . S
C1092 C1094 1.415 . S
C1093 C1092 1.355 . S
C1093 C1095 1.419 . S
C1094 C1089 1.425 . S
C1094 C1091 1.409 . S
C1094 C1092 1.415 . S
C1095 H1085 0.930 . S
C1095 C1093 1.419 . S
C1095 C1096 1.362 . S
C1096 H1086 0.930 . S
C1096 C1089 1.409 . S
C1096 C1095 1.362 . S
H1097 C1103 0.930 . S
H1098 C1106 0.930 . S
H1099 C1107 0.930 . S
H1100 C1108 0.930 . S
H1101 C1111 0.930 . S
H1102 C1112 0.930 . S
C1103 H1097 0.930 . S
C1103 C1104 1.355 . S
C1103 C1105 1.415 . S
C1104 C1103 1.355 . S
C1104 C1106 1.419 . S
C1105 C1103 1.415 . S
C1105 C1110 1.425 . S
C1105 C1112 1.409 . S
C1106 H1098 0.930 . S
C1106 C1104 1.419 . S
C1106 C1107 1.362 . S
C1107 H1099 0.930 . S
C1107 C1106 1.362 . S
C1107 C1110 1.409 . S
C1108 H1100 0.930 . S
C1108 C1109 1.355 . S
C1108 C1110 1.415 . S
C1109 C1108 1.355 . S
C1109 C1111 1.419 . S
C1110 C1105 1.425 . S
C1110 C1107 1.409 . S
C1110 C1108 1.415 . S
C1111 H1101 0.930 . S
C1111 C1109 1.419 . S
C1111 C1112 1.362 . S
C1112 H1102 0.930 . S
C1112 C1105 1.409 . S
C1112 C1111 1.362 . S
H1113 C1119 0.930 . S
H1114 C1122 0.930 . S
H1115 C1123 0.930 . S
H1116 C1124 0.930 . S
H1117 C1127 0.930 . S
H1118 C1128 0.930 . S
C1119 H1113 0.930 . S
C1119 C1120 1.355 . S
C1119 C1121 1.415 . S
C1120 C1119 1.355 . S
C1120 C1122 1.419 . S
C1121 C1119 1.415 . S
C1121 C1126 1.425 . S
C1121 C1128 1.409 . S
C1122 H1114 0.930 . S
C1122 C1120 1.419 . S
C1122 C1123 1.362 . S
C1123 H1115 0.930 . S
C1123 C1122 1.362 . S
C1123 C1126 1.409 . S
C1124 H1116 0.930 . S
C1124 C1125 1.355 . S
C1124 C1126 1.415 . S
C1125 C1124 1.355 . S
C1125 C1127 1.419 . S
C1126 C1121 1.425 . S
C1126 C1123 1.409 . S
C1126 C1124 1.415 . S
C1127 H1117 0.930 . S
C1127 C1125 1.419 . S
C1127 C1128 1.362 . S
C1128 H1118 0.930 . S
C1128 C1121 1.409 . S
C1128 C1127 1.362 . S
H1129 C1135 0.930 . S
H1130 C1138 0.930 . S
H1131 C1139 0.930 . S
H1132 C1140 0.930 . S
H1133 C1143 0.930 . S
H1134 C1144 0.930 . S
C1135 H1129 0.930 . S
C1135 C1136 1.355 . S
C1135 C1137 1.415 . S
C1136 C1135 1.355 . S
C1136 C1138 1.419 . S
C1137 C1135 1.415 . S
C1137 C1142 1.425 . S
C1137 C1144 1.409 . S
C1138 H1130 0.930 . S
C1138 C1136 1.419 . S
C1138 C1139 1.362 . S
C1139 H1131 0.930 . S
C1139 C1138 1.362 . S
C1139 C1142 1.409 . S
C1140 H1132 0.930 . S
C1140 C1141 1.355 . S
C1140 C1142 1.415 . S
C1141 C1140 1.355 . S
C1141 C1143 1.419 . S
C1142 C1137 1.425 . S
C1142 C1139 1.409 . S
C1142 C1140 1.415 . S
C1143 H1133 0.930 . S
C1143 C1141 1.419 . S
C1143 C1144 1.362 . S
C1144 H1134 0.930 . S
C1144 C1137 1.409 . S
C1144 C1143 1.362 . S
H1145 C1151 0.930 . S
H1146 C1154 0.930 . S
H1147 C1155 0.930 . S
H1148 C1156 0.930 . S
H1149 C1159 0.930 . S
H1150 C1160 0.930 . S
C1151 H1145 0.930 . S
C1151 C1152 1.355 . S
C1151 C1153 1.415 . S
C1152 C1151 1.355 . S
C1152 C1154 1.419 . S
C1153 C1151 1.415 . S
C1153 C1158 1.425 . S
C1153 C1160 1.409 . S
C1154 H1146 0.930 . S
C1154 C1152 1.419 . S
C1154 C1155 1.362 . S
C1155 H1147 0.930 . S
C1155 C1154 1.362 . S
C1155 C1158 1.409 . S
C1156 H1148 0.930 . S
C1156 C1157 1.355 . S
C1156 C1158 1.415 . S
C1157 C1156 1.355 . S
C1157 C1159 1.419 . S
C1158 C1153 1.425 . S
C1158 C1155 1.409 . S
C1158 C1156 1.415 . S
C1159 H1149 0.930 . S
C1159 C1157 1.419 . S
C1159 C1160 1.362 . S
C1160 H1150 0.930 . S
C1160 C1153 1.409 . S
C1160 C1159 1.362 . S
C784 C11 1.539 . S
C789 C684 1.845 . S
C800 C125 1.337 . S
C805 C716 1.625 . S
C821 C775 1.995 . S
C816 C239 1.563 . S
C837 C704 1.366 . S
C832 C343 1.300 . S
C848 C485 1.214 . S
C853 C734 1.688 . S
C869 C756 1.308 . S
C864 C571 1.215 . S
C885 C725 1.881 . S
C880 C257 1.334 . S
C896 C397 0.740 . S
C901 C765 1.350 . S
C917 C714 1.778 . S
C912 C467 1.429 . S
C928 C625 1.164 . S
C933 C744 1.610 . S
C944 C29 1.447 . S
C949 C747 1.891 . S
C965 C686 1.733 . S
C960 C143 1.191 . S
C981 C694 1.647 . S
C976 C371 1.521 . S
C997 C735 1.363 . S
C992 C457 1.005 . S
C1013 C748 1.922 . S
C1008 C599 1.652 . S
C1029 C685 1.507 . S
C1024 C55 1.255 . S
C1045 C745 1.663 . S
C1040 C169 1.370 . S
C1056 C283 1.036 . S
C1061 C746 1.267 . S
C1077 C715 1.620 . S
C1072 C581 0.987 . S
C1093 C776 1.098 . S
C1088 C1 1.042 . S
C1109 C703 1.488 . S
C1104 C115 1.165 . S
C1125 C717 1.318 . S
C1120 C229 0.925 . S
C1136 C353 1.081 . S
C1141 C766 1.881 . S
C1152 C511 1.288 . S
C1157 C713 1.662 . S
