# Generated by pormake.
# Topology eea, (3,6)-cn, num edge types: 1
# Building blocks:
#     Node 0, Type 0, BuildingBlock: VETTIZ_charged_linker_0, # of connection points: 3
#     Node 1, Type 0, BuildingBlock: VETTIZ_charged_linker_0, # of connection points: 3
#     Node 2, Type 0, BuildingBlock: VETTIZ_charged_linker_0, # of connection points: 3
#     Node 3, Type 0, BuildingBlock: VETTIZ_charged_linker_0, # of connection points: 3
#     Node 4, Type 0, BuildingBlock: VETTIZ_charged_linker_0, # of connection points: 3
#     Node 5, Type 0, BuildingBlock: VETTIZ_charged_linker_0, # of connection points: 3
#     Node 6, Type 0, BuildingBlock: VETTIZ_charged_linker_0, # of connection points: 3
#     Node 7, Type 0, BuildingBlock: VETTIZ_charged_linker_0, # of connection points: 3
#     Node 8, Type 0, BuildingBlock: VETTIZ_charged_linker_0, # of connection points: 3
#     Node 9, Type 0, BuildingBlock: VETTIZ_charged_linker_0, # of connection points: 3
#     Node 10, Type 0, BuildingBlock: VETTIZ_charged_linker_0, # of connection points: 3
#     Node 11, Type 0, BuildingBlock: VETTIZ_charged_linker_0, # of connection points: 3
#     Node 12, Type 0, BuildingBlock: VETTIZ_charged_linker_0, # of connection points: 3
#     Node 13, Type 0, BuildingBlock: VETTIZ_charged_linker_0, # of connection points: 3
#     Node 14, Type 0, BuildingBlock: VETTIZ_charged_linker_0, # of connection points: 3
#     Node 15, Type 0, BuildingBlock: VETTIZ_charged_linker_0, # of connection points: 3
#     Node 16, Type 0, BuildingBlock: VETTIZ_charged_linker_0, # of connection points: 3
#     Node 17, Type 0, BuildingBlock: VETTIZ_charged_linker_0, # of connection points: 3
#     Node 18, Type 1, BuildingBlock: HISSIN_clean_sbu_0, # of connection points: 6
#     Node 19, Type 1, BuildingBlock: HISSIN_clean_sbu_0, # of connection points: 6
#     Node 20, Type 1, BuildingBlock: HISSIN_clean_sbu_0, # of connection points: 6
#     Node 21, Type 1, BuildingBlock: HISSIN_clean_sbu_0, # of connection points: 6
#     Node 22, Type 1, BuildingBlock: HISSIN_clean_sbu_0, # of connection points: 6
#     Node 23, Type 1, BuildingBlock: HISSIN_clean_sbu_0, # of connection points: 6
#     Node 24, Type 1, BuildingBlock: HISSIN_clean_sbu_0, # of connection points: 6
#     Node 25, Type 1, BuildingBlock: HISSIN_clean_sbu_0, # of connection points: 6
#     Node 26, Type 1, BuildingBlock: HISSIN_clean_sbu_0, # of connection points: 6
#     Edge 27, Type (0, 1), BuildingBlock: OJICUG_clean_linker_0, # of connection points: 2
#     Edge 28, Type (0, 1), BuildingBlock: OJICUG_clean_linker_0, # of connection points: 2
#     Edge 29, Type (0, 1), BuildingBlock: OJICUG_clean_linker_0, # of connection points: 2
#     Edge 30, Type (0, 1), BuildingBlock: OJICUG_clean_linker_0, # of connection points: 2
#     Edge 31, Type (0, 1), BuildingBlock: OJICUG_clean_linker_0, # of connection points: 2
#     Edge 32, Type (0, 1), BuildingBlock: OJICUG_clean_linker_0, # of connection points: 2
#     Edge 33, Type (0, 1), BuildingBlock: OJICUG_clean_linker_0, # of connection points: 2
#     Edge 34, Type (0, 1), BuildingBlock: OJICUG_clean_linker_0, # of connection points: 2
#     Edge 35, Type (0, 1), BuildingBlock: OJICUG_clean_linker_0, # of connection points: 2
#     Edge 36, Type (0, 1), BuildingBlock: OJICUG_clean_linker_0, # of connection points: 2
#     Edge 37, Type (0, 1), BuildingBlock: OJICUG_clean_linker_0, # of connection points: 2
#     Edge 38, Type (0, 1), BuildingBlock: OJICUG_clean_linker_0, # of connection points: 2
#     Edge 39, Type (0, 1), BuildingBlock: OJICUG_clean_linker_0, # of connection points: 2
#     Edge 40, Type (0, 1), BuildingBlock: OJICUG_clean_linker_0, # of connection points: 2
#     Edge 41, Type (0, 1), BuildingBlock: OJICUG_clean_linker_0, # of connection points: 2
#     Edge 42, Type (0, 1), BuildingBlock: OJICUG_clean_linker_0, # of connection points: 2
#     Edge 43, Type (0, 1), BuildingBlock: OJICUG_clean_linker_0, # of connection points: 2
#     Edge 44, Type (0, 1), BuildingBlock: OJICUG_clean_linker_0, # of connection points: 2
#     Edge 45, Type (0, 1), BuildingBlock: OJICUG_clean_linker_0, # of connection points: 2
#     Edge 46, Type (0, 1), BuildingBlock: OJICUG_clean_linker_0, # of connection points: 2
#     Edge 47, Type (0, 1), BuildingBlock: OJICUG_clean_linker_0, # of connection points: 2
#     Edge 48, Type (0, 1), BuildingBlock: OJICUG_clean_linker_0, # of connection points: 2
#     Edge 49, Type (0, 1), BuildingBlock: OJICUG_clean_linker_0, # of connection points: 2
#     Edge 50, Type (0, 1), BuildingBlock: OJICUG_clean_linker_0, # of connection points: 2
#     Edge 51, Type (0, 1), BuildingBlock: OJICUG_clean_linker_0, # of connection points: 2
#     Edge 52, Type (0, 1), BuildingBlock: OJICUG_clean_linker_0, # of connection points: 2
#     Edge 53, Type (0, 1), BuildingBlock: OJICUG_clean_linker_0, # of connection points: 2
#     Edge 54, Type (0, 1), BuildingBlock: OJICUG_clean_linker_0, # of connection points: 2
#     Edge 55, Type (0, 1), BuildingBlock: OJICUG_clean_linker_0, # of connection points: 2
#     Edge 56, Type (0, 1), BuildingBlock: OJICUG_clean_linker_0, # of connection points: 2
#     Edge 57, Type (0, 1), BuildingBlock: OJICUG_clean_linker_0, # of connection points: 2
#     Edge 58, Type (0, 1), BuildingBlock: OJICUG_clean_linker_0, # of connection points: 2
#     Edge 59, Type (0, 1), BuildingBlock: OJICUG_clean_linker_0, # of connection points: 2
#     Edge 60, Type (0, 1), BuildingBlock: OJICUG_clean_linker_0, # of connection points: 2
#     Edge 61, Type (0, 1), BuildingBlock: OJICUG_clean_linker_0, # of connection points: 2
#     Edge 62, Type (0, 1), BuildingBlock: OJICUG_clean_linker_0, # of connection points: 2
#     Edge 63, Type (0, 1), BuildingBlock: OJICUG_clean_linker_0, # of connection points: 2
#     Edge 64, Type (0, 1), BuildingBlock: OJICUG_clean_linker_0, # of connection points: 2
#     Edge 65, Type (0, 1), BuildingBlock: OJICUG_clean_linker_0, # of connection points: 2
#     Edge 66, Type (0, 1), BuildingBlock: OJICUG_clean_linker_0, # of connection points: 2
#     Edge 67, Type (0, 1), BuildingBlock: OJICUG_clean_linker_0, # of connection points: 2
#     Edge 68, Type (0, 1), BuildingBlock: OJICUG_clean_linker_0, # of connection points: 2
#     Edge 69, Type (0, 1), BuildingBlock: OJICUG_clean_linker_0, # of connection points: 2
#     Edge 70, Type (0, 1), BuildingBlock: OJICUG_clean_linker_0, # of connection points: 2
#     Edge 71, Type (0, 1), BuildingBlock: OJICUG_clean_linker_0, # of connection points: 2
#     Edge 72, Type (0, 1), BuildingBlock: OJICUG_clean_linker_0, # of connection points: 2
#     Edge 73, Type (0, 1), BuildingBlock: OJICUG_clean_linker_0, # of connection points: 2
#     Edge 74, Type (0, 1), BuildingBlock: OJICUG_clean_linker_0, # of connection points: 2
#     Edge 75, Type (0, 1), BuildingBlock: OJICUG_clean_linker_0, # of connection points: 2
#     Edge 76, Type (0, 1), BuildingBlock: OJICUG_clean_linker_0, # of connection points: 2
#     Edge 77, Type (0, 1), BuildingBlock: OJICUG_clean_linker_0, # of connection points: 2
#     Edge 78, Type (0, 1), BuildingBlock: OJICUG_clean_linker_0, # of connection points: 2
#     Edge 79, Type (0, 1), BuildingBlock: OJICUG_clean_linker_0, # of connection points: 2
#     Edge 80, Type (0, 1), BuildingBlock: OJICUG_clean_linker_0, # of connection points: 2
# Relax obj value: 0.035
# Max RMSD: 0.133
# Mean RMSD: 0.087
data_MOF--net-eea--node1-HISSIN_clean_sbu_0--node2-VETTIZ_charged_linker_0--edge1-OJICUG_clean_linker_0
_symmetry_space_group_name_H-M    P1
_symmetry_Int_Tables_number       1
_symmetry_cell_setting            triclinic
loop_
_symmetry_equiv_pos_as_xyz
'x, y, z'
_cell_length_a     47.938734
_cell_length_b     48.191153
_cell_length_c     73.385375
_cell_angle_alpha  92.974838
_cell_angle_beta   92.874609
_cell_angle_gamma 119.81496
loop_
_atom_site_label
_atom_site_type_symbol
_atom_site_fract_x
_atom_site_fract_y
_atom_site_fract_z
_atom_type_partial_charge
C0 C 0.24405 0.19494 0.38358 0.0
C1 C 0.24367 0.22124 0.39256 0.0
C2 C 0.25574 0.2302 0.41118 0.0
C3 C 0.26767 0.18693 0.41143 0.0
C4 C 0.25566 0.17801 0.39327 0.0
C5 C 0.25495 0.1479 0.3861 0.0
H6 H 0.27275 0.02136 0.40339 0.0
C7 C 0.27703 0.16377 0.41757 0.0
C8 C 0.26943 0.14075 0.4028 0.0
H9 H 0.22909 0.03557 0.35438 0.0
H10 H 0.2451 0.08929 0.36662 0.0
H11 H 0.33526 0.09192 0.40899 0.0
H12 H 0.24274 0.04886 0.43079 0.0
H13 H 0.27215 0.07101 0.44904 0.0
H14 H 0.27313 0.03855 0.4365 0.0
H15 H 0.32701 0.06804 0.42808 0.0
H16 H 0.34229 0.1108 0.43119 0.0
C17 C 0.27692 0.15594 0.37014 0.0
C18 C 0.21919 0.12164 0.38078 0.0
C19 C 0.32269 0.17394 0.48329 0.0
C20 C 0.3327 0.15523 0.4927 0.0
C21 C 0.33334 0.12964 0.48293 0.0
C22 C 0.32295 0.12191 0.46429 0.0
C23 C 0.31149 0.13974 0.45529 0.0
C24 C 0.31227 0.1658 0.4646 0.0
C25 C 0.29971 0.18226 0.45254 0.0
C26 C 0.29094 0.16145 0.43457 0.0
C27 C 0.29751 0.13638 0.43642 0.0
C28 C 0.32758 0.21685 0.45104 0.0
C29 C 0.26962 0.18034 0.46066 0.0
C30 C 0.26668 0.03607 0.39528 0.0
C31 C 0.24919 0.02402 0.37804 0.0
C32 C 0.24255 0.04425 0.3677 0.0
C33 C 0.25151 0.07531 0.37493 0.0
C34 C 0.2669 0.0861 0.39274 0.0
C35 C 0.27494 0.06688 0.40241 0.0
C36 C 0.29026 0.08177 0.42135 0.0
C37 C 0.28891 0.11258 0.42169 0.0
C38 C 0.27523 0.11495 0.40493 0.0
C39 C 0.32547 0.08836 0.42264 0.0
C40 C 0.26876 0.05898 0.43527 0.0
H41 H 0.27657 0.22129 0.43471 0.0
H42 H 0.2353 0.18737 0.3693 0.0
H43 H 0.20221 0.12671 0.3881 0.0
H44 H 0.21373 0.0977 0.38468 0.0
H45 H 0.21264 0.11994 0.36586 0.0
H46 H 0.29968 0.17922 0.37357 0.0
H47 H 0.26473 0.15801 0.35743 0.0
H48 H 0.28447 0.13805 0.36721 0.0
H49 H 0.3219 0.19376 0.49042 0.0
H50 H 0.34166 0.11535 0.48977 0.0
H51 H 0.3236 0.10187 0.45772 0.0
H52 H 0.35076 0.21714 0.4498 0.0
H53 H 0.33076 0.23284 0.46338 0.0
H54 H 0.32417 0.22744 0.43874 0.0
H55 H 0.25579 0.15757 0.46722 0.0
H56 H 0.25213 0.18004 0.45016 0.0
H57 H 0.27662 0.20052 0.47125 0.0
H58 H 0.25518 0.24983 0.41868 0.0
C59 C 0.26794 0.21338 0.42058 0.0
C60 C 0.98841 0.18512 0.39652 0.0
C61 C 0.01355 0.21581 0.40305 0.0
C62 C 0.01187 0.2292 0.4203 0.0
C63 C 0.95969 0.1823 0.42339 0.0
C64 C 0.96203 0.16899 0.40678 0.0
C65 C 0.93321 0.13672 0.40112 0.0
H66 H 0.78189 0.02258 0.41313 0.0
C67 C 0.92791 0.15979 0.42984 0.0
C68 C 0.91249 0.13316 0.41671 0.0
H69 H 0.84363 0.02245 0.37202 0.0
H70 H 0.88636 0.07337 0.38526 0.0
H71 H 0.8348 0.04277 0.44554 0.0
H72 H 0.80348 0.09722 0.41489 0.0
H73 H 0.80956 0.11233 0.43793 0.0
H74 H 0.78013 0.07077 0.43139 0.0
H75 H 0.79937 0.04451 0.45032 0.0
H76 H 0.83872 0.07336 0.46128 0.0
C77 C 0.94437 0.11147 0.4006 0.0
C78 C 0.91747 0.13878 0.38262 0.0
C79 C 0.8906 0.18477 0.48961 0.0
C80 C 0.8612 0.1683 0.49773 0.0
C81 C 0.83589 0.13965 0.48859 0.0
C82 C 0.8396 0.12737 0.47184 0.0
C83 C 0.86897 0.14377 0.46394 0.0
C84 C 0.89385 0.17218 0.4726 0.0
C85 C 0.92284 0.1865 0.46151 0.0
C86 C 0.91153 0.16125 0.44526 0.0
C87 C 0.87989 0.13637 0.4469 0.0
C88 C 0.95203 0.18915 0.47309 0.0
C89 C 0.92798 0.21898 0.45567 0.0
C90 C 0.80465 0.03333 0.40701 0.0
C91 C 0.80889 0.01848 0.39119 0.0
C92 C 0.8391 0.0336 0.38381 0.0
C93 C 0.8642 0.06314 0.39169 0.0
C94 C 0.85944 0.07779 0.40731 0.0
C95 C 0.83029 0.06264 0.41492 0.0
C96 C 0.83047 0.08086 0.43223 0.0
C97 C 0.86443 0.10969 0.43354 0.0
C98 C 0.88094 0.1079 0.41875 0.0
C99 C 0.82537 0.05941 0.44824 0.0
C100 C 0.80447 0.09074 0.42915 0.0
H101 H 0.98512 0.22405 0.44344 0.0
H102 H 0.98852 0.17414 0.38329 0.0
H103 H 0.91767 0.16197 0.38254 0.0
H104 H 0.89186 0.12011 0.37986 0.0
H105 H 0.93077 0.13723 0.37101 0.0
H106 H 0.96691 0.11976 0.40965 0.0
H107 H 0.94924 0.10643 0.38653 0.0
H108 H 0.92664 0.08864 0.40582 0.0
H109 H 0.91042 0.20695 0.49626 0.0
H110 H 0.81325 0.12621 0.49464 0.0
H111 H 0.81939 0.10537 0.46577 0.0
H112 H 0.94473 0.16694 0.48012 0.0
H113 H 0.96195 0.20972 0.48375 0.0
H114 H 0.97159 0.19183 0.46474 0.0
H115 H 0.90443 0.21733 0.45179 0.0
H116 H 0.9416 0.22651 0.44348 0.0
H117 H 0.94061 0.23823 0.46705 0.0
H118 H 0.03116 0.25262 0.42587 0.0
C119 C 0.98512 0.2126 0.4305 0.0
C120 C 0.97864 0.79249 0.39685 0.0
C121 C 1.00168 0.78369 0.40192 0.0
C122 C 0.99719 0.7665 0.41765 0.0
C123 C 0.94782 0.76741 0.42256 0.0
C124 C 0.95206 0.78386 0.4071 0.0
C125 C 0.92487 0.79002 0.40261 0.0
H126 H 0.77937 0.77095 0.41887 0.0
C127 C 0.91718 0.76187 0.42984 0.0
C128 C 0.90365 0.77488 0.41796 0.0
H129 H 0.83832 0.81656 0.37487 0.0
H130 H 0.87966 0.80715 0.3875 0.0
H131 H 0.7932 0.71224 0.41963 0.0
H132 H 0.83826 0.80445 0.45062 0.0
H133 H 0.83782 0.77713 0.46566 0.0
H134 H 0.80011 0.77193 0.4557 0.0
H135 H 0.77366 0.72267 0.43673 0.0
H136 H 0.79927 0.70641 0.44263 0.0
C137 C 0.90811 0.77222 0.38355 0.0
C138 C 0.93887 0.82689 0.40382 0.0
C139 C 0.87974 0.70728 0.48907 0.0
C140 C 0.85222 0.69925 0.49866 0.0
C141 C 0.82926 0.7069 0.49147 0.0
C142 C 0.83331 0.72193 0.4752 0.0
C143 C 0.86066 0.7296 0.46576 0.0
C144 C 0.88341 0.72233 0.47267 0.0
C145 C 0.91075 0.73212 0.46046 0.0
C146 C 0.90098 0.74712 0.44544 0.0
C147 C 0.87143 0.74535 0.44864 0.0
C148 C 0.91066 0.70147 0.45296 0.0
C149 C 0.94252 0.75701 0.47166 0.0
C150 C 0.80132 0.77908 0.41207 0.0
C151 C 0.80525 0.79404 0.39563 0.0
C152 C 0.83425 0.80428 0.38726 0.0
C153 C 0.85839 0.7989 0.39469 0.0
C154 C 0.85375 0.78301 0.41072 0.0
C155 C 0.82583 0.77377 0.41932 0.0
C156 C 0.82558 0.75757 0.43641 0.0
C157 C 0.85754 0.75793 0.4363 0.0
C158 C 0.87376 0.77281 0.42118 0.0
C159 C 0.79635 0.72294 0.43392 0.0
C160 C 0.82519 0.77855 0.45304 0.0
H161 H 0.9687 0.74552 0.43974 0.0
H162 H 0.98109 0.80601 0.38513 0.0
H163 H 0.95865 0.83917 0.41503 0.0
H164 H 0.92099 0.83401 0.40723 0.0
H165 H 0.94898 0.83688 0.39086 0.0
H166 H 0.91013 0.75036 0.38093 0.0
H167 H 0.91916 0.78784 0.37236 0.0
H168 H 0.88185 0.76312 0.38235 0.0
H169 H 0.89778 0.70158 0.49408 0.0
H170 H 0.80818 0.70167 0.49862 0.0
H171 H 0.81487 0.72703 0.4706 0.0
H172 H 0.88553 0.68107 0.45003 0.0
H173 H 0.9234 0.69423 0.46302 0.0
H174 H 0.92158 0.70423 0.43981 0.0
H175 H 0.93905 0.77523 0.47957 0.0
H176 H 0.96224 0.77057 0.46298 0.0
H177 H 0.95062 0.74522 0.48155 0.0
H178 H 0.01392 0.75865 0.42187 0.0
C179 C 0.97063 0.75854 0.42799 0.0
C180 C 0.17529 0.20572 0.61927 0.0
C181 C 0.20475 0.21138 0.61299 0.0
C182 C 0.21345 0.22511 0.59617 0.0
C183 C 0.16389 0.22726 0.59244 0.0
C184 C 0.15549 0.21383 0.60889 0.0
C185 C 0.12364 0.20938 0.6139 0.0
H186 H 0.99317 0.22566 0.5964 0.0
C187 C 0.1377 0.23278 0.58517 0.0
C188 C 0.11415 0.22233 0.59777 0.0
H189 H 0.01699 0.18643 0.64248 0.0
H190 H 0.06545 0.19553 0.62976 0.0
H191 H 0.06667 0.28524 0.59337 0.0
H192 H 0.01549 0.18997 0.56523 0.0
H193 H 0.03611 0.21792 0.54939 0.0
H194 H 0.00461 0.21984 0.56084 0.0
H195 H 0.03253 0.27262 0.577 0.0
H196 H 0.07261 0.28774 0.56988 0.0
C197 C 0.12978 0.2303 0.63209 0.0
C198 C 0.10018 0.1729 0.61469 0.0
C199 C 0.14554 0.28171 0.5244 0.0
C200 C 0.12526 0.28958 0.51405 0.0
C201 C 0.09596 0.28355 0.52099 0.0
C202 C 0.08712 0.27012 0.53779 0.0
C203 C 0.10769 0.26245 0.54792 0.0
C204 C 0.13635 0.26825 0.54113 0.0
C205 C 0.15521 0.25844 0.55363 0.0
C206 C 0.13325 0.24578 0.56901 0.0
C207 C 0.10534 0.24819 0.56568 0.0
C208 C 0.18781 0.2888 0.56031 0.0
C209 C 0.15847 0.23165 0.54309 0.0
C210 C 0.00884 0.21894 0.60365 0.0
C211 C 1.00131 0.20577 0.62071 0.0
C212 C 0.02242 0.19735 0.62963 0.0
C213 C 0.05061 0.20246 0.62212 0.0
C214 C 0.0582 0.21616 0.60537 0.0
C215 C 0.03747 0.224 0.59628 0.0
C216 C 0.04989 0.23811 0.57847 0.0
C217 C 0.08153 0.23767 0.5786 0.0
C218 C 0.08605 0.22476 0.59447 0.0
C219 C 0.05562 0.27271 0.57955 0.0
C220 C 0.02529 0.21555 0.56255 0.0
H221 H 0.2013 0.24347 0.57326 0.0
H222 H 0.16746 0.19477 0.63194 0.0
H223 H 0.10555 0.15839 0.60469 0.0
H224 H 0.07474 0.16566 0.61082 0.0
H225 H 0.10211 0.1653 0.62851 0.0
H226 H 0.15381 0.25258 0.63302 0.0
H227 H 0.12926 0.2171 0.64415 0.0
H228 H 0.11248 0.23899 0.63332 0.0
H229 H 0.16798 0.28549 0.51947 0.0
H230 H 0.07996 0.28965 0.51354 0.0
H231 H 0.06463 0.26631 0.54229 0.0
H232 H 0.18463 0.31001 0.56274 0.0
H233 H 0.20564 0.29447 0.54998 0.0
H234 H 0.19829 0.28671 0.57355 0.0
H235 H 0.13589 0.21513 0.53434 0.0
H236 H 0.16227 0.21613 0.55223 0.0
H237 H 0.1785 0.24194 0.53404 0.0
H238 H 0.23614 0.23012 0.59103 0.0
C239 C 0.19324 0.23305 0.58589 0.0
C240 C 0.76541 0.79735 0.63023 0.0
C241 C 0.76191 0.76872 0.62202 0.0
C242 C 0.7462 0.75746 0.60418 0.0
C243 C 0.73823 0.80328 0.60316 0.0
C244 C 0.75357 0.81412 0.62063 0.0
C245 C 0.75631 0.84529 0.62745 0.0
H246 H 0.72736 0.9659 0.61356 0.0
C247 C 0.7287 0.82645 0.59717 0.0
C248 C 0.73906 0.85091 0.61147 0.0
H249 H 0.78645 0.95924 0.65789 0.0
H250 H 0.77157 0.90623 0.6457 0.0
H251 H 0.75696 0.94536 0.58444 0.0
H252 H 0.66852 0.89062 0.60926 0.0
H253 H 0.66028 0.87793 0.58573 0.0
H254 H 0.67402 0.91936 0.59317 0.0
H255 H 0.72106 0.94628 0.5775 0.0
H256 H 0.73003 0.91728 0.56698 0.0
C257 C 0.79271 0.87116 0.63031 0.0
C258 C 0.73799 0.83988 0.64492 0.0
C259 C 0.67789 0.81508 0.53253 0.0
C260 C 0.66808 0.83431 0.52351 0.0
C261 C 0.66747 0.85956 0.5337 0.0
C262 C 0.67818 0.86681 0.55229 0.0
C263 C 0.68993 0.84883 0.56083 0.0
C264 C 0.68875 0.8228 0.55121 0.0
C265 C 0.70172 0.80621 0.56292 0.0
C266 C 0.71238 0.82769 0.58077 0.0
C267 C 0.70552 0.85268 0.57932 0.0
C268 C 0.73059 0.80692 0.55396 0.0
C269 C 0.67366 0.77203 0.56515 0.0
C270 C 0.73733 0.95326 0.62068 0.0
C271 C 0.75827 0.96727 0.63679 0.0
C272 C 0.76988 0.94923 0.64566 0.0
C273 C 0.76163 0.91845 0.63838 0.0
C274 C 0.74218 0.90568 0.62178 0.0
C275 C 0.73031 0.92298 0.61325 0.0
C276 C 0.71265 0.90705 0.59486 0.0
C277 C 0.71596 0.8773 0.59379 0.0
C278 C 0.73286 0.87648 0.60969 0.0
C279 C 0.73074 0.93003 0.58009 0.0
C280 C 0.677 0.89839 0.5956 0.0
H281 H 0.72274 0.76491 0.58119 0.0
H282 H 0.77693 0.80652 0.64398 0.0
H283 H 0.71477 0.8167 0.64313 0.0
H284 H 0.73139 0.85839 0.64814 0.0
H285 H 0.75248 0.8391 0.65697 0.0
H286 H 0.80766 0.86446 0.62205 0.0
H287 H 0.80215 0.87466 0.64489 0.0
H288 H 0.79765 0.89458 0.6257 0.0
H289 H 0.67842 0.79538 0.52506 0.0
H290 H 0.65921 0.87416 0.52717 0.0
H291 H 0.67773 0.88675 0.55915 0.0
H292 H 0.74615 0.83078 0.54887 0.0
H293 H 0.72213 0.78849 0.54212 0.0
H294 H 0.7466 0.80321 0.56359 0.0
H295 H 0.65049 0.77194 0.5659 0.0
H296 H 0.67691 0.76265 0.57802 0.0
H297 H 0.67049 0.75497 0.55339 0.0
H298 H 0.74348 0.73564 0.59742 0.0
C299 C 0.73428 0.77455 0.59473 0.0
C300 C 0.02808 0.80329 0.6265 0.0
C301 C 1.00068 0.77502 0.61864 0.0
C302 C 1.00062 0.76461 0.6002 0.0
C303 C 0.05454 0.80964 0.59834 0.0
C304 C 0.0541 0.82031 0.61612 0.0
C305 C 0.08344 0.852 0.62229 0.0
H306 H 0.22926 0.97322 0.60625 0.0
C307 C 0.08574 0.83293 0.59163 0.0
C308 C 0.10248 0.85786 0.60567 0.0
H309 H 0.17271 0.96648 0.65183 0.0
H310 H 0.13158 0.91405 0.63952 0.0
H311 H 0.21482 0.90188 0.60301 0.0
H312 H 0.17017 0.94889 0.57643 0.0
H313 H 0.1716 0.92272 0.55947 0.0
H314 H 0.20869 0.95435 0.57128 0.0
H315 H 0.23147 0.9253 0.5841 0.0
H316 H 0.2023 0.88289 0.58071 0.0
C317 C 0.10093 0.84754 0.63926 0.0
C318 C 0.07258 0.87718 0.62572 0.0
C319 C 0.11867 0.81357 0.52893 0.0
C320 C 0.14765 0.83061 0.52049 0.0
C321 C 0.17335 0.85874 0.52983 0.0
C322 C 0.17053 0.86984 0.54717 0.0
C323 C 0.14165 0.8528 0.55545 0.0
C324 C 0.11634 0.82496 0.54654 0.0
C325 C 0.08799 0.80982 0.55807 0.0
C326 C 0.10059 0.83339 0.57519 0.0
C327 C 0.13193 0.85861 0.57332 0.0
C328 C 0.08227 0.77633 0.56217 0.0
C329 C 0.0587 0.80909 0.54773 0.0
C330 C 0.20794 0.96069 0.61356 0.0
C331 C 0.20468 0.97432 0.63018 0.0
C332 C 0.17653 0.95659 0.63924 0.0
C333 C 0.15221 0.92617 0.6319 0.0
C334 C 0.15552 0.91335 0.61509 0.0
C335 C 0.18297 0.93058 0.60619 0.0
C336 C 0.18152 0.91389 0.588 0.0
C337 C 0.14839 0.88402 0.58737 0.0
C338 C 0.13357 0.88372 0.60335 0.0
C339 C 0.20899 0.90566 0.58881 0.0
C340 C 0.18329 0.93598 0.57291 0.0
H341 H 0.02585 0.77242 0.57623 0.0
H342 H 0.02962 0.81228 0.64054 0.0
H343 H 0.04872 0.86956 0.61829 0.0
H344 H 0.08913 0.90052 0.62053 0.0
H345 H 0.07039 0.88112 0.6405 0.0
H346 H 0.10161 0.82485 0.63719 0.0
H347 H 0.0883 0.84634 0.65173 0.0
H348 H 0.12636 0.86677 0.64196 0.0
H349 H 0.09856 0.79179 0.5221 0.0
H350 H 0.19567 0.87258 0.52354 0.0
H351 H 0.19102 0.89147 0.55339 0.0
H352 H 0.10558 0.77755 0.56613 0.0
H353 H 0.07058 0.75886 0.54991 0.0
H354 H 0.06737 0.76666 0.5737 0.0
H355 H 0.06641 0.8315 0.54083 0.0
H356 H 0.04069 0.80789 0.55693 0.0
H357 H 0.04671 0.78852 0.53706 0.0
H358 H 0.97972 0.74355 0.59338 0.0
C359 C 0.02741 0.78158 0.59011 0.0
C360 C 0.91426 0.53418 0.71647 0.0
C361 C 0.91908 0.56341 0.72465 0.0
C362 C 0.93651 0.57524 0.74203 0.0
C363 C 0.94181 0.5279 0.74325 0.0
C364 C 0.92578 0.51697 0.72595 0.0
C365 C 0.92117 0.4848 0.71947 0.0
H366 H 0.93104 0.35421 0.73771 0.0
C367 C 0.94879 0.50328 0.74974 0.0
C368 C 0.937 0.47814 0.73574 0.0
H369 H 0.88817 0.36951 0.68876 0.0
H370 H 0.90622 0.42381 0.70069 0.0
H371 H 0.99566 0.42299 0.74232 0.0
H372 H 0.90413 0.38544 0.76497 0.0
H373 H 0.93371 0.40873 0.78286 0.0
H374 H 0.93353 0.37442 0.77178 0.0
H375 H 0.98547 0.3977 0.76084 0.0
H376 H 0.00418 0.44082 0.76488 0.0
C377 C 0.93965 0.48876 0.70217 0.0
C378 C 0.88436 0.46062 0.71647 0.0
C379 C 0.99456 0.51309 0.81544 0.0
C380 C 1.00076 0.49223 0.82536 0.0
C381 C 0.99795 0.46451 0.81609 0.0
C382 C 0.98764 0.45678 0.79745 0.0
C383 C 0.97964 0.47674 0.78795 0.0
C384 C 0.98395 0.50483 0.79676 0.0
C385 C 0.97434 0.52306 0.78424 0.0
C386 C 0.96276 0.50076 0.76668 0.0
C387 C 0.96568 0.47357 0.76908 0.0
C388 C 0.00475 0.55565 0.7819 0.0
C389 C 0.94664 0.52595 0.79242 0.0
C390 C 0.92551 0.36925 0.72957 0.0
C391 C 0.90791 0.35743 0.71234 0.0
C392 C 0.90185 0.37805 0.70202 0.0
C393 C 0.91213 0.40953 0.70905 0.0
C394 C 0.92839 0.42047 0.72666 0.0
C395 C 0.9353 0.4006 0.73646 0.0
C396 C 0.95203 0.41592 0.7551 0.0
C397 C 0.95374 0.4482 0.75495 0.0
C398 C 0.93972 0.45062 0.73832 0.0
C399 C 0.98605 0.41944 0.75602 0.0
C400 C 0.93005 0.39516 0.76955 0.0
H401 H 0.96068 0.56774 0.7646 0.0
H402 H 0.90068 0.52418 0.70326 0.0
H403 H 0.871 0.46654 0.72649 0.0
H404 H 0.87803 0.43576 0.71869 0.0
H405 H 0.87449 0.46099 0.70252 0.0
H406 H 0.96228 0.51247 0.7032 0.0
H407 H 0.92479 0.48726 0.68964 0.0
H408 H 0.94761 0.47094 0.70029 0.0
H409 H 0.9966 0.53461 0.82222 0.0
H410 H 0.00329 0.44847 0.82338 0.0
H411 H 0.98548 0.43505 0.7913 0.0
H412 H 0.02672 0.55331 0.78224 0.0
H413 H 0.00869 0.57405 0.79305 0.0
H414 H 0.00371 0.56475 0.76852 0.0
H415 H 0.92918 0.503 0.79781 0.0
H416 H 0.93222 0.53082 0.78228 0.0
H417 H 0.95614 0.54509 0.80393 0.0
H418 H 0.94107 0.59799 0.7485 0.0
C419 C 0.94797 0.5577 0.75134 0.0
C420 C 0.64486 0.51942 0.72586 0.0
C421 C 0.6702 0.55031 0.73197 0.0
C422 C 0.66813 0.56491 0.74872 0.0
C423 C 0.61627 0.51823 0.75256 0.0
C424 C 0.61828 0.50423 0.73611 0.0
C425 C 0.58895 0.47222 0.73067 0.0
H426 H 0.44192 0.35437 0.74757 0.0
C427 C 0.58497 0.49587 0.75955 0.0
C428 C 0.56894 0.46908 0.74656 0.0
H429 H 0.49594 0.35966 0.70111 0.0
H430 H 0.53921 0.41123 0.7136 0.0
H431 H 0.50264 0.38085 0.77765 0.0
H432 H 0.45638 0.4251 0.74962 0.0
H433 H 0.46876 0.44508 0.77168 0.0
H434 H 0.44015 0.4025 0.76888 0.0
H435 H 0.46417 0.37543 0.78286 0.0
H436 H 0.50142 0.40808 0.79395 0.0
C437 C 0.5995 0.44653 0.72987 0.0
C438 C 0.57279 0.47456 0.71238 0.0
C439 C 0.55293 0.51973 0.82157 0.0
C440 C 0.52456 0.50276 0.83056 0.0
C441 C 0.49916 0.47359 0.822 0.0
C442 C 0.50168 0.46135 0.80492 0.0
C443 C 0.52994 0.47831 0.79608 0.0
C444 C 0.55496 0.50716 0.80422 0.0
C445 C 0.58249 0.52211 0.7921 0.0
C446 C 0.57007 0.49692 0.77574 0.0
C447 C 0.53928 0.47137 0.77833 0.0
C448 C 0.61307 0.52551 0.80242 0.0
C449 C 0.5861 0.5543 0.78676 0.0
C450 C 0.46317 0.36663 0.74016 0.0
C451 C 0.46544 0.35302 0.72328 0.0
C452 C 0.49336 0.36987 0.71398 0.0
C453 C 0.5186 0.39978 0.72133 0.0
C454 C 0.51601 0.41312 0.7382 0.0
C455 C 0.48867 0.3966 0.74731 0.0
C456 C 0.49031 0.41448 0.76511 0.0
C457 C 0.52314 0.44454 0.76509 0.0
C458 C 0.53797 0.44348 0.74934 0.0
C459 C 0.48937 0.39376 0.78081 0.0
C460 C 0.46242 0.4221 0.76396 0.0
H461 H 0.64139 0.56129 0.77166 0.0
H462 H 0.6455 0.50699 0.71331 0.0
H463 H 0.57684 0.49923 0.71135 0.0
H464 H 0.54625 0.45906 0.71109 0.0
H465 H 0.58273 0.46862 0.7004 0.0
H466 H 0.61957 0.45276 0.74051 0.0
H467 H 0.60808 0.44458 0.71634 0.0
H468 H 0.58018 0.42255 0.73278 0.0
H469 H 0.57276 0.54233 0.82777 0.0
H470 H 0.47732 0.45981 0.82872 0.0
H471 H 0.48143 0.43898 0.79931 0.0
H472 H 0.60735 0.50298 0.80874 0.0
H473 H 0.62293 0.54534 0.81355 0.0
H474 H 0.63227 0.52993 0.79337 0.0
H475 H 0.56208 0.55248 0.78462 0.0
H476 H 0.59702 0.56132 0.77368 0.0
H477 H 0.60066 0.57394 0.79768 0.0
H478 H 0.68684 0.58893 0.75376 0.0
C479 C 0.64149 0.54898 0.75907 0.0
C480 C 0.64276 0.12606 0.72971 0.0
C481 C 0.66506 0.11601 0.73416 0.0
C482 C 0.66003 0.09774 0.74946 0.0
C483 C 0.61161 0.10003 0.75514 0.0
C484 C 0.61631 0.1175 0.74009 0.0
C485 C 0.58972 0.12477 0.73613 0.0
H486 H 0.44208 0.10081 0.75085 0.0
C487 C 0.58114 0.09462 0.7626 0.0
C488 C 0.56816 0.1088 0.75124 0.0
H489 H 0.50628 0.15742 0.71115 0.0
H490 H 0.54693 0.147 0.72343 0.0
H491 H 0.45951 0.04355 0.7511 0.0
H492 H 0.49653 0.13337 0.78365 0.0
H493 H 0.50072 0.10756 0.7981 0.0
H494 H 0.46094 0.09799 0.78895 0.0
H495 H 0.43679 0.05239 0.76678 0.0
H496 H 0.46236 0.03705 0.7744 0.0
C497 C 0.57302 0.10841 0.71685 0.0
C498 C 0.60447 0.16177 0.73819 0.0
C499 C 0.54333 0.03838 0.82132 0.0
C500 C 0.51578 0.03016 0.83093 0.0
C501 C 0.49245 0.03724 0.82363 0.0
C502 C 0.4963 0.05214 0.80731 0.0
C503 C 0.52384 0.0603 0.79796 0.0
C504 C 0.5468 0.05332 0.80488 0.0
C505 C 0.57415 0.06333 0.79265 0.0
C506 C 0.56453 0.07885 0.77787 0.0
C507 C 0.53479 0.07668 0.78104 0.0
C508 C 0.57383 0.03273 0.7848 0.0
C509 C 0.60601 0.08783 0.80391 0.0
C510 C 0.4649 0.1111 0.74481 0.0
C511 C 0.47014 0.129 0.72942 0.0
C512 C 0.50066 0.14231 0.72239 0.0
C513 C 0.52458 0.1365 0.72968 0.0
C514 C 0.51845 0.11742 0.74441 0.0
C515 C 0.48947 0.10594 0.75216 0.0
C516 C 0.48863 0.08845 0.76878 0.0
C517 C 0.52119 0.08997 0.76904 0.0
C518 C 0.5382 0.10655 0.75453 0.0
C519 C 0.46026 0.05351 0.76525 0.0
C520 C 0.48638 0.10752 0.7858 0.0
H521 H 0.63139 0.07615 0.77141 0.0
H522 H 0.64567 0.1405 0.71837 0.0
H523 H 0.62619 0.17354 0.7482 0.0
H524 H 0.58782 0.16909 0.74372 0.0
H525 H 0.61192 0.1722 0.72494 0.0
H526 H 0.57123 0.08454 0.71461 0.0
H527 H 0.58688 0.1232 0.70592 0.0
H528 H 0.54793 0.10335 0.71481 0.0
H529 H 0.56157 0.033 0.82637 0.0
H530 H 0.47128 0.03175 0.83075 0.0
H531 H 0.47762 0.05681 0.80261 0.0
H532 H 0.5487 0.0122 0.78226 0.0
H533 H 0.58728 0.02563 0.79447 0.0
H534 H 0.58386 0.03549 0.77136 0.0
H535 H 0.60289 0.10635 0.81175 0.0
H536 H 0.62592 0.10098 0.79527 0.0
H537 H 0.61364 0.07577 0.81386 0.0
H538 H 0.67611 0.08888 0.75321 0.0
C539 C 0.63371 0.08996 0.75998 0.0
C540 C 0.84244 0.5378 0.95231 0.0
C541 C 0.87382 0.54754 0.94736 0.0
C542 C 0.88429 0.56575 0.93206 0.0
C543 C 0.83273 0.5636 0.92709 0.0
C544 C 0.82274 0.54646 0.94225 0.0
C545 C 0.78984 0.53981 0.94668 0.0
H546 H 0.65964 0.55705 0.92998 0.0
C547 C 0.80625 0.56859 0.91977 0.0
C548 C 0.78129 0.55505 0.93138 0.0
H549 H 0.68157 0.51363 0.97454 0.0
H550 H 0.7302 0.52321 0.96177 0.0
H551 H 0.73358 0.61721 0.9275 0.0
H552 H 0.6824 0.52281 0.89824 0.0
H553 H 0.70494 0.55095 0.88295 0.0
H554 H 0.67287 0.55344 0.8934 0.0
H555 H 0.69819 0.60411 0.91205 0.0
H556 H 0.73746 0.62012 0.90375 0.0
C557 C 0.79335 0.55714 0.96583 0.0
C558 C 0.76713 0.5029 0.94522 0.0
C559 C 0.81645 0.62204 0.86053 0.0
C560 C 0.7954 0.62806 0.84959 0.0
C561 C 0.76482 0.61946 0.85559 0.0
C562 C 0.75547 0.60528 0.87217 0.0
C563 C 0.77673 0.59922 0.88287 0.0
C564 C 0.8066 0.60745 0.87689 0.0
C565 C 0.82574 0.5983 0.88958 0.0
C566 C 0.80245 0.58296 0.90409 0.0
C567 C 0.77378 0.58382 0.90027 0.0
C568 C 0.85676 0.62938 0.89752 0.0
C569 C 0.83201 0.57375 0.87878 0.0
C570 C 0.67496 0.54958 0.93691 0.0
C571 C 0.66693 0.53517 0.9536 0.0
C572 C 0.68747 0.52558 0.96203 0.0
C573 C 0.71579 0.53106 0.95452 0.0
C574 C 0.72411 0.54639 0.93829 0.0
C575 C 0.70374 0.55505 0.92955 0.0
C576 C 0.71676 0.57052 0.91213 0.0
C577 C 0.74884 0.57092 0.91246 0.0
C578 C 0.75271 0.55657 0.92784 0.0
C579 C 0.72168 0.6048 0.91378 0.0
C580 C 0.69305 0.54857 0.89573 0.0
H581 H 0.87342 0.58743 0.91044 0.0
H582 H 0.83306 0.5236 0.96377 0.0
H583 H 0.77245 0.49117 0.93351 0.0
H584 H 0.74141 0.49559 0.9425 0.0
H585 H 0.77019 0.49259 0.95785 0.0
H586 H 0.81806 0.57811 0.96914 0.0
H587 H 0.78865 0.54075 0.97683 0.0
H588 H 0.77735 0.56749 0.96668 0.0
H589 H 0.83991 0.62788 0.85623 0.0
H590 H 0.74819 0.62398 0.84751 0.0
H591 H 0.73201 0.59952 0.87602 0.0
H592 H 0.85239 0.64997 0.89903 0.0
H593 H 0.87659 0.63596 0.88844 0.0
H594 H 0.86517 0.62753 0.91146 0.0
H595 H 0.81004 0.5561 0.86991 0.0
H596 H 0.83782 0.55925 0.88767 0.0
H597 H 0.85188 0.58597 0.8698 0.0
H598 H 0.90847 0.57449 0.92802 0.0
C599 C 0.86394 0.5736 0.92189 0.0
C600 C 0.43238 0.13104 0.9637 0.0
C601 C 0.42924 0.10262 0.95543 0.0
C602 C 0.41355 0.0913 0.93759 0.0
C603 C 0.40465 0.13655 0.93672 0.0
C604 C 0.42004 0.14748 0.95417 0.0
C605 C 0.42209 0.17828 0.96111 0.0
H606 H 0.3902 0.29712 0.94778 0.0
C607 C 0.39446 0.15929 0.93084 0.0
C608 C 0.40445 0.18358 0.94519 0.0
H609 H 0.44997 0.2911 0.99198 0.0
H610 H 0.43598 0.23849 0.9796 0.0
H611 H 0.42025 0.27837 0.91869 0.0
H612 H 0.33211 0.22063 0.94312 0.0
H613 H 0.3243 0.20931 0.91941 0.0
H614 H 0.33731 0.25022 0.92768 0.0
H615 H 0.3835 0.27729 0.91127 0.0
H616 H 0.39453 0.24955 0.90117 0.0
C617 C 0.45831 0.20468 0.96398 0.0
C618 C 0.40375 0.1723 0.97859 0.0
C619 C 0.34281 0.14719 0.86634 0.0
C620 C 0.33274 0.16625 0.85735 0.0
C621 C 0.33207 0.19147 0.86752 0.0
C622 C 0.34284 0.1988 0.8861 0.0
C623 C 0.35476 0.18095 0.89465 0.0
C624 C 0.35381 0.15505 0.885 0.0
C625 C 0.36731 0.13883 0.89664 0.0
C626 C 0.37787 0.1603 0.91449 0.0
C627 C 0.3705 0.18495 0.91311 0.0
C628 C 0.39632 0.14006 0.88756 0.0
C629 C 0.33967 0.10447 0.89892 0.0
C630 C 0.40047 0.28468 0.95486 0.0
C631 C 0.42136 0.29878 0.97097 0.0
C632 C 0.4334 0.28101 0.97976 0.0
C633 C 0.42569 0.25047 0.97236 0.0
C634 C 0.40634 0.23765 0.95573 0.0
C635 C 0.39399 0.25464 0.9473 0.0
C636 C 0.37652 0.23874 0.92886 0.0
C637 C 0.38053 0.20939 0.92766 0.0
C638 C 0.3976 0.20875 0.94352 0.0
C639 C 0.39426 0.26204 0.91415 0.0
C640 C 0.34068 0.22933 0.92962 0.0
H641 H 0.3896 0.09836 0.91468 0.0
H642 H 0.44388 0.14023 0.97744 0.0
H643 H 0.38091 0.14875 0.97681 0.0
H644 H 0.39643 0.19025 0.98185 0.0
H645 H 0.41854 0.17194 0.99063 0.0
H646 H 0.47353 0.19854 0.9556 0.0
H647 H 0.46787 0.20811 0.97853 0.0
H648 H 0.46273 0.22802 0.95952 0.0
H649 H 0.34345 0.12758 0.85885 0.0
H650 H 0.32374 0.20599 0.86097 0.0
H651 H 0.3423 0.21869 0.89296 0.0
H652 H 0.41142 0.16392 0.88235 0.0
H653 H 0.388 0.12153 0.87578 0.0
H654 H 0.41276 0.13687 0.89714 0.0
H655 H 0.31634 0.104 0.89983 0.0
H656 H 0.34332 0.09516 0.91172 0.0
H657 H 0.33657 0.08754 0.88709 0.0
H658 H 0.41111 0.06962 0.93079 0.0
C659 C 0.40117 0.10807 0.92822 0.0
C660 C 0.69698 0.13365 0.9611 0.0
C661 C 0.66901 0.10623 0.95296 0.0
C662 C 0.66827 0.09675 0.93426 0.0
C663 C 0.7222 0.14167 0.93245 0.0
C664 C 0.72265 0.15118 0.95061 0.0
C665 C 0.75219 0.18263 0.95696 0.0
H666 H 0.89115 0.31072 0.93799 0.0
C667 C 0.75266 0.1658 0.92547 0.0
C668 C 0.76999 0.18999 0.93982 0.0
H669 H 0.84221 0.29656 0.98756 0.0
H670 H 0.80184 0.24333 0.97529 0.0
H671 H 0.883 0.24193 0.93264 0.0
H672 H 0.82855 0.28317 0.91103 0.0
H673 H 0.83044 0.25935 0.89278 0.0
H674 H 0.86729 0.29229 0.90396 0.0
H675 H 0.89461 0.26519 0.91327 0.0
H676 H 0.86768 0.22222 0.91064 0.0
C677 C 0.77094 0.17702 0.97278 0.0
C678 C 0.74141 0.20736 0.96216 0.0
C679 C 0.78051 0.15251 0.8603 0.0
C680 C 0.80746 0.17221 0.85087 0.0
C681 C 0.83321 0.20034 0.86011 0.0
C682 C 0.83205 0.20936 0.87827 0.0
C683 C 0.80472 0.19025 0.88739 0.0
C684 C 0.77961 0.16212 0.87861 0.0
C685 C 0.75259 0.14533 0.89083 0.0
C686 C 0.76605 0.16793 0.90834 0.0
C687 C 0.79643 0.19426 0.906 0.0
C688 C 0.74852 0.11202 0.89369 0.0
C689 C 0.72193 0.14403 0.88195 0.0
C690 C 0.87162 0.29625 0.94617 0.0
C691 C 0.8698 0.30801 0.96372 0.0
C692 C 0.84436 0.28804 0.97405 0.0
C693 C 0.82069 0.25722 0.96681 0.0
C694 C 0.8222 0.24631 0.94897 0.0
C695 C 0.84757 0.26559 0.93907 0.0
C696 C 0.845 0.25035 0.92025 0.0
C697 C 0.81332 0.21908 0.92028 0.0
C698 C 0.8002 0.21685 0.93711 0.0
C699 C 0.87408 0.24474 0.91895 0.0
C700 C 0.84292 0.27233 0.90615 0.0
H701 H 0.69267 0.1057 0.90995 0.0
H702 H 0.69906 0.1418 0.97538 0.0
H703 H 0.71752 0.20053 0.95506 0.0
H704 H 0.75786 0.2315 0.95788 0.0
H705 H 0.7393 0.20933 0.97711 0.0
H706 H 0.77115 0.15427 0.96971 0.0
H707 H 0.75958 0.17524 0.98582 0.0
H708 H 0.79658 0.19597 0.97495 0.0
H709 H 0.76039 0.13075 0.85346 0.0
H710 H 0.85439 0.21553 0.8532 0.0
H711 H 0.8524 0.2312 0.88436 0.0
H712 H 0.77244 0.11407 0.89689 0.0
H713 H 0.7368 0.09532 0.88113 0.0
H714 H 0.73429 0.10094 0.90527 0.0
H715 H 0.72828 0.16607 0.87492 0.0
H716 H 0.70535 0.14321 0.89209 0.0
H717 H 0.70871 0.12307 0.8716 0.0
H718 H 0.64699 0.07629 0.92727 0.0
C719 C 0.69477 0.11409 0.92406 0.0
C720 C 0.57888 0.86556 0.0497 0.0
C721 C 0.5836 0.89476 0.05786 0.0
C722 C 0.60124 0.90677 0.07517 0.0
C723 C 0.60709 0.85975 0.07633 0.0
C724 C 0.5908 0.8486 0.05911 0.0
C725 C 0.58651 0.81657 0.0526 0.0
H726 H 0.5993 0.68742 0.07067 0.0
C727 C 0.61464 0.83545 0.08273 0.0
C728 C 0.60289 0.81027 0.06877 0.0
H729 H 0.55447 0.70129 0.02203 0.0
H730 H 0.57196 0.75554 0.03386 0.0
H731 H 0.66325 0.75678 0.07483 0.0
H732 H 0.57217 0.71785 0.09811 0.0
H733 H 0.60182 0.74177 0.11582 0.0
H734 H 0.60234 0.70778 0.10481 0.0
H735 H 0.65387 0.73162 0.09338 0.0
H736 H 0.67199 0.77468 0.09739 0.0
C737 C 0.60468 0.82064 0.03517 0.0
C738 C 0.54978 0.79202 0.04983 0.0
C739 C 0.66182 0.84619 0.1482 0.0
C740 C 0.66861 0.82563 0.15805 0.0
C741 C 0.66617 0.79812 0.14873 0.0
C742 C 0.65562 0.79025 0.13012 0.0
C743 C 0.64701 0.80987 0.12071 0.0
C744 C 0.65098 0.83779 0.12955 0.0
C745 C 0.64075 0.85566 0.11711 0.0
C746 C 0.62913 0.83329 0.09958 0.0
C747 C 0.63263 0.80642 0.10192 0.0
C748 C 0.67078 0.88846 0.11464 0.0
C749 C 0.61294 0.8581 0.12549 0.0
C750 C 0.59322 0.70213 0.06256 0.0
C751 C 0.57522 0.68993 0.04547 0.0
C752 C 0.56846 0.71014 0.0352 0.0
C753 C 0.57841 0.74158 0.04217 0.0
C754 C 0.59506 0.75288 0.05967 0.0
C755 C 0.60267 0.73343 0.0694 0.0
C756 C 0.61967 0.74901 0.08794 0.0
C757 C 0.62075 0.781 0.08782 0.0
C758 C 0.60619 0.78305 0.07129 0.0
C759 C 0.65392 0.75314 0.08861 0.0
C760 C 0.59823 0.72813 0.10255 0.0
H761 H 0.62596 0.89967 0.09762 0.0
H762 H 0.56517 0.85544 0.03652 0.0
H763 H 0.53647 0.79772 0.05998 0.0
H764 H 0.54386 0.76726 0.05202 0.0
H765 H 0.53954 0.79222 0.03595 0.0
H766 H 0.62719 0.84444 0.03612 0.0
H767 H 0.58954 0.81903 0.02275 0.0
H768 H 0.61278 0.80296 0.03316 0.0
H769 H 0.66358 0.86754 0.15502 0.0
H770 H 0.67197 0.78233 0.15595 0.0
H771 H 0.65375 0.76868 0.12394 0.0
H772 H 0.693 0.88655 0.11493 0.0
H773 H 0.67454 0.90686 0.12574 0.0
H774 H 0.66939 0.89733 0.10123 0.0
H775 H 0.59582 0.83506 0.13092 0.0
H776 H 0.59818 0.86271 0.11545 0.0
H777 H 0.62239 0.87724 0.13699 0.0
H778 H 0.60573 0.92951 0.08164 0.0
C779 C 0.61307 0.88948 0.08442 0.0
C780 C 0.30924 0.85638 0.05772 0.0
C781 C 0.335 0.88671 0.06428 0.0
C782 C 0.33318 0.90074 0.08131 0.0
C783 C 0.28081 0.85429 0.08463 0.0
C784 C 0.2826 0.84102 0.06787 0.0
C785 C 0.25324 0.80929 0.06208 0.0
H786 H 0.11156 0.68534 0.0804 0.0
C787 C 0.24959 0.83145 0.09155 0.0
C788 C 0.23349 0.80525 0.0782 0.0
H789 H 0.16184 0.69794 0.03143 0.0
H790 H 0.20303 0.75033 0.04385 0.0
H791 H 0.17439 0.71717 0.10935 0.0
H792 H 0.11886 0.75369 0.08309 0.0
H793 H 0.13351 0.77603 0.10447 0.0
H794 H 0.10694 0.73306 0.1034 0.0
H795 H 0.13412 0.70642 0.11433 0.0
H796 H 0.16882 0.74099 0.12611 0.0
C797 C 0.26383 0.78368 0.06038 0.0
C798 C 0.23682 0.81267 0.04419 0.0
C799 C 0.21805 0.852 0.15447 0.0
C800 C 0.19 0.83423 0.16359 0.0
C801 C 0.16501 0.80484 0.15498 0.0
C802 C 0.16758 0.79325 0.1377 0.0
C803 C 0.1955 0.81107 0.12874 0.0
C804 C 0.22015 0.84007 0.13695 0.0
C805 C 0.24741 0.85589 0.12474 0.0
C806 C 0.23501 0.83135 0.10806 0.0
C807 C 0.20464 0.80511 0.1107 0.0
C808 C 0.2783 0.85934 0.13468 0.0
C809 C 0.25049 0.88814 0.12002 0.0
C810 C 0.1313 0.69958 0.0723 0.0
C811 C 0.13374 0.68718 0.05504 0.0
C812 C 0.15981 0.70653 0.04495 0.0
C813 C 0.18365 0.73716 0.05215 0.0
C814 C 0.1815 0.74885 0.06964 0.0
C815 C 0.15538 0.73045 0.07927 0.0
C816 C 0.1569 0.74738 0.09743 0.0
C817 C 0.18862 0.7787 0.09717 0.0
C818 C 0.2029 0.7791 0.08096 0.0
C819 C 0.15844 0.72703 0.11271 0.0
C820 C 0.12753 0.75273 0.09727 0.0
H821 H 0.30642 0.89646 0.10435 0.0
H822 H 0.3097 0.84438 0.04495 0.0
H823 H 0.24226 0.83783 0.04322 0.0
H824 H 0.21016 0.79846 0.04349 0.0
H825 H 0.24521 0.80567 0.03186 0.0
H826 H 0.28342 0.78892 0.07115 0.0
H827 H 0.27312 0.78321 0.04687 0.0
H828 H 0.24442 0.75925 0.06242 0.0
H829 H 0.23759 0.87476 0.16071 0.0
H830 H 0.14345 0.79043 0.16179 0.0
H831 H 0.14767 0.77068 0.13205 0.0
H832 H 0.27292 0.83671 0.14077 0.0
H833 H 0.28829 0.87896 0.14593 0.0
H834 H 0.29729 0.86404 0.12542 0.0
H835 H 0.22624 0.88573 0.11764 0.0
H836 H 0.26216 0.89637 0.10727 0.0
H837 H 0.26416 0.90718 0.13138 0.0
H838 H 0.35229 0.92437 0.08669 0.0
C839 C 0.30635 0.88464 0.09153 0.0
C840 C 0.30877 0.45733 0.06292 0.0
C841 C 0.33199 0.44873 0.06794 0.0
C842 C 0.32765 0.43155 0.08366 0.0
C843 C 0.27811 0.4321 0.08867 0.0
C844 C 0.28219 0.44854 0.07321 0.0
C845 C 0.25488 0.45457 0.0688 0.0
H846 H 0.10948 0.43538 0.0857 0.0
C847 C 0.24744 0.42639 0.09602 0.0
C848 C 0.23376 0.43934 0.08418 0.0
H849 H 0.16776 0.48099 0.04148 0.0
H850 H 0.20929 0.47155 0.05383 0.0
H851 H 0.12271 0.37687 0.08586 0.0
H852 H 0.16901 0.46862 0.11733 0.0
H853 H 0.16777 0.44076 0.13221 0.0
H854 H 0.13048 0.43639 0.12214 0.0
H855 H 0.10397 0.38673 0.10368 0.0
H856 H 0.12985 0.37032 0.10851 0.0
C857 C 0.23805 0.43678 0.04976 0.0
C858 C 0.26873 0.49141 0.07004 0.0
C859 C 0.21015 0.37154 0.15528 0.0
C860 C 0.1824 0.3631 0.16473 0.0
C861 C 0.15925 0.37041 0.15746 0.0
C862 C 0.16335 0.38559 0.14125 0.0
C863 C 0.19092 0.39369 0.13193 0.0
C864 C 0.21382 0.38664 0.13888 0.0
C865 C 0.2412 0.39661 0.12666 0.0
C866 C 0.2313 0.41153 0.11162 0.0
C867 C 0.20167 0.40956 0.11485 0.0
C868 C 0.2413 0.36607 0.11916 0.0
C869 C 0.27291 0.42159 0.13785 0.0
C870 C 0.13133 0.44354 0.07879 0.0
C871 C 0.13504 0.45853 0.06239 0.0
C872 C 0.16389 0.46874 0.05387 0.0
C873 C 0.18813 0.46333 0.06113 0.0
C874 C 0.18371 0.44741 0.07714 0.0
C875 C 0.1559 0.43817 0.08586 0.0
C876 C 0.15575 0.4218 0.10285 0.0
C877 C 0.18769 0.42215 0.10259 0.0
C878 C 0.20382 0.43714 0.08747 0.0
C879 C 0.1265 0.38716 0.1003 0.0
C880 C 0.1555 0.44265 0.11958 0.0
H881 H 0.29931 0.41044 0.10579 0.0
H882 H 0.31108 0.47085 0.05121 0.0
H883 H 0.28852 0.50374 0.08123 0.0
H884 H 0.25078 0.49843 0.07346 0.0
H885 H 0.27878 0.50145 0.05707 0.0
H886 H 0.23996 0.41484 0.04717 0.0
H887 H 0.24916 0.45235 0.03856 0.0
H888 H 0.21182 0.42781 0.04856 0.0
H889 H 0.22831 0.36607 0.16037 0.0
H890 H 0.13797 0.36476 0.16451 0.0
H891 H 0.14476 0.39042 0.1366 0.0
H892 H 0.21622 0.34563 0.11612 0.0
H893 H 0.25395 0.35881 0.12927 0.0
H894 H 0.25241 0.36897 0.10607 0.0
H895 H 0.26939 0.43984 0.14569 0.0
H896 H 0.29265 0.43508 0.12917 0.0
H897 H 0.28101 0.40989 0.14781 0.0
H898 H 0.34449 0.42382 0.08785 0.0
C899 C 0.30109 0.42342 0.09405 0.0
C900 C 0.51244 0.87384 0.28621 0.0
C901 C 0.54373 0.88359 0.28113 0.0
C902 C 0.5539 0.90151 0.2657 0.0
C903 C 0.50217 0.89902 0.26085 0.0
C904 C 0.49249 0.88215 0.27613 0.0
C905 C 0.45954 0.87525 0.28061 0.0
H906 H 0.32825 0.89057 0.26397 0.0
C907 C 0.47545 0.90364 0.25354 0.0
C908 C 0.45064 0.89009 0.26524 0.0
H909 H 0.35129 0.84804 0.30861 0.0
H910 H 0.39998 0.85814 0.29577 0.0
H911 H 0.40184 0.95126 0.26129 0.0
H912 H 0.35156 0.85668 0.23219 0.0
H913 H 0.37348 0.88499 0.21683 0.0
H914 H 0.34121 0.8868 0.22747 0.0
H915 H 0.36635 0.93775 0.24586 0.0
H916 H 0.40564 0.95408 0.23754 0.0
C917 C 0.46307 0.89279 0.2997 0.0
C918 C 0.43713 0.83829 0.27932 0.0
C919 C 0.48463 0.95628 0.19409 0.0
C920 C 0.4634 0.96211 0.18319 0.0
C921 C 0.43285 0.95343 0.18928 0.0
C922 C 0.42372 0.93936 0.20591 0.0
C923 C 0.44517 0.9335 0.21657 0.0
C924 C 0.47501 0.94183 0.21051 0.0
C925 C 0.49442 0.93299 0.2232 0.0
C926 C 0.47133 0.91772 0.2378 0.0
C927 C 0.4425 0.9183 0.23402 0.0
C928 C 0.52538 0.96425 0.231 0.0
C929 C 0.50079 0.90847 0.21245 0.0
C930 C 0.34384 0.88341 0.2709 0.0
C931 C 0.33609 0.86909 0.28764 0.0
C932 C 0.35696 0.85992 0.29607 0.0
C933 C 0.38532 0.86569 0.28851 0.0
C934 C 0.39335 0.88091 0.27223 0.0
C935 C 0.37267 0.88918 0.26348 0.0
C936 C 0.38543 0.90458 0.24602 0.0
C937 C 0.41769 0.90535 0.24629 0.0
C938 C 0.42188 0.89128 0.26172 0.0
C939 C 0.38998 0.93872 0.24759 0.0
C940 C 0.36172 0.88239 0.22968 0.0
H941 H 0.54257 0.92268 0.24398 0.0
H942 H 0.50331 0.85984 0.29778 0.0
H943 H 0.44269 0.8265 0.26775 0.0
H944 H 0.41136 0.83068 0.27648 0.0
H945 H 0.44024 0.82828 0.29207 0.0
H946 H 0.48767 0.91401 0.30285 0.0
H947 H 0.45877 0.87665 0.31079 0.0
H948 H 0.4468 0.90283 0.30053 0.0
H949 H 0.50807 0.96217 0.18974 0.0
H950 H 0.41608 0.95781 0.18125 0.0
H951 H 0.40028 0.93352 0.20982 0.0
H952 H 0.52082 0.98472 0.2325 0.0
H953 H 0.5451 0.9709 0.22183 0.0
H954 H 0.53403 0.96261 0.24492 0.0
H955 H 0.47883 0.89069 0.20363 0.0
H956 H 0.50675 0.89411 0.22139 0.0
H957 H 0.52059 0.92068 0.20343 0.0
H958 H 0.57802 0.91021 0.26157 0.0
C959 C 0.53332 0.90907 0.25553 0.0
C960 C 0.10799 0.46715 0.29341 0.0
C961 C 0.10504 0.43919 0.28454 0.0
C962 C 0.08938 0.42872 0.26666 0.0
C963 C 0.07954 0.47344 0.26708 0.0
C964 C 0.09518 0.48376 0.2845 0.0
C965 C 0.09657 0.51392 0.29216 0.0
H966 H 0.0589 0.62988 0.28253 0.0
C967 C 0.06831 0.49579 0.26203 0.0
C968 C 0.07805 0.51935 0.27677 0.0
H969 H 0.1225 0.62524 0.32486 0.0
H970 H 0.10966 0.57336 0.31168 0.0
H971 H 0.08882 0.61408 0.25233 0.0
H972 H 0.00274 0.55247 0.27747 0.0
H973 H 0.99422 0.54213 0.25369 0.0
H974 H 0.00602 0.58236 0.26275 0.0
H975 H 0.05105 0.61155 0.24579 0.0
H976 H 0.06317 0.58538 0.23474 0.0
C977 C 0.13255 0.54093 0.29493 0.0
C978 C 0.07875 0.50673 0.30986 0.0
C979 C 0.01365 0.48454 0.1986 0.0
C980 C 0.00205 0.50302 0.19035 0.0
C981 C 1.00061 0.5272 0.20117 0.0
C982 C 0.0121 0.53411 0.21966 0.0
C983 C 0.02548 0.51688 0.22743 0.0
C984 C 0.02529 0.49194 0.21715 0.0
C985 C 0.04017 0.4761 0.22802 0.0
C986 C 0.05072 0.4968 0.24614 0.0
C987 C 0.0421 0.52067 0.24559 0.0
C988 C 0.0693 0.47897 0.2183 0.0
C989 C 0.01353 0.44114 0.23006 0.0
C990 C 0.07025 0.61791 0.28903 0.0
C991 C 0.09192 0.63219 0.30483 0.0
C992 C 0.10535 0.61498 0.31289 0.0
C993 C 0.0983 0.5849 0.30501 0.0
C994 C 0.07822 0.57204 0.28863 0.0
C995 C 0.06447 0.58843 0.28095 0.0
C996 C 0.04654 0.57285 0.26258 0.0
C997 C 0.05189 0.54439 0.26051 0.0
C998 C 0.07 0.54383 0.27592 0.0
C999 C 0.06288 0.59705 0.24803 0.0
C1000 C 0.01047 0.56199 0.26401 0.0
H1001 H 0.06493 0.43652 0.24434 0.0
H1002 H 0.11947 0.4757 0.3072 0.0
H1003 H 0.05603 0.48309 0.30791 0.0
H1004 H 0.07136 0.52437 0.31385 0.0
H1005 H 0.09397 0.50589 0.3215 0.0
H1006 H 0.14792 0.53566 0.28616 0.0
H1007 H 0.14252 0.54408 0.30937 0.0
H1008 H 0.13618 0.56424 0.29088 0.0
H1009 H 0.01494 0.46572 0.19062 0.0
H1010 H 0.99107 0.54122 0.19522 0.0
H1011 H 0.0109 0.55322 0.22704 0.0
H1012 H 0.08345 0.50321 0.21335 0.0
H1013 H 0.06117 0.46097 0.20627 0.0
H1014 H 0.08658 0.47617 0.22742 0.0
H1015 H 0.98972 0.43954 0.2312 0.0
H1016 H 0.01785 0.43179 0.24267 0.0
H1017 H 0.01097 0.42485 0.21802 0.0
H1018 H 0.08713 0.40747 0.25939 0.0
C1019 C 0.07656 0.44565 0.25791 0.0
C1020 C 0.36249 0.47111 0.29236 0.0
C1021 C 0.33613 0.44176 0.28486 0.0
C1022 C 0.33653 0.43071 0.26667 0.0
C1023 C 0.38896 0.4775 0.26421 0.0
C1024 C 0.38813 0.48858 0.28183 0.0
C1025 C 0.41675 0.52096 0.28768 0.0
H1026 H 0.55759 0.64723 0.26917 0.0
C1027 C 0.41939 0.50159 0.25718 0.0
C1028 C 0.43545 0.52719 0.2709 0.0
H1029 H 0.50523 0.63637 0.31711 0.0
H1030 H 0.46438 0.58335 0.30489 0.0
H1031 H 0.54928 0.57938 0.26625 0.0
H1032 H 0.49509 0.61728 0.24001 0.0
H1033 H 0.49967 0.59295 0.22315 0.0
H1034 H 0.535 0.62709 0.23483 0.0
H1035 H 0.56179 0.60047 0.24613 0.0
H1036 H 0.53507 0.5575 0.24473 0.0
C1037 C 0.43532 0.5177 0.30458 0.0
C1038 C 0.40455 0.54507 0.29105 0.0
C1039 C 0.45241 0.48217 0.19461 0.0
C1040 C 0.48068 0.50018 0.18575 0.0
C1041 C 0.50524 0.52976 0.19438 0.0
C1042 C 0.50203 0.5413 0.2115 0.0
C1043 C 0.47393 0.52318 0.22026 0.0
C1044 C 0.44971 0.49402 0.21198 0.0
C1045 C 0.42205 0.47801 0.22388 0.0
C1046 C 0.43394 0.50242 0.24059 0.0
C1047 C 0.4642 0.52888 0.23814 0.0
C1048 C 0.41897 0.44576 0.2286 0.0
C1049 C 0.39138 0.4746 0.21362 0.0
C1050 C 0.53715 0.63354 0.27695 0.0
C1051 C 0.53465 0.64605 0.29412 0.0
C1052 C 0.50795 0.62717 0.30395 0.0
C1053 C 0.48406 0.59644 0.29674 0.0
C1054 C 0.48671 0.58442 0.27946 0.0
C1055 C 0.51295 0.60285 0.26991 0.0
C1056 C 0.51168 0.58621 0.25175 0.0
C1057 C 0.47991 0.555 0.25183 0.0
C1058 C 0.46555 0.55411 0.26809 0.0
C1059 C 0.54098 0.58069 0.25205 0.0
C1060 C 0.51051 0.60686 0.23654 0.0
H1061 H 0.36165 0.43864 0.24267 0.0
H1062 H 0.36346 0.48047 0.30626 0.0
H1063 H 0.3812 0.53716 0.28293 0.0
H1064 H 0.42105 0.56905 0.2866 0.0
H1065 H 0.40075 0.54767 0.30571 0.0
H1066 H 0.43597 0.49495 0.30292 0.0
H1067 H 0.42352 0.51742 0.31728 0.0
H1068 H 0.46085 0.53692 0.3066 0.0
H1069 H 0.43317 0.45931 0.1883 0.0
H1070 H 0.52694 0.54433 0.18772 0.0
H1071 H 0.52163 0.56403 0.21719 0.0
H1072 H 0.4432 0.44882 0.2323 0.0
H1073 H 0.40747 0.42739 0.21672 0.0
H1074 H 0.4051 0.43617 0.24052 0.0
H1075 H 0.39739 0.49602 0.20604 0.0
H1076 H 0.37343 0.47317 0.22294 0.0
H1077 H 0.37987 0.45316 0.20352 0.0
H1078 H 0.31633 0.40861 0.26023 0.0
C1079 C 0.36281 0.4483 0.25638 0.0
Eu1080 Eu 0.48856 0.97186 0.98861 0.0
Eu1081 Eu 0.51497 0.0206 0.0279 0.0
C1082 C 0.47787 0.03219 0.9946 0.0
C1083 C 0.48074 0.95376 0.93719 0.0
C1084 C 0.5028 0.98619 0.93529 0.0
C1085 C 0.47212 0.94396 0.90391 0.0
C1086 C 0.50947 -0.00257 0.91788 0.0
C1087 C 0.46553 0.93273 0.92136 0.0
C1088 C 0.49414 0.97652 0.9019 0.0
C1089 C 0.47374 0.94194 0.95562 0.0
O1090 O 0.46232 0.98551 0.02891 0.0
O1091 O 0.45313 0.94273 0.00875 0.0
C1092 C 0.44542 0.95508 0.02278 0.0
O1093 O 0.52168 0.95973 1.00493 0.0
O1094 O 0.50791 0.04904 0.04947 0.0
O1095 O 0.54906 0.04206 0.05228 0.0
O1096 O 0.51411 0.97494 0.03344 0.0
C1097 C 0.52402 0.95954 0.02282 0.0
O1098 O 0.53041 0.0189 0.98294 0.0
O1099 O 0.55829 0.03774 0.01137 0.0
O1100 O 0.50255 0.04659 1.00711 0.0
O1101 O 0.49861 0.94704 0.96637 0.0
O1102 O 0.45422 0.94828 0.96434 0.0
O1103 O 0.46434 0.00143 0.98951 0.0
C1104 C 0.522 0.03922 0.07876 0.0
C1105 C 0.50519 0.00603 0.08046 0.0
C1106 C 0.51979 0.0486 0.11147 0.0
C1107 C 0.4953 0.99418 0.09741 0.0
C1108 C 0.52928 0.06044 0.0944 0.0
C1109 C 0.50245 0.01529 0.11317 0.0
C1110 C 0.53121 0.05129 0.0606 0.0
C1111 C 0.55727 0.03639 0.99339 0.0
H1112 H 0.51479 0.00295 0.94728 0.0
H1113 H 0.46009 0.92702 0.89198 0.0
H1114 H 0.52616 0.0227 0.91698 0.0
H1115 H 0.44853 0.9076 0.92247 0.0
H1116 H 0.49975 0.98926 0.06862 0.0
H1117 H 0.52555 0.06552 0.1233 0.0
H1118 H 0.48245 0.96844 0.09823 0.0
H1119 H 0.54221 0.08613 0.09341 0.0
Eu1120 Eu 0.02066 0.50601 0.99009 0.0
Eu1121 Eu 0.97765 0.49185 0.02582 0.0
C1122 C 0.95897 0.43841 0.99264 0.0
C1123 C 0.04601 0.51603 0.9418 0.0
C1124 C 0.01371 0.50102 0.93458 0.0
C1125 C 0.06328 0.5275 0.91123 0.0
C1126 C 0.00622 0.49881 0.91575 0.0
C1127 C 0.07075 0.52954 0.93009 0.0
C1128 C 0.03092 0.51176 0.90386 0.0
C1129 C 0.05388 0.5177 0.96152 0.0
O1130 O 0.02382 0.49372 0.03619 0.0
O1131 O 0.03572 0.47911 0.00871 0.0
C1132 C 0.03931 0.48262 0.02671 0.0
O1133 O 0.05156 0.54488 0.01225 0.0
O1134 O 0.94997 0.4583 0.04546 0.0
O1135 O 0.954 0.50508 0.04641 0.0
O1136 O 0.01161 0.54514 0.02792 0.0
C1137 C 0.04157 0.55917 0.0237 0.0
O1138 O 0.98742 0.52545 0.98424 0.0
O1139 O 0.94744 0.49672 1.00294 0.0
O1140 O 0.96369 0.44468 0.01045 0.0
O1141 O 0.05182 0.53971 0.97149 0.0
O1142 O 0.04097 0.49025 0.96873 0.0
O1143 O 0.9735 0.46107 0.98169 0.0
C1144 C 0.95271 0.48274 0.07435 0.0
C1145 C 0.98455 0.50343 0.08176 0.0
C1146 C 0.93691 0.46722 0.10473 0.0
C1147 C 0.99247 0.50621 0.10058 0.0
C1148 C 0.92897 0.4646 0.08589 0.0
C1149 C 0.96873 0.48813 0.11226 0.0
C1150 C 0.94451 0.47879 0.05454 0.0
C1151 C 0.95808 0.51468 0.98918 0.0
H1152 H 0.99432 0.49079 0.9435 0.0
H1153 H 0.08277 0.53746 0.90237 0.0
H1154 H 0.98109 0.48691 0.91047 0.0
H1155 H 0.09581 0.54135 0.93552 0.0
H1156 H 0.00329 0.51724 0.07296 0.0
H1157 H 0.9181 0.45323 0.11344 0.0
H1158 H 0.01727 0.52219 0.10597 0.0
H1159 H 0.90433 0.44832 0.08032 0.0
Eu1160 Eu 0.51402 0.48912 0.02684 0.0
Eu1161 Eu 0.48128 0.50012 0.98885 0.0
C1162 C 0.52189 0.55641 0.02003 0.0
C1163 C 0.52707 0.48025 0.07656 0.0
C1164 C 0.5076 0.49333 0.08098 0.0
C1165 C 0.52629 0.46491 0.1076 0.0
C1166 C 0.4977 0.49242 0.09863 0.0
C1167 C 0.53616 0.46584 0.08991 0.0
C1168 C 0.50705 0.47834 0.1122 0.0
C1169 C 0.5363 0.48007 0.05779 0.0
O1170 O 0.52433 0.49674 0.98056 0.0
O1171 O 0.55451 0.51158 0.0083 0.0
C1172 C 0.5521 0.50764 0.99028 0.0
O1173 O 0.49851 0.44565 0.00737 0.0
O1174 O 0.47813 0.53319 0.97057 0.0
O1175 O 0.45111 0.48214 0.96299 0.0
O1176 O 0.45765 0.44699 0.9905 0.0
C1177 C 0.47193 0.43158 0.99638 0.0
O1178 O 0.46245 0.47219 0.03203 0.0
O1179 O 0.44676 0.49577 0.01023 0.0
O1180 O 0.51923 0.54808 1.0025 0.0
O1181 O 0.51447 0.45681 0.04641 0.0
O1182 O 0.54943 0.50762 0.05066 0.0
O1183 O 0.51285 0.5348 0.03188 0.0
C1184 C 0.47475 0.51569 0.93947 0.0
C1185 C 0.49498 0.50364 0.93472 0.0
C1186 C 0.47883 0.53591 0.90947 0.0
C1187 C 0.50661 0.5072 0.91741 0.0
C1188 C 0.46717 0.53229 0.92684 0.0
C1189 C 0.4983 0.52296 0.90442 0.0
C1190 C 0.4614 0.51063 0.95746 0.0
C1191 C 0.44235 0.48102 0.02541 0.0
H1192 H 0.50013 0.50434 0.07077 0.0
H1193 H 0.53361 0.45358 0.11765 0.0
H1194 H 0.48333 0.50341 0.10175 0.0
H1195 H 0.55079 0.4552 0.08663 0.0
H1196 H 0.50117 0.49076 0.94427 0.0
H1197 H 0.47228 0.54855 0.89992 0.0
H1198 H 0.52109 0.49648 0.91398 0.0
H1199 H 0.45185 0.54204 0.9303 0.0
Eu1200 Eu 0.15444 0.30163 0.32098 0.0
Eu1201 Eu 0.18093 0.35312 0.3593 0.0
C1202 C 0.14941 0.36587 0.32431 0.0
C1203 C 0.14324 0.28345 0.26988 0.0
C1204 C 0.1638 0.31637 0.26835 0.0
C1205 C 0.13708 0.27435 0.23658 0.0
C1206 C 0.17107 0.32816 0.25111 0.0
C1207 C 0.12996 0.26254 0.25386 0.0
C1208 C 0.15781 0.30735 0.23495 0.0
C1209 C 0.13659 0.27111 0.28818 0.0
O1210 O 0.12754 0.31895 0.35782 0.0
O1211 O 0.12198 0.27382 0.34257 0.0
C1212 C 0.11325 0.28764 0.35518 0.0
O1213 O 0.17891 0.28158 0.33829 0.0
O1214 O 0.1689 0.37905 0.37986 0.0
O1215 O 0.2121 0.37601 0.38469 0.0
O1216 O 0.19105 0.31365 0.36543 0.0
C1217 C 0.19062 0.28995 0.35551 0.0
O1218 O 0.20272 0.34279 0.3159 0.0
O1219 O 0.22406 0.37632 0.34281 0.0
O1220 O 0.1733 0.37994 0.33724 0.0
O1221 O 0.16171 0.27533 0.29834 0.0
O1222 O 0.11815 0.27819 0.29754 0.0
O1223 O 0.13388 0.33463 0.32045 0.0
C1224 C 0.18122 0.37003 0.40981 0.0
C1225 C 0.15775 0.33763 0.41053 0.0
C1226 C 0.18568 0.37703 0.44316 0.0
C1227 C 0.14828 0.32503 0.42739 0.0
C1228 C 0.19506 0.38963 0.42625 0.0
C1229 C 0.1622 0.34449 0.44399 0.0
C1230 C 0.19174 0.3829 0.39195 0.0
C1231 C 0.22617 0.36778 0.32581 0.0
H1232 H 0.17428 0.33301 0.28052 0.0
H1233 H 0.12662 0.25754 0.22448 0.0
H1234 H 0.18669 0.35372 0.25046 0.0
H1235 H 0.11419 0.23705 0.25471 0.0
H1236 H 0.14693 0.32193 0.39802 0.0
H1237 H 0.19667 0.39289 0.45558 0.0
H1238 H 0.1305 0.29982 0.4274 0.0
H1239 H 0.21324 0.41467 0.42603 0.0
Eu1240 Eu 0.69062 0.84138 0.32283 0.0
Eu1241 Eu 0.64738 0.82568 0.35889 0.0
C1242 C 0.62835 0.7741 0.32473 0.0
C1243 C 0.71521 0.85017 0.27437 0.0
C1244 C 0.68283 0.83468 0.26725 0.0
C1245 C 0.73206 0.86164 0.24372 0.0
C1246 C 0.67509 0.83225 0.24843 0.0
C1247 C 0.73978 0.86389 0.26257 0.0
C1248 C 0.69963 0.84547 0.23646 0.0
C1249 C 0.72336 0.85227 0.29408 0.0
O1250 O 0.69401 0.82868 0.3691 0.0
O1251 O 0.70664 0.81527 0.34154 0.0
C1252 C 0.7101 0.81849 0.35954 0.0
O1253 O 0.72063 0.88276 0.3438 0.0
O1254 O 0.62083 0.79067 0.3781 0.0
O1255 O 0.62153 0.83597 0.3794 0.0
O1256 O 0.68325 0.87836 0.36381 0.0
C1257 C 0.71155 0.89442 0.35735 0.0
O1258 O 0.65697 0.86015 0.31681 0.0
O1259 O 0.61821 0.83371 0.33671 0.0
O1260 O 0.63397 0.77942 0.34256 0.0
O1261 O 0.7215 0.87452 0.30391 0.0
O1262 O 0.71055 0.82504 0.30153 0.0
O1263 O 0.64283 0.79737 0.31416 0.0
C1264 C 0.62147 0.81342 0.40712 0.0
C1265 C 0.65339 0.83343 0.41459 0.0
C1266 C 0.60513 0.79834 0.43749 0.0
C1267 C 0.66111 0.83606 0.43343 0.0
C1268 C 0.59741 0.79582 0.41862 0.0
C1269 C 0.63705 0.81858 0.44509 0.0
C1270 C 0.61351 0.80967 0.38729 0.0
C1271 C 0.62836 0.85077 0.32254 0.0
H1272 H 0.66356 0.82429 0.27624 0.0
H1273 H 0.75142 0.8718 0.23479 0.0
H1274 H 0.64991 0.82001 0.24323 0.0
H1275 H 0.7649 0.87608 0.26791 0.0
H1276 H 0.67235 0.84685 0.40582 0.0
H1277 H 0.58606 0.78483 0.44615 0.0
H1278 H 0.68598 0.85152 0.43886 0.0
H1279 H 0.57269 0.78008 0.41301 0.0
Eu1280 Eu 0.18299 0.8223 0.36105 0.0
Eu1281 Eu 0.15025 0.83276 0.32281 0.0
C1282 C 0.19207 0.88973 0.35339 0.0
C1283 C 0.19513 0.81352 0.41101 0.0
C1284 C 0.17683 0.82787 0.41562 0.0
C1285 C 0.19229 0.79627 0.4417 0.0
C1286 C 0.16658 0.82669 0.43321 0.0
C1287 C 0.20257 0.79752 0.42409 0.0
C1288 C 0.17432 0.81101 0.44653 0.0
C1289 C 0.20474 0.81355 0.39229 0.0
O1290 O 0.19337 0.82943 0.31467 0.0
O1291 O 0.2235 0.8441 0.34247 0.0
C1292 C 0.2211 0.84023 0.32443 0.0
O1293 O 0.16768 0.77873 0.34172 0.0
O1294 O 0.14604 0.86512 0.30438 0.0
O1295 O 0.12039 0.81402 0.29689 0.0
O1296 O 0.12649 0.77975 0.32505 0.0
C1297 C 0.14093 0.76446 0.33087 0.0
O1298 O 0.1314 0.80549 0.36603 0.0
O1299 O 0.11624 0.82947 0.34425 0.0
O1300 O 0.18892 0.88086 0.33591 0.0
O1301 O 0.18329 0.79017 0.38081 0.0
O1302 O 0.21784 0.84109 0.38515 0.0
O1303 O 0.18254 0.86845 0.36544 0.0
C1304 C 0.14285 0.84766 0.27325 0.0
C1305 C 0.16394 0.8367 0.26847 0.0
C1306 C 0.14489 0.86648 0.24299 0.0
C1307 C 0.17496 0.84006 0.25099 0.0
C1308 C 0.13383 0.86305 0.2605 0.0
C1309 C 0.16515 0.85451 0.23789 0.0
C1310 C 0.12974 0.84233 0.29132 0.0
C1311 C 0.11165 0.81473 0.35944 0.0
H1312 H 0.17053 0.84004 0.4056 0.0
H1313 H 0.19831 0.78362 0.45151 0.0
H1314 H 0.1532 0.83868 0.43648 0.0
H1315 H 0.21621 0.78585 0.42067 0.0
H1316 H 0.17121 0.82473 0.27811 0.0
H1317 H 0.13719 0.87814 0.23335 0.0
H1318 H 0.19012 0.83012 0.24755 0.0
H1319 H 0.1178 0.87192 0.26398 0.0
Eu1320 Eu 0.82207 0.63848 0.65542 0.0
Eu1321 Eu 0.84805 0.68733 0.69458 0.0
C1322 C 0.81048 0.6983 0.66127 0.0
C1323 C 0.81497 0.62045 0.60414 0.0
C1324 C 0.8374 0.65285 0.60242 0.0
C1325 C 0.8067 0.61123 0.57084 0.0
C1326 C 0.84443 0.66437 0.58511 0.0
C1327 C 0.79976 0.59972 0.5882 0.0
C1328 C 0.8291 0.64378 0.56903 0.0
C1329 C 0.80759 0.60844 0.62249 0.0
O1330 O 0.79553 0.65154 0.69566 0.0
O1331 O 0.78708 0.60893 0.67563 0.0
C1332 C 0.77911 0.621 0.68966 0.0
O1333 O 0.85615 0.62745 0.67165 0.0
O1334 O 0.84048 0.71541 0.71614 0.0
O1335 O 0.8821 0.70918 0.71896 0.0
O1336 O 0.84814 0.64217 0.70015 0.0
C1337 C 0.85855 0.62725 0.68954 0.0
O1338 O 0.8634 0.68573 0.64954 0.0
O1339 O 0.89136 0.7054 0.67791 0.0
O1340 O 0.8351 0.71289 0.6738 0.0
O1341 O 0.83229 0.61346 0.63337 0.0
O1342 O 0.78795 0.61477 0.63107 0.0
O1343 O 0.79724 0.66755 0.65619 0.0
C1344 C 0.85484 0.70586 0.74543 0.0
C1345 C 0.83876 0.67268 0.74716 0.0
C1346 C 0.85186 0.71501 0.77808 0.0
C1347 C 0.82879 0.6607 0.76407 0.0
C1348 C 0.8614 0.72696 0.76103 0.0
C1349 C 0.83517 0.68169 0.77977 0.0
C1350 C 0.86393 0.71802 0.72727 0.0
C1351 C 0.89021 0.70387 0.65991 0.0
H1352 H 0.84941 0.66939 0.61448 0.0
H1353 H 0.79465 0.59454 0.55881 0.0
H1354 H 0.86139 0.68962 0.58437 0.0
H1355 H 0.78246 0.57462 0.58916 0.0
H1356 H 0.83391 0.65601 0.73536 0.0
H1357 H 0.85704 0.73182 0.78987 0.0
H1358 H 0.81645 0.63497 0.76491 0.0
H1359 H 0.87376 0.75265 0.76002 0.0
Eu1360 Eu 0.353 0.17597 0.65732 0.0
Eu1361 Eu 0.30909 0.15795 0.69305 0.0
C1362 C 0.29317 0.10441 0.65964 0.0
C1363 C 0.37961 0.18743 0.60925 0.0
C1364 C 0.34813 0.1654 0.60184 0.0
C1365 C 0.39615 0.19964 0.57863 0.0
C1366 C 0.3407 0.16044 0.5829 0.0
C1367 C 0.40357 0.20453 0.5976 0.0
C1368 C 0.36464 0.17753 0.5711 0.0
C1369 C 0.38714 0.1936 0.62911 0.0
O1370 O 0.34583 0.14278 0.69974 0.0
O1371 O 0.38354 0.17058 0.67955 0.0
C1372 C 0.37446 0.15335 0.69368 0.0
O1373 O 0.36426 0.22161 0.67374 0.0
O1374 O 0.27867 0.12381 0.7117 0.0
O1375 O 0.28778 0.17268 0.71433 0.0
O1376 O 0.3555 0.20314 0.70201 0.0
C1377 C 0.3695 0.22672 0.69161 0.0
O1378 O 0.3047 0.16791 0.64661 0.0
O1379 O 0.29038 0.18135 0.67353 0.0
O1380 O 0.28224 0.11493 0.67274 0.0
O1381 O 0.37607 0.21037 0.63722 0.0
O1382 O 0.38254 0.16905 0.63793 0.0
O1383 O 0.32093 0.1224 0.65297 0.0
C1384 C 0.28441 0.14739 0.74137 0.0
C1385 C 0.31678 0.16521 0.74852 0.0
C1386 C 0.2684 0.13235 0.7718 0.0
C1387 C 0.32487 0.16697 0.76725 0.0
C1388 C 0.2603 0.13077 0.75305 0.0
C1389 C 0.30075 0.15072 0.7791 0.0
C1390 C 0.27594 0.14538 0.72168 0.0
C1391 C 0.2876 0.17758 0.65549 0.0
H1392 H 0.32927 0.15228 0.61072 0.0
H1393 H 0.41513 0.21289 0.56986 0.0
H1394 H 0.31612 0.14358 0.5775 0.0
H1395 H 0.42795 0.22174 0.60318 0.0
H1396 H 0.33576 0.1778 0.73962 0.0
H1397 H 0.24932 0.1198 0.78064 0.0
H1398 H 0.35002 0.18097 0.77246 0.0
H1399 H 0.23523 0.11669 0.74767 0.0
Eu1400 Eu 0.84695 0.15729 0.6931 0.0
Eu1401 Eu 0.81428 0.16783 0.65503 0.0
C1402 C 0.85382 0.22407 0.68629 0.0
C1403 C 0.85779 0.15127 0.74283 0.0
C1404 C 0.83743 0.16406 0.74518 0.0
C1405 C 0.85442 0.13936 0.77465 0.0
C1406 C 0.82571 0.16462 0.76212 0.0
C1407 C 0.86604 0.13867 0.75759 0.0
C1408 C 0.83429 0.15257 0.77712 0.0
C1409 C 0.86851 0.14956 0.72463 0.0
O1410 O 0.8579 0.16547 0.64689 0.0
O1411 O 0.8877 0.18027 0.67478 0.0
C1412 C 0.88559 0.17659 0.65675 0.0
O1413 O 0.83332 0.11417 0.67376 0.0
O1414 O 0.81208 0.20092 0.63644 0.0
O1415 O 0.78302 0.1498 0.62953 0.0
O1416 O 0.79271 0.1147 0.65604 0.0
C1417 C 0.80743 0.09987 0.66222 0.0
O1418 O 0.79473 0.13834 0.69748 0.0
O1419 O 0.77959 0.1632 0.67634 0.0
O1420 O 0.85164 0.21596 0.66878 0.0
O1421 O 0.84711 0.12578 0.71334 0.0
O1422 O 0.88237 0.17654 0.71692 0.0
O1423 O 0.84445 0.20227 0.69802 0.0
C1424 C 0.80724 0.18198 0.60556 0.0
C1425 C 0.8272 0.16941 0.60121 0.0
C1426 C 0.81203 0.20151 0.57535 0.0
C1427 C 0.83913 0.17247 0.584 0.0
C1428 C 0.80007 0.1984 0.59262 0.0
C1429 C 0.83142 0.18824 0.57075 0.0
C1430 C 0.7943 0.17817 0.62363 0.0
C1431 C 0.77479 0.14757 0.69119 0.0
H1432 H 0.83049 0.17354 0.73385 0.0
H1433 H 0.86176 0.13023 0.78599 0.0
H1434 H 0.8099 0.17451 0.76346 0.0
H1435 H 0.88147 0.1284 0.75593 0.0
H1436 H 0.8331 0.1567 0.61102 0.0
H1437 H 0.80592 0.21413 0.56557 0.0
H1438 H 0.85352 0.16149 0.5809 0.0
H1439 H 0.785 0.20857 0.5958 0.0
C1440 C 0.36007 0.89912 0.03402 0.0
C1441 C 0.3635 0.90321 0.05339 0.0
H1442 H 0.38354 0.91163 0.00906 0.0
C1443 C 0.39454 0.92286 0.06226 0.0
H1444 H 0.33655 0.88471 0.0266 0.0
C1445 C 0.42109 0.93871 0.05212 0.0
C1446 C 0.41754 0.93483 0.03289 0.0
H1447 H 0.3985 0.92606 0.07705 0.0
H1448 H 0.44454 0.95427 0.05937 0.0
C1449 C 0.38692 0.91449 0.02388 0.0
C1450 C 0.10154 0.45691 0.03463 0.0
C1451 C 0.10895 0.46296 0.0537 0.0
H1452 H 0.07395 0.45814 0.01128 0.0
C1453 C 0.09201 0.47409 0.06407 0.0
H1454 H 0.11364 0.4477 0.02626 0.0
C1455 C 0.06895 0.48005 0.05543 0.0
C1456 C 0.06229 0.47482 0.03626 0.0
H1457 H 0.09723 0.47907 0.07879 0.0
H1458 H 0.05678 0.48925 0.06374 0.0
C1459 C 0.07859 0.46277 0.02603 0.0
C1460 C 0.54921 0.63188 0.05117 0.0
C1461 C 0.56211 0.65579 0.03889 0.0
H1462 H 0.52641 0.58181 0.05487 0.0
C1463 C 0.5617 0.64673 0.02034 0.0
H1464 H 0.5486 0.63802 0.0655 0.0
C1465 C 0.54861 0.61442 0.01419 0.0
C1466 C 0.53576 0.59056 0.0265 0.0
H1467 H 0.57174 0.66462 0.01059 0.0
H1468 H 0.5487 0.60819 0.99981 0.0
C1469 C 0.53627 0.59963 0.04505 0.0
C1470 C 0.90442 0.36646 0.95941 0.0
C1471 C 0.89363 0.34133 0.97096 0.0
H1472 H 0.93366 0.41694 0.95719 0.0
C1473 C 0.90518 0.34838 0.98953 0.0
H1474 H 0.89559 0.36189 0.94507 0.0
C1475 C 0.92658 0.37992 0.9965 0.0
C1476 C 0.93709 0.40506 0.985 0.0
H1477 H 0.89777 0.3295 0.99871 0.0
H1478 H 0.9349 0.38455 0.01092 0.0
C1479 C 0.92608 0.39803 0.96635 0.0
C1480 C 0.63933 0.53551 0.98179 0.0
C1481 C 0.63767 0.53005 0.96262 0.0
H1482 H 0.61407 0.53272 1.00545 0.0
C1483 C 0.60767 0.51819 0.9525 0.0
H1484 H 0.66212 0.54521 0.99001 0.0
C1485 C 0.57992 0.51103 0.96142 0.0
C1486 C 0.58152 0.5157 0.98066 0.0
H1487 H 0.60546 0.51354 0.93775 0.0
H1488 H 0.55715 0.50145 0.95322 0.0
C1489 C 0.61171 0.52839 0.99067 0.0
C1490 C 0.42414 0.05109 0.96462 0.0
C1491 C 0.44186 0.08474 0.96557 0.0
H1492 H 0.42138 0.00826 0.9732 0.0
C1493 C 0.47128 0.10116 0.97665 0.0
H1494 H 0.40112 0.03773 0.95653 0.0
C1495 C 0.48275 0.08426 0.98649 0.0
C1496 C 0.46514 0.0506 0.98534 0.0
H1497 H 0.48573 0.1271 0.97751 0.0
H1498 H 0.50568 0.09752 0.99469 0.0
C1499 C 0.43567 0.03423 0.97435 0.0
C1500 C 0.63453 0.10384 0.9786 0.0
C1501 C 0.64075 0.08816 0.96386 0.0
H1502 H 0.60373 0.09953 0.99989 0.0
C1503 C 0.6196 0.05502 0.95966 0.0
H1504 H 0.64947 0.12943 0.98208 0.0
C1505 C 0.59272 0.03839 0.96947 0.0
C1506 C 0.58687 0.05414 0.98412 0.0
H1507 H 0.62369 0.0417 0.94883 0.0
H1508 H 0.5765 0.01302 0.96566 0.0
C1509 C 0.60817 0.08686 0.98881 0.0
C1510 C 0.91884 0.53447 0.94971 0.0
C1511 C 0.89548 0.53901 0.95817 0.0
H1512 H 0.95698 0.52359 0.95289 0.0
C1513 C 0.89298 0.53517 0.97707 0.0
H1514 H 0.92124 0.53636 0.93518 0.0
C1515 C 0.91283 0.52666 0.98707 0.0
C1516 C 0.93634 0.5227 0.97859 0.0
H1517 H 0.87602 0.53917 0.98432 0.0
H1518 H 0.91029 0.52395 1.00156 0.0
C1519 C 0.93925 0.52684 0.95984 0.0
C1520 C 0.44154 0.34307 0.99653 0.0
C1521 C 0.43256 0.33264 0.97777 0.0
H1522 H 0.46188 0.38298 0.01703 0.0
C1523 C 0.43604 0.35533 0.96538 0.0
H1524 H 0.43855 0.32638 1.00659 0.0
C1525 C 0.4481 0.3874 0.97156 0.0
C1526 C 0.458 0.39766 0.99012 0.0
H1527 H 0.43037 0.34872 0.9508 0.0
H1528 H 0.45073 0.40441 0.96174 0.0
C1529 C 0.4547 0.37541 1.00258 0.0
C1530 C 0.07677 0.64121 0.04946 0.0
C1531 C 0.10988 0.654 0.04761 0.0
H1532 H 0.02906 0.60107 0.04331 0.0
C1533 C 0.12026 0.63497 0.03833 0.0
H1534 H 0.06804 0.65539 0.05642 0.0
C1535 C 0.09802 0.60418 0.03065 0.0
C1536 C 0.0649 0.59154 0.03224 0.0
H1537 H 0.14566 0.64383 0.03705 0.0
H1538 H 0.10689 0.59027 0.02352 0.0
C1539 C 0.05447 0.61019 0.04188 0.0
C1540 C 0.35822 0.46027 0.03781 0.0
C1541 C 0.36041 0.45762 0.05687 0.0
H1542 H 0.38227 0.47021 0.01296 0.0
C1543 C 0.39022 0.4638 0.06528 0.0
H1544 H 0.33571 0.45517 0.0306 0.0
C1545 C 0.41656 0.47158 0.05501 0.0
C1546 C 0.41429 0.47412 0.03604 0.0
H1547 H 0.3935 0.46296 0.0799 0.0
H1548 H 0.43893 0.47586 0.06204 0.0
C1549 C 0.38492 0.46876 0.02757 0.0
C1550 C 0.56836 0.91353 0.02967 0.0
C1551 C 0.56882 0.91172 0.04875 0.0
H1552 H 0.55373 0.92991 1.00644 0.0
C1553 C 0.55395 0.92525 0.05908 0.0
H1554 H 0.57984 0.90356 0.02135 0.0
C1555 C 0.53912 0.94036 0.05057 0.0
C1556 C 0.53869 0.94227 0.03151 0.0
H1557 H 0.5533 0.92371 0.07373 0.0
H1558 H 0.52795 0.95053 0.05901 0.0
C1559 C 0.55342 0.92863 0.02112 0.0
C1560 C 0.05217 0.26721 0.39029 0.0
C1561 C 0.04011 0.23422 0.39127 0.0
H1562 H 0.08406 0.30961 0.37803 0.0
C1563 C 0.05213 0.21867 0.37999 0.0
H1564 H 0.04314 0.27991 0.39847 0.0
C1565 C 0.07531 0.23566 0.36789 0.0
C1566 C 0.08714 0.26861 0.36691 0.0
H1567 H 0.04374 0.19334 0.38056 0.0
H1568 H 0.08428 0.22311 0.35954 0.0
C1569 C 0.07539 0.28416 0.37833 0.0
C1570 C 0.77241 0.79292 0.36766 0.0
C1571 C 0.77933 0.79857 0.38678 0.0
H1572 H 0.74536 0.79464 0.34418 0.0
C1573 C 0.76215 0.8095 0.39707 0.0
H1574 H 0.7847 0.78388 0.35935 0.0
C1575 C 0.73929 0.8156 0.38832 0.0
C1576 C 0.7331 0.81077 0.36912 0.0
H1577 H 0.76702 0.8142 0.41181 0.0
H1578 H 0.7269 0.82458 0.39658 0.0
C1579 C 0.74967 0.79897 0.35895 0.0
C1580 C 0.22203 0.96614 0.38405 0.0
C1581 C 0.23558 0.98974 0.37164 0.0
H1582 H 0.19766 0.91618 0.38805 0.0
C1583 C 0.23481 0.98016 0.35313 0.0
H1584 H 0.22159 0.97267 0.39834 0.0
C1585 C 0.22065 0.94763 0.34716 0.0
C1586 C 0.20708 0.92411 0.35961 0.0
H1587 H 0.24526 -0.00221 0.34327 0.0
H1588 H 0.22043 0.94097 0.33281 0.0
C1589 C 0.20804 0.93371 0.37812 0.0
C1590 C 0.57259 0.7042 0.29046 0.0
C1591 C 0.55956 0.67873 0.30175 0.0
H1592 H 0.60464 0.75443 0.28886 0.0
C1593 C 0.57008 0.68477 0.32047 0.0
H1594 H 0.56469 0.70033 0.276 0.0
C1595 C 0.59266 0.71571 0.32785 0.0
C1596 C 0.60536 0.74127 0.31664 0.0
H1597 H 0.56093 0.66555 0.32946 0.0
H1598 H 0.60007 0.71953 0.34238 0.0
C1599 C 0.59535 0.73519 0.29784 0.0
C1600 C 0.30848 0.86914 0.31585 0.0
C1601 C 0.30676 0.86361 0.29669 0.0
H1602 H 0.28321 0.86608 0.33955 0.0
C1603 C 0.27666 0.85125 0.28661 0.0
H1604 H 0.33135 0.87921 0.32404 0.0
C1605 C 0.24887 0.84373 0.29557 0.0
C1606 C 0.25054 0.8485 0.3148 0.0
H1607 H 0.27441 0.84651 0.27186 0.0
H1608 H 0.22603 0.83379 0.28739 0.0
C1609 C 0.2808 0.86164 0.32478 0.0
C1610 C 0.09925 0.38687 0.2927 0.0
C1611 C 0.11725 0.42055 0.29424 0.0
H1612 H 0.09514 0.34334 0.30102 0.0
C1613 C 0.14622 0.43623 0.30573 0.0
H1614 H 0.07658 0.37404 0.28424 0.0
C1615 C 0.15667 0.4186 0.31565 0.0
C1616 C 0.13848 0.38493 0.31418 0.0
H1617 H 0.16092 0.46216 0.30702 0.0
H1618 H 0.17908 0.43133 0.32436 0.0
C1619 C 0.10979 0.36928 0.30249 0.0
C1620 C 0.29902 0.43838 0.30909 0.0
C1621 C 0.30853 0.42292 0.29598 0.0
H1622 H 0.26594 0.43305 0.32917 0.0
C1623 C 0.29153 0.38919 0.29368 0.0
H1624 H 0.311 0.4643 0.31108 0.0
C1625 C 0.26531 0.37151 0.30375 0.0
C1626 C 0.25578 0.38699 0.31667 0.0
H1627 H 0.29846 0.37627 0.28415 0.0
H1628 H 0.25237 0.34555 0.30138 0.0
C1629 C 0.27315 0.42056 0.31949 0.0
C1630 C 0.56362 0.872 0.31085 0.0
C1631 C 0.56555 0.87523 0.29187 0.0
H1632 H 0.58149 0.86128 0.33533 0.0
C1633 C 0.58841 0.87011 0.28324 0.0
H1634 H 0.547 0.87641 0.3182 0.0
C1635 C 0.60888 0.86246 0.29327 0.0
C1636 C 0.60658 0.85894 0.31212 0.0
H1637 H 0.59032 0.87153 0.26865 0.0
H1638 H 0.62616 0.85869 0.28616 0.0
C1639 C 0.58358 0.86353 0.32078 0.0
C1640 C 0.10461 0.68833 0.29975 0.0
C1641 C 0.10262 0.66581 0.3119 0.0
H1642 H 0.11778 0.73712 0.29643 0.0
C1643 C 0.11266 0.67625 0.33058 0.0
H1644 H 0.09814 0.68176 0.2852 0.0
C1645 C 0.12539 0.70849 0.33677 0.0
C1646 C 0.12722 0.73058 0.32454 0.0
H1647 H 0.11088 0.65967 0.34046 0.0
H1648 H 0.13345 0.71609 0.35114 0.0
C1649 C 0.11625 0.72025 0.30609 0.0
C1650 C 0.76061 0.96365 0.39315 0.0
C1651 C 0.78237 0.98719 0.38249 0.0
H1652 H 0.7207 0.91579 0.39344 0.0
C1653 C 0.77921 0.98023 0.36338 0.0
H1654 H 0.7625 0.96787 0.40791 0.0
C1655 C 0.75597 0.95011 0.35525 0.0
C1656 C 0.73474 0.9266 0.36596 0.0
H1657 H 0.79479 -0.00202 0.35463 0.0
H1658 H 0.75452 0.94523 0.34055 0.0
C1659 C 0.73675 0.93373 0.38491 0.0
C1660 C 0.02778 0.79471 0.37179 0.0
C1661 C 0.03003 0.79234 0.39088 0.0
H1662 H 0.05174 0.80415 0.34692 0.0
C1663 C 0.05981 0.79853 0.39933 0.0
H1664 H 0.00527 0.78959 0.36457 0.0
C1665 C 0.08608 0.80603 0.38906 0.0
C1666 C 0.08374 0.80826 0.37006 0.0
H1667 H 0.06309 0.79788 0.41397 0.0
H1668 H 0.10846 0.81033 0.39611 0.0
C1669 C 0.05441 0.80293 0.36156 0.0
C1670 C 0.20431 0.22274 0.36903 0.0
C1671 C 0.23027 0.23887 0.38269 0.0
H1672 H 0.17168 0.22638 0.34949 0.0
C1673 C 0.24321 0.27202 0.38692 0.0
H1674 H 0.19319 0.19712 0.36561 0.0
C1675 C 0.23015 0.28842 0.37806 0.0
C1676 C 0.20437 0.27227 0.36445 0.0
H1677 H 0.26365 0.28551 0.39698 0.0
H1678 H 0.24057 0.31392 0.38172 0.0
C1679 C 0.19177 0.23939 0.35984 0.0
C1680 C 0.72928 0.5883 0.72952 0.0
C1681 C 0.6984 0.56707 0.72086 0.0
H1682 H 0.77864 0.62169 0.72631 0.0
C1683 C 0.69483 0.5621 0.70152 0.0
H1684 H 0.73344 0.59222 0.7443 0.0
C1685 C 0.72134 0.57827 0.6912 0.0
C1686 C 0.75169 0.60029 0.69999 0.0
H1687 H 0.67143 0.54642 0.69423 0.0
H1688 H 0.7178 0.57466 0.67638 0.0
C1689 C 0.7554 0.60494 0.7192 0.0
C1690 C 0.42141 0.13654 0.73052 0.0
C1691 C 0.44428 0.13376 0.7204 0.0
H1692 H 0.38113 0.14464 0.72999 0.0
C1693 C 0.44268 0.13612 0.70136 0.0
H1694 H 0.42189 0.13515 0.74519 0.0
C1695 C 0.42004 0.14247 0.69284 0.0
C1696 C 0.39764 0.14573 0.70296 0.0
H1697 H 0.45893 0.13299 0.69288 0.0
H1698 H 0.41988 0.14452 0.6782 0.0
C1699 C 0.39812 0.14216 0.72184 0.0
C1700 C 0.88098 0.29919 0.71773 0.0
C1701 C 0.89452 0.32331 0.70561 0.0
H1702 H 0.85747 0.24899 0.72114 0.0
C1703 C 0.8945 0.31449 0.68707 0.0
H1704 H 0.88007 0.30515 0.73204 0.0
C1705 C 0.88116 0.28222 0.68076 0.0
C1706 C 0.86769 0.25816 0.6929 0.0
H1707 H 0.90504 0.33254 0.67744 0.0
H1708 H 0.8816 0.27619 0.66639 0.0
C1709 C 0.86779 0.26697 0.71145 0.0
C1710 C 0.24695 0.0313 0.62599 0.0
C1711 C 0.22963 0.0073 0.63772 0.0
H1712 H 0.28121 0.08097 0.62383 0.0
C1713 C 0.23529 0.01551 0.65676 0.0
H1714 H 0.24297 0.02618 0.61126 0.0
C1715 C 0.25626 0.0471 0.66382 0.0
C1716 C 0.27285 0.07096 0.65205 0.0
H1717 H 0.2233 -0.00235 0.6663 0.0
H1718 H 0.25953 0.05291 0.67852 0.0
C1719 C 0.26871 0.06278 0.63313 0.0
C1720 C 0.94175 0.18744 0.61931 0.0
C1721 C 0.97183 0.20047 0.62952 0.0
H1722 H 0.89095 0.16936 0.61983 0.0
C1723 C 0.97334 0.20672 0.64862 0.0
H1724 H 0.93965 0.18214 0.60462 0.0
C1725 C 0.94548 0.19913 0.65736 0.0
C1726 C 0.91524 0.18523 0.64727 0.0
H1727 H 0.99617 0.21735 0.6569 0.0
H1728 H 0.94772 0.20405 0.6721 0.0
C1729 C 0.91377 0.17987 0.62809 0.0
C1730 C 0.7567 0.71709 0.63121 0.0
C1731 C 0.77442 0.75075 0.63217 0.0
H1732 H 0.75399 0.67424 0.63979 0.0
C1733 C 0.80384 0.76715 0.64324 0.0
H1734 H 0.7337 0.70374 0.6231 0.0
C1735 C 0.81528 0.75025 0.6531 0.0
C1736 C 0.79767 0.71659 0.65195 0.0
H1737 H 0.81833 0.79309 0.6441 0.0
H1738 H 0.8382 0.76353 0.66129 0.0
C1739 C 0.76824 0.70021 0.64093 0.0
C1740 C 0.95252 0.72331 0.62605 0.0
C1741 C 0.97256 0.75676 0.62965 0.0
H1742 H 0.91073 0.6807 0.63277 0.0
C1743 C 0.9656 0.77245 0.64405 0.0
H1744 H 0.9572 0.70997 0.61551 0.0
C1745 C 0.93971 0.75519 0.65455 0.0
C1746 C 0.91958 0.72209 0.65049 0.0
H1747 H 0.97962 0.79822 0.64707 0.0
H1748 H 0.93468 0.76787 0.66533 0.0
C1749 C 0.92609 0.70634 0.63614 0.0
C1750 C 0.24262 0.18936 0.61523 0.0
C1751 C 0.22606 0.20279 0.62393 0.0
H1752 H 0.27463 0.17068 0.61825 0.0
C1753 C 0.22964 0.20749 0.64321 0.0
H1754 H 0.2401 0.18491 0.60045 0.0
C1755 C 0.24924 0.19899 0.65348 0.0
C1756 C 0.26586 0.18566 0.64475 0.0
H1757 H 0.21762 0.21817 0.6504 0.0
H1758 H 0.2516 0.20319 0.66827 0.0
C1759 C 0.26226 0.18093 0.62549 0.0
C1760 C 0.77836 0.01159 0.66231 0.0
C1761 C 0.76972 0.00119 0.64354 0.0
H1762 H 0.7979 0.05138 0.68286 0.0
C1763 C 0.77344 0.0239 0.63111 0.0
H1764 H 0.77524 0.99488 0.67239 0.0
C1765 C 0.78513 0.05591 0.63729 0.0
C1766 C 0.79445 0.0661 0.65589 0.0
H1767 H 0.76807 0.01731 0.61651 0.0
H1768 H 0.7878 0.0729 0.62745 0.0
C1769 C 0.79115 0.04387 0.66838 0.0
C1770 C 0.4243 0.29571 0.7266 0.0
C1771 C 0.4392 0.32114 0.71544 0.0
H1772 H 0.3905 0.24583 0.72782 0.0
C1773 C 0.42972 0.31562 0.69658 0.0
H1774 H 0.43132 0.29922 0.74117 0.0
C1775 C 0.40655 0.28508 0.68892 0.0
C1776 C 0.39231 0.25942 0.69997 0.0
H1777 H 0.44038 0.3349 0.6877 0.0
H1778 H 0.40016 0.28155 0.67428 0.0
C1779 C 0.40105 0.26512 0.71894 0.0
C1780 C 0.69136 0.12862 0.70406 0.0
C1781 C 0.69323 0.12451 0.72295 0.0
H1782 H 0.71555 0.13961 0.67927 0.0
C1783 C 0.72251 0.12883 0.73106 0.0
H1784 H 0.66923 0.12496 0.69707 0.0
C1785 C 0.74862 0.13628 0.72066 0.0
C1786 C 0.74674 0.14044 0.70189 0.0
H1787 H 0.72559 0.12682 0.74555 0.0
H1788 H 0.77053 0.13908 0.72747 0.0
C1789 C 0.7179 0.13686 0.69373 0.0
C1790 C 0.90393 0.58225 0.69645 0.0
C1791 C 0.90437 0.58043 0.71554 0.0
H1792 H 0.88898 0.59833 0.67319 0.0
C1793 C 0.88934 0.59377 0.72584 0.0
H1794 H 0.91553 0.5724 0.68814 0.0
C1795 C 0.87425 0.60863 0.71732 0.0
C1796 C 0.87373 0.61045 0.69825 0.0
H1797 H 0.88866 0.59222 0.7405 0.0
H1798 H 0.86289 0.6186 0.72575 0.0
C1799 C 0.88873 0.59709 0.68788 0.0
C1800 C 0.50407 0.00273 0.16403 0.0
C1801 C 0.47295 0.97658 0.1654 0.0
H1802 H 0.53767 0.03552 0.14663 0.0
C1803 C 0.45136 0.96383 0.14951 0.0
H1804 H 0.52123 0.0133 0.17601 0.0
C1805 C 0.46085 0.97646 0.13265 0.0
C1806 C 0.49205 0.00247 0.13126 0.0
H1807 H 0.42731 0.94356 0.15003 0.0
H1808 H 0.44369 0.96588 0.12067 0.0
C1809 C 0.51342 0.01564 0.14721 0.0
C1810 C 0.00443 0.52576 0.1603 0.0
C1811 C 0.9933 0.49872 0.17035 0.0
H1812 H 0.0052 0.54356 0.13414 0.0
C1813 C 0.97415 0.46799 0.16116 0.0
H1814 H 0.0196 0.54973 0.16698 0.0
C1815 C 0.96597 0.46446 0.14228 0.0
C1816 C 0.97713 0.49158 0.13226 0.0
H1817 H 0.96521 0.44677 0.1686 0.0
H1818 H 0.95122 0.44052 0.13548 0.0
C1819 C 0.99648 0.52223 0.14147 0.0
C1820 C 0.51487 0.49202 0.16393 0.0
C1821 C 0.48508 0.48933 0.16738 0.0
H1822 H 0.54523 0.491 0.1439 0.0
C1823 C 0.46123 0.47976 0.15277 0.0
H1824 H 0.53359 0.49906 0.17498 0.0
C1825 C 0.46784 0.47495 0.13487 0.0
C1826 C 0.49836 0.47944 0.1313 0.0
H1827 H 0.4381 0.4776 0.15504 0.0
H1828 H 0.44934 0.46849 0.12378 0.0
C1829 C 0.52144 0.48716 0.14612 0.0
C1830 C 0.03153 0.52832 0.8538 0.0
C1831 C 0.00828 0.49797 0.84548 0.0
H1832 H 0.0571 0.55653 0.87893 0.0
C1833 C 0.9921 0.4726 0.85651 0.0
H1834 H 0.04437 0.54825 0.84559 0.0
C1835 C 0.99925 0.4773 0.87544 0.0
C1836 C 0.02285 0.50746 0.88378 0.0
H1837 H 0.97376 0.44904 0.85047 0.0
H1838 H 0.98668 0.45712 0.88352 0.0
C1839 C 0.03893 0.53298 0.87281 0.0
C1840 C 0.54428 0.52224 0.86366 0.0
C1841 C 0.52082 0.51411 0.849 0.0
H1842 H 0.5558 0.53185 0.89275 0.0
C1843 C 0.49165 0.51278 0.85253 0.0
H1844 H 0.56694 0.52335 0.86136 0.0
C1845 C 0.48509 0.51728 0.87042 0.0
C1846 C 0.50759 0.52329 0.88529 0.0
H1847 H 0.47322 0.50684 0.84146 0.0
H1848 H 0.4616 0.51424 0.87262 0.0
C1849 C 0.53769 0.52671 0.88165 0.0
C1850 C 0.48021 0.99049 0.85236 0.0
C1851 C 0.51107 0.01473 0.8486 0.0
H1852 H 0.45064 0.95983 0.87187 0.0
C1853 C 0.53674 0.02518 0.86226 0.0
H1854 H 0.4599 0.98148 0.84212 0.0
C1855 C 0.53143 0.01251 0.8794 0.0
C1856 C 0.50035 0.98887 0.88331 0.0
H1857 H 0.56078 0.04389 0.85993 0.0
H1858 H 0.55173 0.02139 0.88962 0.0
C1859 C 0.47494 0.97777 0.86942 0.0
C1860 C 0.16687 0.32675 0.49386 0.0
C1861 C 0.1346 0.30395 0.49616 0.0
H1862 H 0.20087 0.3571 0.47584 0.0
C1863 C 0.11142 0.2949 0.48115 0.0
H1864 H 0.18538 0.33463 0.50512 0.0
C1865 C 0.12028 0.30807 0.46434 0.0
C1866 C 0.15259 0.33079 0.46203 0.0
H1867 H 0.0864 0.27722 0.48227 0.0
H1868 H 0.10168 0.30058 0.45317 0.0
C1869 C 0.17571 0.33998 0.47708 0.0
C1870 C 0.6729 0.85647 0.49309 0.0
C1871 C 0.66029 0.82968 0.50339 0.0
H1872 H 0.67522 0.87395 0.46672 0.0
C1873 C 0.64035 0.79895 0.49436 0.0
H1874 H 0.68872 0.88042 0.49964 0.0
C1875 C 0.6327 0.79523 0.4754 0.0
C1876 C 0.64519 0.82213 0.46515 0.0
H1877 H 0.63027 0.77791 0.50198 0.0
H1878 H 0.61724 0.7713 0.46874 0.0
C1879 C 0.66545 0.85275 0.4742 0.0
C1880 C 0.18072 0.82114 0.49841 0.0
C1881 C 0.15176 0.82031 0.50188 0.0
H1882 H 0.21069 0.81933 0.47837 0.0
C1883 C 0.12875 0.81326 0.48713 0.0
H1884 H 0.19879 0.82622 0.50953 0.0
C1885 C 0.13549 0.80907 0.46916 0.0
C1886 C 0.16529 0.81168 0.46561 0.0
H1887 H 0.10627 0.81257 0.4894 0.0
H1888 H 0.11766 0.80449 0.45801 0.0
C1889 C 0.18743 0.81694 0.48052 0.0
C1890 C 0.66061 0.806 0.18919 0.0
C1891 C 0.67634 0.83143 0.17814 0.0
H1892 H 0.65575 0.79054 0.2162 0.0
C1893 C 0.69935 0.86191 0.18642 0.0
H1894 H 0.64246 0.78234 0.18319 0.0
C1895 C 0.70697 0.86664 0.20541 0.0
C1896 C 0.69134 0.84106 0.21641 0.0
H1897 H 0.71184 0.88189 0.17819 0.0
H1898 H 0.72493 0.8903 0.2115 0.0
C1899 C 0.66797 0.81077 0.2081 0.0
C1900 C 0.1566 0.84253 0.186 0.0
C1901 C 0.18619 0.8451 0.18216 0.0
H1902 H 0.1267 0.84316 0.20642 0.0
C1903 C 0.21033 0.85443 0.19659 0.0
H1904 H 0.13764 0.8357 0.17512 0.0
C1905 C 0.20414 0.85898 0.21466 0.0
C1906 C 0.17374 0.85445 0.21862 0.0
H1907 H 0.23334 0.85653 0.19405 0.0
H1908 H 0.22284 0.86514 0.22557 0.0
C1909 C 0.15043 0.8471 0.20397 0.0
C1910 C 0.2021 0.35783 0.19631 0.0
C1911 C 0.17714 0.34705 0.18218 0.0
H1912 H 0.21572 0.35387 0.22395 0.0
C1913 C 0.14629 0.32199 0.18527 0.0
H1914 H 0.2261 0.37717 0.19445 0.0
C1915 C 0.14028 0.30872 0.20216 0.0
C1916 C 0.16491 0.32019 0.21654 0.0
H1917 H 0.12655 0.31281 0.17464 0.0
H1918 H 0.116 0.29009 0.20411 0.0
C1919 C 0.19603 0.34469 0.2133 0.0
C1920 C 0.83621 0.66896 0.83062 0.0
C1921 C 0.80515 0.64262 0.83184 0.0
H1922 H 0.86991 0.70206 0.81337 0.0
C1923 C 0.7838 0.62977 0.81587 0.0
H1924 H 0.85318 0.67957 0.84267 0.0
C1925 C 0.79348 0.6425 0.79905 0.0
C1926 C 0.8246 0.66873 0.7978 0.0
H1927 H 0.7598 0.60936 0.81628 0.0
H1928 H 0.77652 0.63186 0.78699 0.0
C1929 C 0.84572 0.682 0.81385 0.0
C1930 C 0.30401 0.13095 0.82833 0.0
C1931 C 0.32488 0.16156 0.83726 0.0
H1932 H 0.27978 0.10348 0.8028 0.0
C1933 C 0.33821 0.18825 0.8269 0.0
H1934 H 0.2934 0.11002 0.83603 0.0
C1935 C 0.33057 0.18455 0.80804 0.0
C1936 C 0.30929 0.15409 0.79909 0.0
H1937 H 0.35469 0.21208 0.8334 0.0
H1938 H 0.34091 0.20568 0.80049 0.0
C1939 C 0.29608 0.12727 0.8094 0.0
C1940 C 0.81778 0.1888 0.81926 0.0
C1941 C 0.80944 0.16474 0.83134 0.0
H1942 H 0.83257 0.20398 0.79291 0.0
C1943 C 0.80685 0.13546 0.82511 0.0
H1944 H 0.81985 0.21158 0.82376 0.0
C1945 C 0.81418 0.13102 0.80732 0.0
C1946 C 0.82388 0.1557 0.79548 0.0
H1947 H 0.80063 0.11665 0.83424 0.0
H1948 H 0.81278 0.10852 0.80293 0.0
C1949 C 0.82492 0.18435 0.80156 0.0
C1950 C 0.36041 0.19268 0.52109 0.0
C1951 C 0.34116 0.16129 0.51275 0.0
H1952 H 0.38293 0.22247 0.54613 0.0
C1953 C 0.32969 0.1354 0.52374 0.0
H1954 H 0.3697 0.21306 0.51294 0.0
C1955 C 0.33737 0.14073 0.54264 0.0
C1956 C 0.35671 0.17207 0.55099 0.0
H1957 H 0.31444 0.11095 0.51774 0.0
H1958 H 0.32839 0.12024 0.5507 0.0
C1959 C 0.36822 0.19802 0.54003 0.0
C1960 C 0.82713 0.17821 0.51892 0.0
C1961 C 0.85646 0.17943 0.51598 0.0
H1962 H 0.79614 0.1797 0.53839 0.0
C1963 C 0.87922 0.18743 0.53101 0.0
H1964 H 0.80925 0.17245 0.50757 0.0
C1965 C 0.8718 0.19187 0.54877 0.0
C1966 C 0.84152 0.18851 0.55183 0.0
H1967 H 0.90199 0.18848 0.52916 0.0
H1968 H 0.8894 0.19694 0.56016 0.0
C1969 C 0.81973 0.18265 0.53661 0.0
C1970 C 0.87261 0.69314 0.52985 0.0
C1971 C 0.84711 0.68333 0.51616 0.0
H1972 H 0.88712 0.68837 0.5571 0.0
C1973 C 0.81606 0.65923 0.51972 0.0
H1974 H 0.89679 0.71172 0.52766 0.0
C1975 C 0.81044 0.64603 0.53663 0.0
C1976 C 0.83568 0.6565 0.55056 0.0
H1977 H 0.79588 0.65071 0.50944 0.0
H1978 H 0.78601 0.62823 0.53895 0.0
C1979 C 0.86696 0.67998 0.54683 0.0
loop_
_geom_bond_atom_site_label_1
_geom_bond_atom_site_label_2
_geom_bond_distance
_geom_bond_site_symmetry_2
_ccdc_geom_bond_type
C0 C1 1.391 . S
C0 C4 1.391 . S
C0 H42 0.948 . S
C1 C0 1.391 . S
C1 C2 1.391 . S
C2 C1 1.391 . S
C2 H58 0.947 . S
C2 C59 1.392 . S
C3 C4 1.391 . S
C3 C7 1.397 . S
C3 C59 1.419 . S
C4 C0 1.391 . S
C4 C3 1.391 . S
C4 C5 1.399 . S
C5 C4 1.399 . S
C5 C8 1.396 . S
C5 C17 1.453 . S
C5 C18 1.684 . S
H6 C30 0.948 . S
C7 C3 1.397 . S
C7 C8 1.394 . S
C7 C26 1.723 . S
C8 C5 1.396 . S
C8 C7 1.394 . S
C8 C38 1.723 . S
H9 C32 0.947 . S
H10 C33 0.948 . S
H11 C39 0.982 . S
H12 C40 0.979 . S
H13 C40 0.980 . S
H14 C40 0.983 . S
H15 C39 0.979 . S
H16 C39 0.977 . S
C17 C5 1.453 . S
C17 H46 0.982 . S
C17 H47 0.979 . S
C17 H48 0.977 . S
C18 C5 1.684 . S
C18 H43 0.979 . S
C18 H44 0.980 . S
C18 H45 0.983 . S
C19 C20 1.391 . S
C19 C24 1.391 . S
C19 H49 0.948 . S
C20 C19 1.391 . S
C20 C21 1.391 . S
C21 C20 1.391 . S
C21 C22 1.392 . S
C21 H50 0.947 . S
C22 C21 1.392 . S
C22 C23 1.419 . S
C22 H51 0.948 . S
C23 C22 1.419 . S
C23 C24 1.391 . S
C23 C27 1.397 . S
C24 C19 1.391 . S
C24 C23 1.391 . S
C24 C25 1.399 . S
C25 C24 1.399 . S
C25 C26 1.396 . S
C25 C28 1.453 . S
C25 C29 1.684 . S
C26 C7 1.723 . S
C26 C25 1.396 . S
C26 C27 1.394 . S
C27 C23 1.397 . S
C27 C26 1.394 . S
C27 C37 1.723 . S
C28 C25 1.453 . S
C28 H52 0.982 . S
C28 H53 0.979 . S
C28 H54 0.977 . S
C29 C25 1.684 . S
C29 H55 0.979 . S
C29 H56 0.980 . S
C29 H57 0.983 . S
C30 H6 0.948 . S
C30 C31 1.391 . S
C30 C35 1.391 . S
C31 C30 1.391 . S
C31 C32 1.391 . S
C32 H9 0.947 . S
C32 C31 1.391 . S
C32 C33 1.392 . S
C33 H10 0.948 . S
C33 C32 1.392 . S
C33 C34 1.419 . S
C34 C33 1.419 . S
C34 C35 1.391 . S
C34 C38 1.397 . S
C35 C30 1.391 . S
C35 C34 1.391 . S
C35 C36 1.399 . S
C36 C35 1.399 . S
C36 C37 1.396 . S
C36 C39 1.453 . S
C36 C40 1.684 . S
C37 C27 1.723 . S
C37 C36 1.396 . S
C37 C38 1.394 . S
C38 C8 1.723 . S
C38 C34 1.397 . S
C38 C37 1.394 . S
C39 H11 0.982 . S
C39 H15 0.979 . S
C39 H16 0.977 . S
C39 C36 1.453 . S
C40 H12 0.979 . S
C40 H13 0.980 . S
C40 H14 0.983 . S
C40 C36 1.684 . S
H41 C59 0.948 . S
H42 C0 0.948 . S
H43 C18 0.979 . S
H44 C18 0.980 . S
H45 C18 0.983 . S
H46 C17 0.982 . S
H47 C17 0.979 . S
H48 C17 0.977 . S
H49 C19 0.948 . S
H50 C21 0.947 . S
H51 C22 0.948 . S
H52 C28 0.982 . S
H53 C28 0.979 . S
H54 C28 0.977 . S
H55 C29 0.979 . S
H56 C29 0.980 . S
H57 C29 0.983 . S
H58 C2 0.947 . S
C59 C2 1.392 . S
C59 C3 1.419 . S
C59 H41 0.948 . S
C60 C61 1.391 . S
C60 C64 1.391 . S
C60 H102 0.948 . S
C61 C60 1.391 . S
C61 C62 1.391 . S
C62 C61 1.391 . S
C62 H118 0.947 . S
C62 C119 1.392 . S
C63 C64 1.391 . S
C63 C67 1.397 . S
C63 C119 1.419 . S
C64 C60 1.391 . S
C64 C63 1.391 . S
C64 C65 1.399 . S
C65 C64 1.399 . S
C65 C68 1.396 . S
C65 C77 1.453 . S
C65 C78 1.684 . S
H66 C90 0.948 . S
C67 C63 1.397 . S
C67 C68 1.394 . S
C67 C86 1.723 . S
C68 C65 1.396 . S
C68 C67 1.394 . S
C68 C98 1.723 . S
H69 C92 0.947 . S
H70 C93 0.948 . S
H71 C99 0.982 . S
H72 C100 0.979 . S
H73 C100 0.980 . S
H74 C100 0.983 . S
H75 C99 0.979 . S
H76 C99 0.977 . S
C77 C65 1.453 . S
C77 H106 0.982 . S
C77 H107 0.979 . S
C77 H108 0.977 . S
C78 C65 1.684 . S
C78 H103 0.979 . S
C78 H104 0.980 . S
C78 H105 0.983 . S
C79 C80 1.391 . S
C79 C84 1.391 . S
C79 H109 0.948 . S
C80 C79 1.391 . S
C80 C81 1.391 . S
C81 C80 1.391 . S
C81 C82 1.392 . S
C81 H110 0.947 . S
C82 C81 1.392 . S
C82 C83 1.419 . S
C82 H111 0.948 . S
C83 C82 1.419 . S
C83 C84 1.391 . S
C83 C87 1.397 . S
C84 C79 1.391 . S
C84 C83 1.391 . S
C84 C85 1.399 . S
C85 C84 1.399 . S
C85 C86 1.396 . S
C85 C88 1.453 . S
C85 C89 1.684 . S
C86 C67 1.723 . S
C86 C85 1.396 . S
C86 C87 1.394 . S
C87 C83 1.397 . S
C87 C86 1.394 . S
C87 C97 1.723 . S
C88 C85 1.453 . S
C88 H112 0.982 . S
C88 H113 0.979 . S
C88 H114 0.977 . S
C89 C85 1.684 . S
C89 H115 0.979 . S
C89 H116 0.980 . S
C89 H117 0.983 . S
C90 H66 0.948 . S
C90 C91 1.391 . S
C90 C95 1.391 . S
C91 C90 1.391 . S
C91 C92 1.391 . S
C92 H69 0.947 . S
C92 C91 1.391 . S
C92 C93 1.392 . S
C93 H70 0.948 . S
C93 C92 1.392 . S
C93 C94 1.419 . S
C94 C93 1.419 . S
C94 C95 1.391 . S
C94 C98 1.397 . S
C95 C90 1.391 . S
C95 C94 1.391 . S
C95 C96 1.399 . S
C96 C95 1.399 . S
C96 C97 1.396 . S
C96 C99 1.453 . S
C96 C100 1.684 . S
C97 C87 1.723 . S
C97 C96 1.396 . S
C97 C98 1.394 . S
C98 C68 1.723 . S
C98 C94 1.397 . S
C98 C97 1.394 . S
C99 H71 0.982 . S
C99 H75 0.979 . S
C99 H76 0.977 . S
C99 C96 1.453 . S
C100 H72 0.979 . S
C100 H73 0.980 . S
C100 H74 0.983 . S
C100 C96 1.684 . S
H101 C119 0.948 . S
H102 C60 0.948 . S
H103 C78 0.979 . S
H104 C78 0.980 . S
H105 C78 0.983 . S
H106 C77 0.982 . S
H107 C77 0.979 . S
H108 C77 0.977 . S
H109 C79 0.948 . S
H110 C81 0.947 . S
H111 C82 0.948 . S
H112 C88 0.982 . S
H113 C88 0.979 . S
H114 C88 0.977 . S
H115 C89 0.979 . S
H116 C89 0.980 . S
H117 C89 0.983 . S
H118 C62 0.947 . S
C119 C62 1.392 . S
C119 C63 1.419 . S
C119 H101 0.948 . S
C120 C121 1.391 . S
C120 C124 1.391 . S
C120 H162 0.948 . S
C121 C120 1.391 . S
C121 C122 1.391 . S
C122 C121 1.391 . S
C122 H178 0.947 1_655 S
C122 C179 1.392 . S
C123 C124 1.391 . S
C123 C127 1.397 . S
C123 C179 1.419 . S
C124 C120 1.391 . S
C124 C123 1.391 . S
C124 C125 1.399 . S
C125 C124 1.399 . S
C125 C128 1.396 . S
C125 C137 1.453 . S
C125 C138 1.684 . S
H126 C150 0.948 . S
C127 C123 1.397 . S
C127 C128 1.394 . S
C127 C146 1.723 . S
C128 C125 1.396 . S
C128 C127 1.394 . S
C128 C158 1.723 . S
H129 C152 0.947 . S
H130 C153 0.948 . S
H131 C159 0.982 . S
H132 C160 0.979 . S
H133 C160 0.980 . S
H134 C160 0.983 . S
H135 C159 0.979 . S
H136 C159 0.977 . S
C137 C125 1.453 . S
C137 H166 0.982 . S
C137 H167 0.979 . S
C137 H168 0.977 . S
C138 C125 1.684 . S
C138 H163 0.979 . S
C138 H164 0.980 . S
C138 H165 0.983 . S
C139 C140 1.391 . S
C139 C144 1.391 . S
C139 H169 0.948 . S
C140 C139 1.391 . S
C140 C141 1.391 . S
C141 C140 1.391 . S
C141 C142 1.392 . S
C141 H170 0.947 . S
C142 C141 1.392 . S
C142 C143 1.419 . S
C142 H171 0.948 . S
C143 C142 1.419 . S
C143 C144 1.391 . S
C143 C147 1.397 . S
C144 C139 1.391 . S
C144 C143 1.391 . S
C144 C145 1.399 . S
C145 C144 1.399 . S
C145 C146 1.396 . S
C145 C148 1.453 . S
C145 C149 1.684 . S
C146 C127 1.723 . S
C146 C145 1.396 . S
C146 C147 1.394 . S
C147 C143 1.397 . S
C147 C146 1.394 . S
C147 C157 1.723 . S
C148 C145 1.453 . S
C148 H172 0.982 . S
C148 H173 0.979 . S
C148 H174 0.977 . S
C149 C145 1.684 . S
C149 H175 0.979 . S
C149 H176 0.980 . S
C149 H177 0.983 . S
C150 H126 0.948 . S
C150 C151 1.391 . S
C150 C155 1.391 . S
C151 C150 1.391 . S
C151 C152 1.391 . S
C152 H129 0.947 . S
C152 C151 1.391 . S
C152 C153 1.392 . S
C153 H130 0.948 . S
C153 C152 1.392 . S
C153 C154 1.419 . S
C154 C153 1.419 . S
C154 C155 1.391 . S
C154 C158 1.397 . S
C155 C150 1.391 . S
C155 C154 1.391 . S
C155 C156 1.399 . S
C156 C155 1.399 . S
C156 C157 1.396 . S
C156 C159 1.453 . S
C156 C160 1.684 . S
C157 C147 1.723 . S
C157 C156 1.396 . S
C157 C158 1.394 . S
C158 C128 1.723 . S
C158 C154 1.397 . S
C158 C157 1.394 . S
C159 H131 0.982 . S
C159 H135 0.979 . S
C159 H136 0.977 . S
C159 C156 1.453 . S
C160 H132 0.979 . S
C160 H133 0.980 . S
C160 H134 0.983 . S
C160 C156 1.684 . S
H161 C179 0.948 . S
H162 C120 0.948 . S
H163 C138 0.979 . S
H164 C138 0.980 . S
H165 C138 0.983 . S
H166 C137 0.982 . S
H167 C137 0.979 . S
H168 C137 0.977 . S
H169 C139 0.948 . S
H170 C141 0.947 . S
H171 C142 0.948 . S
H172 C148 0.982 . S
H173 C148 0.979 . S
H174 C148 0.977 . S
H175 C149 0.979 . S
H176 C149 0.980 . S
H177 C149 0.983 . S
H178 C122 0.947 1_455 S
C179 C122 1.392 . S
C179 C123 1.419 . S
C179 H161 0.948 . S
C180 C181 1.391 . S
C180 C184 1.391 . S
C180 H222 0.948 . S
C181 C180 1.391 . S
C181 C182 1.391 . S
C182 C181 1.391 . S
C182 H238 0.947 . S
C182 C239 1.392 . S
C183 C184 1.391 . S
C183 C187 1.397 . S
C183 C239 1.419 . S
C184 C180 1.391 . S
C184 C183 1.391 . S
C184 C185 1.399 . S
C185 C184 1.399 . S
C185 C188 1.396 . S
C185 C197 1.453 . S
C185 C198 1.684 . S
H186 C210 0.946 1_655 S
C187 C183 1.397 . S
C187 C188 1.394 . S
C187 C206 1.723 . S
C188 C185 1.396 . S
C188 C187 1.394 . S
C188 C218 1.723 . S
H189 C212 0.947 . S
H190 C213 0.948 . S
H191 C219 0.982 . S
H192 C220 0.979 . S
H193 C220 0.980 . S
H194 C220 0.983 . S
H195 C219 0.979 . S
H196 C219 0.977 . S
C197 C185 1.453 . S
C197 H226 0.982 . S
C197 H227 0.979 . S
C197 H228 0.977 . S
C198 C185 1.684 . S
C198 H223 0.979 . S
C198 H224 0.980 . S
C198 H225 0.983 . S
C199 C200 1.391 . S
C199 C204 1.391 . S
C199 H229 0.948 . S
C200 C199 1.391 . S
C200 C201 1.391 . S
C201 C200 1.391 . S
C201 C202 1.392 . S
C201 H230 0.947 . S
C202 C201 1.392 . S
C202 C203 1.419 . S
C202 H231 0.948 . S
C203 C202 1.419 . S
C203 C204 1.391 . S
C203 C207 1.397 . S
C204 C199 1.391 . S
C204 C203 1.391 . S
C204 C205 1.399 . S
C205 C204 1.399 . S
C205 C206 1.396 . S
C205 C208 1.453 . S
C205 C209 1.684 . S
C206 C187 1.723 . S
C206 C205 1.396 . S
C206 C207 1.394 . S
C207 C203 1.397 . S
C207 C206 1.394 . S
C207 C217 1.723 . S
C208 C205 1.453 . S
C208 H232 0.982 . S
C208 H233 0.979 . S
C208 H234 0.977 . S
C209 C205 1.684 . S
C209 H235 0.979 . S
C209 H236 0.980 . S
C209 H237 0.983 . S
C210 H186 0.946 1_455 S
C210 C211 1.391 . S
C210 C215 1.391 . S
C211 C210 1.391 . S
C211 C212 1.391 . S
C212 H189 0.947 . S
C212 C211 1.391 . S
C212 C213 1.392 . S
C213 H190 0.948 . S
C213 C212 1.392 . S
C213 C214 1.419 . S
C214 C213 1.419 . S
C214 C215 1.391 . S
C214 C218 1.397 . S
C215 C210 1.391 . S
C215 C214 1.391 . S
C215 C216 1.399 . S
C216 C215 1.399 . S
C216 C217 1.396 . S
C216 C219 1.453 . S
C216 C220 1.684 . S
C217 C207 1.723 . S
C217 C216 1.396 . S
C217 C218 1.394 . S
C218 C188 1.723 . S
C218 C214 1.397 . S
C218 C217 1.394 . S
C219 H191 0.982 . S
C219 H195 0.979 . S
C219 H196 0.977 . S
C219 C216 1.453 . S
C220 H192 0.979 . S
C220 H193 0.980 . S
C220 H194 0.983 . S
C220 C216 1.684 . S
H221 C239 0.948 . S
H222 C180 0.948 . S
H223 C198 0.979 . S
H224 C198 0.980 . S
H225 C198 0.983 . S
H226 C197 0.982 . S
H227 C197 0.979 . S
H228 C197 0.977 . S
H229 C199 0.948 . S
H230 C201 0.947 . S
H231 C202 0.948 . S
H232 C208 0.982 . S
H233 C208 0.979 . S
H234 C208 0.977 . S
H235 C209 0.979 . S
H236 C209 0.980 . S
H237 C209 0.983 . S
H238 C182 0.947 . S
C239 C182 1.392 . S
C239 C183 1.419 . S
C239 H221 0.948 . S
C240 C241 1.391 . S
C240 C244 1.391 . S
C240 H282 0.948 . S
C241 C240 1.391 . S
C241 C242 1.391 . S
C242 C241 1.391 . S
C242 H298 0.947 . S
C242 C299 1.392 . S
C243 C244 1.391 . S
C243 C247 1.397 . S
C243 C299 1.419 . S
C244 C240 1.391 . S
C244 C243 1.391 . S
C244 C245 1.399 . S
C245 C244 1.399 . S
C245 C248 1.396 . S
C245 C257 1.453 . S
C245 C258 1.684 . S
H246 C270 0.948 . S
C247 C243 1.397 . S
C247 C248 1.394 . S
C247 C266 1.723 . S
C248 C245 1.396 . S
C248 C247 1.394 . S
C248 C278 1.723 . S
H249 C272 0.947 . S
H250 C273 0.948 . S
H251 C279 0.982 . S
H252 C280 0.979 . S
H253 C280 0.980 . S
H254 C280 0.983 . S
H255 C279 0.979 . S
H256 C279 0.977 . S
C257 C245 1.453 . S
C257 H286 0.982 . S
C257 H287 0.979 . S
C257 H288 0.977 . S
C258 C245 1.684 . S
C258 H283 0.979 . S
C258 H284 0.980 . S
C258 H285 0.983 . S
C259 C260 1.391 . S
C259 C264 1.391 . S
C259 H289 0.948 . S
C260 C259 1.391 . S
C260 C261 1.391 . S
C261 C260 1.391 . S
C261 C262 1.392 . S
C261 H290 0.947 . S
C262 C261 1.392 . S
C262 C263 1.419 . S
C262 H291 0.948 . S
C263 C262 1.419 . S
C263 C264 1.391 . S
C263 C267 1.397 . S
C264 C259 1.391 . S
C264 C263 1.391 . S
C264 C265 1.399 . S
C265 C264 1.399 . S
C265 C266 1.396 . S
C265 C268 1.453 . S
C265 C269 1.684 . S
C266 C247 1.723 . S
C266 C265 1.396 . S
C266 C267 1.394 . S
C267 C263 1.397 . S
C267 C266 1.394 . S
C267 C277 1.723 . S
C268 C265 1.453 . S
C268 H292 0.982 . S
C268 H293 0.979 . S
C268 H294 0.977 . S
C269 C265 1.684 . S
C269 H295 0.979 . S
C269 H296 0.980 . S
C269 H297 0.983 . S
C270 H246 0.948 . S
C270 C271 1.391 . S
C270 C275 1.391 . S
C271 C270 1.391 . S
C271 C272 1.391 . S
C272 H249 0.947 . S
C272 C271 1.391 . S
C272 C273 1.392 . S
C273 H250 0.948 . S
C273 C272 1.392 . S
C273 C274 1.419 . S
C274 C273 1.419 . S
C274 C275 1.391 . S
C274 C278 1.397 . S
C275 C270 1.391 . S
C275 C274 1.391 . S
C275 C276 1.399 . S
C276 C275 1.399 . S
C276 C277 1.396 . S
C276 C279 1.453 . S
C276 C280 1.684 . S
C277 C267 1.723 . S
C277 C276 1.396 . S
C277 C278 1.394 . S
C278 C248 1.723 . S
C278 C274 1.397 . S
C278 C277 1.394 . S
C279 H251 0.982 . S
C279 H255 0.979 . S
C279 H256 0.977 . S
C279 C276 1.453 . S
C280 H252 0.979 . S
C280 H253 0.980 . S
C280 H254 0.983 . S
C280 C276 1.684 . S
H281 C299 0.948 . S
H282 C240 0.948 . S
H283 C258 0.979 . S
H284 C258 0.980 . S
H285 C258 0.983 . S
H286 C257 0.982 . S
H287 C257 0.979 . S
H288 C257 0.977 . S
H289 C259 0.948 . S
H290 C261 0.947 . S
H291 C262 0.948 . S
H292 C268 0.982 . S
H293 C268 0.979 . S
H294 C268 0.977 . S
H295 C269 0.979 . S
H296 C269 0.980 . S
H297 C269 0.983 . S
H298 C242 0.947 . S
C299 C242 1.392 . S
C299 C243 1.419 . S
C299 H281 0.948 . S
C300 C301 1.391 . S
C300 C304 1.391 . S
C300 H342 0.948 . S
C301 C300 1.391 . S
C301 C302 1.391 . S
C302 C301 1.391 . S
C302 H358 0.947 . S
C302 C359 1.392 . S
C303 C304 1.391 . S
C303 C307 1.397 . S
C303 C359 1.419 . S
C304 C300 1.391 . S
C304 C303 1.391 . S
C304 C305 1.399 . S
C305 C304 1.399 . S
C305 C308 1.396 . S
C305 C317 1.453 . S
C305 C318 1.684 . S
H306 C330 0.948 . S
C307 C303 1.397 . S
C307 C308 1.394 . S
C307 C326 1.723 . S
C308 C305 1.396 . S
C308 C307 1.394 . S
C308 C338 1.723 . S
H309 C332 0.947 . S
H310 C333 0.948 . S
H311 C339 0.982 . S
H312 C340 0.979 . S
H313 C340 0.980 . S
H314 C340 0.983 . S
H315 C339 0.979 . S
H316 C339 0.977 . S
C317 C305 1.453 . S
C317 H346 0.982 . S
C317 H347 0.979 . S
C317 H348 0.977 . S
C318 C305 1.684 . S
C318 H343 0.979 . S
C318 H344 0.980 . S
C318 H345 0.983 . S
C319 C320 1.391 . S
C319 C324 1.391 . S
C319 H349 0.948 . S
C320 C319 1.391 . S
C320 C321 1.391 . S
C321 C320 1.391 . S
C321 C322 1.392 . S
C321 H350 0.947 . S
C322 C321 1.392 . S
C322 C323 1.419 . S
C322 H351 0.948 . S
C323 C322 1.419 . S
C323 C324 1.391 . S
C323 C327 1.397 . S
C324 C319 1.391 . S
C324 C323 1.391 . S
C324 C325 1.399 . S
C325 C324 1.399 . S
C325 C326 1.396 . S
C325 C328 1.453 . S
C325 C329 1.684 . S
C326 C307 1.723 . S
C326 C325 1.396 . S
C326 C327 1.394 . S
C327 C323 1.397 . S
C327 C326 1.394 . S
C327 C337 1.723 . S
C328 C325 1.453 . S
C328 H352 0.982 . S
C328 H353 0.979 . S
C328 H354 0.977 . S
C329 C325 1.684 . S
C329 H355 0.979 . S
C329 H356 0.980 . S
C329 H357 0.983 . S
C330 H306 0.948 . S
C330 C331 1.391 . S
C330 C335 1.391 . S
C331 C330 1.391 . S
C331 C332 1.391 . S
C332 H309 0.947 . S
C332 C331 1.391 . S
C332 C333 1.392 . S
C333 H310 0.948 . S
C333 C332 1.392 . S
C333 C334 1.419 . S
C334 C333 1.419 . S
C334 C335 1.391 . S
C334 C338 1.397 . S
C335 C330 1.391 . S
C335 C334 1.391 . S
C335 C336 1.399 . S
C336 C335 1.399 . S
C336 C337 1.396 . S
C336 C339 1.453 . S
C336 C340 1.684 . S
C337 C327 1.723 . S
C337 C336 1.396 . S
C337 C338 1.394 . S
C338 C308 1.723 . S
C338 C334 1.397 . S
C338 C337 1.394 . S
C339 H311 0.982 . S
C339 H315 0.979 . S
C339 H316 0.977 . S
C339 C336 1.453 . S
C340 H312 0.979 . S
C340 H313 0.980 . S
C340 H314 0.983 . S
C340 C336 1.684 . S
H341 C359 0.948 . S
H342 C300 0.948 . S
H343 C318 0.979 . S
H344 C318 0.980 . S
H345 C318 0.983 . S
H346 C317 0.982 . S
H347 C317 0.979 . S
H348 C317 0.977 . S
H349 C319 0.948 . S
H350 C321 0.947 . S
H351 C322 0.948 . S
H352 C328 0.982 . S
H353 C328 0.979 . S
H354 C328 0.977 . S
H355 C329 0.979 . S
H356 C329 0.980 . S
H357 C329 0.983 . S
H358 C302 0.947 . S
C359 C302 1.392 . S
C359 C303 1.419 . S
C359 H341 0.948 . S
C360 C361 1.391 . S
C360 C364 1.391 . S
C360 H402 0.948 . S
C361 C360 1.391 . S
C361 C362 1.391 . S
C362 C361 1.391 . S
C362 H418 0.947 . S
C362 C419 1.392 . S
C363 C364 1.391 . S
C363 C367 1.397 . S
C363 C419 1.419 . S
C364 C360 1.391 . S
C364 C363 1.391 . S
C364 C365 1.399 . S
C365 C364 1.399 . S
C365 C368 1.396 . S
C365 C377 1.453 . S
C365 C378 1.684 . S
H366 C390 0.948 . S
C367 C363 1.397 . S
C367 C368 1.394 . S
C367 C386 1.723 . S
C368 C365 1.396 . S
C368 C367 1.394 . S
C368 C398 1.723 . S
H369 C392 0.947 . S
H370 C393 0.948 . S
H371 C399 0.982 1_455 S
H372 C400 0.979 . S
H373 C400 0.980 . S
H374 C400 0.983 . S
H375 C399 0.979 . S
H376 C399 0.977 . S
C377 C365 1.453 . S
C377 H406 0.982 . S
C377 H407 0.979 . S
C377 H408 0.977 . S
C378 C365 1.684 . S
C378 H403 0.979 . S
C378 H404 0.980 . S
C378 H405 0.983 . S
C379 C380 1.391 . S
C379 C384 1.391 . S
C379 H409 0.948 . S
C380 C379 1.391 . S
C380 C381 1.391 . S
C381 C380 1.391 . S
C381 C382 1.392 . S
C381 H410 0.947 . S
C382 C381 1.392 . S
C382 C383 1.419 . S
C382 H411 0.948 . S
C383 C382 1.419 . S
C383 C384 1.391 . S
C383 C387 1.397 . S
C384 C379 1.391 . S
C384 C383 1.391 . S
C384 C385 1.399 . S
C385 C384 1.399 . S
C385 C386 1.396 . S
C385 C388 1.457 . S
C385 C389 1.684 . S
C386 C367 1.723 . S
C386 C385 1.396 . S
C386 C387 1.394 . S
C387 C383 1.397 . S
C387 C386 1.394 . S
C387 C397 1.723 . S
C388 C385 1.457 . S
C388 H412 0.970 1_655 S
C388 H413 0.981 1_655 S
C388 H414 0.983 . S
C389 C385 1.684 . S
C389 H415 0.979 . S
C389 H416 0.980 . S
C389 H417 0.983 . S
C390 H366 0.948 . S
C390 C391 1.391 . S
C390 C395 1.391 . S
C391 C390 1.391 . S
C391 C392 1.391 . S
C392 H369 0.947 . S
C392 C391 1.391 . S
C392 C393 1.392 . S
C393 H370 0.948 . S
C393 C392 1.392 . S
C393 C394 1.419 . S
C394 C393 1.419 . S
C394 C395 1.391 . S
C394 C398 1.397 . S
C395 C390 1.391 . S
C395 C394 1.391 . S
C395 C396 1.399 . S
C396 C395 1.399 . S
C396 C397 1.396 . S
C396 C399 1.453 . S
C396 C400 1.684 . S
C397 C387 1.723 . S
C397 C396 1.396 . S
C397 C398 1.394 . S
C398 C368 1.723 . S
C398 C394 1.397 . S
C398 C397 1.394 . S
C399 H371 0.982 1_655 S
C399 H375 0.979 . S
C399 H376 0.977 . S
C399 C396 1.453 . S
C400 H372 0.979 . S
C400 H373 0.980 . S
C400 H374 0.983 . S
C400 C396 1.684 . S
H401 C419 0.948 . S
H402 C360 0.948 . S
H403 C378 0.979 . S
H404 C378 0.980 . S
H405 C378 0.983 . S
H406 C377 0.982 . S
H407 C377 0.979 . S
H408 C377 0.977 . S
H409 C379 0.948 . S
H410 C381 0.947 . S
H411 C382 0.948 . S
H412 C388 0.970 1_455 S
H413 C388 0.981 1_455 S
H414 C388 0.983 . S
H415 C389 0.979 . S
H416 C389 0.980 . S
H417 C389 0.983 . S
H418 C362 0.947 . S
C419 C362 1.392 . S
C419 C363 1.419 . S
C419 H401 0.948 . S
C420 C421 1.391 . S
C420 C424 1.391 . S
C420 H462 0.948 . S
C421 C420 1.391 . S
C421 C422 1.391 . S
C422 C421 1.391 . S
C422 H478 0.947 . S
C422 C479 1.392 . S
C423 C424 1.391 . S
C423 C427 1.397 . S
C423 C479 1.419 . S
C424 C420 1.391 . S
C424 C423 1.391 . S
C424 C425 1.399 . S
C425 C424 1.399 . S
C425 C428 1.396 . S
C425 C437 1.453 . S
C425 C438 1.684 . S
H426 C450 0.948 . S
C427 C423 1.397 . S
C427 C428 1.394 . S
C427 C446 1.723 . S
C428 C425 1.396 . S
C428 C427 1.394 . S
C428 C458 1.723 . S
H429 C452 0.947 . S
H430 C453 0.948 . S
H431 C459 0.982 . S
H432 C460 0.979 . S
H433 C460 0.980 . S
H434 C460 0.983 . S
H435 C459 0.979 . S
H436 C459 0.977 . S
C437 C425 1.453 . S
C437 H466 0.982 . S
C437 H467 0.979 . S
C437 H468 0.977 . S
C438 C425 1.684 . S
C438 H463 0.979 . S
C438 H464 0.980 . S
C438 H465 0.983 . S
C439 C440 1.391 . S
C439 C444 1.391 . S
C439 H469 0.948 . S
C440 C439 1.391 . S
C440 C441 1.391 . S
C441 C440 1.391 . S
C441 C442 1.392 . S
C441 H470 0.947 . S
C442 C441 1.392 . S
C442 C443 1.419 . S
C442 H471 0.948 . S
C443 C442 1.419 . S
C443 C444 1.391 . S
C443 C447 1.397 . S
C444 C439 1.391 . S
C444 C443 1.391 . S
C444 C445 1.399 . S
C445 C444 1.399 . S
C445 C446 1.396 . S
C445 C448 1.453 . S
C445 C449 1.684 . S
C446 C427 1.723 . S
C446 C445 1.396 . S
C446 C447 1.394 . S
C447 C443 1.397 . S
C447 C446 1.394 . S
C447 C457 1.723 . S
C448 C445 1.453 . S
C448 H472 0.982 . S
C448 H473 0.979 . S
C448 H474 0.977 . S
C449 C445 1.684 . S
C449 H475 0.979 . S
C449 H476 0.980 . S
C449 H477 0.983 . S
C450 H426 0.948 . S
C450 C451 1.391 . S
C450 C455 1.391 . S
C451 C450 1.391 . S
C451 C452 1.391 . S
C452 H429 0.947 . S
C452 C451 1.391 . S
C452 C453 1.392 . S
C453 H430 0.948 . S
C453 C452 1.392 . S
C453 C454 1.419 . S
C454 C453 1.419 . S
C454 C455 1.391 . S
C454 C458 1.397 . S
C455 C450 1.391 . S
C455 C454 1.391 . S
C455 C456 1.399 . S
C456 C455 1.399 . S
C456 C457 1.396 . S
C456 C459 1.453 . S
C456 C460 1.684 . S
C457 C447 1.723 . S
C457 C456 1.396 . S
C457 C458 1.394 . S
C458 C428 1.723 . S
C458 C454 1.397 . S
C458 C457 1.394 . S
C459 H431 0.982 . S
C459 H435 0.979 . S
C459 H436 0.977 . S
C459 C456 1.453 . S
C460 H432 0.979 . S
C460 H433 0.980 . S
C460 H434 0.983 . S
C460 C456 1.684 . S
H461 C479 0.948 . S
H462 C420 0.948 . S
H463 C438 0.979 . S
H464 C438 0.980 . S
H465 C438 0.983 . S
H466 C437 0.982 . S
H467 C437 0.979 . S
H468 C437 0.977 . S
H469 C439 0.948 . S
H470 C441 0.947 . S
H471 C442 0.948 . S
H472 C448 0.982 . S
H473 C448 0.979 . S
H474 C448 0.977 . S
H475 C449 0.979 . S
H476 C449 0.980 . S
H477 C449 0.983 . S
H478 C422 0.947 . S
C479 C422 1.392 . S
C479 C423 1.419 . S
C479 H461 0.948 . S
C480 C481 1.391 . S
C480 C484 1.391 . S
C480 H522 0.948 . S
C481 C480 1.391 . S
C481 C482 1.391 . S
C482 C481 1.391 . S
C482 H538 0.947 . S
C482 C539 1.392 . S
C483 C484 1.391 . S
C483 C487 1.397 . S
C483 C539 1.419 . S
C484 C480 1.391 . S
C484 C483 1.391 . S
C484 C485 1.399 . S
C485 C484 1.399 . S
C485 C488 1.396 . S
C485 C497 1.453 . S
C485 C498 1.684 . S
H486 C510 0.948 . S
C487 C483 1.397 . S
C487 C488 1.394 . S
C487 C506 1.723 . S
C488 C485 1.396 . S
C488 C487 1.394 . S
C488 C518 1.723 . S
H489 C512 0.947 . S
H490 C513 0.948 . S
H491 C519 0.982 . S
H492 C520 0.979 . S
H493 C520 0.980 . S
H494 C520 0.983 . S
H495 C519 0.979 . S
H496 C519 0.977 . S
C497 C485 1.453 . S
C497 H526 0.982 . S
C497 H527 0.979 . S
C497 H528 0.977 . S
C498 C485 1.684 . S
C498 H523 0.979 . S
C498 H524 0.980 . S
C498 H525 0.983 . S
C499 C500 1.391 . S
C499 C504 1.391 . S
C499 H529 0.948 . S
C500 C499 1.391 . S
C500 C501 1.391 . S
C501 C500 1.391 . S
C501 C502 1.392 . S
C501 H530 0.947 . S
C502 C501 1.392 . S
C502 C503 1.419 . S
C502 H531 0.948 . S
C503 C502 1.419 . S
C503 C504 1.391 . S
C503 C507 1.397 . S
C504 C499 1.391 . S
C504 C503 1.391 . S
C504 C505 1.399 . S
C505 C504 1.399 . S
C505 C506 1.396 . S
C505 C508 1.453 . S
C505 C509 1.684 . S
C506 C487 1.723 . S
C506 C505 1.396 . S
C506 C507 1.394 . S
C507 C503 1.397 . S
C507 C506 1.394 . S
C507 C517 1.723 . S
C508 C505 1.453 . S
C508 H532 0.982 . S
C508 H533 0.979 . S
C508 H534 0.977 . S
C509 C505 1.684 . S
C509 H535 0.979 . S
C509 H536 0.980 . S
C509 H537 0.983 . S
C510 H486 0.948 . S
C510 C511 1.391 . S
C510 C515 1.391 . S
C511 C510 1.391 . S
C511 C512 1.391 . S
C512 H489 0.947 . S
C512 C511 1.391 . S
C512 C513 1.392 . S
C513 H490 0.948 . S
C513 C512 1.392 . S
C513 C514 1.419 . S
C514 C513 1.419 . S
C514 C515 1.391 . S
C514 C518 1.397 . S
C515 C510 1.391 . S
C515 C514 1.391 . S
C515 C516 1.399 . S
C516 C515 1.399 . S
C516 C517 1.396 . S
C516 C519 1.453 . S
C516 C520 1.684 . S
C517 C507 1.723 . S
C517 C516 1.396 . S
C517 C518 1.394 . S
C518 C488 1.723 . S
C518 C514 1.397 . S
C518 C517 1.394 . S
C519 H491 0.982 . S
C519 H495 0.979 . S
C519 H496 0.977 . S
C519 C516 1.453 . S
C520 H492 0.979 . S
C520 H493 0.980 . S
C520 H494 0.983 . S
C520 C516 1.684 . S
H521 C539 0.948 . S
H522 C480 0.948 . S
H523 C498 0.979 . S
H524 C498 0.980 . S
H525 C498 0.983 . S
H526 C497 0.982 . S
H527 C497 0.979 . S
H528 C497 0.977 . S
H529 C499 0.948 . S
H530 C501 0.947 . S
H531 C502 0.948 . S
H532 C508 0.982 . S
H533 C508 0.979 . S
H534 C508 0.977 . S
H535 C509 0.979 . S
H536 C509 0.980 . S
H537 C509 0.983 . S
H538 C482 0.947 . S
C539 C482 1.392 . S
C539 C483 1.419 . S
C539 H521 0.948 . S
C540 C541 1.391 . S
C540 C544 1.391 . S
C540 H582 0.948 . S
C541 C540 1.391 . S
C541 C542 1.391 . S
C542 C541 1.391 . S
C542 H598 0.947 . S
C542 C599 1.392 . S
C543 C544 1.391 . S
C543 C547 1.397 . S
C543 C599 1.419 . S
C544 C540 1.391 . S
C544 C543 1.391 . S
C544 C545 1.399 . S
C545 C544 1.399 . S
C545 C548 1.396 . S
C545 C557 1.453 . S
C545 C558 1.684 . S
H546 C570 0.948 . S
C547 C543 1.397 . S
C547 C548 1.394 . S
C547 C566 1.723 . S
C548 C545 1.396 . S
C548 C547 1.394 . S
C548 C578 1.723 . S
H549 C572 0.947 . S
H550 C573 0.948 . S
H551 C579 0.982 . S
H552 C580 0.979 . S
H553 C580 0.980 . S
H554 C580 0.983 . S
H555 C579 0.979 . S
H556 C579 0.977 . S
C557 C545 1.453 . S
C557 H586 0.982 . S
C557 H587 0.979 . S
C557 H588 0.977 . S
C558 C545 1.684 . S
C558 H583 0.979 . S
C558 H584 0.980 . S
C558 H585 0.983 . S
C559 C560 1.391 . S
C559 C564 1.391 . S
C559 H589 0.948 . S
C560 C559 1.391 . S
C560 C561 1.391 . S
C561 C560 1.391 . S
C561 C562 1.392 . S
C561 H590 0.947 . S
C562 C561 1.392 . S
C562 C563 1.419 . S
C562 H591 0.948 . S
C563 C562 1.419 . S
C563 C564 1.391 . S
C563 C567 1.397 . S
C564 C559 1.391 . S
C564 C563 1.391 . S
C564 C565 1.399 . S
C565 C564 1.399 . S
C565 C566 1.396 . S
C565 C568 1.453 . S
C565 C569 1.684 . S
C566 C547 1.723 . S
C566 C565 1.396 . S
C566 C567 1.394 . S
C567 C563 1.397 . S
C567 C566 1.394 . S
C567 C577 1.723 . S
C568 C565 1.453 . S
C568 H592 0.982 . S
C568 H593 0.979 . S
C568 H594 0.977 . S
C569 C565 1.684 . S
C569 H595 0.979 . S
C569 H596 0.980 . S
C569 H597 0.983 . S
C570 H546 0.948 . S
C570 C571 1.391 . S
C570 C575 1.391 . S
C571 C570 1.391 . S
C571 C572 1.391 . S
C572 H549 0.947 . S
C572 C571 1.391 . S
C572 C573 1.392 . S
C573 H550 0.948 . S
C573 C572 1.392 . S
C573 C574 1.419 . S
C574 C573 1.419 . S
C574 C575 1.391 . S
C574 C578 1.397 . S
C575 C570 1.391 . S
C575 C574 1.391 . S
C575 C576 1.399 . S
C576 C575 1.399 . S
C576 C577 1.396 . S
C576 C579 1.453 . S
C576 C580 1.684 . S
C577 C567 1.723 . S
C577 C576 1.396 . S
C577 C578 1.394 . S
C578 C548 1.723 . S
C578 C574 1.397 . S
C578 C577 1.394 . S
C579 H551 0.982 . S
C579 H555 0.979 . S
C579 H556 0.977 . S
C579 C576 1.453 . S
C580 H552 0.979 . S
C580 H553 0.980 . S
C580 H554 0.983 . S
C580 C576 1.684 . S
H581 C599 0.948 . S
H582 C540 0.948 . S
H583 C558 0.979 . S
H584 C558 0.980 . S
H585 C558 0.983 . S
H586 C557 0.982 . S
H587 C557 0.979 . S
H588 C557 0.977 . S
H589 C559 0.948 . S
H590 C561 0.947 . S
H591 C562 0.948 . S
H592 C568 0.982 . S
H593 C568 0.979 . S
H594 C568 0.977 . S
H595 C569 0.979 . S
H596 C569 0.980 . S
H597 C569 0.983 . S
H598 C542 0.947 . S
C599 C542 1.392 . S
C599 C543 1.419 . S
C599 H581 0.948 . S
C600 C601 1.391 . S
C600 C604 1.391 . S
C600 H642 0.948 . S
C601 C600 1.391 . S
C601 C602 1.391 . S
C602 C601 1.391 . S
C602 H658 0.947 . S
C602 C659 1.392 . S
C603 C604 1.391 . S
C603 C607 1.397 . S
C603 C659 1.419 . S
C604 C600 1.391 . S
C604 C603 1.391 . S
C604 C605 1.399 . S
C605 C604 1.399 . S
C605 C608 1.396 . S
C605 C617 1.453 . S
C605 C618 1.684 . S
H606 C630 0.948 . S
C607 C603 1.397 . S
C607 C608 1.394 . S
C607 C626 1.723 . S
C608 C605 1.396 . S
C608 C607 1.394 . S
C608 C638 1.723 . S
H609 C632 0.947 1_554 S
H610 C633 0.948 . S
H611 C639 0.982 . S
H612 C640 0.979 . S
H613 C640 0.980 . S
H614 C640 0.983 . S
H615 C639 0.979 . S
H616 C639 0.977 . S
C617 C605 1.453 . S
C617 H646 0.982 . S
C617 H647 0.979 . S
C617 H648 0.977 . S
C618 C605 1.684 . S
C618 H643 0.979 . S
C618 H644 0.980 . S
C618 H645 0.983 1_556 S
C619 C620 1.391 . S
C619 C624 1.391 . S
C619 H649 0.948 . S
C620 C619 1.391 . S
C620 C621 1.391 . S
C621 C620 1.391 . S
C621 C622 1.392 . S
C621 H650 0.947 . S
C622 C621 1.392 . S
C622 C623 1.419 . S
C622 H651 0.948 . S
C623 C622 1.419 . S
C623 C624 1.391 . S
C623 C627 1.397 . S
C624 C619 1.391 . S
C624 C623 1.391 . S
C624 C625 1.399 . S
C625 C624 1.399 . S
C625 C626 1.396 . S
C625 C628 1.453 . S
C625 C629 1.684 . S
C626 C607 1.723 . S
C626 C625 1.396 . S
C626 C627 1.394 . S
C627 C623 1.397 . S
C627 C626 1.394 . S
C627 C637 1.723 . S
C628 C625 1.453 . S
C628 H652 0.982 . S
C628 H653 0.979 . S
C628 H654 0.977 . S
C629 C625 1.684 . S
C629 H655 0.979 . S
C629 H656 0.980 . S
C629 H657 0.983 . S
C630 H606 0.948 . S
C630 C631 1.391 . S
C630 C635 1.391 . S
C631 C630 1.391 . S
C631 C632 1.391 . S
C632 H609 0.947 1_556 S
C632 C631 1.391 . S
C632 C633 1.392 . S
C633 H610 0.948 . S
C633 C632 1.392 . S
C633 C634 1.419 . S
C634 C633 1.419 . S
C634 C635 1.391 . S
C634 C638 1.397 . S
C635 C630 1.391 . S
C635 C634 1.391 . S
C635 C636 1.399 . S
C636 C635 1.399 . S
C636 C637 1.396 . S
C636 C639 1.453 . S
C636 C640 1.684 . S
C637 C627 1.723 . S
C637 C636 1.396 . S
C637 C638 1.394 . S
C638 C608 1.723 . S
C638 C634 1.397 . S
C638 C637 1.394 . S
C639 H611 0.982 . S
C639 H615 0.979 . S
C639 H616 0.977 . S
C639 C636 1.453 . S
C640 H612 0.979 . S
C640 H613 0.980 . S
C640 H614 0.983 . S
C640 C636 1.684 . S
H641 C659 0.948 . S
H642 C600 0.948 . S
H643 C618 0.979 . S
H644 C618 0.980 . S
H645 C618 0.983 1_554 S
H646 C617 0.982 . S
H647 C617 0.979 . S
H648 C617 0.977 . S
H649 C619 0.948 . S
H650 C621 0.947 . S
H651 C622 0.948 . S
H652 C628 0.982 . S
H653 C628 0.979 . S
H654 C628 0.977 . S
H655 C629 0.979 . S
H656 C629 0.980 . S
H657 C629 0.983 . S
H658 C602 0.947 . S
C659 C602 1.392 . S
C659 C603 1.419 . S
C659 H641 0.948 . S
C660 C661 1.391 . S
C660 C664 1.391 . S
C660 H702 0.948 . S
C661 C660 1.391 . S
C661 C662 1.391 . S
C662 C661 1.391 . S
C662 H718 0.947 . S
C662 C719 1.392 . S
C663 C664 1.391 . S
C663 C667 1.397 . S
C663 C719 1.419 . S
C664 C660 1.391 . S
C664 C663 1.391 . S
C664 C665 1.399 . S
C665 C664 1.399 . S
C665 C668 1.396 . S
C665 C677 1.453 . S
C665 C678 1.684 . S
H666 C690 0.948 . S
C667 C663 1.397 . S
C667 C668 1.394 . S
C667 C686 1.723 . S
C668 C665 1.396 . S
C668 C667 1.394 . S
C668 C698 1.723 . S
H669 C692 0.947 . S
H670 C693 0.948 . S
H671 C699 0.982 . S
H672 C700 0.979 . S
H673 C700 0.980 . S
H674 C700 0.983 . S
H675 C699 0.979 . S
H676 C699 0.977 . S
C677 C665 1.453 . S
C677 H706 0.982 . S
C677 H707 0.979 . S
C677 H708 0.977 . S
C678 C665 1.684 . S
C678 H703 0.979 . S
C678 H704 0.980 . S
C678 H705 0.983 . S
C679 C680 1.391 . S
C679 C684 1.391 . S
C679 H709 0.948 . S
C680 C679 1.391 . S
C680 C681 1.391 . S
C681 C680 1.391 . S
C681 C682 1.392 . S
C681 H710 0.947 . S
C682 C681 1.392 . S
C682 C683 1.419 . S
C682 H711 0.948 . S
C683 C682 1.419 . S
C683 C684 1.391 . S
C683 C687 1.397 . S
C684 C679 1.391 . S
C684 C683 1.391 . S
C684 C685 1.399 . S
C685 C684 1.399 . S
C685 C686 1.396 . S
C685 C688 1.453 . S
C685 C689 1.684 . S
C686 C667 1.723 . S
C686 C685 1.396 . S
C686 C687 1.394 . S
C687 C683 1.397 . S
C687 C686 1.394 . S
C687 C697 1.723 . S
C688 C685 1.453 . S
C688 H712 0.982 . S
C688 H713 0.979 . S
C688 H714 0.977 . S
C689 C685 1.684 . S
C689 H715 0.979 . S
C689 H716 0.980 . S
C689 H717 0.983 . S
C690 H666 0.948 . S
C690 C691 1.391 . S
C690 C695 1.391 . S
C691 C690 1.391 . S
C691 C692 1.391 . S
C692 H669 0.947 . S
C692 C691 1.391 . S
C692 C693 1.392 . S
C693 H670 0.948 . S
C693 C692 1.392 . S
C693 C694 1.419 . S
C694 C693 1.419 . S
C694 C695 1.391 . S
C694 C698 1.397 . S
C695 C690 1.391 . S
C695 C694 1.391 . S
C695 C696 1.399 . S
C696 C695 1.399 . S
C696 C697 1.396 . S
C696 C699 1.453 . S
C696 C700 1.684 . S
C697 C687 1.723 . S
C697 C696 1.396 . S
C697 C698 1.394 . S
C698 C668 1.723 . S
C698 C694 1.397 . S
C698 C697 1.394 . S
C699 H671 0.982 . S
C699 H675 0.979 . S
C699 H676 0.977 . S
C699 C696 1.453 . S
C700 H672 0.979 . S
C700 H673 0.980 . S
C700 H674 0.983 . S
C700 C696 1.684 . S
H701 C719 0.948 . S
H702 C660 0.948 . S
H703 C678 0.979 . S
H704 C678 0.980 . S
H705 C678 0.983 . S
H706 C677 0.982 . S
H707 C677 0.979 . S
H708 C677 0.977 . S
H709 C679 0.948 . S
H710 C681 0.947 . S
H711 C682 0.948 . S
H712 C688 0.982 . S
H713 C688 0.979 . S
H714 C688 0.977 . S
H715 C689 0.979 . S
H716 C689 0.980 . S
H717 C689 0.983 . S
H718 C662 0.947 . S
C719 C662 1.392 . S
C719 C663 1.419 . S
C719 H701 0.948 . S
C720 C721 1.391 . S
C720 C724 1.391 . S
C720 H762 0.948 . S
C721 C720 1.391 . S
C721 C722 1.391 . S
C722 C721 1.391 . S
C722 H778 0.947 . S
C722 C779 1.392 . S
C723 C724 1.391 . S
C723 C727 1.397 . S
C723 C779 1.419 . S
C724 C720 1.391 . S
C724 C723 1.391 . S
C724 C725 1.399 . S
C725 C724 1.399 . S
C725 C728 1.396 . S
C725 C737 1.453 . S
C725 C738 1.684 . S
H726 C750 0.948 . S
C727 C723 1.397 . S
C727 C728 1.394 . S
C727 C746 1.723 . S
C728 C725 1.396 . S
C728 C727 1.394 . S
C728 C758 1.723 . S
H729 C752 0.947 1_556 S
H730 C753 0.948 . S
H731 C759 0.982 . S
H732 C760 0.979 . S
H733 C760 0.980 . S
H734 C760 0.983 . S
H735 C759 0.979 . S
H736 C759 0.977 . S
C737 C725 1.453 . S
C737 H766 0.982 . S
C737 H767 0.997 . S
C737 H768 0.977 . S
C738 C725 1.684 . S
C738 H763 0.979 . S
C738 H764 0.980 . S
C738 H765 0.982 . S
C739 C740 1.391 . S
C739 C744 1.391 . S
C739 H769 0.948 . S
C740 C739 1.391 . S
C740 C741 1.391 . S
C741 C740 1.391 . S
C741 C742 1.392 . S
C741 H770 0.947 . S
C742 C741 1.392 . S
C742 C743 1.419 . S
C742 H771 0.948 . S
C743 C742 1.419 . S
C743 C744 1.391 . S
C743 C747 1.397 . S
C744 C739 1.391 . S
C744 C743 1.391 . S
C744 C745 1.399 . S
C745 C744 1.399 . S
C745 C746 1.396 . S
C745 C748 1.453 . S
C745 C749 1.684 . S
C746 C727 1.723 . S
C746 C745 1.396 . S
C746 C747 1.394 . S
C747 C743 1.397 . S
C747 C746 1.394 . S
C747 C757 1.723 . S
C748 C745 1.453 . S
C748 H772 0.982 . S
C748 H773 0.979 . S
C748 H774 0.977 . S
C749 C745 1.684 . S
C749 H775 0.979 . S
C749 H776 0.980 . S
C749 H777 0.983 . S
C750 H726 0.948 . S
C750 C751 1.391 . S
C750 C755 1.391 . S
C751 C750 1.391 . S
C751 C752 1.391 . S
C752 H729 0.947 1_554 S
C752 C751 1.391 . S
C752 C753 1.392 . S
C753 H730 0.948 . S
C753 C752 1.392 . S
C753 C754 1.419 . S
C754 C753 1.419 . S
C754 C755 1.391 . S
C754 C758 1.397 . S
C755 C750 1.391 . S
C755 C754 1.391 . S
C755 C756 1.399 . S
C756 C755 1.399 . S
C756 C757 1.396 . S
C756 C759 1.453 . S
C756 C760 1.684 . S
C757 C747 1.723 . S
C757 C756 1.396 . S
C757 C758 1.394 . S
C758 C728 1.723 . S
C758 C754 1.397 . S
C758 C757 1.394 . S
C759 H731 0.982 . S
C759 H735 0.979 . S
C759 H736 0.977 . S
C759 C756 1.453 . S
C760 H732 0.979 . S
C760 H733 0.980 . S
C760 H734 0.983 . S
C760 C756 1.684 . S
H761 C779 0.948 . S
H762 C720 0.948 . S
H763 C738 0.979 . S
H764 C738 0.980 . S
H765 C738 0.982 . S
H766 C737 0.982 . S
H767 C737 0.997 . S
H768 C737 0.977 . S
H769 C739 0.948 . S
H770 C741 0.947 . S
H771 C742 0.948 . S
H772 C748 0.982 . S
H773 C748 0.979 . S
H774 C748 0.977 . S
H775 C749 0.979 . S
H776 C749 0.980 . S
H777 C749 0.983 . S
H778 C722 0.947 . S
C779 C722 1.392 . S
C779 C723 1.419 . S
C779 H761 0.948 . S
C780 C781 1.391 . S
C780 C784 1.391 . S
C780 H822 0.948 . S
C781 C780 1.391 . S
C781 C782 1.391 . S
C782 C781 1.391 . S
C782 H838 0.947 . S
C782 C839 1.392 . S
C783 C784 1.391 . S
C783 C787 1.397 . S
C783 C839 1.419 . S
C784 C780 1.391 . S
C784 C783 1.391 . S
C784 C785 1.399 . S
C785 C784 1.399 . S
C785 C788 1.396 . S
C785 C797 1.453 . S
C785 C798 1.684 . S
H786 C810 0.948 . S
C787 C783 1.397 . S
C787 C788 1.394 . S
C787 C806 1.723 . S
C788 C785 1.396 . S
C788 C787 1.394 . S
C788 C818 1.723 . S
H789 C812 0.947 . S
H790 C813 0.948 . S
H791 C819 0.982 . S
H792 C820 0.979 . S
H793 C820 0.980 . S
H794 C820 0.983 . S
H795 C819 0.979 . S
H796 C819 0.977 . S
C797 C785 1.453 . S
C797 H826 0.982 . S
C797 H827 0.979 . S
C797 H828 0.977 . S
C798 C785 1.684 . S
C798 H823 0.979 . S
C798 H824 0.980 . S
C798 H825 0.983 . S
C799 C800 1.391 . S
C799 C804 1.391 . S
C799 H829 0.948 . S
C800 C799 1.391 . S
C800 C801 1.391 . S
C801 C800 1.391 . S
C801 C802 1.392 . S
C801 H830 0.947 . S
C802 C801 1.392 . S
C802 C803 1.419 . S
C802 H831 0.948 . S
C803 C802 1.419 . S
C803 C804 1.391 . S
C803 C807 1.397 . S
C804 C799 1.391 . S
C804 C803 1.391 . S
C804 C805 1.399 . S
C805 C804 1.399 . S
C805 C806 1.396 . S
C805 C808 1.453 . S
C805 C809 1.684 . S
C806 C787 1.723 . S
C806 C805 1.396 . S
C806 C807 1.394 . S
C807 C803 1.397 . S
C807 C806 1.394 . S
C807 C817 1.723 . S
C808 C805 1.453 . S
C808 H832 0.982 . S
C808 H833 0.979 . S
C808 H834 0.977 . S
C809 C805 1.684 . S
C809 H835 0.979 . S
C809 H836 0.980 . S
C809 H837 0.983 . S
C810 H786 0.948 . S
C810 C811 1.391 . S
C810 C815 1.391 . S
C811 C810 1.391 . S
C811 C812 1.391 . S
C812 H789 0.947 . S
C812 C811 1.391 . S
C812 C813 1.392 . S
C813 H790 0.948 . S
C813 C812 1.392 . S
C813 C814 1.419 . S
C814 C813 1.419 . S
C814 C815 1.391 . S
C814 C818 1.397 . S
C815 C810 1.391 . S
C815 C814 1.391 . S
C815 C816 1.399 . S
C816 C815 1.399 . S
C816 C817 1.396 . S
C816 C819 1.453 . S
C816 C820 1.684 . S
C817 C807 1.723 . S
C817 C816 1.396 . S
C817 C818 1.394 . S
C818 C788 1.723 . S
C818 C814 1.397 . S
C818 C817 1.394 . S
C819 H791 0.982 . S
C819 H795 0.979 . S
C819 H796 0.977 . S
C819 C816 1.453 . S
C820 H792 0.979 . S
C820 H793 0.980 . S
C820 H794 0.983 . S
C820 C816 1.684 . S
H821 C839 0.948 . S
H822 C780 0.948 . S
H823 C798 0.979 . S
H824 C798 0.980 . S
H825 C798 0.983 . S
H826 C797 0.982 . S
H827 C797 0.979 . S
H828 C797 0.977 . S
H829 C799 0.948 . S
H830 C801 0.947 . S
H831 C802 0.948 . S
H832 C808 0.982 . S
H833 C808 0.979 . S
H834 C808 0.977 . S
H835 C809 0.979 . S
H836 C809 0.980 . S
H837 C809 0.983 . S
H838 C782 0.947 . S
C839 C782 1.392 . S
C839 C783 1.419 . S
C839 H821 0.948 . S
C840 C841 1.391 . S
C840 C844 1.391 . S
C840 H882 0.948 . S
C841 C840 1.391 . S
C841 C842 1.391 . S
C842 C841 1.391 . S
C842 H898 0.947 . S
C842 C899 1.392 . S
C843 C844 1.391 . S
C843 C847 1.397 . S
C843 C899 1.419 . S
C844 C840 1.391 . S
C844 C843 1.391 . S
C844 C845 1.399 . S
C845 C844 1.399 . S
C845 C848 1.396 . S
C845 C857 1.453 . S
C845 C858 1.684 . S
H846 C870 0.948 . S
C847 C843 1.397 . S
C847 C848 1.394 . S
C847 C866 1.723 . S
C848 C845 1.396 . S
C848 C847 1.394 . S
C848 C878 1.723 . S
H849 C872 0.947 . S
H850 C873 0.948 . S
H851 C879 0.982 . S
H852 C880 0.979 . S
H853 C880 0.980 . S
H854 C880 0.983 . S
H855 C879 0.979 . S
H856 C879 0.977 . S
C857 C845 1.453 . S
C857 H886 0.982 . S
C857 H887 0.979 . S
C857 H888 0.977 . S
C858 C845 1.684 . S
C858 H883 0.979 . S
C858 H884 0.980 . S
C858 H885 0.983 . S
C859 C860 1.391 . S
C859 C864 1.391 . S
C859 H889 0.948 . S
C860 C859 1.391 . S
C860 C861 1.391 . S
C861 C860 1.391 . S
C861 C862 1.392 . S
C861 H890 0.947 . S
C862 C861 1.392 . S
C862 C863 1.419 . S
C862 H891 0.948 . S
C863 C862 1.419 . S
C863 C864 1.391 . S
C863 C867 1.397 . S
C864 C859 1.391 . S
C864 C863 1.391 . S
C864 C865 1.399 . S
C865 C864 1.399 . S
C865 C866 1.396 . S
C865 C868 1.453 . S
C865 C869 1.684 . S
C866 C847 1.723 . S
C866 C865 1.396 . S
C866 C867 1.394 . S
C867 C863 1.397 . S
C867 C866 1.394 . S
C867 C877 1.723 . S
C868 C865 1.453 . S
C868 H892 0.982 . S
C868 H893 0.979 . S
C868 H894 0.977 . S
C869 C865 1.684 . S
C869 H895 0.979 . S
C869 H896 0.980 . S
C869 H897 0.983 . S
C870 H846 0.948 . S
C870 C871 1.391 . S
C870 C875 1.391 . S
C871 C870 1.391 . S
C871 C872 1.391 . S
C872 H849 0.947 . S
C872 C871 1.391 . S
C872 C873 1.392 . S
C873 H850 0.948 . S
C873 C872 1.392 . S
C873 C874 1.419 . S
C874 C873 1.419 . S
C874 C875 1.391 . S
C874 C878 1.397 . S
C875 C870 1.391 . S
C875 C874 1.391 . S
C875 C876 1.399 . S
C876 C875 1.399 . S
C876 C877 1.396 . S
C876 C879 1.453 . S
C876 C880 1.684 . S
C877 C867 1.723 . S
C877 C876 1.396 . S
C877 C878 1.394 . S
C878 C848 1.723 . S
C878 C874 1.397 . S
C878 C877 1.394 . S
C879 H851 0.982 . S
C879 H855 0.979 . S
C879 H856 0.977 . S
C879 C876 1.453 . S
C880 H852 0.979 . S
C880 H853 0.980 . S
C880 H854 0.983 . S
C880 C876 1.684 . S
H881 C899 0.948 . S
H882 C840 0.948 . S
H883 C858 0.979 . S
H884 C858 0.980 . S
H885 C858 0.983 . S
H886 C857 0.982 . S
H887 C857 0.979 . S
H888 C857 0.977 . S
H889 C859 0.948 . S
H890 C861 0.947 . S
H891 C862 0.948 . S
H892 C868 0.982 . S
H893 C868 0.979 . S
H894 C868 0.977 . S
H895 C869 0.979 . S
H896 C869 0.980 . S
H897 C869 0.983 . S
H898 C842 0.947 . S
C899 C842 1.392 . S
C899 C843 1.419 . S
C899 H881 0.948 . S
C900 C901 1.391 . S
C900 C904 1.391 . S
C900 H942 0.948 . S
C901 C900 1.391 . S
C901 C902 1.391 . S
C902 C901 1.391 . S
C902 H958 0.947 . S
C902 C959 1.392 . S
C903 C904 1.391 . S
C903 C907 1.397 . S
C903 C959 1.419 . S
C904 C900 1.391 . S
C904 C903 1.391 . S
C904 C905 1.399 . S
C905 C904 1.399 . S
C905 C908 1.396 . S
C905 C917 1.453 . S
C905 C918 1.684 . S
H906 C930 0.948 . S
C907 C903 1.397 . S
C907 C908 1.394 . S
C907 C926 1.723 . S
C908 C905 1.396 . S
C908 C907 1.394 . S
C908 C938 1.723 . S
H909 C932 0.947 . S
H910 C933 0.948 . S
H911 C939 0.982 . S
H912 C940 0.979 . S
H913 C940 0.980 . S
H914 C940 0.983 . S
H915 C939 0.979 . S
H916 C939 0.977 . S
C917 C905 1.453 . S
C917 H946 0.982 . S
C917 H947 0.979 . S
C917 H948 0.977 . S
C918 C905 1.684 . S
C918 H943 0.979 . S
C918 H944 0.980 . S
C918 H945 0.983 . S
C919 C920 1.391 . S
C919 C924 1.391 . S
C919 H949 0.948 . S
C920 C919 1.391 . S
C920 C921 1.391 . S
C921 C920 1.391 . S
C921 C922 1.392 . S
C921 H950 0.947 . S
C922 C921 1.392 . S
C922 C923 1.419 . S
C922 H951 0.948 . S
C923 C922 1.419 . S
C923 C924 1.391 . S
C923 C927 1.397 . S
C924 C919 1.391 . S
C924 C923 1.391 . S
C924 C925 1.399 . S
C925 C924 1.399 . S
C925 C926 1.396 . S
C925 C928 1.453 . S
C925 C929 1.684 . S
C926 C907 1.723 . S
C926 C925 1.396 . S
C926 C927 1.394 . S
C927 C923 1.397 . S
C927 C926 1.394 . S
C927 C937 1.723 . S
C928 C925 1.453 . S
C928 H952 0.982 . S
C928 H953 0.979 . S
C928 H954 0.977 . S
C929 C925 1.684 . S
C929 H955 0.979 . S
C929 H956 0.980 . S
C929 H957 0.983 . S
C930 H906 0.948 . S
C930 C931 1.391 . S
C930 C935 1.391 . S
C931 C930 1.391 . S
C931 C932 1.391 . S
C932 H909 0.947 . S
C932 C931 1.391 . S
C932 C933 1.392 . S
C933 H910 0.948 . S
C933 C932 1.392 . S
C933 C934 1.419 . S
C934 C933 1.419 . S
C934 C935 1.391 . S
C934 C938 1.397 . S
C935 C930 1.391 . S
C935 C934 1.391 . S
C935 C936 1.399 . S
C936 C935 1.399 . S
C936 C937 1.396 . S
C936 C939 1.453 . S
C936 C940 1.684 . S
C937 C927 1.723 . S
C937 C936 1.396 . S
C937 C938 1.394 . S
C938 C908 1.723 . S
C938 C934 1.397 . S
C938 C937 1.394 . S
C939 H911 0.982 . S
C939 H915 0.979 . S
C939 H916 0.977 . S
C939 C936 1.453 . S
C940 H912 0.979 . S
C940 H913 0.980 . S
C940 H914 0.983 . S
C940 C936 1.684 . S
H941 C959 0.948 . S
H942 C900 0.948 . S
H943 C918 0.979 . S
H944 C918 0.980 . S
H945 C918 0.983 . S
H946 C917 0.982 . S
H947 C917 0.979 . S
H948 C917 0.977 . S
H949 C919 0.948 . S
H950 C921 0.947 . S
H951 C922 0.948 . S
H952 C928 0.982 . S
H953 C928 0.979 . S
H954 C928 0.977 . S
H955 C929 0.979 . S
H956 C929 0.980 . S
H957 C929 0.983 . S
H958 C902 0.947 . S
C959 C902 1.392 . S
C959 C903 1.419 . S
C959 H941 0.948 . S
C960 C961 1.391 . S
C960 C964 1.391 . S
C960 H1002 0.948 . S
C961 C960 1.391 . S
C961 C962 1.391 . S
C962 C961 1.391 . S
C962 H1018 0.947 . S
C962 C1019 1.392 . S
C963 C964 1.391 . S
C963 C967 1.397 . S
C963 C1019 1.419 . S
C964 C960 1.391 . S
C964 C963 1.391 . S
C964 C965 1.399 . S
C965 C964 1.399 . S
C965 C968 1.396 . S
C965 C977 1.453 . S
C965 C978 1.684 . S
H966 C990 0.948 . S
C967 C963 1.397 . S
C967 C968 1.394 . S
C967 C986 1.723 . S
C968 C965 1.396 . S
C968 C967 1.394 . S
C968 C998 1.723 . S
H969 C992 0.947 . S
H970 C993 0.948 . S
H971 C999 0.982 . S
H972 C1000 0.979 1_655 S
H973 C1000 0.978 . S
H974 C1000 0.983 . S
H975 C999 0.979 . S
H976 C999 0.977 . S
C977 C965 1.453 . S
C977 H1006 0.982 . S
C977 H1007 0.979 . S
C977 H1008 0.977 . S
C978 C965 1.684 . S
C978 H1003 0.979 . S
C978 H1004 0.980 . S
C978 H1005 0.983 . S
C979 C980 1.391 1_455 S
C979 C984 1.391 . S
C979 H1009 0.953 1_455 S
C980 C979 1.391 1_655 S
C980 C981 1.391 1_655 S
C981 C980 1.391 1_455 S
C981 C982 1.392 . S
C981 H1010 0.937 1_455 S
C982 C981 1.392 . S
C982 C983 1.419 . S
C982 H1011 0.948 . S
C983 C982 1.419 . S
C983 C984 1.391 . S
C983 C987 1.397 . S
C984 C979 1.391 . S
C984 C983 1.391 . S
C984 C985 1.399 . S
C985 C984 1.399 . S
C985 C986 1.396 . S
C985 C988 1.453 . S
C985 C989 1.684 1_455 S
C986 C967 1.723 . S
C986 C985 1.396 . S
C986 C987 1.394 . S
C987 C983 1.397 . S
C987 C986 1.394 . S
C987 C997 1.723 . S
C988 C985 1.453 . S
C988 H1012 0.982 . S
C988 H1013 0.979 . S
C988 H1014 0.977 . S
C989 C985 1.684 1_655 S
C989 H1015 0.979 . S
C989 H1016 0.980 1_655 S
C989 H1017 0.983 . S
C990 H966 0.948 . S
C990 C991 1.391 . S
C990 C995 1.391 . S
C991 C990 1.391 . S
C991 C992 1.391 . S
C992 H969 0.947 . S
C992 C991 1.391 . S
C992 C993 1.392 . S
C993 H970 0.948 . S
C993 C992 1.392 . S
C993 C994 1.419 . S
C994 C993 1.419 . S
C994 C995 1.391 . S
C994 C998 1.397 . S
C995 C990 1.391 . S
C995 C994 1.391 . S
C995 C996 1.399 . S
C996 C995 1.399 . S
C996 C997 1.396 . S
C996 C999 1.453 . S
C996 C1000 1.684 . S
C997 C987 1.723 . S
C997 C996 1.396 . S
C997 C998 1.394 . S
C998 C968 1.723 . S
C998 C994 1.397 . S
C998 C997 1.394 . S
C999 H971 0.982 . S
C999 H975 0.979 . S
C999 H976 0.977 . S
C999 C996 1.453 . S
C1000 H972 0.979 1_455 S
C1000 H973 0.978 . S
C1000 H974 0.983 . S
C1000 C996 1.684 . S
H1001 C1019 0.948 . S
H1002 C960 0.948 . S
H1003 C978 0.979 . S
H1004 C978 0.980 . S
H1005 C978 0.983 . S
H1006 C977 0.982 . S
H1007 C977 0.979 . S
H1008 C977 0.977 . S
H1009 C979 0.953 1_655 S
H1010 C981 0.937 1_655 S
H1011 C982 0.948 . S
H1012 C988 0.982 . S
H1013 C988 0.979 . S
H1014 C988 0.977 . S
H1015 C989 0.979 . S
H1016 C989 0.980 1_455 S
H1017 C989 0.983 . S
H1018 C962 0.947 . S
C1019 C962 1.392 . S
C1019 C963 1.419 . S
C1019 H1001 0.948 . S
C1020 C1021 1.391 . S
C1020 C1024 1.391 . S
C1020 H1062 0.948 . S
C1021 C1020 1.391 . S
C1021 C1022 1.391 . S
C1022 C1021 1.391 . S
C1022 H1078 0.947 . S
C1022 C1079 1.392 . S
C1023 C1024 1.391 . S
C1023 C1027 1.397 . S
C1023 C1079 1.419 . S
C1024 C1020 1.391 . S
C1024 C1023 1.391 . S
C1024 C1025 1.399 . S
C1025 C1024 1.399 . S
C1025 C1028 1.396 . S
C1025 C1037 1.453 . S
C1025 C1038 1.684 . S
H1026 C1050 0.948 . S
C1027 C1023 1.397 . S
C1027 C1028 1.394 . S
C1027 C1046 1.723 . S
C1028 C1025 1.396 . S
C1028 C1027 1.394 . S
C1028 C1058 1.723 . S
H1029 C1052 0.947 . S
H1030 C1053 0.948 . S
H1031 C1059 0.982 . S
H1032 C1060 0.979 . S
H1033 C1060 0.980 . S
H1034 C1060 0.983 . S
H1035 C1059 0.979 . S
H1036 C1059 0.977 . S
C1037 C1025 1.453 . S
C1037 H1066 0.982 . S
C1037 H1067 0.979 . S
C1037 H1068 0.977 . S
C1038 C1025 1.684 . S
C1038 H1063 0.979 . S
C1038 H1064 0.980 . S
C1038 H1065 0.983 . S
C1039 C1040 1.391 . S
C1039 C1044 1.391 . S
C1039 H1069 0.948 . S
C1040 C1039 1.391 . S
C1040 C1041 1.391 . S
C1041 C1040 1.391 . S
C1041 C1042 1.392 . S
C1041 H1070 0.947 . S
C1042 C1041 1.392 . S
C1042 C1043 1.419 . S
C1042 H1071 0.948 . S
C1043 C1042 1.419 . S
C1043 C1044 1.391 . S
C1043 C1047 1.397 . S
C1044 C1039 1.391 . S
C1044 C1043 1.391 . S
C1044 C1045 1.399 . S
C1045 C1044 1.399 . S
C1045 C1046 1.396 . S
C1045 C1048 1.453 . S
C1045 C1049 1.684 . S
C1046 C1027 1.723 . S
C1046 C1045 1.396 . S
C1046 C1047 1.394 . S
C1047 C1043 1.397 . S
C1047 C1046 1.394 . S
C1047 C1057 1.723 . S
C1048 C1045 1.453 . S
C1048 H1072 0.982 . S
C1048 H1073 0.979 . S
C1048 H1074 0.977 . S
C1049 C1045 1.684 . S
C1049 H1075 0.979 . S
C1049 H1076 0.980 . S
C1049 H1077 0.983 . S
C1050 H1026 0.948 . S
C1050 C1051 1.391 . S
C1050 C1055 1.391 . S
C1051 C1050 1.391 . S
C1051 C1052 1.391 . S
C1052 H1029 0.947 . S
C1052 C1051 1.391 . S
C1052 C1053 1.392 . S
C1053 H1030 0.948 . S
C1053 C1052 1.392 . S
C1053 C1054 1.419 . S
C1054 C1053 1.419 . S
C1054 C1055 1.391 . S
C1054 C1058 1.397 . S
C1055 C1050 1.391 . S
C1055 C1054 1.391 . S
C1055 C1056 1.399 . S
C1056 C1055 1.399 . S
C1056 C1057 1.396 . S
C1056 C1059 1.453 . S
C1056 C1060 1.684 . S
C1057 C1047 1.723 . S
C1057 C1056 1.396 . S
C1057 C1058 1.394 . S
C1058 C1028 1.723 . S
C1058 C1054 1.397 . S
C1058 C1057 1.394 . S
C1059 H1031 0.982 . S
C1059 H1035 0.979 . S
C1059 H1036 0.977 . S
C1059 C1056 1.453 . S
C1060 H1032 0.979 . S
C1060 H1033 0.980 . S
C1060 H1034 0.983 . S
C1060 C1056 1.684 . S
H1061 C1079 0.948 . S
H1062 C1020 0.948 . S
H1063 C1038 0.979 . S
H1064 C1038 0.980 . S
H1065 C1038 0.983 . S
H1066 C1037 0.982 . S
H1067 C1037 0.979 . S
H1068 C1037 0.977 . S
H1069 C1039 0.948 . S
H1070 C1041 0.947 . S
H1071 C1042 0.948 . S
H1072 C1048 0.982 . S
H1073 C1048 0.979 . S
H1074 C1048 0.977 . S
H1075 C1049 0.979 . S
H1076 C1049 0.980 . S
H1077 C1049 0.983 . S
H1078 C1022 0.947 . S
C1079 C1022 1.392 . S
C1079 C1023 1.419 . S
C1079 H1061 0.948 . S
Eu1080 C1089 2.828 . S
Eu1080 O1091 2.392 . S
Eu1080 O1093 2.418 . S
Eu1080 O1098 2.373 1_565 S
Eu1080 O1101 2.488 . S
Eu1080 O1102 2.474 . S
Eu1080 O1103 2.349 1_565 S
Eu1081 O1090 2.373 1_545 S
Eu1081 O1094 2.488 . S
Eu1081 O1095 2.479 . S
Eu1081 O1096 2.349 1_545 S
Eu1081 O1099 2.392 . S
Eu1081 O1100 2.418 . S
Eu1081 C1110 2.828 . S
C1082 O1100 1.244 1_556 S
C1082 O1103 1.265 . S
C1083 C1084 1.379 1_565 S
C1083 C1087 1.373 . S
C1083 C1089 1.505 . S
C1084 C1083 1.379 1_545 S
C1084 C1086 1.369 . S
C1084 H1112 0.930 . S
C1085 C1087 1.383 . S
C1085 C1088 1.382 1_565 S
C1085 H1113 0.930 . S
C1086 C1084 1.369 . S
C1086 C1088 1.392 . S
C1086 H1114 0.930 . S
C1087 C1083 1.373 . S
C1087 C1085 1.383 . S
C1087 H1115 0.931 . S
C1088 C1085 1.382 1_545 S
C1088 C1086 1.392 . S
C1089 Eu1080 2.828 . S
C1089 C1083 1.505 . S
C1089 O1101 1.249 . S
C1089 O1102 1.249 . S
O1090 Eu1081 2.373 1_565 S
O1090 C1092 1.258 . S
O1091 Eu1080 2.392 . S
O1091 C1092 1.242 1_556 S
C1092 O1090 1.258 . S
C1092 O1091 1.242 1_554 S
O1093 Eu1080 2.418 . S
O1093 C1097 1.244 1_556 S
O1094 Eu1081 2.488 . S
O1094 C1110 1.249 . S
O1095 Eu1081 2.479 . S
O1095 C1110 1.256 . S
O1096 Eu1081 2.349 1_565 S
O1096 C1097 1.265 . S
C1097 O1093 1.244 1_554 S
C1097 O1096 1.265 . S
O1098 Eu1080 2.373 1_545 S
O1098 C1111 1.258 . S
O1099 Eu1081 2.392 . S
O1099 C1111 1.242 1_554 S
O1100 Eu1081 2.418 . S
O1100 C1082 1.244 1_554 S
O1101 Eu1080 2.488 . S
O1101 C1089 1.249 . S
O1102 Eu1080 2.474 . S
O1102 C1089 1.249 . S
O1103 Eu1080 2.349 1_545 S
O1103 C1082 1.265 . S
C1104 C1105 1.379 1_545 S
C1104 C1108 1.373 . S
C1104 C1110 1.505 . S
C1105 C1104 1.379 1_565 S
C1105 C1107 1.369 . S
C1105 H1116 0.930 . S
C1106 C1108 1.383 . S
C1106 C1109 1.382 1_545 S
C1106 H1117 0.930 . S
C1107 C1105 1.369 . S
C1107 C1109 1.392 . S
C1107 H1118 0.930 . S
C1108 C1104 1.373 . S
C1108 C1106 1.383 . S
C1108 H1119 0.931 . S
C1109 C1106 1.382 1_565 S
C1109 C1107 1.392 . S
C1110 Eu1081 2.828 . S
C1110 O1094 1.249 . S
C1110 O1095 1.256 . S
C1110 C1104 1.505 . S
C1111 O1098 1.258 . S
C1111 O1099 1.242 1_556 S
H1112 C1084 0.930 . S
H1113 C1085 0.930 . S
H1114 C1086 0.930 . S
H1115 C1087 0.931 . S
H1116 C1105 0.930 . S
H1117 C1106 0.930 . S
H1118 C1107 0.930 . S
H1119 C1108 0.931 . S
Eu1120 C1129 2.828 . S
Eu1120 O1131 2.392 1_556 S
Eu1120 O1133 2.418 . S
Eu1120 O1138 2.373 1_455 S
Eu1120 O1141 2.488 . S
Eu1120 O1142 2.471 1_455 S
Eu1120 O1143 2.349 1_455 S
Eu1121 O1130 2.373 1_655 S
Eu1121 O1134 2.488 . S
Eu1121 O1135 2.471 1_655 S
Eu1121 O1136 2.349 1_655 S
Eu1121 O1139 2.392 1_554 S
Eu1121 O1140 2.418 . S
Eu1121 C1150 2.828 . S
C1122 O1140 1.244 1_556 S
C1122 O1143 1.265 . S
C1123 C1124 1.379 1_455 S
C1123 C1127 1.373 . S
C1123 C1129 1.505 . S
C1124 C1123 1.379 1_655 S
C1124 C1126 1.369 . S
C1124 H1152 0.930 . S
C1125 C1127 1.383 . S
C1125 C1128 1.382 1_455 S
C1125 H1153 0.930 . S
C1126 C1124 1.369 . S
C1126 C1128 1.392 . S
C1126 H1154 0.930 . S
C1127 C1123 1.373 . S
C1127 C1125 1.383 . S
C1127 H1155 0.931 . S
C1128 C1125 1.382 1_655 S
C1128 C1126 1.392 . S
C1129 Eu1120 2.828 . S
C1129 C1123 1.505 . S
C1129 O1141 1.249 . S
C1129 O1142 1.244 1_455 S
O1130 Eu1121 2.373 1_455 S
O1130 C1132 1.258 . S
O1131 Eu1120 2.392 1_554 S
O1131 C1132 1.242 . S
C1132 O1130 1.258 . S
C1132 O1131 1.242 . S
O1133 Eu1120 2.418 . S
O1133 C1137 1.244 1_556 S
O1134 Eu1121 2.488 . S
O1134 C1150 1.249 . S
O1135 Eu1121 2.471 1_455 S
O1135 C1150 1.244 1_455 S
O1136 Eu1121 2.349 1_455 S
O1136 C1137 1.265 . S
C1137 O1133 1.244 1_554 S
C1137 O1136 1.265 . S
O1138 Eu1120 2.373 1_655 S
O1138 C1151 1.258 . S
O1139 Eu1121 2.392 1_556 S
O1139 C1151 1.242 . S
O1140 Eu1121 2.418 . S
O1140 C1122 1.244 1_554 S
O1141 Eu1120 2.488 . S
O1141 C1129 1.249 . S
O1142 Eu1120 2.471 1_655 S
O1142 C1129 1.244 1_655 S
O1143 Eu1120 2.349 1_655 S
O1143 C1122 1.265 . S
C1144 C1145 1.379 1_655 S
C1144 C1148 1.373 . S
C1144 C1150 1.505 . S
C1145 C1144 1.379 1_455 S
C1145 C1147 1.369 . S
C1145 H1156 0.930 . S
C1146 C1148 1.383 . S
C1146 C1149 1.382 1_655 S
C1146 H1157 0.930 . S
C1147 C1145 1.369 . S
C1147 C1149 1.392 . S
C1147 H1158 0.930 . S
C1148 C1144 1.373 . S
C1148 C1146 1.383 . S
C1148 H1159 0.931 . S
C1149 C1146 1.382 1_455 S
C1149 C1147 1.392 . S
C1150 Eu1121 2.828 . S
C1150 O1134 1.249 . S
C1150 O1135 1.244 1_655 S
C1150 C1144 1.505 . S
C1151 O1138 1.258 . S
C1151 O1139 1.242 . S
H1152 C1124 0.930 . S
H1153 C1125 0.930 . S
H1154 C1126 0.930 . S
H1155 C1127 0.931 . S
H1156 C1145 0.930 . S
H1157 C1146 0.930 . S
H1158 C1147 0.930 . S
H1159 C1148 0.931 . S
Eu1160 C1169 2.828 . S
Eu1160 O1171 2.393 . S
Eu1160 O1173 2.418 . S
Eu1160 O1178 2.373 . S
Eu1160 O1181 2.488 . S
Eu1160 O1182 2.471 . S
Eu1160 O1183 2.349 . S
Eu1161 O1170 2.373 . S
Eu1161 O1174 2.488 . S
Eu1161 O1175 2.471 . S
Eu1161 O1176 2.349 . S
Eu1161 O1179 2.392 1_556 S
Eu1161 O1180 2.418 . S
Eu1161 C1190 2.828 . S
C1162 O1180 1.244 1_554 S
C1162 O1183 1.265 . S
C1163 C1164 1.379 . S
C1163 C1167 1.373 . S
C1163 C1169 1.505 . S
C1164 C1163 1.379 . S
C1164 C1166 1.369 . S
C1164 H1192 0.930 . S
C1165 C1167 1.383 . S
C1165 C1168 1.382 . S
C1165 H1193 0.930 . S
C1166 C1164 1.369 . S
C1166 C1168 1.392 . S
C1166 H1194 0.930 . S
C1167 C1163 1.373 . S
C1167 C1165 1.383 . S
C1167 H1195 0.931 . S
C1168 C1165 1.382 . S
C1168 C1166 1.392 . S
C1169 Eu1160 2.828 . S
C1169 C1163 1.505 . S
C1169 O1181 1.249 . S
C1169 O1182 1.244 . S
O1170 Eu1161 2.373 . S
O1170 C1172 1.258 . S
O1171 Eu1160 2.393 . S
O1171 C1172 1.242 1_554 S
C1172 O1170 1.258 . S
C1172 O1171 1.242 1_556 S
O1173 Eu1160 2.418 . S
O1173 C1177 1.244 1_554 S
O1174 Eu1161 2.488 . S
O1174 C1190 1.249 . S
O1175 Eu1161 2.471 . S
O1175 C1190 1.244 . S
O1176 Eu1161 2.349 . S
O1176 C1177 1.265 . S
C1177 O1173 1.244 1_556 S
C1177 O1176 1.265 . S
O1178 Eu1160 2.373 . S
O1178 C1191 1.258 . S
O1179 Eu1161 2.392 1_554 S
O1179 C1191 1.242 . S
O1180 Eu1161 2.418 . S
O1180 C1162 1.244 1_556 S
O1181 Eu1160 2.488 . S
O1181 C1169 1.249 . S
O1182 Eu1160 2.471 . S
O1182 C1169 1.244 . S
O1183 Eu1160 2.349 . S
O1183 C1162 1.265 . S
C1184 C1185 1.379 . S
C1184 C1188 1.373 . S
C1184 C1190 1.505 . S
C1185 C1184 1.379 . S
C1185 C1187 1.369 . S
C1185 H1196 0.930 . S
C1186 C1188 1.383 . S
C1186 C1189 1.382 . S
C1186 H1197 0.930 . S
C1187 C1185 1.369 . S
C1187 C1189 1.392 . S
C1187 H1198 0.930 . S
C1188 C1184 1.373 . S
C1188 C1186 1.383 . S
C1188 H1199 0.931 . S
C1189 C1186 1.382 . S
C1189 C1187 1.392 . S
C1190 Eu1161 2.828 . S
C1190 O1174 1.249 . S
C1190 O1175 1.244 . S
C1190 C1184 1.505 . S
C1191 O1178 1.258 . S
C1191 O1179 1.242 . S
H1192 C1164 0.930 . S
H1193 C1165 0.930 . S
H1194 C1166 0.930 . S
H1195 C1167 0.931 . S
H1196 C1185 0.930 . S
H1197 C1186 0.930 . S
H1198 C1187 0.930 . S
H1199 C1188 0.931 . S
Eu1200 C1209 2.828 . S
Eu1200 O1211 2.392 . S
Eu1200 O1213 2.418 . S
Eu1200 O1218 2.373 . S
Eu1200 O1221 2.488 . S
Eu1200 O1222 2.471 . S
Eu1200 O1223 2.349 . S
Eu1201 O1210 2.373 . S
Eu1201 O1214 2.488 . S
Eu1201 O1215 2.471 . S
Eu1201 O1216 2.349 . S
Eu1201 O1219 2.392 . S
Eu1201 O1220 2.418 . S
Eu1201 C1230 2.828 . S
C1202 O1220 1.244 . S
C1202 O1223 1.265 . S
C1203 C1204 1.379 . S
C1203 C1207 1.373 . S
C1203 C1209 1.505 . S
C1204 C1203 1.379 . S
C1204 C1206 1.369 . S
C1204 H1232 0.930 . S
C1205 C1207 1.383 . S
C1205 C1208 1.382 . S
C1205 H1233 0.930 . S
C1206 C1204 1.369 . S
C1206 C1208 1.392 . S
C1206 H1234 0.930 . S
C1207 C1203 1.373 . S
C1207 C1205 1.383 . S
C1207 H1235 0.931 . S
C1208 C1205 1.382 . S
C1208 C1206 1.392 . S
C1209 Eu1200 2.828 . S
C1209 C1203 1.505 . S
C1209 O1221 1.249 . S
C1209 O1222 1.244 . S
O1210 Eu1201 2.373 . S
O1210 C1212 1.258 . S
O1211 Eu1200 2.392 . S
O1211 C1212 1.242 . S
C1212 O1210 1.258 . S
C1212 O1211 1.242 . S
O1213 Eu1200 2.418 . S
O1213 C1217 1.244 . S
O1214 Eu1201 2.488 . S
O1214 C1230 1.249 . S
O1215 Eu1201 2.471 . S
O1215 C1230 1.244 . S
O1216 Eu1201 2.349 . S
O1216 C1217 1.265 . S
C1217 O1213 1.244 . S
C1217 O1216 1.265 . S
O1218 Eu1200 2.373 . S
O1218 C1231 1.258 . S
O1219 Eu1201 2.392 . S
O1219 C1231 1.242 . S
O1220 Eu1201 2.418 . S
O1220 C1202 1.244 . S
O1221 Eu1200 2.488 . S
O1221 C1209 1.249 . S
O1222 Eu1200 2.471 . S
O1222 C1209 1.244 . S
O1223 Eu1200 2.349 . S
O1223 C1202 1.265 . S
C1224 C1225 1.379 . S
C1224 C1228 1.373 . S
C1224 C1230 1.505 . S
C1225 C1224 1.379 . S
C1225 C1227 1.369 . S
C1225 H1236 0.930 . S
C1226 C1228 1.383 . S
C1226 C1229 1.382 . S
C1226 H1237 0.930 . S
C1227 C1225 1.369 . S
C1227 C1229 1.392 . S
C1227 H1238 0.930 . S
C1228 C1224 1.373 . S
C1228 C1226 1.383 . S
C1228 H1239 0.931 . S
C1229 C1226 1.382 . S
C1229 C1227 1.392 . S
C1230 Eu1201 2.828 . S
C1230 O1214 1.249 . S
C1230 O1215 1.244 . S
C1230 C1224 1.505 . S
C1231 O1218 1.258 . S
C1231 O1219 1.242 . S
H1232 C1204 0.930 . S
H1233 C1205 0.930 . S
H1234 C1206 0.930 . S
H1235 C1207 0.931 . S
H1236 C1225 0.930 . S
H1237 C1226 0.930 . S
H1238 C1227 0.930 . S
H1239 C1228 0.931 . S
Eu1240 C1249 2.828 . S
Eu1240 O1251 2.392 . S
Eu1240 O1253 2.418 . S
Eu1240 O1258 2.373 . S
Eu1240 O1261 2.488 . S
Eu1240 O1262 2.471 . S
Eu1240 O1263 2.349 . S
Eu1241 O1250 2.373 . S
Eu1241 O1254 2.488 . S
Eu1241 O1255 2.471 . S
Eu1241 O1256 2.349 . S
Eu1241 O1259 2.392 . S
Eu1241 O1260 2.418 . S
Eu1241 C1270 2.828 . S
C1242 O1260 1.244 . S
C1242 O1263 1.265 . S
C1243 C1244 1.379 . S
C1243 C1247 1.373 . S
C1243 C1249 1.505 . S
C1244 C1243 1.379 . S
C1244 C1246 1.369 . S
C1244 H1272 0.930 . S
C1245 C1247 1.383 . S
C1245 C1248 1.382 . S
C1245 H1273 0.930 . S
C1246 C1244 1.369 . S
C1246 C1248 1.392 . S
C1246 H1274 0.930 . S
C1247 C1243 1.373 . S
C1247 C1245 1.383 . S
C1247 H1275 0.931 . S
C1248 C1245 1.382 . S
C1248 C1246 1.392 . S
C1249 Eu1240 2.828 . S
C1249 C1243 1.505 . S
C1249 O1261 1.249 . S
C1249 O1262 1.244 . S
O1250 Eu1241 2.373 . S
O1250 C1252 1.258 . S
O1251 Eu1240 2.392 . S
O1251 C1252 1.242 . S
C1252 O1250 1.258 . S
C1252 O1251 1.242 . S
O1253 Eu1240 2.418 . S
O1253 C1257 1.244 . S
O1254 Eu1241 2.488 . S
O1254 C1270 1.249 . S
O1255 Eu1241 2.471 . S
O1255 C1270 1.244 . S
O1256 Eu1241 2.349 . S
O1256 C1257 1.265 . S
C1257 O1253 1.244 . S
C1257 O1256 1.265 . S
O1258 Eu1240 2.373 . S
O1258 C1271 1.258 . S
O1259 Eu1241 2.392 . S
O1259 C1271 1.242 . S
O1260 Eu1241 2.418 . S
O1260 C1242 1.244 . S
O1261 Eu1240 2.488 . S
O1261 C1249 1.249 . S
O1262 Eu1240 2.471 . S
O1262 C1249 1.244 . S
O1263 Eu1240 2.349 . S
O1263 C1242 1.265 . S
C1264 C1265 1.379 . S
C1264 C1268 1.373 . S
C1264 C1270 1.505 . S
C1265 C1264 1.379 . S
C1265 C1267 1.369 . S
C1265 H1276 0.930 . S
C1266 C1268 1.383 . S
C1266 C1269 1.382 . S
C1266 H1277 0.930 . S
C1267 C1265 1.369 . S
C1267 C1269 1.392 . S
C1267 H1278 0.930 . S
C1268 C1264 1.373 . S
C1268 C1266 1.383 . S
C1268 H1279 0.931 . S
C1269 C1266 1.382 . S
C1269 C1267 1.392 . S
C1270 Eu1241 2.828 . S
C1270 O1254 1.249 . S
C1270 O1255 1.244 . S
C1270 C1264 1.505 . S
C1271 O1258 1.258 . S
C1271 O1259 1.242 . S
H1272 C1244 0.930 . S
H1273 C1245 0.930 . S
H1274 C1246 0.930 . S
H1275 C1247 0.931 . S
H1276 C1265 0.930 . S
H1277 C1266 0.930 . S
H1278 C1267 0.930 . S
H1279 C1268 0.931 . S
Eu1280 C1289 2.828 . S
Eu1280 O1291 2.392 . S
Eu1280 O1293 2.418 . S
Eu1280 O1298 2.373 . S
Eu1280 O1301 2.488 . S
Eu1280 O1302 2.471 . S
Eu1280 O1303 2.349 . S
Eu1281 O1290 2.373 . S
Eu1281 O1294 2.488 . S
Eu1281 O1295 2.471 . S
Eu1281 O1296 2.349 . S
Eu1281 O1299 2.392 . S
Eu1281 O1300 2.418 . S
Eu1281 C1310 2.828 . S
C1282 O1300 1.244 . S
C1282 O1303 1.265 . S
C1283 C1284 1.379 . S
C1283 C1287 1.373 . S
C1283 C1289 1.505 . S
C1284 C1283 1.379 . S
C1284 C1286 1.369 . S
C1284 H1312 0.930 . S
C1285 C1287 1.383 . S
C1285 C1288 1.382 . S
C1285 H1313 0.930 . S
C1286 C1284 1.369 . S
C1286 C1288 1.392 . S
C1286 H1314 0.930 . S
C1287 C1283 1.373 . S
C1287 C1285 1.383 . S
C1287 H1315 0.931 . S
C1288 C1285 1.382 . S
C1288 C1286 1.392 . S
C1289 Eu1280 2.828 . S
C1289 C1283 1.505 . S
C1289 O1301 1.249 . S
C1289 O1302 1.244 . S
O1290 Eu1281 2.373 . S
O1290 C1292 1.258 . S
O1291 Eu1280 2.392 . S
O1291 C1292 1.242 . S
C1292 O1290 1.258 . S
C1292 O1291 1.242 . S
O1293 Eu1280 2.418 . S
O1293 C1297 1.244 . S
O1294 Eu1281 2.488 . S
O1294 C1310 1.249 . S
O1295 Eu1281 2.471 . S
O1295 C1310 1.244 . S
O1296 Eu1281 2.349 . S
O1296 C1297 1.265 . S
C1297 O1293 1.244 . S
C1297 O1296 1.265 . S
O1298 Eu1280 2.373 . S
O1298 C1311 1.258 . S
O1299 Eu1281 2.392 . S
O1299 C1311 1.242 . S
O1300 Eu1281 2.418 . S
O1300 C1282 1.244 . S
O1301 Eu1280 2.488 . S
O1301 C1289 1.249 . S
O1302 Eu1280 2.471 . S
O1302 C1289 1.244 . S
O1303 Eu1280 2.349 . S
O1303 C1282 1.265 . S
C1304 C1305 1.379 . S
C1304 C1308 1.373 . S
C1304 C1310 1.505 . S
C1305 C1304 1.379 . S
C1305 C1307 1.369 . S
C1305 H1316 0.930 . S
C1306 C1308 1.383 . S
C1306 C1309 1.382 . S
C1306 H1317 0.930 . S
C1307 C1305 1.369 . S
C1307 C1309 1.392 . S
C1307 H1318 0.930 . S
C1308 C1304 1.373 . S
C1308 C1306 1.383 . S
C1308 H1319 0.931 . S
C1309 C1306 1.382 . S
C1309 C1307 1.392 . S
C1310 Eu1281 2.828 . S
C1310 O1294 1.249 . S
C1310 O1295 1.244 . S
C1310 C1304 1.505 . S
C1311 O1298 1.258 . S
C1311 O1299 1.242 . S
H1312 C1284 0.930 . S
H1313 C1285 0.930 . S
H1314 C1286 0.930 . S
H1315 C1287 0.931 . S
H1316 C1305 0.930 . S
H1317 C1306 0.930 . S
H1318 C1307 0.930 . S
H1319 C1308 0.931 . S
Eu1320 C1329 2.828 . S
Eu1320 O1331 2.392 . S
Eu1320 O1333 2.418 . S
Eu1320 O1338 2.373 . S
Eu1320 O1341 2.488 . S
Eu1320 O1342 2.471 . S
Eu1320 O1343 2.349 . S
Eu1321 O1330 2.373 . S
Eu1321 O1334 2.488 . S
Eu1321 O1335 2.471 . S
Eu1321 O1336 2.349 . S
Eu1321 O1339 2.392 . S
Eu1321 O1340 2.418 . S
Eu1321 C1350 2.828 . S
C1322 O1340 1.244 . S
C1322 O1343 1.265 . S
C1323 C1324 1.379 . S
C1323 C1327 1.373 . S
C1323 C1329 1.505 . S
C1324 C1323 1.379 . S
C1324 C1326 1.369 . S
C1324 H1352 0.930 . S
C1325 C1327 1.383 . S
C1325 C1328 1.382 . S
C1325 H1353 0.930 . S
C1326 C1324 1.369 . S
C1326 C1328 1.392 . S
C1326 H1354 0.930 . S
C1327 C1323 1.373 . S
C1327 C1325 1.383 . S
C1327 H1355 0.931 . S
C1328 C1325 1.382 . S
C1328 C1326 1.392 . S
C1329 Eu1320 2.828 . S
C1329 C1323 1.505 . S
C1329 O1341 1.249 . S
C1329 O1342 1.244 . S
O1330 Eu1321 2.373 . S
O1330 C1332 1.258 . S
O1331 Eu1320 2.392 . S
O1331 C1332 1.242 . S
C1332 O1330 1.258 . S
C1332 O1331 1.242 . S
O1333 Eu1320 2.418 . S
O1333 C1337 1.244 . S
O1334 Eu1321 2.488 . S
O1334 C1350 1.249 . S
O1335 Eu1321 2.471 . S
O1335 C1350 1.244 . S
O1336 Eu1321 2.349 . S
O1336 C1337 1.265 . S
C1337 O1333 1.244 . S
C1337 O1336 1.265 . S
O1338 Eu1320 2.373 . S
O1338 C1351 1.258 . S
O1339 Eu1321 2.392 . S
O1339 C1351 1.242 . S
O1340 Eu1321 2.418 . S
O1340 C1322 1.244 . S
O1341 Eu1320 2.488 . S
O1341 C1329 1.249 . S
O1342 Eu1320 2.471 . S
O1342 C1329 1.244 . S
O1343 Eu1320 2.349 . S
O1343 C1322 1.265 . S
C1344 C1345 1.379 . S
C1344 C1348 1.373 . S
C1344 C1350 1.505 . S
C1345 C1344 1.379 . S
C1345 C1347 1.369 . S
C1345 H1356 0.930 . S
C1346 C1348 1.383 . S
C1346 C1349 1.382 . S
C1346 H1357 0.930 . S
C1347 C1345 1.369 . S
C1347 C1349 1.392 . S
C1347 H1358 0.930 . S
C1348 C1344 1.373 . S
C1348 C1346 1.383 . S
C1348 H1359 0.931 . S
C1349 C1346 1.382 . S
C1349 C1347 1.392 . S
C1350 Eu1321 2.828 . S
C1350 O1334 1.249 . S
C1350 O1335 1.244 . S
C1350 C1344 1.505 . S
C1351 O1338 1.258 . S
C1351 O1339 1.242 . S
H1352 C1324 0.930 . S
H1353 C1325 0.930 . S
H1354 C1326 0.930 . S
H1355 C1327 0.931 . S
H1356 C1345 0.930 . S
H1357 C1346 0.930 . S
H1358 C1347 0.930 . S
H1359 C1348 0.931 . S
Eu1360 C1369 2.828 . S
Eu1360 O1371 2.392 . S
Eu1360 O1373 2.418 . S
Eu1360 O1378 2.373 . S
Eu1360 O1381 2.488 . S
Eu1360 O1382 2.471 . S
Eu1360 O1383 2.349 . S
Eu1361 O1370 2.373 . S
Eu1361 O1374 2.488 . S
Eu1361 O1375 2.471 . S
Eu1361 O1376 2.349 . S
Eu1361 O1379 2.392 . S
Eu1361 O1380 2.418 . S
Eu1361 C1390 2.828 . S
C1362 O1380 1.244 . S
C1362 O1383 1.265 . S
C1363 C1364 1.379 . S
C1363 C1367 1.373 . S
C1363 C1369 1.505 . S
C1364 C1363 1.379 . S
C1364 C1366 1.369 . S
C1364 H1392 0.930 . S
C1365 C1367 1.383 . S
C1365 C1368 1.382 . S
C1365 H1393 0.930 . S
C1366 C1364 1.369 . S
C1366 C1368 1.392 . S
C1366 H1394 0.930 . S
C1367 C1363 1.373 . S
C1367 C1365 1.383 . S
C1367 H1395 0.931 . S
C1368 C1365 1.382 . S
C1368 C1366 1.392 . S
C1369 Eu1360 2.828 . S
C1369 C1363 1.505 . S
C1369 O1381 1.249 . S
C1369 O1382 1.244 . S
O1370 Eu1361 2.373 . S
O1370 C1372 1.258 . S
O1371 Eu1360 2.392 . S
O1371 C1372 1.242 . S
C1372 O1370 1.258 . S
C1372 O1371 1.242 . S
O1373 Eu1360 2.418 . S
O1373 C1377 1.244 . S
O1374 Eu1361 2.488 . S
O1374 C1390 1.249 . S
O1375 Eu1361 2.471 . S
O1375 C1390 1.244 . S
O1376 Eu1361 2.349 . S
O1376 C1377 1.265 . S
C1377 O1373 1.244 . S
C1377 O1376 1.265 . S
O1378 Eu1360 2.373 . S
O1378 C1391 1.258 . S
O1379 Eu1361 2.392 . S
O1379 C1391 1.242 . S
O1380 Eu1361 2.418 . S
O1380 C1362 1.244 . S
O1381 Eu1360 2.488 . S
O1381 C1369 1.249 . S
O1382 Eu1360 2.471 . S
O1382 C1369 1.244 . S
O1383 Eu1360 2.349 . S
O1383 C1362 1.265 . S
C1384 C1385 1.379 . S
C1384 C1388 1.373 . S
C1384 C1390 1.505 . S
C1385 C1384 1.379 . S
C1385 C1387 1.369 . S
C1385 H1396 0.930 . S
C1386 C1388 1.383 . S
C1386 C1389 1.382 . S
C1386 H1397 0.930 . S
C1387 C1385 1.369 . S
C1387 C1389 1.392 . S
C1387 H1398 0.930 . S
C1388 C1384 1.373 . S
C1388 C1386 1.383 . S
C1388 H1399 0.931 . S
C1389 C1386 1.382 . S
C1389 C1387 1.392 . S
C1390 Eu1361 2.828 . S
C1390 O1374 1.249 . S
C1390 O1375 1.244 . S
C1390 C1384 1.505 . S
C1391 O1378 1.258 . S
C1391 O1379 1.242 . S
H1392 C1364 0.930 . S
H1393 C1365 0.930 . S
H1394 C1366 0.930 . S
H1395 C1367 0.931 . S
H1396 C1385 0.930 . S
H1397 C1386 0.930 . S
H1398 C1387 0.930 . S
H1399 C1388 0.931 . S
Eu1400 C1409 2.828 . S
Eu1400 O1411 2.392 . S
Eu1400 O1413 2.418 . S
Eu1400 O1418 2.373 . S
Eu1400 O1421 2.488 . S
Eu1400 O1422 2.471 . S
Eu1400 O1423 2.349 . S
Eu1401 O1410 2.373 . S
Eu1401 O1414 2.488 . S
Eu1401 O1415 2.471 . S
Eu1401 O1416 2.349 . S
Eu1401 O1419 2.392 . S
Eu1401 O1420 2.418 . S
Eu1401 C1430 2.828 . S
C1402 O1420 1.244 . S
C1402 O1423 1.265 . S
C1403 C1404 1.379 . S
C1403 C1407 1.373 . S
C1403 C1409 1.505 . S
C1404 C1403 1.379 . S
C1404 C1406 1.369 . S
C1404 H1432 0.930 . S
C1405 C1407 1.383 . S
C1405 C1408 1.382 . S
C1405 H1433 0.930 . S
C1406 C1404 1.369 . S
C1406 C1408 1.392 . S
C1406 H1434 0.930 . S
C1407 C1403 1.373 . S
C1407 C1405 1.383 . S
C1407 H1435 0.931 . S
C1408 C1405 1.382 . S
C1408 C1406 1.392 . S
C1409 Eu1400 2.828 . S
C1409 C1403 1.505 . S
C1409 O1421 1.249 . S
C1409 O1422 1.244 . S
O1410 Eu1401 2.373 . S
O1410 C1412 1.258 . S
O1411 Eu1400 2.392 . S
O1411 C1412 1.242 . S
C1412 O1410 1.258 . S
C1412 O1411 1.242 . S
O1413 Eu1400 2.418 . S
O1413 C1417 1.244 . S
O1414 Eu1401 2.488 . S
O1414 C1430 1.249 . S
O1415 Eu1401 2.471 . S
O1415 C1430 1.244 . S
O1416 Eu1401 2.349 . S
O1416 C1417 1.265 . S
C1417 O1413 1.244 . S
C1417 O1416 1.265 . S
O1418 Eu1400 2.373 . S
O1418 C1431 1.258 . S
O1419 Eu1401 2.392 . S
O1419 C1431 1.242 . S
O1420 Eu1401 2.418 . S
O1420 C1402 1.244 . S
O1421 Eu1400 2.488 . S
O1421 C1409 1.249 . S
O1422 Eu1400 2.471 . S
O1422 C1409 1.244 . S
O1423 Eu1400 2.349 . S
O1423 C1402 1.265 . S
C1424 C1425 1.379 . S
C1424 C1428 1.373 . S
C1424 C1430 1.505 . S
C1425 C1424 1.379 . S
C1425 C1427 1.369 . S
C1425 H1436 0.930 . S
C1426 C1428 1.383 . S
C1426 C1429 1.382 . S
C1426 H1437 0.930 . S
C1427 C1425 1.369 . S
C1427 C1429 1.392 . S
C1427 H1438 0.930 . S
C1428 C1424 1.373 . S
C1428 C1426 1.383 . S
C1428 H1439 0.931 . S
C1429 C1426 1.382 . S
C1429 C1427 1.392 . S
C1430 Eu1401 2.828 . S
C1430 O1414 1.249 . S
C1430 O1415 1.244 . S
C1430 C1424 1.505 . S
C1431 O1418 1.258 . S
C1431 O1419 1.242 . S
H1432 C1404 0.930 . S
H1433 C1405 0.930 . S
H1434 C1406 0.930 . S
H1435 C1407 0.931 . S
H1436 C1425 0.930 . S
H1437 C1426 0.930 . S
H1438 C1427 0.930 . S
H1439 C1428 0.931 . S
C1440 C1441 1.387 . S
C1440 H1444 0.950 . S
C1440 C1449 1.390 . S
C1441 C1440 1.387 . S
C1441 C1443 1.387 . S
H1442 C1449 0.950 1_556 S
C1443 C1441 1.387 . S
C1443 C1445 1.390 . S
C1443 H1447 0.950 . S
H1444 C1440 0.950 . S
C1445 C1443 1.390 . S
C1445 C1446 1.387 . S
C1445 H1448 0.950 . S
C1446 C1445 1.387 . S
C1446 C1449 1.387 . S
H1447 C1443 0.950 . S
H1448 C1445 0.950 . S
C1449 C1440 1.390 . S
C1449 H1442 0.950 1_554 S
C1449 C1446 1.387 . S
C1450 C1451 1.387 . S
C1450 H1454 0.950 . S
C1450 C1459 1.390 . S
C1451 C1450 1.387 . S
C1451 C1453 1.387 . S
H1452 C1459 0.950 . S
C1453 C1451 1.387 . S
C1453 C1455 1.390 . S
C1453 H1457 0.950 . S
H1454 C1450 0.950 . S
C1455 C1453 1.390 . S
C1455 C1456 1.387 . S
C1455 H1458 0.950 . S
C1456 C1455 1.387 . S
C1456 C1459 1.387 . S
H1457 C1453 0.950 . S
H1458 C1455 0.950 . S
C1459 C1450 1.390 . S
C1459 H1452 0.950 . S
C1459 C1456 1.387 . S
C1460 C1461 1.387 . S
C1460 H1464 0.950 . S
C1460 C1469 1.390 . S
C1461 C1460 1.387 . S
C1461 C1463 1.387 1_554 S
H1462 C1469 0.950 . S
C1463 C1461 1.387 1_556 S
C1463 C1465 1.390 . S
C1463 H1467 0.950 . S
H1464 C1460 0.950 . S
C1465 C1463 1.390 . S
C1465 C1466 1.387 1_556 S
C1465 H1468 0.950 . S
C1466 C1465 1.387 1_554 S
C1466 C1469 1.387 . S
H1467 C1463 0.950 . S
H1468 C1465 0.950 . S
C1469 C1460 1.390 . S
C1469 H1462 0.950 . S
C1469 C1466 1.387 . S
C1470 C1471 1.387 . S
C1470 H1474 0.950 . S
C1470 C1479 1.390 . S
C1471 C1470 1.387 . S
C1471 C1473 1.387 . S
H1472 C1479 0.950 . S
C1473 C1471 1.387 . S
C1473 C1475 1.390 1_556 S
C1473 H1477 0.950 1_556 S
H1474 C1470 0.950 . S
C1475 C1473 1.390 1_554 S
C1475 C1476 1.392 1_554 S
C1475 H1478 0.945 . S
C1476 C1475 1.392 1_556 S
C1476 C1479 1.387 . S
H1477 C1473 0.950 1_554 S
H1478 C1475 0.945 . S
C1479 C1470 1.390 . S
C1479 H1472 0.950 . S
C1479 C1476 1.387 . S
C1480 C1481 1.387 . S
C1480 H1484 0.950 . S
C1480 C1489 1.390 . S
C1481 C1480 1.387 . S
C1481 C1483 1.387 . S
H1482 C1489 0.950 . S
C1483 C1481 1.387 . S
C1483 C1485 1.390 . S
C1483 H1487 0.950 . S
H1484 C1480 0.950 . S
C1485 C1483 1.390 . S
C1485 C1486 1.387 . S
C1485 H1488 0.950 . S
C1486 C1485 1.387 . S
C1486 C1489 1.387 . S
H1487 C1483 0.950 . S
H1488 C1485 0.950 . S
C1489 C1480 1.390 . S
C1489 H1482 0.950 . S
C1489 C1486 1.387 . S
C1490 C1491 1.387 . S
C1490 H1494 0.950 . S
C1490 C1499 1.390 . S
C1491 C1490 1.387 . S
C1491 C1493 1.387 . S
H1492 C1499 0.950 . S
C1493 C1491 1.387 . S
C1493 C1495 1.390 . S
C1493 H1497 0.950 . S
H1494 C1490 0.950 . S
C1495 C1493 1.390 . S
C1495 C1496 1.387 . S
C1495 H1498 0.950 1_556 S
C1496 C1495 1.387 . S
C1496 C1499 1.387 . S
H1497 C1493 0.950 . S
H1498 C1495 0.950 1_554 S
C1499 C1490 1.390 . S
C1499 H1492 0.950 . S
C1499 C1496 1.387 . S
C1500 C1501 1.387 . S
C1500 H1504 0.950 . S
C1500 C1509 1.390 . S
C1501 C1500 1.387 . S
C1501 C1503 1.387 . S
H1502 C1509 0.950 . S
C1503 C1501 1.387 . S
C1503 C1505 1.390 . S
C1503 H1507 0.950 . S
H1504 C1500 0.950 . S
C1505 C1503 1.390 . S
C1505 C1506 1.387 . S
C1505 H1508 0.950 . S
C1506 C1505 1.387 . S
C1506 C1509 1.387 . S
H1507 C1503 0.950 . S
H1508 C1505 0.950 . S
C1509 C1500 1.390 . S
C1509 H1502 0.950 . S
C1509 C1506 1.387 . S
C1510 C1511 1.387 . S
C1510 H1514 0.950 . S
C1510 C1519 1.390 . S
C1511 C1510 1.387 . S
C1511 C1513 1.387 . S
H1512 C1519 0.950 . S
C1513 C1511 1.387 . S
C1513 C1515 1.390 . S
C1513 H1517 0.950 . S
H1514 C1510 0.950 . S
C1515 C1513 1.390 . S
C1515 C1516 1.387 . S
C1515 H1518 0.950 . S
C1516 C1515 1.387 . S
C1516 C1519 1.387 . S
H1517 C1513 0.950 . S
H1518 C1515 0.950 . S
C1519 C1510 1.390 . S
C1519 H1512 0.950 . S
C1519 C1516 1.387 . S
C1520 C1521 1.387 1_554 S
C1520 H1524 0.950 . S
C1520 C1529 1.390 . S
C1521 C1520 1.387 1_556 S
C1521 C1523 1.387 . S
H1522 C1529 0.950 . S
C1523 C1521 1.387 . S
C1523 C1525 1.390 . S
C1523 H1527 0.950 . S
H1524 C1520 0.950 . S
C1525 C1523 1.390 . S
C1525 C1526 1.387 . S
C1525 H1528 0.950 . S
C1526 C1525 1.387 . S
C1526 C1529 1.387 1_556 S
H1527 C1523 0.950 . S
H1528 C1525 0.950 . S
C1529 C1520 1.390 . S
C1529 H1522 0.950 . S
C1529 C1526 1.387 1_554 S
C1530 C1531 1.387 . S
C1530 H1534 0.950 . S
C1530 C1539 1.390 . S
C1531 C1530 1.387 . S
C1531 C1533 1.387 . S
H1532 C1539 0.950 . S
C1533 C1531 1.387 . S
C1533 C1535 1.390 . S
C1533 H1537 0.950 . S
H1534 C1530 0.950 . S
C1535 C1533 1.390 . S
C1535 C1536 1.387 . S
C1535 H1538 0.950 . S
C1536 C1535 1.387 . S
C1536 C1539 1.387 . S
H1537 C1533 0.950 . S
H1538 C1535 0.950 . S
C1539 C1530 1.390 . S
C1539 H1532 0.950 . S
C1539 C1536 1.387 . S
C1540 C1541 1.387 . S
C1540 H1544 0.950 . S
C1540 C1549 1.390 . S
C1541 C1540 1.387 . S
C1541 C1543 1.387 . S
H1542 C1549 0.950 . S
C1543 C1541 1.387 . S
C1543 C1545 1.390 . S
C1543 H1547 0.950 . S
H1544 C1540 0.950 . S
C1545 C1543 1.390 . S
C1545 C1546 1.387 . S
C1545 H1548 0.950 . S
C1546 C1545 1.387 . S
C1546 C1549 1.387 . S
H1547 C1543 0.950 . S
H1548 C1545 0.950 . S
C1549 C1540 1.390 . S
C1549 H1542 0.950 . S
C1549 C1546 1.387 . S
C1550 C1551 1.387 . S
C1550 H1554 0.950 1_554 S
C1550 C1559 1.390 1_554 S
C1551 C1550 1.387 . S
C1551 C1553 1.387 . S
H1552 C1559 0.951 . S
C1553 C1551 1.387 . S
C1553 C1555 1.390 . S
C1553 H1557 0.950 . S
H1554 C1550 0.950 1_556 S
C1555 C1553 1.390 . S
C1555 C1556 1.387 . S
C1555 H1558 0.950 . S
C1556 C1555 1.387 . S
C1556 C1559 1.386 1_554 S
H1557 C1553 0.950 . S
H1558 C1555 0.950 . S
C1559 C1550 1.390 1_556 S
C1559 H1552 0.951 . S
C1559 C1556 1.386 1_556 S
C1560 C1561 1.387 . S
C1560 H1564 0.950 . S
C1560 C1569 1.390 . S
C1561 C1560 1.387 . S
C1561 C1563 1.387 . S
H1562 C1569 0.950 . S
C1563 C1561 1.387 . S
C1563 C1565 1.390 . S
C1563 H1567 0.950 1_455 S
H1564 C1560 0.950 . S
C1565 C1563 1.390 . S
C1565 C1566 1.387 . S
C1565 H1568 0.950 . S
C1566 C1565 1.387 . S
C1566 C1569 1.387 . S
H1567 C1563 0.950 1_655 S
H1568 C1565 0.950 . S
C1569 C1560 1.390 . S
C1569 H1562 0.950 . S
C1569 C1566 1.387 . S
C1570 C1571 1.387 . S
C1570 H1574 0.950 . S
C1570 C1579 1.390 . S
C1571 C1570 1.387 . S
C1571 C1573 1.387 . S
H1572 C1579 0.950 . S
C1573 C1571 1.387 . S
C1573 C1575 1.390 . S
C1573 H1577 0.950 . S
H1574 C1570 0.950 . S
C1575 C1573 1.390 . S
C1575 C1576 1.387 . S
C1575 H1578 0.950 . S
C1576 C1575 1.387 . S
C1576 C1579 1.387 . S
H1577 C1573 0.950 . S
H1578 C1575 0.950 . S
C1579 C1570 1.390 . S
C1579 H1572 0.950 . S
C1579 C1576 1.387 . S
C1580 C1581 1.387 1_565 S
C1580 H1584 0.950 1_565 S
C1580 C1589 1.390 . S
C1581 C1580 1.387 1_545 S
C1581 C1583 1.387 1_545 S
H1582 C1589 0.950 . S
C1583 C1581 1.387 1_565 S
C1583 C1585 1.390 . S
C1583 H1587 0.950 . S
H1584 C1580 0.950 1_545 S
C1585 C1583 1.390 . S
C1585 C1586 1.387 . S
C1585 H1588 0.950 . S
C1586 C1585 1.387 . S
C1586 C1589 1.387 . S
H1587 C1583 0.950 . S
H1588 C1585 0.950 . S
C1589 C1580 1.390 . S
C1589 H1582 0.950 . S
C1589 C1586 1.387 . S
C1590 C1591 1.387 . S
C1590 H1594 0.950 . S
C1590 C1599 1.390 . S
C1591 C1590 1.387 . S
C1591 C1593 1.387 . S
H1592 C1599 0.950 . S
C1593 C1591 1.387 . S
C1593 C1595 1.390 . S
C1593 H1597 0.950 . S
H1594 C1590 0.950 . S
C1595 C1593 1.390 . S
C1595 C1596 1.387 . S
C1595 H1598 0.950 . S
C1596 C1595 1.387 . S
C1596 C1599 1.387 . S
H1597 C1593 0.950 . S
H1598 C1595 0.950 . S
C1599 C1590 1.390 . S
C1599 H1592 0.950 . S
C1599 C1596 1.387 . S
C1600 C1601 1.387 . S
C1600 H1604 0.950 . S
C1600 C1609 1.390 . S
C1601 C1600 1.387 . S
C1601 C1603 1.387 . S
H1602 C1609 0.950 . S
C1603 C1601 1.387 . S
C1603 C1605 1.390 . S
C1603 H1607 0.950 . S
H1604 C1600 0.950 . S
C1605 C1603 1.390 . S
C1605 C1606 1.387 . S
C1605 H1608 0.950 . S
C1606 C1605 1.387 . S
C1606 C1609 1.387 . S
H1607 C1603 0.950 . S
H1608 C1605 0.950 . S
C1609 C1600 1.390 . S
C1609 H1602 0.950 . S
C1609 C1606 1.387 . S
C1610 C1611 1.387 . S
C1610 H1614 0.950 . S
C1610 C1619 1.390 . S
C1611 C1610 1.387 . S
C1611 C1613 1.387 . S
H1612 C1619 0.950 . S
C1613 C1611 1.387 . S
C1613 C1615 1.390 . S
C1613 H1617 0.950 . S
H1614 C1610 0.950 . S
C1615 C1613 1.390 . S
C1615 C1616 1.387 . S
C1615 H1618 0.950 . S
C1616 C1615 1.387 . S
C1616 C1619 1.387 . S
H1617 C1613 0.950 . S
H1618 C1615 0.950 . S
C1619 C1610 1.390 . S
C1619 H1612 0.950 . S
C1619 C1616 1.387 . S
C1620 C1621 1.387 . S
C1620 H1624 0.950 . S
C1620 C1629 1.390 . S
C1621 C1620 1.387 . S
C1621 C1623 1.387 . S
H1622 C1629 0.950 . S
C1623 C1621 1.387 . S
C1623 C1625 1.390 . S
C1623 H1627 0.950 . S
H1624 C1620 0.950 . S
C1625 C1623 1.390 . S
C1625 C1626 1.387 . S
C1625 H1628 0.950 . S
C1626 C1625 1.387 . S
C1626 C1629 1.387 . S
H1627 C1623 0.950 . S
H1628 C1625 0.950 . S
C1629 C1620 1.390 . S
C1629 H1622 0.950 . S
C1629 C1626 1.387 . S
C1630 C1631 1.387 . S
C1630 H1634 0.950 . S
C1630 C1639 1.390 . S
C1631 C1630 1.387 . S
C1631 C1633 1.387 . S
H1632 C1639 0.950 . S
C1633 C1631 1.387 . S
C1633 C1635 1.390 . S
C1633 H1637 0.950 . S
H1634 C1630 0.950 . S
C1635 C1633 1.390 . S
C1635 C1636 1.387 . S
C1635 H1638 0.950 . S
C1636 C1635 1.387 . S
C1636 C1639 1.387 . S
H1637 C1633 0.950 . S
H1638 C1635 0.950 . S
C1639 C1630 1.390 . S
C1639 H1632 0.950 . S
C1639 C1636 1.387 . S
C1640 C1641 1.387 . S
C1640 H1644 0.950 . S
C1640 C1649 1.390 . S
C1641 C1640 1.387 . S
C1641 C1643 1.387 . S
H1642 C1649 0.950 . S
C1643 C1641 1.387 . S
C1643 C1645 1.390 . S
C1643 H1647 0.950 . S
H1644 C1640 0.950 . S
C1645 C1643 1.390 . S
C1645 C1646 1.387 . S
C1645 H1648 0.950 . S
C1646 C1645 1.387 . S
C1646 C1649 1.387 . S
H1647 C1643 0.950 . S
H1648 C1645 0.950 . S
C1649 C1640 1.390 . S
C1649 H1642 0.950 . S
C1649 C1646 1.387 . S
C1650 C1651 1.385 1_565 S
C1650 H1654 0.950 . S
C1650 C1659 1.390 . S
C1651 C1650 1.385 1_545 S
C1651 C1653 1.386 1_545 S
H1652 C1659 0.950 . S
C1653 C1651 1.386 1_565 S
C1653 C1655 1.390 . S
C1653 H1657 0.950 . S
H1654 C1650 0.950 . S
C1655 C1653 1.390 . S
C1655 C1656 1.387 . S
C1655 H1658 0.950 . S
C1656 C1655 1.387 . S
C1656 C1659 1.387 . S
H1657 C1653 0.950 . S
H1658 C1655 0.950 . S
C1659 C1650 1.390 . S
C1659 H1652 0.950 . S
C1659 C1656 1.387 . S
C1660 C1661 1.387 . S
C1660 H1664 0.950 . S
C1660 C1669 1.390 . S
C1661 C1660 1.387 . S
C1661 C1663 1.387 . S
H1662 C1669 0.950 . S
C1663 C1661 1.387 . S
C1663 C1665 1.390 . S
C1663 H1667 0.950 . S
H1664 C1660 0.950 . S
C1665 C1663 1.390 . S
C1665 C1666 1.387 . S
C1665 H1668 0.950 . S
C1666 C1665 1.387 . S
C1666 C1669 1.387 . S
H1667 C1663 0.950 . S
H1668 C1665 0.950 . S
C1669 C1660 1.390 . S
C1669 H1662 0.950 . S
C1669 C1666 1.387 . S
C1670 C1671 1.387 . S
C1670 H1674 0.950 . S
C1670 C1679 1.390 . S
C1671 C1670 1.387 . S
C1671 C1673 1.387 . S
H1672 C1679 0.950 . S
C1673 C1671 1.387 . S
C1673 C1675 1.390 . S
C1673 H1677 0.950 . S
H1674 C1670 0.950 . S
C1675 C1673 1.390 . S
C1675 C1676 1.387 . S
C1675 H1678 0.950 . S
C1676 C1675 1.387 . S
C1676 C1679 1.387 . S
H1677 C1673 0.950 . S
H1678 C1675 0.950 . S
C1679 C1670 1.390 . S
C1679 H1672 0.950 . S
C1679 C1676 1.387 . S
C1680 C1681 1.387 . S
C1680 H1684 0.950 . S
C1680 C1689 1.390 . S
C1681 C1680 1.387 . S
C1681 C1683 1.387 . S
H1682 C1689 0.950 . S
C1683 C1681 1.387 . S
C1683 C1685 1.390 . S
C1683 H1687 0.950 . S
H1684 C1680 0.950 . S
C1685 C1683 1.390 . S
C1685 C1686 1.387 . S
C1685 H1688 0.950 . S
C1686 C1685 1.387 . S
C1686 C1689 1.387 . S
H1687 C1683 0.950 . S
H1688 C1685 0.950 . S
C1689 C1680 1.390 . S
C1689 H1682 0.950 . S
C1689 C1686 1.387 . S
C1690 C1691 1.387 . S
C1690 H1694 0.950 . S
C1690 C1699 1.390 . S
C1691 C1690 1.387 . S
C1691 C1693 1.387 . S
H1692 C1699 0.950 . S
C1693 C1691 1.387 . S
C1693 C1695 1.390 . S
C1693 H1697 0.950 . S
H1694 C1690 0.950 . S
C1695 C1693 1.390 . S
C1695 C1696 1.387 . S
C1695 H1698 0.950 . S
C1696 C1695 1.387 . S
C1696 C1699 1.387 . S
H1697 C1693 0.950 . S
H1698 C1695 0.950 . S
C1699 C1690 1.390 . S
C1699 H1692 0.950 . S
C1699 C1696 1.387 . S
C1700 C1701 1.387 . S
C1700 H1704 0.950 . S
C1700 C1709 1.390 . S
C1701 C1700 1.387 . S
C1701 C1703 1.387 . S
H1702 C1709 0.950 . S
C1703 C1701 1.387 . S
C1703 C1705 1.390 . S
C1703 H1707 0.950 . S
H1704 C1700 0.950 . S
C1705 C1703 1.390 . S
C1705 C1706 1.387 . S
C1705 H1708 0.950 . S
C1706 C1705 1.387 . S
C1706 C1709 1.387 . S
H1707 C1703 0.950 . S
H1708 C1705 0.950 . S
C1709 C1700 1.390 . S
C1709 H1702 0.950 . S
C1709 C1706 1.387 . S
C1710 C1711 1.387 1_545 S
C1710 H1714 0.950 . S
C1710 C1719 1.390 . S
C1711 C1710 1.387 1_565 S
C1711 C1713 1.387 1_565 S
H1712 C1719 0.950 . S
C1713 C1711 1.387 1_545 S
C1713 C1715 1.390 . S
C1713 H1717 0.950 . S
H1714 C1710 0.950 . S
C1715 C1713 1.390 . S
C1715 C1716 1.387 . S
C1715 H1718 0.950 . S
C1716 C1715 1.387 . S
C1716 C1719 1.387 . S
H1717 C1713 0.950 . S
H1718 C1715 0.950 . S
C1719 C1710 1.390 . S
C1719 H1712 0.950 . S
C1719 C1716 1.387 . S
C1720 C1721 1.387 . S
C1720 H1724 0.950 . S
C1720 C1729 1.390 . S
C1721 C1720 1.387 . S
C1721 C1723 1.387 . S
H1722 C1729 0.950 . S
C1723 C1721 1.387 . S
C1723 C1725 1.390 . S
C1723 H1727 0.950 . S
H1724 C1720 0.950 . S
C1725 C1723 1.390 . S
C1725 C1726 1.387 . S
C1725 H1728 0.950 . S
C1726 C1725 1.387 . S
C1726 C1729 1.387 . S
H1727 C1723 0.950 . S
H1728 C1725 0.950 . S
C1729 C1720 1.390 . S
C1729 H1722 0.950 . S
C1729 C1726 1.387 . S
C1730 C1731 1.387 . S
C1730 H1734 0.950 . S
C1730 C1739 1.390 . S
C1731 C1730 1.387 . S
C1731 C1733 1.387 . S
H1732 C1739 0.950 . S
C1733 C1731 1.387 . S
C1733 C1735 1.390 . S
C1733 H1737 0.950 . S
H1734 C1730 0.950 . S
C1735 C1733 1.390 . S
C1735 C1736 1.387 . S
C1735 H1738 0.950 . S
C1736 C1735 1.387 . S
C1736 C1739 1.387 . S
H1737 C1733 0.950 . S
H1738 C1735 0.950 . S
C1739 C1730 1.390 . S
C1739 H1732 0.950 . S
C1739 C1736 1.387 . S
C1740 C1741 1.387 . S
C1740 H1744 0.950 . S
C1740 C1749 1.390 . S
C1741 C1740 1.387 . S
C1741 C1743 1.387 . S
H1742 C1749 0.950 . S
C1743 C1741 1.387 . S
C1743 C1745 1.390 . S
C1743 H1747 0.950 1_655 S
H1744 C1740 0.950 . S
C1745 C1743 1.390 . S
C1745 C1746 1.387 . S
C1745 H1748 0.950 . S
C1746 C1745 1.387 . S
C1746 C1749 1.387 . S
H1747 C1743 0.950 1_455 S
H1748 C1745 0.950 . S
C1749 C1740 1.390 . S
C1749 H1742 0.950 . S
C1749 C1746 1.387 . S
C1750 C1751 1.387 . S
C1750 H1754 0.950 . S
C1750 C1759 1.390 . S
C1751 C1750 1.387 . S
C1751 C1753 1.387 . S
H1752 C1759 0.950 . S
C1753 C1751 1.387 . S
C1753 C1755 1.390 . S
C1753 H1757 0.950 . S
H1754 C1750 0.950 . S
C1755 C1753 1.390 . S
C1755 C1756 1.387 . S
C1755 H1758 0.950 . S
C1756 C1755 1.387 . S
C1756 C1759 1.387 . S
H1757 C1753 0.950 . S
H1758 C1755 0.950 . S
C1759 C1750 1.390 . S
C1759 H1752 0.950 . S
C1759 C1756 1.387 . S
C1760 C1761 1.387 1_545 S
C1760 H1764 0.950 . S
C1760 C1769 1.390 . S
C1761 C1760 1.387 1_565 S
C1761 C1763 1.387 1_565 S
H1762 C1769 0.950 . S
C1763 C1761 1.387 1_545 S
C1763 C1765 1.390 . S
C1763 H1767 0.950 1_545 S
H1764 C1760 0.950 . S
C1765 C1763 1.390 . S
C1765 C1766 1.387 . S
C1765 H1768 0.950 . S
C1766 C1765 1.387 . S
C1766 C1769 1.387 . S
H1767 C1763 0.950 1_565 S
H1768 C1765 0.950 . S
C1769 C1760 1.390 . S
C1769 H1762 0.950 . S
C1769 C1766 1.387 . S
C1770 C1771 1.387 . S
C1770 H1774 0.950 . S
C1770 C1779 1.390 . S
C1771 C1770 1.387 . S
C1771 C1773 1.387 . S
H1772 C1779 0.950 . S
C1773 C1771 1.387 . S
C1773 C1775 1.390 . S
C1773 H1777 0.950 . S
H1774 C1770 0.950 . S
C1775 C1773 1.390 . S
C1775 C1776 1.387 . S
C1775 H1778 0.950 . S
C1776 C1775 1.387 . S
C1776 C1779 1.387 . S
H1777 C1773 0.950 . S
H1778 C1775 0.950 . S
C1779 C1770 1.390 . S
C1779 H1772 0.950 . S
C1779 C1776 1.387 . S
C1780 C1781 1.387 . S
C1780 H1784 0.950 . S
C1780 C1789 1.390 . S
C1781 C1780 1.387 . S
C1781 C1783 1.387 . S
H1782 C1789 0.950 . S
C1783 C1781 1.387 . S
C1783 C1785 1.390 . S
C1783 H1787 0.950 . S
H1784 C1780 0.950 . S
C1785 C1783 1.390 . S
C1785 C1786 1.387 . S
C1785 H1788 0.950 . S
C1786 C1785 1.387 . S
C1786 C1789 1.387 . S
H1787 C1783 0.950 . S
H1788 C1785 0.950 . S
C1789 C1780 1.390 . S
C1789 H1782 0.950 . S
C1789 C1786 1.387 . S
C1790 C1791 1.387 . S
C1790 H1794 0.950 . S
C1790 C1799 1.390 . S
C1791 C1790 1.387 . S
C1791 C1793 1.387 . S
H1792 C1799 0.950 . S
C1793 C1791 1.387 . S
C1793 C1795 1.390 . S
C1793 H1797 0.950 . S
H1794 C1790 0.950 . S
C1795 C1793 1.390 . S
C1795 C1796 1.387 . S
C1795 H1798 0.950 . S
C1796 C1795 1.387 . S
C1796 C1799 1.387 . S
H1797 C1793 0.950 . S
H1798 C1795 0.950 . S
C1799 C1790 1.390 . S
C1799 H1792 0.950 . S
C1799 C1796 1.387 . S
C1800 C1801 1.387 1_545 S
C1800 H1804 0.950 . S
C1800 C1809 1.390 . S
C1801 C1800 1.387 1_565 S
C1801 C1803 1.387 . S
H1802 C1809 0.950 . S
C1803 C1801 1.387 . S
C1803 C1805 1.390 . S
C1803 H1807 0.950 . S
H1804 C1800 0.950 . S
C1805 C1803 1.390 . S
C1805 C1806 1.387 . S
C1805 H1808 0.950 . S
C1806 C1805 1.387 . S
C1806 C1809 1.387 1_565 S
H1807 C1803 0.950 . S
H1808 C1805 0.950 . S
C1809 C1800 1.390 . S
C1809 H1802 0.950 . S
C1809 C1806 1.387 1_545 S
C1810 C1811 1.387 . S
C1810 H1814 0.950 . S
C1810 C1819 1.390 . S
C1811 C1810 1.387 . S
C1811 C1813 1.387 1_455 S
H1812 C1819 0.950 . S
C1813 C1811 1.387 1_655 S
C1813 C1815 1.381 1_655 S
C1813 H1817 0.950 . S
H1814 C1810 0.950 . S
C1815 C1813 1.381 1_455 S
C1815 C1816 1.386 . S
C1815 H1818 0.961 1_455 S
C1816 C1815 1.386 . S
C1816 C1819 1.387 . S
H1817 C1813 0.950 . S
H1818 C1815 0.961 1_655 S
C1819 C1810 1.390 . S
C1819 H1812 0.950 . S
C1819 C1816 1.387 . S
C1820 C1821 1.387 . S
C1820 H1824 0.950 . S
C1820 C1829 1.390 . S
C1821 C1820 1.387 . S
C1821 C1823 1.387 . S
H1822 C1829 0.950 . S
C1823 C1821 1.387 . S
C1823 C1825 1.390 . S
C1823 H1827 0.950 . S
H1824 C1820 0.950 . S
C1825 C1823 1.390 . S
C1825 C1826 1.387 . S
C1825 H1828 0.950 . S
C1826 C1825 1.387 . S
C1826 C1829 1.387 . S
H1827 C1823 0.950 . S
H1828 C1825 0.950 . S
C1829 C1820 1.390 . S
C1829 H1822 0.950 . S
C1829 C1826 1.387 . S
C1830 C1831 1.399 1_455 S
C1830 H1834 0.950 . S
C1830 C1839 1.401 . S
C1831 C1830 1.399 1_655 S
C1831 C1833 1.388 . S
H1832 C1839 0.940 . S
C1833 C1831 1.388 . S
C1833 C1835 1.390 . S
C1833 H1837 0.950 . S
H1834 C1830 0.950 . S
C1835 C1833 1.390 . S
C1835 C1836 1.387 . S
C1835 H1838 0.950 . S
C1836 C1835 1.387 . S
C1836 C1839 1.388 1_655 S
H1837 C1833 0.950 . S
H1838 C1835 0.950 . S
C1839 C1830 1.401 . S
C1839 H1832 0.940 . S
C1839 C1836 1.388 1_455 S
C1840 C1841 1.387 . S
C1840 H1844 0.950 . S
C1840 C1849 1.390 . S
C1841 C1840 1.387 . S
C1841 C1843 1.387 . S
H1842 C1849 0.950 . S
C1843 C1841 1.387 . S
C1843 C1845 1.390 . S
C1843 H1847 0.950 . S
H1844 C1840 0.950 . S
C1845 C1843 1.390 . S
C1845 C1846 1.387 . S
C1845 H1848 0.950 . S
C1846 C1845 1.387 . S
C1846 C1849 1.387 . S
H1847 C1843 0.950 . S
H1848 C1845 0.950 . S
C1849 C1840 1.390 . S
C1849 H1842 0.950 . S
C1849 C1846 1.387 . S
C1850 C1851 1.387 . S
C1850 H1854 0.950 . S
C1850 C1859 1.390 . S
C1851 C1850 1.387 . S
C1851 C1853 1.387 . S
H1852 C1859 0.950 . S
C1853 C1851 1.387 . S
C1853 C1855 1.390 . S
C1853 H1857 0.950 . S
H1854 C1850 0.950 . S
C1855 C1853 1.390 . S
C1855 C1856 1.387 . S
C1855 H1858 0.950 . S
C1856 C1855 1.387 . S
C1856 C1859 1.387 . S
H1857 C1853 0.950 . S
H1858 C1855 0.950 . S
C1859 C1850 1.390 . S
C1859 H1852 0.950 . S
C1859 C1856 1.387 . S
C1860 C1861 1.387 . S
C1860 H1864 0.950 . S
C1860 C1869 1.390 . S
C1861 C1860 1.387 . S
C1861 C1863 1.387 . S
H1862 C1869 0.950 . S
C1863 C1861 1.387 . S
C1863 C1865 1.390 . S
C1863 H1867 0.950 . S
H1864 C1860 0.950 . S
C1865 C1863 1.390 . S
C1865 C1866 1.387 . S
C1865 H1868 0.950 . S
C1866 C1865 1.387 . S
C1866 C1869 1.387 . S
H1867 C1863 0.950 . S
H1868 C1865 0.950 . S
C1869 C1860 1.390 . S
C1869 H1862 0.950 . S
C1869 C1866 1.387 . S
C1870 C1871 1.387 . S
C1870 H1874 0.950 . S
C1870 C1879 1.390 . S
C1871 C1870 1.387 . S
C1871 C1873 1.387 . S
H1872 C1879 0.950 . S
C1873 C1871 1.387 . S
C1873 C1875 1.390 . S
C1873 H1877 0.950 . S
H1874 C1870 0.950 . S
C1875 C1873 1.390 . S
C1875 C1876 1.387 . S
C1875 H1878 0.950 . S
C1876 C1875 1.387 . S
C1876 C1879 1.387 . S
H1877 C1873 0.950 . S
H1878 C1875 0.950 . S
C1879 C1870 1.390 . S
C1879 H1872 0.950 . S
C1879 C1876 1.387 . S
C1880 C1881 1.387 . S
C1880 H1884 0.950 . S
C1880 C1889 1.390 . S
C1881 C1880 1.387 . S
C1881 C1883 1.387 . S
H1882 C1889 0.950 . S
C1883 C1881 1.387 . S
C1883 C1885 1.390 . S
C1883 H1887 0.950 . S
H1884 C1880 0.950 . S
C1885 C1883 1.390 . S
C1885 C1886 1.387 . S
C1885 H1888 0.950 . S
C1886 C1885 1.387 . S
C1886 C1889 1.387 . S
H1887 C1883 0.950 . S
H1888 C1885 0.950 . S
C1889 C1880 1.390 . S
C1889 H1882 0.950 . S
C1889 C1886 1.387 . S
C1890 C1891 1.387 . S
C1890 H1894 0.950 . S
C1890 C1899 1.390 . S
C1891 C1890 1.387 . S
C1891 C1893 1.387 . S
H1892 C1899 0.950 . S
C1893 C1891 1.387 . S
C1893 C1895 1.390 . S
C1893 H1897 0.950 . S
H1894 C1890 0.950 . S
C1895 C1893 1.390 . S
C1895 C1896 1.387 . S
C1895 H1898 0.950 . S
C1896 C1895 1.387 . S
C1896 C1899 1.387 . S
H1897 C1893 0.950 . S
H1898 C1895 0.950 . S
C1899 C1890 1.390 . S
C1899 H1892 0.950 . S
C1899 C1896 1.387 . S
C1900 C1901 1.387 . S
C1900 H1904 0.950 . S
C1900 C1909 1.390 . S
C1901 C1900 1.387 . S
C1901 C1903 1.387 . S
H1902 C1909 0.950 . S
C1903 C1901 1.387 . S
C1903 C1905 1.390 . S
C1903 H1907 0.950 . S
H1904 C1900 0.950 . S
C1905 C1903 1.390 . S
C1905 C1906 1.387 . S
C1905 H1908 0.950 . S
C1906 C1905 1.387 . S
C1906 C1909 1.387 . S
H1907 C1903 0.950 . S
H1908 C1905 0.950 . S
C1909 C1900 1.390 . S
C1909 H1902 0.950 . S
C1909 C1906 1.387 . S
C1910 C1911 1.387 . S
C1910 H1914 0.950 . S
C1910 C1919 1.390 . S
C1911 C1910 1.387 . S
C1911 C1913 1.387 . S
H1912 C1919 0.950 . S
C1913 C1911 1.387 . S
C1913 C1915 1.390 . S
C1913 H1917 0.950 . S
H1914 C1910 0.950 . S
C1915 C1913 1.390 . S
C1915 C1916 1.387 . S
C1915 H1918 0.950 . S
C1916 C1915 1.387 . S
C1916 C1919 1.387 . S
H1917 C1913 0.950 . S
H1918 C1915 0.950 . S
C1919 C1910 1.390 . S
C1919 H1912 0.950 . S
C1919 C1916 1.387 . S
C1920 C1921 1.387 . S
C1920 H1924 0.950 . S
C1920 C1929 1.390 . S
C1921 C1920 1.387 . S
C1921 C1923 1.387 . S
H1922 C1929 0.950 . S
C1923 C1921 1.387 . S
C1923 C1925 1.390 . S
C1923 H1927 0.950 . S
H1924 C1920 0.950 . S
C1925 C1923 1.390 . S
C1925 C1926 1.387 . S
C1925 H1928 0.950 . S
C1926 C1925 1.387 . S
C1926 C1929 1.387 . S
H1927 C1923 0.950 . S
H1928 C1925 0.950 . S
C1929 C1920 1.390 . S
C1929 H1922 0.950 . S
C1929 C1926 1.387 . S
C1930 C1931 1.387 . S
C1930 H1934 0.950 . S
C1930 C1939 1.390 . S
C1931 C1930 1.387 . S
C1931 C1933 1.387 . S
H1932 C1939 0.950 . S
C1933 C1931 1.387 . S
C1933 C1935 1.390 . S
C1933 H1937 0.950 . S
H1934 C1930 0.950 . S
C1935 C1933 1.390 . S
C1935 C1936 1.387 . S
C1935 H1938 0.950 . S
C1936 C1935 1.387 . S
C1936 C1939 1.387 . S
H1937 C1933 0.950 . S
H1938 C1935 0.950 . S
C1939 C1930 1.390 . S
C1939 H1932 0.950 . S
C1939 C1936 1.387 . S
C1940 C1941 1.387 . S
C1940 H1944 0.950 . S
C1940 C1949 1.390 . S
C1941 C1940 1.387 . S
C1941 C1943 1.387 . S
H1942 C1949 0.950 . S
C1943 C1941 1.387 . S
C1943 C1945 1.390 . S
C1943 H1947 0.950 . S
H1944 C1940 0.950 . S
C1945 C1943 1.390 . S
C1945 C1946 1.387 . S
C1945 H1948 0.950 . S
C1946 C1945 1.387 . S
C1946 C1949 1.387 . S
H1947 C1943 0.950 . S
H1948 C1945 0.950 . S
C1949 C1940 1.390 . S
C1949 H1942 0.950 . S
C1949 C1946 1.387 . S
C1950 C1951 1.387 . S
C1950 H1954 0.950 . S
C1950 C1959 1.390 . S
C1951 C1950 1.387 . S
C1951 C1953 1.387 . S
H1952 C1959 0.950 . S
C1953 C1951 1.387 . S
C1953 C1955 1.390 . S
C1953 H1957 0.950 . S
H1954 C1950 0.950 . S
C1955 C1953 1.390 . S
C1955 C1956 1.387 . S
C1955 H1958 0.950 . S
C1956 C1955 1.387 . S
C1956 C1959 1.387 . S
H1957 C1953 0.950 . S
H1958 C1955 0.950 . S
C1959 C1950 1.390 . S
C1959 H1952 0.950 . S
C1959 C1956 1.387 . S
C1960 C1961 1.387 . S
C1960 H1964 0.950 . S
C1960 C1969 1.390 . S
C1961 C1960 1.387 . S
C1961 C1963 1.387 . S
H1962 C1969 0.950 . S
C1963 C1961 1.387 . S
C1963 C1965 1.390 . S
C1963 H1967 0.950 . S
H1964 C1960 0.950 . S
C1965 C1963 1.390 . S
C1965 C1966 1.387 . S
C1965 H1968 0.950 . S
C1966 C1965 1.387 . S
C1966 C1969 1.387 . S
H1967 C1963 0.950 . S
H1968 C1965 0.950 . S
C1969 C1960 1.390 . S
C1969 H1962 0.950 . S
C1969 C1966 1.387 . S
C1970 C1971 1.387 . S
C1970 H1974 0.950 . S
C1970 C1979 1.390 . S
C1971 C1970 1.387 . S
C1971 C1973 1.387 . S
H1972 C1979 0.950 . S
C1973 C1971 1.387 . S
C1973 C1975 1.390 . S
C1973 H1977 0.950 . S
H1974 C1970 0.950 . S
C1975 C1973 1.390 . S
C1975 C1976 1.387 . S
C1975 H1978 0.950 . S
C1976 C1975 1.387 . S
C1976 C1979 1.387 . S
H1977 C1973 0.950 . S
H1978 C1975 0.950 . S
C1979 C1970 1.390 . S
C1979 H1972 0.950 . S
C1979 C1976 1.387 . S
C1441 C781 1.752 . S
C1446 C1092 1.753 . S
C1451 C871 1.730 . S
C1456 C1132 1.782 . S
C1461 C751 1.748 . S
C1466 C1162 1.821 . S
C1471 C691 1.585 . S
C1476 C1122 1.638 . S
C1486 C1172 1.535 . S
C1481 C571 1.441 . S
C1491 C601 1.559 . S
C1496 C1082 1.585 . S
C1506 C1111 1.756 . S
C1501 C661 1.657 . S
C1516 C1151 1.784 . S
C1511 C541 1.703 . S
C1521 C631 1.855 . S
C1526 C1177 1.821 . S
C1531 C811 1.669 . S
C1536 C1137 1.638 . S
C1541 C841 1.485 . S
C1546 C1191 1.536 . S
C1556 C1097 1.587 . S
C1551 C721 1.452 . S
C1566 C1212 1.755 . S
C1561 C61 1.754 1_455 S
C1571 C151 1.730 . S
C1576 C1252 1.784 . S
C1581 C31 1.748 . S
C1586 C1282 1.821 . S
C1591 C1051 1.585 . S
C1596 C1242 1.639 . S
C1601 C931 1.441 . S
C1606 C1292 1.535 . S
C1611 C961 1.559 . S
C1616 C1202 1.587 . S
C1621 C1021 1.657 . S
C1626 C1231 1.756 . S
C1631 C901 1.702 . S
C1636 C1271 1.785 . S
C1646 C1297 1.820 . S
C1641 C991 1.853 . S
C1651 C91 1.672 . S
C1656 C1257 1.638 . S
C1666 C1311 1.536 . S
C1661 C121 1.485 1_455 S
C1671 C1 1.450 . S
C1676 C1217 1.587 . S
C1686 C1332 1.756 . S
C1681 C421 1.754 . S
C1691 C511 1.733 . S
C1696 C1372 1.784 . S
C1706 C1402 1.821 . S
C1701 C391 1.748 . S
C1716 C1362 1.638 . S
C1711 C331 1.585 . S
C1726 C1412 1.536 . S
C1721 C211 1.445 1_655 S
C1731 C241 1.559 . S
C1736 C1322 1.587 . S
C1741 C301 1.653 1_655 S
C1746 C1351 1.753 . S
C1751 C181 1.701 . S
C1756 C1391 1.784 . S
C1766 C1417 1.821 . S
C1761 C271 1.855 . S
C1771 C451 1.669 . S
C1776 C1377 1.639 . S
C1781 C481 1.485 . S
C1786 C1431 1.537 . S
C1791 C361 1.449 . S
C1796 C1337 1.587 . S
C1801 C920 1.372 . S
C1806 C1109 1.388 . S
C1816 C1149 1.815 . S
C1811 C980 1.847 1_455 S
C1821 C1040 1.514 . S
C1826 C1168 1.575 . S
C1831 C380 1.770 . S
C1836 C1128 1.814 . S
C1841 C440 1.556 . S
C1846 C1189 1.577 . S
C1856 C1088 1.389 . S
C1851 C500 1.390 . S
C1861 C200 1.372 . S
C1866 C1229 1.387 . S
C1871 C260 1.846 . S
C1876 C1269 1.815 . S
C1881 C320 1.514 . S
C1886 C1288 1.576 . S
C1891 C740 1.771 . S
C1896 C1248 1.812 . S
C1906 C1309 1.577 . S
C1901 C800 1.559 . S
C1911 C860 1.393 . S
C1916 C1208 1.388 . S
C1921 C560 1.373 . S
C1926 C1349 1.388 . S
C1931 C620 1.845 . S
C1936 C1389 1.812 . S
C1946 C1408 1.576 . S
C1941 C680 1.515 . S
C1951 C20 1.773 . S
C1956 C1368 1.815 . S
C1961 C80 1.558 . S
C1966 C1429 1.576 . S
C1971 C140 1.393 . S
C1976 C1328 1.388 . S
