# Generated by pormake.
# Topology llk, (3,12)-cn, num edge types: 1
# Building blocks:
#     Node 0, Type 0, BuildingBlock: BETDIP_clean_linker_0, # of connection points: 3
#     Node 1, Type 0, BuildingBlock: BETDIP_clean_linker_0, # of connection points: 3
#     Node 2, Type 0, BuildingBlock: BETDIP_clean_linker_0, # of connection points: 3
#     Node 3, Type 0, BuildingBlock: BETDIP_clean_linker_0, # of connection points: 3
#     Node 4, Type 0, BuildingBlock: BETDIP_clean_linker_0, # of connection points: 3
#     Node 5, Type 0, BuildingBlock: BETDIP_clean_linker_0, # of connection points: 3
#     Node 6, Type 0, BuildingBlock: BETDIP_clean_linker_0, # of connection points: 3
#     Node 7, Type 0, BuildingBlock: BETDIP_clean_linker_0, # of connection points: 3
#     Node 8, Type 0, BuildingBlock: BETDIP_clean_linker_0, # of connection points: 3
#     Node 9, Type 0, BuildingBlock: BETDIP_clean_linker_0, # of connection points: 3
#     Node 10, Type 0, BuildingBlock: BETDIP_clean_linker_0, # of connection points: 3
#     Node 11, Type 0, BuildingBlock: BETDIP_clean_linker_0, # of connection points: 3
#     Node 12, Type 0, BuildingBlock: BETDIP_clean_linker_0, # of connection points: 3
#     Node 13, Type 0, BuildingBlock: BETDIP_clean_linker_0, # of connection points: 3
#     Node 14, Type 0, BuildingBlock: BETDIP_clean_linker_0, # of connection points: 3
#     Node 15, Type 0, BuildingBlock: BETDIP_clean_linker_0, # of connection points: 3
#     Node 16, Type 0, BuildingBlock: BETDIP_clean_linker_0, # of connection points: 3
#     Node 17, Type 0, BuildingBlock: BETDIP_clean_linker_0, # of connection points: 3
#     Node 18, Type 0, BuildingBlock: BETDIP_clean_linker_0, # of connection points: 3
#     Node 19, Type 0, BuildingBlock: BETDIP_clean_linker_0, # of connection points: 3
#     Node 20, Type 0, BuildingBlock: BETDIP_clean_linker_0, # of connection points: 3
#     Node 21, Type 0, BuildingBlock: BETDIP_clean_linker_0, # of connection points: 3
#     Node 22, Type 0, BuildingBlock: BETDIP_clean_linker_0, # of connection points: 3
#     Node 23, Type 0, BuildingBlock: BETDIP_clean_linker_0, # of connection points: 3
#     Node 24, Type 1, BuildingBlock: EZIPEK_clean_sbu_0, # of connection points: 12
#     Node 25, Type 1, BuildingBlock: EZIPEK_clean_sbu_0, # of connection points: 12
#     Node 26, Type 1, BuildingBlock: EZIPEK_clean_sbu_0, # of connection points: 12
#     Node 27, Type 1, BuildingBlock: EZIPEK_clean_sbu_0, # of connection points: 12
#     Node 28, Type 1, BuildingBlock: EZIPEK_clean_sbu_0, # of connection points: 12
#     Node 29, Type 1, BuildingBlock: EZIPEK_clean_sbu_0, # of connection points: 12
#     Edge 30, Type (0, 1), BuildingBlock: KIFKEQ_clean_linker_1, # of connection points: 2
#     Edge 31, Type (0, 1), BuildingBlock: KIFKEQ_clean_linker_1, # of connection points: 2
#     Edge 32, Type (0, 1), BuildingBlock: KIFKEQ_clean_linker_1, # of connection points: 2
#     Edge 33, Type (0, 1), BuildingBlock: KIFKEQ_clean_linker_1, # of connection points: 2
#     Edge 34, Type (0, 1), BuildingBlock: KIFKEQ_clean_linker_1, # of connection points: 2
#     Edge 35, Type (0, 1), BuildingBlock: KIFKEQ_clean_linker_1, # of connection points: 2
#     Edge 36, Type (0, 1), BuildingBlock: KIFKEQ_clean_linker_1, # of connection points: 2
#     Edge 37, Type (0, 1), BuildingBlock: KIFKEQ_clean_linker_1, # of connection points: 2
#     Edge 38, Type (0, 1), BuildingBlock: KIFKEQ_clean_linker_1, # of connection points: 2
#     Edge 39, Type (0, 1), BuildingBlock: KIFKEQ_clean_linker_1, # of connection points: 2
#     Edge 40, Type (0, 1), BuildingBlock: KIFKEQ_clean_linker_1, # of connection points: 2
#     Edge 41, Type (0, 1), BuildingBlock: KIFKEQ_clean_linker_1, # of connection points: 2
#     Edge 42, Type (0, 1), BuildingBlock: KIFKEQ_clean_linker_1, # of connection points: 2
#     Edge 43, Type (0, 1), BuildingBlock: KIFKEQ_clean_linker_1, # of connection points: 2
#     Edge 44, Type (0, 1), BuildingBlock: KIFKEQ_clean_linker_1, # of connection points: 2
#     Edge 45, Type (0, 1), BuildingBlock: KIFKEQ_clean_linker_1, # of connection points: 2
#     Edge 46, Type (0, 1), BuildingBlock: KIFKEQ_clean_linker_1, # of connection points: 2
#     Edge 47, Type (0, 1), BuildingBlock: KIFKEQ_clean_linker_1, # of connection points: 2
#     Edge 48, Type (0, 1), BuildingBlock: KIFKEQ_clean_linker_1, # of connection points: 2
#     Edge 49, Type (0, 1), BuildingBlock: KIFKEQ_clean_linker_1, # of connection points: 2
#     Edge 50, Type (0, 1), BuildingBlock: KIFKEQ_clean_linker_1, # of connection points: 2
#     Edge 51, Type (0, 1), BuildingBlock: KIFKEQ_clean_linker_1, # of connection points: 2
#     Edge 52, Type (0, 1), BuildingBlock: KIFKEQ_clean_linker_1, # of connection points: 2
#     Edge 53, Type (0, 1), BuildingBlock: KIFKEQ_clean_linker_1, # of connection points: 2
#     Edge 54, Type (0, 1), BuildingBlock: KIFKEQ_clean_linker_1, # of connection points: 2
#     Edge 55, Type (0, 1), BuildingBlock: KIFKEQ_clean_linker_1, # of connection points: 2
#     Edge 56, Type (0, 1), BuildingBlock: KIFKEQ_clean_linker_1, # of connection points: 2
#     Edge 57, Type (0, 1), BuildingBlock: KIFKEQ_clean_linker_1, # of connection points: 2
#     Edge 58, Type (0, 1), BuildingBlock: KIFKEQ_clean_linker_1, # of connection points: 2
#     Edge 59, Type (0, 1), BuildingBlock: KIFKEQ_clean_linker_1, # of connection points: 2
#     Edge 60, Type (0, 1), BuildingBlock: KIFKEQ_clean_linker_1, # of connection points: 2
#     Edge 61, Type (0, 1), BuildingBlock: KIFKEQ_clean_linker_1, # of connection points: 2
#     Edge 62, Type (0, 1), BuildingBlock: KIFKEQ_clean_linker_1, # of connection points: 2
#     Edge 63, Type (0, 1), BuildingBlock: KIFKEQ_clean_linker_1, # of connection points: 2
#     Edge 64, Type (0, 1), BuildingBlock: KIFKEQ_clean_linker_1, # of connection points: 2
#     Edge 65, Type (0, 1), BuildingBlock: KIFKEQ_clean_linker_1, # of connection points: 2
#     Edge 66, Type (0, 1), BuildingBlock: KIFKEQ_clean_linker_1, # of connection points: 2
#     Edge 67, Type (0, 1), BuildingBlock: KIFKEQ_clean_linker_1, # of connection points: 2
#     Edge 68, Type (0, 1), BuildingBlock: KIFKEQ_clean_linker_1, # of connection points: 2
#     Edge 69, Type (0, 1), BuildingBlock: KIFKEQ_clean_linker_1, # of connection points: 2
#     Edge 70, Type (0, 1), BuildingBlock: KIFKEQ_clean_linker_1, # of connection points: 2
#     Edge 71, Type (0, 1), BuildingBlock: KIFKEQ_clean_linker_1, # of connection points: 2
#     Edge 72, Type (0, 1), BuildingBlock: KIFKEQ_clean_linker_1, # of connection points: 2
#     Edge 73, Type (0, 1), BuildingBlock: KIFKEQ_clean_linker_1, # of connection points: 2
#     Edge 74, Type (0, 1), BuildingBlock: KIFKEQ_clean_linker_1, # of connection points: 2
#     Edge 75, Type (0, 1), BuildingBlock: KIFKEQ_clean_linker_1, # of connection points: 2
#     Edge 76, Type (0, 1), BuildingBlock: KIFKEQ_clean_linker_1, # of connection points: 2
#     Edge 77, Type (0, 1), BuildingBlock: KIFKEQ_clean_linker_1, # of connection points: 2
#     Edge 78, Type (0, 1), BuildingBlock: KIFKEQ_clean_linker_1, # of connection points: 2
#     Edge 79, Type (0, 1), BuildingBlock: KIFKEQ_clean_linker_1, # of connection points: 2
#     Edge 80, Type (0, 1), BuildingBlock: KIFKEQ_clean_linker_1, # of connection points: 2
#     Edge 81, Type (0, 1), BuildingBlock: KIFKEQ_clean_linker_1, # of connection points: 2
#     Edge 82, Type (0, 1), BuildingBlock: KIFKEQ_clean_linker_1, # of connection points: 2
#     Edge 83, Type (0, 1), BuildingBlock: KIFKEQ_clean_linker_1, # of connection points: 2
#     Edge 84, Type (0, 1), BuildingBlock: KIFKEQ_clean_linker_1, # of connection points: 2
#     Edge 85, Type (0, 1), BuildingBlock: KIFKEQ_clean_linker_1, # of connection points: 2
#     Edge 86, Type (0, 1), BuildingBlock: KIFKEQ_clean_linker_1, # of connection points: 2
#     Edge 87, Type (0, 1), BuildingBlock: KIFKEQ_clean_linker_1, # of connection points: 2
#     Edge 88, Type (0, 1), BuildingBlock: KIFKEQ_clean_linker_1, # of connection points: 2
#     Edge 89, Type (0, 1), BuildingBlock: KIFKEQ_clean_linker_1, # of connection points: 2
#     Edge 90, Type (0, 1), BuildingBlock: KIFKEQ_clean_linker_1, # of connection points: 2
#     Edge 91, Type (0, 1), BuildingBlock: KIFKEQ_clean_linker_1, # of connection points: 2
#     Edge 92, Type (0, 1), BuildingBlock: KIFKEQ_clean_linker_1, # of connection points: 2
#     Edge 93, Type (0, 1), BuildingBlock: KIFKEQ_clean_linker_1, # of connection points: 2
#     Edge 94, Type (0, 1), BuildingBlock: KIFKEQ_clean_linker_1, # of connection points: 2
#     Edge 95, Type (0, 1), BuildingBlock: KIFKEQ_clean_linker_1, # of connection points: 2
#     Edge 96, Type (0, 1), BuildingBlock: KIFKEQ_clean_linker_1, # of connection points: 2
#     Edge 97, Type (0, 1), BuildingBlock: KIFKEQ_clean_linker_1, # of connection points: 2
#     Edge 98, Type (0, 1), BuildingBlock: KIFKEQ_clean_linker_1, # of connection points: 2
#     Edge 99, Type (0, 1), BuildingBlock: KIFKEQ_clean_linker_1, # of connection points: 2
#     Edge 100, Type (0, 1), BuildingBlock: KIFKEQ_clean_linker_1, # of connection points: 2
#     Edge 101, Type (0, 1), BuildingBlock: KIFKEQ_clean_linker_1, # of connection points: 2
# Relax obj value: 0.074
# Max RMSD: 0.173
# Mean RMSD: 0.134
data_MOF--net-llk--node1-EZIPEK_clean_sbu_0--node2-BETDIP_clean_linker_0--edge1-KIFKEQ_clean_linker_1
_symmetry_space_group_name_H-M    P1
_symmetry_Int_Tables_number       1
_symmetry_cell_setting            triclinic
loop_
_symmetry_equiv_pos_as_xyz
'x, y, z'
_cell_length_a     47.502623
_cell_length_b     47.826763
_cell_length_c     48.048215
_cell_angle_alpha  90.047971
_cell_angle_beta   89.976735
_cell_angle_gamma 90.024175
loop_
_atom_site_label
_atom_site_type_symbol
_atom_site_fract_x
_atom_site_fract_y
_atom_site_fract_z
_atom_type_partial_charge
H0 H 0.01673 0.25238 0.2246 0.0
H1 H 0.01486 0.26544 0.31336 0.0
H2 H 0.01206 0.33583 0.2582 0.0
H3 H 0.0576 0.22936 0.29815 0.0
C4 C 0.03874 0.21682 0.29511 0.0
C5 C 0.01527 0.26636 0.24229 0.0
C6 C 0.01456 0.29565 0.23813 0.0
C7 C 0.01584 0.25542 0.26966 0.0
C8 C 0.0144 0.27379 0.2924 0.0
C9 C 0.01308 0.3027 0.28842 0.0
C10 C 0.01312 0.31339 0.26133 0.0
N11 N 0.01892 0.22622 0.27485 0.0
H12 H 0.80159 0.00718 0.2623 0.0
H13 H 0.71158 1.00126 0.27187 0.0
H14 H 0.7639 0.01309 0.34364 0.0
H15 H 0.73536 0.95856 0.23299 0.0
C16 C 0.73468 0.97916 0.22346 0.0
C17 C 0.78313 0.00719 0.27554 0.0
C18 C 0.78601 0.01082 0.3046 0.0
C19 C 0.75613 1.00336 0.26374 0.0
C20 C 0.73232 1.00346 0.28101 0.0
C21 C 0.735 0.00758 0.3097 0.0
C22 C 0.7618 0.01094 0.32126 0.0
N23 N 0.75241 1.00048 0.23451 0.0
H24 H 0.00975 0.79765 0.26262 0.0
H25 H 0.01145 0.7083 0.27425 0.0
H26 H 0.99856 0.76222 0.34435 0.0
H27 H 0.05496 0.72396 0.24058 0.0
C28 C 0.03663 0.72726 0.22742 0.0
C29 C 0.0082 0.77961 0.27615 0.0
C30 C 0.00317 0.78325 0.30499 0.0
C31 C 0.01157 0.75239 0.26503 0.0
C32 C 0.00957 0.7292 0.28279 0.0
C33 C 0.00456 0.73262 0.31125 0.0
C34 C 1.00148 0.75957 0.32211 0.0
N35 N 0.01671 0.74784 0.23612 0.0
H36 H 0.21554 1.00158 0.26331 0.0
H37 H 0.30586 0.00585 0.27017 0.0
H38 H 0.25561 0.99379 0.34336 0.0
H39 H 0.28052 0.04997 0.23266 0.0
C40 C 0.28126 0.02942 0.22301 0.0
C41 C 0.23438 1.001 0.27599 0.0
C42 C 0.2323 0.997 0.30506 0.0
C43 C 0.26105 1.00453 0.26343 0.0
C44 C 0.28538 1.00378 0.27992 0.0
C45 C 0.28353 0.99927 0.3086 0.0
C46 C 0.25703 0.99616 0.32095 0.0
N47 N 0.26388 0.00791 0.23417 0.0
H48 H 0.01801 0.75884 0.80778 0.0
H49 H 0.01095 0.74811 0.71903 0.0
H50 H 0.00806 0.67649 0.77263 0.0
H51 H 0.05766 0.78174 0.73424 0.0
C52 C 0.03918 0.79478 0.73747 0.0
C53 C 0.01499 0.74537 0.7899 0.0
C54 C 0.01286 0.71608 0.79347 0.0
C55 C 0.01498 0.75689 0.76278 0.0
C56 C 0.01153 0.7392 0.73976 0.0
C57 C 0.00869 0.71031 0.74316 0.0
C58 C 0.00942 0.69897 0.76999 0.0
N59 N 0.0194 0.78599 0.75805 0.0
H60 H 0.21574 0.00523 0.76909 0.0
H61 H 0.30592 1.00404 0.7593 0.0
H62 H 0.25315 0.01841 0.68844 0.0
H63 H 0.28885 0.95966 0.79163 0.0
C64 C 0.2855 0.97771 0.80501 0.0
C65 C 0.23419 0.00724 0.75599 0.0
C66 C 0.23116 0.01289 0.72725 0.0
C67 C 0.26132 1.00371 0.76757 0.0
C68 C 0.28508 0.00617 0.75038 0.0
C69 C 0.28226 0.01182 0.72198 0.0
C70 C 0.25535 0.0151 0.71066 0.0
N71 N 0.26514 0.99781 0.79638 0.0
H72 H 0.01132 0.21391 0.76765 0.0
H73 H 0.011 0.30334 0.75639 0.0
H74 H 0.99771 0.24955 0.68637 0.0
H75 H 0.05239 0.29291 0.78766 0.0
C76 C 0.03658 0.28602 0.80254 0.0
C77 C 0.0091 0.23199 0.75427 0.0
C78 C 0.00329 0.22842 0.72557 0.0
C79 C 0.01238 0.25919 0.76545 0.0
C80 C 0.00938 0.28242 0.74786 0.0
C81 C 0.00403 0.27909 0.71946 0.0
C82 C 1.00098 0.25215 0.70857 0.0
N83 N 0.01861 0.26358 0.79421 0.0
H84 H 0.76169 0.0099 0.808 0.0
H85 H 0.75219 1.00351 0.71909 0.0
H86 H 0.67941 0.01529 0.77066 0.0
H87 H 0.79143 0.96068 0.74339 0.0
C88 C 0.80095 0.98132 0.74219 0.0
C89 C 0.74831 0.00975 0.78976 0.0
C90 C 0.71889 0.0133 0.79261 0.0
C91 C 0.76028 0.00582 0.7631 0.0
C92 C 0.74286 0.00575 0.73956 0.0
C93 C 0.71382 0.00973 0.74213 0.0
C94 C 0.70206 0.01321 0.76862 0.0
N95 N 0.78985 1.00291 0.75943 0.0
H96 H 0.21654 0.25394 0.02307 0.0
H97 H 0.30541 0.26032 1.00632 0.0
H98 H 0.256 0.33476 0.01612 0.0
H99 H 0.2756 0.21781 0.97116 0.0
C100 C 0.2788 0.2105 0.99235 0.0
C101 C 0.23509 0.26665 0.0196 0.0
C102 C 0.23308 0.29609 0.02009 0.0
C103 C 0.26126 0.25373 0.01437 0.0
C104 C 0.28524 0.27027 0.00999 0.0
C105 C 0.28344 0.29943 0.01067 0.0
C106 C 0.25738 0.31212 0.0156 0.0
N107 N 0.26397 0.22417 0.01419 0.0
H108 H 0.21523 0.75814 0.01774 0.0
H109 H 0.30547 0.75245 0.02402 0.0
H110 H 0.25518 0.67798 0.02793 0.0
H111 H 0.27353 0.79695 0.0618 0.0
C112 C 0.27749 0.80303 0.04035 0.0
C113 C 0.23407 0.74558 0.01994 0.0
C114 C 0.23196 0.71638 0.02356 0.0
C115 C 0.26071 0.7586 0.02069 0.0
C116 C 0.28504 0.74234 0.02372 0.0
C117 C 0.28317 0.71329 0.02626 0.0
C118 C 0.25665 0.70056 0.02632 0.0
N119 N 0.26347 0.78807 0.01885 0.0
H120 H 0.76128 0.21299 0.01197 0.0
H121 H 0.75585 0.30275 0.01641 0.0
H122 H 0.68045 0.25327 0.01841 0.0
H123 H 0.79443 0.27498 0.96877 0.0
C124 C 0.80328 0.2771 0.98953 0.0
C125 C 0.74871 0.23178 0.01395 0.0
C126 C 0.71908 0.22998 0.01488 0.0
C127 C 0.76188 0.25822 0.01389 0.0
C128 C 0.74556 0.28252 0.016 0.0
C129 C 0.71626 0.28082 0.01828 0.0
C130 C 0.70324 0.25458 0.01747 0.0
N131 N 0.79152 0.26082 0.01138 0.0
H132 H 0.76223 0.7993 0.02061 0.0
H133 H 0.75568 0.70969 0.01478 0.0
H134 H 0.68091 0.76006 0.01357 0.0
H135 H 0.7942 0.7362 0.06298 0.0
C136 C 0.80326 0.73431 0.04228 0.0
C137 C 0.74943 0.78069 0.01833 0.0
C138 C 0.71982 0.78284 0.01739 0.0
C139 C 0.76228 0.75409 0.01799 0.0
C140 C 0.74564 0.73003 0.01549 0.0
C141 C 0.71637 0.73211 0.01325 0.0
C142 C 0.70368 0.75848 0.01444 0.0
N143 N 0.79187 0.75103 0.02057 0.0
H144 H 0.50993 0.75434 0.7242 0.0
H145 H 0.51601 0.76265 0.81327 0.0
H146 H 0.51789 0.83583 0.76171 0.0
H147 H 0.55475 0.71864 0.78541 0.0
C148 C 0.53314 0.71171 0.78827 0.0
C149 C 0.51176 0.76745 0.7425 0.0
C150 C 0.5146 0.79676 0.73965 0.0
C151 C 0.51283 0.75511 0.76925 0.0
C152 C 0.51542 0.77217 0.79281 0.0
C153 C 0.51712 0.80122 0.79022 0.0
C154 C 0.51685 0.81326 0.7637 0.0
N155 N 0.51161 0.72564 0.77298 0.0
H156 H 0.30079 0.49443 0.76347 0.0
H157 H 0.21086 0.50301 0.77141 0.0
H158 H 0.2632 0.50751 0.84403 0.0
H159 H 0.22713 0.4552 0.73952 0.0
C160 C 0.2309 0.47322 0.72623 0.0
C161 C 0.28238 0.49813 0.77626 0.0
C162 C 0.28519 0.50108 0.80539 0.0
C163 C 0.25532 0.49819 0.76405 0.0
C164 C 0.23157 0.5025 0.78087 0.0
C165 C 0.23429 0.50632 0.8096 0.0
C166 C 0.26108 0.50548 0.82163 0.0
N167 N 0.25146 0.49302 0.73512 0.0
H168 H 0.51319 0.29754 0.76313 0.0
H169 H 0.50991 0.20812 0.77339 0.0
H170 H 0.51105 0.26148 0.84525 0.0
H171 H 0.55485 0.2307 0.73273 0.0
C172 C 0.53385 0.23026 0.72374 0.0
C173 C 0.51212 0.27941 0.77658 0.0
C174 C 0.51249 0.28278 0.80583 0.0
C175 C 0.5119 0.25223 0.76489 0.0
C176 C 0.51076 0.22888 0.78244 0.0
C177 C 0.5098 0.23212 0.81135 0.0
C178 C 0.51097 0.259 0.8228 0.0
N179 N 0.51282 0.24786 0.73561 0.0
H180 H 0.71588 0.50747 0.7629 0.0
H181 H 0.80619 0.50845 0.77101 0.0
H182 H 0.75471 0.49324 0.84268 0.0
H183 H 0.78809 0.55358 0.73927 0.0
C184 C 0.7849 0.53537 0.72606 0.0
C185 C 0.73455 0.50527 0.77565 0.0
C186 C 0.73201 0.49928 0.80435 0.0
C187 C 0.76144 0.50893 0.76363 0.0
C188 C 0.78552 0.50622 0.78031 0.0
C189 C 0.78322 0.50019 0.80868 0.0
C190 C 0.75651 0.4968 0.82046 0.0
N191 N 0.76468 0.5152 0.73485 0.0
H192 H 0.52149 0.2579 0.30709 0.0
H193 H 0.50918 0.24851 0.21872 0.0
H194 H 0.50683 0.17641 0.27159 0.0
H195 H 0.55446 0.27857 0.22722 0.0
C196 C 0.53909 0.29371 0.23462 0.0
C197 C 0.51698 0.24481 0.28923 0.0
C198 C 0.51379 0.21558 0.29259 0.0
C199 C 0.5161 0.25668 0.26228 0.0
C200 C 0.51058 0.23939 0.23931 0.0
C201 C 0.50714 0.21056 0.24249 0.0
C202 C 0.50871 0.19888 0.26912 0.0
N203 N 0.52195 0.28558 0.25766 0.0
H204 H 0.71659 0.51514 0.26781 0.0
H205 H 0.80507 0.49644 0.26118 0.0
H206 H 0.75529 0.50555 0.18727 0.0
H207 H 0.7758 0.46299 0.30438 0.0
C208 C 0.7789 0.48438 0.31142 0.0
C209 C 0.73496 0.51094 0.25512 0.0
C210 C 0.73274 0.51079 0.22581 0.0
C211 C 0.76115 0.50548 0.26792 0.0
C212 C 0.78488 0.50021 0.25137 0.0
C213 C 0.78286 0.50028 0.22234 0.0
C214 C 0.75681 0.50542 0.2098 0.0
N215 N 0.7642 0.50611 0.29735 0.0
H216 H 0.51105 0.71379 0.26831 0.0
H217 H 0.51259 0.80331 0.25809 0.0
H218 H 0.49938 0.75048 0.18722 0.0
H219 H 0.55639 0.78699 0.29126 0.0
C220 C 0.53814 0.78349 0.30448 0.0
C221 C 0.50941 0.73203 0.25507 0.0
C222 C 0.50424 0.72883 0.22621 0.0
C223 C 0.51281 0.75908 0.26659 0.0
C224 C 0.51068 0.78255 0.24922 0.0
C225 C 0.50548 0.77958 0.22074 0.0
C226 C 0.50241 0.75278 0.20948 0.0
N227 N 0.51808 0.76315 0.29554 0.0
H228 H 0.26053 0.50586 0.30763 0.0
H229 H 0.25397 0.49883 0.21849 0.0
H230 H 0.17931 0.49667 0.26874 0.0
H231 H 0.29851 0.46093 0.24852 0.0
C232 C 0.30493 0.48245 0.24492 0.0
C233 C 0.2477 0.5037 0.28912 0.0
C234 C 0.21818 0.50057 0.29149 0.0
C235 C 0.26063 0.5025 0.26262 0.0
C236 C 0.24397 0.49951 0.23877 0.0
C237 C 0.2147 0.4975 0.24086 0.0
C238 C 0.20206 0.49791 0.26717 0.0
N239 N 0.29034 0.504 0.25945 0.0
H240 H 0.7153 0.75294 0.50609 0.0
H241 H 0.80543 0.759 0.51381 0.0
H242 H 0.75466 0.83302 0.51906 0.0
H243 H 0.78686 0.72713 0.46565 0.0
C244 C 0.78372 0.71426 0.48405 0.0
C245 C 0.734 0.7654 0.50971 0.0
C246 C 0.73185 0.79465 0.5127 0.0
C247 C 0.76074 0.75261 0.50949 0.0
C248 C 0.78493 0.76895 0.51359 0.0
C249 C 0.78286 0.79785 0.51755 0.0
C250 C 0.75631 0.81049 0.51697 0.0
N251 N 0.76377 0.72356 0.50412 0.0
H252 H 0.71607 0.25836 0.52721 0.0
H253 H 0.80601 0.25136 0.51818 0.0
H254 H 0.75432 0.17792 0.51341 0.0
H255 H 0.78887 0.28306 0.56654 0.0
C256 C 0.78542 0.2962 0.54839 0.0
C257 C 0.73457 0.24573 0.52328 0.0
C258 C 0.73205 0.2165 0.52018 0.0
C259 C 0.76147 0.25824 0.52316 0.0
C260 C 0.7854 0.24165 0.51865 0.0
C261 C 0.78293 0.21279 0.51466 0.0
C262 C 0.75625 0.20043 0.51553 0.0
N263 N 0.76498 0.28725 0.52863 0.0
H264 H 0.26115 0.71343 0.50433 0.0
H265 H 0.2557 0.80295 0.51254 0.0
H266 H 0.181 0.75287 0.51894 0.0
H267 H 0.28714 0.78411 0.46345 0.0
C268 C 0.30006 0.78137 0.48193 0.0
C269 C 0.24878 0.73205 0.50825 0.0
C270 C 0.21937 0.73003 0.51176 0.0
C271 C 0.2618 0.75855 0.50791 0.0
C272 C 0.24557 0.78263 0.51241 0.0
C273 C 0.21655 0.7807 0.51687 0.0
C274 C 0.20365 0.75439 0.51644 0.0
N275 N 0.29096 0.76148 0.50204 0.0
H276 H 0.26206 0.29939 0.52533 0.0
H277 H 0.25209 0.20982 0.52428 0.0
H278 H 0.17936 0.26266 0.52122 0.0
H279 H 0.28718 0.22261 0.56349 0.0
C280 C 0.3006 0.22909 0.54632 0.0
C281 C 0.24865 0.2811 0.5241 0.0
C282 C 0.21913 0.28417 0.52334 0.0
C283 C 0.26062 0.25413 0.52506 0.0
C284 C 0.243 0.23056 0.52375 0.0
C285 C 0.21377 0.23348 0.52255 0.0
C286 C 0.20205 0.26029 0.52228 0.0
N287 N 0.29016 0.25039 0.52839 0.0
C288 C 0.00979 0.93709 0.58346 0.0
C289 C 0.00858 0.93804 0.44723 0.0
C290 C 0.00741 0.07254 0.58451 0.0
C291 C 0.00937 0.07353 0.44829 0.0
C292 C 0.94014 0.07284 0.51453 0.0
C293 C 0.94079 0.93723 0.51686 0.0
C294 C 0.07632 0.07361 0.5165 0.0
C295 C 0.07721 0.93809 0.51707 0.0
C296 C 0.07695 0.00499 0.44792 0.0
C297 C 0.94072 0.00555 0.44766 0.0
C298 C 0.07651 0.00611 0.58423 0.0
C299 C 0.94036 1.00329 0.58392 0.0
Eu300 Eu 0.00888 0.95226 0.51549 0.0
O301 O 0.98364 0.98049 0.491 0.0
O302 O 0.03375 0.98053 0.54033 0.0
Eu303 Eu 0.95507 0.00513 0.51588 0.0
Eu304 Eu 0.0622 0.00572 0.51602 0.0
O305 O 0.98368 0.98025 0.54025 0.0
O306 O 0.034 0.98071 0.49108 0.0
Eu307 Eu 0.00851 0.00494 0.56843 0.0
Eu308 Eu 0.0088 0.00562 0.46335 0.0
O309 O 0.98321 0.03007 0.54089 0.0
O310 O 0.98354 0.03015 0.49142 0.0
O311 O 0.03362 0.03054 0.49148 0.0
O312 O 0.03345 0.03021 0.54075 0.0
Eu313 Eu 0.00825 0.05839 0.51628 0.0
O314 O 0.00994 0.92855 0.55688 0.0
O315 O 0.00818 0.92915 0.47369 0.0
O316 O 0.00705 0.08143 0.55806 0.0
O317 O 0.00957 0.08206 0.47488 0.0
O318 O 0.93163 0.04624 0.51517 0.0
O319 O 0.93208 0.96376 0.51634 0.0
O320 O 0.08536 0.04718 0.51571 0.0
O321 O 0.08579 0.96467 0.51736 0.0
O322 O 0.0501 0.00575 0.43981 0.0
O323 O 0.96762 0.00544 0.43966 0.0
O324 O 0.04962 0.00503 0.5922 0.0
O325 O 0.96727 1.00292 0.59184 0.0
O326 O 0.04946 0.08171 0.51713 0.0
O327 O 0.96683 0.08151 0.51483 0.0
O328 O 0.0505 0.92947 0.51589 0.0
O329 O 0.96756 0.92876 0.51661 0.0
O330 O 0.00915 0.96479 0.43935 0.0
O331 O 0.00874 0.04687 0.44001 0.0
O332 O 0.00913 0.96373 0.59174 0.0
O333 O 0.00812 0.0458 0.59243 0.0
O334 O 0.93133 1.00485 0.55753 0.0
O335 O 0.93177 0.00549 0.47413 0.0
O336 O 0.08545 0.00684 0.55777 0.0
O337 O 0.08572 1.00466 0.47444 0.0
C338 C 0.50701 0.9371 0.08241 0.0
C339 C 0.50653 0.07249 0.08491 0.0
C340 C 0.51014 0.9393 0.94762 0.0
C341 C 0.50821 0.0748 0.94997 0.0
C342 C 0.57747 0.00817 0.94907 0.0
C343 C 0.57678 1.00303 0.08374 0.0
C344 C 0.43991 0.00529 0.94827 0.0
C345 C 0.43911 0.00722 0.08297 0.0
C346 C 0.43955 0.07359 0.01455 0.0
C347 C 0.57699 0.07356 0.01789 0.0
C348 C 0.43919 0.93868 0.01676 0.0
C349 C 0.57681 0.93824 0.01534 0.0
Eu350 Eu 0.50802 0.00504 0.06911 0.0
O351 O 0.53321 0.03057 0.04168 0.0
O352 O 0.48322 0.98075 0.04034 0.0
Eu353 Eu 0.56129 0.00589 0.01638 0.0
Eu354 Eu 0.4554 0.00612 0.01573 0.0
O355 O 0.53285 0.9806 0.04052 0.0
O356 O 0.48332 0.03043 0.04127 0.0
Eu357 Eu 0.50799 0.95278 0.0152 0.0
Eu358 Eu 0.50823 0.05913 0.01723 0.0
O359 O 0.53316 0.98142 0.99106 0.0
O360 O 0.53318 0.03124 0.99203 0.0
O361 O 0.48367 0.03138 0.9916 0.0
O362 O 0.48336 0.98136 0.99056 0.0
Eu363 Eu 0.50858 0.00684 0.96324 0.0
O364 O 0.50733 0.96348 0.09148 0.0
O365 O 0.50719 0.04577 0.09285 0.0
O366 O 0.51028 0.96603 0.93964 0.0
O367 O 0.50793 0.04841 0.94089 0.0
O368 O 0.58555 0.007 0.97566 0.0
O369 O 0.5849 1.00322 0.05716 0.0
O370 O 0.43161 0.00535 0.97482 0.0
O371 O 0.43133 0.00834 0.05631 0.0
O372 O 0.46618 0.08263 0.01651 0.0
O373 O 0.5502 0.08227 0.01766 0.0
O374 O 0.46579 0.9295 0.01508 0.0
O375 O 0.55 0.92953 0.01575 0.0
O376 O 0.46676 0.00573 0.9397 0.0
O377 O 0.5507 0.0085 0.94031 0.0
O378 O 0.46569 0.00509 0.09208 0.0
O379 O 0.55005 1.00428 0.09261 0.0
O380 O 0.50688 0.08162 0.05866 0.0
O381 O 0.50857 0.08284 0.97658 0.0
O382 O 0.50725 0.92904 0.05581 0.0
O383 O 0.509 0.93021 0.97385 0.0
O384 O 0.58507 0.9649 0.01506 0.0
O385 O 0.58523 0.04688 0.01781 0.0
O386 O 0.43144 0.96546 0.01746 0.0
O387 O 0.43163 0.04687 0.01378 0.0
C388 C 0.00814 0.43647 0.08239 0.0
C389 C 0.00996 0.43819 0.94752 0.0
C390 C 0.00873 0.57335 0.08416 0.0
C391 C 0.00808 0.57491 0.9492 0.0
C392 C 0.9399 0.57379 0.01854 0.0
C393 C 0.94031 0.43727 0.01287 0.0
C394 C 0.07599 0.57416 0.01668 0.0
C395 C 0.07642 0.43757 0.01655 0.0
C396 C 0.07673 0.50789 0.94882 0.0
C397 C 0.94047 0.50498 0.94805 0.0
C398 C 0.07605 0.50399 0.08353 0.0
C399 C 0.93984 0.50295 0.08308 0.0
Eu400 Eu 0.00831 0.45294 0.01512 0.0
O401 O 0.98341 0.48133 0.99071 0.0
O402 O 0.03304 0.48078 0.04037 0.0
Eu403 Eu 0.95464 0.50555 0.01563 0.0
Eu404 Eu 0.06157 0.50583 0.01617 0.0
O405 O 0.98304 0.48056 0.0402 0.0
O406 O 0.03358 0.4812 0.99075 0.0
Eu407 Eu 0.00793 0.50507 0.06871 0.0
Eu408 Eu 0.00854 0.50634 0.96297 0.0
O409 O 0.98289 0.53011 0.04086 0.0
O410 O 0.98303 0.5308 0.99112 0.0
O411 O 0.0332 0.53077 0.99162 0.0
O412 O 0.03303 0.53033 0.0411 0.0
Eu413 Eu 0.00797 0.55849 0.01649 0.0
O414 O 0.00736 0.42859 0.05572 0.0
O415 O 0.00877 0.42963 0.97393 0.0
O416 O 0.00853 0.58177 0.05766 0.0
O417 O 0.00732 0.58281 0.97587 0.0
O418 O 0.93086 0.54728 0.01688 0.0
O419 O 0.93114 0.46372 0.01435 0.0
O420 O 0.08483 0.54758 0.01725 0.0
O421 O 0.08512 0.46421 0.01653 0.0
O422 O 0.05007 0.5078 0.9401 0.0
O423 O 0.96724 0.50533 0.93959 0.0
O424 O 0.04925 0.50408 0.09182 0.0
O425 O 0.96651 0.50369 0.09173 0.0
O426 O 0.04913 0.5823 0.01603 0.0
O427 O 0.96678 0.58182 0.01866 0.0
O428 O 0.04959 0.42933 0.0159 0.0
O429 O 0.96722 0.42937 0.0129 0.0
O430 O 0.01049 0.46492 0.9392 0.0
O431 O 0.00868 0.54835 0.94031 0.0
O432 O 0.00874 0.46302 0.09133 0.0
O433 O 0.00856 0.54661 0.09253 0.0
O434 O 0.93131 0.50358 0.05661 0.0
O435 O 0.93173 0.50535 0.97446 0.0
O436 O 0.0849 0.50481 0.05718 0.0
O437 O 0.08514 0.50701 0.97531 0.0
C438 C 0.51056 0.43848 0.08319 0.0
C439 C 0.50885 0.57395 0.08377 0.0
C440 C 0.5093 0.43884 0.94713 0.0
C441 C 0.50996 0.57419 0.94736 0.0
C442 C 0.57682 0.50569 0.94701 0.0
C443 C 0.57754 0.50814 0.08321 0.0
C444 C 0.44061 0.50646 0.94792 0.0
C445 C 0.44151 0.50455 0.08412 0.0
C446 C 0.44072 0.57403 0.01741 0.0
C447 C 0.57706 0.57444 0.014 0.0
C448 C 0.44142 0.43838 0.01417 0.0
C449 C 0.57781 0.43912 0.01635 0.0
Eu450 Eu 0.50948 0.50626 0.06791 0.0
O451 O 0.53416 0.53147 0.03989 0.0
O452 O 0.48431 0.48125 0.04019 0.0
Eu453 Eu 0.56267 0.5067 0.01518 0.0
Eu454 Eu 0.45565 0.50628 0.01596 0.0
O455 O 0.53458 0.48156 0.0399 0.0
O456 O 0.48418 0.53124 0.04033 0.0
Eu457 Eu 0.50951 0.45334 0.01528 0.0
Eu458 Eu 0.50882 0.55968 0.01548 0.0
O459 O 0.53429 0.48168 0.99053 0.0
O460 O 0.53386 0.53143 0.99083 0.0
O461 O 0.48362 0.53143 0.99088 0.0
O462 O 0.48417 0.48164 0.99111 0.0
Eu463 Eu 0.50882 0.50652 0.96298 0.0
O464 O 0.50988 0.46513 0.09149 0.0
O465 O 0.50918 0.54721 0.09174 0.0
O466 O 0.50829 0.46555 0.93912 0.0
O467 O 0.51023 0.54743 0.93951 0.0
O468 O 0.58581 0.50549 0.97344 0.0
O469 O 0.58627 0.50839 0.05668 0.0
O470 O 0.43194 0.50615 0.97448 0.0
O471 O 0.43223 0.50528 0.05778 0.0
O472 O 0.46738 0.58276 0.01644 0.0
O473 O 0.55027 0.58283 0.01491 0.0
O474 O 0.46817 0.42986 0.01447 0.0
O475 O 0.55109 0.43055 0.01564 0.0
O476 O 0.46743 0.50691 0.93968 0.0
O477 O 0.54991 0.50627 0.93908 0.0
O478 O 0.4685 0.50487 0.09175 0.0
O479 O 0.55073 0.50701 0.09137 0.0
O480 O 0.50865 0.5828 0.05729 0.0
O481 O 0.50876 0.58321 0.97378 0.0
O482 O 0.51067 0.42984 0.05666 0.0
O483 O 0.51025 0.43011 0.97361 0.0
O484 O 0.58641 0.4657 0.01638 0.0
O485 O 0.58587 0.54795 0.01382 0.0
O486 O 0.43274 0.46491 0.01485 0.0
O487 O 0.43225 0.54741 0.01731 0.0
C488 C 0.00752 0.43709 0.58161 0.0
C489 C 0.00781 0.4404 0.44684 0.0
C490 C 0.00769 0.57249 0.58504 0.0
C491 C 0.00677 0.57568 0.45021 0.0
C492 C 0.93916 0.57365 0.51645 0.0
C493 C 0.93983 0.4383 0.51624 0.0
C494 C 0.07656 0.57448 0.51668 0.0
C495 C 0.07721 0.43934 0.51444 0.0
C496 C 0.07628 0.50816 0.44791 0.0
C497 C 0.93859 0.50601 0.44939 0.0
C498 C 0.07744 0.50407 0.58282 0.0
C499 C 0.93997 0.50605 0.58408 0.0
Eu500 Eu 0.00838 0.45343 0.51462 0.0
O501 O 0.98303 0.48197 0.49076 0.0
O502 O 0.03339 0.48118 0.53985 0.0
Eu503 Eu 0.95506 0.50603 0.51656 0.0
Eu504 Eu 0.06127 0.50682 0.51549 0.0
O505 O 0.98357 0.48079 0.54044 0.0
O506 O 0.03294 0.48238 0.49032 0.0
Eu507 Eu 0.0086 0.50514 0.56882 0.0
Eu508 Eu 0.00753 0.50771 0.4631 0.0
O509 O 0.98338 0.53055 0.54156 0.0
O510 O 0.98285 0.53171 0.49213 0.0
O511 O 0.03268 0.53208 0.49151 0.0
O512 O 0.03325 0.53099 0.54127 0.0
Eu513 Eu 0.00789 0.55949 0.51726 0.0
O514 O 0.00804 0.42927 0.55496 0.0
O515 O 0.00816 0.43106 0.47303 0.0
O516 O 0.00722 0.58177 0.55884 0.0
O517 O 0.00721 0.58359 0.47685 0.0
O518 O 0.93104 0.54693 0.51658 0.0
O519 O 0.93145 0.46492 0.51672 0.0
O520 O 0.08495 0.54786 0.51632 0.0
O521 O 0.08535 0.46603 0.51425 0.0
O522 O 0.04937 0.50792 0.43954 0.0
O523 O 0.96518 0.50761 0.44019 0.0
O524 O 0.0507 0.50352 0.59166 0.0
O525 O 0.96685 0.50591 0.59252 0.0
O526 O 0.04971 0.58303 0.51702 0.0
O527 O 0.96588 0.58256 0.51671 0.0
O528 O 0.05047 0.43047 0.51476 0.0
O529 O 0.96665 0.42974 0.51535 0.0
O530 O 0.00751 0.46718 0.43914 0.0
O531 O 0.00691 0.54936 0.44099 0.0
O532 O 0.00763 0.46341 0.59089 0.0
O533 O 0.00868 0.54573 0.59281 0.0
O534 O 0.93154 0.50585 0.55758 0.0
O535 O 0.93088 0.50513 0.47608 0.0
O536 O 0.08548 0.50561 0.55622 0.0
O537 O 0.0848 0.50809 0.47439 0.0
C538 C 0.5073 0.93775 0.58355 0.0
C539 C 0.50989 0.9366 0.44855 0.0
C540 C 0.5093 0.07463 0.5823 0.0
C541 C 0.50975 0.07347 0.44749 0.0
C542 C 0.44057 0.07386 0.51491 0.0
C543 C 0.43995 0.93755 0.51436 0.0
C544 C 0.57663 0.07365 0.51608 0.0
C545 C 0.57608 0.93704 0.51644 0.0
C546 C 0.57738 0.00505 0.44898 0.0
C547 C 0.44117 1.00477 0.44731 0.0
C548 C 0.57564 0.00599 0.58381 0.0
C549 C 0.4394 0.00699 0.58217 0.0
Eu550 Eu 0.50809 0.95276 0.51601 0.0
O551 O 0.48366 0.9807 0.49062 0.0
O552 O 0.53296 0.98091 0.54093 0.0
Eu553 Eu 0.45507 0.00567 0.51493 0.0
Eu554 Eu 0.56172 0.00537 0.51626 0.0
O555 O 0.48279 0.98097 0.54043 0.0
O556 O 0.53353 0.98056 0.49133 0.0
Eu557 Eu 0.50763 0.00608 0.56846 0.0
Eu558 Eu 0.50911 0.00513 0.46258 0.0
O559 O 0.4832 0.03068 0.53976 0.0
O560 O 0.48368 0.03023 0.49009 0.0
O561 O 0.53391 0.03007 0.49076 0.0
O562 O 0.53301 0.03042 0.54032 0.0
Eu563 Eu 0.50857 0.05834 0.51493 0.0
O564 O 0.50712 0.92933 0.55704 0.0
O565 O 0.50881 0.92865 0.47519 0.0
O566 O 0.50974 0.08236 0.5556 0.0
O567 O 0.50903 0.08181 0.474 0.0
O568 O 0.43167 0.04731 0.51537 0.0
O569 O 0.43125 0.96418 0.51402 0.0
O570 O 0.58532 0.04702 0.51696 0.0
O571 O 0.58495 0.96361 0.5161 0.0
O572 O 0.5508 1.00479 0.44004 0.0
O573 O 0.46796 1.0046 0.43895 0.0
O574 O 0.54877 0.00641 0.59187 0.0
O575 O 0.46599 0.00689 0.59108 0.0
O576 O 0.54983 0.08187 0.51488 0.0
O577 O 0.4674 0.08208 0.51441 0.0
O578 O 0.54921 0.92892 0.51675 0.0
O579 O 0.46676 0.9293 0.5153 0.0
O580 O 0.51028 0.96317 0.43973 0.0
O581 O 0.51001 0.04675 0.43902 0.0
O582 O 0.50769 0.96448 0.59198 0.0
O583 O 0.50796 0.04818 0.59142 0.0
O584 O 0.43116 0.00633 0.55562 0.0
O585 O 0.43234 0.00544 0.47368 0.0
O586 O 0.58472 0.00536 0.55752 0.0
O587 O 0.58557 0.00541 0.47555 0.0
H588 H 0.21939 0.18544 0.49202 0.0
H589 H 0.16666 0.22531 0.55366 0.0
H590 H 0.18726 0.14544 0.49087 0.0
H591 H 0.1347 0.18554 0.5525 0.0
H592 H 0.06708 0.12991 0.51574 0.0
H593 H 0.10159 0.1671 0.51759 0.0
H594 H 0.16863 0.10619 0.52036 0.0
H595 H 0.13397 0.06848 0.51818 0.0
C596 C 0.20111 0.1855 0.5055 0.0
C597 C 0.19527 0.2086 0.52264 0.0
C598 C 0.18279 0.16264 0.50487 0.0
C599 C 0.15837 0.16258 0.52137 0.0
C600 C 0.15307 0.18531 0.53913 0.0
C601 C 0.17132 0.20807 0.53976 0.0
C602 C 0.08912 0.12424 0.51675 0.0
C603 C 0.09768 0.0961 0.51697 0.0
C604 C 0.10891 0.14565 0.51795 0.0
C605 C 0.13774 0.13952 0.51941 0.0
C606 C 0.14649 0.11147 0.51914 0.0
C607 C 0.12662 0.08991 0.51799 0.0
H608 H 0.83169 0.21492 0.54457 0.0
H609 H 0.79089 0.17048 0.47745 0.0
H610 H 0.87103 0.18221 0.54263 0.0
H611 H 0.83026 0.13779 0.47545 0.0
H612 H 0.88335 0.0652 0.50912 0.0
H613 H 0.84704 0.10082 0.5068 0.0
H614 H 0.91034 0.16535 0.5135 0.0
H615 H 0.94686 0.12975 0.51635 0.0
C616 C 0.83143 0.1985 0.52903 0.0
C617 C 0.80818 0.19506 0.5113 0.0
C618 C 0.85392 0.17978 0.52793 0.0
C619 C 0.85353 0.15731 0.50908 0.0
C620 C 0.83083 0.15461 0.49055 0.0
C621 C 0.80837 0.17331 0.49165 0.0
C622 C 0.88964 0.08694 0.51013 0.0
C623 C 0.91807 0.09455 0.51302 0.0
C624 C 0.8688 0.10737 0.50854 0.0
C625 C 0.8759 0.13585 0.50982 0.0
C626 C 0.90428 0.14353 0.51265 0.0
C627 C 0.92518 0.1231 0.51419 0.0
H628 H 0.79162 0.84 0.55473 0.0
H629 H 0.83142 0.79523 0.48723 0.0
H630 H 0.83132 0.87232 0.55641 0.0
H631 H 0.87113 0.82762 0.48885 0.0
H632 H 0.94754 0.88026 0.51471 0.0
H633 H 0.91097 0.84459 0.5176 0.0
H634 H 0.84774 0.90909 0.52466 0.0
H635 H 0.88401 0.9447 0.52227 0.0
C636 C 0.80895 0.83702 0.54036 0.0
C637 C 0.80836 0.81531 0.52068 0.0
C638 C 0.83162 0.8555 0.54129 0.0
C639 C 0.85412 0.85265 0.52254 0.0
C640 C 0.85416 0.83018 0.50369 0.0
C641 C 0.83146 0.81165 0.50277 0.0
C642 C 0.92586 0.88687 0.51696 0.0
C643 C 0.91877 0.91541 0.51824 0.0
C644 C 0.90493 0.86641 0.51851 0.0
C645 C 0.87656 0.87407 0.52152 0.0
C646 C 0.86949 0.90255 0.52282 0.0
C647 C 0.89033 0.92297 0.52119 0.0
H648 H 0.219 0.82883 0.48649 0.0
H649 H 0.17481 0.78969 0.55475 0.0
H650 H 0.18671 0.86845 0.4886 0.0
H651 H 0.14258 0.82934 0.55692 0.0
H652 H 0.06946 0.88185 0.52333 0.0
H653 H 0.10516 0.84571 0.52571 0.0
H654 H 0.17033 0.90818 0.51744 0.0
H655 H 0.13455 0.94461 0.51451 0.0
C656 C 0.20274 0.829 0.50231 0.0
C657 C 0.19919 0.80612 0.52029 0.0
C658 C 0.18428 0.85165 0.50352 0.0
C659 C 0.16197 0.8518 0.52273 0.0
C660 C 0.15926 0.8295 0.54155 0.0
C661 C 0.17769 0.80687 0.54033 0.0
C662 C 0.09136 0.88801 0.52197 0.0
C663 C 0.09908 0.91619 0.51861 0.0
C664 C 0.11184 0.86727 0.52362 0.0
C665 C 0.14052 0.87417 0.52195 0.0
C666 C 0.14835 0.90228 0.51863 0.0
C667 C 0.12783 0.92312 0.51705 0.0
H668 H 0.47126 0.16637 0.2359 0.0
H669 H 0.53614 0.21337 0.19358 0.0
H670 H 0.46904 0.13391 0.19671 0.0
H671 H 0.53386 0.18102 0.15448 0.0
H672 H 0.50579 0.12958 0.07949 0.0
H673 H 0.50305 0.16429 0.11655 0.0
H674 H 0.50121 0.09826 0.17781 0.0
H675 H 0.50349 0.06354 0.14104 0.0
C676 C 0.48495 0.16979 0.21819 0.0
C677 C 0.50394 0.1923 0.21782 0.0
C678 C 0.48369 0.15125 0.1958 0.0
C679 C 0.50139 0.15489 0.17265 0.0
C680 C 0.51973 0.17791 0.1719 0.0
C681 C 0.52101 0.19642 0.19429 0.0
C682 C 0.50474 0.12241 0.10084 0.0
C683 C 0.50495 0.09372 0.10723 0.0
C684 C 0.50324 0.14233 0.12204 0.0
C685 C 0.50183 0.13395 0.15001 0.0
C686 C 0.50184 0.10532 0.1564 0.0
C687 C 0.50339 0.08543 0.13527 0.0
H688 H 0.83388 0.5257 0.22788 0.0
H689 H 0.78836 0.46645 0.17707 0.0
H690 H 0.8732 0.52422 0.19519 0.0
H691 H 0.82774 0.46471 0.1445 0.0
H692 H 0.94687 0.49895 0.13958 0.0
H693 H 0.91038 0.49484 0.17495 0.0
H694 H 0.84654 0.49835 0.11104 0.0
H695 H 0.88277 0.50193 0.07561 0.0
C696 C 0.8326 0.51189 0.21004 0.0
C697 C 0.80806 0.49639 0.20478 0.0
C698 C 0.85506 0.51104 0.19134 0.0
C699 C 0.85335 0.49461 0.16714 0.0
C700 C 0.82937 0.47801 0.16269 0.0
C701 C 0.80691 0.47893 0.18132 0.0
C702 C 0.92506 0.49882 0.13301 0.0
C703 C 0.91779 0.50082 0.10469 0.0
C704 C 0.90419 0.49652 0.15333 0.0
C705 C 0.87566 0.49612 0.14573 0.0
C706 C 0.86839 0.49809 0.11747 0.0
C707 C 0.88921 0.50038 0.09718 0.0
H708 H 0.46742 0.78971 0.17951 0.0
H709 H 0.54003 0.82528 0.22058 0.0
H710 H 0.4669 0.82877 0.14694 0.0
H711 H 0.53936 0.86448 0.18806 0.0
H712 H 0.51212 0.94251 0.139 0.0
H713 H 0.51021 0.9055 0.1738 0.0
H714 H 0.49833 0.84425 0.10874 0.0
H715 H 0.49981 0.88102 0.07395 0.0
C716 C 0.48325 0.80589 0.18155 0.0
C717 C 0.5039 0.80437 0.20241 0.0
C718 C 0.48294 0.82822 0.16295 0.0
C719 C 0.50322 0.84949 0.16488 0.0
C720 C 0.52333 0.84847 0.18627 0.0
C721 C 0.52369 0.82607 0.20487 0.0
C722 C 0.50902 0.92118 0.13208 0.0
C723 C 0.50611 0.91478 0.10364 0.0
C724 C 0.50807 0.9 0.15203 0.0
C725 C 0.50401 0.87208 0.14394 0.0
C726 C 0.50108 0.86567 0.11558 0.0
C727 C 0.50216 0.88677 0.09564 0.0
H728 H 0.17072 0.46219 0.2315 0.0
H729 H 0.21881 0.52867 0.1935 0.0
H730 H 0.1385 0.46232 0.19201 0.0
H731 H 0.18649 0.52888 0.15396 0.0
H732 H 0.13352 0.50467 0.07748 0.0
H733 H 0.16888 0.50077 0.11407 0.0
H734 H 0.10295 0.49592 0.17582 0.0
H735 H 0.06766 0.49933 0.13958 0.0
C736 C 0.17441 0.47676 0.21463 0.0
C737 C 0.19703 0.49562 0.21563 0.0
C738 C 0.156 0.47685 0.19208 0.0
C739 C 0.15984 0.49584 0.17012 0.0
C740 C 0.18317 0.51389 0.17053 0.0
C741 C 0.20163 0.51378 0.19312 0.0
C742 C 0.12654 0.50275 0.09885 0.0
C743 C 0.0977 0.5023 0.10553 0.0
C744 C 0.14682 0.5006 0.11977 0.0
C745 C 0.13863 0.49783 0.14772 0.0
C746 C 0.10987 0.49752 0.1544 0.0
C747 C 0.08964 0.49972 0.13357 0.0
H748 H 0.48558 0.79746 0.83754 0.0
H749 H 0.55186 0.84571 0.79897 0.0
H750 H 0.48503 0.8299 0.8768 0.0
H751 H 0.55133 0.8781 0.83819 0.0
H752 H 0.51419 0.94806 0.89154 0.0
H753 H 0.51746 0.91321 0.85498 0.0
H754 H 0.51365 0.84737 0.91636 0.0
H755 H 0.50993 0.88222 0.95321 0.0
C756 C 0.50034 0.81473 0.83771 0.0
C757 C 0.51859 0.81926 0.81515 0.0
C758 C 0.50002 0.83327 0.86015 0.0
C759 C 0.51795 0.85664 0.86037 0.0
C760 C 0.53691 0.86055 0.83828 0.0
C761 C 0.53723 0.84204 0.81589 0.0
C762 C 0.51403 0.92619 0.89739 0.0
C763 C 0.5118 0.91799 0.92539 0.0
C764 C 0.51612 0.90622 0.87639 0.0
C765 C 0.51602 0.87761 0.88287 0.0
C766 C 0.51361 0.86931 0.91079 0.0
C767 C 0.51158 0.88931 0.93187 0.0
H768 H 0.22681 0.54346 0.85202 0.0
H769 H 0.18533 0.47649 0.80766 0.0
H770 H 0.18747 0.54575 0.88459 0.0
H771 H 0.14599 0.47876 0.84024 0.0
H772 H 0.07024 0.50643 0.89213 0.0
H773 H 0.10699 0.50874 0.85683 0.0
H774 H 0.17008 0.51435 0.92132 0.0
H775 H 0.13357 0.51254 0.95664 0.0
C776 C 0.20921 0.52933 0.8492 0.0
C777 C 0.20918 0.50966 0.82748 0.0
C778 C 0.18675 0.53061 0.86782 0.0
C779 C 0.16383 0.51225 0.86508 0.0
C780 C 0.16327 0.49334 0.8427 0.0
C781 C 0.18576 0.49205 0.82405 0.0
C782 C 0.09193 0.50826 0.89884 0.0
C783 C 0.09891 0.50926 0.92728 0.0
C784 C 0.11296 0.50947 0.87858 0.0
C785 C 0.14134 0.51183 0.88635 0.0
C786 C 0.14832 0.51297 0.91472 0.0
C787 C 0.12736 0.51169 0.93497 0.0
H788 H 0.53971 0.1834 0.80832 0.0
H789 H 0.47537 0.22553 0.8561 0.0
H790 H 0.53858 0.14433 0.84108 0.0
H791 H 0.47417 0.18658 0.88872 0.0
H792 H 0.5071 0.13129 0.95864 0.0
H793 H 0.50661 0.16808 0.92391 0.0
H794 H 0.50789 0.10617 0.85842 0.0
H795 H 0.50888 0.06907 0.89314 0.0
C796 C 0.52508 0.1841 0.8256 0.0
C797 C 0.50782 0.20755 0.82988 0.0
C798 C 0.52442 0.16178 0.84432 0.0
C799 C 0.50648 0.16259 0.86757 0.0
C800 C 0.48861 0.18567 0.87129 0.0
C801 C 0.48928 0.20792 0.85264 0.0
C802 C 0.50729 0.12538 0.93687 0.0
C803 C 0.50797 0.09715 0.92874 0.0
C804 C 0.50682 0.14652 0.91697 0.0
C805 C 0.50702 0.13996 0.88849 0.0
C806 C 0.50791 0.1118 0.88026 0.0
C807 C 0.50833 0.09058 0.90019 0.0
H808 H 0.82874 0.53511 0.80876 0.0
H809 H 0.79477 0.46158 0.8488 0.0
H810 H 0.86829 0.53492 0.84118 0.0
H811 H 0.83422 0.46151 0.88128 0.0
H812 H 0.88417 0.49602 0.95534 0.0
H813 H 0.84796 0.49322 0.91983 0.0
H814 H 0.91042 0.50728 0.85601 0.0
H815 H 0.94691 0.51051 0.89159 0.0
C816 C 0.83 0.51864 0.82416 0.0
C817 C 0.80857 0.49851 0.82646 0.0
C818 C 0.85261 0.51855 0.8427 0.0
C819 C 0.85411 0.49837 0.86387 0.0
C820 C 0.83327 0.47761 0.86545 0.0
C821 C 0.81073 0.47765 0.84691 0.0
C822 C 0.8903 0.4986 0.93378 0.0
C823 C 0.91849 0.50355 0.92636 0.0
C824 C 0.86954 0.49672 0.91342 0.0
C825 C 0.87645 0.49984 0.88519 0.0
C826 C 0.90455 0.50493 0.87767 0.0
C827 C 0.92541 0.50667 0.89806 0.0
H828 H 0.71991 0.68365 0.04307 0.0
H829 H 0.67297 0.7238 0.97731 0.0
H830 H 0.68741 0.64405 0.04173 0.0
H831 H 0.64061 0.68425 0.97586 0.0
H832 H 0.56895 0.63087 0.01027 0.0
H833 H 0.60446 0.66724 0.00824 0.0
H834 H 0.67004 0.60484 0.01243 0.0
H835 H 0.63448 0.56815 0.01497 0.0
C836 C 0.70295 0.68374 0.028 0.0
C837 C 0.6987 0.70686 0.01051 0.0
C838 C 0.68438 0.66111 0.02723 0.0
C839 C 0.66133 0.66128 0.00892 0.0
C840 C 0.65788 0.68386 0.99057 0.0
C841 C 0.67637 0.70644 0.99138 0.0
C842 C 0.59089 0.62476 0.01078 0.0
C843 C 0.5988 0.59651 0.0128 0.0
C844 C 0.61125 0.64565 0.00938 0.0
C845 C 0.63999 0.63882 0.00996 0.0
C846 C 0.64801 0.61066 0.01209 0.0
C847 C 0.6276 0.58968 0.01343 0.0
H848 H 0.29324 0.67026 0.06196 0.0
H849 H 0.33056 0.71685 0.99436 0.0
H850 H 0.33278 0.63778 0.06113 0.0
H851 H 0.37015 0.68428 0.99346 0.0
H852 H 0.44736 0.63099 0.016 0.0
H853 H 0.4109 0.66653 0.02055 0.0
H854 H 0.34781 0.60185 0.02751 0.0
H855 H 0.38402 0.56629 0.02345 0.0
C856 C 0.31001 0.6736 0.04704 0.0
C857 C 0.30876 0.69584 0.02803 0.0
C858 C 0.33257 0.65502 0.04653 0.0
C859 C 0.3543 0.65832 0.02699 0.0
C860 C 0.35375 0.68135 0.00885 0.0
C861 C 0.33114 0.69998 0.00938 0.0
C862 C 0.42572 0.62429 0.01851 0.0
C863 C 0.41866 0.59572 0.01936 0.0
C864 C 0.40487 0.64469 0.02103 0.0
C865 C 0.3766 0.63693 0.02457 0.0
C866 C 0.36952 0.60843 0.02529 0.0
C867 C 0.39029 0.58805 0.0227 0.0
H868 H 0.33422 0.29321 0.03634 0.0
H869 H 0.28962 0.34518 0.97761 0.0
H870 H 0.37394 0.32566 0.03534 0.0
H871 H 0.32935 0.37747 0.97634 0.0
H872 H 0.38441 0.44595 0.01382 0.0
H873 H 0.34808 0.41056 0.01034 0.0
H874 H 0.41161 0.34607 1.00638 0.0
H875 H 0.44831 0.3815 0.01037 0.0
C876 C 0.33321 0.31127 0.02278 0.0
C877 C 0.30881 0.31694 1.00728 0.0
C878 C 0.3559 0.32982 0.02219 0.0
C879 C 0.35455 0.35426 1.00604 0.0
C880 C 0.3307 0.3591 0.98944 0.0
C881 C 0.30803 0.34064 0.9901 0.0
C882 C 0.39079 0.42427 0.01222 0.0
C883 C 0.41936 0.41664 0.01241 0.0
C884 C 0.3699 0.40398 0.00998 0.0
C885 C 0.37703 0.37558 0.00784 0.0
C886 C 0.40553 0.36782 0.00816 0.0
C887 C 0.42652 0.38816 0.01039 0.0
H888 H 0.67328 0.29011 0.05447 0.0
H889 H 0.72015 0.32887 0.98779 0.0
H890 H 0.64139 0.32999 0.05565 0.0
H891 H 0.68805 0.36881 0.98881 0.0
H892 H 0.63527 0.44544 0.01457 0.0
H893 H 0.67085 0.40873 0.01736 0.0
H894 H 0.6052 0.34649 0.02331 0.0
H895 H 0.56976 0.38281 0.02106 0.0
C896 C 0.67677 0.30724 0.04013 0.0
C897 C 0.69891 0.30632 0.02081 0.0
C898 C 0.65854 0.33002 0.04079 0.0
C899 C 0.66204 0.3523 0.02207 0.0
C900 C 0.68497 0.35199 1.00359 0.0
C901 C 0.7033 0.32917 1.00298 0.0
C902 C 0.62841 0.42393 0.01654 0.0
C903 C 0.59961 0.41712 0.01761 0.0
C904 C 0.64881 0.40294 0.01804 0.0
C905 C 0.64077 0.37482 0.02076 0.0
C906 C 0.61203 0.36804 0.02173 0.0
C907 C 0.5917 0.38892 0.02018 0.0
H908 H 0.97312 0.66606 0.73613 0.0
H909 H 0.03913 0.71256 0.69504 0.0
H910 H 0.97138 0.6336 0.69696 0.0
H911 H 0.0374 0.68012 0.6559 0.0
H912 H 0.00882 0.62963 0.58012 0.0
H913 H 0.00693 0.66408 0.61747 0.0
H914 H 1.0029 0.5976 0.67814 0.0
H915 H 0.00424 0.56315 0.64107 0.0
C916 C 0.98723 0.66932 0.71872 0.0
C917 C 0.00633 0.69173 0.71866 0.0
C918 C 0.98625 0.65077 0.69634 0.0
C919 C 0.00436 0.65427 0.67348 0.0
C920 C 0.02296 0.6771 0.6731 0.0
C921 C 0.02394 0.69566 0.69549 0.0
C922 C 0.00746 0.62231 0.6014 0.0
C923 C 0.00675 0.59357 0.60754 0.0
C924 C 0.00649 0.64208 0.62278 0.0
C925 C 0.00469 0.6335 0.65067 0.0
C926 C 0.00387 0.60483 0.6568 0.0
C927 C 0.00489 0.58508 0.6355 0.0
H928 H 0.32763 0.97681 0.72143 0.0
H929 H 0.2931 0.0499 0.68114 0.0
H930 H 0.36676 0.97675 0.68851 0.0
H931 H 0.33214 0.04973 0.64815 0.0
H932 H 0.3831 0.0158 0.5743 0.0
H933 H 0.3465 0.01835 0.60958 0.0
H934 H 0.4085 1.00456 0.67385 0.0
H935 H 0.44526 1.00153 0.63861 0.0
C936 C 0.32868 0.99313 0.70584 0.0
C937 C 0.30725 0.01325 0.70369 0.0
C938 C 0.35103 0.99307 0.687 0.0
C939 C 0.35229 0.01309 0.66567 0.0
C940 C 0.33137 0.03375 0.6641 0.0
C941 C 0.30908 0.03386 0.68296 0.0
C942 C 0.38901 0.0132 0.59592 0.0
C943 C 0.41714 0.00837 0.60359 0.0
C944 C 0.36804 0.01493 0.61613 0.0
C945 C 0.37473 0.01178 0.64442 0.0
C946 C 0.40278 0.00688 0.65215 0.0
C947 C 0.42381 0.00527 0.63194 0.0
H948 H 0.96645 0.28911 0.67765 0.0
H949 H 0.03889 0.32445 0.71919 0.0
H950 H 0.96634 0.32818 0.64503 0.0
H951 H 0.03868 0.36356 0.68667 0.0
H952 H 0.01268 0.44191 0.63822 0.0
H953 H 0.01014 0.40463 0.67267 0.0
H954 H 0.99754 0.34413 0.60705 0.0
H955 H 0.99955 0.38121 0.5726 0.0
C956 C 0.98232 0.30523 0.67979 0.0
C957 C 1.00275 0.30369 0.70086 0.0
C958 C 0.98226 0.32755 0.66115 0.0
C959 C 1.00259 0.34879 0.66327 0.0
C960 C 0.02257 0.34763 0.68476 0.0
C961 C 0.02267 0.32527 0.70337 0.0
C962 C 0.00928 0.42068 0.6311 0.0
C963 C 0.00634 0.41459 0.60261 0.0
C964 C 0.00797 0.39934 0.65085 0.0
C965 C 0.00356 0.37154 0.64251 0.0
C966 C 1.00057 0.36544 0.61409 0.0
C967 C 1.00198 0.38671 0.59434 0.0
H968 H 0.71505 0.97478 0.69701 0.0
H969 H 0.67155 0.04643 0.73102 0.0
H970 H 0.68277 0.97448 0.65737 0.0
H971 H 0.63934 0.04602 0.69159 0.0
H972 H 0.56677 0.01216 0.63962 0.0
H973 H 0.60164 0.01366 0.67641 0.0
H974 H 0.66802 1.00305 0.61587 0.0
H975 H 0.63304 1.00117 0.57869 0.0
C976 C 0.69883 0.99065 0.69582 0.0
C977 C 0.69556 0.01043 0.71722 0.0
C978 C 0.68041 0.99048 0.67317 0.0
C979 C 0.65844 0.01006 0.67162 0.0
C980 C 0.65578 0.03036 0.69257 0.0
C981 C 0.67417 0.03057 0.71512 0.0
C982 C 0.58875 0.01009 0.63399 0.0
C983 C 0.59706 0.0066 0.60611 0.0
C984 C 0.60874 0.01115 0.65512 0.0
C985 C 0.6375 0.00869 0.64893 0.0
C986 C 0.64593 1.00488 0.62118 0.0
C987 C 0.62589 1.00393 0.59992 0.0
H988 H 0.04403 0.35007 0.29548 0.0
H989 H 0.9815 0.29847 0.33584 0.0
H990 H 0.04269 0.38257 0.33449 0.0
H991 H 0.98015 0.33111 0.37502 0.0
H992 H 0.00845 0.38314 0.4514 0.0
H993 H 0.01002 0.34901 0.41366 0.0
H994 H 0.00866 0.41605 0.35349 0.0
H995 H 0.00756 0.45012 0.39083 0.0
C996 C 0.02985 0.34581 0.31263 0.0
C997 C 0.01267 0.32191 0.31254 0.0
C998 C 0.0291 0.36438 0.33495 0.0
C999 C 0.01116 0.35945 0.35766 0.0
C1000 C 0.99435 0.33527 0.35787 0.0
C1001 C 0.9951 0.31665 0.33548 0.0
C1002 C 0.00847 0.39063 0.43013 0.0
C1003 C 0.00802 0.41942 0.42422 0.0
C1004 C 0.00923 0.37105 0.40854 0.0
C1005 C 0.00964 0.37992 0.38069 0.0
C1006 C 0.00884 0.40863 0.37479 0.0
C1007 C 0.00805 0.42815 0.39627 0.0
H1008 H 0.72402 0.04501 0.35088 0.0
H1009 H 0.6896 0.97239 0.30952 0.0
H1010 H 0.68491 0.04457 0.38366 0.0
H1011 H 0.65026 0.97201 0.3424 0.0
H1012 H 0.57148 0.99888 0.39256 0.0
H1013 H 0.60845 1.00035 0.35739 0.0
H1014 H 0.67067 0.01262 0.42178 0.0
H1015 H 0.63395 0.01158 0.45694 0.0
C1016 C 0.70806 0.02895 0.34884 0.0
C1017 C 0.70997 0.00853 0.32791 0.0
C1018 C 0.68572 0.0287 0.36758 0.0
C1019 C 0.6648 0.00806 0.36572 0.0
C1020 C 0.66607 0.98824 0.34416 0.0
C1021 C 0.68852 0.98846 0.32538 0.0
C1022 C 0.59303 1.00193 0.39926 0.0
C1023 C 0.59971 0.00524 0.42761 0.0
C1024 C 0.61417 1.00262 0.3791 0.0
C1025 C 0.64232 0.00678 0.3869 0.0
C1026 C 0.64904 0.00981 0.41519 0.0
C1027 C 0.62799 0.00902 0.43534 0.0
H1028 H 0.0394 0.68723 0.31187 0.0
H1029 H 0.96683 0.72289 0.35292 0.0
H1030 H 0.03902 0.64837 0.34476 0.0
H1031 H 0.96657 0.68413 0.38587 0.0
H1032 H 0.99933 0.63171 0.45885 0.0
H1033 H 0.99781 0.66857 0.42411 0.0
H1034 H 0.00999 0.60748 0.35896 0.0
H1035 H 0.01199 0.57044 0.39366 0.0
C1036 C 0.02314 0.68654 0.32767 0.0
C1037 C 0.00324 0.70813 0.32997 0.0
C1038 C 0.02295 0.66434 0.34648 0.0
C1039 C 1.00288 0.6634 0.36793 0.0
C1040 C 0.98256 0.68462 0.3698 0.0
C1041 C 0.98271 0.70676 0.35097 0.0
C1042 C 1.00176 0.62604 0.43716 0.0
C1043 C 0.00584 0.59807 0.42908 0.0
C1044 C 1.00065 0.64718 0.41725 0.0
C1045 C 0.00367 0.64083 0.38888 0.0
C1046 C 0.00781 0.61294 0.38074 0.0
C1047 C 0.00881 0.59174 0.40064 0.0
H1048 H 0.32898 0.03436 0.30761 0.0
H1049 H 0.29564 0.96125 0.34886 0.0
H1050 H 0.36883 0.03476 0.33984 0.0
H1051 H 0.33532 0.96165 0.38097 0.0
H1052 H 0.3848 0.99646 0.45454 0.0
H1053 H 0.34863 0.99395 0.41903 0.0
H1054 H 0.41124 0.00739 0.3552 0.0
H1055 H 0.44775 0.01036 0.39084 0.0
C1056 C 0.33045 0.01814 0.32326 0.0
C1057 C 0.3091 0.998 0.32604 0.0
C1058 C 0.3532 0.01836 0.34166 0.0
C1059 C 0.35489 0.99845 0.36307 0.0
C1060 C 0.33419 0.97759 0.36499 0.0
C1061 C 0.31153 0.97736 0.34665 0.0
C1062 C 0.39099 0.99899 0.43299 0.0
C1063 C 0.41923 1.00362 0.42558 0.0
C1064 C 0.37024 0.9973 0.41262 0.0
C1065 C 0.37721 1.00024 0.38439 0.0
C1066 C 0.40534 0.00515 0.37687 0.0
C1067 C 0.4262 0.00672 0.39728 0.0
H1068 H 0.99328 0.18029 0.29878 0.0
H1069 H 0.0701 0.20466 0.34008 0.0
H1070 H 0.98399 0.1462 0.33602 0.0
H1071 H 0.06093 0.171 0.37699 0.0
H1072 H 0.02303 0.12926 0.45315 0.0
H1073 H 0.02791 0.16374 0.416 0.0
H1074 H 0.00379 0.10155 0.3554 0.0
H1075 H 0.99874 0.06706 0.39244 0.0
C1076 C 0.00818 0.17832 0.31572 0.0
C1077 C 0.03245 0.19514 0.31649 0.0
C1078 C 1.00291 0.15879 0.33703 0.0
C1079 C 0.02159 0.156 0.3597 0.0
C1080 C 0.04583 0.17285 0.3602 0.0
C1081 C 0.05121 0.192 0.33888 0.0
C1082 C 0.01851 0.12293 0.43197 0.0
C1083 C 0.01066 0.09521 0.42593 0.0
C1084 C 0.02148 0.1427 0.4106 0.0
C1085 C 0.01641 0.13542 0.38261 0.0
C1086 C 0.00769 0.10797 0.37667 0.0
C1087 C 0.005 0.08811 0.39799 0.0
H1088 H 0.80221 0.0525 0.33942 0.0
H1089 H 0.8311 0.97492 0.3037 0.0
H1090 H 0.84088 0.05153 0.37278 0.0
H1091 H 0.87009 0.97384 0.33724 0.0
H1092 H 0.94829 0.99408 0.39218 0.0
H1093 H 0.91389 0.99719 0.35462 0.0
H1094 H 0.85015 0.02173 0.41383 0.0
H1095 H 0.88453 0.01882 0.45147 0.0
C1096 C 0.81734 0.03559 0.33827 0.0
C1097 C 0.81363 0.01378 0.31895 0.0
C1098 C 0.83928 0.03484 0.35762 0.0
C1099 C 0.85823 0.01229 0.35814 0.0
C1100 C 0.85583 0.9915 0.33745 0.0
C1101 C 0.83367 0.9922 0.31806 0.0
C1102 C 0.92693 1.00015 0.39729 0.0
C1103 C 0.91928 0.00629 0.42499 0.0
C1104 C 0.90718 1.00179 0.37568 0.0
C1105 C 0.87931 0.00993 0.3811 0.0
C1106 C 0.87157 0.01581 0.40882 0.0
C1107 C 0.89124 0.0139 0.43049 0.0
H1108 H 0.96043 0.80146 0.33782 0.0
H1109 H 0.04096 0.82683 0.30499 0.0
H1110 H 0.96157 0.84018 0.37086 0.0
H1111 H 0.04214 0.86596 0.33817 0.0
H1112 H 0.02192 0.94505 0.39203 0.0
H1113 H 0.0191 0.91074 0.35444 0.0
H1114 H 0.99082 0.84841 0.41303 0.0
H1115 H 0.99358 0.88263 0.45067 0.0
C1116 C 0.97805 0.81584 0.33718 0.0
C1117 C 1.00062 0.81108 0.31879 0.0
C1118 C 0.97888 0.83783 0.35637 0.0
C1119 C 1.00223 0.85583 0.35764 0.0
C1120 C 0.02385 0.85244 0.33779 0.0
C1121 C 0.02309 0.8302 0.3186 0.0
C1122 C 0.0151 0.92402 0.39698 0.0
C1123 C 0.00789 0.91671 0.42452 0.0
C1124 C 0.01362 0.90432 0.37537 0.0
C1125 C 0.00451 0.87687 0.3806 0.0
C1126 C 0.99753 0.86949 0.40815 0.0
C1127 C 0.99934 0.88908 0.42982 0.0
H1128 H 0.2167 0.9566 0.3417 0.0
H1129 H 0.18703 0.03271 0.30363 0.0
H1130 H 0.17801 0.95827 0.37501 0.0
H1131 H 0.14802 0.03447 0.33713 0.0
H1132 H 0.06972 0.01501 0.3921 0.0
H1133 H 0.10447 0.01132 0.35489 0.0
H1134 H 0.16793 0.98887 0.41513 0.0
H1135 H 0.13322 0.99231 0.4524 0.0
C1136 C 0.20148 0.9734 0.3401 0.0
C1137 C 0.20498 0.9946 0.32011 0.0
C1138 C 0.17949 0.97453 0.35939 0.0
C1139 C 0.16026 0.99684 0.35919 0.0
C1140 C 0.1625 0.01701 0.33791 0.0
C1141 C 0.1847 0.01592 0.31857 0.0
C1142 C 0.09109 0.00928 0.39751 0.0
C1143 C 0.09856 1.00387 0.4254 0.0
C1144 C 0.11104 0.00731 0.3761 0.0
C1145 C 0.13895 0.99957 0.38192 0.0
C1146 C 0.1465 0.99444 0.40981 0.0
C1147 C 0.12662 0.99666 0.43127 0.0
H1148 H 0.99391 0.8314 0.7336 0.0
H1149 H 0.07061 0.80653 0.69238 0.0
H1150 H 0.98462 0.86512 0.6961 0.0
H1151 H 0.06151 0.83991 0.65522 0.0
H1152 H 0.02403 0.88148 0.57885 0.0
H1153 H 0.02899 0.84718 0.61616 0.0
H1154 H 0.00388 0.90939 0.67637 0.0
H1155 H 0.99867 0.94363 0.63917 0.0
C1156 C 0.0088 0.83321 0.71664 0.0
C1157 C 0.03302 0.81634 0.71596 0.0
C1158 C 0.00353 0.85253 0.69516 0.0
C1159 C 0.0222 0.8551 0.67244 0.0
C1160 C 0.04641 0.83823 0.67203 0.0
C1161 C 0.05176 0.81924 0.6935 0.0
C1162 C 0.0193 0.88783 0.59998 0.0
C1163 C 0.01112 0.91548 0.60587 0.0
C1164 C 0.02233 0.86818 0.62145 0.0
C1165 C 0.01702 0.87552 0.64938 0.0
C1166 C 0.00798 0.9029 0.65515 0.0
C1167 C 0.0052 0.92262 0.63374 0.0
H1168 H 0.21313 0.05509 0.69397 0.0
H1169 H 0.18756 0.97516 0.72688 0.0
H1170 H 0.17446 0.05366 0.66063 0.0
H1171 H 0.14853 0.97367 0.6934 0.0
H1172 H 0.06937 0.99289 0.63935 0.0
H1173 H 0.10369 0.99612 0.67699 0.0
H1174 H 0.16647 0.02456 0.61852 0.0
H1175 H 0.13218 0.02148 0.58081 0.0
C1176 C 0.19873 0.03752 0.69452 0.0
C1177 C 0.20341 0.01521 0.71301 0.0
C1178 C 0.17679 0.03654 0.67518 0.0
C1179 C 0.15878 0.01326 0.67388 0.0
C1180 C 0.16207 0.99188 0.69381 0.0
C1181 C 0.18425 0.99282 0.71316 0.0
C1182 C 0.09049 0.99985 0.63443 0.0
C1183 C 0.09791 0.00702 0.60692 0.0
C1184 C 0.1102 1.00156 0.65607 0.0
C1185 C 0.13776 0.01082 0.65088 0.0
C1186 C 0.14527 0.01775 0.62335 0.0
C1187 C 0.12566 0.01575 0.60164 0.0
H1188 H 0.041 0.18478 0.72549 0.0
H1189 H 0.96034 0.21014 0.69305 0.0
H1190 H 0.04173 0.1453 0.69271 0.0
H1191 H 0.96104 0.17108 0.66041 0.0
H1192 H 0.99247 0.1279 0.58078 0.0
H1193 H 0.99007 0.16241 0.61814 0.0
H1194 H 0.01819 0.10042 0.6771 0.0
H1195 H 0.02066 0.06578 0.63976 0.0
C1196 C 0.02303 0.18137 0.71204 0.0
C1197 C 1.00066 0.20059 0.71181 0.0
C1198 C 0.02352 0.15891 0.69309 0.0
C1199 C 1.00172 0.15541 0.67347 0.0
C1200 C 0.97848 0.17353 0.67473 0.0
C1201 C 0.97792 0.19572 0.69367 0.0
C1202 C 0.99824 0.12157 0.60165 0.0
C1203 C 0.00666 0.09394 0.60714 0.0
C1204 C 0.99664 0.14133 0.62316 0.0
C1205 C 0.00371 0.13414 0.65072 0.0
C1206 C 0.01265 0.10668 0.65615 0.0
C1207 C 0.01392 0.08679 0.63469 0.0
H1208 H 0.8166 0.03121 0.71745 0.0
H1209 H 0.83273 0.94246 0.71643 0.0
H1210 H 0.84947 0.0374 0.67829 0.0
H1211 H 0.86583 0.94868 0.67798 0.0
H1212 H 0.94728 0.97789 0.63404 0.0
H1213 H 0.91391 0.97415 0.67234 0.0
H1214 H 0.85233 0.01995 0.62474 0.0
H1215 H 0.88584 0.0234 0.58576 0.0
C1216 C 0.82745 0.01313 0.70914 0.0
C1217 C 0.82238 0.98636 0.72018 0.0
C1218 C 0.84601 0.01663 0.68657 0.0
C1219 C 0.86021 0.99351 0.67506 0.0
C1220 C 0.85535 0.9669 0.68647 0.0
C1221 C 0.83645 0.96335 0.70852 0.0
C1222 C 0.92667 0.98726 0.63162 0.0
C1223 C 0.91927 1.00098 0.60676 0.0
C1224 C 0.90751 0.98501 0.6536 0.0
C1225 C 0.88054 0.99682 0.65161 0.0
C1226 C 0.87308 0.01083 0.62692 0.0
C1227 C 0.89215 0.0126 0.60456 0.0
H1228 H 0.30667 0.06814 0.19093 0.0
H1229 H 0.30551 0.97941 0.20692 0.0
H1230 H 0.34474 0.06166 0.15729 0.0
H1231 H 0.34431 0.97295 0.17355 0.0
H1232 H 0.43756 0.987 0.13675 0.0
H1233 H 0.39845 0.99043 0.17017 0.0
H1234 H 0.34955 0.03579 0.10956 0.0
H1235 H 0.38802 0.03207 0.07622 0.0
C1236 C 0.31445 0.0472 0.18705 0.0
C1237 C 0.30289 0.02427 0.20126 0.0
C1238 C 0.33627 0.0435 0.16785 0.0
C1239 C 0.34755 0.01681 0.16283 0.0
C1240 C 0.3361 0.99377 0.17712 0.0
C1241 C 0.31374 0.99743 0.19598 0.0
C1242 C 0.41844 0.99767 0.1306 0.0
C1243 C 0.41597 0.00924 0.10379 0.0
C1244 C 0.39601 0.99943 0.14964 0.0
C1245 C 0.37094 0.01336 0.14243 0.0
C1246 C 0.36861 0.02501 0.11573 0.0
C1247 C 0.39068 0.02277 0.09661 0.0
H1248 H 0.97689 0.29434 0.19462 0.0
H1249 H 0.0564 0.32938 0.22016 0.0
H1250 H 0.97544 0.32705 0.15512 0.0
H1251 H 0.05511 0.36183 0.18105 0.0
H1252 H 0.02248 0.44061 0.13759 0.0
H1253 H 0.02529 0.40335 0.17204 0.0
H1254 H 0.99864 0.34328 0.11036 0.0
H1255 H 0.99575 0.38062 0.07571 0.0
C1256 C 0.99449 0.30833 0.1912 0.0
C1257 C 0.01684 0.30921 0.21033 0.0
C1258 C 0.99359 0.32723 0.16874 0.0
C1259 C 0.0149 0.34748 0.16523 0.0
C1260 C 0.03806 0.34697 0.18342 0.0
C1261 C 0.03901 0.32811 0.20562 0.0
C1262 C 0.01709 0.41953 0.13129 0.0
C1263 C 0.00895 0.41377 0.10374 0.0
C1264 C 0.01893 0.39806 0.15104 0.0
C1265 C 0.01244 0.3702 0.14395 0.0
C1266 C 0.00375 0.36446 0.11657 0.0
C1267 C 1.00222 0.38592 0.09667 0.0
H1268 H 0.71044 0.0293 0.2078 0.0
H1269 H 0.70906 0.94065 0.19122 0.0
H1270 H 0.6715 0.03598 0.17467 0.0
H1271 H 0.67086 0.94737 0.15779 0.0
H1272 H 0.6277 0.97797 0.07683 0.0
H1273 H 0.6661 0.97372 0.11018 0.0
H1274 H 0.61715 0.01839 0.17136 0.0
H1275 H 0.57809 0.0223 0.13793 0.0
C1276 C 0.70213 0.01135 0.19678 0.0
C1277 C 0.71297 0.98446 0.20183 0.0
C1278 C 0.67968 0.01513 0.17806 0.0
C1279 C 0.66813 0.99218 0.16366 0.0
C1280 C 0.67939 0.96546 0.16845 0.0
C1281 C 0.70129 0.96162 0.18753 0.0
C1282 C 0.62502 0.98698 0.09736 0.0
C1283 C 0.59975 1.00049 0.10468 0.0
C1284 C 0.64704 0.98445 0.11648 0.0
C1285 C 0.64469 0.99579 0.14334 0.0
C1286 C 0.61961 0.00963 0.15071 0.0
C1287 C 0.5972 0.01166 0.13167 0.0
H1288 H 0.06814 0.68199 0.21574 0.0
H1289 H 0.99192 0.72371 0.19024 0.0
H1290 H 0.05944 0.6449 0.18206 0.0
H1291 H 0.98305 0.68629 0.1562 0.0
H1292 H 0.99801 0.62942 0.07783 0.0
H1293 H 1.00291 0.66664 0.11222 0.0
H1294 H 0.02683 0.60577 0.17411 0.0
H1295 H 0.02215 0.56845 0.13968 0.0
C1296 C 0.04948 0.68324 0.20283 0.0
C1297 C 0.03076 0.70581 0.20566 0.0
C1298 C 0.04436 0.66181 0.18367 0.0
C1299 C 0.0204 0.66237 0.16652 0.0
C1300 C 1.00177 0.68522 0.16901 0.0
C1301 C 0.0068 0.70665 0.18851 0.0
C1302 C 0.00422 0.62385 0.09879 0.0
C1303 C 0.00989 0.59579 0.10582 0.0
C1304 C 0.00682 0.64527 0.1186 0.0
C1305 C 0.01543 0.63932 0.14595 0.0
C1306 C 0.0205 0.61121 0.15315 0.0
C1307 C 0.01764 0.58973 0.13342 0.0
H1308 H 0.28885 0.02184 0.84244 0.0
H1309 H 0.33086 0.94614 0.81673 0.0
H1310 H 0.32635 0.0305 0.87662 0.0
H1311 H 0.36806 0.95464 0.85059 0.0
H1312 H 0.4449 0.99222 0.89273 0.0
H1313 H 0.40733 0.98745 0.85839 0.0
H1314 H 0.34593 0.01035 0.9206 0.0
H1315 H 0.38341 0.01535 0.95493 0.0
C1316 C 0.30599 0.00702 0.84417 0.0
C1317 C 0.30692 0.98328 0.82692 0.0
C1318 C 0.32745 0.01193 0.86375 0.0
C1319 C 0.3504 0.99338 0.8662 0.0
C1320 C 0.35103 0.96962 0.849 0.0
C1321 C 0.32956 0.96461 0.82974 0.0
C1322 C 0.42345 0.99648 0.89909 0.0
C1323 C 0.4173 1.00398 0.92675 0.0
C1324 C 0.40184 0.99357 0.87941 0.0
C1325 C 0.37353 0.99833 0.88675 0.0
C1326 C 0.36747 0.00667 0.91416 0.0
C1327 C 0.38902 0.00933 0.93392 0.0
H1328 H 0.03048 0.3413 0.79418 0.0
H1329 H 0.02417 0.27849 0.85801 0.0
H1330 H 0.02091 0.37771 0.82813 0.0
H1331 H 0.01684 0.31503 0.89298 0.0
H1332 H 0.98761 0.38545 0.94944 0.0
H1333 H 0.99048 0.34875 0.91441 0.0
H1334 H 0.0404 0.40351 0.86236 0.0
H1335 H 0.03568 0.44055 0.89663 0.0
C1336 C 0.02703 0.33537 0.81568 0.0
C1337 C 0.02792 0.30714 0.82349 0.0
C1338 C 0.02195 0.35632 0.83537 0.0
C1339 C 0.01859 0.3498 0.86379 0.0
C1340 C 0.01892 0.32122 0.87143 0.0
C1341 C 0.02322 0.30012 0.85143 0.0
C1342 C 0.999 0.38965 0.93036 0.0
C1343 C 0.01129 0.41602 0.92579 0.0
C1344 C 1.00088 0.36844 0.91024 0.0
C1345 C 0.0157 0.37273 0.88515 0.0
C1346 C 0.02812 0.39924 0.88083 0.0
C1347 C 0.02562 0.42062 0.90066 0.0
H1348 H 0.72153 0.97874 0.83824 0.0
H1349 H 0.68244 0.05421 0.80806 0.0
H1350 H 0.68875 0.97813 0.8778 0.0
H1351 H 0.64992 0.05375 0.84732 0.0
H1352 H 0.57246 0.02067 0.89351 0.0
H1353 H 0.60962 0.02368 0.85871 0.0
H1354 H 0.67144 1.00201 0.92086 0.0
H1355 H 0.63422 0.99876 0.95582 0.0
C1356 C 0.70655 0.99565 0.84055 0.0
C1357 C 0.70447 0.01644 0.82 0.0
C1358 C 0.68763 0.99523 0.86309 0.0
C1359 C 0.66625 0.01556 0.86541 0.0
C1360 C 0.66561 0.03738 0.84584 0.0
C1361 C 0.68445 0.03782 0.8235 0.0
C1362 C 0.59392 0.01647 0.89986 0.0
C1363 C 0.60018 0.00953 0.92761 0.0
C1364 C 0.61533 0.01843 0.87989 0.0
C1365 C 0.64364 0.01333 0.88699 0.0
C1366 C 0.64991 0.006 0.91463 0.0
C1367 C 0.6285 1.00428 0.93471 0.0
H1368 H 0.05366 0.67986 0.80875 0.0
H1369 H 0.97768 0.71868 0.83892 0.0
H1370 H 0.05299 0.64734 0.84781 0.0
H1371 H 0.97678 0.68585 0.8783 0.0
H1372 H 0.99815 0.63122 0.9563 0.0
H1373 H 1.00097 0.66837 0.92149 0.0
H1374 H 0.02249 0.60731 0.85882 0.0
H1375 H 0.01985 0.57024 0.89343 0.0
C1376 C 0.03719 0.68186 0.82423 0.0
C1377 C 0.0158 0.70189 0.82088 0.0
C1378 C 0.03658 0.66298 0.84642 0.0
C1379 C 0.01452 0.66354 0.86593 0.0
C1380 C 0.99409 0.68482 0.86367 0.0
C1381 C 0.99467 0.70377 0.84126 0.0
C1382 C 0.00348 0.62565 0.93509 0.0
C1383 C 0.00885 0.59757 0.92781 0.0
C1384 C 0.00497 0.64702 0.9151 0.0
C1385 C 0.01221 0.64095 0.88737 0.0
C1386 C 0.01731 0.61287 0.88007 0.0
C1387 C 0.01557 0.5915 0.89994 0.0
H1388 H 0.18411 0.2913 0.99038 0.0
H1389 H 0.22199 0.33602 0.05875 0.0
H1390 H 0.14468 0.32441 0.99042 0.0
H1391 H 0.18271 0.36883 0.05912 0.0
H1392 H 0.13342 0.44318 0.02453 0.0
H1393 H 0.16859 0.40631 0.0278 0.0
H1394 H 0.10398 0.34398 0.01553 0.0
H1395 H 0.06875 0.38081 0.01183 0.0
C1396 C 0.1835 0.30765 1.00599 0.0
C1397 C 0.20611 0.31118 0.02448 0.0
C1398 C 0.16104 0.32673 1.00594 0.0
C1399 C 0.16083 0.34967 0.0244 0.0
C1400 C 0.18253 0.35188 0.04415 0.0
C1401 C 0.20487 0.3329 0.04417 0.0
C1402 C 0.12663 0.42166 0.02243 0.0
C1403 C 0.09813 0.41513 0.01792 0.0
C1404 C 0.14681 0.40044 0.02457 0.0
C1405 C 0.1391 0.3721 0.02217 0.0
C1406 C 0.11069 0.36555 0.01734 0.0
C1407 C 0.09046 0.38676 0.01533 0.0
H1408 H 0.18867 0.7164 0.98556 0.0
H1409 H 0.21439 0.68141 0.06426 0.0
H1410 H 0.14921 0.68313 0.9837 0.0
H1411 H 0.17536 0.64841 0.06248 0.0
H1412 H 0.13196 0.56968 0.02988 0.0
H1413 H 0.16689 0.60695 0.03229 0.0
H1414 H 0.10414 0.6671 1.0072 0.0
H1415 H 0.06907 0.62984 1.00461 0.0
C1416 C 0.1854 0.70216 1.00278 0.0
C1417 C 0.20465 0.70132 0.02494 0.0
C1418 C 0.16297 0.68302 1.00167 0.0
C1419 C 0.15957 0.66272 0.02266 0.0
C1420 C 0.17779 0.66328 0.04566 0.0
C1421 C 0.19998 0.68235 0.0468 0.0
C1422 C 0.12555 0.59079 0.02475 0.0
C1423 C 0.0976 0.59667 0.0172 0.0
C1424 C 0.14555 0.61222 0.02634 0.0
C1425 C 0.13821 0.64005 0.02019 0.0
C1426 C 0.11046 0.64589 0.01201 0.0
C1427 C 0.09035 0.6245 0.0107 0.0
H1428 H 0.30667 0.19861 0.04145 0.0
H1429 H 0.30287 0.17664 0.95441 0.0
H1430 H 0.34652 0.16639 0.04766 0.0
H1431 H 0.34217 0.14435 0.96064 0.0
H1432 H 0.38805 0.06582 0.99117 0.0
H1433 H 0.34934 0.0988 0.9875 0.0
H1434 H 0.39909 0.16165 0.02917 0.0
H1435 H 0.43845 0.1284 0.03278 0.0
C1436 C 0.31412 0.18667 0.02376 0.0
C1437 C 0.3015 0.18985 0.99748 0.0
C1438 C 0.33708 0.16849 0.02725 0.0
C1439 C 0.34744 0.15285 1.00463 0.0
C1440 C 0.33454 0.15594 0.9785 0.0
C1441 C 0.31203 0.17438 0.97494 0.0
C1442 C 0.39088 0.08662 0.99968 0.0
C1443 C 0.41644 0.09444 0.0123 0.0
C1444 C 0.36866 0.10556 0.99744 0.0
C1445 C 0.37115 0.13279 0.00804 0.0
C1446 C 0.39654 0.1407 0.02097 0.0
C1447 C 0.41911 0.12177 0.02284 0.0
H1448 H 0.81731 0.30294 0.03906 0.0
H1449 H 0.8351 0.30306 0.95099 0.0
H1450 H 0.84945 0.34278 0.04537 0.0
H1451 H 0.86747 0.34229 0.95734 0.0
H1452 H 0.94803 0.38691 0.98792 0.0
H1453 H 0.9149 0.34835 0.98361 0.0
H1454 H 0.85211 0.39624 0.02765 0.0
H1455 H 0.88542 0.43549 0.03171 0.0
C1456 C 0.82834 0.31124 0.02115 0.0
C1457 C 0.82401 0.29975 0.99454 0.0
C1458 C 0.84647 0.33418 0.02472 0.0
C1459 C 0.86092 0.34562 1.00184 0.0
C1460 C 0.85674 0.33383 0.97537 0.0
C1461 C 0.83828 0.31136 0.97174 0.0
C1462 C 0.9272 0.38934 0.99676 0.0
C1463 C 0.91938 0.41433 0.01018 0.0
C1464 C 0.90819 0.36723 0.99418 0.0
C1465 C 0.88097 0.36926 1.00533 0.0
C1466 C 0.87307 0.39409 0.01902 0.0
C1467 C 0.89202 0.41658 0.02115 0.0
H1468 H 0.68141 0.7958 0.05683 0.0
H1469 H 0.72266 0.82966 0.98435 0.0
H1470 H 0.64825 0.83466 0.05678 0.0
H1471 H 0.68914 0.86883 0.98405 0.0
H1472 H 0.63361 0.94576 1.00731 0.0
H1473 H 0.67087 0.91074 0.00947 0.0
H1474 H 0.60888 0.84684 0.02598 0.0
H1475 H 0.5716 0.88174 0.02412 0.0
C1476 C 0.68369 0.81197 0.0412 0.0
C1477 C 0.70455 0.80974 0.02057 0.0
C1478 C 0.6645 0.83406 0.04097 0.0
C1479 C 0.66562 0.85454 0.02006 0.0
C1480 C 0.68768 0.85336 1.00044 0.0
C1481 C 0.70698 0.83108 1.00067 0.0
C1482 C 0.62783 0.92424 0.01142 0.0
C1483 C 0.59945 0.91668 0.01567 0.0
C1484 C 0.64927 0.90415 0.0125 0.0
C1485 C 0.64294 0.87603 0.01813 0.0
C1486 C 0.61457 0.86842 0.02206 0.0
C1487 C 0.59312 0.88843 0.02078 0.0
H1488 H 0.81783 0.709 0.99257 0.0
H1489 H 0.83434 0.7076 0.08086 0.0
H1490 H 0.84978 0.66902 0.98617 0.0
H1491 H 0.86649 0.66824 0.07444 0.0
H1492 H 0.94723 0.62359 0.04465 0.0
H1493 H 0.9142 0.6622 0.04898 0.0
H1494 H 0.85205 0.61531 1.00303 0.0
H1495 H 0.88529 0.57599 0.9989 0.0
C1496 C 0.82854 0.70039 0.01052 0.0
C1497 C 0.8239 0.71158 0.03721 0.0
C1498 C 0.84655 0.67736 1.00689 0.0
C1499 C 0.8606 0.66552 0.02982 0.0
C1500 C 0.85609 0.677 0.05638 0.0
C1501 C 0.83776 0.69956 0.06004 0.0
C1502 C 0.92655 0.62138 0.03538 0.0
C1503 C 0.91891 0.59666 0.02138 0.0
C1504 C 0.9076 0.64353 0.03799 0.0
C1505 C 0.88059 0.64182 0.0263 0.0
C1506 C 0.87285 0.61724 0.01207 0.0
C1507 C 0.89174 0.5947 0.0099 0.0
H1508 H 0.30064 0.83861 0.07722 0.0
H1509 H 0.30683 0.81237 0.99148 0.0
H1510 H 0.34022 0.87047 0.07049 0.0
H1511 H 0.34695 0.84421 0.98478 0.0
H1512 H 0.4385 0.88319 1.00047 0.0
H1513 H 0.39901 0.85008 1.0043 0.0
H1514 H 0.34805 0.91458 0.0418 0.0
H1515 H 0.38685 0.94738 0.03796 0.0
C1516 C 0.31039 0.83984 0.05686 0.0
C1517 C 0.30044 0.82331 0.03482 0.0
C1518 C 0.33307 0.85803 0.05302 0.0
C1519 C 0.34669 0.85984 0.02712 0.0
C1520 C 0.33693 0.84312 1.00501 0.0
C1521 C 0.31382 0.82515 0.00876 0.0
C1522 C 0.41886 0.89023 0.00952 0.0
C1523 C 0.41591 0.91797 0.01887 0.0
C1524 C 0.39622 0.87136 0.01151 0.0
C1525 C 0.37047 0.87977 0.02339 0.0
C1526 C 0.36766 0.90743 0.03271 0.0
C1527 C 0.38995 0.92627 0.03036 0.0
H1528 H 0.67954 0.21725 0.97646 0.0
H1529 H 0.72277 0.18293 0.04755 0.0
H1530 H 0.64673 0.1781 0.97686 0.0
H1531 H 0.68957 0.14346 0.0482 0.0
H1532 H 0.634 0.06625 0.02485 0.0
H1533 H 0.67102 0.10162 0.02261 0.0
H1534 H 0.60827 0.1653 0.00846 0.0
H1535 H 0.57131 0.13013 0.01038 0.0
C1536 C 0.68227 0.20097 0.99191 0.0
C1537 C 0.70358 0.20316 0.01207 0.0
C1538 C 0.66331 0.17869 0.99232 0.0
C1539 C 0.66511 0.15796 0.01293 0.0
C1540 C 0.68759 0.15912 0.03206 0.0
C1541 C 0.70668 0.18159 0.03164 0.0
C1542 C 0.62803 0.0878 0.02127 0.0
C1543 C 0.59954 0.09522 0.01766 0.0
C1544 C 0.64931 0.10808 0.02013 0.0
C1545 C 0.64267 0.13625 0.01509 0.0
C1546 C 0.61419 0.14371 0.01188 0.0
C1547 C 0.59292 0.12352 0.0132 0.0
H1548 H 0.57058 0.67644 0.81131 0.0
H1549 H 0.4833 0.70076 0.81632 0.0
H1550 H 0.56385 0.64403 0.84997 0.0
H1551 H 0.47659 0.66841 0.85565 0.0
H1552 H 0.49249 0.62945 0.94657 0.0
H1553 H 0.49594 0.66268 0.90759 0.0
H1554 H 0.53571 0.59911 0.85744 0.0
H1555 H 0.53213 0.56615 0.89574 0.0
C1556 C 0.54986 0.67466 0.82058 0.0
C1557 C 0.52741 0.69085 0.81053 0.0
C1558 C 0.54601 0.65613 0.84277 0.0
C1559 C 0.51969 0.65363 0.85592 0.0
C1560 C 0.49715 0.66998 0.84603 0.0
C1561 C 0.5009 0.68825 0.82335 0.0
C1562 C 0.50195 0.62263 0.92721 0.0
C1563 C 0.51199 0.59507 0.92437 0.0
C1564 C 0.50371 0.64157 0.90484 0.0
C1565 C 0.51609 0.6335 0.87941 0.0
C1566 C 0.52617 0.60604 0.87674 0.0
C1567 C 0.52399 0.58709 0.89876 0.0
H1568 H 0.29897 0.46129 0.84282 0.0
H1569 H 0.33157 0.53528 0.80306 0.0
H1570 H 0.33771 0.46219 0.87612 0.0
H1571 H 0.37055 0.53648 0.83667 0.0
H1572 H 0.44801 0.51564 0.89198 0.0
H1573 H 0.41313 0.51252 0.85491 0.0
H1574 H 0.3491 0.49272 0.91556 0.0
H1575 H 0.38397 0.49552 0.95269 0.0
C1576 C 0.31493 0.47736 0.84083 0.0
C1577 C 0.31241 0.49811 0.82029 0.0
C1578 C 0.33689 0.47813 0.86013 0.0
C1579 C 0.35695 0.49973 0.85947 0.0
C1580 C 0.35547 0.51953 0.83777 0.0
C1581 C 0.33332 0.51877 0.81839 0.0
C1582 C 0.4265 0.51062 0.89752 0.0
C1583 C 0.41892 0.50574 0.92549 0.0
C1584 C 0.40646 0.50898 0.87618 0.0
C1585 C 0.37834 0.50215 0.88215 0.0
C1586 C 0.37068 0.49757 0.91012 0.0
C1587 C 0.39066 0.49942 0.9315 0.0
H1588 H 0.55426 0.29898 0.84049 0.0
H1589 H 0.47624 0.32765 0.80477 0.0
H1590 H 0.55381 0.33798 0.87321 0.0
H1591 H 0.4756 0.367 0.83777 0.0
H1592 H 0.49731 0.44567 0.89153 0.0
H1593 H 0.49955 0.4108 0.85442 0.0
H1594 H 0.52447 0.34828 0.91425 0.0
H1595 H 0.5224 0.38304 0.95135 0.0
C1596 C 0.53735 0.31413 0.83921 0.0
C1597 C 0.51534 0.31033 0.82001 0.0
C1598 C 0.53689 0.33627 0.85821 0.0
C1599 C 0.51438 0.35534 0.85857 0.0
C1600 C 0.49327 0.3527 0.83809 0.0
C1601 C 0.49369 0.33032 0.81903 0.0
C1602 C 0.5033 0.42449 0.89685 0.0
C1603 C 0.50979 0.4173 0.92459 0.0
C1604 C 0.50443 0.40446 0.87551 0.0
C1605 C 0.51242 0.37677 0.88122 0.0
C1606 C 0.51867 0.36953 0.90897 0.0
C1607 C 0.51726 0.38945 0.93035 0.0
H1608 H 0.68796 0.53647 0.80438 0.0
H1609 H 0.71467 0.45745 0.83856 0.0
H1610 H 0.64877 0.5378 0.83769 0.0
H1611 H 0.67583 0.45874 0.87172 0.0
H1612 H 0.63263 0.49123 0.9508 0.0
H1613 H 0.66713 0.48824 0.91329 0.0
H1614 H 0.60421 0.51486 0.8542 0.0
H1615 H 0.56964 0.51804 0.89168 0.0
C1616 C 0.68492 0.51899 0.81838 0.0
C1617 C 0.70445 0.49694 0.81895 0.0
C1618 C 0.66262 0.51982 0.83762 0.0
C1619 C 0.65956 0.49867 0.85781 0.0
C1620 C 0.67797 0.4757 0.85695 0.0
C1621 C 0.70005 0.47482 0.83775 0.0
C1622 C 0.62611 0.49657 0.92987 0.0
C1623 C 0.59826 0.50477 0.92437 0.0
C1624 C 0.64586 0.49462 0.90828 0.0
C1625 C 0.63837 0.50106 0.88065 0.0
C1626 C 0.61069 0.5098 0.87521 0.0
C1627 C 0.59084 0.51147 0.89675 0.0
H1628 H 0.53106 0.28498 0.17992 0.0
H1629 H 0.52727 0.34957 0.24228 0.0
H1630 H 0.52087 0.31896 0.14379 0.0
H1631 H 0.51925 0.38455 0.20593 0.0
H1632 H 0.48898 0.44104 0.13601 0.0
H1633 H 0.49215 0.40607 0.17273 0.0
H1634 H 0.5407 0.35299 0.11775 0.0
H1635 H 0.53574 0.38718 0.08078 0.0
C1636 C 0.528 0.30665 0.18581 0.0
C1637 C 0.52983 0.31468 0.21383 0.0
C1638 C 0.52256 0.32635 0.16501 0.0
C1639 C 0.51976 0.35497 0.17147 0.0
C1640 C 0.52092 0.36283 0.19985 0.0
C1641 C 0.52561 0.34283 0.22082 0.0
C1642 C 0.50012 0.42173 0.13179 0.0
C1643 C 0.51196 0.41684 0.10538 0.0
C1644 C 0.50217 0.40166 0.15299 0.0
C1645 C 0.51667 0.37631 0.14861 0.0
C1646 C 0.52864 0.37167 0.12208 0.0
C1647 C 0.52601 0.39145 0.10073 0.0
H1648 H 0.68354 0.48117 0.22986 0.0
H1649 H 0.72223 0.55005 0.18643 0.0
H1650 H 0.6446 0.48146 0.19634 0.0
H1651 H 0.68343 0.55068 0.1532 0.0
H1652 H 0.63464 0.51662 0.0782 0.0
H1653 H 0.66948 0.51977 0.11532 0.0
H1654 H 0.60429 0.50669 0.17659 0.0
H1655 H 0.56947 0.50312 0.1396 0.0
C1656 C 0.68318 0.49698 0.21373 0.0
C1657 C 0.70586 0.51557 0.21073 0.0
C1658 C 0.66101 0.49706 0.19439 0.0
C1659 C 0.66117 0.51573 0.17167 0.0
C1660 C 0.68295 0.53556 0.16996 0.0
C1661 C 0.70499 0.53546 0.18922 0.0
C1662 C 0.62767 0.51434 0.09954 0.0
C1663 C 0.59913 0.50962 0.10572 0.0
C1664 C 0.64765 0.51639 0.12091 0.0
C1665 C 0.63969 0.51369 0.14904 0.0
C1666 C 0.61122 0.50871 0.15521 0.0
C1667 C 0.59122 0.50679 0.13388 0.0
H1668 H 0.4617 0.71123 0.19278 0.0
H1669 H 0.54169 0.68497 0.2261 0.0
H1670 H 0.46265 0.67258 0.15967 0.0
H1671 H 0.54269 0.64591 0.19283 0.0
H1672 H 0.52204 0.56701 0.139 0.0
H1673 H 0.51945 0.60146 0.17648 0.0
H1674 H 0.49177 0.66381 0.11767 0.0
H1675 H 0.49426 0.62944 0.08016 0.0
C1676 C 0.47918 0.6967 0.19347 0.0
C1677 C 0.50164 0.70118 0.21204 0.0
C1678 C 0.4799 0.67475 0.17425 0.0
C1679 C 0.50304 0.65649 0.17311 0.0
C1680 C 0.52456 0.65963 0.19309 0.0
C1681 C 0.52391 0.68184 0.21233 0.0
C1682 C 0.51539 0.58807 0.13398 0.0
C1683 C 0.50826 0.59534 0.10642 0.0
C1684 C 0.51405 0.60785 0.15553 0.0
C1685 C 0.50518 0.63536 0.15021 0.0
C1686 C 0.49828 0.64269 0.12263 0.0
C1687 C 0.49994 0.62302 0.10103 0.0
H1688 H 0.34089 0.44533 0.22236 0.0
H1689 H 0.31466 0.53139 0.21556 0.0
H1690 H 0.37301 0.45166 0.1832 0.0
H1691 H 0.34674 0.5377 0.17578 0.0
H1692 H 0.38564 0.52099 0.08509 0.0
H1693 H 0.35254 0.51769 0.12441 0.0
H1694 H 0.41754 0.48002 0.17458 0.0
H1695 H 0.45035 0.48342 0.13594 0.0
C1696 C 0.34219 0.4657 0.21258 0.0
C1697 C 0.32555 0.48793 0.22227 0.0
C1698 C 0.36055 0.46932 0.19012 0.0
C1699 C 0.36244 0.49518 0.17636 0.0
C1700 C 0.34564 0.51749 0.18588 0.0
C1701 C 0.32752 0.51397 0.20881 0.0
C1702 C 0.39279 0.51199 0.10452 0.0
C1703 C 0.42069 0.50249 0.10727 0.0
C1704 C 0.37392 0.51032 0.12708 0.0
C1705 C 0.38243 0.49858 0.15261 0.0
C1706 C 0.41025 0.48903 0.1552 0.0
C1707 C 0.42912 0.49111 0.13298 0.0
H1708 H 0.78861 0.49069 0.68945 0.0
H1709 H 0.83047 0.56676 0.71439 0.0
H1710 H 0.82643 0.48145 0.65581 0.0
H1711 H 0.86802 0.55767 0.68101 0.0
H1712 H 0.94499 0.51958 0.6395 0.0
H1713 H 0.90735 0.52474 0.67377 0.0
H1714 H 0.84607 0.50105 0.61176 0.0
H1715 H 0.88357 0.49564 0.57755 0.0
C1716 C 0.80579 0.50547 0.68766 0.0
C1717 C 0.80658 0.52948 0.70451 0.0
C1718 C 0.82744 0.50021 0.66839 0.0
C1719 C 0.85043 0.51871 0.66586 0.0
C1720 C 0.85096 0.54274 0.6827 0.0
C1721 C 0.82929 0.54808 0.70166 0.0
C1722 C 0.92355 0.51518 0.6332 0.0
C1723 C 0.91742 0.50734 0.60564 0.0
C1724 C 0.90191 0.51833 0.65282 0.0
C1725 C 0.87362 0.51348 0.64549 0.0
C1726 C 0.86759 0.50478 0.61819 0.0
C1727 C 0.88917 0.50188 0.59851 0.0
H1728 H 0.47609 0.796 0.69668 0.0
H1729 H 0.55551 0.83178 0.72165 0.0
H1730 H 0.47392 0.82895 0.6574 0.0
H1731 H 0.55341 0.86448 0.68285 0.0
H1732 H 0.52067 0.94268 0.63893 0.0
H1733 H 0.52308 0.90579 0.67385 0.0
H1734 H 0.49722 0.84502 0.61252 0.0
H1735 H 0.49471 0.88194 0.57744 0.0
C1736 C 0.49343 0.81032 0.69329 0.0
C1737 C 0.5159 0.81139 0.71228 0.0
C1738 C 0.49213 0.82932 0.67095 0.0
C1739 C 0.51321 0.8498 0.66736 0.0
C1740 C 0.53649 0.8495 0.68537 0.0
C1741 C 0.53784 0.83055 0.70744 0.0
C1742 C 0.51535 0.92153 0.63283 0.0
C1743 C 0.50762 0.91541 0.60524 0.0
C1744 C 0.51694 0.90028 0.65284 0.0
C1745 C 0.51059 0.87234 0.64595 0.0
C1746 C 0.50219 0.86628 0.61856 0.0
C1747 C 0.50091 0.8875 0.59842 0.0
H1748 H 0.1858 0.44178 0.7133 0.0
H1749 H 0.22835 0.51774 0.68928 0.0
H1750 H 0.14907 0.45083 0.67911 0.0
H1751 H 0.1913 0.52696 0.65477 0.0
H1752 H 0.13412 0.51357 0.57606 0.0
H1753 H 0.17165 0.50757 0.61022 0.0
H1754 H 0.11015 0.48416 0.67211 0.0
H1755 H 0.07259 0.48991 0.63803 0.0
C1756 C 0.18733 0.46042 0.70058 0.0
C1757 C 0.20995 0.47903 0.70399 0.0
C1758 C 0.16613 0.46573 0.68113 0.0
C1759 C 0.16703 0.48976 0.66435 0.0
C1760 C 0.19001 0.5082 0.66732 0.0
C1761 C 0.21121 0.50297 0.68708 0.0
C1762 C 0.12851 0.50724 0.59698 0.0
C1763 C 0.10019 0.50207 0.60414 0.0
C1764 C 0.15009 0.50399 0.61663 0.0
C1765 C 0.14399 0.49522 0.64388 0.0
C1766 C 0.11565 0.49059 0.6512 0.0
C1767 C 0.09405 0.49407 0.63165 0.0
H1768 H 0.48308 0.20612 0.7087 0.0
H1769 H 0.57183 0.20607 0.68972 0.0
H1770 H 0.47582 0.16805 0.67487 0.0
H1771 H 0.56453 0.1688 0.65564 0.0
H1772 H 0.53319 0.12594 0.57521 0.0
H1773 H 0.53722 0.16404 0.6087 0.0
H1774 H 0.49377 0.11446 0.67013 0.0
H1775 H 0.49007 0.07574 0.63657 0.0
C1776 C 0.50091 0.19832 0.69699 0.0
C1777 C 0.52801 0.20926 0.7016 0.0
C1778 C 0.49681 0.17637 0.67786 0.0
C1779 C 0.51962 0.16543 0.66259 0.0
C1780 C 0.54652 0.17686 0.66692 0.0
C1781 C 0.55069 0.19824 0.68639 0.0
C1782 C 0.52434 0.12307 0.5958 0.0
C1783 C 0.5113 0.09768 0.60316 0.0
C1784 C 0.52676 0.14493 0.61502 0.0
C1785 C 0.51575 0.14232 0.64203 0.0
C1786 C 0.50226 0.11716 0.64938 0.0
C1787 C 0.50034 0.09493 0.63025 0.0
H1788 H 0.80146 0.44682 0.34664 0.0
H1789 H 0.80722 0.53362 0.32296 0.0
H1790 H 0.84016 0.45322 0.37948 0.0
H1791 H 0.84652 0.53999 0.35572 0.0
H1792 H 0.93791 0.52379 0.39467 0.0
H1793 H 0.89862 0.5206 0.36149 0.0
H1794 H 0.84757 0.48096 0.42439 0.0
H1795 H 0.88623 0.48425 0.45736 0.0
C1796 C 0.8109 0.46735 0.34866 0.0
C1797 C 0.8011 0.48976 0.33251 0.0
C1798 C 0.83307 0.47101 0.36743 0.0
C1799 C 0.84641 0.4971 0.37018 0.0
C1800 C 0.83674 0.51961 0.35392 0.0
C1801 C 0.81409 0.51604 0.33541 0.0
C1802 C 0.91829 0.51442 0.40137 0.0
C1803 C 0.9153 0.5043 0.42871 0.0
C1804 C 0.89575 0.5128 0.38245 0.0
C1805 C 0.87001 0.50051 0.39035 0.0
C1806 C 0.86714 0.4904 0.41763 0.0
C1807 C 0.88935 0.49242 0.43656 0.0
H1808 H 0.57 0.82831 0.31691 0.0
H1809 H 0.49362 0.7865 0.34199 0.0
H1810 H 0.56152 0.86491 0.35116 0.0
H1811 H 0.48499 0.82343 0.37663 0.0
H1812 H 0.49996 0.88032 0.4553 0.0
H1813 H 0.50514 0.84299 0.42097 0.0
H1814 H 0.52852 0.90388 0.35888 0.0
H1815 H 0.52354 0.94123 0.39312 0.0
C1816 C 0.55137 0.82692 0.32987 0.0
C1817 C 0.5325 0.8045 0.32672 0.0
C1818 C 0.54639 0.84806 0.34938 0.0
C1819 C 0.52243 0.84736 0.36654 0.0
C1820 C 0.50371 0.8246 0.36381 0.0
C1821 C 0.5086 0.80346 0.34395 0.0
C1822 C 0.50611 0.88585 0.43431 0.0
C1823 C 0.51148 0.91394 0.42715 0.0
C1824 C 0.50889 0.86437 0.41455 0.0
C1825 C 0.51741 0.87033 0.38716 0.0
C1826 C 0.52226 0.89845 0.37987 0.0
C1827 C 0.51923 0.91994 0.39952 0.0
H1828 H 0.21932 0.53848 0.33482 0.0
H1829 H 0.18178 0.4606 0.30884 0.0
H1830 H 0.18615 0.5408 0.37413 0.0
H1831 H 0.14886 0.46288 0.34763 0.0
H1832 H 0.07091 0.49599 0.39232 0.0
H1833 H 0.10789 0.49364 0.3572 0.0
H1834 H 0.16968 0.51725 0.41871 0.0
H1835 H 0.13268 0.51972 0.454 0.0
C1836 C 0.20453 0.52153 0.33794 0.0
C1837 C 0.20302 0.49947 0.31865 0.0
C1838 C 0.18541 0.52291 0.36031 0.0
C1839 C 0.16441 0.50232 0.36365 0.0
C1840 C 0.16424 0.47944 0.34531 0.0
C1841 C 0.1833 0.478 0.32321 0.0
C1842 C 0.09231 0.50084 0.39843 0.0
C1843 C 0.09869 0.50792 0.42613 0.0
C1844 C 0.1136 0.49928 0.37829 0.0
C1845 C 0.14184 0.505 0.38518 0.0
C1846 C 0.14818 0.51278 0.41268 0.0
C1847 C 0.12691 0.51403 0.43294 0.0
H1848 H 0.48002 0.21828 0.33892 0.0
H1849 H 0.55426 0.1783 0.30616 0.0
H1850 H 0.4794 0.1849 0.37777 0.0
H1851 H 0.55396 0.14521 0.34478 0.0
H1852 H 0.52112 0.06847 0.39155 0.0
H1853 H 0.52384 0.10556 0.35685 0.0
H1854 H 0.5036 0.16682 0.41977 0.0
H1855 H 0.50056 0.12978 0.45448 0.0
C1856 C 0.49674 0.20299 0.3406 0.0
C1857 C 0.5173 0.20098 0.31968 0.0
C1858 C 0.49631 0.1837 0.36269 0.0
C1859 C 0.51634 0.16196 0.36414 0.0
C1860 C 0.53785 0.16121 0.34404 0.0
C1861 C 0.53829 0.18042 0.32213 0.0
C1862 C 0.51715 0.08979 0.39805 0.0
C1863 C 0.5107 0.09596 0.42595 0.0
C1864 C 0.51894 0.11116 0.37815 0.0
C1865 C 0.51418 0.13931 0.38551 0.0
C1866 C 0.50729 0.14543 0.4133 0.0
C1867 C 0.5057 0.1241 0.43326 0.0
H1868 H 0.71928 0.83341 0.47388 0.0
H1869 H 0.68468 0.79149 0.54555 0.0
H1870 H 0.68021 0.86645 0.47427 0.0
H1871 H 0.64536 0.82491 0.54628 0.0
H1872 H 0.56827 0.88059 0.52379 0.0
H1873 H 0.60339 0.8435 0.52113 0.0
H1874 H 0.66798 0.90507 0.50559 0.0
H1875 H 0.63298 0.94217 0.50789 0.0
C1876 C 0.70288 0.83098 0.48938 0.0
C1877 C 0.70491 0.80996 0.50968 0.0
C1878 C 0.6807 0.85008 0.48983 0.0
C1879 C 0.65998 0.84871 0.51066 0.0
C1880 C 0.661 0.82653 0.52995 0.0
C1881 C 0.68335 0.80731 0.52949 0.0
C1882 C 0.58996 0.8863 0.5198 0.0
C1883 C 0.59769 0.9145 0.51592 0.0
C1884 C 0.61011 0.86497 0.51841 0.0
C1885 C 0.63844 0.87125 0.51289 0.0
C1886 C 0.64623 0.89944 0.50938 0.0
C1887 C 0.62616 0.92078 0.51093 0.0
H1888 H 0.68516 0.21912 0.487 0.0
H1889 H 0.71911 0.1785 0.55965 0.0
H1890 H 0.64605 0.18548 0.48633 0.0
H1891 H 0.68021 0.1452 0.55932 0.0
H1892 H 0.63337 0.0687 0.52605 0.0
H1893 H 0.6683 0.10595 0.52865 0.0
H1894 H 0.60395 0.16715 0.51105 0.0
H1895 H 0.56899 0.12998 0.50809 0.0
C1896 C 0.6837 0.20358 0.50332 0.0
C1897 C 0.70501 0.20139 0.52341 0.0
C1898 C 0.66147 0.1842 0.50288 0.0
C1899 C 0.66033 0.16229 0.52247 0.0
C1900 C 0.68079 0.16136 0.54356 0.0
C1901 C 0.70285 0.18064 0.54399 0.0
C1902 C 0.62661 0.09005 0.52263 0.0
C1903 C 0.59826 0.09619 0.51693 0.0
C1904 C 0.64662 0.11148 0.52435 0.0
C1905 C 0.63888 0.13961 0.5203 0.0
C1906 C 0.61065 0.14574 0.51417 0.0
C1907 C 0.59059 0.12434 0.51261 0.0
H1908 H 0.82907 0.70166 0.45287 0.0
H1909 H 0.78738 0.67874 0.52935 0.0
H1910 H 0.86669 0.6685 0.4628 0.0
H1911 H 0.82526 0.64534 0.53942 0.0
H1912 H 0.88284 0.56662 0.52682 0.0
H1913 H 0.84503 0.60051 0.52063 0.0
H1914 H 0.90589 0.66298 0.49639 0.0
H1915 H 0.9438 0.62907 0.50233 0.0
C1916 C 0.82794 0.68941 0.4718 0.0
C1917 C 0.8053 0.69276 0.4903 0.0
C1918 C 0.84962 0.67059 0.47761 0.0
C1919 C 0.84914 0.65445 0.50203 0.0
C1920 C 0.8262 0.65743 0.52039 0.0
C1921 C 0.80453 0.67654 0.51466 0.0
C1922 C 0.88825 0.58762 0.52032 0.0
C1923 C 0.91644 0.59501 0.5149 0.0
C1924 C 0.86653 0.6071 0.51696 0.0
C1925 C 0.8724 0.63439 0.50785 0.0
C1926 C 0.90063 0.64201 0.50311 0.0
C1927 C 0.9224 0.6226 0.50671 0.0
H1928 H 0.31244 0.82623 0.45037 0.0
H1929 H 0.33491 0.78641 0.52779 0.0
H1930 H 0.34513 0.86427 0.46026 0.0
H1931 H 0.36775 0.82472 0.53787 0.0
H1932 H 0.4466 0.88196 0.52623 0.0
H1933 H 0.4127 0.84427 0.51999 0.0
H1934 H 0.35047 0.904 0.49264 0.0
H1935 H 0.3845 0.94185 0.49858 0.0
C1936 C 0.32448 0.82562 0.46951 0.0
C1937 C 0.32118 0.80334 0.48825 0.0
C1938 C 0.34301 0.84755 0.47531 0.0
C1939 C 0.3589 0.84771 0.49997 0.0
C1940 C 0.35589 0.82518 0.51863 0.0
C1941 C 0.3371 0.80325 0.51289 0.0
C1942 C 0.42565 0.88718 0.51901 0.0
C1943 C 0.4184 0.91503 0.51272 0.0
C1944 C 0.40614 0.86551 0.51563 0.0
C1945 C 0.37892 0.87105 0.50567 0.0
C1946 C 0.3714 0.89896 0.50004 0.0
C1947 C 0.39086 0.92071 0.50363 0.0
H1948 H 0.18339 0.30137 0.56349 0.0
H1949 H 0.22132 0.32782 0.48634 0.0
H1950 H 0.15057 0.34049 0.56137 0.0
H1951 H 0.1882 0.36727 0.48402 0.0
H1952 H 0.13358 0.44653 0.50387 0.0
H1953 H 0.17113 0.41182 0.50734 0.0
H1954 H 0.10997 0.34902 0.52987 0.0
H1955 H 0.07244 0.38355 0.5266 0.0
C1956 C 0.18511 0.31607 0.54642 0.0
C1957 C 0.20484 0.31166 0.52508 0.0
C1958 C 0.16612 0.33825 0.54502 0.0
C1959 C 0.16638 0.35662 0.52223 0.0
C1960 C 0.18747 0.35343 0.50183 0.0
C1961 C 0.20654 0.33103 0.50321 0.0
C1962 C 0.12808 0.4253 0.50954 0.0
C1963 C 0.09989 0.41792 0.5151 0.0
C1964 C 0.14965 0.40542 0.51139 0.0
C1965 C 0.14359 0.37777 0.51917 0.0
C1966 C 0.1154 0.37029 0.52429 0.0
C1967 C 0.09382 0.39006 0.52218 0.0
H1968 H 0.28895 0.17521 0.53479 0.0
H1969 H 0.35702 0.23471 0.53636 0.0
H1970 H 0.32168 0.13796 0.52306 0.0
H1971 H 0.3906 0.19711 0.52681 0.0
H1972 H 0.44458 0.12675 0.49385 0.0
H1973 H 0.41036 0.16447 0.49724 0.0
H1974 H 0.35464 0.10986 0.54333 0.0
H1975 H 0.38822 0.07189 0.53837 0.0
C1976 C 0.31106 0.18024 0.53245 0.0
C1977 C 0.32055 0.20774 0.5362 0.0
C1978 C 0.32998 0.15881 0.52615 0.0
C1979 C 0.35909 0.16413 0.52441 0.0
C1980 C 0.36841 0.19203 0.52755 0.0
C1981 C 0.34925 0.21366 0.53313 0.0
C1982 C 0.42486 0.1228 0.50448 0.0
C1983 C 0.41907 0.09631 0.5158 0.0
C1984 C 0.40525 0.14455 0.50663 0.0
C1985 C 0.37952 0.14055 0.52066 0.0
C1986 C 0.37379 0.11384 0.53179 0.0
C1987 C 0.39316 0.09196 0.52912 0.0
H1988 H 0.83118 0.30846 0.57907 0.0
H1989 H 0.78844 0.33239 0.50352 0.0
H1990 H 0.86858 0.34192 0.56916 0.0
H1991 H 0.82611 0.36609 0.49345 0.0
H1992 H 0.88341 0.44492 0.50635 0.0
H1993 H 0.84591 0.41065 0.51243 0.0
H1994 H 0.90741 0.34842 0.5355 0.0
H1995 H 0.94502 0.38274 0.5297 0.0
C1996 C 0.82978 0.32099 0.56034 0.0
C1997 C 0.8069 0.31784 0.54211 0.0
C1998 C 0.85134 0.33998 0.55453 0.0
C1999 C 0.85051 0.35651 0.53039 0.0
C2000 C 0.82733 0.35371 0.51228 0.0
C2001 C 0.80578 0.33443 0.51801 0.0
C2002 C 0.88903 0.4239 0.51259 0.0
C2003 C 0.91732 0.4167 0.51773 0.0
C2004 C 0.86748 0.40419 0.51587 0.0
C2005 C 0.87361 0.37684 0.52462 0.0
C2006 C 0.90194 0.36942 0.52907 0.0
C2007 C 0.92354 0.38906 0.52555 0.0
H2008 H 0.22355 0.68267 0.54378 0.0
H2009 H 0.17892 0.71812 0.47413 0.0
H2010 H 0.18997 0.64355 0.54492 0.0
H2011 H 0.14572 0.67926 0.47493 0.0
H2012 H 0.07079 0.63113 0.50951 0.0
H2013 H 0.10785 0.66623 0.50699 0.0
H2014 H 0.17064 0.60226 0.51965 0.0
H2015 H 0.13361 0.56705 0.52255 0.0
C2016 C 0.20707 0.68161 0.52824 0.0
C2017 C 0.20374 0.70334 0.50891 0.0
C2018 C 0.18776 0.65936 0.52894 0.0
C2019 C 0.1648 0.6586 0.51036 0.0
C2020 C 0.16269 0.67954 0.48997 0.0
C2021 C 0.18189 0.70161 0.48929 0.0
C2022 C 0.09244 0.62447 0.51188 0.0
C2023 C 0.09907 0.59615 0.51612 0.0
C2024 C 0.11376 0.6446 0.51021 0.0
C2025 C 0.14228 0.63702 0.51283 0.0
C2026 C 0.14892 0.60882 0.51763 0.0
C2027 C 0.1276 0.58862 0.51915 0.0
loop_
_geom_bond_atom_site_label_1
_geom_bond_atom_site_label_2
_geom_bond_distance
_geom_bond_site_symmetry_2
_ccdc_geom_bond_type
H0 C5 0.932 . S
H1 C8 0.929 1_655 S
H2 C10 0.930 . S
H3 C4 1.016 . S
C4 H3 1.016 . S
C4 N11 1.286 1_455 S
C5 H0 0.932 . S
C5 C6 1.394 1_655 S
C5 C7 1.362 . S
C6 C5 1.394 1_455 S
C6 C10 1.390 . S
C7 C5 1.362 . S
C7 C8 1.392 1_655 S
C7 N11 1.413 . S
C8 H1 0.929 1_455 S
C8 C7 1.392 1_455 S
C8 C9 1.402 . S
C9 C8 1.402 . S
C9 C10 1.381 . S
C10 H2 0.930 . S
C10 C6 1.390 . S
C10 C9 1.381 . S
N11 C4 1.286 1_655 S
N11 C7 1.413 . S
H12 C17 0.930 . S
H13 C20 0.930 . S
H14 C22 0.930 . S
H15 C16 1.020 . S
C16 H15 1.020 . S
C16 N23 1.281 1_565 S
C17 H12 0.930 . S
C17 C18 1.397 . S
C17 C19 1.361 . S
C18 C17 1.397 . S
C18 C22 1.390 1_545 S
C19 C17 1.361 . S
C19 C20 1.393 . S
C19 N23 1.413 . S
C20 H13 0.930 . S
C20 C19 1.393 . S
C20 C21 1.399 . S
C21 C20 1.399 . S
C21 C22 1.381 1_545 S
C22 H14 0.930 . S
C22 C18 1.390 1_565 S
C22 C21 1.381 1_565 S
N23 C16 1.281 1_545 S
N23 C19 1.413 . S
H24 C29 0.934 . S
H25 C32 0.928 1_655 S
H26 C34 0.930 . S
H27 C28 1.016 . S
C28 H27 1.016 . S
C28 N35 1.286 1_455 S
C29 H24 0.934 . S
C29 C30 1.392 1_655 S
C29 C31 1.362 . S
C30 C29 1.392 1_455 S
C30 C34 1.390 . S
C31 C29 1.362 . S
C31 C32 1.390 1_655 S
C31 N35 1.413 . S
C32 H25 0.928 1_455 S
C32 C31 1.390 1_455 S
C32 C33 1.405 . S
C33 C32 1.405 . S
C33 C34 1.381 . S
C34 H26 0.930 . S
C34 C30 1.390 . S
C34 C33 1.381 . S
N35 C28 1.286 1_655 S
N35 C31 1.413 . S
H36 C41 0.930 . S
H37 C44 0.930 . S
H38 C46 0.930 . S
H39 C40 1.016 . S
C40 H39 1.016 . S
C40 N47 1.286 1_545 S
C41 H36 0.930 . S
C41 C42 1.403 . S
C41 C43 1.361 . S
C42 C41 1.403 . S
C42 C46 1.386 1_565 S
C43 C41 1.361 . S
C43 C44 1.393 . S
C43 N47 1.413 . S
C44 H37 0.930 . S
C44 C43 1.393 . S
C44 C45 1.399 . S
C45 C44 1.399 . S
C45 C46 1.381 1_565 S
C46 H38 0.930 . S
C46 C42 1.386 1_545 S
C46 C45 1.381 1_545 S
N47 C40 1.286 1_565 S
N47 C43 1.413 . S
H48 C53 0.935 . S
H49 C56 0.930 1_655 S
H50 C58 0.930 . S
H51 C52 1.016 . S
C52 H51 1.016 . S
C52 N59 1.286 1_455 S
C53 H48 0.935 . S
C53 C54 1.391 1_655 S
C53 C55 1.363 . S
C54 C53 1.391 1_455 S
C54 C58 1.390 . S
C55 C53 1.363 . S
C55 C56 1.393 1_655 S
C55 N59 1.413 . S
C56 H49 0.930 1_455 S
C56 C55 1.393 1_455 S
C56 C57 1.400 . S
C57 C56 1.400 . S
C57 C58 1.381 . S
C58 H50 0.930 . S
C58 C54 1.390 . S
C58 C57 1.381 . S
N59 C52 1.286 1_655 S
N59 C55 1.413 . S
H60 C65 0.930 . S
H61 C68 0.930 . S
H62 C70 0.930 . S
H63 C64 1.026 . S
C64 H63 1.026 . S
C64 N71 1.272 1_565 S
C65 H60 0.930 . S
C65 C66 1.397 . S
C65 C67 1.361 . S
C66 C65 1.397 . S
C66 C70 1.390 1_545 S
C67 C65 1.361 . S
C67 C68 1.393 . S
C67 N71 1.413 . S
C68 H61 0.930 . S
C68 C67 1.393 . S
C68 C69 1.404 . S
C69 C68 1.404 . S
C69 C70 1.378 1_545 S
C70 H62 0.930 . S
C70 C66 1.390 1_565 S
C70 C69 1.378 1_565 S
N71 C64 1.272 1_545 S
N71 C67 1.413 . S
H72 C77 0.936 . S
H73 C80 0.928 1_655 S
H74 C82 0.930 . S
H75 C76 1.016 . S
C76 H75 1.016 . S
C76 N83 1.286 1_455 S
C77 H72 0.936 . S
C77 C78 1.391 1_655 S
C77 C79 1.363 . S
C78 C77 1.391 1_455 S
C78 C82 1.390 . S
C79 C77 1.363 . S
C79 C80 1.391 1_655 S
C79 N83 1.413 . S
C80 H73 0.928 1_455 S
C80 C79 1.391 1_455 S
C80 C81 1.403 . S
C81 C80 1.403 . S
C81 C82 1.381 . S
C82 H74 0.930 . S
C82 C78 1.390 . S
C82 C81 1.381 . S
N83 C76 1.286 1_655 S
N83 C79 1.413 . S
H84 C89 0.930 . S
H85 C92 0.930 . S
H86 C94 0.930 . S
H87 C88 1.026 . S
C88 H87 1.026 . S
C88 N95 1.272 1_565 S
C89 H84 0.930 . S
C89 C90 1.397 . S
C89 C91 1.361 . S
C90 C89 1.397 . S
C90 C94 1.390 1_545 S
C91 C89 1.361 . S
C91 C92 1.393 . S
C91 N95 1.413 . S
C92 H85 0.930 . S
C92 C91 1.393 . S
C92 C93 1.404 . S
C93 C92 1.404 . S
C93 C94 1.378 1_545 S
C94 H86 0.930 . S
C94 C90 1.390 1_565 S
C94 C93 1.378 1_565 S
N95 C88 1.272 1_545 S
N95 C91 1.413 . S
H96 C101 0.930 . S
H97 C104 0.930 . S
H98 C106 0.930 . S
H99 C100 1.017 . S
C100 H99 1.017 . S
C100 N107 1.286 . S
C101 H96 0.930 . S
C101 C102 1.397 . S
C101 C103 1.361 . S
C102 C101 1.397 . S
C102 C106 1.390 . S
C103 C101 1.361 . S
C103 C104 1.393 . S
C103 N107 1.413 . S
C104 H97 0.930 . S
C104 C103 1.393 . S
C104 C105 1.399 . S
C105 C104 1.399 . S
C105 C106 1.381 . S
C106 H98 0.930 . S
C106 C102 1.390 . S
C106 C105 1.381 . S
N107 C100 1.286 . S
N107 C103 1.413 . S
H108 C113 0.927 1_556 S
H109 C116 0.930 . S
H110 C118 0.930 . S
H111 C112 1.016 . S
C112 H111 1.016 . S
C112 N119 1.286 1_554 S
C113 H108 0.927 1_554 S
C113 C114 1.397 . S
C113 C115 1.364 . S
C114 C113 1.397 . S
C114 C118 1.390 . S
C115 C113 1.364 . S
C115 C116 1.397 . S
C115 N119 1.409 1_554 S
C116 H109 0.930 . S
C116 C115 1.397 . S
C116 C117 1.399 . S
C117 C116 1.399 . S
C117 C118 1.381 . S
C118 H110 0.930 . S
C118 C114 1.390 . S
C118 C117 1.381 . S
N119 C112 1.286 1_556 S
N119 C115 1.409 1_556 S
H120 C125 0.930 . S
H121 C128 0.930 . S
H122 C130 0.930 . S
H123 C124 1.016 . S
C124 H123 1.016 . S
C124 N131 1.286 . S
C125 H120 0.930 . S
C125 C126 1.397 . S
C125 C127 1.361 . S
C126 C125 1.397 . S
C126 C130 1.390 . S
C127 C125 1.361 . S
C127 C128 1.393 . S
C127 N131 1.413 . S
C128 H121 0.930 . S
C128 C127 1.393 . S
C128 C129 1.399 . S
C129 C128 1.399 . S
C129 C130 1.381 . S
C130 H122 0.930 . S
C130 C126 1.390 . S
C130 C129 1.381 . S
N131 C124 1.286 . S
N131 C127 1.413 . S
H132 C137 0.927 1_556 S
H133 C140 0.930 . S
H134 C142 0.930 . S
H135 C136 1.016 . S
C136 H135 1.016 . S
C136 N143 1.286 1_554 S
C137 H132 0.927 1_554 S
C137 C138 1.397 . S
C137 C139 1.361 . S
C138 C137 1.397 . S
C138 C142 1.390 . S
C139 C137 1.361 . S
C139 C140 1.393 . S
C139 N143 1.413 1_554 S
C140 H133 0.930 . S
C140 C139 1.393 . S
C140 C141 1.399 . S
C141 C140 1.399 . S
C141 C142 1.381 . S
C142 H134 0.930 . S
C142 C138 1.390 . S
C142 C141 1.381 . S
N143 C136 1.286 1_556 S
N143 C139 1.413 1_556 S
H144 C149 0.930 . S
H145 C152 0.930 . S
H146 C154 0.930 . S
H147 C148 1.016 . S
C148 H147 1.016 . S
C148 N155 1.286 . S
C149 H144 0.930 . S
C149 C150 1.397 . S
C149 C151 1.361 . S
C150 C149 1.397 . S
C150 C154 1.390 . S
C151 C149 1.361 . S
C151 C152 1.393 . S
C151 N155 1.413 . S
C152 H145 0.930 . S
C152 C151 1.393 . S
C152 C153 1.399 . S
C153 C152 1.399 . S
C153 C154 1.381 . S
C154 H146 0.930 . S
C154 C150 1.390 . S
C154 C153 1.381 . S
N155 C148 1.286 . S
N155 C151 1.413 . S
H156 C161 0.930 . S
H157 C164 0.930 . S
H158 C166 0.930 . S
H159 C160 1.016 . S
C160 H159 1.016 . S
C160 N167 1.286 . S
C161 H156 0.930 . S
C161 C162 1.397 . S
C161 C163 1.361 . S
C162 C161 1.397 . S
C162 C166 1.390 . S
C163 C161 1.361 . S
C163 C164 1.393 . S
C163 N167 1.413 . S
C164 H157 0.930 . S
C164 C163 1.393 . S
C164 C165 1.399 . S
C165 C164 1.399 . S
C165 C166 1.381 . S
C166 H158 0.930 . S
C166 C162 1.390 . S
C166 C165 1.381 . S
N167 C160 1.286 . S
N167 C163 1.413 . S
H168 C173 0.930 . S
H169 C176 0.930 . S
H170 C178 0.930 . S
H171 C172 1.016 . S
C172 H171 1.016 . S
C172 N179 1.286 . S
C173 H168 0.930 . S
C173 C174 1.397 . S
C173 C175 1.361 . S
C174 C173 1.397 . S
C174 C178 1.390 . S
C175 C173 1.361 . S
C175 C176 1.393 . S
C175 N179 1.413 . S
C176 H169 0.930 . S
C176 C175 1.393 . S
C176 C177 1.399 . S
C177 C176 1.399 . S
C177 C178 1.381 . S
C178 H170 0.930 . S
C178 C174 1.390 . S
C178 C177 1.381 . S
N179 C172 1.286 . S
N179 C175 1.413 . S
H180 C185 0.930 . S
H181 C188 0.930 . S
H182 C190 0.930 . S
H183 C184 1.016 . S
C184 H183 1.016 . S
C184 N191 1.286 . S
C185 H180 0.930 . S
C185 C186 1.397 . S
C185 C187 1.361 . S
C186 C185 1.397 . S
C186 C190 1.390 . S
C187 C185 1.361 . S
C187 C188 1.393 . S
C187 N191 1.413 . S
C188 H181 0.930 . S
C188 C187 1.393 . S
C188 C189 1.399 . S
C189 C188 1.399 . S
C189 C190 1.381 . S
C190 H182 0.930 . S
C190 C186 1.390 . S
C190 C189 1.381 . S
N191 C184 1.286 . S
N191 C187 1.413 . S
H192 C197 0.930 . S
H193 C200 0.930 . S
H194 C202 0.930 . S
H195 C196 1.016 . S
C196 H195 1.016 . S
C196 N203 1.286 . S
C197 H192 0.930 . S
C197 C198 1.397 . S
C197 C199 1.361 . S
C198 C197 1.397 . S
C198 C202 1.390 . S
C199 C197 1.361 . S
C199 C200 1.393 . S
C199 N203 1.413 . S
C200 H193 0.930 . S
C200 C199 1.393 . S
C200 C201 1.399 . S
C201 C200 1.399 . S
C201 C202 1.381 . S
C202 H194 0.930 . S
C202 C198 1.390 . S
C202 C201 1.381 . S
N203 C196 1.286 . S
N203 C199 1.413 . S
H204 C209 0.930 . S
H205 C212 0.930 . S
H206 C214 0.930 . S
H207 C208 1.016 . S
C208 H207 1.016 . S
C208 N215 1.286 . S
C209 H204 0.930 . S
C209 C210 1.397 . S
C209 C211 1.361 . S
C210 C209 1.397 . S
C210 C214 1.390 . S
C211 C209 1.361 . S
C211 C212 1.393 . S
C211 N215 1.413 . S
C212 H205 0.930 . S
C212 C211 1.393 . S
C212 C213 1.399 . S
C213 C212 1.399 . S
C213 C214 1.381 . S
C214 H206 0.930 . S
C214 C210 1.390 . S
C214 C213 1.381 . S
N215 C208 1.286 . S
N215 C211 1.413 . S
H216 C221 0.930 . S
H217 C224 0.930 . S
H218 C226 0.930 . S
H219 C220 1.016 . S
C220 H219 1.016 . S
C220 N227 1.286 . S
C221 H216 0.930 . S
C221 C222 1.397 . S
C221 C223 1.361 . S
C222 C221 1.397 . S
C222 C226 1.390 . S
C223 C221 1.361 . S
C223 C224 1.393 . S
C223 N227 1.413 . S
C224 H217 0.930 . S
C224 C223 1.393 . S
C224 C225 1.399 . S
C225 C224 1.399 . S
C225 C226 1.381 . S
C226 H218 0.930 . S
C226 C222 1.390 . S
C226 C225 1.381 . S
N227 C220 1.286 . S
N227 C223 1.413 . S
H228 C233 0.930 . S
H229 C236 0.930 . S
H230 C238 0.930 . S
H231 C232 1.016 . S
C232 H231 1.016 . S
C232 N239 1.286 . S
C233 H228 0.930 . S
C233 C234 1.397 . S
C233 C235 1.361 . S
C234 C233 1.397 . S
C234 C238 1.390 . S
C235 C233 1.361 . S
C235 C236 1.393 . S
C235 N239 1.413 . S
C236 H229 0.930 . S
C236 C235 1.393 . S
C236 C237 1.399 . S
C237 C236 1.399 . S
C237 C238 1.381 . S
C238 H230 0.930 . S
C238 C234 1.390 . S
C238 C237 1.381 . S
N239 C232 1.286 . S
N239 C235 1.413 . S
H240 C245 0.930 . S
H241 C248 0.930 . S
H242 C250 0.930 . S
H243 C244 1.016 . S
C244 H243 1.016 . S
C244 N251 1.286 . S
C245 H240 0.930 . S
C245 C246 1.397 . S
C245 C247 1.361 . S
C246 C245 1.397 . S
C246 C250 1.390 . S
C247 C245 1.361 . S
C247 C248 1.393 . S
C247 N251 1.413 . S
C248 H241 0.930 . S
C248 C247 1.393 . S
C248 C249 1.399 . S
C249 C248 1.399 . S
C249 C250 1.381 . S
C250 H242 0.930 . S
C250 C246 1.390 . S
C250 C249 1.381 . S
N251 C244 1.286 . S
N251 C247 1.413 . S
H252 C257 0.930 . S
H253 C260 0.930 . S
H254 C262 0.930 . S
H255 C256 1.016 . S
C256 H255 1.016 . S
C256 N263 1.286 . S
C257 H252 0.930 . S
C257 C258 1.397 . S
C257 C259 1.361 . S
C258 C257 1.397 . S
C258 C262 1.390 . S
C259 C257 1.361 . S
C259 C260 1.393 . S
C259 N263 1.413 . S
C260 H253 0.930 . S
C260 C259 1.393 . S
C260 C261 1.399 . S
C261 C260 1.399 . S
C261 C262 1.381 . S
C262 H254 0.930 . S
C262 C258 1.390 . S
C262 C261 1.381 . S
N263 C256 1.286 . S
N263 C259 1.413 . S
H264 C269 0.930 . S
H265 C272 0.930 . S
H266 C274 0.930 . S
H267 C268 1.016 . S
C268 H267 1.016 . S
C268 N275 1.286 . S
C269 H264 0.930 . S
C269 C270 1.397 . S
C269 C271 1.361 . S
C270 C269 1.397 . S
C270 C274 1.390 . S
C271 C269 1.361 . S
C271 C272 1.393 . S
C271 N275 1.413 . S
C272 H265 0.930 . S
C272 C271 1.393 . S
C272 C273 1.399 . S
C273 C272 1.399 . S
C273 C274 1.381 . S
C274 H266 0.930 . S
C274 C270 1.390 . S
C274 C273 1.381 . S
N275 C268 1.286 . S
N275 C271 1.413 . S
H276 C281 0.930 . S
H277 C284 0.930 . S
H278 C286 0.930 . S
H279 C280 1.016 . S
C280 H279 1.016 . S
C280 N287 1.286 . S
C281 H276 0.930 . S
C281 C282 1.397 . S
C281 C283 1.361 . S
C282 C281 1.397 . S
C282 C286 1.390 . S
C283 C281 1.361 . S
C283 C284 1.393 . S
C283 N287 1.413 . S
C284 H277 0.930 . S
C284 C283 1.393 . S
C284 C285 1.399 . S
C285 C284 1.399 . S
C285 C286 1.381 . S
C286 H278 0.930 . S
C286 C282 1.390 . S
C286 C285 1.381 . S
N287 C280 1.286 . S
N287 C283 1.413 . S
C288 O314 1.283 . S
C288 O332 1.283 . S
C289 O315 1.283 . S
C289 O330 1.283 . S
C290 O316 1.283 . S
C290 O333 1.283 . S
C291 O317 1.283 . S
C291 O331 1.283 . S
C292 O318 1.283 . S
C292 O327 1.283 . S
C293 O319 1.283 . S
C293 O329 1.283 . S
C294 O320 1.283 . S
C294 O326 1.283 . S
C295 O321 1.283 . S
C295 O328 1.283 . S
C296 O322 1.283 . S
C296 O337 1.283 . S
C297 O323 1.283 . S
C297 O335 1.283 . S
C298 O324 1.283 . S
C298 O336 1.283 . S
C299 O325 1.283 . S
C299 O334 1.283 . S
Eu300 O301 2.370 1_455 S
Eu300 O302 2.370 . S
Eu300 O305 2.370 1_455 S
Eu300 O306 2.370 . S
Eu300 O314 2.363 . S
Eu300 O315 2.363 . S
Eu300 O328 2.363 . S
Eu300 O329 2.363 1_455 S
O301 Eu300 2.370 1_655 S
O301 Eu303 2.367 1_565 S
O301 Eu308 2.366 1_665 S
O302 Eu300 2.370 . S
O302 Eu304 2.367 1_565 S
O302 Eu307 2.367 1_565 S
Eu303 O301 2.367 1_545 S
Eu303 O305 2.367 1_545 S
Eu303 O309 2.374 . S
Eu303 O310 2.374 . S
Eu303 O318 2.369 . S
Eu303 O319 2.357 1_545 S
Eu303 O334 2.363 . S
Eu303 O335 2.363 . S
Eu304 O302 2.367 1_545 S
Eu304 O306 2.367 1_545 S
Eu304 O311 2.374 . S
Eu304 O312 2.374 . S
Eu304 O320 2.369 . S
Eu304 O321 2.357 1_545 S
Eu304 O336 2.363 . S
Eu304 O337 2.363 . S
O305 Eu300 2.370 1_655 S
O305 Eu303 2.367 1_565 S
O305 Eu307 2.367 1_665 S
O306 Eu300 2.370 . S
O306 Eu304 2.367 1_565 S
O306 Eu308 2.366 1_565 S
Eu307 O302 2.367 1_545 S
Eu307 O305 2.367 1_445 S
Eu307 O309 2.373 1_455 S
Eu307 O312 2.373 . S
Eu307 O324 2.363 . S
Eu307 O325 2.363 1_455 S
Eu307 O332 2.358 1_545 S
Eu307 O333 2.367 . S
Eu308 O301 2.366 1_445 S
Eu308 O306 2.366 1_545 S
Eu308 O310 2.375 1_455 S
Eu308 O311 2.375 . S
Eu308 O322 2.363 . S
Eu308 O323 2.363 1_455 S
Eu308 O330 2.355 1_545 S
Eu308 O331 2.370 . S
O309 Eu303 2.374 . S
O309 Eu307 2.373 1_655 S
O309 Eu313 2.370 1_655 S
O310 Eu303 2.374 . S
O310 Eu308 2.375 1_655 S
O310 Eu313 2.370 1_655 S
O311 Eu304 2.374 . S
O311 Eu308 2.375 . S
O311 Eu313 2.370 . S
O312 Eu304 2.374 . S
O312 Eu307 2.373 . S
O312 Eu313 2.370 . S
Eu313 O309 2.370 1_455 S
Eu313 O310 2.370 1_455 S
Eu313 O311 2.370 . S
Eu313 O312 2.370 . S
Eu313 O316 2.363 . S
Eu313 O317 2.363 . S
Eu313 O326 2.363 . S
Eu313 O327 2.363 1_455 S
O314 C288 1.283 . S
O314 Eu300 2.363 . S
O315 C289 1.283 . S
O315 Eu300 2.363 . S
O316 C290 1.283 . S
O316 Eu313 2.363 . S
O317 C291 1.283 . S
O317 Eu313 2.363 . S
O318 C292 1.283 . S
O318 Eu303 2.369 . S
O319 C293 1.283 . S
O319 Eu303 2.357 1_565 S
O320 C294 1.283 . S
O320 Eu304 2.369 . S
O321 C295 1.283 . S
O321 Eu304 2.357 1_565 S
O322 C296 1.283 . S
O322 Eu308 2.363 . S
O323 C297 1.283 . S
O323 Eu308 2.363 1_655 S
O324 C298 1.283 . S
O324 Eu307 2.363 . S
O325 C299 1.283 . S
O325 Eu307 2.363 1_655 S
O326 C294 1.283 . S
O326 Eu313 2.363 . S
O327 C292 1.283 . S
O327 Eu313 2.363 1_655 S
O328 C295 1.283 . S
O328 Eu300 2.363 . S
O329 C293 1.283 . S
O329 Eu300 2.363 1_655 S
O330 C289 1.283 . S
O330 Eu308 2.355 1_565 S
O331 C291 1.283 . S
O331 Eu308 2.370 . S
O332 C288 1.283 . S
O332 Eu307 2.358 1_565 S
O333 C290 1.283 . S
O333 Eu307 2.367 . S
O334 C299 1.283 . S
O334 Eu303 2.363 . S
O335 C297 1.283 . S
O335 Eu303 2.363 . S
O336 C298 1.283 . S
O336 Eu304 2.363 . S
O337 C296 1.283 . S
O337 Eu304 2.363 . S
C338 O364 1.283 . S
C338 O382 1.283 . S
C339 O365 1.283 . S
C339 O380 1.283 . S
C340 O366 1.283 . S
C340 O383 1.283 . S
C341 O367 1.283 . S
C341 O381 1.283 . S
C342 O368 1.283 . S
C342 O377 1.283 . S
C343 O369 1.283 . S
C343 O379 1.283 . S
C344 O370 1.283 . S
C344 O376 1.283 . S
C345 O371 1.283 . S
C345 O378 1.283 . S
C346 O372 1.283 . S
C346 O387 1.283 . S
C347 O373 1.283 . S
C347 O385 1.283 . S
C348 O374 1.283 . S
C348 O386 1.283 . S
C349 O375 1.283 . S
C349 O384 1.283 . S
Eu350 O351 2.375 . S
Eu350 O352 2.365 1_545 S
Eu350 O355 2.365 1_545 S
Eu350 O356 2.375 . S
Eu350 O364 2.355 1_545 S
Eu350 O365 2.371 . S
Eu350 O378 2.363 . S
Eu350 O379 2.363 . S
O351 Eu350 2.375 . S
O351 Eu353 2.373 . S
O351 Eu358 2.370 . S
O352 Eu350 2.365 1_565 S
O352 Eu354 2.367 1_565 S
O352 Eu357 2.370 . S
Eu353 O351 2.373 . S
Eu353 O355 2.367 1_545 S
Eu353 O359 2.367 1_544 S
Eu353 O360 2.373 1_554 S
Eu353 O368 2.363 1_554 S
Eu353 O369 2.363 . S
Eu353 O384 2.357 1_545 S
Eu353 O385 2.369 . S
Eu354 O352 2.367 1_545 S
Eu354 O356 2.373 . S
Eu354 O361 2.373 1_554 S
Eu354 O362 2.367 1_544 S
Eu354 O370 2.363 1_554 S
Eu354 O371 2.363 . S
Eu354 O386 2.357 1_545 S
Eu354 O387 2.369 . S
O355 Eu350 2.365 1_565 S
O355 Eu353 2.367 1_565 S
O355 Eu357 2.370 . S
O356 Eu350 2.375 . S
O356 Eu354 2.373 . S
O356 Eu358 2.370 . S
Eu357 O352 2.370 . S
Eu357 O355 2.370 . S
Eu357 O359 2.370 1_554 S
Eu357 O362 2.370 1_554 S
Eu357 O374 2.363 . S
Eu357 O375 2.363 . S
Eu357 O382 2.363 . S
Eu357 O383 2.363 1_554 S
Eu358 O351 2.370 . S
Eu358 O356 2.370 . S
Eu358 O360 2.370 1_554 S
Eu358 O361 2.370 1_554 S
Eu358 O372 2.363 . S
Eu358 O373 2.363 . S
Eu358 O380 2.363 . S
Eu358 O381 2.363 1_554 S
O359 Eu353 2.367 1_566 S
O359 Eu357 2.370 1_556 S
O359 Eu363 2.368 1_565 S
O360 Eu353 2.373 1_556 S
O360 Eu358 2.370 1_556 S
O360 Eu363 2.372 . S
O361 Eu354 2.373 1_556 S
O361 Eu358 2.370 1_556 S
O361 Eu363 2.372 . S
O362 Eu354 2.367 1_566 S
O362 Eu357 2.370 1_556 S
O362 Eu363 2.368 1_565 S
Eu363 O359 2.368 1_545 S
Eu363 O360 2.372 . S
Eu363 O361 2.372 . S
Eu363 O362 2.368 1_545 S
Eu363 O366 2.360 1_545 S
Eu363 O367 2.366 . S
Eu363 O376 2.363 . S
Eu363 O377 2.363 . S
O364 C338 1.283 . S
O364 Eu350 2.355 1_565 S
O365 C339 1.283 . S
O365 Eu350 2.371 . S
O366 C340 1.283 . S
O366 Eu363 2.360 1_565 S
O367 C341 1.283 . S
O367 Eu363 2.366 . S
O368 C342 1.283 . S
O368 Eu353 2.363 1_556 S
O369 C343 1.283 . S
O369 Eu353 2.363 . S
O370 C344 1.283 . S
O370 Eu354 2.363 1_556 S
O371 C345 1.283 . S
O371 Eu354 2.363 . S
O372 C346 1.283 . S
O372 Eu358 2.363 . S
O373 C347 1.283 . S
O373 Eu358 2.363 . S
O374 C348 1.283 . S
O374 Eu357 2.363 . S
O375 C349 1.283 . S
O375 Eu357 2.363 . S
O376 C344 1.283 . S
O376 Eu363 2.363 . S
O377 C342 1.283 . S
O377 Eu363 2.363 . S
O378 C345 1.283 . S
O378 Eu350 2.363 . S
O379 C343 1.283 . S
O379 Eu350 2.363 . S
O380 C339 1.283 . S
O380 Eu358 2.363 . S
O381 C341 1.283 . S
O381 Eu358 2.363 1_556 S
O382 C338 1.283 . S
O382 Eu357 2.363 . S
O383 C340 1.283 . S
O383 Eu357 2.363 1_556 S
O384 C349 1.283 . S
O384 Eu353 2.357 1_565 S
O385 C347 1.283 . S
O385 Eu353 2.369 . S
O386 C348 1.283 . S
O386 Eu354 2.357 1_565 S
O387 C346 1.283 . S
O387 Eu354 2.369 . S
C388 O414 1.283 . S
C388 O432 1.283 . S
C389 O415 1.283 . S
C389 O430 1.283 . S
C390 O416 1.283 . S
C390 O433 1.283 . S
C391 O417 1.283 . S
C391 O431 1.283 . S
C392 O418 1.283 . S
C392 O427 1.283 . S
C393 O419 1.283 . S
C393 O429 1.283 . S
C394 O420 1.283 . S
C394 O426 1.283 . S
C395 O421 1.283 . S
C395 O428 1.283 . S
C396 O422 1.283 . S
C396 O437 1.283 . S
C397 O423 1.283 . S
C397 O435 1.283 . S
C398 O424 1.283 . S
C398 O436 1.283 . S
C399 O425 1.283 . S
C399 O434 1.283 . S
Eu400 O401 2.370 1_454 S
Eu400 O402 2.370 . S
Eu400 O405 2.370 1_455 S
Eu400 O406 2.370 1_554 S
Eu400 O414 2.363 . S
Eu400 O415 2.363 1_554 S
Eu400 O428 2.363 . S
Eu400 O429 2.363 1_455 S
O401 Eu400 2.370 1_656 S
O401 Eu403 2.370 1_556 S
O401 Eu408 2.370 1_655 S
O402 Eu400 2.370 . S
O402 Eu404 2.370 . S
O402 Eu407 2.370 . S
Eu403 O401 2.370 1_554 S
Eu403 O405 2.370 . S
Eu403 O409 2.370 . S
Eu403 O410 2.370 1_554 S
Eu403 O418 2.363 . S
Eu403 O419 2.363 . S
Eu403 O434 2.363 . S
Eu403 O435 2.363 1_554 S
Eu404 O402 2.370 . S
Eu404 O406 2.370 1_554 S
Eu404 O411 2.370 1_554 S
Eu404 O412 2.370 . S
Eu404 O420 2.363 . S
Eu404 O421 2.363 . S
Eu404 O436 2.363 . S
Eu404 O437 2.363 1_554 S
O405 Eu400 2.370 1_655 S
O405 Eu403 2.370 . S
O405 Eu407 2.370 1_655 S
O406 Eu400 2.370 1_556 S
O406 Eu404 2.370 1_556 S
O406 Eu408 2.370 . S
Eu407 O402 2.370 . S
Eu407 O405 2.370 1_455 S
Eu407 O409 2.370 1_455 S
Eu407 O412 2.370 . S
Eu407 O424 2.363 . S
Eu407 O425 2.363 1_455 S
Eu407 O432 2.363 . S
Eu407 O433 2.363 . S
Eu408 O401 2.370 1_455 S
Eu408 O406 2.370 . S
Eu408 O410 2.370 1_455 S
Eu408 O411 2.370 . S
Eu408 O422 2.363 . S
Eu408 O423 2.363 1_455 S
Eu408 O430 2.363 . S
Eu408 O431 2.363 . S
O409 Eu403 2.370 . S
O409 Eu407 2.370 1_655 S
O409 Eu413 2.370 1_655 S
O410 Eu403 2.370 1_556 S
O410 Eu408 2.370 1_655 S
O410 Eu413 2.370 1_656 S
O411 Eu404 2.370 1_556 S
O411 Eu408 2.370 . S
O411 Eu413 2.370 1_556 S
O412 Eu404 2.370 . S
O412 Eu407 2.370 . S
O412 Eu413 2.370 . S
Eu413 O409 2.370 1_455 S
Eu413 O410 2.370 1_454 S
Eu413 O411 2.370 1_554 S
Eu413 O412 2.370 . S
Eu413 O416 2.363 . S
Eu413 O417 2.363 1_554 S
Eu413 O426 2.363 . S
Eu413 O427 2.363 1_455 S
O414 C388 1.283 . S
O414 Eu400 2.363 . S
O415 C389 1.283 . S
O415 Eu400 2.363 1_556 S
O416 C390 1.283 . S
O416 Eu413 2.363 . S
O417 C391 1.283 . S
O417 Eu413 2.363 1_556 S
O418 C392 1.283 . S
O418 Eu403 2.363 . S
O419 C393 1.283 . S
O419 Eu403 2.363 . S
O420 C394 1.283 . S
O420 Eu404 2.363 . S
O421 C395 1.283 . S
O421 Eu404 2.363 . S
O422 C396 1.283 . S
O422 Eu408 2.363 . S
O423 C397 1.283 . S
O423 Eu408 2.363 1_655 S
O424 C398 1.283 . S
O424 Eu407 2.363 . S
O425 C399 1.283 . S
O425 Eu407 2.363 1_655 S
O426 C394 1.283 . S
O426 Eu413 2.363 . S
O427 C392 1.283 . S
O427 Eu413 2.363 1_655 S
O428 C395 1.283 . S
O428 Eu400 2.363 . S
O429 C393 1.283 . S
O429 Eu400 2.363 1_655 S
O430 C389 1.283 . S
O430 Eu408 2.363 . S
O431 C391 1.283 . S
O431 Eu408 2.363 . S
O432 C388 1.283 . S
O432 Eu407 2.363 . S
O433 C390 1.283 . S
O433 Eu407 2.363 . S
O434 C399 1.283 . S
O434 Eu403 2.363 . S
O435 C397 1.283 . S
O435 Eu403 2.363 1_556 S
O436 C398 1.283 . S
O436 Eu404 2.363 . S
O437 C396 1.283 . S
O437 Eu404 2.363 1_556 S
C438 O464 1.283 . S
C438 O482 1.283 . S
C439 O465 1.283 . S
C439 O480 1.283 . S
C440 O466 1.283 . S
C440 O483 1.283 . S
C441 O467 1.283 . S
C441 O481 1.283 . S
C442 O468 1.283 . S
C442 O477 1.283 . S
C443 O469 1.283 . S
C443 O479 1.283 . S
C444 O470 1.283 . S
C444 O476 1.283 . S
C445 O471 1.283 . S
C445 O478 1.283 . S
C446 O472 1.283 . S
C446 O487 1.283 . S
C447 O473 1.283 . S
C447 O485 1.283 . S
C448 O474 1.283 . S
C448 O486 1.283 . S
C449 O475 1.283 . S
C449 O484 1.283 . S
Eu450 O451 2.370 . S
Eu450 O452 2.370 . S
Eu450 O455 2.370 . S
Eu450 O456 2.370 . S
Eu450 O464 2.363 . S
Eu450 O465 2.363 . S
Eu450 O478 2.363 . S
Eu450 O479 2.363 . S
O451 Eu450 2.370 . S
O451 Eu453 2.370 . S
O451 Eu458 2.370 . S
O452 Eu450 2.370 . S
O452 Eu454 2.370 . S
O452 Eu457 2.370 . S
Eu453 O451 2.370 . S
Eu453 O455 2.370 . S
Eu453 O459 2.370 1_554 S
Eu453 O460 2.370 1_554 S
Eu453 O468 2.363 1_554 S
Eu453 O469 2.363 . S
Eu453 O484 2.363 . S
Eu453 O485 2.363 . S
Eu454 O452 2.370 . S
Eu454 O456 2.370 . S
Eu454 O461 2.370 1_554 S
Eu454 O462 2.370 1_554 S
Eu454 O470 2.363 1_554 S
Eu454 O471 2.363 . S
Eu454 O486 2.363 . S
Eu454 O487 2.363 . S
O455 Eu450 2.370 . S
O455 Eu453 2.370 . S
O455 Eu457 2.370 . S
O456 Eu450 2.370 . S
O456 Eu454 2.370 . S
O456 Eu458 2.370 . S
Eu457 O452 2.370 . S
Eu457 O455 2.370 . S
Eu457 O459 2.370 1_554 S
Eu457 O462 2.370 1_554 S
Eu457 O474 2.363 . S
Eu457 O475 2.363 . S
Eu457 O482 2.363 . S
Eu457 O483 2.363 1_554 S
Eu458 O451 2.370 . S
Eu458 O456 2.370 . S
Eu458 O460 2.370 1_554 S
Eu458 O461 2.370 1_554 S
Eu458 O472 2.363 . S
Eu458 O473 2.363 . S
Eu458 O480 2.363 . S
Eu458 O481 2.363 1_554 S
O459 Eu453 2.370 1_556 S
O459 Eu457 2.370 1_556 S
O459 Eu463 2.370 . S
O460 Eu453 2.370 1_556 S
O460 Eu458 2.370 1_556 S
O460 Eu463 2.370 . S
O461 Eu454 2.370 1_556 S
O461 Eu458 2.370 1_556 S
O461 Eu463 2.370 . S
O462 Eu454 2.370 1_556 S
O462 Eu457 2.370 1_556 S
O462 Eu463 2.370 . S
Eu463 O459 2.370 . S
Eu463 O460 2.370 . S
Eu463 O461 2.370 . S
Eu463 O462 2.370 . S
Eu463 O466 2.363 . S
Eu463 O467 2.363 . S
Eu463 O476 2.363 . S
Eu463 O477 2.363 . S
O464 C438 1.283 . S
O464 Eu450 2.363 . S
O465 C439 1.283 . S
O465 Eu450 2.363 . S
O466 C440 1.283 . S
O466 Eu463 2.363 . S
O467 C441 1.283 . S
O467 Eu463 2.363 . S
O468 C442 1.283 . S
O468 Eu453 2.363 1_556 S
O469 C443 1.283 . S
O469 Eu453 2.363 . S
O470 C444 1.283 . S
O470 Eu454 2.363 1_556 S
O471 C445 1.283 . S
O471 Eu454 2.363 . S
O472 C446 1.283 . S
O472 Eu458 2.363 . S
O473 C447 1.283 . S
O473 Eu458 2.363 . S
O474 C448 1.283 . S
O474 Eu457 2.363 . S
O475 C449 1.283 . S
O475 Eu457 2.363 . S
O476 C444 1.283 . S
O476 Eu463 2.363 . S
O477 C442 1.283 . S
O477 Eu463 2.363 . S
O478 C445 1.283 . S
O478 Eu450 2.363 . S
O479 C443 1.283 . S
O479 Eu450 2.363 . S
O480 C439 1.283 . S
O480 Eu458 2.363 . S
O481 C441 1.283 . S
O481 Eu458 2.363 1_556 S
O482 C438 1.283 . S
O482 Eu457 2.363 . S
O483 C440 1.283 . S
O483 Eu457 2.363 1_556 S
O484 C449 1.283 . S
O484 Eu453 2.363 . S
O485 C447 1.283 . S
O485 Eu453 2.363 . S
O486 C448 1.283 . S
O486 Eu454 2.363 . S
O487 C446 1.283 . S
O487 Eu454 2.363 . S
C488 O514 1.283 . S
C488 O532 1.283 . S
C489 O515 1.283 . S
C489 O530 1.283 . S
C490 O516 1.283 . S
C490 O533 1.283 . S
C491 O517 1.283 . S
C491 O531 1.283 . S
C492 O518 1.283 . S
C492 O527 1.283 . S
C493 O519 1.283 . S
C493 O529 1.283 . S
C494 O520 1.283 . S
C494 O526 1.283 . S
C495 O521 1.283 . S
C495 O528 1.283 . S
C496 O522 1.283 . S
C496 O537 1.283 . S
C497 O523 1.283 . S
C497 O535 1.283 . S
C498 O524 1.283 . S
C498 O536 1.283 . S
C499 O525 1.283 . S
C499 O534 1.283 . S
Eu500 O501 2.370 1_455 S
Eu500 O502 2.370 . S
Eu500 O505 2.370 1_455 S
Eu500 O506 2.370 . S
Eu500 O514 2.363 . S
Eu500 O515 2.363 . S
Eu500 O528 2.363 . S
Eu500 O529 2.363 1_455 S
O501 Eu500 2.370 1_655 S
O501 Eu503 2.370 . S
O501 Eu508 2.370 1_655 S
O502 Eu500 2.370 . S
O502 Eu504 2.370 . S
O502 Eu507 2.370 . S
Eu503 O501 2.370 . S
Eu503 O505 2.370 . S
Eu503 O509 2.370 . S
Eu503 O510 2.370 . S
Eu503 O518 2.363 . S
Eu503 O519 2.363 . S
Eu503 O534 2.363 . S
Eu503 O535 2.363 . S
Eu504 O502 2.370 . S
Eu504 O506 2.370 . S
Eu504 O511 2.370 . S
Eu504 O512 2.370 . S
Eu504 O520 2.363 . S
Eu504 O521 2.363 . S
Eu504 O536 2.363 . S
Eu504 O537 2.363 . S
O505 Eu500 2.370 1_655 S
O505 Eu503 2.370 . S
O505 Eu507 2.370 1_655 S
O506 Eu500 2.370 . S
O506 Eu504 2.370 . S
O506 Eu508 2.370 . S
Eu507 O502 2.370 . S
Eu507 O505 2.370 1_455 S
Eu507 O509 2.370 1_455 S
Eu507 O512 2.370 . S
Eu507 O524 2.363 . S
Eu507 O525 2.363 1_455 S
Eu507 O532 2.363 . S
Eu507 O533 2.363 . S
Eu508 O501 2.370 1_455 S
Eu508 O506 2.370 . S
Eu508 O510 2.370 1_455 S
Eu508 O511 2.370 . S
Eu508 O522 2.363 . S
Eu508 O523 2.363 1_455 S
Eu508 O530 2.363 . S
Eu508 O531 2.363 . S
O509 Eu503 2.370 . S
O509 Eu507 2.370 1_655 S
O509 Eu513 2.370 1_655 S
O510 Eu503 2.370 . S
O510 Eu508 2.370 1_655 S
O510 Eu513 2.370 1_655 S
O511 Eu504 2.370 . S
O511 Eu508 2.370 . S
O511 Eu513 2.370 . S
O512 Eu504 2.370 . S
O512 Eu507 2.370 . S
O512 Eu513 2.370 . S
Eu513 O509 2.370 1_455 S
Eu513 O510 2.370 1_455 S
Eu513 O511 2.370 . S
Eu513 O512 2.370 . S
Eu513 O516 2.363 . S
Eu513 O517 2.363 . S
Eu513 O526 2.363 . S
Eu513 O527 2.363 1_455 S
O514 C488 1.283 . S
O514 Eu500 2.363 . S
O515 C489 1.283 . S
O515 Eu500 2.363 . S
O516 C490 1.283 . S
O516 Eu513 2.363 . S
O517 C491 1.283 . S
O517 Eu513 2.363 . S
O518 C492 1.283 . S
O518 Eu503 2.363 . S
O519 C493 1.283 . S
O519 Eu503 2.363 . S
O520 C494 1.283 . S
O520 Eu504 2.363 . S
O521 C495 1.283 . S
O521 Eu504 2.363 . S
O522 C496 1.283 . S
O522 Eu508 2.363 . S
O523 C497 1.283 . S
O523 Eu508 2.363 1_655 S
O524 C498 1.283 . S
O524 Eu507 2.363 . S
O525 C499 1.283 . S
O525 Eu507 2.363 1_655 S
O526 C494 1.283 . S
O526 Eu513 2.363 . S
O527 C492 1.283 . S
O527 Eu513 2.363 1_655 S
O528 C495 1.283 . S
O528 Eu500 2.363 . S
O529 C493 1.283 . S
O529 Eu500 2.363 1_655 S
O530 C489 1.283 . S
O530 Eu508 2.363 . S
O531 C491 1.283 . S
O531 Eu508 2.363 . S
O532 C488 1.283 . S
O532 Eu507 2.363 . S
O533 C490 1.283 . S
O533 Eu507 2.363 . S
O534 C499 1.283 . S
O534 Eu503 2.363 . S
O535 C497 1.283 . S
O535 Eu503 2.363 . S
O536 C498 1.283 . S
O536 Eu504 2.363 . S
O537 C496 1.283 . S
O537 Eu504 2.363 . S
C538 O564 1.283 . S
C538 O582 1.283 . S
C539 O565 1.283 . S
C539 O580 1.283 . S
C540 O566 1.283 . S
C540 O583 1.283 . S
C541 O567 1.283 . S
C541 O581 1.283 . S
C542 O568 1.283 . S
C542 O577 1.283 . S
C543 O569 1.283 . S
C543 O579 1.283 . S
C544 O570 1.283 . S
C544 O576 1.283 . S
C545 O571 1.283 . S
C545 O578 1.283 . S
C546 O572 1.283 . S
C546 O587 1.283 . S
C547 O573 1.283 . S
C547 O585 1.283 . S
C548 O574 1.283 . S
C548 O586 1.283 . S
C549 O575 1.283 . S
C549 O584 1.283 . S
Eu550 O551 2.370 . S
Eu550 O552 2.370 . S
Eu550 O555 2.370 . S
Eu550 O556 2.370 . S
Eu550 O564 2.363 . S
Eu550 O565 2.363 . S
Eu550 O578 2.363 . S
Eu550 O579 2.363 . S
O551 Eu550 2.370 . S
O551 Eu553 2.366 1_565 S
O551 Eu558 2.365 1_565 S
O552 Eu550 2.370 . S
O552 Eu554 2.366 1_565 S
O552 Eu557 2.367 1_565 S
Eu553 O551 2.366 1_545 S
Eu553 O555 2.366 1_545 S
Eu553 O559 2.374 . S
Eu553 O560 2.374 . S
Eu553 O568 2.369 . S
Eu553 O569 2.357 1_545 S
Eu553 O584 2.363 . S
Eu553 O585 2.363 . S
Eu554 O552 2.366 1_545 S
Eu554 O556 2.366 1_545 S
Eu554 O561 2.374 . S
Eu554 O562 2.374 . S
Eu554 O570 2.369 . S
Eu554 O571 2.357 1_545 S
Eu554 O586 2.363 . S
Eu554 O587 2.363 . S
O555 Eu550 2.370 . S
O555 Eu553 2.366 1_565 S
O555 Eu557 2.367 1_565 S
O556 Eu550 2.370 . S
O556 Eu554 2.366 1_565 S
O556 Eu558 2.365 1_565 S
Eu557 O552 2.367 1_545 S
Eu557 O555 2.367 1_545 S
Eu557 O559 2.373 . S
Eu557 O562 2.373 . S
Eu557 O574 2.363 . S
Eu557 O575 2.363 . S
Eu557 O582 2.358 1_545 S
Eu557 O583 2.368 . S
Eu558 O551 2.365 1_545 S
Eu558 O556 2.365 1_545 S
Eu558 O560 2.375 . S
Eu558 O561 2.375 . S
Eu558 O572 2.363 . S
Eu558 O573 2.363 . S
Eu558 O580 2.355 1_545 S
Eu558 O581 2.371 . S
O559 Eu553 2.374 . S
O559 Eu557 2.373 . S
O559 Eu563 2.370 . S
O560 Eu553 2.374 . S
O560 Eu558 2.375 . S
O560 Eu563 2.370 . S
O561 Eu554 2.374 . S
O561 Eu558 2.375 . S
O561 Eu563 2.370 . S
O562 Eu554 2.374 . S
O562 Eu557 2.373 . S
O562 Eu563 2.370 . S
Eu563 O559 2.370 . S
Eu563 O560 2.370 . S
Eu563 O561 2.370 . S
Eu563 O562 2.370 . S
Eu563 O566 2.363 . S
Eu563 O567 2.363 . S
Eu563 O576 2.363 . S
Eu563 O577 2.363 . S
O564 C538 1.283 . S
O564 Eu550 2.363 . S
O565 C539 1.283 . S
O565 Eu550 2.363 . S
O566 C540 1.283 . S
O566 Eu563 2.363 . S
O567 C541 1.283 . S
O567 Eu563 2.363 . S
O568 C542 1.283 . S
O568 Eu553 2.369 . S
O569 C543 1.283 . S
O569 Eu553 2.357 1_565 S
O570 C544 1.283 . S
O570 Eu554 2.369 . S
O571 C545 1.283 . S
O571 Eu554 2.357 1_565 S
O572 C546 1.283 . S
O572 Eu558 2.363 . S
O573 C547 1.283 . S
O573 Eu558 2.363 . S
O574 C548 1.283 . S
O574 Eu557 2.363 . S
O575 C549 1.283 . S
O575 Eu557 2.363 . S
O576 C544 1.283 . S
O576 Eu563 2.363 . S
O577 C542 1.283 . S
O577 Eu563 2.363 . S
O578 C545 1.283 . S
O578 Eu550 2.363 . S
O579 C543 1.283 . S
O579 Eu550 2.363 . S
O580 C539 1.283 . S
O580 Eu558 2.355 1_565 S
O581 C541 1.283 . S
O581 Eu558 2.371 . S
O582 C538 1.283 . S
O582 Eu557 2.358 1_565 S
O583 C540 1.283 . S
O583 Eu557 2.368 . S
O584 C549 1.283 . S
O584 Eu553 2.363 . S
O585 C547 1.283 . S
O585 Eu553 2.363 . S
O586 C548 1.283 . S
O586 Eu554 2.363 . S
O587 C546 1.283 . S
O587 Eu554 2.363 . S
H588 C596 0.950 . S
H589 C601 0.950 . S
H590 C598 0.950 . S
H591 C600 0.950 . S
H592 C602 0.950 . S
H593 C604 0.950 . S
H594 C606 0.950 . S
H595 C607 0.950 . S
C596 H588 0.950 . S
C596 C597 1.386 . S
C596 C598 1.391 . S
C597 C596 1.386 . S
C597 C601 1.393 . S
C598 H590 0.950 . S
C598 C596 1.391 . S
C598 C599 1.400 . S
C599 C598 1.400 . S
C599 C600 1.398 . S
C599 C605 1.491 . S
C600 H591 0.950 . S
C600 C599 1.398 . S
C600 C601 1.391 . S
C601 H589 0.950 . S
C601 C597 1.393 . S
C601 C600 1.391 . S
C602 H592 0.950 . S
C602 C603 1.386 . S
C602 C604 1.391 . S
C603 C602 1.386 . S
C603 C607 1.393 . S
C604 H593 0.950 . S
C604 C602 1.391 . S
C604 C605 1.400 . S
C605 C599 1.491 . S
C605 C604 1.400 . S
C605 C606 1.398 . S
C606 H594 0.950 . S
C606 C605 1.398 . S
C606 C607 1.391 . S
C607 H595 0.950 . S
C607 C603 1.393 . S
C607 C606 1.391 . S
H608 C616 0.950 . S
H609 C621 0.950 . S
H610 C618 0.950 . S
H611 C620 0.950 . S
H612 C622 0.950 . S
H613 C624 0.950 . S
H614 C626 0.950 . S
H615 C627 0.950 . S
C616 H608 0.950 . S
C616 C617 1.386 . S
C616 C618 1.391 . S
C617 C616 1.386 . S
C617 C621 1.393 . S
C618 H610 0.950 . S
C618 C616 1.391 . S
C618 C619 1.400 . S
C619 C618 1.400 . S
C619 C620 1.398 . S
C619 C625 1.491 . S
C620 H611 0.950 . S
C620 C619 1.398 . S
C620 C621 1.391 . S
C621 H609 0.950 . S
C621 C617 1.393 . S
C621 C620 1.391 . S
C622 H612 0.950 . S
C622 C623 1.386 . S
C622 C624 1.391 . S
C623 C622 1.386 . S
C623 C627 1.393 . S
C624 H613 0.950 . S
C624 C622 1.391 . S
C624 C625 1.400 . S
C625 C619 1.491 . S
C625 C624 1.400 . S
C625 C626 1.398 . S
C626 H614 0.950 . S
C626 C625 1.398 . S
C626 C627 1.391 . S
C627 H615 0.950 . S
C627 C623 1.393 . S
C627 C626 1.391 . S
H628 C636 0.950 . S
H629 C641 0.950 . S
H630 C638 0.950 . S
H631 C640 0.950 . S
H632 C642 0.950 . S
H633 C644 0.950 . S
H634 C646 0.950 . S
H635 C647 0.950 . S
C636 H628 0.950 . S
C636 C637 1.386 . S
C636 C638 1.391 . S
C637 C636 1.386 . S
C637 C641 1.393 . S
C638 H630 0.950 . S
C638 C636 1.391 . S
C638 C639 1.400 . S
C639 C638 1.400 . S
C639 C640 1.398 . S
C639 C645 1.491 . S
C640 H631 0.950 . S
C640 C639 1.398 . S
C640 C641 1.391 . S
C641 H629 0.950 . S
C641 C637 1.393 . S
C641 C640 1.391 . S
C642 H632 0.950 . S
C642 C643 1.386 . S
C642 C644 1.391 . S
C643 C642 1.386 . S
C643 C647 1.393 . S
C644 H633 0.950 . S
C644 C642 1.391 . S
C644 C645 1.400 . S
C645 C639 1.491 . S
C645 C644 1.400 . S
C645 C646 1.398 . S
C646 H634 0.950 . S
C646 C645 1.398 . S
C646 C647 1.391 . S
C647 H635 0.950 . S
C647 C643 1.393 . S
C647 C646 1.391 . S
H648 C656 0.950 . S
H649 C661 0.950 . S
H650 C658 0.950 . S
H651 C660 0.950 . S
H652 C662 0.950 . S
H653 C664 0.950 . S
H654 C666 0.950 . S
H655 C667 0.950 . S
C656 H648 0.950 . S
C656 C657 1.386 . S
C656 C658 1.391 . S
C657 C656 1.386 . S
C657 C661 1.393 . S
C658 H650 0.950 . S
C658 C656 1.391 . S
C658 C659 1.400 . S
C659 C658 1.400 . S
C659 C660 1.398 . S
C659 C665 1.491 . S
C660 H651 0.950 . S
C660 C659 1.398 . S
C660 C661 1.391 . S
C661 H649 0.950 . S
C661 C657 1.393 . S
C661 C660 1.391 . S
C662 H652 0.950 . S
C662 C663 1.386 . S
C662 C664 1.391 . S
C663 C662 1.386 . S
C663 C667 1.393 . S
C664 H653 0.950 . S
C664 C662 1.391 . S
C664 C665 1.400 . S
C665 C659 1.491 . S
C665 C664 1.400 . S
C665 C666 1.398 . S
C666 H654 0.950 . S
C666 C665 1.398 . S
C666 C667 1.391 . S
C667 H655 0.950 . S
C667 C663 1.393 . S
C667 C666 1.391 . S
H668 C676 0.950 . S
H669 C681 0.950 . S
H670 C678 0.950 . S
H671 C680 0.950 . S
H672 C682 0.950 . S
H673 C684 0.950 . S
H674 C686 0.950 . S
H675 C687 0.950 . S
C676 H668 0.950 . S
C676 C677 1.386 . S
C676 C678 1.391 . S
C677 C676 1.386 . S
C677 C681 1.393 . S
C678 H670 0.950 . S
C678 C676 1.391 . S
C678 C679 1.400 . S
C679 C678 1.400 . S
C679 C680 1.398 . S
C679 C685 1.491 . S
C680 H671 0.950 . S
C680 C679 1.398 . S
C680 C681 1.391 . S
C681 H669 0.950 . S
C681 C677 1.393 . S
C681 C680 1.391 . S
C682 H672 0.950 . S
C682 C683 1.386 . S
C682 C684 1.391 . S
C683 C682 1.386 . S
C683 C687 1.393 . S
C684 H673 0.950 . S
C684 C682 1.391 . S
C684 C685 1.400 . S
C685 C679 1.491 . S
C685 C684 1.400 . S
C685 C686 1.398 . S
C686 H674 0.950 . S
C686 C685 1.398 . S
C686 C687 1.391 . S
C687 H675 0.950 . S
C687 C683 1.393 . S
C687 C686 1.391 . S
H688 C696 0.950 . S
H689 C701 0.950 . S
H690 C698 0.950 . S
H691 C700 0.950 . S
H692 C702 0.950 . S
H693 C704 0.950 . S
H694 C706 0.950 . S
H695 C707 0.950 . S
C696 H688 0.950 . S
C696 C697 1.386 . S
C696 C698 1.391 . S
C697 C696 1.386 . S
C697 C701 1.393 . S
C698 H690 0.950 . S
C698 C696 1.391 . S
C698 C699 1.400 . S
C699 C698 1.400 . S
C699 C700 1.398 . S
C699 C705 1.491 . S
C700 H691 0.950 . S
C700 C699 1.398 . S
C700 C701 1.391 . S
C701 H689 0.950 . S
C701 C697 1.393 . S
C701 C700 1.391 . S
C702 H692 0.950 . S
C702 C703 1.386 . S
C702 C704 1.391 . S
C703 C702 1.386 . S
C703 C707 1.393 . S
C704 H693 0.950 . S
C704 C702 1.391 . S
C704 C705 1.400 . S
C705 C699 1.491 . S
C705 C704 1.400 . S
C705 C706 1.398 . S
C706 H694 0.950 . S
C706 C705 1.398 . S
C706 C707 1.391 . S
C707 H695 0.950 . S
C707 C703 1.393 . S
C707 C706 1.391 . S
H708 C716 0.950 . S
H709 C721 0.950 . S
H710 C718 0.950 . S
H711 C720 0.950 . S
H712 C722 0.950 . S
H713 C724 0.950 . S
H714 C726 0.950 . S
H715 C727 0.950 . S
C716 H708 0.950 . S
C716 C717 1.386 . S
C716 C718 1.391 . S
C717 C716 1.386 . S
C717 C721 1.393 . S
C718 H710 0.950 . S
C718 C716 1.391 . S
C718 C719 1.400 . S
C719 C718 1.400 . S
C719 C720 1.398 . S
C719 C725 1.491 . S
C720 H711 0.950 . S
C720 C719 1.398 . S
C720 C721 1.391 . S
C721 H709 0.950 . S
C721 C717 1.393 . S
C721 C720 1.391 . S
C722 H712 0.950 . S
C722 C723 1.386 . S
C722 C724 1.391 . S
C723 C722 1.386 . S
C723 C727 1.393 . S
C724 H713 0.950 . S
C724 C722 1.391 . S
C724 C725 1.400 . S
C725 C719 1.491 . S
C725 C724 1.400 . S
C725 C726 1.398 . S
C726 H714 0.950 . S
C726 C725 1.398 . S
C726 C727 1.391 . S
C727 H715 0.950 . S
C727 C723 1.393 . S
C727 C726 1.391 . S
H728 C736 0.950 . S
H729 C741 0.950 . S
H730 C738 0.950 . S
H731 C740 0.950 . S
H732 C742 0.950 . S
H733 C744 0.950 . S
H734 C746 0.950 . S
H735 C747 0.950 . S
C736 H728 0.950 . S
C736 C737 1.386 . S
C736 C738 1.391 . S
C737 C736 1.386 . S
C737 C741 1.393 . S
C738 H730 0.950 . S
C738 C736 1.391 . S
C738 C739 1.400 . S
C739 C738 1.400 . S
C739 C740 1.398 . S
C739 C745 1.491 . S
C740 H731 0.950 . S
C740 C739 1.398 . S
C740 C741 1.391 . S
C741 H729 0.950 . S
C741 C737 1.393 . S
C741 C740 1.391 . S
C742 H732 0.950 . S
C742 C743 1.386 . S
C742 C744 1.391 . S
C743 C742 1.386 . S
C743 C747 1.393 . S
C744 H733 0.950 . S
C744 C742 1.391 . S
C744 C745 1.400 . S
C745 C739 1.491 . S
C745 C744 1.400 . S
C745 C746 1.398 . S
C746 H734 0.950 . S
C746 C745 1.398 . S
C746 C747 1.391 . S
C747 H735 0.950 . S
C747 C743 1.393 . S
C747 C746 1.391 . S
H748 C756 0.950 . S
H749 C761 0.950 . S
H750 C758 0.950 . S
H751 C760 0.950 . S
H752 C762 0.950 . S
H753 C764 0.950 . S
H754 C766 0.950 . S
H755 C767 0.950 . S
C756 H748 0.950 . S
C756 C757 1.386 . S
C756 C758 1.391 . S
C757 C756 1.386 . S
C757 C761 1.393 . S
C758 H750 0.950 . S
C758 C756 1.391 . S
C758 C759 1.400 . S
C759 C758 1.400 . S
C759 C760 1.398 . S
C759 C765 1.491 . S
C760 H751 0.950 . S
C760 C759 1.398 . S
C760 C761 1.391 . S
C761 H749 0.950 . S
C761 C757 1.393 . S
C761 C760 1.391 . S
C762 H752 0.950 . S
C762 C763 1.386 . S
C762 C764 1.391 . S
C763 C762 1.386 . S
C763 C767 1.393 . S
C764 H753 0.950 . S
C764 C762 1.391 . S
C764 C765 1.400 . S
C765 C759 1.491 . S
C765 C764 1.400 . S
C765 C766 1.398 . S
C766 H754 0.950 . S
C766 C765 1.398 . S
C766 C767 1.391 . S
C767 H755 0.950 . S
C767 C763 1.393 . S
C767 C766 1.391 . S
H768 C776 0.950 . S
H769 C781 0.950 . S
H770 C778 0.950 . S
H771 C780 0.950 . S
H772 C782 0.950 . S
H773 C784 0.950 . S
H774 C786 0.950 . S
H775 C787 0.950 . S
C776 H768 0.950 . S
C776 C777 1.386 . S
C776 C778 1.391 . S
C777 C776 1.386 . S
C777 C781 1.393 . S
C778 H770 0.950 . S
C778 C776 1.391 . S
C778 C779 1.400 . S
C779 C778 1.400 . S
C779 C780 1.398 . S
C779 C785 1.491 . S
C780 H771 0.950 . S
C780 C779 1.398 . S
C780 C781 1.391 . S
C781 H769 0.950 . S
C781 C777 1.393 . S
C781 C780 1.391 . S
C782 H772 0.950 . S
C782 C783 1.386 . S
C782 C784 1.391 . S
C783 C782 1.386 . S
C783 C787 1.393 . S
C784 H773 0.950 . S
C784 C782 1.391 . S
C784 C785 1.400 . S
C785 C779 1.491 . S
C785 C784 1.400 . S
C785 C786 1.398 . S
C786 H774 0.950 . S
C786 C785 1.398 . S
C786 C787 1.391 . S
C787 H775 0.950 . S
C787 C783 1.393 . S
C787 C786 1.391 . S
H788 C796 0.950 . S
H789 C801 0.950 . S
H790 C798 0.950 . S
H791 C800 0.950 . S
H792 C802 0.950 . S
H793 C804 0.950 . S
H794 C806 0.950 . S
H795 C807 0.950 . S
C796 H788 0.950 . S
C796 C797 1.386 . S
C796 C798 1.391 . S
C797 C796 1.386 . S
C797 C801 1.393 . S
C798 H790 0.950 . S
C798 C796 1.391 . S
C798 C799 1.400 . S
C799 C798 1.400 . S
C799 C800 1.398 . S
C799 C805 1.491 . S
C800 H791 0.950 . S
C800 C799 1.398 . S
C800 C801 1.391 . S
C801 H789 0.950 . S
C801 C797 1.393 . S
C801 C800 1.391 . S
C802 H792 0.950 . S
C802 C803 1.386 . S
C802 C804 1.391 . S
C803 C802 1.386 . S
C803 C807 1.393 . S
C804 H793 0.950 . S
C804 C802 1.391 . S
C804 C805 1.400 . S
C805 C799 1.491 . S
C805 C804 1.400 . S
C805 C806 1.398 . S
C806 H794 0.950 . S
C806 C805 1.398 . S
C806 C807 1.391 . S
C807 H795 0.950 . S
C807 C803 1.393 . S
C807 C806 1.391 . S
H808 C816 0.950 . S
H809 C821 0.950 . S
H810 C818 0.950 . S
H811 C820 0.950 . S
H812 C822 0.950 . S
H813 C824 0.950 . S
H814 C826 0.950 . S
H815 C827 0.950 . S
C816 H808 0.950 . S
C816 C817 1.386 . S
C816 C818 1.391 . S
C817 C816 1.386 . S
C817 C821 1.393 . S
C818 H810 0.950 . S
C818 C816 1.391 . S
C818 C819 1.400 . S
C819 C818 1.400 . S
C819 C820 1.398 . S
C819 C825 1.491 . S
C820 H811 0.950 . S
C820 C819 1.398 . S
C820 C821 1.391 . S
C821 H809 0.950 . S
C821 C817 1.393 . S
C821 C820 1.391 . S
C822 H812 0.950 . S
C822 C823 1.386 . S
C822 C824 1.391 . S
C823 C822 1.386 . S
C823 C827 1.393 . S
C824 H813 0.950 . S
C824 C822 1.391 . S
C824 C825 1.400 . S
C825 C819 1.491 . S
C825 C824 1.400 . S
C825 C826 1.398 . S
C826 H814 0.950 . S
C826 C825 1.398 . S
C826 C827 1.391 . S
C827 H815 0.950 . S
C827 C823 1.393 . S
C827 C826 1.391 . S
H828 C836 0.950 . S
H829 C841 0.950 . S
H830 C838 0.950 . S
H831 C840 0.950 . S
H832 C842 0.950 . S
H833 C844 0.950 . S
H834 C846 0.950 . S
H835 C847 0.950 . S
C836 H828 0.950 . S
C836 C837 1.386 . S
C836 C838 1.391 . S
C837 C836 1.386 . S
C837 C841 1.393 . S
C838 H830 0.950 . S
C838 C836 1.391 . S
C838 C839 1.400 . S
C839 C838 1.400 . S
C839 C840 1.398 . S
C839 C845 1.491 . S
C840 H831 0.950 . S
C840 C839 1.398 . S
C840 C841 1.391 . S
C841 H829 0.950 . S
C841 C837 1.393 . S
C841 C840 1.391 . S
C842 H832 0.950 . S
C842 C843 1.386 . S
C842 C844 1.391 . S
C843 C842 1.386 . S
C843 C847 1.393 . S
C844 H833 0.950 . S
C844 C842 1.391 . S
C844 C845 1.400 . S
C845 C839 1.491 . S
C845 C844 1.400 . S
C845 C846 1.398 . S
C846 H834 0.950 . S
C846 C845 1.398 . S
C846 C847 1.391 . S
C847 H835 0.950 . S
C847 C843 1.393 . S
C847 C846 1.391 . S
H848 C856 0.950 . S
H849 C861 0.950 . S
H850 C858 0.950 . S
H851 C860 0.950 . S
H852 C862 0.950 . S
H853 C864 0.950 . S
H854 C866 0.950 . S
H855 C867 0.950 . S
C856 H848 0.950 . S
C856 C857 1.386 . S
C856 C858 1.391 . S
C857 C856 1.386 . S
C857 C861 1.393 1_554 S
C858 H850 0.950 . S
C858 C856 1.391 . S
C858 C859 1.400 . S
C859 C858 1.400 . S
C859 C860 1.398 1_554 S
C859 C865 1.491 . S
C860 H851 0.950 . S
C860 C859 1.398 1_556 S
C860 C861 1.391 . S
C861 H849 0.950 . S
C861 C857 1.393 1_556 S
C861 C860 1.391 . S
C862 H852 0.950 . S
C862 C863 1.386 1_556 S
C862 C864 1.391 . S
C863 C862 1.386 1_554 S
C863 C867 1.393 . S
C864 H853 0.950 . S
C864 C862 1.391 . S
C864 C865 1.400 1_556 S
C865 C859 1.491 . S
C865 C864 1.400 1_554 S
C865 C866 1.398 . S
C866 H854 0.950 . S
C866 C865 1.398 . S
C866 C867 1.391 . S
C867 H855 0.950 . S
C867 C863 1.393 . S
C867 C866 1.391 . S
H868 C876 0.950 . S
H869 C881 0.950 . S
H870 C878 0.950 . S
H871 C880 0.950 . S
H872 C882 0.950 . S
H873 C884 0.950 . S
H874 C886 0.950 . S
H875 C887 0.950 . S
C876 H868 0.950 . S
C876 C877 1.386 . S
C876 C878 1.391 . S
C877 C876 1.386 . S
C877 C881 1.393 1_554 S
C878 H870 0.950 . S
C878 C876 1.391 . S
C878 C879 1.400 . S
C879 C878 1.400 . S
C879 C880 1.398 1_554 S
C879 C885 1.491 . S
C880 H871 0.950 . S
C880 C879 1.398 1_556 S
C880 C881 1.391 . S
C881 H869 0.950 . S
C881 C877 1.393 1_556 S
C881 C880 1.391 . S
C882 H872 0.950 . S
C882 C883 1.386 1_556 S
C882 C884 1.391 . S
C883 C882 1.386 1_554 S
C883 C887 1.393 . S
C884 H873 0.950 . S
C884 C882 1.391 . S
C884 C885 1.400 1_556 S
C885 C879 1.491 . S
C885 C884 1.400 1_554 S
C885 C886 1.398 . S
C886 H874 0.950 . S
C886 C885 1.398 . S
C886 C887 1.391 . S
C887 H875 0.950 . S
C887 C883 1.393 . S
C887 C886 1.391 . S
H888 C896 0.950 . S
H889 C901 0.950 . S
H890 C898 0.950 . S
H891 C900 0.950 . S
H892 C902 0.950 . S
H893 C904 0.950 . S
H894 C906 0.950 . S
H895 C907 0.950 . S
C896 H888 0.950 . S
C896 C897 1.386 . S
C896 C898 1.391 . S
C897 C896 1.386 . S
C897 C901 1.393 1_554 S
C898 H890 0.950 . S
C898 C896 1.391 . S
C898 C899 1.400 . S
C899 C898 1.400 . S
C899 C900 1.398 1_554 S
C899 C905 1.491 . S
C900 H891 0.950 . S
C900 C899 1.398 1_556 S
C900 C901 1.391 . S
C901 H889 0.950 . S
C901 C897 1.393 1_556 S
C901 C900 1.391 . S
C902 H892 0.950 . S
C902 C903 1.386 1_556 S
C902 C904 1.391 . S
C903 C902 1.386 1_554 S
C903 C907 1.393 . S
C904 H893 0.950 . S
C904 C902 1.391 . S
C904 C905 1.400 1_556 S
C905 C899 1.491 . S
C905 C904 1.400 1_554 S
C905 C906 1.398 . S
C906 H894 0.950 . S
C906 C905 1.398 . S
C906 C907 1.391 . S
C907 H895 0.950 . S
C907 C903 1.393 . S
C907 C906 1.391 . S
H908 C916 0.945 1_655 S
H909 C921 0.950 . S
H910 C918 0.950 1_655 S
H911 C920 0.950 . S
H912 C922 0.950 . S
H913 C924 0.950 . S
H914 C926 0.950 . S
H915 C927 0.952 . S
C916 H908 0.945 1_455 S
C916 C917 1.390 . S
C916 C918 1.392 . S
C917 C916 1.390 . S
C917 C921 1.393 . S
C918 H910 0.950 1_455 S
C918 C916 1.392 . S
C918 C919 1.400 . S
C919 C918 1.400 . S
C919 C920 1.398 . S
C919 C925 1.491 . S
C920 H911 0.950 . S
C920 C919 1.398 . S
C920 C921 1.391 . S
C921 H909 0.950 . S
C921 C917 1.393 . S
C921 C920 1.391 . S
C922 H912 0.950 . S
C922 C923 1.386 . S
C922 C924 1.391 . S
C923 C922 1.386 . S
C923 C927 1.393 . S
C924 H913 0.950 . S
C924 C922 1.391 . S
C924 C925 1.400 . S
C925 C919 1.491 . S
C925 C924 1.400 . S
C925 C926 1.398 . S
C926 H914 0.950 . S
C926 C925 1.398 . S
C926 C927 1.391 . S
C927 H915 0.952 . S
C927 C923 1.393 . S
C927 C926 1.391 . S
H928 C936 0.950 . S
H929 C941 0.950 . S
H930 C938 0.950 . S
H931 C940 0.950 . S
H932 C942 0.950 . S
H933 C944 0.950 . S
H934 C946 0.950 . S
H935 C947 0.950 . S
C936 H928 0.950 . S
C936 C937 1.397 . S
C936 C938 1.391 . S
C937 C936 1.397 . S
C937 C941 1.382 1_565 S
C938 H930 0.950 . S
C938 C936 1.391 . S
C938 C939 1.401 . S
C939 C938 1.401 . S
C939 C940 1.397 1_565 S
C939 C945 1.490 1_565 S
C940 H931 0.950 . S
C940 C939 1.397 1_545 S
C940 C941 1.391 . S
C941 H929 0.950 . S
C941 C937 1.382 1_545 S
C941 C940 1.391 . S
C942 H932 0.950 . S
C942 C943 1.410 . S
C942 C944 1.391 . S
C943 C942 1.410 . S
C943 C947 1.370 1_545 S
C944 H933 0.950 . S
C944 C942 1.391 . S
C944 C945 1.414 . S
C945 C939 1.490 1_545 S
C945 C944 1.414 . S
C945 C946 1.386 1_545 S
C946 H934 0.950 . S
C946 C945 1.386 1_565 S
C946 C947 1.391 . S
C947 H935 0.950 . S
C947 C943 1.370 1_565 S
C947 C946 1.391 . S
H948 C956 0.950 . S
H949 C961 0.950 . S
H950 C958 0.950 . S
H951 C960 0.950 . S
H952 C962 0.950 . S
H953 C964 0.950 . S
H954 C966 0.950 . S
H955 C967 0.950 . S
C956 H948 0.950 . S
C956 C957 1.386 1_655 S
C956 C958 1.391 . S
C957 C956 1.386 1_455 S
C957 C961 1.393 . S
C958 H950 0.950 . S
C958 C956 1.391 . S
C958 C959 1.400 1_655 S
C959 C958 1.400 1_455 S
C959 C960 1.398 . S
C959 C965 1.491 . S
C960 H951 0.950 . S
C960 C959 1.398 . S
C960 C961 1.391 . S
C961 H949 0.950 . S
C961 C957 1.393 . S
C961 C960 1.391 . S
C962 H952 0.950 . S
C962 C963 1.386 . S
C962 C964 1.391 . S
C963 C962 1.386 . S
C963 C967 1.393 1_455 S
C964 H953 0.950 . S
C964 C962 1.391 . S
C964 C965 1.400 . S
C965 C959 1.491 . S
C965 C964 1.400 . S
C965 C966 1.398 1_455 S
C966 H954 0.950 . S
C966 C965 1.398 1_655 S
C966 C967 1.391 . S
C967 H955 0.950 . S
C967 C963 1.393 1_655 S
C967 C966 1.391 . S
H968 C976 0.950 . S
H969 C981 0.950 . S
H970 C978 0.950 . S
H971 C980 0.950 . S
H972 C982 0.950 . S
H973 C984 0.950 . S
H974 C986 0.950 . S
H975 C987 0.950 . S
C976 H968 0.950 . S
C976 C977 1.395 . S
C976 C978 1.391 . S
C977 C976 1.395 . S
C977 C981 1.384 1_565 S
C978 H970 0.950 . S
C978 C976 1.391 . S
C978 C979 1.400 . S
C979 C978 1.400 . S
C979 C980 1.399 1_565 S
C979 C985 1.490 1_565 S
C980 H971 0.950 . S
C980 C979 1.399 1_545 S
C980 C981 1.391 . S
C981 H969 0.950 . S
C981 C977 1.384 1_545 S
C981 C980 1.391 . S
C982 H972 0.950 . S
C982 C983 1.409 . S
C982 C984 1.391 . S
C983 C982 1.409 . S
C983 C987 1.370 1_545 S
C984 H973 0.950 . S
C984 C982 1.391 . S
C984 C985 1.413 . S
C985 C979 1.490 1_545 S
C985 C984 1.413 . S
C985 C986 1.386 1_545 S
C986 H974 0.950 . S
C986 C985 1.386 1_565 S
C986 C987 1.391 . S
C987 H975 0.950 . S
C987 C983 1.370 1_565 S
C987 C986 1.391 . S
H988 C996 0.950 . S
H989 C1001 0.950 . S
H990 C998 0.950 . S
H991 C1000 0.950 . S
H992 C1002 0.950 . S
H993 C1004 0.950 . S
H994 C1006 0.950 . S
H995 C1007 0.950 . S
C996 H988 0.950 . S
C996 C997 1.386 . S
C996 C998 1.391 . S
C997 C996 1.386 . S
C997 C1001 1.393 1_455 S
C998 H990 0.950 . S
C998 C996 1.391 . S
C998 C999 1.400 . S
C999 C998 1.400 . S
C999 C1000 1.398 1_455 S
C999 C1005 1.491 . S
C1000 H991 0.950 . S
C1000 C999 1.398 1_655 S
C1000 C1001 1.391 . S
C1001 H989 0.950 . S
C1001 C997 1.393 1_655 S
C1001 C1000 1.391 . S
C1002 H992 0.950 . S
C1002 C1003 1.386 1_655 S
C1002 C1004 1.391 . S
C1003 C1002 1.386 1_455 S
C1003 C1007 1.393 . S
C1004 H993 0.950 . S
C1004 C1002 1.391 . S
C1004 C1005 1.400 1_655 S
C1005 C999 1.491 . S
C1005 C1004 1.400 1_455 S
C1005 C1006 1.398 . S
C1006 H994 0.950 . S
C1006 C1005 1.398 . S
C1006 C1007 1.391 . S
C1007 H995 0.950 . S
C1007 C1003 1.393 . S
C1007 C1006 1.391 . S
H1008 C1016 0.950 . S
H1009 C1021 0.950 . S
H1010 C1018 0.950 . S
H1011 C1020 0.950 . S
H1012 C1022 0.950 . S
H1013 C1024 0.950 . S
H1014 C1026 0.950 . S
H1015 C1027 0.950 . S
C1016 H1008 0.950 . S
C1016 C1017 1.400 . S
C1016 C1018 1.391 . S
C1017 C1016 1.400 . S
C1017 C1021 1.379 1_545 S
C1018 H1010 0.950 . S
C1018 C1016 1.391 . S
C1018 C1019 1.413 . S
C1019 C1018 1.413 . S
C1019 C1020 1.386 1_545 S
C1019 C1025 1.491 . S
C1020 H1011 0.950 . S
C1020 C1019 1.386 1_565 S
C1020 C1021 1.391 . S
C1021 H1009 0.950 . S
C1021 C1017 1.379 1_565 S
C1021 C1020 1.391 . S
C1022 H1012 0.950 . S
C1022 C1023 1.375 1_565 S
C1022 C1024 1.391 . S
C1023 C1022 1.375 1_545 S
C1023 C1027 1.404 . S
C1024 H1013 0.950 . S
C1024 C1022 1.391 . S
C1024 C1025 1.388 1_565 S
C1025 C1019 1.491 . S
C1025 C1024 1.388 1_545 S
C1025 C1026 1.410 . S
C1026 H1014 0.950 . S
C1026 C1025 1.410 . S
C1026 C1027 1.391 . S
C1027 H1015 0.950 . S
C1027 C1023 1.404 . S
C1027 C1026 1.391 . S
H1028 C1036 0.950 . S
H1029 C1041 0.950 . S
H1030 C1038 0.950 . S
H1031 C1040 0.950 . S
H1032 C1042 0.954 . S
H1033 C1044 0.950 . S
H1034 C1046 0.950 . S
H1035 C1047 0.950 . S
C1036 H1028 0.950 . S
C1036 C1037 1.386 . S
C1036 C1038 1.391 . S
C1037 C1036 1.386 . S
C1037 C1041 1.393 . S
C1038 H1030 0.950 . S
C1038 C1036 1.391 . S
C1038 C1039 1.400 . S
C1039 C1038 1.400 . S
C1039 C1040 1.398 . S
C1039 C1045 1.491 . S
C1040 H1031 0.950 . S
C1040 C1039 1.398 . S
C1040 C1041 1.391 . S
C1041 H1029 0.950 . S
C1041 C1037 1.393 . S
C1041 C1040 1.391 . S
C1042 H1032 0.954 . S
C1042 C1043 1.386 . S
C1042 C1044 1.391 . S
C1043 C1042 1.386 . S
C1043 C1047 1.393 . S
C1044 H1033 0.950 . S
C1044 C1042 1.391 . S
C1044 C1045 1.400 . S
C1045 C1039 1.491 . S
C1045 C1044 1.400 . S
C1045 C1046 1.398 . S
C1046 H1034 0.950 . S
C1046 C1045 1.398 . S
C1046 C1047 1.391 . S
C1047 H1035 0.950 . S
C1047 C1043 1.393 . S
C1047 C1046 1.391 . S
H1048 C1056 0.950 . S
H1049 C1061 0.950 . S
H1050 C1058 0.950 . S
H1051 C1060 0.950 . S
H1052 C1062 0.950 . S
H1053 C1064 0.950 . S
H1054 C1066 0.950 . S
H1055 C1067 0.950 . S
C1056 H1048 0.950 . S
C1056 C1057 1.416 . S
C1056 C1058 1.391 . S
C1057 C1056 1.416 . S
C1057 C1061 1.364 1_545 S
C1058 H1050 0.950 . S
C1058 C1056 1.391 . S
C1058 C1059 1.420 . S
C1059 C1058 1.420 . S
C1059 C1060 1.380 1_545 S
C1059 C1065 1.490 . S
C1060 H1051 0.950 . S
C1060 C1059 1.380 1_565 S
C1060 C1061 1.391 . S
C1061 H1049 0.950 . S
C1061 C1057 1.364 1_565 S
C1061 C1060 1.391 . S
C1062 H1052 0.950 . S
C1062 C1063 1.389 . S
C1062 C1064 1.391 . S
C1063 C1062 1.389 . S
C1063 C1067 1.389 1_565 S
C1064 H1053 0.950 . S
C1064 C1062 1.391 . S
C1064 C1065 1.400 1_565 S
C1065 C1059 1.490 . S
C1065 C1064 1.400 1_545 S
C1065 C1066 1.398 . S
C1066 H1054 0.950 . S
C1066 C1065 1.398 . S
C1066 C1067 1.391 . S
C1067 H1055 0.950 . S
C1067 C1063 1.389 1_545 S
C1067 C1066 1.391 . S
H1068 C1076 0.950 . S
H1069 C1081 0.950 . S
H1070 C1078 0.950 . S
H1071 C1080 0.950 . S
H1072 C1082 0.950 . S
H1073 C1084 0.950 . S
H1074 C1086 0.950 . S
H1075 C1087 0.950 . S
C1076 H1068 0.950 . S
C1076 C1077 1.386 1_655 S
C1076 C1078 1.391 . S
C1077 C1076 1.386 1_455 S
C1077 C1081 1.393 . S
C1078 H1070 0.950 . S
C1078 C1076 1.391 . S
C1078 C1079 1.400 1_655 S
C1079 C1078 1.400 1_455 S
C1079 C1080 1.398 . S
C1079 C1085 1.491 . S
C1080 H1071 0.950 . S
C1080 C1079 1.398 . S
C1080 C1081 1.391 . S
C1081 H1069 0.950 . S
C1081 C1077 1.393 . S
C1081 C1080 1.391 . S
C1082 H1072 0.950 . S
C1082 C1083 1.386 . S
C1082 C1084 1.391 . S
C1083 C1082 1.386 . S
C1083 C1087 1.393 1_455 S
C1084 H1073 0.950 . S
C1084 C1082 1.391 . S
C1084 C1085 1.400 . S
C1085 C1079 1.491 . S
C1085 C1084 1.400 . S
C1085 C1086 1.398 1_455 S
C1086 H1074 0.950 . S
C1086 C1085 1.398 1_655 S
C1086 C1087 1.391 . S
C1087 H1075 0.950 . S
C1087 C1083 1.393 1_655 S
C1087 C1086 1.391 . S
H1088 C1096 0.950 . S
H1089 C1101 0.950 . S
H1090 C1098 0.950 . S
H1091 C1100 0.950 . S
H1092 C1102 0.950 . S
H1093 C1104 0.950 . S
H1094 C1106 0.950 . S
H1095 C1107 0.950 . S
C1096 H1088 0.950 . S
C1096 C1097 1.391 . S
C1096 C1098 1.391 . S
C1097 C1096 1.391 . S
C1097 C1101 1.387 1_545 S
C1098 H1090 0.950 . S
C1098 C1096 1.391 . S
C1098 C1099 1.408 . S
C1099 C1098 1.408 . S
C1099 C1100 1.390 1_545 S
C1099 C1105 1.491 . S
C1100 H1091 0.950 . S
C1100 C1099 1.390 1_565 S
C1100 C1101 1.391 . S
C1101 H1089 0.950 . S
C1101 C1097 1.387 1_565 S
C1101 C1100 1.391 . S
C1102 H1092 0.950 . S
C1102 C1103 1.367 1_565 S
C1102 C1104 1.391 . S
C1103 C1102 1.367 1_545 S
C1103 C1107 1.412 . S
C1104 H1093 0.950 . S
C1104 C1102 1.391 . S
C1104 C1105 1.384 1_565 S
C1105 C1099 1.491 . S
C1105 C1104 1.384 1_545 S
C1105 C1106 1.414 . S
C1106 H1094 0.950 . S
C1106 C1105 1.414 . S
C1106 C1107 1.391 . S
C1107 H1095 0.950 . S
C1107 C1103 1.412 . S
C1107 C1106 1.391 . S
H1108 C1116 0.950 . S
H1109 C1121 0.950 . S
H1110 C1118 0.950 . S
H1111 C1120 0.950 . S
H1112 C1122 0.950 . S
H1113 C1124 0.950 . S
H1114 C1126 0.950 . S
H1115 C1127 0.950 . S
C1116 H1108 0.950 . S
C1116 C1117 1.386 1_655 S
C1116 C1118 1.391 . S
C1117 C1116 1.386 1_455 S
C1117 C1121 1.393 . S
C1118 H1110 0.950 . S
C1118 C1116 1.391 . S
C1118 C1119 1.400 1_655 S
C1119 C1118 1.400 1_455 S
C1119 C1120 1.398 . S
C1119 C1125 1.491 . S
C1120 H1111 0.950 . S
C1120 C1119 1.398 . S
C1120 C1121 1.391 . S
C1121 H1109 0.950 . S
C1121 C1117 1.393 . S
C1121 C1120 1.391 . S
C1122 H1112 0.950 . S
C1122 C1123 1.386 . S
C1122 C1124 1.391 . S
C1123 C1122 1.386 . S
C1123 C1127 1.393 1_455 S
C1124 H1113 0.950 . S
C1124 C1122 1.391 . S
C1124 C1125 1.400 . S
C1125 C1119 1.491 . S
C1125 C1124 1.400 . S
C1125 C1126 1.398 1_455 S
C1126 H1114 0.950 . S
C1126 C1125 1.398 1_655 S
C1126 C1127 1.391 . S
C1127 H1115 0.950 . S
C1127 C1123 1.393 1_655 S
C1127 C1126 1.391 . S
H1128 C1136 0.950 . S
H1129 C1141 0.950 . S
H1130 C1138 0.950 . S
H1131 C1140 0.950 . S
H1132 C1142 0.950 . S
H1133 C1144 0.950 . S
H1134 C1146 0.950 . S
H1135 C1147 0.950 . S
C1136 H1128 0.950 . S
C1136 C1137 1.386 1_565 S
C1136 C1138 1.391 . S
C1137 C1136 1.386 1_545 S
C1137 C1141 1.393 . S
C1138 H1130 0.950 . S
C1138 C1136 1.391 . S
C1138 C1139 1.380 1_565 S
C1139 C1138 1.380 1_545 S
C1139 C1140 1.420 . S
C1139 C1145 1.490 1_545 S
C1140 H1131 0.950 . S
C1140 C1139 1.420 . S
C1140 C1141 1.391 . S
C1141 H1129 0.950 . S
C1141 C1137 1.393 . S
C1141 C1140 1.391 . S
C1142 H1132 0.950 . S
C1142 C1143 1.374 1_545 S
C1142 C1144 1.391 . S
C1143 C1142 1.374 1_565 S
C1143 C1147 1.405 . S
C1144 H1133 0.950 . S
C1144 C1142 1.391 . S
C1144 C1145 1.402 1_545 S
C1145 C1139 1.490 1_565 S
C1145 C1144 1.402 1_565 S
C1145 C1146 1.397 . S
C1146 H1134 0.950 . S
C1146 C1145 1.397 . S
C1146 C1147 1.391 . S
C1147 H1135 0.950 . S
C1147 C1143 1.405 . S
C1147 C1146 1.391 . S
H1148 C1156 0.950 . S
H1149 C1161 0.950 . S
H1150 C1158 0.950 . S
H1151 C1160 0.950 . S
H1152 C1162 0.950 . S
H1153 C1164 0.950 . S
H1154 C1166 0.950 . S
H1155 C1167 0.950 . S
C1156 H1148 0.950 . S
C1156 C1157 1.386 1_655 S
C1156 C1158 1.391 . S
C1157 C1156 1.386 1_455 S
C1157 C1161 1.393 . S
C1158 H1150 0.950 . S
C1158 C1156 1.391 . S
C1158 C1159 1.400 1_655 S
C1159 C1158 1.400 1_455 S
C1159 C1160 1.398 . S
C1159 C1165 1.491 . S
C1160 H1151 0.950 . S
C1160 C1159 1.398 . S
C1160 C1161 1.391 . S
C1161 H1149 0.950 . S
C1161 C1157 1.393 . S
C1161 C1160 1.391 . S
C1162 H1152 0.950 . S
C1162 C1163 1.386 . S
C1162 C1164 1.391 . S
C1163 C1162 1.386 . S
C1163 C1167 1.393 1_455 S
C1164 H1153 0.950 . S
C1164 C1162 1.391 . S
C1164 C1165 1.400 . S
C1165 C1159 1.491 . S
C1165 C1164 1.400 . S
C1165 C1166 1.398 1_455 S
C1166 H1154 0.950 . S
C1166 C1165 1.398 1_655 S
C1166 C1167 1.391 . S
C1167 H1155 0.950 . S
C1167 C1163 1.393 1_655 S
C1167 C1166 1.391 . S
H1168 C1176 0.951 . S
H1169 C1181 0.950 . S
H1170 C1178 0.950 . S
H1171 C1180 0.950 . S
H1172 C1182 0.950 . S
H1173 C1184 0.950 . S
H1174 C1186 0.950 . S
H1175 C1187 0.950 . S
C1176 H1168 0.951 . S
C1176 C1177 1.386 . S
C1176 C1178 1.391 . S
C1177 C1176 1.386 . S
C1177 C1181 1.394 . S
C1178 H1170 0.950 . S
C1178 C1176 1.391 . S
C1178 C1179 1.400 . S
C1179 C1178 1.400 . S
C1179 C1180 1.399 . S
C1179 C1185 1.490 1_565 S
C1180 H1171 0.950 . S
C1180 C1179 1.399 . S
C1180 C1181 1.391 . S
C1181 H1169 0.950 . S
C1181 C1177 1.394 . S
C1181 C1180 1.391 . S
C1182 H1172 0.950 . S
C1182 C1183 1.386 . S
C1182 C1184 1.392 . S
C1183 C1182 1.386 . S
C1183 C1187 1.393 . S
C1184 H1173 0.950 . S
C1184 C1182 1.392 . S
C1184 C1185 1.400 . S
C1185 C1179 1.490 1_545 S
C1185 C1184 1.400 . S
C1185 C1186 1.400 . S
C1186 H1174 0.950 . S
C1186 C1185 1.400 . S
C1186 C1187 1.391 . S
C1187 H1175 0.950 . S
C1187 C1183 1.393 . S
C1187 C1186 1.391 . S
H1188 C1196 0.950 . S
H1189 C1201 0.950 . S
H1190 C1198 0.950 . S
H1191 C1200 0.950 . S
H1192 C1202 0.950 . S
H1193 C1204 0.950 . S
H1194 C1206 0.950 . S
H1195 C1207 0.950 . S
C1196 H1188 0.950 . S
C1196 C1197 1.386 . S
C1196 C1198 1.391 . S
C1197 C1196 1.386 . S
C1197 C1201 1.393 1_455 S
C1198 H1190 0.950 . S
C1198 C1196 1.391 . S
C1198 C1199 1.400 . S
C1199 C1198 1.400 . S
C1199 C1200 1.398 1_455 S
C1199 C1205 1.491 . S
C1200 H1191 0.950 . S
C1200 C1199 1.398 1_655 S
C1200 C1201 1.391 . S
C1201 H1189 0.950 . S
C1201 C1197 1.393 1_655 S
C1201 C1200 1.391 . S
C1202 H1192 0.950 . S
C1202 C1203 1.386 1_655 S
C1202 C1204 1.391 . S
C1203 C1202 1.386 1_455 S
C1203 C1207 1.393 . S
C1204 H1193 0.950 . S
C1204 C1202 1.391 . S
C1204 C1205 1.400 1_655 S
C1205 C1199 1.491 . S
C1205 C1204 1.400 1_455 S
C1205 C1206 1.398 . S
C1206 H1194 0.950 . S
C1206 C1205 1.398 . S
C1206 C1207 1.391 . S
C1207 H1195 0.950 . S
C1207 C1203 1.393 . S
C1207 C1206 1.391 . S
H1208 C1216 0.950 . S
H1209 C1221 0.950 . S
H1210 C1218 0.950 . S
H1211 C1220 0.950 . S
H1212 C1222 0.950 . S
H1213 C1224 0.950 . S
H1214 C1226 0.950 . S
H1215 C1227 0.950 . S
C1216 H1208 0.950 . S
C1216 C1217 1.402 . S
C1216 C1218 1.391 . S
C1217 C1216 1.402 . S
C1217 C1221 1.377 1_545 S
C1218 H1210 0.950 . S
C1218 C1216 1.391 . S
C1218 C1219 1.409 . S
C1219 C1218 1.409 . S
C1219 C1220 1.390 1_545 S
C1219 C1225 1.490 1_545 S
C1220 H1211 0.950 . S
C1220 C1219 1.390 1_565 S
C1220 C1221 1.391 . S
C1221 H1209 0.950 . S
C1221 C1217 1.377 1_565 S
C1221 C1220 1.391 . S
C1222 H1212 0.950 . S
C1222 C1223 1.397 . S
C1222 C1224 1.391 . S
C1223 C1222 1.397 . S
C1223 C1227 1.382 1_565 S
C1224 H1213 0.950 . S
C1224 C1222 1.391 . S
C1224 C1225 1.405 . S
C1225 C1219 1.490 1_565 S
C1225 C1224 1.405 . S
C1225 C1226 1.394 1_565 S
C1226 H1214 0.950 . S
C1226 C1225 1.394 1_545 S
C1226 C1227 1.391 . S
C1227 H1215 0.950 . S
C1227 C1223 1.382 1_545 S
C1227 C1226 1.391 . S
H1228 C1236 0.950 . S
H1229 C1241 0.950 . S
H1230 C1238 0.950 . S
H1231 C1240 0.950 . S
H1232 C1242 0.950 . S
H1233 C1244 0.950 . S
H1234 C1246 0.950 . S
H1235 C1247 0.950 . S
C1236 H1228 0.950 . S
C1236 C1237 1.386 . S
C1236 C1238 1.391 . S
C1237 C1236 1.386 . S
C1237 C1241 1.393 1_545 S
C1238 H1230 0.950 . S
C1238 C1236 1.391 . S
C1238 C1239 1.419 . S
C1239 C1238 1.419 . S
C1239 C1240 1.381 1_545 S
C1239 C1245 1.490 . S
C1240 H1231 0.950 . S
C1240 C1239 1.381 1_565 S
C1240 C1241 1.391 . S
C1241 H1229 0.950 . S
C1241 C1237 1.393 1_565 S
C1241 C1240 1.391 . S
C1242 H1232 0.950 . S
C1242 C1243 1.393 . S
C1242 C1244 1.391 . S
C1243 C1242 1.393 . S
C1243 C1247 1.386 1_565 S
C1244 H1233 0.950 . S
C1244 C1242 1.391 . S
C1244 C1245 1.402 1_565 S
C1245 C1239 1.490 . S
C1245 C1244 1.402 1_545 S
C1245 C1246 1.396 . S
C1246 H1234 0.950 . S
C1246 C1245 1.396 . S
C1246 C1247 1.391 . S
C1247 H1235 0.950 . S
C1247 C1243 1.386 1_545 S
C1247 C1246 1.391 . S
H1248 C1256 0.950 . S
H1249 C1261 0.950 . S
H1250 C1258 0.950 . S
H1251 C1260 0.950 . S
H1252 C1262 0.950 . S
H1253 C1264 0.950 . S
H1254 C1266 0.950 . S
H1255 C1267 0.950 . S
C1256 H1248 0.950 . S
C1256 C1257 1.386 1_655 S
C1256 C1258 1.391 . S
C1257 C1256 1.386 1_455 S
C1257 C1261 1.393 . S
C1258 H1250 0.950 . S
C1258 C1256 1.391 . S
C1258 C1259 1.400 1_655 S
C1259 C1258 1.400 1_455 S
C1259 C1260 1.398 . S
C1259 C1265 1.491 . S
C1260 H1251 0.950 . S
C1260 C1259 1.398 . S
C1260 C1261 1.391 . S
C1261 H1249 0.950 . S
C1261 C1257 1.393 . S
C1261 C1260 1.391 . S
C1262 H1252 0.950 . S
C1262 C1263 1.386 . S
C1262 C1264 1.391 . S
C1263 C1262 1.386 . S
C1263 C1267 1.393 1_455 S
C1264 H1253 0.950 . S
C1264 C1262 1.391 . S
C1264 C1265 1.400 . S
C1265 C1259 1.491 . S
C1265 C1264 1.400 . S
C1265 C1266 1.398 1_455 S
C1266 H1254 0.950 . S
C1266 C1265 1.398 1_655 S
C1266 C1267 1.391 . S
C1267 H1255 0.950 . S
C1267 C1263 1.393 1_655 S
C1267 C1266 1.391 . S
H1268 C1276 0.950 . S
H1269 C1281 0.950 . S
H1270 C1278 0.950 . S
H1271 C1280 0.950 . S
H1272 C1282 0.950 . S
H1273 C1284 0.950 . S
H1274 C1286 0.950 . S
H1275 C1287 0.950 . S
C1276 H1268 0.950 . S
C1276 C1277 1.414 . S
C1276 C1278 1.391 . S
C1277 C1276 1.414 . S
C1277 C1281 1.365 1_545 S
C1278 H1270 0.950 . S
C1278 C1276 1.391 . S
C1278 C1279 1.420 . S
C1279 C1278 1.420 . S
C1279 C1280 1.380 1_545 S
C1279 C1285 1.490 . S
C1280 H1271 0.950 . S
C1280 C1279 1.380 1_565 S
C1280 C1281 1.391 . S
C1281 H1269 0.950 . S
C1281 C1277 1.365 1_565 S
C1281 C1280 1.391 . S
C1282 H1272 0.950 . S
C1282 C1283 1.384 . S
C1282 C1284 1.391 . S
C1283 C1282 1.384 . S
C1283 C1287 1.394 1_565 S
C1284 H1273 0.950 . S
C1284 C1282 1.391 . S
C1284 C1285 1.397 1_565 S
C1285 C1279 1.490 . S
C1285 C1284 1.397 1_545 S
C1285 C1286 1.401 . S
C1286 H1274 0.950 . S
C1286 C1285 1.401 . S
C1286 C1287 1.391 . S
C1287 H1275 0.950 . S
C1287 C1283 1.394 1_545 S
C1287 C1286 1.391 . S
H1288 C1296 0.950 . S
H1289 C1301 0.950 . S
H1290 C1298 0.950 . S
H1291 C1300 0.950 . S
H1292 C1302 0.950 . S
H1293 C1304 0.950 . S
H1294 C1306 0.950 . S
H1295 C1307 0.950 . S
C1296 H1288 0.950 . S
C1296 C1297 1.386 . S
C1296 C1298 1.391 . S
C1297 C1296 1.386 . S
C1297 C1301 1.393 1_455 S
C1298 H1290 0.950 . S
C1298 C1296 1.391 . S
C1298 C1299 1.400 . S
C1299 C1298 1.400 . S
C1299 C1300 1.398 1_455 S
C1299 C1305 1.491 . S
C1300 H1291 0.950 . S
C1300 C1299 1.398 1_655 S
C1300 C1301 1.391 . S
C1301 H1289 0.950 . S
C1301 C1297 1.393 1_655 S
C1301 C1300 1.391 . S
C1302 H1292 0.950 . S
C1302 C1303 1.386 1_655 S
C1302 C1304 1.391 . S
C1303 C1302 1.386 1_455 S
C1303 C1307 1.393 . S
C1304 H1293 0.950 . S
C1304 C1302 1.391 . S
C1304 C1305 1.400 1_655 S
C1305 C1299 1.491 . S
C1305 C1304 1.400 1_455 S
C1305 C1306 1.398 . S
C1306 H1294 0.950 . S
C1306 C1305 1.398 . S
C1306 C1307 1.391 . S
C1307 H1295 0.950 . S
C1307 C1303 1.393 . S
C1307 C1306 1.391 . S
H1308 C1316 0.950 . S
H1309 C1321 0.950 . S
H1310 C1318 0.950 . S
H1311 C1320 0.950 . S
H1312 C1322 0.950 . S
H1313 C1324 0.950 . S
H1314 C1326 0.950 . S
H1315 C1327 0.950 . S
C1316 H1308 0.950 . S
C1316 C1317 1.368 1_545 S
C1316 C1318 1.391 . S
C1317 C1316 1.368 1_565 S
C1317 C1321 1.411 . S
C1318 H1310 0.950 . S
C1318 C1316 1.391 . S
C1318 C1319 1.396 1_545 S
C1319 C1318 1.396 1_565 S
C1319 C1320 1.403 . S
C1319 C1325 1.490 1_565 S
C1320 H1311 0.950 . S
C1320 C1319 1.403 . S
C1320 C1321 1.391 . S
C1321 H1309 0.950 . S
C1321 C1317 1.411 . S
C1321 C1320 1.391 . S
C1322 H1312 0.950 . S
C1322 C1323 1.386 1_565 S
C1322 C1324 1.391 . S
C1323 C1322 1.386 1_545 S
C1323 C1327 1.393 . S
C1324 H1313 0.950 . S
C1324 C1322 1.391 . S
C1324 C1325 1.386 1_565 S
C1325 C1319 1.490 1_545 S
C1325 C1324 1.386 1_545 S
C1325 C1326 1.413 . S
C1326 H1314 0.950 . S
C1326 C1325 1.413 . S
C1326 C1327 1.391 . S
C1327 H1315 0.950 . S
C1327 C1323 1.393 . S
C1327 C1326 1.391 . S
H1328 C1336 0.949 1_655 S
H1329 C1341 0.950 . S
H1330 C1338 0.950 . S
H1331 C1340 0.950 . S
H1332 C1342 0.950 . S
H1333 C1344 0.950 . S
H1334 C1346 0.950 . S
H1335 C1347 0.950 . S
C1336 H1328 0.949 1_455 S
C1336 C1337 1.386 . S
C1336 C1338 1.391 . S
C1337 C1336 1.386 . S
C1337 C1341 1.393 . S
C1338 H1330 0.950 . S
C1338 C1336 1.391 . S
C1338 C1339 1.400 . S
C1339 C1338 1.400 . S
C1339 C1340 1.398 . S
C1339 C1345 1.491 . S
C1340 H1331 0.950 . S
C1340 C1339 1.398 . S
C1340 C1341 1.391 . S
C1341 H1329 0.950 . S
C1341 C1337 1.393 . S
C1341 C1340 1.391 . S
C1342 H1332 0.950 . S
C1342 C1343 1.386 . S
C1342 C1344 1.391 . S
C1343 C1342 1.386 . S
C1343 C1347 1.393 . S
C1344 H1333 0.950 . S
C1344 C1342 1.391 . S
C1344 C1345 1.400 . S
C1345 C1339 1.491 . S
C1345 C1344 1.400 . S
C1345 C1346 1.398 . S
C1346 H1334 0.950 . S
C1346 C1345 1.398 . S
C1346 C1347 1.391 . S
C1347 H1335 0.950 . S
C1347 C1343 1.393 . S
C1347 C1346 1.391 . S
H1348 C1356 0.950 . S
H1349 C1361 0.950 . S
H1350 C1358 0.950 . S
H1351 C1360 0.950 . S
H1352 C1362 0.950 . S
H1353 C1364 0.950 . S
H1354 C1366 0.950 . S
H1355 C1367 0.950 . S
C1356 H1348 0.950 . S
C1356 C1357 1.373 1_565 S
C1356 C1358 1.391 . S
C1357 C1356 1.373 1_545 S
C1357 C1361 1.406 . S
C1358 H1350 0.950 . S
C1358 C1356 1.391 . S
C1358 C1359 1.394 1_565 S
C1359 C1358 1.394 1_545 S
C1359 C1360 1.405 . S
C1359 C1365 1.491 1_545 S
C1360 H1351 0.950 . S
C1360 C1359 1.405 . S
C1360 C1361 1.391 . S
C1361 H1349 0.950 . S
C1361 C1357 1.406 . S
C1361 C1360 1.391 . S
C1362 H1352 0.950 . S
C1362 C1363 1.379 1_545 S
C1362 C1364 1.391 . S
C1363 C1362 1.379 1_565 S
C1363 C1367 1.400 . S
C1364 H1353 0.950 . S
C1364 C1362 1.391 . S
C1364 C1365 1.400 1_545 S
C1365 C1359 1.491 1_565 S
C1365 C1364 1.400 1_565 S
C1365 C1366 1.399 . S
C1366 H1354 0.950 . S
C1366 C1365 1.399 . S
C1366 C1367 1.391 . S
C1367 H1355 0.950 . S
C1367 C1363 1.400 . S
C1367 C1366 1.391 . S
H1368 C1376 0.950 . S
H1369 C1381 0.950 . S
H1370 C1378 0.950 . S
H1371 C1380 0.950 . S
H1372 C1382 0.950 . S
H1373 C1384 0.950 . S
H1374 C1386 0.950 . S
H1375 C1387 0.950 . S
C1376 H1368 0.950 . S
C1376 C1377 1.386 . S
C1376 C1378 1.391 . S
C1377 C1376 1.386 . S
C1377 C1381 1.393 1_455 S
C1378 H1370 0.950 . S
C1378 C1376 1.391 . S
C1378 C1379 1.400 . S
C1379 C1378 1.400 . S
C1379 C1380 1.398 1_455 S
C1379 C1385 1.491 . S
C1380 H1371 0.950 . S
C1380 C1379 1.398 1_655 S
C1380 C1381 1.391 . S
C1381 H1369 0.950 . S
C1381 C1377 1.393 1_655 S
C1381 C1380 1.391 . S
C1382 H1372 0.950 . S
C1382 C1383 1.386 1_655 S
C1382 C1384 1.391 . S
C1383 C1382 1.386 1_455 S
C1383 C1387 1.393 . S
C1384 H1373 0.950 . S
C1384 C1382 1.391 . S
C1384 C1385 1.400 1_655 S
C1385 C1379 1.491 . S
C1385 C1384 1.400 1_455 S
C1385 C1386 1.398 . S
C1386 H1374 0.950 . S
C1386 C1385 1.398 . S
C1386 C1387 1.391 . S
C1387 H1375 0.950 . S
C1387 C1383 1.393 . S
C1387 C1386 1.391 . S
H1388 C1396 0.950 . S
H1389 C1401 0.950 . S
H1390 C1398 0.950 . S
H1391 C1400 0.950 . S
H1392 C1402 0.950 . S
H1393 C1404 0.950 . S
H1394 C1406 0.950 . S
H1395 C1407 0.950 . S
C1396 H1388 0.950 . S
C1396 C1397 1.386 1_556 S
C1396 C1398 1.391 . S
C1397 C1396 1.386 1_554 S
C1397 C1401 1.393 . S
C1398 H1390 0.950 . S
C1398 C1396 1.391 . S
C1398 C1399 1.400 1_556 S
C1399 C1398 1.400 1_554 S
C1399 C1400 1.398 . S
C1399 C1405 1.491 . S
C1400 H1391 0.950 . S
C1400 C1399 1.398 . S
C1400 C1401 1.391 . S
C1401 H1389 0.950 . S
C1401 C1397 1.393 . S
C1401 C1400 1.391 . S
C1402 H1392 0.950 . S
C1402 C1403 1.386 . S
C1402 C1404 1.391 . S
C1403 C1402 1.386 . S
C1403 C1407 1.393 1_554 S
C1404 H1393 0.950 . S
C1404 C1402 1.391 . S
C1404 C1405 1.400 . S
C1405 C1399 1.491 . S
C1405 C1404 1.400 . S
C1405 C1406 1.398 1_554 S
C1406 H1394 0.950 . S
C1406 C1405 1.398 1_556 S
C1406 C1407 1.391 . S
C1407 H1395 0.950 . S
C1407 C1403 1.393 1_556 S
C1407 C1406 1.391 . S
H1408 C1416 0.950 . S
H1409 C1421 0.950 . S
H1410 C1418 0.950 . S
H1411 C1420 0.950 . S
H1412 C1422 0.950 . S
H1413 C1424 0.950 . S
H1414 C1426 0.950 . S
H1415 C1427 0.950 . S
C1416 H1408 0.950 . S
C1416 C1417 1.386 1_556 S
C1416 C1418 1.391 . S
C1417 C1416 1.386 1_554 S
C1417 C1421 1.393 . S
C1418 H1410 0.950 . S
C1418 C1416 1.391 . S
C1418 C1419 1.400 1_556 S
C1419 C1418 1.400 1_554 S
C1419 C1420 1.398 . S
C1419 C1425 1.491 . S
C1420 H1411 0.950 . S
C1420 C1419 1.398 . S
C1420 C1421 1.391 . S
C1421 H1409 0.950 . S
C1421 C1417 1.393 . S
C1421 C1420 1.391 . S
C1422 H1412 0.950 . S
C1422 C1423 1.386 . S
C1422 C1424 1.391 . S
C1423 C1422 1.386 . S
C1423 C1427 1.393 1_554 S
C1424 H1413 0.950 . S
C1424 C1422 1.391 . S
C1424 C1425 1.400 . S
C1425 C1419 1.491 . S
C1425 C1424 1.400 . S
C1425 C1426 1.398 1_554 S
C1426 H1414 0.950 . S
C1426 C1425 1.398 1_556 S
C1426 C1427 1.391 . S
C1427 H1415 0.950 . S
C1427 C1423 1.393 1_556 S
C1427 C1426 1.391 . S
H1428 C1436 0.950 . S
H1429 C1441 0.950 . S
H1430 C1438 0.950 . S
H1431 C1440 0.950 . S
H1432 C1442 0.950 . S
H1433 C1444 0.950 . S
H1434 C1446 0.950 . S
H1435 C1447 0.950 . S
C1436 H1428 0.950 . S
C1436 C1437 1.386 . S
C1436 C1438 1.391 . S
C1437 C1436 1.386 . S
C1437 C1441 1.393 1_554 S
C1438 H1430 0.950 . S
C1438 C1436 1.391 . S
C1438 C1439 1.400 . S
C1439 C1438 1.400 . S
C1439 C1440 1.398 1_554 S
C1439 C1445 1.491 . S
C1440 H1431 0.950 . S
C1440 C1439 1.398 1_556 S
C1440 C1441 1.391 . S
C1441 H1429 0.950 . S
C1441 C1437 1.393 1_556 S
C1441 C1440 1.391 . S
C1442 H1432 0.950 . S
C1442 C1443 1.386 1_556 S
C1442 C1444 1.391 . S
C1443 C1442 1.386 1_554 S
C1443 C1447 1.393 . S
C1444 H1433 0.950 . S
C1444 C1442 1.391 . S
C1444 C1445 1.400 1_556 S
C1445 C1439 1.491 . S
C1445 C1444 1.400 1_554 S
C1445 C1446 1.398 . S
C1446 H1434 0.950 . S
C1446 C1445 1.398 . S
C1446 C1447 1.391 . S
C1447 H1435 0.950 . S
C1447 C1443 1.393 . S
C1447 C1446 1.391 . S
H1448 C1456 0.950 . S
H1449 C1461 0.950 . S
H1450 C1458 0.950 . S
H1451 C1460 0.950 . S
H1452 C1462 0.950 . S
H1453 C1464 0.950 . S
H1454 C1466 0.950 . S
H1455 C1467 0.950 . S
C1456 H1448 0.950 . S
C1456 C1457 1.386 . S
C1456 C1458 1.391 . S
C1457 C1456 1.386 . S
C1457 C1461 1.393 1_554 S
C1458 H1450 0.950 . S
C1458 C1456 1.391 . S
C1458 C1459 1.400 . S
C1459 C1458 1.400 . S
C1459 C1460 1.398 1_554 S
C1459 C1465 1.491 . S
C1460 H1451 0.950 . S
C1460 C1459 1.398 1_556 S
C1460 C1461 1.391 . S
C1461 H1449 0.950 . S
C1461 C1457 1.393 1_556 S
C1461 C1460 1.391 . S
C1462 H1452 0.950 . S
C1462 C1463 1.386 1_556 S
C1462 C1464 1.391 . S
C1463 C1462 1.386 1_554 S
C1463 C1467 1.393 . S
C1464 H1453 0.950 . S
C1464 C1462 1.391 . S
C1464 C1465 1.400 1_556 S
C1465 C1459 1.491 . S
C1465 C1464 1.400 1_554 S
C1465 C1466 1.398 . S
C1466 H1454 0.950 . S
C1466 C1465 1.398 . S
C1466 C1467 1.391 . S
C1467 H1455 0.950 . S
C1467 C1463 1.393 . S
C1467 C1466 1.391 . S
H1468 C1476 0.950 . S
H1469 C1481 0.950 . S
H1470 C1478 0.950 . S
H1471 C1480 0.950 . S
H1472 C1482 0.950 . S
H1473 C1484 0.950 . S
H1474 C1486 0.950 . S
H1475 C1487 0.950 . S
C1476 H1468 0.950 . S
C1476 C1477 1.386 . S
C1476 C1478 1.391 . S
C1477 C1476 1.386 . S
C1477 C1481 1.393 1_554 S
C1478 H1470 0.950 . S
C1478 C1476 1.391 . S
C1478 C1479 1.400 . S
C1479 C1478 1.400 . S
C1479 C1480 1.398 1_554 S
C1479 C1485 1.491 . S
C1480 H1471 0.950 . S
C1480 C1479 1.398 1_556 S
C1480 C1481 1.391 . S
C1481 H1469 0.950 . S
C1481 C1477 1.393 1_556 S
C1481 C1480 1.391 . S
C1482 H1472 0.950 . S
C1482 C1483 1.386 1_556 S
C1482 C1484 1.391 . S
C1483 C1482 1.386 1_554 S
C1483 C1487 1.393 . S
C1484 H1473 0.950 . S
C1484 C1482 1.391 . S
C1484 C1485 1.400 1_556 S
C1485 C1479 1.491 . S
C1485 C1484 1.400 1_554 S
C1485 C1486 1.398 . S
C1486 H1474 0.950 . S
C1486 C1485 1.398 . S
C1486 C1487 1.391 . S
C1487 H1475 0.950 . S
C1487 C1483 1.393 . S
C1487 C1486 1.391 . S
H1488 C1496 0.950 . S
H1489 C1501 0.950 . S
H1490 C1498 0.950 . S
H1491 C1500 0.950 . S
H1492 C1502 0.950 . S
H1493 C1504 0.950 . S
H1494 C1506 0.950 . S
H1495 C1507 0.950 . S
C1496 H1488 0.950 . S
C1496 C1497 1.386 1_556 S
C1496 C1498 1.391 . S
C1497 C1496 1.386 1_554 S
C1497 C1501 1.393 . S
C1498 H1490 0.950 . S
C1498 C1496 1.391 . S
C1498 C1499 1.400 1_556 S
C1499 C1498 1.400 1_554 S
C1499 C1500 1.398 . S
C1499 C1505 1.491 . S
C1500 H1491 0.950 . S
C1500 C1499 1.398 . S
C1500 C1501 1.391 . S
C1501 H1489 0.950 . S
C1501 C1497 1.393 . S
C1501 C1500 1.391 . S
C1502 H1492 0.950 . S
C1502 C1503 1.386 . S
C1502 C1504 1.391 . S
C1503 C1502 1.386 . S
C1503 C1507 1.393 1_554 S
C1504 H1493 0.950 . S
C1504 C1502 1.391 . S
C1504 C1505 1.400 . S
C1505 C1499 1.491 . S
C1505 C1504 1.400 . S
C1505 C1506 1.398 1_554 S
C1506 H1494 0.950 . S
C1506 C1505 1.398 1_556 S
C1506 C1507 1.391 . S
C1507 H1495 0.950 . S
C1507 C1503 1.393 1_556 S
C1507 C1506 1.391 . S
H1508 C1516 0.950 . S
H1509 C1521 0.950 . S
H1510 C1518 0.950 . S
H1511 C1520 0.950 . S
H1512 C1522 0.950 . S
H1513 C1524 0.950 . S
H1514 C1526 0.950 . S
H1515 C1527 0.950 . S
C1516 H1508 0.950 . S
C1516 C1517 1.386 . S
C1516 C1518 1.391 . S
C1517 C1516 1.386 . S
C1517 C1521 1.393 1_554 S
C1518 H1510 0.950 . S
C1518 C1516 1.391 . S
C1518 C1519 1.400 . S
C1519 C1518 1.400 . S
C1519 C1520 1.398 1_554 S
C1519 C1525 1.491 . S
C1520 H1511 0.950 . S
C1520 C1519 1.398 1_556 S
C1520 C1521 1.391 . S
C1521 H1509 0.950 . S
C1521 C1517 1.393 1_556 S
C1521 C1520 1.391 . S
C1522 H1512 0.950 . S
C1522 C1523 1.386 1_556 S
C1522 C1524 1.391 . S
C1523 C1522 1.386 1_554 S
C1523 C1527 1.393 . S
C1524 H1513 0.950 . S
C1524 C1522 1.391 . S
C1524 C1525 1.400 1_556 S
C1525 C1519 1.491 . S
C1525 C1524 1.400 1_554 S
C1525 C1526 1.398 . S
C1526 H1514 0.950 . S
C1526 C1525 1.398 . S
C1526 C1527 1.391 . S
C1527 H1515 0.950 . S
C1527 C1523 1.393 . S
C1527 C1526 1.391 . S
H1528 C1536 0.957 . S
H1529 C1541 0.950 . S
H1530 C1538 0.959 . S
H1531 C1540 0.950 . S
H1532 C1542 0.950 . S
H1533 C1544 0.950 . S
H1534 C1546 0.948 1_556 S
H1535 C1547 0.954 . S
C1536 H1528 0.957 . S
C1536 C1537 1.379 1_556 S
C1536 C1538 1.391 . S
C1537 C1536 1.379 1_554 S
C1537 C1541 1.393 . S
C1538 H1530 0.959 . S
C1538 C1536 1.391 . S
C1538 C1539 1.392 1_556 S
C1539 C1538 1.392 1_554 S
C1539 C1540 1.398 . S
C1539 C1545 1.491 . S
C1540 H1531 0.950 . S
C1540 C1539 1.398 . S
C1540 C1541 1.391 . S
C1541 H1529 0.950 . S
C1541 C1537 1.393 . S
C1541 C1540 1.391 . S
C1542 H1532 0.950 . S
C1542 C1543 1.386 . S
C1542 C1544 1.391 . S
C1543 C1542 1.386 . S
C1543 C1547 1.389 1_554 S
C1544 H1533 0.950 . S
C1544 C1542 1.391 . S
C1544 C1545 1.400 . S
C1545 C1539 1.491 . S
C1545 C1544 1.400 . S
C1545 C1546 1.400 . S
C1546 H1534 0.948 1_554 S
C1546 C1545 1.400 . S
C1546 C1547 1.390 1_554 S
C1547 H1535 0.954 . S
C1547 C1543 1.389 1_556 S
C1547 C1546 1.390 1_556 S
H1548 C1556 0.950 . S
H1549 C1561 0.950 . S
H1550 C1558 0.950 . S
H1551 C1560 0.950 . S
H1552 C1562 0.950 . S
H1553 C1564 0.950 . S
H1554 C1566 0.950 . S
H1555 C1567 0.950 . S
C1556 H1548 0.950 . S
C1556 C1557 1.386 . S
C1556 C1558 1.391 . S
C1557 C1556 1.386 . S
C1557 C1561 1.393 . S
C1558 H1550 0.950 . S
C1558 C1556 1.391 . S
C1558 C1559 1.400 . S
C1559 C1558 1.400 . S
C1559 C1560 1.398 . S
C1559 C1565 1.491 . S
C1560 H1551 0.950 . S
C1560 C1559 1.398 . S
C1560 C1561 1.391 . S
C1561 H1549 0.950 . S
C1561 C1557 1.393 . S
C1561 C1560 1.391 . S
C1562 H1552 0.950 . S
C1562 C1563 1.386 . S
C1562 C1564 1.391 . S
C1563 C1562 1.386 . S
C1563 C1567 1.393 . S
C1564 H1553 0.950 . S
C1564 C1562 1.391 . S
C1564 C1565 1.400 . S
C1565 C1559 1.491 . S
C1565 C1564 1.400 . S
C1565 C1566 1.398 . S
C1566 H1554 0.950 . S
C1566 C1565 1.398 . S
C1566 C1567 1.391 . S
C1567 H1555 0.950 . S
C1567 C1563 1.393 . S
C1567 C1566 1.391 . S
H1568 C1576 0.950 . S
H1569 C1581 0.950 . S
H1570 C1578 0.950 . S
H1571 C1580 0.950 . S
H1572 C1582 0.950 . S
H1573 C1584 0.950 . S
H1574 C1586 0.950 . S
H1575 C1587 0.950 . S
C1576 H1568 0.950 . S
C1576 C1577 1.386 . S
C1576 C1578 1.391 . S
C1577 C1576 1.386 . S
C1577 C1581 1.393 . S
C1578 H1570 0.950 . S
C1578 C1576 1.391 . S
C1578 C1579 1.400 . S
C1579 C1578 1.400 . S
C1579 C1580 1.398 . S
C1579 C1585 1.491 . S
C1580 H1571 0.950 . S
C1580 C1579 1.398 . S
C1580 C1581 1.391 . S
C1581 H1569 0.950 . S
C1581 C1577 1.393 . S
C1581 C1580 1.391 . S
C1582 H1572 0.950 . S
C1582 C1583 1.386 . S
C1582 C1584 1.391 . S
C1583 C1582 1.386 . S
C1583 C1587 1.393 . S
C1584 H1573 0.950 . S
C1584 C1582 1.391 . S
C1584 C1585 1.400 . S
C1585 C1579 1.491 . S
C1585 C1584 1.400 . S
C1585 C1586 1.398 . S
C1586 H1574 0.950 . S
C1586 C1585 1.398 . S
C1586 C1587 1.391 . S
C1587 H1575 0.950 . S
C1587 C1583 1.393 . S
C1587 C1586 1.391 . S
H1588 C1596 0.950 . S
H1589 C1601 0.950 . S
H1590 C1598 0.950 . S
H1591 C1600 0.950 . S
H1592 C1602 0.950 . S
H1593 C1604 0.950 . S
H1594 C1606 0.950 . S
H1595 C1607 0.950 . S
C1596 H1588 0.950 . S
C1596 C1597 1.386 . S
C1596 C1598 1.391 . S
C1597 C1596 1.386 . S
C1597 C1601 1.393 . S
C1598 H1590 0.950 . S
C1598 C1596 1.391 . S
C1598 C1599 1.400 . S
C1599 C1598 1.400 . S
C1599 C1600 1.398 . S
C1599 C1605 1.491 . S
C1600 H1591 0.950 . S
C1600 C1599 1.398 . S
C1600 C1601 1.391 . S
C1601 H1589 0.950 . S
C1601 C1597 1.393 . S
C1601 C1600 1.391 . S
C1602 H1592 0.950 . S
C1602 C1603 1.386 . S
C1602 C1604 1.391 . S
C1603 C1602 1.386 . S
C1603 C1607 1.393 . S
C1604 H1593 0.950 . S
C1604 C1602 1.391 . S
C1604 C1605 1.400 . S
C1605 C1599 1.491 . S
C1605 C1604 1.400 . S
C1605 C1606 1.398 . S
C1606 H1594 0.950 . S
C1606 C1605 1.398 . S
C1606 C1607 1.391 . S
C1607 H1595 0.950 . S
C1607 C1603 1.393 . S
C1607 C1606 1.391 . S
H1608 C1616 0.950 . S
H1609 C1621 0.950 . S
H1610 C1618 0.950 . S
H1611 C1620 0.950 . S
H1612 C1622 0.950 . S
H1613 C1624 0.950 . S
H1614 C1626 0.950 . S
H1615 C1627 0.950 . S
C1616 H1608 0.950 . S
C1616 C1617 1.386 . S
C1616 C1618 1.391 . S
C1617 C1616 1.386 . S
C1617 C1621 1.393 . S
C1618 H1610 0.950 . S
C1618 C1616 1.391 . S
C1618 C1619 1.400 . S
C1619 C1618 1.400 . S
C1619 C1620 1.398 . S
C1619 C1625 1.491 . S
C1620 H1611 0.950 . S
C1620 C1619 1.398 . S
C1620 C1621 1.391 . S
C1621 H1609 0.950 . S
C1621 C1617 1.393 . S
C1621 C1620 1.391 . S
C1622 H1612 0.950 . S
C1622 C1623 1.386 . S
C1622 C1624 1.391 . S
C1623 C1622 1.386 . S
C1623 C1627 1.393 . S
C1624 H1613 0.950 . S
C1624 C1622 1.391 . S
C1624 C1625 1.400 . S
C1625 C1619 1.491 . S
C1625 C1624 1.400 . S
C1625 C1626 1.398 . S
C1626 H1614 0.950 . S
C1626 C1625 1.398 . S
C1626 C1627 1.391 . S
C1627 H1615 0.950 . S
C1627 C1623 1.393 . S
C1627 C1626 1.391 . S
H1628 C1636 0.950 . S
H1629 C1641 0.950 . S
H1630 C1638 0.950 . S
H1631 C1640 0.950 . S
H1632 C1642 0.950 . S
H1633 C1644 0.950 . S
H1634 C1646 0.950 . S
H1635 C1647 0.950 . S
C1636 H1628 0.950 . S
C1636 C1637 1.386 . S
C1636 C1638 1.391 . S
C1637 C1636 1.386 . S
C1637 C1641 1.393 . S
C1638 H1630 0.950 . S
C1638 C1636 1.391 . S
C1638 C1639 1.400 . S
C1639 C1638 1.400 . S
C1639 C1640 1.398 . S
C1639 C1645 1.491 . S
C1640 H1631 0.950 . S
C1640 C1639 1.398 . S
C1640 C1641 1.391 . S
C1641 H1629 0.950 . S
C1641 C1637 1.393 . S
C1641 C1640 1.391 . S
C1642 H1632 0.950 . S
C1642 C1643 1.386 . S
C1642 C1644 1.391 . S
C1643 C1642 1.386 . S
C1643 C1647 1.393 . S
C1644 H1633 0.950 . S
C1644 C1642 1.391 . S
C1644 C1645 1.400 . S
C1645 C1639 1.491 . S
C1645 C1644 1.400 . S
C1645 C1646 1.398 . S
C1646 H1634 0.950 . S
C1646 C1645 1.398 . S
C1646 C1647 1.391 . S
C1647 H1635 0.950 . S
C1647 C1643 1.393 . S
C1647 C1646 1.391 . S
H1648 C1656 0.950 . S
H1649 C1661 0.950 . S
H1650 C1658 0.950 . S
H1651 C1660 0.950 . S
H1652 C1662 0.950 . S
H1653 C1664 0.950 . S
H1654 C1666 0.950 . S
H1655 C1667 0.950 . S
C1656 H1648 0.950 . S
C1656 C1657 1.386 . S
C1656 C1658 1.391 . S
C1657 C1656 1.386 . S
C1657 C1661 1.393 . S
C1658 H1650 0.950 . S
C1658 C1656 1.391 . S
C1658 C1659 1.400 . S
C1659 C1658 1.400 . S
C1659 C1660 1.398 . S
C1659 C1665 1.491 . S
C1660 H1651 0.950 . S
C1660 C1659 1.398 . S
C1660 C1661 1.391 . S
C1661 H1649 0.950 . S
C1661 C1657 1.393 . S
C1661 C1660 1.391 . S
C1662 H1652 0.950 . S
C1662 C1663 1.386 . S
C1662 C1664 1.391 . S
C1663 C1662 1.386 . S
C1663 C1667 1.393 . S
C1664 H1653 0.950 . S
C1664 C1662 1.391 . S
C1664 C1665 1.400 . S
C1665 C1659 1.491 . S
C1665 C1664 1.400 . S
C1665 C1666 1.398 . S
C1666 H1654 0.950 . S
C1666 C1665 1.398 . S
C1666 C1667 1.391 . S
C1667 H1655 0.950 . S
C1667 C1663 1.393 . S
C1667 C1666 1.391 . S
H1668 C1676 0.950 . S
H1669 C1681 0.950 . S
H1670 C1678 0.950 . S
H1671 C1680 0.950 . S
H1672 C1682 0.950 . S
H1673 C1684 0.950 . S
H1674 C1686 0.950 . S
H1675 C1687 0.950 . S
C1676 H1668 0.950 . S
C1676 C1677 1.386 . S
C1676 C1678 1.391 . S
C1677 C1676 1.386 . S
C1677 C1681 1.393 . S
C1678 H1670 0.950 . S
C1678 C1676 1.391 . S
C1678 C1679 1.400 . S
C1679 C1678 1.400 . S
C1679 C1680 1.398 . S
C1679 C1685 1.491 . S
C1680 H1671 0.950 . S
C1680 C1679 1.398 . S
C1680 C1681 1.391 . S
C1681 H1669 0.950 . S
C1681 C1677 1.393 . S
C1681 C1680 1.391 . S
C1682 H1672 0.950 . S
C1682 C1683 1.386 . S
C1682 C1684 1.391 . S
C1683 C1682 1.386 . S
C1683 C1687 1.393 . S
C1684 H1673 0.950 . S
C1684 C1682 1.391 . S
C1684 C1685 1.400 . S
C1685 C1679 1.491 . S
C1685 C1684 1.400 . S
C1685 C1686 1.398 . S
C1686 H1674 0.950 . S
C1686 C1685 1.398 . S
C1686 C1687 1.391 . S
C1687 H1675 0.950 . S
C1687 C1683 1.393 . S
C1687 C1686 1.391 . S
H1688 C1696 0.950 . S
H1689 C1701 0.950 . S
H1690 C1698 0.950 . S
H1691 C1700 0.950 . S
H1692 C1702 0.950 . S
H1693 C1704 0.950 . S
H1694 C1706 0.950 . S
H1695 C1707 0.950 . S
C1696 H1688 0.950 . S
C1696 C1697 1.386 . S
C1696 C1698 1.391 . S
C1697 C1696 1.386 . S
C1697 C1701 1.393 . S
C1698 H1690 0.950 . S
C1698 C1696 1.391 . S
C1698 C1699 1.400 . S
C1699 C1698 1.400 . S
C1699 C1700 1.398 . S
C1699 C1705 1.491 . S
C1700 H1691 0.950 . S
C1700 C1699 1.398 . S
C1700 C1701 1.391 . S
C1701 H1689 0.950 . S
C1701 C1697 1.393 . S
C1701 C1700 1.391 . S
C1702 H1692 0.950 . S
C1702 C1703 1.386 . S
C1702 C1704 1.391 . S
C1703 C1702 1.386 . S
C1703 C1707 1.393 . S
C1704 H1693 0.950 . S
C1704 C1702 1.391 . S
C1704 C1705 1.400 . S
C1705 C1699 1.491 . S
C1705 C1704 1.400 . S
C1705 C1706 1.398 . S
C1706 H1694 0.950 . S
C1706 C1705 1.398 . S
C1706 C1707 1.391 . S
C1707 H1695 0.950 . S
C1707 C1703 1.393 . S
C1707 C1706 1.391 . S
H1708 C1716 0.950 . S
H1709 C1721 0.950 . S
H1710 C1718 0.950 . S
H1711 C1720 0.950 . S
H1712 C1722 0.950 . S
H1713 C1724 0.950 . S
H1714 C1726 0.950 . S
H1715 C1727 0.950 . S
C1716 H1708 0.950 . S
C1716 C1717 1.386 . S
C1716 C1718 1.391 . S
C1717 C1716 1.386 . S
C1717 C1721 1.393 . S
C1718 H1710 0.950 . S
C1718 C1716 1.391 . S
C1718 C1719 1.400 . S
C1719 C1718 1.400 . S
C1719 C1720 1.398 . S
C1719 C1725 1.491 . S
C1720 H1711 0.950 . S
C1720 C1719 1.398 . S
C1720 C1721 1.391 . S
C1721 H1709 0.950 . S
C1721 C1717 1.393 . S
C1721 C1720 1.391 . S
C1722 H1712 0.950 . S
C1722 C1723 1.386 . S
C1722 C1724 1.391 . S
C1723 C1722 1.386 . S
C1723 C1727 1.393 . S
C1724 H1713 0.950 . S
C1724 C1722 1.391 . S
C1724 C1725 1.400 . S
C1725 C1719 1.491 . S
C1725 C1724 1.400 . S
C1725 C1726 1.398 . S
C1726 H1714 0.950 . S
C1726 C1725 1.398 . S
C1726 C1727 1.391 . S
C1727 H1715 0.950 . S
C1727 C1723 1.393 . S
C1727 C1726 1.391 . S
H1728 C1736 0.950 . S
H1729 C1741 0.950 . S
H1730 C1738 0.950 . S
H1731 C1740 0.950 . S
H1732 C1742 0.950 . S
H1733 C1744 0.950 . S
H1734 C1746 0.950 . S
H1735 C1747 0.950 . S
C1736 H1728 0.950 . S
C1736 C1737 1.386 . S
C1736 C1738 1.391 . S
C1737 C1736 1.386 . S
C1737 C1741 1.393 . S
C1738 H1730 0.950 . S
C1738 C1736 1.391 . S
C1738 C1739 1.400 . S
C1739 C1738 1.400 . S
C1739 C1740 1.398 . S
C1739 C1745 1.491 . S
C1740 H1731 0.950 . S
C1740 C1739 1.398 . S
C1740 C1741 1.391 . S
C1741 H1729 0.950 . S
C1741 C1737 1.393 . S
C1741 C1740 1.391 . S
C1742 H1732 0.950 . S
C1742 C1743 1.386 . S
C1742 C1744 1.391 . S
C1743 C1742 1.386 . S
C1743 C1747 1.393 . S
C1744 H1733 0.950 . S
C1744 C1742 1.391 . S
C1744 C1745 1.400 . S
C1745 C1739 1.491 . S
C1745 C1744 1.400 . S
C1745 C1746 1.398 . S
C1746 H1734 0.950 . S
C1746 C1745 1.398 . S
C1746 C1747 1.391 . S
C1747 H1735 0.950 . S
C1747 C1743 1.393 . S
C1747 C1746 1.391 . S
H1748 C1756 0.950 . S
H1749 C1761 0.950 . S
H1750 C1758 0.950 . S
H1751 C1760 0.950 . S
H1752 C1762 0.950 . S
H1753 C1764 0.950 . S
H1754 C1766 0.950 . S
H1755 C1767 0.950 . S
C1756 H1748 0.950 . S
C1756 C1757 1.386 . S
C1756 C1758 1.391 . S
C1757 C1756 1.386 . S
C1757 C1761 1.393 . S
C1758 H1750 0.950 . S
C1758 C1756 1.391 . S
C1758 C1759 1.400 . S
C1759 C1758 1.400 . S
C1759 C1760 1.398 . S
C1759 C1765 1.491 . S
C1760 H1751 0.950 . S
C1760 C1759 1.398 . S
C1760 C1761 1.391 . S
C1761 H1749 0.950 . S
C1761 C1757 1.393 . S
C1761 C1760 1.391 . S
C1762 H1752 0.950 . S
C1762 C1763 1.386 . S
C1762 C1764 1.391 . S
C1763 C1762 1.386 . S
C1763 C1767 1.393 . S
C1764 H1753 0.950 . S
C1764 C1762 1.391 . S
C1764 C1765 1.400 . S
C1765 C1759 1.491 . S
C1765 C1764 1.400 . S
C1765 C1766 1.398 . S
C1766 H1754 0.950 . S
C1766 C1765 1.398 . S
C1766 C1767 1.391 . S
C1767 H1755 0.950 . S
C1767 C1763 1.393 . S
C1767 C1766 1.391 . S
H1768 C1776 0.950 . S
H1769 C1781 0.950 . S
H1770 C1778 0.950 . S
H1771 C1780 0.950 . S
H1772 C1782 0.950 . S
H1773 C1784 0.950 . S
H1774 C1786 0.950 . S
H1775 C1787 0.950 . S
C1776 H1768 0.950 . S
C1776 C1777 1.386 . S
C1776 C1778 1.391 . S
C1777 C1776 1.386 . S
C1777 C1781 1.393 . S
C1778 H1770 0.950 . S
C1778 C1776 1.391 . S
C1778 C1779 1.400 . S
C1779 C1778 1.400 . S
C1779 C1780 1.398 . S
C1779 C1785 1.491 . S
C1780 H1771 0.950 . S
C1780 C1779 1.398 . S
C1780 C1781 1.391 . S
C1781 H1769 0.950 . S
C1781 C1777 1.393 . S
C1781 C1780 1.391 . S
C1782 H1772 0.950 . S
C1782 C1783 1.386 . S
C1782 C1784 1.391 . S
C1783 C1782 1.386 . S
C1783 C1787 1.393 . S
C1784 H1773 0.950 . S
C1784 C1782 1.391 . S
C1784 C1785 1.400 . S
C1785 C1779 1.491 . S
C1785 C1784 1.400 . S
C1785 C1786 1.398 . S
C1786 H1774 0.950 . S
C1786 C1785 1.398 . S
C1786 C1787 1.391 . S
C1787 H1775 0.950 . S
C1787 C1783 1.393 . S
C1787 C1786 1.391 . S
H1788 C1796 0.950 . S
H1789 C1801 0.950 . S
H1790 C1798 0.950 . S
H1791 C1800 0.950 . S
H1792 C1802 0.950 . S
H1793 C1804 0.950 . S
H1794 C1806 0.950 . S
H1795 C1807 0.950 . S
C1796 H1788 0.950 . S
C1796 C1797 1.386 . S
C1796 C1798 1.391 . S
C1797 C1796 1.386 . S
C1797 C1801 1.393 . S
C1798 H1790 0.950 . S
C1798 C1796 1.391 . S
C1798 C1799 1.400 . S
C1799 C1798 1.400 . S
C1799 C1800 1.398 . S
C1799 C1805 1.491 . S
C1800 H1791 0.950 . S
C1800 C1799 1.398 . S
C1800 C1801 1.391 . S
C1801 H1789 0.950 . S
C1801 C1797 1.393 . S
C1801 C1800 1.391 . S
C1802 H1792 0.950 . S
C1802 C1803 1.386 . S
C1802 C1804 1.391 . S
C1803 C1802 1.386 . S
C1803 C1807 1.393 . S
C1804 H1793 0.950 . S
C1804 C1802 1.391 . S
C1804 C1805 1.400 . S
C1805 C1799 1.491 . S
C1805 C1804 1.400 . S
C1805 C1806 1.398 . S
C1806 H1794 0.950 . S
C1806 C1805 1.398 . S
C1806 C1807 1.391 . S
C1807 H1795 0.950 . S
C1807 C1803 1.393 . S
C1807 C1806 1.391 . S
H1808 C1816 0.950 . S
H1809 C1821 0.950 . S
H1810 C1818 0.950 . S
H1811 C1820 0.950 . S
H1812 C1822 0.950 . S
H1813 C1824 0.950 . S
H1814 C1826 0.950 . S
H1815 C1827 0.950 . S
C1816 H1808 0.950 . S
C1816 C1817 1.386 . S
C1816 C1818 1.391 . S
C1817 C1816 1.386 . S
C1817 C1821 1.393 . S
C1818 H1810 0.950 . S
C1818 C1816 1.391 . S
C1818 C1819 1.400 . S
C1819 C1818 1.400 . S
C1819 C1820 1.398 . S
C1819 C1825 1.491 . S
C1820 H1811 0.950 . S
C1820 C1819 1.398 . S
C1820 C1821 1.391 . S
C1821 H1809 0.950 . S
C1821 C1817 1.393 . S
C1821 C1820 1.391 . S
C1822 H1812 0.950 . S
C1822 C1823 1.386 . S
C1822 C1824 1.391 . S
C1823 C1822 1.386 . S
C1823 C1827 1.393 . S
C1824 H1813 0.950 . S
C1824 C1822 1.391 . S
C1824 C1825 1.400 . S
C1825 C1819 1.491 . S
C1825 C1824 1.400 . S
C1825 C1826 1.398 . S
C1826 H1814 0.950 . S
C1826 C1825 1.398 . S
C1826 C1827 1.391 . S
C1827 H1815 0.950 . S
C1827 C1823 1.393 . S
C1827 C1826 1.391 . S
H1828 C1836 0.950 . S
H1829 C1841 0.950 . S
H1830 C1838 0.950 . S
H1831 C1840 0.950 . S
H1832 C1842 0.950 . S
H1833 C1844 0.950 . S
H1834 C1846 0.950 . S
H1835 C1847 0.950 . S
C1836 H1828 0.950 . S
C1836 C1837 1.386 . S
C1836 C1838 1.391 . S
C1837 C1836 1.386 . S
C1837 C1841 1.393 . S
C1838 H1830 0.950 . S
C1838 C1836 1.391 . S
C1838 C1839 1.400 . S
C1839 C1838 1.400 . S
C1839 C1840 1.398 . S
C1839 C1845 1.491 . S
C1840 H1831 0.950 . S
C1840 C1839 1.398 . S
C1840 C1841 1.391 . S
C1841 H1829 0.950 . S
C1841 C1837 1.393 . S
C1841 C1840 1.391 . S
C1842 H1832 0.950 . S
C1842 C1843 1.386 . S
C1842 C1844 1.391 . S
C1843 C1842 1.386 . S
C1843 C1847 1.393 . S
C1844 H1833 0.950 . S
C1844 C1842 1.391 . S
C1844 C1845 1.400 . S
C1845 C1839 1.491 . S
C1845 C1844 1.400 . S
C1845 C1846 1.398 . S
C1846 H1834 0.950 . S
C1846 C1845 1.398 . S
C1846 C1847 1.391 . S
C1847 H1835 0.950 . S
C1847 C1843 1.393 . S
C1847 C1846 1.391 . S
H1848 C1856 0.950 . S
H1849 C1861 0.950 . S
H1850 C1858 0.950 . S
H1851 C1860 0.950 . S
H1852 C1862 0.950 . S
H1853 C1864 0.950 . S
H1854 C1866 0.950 . S
H1855 C1867 0.950 . S
C1856 H1848 0.950 . S
C1856 C1857 1.386 . S
C1856 C1858 1.391 . S
C1857 C1856 1.386 . S
C1857 C1861 1.393 . S
C1858 H1850 0.950 . S
C1858 C1856 1.391 . S
C1858 C1859 1.400 . S
C1859 C1858 1.400 . S
C1859 C1860 1.398 . S
C1859 C1865 1.491 . S
C1860 H1851 0.950 . S
C1860 C1859 1.398 . S
C1860 C1861 1.391 . S
C1861 H1849 0.950 . S
C1861 C1857 1.393 . S
C1861 C1860 1.391 . S
C1862 H1852 0.950 . S
C1862 C1863 1.386 . S
C1862 C1864 1.391 . S
C1863 C1862 1.386 . S
C1863 C1867 1.393 . S
C1864 H1853 0.950 . S
C1864 C1862 1.391 . S
C1864 C1865 1.400 . S
C1865 C1859 1.491 . S
C1865 C1864 1.400 . S
C1865 C1866 1.398 . S
C1866 H1854 0.950 . S
C1866 C1865 1.398 . S
C1866 C1867 1.391 . S
C1867 H1855 0.950 . S
C1867 C1863 1.393 . S
C1867 C1866 1.391 . S
H1868 C1876 0.950 . S
H1869 C1881 0.950 . S
H1870 C1878 0.950 . S
H1871 C1880 0.950 . S
H1872 C1882 0.950 . S
H1873 C1884 0.950 . S
H1874 C1886 0.950 . S
H1875 C1887 0.950 . S
C1876 H1868 0.950 . S
C1876 C1877 1.386 . S
C1876 C1878 1.391 . S
C1877 C1876 1.386 . S
C1877 C1881 1.393 . S
C1878 H1870 0.950 . S
C1878 C1876 1.391 . S
C1878 C1879 1.400 . S
C1879 C1878 1.400 . S
C1879 C1880 1.398 . S
C1879 C1885 1.491 . S
C1880 H1871 0.950 . S
C1880 C1879 1.398 . S
C1880 C1881 1.391 . S
C1881 H1869 0.950 . S
C1881 C1877 1.393 . S
C1881 C1880 1.391 . S
C1882 H1872 0.950 . S
C1882 C1883 1.386 . S
C1882 C1884 1.391 . S
C1883 C1882 1.386 . S
C1883 C1887 1.393 . S
C1884 H1873 0.950 . S
C1884 C1882 1.391 . S
C1884 C1885 1.400 . S
C1885 C1879 1.491 . S
C1885 C1884 1.400 . S
C1885 C1886 1.398 . S
C1886 H1874 0.950 . S
C1886 C1885 1.398 . S
C1886 C1887 1.391 . S
C1887 H1875 0.950 . S
C1887 C1883 1.393 . S
C1887 C1886 1.391 . S
H1888 C1896 0.950 . S
H1889 C1901 0.950 . S
H1890 C1898 0.950 . S
H1891 C1900 0.950 . S
H1892 C1902 0.950 . S
H1893 C1904 0.950 . S
H1894 C1906 0.950 . S
H1895 C1907 0.950 . S
C1896 H1888 0.950 . S
C1896 C1897 1.386 . S
C1896 C1898 1.391 . S
C1897 C1896 1.386 . S
C1897 C1901 1.393 . S
C1898 H1890 0.950 . S
C1898 C1896 1.391 . S
C1898 C1899 1.400 . S
C1899 C1898 1.400 . S
C1899 C1900 1.398 . S
C1899 C1905 1.491 . S
C1900 H1891 0.950 . S
C1900 C1899 1.398 . S
C1900 C1901 1.391 . S
C1901 H1889 0.950 . S
C1901 C1897 1.393 . S
C1901 C1900 1.391 . S
C1902 H1892 0.950 . S
C1902 C1903 1.386 . S
C1902 C1904 1.391 . S
C1903 C1902 1.386 . S
C1903 C1907 1.393 . S
C1904 H1893 0.950 . S
C1904 C1902 1.391 . S
C1904 C1905 1.400 . S
C1905 C1899 1.491 . S
C1905 C1904 1.400 . S
C1905 C1906 1.398 . S
C1906 H1894 0.950 . S
C1906 C1905 1.398 . S
C1906 C1907 1.391 . S
C1907 H1895 0.950 . S
C1907 C1903 1.393 . S
C1907 C1906 1.391 . S
H1908 C1916 0.950 . S
H1909 C1921 0.950 . S
H1910 C1918 0.950 . S
H1911 C1920 0.950 . S
H1912 C1922 0.950 . S
H1913 C1924 0.950 . S
H1914 C1926 0.950 . S
H1915 C1927 0.950 . S
C1916 H1908 0.950 . S
C1916 C1917 1.386 . S
C1916 C1918 1.391 . S
C1917 C1916 1.386 . S
C1917 C1921 1.393 . S
C1918 H1910 0.950 . S
C1918 C1916 1.391 . S
C1918 C1919 1.400 . S
C1919 C1918 1.400 . S
C1919 C1920 1.398 . S
C1919 C1925 1.491 . S
C1920 H1911 0.950 . S
C1920 C1919 1.398 . S
C1920 C1921 1.391 . S
C1921 H1909 0.950 . S
C1921 C1917 1.393 . S
C1921 C1920 1.391 . S
C1922 H1912 0.950 . S
C1922 C1923 1.386 . S
C1922 C1924 1.391 . S
C1923 C1922 1.386 . S
C1923 C1927 1.393 . S
C1924 H1913 0.950 . S
C1924 C1922 1.391 . S
C1924 C1925 1.400 . S
C1925 C1919 1.491 . S
C1925 C1924 1.400 . S
C1925 C1926 1.398 . S
C1926 H1914 0.950 . S
C1926 C1925 1.398 . S
C1926 C1927 1.391 . S
C1927 H1915 0.950 . S
C1927 C1923 1.393 . S
C1927 C1926 1.391 . S
H1928 C1936 0.950 . S
H1929 C1941 0.950 . S
H1930 C1938 0.950 . S
H1931 C1940 0.950 . S
H1932 C1942 0.950 . S
H1933 C1944 0.950 . S
H1934 C1946 0.950 . S
H1935 C1947 0.950 . S
C1936 H1928 0.950 . S
C1936 C1937 1.386 . S
C1936 C1938 1.391 . S
C1937 C1936 1.386 . S
C1937 C1941 1.393 . S
C1938 H1930 0.950 . S
C1938 C1936 1.391 . S
C1938 C1939 1.400 . S
C1939 C1938 1.400 . S
C1939 C1940 1.398 . S
C1939 C1945 1.491 . S
C1940 H1931 0.950 . S
C1940 C1939 1.398 . S
C1940 C1941 1.391 . S
C1941 H1929 0.950 . S
C1941 C1937 1.393 . S
C1941 C1940 1.391 . S
C1942 H1932 0.950 . S
C1942 C1943 1.386 . S
C1942 C1944 1.391 . S
C1943 C1942 1.386 . S
C1943 C1947 1.393 . S
C1944 H1933 0.950 . S
C1944 C1942 1.391 . S
C1944 C1945 1.400 . S
C1945 C1939 1.491 . S
C1945 C1944 1.400 . S
C1945 C1946 1.398 . S
C1946 H1934 0.950 . S
C1946 C1945 1.398 . S
C1946 C1947 1.391 . S
C1947 H1935 0.950 . S
C1947 C1943 1.393 . S
C1947 C1946 1.391 . S
H1948 C1956 0.950 . S
H1949 C1961 0.950 . S
H1950 C1958 0.950 . S
H1951 C1960 0.950 . S
H1952 C1962 0.950 . S
H1953 C1964 0.950 . S
H1954 C1966 0.950 . S
H1955 C1967 0.950 . S
C1956 H1948 0.950 . S
C1956 C1957 1.386 . S
C1956 C1958 1.391 . S
C1957 C1956 1.386 . S
C1957 C1961 1.393 . S
C1958 H1950 0.950 . S
C1958 C1956 1.391 . S
C1958 C1959 1.400 . S
C1959 C1958 1.400 . S
C1959 C1960 1.398 . S
C1959 C1965 1.491 . S
C1960 H1951 0.950 . S
C1960 C1959 1.398 . S
C1960 C1961 1.391 . S
C1961 H1949 0.950 . S
C1961 C1957 1.393 . S
C1961 C1960 1.391 . S
C1962 H1952 0.950 . S
C1962 C1963 1.386 . S
C1962 C1964 1.391 . S
C1963 C1962 1.386 . S
C1963 C1967 1.393 . S
C1964 H1953 0.950 . S
C1964 C1962 1.391 . S
C1964 C1965 1.400 . S
C1965 C1959 1.491 . S
C1965 C1964 1.400 . S
C1965 C1966 1.398 . S
C1966 H1954 0.950 . S
C1966 C1965 1.398 . S
C1966 C1967 1.391 . S
C1967 H1955 0.950 . S
C1967 C1963 1.393 . S
C1967 C1966 1.391 . S
H1968 C1976 0.950 . S
H1969 C1981 0.950 . S
H1970 C1978 0.950 . S
H1971 C1980 0.950 . S
H1972 C1982 0.950 . S
H1973 C1984 0.950 . S
H1974 C1986 0.950 . S
H1975 C1987 0.950 . S
C1976 H1968 0.950 . S
C1976 C1977 1.386 . S
C1976 C1978 1.391 . S
C1977 C1976 1.386 . S
C1977 C1981 1.393 . S
C1978 H1970 0.950 . S
C1978 C1976 1.391 . S
C1978 C1979 1.400 . S
C1979 C1978 1.400 . S
C1979 C1980 1.398 . S
C1979 C1985 1.491 . S
C1980 H1971 0.950 . S
C1980 C1979 1.398 . S
C1980 C1981 1.391 . S
C1981 H1969 0.950 . S
C1981 C1977 1.393 . S
C1981 C1980 1.391 . S
C1982 H1972 0.950 . S
C1982 C1983 1.386 . S
C1982 C1984 1.391 . S
C1983 C1982 1.386 . S
C1983 C1987 1.393 . S
C1984 H1973 0.950 . S
C1984 C1982 1.391 . S
C1984 C1985 1.400 . S
C1985 C1979 1.491 . S
C1985 C1984 1.400 . S
C1985 C1986 1.398 . S
C1986 H1974 0.950 . S
C1986 C1985 1.398 . S
C1986 C1987 1.391 . S
C1987 H1975 0.950 . S
C1987 C1983 1.393 . S
C1987 C1986 1.391 . S
H1988 C1996 0.950 . S
H1989 C2001 0.950 . S
H1990 C1998 0.950 . S
H1991 C2000 0.950 . S
H1992 C2002 0.950 . S
H1993 C2004 0.950 . S
H1994 C2006 0.950 . S
H1995 C2007 0.950 . S
C1996 H1988 0.950 . S
C1996 C1997 1.386 . S
C1996 C1998 1.391 . S
C1997 C1996 1.386 . S
C1997 C2001 1.393 . S
C1998 H1990 0.950 . S
C1998 C1996 1.391 . S
C1998 C1999 1.400 . S
C1999 C1998 1.400 . S
C1999 C2000 1.398 . S
C1999 C2005 1.491 . S
C2000 H1991 0.950 . S
C2000 C1999 1.398 . S
C2000 C2001 1.391 . S
C2001 H1989 0.950 . S
C2001 C1997 1.393 . S
C2001 C2000 1.391 . S
C2002 H1992 0.950 . S
C2002 C2003 1.386 . S
C2002 C2004 1.391 . S
C2003 C2002 1.386 . S
C2003 C2007 1.393 . S
C2004 H1993 0.950 . S
C2004 C2002 1.391 . S
C2004 C2005 1.400 . S
C2005 C1999 1.491 . S
C2005 C2004 1.400 . S
C2005 C2006 1.398 . S
C2006 H1994 0.950 . S
C2006 C2005 1.398 . S
C2006 C2007 1.391 . S
C2007 H1995 0.950 . S
C2007 C2003 1.393 . S
C2007 C2006 1.391 . S
H2008 C2016 0.950 . S
H2009 C2021 0.950 . S
H2010 C2018 0.950 . S
H2011 C2020 0.950 . S
H2012 C2022 0.950 . S
H2013 C2024 0.950 . S
H2014 C2026 0.950 . S
H2015 C2027 0.950 . S
C2016 H2008 0.950 . S
C2016 C2017 1.386 . S
C2016 C2018 1.391 . S
C2017 C2016 1.386 . S
C2017 C2021 1.393 . S
C2018 H2010 0.950 . S
C2018 C2016 1.391 . S
C2018 C2019 1.400 . S
C2019 C2018 1.400 . S
C2019 C2020 1.398 . S
C2019 C2025 1.491 . S
C2020 H2011 0.950 . S
C2020 C2019 1.398 . S
C2020 C2021 1.391 . S
C2021 H2009 0.950 . S
C2021 C2017 1.393 . S
C2021 C2020 1.391 . S
C2022 H2012 0.950 . S
C2022 C2023 1.386 . S
C2022 C2024 1.391 . S
C2023 C2022 1.386 . S
C2023 C2027 1.393 . S
C2024 H2013 0.950 . S
C2024 C2022 1.391 . S
C2024 C2025 1.400 . S
C2025 C2019 1.491 . S
C2025 C2024 1.400 . S
C2025 C2026 1.398 . S
C2026 H2014 0.950 . S
C2026 C2025 1.398 . S
C2026 C2027 1.391 . S
C2027 H2015 0.950 . S
C2027 C2023 1.393 . S
C2027 C2026 1.391 . S
C603 C294 1.493 . S
C597 C285 1.494 . S
C617 C261 1.395 . S
C623 C292 1.396 . S
C643 C293 1.395 . S
C637 C249 1.396 . S
C657 C273 1.494 . S
C663 C295 1.494 . S
C683 C339 1.544 . S
C677 C201 1.546 . S
C703 C399 1.473 . S
C697 C213 1.476 . S
C717 C225 1.537 . S
C723 C338 1.536 . S
C743 C398 1.375 . S
C737 C237 1.374 . S
C757 C153 1.443 . S
C763 C340 1.442 . S
C783 C396 1.463 . S
C777 C165 1.464 . S
C797 C177 1.445 . S
C803 C341 1.446 . S
C817 C189 1.561 . S
C823 C397 1.563 . S
C843 C447 1.493 . S
C837 C141 1.493 . S
C857 C117 1.393 . S
C863 C446 1.396 . S
C877 C105 1.397 . S
C883 C448 1.396 . S
C903 C449 1.492 . S
C897 C129 1.493 . S
C917 C57 1.546 . S
C923 C490 1.545 . S
C937 C69 1.475 1_565 S
C943 C549 1.476 . S
C957 C81 1.537 . S
C963 C488 1.536 . S
C977 C93 1.375 1_565 S
C983 C548 1.376 . S
C1003 C489 1.443 . S
C997 C9 1.441 . S
C1023 C546 1.463 . S
C1017 C21 1.464 . S
C1037 C33 1.446 . S
C1043 C491 1.445 . S
C1063 C547 1.562 1_565 S
C1057 C45 1.560 1_545 S
C1083 C291 1.420 . S
C1077 C4 1.325 . S
C1097 C18 1.519 . S
C1103 C297 1.572 . S
C1117 C30 1.625 . S
C1123 C289 1.673 . S
C1137 C42 1.670 1_545 S
C1143 C296 1.714 1_565 S
C1157 C52 1.333 . S
C1163 C288 1.432 . S
C1183 C298 1.665 . S
C1177 C66 1.627 1_565 S
C1197 C78 1.650 . S
C1203 C290 1.686 . S
C1223 C299 1.287 1_565 S
C1217 C88 1.191 1_545 S
C1243 C345 1.438 1_565 S
C1237 C40 1.321 . S
C1257 C6 1.605 . S
C1263 C388 1.654 . S
C1283 C343 1.466 1_565 S
C1277 C16 1.375 1_545 S
C1303 C390 1.399 . S
C1297 C28 1.276 . S
C1317 C64 1.277 . S
C1323 C344 1.376 . S
C1343 C389 1.495 . S
C1337 C76 1.392 . S
C1363 C342 1.654 1_565 S
C1357 C90 1.623 . S
C1383 C391 1.768 . S
C1377 C54 1.743 . S
C1403 C395 1.567 . S
C1397 C102 1.526 . S
C1417 C114 1.513 . S
C1423 C394 1.566 . S
C1443 C346 1.324 . S
C1437 C100 1.239 . S
C1463 C393 1.359 . S
C1457 C124 1.268 . S
C1477 C138 1.637 . S
C1483 C349 1.667 . S
C1497 C136 1.273 . S
C1503 C392 1.359 . S
C1523 C348 1.320 . S
C1517 C112 1.205 . S
C1543 C347 1.666 . S
C1537 C126 1.634 . S
C1563 C441 1.415 . S
C1557 C148 1.287 . S
C1583 C444 1.574 . S
C1577 C162 1.540 . S
C1597 C174 1.638 . S
C1603 C440 1.673 . S
C1623 C442 1.715 . S
C1617 C186 1.675 . S
C1643 C438 1.428 . S
C1637 C196 1.318 . S
C1657 C210 1.632 . S
C1663 C443 1.664 . S
C1677 C222 1.640 . S
C1683 C439 1.687 . S
C1703 C445 1.283 . S
C1697 C232 1.166 . S
C1723 C499 1.440 . S
C1717 C184 1.338 . S
C1737 C150 1.605 . S
C1743 C538 1.655 . S
C1763 C498 1.463 . S
C1757 C160 1.353 . S
C1783 C540 1.403 . S
C1777 C172 1.308 . S
C1803 C497 1.372 . S
C1797 C208 1.253 . S
C1817 C220 1.368 . S
C1823 C539 1.492 . S
C1843 C496 1.654 . S
C1837 C234 1.607 . S
C1863 C541 1.769 . S
C1857 C198 1.726 . S
C1883 C545 1.568 . S
C1877 C246 1.535 . S
C1897 C258 1.513 . S
C1903 C544 1.566 . S
C1923 C492 1.318 . S
C1917 C244 1.197 . S
C1937 C268 1.246 . S
C1943 C543 1.355 . S
C1963 C495 1.667 . S
C1957 C282 1.636 . S
C1983 C542 1.357 . S
C1977 C280 1.257 . S
C2003 C493 1.318 . S
C1997 C256 1.198 . S
C2017 C270 1.620 . S
C2023 C494 1.667 . S
