# Generated by pormake.
# Topology ant, (3,6)-cn, num edge types: 1
# Building blocks:
#     Node 0, Type 0, BuildingBlock: BETDIP_clean_linker_0, # of connection points: 3
#     Node 1, Type 0, BuildingBlock: BETDIP_clean_linker_0, # of connection points: 3
#     Node 2, Type 0, BuildingBlock: BETDIP_clean_linker_0, # of connection points: 3
#     Node 3, Type 0, BuildingBlock: BETDIP_clean_linker_0, # of connection points: 3
#     Node 4, Type 0, BuildingBlock: BETDIP_clean_linker_0, # of connection points: 3
#     Node 5, Type 0, BuildingBlock: BETDIP_clean_linker_0, # of connection points: 3
#     Node 6, Type 0, BuildingBlock: BETDIP_clean_linker_0, # of connection points: 3
#     Node 7, Type 0, BuildingBlock: BETDIP_clean_linker_0, # of connection points: 3
#     Node 8, Type 1, BuildingBlock: MIDCAF_clean_sbu_0, # of connection points: 6
#     Node 9, Type 1, BuildingBlock: MIDCAF_clean_sbu_0, # of connection points: 6
#     Node 10, Type 1, BuildingBlock: MIDCAF_clean_sbu_0, # of connection points: 6
#     Node 11, Type 1, BuildingBlock: MIDCAF_clean_sbu_0, # of connection points: 6
#     Edge 12, Type (0, 1), BuildingBlock: XIVTED_clean_linker_0, # of connection points: 2
#     Edge 13, Type (0, 1), BuildingBlock: XIVTED_clean_linker_0, # of connection points: 2
#     Edge 14, Type (0, 1), BuildingBlock: XIVTED_clean_linker_0, # of connection points: 2
#     Edge 15, Type (0, 1), BuildingBlock: XIVTED_clean_linker_0, # of connection points: 2
#     Edge 16, Type (0, 1), BuildingBlock: XIVTED_clean_linker_0, # of connection points: 2
#     Edge 17, Type (0, 1), BuildingBlock: XIVTED_clean_linker_0, # of connection points: 2
#     Edge 18, Type (0, 1), BuildingBlock: XIVTED_clean_linker_0, # of connection points: 2
#     Edge 19, Type (0, 1), BuildingBlock: XIVTED_clean_linker_0, # of connection points: 2
#     Edge 20, Type (0, 1), BuildingBlock: XIVTED_clean_linker_0, # of connection points: 2
#     Edge 21, Type (0, 1), BuildingBlock: XIVTED_clean_linker_0, # of connection points: 2
#     Edge 22, Type (0, 1), BuildingBlock: XIVTED_clean_linker_0, # of connection points: 2
#     Edge 23, Type (0, 1), BuildingBlock: XIVTED_clean_linker_0, # of connection points: 2
#     Edge 24, Type (0, 1), BuildingBlock: XIVTED_clean_linker_0, # of connection points: 2
#     Edge 25, Type (0, 1), BuildingBlock: XIVTED_clean_linker_0, # of connection points: 2
#     Edge 26, Type (0, 1), BuildingBlock: XIVTED_clean_linker_0, # of connection points: 2
#     Edge 27, Type (0, 1), BuildingBlock: XIVTED_clean_linker_0, # of connection points: 2
#     Edge 28, Type (0, 1), BuildingBlock: XIVTED_clean_linker_0, # of connection points: 2
#     Edge 29, Type (0, 1), BuildingBlock: XIVTED_clean_linker_0, # of connection points: 2
#     Edge 30, Type (0, 1), BuildingBlock: XIVTED_clean_linker_0, # of connection points: 2
#     Edge 31, Type (0, 1), BuildingBlock: XIVTED_clean_linker_0, # of connection points: 2
#     Edge 32, Type (0, 1), BuildingBlock: XIVTED_clean_linker_0, # of connection points: 2
#     Edge 33, Type (0, 1), BuildingBlock: XIVTED_clean_linker_0, # of connection points: 2
#     Edge 34, Type (0, 1), BuildingBlock: XIVTED_clean_linker_0, # of connection points: 2
#     Edge 35, Type (0, 1), BuildingBlock: XIVTED_clean_linker_0, # of connection points: 2
# Relax obj value: 0.091
# Max RMSD: 0.189
# Mean RMSD: 0.127
data_MOF--net-ant--node1-MIDCAF_clean_sbu_0--node2-BETDIP_clean_linker_0--edge1-XIVTED_clean_linker_0
_symmetry_space_group_name_H-M    P1
_symmetry_Int_Tables_number       1
_symmetry_cell_setting            triclinic
loop_
_symmetry_equiv_pos_as_xyz
'x, y, z'
_cell_length_a     29.241717
_cell_length_b     28.934496
_cell_length_c     71.026421
_cell_angle_alpha  94.829373
_cell_angle_beta   94.889882
_cell_angle_gamma 90.065099
loop_
_atom_site_label
_atom_site_type_symbol
_atom_site_fract_x
_atom_site_fract_y
_atom_site_fract_z
_atom_type_partial_charge
H0 H 0.24515 0.27567 0.09294 0.0
H1 H 0.21166 0.17275 0.04683 0.0
H2 H 0.16748 0.31301 0.04198 0.0
H3 H 0.23378 0.19736 0.1085 0.0
C4 C 0.25253 0.17459 0.09899 0.0
C5 C 0.2283 0.26648 0.07895 0.0
C6 C 0.20558 0.3007 0.06856 0.0
C7 C 0.2305 0.22042 0.07093 0.0
C8 C 0.20969 0.20839 0.05276 0.0
C9 C 0.1857 0.24114 0.04244 0.0
C10 C 0.18398 0.28722 0.05039 0.0
N11 N 0.25577 0.18552 0.08003 0.0
H12 H 0.00401 0.80614 0.33462 0.0
H13 H 0.07507 0.81652 0.28455 0.0
H14 H 0.92951 0.79501 0.27915 0.0
H15 H 0.12291 0.76837 0.30139 0.0
C16 C 0.12745 0.79073 0.31452 0.0
C17 C 0.00329 0.8067 0.31937 0.0
C18 C 0.96119 0.80102 0.30799 0.0
C19 C 0.04484 0.81057 0.31096 0.0
C20 C 0.04354 0.81208 0.2912 0.0
C21 C 0.00231 0.80587 0.27971 0.0
C22 C 0.96134 0.79981 0.28812 0.0
N23 N 0.08787 0.81105 0.32217 0.0
H24 H 0.71696 0.76248 0.59212 0.0
H25 H 0.69664 0.65035 0.5486 0.0
H26 H 0.64807 0.7865 0.53772 0.0
H27 H 0.7701 0.63066 0.56494 0.0
C28 C 0.75561 0.63255 0.57858 0.0
C29 C 0.7038 0.75001 0.57787 0.0
C30 C 0.68205 0.78076 0.56563 0.0
C31 C 0.71011 0.7033 0.5717 0.0
C32 C 0.69337 0.68674 0.55323 0.0
C33 C 0.67058 0.71641 0.54096 0.0
C34 C 0.66531 0.76341 0.54722 0.0
N35 N 0.73117 0.67292 0.58455 0.0
H36 H 0.50692 0.30631 0.84371 0.0
H37 H 0.5965 0.31009 0.79941 0.0
H38 H 0.45169 0.28725 0.78514 0.0
H39 H 0.60078 0.23854 0.83668 0.0
C40 C 0.6186 0.27164 0.84003 0.0
C41 C 0.51126 0.30466 0.82868 0.0
C42 C 0.47329 0.29632 0.81517 0.0
C43 C 0.55538 0.30983 0.82288 0.0
C44 C 0.56183 0.3076 0.80359 0.0
C45 C 0.52463 0.29998 0.78979 0.0
C46 C 0.48038 0.2942 0.7957 0.0
N47 N 0.59428 0.31266 0.83625 0.0
H48 H 0.00545 0.69659 0.89722 0.0
H49 H 0.07983 0.74524 0.95021 0.0
H50 H 0.04188 0.60183 0.93955 0.0
H51 H 0.10059 0.80364 0.93428 0.0
C52 C 0.07143 0.80973 0.92431 0.0
C53 C 0.02146 0.68988 0.91103 0.0
C54 C 0.02018 0.64481 0.9171 0.0
C55 C 0.04337 0.72647 0.92274 0.0
C56 C 0.06415 0.71744 0.94069 0.0
C57 C 0.06345 0.67254 0.94683 0.0
C58 C 0.04127 0.6367 0.93501 0.0
N59 N 0.04266 0.77195 0.91631 0.0
H60 H 0.63871 0.84478 0.14993 0.0
H61 H 0.72082 0.80166 0.19865 0.0
H62 H 0.57724 0.82326 0.20168 0.0
H63 H 0.77347 0.84588 0.18796 0.0
C64 C 0.76995 0.83473 0.17291 0.0
C65 C 0.64166 0.83578 0.16448 0.0
C66 C 0.60228 0.83552 0.17471 0.0
C67 C 0.68515 0.82559 0.17326 0.0
C68 C 0.68835 0.81225 0.19193 0.0
C69 C 0.64983 0.81252 0.20226 0.0
C70 C 0.60716 0.82451 0.19369 0.0
N71 N 0.72529 0.82832 0.16326 0.0
H72 H 0.50463 0.20539 0.39764 0.0
H73 H 0.59635 0.25849 0.44492 0.0
H74 H 0.53967 0.12059 0.44342 0.0
H75 H 0.48616 0.28283 0.3972 0.0
C76 C 0.51645 0.30305 0.40265 0.0
C77 C 0.52266 0.20116 0.41132 0.0
C78 C 0.51983 0.15843 0.41933 0.0
C79 C 0.54922 0.23789 0.42108 0.0
C80 C 0.57455 0.23054 0.43817 0.0
C81 C 0.5711 0.18861 0.44671 0.0
C82 C 0.54318 0.15307 0.43714 0.0
N83 N 0.55131 0.28293 0.41446 0.0
H84 H 0.13579 0.33116 0.64493 0.0
H85 H 0.21513 0.3139 0.6977 0.0
H86 H 0.06844 0.31919 0.696 0.0
H87 H 0.26448 0.36337 0.68349 0.0
C88 C 0.26414 0.34073 0.67046 0.0
C89 C 0.13742 0.32786 0.66005 0.0
C90 C 0.0967 0.32687 0.6693 0.0
C91 C 0.18038 0.32496 0.67035 0.0
C92 C 0.18235 0.3186 0.6898 0.0
C93 C 0.14219 0.31675 0.69909 0.0
C94 C 0.09959 0.32197 0.68889 0.0
N95 N 0.22128 0.32575 0.66088 0.0
Zn96 Zn 0.21914 0.70459 0.14844 0.0
Zn97 Zn 0.13939 0.79308 0.09353 0.0
Zn98 Zn 0.17758 0.74691 0.12013 0.0
C99 C 0.1614 0.70655 0.07673 0.0
C100 C 0.21305 0.84685 0.10755 0.0
O101 O 0.13175 0.75026 0.14352 0.0
O102 O 0.16952 0.71248 0.16578 0.0
C103 C 0.20915 0.63831 0.11703 0.0
O104 O 0.17261 0.69834 0.09406 0.0
O105 O 0.1477 0.74609 0.07271 0.0
O106 O 0.17907 0.84815 0.09546 0.0
O107 O 0.21886 0.81162 0.11751 0.0
O108 O 0.22554 0.64335 0.13413 0.0
O109 O 0.1901 0.673 0.10917 0.0
O110 O 0.24471 0.78274 0.12913 0.0
O111 O 0.27416 0.74562 0.15331 0.0
C112 C 0.27734 0.77695 0.14214 0.0
O113 O 0.10636 0.76584 0.12738 0.0
O114 O 0.0773 0.79984 0.10237 0.0
C115 C 0.13487 0.73514 0.16015 0.0
C116 C 0.07221 0.78482 0.11824 0.0
Zn117 Zn 0.51302 0.68821 0.3405 0.0
Zn118 Zn 0.60171 0.79447 0.39408 0.0
Zn119 Zn 0.55529 0.74059 0.36811 0.0
C120 C 0.52102 0.84109 0.38557 0.0
C121 C 0.6589 0.78402 0.36536 0.0
O122 O 0.54429 0.67009 0.37861 0.0
O123 O 0.50635 0.63201 0.35379 0.0
C124 C 0.45457 0.76265 0.34827 0.0
O125 O 0.51408 0.80462 0.37391 0.0
O126 O 0.55701 0.84501 0.39672 0.0
O127 O 0.65762 0.80599 0.38142 0.0
O128 O 0.62412 0.75875 0.35825 0.0
O129 O 0.45806 0.72737 0.33678 0.0
O130 O 0.4873 0.77365 0.36124 0.0
O131 O 0.59507 0.73797 0.34286 0.0
O132 O 0.55807 0.68857 0.32135 0.0
C133 C 0.59094 0.71655 0.32611 0.0
O134 O 0.56633 0.69991 0.39327 0.0
O135 O 0.60668 0.74995 0.41349 0.0
C136 C 0.52395 0.63286 0.37067 0.0
C137 C 0.58787 0.71068 0.40965 0.0
Zn138 Zn 0.62721 0.26682 0.60362 0.0
Zn139 Zn 0.71652 0.17999 0.64535 0.0
Zn140 Zn 0.67162 0.22316 0.62282 0.0
C141 C 0.77844 0.23768 0.63208 0.0
C142 C 0.67918 0.11386 0.61805 0.0
O143 O 0.60357 0.23951 0.63416 0.0
O144 O 0.56421 0.24457 0.60661 0.0
C145 C 0.68886 0.32857 0.61925 0.0
O146 O 0.74014 0.25756 0.6276 0.0
O147 O 0.77819 0.19799 0.6382 0.0
O148 O 0.69172 0.11767 0.63558 0.0
O149 O 0.6747 0.15076 0.60907 0.0
O150 O 0.64583 0.32916 0.61585 0.0
O151 O 0.70926 0.28915 0.61992 0.0
O152 O 0.66383 0.18141 0.59512 0.0
O153 O 0.65672 0.24531 0.58047 0.0
C154 C 0.66452 0.20239 0.57987 0.0
O155 O 0.63438 0.22649 0.64872 0.0
O156 O 0.69306 0.21118 0.6688 0.0
C157 C 0.56467 0.24202 0.62425 0.0
C158 C 0.6523 0.22485 0.66584 0.0
Zn159 Zn 0.02776 0.16897 0.84082 0.0
Zn160 Zn 0.10112 0.2843 0.88662 0.0
Zn161 Zn 0.06036 0.22994 0.86623 0.0
C162 C 0.07281 0.22408 0.9097 0.0
C163 C 0.03344 0.33377 0.87047 0.0
O164 O 0.09811 0.22948 0.84028 0.0
O165 O 0.06673 0.17433 0.81972 0.0
C166 C 0.04626 0.12123 0.87288 0.0
O167 O 0.0737 0.19939 0.89377 0.0
O168 O 0.07511 0.26765 0.91003 0.0
O169 O 0.07598 0.33946 0.87462 0.0
O170 O 0.01618 0.29249 0.86931 0.0
O171 O 0.03279 0.11438 0.85551 0.0
O172 O 0.05824 0.16246 0.87999 0.0
O173 O 0.98956 0.25477 0.85954 0.0
O174 O 0.96633 0.1978 0.83825 0.0
C175 C 0.95782 0.23499 0.84792 0.0
O176 O 0.12774 0.248 0.85562 0.0
O177 O 0.16613 0.26758 0.88313 0.0
C178 C 0.09503 0.20732 0.82365 0.0
C179 C 0.16619 0.25732 0.86553 0.0
H180 H 0.27589 0.3506 0.08926 0.0
H181 H 0.14795 0.59634 0.08895 0.0
H182 H 0.1374 0.36608 0.06436 0.0
H183 H 0.27351 0.57232 0.12298 0.0
H184 H 0.14721 0.51431 0.07643 0.0
H185 H 0.27821 0.43338 0.09935 0.0
C186 C 0.24573 0.37114 0.08606 0.0
C187 C 0.20638 0.35085 0.07591 0.0
C188 C 0.17513 0.52719 0.08651 0.0
C189 C 0.20928 0.44662 0.08708 0.0
C190 C 0.17584 0.57414 0.09344 0.0
C191 C 0.21091 0.59128 0.10696 0.0
C192 C 0.2099 0.49735 0.09307 0.0
C193 C 0.24568 0.56061 0.11263 0.0
C194 C 0.24726 0.41868 0.09168 0.0
C195 C 0.16881 0.37999 0.07189 0.0
N196 N 0.24424 0.51535 0.10572 0.0
N197 N 0.17124 0.42624 0.07743 0.0
H198 H 0.89096 0.73891 0.29683 0.0
H199 H 0.72212 0.85394 0.37001 0.0
H200 H 0.9302 0.85197 0.33862 0.0
H201 H 0.69393 0.72097 0.33897 0.0
H202 H 0.79546 0.85717 0.35623 0.0
H203 H 0.81628 0.73473 0.30989 0.0
C204 C 0.88388 0.76285 0.30877 0.0
C205 C 0.91691 0.79598 0.31662 0.0
C206 C 0.77318 0.82738 0.35229 0.0
C207 C 0.83133 0.79143 0.33158 0.0
C208 C 0.73113 0.82554 0.36012 0.0
C209 C 0.70139 0.78735 0.35546 0.0
C210 C 0.78597 0.79076 0.33964 0.0
C211 C 0.71514 0.7516 0.34259 0.0
C212 C 0.84129 0.76031 0.31625 0.0
C213 C 0.90599 0.82569 0.33222 0.0
N214 N 0.75643 0.75416 0.33511 0.0
N215 N 0.8641 0.82291 0.33908 0.0
H216 H 0.71594 0.61881 0.61151 0.0
H217 H 0.7696 0.34694 0.60412 0.0
H218 H 0.79918 0.55156 0.57017 0.0
H219 H 0.66339 0.41149 0.63544 0.0
H220 H 0.79694 0.42435 0.59809 0.0
H221 H 0.712 0.54596 0.62648 0.0
C222 C 0.73393 0.58888 0.60573 0.0
C223 C 0.75745 0.59096 0.58943 0.0
C224 C 0.76831 0.42152 0.60665 0.0
C225 C 0.753 0.50744 0.60645 0.0
C226 C 0.75307 0.37743 0.61026 0.0
C227 C 0.71398 0.37304 0.62012 0.0
C228 C 0.74436 0.46114 0.61311 0.0
C229 C 0.69342 0.41352 0.62761 0.0
C230 C 0.73165 0.54726 0.61428 0.0
C231 C 0.78033 0.55116 0.58263 0.0
N232 N 0.70849 0.4558 0.62377 0.0
N233 N 0.77716 0.51087 0.59105 0.0
H234 H 0.67286 0.19807 0.83372 0.0
H235 H 0.91461 0.29831 0.87201 0.0
H236 H 0.67928 0.34387 0.85239 0.0
H237 H 0.89157 0.21009 0.81992 0.0
H238 H 0.83121 0.31339 0.87078 0.0
H239 H 0.75657 0.19636 0.83557 0.0
C240 C 0.69201 0.22965 0.83839 0.0
C241 C 0.66928 0.27118 0.84277 0.0
C242 C 0.84494 0.2914 0.85954 0.0
C243 C 0.76503 0.26939 0.84508 0.0
C244 C 0.89237 0.28296 0.86017 0.0
C245 C 0.91007 0.25236 0.84621 0.0
C246 C 0.81556 0.26833 0.84505 0.0
C247 C 0.87958 0.23318 0.83122 0.0
C248 C 0.73967 0.22871 0.83934 0.0
C249 C 0.69572 0.31121 0.84876 0.0
N250 N 0.83393 0.24081 0.83124 0.0
N251 N 0.74252 0.30936 0.84984 0.0
H252 H 0.03321 0.6207 0.87978 0.0
H253 H 0.96221 0.36102 0.89119 0.0
H254 H 0.96255 0.57699 0.92618 0.0
H255 H 0.04505 0.40353 0.84831 0.0
H256 H 0.93972 0.44198 0.8979 0.0
H257 H 0.01603 0.54517 0.86236 0.0
C258 C 0.01294 0.59571 0.88607 0.0
C259 C 0.00017 0.60472 0.90461 0.0
C260 C 0.96156 0.43344 0.88656 0.0
C261 C 0.98107 0.51791 0.88495 0.0
C262 C 0.97377 0.38709 0.88254 0.0
C263 C 0.00548 0.37582 0.8692 0.0
C264 C 0.98163 0.46846 0.87726 0.0
C265 C 0.02053 0.41103 0.85873 0.0
C266 C 0.00336 0.55242 0.87618 0.0
C267 C 0.97398 0.57098 0.91208 0.0
N268 N 0.00921 0.45587 0.86323 0.0
N269 N 0.96605 0.52881 0.90239 0.0
H270 H 0.84949 0.80719 0.19033 0.0
H271 H 0.00388 0.8442 0.10806 0.0
H272 H 0.78721 0.83545 0.13531 0.0
H273 H 0.03468 0.73434 0.14445 0.0
H274 H 0.92812 0.85186 0.1201 0.0
H275 H 0.9222 0.79071 0.17637 0.0
C276 C 0.85119 0.80969 0.17526 0.0
C277 C 0.81249 0.82255 0.1639 0.0
C278 C 0.95168 0.8263 0.12552 0.0
C279 C 0.89548 0.80487 0.14802 0.0
C280 C 0.99501 0.82196 0.11875 0.0
C281 C 0.02656 0.78968 0.12582 0.0
C282 C 0.93994 0.79871 0.13968 0.0
C283 C 0.01266 0.76141 0.13943 0.0
C284 C 0.89251 0.80012 0.16734 0.0
C285 C 0.8163 0.82537 0.14449 0.0
N286 N 0.97061 0.76703 0.14615 0.0
N287 N 0.85742 0.81728 0.13717 0.0
H288 H 0.4501 0.35221 0.38459 0.0
H289 H 0.58786 0.59478 0.39594 0.0
H290 H 0.58445 0.36852 0.41457 0.0
H291 H 0.45356 0.57152 0.36658 0.0
H292 H 0.58584 0.51513 0.4059 0.0
H293 H 0.4498 0.43486 0.38007 0.0
C294 C 0.47961 0.37328 0.3902 0.0
C295 C 0.51733 0.35338 0.39987 0.0
C296 C 0.5566 0.52782 0.3975 0.0
C297 C 0.51745 0.44859 0.39481 0.0
C298 C 0.55758 0.5734 0.39201 0.0
C299 C 0.52092 0.58965 0.38035 0.0
C300 C 0.51865 0.4987 0.39129 0.0
C301 C 0.48277 0.56028 0.37542 0.0
C302 C 0.47943 0.4206 0.38769 0.0
C303 C 0.55463 0.38241 0.40696 0.0
N304 N 0.48281 0.5164 0.38077 0.0
N305 N 0.55385 0.42854 0.40422 0.0
H306 H 0.02109 0.37773 0.67787 0.0
H307 H 0.85398 0.19856 0.6184 0.0
H308 H 0.06741 0.27388 0.63678 0.0
H309 H 0.80484 0.32727 0.64402 0.0
H310 H 0.9321 0.22966 0.6226 0.0
H311 H 0.94219 0.36496 0.6638 0.0
C312 C 0.01469 0.35286 0.66564 0.0
C313 C 0.05075 0.32645 0.6586 0.0
C314 C 0.9043 0.25163 0.62697 0.0
C315 C 0.96056 0.31121 0.6426 0.0
C316 C 0.8597 0.23385 0.62457 0.0
C317 C 0.82316 0.26039 0.63096 0.0
C318 C 0.91271 0.29586 0.63637 0.0
C319 C 0.83222 0.30585 0.63886 0.0
C320 C 0.96969 0.34569 0.65759 0.0
C321 C 0.04067 0.29499 0.64265 0.0
N322 N 0.87635 0.32188 0.64174 0.0
N323 N 0.99643 0.28761 0.63542 0.0
H324 H 0.34874 0.36005 0.68779 0.0
H325 H 0.48039 0.21072 0.60959 0.0
H326 H 0.27996 0.28113 0.63932 0.0
H327 H 0.54945 0.28837 0.65826 0.0
H328 H 0.40654 0.23103 0.62163 0.0
H329 H 0.42241 0.33033 0.67834 0.0
C330 C 0.34926 0.33652 0.67511 0.0
C331 C 0.30836 0.32326 0.66425 0.0
C332 C 0.43779 0.24306 0.62987 0.0
C333 C 0.39238 0.28884 0.65338 0.0
C334 C 0.47993 0.2313 0.62304 0.0
C335 C 0.52099 0.24737 0.63312 0.0
C336 C 0.43665 0.27172 0.64678 0.0
C337 C 0.51859 0.27427 0.65035 0.0
C338 C 0.39126 0.31941 0.66977 0.0
C339 C 0.31074 0.29245 0.64804 0.0
N340 N 0.47707 0.28596 0.65657 0.0
N341 N 0.35211 0.27639 0.64306 0.0
H342 H 0.53581 0.88986 0.18975 0.0
H343 H 0.33303 0.79173 0.1141 0.0
H344 H 0.5612 0.80097 0.13994 0.0
H345 H 0.32058 0.821 0.17391 0.0
H346 H 0.41354 0.81894 0.11896 0.0
H347 H 0.45413 0.88937 0.17911 0.0
C348 C 0.5243 0.87089 0.17638 0.0
C349 C 0.5553 0.84451 0.16594 0.0
C350 C 0.39271 0.82044 0.13089 0.0
C351 C 0.46165 0.84413 0.15363 0.0
C352 C 0.3468 0.8054 0.12811 0.0
C353 C 0.32041 0.80416 0.14366 0.0
C354 C 0.41166 0.83517 0.14927 0.0
C355 C 0.33991 0.82143 0.16158 0.0
C356 C 0.47767 0.87066 0.17033 0.0
C357 C 0.53851 0.82152 0.14849 0.0
N358 N 0.38434 0.83604 0.16391 0.0
N359 N 0.49262 0.82123 0.14301 0.0
H360 H 0.38965 0.32621 0.80003 0.0
H361 H 0.24898 0.22813 0.88015 0.0
H362 H 0.45056 0.24729 0.84452 0.0
H363 H 0.18406 0.28984 0.8318 0.0
H364 H 0.32318 0.23471 0.86708 0.0
H365 H 0.31398 0.31278 0.81097 0.0
C366 C 0.38718 0.30584 0.81202 0.0
C367 C 0.42677 0.28818 0.82143 0.0
C368 C 0.29267 0.24625 0.85913 0.0
C369 C 0.34014 0.27308 0.83415 0.0
C370 C 0.25033 0.24247 0.86659 0.0
C371 C 0.21022 0.25753 0.85677 0.0
C372 C 0.29513 0.26602 0.84183 0.0
C373 C 0.21388 0.27626 0.83939 0.0
C374 C 0.34393 0.29833 0.81829 0.0
C375 C 0.42129 0.26247 0.83703 0.0
N376 N 0.25563 0.28028 0.83251 0.0
N377 N 0.37894 0.25588 0.84291 0.0
H378 H 0.19631 0.80197 0.29284 0.0
H379 H 0.39492 0.78622 0.37541 0.0
H380 H 0.16727 0.8083 0.35144 0.0
H381 H 0.4153 0.79592 0.31653 0.0
H382 H 0.3137 0.80718 0.36878 0.0
H383 H 0.27753 0.81223 0.30265 0.0
C384 C 0.20722 0.80617 0.30787 0.0
C385 C 0.17523 0.80415 0.32134 0.0
C386 C 0.3363 0.806 0.35744 0.0
C387 C 0.26897 0.8145 0.33288 0.0
C388 C 0.38269 0.79452 0.36127 0.0
C389 C 0.41158 0.78921 0.34644 0.0
C390 C 0.31915 0.81208 0.33868 0.0
C391 C 0.39404 0.7995 0.32833 0.0
C392 C 0.25372 0.81202 0.31351 0.0
C393 C 0.19104 0.80985 0.34063 0.0
N394 N 0.34904 0.80985 0.32494 0.0
N395 N 0.23709 0.81388 0.34587 0.0
H396 H 0.6933 0.85707 0.54563 0.0
H397 H 0.65391 0.03766 0.63434 0.0
H398 H 0.65905 0.81898 0.60021 0.0
H399 H 0.68724 0.08164 0.58057 0.0
H400 H 0.65009 0.95778 0.62074 0.0
H401 H 0.68645 0.93907 0.55686 0.0
C402 C 0.68397 0.86585 0.55992 0.0
C403 C 0.67698 0.83086 0.57202 0.0
C404 C 0.65793 0.9847 0.61178 0.0
C405 C 0.66937 0.92484 0.58498 0.0
C406 C 0.66008 0.03051 0.61955 0.0
C407 C 0.67118 0.06648 0.60861 0.0
C408 C 0.66739 0.97416 0.59287 0.0
C409 C 0.67835 0.05502 0.58948 0.0
C410 C 0.68025 0.91274 0.56633 0.0
C411 C 0.66553 0.84454 0.59045 0.0
N412 N 0.67682 0.00971 0.58224 0.0
N413 N 0.6622 0.89026 0.59633 0.0
H414 H 0.30044 0.10818 0.0791 0.0
H415 H 0.22691 0.9045 0.13996 0.0
H416 H 0.2304 0.1319 0.13005 0.0
H417 H 0.26133 0.88582 0.08209 0.0
H418 H 0.25038 0.98651 0.14116 0.0
H419 H 0.30779 0.02646 0.08474 0.0
C420 C 0.28706 0.09635 0.09164 0.0
C421 C 0.26391 0.1268 0.10395 0.0
C422 C 0.25413 0.96408 0.1284 0.0
C423 C 0.27226 0.03283 0.11047 0.0
C424 C 0.24141 0.9172 0.12781 0.0
C425 C 0.24245 0.88857 0.11091 0.0
C426 C 0.26819 0.98201 0.11199 0.0
C427 C 0.26031 0.90684 0.0954 0.0
C428 C 0.29134 0.04958 0.09485 0.0
C429 C 0.24805 0.10946 0.12011 0.0
N430 N 0.27199 0.95246 0.09624 0.0
N431 N 0.25191 0.06344 0.12278 0.0
H432 H 0.45571 0.10352 0.43248 0.0
H433 H 0.50631 0.8961 0.35652 0.0
H434 H 0.52953 0.11917 0.38339 0.0
H435 H 0.47348 0.88119 0.41364 0.0
H436 H 0.48643 0.97867 0.36053 0.0
H437 H 0.4338 0.0247 0.41976 0.0
C438 C 0.4662 0.09074 0.41874 0.0
C439 C 0.49519 0.11752 0.40913 0.0
C440 C 0.48191 0.95692 0.37193 0.0
C441 C 0.47077 0.02711 0.39461 0.0
C442 C 0.49261 0.90971 0.36955 0.0
C443 C 0.49137 0.88204 0.38479 0.0
C444 C 0.46968 0.97614 0.38962 0.0
C445 C 0.47462 0.90147 0.40155 0.0
C446 C 0.45381 0.04572 0.41152 0.0
C447 C 0.50737 0.09953 0.39129 0.0
N448 N 0.46505 0.94746 0.40363 0.0
N449 N 0.49594 0.05501 0.38477 0.0
H450 H 0.00271 0.84171 0.89988 0.0
H451 H 0.10689 0.09971 0.90303 0.0
H452 H 0.12452 0.88631 0.9353 0.0
H453 H 0.98652 0.04929 0.86805 0.0
H454 H 0.111 0.02517 0.91758 0.0
H455 H 0.99375 0.92027 0.89009 0.0
C456 C 0.0276 0.86806 0.90562 0.0
C457 C 0.06463 0.85738 0.91832 0.0
C458 C 0.0834 0.03077 0.90688 0.0
C459 C 0.05462 0.94785 0.90718 0.0
C460 C 0.08084 0.07346 0.89875 0.0
C461 C 0.04646 0.08062 0.8843 0.0
C462 C 0.05124 0.99533 0.90048 0.0
C463 C 0.01394 0.0451 0.87901 0.0
C464 C 0.02245 0.91308 0.90005 0.0
C465 C 0.09561 0.89314 0.92538 0.0
N466 N 0.0173 0.00415 0.88698 0.0
N467 N 0.09009 0.93673 0.91966 0.0
H468 H 0.21973 0.18428 0.01407 0.0
H469 H 0.01709 0.24126 0.93783 0.0
H470 H 0.10118 0.26599 0.02685 0.0
H471 H 0.13853 0.16666 0.92371 0.0
H472 H 0.03895 0.23429 0.97143 0.0
H473 H 0.18381 0.16392 0.98211 0.0
C474 C 0.18589 0.19755 0.01023 0.0
C475 C 0.16361 0.22729 0.02314 0.0
C476 C 0.06025 0.21821 0.96102 0.0
C477 C 0.12235 0.2042 0.98647 0.0
C478 C 0.0474 0.22161 0.94184 0.0
C479 C 0.07588 0.20408 0.92807 0.0
C480 C 0.10246 0.19802 0.96646 0.0
C481 C 0.11525 0.1798 0.93392 0.0
C482 C 0.16543 0.18592 0.99196 0.0
C483 C 0.12 0.24371 0.01727 0.0
N484 N 0.12796 0.1783 0.95274 0.0
N485 N 0.10098 0.2322 -0.00064 0.0
H486 H 0.03565 0.86859 0.25758 0.0
H487 H 0.09543 0.67573 0.18159 0.0
H488 H 0.97457 0.73235 0.25489 0.0
H489 H 0.09621 0.81909 0.16938 0.0
H490 H 0.04753 0.69585 0.20763 0.0
H491 H 0.05414 0.85335 0.22461 0.0
C492 C 0.02512 0.83593 0.24983 0.0
C493 C 0.00379 0.80155 0.25888 0.0
C494 C 0.05729 0.72283 0.19903 0.0
C495 C 0.02585 0.7834 0.22151 0.0
C496 C 0.08472 0.71136 0.18424 0.0
C497 C 0.09976 0.7459 0.17349 0.0
C498 C 0.04617 0.76943 0.20349 0.0
C499 C 0.08517 0.79156 0.17743 0.0
C500 C 0.03561 0.82724 0.23105 0.0
C501 C 0.99096 0.75973 0.24834 0.0
N502 N 0.05992 0.80226 0.19242 0.0
N503 N 0.00312 0.75137 0.23032 0.0
H504 H 0.7138 0.65989 0.51523 0.0
H505 H 0.52012 0.69684 0.43222 0.0
H506 H 0.58641 0.73153 0.52254 0.0
H507 H 0.65999 0.66146 0.42333 0.0
H508 H 0.53495 0.68209 0.46566 0.0
H509 H 0.6861 0.6361 0.48232 0.0
C510 C 0.67972 0.67003 0.50999 0.0
C511 C 0.65265 0.69842 0.52152 0.0
C512 C 0.56196 0.67585 0.45624 0.0
C513 C 0.62071 0.67112 0.48395 0.0
C514 C 0.55322 0.6834 0.4371 0.0
C515 C 0.58893 0.68023 0.42513 0.0
C516 C 0.60676 0.6653 0.46332 0.0
C517 C 0.63157 0.66397 0.43218 0.0
C518 C 0.66396 0.65644 0.49122 0.0
C519 C 0.60879 0.71054 0.51399 0.0
N520 N 0.63966 0.65801 0.45094 0.0
N521 N 0.59434 0.69717 0.49564 0.0
H522 H 0.48863 0.23601 0.76141 0.0
H523 H 0.68319 0.28612 0.69479 0.0
H524 H 0.5812 0.3534 0.77171 0.0
H525 H 0.56575 0.20077 0.6741 0.0
H526 H 0.64528 0.31041 0.72325 0.0
H527 H 0.51353 0.22252 0.72927 0.0
C528 C 0.51349 0.25948 0.75681 0.0
C529 C 0.53342 0.29546 0.7694 0.0
C530 C 0.62738 0.2868 0.71244 0.0
C531 C 0.56257 0.27967 0.73287 0.0
C532 C 0.64912 0.27282 0.69625 0.0
C533 C 0.62735 0.24167 0.68217 0.0
C534 C 0.58388 0.26861 0.71481 0.0
C535 C 0.58334 0.22521 0.68467 0.0
C536 C 0.52783 0.2516 0.73851 0.0
C537 C 0.56572 0.32456 0.76268 0.0
N538 N 0.56312 0.23849 0.70085 0.0
N539 N 0.57968 0.31566 0.74502 0.0
H540 H 0.14877 0.69996 0.96267 0.0
H541 H 0.09649 0.6416 0.06449 0.0
H542 H 0.02924 0.62227 0.97356 0.0
H543 H 0.22572 0.69718 0.05171 0.0
H544 H 0.07862 0.61753 0.03085 0.0
H545 H 0.18327 0.68709 0.99435 0.0
C546 C 0.12987 0.68009 0.97175 0.0
C547 C 0.08581 0.66281 0.96562 0.0
C548 C 0.11172 0.63336 0.03542 0.0
C549 C 0.1251 0.64762 0.00188 0.0
C550 C 0.12227 0.64624 0.05471 0.0
C551 C 0.16262 0.67126 0.06078 0.0
C552 C 0.14141 0.64668 0.02223 0.0
C553 C 0.19433 0.67769 0.04751 0.0
C554 C 0.14975 0.67226 0.98975 0.0
C555 C 0.06323 0.63638 0.97777 0.0
N556 N 0.18254 0.66671 0.02876 0.0
N557 N 0.08282 0.6302 0.99542 0.0
H558 H 0.68491 0.73286 0.21547 0.0
H559 H 0.62417 0.80255 0.32165 0.0
H560 H 0.62431 0.86302 0.23371 0.0
H561 H 0.61922 0.66167 0.29629 0.0
H562 H 0.65164 0.82799 0.29251 0.0
H563 H 0.68606 0.70982 0.24804 0.0
C564 C 0.67246 0.75675 0.22642 0.0
C565 C 0.65396 0.79958 0.222 0.0
C566 C 0.64557 0.79139 0.29354 0.0
C567 C 0.65593 0.774 0.25904 0.0
C568 C 0.63037 0.7768 0.31019 0.0
C569 C 0.61913 0.73002 0.31123 0.0
C570 C 0.64982 0.75884 0.278 0.0
C571 C 0.62721 0.69811 0.29592 0.0
C572 C 0.67314 0.74365 0.24492 0.0
C573 C 0.63824 0.82943 0.2366 0.0
N574 N 0.64166 0.71317 0.27981 0.0
N575 N 0.63945 0.81603 0.2545 0.0
H576 H 0.59287 0.25559 0.47605 0.0
H577 H 0.61678 0.12713 0.562 0.0
H578 H 0.6037 0.10777 0.46173 0.0
H579 H 0.7216 0.22736 0.55481 0.0
H580 H 0.60316 0.11391 0.52722 0.0
H581 H 0.62971 0.24542 0.5073 0.0
C582 C 0.60346 0.22106 0.47917 0.0
C583 C 0.59504 0.18262 0.46584 0.0
C584 C 0.63049 0.13722 0.53335 0.0
C585 C 0.63549 0.17085 0.50228 0.0
C586 C 0.63856 0.14441 0.55313 0.0
C587 C 0.6701 0.17859 0.56113 0.0
C588 C 0.6536 0.16514 0.5219 0.0
C589 C 0.69677 0.20093 0.54908 0.0
C590 C 0.62422 0.21536 0.49716 0.0
C591 C 0.6083 0.13851 0.47147 0.0
N592 N 0.6869 0.19499 0.53004 0.0
N593 N 0.62718 0.13368 0.4894 0.0
H594 H 0.101 0.36196 0.72841 0.0
H595 H 0.13696 0.15912 0.79527 0.0
H596 H 0.18802 0.24569 0.71496 0.0
H597 H 0.09979 0.29702 0.81606 0.0
H598 H 0.15779 0.18971 0.76593 0.0
H599 H 0.10037 0.33877 0.76078 0.0
C600 C 0.12024 0.33178 0.73237 0.0
C601 C 0.14447 0.30559 0.71908 0.0
C602 C 0.14613 0.21345 0.7771 0.0
C603 C 0.14363 0.27861 0.75586 0.0
C604 C 0.13443 0.19602 0.79381 0.0
C605 C 0.11735 0.2258 0.80809 0.0
C606 C 0.13922 0.26065 0.77452 0.0
C607 C 0.11361 0.27315 0.80545 0.0
C608 C 0.12013 0.3187 0.75083 0.0
C609 C 0.1691 0.26689 0.72487 0.0
N610 N 0.12383 0.28906 0.78885 0.0
N611 N 0.16755 0.25416 0.74278 0.0
loop_
_geom_bond_atom_site_label_1
_geom_bond_atom_site_label_2
_geom_bond_distance
_geom_bond_site_symmetry_2
_ccdc_geom_bond_type
H0 C5 0.930 . S
H1 C8 0.930 . S
H2 C10 0.930 . S
H3 C4 1.016 . S
C4 H3 1.016 . S
C4 N11 1.286 . S
C5 H0 0.930 . S
C5 C6 1.397 . S
C5 C7 1.361 . S
C6 C5 1.397 . S
C6 C10 1.390 . S
C7 C5 1.361 . S
C7 C8 1.393 . S
C7 N11 1.413 . S
C8 H1 0.930 . S
C8 C7 1.393 . S
C8 C9 1.399 . S
C9 C8 1.399 . S
C9 C10 1.381 . S
C10 H2 0.930 . S
C10 C6 1.390 . S
C10 C9 1.381 . S
N11 C4 1.286 . S
N11 C7 1.413 . S
H12 C17 0.930 . S
H13 C20 0.930 . S
H14 C22 0.930 . S
H15 C16 1.016 . S
C16 H15 1.016 . S
C16 N23 1.286 . S
C17 H12 0.930 . S
C17 C18 1.397 . S
C17 C19 1.361 . S
C18 C17 1.397 . S
C18 C22 1.390 . S
C19 C17 1.361 . S
C19 C20 1.393 . S
C19 N23 1.413 . S
C20 H13 0.930 . S
C20 C19 1.393 . S
C20 C21 1.399 . S
C21 C20 1.399 . S
C21 C22 1.381 . S
C22 H14 0.930 . S
C22 C18 1.390 . S
C22 C21 1.381 . S
N23 C16 1.286 . S
N23 C19 1.413 . S
H24 C29 0.930 . S
H25 C32 0.930 . S
H26 C34 0.930 . S
H27 C28 1.016 . S
C28 H27 1.016 . S
C28 N35 1.286 . S
C29 H24 0.930 . S
C29 C30 1.397 . S
C29 C31 1.361 . S
C30 C29 1.397 . S
C30 C34 1.390 . S
C31 C29 1.361 . S
C31 C32 1.393 . S
C31 N35 1.413 . S
C32 H25 0.930 . S
C32 C31 1.393 . S
C32 C33 1.399 . S
C33 C32 1.399 . S
C33 C34 1.381 . S
C34 H26 0.930 . S
C34 C30 1.390 . S
C34 C33 1.381 . S
N35 C28 1.286 . S
N35 C31 1.413 . S
H36 C41 0.930 . S
H37 C44 0.930 . S
H38 C46 0.930 . S
H39 C40 1.016 . S
C40 H39 1.016 . S
C40 N47 1.286 . S
C41 H36 0.930 . S
C41 C42 1.397 . S
C41 C43 1.361 . S
C42 C41 1.397 . S
C42 C46 1.390 . S
C43 C41 1.361 . S
C43 C44 1.393 . S
C43 N47 1.413 . S
C44 H37 0.930 . S
C44 C43 1.393 . S
C44 C45 1.399 . S
C45 C44 1.399 . S
C45 C46 1.381 . S
C46 H38 0.930 . S
C46 C42 1.390 . S
C46 C45 1.381 . S
N47 C40 1.286 . S
N47 C43 1.413 . S
H48 C53 0.930 . S
H49 C56 0.930 . S
H50 C58 0.930 . S
H51 C52 1.016 . S
C52 H51 1.016 . S
C52 N59 1.286 . S
C53 H48 0.930 . S
C53 C54 1.397 . S
C53 C55 1.361 . S
C54 C53 1.397 . S
C54 C58 1.390 . S
C55 C53 1.361 . S
C55 C56 1.393 . S
C55 N59 1.413 . S
C56 H49 0.930 . S
C56 C55 1.393 . S
C56 C57 1.399 . S
C57 C56 1.399 . S
C57 C58 1.381 . S
C58 H50 0.930 . S
C58 C54 1.390 . S
C58 C57 1.381 . S
N59 C52 1.286 . S
N59 C55 1.413 . S
H60 C65 0.930 . S
H61 C68 0.930 . S
H62 C70 0.930 . S
H63 C64 1.016 . S
C64 H63 1.016 . S
C64 N71 1.286 . S
C65 H60 0.930 . S
C65 C66 1.397 . S
C65 C67 1.361 . S
C66 C65 1.397 . S
C66 C70 1.390 . S
C67 C65 1.361 . S
C67 C68 1.393 . S
C67 N71 1.413 . S
C68 H61 0.930 . S
C68 C67 1.393 . S
C68 C69 1.399 . S
C69 C68 1.399 . S
C69 C70 1.381 . S
C70 H62 0.930 . S
C70 C66 1.390 . S
C70 C69 1.381 . S
N71 C64 1.286 . S
N71 C67 1.413 . S
H72 C77 0.930 . S
H73 C80 0.930 . S
H74 C82 0.930 . S
H75 C76 1.016 . S
C76 H75 1.016 . S
C76 N83 1.286 . S
C77 H72 0.930 . S
C77 C78 1.397 . S
C77 C79 1.361 . S
C78 C77 1.397 . S
C78 C82 1.390 . S
C79 C77 1.361 . S
C79 C80 1.393 . S
C79 N83 1.413 . S
C80 H73 0.930 . S
C80 C79 1.393 . S
C80 C81 1.399 . S
C81 C80 1.399 . S
C81 C82 1.381 . S
C82 H74 0.930 . S
C82 C78 1.390 . S
C82 C81 1.381 . S
N83 C76 1.286 . S
N83 C79 1.413 . S
H84 C89 0.930 . S
H85 C92 0.930 . S
H86 C94 0.930 . S
H87 C88 1.016 . S
C88 H87 1.016 . S
C88 N95 1.286 . S
C89 H84 0.930 . S
C89 C90 1.397 . S
C89 C91 1.361 . S
C90 C89 1.397 . S
C90 C94 1.390 . S
C91 C89 1.361 . S
C91 C92 1.393 . S
C91 N95 1.413 . S
C92 H85 0.930 . S
C92 C91 1.393 . S
C92 C93 1.399 . S
C93 C92 1.399 . S
C93 C94 1.381 . S
C94 H86 0.930 . S
C94 C90 1.390 . S
C94 C93 1.381 . S
N95 C88 1.286 . S
N95 C91 1.413 . S
Zn96 O102 1.920 . S
Zn96 O108 1.898 . S
Zn96 O111 1.905 . S
Zn97 O105 1.905 . S
Zn97 O106 1.898 . S
Zn97 O114 1.920 . S
Zn98 O101 2.080 . S
Zn98 O104 2.114 . S
Zn98 O107 2.120 . S
Zn98 O109 2.120 . S
Zn98 O110 2.114 . S
Zn98 O113 2.080 . S
C99 O104 1.166 . S
C99 O105 1.182 . S
C100 O106 1.167 . S
C100 O107 1.299 . S
O101 Zn98 2.080 . S
O101 C115 1.305 . S
O102 Zn96 1.920 . S
O102 C115 1.234 . S
C103 O108 1.167 . S
C103 O109 1.299 . S
O104 Zn98 2.114 . S
O104 C99 1.166 . S
O105 Zn97 1.905 . S
O105 C99 1.182 . S
O106 Zn97 1.898 . S
O106 C100 1.167 . S
O107 Zn98 2.120 . S
O107 C100 1.299 . S
O108 Zn96 1.898 . S
O108 C103 1.167 . S
O109 Zn98 2.120 . S
O109 C103 1.299 . S
O110 Zn98 2.114 . S
O110 C112 1.166 . S
O111 Zn96 1.905 . S
O111 C112 1.182 . S
C112 O110 1.166 . S
C112 O111 1.182 . S
O113 Zn98 2.080 . S
O113 C116 1.305 . S
O114 Zn97 1.920 . S
O114 C116 1.234 . S
C115 O101 1.305 . S
C115 O102 1.234 . S
C116 O113 1.305 . S
C116 O114 1.234 . S
Zn117 O123 1.920 . S
Zn117 O129 1.898 . S
Zn117 O132 1.905 . S
Zn118 O126 1.905 . S
Zn118 O127 1.898 . S
Zn118 O135 1.920 . S
Zn119 O122 2.080 . S
Zn119 O125 2.114 . S
Zn119 O128 2.120 . S
Zn119 O130 2.120 . S
Zn119 O131 2.114 . S
Zn119 O134 2.080 . S
C120 O125 1.166 . S
C120 O126 1.182 . S
C121 O127 1.167 . S
C121 O128 1.299 . S
O122 Zn119 2.080 . S
O122 C136 1.305 . S
O123 Zn117 1.920 . S
O123 C136 1.234 . S
C124 O129 1.167 . S
C124 O130 1.299 . S
O125 Zn119 2.114 . S
O125 C120 1.166 . S
O126 Zn118 1.905 . S
O126 C120 1.182 . S
O127 Zn118 1.898 . S
O127 C121 1.167 . S
O128 Zn119 2.120 . S
O128 C121 1.299 . S
O129 Zn117 1.898 . S
O129 C124 1.167 . S
O130 Zn119 2.120 . S
O130 C124 1.299 . S
O131 Zn119 2.114 . S
O131 C133 1.166 . S
O132 Zn117 1.905 . S
O132 C133 1.182 . S
C133 O131 1.166 . S
C133 O132 1.182 . S
O134 Zn119 2.080 . S
O134 C137 1.305 . S
O135 Zn118 1.920 . S
O135 C137 1.234 . S
C136 O122 1.305 . S
C136 O123 1.234 . S
C137 O134 1.305 . S
C137 O135 1.234 . S
Zn138 O144 1.920 . S
Zn138 O150 1.898 . S
Zn138 O153 1.905 . S
Zn139 O147 1.905 . S
Zn139 O148 1.898 . S
Zn139 O156 1.920 . S
Zn140 O143 2.080 . S
Zn140 O146 2.114 . S
Zn140 O149 2.120 . S
Zn140 O151 2.120 . S
Zn140 O152 2.114 . S
Zn140 O155 2.080 . S
C141 O146 1.166 . S
C141 O147 1.182 . S
C142 O148 1.167 . S
C142 O149 1.299 . S
O143 Zn140 2.080 . S
O143 C157 1.305 . S
O144 Zn138 1.920 . S
O144 C157 1.234 . S
C145 O150 1.167 . S
C145 O151 1.299 . S
O146 Zn140 2.114 . S
O146 C141 1.166 . S
O147 Zn139 1.905 . S
O147 C141 1.182 . S
O148 Zn139 1.898 . S
O148 C142 1.167 . S
O149 Zn140 2.120 . S
O149 C142 1.299 . S
O150 Zn138 1.898 . S
O150 C145 1.167 . S
O151 Zn140 2.120 . S
O151 C145 1.299 . S
O152 Zn140 2.114 . S
O152 C154 1.166 . S
O153 Zn138 1.905 . S
O153 C154 1.182 . S
C154 O152 1.166 . S
C154 O153 1.182 . S
O155 Zn140 2.080 . S
O155 C158 1.305 . S
O156 Zn139 1.920 . S
O156 C158 1.234 . S
C157 O143 1.305 . S
C157 O144 1.234 . S
C158 O155 1.305 . S
C158 O156 1.234 . S
Zn159 O165 1.920 . S
Zn159 O171 1.898 . S
Zn159 O174 1.905 1_455 S
Zn160 O168 1.905 . S
Zn160 O169 1.898 . S
Zn160 O177 1.920 . S
Zn161 O164 2.080 . S
Zn161 O167 2.114 . S
Zn161 O170 2.120 . S
Zn161 O172 2.120 . S
Zn161 O173 2.114 . S
Zn161 O176 2.080 . S
C162 O167 1.166 . S
C162 O168 1.182 . S
C163 O169 1.167 . S
C163 O170 1.299 . S
O164 Zn161 2.080 . S
O164 C178 1.305 . S
O165 Zn159 1.920 . S
O165 C178 1.234 . S
C166 O171 1.167 . S
C166 O172 1.299 . S
O167 Zn161 2.114 . S
O167 C162 1.166 . S
O168 Zn160 1.905 . S
O168 C162 1.182 . S
O169 Zn160 1.898 . S
O169 C163 1.167 . S
O170 Zn161 2.120 . S
O170 C163 1.299 . S
O171 Zn159 1.898 . S
O171 C166 1.167 . S
O172 Zn161 2.120 . S
O172 C166 1.299 . S
O173 Zn161 2.114 . S
O173 C175 1.166 . S
O174 Zn159 1.905 1_655 S
O174 C175 1.182 1_655 S
C175 O173 1.166 . S
C175 O174 1.182 1_455 S
O176 Zn161 2.080 . S
O176 C179 1.305 . S
O177 Zn160 1.920 . S
O177 C179 1.234 . S
C178 O164 1.305 . S
C178 O165 1.234 . S
C179 O176 1.305 . S
C179 O177 1.234 . S
H180 C186 0.930 . S
H181 C190 0.930 . S
H182 C195 0.929 . S
H183 C193 0.929 . S
H184 C188 0.929 . S
H185 C194 0.929 . S
C186 H180 0.930 . S
C186 C187 1.367 . S
C186 C194 1.378 . S
C187 C186 1.367 . S
C187 C195 1.433 . S
C188 H184 0.929 . S
C188 C190 1.378 . S
C188 C192 1.350 . S
C189 C192 1.463 . S
C189 C194 1.350 . S
C189 N197 1.427 . S
C190 H181 0.930 . S
C190 C188 1.378 . S
C190 C191 1.367 . S
C191 C190 1.367 . S
C191 C193 1.433 . S
C192 C188 1.350 . S
C192 C189 1.463 . S
C192 N196 1.427 . S
C193 H183 0.929 . S
C193 C191 1.433 . S
C193 N196 1.384 . S
C194 H185 0.929 . S
C194 C186 1.378 . S
C194 C189 1.350 . S
C195 H182 0.929 . S
C195 C187 1.433 . S
C195 N197 1.384 . S
N196 C192 1.427 . S
N196 C193 1.384 . S
N197 C189 1.427 . S
N197 C195 1.384 . S
H198 C204 0.930 . S
H199 C208 0.930 . S
H200 C213 0.929 . S
H201 C211 0.929 . S
H202 C206 0.929 . S
H203 C212 0.929 . S
C204 H198 0.930 . S
C204 C205 1.367 . S
C204 C212 1.378 . S
C205 C204 1.367 . S
C205 C213 1.433 . S
C206 H202 0.929 . S
C206 C208 1.378 . S
C206 C210 1.350 . S
C207 C210 1.463 . S
C207 C212 1.350 . S
C207 N215 1.427 . S
C208 H199 0.930 . S
C208 C206 1.378 . S
C208 C209 1.367 . S
C209 C208 1.367 . S
C209 C211 1.433 . S
C210 C206 1.350 . S
C210 C207 1.463 . S
C210 N214 1.427 . S
C211 H201 0.929 . S
C211 C209 1.433 . S
C211 N214 1.384 . S
C212 H203 0.929 . S
C212 C204 1.378 . S
C212 C207 1.350 . S
C213 H200 0.929 . S
C213 C205 1.433 . S
C213 N215 1.384 . S
N214 C210 1.427 . S
N214 C211 1.384 . S
N215 C207 1.427 . S
N215 C213 1.384 . S
H216 C222 0.930 . S
H217 C226 0.930 . S
H218 C231 0.929 . S
H219 C229 0.929 . S
H220 C224 0.929 . S
H221 C230 0.929 . S
C222 H216 0.930 . S
C222 C223 1.367 . S
C222 C230 1.378 . S
C223 C222 1.367 . S
C223 C231 1.433 . S
C224 H220 0.929 . S
C224 C226 1.378 . S
C224 C228 1.350 . S
C225 C228 1.463 . S
C225 C230 1.350 . S
C225 N233 1.427 . S
C226 H217 0.930 . S
C226 C224 1.378 . S
C226 C227 1.367 . S
C227 C226 1.367 . S
C227 C229 1.433 . S
C228 C224 1.350 . S
C228 C225 1.463 . S
C228 N232 1.427 . S
C229 H219 0.929 . S
C229 C227 1.433 . S
C229 N232 1.384 . S
C230 H221 0.929 . S
C230 C222 1.378 . S
C230 C225 1.350 . S
C231 H218 0.929 . S
C231 C223 1.433 . S
C231 N233 1.384 . S
N232 C228 1.427 . S
N232 C229 1.384 . S
N233 C225 1.427 . S
N233 C231 1.384 . S
H234 C240 0.930 . S
H235 C244 0.930 . S
H236 C249 0.929 . S
H237 C247 0.929 . S
H238 C242 0.929 . S
H239 C248 0.929 . S
C240 H234 0.930 . S
C240 C241 1.367 . S
C240 C248 1.378 . S
C241 C240 1.367 . S
C241 C249 1.433 . S
C242 H238 0.929 . S
C242 C244 1.378 . S
C242 C246 1.350 . S
C243 C246 1.463 . S
C243 C248 1.350 . S
C243 N251 1.427 . S
C244 H235 0.930 . S
C244 C242 1.378 . S
C244 C245 1.367 . S
C245 C244 1.367 . S
C245 C247 1.433 . S
C246 C242 1.350 . S
C246 C243 1.463 . S
C246 N250 1.427 . S
C247 H237 0.929 . S
C247 C245 1.433 . S
C247 N250 1.384 . S
C248 H239 0.929 . S
C248 C240 1.378 . S
C248 C243 1.350 . S
C249 H236 0.929 . S
C249 C241 1.433 . S
C249 N251 1.384 . S
N250 C246 1.427 . S
N250 C247 1.384 . S
N251 C243 1.427 . S
N251 C249 1.384 . S
H252 C258 0.930 . S
H253 C262 0.930 . S
H254 C267 0.929 . S
H255 C265 0.929 . S
H256 C260 0.929 . S
H257 C266 0.929 . S
C258 H252 0.930 . S
C258 C259 1.367 . S
C258 C266 1.378 . S
C259 C258 1.367 . S
C259 C267 1.433 . S
C260 H256 0.929 . S
C260 C262 1.378 . S
C260 C264 1.350 . S
C261 C264 1.463 . S
C261 C266 1.350 . S
C261 N269 1.427 . S
C262 H253 0.930 . S
C262 C260 1.378 . S
C262 C263 1.367 . S
C263 C262 1.367 . S
C263 C265 1.433 . S
C264 C260 1.350 . S
C264 C261 1.463 . S
C264 N268 1.427 . S
C265 H255 0.929 . S
C265 C263 1.433 . S
C265 N268 1.384 . S
C266 H257 0.929 . S
C266 C258 1.378 . S
C266 C261 1.350 . S
C267 H254 0.929 . S
C267 C259 1.433 . S
C267 N269 1.384 . S
N268 C264 1.427 . S
N268 C265 1.384 . S
N269 C261 1.427 . S
N269 C267 1.384 . S
H270 C276 0.930 . S
H271 C280 0.930 . S
H272 C285 0.929 . S
H273 C283 0.929 . S
H274 C278 0.929 . S
H275 C284 0.929 . S
C276 H270 0.930 . S
C276 C277 1.367 . S
C276 C284 1.378 . S
C277 C276 1.367 . S
C277 C285 1.433 . S
C278 H274 0.929 . S
C278 C280 1.378 . S
C278 C282 1.350 . S
C279 C282 1.463 . S
C279 C284 1.350 . S
C279 N287 1.427 . S
C280 H271 0.930 . S
C280 C278 1.378 . S
C280 C281 1.367 . S
C281 C280 1.367 . S
C281 C283 1.433 . S
C282 C278 1.350 . S
C282 C279 1.463 . S
C282 N286 1.427 . S
C283 H273 0.929 . S
C283 C281 1.433 . S
C283 N286 1.384 . S
C284 H275 0.929 . S
C284 C276 1.378 . S
C284 C279 1.350 . S
C285 H272 0.929 . S
C285 C277 1.433 . S
C285 N287 1.384 . S
N286 C282 1.427 . S
N286 C283 1.384 . S
N287 C279 1.427 . S
N287 C285 1.384 . S
H288 C294 0.930 . S
H289 C298 0.930 . S
H290 C303 0.929 . S
H291 C301 0.929 . S
H292 C296 0.929 . S
H293 C302 0.929 . S
C294 H288 0.930 . S
C294 C295 1.367 . S
C294 C302 1.378 . S
C295 C294 1.367 . S
C295 C303 1.433 . S
C296 H292 0.929 . S
C296 C298 1.378 . S
C296 C300 1.350 . S
C297 C300 1.463 . S
C297 C302 1.350 . S
C297 N305 1.427 . S
C298 H289 0.930 . S
C298 C296 1.378 . S
C298 C299 1.367 . S
C299 C298 1.367 . S
C299 C301 1.433 . S
C300 C296 1.350 . S
C300 C297 1.463 . S
C300 N304 1.427 . S
C301 H291 0.929 . S
C301 C299 1.433 . S
C301 N304 1.384 . S
C302 H293 0.929 . S
C302 C294 1.378 . S
C302 C297 1.350 . S
C303 H290 0.929 . S
C303 C295 1.433 . S
C303 N305 1.384 . S
N304 C300 1.427 . S
N304 C301 1.384 . S
N305 C297 1.427 . S
N305 C303 1.384 . S
H306 C312 0.930 . S
H307 C316 0.930 . S
H308 C321 0.929 1_455 S
H309 C319 0.929 . S
H310 C314 0.929 . S
H311 C320 0.929 . S
C312 H306 0.930 . S
C312 C313 1.367 1_655 S
C312 C320 1.378 . S
C313 C312 1.367 1_455 S
C313 C321 1.433 1_455 S
C314 H310 0.929 . S
C314 C316 1.378 . S
C314 C318 1.350 . S
C315 C318 1.463 . S
C315 C320 1.350 . S
C315 N323 1.427 . S
C316 H307 0.930 . S
C316 C314 1.378 . S
C316 C317 1.367 . S
C317 C316 1.367 . S
C317 C319 1.433 . S
C318 C314 1.350 . S
C318 C315 1.463 . S
C318 N322 1.427 . S
C319 H309 0.929 . S
C319 C317 1.433 . S
C319 N322 1.384 . S
C320 H311 0.929 . S
C320 C312 1.378 . S
C320 C315 1.350 . S
C321 H308 0.929 1_655 S
C321 C313 1.433 1_655 S
C321 N323 1.384 . S
N322 C318 1.427 . S
N322 C319 1.384 . S
N323 C315 1.427 . S
N323 C321 1.384 . S
H324 C330 0.930 . S
H325 C334 0.930 . S
H326 C339 0.929 . S
H327 C337 0.929 . S
H328 C332 0.929 . S
H329 C338 0.929 . S
C330 H324 0.930 . S
C330 C331 1.367 . S
C330 C338 1.378 . S
C331 C330 1.367 . S
C331 C339 1.433 . S
C332 H328 0.929 . S
C332 C334 1.378 . S
C332 C336 1.350 . S
C333 C336 1.463 . S
C333 C338 1.350 . S
C333 N341 1.427 . S
C334 H325 0.930 . S
C334 C332 1.378 . S
C334 C335 1.367 . S
C335 C334 1.367 . S
C335 C337 1.433 . S
C336 C332 1.350 . S
C336 C333 1.463 . S
C336 N340 1.427 . S
C337 H327 0.929 . S
C337 C335 1.433 . S
C337 N340 1.384 . S
C338 H329 0.929 . S
C338 C330 1.378 . S
C338 C333 1.350 . S
C339 H326 0.929 . S
C339 C331 1.433 . S
C339 N341 1.384 . S
N340 C336 1.427 . S
N340 C337 1.384 . S
N341 C333 1.427 . S
N341 C339 1.384 . S
H342 C348 0.930 . S
H343 C352 0.930 . S
H344 C357 0.929 . S
H345 C355 0.929 . S
H346 C350 0.929 . S
H347 C356 0.929 . S
C348 H342 0.930 . S
C348 C349 1.367 . S
C348 C356 1.378 . S
C349 C348 1.367 . S
C349 C357 1.433 . S
C350 H346 0.929 . S
C350 C352 1.378 . S
C350 C354 1.350 . S
C351 C354 1.463 . S
C351 C356 1.350 . S
C351 N359 1.427 . S
C352 H343 0.930 . S
C352 C350 1.378 . S
C352 C353 1.367 . S
C353 C352 1.367 . S
C353 C355 1.433 . S
C354 C350 1.350 . S
C354 C351 1.463 . S
C354 N358 1.427 . S
C355 H345 0.929 . S
C355 C353 1.433 . S
C355 N358 1.384 . S
C356 H347 0.929 . S
C356 C348 1.378 . S
C356 C351 1.350 . S
C357 H344 0.929 . S
C357 C349 1.433 . S
C357 N359 1.384 . S
N358 C354 1.427 . S
N358 C355 1.384 . S
N359 C351 1.427 . S
N359 C357 1.384 . S
H360 C366 0.930 . S
H361 C370 0.930 . S
H362 C375 0.929 . S
H363 C373 0.929 . S
H364 C368 0.929 . S
H365 C374 0.929 . S
C366 H360 0.930 . S
C366 C367 1.367 . S
C366 C374 1.378 . S
C367 C366 1.367 . S
C367 C375 1.433 . S
C368 H364 0.929 . S
C368 C370 1.378 . S
C368 C372 1.350 . S
C369 C372 1.463 . S
C369 C374 1.350 . S
C369 N377 1.427 . S
C370 H361 0.930 . S
C370 C368 1.378 . S
C370 C371 1.367 . S
C371 C370 1.367 . S
C371 C373 1.433 . S
C372 C368 1.350 . S
C372 C369 1.463 . S
C372 N376 1.427 . S
C373 H363 0.929 . S
C373 C371 1.433 . S
C373 N376 1.384 . S
C374 H365 0.929 . S
C374 C366 1.378 . S
C374 C369 1.350 . S
C375 H362 0.929 . S
C375 C367 1.433 . S
C375 N377 1.384 . S
N376 C372 1.427 . S
N376 C373 1.384 . S
N377 C369 1.427 . S
N377 C375 1.384 . S
H378 C384 0.930 . S
H379 C388 0.930 . S
H380 C393 0.929 . S
H381 C391 0.929 . S
H382 C386 0.929 . S
H383 C392 0.929 . S
C384 H378 0.930 . S
C384 C385 1.367 . S
C384 C392 1.378 . S
C385 C384 1.367 . S
C385 C393 1.433 . S
C386 H382 0.929 . S
C386 C388 1.378 . S
C386 C390 1.350 . S
C387 C390 1.463 . S
C387 C392 1.350 . S
C387 N395 1.427 . S
C388 H379 0.930 . S
C388 C386 1.378 . S
C388 C389 1.367 . S
C389 C388 1.367 . S
C389 C391 1.433 . S
C390 C386 1.350 . S
C390 C387 1.463 . S
C390 N394 1.427 . S
C391 H381 0.929 . S
C391 C389 1.433 . S
C391 N394 1.384 . S
C392 H383 0.929 . S
C392 C384 1.378 . S
C392 C387 1.350 . S
C393 H380 0.929 . S
C393 C385 1.433 . S
C393 N395 1.384 . S
N394 C390 1.427 . S
N394 C391 1.384 . S
N395 C387 1.427 . S
N395 C393 1.384 . S
H396 C402 0.930 . S
H397 C406 0.930 . S
H398 C411 0.929 . S
H399 C409 0.929 . S
H400 C404 0.929 . S
H401 C410 0.929 . S
C402 H396 0.930 . S
C402 C403 1.367 . S
C402 C410 1.378 . S
C403 C402 1.367 . S
C403 C411 1.433 . S
C404 H400 0.929 . S
C404 C406 1.378 1_565 S
C404 C408 1.350 . S
C405 C408 1.463 . S
C405 C410 1.350 . S
C405 N413 1.427 . S
C406 H397 0.930 . S
C406 C404 1.378 1_545 S
C406 C407 1.367 . S
C407 C406 1.367 . S
C407 C409 1.433 . S
C408 C404 1.350 . S
C408 C405 1.463 . S
C408 N412 1.427 1_565 S
C409 H399 0.929 . S
C409 C407 1.433 . S
C409 N412 1.384 . S
C410 H401 0.929 . S
C410 C402 1.378 . S
C410 C405 1.350 . S
C411 H398 0.929 . S
C411 C403 1.433 . S
C411 N413 1.384 . S
N412 C408 1.427 1_545 S
N412 C409 1.384 . S
N413 C405 1.427 . S
N413 C411 1.384 . S
H414 C420 0.930 . S
H415 C424 0.930 . S
H416 C429 0.929 . S
H417 C427 0.929 . S
H418 C422 0.929 . S
H419 C428 0.929 1_565 S
C420 H414 0.930 . S
C420 C421 1.367 . S
C420 C428 1.378 . S
C421 C420 1.367 . S
C421 C429 1.433 . S
C422 H418 0.929 . S
C422 C424 1.378 . S
C422 C426 1.350 . S
C423 C426 1.463 . S
C423 C428 1.350 1_565 S
C423 N431 1.427 1_565 S
C424 H415 0.930 . S
C424 C422 1.378 . S
C424 C425 1.367 . S
C425 C424 1.367 . S
C425 C427 1.433 . S
C426 C422 1.350 . S
C426 C423 1.463 . S
C426 N430 1.427 . S
C427 H417 0.929 . S
C427 C425 1.433 . S
C427 N430 1.384 . S
C428 H419 0.929 1_545 S
C428 C420 1.378 . S
C428 C423 1.350 1_545 S
C429 H416 0.929 . S
C429 C421 1.433 . S
C429 N431 1.384 . S
N430 C426 1.427 . S
N430 C427 1.384 . S
N431 C423 1.427 1_545 S
N431 C429 1.384 . S
H432 C438 0.930 . S
H433 C442 0.930 . S
H434 C447 0.929 . S
H435 C445 0.929 . S
H436 C440 0.929 1_545 S
H437 C446 0.929 . S
C438 H432 0.930 . S
C438 C439 1.367 . S
C438 C446 1.378 . S
C439 C438 1.367 . S
C439 C447 1.433 . S
C440 H436 0.929 1_565 S
C440 C442 1.378 . S
C440 C444 1.347 1_565 S
C441 C444 1.475 . S
C441 C446 1.350 . S
C441 N449 1.427 . S
C442 H433 0.930 . S
C442 C440 1.378 . S
C442 C443 1.367 . S
C443 C442 1.367 . S
C443 C445 1.433 . S
C444 C440 1.347 1_545 S
C444 C441 1.475 . S
C444 N448 1.418 1_545 S
C445 H435 0.929 . S
C445 C443 1.433 . S
C445 N448 1.384 . S
C446 H437 0.929 . S
C446 C438 1.378 . S
C446 C441 1.350 . S
C447 H434 0.929 . S
C447 C439 1.433 . S
C447 N449 1.384 . S
N448 C444 1.418 1_565 S
N448 C445 1.384 . S
N449 C441 1.427 . S
N449 C447 1.384 . S
H450 C456 0.930 . S
H451 C460 0.930 . S
H452 C465 0.929 . S
H453 C463 0.929 . S
H454 C458 0.929 . S
H455 C464 0.929 . S
C456 H450 0.930 . S
C456 C457 1.367 . S
C456 C464 1.378 . S
C457 C456 1.367 . S
C457 C465 1.433 . S
C458 H454 0.929 . S
C458 C460 1.378 . S
C458 C462 1.350 . S
C459 C462 1.463 1_565 S
C459 C464 1.350 . S
C459 N467 1.427 . S
C460 H451 0.930 . S
C460 C458 1.378 . S
C460 C461 1.367 . S
C461 C460 1.367 . S
C461 C463 1.433 . S
C462 C458 1.350 . S
C462 C459 1.463 1_545 S
C462 N466 1.427 . S
C463 H453 0.929 . S
C463 C461 1.433 . S
C463 N466 1.384 . S
C464 H455 0.929 . S
C464 C456 1.378 . S
C464 C459 1.350 . S
C465 H452 0.929 . S
C465 C457 1.433 . S
C465 N467 1.384 . S
N466 C462 1.427 . S
N466 C463 1.384 . S
N467 C459 1.427 . S
N467 C465 1.384 . S
H468 C474 0.930 . S
H469 C478 0.930 . S
H470 C483 0.929 . S
H471 C481 0.929 . S
H472 C476 0.929 . S
H473 C482 0.929 1_556 S
C474 H468 0.930 . S
C474 C475 1.367 . S
C474 C482 1.378 . S
C475 C474 1.367 . S
C475 C483 1.433 . S
C476 H472 0.929 . S
C476 C478 1.378 . S
C476 C480 1.350 . S
C477 C480 1.463 . S
C477 C482 1.350 1_556 S
C477 N485 1.427 1_556 S
C478 H469 0.930 . S
C478 C476 1.378 . S
C478 C479 1.367 . S
C479 C478 1.367 . S
C479 C481 1.433 . S
C480 C476 1.350 . S
C480 C477 1.463 . S
C480 N484 1.427 . S
C481 H471 0.929 . S
C481 C479 1.433 . S
C481 N484 1.384 . S
C482 H473 0.929 1_554 S
C482 C474 1.378 . S
C482 C477 1.350 1_554 S
C483 H470 0.929 . S
C483 C475 1.433 . S
C483 N485 1.384 . S
N484 C480 1.427 . S
N484 C481 1.384 . S
N485 C477 1.427 1_554 S
N485 C483 1.384 . S
H486 C492 0.930 . S
H487 C496 0.930 . S
H488 C501 0.929 . S
H489 C499 0.929 . S
H490 C494 0.929 . S
H491 C500 0.929 . S
C492 H486 0.930 . S
C492 C493 1.367 . S
C492 C500 1.378 . S
C493 C492 1.367 . S
C493 C501 1.433 . S
C494 H490 0.929 . S
C494 C496 1.378 . S
C494 C498 1.350 . S
C495 C498 1.463 . S
C495 C500 1.350 . S
C495 N503 1.427 . S
C496 H487 0.930 . S
C496 C494 1.378 . S
C496 C497 1.367 . S
C497 C496 1.367 . S
C497 C499 1.433 . S
C498 C494 1.350 . S
C498 C495 1.463 . S
C498 N502 1.427 . S
C499 H489 0.929 . S
C499 C497 1.433 . S
C499 N502 1.384 . S
C500 H491 0.929 . S
C500 C492 1.378 . S
C500 C495 1.350 . S
C501 H488 0.929 . S
C501 C493 1.433 . S
C501 N503 1.384 . S
N502 C498 1.427 . S
N502 C499 1.384 . S
N503 C495 1.427 . S
N503 C501 1.384 . S
H504 C510 0.930 . S
H505 C514 0.930 . S
H506 C519 0.929 . S
H507 C517 0.929 . S
H508 C512 0.929 . S
H509 C518 0.929 . S
C510 H504 0.930 . S
C510 C511 1.367 . S
C510 C518 1.378 . S
C511 C510 1.367 . S
C511 C519 1.433 . S
C512 H508 0.929 . S
C512 C514 1.378 . S
C512 C516 1.350 . S
C513 C516 1.463 . S
C513 C518 1.350 . S
C513 N521 1.427 . S
C514 H505 0.930 . S
C514 C512 1.378 . S
C514 C515 1.367 . S
C515 C514 1.367 . S
C515 C517 1.433 . S
C516 C512 1.350 . S
C516 C513 1.463 . S
C516 N520 1.427 . S
C517 H507 0.929 . S
C517 C515 1.433 . S
C517 N520 1.384 . S
C518 H509 0.929 . S
C518 C510 1.378 . S
C518 C513 1.350 . S
C519 H506 0.929 . S
C519 C511 1.433 . S
C519 N521 1.384 . S
N520 C516 1.427 . S
N520 C517 1.384 . S
N521 C513 1.427 . S
N521 C519 1.384 . S
H522 C528 0.930 . S
H523 C532 0.930 . S
H524 C537 0.929 . S
H525 C535 0.929 . S
H526 C530 0.929 . S
H527 C536 0.929 . S
C528 H522 0.930 . S
C528 C529 1.367 . S
C528 C536 1.378 . S
C529 C528 1.367 . S
C529 C537 1.433 . S
C530 H526 0.929 . S
C530 C532 1.378 . S
C530 C534 1.350 . S
C531 C534 1.463 . S
C531 C536 1.350 . S
C531 N539 1.427 . S
C532 H523 0.930 . S
C532 C530 1.378 . S
C532 C533 1.367 . S
C533 C532 1.367 . S
C533 C535 1.433 . S
C534 C530 1.350 . S
C534 C531 1.463 . S
C534 N538 1.427 . S
C535 H525 0.929 . S
C535 C533 1.433 . S
C535 N538 1.384 . S
C536 H527 0.929 . S
C536 C528 1.378 . S
C536 C531 1.350 . S
C537 H524 0.929 . S
C537 C529 1.433 . S
C537 N539 1.384 . S
N538 C534 1.427 . S
N538 C535 1.384 . S
N539 C531 1.427 . S
N539 C537 1.384 . S
H540 C546 0.930 . S
H541 C550 0.930 . S
H542 C555 0.929 1_655 S
H543 C553 0.929 . S
H544 C548 0.929 . S
H545 C554 0.929 . S
C546 H540 0.930 . S
C546 C547 1.367 . S
C546 C554 1.378 . S
C547 C546 1.367 . S
C547 C555 1.433 . S
C548 H544 0.929 . S
C548 C550 1.378 . S
C548 C552 1.350 . S
C549 C552 1.463 . S
C549 C554 1.350 1_554 S
C549 N557 1.427 1_554 S
C550 H541 0.930 . S
C550 C548 1.378 . S
C550 C551 1.367 . S
C551 C550 1.367 . S
C551 C553 1.433 . S
C552 C548 1.350 . S
C552 C549 1.463 . S
C552 N556 1.427 . S
C553 H543 0.929 . S
C553 C551 1.433 . S
C553 N556 1.384 . S
C554 H545 0.929 . S
C554 C546 1.378 . S
C554 C549 1.350 1_556 S
C555 H542 0.929 1_455 S
C555 C547 1.433 . S
C555 N557 1.384 . S
N556 C552 1.427 . S
N556 C553 1.384 . S
N557 C549 1.427 1_556 S
N557 C555 1.384 . S
H558 C564 0.930 . S
H559 C568 0.930 . S
H560 C573 0.929 . S
H561 C571 0.929 . S
H562 C566 0.929 . S
H563 C572 0.929 . S
C564 H558 0.930 . S
C564 C565 1.367 . S
C564 C572 1.378 . S
C565 C564 1.367 . S
C565 C573 1.433 . S
C566 H562 0.929 . S
C566 C568 1.378 . S
C566 C570 1.350 . S
C567 C570 1.463 . S
C567 C572 1.350 . S
C567 N575 1.427 . S
C568 H559 0.930 . S
C568 C566 1.378 . S
C568 C569 1.367 . S
C569 C568 1.367 . S
C569 C571 1.433 . S
C570 C566 1.350 . S
C570 C567 1.463 . S
C570 N574 1.427 . S
C571 H561 0.929 . S
C571 C569 1.433 . S
C571 N574 1.384 . S
C572 H563 0.929 . S
C572 C564 1.378 . S
C572 C567 1.350 . S
C573 H560 0.929 . S
C573 C565 1.433 . S
C573 N575 1.384 . S
N574 C570 1.427 . S
N574 C571 1.384 . S
N575 C567 1.427 . S
N575 C573 1.384 . S
H576 C582 0.930 . S
H577 C586 0.930 . S
H578 C591 0.929 . S
H579 C589 0.929 . S
H580 C584 0.929 . S
H581 C590 0.929 . S
C582 H576 0.930 . S
C582 C583 1.367 . S
C582 C590 1.378 . S
C583 C582 1.367 . S
C583 C591 1.433 . S
C584 H580 0.929 . S
C584 C586 1.378 . S
C584 C588 1.350 . S
C585 C588 1.463 . S
C585 C590 1.350 . S
C585 N593 1.427 . S
C586 H577 0.930 . S
C586 C584 1.378 . S
C586 C587 1.367 . S
C587 C586 1.367 . S
C587 C589 1.433 . S
C588 C584 1.350 . S
C588 C585 1.463 . S
C588 N592 1.427 . S
C589 H579 0.929 . S
C589 C587 1.433 . S
C589 N592 1.384 . S
C590 H581 0.929 . S
C590 C582 1.378 . S
C590 C585 1.350 . S
C591 H578 0.929 . S
C591 C583 1.433 . S
C591 N593 1.384 . S
N592 C588 1.427 . S
N592 C589 1.384 . S
N593 C585 1.427 . S
N593 C591 1.384 . S
H594 C600 0.930 . S
H595 C604 0.930 . S
H596 C609 0.929 . S
H597 C607 0.929 . S
H598 C602 0.929 . S
H599 C608 0.929 . S
C600 H594 0.930 . S
C600 C601 1.367 . S
C600 C608 1.378 . S
C601 C600 1.367 . S
C601 C609 1.433 . S
C602 H598 0.929 . S
C602 C604 1.378 . S
C602 C606 1.350 . S
C603 C606 1.463 . S
C603 C608 1.350 . S
C603 N611 1.427 . S
C604 H595 0.930 . S
C604 C602 1.378 . S
C604 C605 1.367 . S
C605 C604 1.367 . S
C605 C607 1.433 . S
C606 C602 1.350 . S
C606 C603 1.463 . S
C606 N610 1.427 . S
C607 H597 0.929 . S
C607 C605 1.433 . S
C607 N610 1.384 . S
C608 H599 0.929 . S
C608 C600 1.378 . S
C608 C603 1.350 . S
C609 H596 0.929 . S
C609 C601 1.433 . S
C609 N611 1.384 . S
N610 C606 1.427 . S
N610 C607 1.384 . S
N611 C603 1.427 . S
N611 C609 1.384 . S
C191 C103 1.446 . S
C187 C6 1.579 . S
C209 C121 1.578 . S
C205 C18 1.688 1_655 S
C223 C28 1.402 . S
C227 C145 1.304 . S
C245 C175 1.136 1_655 S
C241 C40 1.197 . S
C263 C163 1.255 . S
C259 C54 1.348 . S
C277 C64 1.186 . S
C281 C116 1.127 1_655 S
C295 C76 1.602 . S
C299 C136 1.514 . S
C313 C90 1.706 . S
C317 C141 1.519 . S
C331 C88 1.182 . S
C335 C157 1.134 . S
C349 C66 1.712 . S
C353 C112 1.515 . S
C371 C179 1.594 . S
C367 C42 1.694 . S
C389 C124 1.128 . S
C385 C16 1.194 . S
C403 C30 1.568 . S
C407 C142 1.426 . S
C421 C4 1.405 . S
C425 C100 1.313 . S
C443 C120 1.246 . S
C439 C78 1.341 . S
C461 C166 1.510 . S
C457 C52 1.606 . S
C479 C162 1.374 . S
C475 C9 1.492 . S
C497 C115 1.471 . S
C493 C21 1.564 . S
C511 C33 1.473 . S
C515 C137 1.352 . S
C529 C45 1.581 . S
C533 C158 1.480 . S
C551 C99 1.321 . S
C547 C57 1.546 . S
C565 C69 1.515 . S
C569 C133 1.388 . S
C587 C154 1.361 . S
C583 C81 1.571 . S
C605 C178 1.364 . S
C601 C93 1.496 . S
