# Generated by pormake.
# Topology pyr, (3,6)-cn, num edge types: 1
# Building blocks:
#     Node 0, Type 0, BuildingBlock: QEWDON_clean_linker_0, # of connection points: 3
#     Node 1, Type 0, BuildingBlock: QEWDON_clean_linker_0, # of connection points: 3
#     Node 2, Type 0, BuildingBlock: QEWDON_clean_linker_0, # of connection points: 3
#     Node 3, Type 0, BuildingBlock: QEWDON_clean_linker_0, # of connection points: 3
#     Node 4, Type 0, BuildingBlock: QEWDON_clean_linker_0, # of connection points: 3
#     Node 5, Type 0, BuildingBlock: QEWDON_clean_linker_0, # of connection points: 3
#     Node 6, Type 0, BuildingBlock: QEWDON_clean_linker_0, # of connection points: 3
#     Node 7, Type 0, BuildingBlock: QEWDON_clean_linker_0, # of connection points: 3
#     Node 8, Type 1, BuildingBlock: GEDQOX_clean_sbu_0, # of connection points: 6
#     Node 9, Type 1, BuildingBlock: GEDQOX_clean_sbu_0, # of connection points: 6
#     Node 10, Type 1, BuildingBlock: GEDQOX_clean_sbu_0, # of connection points: 6
#     Node 11, Type 1, BuildingBlock: GEDQOX_clean_sbu_0, # of connection points: 6
#     Edge 12, Type (0, 1), BuildingBlock: XIVTED_clean_linker_0, # of connection points: 2
#     Edge 13, Type (0, 1), BuildingBlock: XIVTED_clean_linker_0, # of connection points: 2
#     Edge 14, Type (0, 1), BuildingBlock: XIVTED_clean_linker_0, # of connection points: 2
#     Edge 15, Type (0, 1), BuildingBlock: XIVTED_clean_linker_0, # of connection points: 2
#     Edge 16, Type (0, 1), BuildingBlock: XIVTED_clean_linker_0, # of connection points: 2
#     Edge 17, Type (0, 1), BuildingBlock: XIVTED_clean_linker_0, # of connection points: 2
#     Edge 18, Type (0, 1), BuildingBlock: XIVTED_clean_linker_0, # of connection points: 2
#     Edge 19, Type (0, 1), BuildingBlock: XIVTED_clean_linker_0, # of connection points: 2
#     Edge 20, Type (0, 1), BuildingBlock: XIVTED_clean_linker_0, # of connection points: 2
#     Edge 21, Type (0, 1), BuildingBlock: XIVTED_clean_linker_0, # of connection points: 2
#     Edge 22, Type (0, 1), BuildingBlock: XIVTED_clean_linker_0, # of connection points: 2
#     Edge 23, Type (0, 1), BuildingBlock: XIVTED_clean_linker_0, # of connection points: 2
#     Edge 24, Type (0, 1), BuildingBlock: XIVTED_clean_linker_0, # of connection points: 2
#     Edge 25, Type (0, 1), BuildingBlock: XIVTED_clean_linker_0, # of connection points: 2
#     Edge 26, Type (0, 1), BuildingBlock: XIVTED_clean_linker_0, # of connection points: 2
#     Edge 27, Type (0, 1), BuildingBlock: XIVTED_clean_linker_0, # of connection points: 2
#     Edge 28, Type (0, 1), BuildingBlock: XIVTED_clean_linker_0, # of connection points: 2
#     Edge 29, Type (0, 1), BuildingBlock: XIVTED_clean_linker_0, # of connection points: 2
#     Edge 30, Type (0, 1), BuildingBlock: XIVTED_clean_linker_0, # of connection points: 2
#     Edge 31, Type (0, 1), BuildingBlock: XIVTED_clean_linker_0, # of connection points: 2
#     Edge 32, Type (0, 1), BuildingBlock: XIVTED_clean_linker_0, # of connection points: 2
#     Edge 33, Type (0, 1), BuildingBlock: XIVTED_clean_linker_0, # of connection points: 2
#     Edge 34, Type (0, 1), BuildingBlock: XIVTED_clean_linker_0, # of connection points: 2
#     Edge 35, Type (0, 1), BuildingBlock: XIVTED_clean_linker_0, # of connection points: 2
# Relax obj value: 0.229
# Max RMSD: 0.288
# Mean RMSD: 0.204
data_MOF--net-pyr--node1-GEDQOX_clean_sbu_0--node2-QEWDON_clean_linker_0--edge1-XIVTED_clean_linker_0
_symmetry_space_group_name_H-M    P1
_symmetry_Int_Tables_number       1
_symmetry_cell_setting            triclinic
loop_
_symmetry_equiv_pos_as_xyz
'x, y, z'
_cell_length_a     38.995768
_cell_length_b     39.105443
_cell_length_c     36.957795
_cell_angle_alpha  87.735224
_cell_angle_beta   90.435104
_cell_angle_gamma 94.659792
loop_
_atom_site_label
_atom_site_type_symbol
_atom_site_fract_x
_atom_site_fract_y
_atom_site_fract_z
_atom_type_partial_charge
H0 H 0.29204 0.22488 0.18705 0.0
C1 C 0.27641 0.21193 0.20836 0.0
C2 C 0.2856 0.17975 0.22292 0.0
C3 C 0.24913 0.22917 0.22277 0.0
H4 H 0.27311 0.14056 0.26474 0.0
C5 C 0.26611 0.16474 0.25278 0.0
C6 C 0.23836 0.18095 0.26799 0.0
C7 C 0.23024 0.2131 0.25218 0.0
C8 C 0.24733 0.26722 0.21396 0.0
H9 H 0.21003 0.22662 0.2637 0.0
C10 C 0.21944 0.28289 0.19575 0.0
C11 C 0.22141 0.31942 0.18834 0.0
C12 C 0.27575 0.28864 0.22513 0.0
H13 H 0.29709 0.27787 0.23924 0.0
C14 C 0.27724 0.32401 0.21879 0.0
H15 H 0.19728 0.26697 0.18666 0.0
C16 C 0.25063 0.33913 0.20066 0.0
H17 H 0.25302 0.36677 0.19606 0.0
H18 H 0.29942 0.3399 0.22788 0.0
H19 H 0.36571 0.83297 0.90491 0.0
C20 C 0.38044 0.81914 0.88639 0.0
C21 C 0.41606 0.82701 0.88325 0.0
C22 C 0.36349 0.79384 0.86559 0.0
H23 H 0.46268 0.81371 0.85805 0.0
C24 C 0.43506 0.80821 0.8598 0.0
C25 C 0.41828 0.78256 0.83856 0.0
C26 C 0.38228 0.77624 0.84129 0.0
C27 C 0.32592 0.78612 0.86894 0.0
H28 H 0.36856 0.75748 0.82456 0.0
C29 C 0.30452 0.78964 0.83855 0.0
C30 C 0.26857 0.78386 0.84177 0.0
C31 C 0.31128 0.77612 0.90267 0.0
H32 H 0.32742 0.77325 0.92641 0.0
C33 C 0.27569 0.76953 0.9059 0.0
H34 H 0.31587 0.79835 0.81278 0.0
C35 C 0.25438 0.77348 0.87572 0.0
H36 H 0.22682 0.76853 0.87894 0.0
H37 H 0.26454 0.76162 0.93194 0.0
H38 H 0.7754 0.55219 0.95919 0.0
C39 C 0.76534 0.527 0.96931 0.0
C40 C 0.78772 0.50154 0.97869 0.0
C41 C 0.72973 0.51998 0.97228 0.0
H42 H 0.79035 0.44887 0.99829 0.0
C43 C 0.77357 0.46864 0.99039 0.0
C44 C 0.73773 0.4612 0.9926 0.0
C45 C 0.71606 0.48727 0.98378 0.0
C46 C 0.70619 0.5461 0.96154 0.0
H47 H 0.68835 0.4819 0.98457 0.0
C48 C 0.69689 0.55047 0.92506 0.0
C49 C 0.67062 0.57161 0.91475 0.0
C50 C 0.6904 0.56404 0.98796 0.0
H51 H 0.69716 0.56057 1.01628 0.0
C52 C 0.6652 0.58599 0.97799 0.0
H53 H 0.70969 0.53657 0.90504 0.0
C54 C 0.65503 0.58949 0.94179 0.0
H55 H 0.6342 0.6054 0.93538 0.0
H56 H 0.6528 0.5996 0.99851 0.0
H57 H 0.88099 0.91872 0.2833 0.0
C58 C 0.86672 0.90045 0.30148 0.0
C59 C 0.87138 0.90266 0.339 0.0
C60 C 0.84345 0.87465 0.28761 0.0
H61 H 0.8572 0.88078 0.3915 0.0
C62 C 0.85305 0.87914 0.36253 0.0
C63 C 0.82995 0.85332 0.34929 0.0
C64 C 0.8254 0.85099 0.31178 0.0
C65 C 0.83709 0.87259 0.24809 0.0
H66 H 0.80695 0.83146 0.30148 0.0
C67 C 0.83511 0.8406 0.23184 0.0
C68 C 0.82684 0.83768 0.19486 0.0
C69 C 0.83158 0.90215 0.22674 0.0
H70 H 0.83266 0.9271 0.23862 0.0
C71 C 0.82359 0.89959 0.18999 0.0
H72 H 0.84066 0.81802 0.24808 0.0
C73 C 0.82103 0.86763 0.17412 0.0
H74 H 0.81418 0.86639 0.14574 0.0
H75 H 0.81899 0.92246 0.1738 0.0
H76 H 0.88602 0.85317 0.94161 0.0
C77 C 0.90029 0.86665 0.91965 0.0
C78 C 0.93244 0.85527 0.90892 0.0
C79 C 0.88541 0.89434 0.90108 0.0
H80 H 0.97335 0.86402 0.86938 0.0
C81 C 0.94935 0.87265 0.87856 0.0
C82 C 0.93532 0.90042 0.85916 0.0
C83 C 0.90356 0.91093 0.8713 0.0
C84 C 0.84741 0.89947 0.90473 0.0
H85 H 0.89135 0.93072 0.8558 0.0
C86 C 0.83141 0.9157 0.93386 0.0
C87 C 0.79496 0.91967 0.93313 0.0
C88 C 0.82656 0.88788 0.87585 0.0
H89 H 0.83761 0.87551 0.85345 0.0
C90 C 0.79155 0.89207 0.87492 0.0
H91 H 0.84684 0.92483 0.95651 0.0
C92 C 0.77604 0.90774 0.90291 0.0
H93 H 0.74869 0.91066 0.90074 0.0
H94 H 0.77619 0.88309 0.85215 0.0
H95 H 0.71544 0.27546 0.43652 0.0
C96 C 0.70878 0.26529 0.41031 0.0
C97 C 0.73216 0.24662 0.39188 0.0
C98 C 0.67605 0.26951 0.39587 0.0
H99 H 0.73932 0.21641 0.34542 0.0
C100 C 0.72222 0.23254 0.35845 0.0
C101 C 0.68964 0.23728 0.34309 0.0
C102 C 0.66721 0.25663 0.36191 0.0
C103 C 0.64898 0.28267 0.41808 0.0
H104 H 0.64212 0.26117 0.35084 0.0
C105 C 0.65165 0.31646 0.43033 0.0
C106 C 0.62409 0.32856 0.44923 0.0
C107 C 0.61935 0.26089 0.42613 0.0
H108 H 0.61695 0.23474 0.41718 0.0
C109 C 0.59257 0.27254 0.44573 0.0
H110 H 0.67425 0.33354 0.42386 0.0
C111 C 0.59477 0.30619 0.45701 0.0
H112 H 0.57343 0.31484 0.47184 0.0
H113 H 0.56988 0.25554 0.45184 0.0
H114 H 0.40857 0.6259 0.25748 0.0
C115 C 0.3828 0.62443 0.24615 0.0
C116 C 0.37327 0.6505 0.22184 0.0
C117 C 0.35961 0.59623 0.2556 0.0
H118 H 0.33299 0.66753 0.18707 0.0
C119 C 0.34033 0.64761 0.20606 0.0
C120 C 0.31667 0.61953 0.21501 0.0
C121 C 0.32658 0.59402 0.24003 0.0
C122 C 0.37001 0.56931 0.28198 0.0
H123 H 0.30831 0.57284 0.24826 0.0
C124 C 0.3888 0.57851 0.31327 0.0
C125 C 0.40056 0.55326 0.33729 0.0
C126 C 0.36224 0.53433 0.27556 0.0
H127 H 0.34803 0.52646 0.25159 0.0
C128 C 0.37365 0.50913 0.29957 0.0
H129 H 0.39476 0.60539 0.31869 0.0
C130 C 0.39297 0.51847 0.33012 0.0
H131 H 0.40175 0.49855 0.3483 0.0
H132 H 0.36779 0.48225 0.29427 0.0
H133 H 0.30054 0.26068 0.84813 0.0
C134 C 0.28787 0.24324 0.82924 0.0
C135 C 0.29934 0.24417 0.79339 0.0
C136 C 0.25885 0.22189 0.84031 0.0
H137 H 0.29327 0.22084 0.74193 0.0
C138 C 0.28394 0.22054 0.76943 0.0
C139 C 0.25528 0.19821 0.77992 0.0
C140 C 0.24284 0.1992 0.81557 0.0
C141 C 0.24291 0.22695 0.87595 0.0
H142 H 0.21948 0.18394 0.82344 0.0
C143 C 0.24134 0.26043 0.88803 0.0
C144 C 0.22577 0.26659 0.92105 0.0
C145 C 0.22847 0.19917 0.89753 0.0
H146 H 0.22932 0.17307 0.88902 0.0
C147 C 0.21313 0.20495 0.9306 0.0
H148 H 0.25224 0.28197 0.87143 0.0
C149 C 0.21176 0.23839 0.94238 0.0
H150 H 0.19925 0.24213 0.96781 0.0
H151 H 0.20211 0.1834 0.94712 0.0
Nd152 Nd 0.09302 1.01021 0.55119 0.0
Nd153 Nd 0.05595 0.07045 0.56143 0.0
C154 C 0.11355 0.94792 0.54537 0.0
C155 C 0.12243 0.9206 0.57163 0.0
C156 C 0.09947 0.90809 0.5991 0.0
C157 C 0.11008 0.88578 0.62666 0.0
C158 C 0.14391 0.87571 0.62746 0.0
C159 C 0.16626 0.88699 0.59893 0.0
C160 C 0.15557 0.90913 0.57127 0.0
C161 C 0.12882 0.05828 0.5925 0.0
C162 C 0.04306 1.00981 0.62394 0.0
C163 C 1.03111 0.13116 0.56712 0.0
C164 C 1.00668 0.15023 0.54549 0.0
C165 C 0.99192 0.17801 0.56024 0.0
C166 C 0.96492 0.19305 0.54222 0.0
C167 C 0.95215 0.18047 0.50914 0.0
C168 C 0.96802 0.15344 0.49379 0.0
C169 C 0.99496 0.13837 0.51188 0.0
C170 C 1.0201 0.02356 0.51862 0.0
C171 C 0.11038 0.07148 0.49197 0.0
O172 O 0.0812 0.95458 0.54321 0.0
O173 O 0.13463 0.97568 0.54462 0.0
O174 O 0.14291 0.04164 0.56773 0.0
O175 O 0.09737 0.04899 0.59541 0.0
O176 O 0.05685 0.99089 0.59975 0.0
O177 O 0.04414 0.04349 0.61785 0.0
O178 O 0.06085 0.12726 0.55243 0.0
O179 O 1.01767 0.10295 0.58306 0.0
O180 O 1.00627 0.04051 0.54315 0.0
O181 O 0.0518 0.0321 0.51661 0.0
O182 O 0.09668 0.09023 0.51656 0.0
O183 O 0.10739 0.03768 0.49637 0.0
H184 H 0.07366 0.91633 0.59999 0.0
H185 H 0.092 0.8771 0.64783 0.0
H186 H 0.19261 0.88014 0.59883 0.0
H187 H 0.17372 0.91848 0.55039 0.0
H188 H 1.00049 0.18731 0.5863 0.0
H189 H 0.95357 0.2141 0.55455 0.0
H190 H 0.95858 0.14284 0.46862 0.0
H191 H 1.00576 0.11659 0.50034 0.0
Nd192 Nd 0.55622 0.03163 0.12255 0.0
Nd193 Nd 0.55194 0.07736 0.06598 0.0
C194 C 0.56046 0.97732 0.16723 0.0
C195 C 0.54452 0.94196 0.17068 0.0
C196 C 0.54091 0.92099 0.14067 0.0
C197 C 0.52511 0.8877 0.14447 0.0
C198 C 0.5125 0.87483 0.17831 0.0
C199 C 0.51623 0.89598 0.20826 0.0
C200 C 0.53217 0.92918 0.20446 0.0
C201 C 0.5029 0.07413 0.1345 0.0
C202 C 0.51292 1.00631 0.05141 0.0
C203 C 0.54921 0.13303 1.02306 0.0
C204 C 0.57083 0.16554 1.01989 0.0
C205 C 0.55674 0.1954 1.00663 0.0
C206 C 0.57672 0.22676 1.00541 0.0
C207 C 0.61115 0.22868 1.01736 0.0
C208 C 0.62524 0.19857 1.03036 0.0
C209 C 0.60517 0.1673 1.03183 0.0
C210 C 0.60471 0.03482 0.05406 0.0
C211 C 0.59859 0.10071 0.13603 0.0
O212 O 0.58101 0.98468 0.13987 0.0
O213 O 0.54048 1.00165 0.17292 0.0
O214 O 0.52707 0.06752 0.15737 0.0
O215 O 0.5082 0.05987 0.10479 0.0
O216 O 0.53271 0.99697 0.07834 0.0
O217 O 0.51042 0.0391 0.04391 0.0
O218 O 0.53175 0.12795 0.05299 0.0
O219 O 0.5635 0.10571 1.01379 0.0
O220 O 0.58082 0.04146 1.03097 0.0
O221 O 0.59978 0.04953 0.08351 0.0
O222 O 0.578 0.11118 0.11027 0.0
O223 O 0.59963 0.06786 0.14326 0.0
H224 H 0.55024 0.93028 0.11427 0.0
H225 H 0.523 0.87199 0.12095 0.0
H226 H 0.50627 0.88715 0.23456 0.0
H227 H 0.53456 0.94505 0.22788 0.0
H228 H 0.53021 0.1945 0.99754 0.0
H229 H 0.56529 0.24951 0.99497 0.0
H230 H 0.65153 0.19934 1.04016 0.0
H231 H 0.61636 0.14455 1.04268 0.0
Nd232 Nd 0.51711 0.5734 0.61145 0.0
Nd233 Nd 0.58747 0.61217 0.61118 0.0
C234 C 0.45899 0.53565 0.60008 0.0
C235 C 0.43973 0.50861 0.622 0.0
C236 C 0.44177 0.50843 0.65994 0.0
C237 C 0.42756 0.48025 0.68062 0.0
C238 C 0.4113 0.45167 0.66371 0.0
C239 C 0.40856 0.45235 0.62572 0.0
C240 C 0.42271 0.48063 0.60504 0.0
C241 C 0.55423 0.56292 0.67384 0.0
C242 C 0.52364 0.64231 0.65325 0.0
C243 C 0.64711 0.64778 0.62062 0.0
C244 C 0.67357 0.66217 0.59519 0.0
C245 C 0.69733 0.68873 0.60566 0.0
C246 C 0.7186 0.7066 0.57984 0.0
C247 C 0.71613 0.69831 0.54312 0.0
C248 C 0.69355 0.67034 0.5332 0.0
C249 C 0.67241 0.65245 0.55904 0.0
C250 C 0.54972 0.62114 0.54845 0.0
C251 C 0.58042 0.5435 0.56795 0.0
O252 O 0.46003 0.56682 0.61182 0.0
O253 O 0.48887 0.52754 0.58907 0.0
O254 O 0.52118 0.5636 0.67301 0.0
O255 O 0.5663 0.56476 0.64236 0.0
O256 O 0.50285 0.62471 0.63122 0.0
O257 O 0.55681 0.63753 0.65477 0.0
O258 O 0.64322 0.61427 0.62414 0.0
O259 O 0.61785 0.66177 0.61767 0.0
O260 O 0.58277 0.61964 0.5491 0.0
O261 O 0.53829 0.62035 0.58018 0.0
O262 O 0.60232 0.56198 0.58808 0.0
O263 O 0.54729 0.54817 0.56789 0.0
H264 H 0.45531 0.52956 0.67355 0.0
H265 H 0.4304 0.48034 0.7098 0.0
H266 H 0.39577 0.43088 0.61198 0.0
H267 H 0.42125 0.48022 0.57576 0.0
H268 H 0.69843 0.69657 0.63347 0.0
H269 H 0.73617 0.72765 0.58842 0.0
H270 H 0.69075 0.66349 0.50516 0.0
H271 H 0.654 0.63207 0.55049 0.0
Nd272 Nd 1.02625 0.56394 0.07166 0.0
Nd273 Nd 0.09241 0.5874 1.03028 0.0
C274 C 0.96122 0.54826 0.08999 0.0
C275 C 0.93078 0.56807 0.09024 0.0
C276 C 0.92852 0.59639 0.06619 0.0
C277 C 0.90455 0.62022 0.07189 0.0
C278 C 0.88181 0.6158 0.10148 0.0
C279 C 0.88178 0.58524 0.12308 0.0
C280 C 0.90639 0.56184 0.1178 0.0
C281 C 0.07762 0.59429 0.11292 0.0
C282 C 1.03375 0.64139 1.02574 0.0
C283 C 0.15661 0.5974 1.00813 0.0
C284 C 0.18112 0.57166 1.0003 0.0
C285 C 0.19748 0.554 1.02857 0.0
C286 C 0.21307 0.5239 1.02198 0.0
C287 C 0.21242 0.51074 0.98706 0.0
C288 C 0.19904 0.53035 0.95831 0.0
C289 C 0.18386 0.56059 0.96483 0.0
C290 C 0.04098 0.55294 0.99137 0.0
C291 C 0.08726 0.51144 0.07813 0.0
O292 O 0.97355 0.54239 0.05819 0.0
O293 O 0.98529 0.55777 0.11318 0.0
O294 O 0.05585 0.56958 0.12483 0.0
O295 O 0.0697 0.60432 0.08123 0.0
O296 O 1.01339 0.61542 1.04027 0.0
O297 O 0.06739 0.63892 1.02355 0.0
O298 O 0.14786 0.59957 1.04208 0.0
O299 O 0.1302 0.59824 0.98612 0.0
O300 O 0.0595 0.57967 0.97854 0.0
O301 O 0.05085 0.54529 1.02285 0.0
O302 O 0.10651 0.5368 0.06129 0.0
O303 O 0.05371 0.51372 0.08233 0.0
H304 H 0.94665 0.60116 0.04424 0.0
H305 H 0.90572 0.6432 0.05452 0.0
H306 H 0.86391 0.58013 0.14527 0.0
H307 H 0.90749 0.53982 0.1364 0.0
H308 H 0.1964 0.56212 0.0562 0.0
H309 H 0.22403 0.51004 0.04461 0.0
H310 H 0.19788 0.5212 0.93104 0.0
H311 H 0.17194 0.57388 0.94237 0.0
H312 H 0.21028 0.21361 0.32542 0.0
H313 H 0.13977 0.03985 0.43575 0.0
H314 H 0.22186 0.11197 0.28836 0.0
H315 H 0.12411 0.14089 0.47174 0.0
H316 H 0.17005 0.06595 0.38246 0.0
H317 H 0.17925 0.18803 0.37847 0.0
C318 C 0.20619 0.18592 0.32795 0.0
C319 C 0.21901 0.16527 0.3014 0.0
C320 C 0.16005 0.08255 0.40191 0.0
C321 C 0.18325 0.13534 0.3638 0.0
C322 C 0.14261 0.06758 0.43263 0.0
C323 C 0.12904 0.08794 0.45888 0.0
C324 C 0.1644 0.11851 0.39672 0.0
C325 C 0.13391 0.12387 0.45261 0.0
C326 C 0.18851 0.17126 0.35875 0.0
C327 C 0.21313 0.12937 0.3077 0.0
N328 N 0.15105 0.13784 0.42248 0.0
N329 N 0.19587 0.11579 0.33786 0.0
H330 H 0.39676 0.89211 0.88802 0.0
H331 H 0.52328 0.93804 0.05276 0.0
H332 H 0.47247 0.82541 0.928 0.0
H333 H 0.46815 1.01421 0.99421 0.0
H334 H 0.50159 0.89534 1.01019 0.0
H335 H 0.42013 0.93631 0.92853 0.0
C336 C 0.41851 0.88691 0.90521 0.0
C337 C 0.43268 0.85505 0.9048 0.0
C338 C 0.49419 0.92137 1.00663 0.0
C339 C 0.45928 0.90535 0.95153 0.0
C340 C 0.50634 0.94579 1.03114 0.0
C341 C 0.49745 0.97986 1.02719 0.0
C342 C 0.47268 0.93086 0.978 0.0
C343 C 0.47563 0.98828 0.99838 0.0
C344 C 0.43184 0.91214 0.92829 0.0
C345 C 0.46095 0.84969 0.92738 0.0
N346 N 0.46392 0.96392 0.97493 0.0
N347 N 0.47312 0.87447 0.95013 0.0
H348 H 0.64342 0.62574 0.87723 0.0
H349 H 0.61748 0.53968 0.68778 0.0
H350 H 0.66856 0.52115 0.86431 0.0
H351 H 0.53768 0.59357 0.73495 0.0
H352 H 0.65 0.54388 0.74521 0.0
H353 H 0.61749 0.62536 0.81685 0.0
C354 C 0.64369 0.60273 0.86194 0.0
C355 C 0.65799 0.57327 0.87652 0.0
C356 C 0.62544 0.55488 0.74267 0.0
C357 C 0.62967 0.57353 0.80674 0.0
C358 C 0.60702 0.55253 0.71015 0.0
C359 C 0.57481 0.56589 0.70713 0.0
C360 C 0.61192 0.57173 0.77153 0.0
C361 C 0.56224 0.5825 0.73659 0.0
C362 C 0.62913 0.60276 0.82736 0.0
C363 C 0.65845 0.54473 0.85444 0.0
N364 N 0.58096 0.58518 0.76758 0.0
N365 N 0.64451 0.54559 0.82066 0.0
H366 H 0.80311 0.77487 0.22512 0.0
H367 H 0.85438 0.66656 0.05825 0.0
H368 H 0.84645 0.82221 0.12628 0.0
H369 H 0.86444 0.63237 0.17031 0.0
H370 H 0.83346 0.71986 0.07857 0.0
H371 H 0.80767 0.71853 0.20019 0.0
C372 C 0.81349 0.77355 0.19816 0.0
C373 C 0.8252 0.80351 0.17817 0.0
C374 C 0.83977 0.70026 0.09849 0.0
C375 C 0.82929 0.73898 0.14915 0.0
C376 C 0.85193 0.66986 0.08703 0.0
C377 C 0.86205 0.64485 0.1125 0.0
C378 C 0.83694 0.7054 0.13563 0.0
C379 C 0.85691 0.65041 0.1494 0.0
C380 C 0.81576 0.74135 0.1839 0.0
C381 C 0.8371 0.79999 0.14278 0.0
N382 N 0.84498 0.68013 0.1598 0.0
N383 N 0.8391 0.76828 0.1295 0.0
H384 H 0.30832 0.17657 0.15163 0.0
H385 H 0.48378 0.08903 0.203 0.0
H386 H 0.33541 0.14485 0.26039 0.0
H387 H 0.44641 0.09456 0.09315 0.0
H388 H 0.43167 0.11324 0.22334 0.0
H389 H 0.35943 0.15103 0.1292 0.0
C390 C 0.32487 0.16435 0.17098 0.0
C391 C 0.31678 0.16311 0.20829 0.0
C392 C 0.43462 0.10921 0.19475 0.0
C393 C 0.37653 0.13355 0.18224 0.0
C394 C 0.46467 0.09532 0.18294 0.0
C395 C 0.47004 0.08935 0.14607 0.0
C396 C 0.4091 0.11809 0.16974 0.0
C397 C 0.44376 0.09839 0.12181 0.0
C398 C 0.35417 0.14953 0.15796 0.0
C399 C 0.33971 0.14638 0.23146 0.0
N400 N 0.41479 0.11235 0.13396 0.0
N401 N 0.36823 0.13271 0.21821 0.0
H402 H 0.27665 0.7672 0.77103 0.0
H403 H 0.12906 0.88236 0.69906 0.0
H404 H 0.20941 0.81696 0.84073 0.0
H405 H 0.18879 0.82476 0.62877 0.0
H406 H 0.155 0.8546 0.75134 0.0
H407 H 0.24233 0.78449 0.71876 0.0
C408 C 0.25454 0.78158 0.77535 0.0
C409 C 0.24603 0.79087 0.81027 0.0
C410 C 0.16221 0.84773 0.7245 0.0
C411 C 0.20663 0.8107 0.75064 0.0
C412 C 0.14717 0.86341 0.69453 0.0
C413 C 0.15684 0.85608 0.65931 0.0
C414 C 0.1874 0.82471 0.71939 0.0
C415 C 0.181 0.83172 0.65536 0.0
C416 C 0.23486 0.79131 0.74553 0.0
C417 C 0.21679 0.80904 0.81436 0.0
N418 N 0.19568 0.81715 0.68502 0.0
N419 N 0.19837 0.81864 0.78488 0.0
H420 H 0.8257 0.56201 0.9928 0.0
H421 H 1.00678 0.48974 0.99455 0.0
H422 H 0.83674 0.45894 0.95887 0.0
H423 H 0.9947 0.59556 0.96366 0.0
H424 H 0.9446 0.4766 0.98644 0.0
H425 H 0.88789 0.57422 0.98838 0.0
C426 C 0.841 0.54201 0.98401 0.0
C427 C 0.82568 0.50934 0.97611 0.0
C428 C 0.95572 0.50252 0.98074 0.0
C429 C 0.89708 0.52313 0.97185 0.0
C430 C 0.99106 0.50995 0.98519 0.0
C431 C 1.00563 0.54363 0.97943 0.0
C432 C 0.93492 0.52924 0.97161 0.0
C433 C 0.98434 0.56918 0.96793 0.0
C434 C 0.87654 0.54906 0.98159 0.0
C435 C 0.84726 0.48429 0.96587 0.0
N436 N 0.94983 0.56159 0.96508 0.0
N437 N 0.8819 0.49162 0.96436 0.0
H438 H 0.81957 0.78304 0.34787 0.0
H439 H 0.72482 0.76827 0.53998 0.0
H440 H 0.79649 0.86944 0.40986 0.0
H441 H 0.74787 0.67965 0.48135 0.0
H442 H 0.75113 0.80533 0.49184 0.0
H443 H 0.79186 0.74423 0.39482 0.0
C444 C 0.80833 0.79379 0.37115 0.0
C445 C 0.81055 0.82942 0.37523 0.0
C446 C 0.7506 0.77778 0.48945 0.0
C447 C 0.77933 0.78547 0.42896 0.0
C448 C 0.73588 0.75655 0.5172 0.0
C449 C 0.73434 0.72075 0.51488 0.0
C450 C 0.76388 0.76324 0.45893 0.0
C451 C 0.74831 0.70713 0.48414 0.0
C452 C 0.79279 0.7717 0.39801 0.0
C453 C 0.79582 0.8421 0.40596 0.0
N454 N 0.76251 0.72841 0.45732 0.0
N455 N 0.78099 0.82017 0.43166 0.0
H456 H 0.15259 0.32879 0.20371 0.0
H457 H 0.15446 0.4963 0.06971 0.0
H458 H 0.23217 0.35839 0.12595 0.0
H459 H 0.06028 0.45456 0.12051 0.0
H460 H 0.18319 0.44707 0.09404 0.0
H461 H 0.11774 0.37339 0.17621 0.0
C462 C 0.16234 0.34379 0.1802 0.0
C463 C 0.19541 0.33912 0.16695 0.0
C464 C 0.15611 0.44828 0.09952 0.0
C465 C 0.15607 0.39167 0.13613 0.0
C466 C 0.13956 0.47673 0.08572 0.0
C467 C 0.10451 0.48006 0.09259 0.0
C468 C 0.13797 0.42224 0.12079 0.0
C469 C 0.08717 0.45338 0.11407 0.0
C470 C 0.14257 0.36968 0.16475 0.0
C471 C 0.20683 0.36048 0.13702 0.0
N472 N 0.10397 0.42589 0.12741 0.0
N473 N 0.18762 0.38569 0.12314 0.0
H474 H 0.68218 0.44236 1.03606 0.0
H475 H 0.67776 0.24266 0.99465 0.0
H476 H 0.75828 0.39978 0.97076 0.0
H477 H 0.59236 0.29053 1.03897 0.0
H478 H 0.71149 0.29836 0.99308 0.0
H479 H 0.65307 0.38505 0.04515 0.0
C480 C 0.69287 0.42092 1.02376 0.0
C481 C 0.72249 0.42599 1.00222 0.0
C482 C 0.6854 0.29663 1.00322 0.0
C483 C 0.68936 0.3602 1.01272 0.0
C484 C 0.6662 0.26486 1.00425 0.0
C485 C 0.63214 0.26205 1.01674 0.0
C486 C 0.67051 0.32571 1.01506 0.0
C487 C 0.61834 0.29166 1.02863 0.0
C488 C 0.67626 0.3882 1.02901 0.0
C489 C 0.73561 0.39709 0.98768 0.0
N490 N 0.63757 0.32223 1.02749 0.0
N491 N 0.7188 0.36546 0.99296 0.0
H492 H 0.85416 0.95539 0.37825 0.0
H493 H 0.0437 0.99185 0.45997 0.0
H494 H 0.94163 0.90795 0.33858 0.0
H495 H 0.95069 0.02012 0.50933 0.0
H496 H 1.00917 0.9682 0.40952 0.0
H497 H 0.89209 0.98888 0.4189 0.0
C498 C 0.88162 0.95291 0.37744 0.0
C499 C 0.89501 0.92921 0.3551 0.0
C500 C 0.99642 0.97967 0.43138 0.0
C501 C 0.93838 0.96625 0.40237 0.0
C502 C 1.01604 0.99299 0.46019 0.0
C503 C 0.99993 1.00774 0.48888 0.0
C504 C 0.96058 0.98146 0.43127 0.0
C505 C 0.96411 1.00879 0.48786 0.0
C506 C 0.90321 0.97164 0.4009 0.0
C507 C 0.93059 0.92634 0.35526 0.0
N508 N 0.94568 0.99587 0.45953 0.0
N509 N 0.95112 0.94436 0.37899 0.0
H510 H 0.47527 0.80375 0.79651 0.0
H511 H 0.45719 0.64027 0.67606 0.0
H512 H 0.40565 0.71469 0.82267 0.0
H513 H 0.55665 0.69508 0.69042 0.0
H514 H 0.43374 0.67467 0.72226 0.0
H515 H 0.50277 0.77044 0.75151 0.0
C516 C 0.46589 0.77724 0.79316 0.0
C517 C 0.43757 0.76233 0.81319 0.0
C518 C 0.46068 0.67924 0.7152 0.0
C519 C 0.46834 0.72462 0.76105 0.0
C520 C 0.47403 0.65982 0.68862 0.0
C521 C 0.50893 0.66484 0.67933 0.0
C522 C 0.48214 0.70437 0.73222 0.0
C523 C 0.5296 0.69036 0.69686 0.0
C524 C 0.48151 0.75836 0.76731 0.0
C525 C 0.42655 0.72784 0.80722 0.0
N526 N 0.51585 0.70939 0.72237 0.0
N527 N 0.44161 0.7104 0.78146 0.0
H528 H 0.93797 0.96867 0.83372 0.0
H529 H 0.04026 0.94158 0.64859 0.0
H530 H 0.97217 0.87114 0.80528 0.0
H531 H 1.01038 0.03989 0.67974 0.0
H532 H 1.01539 0.91548 0.70502 0.0
H533 H 0.96361 0.9947 0.77778 0.0
C534 C 0.95073 0.9525 0.81587 0.0
C535 C 0.95253 0.91726 0.82503 0.0
C536 C 1.01421 0.94277 0.69961 0.0
C537 C 0.98268 0.94764 0.75973 0.0
C538 C 1.02848 0.95782 0.66713 0.0
C539 C 1.02764 0.99327 0.65876 0.0
C540 C 0.99859 0.96302 0.72451 0.0
C541 C 1.01185 1.01257 0.68452 0.0
C542 C 0.96563 0.9676 0.78373 0.0
C543 C 0.9702 0.89835 0.80029 0.0
N544 N 0.99807 0.99732 0.71583 0.0
N545 N 0.98428 0.91361 0.76912 0.0
H546 H 0.62352 0.21405 0.32326 0.0
H547 H 0.66004 0.09506 0.1709 0.0
H548 H 0.72848 0.21991 0.28473 0.0
H549 H 0.5777 0.16171 0.15687 0.0
H550 H 0.68526 0.13245 0.21787 0.0
H551 H 0.6047 0.18666 0.26801 0.0
C552 C 0.64276 0.21033 0.30318 0.0
C553 C 0.67788 0.22019 0.309 0.0
C554 C 0.66202 0.13909 0.20396 0.0
C555 C 0.65602 0.18672 0.24611 0.0
C556 C 0.64761 0.11784 0.17735 0.0
C557 C 0.6168 0.12542 0.16009 0.0
C558 C 0.64478 0.16727 0.21412 0.0
C559 C 0.60159 0.15513 0.16942 0.0
C560 C 0.6318 0.1943 0.27167 0.0
C561 C 0.70127 0.21259 0.28208 0.0
N562 N 0.61532 0.17459 0.19644 0.0
N563 N 0.68998 0.19588 0.25203 0.0
H564 H 0.3865 0.59879 0.38839 0.0
H565 H 0.56986 0.59727 0.4844 0.0
H566 H 0.46255 0.53113 0.35821 0.0
H567 H 0.48073 0.6269 0.54008 0.0
H568 H 0.53313 0.58056 0.43303 0.0
H569 H 0.42287 0.61667 0.4399 0.0
C570 C 0.41086 0.58773 0.39269 0.0
C571 C 0.42159 0.56341 0.3692 0.0
C572 C 0.52165 0.59088 0.45642 0.0
C573 C 0.46331 0.58398 0.42748 0.0
C574 C 0.5426 0.60067 0.48558 0.0
C575 C 0.52823 0.61365 0.51634 0.0
C576 C 0.4862 0.59462 0.45782 0.0
C577 C 0.49273 0.61711 0.51672 0.0
C578 C 0.43148 0.59782 0.42205 0.0
C579 C 0.45327 0.54972 0.37593 0.0
N580 N 0.47287 0.60778 0.48777 0.0
N581 N 0.47317 0.56039 0.40432 0.0
H582 H 0.21555 0.32397 0.87845 0.0
H583 H 0.20197 0.45389 1.03289 0.0
H584 H 0.23236 0.29157 0.98989 0.0
H585 H 0.24251 0.48562 0.92736 0.0
H586 H 0.20798 0.39419 1.01901 0.0
H587 H 0.21814 0.38323 0.89648 0.0
C588 C 0.22009 0.32922 0.90671 0.0
C589 C 0.22441 0.30255 0.93256 0.0
C590 C 0.21595 0.41433 0.99915 0.0
C591 C 0.22634 0.37067 0.95344 0.0
C592 C 0.21285 0.44852 1.00714 0.0
C593 C 0.22141 0.47507 0.98118 0.0
C594 C 0.22704 0.40655 0.96469 0.0
C595 C 0.23471 0.46615 0.94793 0.0
C596 C 0.22147 0.36314 0.91693 0.0
C597 C 0.22876 0.31115 0.969 0.0
N598 N 0.23659 0.43264 0.94044 0.0
N599 N 0.22949 0.34452 0.97841 0.0
H600 H 0.80317 0.98474 0.9635 0.0
H601 H 0.60479 0.97813 1.01393 0.0
H602 H 0.73693 0.89107 0.96712 0.0
H603 H 0.67519 0.04961 0.06844 0.0
H604 H 0.65367 0.94987 0.99118 0.0
H605 H 0.75928 1.0125 0.99785 0.0
C606 C 0.78003 0.96964 0.97235 0.0
C607 C 0.77419 0.9352 0.96224 0.0
C608 C 0.65866 0.97156 1.00834 0.0
C609 C 0.72284 0.96748 1.00039 0.0
C610 C 0.6306 0.98777 1.02144 0.0
C611 C 0.63552 1.01614 0.04368 0.0
C612 C 0.69264 0.98418 1.01623 0.0
C613 C 0.66992 0.02752 0.05193 0.0
C614 C 0.75471 0.98567 0.99168 0.0
C615 C 0.74295 0.91755 0.97402 0.0
N616 N 0.69705 1.0119 1.03786 0.0
N617 N 0.71861 0.93384 0.99158 0.0
H618 H 0.79503 0.24508 0.3588 0.0
H619 H 0.89341 0.19642 0.54251 0.0
H620 H 0.74626 0.23164 0.46346 0.0
H621 H 0.93934 0.1942 0.43683 0.0
H622 H 0.84104 0.21502 0.51416 0.0
H623 H 0.84947 0.23122 0.38697 0.0
C624 C 0.79571 0.23923 0.38767 0.0
C625 C 0.76588 0.23962 0.40873 0.0
C626 C 0.86259 0.21062 0.49713 0.0
C627 C 0.8283 0.22408 0.44121 0.0
C628 C 0.89267 0.20026 0.51334 0.0
C629 C 0.92093 0.19376 0.49206 0.0
C630 C 0.86059 0.21462 0.45926 0.0
C631 C 0.9181 0.19858 0.45429 0.0
C632 C 0.82686 0.23146 0.40375 0.0
C633 C 0.76856 0.23228 0.44613 0.0
N634 N 0.88847 0.20868 0.4391 0.0
N635 N 0.79913 0.2248 0.46109 0.0
H636 H 0.27543 0.67196 0.19738 0.0
H637 H 0.10943 0.54997 0.1573 0.0
H638 H 0.27725 0.56166 0.19534 0.0
H639 H 0.12495 0.6498 0.10323 0.0
H640 H 0.16808 0.55664 0.1808 0.0
H641 H 0.21773 0.66699 0.17082 0.0
C642 C 0.26401 0.64672 0.19111 0.0
C643 C 0.28151 0.61715 0.19873 0.0
C644 C 0.15864 0.57713 0.16388 0.0
C645 C 0.215 0.61147 0.16942 0.0
C646 C 0.12511 0.57352 0.15071 0.0
C647 C 0.11239 0.59954 0.12849 0.0
C648 C 0.17942 0.60727 0.15542 0.0
C649 C 0.13393 0.62927 0.1204 0.0
C650 C 0.23097 0.644 0.17612 0.0
C651 C 0.26472 0.58515 0.19074 0.0
N652 N 0.16649 0.63251 0.13414 0.0
N653 N 0.23234 0.58316 0.17682 0.0
H654 H 0.35144 0.24417 0.74312 0.0
H655 H 0.37573 0.44944 0.72742 0.0
H656 H 0.29995 0.31138 0.81088 0.0
H657 H 0.41718 0.38401 0.65017 0.0
H658 H 0.35412 0.39853 0.76314 0.0
H659 H 0.38237 0.29466 0.7137 0.0
C660 C 0.34694 0.26943 0.75213 0.0
C661 C 0.3229 0.27343 0.77944 0.0
C662 C 0.36802 0.39527 0.73843 0.0
C663 C 0.35815 0.3312 0.74595 0.0
C664 C 0.38045 0.42434 0.71809 0.0
C665 C 0.39805 0.42095 0.68565 0.0
C666 C 0.37325 0.3625 0.7263 0.0
C667 C 0.40318 0.38777 0.67469 0.0
C668 C 0.3646 0.29822 0.73534 0.0
C669 C 0.31851 0.30682 0.79034 0.0
N670 N 0.39075 0.3598 0.69494 0.0
N671 N 0.33571 0.33434 0.77338 0.0
H672 H 1.00129 0.84285 0.92037 0.0
H673 H 0.96511 0.65605 1.0211 0.0
H674 H 0.89917 0.79574 0.94157 0.0
H675 H 0.06667 0.70099 0.99433 0.0
H676 H 0.94074 0.70719 0.99435 0.0
H677 H 1.02527 0.7923 0.94859 0.0
C678 C 0.98366 0.822 0.93069 0.0
C679 C 0.94772 0.82432 0.92796 0.0
C680 C 0.96839 0.70601 0.99434 0.0
C681 C 0.9758 0.76529 0.9615 0.0
C682 C 0.98247 0.67658 1.00984 0.0
C683 C 1.01829 0.67357 1.01041 0.0
C684 C 0.99004 0.73331 0.97897 0.0
C685 C 0.03899 0.70163 0.99487 0.0
C686 C 0.99759 0.79296 0.94716 0.0
C687 C 0.92689 0.79604 0.94304 0.0
N688 N 1.0247 0.72994 0.97998 0.0
N689 N 0.94111 0.76807 0.95886 0.0
H690 H 0.41597 0.68543 0.26936 0.0
H691 H 0.46773 0.84181 0.13094 0.0
H692 H 0.38493 0.68642 0.15691 0.0
H693 H 0.51702 0.82789 0.23493 0.0
H694 H 0.4369 0.78523 0.1397 0.0
H695 H 0.45288 0.73783 0.25722 0.0
C696 C 0.41721 0.69639 0.24198 0.0
C697 C 0.39719 0.68144 0.21413 0.0
C698 C 0.45463 0.79449 0.16048 0.0
C699 C 0.43895 0.74203 0.20024 0.0
C700 C 0.47239 0.82674 0.15544 0.0
C701 C 0.49488 0.83979 0.18236 0.0
C702 C 0.45917 0.77523 0.19278 0.0
C703 C 0.49944 0.81923 0.21377 0.0
C704 C 0.43818 0.72647 0.23512 0.0
C705 C 0.39942 0.69731 0.17936 0.0
N706 N 0.48158 0.7881 0.2182 0.0
N707 N 0.41975 0.72688 0.17345 0.0
H708 H 0.22042 0.13424 0.79056 0.0
H709 H 0.19048 0.09579 0.58425 0.0
H710 H 0.24685 0.21207 0.70673 0.0
H711 H 0.11123 0.06577 0.66267 0.0
H712 H 0.22205 0.12949 0.63053 0.0
H713 H 0.1894 0.09956 0.74513 0.0
C714 C 0.21984 0.14415 0.76281 0.0
C715 C 0.23676 0.1762 0.7527 0.0
C716 C 0.19777 0.11539 0.63745 0.0
C717 C 0.20235 0.13598 0.70064 0.0
C718 C 0.1799 0.09621 0.61124 0.0
C719 C 0.14828 0.07829 0.61978 0.0
C720 C 0.18429 0.11568 0.67254 0.0
C721 C 0.13548 0.07954 0.65506 0.0
C722 C 0.2023 0.1242 0.73696 0.0
C723 C 0.23537 0.1872 0.71598 0.0
N724 N 0.15371 0.09771 0.68035 0.0
N725 N 0.21877 0.167 0.69129 0.0
H726 H 0.67221 0.36556 0.49005 0.0
H727 H 0.5479 0.51681 0.50899 0.0
H728 H 0.57616 0.37324 0.43304 0.0
H729 H 0.63985 0.50984 0.57367 0.0
H730 H 0.56351 0.46884 0.47451 0.0
H731 H 0.66648 0.42253 0.51454 0.0
C732 C 0.65031 0.37956 0.4822 0.0
C733 C 0.6244 0.36469 0.45988 0.0
C734 C 0.58051 0.4778 0.49606 0.0
C735 C 0.61757 0.42932 0.48768 0.0
C736 C 0.57154 0.50523 0.51586 0.0
C737 C 0.59233 0.51699 0.54465 0.0
C738 C 0.61036 0.46152 0.50524 0.0
C739 C 0.623 0.50139 0.5518 0.0
C740 C 0.64693 0.41189 0.49629 0.0
C741 C 0.59645 0.38367 0.45056 0.0
N742 N 0.6309 0.47408 0.53253 0.0
N743 N 0.59368 0.41479 0.46467 0.0
loop_
_geom_bond_atom_site_label_1
_geom_bond_atom_site_label_2
_geom_bond_distance
_geom_bond_site_symmetry_2
_ccdc_geom_bond_type
H0 C1 0.949 . S
C1 H0 0.949 . S
C1 C2 1.395 . S
C1 C3 1.391 . S
C2 C1 1.395 . S
C2 C5 1.390 . S
C3 C1 1.391 . S
C3 C7 1.387 . S
C3 C8 1.491 . S
H4 C5 0.950 . S
C5 C2 1.390 . S
C5 H4 0.950 . S
C5 C6 1.378 . S
C6 C5 1.378 . S
C6 C7 1.409 . S
C7 C3 1.387 . S
C7 C6 1.409 . S
C7 H9 0.951 . S
C8 C3 1.491 . S
C8 C10 1.382 . S
C8 C12 1.404 . S
H9 C7 0.951 . S
C10 C8 1.382 . S
C10 C11 1.390 . S
C10 H15 0.949 . S
C11 C10 1.390 . S
C11 C16 1.399 . S
C12 C8 1.404 . S
C12 H13 0.950 . S
C12 C14 1.375 . S
H13 C12 0.950 . S
C14 C12 1.375 . S
C14 C16 1.382 . S
C14 H18 0.950 . S
H15 C10 0.949 . S
C16 C11 1.399 . S
C16 C14 1.382 . S
C16 H17 0.952 . S
H17 C16 0.952 . S
H18 C14 0.950 . S
H19 C20 0.949 . S
C20 H19 0.949 . S
C20 C21 1.395 . S
C20 C22 1.391 . S
C21 C20 1.395 . S
C21 C24 1.390 . S
C22 C20 1.391 . S
C22 C26 1.387 . S
C22 C27 1.491 . S
H23 C24 0.950 . S
C24 C21 1.390 . S
C24 H23 0.950 . S
C24 C25 1.378 . S
C25 C24 1.378 . S
C25 C26 1.409 . S
C26 C22 1.387 . S
C26 C25 1.409 . S
C26 H28 0.951 . S
C27 C22 1.491 . S
C27 C29 1.382 . S
C27 C31 1.404 . S
H28 C26 0.951 . S
C29 C27 1.382 . S
C29 C30 1.390 . S
C29 H34 0.949 . S
C30 C29 1.390 . S
C30 C35 1.399 . S
C31 C27 1.404 . S
C31 H32 0.950 . S
C31 C33 1.375 . S
H32 C31 0.950 . S
C33 C31 1.375 . S
C33 C35 1.382 . S
C33 H37 0.950 . S
H34 C29 0.949 . S
C35 C30 1.399 . S
C35 C33 1.382 . S
C35 H36 0.952 . S
H36 C35 0.952 . S
H37 C33 0.950 . S
H38 C39 0.949 . S
C39 H38 0.949 . S
C39 C40 1.395 . S
C39 C41 1.391 . S
C40 C39 1.395 . S
C40 C43 1.390 . S
C41 C39 1.391 . S
C41 C45 1.387 . S
C41 C46 1.491 . S
H42 C43 0.950 . S
C43 C40 1.390 . S
C43 H42 0.950 . S
C43 C44 1.378 . S
C44 C43 1.378 . S
C44 C45 1.409 . S
C45 C41 1.387 . S
C45 C44 1.409 . S
C45 H47 0.951 . S
C46 C41 1.491 . S
C46 C48 1.382 . S
C46 C50 1.404 . S
H47 C45 0.951 . S
C48 C46 1.382 . S
C48 C49 1.390 . S
C48 H53 0.949 . S
C49 C48 1.390 . S
C49 C54 1.399 . S
C50 C46 1.404 . S
C50 H51 0.950 . S
C50 C52 1.375 . S
H51 C50 0.950 . S
C52 C50 1.375 . S
C52 C54 1.382 . S
C52 H56 0.950 . S
H53 C48 0.949 . S
C54 C49 1.399 . S
C54 C52 1.382 . S
C54 H55 0.952 . S
H55 C54 0.952 . S
H56 C52 0.950 . S
H57 C58 0.949 . S
C58 H57 0.949 . S
C58 C59 1.395 . S
C58 C60 1.391 . S
C59 C58 1.395 . S
C59 C62 1.390 . S
C60 C58 1.391 . S
C60 C64 1.387 . S
C60 C65 1.491 . S
H61 C62 0.950 . S
C62 C59 1.390 . S
C62 H61 0.950 . S
C62 C63 1.378 . S
C63 C62 1.378 . S
C63 C64 1.409 . S
C64 C60 1.387 . S
C64 C63 1.409 . S
C64 H66 0.951 . S
C65 C60 1.491 . S
C65 C67 1.382 . S
C65 C69 1.404 . S
H66 C64 0.951 . S
C67 C65 1.382 . S
C67 C68 1.390 . S
C67 H72 0.949 . S
C68 C67 1.390 . S
C68 C73 1.399 . S
C69 C65 1.404 . S
C69 H70 0.950 . S
C69 C71 1.375 . S
H70 C69 0.950 . S
C71 C69 1.375 . S
C71 C73 1.382 . S
C71 H75 0.950 . S
H72 C67 0.949 . S
C73 C68 1.399 . S
C73 C71 1.382 . S
C73 H74 0.952 . S
H74 C73 0.952 . S
H75 C71 0.950 . S
H76 C77 0.949 . S
C77 H76 0.949 . S
C77 C78 1.395 . S
C77 C79 1.391 . S
C78 C77 1.395 . S
C78 C81 1.390 . S
C79 C77 1.391 . S
C79 C83 1.387 . S
C79 C84 1.491 . S
H80 C81 0.950 . S
C81 C78 1.390 . S
C81 H80 0.950 . S
C81 C82 1.378 . S
C82 C81 1.378 . S
C82 C83 1.409 . S
C83 C79 1.387 . S
C83 C82 1.409 . S
C83 H85 0.951 . S
C84 C79 1.491 . S
C84 C86 1.382 . S
C84 C88 1.404 . S
H85 C83 0.951 . S
C86 C84 1.382 . S
C86 C87 1.390 . S
C86 H91 0.949 . S
C87 C86 1.390 . S
C87 C92 1.399 . S
C88 C84 1.404 . S
C88 H89 0.950 . S
C88 C90 1.375 . S
H89 C88 0.950 . S
C90 C88 1.375 . S
C90 C92 1.382 . S
C90 H94 0.950 . S
H91 C86 0.949 . S
C92 C87 1.399 . S
C92 C90 1.382 . S
C92 H93 0.952 . S
H93 C92 0.952 . S
H94 C90 0.950 . S
H95 C96 0.949 . S
C96 H95 0.949 . S
C96 C97 1.395 . S
C96 C98 1.391 . S
C97 C96 1.395 . S
C97 C100 1.390 . S
C98 C96 1.391 . S
C98 C102 1.387 . S
C98 C103 1.491 . S
H99 C100 0.950 . S
C100 C97 1.390 . S
C100 H99 0.950 . S
C100 C101 1.378 . S
C101 C100 1.378 . S
C101 C102 1.409 . S
C102 C98 1.387 . S
C102 C101 1.409 . S
C102 H104 0.951 . S
C103 C98 1.491 . S
C103 C105 1.382 . S
C103 C107 1.404 . S
H104 C102 0.951 . S
C105 C103 1.382 . S
C105 C106 1.390 . S
C105 H110 0.949 . S
C106 C105 1.390 . S
C106 C111 1.399 . S
C107 C103 1.404 . S
C107 H108 0.950 . S
C107 C109 1.375 . S
H108 C107 0.950 . S
C109 C107 1.375 . S
C109 C111 1.382 . S
C109 H113 0.950 . S
H110 C105 0.949 . S
C111 C106 1.399 . S
C111 C109 1.382 . S
C111 H112 0.952 . S
H112 C111 0.952 . S
H113 C109 0.950 . S
H114 C115 0.949 . S
C115 H114 0.949 . S
C115 C116 1.395 . S
C115 C117 1.391 . S
C116 C115 1.395 . S
C116 C119 1.390 . S
C117 C115 1.391 . S
C117 C121 1.387 . S
C117 C122 1.491 . S
H118 C119 0.950 . S
C119 C116 1.390 . S
C119 H118 0.950 . S
C119 C120 1.378 . S
C120 C119 1.378 . S
C120 C121 1.409 . S
C121 C117 1.387 . S
C121 C120 1.409 . S
C121 H123 0.951 . S
C122 C117 1.491 . S
C122 C124 1.382 . S
C122 C126 1.404 . S
H123 C121 0.951 . S
C124 C122 1.382 . S
C124 C125 1.390 . S
C124 H129 0.949 . S
C125 C124 1.390 . S
C125 C130 1.399 . S
C126 C122 1.404 . S
C126 H127 0.950 . S
C126 C128 1.375 . S
H127 C126 0.950 . S
C128 C126 1.375 . S
C128 C130 1.382 . S
C128 H132 0.950 . S
H129 C124 0.949 . S
C130 C125 1.399 . S
C130 C128 1.382 . S
C130 H131 0.952 . S
H131 C130 0.952 . S
H132 C128 0.950 . S
H133 C134 0.949 . S
C134 H133 0.949 . S
C134 C135 1.395 . S
C134 C136 1.391 . S
C135 C134 1.395 . S
C135 C138 1.390 . S
C136 C134 1.391 . S
C136 C140 1.387 . S
C136 C141 1.491 . S
H137 C138 0.950 . S
C138 C135 1.390 . S
C138 H137 0.950 . S
C138 C139 1.378 . S
C139 C138 1.378 . S
C139 C140 1.409 . S
C140 C136 1.387 . S
C140 C139 1.409 . S
C140 H142 0.951 . S
C141 C136 1.491 . S
C141 C143 1.382 . S
C141 C145 1.404 . S
H142 C140 0.951 . S
C143 C141 1.382 . S
C143 C144 1.390 . S
C143 H148 0.949 . S
C144 C143 1.390 . S
C144 C149 1.399 . S
C145 C141 1.404 . S
C145 H146 0.950 . S
C145 C147 1.375 . S
H146 C145 0.950 . S
C147 C145 1.375 . S
C147 C149 1.382 . S
C147 H151 0.950 . S
H148 C143 0.949 . S
C149 C144 1.399 . S
C149 C147 1.382 . S
C149 H150 0.952 . S
H150 C149 0.952 . S
H151 C147 0.950 . S
Nd152 C154 2.836 1_545 S
Nd152 O172 2.500 1_545 S
Nd152 O173 2.492 1_545 S
Nd152 O174 2.487 . S
Nd152 O175 2.682 . S
Nd152 O176 2.410 1_545 S
Nd152 O181 2.414 1_445 S
Nd152 O183 2.424 . S
Nd153 C163 2.836 . S
Nd153 O175 2.414 1_655 S
Nd153 O177 2.437 . S
Nd153 O178 2.500 . S
Nd153 O179 2.492 . S
Nd153 O180 2.487 1_545 S
Nd153 O181 2.682 1_545 S
Nd153 O182 2.410 . S
C154 Nd152 2.836 1_565 S
C154 C155 1.498 . S
C154 O172 1.258 . S
C154 O173 1.239 . S
C155 C154 1.498 . S
C155 C156 1.366 . S
C155 C160 1.407 . S
C156 C155 1.366 . S
C156 C157 1.392 . S
C156 H184 0.930 . S
C157 C156 1.392 . S
C157 C158 1.398 . S
C157 H185 0.929 . S
C158 C157 1.398 . S
C158 C159 1.352 . S
C159 C158 1.352 . S
C159 C160 1.384 . S
C159 H186 0.930 . S
C160 C155 1.407 . S
C160 C159 1.384 . S
C160 H187 0.929 . S
C161 O174 1.241 . S
C161 O175 1.273 . S
C162 O176 1.251 1_655 S
C162 O177 1.255 1_565 S
C163 Nd153 2.836 . S
C163 C164 1.498 . S
C163 O178 1.258 . S
C163 O179 1.239 . S
C164 C163 1.498 . S
C164 C165 1.366 . S
C164 C169 1.407 . S
C165 C164 1.366 . S
C165 C166 1.392 . S
C165 H188 0.930 . S
C166 C165 1.392 . S
C166 C167 1.398 . S
C166 H189 0.929 . S
C167 C166 1.398 . S
C167 C168 1.352 . S
C168 C167 1.352 . S
C168 C169 1.384 . S
C168 H190 0.930 . S
C169 C164 1.407 . S
C169 C168 1.384 . S
C169 H191 0.929 . S
C170 O180 1.241 . S
C170 O181 1.273 . S
C171 O182 1.251 1_455 S
C171 O183 1.268 . S
O172 Nd152 2.500 1_565 S
O172 C154 1.258 . S
O173 Nd152 2.492 1_565 S
O173 C154 1.239 . S
O174 Nd152 2.487 . S
O174 C161 1.241 . S
O175 Nd152 2.682 . S
O175 Nd153 2.414 1_455 S
O175 C161 1.273 . S
O176 Nd152 2.410 1_565 S
O176 C162 1.251 1_455 S
O177 Nd153 2.437 . S
O177 C162 1.255 1_545 S
O178 Nd153 2.500 . S
O178 C163 1.258 . S
O179 Nd153 2.492 . S
O179 C163 1.239 . S
O180 Nd153 2.487 1_565 S
O180 C170 1.241 . S
O181 Nd152 2.414 1_665 S
O181 Nd153 2.682 1_565 S
O181 C170 1.273 . S
O182 Nd153 2.410 . S
O182 C171 1.251 1_655 S
O183 Nd152 2.424 . S
O183 C171 1.268 . S
H184 C156 0.930 . S
H185 C157 0.929 . S
H186 C159 0.930 . S
H187 C160 0.929 . S
H188 C165 0.930 . S
H189 C166 0.929 . S
H190 C168 0.930 . S
H191 C169 0.929 . S
Nd192 C194 2.849 . S
Nd192 O212 2.515 . S
Nd192 O213 2.501 . S
Nd192 O214 2.478 1_565 S
Nd192 O215 2.670 1_565 S
Nd192 O216 2.413 . S
Nd192 O221 2.415 1_565 S
Nd192 O223 2.413 1_565 S
Nd193 C203 2.836 . S
Nd193 O215 2.414 . S
Nd193 O217 2.400 1_545 S
Nd193 O218 2.500 . S
Nd193 O219 2.492 . S
Nd193 O220 2.487 . S
Nd193 O221 2.682 . S
Nd193 O222 2.410 . S
C194 Nd192 2.849 . S
C194 C195 1.498 . S
C194 O212 1.258 . S
C194 O213 1.239 . S
C195 C194 1.498 . S
C195 C196 1.366 . S
C195 C200 1.407 . S
C196 C195 1.366 . S
C196 C197 1.392 . S
C196 H224 0.930 . S
C197 C196 1.392 . S
C197 C198 1.398 . S
C197 H225 0.929 . S
C198 C197 1.398 . S
C198 C199 1.352 . S
C199 C198 1.352 . S
C199 C200 1.384 . S
C199 H226 0.930 . S
C200 C195 1.407 . S
C200 C199 1.384 . S
C200 H227 0.929 . S
C201 O214 1.241 . S
C201 O215 1.273 . S
C202 O216 1.251 . S
C202 O217 1.290 . S
C203 Nd193 2.836 . S
C203 C204 1.498 . S
C203 O218 1.258 . S
C203 O219 1.239 . S
C204 C203 1.498 . S
C204 C205 1.366 . S
C204 C209 1.407 1_554 S
C205 C204 1.366 . S
C205 C206 1.392 . S
C205 H228 0.930 . S
C206 C205 1.392 . S
C206 C207 1.398 . S
C206 H229 0.929 . S
C207 C206 1.398 . S
C207 C208 1.352 1_554 S
C208 C207 1.352 1_556 S
C208 C209 1.384 . S
C208 H230 0.930 . S
C209 C204 1.407 1_556 S
C209 C208 1.384 . S
C209 H231 0.929 . S
C210 O220 1.241 . S
C210 O221 1.273 . S
C211 O222 1.251 . S
C211 O223 1.268 . S
O212 Nd192 2.515 . S
O212 C194 1.258 . S
O213 Nd192 2.501 . S
O213 C194 1.239 . S
O214 Nd192 2.478 1_545 S
O214 C201 1.241 . S
O215 Nd192 2.670 1_545 S
O215 Nd193 2.414 . S
O215 C201 1.273 . S
O216 Nd192 2.413 . S
O216 C202 1.251 . S
O217 Nd193 2.400 1_565 S
O217 C202 1.290 . S
O218 Nd193 2.500 . S
O218 C203 1.258 . S
O219 Nd193 2.492 . S
O219 C203 1.239 . S
O220 Nd193 2.487 . S
O220 C210 1.241 . S
O221 Nd192 2.415 1_545 S
O221 Nd193 2.682 . S
O221 C210 1.273 . S
O222 Nd193 2.410 . S
O222 C211 1.251 . S
O223 Nd192 2.413 1_545 S
O223 C211 1.268 . S
H224 C196 0.930 . S
H225 C197 0.929 . S
H226 C199 0.930 . S
H227 C200 0.929 . S
H228 C205 0.930 . S
H229 C206 0.929 . S
H230 C208 0.930 . S
H231 C209 0.929 . S
Nd232 C234 2.836 . S
Nd232 O252 2.500 . S
Nd232 O253 2.492 . S
Nd232 O254 2.487 . S
Nd232 O255 2.682 . S
Nd232 O256 2.410 . S
Nd232 O261 2.414 . S
Nd232 O263 2.424 . S
Nd233 C243 2.836 . S
Nd233 O255 2.414 . S
Nd233 O257 2.424 . S
Nd233 O258 2.500 . S
Nd233 O259 2.492 . S
Nd233 O260 2.487 . S
Nd233 O261 2.682 . S
Nd233 O262 2.410 . S
C234 Nd232 2.836 . S
C234 C235 1.498 . S
C234 O252 1.258 . S
C234 O253 1.239 . S
C235 C234 1.498 . S
C235 C236 1.366 . S
C235 C240 1.407 . S
C236 C235 1.366 . S
C236 C237 1.392 . S
C236 H264 0.930 . S
C237 C236 1.392 . S
C237 C238 1.398 . S
C237 H265 0.929 . S
C238 C237 1.398 . S
C238 C239 1.352 . S
C239 C238 1.352 . S
C239 C240 1.384 . S
C239 H266 0.930 . S
C240 C235 1.407 . S
C240 C239 1.384 . S
C240 H267 0.929 . S
C241 O254 1.241 . S
C241 O255 1.273 . S
C242 O256 1.251 . S
C242 O257 1.268 . S
C243 Nd233 2.836 . S
C243 C244 1.498 . S
C243 O258 1.258 . S
C243 O259 1.239 . S
C244 C243 1.498 . S
C244 C245 1.366 . S
C244 C249 1.407 . S
C245 C244 1.366 . S
C245 C246 1.392 . S
C245 H268 0.930 . S
C246 C245 1.392 . S
C246 C247 1.398 . S
C246 H269 0.929 . S
C247 C246 1.398 . S
C247 C248 1.352 . S
C248 C247 1.352 . S
C248 C249 1.384 . S
C248 H270 0.930 . S
C249 C244 1.407 . S
C249 C248 1.384 . S
C249 H271 0.929 . S
C250 O260 1.241 . S
C250 O261 1.273 . S
C251 O262 1.251 . S
C251 O263 1.268 . S
O252 Nd232 2.500 . S
O252 C234 1.258 . S
O253 Nd232 2.492 . S
O253 C234 1.239 . S
O254 Nd232 2.487 . S
O254 C241 1.241 . S
O255 Nd232 2.682 . S
O255 Nd233 2.414 . S
O255 C241 1.273 . S
O256 Nd232 2.410 . S
O256 C242 1.251 . S
O257 Nd233 2.424 . S
O257 C242 1.268 . S
O258 Nd233 2.500 . S
O258 C243 1.258 . S
O259 Nd233 2.492 . S
O259 C243 1.239 . S
O260 Nd233 2.487 . S
O260 C250 1.241 . S
O261 Nd232 2.414 . S
O261 Nd233 2.682 . S
O261 C250 1.273 . S
O262 Nd233 2.410 . S
O262 C251 1.251 . S
O263 Nd232 2.424 . S
O263 C251 1.268 . S
H264 C236 0.930 . S
H265 C237 0.929 . S
H266 C239 0.930 . S
H267 C240 0.929 . S
H268 C245 0.930 . S
H269 C246 0.929 . S
H270 C248 0.930 . S
H271 C249 0.929 . S
Nd272 C274 2.836 1_455 S
Nd272 O292 2.500 1_455 S
Nd272 O293 2.492 . S
Nd272 O294 2.487 . S
Nd272 O295 2.682 . S
Nd272 O296 2.410 . S
Nd272 O301 2.410 1_454 S
Nd272 O303 2.424 . S
Nd273 C283 2.836 . S
Nd273 O295 2.414 1_556 S
Nd273 O297 2.424 . S
Nd273 O298 2.500 . S
Nd273 O299 2.492 . S
Nd273 O300 2.487 1_455 S
Nd273 O301 2.685 1_455 S
Nd273 O302 2.410 . S
C274 Nd272 2.836 1_655 S
C274 C275 1.498 . S
C274 O292 1.258 . S
C274 O293 1.239 1_655 S
C275 C274 1.498 . S
C275 C276 1.366 . S
C275 C280 1.407 . S
C276 C275 1.366 . S
C276 C277 1.392 . S
C276 H304 0.930 . S
C277 C276 1.392 . S
C277 C278 1.398 . S
C277 H305 0.929 . S
C278 C277 1.398 . S
C278 C279 1.352 . S
C279 C278 1.352 . S
C279 C280 1.384 . S
C279 H306 0.930 . S
C280 C275 1.407 . S
C280 C279 1.384 . S
C280 H307 0.929 1_655 S
C281 O294 1.241 . S
C281 O295 1.273 . S
C282 O296 1.250 1_556 S
C282 O297 1.269 . S
C283 Nd273 2.836 . S
C283 C284 1.498 . S
C283 O298 1.258 . S
C283 O299 1.239 . S
C284 C283 1.498 . S
C284 C285 1.366 . S
C284 C289 1.407 . S
C285 C284 1.366 . S
C285 C286 1.392 . S
C285 H308 0.930 . S
C286 C285 1.392 . S
C286 C287 1.398 . S
C286 H309 0.929 . S
C287 C286 1.398 . S
C287 C288 1.352 . S
C288 C287 1.352 . S
C288 C289 1.384 . S
C288 H310 0.930 . S
C289 C284 1.407 . S
C289 C288 1.384 . S
C289 H311 0.929 . S
C290 O300 1.241 . S
C290 O301 1.276 . S
C291 O302 1.251 1_554 S
C291 O303 1.268 . S
O292 Nd272 2.500 1_655 S
O292 C274 1.258 . S
O293 Nd272 2.492 . S
O293 C274 1.239 1_455 S
O294 Nd272 2.487 . S
O294 C281 1.241 . S
O295 Nd272 2.682 . S
O295 Nd273 2.414 1_554 S
O295 C281 1.273 . S
O296 Nd272 2.410 . S
O296 C282 1.250 1_554 S
O297 Nd273 2.424 . S
O297 C282 1.269 . S
O298 Nd273 2.500 . S
O298 C283 1.258 . S
O299 Nd273 2.492 . S
O299 C283 1.239 . S
O300 Nd273 2.487 1_655 S
O300 C290 1.241 . S
O301 Nd272 2.410 1_656 S
O301 Nd273 2.685 1_655 S
O301 C290 1.276 . S
O302 Nd273 2.410 . S
O302 C291 1.251 1_556 S
O303 Nd272 2.424 . S
O303 C291 1.268 . S
H304 C276 0.930 . S
H305 C277 0.929 . S
H306 C279 0.930 . S
H307 C280 0.929 1_455 S
H308 C285 0.930 . S
H309 C286 0.929 . S
H310 C288 0.930 . S
H311 C289 0.929 . S
H312 C318 0.930 . S
H313 C322 0.930 . S
H314 C327 0.929 . S
H315 C325 0.929 . S
H316 C320 0.929 . S
H317 C326 0.929 . S
C318 H312 0.930 . S
C318 C319 1.367 . S
C318 C326 1.378 . S
C319 C318 1.367 . S
C319 C327 1.433 . S
C320 H316 0.929 . S
C320 C322 1.378 . S
C320 C324 1.350 . S
C321 C324 1.463 . S
C321 C326 1.350 . S
C321 N329 1.427 . S
C322 H313 0.930 . S
C322 C320 1.378 . S
C322 C323 1.367 . S
C323 C322 1.367 . S
C323 C325 1.433 . S
C324 C320 1.350 . S
C324 C321 1.463 . S
C324 N328 1.427 . S
C325 H315 0.929 . S
C325 C323 1.433 . S
C325 N328 1.384 . S
C326 H317 0.929 . S
C326 C318 1.378 . S
C326 C321 1.350 . S
C327 H314 0.929 . S
C327 C319 1.433 . S
C327 N329 1.384 . S
N328 C324 1.427 . S
N328 C325 1.384 . S
N329 C321 1.427 . S
N329 C327 1.384 . S
H330 C336 0.930 . S
H331 C340 0.930 1_554 S
H332 C345 0.929 . S
H333 C343 0.929 . S
H334 C338 0.929 . S
H335 C344 0.929 . S
C336 H330 0.930 . S
C336 C337 1.367 . S
C336 C344 1.378 . S
C337 C336 1.367 . S
C337 C345 1.433 . S
C338 H334 0.929 . S
C338 C340 1.378 . S
C338 C342 1.350 . S
C339 C342 1.463 . S
C339 C344 1.350 . S
C339 N347 1.427 . S
C340 H331 0.930 1_556 S
C340 C338 1.378 . S
C340 C341 1.367 . S
C341 C340 1.367 . S
C341 C343 1.433 . S
C342 C338 1.350 . S
C342 C339 1.463 . S
C342 N346 1.427 . S
C343 H333 0.929 . S
C343 C341 1.433 . S
C343 N346 1.384 . S
C344 H335 0.929 . S
C344 C336 1.378 . S
C344 C339 1.350 . S
C345 H332 0.929 . S
C345 C337 1.433 . S
C345 N347 1.384 . S
N346 C342 1.427 . S
N346 C343 1.384 . S
N347 C339 1.427 . S
N347 C345 1.384 . S
H348 C354 0.930 . S
H349 C358 0.930 . S
H350 C363 0.929 . S
H351 C361 0.929 . S
H352 C356 0.929 . S
H353 C362 0.929 . S
C354 H348 0.930 . S
C354 C355 1.367 . S
C354 C362 1.378 . S
C355 C354 1.367 . S
C355 C363 1.433 . S
C356 H352 0.929 . S
C356 C358 1.378 . S
C356 C360 1.350 . S
C357 C360 1.463 . S
C357 C362 1.350 . S
C357 N365 1.427 . S
C358 H349 0.930 . S
C358 C356 1.378 . S
C358 C359 1.367 . S
C359 C358 1.367 . S
C359 C361 1.433 . S
C360 C356 1.350 . S
C360 C357 1.463 . S
C360 N364 1.427 . S
C361 H351 0.929 . S
C361 C359 1.433 . S
C361 N364 1.384 . S
C362 H353 0.929 . S
C362 C354 1.378 . S
C362 C357 1.350 . S
C363 H350 0.929 . S
C363 C355 1.433 . S
C363 N365 1.384 . S
N364 C360 1.427 . S
N364 C361 1.384 . S
N365 C357 1.427 . S
N365 C363 1.384 . S
H366 C372 0.930 . S
H367 C376 0.930 . S
H368 C381 0.929 . S
H369 C379 0.929 . S
H370 C374 0.929 . S
H371 C380 0.929 . S
C372 H366 0.930 . S
C372 C373 1.367 . S
C372 C380 1.378 . S
C373 C372 1.367 . S
C373 C381 1.433 . S
C374 H370 0.929 . S
C374 C376 1.378 . S
C374 C378 1.350 . S
C375 C378 1.463 . S
C375 C380 1.350 . S
C375 N383 1.427 . S
C376 H367 0.930 . S
C376 C374 1.378 . S
C376 C377 1.367 . S
C377 C376 1.367 . S
C377 C379 1.433 . S
C378 C374 1.350 . S
C378 C375 1.463 . S
C378 N382 1.427 . S
C379 H369 0.929 . S
C379 C377 1.433 . S
C379 N382 1.384 . S
C380 H371 0.929 . S
C380 C372 1.378 . S
C380 C375 1.350 . S
C381 H368 0.929 . S
C381 C373 1.433 . S
C381 N383 1.384 . S
N382 C378 1.427 . S
N382 C379 1.384 . S
N383 C375 1.427 . S
N383 C381 1.384 . S
H384 C390 0.930 . S
H385 C394 0.930 . S
H386 C399 0.929 . S
H387 C397 0.929 . S
H388 C392 0.929 . S
H389 C398 0.929 . S
C390 H384 0.930 . S
C390 C391 1.367 . S
C390 C398 1.378 . S
C391 C390 1.367 . S
C391 C399 1.433 . S
C392 H388 0.929 . S
C392 C394 1.378 . S
C392 C396 1.350 . S
C393 C396 1.463 . S
C393 C398 1.350 . S
C393 N401 1.427 . S
C394 H385 0.930 . S
C394 C392 1.378 . S
C394 C395 1.367 . S
C395 C394 1.367 . S
C395 C397 1.433 . S
C396 C392 1.350 . S
C396 C393 1.463 . S
C396 N400 1.427 . S
C397 H387 0.929 . S
C397 C395 1.433 . S
C397 N400 1.384 . S
C398 H389 0.929 . S
C398 C390 1.378 . S
C398 C393 1.350 . S
C399 H386 0.929 . S
C399 C391 1.433 . S
C399 N401 1.384 . S
N400 C396 1.427 . S
N400 C397 1.384 . S
N401 C393 1.427 . S
N401 C399 1.384 . S
H402 C408 0.930 . S
H403 C412 0.930 . S
H404 C417 0.929 . S
H405 C415 0.929 . S
H406 C410 0.929 . S
H407 C416 0.929 . S
C408 H402 0.930 . S
C408 C409 1.367 . S
C408 C416 1.378 . S
C409 C408 1.367 . S
C409 C417 1.433 . S
C410 H406 0.929 . S
C410 C412 1.378 . S
C410 C414 1.350 . S
C411 C414 1.463 . S
C411 C416 1.350 . S
C411 N419 1.427 . S
C412 H403 0.930 . S
C412 C410 1.378 . S
C412 C413 1.367 . S
C413 C412 1.367 . S
C413 C415 1.433 . S
C414 C410 1.350 . S
C414 C411 1.463 . S
C414 N418 1.427 . S
C415 H405 0.929 . S
C415 C413 1.433 . S
C415 N418 1.384 . S
C416 H407 0.929 . S
C416 C408 1.378 . S
C416 C411 1.350 . S
C417 H404 0.929 . S
C417 C409 1.433 . S
C417 N419 1.384 . S
N418 C414 1.427 . S
N418 C415 1.384 . S
N419 C411 1.427 . S
N419 C417 1.384 . S
H420 C426 0.930 . S
H421 C430 0.930 . S
H422 C435 0.929 . S
H423 C433 0.929 . S
H424 C428 0.929 . S
H425 C434 0.929 . S
C426 H420 0.930 . S
C426 C427 1.367 . S
C426 C434 1.378 . S
C427 C426 1.367 . S
C427 C435 1.433 . S
C428 H424 0.929 . S
C428 C430 1.378 . S
C428 C432 1.350 . S
C429 C432 1.463 . S
C429 C434 1.350 . S
C429 N437 1.427 . S
C430 H421 0.930 . S
C430 C428 1.378 . S
C430 C431 1.367 . S
C431 C430 1.367 . S
C431 C433 1.433 . S
C432 C428 1.350 . S
C432 C429 1.463 . S
C432 N436 1.427 . S
C433 H423 0.929 . S
C433 C431 1.433 . S
C433 N436 1.384 . S
C434 H425 0.929 . S
C434 C426 1.378 . S
C434 C429 1.350 . S
C435 H422 0.929 . S
C435 C427 1.433 . S
C435 N437 1.384 . S
N436 C432 1.427 . S
N436 C433 1.384 . S
N437 C429 1.427 . S
N437 C435 1.384 . S
H438 C444 0.930 . S
H439 C448 0.930 . S
H440 C453 0.929 . S
H441 C451 0.929 . S
H442 C446 0.929 . S
H443 C452 0.929 . S
C444 H438 0.930 . S
C444 C445 1.367 . S
C444 C452 1.378 . S
C445 C444 1.367 . S
C445 C453 1.433 . S
C446 H442 0.929 . S
C446 C448 1.378 . S
C446 C450 1.350 . S
C447 C450 1.463 . S
C447 C452 1.350 . S
C447 N455 1.427 . S
C448 H439 0.930 . S
C448 C446 1.378 . S
C448 C449 1.367 . S
C449 C448 1.367 . S
C449 C451 1.433 . S
C450 C446 1.350 . S
C450 C447 1.463 . S
C450 N454 1.427 . S
C451 H441 0.929 . S
C451 C449 1.433 . S
C451 N454 1.384 . S
C452 H443 0.929 . S
C452 C444 1.378 . S
C452 C447 1.350 . S
C453 H440 0.929 . S
C453 C445 1.433 . S
C453 N455 1.384 . S
N454 C450 1.427 . S
N454 C451 1.384 . S
N455 C447 1.427 . S
N455 C453 1.384 . S
H456 C462 0.930 . S
H457 C466 0.930 . S
H458 C471 0.929 . S
H459 C469 0.929 . S
H460 C464 0.929 . S
H461 C470 0.929 . S
C462 H456 0.930 . S
C462 C463 1.367 . S
C462 C470 1.378 . S
C463 C462 1.367 . S
C463 C471 1.433 . S
C464 H460 0.929 . S
C464 C466 1.378 . S
C464 C468 1.350 . S
C465 C468 1.463 . S
C465 C470 1.350 . S
C465 N473 1.427 . S
C466 H457 0.930 . S
C466 C464 1.378 . S
C466 C467 1.367 . S
C467 C466 1.367 . S
C467 C469 1.433 . S
C468 C464 1.350 . S
C468 C465 1.463 . S
C468 N472 1.427 . S
C469 H459 0.929 . S
C469 C467 1.433 . S
C469 N472 1.384 . S
C470 H461 0.929 . S
C470 C462 1.378 . S
C470 C465 1.350 . S
C471 H458 0.929 . S
C471 C463 1.433 . S
C471 N473 1.384 . S
N472 C468 1.427 . S
N472 C469 1.384 . S
N473 C465 1.427 . S
N473 C471 1.384 . S
H474 C480 0.930 . S
H475 C484 0.930 . S
H476 C489 0.929 . S
H477 C487 0.929 . S
H478 C482 0.929 . S
H479 C488 0.929 . S
C480 H474 0.930 . S
C480 C481 1.367 . S
C480 C488 1.378 . S
C481 C480 1.367 . S
C481 C489 1.433 . S
C482 H478 0.929 . S
C482 C484 1.378 . S
C482 C486 1.350 . S
C483 C486 1.463 . S
C483 C488 1.350 . S
C483 N491 1.427 . S
C484 H475 0.930 . S
C484 C482 1.378 . S
C484 C485 1.367 . S
C485 C484 1.367 . S
C485 C487 1.433 1_556 S
C486 C482 1.350 . S
C486 C483 1.463 . S
C486 N490 1.427 . S
C487 H477 0.929 . S
C487 C485 1.433 1_554 S
C487 N490 1.384 1_554 S
C488 H479 0.929 . S
C488 C480 1.378 . S
C488 C483 1.350 . S
C489 H476 0.929 . S
C489 C481 1.433 . S
C489 N491 1.384 . S
N490 C486 1.427 . S
N490 C487 1.384 1_556 S
N491 C483 1.427 . S
N491 C489 1.384 . S
H492 C498 0.930 . S
H493 C502 0.930 1_455 S
H494 C507 0.929 . S
H495 C505 0.929 . S
H496 C500 0.929 . S
H497 C506 0.929 . S
C498 H492 0.930 . S
C498 C499 1.367 . S
C498 C506 1.378 . S
C499 C498 1.367 . S
C499 C507 1.433 . S
C500 H496 0.929 . S
C500 C502 1.378 . S
C500 C504 1.350 . S
C501 C504 1.463 . S
C501 C506 1.350 . S
C501 N509 1.427 . S
C502 H493 0.930 1_655 S
C502 C500 1.378 . S
C502 C503 1.367 . S
C503 C502 1.367 . S
C503 C505 1.433 . S
C504 C500 1.350 . S
C504 C501 1.463 . S
C504 N508 1.427 . S
C505 H495 0.929 . S
C505 C503 1.433 . S
C505 N508 1.384 . S
C506 H497 0.929 . S
C506 C498 1.378 . S
C506 C501 1.350 . S
C507 H494 0.929 . S
C507 C499 1.433 . S
C507 N509 1.384 . S
N508 C504 1.427 . S
N508 C505 1.384 . S
N509 C501 1.427 . S
N509 C507 1.384 . S
H510 C516 0.930 . S
H511 C520 0.930 . S
H512 C525 0.929 . S
H513 C523 0.929 . S
H514 C518 0.929 . S
H515 C524 0.929 . S
C516 H510 0.930 . S
C516 C517 1.367 . S
C516 C524 1.378 . S
C517 C516 1.367 . S
C517 C525 1.433 . S
C518 H514 0.929 . S
C518 C520 1.378 . S
C518 C522 1.350 . S
C519 C522 1.463 . S
C519 C524 1.350 . S
C519 N527 1.427 . S
C520 H511 0.930 . S
C520 C518 1.378 . S
C520 C521 1.367 . S
C521 C520 1.367 . S
C521 C523 1.433 . S
C522 C518 1.350 . S
C522 C519 1.463 . S
C522 N526 1.427 . S
C523 H513 0.929 . S
C523 C521 1.433 . S
C523 N526 1.384 . S
C524 H515 0.929 . S
C524 C516 1.378 . S
C524 C519 1.350 . S
C525 H512 0.929 . S
C525 C517 1.433 . S
C525 N527 1.384 . S
N526 C522 1.427 . S
N526 C523 1.384 . S
N527 C519 1.427 . S
N527 C525 1.384 . S
H528 C534 0.930 . S
H529 C538 0.930 . S
H530 C543 0.929 . S
H531 C541 0.929 1_545 S
H532 C536 0.929 . S
H533 C542 0.929 . S
C534 H528 0.930 . S
C534 C535 1.367 . S
C534 C542 1.378 . S
C535 C534 1.367 . S
C535 C543 1.433 . S
C536 H532 0.929 . S
C536 C538 1.378 . S
C536 C540 1.350 . S
C537 C540 1.463 . S
C537 C542 1.350 . S
C537 N545 1.427 . S
C538 H529 0.930 . S
C538 C536 1.378 . S
C538 C539 1.367 . S
C539 C538 1.367 . S
C539 C541 1.433 . S
C540 C536 1.350 . S
C540 C537 1.463 . S
C540 N544 1.427 . S
C541 H531 0.929 1_565 S
C541 C539 1.433 . S
C541 N544 1.384 . S
C542 H533 0.929 . S
C542 C534 1.378 . S
C542 C537 1.350 . S
C543 H530 0.929 . S
C543 C535 1.433 . S
C543 N545 1.384 . S
N544 C540 1.427 . S
N544 C541 1.384 . S
N545 C537 1.427 . S
N545 C543 1.384 . S
H546 C552 0.930 . S
H547 C556 0.930 . S
H548 C561 0.929 . S
H549 C559 0.929 . S
H550 C554 0.929 . S
H551 C560 0.929 . S
C552 H546 0.930 . S
C552 C553 1.367 . S
C552 C560 1.378 . S
C553 C552 1.367 . S
C553 C561 1.433 . S
C554 H550 0.929 . S
C554 C556 1.378 . S
C554 C558 1.350 . S
C555 C558 1.463 . S
C555 C560 1.350 . S
C555 N563 1.427 . S
C556 H547 0.930 . S
C556 C554 1.378 . S
C556 C557 1.367 . S
C557 C556 1.367 . S
C557 C559 1.433 . S
C558 C554 1.350 . S
C558 C555 1.463 . S
C558 N562 1.427 . S
C559 H549 0.929 . S
C559 C557 1.433 . S
C559 N562 1.384 . S
C560 H551 0.929 . S
C560 C552 1.378 . S
C560 C555 1.350 . S
C561 H548 0.929 . S
C561 C553 1.433 . S
C561 N563 1.384 . S
N562 C558 1.427 . S
N562 C559 1.384 . S
N563 C555 1.427 . S
N563 C561 1.384 . S
H564 C570 0.930 . S
H565 C574 0.930 . S
H566 C579 0.929 . S
H567 C577 0.929 . S
H568 C572 0.929 . S
H569 C578 0.929 . S
C570 H564 0.930 . S
C570 C571 1.367 . S
C570 C578 1.378 . S
C571 C570 1.367 . S
C571 C579 1.433 . S
C572 H568 0.929 . S
C572 C574 1.378 . S
C572 C576 1.350 . S
C573 C576 1.463 . S
C573 C578 1.350 . S
C573 N581 1.427 . S
C574 H565 0.930 . S
C574 C572 1.378 . S
C574 C575 1.367 . S
C575 C574 1.367 . S
C575 C577 1.433 . S
C576 C572 1.350 . S
C576 C573 1.463 . S
C576 N580 1.427 . S
C577 H567 0.929 . S
C577 C575 1.433 . S
C577 N580 1.384 . S
C578 H569 0.929 . S
C578 C570 1.378 . S
C578 C573 1.350 . S
C579 H566 0.929 . S
C579 C571 1.433 . S
C579 N581 1.384 . S
N580 C576 1.427 . S
N580 C577 1.384 . S
N581 C573 1.427 . S
N581 C579 1.384 . S
H582 C588 0.930 . S
H583 C592 0.930 . S
H584 C597 0.929 . S
H585 C595 0.929 . S
H586 C590 0.929 . S
H587 C596 0.929 . S
C588 H582 0.930 . S
C588 C589 1.367 . S
C588 C596 1.378 . S
C589 C588 1.367 . S
C589 C597 1.433 . S
C590 H586 0.929 . S
C590 C592 1.378 . S
C590 C594 1.350 . S
C591 C594 1.463 . S
C591 C596 1.350 . S
C591 N599 1.427 . S
C592 H583 0.930 . S
C592 C590 1.378 . S
C592 C593 1.367 . S
C593 C592 1.367 . S
C593 C595 1.433 . S
C594 C590 1.350 . S
C594 C591 1.463 . S
C594 N598 1.427 . S
C595 H585 0.929 . S
C595 C593 1.433 . S
C595 N598 1.384 . S
C596 H587 0.929 . S
C596 C588 1.378 . S
C596 C591 1.350 . S
C597 H584 0.929 . S
C597 C589 1.433 . S
C597 N599 1.384 . S
N598 C594 1.427 . S
N598 C595 1.384 . S
N599 C591 1.427 . S
N599 C597 1.384 . S
H600 C606 0.930 . S
H601 C610 0.930 . S
H602 C615 0.929 . S
H603 C613 0.929 1_545 S
H604 C608 0.913 1_556 S
H605 C614 0.929 . S
C606 H600 0.930 . S
C606 C607 1.367 . S
C606 C614 1.378 1_556 S
C607 C606 1.367 . S
C607 C615 1.433 . S
C608 H604 0.913 1_554 S
C608 C610 1.391 . S
C608 C612 1.353 . S
C609 C612 1.463 1_556 S
C609 C614 1.350 1_556 S
C609 N617 1.427 . S
C610 H601 0.930 . S
C610 C608 1.391 . S
C610 C611 1.367 . S
C611 C610 1.367 . S
C611 C613 1.433 . S
C612 C608 1.353 . S
C612 C609 1.463 1_554 S
C612 N616 1.427 . S
C613 H603 0.929 1_565 S
C613 C611 1.433 . S
C613 N616 1.384 . S
C614 H605 0.929 . S
C614 C606 1.378 1_554 S
C614 C609 1.350 1_554 S
C615 H602 0.929 . S
C615 C607 1.433 . S
C615 N617 1.384 . S
N616 C612 1.427 . S
N616 C613 1.384 . S
N617 C609 1.427 . S
N617 C615 1.384 . S
H618 C624 0.930 . S
H619 C628 0.930 . S
H620 C633 0.929 . S
H621 C631 0.929 . S
H622 C626 0.929 . S
H623 C632 0.929 . S
C624 H618 0.930 . S
C624 C625 1.367 . S
C624 C632 1.378 . S
C625 C624 1.367 . S
C625 C633 1.433 . S
C626 H622 0.929 . S
C626 C628 1.378 . S
C626 C630 1.350 . S
C627 C630 1.463 . S
C627 C632 1.350 . S
C627 N635 1.427 . S
C628 H619 0.930 . S
C628 C626 1.378 . S
C628 C629 1.367 . S
C629 C628 1.367 . S
C629 C631 1.433 . S
C630 C626 1.350 . S
C630 C627 1.463 . S
C630 N634 1.427 . S
C631 H621 0.929 . S
C631 C629 1.433 . S
C631 N634 1.384 . S
C632 H623 0.929 . S
C632 C624 1.378 . S
C632 C627 1.350 . S
C633 H620 0.929 . S
C633 C625 1.433 . S
C633 N635 1.384 . S
N634 C630 1.427 . S
N634 C631 1.384 . S
N635 C627 1.427 . S
N635 C633 1.384 . S
H636 C642 0.930 . S
H637 C646 0.930 . S
H638 C651 0.929 . S
H639 C649 0.929 . S
H640 C644 0.929 . S
H641 C650 0.929 . S
C642 H636 0.930 . S
C642 C643 1.367 . S
C642 C650 1.378 . S
C643 C642 1.367 . S
C643 C651 1.433 . S
C644 H640 0.929 . S
C644 C646 1.378 . S
C644 C648 1.350 . S
C645 C648 1.463 . S
C645 C650 1.350 . S
C645 N653 1.427 . S
C646 H637 0.930 . S
C646 C644 1.378 . S
C646 C647 1.367 . S
C647 C646 1.367 . S
C647 C649 1.433 . S
C648 C644 1.350 . S
C648 C645 1.463 . S
C648 N652 1.427 . S
C649 H639 0.929 . S
C649 C647 1.433 . S
C649 N652 1.384 . S
C650 H641 0.929 . S
C650 C642 1.378 . S
C650 C645 1.350 . S
C651 H638 0.929 . S
C651 C643 1.433 . S
C651 N653 1.384 . S
N652 C648 1.427 . S
N652 C649 1.384 . S
N653 C645 1.427 . S
N653 C651 1.384 . S
H654 C660 0.930 . S
H655 C664 0.930 . S
H656 C669 0.929 . S
H657 C667 0.929 . S
H658 C662 0.929 . S
H659 C668 0.929 . S
C660 H654 0.930 . S
C660 C661 1.367 . S
C660 C668 1.378 . S
C661 C660 1.367 . S
C661 C669 1.433 . S
C662 H658 0.929 . S
C662 C664 1.378 . S
C662 C666 1.350 . S
C663 C666 1.463 . S
C663 C668 1.350 . S
C663 N671 1.427 . S
C664 H655 0.930 . S
C664 C662 1.378 . S
C664 C665 1.367 . S
C665 C664 1.367 . S
C665 C667 1.433 . S
C666 C662 1.350 . S
C666 C663 1.463 . S
C666 N670 1.427 . S
C667 H657 0.929 . S
C667 C665 1.433 . S
C667 N670 1.384 . S
C668 H659 0.929 . S
C668 C660 1.378 . S
C668 C663 1.350 . S
C669 H656 0.929 . S
C669 C661 1.433 . S
C669 N671 1.384 . S
N670 C666 1.427 . S
N670 C667 1.384 . S
N671 C663 1.427 . S
N671 C669 1.384 . S
H672 C678 0.930 . S
H673 C682 0.930 . S
H674 C687 0.929 . S
H675 C685 0.929 1_455 S
H676 C680 0.929 1_554 S
H677 C686 0.929 . S
C678 H672 0.930 . S
C678 C679 1.367 . S
C678 C686 1.378 . S
C679 C678 1.367 . S
C679 C687 1.433 . S
C680 H676 0.929 1_556 S
C680 C682 1.378 1_556 S
C680 C684 1.350 . S
C681 C684 1.463 . S
C681 C686 1.350 . S
C681 N689 1.427 . S
C682 H673 0.930 . S
C682 C680 1.378 1_554 S
C682 C683 1.367 1_554 S
C683 C682 1.367 1_556 S
C683 C685 1.433 . S
C684 C680 1.350 . S
C684 C681 1.463 . S
C684 N688 1.427 . S
C685 H675 0.929 1_655 S
C685 C683 1.433 . S
C685 N688 1.384 . S
C686 H677 0.929 . S
C686 C678 1.378 . S
C686 C681 1.350 . S
C687 H674 0.929 . S
C687 C679 1.433 . S
C687 N689 1.384 . S
N688 C684 1.427 . S
N688 C685 1.384 . S
N689 C681 1.427 . S
N689 C687 1.384 . S
H690 C696 0.930 . S
H691 C700 0.930 . S
H692 C705 0.929 . S
H693 C703 0.929 . S
H694 C698 0.929 . S
H695 C704 0.929 . S
C696 H690 0.930 . S
C696 C697 1.367 . S
C696 C704 1.378 . S
C697 C696 1.367 . S
C697 C705 1.433 . S
C698 H694 0.929 . S
C698 C700 1.378 . S
C698 C702 1.350 . S
C699 C702 1.463 . S
C699 C704 1.350 . S
C699 N707 1.427 . S
C700 H691 0.930 . S
C700 C698 1.378 . S
C700 C701 1.367 . S
C701 C700 1.367 . S
C701 C703 1.433 . S
C702 C698 1.350 . S
C702 C699 1.463 . S
C702 N706 1.427 . S
C703 H693 0.929 . S
C703 C701 1.433 . S
C703 N706 1.384 . S
C704 H695 0.929 . S
C704 C696 1.378 . S
C704 C699 1.350 . S
C705 H692 0.929 . S
C705 C697 1.433 . S
C705 N707 1.384 . S
N706 C702 1.427 . S
N706 C703 1.384 . S
N707 C699 1.427 . S
N707 C705 1.384 . S
H708 C714 0.930 . S
H709 C718 0.930 . S
H710 C723 0.929 . S
H711 C721 0.929 . S
H712 C716 0.929 . S
H713 C722 0.929 . S
C714 H708 0.930 . S
C714 C715 1.367 . S
C714 C722 1.378 . S
C715 C714 1.367 . S
C715 C723 1.433 . S
C716 H712 0.929 . S
C716 C718 1.378 . S
C716 C720 1.350 . S
C717 C720 1.463 . S
C717 C722 1.350 . S
C717 N725 1.427 . S
C718 H709 0.930 . S
C718 C716 1.378 . S
C718 C719 1.367 . S
C719 C718 1.367 . S
C719 C721 1.433 . S
C720 C716 1.350 . S
C720 C717 1.463 . S
C720 N724 1.427 . S
C721 H711 0.929 . S
C721 C719 1.433 . S
C721 N724 1.384 . S
C722 H713 0.929 . S
C722 C714 1.378 . S
C722 C717 1.350 . S
C723 H710 0.929 . S
C723 C715 1.433 . S
C723 N725 1.384 . S
N724 C720 1.427 . S
N724 C721 1.384 . S
N725 C717 1.427 . S
N725 C723 1.384 . S
H726 C732 0.930 . S
H727 C736 0.930 . S
H728 C741 0.929 . S
H729 C739 0.929 . S
H730 C734 0.929 . S
H731 C740 0.929 . S
C732 H726 0.930 . S
C732 C733 1.367 . S
C732 C740 1.378 . S
C733 C732 1.367 . S
C733 C741 1.433 . S
C734 H730 0.929 . S
C734 C736 1.378 . S
C734 C738 1.350 . S
C735 C738 1.463 . S
C735 C740 1.350 . S
C735 N743 1.427 . S
C736 H727 0.930 . S
C736 C734 1.378 . S
C736 C737 1.367 . S
C737 C736 1.367 . S
C737 C739 1.433 . S
C738 C734 1.350 . S
C738 C735 1.463 . S
C738 N742 1.427 . S
C739 H729 0.929 . S
C739 C737 1.433 . S
C739 N742 1.384 . S
C740 H731 0.929 . S
C740 C732 1.378 . S
C740 C735 1.350 . S
C741 H728 0.929 . S
C741 C733 1.433 . S
C741 N743 1.384 . S
N742 C738 1.427 . S
N742 C739 1.384 . S
N743 C735 1.427 . S
N743 C741 1.384 . S
C319 C6 3.194 . S
C323 C171 3.155 . S
C337 C21 2.643 . S
C341 C202 2.682 1_556 S
C359 C241 0.683 . S
C355 C49 0.729 . S
C373 C68 0.655 . S
C377 C278 0.462 . S
C395 C201 3.587 . S
C391 C2 3.642 . S
C413 C158 1.182 . S
C409 C30 1.132 . S
C431 C290 1.038 . S
C427 C40 1.047 . S
C449 C247 0.940 . S
C445 C63 0.945 . S
C463 C11 2.263 . S
C467 C291 2.510 . S
C485 C207 1.560 1_556 S
C481 C44 1.568 . S
C499 C59 0.463 . S
C503 C170 0.667 . S
C517 C25 2.622 . S
C521 C242 2.657 . S
C539 C162 3.208 . S
C535 C82 3.251 . S
C553 C101 2.283 . S
C557 C211 2.344 . S
C571 C125 1.119 . S
C575 C250 1.103 . S
C589 C144 0.392 . S
C593 C287 0.427 . S
C607 C87 2.513 . S
C611 C210 2.601 1_565 S
C629 C167 1.898 . S
C625 C97 1.859 . S
C647 C281 1.088 . S
C643 C120 1.166 . S
C665 C238 1.017 . S
C661 C135 1.040 . S
C679 C78 2.653 . S
C683 C282 2.671 1_655 S
C701 C198 1.316 . S
C697 C116 1.327 . S
C719 C161 0.661 . S
C715 C139 0.630 . S
C733 C106 2.082 . S
C737 C251 2.373 . S
