# Generated by pormake.
# Topology anh, (6,3)-cn, num edge types: 1
# Building blocks:
#     Node 0, Type 0, BuildingBlock: NUHQIS_clean_sbu_0, # of connection points: 6
#     Node 1, Type 0, BuildingBlock: NUHQIS_clean_sbu_0, # of connection points: 6
#     Node 2, Type 0, BuildingBlock: NUHQIS_clean_sbu_0, # of connection points: 6
#     Node 3, Type 1, BuildingBlock: MIDCAF_clean_linker_0, # of connection points: 3
#     Node 4, Type 1, BuildingBlock: MIDCAF_clean_linker_0, # of connection points: 3
#     Node 5, Type 1, BuildingBlock: MIDCAF_clean_linker_0, # of connection points: 3
#     Node 6, Type 1, BuildingBlock: MIDCAF_clean_linker_0, # of connection points: 3
#     Node 7, Type 1, BuildingBlock: MIDCAF_clean_linker_0, # of connection points: 3
#     Node 8, Type 1, BuildingBlock: MIDCAF_clean_linker_0, # of connection points: 3
#     Edge 9, Type (0, 1), BuildingBlock: CIFDUS_clean_linker_0, # of connection points: 2
#     Edge 10, Type (0, 1), BuildingBlock: CIFDUS_clean_linker_0, # of connection points: 2
#     Edge 11, Type (0, 1), BuildingBlock: CIFDUS_clean_linker_0, # of connection points: 2
#     Edge 12, Type (0, 1), BuildingBlock: CIFDUS_clean_linker_0, # of connection points: 2
#     Edge 13, Type (0, 1), BuildingBlock: CIFDUS_clean_linker_0, # of connection points: 2
#     Edge 14, Type (0, 1), BuildingBlock: CIFDUS_clean_linker_0, # of connection points: 2
#     Edge 15, Type (0, 1), BuildingBlock: CIFDUS_clean_linker_0, # of connection points: 2
#     Edge 16, Type (0, 1), BuildingBlock: CIFDUS_clean_linker_0, # of connection points: 2
#     Edge 17, Type (0, 1), BuildingBlock: CIFDUS_clean_linker_0, # of connection points: 2
#     Edge 18, Type (0, 1), BuildingBlock: CIFDUS_clean_linker_0, # of connection points: 2
#     Edge 19, Type (0, 1), BuildingBlock: CIFDUS_clean_linker_0, # of connection points: 2
#     Edge 20, Type (0, 1), BuildingBlock: CIFDUS_clean_linker_0, # of connection points: 2
#     Edge 21, Type (0, 1), BuildingBlock: CIFDUS_clean_linker_0, # of connection points: 2
#     Edge 22, Type (0, 1), BuildingBlock: CIFDUS_clean_linker_0, # of connection points: 2
#     Edge 23, Type (0, 1), BuildingBlock: CIFDUS_clean_linker_0, # of connection points: 2
#     Edge 24, Type (0, 1), BuildingBlock: CIFDUS_clean_linker_0, # of connection points: 2
#     Edge 25, Type (0, 1), BuildingBlock: CIFDUS_clean_linker_0, # of connection points: 2
#     Edge 26, Type (0, 1), BuildingBlock: CIFDUS_clean_linker_0, # of connection points: 2
# Relax obj value: 0.263
# Max RMSD: 0.192
# Mean RMSD: 0.159
data_MOF--net-anh--node1-NUHQIS_clean_sbu_0--node2-MIDCAF_clean_linker_0--edge1-CIFDUS_clean_linker_0
_symmetry_space_group_name_H-M    P1
_symmetry_Int_Tables_number       1
_symmetry_cell_setting            triclinic
loop_
_symmetry_equiv_pos_as_xyz
'x, y, z'
_cell_length_a     32.714285
_cell_length_b     32.769385
_cell_length_c     59.641939
_cell_angle_alpha  90.390225
_cell_angle_beta   92.498666
_cell_angle_gamma 119.94874
loop_
_atom_site_label
_atom_site_type_symbol
_atom_site_fract_x
_atom_site_fract_y
_atom_site_fract_z
_atom_type_partial_charge
Tb0 Tb 0.15546 0.57965 0.15482 0.0
Eu1 Eu 1.10021 0.63839 0.15666 0.0
C2 C 0.12963 0.60433 0.20033 0.0
C3 C 1.04117 0.52157 0.15712 0.0
C4 C 0.24918 0.55157 0.16717 0.0
C5 C 0.29698 0.54441 0.19762 0.0
C6 C 0.25273 0.53174 0.18748 0.0
C7 C 0.29063 0.58501 0.15746 0.0
C8 C 0.33466 0.59743 0.16748 0.0
C9 C 0.33849 0.57687 0.18753 0.0
C10 C 0.20244 0.5381 0.15647 0.0
O11 O 0.12861 0.57588 0.12018 0.0
O12 O 0.12108 0.64158 0.12095 0.0
O13 O 0.17809 0.69579 0.16337 0.0
O14 O 0.21358 0.65347 0.15336 0.0
C15 C 0.12436 0.60886 0.10972 0.0
O16 O 1.04975 0.65732 0.14232 0.0
O17 O 1.08612 0.68795 0.17461 0.0
O18 O 1.09442 0.60499 0.18967 0.0
O19 O 0.16422 0.60645 0.18925 0.0
O20 O 1.08195 0.52223 0.15797 0.0
O21 O 1.03972 0.56102 0.15502 0.0
C22 C 0.21659 0.69393 0.15933 0.0
O23 O 0.16935 0.53006 0.17012 0.0
O24 O 0.20181 0.5628 0.13951 0.0
C25 C 1.00408 0.65746 0.17104 0.0
C26 C 0.90957 0.59572 0.17992 0.0
C27 C 0.92157 0.63558 0.16706 0.0
C28 C 0.96873 0.6662 0.16248 0.0
C29 C 0.9923 0.62021 0.1857 0.0
C30 C 0.94533 0.58936 0.18999 0.0
C31 C 1.05005 0.67881 0.16092 0.0
H32 H 0.2987 0.52796 0.21305 0.0
H33 H 0.22128 0.50605 0.19541 0.0
H34 H 0.28927 0.60109 0.14185 0.0
H35 H 0.3657 0.62154 0.15882 0.0
H36 H 0.89421 0.64059 0.15891 0.0
H37 H 0.97706 0.69429 0.15089 0.0
H38 H 1.01889 0.61246 0.19232 0.0
H39 H 0.93664 0.55862 0.1998 0.0
Tb40 Tb 0.69492 0.13497 0.49419 0.0
Eu41 Eu 0.58338 0.0754 0.48328 0.0
C42 C 0.62584 0.09161 0.53233 0.0
C43 C 0.64483 1.02115 0.48982 0.0
C44 C 0.79965 0.23391 0.51808 0.0
C45 C 0.78281 0.29043 0.53593 0.0
C46 C 0.76877 0.2442 0.52931 0.0
C47 C 0.84604 0.26971 0.51531 0.0
C48 C 0.86029 0.31602 0.52212 0.0
C49 C 0.82803 0.32705 0.53151 0.0
C50 C 0.78038 0.18857 0.5058 0.0
O51 O 0.68614 0.11517 0.45835 0.0
O52 O 0.61578 0.11241 0.45185 0.0
O53 O 0.59547 0.1474 0.49472 0.0
O54 O 0.67502 0.19082 0.49008 0.0
C55 C 0.65418 0.11553 0.44431 0.0
O56 O 0.52448 1.0295 0.46005 0.0
O57 O 0.51082 1.04899 0.49259 0.0
O58 O 0.59648 1.05859 0.51809 0.0
O59 O 0.66006 0.13085 0.52503 0.0
O60 O 0.68197 1.0615 0.49725 0.0
O61 O 0.60676 1.02057 0.4811 0.0
C62 C 0.63438 0.18876 0.49384 0.0
O63 O 0.75245 0.15156 0.51689 0.0
O64 O 0.76233 0.18774 0.48575 0.0
C65 C 0.46931 0.9684 0.48106 0.0
C66 C 0.44248 0.87421 0.48966 0.0
C67 C 0.43819 0.88766 0.46776 0.0
C68 C 0.45122 0.93427 0.46352 0.0
C69 C 0.47198 0.95452 0.50315 0.0
C70 C 0.45829 0.90769 0.50742 0.0
C71 C 0.49406 1.01864 0.47559 0.0
H72 H 0.7573 0.29796 0.54308 0.0
H73 H 0.73263 0.21709 0.53151 0.0
H74 H 0.87012 0.26251 0.50648 0.0
H75 H 0.8952 0.34366 0.51818 0.0
H76 H 0.42477 0.86206 0.45387 0.0
H77 H 0.44927 0.9441 0.44636 0.0
H78 H 0.48642 0.98007 0.51705 0.0
H79 H 0.46121 0.89787 0.52448 0.0
Tb80 Tb 0.66166 0.64472 0.82381 0.0
Eu81 Eu 0.6085 0.53234 0.82119 0.0
C82 C 0.64719 0.58723 0.86633 0.0
C83 C 0.7243 0.59342 0.82145 0.0
C84 C 0.6689 0.75284 0.83935 0.0
C85 C 0.59782 0.73763 0.85758 0.0
C86 C 0.63169 0.72516 0.85317 0.0
C87 C 0.67424 0.79547 0.83175 0.0
C88 C 0.64059 0.80837 0.83644 0.0
C89 C 0.60093 0.77829 0.84846 0.0
C90 C 0.69436 0.73172 0.82914 0.0
O91 O 0.6632 0.62566 0.78856 0.0
O92 O 0.59606 0.55355 0.78701 0.0
O93 O 0.55249 0.54908 0.83223 0.0
O94 O 0.58551 0.62483 0.82071 0.0
C95 C 0.6284 0.59007 0.77684 0.0
O96 O 0.59071 0.46414 0.8063 0.0
O97 O 0.56262 0.46773 0.83809 0.0
O98 O 0.65143 0.5577 0.8534 0.0
O99 O 0.63853 0.61844 0.85718 0.0
O100 O 0.72283 0.6319 0.82718 0.0
O101 O 0.68496 0.55432 0.81515 0.0
C102 C 0.54884 0.58656 0.828 0.0
O103 O 0.70609 0.70744 0.8425 0.0
O104 O 0.67448 0.70875 0.81021 0.0
C105 C 0.59346 0.41762 0.83528 0.0
C106 C 0.63976 0.37168 0.85317 0.0
C107 C 0.59079 0.34634 0.84774 0.0
C108 C 0.56776 0.36922 0.83872 0.0
C109 C 0.64157 0.44346 0.84225 0.0
C110 C 0.66474 0.42059 0.85089 0.0
C111 C 0.57112 0.44199 0.82441 0.0
H112 H 0.5675 0.71388 0.8668 0.0
H113 H 0.62653 0.69187 0.8591 0.0
H114 H 0.70225 0.8169 0.82081 0.0
H115 H 0.64335 0.83965 0.82899 0.0
H116 H 0.57102 0.30836 0.84896 0.0
H117 H 0.53049 0.34897 0.83372 0.0
H118 H 0.66164 0.48112 0.84021 0.0
H119 H 0.70252 0.44065 0.85474 0.0
C120 C 0.47644 0.99409 0.1694 0.0
C121 C 0.4641 0.94868 0.17725 0.0
C122 C 0.49935 0.9457 0.19044 0.0
C123 C 0.54344 0.9861 0.19644 0.0
H124 H 0.71686 0.17014 0.16302 0.0
H125 H 0.78636 0.24533 0.15294 0.0
H126 H 0.77679 0.31095 0.21388 0.0
H127 H 0.70852 0.23814 0.22333 0.0
H128 H 0.70475 0.17172 0.26717 0.0
H129 H 0.70378 0.17087 0.30816 0.0
H130 H 0.56912 1.04203 0.30354 0.0
H131 H 0.56977 1.04271 0.26276 0.0
H132 H 0.52774 1.06878 0.16976 0.0
H133 H 0.45114 0.99864 0.15901 0.0
H134 H 0.49213 0.91232 0.1972 0.0
H135 H 0.56796 0.9819 0.20765 0.0
N136 N 0.6308 0.11409 0.1905 0.0
N137 N 0.66856 0.14756 0.22596 0.0
N138 N 0.60081 0.07316 0.22379 0.0
C139 C 0.66726 0.15109 0.20321 0.0
C140 C 0.63589 0.10919 0.23641 0.0
C141 C 0.59719 0.07449 0.20104 0.0
C142 C 0.70582 0.19723 0.19399 0.0
C143 C 0.72901 0.20096 0.17397 0.0
C144 C 0.7696 0.24425 0.16835 0.0
C145 C 0.78816 0.28555 0.1824 0.0
C146 C 0.76416 0.2813 0.20212 0.0
C147 C 0.7244 0.23867 0.20769 0.0
C148 C 0.63715 0.10747 0.26147 0.0
C149 C 0.67502 0.143 0.27485 0.0
C150 C 0.67466 0.14243 0.2984 0.0
C151 C 0.63623 0.10659 0.30918 0.0
C152 C 0.599 0.07053 0.29582 0.0
C153 C 0.59951 0.07085 0.27235 0.0
C154 C 0.55522 1.03162 0.1893 0.0
C155 C 0.52109 1.03466 0.17524 0.0
C156 C 0.62618 0.44733 0.53139 0.0
C157 C 0.64867 0.44579 0.51201 0.0
C158 C 0.66893 0.48747 0.49934 0.0
C159 C 0.66758 0.5287 0.50609 0.0
H160 H 0.608 0.66647 0.49926 0.0
H161 H 0.61236 0.74144 0.48878 0.0
H162 H 0.72439 0.81503 0.5398 0.0
H163 H 0.72068 0.7418 0.5495 0.0
H164 H 0.66781 0.68853 0.59836 0.0
H165 H 0.66855 0.69113 0.63921 0.0
H166 H 0.63694 0.54657 0.64028 0.0
H167 H 0.63564 0.54363 0.59934 0.0
H168 H 0.60804 0.48687 0.55348 0.0
H169 H 0.61055 0.41729 0.54207 0.0
H170 H 0.68623 0.48853 0.48413 0.0
H171 H 0.68472 0.55984 0.49617 0.0
N172 N 0.65433 0.61334 0.52428 0.0
N173 N 0.65676 0.65178 0.55844 0.0
N174 N 0.64831 0.57674 0.55898 0.0
C175 C 0.65769 0.6522 0.53565 0.0
C176 C 0.65195 0.61459 0.57026 0.0
C177 C 0.64954 0.57494 0.53619 0.0
C178 C 0.66481 0.69741 0.52496 0.0
C179 C 0.63459 0.69894 0.50768 0.0
C180 C 0.63658 0.74223 0.50196 0.0
C181 C 0.66901 0.78574 0.5132 0.0
C182 C 0.6995 0.78363 0.53011 0.0
C183 C 0.69737 0.74091 0.53579 0.0
C184 C 0.65171 0.61586 0.59534 0.0
C185 C 0.66086 0.65714 0.60721 0.0
C186 C 0.6616 0.65877 0.63074 0.0
C187 C 0.65294 0.61912 0.64316 0.0
C188 C 0.6433 0.57767 0.63132 0.0
C189 C 0.64285 0.5761 0.60777 0.0
C190 C 0.64622 0.53021 0.52592 0.0
C191 C 0.62505 0.48817 0.53811 0.0
C192 C 0.97789 0.56793 0.85396 0.0
C193 C 0.98175 0.60754 0.84288 0.0
C194 C 1.02796 0.64227 0.83738 0.0
C195 C 1.06837 0.63821 0.8434 0.0
H196 H 0.21269 0.61136 0.82552 0.0
H197 H 0.28366 0.61164 0.81294 0.0
H198 H 0.31746 0.58948 0.88083 0.0
H199 H 0.24777 0.58815 0.89303 0.0
H200 H 0.2006 0.58643 0.93299 0.0
H201 H 0.19817 0.58271 0.97369 0.0
H202 H 1.07315 0.5958 0.97062 0.0
H203 H 1.07573 0.60007 0.92981 0.0
H204 H 1.01326 0.53441 0.86987 0.0
H205 H 0.94377 0.54049 0.8589 0.0
H206 H 1.03317 0.6733 0.82873 0.0
H207 H 1.10304 0.66678 0.8398 0.0
N208 N 0.14446 0.60146 0.85704 0.0
N209 N 0.17681 0.59729 0.8925 0.0
N210 N 1.10522 0.59698 0.89017 0.0
C211 C 0.18012 0.59981 0.86981 0.0
C212 C 0.14014 0.59606 0.90287 0.0
C213 C 0.10644 0.59979 0.86742 0.0
C214 C 0.22316 0.59974 0.86045 0.0
C215 C 0.23506 0.60628 0.83774 0.0
C216 C 0.27638 0.60668 0.83054 0.0
C217 C 0.3074 0.60022 0.84569 0.0
C218 C 0.29504 0.59358 0.86824 0.0
C219 C 0.25437 0.59332 0.87536 0.0
C220 C 0.13834 0.59352 0.92789 0.0
C221 C 0.1725 0.58854 0.94089 0.0
C222 C 0.17097 0.58612 0.96432 0.0
C223 C 0.1354 0.58883 0.97556 0.0
C224 C 1.10136 0.59407 0.96262 0.0
C225 C 1.1027 0.59622 0.93913 0.0
C226 C 1.06433 0.59941 0.8553 0.0
C227 C 1.01816 0.56428 0.86022 0.0
C228 C 0.25807 0.62897 0.45523 0.0
C229 C 0.25591 0.62404 0.47873 0.0
C230 C 0.21138 0.59609 0.48756 0.0
C231 C 0.17021 0.58095 0.47395 0.0
H232 H 1.07496 0.64774 0.47538 0.0
H233 H 1.01971 0.62615 0.50514 0.0
H234 H 0.91187 0.51472 0.46172 0.0
H235 H 0.96664 0.5378 0.4319 0.0
H236 H 1.01739 0.56375 0.37452 0.0
H237 H 1.01746 0.56582 0.33364 0.0
H238 H 0.16888 0.62354 0.33741 0.0
H239 H 0.16833 0.6193 0.37795 0.0
H240 H 0.22015 0.62135 0.42399 0.0
H241 H 0.29129 0.64991 0.44747 0.0
H242 H 0.20819 0.58977 0.50536 0.0
H243 H 0.13644 0.56344 0.48163 0.0
N244 N 1.09803 0.59169 0.44969 0.0
N245 N 1.05886 0.59121 0.41568 0.0
N246 N 0.12971 0.58908 0.41574 0.0
C247 C 1.06181 0.59303 0.43851 0.0
C248 C 1.09331 0.58982 0.40421 0.0
C249 C 0.13177 0.58914 0.43848 0.0
C250 C 1.02514 0.59336 0.45172 0.0
C251 C 1.03863 0.62022 0.47192 0.0
C252 C 1.00701 0.60782 0.48895 0.0
C253 C 0.96204 0.56749 0.4862 0.0
C254 C 0.94634 0.54579 0.46461 0.0
C255 C 0.9778 0.55879 0.44741 0.0
C256 C 1.09277 0.59113 0.37945 0.0
C257 C 1.05059 0.57672 0.36655 0.0
C258 C 1.05073 0.57815 0.34312 0.0
C259 C 1.0932 0.59477 0.33213 0.0
C260 C 0.13535 0.6095 0.34516 0.0
C261 C 0.13507 0.60734 0.36849 0.0
C262 C 0.17295 0.59216 0.45116 0.0
C263 C 0.21695 0.61294 0.44159 0.0
C264 C 0.67323 0.1667 0.78671 0.0
C265 C 0.65963 0.1773 0.80705 0.0
C266 C 0.61366 0.14646 0.81387 0.0
C267 C 0.58175 0.10794 0.80038 0.0
H268 H 0.44491 0.98064 0.79911 0.0
H269 H 0.43327 0.92434 0.82804 0.0
H270 H 0.4542 0.83857 0.77974 0.0
H271 H 0.46551 0.89461 0.75095 0.0
H272 H 0.49674 0.94925 0.69855 0.0
H273 H 0.50846 0.95346 0.65824 0.0
H274 H 0.58186 0.10563 0.66414 0.0
H275 H 0.57196 0.10135 0.70423 0.0
H276 H 0.65159 0.12197 0.757 0.0
H277 H 0.70843 0.18883 0.78101 0.0
H278 H 0.60065 0.15336 0.82897 0.0
H279 H 0.54632 0.08609 0.80594 0.0
N280 N 0.52264 1.02291 0.77413 0.0
N281 N 0.49434 0.98504 0.73875 0.0
N282 N 0.56204 1.06049 0.74229 0.0
C283 C 0.49032 0.98531 0.76136 0.0
C284 C 0.52964 1.02332 0.72911 0.0
C285 C 0.55877 1.06025 0.76484 0.0
C286 C 0.45802 0.94271 0.77313 0.0
C287 C 0.44409 0.94823 0.79438 0.0
C288 C 0.43754 0.91607 0.81099 0.0
C289 C 0.44499 0.8783 0.8064 0.0
C290 C 0.4489 0.86775 0.78392 0.0
C291 C 0.45536 0.89994 0.76729 0.0
C292 C 0.53386 1.02495 0.70456 0.0
C293 C 0.51526 0.98351 0.69115 0.0
C294 C 0.52186 0.98596 0.66806 0.0
C295 C 0.54663 1.02991 0.65797 0.0
C296 C 0.56384 0.0712 0.6714 0.0
C297 C 0.55788 1.06874 0.69441 0.0
C298 C 0.59433 0.09949 0.77944 0.0
C299 C 0.64066 0.1285 0.77288 0.0
C300 C 0.67956 0.41914 0.10474 0.0
C301 C 0.66999 0.40815 0.12738 0.0
C302 C 0.62752 0.40221 0.13519 0.0
C303 C 0.60201 0.41866 0.12266 0.0
H304 H 0.61261 0.53702 0.1507 0.0
H305 H 0.59242 0.57435 0.18026 0.0
H306 H 0.55784 0.64888 0.13034 0.0
H307 H 0.57889 0.61241 0.10083 0.0
H308 H 0.57701 0.58003 0.04542 0.0
H309 H 0.58725 0.60351 0.00635 0.0
H310 H 0.68014 0.54622 0.99955 0.0
H311 H 0.66757 0.52052 0.03797 0.0
H312 H 0.66623 0.45007 0.07596 0.0
H313 H 0.71148 0.42308 0.09796 0.0
H314 H 0.61845 0.3923 0.15234 0.0
H315 H 0.57355 0.42044 0.1304 0.0
N316 N 0.60212 0.50292 0.11061 0.0
N317 N 0.60586 0.55633 0.08379 0.0
N318 N 0.61504 0.49215 0.07332 0.0
C319 C 0.60102 0.54253 0.10539 0.0
C320 C 0.6129 0.53124 0.0677 0.0
C321 C 0.60861 0.47726 0.09473 0.0
C322 C 0.5958 0.57061 0.12334 0.0
C323 C 0.60148 0.56202 0.14603 0.0
C324 C 0.59041 0.58374 0.16303 0.0
C325 C 0.57302 0.61409 0.15766 0.0
C326 C 0.57159 0.62601 0.13511 0.0
C327 C 0.58298 0.60454 0.11811 0.0
C328 C 0.62082 0.54772 0.04453 0.0
C329 C 0.59958 0.57255 0.03548 0.0
C330 C 0.60578 0.58632 0.01316 0.0
C331 C 0.63403 0.57623 0.99965 0.0
C332 C 0.65695 0.55331 0.00919 0.0
C333 C 0.64992 0.53868 0.03126 0.0
C334 C 0.6182 0.43984 0.10204 0.0
C335 C 0.6537 0.43506 0.09208 0.0
H336 H 0.42348 0.65845 0.18882 0.0
H337 H 0.35901 0.51098 0.20377 0.0
H338 H 0.43512 0.51522 0.2028 0.0
H339 H 0.51127 0.55302 0.18601 0.0
H340 H 0.573 0.69691 0.16541 0.0
H341 H 0.50714 0.70204 0.18023 0.0
C342 C 0.42639 0.62755 0.19239 0.0
C343 C 0.38532 0.58407 0.19544 0.0
C344 C 0.4697 0.62933 0.19017 0.0
C345 C 0.3898 0.54482 0.20105 0.0
C346 C 0.43336 0.54704 0.20021 0.0
C347 C 0.51161 0.58628 0.18568 0.0
C348 C 0.54618 0.62412 0.17405 0.0
C349 C 0.47247 0.588 0.19302 0.0
C350 C 0.54608 0.66695 0.17382 0.0
C351 C 0.50831 0.66977 0.18218 0.0
H352 H 0.90766 0.4047 0.54843 0.0
H353 H 0.77191 0.36004 0.51492 0.0
H354 H 0.79899 0.44009 0.50279 0.0
H355 H 0.86732 0.51482 0.49279 0.0
H356 H 1.00454 0.55649 0.52425 0.0
H357 H 0.97045 0.48724 0.5468 0.0
C358 C 0.88358 0.41299 0.53917 0.0
C359 C 0.83849 0.3765 0.53197 0.0
C360 C 0.89987 0.45869 0.53158 0.0
C361 C 0.80705 0.38758 0.52043 0.0
C362 C 0.82263 0.43326 0.5133 0.0
C363 C 0.88941 0.50956 0.50517 0.0
C364 C 0.93861 0.53989 0.50606 0.0
C365 C 0.86999 0.46811 0.51736 0.0
C366 C 0.96658 0.53359 0.5228 0.0
C367 C 0.94723 0.49337 0.53558 0.0
H368 H 0.59657 0.85613 0.86061 0.0
H369 H 0.51242 0.71437 0.8333 0.0
H370 H 0.44881 0.72985 0.82206 0.0
H371 H 0.42511 0.78804 0.81305 0.0
H372 H 0.51066 0.93058 0.83959 0.0
H373 H 0.56419 0.90973 0.85892 0.0
C374 C 0.56365 0.8283 0.85283 0.0
C375 C 0.55921 0.78449 0.84747 0.0
C376 C 0.52737 0.83745 0.84622 0.0
C377 C 0.51639 0.74836 0.83758 0.0
C378 C 0.48016 0.75718 0.83104 0.0
C379 C 0.45451 0.814 0.82375 0.0
C380 C 0.46427 0.86084 0.82448 0.0
C381 C 0.48628 0.80225 0.83426 0.0
C382 C 0.50212 0.89411 0.83867 0.0
C383 C 0.53336 0.88246 0.84951 0.0
H384 H 0.87863 0.51065 0.16089 0.0
H385 H 0.83171 0.59471 0.19517 0.0
H386 H 0.74916 0.53375 0.18683 0.0
H387 H 0.69304 0.46556 0.16386 0.0
H388 H 0.74021 0.38524 0.1262 0.0
H389 H 0.82038 0.43463 0.14271 0.0
C390 C 0.85014 0.51456 0.16723 0.0
C391 C 0.86061 0.55645 0.17877 0.0
C392 C 0.8032 0.48013 0.16177 0.0
C393 C 0.82397 0.56243 0.18633 0.0
C394 C 0.77703 0.52767 0.18157 0.0
C395 C 0.72019 0.4572 0.16002 0.0
C396 C 0.71079 0.42206 0.14358 0.0
C397 C 0.7664 0.48737 0.16852 0.0
C398 C 0.74669 0.41226 0.13869 0.0
C399 C 0.79259 0.44087 0.14793 0.0
H400 H 0.38032 0.81909 0.5195 0.0
H401 H 0.46949 0.818 0.46871 0.0
H402 H 0.426 0.73183 0.46713 0.0
H403 H 0.35056 0.66046 0.47262 0.0
H404 H 0.25501 0.66587 0.51876 0.0
H405 H 0.31448 0.74458 0.53119 0.0
C406 C 0.39128 0.79985 0.50875 0.0
C407 C 0.42691 0.82436 0.49379 0.0
C408 C 0.36461 0.75058 0.50709 0.0
C409 C 0.44123 0.79943 0.47997 0.0
C410 C 0.41638 0.75027 0.47907 0.0
C411 C 0.34305 0.67849 0.48573 0.0
C412 C 0.29716 0.65807 0.49355 0.0
C413 C 0.37588 0.72575 0.49133 0.0
C414 C 0.2893 0.68064 0.51172 0.0
C415 C 0.32321 0.72641 0.51868 0.0
H416 H 0.70619 0.37673 0.82712 0.0
H417 H 0.62817 0.30672 0.88458 0.0
H418 H 0.64701 0.24388 0.8793 0.0
H419 H 0.66405 0.19928 0.85195 0.0
H420 H 0.72179 0.26249 0.78921 0.0
H421 H 0.73689 0.33813 0.80365 0.0
C422 C 0.69523 0.34876 0.83906 0.0
C423 C 0.66536 0.34558 0.85597 0.0
C424 C 0.70248 0.31096 0.83467 0.0
C425 C 0.65092 0.30932 0.87134 0.0
C426 C 0.66139 0.27332 0.86817 0.0
C427 C 0.68039 0.22971 0.84148 0.0
C428 C 0.68853 0.22407 0.81895 0.0
C429 C 0.68366 0.27197 0.84881 0.0
C430 C 0.71345 0.26473 0.80637 0.0
C431 C 0.72151 0.30826 0.8145 0.0
H432 H 0.71733 1.00138 0.50187 0.0
H433 H 0.56808 0.93205 0.48364 0.0
H434 H 0.56187 0.85541 0.48842 0.0
H435 H 0.59773 0.80587 0.49874 0.0
H436 H 0.74769 0.87524 0.51537 0.0
H437 H 0.75385 0.95163 0.51039 0.0
C438 C 0.68339 0.96964 0.49883 0.0
C439 C 0.64336 0.97384 0.49227 0.0
C440 C 0.67979 0.92447 0.50148 0.0
C441 C 0.59995 0.93123 0.48851 0.0
C442 C 0.59618 0.88675 0.49132 0.0
C443 C 0.632 0.83746 0.50109 0.0
C444 C 0.67193 0.8332 0.50797 0.0
C445 C 0.63576 0.88258 0.49787 0.0
C446 C 0.71564 0.87586 0.5108 0.0
C447 C 0.71945 0.92029 0.50775 0.0
H448 H 0.8191 0.66488 0.83182 0.0
H449 H 0.7339 0.51569 0.81621 0.0
H450 H 0.803 0.50684 0.82127 0.0
H451 H 0.8884 0.53986 0.83054 0.0
H452 H 0.9757 0.68897 0.84512 0.0
H453 H 0.90658 0.69884 0.83975 0.0
C454 C 0.81553 0.63044 0.82937 0.0
C455 C 0.77 0.59111 0.82359 0.0
C456 C 0.85655 0.62524 0.83208 0.0
C457 C 0.76742 0.547 0.8206 0.0
C458 C 0.8074 0.54168 0.82353 0.0
C459 C 0.89267 0.57468 0.83263 0.0
C460 C 0.9384 0.61351 0.83833 0.0
C461 C 0.85226 0.58035 0.82938 0.0
C462 C 0.94192 0.65817 0.84051 0.0
C463 C 0.90192 0.66389 0.83757 0.0
H464 H 0.24289 0.78967 0.16457 0.0
H465 H 0.30293 0.69898 0.16025 0.0
H466 H 0.3822 0.76711 0.16504 0.0
H467 H 0.43643 0.85329 0.17075 0.0
H468 H 0.37746 0.94495 0.17437 0.0
H469 H 0.29785 0.8769 0.16933 0.0
C470 C 0.2732 0.78461 0.16464 0.0
C471 C 0.26566 0.73807 0.162 0.0
C472 C 0.31989 0.82482 0.16721 0.0
C473 C 0.30639 0.73349 0.16211 0.0
C474 C 0.35232 0.77285 0.16491 0.0
C475 C 0.40639 0.85877 0.17052 0.0
C476 C 0.41438 0.90551 0.17298 0.0
C477 C 0.3598 0.81885 0.16754 0.0
C478 C 0.3738 0.91043 0.17224 0.0
C479 C 0.32766 0.87104 0.16951 0.0
H480 H 0.69798 0.28389 0.48427 0.0
H481 H 0.56372 0.19589 0.51298 0.0
H482 H 0.55599 0.26471 0.52069 0.0
H483 H 0.58617 0.35043 0.51964 0.0
H484 H 0.71919 0.43971 0.49016 0.0
H485 H 0.72677 0.37075 0.48171 0.0
C486 C 0.66693 0.27958 0.49218 0.0
C487 C 0.63152 0.23352 0.49796 0.0
C488 C 0.66196 0.32012 0.49635 0.0
C489 C 0.5917 0.22991 0.50813 0.0
C490 C 0.58716 0.26969 0.51264 0.0
C491 C 0.61735 0.35547 0.51161 0.0
C492 C 0.65214 0.40178 0.50586 0.0
C493 C 0.62199 0.31514 0.50691 0.0
C494 C 0.69125 0.40555 0.49482 0.0
C495 C 0.69599 0.3657 0.49014 0.0
H496 H 0.50568 0.63536 0.8087 0.0
H497 H 0.48645 0.5341 0.85895 0.0
H498 H 0.41237 0.52888 0.86847 0.0
H499 H 0.35164 0.55206 0.86299 0.0
H500 H 0.36728 0.6507 0.81194 0.0
H501 H 0.44145 0.65584 0.80193 0.0
C502 C 0.48537 0.61215 0.82175 0.0
C503 C 0.50279 0.58529 0.83307 0.0
C504 C 0.44107 0.60819 0.82695 0.0
C505 C 0.47483 0.55522 0.84976 0.0
C506 C 0.43203 0.55218 0.85531 0.0
C507 C 0.37119 0.57532 0.84981 0.0
C508 C 0.35273 0.60138 0.83859 0.0
C509 C 0.4146 0.57845 0.8441 0.0
C510 C 0.37919 0.62976 0.82104 0.0
C511 C 0.42234 0.63309 0.81535 0.0
H512 H 0.95433 0.50132 0.17356 0.0
H513 H 1.02505 0.43326 0.14552 0.0
H514 H 0.95469 0.35613 0.14941 0.0
H515 H 0.87239 0.30597 0.16196 0.0
H516 H 0.8034 0.37501 0.19115 0.0
H517 H 0.87322 0.4512 0.18689 0.0
C518 C 0.95439 0.46974 0.1681 0.0
C519 C 0.99579 0.47417 0.15898 0.0
C520 C 0.91356 0.42454 0.17092 0.0
C521 C 0.99441 0.43192 0.15251 0.0
C522 C 0.95379 0.38733 0.15474 0.0
C523 C 0.87199 0.3376 0.16698 0.0
C524 C 0.83142 0.33318 0.17716 0.0
C525 C 0.91291 0.38284 0.16402 0.0
C526 C 0.83332 0.37572 0.18369 0.0
C527 C 0.87347 0.42012 0.18089 0.0
H528 H 0.14047 0.55432 0.08021 0.0
H529 H 0.10587 0.66528 0.08255 0.0
H530 H 1.10535 0.66829 0.04172 0.0
H531 H 0.11616 0.64075 0.00511 0.0
H532 H 0.1512 0.53022 0.0026 0.0
H533 H 0.15045 0.52614 0.04347 0.0
C534 C 0.13263 0.57906 0.07182 0.0
C535 C 0.12322 0.60949 0.08464 0.0
C536 C 0.1327 0.58094 0.04816 0.0
C537 C 0.11337 0.64143 0.0733 0.0
C538 C 0.11303 0.64321 0.04985 0.0
C539 C 0.12319 0.61543 0.01345 0.0
C540 C 0.13384 0.58594 1.00062 0.0
C541 C 0.12278 0.61327 0.03707 0.0
C542 C 0.14352 0.55385 0.01193 0.0
C543 C 0.14285 0.55129 0.03536 0.0
H544 H 0.58816 0.10117 0.41115 0.0
H545 H 0.73258 0.133 0.42162 0.0
H546 H 0.74043 0.13414 0.38092 0.0
H547 H 0.70552 0.12487 0.34206 0.0
H548 H 0.56037 0.09125 0.33246 0.0
H549 H 0.55366 0.09188 0.37299 0.0
C550 C 0.62154 0.10859 0.40462 0.0
C551 C 0.65979 0.11717 0.41957 0.0
C552 C 0.62561 0.10865 0.38123 0.0
C553 C 0.70252 0.12628 0.41061 0.0
C554 C 0.70703 0.12695 0.38729 0.0
C555 C 0.67254 0.11794 0.34887 0.0
C556 C 0.63341 0.10775 0.33412 0.0
C557 C 0.66874 0.11805 0.37239 0.0
C558 C 0.59083 0.09849 0.34331 0.0
C559 C 0.58701 0.09909 0.36653 0.0
H560 H 0.68774 0.65862 0.74886 0.0
H561 H 0.56446 0.51966 0.74805 0.0
H562 H 0.56128 0.51632 0.70719 0.0
H563 H 0.59326 0.55225 0.67136 0.0
H564 H 0.71635 0.69105 0.67179 0.0
H565 H 0.71939 0.69502 0.71279 0.0
C566 C 0.66011 0.62763 0.73977 0.0
C567 C 0.62647 0.58946 0.75175 0.0
C568 C 0.6583 0.62582 0.71604 0.0
C569 C 0.59092 0.54968 0.73949 0.0
C570 C 0.58903 0.54763 0.71601 0.0
C571 C 0.621 0.58326 0.6804 0.0
C572 C 0.65451 0.62126 0.66833 0.0
C573 C 0.62259 0.58537 0.70407 0.0
C574 C 0.6897 0.66143 0.68048 0.0
C575 C 0.69164 0.66365 0.70401 0.0
H576 H 0.54934 1.02367 0.55222 0.0
H577 H 0.68697 0.14564 0.56687 0.0
H578 H 0.6753 0.13569 0.60706 0.0
H579 H 0.62592 0.09299 0.63784 0.0
H580 H 0.48622 0.97409 0.62322 0.0
H581 H 0.49944 0.9815 0.58311 0.0
C582 C 0.57686 1.04802 0.5642 0.0
C583 C 0.61893 0.08538 0.55659 0.0
C584 C 0.56969 1.04247 0.58724 0.0
C585 C 0.65416 0.11673 0.57231 0.0
C586 C 0.64757 0.11101 0.59528 0.0
C587 C 0.59805 1.06898 0.62591 0.0
C588 C 0.55501 1.0332 0.63359 0.0
C589 C 0.60537 0.07419 0.6029 0.0
C590 C 0.51989 1.00164 0.61785 0.0
C591 C 0.52725 1.00608 0.59489 0.0
H592 H 0.64553 0.6443 0.89964 0.0
H593 H 0.64755 0.51499 0.88793 0.0
H594 H 0.64322 0.5006 0.92779 0.0
H595 H 0.6363 0.52254 0.96563 0.0
H596 H 0.63888 0.65348 0.97894 0.0
H597 H 0.64274 0.66869 0.93874 0.0
C598 C 0.64522 0.61314 0.90588 0.0
C599 C 0.64677 0.58082 0.89079 0.0
C600 C 0.64309 0.60502 0.92905 0.0
C601 C 0.6465 0.54061 0.89911 0.0
C602 C 0.64388 0.53216 0.92195 0.0
C603 C 0.63873 0.55499 0.95992 0.0
C604 C 0.63764 0.5869 0.97539 0.0
C605 C 0.64198 0.56396 0.93701 0.0
C606 C 0.63921 0.62798 0.96742 0.0
C607 C 0.64173 0.63688 0.94444 0.0
H608 H 1.07455 0.61889 0.22797 0.0
H609 H 0.18469 0.58279 0.22805 0.0
H610 H 0.1821 0.57527 0.26885 0.0
H611 H 0.1475 0.57776 0.30421 0.0
H612 H 1.04062 0.61857 0.30394 0.0
H613 H 1.04212 0.62406 0.26326 0.0
C614 C 1.09804 0.60934 0.23687 0.0
C615 C 0.12969 0.60127 0.22501 0.0
C616 C 1.09657 0.60543 0.26022 0.0
C617 C 0.16013 0.58934 0.23683 0.0
C618 C 0.15853 0.58488 0.26012 0.0
C619 C 0.12492 0.58845 0.29535 0.0
C620 C 1.09387 0.59756 0.30725 0.0
C621 C 0.12682 0.59279 0.27197 0.0
C622 C 1.06423 0.61044 0.29529 0.0
C623 C 1.06537 0.61405 0.27201 0.0
loop_
_geom_bond_atom_site_label_1
_geom_bond_atom_site_label_2
_geom_bond_distance
_geom_bond_site_symmetry_2
_ccdc_geom_bond_type
Tb0 C10 2.825 . S
Tb0 O11 2.347 . S
Tb0 O14 2.366 . S
Tb0 O19 2.418 . S
Tb0 O20 2.384 1_455 S
Tb0 O23 2.479 . S
Tb0 O24 2.471 . S
Eu1 O12 2.421 . S
Eu1 O13 2.384 1_655 S
Eu1 O16 2.479 . S
Eu1 O17 2.471 . S
Eu1 O18 2.347 1_655 S
Eu1 O21 2.366 . S
Eu1 C31 2.825 . S
C2 O18 1.259 . S
C2 O19 1.265 . S
C3 O20 1.255 . S
C3 O21 1.265 . S
C4 C6 1.380 . S
C4 C7 1.374 . S
C4 C10 1.507 . S
C5 C6 1.384 . S
C5 C9 1.387 . S
C5 H32 0.930 . S
C6 C4 1.380 . S
C6 C5 1.384 . S
C6 H33 0.931 . S
C7 C4 1.374 . S
C7 C8 1.390 . S
C7 H34 0.930 . S
C8 C7 1.390 . S
C8 C9 1.391 . S
C8 H35 0.930 . S
C9 C5 1.387 . S
C9 C8 1.391 . S
C10 Tb0 2.825 . S
C10 C4 1.507 . S
C10 O23 1.238 . S
C10 O24 1.247 . S
O11 Tb0 2.347 . S
O11 C15 1.259 . S
O12 Eu1 2.421 . S
O12 C15 1.254 1_655 S
O13 Eu1 2.384 1_455 S
O13 C22 1.255 . S
O14 Tb0 2.366 . S
O14 C22 1.265 . S
C15 O11 1.259 . S
C15 O12 1.254 1_455 S
O16 Eu1 2.479 . S
O16 C31 1.238 . S
O17 Eu1 2.471 . S
O17 C31 1.247 . S
O18 Eu1 2.347 1_455 S
O18 C2 1.259 . S
O19 Tb0 2.418 . S
O19 C2 1.265 . S
O20 Tb0 2.384 1_655 S
O20 C3 1.255 . S
O21 Eu1 2.366 . S
O21 C3 1.265 . S
C22 O13 1.255 . S
C22 O14 1.265 . S
O23 Tb0 2.479 . S
O23 C10 1.238 . S
O24 Tb0 2.471 . S
O24 C10 1.247 . S
C25 C28 1.380 . S
C25 C29 1.374 . S
C25 C31 1.507 . S
C26 C27 1.387 . S
C26 C30 1.391 . S
C27 C26 1.387 . S
C27 C28 1.384 . S
C27 H36 0.930 . S
C28 C25 1.380 . S
C28 C27 1.384 . S
C28 H37 0.931 . S
C29 C25 1.374 . S
C29 C30 1.390 . S
C29 H38 0.930 . S
C30 C26 1.391 . S
C30 C29 1.390 . S
C30 H39 0.930 . S
C31 Eu1 2.825 . S
C31 O16 1.238 . S
C31 O17 1.247 . S
C31 C25 1.507 . S
H32 C5 0.930 . S
H33 C6 0.931 . S
H34 C7 0.930 . S
H35 C8 0.930 . S
H36 C27 0.930 . S
H37 C28 0.931 . S
H38 C29 0.930 . S
H39 C30 0.930 . S
Tb40 C50 2.825 . S
Tb40 O51 2.347 . S
Tb40 O54 2.366 . S
Tb40 O59 2.418 . S
Tb40 O60 2.384 1_545 S
Tb40 O63 2.479 . S
Tb40 O64 2.471 . S
Eu41 O52 2.418 . S
Eu41 O53 2.384 . S
Eu41 O56 2.479 1_545 S
Eu41 O57 2.471 1_545 S
Eu41 O58 2.347 . S
Eu41 O61 2.366 1_545 S
Eu41 C71 2.825 1_545 S
C42 O58 1.259 . S
C42 O59 1.265 . S
C43 O60 1.255 . S
C43 O61 1.265 . S
C44 C46 1.380 . S
C44 C47 1.374 . S
C44 C50 1.507 . S
C45 C46 1.384 . S
C45 C49 1.387 . S
C45 H72 0.930 . S
C46 C44 1.380 . S
C46 C45 1.384 . S
C46 H73 0.931 . S
C47 C44 1.374 . S
C47 C48 1.390 . S
C47 H74 0.930 . S
C48 C47 1.390 . S
C48 C49 1.391 . S
C48 H75 0.930 . S
C49 C45 1.387 . S
C49 C48 1.391 . S
C50 Tb40 2.825 . S
C50 C44 1.507 . S
C50 O63 1.238 . S
C50 O64 1.247 . S
O51 Tb40 2.347 . S
O51 C55 1.259 . S
O52 Eu41 2.418 . S
O52 C55 1.265 . S
O53 Eu41 2.384 . S
O53 C62 1.255 . S
O54 Tb40 2.366 . S
O54 C62 1.265 . S
C55 O51 1.259 . S
C55 O52 1.265 . S
O56 Eu41 2.479 1_565 S
O56 C71 1.238 . S
O57 Eu41 2.471 1_565 S
O57 C71 1.247 . S
O58 Eu41 2.347 . S
O58 C42 1.259 . S
O59 Tb40 2.418 . S
O59 C42 1.265 . S
O60 Tb40 2.384 1_565 S
O60 C43 1.255 . S
O61 Eu41 2.366 1_565 S
O61 C43 1.265 . S
C62 O53 1.255 . S
C62 O54 1.265 . S
O63 Tb40 2.479 . S
O63 C50 1.238 . S
O64 Tb40 2.471 . S
O64 C50 1.247 . S
C65 C68 1.380 . S
C65 C69 1.374 . S
C65 C71 1.507 . S
C66 C67 1.387 . S
C66 C70 1.391 . S
C67 C66 1.387 . S
C67 C68 1.384 . S
C67 H76 0.930 . S
C68 C65 1.380 . S
C68 C67 1.384 . S
C68 H77 0.931 . S
C69 C65 1.374 . S
C69 C70 1.390 . S
C69 H78 0.930 . S
C70 C66 1.391 . S
C70 C69 1.390 . S
C70 H79 0.930 . S
C71 Eu41 2.825 1_565 S
C71 O56 1.238 . S
C71 O57 1.247 . S
C71 C65 1.507 . S
H72 C45 0.930 . S
H73 C46 0.931 . S
H74 C47 0.930 . S
H75 C48 0.930 . S
H76 C67 0.930 . S
H77 C68 0.931 . S
H78 C69 0.930 . S
H79 C70 0.930 . S
Tb80 C90 2.825 . S
Tb80 O91 2.347 . S
Tb80 O94 2.366 . S
Tb80 O99 2.418 . S
Tb80 O100 2.384 . S
Tb80 O103 2.479 . S
Tb80 O104 2.471 . S
Eu81 O92 2.418 . S
Eu81 O93 2.384 . S
Eu81 O96 2.479 . S
Eu81 O97 2.471 . S
Eu81 O98 2.347 . S
Eu81 O101 2.366 . S
Eu81 C111 2.825 . S
C82 O98 1.259 . S
C82 O99 1.265 . S
C83 O100 1.255 . S
C83 O101 1.265 . S
C84 C86 1.380 . S
C84 C87 1.374 . S
C84 C90 1.507 . S
C85 C86 1.384 . S
C85 C89 1.387 . S
C85 H112 0.930 . S
C86 C84 1.380 . S
C86 C85 1.384 . S
C86 H113 0.931 . S
C87 C84 1.374 . S
C87 C88 1.390 . S
C87 H114 0.930 . S
C88 C87 1.390 . S
C88 C89 1.391 . S
C88 H115 0.930 . S
C89 C85 1.387 . S
C89 C88 1.391 . S
C90 Tb80 2.825 . S
C90 C84 1.507 . S
C90 O103 1.238 . S
C90 O104 1.247 . S
O91 Tb80 2.347 . S
O91 C95 1.259 . S
O92 Eu81 2.418 . S
O92 C95 1.265 . S
O93 Eu81 2.384 . S
O93 C102 1.255 . S
O94 Tb80 2.366 . S
O94 C102 1.265 . S
C95 O91 1.259 . S
C95 O92 1.265 . S
O96 Eu81 2.479 . S
O96 C111 1.238 . S
O97 Eu81 2.471 . S
O97 C111 1.247 . S
O98 Eu81 2.347 . S
O98 C82 1.259 . S
O99 Tb80 2.418 . S
O99 C82 1.265 . S
O100 Tb80 2.384 . S
O100 C83 1.255 . S
O101 Eu81 2.366 . S
O101 C83 1.265 . S
C102 O93 1.255 . S
C102 O94 1.265 . S
O103 Tb80 2.479 . S
O103 C90 1.238 . S
O104 Tb80 2.471 . S
O104 C90 1.247 . S
C105 C108 1.380 . S
C105 C109 1.374 . S
C105 C111 1.507 . S
C106 C107 1.387 . S
C106 C110 1.391 . S
C107 C106 1.387 . S
C107 C108 1.384 . S
C107 H116 0.930 . S
C108 C105 1.380 . S
C108 C107 1.384 . S
C108 H117 0.931 . S
C109 C105 1.374 . S
C109 C110 1.390 . S
C109 H118 0.930 . S
C110 C106 1.391 . S
C110 C109 1.390 . S
C110 H119 0.930 . S
C111 Eu81 2.825 . S
C111 O96 1.238 . S
C111 O97 1.247 . S
C111 C105 1.507 . S
H112 C85 0.930 . S
H113 C86 0.931 . S
H114 C87 0.930 . S
H115 C88 0.930 . S
H116 C107 0.930 . S
H117 C108 0.931 . S
H118 C109 0.930 . S
H119 C110 0.930 . S
C120 C121 1.384 . S
C120 H133 0.947 . S
C120 C155 1.382 . S
C121 C120 1.384 . S
C121 C122 1.378 . S
C122 C121 1.378 . S
C122 C123 1.378 . S
C122 H134 0.952 . S
C123 C122 1.378 . S
C123 H135 0.950 . S
C123 C154 1.383 . S
H124 C143 0.947 . S
H125 C144 0.946 . S
H126 C146 0.953 . S
H127 C147 0.945 . S
H128 C149 0.952 . S
H129 C150 0.949 . S
H130 C152 0.950 . S
H131 C153 0.948 . S
H132 C155 0.951 . S
H133 C120 0.947 . S
H134 C122 0.952 . S
H135 C123 0.950 . S
N136 C139 1.382 . S
N136 C141 1.363 1_545 S
N137 C139 1.371 . S
N137 C140 1.372 . S
N138 C140 1.361 1_565 S
N138 C141 1.377 . S
C139 N136 1.382 . S
C139 N137 1.371 . S
C139 C142 1.480 . S
C140 N137 1.372 . S
C140 N138 1.361 1_545 S
C140 C148 1.457 . S
C141 N136 1.363 1_565 S
C141 N138 1.377 . S
C141 C154 1.479 . S
C142 C139 1.480 . S
C142 C143 1.383 . S
C142 C147 1.385 . S
C143 H124 0.947 . S
C143 C142 1.383 . S
C143 C144 1.388 . S
C144 H125 0.946 . S
C144 C143 1.388 . S
C144 C145 1.384 . S
C145 C144 1.384 . S
C145 C146 1.377 . S
C146 H126 0.953 . S
C146 C145 1.377 . S
C146 C147 1.369 . S
C147 H127 0.945 . S
C147 C142 1.385 . S
C147 C146 1.369 . S
C148 C140 1.457 . S
C148 C149 1.372 . S
C148 C153 1.364 1_545 S
C149 H128 0.952 . S
C149 C148 1.372 . S
C149 C150 1.389 . S
C150 H129 0.949 . S
C150 C149 1.389 . S
C150 C151 1.387 . S
C151 C150 1.387 . S
C151 C152 1.372 1_545 S
C152 H130 0.950 . S
C152 C151 1.372 1_565 S
C152 C153 1.379 . S
C153 H131 0.948 . S
C153 C148 1.364 1_565 S
C153 C152 1.379 . S
C154 C123 1.383 . S
C154 C141 1.479 . S
C154 C155 1.398 . S
C155 C120 1.382 . S
C155 H132 0.951 . S
C155 C154 1.398 . S
C156 C157 1.384 . S
C156 H169 0.947 . S
C156 C191 1.382 . S
C157 C156 1.384 . S
C157 C158 1.378 . S
C158 C157 1.378 . S
C158 C159 1.378 . S
C158 H170 0.952 . S
C159 C158 1.378 . S
C159 H171 0.950 . S
C159 C190 1.383 . S
H160 C179 0.947 . S
H161 C180 0.946 . S
H162 C182 0.953 . S
H163 C183 0.945 . S
H164 C185 0.952 . S
H165 C186 0.949 . S
H166 C188 0.950 . S
H167 C189 0.948 . S
H168 C191 0.951 . S
H169 C156 0.947 . S
H170 C158 0.952 . S
H171 C159 0.950 . S
N172 C175 1.382 . S
N172 C177 1.363 . S
N173 C175 1.371 . S
N173 C176 1.372 . S
N174 C176 1.361 . S
N174 C177 1.377 . S
C175 N172 1.382 . S
C175 N173 1.371 . S
C175 C178 1.480 . S
C176 N173 1.372 . S
C176 N174 1.361 . S
C176 C184 1.457 . S
C177 N172 1.363 . S
C177 N174 1.377 . S
C177 C190 1.479 . S
C178 C175 1.480 . S
C178 C179 1.383 . S
C178 C183 1.385 . S
C179 H160 0.947 . S
C179 C178 1.383 . S
C179 C180 1.388 . S
C180 H161 0.946 . S
C180 C179 1.388 . S
C180 C181 1.384 . S
C181 C180 1.384 . S
C181 C182 1.377 . S
C182 H162 0.953 . S
C182 C181 1.377 . S
C182 C183 1.369 . S
C183 H163 0.945 . S
C183 C178 1.385 . S
C183 C182 1.369 . S
C184 C176 1.457 . S
C184 C185 1.372 . S
C184 C189 1.364 . S
C185 H164 0.952 . S
C185 C184 1.372 . S
C185 C186 1.389 . S
C186 H165 0.949 . S
C186 C185 1.389 . S
C186 C187 1.387 . S
C187 C186 1.387 . S
C187 C188 1.372 . S
C188 H166 0.950 . S
C188 C187 1.372 . S
C188 C189 1.379 . S
C189 H167 0.948 . S
C189 C184 1.364 . S
C189 C188 1.379 . S
C190 C159 1.383 . S
C190 C177 1.479 . S
C190 C191 1.398 . S
C191 C156 1.382 . S
C191 H168 0.951 . S
C191 C190 1.398 . S
C192 C193 1.384 . S
C192 H205 0.947 . S
C192 C227 1.382 . S
C193 C192 1.384 . S
C193 C194 1.378 . S
C194 C193 1.378 . S
C194 C195 1.378 . S
C194 H206 0.952 . S
C195 C194 1.378 . S
C195 H207 0.950 . S
C195 C226 1.383 . S
H196 C215 0.947 . S
H197 C216 0.946 . S
H198 C218 0.953 . S
H199 C219 0.945 . S
H200 C221 0.952 . S
H201 C222 0.949 . S
H202 C224 0.950 . S
H203 C225 0.948 . S
H204 C227 0.951 . S
H205 C192 0.947 . S
H206 C194 0.952 . S
H207 C195 0.950 . S
N208 C211 1.382 . S
N208 C213 1.363 1_455 S
N209 C211 1.371 . S
N209 C212 1.372 . S
N210 C212 1.361 1_655 S
N210 C213 1.377 . S
C211 N208 1.382 . S
C211 N209 1.371 . S
C211 C214 1.480 . S
C212 N209 1.372 . S
C212 N210 1.361 1_455 S
C212 C220 1.457 . S
C213 N208 1.363 1_655 S
C213 N210 1.377 . S
C213 C226 1.479 . S
C214 C211 1.480 . S
C214 C215 1.383 . S
C214 C219 1.385 . S
C215 H196 0.947 . S
C215 C214 1.383 . S
C215 C216 1.388 . S
C216 H197 0.946 . S
C216 C215 1.388 . S
C216 C217 1.384 . S
C217 C216 1.384 . S
C217 C218 1.377 . S
C218 H198 0.953 . S
C218 C217 1.377 . S
C218 C219 1.369 . S
C219 H199 0.945 . S
C219 C214 1.385 . S
C219 C218 1.369 . S
C220 C212 1.457 . S
C220 C221 1.372 . S
C220 C225 1.364 1_455 S
C221 H200 0.952 . S
C221 C220 1.372 . S
C221 C222 1.389 . S
C222 H201 0.949 . S
C222 C221 1.389 . S
C222 C223 1.387 . S
C223 C222 1.387 . S
C223 C224 1.372 1_455 S
C224 H202 0.950 . S
C224 C223 1.372 1_655 S
C224 C225 1.379 . S
C225 H203 0.948 . S
C225 C220 1.364 1_655 S
C225 C224 1.379 . S
C226 C195 1.383 . S
C226 C213 1.479 . S
C226 C227 1.398 . S
C227 C192 1.382 . S
C227 H204 0.951 . S
C227 C226 1.398 . S
C228 C229 1.384 . S
C228 H241 0.947 . S
C228 C263 1.382 . S
C229 C228 1.384 . S
C229 C230 1.378 . S
C230 C229 1.378 . S
C230 C231 1.378 . S
C230 H242 0.952 . S
C231 C230 1.378 . S
C231 H243 0.950 . S
C231 C262 1.383 . S
H232 C251 0.947 . S
H233 C252 0.946 . S
H234 C254 0.953 . S
H235 C255 0.945 . S
H236 C257 0.952 . S
H237 C258 0.949 . S
H238 C260 0.950 . S
H239 C261 0.948 . S
H240 C263 0.951 . S
H241 C228 0.947 . S
H242 C230 0.952 . S
H243 C231 0.950 . S
N244 C247 1.382 1_455 S
N244 C249 1.363 . S
N245 C247 1.371 . S
N245 C248 1.372 1_655 S
N246 C248 1.361 . S
N246 C249 1.377 . S
C247 N244 1.382 1_655 S
C247 N245 1.371 . S
C247 C250 1.480 . S
C248 N245 1.372 1_455 S
C248 N246 1.361 . S
C248 C256 1.457 . S
C249 N244 1.363 . S
C249 N246 1.377 . S
C249 C262 1.479 . S
C250 C247 1.480 . S
C250 C251 1.383 . S
C250 C255 1.385 . S
C251 H232 0.947 . S
C251 C250 1.383 . S
C251 C252 1.388 . S
C252 H233 0.946 . S
C252 C251 1.388 . S
C252 C253 1.384 . S
C253 C252 1.384 . S
C253 C254 1.377 . S
C254 H234 0.953 . S
C254 C253 1.377 . S
C254 C255 1.369 . S
C255 H235 0.945 . S
C255 C250 1.385 . S
C255 C254 1.369 . S
C256 C248 1.457 . S
C256 C257 1.372 1_455 S
C256 C261 1.364 . S
C257 H236 0.952 . S
C257 C256 1.372 1_655 S
C257 C258 1.389 . S
C258 H237 0.949 . S
C258 C257 1.389 . S
C258 C259 1.387 1_655 S
C259 C258 1.387 1_455 S
C259 C260 1.372 . S
C260 H238 0.950 . S
C260 C259 1.372 . S
C260 C261 1.379 . S
C261 H239 0.948 . S
C261 C256 1.364 . S
C261 C260 1.379 . S
C262 C231 1.383 . S
C262 C249 1.479 . S
C262 C263 1.398 . S
C263 C228 1.382 . S
C263 H240 0.951 . S
C263 C262 1.398 . S
C264 C265 1.384 . S
C264 H277 0.947 . S
C264 C299 1.382 . S
C265 C264 1.384 . S
C265 C266 1.378 . S
C266 C265 1.378 . S
C266 C267 1.378 . S
C266 H278 0.952 . S
C267 C266 1.378 . S
C267 H279 0.950 . S
C267 C298 1.383 . S
H268 C287 0.947 . S
H269 C288 0.946 . S
H270 C290 0.953 . S
H271 C291 0.945 . S
H272 C293 0.952 . S
H273 C294 0.949 . S
H274 C296 0.950 . S
H275 C297 0.948 . S
H276 C299 0.951 . S
H277 C264 0.947 . S
H278 C266 0.952 . S
H279 C267 0.950 . S
N280 C283 1.382 1_545 S
N280 C285 1.363 . S
N281 C283 1.371 . S
N281 C284 1.372 1_565 S
N282 C284 1.361 . S
N282 C285 1.377 . S
C283 N280 1.382 1_565 S
C283 N281 1.371 . S
C283 C286 1.480 . S
C284 N281 1.372 1_545 S
C284 N282 1.361 . S
C284 C292 1.457 . S
C285 N280 1.363 . S
C285 N282 1.377 . S
C285 C298 1.479 . S
C286 C283 1.480 . S
C286 C287 1.383 . S
C286 C291 1.385 . S
C287 H268 0.947 . S
C287 C286 1.383 . S
C287 C288 1.388 . S
C288 H269 0.946 . S
C288 C287 1.388 . S
C288 C289 1.384 . S
C289 C288 1.384 . S
C289 C290 1.377 . S
C290 H270 0.953 . S
C290 C289 1.377 . S
C290 C291 1.369 . S
C291 H271 0.945 . S
C291 C286 1.385 . S
C291 C290 1.369 . S
C292 C284 1.457 . S
C292 C293 1.372 1_545 S
C292 C297 1.364 . S
C293 H272 0.952 . S
C293 C292 1.372 1_565 S
C293 C294 1.389 . S
C294 H273 0.949 . S
C294 C293 1.389 . S
C294 C295 1.387 1_565 S
C295 C294 1.387 1_545 S
C295 C296 1.372 . S
C296 H274 0.950 . S
C296 C295 1.372 . S
C296 C297 1.379 . S
C297 H275 0.948 . S
C297 C292 1.364 . S
C297 C296 1.379 . S
C298 C267 1.383 . S
C298 C285 1.479 . S
C298 C299 1.398 . S
C299 C264 1.382 . S
C299 H276 0.951 . S
C299 C298 1.398 . S
C300 C301 1.384 . S
C300 H313 0.947 . S
C300 C335 1.382 . S
C301 C300 1.384 . S
C301 C302 1.378 . S
C302 C301 1.378 . S
C302 C303 1.378 . S
C302 H314 0.952 . S
C303 C302 1.378 . S
C303 H315 0.950 . S
C303 C334 1.383 . S
H304 C323 0.947 . S
H305 C324 0.946 . S
H306 C326 0.953 . S
H307 C327 0.945 . S
H308 C329 0.952 . S
H309 C330 0.949 1_556 S
H310 C332 0.950 1_556 S
H311 C333 0.948 . S
H312 C335 0.951 . S
H313 C300 0.947 . S
H314 C302 0.952 . S
H315 C303 0.950 . S
N316 C319 1.382 . S
N316 C321 1.363 . S
N317 C319 1.371 . S
N317 C320 1.372 . S
N318 C320 1.361 . S
N318 C321 1.377 . S
C319 N316 1.382 . S
C319 N317 1.371 . S
C319 C322 1.480 . S
C320 N317 1.372 . S
C320 N318 1.361 . S
C320 C328 1.457 . S
C321 N316 1.363 . S
C321 N318 1.377 . S
C321 C334 1.479 . S
C322 C319 1.480 . S
C322 C323 1.383 . S
C322 C327 1.385 . S
C323 H304 0.947 . S
C323 C322 1.383 . S
C323 C324 1.388 . S
C324 H305 0.946 . S
C324 C323 1.388 . S
C324 C325 1.384 . S
C325 C324 1.384 . S
C325 C326 1.377 . S
C326 H306 0.953 . S
C326 C325 1.377 . S
C326 C327 1.369 . S
C327 H307 0.945 . S
C327 C322 1.385 . S
C327 C326 1.369 . S
C328 C320 1.457 . S
C328 C329 1.372 . S
C328 C333 1.364 . S
C329 H308 0.952 . S
C329 C328 1.372 . S
C329 C330 1.389 . S
C330 H309 0.949 1_554 S
C330 C329 1.389 . S
C330 C331 1.387 1_554 S
C331 C330 1.387 1_556 S
C331 C332 1.372 1_556 S
C332 H310 0.950 1_554 S
C332 C331 1.372 1_554 S
C332 C333 1.379 . S
C333 H311 0.948 . S
C333 C328 1.364 . S
C333 C332 1.379 . S
C334 C303 1.383 . S
C334 C321 1.479 . S
C334 C335 1.398 . S
C335 C300 1.382 . S
C335 H312 0.951 . S
C335 C334 1.398 . S
H336 C342 0.930 . S
H337 C345 0.930 . S
H338 C346 0.930 . S
H339 C347 0.930 . S
H340 C350 0.930 . S
H341 C351 0.930 . S
C342 H336 0.930 . S
C342 C343 1.355 . S
C342 C344 1.415 . S
C343 C342 1.355 . S
C343 C345 1.419 . S
C344 C342 1.415 . S
C344 C349 1.425 . S
C344 C351 1.409 . S
C345 H337 0.930 . S
C345 C343 1.419 . S
C345 C346 1.362 . S
C346 H338 0.930 . S
C346 C345 1.362 . S
C346 C349 1.409 . S
C347 H339 0.930 . S
C347 C348 1.355 . S
C347 C349 1.415 . S
C348 C347 1.355 . S
C348 C350 1.419 . S
C349 C344 1.425 . S
C349 C346 1.409 . S
C349 C347 1.415 . S
C350 H340 0.930 . S
C350 C348 1.419 . S
C350 C351 1.362 . S
C351 H341 0.930 . S
C351 C344 1.409 . S
C351 C350 1.362 . S
H352 C358 0.930 . S
H353 C361 0.930 . S
H354 C362 0.930 . S
H355 C363 0.930 . S
H356 C366 0.930 . S
H357 C367 0.930 . S
C358 H352 0.930 . S
C358 C359 1.355 . S
C358 C360 1.415 . S
C359 C358 1.355 . S
C359 C361 1.419 . S
C360 C358 1.415 . S
C360 C365 1.425 . S
C360 C367 1.409 . S
C361 H353 0.930 . S
C361 C359 1.419 . S
C361 C362 1.362 . S
C362 H354 0.930 . S
C362 C361 1.362 . S
C362 C365 1.409 . S
C363 H355 0.930 . S
C363 C364 1.355 . S
C363 C365 1.415 . S
C364 C363 1.355 . S
C364 C366 1.419 . S
C365 C360 1.425 . S
C365 C362 1.409 . S
C365 C363 1.415 . S
C366 H356 0.930 . S
C366 C364 1.419 . S
C366 C367 1.362 . S
C367 H357 0.930 . S
C367 C360 1.409 . S
C367 C366 1.362 . S
H368 C374 0.930 . S
H369 C377 0.930 . S
H370 C378 0.930 . S
H371 C379 0.930 . S
H372 C382 0.930 . S
H373 C383 0.930 . S
C374 H368 0.930 . S
C374 C375 1.355 . S
C374 C376 1.415 . S
C375 C374 1.355 . S
C375 C377 1.419 . S
C376 C374 1.415 . S
C376 C381 1.425 . S
C376 C383 1.409 . S
C377 H369 0.930 . S
C377 C375 1.419 . S
C377 C378 1.362 . S
C378 H370 0.930 . S
C378 C377 1.362 . S
C378 C381 1.409 . S
C379 H371 0.930 . S
C379 C380 1.355 . S
C379 C381 1.415 . S
C380 C379 1.355 . S
C380 C382 1.419 . S
C381 C376 1.425 . S
C381 C378 1.409 . S
C381 C379 1.415 . S
C382 H372 0.930 . S
C382 C380 1.419 . S
C382 C383 1.362 . S
C383 H373 0.930 . S
C383 C376 1.409 . S
C383 C382 1.362 . S
H384 C390 0.930 . S
H385 C393 0.930 . S
H386 C394 0.930 . S
H387 C395 0.930 . S
H388 C398 0.930 . S
H389 C399 0.930 . S
C390 H384 0.930 . S
C390 C391 1.355 . S
C390 C392 1.415 . S
C391 C390 1.355 . S
C391 C393 1.419 . S
C392 C390 1.415 . S
C392 C397 1.425 . S
C392 C399 1.409 . S
C393 H385 0.930 . S
C393 C391 1.419 . S
C393 C394 1.362 . S
C394 H386 0.930 . S
C394 C393 1.362 . S
C394 C397 1.409 . S
C395 H387 0.930 . S
C395 C396 1.355 . S
C395 C397 1.415 . S
C396 C395 1.355 . S
C396 C398 1.419 . S
C397 C392 1.425 . S
C397 C394 1.409 . S
C397 C395 1.415 . S
C398 H388 0.930 . S
C398 C396 1.419 . S
C398 C399 1.362 . S
C399 H389 0.930 . S
C399 C392 1.409 . S
C399 C398 1.362 . S
H400 C406 0.930 . S
H401 C409 0.930 . S
H402 C410 0.930 . S
H403 C411 0.930 . S
H404 C414 0.930 . S
H405 C415 0.930 . S
C406 H400 0.930 . S
C406 C407 1.355 . S
C406 C408 1.415 . S
C407 C406 1.355 . S
C407 C409 1.419 . S
C408 C406 1.415 . S
C408 C413 1.425 . S
C408 C415 1.409 . S
C409 H401 0.930 . S
C409 C407 1.419 . S
C409 C410 1.362 . S
C410 H402 0.930 . S
C410 C409 1.362 . S
C410 C413 1.409 . S
C411 H403 0.930 . S
C411 C412 1.355 . S
C411 C413 1.415 . S
C412 C411 1.355 . S
C412 C414 1.419 . S
C413 C408 1.425 . S
C413 C410 1.409 . S
C413 C411 1.415 . S
C414 H404 0.930 . S
C414 C412 1.419 . S
C414 C415 1.362 . S
C415 H405 0.930 . S
C415 C408 1.409 . S
C415 C414 1.362 . S
H416 C422 0.930 . S
H417 C425 0.930 . S
H418 C426 0.930 . S
H419 C427 0.930 . S
H420 C430 0.930 . S
H421 C431 0.930 . S
C422 H416 0.930 . S
C422 C423 1.355 . S
C422 C424 1.415 . S
C423 C422 1.355 . S
C423 C425 1.419 . S
C424 C422 1.415 . S
C424 C429 1.425 . S
C424 C431 1.409 . S
C425 H417 0.930 . S
C425 C423 1.419 . S
C425 C426 1.362 . S
C426 H418 0.930 . S
C426 C425 1.362 . S
C426 C429 1.409 . S
C427 H419 0.930 . S
C427 C428 1.355 . S
C427 C429 1.415 . S
C428 C427 1.355 . S
C428 C430 1.419 . S
C429 C424 1.425 . S
C429 C426 1.409 . S
C429 C427 1.415 . S
C430 H420 0.930 . S
C430 C428 1.419 . S
C430 C431 1.362 . S
C431 H421 0.930 . S
C431 C424 1.409 . S
C431 C430 1.362 . S
H432 C438 0.930 . S
H433 C441 0.930 . S
H434 C442 0.930 . S
H435 C443 0.930 . S
H436 C446 0.930 . S
H437 C447 0.930 . S
C438 H432 0.930 . S
C438 C439 1.355 . S
C438 C440 1.415 . S
C439 C438 1.355 . S
C439 C441 1.419 . S
C440 C438 1.415 . S
C440 C445 1.425 . S
C440 C447 1.409 . S
C441 H433 0.930 . S
C441 C439 1.419 . S
C441 C442 1.362 . S
C442 H434 0.930 . S
C442 C441 1.362 . S
C442 C445 1.409 . S
C443 H435 0.930 . S
C443 C444 1.355 . S
C443 C445 1.415 . S
C444 C443 1.355 . S
C444 C446 1.419 . S
C445 C440 1.425 . S
C445 C442 1.409 . S
C445 C443 1.415 . S
C446 H436 0.930 . S
C446 C444 1.419 . S
C446 C447 1.362 . S
C447 H437 0.930 . S
C447 C440 1.409 . S
C447 C446 1.362 . S
H448 C454 0.930 . S
H449 C457 0.930 . S
H450 C458 0.930 . S
H451 C459 0.930 . S
H452 C462 0.930 . S
H453 C463 0.930 . S
C454 H448 0.930 . S
C454 C455 1.355 . S
C454 C456 1.415 . S
C455 C454 1.355 . S
C455 C457 1.419 . S
C456 C454 1.415 . S
C456 C461 1.425 . S
C456 C463 1.409 . S
C457 H449 0.930 . S
C457 C455 1.419 . S
C457 C458 1.362 . S
C458 H450 0.930 . S
C458 C457 1.362 . S
C458 C461 1.409 . S
C459 H451 0.930 . S
C459 C460 1.355 . S
C459 C461 1.415 . S
C460 C459 1.355 . S
C460 C462 1.419 . S
C461 C456 1.425 . S
C461 C458 1.409 . S
C461 C459 1.415 . S
C462 H452 0.930 . S
C462 C460 1.419 . S
C462 C463 1.362 . S
C463 H453 0.930 . S
C463 C456 1.409 . S
C463 C462 1.362 . S
H464 C470 0.930 . S
H465 C473 0.930 . S
H466 C474 0.930 . S
H467 C475 0.930 . S
H468 C478 0.930 . S
H469 C479 0.930 . S
C470 H464 0.930 . S
C470 C471 1.355 . S
C470 C472 1.415 . S
C471 C470 1.355 . S
C471 C473 1.419 . S
C472 C470 1.415 . S
C472 C477 1.425 . S
C472 C479 1.409 . S
C473 H465 0.930 . S
C473 C471 1.419 . S
C473 C474 1.362 . S
C474 H466 0.930 . S
C474 C473 1.362 . S
C474 C477 1.409 . S
C475 H467 0.930 . S
C475 C476 1.355 . S
C475 C477 1.415 . S
C476 C475 1.355 . S
C476 C478 1.419 . S
C477 C472 1.425 . S
C477 C474 1.409 . S
C477 C475 1.415 . S
C478 H468 0.930 . S
C478 C476 1.419 . S
C478 C479 1.362 . S
C479 H469 0.930 . S
C479 C472 1.409 . S
C479 C478 1.362 . S
H480 C486 0.930 . S
H481 C489 0.930 . S
H482 C490 0.930 . S
H483 C491 0.930 . S
H484 C494 0.930 . S
H485 C495 0.930 . S
C486 H480 0.930 . S
C486 C487 1.355 . S
C486 C488 1.415 . S
C487 C486 1.355 . S
C487 C489 1.419 . S
C488 C486 1.415 . S
C488 C493 1.425 . S
C488 C495 1.409 . S
C489 H481 0.930 . S
C489 C487 1.419 . S
C489 C490 1.362 . S
C490 H482 0.930 . S
C490 C489 1.362 . S
C490 C493 1.409 . S
C491 H483 0.930 . S
C491 C492 1.355 . S
C491 C493 1.415 . S
C492 C491 1.355 . S
C492 C494 1.419 . S
C493 C488 1.425 . S
C493 C490 1.409 . S
C493 C491 1.415 . S
C494 H484 0.930 . S
C494 C492 1.419 . S
C494 C495 1.362 . S
C495 H485 0.930 . S
C495 C488 1.409 . S
C495 C494 1.362 . S
H496 C502 0.930 . S
H497 C505 0.930 . S
H498 C506 0.930 . S
H499 C507 0.930 . S
H500 C510 0.930 . S
H501 C511 0.930 . S
C502 H496 0.930 . S
C502 C503 1.355 . S
C502 C504 1.415 . S
C503 C502 1.355 . S
C503 C505 1.419 . S
C504 C502 1.415 . S
C504 C509 1.425 . S
C504 C511 1.409 . S
C505 H497 0.930 . S
C505 C503 1.419 . S
C505 C506 1.362 . S
C506 H498 0.930 . S
C506 C505 1.362 . S
C506 C509 1.409 . S
C507 H499 0.930 . S
C507 C508 1.355 . S
C507 C509 1.415 . S
C508 C507 1.355 . S
C508 C510 1.419 . S
C509 C504 1.425 . S
C509 C506 1.409 . S
C509 C507 1.415 . S
C510 H500 0.930 . S
C510 C508 1.419 . S
C510 C511 1.362 . S
C511 H501 0.930 . S
C511 C504 1.409 . S
C511 C510 1.362 . S
H512 C518 0.930 . S
H513 C521 0.930 . S
H514 C522 0.930 . S
H515 C523 0.930 . S
H516 C526 0.930 . S
H517 C527 0.930 . S
C518 H512 0.930 . S
C518 C519 1.355 . S
C518 C520 1.415 . S
C519 C518 1.355 . S
C519 C521 1.419 . S
C520 C518 1.415 . S
C520 C525 1.425 . S
C520 C527 1.409 . S
C521 H513 0.930 . S
C521 C519 1.419 . S
C521 C522 1.362 . S
C522 H514 0.930 . S
C522 C521 1.362 . S
C522 C525 1.409 . S
C523 H515 0.930 . S
C523 C524 1.355 . S
C523 C525 1.415 . S
C524 C523 1.355 . S
C524 C526 1.419 . S
C525 C520 1.425 . S
C525 C522 1.409 . S
C525 C523 1.415 . S
C526 H516 0.930 . S
C526 C524 1.419 . S
C526 C527 1.362 . S
C527 H517 0.930 . S
C527 C520 1.409 . S
C527 C526 1.362 . S
H528 C534 0.930 . S
H529 C537 0.930 . S
H530 C538 0.930 . S
H531 C539 0.930 1_655 S
H532 C542 0.930 . S
H533 C543 0.930 . S
C534 H528 0.930 . S
C534 C535 1.355 . S
C534 C536 1.415 . S
C535 C534 1.355 . S
C535 C537 1.419 1_455 S
C536 C534 1.415 . S
C536 C541 1.425 . S
C536 C543 1.409 . S
C537 H529 0.930 . S
C537 C535 1.419 1_655 S
C537 C538 1.362 . S
C538 H530 0.930 . S
C538 C537 1.362 . S
C538 C541 1.409 1_655 S
C539 H531 0.930 1_455 S
C539 C540 1.355 . S
C539 C541 1.415 . S
C540 C539 1.355 . S
C540 C542 1.419 . S
C541 C536 1.425 . S
C541 C538 1.409 1_455 S
C541 C539 1.415 . S
C542 H532 0.930 . S
C542 C540 1.419 . S
C542 C543 1.362 . S
C543 H533 0.930 . S
C543 C536 1.409 . S
C543 C542 1.362 . S
H544 C550 0.930 . S
H545 C553 0.930 1_565 S
H546 C554 0.930 1_565 S
H547 C555 0.930 . S
H548 C558 0.930 . S
H549 C559 0.930 . S
C550 H544 0.930 . S
C550 C551 1.355 . S
C550 C552 1.415 . S
C551 C550 1.355 . S
C551 C553 1.419 . S
C552 C550 1.415 . S
C552 C557 1.425 . S
C552 C559 1.409 . S
C553 H545 0.930 1_545 S
C553 C551 1.419 . S
C553 C554 1.362 . S
C554 H546 0.930 1_545 S
C554 C553 1.362 . S
C554 C557 1.409 . S
C555 H547 0.930 . S
C555 C556 1.355 . S
C555 C557 1.415 . S
C556 C555 1.355 . S
C556 C558 1.419 . S
C557 C552 1.425 . S
C557 C554 1.409 . S
C557 C555 1.415 . S
C558 H548 0.930 . S
C558 C556 1.419 . S
C558 C559 1.362 . S
C559 H549 0.930 . S
C559 C552 1.409 . S
C559 C558 1.362 . S
H560 C566 0.930 . S
H561 C569 0.930 . S
H562 C570 0.930 . S
H563 C571 0.930 . S
H564 C574 0.930 . S
H565 C575 0.930 . S
C566 H560 0.930 . S
C566 C567 1.355 . S
C566 C568 1.415 . S
C567 C566 1.355 . S
C567 C569 1.419 . S
C568 C566 1.415 . S
C568 C573 1.425 . S
C568 C575 1.409 . S
C569 H561 0.930 . S
C569 C567 1.419 . S
C569 C570 1.362 . S
C570 H562 0.930 . S
C570 C569 1.362 . S
C570 C573 1.409 . S
C571 H563 0.930 . S
C571 C572 1.355 . S
C571 C573 1.415 . S
C572 C571 1.355 . S
C572 C574 1.419 . S
C573 C568 1.425 . S
C573 C570 1.409 . S
C573 C571 1.415 . S
C574 H564 0.930 . S
C574 C572 1.419 . S
C574 C575 1.362 . S
C575 H565 0.930 . S
C575 C568 1.409 . S
C575 C574 1.362 . S
H576 C582 0.930 1_565 S
H577 C585 0.930 . S
H578 C586 0.930 . S
H579 C587 0.930 . S
H580 C590 0.930 . S
H581 C591 0.930 . S
C582 H576 0.930 1_545 S
C582 C583 1.355 . S
C582 C584 1.414 . S
C583 C582 1.355 . S
C583 C585 1.419 . S
C584 C582 1.414 . S
C584 C589 1.444 . S
C584 C591 1.392 1_545 S
C585 H577 0.930 . S
C585 C583 1.419 . S
C585 C586 1.362 . S
C586 H578 0.930 . S
C586 C585 1.362 . S
C586 C589 1.409 . S
C587 H579 0.930 . S
C587 C588 1.355 . S
C587 C589 1.415 . S
C588 C587 1.355 . S
C588 C590 1.419 1_545 S
C589 C584 1.444 . S
C589 C586 1.409 . S
C589 C587 1.415 . S
C590 H580 0.930 . S
C590 C588 1.419 1_565 S
C590 C591 1.362 . S
C591 H581 0.930 . S
C591 C584 1.392 1_565 S
C591 C590 1.362 . S
H592 C598 0.930 . S
H593 C601 0.930 . S
H594 C602 0.930 . S
H595 C603 0.930 . S
H596 C606 0.930 . S
H597 C607 0.930 . S
C598 H592 0.930 . S
C598 C599 1.355 . S
C598 C600 1.415 . S
C599 C598 1.355 . S
C599 C601 1.419 . S
C600 C598 1.415 . S
C600 C605 1.425 . S
C600 C607 1.409 . S
C601 H593 0.930 . S
C601 C599 1.419 . S
C601 C602 1.362 . S
C602 H594 0.930 . S
C602 C601 1.362 . S
C602 C605 1.409 . S
C603 H595 0.930 . S
C603 C604 1.355 . S
C603 C605 1.415 . S
C604 C603 1.355 . S
C604 C606 1.419 . S
C605 C600 1.425 . S
C605 C602 1.409 . S
C605 C603 1.415 . S
C606 H596 0.930 . S
C606 C604 1.419 . S
C606 C607 1.362 . S
C607 H597 0.930 . S
C607 C600 1.409 . S
C607 C606 1.362 . S
H608 C614 0.930 1_655 S
H609 C617 0.930 . S
H610 C618 0.930 . S
H611 C619 0.930 . S
H612 C622 0.930 . S
H613 C623 0.930 . S
C614 H608 0.930 1_455 S
C614 C615 1.355 . S
C614 C616 1.415 . S
C615 C614 1.355 . S
C615 C617 1.419 . S
C616 C614 1.415 . S
C616 C621 1.425 . S
C616 C623 1.409 1_455 S
C617 H609 0.930 . S
C617 C615 1.419 . S
C617 C618 1.362 . S
C618 H610 0.930 . S
C618 C617 1.362 . S
C618 C621 1.409 . S
C619 H611 0.930 . S
C619 C620 1.355 . S
C619 C621 1.415 . S
C620 C619 1.355 . S
C620 C622 1.419 1_455 S
C621 C616 1.425 . S
C621 C618 1.409 . S
C621 C619 1.415 . S
C622 H612 0.930 . S
C622 C620 1.419 1_655 S
C622 C623 1.362 . S
C623 H613 0.930 . S
C623 C616 1.409 1_655 S
C623 C622 1.362 . S
C343 C9 0.478 . S
C348 C325 0.513 . S
C359 C49 0.333 . S
C364 C253 0.375 . S
C375 C89 0.426 . S
C380 C289 0.303 . S
C391 C26 0.598 . S
C396 C301 0.436 . S
C412 C229 0.599 . S
C407 C66 0.693 . S
C428 C265 0.568 . S
C423 C106 0.699 . S
C439 C43 2.996 . S
C444 C181 2.895 . S
C455 C83 3.125 . S
C460 C193 3.074 . S
C471 C22 3.177 . S
C476 C121 3.102 . S
C492 C157 3.127 . S
C487 C62 3.173 . S
C508 C217 2.973 . S
C503 C102 3.039 . S
C519 C3 2.986 . S
C524 C145 2.918 . S
C540 C223 1.788 1_554 S
C535 C15 1.704 . S
C551 C55 1.746 . S
C556 C151 1.797 . S
C567 C95 1.720 . S
C572 C187 1.780 . S
C588 C295 1.073 . S
C583 C42 1.058 . S
C604 C331 1.077 . S
C599 C82 1.069 . S
C615 C2 1.026 . S
C620 C259 1.077 . S
