# Generated by pormake.
# Topology ctn, (3,4)-cn, num edge types: 1
# Building blocks:
#     Node 0, Type 0, BuildingBlock: MIDCAF_clean_linker_0, # of connection points: 3
#     Node 1, Type 0, BuildingBlock: MIDCAF_clean_linker_0, # of connection points: 3
#     Node 2, Type 0, BuildingBlock: MIDCAF_clean_linker_0, # of connection points: 3
#     Node 3, Type 0, BuildingBlock: MIDCAF_clean_linker_0, # of connection points: 3
#     Node 4, Type 0, BuildingBlock: MIDCAF_clean_linker_0, # of connection points: 3
#     Node 5, Type 0, BuildingBlock: MIDCAF_clean_linker_0, # of connection points: 3
#     Node 6, Type 0, BuildingBlock: MIDCAF_clean_linker_0, # of connection points: 3
#     Node 7, Type 0, BuildingBlock: MIDCAF_clean_linker_0, # of connection points: 3
#     Node 8, Type 0, BuildingBlock: MIDCAF_clean_linker_0, # of connection points: 3
#     Node 9, Type 0, BuildingBlock: MIDCAF_clean_linker_0, # of connection points: 3
#     Node 10, Type 0, BuildingBlock: MIDCAF_clean_linker_0, # of connection points: 3
#     Node 11, Type 0, BuildingBlock: MIDCAF_clean_linker_0, # of connection points: 3
#     Node 12, Type 0, BuildingBlock: MIDCAF_clean_linker_0, # of connection points: 3
#     Node 13, Type 0, BuildingBlock: MIDCAF_clean_linker_0, # of connection points: 3
#     Node 14, Type 0, BuildingBlock: MIDCAF_clean_linker_0, # of connection points: 3
#     Node 15, Type 0, BuildingBlock: MIDCAF_clean_linker_0, # of connection points: 3
#     Node 16, Type 1, BuildingBlock: UXUYUI_clean_sbu_0, # of connection points: 4
#     Node 17, Type 1, BuildingBlock: UXUYUI_clean_sbu_0, # of connection points: 4
#     Node 18, Type 1, BuildingBlock: UXUYUI_clean_sbu_0, # of connection points: 4
#     Node 19, Type 1, BuildingBlock: UXUYUI_clean_sbu_0, # of connection points: 4
#     Node 20, Type 1, BuildingBlock: UXUYUI_clean_sbu_0, # of connection points: 4
#     Node 21, Type 1, BuildingBlock: UXUYUI_clean_sbu_0, # of connection points: 4
#     Node 22, Type 1, BuildingBlock: UXUYUI_clean_sbu_0, # of connection points: 4
#     Node 23, Type 1, BuildingBlock: UXUYUI_clean_sbu_0, # of connection points: 4
#     Node 24, Type 1, BuildingBlock: UXUYUI_clean_sbu_0, # of connection points: 4
#     Node 25, Type 1, BuildingBlock: UXUYUI_clean_sbu_0, # of connection points: 4
#     Node 26, Type 1, BuildingBlock: UXUYUI_clean_sbu_0, # of connection points: 4
#     Node 27, Type 1, BuildingBlock: UXUYUI_clean_sbu_0, # of connection points: 4
#     Edge 28, Type (0, 1), BuildingBlock: EZIPEK_clean_linker_0, # of connection points: 2
#     Edge 29, Type (0, 1), BuildingBlock: EZIPEK_clean_linker_0, # of connection points: 2
#     Edge 30, Type (0, 1), BuildingBlock: EZIPEK_clean_linker_0, # of connection points: 2
#     Edge 31, Type (0, 1), BuildingBlock: EZIPEK_clean_linker_0, # of connection points: 2
#     Edge 32, Type (0, 1), BuildingBlock: EZIPEK_clean_linker_0, # of connection points: 2
#     Edge 33, Type (0, 1), BuildingBlock: EZIPEK_clean_linker_0, # of connection points: 2
#     Edge 34, Type (0, 1), BuildingBlock: EZIPEK_clean_linker_0, # of connection points: 2
#     Edge 35, Type (0, 1), BuildingBlock: EZIPEK_clean_linker_0, # of connection points: 2
#     Edge 36, Type (0, 1), BuildingBlock: EZIPEK_clean_linker_0, # of connection points: 2
#     Edge 37, Type (0, 1), BuildingBlock: EZIPEK_clean_linker_0, # of connection points: 2
#     Edge 38, Type (0, 1), BuildingBlock: EZIPEK_clean_linker_0, # of connection points: 2
#     Edge 39, Type (0, 1), BuildingBlock: EZIPEK_clean_linker_0, # of connection points: 2
#     Edge 40, Type (0, 1), BuildingBlock: EZIPEK_clean_linker_0, # of connection points: 2
#     Edge 41, Type (0, 1), BuildingBlock: EZIPEK_clean_linker_0, # of connection points: 2
#     Edge 42, Type (0, 1), BuildingBlock: EZIPEK_clean_linker_0, # of connection points: 2
#     Edge 43, Type (0, 1), BuildingBlock: EZIPEK_clean_linker_0, # of connection points: 2
#     Edge 44, Type (0, 1), BuildingBlock: EZIPEK_clean_linker_0, # of connection points: 2
#     Edge 45, Type (0, 1), BuildingBlock: EZIPEK_clean_linker_0, # of connection points: 2
#     Edge 46, Type (0, 1), BuildingBlock: EZIPEK_clean_linker_0, # of connection points: 2
#     Edge 47, Type (0, 1), BuildingBlock: EZIPEK_clean_linker_0, # of connection points: 2
#     Edge 48, Type (0, 1), BuildingBlock: EZIPEK_clean_linker_0, # of connection points: 2
#     Edge 49, Type (0, 1), BuildingBlock: EZIPEK_clean_linker_0, # of connection points: 2
#     Edge 50, Type (0, 1), BuildingBlock: EZIPEK_clean_linker_0, # of connection points: 2
#     Edge 51, Type (0, 1), BuildingBlock: EZIPEK_clean_linker_0, # of connection points: 2
#     Edge 52, Type (0, 1), BuildingBlock: EZIPEK_clean_linker_0, # of connection points: 2
#     Edge 53, Type (0, 1), BuildingBlock: EZIPEK_clean_linker_0, # of connection points: 2
#     Edge 54, Type (0, 1), BuildingBlock: EZIPEK_clean_linker_0, # of connection points: 2
#     Edge 55, Type (0, 1), BuildingBlock: EZIPEK_clean_linker_0, # of connection points: 2
#     Edge 56, Type (0, 1), BuildingBlock: EZIPEK_clean_linker_0, # of connection points: 2
#     Edge 57, Type (0, 1), BuildingBlock: EZIPEK_clean_linker_0, # of connection points: 2
#     Edge 58, Type (0, 1), BuildingBlock: EZIPEK_clean_linker_0, # of connection points: 2
#     Edge 59, Type (0, 1), BuildingBlock: EZIPEK_clean_linker_0, # of connection points: 2
#     Edge 60, Type (0, 1), BuildingBlock: EZIPEK_clean_linker_0, # of connection points: 2
#     Edge 61, Type (0, 1), BuildingBlock: EZIPEK_clean_linker_0, # of connection points: 2
#     Edge 62, Type (0, 1), BuildingBlock: EZIPEK_clean_linker_0, # of connection points: 2
#     Edge 63, Type (0, 1), BuildingBlock: EZIPEK_clean_linker_0, # of connection points: 2
#     Edge 64, Type (0, 1), BuildingBlock: EZIPEK_clean_linker_0, # of connection points: 2
#     Edge 65, Type (0, 1), BuildingBlock: EZIPEK_clean_linker_0, # of connection points: 2
#     Edge 66, Type (0, 1), BuildingBlock: EZIPEK_clean_linker_0, # of connection points: 2
#     Edge 67, Type (0, 1), BuildingBlock: EZIPEK_clean_linker_0, # of connection points: 2
#     Edge 68, Type (0, 1), BuildingBlock: EZIPEK_clean_linker_0, # of connection points: 2
#     Edge 69, Type (0, 1), BuildingBlock: EZIPEK_clean_linker_0, # of connection points: 2
#     Edge 70, Type (0, 1), BuildingBlock: EZIPEK_clean_linker_0, # of connection points: 2
#     Edge 71, Type (0, 1), BuildingBlock: EZIPEK_clean_linker_0, # of connection points: 2
#     Edge 72, Type (0, 1), BuildingBlock: EZIPEK_clean_linker_0, # of connection points: 2
#     Edge 73, Type (0, 1), BuildingBlock: EZIPEK_clean_linker_0, # of connection points: 2
#     Edge 74, Type (0, 1), BuildingBlock: EZIPEK_clean_linker_0, # of connection points: 2
#     Edge 75, Type (0, 1), BuildingBlock: EZIPEK_clean_linker_0, # of connection points: 2
# Relax obj value: 0.000
# Max RMSD: 0.004
# Mean RMSD: 0.003
data_MOF--net-ctn--node1-UXUYUI_clean_sbu_0--node2-MIDCAF_clean_linker_0--edge1-EZIPEK_clean_linker_0
_symmetry_space_group_name_H-M    P1
_symmetry_Int_Tables_number       1
_symmetry_cell_setting            triclinic
loop_
_symmetry_equiv_pos_as_xyz
'x, y, z'
_cell_length_a     65.335161
_cell_length_b     65.346848
_cell_length_c     65.343885
_cell_angle_alpha  90.046501
_cell_angle_beta   90.049527
_cell_angle_gamma 90.079825
loop_
_atom_site_label
_atom_site_type_symbol
_atom_site_fract_x
_atom_site_fract_y
_atom_site_fract_z
_atom_type_partial_charge
C0 C 0.98385 0.04011 0.0935 0.0
C1 C 0.98983 0.02758 0.10986 0.0
C2 C 0.00918 0.01833 0.10948 0.0
C3 C 0.02239 0.02155 0.09296 0.0
H4 H 0.07504 0.99961 0.0669 0.0
H5 H 0.10433 0.9769 0.06174 0.0
H6 H 0.11743 0.00638 0.00428 0.0
H7 H 0.08826 0.02932 0.00922 0.0
H8 H 0.06816 0.07789 0.00669 0.0
H9 H 0.06179 0.10686 0.98381 0.0
H10 H 0.99735 0.10379 0.99761 0.0
H11 H 1.00363 0.0752 0.02101 0.0
H12 H 0.99208 0.05334 0.06471 0.0
H13 H 0.96894 0.04735 0.09354 0.0
H14 H 0.01406 0.00863 0.122 0.0
H15 H 0.03725 0.01424 0.09318 0.0
N16 N 0.04778 0.0263 0.05689 0.0
N17 N 0.05722 0.04527 0.02794 0.0
N18 N 0.0271 0.05338 0.04571 0.0
C19 C 0.06102 0.02971 0.04122 0.0
C20 C 0.0403 0.05717 0.03009 0.0
C21 C 0.03079 0.03804 0.05926 0.0
C22 C 0.0792 0.01633 0.03845 0.0
C23 C 0.08414 1.00138 0.05317 0.0
C24 C 0.10088 0.98838 0.05029 0.0
C25 C 0.11293 0.99001 0.03264 0.0
C26 C 0.10824 0.00495 0.01799 0.0
C27 C 0.09157 0.01804 0.02089 0.0
C28 C 0.0364 0.07427 0.01572 0.0
C29 C 0.05261 0.08334 0.00483 0.0
C30 C 0.04903 0.0999 0.99178 0.0
C31 C 0.02911 0.10747 0.98903 0.0
C32 C 0.01283 0.09821 0.99957 0.0
C33 C 0.01646 0.08191 0.01295 0.0
C34 C 0.01657 0.03428 0.07658 0.0
C35 C 0.99712 0.04352 0.07706 0.0
C36 C 0.25327 0.65357 0.24629 0.0
C37 C 0.23479 0.65214 0.235 0.0
C38 C 0.23429 0.66303 0.21626 0.0
C39 C 0.2494 0.67733 0.21121 0.0
H40 H 0.26085 0.72444 0.17163 0.0
H41 H 0.25555 0.74756 0.14269 0.0
H42 H 0.31196 0.77871 0.15688 0.0
H43 H 0.31753 0.75575 0.18592 0.0
H44 H 0.34222 0.74364 0.22528 0.0
H45 H 0.37102 0.74918 0.24859 0.0
H46 H 0.35066 0.6989 0.28604 0.0
H47 H 0.32174 0.69313 0.26291 0.0
H48 H 0.28186 0.66889 0.25096 0.0
H49 H 0.25663 0.64353 0.25894 0.0
H50 H 0.22252 0.66053 0.20496 0.0
H51 H 0.24779 0.68586 0.19709 0.0
N52 N 0.27915 0.70915 0.20303 0.0
N53 N 0.30908 0.72701 0.21168 0.0
N54 N 0.29807 0.69953 0.23196 0.0
C55 C 0.29277 0.72437 0.199 0.0
C56 C 0.31187 0.71466 0.22819 0.0
C57 C 0.28169 0.69662 0.21944 0.0
C58 C 0.28964 0.73818 0.1812 0.0
C59 C 0.2722 0.73615 0.16865 0.0
C60 C 0.2691 0.74935 0.15209 0.0
C61 C 0.28336 0.76478 0.14773 0.0
C62 C 0.30081 0.76685 0.16006 0.0
C63 C 0.30392 0.7537 0.17666 0.0
C64 C 0.32957 0.71792 0.24216 0.0
C65 C 0.3438 0.7337 0.23843 0.0
C66 C 0.36029 0.73692 0.25173 0.0
C67 C 0.36288 0.72446 0.26898 0.0
C68 C 0.34884 0.70867 0.27277 0.0
C69 C 0.33234 0.70542 0.2595 0.0
C70 C 0.26632 0.68047 0.22406 0.0
C71 C 0.26843 0.66785 0.24128 0.0
C72 C 0.98816 0.39816 0.0096 0.0
C73 C 0.97879 0.3976 0.99028 0.0
C74 C 0.96612 0.41386 0.9843 0.0
C75 C 0.9628 0.4304 0.99748 0.0
H76 H 0.91629 0.47182 0.01624 0.0
H77 H 0.8873 0.49487 0.01088 0.0
H78 H 0.9159 0.54009 0.04956 0.0
H79 H 0.94483 0.51702 0.05538 0.0
H80 H 0.98024 0.50119 0.08581 0.0
H81 H 1.00345 0.50657 0.11476 0.0
H82 H 0.03311 0.44915 0.10194 0.0
H83 H 0.01011 0.44353 0.07291 0.0
H84 H 0.99257 0.41481 0.03748 0.0
H85 H 0.99795 0.38571 0.01449 0.0
H86 H 0.95878 0.4137 0.96943 0.0
H87 H 0.95295 0.44272 0.9924 0.0
N88 N 0.95332 0.46204 0.02734 0.0
N89 N 0.96339 0.48157 0.05577 0.0
N90 N 0.98181 0.45213 0.04678 0.0
C91 C 0.95035 0.47842 0.03984 0.0
C92 C 0.97915 0.46847 0.05939 0.0
C93 C 0.96904 0.44885 0.03067 0.0
C94 C 0.93292 0.49254 0.03627 0.0
C95 C 0.91648 0.48667 0.0236 0.0
C96 C 0.89987 0.4998 0.02054 0.0
C97 C 0.89948 0.51916 0.02982 0.0
C98 C 0.91592 0.52518 0.0423 0.0
C99 C 0.93241 0.51196 0.04561 0.0
C100 C 0.99324 0.4719 0.07695 0.0
C101 C 0.99167 0.48966 0.08908 0.0
C102 C 0.00492 0.49281 0.10563 0.0
C103 C 0.01992 0.47825 0.1104 0.0
C104 C 0.0216 0.46054 0.09842 0.0
C105 C 0.00842 0.4574 0.08182 0.0
C106 C 0.9723 0.43113 0.01681 0.0
C107 C 0.98507 0.41482 0.02269 0.0
C108 C 0.74121 0.75458 0.15237 0.0
C109 C 0.72754 0.73852 0.1484 0.0
C110 C 0.71059 0.73566 0.16123 0.0
C111 C 0.7073 0.74878 0.17783 0.0
H112 H 0.67684 0.7532 0.23467 0.0
H113 H 0.64847 0.74723 0.25843 0.0
H114 H 0.65071 0.81044 0.27721 0.0
H115 H 0.67935 0.81651 0.25388 0.0
H116 H 0.72439 0.83771 0.24857 0.0
H117 H 0.74698 0.86714 0.25378 0.0
H118 H 0.78075 0.85117 0.19949 0.0
H119 H 0.75834 0.82162 0.19404 0.0
H120 H 0.74871 0.78008 0.17151 0.0
H121 H 0.75437 0.75698 0.14258 0.0
H122 H 0.6999 0.7233 0.15834 0.0
H123 H 0.69401 0.7462 0.18739 0.0
N124 N 0.70139 0.77592 0.2124 0.0
N125 N 0.71003 0.80561 0.23068 0.0
N126 N 0.72938 0.7959 0.20209 0.0
C127 C 0.6977 0.78903 0.22814 0.0
C128 C 0.72595 0.80915 0.21777 0.0
C129 C 0.71716 0.77927 0.19925 0.0
C130 C 0.6804 0.78534 0.24237 0.0
C131 C 0.67131 0.76585 0.24384 0.0
C132 C 0.65513 0.76238 0.25742 0.0
C133 C 0.6475 0.7784 0.26953 0.0
C134 C 0.65641 0.79789 0.268 0.0
C135 C 0.6728 0.8013 0.25468 0.0
C136 C 0.7395 0.82719 0.22087 0.0
C137 C 0.73658 0.84039 0.23767 0.0
C138 C 0.74946 0.85723 0.24072 0.0
C139 C 0.76546 0.86124 0.22702 0.0
C140 C 0.76843 0.84826 0.2102 0.0
C141 C 0.7556 0.83137 0.20715 0.0
C142 C 0.72087 0.76507 0.18185 0.0
C143 C 0.7379 0.76777 0.16892 0.0
C144 C 0.04853 0.9102 0.5194 0.0
C145 C 0.03177 0.89708 0.51656 0.0
C146 C 0.01803 0.90081 0.5005 0.0
C147 C 0.02102 0.91745 0.4874 0.0
H148 H 0.99964 0.9427 0.43432 0.0
H149 H 0.97612 0.94829 0.40573 0.0
H150 H 0.00561 0.00576 0.39245 0.0
H151 H 0.02937 1.00039 0.42094 0.0
H152 H 0.07157 0.01056 0.44296 0.0
H153 H 0.10054 0.03368 0.4486 0.0
H154 H 0.11709 1.00022 0.5029 0.0
H155 H 0.08824 0.97693 0.49752 0.0
H156 H 0.06463 0.93671 0.50894 0.0
H157 H 0.05929 0.9075 0.53173 0.0
H158 H 0.00502 0.8908 0.49812 0.0
H159 H 0.01013 0.91987 0.47514 0.0
N160 N 0.02805 0.95164 0.46023 0.0
N161 N 0.0468 0.98068 0.45057 0.0
N162 N 0.05694 0.96147 0.47913 0.0
C163 C 0.03079 0.96774 0.44736 0.0
C164 C 0.05997 0.97766 0.46642 0.0
C165 C 0.04102 0.94838 0.47616 0.0
C166 C 0.01647 0.9711 0.43 0.0
C167 C 1.00119 0.95657 0.42538 0.0
C168 C 0.98772 0.95968 0.40904 0.0
C169 C 0.98919 0.97741 0.39708 0.0
C170 C 0.0043 0.99198 0.40158 0.0
C171 C 0.01786 0.98885 0.41786 0.0
C172 C 0.07749 0.99181 0.46978 0.0
C173 C 0.08131 0.00806 0.45613 0.0
C174 C 0.09787 0.0213 0.45929 0.0
C175 C 0.11088 0.01859 0.47614 0.0
C176 C 0.10717 1.00249 0.48981 0.0
C177 C 0.09066 0.98921 0.48667 0.0
C178 C 0.03783 0.93071 0.49013 0.0
C179 C 0.05153 0.92688 0.50633 0.0
C180 C 0.24429 0.75814 0.85198 0.0
C181 C 0.22821 0.77048 0.85902 0.0
C182 C 0.20916 0.76956 0.84912 0.0
C183 C 0.20625 0.75655 0.83235 0.0
H184 H 0.17383 0.75253 0.77682 0.0
H185 H 0.14466 0.75719 0.75376 0.0
H186 H 0.15672 0.6986 0.72605 0.0
H187 H 0.18606 0.69376 0.74883 0.0
H188 H 0.23496 0.67887 0.75326 0.0
H189 H 0.25854 0.6503 0.74777 0.0
H190 H 0.28016 0.65597 0.80985 0.0
H191 H 0.25696 0.68482 0.81544 0.0
H192 H 0.25403 0.73554 0.83039 0.0
H193 H 0.25911 0.75868 0.85942 0.0
H194 H 0.19656 0.77895 0.85438 0.0
H195 H 0.19137 0.75617 0.82505 0.0
N196 N 0.20301 0.73259 0.79487 0.0
N197 N 0.21348 0.70424 0.7755 0.0
N198 N 0.23239 0.71428 0.80435 0.0
C199 C 0.20007 0.71981 0.77869 0.0
C200 C 0.22966 0.70135 0.78827 0.0
C201 C 0.21915 0.72996 0.80775 0.0
C202 C 0.18236 0.72275 0.76472 0.0
C203 C 0.17034 0.74059 0.76585 0.0
C204 C 0.15368 0.74334 0.75268 0.0
C205 C 0.14862 0.72823 0.73828 0.0
C206 C 0.16046 0.7104 0.7371 0.0
C207 C 0.17723 0.70771 0.75013 0.0
C208 C 0.24405 0.68415 0.7848 0.0
C209 C 0.24474 0.67409 0.76576 0.0
C210 C 0.25822 0.65779 0.76256 0.0
C211 C 0.27104 0.65104 0.77841 0.0
C212 C 0.27039 0.661 0.79743 0.0
C213 C 0.25714 0.67749 0.80056 0.0
C214 C 0.22228 0.74398 0.82536 0.0
C215 C 0.24132 0.74491 0.83541 0.0
C216 C 0.99025 0.6047 0.50107 0.0
C217 C 0.97884 0.60654 0.51915 0.0
C218 C 0.96421 0.59155 0.52391 0.0
C219 C 0.9609 0.57503 0.51068 0.0
H220 H 0.9192 0.52944 0.4979 0.0
H221 H 0.88996 0.50656 0.50298 0.0
H222 H 0.90842 0.47078 0.45078 0.0
H223 H 0.9377 0.49349 0.44542 0.0
H224 H 0.97189 0.51202 0.4156 0.0
H225 H 0.99517 0.50614 0.3869 0.0
H226 H 0.03977 0.54619 0.41457 0.0
H227 H 0.01651 0.5525 0.44323 0.0
H228 H 0.99609 0.58718 0.47404 0.0
H229 H 1.00159 0.61614 0.49715 0.0
H230 H 0.95529 0.59273 0.53783 0.0
H231 H 0.94944 0.56377 0.51478 0.0
N232 N 0.95234 0.54299 0.48111 0.0
N233 N 0.96174 0.52401 0.45214 0.0
N234 N 0.98151 0.55222 0.46234 0.0
C235 C 0.94875 0.52714 0.46808 0.0
C236 C 0.97817 0.53643 0.44917 0.0
C237 C 0.96865 0.55564 0.47833 0.0
C238 C 0.9309 0.51336 0.47123 0.0
C239 C 0.91711 0.51673 0.48745 0.0
C240 C 0.90037 0.50369 0.49041 0.0
C241 C 0.89711 0.48704 0.47725 0.0
C242 C 0.91074 0.48359 0.46106 0.0
C243 C 0.92746 0.49662 0.45806 0.0
C244 C 0.9923 0.53277 0.43176 0.0
C245 C 0.98665 0.5196 0.41565 0.0
C246 C 0.99991 0.51621 0.3992 0.0
C247 C 0.01917 0.52571 0.39866 0.0
C248 C 0.02495 0.53874 0.41473 0.0
C249 C 0.0116 0.54235 0.43107 0.0
C250 C 0.97228 0.57309 0.49249 0.0
C251 C 0.98707 0.5881 0.48791 0.0
C252 C 0.85381 0.7629 0.74989 0.0
C253 C 0.86087 0.77868 0.73716 0.0
C254 C 0.85117 0.79782 0.73781 0.0
C255 C 0.83461 0.80111 0.75094 0.0
H256 H 0.78263 0.8369 0.75707 0.0
H257 H 0.76012 0.86637 0.75211 0.0
H258 H 0.72747 0.85108 0.80727 0.0
H259 H 0.74978 0.82149 0.81247 0.0
H260 H 0.75802 0.7782 0.83326 0.0
H261 H 0.7525 0.75499 0.86213 0.0
H262 H 0.80947 0.72464 0.84897 0.0
H263 H 0.8152 0.74759 0.81996 0.0
H264 H 0.83237 0.75377 0.77289 0.0
H265 H 0.86109 0.74801 0.74955 0.0
H266 H 0.85644 0.81019 0.72811 0.0
H267 H 0.82747 0.81606 0.75109 0.0
N268 N 0.79768 0.80538 0.7754 0.0
N269 N 0.77832 0.79552 0.80396 0.0
N270 N 0.80655 0.77588 0.79377 0.0
C271 C 0.78168 0.80877 0.78826 0.0
C272 C 0.79069 0.77905 0.80685 0.0
C273 C 0.81016 0.78896 0.77802 0.0
C274 C 0.76807 0.82673 0.7852 0.0
C275 C 0.77069 0.83973 0.7682 0.0
C276 C 0.75785 0.85659 0.76529 0.0
C277 C 0.7422 0.86082 0.77932 0.0
C278 C 0.7395 0.848 0.7963 0.0
C279 C 0.75228 0.83109 0.7992 0.0
C280 C 0.78708 0.76483 0.82423 0.0
C281 C 0.7694 0.7666 0.83643 0.0
C282 C 0.76617 0.75334 0.85292 0.0
C283 C 0.78059 0.73818 0.8576 0.0
C284 C 0.7982 0.73628 0.84552 0.0
C285 C 0.8014 0.74942 0.82894 0.0
C286 C 0.82758 0.7854 0.76389 0.0
C287 C 0.83742 0.76625 0.76323 0.0
C288 C 0.35658 0.26495 0.25632 0.0
C289 C 0.36235 0.27975 0.24191 0.0
C290 C 0.3512 0.29802 0.24053 0.0
C291 C 0.33439 0.30141 0.25333 0.0
H292 H 0.28236 0.33697 0.25874 0.0
H293 H 0.25771 0.36264 0.25019 0.0
H294 H 0.22156 0.34526 0.30266 0.0
H295 H 0.24627 0.31961 0.31112 0.0
H296 H 0.25904 0.28144 0.3377 0.0
H297 H 0.25342 0.25871 0.36692 0.0
H298 H 0.30917 0.22651 0.35293 0.0
H299 H 0.31505 0.24905 0.32366 0.0
H300 H 0.33585 0.25667 0.28024 0.0
H301 H 0.36505 0.25076 0.25756 0.0
H302 H 0.35549 0.3096 0.22947 0.0
H303 H 0.32607 0.31566 0.25187 0.0
N304 N 0.29733 0.30565 0.2776 0.0
N305 N 0.27775 0.29628 0.30618 0.0
N306 N 0.3074 0.27787 0.29794 0.0
C307 C 0.2808 0.3088 0.28983 0.0
C308 C 0.291 0.28081 0.31039 0.0
C309 C 0.31071 0.29022 0.28154 0.0
C310 C 0.26579 0.32518 0.28491 0.0
C311 C 0.26862 0.338 0.26794 0.0
C312 C 0.2538 0.35248 0.26257 0.0
C313 C 0.23496 0.35393 0.2732 0.0
C314 C 0.23369 0.34281 0.29177 0.0
C315 C 0.24847 0.32832 0.29719 0.0
C316 C 0.28752 0.26713 0.32823 0.0
C317 C 0.27016 0.26956 0.34078 0.0
C318 C 0.26688 0.25659 0.35749 0.0
C319 C 0.28088 0.24099 0.362 0.0
C320 C 0.29821 0.2385 0.34963 0.0
C321 C 0.30151 0.25142 0.3329 0.0
C322 C 0.32856 0.28667 0.26792 0.0
C323 C 0.33991 0.26841 0.26928 0.0
C324 C 0.49096 0.9029 0.50713 0.0
C325 C 0.47637 0.89802 0.49214 0.0
C326 C 0.45869 0.91004 0.49037 0.0
C327 C 0.45561 0.92672 0.50345 0.0
H328 H 0.41849 0.97652 0.51227 0.0
H329 H 0.3896 0.99966 0.50688 0.0
H330 H 0.40631 0.03352 0.56098 0.0
H331 H 0.43531 0.01053 0.56663 0.0
H332 H 0.47135 0.99352 0.59504 0.0
H333 H 0.49493 0.99902 0.62366 0.0
H334 H 0.53813 0.95742 0.59632 0.0
H335 H 0.51462 0.95154 0.56775 0.0
H336 H 0.49941 0.92281 0.53172 0.0
H337 H 0.5047 0.89377 0.50869 0.0
H338 H 0.44726 0.90647 0.47888 0.0
H339 H 0.44177 0.93564 0.50171 0.0
N340 N 0.45042 0.96179 0.53013 0.0
N341 N 0.46028 0.98092 0.5589 0.0
N342 N 0.47983 0.95267 0.54857 0.0
C343 C 0.44708 0.97774 0.54309 0.0
C344 C 0.4767 0.96848 0.56173 0.0
C345 C 0.46674 0.94916 0.53276 0.0
C346 C 0.42933 0.99161 0.5399 0.0
C347 C 0.41608 0.98884 0.52309 0.0
C348 C 0.39954 1.00204 0.51995 0.0
C349 C 0.3959 0.01824 0.53353 0.0
C350 C 0.40894 0.02106 0.55035 0.0
C351 C 0.4255 0.00789 0.55352 0.0
C352 C 0.49104 0.97205 0.57905 0.0
C353 C 0.48586 0.98553 0.59505 0.0
C354 C 0.49929 0.98869 0.61145 0.0
C355 C 0.51824 0.97863 0.61207 0.0
C356 C 0.52355 0.9653 0.5961 0.0
C357 C 0.51005 0.96195 0.57981 0.0
C358 C 0.47013 0.93164 0.51863 0.0
C359 C 0.48787 0.91951 0.52028 0.0
C360 C 0.23836 0.25723 0.6509 0.0
C361 C 0.22523 0.24053 0.64777 0.0
C362 C 0.20914 0.23704 0.66152 0.0
C363 C 0.2063 0.25001 0.67832 0.0
H364 H 0.17259 0.25625 0.73116 0.0
H365 H 0.14761 0.24809 0.75669 0.0
H366 H 0.16473 0.30233 0.79045 0.0
H367 H 0.18969 0.3103 0.76495 0.0
H368 H 0.23409 0.33056 0.75468 0.0
H369 H 0.25737 0.35949 0.75979 0.0
H370 H 0.27529 0.35648 0.6964 0.0
H371 H 0.25234 0.32729 0.69114 0.0
H372 H 0.246 0.28293 0.66968 0.0
H373 H 0.25086 0.26012 0.6404 0.0
H374 H 0.19888 0.22419 0.65929 0.0
H375 H 0.1938 0.24683 0.68872 0.0
N376 N 0.20218 0.27614 0.71398 0.0
N377 N 0.21267 0.30446 0.73342 0.0
N378 N 0.22932 0.29671 0.70261 0.0
C379 C 0.19993 0.28818 0.73081 0.0
C380 C 0.22736 0.30887 0.71938 0.0
C381 C 0.21682 0.28029 0.69978 0.0
C382 C 0.18418 0.28329 0.7465 0.0
C383 C 0.17166 0.26595 0.74458 0.0
C384 C 0.15759 0.26085 0.7599 0.0
C385 C 0.15625 0.27222 0.77833 0.0
C386 C 0.16713 0.291 0.77872 0.0
C387 C 0.18123 0.29611 0.76346 0.0
C388 C 0.24131 0.32657 0.72248 0.0
C389 C 0.24294 0.33602 0.74179 0.0
C390 C 0.25627 0.35253 0.74477 0.0
C391 C 0.26803 0.36009 0.72848 0.0
C392 C 0.26637 0.35082 0.70917 0.0
C393 C 0.25325 0.33413 0.70622 0.0
C394 C 0.2195 0.26676 0.68166 0.0
C395 C 0.23551 0.27024 0.66766 0.0
C396 C 0.75356 0.15412 0.74615 0.0
C397 C 0.73447 0.15336 0.73584 0.0
C398 C 0.73313 0.16496 0.71757 0.0
C399 C 0.74818 0.17922 0.71221 0.0
H400 H 0.75977 0.22579 0.672 0.0
H401 H 0.75447 0.24856 0.64278 0.0
H402 H 0.81072 0.28008 0.65679 0.0
H403 H 0.81629 0.25747 0.6861 0.0
H404 H 0.83552 0.25006 0.7317 0.0
H405 H 0.86434 0.25538 0.75509 0.0
H406 H 0.85642 0.19441 0.77893 0.0
H407 H 0.82733 0.18902 0.75592 0.0
H408 H 0.78257 0.16889 0.74983 0.0
H409 H 0.75745 0.14357 0.7582 0.0
H410 H 0.72071 0.16306 0.70686 0.0
H411 H 0.74593 0.18832 0.69855 0.0
N412 N 0.77827 0.21058 0.7033 0.0
N413 N 0.80818 0.22856 0.71183 0.0
N414 N 0.79766 0.20065 0.73181 0.0
C415 C 0.79177 0.22592 0.69928 0.0
C416 C 0.81127 0.21596 0.72811 0.0
C417 C 0.78109 0.19785 0.71951 0.0
C418 C 0.78849 0.23973 0.68149 0.0
C419 C 0.77108 0.23753 0.66894 0.0
C420 C 0.76798 0.25052 0.65222 0.0
C421 C 0.78221 0.26593 0.64769 0.0
C422 C 0.79959 0.26823 0.66009 0.0
C423 C 0.80271 0.25528 0.67684 0.0
C424 C 0.82906 0.21911 0.74192 0.0
C425 C 0.8399 0.23774 0.74187 0.0
C426 C 0.85635 0.24085 0.75525 0.0
C427 C 0.86248 0.2253 0.76873 0.0
C428 C 0.85188 0.20661 0.76867 0.0
C429 C 0.83524 0.20358 0.75551 0.0
C430 C 0.76579 0.18167 0.72425 0.0
C431 C 0.76863 0.16839 0.74086 0.0
C432 C 0.48511 0.54151 0.59429 0.0
C433 C 0.49035 0.52777 0.60991 0.0
C434 C 0.50904 0.5173 0.60886 0.0
C435 C 0.52231 0.52047 0.59237 0.0
H436 H 0.57285 0.49607 0.56428 0.0
H437 H 0.60206 0.4733 0.55895 0.0
H438 H 0.61794 0.50604 0.50401 0.0
H439 H 0.58881 0.52898 0.50907 0.0
H440 H 0.56015 0.56477 0.49347 0.0
H441 H 0.55436 0.59364 0.47034 0.0
H442 H 0.50798 0.61709 0.51088 0.0
H443 H 0.51341 0.58823 0.53405 0.0
H444 H 0.49394 0.55556 0.56608 0.0
H445 H 0.47072 0.54972 0.59486 0.0
H446 H 0.51334 0.50667 0.62083 0.0
H447 H 0.53663 0.51215 0.59203 0.0
N448 N 0.54767 0.52529 0.55625 0.0
N449 N 0.55706 0.54402 0.52713 0.0
N450 N 0.52805 0.5535 0.54598 0.0
C451 C 0.56061 0.52825 0.54023 0.0
C452 C 0.54085 0.55675 0.52991 0.0
C453 C 0.53133 0.53779 0.55921 0.0
C454 C 0.57839 0.51442 0.5371 0.0
C455 C 0.58251 0.4985 0.55103 0.0
C456 C 0.59919 0.48546 0.54806 0.0
C457 C 0.61207 0.48804 0.53111 0.0
C458 C 0.60812 0.50386 0.51718 0.0
C459 C 0.59145 0.51694 0.52014 0.0
C460 C 0.53726 0.57412 0.51568 0.0
C461 C 0.54869 0.57602 0.49751 0.0
C462 C 0.54541 0.59249 0.48424 0.0
C463 C 0.53077 0.60746 0.48895 0.0
C464 C 0.51933 0.60566 0.507 0.0
C465 C 0.52247 0.58912 0.52021 0.0
C466 C 0.5172 0.53433 0.57669 0.0
C467 C 0.49844 0.54484 0.57788 0.0
C468 C 0.54978 0.40802 0.01752 0.0
C469 C 0.53188 0.39624 0.01627 0.0
C470 C 0.51704 0.40107 1.00156 0.0
C471 C 0.52001 0.41758 0.98827 0.0
H472 H 0.49942 0.44206 0.93389 0.0
H473 H 0.47602 0.44764 0.90519 0.0
H474 H 0.50227 0.5073 0.89517 0.0
H475 H 0.52593 0.50192 0.92374 0.0
H476 H 0.56181 0.51776 0.95639 0.0
H477 H 0.59075 0.54097 0.9621 0.0
H478 H 0.62541 0.49149 0.98854 0.0
H479 H 0.59632 0.46834 0.98353 0.0
H480 H 0.56669 0.43346 0.00573 0.0
H481 H 0.56138 0.40445 0.02882 0.0
H482 H 0.50313 0.3921 1.00043 0.0
H483 H 0.50819 0.42097 0.97716 0.0
N484 N 0.52714 0.45132 0.96052 0.0
N485 N 0.54536 0.48085 0.95128 0.0
N486 N 0.55683 0.46047 0.97852 0.0
C487 C 0.52934 0.46789 0.94815 0.0
C488 C 0.5592 0.47718 0.96638 0.0
C489 C 0.54074 0.44752 0.9758 0.0
C490 C 0.51465 0.47153 0.93116 0.0
C491 C 0.50022 0.45643 0.9257 0.0
C492 C 0.48683 0.45955 0.90929 0.0
C493 C 0.48748 0.47785 0.89815 0.0
C494 C 0.50159 0.49308 0.90365 0.0
C495 C 0.51511 0.48993 0.91996 0.0
C496 C 0.57676 0.49122 0.96955 0.0
C497 C 0.57559 0.51182 0.96343 0.0
C498 C 0.59208 0.52511 0.9667 0.0
C499 C 0.61023 0.51794 0.97572 0.0
C500 C 0.61153 0.49733 0.9816 0.0
C501 C 0.59489 0.48414 0.97876 0.0
C502 C 0.53786 0.42963 0.98954 0.0
C503 C 0.55275 0.4246 0.00431 0.0
C504 C 0.73893 0.24984 0.35707 0.0
C505 C 0.7251 0.26583 0.36057 0.0
C506 C 0.70848 0.26849 0.34725 0.0
C507 C 0.70577 0.25534 0.33054 0.0
H508 H 0.67485 0.24996 0.27452 0.0
H509 H 0.64988 0.25664 0.24828 0.0
H510 H 0.65916 0.19574 0.22434 0.0
H511 H 0.68431 0.18947 0.2501 0.0
H512 H 0.72725 0.16781 0.25941 0.0
H513 H 0.75269 0.14275 0.25145 0.0
H514 H 0.78868 0.16301 0.30309 0.0
H515 H 0.76311 0.18807 0.31099 0.0
H516 H 0.74725 0.22451 0.33812 0.0
H517 H 0.75185 0.2476 0.36722 0.0
H518 H 0.69767 0.28079 0.34976 0.0
H519 H 0.69281 0.25785 0.32051 0.0
N520 N 0.70138 0.2284 0.29548 0.0
N521 N 0.71254 0.20036 0.27605 0.0
N522 N 0.73038 0.20984 0.3057 0.0
C523 C 0.69902 0.21587 0.27901 0.0
C524 C 0.72826 0.19722 0.28929 0.0
C525 C 0.71696 0.22541 0.30899 0.0
C526 C 0.68264 0.21964 0.26369 0.0
C527 C 0.67212 0.23831 0.26304 0.0
C528 C 0.65813 0.24237 0.24732 0.0
C529 C 0.65484 0.22833 0.23108 0.0
C530 C 0.66337 0.20859 0.23377 0.0
C531 C 0.67751 0.20456 0.24931 0.0
C532 C 0.74363 0.18099 0.28508 0.0
C533 C 0.74109 0.16753 0.26855 0.0
C534 C 0.75634 0.15343 0.26351 0.0
C535 C 0.77533 0.15302 0.27398 0.0
C536 C 0.77635 0.16469 0.29225 0.0
C537 C 0.76109 0.17881 0.29738 0.0
C538 C 0.71964 0.23927 0.32687 0.0
C539 C 0.73624 0.23667 0.3404 0.0
C540 C 0.49417 0.10423 0.00529 0.0
C541 C 0.47929 0.10959 0.01979 0.0
C542 C 0.46125 0.09802 0.02112 0.0
C543 C 0.4581 0.0813 0.0081 0.0
H544 H 0.41618 0.03594 0.99366 0.0
H545 H 0.38705 0.01296 0.999 0.0
H546 H 0.41427 0.9686 0.95853 0.0
H547 H 0.44332 0.99154 0.95277 0.0
H548 H 0.47377 0.01283 0.91798 0.0
H549 H 0.49655 0.00759 0.88877 0.0
H550 H 0.53943 0.0509 0.91415 0.0
H551 H 0.51667 0.05652 0.94335 0.0
H552 H 0.50275 0.0839 0.98111 0.0
H553 H 0.50819 0.11301 0.00407 0.0
H554 H 0.4496 0.10197 0.03221 0.0
H555 H 0.44397 0.07273 0.0095 0.0
N556 N 0.45312 0.04565 0.98216 0.0
N557 N 0.46298 0.02616 0.95369 0.0
N558 N 0.48247 0.05468 0.96357 0.0
C559 C 0.44983 0.0295 0.96945 0.0
C560 C 0.47931 0.03869 0.9506 0.0
C561 C 0.46943 0.05829 0.97938 0.0
C562 C 0.43212 0.01562 0.97276 0.0
C563 C 0.41602 0.02131 0.98587 0.0
C564 C 0.39933 0.00822 0.98894 0.0
C565 C 0.39855 0.98911 0.97917 0.0
C566 C 0.41461 0.98331 0.96617 0.0
C567 C 0.43117 0.99648 0.96289 0.0
C568 C 0.49334 0.03513 0.93307 0.0
C569 C 0.48805 0.02123 0.91744 0.0
C570 C 0.50103 0.01821 0.9007 0.0
C571 C 0.51963 0.02886 0.89933 0.0
C572 C 0.5251 0.04257 0.91495 0.0
C573 C 0.51205 0.04576 0.93161 0.0
C574 C 0.47289 0.07591 0.99339 0.0
C575 C 0.49099 0.0876 0.99216 0.0
Li576 Li 0.27297 0.89164 1.0013 0.0
Li577 Li 0.25674 0.86287 0.02386 0.0
Li578 Li 0.25043 0.86586 0.9867 0.0
Li579 Li 0.23602 0.88977 0.00872 0.0
C580 C 0.28583 0.84578 0.99016 0.0
N581 N 0.30203 0.81407 0.96738 0.0
C582 C 0.27808 0.82595 0.99228 0.0
C583 C 0.30192 0.84947 0.97657 0.0
C584 C 0.28643 0.81014 0.98058 0.0
C585 C 0.3099 0.83323 0.96518 0.0
C586 C 0.25134 0.9067 0.0423 0.0
C587 C 0.23429 0.91453 0.07407 0.0
N588 N 0.23435 0.93472 0.06899 0.0
C589 C 0.25138 0.92753 0.03747 0.0
C590 C 0.24282 0.90012 0.06078 0.0
C591 C 0.24264 0.94145 0.05113 0.0
C592 C 0.29286 0.92884 0.99264 0.0
N593 N 0.29612 0.90899 0.99795 0.0
C594 C 0.33235 0.91422 0.99778 0.0
C595 C 0.31535 0.90154 1.00071 0.0
C596 C 0.3294 0.93475 0.99226 0.0
C597 C 0.30939 0.94211 0.9898 0.0
H598 H 0.27739 0.9343 0.99047 0.0
H599 H 0.31747 0.88573 0.00511 0.0
C600 C 0.25343 0.82601 0.04643 0.0
N601 N 0.26179 0.84509 0.04639 0.0
C602 C 0.25697 0.81275 0.06281 0.0
C603 C 0.27773 0.83896 0.07877 0.0
C604 C 0.27385 0.85171 0.06205 0.0
C605 C 0.26921 0.81927 0.0792 0.0
H606 H 0.24391 0.82115 0.03377 0.0
H607 H 0.28038 0.86692 0.06155 0.0
C608 C 0.24814 0.89763 0.96196 0.0
N609 N 0.24488 0.90014 0.91988 0.0
C610 C 0.22923 0.89455 0.95242 0.0
C611 C 0.26534 0.90226 0.95013 0.0
C612 C 0.22792 0.89577 0.93112 0.0
C613 C 0.26338 0.90342 0.92887 0.0
C614 C 0.21067 0.85853 0.01409 0.0
C615 C 0.19551 0.8634 0.9998 0.0
C616 C 0.20505 0.85248 0.03382 0.0
C617 C 0.17495 0.86241 0.00558 0.0
C618 C 0.18431 0.85161 0.03898 0.0
N619 N 0.16983 0.85659 0.02488 0.0
C620 C 0.23007 0.83635 0.96219 0.0
C621 C 0.25979 0.85017 0.94665 0.0
C622 C 0.22666 0.8237 0.94528 0.0
N623 N 0.24638 0.8493 0.96257 0.0
C624 C 0.25709 0.83764 0.92954 0.0
C625 C 0.24035 0.82423 0.92878 0.0
H626 H 0.21979 0.83566 0.9751 0.0
H627 H 0.27273 0.86043 0.94729 0.0
C628 C 0.20938 0.92261 0.9999 0.0
N629 N 0.21294 0.90748 0.01375 0.0
C630 C 0.1932 0.93628 1.00274 0.0
C631 C 0.18459 0.91864 0.03408 0.0
C632 C 0.20103 0.90543 0.03072 0.0
C633 C 0.18062 0.93425 0.01996 0.0
H634 H 0.21921 0.9242 0.98671 0.0
H635 H 0.20435 0.89365 0.04179 0.0
O636 O 0.27749 0.86154 1.00111 0.0
O637 O 0.25934 0.89278 0.0289 0.0
O638 O 0.24978 0.89622 0.98278 0.0
O639 O 0.23089 0.85947 0.00874 0.0
H640 H 0.2655 0.82289 1.00258 0.0
H641 H 0.30796 0.86476 0.97456 0.0
H642 H 0.28045 0.79475 0.98192 0.0
H643 H 0.32227 0.83588 0.95451 0.0
H644 H 0.22752 0.90965 0.08836 0.0
H645 H 0.25781 0.93284 0.02318 0.0
H646 H 0.2425 0.88403 0.06467 0.0
H647 H 0.24239 0.95759 0.04751 0.0
H648 H 0.34763 0.90812 0.99981 0.0
H649 H 0.30664 0.95789 0.98555 0.0
H650 H 0.2502 0.79761 0.06276 0.0
H651 H 0.28727 0.84436 0.09123 0.0
H652 H 0.21574 0.89115 0.96137 0.0
H653 H 0.28011 0.90463 0.95724 0.0
H654 H 0.21341 0.89325 0.92352 0.0
H655 H 0.2766 0.90683 0.9195 0.0
H656 H 0.19958 0.86801 0.98445 0.0
H657 H 0.21654 0.84881 0.04514 0.0
H658 H 0.16307 0.86628 0.99471 0.0
H659 H 0.17975 0.84709 0.05423 0.0
H660 H 0.21363 0.81342 0.94515 0.0
H661 H 0.26797 0.83833 0.91706 0.0
H662 H 0.1905 0.94828 0.99164 0.0
H663 H 0.17518 0.91683 0.04759 0.0
Li664 Li 0.11764 0.50472 0.27383 0.0
Li665 Li 0.14458 0.48441 0.25687 0.0
Li666 Li 0.14277 0.52234 0.25247 0.0
Li667 Li 0.1176 0.50036 0.23596 0.0
C668 C 0.15419 0.51947 0.29327 0.0
N669 N 0.16714 0.54658 0.3231 0.0
C670 C 0.17329 0.51696 0.30256 0.0
C671 C 0.1417 0.53579 0.29914 0.0
C672 C 0.17956 0.53082 0.31762 0.0
C673 C 0.1485 0.54932 0.31425 0.0
C674 C 0.10997 0.46312 0.27036 0.0
C675 C 0.08959 0.43359 0.27901 0.0
N676 N 0.10073 0.43117 0.29643 0.0
C677 C 0.12122 0.46035 0.28835 0.0
C678 C 0.09403 0.44965 0.26562 0.0
C679 C 0.11632 0.4441 0.30133 0.0
C680 C 0.08014 0.51141 0.2936 0.0
N681 N 0.10006 0.50655 0.29711 0.0
C682 C 0.09433 0.50617 0.33326 0.0
C683 C 0.10726 0.50356 0.31643 0.0
C684 C 0.0738 0.51157 0.33006 0.0
C685 C 0.06663 0.51396 0.30996 0.0
H686 H 0.07484 0.51358 0.27807 0.0
H687 H 0.12311 0.49945 0.3188 0.0
C688 C 0.17935 0.46068 0.26933 0.0
N689 N 0.16136 0.46059 0.25881 0.0
C690 C 0.19094 0.44274 0.27096 0.0
C691 C 0.16534 0.42512 0.25079 0.0
C692 C 0.15427 0.44332 0.24956 0.0
C693 C 0.18384 0.42475 0.26164 0.0
H694 H 0.18462 0.47462 0.2765 0.0
H695 H 0.13993 0.44371 0.24128 0.0
C696 C 0.10635 0.5445 0.24721 0.0
N697 N 0.09435 0.5837 0.23692 0.0
C698 C 0.10943 0.55182 0.22737 0.0
C699 C 0.09691 0.55702 0.26177 0.0
C700 C 0.10333 0.57171 0.22248 0.0
C701 C 0.09102 0.57682 0.25628 0.0
C702 C 0.15251 0.49943 0.21143 0.0
C703 C 0.15192 0.51676 0.19893 0.0
C704 C 0.15831 0.4806 0.20312 0.0
C705 C 0.15661 0.51485 0.17816 0.0
C706 C 0.16289 0.47931 0.18228 0.0
N707 N 0.16192 0.49631 0.17033 0.0
C708 C 0.17671 0.54622 0.23906 0.0
C709 C 0.15229 0.56453 0.25862 0.0
C710 C 0.18874 0.56386 0.23697 0.0
N711 N 0.1588 0.54689 0.24967 0.0
C712 C 0.16378 0.58243 0.25693 0.0
C713 C 0.18219 0.58217 0.246 0.0
H714 H 0.18169 0.53198 0.23227 0.0
H715 H 0.13824 0.56476 0.26725 0.0
C716 C 0.08329 0.50841 0.21058 0.0
N717 N 0.1002 0.49644 0.21264 0.0
C718 C 0.07012 0.50575 0.19393 0.0
C719 C 0.09169 0.4782 0.18201 0.0
C720 C 0.10439 0.4813 0.19896 0.0
C721 C 0.07438 0.49056 0.17942 0.0
H722 H 0.07986 0.51987 0.22199 0.0
H723 H 0.11741 0.47144 0.20135 0.0
O724 O 0.14794 0.50617 0.27831 0.0
O725 O 0.11449 0.47889 0.25737 0.0
O726 O 0.11236 0.52513 0.25238 0.0
O727 O 0.14801 0.50097 0.23182 0.0
H728 H 0.18321 0.50447 0.29818 0.0
H729 H 0.12696 0.53808 0.29202 0.0
H730 H 0.19432 0.52905 0.32493 0.0
H731 H 0.13898 0.56203 0.31889 0.0
H732 H 0.07729 0.42304 0.27554 0.0
H733 H 0.13364 0.47059 0.29226 0.0
H734 H 0.0852 0.4516 0.25174 0.0
H735 H 0.1249 0.44177 0.3153 0.0
H736 H 0.10027 0.50416 0.3486 0.0
H737 H 0.05084 0.51806 0.30703 0.0
H738 H 0.2052 0.44286 0.27942 0.0
H739 H 0.15952 0.41144 0.24343 0.0
H740 H 0.11628 0.5422 0.21583 0.0
H741 H 0.09428 0.55157 0.27717 0.0
H742 H 0.10567 0.57758 0.20719 0.0
H743 H 0.08382 0.58672 0.26742 0.0
H744 H 0.14808 0.53156 0.2052 0.0
H745 H 0.15911 0.46708 0.21262 0.0
H746 H 0.15612 0.52812 0.16829 0.0
H747 H 0.16723 0.46479 0.17561 0.0
H748 H 0.20296 0.56323 0.2285 0.0
H749 H 0.15842 0.59636 0.26415 0.0
H750 H 0.0567 0.51536 0.19241 0.0
H751 H 0.09518 0.46616 0.17116 0.0
Li752 Li 0.73551 0.61624 0.99931 0.0
Li753 Li 0.7509 0.6423 0.0221 0.0
Li754 Li 0.75749 0.64221 0.984 0.0
Li755 Li 0.77383 0.6164 0.00622 0.0
C756 C 0.71107 0.65 0.996 0.0
N757 N 0.66975 0.65657 0.98994 0.0
C758 C 0.69898 0.65759 0.01191 0.0
C759 C 0.70221 0.64596 0.97694 0.0
C760 C 0.6781 0.66077 0.00855 0.0
C761 C 0.68128 0.64931 0.9742 0.0
C762 C 0.74948 0.60486 0.04495 0.0
C763 C 0.76556 0.59687 0.07719 0.0
N764 N 0.74727 0.59011 0.0845 0.0
C765 C 0.7309 0.59759 0.05268 0.0
C766 C 0.767 0.60429 0.05721 0.0
C767 C 0.73007 0.5903 0.07276 0.0
C768 C 0.7146 0.58219 0.98283 0.0
N769 N 0.71233 0.59871 0.9953 0.0
C770 C 0.67739 0.58976 1.00172 0.0
C771 C 0.69428 0.60249 0.00497 0.0
C772 C 0.67932 0.57261 0.98893 0.0
C773 C 0.69824 0.56877 0.97953 0.0
H774 H 0.72918 0.57936 0.97555 0.0
H775 H 0.69299 0.61532 0.0153 0.0
C776 C 0.756 0.67794 0.04607 0.0
N777 N 0.74659 0.65935 0.04555 0.0
C778 C 0.75322 0.69103 0.06276 0.0
C779 C 0.73081 0.66581 0.07796 0.0
C780 C 0.73398 0.65323 0.06095 0.0
C781 C 0.74054 0.6849 0.07892 0.0
H782 H 0.76562 0.68263 0.03345 0.0
H783 H 0.72613 0.63874 0.05993 0.0
C784 C 0.76349 0.60934 0.95993 0.0
N785 N 0.7733 0.60487 0.91907 0.0
C786 C 0.7835 0.60449 0.95418 0.0
C787 C 0.7484 0.61163 0.94494 0.0
C788 C 0.78817 0.60235 0.93343 0.0
C789 C 0.75369 0.60941 0.92435 0.0
C790 C 0.79511 0.65363 0.01478 0.0
C791 C 0.80924 0.66354 1.00215 0.0
C792 C 0.7995 0.65101 0.03554 0.0
C793 C 0.82772 0.67041 0.01048 0.0
C794 C 0.81813 0.65811 0.04329 0.0
N795 N 0.83175 0.66756 0.03071 0.0
C796 C 0.74729 0.67337 0.95562 0.0
C797 C 0.77942 0.65763 0.94969 0.0
C798 C 0.75009 0.68624 0.93878 0.0
N799 N 0.76181 0.65934 0.96065 0.0
C800 C 0.78276 0.67004 0.9326 0.0
C801 C 0.76797 0.68454 0.92708 0.0
H802 H 0.73361 0.67472 0.96478 0.0
H803 H 0.79095 0.64672 0.95429 0.0
C804 C 0.7938 0.57983 0.01692 0.0
N805 N 0.79723 0.5993 0.0104 0.0
C806 C 0.81019 0.56648 0.02014 0.0
C807 C 0.83337 0.59345 0.00989 0.0
C808 C 0.81652 0.60619 0.00663 0.0
C809 C 0.83025 0.57334 0.0167 0.0
H810 H 0.77829 0.57467 0.01958 0.0
H811 H 0.81889 0.62149 1.0009 0.0
O812 O 0.73151 0.64669 0.99905 0.0
O813 O 0.75055 0.61197 0.0253 0.0
O814 O 0.75869 0.61172 0.98014 0.0
O815 O 0.77701 0.64673 0.00681 0.0
H816 H 0.70562 0.66092 0.02672 0.0
H817 H 0.71139 0.64024 0.96444 0.0
H818 H 0.66854 0.66656 0.02075 0.0
H819 H 0.67419 0.64615 0.95957 0.0
H820 H 0.77899 0.5964 0.08687 0.0
H821 H 0.71723 0.59774 0.04333 0.0
H822 H 0.78161 0.60933 0.05131 0.0
H823 H 0.71576 0.58478 0.07899 0.0
H824 H 0.66304 0.59307 0.00931 0.0
H825 H 0.70026 0.55559 0.96968 0.0
H826 H 0.76081 0.70577 0.06305 0.0
H827 H 0.72075 0.66081 0.09014 0.0
H828 H 0.79534 0.60257 0.96561 0.0
H829 H 0.7328 0.61513 0.94917 0.0
H830 H 0.80362 0.59873 0.92873 0.0
H831 H 0.7422 0.61128 0.91257 0.0
H832 H 0.80602 0.66581 0.98607 0.0
H833 H 0.78857 0.64376 0.04559 0.0
H834 H 0.83885 0.67801 1.00087 0.0
H835 H 0.82174 0.65616 0.05934 0.0
H836 H 0.73848 0.69741 0.93491 0.0
H837 H 0.7968 0.66854 0.92393 0.0
H838 H 0.80729 0.551 0.0253 0.0
H839 H 0.84867 0.59914 0.00696 0.0
Li840 Li 0.86702 0.02331 0.25724 0.0
Li841 Li 0.88991 1.00105 0.27302 0.0
Li842 Li 0.8928 0.00724 0.2358 0.0
Li843 Li 0.86305 0.98604 0.25209 0.0
C844 C 0.90036 0.04688 0.26051 0.0
N845 N 0.90605 0.08859 0.2645 0.0
C846 C 0.89683 0.05647 0.2793 0.0
C847 C 0.90708 0.05845 0.24383 0.0
C848 C 0.89968 0.0776 0.28098 0.0
C849 C 0.90981 0.07953 0.24614 0.0
C850 C 0.85751 0.99762 0.29762 0.0
C851 C 0.84926 0.97379 0.32456 0.0
N852 N 0.85342 0.98851 0.3387 0.0
C853 C 0.86149 0.01257 0.31241 0.0
C854 C 0.8512 0.9781 0.30371 0.0
C855 C 0.85944 0.00763 0.3331 0.0
C856 C 0.83669 0.04954 0.2745 0.0
N857 N 0.85141 0.04817 0.25983 0.0
C858 C 0.84367 0.08191 0.24803 0.0
C859 C 0.85494 0.06387 0.24662 0.0
C860 C 0.82849 0.08372 0.26303 0.0
C861 C 0.82494 0.06733 0.27639 0.0
H862 H 0.83394 0.03676 0.28462 0.0
H863 H 0.86638 0.06233 0.23483 0.0
C864 C 0.92274 0.00958 0.29984 0.0
N865 N 0.90696 0.99632 0.29669 0.0
C866 C 0.93616 0.00677 0.31624 0.0
C867 C 0.91696 0.97667 0.32594 0.0
C868 C 0.90399 0.97998 0.30927 0.0
C869 C 0.93325 0.99018 0.32947 0.0
H870 H 0.92511 0.0222 0.28944 0.0
H871 H 0.89177 0.96929 0.30622 0.0
C872 C 0.84769 0.01954 0.22169 0.0
N873 N 0.81733 0.04336 0.20447 0.0
C874 C 0.82751 0.01786 0.22857 0.0
C875 C 0.85242 0.03323 0.20596 0.0
C876 C 0.81239 0.03008 0.21971 0.0
C877 C 0.83684 0.04515 0.19746 0.0
C878 C 0.90637 0.96675 0.25915 0.0
C879 C 0.92731 0.97112 0.25918 0.0
C880 C 0.89923 0.94884 0.2684 0.0
C881 C 0.9408 0.95754 0.26869 0.0
C882 C 0.91322 0.93562 0.27769 0.0
N883 N 0.93353 0.94022 0.27767 0.0
C884 C 0.9304 0.01458 0.21591 0.0
C885 C 0.90282 0.00668 0.19361 0.0
C886 C 0.9436 0.0171 0.1993 0.0
N887 N 0.91043 0.00957 0.21277 0.0
C888 C 0.91544 0.00926 0.17653 0.0
C889 C 0.93605 0.0146 0.17935 0.0
H890 H 0.93598 0.01689 0.23133 0.0
H891 H 0.88691 1.00256 0.19159 0.0
C892 C 0.82568 0.96403 0.25516 0.0
N893 N 0.84497 0.96365 0.24735 0.0
C894 C 0.81238 0.94758 0.25188 0.0
C895 C 0.839 0.93074 0.23247 0.0
C896 C 0.85177 0.94753 0.23607 0.0
C897 C 0.8191 0.93071 0.24046 0.0
H898 H 0.82069 0.97706 0.26408 0.0
H899 H 0.86716 0.94771 0.22998 0.0
O900 O 0.89748 0.02623 0.25852 0.0
O901 O 0.85948 1.00215 0.27729 0.0
O902 O 0.86279 0.00811 0.23059 0.0
O903 O 0.89287 0.98011 0.25038 0.0
H904 H 0.89189 0.04771 0.29242 0.0
H905 H 0.90985 0.0513 0.22916 0.0
H906 H 0.89686 0.08524 0.29539 0.0
H907 H 0.91484 0.0887 0.23332 0.0
H908 H 0.84455 0.95871 0.3295 0.0
H909 H 0.86614 0.02781 0.30796 0.0
H910 H 0.84816 0.96631 0.2925 0.0
H911 H 0.8626 0.01902 0.34471 0.0
H912 H 0.84665 0.0943 0.23743 0.0
H913 H 0.81322 0.0683 0.28806 0.0
H914 H 0.94872 0.01736 0.31856 0.0
H915 H 0.91449 0.96361 0.33583 0.0
H916 H 0.82365 0.00747 0.24086 0.0
H917 H 0.86799 0.0349 0.20061 0.0
H918 H 0.79674 0.02907 0.22501 0.0
H919 H 0.8403 0.05591 0.18537 0.0
H920 H 0.93305 0.98498 0.25219 0.0
H921 H 0.88304 0.94533 0.26867 0.0
H922 H 0.95703 0.9608 0.26899 0.0
H923 H 0.90791 0.92176 0.28503 0.0
H924 H 0.95945 0.02124 0.20193 0.0
H925 H 0.9092 0.0072 0.1613 0.0
H926 H 0.79708 0.94793 0.25824 0.0
H927 H 0.84456 0.9179 0.22358 0.0
Li928 Li 0.25009 0.14266 0.52309 0.0
Li929 Li 0.23543 0.11674 0.50117 0.0
Li930 Li 0.27196 0.11683 0.50827 0.0
Li931 Li 0.25714 0.14283 0.48658 0.0
C932 C 0.25716 0.10765 0.54665 0.0
N933 N 0.27353 0.09741 0.58427 0.0
C934 C 0.24973 0.09068 0.55732 0.0
C935 C 0.27293 0.11942 0.55512 0.0
C936 C 0.2582 0.08575 0.57632 0.0
C937 C 0.281 0.11399 0.57415 0.0
C938 C 0.21161 0.15153 0.50829 0.0
C939 C 0.18171 0.1731 0.50926 0.0
N940 N 0.17388 0.1614 0.52458 0.0
C941 C 0.20326 0.13971 0.52404 0.0
C942 C 0.20077 0.16836 0.50082 0.0
C943 C 0.18417 0.14494 0.53207 0.0
C944 C 0.25237 0.17953 0.5453 0.0
N945 N 0.24527 0.15998 0.5462 0.0
C946 C 0.23135 0.16589 0.57954 0.0
C947 C 0.23484 0.15301 0.56283 0.0
C948 C 0.23858 0.18607 0.57899 0.0
C949 C 0.24917 0.19295 0.56165 0.0
H950 H 0.2605 0.18468 0.53183 0.0
H951 H 0.22921 0.13745 0.56313 0.0
C952 C 0.2132 0.07986 0.50366 0.0
N953 N 0.21238 0.09931 0.49632 0.0
C954 C 0.19683 0.06643 0.50048 0.0
C955 C 0.17912 0.09328 0.4822 0.0
C956 C 0.19583 0.10618 0.48569 0.0
C957 C 0.17958 0.07319 0.48967 0.0
H958 H 0.2266 0.0748 0.51195 0.0
H959 H 0.19559 0.12167 0.47991 0.0
C960 C 0.29558 0.15194 0.50146 0.0
N961 N 0.33321 0.16234 0.48523 0.0
C962 C 0.30407 0.14024 0.48569 0.0
C963 C 0.30622 0.16891 0.50897 0.0
C964 C 0.32311 0.14575 0.47769 0.0
C965 C 0.32523 0.17393 0.50056 0.0
C966 C 0.25032 0.10789 0.4627 0.0
C967 C 0.25785 0.09101 0.45196 0.0
C968 C 0.23455 0.11961 0.45424 0.0
C969 C 0.24947 0.08612 0.43289 0.0
C970 C 0.22658 0.11422 0.43514 0.0
N971 N 0.23414 0.09773 0.42495 0.0
C972 C 0.29405 0.07994 0.50577 0.0
C973 C 0.31168 0.1063 0.52352 0.0
C974 C 0.31032 0.06645 0.50896 0.0
N975 N 0.29503 0.09944 0.513 0.0
C976 C 0.32831 0.09334 0.52702 0.0
C977 C 0.32766 0.07319 0.51968 0.0
H978 H 0.28057 0.07488 0.49757 0.0
H979 H 0.31205 0.12182 0.52926 0.0
C980 C 0.2541 0.17966 0.46447 0.0
N981 N 0.26175 0.16033 0.46359 0.0
C982 C 0.25699 0.19315 0.44814 0.0
C983 C 0.27566 0.16664 0.43033 0.0
C984 C 0.27243 0.15366 0.447 0.0
C985 C 0.26786 0.1866 0.43086 0.0
H986 H 0.24576 0.18457 0.4779 0.0
H987 H 0.27844 0.13826 0.44669 0.0
O988 O 0.24907 0.11249 0.52795 0.0
O989 O 0.23034 0.14684 0.5002 0.0
O990 O 0.27688 0.147 0.5095 0.0
O991 O 0.25834 0.11271 0.48144 0.0
H992 H 0.23753 0.08141 0.55096 0.0
H993 H 0.27889 0.13261 0.54712 0.0
H994 H 0.2526 0.07265 0.58474 0.0
H995 H 0.2932 0.12297 0.58088 0.0
H996 H 0.17315 0.1861 0.50364 0.0
H997 H 0.21138 0.1266 0.53001 0.0
H998 H 0.20702 0.17766 0.48863 0.0
H999 H 0.17753 0.13592 0.54426 0.0
H1000 H 0.22309 0.16021 0.59273 0.0
H1001 H 0.2549 0.20849 0.56084 0.0
H1002 H 0.19758 0.05097 0.50639 0.0
H1003 H 0.166 0.09887 0.47376 0.0
H1004 H 0.29609 0.12704 0.47968 0.0
H1005 H 0.29984 0.17813 0.52117 0.0
H1006 H 0.32986 0.13683 0.46549 0.0
H1007 H 0.33364 0.18704 0.50622 0.0
H1008 H 0.27005 0.08178 0.4583 0.0
H1009 H 0.22852 0.13273 0.46229 0.0
H1010 H 0.25515 0.07309 0.42441 0.0
H1011 H 0.21438 0.12316 0.42842 0.0
H1012 H 0.30943 0.05094 0.50316 0.0
H1013 H 0.3415 0.09891 0.53539 0.0
H1014 H 0.25083 0.20851 0.44895 0.0
H1015 H 0.28415 0.16121 0.41717 0.0
Li1016 Li 0.39132 0.50211 0.77217 0.0
Li1017 Li 0.36698 0.52386 0.75714 0.0
Li1018 Li 0.36433 0.48679 0.75115 0.0
Li1019 Li 0.3918 0.50818 0.73475 0.0
C1020 C 0.36083 0.49977 0.79798 0.0
N1021 N 0.36156 0.49487 0.84 0.0
C1022 C 0.36809 0.5155 0.81056 0.0
C1023 C 0.35354 0.48171 0.80682 0.0
C1024 C 0.36847 0.51269 0.83175 0.0
C1025 C 0.35412 0.47949 0.82808 0.0
C1026 C 0.39941 0.54853 0.75624 0.0
C1027 C 0.40516 0.57934 0.73673 0.0
N1028 N 0.4034 0.5906 0.75415 0.0
C1029 C 0.39788 0.5604 0.77398 0.0
C1030 C 0.40321 0.55806 0.73746 0.0
C1031 C 0.39984 0.58165 0.77259 0.0
C1032 C 0.42205 0.51199 0.80109 0.0
N1033 N 0.40874 0.49712 0.79511 0.0
C1034 C 0.42002 0.47521 0.82214 0.0
C1035 C 0.40762 0.4789 0.8051 0.0
C1036 C 0.43381 0.49035 0.82863 0.0
C1037 C 0.43484 0.50889 0.81794 0.0
H1038 H 0.42275 0.52625 0.79277 0.0
H1039 H 0.397 0.46729 0.79989 0.0
C1040 C 0.3378 0.54879 0.77747 0.0
N1041 N 0.35065 0.54817 0.76111 0.0
C1042 C 0.32513 0.56569 0.78063 0.0
C1043 C 0.33878 0.58093 0.74984 0.0
C1044 C 0.35135 0.56384 0.7474 0.0
C1045 C 0.32549 0.58192 0.76663 0.0
H1046 H 0.33711 0.53604 0.78793 0.0
H1047 H 0.36138 0.56294 0.73432 0.0
C1048 C 0.39869 0.46575 0.73704 0.0
N1049 N 0.4074 0.4338 0.71075 0.0
C1050 C 0.38862 0.46423 0.71821 0.0
C1051 C 0.41315 0.45101 0.74251 0.0
C1052 C 0.39325 0.44797 0.70513 0.0
C1053 C 0.41736 0.43498 0.72901 0.0
C1054 C 0.34535 0.51954 0.72322 0.0
C1055 C 0.32637 0.51728 0.73284 0.0
C1056 C 0.34731 0.53295 0.70669 0.0
C1057 C 0.30967 0.52862 0.72581 0.0
C1058 C 0.33023 0.54397 0.70009 0.0
N1059 N 0.31193 0.54162 0.70972 0.0
C1060 C 0.33412 0.46312 0.73068 0.0
C1061 C 0.34899 0.44702 0.75958 0.0
C1062 C 0.32143 0.44622 0.72731 0.0
N1063 N 0.34731 0.46335 0.74679 0.0
C1064 C 0.33643 0.42988 0.75691 0.0
C1065 C 0.32237 0.42947 0.74067 0.0
H1066 H 0.33349 0.476 0.72036 0.0
H1067 H 0.36011 0.44731 0.77184 0.0
C1068 C 0.42961 0.51262 0.71495 0.0
N1069 N 0.4092 0.51042 0.71151 0.0
C1070 C 0.4431 0.51498 0.69854 0.0
C1071 C 0.41432 0.51251 0.67535 0.0
C1072 C 0.40139 0.51008 0.69221 0.0
C1073 C 0.4354 0.51511 0.6785 0.0
H1074 H 0.43535 0.51276 0.73048 0.0
H1075 H 0.38513 0.508 0.68992 0.0
O1076 O 0.36085 0.50207 0.77714 0.0
O1077 O 0.39734 0.5277 0.75725 0.0
O1078 O 0.39438 0.48146 0.75018 0.0
O1079 O 0.36199 0.50899 0.73028 0.0
H1080 H 0.37359 0.52963 0.804 0.0
H1081 H 0.34746 0.46955 0.79741 0.0
H1082 H 0.37428 0.52465 0.84162 0.0
H1083 H 0.34864 0.46554 0.8351 0.0
H1084 H 0.40796 0.58691 0.72228 0.0
H1085 H 0.39516 0.55334 0.78867 0.0
H1086 H 0.40434 0.54921 0.72354 0.0
H1087 H 0.39855 0.59102 0.78618 0.0
H1088 H 0.41898 0.46072 0.83011 0.0
H1089 H 0.44541 0.5208 0.82261 0.0
H1090 H 0.31491 0.56598 0.79368 0.0
H1091 H 0.33929 0.59318 0.73869 0.0
H1092 H 0.37732 0.47544 0.71373 0.0
H1093 H 0.42104 0.45196 0.75707 0.0
H1094 H 0.38558 0.44661 0.69051 0.0
H1095 H 0.42853 0.42346 0.73304 0.0
H1096 H 0.32465 0.50711 0.74579 0.0
H1097 H 0.36194 0.53512 0.69926 0.0
H1098 H 0.29493 0.52715 0.73321 0.0
H1099 H 0.33156 0.5545 0.68739 0.0
H1100 H 0.31088 0.44625 0.71451 0.0
H1101 H 0.33765 0.41708 0.76735 0.0
H1102 H 0.45931 0.51692 0.70142 0.0
H1103 H 0.40797 0.51247 0.66003 0.0
Li1104 Li 0.77241 0.38878 0.50045 0.0
Li1105 Li 0.75762 0.36289 0.52229 0.0
Li1106 Li 0.75016 0.36306 0.48582 0.0
Li1107 Li 0.73598 0.38909 0.50783 0.0
C1108 C 0.79581 0.35342 0.50689 0.0
N1109 N 0.83362 0.3426 0.52242 0.0
C1110 C 0.80472 0.36494 0.52259 0.0
C1111 C 0.80613 0.33641 0.49909 0.0
C1112 C 0.82385 0.35922 0.53023 0.0
C1113 C 0.82524 0.33119 0.50714 0.0
C1114 C 0.75134 0.39786 0.54618 0.0
C1115 C 0.72783 0.39171 0.57395 0.0
N1116 N 0.73579 0.40804 0.58415 0.0
C1117 C 0.75928 0.41457 0.55693 0.0
C1118 C 0.73548 0.38632 0.55474 0.0
C1119 C 0.75121 0.41948 0.57611 0.0
C1120 C 0.79444 0.42563 0.5029 0.0
N1121 N 0.79551 0.40612 0.4957 0.0
C1122 C 0.82898 0.41225 0.48221 0.0
C1123 C 0.81226 0.39928 0.48541 0.0
C1124 C 0.82826 0.43239 0.48956 0.0
C1125 C 0.81077 0.43914 0.49996 0.0
H1126 H 0.78087 0.43066 0.51091 0.0
H1127 H 0.81268 0.38377 0.47969 0.0
C1128 C 0.75462 0.32621 0.54484 0.0
N1129 N 0.76244 0.3455 0.54536 0.0
C1130 C 0.75771 0.31291 0.5613 0.0
C1131 C 0.7769 0.33954 0.57846 0.0
C1132 C 0.77348 0.35232 0.56168 0.0
C1133 C 0.76894 0.31962 0.57833 0.0
H1134 H 0.74599 0.32118 0.53162 0.0
H1135 H 0.77961 0.36769 0.56171 0.0
C1136 C 0.75733 0.39794 0.46215 0.0
N1137 N 0.7733 0.40787 0.42429 0.0
C1138 C 0.74969 0.41471 0.45133 0.0
C1139 C 0.7731 0.38622 0.45372 0.0
C1140 C 0.75797 0.41949 0.43221 0.0
C1141 C 0.78096 0.39148 0.43456 0.0
C1142 C 0.71173 0.35449 0.50102 0.0
C1143 C 0.70338 0.36632 0.48528 0.0
C1144 C 0.70069 0.33787 0.50872 0.0
C1145 C 0.6841 0.3613 0.4775 0.0
C1146 C 0.68145 0.33334 0.50053 0.0
N1147 N 0.67362 0.34505 0.48521 0.0
C1148 C 0.7521 0.32629 0.46337 0.0
C1149 C 0.73447 0.35293 0.44617 0.0
C1150 C 0.7488 0.31302 0.44691 0.0
N1151 N 0.74501 0.34583 0.46268 0.0
C1152 C 0.73087 0.3402 0.42936 0.0
C1153 C 0.73812 0.32003 0.42968 0.0
H1154 H 0.76032 0.32104 0.47675 0.0
H1155 H 0.72887 0.36849 0.44601 0.0
C1156 C 0.71424 0.4261 0.5051 0.0
N1157 N 0.71319 0.40675 0.51268 0.0
C1158 C 0.69802 0.4397 0.50802 0.0
C1159 C 0.67999 0.41326 0.52662 0.0
C1160 C 0.69657 0.40017 0.52337 0.0
C1161 C 0.68067 0.43323 0.51885 0.0
H1162 H 0.7277 0.43092 0.49676 0.0
H1163 H 0.69613 0.38475 0.52933 0.0
O1164 O 0.77706 0.3586 0.49916 0.0
O1165 O 0.7591 0.39298 0.52736 0.0
O1166 O 0.74939 0.39322 0.48094 0.0
O1167 O 0.73061 0.359 0.50892 0.0
H1168 H 0.79701 0.37818 0.5288 0.0
H1169 H 0.79944 0.32735 0.48692 0.0
H1170 H 0.83092 0.368 0.54238 0.0
H1171 H 0.8334 0.31806 0.50124 0.0
H1172 H 0.71557 0.3829 0.58076 0.0
H1173 H 0.77157 0.42365 0.55051 0.0
H1174 H 0.72915 0.3733 0.5467 0.0
H1175 H 0.75722 0.43238 0.5846 0.0
H1176 H 0.8423 0.40669 0.47408 0.0
H1177 H 0.80983 0.45464 0.50576 0.0
H1178 H 0.7514 0.29758 0.5608 0.0
H1179 H 0.78566 0.3451 0.59141 0.0
H1180 H 0.73748 0.42394 0.45766 0.0
H1181 H 0.7792 0.37316 0.46181 0.0
H1182 H 0.7522 0.43243 0.42367 0.0
H1183 H 0.79316 0.38253 0.42785 0.0
H1184 H 0.71163 0.37928 0.47915 0.0
H1185 H 0.70694 0.32857 0.52092 0.0
H1186 H 0.67746 0.37033 0.46532 0.0
H1187 H 0.67274 0.32051 0.50634 0.0
H1188 H 0.75454 0.29749 0.44755 0.0
H1189 H 0.72254 0.34599 0.41625 0.0
H1190 H 0.69894 0.45507 0.50188 0.0
H1191 H 0.66678 0.40789 0.53506 0.0
Li1192 Li 0.64566 0.98722 0.75779 0.0
Li1193 Li 0.61749 0.00874 0.77394 0.0
Li1194 Li 0.61876 1.00203 0.73529 0.0
Li1195 Li 0.64338 0.02308 0.75235 0.0
C1196 C 0.60539 0.96523 0.76421 0.0
N1197 N 0.58453 0.93054 0.7765 0.0
C1198 C 0.6031 0.96088 0.78503 0.0
C1199 C 0.59692 0.95201 0.74965 0.0
C1200 C 0.59254 0.94324 0.79093 0.0
C1201 C 0.58648 0.93452 0.75617 0.0
C1202 C 0.66289 0.02013 0.78715 0.0
C1203 C 0.67487 0.04744 0.80896 0.0
N1204 N 0.6943 0.04413 0.80229 0.0
C1205 C 0.68299 0.01694 0.78059 0.0
C1206 C 0.65878 0.03545 0.8015 0.0
C1207 C 0.69865 0.02926 0.78839 0.0
C1208 C 0.68179 0.96376 0.75263 0.0
N1209 N 0.66319 0.96399 0.76201 0.0
C1210 C 0.66982 0.93132 0.77717 0.0
C1211 C 0.65713 0.94827 0.77425 0.0
C1212 C 0.68894 0.9307 0.76752 0.0
C1213 C 0.69499 0.94714 0.75517 0.0
H1214 H 0.6864 0.97651 0.74315 0.0
H1215 H 0.64253 0.94888 0.78186 0.0
C1216 C 0.57932 0.01487 0.79317 0.0
N1217 N 0.59961 0.01189 0.79668 0.0
C1218 C 0.56583 0.01739 0.80958 0.0
C1219 C 0.59441 0.01378 0.83284 0.0
C1220 C 0.60732 0.01116 0.81601 0.0
C1221 C 0.57343 0.01696 0.82966 0.0
H1222 H 0.57365 0.0153 0.77761 0.0
H1223 H 0.62348 0.00848 0.81834 0.0
C1224 C 0.65377 0.98816 0.71615 0.0
N1225 N 0.66292 0.96006 0.68588 0.0
C1226 C 0.66742 0.99328 0.70051 0.0
C1227 C 0.6448 0.96873 0.71639 0.0
C1228 C 0.67183 0.97888 0.68533 0.0
C1229 C 0.64962 0.95474 0.70097 0.0
C1230 C 0.6105 0.04626 0.742 0.0
C1231 C 0.61723 0.04989 0.72203 0.0
C1232 C 0.60119 0.06198 0.7531 0.0
C1233 C 0.6147 0.06933 0.71354 0.0
C1234 C 0.59892 0.08121 0.74404 0.0
N1235 N 0.60568 0.08446 0.72463 0.0
C1236 C 0.58116 0.99355 0.71625 0.0
C1237 C 0.60816 0.99939 0.69273 0.0
C1238 C 0.56735 0.99045 0.7002 0.0
N1239 N 0.60115 0.99779 0.71227 0.0
C1240 C 0.59492 0.9962 0.67622 0.0
C1241 C 0.57426 0.99169 0.67993 0.0
H1242 H 0.57597 0.99261 0.73194 0.0
H1243 H 0.62398 1.00325 0.6899 0.0
C1244 C 0.67544 0.04836 0.73659 0.0
N1245 N 0.65914 0.04776 0.74952 0.0
C1246 C 0.68715 0.06623 0.7348 0.0
C1247 C 0.66504 0.08242 0.75964 0.0
C1248 C 0.65381 0.06431 0.76095 0.0
C1249 C 0.6819 0.08344 0.74647 0.0
H1250 H 0.67944 0.03493 0.72779 0.0
H1251 H 0.64095 0.06337 0.7713 0.0
O1252 O 0.61531 0.98265 0.75813 0.0
O1253 O 0.64732 0.00851 0.77932 0.0
O1254 O 0.64934 1.00221 0.73106 0.0
O1255 O 0.61326 0.02748 0.75074 0.0
H1256 H 0.60963 0.97087 0.79651 0.0
H1257 H 0.59836 0.9552 0.73347 0.0
H1258 H 0.59075 0.93965 0.80699 0.0
H1259 H 0.57989 0.92414 0.74506 0.0
H1260 H 0.67189 0.05945 0.81996 0.0
H1261 H 0.68641 0.00525 0.76938 0.0
H1262 H 0.64328 0.03832 0.80656 0.0
H1263 H 0.71426 0.02706 0.78333 0.0
H1264 H 0.66483 0.91887 0.7869 0.0
H1265 H 0.70973 0.94708 0.74759 0.0
H1266 H 0.54968 0.01977 0.80667 0.0
H1267 H 0.6007 0.0133 0.84818 0.0
H1268 H 0.67448 0.00826 0.70006 0.0
H1269 H 0.63435 0.96441 0.72839 0.0
H1270 H 0.68235 0.98265 0.67312 0.0
H1271 H 0.6428 0.93965 0.70101 0.0
H1272 H 0.62459 0.03789 0.71331 0.0
H1273 H 0.59593 0.05937 0.76859 0.0
H1274 H 0.61996 0.07242 0.69815 0.0
H1275 H 0.59183 0.09356 0.75247 0.0
H1276 H 0.55146 0.98708 0.70353 0.0
H1277 H 0.60066 0.99739 0.66072 0.0
H1278 H 0.70016 0.06661 0.72455 0.0
H1279 H 0.6607 0.09549 0.76887 0.0
Li1280 Li 0.02393 0.25559 0.86645 0.0
Li1281 Li 1.00132 0.27245 0.89235 0.0
Li1282 Li 0.00758 0.23434 0.89291 0.0
Li1283 Li 0.98776 0.25005 0.86685 0.0
C1284 C 0.04263 0.2712 0.90192 0.0
N1285 N 0.07238 0.29963 0.91199 0.0
C1286 C 0.04496 0.28899 0.89025 0.0
C1287 C 0.0555 0.26789 0.91869 0.0
C1288 C 0.06006 0.30317 0.89559 0.0
C1289 C 0.07043 0.28244 0.92354 0.0
C1290 C 0.99165 0.2844 0.84619 0.0
C1291 C 0.96832 0.30919 0.83196 0.0
N1292 N 0.9692 0.29938 0.81362 0.0
C1293 C 0.99235 0.27458 0.82717 0.0
C1294 C 0.97953 0.30185 0.84862 0.0
C1295 C 0.98087 0.28238 0.81091 0.0
C1296 C 0.04901 0.26755 0.83216 0.0
N1297 N 0.04892 0.25866 0.85101 0.0
C1298 C 0.08507 0.25307 0.84912 0.0
C1299 C 0.06655 0.2517 0.85965 0.0
C1300 C 0.08548 0.26184 0.82959 0.0
C1301 C 0.06726 0.26926 0.82107 0.0
H1302 H 0.035 0.27336 0.82569 0.0
H1303 H 0.06628 0.24507 0.87479 0.0
C1304 C 0.99222 0.29224 0.92936 0.0
N1305 N 0.99768 0.2957 0.90958 0.0
C1306 C 0.98931 0.30863 0.94277 0.0
C1307 C 0.99779 0.33186 0.91524 0.0
C1308 C 1.00071 0.315 0.90239 0.0
C1309 C 0.99199 0.32871 0.93566 0.0
H1310 H 0.99008 0.27671 0.93466 0.0
H1311 H 0.00546 0.31729 0.88672 0.0
C1312 C 0.02339 0.21414 0.85887 0.0
N1313 N 0.05205 0.18416 0.85059 0.0
C1314 C 0.02181 0.20235 0.84108 0.0
C1315 C 0.03964 0.21074 0.87238 0.0
C1316 C 0.03643 0.18725 0.83718 0.0
C1317 C 0.05393 0.1955 0.86795 0.0
C1318 C 0.96119 0.24806 0.89728 0.0
C1319 C 0.95189 0.22909 0.89381 0.0
C1320 C 0.94908 0.26527 0.90103 0.0
C1321 C 0.93055 0.22773 0.89383 0.0
C1322 C 0.92779 0.26325 0.901 0.0
N1323 N 0.91904 0.24469 0.89739 0.0
C1324 C 0.02316 0.21255 0.92697 0.0
C1325 C 1.00022 0.19352 0.9062 0.0
C1326 C 0.02617 0.19568 0.93973 0.0
N1327 N 0.01046 0.21114 0.91053 0.0
C1328 C 1.00249 0.17637 0.91878 0.0
C1329 C 0.01572 0.17735 0.9357 0.0
H1330 H 0.03105 0.22673 0.93006 0.0
H1331 H 0.99041 0.19275 0.89288 0.0
C1332 C 0.96314 0.22786 0.83868 0.0
N1333 N 0.96391 0.2454 0.84988 0.0
C1334 C 0.94658 0.22401 0.82568 0.0
C1335 C 0.93172 0.25621 0.83614 0.0
C1336 C 0.94847 0.25936 0.84905 0.0
C1337 C 0.93075 0.23841 0.82421 0.0
H1338 H 0.97543 0.21688 0.83979 0.0
H1339 H 0.94925 0.27307 0.85825 0.0
O1340 O 0.02789 0.25707 0.89702 0.0
O1341 O 1.00257 0.27684 0.86239 0.0
O1342 O 0.00915 0.22901 0.86279 0.0
O1343 O 0.98204 0.2498 0.89694 0.0
H1344 H 0.03529 0.29186 0.87715 0.0
H1345 H 0.05405 0.25423 0.92788 0.0
H1346 H 0.062 0.31698 0.88668 0.0
H1347 H 0.08048 0.28006 0.93648 0.0
H1348 H 0.95881 0.32263 0.83366 0.0
H1349 H 1.00124 0.26077 0.82515 0.0
H1350 H 0.97853 0.30948 0.86326 0.0
H1351 H 0.98112 0.27482 0.79618 0.0
H1352 H 0.09895 0.24732 0.85612 0.0
H1353 H 0.06717 0.27622 0.80604 0.0
H1354 H 0.98491 0.30573 0.95848 0.0
H1355 H 1.00008 0.34718 0.90936 0.0
H1356 H 0.00946 0.20486 0.83034 0.0
H1357 H 0.04138 0.21988 0.88604 0.0
H1358 H 0.03537 0.17802 0.82347 0.0
H1359 H 0.06657 0.19274 0.87829 0.0
H1360 H 0.96105 0.21565 0.89081 0.0
H1361 H 0.95604 0.28007 0.90369 0.0
H1362 H 0.92313 0.21319 0.89095 0.0
H1363 H 0.91821 0.27646 0.90375 0.0
H1364 H 0.03648 0.19692 0.95267 0.0
H1365 H 0.99423 0.16242 0.91526 0.0
H1366 H 0.94618 0.21006 0.81671 0.0
H1367 H 0.91968 0.26756 0.83539 0.0
Li1368 Li 0.52291 0.75853 0.3692 0.0
Li1369 Li 0.50111 0.7728 0.39441 0.0
Li1370 Li 0.50821 0.73479 0.39424 0.0
Li1371 Li 0.48645 0.75234 0.36769 0.0
C1372 C 0.54823 0.75832 0.40092 0.0
N1373 N 0.59047 0.75873 0.40352 0.0
C1374 C 0.55919 0.77603 0.39596 0.0
C1375 C 0.55878 0.74086 0.40735 0.0
C1376 C 0.58053 0.77591 0.3973 0.0
C1377 C 0.58013 0.74137 0.40856 0.0
C1378 C 0.4978 0.79935 0.36652 0.0
C1379 C 0.47518 0.82809 0.37155 0.0
N1380 N 0.49163 0.84084 0.37214 0.0
C1381 C 0.51449 0.81276 0.36729 0.0
C1382 C 0.47797 0.80708 0.36874 0.0
C1383 C 0.51105 0.83367 0.3701 0.0
C1384 C 0.54604 0.77696 0.33735 0.0
N1385 N 0.54649 0.76197 0.35177 0.0
C1386 C 0.57933 0.75085 0.33998 0.0
C1387 C 0.5626 0.74884 0.35313 0.0
C1388 C 0.57942 0.76651 0.32534 0.0
C1389 C 0.56254 0.77967 0.32405 0.0
H1390 H 0.53274 0.78665 0.33594 0.0
H1391 H 0.56236 0.73662 0.36424 0.0
C1392 C 0.4772 0.79908 0.41977 0.0
N1393 N 0.49647 0.79535 0.41282 0.0
C1394 C 0.47342 0.8157 0.43271 0.0
C1395 C 0.50942 0.82414 0.43147 0.0
C1396 C 0.5125 0.80738 0.41854 0.0
C1397 C 0.48967 0.82842 0.43861 0.0
H1398 H 0.46474 0.78924 0.41518 0.0
H1399 H 0.52767 0.80409 0.41295 0.0
C1400 C 0.51677 0.72524 0.34629 0.0
N1401 N 0.5346 0.71319 0.30991 0.0
C1402 C 0.51128 0.73477 0.32794 0.0
C1403 C 0.53129 0.70956 0.34613 0.0
C1404 C 0.52048 0.72846 0.30971 0.0
C1405 C 0.54013 0.70368 0.32757 0.0
C1406 C 0.46195 0.74216 0.39793 0.0
C1407 C 0.45828 0.72163 0.40267 0.0
C1408 C 0.44553 0.75487 0.39275 0.0
C1409 C 0.43826 0.71411 0.40199 0.0
C1410 C 0.42575 0.74675 0.39218 0.0
N1411 N 0.42255 0.72671 0.39677 0.0
C1412 C 0.51301 0.71366 0.43132 0.0
C1413 C 0.51322 0.69218 0.40203 0.0
C1414 C 0.51591 0.69682 0.44415 0.0
N1415 N 0.51186 0.71106 0.4107 0.0
C1416 C 0.51625 0.67492 0.41429 0.0
C1417 C 0.51765 0.67722 0.43559 0.0
H1418 H 0.51179 0.72887 0.43775 0.0
H1419 H 0.51191 0.69054 0.38563 0.0
C1420 C 0.4561 0.72805 0.34853 0.0
N1421 N 0.46384 0.74737 0.34963 0.0
C1422 C 0.4396 0.72372 0.33561 0.0
C1423 C 0.43969 0.75908 0.32475 0.0
C1424 C 0.4562 0.76273 0.33785 0.0
C1425 C 0.43123 0.7394 0.32364 0.0
H1426 H 0.46275 0.71603 0.35774 0.0
H1427 H 0.46304 0.77776 0.33846 0.0
O1428 O 0.52732 0.75805 0.39956 0.0
O1429 O 0.50088 0.77874 0.36422 0.0
O1430 O 0.50847 0.73173 0.36437 0.0
O1431 O 0.48152 0.74971 0.3981 0.0
H1432 H 0.55137 0.78959 0.3907 0.0
H1433 H 0.55064 0.72699 0.41122 0.0
H1434 H 0.5892 0.78944 0.3933 0.0
H1435 H 0.58848 0.72795 0.41343 0.0
H1436 H 0.45993 0.83424 0.37339 0.0
H1437 H 0.52996 0.80711 0.36601 0.0
H1438 H 0.46488 0.79697 0.36868 0.0
H1439 H 0.52384 0.84419 0.37077 0.0
H1440 H 0.59204 0.74029 0.34117 0.0
H1441 H 0.56207 0.79174 0.31271 0.0
H1442 H 0.458 0.81862 0.43804 0.0
H1443 H 0.52227 0.83369 0.43582 0.0
H1444 H 0.50031 0.74715 0.32782 0.0
H1445 H 0.53598 0.70226 0.36022 0.0
H1446 H 0.51649 0.73579 0.29542 0.0
H1447 H 0.55148 0.69166 0.32724 0.0
H1448 H 0.47073 0.71154 0.40671 0.0
H1449 H 0.44806 0.77072 0.38879 0.0
H1450 H 0.43522 0.69822 0.40555 0.0
H1451 H 0.41295 0.75637 0.38799 0.0
H1452 H 0.5169 0.69904 0.46055 0.0
H1453 H 0.51746 0.65995 0.40728 0.0
H1454 H 0.43344 0.70833 0.33493 0.0
H1455 H 0.43364 0.77142 0.31549 0.0
Li1456 Li 0.00819 0.77183 0.61418 0.0
Li1457 Li 0.9867 0.75748 0.63944 0.0
Li1458 Li 0.02321 0.75139 0.64086 0.0
Li1459 Li 1.00128 0.73376 0.61435 0.0
C1460 C 0.01269 0.7982 0.64213 0.0
N1461 N 0.02068 0.83938 0.63645 0.0
C1462 C 0.99658 0.81205 0.6396 0.0
C1463 C 0.03287 0.80535 0.64173 0.0
C1464 C 1.00093 0.83279 0.63675 0.0
C1465 C 0.03659 0.82621 0.63887 0.0
C1466 C 0.96109 0.75683 0.60827 0.0
C1467 C 0.9292 0.73917 0.60219 0.0
N1468 N 0.9188 0.75657 0.60688 0.0
C1469 C 0.95007 0.77457 0.61289 0.0
C1470 C 0.95057 0.73899 0.60279 0.0
C1471 C 0.9287 0.77411 0.61217 0.0
C1472 C 0.03208 0.80002 0.59096 0.0
N1473 N 0.01263 0.79438 0.59582 0.0
C1474 C 0.99902 0.82127 0.57506 0.0
C1475 C 0.9962 0.80451 0.58802 0.0
C1476 C 0.01892 0.82752 0.57007 0.0
C1477 C 0.03561 0.81672 0.57809 0.0
H1478 H 0.04487 0.79171 0.59723 0.0
H1479 H 0.98092 0.79966 0.59193 0.0
C1480 C 0.96283 0.77725 0.66992 0.0
N1481 N 0.96313 0.76111 0.65678 0.0
C1482 C 0.94615 0.78026 0.68294 0.0
C1483 C 0.9307 0.74951 0.66927 0.0
C1484 C 0.94758 0.74722 0.65637 0.0
C1485 C 0.92987 0.76626 0.68265 0.0
H1486 H 0.97564 0.7877 0.67049 0.0
H1487 H 0.94834 0.73426 0.64612 0.0
C1488 C 0.04752 0.74188 0.6094 0.0
N1489 N 0.08728 0.72752 0.60779 0.0
C1490 C 0.05147 0.72191 0.60284 0.0
C1491 C 0.06384 0.7546 0.61499 0.0
C1492 C 0.07166 0.71493 0.60214 0.0
C1493 C 0.08381 0.74703 0.61414 0.0
C1494 C 0.99331 0.72429 0.66258 0.0
C1495 C 0.99839 0.73463 0.68062 0.0
C1496 C 0.97965 0.70783 0.66326 0.0
C1497 C 0.98966 0.72833 0.69908 0.0
C1498 C 0.97127 0.70198 0.68203 0.0
N1499 N 0.9764 0.71227 0.6994 0.0
C1500 C 0.05122 0.76139 0.67272 0.0
C1501 C 0.05614 0.72863 0.65789 0.0
C1502 C 0.06783 0.75838 0.68584 0.0
N1503 N 0.04596 0.74676 0.65884 0.0
C1504 C 0.07297 0.72505 0.6706 0.0
C1505 C 0.07896 0.74011 0.68467 0.0
H1506 H 0.0424 0.77532 0.67375 0.0
H1507 H 0.05126 0.71699 0.64718 0.0
C1508 C 0.99612 0.71277 0.57723 0.0
N1509 N 0.99769 0.71005 0.59781 0.0
C1510 C 0.99326 0.69597 0.56431 0.0
C1511 C 0.99375 0.67386 0.59398 0.0
C1512 C 0.99675 0.69109 0.60633 0.0
C1513 C 0.99194 0.67628 0.57272 0.0
H1514 H 0.997 0.72804 0.57092 0.0
H1515 H 0.99837 0.68936 0.6227 0.0
O1516 O 0.00874 0.77773 0.64437 0.0
O1517 O 0.98204 0.75688 0.60913 0.0
O1518 O 0.02781 0.74891 0.61037 0.0
O1519 O 1.00116 0.73072 0.64427 0.0
H1520 H 0.98088 0.80683 0.63955 0.0
H1521 H 0.04557 0.79489 0.64326 0.0
H1522 H 0.98861 0.84363 0.63467 0.0
H1523 H 0.05213 0.83191 0.63842 0.0
H1524 H 0.92087 0.72545 0.59806 0.0
H1525 H 0.95788 0.78846 0.61736 0.0
H1526 H 0.95877 0.7251 0.59922 0.0
H1527 H 0.91999 0.78767 0.61591 0.0
H1528 H 0.98585 0.82931 0.56901 0.0
H1529 H 0.05115 0.8212 0.57445 0.0
H1530 H 0.94603 0.79323 0.69327 0.0
H1531 H 0.91844 0.73835 0.66885 0.0
H1532 H 0.0391 0.71184 0.59841 0.0
H1533 H 0.06112 0.76998 0.62039 0.0
H1534 H 0.07492 0.69949 0.59715 0.0
H1535 H 0.09654 0.75664 0.61864 0.0
H1536 H 0.00865 0.74763 0.68032 0.0
H1537 H 0.97527 0.69987 0.6494 0.0
H1538 H 0.99335 0.73628 0.71314 0.0
H1539 H 0.9606 0.68934 0.68278 0.0
H1540 H 0.07199 0.77015 0.69675 0.0
H1541 H 0.08118 0.7107 0.66954 0.0
H1542 H 0.99195 0.69829 0.54795 0.0
H1543 H 0.99287 0.65882 0.60088 0.0
Li1544 Li 0.50702 0.27328 0.11647 0.0
Li1545 Li 0.48654 0.25791 0.14255 0.0
Li1546 Li 0.52486 0.25149 0.14123 0.0
Li1547 Li 0.49997 0.23682 0.11573 0.0
C1548 C 0.51501 0.29726 0.14948 0.0
N1549 N 0.52588 0.33775 0.15515 0.0
C1550 C 0.5014 0.31287 0.14416 0.0
C1551 C 0.53411 0.30224 0.15777 0.0
C1552 C 0.50721 0.33325 0.14709 0.0
C1553 C 0.53932 0.3228 0.16051 0.0
C1554 C 0.45992 0.26417 0.11425 0.0
C1555 C 0.42517 0.2541 0.12176 0.0
N1556 N 0.41894 0.27371 0.11871 0.0
C1557 C 0.45316 0.28424 0.11123 0.0
C1558 C 0.44581 0.24897 0.11955 0.0
C1559 C 0.43238 0.28874 0.11352 0.0
C1560 C 0.49915 0.29879 0.0823 0.0
N1561 N 0.51162 0.2965 0.09883 0.0
C1562 C 0.53128 0.32577 0.08882 0.0
C1563 C 0.52774 0.30936 0.10203 0.0
C1564 C 0.51835 0.32865 0.07197 0.0
C1565 C 0.50221 0.31492 0.06862 0.0
H1566 H 0.48698 0.28789 0.07958 0.0
H1567 H 0.53808 0.30672 0.11465 0.0
C1568 C 0.45814 0.2457 0.17328 0.0
N1569 N 0.46436 0.26173 0.16153 0.0
C1570 C 0.44171 0.24796 0.18681 0.0
C1571 C 0.43846 0.28317 0.176 0.0
C1572 C 0.45506 0.2803 0.16287 0.0
C1573 C 0.43166 0.26685 0.1881 0.0
H1574 H 0.46589 0.23116 0.17213 0.0
H1575 H 0.4603 0.29285 0.15355 0.0
C1576 C 0.53516 0.25637 0.09294 0.0
N1577 N 0.55124 0.26961 0.05614 0.0
C1578 C 0.52497 0.25213 0.07459 0.0
C1579 C 0.55349 0.26743 0.09256 0.0
C1580 C 0.53336 0.25893 0.05615 0.0
C1581 C 0.56137 0.27398 0.07381 0.0
C1582 C 0.50182 0.21077 0.14589 0.0
C1583 C 0.52028 0.20013 0.14766 0.0
C1584 C 0.48354 0.19992 0.14334 0.0
C1585 C 0.52015 0.17877 0.14667 0.0
C1586 C 0.48406 0.17857 0.14237 0.0
N1587 N 0.5022 0.16853 0.14403 0.0
C1588 C 0.54829 0.24663 0.17748 0.0
C1589 C 0.56716 0.24455 0.14656 0.0
C1590 C 0.56613 0.24372 0.18899 0.0
N1591 N 0.54918 0.24709 0.15668 0.0
C1592 C 0.58536 0.2419 0.15743 0.0
C1593 C 0.58493 0.2415 0.17888 0.0
H1594 H 0.53373 0.2486 0.18511 0.0
H1595 H 0.56736 0.24455 0.13004 0.0
C1596 C 0.47741 0.21007 0.08938 0.0
N1597 N 0.49586 0.21345 0.09846 0.0
C1598 C 0.47454 0.19306 0.07673 0.0
C1599 C 0.50982 0.18356 0.08259 0.0
C1600 C 0.51199 0.20071 0.0952 0.0
C1601 C 0.49089 0.17963 0.07325 0.0
H1602 H 0.46498 0.22065 0.09179 0.0
H1603 H 0.52657 0.20393 0.10237 0.0
O1604 O 0.50969 0.2772 0.14672 0.0
O1605 O 0.48028 0.2595 0.11241 0.0
O1606 O 0.52687 0.25029 0.11119 0.0
O1607 O 0.50172 0.23171 0.14617 0.0
H1608 H 0.48675 0.30934 0.13733 0.0
H1609 H 0.54483 0.29036 0.16198 0.0
H1610 H 0.49691 0.34549 0.14285 0.0
H1611 H 0.55407 0.32688 0.16687 0.0
H1612 H 0.41414 0.2425 0.12601 0.0
H1613 H 0.46383 0.29632 0.1075 0.0
H1614 H 0.45076 0.23345 0.12235 0.0
H1615 H 0.42697 0.30421 0.11131 0.0
H1616 H 0.54406 0.33598 0.09157 0.0
H1617 H 0.49216 0.31666 0.05554 0.0
H1618 H 0.4368 0.23511 0.19605 0.0
H1619 H 0.43101 0.29795 0.17675 0.0
H1620 H 0.51058 0.24394 0.07458 0.0
H1621 H 0.56134 0.27131 0.10662 0.0
H1622 H 0.52561 0.2558 0.04185 0.0
H1623 H 0.57547 0.28266 0.0733 0.0
H1624 H 0.53459 0.20825 0.14953 0.0
H1625 H 0.46913 0.2079 0.14185 0.0
H1626 H 0.53433 0.17034 0.1479 0.0
H1627 H 0.47005 0.16999 0.14022 0.0
H1628 H 0.56535 0.24344 0.20554 0.0
H1629 H 0.59964 0.24013 0.1492 0.0
H1630 H 0.45979 0.19048 0.06959 0.0
H1631 H 0.52274 0.17351 0.08008 0.0
C1632 C 0.23095 0.80586 0.87415 0.0
C1633 C 0.2313 0.78431 0.8769 0.0
C1634 C 0.23989 0.78907 0.91314 0.0
C1635 C 0.23732 0.81051 0.91086 0.0
N1636 N 0.22679 0.83911 0.89004 0.0
N1637 N 0.23221 0.75534 0.89979 0.0
C1638 C 0.23183 0.81887 0.89159 0.0
C1639 C 0.23468 0.77588 0.89663 0.0
N1640 N 0.23052 0.81393 0.85486 0.0
N1641 N 0.24797 0.78133 0.93082 0.0
H1642 H 0.22806 0.74519 0.88818 0.0
H1643 H 0.23237 0.74868 0.91427 0.0
H1644 H 0.25228 0.79052 0.94316 0.0
H1645 H 0.2522 0.76606 0.9325 0.0
H1646 H 0.23241 0.82947 0.85187 0.0
H1647 H 0.23018 0.80492 0.84168 0.0
H1648 H 0.22058 0.84556 0.87686 0.0
H1649 H 0.22706 0.84911 0.90249 0.0
C1650 C 0.03767 0.53821 0.36728 0.0
C1651 C 0.03327 0.52208 0.38114 0.0
C1652 C 0.05386 0.49856 0.36036 0.0
C1653 C 0.05991 0.51516 0.34774 0.0
N1654 N 0.06079 0.55158 0.3416 0.0
N1655 N 0.04022 0.48786 0.39311 0.0
C1656 C 0.05272 0.53524 0.35188 0.0
C1657 C 0.04223 0.50249 0.37831 0.0
N1658 N 0.02696 0.55613 0.36835 0.0
N1659 N 0.05862 0.47895 0.35483 0.0
H1660 H 0.03204 0.49023 0.40661 0.0
H1661 H 0.0482 0.47407 0.39289 0.0
H1662 H 0.06693 0.47542 0.34167 0.0
H1663 H 0.05276 0.46612 0.36225 0.0
H1664 H 0.02798 0.56757 0.3573 0.0
H1665 H 0.01561 0.55883 0.37923 0.0
H1666 H 0.05771 0.56672 0.3455 0.0
H1667 H 0.07208 0.5501 0.33041 0.0
C1668 C 0.76722 0.70537 0.87256 0.0
C1669 C 0.77737 0.72439 0.87539 0.0
C1670 C 0.78257 0.71663 0.91179 0.0
C1671 C 0.77133 0.6982 0.90922 0.0
N1672 N 0.75116 0.67563 0.88808 0.0
N1673 N 0.79285 0.74944 0.89766 0.0
C1674 C 0.76315 0.69273 0.88983 0.0
C1675 C 0.78455 0.73038 0.89502 0.0
N1676 N 0.76189 0.69924 0.85325 0.0
N1677 N 0.79165 0.72078 0.93021 0.0
H1678 H 0.79518 0.75965 0.88561 0.0
H1679 H 0.79625 0.75576 0.91188 0.0
H1680 H 0.78987 0.7115 0.94307 0.0
H1681 H 0.80201 0.73267 0.93253 0.0
H1682 H 0.75655 0.68466 0.8497 0.0
H1683 H 0.76402 0.70839 0.84035 0.0
H1684 H 0.74276 0.67196 0.87504 0.0
H1685 H 0.74855 0.66557 0.90018 0.0
C1686 C 0.9564 0.99168 0.38302 0.0
C1687 C 0.97483 0.98069 0.37975 0.0
C1688 C 0.96523 0.97462 0.34393 0.0
C1689 C 0.94749 0.98678 0.34685 0.0
N1690 N 0.92698 0.00882 0.36812 0.0
N1691 N 0.99827 0.96369 0.35694 0.0
C1692 C 0.94328 0.99586 0.36613 0.0
C1693 C 0.97966 0.97269 0.36014 0.0
N1694 N 0.95122 0.99767 0.4024 0.0
N1695 N 0.96803 0.96458 0.32576 0.0
H1696 H 0.009 0.96154 0.36857 0.0
H1697 H 1.00375 0.95958 0.34256 0.0
H1698 H 0.9581 0.96612 0.31335 0.0
H1699 H 0.97934 0.95366 0.32335 0.0
H1700 H 0.93701 1.00369 0.40629 0.0
H1701 H 0.9607 0.99536 0.41504 0.0
H1702 H 0.92434 0.01778 0.38102 0.0
H1703 H 0.91667 0.0117 0.35628 0.0
C1704 C 0.24377 0.21107 0.63147 0.0
C1705 C 0.22854 0.22649 0.63016 0.0
C1706 C 0.21881 0.21433 0.59596 0.0
C1707 C 0.23511 0.20001 0.59662 0.0
N1708 N 0.26492 0.1864 0.61354 0.0
N1709 N 0.20339 0.24486 0.61042 0.0
C1710 C 0.2481 0.19883 0.61399 0.0
C1711 C 0.21654 0.22869 0.61218 0.0
N1712 N 0.25367 0.20777 0.64961 0.0
N1713 N 0.20519 0.21382 0.58006 0.0
H1714 H 0.20111 0.2555 0.6221 0.0
H1715 H 0.19589 0.24867 0.59689 0.0
H1716 H 0.20654 0.20372 0.56777 0.0
H1717 H 0.1917 0.22228 0.57975 0.0
H1718 H 0.26325 0.19534 0.65227 0.0
H1719 H 0.25109 0.2166 0.66266 0.0
H1720 H 0.27627 0.18653 0.62473 0.0
H1721 H 0.26842 0.17697 0.60113 0.0
C1722 C 0.47339 0.54029 0.64212 0.0
C1723 C 0.47627 0.52447 0.6275 0.0
C1724 C 0.45383 0.50186 0.6474 0.0
C1725 C 0.44941 0.51832 0.66086 0.0
N1726 N 0.452 0.55426 0.66896 0.0
N1727 N 0.46652 0.49142 0.61415 0.0
C1728 C 0.45836 0.53786 0.65764 0.0
C1729 C 0.46573 0.50556 0.62956 0.0
N1730 N 0.48552 0.55735 0.64161 0.0
N1731 N 0.44723 0.48254 0.652 0.0
H1732 H 0.47494 0.49363 0.60078 0.0
H1733 H 0.45743 0.47833 0.6138 0.0
H1734 H 0.43855 0.4792 0.66497 0.0
H1735 H 0.45184 0.46957 0.64398 0.0
H1736 H 0.48564 0.56836 0.65314 0.0
H1737 H 0.49684 0.55963 0.6306 0.0
H1738 H 0.45634 0.56927 0.66582 0.0
H1739 H 0.44091 0.55315 0.68038 0.0
C1740 C 0.78966 0.27626 0.6114 0.0
C1741 C 0.77886 0.27973 0.62992 0.0
C1742 C 0.76035 0.30826 0.61403 0.0
C1743 C 0.77232 0.30582 0.59608 0.0
N1744 N 0.80042 0.28967 0.57849 0.0
N1745 N 0.75622 0.30067 0.65013 0.0
C1746 C 0.78756 0.2904 0.59498 0.0
C1747 C 0.76482 0.2962 0.63159 0.0
N1748 N 0.80146 0.25912 0.60931 0.0
N1749 N 0.74433 0.32171 0.61408 0.0
H1750 H 0.75897 0.29205 0.66328 0.0
H1751 H 0.74767 0.3138 0.65292 0.0
H1752 H 0.74072 0.33095 0.60158 0.0
H1753 H 0.73362 0.32259 0.62583 0.0
H1754 H 0.80789 0.2545 0.59549 0.0
H1755 H 0.80355 0.24854 0.62108 0.0
H1756 H 0.81327 0.2803 0.57778 0.0
H1757 H 0.79921 0.29964 0.56608 0.0
C1758 C 0.54235 1.00126 0.63196 0.0
C1759 C 0.53254 0.98201 0.62952 0.0
C1760 C 0.55166 0.96856 0.6589 0.0
C1761 C 0.55985 0.98836 0.66257 0.0
N1762 N 0.56002 0.02448 0.6549 0.0
N1763 N 0.52491 0.94844 0.64287 0.0
C1764 C 0.55436 0.00499 0.64973 0.0
C1765 C 0.53637 0.96594 0.64362 0.0
N1766 N 0.54079 0.01574 0.61695 0.0
N1767 N 0.55901 0.9521 0.66951 0.0
H1768 H 0.51339 0.94603 0.63207 0.0
H1769 H 0.52551 0.93713 0.65409 0.0
H1770 H 0.57037 0.95334 0.68067 0.0
H1771 H 0.55521 0.93703 0.66596 0.0
H1772 H 0.54937 0.02918 0.61687 0.0
H1773 H 0.53232 0.01352 0.60359 0.0
H1774 H 0.55462 0.03742 0.64733 0.0
H1775 H 0.56861 0.02789 0.66792 0.0
C1776 C 0.87651 0.22972 0.8044 0.0
C1777 C 0.88 0.22861 0.78297 0.0
C1778 C 0.91641 0.236 0.78855 0.0
C1779 C 0.91326 0.23496 0.81001 0.0
N1780 N 0.89104 0.2272 0.83844 0.0
N1781 N 0.90388 0.22686 0.75486 0.0
C1782 C 0.8935 0.23079 0.81797 0.0
C1783 C 0.90014 0.23069 0.77508 0.0
N1784 N 0.85694 0.23054 0.81175 0.0
N1785 N 0.93472 0.24276 0.781 0.0
H1786 H 0.89243 0.22263 0.74455 0.0
H1787 H 0.91856 0.22603 0.74872 0.0
H1788 H 0.94696 0.24701 0.79035 0.0
H1789 H 0.93715 0.24594 0.76557 0.0
H1790 H 0.85349 0.23352 0.82702 0.0
H1791 H 0.84408 0.23013 0.8023 0.0
H1792 H 0.87741 0.22194 0.8448 0.0
H1793 H 0.90314 0.2277 0.84886 0.0
C1794 C 0.48488 0.88342 0.45754 0.0
C1795 C 0.47957 0.88018 0.47835 0.0
C1796 C 0.48246 0.84306 0.47347 0.0
C1797 C 0.48603 0.84625 0.45229 0.0
N1798 N 0.48728 0.86911 0.42337 0.0
N1799 N 0.46981 0.85706 0.5054 0.0
C1800 C 0.48629 0.86635 0.44409 0.0
C1801 C 0.47738 0.86002 0.48613 0.0
N1802 N 0.48925 0.90274 0.4508 0.0
N1803 N 0.48457 0.82391 0.48161 0.0
H1804 H 0.46588 0.8691 0.51513 0.0
H1805 H 0.46576 0.84276 0.51113 0.0
H1806 H 0.48821 0.81109 0.47282 0.0
H1807 H 0.48441 0.82099 0.49727 0.0
H1808 H 0.49538 0.90582 0.43642 0.0
H1809 H 0.4884 0.91562 0.46019 0.0
H1810 H 0.48528 0.88325 0.4163 0.0
H1811 H 0.48837 0.85699 0.41305 0.0
C1812 C 0.12997 0.24771 0.79473 0.0
C1813 C 0.14184 0.26591 0.79567 0.0
C1814 C 0.11951 0.27851 0.82299 0.0
C1815 C 0.10508 0.26301 0.81817 0.0
N1816 N 0.09695 0.2318 0.80003 0.0
N1817 N 0.15545 0.28679 0.82284 0.0
C1818 C 0.11044 0.24722 0.80425 0.0
C1819 C 0.13894 0.27828 0.8133 0.0
N1820 N 0.13875 0.23002 0.78801 0.0
N1821 N 0.1147 0.29363 0.83659 0.0
H1822 H 0.17037 0.28342 0.81822 0.0
H1823 H 0.15447 0.29444 0.83681 0.0
H1824 H 0.10069 0.29426 0.84422 0.0
H1825 H 0.12411 0.3063 0.83901 0.0
H1826 H 0.13149 0.21582 0.78872 0.0
H1827 H 0.15434 0.22926 0.7846 0.0
H1828 H 0.09943 0.22116 0.78839 0.0
H1829 H 0.08276 0.23047 0.80721 0.0
C1830 C 0.50917 0.62661 0.46346 0.0
C1831 C 0.52752 0.62518 0.47502 0.0
C1832 C 0.54028 0.65659 0.45889 0.0
C1833 C 0.52111 0.65913 0.44898 0.0
N1834 N 0.48603 0.64846 0.44443 0.0
N1835 N 0.55911 0.64056 0.4865 0.0
C1836 C 0.50518 0.64465 0.45196 0.0
C1837 C 0.54271 0.64066 0.47349 0.0
N1838 N 0.49585 0.61046 0.46295 0.0
N1839 N 0.55637 0.66901 0.45387 0.0
H1840 H 0.56138 0.62924 0.49751 0.0
H1841 H 0.56949 0.65262 0.48762 0.0
H1842 H 0.55524 0.68077 0.44314 0.0
H1843 H 0.57127 0.6665 0.45893 0.0
H1844 H 0.48333 0.60973 0.4531 0.0
H1845 H 0.4983 0.59694 0.47106 0.0
H1846 H 0.47328 0.63958 0.44801 0.0
H1847 H 0.48247 0.66154 0.43602 0.0
C1848 C 0.87541 0.77517 0.70165 0.0
C1849 C 0.87851 0.7752 0.72316 0.0
C1850 C 0.91471 0.76676 0.71801 0.0
C1851 C 0.91208 0.76906 0.69657 0.0
N1852 N 0.89072 0.77898 0.66811 0.0
N1853 N 0.90185 0.77474 0.75182 0.0
C1854 C 0.89263 0.77424 0.6884 0.0
C1855 C 0.89838 0.77201 0.73136 0.0
N1856 N 0.85598 0.77534 0.69387 0.0
N1857 N 0.93256 0.75892 0.72558 0.0
H1858 H 0.89038 0.77891 0.76209 0.0
H1859 H 0.91643 0.77475 0.75828 0.0
H1860 H 0.94478 0.7546 0.71627 0.0
H1861 H 0.93453 0.75491 0.74088 0.0
H1862 H 0.85274 0.77317 0.6784 0.0
H1863 H 0.84296 0.77573 0.70307 0.0
H1864 H 0.87739 0.78498 0.66177 0.0
H1865 H 0.903 0.77868 0.65792 0.0
C1866 C 0.02096 0.8824 0.55043 0.0
C1867 C 0.02864 0.87927 0.53036 0.0
C1868 C 0.02833 0.84213 0.53579 0.0
C1869 C 0.0223 0.84536 0.55639 0.0
N1870 N 0.01596 0.86847 0.58446 0.0
N1871 N 0.04285 0.85666 0.5049 0.0
C1872 C 0.01947 0.86549 0.56405 0.0
C1873 C 0.03323 0.85926 0.52329 0.0
N1874 N 0.01446 0.90141 0.55625 0.0
N1875 N 0.02875 0.82272 0.52797 0.0
H1876 H 0.04663 0.86883 0.49529 0.0
H1877 H 0.04863 0.84268 0.49991 0.0
H1878 H 0.02535 0.80978 0.53667 0.0
H1879 H 0.0308 0.81952 0.5125 0.0
H1880 H 0.00663 0.90424 0.56983 0.0
H1881 H 0.0154 0.91419 0.54673 0.0
H1882 H 0.01602 0.88283 0.59139 0.0
H1883 H 0.01465 0.85646 0.59488 0.0
C1884 C 0.1338 0.73952 0.70465 0.0
C1885 C 0.13079 0.73108 0.72443 0.0
C1886 C 0.09405 0.7271 0.71751 0.0
C1887 C 0.09686 0.73675 0.69826 0.0
N1888 N 0.11859 0.75399 0.67397 0.0
N1889 N 0.10823 0.71859 0.7508 0.0
C1890 C 0.11654 0.74345 0.69194 0.0
C1891 C 0.11094 0.72534 0.73117 0.0
N1892 N 0.15324 0.74342 0.69792 0.0
N1893 N 0.07528 0.71926 0.7225 0.0
H1894 H 0.12033 0.71633 0.76097 0.0
H1895 H 0.09397 0.71639 0.75752 0.0
H1896 H 0.06242 0.72085 0.71316 0.0
H1897 H 0.07261 0.71003 0.73519 0.0
H1898 H 0.1568 0.74737 0.68292 0.0
H1899 H 0.16618 0.74148 0.70708 0.0
H1900 H 0.13197 0.76137 0.66949 0.0
H1901 H 0.10643 0.75649 0.66391 0.0
C1902 C 1.00056 0.62586 0.54451 0.0
C1903 C 0.98214 0.6243 0.53307 0.0
C1904 C 0.9693 0.65554 0.54944 0.0
C1905 C 0.98852 0.65823 0.55923 0.0
N1906 N 0.02371 0.64789 0.5634 0.0
N1907 N 0.95042 0.63948 0.52182 0.0
C1908 C 0.00452 0.64391 0.55604 0.0
C1909 C 0.96688 0.63965 0.53476 0.0
N1910 N 0.01397 0.60982 0.54489 0.0
N1911 N 0.95315 0.66775 0.55466 0.0
H1912 H 0.94817 0.62821 0.51073 0.0
H1913 H 0.93997 0.65147 0.52083 0.0
H1914 H 0.95425 0.67945 0.56548 0.0
H1915 H 0.93823 0.66512 0.54967 0.0
H1916 H 0.02655 0.60919 0.55467 0.0
H1917 H 0.01153 0.59629 0.53677 0.0
H1918 H 0.03649 0.63914 0.55967 0.0
H1919 H 0.02728 0.66101 0.5718 0.0
C1920 C 0.79535 0.87759 0.24492 0.0
C1921 C 0.77925 0.87905 0.2304 0.0
C1922 C 0.79027 0.9138 0.22138 0.0
C1923 C 0.80534 0.91292 0.237 0.0
N1924 N 0.82055 0.89538 0.26566 0.0
N1925 N 0.75934 0.89921 0.2068 0.0
C1926 C 0.80742 0.89518 0.24935 0.0
C1927 C 0.77614 0.89735 0.21916 0.0
N1928 N 0.79945 0.85922 0.25404 0.0
N1929 N 0.78984 0.93013 0.2083 0.0
H1930 H 0.74882 0.88739 0.20458 0.0
H1931 H 0.75492 0.91289 0.19996 0.0
H1932 H 0.79975 0.94259 0.20966 0.0
H1933 H 0.78078 0.93068 0.19521 0.0
H1934 H 0.81235 0.85654 0.263 0.0
H1935 H 0.79078 0.84606 0.25136 0.0
H1936 H 0.82112 0.88384 0.27662 0.0
H1937 H 0.82984 0.90789 0.26921 0.0
C1938 C 0.81123 0.13717 0.27858 0.0
C1939 C 0.79272 0.13887 0.2673 0.0
C1940 C 0.80097 0.10689 0.24962 0.0
C1941 C 0.81633 0.10284 0.26442 0.0
N1942 N 0.83714 0.11477 0.2926 0.0
N1943 N 0.78309 0.13388 0.23207 0.0
C1944 C 0.82183 0.11819 0.27879 0.0
C1945 C 0.79103 0.12616 0.24975 0.0
N1946 N 0.82053 0.1544 0.28585 0.0
N1947 N 0.79557 0.09232 0.23562 0.0
H1948 H 0.77927 0.14934 0.23074 0.0
H1949 H 0.7832 0.12589 0.21825 0.0
H1950 H 0.80249 0.07796 0.23495 0.0
H1951 H 0.7831 0.09407 0.22581 0.0
H1952 H 0.835 0.15439 0.29259 0.0
H1953 H 0.81504 0.16896 0.28225 0.0
H1954 H 0.84018 0.12472 0.30472 0.0
H1955 H 0.84589 0.10143 0.29272 0.0
C1956 C 0.36704 0.97099 0.96626 0.0
C1957 C 0.38085 0.97513 0.98254 0.0
C1958 C 0.3598 0.95438 0.00567 0.0
C1959 C 0.34723 0.94855 0.98891 0.0
N1960 N 0.34126 0.94817 0.95246 0.0
N1961 N 0.39262 0.96766 0.01675 0.0
C1962 C 0.35152 0.95598 0.96895 0.0
C1963 C 0.37787 0.96594 1.00199 0.0
N1964 N 0.36828 0.98192 0.94848 0.0
N1965 N 0.3541 0.94951 0.0252 0.0
H1966 H 0.4062 0.97577 0.01456 0.0
H1967 H 0.39226 0.95949 0.03042 0.0
H1968 H 0.34083 0.94129 0.02857 0.0
H1969 H 0.36149 0.95522 0.03813 0.0
H1970 H 0.35729 0.98109 0.93695 0.0
H1971 H 0.37925 0.99326 0.946 0.0
H1972 H 0.34523 0.95143 0.93737 0.0
H1973 H 0.32999 0.93692 0.95374 0.0
C1974 C 0.19974 0.37115 0.27785 0.0
C1975 C 0.21802 0.3686 0.2664 0.0
C1976 C 0.2104 0.40046 0.24815 0.0
C1977 C 0.19553 0.40534 0.26317 0.0
N1978 N 0.17537 0.39488 0.29233 0.0
N1979 N 0.22743 0.3726 0.23102 0.0
C1980 C 0.18991 0.39051 0.27799 0.0
C1981 C 0.2199 0.38093 0.24861 0.0
N1982 N 0.18988 0.35442 0.28548 0.0
N1983 N 0.21557 0.4144 0.23348 0.0
H1984 H 0.23072 0.357 0.22995 0.0
H1985 H 0.22746 0.38026 0.21704 0.0
H1986 H 0.20857 0.42869 0.23226 0.0
H1987 H 0.22781 0.4122 0.22349 0.0
H1988 H 0.17551 0.35514 0.29237 0.0
H1989 H 0.19478 0.3396 0.28207 0.0
H1990 H 0.17227 0.3852 0.30463 0.0
H1991 H 0.16755 0.40879 0.29278 0.0
C1992 C 0.14675 0.02996 0.46814 0.0
C1993 C 0.12845 0.03267 0.47951 0.0
C1994 C 0.14425 0.06093 0.49861 0.0
C1995 C 0.16196 0.05922 0.48616 0.0
N1996 N 0.17917 0.04436 0.45713 0.0
N1997 N 0.10841 0.05239 0.50336 0.0
C1998 C 0.16297 0.04434 0.47036 0.0
C1999 C 0.12682 0.04863 0.49415 0.0
N2000 N 0.14883 0.01328 0.45566 0.0
N2001 N 0.14434 0.07389 0.51505 0.0
H2002 H 0.09537 0.04356 0.50065 0.0
H2003 H 0.10558 0.06517 0.51244 0.0
H2004 H 0.15673 0.08331 0.51865 0.0
H2005 H 0.13283 0.07419 0.52606 0.0
H2006 H 0.16257 0.00916 0.44873 0.0
H2007 H 0.13719 1.00256 0.45344 0.0
H2008 H 0.17975 0.03544 0.44394 0.0
H2009 H 0.19144 0.05452 0.45842 0.0
C2010 C 0.69868 0.13716 0.7315 0.0
C2011 C 0.7173 0.13894 0.7426 0.0
C2012 C 0.7094 0.10668 0.75996 0.0
C2013 C 0.69399 0.10263 0.74521 0.0
N2014 N 0.67307 0.11455 0.71716 0.0
N2015 N 0.7274 0.13362 0.77763 0.0
C2016 C 0.68829 0.11806 0.73106 0.0
C2017 C 0.7193 0.12602 0.75994 0.0
N2018 N 0.68914 0.15436 0.72456 0.0
N2019 N 0.71477 0.09208 0.77391 0.0
H2020 H 0.73105 0.14911 0.77913 0.0
H2021 H 0.72755 0.12548 0.79134 0.0
H2022 H 0.70767 0.07779 0.77464 0.0
H2023 H 0.7273 0.09375 0.78366 0.0
H2024 H 0.6746 0.15424 0.71799 0.0
H2025 H 0.69459 0.16895 0.72823 0.0
H2026 H 0.66985 0.12465 0.70524 0.0
H2027 H 0.6647 0.10094 0.71668 0.0
C2028 C 0.3801 0.04807 0.51514 0.0
C2029 C 0.37842 0.03238 0.53005 0.0
C2030 C 0.34411 0.04452 0.5393 0.0
C2031 C 0.34516 0.05913 0.52326 0.0
N2032 N 0.3627 0.07313 0.494 0.0
N2033 N 0.35801 0.01358 0.55436 0.0
C2034 C 0.36277 0.06045 0.51064 0.0
C2035 C 0.36018 0.03003 0.54161 0.0
N2036 N 0.39847 0.05153 0.50572 0.0
N2037 N 0.32802 0.04491 0.55266 0.0
H2038 H 0.36953 1.00278 0.55661 0.0
H2039 H 0.34429 0.00971 0.56148 0.0
H2040 H 0.31585 0.05513 0.55129 0.0
H2041 H 0.32744 0.03622 0.56599 0.0
H2042 H 0.40136 0.06413 0.49642 0.0
H2043 H 0.41145 0.04266 0.50848 0.0
H2044 H 0.3741 0.07313 0.48288 0.0
H2045 H 0.35039 0.08263 0.49038 0.0
C2046 C 0.64794 0.47691 0.53938 0.0
C2047 C 0.62971 0.47406 0.5279 0.0
C2048 C 0.64554 0.44554 0.50931 0.0
C2049 C 0.66313 0.44734 0.52195 0.0
N2050 N 0.68021 0.4626 0.55091 0.0
N2051 N 0.60979 0.45405 0.50409 0.0
C2052 C 0.6641 0.46246 0.53752 0.0
C2053 C 0.62813 0.45792 0.51343 0.0
N2054 N 0.65001 0.49377 0.55163 0.0
N2055 N 0.64572 0.43238 0.49302 0.0
H2056 H 0.59675 0.46291 0.50656 0.0
H2057 H 0.60698 0.44115 0.49516 0.0
H2058 H 0.65809 0.42288 0.48968 0.0
H2059 H 0.63432 0.43198 0.48189 0.0
H2060 H 0.66371 0.49796 0.55864 0.0
H2061 H 0.63843 0.50457 0.55353 0.0
H2062 H 0.68074 0.47172 0.56397 0.0
H2063 H 0.69244 0.45241 0.54987 0.0
C2064 C 0.71643 0.27732 0.39626 0.0
C2065 C 0.72818 0.27993 0.37818 0.0
C2066 C 0.74736 0.30791 0.39439 0.0
C2067 C 0.73462 0.30627 0.41189 0.0
N2068 N 0.70509 0.29174 0.42856 0.0
N2069 N 0.75256 0.29951 0.3586 0.0
C2070 C 0.71859 0.29162 0.41257 0.0
C2071 C 0.74302 0.29575 0.37684 0.0
N2072 N 0.70369 0.26081 0.39807 0.0
N2073 N 0.76397 0.32067 0.39478 0.0
H2074 H 0.7499 0.2908 0.34547 0.0
H2075 H 0.76183 0.3122 0.35597 0.0
H2076 H 0.76747 0.33002 0.40726 0.0
H2077 H 0.77516 0.32089 0.38346 0.0
H2078 H 0.69645 0.25674 0.41166 0.0
H2079 H 0.70153 0.25016 0.38636 0.0
H2080 H 0.69176 0.283 0.42888 0.0
H2081 H 0.70634 0.30182 0.44089 0.0
C2082 C 0.54375 0.00686 0.87887 0.0
C2083 C 0.53334 0.02576 0.88141 0.0
C2084 C 0.55064 0.03945 0.85105 0.0
C2085 C 0.55946 0.01995 0.84739 0.0
N2086 N 0.56145 0.98402 0.85564 0.0
N2087 N 0.52384 0.05874 0.86784 0.0
C2088 C 0.55517 1.00333 0.8607 0.0
C2089 C 0.53593 0.04171 0.8669 0.0
N2090 N 0.5433 0.99257 0.89413 0.0
N2091 N 0.55686 0.056 0.83985 0.0
H2092 H 0.51273 0.06089 0.8791 0.0
H2093 H 0.5235 0.06985 0.85643 0.0
H2094 H 0.56774 0.05503 0.82823 0.0
H2095 H 0.55262 0.07097 0.84331 0.0
H2096 H 0.55236 0.97947 0.89409 0.0
H2097 H 0.53526 0.99467 0.90775 0.0
H2098 H 0.55692 0.97099 0.86362 0.0
H2099 H 0.56968 0.98078 0.84236 0.0
C2100 C 0.28844 0.23034 0.39818 0.0
C2101 C 0.27739 0.22717 0.37973 0.0
C2102 C 0.25883 0.19855 0.39545 0.0
C2103 C 0.27109 0.20065 0.41327 0.0
N2104 N 0.29955 0.21641 0.43075 0.0
N2105 N 0.25426 0.20666 0.35951 0.0
C2106 C 0.28645 0.21598 0.41441 0.0
C2107 C 0.26316 0.21083 0.37801 0.0
N2108 N 0.30039 0.2474 0.40036 0.0
N2109 N 0.24268 0.18521 0.39542 0.0
H2110 H 0.25689 0.21545 0.34645 0.0
H2111 H 0.24555 0.19362 0.35666 0.0
H2112 H 0.23917 0.17581 0.40784 0.0
H2113 H 0.23179 0.18457 0.3838 0.0
H2114 H 0.30704 0.25179 0.41417 0.0
H2115 H 0.30237 0.25815 0.38874 0.0
H2116 H 0.31248 0.22571 0.43143 0.0
H2117 H 0.29845 0.20627 0.44302 0.0
C2118 C 0.4537 0.48901 0.88352 0.0
C2119 C 0.4736 0.4809 0.88038 0.0
C2120 C 0.46672 0.4774 0.84359 0.0
C2121 C 0.44736 0.48676 0.84654 0.0
N2122 N 0.42284 0.50332 0.86852 0.0
N2123 N 0.50015 0.4692 0.85762 0.0
C2124 C 0.44094 0.49306 0.86631 0.0
C2125 C 0.48041 0.47558 0.86044 0.0
N2126 N 0.44691 0.49245 0.90302 0.0
N2127 N 0.47181 0.46988 0.82472 0.0
H2128 H 0.51038 0.46695 0.86966 0.0
H2129 H 0.50689 0.46735 0.84332 0.0
H2130 H 0.46246 0.47152 0.81188 0.0
H2131 H 0.4846 0.46083 0.82195 0.0
H2132 H 0.43186 0.49615 0.90662 0.0
H2133 H 0.45608 0.49034 0.91592 0.0
H2134 H 0.41826 0.51041 0.88202 0.0
H2135 H 0.41276 0.50588 0.8564 0.0
C2136 C 0.72024 0.72843 0.11202 0.0
C2137 C 0.73087 0.72474 0.1306 0.0
C2138 C 0.74894 0.69586 0.11482 0.0
C2139 C 0.73721 0.69863 0.09674 0.0
N2140 N 0.70979 0.71551 0.07877 0.0
N2141 N 0.75322 0.70359 0.15091 0.0
C2142 C 0.72232 0.71436 0.09551 0.0
C2143 C 0.74466 0.70807 0.13234 0.0
N2144 N 0.70861 0.74569 0.10998 0.0
N2145 N 0.76453 0.68191 0.11501 0.0
H2146 H 0.75071 0.71241 0.16399 0.0
H2147 H 0.76157 0.69036 0.1538 0.0
H2148 H 0.76785 0.67244 0.1026 0.0
H2149 H 0.77513 0.6807 0.12685 0.0
H2150 H 0.70233 0.7505 0.09616 0.0
H2151 H 0.70644 0.75615 0.12185 0.0
H2152 H 0.69712 0.72511 0.07789 0.0
H2153 H 0.7111 0.70571 0.06623 0.0
C2154 C 0.97165 0.04066 0.14119 0.0
C2155 C 0.97588 0.02428 0.12756 0.0
C2156 C 0.95553 1.0011 0.14897 0.0
C2157 C 0.94968 0.01792 0.16141 0.0
N2158 N 0.94897 0.05442 0.16705 0.0
N2159 N 0.96884 0.98981 0.11626 0.0
C2160 C 0.95683 0.03793 0.15686 0.0
C2161 C 0.96696 0.00473 0.13082 0.0
N2162 N 0.98232 0.0586 0.13964 0.0
N2163 N 0.9508 0.98159 0.15486 0.0
H2164 H 0.97691 0.99195 0.10266 0.0
H2165 H 0.96087 0.97601 0.11679 0.0
H2166 H 0.94262 0.97828 0.16816 0.0
H2167 H 0.95654 0.96863 0.14758 0.0
H2168 H 0.98147 0.07025 0.15049 0.0
H2169 H 0.99348 0.06115 0.12852 0.0
H2170 H 0.95199 0.0695 0.16289 0.0
H2171 H 0.93789 0.0531 0.17846 0.0
C2172 C 0.26607 0.79547 0.13236 0.0
C2173 C 0.27993 0.77889 0.13023 0.0
C2174 C 0.28811 0.78994 0.09528 0.0
C2175 C 0.27302 0.80546 0.09685 0.0
N2176 N 0.24558 0.82146 0.11557 0.0
N2177 N 0.30211 0.75843 0.10904 0.0
C2178 C 0.26143 0.80782 0.11505 0.0
C2179 C 0.29042 0.7756 0.1115 0.0
N2180 N 0.25781 0.79974 0.15111 0.0
N2181 N 0.30059 0.78925 0.07851 0.0
H2182 H 0.30436 0.74773 0.12066 0.0
H2183 H 0.3083 0.75393 0.09507 0.0
H2184 H 0.29916 0.79932 0.06621 0.0
H2185 H 0.31335 0.77979 0.07741 0.0
H2186 H 0.24941 0.8129 0.15423 0.0
H2187 H 0.26067 0.7909 0.16408 0.0
H2188 H 0.23508 0.8223 0.12751 0.0
H2189 H 0.24192 0.83098 0.1033 0.0
C2190 C 0.02914 0.47242 0.14726 0.0
C2191 C 0.03386 0.48149 0.1281 0.0
C2192 C 0.06443 0.4976 0.14295 0.0
C2193 C 0.06047 0.48737 0.16169 0.0
N2194 N 0.04079 0.4631 0.18128 0.0
N2195 N 0.05705 0.50051 0.10665 0.0
C2196 C 0.04329 0.47422 0.16373 0.0
C2197 C 0.05181 0.4935 0.12565 0.0
N2198 N 0.01084 0.46256 0.14982 0.0
N2199 N 0.07999 0.51158 0.14187 0.0
H2200 H 0.04796 0.49816 0.09372 0.0
H2201 H 0.07103 0.50739 0.10332 0.0
H2202 H 0.08989 0.51455 0.15406 0.0
H2203 H 0.0823 0.52127 0.12945 0.0
H2204 H 0.00539 0.4576 0.16393 0.0
H2205 H 1.00027 0.46061 0.138 0.0
H2206 H 0.02996 0.45152 0.18292 0.0
H2207 H 0.05054 0.46441 0.19387 0.0
C2208 C 0.40025 0.7213 0.27756 0.0
C2209 C 0.38036 0.72799 0.28315 0.0
C2210 C 0.39355 0.74027 0.31613 0.0
C2211 C 0.41368 0.73521 0.30978 0.0
N2212 N 0.43684 0.72347 0.2836 0.0
N2213 N 0.35827 0.74634 0.30629 0.0
C2214 C 0.41722 0.72641 0.29024 0.0
C2215 C 0.37705 0.73814 0.30207 0.0
N2216 N 0.40281 0.70955 0.26043 0.0
N2217 N 0.39018 0.74664 0.33579 0.0
H2218 H 0.34577 0.74495 0.29645 0.0
H2219 H 0.35544 0.75587 0.31875 0.0
H2220 H 0.40193 0.74864 0.34642 0.0
H2221 H 0.37565 0.74839 0.34208 0.0
H2222 H 0.41649 0.70231 0.2567 0.0
H2223 H 0.39076 0.70563 0.25069 0.0
H2224 H 0.44053 0.71931 0.26867 0.0
H2225 H 0.44965 0.72669 0.2926 0.0
C2226 C 1.00183 0.37666 0.96756 0.0
C2227 C 0.9822 0.37993 0.97628 0.0
C2228 C 0.96858 0.35096 0.9566 0.0
C2229 C 0.98863 0.34641 0.94961 0.0
N2230 N 0.025 0.35264 0.95144 0.0
N2231 N 0.94777 0.36788 0.98217 0.0
C2232 C 0.00547 0.35863 0.95593 0.0
C2233 C 0.96579 0.36642 0.97166 0.0
N2234 N 0.01681 0.39113 0.96976 0.0
N2235 N 0.9521 0.341 0.94836 0.0
H2236 H 0.94522 0.37879 0.99353 0.0
H2237 H 0.93607 0.35709 0.98098 0.0
H2238 H 0.95346 0.32976 0.93711 0.0
H2239 H 0.93701 0.34521 0.95128 0.0
H2240 H 0.03068 0.39059 0.96195 0.0
H2241 H 0.01467 0.40469 0.97792 0.0
H2242 H 0.03793 0.35975 0.95752 0.0
H2243 H 0.02832 0.33941 0.94315 0.0
C2244 C 0.61038 0.77017 0.27609 0.0
C2245 C 0.63015 0.7748 0.28387 0.0
C2246 C 0.61631 0.77553 0.31876 0.0
C2247 C 0.59703 0.76899 0.31113 0.0
N2248 N 0.57686 0.7559 0.28306 0.0
N2249 N 0.65285 0.77771 0.3129 0.0
C2250 C 0.59439 0.76508 0.28992 0.0
C2251 C 0.63339 0.77627 0.30531 0.0
N2252 N 0.60663 0.77141 0.25554 0.0
N2253 N 0.61817 0.78176 0.33865 0.0
H2254 H 0.66579 0.77793 0.30357 0.0
H2255 H 0.65626 0.77669 0.32844 0.0
H2256 H 0.60598 0.78168 0.34895 0.0
H2257 H 0.6313 0.78873 0.34444 0.0
H2258 H 0.59201 0.77031 0.24926 0.0
H2259 H 0.61781 0.77545 0.24491 0.0
H2260 H 0.57499 0.75076 0.26808 0.0
H2261 H 0.56493 0.75163 0.29276 0.0
C2262 C 0.01805 0.144 0.98349 0.0
C2263 C 0.02534 0.12525 0.97526 0.0
C2264 C 0.0281 0.14125 0.94142 0.0
C2265 C 0.01871 0.15923 0.94921 0.0
N2266 N 1.00074 0.17601 0.97676 0.0
N2267 N 0.03322 0.1048 0.94551 0.0
C2268 C 0.01251 0.16011 0.97 0.0
C2269 C 0.02919 0.12351 0.95394 0.0
N2270 N 0.0172 0.14675 0.00421 0.0
N2271 N 0.03671 0.14132 0.92236 0.0
H2272 H 0.03371 0.09135 0.95409 0.0
H2273 H 0.03407 0.10233 0.92978 0.0
H2274 H 0.03668 0.15414 0.91286 0.0
H2275 H 0.0456 0.12933 0.91679 0.0
H2276 H 0.01403 0.16083 0.01099 0.0
H2277 H 0.02163 0.13554 0.01466 0.0
H2278 H 0.99406 0.17635 0.99123 0.0
H2279 H 0.99594 0.1879 0.96725 0.0
C2280 C 0.37688 0.2684 0.20816 0.0
C2281 C 0.38016 0.27612 0.22823 0.0
C2282 C 0.41715 0.27821 0.22182 0.0
C2283 C 0.41396 0.26964 0.2021 0.0
N2284 N 0.39157 0.25457 0.17692 0.0
N2285 N 0.40311 0.28642 0.25525 0.0
C2286 C 0.39402 0.26415 0.19539 0.0
C2287 C 0.40024 0.28046 0.23537 0.0
N2288 N 0.35732 0.26554 0.20123 0.0
N2289 N 0.43632 0.2846 0.22738 0.0
H2290 H 0.39106 0.28911 0.26535 0.0
H2291 H 0.41739 0.28756 0.26222 0.0
H2292 H 0.44921 0.28238 0.21824 0.0
H2293 H 0.43941 0.29315 0.24046 0.0
H2294 H 0.35362 0.26223 0.1861 0.0
H2295 H 0.34444 0.26762 0.21042 0.0
H2296 H 0.37788 0.24808 0.17198 0.0
H2297 H 0.40364 0.25195 0.16682 0.0
C2298 C 0.53628 0.35925 0.02568 0.0
C2299 C 0.52852 0.37892 0.03059 0.0
C2300 C 0.51297 0.36531 0.06194 0.0
C2301 C 0.52186 0.34597 0.0577 0.0
N2302 N 0.54401 0.32479 0.03721 0.0
N2303 N 0.51178 0.40164 0.05432 0.0
C2304 C 0.5341 0.343 0.04001 0.0
C2305 C 0.51749 0.38222 0.049 0.0
N2306 N 0.54529 0.35602 0.00707 0.0
N2307 N 0.49981 0.36734 0.07809 0.0
H2308 H 0.5144 0.41433 0.045 0.0
H2309 H 0.50575 0.4055 0.06854 0.0
H2310 H 0.49657 0.35543 0.08822 0.0
H2311 H 0.49099 0.38033 0.08072 0.0
H2312 H 0.54922 0.34161 1.00153 0.0
H2313 H 0.5476 0.36766 0.9964 0.0
H2314 H 0.55497 0.32234 0.02593 0.0
H2315 H 0.54234 0.3124 0.04712 0.0
C2316 C 0.6347 0.21863 0.1985 0.0
C2317 C 0.6409 0.23355 0.21301 0.0
C2318 C 0.61354 0.25601 0.20042 0.0
C2319 C 0.60434 0.23894 0.19052 0.0
N2320 N 0.60635 0.20336 0.18045 0.0
N2321 N 0.6452 0.2701 0.21349 0.0
C2322 C 0.615 0.22007 0.18958 0.0
C2323 C 0.6329 0.25355 0.21013 0.0
N2324 N 0.64874 0.20559 0.19031 0.0
N2325 N 0.60391 0.27455 0.20058 0.0
H2326 H 0.66067 0.2684 0.21714 0.0
H2327 H 0.64103 0.28505 0.20988 0.0
H2328 H 0.59037 0.27737 0.19262 0.0
H2329 H 0.60884 0.28676 0.20961 0.0
H2330 H 0.64532 0.19557 0.17835 0.0
H2331 H 0.66436 0.20728 0.19331 0.0
H2332 H 0.61311 0.18891 0.18104 0.0
H2333 H 0.59178 0.20358 0.17391 0.0
C2334 C 0.48147 0.14763 0.02536 0.0
C2335 C 0.4825 0.12752 0.03349 0.0
C2336 C 0.48743 0.14163 0.06798 0.0
C2337 C 0.48823 0.16163 0.05955 0.0
N2338 N 0.4898 0.1835 0.02988 0.0
N2339 N 0.49001 0.10512 0.06184 0.0
C2340 C 0.48632 0.16459 0.03812 0.0
C2341 C 0.48649 0.12444 0.05463 0.0
N2342 N 0.47514 0.15059 0.00563 0.0
N2343 N 0.48687 0.13908 0.08874 0.0
H2344 H 0.48953 0.09216 0.05252 0.0
H2345 H 0.49515 0.10211 0.07662 0.0
H2346 H 0.4875 0.15129 0.09902 0.0
H2347 H 0.48404 0.12507 0.09576 0.0
H2348 H 0.47193 0.16496 0.99955 0.0
H2349 H 0.47133 0.13858 0.99582 0.0
H2350 H 0.49082 0.18615 0.0142 0.0
H2351 H 0.4935 0.19629 0.03871 0.0
C2352 C 0.30353 0.37508 0.73052 0.0
C2353 C 0.28201 0.37785 0.73162 0.0
C2354 C 0.28715 0.41386 0.74095 0.0
C2355 C 0.30852 0.41161 0.7377 0.0
N2356 N 0.3367 0.391 0.72573 0.0
N2357 N 0.25316 0.40075 0.73404 0.0
C2358 C 0.31663 0.39246 0.73146 0.0
C2359 C 0.27375 0.3975 0.73577 0.0
N2360 N 0.31152 0.35579 0.7293 0.0
N2361 N 0.27971 0.43137 0.74964 0.0
H2362 H 0.24284 0.38925 0.72997 0.0
H2363 H 0.24654 0.41523 0.73475 0.0
H2364 H 0.28906 0.4436 0.75392 0.0
H2365 H 0.26458 0.43299 0.75437 0.0
H2366 H 0.3271 0.35271 0.73064 0.0
H2367 H 0.30245 0.34265 0.72886 0.0
H2368 H 0.3429 0.37797 0.71897 0.0
H2369 H 0.34674 0.40343 0.72598 0.0
C2370 C 0.30656 0.63646 0.77518 0.0
C2371 C 0.28504 0.63337 0.77516 0.0
C2372 C 0.29017 0.59711 0.76698 0.0
C2373 C 0.31161 0.59974 0.76934 0.0
N2374 N 0.34009 0.62116 0.77918 0.0
N2375 N 0.25637 0.61002 0.77485 0.0
C2376 C 0.3198 0.61922 0.77441 0.0
C2377 C 0.27683 0.61348 0.7721 0.0
N2378 N 0.31437 0.65588 0.77524 0.0
N2379 N 0.28258 0.57922 0.7592 0.0
H2380 H 0.24611 0.62151 0.77897 0.0
H2381 H 0.24991 0.59544 0.77495 0.0
H2382 H 0.29187 0.56697 0.75494 0.0
H2383 H 0.26728 0.57724 0.75514 0.0
H2384 H 0.32984 0.65909 0.77311 0.0
H2385 H 0.30518 0.66891 0.77548 0.0
H2386 H 0.34645 0.63454 0.78511 0.0
H2387 H 0.35026 0.60887 0.77898 0.0
C2388 C 0.86194 0.47468 0.46764 0.0
C2389 C 0.8794 0.47309 0.48048 0.0
C2390 C 0.86263 0.44592 0.50025 0.0
C2391 C 0.84588 0.44642 0.48642 0.0
N2392 N 0.83052 0.45904 0.45536 0.0
N2393 N 0.8979 0.45542 0.50706 0.0
C2394 C 0.8458 0.46018 0.46964 0.0
C2395 C 0.88016 0.45823 0.49629 0.0
N2396 N 0.86052 0.49045 0.45396 0.0
N2397 N 0.86155 0.43403 0.51743 0.0
H2398 H 0.91101 0.46422 0.50468 0.0
H2399 H 0.90021 0.44337 0.5172 0.0
H2400 H 0.84914 0.42449 0.52062 0.0
H2401 H 0.87217 0.43473 0.5293 0.0
H2402 H 0.84729 0.4938 0.44574 0.0
H2403 H 0.87209 0.50129 0.45198 0.0
H2404 H 0.83076 0.46701 0.44158 0.0
H2405 H 0.81824 0.44889 0.45654 0.0
C2406 C 0.71174 0.87726 0.76259 0.0
C2407 C 0.7286 0.87877 0.77623 0.0
C2408 C 0.71864 0.91385 0.78518 0.0
C2409 C 0.70269 0.91285 0.77045 0.0
N2410 N 0.6856 0.89496 0.74304 0.0
N2411 N 0.75004 0.89909 0.79839 0.0
C2412 C 0.69966 0.89491 0.75856 0.0
C2413 C 0.73259 0.89725 0.78695 0.0
N2414 N 0.70696 0.85879 0.75395 0.0
N2415 N 0.72007 0.93047 0.79784 0.0
H2416 H 0.76044 0.88714 0.80031 0.0
H2417 H 0.75505 0.91283 0.80472 0.0
H2418 H 0.71035 0.94307 0.79675 0.0
H2419 H 0.72985 0.93118 0.8104 0.0
H2420 H 0.69359 0.85609 0.74571 0.0
H2421 H 0.71565 0.84562 0.7563 0.0
H2422 H 0.68421 0.88324 0.73234 0.0
H2423 H 0.67626 0.9075 0.73985 0.0
C2424 C 0.63469 0.53634 0.99928 0.0
C2425 C 0.62788 0.53205 0.97908 0.0
C2426 C 0.65319 0.55629 0.9656 0.0
C2427 C 0.66159 0.55861 0.98552 0.0
N2428 N 0.6629 0.54729 0.02068 0.0
N2429 N 0.63358 0.53476 0.94267 0.0
C2430 C 0.65307 0.54762 1.00221 0.0
C2431 C 0.63796 0.54113 0.96211 0.0
N2432 N 0.62324 0.53031 0.01571 0.0
N2433 N 0.65917 0.56905 0.95015 0.0
H2434 H 0.62293 0.5233 0.93946 0.0
H2435 H 0.64197 0.53938 0.92993 0.0
H2436 H 0.66986 0.58075 0.95219 0.0
H2437 H 0.65202 0.56936 0.93589 0.0
H2438 H 0.62645 0.53485 0.03066 0.0
H2439 H 0.60938 0.52251 0.01423 0.0
H2440 H 0.65841 0.53785 0.03272 0.0
H2441 H 0.67673 0.55483 0.02332 0.0
C2442 C 0.21858 0.62565 0.2594 0.0
C2443 C 0.21746 0.63771 0.24137 0.0
C2444 C 0.18954 0.61584 0.22907 0.0
C2445 C 0.19444 0.60123 0.24433 0.0
N2446 N 0.21335 0.59245 0.27486 0.0
N2447 N 0.19018 0.65181 0.22104 0.0
C2448 C 0.20885 0.60621 0.2598 0.0
C2449 C 0.19959 0.63512 0.22926 0.0
N2450 N 0.22558 0.63419 0.27713 0.0
N2451 N 0.17543 0.61138 0.21429 0.0
H2452 H 0.1951 0.66664 0.22444 0.0
H2453 H 0.17606 0.6511 0.21363 0.0
H2454 H 0.16745 0.59754 0.21381 0.0
H2455 H 0.17288 0.62088 0.20174 0.0
H2456 H 0.22501 0.62674 0.29122 0.0
H2457 H 0.22901 0.64977 0.27809 0.0
H2458 H 0.22525 0.59471 0.28527 0.0
H2459 H 0.20619 0.57821 0.276 0.0
C2460 C 0.87814 0.5415 0.00678 0.0
C2461 C 0.88177 0.53313 0.02649 0.0
C2462 C 0.85293 0.55285 0.04018 0.0
C2463 C 0.84799 0.55944 0.02008 0.0
N2464 N 0.85356 0.5568 0.98366 0.0
N2465 N 0.87025 0.52771 0.06116 0.0
C2466 C 0.85995 0.55285 1.00319 0.0
C2467 C 0.86849 0.53793 0.043 0.0
N2468 N 0.89241 0.53923 0.99167 0.0
N2469 N 0.84326 0.56136 0.05666 0.0
H2470 H 0.88123 0.51644 0.06375 0.0
H2471 H 0.85963 0.52903 0.07297 0.0
H2472 H 0.83199 0.57257 0.05528 0.0
H2473 H 0.84775 0.55873 0.07173 0.0
H2474 H 0.89158 0.54683 0.97768 0.0
H2475 H 0.9061 0.53131 0.99377 0.0
H2476 H 0.86052 0.55052 0.97077 0.0
H2477 H 0.84013 0.56476 0.98036 0.0
C2478 C 0.14996 0.98076 0.03721 0.0
C2479 C 0.13032 0.97576 0.02933 0.0
C2480 C 0.14395 0.94416 0.01429 0.0
C2481 C 0.16327 0.94854 0.02323 0.0
N2482 N 0.1845 0.96947 0.04502 0.0
N2483 N 0.10766 0.95194 0.01253 0.0
C2484 C 0.16623 0.96643 0.03522 0.0
C2485 C 0.12705 0.95724 0.01844 0.0
N2486 N 0.15311 0.99944 0.04613 0.0
N2487 N 0.1419 0.92767 1.00154 0.0
H2488 H 0.09501 0.96139 0.0148 0.0
H2489 H 0.10376 0.93767 0.00662 0.0
H2490 H 0.15371 0.9173 0.99877 0.0
H2491 H 0.12898 0.92488 0.99263 0.0
H2492 H 0.16748 0.00505 0.05017 0.0
H2493 H 0.14143 0.01009 0.04831 0.0
H2494 H 0.18697 0.9809 0.05584 0.0
H2495 H 0.19699 0.95968 0.04334 0.0
loop_
_geom_bond_atom_site_label_1
_geom_bond_atom_site_label_2
_geom_bond_distance
_geom_bond_site_symmetry_2
_ccdc_geom_bond_type
C0 C1 1.384 . S
C0 H13 0.947 . S
C0 C35 1.382 . S
C1 C0 1.384 . S
C1 C2 1.378 . S
C2 C1 1.378 . S
C2 C3 1.378 1_655 S
C2 H14 0.950 1_645 S
C3 C2 1.378 1_455 S
C3 H15 0.950 . S
C3 C34 1.383 . S
H4 C23 0.947 . S
H5 C24 0.946 . S
H6 C26 0.948 1_546 S
H7 C27 0.945 . S
H8 C29 0.952 . S
H9 C30 0.949 . S
H10 C32 0.940 1_654 S
H11 C33 0.948 . S
H12 C35 0.951 . S
H13 C0 0.947 . S
H14 C2 0.950 1_465 S
H15 C3 0.950 . S
N16 C19 1.382 . S
N16 C21 1.363 . S
N17 C19 1.371 . S
N17 C20 1.372 . S
N18 C20 1.361 . S
N18 C21 1.377 . S
C19 N16 1.382 . S
C19 N17 1.371 . S
C19 C22 1.480 . S
C20 N17 1.372 . S
C20 N18 1.361 . S
C20 C28 1.457 . S
C21 N16 1.363 . S
C21 N18 1.377 . S
C21 C34 1.479 . S
C22 C19 1.480 . S
C22 C23 1.383 1_545 S
C22 C27 1.385 . S
C23 H4 0.947 . S
C23 C22 1.383 1_565 S
C23 C24 1.388 . S
C24 H5 0.946 . S
C24 C23 1.388 . S
C24 C25 1.384 . S
C25 C24 1.384 . S
C25 C26 1.377 . S
C26 H6 0.948 1_564 S
C26 C25 1.377 . S
C26 C27 1.369 1_565 S
C27 H7 0.945 . S
C27 C22 1.385 . S
C27 C26 1.369 1_545 S
C28 C20 1.457 . S
C28 C29 1.372 1_554 S
C28 C33 1.364 . S
C29 H8 0.952 . S
C29 C28 1.372 1_556 S
C29 C30 1.389 . S
C30 H9 0.949 . S
C30 C29 1.389 . S
C30 C31 1.387 . S
C31 C30 1.387 . S
C31 C32 1.421 . S
C32 H10 0.940 1_456 S
C32 C31 1.421 . S
C32 C33 1.342 1_556 S
C33 H11 0.948 . S
C33 C28 1.364 . S
C33 C32 1.342 1_554 S
C34 C3 1.383 . S
C34 C21 1.479 . S
C34 C35 1.398 1_455 S
C35 C0 1.382 . S
C35 H12 0.951 . S
C35 C34 1.398 1_655 S
C36 C37 1.384 . S
C36 H49 0.947 . S
C36 C71 1.382 . S
C37 C36 1.384 . S
C37 C38 1.378 . S
C38 C37 1.378 . S
C38 C39 1.378 . S
C38 H50 0.952 . S
C39 C38 1.378 . S
C39 H51 0.950 . S
C39 C70 1.383 . S
H40 C59 0.947 . S
H41 C60 0.946 . S
H42 C62 0.953 . S
H43 C63 0.945 . S
H44 C65 0.952 . S
H45 C66 0.949 . S
H46 C68 0.950 . S
H47 C69 0.948 . S
H48 C71 0.951 . S
H49 C36 0.947 . S
H50 C38 0.952 . S
H51 C39 0.950 . S
N52 C55 1.382 . S
N52 C57 1.363 . S
N53 C55 1.371 . S
N53 C56 1.372 . S
N54 C56 1.361 . S
N54 C57 1.377 . S
C55 N52 1.382 . S
C55 N53 1.371 . S
C55 C58 1.480 . S
C56 N53 1.372 . S
C56 N54 1.361 . S
C56 C64 1.457 . S
C57 N52 1.363 . S
C57 N54 1.377 . S
C57 C70 1.479 . S
C58 C55 1.480 . S
C58 C59 1.383 . S
C58 C63 1.385 . S
C59 H40 0.947 . S
C59 C58 1.383 . S
C59 C60 1.388 . S
C60 H41 0.946 . S
C60 C59 1.388 . S
C60 C61 1.384 . S
C61 C60 1.384 . S
C61 C62 1.377 . S
C62 H42 0.953 . S
C62 C61 1.377 . S
C62 C63 1.369 . S
C63 H43 0.945 . S
C63 C58 1.385 . S
C63 C62 1.369 . S
C64 C56 1.457 . S
C64 C65 1.372 . S
C64 C69 1.364 . S
C65 H44 0.952 . S
C65 C64 1.372 . S
C65 C66 1.389 . S
C66 H45 0.949 . S
C66 C65 1.389 . S
C66 C67 1.387 . S
C67 C66 1.387 . S
C67 C68 1.372 . S
C68 H46 0.950 . S
C68 C67 1.372 . S
C68 C69 1.379 . S
C69 H47 0.948 . S
C69 C64 1.364 . S
C69 C68 1.379 . S
C70 C39 1.383 . S
C70 C57 1.479 . S
C70 C71 1.398 . S
C71 C36 1.382 . S
C71 H48 0.951 . S
C71 C70 1.398 . S
C72 C73 1.384 . S
C72 H85 0.951 1_655 S
C72 C107 1.382 1_556 S
C73 C72 1.384 . S
C73 C74 1.378 . S
C74 C73 1.378 . S
C74 C75 1.378 . S
C74 H86 0.952 . S
C75 C74 1.378 . S
C75 H87 0.950 . S
C75 C106 1.383 1_556 S
H76 C95 0.950 . S
H77 C96 0.946 1_556 S
H78 C98 0.953 . S
H79 C99 0.945 . S
H80 C101 0.952 . S
H81 C102 0.961 . S
H82 C104 0.950 . S
H83 C105 0.948 . S
H84 C107 0.951 . S
H85 C72 0.951 1_455 S
H86 C74 0.952 . S
H87 C75 0.950 . S
N88 C91 1.382 . S
N88 C93 1.363 . S
N89 C91 1.371 . S
N89 C92 1.372 . S
N90 C92 1.361 . S
N90 C93 1.377 . S
C91 N88 1.382 . S
C91 N89 1.371 . S
C91 C94 1.480 . S
C92 N89 1.372 . S
C92 N90 1.361 . S
C92 C100 1.457 . S
C93 N88 1.363 . S
C93 N90 1.377 . S
C93 C106 1.479 . S
C94 C91 1.480 . S
C94 C95 1.383 . S
C94 C99 1.385 . S
C95 H76 0.950 . S
C95 C94 1.383 . S
C95 C96 1.388 . S
C96 H77 0.946 1_554 S
C96 C95 1.388 . S
C96 C97 1.384 . S
C97 C96 1.384 . S
C97 C98 1.377 . S
C98 H78 0.953 . S
C98 C97 1.377 . S
C98 C99 1.369 . S
C99 H79 0.945 . S
C99 C94 1.385 . S
C99 C98 1.369 . S
C100 C92 1.457 . S
C100 C101 1.372 . S
C100 C105 1.364 1_655 S
C101 H80 0.952 . S
C101 C100 1.372 . S
C101 C102 1.389 1_655 S
C102 H81 0.961 . S
C102 C101 1.389 1_455 S
C102 C103 1.387 . S
C103 C102 1.387 . S
C103 C104 1.372 . S
C104 H82 0.950 . S
C104 C103 1.372 . S
C104 C105 1.379 . S
C105 H83 0.948 . S
C105 C100 1.364 1_455 S
C105 C104 1.379 . S
C106 C75 1.383 1_554 S
C106 C93 1.479 . S
C106 C107 1.398 . S
C107 C72 1.382 1_554 S
C107 H84 0.951 . S
C107 C106 1.398 . S
C108 C109 1.384 . S
C108 H121 0.947 . S
C108 C143 1.382 . S
C109 C108 1.384 . S
C109 C110 1.378 . S
C110 C109 1.378 . S
C110 C111 1.378 . S
C110 H122 0.952 . S
C111 C110 1.378 . S
C111 H123 0.950 . S
C111 C142 1.383 . S
H112 C131 0.947 . S
H113 C132 0.946 . S
H114 C134 0.953 . S
H115 C135 0.945 . S
H116 C137 0.952 . S
H117 C138 0.949 . S
H118 C140 0.950 . S
H119 C141 0.948 . S
H120 C143 0.951 . S
H121 C108 0.947 . S
H122 C110 0.952 . S
H123 C111 0.950 . S
N124 C127 1.382 . S
N124 C129 1.363 . S
N125 C127 1.371 . S
N125 C128 1.372 . S
N126 C128 1.361 . S
N126 C129 1.377 . S
C127 N124 1.382 . S
C127 N125 1.371 . S
C127 C130 1.480 . S
C128 N125 1.372 . S
C128 N126 1.361 . S
C128 C136 1.457 . S
C129 N124 1.363 . S
C129 N126 1.377 . S
C129 C142 1.479 . S
C130 C127 1.480 . S
C130 C131 1.383 . S
C130 C135 1.385 . S
C131 H112 0.947 . S
C131 C130 1.383 . S
C131 C132 1.388 . S
C132 H113 0.946 . S
C132 C131 1.388 . S
C132 C133 1.384 . S
C133 C132 1.384 . S
C133 C134 1.377 . S
C134 H114 0.953 . S
C134 C133 1.377 . S
C134 C135 1.369 . S
C135 H115 0.945 . S
C135 C130 1.385 . S
C135 C134 1.369 . S
C136 C128 1.457 . S
C136 C137 1.372 . S
C136 C141 1.364 . S
C137 H116 0.952 . S
C137 C136 1.372 . S
C137 C138 1.389 . S
C138 H117 0.949 . S
C138 C137 1.389 . S
C138 C139 1.387 . S
C139 C138 1.387 . S
C139 C140 1.372 . S
C140 H118 0.950 . S
C140 C139 1.372 . S
C140 C141 1.379 . S
C141 H119 0.948 . S
C141 C136 1.364 . S
C141 C140 1.379 . S
C142 C111 1.383 . S
C142 C129 1.479 . S
C142 C143 1.398 . S
C143 C108 1.382 . S
C143 H120 0.951 . S
C143 C142 1.398 . S
C144 C145 1.384 . S
C144 H157 0.947 . S
C144 C179 1.382 . S
C145 C144 1.384 . S
C145 C146 1.378 . S
C146 C145 1.378 . S
C146 C147 1.378 . S
C146 H158 0.952 1_455 S
C147 C146 1.378 . S
C147 H159 0.950 . S
C147 C178 1.383 . S
H148 C167 0.947 . S
H149 C168 0.946 . S
H150 C170 0.947 1_445 S
H151 C171 0.945 . S
H152 C173 0.952 . S
H153 C174 0.949 . S
H154 C176 0.950 1_565 S
H155 C177 0.948 . S
H156 C179 0.951 . S
H157 C144 0.947 . S
H158 C146 0.952 1_655 S
H159 C147 0.950 . S
N160 C163 1.382 . S
N160 C165 1.363 . S
N161 C163 1.371 . S
N161 C164 1.372 . S
N162 C164 1.361 . S
N162 C165 1.377 . S
C163 N160 1.382 . S
C163 N161 1.371 . S
C163 C166 1.480 . S
C164 N161 1.372 . S
C164 N162 1.361 . S
C164 C172 1.457 . S
C165 N160 1.363 . S
C165 N162 1.377 . S
C165 C178 1.479 . S
C166 C163 1.480 . S
C166 C167 1.383 1_455 S
C166 C171 1.385 . S
C167 H148 0.947 . S
C167 C166 1.383 1_655 S
C167 C168 1.388 . S
C168 H149 0.946 . S
C168 C167 1.388 . S
C168 C169 1.384 . S
C169 C168 1.384 . S
C169 C170 1.377 . S
C170 H150 0.947 1_665 S
C170 C169 1.377 . S
C170 C171 1.369 1_655 S
C171 H151 0.945 . S
C171 C166 1.385 . S
C171 C170 1.369 1_455 S
C172 C164 1.457 . S
C172 C173 1.372 1_565 S
C172 C177 1.364 . S
C173 H152 0.952 . S
C173 C172 1.372 1_545 S
C173 C174 1.389 . S
C174 H153 0.949 . S
C174 C173 1.389 . S
C174 C175 1.387 . S
C175 C174 1.387 . S
C175 C176 1.372 . S
C176 H154 0.950 1_545 S
C176 C175 1.372 . S
C176 C177 1.379 1_545 S
C177 H155 0.948 . S
C177 C172 1.364 . S
C177 C176 1.379 1_565 S
C178 C147 1.383 . S
C178 C165 1.479 . S
C178 C179 1.398 . S
C179 C144 1.382 . S
C179 H156 0.951 . S
C179 C178 1.398 . S
C180 C181 1.384 . S
C180 H193 0.947 . S
C180 C215 1.382 . S
C181 C180 1.384 . S
C181 C182 1.378 . S
C182 C181 1.378 . S
C182 C183 1.378 . S
C182 H194 0.952 . S
C183 C182 1.378 . S
C183 H195 0.950 . S
C183 C214 1.383 . S
H184 C203 0.947 . S
H185 C204 0.946 . S
H186 C206 0.953 . S
H187 C207 0.945 . S
H188 C209 0.952 . S
H189 C210 0.949 . S
H190 C212 0.950 . S
H191 C213 0.948 . S
H192 C215 0.951 . S
H193 C180 0.947 . S
H194 C182 0.952 . S
H195 C183 0.950 . S
N196 C199 1.382 . S
N196 C201 1.363 . S
N197 C199 1.371 . S
N197 C200 1.372 . S
N198 C200 1.361 . S
N198 C201 1.377 . S
C199 N196 1.382 . S
C199 N197 1.371 . S
C199 C202 1.480 . S
C200 N197 1.372 . S
C200 N198 1.361 . S
C200 C208 1.457 . S
C201 N196 1.363 . S
C201 N198 1.377 . S
C201 C214 1.479 . S
C202 C199 1.480 . S
C202 C203 1.383 . S
C202 C207 1.385 . S
C203 H184 0.947 . S
C203 C202 1.383 . S
C203 C204 1.388 . S
C204 H185 0.946 . S
C204 C203 1.388 . S
C204 C205 1.384 . S
C205 C204 1.384 . S
C205 C206 1.377 . S
C206 H186 0.953 . S
C206 C205 1.377 . S
C206 C207 1.369 . S
C207 H187 0.945 . S
C207 C202 1.385 . S
C207 C206 1.369 . S
C208 C200 1.457 . S
C208 C209 1.372 . S
C208 C213 1.364 . S
C209 H188 0.952 . S
C209 C208 1.372 . S
C209 C210 1.389 . S
C210 H189 0.949 . S
C210 C209 1.389 . S
C210 C211 1.387 . S
C211 C210 1.387 . S
C211 C212 1.372 . S
C212 H190 0.950 . S
C212 C211 1.372 . S
C212 C213 1.379 . S
C213 H191 0.948 . S
C213 C208 1.364 . S
C213 C212 1.379 . S
C214 C183 1.383 . S
C214 C201 1.479 . S
C214 C215 1.398 . S
C215 C180 1.382 . S
C215 H192 0.951 . S
C215 C214 1.398 . S
C216 C217 1.384 . S
C216 H229 0.947 1_655 S
C216 C251 1.382 . S
C217 C216 1.384 . S
C217 C218 1.378 . S
C218 C217 1.378 . S
C218 C219 1.378 . S
C218 H230 0.952 . S
C219 C218 1.378 . S
C219 H231 0.950 . S
C219 C250 1.383 . S
H220 C239 0.947 . S
H221 C240 0.946 . S
H222 C242 0.953 . S
H223 C243 0.945 . S
H224 C245 0.952 . S
H225 C246 0.949 . S
H226 C248 0.950 . S
H227 C249 0.948 . S
H228 C251 0.951 . S
H229 C216 0.947 1_455 S
H230 C218 0.952 . S
H231 C219 0.950 . S
N232 C235 1.382 . S
N232 C237 1.363 . S
N233 C235 1.371 . S
N233 C236 1.372 . S
N234 C236 1.361 . S
N234 C237 1.377 . S
C235 N232 1.382 . S
C235 N233 1.371 . S
C235 C238 1.480 . S
C236 N233 1.372 . S
C236 N234 1.361 . S
C236 C244 1.457 . S
C237 N232 1.363 . S
C237 N234 1.377 . S
C237 C250 1.479 . S
C238 C235 1.480 . S
C238 C239 1.383 . S
C238 C243 1.385 . S
C239 H220 0.947 . S
C239 C238 1.383 . S
C239 C240 1.388 . S
C240 H221 0.946 . S
C240 C239 1.388 . S
C240 C241 1.384 . S
C241 C240 1.384 . S
C241 C242 1.377 . S
C242 H222 0.953 . S
C242 C241 1.377 . S
C242 C243 1.369 . S
C243 H223 0.945 . S
C243 C238 1.385 . S
C243 C242 1.369 . S
C244 C236 1.457 . S
C244 C245 1.372 . S
C244 C249 1.364 1_655 S
C245 H224 0.952 . S
C245 C244 1.372 . S
C245 C246 1.389 1_655 S
C246 H225 0.949 . S
C246 C245 1.389 1_455 S
C246 C247 1.387 . S
C247 C246 1.387 . S
C247 C248 1.372 . S
C248 H226 0.950 . S
C248 C247 1.372 . S
C248 C249 1.379 . S
C249 H227 0.948 . S
C249 C244 1.364 1_455 S
C249 C248 1.379 . S
C250 C219 1.383 . S
C250 C237 1.479 . S
C250 C251 1.398 . S
C251 C216 1.382 . S
C251 H228 0.951 . S
C251 C250 1.398 . S
C252 C253 1.384 . S
C252 H265 0.947 . S
C252 C287 1.382 . S
C253 C252 1.384 . S
C253 C254 1.378 . S
C254 C253 1.378 . S
C254 C255 1.378 . S
C254 H266 0.952 . S
C255 C254 1.378 . S
C255 H267 0.950 . S
C255 C286 1.383 . S
H256 C275 0.947 . S
H257 C276 0.946 . S
H258 C278 0.953 . S
H259 C279 0.945 . S
H260 C281 0.952 . S
H261 C282 0.949 . S
H262 C284 0.950 . S
H263 C285 0.948 . S
H264 C287 0.951 . S
H265 C252 0.947 . S
H266 C254 0.952 . S
H267 C255 0.950 . S
N268 C271 1.382 . S
N268 C273 1.363 . S
N269 C271 1.371 . S
N269 C272 1.372 . S
N270 C272 1.361 . S
N270 C273 1.377 . S
C271 N268 1.382 . S
C271 N269 1.371 . S
C271 C274 1.480 . S
C272 N269 1.372 . S
C272 N270 1.361 . S
C272 C280 1.457 . S
C273 N268 1.363 . S
C273 N270 1.377 . S
C273 C286 1.479 . S
C274 C271 1.480 . S
C274 C275 1.383 . S
C274 C279 1.385 . S
C275 H256 0.947 . S
C275 C274 1.383 . S
C275 C276 1.388 . S
C276 H257 0.946 . S
C276 C275 1.388 . S
C276 C277 1.384 . S
C277 C276 1.384 . S
C277 C278 1.377 . S
C278 H258 0.953 . S
C278 C277 1.377 . S
C278 C279 1.369 . S
C279 H259 0.945 . S
C279 C274 1.385 . S
C279 C278 1.369 . S
C280 C272 1.457 . S
C280 C281 1.372 . S
C280 C285 1.364 . S
C281 H260 0.952 . S
C281 C280 1.372 . S
C281 C282 1.389 . S
C282 H261 0.949 . S
C282 C281 1.389 . S
C282 C283 1.387 . S
C283 C282 1.387 . S
C283 C284 1.372 . S
C284 H262 0.950 . S
C284 C283 1.372 . S
C284 C285 1.379 . S
C285 H263 0.948 . S
C285 C280 1.364 . S
C285 C284 1.379 . S
C286 C255 1.383 . S
C286 C273 1.479 . S
C286 C287 1.398 . S
C287 C252 1.382 . S
C287 H264 0.951 . S
C287 C286 1.398 . S
C288 C289 1.384 . S
C288 H301 0.947 . S
C288 C323 1.382 . S
C289 C288 1.384 . S
C289 C290 1.378 . S
C290 C289 1.378 . S
C290 C291 1.378 . S
C290 H302 0.952 . S
C291 C290 1.378 . S
C291 H303 0.950 . S
C291 C322 1.383 . S
H292 C311 0.947 . S
H293 C312 0.946 . S
H294 C314 0.953 . S
H295 C315 0.945 . S
H296 C317 0.952 . S
H297 C318 0.949 . S
H298 C320 0.950 . S
H299 C321 0.948 . S
H300 C323 0.951 . S
H301 C288 0.947 . S
H302 C290 0.952 . S
H303 C291 0.950 . S
N304 C307 1.382 . S
N304 C309 1.363 . S
N305 C307 1.371 . S
N305 C308 1.372 . S
N306 C308 1.361 . S
N306 C309 1.377 . S
C307 N304 1.382 . S
C307 N305 1.371 . S
C307 C310 1.480 . S
C308 N305 1.372 . S
C308 N306 1.361 . S
C308 C316 1.457 . S
C309 N304 1.363 . S
C309 N306 1.377 . S
C309 C322 1.479 . S
C310 C307 1.480 . S
C310 C311 1.383 . S
C310 C315 1.385 . S
C311 H292 0.947 . S
C311 C310 1.383 . S
C311 C312 1.388 . S
C312 H293 0.946 . S
C312 C311 1.388 . S
C312 C313 1.384 . S
C313 C312 1.384 . S
C313 C314 1.377 . S
C314 H294 0.953 . S
C314 C313 1.377 . S
C314 C315 1.369 . S
C315 H295 0.945 . S
C315 C310 1.385 . S
C315 C314 1.369 . S
C316 C308 1.457 . S
C316 C317 1.372 . S
C316 C321 1.364 . S
C317 H296 0.952 . S
C317 C316 1.372 . S
C317 C318 1.389 . S
C318 H297 0.949 . S
C318 C317 1.389 . S
C318 C319 1.387 . S
C319 C318 1.387 . S
C319 C320 1.372 . S
C320 H298 0.950 . S
C320 C319 1.372 . S
C320 C321 1.379 . S
C321 H299 0.948 . S
C321 C316 1.364 . S
C321 C320 1.379 . S
C322 C291 1.383 . S
C322 C309 1.479 . S
C322 C323 1.398 . S
C323 C288 1.382 . S
C323 H300 0.951 . S
C323 C322 1.398 . S
C324 C325 1.384 . S
C324 H337 0.947 . S
C324 C359 1.382 . S
C325 C324 1.384 . S
C325 C326 1.378 . S
C326 C325 1.378 . S
C326 C327 1.378 . S
C326 H338 0.952 . S
C327 C326 1.378 . S
C327 H339 0.950 . S
C327 C358 1.383 . S
H328 C347 0.947 . S
H329 C348 0.946 . S
H330 C350 0.953 . S
H331 C351 0.945 . S
H332 C353 0.952 . S
H333 C354 0.949 1_545 S
H334 C356 0.950 . S
H335 C357 0.948 . S
H336 C359 0.951 . S
H337 C324 0.947 . S
H338 C326 0.952 . S
H339 C327 0.950 . S
N340 C343 1.382 . S
N340 C345 1.363 . S
N341 C343 1.371 . S
N341 C344 1.372 . S
N342 C344 1.361 . S
N342 C345 1.377 . S
C343 N340 1.382 . S
C343 N341 1.371 . S
C343 C346 1.480 . S
C344 N341 1.372 . S
C344 N342 1.361 . S
C344 C352 1.457 . S
C345 N340 1.363 . S
C345 N342 1.377 . S
C345 C358 1.479 . S
C346 C343 1.480 . S
C346 C347 1.383 . S
C346 C351 1.385 1_565 S
C347 H328 0.947 . S
C347 C346 1.383 . S
C347 C348 1.388 1_565 S
C348 H329 0.946 . S
C348 C347 1.388 1_545 S
C348 C349 1.384 . S
C349 C348 1.384 . S
C349 C350 1.377 . S
C350 H330 0.953 . S
C350 C349 1.377 . S
C350 C351 1.369 . S
C351 H331 0.945 . S
C351 C346 1.385 1_545 S
C351 C350 1.369 . S
C352 C344 1.457 . S
C352 C353 1.372 . S
C352 C357 1.364 . S
C353 H332 0.952 . S
C353 C352 1.372 . S
C353 C354 1.389 . S
C354 H333 0.949 1_565 S
C354 C353 1.389 . S
C354 C355 1.387 . S
C355 C354 1.387 . S
C355 C356 1.372 . S
C356 H334 0.950 . S
C356 C355 1.372 . S
C356 C357 1.379 . S
C357 H335 0.948 . S
C357 C352 1.364 . S
C357 C356 1.379 . S
C358 C327 1.383 . S
C358 C345 1.479 . S
C358 C359 1.398 . S
C359 C324 1.382 . S
C359 H336 0.951 . S
C359 C358 1.398 . S
C360 C361 1.384 . S
C360 H373 0.947 . S
C360 C395 1.382 . S
C361 C360 1.384 . S
C361 C362 1.378 . S
C362 C361 1.378 . S
C362 C363 1.378 . S
C362 H374 0.952 . S
C363 C362 1.378 . S
C363 H375 0.950 . S
C363 C394 1.383 . S
H364 C383 0.947 . S
H365 C384 0.946 . S
H366 C386 0.953 . S
H367 C387 0.945 . S
H368 C389 0.952 . S
H369 C390 0.949 . S
H370 C392 0.950 . S
H371 C393 0.948 . S
H372 C395 0.951 . S
H373 C360 0.947 . S
H374 C362 0.952 . S
H375 C363 0.950 . S
N376 C379 1.382 . S
N376 C381 1.363 . S
N377 C379 1.371 . S
N377 C380 1.372 . S
N378 C380 1.361 . S
N378 C381 1.377 . S
C379 N376 1.382 . S
C379 N377 1.371 . S
C379 C382 1.480 . S
C380 N377 1.372 . S
C380 N378 1.361 . S
C380 C388 1.457 . S
C381 N376 1.363 . S
C381 N378 1.377 . S
C381 C394 1.479 . S
C382 C379 1.480 . S
C382 C383 1.383 . S
C382 C387 1.385 . S
C383 H364 0.947 . S
C383 C382 1.383 . S
C383 C384 1.388 . S
C384 H365 0.946 . S
C384 C383 1.388 . S
C384 C385 1.384 . S
C385 C384 1.384 . S
C385 C386 1.377 . S
C386 H366 0.953 . S
C386 C385 1.377 . S
C386 C387 1.369 . S
C387 H367 0.945 . S
C387 C382 1.385 . S
C387 C386 1.369 . S
C388 C380 1.457 . S
C388 C389 1.372 . S
C388 C393 1.364 . S
C389 H368 0.952 . S
C389 C388 1.372 . S
C389 C390 1.389 . S
C390 H369 0.949 . S
C390 C389 1.389 . S
C390 C391 1.387 . S
C391 C390 1.387 . S
C391 C392 1.372 . S
C392 H370 0.950 . S
C392 C391 1.372 . S
C392 C393 1.379 . S
C393 H371 0.948 . S
C393 C388 1.364 . S
C393 C392 1.379 . S
C394 C363 1.383 . S
C394 C381 1.479 . S
C394 C395 1.398 . S
C395 C360 1.382 . S
C395 H372 0.951 . S
C395 C394 1.398 . S
C396 C397 1.384 . S
C396 H409 0.947 . S
C396 C431 1.382 . S
C397 C396 1.384 . S
C397 C398 1.378 . S
C398 C397 1.378 . S
C398 C399 1.378 . S
C398 H410 0.952 . S
C399 C398 1.378 . S
C399 H411 0.950 . S
C399 C430 1.383 . S
H400 C419 0.947 . S
H401 C420 0.946 . S
H402 C422 0.953 . S
H403 C423 0.945 . S
H404 C425 0.952 . S
H405 C426 0.949 . S
H406 C428 0.950 . S
H407 C429 0.948 . S
H408 C431 0.951 . S
H409 C396 0.947 . S
H410 C398 0.952 . S
H411 C399 0.950 . S
N412 C415 1.382 . S
N412 C417 1.363 . S
N413 C415 1.371 . S
N413 C416 1.372 . S
N414 C416 1.361 . S
N414 C417 1.377 . S
C415 N412 1.382 . S
C415 N413 1.371 . S
C415 C418 1.480 . S
C416 N413 1.372 . S
C416 N414 1.361 . S
C416 C424 1.457 . S
C417 N412 1.363 . S
C417 N414 1.377 . S
C417 C430 1.479 . S
C418 C415 1.480 . S
C418 C419 1.383 . S
C418 C423 1.385 . S
C419 H400 0.947 . S
C419 C418 1.383 . S
C419 C420 1.388 . S
C420 H401 0.946 . S
C420 C419 1.388 . S
C420 C421 1.384 . S
C421 C420 1.384 . S
C421 C422 1.377 . S
C422 H402 0.953 . S
C422 C421 1.377 . S
C422 C423 1.369 . S
C423 H403 0.945 . S
C423 C418 1.385 . S
C423 C422 1.369 . S
C424 C416 1.457 . S
C424 C425 1.372 . S
C424 C429 1.364 . S
C425 H404 0.952 . S
C425 C424 1.372 . S
C425 C426 1.389 . S
C426 H405 0.949 . S
C426 C425 1.389 . S
C426 C427 1.387 . S
C427 C426 1.387 . S
C427 C428 1.372 . S
C428 H406 0.950 . S
C428 C427 1.372 . S
C428 C429 1.379 . S
C429 H407 0.948 . S
C429 C424 1.364 . S
C429 C428 1.379 . S
C430 C399 1.383 . S
C430 C417 1.479 . S
C430 C431 1.398 . S
C431 C396 1.382 . S
C431 H408 0.951 . S
C431 C430 1.398 . S
C432 C433 1.384 . S
C432 H445 0.947 . S
C432 C467 1.382 . S
C433 C432 1.384 . S
C433 C434 1.378 . S
C434 C433 1.378 . S
C434 C435 1.378 . S
C434 H446 0.952 . S
C435 C434 1.378 . S
C435 H447 0.950 . S
C435 C466 1.383 . S
H436 C455 0.947 . S
H437 C456 0.946 . S
H438 C458 0.953 . S
H439 C459 0.945 . S
H440 C461 0.952 . S
H441 C462 0.949 . S
H442 C464 0.950 . S
H443 C465 0.948 . S
H444 C467 0.951 . S
H445 C432 0.947 . S
H446 C434 0.952 . S
H447 C435 0.950 . S
N448 C451 1.382 . S
N448 C453 1.363 . S
N449 C451 1.371 . S
N449 C452 1.372 . S
N450 C452 1.361 . S
N450 C453 1.377 . S
C451 N448 1.382 . S
C451 N449 1.371 . S
C451 C454 1.480 . S
C452 N449 1.372 . S
C452 N450 1.361 . S
C452 C460 1.457 . S
C453 N448 1.363 . S
C453 N450 1.377 . S
C453 C466 1.479 . S
C454 C451 1.480 . S
C454 C455 1.383 . S
C454 C459 1.385 . S
C455 H436 0.947 . S
C455 C454 1.383 . S
C455 C456 1.388 . S
C456 H437 0.946 . S
C456 C455 1.388 . S
C456 C457 1.384 . S
C457 C456 1.384 . S
C457 C458 1.377 . S
C458 H438 0.953 . S
C458 C457 1.377 . S
C458 C459 1.369 . S
C459 H439 0.945 . S
C459 C454 1.385 . S
C459 C458 1.369 . S
C460 C452 1.457 . S
C460 C461 1.372 . S
C460 C465 1.364 . S
C461 H440 0.952 . S
C461 C460 1.372 . S
C461 C462 1.389 . S
C462 H441 0.949 . S
C462 C461 1.389 . S
C462 C463 1.387 . S
C463 C462 1.387 . S
C463 C464 1.372 . S
C464 H442 0.950 . S
C464 C463 1.372 . S
C464 C465 1.379 . S
C465 H443 0.948 . S
C465 C460 1.364 . S
C465 C464 1.379 . S
C466 C435 1.383 . S
C466 C453 1.479 . S
C466 C467 1.398 . S
C467 C432 1.382 . S
C467 H444 0.951 . S
C467 C466 1.398 . S
C468 C469 1.384 . S
C468 H481 0.947 . S
C468 C503 1.382 . S
C469 C468 1.384 . S
C469 C470 1.378 . S
C470 C469 1.378 . S
C470 C471 1.378 1_554 S
C470 H482 0.952 1_554 S
C471 C470 1.378 1_556 S
C471 H483 0.950 . S
C471 C502 1.383 . S
H472 C491 0.947 . S
H473 C492 0.946 . S
H474 C494 0.953 . S
H475 C495 0.945 . S
H476 C497 0.952 . S
H477 C498 0.949 . S
H478 C500 0.950 1_554 S
H479 C501 0.948 . S
H480 C503 0.951 . S
H481 C468 0.947 . S
H482 C470 0.952 1_556 S
H483 C471 0.950 . S
N484 C487 1.382 . S
N484 C489 1.363 . S
N485 C487 1.371 . S
N485 C488 1.372 . S
N486 C488 1.361 . S
N486 C489 1.377 . S
C487 N484 1.382 . S
C487 N485 1.371 . S
C487 C490 1.480 . S
C488 N485 1.372 . S
C488 N486 1.361 . S
C488 C496 1.457 . S
C489 N484 1.363 . S
C489 N486 1.377 . S
C489 C502 1.479 . S
C490 C487 1.480 . S
C490 C491 1.383 . S
C490 C495 1.385 . S
C491 H472 0.947 . S
C491 C490 1.383 . S
C491 C492 1.388 . S
C492 H473 0.946 . S
C492 C491 1.388 . S
C492 C493 1.384 . S
C493 C492 1.384 . S
C493 C494 1.377 . S
C494 H474 0.953 . S
C494 C493 1.377 . S
C494 C495 1.369 . S
C495 H475 0.945 . S
C495 C490 1.385 . S
C495 C494 1.369 . S
C496 C488 1.457 . S
C496 C497 1.372 . S
C496 C501 1.364 . S
C497 H476 0.952 . S
C497 C496 1.372 . S
C497 C498 1.389 . S
C498 H477 0.949 . S
C498 C497 1.389 . S
C498 C499 1.387 . S
C499 C498 1.387 . S
C499 C500 1.372 . S
C500 H478 0.950 1_556 S
C500 C499 1.372 . S
C500 C501 1.379 . S
C501 H479 0.948 . S
C501 C496 1.364 . S
C501 C500 1.379 . S
C502 C471 1.383 . S
C502 C489 1.479 . S
C502 C503 1.398 1_556 S
C503 C468 1.382 . S
C503 H480 0.951 . S
C503 C502 1.398 1_554 S
C504 C505 1.384 . S
C504 H517 0.947 . S
C504 C539 1.382 . S
C505 C504 1.384 . S
C505 C506 1.378 . S
C506 C505 1.378 . S
C506 C507 1.378 . S
C506 H518 0.952 . S
C507 C506 1.378 . S
C507 H519 0.950 . S
C507 C538 1.383 . S
H508 C527 0.947 . S
H509 C528 0.946 . S
H510 C530 0.953 . S
H511 C531 0.945 . S
H512 C533 0.952 . S
H513 C534 0.949 . S
H514 C536 0.950 . S
H515 C537 0.948 . S
H516 C539 0.951 . S
H517 C504 0.947 . S
H518 C506 0.952 . S
H519 C507 0.950 . S
N520 C523 1.382 . S
N520 C525 1.363 . S
N521 C523 1.371 . S
N521 C524 1.372 . S
N522 C524 1.361 . S
N522 C525 1.377 . S
C523 N520 1.382 . S
C523 N521 1.371 . S
C523 C526 1.480 . S
C524 N521 1.372 . S
C524 N522 1.361 . S
C524 C532 1.457 . S
C525 N520 1.363 . S
C525 N522 1.377 . S
C525 C538 1.479 . S
C526 C523 1.480 . S
C526 C527 1.383 . S
C526 C531 1.385 . S
C527 H508 0.947 . S
C527 C526 1.383 . S
C527 C528 1.388 . S
C528 H509 0.946 . S
C528 C527 1.388 . S
C528 C529 1.384 . S
C529 C528 1.384 . S
C529 C530 1.377 . S
C530 H510 0.953 . S
C530 C529 1.377 . S
C530 C531 1.369 . S
C531 H511 0.945 . S
C531 C526 1.385 . S
C531 C530 1.369 . S
C532 C524 1.457 . S
C532 C533 1.372 . S
C532 C537 1.364 . S
C533 H512 0.952 . S
C533 C532 1.372 . S
C533 C534 1.389 . S
C534 H513 0.949 . S
C534 C533 1.389 . S
C534 C535 1.387 . S
C535 C534 1.387 . S
C535 C536 1.372 . S
C536 H514 0.950 . S
C536 C535 1.372 . S
C536 C537 1.379 . S
C537 H515 0.948 . S
C537 C532 1.364 . S
C537 C536 1.379 . S
C538 C507 1.383 . S
C538 C525 1.479 . S
C538 C539 1.398 . S
C539 C504 1.382 . S
C539 H516 0.951 . S
C539 C538 1.398 . S
C540 C541 1.384 . S
C540 H553 0.947 . S
C540 C575 1.382 1_554 S
C541 C540 1.384 . S
C541 C542 1.378 . S
C542 C541 1.378 . S
C542 C543 1.378 . S
C542 H554 0.952 . S
C543 C542 1.378 . S
C543 H555 0.950 . S
C543 C574 1.383 1_554 S
H544 C563 0.947 1_554 S
H545 C564 0.963 1_554 S
H546 C566 0.953 . S
H547 C567 0.945 . S
H548 C569 0.952 . S
H549 C570 0.949 1_565 S
H550 C572 0.950 . S
H551 C573 0.948 . S
H552 C575 0.951 . S
H553 C540 0.947 . S
H554 C542 0.952 . S
H555 C543 0.950 . S
N556 C559 1.382 . S
N556 C561 1.363 . S
N557 C559 1.371 . S
N557 C560 1.372 . S
N558 C560 1.361 . S
N558 C561 1.377 . S
C559 N556 1.382 . S
C559 N557 1.371 . S
C559 C562 1.480 . S
C560 N557 1.372 . S
C560 N558 1.361 . S
C560 C568 1.457 . S
C561 N556 1.363 . S
C561 N558 1.377 . S
C561 C574 1.479 . S
C562 C559 1.480 . S
C562 C563 1.383 . S
C562 C567 1.385 1_545 S
C563 H544 0.947 1_556 S
C563 C562 1.383 . S
C563 C564 1.388 1_545 S
C564 H545 0.963 1_556 S
C564 C563 1.388 1_565 S
C564 C565 1.384 . S
C565 C564 1.384 . S
C565 C566 1.377 . S
C566 H546 0.953 . S
C566 C565 1.377 . S
C566 C567 1.369 . S
C567 H547 0.945 . S
C567 C562 1.385 1_565 S
C567 C566 1.369 . S
C568 C560 1.457 . S
C568 C569 1.372 . S
C568 C573 1.364 . S
C569 H548 0.952 . S
C569 C568 1.372 . S
C569 C570 1.389 . S
C570 H549 0.949 1_545 S
C570 C569 1.389 . S
C570 C571 1.387 . S
C571 C570 1.387 . S
C571 C572 1.372 . S
C572 H550 0.950 . S
C572 C571 1.372 . S
C572 C573 1.379 . S
C573 H551 0.948 . S
C573 C568 1.364 . S
C573 C572 1.379 . S
C574 C543 1.383 1_556 S
C574 C561 1.479 . S
C574 C575 1.398 . S
C575 C540 1.382 1_556 S
C575 H552 0.951 . S
C575 C574 1.398 . S
Li576 N593 1.990 . S
Li576 O636 1.956 . S
Li576 O637 1.970 1_556 S
Li576 O638 1.961 . S
Li577 N601 1.990 . S
Li577 O636 1.970 1_554 S
Li577 O637 1.956 . S
Li577 O639 1.961 . S
Li578 N623 1.990 . S
Li578 O636 1.961 . S
Li578 O638 1.956 . S
Li578 O639 1.970 1_556 S
Li579 N629 1.990 . S
Li579 O637 1.961 . S
Li579 O638 1.970 1_554 S
Li579 O639 1.956 . S
C580 C582 1.348 1_556 S
C580 C583 1.356 . S
C580 O636 1.325 . S
N581 C584 1.314 1_556 S
N581 C585 1.279 . S
C582 C580 1.348 1_554 S
C582 C584 1.353 . S
C582 H640 0.929 . S
C583 C580 1.356 . S
C583 C585 1.358 . S
C583 H641 0.930 . S
C584 N581 1.314 1_554 S
C584 C582 1.353 . S
C584 H642 0.930 . S
C585 N581 1.279 . S
C585 C583 1.358 . S
C585 H643 0.930 . S
C586 C589 1.348 . S
C586 C590 1.356 . S
C586 O637 1.325 . S
C587 N588 1.279 . S
C587 C590 1.358 . S
C587 H644 0.930 . S
N588 C587 1.279 . S
N588 C591 1.314 . S
C589 C586 1.348 . S
C589 C591 1.353 . S
C589 H645 0.929 . S
C590 C586 1.356 . S
C590 C587 1.358 . S
C590 H646 0.930 . S
C591 N588 1.314 . S
C591 C589 1.353 . S
C591 H647 0.930 . S
C592 N593 1.314 . S
C592 C597 1.353 . S
C592 H598 0.930 . S
N593 Li576 1.990 . S
N593 C592 1.314 . S
N593 C595 1.279 . S
C594 C595 1.358 . S
C594 C596 1.356 . S
C594 H648 0.930 . S
C595 N593 1.279 . S
C595 C594 1.358 . S
C595 H599 0.930 . S
C596 C594 1.356 . S
C596 C597 1.348 . S
C597 C592 1.353 . S
C597 C596 1.348 . S
C597 H649 0.929 . S
H598 C592 0.930 . S
H599 C595 0.930 . S
C600 N601 1.314 . S
C600 C602 1.353 . S
C600 H606 0.930 . S
N601 Li577 1.990 . S
N601 C600 1.314 . S
N601 C604 1.279 . S
C602 C600 1.353 . S
C602 C605 1.348 . S
C602 H650 0.929 . S
C603 C604 1.358 . S
C603 C605 1.356 . S
C603 H651 0.930 . S
C604 N601 1.279 . S
C604 C603 1.358 . S
C604 H607 0.930 . S
C605 C602 1.348 . S
C605 C603 1.356 . S
H606 C600 0.930 . S
H607 C604 0.930 . S
C608 C610 1.348 . S
C608 C611 1.356 . S
C608 O638 1.325 . S
N609 C612 1.314 . S
N609 C613 1.279 . S
C610 C608 1.348 . S
C610 C612 1.353 . S
C610 H652 0.929 . S
C611 C608 1.356 . S
C611 C613 1.358 . S
C611 H653 0.930 . S
C612 N609 1.314 . S
C612 C610 1.353 . S
C612 H654 0.930 . S
C613 N609 1.279 . S
C613 C611 1.358 . S
C613 H655 0.930 . S
C614 C615 1.348 1_554 S
C614 C616 1.356 . S
C614 O639 1.325 . S
C615 C614 1.348 1_556 S
C615 C617 1.353 . S
C615 H656 0.929 . S
C616 C614 1.356 . S
C616 C618 1.358 . S
C616 H657 0.930 . S
C617 C615 1.353 . S
C617 N619 1.314 1_556 S
C617 H658 0.930 . S
C618 C616 1.358 . S
C618 N619 1.279 . S
C618 H659 0.930 . S
N619 C617 1.314 1_554 S
N619 C618 1.279 . S
C620 C622 1.353 . S
C620 N623 1.314 . S
C620 H626 0.930 . S
C621 N623 1.279 . S
C621 C624 1.358 . S
C621 H627 0.930 . S
C622 C620 1.353 . S
C622 C625 1.348 . S
C622 H660 0.929 . S
N623 Li578 1.990 . S
N623 C620 1.314 . S
N623 C621 1.279 . S
C624 C621 1.358 . S
C624 C625 1.356 . S
C624 H661 0.930 . S
C625 C622 1.348 . S
C625 C624 1.356 . S
H626 C620 0.930 . S
H627 C621 0.930 . S
C628 N629 1.314 . S
C628 C630 1.353 . S
C628 H634 0.930 . S
N629 Li579 1.990 . S
N629 C628 1.314 . S
N629 C632 1.279 . S
C630 C628 1.353 . S
C630 C633 1.348 . S
C630 H662 0.929 . S
C631 C632 1.358 . S
C631 C633 1.356 . S
C631 H663 0.930 . S
C632 N629 1.279 . S
C632 C631 1.358 . S
C632 H635 0.930 . S
C633 C630 1.348 . S
C633 C631 1.356 . S
H634 C628 0.930 . S
H635 C632 0.930 . S
O636 Li576 1.956 . S
O636 Li577 1.970 1_556 S
O636 Li578 1.961 . S
O636 C580 1.325 . S
O637 Li576 1.970 1_554 S
O637 Li577 1.956 . S
O637 Li579 1.961 . S
O637 C586 1.325 . S
O638 Li576 1.961 . S
O638 Li578 1.956 . S
O638 Li579 1.970 1_556 S
O638 C608 1.325 . S
O639 Li577 1.961 . S
O639 Li578 1.970 1_554 S
O639 Li579 1.956 . S
O639 C614 1.325 . S
H640 C582 0.929 . S
H641 C583 0.930 . S
H642 C584 0.930 . S
H643 C585 0.930 . S
H644 C587 0.930 . S
H645 C589 0.929 . S
H646 C590 0.930 . S
H647 C591 0.930 . S
H648 C594 0.930 . S
H649 C597 0.929 . S
H650 C602 0.929 . S
H651 C603 0.930 . S
H652 C610 0.929 . S
H653 C611 0.930 . S
H654 C612 0.930 . S
H655 C613 0.930 . S
H656 C615 0.929 . S
H657 C616 0.930 . S
H658 C617 0.930 . S
H659 C618 0.930 . S
H660 C622 0.929 . S
H661 C624 0.930 . S
H662 C630 0.929 . S
H663 C631 0.930 . S
Li664 N681 1.990 . S
Li664 O724 1.956 . S
Li664 O725 1.970 . S
Li664 O726 1.961 . S
Li665 N689 1.990 . S
Li665 O724 1.970 . S
Li665 O725 1.956 . S
Li665 O727 1.961 . S
Li666 N711 1.990 . S
Li666 O724 1.961 . S
Li666 O726 1.956 . S
Li666 O727 1.970 . S
Li667 N717 1.990 . S
Li667 O725 1.961 . S
Li667 O726 1.970 . S
Li667 O727 1.956 . S
C668 C670 1.348 . S
C668 C671 1.356 . S
C668 O724 1.325 . S
N669 C672 1.314 . S
N669 C673 1.279 . S
C670 C668 1.348 . S
C670 C672 1.353 . S
C670 H728 0.929 . S
C671 C668 1.356 . S
C671 C673 1.358 . S
C671 H729 0.930 . S
C672 N669 1.314 . S
C672 C670 1.353 . S
C672 H730 0.930 . S
C673 N669 1.279 . S
C673 C671 1.358 . S
C673 H731 0.930 . S
C674 C677 1.348 . S
C674 C678 1.356 . S
C674 O725 1.325 . S
C675 N676 1.279 . S
C675 C678 1.358 . S
C675 H732 0.930 . S
N676 C675 1.279 . S
N676 C679 1.314 . S
C677 C674 1.348 . S
C677 C679 1.353 . S
C677 H733 0.929 . S
C678 C674 1.356 . S
C678 C675 1.358 . S
C678 H734 0.930 . S
C679 N676 1.314 . S
C679 C677 1.353 . S
C679 H735 0.930 . S
C680 N681 1.314 . S
C680 C685 1.353 . S
C680 H686 0.930 . S
N681 Li664 1.990 . S
N681 C680 1.314 . S
N681 C683 1.279 . S
C682 C683 1.358 . S
C682 C684 1.356 . S
C682 H736 0.930 . S
C683 N681 1.279 . S
C683 C682 1.358 . S
C683 H687 0.930 . S
C684 C682 1.356 . S
C684 C685 1.348 . S
C685 C680 1.353 . S
C685 C684 1.348 . S
C685 H737 0.929 . S
H686 C680 0.930 . S
H687 C683 0.930 . S
C688 N689 1.314 . S
C688 C690 1.353 . S
C688 H694 0.930 . S
N689 Li665 1.990 . S
N689 C688 1.314 . S
N689 C692 1.279 . S
C690 C688 1.353 . S
C690 C693 1.348 . S
C690 H738 0.929 . S
C691 C692 1.358 . S
C691 C693 1.356 . S
C691 H739 0.930 . S
C692 N689 1.279 . S
C692 C691 1.358 . S
C692 H695 0.930 . S
C693 C690 1.348 . S
C693 C691 1.356 . S
H694 C688 0.930 . S
H695 C692 0.930 . S
C696 C698 1.348 . S
C696 C699 1.356 . S
C696 O726 1.325 . S
N697 C700 1.314 . S
N697 C701 1.279 . S
C698 C696 1.348 . S
C698 C700 1.353 . S
C698 H740 0.929 . S
C699 C696 1.356 . S
C699 C701 1.358 . S
C699 H741 0.930 . S
C700 N697 1.314 . S
C700 C698 1.353 . S
C700 H742 0.930 . S
C701 N697 1.279 . S
C701 C699 1.358 . S
C701 H743 0.930 . S
C702 C703 1.348 . S
C702 C704 1.356 . S
C702 O727 1.325 . S
C703 C702 1.348 . S
C703 C705 1.353 . S
C703 H744 0.929 . S
C704 C702 1.356 . S
C704 C706 1.358 . S
C704 H745 0.930 . S
C705 C703 1.353 . S
C705 N707 1.314 . S
C705 H746 0.930 . S
C706 C704 1.358 . S
C706 N707 1.279 . S
C706 H747 0.930 . S
N707 C705 1.314 . S
N707 C706 1.279 . S
C708 C710 1.353 . S
C708 N711 1.314 . S
C708 H714 0.930 . S
C709 N711 1.279 . S
C709 C712 1.358 . S
C709 H715 0.930 . S
C710 C708 1.353 . S
C710 C713 1.348 . S
C710 H748 0.929 . S
N711 Li666 1.990 . S
N711 C708 1.314 . S
N711 C709 1.279 . S
C712 C709 1.358 . S
C712 C713 1.356 . S
C712 H749 0.930 . S
C713 C710 1.348 . S
C713 C712 1.356 . S
H714 C708 0.930 . S
H715 C709 0.930 . S
C716 N717 1.314 . S
C716 C718 1.353 . S
C716 H722 0.930 . S
N717 Li667 1.990 . S
N717 C716 1.314 . S
N717 C720 1.279 . S
C718 C716 1.353 . S
C718 C721 1.348 . S
C718 H750 0.929 . S
C719 C720 1.358 . S
C719 C721 1.356 . S
C719 H751 0.930 . S
C720 N717 1.279 . S
C720 C719 1.358 . S
C720 H723 0.930 . S
C721 C718 1.348 . S
C721 C719 1.356 . S
H722 C716 0.930 . S
H723 C720 0.930 . S
O724 Li664 1.956 . S
O724 Li665 1.970 . S
O724 Li666 1.961 . S
O724 C668 1.325 . S
O725 Li664 1.970 . S
O725 Li665 1.956 . S
O725 Li667 1.961 . S
O725 C674 1.325 . S
O726 Li664 1.961 . S
O726 Li666 1.956 . S
O726 Li667 1.970 . S
O726 C696 1.325 . S
O727 Li665 1.961 . S
O727 Li666 1.970 . S
O727 Li667 1.956 . S
O727 C702 1.325 . S
H728 C670 0.929 . S
H729 C671 0.930 . S
H730 C672 0.930 . S
H731 C673 0.930 . S
H732 C675 0.930 . S
H733 C677 0.929 . S
H734 C678 0.930 . S
H735 C679 0.930 . S
H736 C682 0.930 . S
H737 C685 0.929 . S
H738 C690 0.929 . S
H739 C691 0.930 . S
H740 C698 0.929 . S
H741 C699 0.930 . S
H742 C700 0.930 . S
H743 C701 0.930 . S
H744 C703 0.929 . S
H745 C704 0.930 . S
H746 C705 0.930 . S
H747 C706 0.930 . S
H748 C710 0.929 . S
H749 C712 0.930 . S
H750 C718 0.929 . S
H751 C719 0.930 . S
Li752 N769 1.990 . S
Li752 O812 1.956 . S
Li752 O813 1.970 1_556 S
Li752 O814 1.961 . S
Li753 N777 1.990 . S
Li753 O812 1.970 1_554 S
Li753 O813 1.956 . S
Li753 O815 1.961 . S
Li754 N799 1.990 . S
Li754 O812 1.961 . S
Li754 O814 1.956 . S
Li754 O815 1.970 1_556 S
Li755 N805 1.990 . S
Li755 O813 1.961 . S
Li755 O814 1.970 1_554 S
Li755 O815 1.956 . S
C756 C758 1.348 1_556 S
C756 C759 1.356 . S
C756 O812 1.325 . S
N757 C760 1.314 1_556 S
N757 C761 1.279 . S
C758 C756 1.348 1_554 S
C758 C760 1.353 . S
C758 H816 0.929 . S
C759 C756 1.356 . S
C759 C761 1.358 . S
C759 H817 0.930 . S
C760 N757 1.314 1_554 S
C760 C758 1.353 . S
C760 H818 0.930 . S
C761 N757 1.279 . S
C761 C759 1.358 . S
C761 H819 0.930 . S
C762 C765 1.348 . S
C762 C766 1.356 . S
C762 O813 1.325 . S
C763 N764 1.279 . S
C763 C766 1.358 . S
C763 H820 0.930 . S
N764 C763 1.279 . S
N764 C767 1.314 . S
C765 C762 1.348 . S
C765 C767 1.353 . S
C765 H821 0.929 . S
C766 C762 1.356 . S
C766 C763 1.358 . S
C766 H822 0.930 . S
C767 N764 1.314 . S
C767 C765 1.353 . S
C767 H823 0.930 . S
C768 N769 1.314 . S
C768 C773 1.353 . S
C768 H774 0.930 . S
N769 Li752 1.990 . S
N769 C768 1.314 . S
N769 C771 1.279 . S
C770 C771 1.358 . S
C770 C772 1.356 . S
C770 H824 0.930 . S
C771 N769 1.279 . S
C771 C770 1.358 . S
C771 H775 0.930 . S
C772 C770 1.356 . S
C772 C773 1.348 . S
C773 C768 1.353 . S
C773 C772 1.348 . S
C773 H825 0.929 . S
H774 C768 0.930 . S
H775 C771 0.930 . S
C776 N777 1.314 . S
C776 C778 1.353 . S
C776 H782 0.930 . S
N777 Li753 1.990 . S
N777 C776 1.314 . S
N777 C780 1.279 . S
C778 C776 1.353 . S
C778 C781 1.348 . S
C778 H826 0.929 . S
C779 C780 1.358 . S
C779 C781 1.356 . S
C779 H827 0.930 . S
C780 N777 1.279 . S
C780 C779 1.358 . S
C780 H783 0.930 . S
C781 C778 1.348 . S
C781 C779 1.356 . S
H782 C776 0.930 . S
H783 C780 0.930 . S
C784 C786 1.348 . S
C784 C787 1.356 . S
C784 O814 1.325 . S
N785 C788 1.314 . S
N785 C789 1.279 . S
C786 C784 1.348 . S
C786 C788 1.353 . S
C786 H828 0.929 . S
C787 C784 1.356 . S
C787 C789 1.358 . S
C787 H829 0.930 . S
C788 N785 1.314 . S
C788 C786 1.353 . S
C788 H830 0.930 . S
C789 N785 1.279 . S
C789 C787 1.358 . S
C789 H831 0.930 . S
C790 C791 1.348 1_554 S
C790 C792 1.356 . S
C790 O815 1.325 . S
C791 C790 1.348 1_556 S
C791 C793 1.353 . S
C791 H832 0.929 . S
C792 C790 1.356 . S
C792 C794 1.358 . S
C792 H833 0.930 . S
C793 C791 1.353 . S
C793 N795 1.314 1_556 S
C793 H834 0.930 . S
C794 C792 1.358 . S
C794 N795 1.279 . S
C794 H835 0.930 . S
N795 C793 1.314 1_554 S
N795 C794 1.279 . S
C796 C798 1.353 . S
C796 N799 1.314 . S
C796 H802 0.930 . S
C797 N799 1.279 . S
C797 C800 1.358 . S
C797 H803 0.930 . S
C798 C796 1.353 . S
C798 C801 1.348 . S
C798 H836 0.929 . S
N799 Li754 1.990 . S
N799 C796 1.314 . S
N799 C797 1.279 . S
C800 C797 1.358 . S
C800 C801 1.356 . S
C800 H837 0.930 . S
C801 C798 1.348 . S
C801 C800 1.356 . S
H802 C796 0.930 . S
H803 C797 0.930 . S
C804 N805 1.314 . S
C804 C806 1.353 . S
C804 H810 0.930 . S
N805 Li755 1.990 . S
N805 C804 1.314 . S
N805 C808 1.279 . S
C806 C804 1.353 . S
C806 C809 1.348 . S
C806 H838 0.929 . S
C807 C808 1.358 . S
C807 C809 1.356 . S
C807 H839 0.930 . S
C808 N805 1.279 . S
C808 C807 1.358 . S
C808 H811 0.930 . S
C809 C806 1.348 . S
C809 C807 1.356 . S
H810 C804 0.930 . S
H811 C808 0.930 . S
O812 Li752 1.956 . S
O812 Li753 1.970 1_556 S
O812 Li754 1.961 . S
O812 C756 1.325 . S
O813 Li752 1.970 1_554 S
O813 Li753 1.956 . S
O813 Li755 1.961 . S
O813 C762 1.325 . S
O814 Li752 1.961 . S
O814 Li754 1.956 . S
O814 Li755 1.970 1_556 S
O814 C784 1.325 . S
O815 Li753 1.961 . S
O815 Li754 1.970 1_554 S
O815 Li755 1.956 . S
O815 C790 1.325 . S
H816 C758 0.929 . S
H817 C759 0.930 . S
H818 C760 0.930 . S
H819 C761 0.930 . S
H820 C763 0.930 . S
H821 C765 0.929 . S
H822 C766 0.930 . S
H823 C767 0.930 . S
H824 C770 0.930 . S
H825 C773 0.929 . S
H826 C778 0.929 . S
H827 C779 0.930 . S
H828 C786 0.929 . S
H829 C787 0.930 . S
H830 C788 0.930 . S
H831 C789 0.930 . S
H832 C791 0.929 . S
H833 C792 0.930 . S
H834 C793 0.930 . S
H835 C794 0.930 . S
H836 C798 0.929 . S
H837 C800 0.930 . S
H838 C806 0.929 . S
H839 C807 0.930 . S
Li840 N857 1.990 . S
Li840 O900 1.956 . S
Li840 O901 1.970 1_545 S
Li840 O902 1.961 . S
Li841 N865 1.990 . S
Li841 O900 1.970 1_565 S
Li841 O901 1.956 . S
Li841 O903 1.961 . S
Li842 N887 1.990 . S
Li842 O900 1.961 . S
Li842 O902 1.956 . S
Li842 O903 1.970 1_545 S
Li843 N893 1.990 . S
Li843 O901 1.961 . S
Li843 O902 1.970 1_565 S
Li843 O903 1.956 . S
C844 C846 1.348 . S
C844 C847 1.356 . S
C844 O900 1.325 . S
N845 C848 1.314 . S
N845 C849 1.279 . S
C846 C844 1.348 . S
C846 C848 1.353 . S
C846 H904 0.929 . S
C847 C844 1.356 . S
C847 C849 1.358 . S
C847 H905 0.930 . S
C848 N845 1.314 . S
C848 C846 1.353 . S
C848 H906 0.930 . S
C849 N845 1.279 . S
C849 C847 1.358 . S
C849 H907 0.930 . S
C850 C853 1.348 1_565 S
C850 C854 1.356 . S
C850 O901 1.325 . S
C851 N852 1.279 . S
C851 C854 1.358 . S
C851 H908 0.930 . S
N852 C851 1.279 . S
N852 C855 1.314 1_565 S
C853 C850 1.348 1_545 S
C853 C855 1.353 . S
C853 H909 0.929 . S
C854 C850 1.356 . S
C854 C851 1.358 . S
C854 H910 0.930 . S
C855 N852 1.314 1_545 S
C855 C853 1.353 . S
C855 H911 0.930 . S
C856 N857 1.314 . S
C856 C861 1.353 . S
C856 H862 0.930 . S
N857 Li840 1.990 . S
N857 C856 1.314 . S
N857 C859 1.279 . S
C858 C859 1.358 . S
C858 C860 1.356 . S
C858 H912 0.930 . S
C859 N857 1.279 . S
C859 C858 1.358 . S
C859 H863 0.930 . S
C860 C858 1.356 . S
C860 C861 1.348 . S
C861 C856 1.353 . S
C861 C860 1.348 . S
C861 H913 0.929 . S
H862 C856 0.930 . S
H863 C859 0.930 . S
C864 N865 1.314 . S
C864 C866 1.353 . S
C864 H870 0.930 . S
N865 Li841 1.990 . S
N865 C864 1.314 . S
N865 C868 1.279 . S
C866 C864 1.353 . S
C866 C869 1.348 . S
C866 H914 0.929 . S
C867 C868 1.358 . S
C867 C869 1.356 . S
C867 H915 0.930 . S
C868 N865 1.279 . S
C868 C867 1.358 . S
C868 H871 0.930 . S
C869 C866 1.348 . S
C869 C867 1.356 . S
H870 C864 0.930 . S
H871 C868 0.930 . S
C872 C874 1.348 1_545 S
C872 C875 1.356 . S
C872 O902 1.325 . S
N873 C876 1.314 1_545 S
N873 C877 1.279 . S
C874 C872 1.348 1_565 S
C874 C876 1.353 . S
C874 H916 0.929 . S
C875 C872 1.356 . S
C875 C877 1.358 . S
C875 H917 0.930 . S
C876 N873 1.314 1_565 S
C876 C874 1.353 . S
C876 H918 0.930 . S
C877 N873 1.279 . S
C877 C875 1.358 . S
C877 H919 0.930 . S
C878 C879 1.348 . S
C878 C880 1.356 . S
C878 O903 1.325 . S
C879 C878 1.348 . S
C879 C881 1.353 . S
C879 H920 0.929 . S
C880 C878 1.356 . S
C880 C882 1.358 . S
C880 H921 0.930 . S
C881 C879 1.353 . S
C881 N883 1.314 . S
C881 H922 0.930 . S
C882 C880 1.358 . S
C882 N883 1.279 . S
C882 H923 0.930 . S
N883 C881 1.314 . S
N883 C882 1.279 . S
C884 C886 1.353 . S
C884 N887 1.314 . S
C884 H890 0.930 . S
C885 N887 1.279 . S
C885 C888 1.358 . S
C885 H891 0.930 . S
C886 C884 1.353 . S
C886 C889 1.348 . S
C886 H924 0.929 . S
N887 Li842 1.990 . S
N887 C884 1.314 . S
N887 C885 1.279 . S
C888 C885 1.358 . S
C888 C889 1.356 . S
C888 H925 0.930 . S
C889 C886 1.348 . S
C889 C888 1.356 . S
H890 C884 0.930 . S
H891 C885 0.930 . S
C892 N893 1.314 . S
C892 C894 1.353 . S
C892 H898 0.930 . S
N893 Li843 1.990 . S
N893 C892 1.314 . S
N893 C896 1.279 . S
C894 C892 1.353 . S
C894 C897 1.348 . S
C894 H926 0.929 . S
C895 C896 1.358 . S
C895 C897 1.356 . S
C895 H927 0.930 . S
C896 N893 1.279 . S
C896 C895 1.358 . S
C896 H899 0.930 . S
C897 C894 1.348 . S
C897 C895 1.356 . S
H898 C892 0.930 . S
H899 C896 0.930 . S
O900 Li840 1.956 . S
O900 Li841 1.970 1_545 S
O900 Li842 1.961 . S
O900 C844 1.325 . S
O901 Li840 1.970 1_565 S
O901 Li841 1.956 . S
O901 Li843 1.961 . S
O901 C850 1.325 . S
O902 Li840 1.961 . S
O902 Li842 1.956 . S
O902 Li843 1.970 1_545 S
O902 C872 1.325 . S
O903 Li841 1.961 . S
O903 Li842 1.970 1_565 S
O903 Li843 1.956 . S
O903 C878 1.325 . S
H904 C846 0.929 . S
H905 C847 0.930 . S
H906 C848 0.930 . S
H907 C849 0.930 . S
H908 C851 0.930 . S
H909 C853 0.929 . S
H910 C854 0.930 . S
H911 C855 0.930 . S
H912 C858 0.930 . S
H913 C861 0.929 . S
H914 C866 0.929 . S
H915 C867 0.930 . S
H916 C874 0.929 . S
H917 C875 0.930 . S
H918 C876 0.930 . S
H919 C877 0.930 . S
H920 C879 0.929 . S
H921 C880 0.930 . S
H922 C881 0.930 . S
H923 C882 0.930 . S
H924 C886 0.929 . S
H925 C888 0.930 . S
H926 C894 0.929 . S
H927 C895 0.930 . S
Li928 N945 1.990 . S
Li928 O988 1.956 . S
Li928 O989 1.970 . S
Li928 O990 1.961 . S
Li929 N953 1.990 . S
Li929 O988 1.970 . S
Li929 O989 1.956 . S
Li929 O991 1.961 . S
Li930 N975 1.990 . S
Li930 O988 1.961 . S
Li930 O990 1.956 . S
Li930 O991 1.970 . S
Li931 N981 1.990 . S
Li931 O989 1.961 . S
Li931 O990 1.970 . S
Li931 O991 1.956 . S
C932 C934 1.348 . S
C932 C935 1.356 . S
C932 O988 1.325 . S
N933 C936 1.314 . S
N933 C937 1.279 . S
C934 C932 1.348 . S
C934 C936 1.353 . S
C934 H992 0.929 . S
C935 C932 1.356 . S
C935 C937 1.358 . S
C935 H993 0.930 . S
C936 N933 1.314 . S
C936 C934 1.353 . S
C936 H994 0.930 . S
C937 N933 1.279 . S
C937 C935 1.358 . S
C937 H995 0.930 . S
C938 C941 1.348 . S
C938 C942 1.356 . S
C938 O989 1.325 . S
C939 N940 1.279 . S
C939 C942 1.358 . S
C939 H996 0.930 . S
N940 C939 1.279 . S
N940 C943 1.314 . S
C941 C938 1.348 . S
C941 C943 1.353 . S
C941 H997 0.929 . S
C942 C938 1.356 . S
C942 C939 1.358 . S
C942 H998 0.930 . S
C943 N940 1.314 . S
C943 C941 1.353 . S
C943 H999 0.930 . S
C944 N945 1.314 . S
C944 C949 1.353 . S
C944 H950 0.930 . S
N945 Li928 1.990 . S
N945 C944 1.314 . S
N945 C947 1.279 . S
C946 C947 1.358 . S
C946 C948 1.356 . S
C946 H1000 0.930 . S
C947 N945 1.279 . S
C947 C946 1.358 . S
C947 H951 0.930 . S
C948 C946 1.356 . S
C948 C949 1.348 . S
C949 C944 1.353 . S
C949 C948 1.348 . S
C949 H1001 0.929 . S
H950 C944 0.930 . S
H951 C947 0.930 . S
C952 N953 1.314 . S
C952 C954 1.353 . S
C952 H958 0.930 . S
N953 Li929 1.990 . S
N953 C952 1.314 . S
N953 C956 1.279 . S
C954 C952 1.353 . S
C954 C957 1.348 . S
C954 H1002 0.929 . S
C955 C956 1.358 . S
C955 C957 1.356 . S
C955 H1003 0.930 . S
C956 N953 1.279 . S
C956 C955 1.358 . S
C956 H959 0.930 . S
C957 C954 1.348 . S
C957 C955 1.356 . S
H958 C952 0.930 . S
H959 C956 0.930 . S
C960 C962 1.348 . S
C960 C963 1.356 . S
C960 O990 1.325 . S
N961 C964 1.314 . S
N961 C965 1.279 . S
C962 C960 1.348 . S
C962 C964 1.353 . S
C962 H1004 0.929 . S
C963 C960 1.356 . S
C963 C965 1.358 . S
C963 H1005 0.930 . S
C964 N961 1.314 . S
C964 C962 1.353 . S
C964 H1006 0.930 . S
C965 N961 1.279 . S
C965 C963 1.358 . S
C965 H1007 0.930 . S
C966 C967 1.348 . S
C966 C968 1.356 . S
C966 O991 1.325 . S
C967 C966 1.348 . S
C967 C969 1.353 . S
C967 H1008 0.929 . S
C968 C966 1.356 . S
C968 C970 1.358 . S
C968 H1009 0.930 . S
C969 C967 1.353 . S
C969 N971 1.314 . S
C969 H1010 0.930 . S
C970 C968 1.358 . S
C970 N971 1.279 . S
C970 H1011 0.930 . S
N971 C969 1.314 . S
N971 C970 1.279 . S
C972 C974 1.353 . S
C972 N975 1.314 . S
C972 H978 0.930 . S
C973 N975 1.279 . S
C973 C976 1.358 . S
C973 H979 0.930 . S
C974 C972 1.353 . S
C974 C977 1.348 . S
C974 H1012 0.929 . S
N975 Li930 1.990 . S
N975 C972 1.314 . S
N975 C973 1.279 . S
C976 C973 1.358 . S
C976 C977 1.356 . S
C976 H1013 0.930 . S
C977 C974 1.348 . S
C977 C976 1.356 . S
H978 C972 0.930 . S
H979 C973 0.930 . S
C980 N981 1.314 . S
C980 C982 1.353 . S
C980 H986 0.930 . S
N981 Li931 1.990 . S
N981 C980 1.314 . S
N981 C984 1.279 . S
C982 C980 1.353 . S
C982 C985 1.348 . S
C982 H1014 0.929 . S
C983 C984 1.358 . S
C983 C985 1.356 . S
C983 H1015 0.930 . S
C984 N981 1.279 . S
C984 C983 1.358 . S
C984 H987 0.930 . S
C985 C982 1.348 . S
C985 C983 1.356 . S
H986 C980 0.930 . S
H987 C984 0.930 . S
O988 Li928 1.956 . S
O988 Li929 1.970 . S
O988 Li930 1.961 . S
O988 C932 1.325 . S
O989 Li928 1.970 . S
O989 Li929 1.956 . S
O989 Li931 1.961 . S
O989 C938 1.325 . S
O990 Li928 1.961 . S
O990 Li930 1.956 . S
O990 Li931 1.970 . S
O990 C960 1.325 . S
O991 Li929 1.961 . S
O991 Li930 1.970 . S
O991 Li931 1.956 . S
O991 C966 1.325 . S
H992 C934 0.929 . S
H993 C935 0.930 . S
H994 C936 0.930 . S
H995 C937 0.930 . S
H996 C939 0.930 . S
H997 C941 0.929 . S
H998 C942 0.930 . S
H999 C943 0.930 . S
H1000 C946 0.930 . S
H1001 C949 0.929 . S
H1002 C954 0.929 . S
H1003 C955 0.930 . S
H1004 C962 0.929 . S
H1005 C963 0.930 . S
H1006 C964 0.930 . S
H1007 C965 0.930 . S
H1008 C967 0.929 . S
H1009 C968 0.930 . S
H1010 C969 0.930 . S
H1011 C970 0.930 . S
H1012 C974 0.929 . S
H1013 C976 0.930 . S
H1014 C982 0.929 . S
H1015 C983 0.930 . S
Li1016 N1033 1.990 . S
Li1016 O1076 1.956 . S
Li1016 O1077 1.970 . S
Li1016 O1078 1.961 . S
Li1017 N1041 1.990 . S
Li1017 O1076 1.970 . S
Li1017 O1077 1.956 . S
Li1017 O1079 1.961 . S
Li1018 N1063 1.990 . S
Li1018 O1076 1.961 . S
Li1018 O1078 1.956 . S
Li1018 O1079 1.970 . S
Li1019 N1069 1.990 . S
Li1019 O1077 1.961 . S
Li1019 O1078 1.970 . S
Li1019 O1079 1.956 . S
C1020 C1022 1.348 . S
C1020 C1023 1.356 . S
C1020 O1076 1.325 . S
N1021 C1024 1.314 . S
N1021 C1025 1.279 . S
C1022 C1020 1.348 . S
C1022 C1024 1.353 . S
C1022 H1080 0.929 . S
C1023 C1020 1.356 . S
C1023 C1025 1.358 . S
C1023 H1081 0.930 . S
C1024 N1021 1.314 . S
C1024 C1022 1.353 . S
C1024 H1082 0.930 . S
C1025 N1021 1.279 . S
C1025 C1023 1.358 . S
C1025 H1083 0.930 . S
C1026 C1029 1.348 . S
C1026 C1030 1.356 . S
C1026 O1077 1.325 . S
C1027 N1028 1.279 . S
C1027 C1030 1.358 . S
C1027 H1084 0.930 . S
N1028 C1027 1.279 . S
N1028 C1031 1.314 . S
C1029 C1026 1.348 . S
C1029 C1031 1.353 . S
C1029 H1085 0.929 . S
C1030 C1026 1.356 . S
C1030 C1027 1.358 . S
C1030 H1086 0.930 . S
C1031 N1028 1.314 . S
C1031 C1029 1.353 . S
C1031 H1087 0.930 . S
C1032 N1033 1.314 . S
C1032 C1037 1.353 . S
C1032 H1038 0.930 . S
N1033 Li1016 1.990 . S
N1033 C1032 1.314 . S
N1033 C1035 1.279 . S
C1034 C1035 1.358 . S
C1034 C1036 1.356 . S
C1034 H1088 0.930 . S
C1035 N1033 1.279 . S
C1035 C1034 1.358 . S
C1035 H1039 0.930 . S
C1036 C1034 1.356 . S
C1036 C1037 1.348 . S
C1037 C1032 1.353 . S
C1037 C1036 1.348 . S
C1037 H1089 0.929 . S
H1038 C1032 0.930 . S
H1039 C1035 0.930 . S
C1040 N1041 1.314 . S
C1040 C1042 1.353 . S
C1040 H1046 0.930 . S
N1041 Li1017 1.990 . S
N1041 C1040 1.314 . S
N1041 C1044 1.279 . S
C1042 C1040 1.353 . S
C1042 C1045 1.348 . S
C1042 H1090 0.929 . S
C1043 C1044 1.358 . S
C1043 C1045 1.356 . S
C1043 H1091 0.930 . S
C1044 N1041 1.279 . S
C1044 C1043 1.358 . S
C1044 H1047 0.930 . S
C1045 C1042 1.348 . S
C1045 C1043 1.356 . S
H1046 C1040 0.930 . S
H1047 C1044 0.930 . S
C1048 C1050 1.348 . S
C1048 C1051 1.356 . S
C1048 O1078 1.325 . S
N1049 C1052 1.314 . S
N1049 C1053 1.279 . S
C1050 C1048 1.348 . S
C1050 C1052 1.353 . S
C1050 H1092 0.929 . S
C1051 C1048 1.356 . S
C1051 C1053 1.358 . S
C1051 H1093 0.930 . S
C1052 N1049 1.314 . S
C1052 C1050 1.353 . S
C1052 H1094 0.930 . S
C1053 N1049 1.279 . S
C1053 C1051 1.358 . S
C1053 H1095 0.930 . S
C1054 C1055 1.348 . S
C1054 C1056 1.356 . S
C1054 O1079 1.325 . S
C1055 C1054 1.348 . S
C1055 C1057 1.353 . S
C1055 H1096 0.929 . S
C1056 C1054 1.356 . S
C1056 C1058 1.358 . S
C1056 H1097 0.930 . S
C1057 C1055 1.353 . S
C1057 N1059 1.314 . S
C1057 H1098 0.930 . S
C1058 C1056 1.358 . S
C1058 N1059 1.279 . S
C1058 H1099 0.930 . S
N1059 C1057 1.314 . S
N1059 C1058 1.279 . S
C1060 C1062 1.353 . S
C1060 N1063 1.314 . S
C1060 H1066 0.930 . S
C1061 N1063 1.279 . S
C1061 C1064 1.358 . S
C1061 H1067 0.930 . S
C1062 C1060 1.353 . S
C1062 C1065 1.348 . S
C1062 H1100 0.929 . S
N1063 Li1018 1.990 . S
N1063 C1060 1.314 . S
N1063 C1061 1.279 . S
C1064 C1061 1.358 . S
C1064 C1065 1.356 . S
C1064 H1101 0.930 . S
C1065 C1062 1.348 . S
C1065 C1064 1.356 . S
H1066 C1060 0.930 . S
H1067 C1061 0.930 . S
C1068 N1069 1.314 . S
C1068 C1070 1.353 . S
C1068 H1074 0.930 . S
N1069 Li1019 1.990 . S
N1069 C1068 1.314 . S
N1069 C1072 1.279 . S
C1070 C1068 1.353 . S
C1070 C1073 1.348 . S
C1070 H1102 0.929 . S
C1071 C1072 1.358 . S
C1071 C1073 1.356 . S
C1071 H1103 0.930 . S
C1072 N1069 1.279 . S
C1072 C1071 1.358 . S
C1072 H1075 0.930 . S
C1073 C1070 1.348 . S
C1073 C1071 1.356 . S
H1074 C1068 0.930 . S
H1075 C1072 0.930 . S
O1076 Li1016 1.956 . S
O1076 Li1017 1.970 . S
O1076 Li1018 1.961 . S
O1076 C1020 1.325 . S
O1077 Li1016 1.970 . S
O1077 Li1017 1.956 . S
O1077 Li1019 1.961 . S
O1077 C1026 1.325 . S
O1078 Li1016 1.961 . S
O1078 Li1018 1.956 . S
O1078 Li1019 1.970 . S
O1078 C1048 1.325 . S
O1079 Li1017 1.961 . S
O1079 Li1018 1.970 . S
O1079 Li1019 1.956 . S
O1079 C1054 1.325 . S
H1080 C1022 0.929 . S
H1081 C1023 0.930 . S
H1082 C1024 0.930 . S
H1083 C1025 0.930 . S
H1084 C1027 0.930 . S
H1085 C1029 0.929 . S
H1086 C1030 0.930 . S
H1087 C1031 0.930 . S
H1088 C1034 0.930 . S
H1089 C1037 0.929 . S
H1090 C1042 0.929 . S
H1091 C1043 0.930 . S
H1092 C1050 0.929 . S
H1093 C1051 0.930 . S
H1094 C1052 0.930 . S
H1095 C1053 0.930 . S
H1096 C1055 0.929 . S
H1097 C1056 0.930 . S
H1098 C1057 0.930 . S
H1099 C1058 0.930 . S
H1100 C1062 0.929 . S
H1101 C1064 0.930 . S
H1102 C1070 0.929 . S
H1103 C1071 0.930 . S
Li1104 N1121 1.990 . S
Li1104 O1164 1.956 . S
Li1104 O1165 1.970 . S
Li1104 O1166 1.961 . S
Li1105 N1129 1.990 . S
Li1105 O1164 1.970 . S
Li1105 O1165 1.956 . S
Li1105 O1167 1.961 . S
Li1106 N1151 1.990 . S
Li1106 O1164 1.961 . S
Li1106 O1166 1.956 . S
Li1106 O1167 1.970 . S
Li1107 N1157 1.990 . S
Li1107 O1165 1.961 . S
Li1107 O1166 1.970 . S
Li1107 O1167 1.956 . S
C1108 C1110 1.348 . S
C1108 C1111 1.356 . S
C1108 O1164 1.325 . S
N1109 C1112 1.314 . S
N1109 C1113 1.279 . S
C1110 C1108 1.348 . S
C1110 C1112 1.353 . S
C1110 H1168 0.929 . S
C1111 C1108 1.356 . S
C1111 C1113 1.358 . S
C1111 H1169 0.930 . S
C1112 N1109 1.314 . S
C1112 C1110 1.353 . S
C1112 H1170 0.930 . S
C1113 N1109 1.279 . S
C1113 C1111 1.358 . S
C1113 H1171 0.930 . S
C1114 C1117 1.348 . S
C1114 C1118 1.356 . S
C1114 O1165 1.325 . S
C1115 N1116 1.279 . S
C1115 C1118 1.358 . S
C1115 H1172 0.930 . S
N1116 C1115 1.279 . S
N1116 C1119 1.314 . S
C1117 C1114 1.348 . S
C1117 C1119 1.353 . S
C1117 H1173 0.929 . S
C1118 C1114 1.356 . S
C1118 C1115 1.358 . S
C1118 H1174 0.930 . S
C1119 N1116 1.314 . S
C1119 C1117 1.353 . S
C1119 H1175 0.930 . S
C1120 N1121 1.314 . S
C1120 C1125 1.353 . S
C1120 H1126 0.930 . S
N1121 Li1104 1.990 . S
N1121 C1120 1.314 . S
N1121 C1123 1.279 . S
C1122 C1123 1.358 . S
C1122 C1124 1.356 . S
C1122 H1176 0.930 . S
C1123 N1121 1.279 . S
C1123 C1122 1.358 . S
C1123 H1127 0.930 . S
C1124 C1122 1.356 . S
C1124 C1125 1.348 . S
C1125 C1120 1.353 . S
C1125 C1124 1.348 . S
C1125 H1177 0.929 . S
H1126 C1120 0.930 . S
H1127 C1123 0.930 . S
C1128 N1129 1.314 . S
C1128 C1130 1.353 . S
C1128 H1134 0.930 . S
N1129 Li1105 1.990 . S
N1129 C1128 1.314 . S
N1129 C1132 1.279 . S
C1130 C1128 1.353 . S
C1130 C1133 1.348 . S
C1130 H1178 0.929 . S
C1131 C1132 1.358 . S
C1131 C1133 1.356 . S
C1131 H1179 0.930 . S
C1132 N1129 1.279 . S
C1132 C1131 1.358 . S
C1132 H1135 0.930 . S
C1133 C1130 1.348 . S
C1133 C1131 1.356 . S
H1134 C1128 0.930 . S
H1135 C1132 0.930 . S
C1136 C1138 1.348 . S
C1136 C1139 1.356 . S
C1136 O1166 1.325 . S
N1137 C1140 1.314 . S
N1137 C1141 1.279 . S
C1138 C1136 1.348 . S
C1138 C1140 1.353 . S
C1138 H1180 0.929 . S
C1139 C1136 1.356 . S
C1139 C1141 1.358 . S
C1139 H1181 0.930 . S
C1140 N1137 1.314 . S
C1140 C1138 1.353 . S
C1140 H1182 0.930 . S
C1141 N1137 1.279 . S
C1141 C1139 1.358 . S
C1141 H1183 0.930 . S
C1142 C1143 1.348 . S
C1142 C1144 1.356 . S
C1142 O1167 1.325 . S
C1143 C1142 1.348 . S
C1143 C1145 1.353 . S
C1143 H1184 0.929 . S
C1144 C1142 1.356 . S
C1144 C1146 1.358 . S
C1144 H1185 0.930 . S
C1145 C1143 1.353 . S
C1145 N1147 1.314 . S
C1145 H1186 0.930 . S
C1146 C1144 1.358 . S
C1146 N1147 1.279 . S
C1146 H1187 0.930 . S
N1147 C1145 1.314 . S
N1147 C1146 1.279 . S
C1148 C1150 1.353 . S
C1148 N1151 1.314 . S
C1148 H1154 0.930 . S
C1149 N1151 1.279 . S
C1149 C1152 1.358 . S
C1149 H1155 0.930 . S
C1150 C1148 1.353 . S
C1150 C1153 1.348 . S
C1150 H1188 0.929 . S
N1151 Li1106 1.990 . S
N1151 C1148 1.314 . S
N1151 C1149 1.279 . S
C1152 C1149 1.358 . S
C1152 C1153 1.356 . S
C1152 H1189 0.930 . S
C1153 C1150 1.348 . S
C1153 C1152 1.356 . S
H1154 C1148 0.930 . S
H1155 C1149 0.930 . S
C1156 N1157 1.314 . S
C1156 C1158 1.353 . S
C1156 H1162 0.930 . S
N1157 Li1107 1.990 . S
N1157 C1156 1.314 . S
N1157 C1160 1.279 . S
C1158 C1156 1.353 . S
C1158 C1161 1.348 . S
C1158 H1190 0.929 . S
C1159 C1160 1.358 . S
C1159 C1161 1.356 . S
C1159 H1191 0.930 . S
C1160 N1157 1.279 . S
C1160 C1159 1.358 . S
C1160 H1163 0.930 . S
C1161 C1158 1.348 . S
C1161 C1159 1.356 . S
H1162 C1156 0.930 . S
H1163 C1160 0.930 . S
O1164 Li1104 1.956 . S
O1164 Li1105 1.970 . S
O1164 Li1106 1.961 . S
O1164 C1108 1.325 . S
O1165 Li1104 1.970 . S
O1165 Li1105 1.956 . S
O1165 Li1107 1.961 . S
O1165 C1114 1.325 . S
O1166 Li1104 1.961 . S
O1166 Li1106 1.956 . S
O1166 Li1107 1.970 . S
O1166 C1136 1.325 . S
O1167 Li1105 1.961 . S
O1167 Li1106 1.970 . S
O1167 Li1107 1.956 . S
O1167 C1142 1.325 . S
H1168 C1110 0.929 . S
H1169 C1111 0.930 . S
H1170 C1112 0.930 . S
H1171 C1113 0.930 . S
H1172 C1115 0.930 . S
H1173 C1117 0.929 . S
H1174 C1118 0.930 . S
H1175 C1119 0.930 . S
H1176 C1122 0.930 . S
H1177 C1125 0.929 . S
H1178 C1130 0.929 . S
H1179 C1131 0.930 . S
H1180 C1138 0.929 . S
H1181 C1139 0.930 . S
H1182 C1140 0.930 . S
H1183 C1141 0.930 . S
H1184 C1143 0.929 . S
H1185 C1144 0.930 . S
H1186 C1145 0.930 . S
H1187 C1146 0.930 . S
H1188 C1150 0.929 . S
H1189 C1152 0.930 . S
H1190 C1158 0.929 . S
H1191 C1159 0.930 . S
Li1192 N1209 1.990 . S
Li1192 O1252 1.956 . S
Li1192 O1253 1.970 1_565 S
Li1192 O1254 1.961 . S
Li1193 N1217 1.990 . S
Li1193 O1252 1.970 1_545 S
Li1193 O1253 1.956 . S
Li1193 O1255 1.961 . S
Li1194 N1239 1.990 . S
Li1194 O1252 1.961 . S
Li1194 O1254 1.956 . S
Li1194 O1255 1.970 1_565 S
Li1195 N1245 1.990 . S
Li1195 O1253 1.961 . S
Li1195 O1254 1.970 1_545 S
Li1195 O1255 1.956 . S
C1196 C1198 1.348 . S
C1196 C1199 1.356 . S
C1196 O1252 1.325 . S
N1197 C1200 1.314 . S
N1197 C1201 1.279 . S
C1198 C1196 1.348 . S
C1198 C1200 1.353 . S
C1198 H1256 0.929 . S
C1199 C1196 1.356 . S
C1199 C1201 1.358 . S
C1199 H1257 0.930 . S
C1200 N1197 1.314 . S
C1200 C1198 1.353 . S
C1200 H1258 0.930 . S
C1201 N1197 1.279 . S
C1201 C1199 1.358 . S
C1201 H1259 0.930 . S
C1202 C1205 1.348 1_545 S
C1202 C1206 1.356 . S
C1202 O1253 1.325 . S
C1203 N1204 1.279 . S
C1203 C1206 1.358 . S
C1203 H1260 0.930 . S
N1204 C1203 1.279 . S
N1204 C1207 1.314 1_545 S
C1205 C1202 1.348 1_565 S
C1205 C1207 1.353 . S
C1205 H1261 0.929 . S
C1206 C1202 1.356 . S
C1206 C1203 1.358 . S
C1206 H1262 0.930 . S
C1207 N1204 1.314 1_565 S
C1207 C1205 1.353 . S
C1207 H1263 0.930 . S
C1208 N1209 1.314 . S
C1208 C1213 1.353 . S
C1208 H1214 0.930 . S
N1209 Li1192 1.990 . S
N1209 C1208 1.314 . S
N1209 C1211 1.279 . S
C1210 C1211 1.358 . S
C1210 C1212 1.356 . S
C1210 H1264 0.930 . S
C1211 N1209 1.279 . S
C1211 C1210 1.358 . S
C1211 H1215 0.930 . S
C1212 C1210 1.356 . S
C1212 C1213 1.348 . S
C1213 C1208 1.353 . S
C1213 C1212 1.348 . S
C1213 H1265 0.929 . S
H1214 C1208 0.930 . S
H1215 C1211 0.930 . S
C1216 N1217 1.314 . S
C1216 C1218 1.353 . S
C1216 H1222 0.930 . S
N1217 Li1193 1.990 . S
N1217 C1216 1.314 . S
N1217 C1220 1.279 . S
C1218 C1216 1.353 . S
C1218 C1221 1.348 . S
C1218 H1266 0.929 . S
C1219 C1220 1.358 . S
C1219 C1221 1.356 . S
C1219 H1267 0.930 . S
C1220 N1217 1.279 . S
C1220 C1219 1.358 . S
C1220 H1223 0.930 . S
C1221 C1218 1.348 . S
C1221 C1219 1.356 . S
H1222 C1216 0.930 . S
H1223 C1220 0.930 . S
C1224 C1226 1.348 1_565 S
C1224 C1227 1.356 . S
C1224 O1254 1.325 . S
N1225 C1228 1.314 1_565 S
N1225 C1229 1.279 . S
C1226 C1224 1.348 1_545 S
C1226 C1228 1.353 . S
C1226 H1268 0.929 . S
C1227 C1224 1.356 . S
C1227 C1229 1.358 . S
C1227 H1269 0.930 . S
C1228 N1225 1.314 1_545 S
C1228 C1226 1.353 . S
C1228 H1270 0.930 . S
C1229 N1225 1.279 . S
C1229 C1227 1.358 . S
C1229 H1271 0.930 . S
C1230 C1231 1.348 . S
C1230 C1232 1.356 . S
C1230 O1255 1.325 . S
C1231 C1230 1.348 . S
C1231 C1233 1.353 . S
C1231 H1272 0.929 . S
C1232 C1230 1.356 . S
C1232 C1234 1.358 . S
C1232 H1273 0.930 . S
C1233 C1231 1.353 . S
C1233 N1235 1.314 . S
C1233 H1274 0.930 . S
C1234 C1232 1.358 . S
C1234 N1235 1.279 . S
C1234 H1275 0.930 . S
N1235 C1233 1.314 . S
N1235 C1234 1.279 . S
C1236 C1238 1.353 . S
C1236 N1239 1.314 . S
C1236 H1242 0.930 . S
C1237 N1239 1.279 . S
C1237 C1240 1.358 . S
C1237 H1243 0.930 . S
C1238 C1236 1.353 . S
C1238 C1241 1.348 . S
C1238 H1276 0.929 . S
N1239 Li1194 1.990 . S
N1239 C1236 1.314 . S
N1239 C1237 1.279 . S
C1240 C1237 1.358 . S
C1240 C1241 1.356 . S
C1240 H1277 0.930 . S
C1241 C1238 1.348 . S
C1241 C1240 1.356 . S
H1242 C1236 0.930 . S
H1243 C1237 0.930 . S
C1244 N1245 1.314 . S
C1244 C1246 1.353 . S
C1244 H1250 0.930 . S
N1245 Li1195 1.990 . S
N1245 C1244 1.314 . S
N1245 C1248 1.279 . S
C1246 C1244 1.353 . S
C1246 C1249 1.348 . S
C1246 H1278 0.929 . S
C1247 C1248 1.358 . S
C1247 C1249 1.356 . S
C1247 H1279 0.930 . S
C1248 N1245 1.279 . S
C1248 C1247 1.358 . S
C1248 H1251 0.930 . S
C1249 C1246 1.348 . S
C1249 C1247 1.356 . S
H1250 C1244 0.930 . S
H1251 C1248 0.930 . S
O1252 Li1192 1.956 . S
O1252 Li1193 1.970 1_565 S
O1252 Li1194 1.961 . S
O1252 C1196 1.325 . S
O1253 Li1192 1.970 1_545 S
O1253 Li1193 1.956 . S
O1253 Li1195 1.961 . S
O1253 C1202 1.325 . S
O1254 Li1192 1.961 . S
O1254 Li1194 1.956 . S
O1254 Li1195 1.970 1_565 S
O1254 C1224 1.325 . S
O1255 Li1193 1.961 . S
O1255 Li1194 1.970 1_545 S
O1255 Li1195 1.956 . S
O1255 C1230 1.325 . S
H1256 C1198 0.929 . S
H1257 C1199 0.930 . S
H1258 C1200 0.930 . S
H1259 C1201 0.930 . S
H1260 C1203 0.930 . S
H1261 C1205 0.929 . S
H1262 C1206 0.930 . S
H1263 C1207 0.930 . S
H1264 C1210 0.930 . S
H1265 C1213 0.929 . S
H1266 C1218 0.929 . S
H1267 C1219 0.930 . S
H1268 C1226 0.929 . S
H1269 C1227 0.930 . S
H1270 C1228 0.930 . S
H1271 C1229 0.930 . S
H1272 C1231 0.929 . S
H1273 C1232 0.930 . S
H1274 C1233 0.930 . S
H1275 C1234 0.930 . S
H1276 C1238 0.929 . S
H1277 C1240 0.930 . S
H1278 C1246 0.929 . S
H1279 C1247 0.930 . S
Li1280 N1297 1.990 . S
Li1280 O1340 1.956 . S
Li1280 O1341 1.970 1_455 S
Li1280 O1342 1.961 . S
Li1281 N1305 1.990 . S
Li1281 O1340 1.970 1_655 S
Li1281 O1341 1.956 . S
Li1281 O1343 1.961 . S
Li1282 N1327 1.990 . S
Li1282 O1340 1.961 . S
Li1282 O1342 1.956 . S
Li1282 O1343 1.970 1_455 S
Li1283 N1333 1.990 . S
Li1283 O1341 1.961 . S
Li1283 O1342 1.970 1_655 S
Li1283 O1343 1.956 . S
C1284 C1286 1.348 . S
C1284 C1287 1.356 . S
C1284 O1340 1.325 . S
N1285 C1288 1.314 . S
N1285 C1289 1.279 . S
C1286 C1284 1.348 . S
C1286 C1288 1.353 . S
C1286 H1344 0.929 . S
C1287 C1284 1.356 . S
C1287 C1289 1.358 . S
C1287 H1345 0.930 . S
C1288 N1285 1.314 . S
C1288 C1286 1.353 . S
C1288 H1346 0.930 . S
C1289 N1285 1.279 . S
C1289 C1287 1.358 . S
C1289 H1347 0.930 . S
C1290 C1293 1.348 1_655 S
C1290 C1294 1.356 . S
C1290 O1341 1.325 . S
C1291 N1292 1.279 . S
C1291 C1294 1.358 . S
C1291 H1348 0.930 . S
N1292 C1291 1.279 . S
N1292 C1295 1.314 1_655 S
C1293 C1290 1.348 1_455 S
C1293 C1295 1.353 . S
C1293 H1349 0.929 . S
C1294 C1290 1.356 . S
C1294 C1291 1.358 . S
C1294 H1350 0.930 . S
C1295 N1292 1.314 1_455 S
C1295 C1293 1.353 . S
C1295 H1351 0.930 . S
C1296 N1297 1.314 . S
C1296 C1301 1.353 . S
C1296 H1302 0.930 . S
N1297 Li1280 1.990 . S
N1297 C1296 1.314 . S
N1297 C1299 1.279 . S
C1298 C1299 1.358 . S
C1298 C1300 1.356 . S
C1298 H1352 0.930 . S
C1299 N1297 1.279 . S
C1299 C1298 1.358 . S
C1299 H1303 0.930 . S
C1300 C1298 1.356 . S
C1300 C1301 1.348 . S
C1301 C1296 1.353 . S
C1301 C1300 1.348 . S
C1301 H1353 0.929 . S
H1302 C1296 0.930 . S
H1303 C1299 0.930 . S
C1304 N1305 1.314 . S
C1304 C1306 1.353 . S
C1304 H1310 0.930 . S
N1305 Li1281 1.990 . S
N1305 C1304 1.314 . S
N1305 C1308 1.279 . S
C1306 C1304 1.353 . S
C1306 C1309 1.348 . S
C1306 H1354 0.929 . S
C1307 C1308 1.358 . S
C1307 C1309 1.356 . S
C1307 H1355 0.930 . S
C1308 N1305 1.279 . S
C1308 C1307 1.358 . S
C1308 H1311 0.930 . S
C1309 C1306 1.348 . S
C1309 C1307 1.356 . S
H1310 C1304 0.930 . S
H1311 C1308 0.930 . S
C1312 C1314 1.348 1_455 S
C1312 C1315 1.356 . S
C1312 O1342 1.325 . S
N1313 C1316 1.314 1_455 S
N1313 C1317 1.279 . S
C1314 C1312 1.348 1_655 S
C1314 C1316 1.353 . S
C1314 H1356 0.929 . S
C1315 C1312 1.356 . S
C1315 C1317 1.358 . S
C1315 H1357 0.930 . S
C1316 N1313 1.314 1_655 S
C1316 C1314 1.353 . S
C1316 H1358 0.930 . S
C1317 N1313 1.279 . S
C1317 C1315 1.358 . S
C1317 H1359 0.930 . S
C1318 C1319 1.348 . S
C1318 C1320 1.356 . S
C1318 O1343 1.325 . S
C1319 C1318 1.348 . S
C1319 C1321 1.353 . S
C1319 H1360 0.929 . S
C1320 C1318 1.356 . S
C1320 C1322 1.358 . S
C1320 H1361 0.930 . S
C1321 C1319 1.353 . S
C1321 N1323 1.314 . S
C1321 H1362 0.930 . S
C1322 C1320 1.358 . S
C1322 N1323 1.279 . S
C1322 H1363 0.930 . S
N1323 C1321 1.314 . S
N1323 C1322 1.279 . S
C1324 C1326 1.353 . S
C1324 N1327 1.314 . S
C1324 H1330 0.930 . S
C1325 N1327 1.279 . S
C1325 C1328 1.358 . S
C1325 H1331 0.930 . S
C1326 C1324 1.353 . S
C1326 C1329 1.348 . S
C1326 H1364 0.929 . S
N1327 Li1282 1.990 . S
N1327 C1324 1.314 . S
N1327 C1325 1.279 . S
C1328 C1325 1.358 . S
C1328 C1329 1.356 . S
C1328 H1365 0.930 . S
C1329 C1326 1.348 . S
C1329 C1328 1.356 . S
H1330 C1324 0.930 . S
H1331 C1325 0.930 . S
C1332 N1333 1.314 . S
C1332 C1334 1.353 . S
C1332 H1338 0.930 . S
N1333 Li1283 1.990 . S
N1333 C1332 1.314 . S
N1333 C1336 1.279 . S
C1334 C1332 1.353 . S
C1334 C1337 1.348 . S
C1334 H1366 0.929 . S
C1335 C1336 1.358 . S
C1335 C1337 1.356 . S
C1335 H1367 0.930 . S
C1336 N1333 1.279 . S
C1336 C1335 1.358 . S
C1336 H1339 0.930 . S
C1337 C1334 1.348 . S
C1337 C1335 1.356 . S
H1338 C1332 0.930 . S
H1339 C1336 0.930 . S
O1340 Li1280 1.956 . S
O1340 Li1281 1.970 1_455 S
O1340 Li1282 1.961 . S
O1340 C1284 1.325 . S
O1341 Li1280 1.970 1_655 S
O1341 Li1281 1.956 . S
O1341 Li1283 1.961 . S
O1341 C1290 1.325 . S
O1342 Li1280 1.961 . S
O1342 Li1282 1.956 . S
O1342 Li1283 1.970 1_455 S
O1342 C1312 1.325 . S
O1343 Li1281 1.961 . S
O1343 Li1282 1.970 1_655 S
O1343 Li1283 1.956 . S
O1343 C1318 1.325 . S
H1344 C1286 0.929 . S
H1345 C1287 0.930 . S
H1346 C1288 0.930 . S
H1347 C1289 0.930 . S
H1348 C1291 0.930 . S
H1349 C1293 0.929 . S
H1350 C1294 0.930 . S
H1351 C1295 0.930 . S
H1352 C1298 0.930 . S
H1353 C1301 0.929 . S
H1354 C1306 0.929 . S
H1355 C1307 0.930 . S
H1356 C1314 0.929 . S
H1357 C1315 0.930 . S
H1358 C1316 0.930 . S
H1359 C1317 0.930 . S
H1360 C1319 0.929 . S
H1361 C1320 0.930 . S
H1362 C1321 0.930 . S
H1363 C1322 0.930 . S
H1364 C1326 0.929 . S
H1365 C1328 0.930 . S
H1366 C1334 0.929 . S
H1367 C1335 0.930 . S
Li1368 N1385 1.990 . S
Li1368 O1428 1.956 . S
Li1368 O1429 1.970 . S
Li1368 O1430 1.961 . S
Li1369 N1393 1.990 . S
Li1369 O1428 1.970 . S
Li1369 O1429 1.956 . S
Li1369 O1431 1.961 . S
Li1370 N1415 1.990 . S
Li1370 O1428 1.961 . S
Li1370 O1430 1.956 . S
Li1370 O1431 1.970 . S
Li1371 N1421 1.990 . S
Li1371 O1429 1.961 . S
Li1371 O1430 1.970 . S
Li1371 O1431 1.956 . S
C1372 C1374 1.348 . S
C1372 C1375 1.356 . S
C1372 O1428 1.325 . S
N1373 C1376 1.314 . S
N1373 C1377 1.279 . S
C1374 C1372 1.348 . S
C1374 C1376 1.353 . S
C1374 H1432 0.929 . S
C1375 C1372 1.356 . S
C1375 C1377 1.358 . S
C1375 H1433 0.930 . S
C1376 N1373 1.314 . S
C1376 C1374 1.353 . S
C1376 H1434 0.930 . S
C1377 N1373 1.279 . S
C1377 C1375 1.358 . S
C1377 H1435 0.930 . S
C1378 C1381 1.348 . S
C1378 C1382 1.356 . S
C1378 O1429 1.325 . S
C1379 N1380 1.279 . S
C1379 C1382 1.358 . S
C1379 H1436 0.930 . S
N1380 C1379 1.279 . S
N1380 C1383 1.314 . S
C1381 C1378 1.348 . S
C1381 C1383 1.353 . S
C1381 H1437 0.929 . S
C1382 C1378 1.356 . S
C1382 C1379 1.358 . S
C1382 H1438 0.930 . S
C1383 N1380 1.314 . S
C1383 C1381 1.353 . S
C1383 H1439 0.930 . S
C1384 N1385 1.314 . S
C1384 C1389 1.353 . S
C1384 H1390 0.930 . S
N1385 Li1368 1.990 . S
N1385 C1384 1.314 . S
N1385 C1387 1.279 . S
C1386 C1387 1.358 . S
C1386 C1388 1.356 . S
C1386 H1440 0.930 . S
C1387 N1385 1.279 . S
C1387 C1386 1.358 . S
C1387 H1391 0.930 . S
C1388 C1386 1.356 . S
C1388 C1389 1.348 . S
C1389 C1384 1.353 . S
C1389 C1388 1.348 . S
C1389 H1441 0.929 . S
H1390 C1384 0.930 . S
H1391 C1387 0.930 . S
C1392 N1393 1.314 . S
C1392 C1394 1.353 . S
C1392 H1398 0.930 . S
N1393 Li1369 1.990 . S
N1393 C1392 1.314 . S
N1393 C1396 1.279 . S
C1394 C1392 1.353 . S
C1394 C1397 1.348 . S
C1394 H1442 0.929 . S
C1395 C1396 1.358 . S
C1395 C1397 1.356 . S
C1395 H1443 0.930 . S
C1396 N1393 1.279 . S
C1396 C1395 1.358 . S
C1396 H1399 0.930 . S
C1397 C1394 1.348 . S
C1397 C1395 1.356 . S
H1398 C1392 0.930 . S
H1399 C1396 0.930 . S
C1400 C1402 1.348 . S
C1400 C1403 1.356 . S
C1400 O1430 1.325 . S
N1401 C1404 1.314 . S
N1401 C1405 1.279 . S
C1402 C1400 1.348 . S
C1402 C1404 1.353 . S
C1402 H1444 0.929 . S
C1403 C1400 1.356 . S
C1403 C1405 1.358 . S
C1403 H1445 0.930 . S
C1404 N1401 1.314 . S
C1404 C1402 1.353 . S
C1404 H1446 0.930 . S
C1405 N1401 1.279 . S
C1405 C1403 1.358 . S
C1405 H1447 0.930 . S
C1406 C1407 1.348 . S
C1406 C1408 1.356 . S
C1406 O1431 1.325 . S
C1407 C1406 1.348 . S
C1407 C1409 1.353 . S
C1407 H1448 0.929 . S
C1408 C1406 1.356 . S
C1408 C1410 1.358 . S
C1408 H1449 0.930 . S
C1409 C1407 1.353 . S
C1409 N1411 1.314 . S
C1409 H1450 0.930 . S
C1410 C1408 1.358 . S
C1410 N1411 1.279 . S
C1410 H1451 0.930 . S
N1411 C1409 1.314 . S
N1411 C1410 1.279 . S
C1412 C1414 1.353 . S
C1412 N1415 1.314 . S
C1412 H1418 0.930 . S
C1413 N1415 1.279 . S
C1413 C1416 1.358 . S
C1413 H1419 0.930 . S
C1414 C1412 1.353 . S
C1414 C1417 1.348 . S
C1414 H1452 0.929 . S
N1415 Li1370 1.990 . S
N1415 C1412 1.314 . S
N1415 C1413 1.279 . S
C1416 C1413 1.358 . S
C1416 C1417 1.356 . S
C1416 H1453 0.930 . S
C1417 C1414 1.348 . S
C1417 C1416 1.356 . S
H1418 C1412 0.930 . S
H1419 C1413 0.930 . S
C1420 N1421 1.314 . S
C1420 C1422 1.353 . S
C1420 H1426 0.930 . S
N1421 Li1371 1.990 . S
N1421 C1420 1.314 . S
N1421 C1424 1.279 . S
C1422 C1420 1.353 . S
C1422 C1425 1.348 . S
C1422 H1454 0.929 . S
C1423 C1424 1.358 . S
C1423 C1425 1.356 . S
C1423 H1455 0.930 . S
C1424 N1421 1.279 . S
C1424 C1423 1.358 . S
C1424 H1427 0.930 . S
C1425 C1422 1.348 . S
C1425 C1423 1.356 . S
H1426 C1420 0.930 . S
H1427 C1424 0.930 . S
O1428 Li1368 1.956 . S
O1428 Li1369 1.970 . S
O1428 Li1370 1.961 . S
O1428 C1372 1.325 . S
O1429 Li1368 1.970 . S
O1429 Li1369 1.956 . S
O1429 Li1371 1.961 . S
O1429 C1378 1.325 . S
O1430 Li1368 1.961 . S
O1430 Li1370 1.956 . S
O1430 Li1371 1.970 . S
O1430 C1400 1.325 . S
O1431 Li1369 1.961 . S
O1431 Li1370 1.970 . S
O1431 Li1371 1.956 . S
O1431 C1406 1.325 . S
H1432 C1374 0.929 . S
H1433 C1375 0.930 . S
H1434 C1376 0.930 . S
H1435 C1377 0.930 . S
H1436 C1379 0.930 . S
H1437 C1381 0.929 . S
H1438 C1382 0.930 . S
H1439 C1383 0.930 . S
H1440 C1386 0.930 . S
H1441 C1389 0.929 . S
H1442 C1394 0.929 . S
H1443 C1395 0.930 . S
H1444 C1402 0.929 . S
H1445 C1403 0.930 . S
H1446 C1404 0.930 . S
H1447 C1405 0.930 . S
H1448 C1407 0.929 . S
H1449 C1408 0.930 . S
H1450 C1409 0.930 . S
H1451 C1410 0.930 . S
H1452 C1414 0.929 . S
H1453 C1416 0.930 . S
H1454 C1422 0.929 . S
H1455 C1423 0.930 . S
Li1456 N1473 1.990 . S
Li1456 O1516 1.956 . S
Li1456 O1517 1.970 1_455 S
Li1456 O1518 1.961 . S
Li1457 N1481 1.990 . S
Li1457 O1516 1.970 1_655 S
Li1457 O1517 1.956 . S
Li1457 O1519 1.961 . S
Li1458 N1503 1.990 . S
Li1458 O1516 1.961 . S
Li1458 O1518 1.956 . S
Li1458 O1519 1.970 1_455 S
Li1459 N1509 1.990 . S
Li1459 O1517 1.961 . S
Li1459 O1518 1.970 1_655 S
Li1459 O1519 1.956 . S
C1460 C1462 1.348 1_455 S
C1460 C1463 1.356 . S
C1460 O1516 1.325 . S
N1461 C1464 1.314 1_455 S
N1461 C1465 1.279 . S
C1462 C1460 1.348 1_655 S
C1462 C1464 1.353 . S
C1462 H1520 0.929 . S
C1463 C1460 1.356 . S
C1463 C1465 1.358 . S
C1463 H1521 0.930 . S
C1464 N1461 1.314 1_655 S
C1464 C1462 1.353 . S
C1464 H1522 0.930 . S
C1465 N1461 1.279 . S
C1465 C1463 1.358 . S
C1465 H1523 0.930 . S
C1466 C1469 1.348 . S
C1466 C1470 1.356 . S
C1466 O1517 1.325 . S
C1467 N1468 1.279 . S
C1467 C1470 1.358 . S
C1467 H1524 0.930 . S
N1468 C1467 1.279 . S
N1468 C1471 1.314 . S
C1469 C1466 1.348 . S
C1469 C1471 1.353 . S
C1469 H1525 0.929 . S
C1470 C1466 1.356 . S
C1470 C1467 1.358 . S
C1470 H1526 0.930 . S
C1471 N1468 1.314 . S
C1471 C1469 1.353 . S
C1471 H1527 0.930 . S
C1472 N1473 1.314 . S
C1472 C1477 1.353 . S
C1472 H1478 0.930 . S
N1473 Li1456 1.990 . S
N1473 C1472 1.314 . S
N1473 C1475 1.279 . S
C1474 C1475 1.358 . S
C1474 C1476 1.356 . S
C1474 H1528 0.930 . S
C1475 N1473 1.279 . S
C1475 C1474 1.358 . S
C1475 H1479 0.930 . S
C1476 C1474 1.356 . S
C1476 C1477 1.348 . S
C1477 C1472 1.353 . S
C1477 C1476 1.348 . S
C1477 H1529 0.929 . S
H1478 C1472 0.930 . S
H1479 C1475 0.930 . S
C1480 N1481 1.314 . S
C1480 C1482 1.353 . S
C1480 H1486 0.930 . S
N1481 Li1457 1.990 . S
N1481 C1480 1.314 . S
N1481 C1484 1.279 . S
C1482 C1480 1.353 . S
C1482 C1485 1.348 . S
C1482 H1530 0.929 . S
C1483 C1484 1.358 . S
C1483 C1485 1.356 . S
C1483 H1531 0.930 . S
C1484 N1481 1.279 . S
C1484 C1483 1.358 . S
C1484 H1487 0.930 . S
C1485 C1482 1.348 . S
C1485 C1483 1.356 . S
H1486 C1480 0.930 . S
H1487 C1484 0.930 . S
C1488 C1490 1.348 . S
C1488 C1491 1.356 . S
C1488 O1518 1.325 . S
N1489 C1492 1.314 . S
N1489 C1493 1.279 . S
C1490 C1488 1.348 . S
C1490 C1492 1.353 . S
C1490 H1532 0.929 . S
C1491 C1488 1.356 . S
C1491 C1493 1.358 . S
C1491 H1533 0.930 . S
C1492 N1489 1.314 . S
C1492 C1490 1.353 . S
C1492 H1534 0.930 . S
C1493 N1489 1.279 . S
C1493 C1491 1.358 . S
C1493 H1535 0.930 . S
C1494 C1495 1.348 1_655 S
C1494 C1496 1.356 . S
C1494 O1519 1.325 . S
C1495 C1494 1.348 1_455 S
C1495 C1497 1.353 . S
C1495 H1536 0.929 . S
C1496 C1494 1.356 . S
C1496 C1498 1.358 . S
C1496 H1537 0.930 . S
C1497 C1495 1.353 . S
C1497 N1499 1.314 1_455 S
C1497 H1538 0.930 . S
C1498 C1496 1.358 . S
C1498 N1499 1.279 . S
C1498 H1539 0.930 . S
N1499 C1497 1.314 1_655 S
N1499 C1498 1.279 . S
C1500 C1502 1.353 . S
C1500 N1503 1.314 . S
C1500 H1506 0.930 . S
C1501 N1503 1.279 . S
C1501 C1504 1.358 . S
C1501 H1507 0.930 . S
C1502 C1500 1.353 . S
C1502 C1505 1.348 . S
C1502 H1540 0.929 . S
N1503 Li1458 1.990 . S
N1503 C1500 1.314 . S
N1503 C1501 1.279 . S
C1504 C1501 1.358 . S
C1504 C1505 1.356 . S
C1504 H1541 0.930 . S
C1505 C1502 1.348 . S
C1505 C1504 1.356 . S
H1506 C1500 0.930 . S
H1507 C1501 0.930 . S
C1508 N1509 1.314 . S
C1508 C1510 1.353 . S
C1508 H1514 0.930 . S
N1509 Li1459 1.990 . S
N1509 C1508 1.314 . S
N1509 C1512 1.279 . S
C1510 C1508 1.353 . S
C1510 C1513 1.348 . S
C1510 H1542 0.929 . S
C1511 C1512 1.358 . S
C1511 C1513 1.356 . S
C1511 H1543 0.930 . S
C1512 N1509 1.279 . S
C1512 C1511 1.358 . S
C1512 H1515 0.930 . S
C1513 C1510 1.348 . S
C1513 C1511 1.356 . S
H1514 C1508 0.930 . S
H1515 C1512 0.930 . S
O1516 Li1456 1.956 . S
O1516 Li1457 1.970 1_455 S
O1516 Li1458 1.961 . S
O1516 C1460 1.325 . S
O1517 Li1456 1.970 1_655 S
O1517 Li1457 1.956 . S
O1517 Li1459 1.961 . S
O1517 C1466 1.325 . S
O1518 Li1456 1.961 . S
O1518 Li1458 1.956 . S
O1518 Li1459 1.970 1_455 S
O1518 C1488 1.325 . S
O1519 Li1457 1.961 . S
O1519 Li1458 1.970 1_655 S
O1519 Li1459 1.956 . S
O1519 C1494 1.325 . S
H1520 C1462 0.929 . S
H1521 C1463 0.930 . S
H1522 C1464 0.930 . S
H1523 C1465 0.930 . S
H1524 C1467 0.930 . S
H1525 C1469 0.929 . S
H1526 C1470 0.930 . S
H1527 C1471 0.930 . S
H1528 C1474 0.930 . S
H1529 C1477 0.929 . S
H1530 C1482 0.929 . S
H1531 C1483 0.930 . S
H1532 C1490 0.929 . S
H1533 C1491 0.930 . S
H1534 C1492 0.930 . S
H1535 C1493 0.930 . S
H1536 C1495 0.929 . S
H1537 C1496 0.930 . S
H1538 C1497 0.930 . S
H1539 C1498 0.930 . S
H1540 C1502 0.929 . S
H1541 C1504 0.930 . S
H1542 C1510 0.929 . S
H1543 C1511 0.930 . S
Li1544 N1561 1.990 . S
Li1544 O1604 1.956 . S
Li1544 O1605 1.970 . S
Li1544 O1606 1.961 . S
Li1545 N1569 1.990 . S
Li1545 O1604 1.970 . S
Li1545 O1605 1.956 . S
Li1545 O1607 1.961 . S
Li1546 N1591 1.990 . S
Li1546 O1604 1.961 . S
Li1546 O1606 1.956 . S
Li1546 O1607 1.970 . S
Li1547 N1597 1.990 . S
Li1547 O1605 1.961 . S
Li1547 O1606 1.970 . S
Li1547 O1607 1.956 . S
C1548 C1550 1.348 . S
C1548 C1551 1.356 . S
C1548 O1604 1.325 . S
N1549 C1552 1.314 . S
N1549 C1553 1.279 . S
C1550 C1548 1.348 . S
C1550 C1552 1.353 . S
C1550 H1608 0.929 . S
C1551 C1548 1.356 . S
C1551 C1553 1.358 . S
C1551 H1609 0.930 . S
C1552 N1549 1.314 . S
C1552 C1550 1.353 . S
C1552 H1610 0.930 . S
C1553 N1549 1.279 . S
C1553 C1551 1.358 . S
C1553 H1611 0.930 . S
C1554 C1557 1.348 . S
C1554 C1558 1.356 . S
C1554 O1605 1.325 . S
C1555 N1556 1.279 . S
C1555 C1558 1.358 . S
C1555 H1612 0.930 . S
N1556 C1555 1.279 . S
N1556 C1559 1.314 . S
C1557 C1554 1.348 . S
C1557 C1559 1.353 . S
C1557 H1613 0.929 . S
C1558 C1554 1.356 . S
C1558 C1555 1.358 . S
C1558 H1614 0.930 . S
C1559 N1556 1.314 . S
C1559 C1557 1.353 . S
C1559 H1615 0.930 . S
C1560 N1561 1.314 . S
C1560 C1565 1.353 . S
C1560 H1566 0.930 . S
N1561 Li1544 1.990 . S
N1561 C1560 1.314 . S
N1561 C1563 1.279 . S
C1562 C1563 1.358 . S
C1562 C1564 1.356 . S
C1562 H1616 0.930 . S
C1563 N1561 1.279 . S
C1563 C1562 1.358 . S
C1563 H1567 0.930 . S
C1564 C1562 1.356 . S
C1564 C1565 1.348 . S
C1565 C1560 1.353 . S
C1565 C1564 1.348 . S
C1565 H1617 0.929 . S
H1566 C1560 0.930 . S
H1567 C1563 0.930 . S
C1568 N1569 1.314 . S
C1568 C1570 1.353 . S
C1568 H1574 0.930 . S
N1569 Li1545 1.990 . S
N1569 C1568 1.314 . S
N1569 C1572 1.279 . S
C1570 C1568 1.353 . S
C1570 C1573 1.348 . S
C1570 H1618 0.929 . S
C1571 C1572 1.358 . S
C1571 C1573 1.356 . S
C1571 H1619 0.930 . S
C1572 N1569 1.279 . S
C1572 C1571 1.358 . S
C1572 H1575 0.930 . S
C1573 C1570 1.348 . S
C1573 C1571 1.356 . S
H1574 C1568 0.930 . S
H1575 C1572 0.930 . S
C1576 C1578 1.348 . S
C1576 C1579 1.356 . S
C1576 O1606 1.325 . S
N1577 C1580 1.314 . S
N1577 C1581 1.279 . S
C1578 C1576 1.348 . S
C1578 C1580 1.353 . S
C1578 H1620 0.929 . S
C1579 C1576 1.356 . S
C1579 C1581 1.358 . S
C1579 H1621 0.930 . S
C1580 N1577 1.314 . S
C1580 C1578 1.353 . S
C1580 H1622 0.930 . S
C1581 N1577 1.279 . S
C1581 C1579 1.358 . S
C1581 H1623 0.930 . S
C1582 C1583 1.348 . S
C1582 C1584 1.356 . S
C1582 O1607 1.325 . S
C1583 C1582 1.348 . S
C1583 C1585 1.353 . S
C1583 H1624 0.929 . S
C1584 C1582 1.356 . S
C1584 C1586 1.358 . S
C1584 H1625 0.930 . S
C1585 C1583 1.353 . S
C1585 N1587 1.314 . S
C1585 H1626 0.930 . S
C1586 C1584 1.358 . S
C1586 N1587 1.279 . S
C1586 H1627 0.930 . S
N1587 C1585 1.314 . S
N1587 C1586 1.279 . S
C1588 C1590 1.353 . S
C1588 N1591 1.314 . S
C1588 H1594 0.930 . S
C1589 N1591 1.279 . S
C1589 C1592 1.358 . S
C1589 H1595 0.930 . S
C1590 C1588 1.353 . S
C1590 C1593 1.348 . S
C1590 H1628 0.929 . S
N1591 Li1546 1.990 . S
N1591 C1588 1.314 . S
N1591 C1589 1.279 . S
C1592 C1589 1.358 . S
C1592 C1593 1.356 . S
C1592 H1629 0.930 . S
C1593 C1590 1.348 . S
C1593 C1592 1.356 . S
H1594 C1588 0.930 . S
H1595 C1589 0.930 . S
C1596 N1597 1.314 . S
C1596 C1598 1.353 . S
C1596 H1602 0.930 . S
N1597 Li1547 1.990 . S
N1597 C1596 1.314 . S
N1597 C1600 1.279 . S
C1598 C1596 1.353 . S
C1598 C1601 1.348 . S
C1598 H1630 0.929 . S
C1599 C1600 1.358 . S
C1599 C1601 1.356 . S
C1599 H1631 0.930 . S
C1600 N1597 1.279 . S
C1600 C1599 1.358 . S
C1600 H1603 0.930 . S
C1601 C1598 1.348 . S
C1601 C1599 1.356 . S
H1602 C1596 0.930 . S
H1603 C1600 0.930 . S
O1604 Li1544 1.956 . S
O1604 Li1545 1.970 . S
O1604 Li1546 1.961 . S
O1604 C1548 1.325 . S
O1605 Li1544 1.970 . S
O1605 Li1545 1.956 . S
O1605 Li1547 1.961 . S
O1605 C1554 1.325 . S
O1606 Li1544 1.961 . S
O1606 Li1546 1.956 . S
O1606 Li1547 1.970 . S
O1606 C1576 1.325 . S
O1607 Li1545 1.961 . S
O1607 Li1546 1.970 . S
O1607 Li1547 1.956 . S
O1607 C1582 1.325 . S
H1608 C1550 0.929 . S
H1609 C1551 0.930 . S
H1610 C1552 0.930 . S
H1611 C1553 0.930 . S
H1612 C1555 0.930 . S
H1613 C1557 0.929 . S
H1614 C1558 0.930 . S
H1615 C1559 0.930 . S
H1616 C1562 0.930 . S
H1617 C1565 0.929 . S
H1618 C1570 0.929 . S
H1619 C1571 0.930 . S
H1620 C1578 0.929 . S
H1621 C1579 0.930 . S
H1622 C1580 0.930 . S
H1623 C1581 0.930 . S
H1624 C1583 0.929 . S
H1625 C1584 0.930 . S
H1626 C1585 0.930 . S
H1627 C1586 0.930 . S
H1628 C1590 0.929 . S
H1629 C1592 0.930 . S
H1630 C1598 0.929 . S
H1631 C1599 0.930 . S
C1632 C1633 1.363 . S
C1632 C1638 1.379 . S
C1632 N1640 1.356 . S
C1633 C1632 1.363 . S
C1633 C1639 1.363 . S
C1634 C1635 1.363 . S
C1634 C1639 1.379 . S
C1634 N1641 1.356 . S
C1635 C1634 1.363 . S
C1635 C1638 1.363 . S
N1636 C1638 1.356 . S
N1636 H1648 0.984 . S
N1636 H1649 0.985 . S
N1637 C1639 1.356 . S
N1637 H1642 0.984 . S
N1637 H1643 0.985 . S
C1638 C1632 1.379 . S
C1638 C1635 1.363 . S
C1638 N1636 1.356 . S
C1639 C1633 1.363 . S
C1639 C1634 1.379 . S
C1639 N1637 1.356 . S
N1640 C1632 1.356 . S
N1640 H1646 0.984 . S
N1640 H1647 0.984 . S
N1641 C1634 1.356 . S
N1641 H1644 0.984 . S
N1641 H1645 0.985 . S
H1642 N1637 0.984 . S
H1643 N1637 0.985 . S
H1644 N1641 0.984 . S
H1645 N1641 0.985 . S
H1646 N1640 0.984 . S
H1647 N1640 0.984 . S
H1648 N1636 0.984 . S
H1649 N1636 0.985 . S
C1650 C1651 1.363 . S
C1650 C1656 1.379 . S
C1650 N1658 1.356 . S
C1651 C1650 1.363 . S
C1651 C1657 1.363 . S
C1652 C1653 1.363 . S
C1652 C1657 1.379 . S
C1652 N1659 1.356 . S
C1653 C1652 1.363 . S
C1653 C1656 1.363 . S
N1654 C1656 1.356 . S
N1654 H1666 0.984 . S
N1654 H1667 0.985 . S
N1655 C1657 1.356 . S
N1655 H1660 0.984 . S
N1655 H1661 0.985 . S
C1656 C1650 1.379 . S
C1656 C1653 1.363 . S
C1656 N1654 1.356 . S
C1657 C1651 1.363 . S
C1657 C1652 1.379 . S
C1657 N1655 1.356 . S
N1658 C1650 1.356 . S
N1658 H1664 0.984 . S
N1658 H1665 0.984 . S
N1659 C1652 1.356 . S
N1659 H1662 0.984 . S
N1659 H1663 0.985 . S
H1660 N1655 0.984 . S
H1661 N1655 0.985 . S
H1662 N1659 0.984 . S
H1663 N1659 0.985 . S
H1664 N1658 0.984 . S
H1665 N1658 0.984 . S
H1666 N1654 0.984 . S
H1667 N1654 0.985 . S
C1668 C1669 1.363 . S
C1668 C1674 1.379 . S
C1668 N1676 1.356 . S
C1669 C1668 1.363 . S
C1669 C1675 1.363 . S
C1670 C1671 1.363 . S
C1670 C1675 1.379 . S
C1670 N1677 1.356 . S
C1671 C1670 1.363 . S
C1671 C1674 1.363 . S
N1672 C1674 1.356 . S
N1672 H1684 0.984 . S
N1672 H1685 0.985 . S
N1673 C1675 1.356 . S
N1673 H1678 0.984 . S
N1673 H1679 0.985 . S
C1674 C1668 1.379 . S
C1674 C1671 1.363 . S
C1674 N1672 1.356 . S
C1675 C1669 1.363 . S
C1675 C1670 1.379 . S
C1675 N1673 1.356 . S
N1676 C1668 1.356 . S
N1676 H1682 0.984 . S
N1676 H1683 0.984 . S
N1677 C1670 1.356 . S
N1677 H1680 0.984 . S
N1677 H1681 0.985 . S
H1678 N1673 0.984 . S
H1679 N1673 0.985 . S
H1680 N1677 0.984 . S
H1681 N1677 0.985 . S
H1682 N1676 0.984 . S
H1683 N1676 0.984 . S
H1684 N1672 0.984 . S
H1685 N1672 0.985 . S
C1686 C1687 1.394 . S
C1686 C1692 1.376 1_565 S
C1686 N1694 1.336 1_565 S
C1687 C1686 1.394 . S
C1687 C1693 1.363 . S
C1688 C1689 1.363 . S
C1688 C1693 1.379 . S
C1688 N1695 1.356 . S
C1689 C1688 1.363 . S
C1689 C1692 1.345 1_565 S
N1690 C1692 1.373 . S
N1690 H1702 0.984 . S
N1690 H1703 0.985 . S
N1691 C1693 1.356 . S
N1691 H1696 0.984 . S
N1691 H1697 0.985 . S
C1692 C1686 1.376 1_545 S
C1692 C1689 1.345 1_545 S
C1692 N1690 1.373 . S
C1693 C1687 1.363 . S
C1693 C1688 1.379 . S
C1693 N1691 1.356 . S
N1694 C1686 1.336 1_545 S
N1694 H1700 0.984 . S
N1694 H1701 0.984 . S
N1695 C1688 1.356 . S
N1695 H1698 0.984 . S
N1695 H1699 0.985 . S
H1696 N1691 0.984 . S
H1697 N1691 0.985 . S
H1698 N1695 0.984 . S
H1699 N1695 0.985 . S
H1700 N1694 0.984 . S
H1701 N1694 0.984 . S
H1702 N1690 0.984 . S
H1703 N1690 0.985 . S
C1704 C1705 1.363 . S
C1704 C1710 1.379 . S
C1704 N1712 1.356 . S
C1705 C1704 1.363 . S
C1705 C1711 1.363 . S
C1706 C1707 1.363 . S
C1706 C1711 1.379 . S
C1706 N1713 1.356 . S
C1707 C1706 1.363 . S
C1707 C1710 1.363 . S
N1708 C1710 1.356 . S
N1708 H1720 0.984 . S
N1708 H1721 0.985 . S
N1709 C1711 1.356 . S
N1709 H1714 0.984 . S
N1709 H1715 0.985 . S
C1710 C1704 1.379 . S
C1710 C1707 1.363 . S
C1710 N1708 1.356 . S
C1711 C1705 1.363 . S
C1711 C1706 1.379 . S
C1711 N1709 1.356 . S
N1712 C1704 1.356 . S
N1712 H1718 0.984 . S
N1712 H1719 0.984 . S
N1713 C1706 1.356 . S
N1713 H1716 0.984 . S
N1713 H1717 0.985 . S
H1714 N1709 0.984 . S
H1715 N1709 0.985 . S
H1716 N1713 0.984 . S
H1717 N1713 0.985 . S
H1718 N1712 0.984 . S
H1719 N1712 0.984 . S
H1720 N1708 0.984 . S
H1721 N1708 0.985 . S
C1722 C1723 1.363 . S
C1722 C1728 1.379 . S
C1722 N1730 1.356 . S
C1723 C1722 1.363 . S
C1723 C1729 1.363 . S
C1724 C1725 1.363 . S
C1724 C1729 1.379 . S
C1724 N1731 1.356 . S
C1725 C1724 1.363 . S
C1725 C1728 1.363 . S
N1726 C1728 1.356 . S
N1726 H1738 0.984 . S
N1726 H1739 0.985 . S
N1727 C1729 1.356 . S
N1727 H1732 0.984 . S
N1727 H1733 0.985 . S
C1728 C1722 1.379 . S
C1728 C1725 1.363 . S
C1728 N1726 1.356 . S
C1729 C1723 1.363 . S
C1729 C1724 1.379 . S
C1729 N1727 1.356 . S
N1730 C1722 1.356 . S
N1730 H1736 0.984 . S
N1730 H1737 0.984 . S
N1731 C1724 1.356 . S
N1731 H1734 0.984 . S
N1731 H1735 0.985 . S
H1732 N1727 0.984 . S
H1733 N1727 0.985 . S
H1734 N1731 0.984 . S
H1735 N1731 0.985 . S
H1736 N1730 0.984 . S
H1737 N1730 0.984 . S
H1738 N1726 0.984 . S
H1739 N1726 0.985 . S
C1740 C1741 1.363 . S
C1740 C1746 1.379 . S
C1740 N1748 1.356 . S
C1741 C1740 1.363 . S
C1741 C1747 1.363 . S
C1742 C1743 1.363 . S
C1742 C1747 1.379 . S
C1742 N1749 1.356 . S
C1743 C1742 1.363 . S
C1743 C1746 1.363 . S
N1744 C1746 1.356 . S
N1744 H1756 0.984 . S
N1744 H1757 0.985 . S
N1745 C1747 1.356 . S
N1745 H1750 0.984 . S
N1745 H1751 0.985 . S
C1746 C1740 1.379 . S
C1746 C1743 1.363 . S
C1746 N1744 1.356 . S
C1747 C1741 1.363 . S
C1747 C1742 1.379 . S
C1747 N1745 1.356 . S
N1748 C1740 1.356 . S
N1748 H1754 0.984 . S
N1748 H1755 0.984 . S
N1749 C1742 1.356 . S
N1749 H1752 0.984 . S
N1749 H1753 0.985 . S
H1750 N1745 0.984 . S
H1751 N1745 0.985 . S
H1752 N1749 0.984 . S
H1753 N1749 0.985 . S
H1754 N1748 0.984 . S
H1755 N1748 0.984 . S
H1756 N1744 0.984 . S
H1757 N1744 0.985 . S
C1758 C1759 1.363 . S
C1758 C1764 1.378 1_565 S
C1758 N1766 1.356 1_565 S
C1759 C1758 1.363 . S
C1759 C1765 1.363 . S
C1760 C1761 1.363 . S
C1760 C1765 1.379 . S
C1760 N1767 1.356 . S
C1761 C1760 1.363 . S
C1761 C1764 1.352 1_565 S
N1762 C1764 1.366 . S
N1762 H1774 0.984 . S
N1762 H1775 0.985 . S
N1763 C1765 1.356 . S
N1763 H1768 0.984 . S
N1763 H1769 0.985 . S
C1764 C1758 1.378 1_545 S
C1764 C1761 1.352 1_545 S
C1764 N1762 1.366 . S
C1765 C1759 1.363 . S
C1765 C1760 1.379 . S
C1765 N1763 1.356 . S
N1766 C1758 1.356 1_545 S
N1766 H1772 0.984 . S
N1766 H1773 0.984 . S
N1767 C1760 1.356 . S
N1767 H1770 0.984 . S
N1767 H1771 0.985 . S
H1768 N1763 0.984 . S
H1769 N1763 0.985 . S
H1770 N1767 0.984 . S
H1771 N1767 0.985 . S
H1772 N1766 0.984 . S
H1773 N1766 0.984 . S
H1774 N1762 0.984 . S
H1775 N1762 0.985 . S
C1776 C1777 1.363 . S
C1776 C1782 1.379 . S
C1776 N1784 1.356 . S
C1777 C1776 1.363 . S
C1777 C1783 1.363 . S
C1778 C1779 1.363 . S
C1778 C1783 1.379 . S
C1778 N1785 1.356 . S
C1779 C1778 1.363 . S
C1779 C1782 1.363 . S
N1780 C1782 1.356 . S
N1780 H1792 0.984 . S
N1780 H1793 0.985 . S
N1781 C1783 1.356 . S
N1781 H1786 0.984 . S
N1781 H1787 0.985 . S
C1782 C1776 1.379 . S
C1782 C1779 1.363 . S
C1782 N1780 1.356 . S
C1783 C1777 1.363 . S
C1783 C1778 1.379 . S
C1783 N1781 1.356 . S
N1784 C1776 1.356 . S
N1784 H1790 0.984 . S
N1784 H1791 0.984 . S
N1785 C1778 1.356 . S
N1785 H1788 0.984 . S
N1785 H1789 0.985 . S
H1786 N1781 0.984 . S
H1787 N1781 0.985 . S
H1788 N1785 0.984 . S
H1789 N1785 0.985 . S
H1790 N1784 0.984 . S
H1791 N1784 0.984 . S
H1792 N1780 0.984 . S
H1793 N1780 0.985 . S
C1794 C1795 1.363 . S
C1794 C1800 1.379 . S
C1794 N1802 1.356 . S
C1795 C1794 1.363 . S
C1795 C1801 1.363 . S
C1796 C1797 1.363 . S
C1796 C1801 1.379 . S
C1796 N1803 1.356 . S
C1797 C1796 1.363 . S
C1797 C1800 1.363 . S
N1798 C1800 1.356 . S
N1798 H1810 0.984 . S
N1798 H1811 0.985 . S
N1799 C1801 1.356 . S
N1799 H1804 0.984 . S
N1799 H1805 0.985 . S
C1800 C1794 1.379 . S
C1800 C1797 1.363 . S
C1800 N1798 1.356 . S
C1801 C1795 1.363 . S
C1801 C1796 1.379 . S
C1801 N1799 1.356 . S
N1802 C1794 1.356 . S
N1802 H1808 0.984 . S
N1802 H1809 0.984 . S
N1803 C1796 1.356 . S
N1803 H1806 0.984 . S
N1803 H1807 0.985 . S
H1804 N1799 0.984 . S
H1805 N1799 0.985 . S
H1806 N1803 0.984 . S
H1807 N1803 0.985 . S
H1808 N1802 0.984 . S
H1809 N1802 0.984 . S
H1810 N1798 0.984 . S
H1811 N1798 0.985 . S
C1812 C1813 1.363 . S
C1812 C1818 1.379 . S
C1812 N1820 1.356 . S
C1813 C1812 1.363 . S
C1813 C1819 1.363 . S
C1814 C1815 1.363 . S
C1814 C1819 1.379 . S
C1814 N1821 1.356 . S
C1815 C1814 1.363 . S
C1815 C1818 1.363 . S
N1816 C1818 1.356 . S
N1816 H1828 0.984 . S
N1816 H1829 0.985 . S
N1817 C1819 1.356 . S
N1817 H1822 0.984 . S
N1817 H1823 0.985 . S
C1818 C1812 1.379 . S
C1818 C1815 1.363 . S
C1818 N1816 1.356 . S
C1819 C1813 1.363 . S
C1819 C1814 1.379 . S
C1819 N1817 1.356 . S
N1820 C1812 1.356 . S
N1820 H1826 0.984 . S
N1820 H1827 0.984 . S
N1821 C1814 1.356 . S
N1821 H1824 0.984 . S
N1821 H1825 0.985 . S
H1822 N1817 0.984 . S
H1823 N1817 0.985 . S
H1824 N1821 0.984 . S
H1825 N1821 0.985 . S
H1826 N1820 0.984 . S
H1827 N1820 0.984 . S
H1828 N1816 0.984 . S
H1829 N1816 0.985 . S
C1830 C1831 1.363 . S
C1830 C1836 1.379 . S
C1830 N1838 1.356 . S
C1831 C1830 1.363 . S
C1831 C1837 1.363 . S
C1832 C1833 1.363 . S
C1832 C1837 1.379 . S
C1832 N1839 1.356 . S
C1833 C1832 1.363 . S
C1833 C1836 1.363 . S
N1834 C1836 1.356 . S
N1834 H1846 0.984 . S
N1834 H1847 0.985 . S
N1835 C1837 1.356 . S
N1835 H1840 0.984 . S
N1835 H1841 0.985 . S
C1836 C1830 1.379 . S
C1836 C1833 1.363 . S
C1836 N1834 1.356 . S
C1837 C1831 1.363 . S
C1837 C1832 1.379 . S
C1837 N1835 1.356 . S
N1838 C1830 1.356 . S
N1838 H1844 0.984 . S
N1838 H1845 0.984 . S
N1839 C1832 1.356 . S
N1839 H1842 0.984 . S
N1839 H1843 0.985 . S
H1840 N1835 0.984 . S
H1841 N1835 0.985 . S
H1842 N1839 0.984 . S
H1843 N1839 0.985 . S
H1844 N1838 0.984 . S
H1845 N1838 0.984 . S
H1846 N1834 0.984 . S
H1847 N1834 0.985 . S
C1848 C1849 1.363 . S
C1848 C1854 1.379 . S
C1848 N1856 1.356 . S
C1849 C1848 1.363 . S
C1849 C1855 1.363 . S
C1850 C1851 1.363 . S
C1850 C1855 1.379 . S
C1850 N1857 1.356 . S
C1851 C1850 1.363 . S
C1851 C1854 1.363 . S
N1852 C1854 1.356 . S
N1852 H1864 0.984 . S
N1852 H1865 0.985 . S
N1853 C1855 1.356 . S
N1853 H1858 0.984 . S
N1853 H1859 0.985 . S
C1854 C1848 1.379 . S
C1854 C1851 1.363 . S
C1854 N1852 1.356 . S
C1855 C1849 1.363 . S
C1855 C1850 1.379 . S
C1855 N1853 1.356 . S
N1856 C1848 1.356 . S
N1856 H1862 0.984 . S
N1856 H1863 0.984 . S
N1857 C1850 1.356 . S
N1857 H1860 0.984 . S
N1857 H1861 0.985 . S
H1858 N1853 0.984 . S
H1859 N1853 0.985 . S
H1860 N1857 0.984 . S
H1861 N1857 0.985 . S
H1862 N1856 0.984 . S
H1863 N1856 0.984 . S
H1864 N1852 0.984 . S
H1865 N1852 0.985 . S
C1866 C1867 1.363 . S
C1866 C1872 1.379 . S
C1866 N1874 1.356 . S
C1867 C1866 1.363 . S
C1867 C1873 1.363 . S
C1868 C1869 1.363 . S
C1868 C1873 1.379 . S
C1868 N1875 1.356 . S
C1869 C1868 1.363 . S
C1869 C1872 1.363 . S
N1870 C1872 1.356 . S
N1870 H1882 0.984 . S
N1870 H1883 0.985 . S
N1871 C1873 1.356 . S
N1871 H1876 0.984 . S
N1871 H1877 0.985 . S
C1872 C1866 1.379 . S
C1872 C1869 1.363 . S
C1872 N1870 1.356 . S
C1873 C1867 1.363 . S
C1873 C1868 1.379 . S
C1873 N1871 1.356 . S
N1874 C1866 1.356 . S
N1874 H1880 0.984 . S
N1874 H1881 0.984 . S
N1875 C1868 1.356 . S
N1875 H1878 0.984 . S
N1875 H1879 0.985 . S
H1876 N1871 0.984 . S
H1877 N1871 0.985 . S
H1878 N1875 0.984 . S
H1879 N1875 0.985 . S
H1880 N1874 0.984 . S
H1881 N1874 0.984 . S
H1882 N1870 0.984 . S
H1883 N1870 0.985 . S
C1884 C1885 1.363 . S
C1884 C1890 1.379 . S
C1884 N1892 1.356 . S
C1885 C1884 1.363 . S
C1885 C1891 1.363 . S
C1886 C1887 1.363 . S
C1886 C1891 1.379 . S
C1886 N1893 1.356 . S
C1887 C1886 1.363 . S
C1887 C1890 1.363 . S
N1888 C1890 1.356 . S
N1888 H1900 0.984 . S
N1888 H1901 0.985 . S
N1889 C1891 1.356 . S
N1889 H1894 0.984 . S
N1889 H1895 0.985 . S
C1890 C1884 1.379 . S
C1890 C1887 1.363 . S
C1890 N1888 1.356 . S
C1891 C1885 1.363 . S
C1891 C1886 1.379 . S
C1891 N1889 1.356 . S
N1892 C1884 1.356 . S
N1892 H1898 0.984 . S
N1892 H1899 0.984 . S
N1893 C1886 1.356 . S
N1893 H1896 0.984 . S
N1893 H1897 0.985 . S
H1894 N1889 0.984 . S
H1895 N1889 0.985 . S
H1896 N1893 0.984 . S
H1897 N1893 0.985 . S
H1898 N1892 0.984 . S
H1899 N1892 0.984 . S
H1900 N1888 0.984 . S
H1901 N1888 0.985 . S
C1902 C1903 1.363 1_455 S
C1902 C1908 1.379 . S
C1902 N1910 1.356 . S
C1903 C1902 1.363 1_655 S
C1903 C1909 1.363 . S
C1904 C1905 1.363 . S
C1904 C1909 1.379 . S
C1904 N1911 1.356 . S
C1905 C1904 1.363 . S
C1905 C1908 1.363 1_655 S
N1906 C1908 1.356 . S
N1906 H1918 0.984 . S
N1906 H1919 0.985 . S
N1907 C1909 1.356 . S
N1907 H1912 0.984 . S
N1907 H1913 0.985 . S
C1908 C1902 1.379 . S
C1908 C1905 1.363 1_455 S
C1908 N1906 1.356 . S
C1909 C1903 1.363 . S
C1909 C1904 1.379 . S
C1909 N1907 1.356 . S
N1910 C1902 1.356 . S
N1910 H1916 0.984 . S
N1910 H1917 0.984 . S
N1911 C1904 1.356 . S
N1911 H1914 0.984 . S
N1911 H1915 0.985 . S
H1912 N1907 0.984 . S
H1913 N1907 0.985 . S
H1914 N1911 0.984 . S
H1915 N1911 0.985 . S
H1916 N1910 0.984 . S
H1917 N1910 0.984 . S
H1918 N1906 0.984 . S
H1919 N1906 0.985 . S
C1920 C1921 1.363 . S
C1920 C1926 1.379 . S
C1920 N1928 1.356 . S
C1921 C1920 1.363 . S
C1921 C1927 1.363 . S
C1922 C1923 1.363 . S
C1922 C1927 1.379 . S
C1922 N1929 1.356 . S
C1923 C1922 1.363 . S
C1923 C1926 1.363 . S
N1924 C1926 1.356 . S
N1924 H1936 0.984 . S
N1924 H1937 0.985 . S
N1925 C1927 1.356 . S
N1925 H1930 0.984 . S
N1925 H1931 0.985 . S
C1926 C1920 1.379 . S
C1926 C1923 1.363 . S
C1926 N1924 1.356 . S
C1927 C1921 1.363 . S
C1927 C1922 1.379 . S
C1927 N1925 1.356 . S
N1928 C1920 1.356 . S
N1928 H1934 0.984 . S
N1928 H1935 0.984 . S
N1929 C1922 1.356 . S
N1929 H1932 0.984 . S
N1929 H1933 0.985 . S
H1930 N1925 0.984 . S
H1931 N1925 0.985 . S
H1932 N1929 0.984 . S
H1933 N1929 0.985 . S
H1934 N1928 0.984 . S
H1935 N1928 0.984 . S
H1936 N1924 0.984 . S
H1937 N1924 0.985 . S
C1938 C1939 1.363 . S
C1938 C1944 1.379 . S
C1938 N1946 1.356 . S
C1939 C1938 1.363 . S
C1939 C1945 1.363 . S
C1940 C1941 1.363 . S
C1940 C1945 1.379 . S
C1940 N1947 1.356 . S
C1941 C1940 1.363 . S
C1941 C1944 1.363 . S
N1942 C1944 1.356 . S
N1942 H1954 0.984 . S
N1942 H1955 0.985 . S
N1943 C1945 1.356 . S
N1943 H1948 0.984 . S
N1943 H1949 0.985 . S
C1944 C1938 1.379 . S
C1944 C1941 1.363 . S
C1944 N1942 1.356 . S
C1945 C1939 1.363 . S
C1945 C1940 1.379 . S
C1945 N1943 1.356 . S
N1946 C1938 1.356 . S
N1946 H1952 0.984 . S
N1946 H1953 0.984 . S
N1947 C1940 1.356 . S
N1947 H1950 0.984 . S
N1947 H1951 0.985 . S
H1948 N1943 0.984 . S
H1949 N1943 0.985 . S
H1950 N1947 0.984 . S
H1951 N1947 0.985 . S
H1952 N1946 0.984 . S
H1953 N1946 0.984 . S
H1954 N1942 0.984 . S
H1955 N1942 0.985 . S
C1956 C1957 1.363 . S
C1956 C1962 1.379 . S
C1956 N1964 1.356 . S
C1957 C1956 1.363 . S
C1957 C1963 1.374 . S
C1958 C1959 1.363 1_554 S
C1958 C1963 1.378 1_554 S
C1958 N1965 1.356 . S
C1959 C1958 1.363 1_556 S
C1959 C1962 1.363 . S
N1960 C1962 1.356 . S
N1960 H1972 0.984 . S
N1960 H1973 0.985 . S
N1961 C1963 1.349 1_554 S
N1961 H1966 0.984 . S
N1961 H1967 0.985 . S
C1962 C1956 1.379 . S
C1962 C1959 1.363 . S
C1962 N1960 1.356 . S
C1963 C1957 1.374 . S
C1963 C1958 1.378 1_556 S
C1963 N1961 1.349 1_556 S
N1964 C1956 1.356 . S
N1964 H1970 0.984 . S
N1964 H1971 0.984 . S
N1965 C1958 1.356 . S
N1965 H1968 0.984 . S
N1965 H1969 0.985 . S
H1966 N1961 0.984 . S
H1967 N1961 0.985 . S
H1968 N1965 0.984 . S
H1969 N1965 0.985 . S
H1970 N1964 0.984 . S
H1971 N1964 0.984 . S
H1972 N1960 0.984 . S
H1973 N1960 0.985 . S
C1974 C1975 1.363 . S
C1974 C1980 1.379 . S
C1974 N1982 1.356 . S
C1975 C1974 1.363 . S
C1975 C1981 1.363 . S
C1976 C1977 1.363 . S
C1976 C1981 1.379 . S
C1976 N1983 1.356 . S
C1977 C1976 1.363 . S
C1977 C1980 1.363 . S
N1978 C1980 1.356 . S
N1978 H1990 0.984 . S
N1978 H1991 0.985 . S
N1979 C1981 1.356 . S
N1979 H1984 0.984 . S
N1979 H1985 0.985 . S
C1980 C1974 1.379 . S
C1980 C1977 1.363 . S
C1980 N1978 1.356 . S
C1981 C1975 1.363 . S
C1981 C1976 1.379 . S
C1981 N1979 1.356 . S
N1982 C1974 1.356 . S
N1982 H1988 0.984 . S
N1982 H1989 0.984 . S
N1983 C1976 1.356 . S
N1983 H1986 0.984 . S
N1983 H1987 0.985 . S
H1984 N1979 0.984 . S
H1985 N1979 0.985 . S
H1986 N1983 0.984 . S
H1987 N1983 0.985 . S
H1988 N1982 0.984 . S
H1989 N1982 0.984 . S
H1990 N1978 0.984 . S
H1991 N1978 0.985 . S
C1992 C1993 1.363 . S
C1992 C1998 1.379 . S
C1992 N2000 1.356 . S
C1993 C1992 1.363 . S
C1993 C1999 1.363 . S
C1994 C1995 1.363 . S
C1994 C1999 1.379 . S
C1994 N2001 1.356 . S
C1995 C1994 1.363 . S
C1995 C1998 1.363 . S
N1996 C1998 1.356 . S
N1996 H2008 0.984 . S
N1996 H2009 0.985 . S
N1997 C1999 1.356 . S
N1997 H2002 0.984 . S
N1997 H2003 0.985 . S
C1998 C1992 1.379 . S
C1998 C1995 1.363 . S
C1998 N1996 1.356 . S
C1999 C1993 1.363 . S
C1999 C1994 1.379 . S
C1999 N1997 1.356 . S
N2000 C1992 1.356 . S
N2000 H2006 0.984 . S
N2000 H2007 0.984 . S
N2001 C1994 1.356 . S
N2001 H2004 0.984 . S
N2001 H2005 0.985 . S
H2002 N1997 0.984 . S
H2003 N1997 0.985 . S
H2004 N2001 0.984 . S
H2005 N2001 0.985 . S
H2006 N2000 0.984 . S
H2007 N2000 0.984 . S
H2008 N1996 0.984 . S
H2009 N1996 0.985 . S
C2010 C2011 1.363 . S
C2010 C2016 1.379 . S
C2010 N2018 1.356 . S
C2011 C2010 1.363 . S
C2011 C2017 1.363 . S
C2012 C2013 1.363 . S
C2012 C2017 1.379 . S
C2012 N2019 1.356 . S
C2013 C2012 1.363 . S
C2013 C2016 1.363 . S
N2014 C2016 1.356 . S
N2014 H2026 0.984 . S
N2014 H2027 0.985 . S
N2015 C2017 1.356 . S
N2015 H2020 0.984 . S
N2015 H2021 0.985 . S
C2016 C2010 1.379 . S
C2016 C2013 1.363 . S
C2016 N2014 1.356 . S
C2017 C2011 1.363 . S
C2017 C2012 1.379 . S
C2017 N2015 1.356 . S
N2018 C2010 1.356 . S
N2018 H2024 0.984 . S
N2018 H2025 0.984 . S
N2019 C2012 1.356 . S
N2019 H2022 0.984 . S
N2019 H2023 0.985 . S
H2020 N2015 0.984 . S
H2021 N2015 0.985 . S
H2022 N2019 0.984 . S
H2023 N2019 0.985 . S
H2024 N2018 0.984 . S
H2025 N2018 0.984 . S
H2026 N2014 0.984 . S
H2027 N2014 0.985 . S
C2028 C2029 1.363 . S
C2028 C2034 1.379 . S
C2028 N2036 1.356 . S
C2029 C2028 1.363 . S
C2029 C2035 1.363 . S
C2030 C2031 1.363 . S
C2030 C2035 1.379 . S
C2030 N2037 1.356 . S
C2031 C2030 1.363 . S
C2031 C2034 1.363 . S
N2032 C2034 1.356 . S
N2032 H2044 0.984 . S
N2032 H2045 0.985 . S
N2033 C2035 1.356 . S
N2033 H2038 0.984 . S
N2033 H2039 0.985 . S
C2034 C2028 1.379 . S
C2034 C2031 1.363 . S
C2034 N2032 1.356 . S
C2035 C2029 1.363 . S
C2035 C2030 1.379 . S
C2035 N2033 1.356 . S
N2036 C2028 1.356 . S
N2036 H2042 0.984 . S
N2036 H2043 0.984 . S
N2037 C2030 1.356 . S
N2037 H2040 0.984 . S
N2037 H2041 0.985 . S
H2038 N2033 0.984 . S
H2039 N2033 0.985 . S
H2040 N2037 0.984 . S
H2041 N2037 0.985 . S
H2042 N2036 0.984 . S
H2043 N2036 0.984 . S
H2044 N2032 0.984 . S
H2045 N2032 0.985 . S
C2046 C2047 1.363 . S
C2046 C2052 1.379 . S
C2046 N2054 1.356 . S
C2047 C2046 1.363 . S
C2047 C2053 1.363 . S
C2048 C2049 1.363 . S
C2048 C2053 1.379 . S
C2048 N2055 1.356 . S
C2049 C2048 1.363 . S
C2049 C2052 1.363 . S
N2050 C2052 1.356 . S
N2050 H2062 0.984 . S
N2050 H2063 0.985 . S
N2051 C2053 1.356 . S
N2051 H2056 0.984 . S
N2051 H2057 0.985 . S
C2052 C2046 1.379 . S
C2052 C2049 1.363 . S
C2052 N2050 1.356 . S
C2053 C2047 1.363 . S
C2053 C2048 1.379 . S
C2053 N2051 1.356 . S
N2054 C2046 1.356 . S
N2054 H2060 0.984 . S
N2054 H2061 0.984 . S
N2055 C2048 1.356 . S
N2055 H2058 0.984 . S
N2055 H2059 0.985 . S
H2056 N2051 0.984 . S
H2057 N2051 0.985 . S
H2058 N2055 0.984 . S
H2059 N2055 0.985 . S
H2060 N2054 0.984 . S
H2061 N2054 0.984 . S
H2062 N2050 0.984 . S
H2063 N2050 0.985 . S
C2064 C2065 1.363 . S
C2064 C2070 1.379 . S
C2064 N2072 1.356 . S
C2065 C2064 1.363 . S
C2065 C2071 1.363 . S
C2066 C2067 1.363 . S
C2066 C2071 1.379 . S
C2066 N2073 1.356 . S
C2067 C2066 1.363 . S
C2067 C2070 1.363 . S
N2068 C2070 1.356 . S
N2068 H2080 0.984 . S
N2068 H2081 0.985 . S
N2069 C2071 1.356 . S
N2069 H2074 0.984 . S
N2069 H2075 0.985 . S
C2070 C2064 1.379 . S
C2070 C2067 1.363 . S
C2070 N2068 1.356 . S
C2071 C2065 1.363 . S
C2071 C2066 1.379 . S
C2071 N2069 1.356 . S
N2072 C2064 1.356 . S
N2072 H2078 0.984 . S
N2072 H2079 0.984 . S
N2073 C2066 1.356 . S
N2073 H2076 0.984 . S
N2073 H2077 0.985 . S
H2074 N2069 0.984 . S
H2075 N2069 0.985 . S
H2076 N2073 0.984 . S
H2077 N2073 0.985 . S
H2078 N2072 0.984 . S
H2079 N2072 0.984 . S
H2080 N2068 0.984 . S
H2081 N2068 0.985 . S
C2082 C2083 1.395 . S
C2082 C2088 1.375 1_545 S
C2082 N2090 1.335 1_545 S
C2083 C2082 1.395 . S
C2083 C2089 1.363 . S
C2084 C2085 1.363 . S
C2084 C2089 1.379 . S
C2084 N2091 1.356 . S
C2085 C2084 1.363 . S
C2085 C2088 1.336 1_545 S
N2086 C2088 1.382 . S
N2086 H2098 0.984 . S
N2086 H2099 0.985 . S
N2087 C2089 1.356 . S
N2087 H2092 0.984 . S
N2087 H2093 0.985 . S
C2088 C2082 1.375 1_565 S
C2088 C2085 1.336 1_565 S
C2088 N2086 1.382 . S
C2089 C2083 1.363 . S
C2089 C2084 1.379 . S
C2089 N2087 1.356 . S
N2090 C2082 1.335 1_565 S
N2090 H2096 0.984 . S
N2090 H2097 0.984 . S
N2091 C2084 1.356 . S
N2091 H2094 0.984 . S
N2091 H2095 0.985 . S
H2092 N2087 0.984 . S
H2093 N2087 0.985 . S
H2094 N2091 0.984 . S
H2095 N2091 0.985 . S
H2096 N2090 0.984 . S
H2097 N2090 0.984 . S
H2098 N2086 0.984 . S
H2099 N2086 0.985 . S
C2100 C2101 1.363 . S
C2100 C2106 1.379 . S
C2100 N2108 1.356 . S
C2101 C2100 1.363 . S
C2101 C2107 1.363 . S
C2102 C2103 1.363 . S
C2102 C2107 1.379 . S
C2102 N2109 1.356 . S
C2103 C2102 1.363 . S
C2103 C2106 1.363 . S
N2104 C2106 1.356 . S
N2104 H2116 0.984 . S
N2104 H2117 0.985 . S
N2105 C2107 1.356 . S
N2105 H2110 0.984 . S
N2105 H2111 0.985 . S
C2106 C2100 1.379 . S
C2106 C2103 1.363 . S
C2106 N2104 1.356 . S
C2107 C2101 1.363 . S
C2107 C2102 1.379 . S
C2107 N2105 1.356 . S
N2108 C2100 1.356 . S
N2108 H2114 0.984 . S
N2108 H2115 0.984 . S
N2109 C2102 1.356 . S
N2109 H2112 0.984 . S
N2109 H2113 0.985 . S
H2110 N2105 0.984 . S
H2111 N2105 0.985 . S
H2112 N2109 0.984 . S
H2113 N2109 0.985 . S
H2114 N2108 0.984 . S
H2115 N2108 0.984 . S
H2116 N2104 0.984 . S
H2117 N2104 0.985 . S
C2118 C2119 1.363 . S
C2118 C2124 1.379 . S
C2118 N2126 1.356 . S
C2119 C2118 1.363 . S
C2119 C2125 1.363 . S
C2120 C2121 1.363 . S
C2120 C2125 1.379 . S
C2120 N2127 1.356 . S
C2121 C2120 1.363 . S
C2121 C2124 1.363 . S
N2122 C2124 1.356 . S
N2122 H2134 0.984 . S
N2122 H2135 0.985 . S
N2123 C2125 1.356 . S
N2123 H2128 0.984 . S
N2123 H2129 0.985 . S
C2124 C2118 1.379 . S
C2124 C2121 1.363 . S
C2124 N2122 1.356 . S
C2125 C2119 1.363 . S
C2125 C2120 1.379 . S
C2125 N2123 1.356 . S
N2126 C2118 1.356 . S
N2126 H2132 0.984 . S
N2126 H2133 0.984 . S
N2127 C2120 1.356 . S
N2127 H2130 0.984 . S
N2127 H2131 0.985 . S
H2128 N2123 0.984 . S
H2129 N2123 0.985 . S
H2130 N2127 0.984 . S
H2131 N2127 0.985 . S
H2132 N2126 0.984 . S
H2133 N2126 0.984 . S
H2134 N2122 0.984 . S
H2135 N2122 0.985 . S
C2136 C2137 1.363 . S
C2136 C2142 1.379 . S
C2136 N2144 1.356 . S
C2137 C2136 1.363 . S
C2137 C2143 1.363 . S
C2138 C2139 1.363 . S
C2138 C2143 1.379 . S
C2138 N2145 1.356 . S
C2139 C2138 1.363 . S
C2139 C2142 1.363 . S
N2140 C2142 1.356 . S
N2140 H2152 0.984 . S
N2140 H2153 0.985 . S
N2141 C2143 1.356 . S
N2141 H2146 0.984 . S
N2141 H2147 0.985 . S
C2142 C2136 1.379 . S
C2142 C2139 1.363 . S
C2142 N2140 1.356 . S
C2143 C2137 1.363 . S
C2143 C2138 1.379 . S
C2143 N2141 1.356 . S
N2144 C2136 1.356 . S
N2144 H2150 0.984 . S
N2144 H2151 0.984 . S
N2145 C2138 1.356 . S
N2145 H2148 0.984 . S
N2145 H2149 0.985 . S
H2146 N2141 0.984 . S
H2147 N2141 0.985 . S
H2148 N2145 0.984 . S
H2149 N2145 0.985 . S
H2150 N2144 0.984 . S
H2151 N2144 0.984 . S
H2152 N2140 0.984 . S
H2153 N2140 0.985 . S
C2154 C2155 1.363 . S
C2154 C2160 1.379 . S
C2154 N2162 1.356 . S
C2155 C2154 1.363 . S
C2155 C2161 1.335 1_545 S
C2156 C2157 1.363 1_565 S
C2156 C2161 1.381 . S
C2156 N2163 1.356 . S
C2157 C2156 1.363 1_545 S
C2157 C2160 1.363 . S
N2158 C2160 1.356 . S
N2158 H2170 0.984 . S
N2158 H2171 0.985 . S
N2159 C2161 1.377 . S
N2159 H2164 0.984 . S
N2159 H2165 0.985 . S
C2160 C2154 1.379 . S
C2160 C2157 1.363 . S
C2160 N2158 1.356 . S
C2161 C2155 1.335 1_565 S
C2161 C2156 1.381 . S
C2161 N2159 1.377 . S
N2162 C2154 1.356 . S
N2162 H2168 0.984 . S
N2162 H2169 0.984 . S
N2163 C2156 1.356 . S
N2163 H2166 0.984 . S
N2163 H2167 0.985 . S
H2164 N2159 0.984 . S
H2165 N2159 0.985 . S
H2166 N2163 0.984 . S
H2167 N2163 0.985 . S
H2168 N2162 0.984 . S
H2169 N2162 0.984 . S
H2170 N2158 0.984 . S
H2171 N2158 0.985 . S
C2172 C2173 1.363 . S
C2172 C2178 1.379 . S
C2172 N2180 1.356 . S
C2173 C2172 1.363 . S
C2173 C2179 1.363 . S
C2174 C2175 1.363 . S
C2174 C2179 1.379 . S
C2174 N2181 1.356 . S
C2175 C2174 1.363 . S
C2175 C2178 1.363 . S
N2176 C2178 1.356 . S
N2176 H2188 0.984 . S
N2176 H2189 0.985 . S
N2177 C2179 1.356 . S
N2177 H2182 0.984 . S
N2177 H2183 0.985 . S
C2178 C2172 1.379 . S
C2178 C2175 1.363 . S
C2178 N2176 1.356 . S
C2179 C2173 1.363 . S
C2179 C2174 1.379 . S
C2179 N2177 1.356 . S
N2180 C2172 1.356 . S
N2180 H2186 0.984 . S
N2180 H2187 0.984 . S
N2181 C2174 1.356 . S
N2181 H2184 0.984 . S
N2181 H2185 0.985 . S
H2182 N2177 0.984 . S
H2183 N2177 0.985 . S
H2184 N2181 0.984 . S
H2185 N2181 0.985 . S
H2186 N2180 0.984 . S
H2187 N2180 0.984 . S
H2188 N2176 0.984 . S
H2189 N2176 0.985 . S
C2190 C2191 1.363 . S
C2190 C2196 1.379 . S
C2190 N2198 1.356 . S
C2191 C2190 1.363 . S
C2191 C2197 1.363 . S
C2192 C2193 1.363 . S
C2192 C2197 1.379 . S
C2192 N2199 1.356 . S
C2193 C2192 1.363 . S
C2193 C2196 1.363 . S
N2194 C2196 1.356 . S
N2194 H2206 0.984 . S
N2194 H2207 0.985 . S
N2195 C2197 1.356 . S
N2195 H2200 0.984 . S
N2195 H2201 0.985 . S
C2196 C2190 1.379 . S
C2196 C2193 1.363 . S
C2196 N2194 1.356 . S
C2197 C2191 1.363 . S
C2197 C2192 1.379 . S
C2197 N2195 1.356 . S
N2198 C2190 1.356 . S
N2198 H2204 0.984 . S
N2198 H2205 0.984 . S
N2199 C2192 1.356 . S
N2199 H2202 0.984 . S
N2199 H2203 0.985 . S
H2200 N2195 0.984 . S
H2201 N2195 0.985 . S
H2202 N2199 0.984 . S
H2203 N2199 0.985 . S
H2204 N2198 0.984 . S
H2205 N2198 0.984 . S
H2206 N2194 0.984 . S
H2207 N2194 0.985 . S
C2208 C2209 1.363 . S
C2208 C2214 1.379 . S
C2208 N2216 1.356 . S
C2209 C2208 1.363 . S
C2209 C2215 1.363 . S
C2210 C2211 1.363 . S
C2210 C2215 1.379 . S
C2210 N2217 1.356 . S
C2211 C2210 1.363 . S
C2211 C2214 1.363 . S
N2212 C2214 1.356 . S
N2212 H2224 0.984 . S
N2212 H2225 0.985 . S
N2213 C2215 1.356 . S
N2213 H2218 0.984 . S
N2213 H2219 0.985 . S
C2214 C2208 1.379 . S
C2214 C2211 1.363 . S
C2214 N2212 1.356 . S
C2215 C2209 1.363 . S
C2215 C2210 1.379 . S
C2215 N2213 1.356 . S
N2216 C2208 1.356 . S
N2216 H2222 0.984 . S
N2216 H2223 0.984 . S
N2217 C2210 1.356 . S
N2217 H2220 0.984 . S
N2217 H2221 0.985 . S
H2218 N2213 0.984 . S
H2219 N2213 0.985 . S
H2220 N2217 0.984 . S
H2221 N2217 0.985 . S
H2222 N2216 0.984 . S
H2223 N2216 0.984 . S
H2224 N2212 0.984 . S
H2225 N2212 0.985 . S
C2226 C2227 1.363 . S
C2226 C2232 1.378 1_655 S
C2226 N2234 1.356 1_655 S
C2227 C2226 1.363 . S
C2227 C2233 1.363 . S
C2228 C2229 1.363 . S
C2228 C2233 1.379 . S
C2228 N2235 1.356 . S
C2229 C2228 1.363 . S
C2229 C2232 1.359 1_655 S
N2230 C2232 1.360 . S
N2230 H2242 0.984 . S
N2230 H2243 0.985 . S
N2231 C2233 1.356 . S
N2231 H2236 0.984 . S
N2231 H2237 0.985 . S
C2232 C2226 1.378 1_455 S
C2232 C2229 1.359 1_455 S
C2232 N2230 1.360 . S
C2233 C2227 1.363 . S
C2233 C2228 1.379 . S
C2233 N2231 1.356 . S
N2234 C2226 1.356 1_455 S
N2234 H2240 0.984 . S
N2234 H2241 0.984 . S
N2235 C2228 1.356 . S
N2235 H2238 0.984 . S
N2235 H2239 0.985 . S
H2236 N2231 0.984 . S
H2237 N2231 0.985 . S
H2238 N2235 0.984 . S
H2239 N2235 0.985 . S
H2240 N2234 0.984 . S
H2241 N2234 0.984 . S
H2242 N2230 0.984 . S
H2243 N2230 0.985 . S
C2244 C2245 1.363 . S
C2244 C2250 1.379 . S
C2244 N2252 1.356 . S
C2245 C2244 1.363 . S
C2245 C2251 1.363 . S
C2246 C2247 1.363 . S
C2246 C2251 1.379 . S
C2246 N2253 1.356 . S
C2247 C2246 1.363 . S
C2247 C2250 1.363 . S
N2248 C2250 1.356 . S
N2248 H2260 0.984 . S
N2248 H2261 0.985 . S
N2249 C2251 1.356 . S
N2249 H2254 0.984 . S
N2249 H2255 0.985 . S
C2250 C2244 1.379 . S
C2250 C2247 1.363 . S
C2250 N2248 1.356 . S
C2251 C2245 1.363 . S
C2251 C2246 1.379 . S
C2251 N2249 1.356 . S
N2252 C2244 1.356 . S
N2252 H2258 0.984 . S
N2252 H2259 0.984 . S
N2253 C2246 1.356 . S
N2253 H2256 0.984 . S
N2253 H2257 0.985 . S
H2254 N2249 0.984 . S
H2255 N2249 0.985 . S
H2256 N2253 0.984 . S
H2257 N2253 0.985 . S
H2258 N2252 0.984 . S
H2259 N2252 0.984 . S
H2260 N2248 0.984 . S
H2261 N2248 0.985 . S
C2262 C2263 1.363 . S
C2262 C2268 1.379 . S
C2262 N2270 1.345 1_455 S
C2263 C2262 1.363 . S
C2263 C2269 1.363 . S
C2264 C2265 1.363 . S
C2264 C2269 1.379 . S
C2264 N2271 1.356 . S
C2265 C2264 1.363 . S
C2265 C2268 1.363 . S
N2266 C2268 1.356 1_655 S
N2266 H2278 0.984 . S
N2266 H2279 0.985 . S
N2267 C2269 1.356 . S
N2267 H2272 0.984 . S
N2267 H2273 0.985 . S
C2268 C2262 1.379 . S
C2268 C2265 1.363 . S
C2268 N2266 1.356 1_455 S
C2269 C2263 1.363 . S
C2269 C2264 1.379 . S
C2269 N2267 1.356 . S
N2270 C2262 1.345 1_655 S
N2270 H2276 1.005 1_556 S
N2270 H2277 0.977 1_655 S
N2271 C2264 1.356 . S
N2271 H2274 0.984 . S
N2271 H2275 0.985 . S
H2272 N2267 0.984 . S
H2273 N2267 0.985 . S
H2274 N2271 0.984 . S
H2275 N2271 0.985 . S
H2276 N2270 1.005 1_554 S
H2277 N2270 0.977 1_455 S
H2278 N2266 0.984 . S
H2279 N2266 0.985 . S
C2280 C2281 1.363 . S
C2280 C2286 1.379 . S
C2280 N2288 1.356 . S
C2281 C2280 1.363 . S
C2281 C2287 1.363 . S
C2282 C2283 1.363 . S
C2282 C2287 1.379 . S
C2282 N2289 1.356 . S
C2283 C2282 1.363 . S
C2283 C2286 1.363 . S
N2284 C2286 1.356 . S
N2284 H2296 0.984 . S
N2284 H2297 0.985 . S
N2285 C2287 1.356 . S
N2285 H2290 0.984 . S
N2285 H2291 0.985 . S
C2286 C2280 1.379 . S
C2286 C2283 1.363 . S
C2286 N2284 1.356 . S
C2287 C2281 1.363 . S
C2287 C2282 1.379 . S
C2287 N2285 1.356 . S
N2288 C2280 1.356 . S
N2288 H2294 0.984 . S
N2288 H2295 0.984 . S
N2289 C2282 1.356 . S
N2289 H2292 0.984 . S
N2289 H2293 0.985 . S
H2290 N2285 0.984 . S
H2291 N2285 0.985 . S
H2292 N2289 0.984 . S
H2293 N2289 0.985 . S
H2294 N2288 0.984 . S
H2295 N2288 0.984 . S
H2296 N2284 0.984 . S
H2297 N2284 0.985 . S
C2298 C2299 1.363 . S
C2298 C2304 1.379 . S
C2298 N2306 1.356 . S
C2299 C2298 1.363 . S
C2299 C2305 1.363 . S
C2300 C2301 1.363 . S
C2300 C2305 1.379 . S
C2300 N2307 1.356 . S
C2301 C2300 1.363 . S
C2301 C2304 1.363 . S
N2302 C2304 1.356 . S
N2302 H2314 0.984 . S
N2302 H2315 0.985 . S
N2303 C2305 1.356 . S
N2303 H2308 0.984 . S
N2303 H2309 0.985 . S
C2304 C2298 1.379 . S
C2304 C2301 1.363 . S
C2304 N2302 1.356 . S
C2305 C2299 1.363 . S
C2305 C2300 1.379 . S
C2305 N2303 1.356 . S
N2306 C2298 1.356 . S
N2306 H2312 0.980 1_554 S
N2306 H2313 0.984 . S
N2307 C2300 1.356 . S
N2307 H2310 0.984 . S
N2307 H2311 0.985 . S
H2308 N2303 0.984 . S
H2309 N2303 0.985 . S
H2310 N2307 0.984 . S
H2311 N2307 0.985 . S
H2312 N2306 0.980 1_556 S
H2313 N2306 0.984 . S
H2314 N2302 0.984 . S
H2315 N2302 0.985 . S
C2316 C2317 1.363 . S
C2316 C2322 1.379 . S
C2316 N2324 1.356 . S
C2317 C2316 1.363 . S
C2317 C2323 1.363 . S
C2318 C2319 1.363 . S
C2318 C2323 1.379 . S
C2318 N2325 1.356 . S
C2319 C2318 1.363 . S
C2319 C2322 1.363 . S
N2320 C2322 1.356 . S
N2320 H2332 0.984 . S
N2320 H2333 0.985 . S
N2321 C2323 1.356 . S
N2321 H2326 0.984 . S
N2321 H2327 0.985 . S
C2322 C2316 1.379 . S
C2322 C2319 1.363 . S
C2322 N2320 1.356 . S
C2323 C2317 1.363 . S
C2323 C2318 1.379 . S
C2323 N2321 1.356 . S
N2324 C2316 1.356 . S
N2324 H2330 0.984 . S
N2324 H2331 0.984 . S
N2325 C2318 1.356 . S
N2325 H2328 0.984 . S
N2325 H2329 0.985 . S
H2326 N2321 0.984 . S
H2327 N2321 0.985 . S
H2328 N2325 0.984 . S
H2329 N2325 0.985 . S
H2330 N2324 0.984 . S
H2331 N2324 0.984 . S
H2332 N2320 0.984 . S
H2333 N2320 0.985 . S
C2334 C2335 1.363 . S
C2334 C2340 1.379 . S
C2334 N2342 1.356 . S
C2335 C2334 1.363 . S
C2335 C2341 1.363 . S
C2336 C2337 1.363 . S
C2336 C2341 1.379 . S
C2336 N2343 1.356 . S
C2337 C2336 1.363 . S
C2337 C2340 1.363 . S
N2338 C2340 1.356 . S
N2338 H2350 0.984 . S
N2338 H2351 0.985 . S
N2339 C2341 1.356 . S
N2339 H2344 0.984 . S
N2339 H2345 0.985 . S
C2340 C2334 1.379 . S
C2340 C2337 1.363 . S
C2340 N2338 1.356 . S
C2341 C2335 1.363 . S
C2341 C2336 1.379 . S
C2341 N2339 1.356 . S
N2342 C2334 1.356 . S
N2342 H2348 0.984 . S
N2342 H2349 0.984 . S
N2343 C2336 1.356 . S
N2343 H2346 0.984 . S
N2343 H2347 0.985 . S
H2344 N2339 0.984 . S
H2345 N2339 0.985 . S
H2346 N2343 0.984 . S
H2347 N2343 0.985 . S
H2348 N2342 0.984 . S
H2349 N2342 0.984 . S
H2350 N2338 0.984 . S
H2351 N2338 0.985 . S
C2352 C2353 1.363 . S
C2352 C2358 1.379 . S
C2352 N2360 1.356 . S
C2353 C2352 1.363 . S
C2353 C2359 1.363 . S
C2354 C2355 1.363 . S
C2354 C2359 1.379 . S
C2354 N2361 1.356 . S
C2355 C2354 1.363 . S
C2355 C2358 1.363 . S
N2356 C2358 1.356 . S
N2356 H2368 0.984 . S
N2356 H2369 0.985 . S
N2357 C2359 1.356 . S
N2357 H2362 0.984 . S
N2357 H2363 0.985 . S
C2358 C2352 1.379 . S
C2358 C2355 1.363 . S
C2358 N2356 1.356 . S
C2359 C2353 1.363 . S
C2359 C2354 1.379 . S
C2359 N2357 1.356 . S
N2360 C2352 1.356 . S
N2360 H2366 0.984 . S
N2360 H2367 0.984 . S
N2361 C2354 1.356 . S
N2361 H2364 0.984 . S
N2361 H2365 0.985 . S
H2362 N2357 0.984 . S
H2363 N2357 0.985 . S
H2364 N2361 0.984 . S
H2365 N2361 0.985 . S
H2366 N2360 0.984 . S
H2367 N2360 0.984 . S
H2368 N2356 0.984 . S
H2369 N2356 0.985 . S
C2370 C2371 1.363 . S
C2370 C2376 1.379 . S
C2370 N2378 1.356 . S
C2371 C2370 1.363 . S
C2371 C2377 1.363 . S
C2372 C2373 1.363 . S
C2372 C2377 1.379 . S
C2372 N2379 1.356 . S
C2373 C2372 1.363 . S
C2373 C2376 1.363 . S
N2374 C2376 1.356 . S
N2374 H2386 0.984 . S
N2374 H2387 0.985 . S
N2375 C2377 1.356 . S
N2375 H2380 0.984 . S
N2375 H2381 0.985 . S
C2376 C2370 1.379 . S
C2376 C2373 1.363 . S
C2376 N2374 1.356 . S
C2377 C2371 1.363 . S
C2377 C2372 1.379 . S
C2377 N2375 1.356 . S
N2378 C2370 1.356 . S
N2378 H2384 0.984 . S
N2378 H2385 0.984 . S
N2379 C2372 1.356 . S
N2379 H2382 0.984 . S
N2379 H2383 0.985 . S
H2380 N2375 0.984 . S
H2381 N2375 0.985 . S
H2382 N2379 0.984 . S
H2383 N2379 0.985 . S
H2384 N2378 0.984 . S
H2385 N2378 0.984 . S
H2386 N2374 0.984 . S
H2387 N2374 0.985 . S
C2388 C2389 1.363 . S
C2388 C2394 1.379 . S
C2388 N2396 1.356 . S
C2389 C2388 1.363 . S
C2389 C2395 1.363 . S
C2390 C2391 1.363 . S
C2390 C2395 1.379 . S
C2390 N2397 1.356 . S
C2391 C2390 1.363 . S
C2391 C2394 1.363 . S
N2392 C2394 1.356 . S
N2392 H2404 0.984 . S
N2392 H2405 0.985 . S
N2393 C2395 1.356 . S
N2393 H2398 0.984 . S
N2393 H2399 0.985 . S
C2394 C2388 1.379 . S
C2394 C2391 1.363 . S
C2394 N2392 1.356 . S
C2395 C2389 1.363 . S
C2395 C2390 1.379 . S
C2395 N2393 1.356 . S
N2396 C2388 1.356 . S
N2396 H2402 0.984 . S
N2396 H2403 0.984 . S
N2397 C2390 1.356 . S
N2397 H2400 0.984 . S
N2397 H2401 0.985 . S
H2398 N2393 0.984 . S
H2399 N2393 0.985 . S
H2400 N2397 0.984 . S
H2401 N2397 0.985 . S
H2402 N2396 0.984 . S
H2403 N2396 0.984 . S
H2404 N2392 0.984 . S
H2405 N2392 0.985 . S
C2406 C2407 1.363 . S
C2406 C2412 1.379 . S
C2406 N2414 1.356 . S
C2407 C2406 1.363 . S
C2407 C2413 1.363 . S
C2408 C2409 1.363 . S
C2408 C2413 1.379 . S
C2408 N2415 1.356 . S
C2409 C2408 1.363 . S
C2409 C2412 1.363 . S
N2410 C2412 1.356 . S
N2410 H2422 0.984 . S
N2410 H2423 0.985 . S
N2411 C2413 1.356 . S
N2411 H2416 0.984 . S
N2411 H2417 0.985 . S
C2412 C2406 1.379 . S
C2412 C2409 1.363 . S
C2412 N2410 1.356 . S
C2413 C2407 1.363 . S
C2413 C2408 1.379 . S
C2413 N2411 1.356 . S
N2414 C2406 1.356 . S
N2414 H2420 0.984 . S
N2414 H2421 0.984 . S
N2415 C2408 1.356 . S
N2415 H2418 0.984 . S
N2415 H2419 0.985 . S
H2416 N2411 0.984 . S
H2417 N2411 0.985 . S
H2418 N2415 0.984 . S
H2419 N2415 0.985 . S
H2420 N2414 0.984 . S
H2421 N2414 0.984 . S
H2422 N2410 0.984 . S
H2423 N2410 0.985 . S
C2424 C2425 1.363 1_554 S
C2424 C2430 1.379 . S
C2424 N2432 1.356 . S
C2425 C2424 1.363 1_556 S
C2425 C2431 1.363 . S
C2426 C2427 1.363 . S
C2426 C2431 1.379 . S
C2426 N2433 1.356 . S
C2427 C2426 1.363 . S
C2427 C2430 1.363 1_556 S
N2428 C2430 1.356 . S
N2428 H2440 0.984 . S
N2428 H2441 0.985 . S
N2429 C2431 1.356 . S
N2429 H2434 0.984 . S
N2429 H2435 0.985 . S
C2430 C2424 1.379 . S
C2430 C2427 1.363 1_554 S
C2430 N2428 1.356 . S
C2431 C2425 1.363 . S
C2431 C2426 1.379 . S
C2431 N2429 1.356 . S
N2432 C2424 1.356 . S
N2432 H2438 0.984 . S
N2432 H2439 0.984 . S
N2433 C2426 1.356 . S
N2433 H2436 0.984 . S
N2433 H2437 0.985 . S
H2434 N2429 0.984 . S
H2435 N2429 0.985 . S
H2436 N2433 0.984 . S
H2437 N2433 0.985 . S
H2438 N2432 0.984 . S
H2439 N2432 0.984 . S
H2440 N2428 0.984 . S
H2441 N2428 0.985 . S
C2442 C2443 1.363 . S
C2442 C2448 1.379 . S
C2442 N2450 1.356 . S
C2443 C2442 1.363 . S
C2443 C2449 1.363 . S
C2444 C2445 1.363 . S
C2444 C2449 1.379 . S
C2444 N2451 1.356 . S
C2445 C2444 1.363 . S
C2445 C2448 1.363 . S
N2446 C2448 1.356 . S
N2446 H2458 0.984 . S
N2446 H2459 0.985 . S
N2447 C2449 1.356 . S
N2447 H2452 0.984 . S
N2447 H2453 0.985 . S
C2448 C2442 1.379 . S
C2448 C2445 1.363 . S
C2448 N2446 1.356 . S
C2449 C2443 1.363 . S
C2449 C2444 1.379 . S
C2449 N2447 1.356 . S
N2450 C2442 1.356 . S
N2450 H2456 0.984 . S
N2450 H2457 0.984 . S
N2451 C2444 1.356 . S
N2451 H2454 0.984 . S
N2451 H2455 0.985 . S
H2452 N2447 0.984 . S
H2453 N2447 0.985 . S
H2454 N2451 0.984 . S
H2455 N2451 0.985 . S
H2456 N2450 0.984 . S
H2457 N2450 0.984 . S
H2458 N2446 0.984 . S
H2459 N2446 0.985 . S
C2460 C2461 1.363 . S
C2460 C2466 1.381 . S
C2460 N2468 1.356 1_554 S
C2461 C2460 1.363 . S
C2461 C2467 1.363 . S
C2462 C2463 1.363 . S
C2462 C2467 1.379 . S
C2462 N2469 1.356 . S
C2463 C2462 1.363 . S
C2463 C2466 1.379 . S
N2464 C2466 1.341 1_556 S
N2464 H2476 0.984 . S
N2464 H2477 0.985 . S
N2465 C2467 1.356 . S
N2465 H2470 0.984 . S
N2465 H2471 0.985 . S
C2466 C2460 1.381 . S
C2466 C2463 1.379 . S
C2466 N2464 1.341 1_554 S
C2467 C2461 1.363 . S
C2467 C2462 1.379 . S
C2467 N2465 1.356 . S
N2468 C2460 1.356 1_556 S
N2468 H2474 0.984 . S
N2468 H2475 0.984 . S
N2469 C2462 1.356 . S
N2469 H2472 0.984 . S
N2469 H2473 0.985 . S
H2470 N2465 0.984 . S
H2471 N2465 0.985 . S
H2472 N2469 0.984 . S
H2473 N2469 0.985 . S
H2474 N2468 0.984 . S
H2475 N2468 0.984 . S
H2476 N2464 0.984 . S
H2477 N2464 0.985 . S
C2478 C2479 1.363 . S
C2478 C2484 1.379 . S
C2478 N2486 1.356 . S
C2479 C2478 1.363 . S
C2479 C2485 1.391 . S
C2480 C2481 1.343 1_556 S
C2480 C2485 1.376 1_556 S
C2480 N2487 1.375 . S
C2481 C2480 1.343 1_554 S
C2481 C2484 1.363 . S
N2482 C2484 1.356 . S
N2482 H2494 0.984 . S
N2482 H2495 0.985 . S
N2483 C2485 1.337 1_556 S
N2483 H2488 0.984 . S
N2483 H2489 0.985 . S
C2484 C2478 1.379 . S
C2484 C2481 1.363 . S
C2484 N2482 1.356 . S
C2485 C2479 1.391 . S
C2485 C2480 1.376 1_554 S
C2485 N2483 1.337 1_554 S
N2486 C2478 1.356 . S
N2486 H2492 0.984 . S
N2486 H2493 0.984 . S
N2487 C2480 1.375 . S
N2487 H2490 0.984 . S
N2487 H2491 0.985 . S
H2488 N2483 0.984 . S
H2489 N2483 0.985 . S
H2490 N2487 0.984 . S
H2491 N2487 0.985 . S
H2492 N2486 0.984 . S
H2493 N2486 0.984 . S
H2494 N2482 0.984 . S
H2495 N2482 0.985 . S
C1635 C625 1.503 . S
C1633 C181 1.492 . S
C1653 C684 1.520 . S
C1651 C247 1.522 . S
C1669 C283 1.506 . S
C1671 C801 1.522 . S
C1689 C869 1.521 . S
C1687 C169 1.506 . S
C1707 C948 1.513 . S
C1705 C361 1.503 . S
C1725 C1073 1.522 . S
C1723 C433 1.510 . S
C1741 C421 1.496 . S
C1743 C1133 1.510 . S
C1761 C1241 1.532 . S
C1759 C355 1.534 . S
C1777 C427 1.511 . S
C1779 C1337 1.525 . S
C1797 C1397 1.524 . S
C1795 C325 1.524 . S
C1813 C385 1.498 . S
C1815 C1300 1.510 . S
C1833 C1417 1.526 . S
C1831 C463 1.511 . S
C1849 C253 1.511 . S
C1851 C1485 1.522 . S
C1867 C145 1.513 . S
C1869 C1476 1.525 . S
C1885 C205 1.482 . S
C1887 C1505 1.495 . S
C1903 C217 1.514 . S
C1905 C1513 1.514 . S
C1921 C139 1.508 . S
C1923 C897 1.521 . S
C1939 C535 1.499 . S
C1941 C860 1.512 . S
C1959 C596 1.504 . S
C1957 C565 1.506 . S
C1977 C693 1.512 . S
C1975 C313 1.498 . S
C1993 C175 1.520 . S
C1995 C957 1.535 . S
C2013 C1249 1.509 . S
C2011 C397 1.495 . S
C2031 C977 1.520 . S
C2029 C349 1.522 . S
C2049 C1161 1.530 . S
C2047 C457 1.514 . S
C2067 C1153 1.503 . S
C2065 C505 1.492 . S
C2083 C571 1.522 . S
C2085 C1221 1.520 . S
C2101 C319 1.506 . S
C2103 C985 1.519 . S
C2121 C1036 1.521 . S
C2119 C493 1.505 . S
C2137 C109 1.503 . S
C2139 C781 1.510 . S
C2157 C889 1.522 . S
C2155 C1 1.510 . S
C2175 C605 1.510 . S
C2173 C61 1.496 . S
C2193 C721 1.532 . S
C2191 C103 1.534 . S
C2209 C67 1.511 . S
C2211 C1425 1.524 . S
C2227 C73 1.524 . S
C2229 C1309 1.524 . S
C2245 C133 1.498 . S
C2247 C1388 1.511 . S
C2263 C31 1.511 . S
C2265 C1329 1.526 . S
C2283 C1573 1.522 . S
C2281 C289 1.511 . S
C2301 C1564 1.525 . S
C2299 C469 1.512 . S
C2319 C1593 1.495 . S
C2317 C529 1.482 . S
C2335 C541 1.514 . S
C2337 C1601 1.514 . S
C2353 C391 1.508 . S
C2355 C1065 1.521 . S
C2373 C1045 1.512 . S
C2371 C211 1.499 . S
C2391 C1124 1.504 . S
C2389 C241 1.506 . S
C2409 C1212 1.512 . S
C2407 C277 1.501 . S
C2425 C499 1.520 . S
C2427 C772 1.535 . S
C2445 C713 1.509 . S
C2443 C37 1.498 . S
C2461 C97 1.522 . S
C2463 C809 1.520 . S
C2481 C633 1.530 . S
C2479 C25 1.514 . S
