# Generated by pormake.
# Topology ptr, (4,4)-cn, num edge types: 1
# Building blocks:
#     Node 0, Type 0, BuildingBlock: AZAVOO_clean_sbu_0, # of connection points: 4
#     Node 1, Type 0, BuildingBlock: AZAVOO_clean_sbu_0, # of connection points: 4
#     Node 2, Type 0, BuildingBlock: AZAVOO_clean_sbu_0, # of connection points: 4
#     Node 3, Type 0, BuildingBlock: AZAVOO_clean_sbu_0, # of connection points: 4
#     Node 4, Type 0, BuildingBlock: AZAVOO_clean_sbu_0, # of connection points: 4
#     Node 5, Type 0, BuildingBlock: AZAVOO_clean_sbu_0, # of connection points: 4
#     Node 6, Type 0, BuildingBlock: AZAVOO_clean_sbu_0, # of connection points: 4
#     Node 7, Type 0, BuildingBlock: AZAVOO_clean_sbu_0, # of connection points: 4
#     Node 8, Type 0, BuildingBlock: AZAVOO_clean_sbu_0, # of connection points: 4
#     Node 9, Type 0, BuildingBlock: AZAVOO_clean_sbu_0, # of connection points: 4
#     Node 10, Type 0, BuildingBlock: AZAVOO_clean_sbu_0, # of connection points: 4
#     Node 11, Type 0, BuildingBlock: AZAVOO_clean_sbu_0, # of connection points: 4
#     Node 12, Type 0, BuildingBlock: AZAVOO_clean_sbu_0, # of connection points: 4
#     Node 13, Type 0, BuildingBlock: AZAVOO_clean_sbu_0, # of connection points: 4
#     Node 14, Type 0, BuildingBlock: AZAVOO_clean_sbu_0, # of connection points: 4
#     Node 15, Type 0, BuildingBlock: AZAVOO_clean_sbu_0, # of connection points: 4
#     Node 16, Type 0, BuildingBlock: AZAVOO_clean_sbu_0, # of connection points: 4
#     Node 17, Type 0, BuildingBlock: AZAVOO_clean_sbu_0, # of connection points: 4
#     Node 18, Type 1, BuildingBlock: AZAVOO_clean_linker_0, # of connection points: 4
#     Node 19, Type 1, BuildingBlock: AZAVOO_clean_linker_0, # of connection points: 4
#     Node 20, Type 1, BuildingBlock: AZAVOO_clean_linker_0, # of connection points: 4
#     Node 21, Type 1, BuildingBlock: AZAVOO_clean_linker_0, # of connection points: 4
#     Node 22, Type 1, BuildingBlock: AZAVOO_clean_linker_0, # of connection points: 4
#     Node 23, Type 1, BuildingBlock: AZAVOO_clean_linker_0, # of connection points: 4
#     Node 24, Type 1, BuildingBlock: AZAVOO_clean_linker_0, # of connection points: 4
#     Node 25, Type 1, BuildingBlock: AZAVOO_clean_linker_0, # of connection points: 4
#     Node 26, Type 1, BuildingBlock: AZAVOO_clean_linker_0, # of connection points: 4
#     Node 27, Type 1, BuildingBlock: AZAVOO_clean_linker_0, # of connection points: 4
#     Node 28, Type 1, BuildingBlock: AZAVOO_clean_linker_0, # of connection points: 4
#     Node 29, Type 1, BuildingBlock: AZAVOO_clean_linker_0, # of connection points: 4
#     Node 30, Type 1, BuildingBlock: AZAVOO_clean_linker_0, # of connection points: 4
#     Node 31, Type 1, BuildingBlock: AZAVOO_clean_linker_0, # of connection points: 4
#     Node 32, Type 1, BuildingBlock: AZAVOO_clean_linker_0, # of connection points: 4
#     Node 33, Type 1, BuildingBlock: AZAVOO_clean_linker_0, # of connection points: 4
#     Node 34, Type 1, BuildingBlock: AZAVOO_clean_linker_0, # of connection points: 4
#     Node 35, Type 1, BuildingBlock: AZAVOO_clean_linker_0, # of connection points: 4
#     Edge 36, Type (0, 1), None
#     Edge 37, Type (0, 1), None
#     Edge 38, Type (0, 1), None
#     Edge 39, Type (0, 1), None
#     Edge 40, Type (0, 1), None
#     Edge 41, Type (0, 1), None
#     Edge 42, Type (0, 1), None
#     Edge 43, Type (0, 1), None
#     Edge 44, Type (0, 1), None
#     Edge 45, Type (0, 1), None
#     Edge 46, Type (0, 1), None
#     Edge 47, Type (0, 1), None
#     Edge 48, Type (0, 1), None
#     Edge 49, Type (0, 1), None
#     Edge 50, Type (0, 1), None
#     Edge 51, Type (0, 1), None
#     Edge 52, Type (0, 1), None
#     Edge 53, Type (0, 1), None
#     Edge 54, Type (0, 1), None
#     Edge 55, Type (0, 1), None
#     Edge 56, Type (0, 1), None
#     Edge 57, Type (0, 1), None
#     Edge 58, Type (0, 1), None
#     Edge 59, Type (0, 1), None
#     Edge 60, Type (0, 1), None
#     Edge 61, Type (0, 1), None
#     Edge 62, Type (0, 1), None
#     Edge 63, Type (0, 1), None
#     Edge 64, Type (0, 1), None
#     Edge 65, Type (0, 1), None
#     Edge 66, Type (0, 1), None
#     Edge 67, Type (0, 1), None
#     Edge 68, Type (0, 1), None
#     Edge 69, Type (0, 1), None
#     Edge 70, Type (0, 1), None
#     Edge 71, Type (0, 1), None
#     Edge 72, Type (0, 1), None
#     Edge 73, Type (0, 1), None
#     Edge 74, Type (0, 1), None
#     Edge 75, Type (0, 1), None
#     Edge 76, Type (0, 1), None
#     Edge 77, Type (0, 1), None
#     Edge 78, Type (0, 1), None
#     Edge 79, Type (0, 1), None
#     Edge 80, Type (0, 1), None
#     Edge 81, Type (0, 1), None
#     Edge 82, Type (0, 1), None
#     Edge 83, Type (0, 1), None
#     Edge 84, Type (0, 1), None
#     Edge 85, Type (0, 1), None
#     Edge 86, Type (0, 1), None
#     Edge 87, Type (0, 1), None
#     Edge 88, Type (0, 1), None
#     Edge 89, Type (0, 1), None
#     Edge 90, Type (0, 1), None
#     Edge 91, Type (0, 1), None
#     Edge 92, Type (0, 1), None
#     Edge 93, Type (0, 1), None
#     Edge 94, Type (0, 1), None
#     Edge 95, Type (0, 1), None
#     Edge 96, Type (0, 1), None
#     Edge 97, Type (0, 1), None
#     Edge 98, Type (0, 1), None
#     Edge 99, Type (0, 1), None
#     Edge 100, Type (0, 1), None
#     Edge 101, Type (0, 1), None
#     Edge 102, Type (0, 1), None
#     Edge 103, Type (0, 1), None
#     Edge 104, Type (0, 1), None
#     Edge 105, Type (0, 1), None
#     Edge 106, Type (0, 1), None
#     Edge 107, Type (0, 1), None
# Relax obj value: 0.140
# Max RMSD: 0.332
# Mean RMSD: 0.195
data_MOF--net-ptr--node1-AZAVOO_clean_sbu_0--node2-AZAVOO_clean_linker_0--edge1-none
_symmetry_space_group_name_H-M    P1
_symmetry_Int_Tables_number       1
_symmetry_cell_setting            triclinic
loop_
_symmetry_equiv_pos_as_xyz
'x, y, z'
_cell_length_a     45.098988
_cell_length_b     43.759984
_cell_length_c     35.56355
_cell_angle_alpha  95.291901
_cell_angle_beta   95.608304
_cell_angle_gamma 119.65527
loop_
_atom_site_label
_atom_site_type_symbol
_atom_site_fract_x
_atom_site_fract_y
_atom_site_fract_z
_atom_type_partial_charge
Mg0 Mg 0.00999 0.36054 1.00204 0.0
O1 O 0.99043 0.37881 0.05177 0.0
O2 O 0.94411 0.38155 0.02837 0.0
Mg3 Mg 0.93488 0.36632 0.96307 0.0
C4 C 0.96615 0.3852 0.05645 0.0
C5 C 0.03503 0.32371 0.06324 0.0
O6 O 0.0022 0.29911 0.05917 0.0
O7 O 0.96468 0.30298 0.99382 0.0
O8 O 0.92079 0.30857 0.96792 0.0
O9 O 0.04418 0.41724 0.99458 0.0
O10 O 0.99014 0.3834 0.96524 0.0
C11 C 0.93294 0.28941 0.97913 0.0
C12 C 0.01813 0.41413 0.97212 0.0
O13 O 0.04423 0.34964 0.04462 0.0
Mg14 Mg 0.6441 0.63343 0.11275 0.0
O15 O 0.60517 0.61616 0.05846 0.0
O16 O 0.55766 0.61675 0.06962 0.0
Mg17 Mg 0.5657 0.63181 0.13495 0.0
C18 C 0.57545 0.61162 0.04678 0.0
C19 C 0.71154 0.67256 0.07572 0.0
O20 O 0.7195 0.69854 0.10361 0.0
O21 O 0.65703 0.69083 0.11606 0.0
O22 O 0.60964 0.68814 0.13338 0.0
O23 O 0.62033 0.57678 0.12228 0.0
O24 O 0.60383 0.61393 0.14433 0.0
C25 C 0.64034 0.70584 0.12608 0.0
C26 C 0.59942 0.58235 0.14036 0.0
O27 O 0.68416 0.64259 0.07399 0.0
Mg28 Mg 0.3622 0.97442 0.0036 0.0
O29 O 0.40319 0.99035 0.05563 0.0
O30 O 0.44999 0.04225 0.05226 0.0
Mg31 Mg 0.44155 0.05485 0.99235 0.0
C32 C 0.43324 0.01632 0.06986 0.0
C33 C 0.29491 0.94209 0.0368 0.0
O34 O 0.28875 0.9585 0.01068 0.0
O35 O 0.35419 0.01997 0.02347 0.0
O36 O 0.40039 0.06694 0.0092 0.0
O37 O 0.38108 0.94239 0.97157 0.0
O38 O 0.39979 -0.00071 0.97038 0.0
C39 C 0.37107 0.05286 0.02052 0.0
C40 C 0.40131 0.97149 0.95916 0.0
O41 O 0.32218 0.94012 0.03852 0.0
Mg42 Mg 0.97601 0.62824 0.09056 0.0
O43 O -0.00416 0.60951 0.04168 0.0
O44 O 0.0399 0.60351 0.06639 0.0
Mg45 Mg 0.04717 0.61656 0.13174 0.0
C46 C 0.01933 0.60173 0.03778 0.0
C47 C 0.95542 0.6686 0.02975 0.0
O48 O 0.98863 0.69223 0.03493 0.0
O49 O 0.02358 0.68465 0.10087 0.0
O50 O 0.06398 0.67489 0.12894 0.0
O51 O 0.93919 0.57132 0.09614 0.0
O52 O 0.99301 0.60314 0.1267 0.0
C53 C 0.0544 0.69601 0.11762 0.0
C54 C 0.96453 0.57303 0.11858 0.0
O55 O 0.94462 0.64213 0.04767 0.0
Mg56 Mg 0.35243 0.38452 0.97724 0.0
O57 O 0.3922 0.40288 0.03111 0.0
O58 O 0.44075 0.40545 0.01811 0.0
Mg59 Mg 0.43294 0.39267 0.95236 0.0
C60 C 0.42263 0.40881 0.04178 0.0
C61 C 0.28593 0.34032 0.01408 0.0
O62 O 0.27961 0.31541 0.98566 0.0
O63 O 0.34342 0.32827 0.97217 0.0
O64 O 0.39154 0.33503 0.9525 0.0
O65 O 0.37292 0.44142 0.96895 0.0
O66 O 0.39233 0.40709 0.94611 0.0
C67 C 0.36136 0.31537 0.96033 0.0
C68 C 0.39504 0.43786 0.95116 0.0
O69 O 0.31192 0.37142 0.01625 0.0
Mg70 Mg 0.6452 0.05232 0.08994 0.0
O71 O 0.60202 0.02745 0.03713 0.0
O72 O 0.56162 0.97214 0.04193 0.0
Mg73 Mg 0.57184 0.96236 0.1027 0.0
C74 C 0.57455 -0.00207 0.02312 0.0
C75 C 0.68157 0.05794 0.02438 0.0
O76 O 0.66725 0.07774 0.02253 0.0
O77 O 0.66243 0.0106 0.07774 0.0
O78 O 0.61855 0.95956 0.08944 0.0
O79 O 0.61639 0.07229 0.12519 0.0
O80 O 0.60803 0.01938 0.12406 0.0
C81 C 0.64871 0.97752 0.08088 0.0
C82 C 0.6011 0.04258 0.13723 0.0
O83 O 0.67754 0.04052 0.0521 0.0
Mg84 Mg 0.68625 0.71063 0.33307 0.0
O85 O 0.66626 0.72783 0.38307 0.0
O86 O 0.62104 0.73247 0.35979 0.0
Mg87 Mg 0.61346 0.72078 0.29433 0.0
C88 C 0.64198 0.73416 0.3879 0.0
C89 C 0.7077 0.67069 0.3936 0.0
O90 O 0.67437 0.64769 0.38918 0.0
O91 O 0.63937 0.65404 0.32327 0.0
O92 O 0.59731 0.66264 0.29759 0.0
O93 O 0.72193 0.76762 0.32643 0.0
O94 O 0.66794 0.73516 0.29694 0.0
C95 C 0.60796 0.64217 0.30836 0.0
C96 C 0.69643 0.76533 0.30369 0.0
O97 O 0.71861 0.69698 0.37535 0.0
Mg98 Mg 0.30817 0.95406 0.44858 0.0
O99 O 0.27099 0.93925 0.3928 0.0
O100 O 0.22238 0.93778 0.40333 0.0
Mg101 Mg 0.22757 0.94835 0.46893 0.0
C102 C 0.24132 0.93469 0.38063 0.0
C103 C 0.34742 0.94968 0.38283 0.0
O104 O 0.31866 0.91882 0.37237 0.0
O105 O 0.3202 0.01108 0.45562 0.0
O106 O 0.2715 0.00554 0.47228 0.0
O107 O 0.28528 0.89649 0.4547 0.0
O108 O 0.26631 0.93147 0.47671 0.0
C109 C 0.30262 0.02465 0.46675 0.0
C110 C 0.26297 0.90042 0.47171 0.0
O111 O 0.35178 0.9688 0.41429 0.0
Mg112 Mg 0.03308 0.30939 0.33955 0.0
O113 O 0.07444 0.32604 0.39161 0.0
O114 O 0.12081 0.37753 0.38623 0.0
Mg115 Mg 0.11244 0.38773 0.32505 0.0
C116 C 0.10442 0.35253 0.40511 0.0
C117 C 0.96599 0.27915 0.37221 0.0
O118 O 0.96033 0.29501 0.34513 0.0
O119 O 0.02645 0.35612 0.35801 0.0
O120 O 0.07191 0.40145 0.34038 0.0
O121 O 0.04987 0.27523 0.30789 0.0
O122 O 0.06993 0.33217 0.30531 0.0
C123 C 0.04306 0.3884 0.35273 0.0
C124 C 0.07002 0.30353 0.29416 0.0
O125 O 0.9931 0.27686 0.37506 0.0
Mg126 Mg 0.645 0.96246 0.42333 0.0
O127 O 0.66671 0.94551 0.37522 0.0
O128 O 0.71152 0.94115 0.40074 0.0
Mg129 Mg 0.71715 0.95314 0.46596 0.0
C130 C 0.69119 0.93921 0.37178 0.0
C131 C 0.62077 0.00246 0.36556 0.0
O132 O 0.65157 0.03082 0.3769 0.0
O133 O 0.69155 0.01929 0.43335 0.0
O134 O 0.73282 0.011 0.46197 0.0
O135 O 0.60912 0.90553 0.42869 0.0
O136 O 0.66258 0.93842 0.4602 0.0
C137 C 0.72255 0.03139 0.44995 0.0
C138 C 0.63442 0.90799 0.45194 0.0
O139 O 0.61284 0.97405 0.37929 0.0
Mg140 Mg 0.01889 0.71381 0.31169 0.0
O141 O 0.05761 0.72993 0.36592 0.0
O142 O 0.10612 0.73204 0.35372 0.0
Mg143 Mg 0.09953 0.72138 0.28787 0.0
C144 C 0.08762 0.73499 0.37713 0.0
C145 C 0.95201 0.67001 0.3489 0.0
O146 O 0.94565 0.64428 0.3215 0.0
O147 O 0.00852 0.65697 0.30455 0.0
O148 O 0.05684 0.66386 0.28528 0.0
O149 O 0.04081 0.77133 0.30496 0.0
O150 O 0.05949 0.73655 0.2815 0.0
C151 C 0.02627 0.6441 0.29202 0.0
C152 C 0.06275 0.76754 0.28706 0.0
O153 O 0.97798 0.70096 0.35019 0.0
Mg154 Mg 0.29969 0.35829 0.41719 0.0
O155 O 0.25802 0.33991 0.36503 0.0
O156 O 0.21264 0.28773 0.37037 0.0
Mg157 Mg 0.22155 0.27874 0.43215 0.0
C158 C 0.22848 0.31282 0.3514 0.0
C159 C 0.36568 0.38884 0.38117 0.0
O160 O 0.37281 0.37331 0.4076 0.0
O161 O 0.30844 0.31255 0.40054 0.0
O162 O 0.26368 0.26688 0.41872 0.0
O163 O 0.28116 0.39122 0.44845 0.0
O164 O 0.26308 0.33486 0.45196 0.0
C165 C 0.29277 0.28054 0.40689 0.0
C166 C 0.26196 0.36296 0.46278 0.0
O167 O 0.33852 0.39096 0.38029 0.0
Mg168 Mg 0.34961 0.03647 0.67369 0.0
O169 O 0.32959 0.05453 0.72308 0.0
O170 O 0.28489 0.05964 0.69881 0.0
Mg171 Mg 0.27758 0.0471 0.63337 0.0
C172 C 0.30568 0.06162 0.72729 0.0
C173 C 0.37317 -0.00327 0.7332 0.0
O174 O 0.34065 0.97098 0.72687 0.0
O175 O 0.30251 0.97955 0.66337 0.0
O176 O 0.2616 0.98884 0.63577 0.0
O177 O 0.3858 0.09339 0.66769 0.0
O178 O 0.33197 0.06128 0.63742 0.0
C179 C 0.27157 0.96791 0.64677 0.0
C180 C 0.36047 0.09143 0.645 0.0
O181 O 0.38228 0.02375 0.71636 0.0
Mg182 Mg 0.97547 0.28313 0.77689 0.0
O183 O 0.93637 0.26591 0.72267 0.0
O184 O 0.88797 0.26404 0.73474 0.0
Mg185 Mg 0.89448 0.27536 0.8001 0.0
C186 C 0.90639 0.2609 0.71143 0.0
C187 C 0.04239 0.32646 0.73997 0.0
O188 O 0.04875 0.35162 0.76811 0.0
O189 O 0.98526 0.33967 0.78228 0.0
O190 O 0.93654 0.33235 0.80088 0.0
O191 O 0.95353 0.22605 0.78657 0.0
O192 O 0.93571 0.26184 0.80861 0.0
C193 C 0.96696 0.35224 0.79389 0.0
C194 C 0.93271 0.23099 0.80551 0.0
O195 O 0.01617 0.2955 0.73791 0.0
Mg196 Mg 0.69811 0.6423 0.67377 0.0
O197 O 0.73996 0.65918 0.7254 0.0
O198 O 0.78555 0.71125 0.71998 0.0
Mg199 Mg 0.7767 0.72141 0.65891 0.0
C200 C 0.76971 0.68608 0.73885 0.0
C201 C 0.63145 0.6116 0.70667 0.0
O202 O 0.62543 0.62662 0.6789 0.0
O203 O 0.69098 0.68852 0.69294 0.0
O204 O 0.73567 0.73411 0.67455 0.0
O205 O 0.71508 0.60887 0.6407 0.0
O206 O 0.73445 0.66579 0.63909 0.0
C207 C 0.707 0.72072 0.68729 0.0
C208 C 0.73465 0.63742 0.62701 0.0
O209 O 0.65867 0.60951 0.70975 0.0
Mg210 Mg 0.31383 0.29903 0.75872 0.0
O211 O 0.33474 0.28119 0.71038 0.0
O212 O 0.37951 0.27661 0.73558 0.0
Mg213 Mg 0.38592 0.28931 0.8009 0.0
C214 C 0.3589 0.27441 0.70676 0.0
C215 C 0.29233 0.3383 0.6974 0.0
O216 O 0.32524 0.36297 0.70348 0.0
O217 O 0.36061 0.35577 0.76886 0.0
O218 O 0.40168 0.34732 0.79764 0.0
O219 O 0.27778 0.2421 0.76468 0.0
O220 O 0.33142 0.27484 0.79556 0.0
C221 C 0.39149 0.36783 0.78582 0.0
C222 C 0.30317 0.2445 0.78771 0.0
O223 O 0.282 0.3117 0.71508 0.0
Mg224 Mg 0.68797 0.04793 0.64466 0.0
O225 O 0.7292 0.06416 0.69677 0.0
O226 O 0.77559 0.06386 0.68005 0.0
Mg227 Mg 0.76555 0.05268 0.61419 0.0
C228 C 0.7591 0.06803 0.70532 0.0
C229 C 0.6221 0.00603 0.68349 0.0
O230 O 0.61408 0.98082 0.65465 0.0
O231 O 0.67655 0.99073 0.63781 0.0
O232 O 0.72295 0.99601 0.6149 0.0
O233 O 0.70994 0.10524 0.63717 0.0
O234 O 0.72654 0.06927 0.61171 0.0
C235 C 0.69321 0.97705 0.62407 0.0
C236 C 0.73053 0.10056 0.61757 0.0
O237 O 0.64912 0.03637 0.68554 0.0
Mg238 Mg 0.96152 0.68838 0.74991 0.0
O239 O 0.92035 0.67187 0.6976 0.0
O240 O 0.87405 0.62014 0.70232 0.0
Mg241 Mg 0.88197 0.61007 0.76384 0.0
C242 C 0.89049 0.64535 0.68371 0.0
C243 C 0.02849 0.71858 0.71651 0.0
O244 O 0.03443 0.70259 0.74326 0.0
O245 O 0.96861 0.64171 0.73235 0.0
O246 O 0.9232 0.59673 0.7505 0.0
O247 O 0.94467 0.7225 0.78162 0.0
O248 O 0.92454 0.66557 0.7842 0.0
C249 C 0.95228 0.60973 0.73868 0.0
C250 C 0.92466 0.69429 0.79556 0.0
O251 O 0.00143 0.72093 0.71426 0.0
H252 H 0.14927 0.34739 0.91405 0.0
H253 H 0.34646 0.27696 0.24899 0.0
H254 H 0.14803 0.36795 0.12234 0.0
H255 H 0.10247 0.37492 0.08865 0.0
H256 H 0.02799 0.26493 0.09257 0.0
H257 H 0.07425 0.25805 0.12574 0.0
H258 H 0.19803 0.36626 0.07773 0.0
H259 H 0.18498 0.36888 0.0101 0.0
H260 H 0.10301 0.25851 0.99245 0.0
H261 H 0.11668 0.25614 0.06006 0.0
H262 H 0.25776 0.37059 0.12849 0.0
H263 H 0.29439 0.38452 0.07894 0.0
H264 H 0.22933 0.27641 0.01899 0.0
H265 H 0.19291 0.26287 0.06885 0.0
H266 H 0.26419 0.36423 0.2074 0.0
H267 H 0.31423 0.36403 0.2406 0.0
H268 H 0.26783 0.25232 0.1943 0.0
H269 H 0.21749 0.25273 0.16204 0.0
H270 H 0.21513 0.36306 0.24651 0.0
H271 H 0.23542 0.36693 0.31417 0.0
H272 H 0.18841 0.2524 0.29853 0.0
H273 H 0.16931 0.24894 0.23027 0.0
H274 H 0.14361 0.3583 0.20863 0.0
H275 H 0.11073 0.35868 0.25887 0.0
H276 H 0.07493 0.24725 0.26154 0.0
H277 H 0.1077 0.24712 0.21035 0.0
O278 O 0.15393 0.34581 0.94073 0.0
O279 O 0.11155 0.28927 0.93339 0.0
O280 O 0.34814 0.33429 0.26191 0.0
O281 O 0.32697 0.27775 0.23613 0.0
C282 C 0.14373 0.30726 0.1399 0.0
C283 C 0.16669 0.3091 0.11464 0.0
C284 C 0.1975 0.30965 0.12835 0.0
C285 C 0.20495 0.30746 0.16712 0.0
C286 C 0.18144 0.30438 0.19205 0.0
C287 C 0.15069 0.30384 0.17837 0.0
C288 C 0.11451 0.31243 0.12623 0.0
C289 C 0.12177 0.3455 0.11645 0.0
C290 C 0.09571 0.34937 0.09701 0.0
C291 C 0.06168 0.32034 0.0874 0.0
C292 C 0.05399 0.28777 0.0994 0.0
C293 C 0.08029 0.2838 0.11853 0.0
C294 C 0.15852 0.31091 0.07366 0.0
C295 C 0.17744 0.34262 0.05913 0.0
C296 C 0.16984 0.34407 0.02053 0.0
C297 C 0.14301 0.31387 0.99582 0.0
C298 C 0.12388 0.28223 0.01065 0.0
C299 C 0.1316 0.2808 0.04924 0.0
C300 C 0.22295 0.31565 0.10239 0.0
C301 C 0.25194 0.34975 0.10508 0.0
C302 C 0.2725 0.35777 0.07644 0.0
C303 C 0.26441 0.33172 0.04467 0.0
C304 C 0.23605 0.29717 0.04287 0.0
C305 C 0.21546 0.28922 0.07151 0.0
C306 C 0.23733 0.30852 0.18227 0.0
C307 C 0.26505 0.33984 0.2042 0.0
C308 C 0.29346 0.33958 0.22335 0.0
C309 C 0.29489 0.30807 0.22035 0.0
C310 C 0.26746 0.27698 0.19739 0.0
C311 C 0.23885 0.2772 0.1786 0.0
C312 C 0.191 0.30577 0.23359 0.0
C313 C 0.20908 0.33882 0.25778 0.0
C314 C 0.2206 0.34096 0.29632 0.0
C315 C 0.21342 0.30995 0.31155 0.0
C316 C 0.19402 0.27666 0.28758 0.0
C317 C 0.18325 0.27464 0.24868 0.0
C318 C 0.12761 0.30263 0.20564 0.0
C319 C 0.12827 0.33389 0.2197 0.0
C320 C 0.10991 0.33411 0.24888 0.0
C321 C 0.09074 0.3031 0.26473 0.0
C322 C 0.0898 0.27162 0.25024 0.0
C323 C 0.10814 0.27141 0.22081 0.0
C324 C 0.1351 0.31544 0.95477 0.0
C325 C 0.32495 0.30762 0.24084 0.0
H326 H 0.70206 0.80884 0.93743 0.0
H327 H 0.71354 0.09211 0.26262 0.0
H328 H 0.64011 0.81008 0.16002 0.0
H329 H 0.61102 0.74602 0.14027 0.0
H330 H 0.70954 0.75463 0.12931 0.0
H331 H 0.73857 0.81956 0.14926 0.0
H332 H 0.66144 0.82673 0.08525 0.0
H333 H 0.66863 0.81071 0.02061 0.0
H334 H 0.77561 0.89576 0.04457 0.0
H335 H 0.76822 0.91126 0.10949 0.0
H336 H 0.65289 0.87887 0.09791 0.0
H337 H 0.62693 0.90739 0.06397 0.0
H338 H 0.71856 0.00999 0.10563 0.0
H339 H 0.74568 0.9807 0.13794 0.0
H340 H 0.65127 0.92661 0.17213 0.0
H341 H 0.6434 0.97724 0.18913 0.0
H342 H 0.74835 0.03753 0.25069 0.0
H343 H 0.7561 0.98681 0.2328 0.0
H344 H 0.65221 0.89823 0.24143 0.0
H345 H 0.64457 0.9148 0.30566 0.0
H346 H 0.74845 0.94054 0.34991 0.0
H347 H 0.75618 0.92493 0.28498 0.0
H348 H 0.65178 0.82434 0.23723 0.0
H349 H 0.64628 0.77986 0.27738 0.0
H350 H 0.75548 0.81795 0.28462 0.0
H351 H 0.76052 0.86175 0.24343 0.0
O352 O 0.69984 0.81553 0.96326 0.0
O353 O 0.75509 0.85856 0.9776 0.0
O354 O 0.66317 0.04053 0.22093 0.0
O355 O 0.71618 0.07189 0.25499 0.0
C356 C 0.70736 0.85775 0.16969 0.0
C357 C 0.71078 0.87991 0.14206 0.0
C358 C 0.70991 0.91141 0.15193 0.0
C359 C 0.70893 0.9222 0.19052 0.0
C360 C 0.70941 0.90175 0.21898 0.0
C361 C 0.70887 0.86958 0.20853 0.0
C362 C 0.6914 0.81915 0.15663 0.0
C363 C 0.6554 0.79808 0.15333 0.0
C364 C 0.63882 0.7615 0.14179 0.0
C365 C 0.65794 0.74512 0.13336 0.0
C366 C 0.69407 0.76649 0.1355 0.0
C367 C 0.71076 0.80343 0.14714 0.0
C368 C 0.71449 0.86984 0.10242 0.0
C369 C 0.68655 0.84161 0.07678 0.0
C370 C 0.69066 0.83265 0.03968 0.0
C371 C 0.72274 0.85186 0.02743 0.0
C372 C 0.75058 0.88032 0.05311 0.0
C373 C 0.74642 0.88925 0.0902 0.0
C374 C 0.70108 0.92767 0.12099 0.0
C375 C 0.66856 0.90717 0.0976 0.0
C376 C 0.65352 0.92363 0.07836 0.0
C377 C 0.67028 0.96094 0.08321 0.0
C378 C 0.70496 0.98114 0.10156 0.0
C379 C 0.7204 0.96447 0.12034 0.0
C380 C 0.70442 0.95322 0.20079 0.0
C381 C 0.67265 0.9509 0.18894 0.0
C382 C 0.66817 0.97981 0.19885 0.0
C383 C 0.69527 0.01146 0.22126 0.0
C384 C 0.72698 0.01357 0.23335 0.0
C385 C 0.7315 0.98467 0.22319 0.0
C386 C 0.70497 0.91102 0.25846 0.0
C387 C 0.67346 0.90788 0.26493 0.0
C388 C 0.66912 0.91725 0.30168 0.0
C389 C 0.69598 0.9292 0.33288 0.0
C390 C 0.72727 0.93145 0.32646 0.0
C391 C 0.73178 0.92259 0.28947 0.0
C392 C 0.70652 0.84615 0.23729 0.0
C393 C 0.67458 0.82337 0.24793 0.0
C394 C 0.67147 0.79788 0.27076 0.0
C395 C 0.70041 0.79525 0.28402 0.0
C396 C 0.73276 0.81948 0.27505 0.0
C397 C 0.73569 0.84443 0.25147 0.0
C398 C 0.727 0.84229 0.98799 0.0
C399 C 0.69045 0.04209 0.23226 0.0
H400 H 0.1088 0.79205 0.9285 0.0
H401 H 0.38525 0.04201 0.31653 0.0
H402 H 0.08537 0.81602 0.13018 0.0
H403 H 0.04339 0.75201 0.1094 0.0
H404 H 0.12262 0.72818 0.14803 0.0
H405 H 0.16358 0.79138 0.16849 0.0
H406 H 0.1297 0.86425 0.08392 0.0
H407 H 0.11388 0.8371 0.01634 0.0
H408 H 0.1871 0.80103 0.0336 0.0
H409 H 0.20243 0.82808 0.10118 0.0
H410 H 0.20466 0.93306 0.09709 0.0
H411 H 0.23977 0.95036 0.0462 0.0
H412 H 0.30132 0.90912 0.09626 0.0
H413 H 0.26552 0.8913 0.14645 0.0
H414 H 0.23144 0.97784 0.20768 0.0
H415 H 0.28316 0.02818 0.24761 0.0
H416 H 0.32907 0.96219 0.25684 0.0
H417 H 0.27793 0.91267 0.21578 0.0
H418 H 0.17424 0.92771 0.26771 0.0
H419 H 0.19411 0.94545 0.33749 0.0
H420 H 0.25837 0.8984 0.32977 0.0
H421 H 0.23776 0.88003 0.26121 0.0
H422 H 0.1001 0.85567 0.21127 0.0
H423 H 0.05778 0.81634 0.24884 0.0
H424 H 0.12941 0.78399 0.29071 0.0
H425 H 0.1707 0.82191 0.25231 0.0
O426 O 0.11546 0.80262 0.95528 0.0
O427 O 0.15331 0.78452 0.9657 0.0
O428 O 0.34292 0.0576 0.28947 0.0
O429 O 0.36522 0.02312 0.29924 0.0
C430 C 0.15371 0.84633 0.16359 0.0
C431 C 0.17632 0.86434 0.13833 0.0
C432 C 0.2083 0.89585 0.15256 0.0
C433 C 0.21724 0.90966 0.19211 0.0
C434 C 0.19386 0.89228 0.21722 0.0
C435 C 0.16179 0.86114 0.20273 0.0
C436 C 0.12728 0.80812 0.15121 0.0
C437 C 0.09337 0.79677 0.13407 0.0
C438 C 0.06961 0.76029 0.12201 0.0
C439 C 0.07959 0.73487 0.12701 0.0
C440 C 0.11386 0.7468 0.14372 0.0
C441 C 0.13735 0.78294 0.15565 0.0
C442 C 0.16739 0.84836 0.09723 0.0
C443 C 0.14232 0.85053 0.07297 0.0
C444 C 0.13335 0.835 0.03442 0.0
C445 C 0.14927 0.81695 0.01953 0.0
C446 C 0.17439 0.8148 0.04409 0.0
C447 C 0.18329 0.83031 0.08264 0.0
C448 C 0.23315 0.91183 0.12601 0.0
C449 C 0.22614 0.9284 0.09737 0.0
C450 C 0.24591 0.93774 0.06804 0.0
C451 C 0.27312 0.93075 0.06696 0.0
C452 C 0.28043 0.91468 0.09613 0.0
C453 C 0.26048 0.90515 0.1253 0.0
C454 C 0.25114 0.94179 0.20834 0.0
C455 C 0.2532 0.97472 0.21727 0.0
C456 C 0.28255 0.00325 0.24053 0.0
C457 C 0.31008 -0.00096 0.25577 0.0
C458 C 0.30831 0.96629 0.24572 0.0
C459 C 0.27931 0.9381 0.22176 0.0
C460 C 0.20526 0.90339 0.25933 0.0
C461 C 0.19265 0.92138 0.28129 0.0
C462 C 0.20395 0.93139 0.321 0.0
C463 C 0.22828 0.92386 0.33898 0.0
C464 C 0.2403 0.90538 0.31675 0.0
C465 C 0.2286 0.8949 0.27751 0.0
C466 C 0.13831 0.84144 0.22909 0.0
C467 C 0.10673 0.84045 0.22912 0.0
C468 C 0.08283 0.81837 0.25077 0.0
C469 C 0.0903 0.7969 0.27214 0.0
C470 C 0.12277 0.79966 0.27376 0.0
C471 C 0.14651 0.82157 0.25219 0.0
C472 C 0.13957 0.80035 0.9786 0.0
C473 C 0.34032 0.02843 0.28246 0.0
H474 H 0.29882 0.20103 0.16021 0.0
H475 H 0.34371 0.95144 0.88785 0.0
H476 H 0.27118 0.19801 0.95173 0.0
H477 H 0.29632 0.26274 0.96869 0.0
H478 H 0.39171 0.27949 0.93318 0.0
H479 H 0.36659 0.21562 0.9169 0.0
H480 H 0.25816 0.12475 0.00292 0.0
H481 H 0.26532 0.14926 0.07008 0.0
H482 H 0.37065 0.2297 0.06544 0.0
H483 H 0.36325 0.20485 0.99853 0.0
H484 H 0.27235 0.05285 0.97869 0.0
H485 H 0.30107 0.02597 0.01227 0.0
H486 H 0.39898 0.12439 0.02447 0.0
H487 H 0.37038 0.15043 0.99009 0.0
H488 H 0.25002 0.03119 0.88199 0.0
H489 H 0.25326 0.97691 0.87072 0.0
H490 H 0.36329 0.03841 0.91302 0.0
H491 H 0.35977 0.09242 0.92347 0.0
H492 H 0.24762 0.08597 0.81641 0.0
H493 H 0.25059 0.06345 0.75184 0.0
H494 H 0.35543 0.08938 0.79091 0.0
H495 H 0.35266 0.11298 0.85447 0.0
H496 H 0.24544 0.1552 0.85821 0.0
H497 H 0.24711 0.19674 0.81539 0.0
H498 H 0.35144 0.22505 0.8027 0.0
H499 H 0.34934 0.18293 0.84469 0.0
O500 O 0.29634 0.19202 0.1335 0.0
O501 O 0.35162 0.22961 0.13087 0.0
O502 O 0.2848 0.94176 0.87177 0.0
O503 O 0.34162 0.97242 0.89209 0.0
C504 C 0.30399 0.16375 0.92452 0.0
C505 C 0.30583 0.14666 0.95558 0.0
C506 C 0.30629 0.11472 0.94891 0.0
C507 C 0.30239 0.09848 0.91092 0.0
C508 C 0.29856 0.11467 0.87957 0.0
C509 C 0.29885 0.14712 0.88646 0.0
C510 C 0.31684 0.20238 0.93224 0.0
C511 C 0.29733 0.21591 0.94734 0.0
C512 C 0.31186 0.25277 0.9573 0.0
C513 C 0.34606 0.27633 0.95233 0.0
C514 C 0.36534 0.2623 0.9374 0.0
C515 C 0.35089 0.22577 0.92755 0.0
C516 C 0.30997 0.16328 0.99564 0.0
C517 C 0.28264 0.14787 0.01637 0.0
C518 C 0.28683 0.16189 0.05475 0.0
C519 C 0.31858 0.19141 0.07315 0.0
C520 C 0.34586 0.20695 0.05215 0.0
C521 C 0.34159 0.19297 0.01378 0.0
C522 C 0.31941 0.10322 0.98119 0.0
C523 C 0.29967 0.06905 0.99029 0.0
C524 C 0.31621 0.05384 0.00968 0.0
C525 C 0.35255 0.07271 0.01954 0.0
C526 C 0.37107 0.10898 0.01647 0.0
C527 C 0.35465 0.12402 0.99693 0.0
C528 C 0.30455 0.06564 0.90395 0.0
C529 C 0.27477 0.03284 0.88877 0.0
C530 C 0.27671 0.0019 0.88242 0.0
C531 C 0.30854 0.00331 0.89109 0.0
C532 C 0.33837 0.03633 0.90609 0.0
C533 C 0.3364 0.06722 0.91227 0.0
C534 C 0.29971 0.1006 0.84033 0.0
C535 C 0.27117 0.08675 0.8109 0.0
C536 C 0.27293 0.07387 0.77411 0.0
C537 C 0.30314 0.07426 0.76633 0.0
C538 C 0.3316 0.08815 0.79599 0.0
C539 C 0.33003 0.10158 0.83241 0.0
C540 C 0.29727 0.16612 0.85453 0.0
C541 C 0.26822 0.16954 0.84515 0.0
C542 C 0.2692 0.19321 0.82075 0.0
C543 C 0.29959 0.21439 0.80628 0.0
C544 C 0.32791 0.2094 0.81395 0.0
C545 C 0.32663 0.18514 0.8376 0.0
C546 C 0.32331 0.20557 0.11422 0.0
C547 C 0.31079 0.97057 0.88437 0.0
H548 H 0.81958 0.17126 0.15683 0.0
H549 H 0.62227 0.90822 0.78126 0.0
H550 H 0.82377 0.18898 0.94902 0.0
H551 H 0.86282 0.25247 0.97117 0.0
H552 H 0.95047 0.23756 0.96874 0.0
H553 H 0.91072 0.17335 0.94617 0.0
H554 H 0.78368 0.14502 0.98996 0.0
H555 H 0.79195 0.15966 0.05959 0.0
H556 H 0.86599 0.12416 0.07072 0.0
H557 H 0.85713 0.10921 1.00094 0.0
H558 H 0.73047 0.09757 0.91856 0.0
H559 H 0.68726 0.08596 0.95914 0.0
H560 H 0.72628 0.03205 0.02634 0.0
H561 H 0.76952 0.0431 0.9841 0.0
H562 H 0.72591 0.08086 0.85049 0.0
H563 H 0.67239 0.03272 0.81162 0.0
H564 H 0.70391 0.95727 0.83724 0.0
H565 H 0.75756 0.00591 0.87633 0.0
H566 H 0.77999 0.13064 0.82601 0.0
H567 H 0.75947 0.11739 0.75701 0.0
H568 H 0.79335 0.0409 0.74523 0.0
H569 H 0.81267 0.05329 0.81513 0.0
H570 H 0.84146 0.19084 0.873 0.0
H571 H 0.88288 0.23415 0.84005 0.0
H572 H 0.9238 0.16514 0.81417 0.0
H573 H 0.88298 0.12224 0.85053 0.0
O574 O 0.81672 0.16529 0.12932 0.0
O575 O 0.85488 0.14709 0.13346 0.0
O576 O 0.63096 0.96831 0.78008 0.0
O577 O 0.64363 0.9277 0.79603 0.0
C578 C 0.83942 0.13881 0.92767 0.0
C579 C 0.81422 0.11601 0.94814 0.0
C580 C 0.78327 0.08581 0.9282 0.0
C581 C 0.77902 0.07667 0.88808 0.0
C582 C 0.80538 0.09807 0.86787 0.0
C583 C 0.83554 0.12902 0.88762 0.0
C584 C 0.86432 0.17637 0.94624 0.0
C585 C 0.85138 0.19915 0.95425 0.0
C586 C 0.87376 0.23554 0.96665 0.0
C587 C 0.90976 0.25012 0.97165 0.0
C588 C 0.92284 0.22706 0.96544 0.0
C589 C 0.90024 0.19044 0.95248 0.0
C590 C 0.81944 0.12556 0.99043 0.0
C591 C 0.80147 0.14016 0.00747 0.0
C592 C 0.80635 0.14863 0.04728 0.0
C593 C 0.82954 0.14295 0.07076 0.0
C594 C 0.84785 0.12876 0.05349 0.0
C595 C 0.84286 0.12022 0.01366 0.0
C596 C 0.75269 0.07052 0.94776 0.0
C597 C 0.72873 0.08169 0.94077 0.0
C598 C 0.70444 0.07565 0.9646 0.0
C599 C 0.70373 0.05857 0.99627 0.0
C600 C 0.72631 0.04533 1.0021 0.0
C601 C 0.7508 0.05137 0.97793 0.0
C602 C 0.74555 0.04685 0.86643 0.0
C603 C 0.72117 0.0539 0.84791 0.0
C604 C 0.69069 0.02638 0.82548 0.0
C605 C 0.68395 0.99116 0.82115 0.0
C606 C 0.70838 0.98413 0.83989 0.0
C607 C 0.73892 0.01178 0.86243 0.0
C608 C 0.79761 0.09278 0.82546 0.0
C609 C 0.78336 0.11131 0.8085 0.0
C610 C 0.77159 0.10367 0.76923 0.0
C611 C 0.77482 0.07811 0.74603 0.0
C612 C 0.79082 0.06087 0.76265 0.0
C613 C 0.80177 0.06785 0.80236 0.0
C614 C 0.86006 0.15408 0.8653 0.0
C615 C 0.85963 0.1852 0.86072 0.0
C616 C 0.88303 0.2097 0.84098 0.0
C617 C 0.90651 0.20305 0.82382 0.0
C618 C 0.90593 0.17096 0.82691 0.0
C619 C 0.88286 0.14662 0.84776 0.0
C620 C 0.83458 0.15186 0.11305 0.0
C621 C 0.65132 0.96183 0.79769 0.0
H622 H 0.88831 0.70912 0.18678 0.0
H623 H 0.63227 0.67176 0.80819 0.0
H624 H 0.92203 0.73845 0.96685 0.0
H625 H 0.96607 0.72873 1.00076 0.0
H626 H 0.88749 0.61984 0.00302 0.0
H627 H 0.84415 0.62964 0.96871 0.0
H628 H 0.88075 0.74204 0.03161 0.0
H629 H 0.89251 0.73821 0.09914 0.0
H630 H 0.80486 0.63069 0.0801 0.0
H631 H 0.79367 0.63474 0.01255 0.0
H632 H 0.80865 0.74201 0.0219 0.0
H633 H 0.77223 0.73276 0.07134 0.0
H634 H 0.69911 0.62659 0.0107 0.0
H635 H 0.73589 0.63609 0.96172 0.0
H636 H 0.78421 0.75216 0.92565 0.0
H637 H 0.73633 0.75531 0.89098 0.0
H638 H 0.68455 0.64231 0.84831 0.0
H639 H 0.73219 0.63947 0.88374 0.0
H640 H 0.82978 0.75103 0.85915 0.0
H641 H 0.81105 0.74684 0.79067 0.0
H642 H 0.76136 0.63211 0.77724 0.0
H643 H 0.78122 0.63668 0.84524 0.0
H644 H 0.8905 0.75205 0.88232 0.0
H645 H 0.92215 0.75135 0.83023 0.0
H646 H 0.8832 0.63902 0.83044 0.0
H647 H 0.8514 0.63999 0.88173 0.0
O648 O 0.88334 0.70998 0.15993 0.0
O649 O 0.83802 0.65481 0.14862 0.0
O650 O 0.67875 0.72922 0.8456 0.0
O651 O 0.65131 0.67126 0.82264 0.0
C652 C 0.85196 0.69175 0.95143 0.0
C653 C 0.82922 0.6914 0.97634 0.0
C654 C 0.79958 0.69292 0.96226 0.0
C655 C 0.79274 0.69484 0.92327 0.0
C656 C 0.81589 0.69606 0.89867 0.0
C657 C 0.84585 0.69536 0.91287 0.0
C658 C 0.87988 0.6848 0.9655 0.0
C659 C 0.91461 0.7123 0.97386 0.0
C660 C 0.93965 0.70672 0.99341 0.0
C661 C 0.93016 0.67365 0.00516 0.0
C662 C 0.89563 0.64574 0.99487 0.0
C663 C 0.87083 0.65122 0.97506 0.0
C664 C 0.83624 0.68878 0.0173 0.0
C665 C 0.86418 0.71768 0.0421 0.0
C666 C 0.8708 0.71542 0.08065 0.0
C667 C 0.84955 0.68418 0.09506 0.0
C668 C 0.82166 0.65518 0.06998 0.0
C669 C 0.81514 0.65745 0.03142 0.0
C670 C 0.77475 0.68982 0.98815 0.0
C671 C 0.78444 0.71703 0.01904 0.0
C672 C 0.76378 0.71153 0.04741 0.0
C673 C 0.73308 0.6787 0.0453 0.0
C674 C 0.72282 0.65201 0.01345 0.0
C675 C 0.74351 0.65755 0.98513 0.0
C676 C 0.76147 0.69556 0.90744 0.0
C677 C 0.76215 0.72802 0.90944 0.0
C678 C 0.73498 0.7298 0.88924 0.0
C679 C 0.70676 0.69909 0.86656 0.0
C680 C 0.70593 0.66647 0.86533 0.0
C681 C 0.73294 0.6647 0.88582 0.0
C682 C 0.80671 0.69415 0.85697 0.0
C683 C 0.81536 0.72511 0.84117 0.0
C684 C 0.8048 0.72266 0.80215 0.0
C685 C 0.78476 0.68913 0.77873 0.0
C686 C 0.77673 0.65825 0.79464 0.0
C687 C 0.78799 0.6608 0.83336 0.0
C688 C 0.86913 0.69616 0.88602 0.0
C689 C 0.88925 0.72746 0.87126 0.0
C690 C 0.90687 0.72691 0.84124 0.0
C691 C 0.90465 0.69502 0.82571 0.0
C692 C 0.88502 0.66393 0.84127 0.0
C693 C 0.86731 0.66448 0.87107 0.0
C694 C 0.85651 0.68196 0.13609 0.0
C695 C 0.67821 0.70093 0.84432 0.0
H696 H 0.82394 0.68834 0.2473 0.0
H697 H 0.00332 0.60488 0.5897 0.0
H698 H 0.8186 0.70806 0.45497 0.0
H699 H 0.77592 0.71865 0.42035 0.0
H700 H 0.69623 0.61017 0.42224 0.0
H701 H 0.73959 0.59957 0.45623 0.0
H702 H 0.86815 0.70364 0.41154 0.0
H703 H 0.8574 0.70762 0.34389 0.0
H704 H 0.77096 0.59938 0.32412 0.0
H705 H 0.78233 0.5956 0.39175 0.0
H706 H 0.92505 0.7038 0.46242 0.0
H707 H 0.96221 0.71529 0.41357 0.0
H708 H 0.89316 0.6079 0.35347 0.0
H709 H 0.85619 0.59681 0.40262 0.0
H710 H 0.92867 0.69777 0.54128 0.0
H711 H 0.97655 0.69542 0.57688 0.0
H712 H 0.92699 0.58309 0.5318 0.0
H713 H 0.87881 0.58569 0.49708 0.0
H714 H 0.8787 0.69775 0.58008 0.0
H715 H 0.89847 0.70042 0.6476 0.0
H716 H 0.84993 0.58571 0.63001 0.0
H717 H 0.83139 0.58343 0.56192 0.0
H718 H 0.80771 0.69452 0.54179 0.0
H719 H 0.77496 0.6936 0.59264 0.0
H720 H 0.7386 0.58157 0.59137 0.0
H721 H 0.77107 0.58271 0.53951 0.0
O722 O 0.82763 0.68626 0.27398 0.0
O723 O 0.78285 0.63089 0.26558 0.0
O724 O 0.00774 0.66367 0.60044 0.0
O725 O 0.98471 0.60651 0.57589 0.0
C726 C 0.8099 0.6455 0.47202 0.0
C727 C 0.83306 0.64649 0.44738 0.0
C728 C 0.86271 0.64509 0.46162 0.0
C729 C 0.869 0.64224 0.50039 0.0
C730 C 0.8452 0.63982 0.52462 0.0
C731 C 0.81532 0.64066 0.51029 0.0
C732 C 0.78229 0.65298 0.45794 0.0
C733 C 0.79181 0.68672 0.44843 0.0
C734 C 0.76741 0.69267 0.42843 0.0
C735 C 0.73274 0.66513 0.41801 0.0
C736 C 0.72277 0.63192 0.42968 0.0
C737 C 0.74742 0.62583 0.44932 0.0
C738 C 0.82623 0.64922 0.40642 0.0
C739 C 0.84707 0.68075 0.39248 0.0
C740 C 0.84078 0.68298 0.35386 0.0
C741 C 0.81338 0.65377 0.32855 0.0
C742 C 0.79232 0.62234 0.3428 0.0
C743 C 0.79872 0.62011 0.3814 0.0
C744 C 0.88815 0.6494 0.43617 0.0
C745 C 0.91843 0.68256 0.43915 0.0
C746 C 0.93931 0.6892 0.41089 0.0
C747 C 0.93029 0.66269 0.37926 0.0
C748 C 0.90065 0.62899 0.37726 0.0
C749 C 0.87971 0.62244 0.40548 0.0
C750 C 0.90047 0.64196 0.51641 0.0
C751 C 0.92845 0.6728 0.53875 0.0
C752 C 0.95558 0.6713 0.55934 0.0
C753 C 0.95548 0.63899 0.55739 0.0
C754 C 0.9278 0.60835 0.53406 0.0
C755 C 0.90047 0.60982 0.51382 0.0
C756 C 0.85375 0.64043 0.56622 0.0
C757 C 0.8721 0.6732 0.59092 0.0
C758 C 0.88337 0.67466 0.62937 0.0
C759 C 0.87568 0.64326 0.64398 0.0
C760 C 0.85595 0.61027 0.61953 0.0
C761 C 0.84544 0.60892 0.58074 0.0
C762 C 0.79136 0.63863 0.53674 0.0
C763 C 0.79215 0.66967 0.55199 0.0
C764 C 0.77391 0.66915 0.58158 0.0
C765 C 0.75483 0.63763 0.5967 0.0
C766 C 0.75349 0.60633 0.58075 0.0
C767 C 0.7716 0.60684 0.55088 0.0
C768 C 0.80691 0.65615 0.28748 0.0
C769 C 0.98422 0.63726 0.57932 0.0
H770 H 0.32216 0.10694 0.27313 0.0
H771 H 0.38106 0.41974 0.57333 0.0
H772 H 0.30077 0.12559 0.51317 0.0
H773 H 0.27347 0.06182 0.49365 0.0
H774 H 0.36971 0.07581 0.4635 0.0
H775 H 0.39702 0.14054 0.4836 0.0
H776 H 0.30835 0.13696 0.43187 0.0
H777 H 0.30484 0.11465 0.36513 0.0
H778 H 0.41163 0.19587 0.36877 0.0
H779 H 0.41484 0.21794 0.43574 0.0
H780 H 0.2977 0.18723 0.44576 0.0
H781 H 0.2674 0.21008 0.40843 0.0
H782 H 0.36321 0.31027 0.41823 0.0
H783 H 0.39363 0.28667 0.45499 0.0
H784 H 0.30719 0.24554 0.51017 0.0
H785 H 0.30251 0.29881 0.52132 0.0
H786 H 0.41192 0.36133 0.5667 0.0
H787 H 0.41638 0.30784 0.55461 0.0
H788 H 0.31381 0.22418 0.57912 0.0
H789 H 0.30984 0.24662 0.64262 0.0
H790 H 0.41473 0.27348 0.68325 0.0
H791 H 0.41888 0.2521 0.61875 0.0
H792 H 0.3161 0.1539 0.58607 0.0
H793 H 0.31213 0.11044 0.62705 0.0
H794 H 0.41787 0.14031 0.62008 0.0
H795 H 0.42134 0.18304 0.57808 0.0
O796 O 0.32453 0.11539 0.3 0.0
O797 O 0.38103 0.15326 0.30511 0.0
O798 O 0.3264 0.36516 0.54347 0.0
O799 O 0.38228 0.39831 0.56829 0.0
C800 C 0.36495 0.1761 0.50951 0.0
C801 C 0.36396 0.19395 0.47889 0.0
C802 C 0.36208 0.22504 0.48578 0.0
C803 C 0.36514 0.24054 0.52381 0.0
C804 C 0.36882 0.22397 0.5549 0.0
C805 C 0.36884 0.1917 0.54766 0.0
C806 C 0.35102 0.13739 0.50071 0.0
C807 C 0.31616 0.11481 0.50307 0.0
C808 C 0.30048 0.07839 0.49131 0.0
C809 C 0.31936 0.06368 0.47684 0.0
C810 C 0.35446 0.0864 0.47441 0.0
C811 C 0.37022 0.1232 0.48623 0.0
C812 C 0.36202 0.17882 0.43887 0.0
C813 C 0.33113 0.14961 0.41846 0.0
C814 C 0.32911 0.13705 0.38019 0.0
C815 C 0.35794 0.1535 0.36158 0.0
C816 C 0.38896 0.18254 0.38227 0.0
C817 C 0.39089 0.19517 0.42052 0.0
C818 C 0.34777 0.23553 0.45353 0.0
C819 C 0.31261 0.21339 0.43795 0.0
C820 C 0.29522 0.22655 0.41668 0.0
C821 C 0.31265 0.26231 0.41147 0.0
C822 C 0.34893 0.2827 0.42212 0.0
C823 C 0.36642 0.2694 0.44339 0.0
C824 C 0.36225 0.27293 0.53103 0.0
C825 C 0.33021 0.27082 0.5221 0.0
C826 C 0.32756 0.30127 0.52871 0.0
C827 C 0.35687 0.33438 0.54483 0.0
C828 C 0.38886 0.33629 0.55415 0.0
C829 C 0.3915 0.3058 0.5473 0.0
C830 C 0.36688 0.23719 0.59408 0.0
C831 C 0.33618 0.23552 0.60153 0.0
C832 C 0.33392 0.24827 0.6379 0.0
C833 C 0.36207 0.26212 0.66795 0.0
C834 C 0.39263 0.26307 0.66066 0.0
C835 C 0.39507 0.25086 0.62392 0.0
C836 C 0.369 0.17158 0.57908 0.0
C837 C 0.33866 0.15167 0.59415 0.0
C838 C 0.33633 0.12664 0.61725 0.0
C839 C 0.36457 0.12176 0.62634 0.0
C840 C 0.39578 0.14368 0.61363 0.0
C841 C 0.39781 0.16807 0.58971 0.0
C842 C 0.35537 0.14074 0.32059 0.0
C843 C 0.35413 0.36678 0.55208 0.0
H844 H 0.78358 0.13753 0.25661 0.0
H845 H 0.05252 0.37938 0.64702 0.0
H846 H 0.75121 0.15065 0.465 0.0
H847 H 0.7094 0.08638 0.44584 0.0
H848 H 0.7921 0.0645 0.4723 0.0
H849 H 0.83294 0.12795 0.49119 0.0
H850 H 0.79782 0.20141 0.41416 0.0
H851 H 0.78406 0.17687 0.34589 0.0
H852 H 0.85813 0.14186 0.36279 0.0
H853 H 0.87145 0.16634 0.431 0.0
H854 H 0.87447 0.27107 0.42916 0.0
H855 H 0.91141 0.28887 0.37989 0.0
H856 H 0.97031 0.24559 0.43179 0.0
H857 H 0.93275 0.22726 0.4802 0.0
H858 H 0.89714 0.31275 0.54042 0.0
H859 H 0.94869 0.3635 0.58017 0.0
H860 H -0.00433 0.2985 0.58957 0.0
H861 H 0.94477 0.24864 0.54861 0.0
H862 H 0.83997 0.25895 0.60108 0.0
H863 H 0.859 0.27286 0.67098 0.0
H864 H 0.92369 0.2268 0.65827 0.0
H865 H 0.90358 0.21185 0.58941 0.0
H866 H 0.76747 0.19083 0.54423 0.0
H867 H 0.72584 0.15098 0.58212 0.0
H868 H 0.79605 0.11463 0.61649 0.0
H869 H 0.83643 0.15288 0.57759 0.0
O870 O 0.7892 0.14681 0.28372 0.0
O871 O 0.82559 0.12695 0.29447 0.0
O872 O 0.00869 0.39365 0.62167 0.0
O873 O 0.03234 0.36018 0.6302 0.0
C874 C 0.82083 0.18186 0.49306 0.0
C875 C 0.84395 0.20086 0.46869 0.0
C876 C 0.8757 0.23228 0.4841 0.0
C877 C 0.88388 0.24497 0.52386 0.0
C878 C 0.86015 0.22634 0.54807 0.0
C879 C 0.82826 0.19546 0.53247 0.0
C880 C 0.79492 0.1437 0.47966 0.0
C881 C 0.76006 0.13178 0.46633 0.0
C882 C 0.73637 0.09518 0.45526 0.0
C883 C 0.74739 0.07028 0.45769 0.0
C884 C 0.7826 0.08278 0.47024 0.0
C885 C 0.80603 0.11905 0.48108 0.0
C886 C 0.83589 0.186 0.42732 0.0
C887 C 0.81106 0.18848 0.40299 0.0
C888 C 0.80328 0.17445 0.36404 0.0
C889 C 0.82009 0.15752 0.34884 0.0
C890 C 0.84478 0.15482 0.37351 0.0
C891 C 0.85254 0.16889 0.41243 0.0
C892 C 0.90155 0.24877 0.45878 0.0
C893 C 0.8958 0.26613 0.43022 0.0
C894 C 0.9166 0.27577 0.40184 0.0
C895 C 0.94352 0.26823 0.40171 0.0
C896 C 0.94968 0.25159 0.43098 0.0
C897 C 0.92872 0.24176 0.45914 0.0
C898 C 0.91741 0.2772 0.54114 0.0
C899 C 0.91905 0.30991 0.55011 0.0
C900 C 0.94833 0.33868 0.57323 0.0
C901 C 0.9762 0.33495 0.58828 0.0
C902 C 0.97471 0.30231 0.57845 0.0
C903 C 0.94579 0.27388 0.55465 0.0
C904 C 0.87123 0.23537 0.59021 0.0
C905 C 0.85823 0.25195 0.61359 0.0
C906 C 0.86895 0.25966 0.65336 0.0
C907 C 0.8931 0.25123 0.66994 0.0
C908 C 0.90548 0.2341 0.6463 0.0
C909 C 0.89425 0.2258 0.60694 0.0
C910 C 0.80472 0.17443 0.55812 0.0
C911 C 0.77383 0.17442 0.56033 0.0
C912 C 0.75036 0.15205 0.58217 0.0
C913 C 0.75763 0.12943 0.60161 0.0
C914 C 0.78942 0.13105 0.6009 0.0
C915 C 0.81267 0.15315 0.57906 0.0
C916 C 0.81187 0.14277 0.30743 0.0
C917 C 0.00663 0.36476 0.61437 0.0
H918 H 0.97618 0.53617 0.49108 0.0
H919 H 0.01781 0.28681 0.21786 0.0
H920 H 0.93658 0.52645 0.2832 0.0
H921 H 0.96192 0.59107 0.30187 0.0
H922 H 0.05465 0.60883 0.2584 0.0
H923 H 0.02945 0.54519 0.24059 0.0
H924 H 0.92826 0.45637 0.33508 0.0
H925 H 0.93842 0.48297 0.40211 0.0
H926 H 0.04154 0.56384 0.39028 0.0
H927 H 0.03124 0.53678 0.32361 0.0
H928 H 0.94291 0.38606 0.31153 0.0
H929 H 0.97321 0.36156 0.34678 0.0
H930 H 0.07034 0.45918 0.35084 0.0
H931 H 0.04 0.48302 0.31529 0.0
H932 H 0.91834 0.36013 0.2146 0.0
H933 H 0.92382 0.30712 0.20424 0.0
H934 H 0.03445 0.37293 0.24099 0.0
H935 H 0.02867 0.42563 0.25056 0.0
H936 H 0.91058 0.41159 0.14734 0.0
H937 H 0.9115 0.38662 0.08295 0.0
H938 H 0.01826 0.41693 0.11784 0.0
H939 H 0.01745 0.44293 0.1811 0.0
H940 H 0.90889 0.48384 0.18981 0.0
H941 H 0.90952 0.52584 0.14819 0.0
H942 H 0.01168 0.55156 0.12857 0.0
H943 H 0.01066 0.50913 0.16947 0.0
O944 O 0.97247 0.5264 0.46436 0.0
O945 O 0.02536 0.56714 0.45677 0.0
O946 O 0.95767 0.27431 0.20478 0.0
O947 O 0.01483 0.30724 0.22188 0.0
C948 C 0.96893 0.49289 0.25281 0.0
C949 C 0.97292 0.47716 0.28427 0.0
C950 C 0.97445 0.44583 0.27798 0.0
C951 C 0.96956 0.42873 0.24017 0.0
C952 C 0.96368 0.4435 0.20846 0.0
C953 C 0.96287 0.47543 0.21489 0.0
C954 C 0.9809 0.53135 0.25972 0.0
C955 C 0.96208 0.54456 0.27724 0.0
C956 C 0.97675 0.58135 0.28822 0.0
C957 C 0.01042 0.60513 0.2819 0.0
C958 C 0.02878 0.59146 0.26393 0.0
C959 C 0.01419 0.55504 0.25306 0.0
C960 C 0.97875 0.49494 0.32426 0.0
C961 C 0.9529 0.48002 0.34695 0.0
C962 C 0.95881 0.49522 0.38524 0.0
C963 C 0.9908 0.52554 0.40156 0.0
C964 C 0.01658 0.54056 0.37861 0.0
C965 C 0.01065 0.52531 0.34038 0.0
C966 C 0.98938 0.43588 0.31018 0.0
C967 C 0.97048 0.40265 0.32163 0.0
C968 C 0.98793 0.38883 0.34196 0.0
C969 C 0.02437 0.408 0.35017 0.0
C970 C 0.04236 0.44355 0.34423 0.0
C971 C 0.02497 0.45728 0.32397 0.0
C972 C 0.97301 0.39663 0.23374 0.0
C973 C 0.9437 0.36299 0.22037 0.0
C974 C 0.94692 0.33279 0.21453 0.0
C975 C 0.97959 0.33578 0.22189 0.0
C976 C 0.00892 0.36964 0.2351 0.0
C977 C 0.00566 0.39977 0.24079 0.0
C978 C 0.96376 0.42856 0.16914 0.0
C979 C 0.93412 0.41285 0.14093 0.0
C980 C 0.93469 0.39853 0.10427 0.0
C981 C 0.96483 0.39935 0.09541 0.0
C982 C 0.99445 0.41526 0.12381 0.0
C983 C 0.99402 0.43011 0.16005 0.0
C984 C 0.9597 0.49343 0.18262 0.0
C985 C 0.93085 0.49759 0.17536 0.0
C986 C 0.93126 0.52156 0.15169 0.0
C987 C 0.96089 0.54227 0.13582 0.0
C988 C 0.98878 0.53631 0.14103 0.0
C989 C 0.98805 0.51178 0.16397 0.0
C990 C -0.00263 0.54105 0.44251 0.0
C991 C 0.98321 0.30385 0.21566 0.0
H992 H 0.5046 0.54346 0.49217 0.0
H993 H 0.30369 0.2604 0.106 0.0
H994 H 0.49603 0.54638 0.28074 0.0
H995 H 0.53814 0.60948 0.30116 0.0
H996 H 0.62134 0.58736 0.29789 0.0
H997 H 0.57848 0.52361 0.27699 0.0
H998 H 0.45371 0.4996 0.32741 0.0
H999 H 0.46733 0.52036 0.39652 0.0
H1000 H 0.54805 0.4939 0.40477 0.0
H1001 H 0.53385 0.47281 0.33565 0.0
H1002 H 0.39455 0.44164 0.27272 0.0
H1003 H 0.35816 0.42158 0.32207 0.0
H1004 H 0.42034 0.38023 0.3701 0.0
H1005 H 0.4561 0.3998 0.32003 0.0
H1006 H 0.38598 0.42613 0.2025 0.0
H1007 H 0.33503 0.37683 0.16086 0.0
H1008 H 0.38218 0.31175 0.16727 0.0
H1009 H 0.4334 0.36169 0.20843 0.0
H1010 H 0.43036 0.46672 0.16107 0.0
H1011 H 0.40926 0.44874 0.09228 0.0
H1012 H 0.46871 0.39626 0.08407 0.0
H1013 H 0.48872 0.4133 0.15383 0.0
H1014 H 0.50203 0.53873 0.19872 0.0
H1015 H 0.54379 0.58189 0.16506 0.0
H1016 H 0.59302 0.51895 0.15406 0.0
H1017 H 0.55127 0.47607 0.18938 0.0
O1018 O 0.49941 0.53479 0.46493 0.0
O1019 O 0.54062 0.52077 0.46759 0.0
O1020 O 0.30019 0.31446 0.12153 0.0
O1021 O 0.32323 0.27988 0.12333 0.0
C1022 C 0.50766 0.493 0.26134 0.0
C1023 C 0.48454 0.4719 0.28463 0.0
C1024 C 0.45346 0.44029 0.26781 0.0
C1025 C 0.4463 0.42917 0.22777 0.0
C1026 C 0.4704 0.44951 0.20467 0.0
C1027 C 0.50108 0.48124 0.22148 0.0
C1028 C 0.53424 0.5305 0.27741 0.0
C1029 C 0.52334 0.55504 0.28503 0.0
C1030 C 0.54744 0.59109 0.29656 0.0
C1031 C 0.58304 0.60339 0.301 0.0
C1032 C 0.59404 0.57857 0.29493 0.0
C1033 C 0.56971 0.54229 0.28288 0.0
C1034 C 0.49246 0.48422 0.32667 0.0
C1035 C 0.47404 0.49793 0.34428 0.0
C1036 C 0.48201 0.50994 0.38373 0.0
C1037 C 0.50873 0.50871 0.40621 0.0
C1038 C 0.52727 0.49514 0.38833 0.0
C1039 C 0.51922 0.48308 0.34889 0.0
C1040 C 0.42748 0.42146 0.29232 0.0
C1041 C 0.39951 0.42711 0.29307 0.0
C1042 C 0.37921 0.41631 0.32179 0.0
C1043 C 0.3868 0.39997 0.35044 0.0
C1044 C 0.4141 0.3932 0.34875 0.0
C1045 C 0.43423 0.40381 0.31986 0.0
C1046 C 0.41311 0.39726 0.20903 0.0
C1047 C 0.38491 0.40093 0.1957 0.0
C1048 C 0.35602 0.37287 0.17149 0.0
C1049 C 0.35462 0.3404 0.16055 0.0
C1050 C 0.38249 0.33644 0.17502 0.0
C1051 C 0.41157 0.36473 0.19893 0.0
C1052 C 0.4606 0.44085 0.16238 0.0
C1053 C 0.43879 0.4513 0.14445 0.0
C1054 C 0.42677 0.44098 0.10522 0.0
C1055 C 0.43715 0.42086 0.08294 0.0
C1056 C 0.46034 0.41176 0.10064 0.0
C1057 C 0.47174 0.42142 0.1403 0.0
C1058 C 0.52405 0.5047 0.19687 0.0
C1059 C 0.52169 0.53415 0.18878 0.0
C1060 C 0.5456 0.55877 0.16937 0.0
C1061 C 0.57188 0.554 0.1569 0.0
C1062 C 0.57301 0.52331 0.16322 0.0
C1063 C 0.54931 0.49888 0.18337 0.0
C1064 C 0.5173 0.52173 0.44808 0.0
C1065 C 0.32435 0.3109 0.13397 0.0
H1066 H 0.52122 0.9896 0.50946 0.0
H1067 H 0.29436 -0.00252 0.13361 0.0
H1068 H 0.57483 0.06352 0.30523 0.0
H1069 H 0.62248 0.06138 0.34226 0.0
H1070 H 0.55878 0.94667 0.32885 0.0
H1071 H 0.51181 0.94916 0.29167 0.0
H1072 H 0.52522 0.04567 0.36576 0.0
H1073 H 0.53129 0.03233 0.43044 0.0
H1074 H 0.45301 0.92196 0.3901 0.0
H1075 H 0.4475 0.93561 0.32547 0.0
H1076 H 0.45099 0.03591 0.35202 0.0
H1077 H 0.40767 0.01394 0.39423 0.0
H1078 H 0.3454 0.9166 0.31279 0.0
H1079 H 0.38934 0.93855 0.27131 0.0
H1080 H 0.441 0.06475 0.25767 0.0
H1081 H 0.39595 0.0724 0.22345 0.0
H1082 H 0.34409 0.96262 0.16762 0.0
H1083 H 0.38935 0.95537 0.20217 0.0
H1084 H 0.48781 0.0727 0.19411 0.0
H1085 H 0.47089 0.07376 0.12659 0.0
H1086 H 0.42744 0.95986 0.10124 0.0
H1087 H 0.44571 0.95928 0.1682 0.0
H1088 H 0.54651 0.07822 0.21981 0.0
H1089 H 0.58543 0.08929 0.17289 0.0
H1090 H 0.56427 0.98097 0.16605 0.0
H1091 H 0.52407 0.96972 0.21144 0.0
O1092 O 0.51859 0.99424 0.48362 0.0
O1093 O 0.47853 0.93772 0.46133 0.0
O1094 O 0.34106 0.0517 0.17563 0.0
O1095 O 0.31246 0.99505 0.14742 0.0
C1096 C 0.509 0.00795 0.27998 0.0
C1097 C 0.48221 -7e-05 0.30182 0.0
C1098 C 0.45185 -0.00052 0.28628 0.0
C1099 C 0.44832 0.00699 0.24897 0.0
C1100 C 0.47464 0.01403 0.2269 0.0
C1101 C 0.50526 0.01531 0.2426 0.0
C1102 C 0.53985 0.00652 0.29603 0.0
C1103 C 0.5716 0.03794 0.30955 0.0
C1104 C 0.59868 0.03665 0.33085 0.0
C1105 C 0.59419 0.0039 0.33906 0.0
C1106 C 0.56295 0.97237 0.3235 0.0
C1107 C 0.53613 0.97368 0.30207 0.0
C1108 C 0.48587 0.99163 0.34102 0.0
C1109 C 0.50951 0.01862 0.37097 0.0
C1110 C 0.51286 0.01092 0.40788 0.0
C1111 C 0.49258 0.97608 0.41547 0.0
C1112 C 0.46899 0.94908 0.38526 0.0
C1113 C 0.46572 0.9568 0.34836 0.0
C1114 C 0.42316 0.98891 0.30855 0.0
C1115 C 0.42778 0.01004 0.34317 0.0
C1116 C 0.40315 -0.00272 0.36735 0.0
C1117 C 0.37336 0.96326 0.35711 0.0
C1118 C 0.36824 0.94274 0.32169 0.0
C1119 C 0.39303 0.95544 0.29767 0.0
C1120 C 0.41805 0.00936 0.23291 0.0
C1121 C 0.41951 0.04221 0.23862 0.0
C1122 C 0.394 0.04662 0.21865 0.0
C1123 C 0.3665 0.01815 0.19264 0.0
C1124 C 0.36492 0.98509 0.18738 0.0
C1125 C 0.39047 0.98073 0.20743 0.0
C1126 C 0.46811 0.01594 0.18578 0.0
C1127 C 0.47548 0.04822 0.17368 0.0
C1128 C 0.46586 0.04877 0.13526 0.0
C1129 C 0.44789 0.01687 0.10891 0.0
C1130 C 0.44126 0.98477 0.12106 0.0
C1131 C 0.4517 0.9844 0.15914 0.0
C1132 C 0.53248 0.02316 0.21881 0.0
C1133 C 0.55035 0.05693 0.20807 0.0
C1134 C 0.57232 0.06311 0.18112 0.0
C1135 C 0.57719 0.03572 0.165 0.0
C1136 C 0.56035 0.00233 0.17711 0.0
C1137 C 0.53787 0.996 0.20356 0.0
C1138 C 0.49605 0.96805 0.45477 0.0
C1139 C 0.33937 0.0228 0.17139 0.0
H1140 H 0.48935 0.02485 0.58638 0.0
H1141 H 0.66913 0.92608 0.91096 0.0
H1142 H 0.48585 0.04224 0.79445 0.0
H1143 H 0.44011 0.04865 0.7603 0.0
H1144 H 0.3667 0.93781 0.76189 0.0
H1145 H 0.41312 0.93159 0.79577 0.0
H1146 H 0.53802 0.04003 0.74938 0.0
H1147 H 0.52535 0.04407 0.68213 0.0
H1148 H 0.44029 0.93511 0.66328 0.0
H1149 H 0.45356 0.93132 0.7305 0.0
H1150 H 0.59766 0.03956 0.79889 0.0
H1151 H 0.63412 0.05074 0.7494 0.0
H1152 H 0.5623 0.94468 0.68762 0.0
H1153 H 0.52616 0.93375 0.7376 0.0
H1154 H 0.60656 0.03204 0.87374 0.0
H1155 H 0.6536 0.02459 0.90281 0.0
H1156 H 0.59213 0.91133 0.86127 0.0
H1157 H 0.54536 0.91917 0.83221 0.0
H1158 H 0.5581 0.04091 0.91286 0.0
H1159 H 0.5815 0.04928 0.98051 0.0
H1160 H 0.5318 0.93501 0.97441 0.0
H1161 H 0.50934 0.92706 0.90632 0.0
H1162 H 0.47944 0.03142 0.87949 0.0
H1163 H 0.44251 0.02849 0.92635 0.0
H1164 H 0.41159 0.91815 0.92903 0.0
H1165 H 0.44832 0.92129 0.88119 0.0
O1166 O 0.49386 0.02272 0.6129 0.0
O1167 O 0.45004 0.96683 0.60489 0.0
O1168 O 0.68004 0.98754 0.92349 0.0
O1169 O 0.65119 0.92984 0.89913 0.0
C1170 C 0.48234 0.98162 0.8111 0.0
C1171 C 0.50479 0.98276 0.78545 0.0
C1172 C 0.53486 0.98171 0.7985 0.0
C1173 C 0.54258 0.97968 0.83725 0.0
C1174 C 0.52059 0.97925 0.86308 0.0
C1175 C 0.48986 0.97889 0.84975 0.0
C1176 C 0.45286 0.98643 0.79748 0.0
C1177 C 0.45974 0.01951 0.78808 0.0
C1178 C 0.43358 0.02304 0.76832 0.0
C1179 C 0.3998 0.9936 0.75782 0.0
C1180 C 0.39247 0.96097 0.76938 0.0
C1181 C 0.41886 0.95738 0.78894 0.0
C1182 C 0.49683 0.98533 0.74469 0.0
C1183 C 0.51678 0.01703 0.73061 0.0
C1184 C 0.50942 0.01928 0.69222 0.0
C1185 C 0.48184 0.98988 0.66729 0.0
C1186 C 0.46174 0.95822 0.68167 0.0
C1187 C 0.46921 0.95599 0.72004 0.0
C1188 C 0.55945 0.98577 0.77193 0.0
C1189 C 0.59026 0.01849 0.77509 0.0
C1190 C 0.61076 0.02499 0.74649 0.0
C1191 C 0.60079 -0.0012 0.71422 0.0
C1192 C 0.57053 0.96552 0.7119 0.0
C1193 C 0.55003 0.95908 0.74056 0.0
C1194 C 0.57268 0.97615 0.85085 0.0
C1195 C 0.60351 0.00574 0.87062 0.0
C1196 C 0.63018 0.00135 0.88749 0.0
C1197 C 0.62641 0.96728 0.88489 0.0
C1198 C 0.59578 0.93788 0.86409 0.0
C1199 C 0.56915 0.9423 0.84722 0.0
C1200 C 0.53197 0.9834 0.90482 0.0
C1201 C 0.55206 0.01771 0.92629 0.0
C1202 C 0.56545 0.02243 0.96487 0.0
C1203 C 0.55846 0.99282 0.98289 0.0
C1204 C 0.53743 0.95836 0.96148 0.0
C1205 C 0.52458 0.95371 0.92262 0.0
C1206 C 0.46628 0.97654 0.87685 0.0
C1207 C 0.46452 0.0066 0.89003 0.0
C1208 C 0.44371 0.0049 0.91718 0.0
C1209 C 0.42451 0.97316 0.93188 0.0
C1210 C 0.42632 0.94302 0.91854 0.0
C1211 C 0.44707 0.94472 0.89114 0.0
C1212 C 0.47417 0.99231 0.62649 0.0
C1213 C 0.6542 0.96231 0.90376 0.0
H1214 H 0.98116 0.4381 0.60164 0.0
H1215 H 0.03817 0.74453 0.91034 0.0
H1216 H 0.95884 0.4498 0.83759 0.0
H1217 H 0.93414 0.38665 0.81669 0.0
H1218 H 0.03389 0.40567 0.79336 0.0
H1219 H 0.05849 0.46993 0.81457 0.0
H1220 H 0.96623 0.46538 0.76055 0.0
H1221 H 0.96302 0.44451 0.69338 0.0
H1222 H 0.07043 0.52494 0.69903 0.0
H1223 H 0.07334 0.54552 0.76643 0.0
H1224 H 0.95506 0.51505 0.77719 0.0
H1225 H 0.92558 0.53904 0.74029 0.0
H1226 H 0.02252 0.63816 0.75037 0.0
H1227 H 0.05198 0.61354 0.78701 0.0
H1228 H 0.96442 0.57115 0.84272 0.0
H1229 H 0.95968 0.62425 0.85573 0.0
H1230 H 0.06911 0.68631 0.90108 0.0
H1231 H 0.07362 0.63302 0.88715 0.0
H1232 H 0.97122 0.54849 0.91135 0.0
H1233 H 0.96883 0.5725 0.97492 0.0
H1234 H 0.07416 0.59952 0.0131 0.0
H1235 H 0.07672 0.5766 0.94852 0.0
H1236 H 0.9712 0.47369 0.91068 0.0
H1237 H 0.96727 0.42892 0.94983 0.0
H1238 H 0.07581 0.46663 0.95107 0.0
H1239 H 0.07917 0.51031 0.91057 0.0
O1240 O 0.98335 0.44609 0.62861 0.0
O1241 O 0.03988 0.48414 0.63434 0.0
O1242 O 0.98351 0.69029 0.87972 0.0
O1243 O 0.03942 0.72319 0.90453 0.0
C1244 C 0.02307 0.50229 0.83878 0.0
C1245 C 0.02194 0.52085 0.80891 0.0
C1246 C 0.01961 0.55154 0.81686 0.0
C1247 C 0.02238 0.56605 0.85521 0.0
C1248 C 0.02587 0.54864 0.88557 0.0
C1249 C 0.02597 0.5165 0.87726 0.0
C1250 C 0.01056 0.46405 0.82862 0.0
C1251 C 0.9755 0.44026 0.82858 0.0
C1252 C 0.96137 0.4042 0.81607 0.0
C1253 C 0.98207 0.39105 0.80336 0.0
C1254 C 0.0173 0.41505 0.8029 0.0
C1255 C 0.03149 0.45154 0.81541 0.0
C1256 C 0.02018 0.5067 0.76855 0.0
C1257 C 0.9892 0.47816 0.74746 0.0
C1258 C 0.98736 0.46643 0.70896 0.0
C1259 C 0.01646 0.48308 0.6908 0.0
C1260 C 0.04755 0.51148 0.71216 0.0
C1261 C 0.04931 0.52326 0.75065 0.0
C1262 C 0.00553 0.56283 0.78522 0.0
C1263 C 0.97031 0.54127 0.76965 0.0
C1264 C 0.95343 0.55505 0.74858 0.0
C1265 C 0.97149 0.59081 0.74344 0.0
C1266 C 0.00777 0.6106 0.7542 0.0
C1267 C 0.02471 0.59674 0.77539 0.0
C1268 C 0.01949 0.59835 0.86346 0.0
C1269 C 0.98743 0.59631 0.85504 0.0
C1270 C 0.98475 0.62665 0.86271 0.0
C1271 C 0.01405 0.65957 0.87939 0.0
C1272 C 0.04606 0.66141 0.88814 0.0
C1273 C 0.04873 0.63104 0.88024 0.0
C1274 C 0.02433 0.56135 0.92513 0.0
C1275 C 0.99394 0.56001 0.93329 0.0
C1276 C 0.99264 0.57377 0.96965 0.0
C1277 C 0.02145 0.5883 0.99896 0.0
C1278 C 0.0516 0.58867 0.99105 0.0
C1279 C 0.05309 0.57548 0.9543 0.0
C1280 C 0.02549 0.49524 0.90777 0.0
C1281 C 0.99428 0.47275 0.92008 0.0
C1282 C 0.992 0.44701 0.94217 0.0
C1283 C 0.02116 0.44407 0.9532 0.0
C1284 C 0.05295 0.46836 0.9431 0.0
C1285 C 0.05496 0.49338 0.92009 0.0
C1286 C 0.0141 0.47119 0.64961 0.0
C1287 C 0.01127 0.69185 0.88781 0.0
H1288 H 0.45144 0.46423 0.59509 0.0
H1289 H 0.71822 0.72195 0.98125 0.0
H1290 H 0.41988 0.48695 0.79611 0.0
H1291 H 0.37898 0.4226 0.7761 0.0
H1292 H 0.45973 0.4015 0.81659 0.0
H1293 H 0.49962 0.46503 0.83629 0.0
H1294 H 0.4659 0.53597 0.74871 0.0
H1295 H 0.45257 0.50868 0.68142 0.0
H1296 H 0.52615 0.47382 0.70432 0.0
H1297 H 0.53899 0.50102 0.77157 0.0
H1298 H 0.54074 0.60577 0.76356 0.0
H1299 H 0.57692 0.62154 0.71353 0.0
H1300 H 0.63698 0.5808 0.76844 0.0
H1301 H 0.60016 0.56451 0.81774 0.0
H1302 H 0.56268 0.65069 0.87331 0.0
H1303 H 0.6137 0.70267 0.91222 0.0
H1304 H 0.66232 0.63959 0.92595 0.0
H1305 H 0.61182 0.58838 0.88594 0.0
H1306 H 0.50657 0.60098 0.9337 0.0
H1307 H 0.52709 0.62046 0.00325 0.0
H1308 H 0.59157 0.57346 0.99732 0.0
H1309 H 0.57014 0.55323 0.92898 0.0
H1310 H 0.43275 0.52697 0.87649 0.0
H1311 H 0.38982 0.48643 0.91269 0.0
H1312 H 0.46207 0.45534 0.95599 0.0
H1313 H 0.50403 0.49456 0.91902 0.0
O1314 O 0.457 0.47474 0.62182 0.0
O1315 O 0.49464 0.45687 0.63526 0.0
O1316 O 0.67325 0.73434 0.95474 0.0
O1317 O 0.69829 0.70229 0.96456 0.0
C1318 C 0.48813 0.5188 0.83035 0.0
C1319 C 0.51123 0.53703 0.80564 0.0
C1320 C 0.54264 0.56903 0.82032 0.0
C1321 C 0.55048 0.58312 0.85969 0.0
C1322 C 0.52669 0.56533 0.88423 0.0
C1323 C 0.49517 0.53372 0.86933 0.0
C1324 C 0.46247 0.4804 0.81798 0.0
C1325 C 0.42846 0.46821 0.80053 0.0
C1326 C 0.40531 0.43155 0.78894 0.0
C1327 C 0.41603 0.40682 0.79474 0.0
C1328 C 0.45042 0.41959 0.81169 0.0
C1329 C 0.4733 0.45591 0.82316 0.0
C1330 C 0.50362 0.52074 0.76479 0.0
C1331 C 0.47912 0.52248 0.73906 0.0
C1332 C 0.47158 0.50687 0.70067 0.0
C1333 C 0.48836 0.48914 0.68745 0.0
C1334 C 0.51282 0.48734 0.71352 0.0
C1335 C 0.5203 0.50294 0.75188 0.0
C1336 C 0.56841 0.58486 0.79474 0.0
C1337 C 0.56219 0.60099 0.76513 0.0
C1338 C 0.58255 0.60943 0.73631 0.0
C1339 C 0.60951 0.60192 0.73675 0.0
C1340 C 0.61626 0.58667 0.76713 0.0
C1341 C 0.59573 0.57804 0.79577 0.0
C1342 C 0.58377 0.61595 0.87627 0.0
C1343 C 0.58483 0.64851 0.88375 0.0
C1344 C 0.61381 0.678 0.9064 0.0
C1345 C 0.64199 0.67519 0.92245 0.0
C1346 C 0.64111 0.6427 0.91403 0.0
C1347 C 0.61245 0.6135 0.89076 0.0
C1348 C 0.5375 0.57641 0.92631 0.0
C1349 C 0.52498 0.59484 0.94767 0.0
C1350 C 0.53665 0.60585 0.98723 0.0
C1351 C 0.56129 0.5989 0.00556 0.0
C1352 C 0.57305 0.57976 0.98397 0.0
C1353 C 0.56092 0.56826 0.94491 0.0
C1354 C 0.47136 0.51355 0.89521 0.0
C1355 C 0.43938 0.51179 0.89439 0.0
C1356 C 0.4151 0.48895 0.9152 0.0
C1357 C 0.42259 0.46749 0.93654 0.0
C1358 C 0.45539 0.47095 0.93899 0.0
C1359 C 0.47954 0.49366 0.9183 0.0
C1360 C 0.48028 0.47257 0.64666 0.0
C1361 C 0.67205 0.7058 0.94817 0.0
H1362 H 0.63046 0.85356 0.82569 0.0
H1363 H 0.68222 0.61912 0.54814 0.0
H1364 H 0.60153 0.86031 0.61479 0.0
H1365 H 0.62755 0.92525 0.63196 0.0
H1366 H 0.7227 0.94034 0.5972 0.0
H1367 H 0.69678 0.87652 0.58073 0.0
H1368 H 0.58863 0.78406 0.66557 0.0
H1369 H 0.59605 0.80612 0.73362 0.0
H1370 H 0.70041 0.88921 0.72945 0.0
H1371 H 0.69282 0.86674 0.66173 0.0
H1372 H 0.60647 0.71607 0.64262 0.0
H1373 H 0.63682 0.69215 0.67891 0.0
H1374 H 0.73318 0.79145 0.68676 0.0
H1375 H 0.70287 0.81469 0.65009 0.0
H1376 H 0.58385 0.69368 0.54324 0.0
H1377 H 0.58917 0.64069 0.53126 0.0
H1378 H 0.69891 0.70491 0.57441 0.0
H1379 H 0.69334 0.75764 0.58554 0.0
H1380 H 0.58025 0.75015 0.47797 0.0
H1381 H 0.58545 0.73243 0.41256 0.0
H1382 H 0.69041 0.7592 0.45256 0.0
H1383 H 0.68541 0.7781 0.51716 0.0
H1384 H 0.57606 0.81775 0.52105 0.0
H1385 H 0.57809 0.85984 0.47883 0.0
H1386 H 0.68274 0.88869 0.46705 0.0
H1387 H 0.68029 0.84606 0.50843 0.0
O1388 O 0.6277 0.84584 0.79853 0.0
O1389 O 0.68207 0.88612 0.79537 0.0
O1390 O 0.62262 0.60748 0.53167 0.0
O1391 O 0.67931 0.63956 0.55269 0.0
C1392 C 0.63383 0.82538 0.58744 0.0
C1393 C 0.63611 0.80817 0.61816 0.0
C1394 C 0.63807 0.77713 0.61107 0.0
C1395 C 0.63467 0.76145 0.57299 0.0
C1396 C 0.63015 0.77758 0.54192 0.0
C1397 C 0.62931 0.80939 0.54926 0.0
C1398 C 0.64707 0.86402 0.59563 0.0
C1399 C 0.62782 0.87793 0.61063 0.0
C1400 C 0.64283 0.91487 0.6207 0.0
C1401 C 0.6772 0.93798 0.61592 0.0
C1402 C 0.69618 0.92351 0.60117 0.0
C1403 C 0.68129 0.887 0.59123 0.0
C1404 C 0.6399 0.82413 0.65844 0.0
C1405 C 0.61289 0.80734 0.67929 0.0
C1406 C 0.61725 0.81991 0.71819 0.0
C1407 C 0.64887 0.84937 0.73701 0.0
C1408 C 0.67572 0.86648 0.71585 0.0
C1409 C 0.67131 0.8539 0.67698 0.0
C1410 C 0.65263 0.76671 0.64311 0.0
C1411 C 0.63382 0.73308 0.6537 0.0
C1412 C 0.65127 0.71963 0.67469 0.0
C1413 C 0.68764 0.73957 0.68437 0.0
C1414 C 0.70528 0.7753 0.6791 0.0
C1415 C 0.68792 0.78865 0.65815 0.0
C1416 C 0.63809 0.72939 0.56571 0.0
C1417 C 0.60899 0.6962 0.55007 0.0
C1418 C 0.61211 0.66601 0.5433 0.0
C1419 C 0.64447 0.66855 0.552 0.0
C1420 C 0.67361 0.70196 0.56747 0.0
C1421 C 0.67046 0.73211 0.57407 0.0
C1422 C 0.63218 0.76474 0.50254 0.0
C1423 C 0.60426 0.752 0.47255 0.0
C1424 C 0.60735 0.742 0.43523 0.0
C1425 C 0.63832 0.74424 0.42739 0.0
C1426 C 0.66609 0.75676 0.45763 0.0
C1427 C 0.66318 0.76731 0.49467 0.0
C1428 C 0.62801 0.82891 0.51776 0.0
C1429 C 0.59899 0.83235 0.50833 0.0
C1430 C 0.60019 0.85633 0.48428 0.0
C1431 C 0.63076 0.87777 0.47025 0.0
C1432 C 0.65908 0.87282 0.47799 0.0
C1433 C 0.65759 0.84827 0.50127 0.0
C1434 C 0.654 0.86166 0.77869 0.0
C1435 C 0.64799 0.63662 0.54481 0.0
H1436 H 0.17358 0.87948 0.82481 0.0
H1437 H 0.9626 0.58589 0.44817 0.0
H1438 H 0.16144 0.87222 0.60059 0.0
H1439 H 0.20214 0.93522 0.62321 0.0
H1440 H 0.28446 0.91238 0.64713 0.0
H1441 H 0.2428 0.84856 0.62424 0.0
H1442 H 0.12233 0.8312 0.66041 0.0
H1443 H 0.13664 0.85461 0.72898 0.0
H1444 H 0.21204 0.82096 0.74144 0.0
H1445 H 0.19718 0.79735 0.67287 0.0
H1446 H 0.06134 0.77208 0.60933 0.0
H1447 H 0.02398 0.75305 0.65789 0.0
H1448 H 0.08258 0.70842 0.70728 0.0
H1449 H 0.11931 0.72696 0.6579 0.0
H1450 H 0.05047 0.75337 0.54013 0.0
H1451 H -0.00119 0.70469 0.49893 0.0
H1452 H 0.04283 0.63687 0.50645 0.0
H1453 H 0.09509 0.6864 0.54663 0.0
H1454 H 0.09201 0.78855 0.49745 0.0
H1455 H 0.07158 0.77159 0.42868 0.0
H1456 H 0.13464 0.72328 0.41915 0.0
H1457 H 0.154 0.73926 0.48908 0.0
H1458 H 0.1581 0.8491 0.51423 0.0
H1459 H 0.19823 0.88801 0.47559 0.0
H1460 H 0.26669 0.84815 0.50418 0.0
H1461 H 0.2255 0.80811 0.54222 0.0
O1462 O 0.16811 0.8698 0.79782 0.0
O1463 O 0.20656 0.85201 0.80265 0.0
O1464 O 0.96344 0.64282 0.45843 0.0
O1465 O 0.98258 0.60528 0.46508 0.0
C1466 C 0.17317 0.8179 0.5961 0.0
C1467 C 0.15007 0.79829 0.6202 0.0
C1468 C 0.11829 0.76704 0.60439 0.0
C1469 C 0.11022 0.75483 0.56452 0.0
C1470 C 0.13421 0.77362 0.54061 0.0
C1471 C 0.16584 0.80472 0.55655 0.0
C1472 C 0.19927 0.85597 0.61041 0.0
C1473 C 0.18826 0.88079 0.61079 0.0
C1474 C 0.2116 0.91681 0.62389 0.0
C1475 C 0.24667 0.92898 0.63699 0.0
C1476 C 0.25761 0.90387 0.63744 0.0
C1477 C 0.234 0.86753 0.62412 0.0
C1478 C 0.15842 0.81219 0.66187 0.0
C1479 C 0.14168 0.82862 0.6781 0.0
C1480 C 0.15002 0.8421 0.71723 0.0
C1481 C 0.17543 0.83959 0.74074 0.0
C1482 C 0.19229 0.82326 0.7242 0.0
C1483 C 0.18386 0.80974 0.68508 0.0
C1484 C 0.09241 0.75004 0.62954 0.0
C1485 C 0.06534 0.75714 0.62986 0.0
C1486 C 0.04449 0.74689 0.6581 0.0
C1487 C 0.05067 0.72972 0.68676 0.0
C1488 C 0.0774 0.72196 0.68584 0.0
C1489 C 0.09808 0.73202 0.65739 0.0
C1490 C 0.07634 0.72328 0.5468 0.0
C1491 C 0.04862 0.72776 0.53364 0.0
C1492 C 0.0193 0.70002 0.50967 0.0
C1493 C 0.01678 0.66694 0.49921 0.0
C1494 C 0.044 0.66205 0.51385 0.0
C1495 C 0.07368 0.69012 0.53721 0.0
C1496 C 0.12367 0.76425 0.49834 0.0
C1497 C 0.10104 0.77385 0.48065 0.0
C1498 C 0.08954 0.76426 0.44134 0.0
C1499 C 0.10124 0.74576 0.4186 0.0
C1500 C 0.12514 0.73743 0.43606 0.0
C1501 C 0.13612 0.74642 0.47584 0.0
C1502 C 0.18919 0.82618 0.53113 0.0
C1503 C 0.18148 0.84836 0.51163 0.0
C1504 C 0.20452 0.87069 0.48978 0.0
C1505 C 0.23575 0.87143 0.48744 0.0
C1506 C 0.24261 0.8478 0.50535 0.0
C1507 C 0.21943 0.82533 0.52732 0.0
C1508 C 0.18439 0.85411 0.78226 0.0
C1509 C 0.98599 0.63774 0.47298 0.0
H1510 H 0.22026 0.36929 0.85204 0.0
H1511 H 0.96572 0.33439 0.47373 0.0
H1512 H 0.25584 0.40585 0.63458 0.0
H1513 H 0.30092 0.3982 0.66947 0.0
H1514 H 0.22571 0.2873 0.66794 0.0
H1515 H 0.18135 0.29508 0.63266 0.0
H1516 H 0.21264 0.40535 0.69839 0.0
H1517 H 0.22412 0.40039 0.76559 0.0
H1518 H 0.13987 0.29094 0.74332 0.0
H1519 H 0.12897 0.29616 0.67612 0.0
H1520 H 0.139 0.40152 0.68847 0.0
H1521 H 0.10169 0.38881 0.73737 0.0
H1522 H 0.03248 0.2829 0.6738 0.0
H1523 H 0.07016 0.29589 0.6253 0.0
H1524 H 0.11724 0.41481 0.59186 0.0
H1525 H 0.06936 0.41784 0.55707 0.0
H1526 H 0.01844 0.30514 0.51321 0.0
H1527 H 0.06607 0.30238 0.54883 0.0
H1528 H 0.16389 0.41621 0.52601 0.0
H1529 H 0.14534 0.41283 0.45766 0.0
H1530 H 0.09605 0.29807 0.44251 0.0
H1531 H 0.11583 0.30185 0.51034 0.0
H1532 H 0.22418 0.41814 0.54811 0.0
H1533 H 0.257 0.4188 0.49673 0.0
H1534 H 0.22127 0.30715 0.49746 0.0
H1535 H 0.18821 0.30671 0.54787 0.0
O1536 O 0.21543 0.37061 0.8253 0.0
O1537 O 0.17188 0.31446 0.81235 0.0
O1538 O 0.01198 0.39177 0.51142 0.0
O1539 O 0.98479 0.3339 0.48811 0.0
C1540 C 0.18651 0.35661 0.6171 0.0
C1541 C 0.163 0.35452 0.64177 0.0
C1542 C 0.13279 0.35497 0.62766 0.0
C1543 C 0.12631 0.35788 0.58893 0.0
C1544 C 0.1501 0.36062 0.56453 0.0
C1545 C 0.18049 0.36071 0.57869 0.0
C1546 C 0.21533 0.35106 0.63127 0.0
C1547 C 0.24945 0.37974 0.64093 0.0
C1548 C 0.27506 0.37534 0.66104 0.0
C1549 C 0.26673 0.34227 0.67205 0.0
C1550 C 0.23291 0.31322 0.66038 0.0
C1551 C 0.20756 0.31754 0.64 0.0
C1552 C 0.16985 0.35121 0.68251 0.0
C1553 C 0.19676 0.38033 0.70811 0.0
C1554 C 0.20321 0.37742 0.74646 0.0
C1555 C 0.18284 0.3453 0.75987 0.0
C1556 C 0.15599 0.31609 0.73398 0.0
C1557 C 0.14963 0.31902 0.69562 0.0
C1558 C 0.10712 0.34974 0.6532 0.0
C1559 C 0.11542 0.37584 0.68482 0.0
C1560 C 0.09426 0.36836 0.7129 0.0
C1561 C 0.06441 0.33462 0.70981 0.0
C1562 C 0.05551 0.309 0.6773 0.0
C1563 C 0.07669 0.31653 0.64924 0.0
C1564 C 0.09487 0.35832 0.57319 0.0
C1565 C 0.09534 0.39068 0.57541 0.0
C1566 C 0.06818 0.39241 0.55512 0.0
C1567 C 0.0402 0.36176 0.53211 0.0
C1568 C 0.03962 0.32925 0.53055 0.0
C1569 C 0.0666 0.32751 0.55117 0.0
C1570 C 0.14109 0.35926 0.52293 0.0
C1571 C 0.14963 0.39047 0.50768 0.0
C1572 C 0.13916 0.38848 0.46874 0.0
C1573 C 0.11928 0.35517 0.44491 0.0
C1574 C 0.11131 0.32406 0.46028 0.0
C1575 C 0.12253 0.32615 0.49889 0.0
C1576 C 0.20422 0.36246 0.55193 0.0
C1577 C 0.22381 0.39397 0.53726 0.0
C1578 C 0.24215 0.39421 0.50766 0.0
C1579 C 0.24123 0.36291 0.4925 0.0
C1580 C 0.2221 0.33162 0.50797 0.0
C1581 C 0.20365 0.33138 0.53728 0.0
C1582 C 0.18961 0.34238 0.8007 0.0
C1583 C 0.0116 0.36355 0.50992 0.0
loop_
_geom_bond_atom_site_label_1
_geom_bond_atom_site_label_2
_geom_bond_distance
_geom_bond_site_symmetry_2
_ccdc_geom_bond_type
Mg0 O1 2.028 . S
Mg0 O7 1.986 1_455 S
Mg0 O9 2.114 . S
Mg0 O10 2.251 1_454 S
Mg0 O13 2.010 . S
O1 Mg0 2.028 . S
O1 C4 1.250 1_455 S
O2 Mg3 2.028 1_554 S
O2 C4 1.248 . S
Mg3 O2 2.028 1_556 S
Mg3 O8 2.032 . S
Mg3 O10 2.079 . S
C4 O1 1.250 1_655 S
C4 O2 1.248 . S
C5 O6 1.264 . S
C5 O13 1.249 . S
O6 C5 1.264 . S
O7 Mg0 1.986 1_655 S
O7 C11 1.246 1_554 S
O8 Mg3 2.032 . S
O8 C11 1.259 . S
O9 Mg0 2.114 . S
O9 C12 1.252 1_554 S
O10 Mg0 2.251 1_656 S
O10 Mg3 2.079 . S
O10 C12 1.273 1_655 S
C11 O7 1.246 1_556 S
C11 O8 1.259 . S
C12 O9 1.252 1_556 S
C12 O10 1.273 1_455 S
O13 Mg0 2.010 . S
O13 C5 1.249 . S
Mg14 O15 2.028 . S
Mg14 O21 1.986 . S
Mg14 O23 2.114 . S
Mg14 O24 2.251 . S
Mg14 O27 2.010 . S
O15 Mg14 2.028 . S
O15 C18 1.250 . S
O16 Mg17 2.028 . S
O16 C18 1.248 . S
Mg17 O16 2.028 . S
Mg17 O22 2.032 . S
Mg17 O24 2.079 . S
C18 O15 1.250 . S
C18 O16 1.248 . S
C19 O20 1.264 . S
C19 O27 1.249 . S
O20 C19 1.264 . S
O21 Mg14 1.986 . S
O21 C25 1.246 . S
O22 Mg17 2.032 . S
O22 C25 1.259 . S
O23 Mg14 2.114 . S
O23 C26 1.252 . S
O24 Mg14 2.251 . S
O24 Mg17 2.079 . S
O24 C26 1.273 . S
C25 O21 1.246 . S
C25 O22 1.259 . S
C26 O23 1.252 . S
C26 O24 1.273 . S
O27 Mg14 2.010 . S
O27 C19 1.249 . S
Mg28 O29 2.028 1_565 S
Mg28 O35 1.986 1_565 S
Mg28 O37 2.114 1_554 S
Mg28 O38 2.251 1_564 S
Mg28 O41 2.010 . S
O29 Mg28 2.028 1_545 S
O29 C32 1.250 . S
O30 Mg31 2.028 . S
O30 C32 1.248 . S
Mg31 O30 2.028 . S
Mg31 O36 2.032 . S
Mg31 O38 2.079 1_554 S
C32 O29 1.250 . S
C32 O30 1.248 . S
C33 O34 1.264 . S
C33 O41 1.249 . S
O34 C33 1.264 . S
O35 Mg28 1.986 1_545 S
O35 C39 1.246 . S
O36 Mg31 2.032 . S
O36 C39 1.259 . S
O37 Mg28 2.114 1_556 S
O37 C40 1.252 . S
O38 Mg28 2.251 1_546 S
O38 Mg31 2.079 1_556 S
O38 C40 1.273 1_545 S
C39 O35 1.246 . S
C39 O36 1.259 . S
C40 O37 1.252 . S
C40 O38 1.273 1_565 S
O41 Mg28 2.010 . S
O41 C33 1.249 . S
Mg42 O43 2.028 1_655 S
Mg42 O49 1.986 1_655 S
Mg42 O51 2.114 . S
Mg42 O52 2.251 1_655 S
Mg42 O55 2.010 . S
O43 Mg42 2.028 1_455 S
O43 C46 1.250 . S
O44 Mg45 2.028 . S
O44 C46 1.248 . S
Mg45 O44 2.028 . S
Mg45 O50 2.032 . S
Mg45 O52 2.079 . S
C46 O43 1.250 . S
C46 O44 1.248 . S
C47 O48 1.264 . S
C47 O55 1.249 . S
O48 C47 1.264 . S
O49 Mg42 1.986 1_455 S
O49 C53 1.246 . S
O50 Mg45 2.032 . S
O50 C53 1.259 . S
O51 Mg42 2.114 . S
O51 C54 1.252 . S
O52 Mg42 2.251 1_455 S
O52 Mg45 2.079 . S
O52 C54 1.273 1_455 S
C53 O49 1.246 . S
C53 O50 1.259 . S
C54 O51 1.252 . S
C54 O52 1.273 1_655 S
O55 Mg42 2.010 . S
O55 C47 1.249 . S
Mg56 O57 2.028 1_556 S
Mg56 O63 1.986 . S
Mg56 O65 2.114 . S
Mg56 O66 2.251 . S
Mg56 O69 2.010 1_556 S
O57 Mg56 2.028 1_554 S
O57 C60 1.250 . S
O58 Mg59 2.028 1_554 S
O58 C60 1.248 . S
Mg59 O58 2.028 1_556 S
Mg59 O64 2.032 . S
Mg59 O66 2.079 . S
C60 O57 1.250 . S
C60 O58 1.248 . S
C61 O62 1.264 . S
C61 O69 1.249 . S
O62 C61 1.264 . S
O63 Mg56 1.986 . S
O63 C67 1.246 . S
O64 Mg59 2.032 . S
O64 C67 1.259 . S
O65 Mg56 2.114 . S
O65 C68 1.252 . S
O66 Mg56 2.251 . S
O66 Mg59 2.079 . S
O66 C68 1.273 . S
C67 O63 1.246 . S
C67 O64 1.259 . S
C68 O65 1.252 . S
C68 O66 1.273 . S
O69 Mg56 2.010 1_554 S
O69 C61 1.249 . S
Mg70 O71 2.028 . S
Mg70 O77 1.986 1_545 S
Mg70 O79 2.114 . S
Mg70 O80 2.251 . S
Mg70 O83 2.010 . S
O71 Mg70 2.028 . S
O71 C74 1.250 1_545 S
O72 Mg73 2.028 . S
O72 C74 1.248 . S
Mg73 O72 2.028 . S
Mg73 O78 2.032 . S
Mg73 O80 2.079 1_565 S
C74 O71 1.250 1_565 S
C74 O72 1.248 . S
C75 O76 1.264 . S
C75 O83 1.249 . S
O76 C75 1.264 . S
O77 Mg70 1.986 1_565 S
O77 C81 1.246 . S
O78 Mg73 2.032 . S
O78 C81 1.259 . S
O79 Mg70 2.114 . S
O79 C82 1.252 . S
O80 Mg70 2.251 . S
O80 Mg73 2.079 1_545 S
O80 C82 1.273 . S
C81 O77 1.246 . S
C81 O78 1.259 . S
C82 O79 1.252 . S
C82 O80 1.273 . S
O83 Mg70 2.010 . S
O83 C75 1.249 . S
Mg84 O85 2.028 . S
Mg84 O91 1.986 . S
Mg84 O93 2.114 . S
Mg84 O94 2.251 . S
Mg84 O97 2.010 . S
O85 Mg84 2.028 . S
O85 C88 1.250 . S
O86 Mg87 2.028 . S
O86 C88 1.248 . S
Mg87 O86 2.028 . S
Mg87 O92 2.032 . S
Mg87 O94 2.079 . S
C88 O85 1.250 . S
C88 O86 1.248 . S
C89 O90 1.264 . S
C89 O97 1.249 . S
O90 C89 1.264 . S
O91 Mg84 1.986 . S
O91 C95 1.246 . S
O92 Mg87 2.032 . S
O92 C95 1.259 . S
O93 Mg84 2.114 . S
O93 C96 1.252 . S
O94 Mg84 2.251 . S
O94 Mg87 2.079 . S
O94 C96 1.273 . S
C95 O91 1.246 . S
C95 O92 1.259 . S
C96 O93 1.252 . S
C96 O94 1.273 . S
O97 Mg84 2.010 . S
O97 C89 1.249 . S
Mg98 O99 2.028 . S
Mg98 O105 1.986 1_565 S
Mg98 O107 2.114 . S
Mg98 O108 2.251 . S
Mg98 O111 2.010 . S
O99 Mg98 2.028 . S
O99 C102 1.250 . S
O100 Mg101 2.028 . S
O100 C102 1.248 . S
Mg101 O100 2.028 . S
Mg101 O106 2.032 1_565 S
Mg101 O108 2.079 . S
C102 O99 1.250 . S
C102 O100 1.248 . S
C103 O104 1.264 . S
C103 O111 1.249 . S
O104 C103 1.264 . S
O105 Mg98 1.986 1_545 S
O105 C109 1.246 . S
O106 Mg101 2.032 1_545 S
O106 C109 1.259 . S
O107 Mg98 2.114 . S
O107 C110 1.252 . S
O108 Mg98 2.251 . S
O108 Mg101 2.079 . S
O108 C110 1.273 . S
C109 O105 1.246 . S
C109 O106 1.259 . S
C110 O107 1.252 . S
C110 O108 1.273 . S
O111 Mg98 2.010 . S
O111 C103 1.249 . S
Mg112 O113 2.028 . S
Mg112 O119 1.986 . S
Mg112 O121 2.114 . S
Mg112 O122 2.251 . S
Mg112 O125 2.010 1_455 S
O113 Mg112 2.028 . S
O113 C116 1.250 . S
O114 Mg115 2.028 . S
O114 C116 1.248 . S
Mg115 O114 2.028 . S
Mg115 O120 2.032 . S
Mg115 O122 2.079 . S
C116 O113 1.250 . S
C116 O114 1.248 . S
C117 O118 1.264 . S
C117 O125 1.249 . S
O118 C117 1.264 . S
O119 Mg112 1.986 . S
O119 C123 1.246 . S
O120 Mg115 2.032 . S
O120 C123 1.259 . S
O121 Mg112 2.114 . S
O121 C124 1.252 . S
O122 Mg112 2.251 . S
O122 Mg115 2.079 . S
O122 C124 1.273 . S
C123 O119 1.246 . S
C123 O120 1.259 . S
C124 O121 1.252 . S
C124 O122 1.273 . S
O125 Mg112 2.010 1_655 S
O125 C117 1.249 . S
Mg126 O127 2.028 . S
Mg126 O133 1.986 1_565 S
Mg126 O135 2.114 . S
Mg126 O136 2.251 . S
Mg126 O139 2.010 . S
O127 Mg126 2.028 . S
O127 C130 1.250 . S
O128 Mg129 2.028 . S
O128 C130 1.248 . S
Mg129 O128 2.028 . S
Mg129 O134 2.032 1_565 S
Mg129 O136 2.079 . S
C130 O127 1.250 . S
C130 O128 1.248 . S
C131 O132 1.264 . S
C131 O139 1.249 . S
O132 C131 1.264 . S
O133 Mg126 1.986 1_545 S
O133 C137 1.246 . S
O134 Mg129 2.032 1_545 S
O134 C137 1.259 . S
O135 Mg126 2.114 . S
O135 C138 1.252 . S
O136 Mg126 2.251 . S
O136 Mg129 2.079 . S
O136 C138 1.273 . S
C137 O133 1.246 . S
C137 O134 1.259 . S
C138 O135 1.252 . S
C138 O136 1.273 . S
O139 Mg126 2.010 . S
O139 C131 1.249 . S
Mg140 O141 2.028 . S
Mg140 O147 1.986 . S
Mg140 O149 2.114 . S
Mg140 O150 2.251 . S
Mg140 O153 2.010 1_455 S
O141 Mg140 2.028 . S
O141 C144 1.250 . S
O142 Mg143 2.028 . S
O142 C144 1.248 . S
Mg143 O142 2.028 . S
Mg143 O148 2.032 . S
Mg143 O150 2.079 . S
C144 O141 1.250 . S
C144 O142 1.248 . S
C145 O146 1.264 . S
C145 O153 1.249 . S
O146 C145 1.264 . S
O147 Mg140 1.986 . S
O147 C151 1.246 . S
O148 Mg143 2.032 . S
O148 C151 1.259 . S
O149 Mg140 2.114 . S
O149 C152 1.252 . S
O150 Mg140 2.251 . S
O150 Mg143 2.079 . S
O150 C152 1.273 . S
C151 O147 1.246 . S
C151 O148 1.259 . S
C152 O149 1.252 . S
C152 O150 1.273 . S
O153 Mg140 2.010 1_655 S
O153 C145 1.249 . S
Mg154 O155 2.028 . S
Mg154 O161 1.986 . S
Mg154 O163 2.114 . S
Mg154 O164 2.251 . S
Mg154 O167 2.010 . S
O155 Mg154 2.028 . S
O155 C158 1.250 . S
O156 Mg157 2.028 . S
O156 C158 1.248 . S
Mg157 O156 2.028 . S
Mg157 O162 2.032 . S
Mg157 O164 2.079 . S
C158 O155 1.250 . S
C158 O156 1.248 . S
C159 O160 1.264 . S
C159 O167 1.249 . S
O160 C159 1.264 . S
O161 Mg154 1.986 . S
O161 C165 1.246 . S
O162 Mg157 2.032 . S
O162 C165 1.259 . S
O163 Mg154 2.114 . S
O163 C166 1.252 . S
O164 Mg154 2.251 . S
O164 Mg157 2.079 . S
O164 C166 1.273 . S
C165 O161 1.246 . S
C165 O162 1.259 . S
C166 O163 1.252 . S
C166 O164 1.273 . S
O167 Mg154 2.010 . S
O167 C159 1.249 . S
Mg168 O169 2.028 . S
Mg168 O175 1.986 1_545 S
Mg168 O177 2.114 . S
Mg168 O178 2.251 . S
Mg168 O181 2.010 . S
O169 Mg168 2.028 . S
O169 C172 1.250 . S
O170 Mg171 2.028 . S
O170 C172 1.248 . S
Mg171 O170 2.028 . S
Mg171 O176 2.032 . S
Mg171 O178 2.079 . S
C172 O169 1.250 . S
C172 O170 1.248 . S
C173 O174 1.264 . S
C173 O181 1.249 . S
O174 C173 1.264 . S
O175 Mg168 1.986 1_565 S
O175 C179 1.246 . S
O176 Mg171 2.032 . S
O176 C179 1.259 1_545 S
O177 Mg168 2.114 . S
O177 C180 1.252 . S
O178 Mg168 2.251 . S
O178 Mg171 2.079 . S
O178 C180 1.273 . S
C179 O175 1.246 . S
C179 O176 1.259 1_565 S
C180 O177 1.252 . S
C180 O178 1.273 . S
O181 Mg168 2.010 . S
O181 C173 1.249 . S
Mg182 O183 2.028 . S
Mg182 O189 1.986 . S
Mg182 O191 2.114 . S
Mg182 O192 2.251 . S
Mg182 O195 2.010 1_655 S
O183 Mg182 2.028 . S
O183 C186 1.250 . S
O184 Mg185 2.028 . S
O184 C186 1.248 . S
Mg185 O184 2.028 . S
Mg185 O190 2.032 . S
Mg185 O192 2.079 . S
C186 O183 1.250 . S
C186 O184 1.248 . S
C187 O188 1.264 . S
C187 O195 1.249 . S
O188 C187 1.264 . S
O189 Mg182 1.986 . S
O189 C193 1.246 . S
O190 Mg185 2.032 . S
O190 C193 1.259 . S
O191 Mg182 2.114 . S
O191 C194 1.252 . S
O192 Mg182 2.251 . S
O192 Mg185 2.079 . S
O192 C194 1.273 . S
C193 O189 1.246 . S
C193 O190 1.259 . S
C194 O191 1.252 . S
C194 O192 1.273 . S
O195 Mg182 2.010 1_455 S
O195 C187 1.249 . S
Mg196 O197 2.028 . S
Mg196 O203 1.986 . S
Mg196 O205 2.114 . S
Mg196 O206 2.251 . S
Mg196 O209 2.010 . S
O197 Mg196 2.028 . S
O197 C200 1.250 . S
O198 Mg199 2.028 . S
O198 C200 1.248 . S
Mg199 O198 2.028 . S
Mg199 O204 2.032 . S
Mg199 O206 2.079 . S
C200 O197 1.250 . S
C200 O198 1.248 . S
C201 O202 1.264 . S
C201 O209 1.249 . S
O202 C201 1.264 . S
O203 Mg196 1.986 . S
O203 C207 1.246 . S
O204 Mg199 2.032 . S
O204 C207 1.259 . S
O205 Mg196 2.114 . S
O205 C208 1.252 . S
O206 Mg196 2.251 . S
O206 Mg199 2.079 . S
O206 C208 1.273 . S
C207 O203 1.246 . S
C207 O204 1.259 . S
C208 O205 1.252 . S
C208 O206 1.273 . S
O209 Mg196 2.010 . S
O209 C201 1.249 . S
Mg210 O211 2.028 . S
Mg210 O217 1.986 . S
Mg210 O219 2.114 . S
Mg210 O220 2.251 . S
Mg210 O223 2.010 . S
O211 Mg210 2.028 . S
O211 C214 1.250 . S
O212 Mg213 2.028 . S
O212 C214 1.248 . S
Mg213 O212 2.028 . S
Mg213 O218 2.032 . S
Mg213 O220 2.079 . S
C214 O211 1.250 . S
C214 O212 1.248 . S
C215 O216 1.264 . S
C215 O223 1.249 . S
O216 C215 1.264 . S
O217 Mg210 1.986 . S
O217 C221 1.246 . S
O218 Mg213 2.032 . S
O218 C221 1.259 . S
O219 Mg210 2.114 . S
O219 C222 1.252 . S
O220 Mg210 2.251 . S
O220 Mg213 2.079 . S
O220 C222 1.273 . S
C221 O217 1.246 . S
C221 O218 1.259 . S
C222 O219 1.252 . S
C222 O220 1.273 . S
O223 Mg210 2.010 . S
O223 C215 1.249 . S
Mg224 O225 2.028 . S
Mg224 O231 1.986 1_545 S
Mg224 O233 2.114 . S
Mg224 O234 2.251 . S
Mg224 O237 2.010 . S
O225 Mg224 2.028 . S
O225 C228 1.250 . S
O226 Mg227 2.028 . S
O226 C228 1.248 . S
Mg227 O226 2.028 . S
Mg227 O232 2.032 . S
Mg227 O234 2.079 . S
C228 O225 1.250 . S
C228 O226 1.248 . S
C229 O230 1.264 . S
C229 O237 1.249 . S
O230 C229 1.264 . S
O231 Mg224 1.986 1_565 S
O231 C235 1.246 . S
O232 Mg227 2.032 . S
O232 C235 1.259 1_545 S
O233 Mg224 2.114 . S
O233 C236 1.252 . S
O234 Mg224 2.251 . S
O234 Mg227 2.079 . S
O234 C236 1.273 . S
C235 O231 1.246 . S
C235 O232 1.259 1_565 S
C236 O233 1.252 . S
C236 O234 1.273 . S
O237 Mg224 2.010 . S
O237 C229 1.249 . S
Mg238 O239 2.028 . S
Mg238 O245 1.986 . S
Mg238 O247 2.114 . S
Mg238 O248 2.251 . S
Mg238 O251 2.010 1_655 S
O239 Mg238 2.028 . S
O239 C242 1.250 . S
O240 Mg241 2.028 . S
O240 C242 1.248 . S
Mg241 O240 2.028 . S
Mg241 O246 2.032 . S
Mg241 O248 2.079 . S
C242 O239 1.250 . S
C242 O240 1.248 . S
C243 O244 1.264 . S
C243 O251 1.249 . S
O244 C243 1.264 . S
O245 Mg238 1.986 . S
O245 C249 1.246 . S
O246 Mg241 2.032 . S
O246 C249 1.259 . S
O247 Mg238 2.114 . S
O247 C250 1.252 . S
O248 Mg238 2.251 . S
O248 Mg241 2.079 . S
O248 C250 1.273 . S
C249 O245 1.246 . S
C249 O246 1.259 . S
C250 O247 1.252 . S
C250 O248 1.273 . S
O251 Mg238 2.010 1_455 S
O251 C243 1.249 . S
H252 O278 0.856 . S
H253 O281 0.854 . S
H254 C289 0.930 . S
H255 C290 0.930 . S
H256 C292 0.930 . S
H257 C293 0.930 . S
H258 C295 0.931 . S
H259 C296 0.930 . S
H260 C298 0.930 . S
H261 C299 0.929 . S
H262 C301 0.930 . S
H263 C302 0.931 . S
H264 C304 0.930 . S
H265 C305 0.929 . S
H266 C307 0.931 . S
H267 C308 0.930 . S
H268 C310 0.930 . S
H269 C311 0.932 . S
H270 C313 0.930 . S
H271 C314 0.929 . S
H272 C316 0.931 . S
H273 C317 0.930 . S
H274 C319 0.929 . S
H275 C320 0.931 . S
H276 C322 0.930 . S
H277 C323 0.929 . S
O278 H252 0.856 . S
O278 C324 1.300 . S
O279 C324 1.209 . S
O280 C325 1.199 . S
O281 H253 0.854 . S
O281 C325 1.297 . S
C282 C283 1.404 . S
C282 C287 1.397 . S
C282 C288 1.492 . S
C283 C282 1.404 . S
C283 C284 1.396 . S
C283 C294 1.492 . S
C284 C283 1.396 . S
C284 C285 1.397 . S
C284 C300 1.509 . S
C285 C284 1.397 . S
C285 C286 1.412 . S
C285 C306 1.485 . S
C286 C285 1.412 . S
C286 C287 1.388 . S
C286 C312 1.490 . S
C287 C282 1.397 . S
C287 C286 1.388 . S
C287 C318 1.519 . S
C288 C282 1.492 . S
C288 C289 1.363 . S
C288 C293 1.390 . S
C289 H254 0.930 . S
C289 C288 1.363 . S
C289 C290 1.372 . S
C290 H255 0.930 . S
C290 C289 1.372 . S
C290 C291 1.383 . S
C291 C290 1.383 . S
C291 C292 1.395 . S
C292 H256 0.930 . S
C292 C291 1.395 . S
C292 C293 1.362 . S
C293 H257 0.930 . S
C293 C288 1.390 . S
C293 C292 1.362 . S
C294 C283 1.492 . S
C294 C295 1.377 . S
C294 C299 1.397 . S
C295 H258 0.931 . S
C295 C294 1.377 . S
C295 C296 1.376 . S
C296 H259 0.930 . S
C296 C295 1.376 . S
C296 C297 1.376 . S
C297 C296 1.376 . S
C297 C298 1.378 . S
C297 C324 1.486 1_554 S
C298 H260 0.930 . S
C298 C297 1.378 . S
C298 C299 1.376 . S
C299 H261 0.929 . S
C299 C294 1.397 . S
C299 C298 1.376 . S
C300 C284 1.509 . S
C300 C301 1.391 . S
C300 C305 1.386 . S
C301 H262 0.930 . S
C301 C300 1.391 . S
C301 C302 1.375 . S
C302 H263 0.931 . S
C302 C301 1.375 . S
C302 C303 1.375 . S
C303 C302 1.375 . S
C303 C304 1.361 . S
C304 H264 0.930 . S
C304 C303 1.361 . S
C304 C305 1.399 . S
C305 H265 0.929 . S
C305 C300 1.386 . S
C305 C304 1.399 . S
C306 C285 1.485 . S
C306 C307 1.394 . S
C306 C311 1.360 . S
C307 H266 0.931 . S
C307 C306 1.394 . S
C307 C308 1.372 . S
C308 H267 0.930 . S
C308 C307 1.372 . S
C308 C309 1.397 . S
C309 C308 1.397 . S
C309 C310 1.390 . S
C309 C325 1.476 . S
C310 H268 0.930 . S
C310 C309 1.390 . S
C310 C311 1.366 . S
C311 H269 0.932 . S
C311 C306 1.360 . S
C311 C310 1.366 . S
C312 C286 1.490 . S
C312 C313 1.380 . S
C312 C317 1.386 . S
C313 H270 0.930 . S
C313 C312 1.380 . S
C313 C314 1.381 . S
C314 H271 0.929 . S
C314 C313 1.381 . S
C314 C315 1.371 . S
C315 C314 1.371 . S
C315 C316 1.380 . S
C316 H272 0.931 . S
C316 C315 1.380 . S
C316 C317 1.387 . S
C317 H273 0.930 . S
C317 C312 1.386 . S
C317 C316 1.387 . S
C318 C287 1.519 . S
C318 C319 1.377 . S
C318 C323 1.361 . S
C319 H274 0.929 . S
C319 C318 1.377 . S
C319 C320 1.386 . S
C320 H275 0.931 . S
C320 C319 1.386 . S
C320 C321 1.363 . S
C321 C320 1.363 . S
C321 C322 1.385 . S
C322 H276 0.930 . S
C322 C321 1.385 . S
C322 C323 1.396 . S
C323 H277 0.929 . S
C323 C318 1.361 . S
C323 C322 1.396 . S
C324 O278 1.300 . S
C324 O279 1.209 . S
C324 C297 1.486 1_556 S
C325 O280 1.199 . S
C325 O281 1.297 . S
C325 C309 1.476 . S
H326 O352 0.856 . S
H327 O355 0.854 . S
H328 C363 0.930 . S
H329 C364 0.930 . S
H330 C366 0.930 . S
H331 C367 0.930 . S
H332 C369 0.931 . S
H333 C370 0.930 . S
H334 C372 0.930 . S
H335 C373 0.929 . S
H336 C375 0.930 . S
H337 C376 0.931 . S
H338 C378 0.930 . S
H339 C379 0.929 . S
H340 C381 0.931 . S
H341 C382 0.930 . S
H342 C384 0.930 . S
H343 C385 0.932 . S
H344 C387 0.930 . S
H345 C388 0.929 . S
H346 C390 0.931 . S
H347 C391 0.930 . S
H348 C393 0.929 . S
H349 C394 0.931 . S
H350 C396 0.930 . S
H351 C397 0.929 . S
O352 H326 0.856 . S
O352 C398 1.300 . S
O353 C398 1.209 . S
O354 C399 1.199 . S
O355 H327 0.854 . S
O355 C399 1.297 . S
C356 C357 1.404 . S
C356 C361 1.397 . S
C356 C362 1.492 . S
C357 C356 1.404 . S
C357 C358 1.396 . S
C357 C368 1.492 . S
C358 C357 1.396 . S
C358 C359 1.397 . S
C358 C374 1.509 . S
C359 C358 1.397 . S
C359 C360 1.412 . S
C359 C380 1.485 . S
C360 C359 1.412 . S
C360 C361 1.388 . S
C360 C386 1.490 . S
C361 C356 1.397 . S
C361 C360 1.388 . S
C361 C392 1.519 . S
C362 C356 1.492 . S
C362 C363 1.363 . S
C362 C367 1.390 . S
C363 H328 0.930 . S
C363 C362 1.363 . S
C363 C364 1.372 . S
C364 H329 0.930 . S
C364 C363 1.372 . S
C364 C365 1.383 . S
C365 C364 1.383 . S
C365 C366 1.395 . S
C366 H330 0.930 . S
C366 C365 1.395 . S
C366 C367 1.362 . S
C367 H331 0.930 . S
C367 C362 1.390 . S
C367 C366 1.362 . S
C368 C357 1.492 . S
C368 C369 1.377 . S
C368 C373 1.397 . S
C369 H332 0.931 . S
C369 C368 1.377 . S
C369 C370 1.376 . S
C370 H333 0.930 . S
C370 C369 1.376 . S
C370 C371 1.376 . S
C371 C370 1.376 . S
C371 C372 1.378 . S
C371 C398 1.486 1_554 S
C372 H334 0.930 . S
C372 C371 1.378 . S
C372 C373 1.376 . S
C373 H335 0.929 . S
C373 C368 1.397 . S
C373 C372 1.376 . S
C374 C358 1.509 . S
C374 C375 1.391 . S
C374 C379 1.386 . S
C375 H336 0.930 . S
C375 C374 1.391 . S
C375 C376 1.375 . S
C376 H337 0.931 . S
C376 C375 1.375 . S
C376 C377 1.375 . S
C377 C376 1.375 . S
C377 C378 1.361 . S
C378 H338 0.930 . S
C378 C377 1.361 . S
C378 C379 1.399 . S
C379 H339 0.929 . S
C379 C374 1.386 . S
C379 C378 1.399 . S
C380 C359 1.485 . S
C380 C381 1.394 . S
C380 C385 1.360 . S
C381 H340 0.931 . S
C381 C380 1.394 . S
C381 C382 1.372 . S
C382 H341 0.930 . S
C382 C381 1.372 . S
C382 C383 1.397 1_565 S
C383 C382 1.397 1_545 S
C383 C384 1.390 . S
C383 C399 1.476 . S
C384 H342 0.930 . S
C384 C383 1.390 . S
C384 C385 1.366 1_545 S
C385 H343 0.932 . S
C385 C380 1.360 . S
C385 C384 1.366 1_565 S
C386 C360 1.490 . S
C386 C387 1.380 . S
C386 C391 1.386 . S
C387 H344 0.930 . S
C387 C386 1.380 . S
C387 C388 1.381 . S
C388 H345 0.929 . S
C388 C387 1.381 . S
C388 C389 1.371 . S
C389 C388 1.371 . S
C389 C390 1.380 . S
C390 H346 0.931 . S
C390 C389 1.380 . S
C390 C391 1.387 . S
C391 H347 0.930 . S
C391 C386 1.386 . S
C391 C390 1.387 . S
C392 C361 1.519 . S
C392 C393 1.377 . S
C392 C397 1.361 . S
C393 H348 0.929 . S
C393 C392 1.377 . S
C393 C394 1.386 . S
C394 H349 0.931 . S
C394 C393 1.386 . S
C394 C395 1.363 . S
C395 C394 1.363 . S
C395 C396 1.385 . S
C396 H350 0.930 . S
C396 C395 1.385 . S
C396 C397 1.396 . S
C397 H351 0.929 . S
C397 C392 1.361 . S
C397 C396 1.396 . S
C398 O352 1.300 . S
C398 O353 1.209 . S
C398 C371 1.486 1_556 S
C399 O354 1.199 . S
C399 O355 1.297 . S
C399 C383 1.476 . S
H400 O426 0.856 . S
H401 O429 0.854 . S
H402 C437 0.930 . S
H403 C438 0.930 . S
H404 C440 0.930 . S
H405 C441 0.930 . S
H406 C443 0.931 . S
H407 C444 0.930 . S
H408 C446 0.930 . S
H409 C447 0.929 . S
H410 C449 0.930 . S
H411 C450 0.931 . S
H412 C452 0.930 . S
H413 C453 0.929 . S
H414 C455 0.931 . S
H415 C456 0.930 . S
H416 C458 0.930 . S
H417 C459 0.932 . S
H418 C461 0.930 . S
H419 C462 0.929 . S
H420 C464 0.931 . S
H421 C465 0.930 . S
H422 C467 0.929 . S
H423 C468 0.931 . S
H424 C470 0.930 . S
H425 C471 0.929 . S
O426 H400 0.856 . S
O426 C472 1.300 . S
O427 C472 1.209 . S
O428 C473 1.199 . S
O429 H401 0.854 . S
O429 C473 1.297 . S
C430 C431 1.404 . S
C430 C435 1.397 . S
C430 C436 1.492 . S
C431 C430 1.404 . S
C431 C432 1.396 . S
C431 C442 1.492 . S
C432 C431 1.396 . S
C432 C433 1.397 . S
C432 C448 1.509 . S
C433 C432 1.397 . S
C433 C434 1.412 . S
C433 C454 1.485 . S
C434 C433 1.412 . S
C434 C435 1.388 . S
C434 C460 1.490 . S
C435 C430 1.397 . S
C435 C434 1.388 . S
C435 C466 1.519 . S
C436 C430 1.492 . S
C436 C437 1.363 . S
C436 C441 1.390 . S
C437 H402 0.930 . S
C437 C436 1.363 . S
C437 C438 1.372 . S
C438 H403 0.930 . S
C438 C437 1.372 . S
C438 C439 1.383 . S
C439 C438 1.383 . S
C439 C440 1.395 . S
C440 H404 0.930 . S
C440 C439 1.395 . S
C440 C441 1.362 . S
C441 H405 0.930 . S
C441 C436 1.390 . S
C441 C440 1.362 . S
C442 C431 1.492 . S
C442 C443 1.377 . S
C442 C447 1.397 . S
C443 H406 0.931 . S
C443 C442 1.377 . S
C443 C444 1.376 . S
C444 H407 0.930 . S
C444 C443 1.376 . S
C444 C445 1.376 . S
C445 C444 1.376 . S
C445 C446 1.378 . S
C445 C472 1.486 1_554 S
C446 H408 0.930 . S
C446 C445 1.378 . S
C446 C447 1.376 . S
C447 H409 0.929 . S
C447 C442 1.397 . S
C447 C446 1.376 . S
C448 C432 1.509 . S
C448 C449 1.391 . S
C448 C453 1.386 . S
C449 H410 0.930 . S
C449 C448 1.391 . S
C449 C450 1.375 . S
C450 H411 0.931 . S
C450 C449 1.375 . S
C450 C451 1.375 . S
C451 C450 1.375 . S
C451 C452 1.361 . S
C452 H412 0.930 . S
C452 C451 1.361 . S
C452 C453 1.399 . S
C453 H413 0.929 . S
C453 C448 1.386 . S
C453 C452 1.399 . S
C454 C433 1.485 . S
C454 C455 1.394 . S
C454 C459 1.360 . S
C455 H414 0.931 . S
C455 C454 1.394 . S
C455 C456 1.372 1_565 S
C456 H415 0.930 . S
C456 C455 1.372 1_545 S
C456 C457 1.397 . S
C457 C456 1.397 . S
C457 C458 1.390 1_545 S
C457 C473 1.476 . S
C458 H416 0.930 . S
C458 C457 1.390 1_565 S
C458 C459 1.366 . S
C459 H417 0.932 . S
C459 C454 1.360 . S
C459 C458 1.366 . S
C460 C434 1.490 . S
C460 C461 1.380 . S
C460 C465 1.386 . S
C461 H418 0.930 . S
C461 C460 1.380 . S
C461 C462 1.381 . S
C462 H419 0.929 . S
C462 C461 1.381 . S
C462 C463 1.371 . S
C463 C462 1.371 . S
C463 C464 1.380 . S
C464 H420 0.931 . S
C464 C463 1.380 . S
C464 C465 1.387 . S
C465 H421 0.930 . S
C465 C460 1.386 . S
C465 C464 1.387 . S
C466 C435 1.519 . S
C466 C467 1.377 . S
C466 C471 1.361 . S
C467 H422 0.929 . S
C467 C466 1.377 . S
C467 C468 1.386 . S
C468 H423 0.931 . S
C468 C467 1.386 . S
C468 C469 1.363 . S
C469 C468 1.363 . S
C469 C470 1.385 . S
C470 H424 0.930 . S
C470 C469 1.385 . S
C470 C471 1.396 . S
C471 H425 0.929 . S
C471 C466 1.361 . S
C471 C470 1.396 . S
C472 O426 1.300 . S
C472 O427 1.209 . S
C472 C445 1.486 1_556 S
C473 O428 1.199 . S
C473 O429 1.297 . S
C473 C457 1.476 . S
H474 O500 0.856 . S
H475 O503 0.854 . S
H476 C511 0.930 . S
H477 C512 0.930 . S
H478 C514 0.930 . S
H479 C515 0.930 . S
H480 C517 0.931 1_556 S
H481 C518 0.930 . S
H482 C520 0.930 . S
H483 C521 0.929 . S
H484 C523 0.930 . S
H485 C524 0.931 . S
H486 C526 0.930 . S
H487 C527 0.929 . S
H488 C529 0.931 . S
H489 C530 0.930 1_565 S
H490 C532 0.930 . S
H491 C533 0.932 . S
H492 C535 0.930 . S
H493 C536 0.929 . S
H494 C538 0.931 . S
H495 C539 0.930 . S
H496 C541 0.929 . S
H497 C542 0.931 . S
H498 C544 0.930 . S
H499 C545 0.929 . S
O500 H474 0.856 . S
O500 C546 1.300 . S
O501 C546 1.209 . S
O502 C547 1.199 . S
O503 H475 0.854 . S
O503 C547 1.297 . S
C504 C505 1.404 . S
C504 C509 1.397 . S
C504 C510 1.492 . S
C505 C504 1.404 . S
C505 C506 1.396 . S
C505 C516 1.492 . S
C506 C505 1.396 . S
C506 C507 1.397 . S
C506 C522 1.509 . S
C507 C506 1.397 . S
C507 C508 1.412 . S
C507 C528 1.485 . S
C508 C507 1.412 . S
C508 C509 1.388 . S
C508 C534 1.490 . S
C509 C504 1.397 . S
C509 C508 1.388 . S
C509 C540 1.519 . S
C510 C504 1.492 . S
C510 C511 1.363 . S
C510 C515 1.390 . S
C511 H476 0.930 . S
C511 C510 1.363 . S
C511 C512 1.372 . S
C512 H477 0.930 . S
C512 C511 1.372 . S
C512 C513 1.383 . S
C513 C512 1.383 . S
C513 C514 1.395 . S
C514 H478 0.930 . S
C514 C513 1.395 . S
C514 C515 1.362 . S
C515 H479 0.930 . S
C515 C510 1.390 . S
C515 C514 1.362 . S
C516 C505 1.492 . S
C516 C517 1.377 1_556 S
C516 C521 1.397 . S
C517 H480 0.931 1_554 S
C517 C516 1.377 1_554 S
C517 C518 1.376 . S
C518 H481 0.930 . S
C518 C517 1.376 . S
C518 C519 1.376 . S
C519 C518 1.376 . S
C519 C520 1.378 . S
C519 C546 1.486 . S
C520 H482 0.930 . S
C520 C519 1.378 . S
C520 C521 1.376 1_554 S
C521 H483 0.929 . S
C521 C516 1.397 . S
C521 C520 1.376 1_556 S
C522 C506 1.509 . S
C522 C523 1.391 . S
C522 C527 1.386 . S
C523 H484 0.930 . S
C523 C522 1.391 . S
C523 C524 1.375 . S
C524 H485 0.931 . S
C524 C523 1.375 . S
C524 C525 1.375 1_556 S
C525 C524 1.375 1_554 S
C525 C526 1.361 . S
C526 H486 0.930 . S
C526 C525 1.361 . S
C526 C527 1.399 1_554 S
C527 H487 0.929 . S
C527 C522 1.386 . S
C527 C526 1.399 1_556 S
C528 C507 1.485 . S
C528 C529 1.394 . S
C528 C533 1.360 . S
C529 H488 0.931 . S
C529 C528 1.394 . S
C529 C530 1.372 . S
C530 H489 0.930 1_545 S
C530 C529 1.372 . S
C530 C531 1.397 . S
C531 C530 1.397 . S
C531 C532 1.390 . S
C531 C547 1.476 1_545 S
C532 H490 0.930 . S
C532 C531 1.390 . S
C532 C533 1.366 . S
C533 H491 0.932 . S
C533 C528 1.360 . S
C533 C532 1.366 . S
C534 C508 1.490 . S
C534 C535 1.380 . S
C534 C539 1.386 . S
C535 H492 0.930 . S
C535 C534 1.380 . S
C535 C536 1.381 . S
C536 H493 0.929 . S
C536 C535 1.381 . S
C536 C537 1.371 . S
C537 C536 1.371 . S
C537 C538 1.380 . S
C538 H494 0.931 . S
C538 C537 1.380 . S
C538 C539 1.387 . S
C539 H495 0.930 . S
C539 C534 1.386 . S
C539 C538 1.387 . S
C540 C509 1.519 . S
C540 C541 1.377 . S
C540 C545 1.361 . S
C541 H496 0.929 . S
C541 C540 1.377 . S
C541 C542 1.386 . S
C542 H497 0.931 . S
C542 C541 1.386 . S
C542 C543 1.363 . S
C543 C542 1.363 . S
C543 C544 1.385 . S
C544 H498 0.930 . S
C544 C543 1.385 . S
C544 C545 1.396 . S
C545 H499 0.929 . S
C545 C540 1.361 . S
C545 C544 1.396 . S
C546 O500 1.300 . S
C546 O501 1.209 . S
C546 C519 1.486 . S
C547 O502 1.199 . S
C547 O503 1.297 . S
C547 C531 1.476 1_565 S
H548 O574 0.856 . S
H549 O577 0.854 . S
H550 C585 0.930 . S
H551 C586 0.930 . S
H552 C588 0.930 . S
H553 C589 0.930 . S
H554 C591 0.931 . S
H555 C592 0.930 . S
H556 C594 0.930 . S
H557 C595 0.937 . S
H558 C597 0.930 . S
H559 C598 0.931 . S
H560 C600 0.930 . S
H561 C601 0.929 . S
H562 C603 0.931 . S
H563 C604 0.930 . S
H564 C606 0.930 1_565 S
H565 C607 0.932 . S
H566 C609 0.930 . S
H567 C610 0.929 . S
H568 C612 0.931 . S
H569 C613 0.930 . S
H570 C615 0.929 . S
H571 C616 0.931 . S
H572 C618 0.930 . S
H573 C619 0.929 . S
O574 H548 0.856 . S
O574 C620 1.300 . S
O575 C620 1.209 . S
O576 C621 1.199 . S
O577 H549 0.854 . S
O577 C621 1.297 . S
C578 C579 1.404 . S
C578 C583 1.397 . S
C578 C584 1.492 . S
C579 C578 1.404 . S
C579 C580 1.396 . S
C579 C590 1.492 . S
C580 C579 1.396 . S
C580 C581 1.397 . S
C580 C596 1.509 . S
C581 C580 1.397 . S
C581 C582 1.412 . S
C581 C602 1.485 . S
C582 C581 1.412 . S
C582 C583 1.388 . S
C582 C608 1.490 . S
C583 C578 1.397 . S
C583 C582 1.388 . S
C583 C614 1.519 . S
C584 C578 1.492 . S
C584 C585 1.363 . S
C584 C589 1.390 . S
C585 H550 0.930 . S
C585 C584 1.363 . S
C585 C586 1.372 . S
C586 H551 0.930 . S
C586 C585 1.372 . S
C586 C587 1.383 . S
C587 C586 1.383 . S
C587 C588 1.395 . S
C588 H552 0.930 . S
C588 C587 1.395 . S
C588 C589 1.362 . S
C589 H553 0.930 . S
C589 C584 1.390 . S
C589 C588 1.362 . S
C590 C579 1.492 . S
C590 C591 1.377 1_556 S
C590 C595 1.397 1_556 S
C591 H554 0.931 . S
C591 C590 1.377 1_554 S
C591 C592 1.376 . S
C592 H555 0.930 . S
C592 C591 1.376 . S
C592 C593 1.376 . S
C593 C592 1.376 . S
C593 C594 1.378 . S
C593 C620 1.486 . S
C594 H556 0.930 . S
C594 C593 1.378 . S
C594 C595 1.376 . S
C595 H557 0.937 . S
C595 C590 1.397 1_554 S
C595 C594 1.376 . S
C596 C580 1.509 . S
C596 C597 1.391 . S
C596 C601 1.386 . S
C597 H558 0.930 . S
C597 C596 1.391 . S
C597 C598 1.375 . S
C598 H559 0.931 . S
C598 C597 1.375 . S
C598 C599 1.375 1_556 S
C599 C598 1.375 1_554 S
C599 C600 1.361 . S
C600 H560 0.930 . S
C600 C599 1.361 . S
C600 C601 1.399 1_554 S
C601 H561 0.929 . S
C601 C596 1.386 . S
C601 C600 1.399 1_556 S
C602 C581 1.485 . S
C602 C603 1.394 . S
C602 C607 1.360 . S
C603 H562 0.931 . S
C603 C602 1.394 . S
C603 C604 1.372 . S
C604 H563 0.930 . S
C604 C603 1.372 . S
C604 C605 1.397 . S
C605 C604 1.397 . S
C605 C606 1.390 . S
C605 C621 1.476 1_545 S
C606 H564 0.930 1_545 S
C606 C605 1.390 . S
C606 C607 1.366 . S
C607 H565 0.932 . S
C607 C602 1.360 . S
C607 C606 1.366 . S
C608 C582 1.490 . S
C608 C609 1.380 . S
C608 C613 1.386 . S
C609 H566 0.930 . S
C609 C608 1.380 . S
C609 C610 1.381 . S
C610 H567 0.929 . S
C610 C609 1.381 . S
C610 C611 1.371 . S
C611 C610 1.371 . S
C611 C612 1.380 . S
C612 H568 0.931 . S
C612 C611 1.380 . S
C612 C613 1.387 . S
C613 H569 0.930 . S
C613 C608 1.386 . S
C613 C612 1.387 . S
C614 C583 1.519 . S
C614 C615 1.377 . S
C614 C619 1.361 . S
C615 H570 0.929 . S
C615 C614 1.377 . S
C615 C616 1.386 . S
C616 H571 0.931 . S
C616 C615 1.386 . S
C616 C617 1.363 . S
C617 C616 1.363 . S
C617 C618 1.385 . S
C618 H572 0.930 . S
C618 C617 1.385 . S
C618 C619 1.396 . S
C619 H573 0.929 . S
C619 C614 1.361 . S
C619 C618 1.396 . S
C620 O574 1.300 . S
C620 O575 1.209 . S
C620 C593 1.486 . S
C621 O576 1.199 . S
C621 O577 1.297 . S
C621 C605 1.476 1_565 S
H622 O648 0.856 . S
H623 O651 0.854 . S
H624 C659 0.930 . S
H625 C660 0.930 1_554 S
H626 C662 0.930 . S
H627 C663 0.930 . S
H628 C665 0.931 . S
H629 C666 0.930 . S
H630 C668 0.930 . S
H631 C669 0.929 1_556 S
H632 C671 0.930 . S
H633 C672 0.931 . S
H634 C674 0.930 . S
H635 C675 0.929 . S
H636 C677 0.931 . S
H637 C678 0.930 . S
H638 C680 0.930 . S
H639 C681 0.932 . S
H640 C683 0.930 . S
H641 C684 0.929 . S
H642 C686 0.931 . S
H643 C687 0.930 . S
H644 C689 0.929 . S
H645 C690 0.931 . S
H646 C692 0.930 . S
H647 C693 0.929 . S
O648 H622 0.856 . S
O648 C694 1.300 . S
O649 C694 1.209 . S
O650 C695 1.199 . S
O651 H623 0.854 . S
O651 C695 1.297 . S
C652 C653 1.404 . S
C652 C657 1.397 . S
C652 C658 1.492 . S
C653 C652 1.404 . S
C653 C654 1.396 . S
C653 C664 1.492 1_556 S
C654 C653 1.396 . S
C654 C655 1.397 . S
C654 C670 1.509 . S
C655 C654 1.397 . S
C655 C656 1.412 . S
C655 C676 1.485 . S
C656 C655 1.412 . S
C656 C657 1.388 . S
C656 C682 1.490 . S
C657 C652 1.397 . S
C657 C656 1.388 . S
C657 C688 1.519 . S
C658 C652 1.492 . S
C658 C659 1.363 . S
C658 C663 1.390 . S
C659 H624 0.930 . S
C659 C658 1.363 . S
C659 C660 1.372 . S
C660 H625 0.930 1_556 S
C660 C659 1.372 . S
C660 C661 1.383 . S
C661 C660 1.383 . S
C661 C662 1.395 . S
C662 H626 0.930 . S
C662 C661 1.395 . S
C662 C663 1.362 . S
C663 H627 0.930 . S
C663 C658 1.390 . S
C663 C662 1.362 . S
C664 C653 1.492 1_554 S
C664 C665 1.377 . S
C664 C669 1.397 . S
C665 H628 0.931 . S
C665 C664 1.377 . S
C665 C666 1.376 . S
C666 H629 0.930 . S
C666 C665 1.376 . S
C666 C667 1.376 . S
C667 C666 1.376 . S
C667 C668 1.378 . S
C667 C694 1.486 . S
C668 H630 0.930 . S
C668 C667 1.378 . S
C668 C669 1.376 . S
C669 H631 0.929 1_554 S
C669 C664 1.397 . S
C669 C668 1.376 . S
C670 C654 1.509 . S
C670 C671 1.391 . S
C670 C675 1.386 . S
C671 H632 0.930 . S
C671 C670 1.391 . S
C671 C672 1.375 1_556 S
C672 H633 0.931 . S
C672 C671 1.375 1_554 S
C672 C673 1.375 . S
C673 C672 1.375 . S
C673 C674 1.361 . S
C674 H634 0.930 . S
C674 C673 1.361 . S
C674 C675 1.399 1_554 S
C675 H635 0.929 . S
C675 C670 1.386 . S
C675 C674 1.399 1_556 S
C676 C655 1.485 . S
C676 C677 1.394 . S
C676 C681 1.360 . S
C677 H636 0.931 . S
C677 C676 1.394 . S
C677 C678 1.372 . S
C678 H637 0.930 . S
C678 C677 1.372 . S
C678 C679 1.397 . S
C679 C678 1.397 . S
C679 C680 1.390 . S
C679 C695 1.476 . S
C680 H638 0.930 . S
C680 C679 1.390 . S
C680 C681 1.366 . S
C681 H639 0.932 . S
C681 C676 1.360 . S
C681 C680 1.366 . S
C682 C656 1.490 . S
C682 C683 1.380 . S
C682 C687 1.386 . S
C683 H640 0.930 . S
C683 C682 1.380 . S
C683 C684 1.381 . S
C684 H641 0.929 . S
C684 C683 1.381 . S
C684 C685 1.371 . S
C685 C684 1.371 . S
C685 C686 1.380 . S
C686 H642 0.931 . S
C686 C685 1.380 . S
C686 C687 1.387 . S
C687 H643 0.930 . S
C687 C682 1.386 . S
C687 C686 1.387 . S
C688 C657 1.519 . S
C688 C689 1.377 . S
C688 C693 1.361 . S
C689 H644 0.929 . S
C689 C688 1.377 . S
C689 C690 1.386 . S
C690 H645 0.931 . S
C690 C689 1.386 . S
C690 C691 1.363 . S
C691 C690 1.363 . S
C691 C692 1.385 . S
C692 H646 0.930 . S
C692 C691 1.385 . S
C692 C693 1.396 . S
C693 H647 0.929 . S
C693 C688 1.361 . S
C693 C692 1.396 . S
C694 O648 1.300 . S
C694 O649 1.209 . S
C694 C667 1.486 . S
C695 O650 1.199 . S
C695 O651 1.297 . S
C695 C679 1.476 . S
H696 O722 0.856 . S
H697 O725 0.854 1_455 S
H698 C733 0.930 . S
H699 C734 0.930 . S
H700 C736 0.930 . S
H701 C737 0.930 . S
H702 C739 0.931 . S
H703 C740 0.930 . S
H704 C742 0.930 . S
H705 C743 0.929 . S
H706 C745 0.930 . S
H707 C746 0.931 . S
H708 C748 0.930 . S
H709 C749 0.929 . S
H710 C751 0.931 . S
H711 C752 0.930 . S
H712 C754 0.930 . S
H713 C755 0.932 . S
H714 C757 0.930 . S
H715 C758 0.929 . S
H716 C760 0.931 . S
H717 C761 0.930 . S
H718 C763 0.929 . S
H719 C764 0.931 . S
H720 C766 0.930 . S
H721 C767 0.929 . S
O722 H696 0.856 . S
O722 C768 1.300 . S
O723 C768 1.209 . S
O724 C769 1.199 1_455 S
O725 H697 0.854 1_655 S
O725 C769 1.297 . S
C726 C727 1.404 . S
C726 C731 1.397 . S
C726 C732 1.492 . S
C727 C726 1.404 . S
C727 C728 1.396 . S
C727 C738 1.492 . S
C728 C727 1.396 . S
C728 C729 1.397 . S
C728 C744 1.509 . S
C729 C728 1.397 . S
C729 C730 1.412 . S
C729 C750 1.485 . S
C730 C729 1.412 . S
C730 C731 1.388 . S
C730 C756 1.490 . S
C731 C726 1.397 . S
C731 C730 1.388 . S
C731 C762 1.519 . S
C732 C726 1.492 . S
C732 C733 1.363 . S
C732 C737 1.390 . S
C733 H698 0.930 . S
C733 C732 1.363 . S
C733 C734 1.372 . S
C734 H699 0.930 . S
C734 C733 1.372 . S
C734 C735 1.383 . S
C735 C734 1.383 . S
C735 C736 1.395 . S
C736 H700 0.930 . S
C736 C735 1.395 . S
C736 C737 1.362 . S
C737 H701 0.930 . S
C737 C732 1.390 . S
C737 C736 1.362 . S
C738 C727 1.492 . S
C738 C739 1.377 . S
C738 C743 1.397 . S
C739 H702 0.931 . S
C739 C738 1.377 . S
C739 C740 1.376 . S
C740 H703 0.930 . S
C740 C739 1.376 . S
C740 C741 1.376 . S
C741 C740 1.376 . S
C741 C742 1.378 . S
C741 C768 1.486 . S
C742 H704 0.930 . S
C742 C741 1.378 . S
C742 C743 1.376 . S
C743 H705 0.929 . S
C743 C738 1.397 . S
C743 C742 1.376 . S
C744 C728 1.509 . S
C744 C745 1.391 . S
C744 C749 1.386 . S
C745 H706 0.930 . S
C745 C744 1.391 . S
C745 C746 1.375 . S
C746 H707 0.931 . S
C746 C745 1.375 . S
C746 C747 1.375 . S
C747 C746 1.375 . S
C747 C748 1.361 . S
C748 H708 0.930 . S
C748 C747 1.361 . S
C748 C749 1.399 . S
C749 H709 0.929 . S
C749 C744 1.386 . S
C749 C748 1.399 . S
C750 C729 1.485 . S
C750 C751 1.394 . S
C750 C755 1.360 . S
C751 H710 0.931 . S
C751 C750 1.394 . S
C751 C752 1.372 . S
C752 H711 0.930 . S
C752 C751 1.372 . S
C752 C753 1.397 . S
C753 C752 1.397 . S
C753 C754 1.390 . S
C753 C769 1.476 . S
C754 H712 0.930 . S
C754 C753 1.390 . S
C754 C755 1.366 . S
C755 H713 0.932 . S
C755 C750 1.360 . S
C755 C754 1.366 . S
C756 C730 1.490 . S
C756 C757 1.380 . S
C756 C761 1.386 . S
C757 H714 0.930 . S
C757 C756 1.380 . S
C757 C758 1.381 . S
C758 H715 0.929 . S
C758 C757 1.381 . S
C758 C759 1.371 . S
C759 C758 1.371 . S
C759 C760 1.380 . S
C760 H716 0.931 . S
C760 C759 1.380 . S
C760 C761 1.387 . S
C761 H717 0.930 . S
C761 C756 1.386 . S
C761 C760 1.387 . S
C762 C731 1.519 . S
C762 C763 1.377 . S
C762 C767 1.361 . S
C763 H718 0.929 . S
C763 C762 1.377 . S
C763 C764 1.386 . S
C764 H719 0.931 . S
C764 C763 1.386 . S
C764 C765 1.363 . S
C765 C764 1.363 . S
C765 C766 1.385 . S
C766 H720 0.930 . S
C766 C765 1.385 . S
C766 C767 1.396 . S
C767 H721 0.929 . S
C767 C762 1.361 . S
C767 C766 1.396 . S
C768 O722 1.300 . S
C768 O723 1.209 . S
C768 C741 1.486 . S
C769 O724 1.199 1_655 S
C769 O725 1.297 . S
C769 C753 1.476 . S
H770 O796 0.856 . S
H771 O799 0.854 . S
H772 C807 0.930 . S
H773 C808 0.930 . S
H774 C810 0.930 . S
H775 C811 0.930 . S
H776 C813 0.931 . S
H777 C814 0.930 . S
H778 C816 0.930 . S
H779 C817 0.929 . S
H780 C819 0.930 . S
H781 C820 0.931 . S
H782 C822 0.930 . S
H783 C823 0.929 . S
H784 C825 0.931 . S
H785 C826 0.930 . S
H786 C828 0.930 . S
H787 C829 0.932 . S
H788 C831 0.930 . S
H789 C832 0.929 . S
H790 C834 0.931 . S
H791 C835 0.930 . S
H792 C837 0.929 . S
H793 C838 0.931 . S
H794 C840 0.930 . S
H795 C841 0.929 . S
O796 H770 0.856 . S
O796 C842 1.300 . S
O797 C842 1.209 . S
O798 C843 1.199 . S
O799 H771 0.854 . S
O799 C843 1.297 . S
C800 C801 1.404 . S
C800 C805 1.397 . S
C800 C806 1.492 . S
C801 C800 1.404 . S
C801 C802 1.396 . S
C801 C812 1.492 . S
C802 C801 1.396 . S
C802 C803 1.397 . S
C802 C818 1.509 . S
C803 C802 1.397 . S
C803 C804 1.412 . S
C803 C824 1.485 . S
C804 C803 1.412 . S
C804 C805 1.388 . S
C804 C830 1.490 . S
C805 C800 1.397 . S
C805 C804 1.388 . S
C805 C836 1.519 . S
C806 C800 1.492 . S
C806 C807 1.363 . S
C806 C811 1.390 . S
C807 H772 0.930 . S
C807 C806 1.363 . S
C807 C808 1.372 . S
C808 H773 0.930 . S
C808 C807 1.372 . S
C808 C809 1.383 . S
C809 C808 1.383 . S
C809 C810 1.395 . S
C810 H774 0.930 . S
C810 C809 1.395 . S
C810 C811 1.362 . S
C811 H775 0.930 . S
C811 C806 1.390 . S
C811 C810 1.362 . S
C812 C801 1.492 . S
C812 C813 1.377 . S
C812 C817 1.397 . S
C813 H776 0.931 . S
C813 C812 1.377 . S
C813 C814 1.376 . S
C814 H777 0.930 . S
C814 C813 1.376 . S
C814 C815 1.376 . S
C815 C814 1.376 . S
C815 C816 1.378 . S
C815 C842 1.486 . S
C816 H778 0.930 . S
C816 C815 1.378 . S
C816 C817 1.376 . S
C817 H779 0.929 . S
C817 C812 1.397 . S
C817 C816 1.376 . S
C818 C802 1.509 . S
C818 C819 1.391 . S
C818 C823 1.386 . S
C819 H780 0.930 . S
C819 C818 1.391 . S
C819 C820 1.375 . S
C820 H781 0.931 . S
C820 C819 1.375 . S
C820 C821 1.375 . S
C821 C820 1.375 . S
C821 C822 1.361 . S
C822 H782 0.930 . S
C822 C821 1.361 . S
C822 C823 1.399 . S
C823 H783 0.929 . S
C823 C818 1.386 . S
C823 C822 1.399 . S
C824 C803 1.485 . S
C824 C825 1.394 . S
C824 C829 1.360 . S
C825 H784 0.931 . S
C825 C824 1.394 . S
C825 C826 1.372 . S
C826 H785 0.930 . S
C826 C825 1.372 . S
C826 C827 1.397 . S
C827 C826 1.397 . S
C827 C828 1.390 . S
C827 C843 1.476 . S
C828 H786 0.930 . S
C828 C827 1.390 . S
C828 C829 1.366 . S
C829 H787 0.932 . S
C829 C824 1.360 . S
C829 C828 1.366 . S
C830 C804 1.490 . S
C830 C831 1.380 . S
C830 C835 1.386 . S
C831 H788 0.930 . S
C831 C830 1.380 . S
C831 C832 1.381 . S
C832 H789 0.929 . S
C832 C831 1.381 . S
C832 C833 1.371 . S
C833 C832 1.371 . S
C833 C834 1.380 . S
C834 H790 0.931 . S
C834 C833 1.380 . S
C834 C835 1.387 . S
C835 H791 0.930 . S
C835 C830 1.386 . S
C835 C834 1.387 . S
C836 C805 1.519 . S
C836 C837 1.377 . S
C836 C841 1.361 . S
C837 H792 0.929 . S
C837 C836 1.377 . S
C837 C838 1.386 . S
C838 H793 0.931 . S
C838 C837 1.386 . S
C838 C839 1.363 . S
C839 C838 1.363 . S
C839 C840 1.385 . S
C840 H794 0.930 . S
C840 C839 1.385 . S
C840 C841 1.396 . S
C841 H795 0.929 . S
C841 C836 1.361 . S
C841 C840 1.396 . S
C842 O796 1.300 . S
C842 O797 1.209 . S
C842 C815 1.486 . S
C843 O798 1.199 . S
C843 O799 1.297 . S
C843 C827 1.476 . S
H844 O870 0.856 . S
H845 O873 0.854 . S
H846 C881 0.930 . S
H847 C882 0.930 . S
H848 C884 0.930 . S
H849 C885 0.930 . S
H850 C887 0.931 . S
H851 C888 0.930 . S
H852 C890 0.930 . S
H853 C891 0.929 . S
H854 C893 0.930 . S
H855 C894 0.931 . S
H856 C896 0.930 . S
H857 C897 0.929 . S
H858 C899 0.931 . S
H859 C900 0.930 . S
H860 C902 0.930 . S
H861 C903 0.932 . S
H862 C905 0.930 . S
H863 C906 0.929 . S
H864 C908 0.931 . S
H865 C909 0.930 . S
H866 C911 0.929 . S
H867 C912 0.931 . S
H868 C914 0.930 . S
H869 C915 0.929 . S
O870 H844 0.856 . S
O870 C916 1.300 . S
O871 C916 1.209 . S
O872 C917 1.199 . S
O873 H845 0.854 . S
O873 C917 1.297 . S
C874 C875 1.404 . S
C874 C879 1.397 . S
C874 C880 1.492 . S
C875 C874 1.404 . S
C875 C876 1.396 . S
C875 C886 1.492 . S
C876 C875 1.396 . S
C876 C877 1.397 . S
C876 C892 1.509 . S
C877 C876 1.397 . S
C877 C878 1.412 . S
C877 C898 1.485 . S
C878 C877 1.412 . S
C878 C879 1.388 . S
C878 C904 1.490 . S
C879 C874 1.397 . S
C879 C878 1.388 . S
C879 C910 1.519 . S
C880 C874 1.492 . S
C880 C881 1.363 . S
C880 C885 1.390 . S
C881 H846 0.930 . S
C881 C880 1.363 . S
C881 C882 1.372 . S
C882 H847 0.930 . S
C882 C881 1.372 . S
C882 C883 1.383 . S
C883 C882 1.383 . S
C883 C884 1.395 . S
C884 H848 0.930 . S
C884 C883 1.395 . S
C884 C885 1.362 . S
C885 H849 0.930 . S
C885 C880 1.390 . S
C885 C884 1.362 . S
C886 C875 1.492 . S
C886 C887 1.377 . S
C886 C891 1.397 . S
C887 H850 0.931 . S
C887 C886 1.377 . S
C887 C888 1.376 . S
C888 H851 0.930 . S
C888 C887 1.376 . S
C888 C889 1.376 . S
C889 C888 1.376 . S
C889 C890 1.378 . S
C889 C916 1.486 . S
C890 H852 0.930 . S
C890 C889 1.378 . S
C890 C891 1.376 . S
C891 H853 0.929 . S
C891 C886 1.397 . S
C891 C890 1.376 . S
C892 C876 1.509 . S
C892 C893 1.391 . S
C892 C897 1.386 . S
C893 H854 0.930 . S
C893 C892 1.391 . S
C893 C894 1.375 . S
C894 H855 0.931 . S
C894 C893 1.375 . S
C894 C895 1.375 . S
C895 C894 1.375 . S
C895 C896 1.361 . S
C896 H856 0.930 . S
C896 C895 1.361 . S
C896 C897 1.399 . S
C897 H857 0.929 . S
C897 C892 1.386 . S
C897 C896 1.399 . S
C898 C877 1.485 . S
C898 C899 1.394 . S
C898 C903 1.360 . S
C899 H858 0.931 . S
C899 C898 1.394 . S
C899 C900 1.372 . S
C900 H859 0.930 . S
C900 C899 1.372 . S
C900 C901 1.397 . S
C901 C900 1.397 . S
C901 C902 1.390 . S
C901 C917 1.476 1_655 S
C902 H860 0.930 . S
C902 C901 1.390 . S
C902 C903 1.366 . S
C903 H861 0.932 . S
C903 C898 1.360 . S
C903 C902 1.366 . S
C904 C878 1.490 . S
C904 C905 1.380 . S
C904 C909 1.386 . S
C905 H862 0.930 . S
C905 C904 1.380 . S
C905 C906 1.381 . S
C906 H863 0.929 . S
C906 C905 1.381 . S
C906 C907 1.371 . S
C907 C906 1.371 . S
C907 C908 1.380 . S
C908 H864 0.931 . S
C908 C907 1.380 . S
C908 C909 1.387 . S
C909 H865 0.930 . S
C909 C904 1.386 . S
C909 C908 1.387 . S
C910 C879 1.519 . S
C910 C911 1.377 . S
C910 C915 1.361 . S
C911 H866 0.929 . S
C911 C910 1.377 . S
C911 C912 1.386 . S
C912 H867 0.931 . S
C912 C911 1.386 . S
C912 C913 1.363 . S
C913 C912 1.363 . S
C913 C914 1.385 . S
C914 H868 0.930 . S
C914 C913 1.385 . S
C914 C915 1.396 . S
C915 H869 0.929 . S
C915 C910 1.361 . S
C915 C914 1.396 . S
C916 O870 1.300 . S
C916 O871 1.209 . S
C916 C889 1.486 . S
C917 O872 1.199 . S
C917 O873 1.297 . S
C917 C901 1.476 1_455 S
H918 O944 0.856 . S
H919 O947 0.854 . S
H920 C955 0.930 . S
H921 C956 0.930 . S
H922 C958 0.930 . S
H923 C959 0.930 . S
H924 C961 0.931 . S
H925 C962 0.930 1_655 S
H926 C964 0.930 . S
H927 C965 0.929 . S
H928 C967 0.930 . S
H929 C968 0.931 1_655 S
H930 C970 0.930 . S
H931 C971 0.929 . S
H932 C973 0.931 . S
H933 C974 0.930 . S
H934 C976 0.930 . S
H935 C977 0.932 . S
H936 C979 0.930 . S
H937 C980 0.929 . S
H938 C982 0.931 . S
H939 C983 0.930 . S
H940 C985 0.929 . S
H941 C986 0.931 . S
H942 C988 0.930 . S
H943 C989 0.929 . S
O944 H918 0.856 . S
O944 C990 1.300 . S
O945 C990 1.209 . S
O946 C991 1.199 1_655 S
O947 H919 0.854 . S
O947 C991 1.297 . S
C948 C949 1.404 . S
C948 C953 1.397 . S
C948 C954 1.492 . S
C949 C948 1.404 . S
C949 C950 1.396 . S
C949 C960 1.492 . S
C950 C949 1.396 . S
C950 C951 1.397 . S
C950 C966 1.509 . S
C951 C950 1.397 . S
C951 C952 1.416 . S
C951 C972 1.485 . S
C952 C951 1.416 . S
C952 C953 1.385 . S
C952 C978 1.491 1_455 S
C953 C948 1.397 . S
C953 C952 1.385 . S
C953 C984 1.519 1_455 S
C954 C948 1.492 . S
C954 C955 1.363 1_455 S
C954 C959 1.390 . S
C955 H920 0.930 . S
C955 C954 1.363 1_655 S
C955 C956 1.372 . S
C956 H921 0.930 . S
C956 C955 1.372 . S
C956 C957 1.383 . S
C957 C956 1.383 . S
C957 C958 1.395 1_655 S
C958 H922 0.930 . S
C958 C957 1.395 1_455 S
C958 C959 1.362 . S
C959 H923 0.930 . S
C959 C954 1.390 . S
C959 C958 1.362 . S
C960 C949 1.492 . S
C960 C961 1.377 1_455 S
C960 C965 1.397 . S
C961 H924 0.931 . S
C961 C960 1.377 1_655 S
C961 C962 1.376 1_655 S
C962 H925 0.930 1_455 S
C962 C961 1.376 1_455 S
C962 C963 1.376 . S
C963 C962 1.376 . S
C963 C964 1.378 . S
C963 C990 1.486 . S
C964 H926 0.930 . S
C964 C963 1.378 . S
C964 C965 1.376 . S
C965 H927 0.929 . S
C965 C960 1.397 . S
C965 C964 1.376 . S
C966 C950 1.509 . S
C966 C967 1.391 1_455 S
C966 C971 1.386 . S
C967 H928 0.930 . S
C967 C966 1.391 1_655 S
C967 C968 1.375 1_655 S
C968 H929 0.931 1_455 S
C968 C967 1.375 1_455 S
C968 C969 1.375 . S
C969 C968 1.375 . S
C969 C970 1.361 . S
C970 H930 0.930 . S
C970 C969 1.361 . S
C970 C971 1.399 . S
C971 H931 0.929 . S
C971 C966 1.386 . S
C971 C970 1.399 . S
C972 C951 1.485 . S
C972 C973 1.394 1_455 S
C972 C977 1.360 . S
C973 H932 0.931 . S
C973 C972 1.394 1_655 S
C973 C974 1.372 . S
C974 H933 0.930 . S
C974 C973 1.372 . S
C974 C975 1.397 1_655 S
C975 C974 1.397 1_455 S
C975 C976 1.390 . S
C975 C991 1.476 . S
C976 H934 0.930 . S
C976 C975 1.390 . S
C976 C977 1.366 . S
C977 H935 0.932 . S
C977 C972 1.360 . S
C977 C976 1.366 . S
C978 C952 1.491 1_655 S
C978 C979 1.380 . S
C978 C983 1.386 1_655 S
C979 H936 0.930 . S
C979 C978 1.380 . S
C979 C980 1.381 . S
C980 H937 0.929 . S
C980 C979 1.381 . S
C980 C981 1.371 . S
C981 C980 1.371 . S
C981 C982 1.380 1_655 S
C982 H938 0.931 . S
C982 C981 1.380 1_455 S
C982 C983 1.387 . S
C983 H939 0.930 . S
C983 C978 1.386 1_455 S
C983 C982 1.387 . S
C984 C953 1.519 1_655 S
C984 C985 1.377 . S
C984 C989 1.361 1_655 S
C985 H940 0.929 . S
C985 C984 1.377 . S
C985 C986 1.386 . S
C986 H941 0.931 . S
C986 C985 1.386 . S
C986 C987 1.363 . S
C987 C986 1.363 . S
C987 C988 1.385 1_655 S
C988 H942 0.930 . S
C988 C987 1.385 1_455 S
C988 C989 1.396 . S
C989 H943 0.929 . S
C989 C984 1.361 1_455 S
C989 C988 1.396 . S
C990 O944 1.300 . S
C990 O945 1.209 . S
C990 C963 1.486 . S
C991 O946 1.199 1_455 S
C991 O947 1.297 . S
C991 C975 1.476 . S
H992 O1018 0.856 . S
H993 O1021 0.854 . S
H994 C1029 0.930 . S
H995 C1030 0.930 . S
H996 C1032 0.930 . S
H997 C1033 0.930 . S
H998 C1035 0.931 . S
H999 C1036 0.930 . S
H1000 C1038 0.930 . S
H1001 C1039 0.929 . S
H1002 C1041 0.930 . S
H1003 C1042 0.931 . S
H1004 C1044 0.930 . S
H1005 C1045 0.929 . S
H1006 C1047 0.931 . S
H1007 C1048 0.930 . S
H1008 C1050 0.930 . S
H1009 C1051 0.932 . S
H1010 C1053 0.930 . S
H1011 C1054 0.929 . S
H1012 C1056 0.931 . S
H1013 C1057 0.930 . S
H1014 C1059 0.929 . S
H1015 C1060 0.931 . S
H1016 C1062 0.930 . S
H1017 C1063 0.929 . S
O1018 H992 0.856 . S
O1018 C1064 1.300 . S
O1019 C1064 1.209 . S
O1020 C1065 1.199 . S
O1021 H993 0.854 . S
O1021 C1065 1.297 . S
C1022 C1023 1.404 . S
C1022 C1027 1.397 . S
C1022 C1028 1.492 . S
C1023 C1022 1.404 . S
C1023 C1024 1.396 . S
C1023 C1034 1.492 . S
C1024 C1023 1.396 . S
C1024 C1025 1.397 . S
C1024 C1040 1.509 . S
C1025 C1024 1.397 . S
C1025 C1026 1.412 . S
C1025 C1046 1.485 . S
C1026 C1025 1.412 . S
C1026 C1027 1.388 . S
C1026 C1052 1.490 . S
C1027 C1022 1.397 . S
C1027 C1026 1.388 . S
C1027 C1058 1.519 . S
C1028 C1022 1.492 . S
C1028 C1029 1.363 . S
C1028 C1033 1.390 . S
C1029 H994 0.930 . S
C1029 C1028 1.363 . S
C1029 C1030 1.372 . S
C1030 H995 0.930 . S
C1030 C1029 1.372 . S
C1030 C1031 1.383 . S
C1031 C1030 1.383 . S
C1031 C1032 1.395 . S
C1032 H996 0.930 . S
C1032 C1031 1.395 . S
C1032 C1033 1.362 . S
C1033 H997 0.930 . S
C1033 C1028 1.390 . S
C1033 C1032 1.362 . S
C1034 C1023 1.492 . S
C1034 C1035 1.377 . S
C1034 C1039 1.397 . S
C1035 H998 0.931 . S
C1035 C1034 1.377 . S
C1035 C1036 1.376 . S
C1036 H999 0.930 . S
C1036 C1035 1.376 . S
C1036 C1037 1.376 . S
C1037 C1036 1.376 . S
C1037 C1038 1.378 . S
C1037 C1064 1.486 . S
C1038 H1000 0.930 . S
C1038 C1037 1.378 . S
C1038 C1039 1.376 . S
C1039 H1001 0.929 . S
C1039 C1034 1.397 . S
C1039 C1038 1.376 . S
C1040 C1024 1.509 . S
C1040 C1041 1.391 . S
C1040 C1045 1.386 . S
C1041 H1002 0.930 . S
C1041 C1040 1.391 . S
C1041 C1042 1.375 . S
C1042 H1003 0.931 . S
C1042 C1041 1.375 . S
C1042 C1043 1.375 . S
C1043 C1042 1.375 . S
C1043 C1044 1.361 . S
C1044 H1004 0.930 . S
C1044 C1043 1.361 . S
C1044 C1045 1.399 . S
C1045 H1005 0.929 . S
C1045 C1040 1.386 . S
C1045 C1044 1.399 . S
C1046 C1025 1.485 . S
C1046 C1047 1.394 . S
C1046 C1051 1.360 . S
C1047 H1006 0.931 . S
C1047 C1046 1.394 . S
C1047 C1048 1.372 . S
C1048 H1007 0.930 . S
C1048 C1047 1.372 . S
C1048 C1049 1.397 . S
C1049 C1048 1.397 . S
C1049 C1050 1.390 . S
C1049 C1065 1.476 . S
C1050 H1008 0.930 . S
C1050 C1049 1.390 . S
C1050 C1051 1.366 . S
C1051 H1009 0.932 . S
C1051 C1046 1.360 . S
C1051 C1050 1.366 . S
C1052 C1026 1.490 . S
C1052 C1053 1.380 . S
C1052 C1057 1.386 . S
C1053 H1010 0.930 . S
C1053 C1052 1.380 . S
C1053 C1054 1.381 . S
C1054 H1011 0.929 . S
C1054 C1053 1.381 . S
C1054 C1055 1.371 . S
C1055 C1054 1.371 . S
C1055 C1056 1.380 . S
C1056 H1012 0.931 . S
C1056 C1055 1.380 . S
C1056 C1057 1.387 . S
C1057 H1013 0.930 . S
C1057 C1052 1.386 . S
C1057 C1056 1.387 . S
C1058 C1027 1.519 . S
C1058 C1059 1.377 . S
C1058 C1063 1.361 . S
C1059 H1014 0.929 . S
C1059 C1058 1.377 . S
C1059 C1060 1.386 . S
C1060 H1015 0.931 . S
C1060 C1059 1.386 . S
C1060 C1061 1.363 . S
C1061 C1060 1.363 . S
C1061 C1062 1.385 . S
C1062 H1016 0.930 . S
C1062 C1061 1.385 . S
C1062 C1063 1.396 . S
C1063 H1017 0.929 . S
C1063 C1058 1.361 . S
C1063 C1062 1.396 . S
C1064 O1018 1.300 . S
C1064 O1019 1.209 . S
C1064 C1037 1.486 . S
C1065 O1020 1.199 . S
C1065 O1021 1.297 . S
C1065 C1049 1.476 . S
H1066 O1092 0.856 . S
H1067 O1095 0.854 . S
H1068 C1103 0.930 . S
H1069 C1104 0.930 . S
H1070 C1106 0.930 . S
H1071 C1107 0.930 . S
H1072 C1109 0.931 . S
H1073 C1110 0.930 1_545 S
H1074 C1112 0.930 . S
H1075 C1113 0.929 . S
H1076 C1115 0.930 . S
H1077 C1116 0.931 1_545 S
H1078 C1118 0.930 . S
H1079 C1119 0.929 . S
H1080 C1121 0.931 . S
H1081 C1122 0.930 . S
H1082 C1124 0.930 . S
H1083 C1125 0.932 . S
H1084 C1127 0.930 . S
H1085 C1128 0.929 . S
H1086 C1130 0.931 . S
H1087 C1131 0.930 . S
H1088 C1133 0.929 . S
H1089 C1134 0.931 . S
H1090 C1136 0.930 . S
H1091 C1137 0.929 . S
O1092 H1066 0.856 . S
O1092 C1138 1.300 . S
O1093 C1138 1.209 . S
O1094 C1139 1.199 1_545 S
O1095 H1067 0.854 . S
O1095 C1139 1.297 . S
C1096 C1097 1.404 . S
C1096 C1101 1.397 . S
C1096 C1102 1.492 . S
C1097 C1096 1.404 . S
C1097 C1098 1.396 . S
C1097 C1108 1.492 . S
C1098 C1097 1.396 . S
C1098 C1099 1.397 . S
C1098 C1114 1.509 . S
C1099 C1098 1.397 . S
C1099 C1100 1.410 . S
C1099 C1120 1.485 . S
C1100 C1099 1.410 . S
C1100 C1101 1.401 . S
C1100 C1126 1.481 1_565 S
C1101 C1096 1.397 . S
C1101 C1100 1.401 . S
C1101 C1132 1.519 1_565 S
C1102 C1096 1.492 . S
C1102 C1103 1.363 1_565 S
C1102 C1107 1.390 . S
C1103 H1068 0.930 . S
C1103 C1102 1.363 1_545 S
C1103 C1104 1.372 . S
C1104 H1069 0.930 . S
C1104 C1103 1.372 . S
C1104 C1105 1.383 . S
C1105 C1104 1.383 . S
C1105 C1106 1.395 1_545 S
C1106 H1070 0.930 . S
C1106 C1105 1.395 1_565 S
C1106 C1107 1.362 . S
C1107 H1071 0.930 . S
C1107 C1102 1.390 . S
C1107 C1106 1.362 . S
C1108 C1097 1.492 . S
C1108 C1109 1.377 1_565 S
C1108 C1113 1.397 . S
C1109 H1072 0.931 . S
C1109 C1108 1.377 1_545 S
C1109 C1110 1.376 1_545 S
C1110 H1073 0.930 1_565 S
C1110 C1109 1.376 1_565 S
C1110 C1111 1.376 . S
C1111 C1110 1.376 . S
C1111 C1112 1.378 . S
C1111 C1138 1.486 . S
C1112 H1074 0.930 . S
C1112 C1111 1.378 . S
C1112 C1113 1.376 . S
C1113 H1075 0.929 . S
C1113 C1108 1.397 . S
C1113 C1112 1.376 . S
C1114 C1098 1.509 . S
C1114 C1115 1.391 1_565 S
C1114 C1119 1.386 . S
C1115 H1076 0.930 . S
C1115 C1114 1.391 1_545 S
C1115 C1116 1.375 1_545 S
C1116 H1077 0.931 1_565 S
C1116 C1115 1.375 1_565 S
C1116 C1117 1.375 . S
C1117 C1116 1.375 . S
C1117 C1118 1.361 . S
C1118 H1078 0.930 . S
C1118 C1117 1.361 . S
C1118 C1119 1.399 . S
C1119 H1079 0.929 . S
C1119 C1114 1.386 . S
C1119 C1118 1.399 . S
C1120 C1099 1.485 . S
C1120 C1121 1.394 1_565 S
C1120 C1125 1.360 . S
C1121 H1080 0.931 . S
C1121 C1120 1.394 1_545 S
C1121 C1122 1.372 . S
C1122 H1081 0.930 . S
C1122 C1121 1.372 . S
C1122 C1123 1.397 1_545 S
C1123 C1122 1.397 1_565 S
C1123 C1124 1.390 . S
C1123 C1139 1.476 . S
C1124 H1082 0.930 . S
C1124 C1123 1.390 . S
C1124 C1125 1.366 . S
C1125 H1083 0.932 . S
C1125 C1120 1.360 . S
C1125 C1124 1.366 . S
C1126 C1100 1.481 1_545 S
C1126 C1127 1.380 . S
C1126 C1131 1.386 1_545 S
C1127 H1084 0.930 . S
C1127 C1126 1.380 . S
C1127 C1128 1.381 . S
C1128 H1085 0.929 . S
C1128 C1127 1.381 . S
C1128 C1129 1.371 . S
C1129 C1128 1.371 . S
C1129 C1130 1.380 1_545 S
C1130 H1086 0.931 . S
C1130 C1129 1.380 1_565 S
C1130 C1131 1.387 . S
C1131 H1087 0.930 . S
C1131 C1126 1.386 1_565 S
C1131 C1130 1.387 . S
C1132 C1101 1.519 1_545 S
C1132 C1133 1.377 . S
C1132 C1137 1.361 1_545 S
C1133 H1088 0.929 . S
C1133 C1132 1.377 . S
C1133 C1134 1.386 . S
C1134 H1089 0.931 . S
C1134 C1133 1.386 . S
C1134 C1135 1.363 . S
C1135 C1134 1.363 . S
C1135 C1136 1.385 1_545 S
C1136 H1090 0.930 . S
C1136 C1135 1.385 1_565 S
C1136 C1137 1.396 . S
C1137 H1091 0.929 . S
C1137 C1132 1.361 1_565 S
C1137 C1136 1.396 . S
C1138 O1092 1.300 . S
C1138 O1093 1.209 . S
C1138 C1111 1.486 . S
C1139 O1094 1.199 1_565 S
C1139 O1095 1.297 . S
C1139 C1123 1.476 . S
H1140 O1166 0.856 . S
H1141 O1169 0.854 . S
H1142 C1177 0.930 . S
H1143 C1178 0.930 . S
H1144 C1180 0.930 . S
H1145 C1181 0.930 . S
H1146 C1183 0.931 . S
H1147 C1184 0.930 . S
H1148 C1186 0.930 . S
H1149 C1187 0.929 . S
H1150 C1189 0.930 . S
H1151 C1190 0.931 . S
H1152 C1192 0.930 . S
H1153 C1193 0.929 . S
H1154 C1195 0.931 . S
H1155 C1196 0.930 . S
H1156 C1198 0.930 . S
H1157 C1199 0.932 . S
H1158 C1201 0.930 . S
H1159 C1202 0.929 . S
H1160 C1204 0.931 . S
H1161 C1205 0.930 . S
H1162 C1207 0.929 . S
H1163 C1208 0.931 . S
H1164 C1210 0.930 . S
H1165 C1211 0.929 . S
O1166 H1140 0.856 . S
O1166 C1212 1.300 . S
O1167 C1212 1.209 1_565 S
O1168 C1213 1.199 1_545 S
O1169 H1141 0.854 . S
O1169 C1213 1.297 . S
C1170 C1171 1.404 . S
C1170 C1175 1.396 1_545 S
C1170 C1176 1.492 . S
C1171 C1170 1.404 . S
C1171 C1172 1.396 . S
C1171 C1182 1.492 . S
C1172 C1171 1.396 . S
C1172 C1173 1.401 . S
C1172 C1188 1.509 . S
C1173 C1172 1.401 . S
C1173 C1174 1.419 1_545 S
C1173 C1194 1.479 1_545 S
C1174 C1173 1.419 1_565 S
C1174 C1175 1.382 . S
C1174 C1200 1.490 . S
C1175 C1170 1.396 1_565 S
C1175 C1174 1.382 . S
C1175 C1206 1.518 . S
C1176 C1170 1.492 . S
C1176 C1177 1.363 . S
C1176 C1181 1.390 1_545 S
C1177 H1142 0.930 . S
C1177 C1176 1.363 . S
C1177 C1178 1.372 . S
C1178 H1143 0.930 . S
C1178 C1177 1.372 . S
C1178 C1179 1.383 . S
C1179 C1178 1.383 . S
C1179 C1180 1.395 1_545 S
C1180 H1144 0.930 . S
C1180 C1179 1.395 1_565 S
C1180 C1181 1.362 . S
C1181 H1145 0.930 . S
C1181 C1176 1.390 1_565 S
C1181 C1180 1.362 . S
C1182 C1171 1.492 . S
C1182 C1183 1.377 . S
C1182 C1187 1.397 1_545 S
C1183 H1146 0.931 . S
C1183 C1182 1.377 . S
C1183 C1184 1.376 . S
C1184 H1147 0.930 . S
C1184 C1183 1.376 . S
C1184 C1185 1.376 . S
C1185 C1184 1.376 . S
C1185 C1186 1.378 1_545 S
C1185 C1212 1.486 . S
C1186 H1148 0.930 . S
C1186 C1185 1.378 1_565 S
C1186 C1187 1.376 . S
C1187 H1149 0.929 . S
C1187 C1182 1.397 1_565 S
C1187 C1186 1.376 . S
C1188 C1172 1.509 . S
C1188 C1189 1.391 . S
C1188 C1193 1.386 1_545 S
C1189 H1150 0.930 . S
C1189 C1188 1.391 . S
C1189 C1190 1.375 . S
C1190 H1151 0.931 . S
C1190 C1189 1.375 . S
C1190 C1191 1.375 . S
C1191 C1190 1.375 . S
C1191 C1192 1.361 1_545 S
C1192 H1152 0.930 . S
C1192 C1191 1.361 1_565 S
C1192 C1193 1.399 . S
C1193 H1153 0.929 . S
C1193 C1188 1.386 1_565 S
C1193 C1192 1.399 . S
C1194 C1173 1.479 1_565 S
C1194 C1195 1.394 1_565 S
C1194 C1199 1.360 . S
C1195 H1154 0.931 . S
C1195 C1194 1.394 1_545 S
C1195 C1196 1.372 . S
C1196 H1155 0.930 . S
C1196 C1195 1.372 . S
C1196 C1197 1.397 1_545 S
C1197 C1196 1.397 1_565 S
C1197 C1198 1.390 . S
C1197 C1213 1.476 . S
C1198 H1156 0.930 . S
C1198 C1197 1.390 . S
C1198 C1199 1.366 . S
C1199 H1157 0.932 . S
C1199 C1194 1.360 . S
C1199 C1198 1.366 . S
C1200 C1174 1.490 . S
C1200 C1201 1.367 1_565 S
C1200 C1205 1.402 . S
C1201 H1158 0.930 . S
C1201 C1200 1.367 1_545 S
C1201 C1202 1.381 . S
C1202 H1159 0.929 . S
C1202 C1201 1.381 . S
C1202 C1203 1.371 . S
C1203 C1202 1.371 . S
C1203 C1204 1.380 1_545 S
C1204 H1160 0.931 . S
C1204 C1203 1.380 1_565 S
C1204 C1205 1.387 . S
C1205 H1161 0.930 . S
C1205 C1200 1.402 . S
C1205 C1204 1.387 . S
C1206 C1175 1.518 . S
C1206 C1207 1.377 1_565 S
C1206 C1211 1.361 . S
C1207 H1162 0.929 . S
C1207 C1206 1.377 1_545 S
C1207 C1208 1.386 . S
C1208 H1163 0.931 . S
C1208 C1207 1.386 . S
C1208 C1209 1.363 1_545 S
C1209 C1208 1.363 1_565 S
C1209 C1210 1.385 . S
C1210 H1164 0.930 . S
C1210 C1209 1.385 . S
C1210 C1211 1.396 . S
C1211 H1165 0.929 . S
C1211 C1206 1.361 . S
C1211 C1210 1.396 . S
C1212 O1166 1.300 . S
C1212 O1167 1.209 1_545 S
C1212 C1185 1.486 . S
C1213 O1168 1.199 1_565 S
C1213 O1169 1.297 . S
C1213 C1197 1.476 . S
H1214 O1240 0.856 . S
H1215 O1243 0.854 . S
H1216 C1251 0.930 . S
H1217 C1252 0.930 . S
H1218 C1254 0.930 . S
H1219 C1255 0.930 . S
H1220 C1257 0.931 . S
H1221 C1258 0.930 . S
H1222 C1260 0.930 . S
H1223 C1261 0.929 . S
H1224 C1263 0.930 . S
H1225 C1264 0.931 . S
H1226 C1266 0.930 . S
H1227 C1267 0.929 . S
H1228 C1269 0.931 . S
H1229 C1270 0.930 . S
H1230 C1272 0.930 . S
H1231 C1273 0.932 . S
H1232 C1275 0.930 . S
H1233 C1276 0.913 1_554 S
H1234 C1278 0.931 1_554 S
H1235 C1279 0.930 . S
H1236 C1281 0.929 . S
H1237 C1282 0.931 . S
H1238 C1284 0.930 . S
H1239 C1285 0.929 . S
O1240 H1214 0.856 . S
O1240 C1286 1.300 . S
O1241 C1286 1.209 . S
O1242 C1287 1.199 1_655 S
O1243 H1215 0.854 . S
O1243 C1287 1.297 . S
C1244 C1245 1.404 . S
C1244 C1249 1.397 . S
C1244 C1250 1.492 . S
C1245 C1244 1.404 . S
C1245 C1246 1.396 . S
C1245 C1256 1.492 . S
C1246 C1245 1.396 . S
C1246 C1247 1.395 . S
C1246 C1262 1.509 . S
C1247 C1246 1.395 . S
C1247 C1248 1.405 1_655 S
C1247 C1268 1.496 1_655 S
C1248 C1247 1.405 1_455 S
C1248 C1249 1.386 1_455 S
C1248 C1274 1.490 . S
C1249 C1244 1.397 . S
C1249 C1248 1.386 1_655 S
C1249 C1280 1.521 1_655 S
C1250 C1244 1.492 . S
C1250 C1251 1.363 . S
C1250 C1255 1.390 1_655 S
C1251 H1216 0.930 . S
C1251 C1250 1.363 . S
C1251 C1252 1.372 . S
C1252 H1217 0.930 . S
C1252 C1251 1.372 . S
C1252 C1253 1.383 . S
C1253 C1252 1.383 . S
C1253 C1254 1.395 1_655 S
C1254 H1218 0.930 . S
C1254 C1253 1.395 1_455 S
C1254 C1255 1.362 . S
C1255 H1219 0.930 . S
C1255 C1250 1.390 1_455 S
C1255 C1254 1.362 . S
C1256 C1245 1.492 . S
C1256 C1257 1.377 . S
C1256 C1261 1.397 1_655 S
C1257 H1220 0.931 . S
C1257 C1256 1.377 . S
C1257 C1258 1.376 . S
C1258 H1221 0.930 . S
C1258 C1257 1.376 . S
C1258 C1259 1.376 . S
C1259 C1258 1.376 . S
C1259 C1260 1.378 1_655 S
C1259 C1286 1.486 . S
C1260 H1222 0.930 . S
C1260 C1259 1.378 1_455 S
C1260 C1261 1.376 . S
C1261 H1223 0.929 . S
C1261 C1256 1.397 1_455 S
C1261 C1260 1.376 . S
C1262 C1246 1.509 . S
C1262 C1263 1.391 . S
C1262 C1267 1.386 1_655 S
C1263 H1224 0.930 . S
C1263 C1262 1.391 . S
C1263 C1264 1.375 . S
C1264 H1225 0.931 . S
C1264 C1263 1.375 . S
C1264 C1265 1.375 . S
C1265 C1264 1.375 . S
C1265 C1266 1.361 1_655 S
C1266 H1226 0.930 . S
C1266 C1265 1.361 1_455 S
C1266 C1267 1.399 . S
C1267 H1227 0.929 . S
C1267 C1262 1.386 1_455 S
C1267 C1266 1.399 . S
C1268 C1247 1.496 1_455 S
C1268 C1269 1.394 1_455 S
C1268 C1273 1.360 . S
C1269 H1228 0.931 . S
C1269 C1268 1.394 1_655 S
C1269 C1270 1.372 . S
C1270 H1229 0.930 . S
C1270 C1269 1.372 . S
C1270 C1271 1.397 1_655 S
C1271 C1270 1.397 1_455 S
C1271 C1272 1.390 . S
C1271 C1287 1.476 . S
C1272 H1230 0.930 . S
C1272 C1271 1.390 . S
C1272 C1273 1.366 . S
C1273 H1231 0.932 . S
C1273 C1268 1.360 . S
C1273 C1272 1.366 . S
C1274 C1248 1.490 . S
C1274 C1275 1.380 1_455 S
C1274 C1279 1.386 . S
C1275 H1232 0.930 . S
C1275 C1274 1.380 1_655 S
C1275 C1276 1.381 . S
C1276 H1233 0.913 1_556 S
C1276 C1275 1.381 . S
C1276 C1277 1.371 1_656 S
C1277 C1276 1.371 1_454 S
C1277 C1278 1.380 1_554 S
C1278 H1234 0.931 1_556 S
C1278 C1277 1.380 1_556 S
C1278 C1279 1.387 . S
C1279 H1235 0.930 . S
C1279 C1274 1.386 . S
C1279 C1278 1.387 . S
C1280 C1249 1.521 1_455 S
C1280 C1281 1.377 1_455 S
C1280 C1285 1.361 . S
C1281 H1236 0.929 . S
C1281 C1280 1.377 1_655 S
C1281 C1282 1.386 . S
C1282 H1237 0.931 . S
C1282 C1281 1.386 . S
C1282 C1283 1.363 1_655 S
C1283 C1282 1.363 1_455 S
C1283 C1284 1.385 . S
C1284 H1238 0.930 . S
C1284 C1283 1.385 . S
C1284 C1285 1.396 . S
C1285 H1239 0.929 . S
C1285 C1280 1.361 . S
C1285 C1284 1.396 . S
C1286 O1240 1.300 . S
C1286 O1241 1.209 . S
C1286 C1259 1.486 . S
C1287 O1242 1.199 1_455 S
C1287 O1243 1.297 . S
C1287 C1271 1.476 . S
H1288 O1314 0.856 . S
H1289 O1317 0.854 . S
H1290 C1325 0.930 . S
H1291 C1326 0.930 . S
H1292 C1328 0.930 . S
H1293 C1329 0.930 . S
H1294 C1331 0.931 . S
H1295 C1332 0.930 . S
H1296 C1334 0.930 . S
H1297 C1335 0.929 . S
H1298 C1337 0.930 . S
H1299 C1338 0.931 . S
H1300 C1340 0.930 . S
H1301 C1341 0.929 . S
H1302 C1343 0.931 . S
H1303 C1344 0.930 . S
H1304 C1346 0.930 . S
H1305 C1347 0.932 . S
H1306 C1349 0.930 . S
H1307 C1350 0.929 . S
H1308 C1352 0.931 1_554 S
H1309 C1353 0.930 . S
H1310 C1355 0.929 . S
H1311 C1356 0.931 . S
H1312 C1358 0.930 . S
H1313 C1359 0.929 . S
O1314 H1288 0.856 . S
O1314 C1360 1.300 . S
O1315 C1360 1.209 . S
O1316 C1361 1.199 . S
O1317 H1289 0.854 . S
O1317 C1361 1.297 . S
C1318 C1319 1.404 . S
C1318 C1323 1.397 . S
C1318 C1324 1.492 . S
C1319 C1318 1.404 . S
C1319 C1320 1.396 . S
C1319 C1330 1.492 . S
C1320 C1319 1.396 . S
C1320 C1321 1.397 . S
C1320 C1336 1.509 . S
C1321 C1320 1.397 . S
C1321 C1322 1.412 . S
C1321 C1342 1.485 . S
C1322 C1321 1.412 . S
C1322 C1323 1.388 . S
C1322 C1348 1.490 . S
C1323 C1318 1.397 . S
C1323 C1322 1.388 . S
C1323 C1354 1.519 . S
C1324 C1318 1.492 . S
C1324 C1325 1.363 . S
C1324 C1329 1.390 . S
C1325 H1290 0.930 . S
C1325 C1324 1.363 . S
C1325 C1326 1.372 . S
C1326 H1291 0.930 . S
C1326 C1325 1.372 . S
C1326 C1327 1.383 . S
C1327 C1326 1.383 . S
C1327 C1328 1.395 . S
C1328 H1292 0.930 . S
C1328 C1327 1.395 . S
C1328 C1329 1.362 . S
C1329 H1293 0.930 . S
C1329 C1324 1.390 . S
C1329 C1328 1.362 . S
C1330 C1319 1.492 . S
C1330 C1331 1.377 . S
C1330 C1335 1.397 . S
C1331 H1294 0.931 . S
C1331 C1330 1.377 . S
C1331 C1332 1.376 . S
C1332 H1295 0.930 . S
C1332 C1331 1.376 . S
C1332 C1333 1.376 . S
C1333 C1332 1.376 . S
C1333 C1334 1.378 . S
C1333 C1360 1.486 . S
C1334 H1296 0.930 . S
C1334 C1333 1.378 . S
C1334 C1335 1.376 . S
C1335 H1297 0.929 . S
C1335 C1330 1.397 . S
C1335 C1334 1.376 . S
C1336 C1320 1.509 . S
C1336 C1337 1.391 . S
C1336 C1341 1.386 . S
C1337 H1298 0.930 . S
C1337 C1336 1.391 . S
C1337 C1338 1.375 . S
C1338 H1299 0.931 . S
C1338 C1337 1.375 . S
C1338 C1339 1.375 . S
C1339 C1338 1.375 . S
C1339 C1340 1.361 . S
C1340 H1300 0.930 . S
C1340 C1339 1.361 . S
C1340 C1341 1.399 . S
C1341 H1301 0.929 . S
C1341 C1336 1.386 . S
C1341 C1340 1.399 . S
C1342 C1321 1.485 . S
C1342 C1343 1.394 . S
C1342 C1347 1.360 . S
C1343 H1302 0.931 . S
C1343 C1342 1.394 . S
C1343 C1344 1.372 . S
C1344 H1303 0.930 . S
C1344 C1343 1.372 . S
C1344 C1345 1.397 . S
C1345 C1344 1.397 . S
C1345 C1346 1.390 . S
C1345 C1361 1.476 . S
C1346 H1304 0.930 . S
C1346 C1345 1.390 . S
C1346 C1347 1.366 . S
C1347 H1305 0.932 . S
C1347 C1342 1.360 . S
C1347 C1346 1.366 . S
C1348 C1322 1.490 . S
C1348 C1349 1.380 . S
C1348 C1353 1.386 . S
C1349 H1306 0.930 . S
C1349 C1348 1.380 . S
C1349 C1350 1.381 . S
C1350 H1307 0.929 . S
C1350 C1349 1.381 . S
C1350 C1351 1.371 . S
C1351 C1350 1.371 . S
C1351 C1352 1.380 . S
C1352 H1308 0.931 1_556 S
C1352 C1351 1.380 . S
C1352 C1353 1.387 . S
C1353 H1309 0.930 . S
C1353 C1348 1.386 . S
C1353 C1352 1.387 . S
C1354 C1323 1.519 . S
C1354 C1355 1.377 . S
C1354 C1359 1.361 . S
C1355 H1310 0.929 . S
C1355 C1354 1.377 . S
C1355 C1356 1.386 . S
C1356 H1311 0.931 . S
C1356 C1355 1.386 . S
C1356 C1357 1.363 . S
C1357 C1356 1.363 . S
C1357 C1358 1.385 . S
C1358 H1312 0.930 . S
C1358 C1357 1.385 . S
C1358 C1359 1.396 . S
C1359 H1313 0.929 . S
C1359 C1354 1.361 . S
C1359 C1358 1.396 . S
C1360 O1314 1.300 . S
C1360 O1315 1.209 . S
C1360 C1333 1.486 . S
C1361 O1316 1.199 . S
C1361 O1317 1.297 . S
C1361 C1345 1.476 . S
H1362 O1388 0.856 . S
H1363 O1391 0.854 . S
H1364 C1399 0.930 . S
H1365 C1400 0.930 . S
H1366 C1402 0.930 . S
H1367 C1403 0.930 . S
H1368 C1405 0.931 . S
H1369 C1406 0.930 . S
H1370 C1408 0.930 . S
H1371 C1409 0.929 . S
H1372 C1411 0.930 . S
H1373 C1412 0.931 . S
H1374 C1414 0.930 . S
H1375 C1415 0.929 . S
H1376 C1417 0.931 . S
H1377 C1418 0.930 . S
H1378 C1420 0.930 . S
H1379 C1421 0.932 . S
H1380 C1423 0.930 . S
H1381 C1424 0.929 . S
H1382 C1426 0.931 . S
H1383 C1427 0.930 . S
H1384 C1429 0.929 . S
H1385 C1430 0.931 . S
H1386 C1432 0.930 . S
H1387 C1433 0.929 . S
O1388 H1362 0.856 . S
O1388 C1434 1.300 . S
O1389 C1434 1.209 . S
O1390 C1435 1.199 . S
O1391 H1363 0.854 . S
O1391 C1435 1.297 . S
C1392 C1393 1.404 . S
C1392 C1397 1.397 . S
C1392 C1398 1.492 . S
C1393 C1392 1.404 . S
C1393 C1394 1.396 . S
C1393 C1404 1.492 . S
C1394 C1393 1.396 . S
C1394 C1395 1.397 . S
C1394 C1410 1.509 . S
C1395 C1394 1.397 . S
C1395 C1396 1.412 . S
C1395 C1416 1.485 . S
C1396 C1395 1.412 . S
C1396 C1397 1.388 . S
C1396 C1422 1.490 . S
C1397 C1392 1.397 . S
C1397 C1396 1.388 . S
C1397 C1428 1.519 . S
C1398 C1392 1.492 . S
C1398 C1399 1.363 . S
C1398 C1403 1.390 . S
C1399 H1364 0.930 . S
C1399 C1398 1.363 . S
C1399 C1400 1.372 . S
C1400 H1365 0.930 . S
C1400 C1399 1.372 . S
C1400 C1401 1.383 . S
C1401 C1400 1.383 . S
C1401 C1402 1.395 . S
C1402 H1366 0.930 . S
C1402 C1401 1.395 . S
C1402 C1403 1.362 . S
C1403 H1367 0.930 . S
C1403 C1398 1.390 . S
C1403 C1402 1.362 . S
C1404 C1393 1.492 . S
C1404 C1405 1.377 . S
C1404 C1409 1.397 . S
C1405 H1368 0.931 . S
C1405 C1404 1.377 . S
C1405 C1406 1.376 . S
C1406 H1369 0.930 . S
C1406 C1405 1.376 . S
C1406 C1407 1.376 . S
C1407 C1406 1.376 . S
C1407 C1408 1.378 . S
C1407 C1434 1.486 . S
C1408 H1370 0.930 . S
C1408 C1407 1.378 . S
C1408 C1409 1.376 . S
C1409 H1371 0.929 . S
C1409 C1404 1.397 . S
C1409 C1408 1.376 . S
C1410 C1394 1.509 . S
C1410 C1411 1.391 . S
C1410 C1415 1.386 . S
C1411 H1372 0.930 . S
C1411 C1410 1.391 . S
C1411 C1412 1.375 . S
C1412 H1373 0.931 . S
C1412 C1411 1.375 . S
C1412 C1413 1.375 . S
C1413 C1412 1.375 . S
C1413 C1414 1.361 . S
C1414 H1374 0.930 . S
C1414 C1413 1.361 . S
C1414 C1415 1.399 . S
C1415 H1375 0.929 . S
C1415 C1410 1.386 . S
C1415 C1414 1.399 . S
C1416 C1395 1.485 . S
C1416 C1417 1.394 . S
C1416 C1421 1.360 . S
C1417 H1376 0.931 . S
C1417 C1416 1.394 . S
C1417 C1418 1.372 . S
C1418 H1377 0.930 . S
C1418 C1417 1.372 . S
C1418 C1419 1.397 . S
C1419 C1418 1.397 . S
C1419 C1420 1.390 . S
C1419 C1435 1.476 . S
C1420 H1378 0.930 . S
C1420 C1419 1.390 . S
C1420 C1421 1.366 . S
C1421 H1379 0.932 . S
C1421 C1416 1.360 . S
C1421 C1420 1.366 . S
C1422 C1396 1.490 . S
C1422 C1423 1.380 . S
C1422 C1427 1.386 . S
C1423 H1380 0.930 . S
C1423 C1422 1.380 . S
C1423 C1424 1.381 . S
C1424 H1381 0.929 . S
C1424 C1423 1.381 . S
C1424 C1425 1.371 . S
C1425 C1424 1.371 . S
C1425 C1426 1.380 . S
C1426 H1382 0.931 . S
C1426 C1425 1.380 . S
C1426 C1427 1.387 . S
C1427 H1383 0.930 . S
C1427 C1422 1.386 . S
C1427 C1426 1.387 . S
C1428 C1397 1.519 . S
C1428 C1429 1.377 . S
C1428 C1433 1.361 . S
C1429 H1384 0.929 . S
C1429 C1428 1.377 . S
C1429 C1430 1.386 . S
C1430 H1385 0.931 . S
C1430 C1429 1.386 . S
C1430 C1431 1.363 . S
C1431 C1430 1.363 . S
C1431 C1432 1.385 . S
C1432 H1386 0.930 . S
C1432 C1431 1.385 . S
C1432 C1433 1.396 . S
C1433 H1387 0.929 . S
C1433 C1428 1.361 . S
C1433 C1432 1.396 . S
C1434 O1388 1.300 . S
C1434 O1389 1.209 . S
C1434 C1407 1.486 . S
C1435 O1390 1.199 . S
C1435 O1391 1.297 . S
C1435 C1419 1.476 . S
H1436 O1462 0.856 . S
H1437 O1465 0.864 . S
H1438 C1473 0.930 . S
H1439 C1474 0.930 . S
H1440 C1476 0.930 . S
H1441 C1477 0.930 . S
H1442 C1479 0.931 . S
H1443 C1480 0.930 . S
H1444 C1482 0.930 . S
H1445 C1483 0.929 . S
H1446 C1485 0.930 . S
H1447 C1486 0.931 . S
H1448 C1488 0.930 . S
H1449 C1489 0.929 . S
H1450 C1491 0.931 . S
H1451 C1492 0.930 . S
H1452 C1494 0.930 . S
H1453 C1495 0.932 . S
H1454 C1497 0.930 . S
H1455 C1498 0.929 . S
H1456 C1500 0.931 . S
H1457 C1501 0.930 . S
H1458 C1503 0.929 . S
H1459 C1504 0.931 . S
H1460 C1506 0.930 . S
H1461 C1507 0.929 . S
O1462 H1436 0.856 . S
O1462 C1508 1.300 . S
O1463 C1508 1.209 . S
O1464 C1509 1.199 1_655 S
O1465 H1437 0.864 . S
O1465 C1509 1.301 1_655 S
C1466 C1467 1.404 . S
C1466 C1471 1.397 . S
C1466 C1472 1.492 . S
C1467 C1466 1.404 . S
C1467 C1468 1.396 . S
C1467 C1478 1.492 . S
C1468 C1467 1.396 . S
C1468 C1469 1.397 . S
C1468 C1484 1.509 . S
C1469 C1468 1.397 . S
C1469 C1470 1.412 . S
C1469 C1490 1.485 . S
C1470 C1469 1.412 . S
C1470 C1471 1.388 . S
C1470 C1496 1.490 . S
C1471 C1466 1.397 . S
C1471 C1470 1.388 . S
C1471 C1502 1.519 . S
C1472 C1466 1.492 . S
C1472 C1473 1.363 . S
C1472 C1477 1.390 . S
C1473 H1438 0.930 . S
C1473 C1472 1.363 . S
C1473 C1474 1.372 . S
C1474 H1439 0.930 . S
C1474 C1473 1.372 . S
C1474 C1475 1.383 . S
C1475 C1474 1.383 . S
C1475 C1476 1.395 . S
C1476 H1440 0.930 . S
C1476 C1475 1.395 . S
C1476 C1477 1.362 . S
C1477 H1441 0.930 . S
C1477 C1472 1.390 . S
C1477 C1476 1.362 . S
C1478 C1467 1.492 . S
C1478 C1479 1.377 . S
C1478 C1483 1.397 . S
C1479 H1442 0.931 . S
C1479 C1478 1.377 . S
C1479 C1480 1.376 . S
C1480 H1443 0.930 . S
C1480 C1479 1.376 . S
C1480 C1481 1.376 . S
C1481 C1480 1.376 . S
C1481 C1482 1.378 . S
C1481 C1508 1.486 . S
C1482 H1444 0.930 . S
C1482 C1481 1.378 . S
C1482 C1483 1.376 . S
C1483 H1445 0.929 . S
C1483 C1478 1.397 . S
C1483 C1482 1.376 . S
C1484 C1468 1.509 . S
C1484 C1485 1.391 . S
C1484 C1489 1.386 . S
C1485 H1446 0.930 . S
C1485 C1484 1.391 . S
C1485 C1486 1.375 . S
C1486 H1447 0.931 . S
C1486 C1485 1.375 . S
C1486 C1487 1.375 . S
C1487 C1486 1.375 . S
C1487 C1488 1.361 . S
C1488 H1448 0.930 . S
C1488 C1487 1.361 . S
C1488 C1489 1.399 . S
C1489 H1449 0.929 . S
C1489 C1484 1.386 . S
C1489 C1488 1.399 . S
C1490 C1469 1.485 . S
C1490 C1491 1.394 . S
C1490 C1495 1.360 . S
C1491 H1450 0.931 . S
C1491 C1490 1.394 . S
C1491 C1492 1.372 . S
C1492 H1451 0.930 . S
C1492 C1491 1.372 . S
C1492 C1493 1.397 . S
C1493 C1492 1.397 . S
C1493 C1494 1.390 . S
C1493 C1509 1.476 . S
C1494 H1452 0.930 . S
C1494 C1493 1.390 . S
C1494 C1495 1.366 . S
C1495 H1453 0.932 . S
C1495 C1490 1.360 . S
C1495 C1494 1.366 . S
C1496 C1470 1.490 . S
C1496 C1497 1.380 . S
C1496 C1501 1.386 . S
C1497 H1454 0.930 . S
C1497 C1496 1.380 . S
C1497 C1498 1.381 . S
C1498 H1455 0.929 . S
C1498 C1497 1.381 . S
C1498 C1499 1.371 . S
C1499 C1498 1.371 . S
C1499 C1500 1.380 . S
C1500 H1456 0.931 . S
C1500 C1499 1.380 . S
C1500 C1501 1.387 . S
C1501 H1457 0.930 . S
C1501 C1496 1.386 . S
C1501 C1500 1.387 . S
C1502 C1471 1.519 . S
C1502 C1503 1.377 . S
C1502 C1507 1.361 . S
C1503 H1458 0.929 . S
C1503 C1502 1.377 . S
C1503 C1504 1.386 . S
C1504 H1459 0.931 . S
C1504 C1503 1.386 . S
C1504 C1505 1.363 . S
C1505 C1504 1.363 . S
C1505 C1506 1.385 . S
C1506 H1460 0.930 . S
C1506 C1505 1.385 . S
C1506 C1507 1.396 . S
C1507 H1461 0.929 . S
C1507 C1502 1.361 . S
C1507 C1506 1.396 . S
C1508 O1462 1.300 . S
C1508 O1463 1.209 . S
C1508 C1481 1.486 . S
C1509 O1464 1.199 1_455 S
C1509 O1465 1.301 1_455 S
C1509 C1493 1.476 . S
H1510 O1536 0.856 . S
H1511 O1539 0.854 . S
H1512 C1547 0.930 . S
H1513 C1548 0.930 . S
H1514 C1550 0.930 . S
H1515 C1551 0.930 . S
H1516 C1553 0.931 . S
H1517 C1554 0.930 . S
H1518 C1556 0.930 . S
H1519 C1557 0.929 . S
H1520 C1559 0.930 . S
H1521 C1560 0.931 . S
H1522 C1562 0.930 . S
H1523 C1563 0.929 . S
H1524 C1565 0.931 . S
H1525 C1566 0.930 . S
H1526 C1568 0.930 . S
H1527 C1569 0.932 . S
H1528 C1571 0.930 . S
H1529 C1572 0.929 . S
H1530 C1574 0.931 . S
H1531 C1575 0.930 . S
H1532 C1577 0.929 . S
H1533 C1578 0.931 . S
H1534 C1580 0.930 . S
H1535 C1581 0.929 . S
O1536 H1510 0.856 . S
O1536 C1582 1.300 . S
O1537 C1582 1.209 . S
O1538 C1583 1.199 . S
O1539 H1511 0.854 . S
O1539 C1583 1.297 1_655 S
C1540 C1541 1.404 . S
C1540 C1545 1.397 . S
C1540 C1546 1.492 . S
C1541 C1540 1.404 . S
C1541 C1542 1.396 . S
C1541 C1552 1.492 . S
C1542 C1541 1.396 . S
C1542 C1543 1.397 . S
C1542 C1558 1.509 . S
C1543 C1542 1.397 . S
C1543 C1544 1.412 . S
C1543 C1564 1.485 . S
C1544 C1543 1.412 . S
C1544 C1545 1.388 . S
C1544 C1570 1.490 . S
C1545 C1540 1.397 . S
C1545 C1544 1.388 . S
C1545 C1576 1.519 . S
C1546 C1540 1.492 . S
C1546 C1547 1.363 . S
C1546 C1551 1.390 . S
C1547 H1512 0.930 . S
C1547 C1546 1.363 . S
C1547 C1548 1.372 . S
C1548 H1513 0.930 . S
C1548 C1547 1.372 . S
C1548 C1549 1.383 . S
C1549 C1548 1.383 . S
C1549 C1550 1.395 . S
C1550 H1514 0.930 . S
C1550 C1549 1.395 . S
C1550 C1551 1.362 . S
C1551 H1515 0.930 . S
C1551 C1546 1.390 . S
C1551 C1550 1.362 . S
C1552 C1541 1.492 . S
C1552 C1553 1.377 . S
C1552 C1557 1.397 . S
C1553 H1516 0.931 . S
C1553 C1552 1.377 . S
C1553 C1554 1.376 . S
C1554 H1517 0.930 . S
C1554 C1553 1.376 . S
C1554 C1555 1.376 . S
C1555 C1554 1.376 . S
C1555 C1556 1.378 . S
C1555 C1582 1.486 . S
C1556 H1518 0.930 . S
C1556 C1555 1.378 . S
C1556 C1557 1.376 . S
C1557 H1519 0.929 . S
C1557 C1552 1.397 . S
C1557 C1556 1.376 . S
C1558 C1542 1.509 . S
C1558 C1559 1.391 . S
C1558 C1563 1.386 . S
C1559 H1520 0.930 . S
C1559 C1558 1.391 . S
C1559 C1560 1.375 . S
C1560 H1521 0.931 . S
C1560 C1559 1.375 . S
C1560 C1561 1.375 . S
C1561 C1560 1.375 . S
C1561 C1562 1.361 . S
C1562 H1522 0.930 . S
C1562 C1561 1.361 . S
C1562 C1563 1.399 . S
C1563 H1523 0.929 . S
C1563 C1558 1.386 . S
C1563 C1562 1.399 . S
C1564 C1543 1.485 . S
C1564 C1565 1.394 . S
C1564 C1569 1.360 . S
C1565 H1524 0.931 . S
C1565 C1564 1.394 . S
C1565 C1566 1.372 . S
C1566 H1525 0.930 . S
C1566 C1565 1.372 . S
C1566 C1567 1.397 . S
C1567 C1566 1.397 . S
C1567 C1568 1.390 . S
C1567 C1583 1.476 . S
C1568 H1526 0.930 . S
C1568 C1567 1.390 . S
C1568 C1569 1.366 . S
C1569 H1527 0.932 . S
C1569 C1564 1.360 . S
C1569 C1568 1.366 . S
C1570 C1544 1.490 . S
C1570 C1571 1.380 . S
C1570 C1575 1.386 . S
C1571 H1528 0.930 . S
C1571 C1570 1.380 . S
C1571 C1572 1.381 . S
C1572 H1529 0.929 . S
C1572 C1571 1.381 . S
C1572 C1573 1.371 . S
C1573 C1572 1.371 . S
C1573 C1574 1.380 . S
C1574 H1530 0.931 . S
C1574 C1573 1.380 . S
C1574 C1575 1.387 . S
C1575 H1531 0.930 . S
C1575 C1570 1.386 . S
C1575 C1574 1.387 . S
C1576 C1545 1.519 . S
C1576 C1577 1.377 . S
C1576 C1581 1.361 . S
C1577 H1532 0.929 . S
C1577 C1576 1.377 . S
C1577 C1578 1.386 . S
C1578 H1533 0.931 . S
C1578 C1577 1.386 . S
C1578 C1579 1.363 . S
C1579 C1578 1.363 . S
C1579 C1580 1.385 . S
C1580 H1534 0.930 . S
C1580 C1579 1.385 . S
C1580 C1581 1.396 . S
C1581 H1535 0.929 . S
C1581 C1576 1.361 . S
C1581 C1580 1.396 . S
C1582 O1536 1.300 . S
C1582 O1537 1.209 . S
C1582 C1555 1.486 . S
C1583 O1538 1.199 . S
C1583 O1539 1.297 1_455 S
C1583 C1567 1.476 . S
C4 C981 1.587 . S
C26 C1061 1.842 . S
C1129 C32 1.252 . S
C40 C1209 1.777 . S
C12 C1283 1.541 . S
C18 C1351 1.707 1_554 S
C46 C1277 1.567 . S
C1357 C68 1.493 . S
C1203 C74 1.341 1_546 S
C82 C1135 2.234 . S
C987 C54 1.644 . S
C60 C1055 1.386 . S
C88 C1425 1.859 . S
C110 C1505 1.973 . S
C1573 C116 2.140 . S
C124 C321 2.039 . S
C96 C395 1.770 . S
C102 C463 1.821 . S
C130 C389 1.322 . S
C152 C469 1.589 . S
C315 C158 1.455 . S
C1579 C166 1.889 . S
C1431 C138 1.443 . S
C1499 C144 1.426 . S
C172 C537 1.784 . S
C194 C617 2.013 . S
C200 C685 2.086 . S
C208 C765 2.110 . S
C839 C180 1.776 . S
C907 C186 1.910 . S
C833 C214 1.454 . S
C913 C236 1.547 . S
C242 C759 1.438 . S
C691 C250 1.805 . S
C222 C543 1.531 . S
C611 C228 1.374 . S
C291 C5 2.903 . S
C25 C365 2.016 . S
C451 C33 1.861 . S
C525 C39 1.766 . S
C587 C11 2.117 . S
C673 C19 1.627 . S
C47 C661 3.298 1_554 S
C67 C513 2.708 . S
C75 C599 2.833 . S
C81 C377 2.740 . S
C439 C53 2.944 . S
C61 C303 2.441 . S
C735 C89 2.673 . S
C109 C809 1.972 . S
C117 C895 1.679 . S
C969 C123 1.484 . S
C95 C1031 1.863 . S
C103 C1117 1.393 . S
C131 C1105 2.510 1_565 S
C151 C957 2.176 1_455 S
C1043 C159 2.401 . S
C165 C821 2.788 . S
C137 C883 2.730 . S
C747 C145 2.362 . S
C1179 C173 2.372 . S
C193 C1253 1.374 . S
C201 C1339 1.593 . S
C1413 C207 1.847 . S
C1475 C179 2.041 . S
C187 C1561 1.578 . S
C215 C1549 3.196 . S
C235 C1401 2.681 . S
C1487 C243 2.472 . S
C1265 C249 2.077 . S
C1327 C221 2.589 . S
C229 C1191 1.738 . S
