# Generated by pormake.
# Topology pth, (4,4)-cn, num edge types: 1
# Building blocks:
#     Node 0, Type 0, BuildingBlock: KUFVIS_clean_sbu_0, # of connection points: 4
#     Node 1, Type 0, BuildingBlock: KUFVIS_clean_sbu_0, # of connection points: 4
#     Node 2, Type 0, BuildingBlock: KUFVIS_clean_sbu_0, # of connection points: 4
#     Node 3, Type 1, BuildingBlock: NAHDIM_clean_linker_0, # of connection points: 4
#     Node 4, Type 1, BuildingBlock: NAHDIM_clean_linker_0, # of connection points: 4
#     Node 5, Type 1, BuildingBlock: NAHDIM_clean_linker_0, # of connection points: 4
#     Edge 6, Type (0, 1), BuildingBlock: FUNLAD_clean_linker_0, # of connection points: 2
#     Edge 7, Type (0, 1), BuildingBlock: FUNLAD_clean_linker_0, # of connection points: 2
#     Edge 8, Type (0, 1), BuildingBlock: FUNLAD_clean_linker_0, # of connection points: 2
#     Edge 9, Type (0, 1), BuildingBlock: FUNLAD_clean_linker_0, # of connection points: 2
#     Edge 10, Type (0, 1), BuildingBlock: FUNLAD_clean_linker_0, # of connection points: 2
#     Edge 11, Type (0, 1), BuildingBlock: FUNLAD_clean_linker_0, # of connection points: 2
#     Edge 12, Type (0, 1), BuildingBlock: FUNLAD_clean_linker_0, # of connection points: 2
#     Edge 13, Type (0, 1), BuildingBlock: FUNLAD_clean_linker_0, # of connection points: 2
#     Edge 14, Type (0, 1), BuildingBlock: FUNLAD_clean_linker_0, # of connection points: 2
#     Edge 15, Type (0, 1), BuildingBlock: FUNLAD_clean_linker_0, # of connection points: 2
#     Edge 16, Type (0, 1), BuildingBlock: FUNLAD_clean_linker_0, # of connection points: 2
#     Edge 17, Type (0, 1), BuildingBlock: FUNLAD_clean_linker_0, # of connection points: 2
# Relax obj value: 0.013
# Max RMSD: 0.083
# Mean RMSD: 0.063
data_MOF--net-pth--node1-KUFVIS_clean_sbu_0--node2-NAHDIM_clean_linker_0--edge1-FUNLAD_clean_linker_0
_symmetry_space_group_name_H-M    P1
_symmetry_Int_Tables_number       1
_symmetry_cell_setting            triclinic
loop_
_symmetry_equiv_pos_as_xyz
'x, y, z'
_cell_length_a     35.187048
_cell_length_b     35.260021
_cell_length_c     91.036314
_cell_angle_alpha  90.133205
_cell_angle_beta   92.382152
_cell_angle_gamma 120.29334
loop_
_atom_site_label
_atom_site_type_symbol
_atom_site_fract_x
_atom_site_fract_y
_atom_site_fract_z
_atom_type_partial_charge
Mn0 Mn 0.03407 0.0673 0.05913 0.0
Mn1 Mn 0.96798 0.09778 0.04132 0.0
C2 C 0.99068 0.02627 0.03907 0.0
C3 C 0.04446 0.02981 0.0785 0.0
C4 C 0.06607 0.14079 0.03679 0.0
O5 O 0.03426 0.11175 0.07325 0.0
O6 O 0.98695 0.12729 0.06118 0.0
C7 C 0.89276 0.05447 0.06066 0.0
N8 N 0.90899 0.06016 0.04701 0.0
C9 C 0.83751 0.00823 0.03619 0.0
C10 C 0.81997 0.00204 0.05011 0.0
C11 C 0.84775 0.02519 0.06241 0.0
C12 C 0.88262 0.03784 0.03513 0.0
H13 H 0.91403 0.07209 0.07015 0.0
C14 C 0.01261 0.13171 0.07228 0.0
O15 O 0.07785 0.06176 0.07229 0.0
O16 O 0.0055 0.02029 0.07356 0.0
N17 N 0.94638 0.07232 0.02201 0.0
C18 C 0.96847 0.08194 0.00935 0.0
C19 C 0.94543 0.06145 0.99604 0.0
C20 C 0.89987 0.03171 0.99583 0.0
C21 C 0.87766 0.02307 0.00894 0.0
C22 C 0.90231 0.04474 0.02186 0.0
H23 H 0.00349 0.10456 0.00944 0.0
O24 O 0.02408 0.02284 0.04375 0.0
O25 O 0.98236 0.05242 0.04668 0.0
O26 O 0.074 0.11719 0.04564 0.0
O27 O 0.02795 0.13664 0.03464 0.0
C28 C 0.83212 0.99344 0.00972 0.0
C29 C 0.81209 0.98593 0.02334 0.0
H30 H 0.78527 0.97945 0.05151 0.0
H31 H 0.83449 0.02046 0.0732 0.0
H32 H 0.96281 0.06838 0.98597 0.0
H33 H 0.88229 0.01565 0.98557 0.0
H34 H 0.81226 0.97602 -8e-05 0.0
H35 H 0.77711 0.96283 0.02382 0.0
Mn36 Mn 0.01769 0.05428 0.39501 0.0
Mn37 Mn 0.08652 0.15735 0.40821 0.0
C38 C 0.06583 0.06535 0.41465 0.0
C39 C 0.00303 0.99896 0.37782 0.0
C40 C 0.98899 0.10542 0.41415 0.0
O41 O 0.01506 0.09285 0.37899 0.0
O42 O 0.06795 0.15983 0.38743 0.0
C43 C 0.16224 0.18176 0.38966 0.0
N44 N 0.1456 0.1764 0.40323 0.0
C45 C 0.21696 0.20133 0.41511 0.0
C46 C 0.23493 0.20738 0.40126 0.0
C47 C 0.20742 0.19744 0.38848 0.0
C48 C 0.17173 0.18574 0.41559 0.0
H49 H 0.14116 0.1741 0.37982 0.0
C50 C 0.03933 0.13418 0.37754 0.0
O51 O 0.97133 0.00031 0.38418 0.0
O52 O 0.04294 0.0298 0.3814 0.0
N53 N 0.10735 0.16008 0.42817 0.0
C54 C 0.08448 0.15044 0.44065 0.0
C55 C 0.10698 0.15742 0.4544 0.0
C56 C 0.15276 0.17462 0.45517 0.0
C57 C 0.17567 0.18483 0.44218 0.0
C58 C 0.15153 0.17741 0.42881 0.0
H59 H 0.04931 0.13733 0.44015 0.0
O60 O 0.03161 0.02677 0.41192 0.0
O61 O 0.07143 0.09599 0.40556 0.0
O62 O 0.9805 0.0693 0.40793 0.0
O63 O 0.02682 0.14036 0.41423 0.0
C64 C 0.22138 0.20128 0.44197 0.0
C65 C 0.242 0.20945 0.42844 0.0
H66 H 0.26973 0.2193 0.4003 0.0
H67 H 0.22102 0.20184 0.37775 0.0
H68 H 0.08906 0.14946 0.46437 0.0
H69 H 0.16994 0.17957 0.46578 0.0
H70 H 0.24088 0.20715 0.45214 0.0
H71 H 0.27705 0.22152 0.42841 0.0
Mn72 Mn 0.05495 0.0767 0.73732 0.0
Mn73 Mn 0.02534 0.13675 0.75765 0.0
C74 C 0.1006 0.12089 0.75677 0.0
C75 C 0.08972 0.07077 0.7169 0.0
C76 C 0.9844 0.03781 0.75997 0.0
O77 O 0.00639 0.07729 0.72443 0.0
O78 O 0.99453 0.12372 0.73794 0.0
C79 C 0.06535 0.21836 0.74067 0.0
N80 N 0.06157 0.19765 0.7536 0.0
C81 C 0.11344 0.26577 0.76613 0.0
C82 C 0.11771 0.28786 0.75297 0.0
C83 C 0.09366 0.26402 0.74018 0.0
C84 C 0.08481 0.22022 0.76594 0.0
H85 H 0.04697 0.20015 0.73081 0.0
C86 C 0.988 0.10019 0.72632 0.0
O87 O 0.05999 0.03601 0.72324 0.0
O88 O 0.09836 0.10854 0.72225 0.0
N89 N 0.05364 0.15208 0.77691 0.0
C90 C 0.04742 0.12557 0.78852 0.0
C91 C 0.06978 0.14421 0.8021 0.0
C92 C 0.09799 0.1899 0.80364 0.0
C93 C 0.1036 0.21655 0.79156 0.0
C94 C 0.08035 0.19613 0.77832 0.0
H95 H 0.02561 0.09047 0.78744 0.0
O96 O 0.10456 0.08854 0.75187 0.0
O97 O 0.07016 0.12589 0.75017 0.0
O98 O 0.00906 0.03341 0.75106 0.0
O99 O 0.98704 0.07464 0.7628 0.0
C100 C 0.13178 0.26249 0.7921 0.0
C101 C 0.13693 0.28706 0.77937 0.0
H102 H 0.13957 0.32306 0.75253 0.0
H103 H 0.09694 0.28081 0.72996 0.0
H104 H 0.0653 0.12342 0.81137 0.0
H105 H 0.11539 0.20413 0.8141 0.0
H106 H 0.15008 0.2792 0.80219 0.0
H107 H 0.15928 0.32226 0.77986 0.0
C108 C 0.92267 0.64341 0.31377 0.0
C109 C 0.96593 0.68026 0.30814 0.0
C110 C 0.97954 0.66399 0.28372 0.0
C111 C 0.02397 0.6757 0.2852 0.0
C112 C 0.04058 0.65534 0.27633 0.0
C113 C 0.01196 0.6224 0.26587 0.0
C114 C 0.96753 0.61198 0.26395 0.0
C115 C 0.95208 0.63355 0.27277 0.0
C116 C 0.08836 0.66808 0.27843 0.0
C117 C 0.93595 0.57681 0.253 0.0
C118 C 0.01537 0.32656 0.30181 0.0
C119 C 0.00373 0.35377 0.29231 0.0
C120 C 0.03569 0.42971 0.28446 0.0
C121 C 0.00043 0.42151 0.27456 0.0
C122 C 0.00139 0.45546 0.26628 0.0
C123 C 0.03868 0.49823 0.26772 0.0
C124 C 0.07436 0.5065 0.27756 0.0
C125 C 0.07223 0.47209 0.28587 0.0
C126 C 0.96253 0.44566 0.25601 0.0
C127 C 0.1147 0.55168 0.27929 0.0
C128 C 0.11457 0.46582 0.1798 0.0
C129 C 0.07119 0.45767 0.17979 0.0
C130 C 0.06214 0.48894 0.18567 0.0
C131 C 0.09723 0.52917 0.19161 0.0
C132 C 0.14117 0.53842 0.19087 0.0
C133 C 0.14929 0.50666 0.18482 0.0
C134 C 0.01498 0.47854 0.18589 0.0
C135 C 0.17935 0.58116 0.19697 0.0
C136 C 0.08513 0.81665 0.188 0.0
C137 C 0.10521 0.81084 0.17414 0.0
C138 C 0.08383 0.7331 0.17618 0.0
C139 C 0.04813 0.69069 0.17346 0.0
C140 C 0.04587 0.65445 0.18064 0.0
C141 C 0.08092 0.6608 0.19047 0.0
C142 C 0.11819 0.7033 0.19272 0.0
C143 C 0.11906 0.73909 0.18571 0.0
C144 C 0.00562 0.60958 0.17799 0.0
C145 C 0.15691 0.71101 0.20272 0.0
C146 C 0.02727 0.59597 0.25803 0.0
C147 C 0.02745 0.56169 0.26564 0.0
C148 C 0.04016 0.53438 0.25899 0.0
C149 C 0.05294 0.54108 0.24428 0.0
C150 C 0.06569 0.51401 0.23725 0.0
C151 C 0.07711 0.52012 0.22265 0.0
C152 C 0.07669 0.55387 0.21456 0.0
C153 C 0.08757 0.55985 0.19963 0.0
C154 C 0.08841 0.59469 0.19205 0.0
C155 C 0.07788 0.62349 0.19893 0.0
C156 C 0.0654 0.61708 0.21372 0.0
C157 C 0.05322 0.64455 0.22085 0.0
C158 C 0.04105 0.63797 0.23539 0.0
C159 C 0.04033 0.60351 0.24334 0.0
C160 C 0.05285 0.57568 0.23641 0.0
C161 C 0.06506 0.58227 0.22156 0.0
C162 C 0.1271 0.38127 0.18986 0.0
C163 C 0.10079 0.39082 0.17814 0.0
O164 O 0.96229 0.681 0.29293 0.0
O165 O 0.08279 0.76705 0.16947 0.0
O166 O 0.12397 0.43514 0.17498 0.0
O167 O 0.03576 0.39793 0.29284 0.0
H168 H 0.99209 0.67277 0.31169 0.0
H169 H 0.916 0.61124 0.30923 0.0
H170 H 0.89466 0.64807 0.31033 0.0
H171 H 0.92487 0.64257 0.32597 0.0
H172 H 0.04546 0.7004 0.29341 0.0
H173 H 0.91794 0.62525 0.27164 0.0
H174 H 0.09056 0.64106 0.28387 0.0
H175 H 0.10767 0.69853 0.28533 0.0
H176 H 0.1035 0.67306 0.26762 0.0
H177 H 0.90205 0.57147 0.25325 0.0
H178 H 0.93474 0.54532 0.25534 0.0
H179 H 0.94772 0.58615 0.24174 0.0
H180 H 0.96976 0.3479 0.29351 0.0
H181 H 0.98989 0.31353 0.31038 0.0
H182 H 0.04302 0.34989 0.30969 0.0
H183 H 0.02203 0.28543 0.2868 0.0
H184 H 0.97196 0.38882 0.27328 0.0
H185 H 0.09927 0.47807 0.2935 0.0
H186 H 0.97284 0.45045 0.24448 0.0
H187 H 0.95075 0.46883 0.25836 0.0
H188 H 0.93471 0.41151 0.25696 0.0
H189 H 0.1409 0.55202 0.28663 0.0
H190 H 0.10543 0.57484 0.28395 0.0
H191 H 0.12822 0.56386 0.26838 0.0
H192 H 0.06869 0.38163 0.18288 0.0
H193 H 0.04438 0.42691 0.17522 0.0
H194 H 0.18272 0.51294 0.18449 0.0
H195 H 0.00485 0.47464 0.19744 0.0
H196 H 0.99196 0.44789 0.17953 0.0
H197 H 0.01197 0.50611 0.1813 0.0
H198 H 0.21165 0.5837 0.19531 0.0
H199 H 0.17599 0.58419 0.20893 0.0
H200 H 0.17889 0.60917 0.19159 0.0
H201 H 0.14053 0.82198 0.17661 0.0
H202 H 0.10244 0.85176 0.19164 0.0
H203 H 0.08848 0.79744 0.19709 0.0
H204 H 0.04956 0.80507 0.18583 0.0
H205 H 0.02128 0.68627 0.16601 0.0
H206 H 0.14746 0.77142 0.18774 0.0
H207 H 0.9908 0.59569 0.18861 0.0
H208 H 0.0153 0.58706 0.17305 0.0
H209 H 0.98027 0.61047 0.17054 0.0
H210 H 0.18567 0.74464 0.20178 0.0
H211 H 0.1671 0.68674 0.20011 0.0
H212 H 0.14712 0.70646 0.2143 0.0
H213 H 0.01717 0.55592 0.27689 0.0
H214 H 0.06669 0.48755 0.24292 0.0
H215 H 0.08634 0.49803 0.21781 0.0
H216 H 0.09736 0.59943 0.18066 0.0
H217 H 0.05277 0.67139 0.21525 0.0
H218 H 0.03206 0.66014 0.24033 0.0
H219 H 0.10928 0.3458 0.19244 0.0
H220 H 0.1314 0.40049 0.2001 0.0
H221 H 0.16023 0.39055 0.18606 0.0
C222 C 0.41726 0.08133 0.66304 0.0
C223 C 0.38987 0.08492 0.65016 0.0
C224 C 0.41781 0.06379 0.62931 0.0
C225 C 0.45008 0.10598 0.62516 0.0
C226 C 0.48307 0.11165 0.61576 0.0
C227 C 0.48418 0.07448 0.61049 0.0
C228 C 0.45135 0.03193 0.61441 0.0
C229 C 0.41824 0.02715 0.62364 0.0
C230 C 0.51678 0.15747 0.61146 0.0
C231 C 0.4514 0.99157 0.6089 0.0
C232 C 0.83719 0.17452 0.60813 0.0
C233 C 0.79601 0.14052 0.61564 0.0
C234 C 0.72754 0.14304 0.61549 0.0
C235 C 0.69747 0.09776 0.61373 0.0
C236 C 0.65341 0.08242 0.60908 0.0
C237 C 0.63937 0.11297 0.60618 0.0
C238 C 0.66899 0.15837 0.60886 0.0
C239 C 0.71266 0.17273 0.61362 0.0
C240 C 0.62229 0.03375 0.60667 0.0
C241 C 0.65502 0.19187 0.6061 0.0
C242 C 0.68247 0.11056 0.51149 0.0
C243 C 0.65092 0.06829 0.5157 0.0
C244 C 0.61445 0.06158 0.52344 0.0
C245 C 0.60952 0.09789 0.52701 0.0
C246 C 0.64019 0.1402 0.52217 0.0
C247 C 0.67611 0.14587 0.51431 0.0
C248 C 0.58164 0.01584 0.52807 0.0
C249 C 0.6357 0.17954 0.52569 0.0
C250 C 0.31576 0.10222 0.52988 0.0
C251 C 0.33271 0.10263 0.5146 0.0
C252 C 0.38433 0.07561 0.51919 0.0
C253 C 0.38903 0.03859 0.51845 0.0
C254 C 0.42688 0.03953 0.52449 0.0
C255 C 0.46112 0.07882 0.53123 0.0
C256 C 0.45741 0.11693 0.53153 0.0
C257 C 0.41887 0.11481 0.5257 0.0
C258 C 0.42989 0.99837 0.52396 0.0
C259 C 0.49389 0.15985 0.53825 0.0
C260 C 0.51953 0.08032 0.60075 0.0
C261 C 0.56031 0.09022 0.60731 0.0
C262 C 0.59561 0.09829 0.59876 0.0
C263 C 0.59007 0.09553 0.58324 0.0
C264 C 0.62475 0.10283 0.57433 0.0
C265 C 0.6194 0.10109 0.55908 0.0
C266 C 0.57937 0.09269 0.55213 0.0
C267 C 0.57399 0.09198 0.53663 0.0
C268 C 0.53466 0.08605 0.53008 0.0
C269 C 0.49999 0.07989 0.53865 0.0
C270 C 0.50393 0.0782 0.55413 0.0
C271 C 0.46899 0.07022 0.56302 0.0
C272 C 0.4738 0.07037 0.57827 0.0
C273 C 0.51377 0.07863 0.58524 0.0
C274 C 0.54917 0.08612 0.57647 0.0
C275 C 0.54404 0.08536 0.5609 0.0
C276 C 0.78179 0.13391 0.52008 0.0
C277 C 0.74638 0.10204 0.50882 0.0
O278 O 0.38577 0.05707 0.63863 0.0
O279 O 0.34601 0.07181 0.51363 0.0
O280 O 0.719 0.11819 0.50457 0.0
O281 O 0.77105 0.1595 0.61893 0.0
H282 H 0.40684 0.11951 0.64666 0.0
H283 H 0.45107 0.09199 0.65962 0.0
H284 H 0.40203 0.04686 0.6667 0.0
H285 H 0.41989 0.10283 0.67243 0.0
H286 H 0.44956 0.13475 0.62893 0.0
H287 H 0.393 0.9947 0.62674 0.0
H288 H 0.54964 0.16582 0.61628 0.0
H289 H 0.50899 0.18257 0.61532 0.0
H290 H 0.51891 0.15909 0.59931 0.0
H291 H 0.4248 0.96092 0.61351 0.0
H292 H 0.48367 0.99434 0.61185 0.0
H293 H 0.44701 0.98913 0.59673 0.0
H294 H 0.77768 0.11238 0.60766 0.0
H295 H 0.85767 0.16015 0.60514 0.0
H296 H 0.85723 0.20381 0.61549 0.0
H297 H 0.82744 0.18525 0.5979 0.0
H298 H 0.70829 0.0744 0.61585 0.0
H299 H 0.73595 0.20751 0.61534 0.0
H300 H 0.5911 0.02356 0.61217 0.0
H301 H 0.63676 0.014 0.61089 0.0
H302 H 0.61396 0.02631 0.59472 0.0
H303 H 0.68187 0.22591 0.60895 0.0
H304 H 0.62635 0.18425 0.61272 0.0
H305 H 0.64449 0.19026 0.59434 0.0
H306 H 0.72752 0.06981 0.51415 0.0
H307 H 0.65453 0.04047 0.51288 0.0
H308 H 0.70027 0.17822 0.51076 0.0
H309 H 0.58332 0.01436 0.54024 0.0
H310 H 0.58794 0.99057 0.52333 0.0
H311 H 0.54768 0.00775 0.5246 0.0
H312 H 0.66233 0.21025 0.52112 0.0
H313 H 0.6365 0.18401 0.53781 0.0
H314 H 0.60341 0.1739 0.52118 0.0
H315 H 0.36085 0.13597 0.51266 0.0
H316 H 0.30419 0.12622 0.53055 0.0
H317 H 0.34253 0.11153 0.53846 0.0
H318 H 0.28813 0.06897 0.53224 0.0
H319 H 0.36241 0.00856 0.51335 0.0
H320 H 0.41623 0.14396 0.52643 0.0
H321 H 0.43539 0.98978 0.53527 0.0
H322 H 0.45856 0.0043 0.5176 0.0
H323 H 0.39969 0.96998 0.51881 0.0
H324 H 0.48894 0.18785 0.5356 0.0
H325 H 0.52628 0.16709 0.53432 0.0
H326 H 0.49513 0.15729 0.55039 0.0
H327 H 0.56496 0.09273 0.6192 0.0
H328 H 0.65654 0.11 0.57901 0.0
H329 H 0.64732 0.10707 0.55284 0.0
H330 H 0.53129 0.08701 0.51821 0.0
H331 H 0.43752 0.06387 0.55828 0.0
H332 H 0.44588 0.06436 0.58453 0.0
H333 H 0.8042 0.12157 0.52352 0.0
H334 H 0.76603 0.13693 0.53 0.0
H335 H 0.80146 0.16702 0.5154 0.0
C336 C 0.67778 0.64999 0.79633 0.0
C337 C 0.68916 0.68621 0.80789 0.0
C338 C 0.66825 0.65769 0.83233 0.0
C339 C 0.64696 0.67991 0.83693 0.0
C340 C 0.61574 0.66246 0.84778 0.0
C341 C 0.60555 0.62189 0.85405 0.0
C342 C 0.62803 0.60015 0.84971 0.0
C343 C 0.65974 0.61884 0.83906 0.0
C344 C 0.59315 0.68701 0.85238 0.0
C345 C 0.6177 0.55659 0.85601 0.0
C346 C 0.29495 0.47957 0.81277 0.0
C347 C 0.32351 0.46385 0.82068 0.0
C348 C 0.36415 0.49044 0.84401 0.0
C349 C 0.39146 0.47222 0.84377 0.0
C350 C 0.43194 0.49197 0.85187 0.0
C351 C 0.44579 0.53144 0.86003 0.0
C352 C 0.41787 0.54955 0.8604 0.0
C353 C 0.37679 0.52806 0.85265 0.0
C354 C 0.46023 0.47107 0.85145 0.0
C355 C 0.43188 0.59226 0.86857 0.0
C356 C 0.41424 0.48107 0.95683 0.0
C357 C 0.43434 0.4611 0.94965 0.0
C358 C 0.47009 0.48564 0.94081 0.0
C359 C 0.48561 0.53095 0.93905 0.0
C360 C 0.46617 0.55139 0.94667 0.0
C361 C 0.43095 0.52616 0.95565 0.0
C362 C 0.49095 0.46308 0.93322 0.0
C363 C 0.482 0.59962 0.94507 0.0
C364 C 0.85164 0.7383 0.94264 0.0
C365 C 0.80834 0.73679 0.94538 0.0
C366 C 0.73365 0.67337 0.94409 0.0
C367 C 0.71116 0.6277 0.94234 0.0
C368 C 0.66733 0.60458 0.93675 0.0
C369 C 0.64526 0.62784 0.93321 0.0
C370 C 0.66703 0.67384 0.93581 0.0
C371 C 0.7112 0.69625 0.94112 0.0
C372 C 0.645 0.55546 0.93428 0.0
C373 C 0.6439 0.69941 0.93271 0.0
C374 C 0.56948 0.60082 0.86443 0.0
C375 C 0.52629 0.57782 0.85845 0.0
C376 C 0.49054 0.55512 0.86737 0.0
C377 C 0.49792 0.55516 0.88276 0.0
C378 C 0.46291 0.53157 0.89202 0.0
C379 C 0.47049 0.5323 0.90717 0.0
C380 C 0.51345 0.55617 0.91363 0.0
C381 C 0.52158 0.55665 0.929 0.0
C382 C 0.56464 0.58085 0.93506 0.0
C383 C 0.60022 0.60427 0.92614 0.0
C384 C 0.59285 0.60387 0.91073 0.0
C385 C 0.62799 0.62653 0.9014 0.0
C386 C 0.62041 0.62591 0.88626 0.0
C387 C 0.57747 0.60225 0.87983 0.0
C388 C 0.54153 0.57921 0.88901 0.0
C389 C 0.54927 0.57988 0.90447 0.0
C390 C 0.30749 0.43431 0.95399 0.0
C391 C 0.34023 0.42053 0.9596 0.0
O392 O 0.69717 0.67307 0.82145 0.0
O393 O 0.77691 0.69414 0.94856 0.0
O394 O 0.37865 0.45736 0.96495 0.0
O395 O 0.32617 0.47309 0.8356 0.0
H396 H 0.66023 0.691 0.80812 0.0
H397 H 0.64765 0.61937 0.79931 0.0
H398 H 0.70513 0.64299 0.79567 0.0
H399 H 0.67132 0.65991 0.78536 0.0
H400 H 0.65482 0.71088 0.83206 0.0
H401 H 0.67687 0.60233 0.83553 0.0
H402 H 0.55794 0.66834 0.8485 0.0
H403 H 0.6084 0.72043 0.84778 0.0
H404 H 0.59434 0.68993 0.86456 0.0
H405 H 0.63599 0.54255 0.85075 0.0
H406 H 0.58182 0.5327 0.85456 0.0
H407 H 0.62644 0.56082 0.86799 0.0
H408 H 0.35687 0.48288 0.81613 0.0
H409 H 0.29248 0.47258 0.80075 0.0
H410 H 0.31004 0.5156 0.81457 0.0
H411 H 0.26128 0.46309 0.81702 0.0
H412 H 0.38113 0.44261 0.83723 0.0
H413 H 0.35523 0.54169 0.85273 0.0
H414 H 0.47365 0.47061 0.86266 0.0
H415 H 0.48854 0.49075 0.84449 0.0
H416 H 0.44163 0.43693 0.84682 0.0
H417 H 0.40932 0.60504 0.86597 0.0
H418 H 0.46578 0.61755 0.86582 0.0
H419 H 0.43216 0.5872 0.88059 0.0
H420 H 0.34698 0.40499 0.95016 0.0
H421 H 0.42211 0.42637 0.95101 0.0
H422 H 0.41537 0.54124 0.96141 0.0
H423 H 0.48485 0.46265 0.92115 0.0
H424 H 0.47766 0.4287 0.93677 0.0
H425 H 0.52719 0.48157 0.93552 0.0
H426 H 0.46237 0.61024 0.95133 0.0
H427 H 0.48011 0.60684 0.93328 0.0
H428 H 0.51706 0.61936 0.94904 0.0
H429 H 0.79835 0.74681 0.93498 0.0
H430 H 0.87734 0.77209 0.93984 0.0
H431 H 0.84672 0.71575 0.93328 0.0
H432 H 0.86338 0.72798 0.95252 0.0
H433 H 0.72864 0.61035 0.94489 0.0
H434 H 0.72804 0.73151 0.94292 0.0
H435 H 0.63225 0.5466 0.92267 0.0
H436 H 0.6164 0.53891 0.94136 0.0
H437 H 0.66756 0.54264 0.93681 0.0
H438 H 0.66327 0.73374 0.93713 0.0
H439 H 0.6111 0.68298 0.93758 0.0
H440 H 0.63846 0.70029 0.92065 0.0
H441 H 0.52041 0.57721 0.84663 0.0
H442 H 0.42921 0.51229 0.88767 0.0
H443 H 0.44221 0.51379 0.91376 0.0
H444 H 0.57062 0.58095 0.94685 0.0
H445 H 0.66181 0.64504 0.90569 0.0
H446 H 0.64868 0.64414 0.87964 0.0
H447 H 0.29963 0.45022 0.96299 0.0
H448 H 0.27652 0.40526 0.94955 0.0
H449 H 0.32188 0.45803 0.94501 0.0
C450 C 0.05084 0.1732 0.0958 0.0
C451 C 0.01799 0.16206 0.08456 0.0
C452 C 0.05669 0.20245 0.10722 0.0
C453 C 0.02981 0.22134 0.10768 0.0
C454 C 0.99641 0.20956 0.09665 0.0
C455 C 0.99074 0.18051 0.08514 0.0
C456 C 0.03474 0.25199 0.11982 0.0
C457 C 0.07354 0.27845 0.12716 0.0
C458 C 0.07882 0.30819 0.13966 0.0
C459 C 0.12063 0.34476 0.14312 0.0
C460 C 0.12752 0.37215 0.15528 0.0
C461 C 0.09273 0.3633 0.16433 0.0
H462 H 0.01156 0.27084 0.1467 0.0
C463 C 0.05089 0.3267 0.16091 0.0
C464 C 0.04393 0.29944 0.1487 0.0
H465 H 0.02367 0.3187 0.16784 0.0
H466 H 0.07229 0.15945 0.09578 0.0
H467 H 0.08182 0.20956 0.11579 0.0
H468 H 0.9749 0.22322 0.09684 0.0
H469 H 0.96488 0.17244 0.07674 0.0
H470 H 0.00585 0.25394 0.12232 0.0
H471 H 0.10317 0.27953 0.12362 0.0
H472 H 0.14819 0.35201 0.13645 0.0
H473 H 0.16022 0.39986 0.15777 0.0
C474 C 0.91613 0.06822 0.42613 0.0
C475 C 0.95428 0.10699 0.42236 0.0
C476 C 0.88562 0.07005 0.43506 0.0
C477 C 0.89273 0.11077 0.44042 0.0
C478 C 0.92969 0.14944 0.43602 0.0
C479 C 0.96022 0.14763 0.42719 0.0
C480 C 0.86323 0.11464 0.4508 0.0
C481 C 0.83817 0.08275 0.46007 0.0
C482 C 0.81286 0.08796 0.47187 0.0
C483 C 0.79576 0.05576 0.48263 0.0
C484 C 0.77363 0.05994 0.49435 0.0
C485 C 0.76765 0.09627 0.49555 0.0
H486 H 0.8178 0.14943 0.46488 0.0
C487 C 0.78422 0.12834 0.48474 0.0
C488 C 0.80619 0.1241 0.47296 0.0
H489 H 0.78051 0.15696 0.48549 0.0
H490 H 0.91035 0.03638 0.4225 0.0
H491 H 0.85674 0.03952 0.43775 0.0
H492 H 0.93573 0.18127 0.4398 0.0
H493 H 0.98891 0.17821 0.42436 0.0
H494 H 0.86566 0.14645 0.45161 0.0
H495 H 0.8385 0.05214 0.45976 0.0
H496 H 0.80021 0.02755 0.48213 0.0
H497 H 0.76166 0.03498 0.50262 0.0
C498 C 0.94451 0.95647 0.76425 0.0
C499 C 0.95021 0.99826 0.76722 0.0
C500 C 0.9109 0.91909 0.77061 0.0
C501 C 0.88233 0.92271 0.78015 0.0
C502 C 0.88828 0.96445 0.78319 0.0
C503 C 0.92187 0.00177 0.77688 0.0
C504 C 0.84438 0.88377 0.78643 0.0
C505 C 0.84198 0.84466 0.78811 0.0
C506 C 0.80282 0.80554 0.79379 0.0
C507 C 0.80802 0.77224 0.80028 0.0
C508 C 0.77162 0.73421 0.80519 0.0
C509 C 0.72916 0.72862 0.80366 0.0
H510 H 0.75445 0.82378 0.78674 0.0
C511 C 0.72386 0.76171 0.79705 0.0
C512 C 0.76021 0.79974 0.79217 0.0
H513 H 0.69138 0.7578 0.79541 0.0
H514 H 0.96551 0.95244 0.7568 0.0
H515 H 0.90674 0.88744 0.76765 0.0
H516 H 0.86662 0.96822 0.79041 0.0
H517 H 0.92515 0.03332 0.77945 0.0
H518 H 0.81793 0.88816 0.7902 0.0
H519 H 0.87007 0.84125 0.78568 0.0
H520 H 0.84033 0.77554 0.80149 0.0
H521 H 0.77651 0.70882 0.80999 0.0
C522 C 0.09125 0.0091 0.09419 0.0
C523 C 0.04989 0.00415 0.09038 0.0
C524 C 0.09541 0.98278 0.10489 0.0
C525 C 0.05819 0.95126 0.11214 0.0
C526 C 0.01705 0.94691 0.10838 0.0
C527 C 0.01291 0.97295 0.09765 0.0
C528 C 0.05994 0.92115 0.12327 0.0
C529 C 0.09735 0.92565 0.12962 0.0
C530 C 0.09807 0.89512 0.14077 0.0
C531 C 0.13577 0.90987 0.15017 0.0
C532 C 0.13806 0.88244 0.16078 0.0
C533 C 0.1029 0.83932 0.16212 0.0
H534 H 0.0336 0.8385 0.13482 0.0
C535 C 0.06502 0.82443 0.15275 0.0
C536 C 0.06281 0.85179 0.14207 0.0
H537 H 0.03712 0.79156 0.15366 0.0
H538 H 0.12028 0.03265 0.08868 0.0
H539 H 0.12767 0.98687 0.10713 0.0
H540 H 0.98776 0.92296 0.11369 0.0
H541 H 0.98051 0.9683 0.09497 0.0
H542 H 0.02848 0.89477 0.12667 0.0
H543 H 0.12887 0.95373 0.12717 0.0
H544 H 0.16346 0.94296 0.14943 0.0
H545 H 0.16732 0.89503 0.16803 0.0
C546 C 0.08809 0.05712 0.44017 0.0
C547 C 0.09955 0.07052 0.42576 0.0
C548 C 0.12027 0.06179 0.45072 0.0
C549 C 0.16422 0.07894 0.44686 0.0
C550 C 0.17505 0.09066 0.43225 0.0
C551 C 0.14286 0.08599 0.42174 0.0
C552 C 0.19997 0.08752 0.4579 0.0
C553 C 0.1934 0.06466 0.47029 0.0
C554 C 0.22949 0.07475 0.48139 0.0
C555 C 0.22751 0.0409 0.49001 0.0
C556 C 0.261 0.04963 0.50062 0.0
C557 C 0.29694 0.09253 0.50288 0.0
H558 H 0.26675 0.14502 0.47783 0.0
C559 C 0.29828 0.12658 0.49452 0.0
C560 C 0.26499 0.11782 0.48387 0.0
H561 H 0.32503 0.16011 0.49628 0.0
H562 H 0.05452 0.04427 0.44336 0.0
H563 H 0.11083 0.0532 0.46192 0.0
H564 H 0.20861 0.10386 0.42899 0.0
H565 H 0.15187 0.09495 0.4105 0.0
H566 H 0.23319 0.11273 0.45544 0.0
H567 H 0.16113 0.03654 0.47209 0.0
H568 H 0.20016 0.00757 0.48845 0.0
H569 H 0.2588 0.02294 0.50711 0.0
C570 C 0.15148 0.15316 0.77919 0.0
C571 C 0.13769 0.15769 0.76496 0.0
C572 C 0.18544 0.18997 0.78691 0.0
C573 C 0.20661 0.23117 0.78024 0.0
C574 C 0.19454 0.23452 0.76564 0.0
C575 C 0.16019 0.19824 0.75812 0.0
C576 C 0.24012 0.27197 0.78813 0.0
C577 C 0.23787 0.2806 0.80238 0.0
C578 C 0.26372 0.32597 0.80876 0.0
C579 C 0.24468 0.33969 0.81925 0.0
C580 C 0.26487 0.38396 0.82366 0.0
C581 C 0.30468 0.4152 0.81774 0.0
H582 H 0.32159 0.3471 0.79599 0.0
C583 C 0.32517 0.40096 0.80801 0.0
C584 C 0.30513 0.35677 0.80367 0.0
H585 H 0.35612 0.42428 0.80342 0.0
H586 H 0.13498 0.12175 0.78448 0.0
H587 H 0.19476 0.18628 0.79807 0.0
H588 H 0.21051 0.26579 0.76023 0.0
H589 H 0.15062 0.20205 0.74699 0.0
H590 H 0.26307 0.29824 0.78136 0.0
H591 H 0.2119 0.25571 0.80877 0.0
H592 H 0.213 0.31657 0.82346 0.0
H593 H 0.24854 0.39411 0.83124 0.0
C594 C 0.94987 0.07702 0.70111 0.0
C595 C 0.95941 0.10204 0.71423 0.0
C596 C 0.92544 0.08164 0.68943 0.0
C597 C 0.91015 0.11147 0.69066 0.0
C598 C 0.91915 0.13585 0.70382 0.0
C599 C 0.94317 0.13105 0.71548 0.0
C600 C 0.88756 0.12073 0.67825 0.0
C601 C 0.86426 0.09212 0.66708 0.0
C602 C 0.84361 0.10318 0.65446 0.0
C603 C 0.83414 0.07925 0.64113 0.0
C604 C 0.81733 0.0904 0.62875 0.0
C605 C 0.8092 0.12546 0.62948 0.0
H606 H 0.83894 0.15561 0.66543 0.0
C607 C 0.81753 0.14868 0.6429 0.0
C608 C 0.83391 0.1373 0.6553 0.0
H609 H 0.81198 0.17613 0.64379 0.0
H610 H 0.96204 0.05455 0.69974 0.0
H611 H 0.9201 0.06303 0.67933 0.0
H612 H 0.90798 0.1592 0.70504 0.0
H613 H 0.94986 0.15104 0.72536 0.0
H614 H 0.89082 0.15299 0.67848 0.0
H615 H 0.86134 0.05997 0.66684 0.0
H616 H 0.84092 0.05261 0.64017 0.0
H617 H 0.81167 0.07231 0.61849 0.0
C618 C 0.91844 0.96694 0.02832 0.0
C619 C 0.96286 0.99826 0.02661 0.0
C620 C 0.8935 0.93718 0.0168 0.0
C621 C 0.91297 0.93822 0.00348 0.0
C622 C 0.95737 0.96985 0.00186 0.0
C623 C 0.98232 0.99901 0.01342 0.0
C624 C 0.88868 0.90646 0.99113 0.0
C625 C 0.85686 0.86461 0.99309 0.0
C626 C 0.83935 0.83118 0.9809 0.0
C627 C 0.82765 0.78775 0.984 0.0
C628 C 0.8161 0.75667 0.9726 0.0
C629 C 0.8151 0.76825 0.95788 0.0
H630 H 0.84403 0.87511 0.96346 0.0
C631 C 0.82472 0.81114 0.95483 0.0
C632 C 0.83648 0.84226 0.96622 0.0
H633 H 0.82426 0.82089 0.94358 0.0
H634 H 0.90326 0.96514 0.0386 0.0
H635 H 0.85914 0.91367 0.01832 0.0
H636 H 0.97316 0.97127 0.99174 0.0
H637 H 0.01687 0.02235 0.01206 0.0
H638 H 0.90119 0.91651 0.98026 0.0
H639 H 0.84742 0.85322 0.00415 0.0
H640 H 0.8294 0.77833 0.99522 0.0
H641 H 0.80924 0.72394 0.97525 0.0
C642 C 0.02983 0.96426 0.36021 0.0
C643 C 0.99459 0.96341 0.36722 0.0
C644 C 0.02266 0.92976 0.35078 0.0
C645 C 0.98002 0.89332 0.34825 0.0
C646 C 0.94457 0.89327 0.35482 0.0
C647 C 0.95176 0.92789 0.36426 0.0
C648 C 0.97148 0.85482 0.33895 0.0
C649 C 0.00201 0.843 0.3372 0.0
C650 C 0.99303 0.80251 0.32906 0.0
C651 C 0.01876 0.78352 0.33279 0.0
C652 C 0.01052 0.74459 0.32584 0.0
C653 C 0.97677 0.72411 0.31481 0.0
H654 H 0.94021 0.79695 0.31426 0.0
C655 C 0.95179 0.74373 0.31074 0.0
C656 C 0.95986 0.78262 0.31776 0.0
H657 H 0.92564 0.72863 0.30224 0.0
H658 H 0.06317 0.99149 0.36209 0.0
H659 H 0.05064 0.93193 0.34549 0.0
H660 H 0.91132 0.86587 0.35292 0.0
H661 H 0.92388 0.92645 0.36942 0.0
H662 H 0.9381 0.83382 0.33442 0.0
H663 H 0.03408 0.86173 0.34293 0.0
H664 H 0.04474 0.79832 0.34136 0.0
H665 H 0.03021 0.73014 0.32923 0.0
C666 C 0.11508 0.02928 0.70149 0.0
C667 C 0.115 0.06822 0.70474 0.0
C668 C 0.14338 0.02892 0.69116 0.0
C669 C 0.17193 0.06757 0.68386 0.0
C670 C 0.16977 0.10564 0.68655 0.0
C671 C 0.14194 0.1061 0.69693 0.0
C672 C 0.20594 0.0708 0.67394 0.0
C673 C 0.22381 0.0448 0.67467 0.0
C674 C 0.26432 0.05487 0.66701 0.0
C675 C 0.27278 0.02087 0.66383 0.0
C676 C 0.31257 0.03011 0.65788 0.0
C677 C 0.34484 0.07367 0.6551 0.0
H678 H 0.29236 0.12579 0.66693 0.0
C679 C 0.33627 0.10758 0.65824 0.0
C680 C 0.29659 0.09838 0.6641 0.0
H681 H 0.36088 0.14154 0.65653 0.0
H682 H 0.09439 0.99948 0.70727 0.0
H683 H 0.14304 0.99854 0.68909 0.0
H684 H 0.19102 0.13578 0.68101 0.0
H685 H 0.14235 0.13654 0.69908 0.0
H686 H 0.21949 0.0984 0.66663 0.0
H687 H 0.21017 0.01654 0.68169 0.0
H688 H 0.24884 0.98716 0.66617 0.0
H689 H 0.31862 0.00341 0.65578 0.0
C690 C 0.14634 0.18578 0.03102 0.0
C691 C 0.10197 0.17326 0.02783 0.0
C692 C 0.17941 0.21512 0.02199 0.0
C693 C 0.16844 0.23176 0.00951 0.0
C694 C 0.12431 0.21929 0.00638 0.0
C695 C 0.09158 0.19096 0.01552 0.0
C696 C 0.2015 0.26074 0.99911 0.0
C697 C 0.24275 0.29222 0.00327 0.0
C698 C 0.27207 0.32414 0.99255 0.0
C699 C 0.29765 0.36879 0.99666 0.0
C700 C 0.32103 0.4001 0.98618 0.0
C701 C 0.32015 0.38707 0.97149 0.0
H702 H 0.25379 0.27663 0.97458 0.0
C703 C 0.29617 0.34213 0.96758 0.0
C704 C 0.27252 0.31097 0.978 0.0
H705 H 0.29466 0.33122 0.95632 0.0
H706 H 0.15549 0.17276 0.04041 0.0
H707 H 0.21321 0.22375 0.02454 0.0
H708 H 0.11506 0.23167 0.99683 0.0
H709 H 0.05793 0.18234 0.01269 0.0
H710 H 0.18989 0.25879 0.98772 0.0
H711 H 0.25324 0.29771 0.01485 0.0
H712 H 0.29781 0.37968 0.00781 0.0
H713 H 0.33869 0.43455 0.98946 0.0
C714 C 0.06121 0.19868 0.36128 0.0
C715 C 0.03384 0.15363 0.36377 0.0
C716 C 0.05511 0.21728 0.34852 0.0
C717 C 0.02159 0.19115 0.33788 0.0
C718 C 0.99439 0.14618 0.34034 0.0
C719 C 0.00054 0.12755 0.35308 0.0
C720 C 0.01221 0.21002 0.3246 0.0
C721 C 0.0423 0.24771 0.3187 0.0
C722 C 0.03174 0.26809 0.30626 0.0
C723 C 0.07734 0.31564 0.29853 0.0
C724 C 0.06782 0.34586 0.28436 0.0
C725 C 0.00897 0.32994 0.28097 0.0
H726 H 0.94848 0.21799 0.30399 0.0
C727 C 0.9624 0.27491 0.28532 0.0
C728 C 0.97528 0.24692 0.29943 0.0
H729 H 0.92859 0.26501 0.28221 0.0
H730 H 0.08708 0.21983 0.36929 0.0
H731 H 0.07595 0.25231 0.34728 0.0
H732 H 0.96808 0.12537 0.3324 0.0
H733 H 0.97875 0.09275 0.35462 0.0
H734 H 0.97932 0.19154 0.31948 0.0
H735 H 0.07612 0.26486 0.3231 0.0
H736 H 0.11067 0.32659 0.30261 0.0
H737 H 0.0945 0.37638 0.28054 0.0
loop_
_geom_bond_atom_site_label_1
_geom_bond_atom_site_label_2
_geom_bond_distance
_geom_bond_site_symmetry_2
_ccdc_geom_bond_type
Mn0 O5 2.095 . S
Mn0 O15 2.162 . S
Mn0 O16 2.297 . S
Mn0 O24 2.385 . S
Mn0 O25 2.209 . S
Mn0 O26 2.094 . S
Mn1 O6 2.121 . S
Mn1 N8 2.257 1_455 S
Mn1 N17 2.280 1_455 S
Mn1 O25 2.215 . S
Mn1 O27 2.117 . S
C2 O24 1.234 . S
C2 O25 1.283 . S
C3 O15 1.281 . S
C3 O16 1.236 . S
C4 O26 1.240 . S
C4 O27 1.264 . S
O5 Mn0 2.095 . S
O5 C14 1.250 . S
O6 Mn1 2.121 . S
O6 C14 1.258 . S
C7 N8 1.326 . S
C7 C11 1.460 . S
C7 H13 0.929 . S
N8 Mn1 2.257 1_655 S
N8 C7 1.326 . S
N8 C12 1.362 . S
C9 C10 1.258 . S
C9 C12 1.431 . S
C9 C29 1.449 . S
C10 C9 1.258 . S
C10 C11 1.477 . S
C10 H30 0.931 . S
C11 C7 1.460 . S
C11 C10 1.477 . S
C11 H31 0.930 . S
C12 N8 1.362 . S
C12 C9 1.431 . S
C12 C22 1.476 . S
H13 C7 0.929 . S
C14 O5 1.250 . S
C14 O6 1.258 . S
O15 Mn0 2.162 . S
O15 C3 1.281 . S
O16 Mn0 2.297 . S
O16 C3 1.236 . S
N17 Mn1 2.280 1_655 S
N17 C18 1.313 1_655 S
N17 C22 1.336 . S
C18 N17 1.313 1_455 S
C18 C19 1.457 1_554 S
C18 H23 0.929 . S
C19 C18 1.457 1_556 S
C19 C20 1.291 1_455 S
C19 H32 0.931 . S
C20 C19 1.291 1_655 S
C20 C21 1.373 1_556 S
C20 H33 0.929 . S
C21 C20 1.373 1_554 S
C21 C22 1.396 . S
C21 C28 1.403 . S
C22 C12 1.476 . S
C22 N17 1.336 . S
C22 C21 1.396 . S
H23 C18 0.929 . S
O24 Mn0 2.385 . S
O24 C2 1.234 . S
O25 Mn0 2.209 . S
O25 Mn1 2.215 . S
O25 C2 1.283 . S
O26 Mn0 2.094 . S
O26 C4 1.240 . S
O27 Mn1 2.117 . S
O27 C4 1.264 . S
C28 C21 1.403 . S
C28 C29 1.399 . S
C28 H34 0.929 1_554 S
C29 C9 1.449 . S
C29 C28 1.399 . S
C29 H35 0.930 . S
H30 C10 0.931 . S
H31 C11 0.930 . S
H32 C19 0.931 . S
H33 C20 0.929 . S
H34 C28 0.929 1_556 S
H35 C29 0.930 . S
Mn36 O41 2.095 . S
Mn36 O51 2.162 1_445 S
Mn36 O52 2.297 . S
Mn36 O60 2.385 . S
Mn36 O61 2.209 . S
Mn36 O62 2.094 1_455 S
Mn37 O42 2.121 . S
Mn37 N44 2.257 . S
Mn37 N53 2.282 . S
Mn37 O61 2.215 . S
Mn37 O63 2.130 . S
C38 O60 1.234 . S
C38 O61 1.283 . S
C39 O51 1.281 1_455 S
C39 O52 1.236 1_565 S
C40 O62 1.240 . S
C40 O63 1.256 1_655 S
O41 Mn36 2.095 . S
O41 C50 1.250 . S
O42 Mn37 2.121 . S
O42 C50 1.258 . S
C43 N44 1.326 . S
C43 C47 1.460 . S
C43 H49 0.929 . S
N44 Mn37 2.257 . S
N44 C43 1.326 . S
N44 C48 1.362 . S
C45 C46 1.258 . S
C45 C48 1.431 . S
C45 C65 1.449 . S
C46 C45 1.258 . S
C46 C47 1.477 . S
C46 H66 0.931 . S
C47 C43 1.460 . S
C47 C46 1.477 . S
C47 H67 0.930 . S
C48 N44 1.362 . S
C48 C45 1.431 . S
C48 C58 1.476 . S
H49 C43 0.929 . S
C50 O41 1.250 . S
C50 O42 1.258 . S
O51 Mn36 2.162 1_665 S
O51 C39 1.281 1_655 S
O52 Mn36 2.297 . S
O52 C39 1.236 1_545 S
N53 Mn37 2.282 . S
N53 C54 1.328 . S
N53 C58 1.318 . S
C54 N53 1.328 . S
C54 C55 1.457 . S
C54 H59 0.929 . S
C55 C54 1.457 . S
C55 C56 1.291 . S
C55 H68 0.931 . S
C56 C55 1.291 . S
C56 C57 1.373 . S
C56 H69 0.929 . S
C57 C56 1.373 . S
C57 C58 1.396 . S
C57 C64 1.403 . S
C58 C48 1.476 . S
C58 N53 1.318 . S
C58 C57 1.396 . S
H59 C54 0.929 . S
O60 Mn36 2.385 . S
O60 C38 1.234 . S
O61 Mn36 2.209 . S
O61 Mn37 2.215 . S
O61 C38 1.283 . S
O62 Mn36 2.094 1_655 S
O62 C40 1.240 . S
O63 Mn37 2.130 . S
O63 C40 1.256 1_455 S
C64 C57 1.403 . S
C64 C65 1.399 . S
C64 H70 0.929 . S
C65 C45 1.449 . S
C65 C64 1.399 . S
C65 H71 0.930 . S
H66 C46 0.931 . S
H67 C47 0.930 . S
H68 C55 0.931 . S
H69 C56 0.929 . S
H70 C64 0.929 . S
H71 C65 0.930 . S
Mn72 O77 2.095 1_455 S
Mn72 O87 2.162 . S
Mn72 O88 2.297 . S
Mn72 O96 2.385 . S
Mn72 O97 2.209 . S
Mn72 O98 2.094 . S
Mn73 O78 2.121 . S
Mn73 N80 2.257 1_655 S
Mn73 N89 2.282 1_655 S
Mn73 O97 2.215 1_655 S
Mn73 O99 2.117 . S
C74 O96 1.234 . S
C74 O97 1.283 . S
C75 O87 1.281 . S
C75 O88 1.236 . S
C76 O98 1.240 1_655 S
C76 O99 1.264 . S
O77 Mn72 2.095 1_655 S
O77 C86 1.250 . S
O78 Mn73 2.121 . S
O78 C86 1.258 . S
C79 N80 1.326 . S
C79 C83 1.460 . S
C79 H85 0.929 . S
N80 Mn73 2.257 1_455 S
N80 C79 1.326 . S
N80 C84 1.362 . S
C81 C82 1.258 . S
C81 C84 1.431 . S
C81 C101 1.449 . S
C82 C81 1.258 . S
C82 C83 1.477 . S
C82 H102 0.931 . S
C83 C79 1.460 . S
C83 C82 1.477 . S
C83 H103 0.930 . S
C84 N80 1.362 . S
C84 C81 1.431 . S
C84 C94 1.476 . S
H85 C79 0.929 . S
C86 O77 1.250 . S
C86 O78 1.258 . S
O87 Mn72 2.162 . S
O87 C75 1.281 . S
O88 Mn72 2.297 . S
O88 C75 1.236 . S
N89 Mn73 2.282 1_455 S
N89 C90 1.328 . S
N89 C94 1.318 . S
C90 N89 1.328 . S
C90 C91 1.457 . S
C90 H95 0.929 . S
C91 C90 1.457 . S
C91 C92 1.291 . S
C91 H104 0.931 . S
C92 C91 1.291 . S
C92 C93 1.373 . S
C92 H105 0.929 . S
C93 C92 1.373 . S
C93 C94 1.396 . S
C93 C100 1.403 . S
C94 C84 1.476 . S
C94 N89 1.318 . S
C94 C93 1.396 . S
H95 C90 0.929 . S
O96 Mn72 2.385 . S
O96 C74 1.234 . S
O97 Mn72 2.209 . S
O97 Mn73 2.215 1_455 S
O97 C74 1.283 . S
O98 Mn72 2.094 . S
O98 C76 1.240 1_455 S
O99 Mn73 2.117 . S
O99 C76 1.264 . S
C100 C93 1.403 . S
C100 C101 1.399 . S
C100 H106 0.929 . S
C101 C81 1.449 . S
C101 C100 1.399 . S
C101 H107 0.930 . S
H102 C82 0.931 . S
H103 C83 0.930 . S
H104 C91 0.931 . S
H105 C92 0.929 . S
H106 C100 0.929 . S
H107 C101 0.930 . S
C108 C109 1.560 1_655 S
C108 H169 0.959 . S
C108 H170 0.959 . S
C108 H171 0.960 . S
C109 C108 1.560 1_455 S
C109 O164 1.426 1_455 S
C109 H168 0.980 . S
C110 C111 1.407 . S
C110 C115 1.418 1_455 S
C110 O164 1.334 1_455 S
C111 C110 1.407 . S
C111 C112 1.360 . S
C111 H172 0.929 . S
C112 C111 1.360 . S
C112 C113 1.401 . S
C112 C116 1.527 . S
C113 C112 1.401 . S
C113 C114 1.405 1_455 S
C113 C146 1.587 . S
C114 C113 1.405 1_655 S
C114 C115 1.332 . S
C114 C117 1.496 . S
C115 C110 1.418 1_655 S
C115 C114 1.332 . S
C115 H173 0.929 . S
C116 C112 1.527 . S
C116 H174 0.959 . S
C116 H175 0.961 . S
C116 H176 0.961 . S
C117 C114 1.496 . S
C117 H177 0.960 . S
C117 H178 0.960 . S
C117 H179 0.961 . S
C118 C119 1.517 . S
C118 H181 0.961 . S
C118 H182 0.960 . S
C118 H183 0.959 . S
C119 C118 1.517 . S
C119 O167 1.468 . S
C119 H180 0.980 . S
C120 C121 1.349 . S
C120 C125 1.367 . S
C120 O167 1.408 . S
C121 C120 1.349 . S
C121 C122 1.407 . S
C121 H184 0.930 . S
C122 C121 1.407 . S
C122 C123 1.449 . S
C122 C126 1.535 1_455 S
C123 C122 1.449 . S
C123 C124 1.384 . S
C123 C148 1.553 . S
C124 C123 1.384 . S
C124 C125 1.364 . S
C124 C127 1.450 . S
C125 C120 1.367 . S
C125 C124 1.364 . S
C125 H185 0.931 . S
C126 C122 1.535 1_655 S
C126 H186 0.959 . S
C126 H187 0.961 . S
C126 H188 0.959 . S
C127 C124 1.450 . S
C127 H189 0.960 . S
C127 H190 0.960 . S
C127 H191 0.960 . S
C128 C129 1.309 . S
C128 C133 1.304 . S
C128 O166 1.435 . S
C129 C128 1.309 . S
C129 C130 1.476 . S
C129 H193 0.930 . S
C130 C129 1.476 . S
C130 C131 1.400 . S
C130 C134 1.567 1_455 S
C131 C130 1.400 . S
C131 C132 1.373 . S
C131 C153 1.432 . S
C132 C131 1.373 . S
C132 C133 1.339 . S
C132 C135 1.530 . S
C133 C128 1.304 . S
C133 C132 1.339 . S
C133 H194 0.930 . S
C134 C130 1.567 1_655 S
C134 H195 0.961 . S
C134 H196 0.960 . S
C134 H197 0.958 . S
C135 C132 1.530 . S
C135 H198 0.961 . S
C135 H199 0.960 . S
C135 H200 0.960 . S
C136 C137 1.530 . S
C136 H202 0.961 . S
C136 H203 0.961 1_455 S
C136 H204 0.959 1_455 S
C137 C136 1.530 . S
C137 O165 1.412 . S
C137 H201 0.980 . S
C138 C139 1.288 1_455 S
C138 C143 1.377 . S
C138 O165 1.393 . S
C139 C138 1.288 1_655 S
C139 C140 1.366 1_655 S
C139 H205 0.932 . S
C140 C139 1.366 1_455 S
C140 C141 1.403 . S
C140 C144 1.525 1_455 S
C141 C140 1.403 . S
C141 C142 1.380 . S
C141 C155 1.497 . S
C142 C141 1.380 . S
C142 C143 1.383 . S
C142 C145 1.603 . S
C143 C138 1.377 . S
C143 C142 1.383 . S
C143 H206 0.929 . S
C144 C140 1.525 1_655 S
C144 H207 0.961 . S
C144 H208 0.959 . S
C144 H209 0.959 . S
C145 C142 1.603 . S
C145 H210 0.960 . S
C145 H211 0.962 . S
C145 H212 0.961 . S
C146 C113 1.587 . S
C146 C147 1.360 . S
C146 C159 1.412 . S
C147 C146 1.360 . S
C147 C148 1.365 . S
C147 H213 0.929 . S
C148 C123 1.553 . S
C148 C147 1.365 . S
C148 C149 1.404 . S
C149 C148 1.404 . S
C149 C150 1.395 . S
C149 C160 1.451 . S
C150 C149 1.395 . S
C150 C151 1.322 . S
C150 H214 0.930 . S
C151 C150 1.322 . S
C151 C152 1.459 . S
C151 H215 0.929 . S
C152 C151 1.459 . S
C152 C153 1.445 . S
C152 C161 1.395 . S
C153 C131 1.432 . S
C153 C152 1.445 . S
C153 C154 1.370 . S
C154 C153 1.370 . S
C154 C155 1.438 . S
C154 H216 0.930 . S
C155 C141 1.497 . S
C155 C154 1.438 . S
C155 C156 1.360 . S
C156 C155 1.360 . S
C156 C157 1.401 . S
C156 C161 1.446 . S
C157 C156 1.401 . S
C157 C158 1.347 . S
C157 H217 0.929 . S
C158 C157 1.347 . S
C158 C159 1.455 . S
C158 H218 0.930 . S
C159 C146 1.412 . S
C159 C158 1.455 . S
C159 C160 1.331 . S
C160 C149 1.451 . S
C160 C159 1.331 . S
C160 C161 1.497 . S
C161 C152 1.395 . S
C161 C156 1.446 . S
C161 C160 1.497 . S
C162 C163 1.582 . S
C162 H219 0.962 . S
C162 H220 0.959 . S
C162 H221 0.958 . S
C163 C162 1.582 . S
C163 O166 1.458 . S
C163 H192 0.980 . S
O164 C109 1.426 1_655 S
O164 C110 1.334 1_655 S
O165 C137 1.412 . S
O165 C138 1.393 . S
O166 C128 1.435 . S
O166 C163 1.458 . S
O167 C119 1.468 . S
O167 C120 1.408 . S
H168 C109 0.980 . S
H169 C108 0.959 . S
H170 C108 0.959 . S
H171 C108 0.960 . S
H172 C111 0.929 . S
H173 C115 0.929 . S
H174 C116 0.959 . S
H175 C116 0.961 . S
H176 C116 0.961 . S
H177 C117 0.960 . S
H178 C117 0.960 . S
H179 C117 0.961 . S
H180 C119 0.980 . S
H181 C118 0.961 . S
H182 C118 0.960 . S
H183 C118 0.959 . S
H184 C121 0.930 . S
H185 C125 0.931 . S
H186 C126 0.959 . S
H187 C126 0.961 . S
H188 C126 0.959 . S
H189 C127 0.960 . S
H190 C127 0.960 . S
H191 C127 0.960 . S
H192 C163 0.980 . S
H193 C129 0.930 . S
H194 C133 0.930 . S
H195 C134 0.961 . S
H196 C134 0.960 . S
H197 C134 0.958 . S
H198 C135 0.961 . S
H199 C135 0.960 . S
H200 C135 0.960 . S
H201 C137 0.980 . S
H202 C136 0.961 . S
H203 C136 0.961 1_655 S
H204 C136 0.959 1_655 S
H205 C139 0.932 . S
H206 C143 0.929 . S
H207 C144 0.961 . S
H208 C144 0.959 . S
H209 C144 0.959 . S
H210 C145 0.960 . S
H211 C145 0.962 . S
H212 C145 0.961 . S
H213 C147 0.929 . S
H214 C150 0.930 . S
H215 C151 0.929 . S
H216 C154 0.930 . S
H217 C157 0.929 . S
H218 C158 0.930 . S
H219 C162 0.962 . S
H220 C162 0.959 . S
H221 C162 0.958 . S
C222 C223 1.560 . S
C222 H283 0.959 . S
C222 H284 0.959 . S
C222 H285 0.960 . S
C223 C222 1.560 . S
C223 O278 1.426 . S
C223 H282 0.980 . S
C224 C225 1.407 . S
C224 C229 1.418 . S
C224 O278 1.334 . S
C225 C224 1.407 . S
C225 C226 1.360 . S
C225 H286 0.929 . S
C226 C225 1.360 . S
C226 C227 1.401 . S
C226 C230 1.527 . S
C227 C226 1.401 . S
C227 C228 1.405 . S
C227 C260 1.587 . S
C228 C227 1.405 . S
C228 C229 1.332 . S
C228 C231 1.496 . S
C229 C224 1.418 . S
C229 C228 1.332 . S
C229 H287 0.929 . S
C230 C226 1.527 . S
C230 H288 0.959 . S
C230 H289 0.961 . S
C230 H290 0.961 . S
C231 C228 1.496 . S
C231 H291 0.960 1_545 S
C231 H292 0.960 . S
C231 H293 0.961 . S
C232 C233 1.517 . S
C232 H295 0.961 . S
C232 H296 0.960 . S
C232 H297 0.959 . S
C233 C232 1.517 . S
C233 O281 1.468 . S
C233 H294 0.980 . S
C234 C235 1.349 . S
C234 C239 1.367 . S
C234 O281 1.408 . S
C235 C234 1.349 . S
C235 C236 1.407 . S
C235 H298 0.930 . S
C236 C235 1.407 . S
C236 C237 1.449 . S
C236 C240 1.535 . S
C237 C236 1.449 . S
C237 C238 1.384 . S
C237 C262 1.553 . S
C238 C237 1.384 . S
C238 C239 1.364 . S
C238 C241 1.450 . S
C239 C234 1.367 . S
C239 C238 1.364 . S
C239 H299 0.931 . S
C240 C236 1.535 . S
C240 H300 0.959 . S
C240 H301 0.961 . S
C240 H302 0.959 . S
C241 C238 1.450 . S
C241 H303 0.960 . S
C241 H304 0.960 . S
C241 H305 0.960 . S
C242 C243 1.309 . S
C242 C247 1.304 . S
C242 O280 1.435 . S
C243 C242 1.309 . S
C243 C244 1.476 . S
C243 H307 0.930 . S
C244 C243 1.476 . S
C244 C245 1.400 . S
C244 C248 1.567 . S
C245 C244 1.400 . S
C245 C246 1.373 . S
C245 C267 1.432 . S
C246 C245 1.373 . S
C246 C247 1.339 . S
C246 C249 1.530 . S
C247 C242 1.304 . S
C247 C246 1.339 . S
C247 H308 0.930 . S
C248 C244 1.567 . S
C248 H309 0.961 . S
C248 H310 0.960 . S
C248 H311 0.958 . S
C249 C246 1.530 . S
C249 H312 0.961 . S
C249 H313 0.960 . S
C249 H314 0.960 . S
C250 C251 1.530 . S
C250 H316 0.961 . S
C250 H317 0.961 . S
C250 H318 0.959 . S
C251 C250 1.530 . S
C251 O279 1.412 . S
C251 H315 0.980 . S
C252 C253 1.288 . S
C252 C257 1.377 . S
C252 O279 1.393 . S
C253 C252 1.288 . S
C253 C254 1.369 . S
C253 H319 0.932 . S
C254 C253 1.369 . S
C254 C255 1.398 . S
C254 C258 1.527 . S
C255 C254 1.398 . S
C255 C256 1.380 . S
C255 C269 1.497 . S
C256 C255 1.380 . S
C256 C257 1.383 . S
C256 C259 1.603 . S
C257 C252 1.377 . S
C257 C256 1.383 . S
C257 H320 0.929 . S
C258 C254 1.527 . S
C258 H321 0.961 . S
C258 H322 0.959 . S
C258 H323 0.959 1_545 S
C259 C256 1.603 . S
C259 H324 0.960 . S
C259 H325 0.962 . S
C259 H326 0.961 . S
C260 C227 1.587 . S
C260 C261 1.360 . S
C260 C273 1.412 . S
C261 C260 1.360 . S
C261 C262 1.365 . S
C261 H327 0.929 . S
C262 C237 1.553 . S
C262 C261 1.365 . S
C262 C263 1.404 . S
C263 C262 1.404 . S
C263 C264 1.395 . S
C263 C274 1.451 . S
C264 C263 1.395 . S
C264 C265 1.322 . S
C264 H328 0.930 . S
C265 C264 1.322 . S
C265 C266 1.459 . S
C265 H329 0.929 . S
C266 C265 1.459 . S
C266 C267 1.445 . S
C266 C275 1.395 . S
C267 C245 1.432 . S
C267 C266 1.445 . S
C267 C268 1.370 . S
C268 C267 1.370 . S
C268 C269 1.438 . S
C268 H330 0.930 . S
C269 C255 1.497 . S
C269 C268 1.438 . S
C269 C270 1.360 . S
C270 C269 1.360 . S
C270 C271 1.401 . S
C270 C275 1.446 . S
C271 C270 1.401 . S
C271 C272 1.347 . S
C271 H331 0.929 . S
C272 C271 1.347 . S
C272 C273 1.455 . S
C272 H332 0.930 . S
C273 C260 1.412 . S
C273 C272 1.455 . S
C273 C274 1.331 . S
C274 C263 1.451 . S
C274 C273 1.331 . S
C274 C275 1.497 . S
C275 C266 1.395 . S
C275 C270 1.446 . S
C275 C274 1.497 . S
C276 C277 1.582 . S
C276 H333 0.962 . S
C276 H334 0.959 . S
C276 H335 0.958 . S
C277 C276 1.582 . S
C277 O280 1.458 . S
C277 H306 0.980 . S
O278 C223 1.426 . S
O278 C224 1.334 . S
O279 C251 1.412 . S
O279 C252 1.393 . S
O280 C242 1.435 . S
O280 C277 1.458 . S
O281 C233 1.468 . S
O281 C234 1.408 . S
H282 C223 0.980 . S
H283 C222 0.959 . S
H284 C222 0.959 . S
H285 C222 0.960 . S
H286 C225 0.929 . S
H287 C229 0.929 . S
H288 C230 0.959 . S
H289 C230 0.961 . S
H290 C230 0.961 . S
H291 C231 0.960 1_565 S
H292 C231 0.960 . S
H293 C231 0.961 . S
H294 C233 0.980 . S
H295 C232 0.961 . S
H296 C232 0.960 . S
H297 C232 0.959 . S
H298 C235 0.930 . S
H299 C239 0.931 . S
H300 C240 0.959 . S
H301 C240 0.961 . S
H302 C240 0.959 . S
H303 C241 0.960 . S
H304 C241 0.960 . S
H305 C241 0.960 . S
H306 C277 0.980 . S
H307 C243 0.930 . S
H308 C247 0.930 . S
H309 C248 0.961 . S
H310 C248 0.960 . S
H311 C248 0.958 . S
H312 C249 0.961 . S
H313 C249 0.960 . S
H314 C249 0.960 . S
H315 C251 0.980 . S
H316 C250 0.961 . S
H317 C250 0.961 . S
H318 C250 0.959 . S
H319 C253 0.932 . S
H320 C257 0.929 . S
H321 C258 0.961 . S
H322 C258 0.959 . S
H323 C258 0.959 1_565 S
H324 C259 0.960 . S
H325 C259 0.962 . S
H326 C259 0.961 . S
H327 C261 0.929 . S
H328 C264 0.930 . S
H329 C265 0.929 . S
H330 C268 0.930 . S
H331 C271 0.929 . S
H332 C272 0.930 . S
H333 C276 0.962 . S
H334 C276 0.959 . S
H335 C276 0.958 . S
C336 C337 1.560 . S
C336 H397 0.959 . S
C336 H398 0.959 . S
C336 H399 0.960 . S
C337 C336 1.560 . S
C337 O392 1.426 . S
C337 H396 0.980 . S
C338 C339 1.407 . S
C338 C343 1.418 . S
C338 O392 1.334 . S
C339 C338 1.407 . S
C339 C340 1.360 . S
C339 H400 0.929 . S
C340 C339 1.360 . S
C340 C341 1.401 . S
C340 C344 1.527 . S
C341 C340 1.401 . S
C341 C342 1.405 . S
C341 C374 1.587 . S
C342 C341 1.405 . S
C342 C343 1.332 . S
C342 C345 1.496 . S
C343 C338 1.418 . S
C343 C342 1.332 . S
C343 H401 0.929 . S
C344 C340 1.527 . S
C344 H402 0.959 . S
C344 H403 0.961 . S
C344 H404 0.961 . S
C345 C342 1.496 . S
C345 H405 0.960 . S
C345 H406 0.960 . S
C345 H407 0.961 . S
C346 C347 1.517 . S
C346 H409 0.961 . S
C346 H410 0.960 . S
C346 H411 0.959 . S
C347 C346 1.517 . S
C347 O395 1.468 . S
C347 H408 0.980 . S
C348 C349 1.349 . S
C348 C353 1.367 . S
C348 O395 1.408 . S
C349 C348 1.349 . S
C349 C350 1.407 . S
C349 H412 0.930 . S
C350 C349 1.407 . S
C350 C351 1.449 . S
C350 C354 1.535 . S
C351 C350 1.449 . S
C351 C352 1.384 . S
C351 C376 1.553 . S
C352 C351 1.384 . S
C352 C353 1.364 . S
C352 C355 1.450 . S
C353 C348 1.367 . S
C353 C352 1.364 . S
C353 H413 0.931 . S
C354 C350 1.535 . S
C354 H414 0.959 . S
C354 H415 0.961 . S
C354 H416 0.959 . S
C355 C352 1.450 . S
C355 H417 0.960 . S
C355 H418 0.960 . S
C355 H419 0.960 . S
C356 C357 1.309 . S
C356 C361 1.304 . S
C356 O394 1.435 . S
C357 C356 1.309 . S
C357 C358 1.476 . S
C357 H421 0.930 . S
C358 C357 1.476 . S
C358 C359 1.400 . S
C358 C362 1.567 . S
C359 C358 1.400 . S
C359 C360 1.373 . S
C359 C381 1.432 . S
C360 C359 1.373 . S
C360 C361 1.339 . S
C360 C363 1.530 . S
C361 C356 1.304 . S
C361 C360 1.339 . S
C361 H422 0.930 . S
C362 C358 1.567 . S
C362 H423 0.961 . S
C362 H424 0.960 . S
C362 H425 0.958 . S
C363 C360 1.530 . S
C363 H426 0.961 . S
C363 H427 0.960 . S
C363 H428 0.960 . S
C364 C365 1.530 . S
C364 H430 0.961 . S
C364 H431 0.961 . S
C364 H432 0.959 . S
C365 C364 1.530 . S
C365 O393 1.412 . S
C365 H429 0.980 . S
C366 C367 1.288 . S
C366 C371 1.377 . S
C366 O393 1.393 . S
C367 C366 1.288 . S
C367 C368 1.369 . S
C367 H433 0.932 . S
C368 C367 1.369 . S
C368 C369 1.398 . S
C368 C372 1.527 . S
C369 C368 1.398 . S
C369 C370 1.380 . S
C369 C383 1.497 . S
C370 C369 1.380 . S
C370 C371 1.383 . S
C370 C373 1.603 . S
C371 C366 1.377 . S
C371 C370 1.383 . S
C371 H434 0.929 . S
C372 C368 1.527 . S
C372 H435 0.961 . S
C372 H436 0.959 . S
C372 H437 0.959 . S
C373 C370 1.603 . S
C373 H438 0.960 . S
C373 H439 0.962 . S
C373 H440 0.961 . S
C374 C341 1.587 . S
C374 C375 1.360 . S
C374 C387 1.412 . S
C375 C374 1.360 . S
C375 C376 1.365 . S
C375 H441 0.929 . S
C376 C351 1.553 . S
C376 C375 1.365 . S
C376 C377 1.404 . S
C377 C376 1.404 . S
C377 C378 1.395 . S
C377 C388 1.451 . S
C378 C377 1.395 . S
C378 C379 1.322 . S
C378 H442 0.930 . S
C379 C378 1.322 . S
C379 C380 1.459 . S
C379 H443 0.929 . S
C380 C379 1.459 . S
C380 C381 1.445 . S
C380 C389 1.395 . S
C381 C359 1.432 . S
C381 C380 1.445 . S
C381 C382 1.370 . S
C382 C381 1.370 . S
C382 C383 1.438 . S
C382 H444 0.930 . S
C383 C369 1.497 . S
C383 C382 1.438 . S
C383 C384 1.360 . S
C384 C383 1.360 . S
C384 C385 1.401 . S
C384 C389 1.446 . S
C385 C384 1.401 . S
C385 C386 1.347 . S
C385 H445 0.929 . S
C386 C385 1.347 . S
C386 C387 1.455 . S
C386 H446 0.930 . S
C387 C374 1.412 . S
C387 C386 1.455 . S
C387 C388 1.331 . S
C388 C377 1.451 . S
C388 C387 1.331 . S
C388 C389 1.497 . S
C389 C380 1.395 . S
C389 C384 1.446 . S
C389 C388 1.497 . S
C390 C391 1.582 . S
C390 H447 0.962 . S
C390 H448 0.959 . S
C390 H449 0.958 . S
C391 C390 1.582 . S
C391 O394 1.458 . S
C391 H420 0.980 . S
O392 C337 1.426 . S
O392 C338 1.334 . S
O393 C365 1.412 . S
O393 C366 1.393 . S
O394 C356 1.435 . S
O394 C391 1.458 . S
O395 C347 1.468 . S
O395 C348 1.408 . S
H396 C337 0.980 . S
H397 C336 0.959 . S
H398 C336 0.959 . S
H399 C336 0.960 . S
H400 C339 0.929 . S
H401 C343 0.929 . S
H402 C344 0.959 . S
H403 C344 0.961 . S
H404 C344 0.961 . S
H405 C345 0.960 . S
H406 C345 0.960 . S
H407 C345 0.961 . S
H408 C347 0.980 . S
H409 C346 0.961 . S
H410 C346 0.960 . S
H411 C346 0.959 . S
H412 C349 0.930 . S
H413 C353 0.931 . S
H414 C354 0.959 . S
H415 C354 0.961 . S
H416 C354 0.959 . S
H417 C355 0.960 . S
H418 C355 0.960 . S
H419 C355 0.960 . S
H420 C391 0.980 . S
H421 C357 0.930 . S
H422 C361 0.930 . S
H423 C362 0.961 . S
H424 C362 0.960 . S
H425 C362 0.958 . S
H426 C363 0.961 . S
H427 C363 0.960 . S
H428 C363 0.960 . S
H429 C365 0.980 . S
H430 C364 0.961 . S
H431 C364 0.961 . S
H432 C364 0.959 . S
H433 C367 0.932 . S
H434 C371 0.929 . S
H435 C372 0.961 . S
H436 C372 0.959 . S
H437 C372 0.959 . S
H438 C373 0.960 . S
H439 C373 0.962 . S
H440 C373 0.961 . S
H441 C375 0.929 . S
H442 C378 0.930 . S
H443 C379 0.929 . S
H444 C382 0.930 . S
H445 C385 0.929 . S
H446 C386 0.930 . S
H447 C390 0.962 . S
H448 C390 0.959 . S
H449 C390 0.958 . S
C450 C451 1.386 . S
C450 C452 1.383 . S
C450 H466 0.951 . S
C451 C450 1.386 . S
C451 C455 1.383 . S
C452 C450 1.383 . S
C452 C453 1.402 . S
C452 H467 0.951 . S
C453 C452 1.402 . S
C453 C454 1.375 . S
C453 C456 1.481 . S
C454 C453 1.375 . S
C454 C455 1.367 . S
C454 H468 0.951 1_455 S
C455 C451 1.383 . S
C455 C454 1.367 . S
C455 H469 0.950 1_455 S
C456 C453 1.481 . S
C456 C457 1.297 . S
C456 H470 0.950 . S
C457 C456 1.297 . S
C457 C458 1.479 . S
C457 H471 0.950 . S
C458 C457 1.479 . S
C458 C459 1.375 . S
C458 C464 1.404 . S
C459 C458 1.375 . S
C459 C460 1.369 . S
C459 H472 0.950 . S
C460 C459 1.369 . S
C460 C461 1.392 . S
C460 H473 0.951 . S
C461 C460 1.392 . S
C461 C463 1.384 . S
H462 C464 0.949 1_655 S
C463 C461 1.384 . S
C463 C464 1.385 . S
C463 H465 0.950 1_455 S
C464 C458 1.404 . S
C464 H462 0.949 1_455 S
C464 C463 1.385 . S
H465 C463 0.950 1_655 S
H466 C450 0.951 . S
H467 C452 0.951 . S
H468 C454 0.951 1_655 S
H469 C455 0.950 1_655 S
H470 C456 0.950 . S
H471 C457 0.950 . S
H472 C459 0.950 . S
H473 C460 0.951 . S
C474 C475 1.386 . S
C474 C476 1.383 . S
C474 H490 0.951 . S
C475 C474 1.386 . S
C475 C479 1.383 . S
C476 C474 1.383 . S
C476 C477 1.402 . S
C476 H491 0.951 . S
C477 C476 1.402 . S
C477 C478 1.375 . S
C477 C480 1.481 . S
C478 C477 1.375 . S
C478 C479 1.367 . S
C478 H492 0.951 . S
C479 C475 1.383 . S
C479 C478 1.367 . S
C479 H493 0.950 . S
C480 C477 1.481 . S
C480 C481 1.297 . S
C480 H494 0.950 . S
C481 C480 1.297 . S
C481 C482 1.479 . S
C481 H495 0.950 . S
C482 C481 1.479 . S
C482 C483 1.375 . S
C482 C488 1.404 . S
C483 C482 1.375 . S
C483 C484 1.369 . S
C483 H496 0.950 . S
C484 C483 1.369 . S
C484 C485 1.392 . S
C484 H497 0.951 . S
C485 C484 1.392 . S
C485 C487 1.384 . S
H486 C488 0.949 . S
C487 C485 1.384 . S
C487 C488 1.385 . S
C487 H489 0.950 . S
C488 C482 1.404 . S
C488 H486 0.949 . S
C488 C487 1.385 . S
H489 C487 0.950 . S
H490 C474 0.951 . S
H491 C476 0.951 . S
H492 C478 0.951 . S
H493 C479 0.950 . S
H494 C480 0.950 . S
H495 C481 0.950 . S
H496 C483 0.950 . S
H497 C484 0.951 . S
C498 C499 1.386 . S
C498 C500 1.383 . S
C498 H514 0.951 . S
C499 C498 1.386 . S
C499 C503 1.383 . S
C500 C498 1.383 . S
C500 C501 1.402 . S
C500 H515 0.951 . S
C501 C500 1.402 . S
C501 C502 1.375 . S
C501 C504 1.481 . S
C502 C501 1.375 . S
C502 C503 1.367 . S
C502 H516 0.951 . S
C503 C499 1.383 . S
C503 C502 1.367 . S
C503 H517 0.950 1_565 S
C504 C501 1.481 . S
C504 C505 1.297 . S
C504 H518 0.950 . S
C505 C504 1.297 . S
C505 C506 1.479 . S
C505 H519 0.950 . S
C506 C505 1.479 . S
C506 C507 1.375 . S
C506 C512 1.404 . S
C507 C506 1.375 . S
C507 C508 1.369 . S
C507 H520 0.950 . S
C508 C507 1.369 . S
C508 C509 1.392 . S
C508 H521 0.951 . S
C509 C508 1.392 . S
C509 C511 1.384 . S
H510 C512 0.949 . S
C511 C509 1.384 . S
C511 C512 1.385 . S
C511 H513 0.950 . S
C512 C506 1.404 . S
C512 H510 0.949 . S
C512 C511 1.385 . S
H513 C511 0.950 . S
H514 C498 0.951 . S
H515 C500 0.951 . S
H516 C502 0.951 . S
H517 C503 0.950 1_545 S
H518 C504 0.950 . S
H519 C505 0.950 . S
H520 C507 0.950 . S
H521 C508 0.951 . S
C522 C523 1.386 . S
C522 C524 1.383 . S
C522 H538 0.951 1_565 S
C523 C522 1.386 . S
C523 C527 1.383 . S
C524 C522 1.383 . S
C524 C525 1.402 . S
C524 H539 0.951 . S
C525 C524 1.402 . S
C525 C526 1.375 . S
C525 C528 1.481 . S
C526 C525 1.375 . S
C526 C527 1.367 . S
C526 H540 0.951 . S
C527 C523 1.383 . S
C527 C526 1.367 . S
C527 H541 0.950 . S
C528 C525 1.481 . S
C528 C529 1.297 . S
C528 H542 0.950 . S
C529 C528 1.297 . S
C529 C530 1.479 . S
C529 H543 0.950 . S
C530 C529 1.479 . S
C530 C531 1.375 . S
C530 C536 1.404 . S
C531 C530 1.375 . S
C531 C532 1.369 . S
C531 H544 0.950 . S
C532 C531 1.369 . S
C532 C533 1.392 . S
C532 H545 0.951 . S
C533 C532 1.392 . S
C533 C535 1.384 . S
H534 C536 0.949 . S
C535 C533 1.384 . S
C535 C536 1.385 . S
C535 H537 0.950 . S
C536 C530 1.404 . S
C536 H534 0.949 . S
C536 C535 1.385 . S
H537 C535 0.950 . S
H538 C522 0.951 1_545 S
H539 C524 0.951 . S
H540 C526 0.951 . S
H541 C527 0.950 . S
H542 C528 0.950 . S
H543 C529 0.950 . S
H544 C531 0.950 . S
H545 C532 0.951 . S
C546 C547 1.386 . S
C546 C548 1.383 . S
C546 H562 0.951 . S
C547 C546 1.386 . S
C547 C551 1.383 . S
C548 C546 1.383 . S
C548 C549 1.402 . S
C548 H563 0.951 . S
C549 C548 1.402 . S
C549 C550 1.375 . S
C549 C552 1.481 . S
C550 C549 1.375 . S
C550 C551 1.367 . S
C550 H564 0.951 . S
C551 C547 1.383 . S
C551 C550 1.367 . S
C551 H565 0.950 . S
C552 C549 1.481 . S
C552 C553 1.297 . S
C552 H566 0.950 . S
C553 C552 1.297 . S
C553 C554 1.479 . S
C553 H567 0.950 . S
C554 C553 1.479 . S
C554 C555 1.375 . S
C554 C560 1.404 . S
C555 C554 1.375 . S
C555 C556 1.369 . S
C555 H568 0.950 . S
C556 C555 1.369 . S
C556 C557 1.392 . S
C556 H569 0.951 . S
C557 C556 1.392 . S
C557 C559 1.384 . S
H558 C560 0.949 . S
C559 C557 1.384 . S
C559 C560 1.385 . S
C559 H561 0.950 . S
C560 C554 1.404 . S
C560 H558 0.949 . S
C560 C559 1.385 . S
H561 C559 0.950 . S
H562 C546 0.951 . S
H563 C548 0.951 . S
H564 C550 0.951 . S
H565 C551 0.950 . S
H566 C552 0.950 . S
H567 C553 0.950 . S
H568 C555 0.950 . S
H569 C556 0.951 . S
C570 C571 1.386 . S
C570 C572 1.383 . S
C570 H586 0.951 . S
C571 C570 1.386 . S
C571 C575 1.383 . S
C572 C570 1.383 . S
C572 C573 1.402 . S
C572 H587 0.951 . S
C573 C572 1.402 . S
C573 C574 1.375 . S
C573 C576 1.481 . S
C574 C573 1.375 . S
C574 C575 1.367 . S
C574 H588 0.951 . S
C575 C571 1.383 . S
C575 C574 1.367 . S
C575 H589 0.950 . S
C576 C573 1.481 . S
C576 C577 1.297 . S
C576 H590 0.950 . S
C577 C576 1.297 . S
C577 C578 1.479 . S
C577 H591 0.950 . S
C578 C577 1.479 . S
C578 C579 1.375 . S
C578 C584 1.404 . S
C579 C578 1.375 . S
C579 C580 1.369 . S
C579 H592 0.950 . S
C580 C579 1.369 . S
C580 C581 1.392 . S
C580 H593 0.951 . S
C581 C580 1.392 . S
C581 C583 1.384 . S
H582 C584 0.949 . S
C583 C581 1.384 . S
C583 C584 1.385 . S
C583 H585 0.950 . S
C584 C578 1.404 . S
C584 H582 0.949 . S
C584 C583 1.385 . S
H585 C583 0.950 . S
H586 C570 0.951 . S
H587 C572 0.951 . S
H588 C574 0.951 . S
H589 C575 0.950 . S
H590 C576 0.950 . S
H591 C577 0.950 . S
H592 C579 0.950 . S
H593 C580 0.951 . S
C594 C595 1.386 . S
C594 C596 1.383 . S
C594 H610 0.951 . S
C595 C594 1.386 . S
C595 C599 1.383 . S
C596 C594 1.383 . S
C596 C597 1.402 . S
C596 H611 0.951 . S
C597 C596 1.402 . S
C597 C598 1.375 . S
C597 C600 1.481 . S
C598 C597 1.375 . S
C598 C599 1.367 . S
C598 H612 0.951 . S
C599 C595 1.383 . S
C599 C598 1.367 . S
C599 H613 0.950 . S
C600 C597 1.481 . S
C600 C601 1.297 . S
C600 H614 0.950 . S
C601 C600 1.297 . S
C601 C602 1.479 . S
C601 H615 0.950 . S
C602 C601 1.479 . S
C602 C603 1.375 . S
C602 C608 1.404 . S
C603 C602 1.375 . S
C603 C604 1.369 . S
C603 H616 0.950 . S
C604 C603 1.369 . S
C604 C605 1.392 . S
C604 H617 0.951 . S
C605 C604 1.392 . S
C605 C607 1.384 . S
H606 C608 0.949 . S
C607 C605 1.384 . S
C607 C608 1.385 . S
C607 H609 0.950 . S
C608 C602 1.404 . S
C608 H606 0.949 . S
C608 C607 1.385 . S
H609 C607 0.950 . S
H610 C594 0.951 . S
H611 C596 0.951 . S
H612 C598 0.951 . S
H613 C599 0.950 . S
H614 C600 0.950 . S
H615 C601 0.950 . S
H616 C603 0.950 . S
H617 C604 0.951 . S
C618 C619 1.386 . S
C618 C620 1.383 . S
C618 H634 0.951 . S
C619 C618 1.386 . S
C619 C623 1.383 . S
C620 C618 1.383 . S
C620 C621 1.402 . S
C620 H635 0.951 . S
C621 C620 1.402 . S
C621 C622 1.375 . S
C621 C624 1.481 . S
C622 C621 1.375 . S
C622 C623 1.367 . S
C622 H636 0.951 . S
C623 C619 1.383 . S
C623 C622 1.367 . S
C623 H637 0.950 1_665 S
C624 C621 1.481 . S
C624 C625 1.297 . S
C624 H638 0.950 1_554 S
C625 C624 1.297 . S
C625 C626 1.479 1_554 S
C625 H639 0.950 . S
C626 C625 1.479 1_556 S
C626 C627 1.375 . S
C626 C632 1.404 . S
C627 C626 1.375 . S
C627 C628 1.369 . S
C627 H640 0.950 1_556 S
C628 C627 1.369 . S
C628 C629 1.392 . S
C628 H641 0.951 . S
C629 C628 1.392 . S
C629 C631 1.384 . S
H630 C632 0.949 . S
C631 C629 1.384 . S
C631 C632 1.385 . S
C631 H633 0.950 . S
C632 C626 1.404 . S
C632 H630 0.949 . S
C632 C631 1.385 . S
H633 C631 0.950 . S
H634 C618 0.951 . S
H635 C620 0.951 . S
H636 C622 0.951 . S
H637 C623 0.950 1_445 S
H638 C624 0.950 1_556 S
H639 C625 0.950 . S
H640 C627 0.950 1_554 S
H641 C628 0.951 . S
C642 C643 1.386 . S
C642 C644 1.383 . S
C642 H658 0.951 . S
C643 C642 1.386 . S
C643 C647 1.383 . S
C644 C642 1.383 . S
C644 C645 1.402 . S
C644 H659 0.951 . S
C645 C644 1.402 . S
C645 C646 1.375 1_455 S
C645 C648 1.481 . S
C646 C645 1.375 1_655 S
C646 C647 1.367 1_655 S
C646 H660 0.951 . S
C647 C643 1.383 . S
C647 C646 1.367 1_455 S
C647 H661 0.950 1_455 S
C648 C645 1.481 . S
C648 C649 1.297 . S
C648 H662 0.950 1_455 S
C649 C648 1.297 . S
C649 C650 1.479 . S
C649 H663 0.950 . S
C650 C649 1.479 . S
C650 C651 1.375 . S
C650 C656 1.404 1_455 S
C651 C650 1.375 . S
C651 C652 1.369 . S
C651 H664 0.950 . S
C652 C651 1.369 . S
C652 C653 1.392 . S
C652 H665 0.951 . S
C653 C652 1.392 . S
C653 C655 1.406 . S
H654 C656 0.949 . S
C655 C653 1.406 . S
C655 C656 1.371 1_455 S
C655 H657 0.943 1_455 S
C656 C650 1.404 1_655 S
C656 H654 0.949 . S
C656 C655 1.371 1_655 S
H657 C655 0.943 1_655 S
H658 C642 0.951 . S
H659 C644 0.951 . S
H660 C646 0.951 . S
H661 C647 0.950 1_655 S
H662 C648 0.950 1_655 S
H663 C649 0.950 . S
H664 C651 0.950 . S
H665 C652 0.951 . S
C666 C667 1.386 . S
C666 C668 1.383 . S
C666 H682 0.951 . S
C667 C666 1.386 . S
C667 C671 1.383 . S
C668 C666 1.383 . S
C668 C669 1.402 . S
C668 H683 0.951 . S
C669 C668 1.402 . S
C669 C670 1.375 . S
C669 C672 1.481 . S
C670 C669 1.375 . S
C670 C671 1.367 . S
C670 H684 0.951 . S
C671 C667 1.383 . S
C671 C670 1.367 . S
C671 H685 0.950 . S
C672 C669 1.481 . S
C672 C673 1.297 . S
C672 H686 0.950 . S
C673 C672 1.297 . S
C673 C674 1.479 . S
C673 H687 0.950 . S
C674 C673 1.479 . S
C674 C675 1.375 . S
C674 C680 1.404 . S
C675 C674 1.375 . S
C675 C676 1.369 . S
C675 H688 0.950 . S
C676 C675 1.369 . S
C676 C677 1.392 . S
C676 H689 0.951 . S
C677 C676 1.392 . S
C677 C679 1.384 . S
H678 C680 0.949 . S
C679 C677 1.384 . S
C679 C680 1.385 . S
C679 H681 0.950 . S
C680 C674 1.404 . S
C680 H678 0.949 . S
C680 C679 1.385 . S
H681 C679 0.950 . S
H682 C666 0.951 . S
H683 C668 0.951 . S
H684 C670 0.951 . S
H685 C671 0.950 . S
H686 C672 0.950 . S
H687 C673 0.950 . S
H688 C675 0.950 . S
H689 C676 0.951 . S
C690 C691 1.386 . S
C690 C692 1.383 . S
C690 H706 0.951 . S
C691 C690 1.386 . S
C691 C695 1.383 . S
C692 C690 1.383 . S
C692 C693 1.402 . S
C692 H707 0.951 . S
C693 C692 1.402 . S
C693 C694 1.375 . S
C693 C696 1.481 1_554 S
C694 C693 1.375 . S
C694 C695 1.367 . S
C694 H708 0.951 1_554 S
C695 C691 1.383 . S
C695 C694 1.367 . S
C695 H709 0.950 . S
C696 C693 1.481 1_556 S
C696 C697 1.297 . S
C696 H710 0.950 . S
C697 C696 1.297 . S
C697 C698 1.479 . S
C697 H711 0.950 1_556 S
C698 C697 1.479 . S
C698 C699 1.375 . S
C698 C704 1.404 . S
C699 C698 1.375 . S
C699 C700 1.369 . S
C699 H712 0.900 1_556 S
C700 C699 1.369 . S
C700 C701 1.392 . S
C700 H713 0.951 . S
C701 C700 1.392 . S
C701 C703 1.384 . S
H702 C704 0.949 . S
C703 C701 1.384 . S
C703 C704 1.385 . S
C703 H705 0.950 . S
C704 C698 1.404 . S
C704 H702 0.949 . S
C704 C703 1.385 . S
H705 C703 0.950 . S
H706 C690 0.951 . S
H707 C692 0.951 . S
H708 C694 0.951 1_556 S
H709 C695 0.950 . S
H710 C696 0.950 . S
H711 C697 0.950 1_554 S
H712 C699 0.900 1_554 S
H713 C700 0.951 . S
C714 C715 1.386 . S
C714 C716 1.383 . S
C714 H730 0.951 . S
C715 C714 1.386 . S
C715 C719 1.383 1_455 S
C716 C714 1.383 . S
C716 C717 1.402 . S
C716 H731 0.951 . S
C717 C716 1.402 . S
C717 C718 1.375 1_455 S
C717 C720 1.481 . S
C718 C717 1.375 1_655 S
C718 C719 1.367 . S
C718 H732 0.951 . S
C719 C715 1.383 1_655 S
C719 C718 1.367 . S
C719 H733 0.950 . S
C720 C717 1.481 . S
C720 C721 1.297 . S
C720 H734 0.950 1_455 S
C721 C720 1.297 . S
C721 C722 1.479 . S
C721 H735 0.950 . S
C722 C721 1.479 . S
C722 C723 1.375 . S
C722 C728 1.404 . S
C723 C722 1.375 . S
C723 C724 1.369 . S
C723 H736 0.950 . S
C724 C723 1.369 . S
C724 C725 1.392 . S
C724 H737 0.951 . S
C725 C724 1.392 . S
C725 C727 1.384 . S
H726 C728 0.949 1_655 S
C727 C725 1.384 . S
C727 C728 1.385 . S
C727 H729 0.950 1_455 S
C728 C722 1.404 . S
C728 H726 0.949 1_455 S
C728 C727 1.385 . S
H729 C727 0.950 1_655 S
H730 C714 0.951 . S
H731 C716 0.951 . S
H732 C718 0.951 . S
H733 C719 0.950 . S
H734 C720 0.950 1_655 S
H735 C721 0.950 . S
H736 C723 0.950 . S
H737 C724 0.951 . S
C461 C163 1.176 . S
C451 C14 1.501 . S
C475 C40 1.544 . S
C485 C277 1.071 . S
C499 C76 1.272 1_565 S
C509 C337 1.115 . S
C523 C3 1.363 1_565 S
C533 C137 0.981 . S
C557 C251 1.188 . S
C547 C38 1.434 . S
C571 C74 1.456 . S
C581 C347 1.047 . S
C605 C233 0.857 . S
C595 C86 1.401 . S
C619 C2 1.390 1_665 S
C629 C365 1.179 . S
C653 C109 0.897 . S
C643 C39 1.274 . S
C677 C223 1.128 . S
C667 C75 1.288 . S
C701 C391 1.246 . S
C691 C4 1.529 . S
C715 C50 1.463 . S
C725 C119 0.966 . S
