# Generated by pormake.
# Topology tbo, (3,4)-cn, num edge types: 1
# Building blocks:
#     Node 0, Type 0, BuildingBlock: OLANEW_clean_sbu_2, # of connection points: 3
#     Node 1, Type 0, BuildingBlock: OLANEW_clean_sbu_2, # of connection points: 3
#     Node 2, Type 0, BuildingBlock: OLANEW_clean_sbu_2, # of connection points: 3
#     Node 3, Type 0, BuildingBlock: OLANEW_clean_sbu_2, # of connection points: 3
#     Node 4, Type 0, BuildingBlock: OLANEW_clean_sbu_2, # of connection points: 3
#     Node 5, Type 0, BuildingBlock: OLANEW_clean_sbu_2, # of connection points: 3
#     Node 6, Type 0, BuildingBlock: OLANEW_clean_sbu_2, # of connection points: 3
#     Node 7, Type 0, BuildingBlock: OLANEW_clean_sbu_2, # of connection points: 3
#     Node 8, Type 0, BuildingBlock: OLANEW_clean_sbu_2, # of connection points: 3
#     Node 9, Type 0, BuildingBlock: OLANEW_clean_sbu_2, # of connection points: 3
#     Node 10, Type 0, BuildingBlock: OLANEW_clean_sbu_2, # of connection points: 3
#     Node 11, Type 0, BuildingBlock: OLANEW_clean_sbu_2, # of connection points: 3
#     Node 12, Type 0, BuildingBlock: OLANEW_clean_sbu_2, # of connection points: 3
#     Node 13, Type 0, BuildingBlock: OLANEW_clean_sbu_2, # of connection points: 3
#     Node 14, Type 0, BuildingBlock: OLANEW_clean_sbu_2, # of connection points: 3
#     Node 15, Type 0, BuildingBlock: OLANEW_clean_sbu_2, # of connection points: 3
#     Node 16, Type 0, BuildingBlock: OLANEW_clean_sbu_2, # of connection points: 3
#     Node 17, Type 0, BuildingBlock: OLANEW_clean_sbu_2, # of connection points: 3
#     Node 18, Type 0, BuildingBlock: OLANEW_clean_sbu_2, # of connection points: 3
#     Node 19, Type 0, BuildingBlock: OLANEW_clean_sbu_2, # of connection points: 3
#     Node 20, Type 0, BuildingBlock: OLANEW_clean_sbu_2, # of connection points: 3
#     Node 21, Type 0, BuildingBlock: OLANEW_clean_sbu_2, # of connection points: 3
#     Node 22, Type 0, BuildingBlock: OLANEW_clean_sbu_2, # of connection points: 3
#     Node 23, Type 0, BuildingBlock: OLANEW_clean_sbu_2, # of connection points: 3
#     Node 24, Type 0, BuildingBlock: OLANEW_clean_sbu_2, # of connection points: 3
#     Node 25, Type 0, BuildingBlock: OLANEW_clean_sbu_2, # of connection points: 3
#     Node 26, Type 0, BuildingBlock: OLANEW_clean_sbu_2, # of connection points: 3
#     Node 27, Type 0, BuildingBlock: OLANEW_clean_sbu_2, # of connection points: 3
#     Node 28, Type 0, BuildingBlock: OLANEW_clean_sbu_2, # of connection points: 3
#     Node 29, Type 0, BuildingBlock: OLANEW_clean_sbu_2, # of connection points: 3
#     Node 30, Type 0, BuildingBlock: OLANEW_clean_sbu_2, # of connection points: 3
#     Node 31, Type 0, BuildingBlock: OLANEW_clean_sbu_2, # of connection points: 3
#     Node 32, Type 1, BuildingBlock: MUDLON_clean_linker_0, # of connection points: 4
#     Node 33, Type 1, BuildingBlock: MUDLON_clean_linker_0, # of connection points: 4
#     Node 34, Type 1, BuildingBlock: MUDLON_clean_linker_0, # of connection points: 4
#     Node 35, Type 1, BuildingBlock: MUDLON_clean_linker_0, # of connection points: 4
#     Node 36, Type 1, BuildingBlock: MUDLON_clean_linker_0, # of connection points: 4
#     Node 37, Type 1, BuildingBlock: MUDLON_clean_linker_0, # of connection points: 4
#     Node 38, Type 1, BuildingBlock: MUDLON_clean_linker_0, # of connection points: 4
#     Node 39, Type 1, BuildingBlock: MUDLON_clean_linker_0, # of connection points: 4
#     Node 40, Type 1, BuildingBlock: MUDLON_clean_linker_0, # of connection points: 4
#     Node 41, Type 1, BuildingBlock: MUDLON_clean_linker_0, # of connection points: 4
#     Node 42, Type 1, BuildingBlock: MUDLON_clean_linker_0, # of connection points: 4
#     Node 43, Type 1, BuildingBlock: MUDLON_clean_linker_0, # of connection points: 4
#     Node 44, Type 1, BuildingBlock: MUDLON_clean_linker_0, # of connection points: 4
#     Node 45, Type 1, BuildingBlock: MUDLON_clean_linker_0, # of connection points: 4
#     Node 46, Type 1, BuildingBlock: MUDLON_clean_linker_0, # of connection points: 4
#     Node 47, Type 1, BuildingBlock: MUDLON_clean_linker_0, # of connection points: 4
#     Node 48, Type 1, BuildingBlock: MUDLON_clean_linker_0, # of connection points: 4
#     Node 49, Type 1, BuildingBlock: MUDLON_clean_linker_0, # of connection points: 4
#     Node 50, Type 1, BuildingBlock: MUDLON_clean_linker_0, # of connection points: 4
#     Node 51, Type 1, BuildingBlock: MUDLON_clean_linker_0, # of connection points: 4
#     Node 52, Type 1, BuildingBlock: MUDLON_clean_linker_0, # of connection points: 4
#     Node 53, Type 1, BuildingBlock: MUDLON_clean_linker_0, # of connection points: 4
#     Node 54, Type 1, BuildingBlock: MUDLON_clean_linker_0, # of connection points: 4
#     Node 55, Type 1, BuildingBlock: MUDLON_clean_linker_0, # of connection points: 4
#     Edge 56, Type (0, 1), BuildingBlock: CIFDUS_clean_linker_0, # of connection points: 2
#     Edge 57, Type (0, 1), BuildingBlock: CIFDUS_clean_linker_0, # of connection points: 2
#     Edge 58, Type (0, 1), BuildingBlock: CIFDUS_clean_linker_0, # of connection points: 2
#     Edge 59, Type (0, 1), BuildingBlock: CIFDUS_clean_linker_0, # of connection points: 2
#     Edge 60, Type (0, 1), BuildingBlock: CIFDUS_clean_linker_0, # of connection points: 2
#     Edge 61, Type (0, 1), BuildingBlock: CIFDUS_clean_linker_0, # of connection points: 2
#     Edge 62, Type (0, 1), BuildingBlock: CIFDUS_clean_linker_0, # of connection points: 2
#     Edge 63, Type (0, 1), BuildingBlock: CIFDUS_clean_linker_0, # of connection points: 2
#     Edge 64, Type (0, 1), BuildingBlock: CIFDUS_clean_linker_0, # of connection points: 2
#     Edge 65, Type (0, 1), BuildingBlock: CIFDUS_clean_linker_0, # of connection points: 2
#     Edge 66, Type (0, 1), BuildingBlock: CIFDUS_clean_linker_0, # of connection points: 2
#     Edge 67, Type (0, 1), BuildingBlock: CIFDUS_clean_linker_0, # of connection points: 2
#     Edge 68, Type (0, 1), BuildingBlock: CIFDUS_clean_linker_0, # of connection points: 2
#     Edge 69, Type (0, 1), BuildingBlock: CIFDUS_clean_linker_0, # of connection points: 2
#     Edge 70, Type (0, 1), BuildingBlock: CIFDUS_clean_linker_0, # of connection points: 2
#     Edge 71, Type (0, 1), BuildingBlock: CIFDUS_clean_linker_0, # of connection points: 2
#     Edge 72, Type (0, 1), BuildingBlock: CIFDUS_clean_linker_0, # of connection points: 2
#     Edge 73, Type (0, 1), BuildingBlock: CIFDUS_clean_linker_0, # of connection points: 2
#     Edge 74, Type (0, 1), BuildingBlock: CIFDUS_clean_linker_0, # of connection points: 2
#     Edge 75, Type (0, 1), BuildingBlock: CIFDUS_clean_linker_0, # of connection points: 2
#     Edge 76, Type (0, 1), BuildingBlock: CIFDUS_clean_linker_0, # of connection points: 2
#     Edge 77, Type (0, 1), BuildingBlock: CIFDUS_clean_linker_0, # of connection points: 2
#     Edge 78, Type (0, 1), BuildingBlock: CIFDUS_clean_linker_0, # of connection points: 2
#     Edge 79, Type (0, 1), BuildingBlock: CIFDUS_clean_linker_0, # of connection points: 2
#     Edge 80, Type (0, 1), BuildingBlock: CIFDUS_clean_linker_0, # of connection points: 2
#     Edge 81, Type (0, 1), BuildingBlock: CIFDUS_clean_linker_0, # of connection points: 2
#     Edge 82, Type (0, 1), BuildingBlock: CIFDUS_clean_linker_0, # of connection points: 2
#     Edge 83, Type (0, 1), BuildingBlock: CIFDUS_clean_linker_0, # of connection points: 2
#     Edge 84, Type (0, 1), BuildingBlock: CIFDUS_clean_linker_0, # of connection points: 2
#     Edge 85, Type (0, 1), BuildingBlock: CIFDUS_clean_linker_0, # of connection points: 2
#     Edge 86, Type (0, 1), BuildingBlock: CIFDUS_clean_linker_0, # of connection points: 2
#     Edge 87, Type (0, 1), BuildingBlock: CIFDUS_clean_linker_0, # of connection points: 2
#     Edge 88, Type (0, 1), BuildingBlock: CIFDUS_clean_linker_0, # of connection points: 2
#     Edge 89, Type (0, 1), BuildingBlock: CIFDUS_clean_linker_0, # of connection points: 2
#     Edge 90, Type (0, 1), BuildingBlock: CIFDUS_clean_linker_0, # of connection points: 2
#     Edge 91, Type (0, 1), BuildingBlock: CIFDUS_clean_linker_0, # of connection points: 2
#     Edge 92, Type (0, 1), BuildingBlock: CIFDUS_clean_linker_0, # of connection points: 2
#     Edge 93, Type (0, 1), BuildingBlock: CIFDUS_clean_linker_0, # of connection points: 2
#     Edge 94, Type (0, 1), BuildingBlock: CIFDUS_clean_linker_0, # of connection points: 2
#     Edge 95, Type (0, 1), BuildingBlock: CIFDUS_clean_linker_0, # of connection points: 2
#     Edge 96, Type (0, 1), BuildingBlock: CIFDUS_clean_linker_0, # of connection points: 2
#     Edge 97, Type (0, 1), BuildingBlock: CIFDUS_clean_linker_0, # of connection points: 2
#     Edge 98, Type (0, 1), BuildingBlock: CIFDUS_clean_linker_0, # of connection points: 2
#     Edge 99, Type (0, 1), BuildingBlock: CIFDUS_clean_linker_0, # of connection points: 2
#     Edge 100, Type (0, 1), BuildingBlock: CIFDUS_clean_linker_0, # of connection points: 2
#     Edge 101, Type (0, 1), BuildingBlock: CIFDUS_clean_linker_0, # of connection points: 2
#     Edge 102, Type (0, 1), BuildingBlock: CIFDUS_clean_linker_0, # of connection points: 2
#     Edge 103, Type (0, 1), BuildingBlock: CIFDUS_clean_linker_0, # of connection points: 2
#     Edge 104, Type (0, 1), BuildingBlock: CIFDUS_clean_linker_0, # of connection points: 2
#     Edge 105, Type (0, 1), BuildingBlock: CIFDUS_clean_linker_0, # of connection points: 2
#     Edge 106, Type (0, 1), BuildingBlock: CIFDUS_clean_linker_0, # of connection points: 2
#     Edge 107, Type (0, 1), BuildingBlock: CIFDUS_clean_linker_0, # of connection points: 2
#     Edge 108, Type (0, 1), BuildingBlock: CIFDUS_clean_linker_0, # of connection points: 2
#     Edge 109, Type (0, 1), BuildingBlock: CIFDUS_clean_linker_0, # of connection points: 2
#     Edge 110, Type (0, 1), BuildingBlock: CIFDUS_clean_linker_0, # of connection points: 2
#     Edge 111, Type (0, 1), BuildingBlock: CIFDUS_clean_linker_0, # of connection points: 2
#     Edge 112, Type (0, 1), BuildingBlock: CIFDUS_clean_linker_0, # of connection points: 2
#     Edge 113, Type (0, 1), BuildingBlock: CIFDUS_clean_linker_0, # of connection points: 2
#     Edge 114, Type (0, 1), BuildingBlock: CIFDUS_clean_linker_0, # of connection points: 2
#     Edge 115, Type (0, 1), BuildingBlock: CIFDUS_clean_linker_0, # of connection points: 2
#     Edge 116, Type (0, 1), BuildingBlock: CIFDUS_clean_linker_0, # of connection points: 2
#     Edge 117, Type (0, 1), BuildingBlock: CIFDUS_clean_linker_0, # of connection points: 2
#     Edge 118, Type (0, 1), BuildingBlock: CIFDUS_clean_linker_0, # of connection points: 2
#     Edge 119, Type (0, 1), BuildingBlock: CIFDUS_clean_linker_0, # of connection points: 2
#     Edge 120, Type (0, 1), BuildingBlock: CIFDUS_clean_linker_0, # of connection points: 2
#     Edge 121, Type (0, 1), BuildingBlock: CIFDUS_clean_linker_0, # of connection points: 2
#     Edge 122, Type (0, 1), BuildingBlock: CIFDUS_clean_linker_0, # of connection points: 2
#     Edge 123, Type (0, 1), BuildingBlock: CIFDUS_clean_linker_0, # of connection points: 2
#     Edge 124, Type (0, 1), BuildingBlock: CIFDUS_clean_linker_0, # of connection points: 2
#     Edge 125, Type (0, 1), BuildingBlock: CIFDUS_clean_linker_0, # of connection points: 2
#     Edge 126, Type (0, 1), BuildingBlock: CIFDUS_clean_linker_0, # of connection points: 2
#     Edge 127, Type (0, 1), BuildingBlock: CIFDUS_clean_linker_0, # of connection points: 2
#     Edge 128, Type (0, 1), BuildingBlock: CIFDUS_clean_linker_0, # of connection points: 2
#     Edge 129, Type (0, 1), BuildingBlock: CIFDUS_clean_linker_0, # of connection points: 2
#     Edge 130, Type (0, 1), BuildingBlock: CIFDUS_clean_linker_0, # of connection points: 2
#     Edge 131, Type (0, 1), BuildingBlock: CIFDUS_clean_linker_0, # of connection points: 2
#     Edge 132, Type (0, 1), BuildingBlock: CIFDUS_clean_linker_0, # of connection points: 2
#     Edge 133, Type (0, 1), BuildingBlock: CIFDUS_clean_linker_0, # of connection points: 2
#     Edge 134, Type (0, 1), BuildingBlock: CIFDUS_clean_linker_0, # of connection points: 2
#     Edge 135, Type (0, 1), BuildingBlock: CIFDUS_clean_linker_0, # of connection points: 2
#     Edge 136, Type (0, 1), BuildingBlock: CIFDUS_clean_linker_0, # of connection points: 2
#     Edge 137, Type (0, 1), BuildingBlock: CIFDUS_clean_linker_0, # of connection points: 2
#     Edge 138, Type (0, 1), BuildingBlock: CIFDUS_clean_linker_0, # of connection points: 2
#     Edge 139, Type (0, 1), BuildingBlock: CIFDUS_clean_linker_0, # of connection points: 2
#     Edge 140, Type (0, 1), BuildingBlock: CIFDUS_clean_linker_0, # of connection points: 2
#     Edge 141, Type (0, 1), BuildingBlock: CIFDUS_clean_linker_0, # of connection points: 2
#     Edge 142, Type (0, 1), BuildingBlock: CIFDUS_clean_linker_0, # of connection points: 2
#     Edge 143, Type (0, 1), BuildingBlock: CIFDUS_clean_linker_0, # of connection points: 2
#     Edge 144, Type (0, 1), BuildingBlock: CIFDUS_clean_linker_0, # of connection points: 2
#     Edge 145, Type (0, 1), BuildingBlock: CIFDUS_clean_linker_0, # of connection points: 2
#     Edge 146, Type (0, 1), BuildingBlock: CIFDUS_clean_linker_0, # of connection points: 2
#     Edge 147, Type (0, 1), BuildingBlock: CIFDUS_clean_linker_0, # of connection points: 2
#     Edge 148, Type (0, 1), BuildingBlock: CIFDUS_clean_linker_0, # of connection points: 2
#     Edge 149, Type (0, 1), BuildingBlock: CIFDUS_clean_linker_0, # of connection points: 2
#     Edge 150, Type (0, 1), BuildingBlock: CIFDUS_clean_linker_0, # of connection points: 2
#     Edge 151, Type (0, 1), BuildingBlock: CIFDUS_clean_linker_0, # of connection points: 2
# Relax obj value: 0.019
# Max RMSD: 0.139
# Mean RMSD: 0.099
data_MOF--net-tbo--node1-OLANEW_clean_sbu_2--node2-MUDLON_clean_linker_0--edge1-CIFDUS_clean_linker_0
_symmetry_space_group_name_H-M    P1
_symmetry_Int_Tables_number       1
_symmetry_cell_setting            triclinic
loop_
_symmetry_equiv_pos_as_xyz
'x, y, z'
_cell_length_a     90.313664
_cell_length_b     92.566613
_cell_length_c     89.569558
_cell_angle_alpha  97.341533
_cell_angle_beta   87.194316
_cell_angle_gamma 99.392094
loop_
_atom_site_label
_atom_site_type_symbol
_atom_site_fract_x
_atom_site_fract_y
_atom_site_fract_z
_atom_type_partial_charge
O0 O 0.21593 0.1864 0.17476 0.0
Cd1 Cd 0.2 0.16772 0.18805 0.0
O2 O 0.20461 0.20413 0.18658 0.0
Cd3 Cd 0.18626 0.19119 0.19824 0.0
O4 O 0.16424 0.19277 0.20917 0.0
C5 C 0.15697 0.20153 0.20386 0.0
O6 O 0.16281 0.20804 0.19224 0.0
C7 C 0.21481 0.20002 0.17749 0.0
C8 C 0.21685 0.15048 0.20174 0.0
O9 O 0.21133 0.14596 0.18874 0.0
O10 O 0.21439 0.16307 0.20821 0.0
O11 O 0.86758 0.17869 0.17011 0.0
Cd12 Cd 0.85123 0.15859 0.15568 0.0
O13 O 0.87984 0.16372 0.17995 0.0
Cd14 Cd 0.86311 0.14438 0.17356 0.0
O15 O 0.84552 0.12808 0.182 0.0
C16 C 0.84926 0.12184 0.19276 0.0
O17 O 0.86324 0.12488 0.19707 0.0
C18 C 0.87826 0.17674 0.17798 0.0
C19 C 0.84059 0.16919 0.13117 0.0
O20 O 0.83275 0.16838 0.14345 0.0
O21 O 0.85332 0.16469 0.13038 0.0
O22 O 0.88484 0.85367 0.17966 0.0
Cd23 Cd 0.89861 0.87509 0.19486 0.0
O24 O 0.8663 0.86557 0.17627 0.0
Cd25 Cd 0.8733 0.88507 0.19231 0.0
O26 O 0.86707 0.90218 0.20951 0.0
C27 C 0.86417 0.89913 0.22289 0.0
O28 O 0.86615 0.88616 0.22619 0.0
C29 C 0.87248 0.85408 0.1736 0.0
C30 C 0.919 0.86771 0.21396 0.0
O31 O 0.90561 0.86924 0.21856 0.0
O32 O 0.92274 0.86955 0.20026 0.0
O33 O 0.24178 0.85027 0.1791 0.0
Cd34 Cd 0.22644 0.82594 0.17451 0.0
O35 O 0.22334 0.86282 0.17764 0.0
Cd36 Cd 0.20648 0.84306 0.17696 0.0
O37 O 0.19009 0.831 0.19137 0.0
C38 C 0.19309 0.83363 0.20527 0.0
O39 O 0.20558 0.84242 0.20925 0.0
C40 C 0.23718 0.86256 0.1793 0.0
C41 C 0.24019 0.80878 0.15189 0.0
O42 O 0.22967 0.81562 0.14885 0.0
O43 O 0.24398 0.80986 0.16564 0.0
O44 O 0.21904 0.86699 0.87369 0.0
Cd45 Cd 0.20658 0.84513 0.88464 0.0
O46 O 0.19961 0.86414 0.85948 0.0
Cd47 Cd 0.18419 0.86592 0.84192 0.0
O48 O 0.16343 0.85924 0.82955 0.0
C49 C 0.16333 0.85103 0.81704 0.0
O50 O 0.17606 0.84743 0.81122 0.0
C51 C 0.21247 0.87121 0.86318 0.0
C52 C 0.22692 0.83055 0.89683 0.0
O53 O 0.22457 0.8286 0.88267 0.0
O54 O 0.21966 0.83941 0.90527 0.0
O55 O 0.20662 0.17268 0.92706 0.0
Cd56 Cd 0.19252 0.14985 0.91468 0.0
O57 O 0.19175 0.18492 0.91696 0.0
Cd58 Cd 0.18126 0.20355 0.91228 0.0
O59 O 0.167 0.21705 0.90308 0.0
C60 C 0.17125 0.23065 0.90193 0.0
O61 O 0.18456 0.23697 0.90669 0.0
C62 C 0.20279 0.18495 0.92528 0.0
C63 C 0.2079 0.13696 0.89004 0.0
O64 O 0.19964 0.14666 0.88849 0.0
O65 O 0.20902 0.13347 0.90329 0.0
O66 O 0.85186 0.23089 0.85058 0.0
Cd67 Cd 0.8678 0.22525 0.82856 0.0
O68 O 0.85837 0.21237 0.86026 0.0
Cd69 Cd 0.85407 0.19505 0.87503 0.0
O70 O 0.84269 0.17236 0.87381 0.0
C71 C 0.82885 0.1703 0.8708 0.0
O72 O 0.82221 0.18187 0.87048 0.0
C73 C 0.85064 0.22277 0.86111 0.0
C74 C 0.89615 0.24228 0.82993 0.0
O75 O 0.88503 0.24696 0.82483 0.0
O76 O 0.89384 0.22951 0.8345 0.0
O77 O 0.88133 0.86209 0.8449 0.0
Cd78 Cd 0.86618 0.87612 0.86297 0.0
O79 O 0.87679 0.84212 0.85649 0.0
Cd80 Cd 0.8625 0.84934 0.87548 0.0
O81 O 0.84873 0.84097 0.89431 0.0
C82 C 0.84412 0.82715 0.89219 0.0
O83 O 0.84759 0.81978 0.87931 0.0
C84 C 0.88304 0.84884 0.84573 0.0
C85 C 0.84926 0.89307 0.84897 0.0
O86 O 0.86249 0.89847 0.85349 0.0
O87 O 0.8441 0.87971 0.85104 0.0
O88 O 0.20305 0.66962 0.67259 0.0
Cd89 Cd 0.18566 0.65987 0.69208 0.0
O90 O 0.19299 0.68983 0.67318 0.0
Cd91 Cd 0.17474 0.6846 0.68955 0.0
O92 O 0.15604 0.68973 0.70471 0.0
C93 C 0.14339 0.69026 0.69933 0.0
O94 O 0.14155 0.68677 0.68478 0.0
C95 C 0.2029 0.68205 0.66801 0.0
C96 C 0.19602 0.63767 0.70521 0.0
O97 O 0.18666 0.63444 0.69453 0.0
O98 O 0.2005 0.65134 0.70963 0.0
O99 O 0.84843 0.68579 0.69642 0.0
Cd100 Cd 0.82995 0.66557 0.68504 0.0
O101 O 0.86785 0.67711 0.68509 0.0
Cd102 Cd 0.85398 0.65547 0.68055 0.0
O103 O 0.84111 0.63743 0.69155 0.0
C104 C 0.83887 0.64096 0.70557 0.0
O105 O 0.844 0.65449 0.71147 0.0
C106 C 0.86243 0.68743 0.69318 0.0
C107 C 0.81868 0.6753 0.66033 0.0
O108 O 0.81238 0.67703 0.67343 0.0
O109 O 0.83004 0.66851 0.6588 0.0
O110 O 0.91511 0.33836 0.66377 0.0
Cd111 Cd 0.93624 0.35625 0.67431 0.0
O112 O 0.89979 0.35151 0.67681 0.0
Cd113 Cd 0.87833 0.35879 0.68377 0.0
O114 O 0.85977 0.36967 0.6936 0.0
C115 C 0.84683 0.3625 0.69609 0.0
O116 O 0.84443 0.34812 0.69241 0.0
C117 C 0.90176 0.34046 0.66735 0.0
C118 C 0.94878 0.34941 0.69993 0.0
O119 O 0.93739 0.35617 0.70096 0.0
O120 O 0.95405 0.34555 0.68674 0.0
O121 O 0.22405 0.34807 0.68661 0.0
Cd122 Cd 0.2096 0.32387 0.67833 0.0
O123 O 0.2409 0.3387 0.69762 0.0
Cd124 Cd 0.22572 0.3179 0.69799 0.0
O125 O 0.20583 0.31144 0.71185 0.0
C126 C 0.19889 0.32214 0.71638 0.0
O127 O 0.20372 0.33499 0.71163 0.0
C128 C 0.23639 0.34981 0.6934 0.0
C129 C 0.22472 0.3093 0.65466 0.0
O130 O 0.22746 0.30847 0.66838 0.0
O131 O 0.21467 0.31689 0.65207 0.0
O132 O 0.18886 0.34419 0.34033 0.0
Cd133 Cd 0.17643 0.32124 0.34928 0.0
O134 O 0.19114 0.35865 0.36193 0.0
Cd135 Cd 0.17474 0.34223 0.37184 0.0
O136 O 0.15305 0.3286 0.36661 0.0
C137 C 0.14701 0.33257 0.35561 0.0
O138 O 0.15368 0.34437 0.34978 0.0
C139 C 0.19374 0.35655 0.34779 0.0
C140 C 0.19496 0.30715 0.36464 0.0
O141 O 0.19482 0.30545 0.35022 0.0
O142 O 0.18648 0.31568 0.37182 0.0
O143 O 0.18844 0.67362 0.39515 0.0
Cd144 Cd 0.17172 0.66099 0.37529 0.0
O145 O 0.1815 0.69548 0.39633 0.0
Cd146 Cd 0.1649 0.69031 0.3787 0.0
O147 O 0.151 0.69939 0.36406 0.0
C148 C 0.14354 0.70906 0.37052 0.0
O149 O 0.14393 0.71205 0.38525 0.0
C150 C 0.18962 0.68703 0.40089 0.0
C151 C 0.18471 0.63737 0.36082 0.0
O152 O 0.18697 0.64994 0.35582 0.0
O153 O 0.17596 0.63585 0.37241 0.0
O154 O 0.84311 0.73119 0.33407 0.0
Cd155 Cd 0.85755 0.72992 0.31041 0.0
O156 O 0.85375 0.71353 0.34091 0.0
Cd157 Cd 0.8543 0.69553 0.35432 0.0
O158 O 0.84491 0.6732 0.35842 0.0
C159 C 0.83078 0.67058 0.36065 0.0
O160 O 0.82316 0.68164 0.36182 0.0
C161 C 0.84441 0.72249 0.34363 0.0
C162 C 0.88398 0.7501 0.31193 0.0
O163 O 0.87166 0.75375 0.30831 0.0
O164 O 0.88376 0.73688 0.31489 0.0
O165 O 0.8922 0.35869 0.34039 0.0
Cd166 Cd 0.87611 0.37372 0.35623 0.0
O167 O 0.89379 0.34473 0.35822 0.0
Cd168 Cd 0.87804 0.3537 0.37477 0.0
O169 O 0.86223 0.34964 0.39365 0.0
C170 C 0.86559 0.34084 0.40227 0.0
O171 O 0.87827 0.3356 0.39963 0.0
C172 C 0.8974 0.34816 0.34507 0.0
C173 C 0.867 0.39561 0.34158 0.0
O174 O 0.87922 0.39816 0.34886 0.0
O175 O 0.85918 0.3827 0.34115 0.0
O176 O 0.71056 0.17615 0.67451 0.0
Cd177 Cd 0.69388 0.16423 0.69326 0.0
O178 O 0.70223 0.19742 0.67901 0.0
Cd179 Cd 0.68318 0.1904 0.69389 0.0
O180 O 0.6616 0.19264 0.70549 0.0
C181 C 0.65583 0.20371 0.70293 0.0
O182 O 0.66303 0.21259 0.69372 0.0
C183 C 0.71134 0.18953 0.67218 0.0
C184 C 0.70988 0.14829 0.70953 0.0
O185 O 0.70241 0.14194 0.69804 0.0
O186 O 0.7096 0.16206 0.71341 0.0
O187 O 0.38218 0.17604 0.64696 0.0
Cd188 Cd 0.3698 0.15923 0.62634 0.0
O189 O 0.37572 0.15919 0.66218 0.0
Cd190 Cd 0.3725 0.1506 0.68395 0.0
O191 O 0.36188 0.13854 0.70215 0.0
C192 C 0.34765 0.13527 0.70214 0.0
O193 O 0.34035 0.1395 0.69155 0.0
C194 C 0.3822 0.17205 0.66001 0.0
C195 C 0.35612 0.17444 0.60736 0.0
O196 O 0.34899 0.16939 0.61881 0.0
O197 O 0.36971 0.17221 0.60485 0.0
O198 O 0.39297 0.84397 0.67371 0.0
Cd199 Cd 0.4081 0.86411 0.68935 0.0
O200 O 0.37599 0.85728 0.66915 0.0
Cd201 Cd 0.38383 0.87642 0.68531 0.0
O202 O 0.37778 0.89346 0.7027 0.0
C203 C 0.36371 0.89327 0.70459 0.0
O204 O 0.35461 0.88333 0.69618 0.0
C205 C 0.38121 0.8452 0.66704 0.0
C206 C 0.42987 0.85349 0.70414 0.0
O207 O 0.41721 0.85525 0.71061 0.0
O208 O 0.43232 0.85689 0.69071 0.0
O209 O 0.73163 0.86086 0.69243 0.0
Cd210 Cd 0.71758 0.83734 0.68152 0.0
O211 O 0.74803 0.84987 0.70224 0.0
Cd212 Cd 0.73293 0.82893 0.70009 0.0
O213 O 0.71237 0.81925 0.71114 0.0
C214 C 0.70517 0.82882 0.71824 0.0
O215 O 0.71035 0.84286 0.71764 0.0
C216 C 0.74377 0.86164 0.69936 0.0
C217 C 0.73314 0.8251 0.65668 0.0
O218 O 0.7222 0.83188 0.65482 0.0
O219 O 0.73659 0.82405 0.67015 0.0
O220 O 0.73419 0.85095 0.34595 0.0
Cd221 Cd 0.73081 0.8242 0.34548 0.0
O222 O 0.71194 0.84897 0.33666 0.0
Cd223 Cd 0.69165 0.8546 0.328 0.0
O224 O 0.66843 0.84649 0.32169 0.0
C225 C 0.66159 0.83671 0.32942 0.0
O226 O 0.66863 0.83311 0.34057 0.0
C227 C 0.72415 0.85702 0.34092 0.0
C228 C 0.73364 0.81426 0.37309 0.0
O229 O 0.74522 0.81934 0.36541 0.0
O230 O 0.72064 0.81414 0.36791 0.0
O231 O 0.69557 0.17423 0.4114 0.0
Cd232 Cd 0.67939 0.15402 0.39691 0.0
O233 O 0.6811 0.18927 0.40541 0.0
Cd234 Cd 0.67362 0.2103 0.40349 0.0
O235 O 0.66394 0.22823 0.39598 0.0
C236 C 0.67228 0.24005 0.39311 0.0
O237 O 0.68678 0.24155 0.39521 0.0
C238 C 0.69238 0.1872 0.41238 0.0
C239 C 0.69468 0.13687 0.37544 0.0
O240 O 0.68965 0.14818 0.37207 0.0
O241 O 0.69266 0.1338 0.38903 0.0
O242 O 0.36483 0.2068 0.34488 0.0
Cd243 Cd 0.3869 0.20158 0.32973 0.0
O244 O 0.36823 0.19041 0.35947 0.0
Cd245 Cd 0.35951 0.17475 0.37524 0.0
O246 O 0.34597 0.15303 0.37141 0.0
C247 C 0.33288 0.15262 0.36662 0.0
O248 O 0.32783 0.16513 0.36643 0.0
C249 C 0.36054 0.19976 0.35598 0.0
C250 C 0.40753 0.22711 0.32799 0.0
O251 O 0.39655 0.22362 0.319 0.0
O252 O 0.40879 0.21846 0.33778 0.0
O253 O 0.37416 0.85498 0.33442 0.0
Cd254 Cd 0.36097 0.87222 0.35105 0.0
O255 O 0.36675 0.83581 0.34679 0.0
Cd256 Cd 0.35418 0.846 0.36562 0.0
O257 O 0.34373 0.84185 0.38758 0.0
C258 C 0.35233 0.84017 0.39784 0.0
O259 O 0.36691 0.84223 0.39511 0.0
C260 C 0.37398 0.84144 0.33583 0.0
C261 C 0.35342 0.89441 0.33566 0.0
O262 O 0.36636 0.89565 0.34139 0.0
O263 O 0.344 0.88271 0.33724 0.0
O264 O 0.70873 0.67209 0.18539 0.0
Cd265 Cd 0.69261 0.66091 0.20501 0.0
O266 O 0.69718 0.69143 0.1864 0.0
Cd267 Cd 0.67963 0.68542 0.20327 0.0
O268 O 0.66051 0.68972 0.21829 0.0
C269 C 0.64777 0.68954 0.21273 0.0
O270 O 0.6462 0.68587 0.19816 0.0
C271 C 0.70753 0.68434 0.1809 0.0
C272 C 0.70771 0.64378 0.2208 0.0
O273 O 0.69989 0.63793 0.20939 0.0
O274 O 0.70838 0.65768 0.22472 0.0
O275 O 0.3965 0.6625 0.15904 0.0
Cd276 Cd 0.38639 0.64253 0.13991 0.0
O277 O 0.38564 0.65061 0.17726 0.0
Cd278 Cd 0.37739 0.64693 0.20006 0.0
O279 O 0.36383 0.63703 0.21812 0.0
C280 C 0.34967 0.63485 0.21677 0.0
O281 O 0.3441 0.63912 0.20508 0.0
C282 C 0.39367 0.66206 0.17302 0.0
C283 C 0.37408 0.65495 0.11762 0.0
O284 O 0.36597 0.65045 0.12878 0.0
O285 O 0.38788 0.65316 0.11681 0.0
O286 O 0.41839 0.35245 0.16536 0.0
Cd287 Cd 0.44249 0.36645 0.17413 0.0
O288 O 0.4075 0.36989 0.17793 0.0
Cd289 Cd 0.38903 0.3814 0.18708 0.0
O290 O 0.37238 0.39455 0.19753 0.0
C291 C 0.36682 0.39236 0.21051 0.0
O292 O 0.37109 0.38203 0.21731 0.0
C293 C 0.40651 0.35792 0.16902 0.0
C294 C 0.45501 0.35685 0.19828 0.0
O295 O 0.44588 0.36622 0.2005 0.0
O296 O 0.45789 0.35173 0.18465 0.0
O297 O 0.73925 0.36024 0.19617 0.0
Cd298 Cd 0.72065 0.33871 0.18828 0.0
O299 O 0.72417 0.37589 0.19286 0.0
Cd300 Cd 0.70489 0.35833 0.19191 0.0
O301 O 0.69094 0.34585 0.20792 0.0
C302 C 0.69779 0.34399 0.21943 0.0
O303 O 0.71229 0.34879 0.22012 0.0
C304 C 0.73707 0.37345 0.19593 0.0
C305 C 0.73087 0.32336 0.1621 0.0
O306 O 0.72374 0.33415 0.1615 0.0
O307 O 0.73298 0.31973 0.17508 0.0
O308 O 0.70151 0.38414 0.88377 0.0
Cd309 Cd 0.69041 0.37531 0.90704 0.0
O310 O 0.67929 0.37672 0.87432 0.0
Cd311 Cd 0.66289 0.37088 0.85653 0.0
O312 O 0.64503 0.35657 0.8437 0.0
C313 C 0.63815 0.36033 0.83313 0.0
O314 O 0.64181 0.37372 0.8293 0.0
C315 C 0.69289 0.38268 0.87271 0.0
C316 C 0.70134 0.35057 0.91407 0.0
O317 O 0.69057 0.34928 0.90495 0.0
O318 O 0.70703 0.36358 0.91979 0.0
O319 O 0.70556 0.65924 0.90343 0.0
Cd320 Cd 0.69107 0.63871 0.88766 0.0
O321 O 0.69185 0.67359 0.89483 0.0
Cd322 Cd 0.68258 0.69365 0.89263 0.0
O323 O 0.67118 0.71042 0.88506 0.0
C324 C 0.65942 0.706 0.87748 0.0
O325 O 0.65456 0.69176 0.87491 0.0
C326 C 0.7023 0.67207 0.90326 0.0
C327 C 0.70832 0.62318 0.8666 0.0
O328 O 0.7032 0.63452 0.86342 0.0
O329 O 0.70546 0.61932 0.87981 0.0
O330 O 0.34137 0.72246 0.82455 0.0
Cd331 Cd 0.34744 0.72283 0.79781 0.0
O332 O 0.35328 0.70388 0.82623 0.0
Cd333 Cd 0.35737 0.68599 0.83836 0.0
O334 O 0.34655 0.66388 0.84198 0.0
C335 C 0.33257 0.66273 0.84516 0.0
O336 O 0.32645 0.67481 0.84739 0.0
C337 C 0.34555 0.71344 0.83239 0.0
C338 C 0.3783 0.72782 0.79235 0.0
O339 O 0.37118 0.73841 0.79736 0.0
O340 O 0.37085 0.71477 0.78987 0.0
O341 O 0.37604 0.3607 0.83215 0.0
Cd342 Cd 0.36418 0.37718 0.85093 0.0
O343 O 0.37927 0.34502 0.8478 0.0
Cd344 Cd 0.36612 0.35389 0.86694 0.0
O345 O 0.35197 0.35137 0.88732 0.0
C346 C 0.35673 0.34493 0.89743 0.0
O347 O 0.37005 0.3409 0.89548 0.0
C348 C 0.38119 0.34931 0.8348 0.0
C349 C 0.34756 0.39501 0.83784 0.0
O350 O 0.36189 0.39815 0.83839 0.0
O351 O 0.34106 0.38345 0.84342 0.0
H352 H 0.28537 0.2611 0.99496 0.0
N353 N 0.27968 0.28949 0.99696 0.0
H354 H 0.27016 0.23914 0.98246 0.0
H355 H 0.25385 0.28788 0.98342 0.0
H356 H 0.23814 0.26581 0.97131 0.0
H357 H 0.28263 0.31702 0.9904 0.0
H358 H 0.301 0.32908 0.973 0.0
H359 H 0.30283 0.27757 0.9817 0.0
H360 H 0.32091 0.28932 0.96419 0.0
H361 H 0.30378 0.28046 0.00869 0.0
H362 H 0.26314 0.29858 0.02042 0.0
H363 H 0.30839 0.28055 0.03533 0.0
H364 H 0.26744 0.29838 0.04712 0.0
H365 H 0.30393 0.26226 0.11048 0.0
H366 H 0.28939 0.24202 0.12264 0.0
H367 H 0.25175 0.26587 0.12866 0.0
H368 H 0.26656 0.28618 0.11691 0.0
H369 H 0.29786 0.30934 0.12999 0.0
H370 H 0.32088 0.32062 0.14298 0.0
H371 H 0.34612 0.29316 0.11232 0.0
H372 H 0.32292 0.2817 0.09971 0.0
H373 H 0.30163 0.26768 0.08392 0.0
H374 H 0.29869 0.26822 0.05698 0.0
H375 H 0.28376 0.31058 0.0668 0.0
N376 N 0.29479 0.28835 0.10679 0.0
H377 H 0.28636 0.30968 0.09371 0.0
C378 C 0.27074 0.27619 0.99009 0.0
C379 C 0.27513 0.26227 0.9898 0.0
C380 C 0.26631 0.24966 0.98273 0.0
C381 C 0.25288 0.25067 0.97588 0.0
C382 C 0.24851 0.26463 0.97627 0.0
C383 C 0.25738 0.27723 0.98327 0.0
C384 C 0.2913 0.29644 0.98739 0.0
C385 C 0.29109 0.31101 0.98481 0.0
C386 C 0.30151 0.31782 0.97479 0.0
C387 C 0.3124 0.31015 0.96715 0.0
C388 C 0.3128 0.29563 0.97002 0.0
C389 C 0.30237 0.28883 0.98002 0.0
C390 C 0.28312 0.28967 0.01255 0.0
C391 C 0.29585 0.2845 0.01697 0.0
C392 C 0.29842 0.28445 0.03225 0.0
C393 C 0.28833 0.28953 0.04341 0.0
C394 C 0.27561 0.29465 0.03888 0.0
C395 C 0.27308 0.29471 0.02364 0.0
C396 C 0.28632 0.2758 0.11297 0.0
C397 C 0.29255 0.2631 0.1144 0.0
C398 C 0.28418 0.25149 0.12127 0.0
C399 C 0.26945 0.25238 0.1268 0.0
C400 C 0.26316 0.26494 0.12486 0.0
C401 C 0.27154 0.27651 0.11806 0.0
C402 C 0.30869 0.29481 0.11388 0.0
C403 C 0.30839 0.30581 0.12611 0.0
C404 C 0.32157 0.31228 0.13344 0.0
C405 C 0.33539 0.30787 0.12865 0.0
C406 C 0.33565 0.29672 0.1164 0.0
C407 C 0.32242 0.29022 0.10909 0.0
C408 C 0.29406 0.28863 0.09081 0.0
C409 C 0.29777 0.27708 0.08025 0.0
C410 C 0.29617 0.27746 0.06484 0.0
C411 C 0.29087 0.2894 0.0597 0.0
C412 C 0.28758 0.30108 0.07034 0.0
C413 C 0.28915 0.30066 0.0857 0.0
H414 H 0.78297 0.25945 0.95345 0.0
N415 N 0.75286 0.24849 0.95507 0.0
H416 H 0.80051 0.25401 0.93267 0.0
H417 H 0.74708 0.23055 0.92962 0.0
H418 H 0.76468 0.22518 0.9086 0.0
H419 H 0.72586 0.24998 0.94533 0.0
H420 H 0.71616 0.27193 0.94002 0.0
H421 H 0.76732 0.27706 0.9598 0.0
H422 H 0.75816 0.29889 0.95375 0.0
H423 H 0.77166 0.23087 0.9639 0.0
H424 H 0.74273 0.26237 0.98173 0.0
H425 H 0.77984 0.23012 0.98918 0.0
H426 H 0.75072 0.26111 0.00698 0.0
H427 H 0.81479 0.24984 0.07125 0.0
H428 H 0.82318 0.23019 0.08292 0.0
H429 H 0.78249 0.20089 0.06948 0.0
H430 H 0.77428 0.22057 0.05762 0.0
H431 H 0.76461 0.23794 0.07702 0.0
H432 H 0.7529 0.2512 0.0984 0.0
H433 H 0.78157 0.29161 0.08996 0.0
H434 H 0.79358 0.27813 0.06853 0.0
H435 H 0.80441 0.2523 0.03408 0.0
H436 H 0.79519 0.25075 0.00852 0.0
H437 H 0.74963 0.24089 0.02562 0.0
N438 N 0.78838 0.24929 0.05938 0.0
H439 H 0.75886 0.24195 0.051 0.0
C440 C 0.76367 0.24524 0.94315 0.0
C441 C 0.77884 0.25195 0.94375 0.0
C442 C 0.78889 0.24877 0.93191 0.0
C443 C 0.78393 0.23913 0.91911 0.0
C444 C 0.76875 0.23266 0.91837 0.0
C445 C 0.75874 0.23565 0.93034 0.0
C446 C 0.74728 0.26182 0.95284 0.0
C447 C 0.73286 0.26067 0.94732 0.0
C448 C 0.72742 0.27322 0.94415 0.0
C449 C 0.73642 0.28721 0.94631 0.0
C450 C 0.75084 0.28835 0.95208 0.0
C451 C 0.7562 0.27582 0.95538 0.0
C452 C 0.75753 0.24778 0.97033 0.0
C453 C 0.76731 0.23797 0.97304 0.0
C454 C 0.7719 0.23735 0.98757 0.0
C455 C 0.76619 0.24584 0.99992 0.0
C456 C 0.75548 0.25464 0.99756 0.0
C457 C 0.7511 0.2555 0.98299 0.0
C458 C 0.79393 0.23673 0.0637 0.0
C459 C 0.8079 0.23905 0.07048 0.0
C460 C 0.81266 0.22782 0.07711 0.0
C461 C 0.80343 0.21405 0.07718 0.0
C462 C 0.78976 0.21145 0.06968 0.0
C463 C 0.78509 0.22266 0.06287 0.0
C464 C 0.78022 0.25703 0.07125 0.0
C465 C 0.76847 0.24962 0.07969 0.0
C466 C 0.76174 0.25721 0.09194 0.0
C467 C 0.76644 0.27238 0.09589 0.0
C468 C 0.77772 0.27991 0.0871 0.0
C469 C 0.78459 0.27226 0.07492 0.0
C470 C 0.78241 0.24749 0.0445 0.0
C471 C 0.79246 0.24966 0.03227 0.0
C472 C 0.78719 0.24875 0.01773 0.0
C473 C 0.77171 0.24582 0.01519 0.0
C474 C 0.76161 0.24333 0.02736 0.0
C475 C 0.76691 0.24396 0.04188 0.0
H476 H 0.77151 0.79634 0.98898 0.0
N477 N 0.77113 0.76805 0.99177 0.0
H478 H 0.78752 0.81131 0.97194 0.0
H479 H 0.79502 0.75981 0.97454 0.0
H480 H 0.81123 0.77469 0.95786 0.0
H481 H 0.77851 0.74021 0.98598 0.0
H482 H 0.76494 0.71935 0.97012 0.0
H483 H 0.74549 0.76694 0.97808 0.0
H484 H 0.73161 0.74597 0.96236 0.0
H485 H 0.75462 0.7727 0.01666 0.0
H486 H 0.79663 0.75915 0.00069 0.0
H487 H 0.76005 0.76916 0.04233 0.0
H488 H 0.80229 0.75587 0.02626 0.0
H489 H 0.78354 0.77534 0.11572 0.0
H490 H 0.79797 0.79661 0.13011 0.0
H491 H 0.83916 0.7828 0.11134 0.0
H492 H 0.82451 0.76115 0.09722 0.0
H493 H 0.79828 0.73355 0.1142 0.0
H494 H 0.77946 0.72087 0.13066 0.0
H495 H 0.74566 0.74262 0.11438 0.0
H496 H 0.76455 0.75565 0.09861 0.0
H497 H 0.78192 0.7763 0.08811 0.0
H498 H 0.77675 0.77985 0.06254 0.0
H499 H 0.79401 0.73983 0.04562 0.0
N500 N 0.79477 0.75378 0.0967 0.0
H501 H 0.79952 0.73653 0.07139 0.0
C502 C 0.782 0.77699 0.98307 0.0
C503 C 0.78033 0.79167 0.98237 0.0
C504 C 0.78951 0.80019 0.97266 0.0
C505 C 0.80056 0.79415 0.96342 0.0
C506 C 0.80264 0.77961 0.96462 0.0
C507 C 0.79345 0.7711 0.9743 0.0
C508 C 0.76295 0.75518 0.98327 0.0
C509 C 0.76825 0.74157 0.98098 0.0
C510 C 0.76043 0.72961 0.97192 0.0
C511 C 0.7472 0.731 0.96494 0.0
C512 C 0.74187 0.74458 0.9674 0.0
C513 C 0.74969 0.75652 0.97647 0.0
C514 C 0.77517 0.7663 0.00675 0.0
C515 C 0.76507 0.76909 0.01873 0.0
C516 C 0.76823 0.76711 0.03338 0.0
C517 C 0.78163 0.76226 0.03638 0.0
C518 C 0.79179 0.75946 0.02434 0.0
C519 C 0.78861 0.76146 0.00967 0.0
C520 C 0.80298 0.76654 0.10541 0.0
C521 C 0.79566 0.77678 0.11473 0.0
C522 C 0.80395 0.78906 0.12288 0.0
C523 C 0.81974 0.79146 0.12186 0.0
C524 C 0.82703 0.7812 0.11254 0.0
C525 C 0.8187 0.76888 0.1044 0.0
C526 C 0.78294 0.74548 0.10506 0.0
C527 C 0.78676 0.73543 0.1141 0.0
C528 C 0.77596 0.72815 0.12345 0.0
C529 C 0.761 0.73073 0.12391 0.0
C530 C 0.7571 0.74052 0.11452 0.0
C531 C 0.76793 0.7479 0.1053 0.0
C532 C 0.79122 0.75611 0.08171 0.0
C533 C 0.78467 0.76829 0.07896 0.0
C534 C 0.7816 0.77026 0.06428 0.0
C535 C 0.78497 0.76014 0.052 0.0
C536 C 0.79146 0.74795 0.05479 0.0
C537 C 0.79452 0.74598 0.06949 0.0
H538 H 0.33417 0.76833 0.93754 0.0
N539 N 0.31007 0.76537 0.95571 0.0
H540 H 0.33851 0.75325 0.91368 0.0
H541 H 0.29266 0.73943 0.9448 0.0
H542 H 0.29662 0.72462 0.9206 0.0
H543 H 0.27937 0.75766 0.9566 0.0
H544 H 0.26118 0.77165 0.94816 0.0
H545 H 0.31553 0.79193 0.94657 0.0
H546 H 0.29736 0.80577 0.93774 0.0
H547 H 0.32746 0.74701 0.96447 0.0
H548 H 0.29237 0.77225 0.981 0.0
H549 H 0.32897 0.73988 0.98949 0.0
H550 H 0.29372 0.76464 0.00567 0.0
H551 H 0.34582 0.74325 0.07228 0.0
H552 H 0.35375 0.72196 0.08134 0.0
H553 H 0.31171 0.69521 0.06758 0.0
H554 H 0.30397 0.71665 0.05835 0.0
H555 H 0.29109 0.73525 0.07101 0.0
H556 H 0.27679 0.74841 0.09058 0.0
H557 H 0.31424 0.78396 0.09624 0.0
H558 H 0.32839 0.77088 0.07625 0.0
H559 H 0.34067 0.75357 0.04089 0.0
H560 H 0.33735 0.75643 0.01447 0.0
H561 H 0.28998 0.74021 0.01933 0.0
N562 N 0.31973 0.74465 0.06088 0.0
H563 H 0.29344 0.73692 0.04553 0.0
C564 C 0.31304 0.75515 0.94277 0.0
C565 C 0.32612 0.75861 0.93405 0.0
C566 C 0.32859 0.74998 0.9205 0.0
C567 C 0.31786 0.73784 0.91534 0.0
C568 C 0.305 0.73399 0.92435 0.0
C569 C 0.30269 0.74248 0.93809 0.0
C570 C 0.29885 0.77391 0.95243 0.0
C571 C 0.28339 0.76824 0.95272 0.0
C572 C 0.27301 0.77623 0.94794 0.0
C573 C 0.27794 0.78974 0.94235 0.0
C574 C 0.29333 0.79538 0.94204 0.0
C575 C 0.30366 0.78756 0.94715 0.0
C576 C 0.30919 0.75957 0.97016 0.0
C577 C 0.31964 0.75058 0.97317 0.0
C578 C 0.32064 0.74659 0.98755 0.0
C579 C 0.31129 0.75152 0.9994 0.0
C580 C 0.30078 0.76037 0.99659 0.0
C581 C 0.29995 0.76461 0.98227 0.0
C582 C 0.32434 0.73153 0.06481 0.0
C583 C 0.33845 0.73273 0.07104 0.0
C584 C 0.34295 0.72055 0.07613 0.0
C585 C 0.33334 0.70692 0.07515 0.0
C586 C 0.31929 0.70562 0.06856 0.0
C587 C 0.31485 0.71783 0.06331 0.0
C588 C 0.31077 0.75224 0.07201 0.0
C589 C 0.29615 0.74597 0.07621 0.0
C590 C 0.28799 0.75347 0.08744 0.0
C591 C 0.29443 0.76718 0.09487 0.0
C592 C 0.30906 0.77338 0.09071 0.0
C593 C 0.3171 0.76599 0.0793 0.0
C594 C 0.31733 0.74529 0.04525 0.0
C595 C 0.32962 0.75048 0.03618 0.0
C596 C 0.32771 0.75205 0.02113 0.0
C597 C 0.3134 0.74859 0.01494 0.0
C598 C 0.30111 0.74306 0.02392 0.0
C599 C 0.30308 0.74122 0.03892 0.0
H600 H 0.94283 0.2658 0.27404 0.0
N601 N 0.96422 0.27218 0.25188 0.0
H602 H 0.93028 0.28335 0.29043 0.0
H603 H 0.96843 0.30137 0.25254 0.0
H604 H 0.95596 0.31919 0.26922 0.0
H605 H 0.95346 0.27168 0.22468 0.0
H606 H 0.93792 0.2511 0.20994 0.0
H607 H 0.95318 0.24526 0.26101 0.0
H608 H 0.93729 0.2249 0.24668 0.0
H609 H 0.96977 0.26665 0.28053 0.0
H610 H 0.98866 0.26775 0.23545 0.0
H611 H 0.99215 0.2588 0.28846 0.0
H612 H 0.01081 0.25888 0.24306 0.0
H613 H 0.07236 0.23401 0.30907 0.0
H614 H 0.08828 0.25132 0.32673 0.0
H615 H 0.07209 0.28763 0.31026 0.0
H616 H 0.0572 0.27059 0.29215 0.0
H617 H 0.07924 0.25492 0.27161 0.0
H618 H 0.09768 0.24395 0.25496 0.0
H619 H 0.07505 0.20044 0.26212 0.0
H620 H 0.05651 0.21158 0.27884 0.0
H621 H 0.02779 0.23174 0.296 0.0
H622 H 0.00518 0.23894 0.28715 0.0
H623 H 0.03264 0.2654 0.25658 0.0
N624 N 0.05613 0.24014 0.28738 0.0
H625 H 0.05485 0.2575 0.26486 0.0
C626 C 0.95663 0.28227 0.26196 0.0
C627 C 0.9458 0.27738 0.27281 0.0
C628 C 0.93868 0.28748 0.2823 0.0
C629 C 0.94216 0.30268 0.28118 0.0
C630 C 0.95294 0.30754 0.27029 0.0
C631 C 0.96012 0.29742 0.26082 0.0
C632 C 0.95446 0.26005 0.24389 0.0
C633 C 0.94989 0.26149 0.22951 0.0
C634 C 0.94097 0.24975 0.22117 0.0
C635 C 0.93639 0.23632 0.22711 0.0
C636 C 0.94081 0.23499 0.24166 0.0
C637 C 0.94979 0.2467 0.24994 0.0
C638 C 0.97759 0.26812 0.25734 0.0
C639 C 0.97872 0.26528 0.27229 0.0
C640 C 0.99154 0.26052 0.27679 0.0
C641 C 0.00339 0.25812 0.26643 0.0
C642 C 0.00213 0.26086 0.25147 0.0
C643 C 0.98944 0.26589 0.24706 0.0
C644 C 0.06361 0.25076 0.29905 0.0
C645 C 0.07217 0.24571 0.30938 0.0
C646 C 0.0812 0.25565 0.31955 0.0
C647 C 0.08167 0.27095 0.31982 0.0
C648 C 0.07239 0.27597 0.3101 0.0
C649 C 0.06365 0.26607 0.29972 0.0
C650 C 0.06639 0.23402 0.2764 0.0
C651 C 0.07803 0.24302 0.26936 0.0
C652 C 0.08859 0.23673 0.25984 0.0
C653 C 0.08782 0.22132 0.25723 0.0
C654 C 0.076 0.21234 0.26402 0.0
C655 C 0.06537 0.21866 0.27347 0.0
C656 C 0.04302 0.244 0.28117 0.0
C657 C 0.02884 0.23893 0.28725 0.0
C658 C 0.01595 0.24322 0.28228 0.0
C659 C 0.01701 0.2529 0.27121 0.0
C660 C 0.03127 0.25776 0.26492 0.0
C661 C 0.04409 0.25325 0.26971 0.0
H662 H 0.7718 0.0844 0.27575 0.0
N663 N 0.74756 0.06271 0.26929 0.0
H664 H 0.78964 0.09562 0.25769 0.0
H665 H 0.74678 0.05791 0.23938 0.0
H666 H 0.76479 0.06918 0.22109 0.0
H667 H 0.72285 0.07454 0.26802 0.0
H668 H 0.71201 0.09111 0.28752 0.0
H669 H 0.75867 0.07261 0.29744 0.0
H670 H 0.74807 0.08926 0.31685 0.0
H671 H 0.77528 0.0588 0.27815 0.0
H672 H 0.72977 0.03704 0.2709 0.0
H673 H 0.78213 0.0362 0.28459 0.0
H674 H 0.73636 0.01436 0.27825 0.0
H675 H 0.80418 0.96388 0.30518 0.0
H676 H 0.82405 0.95372 0.28965 0.0
H677 H 0.7997 0.95525 0.24968 0.0
H678 H 0.78021 0.96555 0.26513 0.0
H679 H 0.76287 0.94715 0.27838 0.0
H680 H 0.74647 0.92623 0.28717 0.0
H681 H 0.75192 0.94682 0.33313 0.0
H682 H 0.76905 0.96745 0.32417 0.0
H683 H 0.78782 0.99771 0.30861 0.0
H684 H 0.77966 0.02035 0.3032 0.0
H685 H 0.74973 0.99483 0.26985 0.0
N686 N 0.77875 0.97039 0.29609 0.0
H687 H 0.75734 0.97227 0.27602 0.0
C688 C 0.75787 0.07024 0.25891 0.0
C689 C 0.77004 0.08105 0.26388 0.0
C690 C 0.78034 0.08739 0.25353 0.0
C691 C 0.77866 0.08318 0.23799 0.0
C692 C 0.76631 0.07268 0.233 0.0
C693 C 0.75606 0.06622 0.2434 0.0
C694 C 0.74147 0.07224 0.28123 0.0
C695 C 0.72835 0.07769 0.27869 0.0
C696 C 0.72225 0.08722 0.2898 0.0
C697 C 0.72919 0.09151 0.30374 0.0
C698 C 0.74235 0.08602 0.30631 0.0
C699 C 0.74845 0.0765 0.29517 0.0
C700 C 0.75196 0.0496 0.27375 0.0
C701 C 0.76669 0.04919 0.27797 0.0
C702 C 0.77058 0.03621 0.28188 0.0
C703 C 0.75982 0.02337 0.28196 0.0
C704 C 0.74503 0.02391 0.27805 0.0
C705 C 0.74119 0.03688 0.27395 0.0
C706 C 0.79072 0.96556 0.28642 0.0
C707 C 0.80328 0.96219 0.29305 0.0
C708 C 0.81455 0.95631 0.28417 0.0
C709 C 0.81346 0.95366 0.26841 0.0
C710 C 0.80103 0.95737 0.26175 0.0
C711 C 0.78978 0.96324 0.27064 0.0
C712 C 0.76749 0.95875 0.3007 0.0
C713 C 0.76052 0.94724 0.29034 0.0
C714 C 0.75095 0.9353 0.2954 0.0
C715 C 0.74796 0.9347 0.31091 0.0
C716 C 0.75422 0.94672 0.32114 0.0
C717 C 0.76393 0.95857 0.31607 0.0
C718 C 0.77335 0.98337 0.29266 0.0
C719 C 0.77944 0.99706 0.3002 0.0
C720 C 0.77483 0.00999 0.29699 0.0
C721 C 0.76413 0.0095 0.28595 0.0
C722 C 0.75786 0.99567 0.27852 0.0
C723 C 0.76234 0.98272 0.28192 0.0
H724 H 0.12071 0.80974 0.33648 0.0
N725 N 0.10662 0.80743 0.31086 0.0
H726 H 0.1244 0.78987 0.35081 0.0
H727 H 0.09527 0.77817 0.30405 0.0
H728 H 0.09906 0.75808 0.31825 0.0
H729 H 0.11476 0.78823 0.28715 0.0
H730 H 0.13452 0.79367 0.26817 0.0
H731 H 0.1246 0.83288 0.30888 0.0
H732 H 0.14427 0.83855 0.28971 0.0
H733 H 0.08588 0.81567 0.33072 0.0
H734 H 0.09317 0.8031 0.2832 0.0
H735 H 0.06077 0.82003 0.32594 0.0
H736 H 0.0688 0.80869 0.27816 0.0
H737 H 0.98315 0.83133 0.3151 0.0
H738 H 0.96127 0.81417 0.32283 0.0
H739 H 0.97506 0.77951 0.29088 0.0
H740 H 0.99656 0.79656 0.28313 0.0
H741 H 0.99839 0.81334 0.26397 0.0
H742 H 0.98577 0.82313 0.24493 0.0
H743 H 0.98388 0.86307 0.27517 0.0
H744 H 0.99673 0.85324 0.29418 0.0
H745 H 0.0222 0.84035 0.31337 0.0
H746 H 0.04764 0.83613 0.31711 0.0
H747 H 0.04338 0.80208 0.27895 0.0
N748 N 0.00302 0.82618 0.29306 0.0
H749 H 0.01874 0.80747 0.27453 0.0
C750 C 0.10783 0.79542 0.31924 0.0
C751 C 0.11586 0.7985 0.33254 0.0
C752 C 0.11788 0.78715 0.34071 0.0
C753 C 0.11199 0.77242 0.33565 0.0
C754 C 0.10381 0.76932 0.32234 0.0
C755 C 0.10163 0.78075 0.31424 0.0
C756 C 0.11828 0.81019 0.29951 0.0
C757 C 0.12123 0.79918 0.2879 0.0
C758 C 0.13245 0.80235 0.27697 0.0
C759 C 0.14096 0.81653 0.27745 0.0
C760 C 0.13804 0.82746 0.28914 0.0
C761 C 0.12678 0.82429 0.30003 0.0
C762 C 0.09158 0.80919 0.30743 0.0
C763 C 0.0821 0.81396 0.31924 0.0
C764 C 0.0678 0.81665 0.31642 0.0
C765 C 0.06269 0.81499 0.30159 0.0
C766 C 0.07214 0.80997 0.28976 0.0
C767 C 0.08631 0.80688 0.29264 0.0
C768 C 0.9916 0.81529 0.29867 0.0
C769 C 0.98157 0.81994 0.31001 0.0
C770 C 0.96909 0.81018 0.31434 0.0
C771 C 0.96652 0.79553 0.30745 0.0
C772 C 0.9769 0.7907 0.29653 0.0
C773 C 0.98926 0.80051 0.29208 0.0
C774 C 0.99867 0.83267 0.28051 0.0
C775 C 0.99583 0.82441 0.26635 0.0
C776 C 0.98852 0.83 0.25546 0.0
C777 C 0.98373 0.8438 0.25863 0.0
C778 C 0.98733 0.85234 0.27248 0.0
C779 C 0.99477 0.84682 0.28327 0.0
C780 C 0.01841 0.82411 0.2939 0.0
C781 C 0.02692 0.83215 0.30571 0.0
C782 C 0.0414 0.82953 0.30794 0.0
C783 C 0.04761 0.81849 0.29856 0.0
C784 C 0.03916 0.81073 0.2864 0.0
C785 C 0.02482 0.81367 0.28396 0.0
H786 H 0.33273 0.95673 0.25093 0.0
N787 N 0.30798 0.96845 0.25015 0.0
H788 H 0.33993 0.94322 0.27047 0.0
H789 H 0.29407 0.96668 0.27796 0.0
H790 H 0.30108 0.95304 0.29754 0.0
H791 H 0.2805 0.95291 0.25703 0.0
H792 H 0.26457 0.93514 0.23995 0.0
H793 H 0.31347 0.96007 0.22114 0.0
H794 H 0.29756 0.94179 0.20394 0.0
H795 H 0.32746 0.99251 0.24644 0.0
H796 H 0.28123 0.97815 0.25901 0.0
H797 H 0.32256 0.01782 0.24776 0.0
H798 H 0.27595 0.00305 0.25932 0.0
H799 H 0.31695 0.08394 0.26923 0.0
H800 H 0.32056 0.09781 0.29428 0.0
H801 H 0.27246 0.0928 0.30179 0.0
H802 H 0.26897 0.07889 0.27671 0.0
H803 H 0.26143 0.06326 0.2503 0.0
H804 H 0.24491 0.07561 0.23692 0.0
H805 H 0.28251 0.10902 0.22819 0.0
H806 H 0.29893 0.09653 0.24133 0.0
H807 H 0.30776 0.05864 0.23597 0.0
H808 H 0.31111 0.03285 0.23456 0.0
H809 H 0.27882 0.02701 0.27147 0.0
N810 N 0.2912 0.07322 0.25591 0.0
H811 H 0.27484 0.05247 0.27199 0.0
C812 C 0.31288 0.96263 0.26291 0.0
C813 C 0.32598 0.95623 0.26124 0.0
C814 C 0.33007 0.94854 0.27242 0.0
C815 C 0.32102 0.94698 0.28551 0.0
C816 C 0.30818 0.95392 0.28749 0.0
C817 C 0.30418 0.96176 0.27632 0.0
C818 C 0.29817 0.958 0.2403 0.0
C819 C 0.28428 0.95082 0.24544 0.0
C820 C 0.27514 0.94065 0.23565 0.0
C821 C 0.2798 0.93723 0.22062 0.0
C822 C 0.29372 0.94429 0.21548 0.0
C823 C 0.30277 0.95469 0.22525 0.0
C824 C 0.30478 0.98336 0.25241 0.0
C825 C 0.31625 0.99483 0.24947 0.0
C826 C 0.31334 0.00926 0.25001 0.0
C827 C 0.29875 0.01254 0.25334 0.0
C828 C 0.28734 0.00105 0.25678 0.0
C829 C 0.29034 0.98666 0.25648 0.0
C830 C 0.29278 0.08058 0.27106 0.0
C831 C 0.30722 0.08573 0.27637 0.0
C832 C 0.30924 0.09353 0.2907 0.0
C833 C 0.29677 0.09637 0.29999 0.0
C834 C 0.28225 0.09086 0.29482 0.0
C835 C 0.28026 0.08293 0.28049 0.0
C836 C 0.28146 0.07896 0.24667 0.0
C837 C 0.26616 0.07305 0.24522 0.0
C838 C 0.25674 0.08012 0.23762 0.0
C839 C 0.26244 0.09332 0.23164 0.0
C840 C 0.2778 0.09895 0.23281 0.0
C841 C 0.28719 0.09179 0.24019 0.0
C842 C 0.29123 0.05753 0.25414 0.0
C843 C 0.3012 0.05166 0.24351 0.0
C844 C 0.30327 0.03696 0.24292 0.0
C845 C 0.29553 0.02784 0.25315 0.0
C846 C 0.28497 0.0336 0.26336 0.0
C847 C 0.28273 0.04825 0.26375 0.0
H848 H 0.06627 0.74318 0.77265 0.0
N849 N 0.05762 0.76599 0.76232 0.0
H850 H 0.07886 0.72399 0.75849 0.0
H851 H 0.06106 0.76114 0.73148 0.0
H852 H 0.07395 0.74246 0.7174 0.0
H853 H 0.07627 0.78289 0.74391 0.0
H854 H 0.09759 0.80165 0.75175 0.0
H855 H 0.06535 0.7766 0.79027 0.0
H856 H 0.08684 0.79531 0.79824 0.0
H857 H 0.03235 0.75871 0.77777 0.0
H858 H 0.0504 0.78162 0.74033 0.0
H859 H 0.00763 0.76495 0.77412 0.0
H860 H 0.02566 0.78704 0.73588 0.0
H861 H 0.93464 0.77108 0.75733 0.0
H862 H 0.91775 0.75051 0.74459 0.0
H863 H 0.93749 0.76098 0.70162 0.0
H864 H 0.95444 0.78181 0.71451 0.0
H865 H 0.94232 0.81285 0.74063 0.0
H866 H 0.92925 0.82763 0.76 0.0
H867 H 0.94242 0.8032 0.79382 0.0
H868 H 0.95493 0.78822 0.77439 0.0
H869 H 0.96233 0.76555 0.75504 0.0
H870 H 0.98695 0.75961 0.75881 0.0
H871 H 0.00755 0.80154 0.74495 0.0
N872 N 0.95619 0.79031 0.744 0.0
H873 H 0.98271 0.80694 0.74023 0.0
C874 C 0.06273 0.75364 0.75323 0.0
C875 C 0.06761 0.74283 0.76054 0.0
C876 C 0.07493 0.73198 0.75244 0.0
C877 C 0.07759 0.73178 0.73682 0.0
C878 C 0.07199 0.74218 0.72939 0.0
C879 C 0.06463 0.75299 0.7375 0.0
C880 C 0.06921 0.77828 0.76657 0.0
C881 C 0.0783 0.78567 0.7558 0.0
C882 C 0.09057 0.79636 0.76029 0.0
C883 C 0.09396 0.7999 0.77561 0.0
C884 C 0.08445 0.79295 0.78637 0.0
C885 C 0.07221 0.78224 0.78186 0.0
C886 C 0.04317 0.76945 0.75925 0.0
C887 C 0.03089 0.76487 0.7686 0.0
C888 C 0.01675 0.76838 0.7664 0.0
C889 C 0.01452 0.77644 0.75461 0.0
C890 C 0.02691 0.781 0.7452 0.0
C891 C 0.04111 0.77768 0.74758 0.0
C892 C 0.94574 0.77819 0.73683 0.0
C893 C 0.93526 0.76916 0.74517 0.0
C894 C 0.92558 0.75736 0.73786 0.0
C895 C 0.92625 0.75419 0.7221 0.0
C896 C 0.93678 0.76313 0.71378 0.0
C897 C 0.94639 0.77504 0.7211 0.0
C898 C 0.94968 0.7995 0.75598 0.0
C899 C 0.94247 0.81081 0.75225 0.0
C900 C 0.93508 0.81927 0.76335 0.0
C901 C 0.93474 0.81659 0.77849 0.0
C902 C 0.94226 0.80543 0.78226 0.0
C903 C 0.94958 0.79693 0.77114 0.0
C904 C 0.97064 0.78666 0.74704 0.0
C905 C 0.97209 0.77343 0.75263 0.0
C906 C 0.98628 0.77011 0.75498 0.0
C907 C 0.99937 0.78005 0.75215 0.0
C908 C 0.99782 0.79344 0.74694 0.0
C909 C 0.98362 0.79663 0.74435 0.0
H910 H 0.29047 0.08385 0.79341 0.0
N911 N 0.26565 0.06268 0.78776 0.0
H912 H 0.30469 0.09857 0.77524 0.0
H913 H 0.26128 0.06082 0.75844 0.0
H914 H 0.27576 0.07522 0.74 0.0
H915 H 0.24002 0.07339 0.79067 0.0
H916 H 0.2301 0.08739 0.81289 0.0
H917 H 0.27942 0.07075 0.81479 0.0
H918 H 0.26982 0.08507 0.83698 0.0
H919 H 0.2943 0.0565 0.78962 0.0
H920 H 0.24738 0.03784 0.7916 0.0
H921 H 0.30111 0.03273 0.79245 0.0
H922 H 0.25403 0.01418 0.79569 0.0
H923 H 0.32082 0.95485 0.801 0.0
H924 H 0.3331 0.94054 0.78056 0.0
H925 H 0.29867 0.94512 0.75044 0.0
H926 H 0.28631 0.95888 0.77088 0.0
H927 H 0.27081 0.94494 0.79003 0.0
H928 H 0.25547 0.92689 0.8043 0.0
H929 H 0.28112 0.94454 0.84384 0.0
H930 H 0.29656 0.96251 0.82938 0.0
H931 H 0.30963 0.99144 0.81037 0.0
H932 H 0.30253 0.01547 0.80844 0.0
H933 H 0.26318 0.99373 0.78409 0.0
N934 N 0.29506 0.96501 0.80036 0.0
H935 H 0.26977 0.96994 0.78724 0.0
C936 C 0.27465 0.0713 0.77728 0.0
C937 C 0.28711 0.08193 0.78181 0.0
C938 C 0.29535 0.09026 0.77136 0.0
C939 C 0.29135 0.08812 0.75616 0.0
C940 C 0.27901 0.07733 0.75165 0.0
C941 C 0.27077 0.06903 0.76212 0.0
C942 C 0.26037 0.07104 0.80108 0.0
C943 C 0.24654 0.07594 0.80077 0.0
C944 C 0.24097 0.08401 0.81344 0.0
C945 C 0.24919 0.08741 0.82672 0.0
C946 C 0.26313 0.08252 0.82699 0.0
C947 C 0.26868 0.0744 0.8143 0.0
C948 C 0.27024 0.04891 0.79005 0.0
C949 C 0.28541 0.04732 0.79073 0.0
C950 C 0.28931 0.03366 0.79258 0.0
C951 C 0.27816 0.02136 0.79423 0.0
C952 C 0.26299 0.02319 0.79404 0.0
C953 C 0.25913 0.03676 0.79185 0.0
C954 C 0.3027 0.95802 0.78758 0.0
C955 C 0.31607 0.9529 0.78992 0.0
C956 C 0.32309 0.94478 0.77821 0.0
C957 C 0.31683 0.94162 0.76386 0.0
C958 C 0.30367 0.94716 0.76141 0.0
C959 C 0.29662 0.9552 0.77314 0.0
C960 C 0.2849 0.95508 0.80869 0.0
C961 C 0.27302 0.9451 0.80181 0.0
C962 C 0.26421 0.93478 0.81 0.0
C963 C 0.26714 0.93422 0.82518 0.0
C964 C 0.27872 0.94455 0.83211 0.0
C965 C 0.28748 0.95486 0.82393 0.0
C966 C 0.29042 0.97891 0.79879 0.0
C967 C 0.29945 0.99194 0.80468 0.0
C968 C 0.29541 0.00568 0.80343 0.0
C969 C 0.2823 0.00669 0.79597 0.0
C970 C 0.27323 0.99351 0.79011 0.0
C971 C 0.27712 0.97979 0.79168 0.0
H972 H 0.00364 0.2953 0.80031 0.0
N973 N 0.0124 0.32494 0.8082 0.0
H974 H 0.97966 0.28086 0.80701 0.0
H975 H 0.99167 0.33356 0.82792 0.0
H976 H 0.96763 0.31911 0.83483 0.0
H977 H 0.00235 0.34907 0.80259 0.0
H978 H 0.99306 0.3539 0.7788 0.0
H979 H 0.01517 0.30854 0.78074 0.0
H980 H 0.00547 0.313 0.75701 0.0
H981 H 0.01993 0.30583 0.82691 0.0
H982 H 0.03889 0.33584 0.79511 0.0
H983 H 0.04479 0.30095 0.83122 0.0
H984 H 0.06379 0.3309 0.79967 0.0
H985 H 0.11567 0.27794 0.8244 0.0
H986 H 0.12639 0.26484 0.84203 0.0
H987 H 0.13649 0.30547 0.8719 0.0
H988 H 0.1261 0.31861 0.85384 0.0
H989 H 0.14045 0.32686 0.82022 0.0
H990 H 0.15594 0.32639 0.79696 0.0
H991 H 0.12757 0.28655 0.77858 0.0
H992 H 0.11202 0.28723 0.80177 0.0
H993 H 0.0919 0.286 0.82272 0.0
H994 H 0.06632 0.28939 0.81783 0.0
H995 H 0.08064 0.33654 0.82159 0.0
N996 N 0.11639 0.30789 0.82656 0.0
H997 H 0.10616 0.33304 0.8265 0.0
C998 C 0.99943 0.31555 0.81367 0.0
C999 C 0.99594 0.30053 0.808 0.0
C1000 C 0.98228 0.29227 0.81192 0.0
C1001 C 0.97177 0.2989 0.82139 0.0
C1002 C 0.97548 0.31377 0.82741 0.0
C1003 C 0.9892 0.32199 0.82359 0.0
C1004 C 0.00938 0.32847 0.79349 0.0
C1005 C 0.00335 0.34133 0.79258 0.0
C1006 C 0.99789 0.34396 0.77903 0.0
C1007 C 0.99829 0.33371 0.76605 0.0
C1008 C 0.00502 0.32114 0.76677 0.0
C1009 C 0.01051 0.31853 0.78036 0.0
C1010 C 0.02701 0.3206 0.80982 0.0
C1011 C 0.0292 0.31102 0.82035 0.0
C1012 C 0.04355 0.30826 0.82299 0.0
C1013 C 0.05621 0.3154 0.81567 0.0
C1014 C 0.05421 0.32517 0.80544 0.0
C1015 C 0.03987 0.32784 0.80267 0.0
C1016 C 0.12016 0.29934 0.83778 0.0
C1017 C 0.11992 0.28402 0.83482 0.0
C1018 C 0.12603 0.2765 0.84499 0.0
C1019 C 0.13246 0.28413 0.85833 0.0
C1020 C 0.13189 0.2993 0.86161 0.0
C1021 C 0.12583 0.30681 0.85141 0.0
C1022 C 0.1252 0.3071 0.81275 0.0
C1023 C 0.13761 0.31806 0.81115 0.0
C1024 C 0.14636 0.31779 0.79788 0.0
C1025 C 0.14291 0.30644 0.78599 0.0
C1026 C 0.13053 0.29535 0.78763 0.0
C1027 C 0.12166 0.29573 0.80087 0.0
C1028 C 0.10092 0.30934 0.82512 0.0
C1029 C 0.08951 0.29706 0.82271 0.0
C1030 C 0.07489 0.29901 0.81988 0.0
C1031 C 0.07152 0.31323 0.8192 0.0
C1032 C 0.08294 0.32545 0.82183 0.0
C1033 C 0.09745 0.32349 0.82478 0.0
H1034 H 0.81115 0.97414 0.78546 0.0
N1035 N 0.78039 0.96951 0.78683 0.0
H1036 H 0.82744 0.96192 0.79913 0.0
H1037 H 0.77241 0.95341 0.80913 0.0
H1038 H 0.78854 0.94156 0.82322 0.0
H1039 H 0.75245 0.95794 0.77945 0.0
H1040 H 0.7443 0.93959 0.75805 0.0
H1041 H 0.79853 0.95849 0.76423 0.0
H1042 H 0.79054 0.94049 0.74271 0.0
H1043 H 0.79458 0.98399 0.76379 0.0
H1044 H 0.77101 0.99023 0.80655 0.0
H1045 H 0.79407 0.00938 0.76017 0.0
H1046 H 0.77162 0.01619 0.80373 0.0
H1047 H 0.80747 0.08833 0.78444 0.0
H1048 H 0.8127 0.10549 0.80735 0.0
H1049 H 0.76518 0.10061 0.8186 0.0
H1050 H 0.7601 0.0836 0.79547 0.0
H1051 H 0.78987 0.09559 0.75571 0.0
H1052 H 0.77425 0.10717 0.74067 0.0
H1053 H 0.73489 0.07861 0.75498 0.0
H1054 H 0.75044 0.06724 0.77011 0.0
H1055 H 0.80115 0.05929 0.76246 0.0
H1056 H 0.8027 0.03393 0.76616 0.0
H1057 H 0.76039 0.03146 0.79135 0.0
N1058 N 0.78093 0.07555 0.77417 0.0
H1059 H 0.75981 0.05714 0.78875 0.0
C1060 C 0.79054 0.96455 0.79625 0.0
C1061 C 0.8062 0.96718 0.79382 0.0
C1062 C 0.81549 0.96023 0.80169 0.0
C1063 C 0.80928 0.95057 0.81212 0.0
C1064 C 0.79368 0.94864 0.81504 0.0
C1065 C 0.78445 0.95552 0.80714 0.0
C1066 C 0.77603 0.95948 0.77354 0.0
C1067 C 0.76076 0.95423 0.77138 0.0
C1068 C 0.75616 0.94385 0.75909 0.0
C1069 C 0.76679 0.93856 0.74869 0.0
C1070 C 0.78209 0.9442 0.75063 0.0
C1071 C 0.78668 0.95453 0.76294 0.0
C1072 C 0.78248 0.98505 0.78536 0.0
C1073 C 0.78948 0.99086 0.77256 0.0
C1074 C 0.78931 0.00557 0.77057 0.0
C1075 C 0.78257 0.01495 0.78153 0.0
C1076 C 0.77645 0.00928 0.79476 0.0
C1077 C 0.77629 0.99448 0.79654 0.0
C1078 C 0.78348 0.08482 0.78824 0.0
C1079 C 0.79824 0.09088 0.79197 0.0
C1080 C 0.80118 0.10055 0.80511 0.0
C1081 C 0.78934 0.10437 0.81484 0.0
C1082 C 0.77452 0.09795 0.81129 0.0
C1083 C 0.7716 0.08821 0.79811 0.0
C1084 C 0.77147 0.08047 0.76397 0.0
C1085 C 0.77791 0.09167 0.75539 0.0
C1086 C 0.76897 0.09834 0.74692 0.0
C1087 C 0.75336 0.09383 0.74673 0.0
C1088 C 0.74692 0.08223 0.75486 0.0
C1089 C 0.75586 0.07569 0.76353 0.0
C1090 C 0.78021 0.06 0.77493 0.0
C1091 C 0.79215 0.05314 0.76861 0.0
C1092 C 0.79297 0.0386 0.77074 0.0
C1093 C 0.78166 0.03046 0.77907 0.0
C1094 C 0.76949 0.03734 0.78512 0.0
C1095 C 0.76891 0.05201 0.7833 0.0
H1096 H 0.28836 0.73321 0.45918 0.0
N1097 N 0.2893 0.75559 0.48096 0.0
H1098 H 0.26656 0.72064 0.44486 0.0
H1099 H 0.26014 0.76008 0.48649 0.0
H1100 H 0.23832 0.7474 0.47259 0.0
H1101 H 0.27772 0.78108 0.48042 0.0
H1102 H 0.28825 0.80153 0.46632 0.0
H1103 H 0.31591 0.75952 0.46699 0.0
H1104 H 0.32655 0.77987 0.45282 0.0
H1105 H 0.30571 0.73918 0.49307 0.0
H1106 H 0.27642 0.7715 0.50458 0.0
H1107 H 0.3085 0.73753 0.51972 0.0
H1108 H 0.27801 0.76907 0.53118 0.0
H1109 H 0.30066 0.7269 0.60859 0.0
H1110 H 0.27968 0.71536 0.62355 0.0
H1111 H 0.25005 0.74008 0.60463 0.0
H1112 H 0.27121 0.75198 0.59027 0.0
H1113 H 0.29013 0.77047 0.6077 0.0
H1114 H 0.30524 0.79138 0.62198 0.0
H1115 H 0.34556 0.77398 0.60613 0.0
H1116 H 0.33018 0.75269 0.59226 0.0
H1117 H 0.30024 0.7264 0.5671 0.0
H1118 H 0.2967 0.72829 0.54063 0.0
H1119 H 0.29259 0.77435 0.55214 0.0
N1120 N 0.30045 0.74733 0.59034 0.0
H1121 H 0.29491 0.77198 0.57853 0.0
C1122 C 0.27594 0.74753 0.4739 0.0
C1123 C 0.27741 0.73619 0.46225 0.0
C1124 C 0.26493 0.729 0.45415 0.0
C1125 C 0.25069 0.73304 0.45756 0.0
C1126 C 0.24917 0.74415 0.46955 0.0
C1127 C 0.26167 0.75136 0.47762 0.0
C1128 C 0.29605 0.76873 0.47466 0.0
C1129 C 0.28848 0.78085 0.47465 0.0
C1130 C 0.29449 0.79251 0.46652 0.0
C1131 C 0.30821 0.7923 0.45839 0.0
C1132 C 0.31606 0.78049 0.45909 0.0
C1133 C 0.31 0.76883 0.46712 0.0
C1134 C 0.2907 0.75522 0.49682 0.0
C1135 C 0.29972 0.74577 0.5014 0.0
C1136 C 0.30114 0.74473 0.51667 0.0
C1137 C 0.2933 0.75298 0.52776 0.0
C1138 C 0.28434 0.76262 0.52308 0.0
C1139 C 0.28321 0.76386 0.50778 0.0
C1140 C 0.28754 0.74019 0.59827 0.0
C1141 C 0.2896 0.72973 0.60765 0.0
C1142 C 0.27756 0.72308 0.6161 0.0
C1143 C 0.26312 0.72674 0.61529 0.0
C1144 C 0.26104 0.73712 0.60569 0.0
C1145 C 0.27312 0.74385 0.59734 0.0
C1146 C 0.30905 0.75987 0.59901 0.0
C1147 C 0.30219 0.77103 0.6074 0.0
C1148 C 0.31089 0.78311 0.61545 0.0
C1149 C 0.32664 0.7844 0.6152 0.0
C1150 C 0.33346 0.77325 0.60676 0.0
C1151 C 0.32472 0.76112 0.59876 0.0
C1152 C 0.29814 0.74902 0.57483 0.0
C1153 C 0.29849 0.73686 0.56386 0.0
C1154 C 0.29661 0.73804 0.54869 0.0
C1155 C 0.29458 0.75156 0.54407 0.0
C1156 C 0.29397 0.76371 0.55516 0.0
C1157 C 0.29552 0.76241 0.57037 0.0
H1158 H 0.81134 0.75962 0.59681 0.0
N1159 N 0.8068 0.7535 0.56696 0.0
H1160 H 0.79961 0.77608 0.61502 0.0
H1161 H 0.78838 0.77344 0.56106 0.0
H1162 H 0.77731 0.79045 0.57928 0.0
H1163 H 0.78346 0.73492 0.57841 0.0
H1164 H 0.78552 0.71412 0.59189 0.0
H1165 H 0.83123 0.74148 0.56937 0.0
H1166 H 0.83356 0.7211 0.58353 0.0
H1167 H 0.82408 0.76035 0.54326 0.0
H1168 H 0.77891 0.74211 0.55594 0.0
H1169 H 0.81691 0.75769 0.51691 0.0
H1170 H 0.7716 0.73958 0.5298 0.0
H1171 H 0.79431 0.76586 0.4474 0.0
H1172 H 0.78623 0.78442 0.4345 0.0
H1173 H 0.74014 0.76947 0.44788 0.0
H1174 H 0.7484 0.74998 0.45994 0.0
H1175 H 0.76653 0.72365 0.43658 0.0
H1176 H 0.78165 0.71426 0.41518 0.0
H1177 H 0.82197 0.73713 0.43693 0.0
H1178 H 0.80693 0.74624 0.45821 0.0
H1179 H 0.79465 0.76648 0.47505 0.0
H1180 H 0.80183 0.76847 0.50114 0.0
H1181 H 0.77522 0.72585 0.50538 0.0
N1182 N 0.77607 0.74336 0.45969 0.0
H1183 H 0.7677 0.72415 0.47923 0.0
C1184 C 0.80008 0.76418 0.57746 0.0
C1185 C 0.80368 0.76603 0.59279 0.0
C1186 C 0.79714 0.77573 0.60326 0.0
C1187 C 0.78726 0.78448 0.59871 0.0
C1188 C 0.78443 0.78351 0.58328 0.0
C1189 C 0.79082 0.7736 0.57278 0.0
C1190 C 0.80724 0.73972 0.57277 0.0
C1191 C 0.79434 0.7316 0.5789 0.0
C1192 C 0.79558 0.71985 0.58687 0.0
C1193 C 0.80973 0.71605 0.58899 0.0
C1194 C 0.82247 0.7236 0.58202 0.0
C1195 C 0.8212 0.73529 0.57396 0.0
C1196 C 0.80213 0.75138 0.55154 0.0
C1197 C 0.81264 0.75573 0.54032 0.0
C1198 C 0.80849 0.7543 0.52532 0.0
C1199 C 0.79366 0.74846 0.52125 0.0
C1200 C 0.78316 0.74391 0.53251 0.0
C1201 C 0.78734 0.74531 0.5475 0.0
C1202 C 0.77188 0.75622 0.45439 0.0
C1203 C 0.78247 0.76655 0.44769 0.0
C1204 C 0.77779 0.7774 0.44041 0.0
C1205 C 0.76245 0.77845 0.43991 0.0
C1206 C 0.75201 0.7688 0.44764 0.0
C1207 C 0.75669 0.75774 0.4547 0.0
C1208 C 0.78548 0.73567 0.449 0.0
C1209 C 0.77866 0.72625 0.43689 0.0
C1210 C 0.78729 0.72101 0.42465 0.0
C1211 C 0.80298 0.72511 0.42429 0.0
C1212 C 0.80992 0.73367 0.43691 0.0
C1213 C 0.80127 0.73892 0.44914 0.0
C1214 C 0.78044 0.74516 0.47519 0.0
C1215 C 0.79021 0.75761 0.48156 0.0
C1216 C 0.79446 0.75867 0.4965 0.0
C1217 C 0.78912 0.74732 0.50536 0.0
C1218 C 0.77938 0.73489 0.49894 0.0
C1219 C 0.77511 0.73386 0.48401 0.0
H1220 H 0.83532 0.2539 0.59141 0.0
N1221 N 0.80638 0.25609 0.5929 0.0
H1222 H 0.85586 0.27051 0.60439 0.0
H1223 H 0.80382 0.28135 0.61183 0.0
H1224 H 0.8243 0.29833 0.62448 0.0
H1225 H 0.77954 0.26575 0.60073 0.0
H1226 H 0.75963 0.25445 0.61683 0.0
H1227 H 0.80617 0.23244 0.60681 0.0
H1228 H 0.7866 0.22141 0.62363 0.0
H1229 H 0.80615 0.2382 0.56727 0.0
H1230 H 0.79757 0.28142 0.58592 0.0
H1231 H 0.79971 0.24295 0.54228 0.0
H1232 H 0.79133 0.28633 0.56104 0.0
H1233 H 0.80063 0.26393 0.47159 0.0
H1234 H 0.8201 0.27668 0.45602 0.0
H1235 H 0.80717 0.31845 0.47431 0.0
H1236 H 0.7875 0.30549 0.48988 0.0
H1237 H 0.75787 0.28024 0.47457 0.0
H1238 H 0.74211 0.26161 0.4579 0.0
H1239 H 0.76496 0.22792 0.47124 0.0
H1240 H 0.78106 0.24662 0.48713 0.0
H1241 H 0.80381 0.26309 0.49793 0.0
H1242 H 0.80985 0.25848 0.52289 0.0
H1243 H 0.77205 0.27842 0.54196 0.0
N1244 N 0.78048 0.27656 0.49082 0.0
H1245 H 0.76617 0.28324 0.51678 0.0
C1246 C 0.81811 0.26639 0.60057 0.0
C1247 C 0.83289 0.2636 0.59861 0.0
C1248 C 0.8446 0.27316 0.60598 0.0
C1249 C 0.84177 0.28583 0.61545 0.0
C1250 C 0.82688 0.28861 0.61741 0.0
C1251 C 0.81515 0.27897 0.61006 0.0
C1252 C 0.79432 0.24978 0.60239 0.0
C1253 C 0.78113 0.25599 0.60552 0.0
C1254 C 0.76977 0.24957 0.6149 0.0
C1255 C 0.77143 0.23696 0.62155 0.0
C1256 C 0.78474 0.23091 0.61849 0.0
C1257 C 0.796 0.23724 0.60898 0.0
C1258 C 0.8024 0.25939 0.57845 0.0
C1259 C 0.80291 0.24872 0.56594 0.0
C1260 C 0.79931 0.25149 0.55169 0.0
C1261 C 0.79505 0.26505 0.54965 0.0
C1262 C 0.79442 0.27572 0.56225 0.0
C1263 C 0.79808 0.27295 0.5765 0.0
C1264 C 0.79259 0.2838 0.48197 0.0
C1265 C 0.80203 0.27583 0.47239 0.0
C1266 C 0.81322 0.28315 0.46351 0.0
C1267 C 0.8152 0.29859 0.46394 0.0
C1268 C 0.80583 0.30655 0.47362 0.0
C1269 C 0.79468 0.2992 0.48257 0.0
C1270 C 0.77056 0.26494 0.48225 0.0
C1271 C 0.75935 0.2688 0.47396 0.0
C1272 C 0.75032 0.25811 0.46449 0.0
C1273 C 0.75224 0.24321 0.46316 0.0
C1274 C 0.7633 0.2393 0.47174 0.0
C1275 C 0.77244 0.25003 0.48106 0.0
C1276 C 0.78449 0.27362 0.50544 0.0
C1277 C 0.79682 0.26656 0.50741 0.0
C1278 C 0.80022 0.2638 0.52173 0.0
C1279 C 0.79142 0.26805 0.53443 0.0
C1280 C 0.77915 0.27515 0.53244 0.0
C1281 C 0.77572 0.27785 0.51809 0.0
H1282 H 0.28685 0.24521 0.44019 0.0
N1283 N 0.25686 0.23336 0.43801 0.0
H1284 H 0.30767 0.236 0.42596 0.0
H1285 H 0.25559 0.21094 0.41601 0.0
H1286 H 0.27668 0.20197 0.40122 0.0
H1287 H 0.2274 0.23279 0.43748 0.0
H1288 H 0.21393 0.24925 0.42585 0.0
H1289 H 0.26961 0.25713 0.4236 0.0
H1290 H 0.25622 0.27333 0.41172 0.0
H1291 H 0.25151 0.21459 0.45845 0.0
H1292 H 0.26797 0.26017 0.45349 0.0
H1293 H 0.25782 0.21919 0.48508 0.0
H1294 H 0.27486 0.26475 0.47977 0.0
H1295 H 0.31799 0.25444 0.55091 0.0
H1296 H 0.32908 0.23702 0.56355 0.0
H1297 H 0.28572 0.20935 0.5653 0.0
H1298 H 0.27473 0.227 0.55295 0.0
H1299 H 0.25902 0.24571 0.55036 0.0
H1300 H 0.24378 0.25729 0.57037 0.0
H1301 H 0.28306 0.28781 0.58559 0.0
H1302 H 0.29822 0.27631 0.5654 0.0
H1303 H 0.28934 0.22804 0.52465 0.0
H1304 H 0.27996 0.22376 0.49947 0.0
H1305 H 0.26647 0.26685 0.50521 0.0
N1306 N 0.28926 0.25341 0.54507 0.0
H1307 H 0.27645 0.27149 0.53039 0.0
C1308 C 0.26952 0.22854 0.42941 0.0
C1309 C 0.28438 0.23564 0.43193 0.0
C1310 C 0.29635 0.2304 0.42375 0.0
C1311 C 0.29374 0.2182 0.41266 0.0
C1312 C 0.27894 0.21137 0.40979 0.0
C1313 C 0.26694 0.21645 0.41819 0.0
C1314 C 0.24945 0.24351 0.43125 0.0
C1315 C 0.23374 0.24166 0.43192 0.0
C1316 C 0.22609 0.25108 0.42535 0.0
C1317 C 0.23406 0.26249 0.41783 0.0
C1318 C 0.24982 0.2645 0.4173 0.0
C1319 C 0.25748 0.25521 0.42408 0.0
C1320 C 0.25922 0.23696 0.45397 0.0
C1321 C 0.25634 0.22561 0.46316 0.0
C1322 C 0.26012 0.22825 0.47832 0.0
C1323 C 0.267 0.24232 0.48457 0.0
C1324 C 0.26941 0.25383 0.47544 0.0
C1325 C 0.2655 0.25121 0.46033 0.0
C1326 C 0.29561 0.24204 0.55099 0.0
C1327 C 0.31097 0.2445 0.55386 0.0
C1328 C 0.31727 0.23451 0.56103 0.0
C1329 C 0.30827 0.2218 0.56549 0.0
C1330 C 0.29291 0.21914 0.56223 0.0
C1331 C 0.28662 0.22918 0.55511 0.0
C1332 C 0.27978 0.26029 0.55634 0.0
C1333 C 0.26433 0.25496 0.55792 0.0
C1334 C 0.25563 0.26159 0.5693 0.0
C1335 C 0.26228 0.27341 0.57948 0.0
C1336 C 0.2777 0.27865 0.57792 0.0
C1337 C 0.28633 0.27218 0.56641 0.0
C1338 C 0.28308 0.24997 0.53007 0.0
C1339 C 0.28413 0.23658 0.52086 0.0
C1340 C 0.2787 0.23406 0.50626 0.0
C1341 C 0.27223 0.24485 0.50033 0.0
C1342 C 0.2714 0.25828 0.50936 0.0
C1343 C 0.27696 0.26087 0.52389 0.0
H1344 H 0.77317 0.42899 0.78909 0.0
N1345 N 0.75887 0.43583 0.76513 0.0
H1346 H 0.76156 0.41691 0.81007 0.0
H1347 H 0.73006 0.42484 0.769 0.0
H1348 H 0.71834 0.41134 0.78938 0.0
H1349 H 0.75476 0.41577 0.74108 0.0
H1350 H 0.77374 0.40349 0.7263 0.0
H1351 H 0.7892 0.44059 0.76999 0.0
H1352 H 0.80806 0.42826 0.75554 0.0
H1353 H 0.77344 0.45374 0.78879 0.0
H1354 H 0.75087 0.45412 0.74753 0.0
H1355 H 0.77848 0.48041 0.79209 0.0
H1356 H 0.75628 0.48118 0.75063 0.0
H1357 H 0.75647 0.55665 0.77696 0.0
H1358 H 0.74116 0.56974 0.79563 0.0
H1359 H 0.77075 0.56488 0.83052 0.0
H1360 H 0.78589 0.55162 0.81173 0.0
H1361 H 0.77093 0.54695 0.7545 0.0
H1362 H 0.7816 0.56342 0.736 0.0
H1363 H 0.81862 0.58098 0.76522 0.0
H1364 H 0.80778 0.56461 0.78367 0.0
H1365 H 0.80001 0.52683 0.78535 0.0
H1366 H 0.79431 0.49991 0.78071 0.0
H1367 H 0.75 0.50311 0.76658 0.0
N1368 N 0.78211 0.54614 0.78226 0.0
H1369 H 0.75597 0.53004 0.77094 0.0
C1370 C 0.7524 0.42818 0.77757 0.0
C1371 C 0.76116 0.42546 0.78915 0.0
C1372 C 0.75447 0.41822 0.80111 0.0
C1373 C 0.73891 0.41303 0.80158 0.0
C1374 C 0.73026 0.41543 0.78972 0.0
C1375 C 0.73694 0.42305 0.77795 0.0
C1376 C 0.77048 0.42914 0.75657 0.0
C1377 C 0.7664 0.41857 0.74421 0.0
C1378 C 0.77724 0.41151 0.73586 0.0
C1379 C 0.79242 0.41491 0.73974 0.0
C1380 C 0.7965 0.42555 0.75212 0.0
C1381 C 0.78567 0.43257 0.76047 0.0
C1382 C 0.76162 0.45176 0.76786 0.0
C1383 C 0.76947 0.45946 0.78041 0.0
C1384 C 0.77252 0.47485 0.78224 0.0
C1385 C 0.7679 0.48296 0.77157 0.0
C1386 C 0.75989 0.47528 0.75913 0.0
C1387 C 0.75684 0.45985 0.75731 0.0
C1388 C 0.77235 0.55317 0.79301 0.0
C1389 C 0.7596 0.5583 0.78862 0.0
C1390 C 0.75091 0.56588 0.7993 0.0
C1391 C 0.75477 0.5684 0.81455 0.0
C1392 C 0.76737 0.56299 0.8189 0.0
C1393 C 0.77606 0.55546 0.80821 0.0
C1394 C 0.78861 0.55461 0.77049 0.0
C1395 C 0.78141 0.55423 0.75684 0.0
C1396 C 0.78754 0.56361 0.74626 0.0
C1397 C 0.80088 0.57358 0.74922 0.0
C1398 C 0.80822 0.57359 0.76271 0.0
C1399 C 0.80212 0.5642 0.77321 0.0
C1400 C 0.77845 0.5304 0.77859 0.0
C1401 C 0.78912 0.52168 0.78115 0.0
C1402 C 0.78578 0.50632 0.7786 0.0
C1403 C 0.77162 0.49934 0.77344 0.0
C1404 C 0.76103 0.50813 0.77048 0.0
C1405 C 0.76441 0.52355 0.77303 0.0
H1406 H 0.23602 0.57632 0.81241 0.0
N1407 N 0.24537 0.5624 0.78676 0.0
H1408 H 0.25084 0.59525 0.82973 0.0
H1409 H 0.27591 0.57105 0.78518 0.0
H1410 H 0.29052 0.59015 0.80179 0.0
H1411 H 0.26327 0.57405 0.76414 0.0
H1412 H 0.25573 0.58892 0.74611 0.0
H1413 H 0.21761 0.5657 0.78117 0.0
H1414 H 0.20991 0.58043 0.76289 0.0
H1415 H 0.22887 0.54012 0.79849 0.0
H1416 H 0.26746 0.5506 0.76938 0.0
H1417 H 0.23322 0.51464 0.79656 0.0
H1418 H 0.27282 0.5256 0.76846 0.0
H1419 H 0.25203 0.43447 0.79556 0.0
H1420 H 0.26798 0.42284 0.80989 0.0
H1421 H 0.30592 0.4557 0.80017 0.0
H1422 H 0.28983 0.46669 0.78501 0.0
H1423 H 0.28161 0.45021 0.75865 0.0
H1424 H 0.27757 0.43311 0.73541 0.0
H1425 H 0.22973 0.42735 0.74494 0.0
H1426 H 0.23393 0.44442 0.76808 0.0
H1427 H 0.25062 0.47381 0.80326 0.0
H1428 H 0.24814 0.49978 0.80495 0.0
H1429 H 0.26658 0.50107 0.75953 0.0
N1430 N 0.26008 0.45685 0.77973 0.0
H1431 H 0.27022 0.47557 0.75852 0.0
C1432 C 0.25474 0.57231 0.79745 0.0
C1433 C 0.24798 0.57914 0.81026 0.0
C1434 C 0.25645 0.59 0.82006 0.0
C1435 C 0.27189 0.59431 0.81713 0.0
C1436 C 0.27873 0.58699 0.80458 0.0
C1437 C 0.27028 0.57608 0.79489 0.0
C1438 C 0.24098 0.56884 0.77417 0.0
C1439 C 0.25158 0.57513 0.76384 0.0
C1440 C 0.24726 0.5837 0.75353 0.0
C1441 C 0.23226 0.58595 0.75319 0.0
C1442 C 0.22153 0.57883 0.76283 0.0
C1443 C 0.22589 0.57042 0.77327 0.0
C1444 C 0.24791 0.54732 0.78434 0.0
C1445 C 0.23837 0.53691 0.79178 0.0
C1446 C 0.24106 0.52239 0.79083 0.0
C1447 C 0.25362 0.51799 0.78264 0.0
C1448 C 0.26301 0.52844 0.77485 0.0
C1449 C 0.26007 0.54291 0.77553 0.0
C1450 C 0.26969 0.45147 0.78939 0.0
C1451 C 0.26376 0.43923 0.79669 0.0
C1452 C 0.27293 0.43266 0.80497 0.0
C1453 C 0.28831 0.43834 0.80635 0.0
C1454 C 0.2942 0.45088 0.79923 0.0
C1455 C 0.285 0.45731 0.79071 0.0
C1456 C 0.25801 0.44837 0.76513 0.0
C1457 C 0.27026 0.44538 0.75559 0.0
C1458 C 0.26794 0.43564 0.74234 0.0
C1459 C 0.25334 0.42885 0.73837 0.0
C1460 C 0.2411 0.43253 0.74756 0.0
C1461 C 0.24344 0.44219 0.76082 0.0
C1462 C 0.26039 0.4726 0.78077 0.0
C1463 C 0.25439 0.47982 0.7938 0.0
C1464 C 0.25276 0.49464 0.79462 0.0
C1465 C 0.25677 0.50257 0.78222 0.0
C1466 C 0.26339 0.49546 0.76936 0.0
C1467 C 0.26537 0.48071 0.76871 0.0
H1468 H 0.29895 0.58075 0.31433 0.0
N1469 N 0.27539 0.56084 0.30554 0.0
H1470 H 0.31662 0.59575 0.29858 0.0
H1471 H 0.27601 0.55877 0.2746 0.0
H1472 H 0.29354 0.57347 0.25893 0.0
H1473 H 0.25491 0.56833 0.28736 0.0
H1474 H 0.23499 0.58272 0.29548 0.0
H1475 H 0.26662 0.56913 0.33357 0.0
H1476 H 0.24667 0.58364 0.34182 0.0
H1477 H 0.28826 0.54309 0.31989 0.0
H1478 H 0.25703 0.54274 0.28497 0.0
H1479 H 0.28591 0.51625 0.31511 0.0
H1480 H 0.25549 0.51619 0.27921 0.0
H1481 H 0.29193 0.44462 0.2948 0.0
H1482 H 0.31283 0.43315 0.28304 0.0
H1483 H 0.29495 0.43348 0.23919 0.0
H1484 H 0.27441 0.44545 0.25112 0.0
H1485 H 0.25125 0.42559 0.27237 0.0
H1486 H 0.2383 0.40809 0.28853 0.0
H1487 H 0.2534 0.43826 0.3278 0.0
H1488 H 0.26746 0.45508 0.31138 0.0
H1489 H 0.29232 0.47118 0.29218 0.0
H1490 H 0.29322 0.49752 0.29839 0.0
H1491 H 0.24676 0.49315 0.28626 0.0
N1492 N 0.26836 0.4512 0.28041 0.0
H1493 H 0.24637 0.46677 0.27894 0.0
C1494 C 0.28616 0.56862 0.29575 0.0
C1495 C 0.29784 0.57905 0.30223 0.0
C1496 C 0.30791 0.58756 0.29322 0.0
C1497 C 0.3064 0.58585 0.27752 0.0
C1498 C 0.29486 0.5752 0.27101 0.0
C1499 C 0.28485 0.56667 0.28001 0.0
C1500 C 0.26237 0.56772 0.30991 0.0
C1501 C 0.2531 0.5714 0.29927 0.0
C1502 C 0.24173 0.57971 0.30392 0.0
C1503 C 0.23932 0.5844 0.31928 0.0
C1504 C 0.24814 0.58009 0.32992 0.0
C1505 C 0.25956 0.57186 0.32525 0.0
C1506 C 0.27305 0.54496 0.30271 0.0
C1507 C 0.28098 0.53719 0.31111 0.0
C1508 C 0.27972 0.52185 0.30822 0.0
C1509 C 0.27067 0.51392 0.29659 0.0
C1510 C 0.26246 0.52178 0.28836 0.0
C1511 C 0.26349 0.5371 0.29151 0.0
C1512 C 0.28167 0.44595 0.27377 0.0
C1513 C 0.2927 0.44247 0.28265 0.0
C1514 C 0.30455 0.43577 0.2759 0.0
C1515 C 0.30554 0.43227 0.26015 0.0
C1516 C 0.2947 0.43618 0.25131 0.0
C1517 C 0.28292 0.44297 0.25808 0.0
C1518 C 0.26008 0.44172 0.29059 0.0
C1519 C 0.25169 0.42841 0.28448 0.0
C1520 C 0.24416 0.41848 0.2938 0.0
C1521 C 0.24448 0.42178 0.30959 0.0
C1522 C 0.25293 0.43521 0.31574 0.0
C1523 C 0.26084 0.44499 0.30634 0.0
C1524 C 0.26929 0.46691 0.28475 0.0
C1525 C 0.28235 0.4758 0.29066 0.0
C1526 C 0.28278 0.49099 0.29444 0.0
C1527 C 0.27007 0.49764 0.29283 0.0
C1528 C 0.25691 0.4886 0.28734 0.0
C1529 C 0.2566 0.47347 0.28325 0.0
H1530 H 0.84231 0.47318 0.27163 0.0
N1531 N 0.814 0.47561 0.26694 0.0
H1532 H 0.85115 0.45669 0.28736 0.0
H1533 H 0.79689 0.45991 0.28744 0.0
H1534 H 0.80558 0.44378 0.30338 0.0
H1535 H 0.78335 0.46884 0.2684 0.0
H1536 H 0.76756 0.45136 0.25087 0.0
H1537 H 0.82277 0.46005 0.24188 0.0
H1538 H 0.80691 0.44245 0.22412 0.0
H1539 H 0.81199 0.49618 0.24939 0.0
H1540 H 0.80375 0.48677 0.29535 0.0
H1541 H 0.79938 0.51763 0.25494 0.0
H1542 H 0.79198 0.50853 0.30112 0.0
H1543 H 0.79149 0.57709 0.29488 0.0
H1544 H 0.8017 0.59675 0.31373 0.0
H1545 H 0.75845 0.59428 0.33699 0.0
H1546 H 0.74808 0.57452 0.3176 0.0
H1547 H 0.77651 0.58514 0.27617 0.0
H1548 H 0.76495 0.59796 0.25886 0.0
H1549 H 0.72243 0.57022 0.26552 0.0
H1550 H 0.73412 0.55738 0.283 0.0
H1551 H 0.78517 0.56167 0.27189 0.0
H1552 H 0.79933 0.54133 0.26668 0.0
H1553 H 0.76971 0.51688 0.29737 0.0
N1554 N 0.76201 0.56374 0.2928 0.0
H1555 H 0.75629 0.53785 0.30328 0.0
C1556 C 0.819 0.46787 0.27832 0.0
C1557 C 0.83431 0.46702 0.2788 0.0
C1558 C 0.83932 0.45759 0.2878 0.0
C1559 C 0.82905 0.44877 0.29651 0.0
C1560 C 0.81377 0.45018 0.29658 0.0
C1561 C 0.80878 0.45952 0.28753 0.0
C1562 C 0.8043 0.4658 0.25638 0.0
C1563 C 0.78861 0.46325 0.25871 0.0
C1564 C 0.77957 0.45332 0.24861 0.0
C1565 C 0.786 0.44562 0.23607 0.0
C1566 C 0.80167 0.44821 0.23372 0.0
C1567 C 0.81071 0.45825 0.24379 0.0
C1568 C 0.80869 0.48952 0.27171 0.0
C1569 C 0.80777 0.4989 0.26076 0.0
C1570 C 0.80057 0.51123 0.26399 0.0
C1571 C 0.79439 0.51478 0.27846 0.0
C1572 C 0.79613 0.50591 0.28971 0.0
C1573 C 0.80307 0.49338 0.28639 0.0
C1574 C 0.7689 0.57424 0.30478 0.0
C1575 C 0.78417 0.58047 0.30411 0.0
C1576 C 0.79008 0.59174 0.31504 0.0
C1577 C 0.78092 0.59708 0.32693 0.0
C1578 C 0.76579 0.59048 0.32791 0.0
C1579 C 0.75986 0.57918 0.31692 0.0
C1580 C 0.75611 0.57029 0.28103 0.0
C1581 C 0.76476 0.58163 0.27383 0.0
C1582 C 0.75811 0.58905 0.26396 0.0
C1583 C 0.74275 0.5852 0.26095 0.0
C1584 C 0.73431 0.57339 0.26757 0.0
C1585 C 0.74094 0.56606 0.27754 0.0
C1586 C 0.76968 0.55133 0.28813 0.0
C1587 C 0.78172 0.55197 0.27753 0.0
C1588 C 0.78979 0.54021 0.27448 0.0
C1589 C 0.78582 0.52739 0.28168 0.0
C1590 C 0.77343 0.52666 0.29189 0.0
C1591 C 0.76557 0.53854 0.29514 0.0
H1592 H 0.57245 0.27832 0.76041 0.0
N1593 N 0.55311 0.25577 0.77134 0.0
H1594 H 0.5881 0.29847 0.77519 0.0
H1595 H 0.55274 0.26226 0.80115 0.0
H1596 H 0.56814 0.28276 0.81615 0.0
H1597 H 0.57026 0.2368 0.77762 0.0
H1598 H 0.58934 0.22643 0.76133 0.0
H1599 H 0.55717 0.25738 0.74088 0.0
H1600 H 0.57563 0.24649 0.72431 0.0
H1601 H 0.54562 0.27838 0.75752 0.0
H1602 H 0.5277 0.23715 0.77409 0.0
H1603 H 0.52058 0.28153 0.75131 0.0
H1604 H 0.50248 0.23983 0.76717 0.0
H1605 H 0.45151 0.30051 0.7498 0.0
H1606 H 0.43853 0.3151 0.76948 0.0
H1607 H 0.41862 0.27505 0.78757 0.0
H1608 H 0.43186 0.26074 0.76828 0.0
H1609 H 0.43918 0.24303 0.75041 0.0
H1610 H 0.42301 0.22504 0.73368 0.0
H1611 H 0.42709 0.25627 0.70102 0.0
H1612 H 0.4421 0.27454 0.71854 0.0
H1613 H 0.47575 0.2777 0.72973 0.0
H1614 H 0.50078 0.27299 0.73473 0.0
H1615 H 0.48296 0.2537 0.77467 0.0
N1616 N 0.45055 0.27145 0.74568 0.0
H1617 H 0.45794 0.25781 0.7691 0.0
C1618 C 0.56147 0.26865 0.77972 0.0
C1619 C 0.57132 0.27924 0.77256 0.0
C1620 C 0.58022 0.29086 0.78105 0.0
C1621 C 0.57945 0.2922 0.79687 0.0
C1622 C 0.56919 0.28191 0.80399 0.0
C1623 C 0.56031 0.27026 0.79547 0.0
C1624 C 0.56224 0.24783 0.76057 0.0
C1625 C 0.57121 0.23869 0.7659 0.0
C1626 C 0.58208 0.23273 0.75652 0.0
C1627 C 0.58415 0.23569 0.74147 0.0
C1628 C 0.57457 0.2442 0.7359 0.0
C1629 C 0.56381 0.25031 0.74536 0.0
C1630 C 0.53855 0.25756 0.76651 0.0
C1631 C 0.53632 0.26992 0.75975 0.0
C1632 C 0.52192 0.27164 0.75603 0.0
C1633 C 0.50941 0.26096 0.75877 0.0
C1634 C 0.51176 0.24842 0.76516 0.0
C1635 C 0.52617 0.24679 0.76901 0.0
C1636 C 0.44269 0.27956 0.75747 0.0
C1637 C 0.44436 0.29494 0.75806 0.0
C1638 C 0.43685 0.30322 0.76924 0.0
C1639 C 0.42751 0.29625 0.78011 0.0
C1640 C 0.42588 0.28081 0.77951 0.0
C1641 C 0.4334 0.27256 0.76835 0.0
C1642 C 0.44151 0.26029 0.73584 0.0
C1643 C 0.4363 0.24609 0.7398 0.0
C1644 C 0.42723 0.2357 0.73004 0.0
C1645 C 0.42354 0.23913 0.71593 0.0
C1646 C 0.42922 0.25326 0.71191 0.0
C1647 C 0.43796 0.26372 0.72183 0.0
C1648 C 0.46503 0.26832 0.74909 0.0
C1649 C 0.4773 0.27241 0.73952 0.0
C1650 C 0.49161 0.26979 0.74248 0.0
C1651 C 0.49399 0.26308 0.75521 0.0
C1652 C 0.48157 0.25874 0.76468 0.0
C1653 C 0.46722 0.26124 0.7616 0.0
H1654 H 0.48641 0.79359 0.77599 0.0
N1655 N 0.50432 0.77846 0.75619 0.0
H1656 H 0.46292 0.78343 0.78748 0.0
H1657 H 0.49315 0.75006 0.75638 0.0
H1658 H 0.47 0.73947 0.76896 0.0
H1659 H 0.50742 0.80846 0.76437 0.0
H1660 H 0.4974 0.82589 0.75083 0.0
H1661 H 0.49508 0.77385 0.72811 0.0
H1662 H 0.48539 0.79137 0.71431 0.0
H1663 H 0.528 0.76682 0.74509 0.0
H1664 H 0.51256 0.79394 0.78354 0.0
H1665 H 0.55188 0.76769 0.75723 0.0
H1666 H 0.53632 0.79476 0.79584 0.0
H1667 H 0.60909 0.75421 0.79315 0.0
H1668 H 0.61633 0.737 0.80869 0.0
H1669 H 0.61254 0.7682 0.84833 0.0
H1670 H 0.6051 0.78552 0.83257 0.0
H1671 H 0.62646 0.80405 0.80658 0.0
H1672 H 0.64684 0.81082 0.78843 0.0
H1673 H 0.62666 0.77567 0.75569 0.0
H1674 H 0.60647 0.76896 0.77379 0.0
H1675 H 0.58474 0.75788 0.78947 0.0
H1676 H 0.56051 0.75774 0.77882 0.0
H1677 H 0.56352 0.8044 0.79347 0.0
N1678 N 0.60339 0.78226 0.80276 0.0
H1679 H 0.58791 0.80444 0.80437 0.0
C1680 C 0.4914 0.77258 0.76492 0.0
C1681 C 0.48298 0.78178 0.77431 0.0
C1682 C 0.46953 0.77586 0.78113 0.0
C1683 C 0.46434 0.76057 0.77908 0.0
C1684 C 0.47335 0.75132 0.77048 0.0
C1685 C 0.48667 0.75731 0.7634 0.0
C1686 C 0.50183 0.78974 0.74729 0.0
C1687 C 0.50295 0.80467 0.75333 0.0
C1688 C 0.49717 0.81464 0.74561 0.0
C1689 C 0.49052 0.80993 0.7316 0.0
C1690 C 0.49054 0.79531 0.72505 0.0
C1691 C 0.49606 0.78531 0.73289 0.0
C1692 C 0.51855 0.78029 0.76334 0.0
C1693 C 0.52984 0.77304 0.75611 0.0
C1694 C 0.54338 0.77344 0.76313 0.0
C1695 C 0.54591 0.78116 0.77758 0.0
C1696 C 0.53472 0.78878 0.78468 0.0
C1697 C 0.52113 0.78832 0.77765 0.0
C1698 C 0.60636 0.7712 0.81173 0.0
C1699 C 0.60947 0.75733 0.80518 0.0
C1700 C 0.61364 0.74743 0.81411 0.0
C1701 C 0.61498 0.75124 0.82973 0.0
C1702 C 0.61167 0.765 0.8363 0.0
C1703 C 0.60733 0.77485 0.82736 0.0
C1704 C 0.61495 0.78606 0.79161 0.0
C1705 C 0.62645 0.79787 0.79546 0.0
C1706 C 0.63802 0.80173 0.78508 0.0
C1707 C 0.63833 0.79376 0.77064 0.0
C1708 C 0.6268 0.78191 0.76678 0.0
C1709 C 0.61519 0.77811 0.77714 0.0
C1710 C 0.58823 0.78124 0.79783 0.0
C1711 C 0.58022 0.76807 0.79066 0.0
C1712 C 0.56635 0.76802 0.7844 0.0
C1713 C 0.56016 0.7811 0.78516 0.0
C1714 C 0.56793 0.79413 0.79278 0.0
C1715 C 0.58184 0.79418 0.799 0.0
H1716 H 0.57413 0.77456 0.25797 0.0
N1717 N 0.55374 0.75706 0.27434 0.0
H1718 H 0.59355 0.79426 0.26809 0.0
H1719 H 0.55686 0.76872 0.30289 0.0
H1720 H 0.57593 0.78899 0.31318 0.0
H1721 H 0.56483 0.73559 0.28476 0.0
H1722 H 0.57976 0.71817 0.27085 0.0
H1723 H 0.55851 0.75302 0.24355 0.0
H1724 H 0.5736 0.73608 0.22975 0.0
H1725 H 0.54783 0.77355 0.25258 0.0
H1726 H 0.52735 0.74728 0.2867 0.0
H1727 H 0.52327 0.77772 0.24585 0.0
H1728 H 0.50269 0.75235 0.28093 0.0
H1729 H 0.44134 0.79864 0.2389 0.0
H1730 H 0.42633 0.81394 0.2557 0.0
H1731 H 0.43116 0.78825 0.29172 0.0
H1732 H 0.44577 0.77278 0.27468 0.0
H1733 H 0.43132 0.75449 0.25452 0.0
H1734 H 0.41777 0.73353 0.2387 0.0
H1735 H 0.44317 0.748 0.19967 0.0
H1736 H 0.45633 0.7692 0.21556 0.0
H1737 H 0.47917 0.7943 0.24526 0.0
H1738 H 0.50359 0.79036 0.25305 0.0
H1739 H 0.48358 0.74711 0.26403 0.0
N1740 N 0.45333 0.77586 0.24512 0.0
H1741 H 0.45919 0.75168 0.25736 0.0
C1742 C 0.56416 0.76997 0.27975 0.0
C1743 C 0.57433 0.77768 0.27002 0.0
C1744 C 0.5854 0.78908 0.27584 0.0
C1745 C 0.58644 0.79314 0.29148 0.0
C1746 C 0.57569 0.78595 0.3011 0.0
C1747 C 0.56472 0.77445 0.29526 0.0
C1748 C 0.56049 0.74563 0.26531 0.0
C1749 C 0.56645 0.73549 0.27268 0.0
C1750 C 0.57509 0.72566 0.26474 0.0
C1751 C 0.57801 0.7258 0.24919 0.0
C1752 C 0.57146 0.73553 0.24168 0.0
C1753 C 0.5628 0.74533 0.24963 0.0
C1754 C 0.53939 0.75976 0.26994 0.0
C1755 C 0.53803 0.7686 0.2586 0.0
C1756 C 0.5239 0.77122 0.25495 0.0
C1757 C 0.51084 0.7654 0.26282 0.0
C1758 C 0.51235 0.75676 0.27434 0.0
C1759 C 0.52646 0.7539 0.27775 0.0
C1760 C 0.44473 0.78467 0.25552 0.0
C1761 C 0.43913 0.79636 0.25043 0.0
C1762 C 0.43065 0.80513 0.26008 0.0
C1763 C 0.42757 0.80238 0.2751 0.0
C1764 C 0.43317 0.79058 0.28019 0.0
C1765 C 0.44163 0.78179 0.27049 0.0
C1766 C 0.44476 0.76354 0.23615 0.0
C1767 C 0.43385 0.75327 0.24255 0.0
C1768 C 0.4262 0.74118 0.2335 0.0
C1769 C 0.42934 0.73908 0.2179 0.0
C1770 C 0.44026 0.7494 0.21159 0.0
C1771 C 0.44785 0.76148 0.22063 0.0
C1772 C 0.46739 0.77327 0.25046 0.0
C1773 C 0.4801 0.78404 0.2495 0.0
C1774 C 0.49409 0.78166 0.2538 0.0
C1775 C 0.49574 0.76829 0.25898 0.0
C1776 C 0.48285 0.75761 0.26026 0.0
C1777 C 0.46881 0.76014 0.25625 0.0
H1778 H 0.63123 0.32905 0.35216 0.0
N1779 N 0.61457 0.32321 0.32786 0.0
H1780 H 0.63931 0.31142 0.36699 0.0
H1781 H 0.60553 0.29324 0.32427 0.0
H1782 H 0.61389 0.2755 0.33867 0.0
H1783 H 0.60987 0.30407 0.30193 0.0
H1784 H 0.62504 0.30482 0.27858 0.0
H1785 H 0.63991 0.34129 0.32299 0.0
H1786 H 0.65508 0.34224 0.2996 0.0
H1787 H 0.58994 0.3135 0.34556 0.0
H1788 H 0.60305 0.33669 0.30676 0.0
H1789 H 0.5639 0.31564 0.34207 0.0
H1790 H 0.57702 0.33854 0.30334 0.0
H1791 H 0.48008 0.33079 0.32878 0.0
H1792 H 0.46181 0.30956 0.33505 0.0
H1793 H 0.49239 0.28022 0.31642 0.0
H1794 H 0.51035 0.30127 0.3098 0.0
H1795 H 0.49942 0.31298 0.2875 0.0
H1796 H 0.48873 0.32028 0.26574 0.0
H1797 H 0.49277 0.36511 0.28762 0.0
H1798 H 0.50294 0.35749 0.30971 0.0
H1799 H 0.52156 0.33788 0.33938 0.0
H1800 H 0.54791 0.33617 0.34324 0.0
H1801 H 0.55315 0.32041 0.2961 0.0
N1802 N 0.50638 0.33038 0.31418 0.0
H1803 H 0.52695 0.32189 0.29233 0.0
C1804 C 0.61784 0.31251 0.33714 0.0
C1805 C 0.62726 0.31738 0.34933 0.0
C1806 C 0.63196 0.30728 0.35768 0.0
C1807 C 0.62735 0.29203 0.35394 0.0
C1808 C 0.61756 0.28716 0.34193 0.0
C1809 C 0.61287 0.29729 0.33358 0.0
C1810 C 0.62379 0.32271 0.31421 0.0
C1811 C 0.61986 0.31226 0.3016 0.0
C1812 C 0.62846 0.31278 0.28822 0.0
C1813 C 0.64121 0.32361 0.28726 0.0
C1814 C 0.64539 0.33368 0.30005 0.0
C1815 C 0.63673 0.33322 0.31337 0.0
C1816 C 0.59877 0.32386 0.32573 0.0
C1817 C 0.58738 0.31865 0.33602 0.0
C1818 C 0.5724 0.32006 0.33419 0.0
C1819 C 0.56841 0.32694 0.32222 0.0
C1820 C 0.57972 0.33277 0.31239 0.0
C1821 C 0.59467 0.33155 0.31432 0.0
C1822 C 0.49664 0.31773 0.319 0.0
C1823 C 0.48289 0.31979 0.32624 0.0
C1824 C 0.47249 0.30771 0.32975 0.0
C1825 C 0.47579 0.29333 0.32626 0.0
C1826 C 0.4897 0.29124 0.3194 0.0
C1827 C 0.49998 0.30329 0.31563 0.0
C1828 C 0.50186 0.33472 0.30036 0.0
C1829 C 0.49811 0.3244 0.28761 0.0
C1830 C 0.49207 0.32863 0.27508 0.0
C1831 C 0.48975 0.34328 0.27493 0.0
C1832 C 0.49412 0.35368 0.28745 0.0
C1833 C 0.50007 0.34941 0.30002 0.0
C1834 C 0.52224 0.33026 0.31559 0.0
C1835 C 0.52846 0.33419 0.32987 0.0
C1836 C 0.54343 0.33309 0.33208 0.0
C1837 C 0.55254 0.32816 0.31996 0.0
C1838 C 0.5464 0.32439 0.30561 0.0
C1839 C 0.53138 0.3253 0.30344 0.0
H1840 H 0.23438 0.19579 0.1535 0.0
H1841 H 0.21829 0.22977 0.18469 0.0
H1842 H 0.23402 0.24872 0.17208 0.0
H1843 H 0.25187 0.25583 0.15201 0.0
H1844 H 0.26761 0.22232 0.12004 0.0
H1845 H 0.25273 0.20307 0.13329 0.0
C1846 C 0.23439 0.20734 0.15758 0.0
C1847 C 0.22509 0.2113 0.17001 0.0
C1848 C 0.24341 0.2183 0.15015 0.0
C1849 C 0.22523 0.22635 0.17511 0.0
C1850 C 0.23425 0.23723 0.16791 0.0
C1851 C 0.25195 0.24432 0.14782 0.0
C1852 C 0.26075 0.24056 0.13495 0.0
C1853 C 0.24325 0.23335 0.15535 0.0
C1854 C 0.26101 0.22556 0.12996 0.0
C1855 C 0.25244 0.21453 0.13749 0.0
H1856 H 0.81239 0.17417 0.12682 0.0
H1857 H 0.85731 0.17926 0.10734 0.0
H1858 H 0.84951 0.19267 0.08808 0.0
H1859 H 0.83036 0.20463 0.07799 0.0
H1860 H 0.78543 0.1993 0.09737 0.0
H1861 H 0.79271 0.18409 0.11526 0.0
C1862 C 0.82043 0.17811 0.11828 0.0
C1863 C 0.83544 0.17588 0.11862 0.0
C1864 C 0.81586 0.18576 0.10721 0.0
C1865 C 0.84569 0.18086 0.10736 0.0
C1866 C 0.84126 0.18857 0.09636 0.0
C1867 C 0.82216 0.2 0.08604 0.0
C1868 C 0.80742 0.20313 0.08642 0.0
C1869 C 0.82645 0.19134 0.09636 0.0
C1870 C 0.79682 0.19694 0.09677 0.0
C1871 C 0.801 0.18835 0.10709 0.0
H1872 H 0.84763 0.85248 0.15724 0.0
H1873 H 0.88039 0.82647 0.16784 0.0
H1874 H 0.86717 0.80488 0.15252 0.0
H1875 H 0.84575 0.79319 0.13686 0.0
H1876 H 0.81342 0.81958 0.12603 0.0
H1877 H 0.82697 0.84116 0.14086 0.0
C1878 C 0.85194 0.84211 0.15619 0.0
C1879 C 0.86496 0.84111 0.16375 0.0
C1880 C 0.84429 0.82976 0.1474 0.0
C1881 C 0.8704 0.82758 0.16216 0.0
C1882 C 0.86282 0.81521 0.15342 0.0
C1883 C 0.84177 0.8037 0.13759 0.0
C1884 C 0.82849 0.80469 0.13042 0.0
C1885 C 0.84969 0.81615 0.14608 0.0
C1886 C 0.82342 0.8184 0.13164 0.0
C1887 C 0.83122 0.83079 0.14005 0.0
H1888 H 0.26763 0.80082 0.153 0.0
H1889 H 0.23047 0.79788 0.12368 0.0
H1890 H 0.24379 0.7843 0.10355 0.0
H1891 H 0.26628 0.77367 0.09413 0.0
H1892 H 0.30392 0.7779 0.12305 0.0
H1893 H 0.29018 0.79062 0.1435 0.0
C1894 C 0.26241 0.79712 0.14223 0.0
C1895 C 0.24806 0.80026 0.13985 0.0
C1896 C 0.27026 0.78963 0.13063 0.0
C1897 C 0.24152 0.79559 0.12578 0.0
C1898 C 0.24912 0.78783 0.11427 0.0
C1899 C 0.2714 0.77733 0.10495 0.0
C1900 C 0.28603 0.77487 0.10715 0.0
C1901 C 0.26353 0.78484 0.11655 0.0
C1902 C 0.29268 0.77979 0.12112 0.0
C1903 C 0.28482 0.78701 0.13281 0.0
H1904 H 0.22733 0.82397 0.92548 0.0
H1905 H 0.25067 0.81965 0.88235 0.0
H1906 H 0.26879 0.80702 0.89278 0.0
H1907 H 0.27797 0.79711 0.91417 0.0
H1908 H 0.2537 0.79978 0.9568 0.0
H1909 H 0.23591 0.81313 0.94662 0.0
C1910 C 0.23642 0.8203 0.9184 0.0
C1911 C 0.23774 0.82281 0.90321 0.0
C1912 C 0.24659 0.81274 0.92439 0.0
C1913 C 0.24942 0.81782 0.89408 0.0
C1914 C 0.25979 0.81062 0.90004 0.0
C1915 C 0.26879 0.80069 0.9212 0.0
C1916 C 0.26714 0.79765 0.9362 0.0
C1917 C 0.25848 0.80802 0.91517 0.0
C1918 C 0.25513 0.80207 0.94521 0.0
C1919 C 0.24501 0.80969 0.9394 0.0
H1920 H 0.21695 0.18828 0.95163 0.0
H1921 H 0.20749 0.21257 0.91617 0.0
H1922 H 0.22174 0.23513 0.92891 0.0
H1923 H 0.23773 0.2477 0.94967 0.0
H1924 H 0.24681 0.22329 0.98528 0.0
H1925 H 0.23216 0.20097 0.97274 0.0
C1926 C 0.21797 0.19853 0.94671 0.0
C1927 C 0.21097 0.19879 0.93309 0.0
C1928 C 0.22628 0.2114 0.95404 0.0
C1929 C 0.21239 0.21214 0.92685 0.0
C1930 C 0.2207 0.22501 0.93405 0.0
C1931 C 0.23635 0.23756 0.95481 0.0
C1932 C 0.24349 0.23721 0.96838 0.0
C1933 C 0.22774 0.22476 0.94763 0.0
C1934 C 0.24172 0.22386 0.97472 0.0
C1935 C 0.23324 0.21109 0.96761 0.0
H1936 H 0.82332 0.23066 0.85946 0.0
H1937 H 0.85337 0.21957 0.8906 0.0
H1938 H 0.83523 0.22343 0.91134 0.0
H1939 H 0.81099 0.23047 0.92066 0.0
H1940 H 0.78063 0.24083 0.88937 0.0
H1941 H 0.79867 0.2367 0.86859 0.0
C1942 C 0.82586 0.22909 0.8708 0.0
C1943 C 0.83958 0.22478 0.87354 0.0
C1944 C 0.81533 0.2312 0.8826 0.0
C1945 C 0.84275 0.22266 0.88822 0.0
C1946 C 0.83244 0.22496 0.90008 0.0
C1947 C 0.80838 0.23182 0.90927 0.0
C1948 C 0.79459 0.23602 0.9065 0.0
C1949 C 0.81872 0.22929 0.8974 0.0
C1950 C 0.79117 0.23754 0.89171 0.0
C1951 C 0.80149 0.23524 0.87987 0.0
H1952 H 0.83727 0.83811 0.92114 0.0
H1953 H 0.83153 0.79823 0.88977 0.0
H1954 H 0.81781 0.78465 0.909 0.0
H1955 H 0.8073 0.78395 0.93457 0.0
H1956 H 0.81312 0.82344 0.96637 0.0
H1957 H 0.82679 0.83731 0.9471 0.0
C1958 C 0.83298 0.82646 0.91851 0.0
C1959 C 0.83545 0.81923 0.904 0.0
C1960 C 0.8251 0.81862 0.92969 0.0
C1961 C 0.82983 0.80411 0.90082 0.0
C1962 C 0.82197 0.7963 0.91182 0.0
C1963 C 0.81173 0.79555 0.93737 0.0
C1964 C 0.80926 0.8026 0.95193 0.0
C1965 C 0.81958 0.80342 0.92629 0.0
C1966 C 0.81478 0.81774 0.95523 0.0
C1967 C 0.82264 0.82567 0.94422 0.0
H1968 H 0.1422 0.19105 0.22863 0.0
H1969 H 0.14004 0.22092 0.19578 0.0
H1970 H 0.11807 0.22909 0.20892 0.0
H1971 H 0.10021 0.22878 0.23044 0.0
H1972 H 0.10233 0.19919 0.2635 0.0
H1973 H 0.12336 0.18975 0.24947 0.0
C1974 C 0.13685 0.19926 0.22428 0.0
C1975 C 0.14287 0.20543 0.21129 0.0
C1976 C 0.12419 0.20399 0.23194 0.0
C1977 C 0.13573 0.21601 0.20579 0.0
C1978 C 0.12315 0.22073 0.21331 0.0
C1979 C 0.10527 0.22025 0.23456 0.0
C1980 C 0.09977 0.21477 0.24803 0.0
C1981 C 0.11743 0.21497 0.22652 0.0
C1982 C 0.10628 0.20353 0.25309 0.0
C1983 C 0.11837 0.1982 0.24513 0.0
H1984 H 0.81899 0.11546 0.18871 0.0
H1985 H 0.85394 0.10762 0.21649 0.0
H1986 H 0.8352 0.09452 0.23251 0.0
H1987 H 0.80889 0.08641 0.23949 0.0
H1988 H 0.77377 0.09424 0.21207 0.0
H1989 H 0.79257 0.10608 0.19496 0.0
C1990 C 0.82252 0.11076 0.19818 0.0
C1991 C 0.83786 0.11264 0.20144 0.0
C1992 C 0.81165 0.1033 0.20746 0.0
C1993 C 0.84222 0.10643 0.21374 0.0
C1994 C 0.83151 0.09895 0.22295 0.0
C1995 C 0.80537 0.09074 0.22978 0.0
C1996 C 0.78999 0.08961 0.22713 0.0
C1997 C 0.8162 0.09754 0.22007 0.0
C1998 C 0.78556 0.09497 0.21433 0.0
C1999 C 0.7963 0.10178 0.20459 0.0
H2000 H 0.94627 0.85929 0.20666 0.0
H2001 H 0.91601 0.86786 0.2444 0.0
H2002 H 0.93369 0.86189 0.26151 0.0
H2003 H 0.95745 0.85373 0.26575 0.0
H2004 H 0.98742 0.84417 0.22815 0.0
H2005 H 0.97016 0.85101 0.21095 0.0
C2006 C 0.94357 0.85989 0.21863 0.0
C2007 C 0.92983 0.86403 0.22423 0.0
C2008 C 0.95373 0.85626 0.22842 0.0
C2009 C 0.92646 0.86466 0.23977 0.0
C2010 C 0.93659 0.86127 0.24958 0.0
C2011 C 0.96029 0.85334 0.25381 0.0
C2012 C 0.97374 0.84861 0.24822 0.0
C2013 C 0.95022 0.85703 0.24403 0.0
C2014 C 0.97713 0.8478 0.23269 0.0
C2015 C 0.96727 0.85171 0.22288 0.0
H2016 H 0.22987 0.88953 0.18901 0.0
H2017 H 0.26786 0.8667 0.1789 0.0
H2018 H 0.28475 0.88866 0.1893 0.0
H2019 H 0.28832 0.91332 0.20388 0.0
H2020 H 0.25007 0.93536 0.21548 0.0
H2021 H 0.23367 0.91478 0.20182 0.0
C2022 C 0.24187 0.88944 0.18881 0.0
C2023 C 0.24758 0.87647 0.18327 0.0
C2024 C 0.25145 0.90192 0.19523 0.0
C2025 C 0.26316 0.87652 0.18319 0.0
C2026 C 0.27283 0.88905 0.18916 0.0
C2027 C 0.27644 0.91371 0.20312 0.0
C2028 C 0.27036 0.92575 0.21068 0.0
C2029 C 0.26704 0.90167 0.19561 0.0
C2030 C 0.25494 0.92611 0.20982 0.0
C2031 C 0.24558 0.91437 0.20203 0.0
H2032 H 0.15924 0.83292 0.79066 0.0
H2033 H 0.13493 0.85375 0.82781 0.0
H2034 H 0.11122 0.84046 0.81776 0.0
H2035 H 0.09749 0.82167 0.79933 0.0
H2036 H 0.12192 0.80054 0.7625 0.0
H2037 H 0.1454 0.81536 0.77139 0.0
C2038 C 0.14876 0.83467 0.7965 0.0
C2039 C 0.14891 0.84422 0.81005 0.0
C2040 C 0.13515 0.82691 0.79072 0.0
C2041 C 0.13518 0.84642 0.81739 0.0
C2042 C 0.12159 0.83879 0.81167 0.0
C2043 C 0.10796 0.82035 0.79323 0.0
C2044 C 0.10794 0.80997 0.78031 0.0
C2045 C 0.12147 0.82879 0.79851 0.0
C2046 C 0.12157 0.80855 0.77239 0.0
C2047 C 0.13504 0.81695 0.77753 0.0
H2048 H 0.22445 0.11478 0.88947 0.0
H2049 H 0.20861 0.14288 0.8609 0.0
H2050 H 0.22041 0.13039 0.83894 0.0
H2051 H 0.23473 0.11116 0.82775 0.0
H2052 H 0.2499 0.08252 0.85616 0.0
H2053 H 0.23908 0.09573 0.8783 0.0
C2054 C 0.22362 0.11822 0.87846 0.0
C2055 C 0.21561 0.12973 0.87685 0.0
C2056 C 0.23035 0.11092 0.86584 0.0
C2057 C 0.21467 0.13404 0.86247 0.0
C2058 C 0.22141 0.1269 0.84989 0.0
C2059 C 0.23559 0.10773 0.83877 0.0
C2060 C 0.24308 0.09582 0.84025 0.0
C2061 C 0.22917 0.11524 0.85143 0.0
C2062 C 0.24435 0.09174 0.85468 0.0
C2063 C 0.23807 0.09923 0.86735 0.0
H2064 H 0.90347 0.27103 0.82552 0.0
H2065 H 0.92282 0.23356 0.83477 0.0
H2066 H 0.94798 0.24796 0.83355 0.0
H2067 H 0.96453 0.27093 0.8288 0.0
H2068 H 0.94499 0.30832 0.8197 0.0
H2069 H 0.91984 0.29427 0.82211 0.0
C2070 C 0.91318 0.26602 0.82733 0.0
C2071 C 0.91129 0.25122 0.83011 0.0
C2072 C 0.92758 0.27436 0.82666 0.0
C2073 C 0.92398 0.24494 0.83258 0.0
C2074 C 0.93837 0.25315 0.83186 0.0
C2075 C 0.95474 0.27598 0.82739 0.0
C2076 C 0.9566 0.29062 0.82405 0.0
C2077 C 0.94031 0.26782 0.82873 0.0
C2078 C 0.94384 0.29712 0.82243 0.0
C2079 C 0.92947 0.28906 0.8237 0.0
H2080 H 0.85649 0.92194 0.84402 0.0
H2081 H 0.82144 0.88415 0.8374 0.0
H2082 H 0.80617 0.89858 0.82544 0.0
H2083 H 0.80274 0.92176 0.81674 0.0
H2084 H 0.83736 0.95983 0.82364 0.0
H2085 H 0.85291 0.94539 0.8354 0.0
C2086 C 0.84552 0.91686 0.83995 0.0
C2087 C 0.84014 0.90196 0.84163 0.0
C2088 C 0.83673 0.92525 0.83309 0.0
C2089 C 0.82588 0.89558 0.83629 0.0
C2090 C 0.81712 0.90382 0.82944 0.0
C2091 C 0.8136 0.92698 0.82099 0.0
C2092 C 0.8188 0.94191 0.81939 0.0
C2093 C 0.82241 0.91866 0.82781 0.0
C2094 C 0.8331 0.94835 0.82462 0.0
C2095 C 0.84197 0.94011 0.83142 0.0
H2096 H 0.21818 0.1211 0.19514 0.0
H2097 H 0.23595 0.1599 0.2248 0.0
H2098 H 0.25151 0.14562 0.23663 0.0
H2099 H 0.26034 0.12223 0.23839 0.0
H2100 H 0.24201 0.08308 0.20966 0.0
H2101 H 0.22628 0.0973 0.1977 0.0
C2102 C 0.22547 0.12641 0.20419 0.0
C2103 C 0.22597 0.14157 0.20902 0.0
C2104 C 0.23425 0.11806 0.21112 0.0
C2105 C 0.23534 0.14826 0.22087 0.0
C2106 C 0.24426 0.14011 0.22763 0.0
C2107 C 0.25292 0.11684 0.22947 0.0
C2108 C 0.25241 0.10168 0.22479 0.0
C2109 C 0.24385 0.12504 0.22281 0.0
C2110 C 0.24256 0.09474 0.21344 0.0
C2111 C 0.23362 0.10288 0.20659 0.0
H2112 H 0.24207 0.88213 0.86311 0.0
H2113 H 0.20018 0.88856 0.84582 0.0
H2114 H 0.21338 0.90839 0.83235 0.0
H2115 H 0.23696 0.92406 0.82555 0.0
H2116 H 0.27864 0.9177 0.84342 0.0
H2117 H 0.26533 0.89794 0.85684 0.0
C2118 C 0.23578 0.88788 0.85643 0.0
C2119 C 0.22016 0.88359 0.85524 0.0
C2120 C 0.24342 0.89941 0.84891 0.0
C2121 C 0.21223 0.89123 0.84657 0.0
C2122 C 0.21977 0.90272 0.83898 0.0
C2123 C 0.24312 0.9183 0.83234 0.0
C2124 C 0.25877 0.92241 0.83352 0.0
C2125 C 0.23539 0.90686 0.84001 0.0
C2126 C 0.26657 0.91493 0.84249 0.0
C2127 C 0.25898 0.90355 0.8501 0.0
H2128 H 0.17736 0.2594 0.89674 0.0
H2129 H 0.14339 0.22068 0.89052 0.0
H2130 H 0.12805 0.23399 0.87721 0.0
H2131 H 0.12467 0.25635 0.86648 0.0
H2132 H 0.15906 0.29477 0.87207 0.0
H2133 H 0.17363 0.28194 0.8867 0.0
C2134 C 0.16657 0.25388 0.89255 0.0
C2135 C 0.16161 0.23902 0.89457 0.0
C2136 C 0.15782 0.26157 0.88481 0.0
C2137 C 0.14755 0.23208 0.88909 0.0
C2138 C 0.13875 0.23969 0.88146 0.0
C2139 C 0.13536 0.26191 0.87088 0.0
C2140 C 0.14071 0.27652 0.86815 0.0
C2141 C 0.14385 0.25438 0.8791 0.0
C2142 C 0.15451 0.28362 0.87416 0.0
C2143 C 0.16295 0.27624 0.88243 0.0
H2144 H 0.80116 0.1631 0.85888 0.0
H2145 H 0.83985 0.14422 0.86833 0.0
H2146 H 0.82982 0.12113 0.85329 0.0
H2147 H 0.81187 0.10764 0.8347 0.0
H2148 H 0.77407 0.12721 0.82408 0.0
H2149 H 0.78176 0.14852 0.84257 0.0
C2150 C 0.80728 0.15385 0.8579 0.0
C2151 C 0.82137 0.15549 0.8645 0.0
C2152 C 0.80165 0.14075 0.8489 0.0
C2153 C 0.82906 0.14333 0.86323 0.0
C2154 C 0.82336 0.13013 0.85457 0.0
C2155 C 0.80525 0.11651 0.83654 0.0
C2156 C 0.79254 0.11593 0.82787 0.0
C2157 C 0.80997 0.12893 0.84689 0.0
C2158 C 0.78387 0.12734 0.83063 0.0
C2159 C 0.78833 0.13961 0.84112 0.0
H2160 H 0.90059 0.86003 0.82277 0.0
H2161 H 0.88597 0.81978 0.84267 0.0
H2162 H 0.90063 0.80645 0.8238 0.0
H2163 H 0.91725 0.80596 0.80146 0.0
H2164 H 0.93266 0.84611 0.78174 0.0
H2165 H 0.9179 0.85963 0.80057 0.0
C2166 C 0.90062 0.84835 0.82298 0.0
C2167 C 0.89215 0.84096 0.83416 0.0
C2168 C 0.90917 0.84068 0.81208 0.0
C2169 C 0.89237 0.8258 0.83425 0.0
C2170 C 0.90076 0.81813 0.82344 0.0
C2171 C 0.91758 0.81771 0.80139 0.0
C2172 C 0.92611 0.82498 0.79019 0.0
C2173 C 0.90919 0.82544 0.81231 0.0
C2174 C 0.92609 0.84017 0.79011 0.0
C2175 C 0.9177 0.84794 0.80093 0.0
H2176 H 0.85558 0.92519 0.21869 0.0
H2177 H 0.85598 0.8955 0.25209 0.0
H2178 H 0.8412 0.91036 0.26949 0.0
H2179 H 0.82637 0.93052 0.27443 0.0
H2180 H 0.82579 0.96014 0.24105 0.0
H2181 H 0.84234 0.94649 0.22442 0.0
C2182 C 0.85259 0.92205 0.22984 0.0
C2183 C 0.85679 0.90916 0.23401 0.0
C2184 C 0.84391 0.93054 0.23975 0.0
C2185 C 0.85284 0.90531 0.24853 0.0
C2186 C 0.84435 0.91379 0.2585 0.0
C2187 C 0.83009 0.93418 0.26365 0.0
C2188 C 0.82474 0.94629 0.25897 0.0
C2189 C 0.83956 0.92625 0.25411 0.0
C2190 C 0.82954 0.95073 0.24484 0.0
C2191 C 0.83905 0.94296 0.23534 0.0
H2192 H 0.19579 0.83902 0.23555 0.0
H2193 H 0.16596 0.81566 0.20115 0.0
H2194 H 0.14742 0.80784 0.22051 0.0
H2195 H 0.13921 0.80869 0.24717 0.0
H2196 H 0.16908 0.83226 0.28142 0.0
H2197 H 0.18805 0.83906 0.2621 0.0
C2198 C 0.18528 0.83213 0.23226 0.0
C2199 C 0.18225 0.82798 0.21691 0.0
C2200 C 0.17463 0.82782 0.24342 0.0
C2201 C 0.16857 0.81904 0.21288 0.0
C2202 C 0.15795 0.81458 0.22394 0.0
C2203 C 0.14995 0.81515 0.25041 0.0
C2204 C 0.15271 0.82002 0.26571 0.0
C2205 C 0.1608 0.81905 0.23924 0.0
C2206 C 0.1666 0.82855 0.26971 0.0
C2207 C 0.17748 0.83238 0.25868 0.0
H2208 H 0.90254 0.1763 0.1946 0.0
H2209 H 0.87673 0.20606 0.1782 0.0
H2210 H 0.89255 0.2271 0.19174 0.0
H2211 H 0.91308 0.23697 0.20905 0.0
H2212 H 0.93914 0.20714 0.22494 0.0
H2213 H 0.92368 0.18621 0.21095 0.0
C2214 C 0.90039 0.18738 0.19391 0.0
C2215 C 0.88841 0.18956 0.18543 0.0
C2216 C 0.90949 0.19943 0.20176 0.0
C2217 C 0.88586 0.20403 0.18464 0.0
C2218 C 0.89489 0.21609 0.19241 0.0
C2219 C 0.91551 0.22592 0.20931 0.0
C2220 C 0.9272 0.22366 0.21815 0.0
C2221 C 0.90665 0.2139 0.20111 0.0
C2222 C 0.93004 0.20921 0.21848 0.0
C2223 C 0.92127 0.19722 0.2104 0.0
H2224 H 0.20781 0.70941 0.659 0.0
H2225 H 0.22427 0.66774 0.65245 0.0
H2226 H 0.24398 0.6777 0.63515 0.0
H2227 H 0.25682 0.6984 0.62228 0.0
H2228 H 0.2409 0.74035 0.62998 0.0
H2229 H 0.22054 0.72998 0.64619 0.0
C2230 C 0.21565 0.70244 0.65375 0.0
C2231 C 0.21454 0.68783 0.65705 0.0
C2232 C 0.22704 0.70827 0.64396 0.0
C2233 C 0.22486 0.67903 0.65015 0.0
C2234 C 0.23614 0.68472 0.64025 0.0
C2235 C 0.24897 0.70532 0.62758 0.0
C2236 C 0.25044 0.72016 0.62483 0.0
C2237 C 0.23741 0.69937 0.63717 0.0
C2238 C 0.23996 0.72885 0.63163 0.0
C2239 C 0.22836 0.72296 0.64103 0.0
H2240 H 0.82972 0.67367 0.63138 0.0
H2241 H 0.79628 0.69188 0.66078 0.0
H2242 H 0.78977 0.70513 0.64083 0.0
H2243 H 0.79516 0.71333 0.61599 0.0
H2244 H 0.82842 0.69517 0.58633 0.0
H2245 H 0.83347 0.68018 0.60551 0.0
C2246 C 0.82089 0.6804 0.63337 0.0
C2247 C 0.8136 0.68187 0.64762 0.0
C2248 C 0.81727 0.68811 0.62187 0.0
C2249 C 0.80213 0.69058 0.64997 0.0
C2250 C 0.79841 0.6982 0.63857 0.0
C2251 C 0.80325 0.70583 0.61352 0.0
C2252 C 0.81144 0.70545 0.59973 0.0
C2253 C 0.80612 0.69729 0.62459 0.0
C2254 C 0.8221 0.69585 0.59692 0.0
C2255 C 0.82497 0.68724 0.60787 0.0
H2256 H 0.90137 0.32634 0.63903 0.0
H2257 H 0.87352 0.33219 0.67914 0.0
H2258 H 0.85237 0.31616 0.66653 0.0
H2259 H 0.84198 0.30003 0.6442 0.0
H2260 H 0.86992 0.29469 0.60398 0.0
H2261 H 0.89089 0.31072 0.61664 0.0
C2262 C 0.89067 0.32408 0.64502 0.0
C2263 C 0.88894 0.33063 0.65991 0.0
C2264 C 0.8786 0.31484 0.63771 0.0
C2265 C 0.87502 0.32763 0.66753 0.0
C2266 C 0.86297 0.31834 0.66036 0.0
C2267 C 0.85259 0.3025 0.63813 0.0
C2268 C 0.85434 0.29605 0.62316 0.0
C2269 C 0.86462 0.3119 0.64543 0.0
C2270 C 0.86828 0.29925 0.61558 0.0
C2271 C 0.88029 0.3085 0.62278 0.0
H2272 H 0.21786 0.30389 0.62502 0.0
H2273 H 0.25058 0.29816 0.65643 0.0
H2274 H 0.26509 0.28663 0.63592 0.0
H2275 H 0.26866 0.2784 0.60903 0.0
H2276 H 0.23563 0.28324 0.57764 0.0
H2277 H 0.22098 0.29482 0.59817 0.0
C2278 C 0.22816 0.30011 0.62736 0.0
C2279 C 0.23317 0.30194 0.64221 0.0
C2280 C 0.23638 0.29333 0.61553 0.0
C2281 C 0.24647 0.29686 0.6451 0.0
C2282 C 0.25479 0.2903 0.63338 0.0
C2283 C 0.25828 0.28206 0.60672 0.0
C2284 C 0.25325 0.28011 0.5919 0.0
C2285 C 0.24989 0.28853 0.61856 0.0
C2286 C 0.23967 0.28462 0.58901 0.0
C2287 C 0.23134 0.29127 0.60072 0.0
H2288 H 0.19225 0.30249 0.39405 0.0
H2289 H 0.21851 0.29368 0.35332 0.0
H2290 H 0.23339 0.27968 0.36641 0.0
H2291 H 0.2384 0.26921 0.38921 0.0
H2292 H 0.21134 0.27695 0.42954 0.0
H2293 H 0.19728 0.29207 0.41685 0.0
C2294 C 0.2013 0.2976 0.38807 0.0
C2295 C 0.2043 0.29916 0.37275 0.0
C2296 C 0.20961 0.28931 0.39558 0.0
C2297 C 0.21596 0.29262 0.36511 0.0
C2298 C 0.22448 0.28461 0.37258 0.0
C2299 C 0.22951 0.27435 0.39523 0.0
C2300 C 0.22591 0.27204 0.41027 0.0
C2301 C 0.22133 0.28279 0.38778 0.0
C2302 C 0.21423 0.27853 0.41792 0.0
C2303 C 0.20623 0.28719 0.41068 0.0
H2304 H 0.19543 0.71513 0.41488 0.0
H2305 H 0.20939 0.67246 0.41289 0.0
H2306 H 0.22905 0.68277 0.43076 0.0
H2307 H 0.24291 0.70411 0.44623 0.0
H2308 H 0.22929 0.74685 0.44749 0.0
H2309 H 0.20873 0.73621 0.43084 0.0
C2310 C 0.2027 0.70804 0.4184 0.0
C2311 C 0.20095 0.69305 0.41246 0.0
C2312 C 0.21405 0.71404 0.42859 0.0
C2313 C 0.21048 0.68404 0.41722 0.0
C2314 C 0.22176 0.68993 0.42744 0.0
C2315 C 0.23546 0.7111 0.44283 0.0
C2316 C 0.23767 0.72627 0.44812 0.0
C2317 C 0.22376 0.70495 0.43305 0.0
C2318 C 0.22776 0.73512 0.44378 0.0
C2319 C 0.21605 0.72907 0.43415 0.0
H2320 H 0.85081 0.71675 0.37148 0.0
H2321 H 0.81597 0.7286 0.34639 0.0
H2322 H 0.79966 0.7294 0.36895 0.0
H2323 H 0.79579 0.72787 0.39594 0.0
H2324 H 0.83045 0.71589 0.42119 0.0
H2325 H 0.84626 0.71362 0.39829 0.0
C2326 C 0.8395 0.71907 0.37085 0.0
C2327 C 0.8345 0.72234 0.35724 0.0
C2328 C 0.83019 0.71951 0.38387 0.0
C2329 C 0.82006 0.72602 0.35676 0.0
C2330 C 0.81072 0.72644 0.36963 0.0
C2331 C 0.80666 0.72443 0.39639 0.0
C2332 C 0.81191 0.722 0.41023 0.0
C2333 C 0.81571 0.72331 0.38326 0.0
C2334 C 0.82619 0.7179 0.41067 0.0
C2335 C 0.83523 0.71661 0.3976 0.0
H2336 H 0.86946 0.32149 0.42154 0.0
H2337 H 0.83781 0.34827 0.41001 0.0
H2338 H 0.8197 0.33811 0.42865 0.0
H2339 H 0.81234 0.32054 0.44719 0.0
H2340 H 0.84405 0.2937 0.45839 0.0
H2341 H 0.86262 0.30491 0.44082 0.0
C2342 C 0.85865 0.3252 0.42315 0.0
C2343 C 0.85499 0.33558 0.41431 0.0
C2344 C 0.84825 0.31921 0.43375 0.0
C2345 C 0.84092 0.34027 0.41662 0.0
C2346 C 0.83054 0.33444 0.42726 0.0
C2347 C 0.82339 0.31731 0.44595 0.0
C2348 C 0.82677 0.30623 0.45403 0.0
C2349 C 0.83401 0.32377 0.43576 0.0
C2350 C 0.84109 0.30204 0.45215 0.0
C2351 C 0.85173 0.30849 0.44215 0.0
H2352 H 0.11554 0.69349 0.69122 0.0
H2353 H 0.14462 0.70092 0.72922 0.0
H2354 H 0.1263 0.71347 0.74444 0.0
H2355 H 0.10311 0.72418 0.74631 0.0
H2356 H 0.07388 0.71674 0.70845 0.0
H2357 H 0.09126 0.70244 0.6938 0.0
C2358 C 0.11782 0.69772 0.70287 0.0
C2359 C 0.13153 0.69637 0.709 0.0
C2360 C 0.10728 0.70506 0.71155 0.0
C2361 C 0.13422 0.70185 0.72417 0.0
C2362 C 0.12375 0.70907 0.73289 0.0
C2363 C 0.10034 0.71917 0.73498 0.0
C2364 C 0.08722 0.72163 0.72849 0.0
C2365 C 0.11039 0.71099 0.72661 0.0
C2366 C 0.084 0.71523 0.71367 0.0
C2367 C 0.09391 0.707 0.70529 0.0
H2368 H 0.82705 0.61197 0.69746 0.0
H2369 H 0.83363 0.64552 0.73579 0.0
H2370 H 0.82222 0.62776 0.75244 0.0
H2371 H 0.81089 0.60269 0.75635 0.0
H2372 H 0.80416 0.56881 0.71845 0.0
H2373 H 0.81491 0.58673 0.70138 0.0
C2374 C 0.82594 0.61539 0.70944 0.0
C2375 C 0.83128 0.63007 0.71534 0.0
C2376 C 0.81933 0.60507 0.71904 0.0
C2377 C 0.82968 0.63432 0.73091 0.0
C2378 C 0.82316 0.62416 0.74047 0.0
C2379 C 0.81187 0.59919 0.74436 0.0
C2380 C 0.8069 0.58442 0.73869 0.0
C2381 C 0.81807 0.6095 0.73469 0.0
C2382 C 0.80789 0.58014 0.72309 0.0
C2383 C 0.81409 0.59037 0.71334 0.0
H2384 H 0.97507 0.33888 0.70165 0.0
H2385 H 0.93854 0.35381 0.72905 0.0
H2386 H 0.95062 0.35022 0.75177 0.0
H2387 H 0.97155 0.34305 0.76391 0.0
H2388 H 0.00848 0.32872 0.73677 0.0
H2389 H 0.99615 0.33173 0.7139 0.0
C2390 C 0.96971 0.34128 0.71259 0.0
C2391 C 0.9559 0.34661 0.71362 0.0
C2392 C 0.97679 0.33932 0.72566 0.0
C2393 C 0.94916 0.34972 0.7279 0.0
C2394 C 0.95607 0.34769 0.74092 0.0
C2395 C 0.97702 0.34076 0.75301 0.0
C2396 C 0.99098 0.33576 0.75209 0.0
C2397 C 0.96992 0.34259 0.73994 0.0
C2398 C 0.9977 0.33249 0.73782 0.0
C2399 C 0.99068 0.33426 0.72474 0.0
H2400 H 0.2267 0.37586 0.69172 0.0
H2401 H 0.2634 0.35754 0.70713 0.0
H2402 H 0.27323 0.38144 0.72076 0.0
H2403 H 0.26904 0.40618 0.73156 0.0
H2404 H 0.23176 0.4242 0.71711 0.0
H2405 H 0.22454 0.40177 0.6998 0.0
C2406 C 0.23705 0.37716 0.69776 0.0
C2407 C 0.24415 0.36485 0.6986 0.0
C2408 C 0.2424 0.39083 0.70595 0.0
C2409 C 0.25759 0.36678 0.70643 0.0
C2410 C 0.2632 0.38044 0.71429 0.0
C2411 C 0.25961 0.40539 0.7243 0.0
C2412 C 0.25084 0.41676 0.72575 0.0
C2413 C 0.25534 0.39235 0.71463 0.0
C2414 C 0.23854 0.41549 0.71637 0.0
C2415 C 0.23441 0.40268 0.70648 0.0
H2416 H 0.12977 0.30795 0.36483 0.0
H2417 H 0.13482 0.33623 0.32949 0.0
H2418 H 0.11485 0.31993 0.31569 0.0
H2419 H 0.09727 0.29698 0.31272 0.0
H2420 H 0.0909 0.26897 0.34829 0.0
H2421 H 0.1103 0.28572 0.36276 0.0
C2422 C 0.1264 0.3106 0.35417 0.0
C2423 C 0.13388 0.32325 0.34818 0.0
C2424 C 0.11481 0.30116 0.34623 0.0
C2425 C 0.12931 0.32657 0.33439 0.0
C2426 C 0.1179 0.31723 0.32644 0.0
C2427 C 0.09978 0.29465 0.32379 0.0
C2428 C 0.09257 0.28165 0.32933 0.0
C2429 C 0.11073 0.30441 0.33214 0.0
C2430 C 0.0964 0.27874 0.34358 0.0
C2431 C 0.10744 0.28837 0.35192 0.0
H2432 H 0.20181 0.63645 0.33497 0.0
H2433 H 0.18544 0.61103 0.37125 0.0
H2434 H 0.20028 0.59199 0.36117 0.0
H2435 H 0.21905 0.58322 0.34285 0.0
H2436 H 0.23545 0.60876 0.3067 0.0
H2437 H 0.21931 0.62695 0.3158 0.0
C2438 C 0.20139 0.62669 0.34061 0.0
C2439 C 0.19261 0.62524 0.35391 0.0
C2440 C 0.20998 0.61579 0.33478 0.0
C2441 C 0.19212 0.61246 0.36101 0.0
C2442 C 0.20064 0.60157 0.35528 0.0
C2443 C 0.21904 0.59275 0.33695 0.0
C2444 C 0.22847 0.59465 0.32415 0.0
C2445 C 0.2098 0.60324 0.34231 0.0
C2446 C 0.22819 0.60695 0.31649 0.0
C2447 C 0.21904 0.61742 0.32175 0.0
H2448 H 0.91222 0.74467 0.31542 0.0
H2449 H 0.88742 0.77948 0.30919 0.0
H2450 H 0.91079 0.79686 0.30846 0.0
H2451 H 0.9383 0.80183 0.30809 0.0
H2452 H 0.96323 0.76693 0.31335 0.0
H2453 H 0.93975 0.7499 0.31601 0.0
C2454 C 0.91191 0.75609 0.31402 0.0
C2455 C 0.8981 0.76075 0.3123 0.0
C2456 C 0.92541 0.76598 0.3134 0.0
C2457 C 0.8979 0.77557 0.31046 0.0
C2458 C 0.91126 0.78553 0.31005 0.0
C2459 C 0.93857 0.79057 0.3101 0.0
C2460 C 0.95242 0.78562 0.31058 0.0
C2461 C 0.92507 0.78081 0.31132 0.0
C2462 C 0.95266 0.77093 0.31289 0.0
C2463 C 0.93926 0.76122 0.3144 0.0
H2464 H 0.84145 0.39361 0.32609 0.0
H2465 H 0.88134 0.42384 0.34006 0.0
H2466 H 0.87308 0.44302 0.32761 0.0
H2467 H 0.85448 0.45123 0.3127 0.0
H2468 H 0.81488 0.42066 0.29847 0.0
H2469 H 0.82299 0.40174 0.31126 0.0
C2470 C 0.84836 0.40439 0.32642 0.0
C2471 C 0.86201 0.40725 0.33399 0.0
C2472 C 0.84355 0.41537 0.31926 0.0
C2473 C 0.87079 0.42131 0.33431 0.0
C2474 C 0.86607 0.4323 0.32719 0.0
C2475 C 0.84766 0.44041 0.31234 0.0
C2476 C 0.83403 0.43746 0.3047 0.0
C2477 C 0.85247 0.42946 0.31961 0.0
C2478 C 0.82528 0.42339 0.30449 0.0
C2479 C 0.82996 0.41248 0.31171 0.0
H2480 H 0.22079 0.64031 0.72194 0.0
H2481 H 0.18311 0.60879 0.70465 0.0
H2482 H 0.19115 0.58981 0.71763 0.0
H2483 H 0.2085 0.58241 0.73466 0.0
H2484 H 0.24657 0.61384 0.75114 0.0
H2485 H 0.23888 0.63254 0.7376 0.0
C2486 C 0.21435 0.62928 0.72098 0.0
C2487 C 0.2013 0.626 0.71245 0.0
C2488 C 0.21915 0.61838 0.7283 0.0
C2489 C 0.1932 0.6116 0.71116 0.0
C2490 C 0.19777 0.60075 0.7186 0.0
C2491 C 0.21512 0.59334 0.7352 0.0
C2492 C 0.22808 0.59674 0.74388 0.0
C2493 C 0.21066 0.60405 0.72731 0.0
C2494 C 0.23665 0.6109 0.7444 0.0
C2495 C 0.2322 0.62163 0.73674 0.0
H2496 H 0.21796 0.37728 0.35631 0.0
H2497 H 0.18626 0.36284 0.3209 0.0
H2498 H 0.19836 0.3825 0.30664 0.0
H2499 H 0.21802 0.40335 0.30399 0.0
H2500 H 0.252 0.41607 0.33757 0.0
H2501 H 0.23867 0.39792 0.35299 0.0
C2502 C 0.21374 0.37853 0.3455 0.0
C2503 C 0.20128 0.36867 0.33962 0.0
C2504 C 0.22108 0.3896 0.33708 0.0
C2505 C 0.19592 0.37026 0.32556 0.0
C2506 C 0.2028 0.38151 0.31743 0.0
C2507 C 0.22276 0.40206 0.31453 0.0
C2508 C 0.23614 0.41111 0.31944 0.0
C2509 C 0.21546 0.39114 0.32301 0.0
C2510 C 0.24165 0.40948 0.33348 0.0
C2511 C 0.2341 0.39896 0.34229 0.0
H2512 H 0.12852 0.73151 0.38118 0.0
H2513 H 0.14192 0.70705 0.33981 0.0
H2514 H 0.13207 0.72381 0.32526 0.0
H2515 H 0.12165 0.74673 0.32441 0.0
H2516 H 0.10905 0.77142 0.36592 0.0
H2517 H 0.11658 0.75325 0.38029 0.0
C2518 C 0.12916 0.72972 0.36898 0.0
C2519 C 0.13607 0.7181 0.36162 0.0
C2520 C 0.12371 0.73953 0.3607 0.0
C2521 C 0.13672 0.71594 0.34578 0.0
C2522 C 0.13112 0.72555 0.33745 0.0
C2523 C 0.12031 0.74796 0.33658 0.0
C2524 C 0.11491 0.76044 0.3441 0.0
C2525 C 0.12488 0.73757 0.3448 0.0
C2526 C 0.11336 0.76199 0.35989 0.0
C2527 C 0.11764 0.7516 0.36811 0.0
H2528 H 0.80078 0.66138 0.3582 0.0
H2529 H 0.84296 0.64519 0.35847 0.0
H2530 H 0.83051 0.62021 0.35017 0.0
H2531 H 0.80847 0.60377 0.33947 0.0
H2532 H 0.76685 0.62055 0.33732 0.0
H2533 H 0.77815 0.64434 0.35011 0.0
C2534 C 0.80722 0.65236 0.35674 0.0
C2535 C 0.82283 0.6552 0.3587 0.0
C2536 C 0.80009 0.6381 0.35152 0.0
C2537 C 0.83096 0.64334 0.35686 0.0
C2538 C 0.82386 0.62905 0.35206 0.0
C2539 C 0.80184 0.6126 0.34193 0.0
C2540 C 0.78691 0.61042 0.33723 0.0
C2541 C 0.80856 0.62643 0.34879 0.0
C2542 C 0.77834 0.62186 0.34084 0.0
C2543 C 0.78484 0.63554 0.34803 0.0
H2544 H 0.90554 0.35026 0.31546 0.0
H2545 H 0.91126 0.32612 0.35244 0.0
H2546 H 0.92599 0.31043 0.33612 0.0
H2547 H 0.93653 0.30286 0.31123 0.0
H2548 H 0.93065 0.32643 0.27396 0.0
H2549 H 0.91694 0.34314 0.29055 0.0
C2550 C 0.91009 0.34164 0.31997 0.0
C2551 C 0.90718 0.33937 0.33516 0.0
C2552 C 0.91854 0.33251 0.31047 0.0
C2553 C 0.91321 0.32812 0.3408 0.0
C2554 C 0.92166 0.3191 0.33147 0.0
C2555 C 0.93219 0.31162 0.30671 0.0
C2556 C 0.93451 0.31332 0.29136 0.0
C2557 C 0.92423 0.32107 0.31626 0.0
C2558 C 0.9291 0.32493 0.28576 0.0
C2559 C 0.92118 0.33443 0.29522 0.0
H2560 H 0.8484 0.39186 0.70534 0.0
H2561 H 0.81815 0.35047 0.70363 0.0
H2562 H 0.79858 0.36306 0.71664 0.0
H2563 H 0.7903 0.3857 0.7292 0.0
H2564 H 0.82054 0.42706 0.73072 0.0
H2565 H 0.8399 0.41455 0.71721 0.0
C2566 C 0.83751 0.38558 0.70776 0.0
C2567 C 0.83479 0.37022 0.70353 0.0
C2568 C 0.82632 0.39287 0.71529 0.0
C2569 C 0.82059 0.36229 0.70676 0.0
C2570 C 0.80938 0.36948 0.71422 0.0
C2571 C 0.80106 0.39201 0.72642 0.0
C2572 C 0.80397 0.4073 0.73103 0.0
C2573 C 0.81215 0.38475 0.71861 0.0
C2574 C 0.81807 0.41526 0.72751 0.0
C2575 C 0.82913 0.40813 0.71971 0.0
H2576 H 0.18705 0.29779 0.72989 0.0
H2577 H 0.18346 0.34367 0.72919 0.0
H2578 H 0.16534 0.34261 0.7502 0.0
H2579 H 0.15165 0.32919 0.76976 0.0
H2580 H 0.15496 0.28339 0.77076 0.0
H2581 H 0.17192 0.28383 0.74855 0.0
C2582 C 0.18219 0.30751 0.73424 0.0
C2583 C 0.18674 0.32082 0.72805 0.0
C2584 C 0.17178 0.30687 0.74642 0.0
C2585 C 0.18026 0.33329 0.73377 0.0
C2586 C 0.1699 0.33273 0.74582 0.0
C2587 C 0.15609 0.31931 0.76508 0.0
C2588 C 0.15223 0.30633 0.77193 0.0
C2589 C 0.1658 0.31967 0.7524 0.0
C2590 C 0.15779 0.29351 0.76563 0.0
C2591 C 0.16751 0.29378 0.75299 0.0
H2592 H 0.89212 0.69592 0.68641 0.0
H2593 H 0.85496 0.70969 0.71367 0.0
H2594 H 0.87131 0.73165 0.72468 0.0
H2595 H 0.89628 0.74666 0.72716 0.0
H2596 H 0.93349 0.73316 0.69991 0.0
H2597 H 0.91697 0.7115 0.68819 0.0
C2598 C 0.88759 0.70374 0.69473 0.0
C2599 C 0.87234 0.70108 0.69925 0.0
C2600 C 0.89706 0.71642 0.70102 0.0
C2601 C 0.86664 0.71142 0.70997 0.0
C2602 C 0.87599 0.72399 0.71631 0.0
C2603 C 0.90077 0.73894 0.71868 0.0
C2604 C 0.91609 0.74145 0.71447 0.0
C2605 C 0.89123 0.72654 0.71202 0.0
C2606 C 0.92171 0.73152 0.70327 0.0
C2607 C 0.91229 0.71909 0.69663 0.0
H2608 H 0.71967 0.21855 0.66887 0.0
H2609 H 0.72918 0.17516 0.65178 0.0
H2610 H 0.74831 0.18596 0.63442 0.0
H2611 H 0.76224 0.20768 0.62405 0.0
H2612 H 0.75363 0.25114 0.64224 0.0
H2613 H 0.73404 0.24027 0.65898 0.0
C2614 C 0.72589 0.21143 0.66133 0.0
C2615 C 0.72294 0.19605 0.66162 0.0
C2616 C 0.73699 0.21771 0.6515 0.0
C2617 C 0.73121 0.18703 0.65183 0.0
C2618 C 0.74215 0.19319 0.64188 0.0
C2619 C 0.75623 0.21482 0.63178 0.0
C2620 C 0.75945 0.23024 0.63178 0.0
C2621 C 0.74515 0.20852 0.64165 0.0
C2622 C 0.75127 0.23924 0.64174 0.0
C2623 C 0.74012 0.23304 0.65143 0.0
H2624 H 0.32799 0.18156 0.6104 0.0
H2625 H 0.36819 0.18616 0.58214 0.0
H2626 H 0.35673 0.20068 0.56636 0.0
H2627 H 0.33552 0.21257 0.56091 0.0
H2628 H 0.29566 0.20858 0.58968 0.0
H2629 H 0.30667 0.1931 0.60472 0.0
C2630 C 0.33424 0.18569 0.60076 0.0
C2631 C 0.34895 0.18281 0.59751 0.0
C2632 C 0.32762 0.1941 0.59176 0.0
C2633 C 0.35686 0.18824 0.58494 0.0
C2634 C 0.35032 0.19655 0.5759 0.0
C2635 C 0.32926 0.20837 0.57051 0.0
C2636 C 0.31478 0.21176 0.57413 0.0
C2637 C 0.33575 0.19965 0.57927 0.0
C2638 C 0.30674 0.206 0.58647 0.0
C2639 C 0.31307 0.19723 0.59518 0.0
H2640 H 0.35735 0.84491 0.64958 0.0
H2641 H 0.38704 0.81681 0.66251 0.0
H2642 H 0.37297 0.79561 0.64742 0.0
H2643 H 0.35164 0.78488 0.63136 0.0
H2644 H 0.32242 0.81323 0.61802 0.0
H2645 H 0.33682 0.83444 0.63267 0.0
C2646 C 0.36081 0.83417 0.64908 0.0
C2647 C 0.37321 0.83248 0.65724 0.0
C2648 C 0.35267 0.82203 0.64041 0.0
C2649 C 0.37754 0.81846 0.65636 0.0
C2650 C 0.36948 0.80631 0.64775 0.0
C2651 C 0.34853 0.79572 0.63148 0.0
C2652 C 0.33587 0.79739 0.62367 0.0
C2653 C 0.35695 0.80794 0.63982 0.0
C2654 C 0.33192 0.81153 0.62415 0.0
C2655 C 0.34021 0.82371 0.63244 0.0
H2656 H 0.76227 0.82166 0.6556 0.0
H2657 H 0.72269 0.81378 0.62885 0.0
H2658 H 0.73614 0.80096 0.60817 0.0
H2659 H 0.75864 0.79061 0.59853 0.0
H2660 H 0.7988 0.80039 0.62468 0.0
H2661 H 0.78555 0.81377 0.64481 0.0
C2662 C 0.75663 0.81719 0.6452 0.0
C2663 C 0.7415 0.81846 0.64376 0.0
C2664 C 0.76449 0.81009 0.63332 0.0
C2665 C 0.73435 0.81288 0.63018 0.0
C2666 C 0.74202 0.80553 0.61839 0.0
C2667 C 0.76464 0.79591 0.60847 0.0
C2668 C 0.77966 0.79418 0.61013 0.0
C2669 C 0.75704 0.8039 0.61993 0.0
C2670 C 0.78713 0.8011 0.62321 0.0
C2671 C 0.77959 0.80887 0.63473 0.0
H2672 H 0.75594 0.82225 0.3931 0.0
H2673 H 0.71516 0.79154 0.38403 0.0
H2674 H 0.71982 0.77832 0.40485 0.0
H2675 H 0.73692 0.77397 0.42358 0.0
H2676 H 0.77668 0.80591 0.43415 0.0
H2677 H 0.77097 0.82012 0.41469 0.0
C2678 C 0.74799 0.81277 0.39584 0.0
C2679 C 0.73535 0.80773 0.38697 0.0
C2680 C 0.75063 0.80536 0.40794 0.0
C2681 C 0.72499 0.7956 0.39072 0.0
C2682 C 0.72768 0.788 0.40257 0.0
C2683 C 0.74416 0.78425 0.42203 0.0
C2684 C 0.75745 0.78858 0.43017 0.0
C2685 C 0.74066 0.79258 0.41101 0.0
C2686 C 0.76665 0.80196 0.42776 0.0
C2687 C 0.76335 0.81018 0.41667 0.0
H2688 H 0.72198 0.18982 0.41761 0.0
H2689 H 0.68348 0.2117 0.42833 0.0
H2690 H 0.69862 0.23112 0.44469 0.0
H2691 H 0.72254 0.24122 0.45688 0.0
H2692 H 0.76122 0.21958 0.44554 0.0
H2693 H 0.74617 0.20056 0.42885 0.0
C2694 C 0.71694 0.1989 0.42347 0.0
C2695 C 0.70169 0.19945 0.42157 0.0
C2696 C 0.72569 0.20995 0.43295 0.0
C2697 C 0.69529 0.21124 0.42923 0.0
C2698 C 0.70391 0.22226 0.43875 0.0
C2699 C 0.72777 0.23248 0.45062 0.0
C2700 C 0.74301 0.23183 0.45266 0.0
C2701 C 0.7191 0.22167 0.44077 0.0
C2702 C 0.74946 0.22024 0.44454 0.0
C2703 C 0.74089 0.20939 0.43485 0.0
H2704 H 0.35475 0.19995 0.38593 0.0
H2705 H 0.33496 0.20516 0.34451 0.0
H2706 H 0.31191 0.21019 0.35829 0.0
H2707 H 0.2979 0.21432 0.38235 0.0
H2708 H 0.31836 0.21051 0.42385 0.0
H2709 H 0.34056 0.20348 0.40985 0.0
C2710 C 0.34527 0.2019 0.37992 0.0
C2711 C 0.34642 0.20202 0.36425 0.0
C2712 C 0.33222 0.20507 0.38795 0.0
C2713 C 0.33427 0.20502 0.3566 0.0
C2714 C 0.32111 0.20786 0.36446 0.0
C2715 C 0.30716 0.21175 0.38825 0.0
C2716 C 0.30657 0.21287 0.40404 0.0
C2717 C 0.32002 0.20809 0.38016 0.0
C2718 C 0.31867 0.20974 0.41167 0.0
C2719 C 0.33133 0.20573 0.40368 0.0
H2720 H 0.32285 0.832 0.40575 0.0
H2721 H 0.36784 0.83406 0.42103 0.0
H2722 H 0.35801 0.82059 0.442 0.0
H2723 H 0.3369 0.80623 0.45464 0.0
H2724 H 0.29199 0.80356 0.439 0.0
H2725 H 0.30149 0.81947 0.41978 0.0
C2726 C 0.3305 0.82968 0.41377 0.0
C2727 C 0.34608 0.83389 0.41167 0.0
C2728 C 0.32479 0.82176 0.42575 0.0
C2729 C 0.3558 0.83087 0.42227 0.0
C2730 C 0.3502 0.82312 0.43427 0.0
C2731 C 0.32918 0.80922 0.44708 0.0
C2732 C 0.31378 0.80361 0.44819 0.0
C2733 C 0.33475 0.81818 0.43589 0.0
C2734 C 0.30389 0.8078 0.43848 0.0
C2735 C 0.30933 0.81681 0.42739 0.0
H2736 H 0.64235 0.22756 0.70131 0.0
H2737 H 0.63715 0.18706 0.72153 0.0
H2738 H 0.614 0.19291 0.7345 0.0
H2739 H 0.59565 0.20991 0.74064 0.0
H2740 H 0.60195 0.251 0.72131 0.0
H2741 H 0.624 0.2443 0.70718 0.0
C2742 C 0.63615 0.21995 0.7085 0.0
C2743 C 0.64153 0.20691 0.71047 0.0
C2744 C 0.62295 0.22344 0.71602 0.0
C2745 C 0.6333 0.19721 0.71984 0.0
C2746 C 0.62005 0.20054 0.72726 0.0
C2747 C 0.60186 0.21744 0.73339 0.0
C2748 C 0.59701 0.23095 0.73208 0.0
C2749 C 0.61485 0.21371 0.72554 0.0
C2750 C 0.60514 0.24041 0.72239 0.0
C2751 C 0.6179 0.23667 0.71439 0.0
H2752 H 0.31749 0.12701 0.70501 0.0
H2753 H 0.35923 0.12385 0.72495 0.0
H2754 H 0.34552 0.10903 0.74341 0.0
H2755 H 0.32169 0.09661 0.75361 0.0
H2756 H 0.28002 0.10026 0.73382 0.0
H2757 H 0.29375 0.11506 0.71545 0.0
C2758 C 0.32362 0.12311 0.7134 0.0
C2759 C 0.33938 0.12654 0.71357 0.0
C2760 C 0.31569 0.11459 0.72395 0.0
C2761 C 0.3471 0.12139 0.72455 0.0
C2762 C 0.33927 0.11289 0.73511 0.0
C2763 C 0.3156 0.10076 0.74538 0.0
C2764 C 0.29983 0.09725 0.74509 0.0
C2765 C 0.32356 0.1094 0.73489 0.0
C2766 C 0.29216 0.10257 0.73417 0.0
C2767 C 0.29999 0.11113 0.72371 0.0
H2768 H 0.45449 0.84267 0.69156 0.0
H2769 H 0.43041 0.85025 0.73392 0.0
H2770 H 0.44803 0.83868 0.7464 0.0
H2771 H 0.46922 0.82496 0.74496 0.0
H2772 H 0.49243 0.816 0.70243 0.0
H2773 H 0.47629 0.82965 0.69031 0.0
C2774 C 0.45319 0.84192 0.70355 0.0
C2775 C 0.44113 0.84728 0.71179 0.0
C2776 C 0.46319 0.83498 0.7106 0.0
C2777 C 0.43954 0.84614 0.7273 0.0
C2778 C 0.44962 0.83954 0.73445 0.0
C2779 C 0.47092 0.82626 0.7331 0.0
C2780 C 0.48204 0.8196 0.7246 0.0
C2781 C 0.46135 0.83374 0.72618 0.0
C2782 C 0.48393 0.82106 0.70917 0.0
C2783 C 0.47469 0.82882 0.70226 0.0
H2784 H 0.73406 0.88818 0.70211 0.0
H2785 H 0.77144 0.86746 0.71174 0.0
H2786 H 0.78261 0.89013 0.72674 0.0
H2787 H 0.78016 0.9146 0.73961 0.0
H2788 H 0.74252 0.93522 0.73065 0.0
H2789 H 0.73298 0.91374 0.71297 0.0
C2790 C 0.7448 0.88871 0.70723 0.0
C2791 C 0.75182 0.87609 0.70593 0.0
C2792 C 0.75098 0.90166 0.71617 0.0
C2793 C 0.76573 0.87697 0.71266 0.0
C2794 C 0.77211 0.88991 0.72129 0.0
C2795 C 0.77006 0.91457 0.73353 0.0
C2796 C 0.762 0.92644 0.73655 0.0
C2797 C 0.76459 0.90215 0.72351 0.0
C2798 C 0.7488 0.9261 0.72872 0.0
C2799 C 0.74338 0.91386 0.71856 0.0
H2800 H 0.64402 0.84078 0.30677 0.0
H2801 H 0.64551 0.81396 0.34259 0.0
H2802 H 0.62203 0.79873 0.3345 0.0
H2803 H 0.60214 0.79185 0.31627 0.0
H2804 H 0.6 0.81871 0.28067 0.0
H2805 H 0.62276 0.83498 0.2896 0.0
C2806 C 0.63914 0.83168 0.31289 0.0
C2807 C 0.64662 0.82846 0.32519 0.0
C2808 C 0.62559 0.82287 0.30814 0.0
C2809 C 0.64007 0.81668 0.33303 0.0
C2810 C 0.62663 0.80792 0.32841 0.0
C2811 C 0.6064 0.80144 0.31063 0.0
C2812 C 0.59935 0.80397 0.29776 0.0
C2813 C 0.61943 0.81077 0.31585 0.0
C2814 C 0.60531 0.81633 0.29046 0.0
C2815 C 0.61829 0.82569 0.2956 0.0
H2816 H 0.69894 0.13954 0.34557 0.0
H2817 H 0.7073 0.11278 0.3794 0.0
H2818 H 0.71892 0.09659 0.36029 0.0
H2819 H 0.72608 0.0896 0.33386 0.0
H2820 H 0.71775 0.11637 0.30006 0.0
H2821 H 0.70661 0.13287 0.31925 0.0
C2822 C 0.70336 0.1302 0.34879 0.0
C2823 C 0.70223 0.12739 0.36391 0.0
C2824 C 0.70995 0.12087 0.33773 0.0
C2825 C 0.708 0.11522 0.36785 0.0
C2826 C 0.71464 0.10593 0.35693 0.0
C2827 C 0.72198 0.09913 0.33072 0.0
C2828 C 0.72272 0.1017 0.31553 0.0
C2829 C 0.7156 0.1086 0.34182 0.0
C2830 C 0.71713 0.114 0.31163 0.0
C2831 C 0.71083 0.1235 0.32261 0.0
H2832 H 0.43534 0.2339 0.33966 0.0
H2833 H 0.4042 0.25077 0.31398 0.0
H2834 H 0.42232 0.27314 0.31195 0.0
H2835 H 0.44729 0.2876 0.31682 0.0
H2836 H 0.47901 0.27021 0.34117 0.0
H2837 H 0.4604 0.24832 0.34443 0.0
C2838 C 0.43251 0.24251 0.33369 0.0
C2839 C 0.41846 0.2407 0.327 0.0
C2840 C 0.44308 0.25522 0.33232 0.0
C2841 C 0.41497 0.25188 0.31917 0.0
C2842 C 0.42531 0.26468 0.31803 0.0
C2843 C 0.45002 0.27906 0.32298 0.0
C2844 C 0.46438 0.28047 0.32886 0.0
C2845 C 0.43942 0.26643 0.32449 0.0
C2846 C 0.46798 0.26928 0.33657 0.0
C2847 C 0.45736 0.25681 0.33842 0.0
H2848 H 0.32581 0.89759 0.32684 0.0
H2849 H 0.37249 0.91735 0.3255 0.0
H2850 H 0.36652 0.93579 0.31051 0.0
H2851 H 0.34819 0.94573 0.29688 0.0
H2852 H 0.30149 0.92613 0.29845 0.0
H2853 H 0.30728 0.9084 0.31443 0.0
C2854 C 0.33467 0.90596 0.3233 0.0
C2855 C 0.34959 0.906 0.32719 0.0
C2856 C 0.33115 0.91661 0.31476 0.0
C2857 C 0.36091 0.91703 0.32265 0.0
C2858 C 0.35751 0.92758 0.31406 0.0
C2859 C 0.33928 0.9376 0.30078 0.0
C2860 C 0.32444 0.93723 0.29644 0.0
C2861 C 0.3427 0.92739 0.30991 0.0
C2862 C 0.31298 0.92676 0.30174 0.0
C2863 C 0.3163 0.91654 0.31078 0.0
H2864 H 0.70882 0.11848 0.70768 0.0
H2865 H 0.73114 0.15974 0.7302 0.0
H2866 H 0.74659 0.14654 0.74349 0.0
H2867 H 0.75396 0.12333 0.74862 0.0
H2868 H 0.73121 0.08195 0.72696 0.0
H2869 H 0.71567 0.09511 0.71349 0.0
C2870 C 0.71706 0.12458 0.7155 0.0
C2871 C 0.71885 0.14009 0.71788 0.0
C2872 C 0.72583 0.11689 0.72326 0.0
C2873 C 0.72949 0.14781 0.72816 0.0
C2874 C 0.73837 0.14027 0.73575 0.0
C2875 C 0.74565 0.11721 0.74087 0.0
C2876 C 0.74381 0.10172 0.73866 0.0
C2877 C 0.73668 0.12483 0.73334 0.0
C2878 C 0.73281 0.09389 0.72884 0.0
C2879 C 0.72396 0.10141 0.72112 0.0
H2880 H 0.71298 0.87165 0.32044 0.0
H2881 H 0.74331 0.87797 0.3573 0.0
H2882 H 0.75239 0.90316 0.3521 0.0
H2883 H 0.75382 0.92216 0.33537 0.0
H2884 H 0.72338 0.91628 0.2986 0.0
H2885 H 0.71218 0.89211 0.30555 0.0
C2886 C 0.72118 0.87868 0.32766 0.0
C2887 C 0.7274 0.87294 0.33929 0.0
C2888 C 0.72653 0.89314 0.32446 0.0
C2889 C 0.73837 0.88211 0.34825 0.0
C2890 C 0.7436 0.89651 0.34526 0.0
C2891 C 0.74445 0.91584 0.32909 0.0
C2892 C 0.73958 0.92104 0.31637 0.0
C2893 C 0.73807 0.90198 0.33313 0.0
C2894 C 0.72758 0.91246 0.30826 0.0
C2895 C 0.72112 0.89865 0.31227 0.0
H2896 H 0.64319 0.23968 0.38603 0.0
H2897 H 0.68708 0.26642 0.38564 0.0
H2898 H 0.67695 0.28496 0.37392 0.0
H2899 H 0.65591 0.29315 0.36287 0.0
H2900 H 0.61198 0.26657 0.3633 0.0
H2901 H 0.62191 0.24833 0.37576 0.0
C2902 C 0.65054 0.2496 0.38346 0.0
C2903 C 0.6659 0.25161 0.38669 0.0
C2904 C 0.64466 0.26021 0.37663 0.0
C2905 C 0.67523 0.26454 0.38327 0.0
C2906 C 0.66945 0.27517 0.37654 0.0
C2907 C 0.64845 0.28348 0.36589 0.0
C2908 C 0.63322 0.28125 0.36214 0.0
C2909 C 0.65422 0.27306 0.37307 0.0
C2910 C 0.62378 0.26849 0.36588 0.0
C2911 C 0.62944 0.25809 0.37308 0.0
H2912 H 0.30674 0.14896 0.35181 0.0
H2913 H 0.34195 0.12557 0.36189 0.0
H2914 H 0.33254 0.10499 0.3432 0.0
H2915 H 0.31662 0.09533 0.32154 0.0
H2916 H 0.28217 0.11926 0.31078 0.0
H2917 H 0.28881 0.1378 0.33233 0.0
C2918 C 0.31219 0.13925 0.35015 0.0
C2919 C 0.32521 0.13895 0.35803 0.0
C2920 C 0.30694 0.1276 0.33913 0.0
C2921 C 0.33201 0.12618 0.35586 0.0
C2922 C 0.32668 0.11442 0.34511 0.0
C2923 C 0.31047 0.10452 0.32404 0.0
C2924 C 0.29908 0.10604 0.31448 0.0
C2925 C 0.31455 0.11529 0.33627 0.0
C2926 C 0.29097 0.11783 0.31799 0.0
C2927 C 0.29483 0.12849 0.33025 0.0
H2928 H 0.39464 0.85033 0.31419 0.0
H2929 H 0.3725 0.81156 0.33316 0.0
H2930 H 0.38696 0.79615 0.31606 0.0
H2931 H 0.40598 0.79359 0.29585 0.0
H2932 H 0.42883 0.83235 0.2774 0.0
H2933 H 0.41388 0.84776 0.29401 0.0
C2934 C 0.39292 0.8385 0.31453 0.0
C2935 C 0.38248 0.83215 0.32497 0.0
C2936 C 0.40139 0.82966 0.30475 0.0
C2937 C 0.38048 0.81679 0.32529 0.0
C2938 C 0.38875 0.80794 0.31551 0.0
C2939 C 0.40782 0.80543 0.29556 0.0
C2940 C 0.41854 0.81176 0.28536 0.0
C2941 C 0.3993 0.81426 0.30526 0.0
C2942 C 0.42053 0.82712 0.28498 0.0
C2943 C 0.41204 0.83597 0.29454 0.0
H2944 H 0.33438 0.89477 0.71123 0.0
H2945 H 0.37909 0.91544 0.72393 0.0
H2946 H 0.36857 0.93245 0.74319 0.0
H2947 H 0.34658 0.94129 0.75654 0.0
H2948 H 0.30203 0.91989 0.744 0.0
H2949 H 0.31262 0.9035 0.72441 0.0
C2950 C 0.34186 0.903 0.71818 0.0
C2951 C 0.3575 0.9038 0.71614 0.0
C2952 C 0.33576 0.91268 0.72922 0.0
C2953 C 0.367 0.91456 0.72526 0.0
C2954 C 0.36099 0.92429 0.73628 0.0
C2955 C 0.3392 0.93298 0.74958 0.0
C2956 C 0.32351 0.93191 0.75172 0.0
C2957 C 0.34538 0.92341 0.7384 0.0
C2958 C 0.31412 0.92118 0.74245 0.0
C2959 C 0.32017 0.9117 0.7313 0.0
H2960 H 0.69229 0.801 0.72317 0.0
H2961 H 0.68808 0.84689 0.73502 0.0
H2962 H 0.66696 0.84007 0.75205 0.0
H2963 H 0.65003 0.82118 0.76408 0.0
H2964 H 0.6542 0.77531 0.75254 0.0
H2965 H 0.67488 0.782 0.73479 0.0
C2966 C 0.6867 0.8095 0.72942 0.0
C2967 C 0.69181 0.82443 0.72785 0.0
C2968 C 0.67456 0.80551 0.73927 0.0
C2969 C 0.68442 0.83531 0.73601 0.0
C2970 C 0.67233 0.83143 0.74579 0.0
C2971 C 0.65553 0.81267 0.75774 0.0
C2972 C 0.65066 0.7978 0.75966 0.0
C2973 C 0.66741 0.81659 0.74761 0.0
C2974 C 0.65769 0.78684 0.75117 0.0
C2975 C 0.66955 0.79066 0.74108 0.0
H2976 H 0.38227 0.20141 0.66521 0.0
H2977 H 0.39893 0.1658 0.6822 0.0
H2978 H 0.41307 0.18335 0.70121 0.0
H2979 H 0.42183 0.20896 0.71186 0.0
H2980 H 0.40323 0.24429 0.69617 0.0
H2981 H 0.38899 0.22672 0.6776 0.0
C2982 C 0.38892 0.19751 0.67317 0.0
C2983 C 0.3896 0.18238 0.67235 0.0
C2984 C 0.39684 0.20763 0.68415 0.0
C2985 C 0.39812 0.1774 0.68276 0.0
C2986 C 0.40628 0.18744 0.69354 0.0
C2987 C 0.41446 0.21286 0.70463 0.0
C2988 C 0.41394 0.22809 0.70535 0.0
C2989 C 0.40586 0.20261 0.69423 0.0
C2990 C 0.40435 0.23278 0.69565 0.0
C2991 C 0.39604 0.22269 0.68508 0.0
H2992 H 0.71019 0.71155 0.17177 0.0
H2993 H 0.72923 0.67128 0.16436 0.0
H2994 H 0.74718 0.6819 0.14584 0.0
H2995 H 0.75755 0.70271 0.13184 0.0
H2996 H 0.73902 0.74325 0.14033 0.0
H2997 H 0.72065 0.73229 0.1581 0.0
C2998 C 0.71822 0.70504 0.16608 0.0
C2999 C 0.71832 0.69062 0.16947 0.0
C3000 C 0.72858 0.71124 0.15556 0.0
C3001 C 0.72889 0.68241 0.16201 0.0
C3002 C 0.73917 0.68848 0.1514 0.0
C3003 C 0.74958 0.7092 0.13765 0.0
C3004 C 0.74968 0.72378 0.13461 0.0
C3005 C 0.73915 0.70291 0.14813 0.0
C3006 C 0.73908 0.73191 0.14215 0.0
C3007 C 0.72861 0.7257 0.15245 0.0
H3008 H 0.34526 0.65964 0.11583 0.0
H3009 H 0.38929 0.6683 0.09471 0.0
H3010 H 0.38012 0.68407 0.07861 0.0
H3011 H 0.36024 0.69719 0.07216 0.0
H3012 H 0.31636 0.68899 0.09355 0.0
H3013 H 0.32473 0.67103 0.10768 0.0
C3014 C 0.35281 0.66484 0.10759 0.0
C3015 C 0.36798 0.66293 0.10662 0.0
C3016 C 0.34749 0.67401 0.09843 0.0
C3017 C 0.37758 0.66964 0.09577 0.0
C3018 C 0.37235 0.6787 0.08657 0.0
C3019 C 0.35249 0.69137 0.07983 0.0
C3020 C 0.33776 0.6945 0.08193 0.0
C3021 C 0.35744 0.68125 0.08807 0.0
C3022 C 0.32774 0.68671 0.09169 0.0
C3023 C 0.33256 0.67653 0.09986 0.0
H3024 H 0.39794 0.32872 0.16003 0.0
H3025 H 0.38294 0.37088 0.16237 0.0
H3026 H 0.35953 0.35908 0.15067 0.0
H3027 H 0.34373 0.33696 0.13875 0.0
H3028 H 0.35873 0.29472 0.13592 0.0
H3029 H 0.38186 0.30642 0.14841 0.0
C3030 C 0.38948 0.3353 0.15807 0.0
C3031 C 0.39201 0.35062 0.16252 0.0
C3032 C 0.37614 0.32845 0.15101 0.0
C3033 C 0.38104 0.35901 0.15973 0.0
C3034 C 0.36772 0.35229 0.15278 0.0
C3035 C 0.35196 0.33026 0.14103 0.0
C3036 C 0.34945 0.31497 0.13637 0.0
C3037 C 0.36518 0.33703 0.14832 0.0
C3038 C 0.36042 0.30654 0.13917 0.0
C3039 C 0.37362 0.3132 0.14641 0.0
H3040 H 0.74168 0.29745 0.15931 0.0
H3041 H 0.73321 0.3316 0.13376 0.0
H3042 H 0.74362 0.31895 0.111 0.0
H3043 H 0.75536 0.29821 0.09839 0.0
H3044 H 0.76309 0.2638 0.1239 0.0
H3045 H 0.7527 0.27649 0.14664 0.0
C3046 C 0.7421 0.30213 0.14876 0.0
C3047 C 0.73673 0.31547 0.14824 0.0
C3048 C 0.74797 0.29474 0.13571 0.0
C3049 C 0.73725 0.32132 0.13446 0.0
C3050 C 0.74323 0.31412 0.12145 0.0
C3051 C 0.75479 0.29356 0.10896 0.0
C3052 C 0.75997 0.28013 0.10952 0.0
C3053 C 0.74867 0.30084 0.12195 0.0
C3054 C 0.75904 0.27408 0.12321 0.0
C3055 C 0.75316 0.28135 0.13621 0.0
H3056 H 0.71879 0.34896 0.9375 0.0
H3057 H 0.69624 0.32256 0.89951 0.0
H3058 H 0.7052 0.30072 0.90605 0.0
H3059 H 0.71956 0.28919 0.9224 0.0
H3060 H 0.74088 0.31528 0.96127 0.0
H3061 H 0.73247 0.3372 0.95438 0.0
C3062 C 0.71587 0.33844 0.93063 0.0
C3063 C 0.7069 0.3374 0.91801 0.0
C3064 C 0.72088 0.32587 0.93457 0.0
C3065 C 0.70311 0.32366 0.9093 0.0
C3066 C 0.70824 0.31116 0.91302 0.0
C3067 C 0.7222 0.2996 0.92951 0.0
C3068 C 0.7309 0.30051 0.94233 0.0
C3069 C 0.71709 0.31214 0.92565 0.0
C3070 C 0.73443 0.31423 0.95121 0.0
C3071 C 0.72954 0.32679 0.94733 0.0
H3072 H 0.71486 0.67141 0.92992 0.0
H3073 H 0.70832 0.70108 0.8983 0.0
H3074 H 0.72121 0.72192 0.91476 0.0
H3075 H 0.73474 0.73167 0.93798 0.0
H3076 H 0.7415 0.70193 0.96952 0.0
H3077 H 0.72843 0.68114 0.95311 0.0
C3078 C 0.71626 0.68245 0.92664 0.0
C3079 C 0.71029 0.68474 0.91308 0.0
C3080 C 0.72385 0.69435 0.93609 0.0
C3081 C 0.71227 0.69908 0.90893 0.0
C3082 C 0.71983 0.71098 0.91826 0.0
C3083 C 0.73321 0.72066 0.94135 0.0
C3084 C 0.73909 0.71838 0.95498 0.0
C3085 C 0.72561 0.70876 0.9319 0.0
C3086 C 0.73725 0.70399 0.95902 0.0
C3087 C 0.7297 0.6921 0.94968 0.0
H3088 H 0.31911 0.71863 0.84564 0.0
H3089 H 0.36316 0.71067 0.85528 0.0
H3090 H 0.35792 0.71608 0.8823 0.0
H3091 H 0.34181 0.72589 0.9029 0.0
H3092 H 0.29759 0.73339 0.89321 0.0
H3093 H 0.30175 0.72515 0.86651 0.0
C3094 C 0.32744 0.71786 0.85371 0.0
C3095 C 0.34149 0.71433 0.84857 0.0
C3096 C 0.32434 0.72098 0.86918 0.0
C3097 C 0.3522 0.71322 0.85904 0.0
C3098 C 0.34926 0.71644 0.87446 0.0
C3099 C 0.33303 0.72545 0.89493 0.0
C3100 C 0.31948 0.73032 0.8999 0.0
C3101 C 0.33552 0.72073 0.87963 0.0
C3102 C 0.30808 0.72961 0.88959 0.0
C3103 C 0.3105 0.72502 0.87434 0.0
H3104 H 0.3637 0.3311 0.92054 0.0
H3105 H 0.32773 0.34946 0.90373 0.0
H3106 H 0.31108 0.34093 0.92423 0.0
H3107 H 0.3063 0.32695 0.94601 0.0
H3108 H 0.34234 0.3087 0.9628 0.0
H3109 H 0.35934 0.31839 0.94312 0.0
C3110 C 0.35225 0.33334 0.92139 0.0
C3111 C 0.34697 0.34085 0.91053 0.0
C3112 C 0.3427 0.32831 0.93314 0.0
C3113 C 0.33211 0.34369 0.9119 0.0
C3114 C 0.32255 0.33878 0.9236 0.0
C3115 C 0.31793 0.3253 0.94553 0.0
C3116 C 0.32299 0.31702 0.95584 0.0
C3117 C 0.32767 0.33091 0.93417 0.0
C3118 C 0.33807 0.31482 0.95488 0.0
C3119 C 0.34783 0.32042 0.94367 0.0
H3120 H 0.61953 0.69084 0.20421 0.0
H3121 H 0.64819 0.70051 0.24258 0.0
H3122 H 0.62873 0.7117 0.25749 0.0
H3123 H 0.60443 0.72047 0.25904 0.0
H3124 H 0.57567 0.71073 0.22077 0.0
H3125 H 0.59439 0.69795 0.2064 0.0
C3126 C 0.62149 0.69527 0.21587 0.0
C3127 C 0.63538 0.69493 0.2222 0.0
C3128 C 0.61029 0.70181 0.22437 0.0
C3129 C 0.63765 0.70065 0.23738 0.0
C3130 C 0.62653 0.7071 0.24592 0.0
C3131 C 0.60209 0.71529 0.24767 0.0
C3132 C 0.58867 0.71666 0.24099 0.0
C3133 C 0.61292 0.70797 0.23945 0.0
C3134 C 0.58599 0.71006 0.22613 0.0
C3135 C 0.59667 0.7027 0.21791 0.0
H3136 H 0.35751 0.62299 0.24106 0.0
H3137 H 0.31912 0.62853 0.2167 0.0
H3138 H 0.30244 0.61416 0.23349 0.0
H3139 H 0.29872 0.59951 0.25467 0.0
H3140 H 0.33693 0.59357 0.27896 0.0
H3141 H 0.35369 0.60875 0.26274 0.0
C3142 C 0.34549 0.62112 0.23947 0.0
C3143 C 0.33961 0.6268 0.22758 0.0
C3144 C 0.33592 0.61276 0.24914 0.0
C3145 C 0.32399 0.62428 0.22571 0.0
C3146 C 0.31442 0.61603 0.23531 0.0
C3147 C 0.31073 0.60145 0.25634 0.0
C3148 C 0.31658 0.59533 0.26792 0.0
C3149 C 0.32027 0.6101 0.24695 0.0
C3150 C 0.33214 0.59822 0.27017 0.0
C3151 C 0.34172 0.60684 0.26086 0.0
H3152 H 0.45153 0.36615 0.22814 0.0
H3153 H 0.47534 0.33783 0.19706 0.0
H3154 H 0.48837 0.33138 0.21791 0.0
H3155 H 0.49333 0.33408 0.24492 0.0
H3156 H 0.46896 0.36187 0.27604 0.0
H3157 H 0.45611 0.36845 0.25519 0.0
C3158 C 0.45952 0.35852 0.22592 0.0
C3159 C 0.46242 0.35249 0.21104 0.0
C3160 C 0.46702 0.35488 0.23796 0.0
C3161 C 0.47285 0.34263 0.20839 0.0
C3162 C 0.48035 0.33896 0.22031 0.0
C3163 C 0.48512 0.34148 0.24718 0.0
C3164 C 0.48221 0.3475 0.26208 0.0
C3165 C 0.47756 0.34505 0.23514 0.0
C3166 C 0.47167 0.35726 0.2647 0.0
C3167 C 0.46419 0.36094 0.25278 0.0
H3168 H 0.73484 0.40261 0.20053 0.0
H3169 H 0.7661 0.37226 0.20236 0.0
H3170 H 0.78462 0.39234 0.21369 0.0
H3171 H 0.79091 0.41795 0.22546 0.0
H3172 H 0.75934 0.44807 0.22432 0.0
H3173 H 0.74195 0.42863 0.21035 0.0
C3174 C 0.74578 0.40041 0.20319 0.0
C3175 C 0.749 0.38591 0.20072 0.0
C3176 C 0.75626 0.41194 0.20999 0.0
C3177 C 0.76326 0.38329 0.20423 0.0
C3178 C 0.77386 0.39476 0.21075 0.0
C3179 C 0.78036 0.42033 0.22188 0.0
C3180 C 0.77636 0.43438 0.22601 0.0
C3181 C 0.77034 0.40905 0.21403 0.0
C3182 C 0.76257 0.43727 0.22145 0.0
C3183 C 0.75264 0.42617 0.21343 0.0
H3184 H 0.62759 0.33242 0.83914 0.0
H3185 H 0.62199 0.36403 0.80917 0.0
H3186 H 0.60291 0.34596 0.79568 0.0
H3187 H 0.58819 0.32098 0.79208 0.0
H3188 H 0.59444 0.28936 0.8218 0.0
H3189 H 0.61267 0.30777 0.83586 0.0
C3190 C 0.62219 0.33541 0.82967 0.0
C3191 C 0.62629 0.34956 0.82515 0.0
C3192 C 0.61127 0.32498 0.82196 0.0
C3193 C 0.6191 0.35321 0.81289 0.0
C3194 C 0.60818 0.34288 0.80516 0.0
C3195 C 0.59358 0.3181 0.8016 0.0
C3196 C 0.58991 0.30378 0.80586 0.0
C3197 C 0.60425 0.32869 0.80954 0.0
C3198 C 0.59685 0.30033 0.81838 0.0
C3199 C 0.60739 0.31082 0.82637 0.0
H3200 H 0.71919 0.59799 0.86954 0.0
H3201 H 0.71696 0.62916 0.83807 0.0
H3202 H 0.73091 0.61488 0.81917 0.0
H3203 H 0.74389 0.59362 0.81161 0.0
H3204 H 0.74585 0.56232 0.84299 0.0
H3205 H 0.73196 0.57664 0.86191 0.0
C3206 C 0.72178 0.60169 0.85856 0.0
C3207 C 0.71703 0.61464 0.85525 0.0
C3208 C 0.72976 0.5934 0.84772 0.0
C3209 C 0.72046 0.61924 0.84094 0.0
C3210 C 0.72844 0.61107 0.83011 0.0
C3211 C 0.74113 0.58984 0.82253 0.0
C3212 C 0.74591 0.57691 0.82587 0.0
C3213 C 0.73311 0.59812 0.83336 0.0
C3214 C 0.74246 0.57231 0.84018 0.0
C3215 C 0.73446 0.58046 0.85099 0.0
H3216 H 0.39884 0.74825 0.80747 0.0
H3217 H 0.3941 0.71387 0.76992 0.0
H3218 H 0.42066 0.72043 0.7629 0.0
H3219 H 0.44445 0.73732 0.76625 0.0
H3220 H 0.44981 0.77022 0.80528 0.0
H3221 H 0.42368 0.7629 0.81282 0.0
C3222 C 0.40369 0.74215 0.79782 0.0
C3223 C 0.39457 0.73076 0.78908 0.0
C3224 C 0.41899 0.74579 0.79405 0.0
C3225 C 0.40096 0.72271 0.77678 0.0
C3226 C 0.41611 0.72649 0.77274 0.0
C3227 C 0.44012 0.74268 0.77664 0.0
C3228 C 0.44914 0.75456 0.78496 0.0
C3229 C 0.42516 0.73818 0.78116 0.0
C3230 C 0.44309 0.76138 0.79832 0.0
C3231 C 0.42814 0.75713 0.80273 0.0
H3232 H 0.31905 0.39948 0.84509 0.0
H3233 H 0.35653 0.41173 0.81513 0.0
H3234 H 0.3417 0.42652 0.80291 0.0
H3235 H 0.3177 0.43502 0.80006 0.0
H3236 H 0.28105 0.42458 0.83173 0.0
H3237 H 0.2959 0.40996 0.84383 0.0
C3238 C 0.32395 0.40541 0.83589 0.0
C3239 C 0.33878 0.4044 0.83089 0.0
C3240 C 0.31549 0.41416 0.82917 0.0
C3241 C 0.34511 0.41233 0.81915 0.0
C3242 C 0.33664 0.42076 0.81215 0.0
C3243 C 0.31301 0.42982 0.80978 0.0
C3244 C 0.29809 0.43076 0.81472 0.0
C3245 C 0.32177 0.42169 0.817 0.0
C3246 C 0.29229 0.42376 0.82731 0.0
C3247 C 0.30082 0.41545 0.83435 0.0
H3248 H 0.70544 0.6138 0.21786 0.0
H3249 H 0.72799 0.65363 0.24286 0.0
H3250 H 0.74111 0.63904 0.25705 0.0
H3251 H 0.74584 0.615 0.26278 0.0
H3252 H 0.72293 0.57509 0.23836 0.0
H3253 H 0.71024 0.58967 0.22359 0.0
C3254 C 0.71326 0.61929 0.22638 0.0
C3255 C 0.71572 0.6348 0.22927 0.0
C3256 C 0.72068 0.61082 0.23464 0.0
C3257 C 0.72584 0.64172 0.24041 0.0
C3258 C 0.73337 0.63338 0.24854 0.0
C3259 C 0.7382 0.6095 0.2541 0.0
C3260 C 0.7354 0.594 0.2516 0.0
C3261 C 0.73085 0.61794 0.24578 0.0
C3262 C 0.72523 0.58702 0.24053 0.0
C3263 C 0.718 0.59535 0.23207 0.0
H3264 H 0.72011 0.38065 0.85941 0.0
H3265 H 0.67867 0.39656 0.854 0.0
H3266 H 0.6891 0.40719 0.83134 0.0
H3267 H 0.71055 0.41325 0.81413 0.0
H3268 H 0.75116 0.39509 0.81817 0.0
H3269 H 0.74058 0.38434 0.84047 0.0
C3270 C 0.71336 0.38635 0.85317 0.0
C3271 C 0.69869 0.38787 0.85832 0.0
C3272 C 0.71934 0.39222 0.84005 0.0
C3273 C 0.68995 0.39514 0.85012 0.0
C3274 C 0.69595 0.4013 0.83724 0.0
C3275 C 0.71704 0.4067 0.81961 0.0
C3276 C 0.73183 0.40534 0.81448 0.0
C3277 C 0.7107 0.40005 0.8322 0.0
C3278 C 0.73998 0.39686 0.82203 0.0
C3279 C 0.73388 0.39053 0.83475 0.0
H3280 H 0.63542 0.69971 0.85931 0.0
H3281 H 0.6663 0.73614 0.88075 0.0
H3282 H 0.65459 0.75345 0.86864 0.0
H3283 H 0.6365 0.75809 0.85081 0.0
H3284 H 0.60607 0.72156 0.82901 0.0
H3285 H 0.61669 0.70443 0.84242 0.0
C3286 C 0.63955 0.71144 0.86143 0.0
C3287 C 0.65178 0.7166 0.87087 0.0
C3288 C 0.63287 0.72131 0.85431 0.0
C3289 C 0.65694 0.73185 0.87349 0.0
C3290 C 0.65025 0.74177 0.86656 0.0
C3291 C 0.63204 0.74641 0.84919 0.0
C3292 C 0.62054 0.74109 0.83891 0.0
C3293 C 0.63833 0.7366 0.8568 0.0
C3294 C 0.61502 0.72589 0.83676 0.0
C3295 C 0.62107 0.71611 0.84444 0.0
H3296 H 0.30215 0.65708 0.84556 0.0
H3297 H 0.34133 0.6355 0.84067 0.0
H3298 H 0.32553 0.61181 0.83347 0.0
H3299 H 0.30103 0.59786 0.82571 0.0
H3300 H 0.26234 0.62014 0.82863 0.0
H3301 H 0.27744 0.64276 0.83986 0.0
C3302 C 0.30724 0.64717 0.84317 0.0
C3303 C 0.32292 0.64811 0.84345 0.0
C3304 C 0.29815 0.63368 0.83862 0.0
C3305 C 0.3293 0.63512 0.8404 0.0
C3306 C 0.32027 0.62157 0.83624 0.0
C3307 C 0.29587 0.60764 0.82886 0.0
C3308 C 0.28058 0.60728 0.82614 0.0
C3309 C 0.30475 0.62082 0.83481 0.0
C3310 C 0.27402 0.61999 0.83067 0.0
C3311 C 0.2827 0.63302 0.83697 0.0
H3312 H 0.39539 0.32606 0.83745 0.0
H3313 H 0.38566 0.35385 0.80516 0.0
H3314 H 0.39919 0.34 0.78546 0.0
H3315 H 0.41348 0.31974 0.77732 0.0
H3316 H 0.42361 0.29242 0.80988 0.0
H3317 H 0.41006 0.30626 0.82948 0.0
C3318 C 0.3962 0.32911 0.82611 0.0
C3319 C 0.38947 0.34098 0.82282 0.0
C3320 C 0.40402 0.32114 0.81485 0.0
C3321 C 0.39072 0.34478 0.80804 0.0
C3322 C 0.39845 0.33685 0.79675 0.0
C3323 C 0.41287 0.31691 0.78874 0.0
C3324 C 0.41952 0.30499 0.79207 0.0
C3325 C 0.40514 0.325 0.80002 0.0
C3326 C 0.41841 0.30137 0.80691 0.0
C3327 C 0.41073 0.30934 0.81817 0.0
H3328 H 0.35216 0.38962 0.2375 0.0
H3329 H 0.35669 0.41546 0.20021 0.0
H3330 H 0.33854 0.43035 0.21245 0.0
H3331 H 0.3213 0.43598 0.2337 0.0
H3332 H 0.31618 0.40948 0.27051 0.0
H3333 H 0.33486 0.39514 0.25862 0.0
C3334 C 0.3492 0.39851 0.23203 0.0
C3335 C 0.35579 0.40139 0.21794 0.0
C3336 C 0.33872 0.407 0.2391 0.0
C3337 C 0.35179 0.41297 0.21104 0.0
C3338 C 0.34141 0.42151 0.21804 0.0
C3339 C 0.32419 0.42701 0.23908 0.0
C3340 C 0.31734 0.4239 0.25303 0.0
C3341 C 0.33477 0.4186 0.23206 0.0
C3342 C 0.32143 0.41234 0.25992 0.0
C3343 C 0.33203 0.40403 0.25307 0.0
H3344 H 0.66766 0.33474 0.22253 0.0
H3345 H 0.70921 0.34035 0.24606 0.0
H3346 H 0.69542 0.33359 0.26885 0.0
H3347 H 0.67148 0.32783 0.28267 0.0
H3348 H 0.6299 0.32259 0.25939 0.0
H3349 H 0.64378 0.32723 0.23592 0.0
C3350 C 0.67371 0.33433 0.23259 0.0
C3351 C 0.68943 0.33821 0.2326 0.0
C3352 C 0.6657 0.33054 0.24575 0.0
C3353 C 0.6971 0.33752 0.24573 0.0
C3354 C 0.68923 0.33368 0.25881 0.0
C3355 C 0.66548 0.32766 0.27244 0.0
C3356 C 0.64971 0.32498 0.27278 0.0
C3357 C 0.67352 0.33048 0.25904 0.0
C3358 C 0.64206 0.32453 0.25939 0.0
C3359 C 0.64998 0.32728 0.24599 0.0
H3360 H 0.39883 0.69053 0.16791 0.0
H3361 H 0.40177 0.66252 0.20224 0.0
H3362 H 0.41237 0.68399 0.21946 0.0
H3363 H 0.42206 0.7106 0.2242 0.0
H3364 H 0.4188 0.73846 0.18972 0.0
H3365 H 0.4073 0.71713 0.17304 0.0
C3366 C 0.40173 0.68913 0.17919 0.0
C3367 C 0.39937 0.67498 0.18385 0.0
C3368 C 0.40792 0.70149 0.18894 0.0
C3369 C 0.40313 0.67333 0.1985 0.0
C3370 C 0.40935 0.6856 0.20829 0.0
C3371 C 0.41863 0.71205 0.21313 0.0
C3372 C 0.42145 0.72613 0.2082 0.0
C3373 C 0.4119 0.69972 0.20359 0.0
C3374 C 0.41706 0.72774 0.19372 0.0
C3375 C 0.4104 0.71555 0.18419 0.0
loop_
_geom_bond_atom_site_label_1
_geom_bond_atom_site_label_2
_geom_bond_distance
_geom_bond_site_symmetry_2
_ccdc_geom_bond_type
O0 Cd1 2.300 . S
O0 C7 1.275 . S
Cd1 O0 2.300 . S
Cd1 O9 2.381 . S
Cd1 O10 2.378 . S
O2 Cd3 2.385 . S
O2 C7 1.255 . S
Cd3 O2 2.385 . S
Cd3 O4 2.317 . S
O4 Cd3 2.317 . S
O4 C5 1.232 . S
C5 O4 1.232 . S
C5 O6 1.218 . S
O6 C5 1.218 . S
C7 O0 1.275 . S
C7 O2 1.255 . S
C8 O9 1.258 . S
C8 O10 1.256 . S
O9 Cd1 2.381 . S
O9 C8 1.258 . S
O10 Cd1 2.378 . S
O10 C8 1.256 . S
O11 Cd12 2.300 . S
O11 C18 1.275 . S
Cd12 O11 2.300 . S
Cd12 O20 2.381 . S
Cd12 O21 2.378 . S
O13 Cd14 2.385 . S
O13 C18 1.255 . S
Cd14 O13 2.385 . S
Cd14 O15 2.317 . S
O15 Cd14 2.317 . S
O15 C16 1.232 . S
C16 O15 1.232 . S
C16 O17 1.218 . S
O17 C16 1.218 . S
C18 O11 1.275 . S
C18 O13 1.255 . S
C19 O20 1.258 . S
C19 O21 1.256 . S
O20 Cd12 2.381 . S
O20 C19 1.258 . S
O21 Cd12 2.378 . S
O21 C19 1.256 . S
O22 Cd23 2.300 . S
O22 C29 1.275 . S
Cd23 O22 2.300 . S
Cd23 O31 2.381 . S
Cd23 O32 2.378 . S
O24 Cd25 2.385 . S
O24 C29 1.255 . S
Cd25 O24 2.385 . S
Cd25 O26 2.317 . S
O26 Cd25 2.317 . S
O26 C27 1.232 . S
C27 O26 1.232 . S
C27 O28 1.218 . S
O28 C27 1.218 . S
C29 O22 1.275 . S
C29 O24 1.255 . S
C30 O31 1.258 . S
C30 O32 1.256 . S
O31 Cd23 2.381 . S
O31 C30 1.258 . S
O32 Cd23 2.378 . S
O32 C30 1.256 . S
O33 Cd34 2.300 . S
O33 C40 1.275 . S
Cd34 O33 2.300 . S
Cd34 O42 2.381 . S
Cd34 O43 2.378 . S
O35 Cd36 2.385 . S
O35 C40 1.255 . S
Cd36 O35 2.385 . S
Cd36 O37 2.317 . S
O37 Cd36 2.317 . S
O37 C38 1.232 . S
C38 O37 1.232 . S
C38 O39 1.218 . S
O39 C38 1.218 . S
C40 O33 1.275 . S
C40 O35 1.255 . S
C41 O42 1.258 . S
C41 O43 1.256 . S
O42 Cd34 2.381 . S
O42 C41 1.258 . S
O43 Cd34 2.378 . S
O43 C41 1.256 . S
O44 Cd45 2.300 . S
O44 C51 1.275 . S
Cd45 O44 2.300 . S
Cd45 O53 2.381 . S
Cd45 O54 2.378 . S
O46 Cd47 2.385 . S
O46 C51 1.255 . S
Cd47 O46 2.385 . S
Cd47 O48 2.317 . S
O48 Cd47 2.317 . S
O48 C49 1.232 . S
C49 O48 1.232 . S
C49 O50 1.218 . S
O50 C49 1.218 . S
C51 O44 1.275 . S
C51 O46 1.255 . S
C52 O53 1.258 . S
C52 O54 1.256 . S
O53 Cd45 2.381 . S
O53 C52 1.258 . S
O54 Cd45 2.378 . S
O54 C52 1.256 . S
O55 Cd56 2.300 . S
O55 C62 1.275 . S
Cd56 O55 2.300 . S
Cd56 O64 2.381 . S
Cd56 O65 2.378 . S
O57 Cd58 2.385 . S
O57 C62 1.255 . S
Cd58 O57 2.385 . S
Cd58 O59 2.317 . S
O59 Cd58 2.317 . S
O59 C60 1.232 . S
C60 O59 1.232 . S
C60 O61 1.218 . S
O61 C60 1.218 . S
C62 O55 1.275 . S
C62 O57 1.255 . S
C63 O64 1.258 . S
C63 O65 1.256 . S
O64 Cd56 2.381 . S
O64 C63 1.258 . S
O65 Cd56 2.378 . S
O65 C63 1.256 . S
O66 Cd67 2.300 . S
O66 C73 1.275 . S
Cd67 O66 2.300 . S
Cd67 O75 2.381 . S
Cd67 O76 2.378 . S
O68 Cd69 2.385 . S
O68 C73 1.255 . S
Cd69 O68 2.385 . S
Cd69 O70 2.317 . S
O70 Cd69 2.317 . S
O70 C71 1.232 . S
C71 O70 1.232 . S
C71 O72 1.218 . S
O72 C71 1.218 . S
C73 O66 1.275 . S
C73 O68 1.255 . S
C74 O75 1.258 . S
C74 O76 1.256 . S
O75 Cd67 2.381 . S
O75 C74 1.258 . S
O76 Cd67 2.378 . S
O76 C74 1.256 . S
O77 Cd78 2.300 . S
O77 C84 1.275 . S
Cd78 O77 2.300 . S
Cd78 O86 2.381 . S
Cd78 O87 2.378 . S
O79 Cd80 2.385 . S
O79 C84 1.255 . S
Cd80 O79 2.385 . S
Cd80 O81 2.317 . S
O81 Cd80 2.317 . S
O81 C82 1.232 . S
C82 O81 1.232 . S
C82 O83 1.218 . S
O83 C82 1.218 . S
C84 O77 1.275 . S
C84 O79 1.255 . S
C85 O86 1.258 . S
C85 O87 1.256 . S
O86 Cd78 2.381 . S
O86 C85 1.258 . S
O87 Cd78 2.378 . S
O87 C85 1.256 . S
O88 Cd89 2.300 . S
O88 C95 1.275 . S
Cd89 O88 2.300 . S
Cd89 O97 2.381 . S
Cd89 O98 2.378 . S
O90 Cd91 2.385 . S
O90 C95 1.255 . S
Cd91 O90 2.385 . S
Cd91 O92 2.317 . S
O92 Cd91 2.317 . S
O92 C93 1.232 . S
C93 O92 1.232 . S
C93 O94 1.218 . S
O94 C93 1.218 . S
C95 O88 1.275 . S
C95 O90 1.255 . S
C96 O97 1.258 . S
C96 O98 1.256 . S
O97 Cd89 2.381 . S
O97 C96 1.258 . S
O98 Cd89 2.378 . S
O98 C96 1.256 . S
O99 Cd100 2.300 . S
O99 C106 1.275 . S
Cd100 O99 2.300 . S
Cd100 O108 2.381 . S
Cd100 O109 2.378 . S
O101 Cd102 2.385 . S
O101 C106 1.255 . S
Cd102 O101 2.385 . S
Cd102 O103 2.317 . S
O103 Cd102 2.317 . S
O103 C104 1.232 . S
C104 O103 1.232 . S
C104 O105 1.218 . S
O105 C104 1.218 . S
C106 O99 1.275 . S
C106 O101 1.255 . S
C107 O108 1.258 . S
C107 O109 1.256 . S
O108 Cd100 2.381 . S
O108 C107 1.258 . S
O109 Cd100 2.378 . S
O109 C107 1.256 . S
O110 Cd111 2.300 . S
O110 C117 1.275 . S
Cd111 O110 2.300 . S
Cd111 O119 2.381 . S
Cd111 O120 2.378 . S
O112 Cd113 2.385 . S
O112 C117 1.255 . S
Cd113 O112 2.385 . S
Cd113 O114 2.317 . S
O114 Cd113 2.317 . S
O114 C115 1.232 . S
C115 O114 1.232 . S
C115 O116 1.218 . S
O116 C115 1.218 . S
C117 O110 1.275 . S
C117 O112 1.255 . S
C118 O119 1.258 . S
C118 O120 1.256 . S
O119 Cd111 2.381 . S
O119 C118 1.258 . S
O120 Cd111 2.378 . S
O120 C118 1.256 . S
O121 Cd122 2.300 . S
O121 C128 1.275 . S
Cd122 O121 2.300 . S
Cd122 O130 2.381 . S
Cd122 O131 2.378 . S
O123 Cd124 2.385 . S
O123 C128 1.255 . S
Cd124 O123 2.385 . S
Cd124 O125 2.317 . S
O125 Cd124 2.317 . S
O125 C126 1.232 . S
C126 O125 1.232 . S
C126 O127 1.218 . S
O127 C126 1.218 . S
C128 O121 1.275 . S
C128 O123 1.255 . S
C129 O130 1.258 . S
C129 O131 1.256 . S
O130 Cd122 2.381 . S
O130 C129 1.258 . S
O131 Cd122 2.378 . S
O131 C129 1.256 . S
O132 Cd133 2.300 . S
O132 C139 1.275 . S
Cd133 O132 2.300 . S
Cd133 O141 2.381 . S
Cd133 O142 2.378 . S
O134 Cd135 2.385 . S
O134 C139 1.255 . S
Cd135 O134 2.385 . S
Cd135 O136 2.317 . S
O136 Cd135 2.317 . S
O136 C137 1.232 . S
C137 O136 1.232 . S
C137 O138 1.218 . S
O138 C137 1.218 . S
C139 O132 1.275 . S
C139 O134 1.255 . S
C140 O141 1.258 . S
C140 O142 1.256 . S
O141 Cd133 2.381 . S
O141 C140 1.258 . S
O142 Cd133 2.378 . S
O142 C140 1.256 . S
O143 Cd144 2.300 . S
O143 C150 1.275 . S
Cd144 O143 2.300 . S
Cd144 O152 2.381 . S
Cd144 O153 2.378 . S
O145 Cd146 2.385 . S
O145 C150 1.255 . S
Cd146 O145 2.385 . S
Cd146 O147 2.317 . S
O147 Cd146 2.317 . S
O147 C148 1.232 . S
C148 O147 1.232 . S
C148 O149 1.218 . S
O149 C148 1.218 . S
C150 O143 1.275 . S
C150 O145 1.255 . S
C151 O152 1.258 . S
C151 O153 1.256 . S
O152 Cd144 2.381 . S
O152 C151 1.258 . S
O153 Cd144 2.378 . S
O153 C151 1.256 . S
O154 Cd155 2.300 . S
O154 C161 1.275 . S
Cd155 O154 2.300 . S
Cd155 O163 2.381 . S
Cd155 O164 2.378 . S
O156 Cd157 2.385 . S
O156 C161 1.255 . S
Cd157 O156 2.385 . S
Cd157 O158 2.317 . S
O158 Cd157 2.317 . S
O158 C159 1.232 . S
C159 O158 1.232 . S
C159 O160 1.218 . S
O160 C159 1.218 . S
C161 O154 1.275 . S
C161 O156 1.255 . S
C162 O163 1.258 . S
C162 O164 1.256 . S
O163 Cd155 2.381 . S
O163 C162 1.258 . S
O164 Cd155 2.378 . S
O164 C162 1.256 . S
O165 Cd166 2.300 . S
O165 C172 1.275 . S
Cd166 O165 2.300 . S
Cd166 O174 2.381 . S
Cd166 O175 2.378 . S
O167 Cd168 2.385 . S
O167 C172 1.255 . S
Cd168 O167 2.385 . S
Cd168 O169 2.317 . S
O169 Cd168 2.317 . S
O169 C170 1.232 . S
C170 O169 1.232 . S
C170 O171 1.218 . S
O171 C170 1.218 . S
C172 O165 1.275 . S
C172 O167 1.255 . S
C173 O174 1.258 . S
C173 O175 1.256 . S
O174 Cd166 2.381 . S
O174 C173 1.258 . S
O175 Cd166 2.378 . S
O175 C173 1.256 . S
O176 Cd177 2.300 . S
O176 C183 1.275 . S
Cd177 O176 2.300 . S
Cd177 O185 2.381 . S
Cd177 O186 2.378 . S
O178 Cd179 2.385 . S
O178 C183 1.255 . S
Cd179 O178 2.385 . S
Cd179 O180 2.317 . S
O180 Cd179 2.317 . S
O180 C181 1.232 . S
C181 O180 1.232 . S
C181 O182 1.218 . S
O182 C181 1.218 . S
C183 O176 1.275 . S
C183 O178 1.255 . S
C184 O185 1.258 . S
C184 O186 1.256 . S
O185 Cd177 2.381 . S
O185 C184 1.258 . S
O186 Cd177 2.378 . S
O186 C184 1.256 . S
O187 Cd188 2.300 . S
O187 C194 1.275 . S
Cd188 O187 2.300 . S
Cd188 O196 2.381 . S
Cd188 O197 2.378 . S
O189 Cd190 2.385 . S
O189 C194 1.255 . S
Cd190 O189 2.385 . S
Cd190 O191 2.317 . S
O191 Cd190 2.317 . S
O191 C192 1.232 . S
C192 O191 1.232 . S
C192 O193 1.218 . S
O193 C192 1.218 . S
C194 O187 1.275 . S
C194 O189 1.255 . S
C195 O196 1.258 . S
C195 O197 1.256 . S
O196 Cd188 2.381 . S
O196 C195 1.258 . S
O197 Cd188 2.378 . S
O197 C195 1.256 . S
O198 Cd199 2.300 . S
O198 C205 1.275 . S
Cd199 O198 2.300 . S
Cd199 O207 2.381 . S
Cd199 O208 2.378 . S
O200 Cd201 2.385 . S
O200 C205 1.255 . S
Cd201 O200 2.385 . S
Cd201 O202 2.317 . S
O202 Cd201 2.317 . S
O202 C203 1.232 . S
C203 O202 1.232 . S
C203 O204 1.218 . S
O204 C203 1.218 . S
C205 O198 1.275 . S
C205 O200 1.255 . S
C206 O207 1.258 . S
C206 O208 1.256 . S
O207 Cd199 2.381 . S
O207 C206 1.258 . S
O208 Cd199 2.378 . S
O208 C206 1.256 . S
O209 Cd210 2.300 . S
O209 C216 1.275 . S
Cd210 O209 2.300 . S
Cd210 O218 2.381 . S
Cd210 O219 2.378 . S
O211 Cd212 2.385 . S
O211 C216 1.255 . S
Cd212 O211 2.385 . S
Cd212 O213 2.317 . S
O213 Cd212 2.317 . S
O213 C214 1.232 . S
C214 O213 1.232 . S
C214 O215 1.218 . S
O215 C214 1.218 . S
C216 O209 1.275 . S
C216 O211 1.255 . S
C217 O218 1.258 . S
C217 O219 1.256 . S
O218 Cd210 2.381 . S
O218 C217 1.258 . S
O219 Cd210 2.378 . S
O219 C217 1.256 . S
O220 Cd221 2.300 . S
O220 C227 1.275 . S
Cd221 O220 2.300 . S
Cd221 O229 2.381 . S
Cd221 O230 2.378 . S
O222 Cd223 2.385 . S
O222 C227 1.255 . S
Cd223 O222 2.385 . S
Cd223 O224 2.317 . S
O224 Cd223 2.317 . S
O224 C225 1.232 . S
C225 O224 1.232 . S
C225 O226 1.218 . S
O226 C225 1.218 . S
C227 O220 1.275 . S
C227 O222 1.255 . S
C228 O229 1.258 . S
C228 O230 1.256 . S
O229 Cd221 2.381 . S
O229 C228 1.258 . S
O230 Cd221 2.378 . S
O230 C228 1.256 . S
O231 Cd232 2.300 . S
O231 C238 1.275 . S
Cd232 O231 2.300 . S
Cd232 O240 2.381 . S
Cd232 O241 2.378 . S
O233 Cd234 2.385 . S
O233 C238 1.255 . S
Cd234 O233 2.385 . S
Cd234 O235 2.317 . S
O235 Cd234 2.317 . S
O235 C236 1.232 . S
C236 O235 1.232 . S
C236 O237 1.218 . S
O237 C236 1.218 . S
C238 O231 1.275 . S
C238 O233 1.255 . S
C239 O240 1.258 . S
C239 O241 1.256 . S
O240 Cd232 2.381 . S
O240 C239 1.258 . S
O241 Cd232 2.378 . S
O241 C239 1.256 . S
O242 Cd243 2.300 . S
O242 C249 1.275 . S
Cd243 O242 2.300 . S
Cd243 O251 2.381 . S
Cd243 O252 2.378 . S
O244 Cd245 2.385 . S
O244 C249 1.255 . S
Cd245 O244 2.385 . S
Cd245 O246 2.317 . S
O246 Cd245 2.317 . S
O246 C247 1.232 . S
C247 O246 1.232 . S
C247 O248 1.218 . S
O248 C247 1.218 . S
C249 O242 1.275 . S
C249 O244 1.255 . S
C250 O251 1.258 . S
C250 O252 1.256 . S
O251 Cd243 2.381 . S
O251 C250 1.258 . S
O252 Cd243 2.378 . S
O252 C250 1.256 . S
O253 Cd254 2.300 . S
O253 C260 1.275 . S
Cd254 O253 2.300 . S
Cd254 O262 2.381 . S
Cd254 O263 2.378 . S
O255 Cd256 2.385 . S
O255 C260 1.255 . S
Cd256 O255 2.385 . S
Cd256 O257 2.317 . S
O257 Cd256 2.317 . S
O257 C258 1.232 . S
C258 O257 1.232 . S
C258 O259 1.218 . S
O259 C258 1.218 . S
C260 O253 1.275 . S
C260 O255 1.255 . S
C261 O262 1.258 . S
C261 O263 1.256 . S
O262 Cd254 2.381 . S
O262 C261 1.258 . S
O263 Cd254 2.378 . S
O263 C261 1.256 . S
O264 Cd265 2.300 . S
O264 C271 1.275 . S
Cd265 O264 2.300 . S
Cd265 O273 2.381 . S
Cd265 O274 2.378 . S
O266 Cd267 2.385 . S
O266 C271 1.255 . S
Cd267 O266 2.385 . S
Cd267 O268 2.317 . S
O268 Cd267 2.317 . S
O268 C269 1.232 . S
C269 O268 1.232 . S
C269 O270 1.218 . S
O270 C269 1.218 . S
C271 O264 1.275 . S
C271 O266 1.255 . S
C272 O273 1.258 . S
C272 O274 1.256 . S
O273 Cd265 2.381 . S
O273 C272 1.258 . S
O274 Cd265 2.378 . S
O274 C272 1.256 . S
O275 Cd276 2.300 . S
O275 C282 1.275 . S
Cd276 O275 2.300 . S
Cd276 O284 2.381 . S
Cd276 O285 2.378 . S
O277 Cd278 2.385 . S
O277 C282 1.255 . S
Cd278 O277 2.385 . S
Cd278 O279 2.317 . S
O279 Cd278 2.317 . S
O279 C280 1.232 . S
C280 O279 1.232 . S
C280 O281 1.218 . S
O281 C280 1.218 . S
C282 O275 1.275 . S
C282 O277 1.255 . S
C283 O284 1.258 . S
C283 O285 1.256 . S
O284 Cd276 2.381 . S
O284 C283 1.258 . S
O285 Cd276 2.378 . S
O285 C283 1.256 . S
O286 Cd287 2.300 . S
O286 C293 1.275 . S
Cd287 O286 2.300 . S
Cd287 O295 2.381 . S
Cd287 O296 2.378 . S
O288 Cd289 2.385 . S
O288 C293 1.255 . S
Cd289 O288 2.385 . S
Cd289 O290 2.317 . S
O290 Cd289 2.317 . S
O290 C291 1.232 . S
C291 O290 1.232 . S
C291 O292 1.218 . S
O292 C291 1.218 . S
C293 O286 1.275 . S
C293 O288 1.255 . S
C294 O295 1.258 . S
C294 O296 1.256 . S
O295 Cd287 2.381 . S
O295 C294 1.258 . S
O296 Cd287 2.378 . S
O296 C294 1.256 . S
O297 Cd298 2.300 . S
O297 C304 1.275 . S
Cd298 O297 2.300 . S
Cd298 O306 2.381 . S
Cd298 O307 2.378 . S
O299 Cd300 2.385 . S
O299 C304 1.255 . S
Cd300 O299 2.385 . S
Cd300 O301 2.317 . S
O301 Cd300 2.317 . S
O301 C302 1.232 . S
C302 O301 1.232 . S
C302 O303 1.218 . S
O303 C302 1.218 . S
C304 O297 1.275 . S
C304 O299 1.255 . S
C305 O306 1.258 . S
C305 O307 1.256 . S
O306 Cd298 2.381 . S
O306 C305 1.258 . S
O307 Cd298 2.378 . S
O307 C305 1.256 . S
O308 Cd309 2.300 . S
O308 C315 1.275 . S
Cd309 O308 2.300 . S
Cd309 O317 2.381 . S
Cd309 O318 2.378 . S
O310 Cd311 2.385 . S
O310 C315 1.255 . S
Cd311 O310 2.385 . S
Cd311 O312 2.317 . S
O312 Cd311 2.317 . S
O312 C313 1.232 . S
C313 O312 1.232 . S
C313 O314 1.218 . S
O314 C313 1.218 . S
C315 O308 1.275 . S
C315 O310 1.255 . S
C316 O317 1.258 . S
C316 O318 1.256 . S
O317 Cd309 2.381 . S
O317 C316 1.258 . S
O318 Cd309 2.378 . S
O318 C316 1.256 . S
O319 Cd320 2.300 . S
O319 C326 1.275 . S
Cd320 O319 2.300 . S
Cd320 O328 2.381 . S
Cd320 O329 2.378 . S
O321 Cd322 2.385 . S
O321 C326 1.255 . S
Cd322 O321 2.385 . S
Cd322 O323 2.317 . S
O323 Cd322 2.317 . S
O323 C324 1.232 . S
C324 O323 1.232 . S
C324 O325 1.218 . S
O325 C324 1.218 . S
C326 O319 1.275 . S
C326 O321 1.255 . S
C327 O328 1.258 . S
C327 O329 1.256 . S
O328 Cd320 2.381 . S
O328 C327 1.258 . S
O329 Cd320 2.378 . S
O329 C327 1.256 . S
O330 Cd331 2.300 . S
O330 C337 1.275 . S
Cd331 O330 2.300 . S
Cd331 O339 2.381 . S
Cd331 O340 2.378 . S
O332 Cd333 2.385 . S
O332 C337 1.255 . S
Cd333 O332 2.385 . S
Cd333 O334 2.317 . S
O334 Cd333 2.317 . S
O334 C335 1.232 . S
C335 O334 1.232 . S
C335 O336 1.218 . S
O336 C335 1.218 . S
C337 O330 1.275 . S
C337 O332 1.255 . S
C338 O339 1.258 . S
C338 O340 1.256 . S
O339 Cd331 2.381 . S
O339 C338 1.258 . S
O340 Cd331 2.378 . S
O340 C338 1.256 . S
O341 Cd342 2.300 . S
O341 C348 1.275 . S
Cd342 O341 2.300 . S
Cd342 O350 2.381 . S
Cd342 O351 2.378 . S
O343 Cd344 2.385 . S
O343 C348 1.255 . S
Cd344 O343 2.385 . S
Cd344 O345 2.317 . S
O345 Cd344 2.317 . S
O345 C346 1.232 . S
C346 O345 1.232 . S
C346 O347 1.218 . S
O347 C346 1.218 . S
C348 O341 1.275 . S
C348 O343 1.255 . S
C349 O350 1.258 . S
C349 O351 1.256 . S
O350 Cd342 2.381 . S
O350 C349 1.258 . S
O351 Cd342 2.378 . S
O351 C349 1.256 . S
H352 C379 0.929 . S
N353 C378 1.433 . S
N353 C384 1.435 . S
N353 C390 1.423 1_556 S
H354 C380 0.930 . S
H355 C383 0.931 . S
H356 C382 0.929 . S
H357 C385 0.930 . S
H358 C386 0.932 . S
H359 C389 0.929 . S
H360 C388 0.931 . S
H361 C391 0.929 . S
H362 C395 0.932 . S
H363 C392 0.931 . S
H364 C394 0.929 . S
H365 C397 0.929 . S
H366 C398 0.930 . S
H367 C400 0.929 . S
H368 C401 0.931 . S
H369 C403 0.930 . S
H370 C404 0.932 . S
H371 C406 0.931 . S
H372 C407 0.929 . S
H373 C409 0.929 . S
H374 C410 0.931 . S
H375 C412 0.929 . S
N376 C396 1.433 . S
N376 C402 1.435 . S
N376 C408 1.423 . S
H377 C413 0.932 . S
C378 N353 1.433 . S
C378 C379 1.363 . S
C378 C383 1.370 . S
C379 H352 0.929 . S
C379 C378 1.363 . S
C379 C380 1.385 . S
C380 H354 0.930 . S
C380 C379 1.385 . S
C380 C381 1.357 . S
C381 C380 1.357 . S
C381 C382 1.406 . S
C382 H356 0.929 . S
C382 C381 1.406 . S
C382 C383 1.391 . S
C383 H355 0.931 . S
C383 C378 1.370 . S
C383 C382 1.391 . S
C384 N353 1.435 . S
C384 C385 1.358 . S
C384 C389 1.371 . S
C385 H357 0.930 . S
C385 C384 1.358 . S
C385 C386 1.405 . S
C386 H358 0.932 . S
C386 C385 1.405 . S
C386 C387 1.383 . S
C387 C386 1.383 . S
C387 C388 1.393 . S
C388 H360 0.931 . S
C388 C387 1.393 . S
C388 C389 1.382 . S
C389 H359 0.929 . S
C389 C384 1.371 . S
C389 C388 1.382 . S
C390 N353 1.423 1_554 S
C390 C391 1.362 . S
C390 C395 1.388 . S
C391 H361 0.929 . S
C391 C390 1.362 . S
C391 C392 1.376 . S
C392 H363 0.931 . S
C392 C391 1.376 . S
C392 C393 1.396 . S
C393 C392 1.396 . S
C393 C394 1.348 . S
C393 C411 1.472 . S
C394 H364 0.929 . S
C394 C393 1.348 . S
C394 C395 1.443 . S
C395 H362 0.932 . S
C395 C390 1.388 . S
C395 C394 1.443 . S
C396 N376 1.433 . S
C396 C397 1.363 . S
C396 C401 1.370 . S
C397 H365 0.929 . S
C397 C396 1.363 . S
C397 C398 1.385 . S
C398 H366 0.930 . S
C398 C397 1.385 . S
C398 C399 1.357 . S
C399 C398 1.357 . S
C399 C400 1.406 . S
C400 H367 0.929 . S
C400 C399 1.406 . S
C400 C401 1.391 . S
C401 H368 0.931 . S
C401 C396 1.370 . S
C401 C400 1.391 . S
C402 N376 1.435 . S
C402 C403 1.358 . S
C402 C407 1.371 . S
C403 H369 0.930 . S
C403 C402 1.358 . S
C403 C404 1.405 . S
C404 H370 0.932 . S
C404 C403 1.405 . S
C404 C405 1.383 . S
C405 C404 1.383 . S
C405 C406 1.393 . S
C406 H371 0.931 . S
C406 C405 1.393 . S
C406 C407 1.382 . S
C407 H372 0.929 . S
C407 C402 1.371 . S
C407 C406 1.382 . S
C408 N376 1.423 . S
C408 C409 1.362 . S
C408 C413 1.388 . S
C409 H373 0.929 . S
C409 C408 1.362 . S
C409 C410 1.376 . S
C410 H374 0.931 . S
C410 C409 1.376 . S
C410 C411 1.396 . S
C411 C393 1.472 . S
C411 C410 1.396 . S
C411 C412 1.348 . S
C412 H375 0.929 . S
C412 C411 1.348 . S
C412 C413 1.443 . S
C413 H377 0.932 . S
C413 C408 1.388 . S
C413 C412 1.443 . S
H414 C441 0.929 . S
N415 C440 1.433 . S
N415 C446 1.435 . S
N415 C452 1.423 . S
H416 C442 0.930 . S
H417 C445 0.931 . S
H418 C444 0.929 . S
H419 C447 0.930 . S
H420 C448 0.932 . S
H421 C451 0.929 . S
H422 C450 0.931 . S
H423 C453 0.929 . S
H424 C457 0.932 . S
H425 C454 0.931 . S
H426 C456 0.929 . S
H427 C459 0.929 . S
H428 C460 0.930 . S
H429 C462 0.929 . S
H430 C463 0.931 . S
H431 C465 0.930 . S
H432 C466 0.932 . S
H433 C468 0.931 . S
H434 C469 0.929 . S
H435 C471 0.929 . S
H436 C472 0.931 . S
H437 C474 0.929 . S
N438 C458 1.433 . S
N438 C464 1.435 . S
N438 C470 1.423 . S
H439 C475 0.932 . S
C440 N415 1.433 . S
C440 C441 1.363 . S
C440 C445 1.370 . S
C441 H414 0.929 . S
C441 C440 1.363 . S
C441 C442 1.385 . S
C442 H416 0.930 . S
C442 C441 1.385 . S
C442 C443 1.357 . S
C443 C442 1.357 . S
C443 C444 1.406 . S
C444 H418 0.929 . S
C444 C443 1.406 . S
C444 C445 1.391 . S
C445 H417 0.931 . S
C445 C440 1.370 . S
C445 C444 1.391 . S
C446 N415 1.435 . S
C446 C447 1.358 . S
C446 C451 1.371 . S
C447 H419 0.930 . S
C447 C446 1.358 . S
C447 C448 1.405 . S
C448 H420 0.932 . S
C448 C447 1.405 . S
C448 C449 1.383 . S
C449 C448 1.383 . S
C449 C450 1.393 . S
C450 H422 0.931 . S
C450 C449 1.393 . S
C450 C451 1.382 . S
C451 H421 0.929 . S
C451 C446 1.371 . S
C451 C450 1.382 . S
C452 N415 1.423 . S
C452 C453 1.362 . S
C452 C457 1.388 . S
C453 H423 0.929 . S
C453 C452 1.362 . S
C453 C454 1.376 . S
C454 H425 0.931 . S
C454 C453 1.376 . S
C454 C455 1.405 . S
C455 C454 1.405 . S
C455 C456 1.356 . S
C455 C473 1.456 1_556 S
C456 H426 0.929 . S
C456 C455 1.356 . S
C456 C457 1.443 . S
C457 H424 0.932 . S
C457 C452 1.388 . S
C457 C456 1.443 . S
C458 N438 1.433 . S
C458 C459 1.363 . S
C458 C463 1.370 . S
C459 H427 0.929 . S
C459 C458 1.363 . S
C459 C460 1.385 . S
C460 H428 0.930 . S
C460 C459 1.385 . S
C460 C461 1.357 . S
C461 C460 1.357 . S
C461 C462 1.406 . S
C462 H429 0.929 . S
C462 C461 1.406 . S
C462 C463 1.391 . S
C463 H430 0.931 . S
C463 C458 1.370 . S
C463 C462 1.391 . S
C464 N438 1.435 . S
C464 C465 1.358 . S
C464 C469 1.371 . S
C465 H431 0.930 . S
C465 C464 1.358 . S
C465 C466 1.405 . S
C466 H432 0.932 . S
C466 C465 1.405 . S
C466 C467 1.383 . S
C467 C466 1.383 . S
C467 C468 1.393 . S
C468 H433 0.931 . S
C468 C467 1.393 . S
C468 C469 1.382 . S
C469 H434 0.929 . S
C469 C464 1.371 . S
C469 C468 1.382 . S
C470 N438 1.423 . S
C470 C471 1.362 . S
C470 C475 1.388 . S
C471 H435 0.929 . S
C471 C470 1.362 . S
C471 C472 1.376 . S
C472 H436 0.931 . S
C472 C471 1.376 . S
C472 C473 1.396 . S
C473 C455 1.456 1_554 S
C473 C472 1.396 . S
C473 C474 1.348 . S
C474 H437 0.929 . S
C474 C473 1.348 . S
C474 C475 1.443 . S
C475 H439 0.932 . S
C475 C470 1.388 . S
C475 C474 1.443 . S
H476 C503 0.929 . S
N477 C502 1.433 . S
N477 C508 1.435 . S
N477 C514 1.423 1_556 S
H478 C504 0.930 . S
H479 C507 0.931 . S
H480 C506 0.929 . S
H481 C509 0.930 . S
H482 C510 0.932 . S
H483 C513 0.929 . S
H484 C512 0.931 . S
H485 C515 0.929 . S
H486 C519 0.932 . S
H487 C516 0.931 . S
H488 C518 0.929 . S
H489 C521 0.929 . S
H490 C522 0.930 . S
H491 C524 0.929 . S
H492 C525 0.931 . S
H493 C527 0.930 . S
H494 C528 0.932 . S
H495 C530 0.931 . S
H496 C531 0.929 . S
H497 C533 0.929 . S
H498 C534 0.931 . S
H499 C536 0.929 . S
N500 C520 1.433 . S
N500 C526 1.435 . S
N500 C532 1.423 . S
H501 C537 0.932 . S
C502 N477 1.433 . S
C502 C503 1.363 . S
C502 C507 1.370 . S
C503 H476 0.929 . S
C503 C502 1.363 . S
C503 C504 1.385 . S
C504 H478 0.930 . S
C504 C503 1.385 . S
C504 C505 1.357 . S
C505 C504 1.357 . S
C505 C506 1.406 . S
C506 H480 0.929 . S
C506 C505 1.406 . S
C506 C507 1.391 . S
C507 H479 0.931 . S
C507 C502 1.370 . S
C507 C506 1.391 . S
C508 N477 1.435 . S
C508 C509 1.358 . S
C508 C513 1.371 . S
C509 H481 0.930 . S
C509 C508 1.358 . S
C509 C510 1.405 . S
C510 H482 0.932 . S
C510 C509 1.405 . S
C510 C511 1.383 . S
C511 C510 1.383 . S
C511 C512 1.393 . S
C512 H484 0.931 . S
C512 C511 1.393 . S
C512 C513 1.382 . S
C513 H483 0.929 . S
C513 C508 1.371 . S
C513 C512 1.382 . S
C514 N477 1.423 1_554 S
C514 C515 1.362 . S
C514 C519 1.388 . S
C515 H485 0.929 . S
C515 C514 1.362 . S
C515 C516 1.376 . S
C516 H487 0.931 . S
C516 C515 1.376 . S
C516 C517 1.396 . S
C517 C516 1.396 . S
C517 C518 1.348 . S
C517 C535 1.472 . S
C518 H488 0.929 . S
C518 C517 1.348 . S
C518 C519 1.443 . S
C519 H486 0.932 . S
C519 C514 1.388 . S
C519 C518 1.443 . S
C520 N500 1.433 . S
C520 C521 1.363 . S
C520 C525 1.370 . S
C521 H489 0.929 . S
C521 C520 1.363 . S
C521 C522 1.385 . S
C522 H490 0.930 . S
C522 C521 1.385 . S
C522 C523 1.357 . S
C523 C522 1.357 . S
C523 C524 1.406 . S
C524 H491 0.929 . S
C524 C523 1.406 . S
C524 C525 1.391 . S
C525 H492 0.931 . S
C525 C520 1.370 . S
C525 C524 1.391 . S
C526 N500 1.435 . S
C526 C527 1.358 . S
C526 C531 1.371 . S
C527 H493 0.930 . S
C527 C526 1.358 . S
C527 C528 1.405 . S
C528 H494 0.932 . S
C528 C527 1.405 . S
C528 C529 1.383 . S
C529 C528 1.383 . S
C529 C530 1.393 . S
C530 H495 0.931 . S
C530 C529 1.393 . S
C530 C531 1.382 . S
C531 H496 0.929 . S
C531 C526 1.371 . S
C531 C530 1.382 . S
C532 N500 1.423 . S
C532 C533 1.362 . S
C532 C537 1.388 . S
C533 H497 0.929 . S
C533 C532 1.362 . S
C533 C534 1.376 . S
C534 H498 0.931 . S
C534 C533 1.376 . S
C534 C535 1.396 . S
C535 C517 1.472 . S
C535 C534 1.396 . S
C535 C536 1.348 . S
C536 H499 0.929 . S
C536 C535 1.348 . S
C536 C537 1.443 . S
C537 H501 0.932 . S
C537 C532 1.388 . S
C537 C536 1.443 . S
H538 C565 0.929 . S
N539 C564 1.433 . S
N539 C570 1.435 . S
N539 C576 1.423 . S
H540 C566 0.930 . S
H541 C569 0.931 . S
H542 C568 0.929 . S
H543 C571 0.930 . S
H544 C572 0.932 . S
H545 C575 0.929 . S
H546 C574 0.931 . S
H547 C577 0.929 . S
H548 C581 0.932 . S
H549 C578 0.931 . S
H550 C580 0.929 . S
H551 C583 0.929 . S
H552 C584 0.930 . S
H553 C586 0.929 . S
H554 C587 0.931 . S
H555 C589 0.930 . S
H556 C590 0.932 . S
H557 C592 0.931 . S
H558 C593 0.929 . S
H559 C595 0.929 . S
H560 C596 0.931 . S
H561 C598 0.929 . S
N562 C582 1.433 . S
N562 C588 1.435 . S
N562 C594 1.423 . S
H563 C599 0.932 . S
C564 N539 1.433 . S
C564 C565 1.363 . S
C564 C569 1.370 . S
C565 H538 0.929 . S
C565 C564 1.363 . S
C565 C566 1.385 . S
C566 H540 0.930 . S
C566 C565 1.385 . S
C566 C567 1.357 . S
C567 C566 1.357 . S
C567 C568 1.406 . S
C568 H542 0.929 . S
C568 C567 1.406 . S
C568 C569 1.391 . S
C569 H541 0.931 . S
C569 C564 1.370 . S
C569 C568 1.391 . S
C570 N539 1.435 . S
C570 C571 1.358 . S
C570 C575 1.371 . S
C571 H543 0.930 . S
C571 C570 1.358 . S
C571 C572 1.405 . S
C572 H544 0.932 . S
C572 C571 1.405 . S
C572 C573 1.383 . S
C573 C572 1.383 . S
C573 C574 1.393 . S
C574 H546 0.931 . S
C574 C573 1.393 . S
C574 C575 1.382 . S
C575 H545 0.929 . S
C575 C570 1.371 . S
C575 C574 1.382 . S
C576 N539 1.423 . S
C576 C577 1.362 . S
C576 C581 1.388 . S
C577 H547 0.929 . S
C577 C576 1.362 . S
C577 C578 1.376 . S
C578 H549 0.931 . S
C578 C577 1.376 . S
C578 C579 1.396 . S
C579 C578 1.396 . S
C579 C580 1.348 . S
C579 C597 1.472 1_556 S
C580 H550 0.929 . S
C580 C579 1.348 . S
C580 C581 1.443 . S
C581 H548 0.932 . S
C581 C576 1.388 . S
C581 C580 1.443 . S
C582 N562 1.433 . S
C582 C583 1.363 . S
C582 C587 1.370 . S
C583 H551 0.929 . S
C583 C582 1.363 . S
C583 C584 1.385 . S
C584 H552 0.930 . S
C584 C583 1.385 . S
C584 C585 1.357 . S
C585 C584 1.357 . S
C585 C586 1.406 . S
C586 H553 0.929 . S
C586 C585 1.406 . S
C586 C587 1.391 . S
C587 H554 0.931 . S
C587 C582 1.370 . S
C587 C586 1.391 . S
C588 N562 1.435 . S
C588 C589 1.358 . S
C588 C593 1.371 . S
C589 H555 0.930 . S
C589 C588 1.358 . S
C589 C590 1.405 . S
C590 H556 0.932 . S
C590 C589 1.405 . S
C590 C591 1.383 . S
C591 C590 1.383 . S
C591 C592 1.393 . S
C592 H557 0.931 . S
C592 C591 1.393 . S
C592 C593 1.382 . S
C593 H558 0.929 . S
C593 C588 1.371 . S
C593 C592 1.382 . S
C594 N562 1.423 . S
C594 C595 1.362 . S
C594 C599 1.388 . S
C595 H559 0.929 . S
C595 C594 1.362 . S
C595 C596 1.376 . S
C596 H560 0.931 . S
C596 C595 1.376 . S
C596 C597 1.396 . S
C597 C579 1.472 1_554 S
C597 C596 1.396 . S
C597 C598 1.348 . S
C598 H561 0.929 . S
C598 C597 1.348 . S
C598 C599 1.443 . S
C599 H563 0.932 . S
C599 C594 1.388 . S
C599 C598 1.443 . S
H600 C627 0.929 . S
N601 C626 1.433 . S
N601 C632 1.435 . S
N601 C638 1.423 . S
H602 C628 0.930 . S
H603 C631 0.931 . S
H604 C630 0.929 . S
H605 C633 0.930 . S
H606 C634 0.932 . S
H607 C637 0.929 . S
H608 C636 0.931 . S
H609 C639 0.929 . S
H610 C643 0.932 . S
H611 C640 0.931 . S
H612 C642 0.929 . S
H613 C645 0.929 . S
H614 C646 0.930 . S
H615 C648 0.929 . S
H616 C649 0.931 . S
H617 C651 0.930 . S
H618 C652 0.932 . S
H619 C654 0.931 . S
H620 C655 0.929 . S
H621 C657 0.929 . S
H622 C658 0.931 . S
H623 C660 0.929 . S
N624 C644 1.433 . S
N624 C650 1.435 . S
N624 C656 1.423 . S
H625 C661 0.932 . S
C626 N601 1.433 . S
C626 C627 1.363 . S
C626 C631 1.370 . S
C627 H600 0.929 . S
C627 C626 1.363 . S
C627 C628 1.385 . S
C628 H602 0.930 . S
C628 C627 1.385 . S
C628 C629 1.357 . S
C629 C628 1.357 . S
C629 C630 1.406 . S
C630 H604 0.929 . S
C630 C629 1.406 . S
C630 C631 1.391 . S
C631 H603 0.931 . S
C631 C626 1.370 . S
C631 C630 1.391 . S
C632 N601 1.435 . S
C632 C633 1.358 . S
C632 C637 1.371 . S
C633 H605 0.930 . S
C633 C632 1.358 . S
C633 C634 1.405 . S
C634 H606 0.932 . S
C634 C633 1.405 . S
C634 C635 1.383 . S
C635 C634 1.383 . S
C635 C636 1.393 . S
C636 H608 0.931 . S
C636 C635 1.393 . S
C636 C637 1.382 . S
C637 H607 0.929 . S
C637 C632 1.371 . S
C637 C636 1.382 . S
C638 N601 1.423 . S
C638 C639 1.362 . S
C638 C643 1.388 . S
C639 H609 0.929 . S
C639 C638 1.362 . S
C639 C640 1.376 . S
C640 H611 0.931 . S
C640 C639 1.376 . S
C640 C641 1.396 . S
C641 C640 1.396 . S
C641 C642 1.348 . S
C641 C659 1.472 1_655 S
C642 H612 0.929 . S
C642 C641 1.348 . S
C642 C643 1.443 . S
C643 H610 0.932 . S
C643 C638 1.388 . S
C643 C642 1.443 . S
C644 N624 1.433 . S
C644 C645 1.363 . S
C644 C649 1.370 . S
C645 H613 0.929 . S
C645 C644 1.363 . S
C645 C646 1.385 . S
C646 H614 0.930 . S
C646 C645 1.385 . S
C646 C647 1.357 . S
C647 C646 1.357 . S
C647 C648 1.406 . S
C648 H615 0.929 . S
C648 C647 1.406 . S
C648 C649 1.391 . S
C649 H616 0.931 . S
C649 C644 1.370 . S
C649 C648 1.391 . S
C650 N624 1.435 . S
C650 C651 1.358 . S
C650 C655 1.371 . S
C651 H617 0.930 . S
C651 C650 1.358 . S
C651 C652 1.405 . S
C652 H618 0.932 . S
C652 C651 1.405 . S
C652 C653 1.383 . S
C653 C652 1.383 . S
C653 C654 1.393 . S
C654 H619 0.931 . S
C654 C653 1.393 . S
C654 C655 1.382 . S
C655 H620 0.929 . S
C655 C650 1.371 . S
C655 C654 1.382 . S
C656 N624 1.423 . S
C656 C657 1.362 . S
C656 C661 1.388 . S
C657 H621 0.929 . S
C657 C656 1.362 . S
C657 C658 1.376 . S
C658 H622 0.931 . S
C658 C657 1.376 . S
C658 C659 1.396 . S
C659 C641 1.472 1_455 S
C659 C658 1.396 . S
C659 C660 1.348 . S
C660 H623 0.929 . S
C660 C659 1.348 . S
C660 C661 1.443 . S
C661 H625 0.932 . S
C661 C656 1.388 . S
C661 C660 1.443 . S
H662 C689 0.929 . S
N663 C688 1.433 . S
N663 C694 1.435 . S
N663 C700 1.423 . S
H664 C690 0.930 . S
H665 C693 0.931 . S
H666 C692 0.929 . S
H667 C695 0.930 . S
H668 C696 0.932 . S
H669 C699 0.929 . S
H670 C698 0.931 . S
H671 C701 0.929 . S
H672 C705 0.932 . S
H673 C702 0.931 . S
H674 C704 0.929 . S
H675 C707 0.929 . S
H676 C708 0.930 . S
H677 C710 0.929 . S
H678 C711 0.931 . S
H679 C713 0.930 . S
H680 C714 0.932 . S
H681 C716 0.931 . S
H682 C717 0.929 . S
H683 C719 0.929 . S
H684 C720 0.928 1_545 S
H685 C722 0.929 . S
N686 C706 1.433 . S
N686 C712 1.435 . S
N686 C718 1.423 . S
H687 C723 0.932 . S
C688 N663 1.433 . S
C688 C689 1.363 . S
C688 C693 1.370 . S
C689 H662 0.929 . S
C689 C688 1.363 . S
C689 C690 1.385 . S
C690 H664 0.930 . S
C690 C689 1.385 . S
C690 C691 1.357 . S
C691 C690 1.357 . S
C691 C692 1.406 . S
C692 H666 0.929 . S
C692 C691 1.406 . S
C692 C693 1.391 . S
C693 H665 0.931 . S
C693 C688 1.370 . S
C693 C692 1.391 . S
C694 N663 1.435 . S
C694 C695 1.358 . S
C694 C699 1.371 . S
C695 H667 0.930 . S
C695 C694 1.358 . S
C695 C696 1.405 . S
C696 H668 0.932 . S
C696 C695 1.405 . S
C696 C697 1.383 . S
C697 C696 1.383 . S
C697 C698 1.393 . S
C698 H670 0.931 . S
C698 C697 1.393 . S
C698 C699 1.382 . S
C699 H669 0.929 . S
C699 C694 1.371 . S
C699 C698 1.382 . S
C700 N663 1.423 . S
C700 C701 1.362 . S
C700 C705 1.388 . S
C701 H671 0.929 . S
C701 C700 1.362 . S
C701 C702 1.376 . S
C702 H673 0.931 . S
C702 C701 1.376 . S
C702 C703 1.396 . S
C703 C702 1.396 . S
C703 C704 1.348 . S
C703 C721 1.397 1_545 S
C704 H674 0.929 . S
C704 C703 1.348 . S
C704 C705 1.443 . S
C705 H672 0.932 . S
C705 C700 1.388 . S
C705 C704 1.443 . S
C706 N686 1.433 . S
C706 C707 1.363 . S
C706 C711 1.370 . S
C707 H675 0.929 . S
C707 C706 1.363 . S
C707 C708 1.385 . S
C708 H676 0.930 . S
C708 C707 1.385 . S
C708 C709 1.357 . S
C709 C708 1.357 . S
C709 C710 1.406 . S
C710 H677 0.929 . S
C710 C709 1.406 . S
C710 C711 1.391 . S
C711 H678 0.931 . S
C711 C706 1.370 . S
C711 C710 1.391 . S
C712 N686 1.435 . S
C712 C713 1.358 . S
C712 C717 1.371 . S
C713 H679 0.930 . S
C713 C712 1.358 . S
C713 C714 1.405 . S
C714 H680 0.932 . S
C714 C713 1.405 . S
C714 C715 1.383 . S
C715 C714 1.383 . S
C715 C716 1.393 . S
C716 H681 0.931 . S
C716 C715 1.393 . S
C716 C717 1.382 . S
C717 H682 0.929 . S
C717 C712 1.371 . S
C717 C716 1.382 . S
C718 N686 1.423 . S
C718 C719 1.362 . S
C718 C723 1.388 . S
C719 H683 0.929 . S
C719 C718 1.362 . S
C719 C720 1.376 . S
C720 H684 0.928 1_565 S
C720 C719 1.376 . S
C720 C721 1.435 . S
C721 C703 1.397 1_565 S
C721 C720 1.435 . S
C721 C722 1.391 . S
C722 H685 0.929 . S
C722 C721 1.391 . S
C722 C723 1.443 . S
C723 H687 0.932 . S
C723 C718 1.388 . S
C723 C722 1.443 . S
H724 C751 0.929 . S
N725 C750 1.433 . S
N725 C756 1.435 . S
N725 C762 1.423 . S
H726 C752 0.930 . S
H727 C755 0.931 . S
H728 C754 0.929 . S
H729 C757 0.930 . S
H730 C758 0.932 . S
H731 C761 0.929 . S
H732 C760 0.931 . S
H733 C763 0.929 . S
H734 C767 0.932 . S
H735 C764 0.931 . S
H736 C766 0.929 . S
H737 C769 0.929 . S
H738 C770 0.930 . S
H739 C772 0.929 . S
H740 C773 0.931 . S
H741 C775 0.930 . S
H742 C776 0.932 . S
H743 C778 0.924 1_455 S
H744 C779 0.929 . S
H745 C781 0.929 . S
H746 C782 0.931 . S
H747 C784 0.929 . S
N748 C768 1.406 1_455 S
N748 C774 1.435 . S
N748 C780 1.423 . S
H749 C785 0.932 . S
C750 N725 1.433 . S
C750 C751 1.363 . S
C750 C755 1.370 . S
C751 H724 0.929 . S
C751 C750 1.363 . S
C751 C752 1.385 . S
C752 H726 0.930 . S
C752 C751 1.385 . S
C752 C753 1.357 . S
C753 C752 1.357 . S
C753 C754 1.406 . S
C754 H728 0.929 . S
C754 C753 1.406 . S
C754 C755 1.391 . S
C755 H727 0.931 . S
C755 C750 1.370 . S
C755 C754 1.391 . S
C756 N725 1.435 . S
C756 C757 1.358 . S
C756 C761 1.371 . S
C757 H729 0.930 . S
C757 C756 1.358 . S
C757 C758 1.405 . S
C758 H730 0.932 . S
C758 C757 1.405 . S
C758 C759 1.383 . S
C759 C758 1.383 . S
C759 C760 1.393 . S
C760 H732 0.931 . S
C760 C759 1.393 . S
C760 C761 1.382 . S
C761 H731 0.929 . S
C761 C756 1.371 . S
C761 C760 1.382 . S
C762 N725 1.423 . S
C762 C763 1.362 . S
C762 C767 1.388 . S
C763 H733 0.929 . S
C763 C762 1.362 . S
C763 C764 1.376 . S
C764 H735 0.931 . S
C764 C763 1.376 . S
C764 C765 1.396 . S
C765 C764 1.396 . S
C765 C766 1.348 . S
C765 C783 1.472 . S
C766 H736 0.929 . S
C766 C765 1.348 . S
C766 C767 1.443 . S
C767 H734 0.932 . S
C767 C762 1.388 . S
C767 C766 1.443 . S
C768 N748 1.406 1_655 S
C768 C769 1.424 . S
C768 C773 1.339 1_655 S
C769 H737 0.929 . S
C769 C768 1.424 . S
C769 C770 1.385 . S
C770 H738 0.930 . S
C770 C769 1.385 . S
C770 C771 1.357 . S
C771 C770 1.357 . S
C771 C772 1.406 . S
C772 H739 0.929 . S
C772 C771 1.406 . S
C772 C773 1.391 1_655 S
C773 H740 0.931 . S
C773 C768 1.339 1_455 S
C773 C772 1.391 1_455 S
C774 N748 1.435 . S
C774 C775 1.358 1_455 S
C774 C779 1.371 . S
C775 H741 0.930 . S
C775 C774 1.358 1_655 S
C775 C776 1.405 . S
C776 H742 0.932 . S
C776 C775 1.405 . S
C776 C777 1.383 . S
C777 C776 1.383 . S
C777 C778 1.432 . S
C778 H743 0.924 1_655 S
C778 C777 1.432 . S
C778 C779 1.353 1_655 S
C779 H744 0.929 . S
C779 C774 1.371 . S
C779 C778 1.353 1_455 S
C780 N748 1.423 . S
C780 C781 1.362 . S
C780 C785 1.388 . S
C781 H745 0.929 . S
C781 C780 1.362 . S
C781 C782 1.376 . S
C782 H746 0.931 . S
C782 C781 1.376 . S
C782 C783 1.396 . S
C783 C765 1.472 . S
C783 C782 1.396 . S
C783 C784 1.348 . S
C784 H747 0.929 . S
C784 C783 1.348 . S
C784 C785 1.443 . S
C785 H749 0.932 . S
C785 C780 1.388 . S
C785 C784 1.443 . S
H786 C813 0.929 . S
N787 C812 1.433 . S
N787 C818 1.435 . S
N787 C824 1.423 . S
H788 C814 0.930 . S
H789 C817 0.931 . S
H790 C816 0.929 . S
H791 C819 0.930 . S
H792 C820 0.932 . S
H793 C823 0.929 . S
H794 C822 0.931 . S
H795 C825 0.929 . S
H796 C829 0.932 . S
H797 C826 0.931 . S
H798 C828 0.929 . S
H799 C831 0.929 . S
H800 C832 0.930 . S
H801 C834 0.929 . S
H802 C835 0.931 . S
H803 C837 0.930 . S
H804 C838 0.932 . S
H805 C840 0.931 . S
H806 C841 0.929 . S
H807 C843 0.929 . S
H808 C844 0.931 . S
H809 C846 0.929 . S
N810 C830 1.433 . S
N810 C836 1.435 . S
N810 C842 1.423 . S
H811 C847 0.932 . S
C812 N787 1.433 . S
C812 C813 1.363 . S
C812 C817 1.370 . S
C813 H786 0.929 . S
C813 C812 1.363 . S
C813 C814 1.385 . S
C814 H788 0.930 . S
C814 C813 1.385 . S
C814 C815 1.357 . S
C815 C814 1.357 . S
C815 C816 1.406 . S
C816 H790 0.929 . S
C816 C815 1.406 . S
C816 C817 1.391 . S
C817 H789 0.931 . S
C817 C812 1.370 . S
C817 C816 1.391 . S
C818 N787 1.435 . S
C818 C819 1.358 . S
C818 C823 1.371 . S
C819 H791 0.930 . S
C819 C818 1.358 . S
C819 C820 1.405 . S
C820 H792 0.932 . S
C820 C819 1.405 . S
C820 C821 1.383 . S
C821 C820 1.383 . S
C821 C822 1.393 . S
C822 H794 0.931 . S
C822 C821 1.393 . S
C822 C823 1.382 . S
C823 H793 0.929 . S
C823 C818 1.371 . S
C823 C822 1.382 . S
C824 N787 1.423 . S
C824 C825 1.362 . S
C824 C829 1.388 . S
C825 H795 0.929 . S
C825 C824 1.362 . S
C825 C826 1.376 1_565 S
C826 H797 0.931 . S
C826 C825 1.376 1_545 S
C826 C827 1.396 . S
C827 C826 1.396 . S
C827 C828 1.348 1_545 S
C827 C845 1.472 . S
C828 H798 0.929 . S
C828 C827 1.348 1_565 S
C828 C829 1.443 . S
C829 H796 0.932 . S
C829 C824 1.388 . S
C829 C828 1.443 . S
C830 N810 1.433 . S
C830 C831 1.363 . S
C830 C835 1.370 . S
C831 H799 0.929 . S
C831 C830 1.363 . S
C831 C832 1.385 . S
C832 H800 0.930 . S
C832 C831 1.385 . S
C832 C833 1.357 . S
C833 C832 1.357 . S
C833 C834 1.406 . S
C834 H801 0.929 . S
C834 C833 1.406 . S
C834 C835 1.391 . S
C835 H802 0.931 . S
C835 C830 1.370 . S
C835 C834 1.391 . S
C836 N810 1.435 . S
C836 C837 1.358 . S
C836 C841 1.371 . S
C837 H803 0.930 . S
C837 C836 1.358 . S
C837 C838 1.405 . S
C838 H804 0.932 . S
C838 C837 1.405 . S
C838 C839 1.383 . S
C839 C838 1.383 . S
C839 C840 1.393 . S
C840 H805 0.931 . S
C840 C839 1.393 . S
C840 C841 1.382 . S
C841 H806 0.929 . S
C841 C836 1.371 . S
C841 C840 1.382 . S
C842 N810 1.423 . S
C842 C843 1.362 . S
C842 C847 1.388 . S
C843 H807 0.929 . S
C843 C842 1.362 . S
C843 C844 1.376 . S
C844 H808 0.931 . S
C844 C843 1.376 . S
C844 C845 1.396 . S
C845 C827 1.472 . S
C845 C844 1.396 . S
C845 C846 1.348 . S
C846 H809 0.929 . S
C846 C845 1.348 . S
C846 C847 1.443 . S
C847 H811 0.932 . S
C847 C842 1.388 . S
C847 C846 1.443 . S
H848 C875 0.929 . S
N849 C874 1.433 . S
N849 C880 1.435 . S
N849 C886 1.423 . S
H850 C876 0.930 . S
H851 C879 0.931 . S
H852 C878 0.929 . S
H853 C881 0.930 . S
H854 C882 0.932 . S
H855 C885 0.929 . S
H856 C884 0.931 . S
H857 C887 0.929 . S
H858 C891 0.932 . S
H859 C888 0.931 . S
H860 C890 0.929 . S
H861 C893 0.929 . S
H862 C894 0.930 . S
H863 C896 0.929 . S
H864 C897 0.931 . S
H865 C899 0.930 . S
H866 C900 0.932 . S
H867 C902 0.931 . S
H868 C903 0.929 . S
H869 C905 0.929 . S
H870 C906 0.931 . S
H871 C908 0.933 1_455 S
N872 C892 1.433 . S
N872 C898 1.435 . S
N872 C904 1.423 . S
H873 C909 0.932 . S
C874 N849 1.433 . S
C874 C875 1.363 . S
C874 C879 1.370 . S
C875 H848 0.929 . S
C875 C874 1.363 . S
C875 C876 1.385 . S
C876 H850 0.930 . S
C876 C875 1.385 . S
C876 C877 1.357 . S
C877 C876 1.357 . S
C877 C878 1.406 . S
C878 H852 0.929 . S
C878 C877 1.406 . S
C878 C879 1.391 . S
C879 H851 0.931 . S
C879 C874 1.370 . S
C879 C878 1.391 . S
C880 N849 1.435 . S
C880 C881 1.358 . S
C880 C885 1.371 . S
C881 H853 0.930 . S
C881 C880 1.358 . S
C881 C882 1.405 . S
C882 H854 0.932 . S
C882 C881 1.405 . S
C882 C883 1.383 . S
C883 C882 1.383 . S
C883 C884 1.393 . S
C884 H856 0.931 . S
C884 C883 1.393 . S
C884 C885 1.382 . S
C885 H855 0.929 . S
C885 C880 1.371 . S
C885 C884 1.382 . S
C886 N849 1.423 . S
C886 C887 1.362 . S
C886 C891 1.388 . S
C887 H857 0.929 . S
C887 C886 1.362 . S
C887 C888 1.376 . S
C888 H859 0.931 . S
C888 C887 1.376 . S
C888 C889 1.396 . S
C889 C888 1.396 . S
C889 C890 1.348 . S
C889 C907 1.472 1_455 S
C890 H860 0.929 . S
C890 C889 1.348 . S
C890 C891 1.443 . S
C891 H858 0.932 . S
C891 C886 1.388 . S
C891 C890 1.443 . S
C892 N872 1.433 . S
C892 C893 1.363 . S
C892 C897 1.370 . S
C893 H861 0.929 . S
C893 C892 1.363 . S
C893 C894 1.385 . S
C894 H862 0.930 . S
C894 C893 1.385 . S
C894 C895 1.357 . S
C895 C894 1.357 . S
C895 C896 1.406 . S
C896 H863 0.929 . S
C896 C895 1.406 . S
C896 C897 1.391 . S
C897 H864 0.931 . S
C897 C892 1.370 . S
C897 C896 1.391 . S
C898 N872 1.435 . S
C898 C899 1.358 . S
C898 C903 1.371 . S
C899 H865 0.930 . S
C899 C898 1.358 . S
C899 C900 1.405 . S
C900 H866 0.932 . S
C900 C899 1.405 . S
C900 C901 1.383 . S
C901 C900 1.383 . S
C901 C902 1.393 . S
C902 H867 0.931 . S
C902 C901 1.393 . S
C902 C903 1.382 . S
C903 H868 0.929 . S
C903 C898 1.371 . S
C903 C902 1.382 . S
C904 N872 1.423 . S
C904 C905 1.362 . S
C904 C909 1.388 . S
C905 H869 0.929 . S
C905 C904 1.362 . S
C905 C906 1.376 . S
C906 H870 0.931 . S
C906 C905 1.376 . S
C906 C907 1.396 . S
C907 C889 1.472 1_655 S
C907 C906 1.396 . S
C907 C908 1.348 . S
C908 H871 0.933 1_655 S
C908 C907 1.348 . S
C908 C909 1.443 . S
C909 H873 0.932 . S
C909 C904 1.388 . S
C909 C908 1.443 . S
H910 C937 0.929 . S
N911 C936 1.433 . S
N911 C942 1.435 . S
N911 C948 1.423 . S
H912 C938 0.930 . S
H913 C941 0.931 . S
H914 C940 0.929 . S
H915 C943 0.930 . S
H916 C944 0.932 . S
H917 C947 0.929 . S
H918 C946 0.931 . S
H919 C949 0.929 . S
H920 C953 0.932 . S
H921 C950 0.931 . S
H922 C952 0.929 . S
H923 C955 0.929 . S
H924 C956 0.930 . S
H925 C958 0.929 . S
H926 C959 0.931 . S
H927 C961 0.930 . S
H928 C962 0.932 . S
H929 C964 0.931 . S
H930 C965 0.929 . S
H931 C967 0.929 . S
H932 C968 0.931 . S
H933 C970 0.929 . S
N934 C954 1.433 . S
N934 C960 1.435 . S
N934 C966 1.423 . S
H935 C971 0.932 . S
C936 N911 1.433 . S
C936 C937 1.363 . S
C936 C941 1.370 . S
C937 H910 0.929 . S
C937 C936 1.363 . S
C937 C938 1.385 . S
C938 H912 0.930 . S
C938 C937 1.385 . S
C938 C939 1.357 . S
C939 C938 1.357 . S
C939 C940 1.406 . S
C940 H914 0.929 . S
C940 C939 1.406 . S
C940 C941 1.391 . S
C941 H913 0.931 . S
C941 C936 1.370 . S
C941 C940 1.391 . S
C942 N911 1.435 . S
C942 C943 1.358 . S
C942 C947 1.371 . S
C943 H915 0.930 . S
C943 C942 1.358 . S
C943 C944 1.405 . S
C944 H916 0.932 . S
C944 C943 1.405 . S
C944 C945 1.383 . S
C945 C944 1.383 . S
C945 C946 1.393 . S
C946 H918 0.931 . S
C946 C945 1.393 . S
C946 C947 1.382 . S
C947 H917 0.929 . S
C947 C942 1.371 . S
C947 C946 1.382 . S
C948 N911 1.423 . S
C948 C949 1.362 . S
C948 C953 1.388 . S
C949 H919 0.929 . S
C949 C948 1.362 . S
C949 C950 1.376 . S
C950 H921 0.931 . S
C950 C949 1.376 . S
C950 C951 1.396 . S
C951 C950 1.396 . S
C951 C952 1.348 . S
C951 C969 1.472 1_545 S
C952 H922 0.929 . S
C952 C951 1.348 . S
C952 C953 1.443 . S
C953 H920 0.932 . S
C953 C948 1.388 . S
C953 C952 1.443 . S
C954 N934 1.433 . S
C954 C955 1.363 . S
C954 C959 1.370 . S
C955 H923 0.929 . S
C955 C954 1.363 . S
C955 C956 1.385 . S
C956 H924 0.930 . S
C956 C955 1.385 . S
C956 C957 1.357 . S
C957 C956 1.357 . S
C957 C958 1.406 . S
C958 H925 0.929 . S
C958 C957 1.406 . S
C958 C959 1.391 . S
C959 H926 0.931 . S
C959 C954 1.370 . S
C959 C958 1.391 . S
C960 N934 1.435 . S
C960 C961 1.358 . S
C960 C965 1.371 . S
C961 H927 0.930 . S
C961 C960 1.358 . S
C961 C962 1.405 . S
C962 H928 0.932 . S
C962 C961 1.405 . S
C962 C963 1.383 . S
C963 C962 1.383 . S
C963 C964 1.393 . S
C964 H929 0.931 . S
C964 C963 1.393 . S
C964 C965 1.382 . S
C965 H930 0.929 . S
C965 C960 1.371 . S
C965 C964 1.382 . S
C966 N934 1.423 . S
C966 C967 1.362 . S
C966 C971 1.388 . S
C967 H931 0.929 . S
C967 C966 1.362 . S
C967 C968 1.376 . S
C968 H932 0.931 . S
C968 C967 1.376 . S
C968 C969 1.396 . S
C969 C951 1.472 1_565 S
C969 C968 1.396 . S
C969 C970 1.348 . S
C970 H933 0.929 . S
C970 C969 1.348 . S
C970 C971 1.443 . S
C971 H935 0.932 . S
C971 C966 1.388 . S
C971 C970 1.443 . S
H972 C999 0.929 . S
N973 C998 1.433 1_455 S
N973 C1004 1.435 1_455 S
N973 C1010 1.423 . S
H974 C1000 0.930 . S
H975 C1003 0.931 . S
H976 C1002 0.946 . S
H977 C1005 0.930 . S
H978 C1006 0.932 . S
H979 C1009 0.943 . S
H980 C1008 0.931 . S
H981 C1011 0.929 . S
H982 C1015 0.932 . S
H983 C1012 0.931 . S
H984 C1014 0.929 . S
H985 C1017 0.929 . S
H986 C1018 0.930 . S
H987 C1020 0.929 . S
H988 C1021 0.931 . S
H989 C1023 0.930 . S
H990 C1024 0.932 . S
H991 C1026 0.931 . S
H992 C1027 0.929 . S
H993 C1029 0.929 . S
H994 C1030 0.931 . S
H995 C1032 0.929 . S
N996 C1016 1.433 . S
N996 C1022 1.435 . S
N996 C1028 1.423 . S
H997 C1033 0.932 . S
C998 N973 1.433 1_655 S
C998 C999 1.363 . S
C998 C1003 1.370 1_655 S
C999 H972 0.929 . S
C999 C998 1.363 . S
C999 C1000 1.385 . S
C1000 H974 0.930 . S
C1000 C999 1.385 . S
C1000 C1001 1.357 . S
C1001 C1000 1.357 . S
C1001 C1002 1.406 . S
C1002 H976 0.946 . S
C1002 C1001 1.406 . S
C1002 C1003 1.391 1_655 S
C1003 H975 0.931 . S
C1003 C998 1.370 1_455 S
C1003 C1002 1.391 1_455 S
C1004 N973 1.435 1_655 S
C1004 C1005 1.358 . S
C1004 C1009 1.369 1_655 S
C1005 H977 0.930 . S
C1005 C1004 1.358 . S
C1005 C1006 1.405 . S
C1006 H978 0.932 . S
C1006 C1005 1.405 . S
C1006 C1007 1.383 . S
C1007 C1006 1.383 . S
C1007 C1008 1.393 . S
C1008 H980 0.931 . S
C1008 C1007 1.393 . S
C1008 C1009 1.371 1_655 S
C1009 H979 0.943 . S
C1009 C1004 1.369 1_455 S
C1009 C1008 1.371 1_455 S
C1010 N973 1.423 . S
C1010 C1011 1.362 . S
C1010 C1015 1.388 . S
C1011 H981 0.929 . S
C1011 C1010 1.362 . S
C1011 C1012 1.376 . S
C1012 H983 0.931 . S
C1012 C1011 1.376 . S
C1012 C1013 1.396 . S
C1013 C1012 1.396 . S
C1013 C1014 1.348 . S
C1013 C1031 1.472 . S
C1014 H984 0.929 . S
C1014 C1013 1.348 . S
C1014 C1015 1.443 . S
C1015 H982 0.932 . S
C1015 C1010 1.388 . S
C1015 C1014 1.443 . S
C1016 N996 1.433 . S
C1016 C1017 1.363 . S
C1016 C1021 1.370 . S
C1017 H985 0.929 . S
C1017 C1016 1.363 . S
C1017 C1018 1.385 . S
C1018 H986 0.930 . S
C1018 C1017 1.385 . S
C1018 C1019 1.357 . S
C1019 C1018 1.357 . S
C1019 C1020 1.406 . S
C1020 H987 0.929 . S
C1020 C1019 1.406 . S
C1020 C1021 1.391 . S
C1021 H988 0.931 . S
C1021 C1016 1.370 . S
C1021 C1020 1.391 . S
C1022 N996 1.435 . S
C1022 C1023 1.358 . S
C1022 C1027 1.371 . S
C1023 H989 0.930 . S
C1023 C1022 1.358 . S
C1023 C1024 1.405 . S
C1024 H990 0.932 . S
C1024 C1023 1.405 . S
C1024 C1025 1.383 . S
C1025 C1024 1.383 . S
C1025 C1026 1.393 . S
C1026 H991 0.931 . S
C1026 C1025 1.393 . S
C1026 C1027 1.382 . S
C1027 H992 0.929 . S
C1027 C1022 1.371 . S
C1027 C1026 1.382 . S
C1028 N996 1.423 . S
C1028 C1029 1.362 . S
C1028 C1033 1.388 . S
C1029 H993 0.929 . S
C1029 C1028 1.362 . S
C1029 C1030 1.376 . S
C1030 H994 0.931 . S
C1030 C1029 1.376 . S
C1030 C1031 1.396 . S
C1031 C1013 1.472 . S
C1031 C1030 1.396 . S
C1031 C1032 1.348 . S
C1032 H995 0.929 . S
C1032 C1031 1.348 . S
C1032 C1033 1.443 . S
C1033 H997 0.932 . S
C1033 C1028 1.388 . S
C1033 C1032 1.443 . S
H1034 C1061 0.929 . S
N1035 C1060 1.433 . S
N1035 C1066 1.435 . S
N1035 C1072 1.423 . S
H1036 C1062 0.930 . S
H1037 C1065 0.931 . S
H1038 C1064 0.929 . S
H1039 C1067 0.930 . S
H1040 C1068 0.932 . S
H1041 C1071 0.929 . S
H1042 C1070 0.931 . S
H1043 C1073 0.929 . S
H1044 C1077 0.932 . S
H1045 C1074 0.931 . S
H1046 C1076 0.929 1_545 S
H1047 C1079 0.929 . S
H1048 C1080 0.930 . S
H1049 C1082 0.929 . S
H1050 C1083 0.931 . S
H1051 C1085 0.930 . S
H1052 C1086 0.932 . S
H1053 C1088 0.931 . S
H1054 C1089 0.929 . S
H1055 C1091 0.929 . S
H1056 C1092 0.931 . S
H1057 C1094 0.929 . S
N1058 C1078 1.433 . S
N1058 C1084 1.435 . S
N1058 C1090 1.423 . S
H1059 C1095 0.932 . S
C1060 N1035 1.433 . S
C1060 C1061 1.363 . S
C1060 C1065 1.370 . S
C1061 H1034 0.929 . S
C1061 C1060 1.363 . S
C1061 C1062 1.385 . S
C1062 H1036 0.930 . S
C1062 C1061 1.385 . S
C1062 C1063 1.357 . S
C1063 C1062 1.357 . S
C1063 C1064 1.406 . S
C1064 H1038 0.929 . S
C1064 C1063 1.406 . S
C1064 C1065 1.391 . S
C1065 H1037 0.931 . S
C1065 C1060 1.370 . S
C1065 C1064 1.391 . S
C1066 N1035 1.435 . S
C1066 C1067 1.358 . S
C1066 C1071 1.371 . S
C1067 H1039 0.930 . S
C1067 C1066 1.358 . S
C1067 C1068 1.405 . S
C1068 H1040 0.932 . S
C1068 C1067 1.405 . S
C1068 C1069 1.383 . S
C1069 C1068 1.383 . S
C1069 C1070 1.393 . S
C1070 H1042 0.931 . S
C1070 C1069 1.393 . S
C1070 C1071 1.382 . S
C1071 H1041 0.929 . S
C1071 C1066 1.371 . S
C1071 C1070 1.382 . S
C1072 N1035 1.423 . S
C1072 C1073 1.362 . S
C1072 C1077 1.388 . S
C1073 H1043 0.929 . S
C1073 C1072 1.362 . S
C1073 C1074 1.376 1_565 S
C1074 H1045 0.931 . S
C1074 C1073 1.376 1_545 S
C1074 C1075 1.396 . S
C1075 C1074 1.396 . S
C1075 C1076 1.348 1_545 S
C1075 C1093 1.472 . S
C1076 H1046 0.929 1_565 S
C1076 C1075 1.348 1_565 S
C1076 C1077 1.443 . S
C1077 H1044 0.932 . S
C1077 C1072 1.388 . S
C1077 C1076 1.443 . S
C1078 N1058 1.433 . S
C1078 C1079 1.363 . S
C1078 C1083 1.370 . S
C1079 H1047 0.929 . S
C1079 C1078 1.363 . S
C1079 C1080 1.385 . S
C1080 H1048 0.930 . S
C1080 C1079 1.385 . S
C1080 C1081 1.357 . S
C1081 C1080 1.357 . S
C1081 C1082 1.406 . S
C1082 H1049 0.929 . S
C1082 C1081 1.406 . S
C1082 C1083 1.391 . S
C1083 H1050 0.931 . S
C1083 C1078 1.370 . S
C1083 C1082 1.391 . S
C1084 N1058 1.435 . S
C1084 C1085 1.358 . S
C1084 C1089 1.371 . S
C1085 H1051 0.930 . S
C1085 C1084 1.358 . S
C1085 C1086 1.405 . S
C1086 H1052 0.932 . S
C1086 C1085 1.405 . S
C1086 C1087 1.383 . S
C1087 C1086 1.383 . S
C1087 C1088 1.393 . S
C1088 H1053 0.931 . S
C1088 C1087 1.393 . S
C1088 C1089 1.382 . S
C1089 H1054 0.929 . S
C1089 C1084 1.371 . S
C1089 C1088 1.382 . S
C1090 N1058 1.423 . S
C1090 C1091 1.362 . S
C1090 C1095 1.388 . S
C1091 H1055 0.929 . S
C1091 C1090 1.362 . S
C1091 C1092 1.376 . S
C1092 H1056 0.931 . S
C1092 C1091 1.376 . S
C1092 C1093 1.396 . S
C1093 C1075 1.472 . S
C1093 C1092 1.396 . S
C1093 C1094 1.348 . S
C1094 H1057 0.929 . S
C1094 C1093 1.348 . S
C1094 C1095 1.443 . S
C1095 H1059 0.932 . S
C1095 C1090 1.388 . S
C1095 C1094 1.443 . S
H1096 C1123 0.929 . S
N1097 C1122 1.433 . S
N1097 C1128 1.435 . S
N1097 C1134 1.423 . S
H1098 C1124 0.930 . S
H1099 C1127 0.931 . S
H1100 C1126 0.929 . S
H1101 C1129 0.930 . S
H1102 C1130 0.932 . S
H1103 C1133 0.929 . S
H1104 C1132 0.931 . S
H1105 C1135 0.929 . S
H1106 C1139 0.932 . S
H1107 C1136 0.931 . S
H1108 C1138 0.929 . S
H1109 C1141 0.929 . S
H1110 C1142 0.930 . S
H1111 C1144 0.929 . S
H1112 C1145 0.931 . S
H1113 C1147 0.930 . S
H1114 C1148 0.932 . S
H1115 C1150 0.931 . S
H1116 C1151 0.929 . S
H1117 C1153 0.929 . S
H1118 C1154 0.931 . S
H1119 C1156 0.929 . S
N1120 C1140 1.433 . S
N1120 C1146 1.435 . S
N1120 C1152 1.423 . S
H1121 C1157 0.932 . S
C1122 N1097 1.433 . S
C1122 C1123 1.363 . S
C1122 C1127 1.370 . S
C1123 H1096 0.929 . S
C1123 C1122 1.363 . S
C1123 C1124 1.385 . S
C1124 H1098 0.930 . S
C1124 C1123 1.385 . S
C1124 C1125 1.357 . S
C1125 C1124 1.357 . S
C1125 C1126 1.406 . S
C1126 H1100 0.929 . S
C1126 C1125 1.406 . S
C1126 C1127 1.391 . S
C1127 H1099 0.931 . S
C1127 C1122 1.370 . S
C1127 C1126 1.391 . S
C1128 N1097 1.435 . S
C1128 C1129 1.358 . S
C1128 C1133 1.371 . S
C1129 H1101 0.930 . S
C1129 C1128 1.358 . S
C1129 C1130 1.405 . S
C1130 H1102 0.932 . S
C1130 C1129 1.405 . S
C1130 C1131 1.383 . S
C1131 C1130 1.383 . S
C1131 C1132 1.393 . S
C1132 H1104 0.931 . S
C1132 C1131 1.393 . S
C1132 C1133 1.382 . S
C1133 H1103 0.929 . S
C1133 C1128 1.371 . S
C1133 C1132 1.382 . S
C1134 N1097 1.423 . S
C1134 C1135 1.362 . S
C1134 C1139 1.388 . S
C1135 H1105 0.929 . S
C1135 C1134 1.362 . S
C1135 C1136 1.376 . S
C1136 H1107 0.931 . S
C1136 C1135 1.376 . S
C1136 C1137 1.396 . S
C1137 C1136 1.396 . S
C1137 C1138 1.348 . S
C1137 C1155 1.472 . S
C1138 H1108 0.929 . S
C1138 C1137 1.348 . S
C1138 C1139 1.443 . S
C1139 H1106 0.932 . S
C1139 C1134 1.388 . S
C1139 C1138 1.443 . S
C1140 N1120 1.433 . S
C1140 C1141 1.363 . S
C1140 C1145 1.370 . S
C1141 H1109 0.929 . S
C1141 C1140 1.363 . S
C1141 C1142 1.385 . S
C1142 H1110 0.930 . S
C1142 C1141 1.385 . S
C1142 C1143 1.357 . S
C1143 C1142 1.357 . S
C1143 C1144 1.406 . S
C1144 H1111 0.929 . S
C1144 C1143 1.406 . S
C1144 C1145 1.391 . S
C1145 H1112 0.931 . S
C1145 C1140 1.370 . S
C1145 C1144 1.391 . S
C1146 N1120 1.435 . S
C1146 C1147 1.358 . S
C1146 C1151 1.371 . S
C1147 H1113 0.930 . S
C1147 C1146 1.358 . S
C1147 C1148 1.405 . S
C1148 H1114 0.932 . S
C1148 C1147 1.405 . S
C1148 C1149 1.383 . S
C1149 C1148 1.383 . S
C1149 C1150 1.393 . S
C1150 H1115 0.931 . S
C1150 C1149 1.393 . S
C1150 C1151 1.382 . S
C1151 H1116 0.929 . S
C1151 C1146 1.371 . S
C1151 C1150 1.382 . S
C1152 N1120 1.423 . S
C1152 C1153 1.362 . S
C1152 C1157 1.388 . S
C1153 H1117 0.929 . S
C1153 C1152 1.362 . S
C1153 C1154 1.376 . S
C1154 H1118 0.931 . S
C1154 C1153 1.376 . S
C1154 C1155 1.396 . S
C1155 C1137 1.472 . S
C1155 C1154 1.396 . S
C1155 C1156 1.348 . S
C1156 H1119 0.929 . S
C1156 C1155 1.348 . S
C1156 C1157 1.443 . S
C1157 H1121 0.932 . S
C1157 C1152 1.388 . S
C1157 C1156 1.443 . S
H1158 C1185 0.929 . S
N1159 C1184 1.433 . S
N1159 C1190 1.435 . S
N1159 C1196 1.423 . S
H1160 C1186 0.930 . S
H1161 C1189 0.931 . S
H1162 C1188 0.929 . S
H1163 C1191 0.930 . S
H1164 C1192 0.932 . S
H1165 C1195 0.929 . S
H1166 C1194 0.931 . S
H1167 C1197 0.929 . S
H1168 C1201 0.932 . S
H1169 C1198 0.931 . S
H1170 C1200 0.929 . S
H1171 C1203 0.929 . S
H1172 C1204 0.930 . S
H1173 C1206 0.929 . S
H1174 C1207 0.931 . S
H1175 C1209 0.930 . S
H1176 C1210 0.932 . S
H1177 C1212 0.931 . S
H1178 C1213 0.929 . S
H1179 C1215 0.929 . S
H1180 C1216 0.931 . S
H1181 C1218 0.929 . S
N1182 C1202 1.433 . S
N1182 C1208 1.435 . S
N1182 C1214 1.423 . S
H1183 C1219 0.932 . S
C1184 N1159 1.433 . S
C1184 C1185 1.363 . S
C1184 C1189 1.370 . S
C1185 H1158 0.929 . S
C1185 C1184 1.363 . S
C1185 C1186 1.385 . S
C1186 H1160 0.930 . S
C1186 C1185 1.385 . S
C1186 C1187 1.357 . S
C1187 C1186 1.357 . S
C1187 C1188 1.406 . S
C1188 H1162 0.929 . S
C1188 C1187 1.406 . S
C1188 C1189 1.391 . S
C1189 H1161 0.931 . S
C1189 C1184 1.370 . S
C1189 C1188 1.391 . S
C1190 N1159 1.435 . S
C1190 C1191 1.358 . S
C1190 C1195 1.371 . S
C1191 H1163 0.930 . S
C1191 C1190 1.358 . S
C1191 C1192 1.405 . S
C1192 H1164 0.932 . S
C1192 C1191 1.405 . S
C1192 C1193 1.383 . S
C1193 C1192 1.383 . S
C1193 C1194 1.393 . S
C1194 H1166 0.931 . S
C1194 C1193 1.393 . S
C1194 C1195 1.382 . S
C1195 H1165 0.929 . S
C1195 C1190 1.371 . S
C1195 C1194 1.382 . S
C1196 N1159 1.423 . S
C1196 C1197 1.362 . S
C1196 C1201 1.388 . S
C1197 H1167 0.929 . S
C1197 C1196 1.362 . S
C1197 C1198 1.376 . S
C1198 H1169 0.931 . S
C1198 C1197 1.376 . S
C1198 C1199 1.396 . S
C1199 C1198 1.396 . S
C1199 C1200 1.348 . S
C1199 C1217 1.472 . S
C1200 H1170 0.929 . S
C1200 C1199 1.348 . S
C1200 C1201 1.443 . S
C1201 H1168 0.932 . S
C1201 C1196 1.388 . S
C1201 C1200 1.443 . S
C1202 N1182 1.433 . S
C1202 C1203 1.363 . S
C1202 C1207 1.370 . S
C1203 H1171 0.929 . S
C1203 C1202 1.363 . S
C1203 C1204 1.385 . S
C1204 H1172 0.930 . S
C1204 C1203 1.385 . S
C1204 C1205 1.357 . S
C1205 C1204 1.357 . S
C1205 C1206 1.406 . S
C1206 H1173 0.929 . S
C1206 C1205 1.406 . S
C1206 C1207 1.391 . S
C1207 H1174 0.931 . S
C1207 C1202 1.370 . S
C1207 C1206 1.391 . S
C1208 N1182 1.435 . S
C1208 C1209 1.358 . S
C1208 C1213 1.371 . S
C1209 H1175 0.930 . S
C1209 C1208 1.358 . S
C1209 C1210 1.405 . S
C1210 H1176 0.932 . S
C1210 C1209 1.405 . S
C1210 C1211 1.383 . S
C1211 C1210 1.383 . S
C1211 C1212 1.393 . S
C1212 H1177 0.931 . S
C1212 C1211 1.393 . S
C1212 C1213 1.382 . S
C1213 H1178 0.929 . S
C1213 C1208 1.371 . S
C1213 C1212 1.382 . S
C1214 N1182 1.423 . S
C1214 C1215 1.362 . S
C1214 C1219 1.388 . S
C1215 H1179 0.929 . S
C1215 C1214 1.362 . S
C1215 C1216 1.376 . S
C1216 H1180 0.931 . S
C1216 C1215 1.376 . S
C1216 C1217 1.396 . S
C1217 C1199 1.472 . S
C1217 C1216 1.396 . S
C1217 C1218 1.348 . S
C1218 H1181 0.929 . S
C1218 C1217 1.348 . S
C1218 C1219 1.443 . S
C1219 H1183 0.932 . S
C1219 C1214 1.388 . S
C1219 C1218 1.443 . S
H1220 C1247 0.929 . S
N1221 C1246 1.433 . S
N1221 C1252 1.435 . S
N1221 C1258 1.423 . S
H1222 C1248 0.930 . S
H1223 C1251 0.931 . S
H1224 C1250 0.929 . S
H1225 C1253 0.930 . S
H1226 C1254 0.932 . S
H1227 C1257 0.929 . S
H1228 C1256 0.931 . S
H1229 C1259 0.929 . S
H1230 C1263 0.932 . S
H1231 C1260 0.931 . S
H1232 C1262 0.929 . S
H1233 C1265 0.929 . S
H1234 C1266 0.930 . S
H1235 C1268 0.929 . S
H1236 C1269 0.931 . S
H1237 C1271 0.930 . S
H1238 C1272 0.932 . S
H1239 C1274 0.931 . S
H1240 C1275 0.929 . S
H1241 C1277 0.929 . S
H1242 C1278 0.931 . S
H1243 C1280 0.929 . S
N1244 C1264 1.433 . S
N1244 C1270 1.435 . S
N1244 C1276 1.423 . S
H1245 C1281 0.932 . S
C1246 N1221 1.433 . S
C1246 C1247 1.363 . S
C1246 C1251 1.370 . S
C1247 H1220 0.929 . S
C1247 C1246 1.363 . S
C1247 C1248 1.385 . S
C1248 H1222 0.930 . S
C1248 C1247 1.385 . S
C1248 C1249 1.357 . S
C1249 C1248 1.357 . S
C1249 C1250 1.406 . S
C1250 H1224 0.929 . S
C1250 C1249 1.406 . S
C1250 C1251 1.391 . S
C1251 H1223 0.931 . S
C1251 C1246 1.370 . S
C1251 C1250 1.391 . S
C1252 N1221 1.435 . S
C1252 C1253 1.358 . S
C1252 C1257 1.371 . S
C1253 H1225 0.930 . S
C1253 C1252 1.358 . S
C1253 C1254 1.405 . S
C1254 H1226 0.932 . S
C1254 C1253 1.405 . S
C1254 C1255 1.383 . S
C1255 C1254 1.383 . S
C1255 C1256 1.393 . S
C1256 H1228 0.931 . S
C1256 C1255 1.393 . S
C1256 C1257 1.382 . S
C1257 H1227 0.929 . S
C1257 C1252 1.371 . S
C1257 C1256 1.382 . S
C1258 N1221 1.423 . S
C1258 C1259 1.362 . S
C1258 C1263 1.388 . S
C1259 H1229 0.929 . S
C1259 C1258 1.362 . S
C1259 C1260 1.376 . S
C1260 H1231 0.931 . S
C1260 C1259 1.376 . S
C1260 C1261 1.396 . S
C1261 C1260 1.396 . S
C1261 C1262 1.348 . S
C1261 C1279 1.472 . S
C1262 H1232 0.929 . S
C1262 C1261 1.348 . S
C1262 C1263 1.443 . S
C1263 H1230 0.932 . S
C1263 C1258 1.388 . S
C1263 C1262 1.443 . S
C1264 N1244 1.433 . S
C1264 C1265 1.363 . S
C1264 C1269 1.370 . S
C1265 H1233 0.929 . S
C1265 C1264 1.363 . S
C1265 C1266 1.385 . S
C1266 H1234 0.930 . S
C1266 C1265 1.385 . S
C1266 C1267 1.357 . S
C1267 C1266 1.357 . S
C1267 C1268 1.406 . S
C1268 H1235 0.929 . S
C1268 C1267 1.406 . S
C1268 C1269 1.391 . S
C1269 H1236 0.931 . S
C1269 C1264 1.370 . S
C1269 C1268 1.391 . S
C1270 N1244 1.435 . S
C1270 C1271 1.358 . S
C1270 C1275 1.371 . S
C1271 H1237 0.930 . S
C1271 C1270 1.358 . S
C1271 C1272 1.405 . S
C1272 H1238 0.932 . S
C1272 C1271 1.405 . S
C1272 C1273 1.383 . S
C1273 C1272 1.383 . S
C1273 C1274 1.393 . S
C1274 H1239 0.931 . S
C1274 C1273 1.393 . S
C1274 C1275 1.382 . S
C1275 H1240 0.929 . S
C1275 C1270 1.371 . S
C1275 C1274 1.382 . S
C1276 N1244 1.423 . S
C1276 C1277 1.362 . S
C1276 C1281 1.388 . S
C1277 H1241 0.929 . S
C1277 C1276 1.362 . S
C1277 C1278 1.376 . S
C1278 H1242 0.931 . S
C1278 C1277 1.376 . S
C1278 C1279 1.396 . S
C1279 C1261 1.472 . S
C1279 C1278 1.396 . S
C1279 C1280 1.348 . S
C1280 H1243 0.929 . S
C1280 C1279 1.348 . S
C1280 C1281 1.443 . S
C1281 H1245 0.932 . S
C1281 C1276 1.388 . S
C1281 C1280 1.443 . S
H1282 C1309 0.929 . S
N1283 C1308 1.433 . S
N1283 C1314 1.435 . S
N1283 C1320 1.423 . S
H1284 C1310 0.930 . S
H1285 C1313 0.931 . S
H1286 C1312 0.929 . S
H1287 C1315 0.930 . S
H1288 C1316 0.932 . S
H1289 C1319 0.929 . S
H1290 C1318 0.931 . S
H1291 C1321 0.929 . S
H1292 C1325 0.932 . S
H1293 C1322 0.931 . S
H1294 C1324 0.929 . S
H1295 C1327 0.929 . S
H1296 C1328 0.930 . S
H1297 C1330 0.929 . S
H1298 C1331 0.931 . S
H1299 C1333 0.930 . S
H1300 C1334 0.932 . S
H1301 C1336 0.931 . S
H1302 C1337 0.929 . S
H1303 C1339 0.929 . S
H1304 C1340 0.931 . S
H1305 C1342 0.929 . S
N1306 C1326 1.433 . S
N1306 C1332 1.435 . S
N1306 C1338 1.423 . S
H1307 C1343 0.932 . S
C1308 N1283 1.433 . S
C1308 C1309 1.363 . S
C1308 C1313 1.370 . S
C1309 H1282 0.929 . S
C1309 C1308 1.363 . S
C1309 C1310 1.385 . S
C1310 H1284 0.930 . S
C1310 C1309 1.385 . S
C1310 C1311 1.357 . S
C1311 C1310 1.357 . S
C1311 C1312 1.406 . S
C1312 H1286 0.929 . S
C1312 C1311 1.406 . S
C1312 C1313 1.391 . S
C1313 H1285 0.931 . S
C1313 C1308 1.370 . S
C1313 C1312 1.391 . S
C1314 N1283 1.435 . S
C1314 C1315 1.358 . S
C1314 C1319 1.371 . S
C1315 H1287 0.930 . S
C1315 C1314 1.358 . S
C1315 C1316 1.405 . S
C1316 H1288 0.932 . S
C1316 C1315 1.405 . S
C1316 C1317 1.383 . S
C1317 C1316 1.383 . S
C1317 C1318 1.393 . S
C1318 H1290 0.931 . S
C1318 C1317 1.393 . S
C1318 C1319 1.382 . S
C1319 H1289 0.929 . S
C1319 C1314 1.371 . S
C1319 C1318 1.382 . S
C1320 N1283 1.423 . S
C1320 C1321 1.362 . S
C1320 C1325 1.388 . S
C1321 H1291 0.929 . S
C1321 C1320 1.362 . S
C1321 C1322 1.376 . S
C1322 H1293 0.931 . S
C1322 C1321 1.376 . S
C1322 C1323 1.396 . S
C1323 C1322 1.396 . S
C1323 C1324 1.348 . S
C1323 C1341 1.472 . S
C1324 H1294 0.929 . S
C1324 C1323 1.348 . S
C1324 C1325 1.443 . S
C1325 H1292 0.932 . S
C1325 C1320 1.388 . S
C1325 C1324 1.443 . S
C1326 N1306 1.433 . S
C1326 C1327 1.363 . S
C1326 C1331 1.370 . S
C1327 H1295 0.929 . S
C1327 C1326 1.363 . S
C1327 C1328 1.385 . S
C1328 H1296 0.930 . S
C1328 C1327 1.385 . S
C1328 C1329 1.357 . S
C1329 C1328 1.357 . S
C1329 C1330 1.406 . S
C1330 H1297 0.929 . S
C1330 C1329 1.406 . S
C1330 C1331 1.391 . S
C1331 H1298 0.931 . S
C1331 C1326 1.370 . S
C1331 C1330 1.391 . S
C1332 N1306 1.435 . S
C1332 C1333 1.358 . S
C1332 C1337 1.371 . S
C1333 H1299 0.930 . S
C1333 C1332 1.358 . S
C1333 C1334 1.405 . S
C1334 H1300 0.932 . S
C1334 C1333 1.405 . S
C1334 C1335 1.383 . S
C1335 C1334 1.383 . S
C1335 C1336 1.393 . S
C1336 H1301 0.931 . S
C1336 C1335 1.393 . S
C1336 C1337 1.382 . S
C1337 H1302 0.929 . S
C1337 C1332 1.371 . S
C1337 C1336 1.382 . S
C1338 N1306 1.423 . S
C1338 C1339 1.362 . S
C1338 C1343 1.388 . S
C1339 H1303 0.929 . S
C1339 C1338 1.362 . S
C1339 C1340 1.376 . S
C1340 H1304 0.931 . S
C1340 C1339 1.376 . S
C1340 C1341 1.396 . S
C1341 C1323 1.472 . S
C1341 C1340 1.396 . S
C1341 C1342 1.348 . S
C1342 H1305 0.929 . S
C1342 C1341 1.348 . S
C1342 C1343 1.443 . S
C1343 H1307 0.932 . S
C1343 C1338 1.388 . S
C1343 C1342 1.443 . S
H1344 C1371 0.929 . S
N1345 C1370 1.433 . S
N1345 C1376 1.435 . S
N1345 C1382 1.423 . S
H1346 C1372 0.930 . S
H1347 C1375 0.931 . S
H1348 C1374 0.929 . S
H1349 C1377 0.930 . S
H1350 C1378 0.932 . S
H1351 C1381 0.929 . S
H1352 C1380 0.931 . S
H1353 C1383 0.929 . S
H1354 C1387 0.932 . S
H1355 C1384 0.931 . S
H1356 C1386 0.929 . S
H1357 C1389 0.929 . S
H1358 C1390 0.930 . S
H1359 C1392 0.929 . S
H1360 C1393 0.931 . S
H1361 C1395 0.930 . S
H1362 C1396 0.932 . S
H1363 C1398 0.931 . S
H1364 C1399 0.929 . S
H1365 C1401 0.929 . S
H1366 C1402 0.931 . S
H1367 C1404 0.929 . S
N1368 C1388 1.433 . S
N1368 C1394 1.435 . S
N1368 C1400 1.423 . S
H1369 C1405 0.932 . S
C1370 N1345 1.433 . S
C1370 C1371 1.363 . S
C1370 C1375 1.370 . S
C1371 H1344 0.929 . S
C1371 C1370 1.363 . S
C1371 C1372 1.385 . S
C1372 H1346 0.930 . S
C1372 C1371 1.385 . S
C1372 C1373 1.357 . S
C1373 C1372 1.357 . S
C1373 C1374 1.406 . S
C1374 H1348 0.929 . S
C1374 C1373 1.406 . S
C1374 C1375 1.391 . S
C1375 H1347 0.931 . S
C1375 C1370 1.370 . S
C1375 C1374 1.391 . S
C1376 N1345 1.435 . S
C1376 C1377 1.358 . S
C1376 C1381 1.371 . S
C1377 H1349 0.930 . S
C1377 C1376 1.358 . S
C1377 C1378 1.405 . S
C1378 H1350 0.932 . S
C1378 C1377 1.405 . S
C1378 C1379 1.383 . S
C1379 C1378 1.383 . S
C1379 C1380 1.393 . S
C1380 H1352 0.931 . S
C1380 C1379 1.393 . S
C1380 C1381 1.382 . S
C1381 H1351 0.929 . S
C1381 C1376 1.371 . S
C1381 C1380 1.382 . S
C1382 N1345 1.423 . S
C1382 C1383 1.362 . S
C1382 C1387 1.388 . S
C1383 H1353 0.929 . S
C1383 C1382 1.362 . S
C1383 C1384 1.376 . S
C1384 H1355 0.931 . S
C1384 C1383 1.376 . S
C1384 C1385 1.396 . S
C1385 C1384 1.396 . S
C1385 C1386 1.348 . S
C1385 C1403 1.472 . S
C1386 H1356 0.929 . S
C1386 C1385 1.348 . S
C1386 C1387 1.443 . S
C1387 H1354 0.932 . S
C1387 C1382 1.388 . S
C1387 C1386 1.443 . S
C1388 N1368 1.433 . S
C1388 C1389 1.363 . S
C1388 C1393 1.370 . S
C1389 H1357 0.929 . S
C1389 C1388 1.363 . S
C1389 C1390 1.385 . S
C1390 H1358 0.930 . S
C1390 C1389 1.385 . S
C1390 C1391 1.357 . S
C1391 C1390 1.357 . S
C1391 C1392 1.406 . S
C1392 H1359 0.929 . S
C1392 C1391 1.406 . S
C1392 C1393 1.391 . S
C1393 H1360 0.931 . S
C1393 C1388 1.370 . S
C1393 C1392 1.391 . S
C1394 N1368 1.435 . S
C1394 C1395 1.358 . S
C1394 C1399 1.371 . S
C1395 H1361 0.930 . S
C1395 C1394 1.358 . S
C1395 C1396 1.405 . S
C1396 H1362 0.932 . S
C1396 C1395 1.405 . S
C1396 C1397 1.383 . S
C1397 C1396 1.383 . S
C1397 C1398 1.393 . S
C1398 H1363 0.931 . S
C1398 C1397 1.393 . S
C1398 C1399 1.382 . S
C1399 H1364 0.929 . S
C1399 C1394 1.371 . S
C1399 C1398 1.382 . S
C1400 N1368 1.423 . S
C1400 C1401 1.362 . S
C1400 C1405 1.388 . S
C1401 H1365 0.929 . S
C1401 C1400 1.362 . S
C1401 C1402 1.376 . S
C1402 H1366 0.931 . S
C1402 C1401 1.376 . S
C1402 C1403 1.396 . S
C1403 C1385 1.472 . S
C1403 C1402 1.396 . S
C1403 C1404 1.348 . S
C1404 H1367 0.929 . S
C1404 C1403 1.348 . S
C1404 C1405 1.443 . S
C1405 H1369 0.932 . S
C1405 C1400 1.388 . S
C1405 C1404 1.443 . S
H1406 C1433 0.929 . S
N1407 C1432 1.433 . S
N1407 C1438 1.435 . S
N1407 C1444 1.423 . S
H1408 C1434 0.930 . S
H1409 C1437 0.931 . S
H1410 C1436 0.929 . S
H1411 C1439 0.930 . S
H1412 C1440 0.932 . S
H1413 C1443 0.929 . S
H1414 C1442 0.931 . S
H1415 C1445 0.929 . S
H1416 C1449 0.932 . S
H1417 C1446 0.931 . S
H1418 C1448 0.929 . S
H1419 C1451 0.929 . S
H1420 C1452 0.930 . S
H1421 C1454 0.929 . S
H1422 C1455 0.931 . S
H1423 C1457 0.930 . S
H1424 C1458 0.932 . S
H1425 C1460 0.931 . S
H1426 C1461 0.929 . S
H1427 C1463 0.929 . S
H1428 C1464 0.931 . S
H1429 C1466 0.929 . S
N1430 C1450 1.433 . S
N1430 C1456 1.435 . S
N1430 C1462 1.423 . S
H1431 C1467 0.932 . S
C1432 N1407 1.433 . S
C1432 C1433 1.363 . S
C1432 C1437 1.370 . S
C1433 H1406 0.929 . S
C1433 C1432 1.363 . S
C1433 C1434 1.385 . S
C1434 H1408 0.930 . S
C1434 C1433 1.385 . S
C1434 C1435 1.357 . S
C1435 C1434 1.357 . S
C1435 C1436 1.406 . S
C1436 H1410 0.929 . S
C1436 C1435 1.406 . S
C1436 C1437 1.391 . S
C1437 H1409 0.931 . S
C1437 C1432 1.370 . S
C1437 C1436 1.391 . S
C1438 N1407 1.435 . S
C1438 C1439 1.358 . S
C1438 C1443 1.371 . S
C1439 H1411 0.930 . S
C1439 C1438 1.358 . S
C1439 C1440 1.405 . S
C1440 H1412 0.932 . S
C1440 C1439 1.405 . S
C1440 C1441 1.383 . S
C1441 C1440 1.383 . S
C1441 C1442 1.393 . S
C1442 H1414 0.931 . S
C1442 C1441 1.393 . S
C1442 C1443 1.382 . S
C1443 H1413 0.929 . S
C1443 C1438 1.371 . S
C1443 C1442 1.382 . S
C1444 N1407 1.423 . S
C1444 C1445 1.362 . S
C1444 C1449 1.388 . S
C1445 H1415 0.929 . S
C1445 C1444 1.362 . S
C1445 C1446 1.376 . S
C1446 H1417 0.931 . S
C1446 C1445 1.376 . S
C1446 C1447 1.396 . S
C1447 C1446 1.396 . S
C1447 C1448 1.348 . S
C1447 C1465 1.472 . S
C1448 H1418 0.929 . S
C1448 C1447 1.348 . S
C1448 C1449 1.443 . S
C1449 H1416 0.932 . S
C1449 C1444 1.388 . S
C1449 C1448 1.443 . S
C1450 N1430 1.433 . S
C1450 C1451 1.363 . S
C1450 C1455 1.370 . S
C1451 H1419 0.929 . S
C1451 C1450 1.363 . S
C1451 C1452 1.385 . S
C1452 H1420 0.930 . S
C1452 C1451 1.385 . S
C1452 C1453 1.357 . S
C1453 C1452 1.357 . S
C1453 C1454 1.406 . S
C1454 H1421 0.929 . S
C1454 C1453 1.406 . S
C1454 C1455 1.391 . S
C1455 H1422 0.931 . S
C1455 C1450 1.370 . S
C1455 C1454 1.391 . S
C1456 N1430 1.435 . S
C1456 C1457 1.358 . S
C1456 C1461 1.371 . S
C1457 H1423 0.930 . S
C1457 C1456 1.358 . S
C1457 C1458 1.405 . S
C1458 H1424 0.932 . S
C1458 C1457 1.405 . S
C1458 C1459 1.383 . S
C1459 C1458 1.383 . S
C1459 C1460 1.393 . S
C1460 H1425 0.931 . S
C1460 C1459 1.393 . S
C1460 C1461 1.382 . S
C1461 H1426 0.929 . S
C1461 C1456 1.371 . S
C1461 C1460 1.382 . S
C1462 N1430 1.423 . S
C1462 C1463 1.362 . S
C1462 C1467 1.388 . S
C1463 H1427 0.929 . S
C1463 C1462 1.362 . S
C1463 C1464 1.376 . S
C1464 H1428 0.931 . S
C1464 C1463 1.376 . S
C1464 C1465 1.396 . S
C1465 C1447 1.472 . S
C1465 C1464 1.396 . S
C1465 C1466 1.348 . S
C1466 H1429 0.929 . S
C1466 C1465 1.348 . S
C1466 C1467 1.443 . S
C1467 H1431 0.932 . S
C1467 C1462 1.388 . S
C1467 C1466 1.443 . S
H1468 C1495 0.929 . S
N1469 C1494 1.433 . S
N1469 C1500 1.435 . S
N1469 C1506 1.423 . S
H1470 C1496 0.930 . S
H1471 C1499 0.931 . S
H1472 C1498 0.929 . S
H1473 C1501 0.930 . S
H1474 C1502 0.932 . S
H1475 C1505 0.929 . S
H1476 C1504 0.931 . S
H1477 C1507 0.929 . S
H1478 C1511 0.932 . S
H1479 C1508 0.931 . S
H1480 C1510 0.929 . S
H1481 C1513 0.929 . S
H1482 C1514 0.930 . S
H1483 C1516 0.929 . S
H1484 C1517 0.931 . S
H1485 C1519 0.930 . S
H1486 C1520 0.932 . S
H1487 C1522 0.931 . S
H1488 C1523 0.929 . S
H1489 C1525 0.929 . S
H1490 C1526 0.931 . S
H1491 C1528 0.929 . S
N1492 C1512 1.433 . S
N1492 C1518 1.435 . S
N1492 C1524 1.423 . S
H1493 C1529 0.932 . S
C1494 N1469 1.433 . S
C1494 C1495 1.363 . S
C1494 C1499 1.370 . S
C1495 H1468 0.929 . S
C1495 C1494 1.363 . S
C1495 C1496 1.385 . S
C1496 H1470 0.930 . S
C1496 C1495 1.385 . S
C1496 C1497 1.357 . S
C1497 C1496 1.357 . S
C1497 C1498 1.406 . S
C1498 H1472 0.929 . S
C1498 C1497 1.406 . S
C1498 C1499 1.391 . S
C1499 H1471 0.931 . S
C1499 C1494 1.370 . S
C1499 C1498 1.391 . S
C1500 N1469 1.435 . S
C1500 C1501 1.358 . S
C1500 C1505 1.371 . S
C1501 H1473 0.930 . S
C1501 C1500 1.358 . S
C1501 C1502 1.405 . S
C1502 H1474 0.932 . S
C1502 C1501 1.405 . S
C1502 C1503 1.383 . S
C1503 C1502 1.383 . S
C1503 C1504 1.393 . S
C1504 H1476 0.931 . S
C1504 C1503 1.393 . S
C1504 C1505 1.382 . S
C1505 H1475 0.929 . S
C1505 C1500 1.371 . S
C1505 C1504 1.382 . S
C1506 N1469 1.423 . S
C1506 C1507 1.362 . S
C1506 C1511 1.388 . S
C1507 H1477 0.929 . S
C1507 C1506 1.362 . S
C1507 C1508 1.376 . S
C1508 H1479 0.931 . S
C1508 C1507 1.376 . S
C1508 C1509 1.396 . S
C1509 C1508 1.396 . S
C1509 C1510 1.348 . S
C1509 C1527 1.472 . S
C1510 H1480 0.929 . S
C1510 C1509 1.348 . S
C1510 C1511 1.443 . S
C1511 H1478 0.932 . S
C1511 C1506 1.388 . S
C1511 C1510 1.443 . S
C1512 N1492 1.433 . S
C1512 C1513 1.363 . S
C1512 C1517 1.370 . S
C1513 H1481 0.929 . S
C1513 C1512 1.363 . S
C1513 C1514 1.385 . S
C1514 H1482 0.930 . S
C1514 C1513 1.385 . S
C1514 C1515 1.357 . S
C1515 C1514 1.357 . S
C1515 C1516 1.406 . S
C1516 H1483 0.929 . S
C1516 C1515 1.406 . S
C1516 C1517 1.391 . S
C1517 H1484 0.931 . S
C1517 C1512 1.370 . S
C1517 C1516 1.391 . S
C1518 N1492 1.435 . S
C1518 C1519 1.358 . S
C1518 C1523 1.371 . S
C1519 H1485 0.930 . S
C1519 C1518 1.358 . S
C1519 C1520 1.405 . S
C1520 H1486 0.932 . S
C1520 C1519 1.405 . S
C1520 C1521 1.383 . S
C1521 C1520 1.383 . S
C1521 C1522 1.393 . S
C1522 H1487 0.931 . S
C1522 C1521 1.393 . S
C1522 C1523 1.382 . S
C1523 H1488 0.929 . S
C1523 C1518 1.371 . S
C1523 C1522 1.382 . S
C1524 N1492 1.423 . S
C1524 C1525 1.362 . S
C1524 C1529 1.388 . S
C1525 H1489 0.929 . S
C1525 C1524 1.362 . S
C1525 C1526 1.376 . S
C1526 H1490 0.931 . S
C1526 C1525 1.376 . S
C1526 C1527 1.396 . S
C1527 C1509 1.472 . S
C1527 C1526 1.396 . S
C1527 C1528 1.348 . S
C1528 H1491 0.929 . S
C1528 C1527 1.348 . S
C1528 C1529 1.443 . S
C1529 H1493 0.932 . S
C1529 C1524 1.388 . S
C1529 C1528 1.443 . S
H1530 C1557 0.929 . S
N1531 C1556 1.433 . S
N1531 C1562 1.435 . S
N1531 C1568 1.423 . S
H1532 C1558 0.930 . S
H1533 C1561 0.931 . S
H1534 C1560 0.929 . S
H1535 C1563 0.930 . S
H1536 C1564 0.932 . S
H1537 C1567 0.929 . S
H1538 C1566 0.931 . S
H1539 C1569 0.929 . S
H1540 C1573 0.932 . S
H1541 C1570 0.931 . S
H1542 C1572 0.929 . S
H1543 C1575 0.929 . S
H1544 C1576 0.930 . S
H1545 C1578 0.929 . S
H1546 C1579 0.931 . S
H1547 C1581 0.930 . S
H1548 C1582 0.932 . S
H1549 C1584 0.931 . S
H1550 C1585 0.929 . S
H1551 C1587 0.929 . S
H1552 C1588 0.931 . S
H1553 C1590 0.929 . S
N1554 C1574 1.433 . S
N1554 C1580 1.435 . S
N1554 C1586 1.423 . S
H1555 C1591 0.932 . S
C1556 N1531 1.433 . S
C1556 C1557 1.363 . S
C1556 C1561 1.370 . S
C1557 H1530 0.929 . S
C1557 C1556 1.363 . S
C1557 C1558 1.385 . S
C1558 H1532 0.930 . S
C1558 C1557 1.385 . S
C1558 C1559 1.357 . S
C1559 C1558 1.357 . S
C1559 C1560 1.406 . S
C1560 H1534 0.929 . S
C1560 C1559 1.406 . S
C1560 C1561 1.391 . S
C1561 H1533 0.931 . S
C1561 C1556 1.370 . S
C1561 C1560 1.391 . S
C1562 N1531 1.435 . S
C1562 C1563 1.358 . S
C1562 C1567 1.371 . S
C1563 H1535 0.930 . S
C1563 C1562 1.358 . S
C1563 C1564 1.405 . S
C1564 H1536 0.932 . S
C1564 C1563 1.405 . S
C1564 C1565 1.383 . S
C1565 C1564 1.383 . S
C1565 C1566 1.393 . S
C1566 H1538 0.931 . S
C1566 C1565 1.393 . S
C1566 C1567 1.382 . S
C1567 H1537 0.929 . S
C1567 C1562 1.371 . S
C1567 C1566 1.382 . S
C1568 N1531 1.423 . S
C1568 C1569 1.362 . S
C1568 C1573 1.388 . S
C1569 H1539 0.929 . S
C1569 C1568 1.362 . S
C1569 C1570 1.376 . S
C1570 H1541 0.931 . S
C1570 C1569 1.376 . S
C1570 C1571 1.396 . S
C1571 C1570 1.396 . S
C1571 C1572 1.348 . S
C1571 C1589 1.472 . S
C1572 H1542 0.929 . S
C1572 C1571 1.348 . S
C1572 C1573 1.443 . S
C1573 H1540 0.932 . S
C1573 C1568 1.388 . S
C1573 C1572 1.443 . S
C1574 N1554 1.433 . S
C1574 C1575 1.363 . S
C1574 C1579 1.370 . S
C1575 H1543 0.929 . S
C1575 C1574 1.363 . S
C1575 C1576 1.385 . S
C1576 H1544 0.930 . S
C1576 C1575 1.385 . S
C1576 C1577 1.357 . S
C1577 C1576 1.357 . S
C1577 C1578 1.406 . S
C1578 H1545 0.929 . S
C1578 C1577 1.406 . S
C1578 C1579 1.391 . S
C1579 H1546 0.931 . S
C1579 C1574 1.370 . S
C1579 C1578 1.391 . S
C1580 N1554 1.435 . S
C1580 C1581 1.358 . S
C1580 C1585 1.371 . S
C1581 H1547 0.930 . S
C1581 C1580 1.358 . S
C1581 C1582 1.405 . S
C1582 H1548 0.932 . S
C1582 C1581 1.405 . S
C1582 C1583 1.383 . S
C1583 C1582 1.383 . S
C1583 C1584 1.393 . S
C1584 H1549 0.931 . S
C1584 C1583 1.393 . S
C1584 C1585 1.382 . S
C1585 H1550 0.929 . S
C1585 C1580 1.371 . S
C1585 C1584 1.382 . S
C1586 N1554 1.423 . S
C1586 C1587 1.362 . S
C1586 C1591 1.388 . S
C1587 H1551 0.929 . S
C1587 C1586 1.362 . S
C1587 C1588 1.376 . S
C1588 H1552 0.931 . S
C1588 C1587 1.376 . S
C1588 C1589 1.396 . S
C1589 C1571 1.472 . S
C1589 C1588 1.396 . S
C1589 C1590 1.348 . S
C1590 H1553 0.929 . S
C1590 C1589 1.348 . S
C1590 C1591 1.443 . S
C1591 H1555 0.932 . S
C1591 C1586 1.388 . S
C1591 C1590 1.443 . S
H1592 C1619 0.929 . S
N1593 C1618 1.433 . S
N1593 C1624 1.435 . S
N1593 C1630 1.423 . S
H1594 C1620 0.930 . S
H1595 C1623 0.931 . S
H1596 C1622 0.929 . S
H1597 C1625 0.930 . S
H1598 C1626 0.932 . S
H1599 C1629 0.929 . S
H1600 C1628 0.931 . S
H1601 C1631 0.929 . S
H1602 C1635 0.932 . S
H1603 C1632 0.931 . S
H1604 C1634 0.929 . S
H1605 C1637 0.929 . S
H1606 C1638 0.930 . S
H1607 C1640 0.929 . S
H1608 C1641 0.931 . S
H1609 C1643 0.930 . S
H1610 C1644 0.932 . S
H1611 C1646 0.931 . S
H1612 C1647 0.929 . S
H1613 C1649 0.929 . S
H1614 C1650 0.931 . S
H1615 C1652 0.929 . S
N1616 C1636 1.433 . S
N1616 C1642 1.435 . S
N1616 C1648 1.423 . S
H1617 C1653 0.932 . S
C1618 N1593 1.433 . S
C1618 C1619 1.363 . S
C1618 C1623 1.370 . S
C1619 H1592 0.929 . S
C1619 C1618 1.363 . S
C1619 C1620 1.385 . S
C1620 H1594 0.930 . S
C1620 C1619 1.385 . S
C1620 C1621 1.357 . S
C1621 C1620 1.357 . S
C1621 C1622 1.406 . S
C1622 H1596 0.929 . S
C1622 C1621 1.406 . S
C1622 C1623 1.391 . S
C1623 H1595 0.931 . S
C1623 C1618 1.370 . S
C1623 C1622 1.391 . S
C1624 N1593 1.435 . S
C1624 C1625 1.358 . S
C1624 C1629 1.371 . S
C1625 H1597 0.930 . S
C1625 C1624 1.358 . S
C1625 C1626 1.405 . S
C1626 H1598 0.932 . S
C1626 C1625 1.405 . S
C1626 C1627 1.383 . S
C1627 C1626 1.383 . S
C1627 C1628 1.393 . S
C1628 H1600 0.931 . S
C1628 C1627 1.393 . S
C1628 C1629 1.382 . S
C1629 H1599 0.929 . S
C1629 C1624 1.371 . S
C1629 C1628 1.382 . S
C1630 N1593 1.423 . S
C1630 C1631 1.362 . S
C1630 C1635 1.388 . S
C1631 H1601 0.929 . S
C1631 C1630 1.362 . S
C1631 C1632 1.376 . S
C1632 H1603 0.931 . S
C1632 C1631 1.376 . S
C1632 C1633 1.396 . S
C1633 C1632 1.396 . S
C1633 C1634 1.348 . S
C1633 C1651 1.472 . S
C1634 H1604 0.929 . S
C1634 C1633 1.348 . S
C1634 C1635 1.443 . S
C1635 H1602 0.932 . S
C1635 C1630 1.388 . S
C1635 C1634 1.443 . S
C1636 N1616 1.433 . S
C1636 C1637 1.363 . S
C1636 C1641 1.370 . S
C1637 H1605 0.929 . S
C1637 C1636 1.363 . S
C1637 C1638 1.385 . S
C1638 H1606 0.930 . S
C1638 C1637 1.385 . S
C1638 C1639 1.357 . S
C1639 C1638 1.357 . S
C1639 C1640 1.406 . S
C1640 H1607 0.929 . S
C1640 C1639 1.406 . S
C1640 C1641 1.391 . S
C1641 H1608 0.931 . S
C1641 C1636 1.370 . S
C1641 C1640 1.391 . S
C1642 N1616 1.435 . S
C1642 C1643 1.358 . S
C1642 C1647 1.371 . S
C1643 H1609 0.930 . S
C1643 C1642 1.358 . S
C1643 C1644 1.405 . S
C1644 H1610 0.932 . S
C1644 C1643 1.405 . S
C1644 C1645 1.383 . S
C1645 C1644 1.383 . S
C1645 C1646 1.393 . S
C1646 H1611 0.931 . S
C1646 C1645 1.393 . S
C1646 C1647 1.382 . S
C1647 H1612 0.929 . S
C1647 C1642 1.371 . S
C1647 C1646 1.382 . S
C1648 N1616 1.423 . S
C1648 C1649 1.362 . S
C1648 C1653 1.388 . S
C1649 H1613 0.929 . S
C1649 C1648 1.362 . S
C1649 C1650 1.376 . S
C1650 H1614 0.931 . S
C1650 C1649 1.376 . S
C1650 C1651 1.396 . S
C1651 C1633 1.472 . S
C1651 C1650 1.396 . S
C1651 C1652 1.348 . S
C1652 H1615 0.929 . S
C1652 C1651 1.348 . S
C1652 C1653 1.443 . S
C1653 H1617 0.932 . S
C1653 C1648 1.388 . S
C1653 C1652 1.443 . S
H1654 C1681 0.929 . S
N1655 C1680 1.433 . S
N1655 C1686 1.435 . S
N1655 C1692 1.423 . S
H1656 C1682 0.930 . S
H1657 C1685 0.931 . S
H1658 C1684 0.929 . S
H1659 C1687 0.930 . S
H1660 C1688 0.932 . S
H1661 C1691 0.929 . S
H1662 C1690 0.931 . S
H1663 C1693 0.929 . S
H1664 C1697 0.932 . S
H1665 C1694 0.931 . S
H1666 C1696 0.929 . S
H1667 C1699 0.929 . S
H1668 C1700 0.930 . S
H1669 C1702 0.929 . S
H1670 C1703 0.931 . S
H1671 C1705 0.930 . S
H1672 C1706 0.932 . S
H1673 C1708 0.931 . S
H1674 C1709 0.929 . S
H1675 C1711 0.929 . S
H1676 C1712 0.931 . S
H1677 C1714 0.929 . S
N1678 C1698 1.433 . S
N1678 C1704 1.435 . S
N1678 C1710 1.423 . S
H1679 C1715 0.932 . S
C1680 N1655 1.433 . S
C1680 C1681 1.363 . S
C1680 C1685 1.370 . S
C1681 H1654 0.929 . S
C1681 C1680 1.363 . S
C1681 C1682 1.385 . S
C1682 H1656 0.930 . S
C1682 C1681 1.385 . S
C1682 C1683 1.357 . S
C1683 C1682 1.357 . S
C1683 C1684 1.406 . S
C1684 H1658 0.929 . S
C1684 C1683 1.406 . S
C1684 C1685 1.391 . S
C1685 H1657 0.931 . S
C1685 C1680 1.370 . S
C1685 C1684 1.391 . S
C1686 N1655 1.435 . S
C1686 C1687 1.358 . S
C1686 C1691 1.371 . S
C1687 H1659 0.930 . S
C1687 C1686 1.358 . S
C1687 C1688 1.405 . S
C1688 H1660 0.932 . S
C1688 C1687 1.405 . S
C1688 C1689 1.383 . S
C1689 C1688 1.383 . S
C1689 C1690 1.393 . S
C1690 H1662 0.931 . S
C1690 C1689 1.393 . S
C1690 C1691 1.382 . S
C1691 H1661 0.929 . S
C1691 C1686 1.371 . S
C1691 C1690 1.382 . S
C1692 N1655 1.423 . S
C1692 C1693 1.362 . S
C1692 C1697 1.388 . S
C1693 H1663 0.929 . S
C1693 C1692 1.362 . S
C1693 C1694 1.376 . S
C1694 H1665 0.931 . S
C1694 C1693 1.376 . S
C1694 C1695 1.396 . S
C1695 C1694 1.396 . S
C1695 C1696 1.348 . S
C1695 C1713 1.472 . S
C1696 H1666 0.929 . S
C1696 C1695 1.348 . S
C1696 C1697 1.443 . S
C1697 H1664 0.932 . S
C1697 C1692 1.388 . S
C1697 C1696 1.443 . S
C1698 N1678 1.433 . S
C1698 C1699 1.363 . S
C1698 C1703 1.370 . S
C1699 H1667 0.929 . S
C1699 C1698 1.363 . S
C1699 C1700 1.385 . S
C1700 H1668 0.930 . S
C1700 C1699 1.385 . S
C1700 C1701 1.357 . S
C1701 C1700 1.357 . S
C1701 C1702 1.406 . S
C1702 H1669 0.929 . S
C1702 C1701 1.406 . S
C1702 C1703 1.391 . S
C1703 H1670 0.931 . S
C1703 C1698 1.370 . S
C1703 C1702 1.391 . S
C1704 N1678 1.435 . S
C1704 C1705 1.358 . S
C1704 C1709 1.371 . S
C1705 H1671 0.930 . S
C1705 C1704 1.358 . S
C1705 C1706 1.405 . S
C1706 H1672 0.932 . S
C1706 C1705 1.405 . S
C1706 C1707 1.383 . S
C1707 C1706 1.383 . S
C1707 C1708 1.393 . S
C1708 H1673 0.931 . S
C1708 C1707 1.393 . S
C1708 C1709 1.382 . S
C1709 H1674 0.929 . S
C1709 C1704 1.371 . S
C1709 C1708 1.382 . S
C1710 N1678 1.423 . S
C1710 C1711 1.362 . S
C1710 C1715 1.388 . S
C1711 H1675 0.929 . S
C1711 C1710 1.362 . S
C1711 C1712 1.376 . S
C1712 H1676 0.931 . S
C1712 C1711 1.376 . S
C1712 C1713 1.396 . S
C1713 C1695 1.472 . S
C1713 C1712 1.396 . S
C1713 C1714 1.348 . S
C1714 H1677 0.929 . S
C1714 C1713 1.348 . S
C1714 C1715 1.443 . S
C1715 H1679 0.932 . S
C1715 C1710 1.388 . S
C1715 C1714 1.443 . S
H1716 C1743 0.929 . S
N1717 C1742 1.433 . S
N1717 C1748 1.435 . S
N1717 C1754 1.423 . S
H1718 C1744 0.930 . S
H1719 C1747 0.931 . S
H1720 C1746 0.929 . S
H1721 C1749 0.930 . S
H1722 C1750 0.932 . S
H1723 C1753 0.929 . S
H1724 C1752 0.931 . S
H1725 C1755 0.929 . S
H1726 C1759 0.932 . S
H1727 C1756 0.931 . S
H1728 C1758 0.929 . S
H1729 C1761 0.929 . S
H1730 C1762 0.930 . S
H1731 C1764 0.929 . S
H1732 C1765 0.931 . S
H1733 C1767 0.930 . S
H1734 C1768 0.932 . S
H1735 C1770 0.931 . S
H1736 C1771 0.929 . S
H1737 C1773 0.929 . S
H1738 C1774 0.931 . S
H1739 C1776 0.929 . S
N1740 C1760 1.433 . S
N1740 C1766 1.435 . S
N1740 C1772 1.423 . S
H1741 C1777 0.932 . S
C1742 N1717 1.433 . S
C1742 C1743 1.363 . S
C1742 C1747 1.370 . S
C1743 H1716 0.929 . S
C1743 C1742 1.363 . S
C1743 C1744 1.385 . S
C1744 H1718 0.930 . S
C1744 C1743 1.385 . S
C1744 C1745 1.357 . S
C1745 C1744 1.357 . S
C1745 C1746 1.406 . S
C1746 H1720 0.929 . S
C1746 C1745 1.406 . S
C1746 C1747 1.391 . S
C1747 H1719 0.931 . S
C1747 C1742 1.370 . S
C1747 C1746 1.391 . S
C1748 N1717 1.435 . S
C1748 C1749 1.358 . S
C1748 C1753 1.371 . S
C1749 H1721 0.930 . S
C1749 C1748 1.358 . S
C1749 C1750 1.405 . S
C1750 H1722 0.932 . S
C1750 C1749 1.405 . S
C1750 C1751 1.383 . S
C1751 C1750 1.383 . S
C1751 C1752 1.393 . S
C1752 H1724 0.931 . S
C1752 C1751 1.393 . S
C1752 C1753 1.382 . S
C1753 H1723 0.929 . S
C1753 C1748 1.371 . S
C1753 C1752 1.382 . S
C1754 N1717 1.423 . S
C1754 C1755 1.362 . S
C1754 C1759 1.388 . S
C1755 H1725 0.929 . S
C1755 C1754 1.362 . S
C1755 C1756 1.376 . S
C1756 H1727 0.931 . S
C1756 C1755 1.376 . S
C1756 C1757 1.396 . S
C1757 C1756 1.396 . S
C1757 C1758 1.348 . S
C1757 C1775 1.472 . S
C1758 H1728 0.929 . S
C1758 C1757 1.348 . S
C1758 C1759 1.443 . S
C1759 H1726 0.932 . S
C1759 C1754 1.388 . S
C1759 C1758 1.443 . S
C1760 N1740 1.433 . S
C1760 C1761 1.363 . S
C1760 C1765 1.370 . S
C1761 H1729 0.929 . S
C1761 C1760 1.363 . S
C1761 C1762 1.385 . S
C1762 H1730 0.930 . S
C1762 C1761 1.385 . S
C1762 C1763 1.357 . S
C1763 C1762 1.357 . S
C1763 C1764 1.406 . S
C1764 H1731 0.929 . S
C1764 C1763 1.406 . S
C1764 C1765 1.391 . S
C1765 H1732 0.931 . S
C1765 C1760 1.370 . S
C1765 C1764 1.391 . S
C1766 N1740 1.435 . S
C1766 C1767 1.358 . S
C1766 C1771 1.371 . S
C1767 H1733 0.930 . S
C1767 C1766 1.358 . S
C1767 C1768 1.405 . S
C1768 H1734 0.932 . S
C1768 C1767 1.405 . S
C1768 C1769 1.383 . S
C1769 C1768 1.383 . S
C1769 C1770 1.393 . S
C1770 H1735 0.931 . S
C1770 C1769 1.393 . S
C1770 C1771 1.382 . S
C1771 H1736 0.929 . S
C1771 C1766 1.371 . S
C1771 C1770 1.382 . S
C1772 N1740 1.423 . S
C1772 C1773 1.362 . S
C1772 C1777 1.388 . S
C1773 H1737 0.929 . S
C1773 C1772 1.362 . S
C1773 C1774 1.376 . S
C1774 H1738 0.931 . S
C1774 C1773 1.376 . S
C1774 C1775 1.396 . S
C1775 C1757 1.472 . S
C1775 C1774 1.396 . S
C1775 C1776 1.348 . S
C1776 H1739 0.929 . S
C1776 C1775 1.348 . S
C1776 C1777 1.443 . S
C1777 H1741 0.932 . S
C1777 C1772 1.388 . S
C1777 C1776 1.443 . S
H1778 C1805 0.929 . S
N1779 C1804 1.433 . S
N1779 C1810 1.435 . S
N1779 C1816 1.423 . S
H1780 C1806 0.930 . S
H1781 C1809 0.931 . S
H1782 C1808 0.929 . S
H1783 C1811 0.930 . S
H1784 C1812 0.932 . S
H1785 C1815 0.929 . S
H1786 C1814 0.931 . S
H1787 C1817 0.929 . S
H1788 C1821 0.932 . S
H1789 C1818 0.931 . S
H1790 C1820 0.929 . S
H1791 C1823 0.929 . S
H1792 C1824 0.930 . S
H1793 C1826 0.929 . S
H1794 C1827 0.931 . S
H1795 C1829 0.930 . S
H1796 C1830 0.932 . S
H1797 C1832 0.931 . S
H1798 C1833 0.929 . S
H1799 C1835 0.929 . S
H1800 C1836 0.931 . S
H1801 C1838 0.929 . S
N1802 C1822 1.433 . S
N1802 C1828 1.435 . S
N1802 C1834 1.423 . S
H1803 C1839 0.932 . S
C1804 N1779 1.433 . S
C1804 C1805 1.363 . S
C1804 C1809 1.370 . S
C1805 H1778 0.929 . S
C1805 C1804 1.363 . S
C1805 C1806 1.385 . S
C1806 H1780 0.930 . S
C1806 C1805 1.385 . S
C1806 C1807 1.357 . S
C1807 C1806 1.357 . S
C1807 C1808 1.406 . S
C1808 H1782 0.929 . S
C1808 C1807 1.406 . S
C1808 C1809 1.391 . S
C1809 H1781 0.931 . S
C1809 C1804 1.370 . S
C1809 C1808 1.391 . S
C1810 N1779 1.435 . S
C1810 C1811 1.358 . S
C1810 C1815 1.371 . S
C1811 H1783 0.930 . S
C1811 C1810 1.358 . S
C1811 C1812 1.405 . S
C1812 H1784 0.932 . S
C1812 C1811 1.405 . S
C1812 C1813 1.383 . S
C1813 C1812 1.383 . S
C1813 C1814 1.393 . S
C1814 H1786 0.931 . S
C1814 C1813 1.393 . S
C1814 C1815 1.382 . S
C1815 H1785 0.929 . S
C1815 C1810 1.371 . S
C1815 C1814 1.382 . S
C1816 N1779 1.423 . S
C1816 C1817 1.362 . S
C1816 C1821 1.388 . S
C1817 H1787 0.929 . S
C1817 C1816 1.362 . S
C1817 C1818 1.376 . S
C1818 H1789 0.931 . S
C1818 C1817 1.376 . S
C1818 C1819 1.396 . S
C1819 C1818 1.396 . S
C1819 C1820 1.348 . S
C1819 C1837 1.472 . S
C1820 H1790 0.929 . S
C1820 C1819 1.348 . S
C1820 C1821 1.443 . S
C1821 H1788 0.932 . S
C1821 C1816 1.388 . S
C1821 C1820 1.443 . S
C1822 N1802 1.433 . S
C1822 C1823 1.363 . S
C1822 C1827 1.370 . S
C1823 H1791 0.929 . S
C1823 C1822 1.363 . S
C1823 C1824 1.385 . S
C1824 H1792 0.930 . S
C1824 C1823 1.385 . S
C1824 C1825 1.357 . S
C1825 C1824 1.357 . S
C1825 C1826 1.406 . S
C1826 H1793 0.929 . S
C1826 C1825 1.406 . S
C1826 C1827 1.391 . S
C1827 H1794 0.931 . S
C1827 C1822 1.370 . S
C1827 C1826 1.391 . S
C1828 N1802 1.435 . S
C1828 C1829 1.358 . S
C1828 C1833 1.371 . S
C1829 H1795 0.930 . S
C1829 C1828 1.358 . S
C1829 C1830 1.405 . S
C1830 H1796 0.932 . S
C1830 C1829 1.405 . S
C1830 C1831 1.383 . S
C1831 C1830 1.383 . S
C1831 C1832 1.393 . S
C1832 H1797 0.931 . S
C1832 C1831 1.393 . S
C1832 C1833 1.382 . S
C1833 H1798 0.929 . S
C1833 C1828 1.371 . S
C1833 C1832 1.382 . S
C1834 N1802 1.423 . S
C1834 C1835 1.362 . S
C1834 C1839 1.388 . S
C1835 H1799 0.929 . S
C1835 C1834 1.362 . S
C1835 C1836 1.376 . S
C1836 H1800 0.931 . S
C1836 C1835 1.376 . S
C1836 C1837 1.396 . S
C1837 C1819 1.472 . S
C1837 C1836 1.396 . S
C1837 C1838 1.348 . S
C1838 H1801 0.929 . S
C1838 C1837 1.348 . S
C1838 C1839 1.443 . S
C1839 H1803 0.932 . S
C1839 C1834 1.388 . S
C1839 C1838 1.443 . S
H1840 C1846 0.930 . S
H1841 C1849 0.930 . S
H1842 C1850 0.930 . S
H1843 C1851 0.930 . S
H1844 C1854 0.930 . S
H1845 C1855 0.930 . S
C1846 H1840 0.930 . S
C1846 C1847 1.355 . S
C1846 C1848 1.415 . S
C1847 C1846 1.355 . S
C1847 C1849 1.419 . S
C1848 C1846 1.415 . S
C1848 C1853 1.425 . S
C1848 C1855 1.409 . S
C1849 H1841 0.930 . S
C1849 C1847 1.419 . S
C1849 C1850 1.362 . S
C1850 H1842 0.930 . S
C1850 C1849 1.362 . S
C1850 C1853 1.409 . S
C1851 H1843 0.930 . S
C1851 C1852 1.355 . S
C1851 C1853 1.415 . S
C1852 C1851 1.355 . S
C1852 C1854 1.419 . S
C1853 C1848 1.425 . S
C1853 C1850 1.409 . S
C1853 C1851 1.415 . S
C1854 H1844 0.930 . S
C1854 C1852 1.419 . S
C1854 C1855 1.362 . S
C1855 H1845 0.930 . S
C1855 C1848 1.409 . S
C1855 C1854 1.362 . S
H1856 C1862 0.930 . S
H1857 C1865 0.930 . S
H1858 C1866 0.930 . S
H1859 C1867 0.930 . S
H1860 C1870 0.930 . S
H1861 C1871 0.930 . S
C1862 H1856 0.930 . S
C1862 C1863 1.355 . S
C1862 C1864 1.415 . S
C1863 C1862 1.355 . S
C1863 C1865 1.419 . S
C1864 C1862 1.415 . S
C1864 C1869 1.425 . S
C1864 C1871 1.409 . S
C1865 H1857 0.930 . S
C1865 C1863 1.419 . S
C1865 C1866 1.362 . S
C1866 H1858 0.930 . S
C1866 C1865 1.362 . S
C1866 C1869 1.409 . S
C1867 H1859 0.930 . S
C1867 C1868 1.355 . S
C1867 C1869 1.415 . S
C1868 C1867 1.355 . S
C1868 C1870 1.419 . S
C1869 C1864 1.425 . S
C1869 C1866 1.409 . S
C1869 C1867 1.415 . S
C1870 H1860 0.930 . S
C1870 C1868 1.419 . S
C1870 C1871 1.362 . S
C1871 H1861 0.930 . S
C1871 C1864 1.409 . S
C1871 C1870 1.362 . S
H1872 C1878 0.930 . S
H1873 C1881 0.930 . S
H1874 C1882 0.930 . S
H1875 C1883 0.930 . S
H1876 C1886 0.930 . S
H1877 C1887 0.930 . S
C1878 H1872 0.930 . S
C1878 C1879 1.355 . S
C1878 C1880 1.415 . S
C1879 C1878 1.355 . S
C1879 C1881 1.419 . S
C1880 C1878 1.415 . S
C1880 C1885 1.425 . S
C1880 C1887 1.409 . S
C1881 H1873 0.930 . S
C1881 C1879 1.419 . S
C1881 C1882 1.362 . S
C1882 H1874 0.930 . S
C1882 C1881 1.362 . S
C1882 C1885 1.409 . S
C1883 H1875 0.930 . S
C1883 C1884 1.355 . S
C1883 C1885 1.415 . S
C1884 C1883 1.355 . S
C1884 C1886 1.419 . S
C1885 C1880 1.425 . S
C1885 C1882 1.409 . S
C1885 C1883 1.415 . S
C1886 H1876 0.930 . S
C1886 C1884 1.419 . S
C1886 C1887 1.362 . S
C1887 H1877 0.930 . S
C1887 C1880 1.409 . S
C1887 C1886 1.362 . S
H1888 C1894 0.930 . S
H1889 C1897 0.930 . S
H1890 C1898 0.930 . S
H1891 C1899 0.930 . S
H1892 C1902 0.930 . S
H1893 C1903 0.930 . S
C1894 H1888 0.930 . S
C1894 C1895 1.355 . S
C1894 C1896 1.415 . S
C1895 C1894 1.355 . S
C1895 C1897 1.419 . S
C1896 C1894 1.415 . S
C1896 C1901 1.425 . S
C1896 C1903 1.409 . S
C1897 H1889 0.930 . S
C1897 C1895 1.419 . S
C1897 C1898 1.362 . S
C1898 H1890 0.930 . S
C1898 C1897 1.362 . S
C1898 C1901 1.409 . S
C1899 H1891 0.930 . S
C1899 C1900 1.355 . S
C1899 C1901 1.415 . S
C1900 C1899 1.355 . S
C1900 C1902 1.419 . S
C1901 C1896 1.425 . S
C1901 C1898 1.409 . S
C1901 C1899 1.415 . S
C1902 H1892 0.930 . S
C1902 C1900 1.419 . S
C1902 C1903 1.362 . S
C1903 H1893 0.930 . S
C1903 C1896 1.409 . S
C1903 C1902 1.362 . S
H1904 C1910 0.930 . S
H1905 C1913 0.930 . S
H1906 C1914 0.930 . S
H1907 C1915 0.930 . S
H1908 C1918 0.930 . S
H1909 C1919 0.930 . S
C1910 H1904 0.930 . S
C1910 C1911 1.355 . S
C1910 C1912 1.415 . S
C1911 C1910 1.355 . S
C1911 C1913 1.419 . S
C1912 C1910 1.415 . S
C1912 C1917 1.425 . S
C1912 C1919 1.409 . S
C1913 H1905 0.930 . S
C1913 C1911 1.419 . S
C1913 C1914 1.362 . S
C1914 H1906 0.930 . S
C1914 C1913 1.362 . S
C1914 C1917 1.409 . S
C1915 H1907 0.930 . S
C1915 C1916 1.355 . S
C1915 C1917 1.415 . S
C1916 C1915 1.355 . S
C1916 C1918 1.419 . S
C1917 C1912 1.425 . S
C1917 C1914 1.409 . S
C1917 C1915 1.415 . S
C1918 H1908 0.930 . S
C1918 C1916 1.419 . S
C1918 C1919 1.362 . S
C1919 H1909 0.930 . S
C1919 C1912 1.409 . S
C1919 C1918 1.362 . S
H1920 C1926 0.930 . S
H1921 C1929 0.930 . S
H1922 C1930 0.930 . S
H1923 C1931 0.930 . S
H1924 C1934 0.930 . S
H1925 C1935 0.930 . S
C1926 H1920 0.930 . S
C1926 C1927 1.355 . S
C1926 C1928 1.415 . S
C1927 C1926 1.355 . S
C1927 C1929 1.419 . S
C1928 C1926 1.415 . S
C1928 C1933 1.425 . S
C1928 C1935 1.409 . S
C1929 H1921 0.930 . S
C1929 C1927 1.419 . S
C1929 C1930 1.362 . S
C1930 H1922 0.930 . S
C1930 C1929 1.362 . S
C1930 C1933 1.409 . S
C1931 H1923 0.930 . S
C1931 C1932 1.355 . S
C1931 C1933 1.415 . S
C1932 C1931 1.355 . S
C1932 C1934 1.419 . S
C1933 C1928 1.425 . S
C1933 C1930 1.409 . S
C1933 C1931 1.415 . S
C1934 H1924 0.930 . S
C1934 C1932 1.419 . S
C1934 C1935 1.362 . S
C1935 H1925 0.930 . S
C1935 C1928 1.409 . S
C1935 C1934 1.362 . S
H1936 C1942 0.930 . S
H1937 C1945 0.930 . S
H1938 C1946 0.930 . S
H1939 C1947 0.930 . S
H1940 C1950 0.930 . S
H1941 C1951 0.930 . S
C1942 H1936 0.930 . S
C1942 C1943 1.355 . S
C1942 C1944 1.415 . S
C1943 C1942 1.355 . S
C1943 C1945 1.419 . S
C1944 C1942 1.415 . S
C1944 C1949 1.425 . S
C1944 C1951 1.409 . S
C1945 H1937 0.930 . S
C1945 C1943 1.419 . S
C1945 C1946 1.362 . S
C1946 H1938 0.930 . S
C1946 C1945 1.362 . S
C1946 C1949 1.409 . S
C1947 H1939 0.930 . S
C1947 C1948 1.355 . S
C1947 C1949 1.415 . S
C1948 C1947 1.355 . S
C1948 C1950 1.419 . S
C1949 C1944 1.425 . S
C1949 C1946 1.409 . S
C1949 C1947 1.415 . S
C1950 H1940 0.930 . S
C1950 C1948 1.419 . S
C1950 C1951 1.362 . S
C1951 H1941 0.930 . S
C1951 C1944 1.409 . S
C1951 C1950 1.362 . S
H1952 C1958 0.930 . S
H1953 C1961 0.930 . S
H1954 C1962 0.930 . S
H1955 C1963 0.930 . S
H1956 C1966 0.930 . S
H1957 C1967 0.930 . S
C1958 H1952 0.930 . S
C1958 C1959 1.355 . S
C1958 C1960 1.415 . S
C1959 C1958 1.355 . S
C1959 C1961 1.419 . S
C1960 C1958 1.415 . S
C1960 C1965 1.425 . S
C1960 C1967 1.409 . S
C1961 H1953 0.930 . S
C1961 C1959 1.419 . S
C1961 C1962 1.362 . S
C1962 H1954 0.930 . S
C1962 C1961 1.362 . S
C1962 C1965 1.409 . S
C1963 H1955 0.930 . S
C1963 C1964 1.355 . S
C1963 C1965 1.415 . S
C1964 C1963 1.355 . S
C1964 C1966 1.419 . S
C1965 C1960 1.425 . S
C1965 C1962 1.409 . S
C1965 C1963 1.415 . S
C1966 H1956 0.930 . S
C1966 C1964 1.419 . S
C1966 C1967 1.362 . S
C1967 H1957 0.930 . S
C1967 C1960 1.409 . S
C1967 C1966 1.362 . S
H1968 C1974 0.930 . S
H1969 C1977 0.930 . S
H1970 C1978 0.930 . S
H1971 C1979 0.930 . S
H1972 C1982 0.930 . S
H1973 C1983 0.930 . S
C1974 H1968 0.930 . S
C1974 C1975 1.355 . S
C1974 C1976 1.415 . S
C1975 C1974 1.355 . S
C1975 C1977 1.419 . S
C1976 C1974 1.415 . S
C1976 C1981 1.425 . S
C1976 C1983 1.409 . S
C1977 H1969 0.930 . S
C1977 C1975 1.419 . S
C1977 C1978 1.362 . S
C1978 H1970 0.930 . S
C1978 C1977 1.362 . S
C1978 C1981 1.409 . S
C1979 H1971 0.930 . S
C1979 C1980 1.355 . S
C1979 C1981 1.415 . S
C1980 C1979 1.355 . S
C1980 C1982 1.419 . S
C1981 C1976 1.425 . S
C1981 C1978 1.409 . S
C1981 C1979 1.415 . S
C1982 H1972 0.930 . S
C1982 C1980 1.419 . S
C1982 C1983 1.362 . S
C1983 H1973 0.930 . S
C1983 C1976 1.409 . S
C1983 C1982 1.362 . S
H1984 C1990 0.930 . S
H1985 C1993 0.930 . S
H1986 C1994 0.930 . S
H1987 C1995 0.930 . S
H1988 C1998 0.930 . S
H1989 C1999 0.930 . S
C1990 H1984 0.930 . S
C1990 C1991 1.355 . S
C1990 C1992 1.415 . S
C1991 C1990 1.355 . S
C1991 C1993 1.419 . S
C1992 C1990 1.415 . S
C1992 C1997 1.425 . S
C1992 C1999 1.409 . S
C1993 H1985 0.930 . S
C1993 C1991 1.419 . S
C1993 C1994 1.362 . S
C1994 H1986 0.930 . S
C1994 C1993 1.362 . S
C1994 C1997 1.409 . S
C1995 H1987 0.930 . S
C1995 C1996 1.355 . S
C1995 C1997 1.415 . S
C1996 C1995 1.355 . S
C1996 C1998 1.419 . S
C1997 C1992 1.425 . S
C1997 C1994 1.409 . S
C1997 C1995 1.415 . S
C1998 H1988 0.930 . S
C1998 C1996 1.419 . S
C1998 C1999 1.362 . S
C1999 H1989 0.930 . S
C1999 C1992 1.409 . S
C1999 C1998 1.362 . S
H2000 C2006 0.930 . S
H2001 C2009 0.930 . S
H2002 C2010 0.930 . S
H2003 C2011 0.930 . S
H2004 C2014 0.930 . S
H2005 C2015 0.930 . S
C2006 H2000 0.930 . S
C2006 C2007 1.355 . S
C2006 C2008 1.415 . S
C2007 C2006 1.355 . S
C2007 C2009 1.419 . S
C2008 C2006 1.415 . S
C2008 C2013 1.425 . S
C2008 C2015 1.409 . S
C2009 H2001 0.930 . S
C2009 C2007 1.419 . S
C2009 C2010 1.362 . S
C2010 H2002 0.930 . S
C2010 C2009 1.362 . S
C2010 C2013 1.409 . S
C2011 H2003 0.930 . S
C2011 C2012 1.355 . S
C2011 C2013 1.415 . S
C2012 C2011 1.355 . S
C2012 C2014 1.419 . S
C2013 C2008 1.425 . S
C2013 C2010 1.409 . S
C2013 C2011 1.415 . S
C2014 H2004 0.930 . S
C2014 C2012 1.419 . S
C2014 C2015 1.362 . S
C2015 H2005 0.930 . S
C2015 C2008 1.409 . S
C2015 C2014 1.362 . S
H2016 C2022 0.930 . S
H2017 C2025 0.930 . S
H2018 C2026 0.930 . S
H2019 C2027 0.930 . S
H2020 C2030 0.930 . S
H2021 C2031 0.930 . S
C2022 H2016 0.930 . S
C2022 C2023 1.355 . S
C2022 C2024 1.415 . S
C2023 C2022 1.355 . S
C2023 C2025 1.419 . S
C2024 C2022 1.415 . S
C2024 C2029 1.425 . S
C2024 C2031 1.409 . S
C2025 H2017 0.930 . S
C2025 C2023 1.419 . S
C2025 C2026 1.362 . S
C2026 H2018 0.930 . S
C2026 C2025 1.362 . S
C2026 C2029 1.409 . S
C2027 H2019 0.930 . S
C2027 C2028 1.355 . S
C2027 C2029 1.415 . S
C2028 C2027 1.355 . S
C2028 C2030 1.419 . S
C2029 C2024 1.425 . S
C2029 C2026 1.409 . S
C2029 C2027 1.415 . S
C2030 H2020 0.930 . S
C2030 C2028 1.419 . S
C2030 C2031 1.362 . S
C2031 H2021 0.930 . S
C2031 C2024 1.409 . S
C2031 C2030 1.362 . S
H2032 C2038 0.930 . S
H2033 C2041 0.930 . S
H2034 C2042 0.930 . S
H2035 C2043 0.930 . S
H2036 C2046 0.930 . S
H2037 C2047 0.930 . S
C2038 H2032 0.930 . S
C2038 C2039 1.355 . S
C2038 C2040 1.415 . S
C2039 C2038 1.355 . S
C2039 C2041 1.419 . S
C2040 C2038 1.415 . S
C2040 C2045 1.425 . S
C2040 C2047 1.409 . S
C2041 H2033 0.930 . S
C2041 C2039 1.419 . S
C2041 C2042 1.362 . S
C2042 H2034 0.930 . S
C2042 C2041 1.362 . S
C2042 C2045 1.409 . S
C2043 H2035 0.930 . S
C2043 C2044 1.355 . S
C2043 C2045 1.415 . S
C2044 C2043 1.355 . S
C2044 C2046 1.419 . S
C2045 C2040 1.425 . S
C2045 C2042 1.409 . S
C2045 C2043 1.415 . S
C2046 H2036 0.930 . S
C2046 C2044 1.419 . S
C2046 C2047 1.362 . S
C2047 H2037 0.930 . S
C2047 C2040 1.409 . S
C2047 C2046 1.362 . S
H2048 C2054 0.930 . S
H2049 C2057 0.930 . S
H2050 C2058 0.930 . S
H2051 C2059 0.930 . S
H2052 C2062 0.930 . S
H2053 C2063 0.930 . S
C2054 H2048 0.930 . S
C2054 C2055 1.355 . S
C2054 C2056 1.415 . S
C2055 C2054 1.355 . S
C2055 C2057 1.419 . S
C2056 C2054 1.415 . S
C2056 C2061 1.425 . S
C2056 C2063 1.409 . S
C2057 H2049 0.930 . S
C2057 C2055 1.419 . S
C2057 C2058 1.362 . S
C2058 H2050 0.930 . S
C2058 C2057 1.362 . S
C2058 C2061 1.409 . S
C2059 H2051 0.930 . S
C2059 C2060 1.355 . S
C2059 C2061 1.415 . S
C2060 C2059 1.355 . S
C2060 C2062 1.419 . S
C2061 C2056 1.425 . S
C2061 C2058 1.409 . S
C2061 C2059 1.415 . S
C2062 H2052 0.930 . S
C2062 C2060 1.419 . S
C2062 C2063 1.362 . S
C2063 H2053 0.930 . S
C2063 C2056 1.409 . S
C2063 C2062 1.362 . S
H2064 C2070 0.930 . S
H2065 C2073 0.930 . S
H2066 C2074 0.930 . S
H2067 C2075 0.930 . S
H2068 C2078 0.930 . S
H2069 C2079 0.930 . S
C2070 H2064 0.930 . S
C2070 C2071 1.355 . S
C2070 C2072 1.415 . S
C2071 C2070 1.355 . S
C2071 C2073 1.419 . S
C2072 C2070 1.415 . S
C2072 C2077 1.425 . S
C2072 C2079 1.409 . S
C2073 H2065 0.930 . S
C2073 C2071 1.419 . S
C2073 C2074 1.362 . S
C2074 H2066 0.930 . S
C2074 C2073 1.362 . S
C2074 C2077 1.409 . S
C2075 H2067 0.930 . S
C2075 C2076 1.355 . S
C2075 C2077 1.415 . S
C2076 C2075 1.355 . S
C2076 C2078 1.419 . S
C2077 C2072 1.425 . S
C2077 C2074 1.409 . S
C2077 C2075 1.415 . S
C2078 H2068 0.930 . S
C2078 C2076 1.419 . S
C2078 C2079 1.362 . S
C2079 H2069 0.930 . S
C2079 C2072 1.409 . S
C2079 C2078 1.362 . S
H2080 C2086 0.930 . S
H2081 C2089 0.930 . S
H2082 C2090 0.930 . S
H2083 C2091 0.930 . S
H2084 C2094 0.930 . S
H2085 C2095 0.930 . S
C2086 H2080 0.930 . S
C2086 C2087 1.355 . S
C2086 C2088 1.415 . S
C2087 C2086 1.355 . S
C2087 C2089 1.419 . S
C2088 C2086 1.415 . S
C2088 C2093 1.425 . S
C2088 C2095 1.409 . S
C2089 H2081 0.930 . S
C2089 C2087 1.419 . S
C2089 C2090 1.362 . S
C2090 H2082 0.930 . S
C2090 C2089 1.362 . S
C2090 C2093 1.409 . S
C2091 H2083 0.930 . S
C2091 C2092 1.355 . S
C2091 C2093 1.415 . S
C2092 C2091 1.355 . S
C2092 C2094 1.419 . S
C2093 C2088 1.425 . S
C2093 C2090 1.409 . S
C2093 C2091 1.415 . S
C2094 H2084 0.930 . S
C2094 C2092 1.419 . S
C2094 C2095 1.362 . S
C2095 H2085 0.930 . S
C2095 C2088 1.409 . S
C2095 C2094 1.362 . S
H2096 C2102 0.930 . S
H2097 C2105 0.930 . S
H2098 C2106 0.930 . S
H2099 C2107 0.930 . S
H2100 C2110 0.930 . S
H2101 C2111 0.930 . S
C2102 H2096 0.930 . S
C2102 C2103 1.355 . S
C2102 C2104 1.415 . S
C2103 C2102 1.355 . S
C2103 C2105 1.419 . S
C2104 C2102 1.415 . S
C2104 C2109 1.425 . S
C2104 C2111 1.409 . S
C2105 H2097 0.930 . S
C2105 C2103 1.419 . S
C2105 C2106 1.362 . S
C2106 H2098 0.930 . S
C2106 C2105 1.362 . S
C2106 C2109 1.409 . S
C2107 H2099 0.930 . S
C2107 C2108 1.355 . S
C2107 C2109 1.415 . S
C2108 C2107 1.355 . S
C2108 C2110 1.419 . S
C2109 C2104 1.425 . S
C2109 C2106 1.409 . S
C2109 C2107 1.415 . S
C2110 H2100 0.930 . S
C2110 C2108 1.419 . S
C2110 C2111 1.362 . S
C2111 H2101 0.930 . S
C2111 C2104 1.409 . S
C2111 C2110 1.362 . S
H2112 C2118 0.930 . S
H2113 C2121 0.930 . S
H2114 C2122 0.930 . S
H2115 C2123 0.930 . S
H2116 C2126 0.930 . S
H2117 C2127 0.930 . S
C2118 H2112 0.930 . S
C2118 C2119 1.355 . S
C2118 C2120 1.415 . S
C2119 C2118 1.355 . S
C2119 C2121 1.419 . S
C2120 C2118 1.415 . S
C2120 C2125 1.425 . S
C2120 C2127 1.409 . S
C2121 H2113 0.930 . S
C2121 C2119 1.419 . S
C2121 C2122 1.362 . S
C2122 H2114 0.930 . S
C2122 C2121 1.362 . S
C2122 C2125 1.409 . S
C2123 H2115 0.930 . S
C2123 C2124 1.355 . S
C2123 C2125 1.415 . S
C2124 C2123 1.355 . S
C2124 C2126 1.419 . S
C2125 C2120 1.425 . S
C2125 C2122 1.409 . S
C2125 C2123 1.415 . S
C2126 H2116 0.930 . S
C2126 C2124 1.419 . S
C2126 C2127 1.362 . S
C2127 H2117 0.930 . S
C2127 C2120 1.409 . S
C2127 C2126 1.362 . S
H2128 C2134 0.930 . S
H2129 C2137 0.930 . S
H2130 C2138 0.930 . S
H2131 C2139 0.930 . S
H2132 C2142 0.930 . S
H2133 C2143 0.930 . S
C2134 H2128 0.930 . S
C2134 C2135 1.355 . S
C2134 C2136 1.415 . S
C2135 C2134 1.355 . S
C2135 C2137 1.419 . S
C2136 C2134 1.415 . S
C2136 C2141 1.425 . S
C2136 C2143 1.409 . S
C2137 H2129 0.930 . S
C2137 C2135 1.419 . S
C2137 C2138 1.362 . S
C2138 H2130 0.930 . S
C2138 C2137 1.362 . S
C2138 C2141 1.409 . S
C2139 H2131 0.930 . S
C2139 C2140 1.355 . S
C2139 C2141 1.415 . S
C2140 C2139 1.355 . S
C2140 C2142 1.419 . S
C2141 C2136 1.425 . S
C2141 C2138 1.409 . S
C2141 C2139 1.415 . S
C2142 H2132 0.930 . S
C2142 C2140 1.419 . S
C2142 C2143 1.362 . S
C2143 H2133 0.930 . S
C2143 C2136 1.409 . S
C2143 C2142 1.362 . S
H2144 C2150 0.930 . S
H2145 C2153 0.930 . S
H2146 C2154 0.930 . S
H2147 C2155 0.930 . S
H2148 C2158 0.930 . S
H2149 C2159 0.930 . S
C2150 H2144 0.930 . S
C2150 C2151 1.355 . S
C2150 C2152 1.415 . S
C2151 C2150 1.355 . S
C2151 C2153 1.419 . S
C2152 C2150 1.415 . S
C2152 C2157 1.425 . S
C2152 C2159 1.409 . S
C2153 H2145 0.930 . S
C2153 C2151 1.419 . S
C2153 C2154 1.362 . S
C2154 H2146 0.930 . S
C2154 C2153 1.362 . S
C2154 C2157 1.409 . S
C2155 H2147 0.930 . S
C2155 C2156 1.355 . S
C2155 C2157 1.415 . S
C2156 C2155 1.355 . S
C2156 C2158 1.419 . S
C2157 C2152 1.425 . S
C2157 C2154 1.409 . S
C2157 C2155 1.415 . S
C2158 H2148 0.930 . S
C2158 C2156 1.419 . S
C2158 C2159 1.362 . S
C2159 H2149 0.930 . S
C2159 C2152 1.409 . S
C2159 C2158 1.362 . S
H2160 C2166 0.930 . S
H2161 C2169 0.930 . S
H2162 C2170 0.930 . S
H2163 C2171 0.930 . S
H2164 C2174 0.930 . S
H2165 C2175 0.930 . S
C2166 H2160 0.930 . S
C2166 C2167 1.355 . S
C2166 C2168 1.415 . S
C2167 C2166 1.355 . S
C2167 C2169 1.419 . S
C2168 C2166 1.415 . S
C2168 C2173 1.425 . S
C2168 C2175 1.409 . S
C2169 H2161 0.930 . S
C2169 C2167 1.419 . S
C2169 C2170 1.362 . S
C2170 H2162 0.930 . S
C2170 C2169 1.362 . S
C2170 C2173 1.409 . S
C2171 H2163 0.930 . S
C2171 C2172 1.355 . S
C2171 C2173 1.415 . S
C2172 C2171 1.355 . S
C2172 C2174 1.419 . S
C2173 C2168 1.425 . S
C2173 C2170 1.409 . S
C2173 C2171 1.415 . S
C2174 H2164 0.930 . S
C2174 C2172 1.419 . S
C2174 C2175 1.362 . S
C2175 H2165 0.930 . S
C2175 C2168 1.409 . S
C2175 C2174 1.362 . S
H2176 C2182 0.930 . S
H2177 C2185 0.930 . S
H2178 C2186 0.930 . S
H2179 C2187 0.930 . S
H2180 C2190 0.930 . S
H2181 C2191 0.930 . S
C2182 H2176 0.930 . S
C2182 C2183 1.355 . S
C2182 C2184 1.415 . S
C2183 C2182 1.355 . S
C2183 C2185 1.419 . S
C2184 C2182 1.415 . S
C2184 C2189 1.425 . S
C2184 C2191 1.409 . S
C2185 H2177 0.930 . S
C2185 C2183 1.419 . S
C2185 C2186 1.362 . S
C2186 H2178 0.930 . S
C2186 C2185 1.362 . S
C2186 C2189 1.409 . S
C2187 H2179 0.930 . S
C2187 C2188 1.355 . S
C2187 C2189 1.415 . S
C2188 C2187 1.355 . S
C2188 C2190 1.419 . S
C2189 C2184 1.425 . S
C2189 C2186 1.409 . S
C2189 C2187 1.415 . S
C2190 H2180 0.930 . S
C2190 C2188 1.419 . S
C2190 C2191 1.362 . S
C2191 H2181 0.930 . S
C2191 C2184 1.409 . S
C2191 C2190 1.362 . S
H2192 C2198 0.930 . S
H2193 C2201 0.930 . S
H2194 C2202 0.930 . S
H2195 C2203 0.930 . S
H2196 C2206 0.930 . S
H2197 C2207 0.930 . S
C2198 H2192 0.930 . S
C2198 C2199 1.355 . S
C2198 C2200 1.415 . S
C2199 C2198 1.355 . S
C2199 C2201 1.419 . S
C2200 C2198 1.415 . S
C2200 C2205 1.425 . S
C2200 C2207 1.409 . S
C2201 H2193 0.930 . S
C2201 C2199 1.419 . S
C2201 C2202 1.362 . S
C2202 H2194 0.930 . S
C2202 C2201 1.362 . S
C2202 C2205 1.409 . S
C2203 H2195 0.930 . S
C2203 C2204 1.355 . S
C2203 C2205 1.415 . S
C2204 C2203 1.355 . S
C2204 C2206 1.419 . S
C2205 C2200 1.425 . S
C2205 C2202 1.409 . S
C2205 C2203 1.415 . S
C2206 H2196 0.930 . S
C2206 C2204 1.419 . S
C2206 C2207 1.362 . S
C2207 H2197 0.930 . S
C2207 C2200 1.409 . S
C2207 C2206 1.362 . S
H2208 C2214 0.930 . S
H2209 C2217 0.930 . S
H2210 C2218 0.930 . S
H2211 C2219 0.930 . S
H2212 C2222 0.930 . S
H2213 C2223 0.930 . S
C2214 H2208 0.930 . S
C2214 C2215 1.355 . S
C2214 C2216 1.415 . S
C2215 C2214 1.355 . S
C2215 C2217 1.419 . S
C2216 C2214 1.415 . S
C2216 C2221 1.425 . S
C2216 C2223 1.409 . S
C2217 H2209 0.930 . S
C2217 C2215 1.419 . S
C2217 C2218 1.362 . S
C2218 H2210 0.930 . S
C2218 C2217 1.362 . S
C2218 C2221 1.409 . S
C2219 H2211 0.930 . S
C2219 C2220 1.355 . S
C2219 C2221 1.415 . S
C2220 C2219 1.355 . S
C2220 C2222 1.419 . S
C2221 C2216 1.425 . S
C2221 C2218 1.409 . S
C2221 C2219 1.415 . S
C2222 H2212 0.930 . S
C2222 C2220 1.419 . S
C2222 C2223 1.362 . S
C2223 H2213 0.930 . S
C2223 C2216 1.409 . S
C2223 C2222 1.362 . S
H2224 C2230 0.930 . S
H2225 C2233 0.930 . S
H2226 C2234 0.930 . S
H2227 C2235 0.930 . S
H2228 C2238 0.930 . S
H2229 C2239 0.930 . S
C2230 H2224 0.930 . S
C2230 C2231 1.355 . S
C2230 C2232 1.415 . S
C2231 C2230 1.355 . S
C2231 C2233 1.419 . S
C2232 C2230 1.415 . S
C2232 C2237 1.425 . S
C2232 C2239 1.409 . S
C2233 H2225 0.930 . S
C2233 C2231 1.419 . S
C2233 C2234 1.362 . S
C2234 H2226 0.930 . S
C2234 C2233 1.362 . S
C2234 C2237 1.409 . S
C2235 H2227 0.930 . S
C2235 C2236 1.355 . S
C2235 C2237 1.415 . S
C2236 C2235 1.355 . S
C2236 C2238 1.419 . S
C2237 C2232 1.425 . S
C2237 C2234 1.409 . S
C2237 C2235 1.415 . S
C2238 H2228 0.930 . S
C2238 C2236 1.419 . S
C2238 C2239 1.362 . S
C2239 H2229 0.930 . S
C2239 C2232 1.409 . S
C2239 C2238 1.362 . S
H2240 C2246 0.930 . S
H2241 C2249 0.930 . S
H2242 C2250 0.930 . S
H2243 C2251 0.930 . S
H2244 C2254 0.930 . S
H2245 C2255 0.930 . S
C2246 H2240 0.930 . S
C2246 C2247 1.355 . S
C2246 C2248 1.415 . S
C2247 C2246 1.355 . S
C2247 C2249 1.419 . S
C2248 C2246 1.415 . S
C2248 C2253 1.425 . S
C2248 C2255 1.409 . S
C2249 H2241 0.930 . S
C2249 C2247 1.419 . S
C2249 C2250 1.362 . S
C2250 H2242 0.930 . S
C2250 C2249 1.362 . S
C2250 C2253 1.409 . S
C2251 H2243 0.930 . S
C2251 C2252 1.355 . S
C2251 C2253 1.415 . S
C2252 C2251 1.355 . S
C2252 C2254 1.419 . S
C2253 C2248 1.425 . S
C2253 C2250 1.409 . S
C2253 C2251 1.415 . S
C2254 H2244 0.930 . S
C2254 C2252 1.419 . S
C2254 C2255 1.362 . S
C2255 H2245 0.930 . S
C2255 C2248 1.409 . S
C2255 C2254 1.362 . S
H2256 C2262 0.930 . S
H2257 C2265 0.930 . S
H2258 C2266 0.930 . S
H2259 C2267 0.930 . S
H2260 C2270 0.930 . S
H2261 C2271 0.930 . S
C2262 H2256 0.930 . S
C2262 C2263 1.355 . S
C2262 C2264 1.415 . S
C2263 C2262 1.355 . S
C2263 C2265 1.419 . S
C2264 C2262 1.415 . S
C2264 C2269 1.425 . S
C2264 C2271 1.409 . S
C2265 H2257 0.930 . S
C2265 C2263 1.419 . S
C2265 C2266 1.362 . S
C2266 H2258 0.930 . S
C2266 C2265 1.362 . S
C2266 C2269 1.409 . S
C2267 H2259 0.930 . S
C2267 C2268 1.355 . S
C2267 C2269 1.415 . S
C2268 C2267 1.355 . S
C2268 C2270 1.419 . S
C2269 C2264 1.425 . S
C2269 C2266 1.409 . S
C2269 C2267 1.415 . S
C2270 H2260 0.930 . S
C2270 C2268 1.419 . S
C2270 C2271 1.362 . S
C2271 H2261 0.930 . S
C2271 C2264 1.409 . S
C2271 C2270 1.362 . S
H2272 C2278 0.930 . S
H2273 C2281 0.930 . S
H2274 C2282 0.930 . S
H2275 C2283 0.930 . S
H2276 C2286 0.930 . S
H2277 C2287 0.930 . S
C2278 H2272 0.930 . S
C2278 C2279 1.355 . S
C2278 C2280 1.415 . S
C2279 C2278 1.355 . S
C2279 C2281 1.419 . S
C2280 C2278 1.415 . S
C2280 C2285 1.425 . S
C2280 C2287 1.409 . S
C2281 H2273 0.930 . S
C2281 C2279 1.419 . S
C2281 C2282 1.362 . S
C2282 H2274 0.930 . S
C2282 C2281 1.362 . S
C2282 C2285 1.409 . S
C2283 H2275 0.930 . S
C2283 C2284 1.355 . S
C2283 C2285 1.415 . S
C2284 C2283 1.355 . S
C2284 C2286 1.419 . S
C2285 C2280 1.425 . S
C2285 C2282 1.409 . S
C2285 C2283 1.415 . S
C2286 H2276 0.930 . S
C2286 C2284 1.419 . S
C2286 C2287 1.362 . S
C2287 H2277 0.930 . S
C2287 C2280 1.409 . S
C2287 C2286 1.362 . S
H2288 C2294 0.930 . S
H2289 C2297 0.930 . S
H2290 C2298 0.930 . S
H2291 C2299 0.930 . S
H2292 C2302 0.930 . S
H2293 C2303 0.930 . S
C2294 H2288 0.930 . S
C2294 C2295 1.355 . S
C2294 C2296 1.415 . S
C2295 C2294 1.355 . S
C2295 C2297 1.419 . S
C2296 C2294 1.415 . S
C2296 C2301 1.425 . S
C2296 C2303 1.409 . S
C2297 H2289 0.930 . S
C2297 C2295 1.419 . S
C2297 C2298 1.362 . S
C2298 H2290 0.930 . S
C2298 C2297 1.362 . S
C2298 C2301 1.409 . S
C2299 H2291 0.930 . S
C2299 C2300 1.355 . S
C2299 C2301 1.415 . S
C2300 C2299 1.355 . S
C2300 C2302 1.419 . S
C2301 C2296 1.425 . S
C2301 C2298 1.409 . S
C2301 C2299 1.415 . S
C2302 H2292 0.930 . S
C2302 C2300 1.419 . S
C2302 C2303 1.362 . S
C2303 H2293 0.930 . S
C2303 C2296 1.409 . S
C2303 C2302 1.362 . S
H2304 C2310 0.930 . S
H2305 C2313 0.930 . S
H2306 C2314 0.930 . S
H2307 C2315 0.930 . S
H2308 C2318 0.930 . S
H2309 C2319 0.930 . S
C2310 H2304 0.930 . S
C2310 C2311 1.355 . S
C2310 C2312 1.415 . S
C2311 C2310 1.355 . S
C2311 C2313 1.419 . S
C2312 C2310 1.415 . S
C2312 C2317 1.425 . S
C2312 C2319 1.409 . S
C2313 H2305 0.930 . S
C2313 C2311 1.419 . S
C2313 C2314 1.362 . S
C2314 H2306 0.930 . S
C2314 C2313 1.362 . S
C2314 C2317 1.409 . S
C2315 H2307 0.930 . S
C2315 C2316 1.355 . S
C2315 C2317 1.415 . S
C2316 C2315 1.355 . S
C2316 C2318 1.419 . S
C2317 C2312 1.425 . S
C2317 C2314 1.409 . S
C2317 C2315 1.415 . S
C2318 H2308 0.930 . S
C2318 C2316 1.419 . S
C2318 C2319 1.362 . S
C2319 H2309 0.930 . S
C2319 C2312 1.409 . S
C2319 C2318 1.362 . S
H2320 C2326 0.930 . S
H2321 C2329 0.930 . S
H2322 C2330 0.930 . S
H2323 C2331 0.930 . S
H2324 C2334 0.930 . S
H2325 C2335 0.930 . S
C2326 H2320 0.930 . S
C2326 C2327 1.355 . S
C2326 C2328 1.415 . S
C2327 C2326 1.355 . S
C2327 C2329 1.419 . S
C2328 C2326 1.415 . S
C2328 C2333 1.425 . S
C2328 C2335 1.409 . S
C2329 H2321 0.930 . S
C2329 C2327 1.419 . S
C2329 C2330 1.362 . S
C2330 H2322 0.930 . S
C2330 C2329 1.362 . S
C2330 C2333 1.409 . S
C2331 H2323 0.930 . S
C2331 C2332 1.355 . S
C2331 C2333 1.415 . S
C2332 C2331 1.355 . S
C2332 C2334 1.419 . S
C2333 C2328 1.425 . S
C2333 C2330 1.409 . S
C2333 C2331 1.415 . S
C2334 H2324 0.930 . S
C2334 C2332 1.419 . S
C2334 C2335 1.362 . S
C2335 H2325 0.930 . S
C2335 C2328 1.409 . S
C2335 C2334 1.362 . S
H2336 C2342 0.930 . S
H2337 C2345 0.930 . S
H2338 C2346 0.930 . S
H2339 C2347 0.930 . S
H2340 C2350 0.930 . S
H2341 C2351 0.930 . S
C2342 H2336 0.930 . S
C2342 C2343 1.355 . S
C2342 C2344 1.415 . S
C2343 C2342 1.355 . S
C2343 C2345 1.419 . S
C2344 C2342 1.415 . S
C2344 C2349 1.425 . S
C2344 C2351 1.409 . S
C2345 H2337 0.930 . S
C2345 C2343 1.419 . S
C2345 C2346 1.362 . S
C2346 H2338 0.930 . S
C2346 C2345 1.362 . S
C2346 C2349 1.409 . S
C2347 H2339 0.930 . S
C2347 C2348 1.355 . S
C2347 C2349 1.415 . S
C2348 C2347 1.355 . S
C2348 C2350 1.419 . S
C2349 C2344 1.425 . S
C2349 C2346 1.409 . S
C2349 C2347 1.415 . S
C2350 H2340 0.930 . S
C2350 C2348 1.419 . S
C2350 C2351 1.362 . S
C2351 H2341 0.930 . S
C2351 C2344 1.409 . S
C2351 C2350 1.362 . S
H2352 C2358 0.930 . S
H2353 C2361 0.930 . S
H2354 C2362 0.930 . S
H2355 C2363 0.930 . S
H2356 C2366 0.930 . S
H2357 C2367 0.930 . S
C2358 H2352 0.930 . S
C2358 C2359 1.355 . S
C2358 C2360 1.415 . S
C2359 C2358 1.355 . S
C2359 C2361 1.419 . S
C2360 C2358 1.415 . S
C2360 C2365 1.425 . S
C2360 C2367 1.409 . S
C2361 H2353 0.930 . S
C2361 C2359 1.419 . S
C2361 C2362 1.362 . S
C2362 H2354 0.930 . S
C2362 C2361 1.362 . S
C2362 C2365 1.409 . S
C2363 H2355 0.930 . S
C2363 C2364 1.355 . S
C2363 C2365 1.415 . S
C2364 C2363 1.355 . S
C2364 C2366 1.419 . S
C2365 C2360 1.425 . S
C2365 C2362 1.409 . S
C2365 C2363 1.415 . S
C2366 H2356 0.930 . S
C2366 C2364 1.419 . S
C2366 C2367 1.362 . S
C2367 H2357 0.930 . S
C2367 C2360 1.409 . S
C2367 C2366 1.362 . S
H2368 C2374 0.930 . S
H2369 C2377 0.930 . S
H2370 C2378 0.930 . S
H2371 C2379 0.930 . S
H2372 C2382 0.930 . S
H2373 C2383 0.930 . S
C2374 H2368 0.930 . S
C2374 C2375 1.355 . S
C2374 C2376 1.415 . S
C2375 C2374 1.355 . S
C2375 C2377 1.419 . S
C2376 C2374 1.415 . S
C2376 C2381 1.425 . S
C2376 C2383 1.409 . S
C2377 H2369 0.930 . S
C2377 C2375 1.419 . S
C2377 C2378 1.362 . S
C2378 H2370 0.930 . S
C2378 C2377 1.362 . S
C2378 C2381 1.409 . S
C2379 H2371 0.930 . S
C2379 C2380 1.355 . S
C2379 C2381 1.415 . S
C2380 C2379 1.355 . S
C2380 C2382 1.419 . S
C2381 C2376 1.425 . S
C2381 C2378 1.409 . S
C2381 C2379 1.415 . S
C2382 H2372 0.930 . S
C2382 C2380 1.419 . S
C2382 C2383 1.362 . S
C2383 H2373 0.930 . S
C2383 C2376 1.409 . S
C2383 C2382 1.362 . S
H2384 C2390 0.930 . S
H2385 C2393 0.930 . S
H2386 C2394 0.930 . S
H2387 C2395 0.930 . S
H2388 C2398 0.930 . S
H2389 C2399 0.930 . S
C2390 H2384 0.930 . S
C2390 C2391 1.355 . S
C2390 C2392 1.415 . S
C2391 C2390 1.355 . S
C2391 C2393 1.419 . S
C2392 C2390 1.415 . S
C2392 C2397 1.425 . S
C2392 C2399 1.409 . S
C2393 H2385 0.930 . S
C2393 C2391 1.419 . S
C2393 C2394 1.362 . S
C2394 H2386 0.930 . S
C2394 C2393 1.362 . S
C2394 C2397 1.409 . S
C2395 H2387 0.930 . S
C2395 C2396 1.355 . S
C2395 C2397 1.415 . S
C2396 C2395 1.355 . S
C2396 C2398 1.419 . S
C2397 C2392 1.425 . S
C2397 C2394 1.409 . S
C2397 C2395 1.415 . S
C2398 H2388 0.930 . S
C2398 C2396 1.419 . S
C2398 C2399 1.362 . S
C2399 H2389 0.930 . S
C2399 C2392 1.409 . S
C2399 C2398 1.362 . S
H2400 C2406 0.930 . S
H2401 C2409 0.930 . S
H2402 C2410 0.930 . S
H2403 C2411 0.930 . S
H2404 C2414 0.930 . S
H2405 C2415 0.930 . S
C2406 H2400 0.930 . S
C2406 C2407 1.355 . S
C2406 C2408 1.415 . S
C2407 C2406 1.355 . S
C2407 C2409 1.419 . S
C2408 C2406 1.415 . S
C2408 C2413 1.425 . S
C2408 C2415 1.409 . S
C2409 H2401 0.930 . S
C2409 C2407 1.419 . S
C2409 C2410 1.362 . S
C2410 H2402 0.930 . S
C2410 C2409 1.362 . S
C2410 C2413 1.409 . S
C2411 H2403 0.930 . S
C2411 C2412 1.355 . S
C2411 C2413 1.415 . S
C2412 C2411 1.355 . S
C2412 C2414 1.419 . S
C2413 C2408 1.425 . S
C2413 C2410 1.409 . S
C2413 C2411 1.415 . S
C2414 H2404 0.930 . S
C2414 C2412 1.419 . S
C2414 C2415 1.362 . S
C2415 H2405 0.930 . S
C2415 C2408 1.409 . S
C2415 C2414 1.362 . S
H2416 C2422 0.930 . S
H2417 C2425 0.930 . S
H2418 C2426 0.930 . S
H2419 C2427 0.930 . S
H2420 C2430 0.930 . S
H2421 C2431 0.930 . S
C2422 H2416 0.930 . S
C2422 C2423 1.355 . S
C2422 C2424 1.415 . S
C2423 C2422 1.355 . S
C2423 C2425 1.419 . S
C2424 C2422 1.415 . S
C2424 C2429 1.425 . S
C2424 C2431 1.409 . S
C2425 H2417 0.930 . S
C2425 C2423 1.419 . S
C2425 C2426 1.362 . S
C2426 H2418 0.930 . S
C2426 C2425 1.362 . S
C2426 C2429 1.409 . S
C2427 H2419 0.930 . S
C2427 C2428 1.355 . S
C2427 C2429 1.415 . S
C2428 C2427 1.355 . S
C2428 C2430 1.419 . S
C2429 C2424 1.425 . S
C2429 C2426 1.409 . S
C2429 C2427 1.415 . S
C2430 H2420 0.930 . S
C2430 C2428 1.419 . S
C2430 C2431 1.362 . S
C2431 H2421 0.930 . S
C2431 C2424 1.409 . S
C2431 C2430 1.362 . S
H2432 C2438 0.930 . S
H2433 C2441 0.930 . S
H2434 C2442 0.930 . S
H2435 C2443 0.930 . S
H2436 C2446 0.930 . S
H2437 C2447 0.930 . S
C2438 H2432 0.930 . S
C2438 C2439 1.355 . S
C2438 C2440 1.415 . S
C2439 C2438 1.355 . S
C2439 C2441 1.419 . S
C2440 C2438 1.415 . S
C2440 C2445 1.425 . S
C2440 C2447 1.409 . S
C2441 H2433 0.930 . S
C2441 C2439 1.419 . S
C2441 C2442 1.362 . S
C2442 H2434 0.930 . S
C2442 C2441 1.362 . S
C2442 C2445 1.409 . S
C2443 H2435 0.930 . S
C2443 C2444 1.355 . S
C2443 C2445 1.415 . S
C2444 C2443 1.355 . S
C2444 C2446 1.419 . S
C2445 C2440 1.425 . S
C2445 C2442 1.409 . S
C2445 C2443 1.415 . S
C2446 H2436 0.930 . S
C2446 C2444 1.419 . S
C2446 C2447 1.362 . S
C2447 H2437 0.930 . S
C2447 C2440 1.409 . S
C2447 C2446 1.362 . S
H2448 C2454 0.930 . S
H2449 C2457 0.930 . S
H2450 C2458 0.930 . S
H2451 C2459 0.930 . S
H2452 C2462 0.930 . S
H2453 C2463 0.930 . S
C2454 H2448 0.930 . S
C2454 C2455 1.355 . S
C2454 C2456 1.415 . S
C2455 C2454 1.355 . S
C2455 C2457 1.419 . S
C2456 C2454 1.415 . S
C2456 C2461 1.425 . S
C2456 C2463 1.409 . S
C2457 H2449 0.930 . S
C2457 C2455 1.419 . S
C2457 C2458 1.362 . S
C2458 H2450 0.930 . S
C2458 C2457 1.362 . S
C2458 C2461 1.409 . S
C2459 H2451 0.930 . S
C2459 C2460 1.355 . S
C2459 C2461 1.415 . S
C2460 C2459 1.355 . S
C2460 C2462 1.419 . S
C2461 C2456 1.425 . S
C2461 C2458 1.409 . S
C2461 C2459 1.415 . S
C2462 H2452 0.930 . S
C2462 C2460 1.419 . S
C2462 C2463 1.362 . S
C2463 H2453 0.930 . S
C2463 C2456 1.409 . S
C2463 C2462 1.362 . S
H2464 C2470 0.930 . S
H2465 C2473 0.930 . S
H2466 C2474 0.930 . S
H2467 C2475 0.930 . S
H2468 C2478 0.930 . S
H2469 C2479 0.930 . S
C2470 H2464 0.930 . S
C2470 C2471 1.355 . S
C2470 C2472 1.415 . S
C2471 C2470 1.355 . S
C2471 C2473 1.419 . S
C2472 C2470 1.415 . S
C2472 C2477 1.425 . S
C2472 C2479 1.409 . S
C2473 H2465 0.930 . S
C2473 C2471 1.419 . S
C2473 C2474 1.362 . S
C2474 H2466 0.930 . S
C2474 C2473 1.362 . S
C2474 C2477 1.409 . S
C2475 H2467 0.930 . S
C2475 C2476 1.355 . S
C2475 C2477 1.415 . S
C2476 C2475 1.355 . S
C2476 C2478 1.419 . S
C2477 C2472 1.425 . S
C2477 C2474 1.409 . S
C2477 C2475 1.415 . S
C2478 H2468 0.930 . S
C2478 C2476 1.419 . S
C2478 C2479 1.362 . S
C2479 H2469 0.930 . S
C2479 C2472 1.409 . S
C2479 C2478 1.362 . S
H2480 C2486 0.930 . S
H2481 C2489 0.930 . S
H2482 C2490 0.930 . S
H2483 C2491 0.930 . S
H2484 C2494 0.930 . S
H2485 C2495 0.930 . S
C2486 H2480 0.930 . S
C2486 C2487 1.355 . S
C2486 C2488 1.415 . S
C2487 C2486 1.355 . S
C2487 C2489 1.419 . S
C2488 C2486 1.415 . S
C2488 C2493 1.425 . S
C2488 C2495 1.409 . S
C2489 H2481 0.930 . S
C2489 C2487 1.419 . S
C2489 C2490 1.362 . S
C2490 H2482 0.930 . S
C2490 C2489 1.362 . S
C2490 C2493 1.409 . S
C2491 H2483 0.930 . S
C2491 C2492 1.355 . S
C2491 C2493 1.415 . S
C2492 C2491 1.355 . S
C2492 C2494 1.419 . S
C2493 C2488 1.425 . S
C2493 C2490 1.409 . S
C2493 C2491 1.415 . S
C2494 H2484 0.930 . S
C2494 C2492 1.419 . S
C2494 C2495 1.362 . S
C2495 H2485 0.930 . S
C2495 C2488 1.409 . S
C2495 C2494 1.362 . S
H2496 C2502 0.930 . S
H2497 C2505 0.930 . S
H2498 C2506 0.930 . S
H2499 C2507 0.930 . S
H2500 C2510 0.930 . S
H2501 C2511 0.930 . S
C2502 H2496 0.930 . S
C2502 C2503 1.355 . S
C2502 C2504 1.415 . S
C2503 C2502 1.355 . S
C2503 C2505 1.419 . S
C2504 C2502 1.415 . S
C2504 C2509 1.425 . S
C2504 C2511 1.409 . S
C2505 H2497 0.930 . S
C2505 C2503 1.419 . S
C2505 C2506 1.362 . S
C2506 H2498 0.930 . S
C2506 C2505 1.362 . S
C2506 C2509 1.409 . S
C2507 H2499 0.930 . S
C2507 C2508 1.355 . S
C2507 C2509 1.415 . S
C2508 C2507 1.355 . S
C2508 C2510 1.419 . S
C2509 C2504 1.425 . S
C2509 C2506 1.409 . S
C2509 C2507 1.415 . S
C2510 H2500 0.930 . S
C2510 C2508 1.419 . S
C2510 C2511 1.362 . S
C2511 H2501 0.930 . S
C2511 C2504 1.409 . S
C2511 C2510 1.362 . S
H2512 C2518 0.930 . S
H2513 C2521 0.930 . S
H2514 C2522 0.930 . S
H2515 C2523 0.930 . S
H2516 C2526 0.930 . S
H2517 C2527 0.930 . S
C2518 H2512 0.930 . S
C2518 C2519 1.355 . S
C2518 C2520 1.415 . S
C2519 C2518 1.355 . S
C2519 C2521 1.419 . S
C2520 C2518 1.415 . S
C2520 C2525 1.425 . S
C2520 C2527 1.409 . S
C2521 H2513 0.930 . S
C2521 C2519 1.419 . S
C2521 C2522 1.362 . S
C2522 H2514 0.930 . S
C2522 C2521 1.362 . S
C2522 C2525 1.409 . S
C2523 H2515 0.930 . S
C2523 C2524 1.355 . S
C2523 C2525 1.415 . S
C2524 C2523 1.355 . S
C2524 C2526 1.419 . S
C2525 C2520 1.425 . S
C2525 C2522 1.409 . S
C2525 C2523 1.415 . S
C2526 H2516 0.930 . S
C2526 C2524 1.419 . S
C2526 C2527 1.362 . S
C2527 H2517 0.930 . S
C2527 C2520 1.409 . S
C2527 C2526 1.362 . S
H2528 C2534 0.930 . S
H2529 C2537 0.930 . S
H2530 C2538 0.930 . S
H2531 C2539 0.930 . S
H2532 C2542 0.930 . S
H2533 C2543 0.930 . S
C2534 H2528 0.930 . S
C2534 C2535 1.355 . S
C2534 C2536 1.415 . S
C2535 C2534 1.355 . S
C2535 C2537 1.419 . S
C2536 C2534 1.415 . S
C2536 C2541 1.425 . S
C2536 C2543 1.409 . S
C2537 H2529 0.930 . S
C2537 C2535 1.419 . S
C2537 C2538 1.362 . S
C2538 H2530 0.930 . S
C2538 C2537 1.362 . S
C2538 C2541 1.409 . S
C2539 H2531 0.930 . S
C2539 C2540 1.355 . S
C2539 C2541 1.415 . S
C2540 C2539 1.355 . S
C2540 C2542 1.419 . S
C2541 C2536 1.425 . S
C2541 C2538 1.409 . S
C2541 C2539 1.415 . S
C2542 H2532 0.930 . S
C2542 C2540 1.419 . S
C2542 C2543 1.362 . S
C2543 H2533 0.930 . S
C2543 C2536 1.409 . S
C2543 C2542 1.362 . S
H2544 C2550 0.930 . S
H2545 C2553 0.930 . S
H2546 C2554 0.930 . S
H2547 C2555 0.930 . S
H2548 C2558 0.930 . S
H2549 C2559 0.930 . S
C2550 H2544 0.930 . S
C2550 C2551 1.355 . S
C2550 C2552 1.415 . S
C2551 C2550 1.355 . S
C2551 C2553 1.419 . S
C2552 C2550 1.415 . S
C2552 C2557 1.425 . S
C2552 C2559 1.409 . S
C2553 H2545 0.930 . S
C2553 C2551 1.419 . S
C2553 C2554 1.362 . S
C2554 H2546 0.930 . S
C2554 C2553 1.362 . S
C2554 C2557 1.409 . S
C2555 H2547 0.930 . S
C2555 C2556 1.355 . S
C2555 C2557 1.415 . S
C2556 C2555 1.355 . S
C2556 C2558 1.419 . S
C2557 C2552 1.425 . S
C2557 C2554 1.409 . S
C2557 C2555 1.415 . S
C2558 H2548 0.930 . S
C2558 C2556 1.419 . S
C2558 C2559 1.362 . S
C2559 H2549 0.930 . S
C2559 C2552 1.409 . S
C2559 C2558 1.362 . S
H2560 C2566 0.930 . S
H2561 C2569 0.930 . S
H2562 C2570 0.930 . S
H2563 C2571 0.930 . S
H2564 C2574 0.930 . S
H2565 C2575 0.930 . S
C2566 H2560 0.930 . S
C2566 C2567 1.355 . S
C2566 C2568 1.415 . S
C2567 C2566 1.355 . S
C2567 C2569 1.419 . S
C2568 C2566 1.415 . S
C2568 C2573 1.425 . S
C2568 C2575 1.409 . S
C2569 H2561 0.930 . S
C2569 C2567 1.419 . S
C2569 C2570 1.362 . S
C2570 H2562 0.930 . S
C2570 C2569 1.362 . S
C2570 C2573 1.409 . S
C2571 H2563 0.930 . S
C2571 C2572 1.355 . S
C2571 C2573 1.415 . S
C2572 C2571 1.355 . S
C2572 C2574 1.419 . S
C2573 C2568 1.425 . S
C2573 C2570 1.409 . S
C2573 C2571 1.415 . S
C2574 H2564 0.930 . S
C2574 C2572 1.419 . S
C2574 C2575 1.362 . S
C2575 H2565 0.930 . S
C2575 C2568 1.409 . S
C2575 C2574 1.362 . S
H2576 C2582 0.930 . S
H2577 C2585 0.930 . S
H2578 C2586 0.930 . S
H2579 C2587 0.930 . S
H2580 C2590 0.930 . S
H2581 C2591 0.930 . S
C2582 H2576 0.930 . S
C2582 C2583 1.355 . S
C2582 C2584 1.415 . S
C2583 C2582 1.355 . S
C2583 C2585 1.419 . S
C2584 C2582 1.415 . S
C2584 C2589 1.425 . S
C2584 C2591 1.409 . S
C2585 H2577 0.930 . S
C2585 C2583 1.419 . S
C2585 C2586 1.362 . S
C2586 H2578 0.930 . S
C2586 C2585 1.362 . S
C2586 C2589 1.409 . S
C2587 H2579 0.930 . S
C2587 C2588 1.355 . S
C2587 C2589 1.415 . S
C2588 C2587 1.355 . S
C2588 C2590 1.419 . S
C2589 C2584 1.425 . S
C2589 C2586 1.409 . S
C2589 C2587 1.415 . S
C2590 H2580 0.930 . S
C2590 C2588 1.419 . S
C2590 C2591 1.362 . S
C2591 H2581 0.930 . S
C2591 C2584 1.409 . S
C2591 C2590 1.362 . S
H2592 C2598 0.930 . S
H2593 C2601 0.930 . S
H2594 C2602 0.930 . S
H2595 C2603 0.930 . S
H2596 C2606 0.930 . S
H2597 C2607 0.930 . S
C2598 H2592 0.930 . S
C2598 C2599 1.355 . S
C2598 C2600 1.415 . S
C2599 C2598 1.355 . S
C2599 C2601 1.419 . S
C2600 C2598 1.415 . S
C2600 C2605 1.425 . S
C2600 C2607 1.409 . S
C2601 H2593 0.930 . S
C2601 C2599 1.419 . S
C2601 C2602 1.362 . S
C2602 H2594 0.930 . S
C2602 C2601 1.362 . S
C2602 C2605 1.409 . S
C2603 H2595 0.930 . S
C2603 C2604 1.355 . S
C2603 C2605 1.415 . S
C2604 C2603 1.355 . S
C2604 C2606 1.419 . S
C2605 C2600 1.425 . S
C2605 C2602 1.409 . S
C2605 C2603 1.415 . S
C2606 H2596 0.930 . S
C2606 C2604 1.419 . S
C2606 C2607 1.362 . S
C2607 H2597 0.930 . S
C2607 C2600 1.409 . S
C2607 C2606 1.362 . S
H2608 C2614 0.930 . S
H2609 C2617 0.930 . S
H2610 C2618 0.930 . S
H2611 C2619 0.930 . S
H2612 C2622 0.930 . S
H2613 C2623 0.930 . S
C2614 H2608 0.930 . S
C2614 C2615 1.355 . S
C2614 C2616 1.415 . S
C2615 C2614 1.355 . S
C2615 C2617 1.419 . S
C2616 C2614 1.415 . S
C2616 C2621 1.425 . S
C2616 C2623 1.409 . S
C2617 H2609 0.930 . S
C2617 C2615 1.419 . S
C2617 C2618 1.362 . S
C2618 H2610 0.930 . S
C2618 C2617 1.362 . S
C2618 C2621 1.409 . S
C2619 H2611 0.930 . S
C2619 C2620 1.355 . S
C2619 C2621 1.415 . S
C2620 C2619 1.355 . S
C2620 C2622 1.419 . S
C2621 C2616 1.425 . S
C2621 C2618 1.409 . S
C2621 C2619 1.415 . S
C2622 H2612 0.930 . S
C2622 C2620 1.419 . S
C2622 C2623 1.362 . S
C2623 H2613 0.930 . S
C2623 C2616 1.409 . S
C2623 C2622 1.362 . S
H2624 C2630 0.930 . S
H2625 C2633 0.930 . S
H2626 C2634 0.930 . S
H2627 C2635 0.930 . S
H2628 C2638 0.930 . S
H2629 C2639 0.930 . S
C2630 H2624 0.930 . S
C2630 C2631 1.355 . S
C2630 C2632 1.415 . S
C2631 C2630 1.355 . S
C2631 C2633 1.419 . S
C2632 C2630 1.415 . S
C2632 C2637 1.425 . S
C2632 C2639 1.409 . S
C2633 H2625 0.930 . S
C2633 C2631 1.419 . S
C2633 C2634 1.362 . S
C2634 H2626 0.930 . S
C2634 C2633 1.362 . S
C2634 C2637 1.409 . S
C2635 H2627 0.930 . S
C2635 C2636 1.355 . S
C2635 C2637 1.415 . S
C2636 C2635 1.355 . S
C2636 C2638 1.419 . S
C2637 C2632 1.425 . S
C2637 C2634 1.409 . S
C2637 C2635 1.415 . S
C2638 H2628 0.930 . S
C2638 C2636 1.419 . S
C2638 C2639 1.362 . S
C2639 H2629 0.930 . S
C2639 C2632 1.409 . S
C2639 C2638 1.362 . S
H2640 C2646 0.930 . S
H2641 C2649 0.930 . S
H2642 C2650 0.930 . S
H2643 C2651 0.930 . S
H2644 C2654 0.930 . S
H2645 C2655 0.930 . S
C2646 H2640 0.930 . S
C2646 C2647 1.355 . S
C2646 C2648 1.415 . S
C2647 C2646 1.355 . S
C2647 C2649 1.419 . S
C2648 C2646 1.415 . S
C2648 C2653 1.425 . S
C2648 C2655 1.409 . S
C2649 H2641 0.930 . S
C2649 C2647 1.419 . S
C2649 C2650 1.362 . S
C2650 H2642 0.930 . S
C2650 C2649 1.362 . S
C2650 C2653 1.409 . S
C2651 H2643 0.930 . S
C2651 C2652 1.355 . S
C2651 C2653 1.415 . S
C2652 C2651 1.355 . S
C2652 C2654 1.419 . S
C2653 C2648 1.425 . S
C2653 C2650 1.409 . S
C2653 C2651 1.415 . S
C2654 H2644 0.930 . S
C2654 C2652 1.419 . S
C2654 C2655 1.362 . S
C2655 H2645 0.930 . S
C2655 C2648 1.409 . S
C2655 C2654 1.362 . S
H2656 C2662 0.930 . S
H2657 C2665 0.930 . S
H2658 C2666 0.930 . S
H2659 C2667 0.930 . S
H2660 C2670 0.930 . S
H2661 C2671 0.930 . S
C2662 H2656 0.930 . S
C2662 C2663 1.355 . S
C2662 C2664 1.415 . S
C2663 C2662 1.355 . S
C2663 C2665 1.419 . S
C2664 C2662 1.415 . S
C2664 C2669 1.425 . S
C2664 C2671 1.409 . S
C2665 H2657 0.930 . S
C2665 C2663 1.419 . S
C2665 C2666 1.362 . S
C2666 H2658 0.930 . S
C2666 C2665 1.362 . S
C2666 C2669 1.409 . S
C2667 H2659 0.930 . S
C2667 C2668 1.355 . S
C2667 C2669 1.415 . S
C2668 C2667 1.355 . S
C2668 C2670 1.419 . S
C2669 C2664 1.425 . S
C2669 C2666 1.409 . S
C2669 C2667 1.415 . S
C2670 H2660 0.930 . S
C2670 C2668 1.419 . S
C2670 C2671 1.362 . S
C2671 H2661 0.930 . S
C2671 C2664 1.409 . S
C2671 C2670 1.362 . S
H2672 C2678 0.930 . S
H2673 C2681 0.930 . S
H2674 C2682 0.930 . S
H2675 C2683 0.930 . S
H2676 C2686 0.930 . S
H2677 C2687 0.930 . S
C2678 H2672 0.930 . S
C2678 C2679 1.355 . S
C2678 C2680 1.415 . S
C2679 C2678 1.355 . S
C2679 C2681 1.419 . S
C2680 C2678 1.415 . S
C2680 C2685 1.425 . S
C2680 C2687 1.409 . S
C2681 H2673 0.930 . S
C2681 C2679 1.419 . S
C2681 C2682 1.362 . S
C2682 H2674 0.930 . S
C2682 C2681 1.362 . S
C2682 C2685 1.409 . S
C2683 H2675 0.930 . S
C2683 C2684 1.355 . S
C2683 C2685 1.415 . S
C2684 C2683 1.355 . S
C2684 C2686 1.419 . S
C2685 C2680 1.425 . S
C2685 C2682 1.409 . S
C2685 C2683 1.415 . S
C2686 H2676 0.930 . S
C2686 C2684 1.419 . S
C2686 C2687 1.362 . S
C2687 H2677 0.930 . S
C2687 C2680 1.409 . S
C2687 C2686 1.362 . S
H2688 C2694 0.930 . S
H2689 C2697 0.930 . S
H2690 C2698 0.930 . S
H2691 C2699 0.930 . S
H2692 C2702 0.930 . S
H2693 C2703 0.930 . S
C2694 H2688 0.930 . S
C2694 C2695 1.355 . S
C2694 C2696 1.415 . S
C2695 C2694 1.355 . S
C2695 C2697 1.419 . S
C2696 C2694 1.415 . S
C2696 C2701 1.425 . S
C2696 C2703 1.409 . S
C2697 H2689 0.930 . S
C2697 C2695 1.419 . S
C2697 C2698 1.362 . S
C2698 H2690 0.930 . S
C2698 C2697 1.362 . S
C2698 C2701 1.409 . S
C2699 H2691 0.930 . S
C2699 C2700 1.355 . S
C2699 C2701 1.415 . S
C2700 C2699 1.355 . S
C2700 C2702 1.419 . S
C2701 C2696 1.425 . S
C2701 C2698 1.409 . S
C2701 C2699 1.415 . S
C2702 H2692 0.930 . S
C2702 C2700 1.419 . S
C2702 C2703 1.362 . S
C2703 H2693 0.930 . S
C2703 C2696 1.409 . S
C2703 C2702 1.362 . S
H2704 C2710 0.930 . S
H2705 C2713 0.930 . S
H2706 C2714 0.930 . S
H2707 C2715 0.930 . S
H2708 C2718 0.930 . S
H2709 C2719 0.930 . S
C2710 H2704 0.930 . S
C2710 C2711 1.355 . S
C2710 C2712 1.415 . S
C2711 C2710 1.355 . S
C2711 C2713 1.419 . S
C2712 C2710 1.415 . S
C2712 C2717 1.425 . S
C2712 C2719 1.409 . S
C2713 H2705 0.930 . S
C2713 C2711 1.419 . S
C2713 C2714 1.362 . S
C2714 H2706 0.930 . S
C2714 C2713 1.362 . S
C2714 C2717 1.409 . S
C2715 H2707 0.930 . S
C2715 C2716 1.355 . S
C2715 C2717 1.415 . S
C2716 C2715 1.355 . S
C2716 C2718 1.419 . S
C2717 C2712 1.425 . S
C2717 C2714 1.409 . S
C2717 C2715 1.415 . S
C2718 H2708 0.930 . S
C2718 C2716 1.419 . S
C2718 C2719 1.362 . S
C2719 H2709 0.930 . S
C2719 C2712 1.409 . S
C2719 C2718 1.362 . S
H2720 C2726 0.930 . S
H2721 C2729 0.930 . S
H2722 C2730 0.930 . S
H2723 C2731 0.930 . S
H2724 C2734 0.930 . S
H2725 C2735 0.930 . S
C2726 H2720 0.930 . S
C2726 C2727 1.355 . S
C2726 C2728 1.415 . S
C2727 C2726 1.355 . S
C2727 C2729 1.419 . S
C2728 C2726 1.415 . S
C2728 C2733 1.425 . S
C2728 C2735 1.409 . S
C2729 H2721 0.930 . S
C2729 C2727 1.419 . S
C2729 C2730 1.362 . S
C2730 H2722 0.930 . S
C2730 C2729 1.362 . S
C2730 C2733 1.409 . S
C2731 H2723 0.930 . S
C2731 C2732 1.355 . S
C2731 C2733 1.415 . S
C2732 C2731 1.355 . S
C2732 C2734 1.419 . S
C2733 C2728 1.425 . S
C2733 C2730 1.409 . S
C2733 C2731 1.415 . S
C2734 H2724 0.930 . S
C2734 C2732 1.419 . S
C2734 C2735 1.362 . S
C2735 H2725 0.930 . S
C2735 C2728 1.409 . S
C2735 C2734 1.362 . S
H2736 C2742 0.930 . S
H2737 C2745 0.930 . S
H2738 C2746 0.930 . S
H2739 C2747 0.930 . S
H2740 C2750 0.930 . S
H2741 C2751 0.930 . S
C2742 H2736 0.930 . S
C2742 C2743 1.355 . S
C2742 C2744 1.415 . S
C2743 C2742 1.355 . S
C2743 C2745 1.419 . S
C2744 C2742 1.415 . S
C2744 C2749 1.425 . S
C2744 C2751 1.409 . S
C2745 H2737 0.930 . S
C2745 C2743 1.419 . S
C2745 C2746 1.362 . S
C2746 H2738 0.930 . S
C2746 C2745 1.362 . S
C2746 C2749 1.409 . S
C2747 H2739 0.930 . S
C2747 C2748 1.355 . S
C2747 C2749 1.415 . S
C2748 C2747 1.355 . S
C2748 C2750 1.419 . S
C2749 C2744 1.425 . S
C2749 C2746 1.409 . S
C2749 C2747 1.415 . S
C2750 H2740 0.930 . S
C2750 C2748 1.419 . S
C2750 C2751 1.362 . S
C2751 H2741 0.930 . S
C2751 C2744 1.409 . S
C2751 C2750 1.362 . S
H2752 C2758 0.930 . S
H2753 C2761 0.930 . S
H2754 C2762 0.930 . S
H2755 C2763 0.930 . S
H2756 C2766 0.930 . S
H2757 C2767 0.930 . S
C2758 H2752 0.930 . S
C2758 C2759 1.355 . S
C2758 C2760 1.415 . S
C2759 C2758 1.355 . S
C2759 C2761 1.419 . S
C2760 C2758 1.415 . S
C2760 C2765 1.425 . S
C2760 C2767 1.409 . S
C2761 H2753 0.930 . S
C2761 C2759 1.419 . S
C2761 C2762 1.362 . S
C2762 H2754 0.930 . S
C2762 C2761 1.362 . S
C2762 C2765 1.409 . S
C2763 H2755 0.930 . S
C2763 C2764 1.355 . S
C2763 C2765 1.415 . S
C2764 C2763 1.355 . S
C2764 C2766 1.419 . S
C2765 C2760 1.425 . S
C2765 C2762 1.409 . S
C2765 C2763 1.415 . S
C2766 H2756 0.930 . S
C2766 C2764 1.419 . S
C2766 C2767 1.362 . S
C2767 H2757 0.930 . S
C2767 C2760 1.409 . S
C2767 C2766 1.362 . S
H2768 C2774 0.930 . S
H2769 C2777 0.930 . S
H2770 C2778 0.930 . S
H2771 C2779 0.930 . S
H2772 C2782 0.930 . S
H2773 C2783 0.930 . S
C2774 H2768 0.930 . S
C2774 C2775 1.355 . S
C2774 C2776 1.415 . S
C2775 C2774 1.355 . S
C2775 C2777 1.419 . S
C2776 C2774 1.415 . S
C2776 C2781 1.425 . S
C2776 C2783 1.409 . S
C2777 H2769 0.930 . S
C2777 C2775 1.419 . S
C2777 C2778 1.362 . S
C2778 H2770 0.930 . S
C2778 C2777 1.362 . S
C2778 C2781 1.409 . S
C2779 H2771 0.930 . S
C2779 C2780 1.355 . S
C2779 C2781 1.415 . S
C2780 C2779 1.355 . S
C2780 C2782 1.419 . S
C2781 C2776 1.425 . S
C2781 C2778 1.409 . S
C2781 C2779 1.415 . S
C2782 H2772 0.930 . S
C2782 C2780 1.419 . S
C2782 C2783 1.362 . S
C2783 H2773 0.930 . S
C2783 C2776 1.409 . S
C2783 C2782 1.362 . S
H2784 C2790 0.930 . S
H2785 C2793 0.930 . S
H2786 C2794 0.930 . S
H2787 C2795 0.930 . S
H2788 C2798 0.930 . S
H2789 C2799 0.930 . S
C2790 H2784 0.930 . S
C2790 C2791 1.355 . S
C2790 C2792 1.415 . S
C2791 C2790 1.355 . S
C2791 C2793 1.419 . S
C2792 C2790 1.415 . S
C2792 C2797 1.425 . S
C2792 C2799 1.409 . S
C2793 H2785 0.930 . S
C2793 C2791 1.419 . S
C2793 C2794 1.362 . S
C2794 H2786 0.930 . S
C2794 C2793 1.362 . S
C2794 C2797 1.409 . S
C2795 H2787 0.930 . S
C2795 C2796 1.355 . S
C2795 C2797 1.415 . S
C2796 C2795 1.355 . S
C2796 C2798 1.419 . S
C2797 C2792 1.425 . S
C2797 C2794 1.409 . S
C2797 C2795 1.415 . S
C2798 H2788 0.930 . S
C2798 C2796 1.419 . S
C2798 C2799 1.362 . S
C2799 H2789 0.930 . S
C2799 C2792 1.409 . S
C2799 C2798 1.362 . S
H2800 C2806 0.930 . S
H2801 C2809 0.930 . S
H2802 C2810 0.930 . S
H2803 C2811 0.930 . S
H2804 C2814 0.930 . S
H2805 C2815 0.930 . S
C2806 H2800 0.930 . S
C2806 C2807 1.355 . S
C2806 C2808 1.415 . S
C2807 C2806 1.355 . S
C2807 C2809 1.419 . S
C2808 C2806 1.415 . S
C2808 C2813 1.425 . S
C2808 C2815 1.409 . S
C2809 H2801 0.930 . S
C2809 C2807 1.419 . S
C2809 C2810 1.362 . S
C2810 H2802 0.930 . S
C2810 C2809 1.362 . S
C2810 C2813 1.409 . S
C2811 H2803 0.930 . S
C2811 C2812 1.355 . S
C2811 C2813 1.415 . S
C2812 C2811 1.355 . S
C2812 C2814 1.419 . S
C2813 C2808 1.425 . S
C2813 C2810 1.409 . S
C2813 C2811 1.415 . S
C2814 H2804 0.930 . S
C2814 C2812 1.419 . S
C2814 C2815 1.362 . S
C2815 H2805 0.930 . S
C2815 C2808 1.409 . S
C2815 C2814 1.362 . S
H2816 C2822 0.930 . S
H2817 C2825 0.930 . S
H2818 C2826 0.930 . S
H2819 C2827 0.930 . S
H2820 C2830 0.930 . S
H2821 C2831 0.930 . S
C2822 H2816 0.930 . S
C2822 C2823 1.355 . S
C2822 C2824 1.415 . S
C2823 C2822 1.355 . S
C2823 C2825 1.419 . S
C2824 C2822 1.415 . S
C2824 C2829 1.425 . S
C2824 C2831 1.409 . S
C2825 H2817 0.930 . S
C2825 C2823 1.419 . S
C2825 C2826 1.362 . S
C2826 H2818 0.930 . S
C2826 C2825 1.362 . S
C2826 C2829 1.409 . S
C2827 H2819 0.930 . S
C2827 C2828 1.355 . S
C2827 C2829 1.415 . S
C2828 C2827 1.355 . S
C2828 C2830 1.419 . S
C2829 C2824 1.425 . S
C2829 C2826 1.409 . S
C2829 C2827 1.415 . S
C2830 H2820 0.930 . S
C2830 C2828 1.419 . S
C2830 C2831 1.362 . S
C2831 H2821 0.930 . S
C2831 C2824 1.409 . S
C2831 C2830 1.362 . S
H2832 C2838 0.930 . S
H2833 C2841 0.930 . S
H2834 C2842 0.930 . S
H2835 C2843 0.930 . S
H2836 C2846 0.930 . S
H2837 C2847 0.930 . S
C2838 H2832 0.930 . S
C2838 C2839 1.355 . S
C2838 C2840 1.415 . S
C2839 C2838 1.355 . S
C2839 C2841 1.419 . S
C2840 C2838 1.415 . S
C2840 C2845 1.425 . S
C2840 C2847 1.409 . S
C2841 H2833 0.930 . S
C2841 C2839 1.419 . S
C2841 C2842 1.362 . S
C2842 H2834 0.930 . S
C2842 C2841 1.362 . S
C2842 C2845 1.409 . S
C2843 H2835 0.930 . S
C2843 C2844 1.355 . S
C2843 C2845 1.415 . S
C2844 C2843 1.355 . S
C2844 C2846 1.419 . S
C2845 C2840 1.425 . S
C2845 C2842 1.409 . S
C2845 C2843 1.415 . S
C2846 H2836 0.930 . S
C2846 C2844 1.419 . S
C2846 C2847 1.362 . S
C2847 H2837 0.930 . S
C2847 C2840 1.409 . S
C2847 C2846 1.362 . S
H2848 C2854 0.930 . S
H2849 C2857 0.930 . S
H2850 C2858 0.930 . S
H2851 C2859 0.930 . S
H2852 C2862 0.930 . S
H2853 C2863 0.930 . S
C2854 H2848 0.930 . S
C2854 C2855 1.355 . S
C2854 C2856 1.415 . S
C2855 C2854 1.355 . S
C2855 C2857 1.419 . S
C2856 C2854 1.415 . S
C2856 C2861 1.425 . S
C2856 C2863 1.409 . S
C2857 H2849 0.930 . S
C2857 C2855 1.419 . S
C2857 C2858 1.362 . S
C2858 H2850 0.930 . S
C2858 C2857 1.362 . S
C2858 C2861 1.409 . S
C2859 H2851 0.930 . S
C2859 C2860 1.355 . S
C2859 C2861 1.415 . S
C2860 C2859 1.355 . S
C2860 C2862 1.419 . S
C2861 C2856 1.425 . S
C2861 C2858 1.409 . S
C2861 C2859 1.415 . S
C2862 H2852 0.930 . S
C2862 C2860 1.419 . S
C2862 C2863 1.362 . S
C2863 H2853 0.930 . S
C2863 C2856 1.409 . S
C2863 C2862 1.362 . S
H2864 C2870 0.930 . S
H2865 C2873 0.930 . S
H2866 C2874 0.930 . S
H2867 C2875 0.930 . S
H2868 C2878 0.930 . S
H2869 C2879 0.930 . S
C2870 H2864 0.930 . S
C2870 C2871 1.355 . S
C2870 C2872 1.415 . S
C2871 C2870 1.355 . S
C2871 C2873 1.419 . S
C2872 C2870 1.415 . S
C2872 C2877 1.425 . S
C2872 C2879 1.409 . S
C2873 H2865 0.930 . S
C2873 C2871 1.419 . S
C2873 C2874 1.362 . S
C2874 H2866 0.930 . S
C2874 C2873 1.362 . S
C2874 C2877 1.409 . S
C2875 H2867 0.930 . S
C2875 C2876 1.355 . S
C2875 C2877 1.415 . S
C2876 C2875 1.355 . S
C2876 C2878 1.419 . S
C2877 C2872 1.425 . S
C2877 C2874 1.409 . S
C2877 C2875 1.415 . S
C2878 H2868 0.930 . S
C2878 C2876 1.419 . S
C2878 C2879 1.362 . S
C2879 H2869 0.930 . S
C2879 C2872 1.409 . S
C2879 C2878 1.362 . S
H2880 C2886 0.930 . S
H2881 C2889 0.930 . S
H2882 C2890 0.930 . S
H2883 C2891 0.930 . S
H2884 C2894 0.930 . S
H2885 C2895 0.930 . S
C2886 H2880 0.930 . S
C2886 C2887 1.355 . S
C2886 C2888 1.415 . S
C2887 C2886 1.355 . S
C2887 C2889 1.419 . S
C2888 C2886 1.415 . S
C2888 C2893 1.425 . S
C2888 C2895 1.409 . S
C2889 H2881 0.930 . S
C2889 C2887 1.419 . S
C2889 C2890 1.362 . S
C2890 H2882 0.930 . S
C2890 C2889 1.362 . S
C2890 C2893 1.409 . S
C2891 H2883 0.930 . S
C2891 C2892 1.355 . S
C2891 C2893 1.415 . S
C2892 C2891 1.355 . S
C2892 C2894 1.419 . S
C2893 C2888 1.425 . S
C2893 C2890 1.409 . S
C2893 C2891 1.415 . S
C2894 H2884 0.930 . S
C2894 C2892 1.419 . S
C2894 C2895 1.362 . S
C2895 H2885 0.930 . S
C2895 C2888 1.409 . S
C2895 C2894 1.362 . S
H2896 C2902 0.930 . S
H2897 C2905 0.930 . S
H2898 C2906 0.930 . S
H2899 C2907 0.930 . S
H2900 C2910 0.930 . S
H2901 C2911 0.930 . S
C2902 H2896 0.930 . S
C2902 C2903 1.355 . S
C2902 C2904 1.415 . S
C2903 C2902 1.355 . S
C2903 C2905 1.419 . S
C2904 C2902 1.415 . S
C2904 C2909 1.425 . S
C2904 C2911 1.409 . S
C2905 H2897 0.930 . S
C2905 C2903 1.419 . S
C2905 C2906 1.362 . S
C2906 H2898 0.930 . S
C2906 C2905 1.362 . S
C2906 C2909 1.409 . S
C2907 H2899 0.930 . S
C2907 C2908 1.355 . S
C2907 C2909 1.415 . S
C2908 C2907 1.355 . S
C2908 C2910 1.419 . S
C2909 C2904 1.425 . S
C2909 C2906 1.409 . S
C2909 C2907 1.415 . S
C2910 H2900 0.930 . S
C2910 C2908 1.419 . S
C2910 C2911 1.362 . S
C2911 H2901 0.930 . S
C2911 C2904 1.409 . S
C2911 C2910 1.362 . S
H2912 C2918 0.930 . S
H2913 C2921 0.930 . S
H2914 C2922 0.930 . S
H2915 C2923 0.930 . S
H2916 C2926 0.930 . S
H2917 C2927 0.930 . S
C2918 H2912 0.930 . S
C2918 C2919 1.355 . S
C2918 C2920 1.415 . S
C2919 C2918 1.355 . S
C2919 C2921 1.419 . S
C2920 C2918 1.415 . S
C2920 C2925 1.425 . S
C2920 C2927 1.409 . S
C2921 H2913 0.930 . S
C2921 C2919 1.419 . S
C2921 C2922 1.362 . S
C2922 H2914 0.930 . S
C2922 C2921 1.362 . S
C2922 C2925 1.409 . S
C2923 H2915 0.930 . S
C2923 C2924 1.355 . S
C2923 C2925 1.415 . S
C2924 C2923 1.355 . S
C2924 C2926 1.419 . S
C2925 C2920 1.425 . S
C2925 C2922 1.409 . S
C2925 C2923 1.415 . S
C2926 H2916 0.930 . S
C2926 C2924 1.419 . S
C2926 C2927 1.362 . S
C2927 H2917 0.930 . S
C2927 C2920 1.409 . S
C2927 C2926 1.362 . S
H2928 C2934 0.930 . S
H2929 C2937 0.930 . S
H2930 C2938 0.930 . S
H2931 C2939 0.930 . S
H2932 C2942 0.930 . S
H2933 C2943 0.930 . S
C2934 H2928 0.930 . S
C2934 C2935 1.355 . S
C2934 C2936 1.415 . S
C2935 C2934 1.355 . S
C2935 C2937 1.419 . S
C2936 C2934 1.415 . S
C2936 C2941 1.425 . S
C2936 C2943 1.409 . S
C2937 H2929 0.930 . S
C2937 C2935 1.419 . S
C2937 C2938 1.362 . S
C2938 H2930 0.930 . S
C2938 C2937 1.362 . S
C2938 C2941 1.409 . S
C2939 H2931 0.930 . S
C2939 C2940 1.355 . S
C2939 C2941 1.415 . S
C2940 C2939 1.355 . S
C2940 C2942 1.419 . S
C2941 C2936 1.425 . S
C2941 C2938 1.409 . S
C2941 C2939 1.415 . S
C2942 H2932 0.930 . S
C2942 C2940 1.419 . S
C2942 C2943 1.362 . S
C2943 H2933 0.930 . S
C2943 C2936 1.409 . S
C2943 C2942 1.362 . S
H2944 C2950 0.930 . S
H2945 C2953 0.930 . S
H2946 C2954 0.930 . S
H2947 C2955 0.930 . S
H2948 C2958 0.930 . S
H2949 C2959 0.930 . S
C2950 H2944 0.930 . S
C2950 C2951 1.355 . S
C2950 C2952 1.415 . S
C2951 C2950 1.355 . S
C2951 C2953 1.419 . S
C2952 C2950 1.415 . S
C2952 C2957 1.425 . S
C2952 C2959 1.409 . S
C2953 H2945 0.930 . S
C2953 C2951 1.419 . S
C2953 C2954 1.362 . S
C2954 H2946 0.930 . S
C2954 C2953 1.362 . S
C2954 C2957 1.409 . S
C2955 H2947 0.930 . S
C2955 C2956 1.355 . S
C2955 C2957 1.415 . S
C2956 C2955 1.355 . S
C2956 C2958 1.419 . S
C2957 C2952 1.425 . S
C2957 C2954 1.409 . S
C2957 C2955 1.415 . S
C2958 H2948 0.930 . S
C2958 C2956 1.419 . S
C2958 C2959 1.362 . S
C2959 H2949 0.930 . S
C2959 C2952 1.409 . S
C2959 C2958 1.362 . S
H2960 C2966 0.930 . S
H2961 C2969 0.930 . S
H2962 C2970 0.930 . S
H2963 C2971 0.930 . S
H2964 C2974 0.930 . S
H2965 C2975 0.930 . S
C2966 H2960 0.930 . S
C2966 C2967 1.355 . S
C2966 C2968 1.415 . S
C2967 C2966 1.355 . S
C2967 C2969 1.419 . S
C2968 C2966 1.415 . S
C2968 C2973 1.425 . S
C2968 C2975 1.409 . S
C2969 H2961 0.930 . S
C2969 C2967 1.419 . S
C2969 C2970 1.362 . S
C2970 H2962 0.930 . S
C2970 C2969 1.362 . S
C2970 C2973 1.409 . S
C2971 H2963 0.930 . S
C2971 C2972 1.355 . S
C2971 C2973 1.415 . S
C2972 C2971 1.355 . S
C2972 C2974 1.419 . S
C2973 C2968 1.425 . S
C2973 C2970 1.409 . S
C2973 C2971 1.415 . S
C2974 H2964 0.930 . S
C2974 C2972 1.419 . S
C2974 C2975 1.362 . S
C2975 H2965 0.930 . S
C2975 C2968 1.409 . S
C2975 C2974 1.362 . S
H2976 C2982 0.930 . S
H2977 C2985 0.930 . S
H2978 C2986 0.930 . S
H2979 C2987 0.930 . S
H2980 C2990 0.930 . S
H2981 C2991 0.930 . S
C2982 H2976 0.930 . S
C2982 C2983 1.355 . S
C2982 C2984 1.415 . S
C2983 C2982 1.355 . S
C2983 C2985 1.419 . S
C2984 C2982 1.415 . S
C2984 C2989 1.425 . S
C2984 C2991 1.409 . S
C2985 H2977 0.930 . S
C2985 C2983 1.419 . S
C2985 C2986 1.362 . S
C2986 H2978 0.930 . S
C2986 C2985 1.362 . S
C2986 C2989 1.409 . S
C2987 H2979 0.930 . S
C2987 C2988 1.355 . S
C2987 C2989 1.415 . S
C2988 C2987 1.355 . S
C2988 C2990 1.419 . S
C2989 C2984 1.425 . S
C2989 C2986 1.409 . S
C2989 C2987 1.415 . S
C2990 H2980 0.930 . S
C2990 C2988 1.419 . S
C2990 C2991 1.362 . S
C2991 H2981 0.930 . S
C2991 C2984 1.409 . S
C2991 C2990 1.362 . S
H2992 C2998 0.930 . S
H2993 C3001 0.930 . S
H2994 C3002 0.930 . S
H2995 C3003 0.930 . S
H2996 C3006 0.930 . S
H2997 C3007 0.930 . S
C2998 H2992 0.930 . S
C2998 C2999 1.355 . S
C2998 C3000 1.415 . S
C2999 C2998 1.355 . S
C2999 C3001 1.419 . S
C3000 C2998 1.415 . S
C3000 C3005 1.425 . S
C3000 C3007 1.409 . S
C3001 H2993 0.930 . S
C3001 C2999 1.419 . S
C3001 C3002 1.362 . S
C3002 H2994 0.930 . S
C3002 C3001 1.362 . S
C3002 C3005 1.409 . S
C3003 H2995 0.930 . S
C3003 C3004 1.355 . S
C3003 C3005 1.415 . S
C3004 C3003 1.355 . S
C3004 C3006 1.419 . S
C3005 C3000 1.425 . S
C3005 C3002 1.409 . S
C3005 C3003 1.415 . S
C3006 H2996 0.930 . S
C3006 C3004 1.419 . S
C3006 C3007 1.362 . S
C3007 H2997 0.930 . S
C3007 C3000 1.409 . S
C3007 C3006 1.362 . S
H3008 C3014 0.930 . S
H3009 C3017 0.930 . S
H3010 C3018 0.930 . S
H3011 C3019 0.930 . S
H3012 C3022 0.930 . S
H3013 C3023 0.930 . S
C3014 H3008 0.930 . S
C3014 C3015 1.355 . S
C3014 C3016 1.415 . S
C3015 C3014 1.355 . S
C3015 C3017 1.419 . S
C3016 C3014 1.415 . S
C3016 C3021 1.425 . S
C3016 C3023 1.409 . S
C3017 H3009 0.930 . S
C3017 C3015 1.419 . S
C3017 C3018 1.362 . S
C3018 H3010 0.930 . S
C3018 C3017 1.362 . S
C3018 C3021 1.409 . S
C3019 H3011 0.930 . S
C3019 C3020 1.355 . S
C3019 C3021 1.415 . S
C3020 C3019 1.355 . S
C3020 C3022 1.419 . S
C3021 C3016 1.425 . S
C3021 C3018 1.409 . S
C3021 C3019 1.415 . S
C3022 H3012 0.930 . S
C3022 C3020 1.419 . S
C3022 C3023 1.362 . S
C3023 H3013 0.930 . S
C3023 C3016 1.409 . S
C3023 C3022 1.362 . S
H3024 C3030 0.930 . S
H3025 C3033 0.930 . S
H3026 C3034 0.930 . S
H3027 C3035 0.930 . S
H3028 C3038 0.930 . S
H3029 C3039 0.930 . S
C3030 H3024 0.930 . S
C3030 C3031 1.355 . S
C3030 C3032 1.415 . S
C3031 C3030 1.355 . S
C3031 C3033 1.419 . S
C3032 C3030 1.415 . S
C3032 C3037 1.425 . S
C3032 C3039 1.409 . S
C3033 H3025 0.930 . S
C3033 C3031 1.419 . S
C3033 C3034 1.362 . S
C3034 H3026 0.930 . S
C3034 C3033 1.362 . S
C3034 C3037 1.409 . S
C3035 H3027 0.930 . S
C3035 C3036 1.355 . S
C3035 C3037 1.415 . S
C3036 C3035 1.355 . S
C3036 C3038 1.419 . S
C3037 C3032 1.425 . S
C3037 C3034 1.409 . S
C3037 C3035 1.415 . S
C3038 H3028 0.930 . S
C3038 C3036 1.419 . S
C3038 C3039 1.362 . S
C3039 H3029 0.930 . S
C3039 C3032 1.409 . S
C3039 C3038 1.362 . S
H3040 C3046 0.930 . S
H3041 C3049 0.930 . S
H3042 C3050 0.930 . S
H3043 C3051 0.930 . S
H3044 C3054 0.930 . S
H3045 C3055 0.930 . S
C3046 H3040 0.930 . S
C3046 C3047 1.355 . S
C3046 C3048 1.415 . S
C3047 C3046 1.355 . S
C3047 C3049 1.419 . S
C3048 C3046 1.415 . S
C3048 C3053 1.425 . S
C3048 C3055 1.409 . S
C3049 H3041 0.930 . S
C3049 C3047 1.419 . S
C3049 C3050 1.362 . S
C3050 H3042 0.930 . S
C3050 C3049 1.362 . S
C3050 C3053 1.409 . S
C3051 H3043 0.930 . S
C3051 C3052 1.355 . S
C3051 C3053 1.415 . S
C3052 C3051 1.355 . S
C3052 C3054 1.419 . S
C3053 C3048 1.425 . S
C3053 C3050 1.409 . S
C3053 C3051 1.415 . S
C3054 H3044 0.930 . S
C3054 C3052 1.419 . S
C3054 C3055 1.362 . S
C3055 H3045 0.930 . S
C3055 C3048 1.409 . S
C3055 C3054 1.362 . S
H3056 C3062 0.930 . S
H3057 C3065 0.930 . S
H3058 C3066 0.930 . S
H3059 C3067 0.930 . S
H3060 C3070 0.930 . S
H3061 C3071 0.930 . S
C3062 H3056 0.930 . S
C3062 C3063 1.355 . S
C3062 C3064 1.415 . S
C3063 C3062 1.355 . S
C3063 C3065 1.419 . S
C3064 C3062 1.415 . S
C3064 C3069 1.425 . S
C3064 C3071 1.409 . S
C3065 H3057 0.930 . S
C3065 C3063 1.419 . S
C3065 C3066 1.362 . S
C3066 H3058 0.930 . S
C3066 C3065 1.362 . S
C3066 C3069 1.409 . S
C3067 H3059 0.930 . S
C3067 C3068 1.355 . S
C3067 C3069 1.415 . S
C3068 C3067 1.355 . S
C3068 C3070 1.419 . S
C3069 C3064 1.425 . S
C3069 C3066 1.409 . S
C3069 C3067 1.415 . S
C3070 H3060 0.930 . S
C3070 C3068 1.419 . S
C3070 C3071 1.362 . S
C3071 H3061 0.930 . S
C3071 C3064 1.409 . S
C3071 C3070 1.362 . S
H3072 C3078 0.930 . S
H3073 C3081 0.930 . S
H3074 C3082 0.930 . S
H3075 C3083 0.930 . S
H3076 C3086 0.930 . S
H3077 C3087 0.930 . S
C3078 H3072 0.930 . S
C3078 C3079 1.355 . S
C3078 C3080 1.415 . S
C3079 C3078 1.355 . S
C3079 C3081 1.419 . S
C3080 C3078 1.415 . S
C3080 C3085 1.425 . S
C3080 C3087 1.409 . S
C3081 H3073 0.930 . S
C3081 C3079 1.419 . S
C3081 C3082 1.362 . S
C3082 H3074 0.930 . S
C3082 C3081 1.362 . S
C3082 C3085 1.409 . S
C3083 H3075 0.930 . S
C3083 C3084 1.355 . S
C3083 C3085 1.415 . S
C3084 C3083 1.355 . S
C3084 C3086 1.419 . S
C3085 C3080 1.425 . S
C3085 C3082 1.409 . S
C3085 C3083 1.415 . S
C3086 H3076 0.930 . S
C3086 C3084 1.419 . S
C3086 C3087 1.362 . S
C3087 H3077 0.930 . S
C3087 C3080 1.409 . S
C3087 C3086 1.362 . S
H3088 C3094 0.930 . S
H3089 C3097 0.930 . S
H3090 C3098 0.930 . S
H3091 C3099 0.930 . S
H3092 C3102 0.930 . S
H3093 C3103 0.930 . S
C3094 H3088 0.930 . S
C3094 C3095 1.355 . S
C3094 C3096 1.415 . S
C3095 C3094 1.355 . S
C3095 C3097 1.419 . S
C3096 C3094 1.415 . S
C3096 C3101 1.425 . S
C3096 C3103 1.409 . S
C3097 H3089 0.930 . S
C3097 C3095 1.419 . S
C3097 C3098 1.362 . S
C3098 H3090 0.930 . S
C3098 C3097 1.362 . S
C3098 C3101 1.409 . S
C3099 H3091 0.930 . S
C3099 C3100 1.355 . S
C3099 C3101 1.415 . S
C3100 C3099 1.355 . S
C3100 C3102 1.419 . S
C3101 C3096 1.425 . S
C3101 C3098 1.409 . S
C3101 C3099 1.415 . S
C3102 H3092 0.930 . S
C3102 C3100 1.419 . S
C3102 C3103 1.362 . S
C3103 H3093 0.930 . S
C3103 C3096 1.409 . S
C3103 C3102 1.362 . S
H3104 C3110 0.930 . S
H3105 C3113 0.930 . S
H3106 C3114 0.930 . S
H3107 C3115 0.930 . S
H3108 C3118 0.930 . S
H3109 C3119 0.930 . S
C3110 H3104 0.930 . S
C3110 C3111 1.355 . S
C3110 C3112 1.415 . S
C3111 C3110 1.355 . S
C3111 C3113 1.419 . S
C3112 C3110 1.415 . S
C3112 C3117 1.425 . S
C3112 C3119 1.409 . S
C3113 H3105 0.930 . S
C3113 C3111 1.419 . S
C3113 C3114 1.362 . S
C3114 H3106 0.930 . S
C3114 C3113 1.362 . S
C3114 C3117 1.409 . S
C3115 H3107 0.930 . S
C3115 C3116 1.355 . S
C3115 C3117 1.415 . S
C3116 C3115 1.355 . S
C3116 C3118 1.419 . S
C3117 C3112 1.425 . S
C3117 C3114 1.409 . S
C3117 C3115 1.415 . S
C3118 H3108 0.930 . S
C3118 C3116 1.419 . S
C3118 C3119 1.362 . S
C3119 H3109 0.930 . S
C3119 C3112 1.409 . S
C3119 C3118 1.362 . S
H3120 C3126 0.930 . S
H3121 C3129 0.930 . S
H3122 C3130 0.930 . S
H3123 C3131 0.930 . S
H3124 C3134 0.930 . S
H3125 C3135 0.930 . S
C3126 H3120 0.930 . S
C3126 C3127 1.355 . S
C3126 C3128 1.415 . S
C3127 C3126 1.355 . S
C3127 C3129 1.419 . S
C3128 C3126 1.415 . S
C3128 C3133 1.425 . S
C3128 C3135 1.409 . S
C3129 H3121 0.930 . S
C3129 C3127 1.419 . S
C3129 C3130 1.362 . S
C3130 H3122 0.930 . S
C3130 C3129 1.362 . S
C3130 C3133 1.409 . S
C3131 H3123 0.930 . S
C3131 C3132 1.355 . S
C3131 C3133 1.415 . S
C3132 C3131 1.355 . S
C3132 C3134 1.419 . S
C3133 C3128 1.425 . S
C3133 C3130 1.409 . S
C3133 C3131 1.415 . S
C3134 H3124 0.930 . S
C3134 C3132 1.419 . S
C3134 C3135 1.362 . S
C3135 H3125 0.930 . S
C3135 C3128 1.409 . S
C3135 C3134 1.362 . S
H3136 C3142 0.930 . S
H3137 C3145 0.930 . S
H3138 C3146 0.930 . S
H3139 C3147 0.930 . S
H3140 C3150 0.930 . S
H3141 C3151 0.930 . S
C3142 H3136 0.930 . S
C3142 C3143 1.355 . S
C3142 C3144 1.415 . S
C3143 C3142 1.355 . S
C3143 C3145 1.419 . S
C3144 C3142 1.415 . S
C3144 C3149 1.425 . S
C3144 C3151 1.409 . S
C3145 H3137 0.930 . S
C3145 C3143 1.419 . S
C3145 C3146 1.362 . S
C3146 H3138 0.930 . S
C3146 C3145 1.362 . S
C3146 C3149 1.409 . S
C3147 H3139 0.930 . S
C3147 C3148 1.355 . S
C3147 C3149 1.415 . S
C3148 C3147 1.355 . S
C3148 C3150 1.419 . S
C3149 C3144 1.425 . S
C3149 C3146 1.409 . S
C3149 C3147 1.415 . S
C3150 H3140 0.930 . S
C3150 C3148 1.419 . S
C3150 C3151 1.362 . S
C3151 H3141 0.930 . S
C3151 C3144 1.409 . S
C3151 C3150 1.362 . S
H3152 C3158 0.930 . S
H3153 C3161 0.930 . S
H3154 C3162 0.930 . S
H3155 C3163 0.930 . S
H3156 C3166 0.930 . S
H3157 C3167 0.930 . S
C3158 H3152 0.930 . S
C3158 C3159 1.355 . S
C3158 C3160 1.415 . S
C3159 C3158 1.355 . S
C3159 C3161 1.419 . S
C3160 C3158 1.415 . S
C3160 C3165 1.425 . S
C3160 C3167 1.409 . S
C3161 H3153 0.930 . S
C3161 C3159 1.419 . S
C3161 C3162 1.362 . S
C3162 H3154 0.930 . S
C3162 C3161 1.362 . S
C3162 C3165 1.409 . S
C3163 H3155 0.930 . S
C3163 C3164 1.355 . S
C3163 C3165 1.415 . S
C3164 C3163 1.355 . S
C3164 C3166 1.419 . S
C3165 C3160 1.425 . S
C3165 C3162 1.409 . S
C3165 C3163 1.415 . S
C3166 H3156 0.930 . S
C3166 C3164 1.419 . S
C3166 C3167 1.362 . S
C3167 H3157 0.930 . S
C3167 C3160 1.409 . S
C3167 C3166 1.362 . S
H3168 C3174 0.930 . S
H3169 C3177 0.930 . S
H3170 C3178 0.930 . S
H3171 C3179 0.930 . S
H3172 C3182 0.930 . S
H3173 C3183 0.930 . S
C3174 H3168 0.930 . S
C3174 C3175 1.355 . S
C3174 C3176 1.415 . S
C3175 C3174 1.355 . S
C3175 C3177 1.419 . S
C3176 C3174 1.415 . S
C3176 C3181 1.425 . S
C3176 C3183 1.409 . S
C3177 H3169 0.930 . S
C3177 C3175 1.419 . S
C3177 C3178 1.362 . S
C3178 H3170 0.930 . S
C3178 C3177 1.362 . S
C3178 C3181 1.409 . S
C3179 H3171 0.930 . S
C3179 C3180 1.355 . S
C3179 C3181 1.415 . S
C3180 C3179 1.355 . S
C3180 C3182 1.419 . S
C3181 C3176 1.425 . S
C3181 C3178 1.409 . S
C3181 C3179 1.415 . S
C3182 H3172 0.930 . S
C3182 C3180 1.419 . S
C3182 C3183 1.362 . S
C3183 H3173 0.930 . S
C3183 C3176 1.409 . S
C3183 C3182 1.362 . S
H3184 C3190 0.930 . S
H3185 C3193 0.930 . S
H3186 C3194 0.930 . S
H3187 C3195 0.930 . S
H3188 C3198 0.930 . S
H3189 C3199 0.930 . S
C3190 H3184 0.930 . S
C3190 C3191 1.355 . S
C3190 C3192 1.415 . S
C3191 C3190 1.355 . S
C3191 C3193 1.419 . S
C3192 C3190 1.415 . S
C3192 C3197 1.425 . S
C3192 C3199 1.409 . S
C3193 H3185 0.930 . S
C3193 C3191 1.419 . S
C3193 C3194 1.362 . S
C3194 H3186 0.930 . S
C3194 C3193 1.362 . S
C3194 C3197 1.409 . S
C3195 H3187 0.930 . S
C3195 C3196 1.355 . S
C3195 C3197 1.415 . S
C3196 C3195 1.355 . S
C3196 C3198 1.419 . S
C3197 C3192 1.425 . S
C3197 C3194 1.409 . S
C3197 C3195 1.415 . S
C3198 H3188 0.930 . S
C3198 C3196 1.419 . S
C3198 C3199 1.362 . S
C3199 H3189 0.930 . S
C3199 C3192 1.409 . S
C3199 C3198 1.362 . S
H3200 C3206 0.930 . S
H3201 C3209 0.930 . S
H3202 C3210 0.930 . S
H3203 C3211 0.930 . S
H3204 C3214 0.930 . S
H3205 C3215 0.930 . S
C3206 H3200 0.930 . S
C3206 C3207 1.355 . S
C3206 C3208 1.415 . S
C3207 C3206 1.355 . S
C3207 C3209 1.419 . S
C3208 C3206 1.415 . S
C3208 C3213 1.425 . S
C3208 C3215 1.409 . S
C3209 H3201 0.930 . S
C3209 C3207 1.419 . S
C3209 C3210 1.362 . S
C3210 H3202 0.930 . S
C3210 C3209 1.362 . S
C3210 C3213 1.409 . S
C3211 H3203 0.930 . S
C3211 C3212 1.355 . S
C3211 C3213 1.415 . S
C3212 C3211 1.355 . S
C3212 C3214 1.419 . S
C3213 C3208 1.425 . S
C3213 C3210 1.409 . S
C3213 C3211 1.415 . S
C3214 H3204 0.930 . S
C3214 C3212 1.419 . S
C3214 C3215 1.362 . S
C3215 H3205 0.930 . S
C3215 C3208 1.409 . S
C3215 C3214 1.362 . S
H3216 C3222 0.930 . S
H3217 C3225 0.930 . S
H3218 C3226 0.930 . S
H3219 C3227 0.930 . S
H3220 C3230 0.930 . S
H3221 C3231 0.930 . S
C3222 H3216 0.930 . S
C3222 C3223 1.355 . S
C3222 C3224 1.415 . S
C3223 C3222 1.355 . S
C3223 C3225 1.419 . S
C3224 C3222 1.415 . S
C3224 C3229 1.425 . S
C3224 C3231 1.409 . S
C3225 H3217 0.930 . S
C3225 C3223 1.419 . S
C3225 C3226 1.362 . S
C3226 H3218 0.930 . S
C3226 C3225 1.362 . S
C3226 C3229 1.409 . S
C3227 H3219 0.930 . S
C3227 C3228 1.355 . S
C3227 C3229 1.415 . S
C3228 C3227 1.355 . S
C3228 C3230 1.419 . S
C3229 C3224 1.425 . S
C3229 C3226 1.409 . S
C3229 C3227 1.415 . S
C3230 H3220 0.930 . S
C3230 C3228 1.419 . S
C3230 C3231 1.362 . S
C3231 H3221 0.930 . S
C3231 C3224 1.409 . S
C3231 C3230 1.362 . S
H3232 C3238 0.930 . S
H3233 C3241 0.930 . S
H3234 C3242 0.930 . S
H3235 C3243 0.930 . S
H3236 C3246 0.930 . S
H3237 C3247 0.930 . S
C3238 H3232 0.930 . S
C3238 C3239 1.355 . S
C3238 C3240 1.415 . S
C3239 C3238 1.355 . S
C3239 C3241 1.419 . S
C3240 C3238 1.415 . S
C3240 C3245 1.425 . S
C3240 C3247 1.409 . S
C3241 H3233 0.930 . S
C3241 C3239 1.419 . S
C3241 C3242 1.362 . S
C3242 H3234 0.930 . S
C3242 C3241 1.362 . S
C3242 C3245 1.409 . S
C3243 H3235 0.930 . S
C3243 C3244 1.355 . S
C3243 C3245 1.415 . S
C3244 C3243 1.355 . S
C3244 C3246 1.419 . S
C3245 C3240 1.425 . S
C3245 C3242 1.409 . S
C3245 C3243 1.415 . S
C3246 H3236 0.930 . S
C3246 C3244 1.419 . S
C3246 C3247 1.362 . S
C3247 H3237 0.930 . S
C3247 C3240 1.409 . S
C3247 C3246 1.362 . S
H3248 C3254 0.930 . S
H3249 C3257 0.930 . S
H3250 C3258 0.930 . S
H3251 C3259 0.930 . S
H3252 C3262 0.930 . S
H3253 C3263 0.930 . S
C3254 H3248 0.930 . S
C3254 C3255 1.355 . S
C3254 C3256 1.415 . S
C3255 C3254 1.355 . S
C3255 C3257 1.419 . S
C3256 C3254 1.415 . S
C3256 C3261 1.425 . S
C3256 C3263 1.409 . S
C3257 H3249 0.930 . S
C3257 C3255 1.419 . S
C3257 C3258 1.362 . S
C3258 H3250 0.930 . S
C3258 C3257 1.362 . S
C3258 C3261 1.409 . S
C3259 H3251 0.930 . S
C3259 C3260 1.355 . S
C3259 C3261 1.415 . S
C3260 C3259 1.355 . S
C3260 C3262 1.419 . S
C3261 C3256 1.425 . S
C3261 C3258 1.409 . S
C3261 C3259 1.415 . S
C3262 H3252 0.930 . S
C3262 C3260 1.419 . S
C3262 C3263 1.362 . S
C3263 H3253 0.930 . S
C3263 C3256 1.409 . S
C3263 C3262 1.362 . S
H3264 C3270 0.930 . S
H3265 C3273 0.930 . S
H3266 C3274 0.930 . S
H3267 C3275 0.930 . S
H3268 C3278 0.930 . S
H3269 C3279 0.930 . S
C3270 H3264 0.930 . S
C3270 C3271 1.355 . S
C3270 C3272 1.415 . S
C3271 C3270 1.355 . S
C3271 C3273 1.419 . S
C3272 C3270 1.415 . S
C3272 C3277 1.425 . S
C3272 C3279 1.409 . S
C3273 H3265 0.930 . S
C3273 C3271 1.419 . S
C3273 C3274 1.362 . S
C3274 H3266 0.930 . S
C3274 C3273 1.362 . S
C3274 C3277 1.409 . S
C3275 H3267 0.930 . S
C3275 C3276 1.355 . S
C3275 C3277 1.415 . S
C3276 C3275 1.355 . S
C3276 C3278 1.419 . S
C3277 C3272 1.425 . S
C3277 C3274 1.409 . S
C3277 C3275 1.415 . S
C3278 H3268 0.930 . S
C3278 C3276 1.419 . S
C3278 C3279 1.362 . S
C3279 H3269 0.930 . S
C3279 C3272 1.409 . S
C3279 C3278 1.362 . S
H3280 C3286 0.930 . S
H3281 C3289 0.930 . S
H3282 C3290 0.930 . S
H3283 C3291 0.930 . S
H3284 C3294 0.930 . S
H3285 C3295 0.930 . S
C3286 H3280 0.930 . S
C3286 C3287 1.355 . S
C3286 C3288 1.415 . S
C3287 C3286 1.355 . S
C3287 C3289 1.419 . S
C3288 C3286 1.415 . S
C3288 C3293 1.425 . S
C3288 C3295 1.409 . S
C3289 H3281 0.930 . S
C3289 C3287 1.419 . S
C3289 C3290 1.362 . S
C3290 H3282 0.930 . S
C3290 C3289 1.362 . S
C3290 C3293 1.409 . S
C3291 H3283 0.930 . S
C3291 C3292 1.355 . S
C3291 C3293 1.415 . S
C3292 C3291 1.355 . S
C3292 C3294 1.419 . S
C3293 C3288 1.425 . S
C3293 C3290 1.409 . S
C3293 C3291 1.415 . S
C3294 H3284 0.930 . S
C3294 C3292 1.419 . S
C3294 C3295 1.362 . S
C3295 H3285 0.930 . S
C3295 C3288 1.409 . S
C3295 C3294 1.362 . S
H3296 C3302 0.930 . S
H3297 C3305 0.930 . S
H3298 C3306 0.930 . S
H3299 C3307 0.930 . S
H3300 C3310 0.930 . S
H3301 C3311 0.930 . S
C3302 H3296 0.930 . S
C3302 C3303 1.355 . S
C3302 C3304 1.415 . S
C3303 C3302 1.355 . S
C3303 C3305 1.419 . S
C3304 C3302 1.415 . S
C3304 C3309 1.425 . S
C3304 C3311 1.409 . S
C3305 H3297 0.930 . S
C3305 C3303 1.419 . S
C3305 C3306 1.362 . S
C3306 H3298 0.930 . S
C3306 C3305 1.362 . S
C3306 C3309 1.409 . S
C3307 H3299 0.930 . S
C3307 C3308 1.355 . S
C3307 C3309 1.415 . S
C3308 C3307 1.355 . S
C3308 C3310 1.419 . S
C3309 C3304 1.425 . S
C3309 C3306 1.409 . S
C3309 C3307 1.415 . S
C3310 H3300 0.930 . S
C3310 C3308 1.419 . S
C3310 C3311 1.362 . S
C3311 H3301 0.930 . S
C3311 C3304 1.409 . S
C3311 C3310 1.362 . S
H3312 C3318 0.930 . S
H3313 C3321 0.930 . S
H3314 C3322 0.930 . S
H3315 C3323 0.930 . S
H3316 C3326 0.930 . S
H3317 C3327 0.930 . S
C3318 H3312 0.930 . S
C3318 C3319 1.355 . S
C3318 C3320 1.415 . S
C3319 C3318 1.355 . S
C3319 C3321 1.419 . S
C3320 C3318 1.415 . S
C3320 C3325 1.425 . S
C3320 C3327 1.409 . S
C3321 H3313 0.930 . S
C3321 C3319 1.419 . S
C3321 C3322 1.362 . S
C3322 H3314 0.930 . S
C3322 C3321 1.362 . S
C3322 C3325 1.409 . S
C3323 H3315 0.930 . S
C3323 C3324 1.355 . S
C3323 C3325 1.415 . S
C3324 C3323 1.355 . S
C3324 C3326 1.419 . S
C3325 C3320 1.425 . S
C3325 C3322 1.409 . S
C3325 C3323 1.415 . S
C3326 H3316 0.930 . S
C3326 C3324 1.419 . S
C3326 C3327 1.362 . S
C3327 H3317 0.930 . S
C3327 C3320 1.409 . S
C3327 C3326 1.362 . S
H3328 C3334 0.930 . S
H3329 C3337 0.930 . S
H3330 C3338 0.930 . S
H3331 C3339 0.930 . S
H3332 C3342 0.930 . S
H3333 C3343 0.930 . S
C3334 H3328 0.930 . S
C3334 C3335 1.355 . S
C3334 C3336 1.415 . S
C3335 C3334 1.355 . S
C3335 C3337 1.419 . S
C3336 C3334 1.415 . S
C3336 C3341 1.425 . S
C3336 C3343 1.409 . S
C3337 H3329 0.930 . S
C3337 C3335 1.419 . S
C3337 C3338 1.362 . S
C3338 H3330 0.930 . S
C3338 C3337 1.362 . S
C3338 C3341 1.409 . S
C3339 H3331 0.930 . S
C3339 C3340 1.355 . S
C3339 C3341 1.415 . S
C3340 C3339 1.355 . S
C3340 C3342 1.419 . S
C3341 C3336 1.425 . S
C3341 C3338 1.409 . S
C3341 C3339 1.415 . S
C3342 H3332 0.930 . S
C3342 C3340 1.419 . S
C3342 C3343 1.362 . S
C3343 H3333 0.930 . S
C3343 C3336 1.409 . S
C3343 C3342 1.362 . S
H3344 C3350 0.930 . S
H3345 C3353 0.930 . S
H3346 C3354 0.930 . S
H3347 C3355 0.930 . S
H3348 C3358 0.930 . S
H3349 C3359 0.930 . S
C3350 H3344 0.930 . S
C3350 C3351 1.355 . S
C3350 C3352 1.415 . S
C3351 C3350 1.355 . S
C3351 C3353 1.419 . S
C3352 C3350 1.415 . S
C3352 C3357 1.425 . S
C3352 C3359 1.409 . S
C3353 H3345 0.930 . S
C3353 C3351 1.419 . S
C3353 C3354 1.362 . S
C3354 H3346 0.930 . S
C3354 C3353 1.362 . S
C3354 C3357 1.409 . S
C3355 H3347 0.930 . S
C3355 C3356 1.355 . S
C3355 C3357 1.415 . S
C3356 C3355 1.355 . S
C3356 C3358 1.419 . S
C3357 C3352 1.425 . S
C3357 C3354 1.409 . S
C3357 C3355 1.415 . S
C3358 H3348 0.930 . S
C3358 C3356 1.419 . S
C3358 C3359 1.362 . S
C3359 H3349 0.930 . S
C3359 C3352 1.409 . S
C3359 C3358 1.362 . S
H3360 C3366 0.930 . S
H3361 C3369 0.930 . S
H3362 C3370 0.930 . S
H3363 C3371 0.930 . S
H3364 C3374 0.930 . S
H3365 C3375 0.930 . S
C3366 H3360 0.930 . S
C3366 C3367 1.355 . S
C3366 C3368 1.415 . S
C3367 C3366 1.355 . S
C3367 C3369 1.419 . S
C3368 C3366 1.415 . S
C3368 C3373 1.425 . S
C3368 C3375 1.409 . S
C3369 H3361 0.930 . S
C3369 C3367 1.419 . S
C3369 C3370 1.362 . S
C3370 H3362 0.930 . S
C3370 C3369 1.362 . S
C3370 C3373 1.409 . S
C3371 H3363 0.930 . S
C3371 C3372 1.355 . S
C3371 C3373 1.415 . S
C3372 C3371 1.355 . S
C3372 C3374 1.419 . S
C3373 C3368 1.425 . S
C3373 C3370 1.409 . S
C3373 C3371 1.415 . S
C3374 H3364 0.930 . S
C3374 C3372 1.419 . S
C3374 C3375 1.362 . S
C3375 H3365 0.930 . S
C3375 C3368 1.409 . S
C3375 C3374 1.362 . S
C1852 C399 1.877 . S
C1847 C7 1.888 . S
C1868 C461 1.201 . S
C1863 C19 1.356 . S
C1879 C29 1.828 . S
C1884 C523 1.791 . S
C1900 C591 1.269 . S
C1895 C41 1.375 . S
C1911 C52 1.394 . S
C1916 C573 1.397 . S
C1927 C62 1.631 . S
C1932 C381 1.547 . S
C1943 C73 1.255 . S
C1948 C443 1.234 . S
C1964 C505 1.671 . S
C1959 C82 1.619 . S
C1980 C653 1.739 . S
C1975 C5 1.609 . S
C1991 C16 1.375 . S
C1996 C691 1.525 . S
C2007 C30 1.878 . S
C2012 C777 1.827 . S
C2028 C821 1.245 . S
C2023 C40 1.304 . S
C2039 C49 0.999 . S
C2044 C883 1.225 . S
C2060 C945 1.515 . S
C2055 C63 1.554 . S
C2071 C74 1.510 . S
C2076 C1001 1.333 . S
C2092 C1063 1.507 . S
C2087 C85 1.591 . S
C2103 C8 1.658 . S
C2108 C839 1.666 . S
C2119 C51 1.472 . S
C2124 C963 1.488 . S
C2140 C1019 1.698 . S
C2135 C60 1.587 . S
C2151 C71 1.126 . S
C2156 C1081 1.313 . S
C2172 C901 2.041 . S
C2167 C84 1.940 . S
C2188 C709 1.601 . S
C2183 C27 1.529 . S
C2199 C38 1.546 . S
C2204 C759 1.536 . S
C2220 C635 1.799 . S
C2215 C18 1.752 . S
C2236 C1143 1.996 . S
C2231 C95 1.956 . S
C2247 C107 1.337 . S
C2252 C1193 1.314 . S
C2263 C117 1.714 . S
C2268 C1249 1.607 . S
C2284 C1335 1.480 . S
C2279 C129 1.565 . S
C2295 C140 1.478 . S
C2300 C1317 1.478 . S
C2311 C150 1.619 . S
C2316 C1125 1.590 . S
C2327 C161 1.264 . S
C2332 C1211 1.264 . S
C2343 C170 1.631 . S
C2348 C1267 1.834 . S
C2364 C877 1.765 . S
C2359 C93 1.673 . S
C2375 C104 1.261 . S
C2380 C1397 1.491 . S
C2396 C1007 1.793 . S
C2391 C118 1.863 . S
C2407 C128 1.433 . S
C2412 C1459 1.317 . S
C2423 C137 1.135 . S
C2428 C647 1.232 . S
C2444 C1503 1.523 . S
C2439 C151 1.596 . S
C2455 C162 1.497 . S
C2460 C771 1.448 . S
C2476 C1559 1.537 . S
C2471 C173 1.675 . S
C2487 C96 1.762 . S
C2492 C1441 1.707 . S
C2508 C1521 1.572 . S
C2503 C139 1.567 . S
C2519 C148 1.688 . S
C2524 C753 1.821 . S
C2540 C1577 1.256 . S
C2535 C159 1.034 . S
C2551 C172 2.134 . S
C2556 C629 2.224 . S
C2567 C115 1.351 . S
C2572 C1379 1.482 . S
C2583 C126 1.428 . S
C2588 C1025 1.466 . S
C2599 C106 1.584 . S
C2604 C895 1.589 . S
C2615 C183 1.801 . S
C2620 C1255 1.818 . S
C2636 C1329 1.139 . S
C2631 C195 1.326 . S
C2647 C205 1.815 . S
C2652 C1149 1.823 . S
C2663 C217 1.423 . S
C2668 C1187 1.228 . S
C2679 C228 1.513 . S
C2684 C1205 1.431 . S
C2695 C238 1.574 . S
C2700 C1273 1.580 . S
C2716 C1311 1.187 . S
C2711 C249 1.320 . S
C2727 C258 1.625 . S
C2732 C1131 1.715 . S
C2748 C1627 1.700 . S
C2743 C181 1.567 . S
C2759 C192 1.475 . S
C2764 C939 1.628 . S
C2780 C1689 1.702 . S
C2775 C206 1.773 . S
C2791 C216 1.456 . S
C2796 C1069 1.340 . S
C2807 C225 1.288 . S
C2812 C1745 1.359 . S
C2823 C239 1.556 . S
C2828 C697 1.469 . S
C2844 C1825 1.507 . S
C2839 C250 1.582 . S
C2855 C261 1.620 . S
C2860 C815 1.434 . S
C2876 C1087 1.503 . S
C2871 C184 1.559 . S
C2892 C715 1.620 . S
C2887 C227 1.557 . S
C2903 C236 1.592 . S
C2908 C1807 1.757 . S
C2919 C247 1.061 . S
C2924 C833 1.260 . S
C2940 C1763 2.036 . S
C2935 C260 1.986 . S
C2956 C957 1.280 . S
C2951 C203 1.152 . S
C2972 C1707 1.435 . S
C2967 C214 1.409 . S
C2988 C1645 1.767 . S
C2983 C194 1.674 . S
C2999 C271 1.783 . S
C3004 C529 1.862 . S
C3015 C283 1.378 . S
C3020 C585 1.175 . S
C3036 C405 1.740 . S
C3031 C293 1.734 . S
C3052 C467 1.327 . S
C3047 C305 1.446 . S
C3068 C449 1.588 . S
C3063 C316 1.589 . S
C3084 C511 1.635 . S
C3079 C326 1.624 . S
C3100 C567 1.107 . S
C3095 C337 1.171 . S
C3111 C346 1.541 . S
C3116 C387 1.764 . S
C3127 C269 1.506 . S
C3132 C1751 1.676 . S
C3148 C1497 1.600 . S
C3143 C280 1.478 . S
C3164 C1831 1.793 . S
C3159 C294 1.859 . S
C3180 C1565 1.235 . S
C3175 C304 1.345 . S
C3191 C313 1.278 . S
C3196 C1621 1.363 . S
C3212 C1391 1.427 . S
C3207 C327 1.572 . S
C3228 C1683 1.311 . S
C3223 C338 1.453 . S
C3239 C349 1.594 . S
C3244 C1453 1.410 . S
C3260 C1583 1.481 . S
C3255 C272 1.556 . S
C3276 C1373 1.523 . S
C3271 C315 1.549 . S
C3292 C1701 1.687 . S
C3287 C324 1.558 . S
C3303 C335 1.091 . S
C3308 C1435 1.329 . S
C3319 C348 2.005 . S
C3324 C1639 2.086 . S
C3335 C291 1.209 . S
C3340 C1515 1.330 . S
C3351 C302 1.520 . S
C3356 C1813 1.573 . S
C3372 C1769 1.733 . S
C3367 C282 1.654 . S
