# Generated by pormake.
# Topology rtl, (3,6)-cn, num edge types: 1
# Building blocks:
#     Node 0, Type 0, BuildingBlock: VETTIZ_charged_linker_0, # of connection points: 3
#     Node 1, Type 0, BuildingBlock: VETTIZ_charged_linker_0, # of connection points: 3
#     Node 2, Type 0, BuildingBlock: VETTIZ_charged_linker_0, # of connection points: 3
#     Node 3, Type 0, BuildingBlock: VETTIZ_charged_linker_0, # of connection points: 3
#     Node 4, Type 1, BuildingBlock: KUMJIN_clean_sbu_1, # of connection points: 6
#     Node 5, Type 1, BuildingBlock: KUMJIN_clean_sbu_1, # of connection points: 6
#     Edge 6, Type (0, 1), BuildingBlock: ZUJKAS_clean_linker_0, # of connection points: 2
#     Edge 7, Type (0, 1), BuildingBlock: ZUJKAS_clean_linker_0, # of connection points: 2
#     Edge 8, Type (0, 1), BuildingBlock: ZUJKAS_clean_linker_0, # of connection points: 2
#     Edge 9, Type (0, 1), BuildingBlock: ZUJKAS_clean_linker_0, # of connection points: 2
#     Edge 10, Type (0, 1), BuildingBlock: ZUJKAS_clean_linker_0, # of connection points: 2
#     Edge 11, Type (0, 1), BuildingBlock: ZUJKAS_clean_linker_0, # of connection points: 2
#     Edge 12, Type (0, 1), BuildingBlock: ZUJKAS_clean_linker_0, # of connection points: 2
#     Edge 13, Type (0, 1), BuildingBlock: ZUJKAS_clean_linker_0, # of connection points: 2
#     Edge 14, Type (0, 1), BuildingBlock: ZUJKAS_clean_linker_0, # of connection points: 2
#     Edge 15, Type (0, 1), BuildingBlock: ZUJKAS_clean_linker_0, # of connection points: 2
#     Edge 16, Type (0, 1), BuildingBlock: ZUJKAS_clean_linker_0, # of connection points: 2
#     Edge 17, Type (0, 1), BuildingBlock: ZUJKAS_clean_linker_0, # of connection points: 2
# Relax obj value: 0.017
# Max RMSD: 0.086
# Mean RMSD: 0.052
data_MOF--net-rtl--node1-KUMJIN_clean_sbu_1--node2-VETTIZ_charged_linker_0--edge1-ZUJKAS_clean_linker_0
_symmetry_space_group_name_H-M    P1
_symmetry_Int_Tables_number       1
_symmetry_cell_setting            triclinic
loop_
_symmetry_equiv_pos_as_xyz
'x, y, z'
_cell_length_a     48.896971
_cell_length_b     49.445026
_cell_length_c     42.609444
_cell_angle_alpha  81.9905
_cell_angle_beta   99.395865
_cell_angle_gamma 90.276217
loop_
_atom_site_label
_atom_site_type_symbol
_atom_site_fract_x
_atom_site_fract_y
_atom_site_fract_z
_atom_type_partial_charge
C0 C 0.18978 0.89599 0.90941 0.0
C1 C 0.16718 0.91454 0.90269 0.0
C2 C 0.15734 0.92415 0.92855 0.0
C3 C 0.19156 0.89593 0.96671 0.0
C4 C 0.20143 0.88691 0.94134 0.0
C5 C 0.22456 0.86616 0.9523 0.0
H6 H 0.30406 0.78445 0.07263 0.0
C7 C 0.20764 0.88159 0.99686 0.0
C8 C 0.22695 0.86412 0.9885 0.0
H9 H 0.30251 0.78953 0.97014 0.0
H10 H 0.26895 0.82622 0.9605 0.0
H11 H 0.30249 0.84984 0.07377 0.0
H12 H 0.23773 0.7904 0.06883 0.0
H13 H 0.23194 0.81189 0.09678 0.0
H14 H 0.26326 0.79138 0.10408 0.0
H15 H 0.2974 0.82607 0.10811 0.0
H16 H 0.27876 0.85836 0.0978 0.0
C17 C 0.251 0.87816 0.94037 0.0
C18 C 0.21489 0.83905 0.93989 0.0
C19 C 0.18434 0.89805 0.10469 0.0
C20 C 0.19468 0.88686 0.13662 0.0
C21 C 0.21713 0.86801 0.14251 0.0
C22 C 0.22858 0.85994 0.11706 0.0
C23 C 0.21747 0.87073 0.08527 0.0
C24 C 0.19595 0.88973 0.07955 0.0
C25 C 0.18666 0.89896 0.04427 0.0
C26 C 0.2061 0.88235 0.02974 0.0
C27 C 0.22402 0.86571 0.05385 0.0
C28 C 0.19179 0.92999 0.0374 0.0
C29 C 0.15599 0.89081 0.03546 0.0
C30 C 0.29639 0.79345 0.04813 0.0
C31 C 0.30605 0.784 0.02213 0.0
C32 C 0.2958 0.79658 0.99065 0.0
C33 C 0.27605 0.8178 0.98505 0.0
C34 C 0.26614 0.82658 0.01113 0.0
C35 C 0.27653 0.81474 0.04207 0.0
C36 C 0.26356 0.82702 0.06672 0.0
C37 C 0.24336 0.84778 0.04534 0.0
C38 C 0.24493 0.84723 0.01284 0.0
C39 C 0.28662 0.84094 0.088 0.0
C40 C 0.24841 0.8041 0.08537 0.0
H41 H 0.16081 0.92288 0.97903 0.0
H42 H 0.19823 0.88847 0.89023 0.0
H43 H 0.19217 0.83649 0.93915 0.0
H44 H 0.2243 0.82072 0.95568 0.0
H45 H 0.21926 0.83857 0.9152 0.0
H46 H 0.2517 0.90064 0.9405 0.0
H47 H 0.25164 0.87435 0.91542 0.0
H48 H 0.27033 0.87013 0.95605 0.0
H49 H 0.16737 0.91284 0.09928 0.0
H50 H 0.22534 0.85883 0.16679 0.0
H51 H 0.24534 0.84525 0.12312 0.0
H52 H 0.21153 0.93546 0.05198 0.0
H53 H 0.1748 0.94207 0.04351 0.0
H54 H 0.19416 0.93684 0.01222 0.0
H55 H 0.15177 0.87115 0.04988 0.0
H56 H 0.15044 0.88721 0.01023 0.0
H57 H 0.14165 0.90656 0.0402 0.0
H58 H 0.13981 0.93824 0.92418 0.0
C59 C 0.16944 0.91502 0.96046 0.0
C60 C 0.64588 0.68073 0.69449 0.0
C61 C 0.62653 0.65973 0.69773 0.0
C62 C 0.61345 0.64938 0.66999 0.0
C63 C 0.63933 0.68002 0.63682 0.0
C64 C 0.65201 0.69047 0.66388 0.0
C65 C 0.67264 0.71212 0.65601 0.0
H66 H 0.73842 0.78422 0.54364 0.0
C67 C 0.65038 0.69415 0.60878 0.0
C68 C 0.66985 0.71314 0.61977 0.0
H69 H 0.7526 0.78691 0.64599 0.0
H70 H 0.71564 0.75489 0.65247 0.0
H71 H 0.73322 0.71959 0.54917 0.0
H72 H 0.67298 0.78511 0.53406 0.0
H73 H 0.65823 0.76044 0.51085 0.0
H74 H 0.68989 0.77668 0.50228 0.0
H75 H 0.72602 0.74304 0.51256 0.0
H76 H 0.70648 0.71239 0.51881 0.0
C77 C 0.70177 0.70185 0.67354 0.0
C78 C 0.6631 0.73927 0.66533 0.0
C79 C 0.61995 0.6654 0.4984 0.0
C80 C 0.62687 0.67457 0.46792 0.0
C81 C 0.64407 0.69743 0.4645 0.0
C82 C 0.65512 0.71013 0.49103 0.0
C83 C 0.64899 0.69998 0.52151 0.0
C84 C 0.63111 0.67844 0.52469 0.0
C85 C 0.62627 0.67104 0.55881 0.0
C86 C 0.64485 0.6912 0.57565 0.0
C87 C 0.6583 0.70784 0.55372 0.0
C88 C 0.63632 0.6411 0.57048 0.0
C89 C 0.59518 0.67635 0.55967 0.0
C90 C 0.73378 0.7778 0.56753 0.0
C91 C 0.74873 0.78792 0.59435 0.0
C92 C 0.74139 0.77951 0.62487 0.0
C93 C 0.72005 0.76075 0.62862 0.0
C94 C 0.7059 0.75021 0.60159 0.0
C95 C 0.71274 0.75904 0.57167 0.0
C96 C 0.69598 0.7456 0.54558 0.0
C97 C 0.67812 0.72691 0.56471 0.0
C98 C 0.68392 0.72962 0.59754 0.0
C99 C 0.71628 0.72939 0.53042 0.0
C100 C 0.67843 0.76797 0.5217 0.0
H101 H 0.609 0.65058 0.61961 0.0
H102 H 0.65642 0.689 0.71536 0.0
H103 H 0.64019 0.74196 0.65885 0.0
H104 H 0.67174 0.75739 0.65246 0.0
H105 H 0.66871 0.73962 0.69161 0.0
H106 H 0.70413 0.67943 0.6739 0.0
H107 H 0.70528 0.70597 0.69884 0.0
H108 H 0.71868 0.71087 0.6615 0.0
H109 H 0.60683 0.64792 0.50203 0.0
H110 H 0.64917 0.70547 0.44123 0.0
H111 H 0.66837 0.72714 0.48682 0.0
H112 H 0.65569 0.63686 0.56132 0.0
H113 H 0.62049 0.6265 0.56175 0.0
H114 H 0.64168 0.6364 0.59685 0.0
H115 H 0.58643 0.69332 0.54077 0.0
H116 H 0.59169 0.68303 0.58243 0.0
H117 H 0.58272 0.65796 0.55558 0.0
H118 H 0.59814 0.63356 0.67171 0.0
C119 C 0.61966 0.65942 0.63966 0.0
C120 C 0.8185 0.10948 0.13764 0.0
C121 C 0.84062 0.0904 0.14379 0.0
C122 C 0.85016 0.08101 0.11766 0.0
C123 C 0.81661 0.11046 0.0802 0.0
C124 C 0.80693 0.11922 0.10584 0.0
C125 C 0.78418 0.14046 0.09522 0.0
H126 H 0.7078 0.22603 0.97582 0.0
C127 C 0.80096 0.12555 0.05032 0.0
C128 C 0.78189 0.1431 0.05896 0.0
H129 H 0.70658 0.21785 0.07798 0.0
H130 H 0.73951 0.18049 0.08721 0.0
H131 H 0.77457 0.2178 0.98102 0.0
H132 H 0.7072 0.16135 0.97217 0.0
H133 H 0.73135 0.15186 0.94921 0.0
H134 H 0.71421 0.18492 0.93854 0.0
H135 H 0.74874 0.21911 0.94562 0.0
H136 H 0.77903 0.19732 0.95149 0.0
C137 C 0.79437 0.16712 0.10833 0.0
C138 C 0.75747 0.1288 0.1068 0.0
C139 C 0.82536 0.11079 0.94263 0.0
C140 C 0.8152 0.12211 0.91071 0.0
C141 C 0.79317 0.14146 0.90486 0.0
C142 C 0.78179 0.14961 0.93032 0.0
C143 C 0.79251 0.13836 0.96207 0.0
C144 C 0.8137 0.11904 0.96771 0.0
C145 C 0.8224 0.10902 1.00287 0.0
C146 C 0.80292 0.12548 0.01747 0.0
C147 C 0.7856 0.14284 0.99353 0.0
C148 C 0.85313 0.11665 0.01252 0.0
C149 C 0.81673 0.078 0.00866 0.0
C150 C 0.71475 0.21619 1.00015 0.0
C151 C 0.70465 0.22498 0.02622 0.0
C152 C 0.71382 0.21133 0.05746 0.0
C153 C 0.73314 0.18974 0.06282 0.0
C154 C 0.7436 0.18163 0.03671 0.0
C155 C 0.73405 0.19443 0.00594 0.0
C156 C 0.74706 0.18242 0.98114 0.0
C157 C 0.76646 0.16084 1.00227 0.0
C158 C 0.76445 0.1607 0.03479 0.0
C159 C 0.76313 0.20525 0.96361 0.0
C160 C 0.72389 0.16958 0.95883 0.0
H161 H 0.84659 0.08307 0.06716 0.0
H162 H 0.8109 0.11737 0.15715 0.0
H163 H 0.75673 0.10625 0.10727 0.0
H164 H 0.73836 0.13665 0.09052 0.0
H165 H 0.75639 0.13314 0.13145 0.0
H166 H 0.81685 0.16996 0.10752 0.0
H167 H 0.79139 0.16661 0.13369 0.0
H168 H 0.78418 0.18572 0.09398 0.0
H169 H 0.84251 0.0962 0.94819 0.0
H170 H 0.78462 0.15024 0.88053 0.0
H171 H 0.76518 0.16449 0.92431 0.0
H172 H 0.8577 0.13661 0.99897 0.0
H173 H 0.86739 0.10105 0.00731 0.0
H174 H 0.85849 0.11943 0.03804 0.0
H175 H 0.7977 0.07285 0.99259 0.0
H176 H 0.81272 0.07091 0.03321 0.0
H177 H 0.83422 0.06582 1.00382 0.0
H178 H 0.86694 0.06606 0.12177 0.0
C179 C 0.83824 0.09086 0.08596 0.0
C180 C 0.37272 0.33192 0.3578 0.0
C181 C 0.39269 0.35242 0.35534 0.0
C182 C 0.4056 0.36223 0.38354 0.0
C183 C 0.37835 0.33207 0.41555 0.0
C184 C 0.36584 0.32213 0.38805 0.0
C185 C 0.34464 0.30085 0.39506 0.0
H186 H 0.27432 0.23007 0.50391 0.0
C187 C 0.36638 0.31809 0.44303 0.0
C188 C 0.34662 0.29966 0.43124 0.0
H189 H 0.26408 0.22629 0.40195 0.0
H190 H 0.30134 0.25826 0.39692 0.0
H191 H 0.33989 0.22811 0.51612 0.0
H192 H 0.28045 0.29443 0.49872 0.0
H193 H 0.30684 0.30191 0.5293 0.0
H194 H 0.28689 0.27151 0.53579 0.0
H195 H 0.3217 0.23665 0.54681 0.0
H196 H 0.35408 0.25238 0.54021 0.0
C197 C 0.35401 0.27359 0.38582 0.0
C198 C 0.31594 0.31169 0.37678 0.0
C199 C 0.39647 0.34435 0.55487 0.0
C200 C 0.38856 0.33523 0.58485 0.0
C201 C 0.36948 0.31385 0.58704 0.0
C202 C 0.35804 0.30215 0.55987 0.0
C203 C 0.36559 0.31192 0.52997 0.0
C204 C 0.38482 0.33238 0.52788 0.0
C205 C 0.39056 0.33983 0.4941 0.0
C206 C 0.37127 0.32075 0.47627 0.0
C207 C 0.3566 0.30465 0.49741 0.0
C208 C 0.42147 0.33311 0.49399 0.0
C209 C 0.38207 0.37024 0.48289 0.0
C210 C 0.27992 0.23626 0.48042 0.0
C211 C 0.26601 0.22586 0.45325 0.0
C212 C 0.2745 0.23396 0.42328 0.0
C213 C 0.29603 0.25265 0.42039 0.0
C214 C 0.30927 0.26335 0.44776 0.0
C215 C 0.3013 0.2548 0.47716 0.0
C216 C 0.3176 0.26797 0.5038 0.0
C217 C 0.33648 0.28617 0.48557 0.0
C218 C 0.33155 0.28354 0.45271 0.0
C219 C 0.3341 0.24525 0.52826 0.0
C220 C 0.29706 0.28474 0.51797 0.0
H221 H 0.40921 0.36056 0.43393 0.0
H222 H 0.3623 0.32403 0.33661 0.0
H223 H 0.31364 0.33398 0.37738 0.0
H224 H 0.29851 0.30231 0.38757 0.0
H225 H 0.31324 0.30845 0.35119 0.0
H226 H 0.37692 0.27081 0.39211 0.0
H227 H 0.34821 0.2731 0.3596 0.0
H228 H 0.34546 0.25555 0.39897 0.0
H229 H 0.41131 0.36052 0.5524 0.0
H230 H 0.36273 0.30663 0.60967 0.0
H231 H 0.34337 0.28624 0.56318 0.0
H232 H 0.42879 0.31497 0.51191 0.0
H233 H 0.43487 0.35046 0.50008 0.0
H234 H 0.42522 0.32752 0.47081 0.0
H235 H 0.36301 0.37543 0.49208 0.0
H236 H 0.37679 0.37529 0.45654 0.0
H237 H 0.39871 0.38396 0.49188 0.0
H238 H 0.4214 0.37761 0.38248 0.0
C239 C 0.3986 0.35217 0.41351 0.0
Eu240 Eu 0.02845 0.97731 0.50541 0.0
C241 C 0.96986 0.08828 0.48471 0.0
N242 N 0.99217 0.0797 0.50734 0.0
C243 C 0.01589 0.12084 0.49207 0.0
C244 C 0.97023 0.11298 0.46378 0.0
C245 C 0.01427 0.09641 0.51258 0.0
C246 C 0.99399 0.12891 0.46713 0.0
C247 C 0.92149 0.08261 0.46281 0.0
C248 C 0.94581 0.07337 0.48416 0.0
C249 C 0.9222 0.10638 0.44071 0.0
C250 C 0.94655 0.12152 0.44115 0.0
Eu251 Eu 0.9884 0.03659 0.53866 0.0
N252 N 0.94588 0.05034 0.50556 0.0
C253 C 0.89706 0.06805 0.46496 0.0
C254 C 0.92187 0.03688 0.50908 0.0
C255 C 0.89715 0.04535 0.48857 0.0
H256 H 0.03067 0.09114 0.53276 0.0
H257 H 0.87826 0.03429 0.49086 0.0
H258 H 0.00827 0.91902 0.5434 0.0
H259 H 0.13442 0.0134 0.50327 0.0
H260 H 0.92211 0.01921 0.5272 0.0
H261 H 0.87792 0.07451 0.44902 0.0
H262 H 0.08494 0.00895 0.48156 0.0
H263 H 0.03383 0.13361 0.49582 0.0
H264 H 0.90384 0.11364 0.42378 0.0
H265 H 0.94656 0.14028 0.42463 0.0
H266 H 0.02711 0.88311 0.58833 0.0
H267 H 0.99513 0.14801 0.45152 0.0
H268 H 0.1554 0.98454 0.55358 0.0
N269 N 0.04554 0.94141 0.54635 0.0
C270 C 0.07255 0.94237 0.55994 0.0
C271 C 0.04005 0.89976 0.58071 0.0
C272 C 0.08411 0.92263 0.58575 0.0
C273 C 0.02947 0.91997 0.55532 0.0
C274 C 0.06737 0.90133 0.59635 0.0
N275 N 0.07715 0.98024 0.52103 0.0
C276 C 0.09352 0.99716 0.50427 0.0
C277 C 0.11716 0.96381 0.55994 0.0
C278 C 0.08875 0.96271 0.54721 0.0
C279 C 0.13349 0.983 0.54455 0.0
C280 C 0.12172 0.99935 0.51619 0.0
H281 H 0.07548 0.88574 0.61611 0.0
H282 H 0.12122 0.9098 0.61984 0.0
H283 H 0.15021 0.94587 0.59722 0.0
O284 O 0.0496 0.95764 0.47224 0.0
O285 O 0.02504 0.97492 0.55836 0.0
O286 O 0.02949 0.01944 0.56632 0.0
O287 O 0.00564 0.95071 0.47413 0.0
O288 O 0.03938 0.02179 0.49118 0.0
O289 O 0.03432 0.04211 0.53543 0.0
O290 O 0.96833 0.02832 0.58101 0.0
O291 O 0.97038 0.02053 0.49217 0.0
O292 O 0.00946 0.01395 0.47143 0.0
O293 O 0.98252 0.06887 0.5674 0.0
O294 O 0.97323 0.99348 0.55079 0.0
O295 O 0.9841 0.96757 0.51259 0.0
C296 C 0.03409 0.9934 0.57657 0.0
C297 C 0.02534 0.92721 0.43658 0.0
C298 C 0.04046 0.91296 0.38937 0.0
C299 C 0.01941 0.89345 0.38827 0.0
C300 C 0.00441 0.90767 0.43483 0.0
C301 C 1.00162 0.89081 0.41092 0.0
C302 C 0.04361 0.92958 0.414 0.0
C303 C 0.04647 0.04027 0.51037 0.0
C304 C 0.02704 0.94565 0.46117 0.0
C305 C 0.11202 0.92452 0.59966 0.0
C306 C 0.12851 0.94511 0.58681 0.0
C307 C 0.98303 0.02015 0.4674 0.0
C308 C 0.98382 0.05369 0.62266 0.0
C309 C 0.97691 0.05787 0.67719 0.0
C310 C 0.00524 0.0518 0.68809 0.0
C311 C 0.01207 0.04806 0.63384 0.0
C312 C 0.96635 0.05876 0.6443 0.0
C313 C 0.02269 0.04704 0.66646 0.0
C314 C 0.96923 0.97254 0.53452 0.0
C315 C 0.972 0.05268 0.58891 0.0
H316 H 0.01679 0.88008 0.36995 0.0
H317 H 0.99016 0.90542 0.45196 0.0
H318 H 0.9855 0.87573 0.40982 0.0
H319 H 0.05954 0.94491 0.41491 0.0
H320 H 0.01395 0.0511 0.71326 0.0
H321 H 0.0258 0.04427 0.61738 0.0
H322 H 0.94444 0.0628 0.63564 0.0
H323 H 0.0445 0.04252 0.675 0.0
Eu324 Eu 0.47615 0.48999 0.99209 0.0
C325 C 0.59238 0.5337 0.02447 0.0
N326 N 0.58132 0.51203 0.04101 0.0
C327 C 0.62153 0.48466 0.04023 0.0
C328 C 0.61794 0.53126 0.01371 0.0
C329 C 0.59632 0.48827 0.05074 0.0
C330 C 0.63212 0.50608 0.02105 0.0
C331 C 0.59082 0.58233 0.00532 0.0
C332 C 0.57908 0.55889 0.02027 0.0
C333 C 0.61547 0.57973 0.99299 0.0
C334 C 0.62898 0.55423 0.99712 0.0
Eu335 Eu 0.53697 0.51946 0.05453 0.0
N336 N 0.55496 0.56061 0.03176 0.0
C337 C 0.57764 0.6077 1.00374 0.0
C338 C 0.54272 0.58536 0.03184 0.0
C339 C 0.55372 0.60926 0.01753 0.0
H340 H 0.58909 0.47208 0.06691 0.0
H341 H 0.54367 0.62882 0.01693 0.0
H342 H 0.4187 0.51821 0.00682 0.0
H343 H 0.50118 0.38145 0.99642 0.0
H344 H 0.52409 0.58643 0.04227 0.0
H345 H 0.58603 0.6262 0.99248 0.0
H346 H 0.50356 0.43078 0.97799 0.0
H347 H 0.63295 0.46549 0.04731 0.0
H348 H 0.6246 0.59741 0.98091 0.0
H349 H 0.64838 0.55266 0.98827 0.0
H350 H 0.3781 0.50446 0.03305 0.0
H351 H 0.6518 0.50334 0.01322 0.0
H352 H 0.46661 0.3643 0.03046 0.0
N353 N 0.43637 0.47819 0.01535 0.0
C354 C 0.43332 0.45137 0.02608 0.0
C355 C 0.39357 0.48937 0.03143 0.0
C356 C 0.41074 0.44261 0.04142 0.0
C357 C 0.41648 0.4971 0.01663 0.0
C358 C 0.39089 0.46206 0.04431 0.0
N359 N 0.47317 0.44186 0.00456 0.0
C360 C 0.48946 0.42373 0.99423 0.0
C361 C 0.44971 0.40459 0.03116 0.0
C362 C 0.45261 0.4327 0.02106 0.0
C363 C 0.46811 0.38607 0.02316 0.0
C364 C 0.48771 0.39567 1.00404 0.0
H365 H 0.37323 0.45615 0.05593 0.0
H366 H 0.39153 0.40767 0.06514 0.0
H367 H 0.42565 0.37433 0.05613 0.0
O368 O 0.45724 0.4726 0.94897 0.0
O369 O 0.47186 0.49032 0.04453 0.0
O370 O 0.51584 0.48041 0.07098 0.0
O371 O 0.45183 0.51609 0.95163 0.0
O372 O 0.52019 0.47347 0.99569 0.0
O373 O 0.53951 0.47441 0.04868 0.0
O374 O 0.52849 0.53879 0.09501 0.0
O375 O 0.52455 0.54061 1.00313 0.0
O376 O 0.51569 0.50484 0.97481 0.0
O377 O 0.56834 0.51955 0.09752 0.0
O378 O 0.49401 0.53815 0.05042 0.0
O379 O 0.47044 0.53428 0.99922 0.0
C380 C 0.48895 0.47816 0.06936 0.0
C381 C 0.42968 0.49997 0.90249 0.0
C382 C 0.41757 0.48704 0.84864 0.0
C383 C 0.39834 0.509 0.84056 0.0
C384 C 0.41055 0.52186 0.89372 0.0
C385 C 0.39488 0.5262 0.86299 0.0
C386 C 0.43298 0.48245 0.87994 0.0
C387 C 0.53758 0.46371 0.02177 0.0
C388 C 0.44663 0.49609 0.93478 0.0
C389 C 0.40853 0.41479 0.05291 0.0
C390 C 0.428 0.39582 0.04785 0.0
C391 C 0.52554 0.52926 0.97732 0.0
C392 C 0.55041 0.51878 0.14585 0.0
C393 C 0.55223 0.52334 0.20245 0.0
C394 C 0.54387 0.49607 0.20818 0.0
C395 C 0.54241 0.49155 0.15206 0.0
C396 C 0.55539 0.53456 0.17105 0.0
C397 C 0.53908 0.4803 0.1831 0.0
C398 C 0.47485 0.54636 0.02533 0.0
C399 C 0.5521 0.53144 0.11296 0.0
H400 H 0.38577 0.51277 0.81694 0.0
H401 H 0.40763 0.53558 0.91068 0.0
H402 H 0.38004 0.54303 0.85648 0.0
H403 H 0.44811 0.46582 0.88645 0.0
H404 H 0.54145 0.48682 0.23212 0.0
H405 H 0.53862 0.47912 0.1329 0.0
H406 H 0.56122 0.55572 0.16605 0.0
H407 H 0.53277 0.4593 0.18774 0.0
H408 H 0.25501 0.17872 0.42663 0.0
H409 H 0.21687 0.14713 0.43372 0.0
H410 H 0.18629 0.19864 0.49457 0.0
H411 H 0.22391 0.23041 0.48722 0.0
H412 H 0.20469 0.11928 0.494 0.0
H413 H 0.11758 0.18658 0.4272 0.0
H414 H 0.15324 0.19273 0.42248 0.0
H415 H 0.14055 0.20182 0.45695 0.0
C416 C 0.23994 0.18346 0.44116 0.0
C417 C 0.24248 0.20705 0.45637 0.0
C418 C 0.21829 0.16534 0.44534 0.0
C419 C 0.19864 0.1707 0.46442 0.0
C420 C 0.20103 0.1943 0.47942 0.0
H421 H 0.08224 0.06513 0.55308 0.0
H422 H 0.11954 0.09644 0.54143 0.0
C423 C 0.22269 0.2123 0.47542 0.0
C424 C 0.17606 0.15129 0.46953 0.0
H425 H 0.10556 0.14583 0.45825 0.0
C426 C 0.18302 0.12501 0.48605 0.0
C427 C 0.14783 0.15879 0.45896 0.0
C428 C 0.13924 0.18643 0.44016 0.0
C429 C 0.16242 0.10622 0.4929 0.0
C430 C 0.13421 0.11402 0.48309 0.0
C431 C 0.12724 0.14006 0.46596 0.0
C432 C 0.11161 0.09528 0.49018 0.0
C433 C 0.17087 0.0781 0.5104 0.0
C434 C 0.0946 0.08467 0.46515 0.0
C435 C 0.07339 0.0668 0.47173 0.0
C436 C 0.06864 0.05949 0.50344 0.0
C437 C 0.08543 0.07048 0.52843 0.0
C438 C 0.10679 0.0882 0.52184 0.0
H439 H 0.19323 0.0736 0.51114 0.0
H440 H 0.16687 0.07664 0.53548 0.0
H441 H 0.15844 0.06227 0.49877 0.0
H442 H 0.09793 0.09003 0.44054 0.0
H443 H 0.06061 0.05877 0.45201 0.0
H444 H 0.30634 0.73652 0.06392 0.0
H445 H 0.33657 0.6963 0.06891 0.0
H446 H 0.37954 0.73738 0.99572 0.0
H447 H 0.35022 0.77797 0.99149 0.0
H448 H 0.34094 0.66507 0.02194 0.0
H449 H 0.4434 0.70709 0.06434 0.0
H450 H 0.41124 0.72456 0.0651 0.0
H451 H 0.42544 0.72684 0.02844 0.0
C452 C 0.32267 0.73724 0.04945 0.0
C453 C 0.32586 0.76046 0.02729 0.0
C454 C 0.33978 0.71416 0.05215 0.0
C455 C 0.36049 0.71393 0.03291 0.0
C456 C 0.36405 0.73725 0.01122 0.0
H457 H 0.43566 0.57302 0.97774 0.0
H458 H 0.40755 0.61314 0.9804 0.0
C459 C 0.34703 0.76033 0.00857 0.0
C460 C 0.37724 0.68878 0.03402 0.0
H461 H 0.44374 0.66438 0.0441 0.0
C462 C 0.36342 0.66483 0.02706 0.0
C463 C 0.40654 0.68844 0.04101 0.0
C464 C 0.42253 0.71303 0.05046 0.0
C465 C 0.37812 0.64071 0.02616 0.0
C466 C 0.40745 0.64073 0.03172 0.0
C467 C 0.42126 0.66449 0.03945 0.0
C468 C 0.42426 0.61625 0.03002 0.0
C469 C 0.36209 0.61537 0.01964 0.0
C470 C 0.44349 0.60508 0.05675 0.0
C471 C 0.4598 0.58235 0.05523 0.0
C472 C 0.45727 0.57032 0.02686 0.0
C473 C 0.43803 0.58162 1.00004 0.0
C474 C 0.4218 0.60447 1.00157 0.0
H475 H 0.34067 0.61657 0.02498 0.0
H476 H 0.36058 0.61317 0.99386 0.0
H477 H 0.37261 0.5968 0.03415 0.0
H478 H 0.44581 0.61391 0.0789 0.0
H479 H 0.47439 0.57426 0.07636 0.0
H480 H 0.76272 0.83362 0.62319 0.0
H481 H 0.80046 0.86518 0.61419 0.0
H482 H 0.82545 0.81606 0.54738 0.0
H483 H 0.7882 0.78437 0.55646 0.0
H484 H 0.85901 0.85453 0.62203 0.0
H485 H 0.81435 0.89326 0.49549 0.0
H486 H 0.79424 0.87473 0.52311 0.0
H487 H 0.8175 0.8567 0.50437 0.0
C488 C 0.7764 0.82943 0.6068 0.0
C489 C 0.77221 0.80665 0.59024 0.0
C490 C 0.79786 0.84753 0.60158 0.0
C491 C 0.81538 0.84323 0.57964 0.0
C492 C 0.81174 0.82012 0.56381 0.0
H493 H 0.95414 0.92611 0.50785 0.0
H494 H 0.9173 0.89465 0.5199 0.0
C495 C 0.79039 0.80205 0.56902 0.0
C496 C 0.83762 0.86273 0.57329 0.0
H497 H 0.86043 0.90608 0.51371 0.0
C498 C 0.85926 0.86596 0.59843 0.0
C499 C 0.83791 0.87751 0.54243 0.0
C500 C 0.81465 0.87563 0.51483 0.0
C501 C 0.88156 0.88315 0.59334 0.0
C502 C 0.8819 0.89785 0.56243 0.0
C503 C 0.86017 0.89471 0.53735 0.0
C504 C 0.90452 0.91676 0.5556 0.0
C505 C 0.90491 0.88489 0.62087 0.0
C506 C 0.90935 0.93981 0.57141 0.0
C507 C 0.93039 0.95783 0.56464 0.0
C508 C 0.94696 0.95329 0.54171 0.0
C509 C 0.94188 0.93026 0.5257 0.0
C510 C 0.92081 0.91224 0.53253 0.0
H511 H 0.90514 0.86728 0.64021 0.0
H512 H 0.92529 0.88564 0.61253 0.0
H513 H 0.90223 0.90384 0.63135 0.0
H514 H 0.89664 0.94402 0.5888 0.0
H515 H 0.93352 0.9754 0.57732 0.0
H516 H 0.70798 0.27407 0.98864 0.0
H517 H 0.67887 0.31501 0.98484 0.0
H518 H 0.62955 0.27124 0.04968 0.0
H519 H 0.65826 0.23013 0.05322 0.0
H520 H 0.59858 0.30491 0.994 0.0
H521 H 0.68302 0.36008 0.06151 0.0
H522 H 0.69149 0.34613 0.02743 0.0
H523 H 0.68409 0.32356 0.06169 0.0
C524 C 0.69066 0.27305 1.00166 0.0
C525 C 0.68551 0.24896 0.02141 0.0
C526 C 0.67423 0.2965 0.9997 0.0
C527 C 0.65237 0.29619 0.01736 0.0
C528 C 0.64647 0.27189 0.03604 0.0
H529 H 0.56103 0.42642 0.07229 0.0
H530 H 0.58917 0.38595 0.07047 0.0
C531 C 0.66295 0.2485 0.03815 0.0
C532 C 0.63612 0.32139 0.01725 0.0
H533 H 0.6409 0.38448 0.04155 0.0
C534 C 0.60781 0.32236 1.00425 0.0
C535 C 0.64823 0.34392 0.03109 0.0
C536 C 0.67832 0.34346 0.04649 0.0
C537 C 0.5913 0.34548 0.00444 0.0
C538 C 0.6035 0.36812 0.01785 0.0
C539 C 0.63174 0.36708 0.03109 0.0
C540 C 0.58709 0.39291 0.01888 0.0
C541 C 0.56079 0.3454 0.99093 0.0
C542 C 0.57707 0.41035 0.99051 0.0
C543 C 0.56126 0.43358 0.9915 0.0
C544 C 0.55512 0.43966 0.02089 0.0
C545 C 0.56552 0.42231 0.04932 0.0
C546 C 0.5815 0.39919 0.04832 0.0
H547 H 0.55371 0.32477 0.98611 0.0
H548 H 0.54836 0.35267 0.00782 0.0
H549 H 0.55664 0.35959 0.96803 0.0
H550 H 0.5815 0.40598 0.96761 0.0
H551 H 0.55377 0.44675 0.96926 0.0
H552 H 0.13926 0.89245 0.13749 0.0
H553 H 0.11676 0.90133 0.18221 0.0
H554 H 0.19662 0.90431 0.24185 0.0
H555 H 0.21946 0.89621 0.1968 0.0
H556 H 0.12256 0.8671 0.24152 0.0
H557 H 0.15545 0.9729 0.25733 0.0
H558 H 0.15737 0.95858 0.22097 0.0
H559 H 0.18262 0.94881 0.25631 0.0
C560 C 0.15212 0.89559 0.15986 0.0
C561 C 0.1812 0.8937 0.16349 0.0
C562 C 0.1392 0.90049 0.18547 0.0
C563 C 0.15501 0.90376 0.21524 0.0
C564 C 0.18403 0.90229 0.21893 0.0
H565 H 0.09718 0.91698 0.39746 0.0
H566 H 0.12691 0.91621 0.35624 0.0
C567 C 0.19703 0.89735 0.19327 0.0
C568 C 0.14082 0.9067 0.24283 0.0
H569 H 0.12891 0.95058 0.29467 0.0
C570 C 0.12399 0.88534 0.25316 0.0
C571 C 0.14297 0.9304 0.25819 0.0
C572 C 0.1604 0.95413 0.2476 0.0
C573 C 0.10896 0.88712 0.27815 0.0
C574 C 0.11036 0.91115 0.29285 0.0
C575 C 0.1278 0.93226 0.28322 0.0
C576 C 0.09277 0.91489 0.3172 0.0
C577 C 0.09168 0.8632 0.28864 0.0
C578 C 0.06383 0.91542 0.30863 0.0
C579 C 0.04693 0.91578 0.33197 0.0
C580 C 0.05862 0.91582 0.36438 0.0
C581 C 0.08761 0.91693 0.37268 0.0
C582 C 0.10459 0.91644 0.34922 0.0
H583 H 0.09857 0.844 0.28126 0.0
H584 H 0.09262 0.86012 0.31512 0.0
H585 H 0.06973 0.86728 0.27728 0.0
H586 H 0.0543 0.91481 0.28393 0.0
H587 H 0.02465 0.91553 0.32473 0.0
H588 H 0.62167 0.60609 0.72153 0.0
H589 H 0.60719 0.58722 0.77228 0.0
H590 H 0.60216 0.66837 0.7973 0.0
H591 H 0.61631 0.68754 0.74617 0.0
H592 H 0.63164 0.59361 0.838 0.0
H593 H 0.52376 0.63536 0.80196 0.0
H594 H 0.54655 0.63283 0.77312 0.0
H595 H 0.55139 0.65918 0.79841 0.0
C596 C 0.61744 0.61995 0.7378 0.0
C597 C 0.61984 0.64834 0.72969 0.0
C598 C 0.60934 0.60912 0.76685 0.0
C599 C 0.60329 0.62642 0.78832 0.0
C600 C 0.60644 0.65471 0.78084 0.0
H601 H 0.52834 0.58444 0.96129 0.0
H602 H 0.54952 0.60927 0.91778 0.0
C603 C 0.61472 0.6656 0.75177 0.0
C604 C 0.59294 0.61465 0.81802 0.0
H605 H 0.53471 0.60916 0.85295 0.0
C606 C 0.61051 0.59711 0.84141 0.0
C607 C 0.5654 0.61936 0.8224 0.0
C608 C 0.54551 0.63755 0.79763 0.0
C609 C 0.60118 0.58398 0.86903 0.0
C610 C 0.57334 0.58797 0.87289 0.0
C611 C 0.556 0.60605 0.84987 0.0
C612 C 0.5615 0.57289 0.90003 0.0
C613 C 0.62126 0.56612 0.89394 0.0
C614 C 0.5609 0.54422 0.90429 0.0
C615 C 0.54909 0.53002 0.92935 0.0
C616 C 0.53758 0.54426 0.95052 0.0
C617 C 0.5377 0.57295 0.94583 0.0
C618 C 0.5496 0.58715 0.92085 0.0
H619 H 0.6431 0.57161 0.89236 0.0
H620 H 0.61742 0.56772 0.91861 0.0
H621 H 0.61863 0.54451 0.88986 0.0
H622 H 0.5693 0.53281 0.88801 0.0
H623 H 0.54915 0.5079 0.93229 0.0
H624 H 0.81634 0.07588 0.19711 0.0
H625 H 0.83955 0.06358 0.25279 0.0
H626 H 0.91913 0.07178 0.22164 0.0
H627 H 0.89619 0.0846 0.1661 0.0
H628 H 0.87954 0.01963 0.27918 0.0
H629 H 0.92199 0.12269 0.29206 0.0
H630 H 0.89403 0.11684 0.26052 0.0
H631 H 0.92918 0.10868 0.25749 0.0
C632 C 0.83879 0.07515 0.20216 0.0
C633 C 0.85445 0.08131 0.17725 0.0
C634 C 0.85197 0.068 0.2339 0.0
C635 C 0.881 0.06716 0.24127 0.0
C636 C 0.89669 0.0727 0.21643 0.0
H637 H 0.00392 0.0361 0.41238 0.0
H638 H 0.97815 0.04686 0.3578 0.0
C639 C 0.88355 0.07973 0.1847 0.0
C640 C 0.89497 0.06059 0.27496 0.0
H641 H 0.93771 0.08704 0.33431 0.0
C642 C 0.89214 0.03436 0.29137 0.0
C643 C 0.91134 0.07993 0.29066 0.0
C644 C 0.91421 0.10871 0.27445 0.0
C645 C 0.90595 0.02668 0.32292 0.0
C646 C 0.92251 0.04597 0.33855 0.0
C647 C 0.92505 0.0723 0.32221 0.0
C648 C 0.93786 0.03914 0.37165 0.0
C649 C 0.90336 0.99776 0.33887 0.0
C650 C 0.92371 0.03142 0.39752 0.0
C651 C 0.93841 0.025 0.42865 0.0
C652 C 0.96744 0.02666 0.43451 0.0
C653 C 0.98154 0.03456 0.40859 0.0
C654 C 0.96686 0.04083 0.37744 0.0
H655 H 0.89585 0.98385 0.32108 0.0
H656 H 0.92355 0.98973 0.35284 0.0
H657 H 0.88823 0.99745 0.3557 0.0
H658 H 0.90131 0.03042 0.39365 0.0
H659 H 0.92707 0.01847 0.44805 0.0
H660 H 0.40537 0.31105 0.6469 0.0
H661 H 0.41719 0.33359 0.69485 0.0
H662 H 0.40687 0.41225 0.63582 0.0
H663 H 0.39486 0.38991 0.58776 0.0
H664 H 0.45415 0.4074 0.6864 0.0
H665 H 0.35677 0.37286 0.73004 0.0
H666 H 0.37852 0.34642 0.72175 0.0
H667 H 0.36219 0.3713 0.68943 0.0
C668 C 0.40568 0.33315 0.64411 0.0
C669 C 0.39886 0.34869 0.61353 0.0
C670 C 0.41246 0.34598 0.67153 0.0
C671 C 0.41243 0.37457 0.66891 0.0
C672 C 0.40694 0.39014 0.63834 0.0
H673 H 0.42048 0.50277 0.78522 0.0
H674 H 0.42269 0.47369 0.74389 0.0
C675 C 0.40019 0.37733 0.61089 0.0
C676 C 0.4167 0.38837 0.69802 0.0
H677 H 0.38666 0.39903 0.7623 0.0
C678 C 0.43951 0.40548 0.70313 0.0
C679 C 0.39761 0.38571 0.71986 0.0
C680 C 0.37226 0.36827 0.71502 0.0
C681 C 0.4436 0.42022 0.72938 0.0
C682 C 0.42404 0.4182 0.75066 0.0
C683 C 0.40167 0.4005 0.74602 0.0
C684 C 0.4251 0.43572 0.77643 0.0
C685 C 0.46886 0.43777 0.73408 0.0
C686 C 0.42532 0.42407 0.80849 0.0
C687 C 0.42366 0.4407 0.8322 0.0
C688 C 0.42145 0.46927 0.82418 0.0
C689 C 0.42182 0.48083 0.79215 0.0
C690 C 0.42349 0.46424 0.76854 0.0
H691 H 0.48583 0.43036 0.72283 0.0
H692 H 0.46332 0.45897 0.72249 0.0
H693 H 0.47667 0.43821 0.75998 0.0
H694 H 0.42629 0.40209 0.81505 0.0
H695 H 0.42319 0.43115 0.85657 0.0
H696 H 0.5762 0.65126 0.45167 0.0
H697 H 0.56177 0.62515 0.40714 0.0
H698 H 0.6408 0.6394 0.37591 0.0
H699 H 0.6559 0.66422 0.42102 0.0
H700 H 0.55659 0.64001 0.34172 0.0
H701 H 0.63568 0.55724 0.3824 0.0
H702 H 0.62847 0.58164 0.40791 0.0
H703 H 0.6506 0.59049 0.37831 0.0
C704 C 0.59064 0.64856 0.43555 0.0
C705 C 0.61729 0.65977 0.44009 0.0
C706 C 0.58227 0.63381 0.40998 0.0
C707 C 0.6004 0.6299 0.38856 0.0
C708 C 0.62669 0.64164 0.39255 0.0
H709 H 0.59587 0.55696 0.21553 0.0
H710 H 0.60579 0.5835 0.26038 0.0
C711 C 0.63513 0.6562 0.41814 0.0
C712 C 0.59192 0.61371 0.36189 0.0
H713 H 0.61141 0.55928 0.32875 0.0
C714 C 0.5684 0.62221 0.33903 0.0
C715 C 0.60731 0.5904 0.35851 0.0
C716 C 0.63174 0.57922 0.38327 0.0
C717 C 0.5604 0.6085 0.31231 0.0
C718 C 0.57624 0.58569 0.30857 0.0
C719 C 0.59946 0.57694 0.33164 0.0
C720 C 0.56929 0.57067 0.28069 0.0
C721 C 0.5355 0.61885 0.28782 0.0
C722 C 0.54553 0.55464 0.27742 0.0
C723 C 0.53985 0.53938 0.25189 0.0
C724 C 0.55782 0.53999 0.22917 0.0
C725 C 0.58148 0.55631 0.23243 0.0
C726 C 0.58723 0.57138 0.25807 0.0
H727 H 0.52832 0.63934 0.29134 0.0
H728 H 0.54037 0.61999 0.26312 0.0
H729 H 0.51823 0.60441 0.28989 0.0
H730 H 0.5316 0.55362 0.29487 0.0
H731 H 0.52135 0.52718 0.24987 0.0
H732 H 0.82591 0.15509 0.85689 0.0
H733 H 0.85025 0.14275 0.81493 0.0
H734 H 0.85946 0.05971 0.86242 0.0
H735 H 0.83428 0.07148 0.90391 0.0
H736 H 0.91133 0.09428 0.84552 0.0
H737 H 0.82405 0.08592 0.74561 0.0
H738 H 0.82349 0.11354 0.76905 0.0
H739 H 0.8197 0.07913 0.78729 0.0
C740 C 0.83251 0.13405 0.85808 0.0
C741 C 0.8282 0.11431 0.88391 0.0
C742 C 0.84654 0.1271 0.83416 0.0
C743 C 0.85654 0.10036 0.83568 0.0
C744 C 0.85185 0.08047 0.86094 0.0
H745 H 0.97315 0.02837 0.73546 0.0
H746 H 0.94336 0.03787 0.77369 0.0
C747 C 0.83765 0.08732 0.88473 0.0
C748 C 0.87343 0.09355 0.81202 0.0
H749 H 0.86938 0.08049 0.73489 0.0
C750 C 0.90225 0.09115 0.82134 0.0
C751 C 0.86138 0.0898 0.78055 0.0
C752 C 0.83044 0.09209 0.7698 0.0
C753 C 0.91952 0.08541 0.79975 0.0
C754 C 0.90749 0.08115 0.76829 0.0
C755 C 0.87857 0.08361 0.75902 0.0
C756 C 0.92462 0.07456 0.74453 0.0
C757 C 0.95051 0.08477 0.81063 0.0
C758 C 0.92318 0.09136 0.71487 0.0
C759 C 0.9399 0.08574 0.69282 0.0
C760 C 0.95845 0.06326 0.70009 0.0
C761 C 0.95943 0.04612 0.7295 0.0
C762 C 0.94248 0.05158 0.75138 0.0
H763 H 0.95643 0.09614 0.83137 0.0
H764 H 0.95773 0.06327 0.81836 0.0
H765 H 0.96151 0.09366 0.79088 0.0
H766 H 0.90946 0.10913 0.70902 0.0
H767 H 0.93879 0.09934 0.67038 0.0
H768 H 0.40191 0.32482 0.30624 0.0
H769 H 0.41744 0.34378 0.25588 0.0
H770 H 0.4157 0.42463 0.2826 0.0
H771 H 0.40026 0.40593 0.33278 0.0
H772 H 0.39437 0.3834 0.20497 0.0
H773 H 0.49512 0.41688 0.26618 0.0
H774 H 0.47294 0.39378 0.28662 0.0
H775 H 0.46583 0.42998 0.28017 0.0
C776 C 0.40459 0.34666 0.30122 0.0
C777 C 0.40022 0.36382 0.32373 0.0
C778 C 0.41355 0.35745 0.2725 0.0
C779 C 0.41831 0.38554 0.26582 0.0
C780 C 0.41288 0.40281 0.28764 0.0
H781 H 0.4392 0.48585 0.08827 0.0
H782 H 0.42156 0.46124 0.13454 0.0
C783 C 0.40405 0.39207 0.31632 0.0
C784 C 0.4293 0.39691 0.2363 0.0
H785 H 0.48274 0.43364 0.21052 0.0
C786 C 0.41377 0.39424 0.20614 0.0
C787 C 0.45485 0.41066 0.23785 0.0
C788 C 0.47331 0.41279 0.26943 0.0
C789 C 0.42271 0.40571 0.17752 0.0
C790 C 0.44761 0.42054 0.17918 0.0
C791 C 0.46351 0.42251 0.2093 0.0
C792 C 0.45753 0.43442 0.15004 0.0
C793 C 0.40564 0.40158 0.14575 0.0
C794 C 0.48377 0.42784 0.14362 0.0
C795 C 0.49384 0.44185 0.11715 0.0
C796 C 0.47792 0.46284 0.09676 0.0
C797 C 0.45166 0.4694 0.1032 0.0
C798 C 0.44156 0.45533 0.12962 0.0
H799 H 0.39151 0.38404 0.1484 0.0
H800 H 0.39275 0.42018 0.13587 0.0
H801 H 0.41917 0.39805 0.12811 0.0
H802 H 0.49652 0.41189 0.15918 0.0
H803 H 0.51411 0.43629 0.11268 0.0
H804 H 0.14647 0.96534 0.87464 0.0
H805 H 0.12388 0.97895 0.81899 0.0
H806 H 0.13501 0.89716 0.79851 0.0
H807 H 0.15687 0.88311 0.85413 0.0
H808 H 0.15201 0.94194 0.75276 0.0
H809 H 0.04499 0.95381 0.77839 0.0
H810 H 0.07201 0.97061 0.80205 0.0
H811 H 0.07171 0.934 0.80635 0.0
C812 C 0.14383 0.95015 0.85842 0.0
C813 C 0.15354 0.92313 0.86891 0.0
C814 C 0.13102 0.958 0.82663 0.0
C815 C 0.1277 0.939 0.8048 0.0
C816 C 0.13748 0.91211 0.81504 0.0
H817 H 0.02803 0.94621 0.61599 0.0
H818 H 0.05194 0.93259 0.67114 0.0
C819 C 0.15012 0.9042 0.84681 0.0
C820 C 0.11416 0.94708 0.77115 0.0
H821 H 0.05179 0.96627 0.72465 0.0
C822 C 0.13012 0.94731 0.74656 0.0
C823 C 0.08556 0.95376 0.76326 0.0
C824 C 0.0674 0.9529 0.78879 0.0
C825 C 0.11821 0.95438 0.71417 0.0
C826 C 0.08972 0.96144 0.70636 0.0
C827 C 0.07369 0.96095 0.73088 0.0
C828 C 0.0761 0.96928 0.67276 0.0
C829 C 0.13598 0.95394 0.68843 0.0
C830 C 0.08187 0.99437 0.65557 0.0
C831 C 0.06832 0.00214 0.62414 0.0
C832 C 0.04882 0.9849 0.60946 0.0
C833 C 0.04321 0.95971 0.62665 0.0
C834 C 0.05669 0.952 0.65814 0.0
H835 H 0.15641 0.94371 0.69802 0.0
H836 H 0.12523 0.9433 0.66874 0.0
H837 H 0.13964 0.97522 0.67796 0.0
H838 H 0.09663 0.00806 0.66663 0.0
H839 H 0.07309 0.02162 0.61131 0.0
loop_
_geom_bond_atom_site_label_1
_geom_bond_atom_site_label_2
_geom_bond_distance
_geom_bond_site_symmetry_2
_ccdc_geom_bond_type
C0 C1 1.391 . S
C0 C4 1.391 . S
C0 H42 0.948 . S
C1 C0 1.391 . S
C1 C2 1.391 . S
C2 C1 1.391 . S
C2 H58 0.947 . S
C2 C59 1.392 . S
C3 C4 1.391 . S
C3 C7 1.397 . S
C3 C59 1.419 . S
C4 C0 1.391 . S
C4 C3 1.391 . S
C4 C5 1.399 . S
C5 C4 1.399 . S
C5 C8 1.396 . S
C5 C17 1.453 . S
C5 C18 1.684 . S
H6 C30 0.948 . S
C7 C3 1.397 . S
C7 C8 1.394 . S
C7 C26 1.723 1_556 S
C8 C5 1.396 . S
C8 C7 1.394 . S
C8 C38 1.723 1_556 S
H9 C32 0.947 . S
H10 C33 0.948 . S
H11 C39 0.982 . S
H12 C40 0.979 . S
H13 C40 0.980 . S
H14 C40 0.983 . S
H15 C39 0.979 . S
H16 C39 0.977 . S
C17 C5 1.453 . S
C17 H46 0.982 . S
C17 H47 0.979 . S
C17 H48 0.977 . S
C18 C5 1.684 . S
C18 H43 0.979 . S
C18 H44 0.980 . S
C18 H45 0.983 . S
C19 C20 1.391 . S
C19 C24 1.391 . S
C19 H49 0.948 . S
C20 C19 1.391 . S
C20 C21 1.391 . S
C21 C20 1.391 . S
C21 C22 1.392 . S
C21 H50 0.947 . S
C22 C21 1.392 . S
C22 C23 1.419 . S
C22 H51 0.948 . S
C23 C22 1.419 . S
C23 C24 1.391 . S
C23 C27 1.397 . S
C24 C19 1.391 . S
C24 C23 1.391 . S
C24 C25 1.399 . S
C25 C24 1.399 . S
C25 C26 1.396 . S
C25 C28 1.453 . S
C25 C29 1.684 . S
C26 C7 1.723 1_554 S
C26 C25 1.396 . S
C26 C27 1.394 . S
C27 C23 1.397 . S
C27 C26 1.394 . S
C27 C37 1.723 . S
C28 C25 1.453 . S
C28 H52 0.982 . S
C28 H53 0.979 . S
C28 H54 0.977 . S
C29 C25 1.684 . S
C29 H55 0.979 . S
C29 H56 0.982 1_554 S
C29 H57 0.983 . S
C30 H6 0.948 . S
C30 C31 1.391 . S
C30 C35 1.391 . S
C31 C30 1.391 . S
C31 C32 1.391 1_554 S
C32 H9 0.947 . S
C32 C31 1.391 1_556 S
C32 C33 1.392 . S
C33 H10 0.948 . S
C33 C32 1.392 . S
C33 C34 1.419 1_556 S
C34 C33 1.419 1_554 S
C34 C35 1.391 . S
C34 C38 1.397 . S
C35 C30 1.391 . S
C35 C34 1.391 . S
C35 C36 1.399 . S
C36 C35 1.399 . S
C36 C37 1.396 . S
C36 C39 1.453 . S
C36 C40 1.684 . S
C37 C27 1.723 . S
C37 C36 1.396 . S
C37 C38 1.394 . S
C38 C8 1.723 1_554 S
C38 C34 1.397 . S
C38 C37 1.394 . S
C39 H11 0.982 . S
C39 H15 0.979 . S
C39 H16 0.977 . S
C39 C36 1.453 . S
C40 H12 0.979 . S
C40 H13 0.980 . S
C40 H14 0.983 . S
C40 C36 1.684 . S
H41 C59 0.948 . S
H42 C0 0.948 . S
H43 C18 0.979 . S
H44 C18 0.980 . S
H45 C18 0.983 . S
H46 C17 0.982 . S
H47 C17 0.979 . S
H48 C17 0.977 . S
H49 C19 0.948 . S
H50 C21 0.947 . S
H51 C22 0.948 . S
H52 C28 0.982 . S
H53 C28 0.979 . S
H54 C28 0.977 . S
H55 C29 0.979 . S
H56 C29 0.982 1_556 S
H57 C29 0.983 . S
H58 C2 0.947 . S
C59 C2 1.392 . S
C59 C3 1.419 . S
C59 H41 0.948 . S
C60 C61 1.391 . S
C60 C64 1.391 . S
C60 H102 0.948 . S
C61 C60 1.391 . S
C61 C62 1.391 . S
C62 C61 1.391 . S
C62 H118 0.947 . S
C62 C119 1.392 . S
C63 C64 1.391 . S
C63 C67 1.397 . S
C63 C119 1.419 . S
C64 C60 1.391 . S
C64 C63 1.391 . S
C64 C65 1.399 . S
C65 C64 1.399 . S
C65 C68 1.396 . S
C65 C77 1.453 . S
C65 C78 1.684 . S
H66 C90 0.948 . S
C67 C63 1.397 . S
C67 C68 1.394 . S
C67 C86 1.723 . S
C68 C65 1.396 . S
C68 C67 1.394 . S
C68 C98 1.723 . S
H69 C92 0.947 . S
H70 C93 0.948 . S
H71 C99 0.982 . S
H72 C100 0.979 . S
H73 C100 0.980 . S
H74 C100 0.983 . S
H75 C99 0.979 . S
H76 C99 0.977 . S
C77 C65 1.453 . S
C77 H106 0.982 . S
C77 H107 0.979 . S
C77 H108 0.977 . S
C78 C65 1.684 . S
C78 H103 0.979 . S
C78 H104 0.980 . S
C78 H105 0.983 . S
C79 C80 1.391 . S
C79 C84 1.391 . S
C79 H109 0.948 . S
C80 C79 1.391 . S
C80 C81 1.391 . S
C81 C80 1.391 . S
C81 C82 1.392 . S
C81 H110 0.947 . S
C82 C81 1.392 . S
C82 C83 1.419 . S
C82 H111 0.948 . S
C83 C82 1.419 . S
C83 C84 1.391 . S
C83 C87 1.397 . S
C84 C79 1.391 . S
C84 C83 1.391 . S
C84 C85 1.399 . S
C85 C84 1.399 . S
C85 C86 1.396 . S
C85 C88 1.453 . S
C85 C89 1.684 . S
C86 C67 1.723 . S
C86 C85 1.396 . S
C86 C87 1.394 . S
C87 C83 1.397 . S
C87 C86 1.394 . S
C87 C97 1.723 . S
C88 C85 1.453 . S
C88 H112 0.982 . S
C88 H113 0.979 . S
C88 H114 0.977 . S
C89 C85 1.684 . S
C89 H115 0.979 . S
C89 H116 0.980 . S
C89 H117 0.983 . S
C90 H66 0.948 . S
C90 C91 1.391 . S
C90 C95 1.391 . S
C91 C90 1.391 . S
C91 C92 1.391 . S
C92 H69 0.947 . S
C92 C91 1.391 . S
C92 C93 1.392 . S
C93 H70 0.948 . S
C93 C92 1.392 . S
C93 C94 1.419 . S
C94 C93 1.419 . S
C94 C95 1.391 . S
C94 C98 1.397 . S
C95 C90 1.391 . S
C95 C94 1.391 . S
C95 C96 1.399 . S
C96 C95 1.399 . S
C96 C97 1.396 . S
C96 C99 1.453 . S
C96 C100 1.684 . S
C97 C87 1.723 . S
C97 C96 1.396 . S
C97 C98 1.394 . S
C98 C68 1.723 . S
C98 C94 1.397 . S
C98 C97 1.394 . S
C99 H71 0.982 . S
C99 H75 0.979 . S
C99 H76 0.977 . S
C99 C96 1.453 . S
C100 H72 0.979 . S
C100 H73 0.980 . S
C100 H74 0.983 . S
C100 C96 1.684 . S
H101 C119 0.948 . S
H102 C60 0.948 . S
H103 C78 0.979 . S
H104 C78 0.980 . S
H105 C78 0.983 . S
H106 C77 0.982 . S
H107 C77 0.979 . S
H108 C77 0.977 . S
H109 C79 0.948 . S
H110 C81 0.947 . S
H111 C82 0.948 . S
H112 C88 0.982 . S
H113 C88 0.979 . S
H114 C88 0.977 . S
H115 C89 0.979 . S
H116 C89 0.980 . S
H117 C89 0.983 . S
H118 C62 0.947 . S
C119 C62 1.392 . S
C119 C63 1.419 . S
C119 H101 0.948 . S
C120 C121 1.391 . S
C120 C124 1.391 . S
C120 H162 0.948 . S
C121 C120 1.391 . S
C121 C122 1.391 . S
C122 C121 1.391 . S
C122 H178 0.947 . S
C122 C179 1.392 . S
C123 C124 1.391 . S
C123 C127 1.397 . S
C123 C179 1.419 . S
C124 C120 1.391 . S
C124 C123 1.391 . S
C124 C125 1.399 . S
C125 C124 1.399 . S
C125 C128 1.396 . S
C125 C137 1.453 . S
C125 C138 1.684 . S
H126 C150 0.948 . S
C127 C123 1.397 . S
C127 C128 1.394 . S
C127 C146 1.723 . S
C128 C125 1.396 . S
C128 C127 1.394 . S
C128 C158 1.723 . S
H129 C152 0.947 . S
H130 C153 0.948 . S
H131 C159 0.982 . S
H132 C160 0.979 . S
H133 C160 0.980 . S
H134 C160 0.983 . S
H135 C159 0.979 . S
H136 C159 0.977 . S
C137 C125 1.453 . S
C137 H166 0.982 . S
C137 H167 0.979 . S
C137 H168 0.977 . S
C138 C125 1.684 . S
C138 H163 0.979 . S
C138 H164 0.980 . S
C138 H165 0.983 . S
C139 C140 1.391 . S
C139 C144 1.391 . S
C139 H169 0.948 . S
C140 C139 1.391 . S
C140 C141 1.391 . S
C141 C140 1.391 . S
C141 C142 1.392 . S
C141 H170 0.947 . S
C142 C141 1.392 . S
C142 C143 1.419 . S
C142 H171 0.948 . S
C143 C142 1.419 . S
C143 C144 1.391 . S
C143 C147 1.397 . S
C144 C139 1.391 . S
C144 C143 1.391 . S
C144 C145 1.399 1_556 S
C145 C144 1.399 1_554 S
C145 C146 1.396 . S
C145 C148 1.453 . S
C145 C149 1.684 . S
C146 C127 1.723 . S
C146 C145 1.396 . S
C146 C147 1.394 1_554 S
C147 C143 1.397 . S
C147 C146 1.394 1_556 S
C147 C157 1.723 . S
C148 C145 1.453 . S
C148 H172 0.982 . S
C148 H173 0.979 . S
C148 H174 0.977 . S
C149 C145 1.684 . S
C149 H175 0.979 . S
C149 H176 0.980 . S
C149 H177 0.983 . S
C150 H126 0.948 . S
C150 C151 1.391 1_556 S
C150 C155 1.391 . S
C151 C150 1.391 1_554 S
C151 C152 1.391 . S
C152 H129 0.947 . S
C152 C151 1.391 . S
C152 C153 1.392 . S
C153 H130 0.948 . S
C153 C152 1.392 . S
C153 C154 1.419 . S
C154 C153 1.419 . S
C154 C155 1.391 1_554 S
C154 C158 1.397 . S
C155 C150 1.391 . S
C155 C154 1.391 1_556 S
C155 C156 1.399 . S
C156 C155 1.399 . S
C156 C157 1.396 . S
C156 C159 1.453 . S
C156 C160 1.684 . S
C157 C147 1.723 . S
C157 C156 1.396 . S
C157 C158 1.394 1_556 S
C158 C128 1.723 . S
C158 C154 1.397 . S
C158 C157 1.394 1_554 S
C159 H131 0.982 . S
C159 H135 0.979 . S
C159 H136 0.977 . S
C159 C156 1.453 . S
C160 H132 0.979 . S
C160 H133 0.980 . S
C160 H134 0.983 . S
C160 C156 1.684 . S
H161 C179 0.948 . S
H162 C120 0.948 . S
H163 C138 0.979 . S
H164 C138 0.980 . S
H165 C138 0.983 . S
H166 C137 0.982 . S
H167 C137 0.979 . S
H168 C137 0.977 . S
H169 C139 0.948 . S
H170 C141 0.947 . S
H171 C142 0.948 . S
H172 C148 0.982 . S
H173 C148 0.979 . S
H174 C148 0.977 . S
H175 C149 0.979 . S
H176 C149 0.980 . S
H177 C149 0.983 . S
H178 C122 0.947 . S
C179 C122 1.392 . S
C179 C123 1.419 . S
C179 H161 0.948 . S
C180 C181 1.391 . S
C180 C184 1.391 . S
C180 H222 0.948 . S
C181 C180 1.391 . S
C181 C182 1.391 . S
C182 C181 1.391 . S
C182 H238 0.947 . S
C182 C239 1.392 . S
C183 C184 1.391 . S
C183 C187 1.397 . S
C183 C239 1.419 . S
C184 C180 1.391 . S
C184 C183 1.391 . S
C184 C185 1.399 . S
C185 C184 1.399 . S
C185 C188 1.396 . S
C185 C197 1.453 . S
C185 C198 1.684 . S
H186 C210 0.948 . S
C187 C183 1.397 . S
C187 C188 1.394 . S
C187 C206 1.723 . S
C188 C185 1.396 . S
C188 C187 1.394 . S
C188 C218 1.723 . S
H189 C212 0.947 . S
H190 C213 0.948 . S
H191 C219 0.982 . S
H192 C220 0.979 . S
H193 C220 0.980 . S
H194 C220 0.983 . S
H195 C219 0.979 . S
H196 C219 0.977 . S
C197 C185 1.453 . S
C197 H226 0.982 . S
C197 H227 0.979 . S
C197 H228 0.977 . S
C198 C185 1.684 . S
C198 H223 0.979 . S
C198 H224 0.980 . S
C198 H225 0.983 . S
C199 C200 1.391 . S
C199 C204 1.391 . S
C199 H229 0.948 . S
C200 C199 1.391 . S
C200 C201 1.391 . S
C201 C200 1.391 . S
C201 C202 1.392 . S
C201 H230 0.947 . S
C202 C201 1.392 . S
C202 C203 1.419 . S
C202 H231 0.948 . S
C203 C202 1.419 . S
C203 C204 1.391 . S
C203 C207 1.397 . S
C204 C199 1.391 . S
C204 C203 1.391 . S
C204 C205 1.399 . S
C205 C204 1.399 . S
C205 C206 1.396 . S
C205 C208 1.453 . S
C205 C209 1.684 . S
C206 C187 1.723 . S
C206 C205 1.396 . S
C206 C207 1.394 . S
C207 C203 1.397 . S
C207 C206 1.394 . S
C207 C217 1.723 . S
C208 C205 1.453 . S
C208 H232 0.982 . S
C208 H233 0.979 . S
C208 H234 0.977 . S
C209 C205 1.684 . S
C209 H235 0.979 . S
C209 H236 0.980 . S
C209 H237 0.983 . S
C210 H186 0.948 . S
C210 C211 1.391 . S
C210 C215 1.391 . S
C211 C210 1.391 . S
C211 C212 1.391 . S
C212 H189 0.947 . S
C212 C211 1.391 . S
C212 C213 1.392 . S
C213 H190 0.948 . S
C213 C212 1.392 . S
C213 C214 1.419 . S
C214 C213 1.419 . S
C214 C215 1.391 . S
C214 C218 1.397 . S
C215 C210 1.391 . S
C215 C214 1.391 . S
C215 C216 1.399 . S
C216 C215 1.399 . S
C216 C217 1.396 . S
C216 C219 1.453 . S
C216 C220 1.684 . S
C217 C207 1.723 . S
C217 C216 1.396 . S
C217 C218 1.394 . S
C218 C188 1.723 . S
C218 C214 1.397 . S
C218 C217 1.394 . S
C219 H191 0.982 . S
C219 H195 0.979 . S
C219 H196 0.977 . S
C219 C216 1.453 . S
C220 H192 0.979 . S
C220 H193 0.980 . S
C220 H194 0.983 . S
C220 C216 1.684 . S
H221 C239 0.948 . S
H222 C180 0.948 . S
H223 C198 0.979 . S
H224 C198 0.980 . S
H225 C198 0.983 . S
H226 C197 0.982 . S
H227 C197 0.979 . S
H228 C197 0.977 . S
H229 C199 0.948 . S
H230 C201 0.947 . S
H231 C202 0.948 . S
H232 C208 0.982 . S
H233 C208 0.979 . S
H234 C208 0.977 . S
H235 C209 0.979 . S
H236 C209 0.980 . S
H237 C209 0.983 . S
H238 C182 0.947 . S
C239 C182 1.392 . S
C239 C183 1.419 . S
C239 H221 0.948 . S
Eu240 N269 2.600 . S
Eu240 N275 2.562 . S
Eu240 O284 2.462 . S
Eu240 O285 2.373 . S
Eu240 O287 2.432 . S
Eu240 O288 2.291 1_565 S
Eu240 O292 2.357 1_455 S
Eu240 O295 2.372 1_455 S
Eu240 C304 2.787 . S
C241 N242 1.365 . S
C241 C244 1.405 . S
C241 C248 1.448 . S
N242 C241 1.365 . S
N242 C245 1.319 1_655 S
N242 Eu251 2.600 . S
C243 C245 1.397 . S
C243 C246 1.337 1_455 S
C243 H263 0.961 . S
C244 C241 1.405 . S
C244 C246 1.403 . S
C244 C250 1.439 . S
C245 N242 1.319 1_455 S
C245 C243 1.397 . S
C245 H256 0.930 . S
C246 C243 1.337 1_655 S
C246 C244 1.403 . S
C246 H267 0.929 . S
C247 C248 1.430 . S
C247 C249 1.387 . S
C247 C253 1.404 . S
C248 C241 1.448 . S
C248 C247 1.430 . S
C248 N252 1.351 . S
C249 C247 1.387 . S
C249 C250 1.374 . S
C249 H264 0.931 . S
C250 C244 1.439 . S
C250 C249 1.374 . S
C250 H265 0.931 . S
Eu251 N242 2.600 . S
Eu251 N252 2.562 . S
Eu251 O286 2.335 1_655 S
Eu251 O289 2.372 1_655 S
Eu251 O290 2.462 . S
Eu251 O291 2.373 . S
Eu251 O293 2.432 . S
Eu251 O294 2.291 1_545 S
Eu251 C315 2.787 . S
N252 C248 1.351 . S
N252 Eu251 2.562 . S
N252 C254 1.325 . S
C253 C247 1.404 . S
C253 C255 1.366 . S
C253 H261 0.930 . S
C254 N252 1.325 . S
C254 C255 1.416 . S
C254 H260 0.929 . S
C255 C253 1.366 . S
C255 C254 1.416 . S
C255 H257 0.930 . S
H256 C245 0.930 . S
H257 C255 0.930 . S
H258 C273 0.930 1_655 S
H259 C280 0.930 . S
H260 C254 0.929 . S
H261 C253 0.930 . S
H262 C276 0.929 . S
H263 C243 0.961 . S
H264 C249 0.931 . S
H265 C250 0.931 . S
H266 C271 0.931 1_655 S
H267 C246 0.929 . S
H268 C279 0.930 . S
N269 Eu240 2.600 . S
N269 C270 1.365 . S
N269 C273 1.319 . S
C270 N269 1.365 . S
C270 C272 1.405 . S
C270 C278 1.448 . S
C271 H266 0.931 1_455 S
C271 C273 1.397 . S
C271 C274 1.367 . S
C272 C270 1.405 . S
C272 C274 1.403 . S
C272 C305 1.439 . S
C273 H258 0.930 1_455 S
C273 N269 1.319 . S
C273 C271 1.397 . S
C274 C271 1.367 . S
C274 C272 1.403 . S
C274 H281 0.929 . S
N275 Eu240 2.562 . S
N275 C276 1.325 . S
N275 C278 1.351 . S
C276 H262 0.929 . S
C276 N275 1.325 . S
C276 C280 1.416 . S
C277 C278 1.430 . S
C277 C279 1.404 . S
C277 C306 1.387 . S
C278 C270 1.448 . S
C278 N275 1.351 . S
C278 C277 1.430 . S
C279 H268 0.930 . S
C279 C277 1.404 . S
C279 C280 1.366 . S
C280 H259 0.930 . S
C280 C276 1.416 . S
C280 C279 1.366 . S
H281 C274 0.929 . S
H282 C305 0.931 . S
H283 C306 0.931 . S
O284 Eu240 2.462 . S
O284 C304 1.252 . S
O285 Eu240 2.373 . S
O285 C296 1.249 . S
O286 Eu251 2.335 1_455 S
O286 C296 1.264 1_545 S
O287 Eu240 2.432 . S
O287 C304 1.268 . S
O288 Eu240 2.291 1_545 S
O288 C303 1.255 . S
O289 Eu251 2.372 1_455 S
O289 C303 1.257 . S
O290 Eu251 2.462 . S
O290 C315 1.252 . S
O291 Eu251 2.373 . S
O291 C307 1.249 . S
O292 Eu240 2.357 1_655 S
O292 C307 1.230 1_565 S
O293 Eu251 2.432 . S
O293 C315 1.268 . S
O294 Eu251 2.291 1_565 S
O294 C314 1.255 . S
O295 Eu240 2.372 1_655 S
O295 C314 1.257 . S
C296 O285 1.249 . S
C296 O286 1.264 1_565 S
C297 C300 1.382 . S
C297 C302 1.390 . S
C297 C304 1.506 . S
C298 C299 1.398 . S
C298 C302 1.392 . S
C299 C298 1.398 . S
C299 C301 1.372 . S
C299 H316 0.931 . S
C300 C297 1.382 . S
C300 C301 1.390 . S
C300 H317 0.931 . S
C301 C299 1.372 . S
C301 C300 1.390 . S
C301 H318 0.929 . S
C302 C297 1.390 . S
C302 C298 1.392 . S
C302 H319 0.930 . S
C303 O288 1.255 . S
C303 O289 1.257 . S
C304 Eu240 2.787 . S
C304 O284 1.252 . S
C304 O287 1.268 . S
C304 C297 1.506 . S
C305 C272 1.439 . S
C305 H282 0.931 . S
C305 C306 1.374 . S
C306 C277 1.387 . S
C306 H283 0.931 . S
C306 C305 1.374 . S
C307 O291 1.249 . S
C307 O292 1.230 1_545 S
C308 C311 1.382 . S
C308 C312 1.390 . S
C308 C315 1.506 . S
C309 C310 1.398 . S
C309 C312 1.392 . S
C310 C309 1.398 . S
C310 C313 1.372 . S
C310 H320 0.931 . S
C311 C308 1.382 . S
C311 C313 1.390 . S
C311 H321 0.931 . S
C312 C308 1.390 . S
C312 C309 1.392 . S
C312 H322 0.930 . S
C313 C310 1.372 . S
C313 C311 1.390 . S
C313 H323 0.929 . S
C314 O294 1.255 . S
C314 O295 1.257 . S
C315 Eu251 2.787 . S
C315 O290 1.252 . S
C315 O293 1.268 . S
C315 C308 1.506 . S
H316 C299 0.931 . S
H317 C300 0.931 . S
H318 C301 0.929 . S
H319 C302 0.930 . S
H320 C310 0.931 . S
H321 C311 0.931 . S
H322 C312 0.930 . S
H323 C313 0.929 . S
Eu324 N353 2.600 . S
Eu324 N359 2.562 1_556 S
Eu324 O368 2.462 . S
Eu324 O369 2.373 1_556 S
Eu324 O371 2.432 . S
Eu324 O372 2.291 1_556 S
Eu324 O376 2.335 . S
Eu324 O379 2.372 . S
Eu324 C388 2.787 . S
C325 N326 1.365 . S
C325 C328 1.405 . S
C325 C332 1.448 . S
N326 C325 1.365 . S
N326 C329 1.319 . S
N326 Eu335 2.600 . S
C327 C329 1.397 . S
C327 C330 1.367 . S
C327 H347 0.931 . S
C328 C325 1.405 . S
C328 C330 1.403 . S
C328 C334 1.439 . S
C329 N326 1.319 . S
C329 C327 1.397 . S
C329 H340 0.930 . S
C330 C327 1.367 . S
C330 C328 1.403 . S
C330 H351 0.929 . S
C331 C332 1.430 . S
C331 C333 1.387 . S
C331 C337 1.404 . S
C332 C325 1.448 . S
C332 C331 1.430 . S
C332 N336 1.351 . S
C333 C331 1.387 . S
C333 C334 1.374 . S
C333 H348 0.931 . S
C334 C328 1.439 . S
C334 C333 1.374 . S
C334 H349 0.931 . S
Eu335 N326 2.600 . S
Eu335 N336 2.562 . S
Eu335 O370 2.335 . S
Eu335 O373 2.372 . S
Eu335 O374 2.462 . S
Eu335 O375 2.373 1_554 S
Eu335 O377 2.432 . S
Eu335 O378 2.291 . S
Eu335 C399 2.787 . S
N336 C332 1.351 . S
N336 Eu335 2.562 . S
N336 C338 1.325 . S
C337 C331 1.404 . S
C337 C339 1.366 . S
C337 H345 0.930 . S
C338 N336 1.325 . S
C338 C339 1.416 . S
C338 H344 0.929 . S
C339 C337 1.366 . S
C339 C338 1.416 . S
C339 H341 0.930 . S
H340 C329 0.930 . S
H341 C339 0.930 . S
H342 C357 0.930 . S
H343 C364 0.930 . S
H344 C338 0.929 . S
H345 C337 0.930 . S
H346 C360 0.929 . S
H347 C327 0.931 . S
H348 C333 0.931 . S
H349 C334 0.931 . S
H350 C355 0.931 . S
H351 C330 0.929 . S
H352 C363 0.930 . S
N353 Eu324 2.600 . S
N353 C354 1.365 1_556 S
N353 C357 1.319 . S
C354 N353 1.365 1_554 S
C354 C356 1.405 . S
C354 C362 1.448 . S
C355 H350 0.931 . S
C355 C357 1.397 . S
C355 C358 1.367 1_556 S
C356 C354 1.405 . S
C356 C358 1.403 . S
C356 C389 1.439 . S
C357 H342 0.930 . S
C357 N353 1.319 . S
C357 C355 1.397 . S
C358 C355 1.367 1_554 S
C358 C356 1.403 . S
C358 H365 0.929 . S
N359 Eu324 2.562 1_554 S
N359 C360 1.325 . S
N359 C362 1.351 . S
C360 H346 0.929 . S
C360 N359 1.325 . S
C360 C364 1.416 . S
C361 C362 1.430 . S
C361 C363 1.404 . S
C361 C390 1.387 . S
C362 C354 1.448 . S
C362 N359 1.351 . S
C362 C361 1.430 . S
C363 H352 0.930 . S
C363 C361 1.404 . S
C363 C364 1.366 . S
C364 H343 0.930 . S
C364 C360 1.416 . S
C364 C363 1.366 . S
H365 C358 0.929 . S
H366 C389 0.931 . S
H367 C390 0.931 . S
O368 Eu324 2.462 . S
O368 C388 1.252 . S
O369 Eu324 2.373 1_554 S
O369 C380 1.249 . S
O370 Eu335 2.335 . S
O370 C380 1.264 . S
O371 Eu324 2.432 . S
O371 C388 1.268 . S
O372 Eu324 2.291 1_554 S
O372 C387 1.255 . S
O373 Eu335 2.372 . S
O373 C387 1.257 . S
O374 Eu335 2.462 . S
O374 C399 1.252 . S
O375 Eu335 2.373 1_556 S
O375 C391 1.249 . S
O376 Eu324 2.335 . S
O376 C391 1.264 . S
O377 Eu335 2.432 . S
O377 C399 1.268 . S
O378 Eu335 2.291 . S
O378 C398 1.255 . S
O379 Eu324 2.372 . S
O379 C398 1.257 1_556 S
C380 O369 1.249 . S
C380 O370 1.264 . S
C381 C384 1.382 . S
C381 C386 1.390 . S
C381 C388 1.506 . S
C382 C383 1.398 . S
C382 C386 1.392 . S
C383 C382 1.398 . S
C383 C385 1.372 . S
C383 H400 0.931 . S
C384 C381 1.382 . S
C384 C385 1.390 . S
C384 H401 0.931 . S
C385 C383 1.372 . S
C385 C384 1.390 . S
C385 H402 0.929 . S
C386 C381 1.390 . S
C386 C382 1.392 . S
C386 H403 0.930 . S
C387 O372 1.255 . S
C387 O373 1.257 . S
C388 Eu324 2.787 . S
C388 O368 1.252 . S
C388 O371 1.268 . S
C388 C381 1.506 . S
C389 C356 1.439 . S
C389 H366 0.931 . S
C389 C390 1.374 . S
C390 C361 1.387 . S
C390 H367 0.931 . S
C390 C389 1.374 . S
C391 O375 1.249 . S
C391 O376 1.264 . S
C392 C395 1.382 . S
C392 C396 1.390 . S
C392 C399 1.506 . S
C393 C394 1.398 . S
C393 C396 1.392 . S
C394 C393 1.398 . S
C394 C397 1.372 . S
C394 H404 0.931 . S
C395 C392 1.382 . S
C395 C397 1.390 . S
C395 H405 0.931 . S
C396 C392 1.390 . S
C396 C393 1.392 . S
C396 H406 0.930 . S
C397 C394 1.372 . S
C397 C395 1.390 . S
C397 H407 0.929 . S
C398 O378 1.255 . S
C398 O379 1.257 1_554 S
C399 Eu335 2.787 . S
C399 O374 1.252 . S
C399 O377 1.268 . S
C399 C392 1.506 . S
H400 C383 0.931 . S
H401 C384 0.931 . S
H402 C385 0.929 . S
H403 C386 0.930 . S
H404 C394 0.931 . S
H405 C395 0.931 . S
H406 C396 0.930 . S
H407 C397 0.929 . S
H408 C416 0.929 . S
H409 C418 0.930 . S
H410 C420 0.930 . S
H411 C423 0.929 . S
H412 C426 0.930 . S
H413 C428 0.960 . S
H414 C428 0.960 . S
H415 C428 0.960 . S
C416 H408 0.929 . S
C416 C417 1.377 . S
C416 C418 1.384 . S
C417 C416 1.377 . S
C417 C423 1.390 . S
C418 H409 0.930 . S
C418 C416 1.384 . S
C418 C419 1.372 . S
C419 C418 1.372 . S
C419 C420 1.400 . S
C419 C424 1.490 . S
C420 H410 0.930 . S
C420 C419 1.400 . S
C420 C423 1.386 . S
H421 C437 0.930 . S
H422 C438 0.931 . S
C423 H411 0.929 . S
C423 C417 1.390 . S
C423 C420 1.386 . S
C424 C419 1.490 . S
C424 C426 1.395 . S
C424 C427 1.403 . S
H425 C431 0.930 . S
C426 H412 0.930 . S
C426 C424 1.395 . S
C426 C429 1.403 . S
C427 C424 1.403 . S
C427 C428 1.524 . S
C427 C431 1.400 . S
C428 H413 0.960 . S
C428 H414 0.960 . S
C428 H415 0.960 . S
C428 C427 1.524 . S
C429 C426 1.403 . S
C429 C430 1.392 . S
C429 C433 1.495 . S
C430 C429 1.392 . S
C430 C431 1.385 . S
C430 C432 1.478 . S
C431 H425 0.930 . S
C431 C427 1.400 . S
C431 C430 1.385 . S
C432 C430 1.478 . S
C432 C434 1.381 . S
C432 C438 1.383 . S
C433 C429 1.495 . S
C433 H439 0.959 . S
C433 H440 0.961 . S
C433 H441 0.960 . S
C434 C432 1.381 . S
C434 C435 1.394 . S
C434 H442 0.930 . S
C435 C434 1.394 . S
C435 C436 1.383 . S
C435 H443 0.929 . S
C436 C435 1.383 . S
C436 C437 1.377 . S
C437 H421 0.930 . S
C437 C436 1.377 . S
C437 C438 1.379 . S
C438 H422 0.931 . S
C438 C432 1.383 . S
C438 C437 1.379 . S
H439 C433 0.959 . S
H440 C433 0.961 . S
H441 C433 0.960 . S
H442 C434 0.930 . S
H443 C435 0.929 . S
H444 C452 0.929 . S
H445 C454 0.930 . S
H446 C456 0.930 1_556 S
H447 C459 0.929 1_556 S
H448 C462 0.930 . S
H449 C464 0.960 . S
H450 C464 0.960 . S
H451 C464 0.954 1_556 S
C452 H444 0.929 . S
C452 C453 1.377 . S
C452 C454 1.384 . S
C453 C452 1.377 . S
C453 C459 1.390 . S
C454 H445 0.930 . S
C454 C452 1.384 . S
C454 C455 1.372 . S
C455 C454 1.372 . S
C455 C456 1.400 . S
C455 C460 1.490 . S
C456 H446 0.930 1_554 S
C456 C455 1.400 . S
C456 C459 1.386 . S
H457 C473 0.930 . S
H458 C474 0.930 . S
C459 H447 0.929 1_554 S
C459 C453 1.390 . S
C459 C456 1.386 . S
C460 C455 1.490 . S
C460 C462 1.395 . S
C460 C463 1.403 . S
H461 C467 0.930 . S
C462 H448 0.930 . S
C462 C460 1.395 . S
C462 C465 1.403 . S
C463 C460 1.403 . S
C463 C464 1.524 . S
C463 C467 1.400 . S
C464 H449 0.960 . S
C464 H450 0.960 . S
C464 H451 0.954 1_554 S
C464 C463 1.524 . S
C465 C462 1.403 . S
C465 C466 1.392 . S
C465 C469 1.495 . S
C466 C465 1.392 . S
C466 C467 1.385 . S
C466 C468 1.478 . S
C467 H461 0.930 . S
C467 C463 1.400 . S
C467 C466 1.385 . S
C468 C466 1.478 . S
C468 C470 1.381 . S
C468 C474 1.384 1_554 S
C469 C465 1.495 . S
C469 H475 0.959 . S
C469 H476 0.961 . S
C469 H477 0.960 . S
C470 C468 1.381 . S
C470 C471 1.394 . S
C470 H478 0.930 . S
C471 C470 1.394 . S
C471 C472 1.383 . S
C471 H479 0.929 . S
C472 C471 1.383 . S
C472 C473 1.377 1_554 S
C473 H457 0.930 . S
C473 C472 1.377 1_556 S
C473 C474 1.379 . S
C474 H458 0.930 . S
C474 C468 1.384 1_556 S
C474 C473 1.379 . S
H475 C469 0.959 . S
H476 C469 0.961 . S
H477 C469 0.960 . S
H478 C470 0.930 . S
H479 C471 0.929 . S
H480 C488 0.929 . S
H481 C490 0.930 . S
H482 C492 0.930 . S
H483 C495 0.929 . S
H484 C498 0.930 . S
H485 C500 0.960 . S
H486 C500 0.960 . S
H487 C500 0.960 . S
C488 H480 0.929 . S
C488 C489 1.377 . S
C488 C490 1.384 . S
C489 C488 1.377 . S
C489 C495 1.390 . S
C490 H481 0.930 . S
C490 C488 1.384 . S
C490 C491 1.372 . S
C491 C490 1.372 . S
C491 C492 1.400 . S
C491 C496 1.490 . S
C492 H482 0.930 . S
C492 C491 1.400 . S
C492 C495 1.386 . S
H493 C509 0.930 . S
H494 C510 0.931 . S
C495 H483 0.929 . S
C495 C489 1.390 . S
C495 C492 1.386 . S
C496 C491 1.490 . S
C496 C498 1.395 . S
C496 C499 1.403 . S
H497 C503 0.930 . S
C498 H484 0.930 . S
C498 C496 1.395 . S
C498 C501 1.403 . S
C499 C496 1.403 . S
C499 C500 1.524 . S
C499 C503 1.400 . S
C500 H485 0.960 . S
C500 H486 0.960 . S
C500 H487 0.960 . S
C500 C499 1.524 . S
C501 C498 1.403 . S
C501 C502 1.392 . S
C501 C505 1.495 . S
C502 C501 1.392 . S
C502 C503 1.385 . S
C502 C504 1.478 . S
C503 H497 0.930 . S
C503 C499 1.400 . S
C503 C502 1.385 . S
C504 C502 1.478 . S
C504 C506 1.381 . S
C504 C510 1.383 . S
C505 C501 1.495 . S
C505 H511 0.959 . S
C505 H512 0.961 . S
C505 H513 0.960 . S
C506 C504 1.381 . S
C506 C507 1.394 . S
C506 H514 0.930 . S
C507 C506 1.394 . S
C507 C508 1.383 . S
C507 H515 0.929 . S
C508 C507 1.383 . S
C508 C509 1.377 . S
C509 H493 0.930 . S
C509 C508 1.377 . S
C509 C510 1.379 . S
C510 H494 0.931 . S
C510 C504 1.383 . S
C510 C509 1.379 . S
H511 C505 0.959 . S
H512 C505 0.961 . S
H513 C505 0.960 . S
H514 C506 0.930 . S
H515 C507 0.929 . S
H516 C524 0.929 . S
H517 C526 0.930 . S
H518 C528 0.930 . S
H519 C531 0.929 . S
H520 C534 0.930 . S
H521 C536 0.960 . S
H522 C536 0.960 . S
H523 C536 0.960 . S
C524 H516 0.929 . S
C524 C525 1.377 1_556 S
C524 C526 1.384 . S
C525 C524 1.377 1_554 S
C525 C531 1.390 . S
C526 H517 0.930 . S
C526 C524 1.384 . S
C526 C527 1.372 1_556 S
C527 C526 1.372 1_554 S
C527 C528 1.400 . S
C527 C532 1.490 . S
C528 H518 0.930 . S
C528 C527 1.400 . S
C528 C531 1.386 . S
H529 C545 0.930 . S
H530 C546 0.931 . S
C531 H519 0.929 . S
C531 C525 1.390 . S
C531 C528 1.386 . S
C532 C527 1.490 . S
C532 C534 1.395 1_554 S
C532 C535 1.403 . S
H533 C539 0.930 . S
C534 H520 0.930 . S
C534 C532 1.395 1_556 S
C534 C537 1.403 . S
C535 C532 1.403 . S
C535 C536 1.524 . S
C535 C539 1.400 . S
C536 H521 0.960 . S
C536 H522 0.960 . S
C536 H523 0.960 . S
C536 C535 1.524 . S
C537 C534 1.403 . S
C537 C538 1.392 1_556 S
C537 C541 1.495 . S
C538 C537 1.392 1_554 S
C538 C539 1.385 . S
C538 C540 1.478 . S
C539 H533 0.930 . S
C539 C535 1.400 . S
C539 C538 1.385 . S
C540 C538 1.478 . S
C540 C542 1.381 1_554 S
C540 C546 1.383 . S
C541 C537 1.495 . S
C541 H547 0.959 . S
C541 H548 0.961 . S
C541 H549 0.960 . S
C542 C540 1.381 1_556 S
C542 C543 1.394 . S
C542 H550 0.930 . S
C543 C542 1.394 . S
C543 C544 1.383 1_556 S
C543 H551 0.929 . S
C544 C543 1.383 1_554 S
C544 C545 1.377 . S
C545 H529 0.930 . S
C545 C544 1.377 . S
C545 C546 1.379 . S
C546 H530 0.931 . S
C546 C540 1.383 . S
C546 C545 1.379 . S
H547 C541 0.959 . S
H548 C541 0.961 . S
H549 C541 0.960 . S
H550 C542 0.930 . S
H551 C543 0.929 . S
H552 C560 0.929 . S
H553 C562 0.930 . S
H554 C564 0.930 . S
H555 C567 0.929 . S
H556 C570 0.930 . S
H557 C572 0.960 . S
H558 C572 0.960 . S
H559 C572 0.960 . S
C560 H552 0.929 . S
C560 C561 1.377 . S
C560 C562 1.384 . S
C561 C560 1.377 . S
C561 C567 1.390 . S
C562 H553 0.930 . S
C562 C560 1.384 . S
C562 C563 1.372 . S
C563 C562 1.372 . S
C563 C564 1.400 . S
C563 C568 1.490 . S
C564 H554 0.930 . S
C564 C563 1.400 . S
C564 C567 1.386 . S
H565 C581 0.930 . S
H566 C582 0.931 . S
C567 H555 0.929 . S
C567 C561 1.390 . S
C567 C564 1.386 . S
C568 C563 1.490 . S
C568 C570 1.395 . S
C568 C571 1.403 . S
H569 C575 0.930 . S
C570 H556 0.930 . S
C570 C568 1.395 . S
C570 C573 1.403 . S
C571 C568 1.403 . S
C571 C572 1.524 . S
C571 C575 1.400 . S
C572 H557 0.960 . S
C572 H558 0.960 . S
C572 H559 0.960 . S
C572 C571 1.524 . S
C573 C570 1.403 . S
C573 C574 1.392 . S
C573 C577 1.495 . S
C574 C573 1.392 . S
C574 C575 1.385 . S
C574 C576 1.478 . S
C575 H569 0.930 . S
C575 C571 1.400 . S
C575 C574 1.385 . S
C576 C574 1.478 . S
C576 C578 1.381 . S
C576 C582 1.383 . S
C577 C573 1.495 . S
C577 H583 0.959 . S
C577 H584 0.961 . S
C577 H585 0.960 . S
C578 C576 1.381 . S
C578 C579 1.394 . S
C578 H586 0.930 . S
C579 C578 1.394 . S
C579 C580 1.383 . S
C579 H587 0.929 . S
C580 C579 1.383 . S
C580 C581 1.377 . S
C581 H565 0.930 . S
C581 C580 1.377 . S
C581 C582 1.379 . S
C582 H566 0.931 . S
C582 C576 1.383 . S
C582 C581 1.379 . S
H583 C577 0.959 . S
H584 C577 0.961 . S
H585 C577 0.960 . S
H586 C578 0.930 . S
H587 C579 0.929 . S
H588 C596 0.929 . S
H589 C598 0.930 . S
H590 C600 0.930 . S
H591 C603 0.929 . S
H592 C606 0.930 . S
H593 C608 0.960 . S
H594 C608 0.960 . S
H595 C608 0.960 . S
C596 H588 0.929 . S
C596 C597 1.377 . S
C596 C598 1.384 . S
C597 C596 1.377 . S
C597 C603 1.390 . S
C598 H589 0.930 . S
C598 C596 1.384 . S
C598 C599 1.372 . S
C599 C598 1.372 . S
C599 C600 1.400 . S
C599 C604 1.490 . S
C600 H590 0.930 . S
C600 C599 1.400 . S
C600 C603 1.386 . S
H601 C617 0.930 . S
H602 C618 0.931 . S
C603 H591 0.929 . S
C603 C597 1.390 . S
C603 C600 1.386 . S
C604 C599 1.490 . S
C604 C606 1.395 . S
C604 C607 1.403 . S
H605 C611 0.930 . S
C606 H592 0.930 . S
C606 C604 1.395 . S
C606 C609 1.403 . S
C607 C604 1.403 . S
C607 C608 1.524 . S
C607 C611 1.400 . S
C608 H593 0.960 . S
C608 H594 0.960 . S
C608 H595 0.960 . S
C608 C607 1.524 . S
C609 C606 1.403 . S
C609 C610 1.392 . S
C609 C613 1.495 . S
C610 C609 1.392 . S
C610 C611 1.385 . S
C610 C612 1.478 . S
C611 H605 0.930 . S
C611 C607 1.400 . S
C611 C610 1.385 . S
C612 C610 1.478 . S
C612 C614 1.381 . S
C612 C618 1.383 . S
C613 C609 1.495 . S
C613 H619 0.959 . S
C613 H620 0.961 . S
C613 H621 0.960 . S
C614 C612 1.381 . S
C614 C615 1.394 . S
C614 H622 0.930 . S
C615 C614 1.394 . S
C615 C616 1.383 . S
C615 H623 0.929 . S
C616 C615 1.383 . S
C616 C617 1.377 . S
C617 H601 0.930 . S
C617 C616 1.377 . S
C617 C618 1.379 . S
C618 H602 0.931 . S
C618 C612 1.383 . S
C618 C617 1.379 . S
H619 C613 0.959 . S
H620 C613 0.961 . S
H621 C613 0.960 . S
H622 C614 0.930 . S
H623 C615 0.929 . S
H624 C632 0.929 . S
H625 C634 0.930 . S
H626 C636 0.930 . S
H627 C639 0.929 . S
H628 C642 0.930 . S
H629 C644 0.960 . S
H630 C644 0.960 . S
H631 C644 0.960 . S
C632 H624 0.929 . S
C632 C633 1.377 . S
C632 C634 1.384 . S
C633 C632 1.377 . S
C633 C639 1.390 . S
C634 H625 0.930 . S
C634 C632 1.384 . S
C634 C635 1.372 . S
C635 C634 1.372 . S
C635 C636 1.400 . S
C635 C640 1.490 . S
C636 H626 0.930 . S
C636 C635 1.400 . S
C636 C639 1.386 . S
H637 C653 0.930 . S
H638 C654 0.931 . S
C639 H627 0.929 . S
C639 C633 1.390 . S
C639 C636 1.386 . S
C640 C635 1.490 . S
C640 C642 1.395 . S
C640 C643 1.403 . S
H641 C647 0.930 . S
C642 H628 0.930 . S
C642 C640 1.395 . S
C642 C645 1.403 . S
C643 C640 1.403 . S
C643 C644 1.524 . S
C643 C647 1.400 . S
C644 H629 0.960 . S
C644 H630 0.960 . S
C644 H631 0.960 . S
C644 C643 1.524 . S
C645 C642 1.403 . S
C645 C646 1.392 . S
C645 C649 1.495 1_545 S
C646 C645 1.392 . S
C646 C647 1.385 . S
C646 C648 1.478 . S
C647 H641 0.930 . S
C647 C643 1.400 . S
C647 C646 1.385 . S
C648 C646 1.478 . S
C648 C650 1.381 . S
C648 C654 1.383 . S
C649 C645 1.495 1_565 S
C649 H655 0.959 . S
C649 H656 0.961 . S
C649 H657 0.960 1_565 S
C650 C648 1.381 . S
C650 C651 1.394 . S
C650 H658 0.930 . S
C651 C650 1.394 . S
C651 C652 1.383 . S
C651 H659 0.929 . S
C652 C651 1.383 . S
C652 C653 1.377 . S
C653 H637 0.930 . S
C653 C652 1.377 . S
C653 C654 1.379 . S
C654 H638 0.931 . S
C654 C648 1.383 . S
C654 C653 1.379 . S
H655 C649 0.959 . S
H656 C649 0.961 . S
H657 C649 0.960 1_545 S
H658 C650 0.930 . S
H659 C651 0.929 . S
H660 C668 0.929 . S
H661 C670 0.930 . S
H662 C672 0.930 . S
H663 C675 0.929 . S
H664 C678 0.930 . S
H665 C680 0.960 . S
H666 C680 0.960 . S
H667 C680 0.960 . S
C668 H660 0.929 . S
C668 C669 1.377 . S
C668 C670 1.384 . S
C669 C668 1.377 . S
C669 C675 1.390 . S
C670 H661 0.930 . S
C670 C668 1.384 . S
C670 C671 1.372 . S
C671 C670 1.372 . S
C671 C672 1.400 . S
C671 C676 1.490 . S
C672 H662 0.930 . S
C672 C671 1.400 . S
C672 C675 1.386 . S
H673 C689 0.930 . S
H674 C690 0.931 . S
C675 H663 0.929 . S
C675 C669 1.390 . S
C675 C672 1.386 . S
C676 C671 1.490 . S
C676 C678 1.395 . S
C676 C679 1.403 . S
H677 C683 0.930 . S
C678 H664 0.930 . S
C678 C676 1.395 . S
C678 C681 1.403 . S
C679 C676 1.403 . S
C679 C680 1.524 . S
C679 C683 1.400 . S
C680 H665 0.960 . S
C680 H666 0.960 . S
C680 H667 0.960 . S
C680 C679 1.524 . S
C681 C678 1.403 . S
C681 C682 1.392 . S
C681 C685 1.495 . S
C682 C681 1.392 . S
C682 C683 1.385 . S
C682 C684 1.478 . S
C683 H677 0.930 . S
C683 C679 1.400 . S
C683 C682 1.385 . S
C684 C682 1.478 . S
C684 C686 1.381 . S
C684 C690 1.383 . S
C685 C681 1.495 . S
C685 H691 0.959 . S
C685 H692 0.961 . S
C685 H693 0.960 . S
C686 C684 1.381 . S
C686 C687 1.394 . S
C686 H694 0.930 . S
C687 C686 1.394 . S
C687 C688 1.383 . S
C687 H695 0.929 . S
C688 C687 1.383 . S
C688 C689 1.377 . S
C689 H673 0.930 . S
C689 C688 1.377 . S
C689 C690 1.379 . S
C690 H674 0.931 . S
C690 C684 1.383 . S
C690 C689 1.379 . S
H691 C685 0.959 . S
H692 C685 0.961 . S
H693 C685 0.960 . S
H694 C686 0.930 . S
H695 C687 0.929 . S
H696 C704 0.929 . S
H697 C706 0.930 . S
H698 C708 0.930 . S
H699 C711 0.929 . S
H700 C714 0.930 . S
H701 C716 0.960 . S
H702 C716 0.960 . S
H703 C716 0.960 . S
C704 H696 0.929 . S
C704 C705 1.377 . S
C704 C706 1.384 . S
C705 C704 1.377 . S
C705 C711 1.390 . S
C706 H697 0.930 . S
C706 C704 1.384 . S
C706 C707 1.372 . S
C707 C706 1.372 . S
C707 C708 1.400 . S
C707 C712 1.490 . S
C708 H698 0.930 . S
C708 C707 1.400 . S
C708 C711 1.386 . S
H709 C725 0.930 . S
H710 C726 0.931 . S
C711 H699 0.929 . S
C711 C705 1.390 . S
C711 C708 1.386 . S
C712 C707 1.490 . S
C712 C714 1.395 . S
C712 C715 1.403 . S
H713 C719 0.930 . S
C714 H700 0.930 . S
C714 C712 1.395 . S
C714 C717 1.403 . S
C715 C712 1.403 . S
C715 C716 1.524 . S
C715 C719 1.400 . S
C716 H701 0.960 . S
C716 H702 0.960 . S
C716 H703 0.960 . S
C716 C715 1.524 . S
C717 C714 1.403 . S
C717 C718 1.392 . S
C717 C721 1.495 . S
C718 C717 1.392 . S
C718 C719 1.385 . S
C718 C720 1.478 . S
C719 H713 0.930 . S
C719 C715 1.400 . S
C719 C718 1.385 . S
C720 C718 1.478 . S
C720 C722 1.381 . S
C720 C726 1.383 . S
C721 C717 1.495 . S
C721 H727 0.959 . S
C721 H728 0.961 . S
C721 H729 0.960 . S
C722 C720 1.381 . S
C722 C723 1.394 . S
C722 H730 0.930 . S
C723 C722 1.394 . S
C723 C724 1.383 . S
C723 H731 0.929 . S
C724 C723 1.383 . S
C724 C725 1.377 . S
C725 H709 0.930 . S
C725 C724 1.377 . S
C725 C726 1.379 . S
C726 H710 0.931 . S
C726 C720 1.383 . S
C726 C725 1.379 . S
H727 C721 0.959 . S
H728 C721 0.961 . S
H729 C721 0.960 . S
H730 C722 0.930 . S
H731 C723 0.929 . S
H732 C740 0.929 . S
H733 C742 0.930 . S
H734 C744 0.930 . S
H735 C747 0.929 . S
H736 C750 0.930 . S
H737 C752 0.960 . S
H738 C752 0.960 . S
H739 C752 0.960 . S
C740 H732 0.929 . S
C740 C741 1.377 . S
C740 C742 1.384 . S
C741 C740 1.377 . S
C741 C747 1.390 . S
C742 H733 0.930 . S
C742 C740 1.384 . S
C742 C743 1.372 . S
C743 C742 1.372 . S
C743 C744 1.400 . S
C743 C748 1.490 . S
C744 H734 0.930 . S
C744 C743 1.400 . S
C744 C747 1.386 . S
H745 C761 0.930 . S
H746 C762 0.931 . S
C747 H735 0.929 . S
C747 C741 1.390 . S
C747 C744 1.386 . S
C748 C743 1.490 . S
C748 C750 1.395 . S
C748 C751 1.403 . S
H749 C755 0.930 . S
C750 H736 0.930 . S
C750 C748 1.395 . S
C750 C753 1.403 . S
C751 C748 1.403 . S
C751 C752 1.524 . S
C751 C755 1.400 . S
C752 H737 0.960 . S
C752 H738 0.960 . S
C752 H739 0.960 . S
C752 C751 1.524 . S
C753 C750 1.403 . S
C753 C754 1.392 . S
C753 C757 1.495 . S
C754 C753 1.392 . S
C754 C755 1.385 . S
C754 C756 1.478 . S
C755 H749 0.930 . S
C755 C751 1.400 . S
C755 C754 1.385 . S
C756 C754 1.478 . S
C756 C758 1.381 . S
C756 C762 1.383 . S
C757 C753 1.495 . S
C757 H763 0.959 . S
C757 H764 0.961 . S
C757 H765 0.960 . S
C758 C756 1.381 . S
C758 C759 1.394 . S
C758 H766 0.930 . S
C759 C758 1.394 . S
C759 C760 1.383 . S
C759 H767 0.929 . S
C760 C759 1.383 . S
C760 C761 1.377 . S
C761 H745 0.930 . S
C761 C760 1.377 . S
C761 C762 1.379 . S
C762 H746 0.931 . S
C762 C756 1.383 . S
C762 C761 1.379 . S
H763 C757 0.959 . S
H764 C757 0.961 . S
H765 C757 0.960 . S
H766 C758 0.930 . S
H767 C759 0.929 . S
H768 C776 0.929 . S
H769 C778 0.930 . S
H770 C780 0.930 . S
H771 C783 0.929 . S
H772 C786 0.930 . S
H773 C788 0.960 . S
H774 C788 0.960 . S
H775 C788 0.960 . S
C776 H768 0.929 . S
C776 C777 1.377 . S
C776 C778 1.384 . S
C777 C776 1.377 . S
C777 C783 1.390 . S
C778 H769 0.930 . S
C778 C776 1.384 . S
C778 C779 1.372 . S
C779 C778 1.372 . S
C779 C780 1.400 . S
C779 C784 1.490 . S
C780 H770 0.930 . S
C780 C779 1.400 . S
C780 C783 1.386 . S
H781 C797 0.930 . S
H782 C798 0.931 . S
C783 H771 0.929 . S
C783 C777 1.390 . S
C783 C780 1.386 . S
C784 C779 1.490 . S
C784 C786 1.395 . S
C784 C787 1.403 . S
H785 C791 0.930 . S
C786 H772 0.930 . S
C786 C784 1.395 . S
C786 C789 1.403 . S
C787 C784 1.403 . S
C787 C788 1.524 . S
C787 C791 1.400 . S
C788 H773 0.960 . S
C788 H774 0.960 . S
C788 H775 0.960 . S
C788 C787 1.524 . S
C789 C786 1.403 . S
C789 C790 1.392 . S
C789 C793 1.495 . S
C790 C789 1.392 . S
C790 C791 1.385 . S
C790 C792 1.478 . S
C791 H785 0.930 . S
C791 C787 1.400 . S
C791 C790 1.385 . S
C792 C790 1.478 . S
C792 C794 1.381 . S
C792 C798 1.383 . S
C793 C789 1.495 . S
C793 H799 0.959 . S
C793 H800 0.961 . S
C793 H801 0.960 . S
C794 C792 1.381 . S
C794 C795 1.394 . S
C794 H802 0.930 . S
C795 C794 1.394 . S
C795 C796 1.383 . S
C795 H803 0.929 . S
C796 C795 1.383 . S
C796 C797 1.377 . S
C797 H781 0.930 . S
C797 C796 1.377 . S
C797 C798 1.379 . S
C798 H782 0.931 . S
C798 C792 1.383 . S
C798 C797 1.379 . S
H799 C793 0.959 . S
H800 C793 0.961 . S
H801 C793 0.960 . S
H802 C794 0.930 . S
H803 C795 0.929 . S
H804 C812 0.929 . S
H805 C814 0.930 . S
H806 C816 0.930 . S
H807 C819 0.929 . S
H808 C822 0.930 . S
H809 C824 0.960 . S
H810 C824 0.960 . S
H811 C824 0.960 . S
C812 H804 0.929 . S
C812 C813 1.377 . S
C812 C814 1.384 . S
C813 C812 1.377 . S
C813 C819 1.390 . S
C814 H805 0.930 . S
C814 C812 1.384 . S
C814 C815 1.372 . S
C815 C814 1.372 . S
C815 C816 1.400 . S
C815 C820 1.490 . S
C816 H806 0.930 . S
C816 C815 1.400 . S
C816 C819 1.386 . S
H817 C833 0.930 . S
H818 C834 0.931 . S
C819 H807 0.929 . S
C819 C813 1.390 . S
C819 C816 1.386 . S
C820 C815 1.490 . S
C820 C822 1.395 . S
C820 C823 1.403 . S
H821 C827 0.930 . S
C822 H808 0.930 . S
C822 C820 1.395 . S
C822 C825 1.403 . S
C823 C820 1.403 . S
C823 C824 1.524 . S
C823 C827 1.400 . S
C824 H809 0.960 . S
C824 H810 0.960 . S
C824 H811 0.960 . S
C824 C823 1.524 . S
C825 C822 1.403 . S
C825 C826 1.392 . S
C825 C829 1.495 . S
C826 C825 1.392 . S
C826 C827 1.385 . S
C826 C828 1.478 . S
C827 H821 0.930 . S
C827 C823 1.400 . S
C827 C826 1.385 . S
C828 C826 1.478 . S
C828 C830 1.381 . S
C828 C834 1.383 . S
C829 C825 1.495 . S
C829 H835 0.959 . S
C829 H836 0.961 . S
C829 H837 0.960 . S
C830 C828 1.381 . S
C830 C831 1.396 . S
C830 H838 0.930 1_565 S
C831 C830 1.396 . S
C831 C832 1.403 . S
C831 H839 0.908 1_565 S
C832 C831 1.403 . S
C832 C833 1.377 . S
C833 H817 0.930 . S
C833 C832 1.377 . S
C833 C834 1.379 . S
C834 H818 0.931 . S
C834 C828 1.383 . S
C834 C833 1.379 . S
H835 C829 0.959 . S
H836 C829 0.961 . S
H837 C829 0.960 . S
H838 C830 0.930 1_545 S
H839 C831 0.908 1_545 S
C436 C303 1.609 . S
C417 C211 1.606 . S
C453 C31 1.554 . S
C472 C398 1.607 . S
C489 C91 1.634 . S
C508 C314 1.622 . S
C525 C151 1.587 . S
C544 C387 1.611 . S
C580 C298 1.375 . S
C561 C20 1.532 . S
C616 C391 1.598 . S
C597 C61 1.564 . S
C633 C121 1.590 . S
C652 C307 1.598 . S
C669 C200 1.497 . S
C688 C382 1.422 . S
C724 C393 1.440 . S
C705 C80 1.520 . S
C760 C309 1.394 . S
C741 C140 1.552 . S
C796 C380 1.601 . S
C777 C181 1.543 . S
C813 C1 1.548 . S
C832 C296 1.599 . S
