# Generated by pormake.
# Topology pts, (4,4)-cn, num edge types: 1
# Building blocks:
#     Node 0, Type 0, BuildingBlock: NAWXER_clean_linker_0, # of connection points: 4
#     Node 1, Type 0, BuildingBlock: NAWXER_clean_linker_0, # of connection points: 4
#     Node 2, Type 1, BuildingBlock: QUQFOY_clean_sbu_1, # of connection points: 4
#     Node 3, Type 1, BuildingBlock: QUQFOY_clean_sbu_1, # of connection points: 4
#     Edge 4, Type (0, 1), BuildingBlock: XUDNAN_clean_linker_2, # of connection points: 2
#     Edge 5, Type (0, 1), BuildingBlock: XUDNAN_clean_linker_2, # of connection points: 2
#     Edge 6, Type (0, 1), BuildingBlock: XUDNAN_clean_linker_2, # of connection points: 2
#     Edge 7, Type (0, 1), BuildingBlock: XUDNAN_clean_linker_2, # of connection points: 2
#     Edge 8, Type (0, 1), BuildingBlock: XUDNAN_clean_linker_2, # of connection points: 2
#     Edge 9, Type (0, 1), BuildingBlock: XUDNAN_clean_linker_2, # of connection points: 2
#     Edge 10, Type (0, 1), BuildingBlock: XUDNAN_clean_linker_2, # of connection points: 2
#     Edge 11, Type (0, 1), BuildingBlock: XUDNAN_clean_linker_2, # of connection points: 2
# Relax obj value: 0.095
# Max RMSD: 0.252
# Mean RMSD: 0.145
data_MOF--net-pts--node1-QUQFOY_clean_sbu_1--node2-NAWXER_clean_linker_0--edge1-XUDNAN_clean_linker_2
_symmetry_space_group_name_H-M    P1
_symmetry_Int_Tables_number       1
_symmetry_cell_setting            triclinic
loop_
_symmetry_equiv_pos_as_xyz
'x, y, z'
_cell_length_a     27.951834
_cell_length_b     30.550257
_cell_length_c     44.692625
_cell_angle_alpha  89.79381
_cell_angle_beta   90.001836
_cell_angle_gamma 90.062509
loop_
_atom_site_label
_atom_site_type_symbol
_atom_site_fract_x
_atom_site_fract_y
_atom_site_fract_z
_atom_type_partial_charge
C0 C 0.65354 0.04955 0.95454 0.0
C1 C 0.65664 0.02342 0.92878 0.0
C2 C 0.61652 0.04328 0.97511 0.0
C3 C 0.58216 0.01037 0.97053 0.0
C4 C 0.62291 0.98983 0.92462 0.0
C5 C 0.58597 0.98351 0.94523 0.0
C6 C 0.53904 0.00751 0.98969 0.0
C7 C 0.65514 0.97013 0.05436 0.0
C8 C 0.65909 0.99569 0.08035 0.0
C9 C 0.6176 0.9769 0.03426 0.0
C10 C 0.58358 0.00982 0.0395 0.0
C11 C 0.62581 0.02943 0.08511 0.0
C12 C 0.58836 0.03628 0.06495 0.0
C13 C 0.53969 0.0128 0.02105 0.0
C14 C 0.33453 0.99581 0.05994 0.0
C15 C 0.33307 0.03191 0.07941 0.0
C16 C 0.37331 0.99004 0.0405 0.0
C17 C 0.41097 0.02053 0.04005 0.0
C18 C 0.37104 0.06209 0.07891 0.0
C19 C 0.40949 0.0564 0.05951 0.0
C20 C 0.45421 0.01415 0.02157 0.0
C21 C 0.3326 0.02191 0.95366 0.0
C22 C 0.33053 0.9851 0.93484 0.0
C23 C 0.37202 0.02844 0.97249 0.0
C24 C 0.40974 0.9981 0.97288 0.0
C25 C 0.36849 0.955 0.93536 0.0
C26 C 0.40763 0.96151 0.95409 0.0
C27 C 0.45361 0.00528 0.9906 0.0
H28 H 0.67926 0.07541 0.95856 0.0
H29 H 0.61378 0.06537 0.99393 0.0
H30 H 0.6239 0.96946 0.90484 0.0
H31 H 0.5596 0.95826 0.94099 0.0
H32 H 0.6805 0.94419 0.04987 0.0
H33 H 0.61413 0.95507 0.01536 0.0
H34 H 0.62747 0.04938 0.10507 0.0
H35 H 0.56226 0.06152 0.0697 0.0
H36 H 0.30577 0.97202 0.05974 0.0
H37 H 0.37427 0.96139 0.02632 0.0
H38 H 0.37166 0.08971 0.09403 0.0
H39 H 0.43849 0.07997 0.0599 0.0
H40 H 0.30385 0.04564 0.95378 0.0
H41 H 0.37343 0.05753 0.98625 0.0
H42 H 0.36855 0.92681 0.92073 0.0
H43 H 0.43665 0.93802 0.9537 0.0
N44 N 0.49605 1.00296 0.97589 0.0
N45 N 0.49725 0.01691 0.03556 0.0
C46 C 0.0122 0.64677 0.56351 0.0
C47 C 0.975 0.6464 0.58474 0.0
C48 C 0.01605 0.61306 0.54243 0.0
C49 C 0.98251 0.57876 0.54217 0.0
C50 C 0.94078 0.61267 0.58364 0.0
C51 C 0.94476 0.5791 0.56278 0.0
C52 C 0.98767 0.54059 0.52221 0.0
C53 C 0.95896 0.65841 0.46455 0.0
C54 C -0.00483 0.66665 0.4434 0.0
C55 C 0.95686 0.6183 0.47967 0.0
C56 C 0.99141 0.58588 0.47434 0.0
C57 C 0.02891 0.63366 0.43752 0.0
C58 C 0.02692 0.59365 0.45277 0.0
C59 C 0.99065 0.54358 0.49068 0.0
C60 C 0.9493 0.35538 0.4596 0.0
C61 C 0.98209 0.34694 0.43655 0.0
C62 C 0.95105 0.39475 0.47524 0.0
C63 C 0.98634 0.42614 0.46865 0.0
C64 C 0.01554 0.37946 0.42868 0.0
C65 C 0.01761 0.41884 0.44463 0.0
C66 C 0.99132 0.46553 0.48766 0.0
C67 C 0.0347 0.34964 0.54234 0.0
C68 C 0.005 0.34056 0.56695 0.0
C69 C 0.03109 0.38953 0.52713 0.0
C70 C -0.00312 0.42077 0.53576 0.0
C71 C 0.97186 0.37239 0.57617 0.0
C72 C 0.9679 0.41213 0.56074 0.0
C73 C 0.99194 0.46278 0.51924 0.0
H74 H 0.03934 0.67209 0.56394 0.0
H75 H 0.04591 0.61308 0.52698 0.0
H76 H 0.91115 0.61184 0.59926 0.0
H77 H 0.91844 0.55302 0.56291 0.0
H78 H 0.93182 0.68277 0.46911 0.0
H79 H 0.9281 0.6126 0.49545 0.0
H80 H 0.0574 0.63902 0.4215 0.0
H81 H 0.05372 0.56901 0.44809 0.0
H82 H 0.92242 0.33137 0.46566 0.0
H83 H 0.92548 0.40023 0.49305 0.0
H84 H 0.04114 0.37382 0.41092 0.0
H85 H 0.04475 0.44281 0.43895 0.0
H86 H 0.06125 0.32613 0.53511 0.0
H87 H 0.05515 0.39596 0.50864 0.0
H88 H 0.94838 0.36624 0.59501 0.0
H89 H 0.9416 0.43583 0.56802 0.0
N90 N 0.98892 0.50034 0.53522 0.0
N91 N 0.99195 0.50582 0.47454 0.0
O92 O 0.94405 0.95618 0.23593 0.0
Cd93 Cd 0.00698 0.95866 0.25991 0.0
Cd94 Cd 0.98587 0.04485 0.26185 0.0
O95 O 0.92489 0.02603 0.23936 0.0
O96 O 0.01819 0.89822 0.27525 0.0
O97 O 0.00449 0.95488 0.30476 0.0
C98 C 0.01213 0.91338 0.3019 0.0
C99 C 0.98034 0.09307 0.30208 0.0
C100 C 0.91569 0.9876 0.23017 0.0
C101 C 0.07574 0.01811 0.22913 0.0
O102 O 0.04753 0.04856 0.23696 0.0
O103 O 0.06739 0.97874 0.23686 0.0
O104 O 0.97506 0.10634 0.27488 0.0
O105 O 0.9877 0.05183 0.3066 0.0
O106 O 0.94337 0.05423 0.77375 0.0
Cd107 Cd 0.00715 0.04972 0.75098 0.0
Cd108 Cd 0.98436 0.96068 0.75175 0.0
O109 O 0.92339 0.98441 0.772 0.0
O110 O 0.01952 0.10998 0.73592 0.0
O111 O 0.00798 0.0533 0.70604 0.0
C112 C 0.01547 0.09481 0.70915 0.0
C113 C 0.9751 0.89716 0.72279 0.0
C114 C 0.91434 0.02346 0.77985 0.0
C115 C 0.07394 0.99179 0.78445 0.0
O116 O 0.04582 0.96094 0.77711 0.0
O117 O 0.06615 0.0307 0.77557 0.0
O118 O 0.9702 0.8969 0.75137 0.0
O119 O 0.98464 0.93413 0.71005 0.0
H120 H 0.28659 0.96908 0.11302 0.0
H121 H 0.2887 0.10865 0.09416 0.0
H122 H 0.22625 0.12015 0.1322 0.0
H123 H 0.15816 0.96124 0.12335 0.0
H124 H 0.16261 0.92109 0.15287 0.0
H125 H 0.20802 0.92387 0.12434 0.0
H126 H 0.27289 0.9327 0.16531 0.0
H127 H 0.2276 0.93048 0.19396 0.0
H128 H 0.26782 0.97656 0.19201 0.0
H129 H 0.16501 0.1171 0.17243 0.0
H130 H 0.10356 0.09917 0.20992 0.0
H131 H 0.13871 0.96114 0.20202 0.0
C132 C 0.27351 1.00199 0.11661 0.0
C133 C 0.29293 0.03803 0.10076 0.0
C134 C 0.27507 0.08063 0.10639 0.0
C135 C 0.23949 0.08751 0.12789 0.0
C136 C 0.22183 0.05144 0.14347 0.0
C137 C 0.23776 0.00946 0.13793 0.0
C138 C 0.21198 0.97639 0.15752 0.0
C139 C 0.18349 0.94373 0.13838 0.0
C140 C 0.24718 0.95264 0.17844 0.0
C141 C 0.17906 0.00642 0.17488 0.0
C142 C 0.18567 0.04958 0.16651 0.0
C143 C 0.15937 0.08342 0.17915 0.0
C144 C 0.12459 0.07284 0.2005 0.0
C145 C 0.11618 0.02871 0.20895 0.0
C146 C 0.14437 0.99519 0.19619 0.0
H147 H 0.00712 0.32687 0.62755 0.0
H148 H 0.01139 0.25851 0.54269 0.0
H149 H 0.01689 0.18776 0.5696 0.0
H150 H 0.09066 0.25688 0.66632 0.0
H151 H 0.05905 0.25981 0.7014 0.0
H152 H 0.05608 0.30483 0.67534 0.0
H153 H 0.96347 0.30013 0.67547 0.0
H154 H 0.96615 0.2552 0.70159 0.0
H155 H 0.93477 0.24891 0.66663 0.0
H156 H 0.01879 0.12412 0.60624 0.0
H157 H 0.01897 0.07327 0.64952 0.0
H158 H 0.01521 0.18418 0.70989 0.0
C159 C 0.00901 0.297 0.61463 0.0
C160 C 0.00876 0.29812 0.58304 0.0
C161 C 0.01195 0.25837 0.56692 0.0
C162 C 0.0149 0.21806 0.582 0.0
C163 C 0.01498 0.21813 0.61319 0.0
C164 C 0.01233 0.25661 0.62929 0.0
C165 C 0.013 0.24788 0.66262 0.0
C166 C 0.05734 0.26857 0.67728 0.0
C167 C 0.96658 0.26397 0.67744 0.0
C168 C 0.01598 0.19844 0.66281 0.0
C169 C 0.01701 0.18179 0.63412 0.0
C170 C 0.01834 0.13683 0.62881 0.0
C171 C 0.01841 0.10821 0.6535 0.0
C172 C 0.01742 0.12473 0.68306 0.0
C173 C 0.0165 0.17047 0.6876 0.0
H174 H 0.71325 0.05372 0.11296 0.0
H175 H 0.68801 0.91483 0.0998 0.0
H176 H 0.74843 0.89775 0.1383 0.0
H177 H 0.83918 0.04681 0.12422 0.0
H178 H 0.84079 0.08859 0.15258 0.0
H179 H 0.79506 0.08981 0.12423 0.0
H180 H 0.72977 0.09057 0.16542 0.0
H181 H 0.77534 0.08912 0.19392 0.0
H182 H 0.72909 0.04797 0.19344 0.0
H183 H 0.81268 0.89563 0.17733 0.0
H184 H 0.87795 0.90869 0.2134 0.0
H185 H 0.8594 0.04895 0.20233 0.0
C186 C 0.72011 0.01971 0.11835 0.0
C187 C 0.69605 0.98562 0.10322 0.0
C188 C 0.70658 0.94152 0.11068 0.0
C189 C 0.7405 0.93147 0.13273 0.0
C190 C 0.76341 0.96585 0.14724 0.0
C191 C 0.75374 0.00907 0.14037 0.0
C192 C 0.78408 0.03984 0.15889 0.0
C193 C 0.81671 0.0679 0.13878 0.0
C194 C 0.75269 0.06856 0.17912 0.0
C195 C 0.81265 0.00712 0.17706 0.0
C196 C 0.80005 0.96463 0.17006 0.0
C197 C 0.82267 0.92875 0.18315 0.0
C198 C 0.85969 0.93652 0.20361 0.0
C199 C 0.87365 0.97983 0.21081 0.0
C200 C 0.84922 0.01547 0.1976 0.0
H201 H 0.99114 0.7358 0.58159 0.0
H202 H 0.95532 0.63087 0.64352 0.0
H203 H 0.94957 0.68407 0.68449 0.0
H204 H 0.06478 0.79703 0.63348 0.0
H205 H 0.04524 0.8498 0.6201 0.0
H206 H 0.04598 0.80363 0.59514 0.0
H207 H 0.95626 0.81595 0.58336 0.0
H208 H 0.95517 0.86203 0.60839 0.0
H209 H 0.91364 0.81747 0.61361 0.0
H210 H 0.94737 0.74709 0.71864 0.0
H211 H 0.95131 0.81726 0.74516 0.0
H212 H 0.99 0.88312 0.66226 0.0
C213 C 0.98235 0.72406 0.60381 0.0
C214 C 0.97304 0.67916 0.60923 0.0
C215 C 0.96152 0.66515 0.63863 0.0
C216 C 0.95844 0.69509 0.66213 0.0
C217 C 0.96719 0.73902 0.65599 0.0
C218 C 0.97913 0.75365 0.62768 0.0
C219 C 0.98716 0.80284 0.62754 0.0
C220 C 0.03887 0.81397 0.61854 0.0
C221 C 0.95089 0.82593 0.607 0.0
C222 C 0.97791 0.81334 0.66021 0.0
C223 C 0.96634 0.7759 0.67607 0.0
C224 C 0.95641 0.7767 0.70653 0.0
C225 C 0.95874 0.81683 0.72138 0.0
C226 C 0.97097 0.85578 0.70583 0.0
C227 C 0.98041 0.85396 0.67474 0.0
H228 H 0.2843 0.04636 0.89994 0.0
H229 H 0.28488 0.90802 0.92263 0.0
H230 H 0.22185 0.89479 0.88519 0.0
H231 H 0.15563 0.0548 0.88925 0.0
H232 H 0.16081 0.093 0.85858 0.0
H233 H 0.206 0.09161 0.88729 0.0
H234 H 0.27099 0.07961 0.8468 0.0
H235 H 0.22592 0.08041 0.818 0.0
H236 H 0.26552 0.03413 0.82144 0.0
H237 H 0.16076 0.89588 0.84486 0.0
H238 H 0.10019 0.91187 0.80646 0.0
H239 H 0.13701 0.05 0.81038 0.0
C240 C 0.27068 0.0134 0.89734 0.0
C241 C 0.28981 0.97815 0.91407 0.0
C242 C 0.27136 0.93541 0.90973 0.0
C243 C 0.23547 0.92757 0.88858 0.0
C244 C 0.21816 0.96283 0.87205 0.0
C245 C 0.23467 0.00497 0.87635 0.0
C246 C 0.20946 0.03701 0.85572 0.0
C247 C 0.1813 0.07111 0.87379 0.0
C248 C 0.24511 0.05908 0.83422 0.0
C249 C 0.17625 0.00619 0.83918 0.0
C250 C 0.18216 0.96356 0.84889 0.0
C251 C 0.15563 0.92915 0.83712 0.0
C252 C 0.12136 0.93862 0.81522 0.0
C253 C 0.1137 0.98223 0.80536 0.0
C254 C 0.14207 0.01632 0.81731 0.0
H255 H 0.98599 0.33027 0.37626 0.0
H256 H 0.97778 0.26628 0.46292 0.0
H257 H 0.97617 0.19409 0.43814 0.0
H258 H 0.90633 0.25715 0.33818 0.0
H259 H 0.93945 0.25828 0.30358 0.0
H260 H 0.94099 0.30481 0.32818 0.0
H261 H 0.03359 0.30087 0.32982 0.0
H262 H 0.03233 0.25441 0.30514 0.0
H263 H 0.06221 0.25044 0.34078 0.0
H264 H 0.9765 0.12872 0.40379 0.0
H265 H 0.97669 0.07531 0.36228 0.0
H266 H 0.98249 0.18238 0.29826 0.0
C267 C 0.98422 0.30102 0.38998 0.0
C268 C 0.98195 0.30378 0.42147 0.0
C269 C 0.97906 0.26483 0.43871 0.0
C270 C 0.97834 0.22372 0.42487 0.0
C271 C 0.98029 0.22212 0.39375 0.0
C272 C 0.98303 0.25973 0.37652 0.0
C273 C 0.98385 0.24902 0.34348 0.0
C274 C 0.94004 0.26847 0.32742 0.0
C275 C 0.03079 0.26461 0.32896 0.0
C276 C 0.98121 0.19955 0.34484 0.0
C277 C 0.97944 0.18461 0.37402 0.0
C278 C 0.97769 0.14004 0.38083 0.0
C279 C 0.97782 0.10996 0.35714 0.0
C280 C 0.97932 0.12466 0.32707 0.0
C281 C 0.9809 0.17008 0.321 0.0
H282 H 0.70951 0.9639 0.89681 0.0
H283 H 0.6867 0.10342 0.90812 0.0
H284 H 0.74723 0.11863 0.86926 0.0
H285 H 0.8352 0.96886 0.88559 0.0
H286 H 0.83618 0.92618 0.85786 0.0
H287 H 0.7903 0.92645 0.88611 0.0
H288 H 0.72521 0.92527 0.84479 0.0
H289 H 0.77096 0.92525 0.81638 0.0
H290 H 0.72545 0.967 0.81616 0.0
H291 H 0.81181 0.1187 0.83024 0.0
H292 H 0.87751 0.10356 0.79483 0.0
H293 H 0.85603 0.96398 0.80791 0.0
C294 C 0.71686 0.99765 0.89092 0.0
C295 C 0.69347 0.03246 0.90562 0.0
C296 C 0.7047 0.0762 0.89753 0.0
C297 C 0.73868 0.08518 0.87528 0.0
C298 C 0.76094 0.05009 0.8612 0.0
C299 C 0.75053 0.0072 0.8687 0.0
C300 C 0.7804 0.97548 0.85071 0.0
C301 C 0.81242 0.94762 0.8713 0.0
C302 C 0.7486 0.94655 0.83083 0.0
C303 C 0.80963 0.00726 0.83215 0.0
C304 C 0.79772 0.05013 0.83843 0.0
C305 C 0.82123 0.08526 0.82495 0.0
C306 C 0.85848 0.07632 0.80487 0.0
C307 C 0.87178 0.0326 0.79846 0.0
C308 C 0.84637 0.99775 0.812 0.0
H309 H 0.01321 0.68118 0.3838 0.0
H310 H 0.98255 0.74875 0.46685 0.0
H311 H 0.98616 0.81972 0.44017 0.0
H312 H 0.09691 0.76093 0.35422 0.0
H313 H 0.07652 0.75457 0.31622 0.0
H314 H 0.07244 0.70934 0.34207 0.0
H315 H 0.9815 0.703 0.33153 0.0
H316 H 0.98532 0.74813 0.30564 0.0
H317 H 0.94383 0.75029 0.33647 0.0
H318 H 0.99212 0.88347 0.40394 0.0
H319 H -0.00238 0.93439 0.36091 0.0
H320 H 0.02499 0.82455 0.302 0.0
C321 C 0.0078 0.71091 0.39647 0.0
C322 C -0.00234 0.70939 0.42744 0.0
C323 C 0.9899 0.74907 0.44306 0.0
C324 C 0.9922 0.78954 0.42814 0.0
C325 C 0.00228 0.78982 0.3976 0.0
C326 C 0.00986 0.75151 0.38195 0.0
C327 C 0.01885 0.76058 0.34911 0.0
C328 C 0.06918 0.74546 0.33987 0.0
C329 C 0.98006 0.73924 0.32954 0.0
C330 C 0.01493 0.80998 0.34866 0.0
C331 C 0.00557 0.82632 0.37684 0.0
C332 C -0.00038 0.87103 0.38179 0.0
C333 C 0.00286 0.89971 0.35722 0.0
C334 C 0.01185 0.88352 0.32809 0.0
C335 C 0.01832 0.83806 0.32398 0.0
loop_
_geom_bond_atom_site_label_1
_geom_bond_atom_site_label_2
_geom_bond_distance
_geom_bond_site_symmetry_2
_ccdc_geom_bond_type
C0 C1 1.384 1_545 S
C0 C2 1.384 . S
C0 H28 0.931 . S
C1 C0 1.384 1_565 S
C1 C4 1.382 . S
C2 C0 1.384 . S
C2 C3 1.381 1_545 S
C2 H29 0.930 . S
C3 C2 1.381 1_565 S
C3 C5 1.381 . S
C3 C6 1.487 . S
C4 C1 1.382 . S
C4 C5 1.387 . S
C4 H30 0.930 . S
C5 C3 1.381 . S
C5 C4 1.387 . S
C5 H31 0.931 . S
C6 C3 1.487 . S
C6 C13 1.399 1_566 S
C6 N44 1.343 . S
C7 C8 1.384 1_565 S
C7 C9 1.384 . S
C7 H32 0.931 . S
C8 C7 1.384 1_545 S
C8 C11 1.382 . S
C9 C7 1.384 . S
C9 C10 1.381 1_565 S
C9 H33 0.930 . S
C10 C9 1.381 1_545 S
C10 C12 1.381 . S
C10 C13 1.487 . S
C11 C8 1.382 . S
C11 C12 1.387 . S
C11 H34 0.930 . S
C12 C10 1.381 . S
C12 C11 1.387 . S
C12 H35 0.931 . S
C13 C6 1.399 1_544 S
C13 C10 1.487 . S
C13 N45 1.343 . S
C14 C15 1.384 1_565 S
C14 C16 1.384 . S
C14 H36 0.931 . S
C15 C14 1.384 1_545 S
C15 C18 1.382 . S
C16 C14 1.384 . S
C16 C17 1.381 1_565 S
C16 H37 0.930 . S
C17 C16 1.381 1_545 S
C17 C19 1.381 . S
C17 C20 1.487 . S
C18 C15 1.382 . S
C18 C19 1.387 . S
C18 H38 0.930 . S
C19 C17 1.381 . S
C19 C18 1.387 . S
C19 H39 0.931 . S
C20 C17 1.487 . S
C20 C27 1.399 1_544 S
C20 N45 1.343 . S
C21 C22 1.384 1_545 S
C21 C23 1.384 . S
C21 H40 0.931 . S
C22 C21 1.384 1_565 S
C22 C25 1.382 . S
C23 C21 1.384 . S
C23 C24 1.381 1_545 S
C23 H41 0.930 . S
C24 C23 1.381 1_565 S
C24 C26 1.381 . S
C24 C27 1.487 . S
C25 C22 1.382 . S
C25 C26 1.387 . S
C25 H42 0.930 . S
C26 C24 1.381 . S
C26 C25 1.387 . S
C26 H43 0.931 . S
C27 C20 1.399 1_566 S
C27 C24 1.487 . S
C27 N44 1.343 . S
H28 C0 0.931 . S
H29 C2 0.930 . S
H30 C4 0.930 . S
H31 C5 0.931 . S
H32 C7 0.931 . S
H33 C9 0.930 . S
H34 C11 0.930 . S
H35 C12 0.931 . S
H36 C14 0.931 . S
H37 C16 0.930 . S
H38 C18 0.930 . S
H39 C19 0.931 . S
H40 C21 0.931 . S
H41 C23 0.930 . S
H42 C25 0.930 . S
H43 C26 0.931 . S
N44 C6 1.343 . S
N44 C27 1.343 . S
N45 C13 1.343 . S
N45 C20 1.343 . S
C46 C47 1.384 1_455 S
C46 C48 1.384 . S
C46 H74 0.931 . S
C47 C46 1.384 1_655 S
C47 C50 1.382 . S
C48 C46 1.384 . S
C48 C49 1.381 1_455 S
C48 H75 0.930 . S
C49 C48 1.381 1_655 S
C49 C51 1.381 . S
C49 C52 1.487 . S
C50 C47 1.382 . S
C50 C51 1.387 . S
C50 H76 0.930 . S
C51 C49 1.381 . S
C51 C50 1.387 . S
C51 H77 0.931 . S
C52 C49 1.487 . S
C52 C59 1.399 1_655 S
C52 N90 1.343 . S
C53 C54 1.384 1_655 S
C53 C55 1.384 . S
C53 H78 0.931 . S
C54 C53 1.384 1_455 S
C54 C57 1.382 . S
C55 C53 1.384 . S
C55 C56 1.381 1_655 S
C55 H79 0.930 . S
C56 C55 1.381 1_455 S
C56 C58 1.381 . S
C56 C59 1.487 . S
C57 C54 1.382 . S
C57 C58 1.387 . S
C57 H80 0.930 . S
C58 C56 1.381 . S
C58 C57 1.387 . S
C58 H81 0.931 . S
C59 C52 1.399 1_455 S
C59 C56 1.487 . S
C59 N91 1.343 . S
C60 C61 1.384 1_655 S
C60 C62 1.384 . S
C60 H82 0.931 . S
C61 C60 1.384 1_455 S
C61 C64 1.382 . S
C62 C60 1.384 . S
C62 C63 1.381 1_655 S
C62 H83 0.930 . S
C63 C62 1.381 1_455 S
C63 C65 1.381 . S
C63 C66 1.487 . S
C64 C61 1.382 . S
C64 C65 1.387 . S
C64 H84 0.930 . S
C65 C63 1.381 . S
C65 C64 1.387 . S
C65 H85 0.931 . S
C66 C63 1.487 . S
C66 C73 1.399 1_455 S
C66 N91 1.343 . S
C67 C68 1.384 1_455 S
C67 C69 1.384 . S
C67 H86 0.931 . S
C68 C67 1.384 1_655 S
C68 C71 1.382 . S
C69 C67 1.384 . S
C69 C70 1.381 1_455 S
C69 H87 0.930 . S
C70 C69 1.381 1_655 S
C70 C72 1.381 . S
C70 C73 1.487 . S
C71 C68 1.382 . S
C71 C72 1.387 . S
C71 H88 0.930 . S
C72 C70 1.381 . S
C72 C71 1.387 . S
C72 H89 0.931 . S
C73 C66 1.399 1_655 S
C73 C70 1.487 . S
C73 N90 1.343 . S
H74 C46 0.931 . S
H75 C48 0.930 . S
H76 C50 0.930 . S
H77 C51 0.931 . S
H78 C53 0.931 . S
H79 C55 0.930 . S
H80 C57 0.930 . S
H81 C58 0.931 . S
H82 C60 0.931 . S
H83 C62 0.930 . S
H84 C64 0.930 . S
H85 C65 0.931 . S
H86 C67 0.931 . S
H87 C69 0.930 . S
H88 C71 0.930 . S
H89 C72 0.931 . S
N90 C52 1.343 . S
N90 C73 1.343 . S
N91 C59 1.343 . S
N91 C66 1.343 . S
O92 Cd93 2.223 1_655 S
O92 C100 1.315 . S
Cd93 O92 2.223 1_455 S
Cd93 O96 2.297 1_455 S
Cd93 O97 2.439 1_455 S
Cd93 O103 2.240 1_565 S
Cd94 O95 2.240 1_545 S
Cd94 O102 2.223 1_655 S
Cd94 O104 2.297 1_655 S
Cd94 O105 2.439 1_655 S
O95 Cd94 2.240 1_565 S
O95 C100 1.279 . S
O96 Cd93 2.297 1_655 S
O96 C98 1.247 . S
O97 Cd93 2.439 1_655 S
O97 C98 1.208 . S
C98 O96 1.247 . S
C98 O97 1.208 . S
C99 O104 1.247 . S
C99 O105 1.208 . S
C100 O92 1.315 . S
C100 O95 1.279 . S
C101 O102 1.315 . S
C101 O103 1.279 . S
O102 Cd94 2.223 1_455 S
O102 C101 1.315 . S
O103 Cd93 2.240 1_545 S
O103 C101 1.279 . S
O104 Cd94 2.297 1_455 S
O104 C99 1.247 . S
O105 Cd94 2.439 1_455 S
O105 C99 1.208 . S
O106 Cd107 2.223 1_655 S
O106 C114 1.315 . S
Cd107 O106 2.223 1_455 S
Cd107 O110 2.297 1_455 S
Cd107 O111 2.439 1_455 S
Cd107 O117 2.240 1_545 S
Cd108 O109 2.240 1_565 S
Cd108 O116 2.223 1_655 S
Cd108 O118 2.297 1_655 S
Cd108 O119 2.439 1_655 S
O109 Cd108 2.240 1_545 S
O109 C114 1.279 . S
O110 Cd107 2.297 1_655 S
O110 C112 1.247 . S
O111 Cd107 2.439 1_655 S
O111 C112 1.208 . S
C112 O110 1.247 . S
C112 O111 1.208 . S
C113 O118 1.247 . S
C113 O119 1.208 . S
C114 O106 1.315 . S
C114 O109 1.279 . S
C115 O116 1.315 . S
C115 O117 1.279 . S
O116 Cd108 2.223 1_455 S
O116 C115 1.315 . S
O117 Cd107 2.240 1_565 S
O117 C115 1.279 . S
O118 Cd108 2.297 1_455 S
O118 C113 1.247 . S
O119 Cd108 2.439 1_455 S
O119 C113 1.208 . S
H120 C132 0.930 . S
H121 C134 0.930 . S
H122 C135 0.930 . S
H123 C139 0.959 . S
H124 C139 0.959 . S
H125 C139 0.961 . S
H126 C140 0.960 . S
H127 C140 0.961 . S
H128 C140 0.959 . S
H129 C143 0.929 . S
H130 C144 0.931 . S
H131 C146 0.930 . S
C132 H120 0.930 . S
C132 C133 1.399 1_565 S
C132 C137 1.399 . S
C133 C132 1.399 1_545 S
C133 C134 1.376 . S
C134 H121 0.930 . S
C134 C133 1.376 . S
C134 C135 1.388 . S
C135 H122 0.930 . S
C135 C134 1.388 . S
C135 C136 1.390 . S
C136 C135 1.390 . S
C136 C137 1.394 1_545 S
C136 C142 1.465 . S
C137 C132 1.399 . S
C137 C136 1.394 1_565 S
C137 C138 1.516 . S
C138 C137 1.516 . S
C138 C139 1.502 . S
C138 C140 1.561 . S
C138 C141 1.526 . S
C139 H123 0.959 . S
C139 H124 0.959 . S
C139 H125 0.961 . S
C139 C138 1.502 . S
C140 H126 0.960 . S
C140 H127 0.961 . S
C140 H128 0.959 . S
C140 C138 1.561 . S
C141 C138 1.526 . S
C141 C142 1.396 1_565 S
C141 C146 1.390 . S
C142 C136 1.465 . S
C142 C141 1.396 1_545 S
C142 C143 1.399 . S
C143 H129 0.929 . S
C143 C142 1.399 . S
C143 C144 1.385 . S
C144 H130 0.931 . S
C144 C143 1.385 . S
C144 C145 1.389 . S
C145 C144 1.389 . S
C145 C146 1.387 1_545 S
C146 H131 0.930 . S
C146 C141 1.390 . S
C146 C145 1.387 1_565 S
H147 C159 0.930 . S
H148 C161 0.930 . S
H149 C162 0.930 . S
H150 C166 0.959 . S
H151 C166 0.959 . S
H152 C166 0.961 . S
H153 C167 0.960 . S
H154 C167 0.961 . S
H155 C167 0.959 . S
H156 C170 0.929 . S
H157 C171 0.931 . S
H158 C173 0.930 1_455 S
C159 H147 0.930 . S
C159 C160 1.399 1_455 S
C159 C164 1.399 1_455 S
C160 C159 1.399 1_655 S
C160 C161 1.376 . S
C161 H148 0.930 . S
C161 C160 1.376 . S
C161 C162 1.388 . S
C162 H149 0.930 . S
C162 C161 1.388 . S
C162 C163 1.390 . S
C163 C162 1.390 . S
C163 C164 1.394 . S
C163 C169 1.465 . S
C164 C159 1.399 1_655 S
C164 C163 1.394 . S
C164 C165 1.516 1_655 S
C165 C164 1.516 1_455 S
C165 C166 1.502 . S
C165 C167 1.561 1_455 S
C165 C168 1.526 1_455 S
C166 H150 0.959 . S
C166 H151 0.959 . S
C166 H152 0.961 . S
C166 C165 1.502 . S
C167 H153 0.960 . S
C167 H154 0.961 . S
C167 H155 0.959 . S
C167 C165 1.561 1_655 S
C168 C165 1.526 1_655 S
C168 C169 1.396 . S
C168 C173 1.390 . S
C169 C163 1.465 . S
C169 C168 1.396 . S
C169 C170 1.399 . S
C170 H156 0.929 . S
C170 C169 1.399 . S
C170 C171 1.385 . S
C171 H157 0.931 . S
C171 C170 1.385 . S
C171 C172 1.389 . S
C172 C171 1.389 . S
C172 C173 1.387 . S
C173 H158 0.930 1_655 S
C173 C168 1.390 . S
C173 C172 1.387 . S
H174 C186 0.930 . S
H175 C188 0.930 . S
H176 C189 0.930 . S
H177 C193 0.959 . S
H178 C193 0.959 . S
H179 C193 0.961 . S
H180 C194 0.960 . S
H181 C194 0.961 . S
H182 C194 0.959 . S
H183 C197 0.929 . S
H184 C198 0.931 . S
H185 C200 0.930 . S
C186 H174 0.930 . S
C186 C187 1.399 1_545 S
C186 C191 1.399 . S
C187 C186 1.399 1_565 S
C187 C188 1.376 . S
C188 H175 0.930 . S
C188 C187 1.376 . S
C188 C189 1.388 . S
C189 H176 0.930 . S
C189 C188 1.388 . S
C189 C190 1.390 . S
C190 C189 1.390 . S
C190 C191 1.394 1_565 S
C190 C196 1.465 . S
C191 C186 1.399 . S
C191 C190 1.394 1_545 S
C191 C192 1.516 . S
C192 C191 1.516 . S
C192 C193 1.502 . S
C192 C194 1.561 . S
C192 C195 1.526 . S
C193 H177 0.959 . S
C193 H178 0.959 . S
C193 H179 0.961 . S
C193 C192 1.502 . S
C194 H180 0.960 . S
C194 H181 0.961 . S
C194 H182 0.959 . S
C194 C192 1.561 . S
C195 C192 1.526 . S
C195 C196 1.396 1_545 S
C195 C200 1.390 . S
C196 C190 1.465 . S
C196 C195 1.396 1_565 S
C196 C197 1.399 . S
C197 H183 0.929 . S
C197 C196 1.399 . S
C197 C198 1.385 . S
C198 H184 0.931 . S
C198 C197 1.385 . S
C198 C199 1.389 . S
C199 C198 1.389 . S
C199 C200 1.387 1_565 S
C200 H185 0.930 . S
C200 C195 1.390 . S
C200 C199 1.387 1_545 S
H201 C213 0.930 . S
H202 C215 0.930 . S
H203 C216 0.930 . S
H204 C220 0.959 . S
H205 C220 0.959 . S
H206 C220 0.961 . S
H207 C221 0.960 . S
H208 C221 0.961 . S
H209 C221 0.959 1_655 S
H210 C224 0.929 . S
H211 C225 0.931 1_655 S
H212 C227 0.930 . S
C213 H201 0.930 . S
C213 C214 1.392 1_455 S
C213 C218 1.399 . S
C214 C213 1.392 1_655 S
C214 C215 1.384 . S
C215 H202 0.930 . S
C215 C214 1.384 . S
C215 C216 1.388 . S
C216 H203 0.930 . S
C216 C215 1.388 . S
C216 C217 1.390 . S
C217 C216 1.390 . S
C217 C218 1.394 1_655 S
C217 C223 1.465 1_655 S
C218 C213 1.399 . S
C218 C217 1.394 1_455 S
C218 C219 1.516 . S
C219 C218 1.516 . S
C219 C220 1.502 . S
C219 C221 1.561 . S
C219 C222 1.526 . S
C220 H204 0.959 . S
C220 H205 0.959 . S
C220 H206 0.961 . S
C220 C219 1.502 . S
C221 H207 0.960 . S
C221 H208 0.961 . S
C221 H209 0.959 1_455 S
C221 C219 1.561 . S
C222 C219 1.526 . S
C222 C223 1.396 . S
C222 C227 1.390 . S
C223 C217 1.465 1_455 S
C223 C222 1.396 . S
C223 C224 1.399 1_455 S
C224 H210 0.929 . S
C224 C223 1.399 1_655 S
C224 C225 1.385 1_655 S
C225 H211 0.931 1_455 S
C225 C224 1.385 1_455 S
C225 C226 1.389 . S
C226 C225 1.389 . S
C226 C227 1.387 . S
C227 H212 0.930 . S
C227 C222 1.390 . S
C227 C226 1.387 . S
H228 C240 0.930 . S
H229 C242 0.930 . S
H230 C243 0.930 . S
H231 C247 0.959 . S
H232 C247 0.959 . S
H233 C247 0.961 . S
H234 C248 0.960 . S
H235 C248 0.961 . S
H236 C248 0.961 1_565 S
H237 C251 0.929 . S
H238 C252 0.931 . S
H239 C254 0.930 . S
C240 H228 0.930 . S
C240 C241 1.399 1_545 S
C240 C245 1.399 . S
C241 C240 1.399 1_565 S
C241 C242 1.376 . S
C242 H229 0.930 . S
C242 C241 1.376 . S
C242 C243 1.388 . S
C243 H230 0.930 . S
C243 C242 1.388 . S
C243 C244 1.390 . S
C244 C243 1.390 . S
C244 C245 1.394 1_565 S
C244 C250 1.465 . S
C245 C240 1.399 . S
C245 C244 1.394 1_545 S
C245 C246 1.516 . S
C246 C245 1.516 . S
C246 C247 1.502 . S
C246 C248 1.561 . S
C246 C249 1.526 . S
C247 H231 0.959 . S
C247 H232 0.959 . S
C247 H233 0.961 . S
C247 C246 1.502 . S
C248 H234 0.960 . S
C248 H235 0.961 . S
C248 H236 0.961 1_545 S
C248 C246 1.561 . S
C249 C246 1.526 . S
C249 C250 1.396 1_545 S
C249 C254 1.390 . S
C250 C244 1.465 . S
C250 C249 1.396 1_565 S
C250 C251 1.399 . S
C251 H237 0.929 . S
C251 C250 1.399 . S
C251 C252 1.385 . S
C252 H238 0.931 . S
C252 C251 1.385 . S
C252 C253 1.389 . S
C253 C252 1.389 . S
C253 C254 1.387 1_565 S
C254 H239 0.930 . S
C254 C249 1.390 . S
C254 C253 1.387 1_545 S
H255 C267 0.930 . S
H256 C269 0.930 . S
H257 C270 0.930 . S
H258 C274 0.959 . S
H259 C274 0.959 . S
H260 C274 0.961 . S
H261 C275 0.960 . S
H262 C275 0.961 . S
H263 C275 0.959 . S
H264 C278 0.929 . S
H265 C279 0.931 . S
H266 C281 0.930 . S
C267 H255 0.930 . S
C267 C268 1.399 . S
C267 C272 1.399 . S
C268 C267 1.399 . S
C268 C269 1.376 1_455 S
C269 H256 0.930 . S
C269 C268 1.376 1_655 S
C269 C270 1.388 . S
C270 H257 0.930 . S
C270 C269 1.388 . S
C270 C271 1.390 1_655 S
C271 C270 1.390 1_455 S
C271 C272 1.394 . S
C271 C277 1.465 . S
C272 C267 1.399 . S
C272 C271 1.394 . S
C272 C273 1.516 . S
C273 C272 1.516 . S
C273 C274 1.502 . S
C273 C275 1.561 . S
C273 C276 1.526 . S
C274 H258 0.959 . S
C274 H259 0.959 . S
C274 H260 0.961 . S
C274 C273 1.502 . S
C275 H261 0.960 . S
C275 H262 0.961 . S
C275 H263 0.959 . S
C275 C273 1.561 . S
C276 C273 1.526 . S
C276 C277 1.396 . S
C276 C281 1.390 . S
C277 C271 1.465 . S
C277 C276 1.396 . S
C277 C278 1.399 1_455 S
C278 H264 0.929 . S
C278 C277 1.399 1_655 S
C278 C279 1.385 . S
C279 H265 0.931 . S
C279 C278 1.385 . S
C279 C280 1.389 1_655 S
C280 C279 1.389 1_455 S
C280 C281 1.387 . S
C281 H266 0.930 . S
C281 C276 1.390 . S
C281 C280 1.387 . S
H282 C294 0.930 . S
H283 C296 0.930 . S
H284 C297 0.930 . S
H285 C301 0.959 . S
H286 C301 0.959 . S
H287 C301 0.961 . S
H288 C302 0.960 . S
H289 C302 0.961 . S
H290 C302 0.959 . S
H291 C305 0.929 . S
H292 C306 0.931 . S
H293 C308 0.930 . S
C294 H282 0.930 . S
C294 C295 1.399 1_565 S
C294 C299 1.399 . S
C295 C294 1.399 1_545 S
C295 C296 1.376 . S
C296 H283 0.930 . S
C296 C295 1.376 . S
C296 C297 1.388 . S
C297 H284 0.930 . S
C297 C296 1.388 . S
C297 C298 1.390 . S
C298 C297 1.390 . S
C298 C299 1.394 1_545 S
C298 C304 1.465 . S
C299 C294 1.399 . S
C299 C298 1.394 1_565 S
C299 C300 1.516 . S
C300 C299 1.516 . S
C300 C301 1.502 . S
C300 C302 1.561 . S
C300 C303 1.526 . S
C301 H285 0.959 . S
C301 H286 0.959 . S
C301 H287 0.961 . S
C301 C300 1.502 . S
C302 H288 0.960 . S
C302 H289 0.961 . S
C302 H290 0.959 . S
C302 C300 1.561 . S
C303 C300 1.526 . S
C303 C304 1.396 1_565 S
C303 C308 1.390 . S
C304 C298 1.465 . S
C304 C303 1.396 1_545 S
C304 C305 1.399 . S
C305 H291 0.929 . S
C305 C304 1.399 . S
C305 C306 1.385 . S
C306 H292 0.931 . S
C306 C305 1.385 . S
C306 C307 1.389 . S
C307 C306 1.389 . S
C307 C308 1.387 1_545 S
C308 H293 0.930 . S
C308 C303 1.390 . S
C308 C307 1.387 1_565 S
H309 C321 0.930 . S
H310 C323 0.930 . S
H311 C324 0.930 . S
H312 C328 0.959 . S
H313 C328 0.959 . S
H314 C328 0.961 . S
H315 C329 0.960 . S
H316 C329 0.961 . S
H317 C329 0.959 . S
H318 C332 0.929 . S
H319 C333 0.931 . S
H320 C335 0.930 . S
C321 H309 0.930 . S
C321 C322 1.399 . S
C321 C326 1.399 . S
C322 C321 1.399 . S
C322 C323 1.376 . S
C323 H310 0.930 . S
C323 C322 1.376 . S
C323 C324 1.388 . S
C324 H311 0.930 . S
C324 C323 1.388 . S
C324 C325 1.390 . S
C325 C324 1.390 . S
C325 C326 1.394 . S
C325 C331 1.465 . S
C326 C321 1.399 . S
C326 C325 1.394 . S
C326 C327 1.516 . S
C327 C326 1.516 . S
C327 C328 1.502 1_655 S
C327 C329 1.561 . S
C327 C330 1.526 . S
C328 H312 0.959 . S
C328 H313 0.959 . S
C328 H314 0.961 . S
C328 C327 1.502 1_455 S
C329 H315 0.960 . S
C329 H316 0.961 . S
C329 H317 0.959 . S
C329 C327 1.561 . S
C330 C327 1.526 . S
C330 C331 1.396 . S
C330 C335 1.390 . S
C331 C325 1.465 . S
C331 C330 1.396 . S
C331 C332 1.399 . S
C332 H318 0.929 . S
C332 C331 1.399 . S
C332 C333 1.385 . S
C333 H319 0.931 . S
C333 C332 1.385 . S
C333 C334 1.389 . S
C334 C333 1.389 . S
C334 C335 1.387 . S
C335 H320 0.930 . S
C335 C330 1.390 . S
C335 C334 1.387 . S
C145 C101 1.594 . S
C133 C15 1.586 . S
C172 C112 1.563 . S
C160 C68 1.576 . S
C199 C100 1.595 . S
C187 C8 1.594 1_565 S
C226 C113 1.487 . S
C214 C47 1.600 . S
C253 C115 1.597 . S
C241 C22 1.589 . S
C280 C99 1.525 . S
C268 C61 1.586 . S
C307 C114 1.593 . S
C295 C1 1.601 1_545 S
C322 C54 1.586 1_655 S
C334 C98 1.553 . S
