# Generated by pormake.
# Topology zzz, (3,6)-cn, num edge types: 1
# Building blocks:
#     Node 0, Type 0, BuildingBlock: QEWDON_clean_linker_0, # of connection points: 3
#     Node 1, Type 0, BuildingBlock: QEWDON_clean_linker_0, # of connection points: 3
#     Node 2, Type 0, BuildingBlock: QEWDON_clean_linker_0, # of connection points: 3
#     Node 3, Type 0, BuildingBlock: QEWDON_clean_linker_0, # of connection points: 3
#     Node 4, Type 0, BuildingBlock: QEWDON_clean_linker_0, # of connection points: 3
#     Node 5, Type 0, BuildingBlock: QEWDON_clean_linker_0, # of connection points: 3
#     Node 6, Type 0, BuildingBlock: QEWDON_clean_linker_0, # of connection points: 3
#     Node 7, Type 0, BuildingBlock: QEWDON_clean_linker_0, # of connection points: 3
#     Node 8, Type 1, BuildingBlock: JUFBIX_clean_sbu_0, # of connection points: 6
#     Node 9, Type 1, BuildingBlock: JUFBIX_clean_sbu_0, # of connection points: 6
#     Node 10, Type 1, BuildingBlock: JUFBIX_clean_sbu_0, # of connection points: 6
#     Node 11, Type 1, BuildingBlock: JUFBIX_clean_sbu_0, # of connection points: 6
#     Edge 12, Type (0, 1), BuildingBlock: UVAHIK_clean_linker_0, # of connection points: 2
#     Edge 13, Type (0, 1), BuildingBlock: UVAHIK_clean_linker_0, # of connection points: 2
#     Edge 14, Type (0, 1), BuildingBlock: UVAHIK_clean_linker_0, # of connection points: 2
#     Edge 15, Type (0, 1), BuildingBlock: UVAHIK_clean_linker_0, # of connection points: 2
#     Edge 16, Type (0, 1), BuildingBlock: UVAHIK_clean_linker_0, # of connection points: 2
#     Edge 17, Type (0, 1), BuildingBlock: UVAHIK_clean_linker_0, # of connection points: 2
#     Edge 18, Type (0, 1), BuildingBlock: UVAHIK_clean_linker_0, # of connection points: 2
#     Edge 19, Type (0, 1), BuildingBlock: UVAHIK_clean_linker_0, # of connection points: 2
#     Edge 20, Type (0, 1), BuildingBlock: UVAHIK_clean_linker_0, # of connection points: 2
#     Edge 21, Type (0, 1), BuildingBlock: UVAHIK_clean_linker_0, # of connection points: 2
#     Edge 22, Type (0, 1), BuildingBlock: UVAHIK_clean_linker_0, # of connection points: 2
#     Edge 23, Type (0, 1), BuildingBlock: UVAHIK_clean_linker_0, # of connection points: 2
#     Edge 24, Type (0, 1), BuildingBlock: UVAHIK_clean_linker_0, # of connection points: 2
#     Edge 25, Type (0, 1), BuildingBlock: UVAHIK_clean_linker_0, # of connection points: 2
#     Edge 26, Type (0, 1), BuildingBlock: UVAHIK_clean_linker_0, # of connection points: 2
#     Edge 27, Type (0, 1), BuildingBlock: UVAHIK_clean_linker_0, # of connection points: 2
#     Edge 28, Type (0, 1), BuildingBlock: UVAHIK_clean_linker_0, # of connection points: 2
#     Edge 29, Type (0, 1), BuildingBlock: UVAHIK_clean_linker_0, # of connection points: 2
#     Edge 30, Type (0, 1), BuildingBlock: UVAHIK_clean_linker_0, # of connection points: 2
#     Edge 31, Type (0, 1), BuildingBlock: UVAHIK_clean_linker_0, # of connection points: 2
#     Edge 32, Type (0, 1), BuildingBlock: UVAHIK_clean_linker_0, # of connection points: 2
#     Edge 33, Type (0, 1), BuildingBlock: UVAHIK_clean_linker_0, # of connection points: 2
#     Edge 34, Type (0, 1), BuildingBlock: UVAHIK_clean_linker_0, # of connection points: 2
#     Edge 35, Type (0, 1), BuildingBlock: UVAHIK_clean_linker_0, # of connection points: 2
# Relax obj value: 0.086
# Max RMSD: 0.180
# Mean RMSD: 0.079
data_MOF--net-zzz--node1-JUFBIX_clean_sbu_0--node2-QEWDON_clean_linker_0--edge1-UVAHIK_clean_linker_0
_symmetry_space_group_name_H-M    P1
_symmetry_Int_Tables_number       1
_symmetry_cell_setting            triclinic
loop_
_symmetry_equiv_pos_as_xyz
'x, y, z'
_cell_length_a     70.175679
_cell_length_b     70.152057
_cell_length_c     21.977135
_cell_angle_alpha  83.003776
_cell_angle_beta   89.799175
_cell_angle_gamma 90.404028
loop_
_atom_site_label
_atom_site_type_symbol
_atom_site_fract_x
_atom_site_fract_y
_atom_site_fract_z
_atom_type_partial_charge
H0 H 0.79638 0.53244 0.14021 0.0
C1 C 0.80401 0.52946 0.18304 0.0
C2 C 0.82221 0.52138 0.18254 0.0
C3 C 0.79596 0.53403 0.23838 0.0
H4 H 0.84698 0.51265 0.23557 0.0
C5 C 0.83259 0.51817 0.23688 0.0
C6 C 0.8253 0.52331 0.2918 0.0
C7 C 0.80693 0.53107 0.29264 0.0
C8 C 0.77635 0.5422 0.23933 0.0
H9 H 0.80124 0.53459 0.33573 0.0
C10 C 0.76186 0.53638 0.20089 0.0
C11 C 0.74329 0.54375 0.20324 0.0
C12 C 0.77192 0.55583 0.27918 0.0
H13 H 0.78271 0.56114 0.30805 0.0
C14 C 0.7535 0.56305 0.28179 0.0
H15 H 0.76478 0.52577 0.17021 0.0
C16 C 0.73923 0.55699 0.24441 0.0
H17 H 0.72507 0.56292 0.2468 0.0
H18 H 0.75029 0.57349 0.31273 0.0
H19 H 0.00602 0.78215 0.14283 0.0
C20 C 0.00649 0.78831 0.18564 0.0
C21 C 0.01545 0.80622 0.18679 0.0
C22 C 0.99771 0.77875 0.23888 0.0
H23 H 0.02134 0.82908 0.24112 0.0
C24 C 0.01534 0.81479 0.24108 0.0
C25 C 0.00617 0.80602 0.2938 0.0
C26 C 0.99757 0.78792 0.29289 0.0
C27 C 0.98816 0.75963 0.23751 0.0
H28 H 0.99087 0.78112 0.33446 0.0
C29 C 0.99498 0.74626 0.1994 0.0
C30 C 0.98603 0.72823 0.19923 0.0
C31 C 0.97198 0.75458 0.27436 0.0
H32 H 0.96578 0.76456 0.30255 0.0
C33 C 0.96328 0.73663 0.27471 0.0
H34 H 0.00744 0.74958 0.17075 0.0
C35 C 0.9703 0.72347 0.23772 0.0
H36 H 0.96318 0.7097 0.23815 0.0
H37 H 0.95091 0.73296 0.30342 0.0
H38 H 0.74791 1.0057 0.05483 0.0
C39 C 0.74124 0.00774 0.09811 0.0
C40 C 0.72346 0.01677 0.09806 0.0
C41 C 0.74985 1.00039 0.15384 0.0
H42 H 0.70026 0.02484 0.15323 0.0
C43 C 0.71441 0.01868 0.1538 0.0
C44 C 0.72235 0.01096 0.20972 0.0
C45 C 0.74015 1.00187 0.20957 0.0
C46 C 0.76799 0.9895 0.15338 0.0
H47 H 0.74628 0.99576 0.2527 0.0
C48 C 0.78345 0.99632 0.11516 0.0
C49 C 0.80004 0.9852 0.11276 0.0
C50 C 0.76956 0.97164 0.18968 0.0
H51 H 0.75788 0.96589 0.21881 0.0
C52 C 0.78601 0.96069 0.18748 0.0
H53 H 0.78253 0.01008 0.08702 0.0
C54 C 0.8011 0.96734 0.14906 0.0
H55 H 0.81373 0.95859 0.14805 0.0
H56 H 0.78699 0.9469 0.21534 0.0
H57 H 0.53131 0.73866 0.06548 0.0
C58 C 0.5278 0.73049 0.10922 0.0
C59 C 0.51955 0.71212 0.11068 0.0
C60 C 0.53239 0.73785 0.16428 0.0
H61 H 0.51022 0.68674 0.16822 0.0
C62 C 0.51571 0.70127 0.16726 0.0
C63 C 0.52068 0.70804 0.22236 0.0
C64 C 0.52889 0.72639 0.22071 0.0
C65 C 0.54213 0.7568 0.16337 0.0
H66 H 0.53273 0.73164 0.26345 0.0
C67 C 0.53579 0.77323 0.12539 0.0
C68 C 0.54458 0.79124 0.12831 0.0
C69 C 0.5578 0.75857 0.20212 0.0
H70 H 0.56326 0.74617 0.2308 0.0
C71 C 0.56669 0.77629 0.20417 0.0
H72 H 0.52366 0.77218 0.09554 0.0
C73 C 0.56006 0.79255 0.16798 0.0
H74 H 0.56711 0.80622 0.17067 0.0
H75 H 0.57872 0.77746 0.23425 0.0
H76 H 0.2356 0.52028 0.34905 0.0
C77 C 0.22828 0.51557 0.31012 0.0
C78 C 0.20964 0.50833 0.31785 0.0
C79 C 0.23718 0.51723 0.25199 0.0
H80 H 0.18506 0.49812 0.27304 0.0
C81 C 0.19978 0.5029 0.26745 0.0
C82 C 0.20796 0.50517 0.20899 0.0
C83 C 0.22671 0.51218 0.20135 0.0
C84 C 0.25705 0.5249 0.24378 0.0
H85 H 0.23302 0.51364 0.15596 0.0
C86 C 0.27097 0.52047 0.28955 0.0
C87 C 0.28973 0.52767 0.28139 0.0
C88 C 0.26223 0.53683 0.18998 0.0
H89 H 0.25188 0.54099 0.15453 0.0
C90 C 0.28081 0.54388 0.18161 0.0
H91 H 0.26738 0.51111 0.33096 0.0
C92 C 0.29449 0.53933 0.22679 0.0
H93 H 0.30872 0.54526 0.21951 0.0
H94 H 0.28458 0.55307 0.14007 0.0
H95 H 0.01465 0.24797 0.35174 0.0
C96 C 0.02021 0.24157 0.31296 0.0
C97 C 0.02569 0.22222 0.32126 0.0
C98 C 0.02135 0.25238 0.25454 0.0
H99 H 0.03577 0.19846 0.27684 0.0
C100 C 0.03224 0.21361 0.27102 0.0
C101 C 0.03284 0.22381 0.21241 0.0
C102 C 0.02756 0.2432 0.20416 0.0
C103 C 0.01522 0.27289 0.24566 0.0
H104 H 0.02827 0.251 0.15852 0.0
C105 C 0.01871 0.28525 0.29079 0.0
C106 C 0.0129 0.3046 0.28181 0.0
C107 C 1.0056 0.28023 0.19186 0.0
H108 H 1.00216 0.27114 0.15696 0.0
C109 C 0.9999 0.29936 0.18275 0.0
H110 H 0.02629 0.27999 0.33225 0.0
C111 C 1.00353 0.31148 0.22718 0.0
H112 H 0.99867 0.32619 0.21926 0.0
H113 H 0.99247 0.30478 0.14122 0.0
H114 H 0.27904 1.00334 0.44894 0.0
C115 C 0.28653 0.01046 0.40924 0.0
C116 C 0.30586 0.01534 0.41438 0.0
C117 C 0.2773 0.01375 0.35197 0.0
H118 H 0.33107 0.02664 0.36655 0.0
C119 C 0.31594 0.02366 0.36275 0.0
C120 C 0.30729 0.02649 0.3053 0.0
C121 C 0.28795 0.02175 0.30008 0.0
C122 C 0.2572 0.00724 0.3447 0.0
H123 H 0.28138 0.02403 0.25528 0.0
C124 C 0.24298 0.0092 0.38943 0.0
C125 C 0.2241 1.00275 0.38131 0.0
C126 C 0.25223 0.99863 0.29232 0.0
H127 H 0.26279 0.99633 0.25797 0.0
C128 C 0.23363 0.99257 0.28369 0.0
H129 H 0.24657 0.01563 0.43031 0.0
C130 C 0.21967 0.99469 0.32741 0.0
H131 H 0.20528 0.99009 0.31862 0.0
H132 H 0.23 0.98615 0.24285 0.0
H133 H 0.51918 0.29253 0.45299 0.0
C134 C 0.51531 0.30041 0.4093 0.0
C135 C 0.50685 0.31855 0.4077 0.0
C136 C 0.51984 0.29301 0.35431 0.0
H137 H 0.497 0.34348 0.35002 0.0
C138 C 0.50262 0.32907 0.35107 0.0
C139 C 0.50758 0.32227 0.29595 0.0
C140 C 0.51606 0.30415 0.29777 0.0
C141 C 0.53036 0.27466 0.3554 0.0
H142 H 0.5201 0.29892 0.25516 0.0
C143 C 0.52418 0.25772 0.39176 0.0
C144 C 0.53406 0.24033 0.38992 0.0
C145 C 0.54682 0.27411 0.31902 0.0
H146 H 0.55206 0.28696 0.29151 0.0
C147 C 0.55684 0.25709 0.31823 0.0
H148 H 0.51141 0.25793 0.41953 0.0
C149 C 0.55052 0.24032 0.35313 0.0
H150 H 0.55862 0.2273 0.35164 0.0
H151 H 0.56955 0.25687 0.29028 0.0
Co152 Co 0.02072 0.0207 0.79966 0.0
C153 C 0.98142 0.01338 0.80773 0.0
Co154 Co 0.00876 0.00801 0.72047 0.0
C155 C 0.03603 0.05062 0.86625 0.0
C156 C 0.02795 0.0254 0.92557 0.0
N157 N 0.02967 0.03238 0.86592 0.0
N158 N 0.03796 0.05547 0.92371 0.0
C159 C 0.03302 0.03946 0.96101 0.0
H160 H 0.03841 0.06039 0.82492 0.0
H161 H 0.0222 0.01139 0.94233 0.0
C162 C 0.04802 0.01512 0.71225 0.0
N163 N 0.9993 0.99617 0.65552 0.0
C164 C 1.0049 0.97925 0.63804 0.0
C165 C 0.98381 1.00112 0.62121 0.0
N166 N 0.99334 0.97324 0.59509 0.0
C167 C 0.98009 0.98705 0.58415 0.0
C168 C 0.00812 0.0475 0.70413 0.0
O169 O 0.04559 0.02201 0.76276 0.0
O170 O 0.03377 0.00814 0.68657 0.0
O171 O 1.00439 0.03291 0.67694 0.0
O172 O 0.01494 0.04503 0.75785 0.0
O173 O 0.98389 0.00785 0.75532 0.0
H174 H 0.97529 0.01373 0.62483 0.0
H175 H 0.01662 0.97095 0.659 0.0
O176 O 0.99571 0.01936 0.83564 0.0
O177 O 0.02648 0.99593 0.84076 0.0
O178 O 0.0132 0.98353 0.76437 0.0
C179 C 0.02147 0.98125 0.81594 0.0
H180 H 0.03189 0.03823 0.01043 0.0
H181 H 0.96829 0.98682 0.55268 0.0
Co182 Co 0.50841 0.0194 0.80086 0.0
C183 C 0.51694 0.98003 0.80425 0.0
Co184 Co 0.52027 0.01075 0.71476 0.0
C185 C 0.47983 0.03143 0.88406 0.0
C186 C 0.50469 0.01997 0.93066 0.0
N187 N 0.4975 0.02481 0.87422 0.0
N188 N 0.47554 0.03062 0.9445 0.0
C189 C 0.49134 0.0235 0.97369 0.0
H190 H 0.47009 0.03607 0.84733 0.0
H191 H 0.51838 0.01326 0.94005 0.0
C192 C 0.51185 0.0501 0.7111 0.0
N193 N 0.53128 1.00531 0.64145 0.0
C194 C 0.5495 1.0002 0.6317 0.0
C195 C 0.52369 0.00876 0.58498 0.0
N196 N 0.55372 1.0007 0.57141 0.0
C197 C 0.53737 0.00592 0.54202 0.0
C198 C 0.48111 0.00851 0.71891 0.0
O199 O 0.50686 0.04575 0.76688 0.0
O200 O 0.51778 0.03692 0.68091 0.0
O201 O 0.49542 1.00524 0.6862 0.0
O202 O 0.48377 0.0148 0.77001 0.0
O203 O 0.52265 0.98465 0.74938 0.0
H204 H 0.50948 0.01415 0.57534 0.0
H205 H 0.5597 0.99692 0.66816 0.0
O206 O 0.51016 0.99296 0.83388 0.0
O207 O 0.53331 0.02399 0.83078 0.0
O208 O 0.54481 0.01634 0.74436 0.0
C209 C 0.54757 0.02176 0.79664 0.0
H210 H 0.49291 0.02 0.02269 0.0
H211 H 0.53566 0.00875 0.49285 0.0
Co212 Co 0.53044 0.51479 0.76139 0.0
C213 C 0.51274 0.49052 0.85455 0.0
Co214 Co 0.49896 0.516 0.75865 0.0
C215 C 0.56799 0.5168 0.81362 0.0
C216 C 0.56914 0.5093 0.72217 0.0
N217 N 0.55688 0.51378 0.76556 0.0
N218 N 0.58666 0.51428 0.8021 0.0
C219 C 0.58745 0.50949 0.74463 0.0
H220 H 0.56246 0.52039 0.85681 0.0
H221 H 0.56504 0.50601 0.67719 0.0
C222 C 0.51682 0.54022 0.66548 0.0
N223 N 0.47256 0.51686 0.75472 0.0
C224 C 0.46151 0.51687 0.70449 0.0
C225 C 0.46021 0.5171 0.80165 0.0
N226 N 0.44269 0.51706 0.71803 0.0
C227 C 0.44189 0.51721 0.77936 0.0
C228 C 0.51499 0.54329 0.8238 0.0
O229 O 0.53197 0.53301 0.68986 0.0
O230 O 0.50074 0.53437 0.6876 0.0
O231 O 0.49919 0.5365 0.80777 0.0
O232 O 0.53041 0.53551 0.80949 0.0
O233 O 0.49754 0.49752 0.82992 0.0
H234 H 0.46426 0.517 0.84913 0.0
H235 H 0.4673 0.51682 0.65883 0.0
O236 O 0.52875 0.49664 0.83272 0.0
O237 O 0.53005 0.49401 0.713 0.0
O238 O 0.49889 0.4956 0.70967 0.0
C239 C 0.51422 0.48756 0.69597 0.0
H240 H 0.60034 0.50655 0.72037 0.0
H241 H 0.42903 0.51704 0.8067 0.0
Co242 Co 0.01659 0.52936 0.75563 0.0
C243 C 0.04115 0.50923 0.83936 0.0
Co244 Co 0.0154 0.49778 0.75583 0.0
C245 C 0.01448 0.56516 0.80801 0.0
C246 C 0.02216 0.56967 0.71299 0.0
N247 N 0.01754 0.55576 0.75871 0.0
N248 N 0.01713 0.58431 0.79497 0.0
C249 C 0.02204 0.58721 0.73524 0.0
H250 H 0.0108 0.55806 0.85307 0.0
H251 H 0.02554 0.56721 0.66654 0.0
C252 C 0.99096 0.51796 0.67177 0.0
N253 N 0.01463 0.47143 0.75266 0.0
C254 C 0.01518 0.46228 0.702 0.0
C255 C 0.01396 0.45727 0.79991 0.0
N256 N 0.01494 0.44294 0.71554 0.0
C257 C 0.01414 0.43978 0.77733 0.0
C258 C 0.98879 0.51084 0.83278 0.0
O259 O 0.99806 0.53269 0.692 0.0
O260 O 0.99695 0.50139 0.69265 0.0
O261 O 0.99536 0.49568 0.81446 0.0
O262 O 0.99644 0.52696 0.81384 0.0
O263 O 0.03399 0.49452 0.81919 0.0
H264 H 0.01359 0.45953 0.84772 0.0
H265 H 0.01568 0.46978 0.65599 0.0
O266 O 0.03505 0.5258 0.81893 0.0
O267 O 0.03681 0.53131 0.69702 0.0
O268 O 0.0353 0.50008 0.69738 0.0
C269 C 0.04307 0.51609 0.67824 0.0
H270 H 0.02512 0.60103 0.70941 0.0
H271 H 0.0141 0.42586 0.80458 0.0
C272 C 0.20643 0.021 0.45664 0.0
C273 C 0.20869 1.00432 0.42756 0.0
C274 C 0.1903 0.02318 0.49327 0.0
C275 C 0.14056 0.00939 0.50166 0.0
H276 H 0.1396 0.01987 0.67075 0.0
C277 C 0.07069 1.00255 0.6389 0.0
C278 C 0.06719 0.01486 0.68346 0.0
C279 C 0.08854 1.00221 0.61074 0.0
C280 C 0.13955 0.01727 0.6232 0.0
H281 H 0.19653 0.97623 0.419 0.0
H282 H 0.16836 0.98036 0.48075 0.0
H283 H 0.17021 0.01797 0.61771 0.0
H284 H 0.07982 0.03648 0.73358 0.0
H285 H 0.1109 0.03646 0.68272 0.0
H286 H 0.1102 0.00917 0.50546 0.0
C287 C 0.17891 0.9918 0.47468 0.0
C288 C 0.15713 0.01612 0.59301 0.0
C289 C 0.19503 0.9895 0.43903 0.0
C290 C 0.08208 0.02679 0.69948 0.0
C291 C 0.09995 0.02668 0.67048 0.0
C292 C 0.12309 0.01086 0.53124 0.0
C293 C 0.17611 0.00881 0.50093 0.0
C294 C 0.15776 0.01177 0.53233 0.0
C295 C 0.10341 0.01446 0.62532 0.0
C296 C 0.12225 0.01438 0.59295 0.0
H297 H 0.21662 0.0327 0.44879 0.0
H298 H 0.18847 0.03644 0.51315 0.0
H299 H 0.14064 0.00633 0.45451 0.0
H300 H 0.05964 0.99296 0.62605 0.0
H301 H 0.09067 0.99216 0.57774 0.0
C302 C 0.52732 0.20509 0.39629 0.0
C303 C 0.52745 0.22195 0.42491 0.0
C304 C 0.52368 0.18727 0.42996 0.0
C305 C 0.50434 0.16209 0.57475 0.0
H306 H 0.53976 0.12269 0.5392 0.0
C307 C 0.50784 0.08568 0.71501 0.0
C308 C 0.51138 0.07026 0.68123 0.0
C309 C 0.50863 0.10471 0.68646 0.0
C310 C 0.52957 0.13341 0.5493 0.0
H311 H 0.52274 0.23341 0.51085 0.0
H312 H 0.51631 0.20201 0.57024 0.0
H313 H 0.5426 0.15481 0.48462 0.0
H314 H 0.51774 0.06279 0.59041 0.0
H315 H 0.51878 0.09564 0.54093 0.0
H316 H 0.49125 0.14044 0.63942 0.0
C317 C 0.51907 0.2027 0.5215 0.0
C318 C 0.53122 0.15188 0.51797 0.0
C319 C 0.52273 0.22067 0.48755 0.0
C320 C 0.51515 0.07428 0.6181 0.0
C321 C 0.51587 0.09319 0.58969 0.0
C322 C 0.50262 0.14347 0.60614 0.0
C323 C 0.52007 0.18575 0.49331 0.0
C324 C 0.51848 0.1664 0.52952 0.0
C325 C 0.51296 0.10869 0.62356 0.0
C326 C 0.51507 0.12882 0.59306 0.0
H327 H 0.53048 0.20564 0.34781 0.0
H328 H 0.52405 0.17457 0.40647 0.0
H329 H 0.4943 0.17297 0.58467 0.0
H330 H 0.50487 0.08309 0.76372 0.0
H331 H 0.50639 0.11629 0.71402 0.0
C332 C 0.30013 0.52558 0.39137 0.0
C333 C 0.30435 0.52352 0.32995 0.0
C334 C 0.3144 0.52338 0.436 0.0
C335 C 0.3623 0.50311 0.46958 0.0
H336 H 0.36655 0.54285 0.57699 0.0
C337 C 0.42924 0.51124 0.61739 0.0
C338 C 0.4268 0.51695 0.67614 0.0
C339 C 0.41387 0.51118 0.57697 0.0
C340 C 0.36544 0.53144 0.54813 0.0
H341 H 0.32662 0.51667 0.26775 0.0
H342 H 0.35149 0.51277 0.34556 0.0
H343 H 0.34021 0.54347 0.50493 0.0
H344 H 0.40598 0.52718 0.73769 0.0
H345 H 0.37924 0.52646 0.66836 0.0
H346 H 0.38746 0.49099 0.51284 0.0
C347 C 0.33718 0.51614 0.35926 0.0
C348 C 0.35032 0.53182 0.50672 0.0
C349 C 0.32297 0.51852 0.31459 0.0
C350 C 0.4085 0.5225 0.69329 0.0
C351 C 0.39313 0.52233 0.65303 0.0
C352 C 0.37736 0.50263 0.51133 0.0
C353 C 0.33315 0.51885 0.4203 0.0
C354 C 0.34865 0.51776 0.46662 0.0
C355 C 0.39559 0.51673 0.59422 0.0
C356 C 0.37923 0.51688 0.55087 0.0
H357 H 0.28594 0.52952 0.40454 0.0
H358 H 0.3108 0.52537 0.48277 0.0
H359 H 0.36128 0.49193 0.43978 0.0
H360 H 0.44297 0.50665 0.60243 0.0
H361 H 0.41642 0.50702 0.53182 0.0
C362 C 0.02261 0.33662 0.31213 0.0
C363 C 0.01613 0.31771 0.32926 0.0
C364 C 0.02386 0.34965 0.35528 0.0
C365 C 0.02383 0.35362 0.52289 0.0
H366 H 0.00748 0.4056 0.46872 0.0
C367 C 0.0094 0.40973 0.69083 0.0
C368 C 0.01573 0.42869 0.67313 0.0
C369 C 0.01019 0.39594 0.64985 0.0
C370 C 0.0123 0.39122 0.48448 0.0
H371 H 0.0064 0.29752 0.40565 0.0
H372 H 0.00834 0.32034 0.48111 0.0
H373 H 0.0079 0.38195 0.39647 0.0
H374 H 0.02825 0.44774 0.59807 0.0
H375 H 0.02939 0.42383 0.52675 0.0
H376 H 0.02793 0.36295 0.61132 0.0
C377 C 0.0127 0.32505 0.43437 0.0
C378 C 0.01259 0.37762 0.44295 0.0
C379 C 0.01157 0.31194 0.39113 0.0
C380 C 0.0229 0.43345 0.61325 0.0
C381 C 0.02361 0.41969 0.57223 0.0
C382 C 0.02345 0.36723 0.56457 0.0
C383 C 0.01853 0.34419 0.41676 0.0
C384 C 0.01841 0.35863 0.46145 0.0
C385 C 0.01724 0.40076 0.58996 0.0
C386 C 0.01771 0.38622 0.54583 0.0
H387 H 0.02654 0.34141 0.265 0.0
H388 H 0.02889 0.36409 0.34023 0.0
H389 H 0.02862 0.33923 0.53869 0.0
H390 H 1.00354 0.40553 0.73609 0.0
H391 H 1.00491 0.38158 0.66477 0.0
C392 C 0.82294 0.98057 0.02855 0.0
C393 C 0.81645 0.99186 0.07284 0.0
C394 C 0.83976 0.98542 0.99575 0.0
C395 C 0.8858 0.0082 0.01152 0.0
H396 H 0.89029 0.00741 0.83602 0.0
C397 C 0.95817 0.02284 0.88587 0.0
C398 C 0.96213 0.01269 0.83603 0.0
C399 C 0.93996 0.02213 0.91246 0.0
C400 C 0.88942 0.00742 0.8852 0.0
H401 H 0.82219 0.01718 0.11714 0.0
H402 H 0.85199 0.02551 0.06052 0.0
H403 H 0.85911 1.00309 0.88532 0.0
H404 H 0.95009 0.99363 0.77549 0.0
H405 H 0.9187 0.99171 0.82311 0.0
H406 H 0.91608 0.01158 0.01244 0.0
C407 C 0.84392 0.01302 0.05081 0.0
C408 C 0.87147 1.0051 0.91331 0.0
C409 C 0.82685 0.00837 0.08281 0.0
C410 C 0.94748 1.00175 0.81354 0.0
C411 C 0.92937 1.00079 0.84069 0.0
C412 C 0.9038 0.01021 0.98362 0.0
C413 C 0.85066 1.00145 0.00744 0.0
C414 C 0.86948 1.00533 0.97683 0.0
C415 C 0.92528 0.01099 0.89054 0.0
C416 C 0.90593 0.00969 0.92003 0.0
H417 H 0.8152 0.96772 0.02031 0.0
H418 H 0.84465 0.97616 0.96299 0.0
H419 H 0.88474 0.00819 0.06071 0.0
H420 H 0.96911 0.03152 0.90401 0.0
H421 H 0.93739 0.03049 0.9499 0.0
C422 C 0.53769 0.81097 0.0275 0.0
C423 C 0.53767 0.80901 0.09185 0.0
C424 C 0.53399 0.82886 0.9937 0.0
C425 C 0.53536 0.8808 0.01313 0.0
H426 H 0.50971 0.88758 0.85613 0.0
C427 C 0.51427 0.95554 0.897 0.0
C428 C 0.51832 0.95992 0.83412 0.0
C429 C 0.51595 0.93677 0.92601 0.0
C430 C 0.51703 0.88587 0.89974 0.0
H431 H 0.53257 0.82368 0.17137 0.0
H432 H 0.52537 0.85453 0.11303 0.0
H433 H 0.51297 0.8553 0.91144 0.0
H434 H 0.52699 0.94781 0.7522 0.0
H435 H 0.52984 0.9149 0.80308 0.0
H436 H 0.53924 0.9113 0.00192 0.0
C437 C 0.52893 0.84262 0.08819 0.0
C438 C 0.51893 0.86737 0.93144 0.0
C439 C 0.53286 0.82489 0.12175 0.0
C440 C 0.52381 0.94495 0.80073 0.0
C441 C 0.52533 0.92608 0.82976 0.0
C442 C 0.53333 0.89922 0.98181 0.0
C443 C 0.53003 0.84505 0.02374 0.0
C444 C 0.528 0.86461 0.98888 0.0
C445 C 0.52161 0.92182 0.89291 0.0
C446 C 0.52405 0.90202 0.92494 0.0
H447 H 0.54148 0.79894 0.00346 0.0
H448 H 0.53505 0.83015 0.94421 0.0
H449 H 0.54294 0.87929 0.05626 0.0
H450 H 0.50995 0.96668 0.92417 0.0
H451 H 0.51275 0.93394 0.97454 0.0
C452 C 0.73065 0.54034 0.09854 0.0
C453 C 0.72809 0.53798 0.16237 0.0
C454 C 0.71562 0.53666 0.05977 0.0
C455 C 0.66257 0.53115 0.06036 0.0
H456 H 0.67177 0.51427 0.90154 0.0
C457 C 0.6023 0.53046 0.88251 0.0
C458 C 0.60244 0.51627 0.84268 0.0
C459 C 0.61775 0.53262 0.92121 0.0
C460 C 0.66883 0.51873 0.94606 0.0
H461 H 0.70822 0.52907 0.23602 0.0
H462 H 0.6823 0.5217 0.16901 0.0
H463 H 0.69833 0.51748 0.97006 0.0
H464 H 0.61863 0.49291 0.81307 0.0
H465 H 0.64526 0.49604 0.88216 0.0
H466 H 0.63301 0.53149 0.03778 0.0
C467 C 0.69557 0.52714 0.14826 0.0
C468 C 0.6842 0.5209 0.98516 0.0
C469 C 0.71048 0.53118 0.18686 0.0
C470 C 0.61826 0.50413 0.84279 0.0
C471 C 0.63358 0.50603 0.88228 0.0
C472 C 0.64719 0.52868 0.02174 0.0
C473 C 0.69776 0.53021 0.08403 0.0
C474 C 0.68133 0.52727 0.0428 0.0
C475 C 0.63362 0.52037 0.92194 0.0
C476 C 0.65007 0.52258 0.96375 0.0
H477 H 0.74407 0.54574 0.07857 0.0
H478 H 0.71788 0.53949 0.01075 0.0
H479 H 0.65968 0.53641 0.10374 0.0
H480 H 0.59039 0.54018 0.88273 0.0
H481 H 0.61733 0.54412 0.94984 0.0
C482 C 0.99204 0.71914 0.09419 0.0
C483 C 0.9926 0.71438 0.15801 0.0
C484 C 0.99599 0.70528 0.05518 0.0
C485 C 0.99911 0.6519 0.05696 0.0
H486 H 0.01911 0.66604 0.89311 0.0
C487 C 1.00067 0.5972 0.88054 0.0
C488 C 0.01521 0.59867 0.83619 0.0
C489 C 0.99851 0.61138 0.91963 0.0
C490 C 0.01378 0.66168 0.939 0.0
H491 H 0.99854 0.6918 0.23137 0.0
H492 H 0.00657 0.6679 0.16387 0.0
H493 H 0.01584 0.69039 0.9617 0.0
H494 H 0.03922 0.61581 0.79896 0.0
H495 H 0.03616 0.64009 0.86875 0.0
H496 H 0.99802 0.62304 0.03559 0.0
C497 C 1.00229 0.68202 0.14332 0.0
C498 C 0.01157 0.67582 0.97825 0.0
C499 C 0.99793 0.69576 0.18221 0.0
C500 C 0.02774 0.61447 0.83227 0.0
C501 C 0.02586 0.62845 0.87218 0.0
C502 C 1.00166 0.63772 0.01819 0.0
C503 C 1.00095 0.6864 0.07914 0.0
C504 C 1.00405 0.6712 0.03775 0.0
C505 C 0.01113 0.62723 0.91629 0.0
C506 C 0.00888 0.64238 0.95833 0.0
H507 H 0.98774 0.73337 0.07453 0.0
H508 H 0.99447 0.70927 0.00631 0.0
H509 H 0.99294 0.64766 0.10181 0.0
H510 H 0.99067 0.58528 0.88398 0.0
H511 H 0.98671 0.61002 0.95173 0.0
C512 C 1.00457 0.20738 0.40595 0.0
C513 C 0.02289 0.20998 0.38027 0.0
C514 C 1.00092 0.19233 0.45247 0.0
C515 C 0.9959 0.15009 0.50298 0.0
H516 H 0.03149 0.13254 0.63193 0.0
C517 C 1.00139 0.07089 0.61085 0.0
C518 C 1.00561 0.0673 0.67361 0.0
C519 C 1.00094 0.08976 0.58159 0.0
C520 C 0.02124 0.13733 0.59672 0.0
H521 H 0.05201 0.2 0.38561 0.0
H522 H 0.04579 0.1739 0.46724 0.0
H523 H 0.03577 0.16422 0.57426 0.0
H524 H 0.01162 0.08071 0.75558 0.0
H525 H 0.01067 0.11344 0.70474 0.0
H526 H 0.98159 0.12302 0.52469 0.0
C527 C 0.0342 0.18338 0.45173 0.0
C528 C 0.02378 0.15543 0.56344 0.0
C529 C 0.03779 0.19828 0.40496 0.0
C530 C 0.00855 0.08295 0.70697 0.0
C531 C 0.00808 0.10173 0.67783 0.0
C532 C 0.9934 0.13193 0.53614 0.0
C533 C 0.0156 0.17979 0.47435 0.0
C534 C 0.01136 0.16187 0.51546 0.0
C535 C 1.00467 0.10536 0.6146 0.0
C536 C 0.00623 0.12522 0.58267 0.0
H537 H 0.99282 0.21613 0.38719 0.0
H538 H 0.98649 0.19 0.46956 0.0
H539 H 0.98621 0.15455 0.46579 0.0
H540 H 0.99907 0.05914 0.58394 0.0
H541 H 0.99843 0.09209 0.53267 0.0
C542 C 0.32264 0.02302 0.50806 0.0
C543 C 0.31695 0.00934 0.4701 0.0
C544 C 0.33808 0.01933 0.54785 0.0
C545 C 0.38323 0.99703 0.54271 0.0
H546 H 0.3893 1.00457 0.7133 0.0
C547 C 0.45764 0.99326 0.65354 0.0
C548 C 0.46147 1.00571 0.69741 0.0
C549 C 0.43902 0.99096 0.63288 0.0
C550 C 0.38795 1.00266 0.66537 0.0
H551 H 0.3221 0.98091 0.44538 0.0
H552 H 0.34926 0.97452 0.51435 0.0
H553 H 0.35748 1.00543 0.66822 0.0
H554 H 0.44889 0.02559 0.75393 0.0
H555 H 0.41676 0.02249 0.7157 0.0
H556 H 0.4135 0.99561 0.53762 0.0
C557 C 0.34163 0.9879 0.51421 0.0
C558 C 0.36967 1.00297 0.63991 0.0
C559 C 0.32602 0.99146 0.47533 0.0
C560 C 0.44634 0.01577 0.72035 0.0
C561 C 0.42783 0.01383 0.69872 0.0
C562 C 0.4015 0.99716 0.5676 0.0
C563 C 0.34824 1.0021 0.54896 0.0
C564 C 0.36719 1.00022 0.57831 0.0
C565 C 0.42385 1.00143 0.65449 0.0
C566 C 0.40419 1.00012 0.62922 0.0
H567 H 0.3161 0.03706 0.50353 0.0
H568 H 0.34304 0.03055 0.57381 0.0
H569 H 0.3817 0.99522 0.4947 0.0
H570 H 0.46901 0.98517 0.63554 0.0
H571 H 0.43658 0.98094 0.59994 0.0
C572 C 0.52204 0.3335 0.49242 0.0
C573 C 0.50533 0.32858 0.46283 0.0
C574 C 0.52194 0.34853 0.52885 0.0
C575 C 0.49564 0.39324 0.53276 0.0
H576 H 0.52823 0.40005 0.67064 0.0
C577 C 0.4957 0.46268 0.64842 0.0
C578 C 0.51334 0.4697 0.66653 0.0
C579 C 0.49439 0.44477 0.62708 0.0
C580 C 0.51919 0.39839 0.63175 0.0
H581 H 0.47511 0.33389 0.45305 0.0
H582 H 0.47471 0.35959 0.51863 0.0
H583 H 0.52554 0.36842 0.63515 0.0
H584 H 0.54355 0.46358 0.67498 0.0
H585 H 0.54128 0.43237 0.63675 0.0
H586 H 0.4895 0.42317 0.52854 0.0
C587 C 0.48801 0.35232 0.51233 0.0
C588 C 0.51758 0.38026 0.61165 0.0
C589 C 0.48815 0.33744 0.47554 0.0
C590 C 0.52975 0.45861 0.66126 0.0
C591 C 0.52842 0.44064 0.64002 0.0
C592 C 0.49724 0.4113 0.55283 0.0
C593 C 0.50511 0.35878 0.53642 0.0
C594 C 0.50581 0.37749 0.56177 0.0
C595 C 0.51069 0.43343 0.62334 0.0
C596 C 0.50908 0.41413 0.60236 0.0
H597 H 0.53551 0.32705 0.48257 0.0
H598 H 0.53537 0.35312 0.54663 0.0
H599 H 0.48686 0.3918 0.49314 0.0
H600 H 0.48277 0.47081 0.65211 0.0
H601 H 0.4805 0.43959 0.61509 0.0
C602 C 0.19468 0.5258 0.39755 0.0
C603 C 0.19905 0.50831 0.37597 0.0
C604 C 0.17971 0.52674 0.4393 0.0
C605 C 0.13439 0.50214 0.47118 0.0
H606 H 0.12919 0.53343 0.6039 0.0
C607 C 0.06706 0.4994 0.62012 0.0
C608 C 0.06039 0.5165 0.63961 0.0
C609 C 0.08446 0.49905 0.5896 0.0
C610 C 0.13039 0.52483 0.56637 0.0
H611 H 0.19282 0.47785 0.38527 0.0
H612 H 0.16704 0.47934 0.45936 0.0
H613 H 0.16034 0.53083 0.55492 0.0
H614 H 0.06654 0.5468 0.64089 0.0
H615 H 0.09692 0.54625 0.58618 0.0
H616 H 0.10457 0.49639 0.48125 0.0
C617 C 0.17479 0.4924 0.44315 0.0
C618 C 0.14823 0.52325 0.5387 0.0
C619 C 0.18965 0.49149 0.40136 0.0
C620 C 0.07128 0.53341 0.62631 0.0
C621 C 0.08876 0.53305 0.59559 0.0
C622 C 0.11664 0.5038 0.49844 0.0
C623 C 0.16899 0.51018 0.45986 0.0
C624 C 0.15042 0.51171 0.49125 0.0
C625 C 0.09562 0.5158 0.57748 0.0
C626 C 0.11443 0.51501 0.54672 0.0
H627 H 0.20164 0.53899 0.37799 0.0
H628 H 0.17555 0.54064 0.4514 0.0
H629 H 0.13549 0.4936 0.43346 0.0
H630 H 0.05907 0.4861 0.6298 0.0
H631 H 0.08941 0.48547 0.57703 0.0
C632 C 0.04045 0.82746 0.13292 0.0
C633 C 0.02304 0.81755 0.13057 0.0
C634 C 0.045 0.84269 0.08826 0.0
C635 C 0.03179 0.86951 0.93969 0.0
H636 H 0.03797 0.9141 0.02646 0.0
C637 C 0.01513 0.94596 0.82728 0.0
C638 C 0.02507 0.96166 0.84615 0.0
C639 C 0.01815 0.9274 0.85616 0.0
C640 C 0.03674 0.90188 0.00099 0.0
H641 H 0.99777 0.81432 0.07633 0.0
H642 H 1.00587 0.84085 0.99751 0.0
H643 H 0.03884 0.8822 0.08283 0.0
H644 H 0.04648 0.97018 0.90847 0.0
H645 H 0.05232 0.93769 0.95756 0.0
H646 H 0.02964 0.8892 0.8577 0.0
C647 C 0.01593 0.83689 0.03406 0.0
C648 C 0.0372 0.88354 0.03349 0.0
C649 C 0.01132 0.82167 0.07905 0.0
C650 C 0.03844 0.95837 0.89351 0.0
C651 C 0.04172 0.93974 0.92174 0.0
C652 C 0.03164 0.8879 0.90685 0.0
C653 C 0.03229 0.84817 0.04023 0.0
C654 C 0.03438 0.8672 0.00342 0.0
C655 C 0.03142 0.92401 0.90399 0.0
C656 C 0.03367 0.90436 0.93734 0.0
H657 H 0.04983 0.8244 0.1719 0.0
H658 H 0.05784 0.85099 0.09348 0.0
H659 H 0.02964 0.85712 0.91547 0.0
H660 H 1.00468 0.94805 0.79095 0.0
H661 H 0.00965 0.9158 0.84193 0.0
C662 C 0.70578 0.00656 0.00964 0.0
C663 C 0.71235 0.02149 0.0413 0.0
C664 C 0.6904 0.00952 0.96939 0.0
C665 C 0.65822 0.01912 0.87937 0.0
H666 H 0.61913 0.04958 0.94578 0.0
C667 C 0.58258 0.02535 0.77592 0.0
C668 C 0.56726 0.02484 0.81751 0.0
C669 C 0.60131 0.02736 0.79576 0.0
C670 C 0.62982 0.04092 0.92677 0.0
H671 H 0.70943 0.05158 0.05177 0.0
H672 H 0.68326 0.05713 0.97897 0.0
H673 H 0.65086 0.04875 0.98913 0.0
H674 H 0.55956 0.02616 0.91247 0.0
H675 H 0.59221 0.02912 0.94754 0.0
H676 H 0.63674 0.01032 0.81965 0.0
C677 C 0.68942 0.04293 0.98668 0.0
C678 C 0.64821 0.04072 0.95091 0.0
C679 C 0.70459 0.03988 0.02761 0.0
C680 C 0.57104 0.02663 0.87924 0.0
C681 C 0.5898 0.02845 0.89922 0.0
C682 C 0.63975 0.01918 0.85558 0.0
C683 C 0.68143 0.02754 0.95965 0.0
C684 C 0.66261 0.02958 0.92825 0.0
C685 C 0.6052 0.02872 0.8578 0.0
C686 C 0.62521 0.02982 0.87973 0.0
H687 H 0.71135 0.99218 0.02026 0.0
H688 H 0.68464 0.99727 0.9499 0.0
H689 H 0.66896 0.01055 0.86021 0.0
H690 H 0.58014 0.02414 0.72788 0.0
H691 H 0.61273 0.02784 0.76233 0.0
C692 C 0.53395 0.69852 0.02198 0.0
C693 C 0.51756 0.70241 0.05499 0.0
C694 C 0.53366 0.68392 0.98395 0.0
C695 C 0.50294 0.64947 0.91291 0.0
H696 H 0.54308 0.61338 0.96427 0.0
C697 C 0.49868 0.57014 0.86839 0.0
C698 C 0.51559 0.56138 0.85208 0.0
C699 C 0.49917 0.58832 0.88841 0.0
C700 C 0.53194 0.62336 0.94845 0.0
H701 H 0.48764 0.69562 0.06968 0.0
H702 H 0.48701 0.67039 0.00243 0.0
H703 H 0.54355 0.64509 0.99804 0.0
H704 H 0.54632 0.56472 0.84502 0.0
H705 H 0.54714 0.59643 0.87878 0.0
H706 H 0.49126 0.62766 0.86356 0.0
C707 C 0.50009 0.67847 0.00593 0.0
C708 C 0.53225 0.6416 0.96772 0.0
C709 C 0.50042 0.69293 0.04432 0.0
C710 C 0.53303 0.57098 0.85767 0.0
C711 C 0.5335 0.5892 0.87717 0.0
C712 C 0.50271 0.63125 0.89313 0.0
C713 C 0.51695 0.67312 0.97801 0.0
C714 C 0.51765 0.65478 0.95079 0.0
C715 C 0.51657 0.59821 0.89215 0.0
C716 C 0.51709 0.61786 0.91134 0.0
H717 H 0.54738 0.70549 0.02995 0.0
H718 H 0.5468 0.68027 0.96224 0.0
H719 H 0.49153 0.65936 0.89901 0.0
H720 H 0.48501 0.56312 0.86468 0.0
H721 H 0.48589 0.59463 0.90082 0.0
C722 C 0.83791 0.49937 0.11793 0.0
C723 C 0.83185 0.51795 0.1253 0.0
C724 C 0.85209 0.49662 0.07521 0.0
C725 C 0.883 0.52188 0.95107 0.0
H726 H 0.9213 0.48701 0.026 0.0
C727 C 0.96185 0.52727 0.87911 0.0
C728 C 0.97098 0.51013 0.86916 0.0
C729 C 0.94378 0.52681 0.90595 0.0
C730 C 0.91066 0.49661 0.00409 0.0
H731 H 0.83473 0.54811 0.09187 0.0
H732 H 0.85975 0.54351 0.01794 0.0
H733 H 0.89024 0.48832 0.07467 0.0
H734 H 0.96858 0.47904 0.88171 0.0
H735 H 0.93707 0.47828 0.92982 0.0
H736 H 0.90391 0.53071 0.88189 0.0
C737 C 0.85339 0.53094 0.04385 0.0
C738 C 0.89277 0.49729 0.03169 0.0
C739 C 0.83901 0.53363 0.08607 0.0
C740 C 0.96195 0.49249 0.88888 0.0
C741 C 0.94391 0.49204 0.9163 0.0
C742 C 0.90097 0.52131 0.92379 0.0
C743 C 0.86073 0.51248 0.04004 0.0
C744 C 0.87878 0.51014 0.00606 0.0
C745 C 0.93451 0.50922 0.92396 0.0
C746 C 0.91507 0.50889 0.9506 0.0
H747 H 0.83262 0.48711 0.1482 0.0
H748 H 0.85705 0.48218 0.07236 0.0
H749 H 0.87251 0.53173 0.92958 0.0
H750 H 0.9684 0.54111 0.86448 0.0
H751 H 0.93701 0.54025 0.91238 0.0
C752 C 0.0552 0.20579 0.15237 0.0
C753 C 0.03691 0.21304 0.1602 0.0
C754 C 0.0581 0.19158 0.11384 0.0
C755 C 0.05766 0.15179 0.07528 0.0
H756 H 0.02432 0.1434 0.94083 0.0
C757 C 0.04616 0.07649 0.0029 0.0
C758 C 0.04164 0.07435 0.94176 0.0
C759 C 0.04794 0.0947 0.02203 0.0
C760 C 0.03402 0.14557 0.97757 0.0
H761 H 0.00741 0.2117 0.13321 0.0
H762 H 0.01215 0.18655 0.06757 0.0
H763 H 0.02372 0.174 0.98194 0.0
H764 H 0.0362 0.09022 0.85231 0.0
H765 H 0.04014 0.12181 0.88504 0.0
H766 H 0.06836 0.12362 0.06985 0.0
C767 C 0.02451 0.19212 0.08908 0.0
C768 C 0.03347 0.16311 0.0019 0.0
C769 C 0.02172 0.20658 0.12672 0.0
C770 C 0.03975 0.09107 0.89972 0.0
C771 C 0.04176 0.10933 0.91876 0.0
C772 C 0.05842 0.1344 0.05038 0.0
C773 C 0.04263 0.18392 0.08368 0.0
C774 C 0.04494 0.16632 0.05216 0.0
C775 C 0.04557 0.11142 0.98044 0.0
C776 C 0.04626 0.1308 0.00224 0.0
H777 H 0.06708 0.21045 0.17841 0.0
H778 H 0.07235 0.18606 0.10977 0.0
H779 H 0.06659 0.15345 0.11436 0.0
H780 H 0.04806 0.0641 0.03663 0.0
H781 H 0.05062 0.09558 0.07008 0.0
C782 C 0.32997 0.04904 0.24455 0.0
C783 C 0.31952 0.03179 0.25076 0.0
C784 C 0.34467 0.05216 0.20122 0.0
C785 C 0.36885 0.03099 0.07157 0.0
H786 H 0.41288 0.05686 0.13 0.0
C787 C 0.4405 0.03616 0.9375 0.0
C788 C 0.45735 0.03425 0.97239 0.0
C789 C 0.42281 0.03842 0.96555 0.0
C790 C 0.40082 0.04941 0.11305 0.0
H791 H 0.31577 1.00451 0.21589 0.0
H792 H 0.34181 0.00947 0.14199 0.0
H793 H 0.3834 0.05576 0.18751 0.0
H794 H 0.46843 0.03402 0.06468 0.0
H795 H 0.43791 0.03693 0.11327 0.0
H796 H 0.3868 0.02346 -0.00052 0.0
C797 C 0.3384 0.02099 0.16865 0.0
C798 C 0.38365 0.04911 0.14559 0.0
C799 C 0.32342 0.01808 0.21109 0.0
C800 C 0.45594 0.03511 0.03592 0.0
C801 C 0.43828 0.03711 0.06396 0.0
C802 C 0.38615 0.03102 0.03953 0.0
C803 C 0.34966 0.03784 0.16433 0.0
C804 C 0.36742 0.03968 0.12591 0.0
C805 C 0.42141 0.03869 0.02937 0.0
C806 C 0.4025 0.03997 0.06037 0.0
H807 H 0.32724 0.05977 0.27495 0.0
H808 H 0.35255 0.06556 0.19829 0.0
H809 H 0.35667 0.02387 0.05405 0.0
H810 H 0.44076 0.03554 0.88862 0.0
H811 H 0.41024 0.0399 0.93704 0.0
C812 C 0.52272 0.33989 0.20208 0.0
C813 C 0.50635 0.33561 0.23825 0.0
C814 C 0.52293 0.35555 0.15607 0.0
C815 C 0.49298 0.39053 0.06086 0.0
H816 H 0.5357 0.42519 0.07315 0.0
C817 C 0.49437 0.46706 0.92856 0.0
C818 C 0.5119 0.47392 0.90321 0.0
C819 C 0.49349 0.4501 0.96935 0.0
C820 C 0.5238 0.4156 0.06829 0.0
H821 H 0.47699 0.34347 0.25198 0.0
H822 H 0.47723 0.37062 0.17087 0.0
H823 H 0.53453 0.39455 0.13823 0.0
H824 H 0.54228 0.46846 0.90174 0.0
H825 H 0.54071 0.43886 0.97141 0.0
H826 H 0.48232 0.41144 0.99038 0.0
C827 C 0.48993 0.36197 0.17824 0.0
C828 C 0.52315 0.398 0.10567 0.0
C829 C 0.48979 0.34645 0.22467 0.0
C830 C 0.52855 0.4637 0.92076 0.0
C831 C 0.52765 0.44669 0.96101 0.0
C832 C 0.49372 0.40807 0.0229 0.0
C833 C 0.50671 0.3671 0.14491 0.0
C834 C 0.50772 0.38529 0.10252 0.0
C835 C 0.51008 0.43951 0.98538 0.0
C836 C 0.50912 0.42089 0.02624 0.0
H837 H 0.53574 0.33192 0.21195 0.0
H838 H 0.53599 0.35903 0.13058 0.0
H839 H 0.48095 0.38098 0.05722 0.0
H840 H 0.48128 0.4746 0.91606 0.0
H841 H 0.47975 0.44526 0.98807 0.0
C842 C 0.18541 0.48506 0.15588 0.0
C843 C 0.19565 0.50231 0.15626 0.0
C844 C 0.17026 0.48388 0.11534 0.0
C845 C 0.14499 0.51059 0.98134 0.0
H846 H 0.10088 0.48319 0.05562 0.0
C847 C 0.06884 0.52372 0.88909 0.0
C848 C 0.05797 0.50736 0.88021 0.0
C849 C 0.08605 0.52192 0.92092 0.0
C850 C 0.11313 0.49074 0.03405 0.0
H851 H 0.19874 0.53155 0.11303 0.0
H852 H 0.17209 0.52976 0.04311 0.0
H853 H 0.13105 0.48174 0.11032 0.0
H854 H 0.05638 0.47633 0.89981 0.0
H855 H 0.08632 0.47327 0.95694 0.0
H856 H 0.12665 0.5202 0.90617 0.0
C857 C 0.1759 0.51693 0.0729 0.0
C858 C 0.13052 0.48983 0.06515 0.0
C859 C 0.19125 0.518 0.11289 0.0
C860 C 0.06438 0.48921 0.90597 0.0
C861 C 0.08152 0.48745 0.93861 0.0
C862 C 0.12753 0.5117 0.95065 0.0
C863 C 0.16477 0.50005 0.07506 0.0
C864 C 0.14668 0.49986 0.03948 0.0
C865 C 0.0927 0.50376 0.94533 0.0
C866 C 0.11138 0.50193 0.97694 0.0
H867 H 0.18854 0.47278 0.18909 0.0
H868 H 0.1624 0.47048 0.11728 0.0
H869 H 0.15714 0.51823 0.95951 0.0
H870 H 0.06437 0.53792 0.86973 0.0
H871 H 0.09424 0.53476 0.92618 0.0
C872 C 0.98585 0.82202 0.36607 0.0
C873 C 1.00407 0.81723 0.34647 0.0
C874 C 0.98362 0.8366 0.40372 0.0
C875 C 0.00924 0.86779 0.50223 0.0
H876 H 0.97316 0.90636 0.43568 0.0
C877 C 0.01121 0.94534 0.56636 0.0
C878 C 0.99387 0.95494 0.57128 0.0
C879 C 0.01167 0.9274 0.54459 0.0
C880 C 0.98307 0.89564 0.45574 0.0
H881 H 0.03428 0.82281 0.35433 0.0
H882 H 0.03048 0.84799 0.42083 0.0
H883 H 0.97487 0.87597 0.39321 0.0
H884 H 0.96335 0.95296 0.55844 0.0
H885 H 0.96407 0.92167 0.52129 0.0
H886 H 0.01755 0.8875 0.56456 0.0
C887 C 0.01788 0.84061 0.40715 0.0
C888 C 0.98403 0.87817 0.43134 0.0
C889 C 0.02008 0.82619 0.36907 0.0
C890 C 0.97699 0.94614 0.55414 0.0
C891 C 0.97742 0.92815 0.53283 0.0
C892 C 0.00819 0.88523 0.52701 0.0
C893 C 0.9996 0.84651 0.42294 0.0
C894 C 0.99729 0.86413 0.45372 0.0
C895 C 0.99477 0.91853 0.52761 0.0
C896 C 0.99527 0.89952 0.50352 0.0
H897 H 0.97327 0.81547 0.34877 0.0
H898 H 0.96936 0.84067 0.41574 0.0
H899 H 0.01951 0.8572 0.52081 0.0
H900 H 0.02449 0.95181 0.57857 0.0
H901 H 0.02535 0.92065 0.54015 0.0
C902 C 0.70638 0.99307 0.30224 0.0
C903 C 0.7105 0.01057 0.26609 0.0
C904 C 0.69141 0.99181 0.34506 0.0
C905 C 0.64559 0.01492 0.36283 0.0
H906 H 0.6431 0.98449 0.52228 0.0
C907 C 0.57388 0.99559 0.48208 0.0
C908 C 0.57228 0.99904 0.54363 0.0
C909 C 0.59166 0.99595 0.45306 0.0
C910 C 0.64363 0.99308 0.47788 0.0
H911 H 0.70348 0.04078 0.25057 0.0
H912 H 0.67757 0.03864 0.32547 0.0
H913 H 0.67357 0.98817 0.46659 0.0
H914 H 0.58858 1.0049 0.62329 0.0
H915 H 0.61956 1.00518 0.57275 0.0
H916 H 0.61578 0.01976 0.37343 0.0
C917 C 0.68557 0.02581 0.31992 0.0
C918 C 0.66103 0.99511 0.44594 0.0
C919 C 0.70049 0.02707 0.27736 0.0
C920 C 0.58913 1.00199 0.57612 0.0
C921 C 0.60696 1.00221 0.54711 0.0
C922 C 0.62825 0.01272 0.39428 0.0
C923 C 0.68031 0.00802 0.35233 0.0
C924 C 0.66219 0.00613 0.3881 0.0
C925 C 0.60838 0.99961 0.48487 0.0
C926 C 0.62701 1.00174 0.45207 0.0
H927 H 0.71373 0.98008 0.29416 0.0
H928 H 0.6877 0.9779 0.36929 0.0
H929 H 0.64591 0.02326 0.31798 0.0
H930 H 0.56135 0.99285 0.45587 0.0
H931 H 0.59232 0.99354 0.40534 0.0
C932 C 0.50257 0.68382 0.29373 0.0
C933 C 0.51928 0.69468 0.28001 0.0
C934 C 0.50238 0.66847 0.34067 0.0
C935 C 0.53475 0.63285 0.41768 0.0
H936 H 0.49211 0.61991 0.5279 0.0
C937 C 0.53514 0.56663 0.60325 0.0
C938 C 0.51782 0.55679 0.61675 0.0
C939 C 0.53565 0.58374 0.56324 0.0
C940 C 0.50403 0.62316 0.49688 0.0
H941 H 0.54863 0.69855 0.30634 0.0
H942 H 0.5483 0.67172 0.38881 0.0
H943 H 0.49219 0.65025 0.46067 0.0
H944 H 0.48759 0.55679 0.59663 0.0
H945 H 0.48856 0.58625 0.52545 0.0
H946 H 0.5464 0.60561 0.4525 0.0
C947 C 0.53538 0.67504 0.36297 0.0
C948 C 0.50411 0.64063 0.45865 0.0
C949 C 0.5355 0.69054 0.31635 0.0
C950 C 0.50116 0.56405 0.58746 0.0
C951 C 0.50169 0.58108 0.54711 0.0
C952 C 0.53461 0.61532 0.45557 0.0
C953 C 0.51896 0.66353 0.37454 0.0
C954 C 0.51943 0.64563 0.41837 0.0
C955 C 0.51887 0.59137 0.53539 0.0
C956 C 0.51918 0.61016 0.49541 0.0
H957 H 0.48988 0.6867 0.26629 0.0
H958 H 0.48954 0.65984 0.3482 0.0
H959 H 0.54661 0.63614 0.3864 0.0
H960 H 0.54822 0.56151 0.62539 0.0
H961 H 0.54911 0.59132 0.55585 0.0
C962 C 0.8429 0.53845 0.37263 0.0
C963 C 0.83801 0.52191 0.34584 0.0
C964 C 0.85844 0.53826 0.41259 0.0
C965 C 0.90356 0.51222 0.44113 0.0
H966 H 0.90762 0.53998 0.58267 0.0
C967 C 0.96748 0.5034 0.60519 0.0
C968 C 0.97459 0.51972 0.62907 0.0
C969 C 0.95084 0.5044 0.57036 0.0
C970 C 0.90676 0.53236 0.54276 0.0
H971 H 0.84436 0.49187 0.34346 0.0
H972 H 0.87105 0.49131 0.41445 0.0
H973 H 0.87736 0.53965 0.52777 0.0
H974 H 0.96996 0.55005 0.63384 0.0
H975 H 0.9409 0.55183 0.57231 0.0
H976 H 0.93286 0.50494 0.45578 0.0
C977 C 0.86333 0.50459 0.40341 0.0
C978 C 0.88941 0.53212 0.51146 0.0
C979 C 0.84793 0.50483 0.36333 0.0
C980 C 0.96491 0.53722 0.61594 0.0
C981 C 0.94816 0.5382 0.58123 0.0
C982 C 0.92083 0.51246 0.47233 0.0
C983 C 0.86929 0.52149 0.42649 0.0
C984 C 0.88756 0.52188 0.46059 0.0
C985 C 0.94083 0.52174 0.55858 0.0
C986 C 0.92263 0.52239 0.5238 0.0
H987 H 0.8356 0.55186 0.35928 0.0
H988 H 0.86265 0.55153 0.42946 0.0
H989 H 0.90283 0.50463 0.40113 0.0
H990 H 0.97454 0.48967 0.61456 0.0
H991 H 0.9455 0.4914 0.5542 0.0
loop_
_geom_bond_atom_site_label_1
_geom_bond_atom_site_label_2
_geom_bond_distance
_geom_bond_site_symmetry_2
_ccdc_geom_bond_type
H0 C1 0.949 . S
C1 H0 0.949 . S
C1 C2 1.395 . S
C1 C3 1.391 . S
C2 C1 1.395 . S
C2 C5 1.390 . S
C3 C1 1.391 . S
C3 C7 1.387 . S
C3 C8 1.491 . S
H4 C5 0.950 . S
C5 C2 1.390 . S
C5 H4 0.950 . S
C5 C6 1.378 . S
C6 C5 1.378 . S
C6 C7 1.409 . S
C7 C3 1.387 . S
C7 C6 1.409 . S
C7 H9 0.951 . S
C8 C3 1.491 . S
C8 C10 1.382 . S
C8 C12 1.404 . S
H9 C7 0.951 . S
C10 C8 1.382 . S
C10 C11 1.390 . S
C10 H15 0.949 . S
C11 C10 1.390 . S
C11 C16 1.399 . S
C12 C8 1.404 . S
C12 H13 0.950 . S
C12 C14 1.375 . S
H13 C12 0.950 . S
C14 C12 1.375 . S
C14 C16 1.382 . S
C14 H18 0.950 . S
H15 C10 0.949 . S
C16 C11 1.399 . S
C16 C14 1.382 . S
C16 H17 0.952 . S
H17 C16 0.952 . S
H18 C14 0.950 . S
H19 C20 0.949 . S
C20 H19 0.949 . S
C20 C21 1.395 . S
C20 C22 1.391 . S
C21 C20 1.395 . S
C21 C24 1.390 . S
C22 C20 1.391 . S
C22 C26 1.387 . S
C22 C27 1.491 . S
H23 C24 0.950 . S
C24 C21 1.390 . S
C24 H23 0.950 . S
C24 C25 1.378 . S
C25 C24 1.378 . S
C25 C26 1.409 . S
C26 C22 1.387 . S
C26 C25 1.409 . S
C26 H28 0.951 . S
C27 C22 1.491 . S
C27 C29 1.382 . S
C27 C31 1.404 . S
H28 C26 0.951 . S
C29 C27 1.382 . S
C29 C30 1.390 . S
C29 H34 0.949 . S
C30 C29 1.390 . S
C30 C35 1.399 . S
C31 C27 1.404 . S
C31 H32 0.950 . S
C31 C33 1.375 . S
H32 C31 0.950 . S
C33 C31 1.375 . S
C33 C35 1.382 . S
C33 H37 0.950 . S
H34 C29 0.949 . S
C35 C30 1.399 . S
C35 C33 1.382 . S
C35 H36 0.952 . S
H36 C35 0.952 . S
H37 C33 0.950 . S
H38 C39 0.949 1_556 S
C39 H38 0.949 1_554 S
C39 C40 1.395 . S
C39 C41 1.391 . S
C40 C39 1.395 . S
C40 C43 1.389 1_565 S
C41 C39 1.391 . S
C41 C45 1.387 . S
C41 C46 1.491 . S
H42 C43 0.950 . S
C43 C40 1.389 1_545 S
C43 H42 0.950 . S
C43 C44 1.379 1_545 S
C44 C43 1.379 1_565 S
C44 C45 1.413 . S
C45 C41 1.387 . S
C45 C44 1.413 . S
C45 H47 0.951 . S
C46 C41 1.491 . S
C46 C48 1.402 . S
C46 C50 1.404 . S
H47 C45 0.951 . S
C48 C46 1.402 . S
C48 C49 1.403 . S
C48 H53 0.918 1_564 S
C49 C48 1.403 . S
C49 C54 1.399 . S
C50 C46 1.404 . S
C50 H51 0.950 . S
C50 C52 1.375 . S
H51 C50 0.950 . S
C52 C50 1.375 . S
C52 C54 1.382 . S
C52 H56 0.950 . S
H53 C48 0.918 1_546 S
C54 C49 1.399 . S
C54 C52 1.382 . S
C54 H55 0.952 . S
H55 C54 0.952 . S
H56 C52 0.950 . S
H57 C58 0.949 . S
C58 H57 0.949 . S
C58 C59 1.395 . S
C58 C60 1.391 . S
C59 C58 1.395 . S
C59 C62 1.390 . S
C60 C58 1.391 . S
C60 C64 1.387 . S
C60 C65 1.491 . S
H61 C62 0.950 . S
C62 C59 1.390 . S
C62 H61 0.950 . S
C62 C63 1.378 . S
C63 C62 1.378 . S
C63 C64 1.409 . S
C64 C60 1.387 . S
C64 C63 1.409 . S
C64 H66 0.951 . S
C65 C60 1.491 . S
C65 C67 1.382 . S
C65 C69 1.404 . S
H66 C64 0.951 . S
C67 C65 1.382 . S
C67 C68 1.390 . S
C67 H72 0.949 . S
C68 C67 1.390 . S
C68 C73 1.399 . S
C69 C65 1.404 . S
C69 H70 0.950 . S
C69 C71 1.375 . S
H70 C69 0.950 . S
C71 C69 1.375 . S
C71 C73 1.382 . S
C71 H75 0.950 . S
H72 C67 0.949 . S
C73 C68 1.399 . S
C73 C71 1.382 . S
C73 H74 0.952 . S
H74 C73 0.952 . S
H75 C71 0.950 . S
H76 C77 0.949 . S
C77 H76 0.949 . S
C77 C78 1.395 . S
C77 C79 1.391 . S
C78 C77 1.395 . S
C78 C81 1.390 . S
C79 C77 1.391 . S
C79 C83 1.387 . S
C79 C84 1.491 . S
H80 C81 0.950 . S
C81 C78 1.390 . S
C81 H80 0.950 . S
C81 C82 1.378 . S
C82 C81 1.378 . S
C82 C83 1.409 . S
C83 C79 1.387 . S
C83 C82 1.409 . S
C83 H85 0.951 . S
C84 C79 1.491 . S
C84 C86 1.382 . S
C84 C88 1.404 . S
H85 C83 0.951 . S
C86 C84 1.382 . S
C86 C87 1.390 . S
C86 H91 0.949 . S
C87 C86 1.390 . S
C87 C92 1.399 . S
C88 C84 1.404 . S
C88 H89 0.950 . S
C88 C90 1.375 . S
H89 C88 0.950 . S
C90 C88 1.375 . S
C90 C92 1.382 . S
C90 H94 0.950 . S
H91 C86 0.949 . S
C92 C87 1.399 . S
C92 C90 1.382 . S
C92 H93 0.952 . S
H93 C92 0.952 . S
H94 C90 0.950 . S
H95 C96 0.949 . S
C96 H95 0.949 . S
C96 C97 1.395 . S
C96 C98 1.391 . S
C97 C96 1.395 . S
C97 C100 1.390 . S
C98 C96 1.391 . S
C98 C102 1.387 . S
C98 C103 1.491 . S
H99 C100 0.950 . S
C100 C97 1.390 . S
C100 H99 0.950 . S
C100 C101 1.378 . S
C101 C100 1.378 . S
C101 C102 1.409 . S
C102 C98 1.387 . S
C102 C101 1.409 . S
C102 H104 0.951 . S
C103 C98 1.491 . S
C103 C105 1.382 . S
C103 C107 1.404 . S
H104 C102 0.951 . S
C105 C103 1.382 . S
C105 C106 1.390 . S
C105 H110 0.949 . S
C106 C105 1.390 . S
C106 C111 1.399 . S
C107 C103 1.404 . S
C107 H108 0.950 . S
C107 C109 1.375 . S
H108 C107 0.950 . S
C109 C107 1.375 . S
C109 C111 1.382 . S
C109 H113 0.950 . S
H110 C105 0.949 . S
C111 C106 1.399 . S
C111 C109 1.382 . S
C111 H112 0.952 . S
H112 C111 0.952 . S
H113 C109 0.950 . S
H114 C115 0.949 . S
C115 H114 0.949 . S
C115 C116 1.395 . S
C115 C117 1.391 . S
C116 C115 1.395 . S
C116 C119 1.390 . S
C117 C115 1.391 . S
C117 C121 1.387 . S
C117 C122 1.491 . S
H118 C119 0.950 . S
C119 C116 1.390 . S
C119 H118 0.950 . S
C119 C120 1.378 . S
C120 C119 1.378 . S
C120 C121 1.409 . S
C121 C117 1.387 . S
C121 C120 1.409 . S
C121 H123 0.951 . S
C122 C117 1.491 . S
C122 C124 1.382 . S
C122 C126 1.404 1_545 S
H123 C121 0.951 . S
C124 C122 1.382 . S
C124 C125 1.390 . S
C124 H129 0.949 . S
C125 C124 1.390 . S
C125 C130 1.413 . S
C126 C122 1.404 1_565 S
C126 H127 0.950 . S
C126 C128 1.375 . S
H127 C126 0.950 . S
C128 C126 1.375 . S
C128 C130 1.372 1_565 S
C128 H132 0.950 . S
H129 C124 0.949 . S
C130 C125 1.413 . S
C130 C128 1.372 1_545 S
C130 H131 0.948 1_545 S
H131 C130 0.948 1_565 S
H132 C128 0.950 . S
H133 C134 0.949 . S
C134 H133 0.949 . S
C134 C135 1.395 . S
C134 C136 1.391 . S
C135 C134 1.395 . S
C135 C138 1.390 . S
C136 C134 1.391 . S
C136 C140 1.387 . S
C136 C141 1.491 . S
H137 C138 0.950 . S
C138 C135 1.390 . S
C138 H137 0.950 . S
C138 C139 1.378 . S
C139 C138 1.378 . S
C139 C140 1.409 . S
C140 C136 1.387 . S
C140 C139 1.409 . S
C140 H142 0.951 . S
C141 C136 1.491 . S
C141 C143 1.382 . S
C141 C145 1.404 . S
H142 C140 0.951 . S
C143 C141 1.382 . S
C143 C144 1.390 . S
C143 H148 0.949 . S
C144 C143 1.390 . S
C144 C149 1.399 . S
C145 C141 1.404 . S
C145 H146 0.950 . S
C145 C147 1.375 . S
H146 C145 0.950 . S
C147 C145 1.375 . S
C147 C149 1.382 . S
C147 H151 0.950 . S
H148 C143 0.949 . S
C149 C144 1.399 . S
C149 C147 1.382 . S
C149 H150 0.952 . S
H150 C149 0.952 . S
H151 C147 0.950 . S
Co152 N157 2.057 . S
Co152 O169 2.021 . S
Co152 O172 2.062 . S
Co152 O176 2.117 1_455 S
Co152 O177 2.020 1_545 S
C153 O173 1.259 . S
C153 O176 1.258 . S
Co154 N163 2.026 1_545 S
Co154 O170 2.118 . S
Co154 O171 2.065 . S
Co154 O173 2.026 1_455 S
Co154 O178 2.026 1_545 S
C155 N157 1.316 . S
C155 N158 1.347 . S
C155 H160 0.931 . S
C156 N157 1.375 1_655 S
C156 C159 1.350 1_655 S
C156 H161 0.930 . S
N157 Co152 2.057 . S
N157 C155 1.316 . S
N157 C156 1.375 1_455 S
N158 C155 1.347 . S
N158 C159 1.373 . S
C159 C156 1.350 1_455 S
C159 N158 1.373 . S
C159 H180 0.931 1_455 S
H160 C155 0.931 . S
H161 C156 0.930 . S
C162 O169 1.259 . S
C162 O170 1.258 . S
N163 Co154 2.026 1_565 S
N163 C164 1.316 1_455 S
N163 C165 1.375 . S
C164 N163 1.316 1_655 S
C164 N166 1.347 . S
C164 H175 0.931 . S
C165 N163 1.375 . S
C165 C167 1.350 . S
C165 H174 0.930 . S
N166 C164 1.347 . S
N166 C167 1.373 1_655 S
C167 C165 1.350 . S
C167 N166 1.373 1_455 S
C167 H181 0.931 . S
C168 O171 1.256 . S
C168 O172 1.255 . S
O169 Co152 2.021 . S
O169 C162 1.259 . S
O170 Co154 2.118 . S
O170 C162 1.258 . S
O171 Co154 2.065 . S
O171 C168 1.256 . S
O172 Co152 2.062 . S
O172 C168 1.255 . S
O173 C153 1.259 . S
O173 Co154 2.026 1_655 S
H174 C165 0.930 . S
H175 C164 0.931 . S
O176 Co152 2.117 1_655 S
O176 C153 1.258 . S
O177 Co152 2.020 1_565 S
O177 C179 1.256 . S
O178 Co154 2.026 1_565 S
O178 C179 1.255 . S
C179 O177 1.256 . S
C179 O178 1.255 . S
H180 C159 0.931 1_655 S
H181 C167 0.931 . S
Co182 N187 2.057 . S
Co182 O199 2.021 . S
Co182 O202 2.062 . S
Co182 O206 2.117 1_545 S
Co182 O207 2.020 . S
C183 O203 1.259 . S
C183 O206 1.258 . S
Co184 N193 2.057 . S
Co184 O200 2.117 . S
Co184 O201 2.020 . S
Co184 O203 2.021 1_545 S
Co184 O208 2.062 . S
C185 N187 1.316 . S
C185 N188 1.347 . S
C185 H190 0.931 . S
C186 N187 1.375 1_565 S
C186 C189 1.350 . S
C186 H191 0.930 . S
N187 Co182 2.057 . S
N187 C185 1.316 . S
N187 C186 1.375 1_545 S
N188 C185 1.347 . S
N188 C189 1.373 1_545 S
C189 C186 1.350 . S
C189 N188 1.373 1_565 S
C189 H210 0.931 1_556 S
H190 C185 0.931 . S
H191 C186 0.930 . S
C192 O199 1.259 . S
C192 O200 1.258 . S
N193 Co184 2.057 . S
N193 C194 1.316 1_545 S
N193 C195 1.375 . S
C194 N193 1.316 1_565 S
C194 N196 1.347 1_565 S
C194 H205 0.931 . S
C195 N193 1.375 . S
C195 C197 1.350 . S
C195 H204 0.930 . S
N196 C194 1.347 1_545 S
N196 C197 1.373 . S
C197 C195 1.350 . S
C197 N196 1.373 . S
C197 H211 0.931 . S
C198 O201 1.256 . S
C198 O202 1.255 . S
O199 Co182 2.021 . S
O199 C192 1.259 . S
O200 Co184 2.117 . S
O200 C192 1.258 . S
O201 Co184 2.020 . S
O201 C198 1.256 . S
O202 Co182 2.062 . S
O202 C198 1.255 . S
O203 C183 1.259 . S
O203 Co184 2.021 1_565 S
H204 C195 0.930 . S
H205 C194 0.931 . S
O206 Co182 2.117 1_565 S
O206 C183 1.258 . S
O207 Co182 2.020 . S
O207 C209 1.256 . S
O208 Co184 2.062 . S
O208 C209 1.255 . S
C209 O207 1.256 . S
C209 O208 1.255 . S
H210 C189 0.931 1_554 S
H211 C197 0.931 . S
Co212 N217 2.057 . S
Co212 O229 2.021 . S
Co212 O232 2.062 . S
Co212 O236 2.117 . S
Co212 O237 2.020 . S
C213 O233 1.259 . S
C213 O236 1.258 . S
Co214 N223 2.057 . S
Co214 O230 2.117 . S
Co214 O231 2.020 . S
Co214 O233 2.021 . S
Co214 O238 2.062 . S
C215 N217 1.316 . S
C215 N218 1.347 . S
C215 H220 0.931 . S
C216 N217 1.375 . S
C216 C219 1.350 . S
C216 H221 0.930 . S
N217 Co212 2.057 . S
N217 C215 1.316 . S
N217 C216 1.375 . S
N218 C215 1.347 . S
N218 C219 1.373 . S
C219 C216 1.350 . S
C219 N218 1.373 . S
C219 H240 0.931 . S
H220 C215 0.931 . S
H221 C216 0.930 . S
C222 O229 1.259 . S
C222 O230 1.258 . S
N223 Co214 2.057 . S
N223 C224 1.316 . S
N223 C225 1.375 . S
C224 N223 1.316 . S
C224 N226 1.347 . S
C224 H235 0.931 . S
C225 N223 1.375 . S
C225 C227 1.350 . S
C225 H234 0.930 . S
N226 C224 1.347 . S
N226 C227 1.373 . S
C227 C225 1.350 . S
C227 N226 1.373 . S
C227 H241 0.931 . S
C228 O231 1.256 . S
C228 O232 1.255 . S
O229 Co212 2.021 . S
O229 C222 1.259 . S
O230 Co214 2.117 . S
O230 C222 1.258 . S
O231 Co214 2.020 . S
O231 C228 1.256 . S
O232 Co212 2.062 . S
O232 C228 1.255 . S
O233 C213 1.259 . S
O233 Co214 2.021 . S
H234 C225 0.930 . S
H235 C224 0.931 . S
O236 Co212 2.117 . S
O236 C213 1.258 . S
O237 Co212 2.020 . S
O237 C239 1.256 . S
O238 Co214 2.062 . S
O238 C239 1.255 . S
C239 O237 1.256 . S
C239 O238 1.255 . S
H240 C219 0.931 . S
H241 C227 0.931 . S
Co242 N247 2.057 . S
Co242 O259 2.021 1_455 S
Co242 O262 2.062 1_455 S
Co242 O266 2.117 . S
Co242 O267 2.020 . S
C243 O263 1.259 . S
C243 O266 1.258 . S
Co244 N253 2.057 . S
Co244 O260 2.117 1_455 S
Co244 O261 2.020 1_455 S
Co244 O263 2.021 . S
Co244 O268 2.062 . S
C245 N247 1.316 . S
C245 N248 1.347 . S
C245 H250 0.931 1_455 S
C246 N247 1.375 . S
C246 C249 1.350 . S
C246 H251 0.930 . S
N247 Co242 2.057 . S
N247 C245 1.316 . S
N247 C246 1.375 . S
N248 C245 1.347 . S
N248 C249 1.373 . S
C249 C246 1.350 . S
C249 N248 1.373 . S
C249 H270 0.931 . S
H250 C245 0.931 1_655 S
H251 C246 0.930 . S
C252 O259 1.259 . S
C252 O260 1.258 . S
N253 Co244 2.057 . S
N253 C254 1.316 . S
N253 C255 1.375 1_455 S
C254 N253 1.316 . S
C254 N256 1.347 . S
C254 H265 0.931 . S
C255 N253 1.375 1_655 S
C255 C257 1.350 . S
C255 H264 0.930 . S
N256 C254 1.347 . S
N256 C257 1.373 1_455 S
C257 C255 1.350 . S
C257 N256 1.373 1_655 S
C257 H271 0.931 . S
C258 O261 1.256 . S
C258 O262 1.255 . S
O259 Co242 2.021 1_655 S
O259 C252 1.259 . S
O260 Co244 2.117 1_655 S
O260 C252 1.258 . S
O261 Co244 2.020 1_655 S
O261 C258 1.256 . S
O262 Co242 2.062 1_655 S
O262 C258 1.255 . S
O263 C243 1.259 . S
O263 Co244 2.021 . S
H264 C255 0.930 . S
H265 C254 0.931 . S
O266 Co242 2.117 . S
O266 C243 1.258 . S
O267 Co242 2.020 . S
O267 C269 1.256 . S
O268 Co244 2.062 . S
O268 C269 1.255 . S
C269 O267 1.256 . S
C269 O268 1.255 . S
H270 C249 0.931 . S
H271 C257 0.931 . S
C272 C273 1.349 . S
C272 C274 1.327 . S
C272 H297 0.950 . S
C273 C272 1.349 . S
C273 C289 1.349 . S
C274 C272 1.327 . S
C274 C293 1.429 . S
C274 H298 0.950 . S
C275 C292 1.574 . S
C275 C294 1.368 1_565 S
C275 H299 0.949 . S
H276 C280 0.949 . S
C277 C278 1.349 1_565 S
C277 C279 1.327 . S
C277 H300 0.950 . S
C278 C277 1.349 1_545 S
C278 C290 1.349 . S
C279 C277 1.327 . S
C279 C295 1.429 1_565 S
C279 H301 0.950 . S
C280 H276 0.949 . S
C280 C288 1.574 . S
C280 C296 1.368 . S
H281 C289 0.950 1_565 S
H282 C287 0.948 . S
H283 C288 0.949 . S
H284 C290 0.950 . S
H285 C291 0.950 . S
H286 C292 0.949 . S
C287 H282 0.948 . S
C287 C289 1.327 1_565 S
C287 C293 1.430 1_565 S
C288 C280 1.574 . S
C288 H283 0.949 . S
C288 C294 1.368 . S
C289 C273 1.349 . S
C289 H281 0.950 1_545 S
C289 C287 1.327 1_545 S
C290 C278 1.349 . S
C290 H284 0.950 . S
C290 C291 1.327 . S
C291 H285 0.950 . S
C291 C290 1.327 . S
C291 C295 1.429 . S
C292 C275 1.574 . S
C292 H286 0.949 . S
C292 C296 1.368 1_565 S
C293 C274 1.429 . S
C293 C287 1.430 1_545 S
C293 C294 1.523 . S
C294 C275 1.368 1_545 S
C294 C288 1.368 . S
C294 C293 1.523 . S
C295 C279 1.429 1_545 S
C295 C291 1.429 . S
C295 C296 1.523 . S
C296 C280 1.368 . S
C296 C292 1.368 1_545 S
C296 C295 1.523 . S
H297 C272 0.950 . S
H298 C274 0.950 . S
H299 C275 0.949 . S
H300 C277 0.950 . S
H301 C279 0.950 . S
C302 C303 1.349 . S
C302 C304 1.327 . S
C302 H327 0.950 . S
C303 C302 1.349 . S
C303 C319 1.349 . S
C304 C302 1.327 . S
C304 C323 1.429 . S
C304 H328 0.950 . S
C305 C322 1.574 . S
C305 C324 1.368 . S
C305 H329 0.949 . S
H306 C310 0.949 . S
C307 C308 1.349 . S
C307 C309 1.327 . S
C307 H330 0.950 . S
C308 C307 1.349 . S
C308 C320 1.349 . S
C309 C307 1.327 . S
C309 C325 1.429 . S
C309 H331 0.950 . S
C310 H306 0.949 . S
C310 C318 1.574 . S
C310 C326 1.368 . S
H311 C319 0.950 . S
H312 C317 0.950 . S
H313 C318 0.949 . S
H314 C320 0.950 . S
H315 C321 0.950 . S
H316 C322 0.949 . S
C317 H312 0.950 . S
C317 C319 1.327 . S
C317 C323 1.429 . S
C318 C310 1.574 . S
C318 H313 0.949 . S
C318 C324 1.368 . S
C319 C303 1.349 . S
C319 H311 0.950 . S
C319 C317 1.327 . S
C320 C308 1.349 . S
C320 H314 0.950 . S
C320 C321 1.327 . S
C321 H315 0.950 . S
C321 C320 1.327 . S
C321 C325 1.429 . S
C322 C305 1.574 . S
C322 H316 0.949 . S
C322 C326 1.368 . S
C323 C304 1.429 . S
C323 C317 1.429 . S
C323 C324 1.523 . S
C324 C305 1.368 . S
C324 C318 1.368 . S
C324 C323 1.523 . S
C325 C309 1.429 . S
C325 C321 1.429 . S
C325 C326 1.523 . S
C326 C310 1.368 . S
C326 C322 1.368 . S
C326 C325 1.523 . S
H327 C302 0.950 . S
H328 C304 0.950 . S
H329 C305 0.949 . S
H330 C307 0.950 . S
H331 C309 0.950 . S
C332 C333 1.349 . S
C332 C334 1.327 . S
C332 H357 0.950 . S
C333 C332 1.349 . S
C333 C349 1.349 . S
C334 C332 1.327 . S
C334 C353 1.429 . S
C334 H358 0.950 . S
C335 C352 1.574 . S
C335 C354 1.368 . S
C335 H359 0.949 . S
H336 C340 0.949 . S
C337 C338 1.349 . S
C337 C339 1.327 . S
C337 H360 0.950 . S
C338 C337 1.349 . S
C338 C350 1.349 . S
C339 C337 1.327 . S
C339 C355 1.429 . S
C339 H361 0.950 . S
C340 H336 0.949 . S
C340 C348 1.574 . S
C340 C356 1.368 . S
H341 C349 0.950 . S
H342 C347 0.950 . S
H343 C348 0.949 . S
H344 C350 0.950 . S
H345 C351 0.950 . S
H346 C352 0.949 . S
C347 H342 0.950 . S
C347 C349 1.327 . S
C347 C353 1.429 . S
C348 C340 1.574 . S
C348 H343 0.949 . S
C348 C354 1.368 . S
C349 C333 1.349 . S
C349 H341 0.950 . S
C349 C347 1.327 . S
C350 C338 1.349 . S
C350 H344 0.950 . S
C350 C351 1.327 . S
C351 H345 0.950 . S
C351 C350 1.327 . S
C351 C355 1.429 . S
C352 C335 1.574 . S
C352 H346 0.949 . S
C352 C356 1.368 . S
C353 C334 1.429 . S
C353 C347 1.429 . S
C353 C354 1.523 . S
C354 C335 1.368 . S
C354 C348 1.368 . S
C354 C353 1.523 . S
C355 C339 1.429 . S
C355 C351 1.429 . S
C355 C356 1.523 . S
C356 C340 1.368 . S
C356 C352 1.368 . S
C356 C355 1.523 . S
H357 C332 0.950 . S
H358 C334 0.950 . S
H359 C335 0.949 . S
H360 C337 0.950 . S
H361 C339 0.950 . S
C362 C363 1.349 . S
C362 C364 1.327 . S
C362 H387 0.950 . S
C363 C362 1.349 . S
C363 C379 1.349 . S
C364 C362 1.327 . S
C364 C383 1.429 . S
C364 H388 0.950 . S
C365 C382 1.574 . S
C365 C384 1.368 . S
C365 H389 0.949 . S
H366 C370 0.949 . S
C367 C368 1.349 . S
C367 C369 1.327 . S
C367 H390 0.950 . S
C368 C367 1.349 . S
C368 C380 1.349 . S
C369 C367 1.327 . S
C369 C385 1.429 . S
C369 H391 0.950 . S
C370 H366 0.949 . S
C370 C378 1.574 . S
C370 C386 1.368 . S
H371 C379 0.950 . S
H372 C377 0.950 . S
H373 C378 0.949 . S
H374 C380 0.950 . S
H375 C381 0.950 . S
H376 C382 0.949 . S
C377 H372 0.950 . S
C377 C379 1.327 . S
C377 C383 1.429 . S
C378 C370 1.574 . S
C378 H373 0.949 . S
C378 C384 1.368 . S
C379 C363 1.349 . S
C379 H371 0.950 . S
C379 C377 1.327 . S
C380 C368 1.349 . S
C380 H374 0.950 . S
C380 C381 1.327 . S
C381 H375 0.950 . S
C381 C380 1.327 . S
C381 C385 1.429 . S
C382 C365 1.574 . S
C382 H376 0.949 . S
C382 C386 1.368 . S
C383 C364 1.429 . S
C383 C377 1.429 . S
C383 C384 1.523 . S
C384 C365 1.368 . S
C384 C378 1.368 . S
C384 C383 1.523 . S
C385 C369 1.429 . S
C385 C381 1.429 . S
C385 C386 1.523 . S
C386 C370 1.368 . S
C386 C382 1.368 . S
C386 C385 1.523 . S
H387 C362 0.950 . S
H388 C364 0.950 . S
H389 C365 0.949 . S
H390 C367 0.950 . S
H391 C369 0.950 . S
C392 C393 1.316 1_565 S
C392 C394 1.327 . S
C392 H417 0.950 . S
C393 C392 1.316 1_545 S
C393 C409 1.383 . S
C394 C392 1.327 . S
C394 C413 1.429 1_565 S
C394 H418 0.950 . S
C395 C412 1.574 . S
C395 C414 1.368 . S
C395 H419 0.949 . S
H396 C400 0.949 . S
C397 C398 1.349 . S
C397 C399 1.327 . S
C397 H420 0.950 . S
C398 C397 1.349 . S
C398 C410 1.349 1_545 S
C399 C397 1.327 . S
C399 C415 1.429 . S
C399 H421 0.950 . S
C400 H396 0.949 . S
C400 C408 1.574 . S
C400 C416 1.368 1_565 S
H401 C409 0.950 1_554 S
H402 C407 0.950 . S
H403 C408 0.949 . S
H404 C410 0.950 . S
H405 C411 0.950 . S
H406 C412 0.949 . S
C407 H402 0.950 . S
C407 C409 1.327 . S
C407 C413 1.429 . S
C408 C400 1.574 . S
C408 H403 0.949 . S
C408 C414 1.368 1_565 S
C409 C393 1.383 . S
C409 H401 0.950 1_556 S
C409 C407 1.327 . S
C410 C398 1.349 1_565 S
C410 H404 0.950 . S
C410 C411 1.327 . S
C411 H405 0.950 . S
C411 C410 1.327 . S
C411 C415 1.429 1_565 S
C412 C395 1.574 . S
C412 H406 0.949 . S
C412 C416 1.368 . S
C413 C394 1.429 1_545 S
C413 C407 1.429 . S
C413 C414 1.523 . S
C414 C395 1.368 . S
C414 C408 1.368 1_545 S
C414 C413 1.523 . S
C415 C399 1.429 . S
C415 C411 1.429 1_545 S
C415 C416 1.523 . S
C416 C400 1.368 1_545 S
C416 C412 1.368 . S
C416 C415 1.523 . S
H417 C392 0.950 . S
H418 C394 0.950 . S
H419 C395 0.949 . S
H420 C397 0.950 . S
H421 C399 0.950 . S
C422 C423 1.349 1_556 S
C422 C424 1.327 . S
C422 H447 0.950 . S
C423 C422 1.349 1_554 S
C423 C439 1.349 . S
C424 C422 1.327 . S
C424 C443 1.429 . S
C424 H448 0.950 . S
C425 C442 1.574 . S
C425 C444 1.368 . S
C425 H449 0.949 1_556 S
H426 C430 0.949 . S
C427 C428 1.349 . S
C427 C429 1.327 . S
C427 H450 0.950 . S
C428 C427 1.349 . S
C428 C440 1.349 . S
C429 C427 1.327 . S
C429 C445 1.429 . S
C429 H451 0.950 . S
C430 H426 0.949 . S
C430 C438 1.574 . S
C430 C446 1.368 . S
H431 C439 0.950 . S
H432 C437 0.950 . S
H433 C438 0.949 . S
H434 C440 0.950 . S
H435 C441 0.950 . S
H436 C442 0.949 . S
C437 H432 0.950 . S
C437 C439 1.327 . S
C437 C443 1.429 1_554 S
C438 C430 1.574 . S
C438 H433 0.949 . S
C438 C444 1.368 . S
C439 C423 1.349 . S
C439 H431 0.950 . S
C439 C437 1.327 . S
C440 C428 1.349 . S
C440 H434 0.950 . S
C440 C441 1.327 . S
C441 H435 0.950 . S
C441 C440 1.327 . S
C441 C445 1.429 . S
C442 C425 1.574 . S
C442 H436 0.949 . S
C442 C446 1.368 . S
C443 C424 1.429 . S
C443 C437 1.429 1_556 S
C443 C444 1.523 . S
C444 C425 1.368 . S
C444 C438 1.368 . S
C444 C443 1.523 . S
C445 C429 1.429 . S
C445 C441 1.429 . S
C445 C446 1.523 . S
C446 C430 1.368 . S
C446 C442 1.368 . S
C446 C445 1.523 . S
H447 C422 0.950 . S
H448 C424 0.950 . S
H449 C425 0.949 1_554 S
H450 C427 0.950 . S
H451 C429 0.950 . S
C452 C453 1.349 . S
C452 C454 1.327 1_554 S
C452 H477 0.950 1_554 S
C453 C452 1.349 . S
C453 C469 1.349 . S
C454 C452 1.327 1_556 S
C454 C473 1.429 1_556 S
C454 H478 0.950 . S
C455 C472 1.574 1_554 S
C455 C474 1.368 1_554 S
C455 H479 0.949 . S
H456 C460 0.949 . S
C457 C458 1.349 . S
C457 C459 1.327 . S
C457 H480 0.950 . S
C458 C457 1.349 . S
C458 C470 1.349 . S
C459 C457 1.327 . S
C459 C475 1.429 . S
C459 H481 0.950 . S
C460 H456 0.949 . S
C460 C468 1.574 . S
C460 C476 1.368 . S
H461 C469 0.950 . S
H462 C467 0.950 . S
H463 C468 0.949 . S
H464 C470 0.950 . S
H465 C471 0.950 . S
H466 C472 0.949 . S
C467 H462 0.950 . S
C467 C469 1.327 . S
C467 C473 1.429 . S
C468 C460 1.574 . S
C468 H463 0.949 . S
C468 C474 1.368 . S
C469 C453 1.349 . S
C469 H461 0.950 . S
C469 C467 1.327 . S
C470 C458 1.349 . S
C470 H464 0.950 . S
C470 C471 1.327 . S
C471 H465 0.950 . S
C471 C470 1.327 . S
C471 C475 1.429 . S
C472 C455 1.574 1_556 S
C472 H466 0.949 . S
C472 C476 1.368 . S
C473 C454 1.429 1_554 S
C473 C467 1.429 . S
C473 C474 1.523 1_554 S
C474 C455 1.368 1_556 S
C474 C468 1.368 . S
C474 C473 1.523 1_556 S
C475 C459 1.429 . S
C475 C471 1.429 . S
C475 C476 1.523 . S
C476 C460 1.368 . S
C476 C472 1.368 . S
C476 C475 1.523 . S
H477 C452 0.950 1_556 S
H478 C454 0.950 . S
H479 C455 0.949 . S
H480 C457 0.950 . S
H481 C459 0.950 . S
C482 C483 1.349 1_556 S
C482 C484 1.327 . S
C482 H507 0.950 . S
C483 C482 1.349 1_554 S
C483 C499 1.349 . S
C484 C482 1.327 . S
C484 C503 1.429 . S
C484 H508 0.952 1_655 S
C485 C502 1.574 . S
C485 C504 1.368 . S
C485 H509 0.949 1_556 S
H486 C490 0.949 . S
C487 C488 1.349 1_655 S
C487 C489 1.327 . S
C487 H510 0.950 . S
C488 C487 1.349 1_455 S
C488 C500 1.349 . S
C489 C487 1.327 . S
C489 C505 1.429 . S
C489 H511 0.950 . S
C490 H486 0.949 . S
C490 C498 1.574 1_455 S
C490 C506 1.368 1_455 S
H491 C499 0.950 . S
H492 C497 0.950 . S
H493 C498 0.949 1_455 S
H494 C500 0.950 . S
H495 C501 0.950 . S
H496 C502 0.949 . S
C497 H492 0.950 . S
C497 C499 1.327 . S
C497 C503 1.429 1_554 S
C498 C490 1.574 1_655 S
C498 H493 0.949 1_655 S
C498 C504 1.368 . S
C499 C483 1.349 . S
C499 H491 0.950 . S
C499 C497 1.327 . S
C500 C488 1.349 . S
C500 H494 0.950 . S
C500 C501 1.327 . S
C501 H495 0.950 . S
C501 C500 1.327 . S
C501 C505 1.429 1_455 S
C502 C485 1.574 . S
C502 H496 0.949 . S
C502 C506 1.368 . S
C503 C484 1.429 . S
C503 C497 1.429 1_556 S
C503 C504 1.523 . S
C504 C485 1.368 . S
C504 C498 1.368 . S
C504 C503 1.523 . S
C505 C489 1.429 . S
C505 C501 1.429 1_655 S
C505 C506 1.523 . S
C506 C490 1.368 1_655 S
C506 C502 1.368 . S
C506 C505 1.523 . S
H507 C482 0.950 . S
H508 C484 0.952 1_455 S
H509 C485 0.949 1_554 S
H510 C487 0.950 . S
H511 C489 0.950 . S
C512 C513 1.349 . S
C512 C514 1.327 . S
C512 H537 0.950 . S
C513 C512 1.349 . S
C513 C529 1.349 . S
C514 C512 1.327 . S
C514 C533 1.429 . S
C514 H538 0.950 . S
C515 C532 1.574 . S
C515 C534 1.368 . S
C515 H539 0.949 . S
H516 C520 0.949 . S
C517 C518 1.349 . S
C517 C519 1.327 . S
C517 H540 0.950 . S
C518 C517 1.349 . S
C518 C530 1.353 . S
C519 C517 1.327 . S
C519 C535 1.429 . S
C519 H541 0.950 . S
C520 H516 0.949 . S
C520 C528 1.574 . S
C520 C536 1.368 . S
H521 C529 0.950 . S
H522 C527 0.950 . S
H523 C528 0.949 . S
H524 C530 0.943 1_655 S
H525 C531 0.950 1_655 S
H526 C532 0.949 . S
C527 H522 0.950 . S
C527 C529 1.327 . S
C527 C533 1.429 . S
C528 C520 1.574 . S
C528 H523 0.949 . S
C528 C534 1.368 . S
C529 C513 1.349 . S
C529 H521 0.950 . S
C529 C527 1.327 . S
C530 C518 1.353 . S
C530 H524 0.943 1_455 S
C530 C531 1.329 . S
C531 H525 0.950 1_455 S
C531 C530 1.329 . S
C531 C535 1.429 . S
C532 C515 1.574 . S
C532 H526 0.949 . S
C532 C536 1.368 . S
C533 C514 1.429 . S
C533 C527 1.429 . S
C533 C534 1.523 . S
C534 C515 1.368 . S
C534 C528 1.368 . S
C534 C533 1.523 . S
C535 C519 1.429 . S
C535 C531 1.429 . S
C535 C536 1.523 . S
C536 C520 1.368 . S
C536 C532 1.368 . S
C536 C535 1.523 . S
H537 C512 0.950 . S
H538 C514 0.950 . S
H539 C515 0.949 . S
H540 C517 0.950 . S
H541 C519 0.950 . S
C542 C543 1.349 . S
C542 C544 1.327 . S
C542 H567 0.950 . S
C543 C542 1.349 . S
C543 C559 1.349 . S
C544 C542 1.327 . S
C544 C563 1.429 . S
C544 H568 0.950 . S
C545 C562 1.573 1_545 S
C545 C564 1.412 . S
C545 H569 0.914 1_545 S
H546 C550 0.949 . S
C547 C548 1.349 1_565 S
C547 C549 1.327 . S
C547 H570 0.950 . S
C548 C547 1.349 1_545 S
C548 C560 1.349 . S
C549 C547 1.327 . S
C549 C565 1.429 1_565 S
C549 H571 0.950 . S
C550 H546 0.949 . S
C550 C558 1.574 . S
C550 C566 1.368 . S
H551 C559 0.950 1_565 S
H552 C557 0.950 1_565 S
H553 C558 0.949 . S
H554 C560 0.950 . S
H555 C561 0.950 . S
H556 C562 0.982 . S
C557 H552 0.950 1_545 S
C557 C559 1.327 . S
C557 C563 1.429 . S
C558 C550 1.574 . S
C558 H553 0.949 . S
C558 C564 1.368 . S
C559 C543 1.349 . S
C559 H551 0.950 1_545 S
C559 C557 1.327 . S
C560 C548 1.349 . S
C560 H554 0.950 . S
C560 C561 1.327 . S
C561 H555 0.950 . S
C561 C560 1.327 . S
C561 C565 1.429 . S
C562 C545 1.573 1_565 S
C562 H556 0.982 . S
C562 C566 1.335 1_565 S
C563 C544 1.429 . S
C563 C557 1.429 . S
C563 C564 1.523 . S
C564 C545 1.412 . S
C564 C558 1.368 . S
C564 C563 1.523 . S
C565 C549 1.429 1_545 S
C565 C561 1.429 . S
C565 C566 1.523 . S
C566 C550 1.368 . S
C566 C562 1.335 1_545 S
C566 C565 1.523 . S
H567 C542 0.950 . S
H568 C544 0.950 . S
H569 C545 0.914 1_565 S
H570 C547 0.950 . S
H571 C549 0.950 . S
C572 C573 1.349 . S
C572 C574 1.327 . S
C572 H597 0.950 . S
C573 C572 1.349 . S
C573 C589 1.349 . S
C574 C572 1.327 . S
C574 C593 1.429 . S
C574 H598 0.950 . S
C575 C592 1.574 . S
C575 C594 1.368 . S
C575 H599 0.949 . S
H576 C580 0.949 . S
C577 C578 1.349 . S
C577 C579 1.327 . S
C577 H600 0.950 . S
C578 C577 1.349 . S
C578 C590 1.349 . S
C579 C577 1.327 . S
C579 C595 1.429 . S
C579 H601 0.950 . S
C580 H576 0.949 . S
C580 C588 1.574 . S
C580 C596 1.368 . S
H581 C589 0.950 . S
H582 C587 0.950 . S
H583 C588 0.949 . S
H584 C590 0.950 . S
H585 C591 0.950 . S
H586 C592 0.949 . S
C587 H582 0.950 . S
C587 C589 1.327 . S
C587 C593 1.429 . S
C588 C580 1.574 . S
C588 H583 0.949 . S
C588 C594 1.368 . S
C589 C573 1.349 . S
C589 H581 0.950 . S
C589 C587 1.327 . S
C590 C578 1.349 . S
C590 H584 0.950 . S
C590 C591 1.327 . S
C591 H585 0.950 . S
C591 C590 1.327 . S
C591 C595 1.429 . S
C592 C575 1.574 . S
C592 H586 0.949 . S
C592 C596 1.368 . S
C593 C574 1.429 . S
C593 C587 1.429 . S
C593 C594 1.523 . S
C594 C575 1.368 . S
C594 C588 1.368 . S
C594 C593 1.523 . S
C595 C579 1.429 . S
C595 C591 1.429 . S
C595 C596 1.523 . S
C596 C580 1.368 . S
C596 C592 1.368 . S
C596 C595 1.523 . S
H597 C572 0.950 . S
H598 C574 0.950 . S
H599 C575 0.949 . S
H600 C577 0.950 . S
H601 C579 0.950 . S
C602 C603 1.349 . S
C602 C604 1.327 . S
C602 H627 0.950 . S
C603 C602 1.349 . S
C603 C619 1.349 . S
C604 C602 1.327 . S
C604 C623 1.429 . S
C604 H628 0.950 . S
C605 C622 1.574 . S
C605 C624 1.368 . S
C605 H629 0.949 . S
H606 C610 0.949 . S
C607 C608 1.349 . S
C607 C609 1.327 . S
C607 H630 0.950 . S
C608 C607 1.349 . S
C608 C620 1.349 . S
C609 C607 1.327 . S
C609 C625 1.429 . S
C609 H631 0.950 . S
C610 H606 0.949 . S
C610 C618 1.574 . S
C610 C626 1.368 . S
H611 C619 0.950 . S
H612 C617 0.950 . S
H613 C618 0.949 . S
H614 C620 0.950 . S
H615 C621 0.950 . S
H616 C622 0.949 . S
C617 H612 0.950 . S
C617 C619 1.327 . S
C617 C623 1.429 . S
C618 C610 1.574 . S
C618 H613 0.949 . S
C618 C624 1.368 . S
C619 C603 1.349 . S
C619 H611 0.950 . S
C619 C617 1.327 . S
C620 C608 1.349 . S
C620 H614 0.950 . S
C620 C621 1.327 . S
C621 H615 0.950 . S
C621 C620 1.327 . S
C621 C625 1.429 . S
C622 C605 1.574 . S
C622 H616 0.949 . S
C622 C626 1.368 . S
C623 C604 1.429 . S
C623 C617 1.429 . S
C623 C624 1.523 . S
C624 C605 1.368 . S
C624 C618 1.368 . S
C624 C623 1.523 . S
C625 C609 1.429 . S
C625 C621 1.429 . S
C625 C626 1.523 . S
C626 C610 1.368 . S
C626 C622 1.368 . S
C626 C625 1.523 . S
H627 C602 0.950 . S
H628 C604 0.950 . S
H629 C605 0.949 . S
H630 C607 0.950 . S
H631 C609 0.950 . S
C632 C633 1.349 . S
C632 C634 1.327 . S
C632 H657 0.950 . S
C633 C632 1.349 . S
C633 C649 1.349 1_554 S
C634 C632 1.327 . S
C634 C653 1.429 1_554 S
C634 H658 0.950 . S
C635 C652 1.574 . S
C635 C654 1.368 . S
C635 H659 0.949 . S
H636 C640 0.949 . S
C637 C638 1.322 1_655 S
C637 C639 1.338 . S
C637 H660 0.967 . S
C638 C637 1.322 1_455 S
C638 C650 1.349 . S
C639 C637 1.338 . S
C639 C655 1.429 1_655 S
C639 H661 0.950 . S
C640 H636 0.949 . S
C640 C648 1.575 . S
C640 C656 1.368 1_455 S
H641 C649 0.950 . S
H642 C647 0.950 . S
H643 C648 0.951 1_554 S
H644 C650 0.950 . S
H645 C651 0.950 . S
H646 C652 0.949 . S
C647 H642 0.950 . S
C647 C649 1.327 . S
C647 C653 1.429 . S
C648 C640 1.575 . S
C648 H643 0.951 1_556 S
C648 C654 1.365 1_455 S
C649 C633 1.349 1_556 S
C649 H641 0.950 . S
C649 C647 1.327 . S
C650 C638 1.349 . S
C650 H644 0.950 . S
C650 C651 1.327 . S
C651 H645 0.950 . S
C651 C650 1.327 . S
C651 C655 1.429 . S
C652 C635 1.574 . S
C652 H646 0.949 . S
C652 C656 1.368 . S
C653 C634 1.429 1_556 S
C653 C647 1.429 . S
C653 C654 1.523 . S
C654 C635 1.368 . S
C654 C648 1.365 1_655 S
C654 C653 1.523 . S
C655 C639 1.429 1_455 S
C655 C651 1.429 . S
C655 C656 1.523 1_455 S
C656 C640 1.368 1_655 S
C656 C652 1.368 . S
C656 C655 1.523 1_655 S
H657 C632 0.950 . S
H658 C634 0.950 . S
H659 C635 0.949 . S
H660 C637 0.967 . S
H661 C639 0.950 . S
C662 C663 1.351 1_554 S
C662 C664 1.327 1_554 S
C662 H687 0.950 . S
C663 C662 1.351 1_556 S
C663 C679 1.347 1_565 S
C664 C662 1.327 1_556 S
C664 C683 1.429 1_565 S
C664 H688 0.950 1_556 S
C665 C682 1.574 . S
C665 C684 1.368 . S
C665 H689 0.949 . S
H666 C670 0.949 . S
C667 C668 1.349 . S
C667 C669 1.327 . S
C667 H690 0.950 . S
C668 C667 1.349 . S
C668 C680 1.349 1_545 S
C669 C667 1.327 . S
C669 C685 1.429 . S
C669 H691 0.950 . S
C670 H666 0.949 . S
C670 C678 1.574 . S
C670 C686 1.368 1_565 S
H671 C679 0.950 . S
H672 C677 0.950 . S
H673 C678 0.949 . S
H674 C680 0.950 . S
H675 C681 0.950 . S
H676 C682 0.949 . S
C677 H672 0.950 . S
C677 C679 1.327 . S
C677 C683 1.429 . S
C678 C670 1.574 . S
C678 H673 0.949 . S
C678 C684 1.368 1_565 S
C679 C663 1.347 1_545 S
C679 H671 0.950 . S
C679 C677 1.327 . S
C680 C668 1.349 1_565 S
C680 H674 0.950 . S
C680 C681 1.327 . S
C681 H675 0.950 . S
C681 C680 1.327 . S
C681 C685 1.429 1_565 S
C682 C665 1.574 . S
C682 H676 0.949 . S
C682 C686 1.368 . S
C683 C664 1.429 1_545 S
C683 C677 1.429 . S
C683 C684 1.523 . S
C684 C665 1.368 . S
C684 C678 1.368 1_545 S
C684 C683 1.523 . S
C685 C669 1.429 . S
C685 C681 1.429 1_545 S
C685 C686 1.523 . S
C686 C670 1.368 1_545 S
C686 C682 1.368 . S
C686 C685 1.523 . S
H687 C662 0.950 . S
H688 C664 0.950 1_554 S
H689 C665 0.949 . S
H690 C667 0.950 . S
H691 C669 0.950 . S
C692 C693 1.349 . S
C692 C694 1.327 . S
C692 H717 0.950 . S
C693 C692 1.349 . S
C693 C709 1.349 1_554 S
C694 C692 1.327 . S
C694 C713 1.429 1_554 S
C694 H718 0.950 . S
C695 C712 1.574 . S
C695 C714 1.368 . S
C695 H719 0.949 . S
H696 C700 0.949 . S
C697 C698 1.349 . S
C697 C699 1.327 . S
C697 H720 0.950 . S
C698 C697 1.349 . S
C698 C710 1.349 . S
C699 C697 1.327 . S
C699 C715 1.429 . S
C699 H721 0.950 . S
C700 H696 0.949 . S
C700 C708 1.574 . S
C700 C716 1.368 . S
H701 C709 0.950 . S
H702 C707 0.950 . S
H703 C708 0.949 1_554 S
H704 C710 0.950 . S
H705 C711 0.950 . S
H706 C712 0.949 . S
C707 H702 0.950 . S
C707 C709 1.327 . S
C707 C713 1.429 . S
C708 C700 1.574 . S
C708 H703 0.949 1_556 S
C708 C714 1.368 . S
C709 C693 1.349 1_556 S
C709 H701 0.950 . S
C709 C707 1.327 . S
C710 C698 1.349 . S
C710 H704 0.950 . S
C710 C711 1.327 . S
C711 H705 0.950 . S
C711 C710 1.327 . S
C711 C715 1.429 . S
C712 C695 1.574 . S
C712 H706 0.949 . S
C712 C716 1.368 . S
C713 C694 1.429 1_556 S
C713 C707 1.429 . S
C713 C714 1.523 . S
C714 C695 1.368 . S
C714 C708 1.368 . S
C714 C713 1.523 . S
C715 C699 1.429 . S
C715 C711 1.429 . S
C715 C716 1.523 . S
C716 C700 1.368 . S
C716 C712 1.368 . S
C716 C715 1.523 . S
H717 C692 0.950 . S
H718 C694 0.950 . S
H719 C695 0.949 . S
H720 C697 0.950 . S
H721 C699 0.950 . S
C722 C723 1.349 . S
C722 C724 1.327 . S
C722 H747 0.950 . S
C723 C722 1.349 . S
C723 C739 1.349 . S
C724 C722 1.327 . S
C724 C743 1.429 . S
C724 H748 0.950 . S
C725 C742 1.574 . S
C725 C744 1.368 . S
C725 H749 0.949 1_556 S
H726 C730 0.949 . S
C727 C728 1.349 . S
C727 C729 1.327 . S
C727 H750 0.950 . S
C728 C727 1.349 . S
C728 C740 1.349 . S
C729 C727 1.327 . S
C729 C745 1.429 . S
C729 H751 0.950 . S
C730 H726 0.949 . S
C730 C738 1.574 . S
C730 C746 1.368 . S
H731 C739 0.950 . S
H732 C737 0.950 . S
H733 C738 0.949 . S
H734 C740 0.950 . S
H735 C741 0.950 . S
H736 C742 0.949 . S
C737 H732 0.950 . S
C737 C739 1.327 . S
C737 C743 1.429 . S
C738 C730 1.574 . S
C738 H733 0.949 . S
C738 C744 1.368 . S
C739 C723 1.349 . S
C739 H731 0.950 . S
C739 C737 1.327 . S
C740 C728 1.349 . S
C740 H734 0.950 . S
C740 C741 1.327 . S
C741 H735 0.950 . S
C741 C740 1.327 . S
C741 C745 1.429 . S
C742 C725 1.574 . S
C742 H736 0.949 . S
C742 C746 1.368 . S
C743 C724 1.429 . S
C743 C737 1.429 . S
C743 C744 1.523 1_554 S
C744 C725 1.368 . S
C744 C738 1.368 . S
C744 C743 1.523 1_556 S
C745 C729 1.429 . S
C745 C741 1.429 . S
C745 C746 1.523 . S
C746 C730 1.368 . S
C746 C742 1.368 . S
C746 C745 1.523 . S
H747 C722 0.950 . S
H748 C724 0.950 . S
H749 C725 0.949 1_554 S
H750 C727 0.950 . S
H751 C729 0.950 . S
C752 C753 1.349 . S
C752 C754 1.327 . S
C752 H777 0.950 . S
C753 C752 1.349 . S
C753 C769 1.349 . S
C754 C752 1.327 . S
C754 C773 1.429 . S
C754 H778 0.950 . S
C755 C772 1.574 . S
C755 C774 1.368 . S
C755 H779 0.949 . S
H756 C760 0.949 . S
C757 C758 1.349 1_554 S
C757 C759 1.327 . S
C757 H780 0.950 . S
C758 C757 1.349 1_556 S
C758 C770 1.349 . S
C759 C757 1.327 . S
C759 C775 1.429 . S
C759 H781 0.950 . S
C760 H756 0.949 . S
C760 C768 1.574 . S
C760 C776 1.368 . S
H761 C769 0.950 . S
H762 C767 0.950 . S
H763 C768 0.949 . S
H764 C770 0.950 . S
H765 C771 0.950 . S
H766 C772 0.949 . S
C767 H762 0.950 . S
C767 C769 1.327 . S
C767 C773 1.429 . S
C768 C760 1.574 . S
C768 H763 0.949 . S
C768 C774 1.368 . S
C769 C753 1.349 . S
C769 H761 0.950 . S
C769 C767 1.327 . S
C770 C758 1.349 . S
C770 H764 0.950 . S
C770 C771 1.327 . S
C771 H765 0.950 . S
C771 C770 1.327 . S
C771 C775 1.429 1_556 S
C772 C755 1.574 . S
C772 H766 0.949 . S
C772 C776 1.368 . S
C773 C754 1.429 . S
C773 C767 1.429 . S
C773 C774 1.523 . S
C774 C755 1.368 . S
C774 C768 1.368 . S
C774 C773 1.523 . S
C775 C759 1.429 . S
C775 C771 1.429 1_554 S
C775 C776 1.523 . S
C776 C760 1.368 . S
C776 C772 1.368 . S
C776 C775 1.523 . S
H777 C752 0.950 . S
H778 C754 0.950 . S
H779 C755 0.949 . S
H780 C757 0.950 . S
H781 C759 0.950 . S
C782 C783 1.349 . S
C782 C784 1.327 . S
C782 H807 0.950 . S
C783 C782 1.349 . S
C783 C799 1.349 . S
C784 C782 1.327 . S
C784 C803 1.429 . S
C784 H808 0.950 . S
C785 C802 1.574 . S
C785 C804 1.368 . S
C785 H809 0.949 1_545 S
H786 C790 0.949 . S
C787 C788 1.349 . S
C787 C789 1.327 1_556 S
C787 H810 0.950 1_545 S
C788 C787 1.349 . S
C788 C800 1.349 1_556 S
C789 C787 1.327 1_554 S
C789 C805 1.429 . S
C789 H811 0.950 1_545 S
C790 H786 0.949 . S
C790 C798 1.574 . S
C790 C806 1.368 . S
H791 C799 0.950 1_565 S
H792 C797 0.950 1_565 S
H793 C798 0.949 . S
H794 C800 0.950 . S
H795 C801 0.950 . S
H796 C802 0.949 1_565 S
C797 H792 0.950 1_545 S
C797 C799 1.327 . S
C797 C803 1.429 . S
C798 C790 1.574 . S
C798 H793 0.949 . S
C798 C804 1.368 . S
C799 C783 1.349 . S
C799 H791 0.950 1_545 S
C799 C797 1.327 . S
C800 C788 1.349 1_554 S
C800 H794 0.950 . S
C800 C801 1.327 . S
C801 H795 0.950 . S
C801 C800 1.327 . S
C801 C805 1.429 . S
C802 C785 1.574 . S
C802 H796 0.949 1_545 S
C802 C806 1.368 . S
C803 C784 1.429 . S
C803 C797 1.429 . S
C803 C804 1.523 . S
C804 C785 1.368 . S
C804 C798 1.368 . S
C804 C803 1.523 . S
C805 C789 1.429 . S
C805 C801 1.429 . S
C805 C806 1.523 . S
C806 C790 1.368 . S
C806 C802 1.368 . S
C806 C805 1.523 . S
H807 C782 0.950 . S
H808 C784 0.950 . S
H809 C785 0.949 1_565 S
H810 C787 0.950 1_565 S
H811 C789 0.950 1_565 S
C812 C813 1.349 . S
C812 C814 1.327 . S
C812 H837 0.950 . S
C813 C812 1.349 . S
C813 C829 1.349 . S
C814 C812 1.327 . S
C814 C833 1.429 . S
C814 H838 0.950 . S
C815 C832 1.574 . S
C815 C834 1.368 . S
C815 H839 0.949 . S
H816 C820 0.949 . S
C817 C818 1.349 . S
C817 C819 1.327 . S
C817 H840 0.950 . S
C818 C817 1.349 . S
C818 C830 1.349 . S
C819 C817 1.327 . S
C819 C835 1.435 . S
C819 H841 0.950 . S
C820 H816 0.949 . S
C820 C828 1.574 . S
C820 C836 1.368 . S
H821 C829 0.950 . S
H822 C827 0.950 . S
H823 C828 0.949 . S
H824 C830 0.950 . S
H825 C831 0.950 . S
H826 C832 0.949 1_556 S
C827 H822 0.950 . S
C827 C829 1.327 . S
C827 C833 1.429 . S
C828 C820 1.574 . S
C828 H823 0.949 . S
C828 C834 1.368 . S
C829 C813 1.349 . S
C829 H821 0.950 . S
C829 C827 1.327 . S
C830 C818 1.349 . S
C830 H824 0.950 . S
C830 C831 1.327 1_556 S
C831 H825 0.950 . S
C831 C830 1.327 1_554 S
C831 C835 1.427 1_554 S
C832 C815 1.574 . S
C832 H826 0.949 1_554 S
C832 C836 1.368 . S
C833 C814 1.429 . S
C833 C827 1.429 . S
C833 C834 1.523 . S
C834 C815 1.368 . S
C834 C828 1.368 . S
C834 C833 1.523 . S
C835 C819 1.435 . S
C835 C831 1.427 1_556 S
C835 C836 1.519 1_556 S
C836 C820 1.368 . S
C836 C832 1.368 . S
C836 C835 1.519 1_554 S
H837 C812 0.950 . S
H838 C814 0.950 . S
H839 C815 0.949 . S
H840 C817 0.950 . S
H841 C819 0.950 . S
C842 C843 1.349 . S
C842 C844 1.327 . S
C842 H867 0.950 . S
C843 C842 1.349 . S
C843 C859 1.349 . S
C844 C842 1.327 . S
C844 C863 1.429 . S
C844 H868 0.950 . S
C845 C862 1.574 . S
C845 C864 1.368 . S
C845 H869 0.949 . S
H846 C850 0.949 . S
C847 C848 1.349 . S
C847 C849 1.327 . S
C847 H870 0.950 . S
C848 C847 1.349 . S
C848 C860 1.349 . S
C849 C847 1.327 . S
C849 C865 1.429 . S
C849 H871 0.950 . S
C850 H846 0.949 . S
C850 C858 1.574 . S
C850 C866 1.368 . S
H851 C859 0.950 . S
H852 C857 0.950 . S
H853 C858 0.949 . S
H854 C860 0.950 . S
H855 C861 0.950 1_554 S
H856 C862 0.949 1_556 S
C857 H852 0.950 . S
C857 C859 1.327 . S
C857 C863 1.429 . S
C858 C850 1.574 . S
C858 H853 0.949 . S
C858 C864 1.368 . S
C859 C843 1.349 . S
C859 H851 0.950 . S
C859 C857 1.327 . S
C860 C848 1.349 . S
C860 H854 0.950 . S
C860 C861 1.327 . S
C861 H855 0.950 1_556 S
C861 C860 1.327 . S
C861 C865 1.429 . S
C862 C845 1.574 . S
C862 H856 0.949 1_554 S
C862 C866 1.368 . S
C863 C844 1.429 . S
C863 C857 1.429 . S
C863 C864 1.523 . S
C864 C845 1.368 . S
C864 C858 1.368 . S
C864 C863 1.523 . S
C865 C849 1.429 . S
C865 C861 1.429 . S
C865 C866 1.523 1_556 S
C866 C850 1.368 . S
C866 C862 1.368 . S
C866 C865 1.523 1_554 S
H867 C842 0.950 . S
H868 C844 0.950 . S
H869 C845 0.949 . S
H870 C847 0.950 . S
H871 C849 0.950 . S
C872 C873 1.349 . S
C872 C874 1.327 . S
C872 H897 0.950 . S
C873 C872 1.349 . S
C873 C889 1.349 . S
C874 C872 1.327 . S
C874 C893 1.429 . S
C874 H898 0.950 . S
C875 C892 1.574 . S
C875 C894 1.368 . S
C875 H899 0.949 . S
H876 C880 0.949 . S
C877 C878 1.349 . S
C877 C879 1.327 . S
C877 H900 0.950 . S
C878 C877 1.349 . S
C878 C890 1.349 . S
C879 C877 1.327 . S
C879 C895 1.429 . S
C879 H901 0.950 . S
C880 H876 0.949 . S
C880 C888 1.574 . S
C880 C896 1.368 . S
H881 C889 0.950 . S
H882 C887 0.950 . S
H883 C888 0.949 . S
H884 C890 0.950 . S
H885 C891 0.950 . S
H886 C892 0.949 . S
C887 H882 0.950 . S
C887 C889 1.327 . S
C887 C893 1.429 . S
C888 C880 1.574 . S
C888 H883 0.949 . S
C888 C894 1.368 . S
C889 C873 1.349 . S
C889 H881 0.950 . S
C889 C887 1.327 . S
C890 C878 1.349 . S
C890 H884 0.950 . S
C890 C891 1.327 . S
C891 H885 0.950 . S
C891 C890 1.327 . S
C891 C895 1.429 . S
C892 C875 1.574 . S
C892 H886 0.949 . S
C892 C896 1.368 . S
C893 C874 1.429 . S
C893 C887 1.429 . S
C893 C894 1.523 . S
C894 C875 1.368 . S
C894 C888 1.368 . S
C894 C893 1.523 . S
C895 C879 1.429 . S
C895 C891 1.429 . S
C895 C896 1.523 . S
C896 C880 1.368 . S
C896 C892 1.368 . S
C896 C895 1.523 . S
H897 C872 0.950 . S
H898 C874 0.950 . S
H899 C875 0.949 . S
H900 C877 0.950 . S
H901 C879 0.950 . S
C902 C903 1.347 . S
C902 C904 1.327 . S
C902 H927 0.950 . S
C903 C902 1.347 . S
C903 C919 1.351 1_565 S
C904 C902 1.327 . S
C904 C923 1.437 . S
C904 H928 0.950 . S
C905 C922 1.574 . S
C905 C924 1.352 1_545 S
C905 H929 0.949 . S
H906 C910 0.949 . S
C907 C908 1.311 1_545 S
C907 C909 1.327 . S
C907 H930 0.950 . S
C908 C907 1.311 1_565 S
C908 C920 1.392 . S
C909 C907 1.327 . S
C909 C925 1.398 1_545 S
C909 H931 0.950 . S
C910 H906 0.949 . S
C910 C918 1.574 . S
C910 C926 1.395 . S
H911 C919 0.950 . S
H912 C917 0.950 . S
H913 C918 0.949 . S
H914 C920 0.950 . S
H915 C921 0.950 . S
H916 C922 0.949 . S
C917 H912 0.950 . S
C917 C919 1.327 . S
C917 C923 1.421 1_545 S
C918 C910 1.574 . S
C918 H913 0.949 . S
C918 C924 1.383 . S
C919 C903 1.351 1_545 S
C919 H911 0.950 . S
C919 C917 1.327 . S
C920 C908 1.392 . S
C920 H914 0.950 . S
C920 C921 1.327 . S
C921 H915 0.950 . S
C921 C920 1.327 . S
C921 C925 1.456 . S
C922 C905 1.574 . S
C922 H916 0.949 . S
C922 C926 1.344 1_545 S
C923 C904 1.437 . S
C923 C917 1.421 1_565 S
C923 C924 1.524 . S
C924 C905 1.352 1_565 S
C924 C918 1.383 . S
C924 C923 1.524 . S
C925 C909 1.398 1_565 S
C925 C921 1.456 . S
C925 C926 1.524 . S
C926 C910 1.395 . S
C926 C922 1.344 1_565 S
C926 C925 1.524 . S
H927 C902 0.950 . S
H928 C904 0.950 . S
H929 C905 0.949 . S
H930 C907 0.950 . S
H931 C909 0.950 . S
C932 C933 1.349 . S
C932 C934 1.327 . S
C932 H957 0.950 . S
C933 C932 1.349 . S
C933 C949 1.349 . S
C934 C932 1.327 . S
C934 C953 1.429 . S
C934 H958 0.950 . S
C935 C952 1.574 . S
C935 C954 1.368 . S
C935 H959 0.949 . S
H936 C940 0.949 . S
C937 C938 1.349 . S
C937 C939 1.327 . S
C937 H960 0.950 . S
C938 C937 1.349 . S
C938 C950 1.349 . S
C939 C937 1.327 . S
C939 C955 1.429 . S
C939 H961 0.950 . S
C940 H936 0.949 . S
C940 C948 1.574 . S
C940 C956 1.368 . S
H941 C949 0.950 . S
H942 C947 0.950 . S
H943 C948 0.949 . S
H944 C950 0.950 . S
H945 C951 0.950 . S
H946 C952 0.949 . S
C947 H942 0.950 . S
C947 C949 1.327 . S
C947 C953 1.429 . S
C948 C940 1.574 . S
C948 H943 0.949 . S
C948 C954 1.368 . S
C949 C933 1.349 . S
C949 H941 0.950 . S
C949 C947 1.327 . S
C950 C938 1.349 . S
C950 H944 0.950 . S
C950 C951 1.327 . S
C951 H945 0.950 . S
C951 C950 1.327 . S
C951 C955 1.429 . S
C952 C935 1.574 . S
C952 H946 0.949 . S
C952 C956 1.368 . S
C953 C934 1.429 . S
C953 C947 1.429 . S
C953 C954 1.523 . S
C954 C935 1.368 . S
C954 C948 1.368 . S
C954 C953 1.523 . S
C955 C939 1.429 . S
C955 C951 1.429 . S
C955 C956 1.523 . S
C956 C940 1.368 . S
C956 C952 1.368 . S
C956 C955 1.523 . S
H957 C932 0.950 . S
H958 C934 0.950 . S
H959 C935 0.949 . S
H960 C937 0.950 . S
H961 C939 0.950 . S
C962 C963 1.349 . S
C962 C964 1.327 . S
C962 H987 0.950 . S
C963 C962 1.349 . S
C963 C979 1.349 . S
C964 C962 1.327 . S
C964 C983 1.429 . S
C964 H988 0.950 . S
C965 C982 1.574 . S
C965 C984 1.368 . S
C965 H989 0.949 . S
H966 C970 0.949 . S
C967 C968 1.349 . S
C967 C969 1.327 . S
C967 H990 0.950 . S
C968 C967 1.349 . S
C968 C980 1.349 . S
C969 C967 1.327 . S
C969 C985 1.429 . S
C969 H991 0.950 . S
C970 H966 0.949 . S
C970 C978 1.574 . S
C970 C986 1.368 . S
H971 C979 0.950 . S
H972 C977 0.950 . S
H973 C978 0.949 . S
H974 C980 0.950 . S
H975 C981 0.950 . S
H976 C982 0.949 . S
C977 H972 0.950 . S
C977 C979 1.327 . S
C977 C983 1.429 . S
C978 C970 1.574 . S
C978 H973 0.949 . S
C978 C984 1.368 . S
C979 C963 1.349 . S
C979 H971 0.950 . S
C979 C977 1.327 . S
C980 C968 1.349 . S
C980 H974 0.950 . S
C980 C981 1.327 . S
C981 H975 0.950 . S
C981 C980 1.327 . S
C981 C985 1.429 . S
C982 C965 1.574 . S
C982 H976 0.949 . S
C982 C986 1.368 . S
C983 C964 1.429 . S
C983 C977 1.429 . S
C983 C984 1.523 . S
C984 C965 1.368 . S
C984 C978 1.368 . S
C984 C983 1.523 . S
C985 C969 1.429 . S
C985 C981 1.429 . S
C985 C986 1.523 . S
C986 C970 1.368 . S
C986 C982 1.368 . S
C986 C985 1.523 . S
H987 C962 0.950 . S
H988 C964 0.950 . S
H989 C965 0.949 . S
H990 C967 0.950 . S
H991 C969 0.950 . S
C273 C125 1.590 . S
C278 C162 1.705 . S
C308 C192 1.843 . S
C303 C144 1.709 . S
C338 N226 1.416 . S
C333 C87 1.377 . S
C368 N256 1.348 . S
C363 C106 1.301 . S
C398 C153 1.706 . S
C393 C49 1.608 1_546 S
C423 C68 1.755 . S
C428 C183 1.843 . S
C453 C11 1.415 . S
C458 N218 1.416 . S
C483 C30 1.358 . S
C488 N248 1.348 . S
C518 C168 0.277 . S
C513 C97 0.448 . S
C548 C198 0.624 . S
C543 C116 0.654 . S
C578 C239 0.881 . S
C573 C135 0.866 . S
C603 C78 0.512 . S
C608 C269 0.475 . S
C633 C21 0.444 . S
C638 C179 0.277 . S
C668 C209 0.623 . S
C663 C40 0.652 1_556 S
C698 C228 0.881 . S
C693 C59 0.867 . S
C723 C2 0.510 . S
C728 C258 0.475 . S
C753 C101 1.475 . S
C758 N158 1.472 . S
C783 C120 1.467 . S
C788 N188 1.455 . S
C818 C213 1.642 . S
C813 C139 1.618 . S
C848 C243 1.632 . S
C843 C82 1.602 . S
C873 C25 1.477 . S
C878 N166 1.471 . S
C908 N196 1.438 1_565 S
C903 C44 1.465 . S
C938 C222 1.642 . S
C933 C63 1.620 . S
C963 C6 1.603 . S
C968 C252 1.632 . S
