# Generated by pormake.
# Topology dag, (6,3)-cn, num edge types: 1
# Building blocks:
#     Node 0, Type 0, BuildingBlock: OJICUG_clean_sbu_0, # of connection points: 6
#     Node 1, Type 0, BuildingBlock: OJICUG_clean_sbu_0, # of connection points: 6
#     Node 2, Type 0, BuildingBlock: OJICUG_clean_sbu_0, # of connection points: 6
#     Node 3, Type 0, BuildingBlock: OJICUG_clean_sbu_0, # of connection points: 6
#     Node 4, Type 1, BuildingBlock: VETTIZ_charged_linker_0, # of connection points: 3
#     Node 5, Type 1, BuildingBlock: VETTIZ_charged_linker_0, # of connection points: 3
#     Node 6, Type 1, BuildingBlock: VETTIZ_charged_linker_0, # of connection points: 3
#     Node 7, Type 1, BuildingBlock: VETTIZ_charged_linker_0, # of connection points: 3
#     Node 8, Type 1, BuildingBlock: VETTIZ_charged_linker_0, # of connection points: 3
#     Node 9, Type 1, BuildingBlock: VETTIZ_charged_linker_0, # of connection points: 3
#     Node 10, Type 1, BuildingBlock: VETTIZ_charged_linker_0, # of connection points: 3
#     Node 11, Type 1, BuildingBlock: VETTIZ_charged_linker_0, # of connection points: 3
#     Edge 12, Type (0, 1), BuildingBlock: TEMPAE_clean_linker_10, # of connection points: 2
#     Edge 13, Type (0, 1), BuildingBlock: TEMPAE_clean_linker_10, # of connection points: 2
#     Edge 14, Type (0, 1), BuildingBlock: TEMPAE_clean_linker_10, # of connection points: 2
#     Edge 15, Type (0, 1), BuildingBlock: TEMPAE_clean_linker_10, # of connection points: 2
#     Edge 16, Type (0, 1), BuildingBlock: TEMPAE_clean_linker_10, # of connection points: 2
#     Edge 17, Type (0, 1), BuildingBlock: TEMPAE_clean_linker_10, # of connection points: 2
#     Edge 18, Type (0, 1), BuildingBlock: TEMPAE_clean_linker_10, # of connection points: 2
#     Edge 19, Type (0, 1), BuildingBlock: TEMPAE_clean_linker_10, # of connection points: 2
#     Edge 20, Type (0, 1), BuildingBlock: TEMPAE_clean_linker_10, # of connection points: 2
#     Edge 21, Type (0, 1), BuildingBlock: TEMPAE_clean_linker_10, # of connection points: 2
#     Edge 22, Type (0, 1), BuildingBlock: TEMPAE_clean_linker_10, # of connection points: 2
#     Edge 23, Type (0, 1), BuildingBlock: TEMPAE_clean_linker_10, # of connection points: 2
#     Edge 24, Type (0, 1), BuildingBlock: TEMPAE_clean_linker_10, # of connection points: 2
#     Edge 25, Type (0, 1), BuildingBlock: TEMPAE_clean_linker_10, # of connection points: 2
#     Edge 26, Type (0, 1), BuildingBlock: TEMPAE_clean_linker_10, # of connection points: 2
#     Edge 27, Type (0, 1), BuildingBlock: TEMPAE_clean_linker_10, # of connection points: 2
#     Edge 28, Type (0, 1), BuildingBlock: TEMPAE_clean_linker_10, # of connection points: 2
#     Edge 29, Type (0, 1), BuildingBlock: TEMPAE_clean_linker_10, # of connection points: 2
#     Edge 30, Type (0, 1), BuildingBlock: TEMPAE_clean_linker_10, # of connection points: 2
#     Edge 31, Type (0, 1), BuildingBlock: TEMPAE_clean_linker_10, # of connection points: 2
#     Edge 32, Type (0, 1), BuildingBlock: TEMPAE_clean_linker_10, # of connection points: 2
#     Edge 33, Type (0, 1), BuildingBlock: TEMPAE_clean_linker_10, # of connection points: 2
#     Edge 34, Type (0, 1), BuildingBlock: TEMPAE_clean_linker_10, # of connection points: 2
#     Edge 35, Type (0, 1), BuildingBlock: TEMPAE_clean_linker_10, # of connection points: 2
# Relax obj value: 0.268
# Max RMSD: 0.196
# Mean RMSD: 0.162
data_MOF--net-dag--node1-OJICUG_clean_sbu_0--node2-VETTIZ_charged_linker_0--edge1-TEMPAE_clean_linker_10
_symmetry_space_group_name_H-M    P1
_symmetry_Int_Tables_number       1
_symmetry_cell_setting            triclinic
loop_
_symmetry_equiv_pos_as_xyz
'x, y, z'
_cell_length_a     46.032863
_cell_length_b     45.938683
_cell_length_c     48.34109
_cell_angle_alpha  90.079104
_cell_angle_beta   89.780684
_cell_angle_gamma 90.069125
loop_
_atom_site_label
_atom_site_type_symbol
_atom_site_fract_x
_atom_site_fract_y
_atom_site_fract_z
_atom_type_partial_charge
Sc0 Sc 0.15712 0.85613 0.97288 0.0
Sc1 Sc 0.16091 0.78003 0.97684 0.0
Sc2 Sc 0.22542 0.82206 0.97457 0.0
O3 O 0.18117 0.81936 0.97467 0.0
C4 C 0.20798 0.87157 0.93117 0.0
C5 C 0.11944 0.81316 0.93518 0.0
C6 C 0.21307 0.76872 0.93433 0.0
C7 C 0.12238 0.81898 0.0175 0.0
C8 C 0.20853 0.87456 0.0138 0.0
C9 C 0.21375 0.77106 0.01793 0.0
O10 O 0.18167 0.87288 0.93901 0.0
O11 O 0.13071 0.79009 0.94469 0.0
O12 O 0.22871 0.78986 0.94252 0.0
O13 O 0.13064 0.84296 0.00707 0.0
O14 O 0.22581 0.85414 0.0072 0.0
O15 O 0.18826 0.76547 0.00965 0.0
O16 O 0.18419 0.87846 0.00207 0.0
O17 O 0.13055 0.79432 0.00831 0.0
O18 O 0.22999 0.78995 0.00653 0.0
O19 O 0.12655 0.83839 0.94362 0.0
O20 O 0.22663 0.85508 0.94254 0.0
O21 O 0.18875 0.76211 0.94524 0.0
Sc22 Sc 0.70864 0.67686 0.48595 0.0
Sc23 Sc 0.66407 0.7395 0.48091 0.0
Sc24 Sc 0.6332 0.67074 0.49419 0.0
O25 O 0.66864 0.69574 0.48697 0.0
C26 C 0.66994 0.62895 0.4551 0.0
C27 C 0.71212 0.72174 0.4361 0.0
C28 C 0.60944 0.71482 0.44855 0.0
C29 C 0.72069 0.73636 0.51821 0.0
C30 C 0.67927 0.64337 0.53597 0.0
C31 C 0.61834 0.72742 0.52932 0.0
O32 O 0.69433 0.64015 0.46142 0.0
O33 O 0.69327 0.73914 0.446 0.0
O34 O 0.60861 0.69139 0.46241 0.0
O35 O 0.72753 0.71068 0.5109 0.0
O36 O 0.65361 0.64716 0.52711 0.0
O37 O 0.63435 0.74472 0.51549 0.0
O38 O 0.70162 0.65348 0.52388 0.0
O39 O 0.69843 0.74947 0.50914 0.0
O40 O 0.61645 0.70038 0.52422 0.0
O41 O 0.71958 0.69828 0.44797 0.0
O42 O 0.64602 0.63843 0.46464 0.0
O43 O 0.62874 0.73428 0.45201 0.0
Sc44 Sc 0.83455 0.21654 0.99055 0.0
Sc45 Sc 0.77133 0.17262 0.99089 0.0
Sc46 Sc 0.84025 0.1404 -0.00564 0.0
O47 O 0.81539 0.17655 -0.00802 0.0
C48 C 0.87703 0.17924 0.95223 0.0
C49 C 0.78447 0.22037 0.94522 0.0
C50 C 0.79032 0.11722 0.95511 0.0
C51 C 0.77944 0.22981 0.02792 0.0
C52 C 0.87371 0.18399 0.03481 0.0
C53 C 0.78801 0.12639 0.03652 0.0
O54 O 0.86625 0.2033 0.96019 0.0
O55 O 0.76951 0.19918 0.95445 0.0
O56 O 0.8166 0.11777 0.9629 0.0
O57 O 0.80562 0.23445 0.02095 0.0
O58 O 0.86684 0.15869 0.02638 0.0
O59 O 0.77034 0.14521 0.02714 0.0
O60 O 0.864 0.2071 0.02381 0.0
O61 O 0.76435 0.20932 0.01774 0.0
O62 O 0.81307 0.12204 0.02609 0.0
O63 O 0.8072 0.23002 0.957 0.0
O64 O 0.86974 0.1549 0.96263 0.0
O65 O 0.77144 0.13498 0.9642 0.0
Sc66 Sc 0.36347 0.33263 0.46881 0.0
Sc67 Sc 0.28975 0.32282 0.4857 0.0
Sc68 Sc 0.33927 0.26432 0.49201 0.0
O69 O 0.33078 0.30658 0.48212 0.0
C70 C 0.38089 0.27285 0.43973 0.0
C71 C 0.3117 0.35281 0.42979 0.0
C72 C 0.27966 0.25963 0.45938 0.0
C73 C 0.32762 0.37613 0.50741 0.0
C74 C 0.39311 0.29742 0.51826 0.0
C75 C 0.29358 0.2825 0.53881 0.0
O76 O 0.38069 0.3004 0.44147 0.0
O77 O 0.29167 0.3446 0.44623 0.0
O78 O 0.30375 0.24929 0.4675 0.0
O79 O 0.35031 0.36836 0.49439 0.0
O80 O 0.37554 0.27608 0.51747 0.0
O81 O 0.28325 0.30403 0.52577 0.0
O82 O 0.3917 0.31891 0.50173 0.0
O83 O 0.30404 0.3617 0.50699 0.0
O84 O 0.31297 0.26587 0.52882 0.0
O85 O 0.33851 0.34918 0.43491 0.0
O86 O 0.36726 0.2567 0.4567 0.0
O87 O 0.27123 0.28541 0.46492 0.0
C88 C 0.17604 0.01421 0.19116 0.0
C89 C 0.16613 0.00046 0.16696 0.0
C90 C 0.14148 0.01147 0.15336 0.0
C91 C 0.13773 0.05027 0.1869 0.0
C92 C 0.16121 0.03888 0.20097 0.0
C93 C 0.16791 0.05603 0.22677 0.0
H94 H 0.14404 0.1767 0.30424 0.0
C95 C 0.12804 0.07673 0.20143 0.0
C96 C 0.14526 0.08008 0.22509 0.0
H97 H 0.20337 0.10622 0.32102 0.0
H98 H 0.18622 0.08033 0.2805 0.0
H99 H 0.15389 0.17873 0.2383 0.0
H100 H 0.09039 0.13632 0.28994 0.0
H101 H 0.07202 0.14727 0.25998 0.0
H102 H 0.0883 0.17442 0.28213 0.0
H103 H 0.12645 0.19807 0.25735 0.0
H104 H 0.11959 0.18398 0.22322 0.0
C105 C 0.19919 0.06811 0.22415 0.0
C106 C 0.16299 0.03604 0.25218 0.0
C107 C 0.05038 0.13995 0.15819 0.0
C108 C 0.0371 0.16613 0.16626 0.0
C109 C 0.04555 0.17954 0.19117 0.0
C110 C 0.06722 0.16709 0.20767 0.0
C111 C 0.08039 0.14088 0.19922 0.0
C112 C 0.07175 0.12773 0.17492 0.0
C113 C 0.08736 0.0996 0.16948 0.0
C114 C 0.10701 0.09803 0.19454 0.0
C115 C 0.10298 0.12232 0.21172 0.0
C116 C 0.10484 0.10314 0.14222 0.0
C117 C 0.06467 0.07457 0.16914 0.0
C118 C 0.15321 0.15565 0.29913 0.0
C119 C 0.17511 0.14343 0.31546 0.0
C120 C 0.18637 0.11585 0.30861 0.0
C121 C 0.17652 0.10101 0.28507 0.0
C122 C 0.15511 0.11389 0.26844 0.0
C123 C 0.14342 0.14048 0.27594 0.0
C124 C 0.12016 0.15044 0.25649 0.0
C125 C 0.12001 0.12561 0.23585 0.0
C126 C 0.14079 0.10445 0.2427 0.0
C127 C 0.13025 0.17942 0.24315 0.0
C128 C 0.09116 0.15248 0.27282 0.0
H129 H 0.10893 0.04371 0.1516 0.0
H130 H 0.1948 0.00596 0.20208 0.0
H131 H 0.14664 0.01881 0.24773 0.0
H132 H 0.15399 0.04795 0.27017 0.0
H133 H 0.18342 0.02502 0.25835 0.0
H134 H 0.20278 0.07761 0.20325 0.0
H135 H 0.21544 0.05055 0.22715 0.0
H136 H 0.20386 0.08576 0.23896 0.0
H137 H 0.04378 0.12876 0.13948 0.0
H138 H 0.03546 0.19969 0.19778 0.0
H139 H 0.07285 0.17834 0.22637 0.0
H140 H 0.11539 0.12493 0.14133 0.0
H141 H 0.0904 0.10116 0.12395 0.0
H142 H 0.12274 0.08738 0.14001 0.0
H143 H 0.04502 0.08019 0.18152 0.0
H144 H 0.07295 0.05438 0.17876 0.0
H145 H 0.05739 0.06969 0.14775 0.0
H146 H 0.13368 0.00133 0.13453 0.0
C147 C 0.12727 0.03623 0.16317 0.0
C148 C 0.34549 0.5704 0.63635 0.0
C149 C 0.36564 0.55645 0.61901 0.0
C150 C 0.39364 0.5684 0.6158 0.0
C151 C 0.38083 0.6082 0.64645 0.0
C152 C 0.3536 0.596 0.65 0.0
C153 C 0.33525 0.61275 0.67022 0.0
H154 H 0.32207 0.72479 0.75977 0.0
C155 C 0.38208 0.63505 0.66327 0.0
C156 C 0.35549 0.63774 0.6773 0.0
H157 H 0.26304 0.6529 0.74688 0.0
H158 H 0.29343 0.63479 0.70984 0.0
H159 H 0.3799 0.68727 0.75684 0.0
H160 H 0.33557 0.73735 0.69473 0.0
H161 H 0.3729 0.74072 0.68787 0.0
H162 H 0.35829 0.75432 0.72014 0.0
H163 H 0.37686 0.72624 0.75786 0.0
H164 H 0.40561 0.70869 0.739 0.0
C165 C 0.32899 0.59289 0.69554 0.0
C166 C 0.30775 0.62349 0.65497 0.0
C167 C 0.47166 0.69929 0.65993 0.0
C168 C 0.47794 0.72703 0.6706 0.0
C169 C 0.45722 0.74128 0.68722 0.0
C170 C 0.43057 0.72777 0.69336 0.0
C171 C 0.42454 0.69999 0.68237 0.0
C172 C 0.44487 0.6864 0.66572 0.0
C173 C 0.43398 0.65815 0.6539 0.0
C174 C 0.40382 0.65674 0.66648 0.0
C175 C 0.39857 0.68106 0.68342 0.0
C176 C 0.45373 0.63333 0.66457 0.0
C177 C 0.43308 0.66107 0.62196 0.0
C178 C 0.31551 0.70546 0.74854 0.0
C179 C 0.29026 0.69016 0.75605 0.0
C180 C 0.28254 0.66484 0.7414 0.0
C181 C 0.30028 0.65434 0.72006 0.0
C182 C 0.32621 0.66907 0.71364 0.0
C183 C 0.33329 0.69439 0.72753 0.0
C184 C 0.36229 0.70642 0.7187 0.0
C185 C 0.3719 0.68347 0.69802 0.0
C186 C 0.35056 0.66187 0.69498 0.0
C187 C 0.38235 0.70745 0.74434 0.0
C188 C 0.35725 0.73635 0.70478 0.0
H189 H 0.42288 0.60245 0.62593 0.0
H190 H 0.32402 0.56131 0.63956 0.0
H191 H 0.31349 0.6319 0.63408 0.0
H192 H 0.29683 0.64172 0.66567 0.0
H193 H 0.29187 0.60549 0.65224 0.0
H194 H 0.34543 0.57528 0.69751 0.0
H195 H 0.30737 0.58229 0.69389 0.0
H196 H 0.33024 0.60481 0.71541 0.0
H197 H 0.48685 0.68835 0.64625 0.0
H198 H 0.46156 0.7629 0.69517 0.0
H199 H 0.41555 0.73959 0.70613 0.0
H200 H 0.46053 0.6375 0.68628 0.0
H201 H 0.47373 0.6314 0.65177 0.0
H202 H 0.44262 0.61202 0.66519 0.0
H203 H 0.42688 0.68354 0.61579 0.0
H204 H 0.41663 0.64692 0.61225 0.0
H205 H 0.45465 0.65635 0.61262 0.0
H206 H 0.40944 0.5579 0.60246 0.0
C207 C 0.40132 0.59428 0.62933 0.0
C208 C 0.78634 0.81321 0.24933 0.0
C209 C 0.79987 0.78731 0.25765 0.0
C210 C 0.82645 0.77913 0.24549 0.0
C211 C 0.82684 0.82365 0.21876 0.0
C212 C 0.80031 0.83117 0.23015 0.0
C213 C 0.79038 0.86086 0.22119 0.0
H214 H 0.82058 0.98673 0.15473 0.0
C215 C 0.83685 0.84824 0.20166 0.0
C216 C 0.81573 0.87022 0.20317 0.0
H217 H 0.74071 0.9633 0.19617 0.0
H218 H 0.76085 0.916 0.20771 0.0
H219 H 0.86688 0.95581 0.19821 0.0
H220 H 0.82498 0.93014 0.12266 0.0
H221 H 0.85923 0.91354 0.12201 0.0
H222 H 0.85674 0.95277 0.12254 0.0
H223 H 0.87474 0.97179 0.16513 0.0
H224 H 0.89311 0.93942 0.17664 0.0
C225 C 0.78722 0.88026 0.24728 0.0
C226 C 0.76206 0.85727 0.20428 0.0
C227 C 0.93338 0.84149 0.15104 0.0
C228 C 0.9484 0.86089 0.13368 0.0
C229 C 0.93704 0.889 0.12935 0.0
C230 C 0.91083 0.89748 0.14168 0.0
C231 C 0.8957 0.87763 0.15847 0.0
C232 C 0.9071 0.85024 0.16306 0.0
C233 C 0.88798 0.83206 0.18146 0.0
C234 C 0.86283 0.85277 0.18643 0.0
C235 C 0.86756 0.87943 0.17308 0.0
C236 C 0.90494 0.82542 0.20842 0.0
C237 C 0.87842 0.80473 0.16502 0.0
C238 C 0.80779 0.97166 0.167 0.0
C239 C 0.77947 0.9788 0.1754 0.0
C240 C 0.7628 0.95826 0.19006 0.0
C241 C 0.77449 0.93087 0.19653 0.0
C242 C 0.80289 0.92395 0.18775 0.0
C243 C 0.81887 0.94416 0.17301 0.0
C244 C 0.84747 0.93234 0.16306 0.0
C245 C 0.84646 0.90184 0.17487 0.0
C246 C 0.8205 0.89714 0.18956 0.0
C247 C 0.872 0.95078 0.1762 0.0
C248 C 0.8474 0.93228 0.13094 0.0
H249 H 0.8604 0.78996 0.2177 0.0
H250 H 0.76613 0.8202 0.25879 0.0
H251 H 0.7618 0.83616 0.19296 0.0
H252 H 0.75978 0.87396 0.18799 0.0
H253 H 0.74262 0.85781 0.21795 0.0
H254 H 0.80553 0.87643 0.26177 0.0
H255 H 0.76669 0.87536 0.2585 0.0
H256 H 0.78786 0.90374 0.24268 0.0
H257 H 0.9415 0.8197 0.15462 0.0
H258 H 0.94848 0.90445 0.11635 0.0
H259 H 0.90329 0.9191 0.1375 0.0
H260 H 0.92131 0.84261 0.21291 0.0
H261 H 0.9167 0.80438 0.20688 0.0
H262 H 0.89078 0.82512 0.22695 0.0
H263 H 0.87323 0.81054 0.14325 0.0
H264 H 0.85845 0.7946 0.17328 0.0
H265 H 0.89595 0.78814 0.16453 0.0
H266 H 0.83713 0.75919 0.2517 0.0
C267 C 0.83994 0.7971 0.22592 0.0
C268 C 0.70111 0.30235 0.75263 0.0
C269 C 0.72642 0.31184 0.76587 0.0
C270 C 0.73927 0.33841 0.75816 0.0
C271 C 0.6987 0.348 0.72782 0.0
C272 C 0.68754 0.32076 0.73376 0.0
C273 C 0.65872 0.31542 0.7202 0.0
H274 H 0.54533 0.36843 0.64807 0.0
C275 C 0.67676 0.36381 0.71165 0.0
C276 C 0.65328 0.34488 0.7072 0.0
H277 H 0.56122 0.27929 0.67206 0.0
H278 H 0.60572 0.29383 0.69466 0.0
H279 H 0.56464 0.39848 0.70407 0.0
H280 H 0.61079 0.38114 0.62835 0.0
H281 H 0.61766 0.4174 0.63828 0.0
H282 H 0.58104 0.40624 0.6313 0.0
H283 H 0.56182 0.42228 0.67485 0.0
H284 H 0.58994 0.42687 0.7005 0.0
C285 C 0.63597 0.30826 0.74293 0.0
C286 C 0.66272 0.29116 0.69815 0.0
C287 C 0.69328 0.46964 0.68561 0.0
C288 C 0.675 0.4906 0.67378 0.0
C289 C 0.64565 0.48377 0.66882 0.0
C290 C 0.63492 0.4559 0.67422 0.0
C291 C 0.65372 0.43466 0.68474 0.0
C292 C 0.68203 0.44193 0.69132 0.0
C293 C 0.69792 0.41707 0.70464 0.0
C294 C 0.67497 0.39331 0.70332 0.0
C295 C 0.64938 0.40366 0.69117 0.0
C296 C 0.70536 0.4259 0.73483 0.0
C297 C 0.7247 0.40945 0.68659 0.0
C298 C 0.55813 0.35218 0.65873 0.0
C299 C 0.5498 0.32275 0.65856 0.0
C300 C 0.56734 0.30207 0.67196 0.0
C301 C 0.59316 0.31054 0.68492 0.0
C302 C 0.6016 0.33996 0.68427 0.0
C303 C 0.58416 0.36022 0.67139 0.0
C304 C 0.5974 0.39016 0.6713 0.0
C305 C 0.62599 0.38435 0.68578 0.0
C306 C 0.62813 0.35504 0.69352 0.0
C307 C 0.57747 0.41071 0.68836 0.0
C308 C 0.60192 0.39951 0.64079 0.0
H309 H 0.73553 0.37719 0.73469 0.0
H310 H 0.69107 0.28185 0.75831 0.0
H311 H 0.68567 0.28964 0.69095 0.0
H312 H 0.65013 0.29543 0.67911 0.0
H313 H 0.65655 0.26949 0.7065 0.0
H314 H 0.63868 0.32299 0.76103 0.0
H315 H 0.63841 0.28551 0.75033 0.0
H316 H 0.61336 0.3113 0.73607 0.0
H317 H 0.71586 0.47457 0.68978 0.0
H318 H 0.63136 0.49966 0.65945 0.0
H319 H 0.6126 0.45176 0.66931 0.0
H320 H 0.69128 0.44391 0.74244 0.0
H321 H 0.72824 0.43338 0.73659 0.0
H322 H 0.70159 0.40797 0.74969 0.0
H323 H 0.71875 0.40908 0.66431 0.0
H324 H 0.73357 0.38765 0.69113 0.0
H325 H 0.74225 0.42581 0.68933 0.0
H326 H 0.75884 0.34594 0.7683 0.0
C327 C 0.72549 0.35662 0.73906 0.0
C328 C 0.66313 0.4261 0.33567 0.0
C329 C 0.65048 0.435 0.36081 0.0
C330 C 0.63089 0.4161 0.37435 0.0
C331 C 0.63657 0.38045 0.33779 0.0
C332 C 0.65585 0.3989 0.32458 0.0
C333 C 0.66693 0.38637 0.29781 0.0
H334 H 0.66797 0.27588 0.20535 0.0
C335 C 0.63334 0.35407 0.32058 0.0
C336 C 0.65105 0.35741 0.29714 0.0
H337 H 0.71565 0.35692 0.20171 0.0
H338 H 0.69406 0.37216 0.24496 0.0
H339 H 0.67737 0.264 0.2712 0.0
H340 H 0.60856 0.30381 0.22452 0.0
H341 H 0.59203 0.28422 0.25144 0.0
H342 H 0.6132 0.26506 0.22573 0.0
H343 H 0.65401 0.24388 0.24845 0.0
H344 H 0.64401 0.25075 0.28392 0.0
C345 C 0.70024 0.38238 0.30034 0.0
C346 C 0.65733 0.40673 0.27398 0.0
C347 C 0.56358 0.2746 0.35027 0.0
C348 C 0.55405 0.24864 0.3378 0.0
C349 C 0.56681 0.23973 0.31266 0.0
C350 C 0.5885 0.2567 0.30001 0.0
C351 C 0.5972 0.28303 0.31248 0.0
C352 C 0.58487 0.29141 0.33731 0.0
C353 C 0.59553 0.32059 0.34704 0.0
C354 C 0.61635 0.32851 0.32391 0.0
C355 C 0.61732 0.30645 0.30379 0.0
C356 C 0.61145 0.31618 0.3749 0.0
C357 C 0.56922 0.34164 0.34847 0.0
C358 C 0.6739 0.2968 0.21404 0.0
C359 C 0.69362 0.3152 0.20033 0.0
C360 C 0.70037 0.3425 0.21192 0.0
C361 C 0.68792 0.35121 0.23707 0.0
C362 C 0.6684 0.33247 0.25067 0.0
C363 C 0.66156 0.30585 0.23905 0.0
C364 C 0.6399 0.28907 0.25607 0.0
C365 C 0.63528 0.30978 0.28011 0.0
C366 C 0.65201 0.33513 0.27682 0.0
C367 C 0.65431 0.26026 0.26536 0.0
C368 C 0.61195 0.28503 0.23866 0.0
H369 H 0.60876 0.37566 0.37428 0.0
H370 H 0.67845 0.43994 0.32484 0.0
H371 H 0.63582 0.41672 0.27853 0.0
H372 H 0.65422 0.39512 0.25419 0.0
H373 H 0.67315 0.42471 0.27086 0.0
H374 H 0.70624 0.37554 0.32164 0.0
H375 H 0.71191 0.40301 0.29581 0.0
H376 H 0.70884 0.36503 0.28677 0.0
H377 H 0.55359 0.28258 0.36915 0.0
H378 H 0.55966 0.2199 0.30261 0.0
H379 H 0.59724 0.24897 0.28075 0.0
H380 H 0.6238 0.29536 0.37486 0.0
H381 H 0.59579 0.31538 0.39242 0.0
H382 H 0.62787 0.33315 0.37906 0.0
H383 H 0.55306 0.33645 0.33212 0.0
H384 H 0.57525 0.36456 0.34463 0.0
H385 H 0.55792 0.34009 0.36877 0.0
H386 H 0.62045 0.42257 0.39351 0.0
C387 C 0.62394 0.38891 0.36304 0.0
C388 C 0.19866 0.22212 0.73702 0.0
C389 C 0.22609 0.21902 0.72453 0.0
C390 C 0.24384 0.19536 0.73199 0.0
C391 C 0.2051 0.17595 0.7604 0.0
C392 C 0.18862 0.20037 0.75488 0.0
C393 C 0.15912 0.19901 0.76828 0.0
H394 H 0.06126 0.1232 0.84425 0.0
C395 C 0.18688 0.15545 0.77619 0.0
C396 C 0.15996 0.16889 0.78107 0.0
H397 H 0.05448 0.21178 0.81517 0.0
H398 H 0.10102 0.20741 0.79205 0.0
H399 H 0.08333 0.09719 0.78894 0.0
H400 H 0.12964 0.12507 0.86121 0.0
H401 H 0.14264 0.09052 0.85104 0.0
H402 H 0.105 0.09474 0.86 0.0
H403 H 0.08927 0.07297 0.81737 0.0
H404 H 0.11511 0.07609 0.78928 0.0
C405 C 0.13572 0.20124 0.7454 0.0
C406 C 0.15749 0.22332 0.7905 0.0
C407 C 0.22414 0.05349 0.79656 0.0
C408 C 0.21047 0.02879 0.80766 0.0
C409 C 0.18102 0.03025 0.81554 0.0
C410 C 0.16543 0.05616 0.81303 0.0
C411 C 0.17937 0.08089 0.80238 0.0
C412 C 0.20799 0.07918 0.79369 0.0
C413 C 0.2183 0.1072 0.78095 0.0
C414 C 0.1914 0.1261 0.78419 0.0
C415 C 0.16891 0.11066 0.79717 0.0
C416 C 0.22578 0.10106 0.75017 0.0
C417 C 0.244 0.11891 0.79832 0.0
C418 C 0.06993 0.14162 0.83292 0.0
C419 C 0.05454 0.16795 0.8317 0.0
C420 C 0.06606 0.19131 0.81632 0.0
C421 C 0.09314 0.18878 0.80316 0.0
C422 C 0.10869 0.16253 0.80522 0.0
C423 C 0.0968 0.13937 0.81955 0.0
C424 C 0.11606 0.11297 0.81912 0.0
C425 C 0.14217 0.1246 0.80336 0.0
C426 C 0.13771 0.15357 0.79527 0.0
C427 C 0.10023 0.08839 0.80304 0.0
C428 C 0.12375 0.10514 0.84937 0.0
H429 H 0.24758 0.15576 0.75401 0.0
H430 H 0.18476 0.24031 0.73184 0.0
H431 H 0.17922 0.22767 0.79964 0.0
H432 H 0.14364 0.21734 0.80832 0.0
H433 H 0.14954 0.24406 0.78149 0.0
H434 H 0.14236 0.18859 0.72678 0.0
H435 H 0.13247 0.2242 0.73895 0.0
H436 H 0.11456 0.19203 0.75168 0.0
H437 H 0.24677 0.05279 0.79037 0.0
H438 H 0.17031 0.01149 0.82456 0.0
H439 H 0.14327 0.05601 0.81987 0.0
H440 H 0.21154 0.08373 0.7415 0.0
H441 H 0.24862 0.09368 0.74778 0.0
H442 H 0.22211 0.11999 0.7366 0.0
H443 H 0.24027 0.11485 0.82075 0.0
H444 H 0.24678 0.14273 0.79658 0.0
H445 H 0.26467 0.10806 0.79242 0.0
H446 H 0.26502 0.19247 0.72253 0.0
C447 C 0.2335 0.17383 0.74993 0.0
C448 C 0.27788 0.67387 0.2138 0.0
C449 C 0.28542 0.70039 0.20129 0.0
C450 C 0.30785 0.7174 0.21269 0.0
C451 C 0.31728 0.67978 0.2464 0.0
C452 C 0.29402 0.66403 0.23632 0.0
C453 C 0.28998 0.63556 0.25111 0.0
H454 H 0.34057 0.5375 0.34301 0.0
C455 C 0.33161 0.66204 0.26767 0.0
C456 C 0.31558 0.63621 0.27074 0.0
H457 H 0.26123 0.53285 0.29562 0.0
H458 H 0.27194 0.57971 0.27509 0.0
H459 H 0.37974 0.55988 0.29597 0.0
H460 H 0.33436 0.60589 0.36032 0.0
H461 H 0.36964 0.62053 0.358 0.0
H462 H 0.36499 0.58262 0.36637 0.0
H463 H 0.39423 0.56283 0.33023 0.0
H464 H 0.40172 0.58987 0.30405 0.0
C465 C 0.29262 0.61062 0.22962 0.0
C466 C 0.26053 0.63652 0.26674 0.0
C467 C 0.42789 0.69548 0.30788 0.0
C468 C 0.44786 0.68181 0.32542 0.0
C469 C 0.44145 0.65402 0.33613 0.0
C470 C 0.41552 0.63991 0.32944 0.0
C471 C 0.3958 0.65362 0.31167 0.0
C472 C 0.40216 0.68085 0.30106 0.0
C473 C 0.37923 0.69128 0.2814 0.0
C474 C 0.35796 0.66598 0.2823 0.0
C475 C 0.36774 0.64413 0.30018 0.0
C476 C 0.39358 0.69482 0.25251 0.0
C477 C 0.36573 0.71953 0.29335 0.0
C478 C 0.32529 0.54673 0.32846 0.0
C479 C 0.29988 0.53167 0.32108 0.0
C480 C 0.28097 0.54407 0.30154 0.0
C481 C 0.28717 0.57131 0.2898 0.0
C482 C 0.31265 0.58614 0.29754 0.0
C483 C 0.33116 0.57378 0.3166 0.0
C484 C 0.3573 0.59242 0.32232 0.0
C485 C 0.35116 0.61838 0.30396 0.0
C486 C 0.32512 0.61451 0.28941 0.0
C487 C 0.3848 0.5755 0.3129 0.0
C488 C 0.35687 0.60078 0.35339 0.0
H489 H 0.34116 0.72078 0.24257 0.0
H490 H 0.26037 0.66064 0.20564 0.0
H491 H 0.25507 0.65909 0.27331 0.0
H492 H 0.26081 0.62386 0.28617 0.0
H493 H 0.24254 0.62857 0.25346 0.0
H494 H 0.31033 0.61528 0.21454 0.0
H495 H 0.27213 0.608 0.2178 0.0
H496 H 0.29833 0.58949 0.23893 0.0
H497 H 0.4324 0.71682 0.29935 0.0
H498 H 0.45642 0.64336 0.35008 0.0
H499 H 0.41188 0.61885 0.33835 0.0
H500 H 0.41028 0.67771 0.24892 0.0
H501 H 0.40452 0.71629 0.2506 0.0
H502 H 0.3782 0.69218 0.23526 0.0
H503 H 0.36481 0.71874 0.31634 0.0
H504 H 0.34296 0.72277 0.28687 0.0
H505 H 0.37873 0.73895 0.28743 0.0
H506 H 0.31397 0.73793 0.2033 0.0
C507 C 0.32379 0.70726 0.23526 0.0
C508 C 0.75594 0.9136 0.84653 0.0
C509 C 0.76447 0.92537 0.87212 0.0
C510 C 0.78603 0.91093 0.88758 0.0
C511 C 0.79352 0.87682 0.85018 0.0
C512 C 0.77071 0.88931 0.836 0.0
C513 C 0.76608 0.87525 0.80822 0.0
H514 H 0.81738 0.78806 0.70666 0.0
C515 C 0.80719 0.85494 0.83204 0.0
C516 C 0.79092 0.85347 0.8076 0.0
H517 H 0.73725 0.83703 0.70785 0.0
H518 H 0.7466 0.85213 0.75489 0.0
H519 H 0.85588 0.83633 0.73652 0.0
H520 H 0.81023 0.76123 0.76729 0.0
H521 H 0.84319 0.76313 0.78539 0.0
H522 H 0.84368 0.75831 0.74831 0.0
H523 H 0.86816 0.79982 0.73038 0.0
H524 H 0.87853 0.81975 0.76092 0.0
C525 C 0.76955 0.89897 0.78569 0.0
C526 C 0.73602 0.86 0.80846 0.0
C527 C 0.90651 0.81535 0.85688 0.0
C528 C 0.92674 0.79821 0.84234 0.0
C529 C 0.91857 0.78562 0.81693 0.0
C530 C 0.89107 0.79097 0.8057 0.0
C531 C 0.87167 0.8094 0.81984 0.0
C532 C 0.87928 0.82069 0.84528 0.0
C533 C 0.85629 0.8404 0.85706 0.0
C534 C 0.83369 0.83933 0.8343 0.0
C535 C 0.84298 0.8214 0.81248 0.0
C536 C 0.86984 0.87115 0.8603 0.0
C537 C 0.84485 0.82687 0.88438 0.0
C538 C 0.80198 0.80223 0.71703 0.0
C539 C 0.77675 0.81169 0.70356 0.0
C540 C 0.75684 0.82951 0.7179 0.0
C541 C 0.76235 0.8383 0.74513 0.0
C542 C 0.78805 0.82925 0.75809 0.0
C543 C 0.80709 0.81109 0.74422 0.0
C544 C 0.83297 0.80313 0.76142 0.0
C545 C 0.82627 0.81941 0.78798 0.0
C546 C 0.80019 0.83504 0.78573 0.0
C547 C 0.86047 0.8151 0.74666 0.0
C548 C 0.83283 0.76971 0.76579 0.0
H549 H 0.8173 0.8773 0.88915 0.0
H550 H 0.73908 0.92389 0.83442 0.0
H551 H 0.72939 0.85368 0.82979 0.0
H552 H 0.7361 0.83932 0.79669 0.0
H553 H 0.71885 0.87448 0.80013 0.0
H554 H 0.78865 0.91304 0.79017 0.0
H555 H 0.75004 0.91315 0.78486 0.0
H556 H 0.77345 0.89004 0.76484 0.0
H557 H 0.91224 0.82561 0.8763 0.0
H558 H 0.93366 0.77201 0.80555 0.0
H559 H 0.88631 0.78116 0.78608 0.0
H560 H 0.88359 0.87659 0.84204 0.0
H561 H 0.88381 0.87231 0.87896 0.0
H562 H 0.85368 0.88875 0.86153 0.0
H563 H 0.84712 0.80275 0.8843 0.0
H564 H 0.82134 0.83071 0.88755 0.0
H565 H 0.85699 0.8353 0.90253 0.0
H566 H 0.79321 0.91953 0.90728 0.0
C567 C 0.80039 0.88662 0.87684 0.0
C568 C 0.22813 0.88136 0.06155 0.0
C569 C 0.21498 0.89308 0.03793 0.0
C570 C 0.22766 0.89663 0.08678 0.0
C571 C 0.21386 0.92413 0.08811 0.0
C572 C 0.20316 0.93712 0.06362 0.0
C573 C 0.20376 0.92136 0.03887 0.0
C574 C 0.2397 0.88222 0.11229 0.0
C575 C 0.18868 0.96663 0.06393 0.0
C576 C 0.16652 0.9512 0.14586 0.0
C577 C 0.18197 0.97594 0.15417 0.0
C578 C 0.17828 0.93187 0.12644 0.0
C579 C 0.20612 0.93762 0.11508 0.0
C580 C 0.22319 0.96054 0.12601 0.0
C581 C 0.21083 0.97959 0.14552 0.0
C582 C 0.15948 0.90737 0.11575 0.0
C583 C 0.25321 0.96689 0.11497 0.0
H584 H 0.23681 0.85943 0.06087 0.0
H585 H 0.19396 0.93057 0.02049 0.0
H586 H 0.24977 0.89839 0.12638 0.0
H587 H 0.22176 0.87141 0.12373 0.0
H588 H 0.25608 0.86538 0.10688 0.0
H589 H 0.18416 0.97477 0.04275 0.0
H590 H 0.16778 0.96522 0.07539 0.0
H591 H 0.20252 0.98279 0.07472 0.0
H592 H 0.14432 0.94826 0.15291 0.0
H593 H 0.22281 -0.00127 0.15205 0.0
H594 H 0.17221 0.88699 0.11383 0.0
H595 H 0.15135 0.91303 0.09484 0.0
H596 H 0.14045 0.90324 0.1294 0.0
H597 H 0.26518 0.94646 0.11048 0.0
H598 H 0.26603 0.98019 0.12977 0.0
H599 H 0.2514 0.97923 0.09533 0.0
C600 C 0.57264 0.72616 0.55601 0.0
C601 C 0.60003 0.73866 0.55197 0.0
C602 C 0.55586 0.73298 0.5792 0.0
C603 C 0.56684 0.75278 0.59912 0.0
C604 C 0.59383 0.76686 0.59439 0.0
C605 C 0.61019 0.75965 0.57067 0.0
C606 C 0.52697 0.71767 0.58297 0.0
C607 C 0.60634 0.78817 0.61491 0.0
C608 C 0.50301 0.7665 0.64473 0.0
C609 C 0.50484 0.74163 0.66135 0.0
C610 C 0.52596 0.7739 0.62684 0.0
C611 C 0.55076 0.75575 0.62566 0.0
C612 C 0.55457 0.7339 0.64594 0.0
C613 C 0.53133 0.72689 0.66348 0.0
C614 C 0.52176 0.79829 0.60643 0.0
C615 C 0.58122 0.71483 0.64619 0.0
H616 H 0.5646 0.7103 0.54125 0.0
H617 H 0.63145 0.76931 0.56752 0.0
H618 H 0.52777 0.7034 0.60145 0.0
H619 H 0.50941 0.7338 0.58634 0.0
H620 H 0.52111 0.70404 0.56482 0.0
H621 H 0.62068 0.80424 0.60443 0.0
H622 H 0.5891 0.80002 0.62639 0.0
H623 H 0.61972 0.77615 0.63012 0.0
H624 H 0.48259 0.77814 0.64335 0.0
H625 H 0.53282 0.70798 0.67681 0.0
H626 H 0.51331 0.78922 0.58675 0.0
H627 H 0.54267 0.80939 0.60188 0.0
H628 H 0.50589 0.81456 0.61427 0.0
H629 H 0.57951 0.69837 0.62944 0.0
H630 H 0.58354 0.70318 0.66619 0.0
H631 H 0.6011 0.72791 0.64237 0.0
C632 C 0.75676 0.11626 0.07828 0.0
C633 C 0.77923 0.10798 0.0602 0.0
C634 C 0.74935 0.09888 0.10121 0.0
C635 C 0.76472 0.07268 0.1059 0.0
C636 C 0.78693 0.06398 0.08728 0.0
C637 C 0.79393 0.08175 0.06482 0.0
C638 C 0.72581 0.10904 0.12074 0.0
C639 C 0.80373 0.036 0.09123 0.0
C640 C 0.7817 0.03247 0.1707 0.0
C641 C 0.76699 0.00637 0.16548 0.0
C642 C 0.77766 0.05667 0.15357 0.0
C643 C 0.75897 0.05422 0.1305 0.0
C644 C 0.74094 0.02939 0.12774 0.0
C645 C 0.74517 0.00558 0.14542 0.0
C646 C 0.79657 0.08314 0.15779 0.0
C647 C 0.72031 0.02617 0.10377 0.0
H648 H 0.74539 0.13658 0.07486 0.0
H649 H 0.81104 0.07497 0.05076 0.0
H650 H 0.71183 0.09064 0.12742 0.0
H651 H 0.73595 0.1184 0.13954 0.0
H652 H 0.71194 0.12604 0.11121 0.0
H653 H 0.81959 0.032 0.07427 0.0
H654 H 0.81579 0.03677 0.11105 0.0
H655 H 0.7886 0.01721 0.09223 0.0
H656 H 0.79839 0.03303 0.18648 0.0
H657 H 0.73377 0.98533 0.14148 0.0
H658 H 0.78452 0.10337 0.15293 0.0
H659 H 0.81558 0.0819 0.14363 0.0
H660 H 0.80474 0.08447 0.17935 0.0
H661 H 0.70945 0.04711 0.09905 0.0
H662 H 0.70348 0.00938 0.10798 0.0
H663 H 0.73272 0.01943 0.0851 0.0
C664 C 0.41345 0.27936 0.56299 0.0
C665 C 0.41572 0.29772 0.53988 0.0
C666 C 0.43405 0.28049 0.58426 0.0
C667 C 0.45755 0.30022 0.58217 0.0
C668 C 0.46028 0.31839 0.55868 0.0
C669 C 0.43925 0.31702 0.53788 0.0
C670 C 0.4304 0.26101 0.60917 0.0
C671 C 0.48526 0.33953 0.55563 0.0
C672 C 0.49826 0.32918 0.64411 0.0
C673 C 0.52434 0.31363 0.6422 0.0
C674 C 0.4755 0.32377 0.62565 0.0
C675 C 0.47917 0.30253 0.60469 0.0
C676 C 0.50484 0.28565 0.60366 0.0
C677 C 0.52715 0.29136 0.62255 0.0
C678 C 0.44823 0.34191 0.62762 0.0
C679 C 0.50956 0.26293 0.58149 0.0
H680 H 0.39523 0.26451 0.56477 0.0
H681 H 0.44125 0.33113 0.52002 0.0
H682 H 0.45014 0.24755 0.61209 0.0
H683 H 0.42771 0.27449 0.62807 0.0
H684 H 0.41131 0.24633 0.60728 0.0
H685 H 0.48467 0.35145 0.53566 0.0
H686 H 0.48469 0.35565 0.57273 0.0
H687 H 0.50623 0.32776 0.55704 0.0
H688 H 0.49604 0.34622 0.65952 0.0
H689 H 0.54744 0.27951 0.62092 0.0
H690 H 0.42868 0.3278 0.62679 0.0
H691 H 0.4472 0.35696 0.60971 0.0
H692 H 0.44743 0.35502 0.64693 0.0
H693 H 0.49045 0.24829 0.58001 0.0
H694 H 0.5292 0.24954 0.58541 0.0
H695 H 0.51215 0.2738 0.56114 0.0
C696 C 0.64238 0.58992 0.43041 0.0
C697 C 0.66916 0.60264 0.43729 0.0
C698 C 0.64103 0.56346 0.41608 0.0
C699 C 0.66708 0.54934 0.40825 0.0
C700 C 0.69418 0.56259 0.41398 0.0
C701 C 0.69492 0.5891 0.42848 0.0
C702 C 0.61168 0.55004 0.4103 0.0
C703 C 0.72239 0.54825 0.40566 0.0
C704 C 0.66085 0.46744 0.40124 0.0
C705 C 0.65705 0.4641 0.37265 0.0
C706 C 0.66508 0.49503 0.41298 0.0
C707 C 0.66574 0.51986 0.39568 0.0
C708 C 0.663 0.51656 0.36671 0.0
C709 C 0.65857 0.48871 0.35553 0.0
C710 C 0.66789 0.49768 0.44401 0.0
C711 C 0.6637 0.54254 0.34762 0.0
H712 H 0.6223 0.60024 0.43687 0.0
H713 H 0.71572 0.59877 0.43354 0.0
H714 H 0.60962 0.54483 0.38798 0.0
H715 H 0.60947 0.5293 0.42187 0.0
H716 H 0.59347 0.56459 0.41636 0.0
H717 H 0.74146 0.56254 0.40943 0.0
H718 H 0.72526 0.52784 0.41757 0.0
H719 H 0.72195 0.54227 0.38342 0.0
H720 H 0.66025 0.44846 0.41452 0.0
H721 H 0.65537 0.48634 0.33344 0.0
H722 H 0.64928 0.51026 0.45243 0.0
H723 H 0.68798 0.50975 0.44936 0.0
H724 H 0.66842 0.47612 0.45439 0.0
H725 H 0.64426 0.55627 0.35134 0.0
H726 H 0.66406 0.53605 0.32547 0.0
H727 H 0.68307 0.5562 0.3519 0.0
C728 C 0.90647 0.15435 0.9157 0.0
C729 C 0.90016 0.17958 0.93092 0.0
C730 C 0.92999 0.15356 0.8972 0.0
C731 C 0.9479 0.17844 0.89426 0.0
C732 C 0.94102 0.20431 0.9088 0.0
C733 C 0.91705 0.20464 0.9268 0.0
C734 C 0.93634 0.12574 0.88165 0.0
C735 C 0.95985 0.23114 0.90646 0.0
C736 C 0.02647 0.16378 0.87556 0.0
C737 C 0.02722 0.17131 0.84751 0.0
C738 C 0.00086 0.16645 0.89105 0.0
C739 C 0.97527 0.1765 0.87803 0.0
C740 C 0.9759 0.18421 0.84968 0.0
C741 C 0.00203 0.18176 0.83476 0.0
C742 C 0.00119 0.15845 0.92136 0.0
C743 C 0.94891 0.19457 0.83507 0.0
H744 H 0.89326 0.13502 0.91853 0.0
H745 H 0.91233 0.2242 0.93856 0.0
H746 H 0.93954 0.13032 0.85931 0.0
H747 H 0.95678 0.11602 0.88945 0.0
H748 H 0.91864 0.10946 0.88397 0.0
H749 H 0.95023 0.25016 0.91735 0.0
H750 H 0.9815 0.22665 0.91551 0.0
H751 H 0.96332 0.23695 0.88444 0.0
H752 H 0.0461 0.15604 0.88546 0.0
H753 H 0.00266 0.18742 0.813 0.0
H754 H 0.98596 0.14016 0.92524 0.0
H755 H 0.9937 0.17717 0.93404 0.0
H756 H 0.02314 0.15193 0.92851 0.0
H757 H 0.9319 0.17746 0.83602 0.0
H758 H 0.95313 0.2 0.81302 0.0
H759 H 0.94005 0.21412 0.8456 0.0
C760 C 0.32577 0.38129 0.3879 0.0
C761 C 0.3039 0.37115 0.40575 0.0
C762 C 0.32061 0.40449 0.36984 0.0
C763 C 0.29284 0.41766 0.36946 0.0
C764 C 0.26979 0.40527 0.38489 0.0
C765 C 0.27559 0.38213 0.40297 0.0
C766 C 0.34574 0.41683 0.35342 0.0
C767 C 0.23967 0.41818 0.38438 0.0
C768 C 0.2982 0.49922 0.36222 0.0
C769 C 0.29366 0.50304 0.33383 0.0
C770 C 0.29651 0.47162 0.37425 0.0
C771 C 0.28981 0.44722 0.3575 0.0
C772 C 0.28321 0.45117 0.32918 0.0
C773 C 0.28534 0.47913 0.31759 0.0
C774 C 0.30352 0.46843 0.40462 0.0
C775 C 0.27548 0.42577 0.3108 0.0
H776 H 0.34757 0.37254 0.38939 0.0
H777 H 0.25836 0.37412 0.41629 0.0
H778 H 0.3391 0.42153 0.33187 0.0
H779 H 0.3528 0.43767 0.36292 0.0
H780 H 0.36463 0.4018 0.35293 0.0
H781 H 0.22314 0.40263 0.39234 0.0
H782 H 0.23916 0.43794 0.3976 0.0
H783 H 0.23362 0.42481 0.36311 0.0
H784 H 0.30396 0.5178 0.37492 0.0
H785 H 0.28181 0.48203 0.29561 0.0
H786 H 0.32365 0.45541 0.40703 0.0
H787 H 0.28578 0.45664 0.41545 0.0
H788 H 0.30676 0.48978 0.41499 0.0
H789 H 0.29551 0.41363 0.30534 0.0
H790 H 0.26503 0.43303 0.29131 0.0
H791 H 0.26066 0.41045 0.32162 0.0
C792 C 0.07742 0.83424 0.90939 0.0
C793 C 0.09498 0.81019 0.91553 0.0
C794 C 0.05153 0.83082 0.89456 0.0
C795 C 0.04313 0.80273 0.88553 0.0
C796 C 0.06167 0.7787 0.89003 0.0
C797 C 0.08738 0.78271 0.90502 0.0
C798 C 0.03233 0.85701 0.89 0.0
C799 C 0.0536 0.74849 0.88039 0.0
C800 C 0.96187 0.79131 0.88104 0.0
C801 C 0.95683 0.79554 0.85277 0.0
C802 C 0.99004 0.79262 0.8918 0.0
C803 C 0.01374 0.7982 0.8738 0.0
C804 C 0.00897 0.80111 0.84505 0.0
C805 C 0.98051 0.7998 0.83486 0.0
C806 C 0.9943 0.78921 0.9226 0.0
C807 C 0.03375 0.8069 0.82525 0.0
H808 H 0.08313 0.85558 0.91727 0.0
H809 H 0.10098 0.76402 0.90935 0.0
H810 H 0.02592 0.85852 0.86796 0.0
H811 H 0.01211 0.85466 0.90238 0.0
H812 H 0.04316 0.87767 0.89607 0.0
H813 H 0.07193 0.73293 0.88241 0.0
H814 H 0.03507 0.74029 0.8929 0.0
H815 H 0.04651 0.74889 0.85849 0.0
H816 H 0.94364 0.78761 0.89487 0.0
H817 H 0.9767 0.8034 0.81301 0.0
H818 H 0.00276 0.80983 0.93144 0.0
H819 H 0.01061 0.77203 0.92679 0.0
H820 H 0.9738 0.78349 0.93352 0.0
H821 H 0.04266 0.82898 0.82907 0.0
H822 H 0.02682 0.80553 0.8033 0.0
H823 H 0.05162 0.79114 0.82866 0.0
C824 C 0.75137 0.0885 0.93101 0.0
C825 C 0.78091 0.09298 0.93695 0.0
C826 C 0.74202 0.06311 0.91745 0.0
C827 C 0.76267 0.04169 0.90998 0.0
C828 C 0.79261 0.04691 0.91444 0.0
C829 C 0.80135 0.07252 0.9277 0.0
C830 C 0.70998 0.05861 0.91248 0.0
C831 C 0.81543 0.0247 0.90659 0.0
C832 C 0.75036 0.96081 0.90908 0.0
C833 C 0.7547 0.95471 0.88096 0.0
C834 C 0.74986 0.98958 0.9187 0.0
C835 C 0.75348 0.01269 0.89964 0.0
C836 C 0.75406 0.00675 0.87093 0.0
C837 C 0.75485 0.97774 0.86189 0.0
C838 C 0.74874 0.99502 0.9495 0.0
C839 C 0.757 0.03084 0.84991 0.0
H840 H 0.73538 0.10426 0.93787 0.0
H841 H 0.82424 0.07588 0.93183 0.0
H842 H 0.70611 0.04852 0.89196 0.0
H843 H 0.70112 0.04364 0.9284 0.0
H844 H 0.69776 0.07941 0.91372 0.0
H845 H 0.83785 0.03268 0.91041 0.0
H846 H 0.81205 0.00448 0.91874 0.0
H847 H 0.81352 0.0189 0.8844 0.0
H848 H 0.74948 0.94305 0.92381 0.0
H849 H 0.75812 0.97327 0.84008 0.0
H850 H 0.73373 0.01317 0.95441 0.0
H851 H 0.77068 0.00136 0.95684 0.0
H852 H 0.74168 0.97539 0.96113 0.0
H853 H 0.74349 0.04987 0.85577 0.0
H854 H 0.75064 0.02343 0.8289 0.0
H855 H 0.77996 0.03818 0.84906 0.0
C856 C 0.41743 0.2777 0.40197 0.0
C857 C 0.40048 0.25953 0.41885 0.0
C858 C 0.44026 0.26658 0.38609 0.0
C859 C 0.44591 0.23626 0.38637 0.0
C860 C 0.42707 0.21737 0.40107 0.0
C861 C 0.40472 0.22927 0.41748 0.0
C862 C 0.45968 0.28774 0.3707 0.0
C863 C 0.43129 0.18482 0.40091 0.0
C864 C 0.50431 0.22727 0.33332 0.0
C865 C 0.52856 0.23344 0.34982 0.0
C866 C 0.47687 0.22304 0.34548 0.0
C867 C 0.47385 0.2259 0.37449 0.0
C868 C 0.49898 0.22731 0.39122 0.0
C869 C 0.52617 0.23082 0.37861 0.0
C870 C 0.45073 0.21927 0.32712 0.0
C871 C 0.49688 0.22945 0.42233 0.0
H872 H 0.41402 0.30104 0.40234 0.0
H873 H 0.39142 0.21493 0.43003 0.0
H874 H 0.4821 0.28666 0.37901 0.0
H875 H 0.46073 0.28192 0.34846 0.0
H876 H 0.45199 0.31058 0.37242 0.0
H877 H 0.41002 0.17345 0.40231 0.0
H878 H 0.44286 0.17723 0.38207 0.0
H879 H 0.44416 0.17842 0.41928 0.0
H880 H 0.5061 0.22865 0.31099 0.0
H881 H 0.54515 0.23455 0.39136 0.0
H882 H 0.44085 0.24084 0.32302 0.0
H883 H 0.43405 0.2054 0.33727 0.0
H884 H 0.45687 0.2094 0.30694 0.0
H885 H 0.48822 0.25116 0.42815 0.0
H886 H 0.51836 0.22661 0.43239 0.0
H887 H 0.48173 0.21278 0.43055 0.0
C888 C 0.24212 0.88655 0.89283 0.0
C889 C 0.21712 0.89158 0.90885 0.0
C890 C 0.25013 0.90589 0.87153 0.0
C891 C 0.23277 0.93074 0.86646 0.0
C892 C 0.20782 0.93604 0.88298 0.0
C893 C 0.20031 0.91638 0.90376 0.0
C894 C 0.27653 0.89914 0.85411 0.0
C895 C 0.18869 0.96244 0.87869 0.0
C896 C 0.24739 0.0031 0.83548 0.0
C897 C 0.22684 0.00219 0.81424 0.0
C898 C 0.25393 0.97786 0.8505 0.0
C899 C 0.23945 0.95156 0.84386 0.0
C900 C 0.22316 0.94967 0.81916 0.0
C901 C 0.21663 0.97527 0.80476 0.0
C902 C 0.2723 0.98053 0.87613 0.0
C903 C 0.20863 0.92167 0.81057 0.0
H904 H 0.25512 0.86731 0.89662 0.0
H905 H 0.18119 0.92067 0.91628 0.0
H906 H 0.26952 0.88782 0.83498 0.0
H907 H 0.28821 0.91924 0.84787 0.0
H908 H 0.29185 0.88463 0.8652 0.0
H909 H 0.17079 0.96378 0.89411 0.0
H910 H 0.20177 0.98267 0.88016 0.0
H911 H 0.1789 0.96171 0.85776 0.0
H912 H 0.2555 0.02398 0.84258 0.0
H913 H 0.2011 0.97463 0.78795 0.0
H914 H 0.28511 0.96045 0.87964 0.0
H915 H 0.25791 0.98382 0.89435 0.0
H916 H 0.28736 -0.00059 0.87475 0.0
H917 H 0.22286 0.90273 0.81476 0.0
H918 H 0.20296 0.92188 0.78825 0.0
H919 H 0.18829 0.91882 0.82268 0.0
C920 C 0.59141 0.73552 0.40373 0.0
C921 C 0.58652 0.71912 0.42775 0.0
C922 C 0.57043 0.73647 0.38267 0.0
C923 C 0.54417 0.72075 0.386 0.0
C924 C 0.53853 0.70574 0.41102 0.0
C925 C 0.55979 0.70508 0.43149 0.0
C926 C 0.57711 0.7529 0.3564 0.0
C927 C 0.51062 0.68899 0.41569 0.0
C928 C 0.47393 0.72361 0.347 0.0
C929 C 0.47495 0.69646 0.33382 0.0
C930 C 0.49811 0.73407 0.36157 0.0
C931 C 0.52354 0.71683 0.36282 0.0
C932 C 0.52574 0.69131 0.34649 0.0
C933 C 0.50126 0.68132 0.33228 0.0
C934 C 0.49523 0.76175 0.37816 0.0
C935 C 0.55268 0.67261 0.34675 0.0
H936 H 0.61206 0.7465 0.40085 0.0
H937 H 0.55569 0.6929 0.45031 0.0
H938 H 0.58506 0.73741 0.34047 0.0
H939 H 0.5574 0.76364 0.34813 0.0
H940 H 0.59421 0.76962 0.35972 0.0
H941 H 0.50897 0.6801 0.437 0.0
H942 H 0.49158 0.70322 0.412 0.0
H943 H 0.50935 0.67057 0.40087 0.0
H944 H 0.45358 0.73543 0.34795 0.0
H945 H 0.5021 0.6606 0.32152 0.0
H946 H 0.51588 0.77422 0.37808 0.0
H947 H 0.49 0.75621 0.39996 0.0
H948 H 0.47759 0.77581 0.37007 0.0
H949 H 0.57253 0.68624 0.34535 0.0
H950 H 0.55284 0.65665 0.32946 0.0
H951 H 0.5536 0.66039 0.36653 0.0
C952 C 0.31456 0.40589 0.54902 0.0
C953 C 0.32927 0.40321 0.52372 0.0
C954 C 0.31843 0.43065 0.56571 0.0
C955 C 0.33687 0.45339 0.55645 0.0
C956 C 0.35077 0.45122 0.53038 0.0
C957 C 0.34706 0.42601 0.51449 0.0
C958 C 0.30368 0.43204 0.59362 0.0
C959 C 0.37007 0.47527 0.51948 0.0
C960 C 0.3324 0.52902 0.58776 0.0
C961 C 0.3574 0.52957 0.60418 0.0
C962 C 0.32499 0.50408 0.57256 0.0
C963 C 0.34276 0.47903 0.57431 0.0
C964 C 0.3675 0.47921 0.59165 0.0
C965 C 0.37471 0.50464 0.60617 0.0
C966 C 0.29882 0.50491 0.55385 0.0
C967 C 0.38671 0.45274 0.59441 0.0
H968 H 0.30095 0.38814 0.55623 0.0
H969 H 0.35821 0.42407 0.49477 0.0
H970 H 0.32032 0.43261 0.61016 0.0
H971 H 0.29073 0.4523 0.59546 0.0
H972 H 0.28914 0.4131 0.59729 0.0
H973 H 0.37763 0.47102 0.498 0.0
H974 H 0.35829 0.49633 0.51987 0.0
H975 H 0.38939 0.47766 0.53294 0.0
H976 H 0.31913 0.54843 0.58618 0.0
H977 H 0.39387 0.50506 0.61915 0.0
H978 H 0.2841 0.48639 0.55845 0.0
H979 H 0.30591 0.50261 0.53199 0.0
H980 H 0.28639 0.52551 0.55599 0.0
H981 H 0.37343 0.43335 0.59971 0.0
H982 H 0.40365 0.45566 0.61049 0.0
H983 H 0.39761 0.44819 0.57436 0.0
C984 C 0.08044 0.79805 0.04381 0.0
C985 C 0.10092 0.82033 0.0402 0.0
C986 C 0.05688 0.80166 0.06201 0.0
C987 C 0.05409 0.82801 0.07702 0.0
C988 C 0.07604 0.8495 0.07513 0.0
C989 C 0.09912 0.84546 0.05662 0.0
C990 C 0.03392 0.77823 0.06357 0.0
C991 C 0.07412 0.87769 0.09116 0.0
C992 C 0.97886 0.85762 0.0911 0.0
C993 C 0.97528 0.85162 0.1193 0.0
C994 C 0.00419 0.84943 0.07705 0.0
C995 C 0.02654 0.83494 0.0916 0.0
C996 C 0.02291 0.82837 0.11999 0.0
C997 C -0.00279 0.83676 0.13354 0.0
C998 C 0.00718 0.85666 0.04668 0.0
C999 C 0.04637 0.81307 0.13612 0.0
H1000 H 0.08182 0.77856 0.0312 0.0
H1001 H 0.11525 0.86251 0.05425 0.0
H1002 H 0.02767 0.77395 0.08537 0.0
H1003 H 0.01415 0.78567 0.05259 0.0
H1004 H 0.04133 0.75754 0.05396 0.0
H1005 H 0.09467 0.89037 0.09011 0.0
H1006 H 0.05639 0.89127 0.08258 0.0
H1007 H 0.06883 0.87342 0.11318 0.0
H1008 H 0.96169 0.86863 0.07995 0.0
H1009 H 0.9945 0.83222 0.1554 0.0
H1010 H 0.01171 0.8366 0.03462 0.0
H1011 H 0.0258 0.87166 0.04351 0.0
H1012 H 0.98734 0.86707 0.03823 0.0
H1013 H 0.05258 0.79249 0.12564 0.0
H1014 H 0.03945 0.80802 0.15763 0.0
H1015 H 0.06608 0.82695 0.13693 0.0
C1016 C 0.70644 0.62952 0.57874 0.0
C1017 C 0.68318 0.62497 0.56057 0.0
C1018 C 0.71031 0.61144 0.60186 0.0
C1019 C 0.69106 0.5878 0.60611 0.0
C1020 C 0.66754 0.58326 0.58777 0.0
C1021 C 0.66369 0.60215 0.56547 0.0
C1022 C 0.7351 0.61743 0.6214 0.0
C1023 C 0.64671 0.55803 0.59127 0.0
C1024 C 0.70692 0.51683 0.64102 0.0
C1025 C 0.68678 0.51802 0.66273 0.0
C1026 C 0.71127 0.54096 0.62382 0.0
C1027 C 0.69542 0.56682 0.62898 0.0
C1028 C 0.67822 0.56925 0.6532 0.0
C1029 C 0.67367 0.54454 0.66963 0.0
C1030 C 0.72969 0.53737 0.59814 0.0
C1031 C 0.66193 0.59684 0.65999 0.0
H1032 H 0.72139 0.64736 0.57504 0.0
H1033 H 0.64584 0.59849 0.5513 0.0
H1034 H 0.7278 0.61549 0.64323 0.0
H1035 H 0.75251 0.60114 0.61804 0.0
H1036 H 0.74452 0.63946 0.6182 0.0
H1037 H 0.63007 0.55723 0.5747 0.0
H1038 H 0.65883 0.53717 0.59111 0.0
H1039 H 0.63537 0.5597 0.61149 0.0
H1040 H 0.71695 0.49619 0.63573 0.0
H1041 H 0.65827 0.54538 0.68664 0.0
H1042 H 0.74297 0.55709 0.59426 0.0
H1043 H 0.71529 0.53421 0.58001 0.0
H1044 H 0.74436 0.51826 0.59964 0.0
H1045 H 0.67533 0.61631 0.65525 0.0
H1046 H 0.65534 0.59755 0.68211 0.0
H1047 H 0.642 0.59798 0.64719 0.0
C1048 C 0.90453 0.16123 0.07119 0.0
C1049 C 0.89498 0.1864 0.0576 0.0
C1050 C 0.92665 0.16253 0.09091 0.0
C1051 C 0.93955 0.18969 0.09728 0.0
C1052 C 0.92911 0.2154 0.08474 0.0
C1053 C 0.90692 0.21347 0.06498 0.0
C1054 C 0.9371 0.13458 0.10398 0.0
C1055 C 0.94223 0.24474 0.09125 0.0
C1056 C 0.98673 0.1855 0.16099 0.0
C1057 C 0.01356 0.17825 0.14908 0.0
C1058 C 0.96262 0.1916 0.1443 0.0
C1059 C 0.96563 0.19033 0.11517 0.0
C1060 C 0.99327 0.1854 0.10315 0.0
C1061 C 0.01693 0.17941 0.12029 0.0
C1062 C 0.93354 0.1971 0.15783 0.0
C1063 C -0.00256 0.18411 0.07217 0.0
H1064 H 0.89523 0.14026 0.06594 0.0
H1065 H 0.89958 0.23308 0.05473 0.0
H1066 H 0.95982 0.13022 0.09744 0.0
H1067 H 0.93699 0.13659 0.12685 0.0
H1068 H 0.92351 0.11557 0.09811 0.0
H1069 H 0.9291 0.26291 0.08276 0.0
H1070 H 0.94433 0.24773 0.11394 0.0
H1071 H 0.96439 0.24603 0.08225 0.0
H1072 H 0.9841 0.18458 0.18327 0.0
H1073 H 0.03786 0.1743 0.11113 0.0
H1074 H 0.91984 0.17731 0.15598 0.0
H1075 H 0.92195 0.21512 0.14736 0.0
H1076 H 0.93578 0.2025 0.18013 0.0
H1077 H 0.98676 0.16425 0.06392 0.0
H1078 H 0.02076 0.18354 0.06621 0.0
H1079 H 0.98713 0.20315 0.06212 0.0
C1080 C 0.20391 0.74376 0.06151 0.0
C1081 C 0.22396 0.7569 0.04347 0.0
C1082 C 0.21261 0.73324 0.08733 0.0
C1083 C 0.24209 0.73561 0.09508 0.0
C1084 C 0.26265 0.74779 0.07658 0.0
C1085 C 0.2533 0.75847 0.05101 0.0
C1086 C 0.19011 0.72054 0.10669 0.0
C1087 C 0.29438 0.75023 0.0841 0.0
C1088 C 0.2624 0.73751 0.1708 0.0
C1089 C 0.27199 0.70895 0.17491 0.0
C1090 C 0.25188 0.74633 0.14499 0.0
C1091 C 0.25136 0.7261 0.12287 0.0
C1092 C 0.26053 0.69709 0.12707 0.0
C1093 C 0.27064 0.68882 0.15315 0.0
C1094 C 0.24187 0.77737 0.14124 0.0
C1095 C 0.26054 0.67508 0.10383 0.0
H1096 H 0.18116 0.74264 0.05592 0.0
H1097 H 0.26891 0.76846 0.03711 0.0
H1098 H 0.19666 0.6984 0.1133 0.0
H1099 H 0.18852 0.73416 0.12562 0.0
H1100 H 0.16827 0.71923 0.09706 0.0
H1101 H 0.30781 0.75876 0.06676 0.0
H1102 H 0.29692 0.76497 0.10212 0.0
H1103 H 0.30296 0.72862 0.09022 0.0
H1104 H 0.26336 0.75298 0.18774 0.0
H1105 H 0.2785 0.66683 0.15626 0.0
H1106 H 0.21942 0.77773 0.13297 0.0
H1107 H 0.25601 0.78854 0.12594 0.0
H1108 H 0.24233 0.78992 0.1609 0.0
H1109 H 0.23858 0.67344 0.09459 0.0
H1110 H 0.2673 0.6531 0.11086 0.0
H1111 H 0.27559 0.68231 0.08722 0.0
C1112 C 0.75164 0.73232 0.56016 0.0
C1113 C 0.73667 0.74992 0.5413 0.0
C1114 C 0.76124 0.7436 0.58545 0.0
C1115 C 0.75614 0.77326 0.59173 0.0
C1116 C 0.74325 0.79166 0.57183 0.0
C1117 C 0.73346 0.77971 0.54687 0.0
C1118 C 0.77474 0.72325 0.60628 0.0
C1119 C 0.73798 0.82353 0.57764 0.0
C1120 C 0.74401 0.79184 0.66716 0.0
C1121 C 0.77124 0.80283 0.67469 0.0
C1122 C 0.7388 0.78234 0.6401 0.0
C1123 C 0.76133 0.78415 0.62013 0.0
C1124 C 0.78871 0.7957 0.62749 0.0
C1125 C 0.79339 0.80481 0.65479 0.0
C1126 C 0.70933 0.76991 0.633 0.0
C1127 C 0.81305 0.79827 0.6066 0.0
H1128 H 0.7541 0.70924 0.55607 0.0
H1129 H 0.72214 0.79346 0.53224 0.0
H1130 H 0.79492 0.73282 0.61486 0.0
H1131 H 0.75944 0.71994 0.62379 0.0
H1132 H 0.77994 0.70166 0.59715 0.0
H1133 H 0.73163 0.83561 0.55871 0.0
H1134 H 0.7203 0.82578 0.59315 0.0
H1135 H 0.7577 0.83382 0.58646 0.0
H1136 H 0.72699 0.79006 0.68263 0.0
H1137 H 0.81436 0.81364 0.66059 0.0
H1138 H 0.71171 0.74712 0.62572 0.0
H1139 H 0.69945 0.78252 0.6159 0.0
H1140 H 0.69417 0.77018 0.65094 0.0
H1141 H 0.81901 0.77637 0.59875 0.0
H1142 H 0.83274 0.80865 0.61547 0.0
H1143 H 0.80578 0.81126 0.58858 0.0
C1144 C 0.78436 0.26449 0.06754 0.0
C1145 C 0.76654 0.24758 0.05033 0.0
C1146 C 0.77295 0.27842 0.09099 0.0
C1147 C 0.74303 0.27555 0.09716 0.0
C1148 C 0.72465 0.25992 0.07905 0.0
C1149 C 0.73665 0.24602 0.05588 0.0
C1150 C 0.79321 0.29485 0.10994 0.0
C1151 C 0.69254 0.25668 0.08485 0.0
C1152 C 0.71894 0.27766 0.17199 0.0
C1153 C 0.70724 0.3057 0.17413 0.0
C1154 C 0.73112 0.26782 0.14713 0.0
C1155 C 0.73141 0.28645 0.12384 0.0
C1156 C 0.71998 0.31495 0.12595 0.0
C1157 C 0.70808 0.32431 0.15119 0.0
C1158 C 0.74338 0.23735 0.14572 0.0
C1159 C 0.71977 0.33527 0.10143 0.0
H1160 H 0.80748 0.26584 0.06341 0.0
H1161 H 0.72268 0.23327 0.04252 0.0
H1162 H 0.78432 0.31672 0.11475 0.0
H1163 H 0.79523 0.28296 0.12981 0.0
H1164 H 0.81525 0.29746 0.10083 0.0
H1165 H 0.6808 0.24639 0.06733 0.0
H1166 H 0.6893 0.24303 0.10353 0.0
H1167 H 0.68264 0.27822 0.08916 0.0
H1168 H 0.71863 0.26342 0.18987 0.0
H1169 H 0.69881 0.34593 0.15282 0.0
H1170 H 0.76637 0.23805 0.13879 0.0
H1171 H 0.73117 0.2243 0.13031 0.0
H1172 H 0.7423 0.226 0.16598 0.0
H1173 H 0.74209 0.3379 0.09307 0.0
H1174 H 0.71105 0.35711 0.10681 0.0
H1175 H 0.7063 0.32583 0.08468 0.0
C1176 C 0.28506 0.24907 0.57854 0.0
C1177 C 0.28318 0.27703 0.56721 0.0
C1178 C 0.27542 0.24354 0.60552 0.0
C1179 C 0.26416 0.26668 0.62169 0.0
C1180 C 0.2627 0.29509 0.61058 0.0
C1181 C 0.27197 0.29989 0.5833 0.0
C1182 C 0.2769 0.21282 0.61656 0.0
C1183 C 0.25134 0.32033 0.62748 0.0
C1184 C 0.21468 0.24037 0.67873 0.0
C1185 C 0.23432 0.23725 0.7006 0.0
C1186 C 0.22369 0.25179 0.65329 0.0
C1187 C 0.25295 0.26053 0.64984 0.0
C1188 C 0.27224 0.2597 0.67256 0.0
C1189 C 0.26273 0.24779 0.6977 0.0
C1190 C 0.20253 0.25208 0.62948 0.0
C1191 C 0.30343 0.26947 0.66977 0.0
H1192 H 0.29366 0.23137 0.56613 0.0
H1193 H 0.27087 0.32165 0.57471 0.0
H1194 H 0.29041 0.21222 0.6355 0.0
H1195 H 0.25481 0.20523 0.62237 0.0
H1196 H 0.28619 0.19732 0.60125 0.0
H1197 H 0.25307 0.34135 0.61624 0.0
H1198 H 0.22823 0.31656 0.63297 0.0
H1199 H 0.26358 0.3221 0.64714 0.0
H1200 H 0.19278 0.23191 0.68082 0.0
H1201 H 0.27783 0.24557 0.71473 0.0
H1202 H 0.20876 0.23506 0.61427 0.0
H1203 H 0.20319 0.27332 0.61862 0.0
H1204 H 0.17987 0.24784 0.63638 0.0
H1205 H 0.31576 0.2532 0.65747 0.0
H1206 H 0.31412 0.27186 0.69021 0.0
H1207 H 0.30477 0.29053 0.65863 0.0
C1208 C 0.73625 0.70633 0.39221 0.0
C1209 C 0.72545 0.72869 0.40915 0.0
C1210 C 0.74833 0.71252 0.36623 0.0
C1211 C 0.75012 0.74177 0.35734 0.0
C1212 C 0.73944 0.76444 0.37444 0.0
C1213 C 0.72695 0.75758 0.40006 0.0
C1214 C 0.75903 0.68782 0.34825 0.0
C1215 C 0.74145 0.79597 0.36578 0.0
C1216 C 0.80563 0.76568 0.3043 0.0
C1217 C 0.78796 0.77101 0.28135 0.0
C1218 C 0.79377 0.75489 0.32894 0.0
C1219 C 0.76363 0.749 0.33038 0.0
C1220 C 0.74603 0.75259 0.30669 0.0
C1221 C 0.7584 0.76387 0.28244 0.0
C1222 C 0.81313 0.75166 0.35391 0.0
C1223 C 0.71391 0.74593 0.30736 0.0
H1224 H 0.73479 0.68391 0.39905 0.0
H1225 H 0.71872 0.77489 0.41317 0.0
H1226 H 0.7478 0.68828 0.32798 0.0
H1227 H 0.7826 0.6904 0.34407 0.0
H1228 H 0.75535 0.66621 0.35795 0.0
H1229 H 0.73247 0.81098 0.38169 0.0
H1230 H 0.76446 0.80193 0.36184 0.0
H1231 H 0.72944 0.79934 0.3462 0.0
H1232 H 0.82844 0.77157 0.30351 0.0
H1233 H 0.74485 0.76792 0.26456 0.0
H1234 H 0.81033 0.72984 0.36333 0.0
H1235 H 0.8069 0.76801 0.36978 0.0
H1236 H 0.83645 0.75479 0.34869 0.0
H1237 H 0.70996 0.72417 0.31659 0.0
H1238 H 0.70412 0.74647 0.2864 0.0
H1239 H 0.70259 0.76216 0.32055 0.0
C1240 C 0.78293 0.26248 0.91294 0.0
C1241 C 0.7762 0.23335 0.91863 0.0
C1242 C 0.77601 0.2748 0.88734 0.0
C1243 C 0.7627 0.25731 0.86686 0.0
C1244 C 0.7564 0.22772 0.87231 0.0
C1245 C 0.76291 0.21616 0.89832 0.0
C1246 C 0.78234 0.30665 0.88243 0.0
C1247 C 0.74268 0.20836 0.85071 0.0
C1248 C 0.71671 0.29479 0.81331 0.0
C1249 C 0.73603 0.2968 0.79098 0.0
C1250 C 0.72522 0.28202 0.83816 0.0
C1251 C 0.75357 0.27051 0.84043 0.0
C1252 C 0.77309 0.27207 0.81774 0.0
C1253 C 0.76416 0.28566 0.79323 0.0
C1254 C 0.70404 0.28132 0.86212 0.0
C1255 C 0.80328 0.25943 0.8194 0.0
H1256 H 0.79322 0.27574 0.92868 0.0
H1257 H 0.75816 0.19347 0.90257 0.0
H1258 H 0.79638 0.30929 0.8639 0.0
H1259 H 0.76178 0.31844 0.87832 0.0
H1260 H 0.79327 0.31706 0.90036 0.0
H1261 H 0.74101 0.18536 0.85763 0.0
H1262 H 0.72056 0.21633 0.84579 0.0
H1263 H 0.75558 0.2091 0.83128 0.0
H1264 H 0.69506 0.30389 0.81147 0.0
H1265 H 0.77895 0.2874 0.7758 0.0
H1266 H 0.71345 0.29286 0.88018 0.0
H1267 H 0.69991 0.25851 0.86852 0.0
H1268 H 0.68292 0.29161 0.85694 0.0
H1269 H 0.81584 0.27071 0.83577 0.0
H1270 H 0.81532 0.26138 0.79952 0.0
H1271 H 0.80207 0.23609 0.82519 0.0
C1272 C 0.27496 0.21909 0.42561 0.0
C1273 C 0.2617 0.24121 0.44117 0.0
C1274 C 0.25905 0.20258 0.40664 0.0
C1275 C 0.22899 0.20793 0.40356 0.0
C1276 C 0.21518 0.22945 0.41994 0.0
C1277 C 0.23182 0.24615 0.43838 0.0
C1278 C 0.27468 0.18024 0.38911 0.0
C1279 C 0.18302 0.23524 0.41754 0.0
C1280 C 0.1983 0.18825 0.33361 0.0
C1281 C 0.18732 0.16031 0.33857 0.0
C1282 C 0.21127 0.20432 0.35484 0.0
C1283 C 0.21271 0.1923 0.38174 0.0
C1284 C 0.2007 0.16446 0.38707 0.0
C1285 C 0.18843 0.14856 0.36523 0.0
C1286 C 0.22443 0.23366 0.34822 0.0
C1287 C 0.20137 0.15128 0.41564 0.0
H1288 H 0.29812 0.21532 0.4275 0.0
H1289 H 0.22147 0.26308 0.45054 0.0
H1290 H 0.26422 0.15861 0.39139 0.0
H1291 H 0.27324 0.18639 0.36696 0.0
H1292 H 0.29798 0.17818 0.39467 0.0
H1293 H 0.17513 0.2507 0.43358 0.0
H1294 H 0.17819 0.24447 0.39688 0.0
H1295 H 0.17064 0.21459 0.41943 0.0
H1296 H 0.19753 0.19714 0.31285 0.0
H1297 H 0.17964 0.12701 0.36896 0.0
H1298 H 0.24823 0.23297 0.35174 0.0
H1299 H 0.21536 0.25058 0.36215 0.0
H1300 H 0.22049 0.2403 0.32647 0.0
H1301 H 0.22413 0.14652 0.42154 0.0
H1302 H 0.18862 0.13076 0.41687 0.0
H1303 H 0.19261 0.16692 0.43105 0.0
C1304 C 0.20194 0.74043 0.89162 0.0
C1305 C 0.22257 0.75266 0.9095 0.0
C1306 C 0.21037 0.72837 0.86618 0.0
C1307 C 0.24013 0.72809 0.85883 0.0
C1308 C 0.26115 0.73919 0.87737 0.0
C1309 C 0.25207 0.75162 0.9024 0.0
C1310 C 0.18736 0.71713 0.8467 0.0
C1311 C 0.29318 0.73871 0.87043 0.0
C1312 C 0.26885 0.67901 0.80211 0.0
C1313 C 0.27377 0.6991 0.78082 0.0
C1314 C 0.2569 0.68793 0.82742 0.0
C1315 C 0.24941 0.71752 0.83123 0.0
C1316 C 0.25292 0.73757 0.80924 0.0
C1317 C 0.26536 0.72814 0.78431 0.0
C1318 C 0.25382 0.66606 0.85055 0.0
C1319 C 0.24467 0.76921 0.81242 0.0
H1320 H 0.17906 0.74148 0.89693 0.0
H1321 H 0.26806 0.7609 0.91628 0.0
H1322 H 0.18693 0.73083 0.82782 0.0
H1323 H 0.19253 0.6946 0.84005 0.0
H1324 H 0.16536 0.71729 0.85624 0.0
H1325 H 0.30681 0.74624 0.88795 0.0
H1326 H 0.3 0.71636 0.8646 0.0
H1327 H 0.29749 0.75298 0.85237 0.0
H1328 H 0.27571 0.65661 0.79945 0.0
H1329 H 0.26908 0.74356 0.7677 0.0
H1330 H 0.23162 0.66687 0.85951 0.0
H1331 H 0.26924 0.67156 0.86736 0.0
H1332 H 0.25829 0.64347 0.84349 0.0
H1333 H 0.22219 0.77113 0.82059 0.0
H1334 H 0.24613 0.78125 0.79255 0.0
H1335 H 0.25932 0.77984 0.82756 0.0
loop_
_geom_bond_atom_site_label_1
_geom_bond_atom_site_label_2
_geom_bond_distance
_geom_bond_site_symmetry_2
_ccdc_geom_bond_type
Sc0 O3 2.025 . S
Sc0 O10 2.105 1_554 S
Sc0 O13 2.105 . S
Sc0 O16 2.105 . S
Sc0 O19 2.105 1_554 S
Sc1 O3 2.025 . S
Sc1 O11 2.105 1_554 S
Sc1 O15 2.105 . S
Sc1 O17 2.105 . S
Sc1 O21 2.105 1_554 S
Sc2 O3 2.025 . S
Sc2 O12 2.105 1_554 S
Sc2 O14 2.105 . S
Sc2 O18 2.105 . S
Sc2 O20 2.105 1_554 S
O3 Sc0 2.025 . S
O3 Sc1 2.025 . S
O3 Sc2 2.025 . S
C4 O10 1.268 . S
C4 O20 1.268 . S
C5 O11 1.268 . S
C5 O19 1.268 . S
C6 O12 1.268 . S
C6 O21 1.268 . S
C7 O13 1.268 . S
C7 O17 1.268 . S
C8 O14 1.268 . S
C8 O16 1.268 . S
C9 O15 1.268 . S
C9 O18 1.268 . S
O10 Sc0 2.105 1_556 S
O10 C4 1.268 . S
O11 Sc1 2.105 1_556 S
O11 C5 1.268 . S
O12 Sc2 2.105 1_556 S
O12 C6 1.268 . S
O13 Sc0 2.105 . S
O13 C7 1.268 . S
O14 Sc2 2.105 . S
O14 C8 1.268 . S
O15 Sc1 2.105 . S
O15 C9 1.268 . S
O16 Sc0 2.105 . S
O16 C8 1.268 . S
O17 Sc1 2.105 . S
O17 C7 1.268 . S
O18 Sc2 2.105 . S
O18 C9 1.268 . S
O19 Sc0 2.105 1_556 S
O19 C5 1.268 . S
O20 Sc2 2.105 1_556 S
O20 C4 1.268 . S
O21 Sc1 2.105 1_556 S
O21 C6 1.268 . S
Sc22 O25 2.025 . S
Sc22 O32 2.105 . S
Sc22 O35 2.105 . S
Sc22 O38 2.105 . S
Sc22 O41 2.105 . S
Sc23 O25 2.025 . S
Sc23 O33 2.105 . S
Sc23 O37 2.105 . S
Sc23 O39 2.105 . S
Sc23 O43 2.105 . S
Sc24 O25 2.025 . S
Sc24 O34 2.105 . S
Sc24 O36 2.105 . S
Sc24 O40 2.105 . S
Sc24 O42 2.105 . S
O25 Sc22 2.025 . S
O25 Sc23 2.025 . S
O25 Sc24 2.025 . S
C26 O32 1.268 . S
C26 O42 1.268 . S
C27 O33 1.268 . S
C27 O41 1.268 . S
C28 O34 1.268 . S
C28 O43 1.268 . S
C29 O35 1.268 . S
C29 O39 1.268 . S
C30 O36 1.268 . S
C30 O38 1.268 . S
C31 O37 1.268 . S
C31 O40 1.268 . S
O32 Sc22 2.105 . S
O32 C26 1.268 . S
O33 Sc23 2.105 . S
O33 C27 1.268 . S
O34 Sc24 2.105 . S
O34 C28 1.268 . S
O35 Sc22 2.105 . S
O35 C29 1.268 . S
O36 Sc24 2.105 . S
O36 C30 1.268 . S
O37 Sc23 2.105 . S
O37 C31 1.268 . S
O38 Sc22 2.105 . S
O38 C30 1.268 . S
O39 Sc23 2.105 . S
O39 C29 1.268 . S
O40 Sc24 2.105 . S
O40 C31 1.268 . S
O41 Sc22 2.105 . S
O41 C27 1.268 . S
O42 Sc24 2.105 . S
O42 C26 1.268 . S
O43 Sc23 2.105 . S
O43 C28 1.268 . S
Sc44 O47 2.025 . S
Sc44 O54 2.105 1_554 S
Sc44 O57 2.105 . S
Sc44 O60 2.105 . S
Sc44 O63 2.105 1_554 S
Sc45 O47 2.025 . S
Sc45 O55 2.105 1_554 S
Sc45 O59 2.105 . S
Sc45 O61 2.105 . S
Sc45 O65 2.105 1_554 S
Sc46 O47 2.025 . S
Sc46 O56 2.105 1_554 S
Sc46 O58 2.105 . S
Sc46 O62 2.105 . S
Sc46 O64 2.105 1_554 S
O47 Sc44 2.025 . S
O47 Sc45 2.025 . S
O47 Sc46 2.025 . S
C48 O54 1.268 . S
C48 O64 1.268 . S
C49 O55 1.268 . S
C49 O63 1.268 . S
C50 O56 1.268 . S
C50 O65 1.268 . S
C51 O57 1.268 . S
C51 O61 1.268 . S
C52 O58 1.268 . S
C52 O60 1.268 . S
C53 O59 1.268 . S
C53 O62 1.268 . S
O54 Sc44 2.105 1_556 S
O54 C48 1.268 . S
O55 Sc45 2.105 1_556 S
O55 C49 1.268 . S
O56 Sc46 2.105 1_556 S
O56 C50 1.268 . S
O57 Sc44 2.105 . S
O57 C51 1.268 . S
O58 Sc46 2.105 . S
O58 C52 1.268 . S
O59 Sc45 2.105 . S
O59 C53 1.268 . S
O60 Sc44 2.105 . S
O60 C52 1.268 . S
O61 Sc45 2.105 . S
O61 C51 1.268 . S
O62 Sc46 2.105 . S
O62 C53 1.268 . S
O63 Sc44 2.105 1_556 S
O63 C49 1.268 . S
O64 Sc46 2.105 1_556 S
O64 C48 1.268 . S
O65 Sc45 2.105 1_556 S
O65 C50 1.268 . S
Sc66 O69 2.025 . S
Sc66 O76 2.105 . S
Sc66 O79 2.105 . S
Sc66 O82 2.105 . S
Sc66 O85 2.105 . S
Sc67 O69 2.025 . S
Sc67 O77 2.105 . S
Sc67 O81 2.105 . S
Sc67 O83 2.105 . S
Sc67 O87 2.105 . S
Sc68 O69 2.025 . S
Sc68 O78 2.105 . S
Sc68 O80 2.105 . S
Sc68 O84 2.105 . S
Sc68 O86 2.105 . S
O69 Sc66 2.025 . S
O69 Sc67 2.025 . S
O69 Sc68 2.025 . S
C70 O76 1.268 . S
C70 O86 1.268 . S
C71 O77 1.268 . S
C71 O85 1.268 . S
C72 O78 1.268 . S
C72 O87 1.268 . S
C73 O79 1.268 . S
C73 O83 1.268 . S
C74 O80 1.268 . S
C74 O82 1.268 . S
C75 O81 1.268 . S
C75 O84 1.268 . S
O76 Sc66 2.105 . S
O76 C70 1.268 . S
O77 Sc67 2.105 . S
O77 C71 1.268 . S
O78 Sc68 2.105 . S
O78 C72 1.268 . S
O79 Sc66 2.105 . S
O79 C73 1.268 . S
O80 Sc68 2.105 . S
O80 C74 1.268 . S
O81 Sc67 2.105 . S
O81 C75 1.268 . S
O82 Sc66 2.105 . S
O82 C74 1.268 . S
O83 Sc67 2.105 . S
O83 C73 1.268 . S
O84 Sc68 2.105 . S
O84 C75 1.268 . S
O85 Sc66 2.105 . S
O85 C71 1.268 . S
O86 Sc68 2.105 . S
O86 C70 1.268 . S
O87 Sc67 2.105 . S
O87 C72 1.268 . S
C88 C89 1.391 . S
C88 C92 1.391 . S
C88 H130 0.948 . S
C89 C88 1.391 . S
C89 C90 1.391 . S
C90 C89 1.391 . S
C90 H146 0.947 . S
C90 C147 1.392 . S
C91 C92 1.391 . S
C91 C95 1.397 . S
C91 C147 1.419 . S
C92 C88 1.391 . S
C92 C91 1.391 . S
C92 C93 1.399 . S
C93 C92 1.399 . S
C93 C96 1.396 . S
C93 C105 1.453 . S
C93 C106 1.684 . S
H94 C118 0.948 . S
C95 C91 1.397 . S
C95 C96 1.394 . S
C95 C114 1.723 . S
C96 C93 1.396 . S
C96 C95 1.394 . S
C96 C126 1.723 . S
H97 C120 0.947 . S
H98 C121 0.948 . S
H99 C127 0.982 . S
H100 C128 0.979 . S
H101 C128 0.980 . S
H102 C128 0.983 . S
H103 C127 0.979 . S
H104 C127 0.977 . S
C105 C93 1.453 . S
C105 H134 0.982 . S
C105 H135 0.979 . S
C105 H136 0.977 . S
C106 C93 1.684 . S
C106 H131 0.979 . S
C106 H132 0.980 . S
C106 H133 0.983 . S
C107 C108 1.391 . S
C107 C112 1.391 . S
C107 H137 0.948 . S
C108 C107 1.391 . S
C108 C109 1.391 . S
C109 C108 1.391 . S
C109 C110 1.392 . S
C109 H138 0.947 . S
C110 C109 1.392 . S
C110 C111 1.419 . S
C110 H139 0.948 . S
C111 C110 1.419 . S
C111 C112 1.391 . S
C111 C115 1.397 . S
C112 C107 1.391 . S
C112 C111 1.391 . S
C112 C113 1.399 . S
C113 C112 1.399 . S
C113 C114 1.396 . S
C113 C116 1.453 . S
C113 C117 1.684 . S
C114 C95 1.723 . S
C114 C113 1.396 . S
C114 C115 1.394 . S
C115 C111 1.397 . S
C115 C114 1.394 . S
C115 C125 1.723 . S
C116 C113 1.453 . S
C116 H140 0.982 . S
C116 H141 0.979 . S
C116 H142 0.977 . S
C117 C113 1.684 . S
C117 H143 0.979 . S
C117 H144 0.980 . S
C117 H145 0.983 . S
C118 H94 0.948 . S
C118 C119 1.391 . S
C118 C123 1.391 . S
C119 C118 1.391 . S
C119 C120 1.391 . S
C120 H97 0.947 . S
C120 C119 1.391 . S
C120 C121 1.392 . S
C121 H98 0.948 . S
C121 C120 1.392 . S
C121 C122 1.419 . S
C122 C121 1.419 . S
C122 C123 1.391 . S
C122 C126 1.397 . S
C123 C118 1.391 . S
C123 C122 1.391 . S
C123 C124 1.399 . S
C124 C123 1.399 . S
C124 C125 1.396 . S
C124 C127 1.453 . S
C124 C128 1.684 . S
C125 C115 1.723 . S
C125 C124 1.396 . S
C125 C126 1.394 . S
C126 C96 1.723 . S
C126 C122 1.397 . S
C126 C125 1.394 . S
C127 H99 0.982 . S
C127 H103 0.979 . S
C127 H104 0.977 . S
C127 C124 1.453 . S
C128 H100 0.979 . S
C128 H101 0.980 . S
C128 H102 0.983 . S
C128 C124 1.684 . S
H129 C147 0.948 . S
H130 C88 0.948 . S
H131 C106 0.979 . S
H132 C106 0.980 . S
H133 C106 0.983 . S
H134 C105 0.982 . S
H135 C105 0.979 . S
H136 C105 0.977 . S
H137 C107 0.948 . S
H138 C109 0.947 . S
H139 C110 0.948 . S
H140 C116 0.982 . S
H141 C116 0.979 . S
H142 C116 0.977 . S
H143 C117 0.979 . S
H144 C117 0.980 . S
H145 C117 0.983 . S
H146 C90 0.947 . S
C147 C90 1.392 . S
C147 C91 1.419 . S
C147 H129 0.948 . S
C148 C149 1.391 . S
C148 C152 1.391 . S
C148 H190 0.948 . S
C149 C148 1.391 . S
C149 C150 1.391 . S
C150 C149 1.391 . S
C150 H206 0.947 . S
C150 C207 1.392 . S
C151 C152 1.391 . S
C151 C155 1.397 . S
C151 C207 1.419 . S
C152 C148 1.391 . S
C152 C151 1.391 . S
C152 C153 1.399 . S
C153 C152 1.399 . S
C153 C156 1.396 . S
C153 C165 1.453 . S
C153 C166 1.684 . S
H154 C178 0.948 . S
C155 C151 1.397 . S
C155 C156 1.394 . S
C155 C174 1.723 . S
C156 C153 1.396 . S
C156 C155 1.394 . S
C156 C186 1.723 . S
H157 C180 0.947 . S
H158 C181 0.948 . S
H159 C187 0.982 . S
H160 C188 0.979 . S
H161 C188 0.980 . S
H162 C188 0.983 . S
H163 C187 0.979 . S
H164 C187 0.977 . S
C165 C153 1.453 . S
C165 H194 0.982 . S
C165 H195 0.979 . S
C165 H196 0.977 . S
C166 C153 1.684 . S
C166 H191 0.979 . S
C166 H192 0.980 . S
C166 H193 0.983 . S
C167 C168 1.391 . S
C167 C172 1.391 . S
C167 H197 0.948 . S
C168 C167 1.391 . S
C168 C169 1.391 . S
C169 C168 1.391 . S
C169 C170 1.392 . S
C169 H198 0.947 . S
C170 C169 1.392 . S
C170 C171 1.419 . S
C170 H199 0.948 . S
C171 C170 1.419 . S
C171 C172 1.391 . S
C171 C175 1.397 . S
C172 C167 1.391 . S
C172 C171 1.391 . S
C172 C173 1.399 . S
C173 C172 1.399 . S
C173 C174 1.396 . S
C173 C176 1.453 . S
C173 C177 1.684 . S
C174 C155 1.723 . S
C174 C173 1.396 . S
C174 C175 1.394 . S
C175 C171 1.397 . S
C175 C174 1.394 . S
C175 C185 1.723 . S
C176 C173 1.453 . S
C176 H200 0.982 . S
C176 H201 0.979 . S
C176 H202 0.977 . S
C177 C173 1.684 . S
C177 H203 0.979 . S
C177 H204 0.980 . S
C177 H205 0.983 . S
C178 H154 0.948 . S
C178 C179 1.391 . S
C178 C183 1.391 . S
C179 C178 1.391 . S
C179 C180 1.391 . S
C180 H157 0.947 . S
C180 C179 1.391 . S
C180 C181 1.392 . S
C181 H158 0.948 . S
C181 C180 1.392 . S
C181 C182 1.419 . S
C182 C181 1.419 . S
C182 C183 1.391 . S
C182 C186 1.397 . S
C183 C178 1.391 . S
C183 C182 1.391 . S
C183 C184 1.399 . S
C184 C183 1.399 . S
C184 C185 1.396 . S
C184 C187 1.453 . S
C184 C188 1.684 . S
C185 C175 1.723 . S
C185 C184 1.396 . S
C185 C186 1.394 . S
C186 C156 1.723 . S
C186 C182 1.397 . S
C186 C185 1.394 . S
C187 H159 0.982 . S
C187 H163 0.979 . S
C187 H164 0.977 . S
C187 C184 1.453 . S
C188 H160 0.979 . S
C188 H161 0.980 . S
C188 H162 0.983 . S
C188 C184 1.684 . S
H189 C207 0.948 . S
H190 C148 0.948 . S
H191 C166 0.979 . S
H192 C166 0.980 . S
H193 C166 0.983 . S
H194 C165 0.982 . S
H195 C165 0.979 . S
H196 C165 0.977 . S
H197 C167 0.948 . S
H198 C169 0.947 . S
H199 C170 0.948 . S
H200 C176 0.982 . S
H201 C176 0.979 . S
H202 C176 0.977 . S
H203 C177 0.979 . S
H204 C177 0.980 . S
H205 C177 0.983 . S
H206 C150 0.947 . S
C207 C150 1.392 . S
C207 C151 1.419 . S
C207 H189 0.948 . S
C208 C209 1.391 . S
C208 C212 1.391 . S
C208 H250 0.948 . S
C209 C208 1.391 . S
C209 C210 1.391 . S
C210 C209 1.391 . S
C210 H266 0.947 . S
C210 C267 1.392 . S
C211 C212 1.391 . S
C211 C215 1.397 . S
C211 C267 1.419 . S
C212 C208 1.391 . S
C212 C211 1.391 . S
C212 C213 1.399 . S
C213 C212 1.399 . S
C213 C216 1.396 . S
C213 C225 1.453 . S
C213 C226 1.684 . S
H214 C238 0.948 . S
C215 C211 1.397 . S
C215 C216 1.394 . S
C215 C234 1.723 . S
C216 C213 1.396 . S
C216 C215 1.394 . S
C216 C246 1.723 . S
H217 C240 0.947 . S
H218 C241 0.948 . S
H219 C247 0.982 . S
H220 C248 0.979 . S
H221 C248 0.980 . S
H222 C248 0.983 . S
H223 C247 0.979 . S
H224 C247 0.977 . S
C225 C213 1.453 . S
C225 H254 0.982 . S
C225 H255 0.979 . S
C225 H256 0.977 . S
C226 C213 1.684 . S
C226 H251 0.979 . S
C226 H252 0.980 . S
C226 H253 0.983 . S
C227 C228 1.391 . S
C227 C232 1.391 . S
C227 H257 0.948 . S
C228 C227 1.391 . S
C228 C229 1.391 . S
C229 C228 1.391 . S
C229 C230 1.392 . S
C229 H258 0.947 . S
C230 C229 1.392 . S
C230 C231 1.419 . S
C230 H259 0.948 . S
C231 C230 1.419 . S
C231 C232 1.391 . S
C231 C235 1.397 . S
C232 C227 1.391 . S
C232 C231 1.391 . S
C232 C233 1.399 . S
C233 C232 1.399 . S
C233 C234 1.396 . S
C233 C236 1.453 . S
C233 C237 1.684 . S
C234 C215 1.723 . S
C234 C233 1.396 . S
C234 C235 1.394 . S
C235 C231 1.397 . S
C235 C234 1.394 . S
C235 C245 1.723 . S
C236 C233 1.453 . S
C236 H260 0.982 . S
C236 H261 0.979 . S
C236 H262 0.977 . S
C237 C233 1.684 . S
C237 H263 0.979 . S
C237 H264 0.980 . S
C237 H265 0.983 . S
C238 H214 0.948 . S
C238 C239 1.391 . S
C238 C243 1.391 . S
C239 C238 1.391 . S
C239 C240 1.391 . S
C240 H217 0.947 . S
C240 C239 1.391 . S
C240 C241 1.392 . S
C241 H218 0.948 . S
C241 C240 1.392 . S
C241 C242 1.419 . S
C242 C241 1.419 . S
C242 C243 1.391 . S
C242 C246 1.397 . S
C243 C238 1.391 . S
C243 C242 1.391 . S
C243 C244 1.399 . S
C244 C243 1.399 . S
C244 C245 1.396 . S
C244 C247 1.453 . S
C244 C248 1.684 . S
C245 C235 1.723 . S
C245 C244 1.396 . S
C245 C246 1.394 . S
C246 C216 1.723 . S
C246 C242 1.397 . S
C246 C245 1.394 . S
C247 H219 0.982 . S
C247 H223 0.979 . S
C247 H224 0.977 . S
C247 C244 1.453 . S
C248 H220 0.979 . S
C248 H221 0.980 . S
C248 H222 0.983 . S
C248 C244 1.684 . S
H249 C267 0.948 . S
H250 C208 0.948 . S
H251 C226 0.979 . S
H252 C226 0.980 . S
H253 C226 0.983 . S
H254 C225 0.982 . S
H255 C225 0.979 . S
H256 C225 0.977 . S
H257 C227 0.948 . S
H258 C229 0.947 . S
H259 C230 0.948 . S
H260 C236 0.982 . S
H261 C236 0.979 . S
H262 C236 0.977 . S
H263 C237 0.979 . S
H264 C237 0.980 . S
H265 C237 0.983 . S
H266 C210 0.947 . S
C267 C210 1.392 . S
C267 C211 1.419 . S
C267 H249 0.948 . S
C268 C269 1.391 . S
C268 C272 1.391 . S
C268 H310 0.948 . S
C269 C268 1.391 . S
C269 C270 1.391 . S
C270 C269 1.391 . S
C270 H326 0.947 . S
C270 C327 1.392 . S
C271 C272 1.391 . S
C271 C275 1.397 . S
C271 C327 1.419 . S
C272 C268 1.391 . S
C272 C271 1.391 . S
C272 C273 1.399 . S
C273 C272 1.399 . S
C273 C276 1.396 . S
C273 C285 1.453 . S
C273 C286 1.684 . S
H274 C298 0.948 . S
C275 C271 1.397 . S
C275 C276 1.394 . S
C275 C294 1.723 . S
C276 C273 1.396 . S
C276 C275 1.394 . S
C276 C306 1.723 . S
H277 C300 0.947 . S
H278 C301 0.948 . S
H279 C307 0.982 . S
H280 C308 0.979 . S
H281 C308 0.980 . S
H282 C308 0.983 . S
H283 C307 0.979 . S
H284 C307 0.977 . S
C285 C273 1.453 . S
C285 H314 0.982 . S
C285 H315 0.979 . S
C285 H316 0.977 . S
C286 C273 1.684 . S
C286 H311 0.979 . S
C286 H312 0.980 . S
C286 H313 0.983 . S
C287 C288 1.391 . S
C287 C292 1.391 . S
C287 H317 0.948 . S
C288 C287 1.391 . S
C288 C289 1.391 . S
C289 C288 1.391 . S
C289 C290 1.392 . S
C289 H318 0.947 . S
C290 C289 1.392 . S
C290 C291 1.419 . S
C290 H319 0.948 . S
C291 C290 1.419 . S
C291 C292 1.391 . S
C291 C295 1.397 . S
C292 C287 1.391 . S
C292 C291 1.391 . S
C292 C293 1.399 . S
C293 C292 1.399 . S
C293 C294 1.396 . S
C293 C296 1.453 . S
C293 C297 1.684 . S
C294 C275 1.723 . S
C294 C293 1.396 . S
C294 C295 1.394 . S
C295 C291 1.397 . S
C295 C294 1.394 . S
C295 C305 1.723 . S
C296 C293 1.453 . S
C296 H320 0.982 . S
C296 H321 0.979 . S
C296 H322 0.977 . S
C297 C293 1.684 . S
C297 H323 0.979 . S
C297 H324 0.980 . S
C297 H325 0.983 . S
C298 H274 0.948 . S
C298 C299 1.391 . S
C298 C303 1.391 . S
C299 C298 1.391 . S
C299 C300 1.391 . S
C300 H277 0.947 . S
C300 C299 1.391 . S
C300 C301 1.392 . S
C301 H278 0.948 . S
C301 C300 1.392 . S
C301 C302 1.419 . S
C302 C301 1.419 . S
C302 C303 1.391 . S
C302 C306 1.397 . S
C303 C298 1.391 . S
C303 C302 1.391 . S
C303 C304 1.399 . S
C304 C303 1.399 . S
C304 C305 1.396 . S
C304 C307 1.453 . S
C304 C308 1.684 . S
C305 C295 1.723 . S
C305 C304 1.396 . S
C305 C306 1.394 . S
C306 C276 1.723 . S
C306 C302 1.397 . S
C306 C305 1.394 . S
C307 H279 0.982 . S
C307 H283 0.979 . S
C307 H284 0.977 . S
C307 C304 1.453 . S
C308 H280 0.979 . S
C308 H281 0.980 . S
C308 H282 0.983 . S
C308 C304 1.684 . S
H309 C327 0.948 . S
H310 C268 0.948 . S
H311 C286 0.979 . S
H312 C286 0.980 . S
H313 C286 0.983 . S
H314 C285 0.982 . S
H315 C285 0.979 . S
H316 C285 0.977 . S
H317 C287 0.948 . S
H318 C289 0.947 . S
H319 C290 0.948 . S
H320 C296 0.982 . S
H321 C296 0.979 . S
H322 C296 0.977 . S
H323 C297 0.979 . S
H324 C297 0.980 . S
H325 C297 0.983 . S
H326 C270 0.947 . S
C327 C270 1.392 . S
C327 C271 1.419 . S
C327 H309 0.948 . S
C328 C329 1.391 . S
C328 C332 1.391 . S
C328 H370 0.948 . S
C329 C328 1.391 . S
C329 C330 1.391 . S
C330 C329 1.391 . S
C330 H386 0.947 . S
C330 C387 1.392 . S
C331 C332 1.391 . S
C331 C335 1.397 . S
C331 C387 1.419 . S
C332 C328 1.391 . S
C332 C331 1.391 . S
C332 C333 1.399 . S
C333 C332 1.399 . S
C333 C336 1.396 . S
C333 C345 1.453 . S
C333 C346 1.684 . S
H334 C358 0.948 . S
C335 C331 1.397 . S
C335 C336 1.394 . S
C335 C354 1.723 . S
C336 C333 1.396 . S
C336 C335 1.394 . S
C336 C366 1.723 . S
H337 C360 0.947 . S
H338 C361 0.948 . S
H339 C367 0.982 . S
H340 C368 0.979 . S
H341 C368 0.980 . S
H342 C368 0.983 . S
H343 C367 0.979 . S
H344 C367 0.977 . S
C345 C333 1.453 . S
C345 H374 0.982 . S
C345 H375 0.979 . S
C345 H376 0.977 . S
C346 C333 1.684 . S
C346 H371 0.979 . S
C346 H372 0.980 . S
C346 H373 0.983 . S
C347 C348 1.391 . S
C347 C352 1.391 . S
C347 H377 0.948 . S
C348 C347 1.391 . S
C348 C349 1.391 . S
C349 C348 1.391 . S
C349 C350 1.392 . S
C349 H378 0.947 . S
C350 C349 1.392 . S
C350 C351 1.419 . S
C350 H379 0.948 . S
C351 C350 1.419 . S
C351 C352 1.391 . S
C351 C355 1.397 . S
C352 C347 1.391 . S
C352 C351 1.391 . S
C352 C353 1.399 . S
C353 C352 1.399 . S
C353 C354 1.396 . S
C353 C356 1.453 . S
C353 C357 1.684 . S
C354 C335 1.723 . S
C354 C353 1.396 . S
C354 C355 1.394 . S
C355 C351 1.397 . S
C355 C354 1.394 . S
C355 C365 1.723 . S
C356 C353 1.453 . S
C356 H380 0.982 . S
C356 H381 0.979 . S
C356 H382 0.977 . S
C357 C353 1.684 . S
C357 H383 0.979 . S
C357 H384 0.980 . S
C357 H385 0.983 . S
C358 H334 0.948 . S
C358 C359 1.391 . S
C358 C363 1.391 . S
C359 C358 1.391 . S
C359 C360 1.391 . S
C360 H337 0.947 . S
C360 C359 1.391 . S
C360 C361 1.392 . S
C361 H338 0.948 . S
C361 C360 1.392 . S
C361 C362 1.419 . S
C362 C361 1.419 . S
C362 C363 1.391 . S
C362 C366 1.397 . S
C363 C358 1.391 . S
C363 C362 1.391 . S
C363 C364 1.399 . S
C364 C363 1.399 . S
C364 C365 1.396 . S
C364 C367 1.453 . S
C364 C368 1.684 . S
C365 C355 1.723 . S
C365 C364 1.396 . S
C365 C366 1.394 . S
C366 C336 1.723 . S
C366 C362 1.397 . S
C366 C365 1.394 . S
C367 H339 0.982 . S
C367 H343 0.979 . S
C367 H344 0.977 . S
C367 C364 1.453 . S
C368 H340 0.979 . S
C368 H341 0.980 . S
C368 H342 0.983 . S
C368 C364 1.684 . S
H369 C387 0.948 . S
H370 C328 0.948 . S
H371 C346 0.979 . S
H372 C346 0.980 . S
H373 C346 0.983 . S
H374 C345 0.982 . S
H375 C345 0.979 . S
H376 C345 0.977 . S
H377 C347 0.948 . S
H378 C349 0.947 . S
H379 C350 0.948 . S
H380 C356 0.982 . S
H381 C356 0.979 . S
H382 C356 0.977 . S
H383 C357 0.979 . S
H384 C357 0.980 . S
H385 C357 0.983 . S
H386 C330 0.947 . S
C387 C330 1.392 . S
C387 C331 1.419 . S
C387 H369 0.948 . S
C388 C389 1.391 . S
C388 C392 1.391 . S
C388 H430 0.948 . S
C389 C388 1.391 . S
C389 C390 1.391 . S
C390 C389 1.391 . S
C390 H446 0.947 . S
C390 C447 1.392 . S
C391 C392 1.391 . S
C391 C395 1.397 . S
C391 C447 1.419 . S
C392 C388 1.391 . S
C392 C391 1.391 . S
C392 C393 1.399 . S
C393 C392 1.399 . S
C393 C396 1.396 . S
C393 C405 1.453 . S
C393 C406 1.684 . S
H394 C418 0.948 . S
C395 C391 1.397 . S
C395 C396 1.394 . S
C395 C414 1.723 . S
C396 C393 1.396 . S
C396 C395 1.394 . S
C396 C426 1.723 . S
H397 C420 0.947 . S
H398 C421 0.948 . S
H399 C427 0.982 . S
H400 C428 0.979 . S
H401 C428 0.980 . S
H402 C428 0.983 . S
H403 C427 0.979 . S
H404 C427 0.977 . S
C405 C393 1.453 . S
C405 H434 0.982 . S
C405 H435 0.979 . S
C405 H436 0.977 . S
C406 C393 1.684 . S
C406 H431 0.979 . S
C406 H432 0.980 . S
C406 H433 0.983 . S
C407 C408 1.391 . S
C407 C412 1.391 . S
C407 H437 0.948 . S
C408 C407 1.391 . S
C408 C409 1.391 . S
C409 C408 1.391 . S
C409 C410 1.392 . S
C409 H438 0.947 . S
C410 C409 1.392 . S
C410 C411 1.419 . S
C410 H439 0.948 . S
C411 C410 1.419 . S
C411 C412 1.391 . S
C411 C415 1.397 . S
C412 C407 1.391 . S
C412 C411 1.391 . S
C412 C413 1.399 . S
C413 C412 1.399 . S
C413 C414 1.396 . S
C413 C416 1.453 . S
C413 C417 1.684 . S
C414 C395 1.723 . S
C414 C413 1.396 . S
C414 C415 1.394 . S
C415 C411 1.397 . S
C415 C414 1.394 . S
C415 C425 1.723 . S
C416 C413 1.453 . S
C416 H440 0.982 . S
C416 H441 0.979 . S
C416 H442 0.977 . S
C417 C413 1.684 . S
C417 H443 0.979 . S
C417 H444 0.980 . S
C417 H445 0.983 . S
C418 H394 0.948 . S
C418 C419 1.391 . S
C418 C423 1.391 . S
C419 C418 1.391 . S
C419 C420 1.391 . S
C420 H397 0.947 . S
C420 C419 1.391 . S
C420 C421 1.392 . S
C421 H398 0.948 . S
C421 C420 1.392 . S
C421 C422 1.419 . S
C422 C421 1.419 . S
C422 C423 1.391 . S
C422 C426 1.397 . S
C423 C418 1.391 . S
C423 C422 1.391 . S
C423 C424 1.399 . S
C424 C423 1.399 . S
C424 C425 1.396 . S
C424 C427 1.453 . S
C424 C428 1.684 . S
C425 C415 1.723 . S
C425 C424 1.396 . S
C425 C426 1.394 . S
C426 C396 1.723 . S
C426 C422 1.397 . S
C426 C425 1.394 . S
C427 H399 0.982 . S
C427 H403 0.979 . S
C427 H404 0.977 . S
C427 C424 1.453 . S
C428 H400 0.979 . S
C428 H401 0.980 . S
C428 H402 0.983 . S
C428 C424 1.684 . S
H429 C447 0.948 . S
H430 C388 0.948 . S
H431 C406 0.979 . S
H432 C406 0.980 . S
H433 C406 0.983 . S
H434 C405 0.982 . S
H435 C405 0.979 . S
H436 C405 0.977 . S
H437 C407 0.948 . S
H438 C409 0.947 . S
H439 C410 0.948 . S
H440 C416 0.982 . S
H441 C416 0.979 . S
H442 C416 0.977 . S
H443 C417 0.979 . S
H444 C417 0.980 . S
H445 C417 0.983 . S
H446 C390 0.947 . S
C447 C390 1.392 . S
C447 C391 1.419 . S
C447 H429 0.948 . S
C448 C449 1.391 . S
C448 C452 1.391 . S
C448 H490 0.948 . S
C449 C448 1.391 . S
C449 C450 1.391 . S
C450 C449 1.391 . S
C450 H506 0.947 . S
C450 C507 1.392 . S
C451 C452 1.391 . S
C451 C455 1.397 . S
C451 C507 1.419 . S
C452 C448 1.391 . S
C452 C451 1.391 . S
C452 C453 1.399 . S
C453 C452 1.399 . S
C453 C456 1.396 . S
C453 C465 1.453 . S
C453 C466 1.684 . S
H454 C478 0.948 . S
C455 C451 1.397 . S
C455 C456 1.394 . S
C455 C474 1.723 . S
C456 C453 1.396 . S
C456 C455 1.394 . S
C456 C486 1.723 . S
H457 C480 0.947 . S
H458 C481 0.948 . S
H459 C487 0.982 . S
H460 C488 0.979 . S
H461 C488 0.980 . S
H462 C488 0.983 . S
H463 C487 0.979 . S
H464 C487 0.977 . S
C465 C453 1.453 . S
C465 H494 0.982 . S
C465 H495 0.979 . S
C465 H496 0.977 . S
C466 C453 1.684 . S
C466 H491 0.979 . S
C466 H492 0.980 . S
C466 H493 0.983 . S
C467 C468 1.391 . S
C467 C472 1.391 . S
C467 H497 0.948 . S
C468 C467 1.391 . S
C468 C469 1.391 . S
C469 C468 1.391 . S
C469 C470 1.392 . S
C469 H498 0.947 . S
C470 C469 1.392 . S
C470 C471 1.419 . S
C470 H499 0.948 . S
C471 C470 1.419 . S
C471 C472 1.391 . S
C471 C475 1.397 . S
C472 C467 1.391 . S
C472 C471 1.391 . S
C472 C473 1.399 . S
C473 C472 1.399 . S
C473 C474 1.396 . S
C473 C476 1.453 . S
C473 C477 1.684 . S
C474 C455 1.723 . S
C474 C473 1.396 . S
C474 C475 1.394 . S
C475 C471 1.397 . S
C475 C474 1.394 . S
C475 C485 1.723 . S
C476 C473 1.453 . S
C476 H500 0.982 . S
C476 H501 0.979 . S
C476 H502 0.977 . S
C477 C473 1.684 . S
C477 H503 0.979 . S
C477 H504 0.980 . S
C477 H505 0.983 . S
C478 H454 0.948 . S
C478 C479 1.391 . S
C478 C483 1.391 . S
C479 C478 1.391 . S
C479 C480 1.391 . S
C480 H457 0.947 . S
C480 C479 1.391 . S
C480 C481 1.392 . S
C481 H458 0.948 . S
C481 C480 1.392 . S
C481 C482 1.419 . S
C482 C481 1.419 . S
C482 C483 1.391 . S
C482 C486 1.397 . S
C483 C478 1.391 . S
C483 C482 1.391 . S
C483 C484 1.399 . S
C484 C483 1.399 . S
C484 C485 1.396 . S
C484 C487 1.453 . S
C484 C488 1.684 . S
C485 C475 1.723 . S
C485 C484 1.396 . S
C485 C486 1.394 . S
C486 C456 1.723 . S
C486 C482 1.397 . S
C486 C485 1.394 . S
C487 H459 0.982 . S
C487 H463 0.979 . S
C487 H464 0.977 . S
C487 C484 1.453 . S
C488 H460 0.979 . S
C488 H461 0.980 . S
C488 H462 0.983 . S
C488 C484 1.684 . S
H489 C507 0.948 . S
H490 C448 0.948 . S
H491 C466 0.979 . S
H492 C466 0.980 . S
H493 C466 0.983 . S
H494 C465 0.982 . S
H495 C465 0.979 . S
H496 C465 0.977 . S
H497 C467 0.948 . S
H498 C469 0.947 . S
H499 C470 0.948 . S
H500 C476 0.982 . S
H501 C476 0.979 . S
H502 C476 0.977 . S
H503 C477 0.979 . S
H504 C477 0.980 . S
H505 C477 0.983 . S
H506 C450 0.947 . S
C507 C450 1.392 . S
C507 C451 1.419 . S
C507 H489 0.948 . S
C508 C509 1.391 . S
C508 C512 1.391 . S
C508 H550 0.948 . S
C509 C508 1.391 . S
C509 C510 1.391 . S
C510 C509 1.391 . S
C510 H566 0.947 . S
C510 C567 1.392 . S
C511 C512 1.391 . S
C511 C515 1.397 . S
C511 C567 1.419 . S
C512 C508 1.391 . S
C512 C511 1.391 . S
C512 C513 1.399 . S
C513 C512 1.399 . S
C513 C516 1.396 . S
C513 C525 1.453 . S
C513 C526 1.684 . S
H514 C538 0.948 . S
C515 C511 1.397 . S
C515 C516 1.394 . S
C515 C534 1.723 . S
C516 C513 1.396 . S
C516 C515 1.394 . S
C516 C546 1.723 . S
H517 C540 0.947 . S
H518 C541 0.948 . S
H519 C547 0.982 . S
H520 C548 0.979 . S
H521 C548 0.980 . S
H522 C548 0.983 . S
H523 C547 0.979 . S
H524 C547 0.977 . S
C525 C513 1.453 . S
C525 H554 0.982 . S
C525 H555 0.979 . S
C525 H556 0.977 . S
C526 C513 1.684 . S
C526 H551 0.979 . S
C526 H552 0.980 . S
C526 H553 0.983 . S
C527 C528 1.391 . S
C527 C532 1.391 . S
C527 H557 0.948 . S
C528 C527 1.391 . S
C528 C529 1.391 . S
C529 C528 1.391 . S
C529 C530 1.392 . S
C529 H558 0.947 . S
C530 C529 1.392 . S
C530 C531 1.419 . S
C530 H559 0.948 . S
C531 C530 1.419 . S
C531 C532 1.391 . S
C531 C535 1.397 . S
C532 C527 1.391 . S
C532 C531 1.391 . S
C532 C533 1.399 . S
C533 C532 1.399 . S
C533 C534 1.396 . S
C533 C536 1.453 . S
C533 C537 1.684 . S
C534 C515 1.723 . S
C534 C533 1.396 . S
C534 C535 1.394 . S
C535 C531 1.397 . S
C535 C534 1.394 . S
C535 C545 1.723 . S
C536 C533 1.453 . S
C536 H560 0.982 . S
C536 H561 0.979 . S
C536 H562 0.977 . S
C537 C533 1.684 . S
C537 H563 0.979 . S
C537 H564 0.980 . S
C537 H565 0.983 . S
C538 H514 0.948 . S
C538 C539 1.391 . S
C538 C543 1.391 . S
C539 C538 1.391 . S
C539 C540 1.391 . S
C540 H517 0.947 . S
C540 C539 1.391 . S
C540 C541 1.392 . S
C541 H518 0.948 . S
C541 C540 1.392 . S
C541 C542 1.419 . S
C542 C541 1.419 . S
C542 C543 1.391 . S
C542 C546 1.397 . S
C543 C538 1.391 . S
C543 C542 1.391 . S
C543 C544 1.399 . S
C544 C543 1.399 . S
C544 C545 1.396 . S
C544 C547 1.453 . S
C544 C548 1.684 . S
C545 C535 1.723 . S
C545 C544 1.396 . S
C545 C546 1.394 . S
C546 C516 1.723 . S
C546 C542 1.397 . S
C546 C545 1.394 . S
C547 H519 0.982 . S
C547 H523 0.979 . S
C547 H524 0.977 . S
C547 C544 1.453 . S
C548 H520 0.979 . S
C548 H521 0.980 . S
C548 H522 0.983 . S
C548 C544 1.684 . S
H549 C567 0.948 . S
H550 C508 0.948 . S
H551 C526 0.979 . S
H552 C526 0.980 . S
H553 C526 0.983 . S
H554 C525 0.982 . S
H555 C525 0.979 . S
H556 C525 0.977 . S
H557 C527 0.948 . S
H558 C529 0.947 . S
H559 C530 0.948 . S
H560 C536 0.982 . S
H561 C536 0.979 . S
H562 C536 0.977 . S
H563 C537 0.979 . S
H564 C537 0.980 . S
H565 C537 0.983 . S
H566 C510 0.947 . S
C567 C510 1.392 . S
C567 C511 1.419 . S
C567 H549 0.948 . S
C568 C569 1.391 . S
C568 C570 1.394 . S
C568 H584 0.931 . S
C569 C568 1.391 . S
C569 C573 1.376 . S
C570 C568 1.394 . S
C570 C571 1.369 . S
C570 C574 1.531 . S
C571 C570 1.369 . S
C571 C572 1.410 . S
C571 C579 1.503 . S
C572 C571 1.410 . S
C572 C573 1.392 . S
C572 C575 1.511 . S
C573 C569 1.376 . S
C573 C572 1.392 . S
C573 H585 0.929 . S
C574 C570 1.531 . S
C574 H586 0.960 . S
C574 H587 0.962 . S
C574 H588 0.960 . S
C575 C572 1.511 . S
C575 H589 0.961 . S
C575 H590 0.961 . S
C575 H591 0.961 . S
C576 C577 1.370 . S
C576 C578 1.363 1_545 S
C576 H592 0.931 . S
C577 C576 1.370 . S
C577 C581 1.426 . S
C578 C576 1.363 1_565 S
C578 C579 1.370 . S
C578 C582 1.524 . S
C579 C571 1.503 . S
C579 C578 1.370 . S
C579 C580 1.403 . S
C580 C579 1.403 . S
C580 C581 1.381 1_565 S
C580 C583 1.539 . S
C581 C577 1.426 . S
C581 C580 1.381 1_545 S
C581 H593 0.935 . S
C582 C578 1.524 . S
C582 H594 0.956 . S
C582 H595 0.961 . S
C582 H596 0.961 1_565 S
C583 C580 1.539 . S
C583 H597 0.958 . S
C583 H598 0.961 . S
C583 H599 0.960 . S
H584 C568 0.931 . S
H585 C573 0.929 . S
H586 C574 0.960 . S
H587 C574 0.962 . S
H588 C574 0.960 . S
H589 C575 0.961 . S
H590 C575 0.961 . S
H591 C575 0.961 . S
H592 C576 0.931 . S
H593 C581 0.935 . S
H594 C582 0.956 . S
H595 C582 0.961 . S
H596 C582 0.961 1_545 S
H597 C583 0.958 . S
H598 C583 0.961 . S
H599 C583 0.960 . S
C600 C601 1.391 . S
C600 C602 1.394 . S
C600 H616 0.931 . S
C601 C600 1.391 . S
C601 C605 1.376 . S
C602 C600 1.394 . S
C602 C603 1.369 . S
C602 C606 1.531 . S
C603 C602 1.369 . S
C603 C604 1.410 . S
C603 C611 1.503 . S
C604 C603 1.410 . S
C604 C605 1.392 . S
C604 C607 1.511 . S
C605 C601 1.376 . S
C605 C604 1.392 . S
C605 H617 0.929 . S
C606 C602 1.531 . S
C606 H618 0.960 . S
C606 H619 0.962 . S
C606 H620 0.960 . S
C607 C604 1.511 . S
C607 H621 0.961 . S
C607 H622 0.961 . S
C607 H623 0.961 . S
C608 C609 1.370 . S
C608 C610 1.363 . S
C608 H624 0.931 . S
C609 C608 1.370 . S
C609 C613 1.408 . S
C610 C608 1.363 . S
C610 C611 1.370 . S
C610 C614 1.524 . S
C611 C603 1.503 . S
C611 C610 1.370 . S
C611 C612 1.403 . S
C612 C611 1.403 . S
C612 C613 1.404 . S
C612 C615 1.539 . S
C613 C609 1.408 . S
C613 C612 1.404 . S
C613 H625 0.930 . S
C614 C610 1.524 . S
C614 H626 0.956 . S
C614 H627 0.961 . S
C614 H628 0.961 . S
C615 C612 1.539 . S
C615 H629 0.958 . S
C615 H630 0.961 . S
C615 H631 0.960 . S
H616 C600 0.931 . S
H617 C605 0.929 . S
H618 C606 0.960 . S
H619 C606 0.962 . S
H620 C606 0.960 . S
H621 C607 0.961 . S
H622 C607 0.961 . S
H623 C607 0.961 . S
H624 C608 0.931 . S
H625 C613 0.930 . S
H626 C614 0.956 . S
H627 C614 0.961 . S
H628 C614 0.961 . S
H629 C615 0.958 . S
H630 C615 0.961 . S
H631 C615 0.960 . S
C632 C633 1.391 . S
C632 C634 1.394 . S
C632 H648 0.931 . S
C633 C632 1.391 . S
C633 C637 1.376 . S
C634 C632 1.394 . S
C634 C635 1.369 . S
C634 C638 1.531 . S
C635 C634 1.369 . S
C635 C636 1.410 . S
C635 C643 1.503 . S
C636 C635 1.410 . S
C636 C637 1.392 . S
C636 C639 1.511 . S
C637 C633 1.376 . S
C637 C636 1.392 . S
C637 H649 0.929 . S
C638 C634 1.531 . S
C638 H650 0.960 . S
C638 H651 0.962 . S
C638 H652 0.960 . S
C639 C636 1.511 . S
C639 H653 0.961 . S
C639 H654 0.961 . S
C639 H655 0.961 . S
C640 C641 1.393 . S
C640 C642 1.337 1_565 S
C640 H656 0.935 . S
C641 C640 1.393 . S
C641 C645 1.408 . S
C642 C640 1.337 1_545 S
C642 C643 1.370 . S
C642 C646 1.524 . S
C643 C635 1.503 . S
C643 C642 1.370 . S
C643 C644 1.403 . S
C644 C643 1.403 . S
C644 C645 1.404 1_545 S
C644 C647 1.539 . S
C645 C641 1.408 . S
C645 C644 1.404 1_565 S
C645 H657 0.930 . S
C646 C642 1.524 . S
C646 H658 0.956 . S
C646 H659 0.961 . S
C646 H660 0.961 . S
C647 C644 1.539 . S
C647 H661 0.958 . S
C647 H662 0.961 1_545 S
C647 H663 0.960 . S
H648 C632 0.931 . S
H649 C637 0.929 . S
H650 C638 0.960 . S
H651 C638 0.962 . S
H652 C638 0.960 . S
H653 C639 0.961 . S
H654 C639 0.961 . S
H655 C639 0.961 . S
H656 C640 0.935 . S
H657 C645 0.930 . S
H658 C646 0.956 . S
H659 C646 0.961 . S
H660 C646 0.961 . S
H661 C647 0.958 . S
H662 C647 0.961 1_565 S
H663 C647 0.960 . S
C664 C665 1.391 . S
C664 C666 1.394 . S
C664 H680 0.931 . S
C665 C664 1.391 . S
C665 C669 1.376 . S
C666 C664 1.394 . S
C666 C667 1.369 . S
C666 C670 1.531 . S
C667 C666 1.369 . S
C667 C668 1.410 . S
C667 C675 1.503 . S
C668 C667 1.410 . S
C668 C669 1.392 . S
C668 C671 1.511 . S
C669 C665 1.376 . S
C669 C668 1.392 . S
C669 H681 0.929 . S
C670 C666 1.531 . S
C670 H682 0.960 . S
C670 H683 0.962 . S
C670 H684 0.960 . S
C671 C668 1.511 . S
C671 H685 0.961 . S
C671 H686 0.961 . S
C671 H687 0.961 . S
C672 C673 1.370 . S
C672 C674 1.363 . S
C672 H688 0.931 . S
C673 C672 1.370 . S
C673 C677 1.408 . S
C674 C672 1.363 . S
C674 C675 1.370 . S
C674 C678 1.524 . S
C675 C667 1.503 . S
C675 C674 1.370 . S
C675 C676 1.403 . S
C676 C675 1.403 . S
C676 C677 1.404 . S
C676 C679 1.539 . S
C677 C673 1.408 . S
C677 C676 1.404 . S
C677 H689 0.930 . S
C678 C674 1.524 . S
C678 H690 0.956 . S
C678 H691 0.961 . S
C678 H692 0.961 . S
C679 C676 1.539 . S
C679 H693 0.958 . S
C679 H694 0.961 . S
C679 H695 0.960 . S
H680 C664 0.931 . S
H681 C669 0.929 . S
H682 C670 0.960 . S
H683 C670 0.962 . S
H684 C670 0.960 . S
H685 C671 0.961 . S
H686 C671 0.961 . S
H687 C671 0.961 . S
H688 C672 0.931 . S
H689 C677 0.930 . S
H690 C678 0.956 . S
H691 C678 0.961 . S
H692 C678 0.961 . S
H693 C679 0.958 . S
H694 C679 0.961 . S
H695 C679 0.960 . S
C696 C697 1.391 . S
C696 C698 1.394 . S
C696 H712 0.931 . S
C697 C696 1.391 . S
C697 C701 1.376 . S
C698 C696 1.394 . S
C698 C699 1.369 . S
C698 C702 1.531 . S
C699 C698 1.369 . S
C699 C700 1.410 . S
C699 C707 1.503 . S
C700 C699 1.410 . S
C700 C701 1.392 . S
C700 C703 1.511 . S
C701 C697 1.376 . S
C701 C700 1.392 . S
C701 H713 0.929 . S
C702 C698 1.531 . S
C702 H714 0.960 . S
C702 H715 0.962 . S
C702 H716 0.960 . S
C703 C700 1.511 . S
C703 H717 0.961 . S
C703 H718 0.961 . S
C703 H719 0.961 . S
C704 C705 1.370 . S
C704 C706 1.363 . S
C704 H720 0.931 . S
C705 C704 1.370 . S
C705 C709 1.408 . S
C706 C704 1.363 . S
C706 C707 1.370 . S
C706 C710 1.524 . S
C707 C699 1.503 . S
C707 C706 1.370 . S
C707 C708 1.403 . S
C708 C707 1.403 . S
C708 C709 1.404 . S
C708 C711 1.539 . S
C709 C705 1.408 . S
C709 C708 1.404 . S
C709 H721 0.930 . S
C710 C706 1.524 . S
C710 H722 0.956 . S
C710 H723 0.961 . S
C710 H724 0.961 . S
C711 C708 1.539 . S
C711 H725 0.958 . S
C711 H726 0.961 . S
C711 H727 0.960 . S
H712 C696 0.931 . S
H713 C701 0.929 . S
H714 C702 0.960 . S
H715 C702 0.962 . S
H716 C702 0.960 . S
H717 C703 0.961 . S
H718 C703 0.961 . S
H719 C703 0.961 . S
H720 C704 0.931 . S
H721 C709 0.930 . S
H722 C710 0.956 . S
H723 C710 0.961 . S
H724 C710 0.961 . S
H725 C711 0.958 . S
H726 C711 0.961 . S
H727 C711 0.960 . S
C728 C729 1.391 . S
C728 C730 1.394 . S
C728 H744 0.931 . S
C729 C728 1.391 . S
C729 C733 1.376 . S
C730 C728 1.394 . S
C730 C731 1.369 . S
C730 C734 1.531 . S
C731 C730 1.369 . S
C731 C732 1.410 . S
C731 C739 1.503 . S
C732 C731 1.410 . S
C732 C733 1.392 . S
C732 C735 1.511 . S
C733 C729 1.376 . S
C733 C732 1.392 . S
C733 H745 0.929 . S
C734 C730 1.531 . S
C734 H746 0.960 . S
C734 H747 0.962 . S
C734 H748 0.960 . S
C735 C732 1.511 . S
C735 H749 0.961 . S
C735 H750 0.961 . S
C735 H751 0.961 . S
C736 C737 1.370 . S
C736 C738 1.363 1_455 S
C736 H752 0.931 . S
C737 C736 1.370 . S
C737 C741 1.408 1_455 S
C738 C736 1.363 1_655 S
C738 C739 1.370 . S
C738 C742 1.524 1_655 S
C739 C731 1.503 . S
C739 C738 1.370 . S
C739 C740 1.403 . S
C740 C739 1.403 . S
C740 C741 1.404 . S
C740 C743 1.539 . S
C741 C737 1.408 1_655 S
C741 C740 1.404 . S
C741 H753 0.930 . S
C742 C738 1.524 1_455 S
C742 H754 0.956 1_455 S
C742 H755 0.961 1_455 S
C742 H756 0.961 . S
C743 C740 1.539 . S
C743 H757 0.958 . S
C743 H758 0.961 . S
C743 H759 0.960 . S
H744 C728 0.931 . S
H745 C733 0.929 . S
H746 C734 0.960 . S
H747 C734 0.962 . S
H748 C734 0.960 . S
H749 C735 0.961 . S
H750 C735 0.961 . S
H751 C735 0.961 . S
H752 C736 0.931 . S
H753 C741 0.930 . S
H754 C742 0.956 1_655 S
H755 C742 0.961 1_655 S
H756 C742 0.961 . S
H757 C743 0.958 . S
H758 C743 0.961 . S
H759 C743 0.960 . S
C760 C761 1.391 . S
C760 C762 1.394 . S
C760 H776 0.931 . S
C761 C760 1.391 . S
C761 C765 1.376 . S
C762 C760 1.394 . S
C762 C763 1.369 . S
C762 C766 1.531 . S
C763 C762 1.369 . S
C763 C764 1.410 . S
C763 C771 1.503 . S
C764 C763 1.410 . S
C764 C765 1.392 . S
C764 C767 1.511 . S
C765 C761 1.376 . S
C765 C764 1.392 . S
C765 H777 0.929 . S
C766 C762 1.531 . S
C766 H778 0.960 . S
C766 H779 0.962 . S
C766 H780 0.960 . S
C767 C764 1.511 . S
C767 H781 0.961 . S
C767 H782 0.961 . S
C767 H783 0.961 . S
C768 C769 1.370 . S
C768 C770 1.363 . S
C768 H784 0.931 . S
C769 C768 1.370 . S
C769 C773 1.408 . S
C770 C768 1.363 . S
C770 C771 1.370 . S
C770 C774 1.524 . S
C771 C763 1.503 . S
C771 C770 1.370 . S
C771 C772 1.403 . S
C772 C771 1.403 . S
C772 C773 1.404 . S
C772 C775 1.539 . S
C773 C769 1.408 . S
C773 C772 1.404 . S
C773 H785 0.930 . S
C774 C770 1.524 . S
C774 H786 0.956 . S
C774 H787 0.961 . S
C774 H788 0.961 . S
C775 C772 1.539 . S
C775 H789 0.958 . S
C775 H790 0.961 . S
C775 H791 0.960 . S
H776 C760 0.931 . S
H777 C765 0.929 . S
H778 C766 0.960 . S
H779 C766 0.962 . S
H780 C766 0.960 . S
H781 C767 0.961 . S
H782 C767 0.961 . S
H783 C767 0.961 . S
H784 C768 0.931 . S
H785 C773 0.930 . S
H786 C774 0.956 . S
H787 C774 0.961 . S
H788 C774 0.961 . S
H789 C775 0.958 . S
H790 C775 0.961 . S
H791 C775 0.960 . S
C792 C793 1.391 . S
C792 C794 1.394 . S
C792 H808 0.931 . S
C793 C792 1.391 . S
C793 C797 1.376 . S
C794 C792 1.394 . S
C794 C795 1.369 . S
C794 C798 1.531 . S
C795 C794 1.369 . S
C795 C796 1.410 . S
C795 C803 1.503 . S
C796 C795 1.410 . S
C796 C797 1.392 . S
C796 C799 1.511 . S
C797 C793 1.376 . S
C797 C796 1.392 . S
C797 H809 0.929 . S
C798 C794 1.531 . S
C798 H810 0.960 . S
C798 H811 0.962 . S
C798 H812 0.960 . S
C799 C796 1.511 . S
C799 H813 0.961 . S
C799 H814 0.961 . S
C799 H815 0.961 . S
C800 C801 1.370 . S
C800 C802 1.363 1_655 S
C800 H816 0.931 . S
C801 C800 1.370 . S
C801 C805 1.408 . S
C802 C800 1.363 1_455 S
C802 C803 1.370 . S
C802 C806 1.524 . S
C803 C795 1.503 . S
C803 C802 1.370 . S
C803 C804 1.403 . S
C804 C803 1.403 . S
C804 C805 1.404 1_455 S
C804 C807 1.539 . S
C805 C801 1.408 . S
C805 C804 1.404 1_655 S
C805 H817 0.930 . S
C806 C802 1.524 . S
C806 H818 0.956 . S
C806 H819 0.961 . S
C806 H820 0.961 . S
C807 C804 1.539 . S
C807 H821 0.958 . S
C807 H822 0.961 . S
C807 H823 0.960 . S
H808 C792 0.931 . S
H809 C797 0.929 . S
H810 C798 0.960 . S
H811 C798 0.962 . S
H812 C798 0.960 . S
H813 C799 0.961 . S
H814 C799 0.961 . S
H815 C799 0.961 . S
H816 C800 0.931 . S
H817 C805 0.930 . S
H818 C806 0.956 . S
H819 C806 0.961 . S
H820 C806 0.961 . S
H821 C807 0.958 . S
H822 C807 0.961 . S
H823 C807 0.960 . S
C824 C825 1.391 . S
C824 C826 1.394 . S
C824 H840 0.931 . S
C825 C824 1.391 . S
C825 C829 1.376 . S
C826 C824 1.394 . S
C826 C827 1.369 . S
C826 C830 1.531 . S
C827 C826 1.369 . S
C827 C828 1.410 . S
C827 C835 1.503 . S
C828 C827 1.410 . S
C828 C829 1.392 . S
C828 C831 1.511 . S
C829 C825 1.376 . S
C829 C828 1.392 . S
C829 H841 0.929 . S
C830 C826 1.531 . S
C830 H842 0.960 . S
C830 H843 0.962 . S
C830 H844 0.960 . S
C831 C828 1.511 . S
C831 H845 0.961 . S
C831 H846 0.961 . S
C831 H847 0.961 . S
C832 C833 1.370 . S
C832 C834 1.363 1_565 S
C832 H848 0.931 . S
C833 C832 1.370 . S
C833 C837 1.408 1_565 S
C834 C832 1.363 1_545 S
C834 C835 1.370 . S
C834 C838 1.525 . S
C835 C827 1.503 . S
C835 C834 1.370 . S
C835 C836 1.403 . S
C836 C835 1.403 . S
C836 C837 1.404 . S
C836 C839 1.539 . S
C837 C833 1.408 1_545 S
C837 C836 1.404 . S
C837 H849 0.930 . S
C838 C834 1.525 . S
C838 H850 0.957 . S
C838 H851 0.967 . S
C838 H852 0.952 1_545 S
C839 C836 1.539 . S
C839 H853 0.958 . S
C839 H854 0.961 . S
C839 H855 0.960 . S
H840 C824 0.931 . S
H841 C829 0.929 . S
H842 C830 0.960 . S
H843 C830 0.962 . S
H844 C830 0.960 . S
H845 C831 0.961 . S
H846 C831 0.961 . S
H847 C831 0.961 . S
H848 C832 0.931 . S
H849 C837 0.930 . S
H850 C838 0.957 . S
H851 C838 0.967 . S
H852 C838 0.952 1_565 S
H853 C839 0.958 . S
H854 C839 0.961 . S
H855 C839 0.960 . S
C856 C857 1.391 . S
C856 C858 1.394 . S
C856 H872 0.931 . S
C857 C856 1.391 . S
C857 C861 1.376 . S
C858 C856 1.394 . S
C858 C859 1.369 . S
C858 C862 1.531 . S
C859 C858 1.369 . S
C859 C860 1.410 . S
C859 C867 1.503 . S
C860 C859 1.410 . S
C860 C861 1.392 . S
C860 C863 1.511 . S
C861 C857 1.376 . S
C861 C860 1.392 . S
C861 H873 0.929 . S
C862 C858 1.531 . S
C862 H874 0.960 . S
C862 H875 0.962 . S
C862 H876 0.960 . S
C863 C860 1.511 . S
C863 H877 0.961 . S
C863 H878 0.961 . S
C863 H879 0.961 . S
C864 C865 1.370 . S
C864 C866 1.363 . S
C864 H880 0.931 . S
C865 C864 1.370 . S
C865 C869 1.408 . S
C866 C864 1.363 . S
C866 C867 1.370 . S
C866 C870 1.524 . S
C867 C859 1.503 . S
C867 C866 1.370 . S
C867 C868 1.403 . S
C868 C867 1.403 . S
C868 C869 1.404 . S
C868 C871 1.539 . S
C869 C865 1.408 . S
C869 C868 1.404 . S
C869 H881 0.930 . S
C870 C866 1.524 . S
C870 H882 0.956 . S
C870 H883 0.961 . S
C870 H884 0.961 . S
C871 C868 1.539 . S
C871 H885 0.958 . S
C871 H886 0.961 . S
C871 H887 0.960 . S
H872 C856 0.931 . S
H873 C861 0.929 . S
H874 C862 0.960 . S
H875 C862 0.962 . S
H876 C862 0.960 . S
H877 C863 0.961 . S
H878 C863 0.961 . S
H879 C863 0.961 . S
H880 C864 0.931 . S
H881 C869 0.930 . S
H882 C870 0.956 . S
H883 C870 0.961 . S
H884 C870 0.961 . S
H885 C871 0.958 . S
H886 C871 0.961 . S
H887 C871 0.960 . S
C888 C889 1.391 . S
C888 C890 1.394 . S
C888 H904 0.931 . S
C889 C888 1.391 . S
C889 C893 1.376 . S
C890 C888 1.394 . S
C890 C891 1.369 . S
C890 C894 1.531 . S
C891 C890 1.369 . S
C891 C892 1.410 . S
C891 C899 1.503 . S
C892 C891 1.410 . S
C892 C893 1.392 . S
C892 C895 1.511 . S
C893 C889 1.376 . S
C893 C892 1.392 . S
C893 H905 0.929 . S
C894 C890 1.531 . S
C894 H906 0.960 . S
C894 H907 0.962 . S
C894 H908 0.960 . S
C895 C892 1.511 . S
C895 H909 0.961 . S
C895 H910 0.961 . S
C895 H911 0.961 . S
C896 C897 1.370 . S
C896 C898 1.363 1_545 S
C896 H912 0.931 . S
C897 C896 1.370 . S
C897 C901 1.408 1_545 S
C898 C896 1.363 1_565 S
C898 C899 1.370 . S
C898 C902 1.524 . S
C899 C891 1.503 . S
C899 C898 1.370 . S
C899 C900 1.403 . S
C900 C899 1.403 . S
C900 C901 1.404 . S
C900 C903 1.539 . S
C901 C897 1.408 1_565 S
C901 C900 1.404 . S
C901 H913 0.932 . S
C902 C898 1.524 . S
C902 H914 0.956 . S
C902 H915 0.961 . S
C902 H916 0.961 1_565 S
C903 C900 1.539 . S
C903 H917 0.958 . S
C903 H918 0.961 . S
C903 H919 0.960 . S
H904 C888 0.931 . S
H905 C893 0.929 . S
H906 C894 0.960 . S
H907 C894 0.962 . S
H908 C894 0.960 . S
H909 C895 0.961 . S
H910 C895 0.961 . S
H911 C895 0.961 . S
H912 C896 0.931 . S
H913 C901 0.932 . S
H914 C902 0.956 . S
H915 C902 0.961 . S
H916 C902 0.961 1_545 S
H917 C903 0.958 . S
H918 C903 0.961 . S
H919 C903 0.960 . S
C920 C921 1.391 . S
C920 C922 1.394 . S
C920 H936 0.931 . S
C921 C920 1.391 . S
C921 C925 1.376 . S
C922 C920 1.394 . S
C922 C923 1.369 . S
C922 C926 1.531 . S
C923 C922 1.369 . S
C923 C924 1.410 . S
C923 C931 1.503 . S
C924 C923 1.410 . S
C924 C925 1.392 . S
C924 C927 1.511 . S
C925 C921 1.376 . S
C925 C924 1.392 . S
C925 H937 0.929 . S
C926 C922 1.531 . S
C926 H938 0.960 . S
C926 H939 0.962 . S
C926 H940 0.960 . S
C927 C924 1.511 . S
C927 H941 0.961 . S
C927 H942 0.961 . S
C927 H943 0.961 . S
C928 C929 1.370 . S
C928 C930 1.363 . S
C928 H944 0.931 . S
C929 C928 1.370 . S
C929 C933 1.408 . S
C930 C928 1.363 . S
C930 C931 1.370 . S
C930 C934 1.524 . S
C931 C923 1.503 . S
C931 C930 1.370 . S
C931 C932 1.403 . S
C932 C931 1.403 . S
C932 C933 1.404 . S
C932 C935 1.539 . S
C933 C929 1.408 . S
C933 C932 1.404 . S
C933 H945 0.930 . S
C934 C930 1.524 . S
C934 H946 0.956 . S
C934 H947 0.961 . S
C934 H948 0.961 . S
C935 C932 1.539 . S
C935 H949 0.958 . S
C935 H950 0.961 . S
C935 H951 0.960 . S
H936 C920 0.931 . S
H937 C925 0.929 . S
H938 C926 0.960 . S
H939 C926 0.962 . S
H940 C926 0.960 . S
H941 C927 0.961 . S
H942 C927 0.961 . S
H943 C927 0.961 . S
H944 C928 0.931 . S
H945 C933 0.930 . S
H946 C934 0.956 . S
H947 C934 0.961 . S
H948 C934 0.961 . S
H949 C935 0.958 . S
H950 C935 0.961 . S
H951 C935 0.960 . S
C952 C953 1.391 . S
C952 C954 1.394 . S
C952 H968 0.931 . S
C953 C952 1.391 . S
C953 C957 1.376 . S
C954 C952 1.394 . S
C954 C955 1.369 . S
C954 C958 1.531 . S
C955 C954 1.369 . S
C955 C956 1.410 . S
C955 C963 1.503 . S
C956 C955 1.410 . S
C956 C957 1.392 . S
C956 C959 1.511 . S
C957 C953 1.376 . S
C957 C956 1.392 . S
C957 H969 0.929 . S
C958 C954 1.531 . S
C958 H970 0.960 . S
C958 H971 0.962 . S
C958 H972 0.960 . S
C959 C956 1.511 . S
C959 H973 0.961 . S
C959 H974 0.961 . S
C959 H975 0.961 . S
C960 C961 1.370 . S
C960 C962 1.363 . S
C960 H976 0.931 . S
C961 C960 1.370 . S
C961 C965 1.408 . S
C962 C960 1.363 . S
C962 C963 1.370 . S
C962 C966 1.524 . S
C963 C955 1.503 . S
C963 C962 1.370 . S
C963 C964 1.403 . S
C964 C963 1.403 . S
C964 C965 1.404 . S
C964 C967 1.539 . S
C965 C961 1.408 . S
C965 C964 1.404 . S
C965 H977 0.930 . S
C966 C962 1.524 . S
C966 H978 0.956 . S
C966 H979 0.961 . S
C966 H980 0.961 . S
C967 C964 1.539 . S
C967 H981 0.958 . S
C967 H982 0.961 . S
C967 H983 0.960 . S
H968 C952 0.931 . S
H969 C957 0.929 . S
H970 C958 0.960 . S
H971 C958 0.962 . S
H972 C958 0.960 . S
H973 C959 0.961 . S
H974 C959 0.961 . S
H975 C959 0.961 . S
H976 C960 0.931 . S
H977 C965 0.930 . S
H978 C966 0.956 . S
H979 C966 0.961 . S
H980 C966 0.961 . S
H981 C967 0.958 . S
H982 C967 0.961 . S
H983 C967 0.960 . S
C984 C985 1.391 . S
C984 C986 1.394 . S
C984 H1000 0.931 . S
C985 C984 1.391 . S
C985 C989 1.376 . S
C986 C984 1.394 . S
C986 C987 1.369 . S
C986 C990 1.531 . S
C987 C986 1.369 . S
C987 C988 1.410 . S
C987 C995 1.503 . S
C988 C987 1.410 . S
C988 C989 1.392 . S
C988 C991 1.511 . S
C989 C985 1.376 . S
C989 C988 1.392 . S
C989 H1001 0.929 . S
C990 C986 1.531 . S
C990 H1002 0.960 . S
C990 H1003 0.962 . S
C990 H1004 0.960 . S
C991 C988 1.511 . S
C991 H1005 0.961 . S
C991 H1006 0.961 . S
C991 H1007 0.961 . S
C992 C993 1.370 . S
C992 C994 1.363 1_655 S
C992 H1008 0.931 . S
C993 C992 1.370 . S
C993 C997 1.408 1_655 S
C994 C992 1.363 1_455 S
C994 C995 1.370 . S
C994 C998 1.524 1_455 S
C995 C987 1.503 . S
C995 C994 1.370 . S
C995 C996 1.403 . S
C996 C995 1.403 . S
C996 C997 1.404 . S
C996 C999 1.539 . S
C997 C993 1.408 1_455 S
C997 C996 1.404 . S
C997 H1009 0.930 . S
C998 C994 1.524 1_655 S
C998 H1010 0.956 1_655 S
C998 H1011 0.961 1_655 S
C998 H1012 0.961 . S
C999 C996 1.539 . S
C999 H1013 0.958 . S
C999 H1014 0.961 . S
C999 H1015 0.960 . S
H1000 C984 0.931 . S
H1001 C989 0.929 . S
H1002 C990 0.960 . S
H1003 C990 0.962 . S
H1004 C990 0.960 . S
H1005 C991 0.961 . S
H1006 C991 0.961 . S
H1007 C991 0.961 . S
H1008 C992 0.931 . S
H1009 C997 0.930 . S
H1010 C998 0.956 1_455 S
H1011 C998 0.961 1_455 S
H1012 C998 0.961 . S
H1013 C999 0.958 . S
H1014 C999 0.961 . S
H1015 C999 0.960 . S
C1016 C1017 1.391 . S
C1016 C1018 1.394 . S
C1016 H1032 0.931 . S
C1017 C1016 1.391 . S
C1017 C1021 1.376 . S
C1018 C1016 1.394 . S
C1018 C1019 1.369 . S
C1018 C1022 1.531 . S
C1019 C1018 1.369 . S
C1019 C1020 1.410 . S
C1019 C1027 1.503 . S
C1020 C1019 1.410 . S
C1020 C1021 1.392 . S
C1020 C1023 1.511 . S
C1021 C1017 1.376 . S
C1021 C1020 1.392 . S
C1021 H1033 0.929 . S
C1022 C1018 1.531 . S
C1022 H1034 0.960 . S
C1022 H1035 0.962 . S
C1022 H1036 0.960 . S
C1023 C1020 1.511 . S
C1023 H1037 0.961 . S
C1023 H1038 0.961 . S
C1023 H1039 0.961 . S
C1024 C1025 1.370 . S
C1024 C1026 1.363 . S
C1024 H1040 0.931 . S
C1025 C1024 1.370 . S
C1025 C1029 1.408 . S
C1026 C1024 1.363 . S
C1026 C1027 1.370 . S
C1026 C1030 1.524 . S
C1027 C1019 1.503 . S
C1027 C1026 1.370 . S
C1027 C1028 1.403 . S
C1028 C1027 1.403 . S
C1028 C1029 1.404 . S
C1028 C1031 1.539 . S
C1029 C1025 1.408 . S
C1029 C1028 1.404 . S
C1029 H1041 0.930 . S
C1030 C1026 1.524 . S
C1030 H1042 0.956 . S
C1030 H1043 0.961 . S
C1030 H1044 0.961 . S
C1031 C1028 1.539 . S
C1031 H1045 0.958 . S
C1031 H1046 0.961 . S
C1031 H1047 0.960 . S
H1032 C1016 0.931 . S
H1033 C1021 0.929 . S
H1034 C1022 0.960 . S
H1035 C1022 0.962 . S
H1036 C1022 0.960 . S
H1037 C1023 0.961 . S
H1038 C1023 0.961 . S
H1039 C1023 0.961 . S
H1040 C1024 0.931 . S
H1041 C1029 0.930 . S
H1042 C1030 0.956 . S
H1043 C1030 0.961 . S
H1044 C1030 0.961 . S
H1045 C1031 0.958 . S
H1046 C1031 0.961 . S
H1047 C1031 0.960 . S
C1048 C1049 1.391 . S
C1048 C1050 1.394 . S
C1048 H1064 0.931 . S
C1049 C1048 1.391 . S
C1049 C1053 1.376 . S
C1050 C1048 1.394 . S
C1050 C1051 1.369 . S
C1050 C1054 1.531 . S
C1051 C1050 1.369 . S
C1051 C1052 1.410 . S
C1051 C1059 1.503 . S
C1052 C1051 1.410 . S
C1052 C1053 1.392 . S
C1052 C1055 1.511 . S
C1053 C1049 1.376 . S
C1053 C1052 1.392 . S
C1053 H1065 0.929 . S
C1054 C1050 1.531 . S
C1054 H1066 0.985 . S
C1054 H1067 0.962 . S
C1054 H1068 0.960 . S
C1055 C1052 1.511 . S
C1055 H1069 0.961 . S
C1055 H1070 0.961 . S
C1055 H1071 0.961 . S
C1056 C1057 1.370 . S
C1056 C1058 1.363 1_455 S
C1056 H1072 0.931 . S
C1057 C1056 1.370 . S
C1057 C1061 1.408 . S
C1058 C1056 1.363 1_655 S
C1058 C1059 1.370 . S
C1058 C1062 1.524 . S
C1059 C1051 1.503 . S
C1059 C1058 1.370 . S
C1059 C1060 1.403 . S
C1060 C1059 1.403 . S
C1060 C1061 1.404 1_655 S
C1060 C1063 1.539 . S
C1061 C1057 1.408 . S
C1061 C1060 1.404 1_455 S
C1061 H1073 0.930 . S
C1062 C1058 1.524 . S
C1062 H1074 0.956 . S
C1062 H1075 0.961 . S
C1062 H1076 0.961 . S
C1063 C1060 1.539 . S
C1063 H1077 0.950 1_655 S
C1063 H1078 0.961 . S
C1063 H1079 0.960 . S
H1064 C1048 0.931 . S
H1065 C1053 0.929 . S
H1066 C1054 0.985 . S
H1067 C1054 0.962 . S
H1068 C1054 0.960 . S
H1069 C1055 0.961 . S
H1070 C1055 0.961 . S
H1071 C1055 0.961 . S
H1072 C1056 0.931 . S
H1073 C1061 0.930 . S
H1074 C1062 0.956 . S
H1075 C1062 0.961 . S
H1076 C1062 0.961 . S
H1077 C1063 0.950 1_455 S
H1078 C1063 0.961 . S
H1079 C1063 0.960 . S
C1080 C1081 1.391 . S
C1080 C1082 1.394 . S
C1080 H1096 0.931 . S
C1081 C1080 1.391 . S
C1081 C1085 1.376 . S
C1082 C1080 1.394 . S
C1082 C1083 1.369 . S
C1082 C1086 1.531 . S
C1083 C1082 1.369 . S
C1083 C1084 1.410 . S
C1083 C1091 1.503 . S
C1084 C1083 1.410 . S
C1084 C1085 1.392 . S
C1084 C1087 1.511 . S
C1085 C1081 1.376 . S
C1085 C1084 1.392 . S
C1085 H1097 0.929 . S
C1086 C1082 1.531 . S
C1086 H1098 0.960 . S
C1086 H1099 0.962 . S
C1086 H1100 0.960 . S
C1087 C1084 1.511 . S
C1087 H1101 0.961 . S
C1087 H1102 0.961 . S
C1087 H1103 0.961 . S
C1088 C1089 1.370 . S
C1088 C1090 1.363 . S
C1088 H1104 0.931 . S
C1089 C1088 1.370 . S
C1089 C1093 1.408 . S
C1090 C1088 1.363 . S
C1090 C1091 1.370 . S
C1090 C1094 1.524 . S
C1091 C1083 1.503 . S
C1091 C1090 1.370 . S
C1091 C1092 1.403 . S
C1092 C1091 1.403 . S
C1092 C1093 1.404 . S
C1092 C1095 1.539 . S
C1093 C1089 1.408 . S
C1093 C1092 1.404 . S
C1093 H1105 0.930 . S
C1094 C1090 1.524 . S
C1094 H1106 0.956 . S
C1094 H1107 0.961 . S
C1094 H1108 0.961 . S
C1095 C1092 1.539 . S
C1095 H1109 0.958 . S
C1095 H1110 0.961 . S
C1095 H1111 0.960 . S
H1096 C1080 0.931 . S
H1097 C1085 0.929 . S
H1098 C1086 0.960 . S
H1099 C1086 0.962 . S
H1100 C1086 0.960 . S
H1101 C1087 0.961 . S
H1102 C1087 0.961 . S
H1103 C1087 0.961 . S
H1104 C1088 0.931 . S
H1105 C1093 0.930 . S
H1106 C1094 0.956 . S
H1107 C1094 0.961 . S
H1108 C1094 0.961 . S
H1109 C1095 0.958 . S
H1110 C1095 0.961 . S
H1111 C1095 0.960 . S
C1112 C1113 1.391 . S
C1112 C1114 1.394 . S
C1112 H1128 0.931 . S
C1113 C1112 1.391 . S
C1113 C1117 1.376 . S
C1114 C1112 1.394 . S
C1114 C1115 1.369 . S
C1114 C1118 1.531 . S
C1115 C1114 1.369 . S
C1115 C1116 1.410 . S
C1115 C1123 1.503 . S
C1116 C1115 1.410 . S
C1116 C1117 1.392 . S
C1116 C1119 1.511 . S
C1117 C1113 1.376 . S
C1117 C1116 1.392 . S
C1117 H1129 0.929 . S
C1118 C1114 1.531 . S
C1118 H1130 0.960 . S
C1118 H1131 0.962 . S
C1118 H1132 0.960 . S
C1119 C1116 1.511 . S
C1119 H1133 0.961 . S
C1119 H1134 0.961 . S
C1119 H1135 0.961 . S
C1120 C1121 1.370 . S
C1120 C1122 1.363 . S
C1120 H1136 0.931 . S
C1121 C1120 1.370 . S
C1121 C1125 1.408 . S
C1122 C1120 1.363 . S
C1122 C1123 1.370 . S
C1122 C1126 1.524 . S
C1123 C1115 1.503 . S
C1123 C1122 1.370 . S
C1123 C1124 1.403 . S
C1124 C1123 1.403 . S
C1124 C1125 1.404 . S
C1124 C1127 1.539 . S
C1125 C1121 1.408 . S
C1125 C1124 1.404 . S
C1125 H1137 0.930 . S
C1126 C1122 1.524 . S
C1126 H1138 0.956 . S
C1126 H1139 0.961 . S
C1126 H1140 0.961 . S
C1127 C1124 1.539 . S
C1127 H1141 0.958 . S
C1127 H1142 0.961 . S
C1127 H1143 0.960 . S
H1128 C1112 0.931 . S
H1129 C1117 0.929 . S
H1130 C1118 0.960 . S
H1131 C1118 0.962 . S
H1132 C1118 0.960 . S
H1133 C1119 0.961 . S
H1134 C1119 0.961 . S
H1135 C1119 0.961 . S
H1136 C1120 0.931 . S
H1137 C1125 0.930 . S
H1138 C1126 0.956 . S
H1139 C1126 0.961 . S
H1140 C1126 0.961 . S
H1141 C1127 0.958 . S
H1142 C1127 0.961 . S
H1143 C1127 0.960 . S
C1144 C1145 1.391 . S
C1144 C1146 1.394 . S
C1144 H1160 0.931 . S
C1145 C1144 1.391 . S
C1145 C1149 1.376 . S
C1146 C1144 1.394 . S
C1146 C1147 1.369 . S
C1146 C1150 1.531 . S
C1147 C1146 1.369 . S
C1147 C1148 1.410 . S
C1147 C1155 1.503 . S
C1148 C1147 1.410 . S
C1148 C1149 1.392 . S
C1148 C1151 1.511 . S
C1149 C1145 1.376 . S
C1149 C1148 1.392 . S
C1149 H1161 0.929 . S
C1150 C1146 1.531 . S
C1150 H1162 0.960 . S
C1150 H1163 0.962 . S
C1150 H1164 0.960 . S
C1151 C1148 1.511 . S
C1151 H1165 0.961 . S
C1151 H1166 0.961 . S
C1151 H1167 0.961 . S
C1152 C1153 1.370 . S
C1152 C1154 1.363 . S
C1152 H1168 0.931 . S
C1153 C1152 1.370 . S
C1153 C1157 1.408 . S
C1154 C1152 1.363 . S
C1154 C1155 1.370 . S
C1154 C1158 1.524 . S
C1155 C1147 1.503 . S
C1155 C1154 1.370 . S
C1155 C1156 1.403 . S
C1156 C1155 1.403 . S
C1156 C1157 1.404 . S
C1156 C1159 1.539 . S
C1157 C1153 1.408 . S
C1157 C1156 1.404 . S
C1157 H1169 0.930 . S
C1158 C1154 1.524 . S
C1158 H1170 0.956 . S
C1158 H1171 0.961 . S
C1158 H1172 0.961 . S
C1159 C1156 1.539 . S
C1159 H1173 0.958 . S
C1159 H1174 0.961 . S
C1159 H1175 0.960 . S
H1160 C1144 0.931 . S
H1161 C1149 0.929 . S
H1162 C1150 0.960 . S
H1163 C1150 0.962 . S
H1164 C1150 0.960 . S
H1165 C1151 0.961 . S
H1166 C1151 0.961 . S
H1167 C1151 0.961 . S
H1168 C1152 0.931 . S
H1169 C1157 0.930 . S
H1170 C1158 0.956 . S
H1171 C1158 0.961 . S
H1172 C1158 0.961 . S
H1173 C1159 0.958 . S
H1174 C1159 0.961 . S
H1175 C1159 0.960 . S
C1176 C1177 1.391 . S
C1176 C1178 1.394 . S
C1176 H1192 0.931 . S
C1177 C1176 1.391 . S
C1177 C1181 1.376 . S
C1178 C1176 1.394 . S
C1178 C1179 1.369 . S
C1178 C1182 1.531 . S
C1179 C1178 1.369 . S
C1179 C1180 1.410 . S
C1179 C1187 1.503 . S
C1180 C1179 1.410 . S
C1180 C1181 1.392 . S
C1180 C1183 1.511 . S
C1181 C1177 1.376 . S
C1181 C1180 1.392 . S
C1181 H1193 0.929 . S
C1182 C1178 1.531 . S
C1182 H1194 0.960 . S
C1182 H1195 0.962 . S
C1182 H1196 0.960 . S
C1183 C1180 1.511 . S
C1183 H1197 0.961 . S
C1183 H1198 0.961 . S
C1183 H1199 0.961 . S
C1184 C1185 1.370 . S
C1184 C1186 1.363 . S
C1184 H1200 0.931 . S
C1185 C1184 1.370 . S
C1185 C1189 1.408 . S
C1186 C1184 1.363 . S
C1186 C1187 1.370 . S
C1186 C1190 1.524 . S
C1187 C1179 1.503 . S
C1187 C1186 1.370 . S
C1187 C1188 1.403 . S
C1188 C1187 1.403 . S
C1188 C1189 1.404 . S
C1188 C1191 1.539 . S
C1189 C1185 1.408 . S
C1189 C1188 1.404 . S
C1189 H1201 0.930 . S
C1190 C1186 1.524 . S
C1190 H1202 0.956 . S
C1190 H1203 0.961 . S
C1190 H1204 0.961 . S
C1191 C1188 1.539 . S
C1191 H1205 0.958 . S
C1191 H1206 0.961 . S
C1191 H1207 0.960 . S
H1192 C1176 0.931 . S
H1193 C1181 0.929 . S
H1194 C1182 0.960 . S
H1195 C1182 0.962 . S
H1196 C1182 0.960 . S
H1197 C1183 0.961 . S
H1198 C1183 0.961 . S
H1199 C1183 0.961 . S
H1200 C1184 0.931 . S
H1201 C1189 0.930 . S
H1202 C1190 0.956 . S
H1203 C1190 0.961 . S
H1204 C1190 0.961 . S
H1205 C1191 0.958 . S
H1206 C1191 0.961 . S
H1207 C1191 0.960 . S
C1208 C1209 1.391 . S
C1208 C1210 1.394 . S
C1208 H1224 0.931 . S
C1209 C1208 1.391 . S
C1209 C1213 1.376 . S
C1210 C1208 1.394 . S
C1210 C1211 1.369 . S
C1210 C1214 1.531 . S
C1211 C1210 1.369 . S
C1211 C1212 1.410 . S
C1211 C1219 1.503 . S
C1212 C1211 1.410 . S
C1212 C1213 1.392 . S
C1212 C1215 1.511 . S
C1213 C1209 1.376 . S
C1213 C1212 1.392 . S
C1213 H1225 0.929 . S
C1214 C1210 1.531 . S
C1214 H1226 0.960 . S
C1214 H1227 0.962 . S
C1214 H1228 0.960 . S
C1215 C1212 1.511 . S
C1215 H1229 0.961 . S
C1215 H1230 0.961 . S
C1215 H1231 0.961 . S
C1216 C1217 1.370 . S
C1216 C1218 1.363 . S
C1216 H1232 0.931 . S
C1217 C1216 1.370 . S
C1217 C1221 1.408 . S
C1218 C1216 1.363 . S
C1218 C1219 1.370 . S
C1218 C1222 1.524 . S
C1219 C1211 1.503 . S
C1219 C1218 1.370 . S
C1219 C1220 1.403 . S
C1220 C1219 1.403 . S
C1220 C1221 1.404 . S
C1220 C1223 1.539 . S
C1221 C1217 1.408 . S
C1221 C1220 1.404 . S
C1221 H1233 0.930 . S
C1222 C1218 1.524 . S
C1222 H1234 0.956 . S
C1222 H1235 0.961 . S
C1222 H1236 0.961 . S
C1223 C1220 1.539 . S
C1223 H1237 0.958 . S
C1223 H1238 0.961 . S
C1223 H1239 0.960 . S
H1224 C1208 0.931 . S
H1225 C1213 0.929 . S
H1226 C1214 0.960 . S
H1227 C1214 0.962 . S
H1228 C1214 0.960 . S
H1229 C1215 0.961 . S
H1230 C1215 0.961 . S
H1231 C1215 0.961 . S
H1232 C1216 0.931 . S
H1233 C1221 0.930 . S
H1234 C1222 0.956 . S
H1235 C1222 0.961 . S
H1236 C1222 0.961 . S
H1237 C1223 0.958 . S
H1238 C1223 0.961 . S
H1239 C1223 0.960 . S
C1240 C1241 1.391 . S
C1240 C1242 1.394 . S
C1240 H1256 0.931 . S
C1241 C1240 1.391 . S
C1241 C1245 1.376 . S
C1242 C1240 1.394 . S
C1242 C1243 1.369 . S
C1242 C1246 1.531 . S
C1243 C1242 1.369 . S
C1243 C1244 1.410 . S
C1243 C1251 1.503 . S
C1244 C1243 1.410 . S
C1244 C1245 1.392 . S
C1244 C1247 1.511 . S
C1245 C1241 1.376 . S
C1245 C1244 1.392 . S
C1245 H1257 0.929 . S
C1246 C1242 1.531 . S
C1246 H1258 0.960 . S
C1246 H1259 0.962 . S
C1246 H1260 0.960 . S
C1247 C1244 1.511 . S
C1247 H1261 0.961 . S
C1247 H1262 0.961 . S
C1247 H1263 0.961 . S
C1248 C1249 1.370 . S
C1248 C1250 1.363 . S
C1248 H1264 0.931 . S
C1249 C1248 1.370 . S
C1249 C1253 1.408 . S
C1250 C1248 1.363 . S
C1250 C1251 1.370 . S
C1250 C1254 1.524 . S
C1251 C1243 1.503 . S
C1251 C1250 1.370 . S
C1251 C1252 1.403 . S
C1252 C1251 1.403 . S
C1252 C1253 1.404 . S
C1252 C1255 1.539 . S
C1253 C1249 1.408 . S
C1253 C1252 1.404 . S
C1253 H1265 0.930 . S
C1254 C1250 1.524 . S
C1254 H1266 0.956 . S
C1254 H1267 0.961 . S
C1254 H1268 0.961 . S
C1255 C1252 1.539 . S
C1255 H1269 0.958 . S
C1255 H1270 0.961 . S
C1255 H1271 0.960 . S
H1256 C1240 0.931 . S
H1257 C1245 0.929 . S
H1258 C1246 0.960 . S
H1259 C1246 0.962 . S
H1260 C1246 0.960 . S
H1261 C1247 0.961 . S
H1262 C1247 0.961 . S
H1263 C1247 0.961 . S
H1264 C1248 0.931 . S
H1265 C1253 0.930 . S
H1266 C1254 0.956 . S
H1267 C1254 0.961 . S
H1268 C1254 0.961 . S
H1269 C1255 0.958 . S
H1270 C1255 0.961 . S
H1271 C1255 0.960 . S
C1272 C1273 1.391 . S
C1272 C1274 1.394 . S
C1272 H1288 0.931 . S
C1273 C1272 1.391 . S
C1273 C1277 1.376 . S
C1274 C1272 1.394 . S
C1274 C1275 1.369 . S
C1274 C1278 1.531 . S
C1275 C1274 1.369 . S
C1275 C1276 1.410 . S
C1275 C1283 1.503 . S
C1276 C1275 1.410 . S
C1276 C1277 1.392 . S
C1276 C1279 1.511 . S
C1277 C1273 1.376 . S
C1277 C1276 1.392 . S
C1277 H1289 0.929 . S
C1278 C1274 1.531 . S
C1278 H1290 0.960 . S
C1278 H1291 0.962 . S
C1278 H1292 0.960 . S
C1279 C1276 1.511 . S
C1279 H1293 0.961 . S
C1279 H1294 0.961 . S
C1279 H1295 0.961 . S
C1280 C1281 1.370 . S
C1280 C1282 1.363 . S
C1280 H1296 0.931 . S
C1281 C1280 1.370 . S
C1281 C1285 1.408 . S
C1282 C1280 1.363 . S
C1282 C1283 1.370 . S
C1282 C1286 1.524 . S
C1283 C1275 1.503 . S
C1283 C1282 1.370 . S
C1283 C1284 1.403 . S
C1284 C1283 1.403 . S
C1284 C1285 1.404 . S
C1284 C1287 1.539 . S
C1285 C1281 1.408 . S
C1285 C1284 1.404 . S
C1285 H1297 0.930 . S
C1286 C1282 1.524 . S
C1286 H1298 0.956 . S
C1286 H1299 0.961 . S
C1286 H1300 0.961 . S
C1287 C1284 1.539 . S
C1287 H1301 0.958 . S
C1287 H1302 0.961 . S
C1287 H1303 0.960 . S
H1288 C1272 0.931 . S
H1289 C1277 0.929 . S
H1290 C1278 0.960 . S
H1291 C1278 0.962 . S
H1292 C1278 0.960 . S
H1293 C1279 0.961 . S
H1294 C1279 0.961 . S
H1295 C1279 0.961 . S
H1296 C1280 0.931 . S
H1297 C1285 0.930 . S
H1298 C1286 0.956 . S
H1299 C1286 0.961 . S
H1300 C1286 0.961 . S
H1301 C1287 0.958 . S
H1302 C1287 0.961 . S
H1303 C1287 0.960 . S
C1304 C1305 1.391 . S
C1304 C1306 1.394 . S
C1304 H1320 0.931 . S
C1305 C1304 1.391 . S
C1305 C1309 1.376 . S
C1306 C1304 1.394 . S
C1306 C1307 1.369 . S
C1306 C1310 1.531 . S
C1307 C1306 1.369 . S
C1307 C1308 1.410 . S
C1307 C1315 1.503 . S
C1308 C1307 1.410 . S
C1308 C1309 1.392 . S
C1308 C1311 1.511 . S
C1309 C1305 1.376 . S
C1309 C1308 1.392 . S
C1309 H1321 0.929 . S
C1310 C1306 1.531 . S
C1310 H1322 0.960 . S
C1310 H1323 0.962 . S
C1310 H1324 0.960 . S
C1311 C1308 1.511 . S
C1311 H1325 0.961 . S
C1311 H1326 0.961 . S
C1311 H1327 0.961 . S
C1312 C1313 1.370 . S
C1312 C1314 1.363 . S
C1312 H1328 0.931 . S
C1313 C1312 1.370 . S
C1313 C1317 1.408 . S
C1314 C1312 1.363 . S
C1314 C1315 1.370 . S
C1314 C1318 1.524 . S
C1315 C1307 1.503 . S
C1315 C1314 1.370 . S
C1315 C1316 1.403 . S
C1316 C1315 1.403 . S
C1316 C1317 1.404 . S
C1316 C1319 1.539 . S
C1317 C1313 1.408 . S
C1317 C1316 1.404 . S
C1317 H1329 0.930 . S
C1318 C1314 1.524 . S
C1318 H1330 0.956 . S
C1318 H1331 0.961 . S
C1318 H1332 0.961 . S
C1319 C1316 1.539 . S
C1319 H1333 0.958 . S
C1319 H1334 0.961 . S
C1319 H1335 0.960 . S
H1320 C1304 0.931 . S
H1321 C1309 0.929 . S
H1322 C1310 0.960 . S
H1323 C1310 0.962 . S
H1324 C1310 0.960 . S
H1325 C1311 0.961 . S
H1326 C1311 0.961 . S
H1327 C1311 0.961 . S
H1328 C1312 0.931 . S
H1329 C1317 0.930 . S
H1330 C1318 0.956 . S
H1331 C1318 0.961 . S
H1332 C1318 0.961 . S
H1333 C1319 0.958 . S
H1334 C1319 0.961 . S
H1335 C1319 0.960 . S
C569 C8 1.358 . S
C577 C89 1.270 . S
C601 C31 1.337 . S
C609 C168 1.356 . S
C633 C53 1.338 . S
C641 C239 1.353 . S
C673 C299 1.356 . S
C665 C74 1.340 . S
C705 C329 1.268 . S
C697 C26 1.367 . S
C729 C48 1.368 . S
C737 C419 1.367 . S
C761 C71 1.366 . S
C769 C479 1.364 . S
C793 C5 1.339 . S
C801 C528 1.359 . S
C825 C50 1.367 . S
C833 C509 1.271 . S
C865 C348 1.364 . S
C857 C70 1.349 . S
C897 C408 1.247 . S
C889 C4 1.360 . S
C921 C28 1.335 . S
C929 C468 1.230 . S
C961 C149 1.251 . S
C953 C73 1.361 . S
C985 C7 1.367 . S
C993 C228 1.262 . S
C1025 C288 1.260 . S
C1017 C30 1.366 . S
C1057 C108 1.365 . S
C1049 C52 1.335 . S
C1089 C449 1.024 . S
C1081 C9 1.012 . S
C1121 C539 1.027 . S
C1113 C29 1.018 . S
C1145 C51 1.015 . S
C1153 C359 1.003 . S
C1185 C389 1.008 . S
C1177 C75 1.029 . S
C1217 C209 1.027 . S
C1209 C27 1.032 . S
C1241 C49 1.036 . S
C1249 C269 1.021 . S
C1281 C119 1.001 . S
C1273 C72 1.016 . S
C1313 C179 1.025 . S
C1305 C6 1.038 . S
