# Generated by pormake.
# Topology zzz, (3,6)-cn, num edge types: 1
# Building blocks:
#     Node 0, Type 0, BuildingBlock: KAKCAD_clean_linker_0, # of connection points: 3
#     Node 1, Type 0, BuildingBlock: KAKCAD_clean_linker_0, # of connection points: 3
#     Node 2, Type 0, BuildingBlock: KAKCAD_clean_linker_0, # of connection points: 3
#     Node 3, Type 0, BuildingBlock: KAKCAD_clean_linker_0, # of connection points: 3
#     Node 4, Type 0, BuildingBlock: KAKCAD_clean_linker_0, # of connection points: 3
#     Node 5, Type 0, BuildingBlock: KAKCAD_clean_linker_0, # of connection points: 3
#     Node 6, Type 0, BuildingBlock: KAKCAD_clean_linker_0, # of connection points: 3
#     Node 7, Type 0, BuildingBlock: KAKCAD_clean_linker_0, # of connection points: 3
#     Node 8, Type 1, BuildingBlock: KUMJIN_clean_sbu_0, # of connection points: 6
#     Node 9, Type 1, BuildingBlock: KUMJIN_clean_sbu_0, # of connection points: 6
#     Node 10, Type 1, BuildingBlock: KUMJIN_clean_sbu_0, # of connection points: 6
#     Node 11, Type 1, BuildingBlock: KUMJIN_clean_sbu_0, # of connection points: 6
#     Edge 12, Type (0, 1), BuildingBlock: TEMPAE_clean_linker_10, # of connection points: 2
#     Edge 13, Type (0, 1), BuildingBlock: TEMPAE_clean_linker_10, # of connection points: 2
#     Edge 14, Type (0, 1), BuildingBlock: TEMPAE_clean_linker_10, # of connection points: 2
#     Edge 15, Type (0, 1), BuildingBlock: TEMPAE_clean_linker_10, # of connection points: 2
#     Edge 16, Type (0, 1), BuildingBlock: TEMPAE_clean_linker_10, # of connection points: 2
#     Edge 17, Type (0, 1), BuildingBlock: TEMPAE_clean_linker_10, # of connection points: 2
#     Edge 18, Type (0, 1), BuildingBlock: TEMPAE_clean_linker_10, # of connection points: 2
#     Edge 19, Type (0, 1), BuildingBlock: TEMPAE_clean_linker_10, # of connection points: 2
#     Edge 20, Type (0, 1), BuildingBlock: TEMPAE_clean_linker_10, # of connection points: 2
#     Edge 21, Type (0, 1), BuildingBlock: TEMPAE_clean_linker_10, # of connection points: 2
#     Edge 22, Type (0, 1), BuildingBlock: TEMPAE_clean_linker_10, # of connection points: 2
#     Edge 23, Type (0, 1), BuildingBlock: TEMPAE_clean_linker_10, # of connection points: 2
#     Edge 24, Type (0, 1), BuildingBlock: TEMPAE_clean_linker_10, # of connection points: 2
#     Edge 25, Type (0, 1), BuildingBlock: TEMPAE_clean_linker_10, # of connection points: 2
#     Edge 26, Type (0, 1), BuildingBlock: TEMPAE_clean_linker_10, # of connection points: 2
#     Edge 27, Type (0, 1), BuildingBlock: TEMPAE_clean_linker_10, # of connection points: 2
#     Edge 28, Type (0, 1), BuildingBlock: TEMPAE_clean_linker_10, # of connection points: 2
#     Edge 29, Type (0, 1), BuildingBlock: TEMPAE_clean_linker_10, # of connection points: 2
#     Edge 30, Type (0, 1), BuildingBlock: TEMPAE_clean_linker_10, # of connection points: 2
#     Edge 31, Type (0, 1), BuildingBlock: TEMPAE_clean_linker_10, # of connection points: 2
#     Edge 32, Type (0, 1), BuildingBlock: TEMPAE_clean_linker_10, # of connection points: 2
#     Edge 33, Type (0, 1), BuildingBlock: TEMPAE_clean_linker_10, # of connection points: 2
#     Edge 34, Type (0, 1), BuildingBlock: TEMPAE_clean_linker_10, # of connection points: 2
#     Edge 35, Type (0, 1), BuildingBlock: TEMPAE_clean_linker_10, # of connection points: 2
# Relax obj value: 0.295
# Max RMSD: 0.224
# Mean RMSD: 0.211
data_MOF--net-zzz--node1-KUMJIN_clean_sbu_0--node2-KAKCAD_clean_linker_0--edge1-TEMPAE_clean_linker_10
_symmetry_space_group_name_H-M    P1
_symmetry_Int_Tables_number       1
_symmetry_cell_setting            triclinic
loop_
_symmetry_equiv_pos_as_xyz
'x, y, z'
_cell_length_a     57.981836
_cell_length_b     57.878754
_cell_length_c     20.196042
_cell_angle_alpha  90.507908
_cell_angle_beta   90.165104
_cell_angle_gamma 89.970153
loop_
_atom_site_label
_atom_site_type_symbol
_atom_site_fract_x
_atom_site_fract_y
_atom_site_fract_z
_atom_type_partial_charge
C0 C 0.79298 0.61919 0.94512 0.0
C1 C 0.81669 0.61572 0.95451 0.0
C2 C 0.77725 0.61257 0.99417 0.0
C3 C 0.78489 0.60125 0.05208 0.0
C4 C 0.80888 0.5988 0.06149 0.0
C5 C 0.82444 0.60635 0.01424 0.0
C6 C 0.7684 0.58984 0.09905 0.0
C7 C 0.74645 0.58236 0.07797 0.0
C8 C 0.73237 0.56852 0.11828 0.0
C9 C 0.74134 0.56059 0.17943 0.0
C10 C 0.76312 0.5684 0.20195 0.0
C11 C 0.7756 0.58394 0.16328 0.0
C12 C 0.7752 0.5591 0.26128 0.0
C13 C 0.77829 0.57313 0.31773 0.0
C14 C 0.78928 0.5395 0.25381 0.0
C15 C 0.80697 0.53481 0.29943 0.0
C16 C 0.81107 0.54957 0.35426 0.0
C17 C 0.70886 0.5621 0.09295 0.0
C18 C 0.69477 0.57911 0.06399 0.0
C19 C 0.70128 0.53904 0.09068 0.0
C20 C 0.68074 0.53306 0.05731 0.0
C21 C 0.66714 0.55003 0.02582 0.0
C22 C 0.67426 0.5732 0.03108 0.0
C23 C 0.79578 0.56829 0.364 0.0
H24 H 0.78661 0.62625 0.89906 0.0
H25 H 0.75913 0.6156 0.98509 0.0
H26 H 0.81607 0.58967 0.10313 0.0
H27 H 0.84262 0.603 0.02222 0.0
H28 H 0.74043 0.58633 0.02864 0.0
H29 H 0.79178 0.59037 0.18287 0.0
H30 H 0.73145 0.54875 0.20934 0.0
H31 H 0.7681 0.58869 0.32393 0.0
H32 H 0.78783 0.52883 0.20965 0.0
H33 H 0.81836 0.52044 0.28891 0.0
H34 H 0.69999 0.59708 0.06511 0.0
H35 H 0.71173 0.52549 0.11211 0.0
H36 H 0.79784 0.57984 0.40604 0.0
H37 H 0.66449 0.58678 1.00732 0.0
H38 H 0.67568 0.51507 0.05529 0.0
C39 C 0.90174 0.79838 0.95927 0.0
C40 C 0.90565 0.82229 0.96566 0.0
C41 C 0.91167 0.78292 1.00436 0.0
C42 C 0.92608 0.79105 0.05591 0.0
C43 C 0.92828 0.8151 0.06478 0.0
C44 C 0.91797 0.83039 0.02119 0.0
C45 C 0.9411 0.77518 0.09535 0.0
C46 C 0.95031 0.75494 0.06693 0.0
C47 C 0.96783 0.74232 0.09883 0.0
C48 C 0.97709 0.75094 0.1593 0.0
C49 C 0.96776 0.77116 0.18877 0.0
C50 C 0.94902 0.78206 0.15822 0.0
C51 C 0.9784 0.78372 0.24615 0.0
C52 C 0.96471 0.78918 0.30151 0.0
C53 C 0.99907 0.79603 0.23737 0.0
C54 C 1.0049 0.8146 0.27979 0.0
C55 C 0.99011 0.82135 0.33182 0.0
C56 C 0.97663 0.72092 0.06528 0.0
C57 C 0.97462 0.69913 0.09501 0.0
C58 C 0.98393 0.72185 0.99898 0.0
C59 C 0.98848 0.70161 0.96271 0.0
C60 C 0.9857 0.67969 0.99135 0.0
C61 C 0.97897 0.67875 0.05836 0.0
C62 C 0.9705 0.80766 0.34378 0.0
H63 H 0.89217 0.79156 0.91734 0.0
H64 H 0.90893 0.76459 0.99672 0.0
H65 H 0.93954 0.82248 0.10213 0.0
H66 H 0.92183 0.84857 0.02777 0.0
H67 H 0.94446 0.74923 0.01851 0.0
H68 H 0.94165 0.79719 0.18203 0.0
H69 H 0.99157 0.7423 0.18234 0.0
H70 H 0.9485 0.78028 0.30905 0.0
H71 H 0.00968 0.79266 0.19428 0.0
H72 H 0.02011 0.82469 0.26878 0.0
H73 H 0.96872 0.69782 0.14566 0.0
H74 H 0.98544 0.73835 0.97443 0.0
H75 H 0.95893 0.81194 0.38408 0.0
H76 H 0.97687 0.66222 0.08236 0.0
H77 H 0.9934 0.70316 0.91125 0.0
C78 C 0.72094 0.91006 0.97843 0.0
C79 C 0.69851 0.91931 0.97786 0.0
C80 C 0.73609 0.91518 0.03084 0.0
C81 C 0.72917 0.92993 0.08308 0.0
C82 C 0.70616 0.93759 0.08447 0.0
C83 C 0.69109 0.93227 0.03301 0.0
C84 C 0.74617 0.94041 0.13015 0.0
C85 C 0.76798 0.94721 0.10764 0.0
C86 C 0.78202 0.96233 0.14497 0.0
C87 C 0.77374 0.97092 0.20638 0.0
C88 C 0.75207 0.96359 0.23049 0.0
C89 C 0.73914 0.9476 0.19343 0.0
C90 C 0.73993 0.97498 0.28682 0.0
C91 C 0.73403 0.96209 0.34308 0.0
C92 C 0.72821 0.99582 0.27526 0.0
C93 C 0.70981 1.00268 0.31587 0.0
C94 C 0.70295 0.98905 0.36967 0.0
C95 C 0.8043 0.96993 0.11507 0.0
C96 C 0.82548 0.96703 0.14814 0.0
C97 C 0.80463 0.9771 0.04866 0.0
C98 C 0.82542 0.97971 0.01476 0.0
C99 C 0.84662 0.97545 0.04625 0.0
C100 C 0.84647 0.96983 0.11406 0.0
C101 C 0.71591 0.96922 0.38462 0.0
H102 H 0.72714 0.89987 0.9369 0.0
H103 H 0.75353 0.90854 0.02868 0.0
H104 H 0.70007 0.9494 0.12242 0.0
H105 H 0.67417 0.94021 0.03403 0.0
H106 H 0.77366 0.94176 0.05889 0.0
H107 H 0.72243 0.94232 0.21188 0.0
H108 H 0.7836 0.98373 0.23375 0.0
H109 H 0.74229 0.94562 0.35203 0.0
H110 H 0.73189 1.00573 0.23126 0.0
H111 H 0.7001 0.01802 0.30314 0.0
H112 H 0.82581 0.96139 0.19912 0.0
H113 H 0.78863 0.97981 0.02196 0.0
H114 H 0.71089 0.95829 0.42538 0.0
H115 H 0.86252 0.96653 0.13987 0.0
H116 H 0.82488 0.98463 0.96314 0.0
C117 C 0.53336 0.71279 0.31155 0.0
C118 C 0.54714 0.70948 0.36828 0.0
C119 C 0.53882 0.7299 0.26544 0.0
C120 C 0.55804 0.74428 0.27506 0.0
C121 C 0.57106 0.74197 0.33342 0.0
C122 C 0.56559 0.72485 0.37978 0.0
C123 C 0.56761 0.7571 0.21789 0.0
C124 C 0.56333 0.78078 0.20697 0.0
C125 C 0.5727 0.79174 0.15076 0.0
C126 C 0.58622 0.77873 0.10628 0.0
C127 C 0.58947 0.75487 0.11442 0.0
C128 C 0.58033 0.74441 0.17115 0.0
C129 C 0.59941 0.74027 0.06001 0.0
C130 C 0.59524 0.74581 0.99324 0.0
C131 C 0.61014 0.71901 0.07389 0.0
C132 C 0.6132 0.70243 0.02393 0.0
C133 C 0.60614 0.70696 0.95861 0.0
C134 C 0.56705 0.81604 0.13273 0.0
C135 C 0.54404 0.82288 0.123 0.0
C136 C 0.58473 0.83114 0.11322 0.0
C137 C 0.57961 0.8519 0.08127 0.0
C138 C 0.55664 0.85812 0.06747 0.0
C139 C 0.53888 0.84364 0.0905 0.0
C140 C 0.59899 0.72949 0.9431 0.0
H141 H 0.51883 0.70155 0.30144 0.0
H142 H 0.52879 0.731 0.22022 0.0
H143 H 0.58634 0.75243 0.34113 0.0
H144 H 0.5767 0.72275 0.4225 0.0
H145 H 0.55269 0.79049 0.24136 0.0
H146 H 0.58205 0.72594 0.17806 0.0
H147 H 0.59325 0.78713 0.06311 0.0
H148 H 0.58718 0.76194 0.97958 0.0
H149 H 0.61465 0.71444 0.12416 0.0
H150 H 0.61904 0.68539 0.03801 0.0
H151 H 0.53005 0.81151 0.13675 0.0
H152 H 0.60264 0.82628 0.11971 0.0
H153 H 0.59418 0.73388 0.8929 0.0
H154 H 0.52098 0.84801 0.08164 0.0
H155 H 0.59377 0.86244 0.06404 0.0
C156 C 0.23058 0.42591 0.28424 0.0
C157 C 0.21508 0.4084 0.26421 0.0
C158 C 0.24776 0.43357 0.24186 0.0
C159 C 0.24982 0.42421 0.17791 0.0
C160 C 0.23609 0.40519 0.15991 0.0
C161 C 0.21913 0.39708 0.20316 0.0
C162 C 0.26339 0.43701 0.12818 0.0
C163 C 0.2851 0.44581 0.14499 0.0
C164 C 0.29564 0.46295 0.10689 0.0
C165 C 0.28419 0.47111 0.04947 0.0
C166 C 0.26257 0.46159 0.03045 0.0
C167 C 0.25265 0.44438 0.06984 0.0
C168 C 0.24822 0.47064 0.97482 0.0
C169 C 0.23719 0.49218 0.98082 0.0
C170 C 0.24119 0.45562 0.92345 0.0
C171 C 0.22299 0.46156 0.8808 0.0
C172 C 0.21097 0.48253 0.88912 0.0
C173 C 0.31722 0.47335 0.1343 0.0
C174 C 0.31621 0.48486 0.19575 0.0
C175 C 0.33898 0.46751 0.1086 0.0
C176 C 0.35924 0.47241 0.14489 0.0
C177 C 0.35817 0.48313 0.20794 0.0
C178 C 0.33629 0.48962 0.232 0.0
C179 C 0.21873 0.49802 0.9387 0.0
H180 H 0.22827 0.43548 0.32997 0.0
H181 H 0.25798 0.44837 0.25706 0.0
H182 H 0.23762 0.39743 0.11111 0.0
H183 H 0.20824 0.38298 0.18662 0.0
H184 H 0.29332 0.44021 0.19047 0.0
H185 H 0.23547 0.43814 0.05792 0.0
H186 H 0.29166 0.48501 0.02112 0.0
H187 H 0.24182 0.50388 0.02084 0.0
H188 H 0.24899 0.43868 0.91857 0.0
H189 H 0.21746 0.44909 0.84375 0.0
H190 H 0.29966 0.48902 0.21763 0.0
H191 H 0.34024 0.45813 0.06212 0.0
H192 H 0.21005 0.5144 0.94629 0.0
H193 H 0.33442 0.49744 0.28057 0.0
H194 H 0.37569 0.46737 0.12405 0.0
C195 C 0.06473 0.24169 0.32918 0.0
C196 C 0.07021 0.21819 0.32357 0.0
C197 C 0.06589 0.25584 0.27408 0.0
C198 C 0.07326 0.24694 0.21235 0.0
C199 C 0.08293 0.22455 0.21084 0.0
C200 C 0.08106 0.21013 0.26584 0.0
C201 C 0.06612 0.25884 0.14992 0.0
C202 C 0.06066 0.28244 0.15114 0.0
C203 C 0.04565 0.29205 0.10437 0.0
C204 C 0.03862 0.2785 0.04905 0.0
C205 C 0.04669 0.25544 0.04221 0.0
C206 C 0.05987 0.24584 0.09352 0.0
C207 C 0.04056 0.23971 0.98577 0.0
C208 C 0.01869 0.2293 0.98187 0.0
C209 C 0.05834 0.23066 0.94605 0.0
C210 C 0.05474 0.21106 0.90599 0.0
C211 C 0.03327 0.19967 0.90484 0.0
C212 C 0.03502 0.31461 0.12354 0.0
C213 C 0.02017 0.31498 0.1784 0.0
C214 C 0.04427 0.33565 0.10195 0.0
C215 C 0.03949 0.35642 0.13635 0.0
C216 C 0.02585 0.35659 0.19442 0.0
C217 C 0.01582 0.33548 0.21352 0.0
C218 C 0.01505 0.20957 0.94171 0.0
H219 H 0.05686 0.24843 0.37398 0.0
H220 H 0.05844 0.27287 0.27931 0.0
H221 H 0.09003 0.21737 0.16565 0.0
H222 H 0.08588 0.19212 0.26075 0.0
H223 H 0.06624 0.29317 0.19239 0.0
H224 H 0.06373 0.22756 0.09081 0.0
H225 H 0.02685 0.28558 0.01277 0.0
H226 H 1.00483 0.23545 0.01326 0.0
H227 H 0.0755 0.23803 0.94889 0.0
H228 H 0.0691 0.20438 0.87745 0.0
H229 H 0.01338 0.29892 0.19752 0.0
H230 H 0.05624 0.33586 0.0609 0.0
H231 H 0.99831 0.20131 0.94264 0.0
H232 H 1.00567 0.33425 0.25818 0.0
H233 H 0.04719 0.37219 0.11844 0.0
C234 C 0.2871 0.09731 0.31852 0.0
C235 C 0.30958 0.10527 0.30636 0.0
C236 C 0.27262 0.09119 0.26602 0.0
C237 C 0.27982 0.09406 0.19999 0.0
C238 C 0.30031 0.10653 0.18894 0.0
C239 C 0.3153 0.11162 0.24142 0.0
C240 C 0.26846 0.08066 0.14497 0.0
C241 C 0.2456 0.07295 0.15046 0.0
C242 C 0.23679 0.0557 0.10825 0.0
C243 C 0.2505 0.04721 0.05545 0.0
C244 C 0.27289 0.05626 0.0455 0.0
C245 C 0.28167 0.07239 0.09149 0.0
C246 C 0.28864 0.04865 0.99083 0.0
C247 C 0.29483 0.0253 0.98191 0.0
C248 C 0.30099 0.06552 0.9557 0.0
C249 C 0.32019 0.05953 0.91746 0.0
C250 C 0.32737 0.03646 0.91214 0.0
C251 C 0.21425 0.04547 0.12706 0.0
C252 C 0.21381 0.02886 0.17728 0.0
C253 C 0.19354 0.05645 0.10955 0.0
C254 C 0.173 0.05161 0.14355 0.0
C255 C 0.17276 0.03603 0.19697 0.0
C256 C 0.19341 0.02421 0.2118 0.0
C257 C 0.31403 0.01925 0.94267 0.0
H258 H 0.2816 0.09339 0.36838 0.0
H259 H 0.25688 0.0822 0.27813 0.0
H260 H 0.30587 0.11061 0.13931 0.0
H261 H 0.3322 0.11836 0.22981 0.0
H262 H 0.23476 0.07938 0.19012 0.0
H263 H 0.29959 0.07735 0.08718 0.0
H264 H 0.24387 0.0338 0.02287 0.0
H265 H 0.28588 0.01194 1.00882 0.0
H266 H 0.29665 0.08364 0.96128 0.0
H267 H 0.3301 0.07311 0.89431 0.0
H268 H 0.22968 0.02071 0.19325 0.0
H269 H 0.19353 0.06976 0.07218 0.0
H270 H 0.3193 1.00132 0.93953 0.0
H271 H 0.1943 0.0124 0.25296 0.0
H272 H 0.15749 0.06076 0.12941 0.0
C273 C 0.47151 0.29787 0.88527 0.0
C274 C 0.48653 0.3161 0.90299 0.0
C275 C 0.46487 0.28125 0.93194 0.0
C276 C 0.47318 0.28237 0.99729 0.0
C277 C 0.48902 0.29982 0.01419 0.0
C278 C 0.49568 0.31639 0.96774 0.0
C279 C 0.46148 0.26937 0.05095 0.0
C280 C 0.46726 0.24641 0.06768 0.0
C281 C 0.45663 0.23584 0.1226 0.0
C282 C 0.43969 0.24804 0.15821 0.0
C283 C 0.43468 0.27129 0.14475 0.0
C284 C 0.44556 0.28156 0.09015 0.0
C285 C 0.42141 0.2859 0.19326 0.0
C286 C 0.4218 0.28078 0.26142 0.0
C287 C 0.41138 0.307 0.17395 0.0
C288 C 0.40612 0.32402 0.22114 0.0
C289 C 0.40996 0.31999 0.28887 0.0
C290 C 0.46494 0.21368 0.15122 0.0
C291 C 0.46058 0.19222 0.12066 0.0
C292 C 0.47424 0.214 0.21553 0.0
C293 C 0.47835 0.1935 0.24964 0.0
C294 C 0.47331 0.17189 0.22056 0.0
C295 C 0.4647 0.17151 0.15502 0.0
C296 C 0.41557 0.29743 0.30844 0.0
H297 H 0.4643 0.29683 0.83583 0.0
H298 H 0.45224 0.26829 0.91798 0.0
H299 H 0.49522 0.30145 0.06468 0.0
H300 H 0.50697 0.33022 0.98398 0.0
H301 H 0.48061 0.23734 0.04046 0.0
H302 H 0.44278 0.29964 0.07947 0.0
H303 H 0.43136 0.23947 0.19913 0.0
H304 H 0.42894 0.26481 0.27977 0.0
H305 H 0.40931 0.31123 0.12219 0.0
H306 H 0.40132 0.34101 0.20374 0.0
H307 H 0.45309 0.19149 0.07149 0.0
H308 H 0.47747 0.23032 0.24064 0.0
H309 H 0.41767 0.29334 0.36035 0.0
H310 H 0.46081 0.15524 0.13063 0.0
H311 H 0.48458 0.19473 0.30014 0.0
Eu312 Eu 0.03635 0.998 0.68693 0.0
C313 C 0.96691 0.98242 0.47442 0.0
C314 C 0.97414 0.99837 0.36555 0.0
C315 C 0.95168 0.96322 0.3757 0.0
C316 C 0.97672 0.99931 0.43508 0.0
C317 C 0.95394 0.96442 0.44488 0.0
C318 C 0.96192 0.98003 0.33612 0.0
C319 C 0.94674 0.94944 0.55386 0.0
N320 N 0.96965 0.98375 0.54133 0.0
C321 C 0.96006 0.96726 0.58098 0.0
C322 C 0.94332 0.94826 0.48571 0.0
Eu323 Eu 0.98969 0.01693 0.58191 0.0
N324 N 0.98796 0.01718 0.46473 0.0
C325 C 0.9957 0.03541 0.42816 0.0
C326 C 0.98334 0.01626 0.32763 0.0
C327 C 0.99397 0.03498 0.35917 0.0
H328 H 0.96275 0.96721 0.63363 0.0
H329 H 1.00065 0.04917 0.33045 0.0
H330 H 0.95985 0.97899 0.28283 0.0
H331 H 0.93908 0.93661 0.58567 0.0
H332 H 1.00364 0.05011 0.45256 0.0
H333 H 0.02079 0.04938 0.9111 0.0
H334 H 0.98179 0.01607 0.27415 0.0
H335 H 0.08776 0.987 0.61633 0.0
H336 H 0.01193 0.02091 0.82439 0.0
H337 H 0.12722 1.00306 0.61493 0.0
H338 H 0.94191 0.94942 0.35233 0.0
H339 H 0.05739 0.07114 0.90833 0.0
H340 H 0.09595 0.07739 0.85539 0.0
H341 H 0.93243 0.93481 0.46513 0.0
H342 H 0.12484 0.06512 0.77349 0.0
N343 N 0.04321 0.02615 0.77125 0.0
C344 C 0.02807 0.03001 0.82192 0.0
C345 C 0.05364 0.05856 0.86975 0.0
C346 C 0.06958 0.0538 0.81965 0.0
C347 C 0.033 0.04627 0.87158 0.0
C348 C 0.06392 0.03706 0.77098 0.0
H349 H 0.13684 0.0371 0.68455 0.0
N350 N 0.07489 0.0123 0.68401 0.0
C351 C 0.11417 0.0109 0.64605 0.0
C352 C 0.08025 0.03 0.72556 0.0
C353 C 0.09184 1.00182 0.6472 0.0
C354 C 0.11948 0.03019 0.68509 0.0
C355 C 0.10263 0.03959 0.72687 0.0
O356 O 0.05922 0.96855 0.70113 0.0
O357 O 0.00816 0.98568 0.61754 0.0
O358 O 0.97267 1.00348 0.67373 0.0
O359 O 1.00265 0.99267 0.74425 0.0
O360 O 0.0409 0.97259 0.60193 0.0
O361 O 0.03479 0.97746 0.77723 0.0
O362 O 0.96392 0.03554 0.64052 0.0
O363 O 0.01247 0.02755 0.66693 0.0
O364 O 0.05227 0.01632 0.59833 0.0
O365 O 0.02275 0.01654 0.52012 0.0
O366 O 0.01093 0.04979 0.58739 0.0
O367 O 0.96288 0.0379 0.53483 0.0
C368 C 0.01995 0.97218 0.58114 0.0
C369 C 0.04337 0.93775 0.75931 0.0
C370 C 0.01488 0.90722 0.77141 0.0
C371 C 0.02036 0.93075 0.7676 0.0
C372 C 0.03246 0.89067 0.76388 0.0
C373 C 0.06072 0.921 0.75232 0.0
C374 C 0.05522 0.89756 0.754 0.0
C375 C 0.98047 0.996 0.73111 0.0
C376 C 0.04968 0.96229 0.75602 0.0
C377 C 0.10783 0.05738 0.77217 0.0
C378 C 0.09137 0.06438 0.81876 0.0
C379 C 0.01871 0.0473 0.64679 0.0
C380 C 0.95423 0.07146 0.59712 0.0
C381 C 0.97078 0.08518 0.56574 0.0
C382 C 0.97181 0.10905 0.57766 0.0
C383 C 0.95555 0.11925 0.62045 0.0
C384 C 0.93825 0.08182 0.64 0.0
C385 C 0.93886 0.10567 0.65126 0.0
C386 C 0.04478 0.01848 0.53671 0.0
C387 C 0.95511 0.04619 0.59035 0.0
H388 H 1.00683 0.9435 0.77234 0.0
H389 H 0.02857 0.87238 0.76611 0.0
H390 H 0.07852 0.92609 0.74523 0.0
H391 H 0.06866 0.88472 0.74834 0.0
H392 H 0.98329 0.07717 0.53322 0.0
H393 H 0.95564 0.1377 0.62976 0.0
H394 H 0.92557 0.07143 0.66542 0.0
H395 H 0.92649 0.11363 0.68441 0.0
Eu396 Eu 0.51991 0.04016 0.68759 0.0
C397 C 0.54072 0.94228 0.56031 0.0
C398 C 0.56249 0.9487 0.46011 0.0
C399 C 0.567 0.91266 0.51956 0.0
C400 C 0.54664 0.95643 0.50839 0.0
C401 C 0.55063 0.92012 0.56617 0.0
C402 C 0.57283 0.92688 0.46641 0.0
C403 C 0.52604 0.91357 0.66052 0.0
N404 N 0.52463 0.94986 0.60384 0.0
C405 C 0.51651 0.93555 0.65205 0.0
C406 C 0.54338 0.90591 0.61782 0.0
Eu407 Eu 0.50976 0.98762 0.58851 0.0
N408 N 0.53652 0.97754 0.50416 0.0
C409 C 0.54078 0.99132 0.45099 0.0
C410 C 0.56728 0.96302 0.40651 0.0
C411 C 0.55622 0.98434 0.40171 0.0
H412 H 0.50316 0.94141 0.6854 0.0
H413 H 0.55956 0.99544 0.35998 0.0
H414 H 0.5852 0.92077 0.43016 0.0
H415 H 0.52002 0.90259 0.69995 0.0
H416 H 0.53258 1.00787 0.44622 0.0
H417 H 0.47614 0.03459 0.92681 0.0
H418 H 0.57922 0.95764 0.36824 0.0
H419 H 0.52414 0.08606 0.58805 0.0
H420 H 0.50135 0.02166 0.8372 0.0
H421 H 0.50581 0.1242 0.57293 0.0
H422 H 0.57491 0.89576 0.52343 0.0
H423 H 0.45539 0.07169 0.91804 0.0
H424 H 0.44499 0.10626 0.85053 0.0
H425 H 0.55067 0.88883 0.62425 0.0
H426 H 0.45238 0.13027 0.75298 0.0
N427 N 0.49423 0.05025 0.77477 0.0
C428 C 0.49199 0.03744 0.83088 0.0
C429 C 0.46581 0.06564 0.87704 0.0
C430 C 0.46815 0.0788 0.81984 0.0
C431 C 0.4777 0.04482 0.88245 0.0
C432 C 0.48304 0.07079 0.76946 0.0
H433 H 0.47519 0.13722 0.64962 0.0
N434 N 0.50348 0.07724 0.67103 0.0
C435 C 0.50043 0.11319 0.61303 0.0
C436 C 0.48756 0.08454 0.71545 0.0
C437 C 0.51079 0.09162 0.62186 0.0
C438 C 0.4831 0.12043 0.65629 0.0
C439 C 0.47684 0.10632 0.7092 0.0
O440 O 0.54576 0.06697 0.70217 0.0
O441 O 0.53599 0.01336 0.62164 0.0
O442 O 0.53379 0.97878 0.67329 0.0
O443 O 0.52328 1.0071 0.74994 0.0
O444 O 0.54495 0.04705 0.6035 0.0
O445 O 0.54449 0.0381 0.76962 0.0
O446 O 0.48115 0.9637 0.57445 0.0
O447 O 0.49396 0.01433 0.65514 0.0
O448 O 0.49483 0.04817 0.60421 0.0
O449 O 0.50595 0.02059 0.5267 0.0
O450 O 0.48393 0.98081 0.67133 0.0
O451 O 0.48873 0.98886 0.49876 0.0
C452 C 0.54889 0.02592 0.58684 0.0
C453 C 0.58139 0.05208 0.73668 0.0
C454 C 0.61544 0.02741 0.73307 0.0
C455 C 0.59178 0.03032 0.74498 0.0
C456 C 0.62859 0.04616 0.71096 0.0
C457 C 0.59483 0.07066 0.71445 0.0
C458 C 0.61824 0.06761 0.70111 0.0
C459 C 0.53179 0.98634 0.73502 0.0
C460 C 0.55651 0.05562 0.74826 0.0
C461 C 0.46093 0.1137 0.75719 0.0
C462 C 0.45673 0.10004 0.81272 0.0
C463 C 0.48082 1.00194 0.68966 0.0
C464 C 0.4496 0.98353 0.52915 0.0
C465 C 0.44373 1.00566 0.5061 0.0
C466 C 0.42231 0.01542 0.52187 0.0
C467 C 0.40644 1.00276 0.55928 0.0
C468 C 0.43332 0.97096 0.56569 0.0
C469 C 0.41189 0.98058 0.58067 0.0
C470 C 0.49641 0.04076 0.54224 0.0
C471 C 0.4734 0.97472 0.52293 0.0
H472 H 0.58174 0.01582 0.76253 0.0
H473 H 0.64692 0.04424 0.70221 0.0
H474 H 0.58718 0.08753 0.70711 0.0
H475 H 0.62846 0.08201 0.68401 0.0
H476 H 0.45589 0.01561 0.47735 0.0
H477 H 0.38958 0.00985 0.5704 0.0
H478 H 0.43741 0.95393 0.58419 0.0
H479 H 0.39952 0.97087 0.60921 0.0
Eu480 Eu 0.53902 0.50542 0.5747 0.0
C481 C 0.43359 0.50526 0.63952 0.0
C482 C 0.41787 0.53297 0.56222 0.0
C483 C 0.3927 0.5044 0.61137 0.0
C484 C 0.43682 0.52368 0.59716 0.0
C485 C 0.41144 0.49543 0.64692 0.0
C486 C 0.39584 0.52332 0.56989 0.0
C487 C 0.42709 0.47047 0.73072 0.0
N488 N 0.4518 0.49751 0.67543 0.0
C489 C 0.44843 0.4813 0.72345 0.0
C490 C 0.40853 0.4774 0.69176 0.0
Eu491 Eu 0.48653 0.51915 0.66715 0.0
N492 N 0.45834 0.53267 0.59041 0.0
C493 C 0.46203 0.55043 0.5473 0.0
C494 C 0.42152 0.55186 0.52096 0.0
C495 C 0.44377 0.56025 0.51227 0.0
H496 H 0.4622 0.47695 0.75714 0.0
H497 H 0.44688 0.57441 0.47881 0.0
H498 H 0.3811 0.53036 0.54387 0.0
H499 H 0.42482 0.45726 0.76773 0.0
H500 H 0.47902 0.55704 0.53806 0.0
H501 H 0.60291 0.46835 0.74141 0.0
H502 H 0.40733 0.55988 0.4948 0.0
H503 H 0.54636 0.54431 0.45343 0.0
H504 H 0.56444 0.47344 0.6929 0.0
H505 H 0.57669 0.57047 0.41253 0.0
H506 H 0.37559 0.49714 0.61673 0.0
H507 H 0.63486 0.49423 0.70918 0.0
H508 H 0.64866 0.52771 0.64275 0.0
H509 H 0.39184 0.46936 0.69849 0.0
H510 H 0.64139 0.55582 0.55453 0.0
N511 N 0.57415 0.50206 0.63347 0.0
C512 C 0.57805 0.48503 0.67858 0.0
C513 C 0.61784 0.49677 0.68839 0.0
C514 C 0.61386 0.51405 0.64186 0.0
C515 C 0.5999 0.4821 0.70647 0.0
C516 C 0.59165 0.51601 0.61377 0.0
H517 H 0.61472 0.57175 0.4682 0.0
N518 N 0.56665 0.53178 0.5335 0.0
C519 C 0.58 0.55965 0.45496 0.0
C520 C 0.58772 0.53149 0.56296 0.0
C521 C 0.56287 0.54483 0.47825 0.0
C522 C 0.60141 0.56037 0.48665 0.0
C523 C 0.60566 0.54588 0.54046 0.0
O524 O 0.54677 0.49439 0.47395 0.0
O525 O 0.50011 0.50378 0.5729 0.0
O526 O 0.48927 0.48013 0.66318 0.0
O527 O 0.52797 0.47412 0.63635 0.0
O528 O 0.51616 0.51545 0.48848 0.0
O529 O 0.55457 0.47167 0.55606 0.0
O530 O 0.47489 0.52214 0.76948 0.0
O531 O 0.52505 0.51915 0.66969 0.0
O532 O 0.54042 0.54407 0.59422 0.0
O533 O 0.50292 0.55256 0.62818 0.0
O534 O 0.50904 0.50885 0.75515 0.0
O535 O 0.47211 0.55149 0.70366 0.0
C536 C 0.49657 0.51035 0.5141 0.0
C537 C 0.54668 0.45449 0.45268 0.0
C538 C 0.51613 0.43087 0.4048 0.0
C539 C 0.5231 0.44976 0.44416 0.0
C540 C 0.5331 0.41669 0.37532 0.0
C541 C 0.56327 0.44034 0.4226 0.0
C542 C 0.55647 0.42147 0.38411 0.0
C543 C 0.50784 0.46692 0.65946 0.0
C544 C 0.55449 0.47424 0.49198 0.0
C545 C 0.62744 0.54482 0.57086 0.0
C546 C 0.63158 0.52882 0.62109 0.0
C547 C 0.52881 0.51283 0.72847 0.0
C548 C 0.47703 0.55923 0.81694 0.0
C549 C 0.49982 0.56735 0.81941 0.0
C550 C 0.50643 0.58379 0.86758 0.0
C551 C 0.48976 0.59141 0.91387 0.0
C552 C 0.46096 0.56668 0.864 0.0
C553 C 0.46737 0.58264 0.91252 0.0
C554 C 0.52352 0.55892 0.60615 0.0
C555 C 0.46935 0.54385 0.76374 0.0
H556 H 0.51034 0.46084 0.46742 0.0
H557 H 0.52834 0.40162 0.34622 0.0
H558 H 0.58149 0.4439 0.42896 0.0
H559 H 0.56932 0.41045 0.36124 0.0
H560 H 0.51211 0.56106 0.78319 0.0
H561 H 0.49367 0.60468 0.95024 0.0
H562 H 0.44334 0.56045 0.86245 0.0
H563 H 0.45481 0.58868 0.94826 0.0
Eu564 Eu 0.02398 0.53961 0.55447 0.0
C565 C 0.01084 0.43715 0.63873 0.0
C566 C 0.98313 0.42251 0.55891 0.0
C567 C 0.0096 0.39601 0.61213 0.0
C568 C 0.99311 0.44119 0.59437 0.0
C569 C 0.01909 0.41443 0.64858 0.0
C570 C 0.99155 0.40001 0.56776 0.0
C571 C 0.04384 0.42918 0.73515 0.0
N572 N 0.01944 0.45519 0.67427 0.0
C573 C 0.03486 0.45124 0.72448 0.0
C574 C 0.03615 0.41072 0.69639 0.0
Eu575 Eu 1.00265 0.49225 0.65638 0.0
N576 N 0.98544 0.46322 0.58622 0.0
C577 C 0.96771 0.46738 0.54277 0.0
C578 C 0.96478 0.42687 0.51593 0.0
C579 C 0.95724 0.44942 0.50728 0.0
H580 H 0.04044 0.46529 0.75638 0.0
H581 H 0.94329 0.45304 0.47318 0.0
H582 H 0.98411 0.38555 0.54079 0.0
H583 H 0.05647 0.42643 0.77386 0.0
H584 H 0.96155 0.48445 0.53292 0.0
H585 H 0.07202 0.59421 0.73287 0.0
H586 H 0.95631 0.41297 0.48916 0.0
H587 H 0.99065 0.55711 0.42866 0.0
H588 H 0.05904 0.55821 0.68447 0.0
H589 H 0.97117 0.59241 0.38981 0.0
H590 H 0.01578 0.37851 0.61892 0.0
H591 H 0.05557 0.63117 0.69592 0.0
H592 H 0.02605 0.65205 0.62925 0.0
H593 H 0.04293 0.39356 0.70521 0.0
H594 H 0.99745 0.65143 0.53929 0.0
N595 N 0.03503 0.57349 0.61657 0.0
C596 C 0.05151 0.5737 0.6655 0.0
C597 C 0.04932 0.61514 0.67445 0.0
C598 C 0.03193 0.61506 0.62663 0.0
C599 C 0.05888 0.59436 0.69469 0.0
C600 C 0.0254 0.5938 0.59708 0.0
H601 H 0.97694 0.62937 0.4499 0.0
N602 N 1.00547 0.57334 0.51368 0.0
C603 C 0.98178 0.593 0.43398 0.0
C604 C 0.00976 0.59361 0.54532 0.0
C605 C 0.99264 0.57301 0.45655 0.0
C606 C 0.98506 0.61378 0.46804 0.0
C607 C 0.99966 0.61442 0.52329 0.0
O608 O 0.0376 0.55325 0.46194 0.0
O609 O 0.01844 0.50114 0.55892 0.0
O610 O 0.04205 0.48989 0.65492 0.0
O611 O 0.05302 0.52658 0.62122 0.0
O612 O 0.00804 0.5176 0.47332 0.0
O613 O 0.05871 0.53085 0.52104 0.0
O614 O 0.99865 0.48081 0.75787 0.0
O615 O 1.00696 0.53076 0.64968 0.0
O616 O 0.98484 0.54054 0.54625 0.0
O617 O 0.97123 0.5108 0.61319 0.0
O618 O 0.01742 0.5158 0.73692 0.0
O619 O 0.96847 0.49047 0.70163 0.0
C620 C 0.01032 0.49779 0.50121 0.0
C621 C 0.05999 0.52521 0.40528 0.0
C622 C 0.07989 0.4925 0.35503 0.0
C623 C 0.07624 0.50726 0.40921 0.0
C624 C 0.06727 0.49562 0.29645 0.0
C625 C 0.04727 0.52801 0.34638 0.0
C626 C 0.05088 0.5132 0.29246 0.0
C627 C 0.05776 0.50634 0.64828 0.0
C628 C 0.05587 0.54027 0.46342 0.0
C629 C 1.00513 0.63533 0.55525 0.0
C630 C 0.02142 0.63568 0.60635 0.0
C631 C 0.01418 0.53522 0.70749 0.0
C632 C 0.97038 0.50166 0.81531 0.0
C633 C 0.95381 0.51912 0.80662 0.0
C634 C 0.94871 0.53454 0.85854 0.0
C635 C 0.96068 0.53268 0.91895 0.0
C636 C 0.98186 0.49988 0.87649 0.0
C637 C 0.97717 0.51546 0.92769 0.0
C638 C 0.96795 0.52814 0.5717 0.0
C639 C 0.9769 0.48609 0.76025 0.0
H640 H 0.08631 0.50492 0.454 0.0
H641 H 0.07019 0.48451 0.25384 0.0
H642 H 0.03448 0.54156 0.34193 0.0
H643 H 0.04106 0.51546 0.24732 0.0
H644 H 0.94456 0.52049 0.76012 0.0
H645 H 0.95711 0.54443 0.95969 0.0
H646 H 0.99474 0.48661 0.88445 0.0
H647 H 0.98624 0.5141 0.9744 0.0
C648 C 0.13736 0.05237 0.2542 0.0
C649 C 0.15182 0.03339 0.24033 0.0
C650 C 0.11878 0.05065 0.29881 0.0
C651 C 0.11461 0.02956 0.33178 0.0
C652 C 0.12876 0.01022 0.3172 0.0
C653 C 0.14694 0.01228 0.27142 0.0
C654 C 0.10395 0.07164 0.31192 0.0
C655 C 0.1251 0.98742 0.35139 0.0
C656 C 0.08407 0.03126 0.49926 0.0
C657 C 0.06203 0.02283 0.48349 0.0
C658 C 0.10123 0.03357 0.45058 0.0
C659 C 0.09614 0.02796 0.38363 0.0
C660 C 0.07359 0.02038 0.36685 0.0
C661 C 0.05692 0.0177 0.41692 0.0
C662 C 0.12499 0.04156 0.47121 0.0
C663 C 0.06715 0.01469 0.29612 0.0
H664 H 0.14095 0.06892 0.23184 0.0
H665 H 0.15751 0.9973 0.26054 0.0
H666 H 0.08545 0.0672 0.30579 0.0
H667 H 0.10641 0.07762 0.3638 0.0
H668 H 0.10814 0.08615 0.27837 0.0
H669 H 0.1373 0.97389 0.33393 0.0
H670 H 0.12735 0.98973 0.40564 0.0
H671 H 0.10723 0.98124 0.34282 0.0
H672 H 0.088 0.03604 0.54996 0.0
H673 H 0.04 0.01109 0.40395 0.0
H674 H 0.12987 0.05723 0.44336 0.0
H675 H 0.13784 0.02796 0.45908 0.0
H676 H 0.12611 0.04551 0.52505 0.0
H677 H 0.07163 0.0293 0.26339 0.0
H678 H 0.04846 0.01086 0.29044 0.0
H679 H 0.07712 0.99944 0.27882 0.0
C680 C 0.45982 0.13227 0.25669 0.0
C681 C 0.47616 0.15021 0.26028 0.0
C682 C 0.46135 0.11285 0.29828 0.0
C683 C 0.47956 0.11122 0.34499 0.0
C684 C 0.49634 0.12898 0.34784 0.0
C685 C 0.49455 0.14805 0.30537 0.0
C686 C 0.44323 0.09423 0.29322 0.0
C687 C 0.51602 0.1281 0.39692 0.0
C688 C 0.47452 0.07548 0.5023 0.0
C689 C 0.48925 0.05679 0.4885 0.0
C690 C 0.47035 0.09276 0.45513 0.0
C691 C 0.48099 0.09132 0.39206 0.0
C692 C 0.49454 0.07163 0.37629 0.0
C693 C 0.4985 0.05465 0.42459 0.0
C694 C 0.45562 0.11321 0.47454 0.0
C695 C 0.5058 0.06903 0.30936 0.0
H696 H 0.44539 0.13372 0.22277 0.0
H697 H 0.50756 0.16146 0.30798 0.0
H698 H 0.45139 0.07758 0.27894 0.0
H699 H 0.43505 0.09169 0.34218 0.0
H700 H 0.42962 0.09838 0.25638 0.0
H701 H 0.52783 0.14311 0.39249 0.0
H702 H 0.50907 0.12782 0.44803 0.0
H703 H 0.52612 0.11201 0.3896 0.0
H704 H 0.46681 0.07704 0.55098 0.0
H705 H 0.50969 0.04021 0.41297 0.0
H706 H 0.44401 0.11825 0.43344 0.0
H707 H 0.46697 0.12818 0.48578 0.0
H708 H 0.44502 0.10963 0.51905 0.0
H709 H 0.49303 0.072 0.26932 0.0
H710 H 0.51361 0.05166 0.30219 0.0
H711 H 0.51955 0.08221 0.30418 0.0
C712 C 0.381 0.50645 0.29167 0.0
C713 C 0.37939 0.48696 0.25001 0.0
C714 C 0.39976 0.50972 0.33509 0.0
C715 C 0.41786 0.49326 0.3374 0.0
C716 C 0.41683 0.47391 0.29384 0.0
C717 C 0.39761 0.47086 0.25129 0.0
C718 C 0.39955 0.53049 0.38031 0.0
C719 C 0.43621 0.45655 0.29159 0.0
C720 C 0.47507 0.51562 0.40786 0.0
C721 C 0.47596 0.50567 0.47103 0.0
C722 C 0.45677 0.51115 0.36363 0.0
C723 C 0.4382 0.49688 0.38325 0.0
C724 C 0.439 0.48665 0.447 0.0
C725 C 0.45819 0.49057 0.48919 0.0
C726 C 0.45728 0.52187 0.29577 0.0
C727 C 0.41939 0.47187 0.47108 0.0
H728 H 0.36746 0.51935 0.29061 0.0
H729 H 0.39672 0.45562 0.21991 0.0
H730 H 0.3948 0.52459 0.43037 0.0
H731 H 0.41678 0.53872 0.38326 0.0
H732 H 0.38679 0.54369 0.36459 0.0
H733 H 0.43275 0.4422 0.25607 0.0
H734 H 0.45246 0.46525 0.27712 0.0
H735 H 0.43904 0.44924 0.34145 0.0
H736 H 0.48891 0.52697 0.39262 0.0
H737 H 0.45914 0.48206 0.53666 0.0
H738 H 0.44305 0.53458 0.2911 0.0
H739 H 0.45457 0.5084 0.25707 0.0
H740 H 0.47383 0.53084 0.28586 0.0
H741 H 0.40296 0.48167 0.46797 0.0
H742 H 0.42196 0.46621 0.52298 0.0
H743 H 0.41756 0.45635 0.43897 0.0
C744 C 1.00374 0.38114 0.27813 0.0
C745 C 0.02319 0.37804 0.23736 0.0
C746 C 1.00191 0.39994 0.32274 0.0
C747 C 0.01953 0.41689 0.3261 0.0
C748 C 0.03881 0.41441 0.28333 0.0
C749 C 0.04057 0.395 0.24079 0.0
C750 C 0.98137 0.40107 0.36817 0.0
C751 C 0.05803 0.43189 0.28156 0.0
C752 C 1.00202 0.47604 0.39629 0.0
C753 C 0.01221 0.4763 0.45952 0.0
C754 C 1.00467 0.45717 0.35244 0.0
C755 C 0.01723 0.43742 0.37248 0.0
C756 C 0.02766 0.43755 0.43626 0.0
C757 C 0.02552 0.45717 0.47828 0.0
C758 C 0.99439 0.45859 0.28386 0.0
C759 C 0.04116 0.41696 0.45992 0.0
H760 H 0.98976 0.36878 0.27573 0.0
H761 H 0.05599 0.39306 0.21113 0.0
H762 H 0.98731 0.39727 0.41912 0.0
H763 H 0.97363 0.41859 0.36854 0.0
H764 H 0.96782 0.38835 0.35435 0.0
H765 H 0.06101 0.43737 0.22972 0.0
H766 H 0.05464 0.44745 0.31221 0.0
H767 H 0.0742 0.42362 0.29881 0.0
H768 H 0.99217 0.49094 0.3804 0.0
H769 H 0.03428 0.45754 0.52573 0.0
H770 H 0.98152 0.44463 0.27646 0.0
H771 H 0.00815 0.45602 0.24635 0.0
H772 H 0.98586 0.47547 0.27479 0.0
H773 H 0.0297 0.40162 0.46144 0.0
H774 H 0.04874 0.41982 0.50992 0.0
H775 H 0.05521 0.41295 0.42449 0.0
C776 C 0.88802 0.98794 0.02983 0.0
C777 C 0.86845 0.97603 1.00687 0.0
C778 C 0.90781 0.99017 0.98981 0.0
C779 C 0.90824 0.97996 0.92566 0.0
C780 C 0.88896 0.96687 0.90383 0.0
C781 C 0.86934 0.96524 0.94432 0.0
C782 C 0.92796 1.00419 0.01508 0.0
C783 C 0.88833 0.95533 0.83645 0.0
C784 C 0.94279 1.00561 0.78421 0.0
C785 C 0.96292 0.99213 0.78363 0.0
C786 C 0.92551 1.00239 0.83182 0.0
C787 C 0.92781 0.9846 0.87913 0.0
C788 C 0.94824 0.97099 0.87928 0.0
C789 C 0.96573 0.97529 0.83249 0.0
C790 C 0.90468 0.01808 0.83116 0.0
C791 C 0.95206 0.95171 0.92788 0.0
H792 H 0.88752 0.99629 0.07805 0.0
H793 H 0.8545 0.95562 0.9265 0.0
H794 H 0.94375 0.99335 0.01538 0.0
H795 H 0.93118 0.01889 0.98141 0.0
H796 H 0.92504 0.01107 0.0659 0.0
H797 H 0.87763 0.93942 0.83731 0.0
H798 H 0.88036 0.96729 0.80039 0.0
H799 H 0.9058 0.95075 0.81829 0.0
H800 H 0.9406 0.01904 0.74767 0.0
H801 H 0.98131 0.96502 0.83339 0.0
H802 H 0.90135 0.02504 0.88163 0.0
H803 H 0.88924 1.00813 0.81555 0.0
H804 H 0.90683 0.03281 0.7968 0.0
H805 H 0.96595 0.95684 0.96297 0.0
H806 H 0.95812 0.93596 0.90127 0.0
H807 H 0.93647 0.9473 0.95673 0.0
C808 C 0.53485 0.87724 0.97452 0.0
C809 C 0.55152 0.87863 0.02503 0.0
C810 C 0.53122 0.89565 0.9305 0.0
C811 C 0.54476 0.91596 0.93624 0.0
C812 C 0.56101 0.91783 0.98869 0.0
C813 C 0.56416 0.8992 0.03225 0.0
C814 C 0.51303 0.89319 0.87727 0.0
C815 C 0.57497 0.93951 1.00034 0.0
C816 C 0.5518 0.95098 0.77795 0.0
C817 C 0.53685 0.96969 0.78906 0.0
C818 C 0.55473 0.93358 0.82552 0.0
C819 C 0.5424 0.9348 0.88606 0.0
C820 C 0.52759 0.95387 0.89799 0.0
C821 C 0.5251 0.97108 0.84961 0.0
C822 C 0.57033 0.91343 0.80932 0.0
C823 C 0.51375 0.9557 0.96099 0.0
H824 H 0.52504 0.86145 0.96803 0.0
H825 H 0.57666 0.90077 0.07205 0.0
H826 H 0.50196 0.90883 0.87586 0.0
H827 H 0.52142 0.89144 0.82823 0.0
H828 H 0.50189 0.87783 0.88492 0.0
H829 H 0.59199 0.93542 0.02281 0.0
H830 H 0.57777 0.94939 0.9543 0.0
H831 H 0.56562 0.95083 0.03583 0.0
H832 H 0.56094 0.94967 0.73128 0.0
H833 H 0.51315 0.9851 0.85832 0.0
H834 H 0.55973 0.89868 0.79156 0.0
H835 H 0.58005 0.90767 0.85359 0.0
H836 H 0.58276 0.91773 0.76958 0.0
H837 H 0.5034 0.93978 0.96786 0.0
H838 H 0.50194 0.97082 0.96109 0.0
H839 H 0.52557 0.9573 1.00404 0.0
C840 C 0.64678 0.524 0.94343 0.0
C841 C 0.64639 0.54363 0.98467 0.0
C842 C 0.62803 0.51828 0.90188 0.0
C843 C 0.60818 0.53269 0.90015 0.0
C844 C 0.60739 0.55214 0.94339 0.0
C845 C 0.62646 0.55748 0.9844 0.0
C846 C 0.63027 0.49678 0.85993 0.0
C847 C 0.58614 0.56709 0.94741 0.0
C848 C 0.56628 0.53407 0.75212 0.0
C849 C 0.54984 0.51742 0.76964 0.0
C850 C 0.58567 0.53867 0.79278 0.0
C851 C 0.5881 0.52737 0.85463 0.0
C852 C 0.57104 0.51118 0.87347 0.0
C853 C 0.55238 0.50626 0.83066 0.0
C854 C 0.60369 0.55544 0.76902 0.0
C855 C 0.57246 0.49902 0.93914 0.0
H856 H 0.66205 0.51319 0.94232 0.0
H857 H 0.62563 0.57245 0.01692 0.0
H858 H 0.61387 0.49138 0.83654 0.0
H859 H 0.64336 0.49987 0.82111 0.0
H860 H 0.63673 0.48228 0.89053 0.0
H861 H 0.58765 0.58075 0.98613 0.0
H862 H 0.58305 0.57543 0.89906 0.0
H863 H 0.5708 0.55631 0.95825 0.0
H864 H 0.56409 0.54347 0.70645 0.0
H865 H 0.53953 0.49372 0.84536 0.0
H866 H 0.62108 0.54747 0.77243 0.0
H867 H 0.60374 0.57111 0.80094 0.0
H868 H 0.60061 0.56082 0.71707 0.0
H869 H 0.58786 0.48764 0.9399 0.0
H870 H 0.55695 0.48833 0.94893 0.0
H871 H 0.57446 0.51186 0.97992 0.0
C872 C 0.9743 0.63927 0.95386 0.0
C873 C 0.98951 0.65814 0.95062 0.0
C874 C 0.97734 0.61941 0.9135 0.0
C875 C 0.99606 0.61819 0.86831 0.0
C876 C 0.01149 0.63717 0.86551 0.0
C877 C 0.00801 0.65677 0.90611 0.0
C878 C 0.96006 0.60007 0.91823 0.0
C879 C 0.03138 0.6373 0.81794 0.0
C880 C 0.01923 0.55936 0.81017 0.0
C881 C 0.00981 0.55696 0.74636 0.0
C882 C 0.0146 0.57888 0.85022 0.0
C883 C 1.00022 0.59682 0.82627 0.0
C884 C 0.99044 0.59439 0.76197 0.0
C885 C 0.99512 0.57444 0.7232 0.0
C886 C 0.02513 0.58032 0.91854 0.0
C887 C 0.97507 0.61293 0.73399 0.0
H888 H 0.95965 0.64021 0.98701 0.0
H889 H 0.01996 0.67111 0.90311 0.0
H890 H 0.96863 0.58299 0.91477 0.0
H891 H 0.95006 0.60096 0.96502 0.0
H892 H 0.94775 0.60143 0.87638 0.0
H893 H 0.04416 0.651 0.83008 0.0
H894 H 0.04037 0.62038 0.81717 0.0
H895 H 0.02442 0.64066 0.76778 0.0
H896 H 0.03027 0.5458 0.82909 0.0
H897 H 0.98722 0.57249 0.67477 0.0
H898 H 0.01131 0.58231 0.9561 0.0
H899 H 0.0364 0.59577 0.92235 0.0
H900 H 0.03551 0.56477 0.93066 0.0
H901 H 0.96043 0.61626 0.768 0.0
H902 H 0.96814 0.60818 0.68436 0.0
H903 H 0.98492 0.62928 0.72977 0.0
C904 C 0.03552 0.20399 0.38095 0.0
C905 C 0.05925 0.20177 0.36939 0.0
C906 C 0.02359 0.1878 0.41829 0.0
C907 C 0.0357 0.16889 0.44534 0.0
C908 C 0.05978 0.16667 0.43515 0.0
C909 C 0.07132 0.18311 0.39645 0.0
C910 C 0.99783 0.19061 0.42704 0.0
C911 C 0.07318 0.14687 0.46445 0.0
C912 C 1.0013 0.14067 0.5806 0.0
C913 C 0.98989 0.1231 0.54535 0.0
C914 C 0.01748 0.15489 0.54972 0.0
C915 C 0.02255 0.15125 0.48203 0.0
C916 C 0.01201 0.1328 0.44688 0.0
C917 C 0.99571 0.11902 0.47889 0.0
C918 C 0.02834 0.17447 0.58869 0.0
C919 C 0.01676 0.12856 0.37429 0.0
H920 H 0.02601 0.21806 0.35854 0.0
H921 H 0.08963 0.18135 0.38707 0.0
H922 H 0.98872 0.17552 0.40505 0.0
H923 H 0.99345 0.19127 0.48044 0.0
H924 H 0.99114 0.20654 0.40342 0.0
H925 H 0.09175 0.14746 0.45123 0.0
H926 H 0.07162 0.1473 0.51918 0.0
H927 H 0.0659 0.13015 0.44706 0.0
H928 H 0.99739 0.14352 0.63216 0.0
H929 H 0.98687 0.10559 0.45101 0.0
H930 H 0.02338 0.19128 0.5668 0.0
H931 H 0.04741 0.17318 0.58611 0.0
H932 H 0.02302 0.17454 0.64151 0.0
H933 H 0.00899 0.14268 0.34481 0.0
H934 H 0.00948 0.11185 0.35653 0.0
H935 H 0.03557 0.12862 0.36463 0.0
C936 C 0.34815 0.11523 0.35822 0.0
C937 C 0.32815 0.1015 0.35636 0.0
C938 C 0.36796 0.10793 0.39265 0.0
C939 C 0.3677 0.0864 0.4253 0.0
C940 C 0.34689 0.0737 0.42909 0.0
C941 C 0.3275 0.08138 0.39462 0.0
C942 C 0.38947 0.12249 0.38952 0.0
C943 C 0.34558 0.05077 0.46433 0.0
C944 C 0.41321 0.04093 0.42746 0.0
C945 C 0.41553 0.03812 0.49579 0.0
C946 C 0.39999 0.05911 0.40221 0.0
C947 C 0.3893 0.07486 0.44673 0.0
C948 C 0.39495 0.07419 0.51486 0.0
C949 C 0.40768 0.05545 0.53889 0.0
C950 C 0.39465 0.05921 0.32903 0.0
C951 C 0.3851 0.09145 0.56344 0.0
H952 H 0.34875 0.13109 0.33016 0.0
H953 H 0.31243 0.07033 0.39339 0.0
H954 H 0.40089 0.11965 0.43285 0.0
H955 H 0.39916 0.11795 0.34397 0.0
H956 H 0.38506 0.14114 0.38698 0.0
H957 H 0.32773 0.04382 0.46592 0.0
H958 H 0.35667 0.03789 0.43867 0.0
H959 H 0.35196 0.05256 0.51592 0.0
H960 H 0.4196 0.02759 0.39418 0.0
H961 H 0.41003 0.05341 0.59166 0.0
H962 H 0.39315 0.07708 0.31024 0.0
H963 H 0.37788 0.05042 0.32032 0.0
H964 H 0.40809 0.04991 0.3001 0.0
H965 H 0.38345 0.10878 0.54078 0.0
H966 H 0.39604 0.09284 0.60858 0.0
H967 H 0.36766 0.08574 0.57874 0.0
C968 C 0.43367 0.33906 0.37647 0.0
C969 C 0.41426 0.33987 0.33478 0.0
C970 C 0.44361 0.35925 0.40192 0.0
C971 C 0.43375 0.38089 0.38592 0.0
C972 C 0.41206 0.3816 0.35366 0.0
C973 C 0.40263 0.36103 0.32762 0.0
C974 C 0.46661 0.35741 0.4371 0.0
C975 C 0.39991 0.40414 0.3404 0.0
C976 C 0.47625 0.42458 0.44988 0.0
C977 C 0.49143 0.42496 0.39584 0.0
C978 C 0.45496 0.41308 0.44483 0.0
C979 C 0.44935 0.40123 0.38532 0.0
C980 C 0.46315 0.4045 0.32834 0.0
C981 C 0.48385 0.41667 0.33423 0.0
C982 C 0.43961 0.41184 0.50479 0.0
C983 C 0.45755 0.39292 0.26286 0.0
H984 H 0.44289 0.32297 0.38312 0.0
H985 H 0.38711 0.36181 0.2977 0.0
H986 H 0.48049 0.36404 0.40462 0.0
H987 H 0.46666 0.36796 0.4831 0.0
H988 H 0.4709 0.33931 0.45037 0.0
H989 H 0.381 0.40205 0.34663 0.0
H990 H 0.406 0.41823 0.37371 0.0
H991 H 0.40291 0.4093 0.28837 0.0
H992 H 0.48168 0.43161 0.49737 0.0
H993 H 0.49506 0.41805 0.29155 0.0
H994 H 0.42116 0.41099 0.49006 0.0
H995 H 0.4423 0.42701 0.53801 0.0
H996 H 0.44372 0.3961 0.53341 0.0
H997 H 0.45897 0.37389 0.26783 0.0
H998 H 0.4693 0.39847 0.22267 0.0
H999 H 0.43962 0.39694 0.24777 0.0
C1000 C 0.19056 0.41329 0.36607 0.0
C1001 C 0.19256 0.40606 0.29961 0.0
C1002 C 0.16965 0.42219 0.39009 0.0
C1003 C 0.15018 0.42235 0.34787 0.0
C1004 C 0.15084 0.40984 0.28753 0.0
C1005 C 0.17217 0.40227 0.26314 0.0
C1006 C 0.16947 0.43456 0.45615 0.0
C1007 C 0.12972 0.40768 0.24413 0.0
C1008 C 0.09536 0.45478 0.3948 0.0
C1009 C 0.09814 0.47493 0.3578 0.0
C1010 C 0.11223 0.43734 0.39331 0.0
C1011 C 0.13254 0.44075 0.35582 0.0
C1012 C 0.13582 0.46183 0.32166 0.0
C1013 C 0.11835 0.47846 0.32215 0.0
C1014 C 0.10752 0.415 0.42873 0.0
C1015 C 0.15755 0.46669 0.28296 0.0
H1016 H 0.20583 0.41461 0.3969 0.0
H1017 H 0.17289 0.39591 0.21266 0.0
H1018 H 0.17161 0.45338 0.44795 0.0
H1019 H 0.15286 0.43198 0.48212 0.0
H1020 H 0.18377 0.42863 0.48859 0.0
H1021 H 0.13152 0.39333 0.20758 0.0
H1022 H 0.11412 0.40466 0.27459 0.0
H1023 H 0.12714 0.42399 0.21656 0.0
H1024 H 0.0796 0.4523 0.42259 0.0
H1025 H 0.12044 0.4943 0.2945 0.0
H1026 H 0.0969 0.41809 0.47363 0.0
H1027 H 0.12356 0.40591 0.44328 0.0
H1028 H 0.09766 0.40337 0.39511 0.0
H1029 H 0.17305 0.46302 0.31349 0.0
H1030 H 0.15845 0.48491 0.2663 0.0
H1031 H 0.1582 0.45532 0.23851 0.0
C1032 C 0.9112 0.83161 0.84691 0.0
C1033 C 0.90253 0.8383 0.90901 0.0
C1034 C 0.92211 0.84788 0.80654 0.0
C1035 C 0.92473 0.87078 0.83037 0.0
C1036 C 0.9109 0.87843 0.88378 0.0
C1037 C 0.8993 0.86199 0.92183 0.0
C1038 C 0.93478 0.83957 0.74577 0.0
C1039 C 0.91197 0.90296 0.90906 0.0
C1040 C 0.98826 0.88451 0.84058 0.0
C1041 C 0.99125 0.89977 0.78818 0.0
C1042 C 0.96648 0.87598 0.85637 0.0
C1043 C 0.94706 0.88258 0.81787 0.0
C1044 C 0.94978 0.89894 0.76669 0.0
C1045 C 0.97193 0.9075 0.75267 0.0
C1046 C 0.96451 0.85945 0.91367 0.0
C1047 C 0.92976 0.90689 0.72488 0.0
H1048 H 0.91286 0.81343 0.83441 0.0
H1049 H 0.89127 0.86742 0.96785 0.0
H1050 H 0.93526 0.85323 0.70758 0.0
H1051 H 0.95282 0.83523 0.75946 0.0
H1052 H 0.92659 0.82383 0.72441 0.0
H1053 H 0.8949 0.90851 0.9283 0.0
H1054 H 0.92449 0.90394 0.95068 0.0
H1055 H 0.9176 0.91505 0.87011 0.0
H1056 H 1.00314 0.87913 0.86924 0.0
H1057 H 0.97421 0.91962 0.7126 0.0
H1058 H 0.9589 0.8422 0.89545 0.0
H1059 H 0.95147 0.86583 0.94946 0.0
H1060 H 0.9811 0.85726 0.94058 0.0
H1061 H 0.9293 0.89648 0.67847 0.0
H1062 H 0.93195 0.92528 0.7109 0.0
H1063 H 0.91296 0.90492 0.75036 0.0
C1064 C 0.69433 0.92646 0.85656 0.0
C1065 C 0.68424 0.91983 0.91659 0.0
C1066 C 0.6811 0.9376 0.808 0.0
C1067 C 0.65777 0.94291 0.82161 0.0
C1068 C 0.64677 0.93228 0.87581 0.0
C1069 C 0.66013 0.92026 0.92196 0.0
C1070 C 0.69284 0.94676 0.74716 0.0
C1071 C 0.62186 0.93692 0.89216 0.0
C1072 C 0.64356 1.00619 0.80141 0.0
C1073 C 0.62694 1.00567 0.75132 0.0
C1074 C 0.65369 0.98582 0.82409 0.0
C1075 C 0.64762 0.96438 0.79409 0.0
C1076 C 0.63122 0.96384 0.74193 0.0
C1077 C 0.62075 0.98456 0.72186 0.0
C1078 C 0.67041 0.98733 0.88163 0.0
C1079 C 0.62484 0.94164 0.70672 0.0
H1080 H 0.71288 0.92558 0.85057 0.0
H1081 H 0.65206 0.91412 0.9669 0.0
H1082 H 0.68081 0.9468 0.70426 0.0
H1083 H 0.69849 0.96482 0.75651 0.0
H1084 H 0.70831 0.93631 0.73438 0.0
H1085 H 0.61429 0.92217 0.91938 0.0
H1086 H 0.62088 0.95249 0.92453 0.0
H1087 H 0.61137 0.94019 0.84733 0.0
H1088 H 0.64804 0.02258 0.82453 0.0
H1089 H 0.60778 0.98431 0.68319 0.0
H1090 H 0.68782 0.98178 0.86542 0.0
H1091 H 0.6649 0.97566 0.92193 0.0
H1092 H 0.67179 1.00513 0.90229 0.0
H1093 H 0.63721 0.93862 0.66573 0.0
H1094 H 0.60723 0.94263 0.68506 0.0
H1095 H 0.6257 0.9265 0.7399 0.0
C1096 C 0.57983 0.68745 0.87812 0.0
C1097 C 0.6009 0.68737 0.91259 0.0
C1098 C 0.57027 0.66699 0.85314 0.0
C1099 C 0.58212 0.64589 0.86264 0.0
C1100 C 0.60501 0.64621 0.88707 0.0
C1101 C 0.6141 0.66698 0.91274 0.0
C1102 C 0.54613 0.66766 0.82469 0.0
C1103 C 0.61907 0.62435 0.89191 0.0
C1104 C 0.53929 0.60308 0.92645 0.0
C1105 C 0.52983 0.59451 0.86721 0.0
C1106 C 0.55782 0.6185 0.92606 0.0
C1107 C 0.5682 0.62438 0.86502 0.0
C1108 C 0.56117 0.61288 0.80622 0.0
C1109 C 0.54169 0.59847 0.80764 0.0
C1110 C 0.56482 0.63 0.99062 0.0
C1111 C 0.57288 0.61692 0.74073 0.0
H1112 H 0.56944 0.70299 0.87682 0.0
H1113 H 0.63082 0.66686 0.93684 0.0
H1114 H 0.54563 0.6586 0.77614 0.0
H1115 H 0.53406 0.65866 0.85834 0.0
H1116 H 0.53982 0.6856 0.81759 0.0
H1117 H 0.63772 0.62812 0.8856 0.0
H1118 H 0.61684 0.61668 0.94161 0.0
H1119 H 0.61367 0.61138 0.85414 0.0
H1120 H 0.53133 0.59886 0.97326 0.0
H1121 H 0.53509 0.59164 0.76122 0.0
H1122 H 0.56194 0.64893 0.9877 0.0
H1123 H 0.58341 0.62715 1.00029 0.0
H1124 H 0.55497 0.62334 0.03353 0.0
H1125 H 0.56193 0.62826 0.70967 0.0
H1126 H 0.57481 0.60029 0.71343 0.0
H1127 H 0.59014 0.62495 0.74668 0.0
C1128 C 0.8545 0.62815 0.90973 0.0
C1129 C 0.83338 0.61688 0.89946 0.0
C1130 C 0.87462 0.61985 0.87931 0.0
C1131 C 0.87336 0.59961 0.83967 0.0
C1132 C 0.85152 0.59137 0.81865 0.0
C1133 C 0.83159 0.60026 0.84886 0.0
C1134 C 0.89755 0.63013 0.8991 0.0
C1135 C 0.84933 0.57037 0.77432 0.0
C1136 C 0.9276 0.56542 0.7957 0.0
C1137 C 0.92972 0.55141 0.85179 0.0
C1138 C 0.90939 0.5814 0.79027 0.0
C1139 C 0.89297 0.58308 0.84192 0.0
C1140 C 0.89502 0.56862 0.89805 0.0
C1141 C 0.91338 0.55312 0.90223 0.0
C1142 C 0.90832 0.59684 0.73057 0.0
C1143 C 0.87797 0.56954 0.95458 0.0
H1144 H 0.8558 0.64136 0.948 0.0
H1145 H 0.81519 0.59172 0.84018 0.0
H1146 H 0.90487 0.62021 0.94103 0.0
H1147 H 0.90998 0.62917 0.85748 0.0
H1148 H 0.89566 0.64843 0.91526 0.0
H1149 H 0.83215 0.56968 0.74988 0.0
H1150 H 0.86292 0.57013 0.73578 0.0
H1151 H 0.85137 0.55459 0.80463 0.0
H1152 H 0.94043 0.56425 0.75686 0.0
H1153 H 0.91479 0.542 0.94499 0.0
H1154 H 0.9161 0.61379 0.74359 0.0
H1155 H 0.89029 0.60003 0.71464 0.0
H1156 H 0.91812 0.5894 0.68822 0.0
H1157 H 0.87934 0.58648 0.98035 0.0
H1158 H 0.88108 0.55579 0.99159 0.0
H1159 H 0.86008 0.56767 0.93579 0.0
C1160 C 0.04826 0.16038 0.86963 0.0
C1161 C 0.03051 0.17692 0.86864 0.0
C1162 C 0.04617 0.13892 0.83661 0.0
C1163 C 0.02584 0.13353 0.8 0.0
C1164 C 0.0076 0.15008 0.79996 0.0
C1165 C 0.01017 0.17135 0.83416 0.0
C1166 C 0.06612 0.12231 0.84218 0.0
C1167 C 0.98502 0.14603 0.76445 0.0
C1168 C 0.036 0.08633 0.66767 0.0
C1169 C 0.02189 0.06828 0.68934 0.0
C1170 C 0.03715 0.10763 0.70214 0.0
C1171 C 0.0241 0.11108 0.76105 0.0
C1172 C 0.00989 0.09269 0.7832 0.0
C1173 C 0.00833 0.07199 0.7458 0.0
C1174 C 0.05276 0.12608 0.67498 0.0
C1175 C 0.99623 0.09469 0.84647 0.0
H1176 H 0.06388 0.16399 0.89745 0.0
H1177 H 0.99622 0.18382 0.83283 0.0
H1178 H 0.07186 0.12114 0.89458 0.0
H1179 H 0.06198 0.10473 0.82406 0.0
H1180 H 0.08092 0.12904 0.81342 0.0
H1181 H 0.98125 0.16081 0.73142 0.0
H1182 H 0.98456 0.12984 0.73495 0.0
H1183 H 0.97088 0.1455 0.80137 0.0
H1184 H 0.04597 0.08391 0.62278 0.0
H1185 H 0.9963 0.0587 0.7607 0.0
H1186 H 0.0706 0.12293 0.69269 0.0
H1187 H 0.04753 0.1437 0.69078 0.0
H1188 H 0.05312 0.12533 0.62001 0.0
H1189 H 1.00643 0.1035 0.88584 0.0
H1190 H 0.99075 0.07751 0.86474 0.0
H1191 H 0.98042 0.10497 0.83746 0.0
C1192 C 0.35195 0.01881 0.82172 0.0
C1193 C 0.35016 0.0311 0.88156 0.0
C1194 C 0.37362 0.01512 0.7915 0.0
C1195 C 0.39407 0.02348 0.82247 0.0
C1196 C 0.39216 0.03541 0.88386 0.0
C1197 C 0.37031 0.03939 0.91184 0.0
C1198 C 0.37465 1.00263 0.72577 0.0
C1199 C 0.41297 0.04476 0.91976 0.0
C1200 C 0.4507 0.99389 0.77422 0.0
C1201 C 0.46018 0.00926 0.72838 0.0
C1202 C 0.42957 0.99854 0.8059 0.0
C1203 C 0.41734 0.0191 0.79153 0.0
C1204 C 0.42721 0.0351 0.74686 0.0
C1205 C 0.44827 0.02982 0.71489 0.0
C1206 C 0.42022 0.98128 0.85452 0.0
C1207 C 0.41544 0.05775 0.73258 0.0
H1208 H 0.33636 0.01256 0.79785 0.0
H1209 H 0.36896 0.04902 0.95801 0.0
H1210 H 0.38225 0.01424 0.6883 0.0
H1211 H 0.38603 0.98727 0.72948 0.0
H1212 H 0.35736 0.99697 0.70822 0.0
H1213 H 0.40976 0.04655 0.97378 0.0
H1214 H 0.42833 0.03364 0.91239 0.0
H1215 H 0.41668 0.06221 0.90031 0.0
H1216 H 0.45972 0.9779 0.78456 0.0
H1217 H 0.45514 0.04155 0.67841 0.0
H1218 H 0.40334 0.9746 0.83677 0.0
H1219 H 0.41726 0.98986 0.90314 0.0
H1220 H 0.43208 0.96643 0.86182 0.0
H1221 H 0.3982 0.05449 0.71039 0.0
H1222 H 0.42565 0.06871 0.69859 0.0
H1223 H 0.4127 0.06749 0.77944 0.0
C1224 C 0.47364 0.34486 0.81661 0.0
C1225 C 0.49129 0.33574 0.85655 0.0
C1226 C 0.4771 0.36485 0.77842 0.0
C1227 C 0.49874 0.37625 0.78002 0.0
C1228 C 0.51693 0.36659 0.81786 0.0
C1229 C 0.51301 0.34654 0.85541 0.0
C1230 C 0.45721 0.37442 0.73882 0.0
C1231 C 0.54031 0.378 0.82096 0.0
C1232 C 0.51198 0.42358 0.65331 0.0
C1233 C 0.50636 0.44361 0.68927 0.0
C1234 C 0.50954 0.40147 0.68177 0.0
C1235 C 0.50161 0.39944 0.74802 0.0
C1236 C 0.49637 0.4198 0.78452 0.0
C1237 C 0.49887 0.44152 0.7548 0.0
C1238 C 0.51516 0.38032 0.64077 0.0
C1239 C 0.48806 0.41869 0.85523 0.0
H1240 H 0.4567 0.33698 0.81733 0.0
H1241 H 0.52696 0.33953 0.88489 0.0
H1242 H 0.45141 0.39098 0.76133 0.0
H1243 H 0.46271 0.37813 0.68743 0.0
H1244 H 0.44231 0.36236 0.73698 0.0
H1245 H 0.55321 0.36734 0.84768 0.0
H1246 H 0.54677 0.38134 0.77028 0.0
H1247 H 0.53884 0.39496 0.84667 0.0
H1248 H 0.51781 0.42518 0.60258 0.0
H1249 H 0.49528 0.45702 0.7834 0.0
H1250 H 0.49958 0.36933 0.63546 0.0
H1251 H 0.52851 0.36985 0.66612 0.0
H1252 H 0.52146 0.38479 0.59058 0.0
H1253 H 0.47196 0.40838 0.8577 0.0
H1254 H 0.48465 0.43609 0.87672 0.0
H1255 H 0.50113 0.4099 0.88638 0.0
C1256 C 0.16953 0.4958 0.88086 0.0
C1257 C 0.18948 0.48734 0.84957 0.0
C1258 C 0.14873 0.49896 0.84563 0.0
C1259 C 0.14769 0.49387 0.77684 0.0
C1260 C 0.1679 0.48577 0.74461 0.0
C1261 C 0.1884 0.48243 0.7813 0.0
C1262 C 0.12765 0.5073 0.88251 0.0
C1263 C 0.16783 0.48047 0.6713 0.0
C1264 C 0.08831 0.48101 0.70102 0.0
C1265 C 0.08159 0.50257 0.67598 0.0
C1266 C 0.1097 0.47789 0.73326 0.0
C1267 C 0.12535 0.49661 0.73927 0.0
C1268 C 0.11926 0.51811 0.71095 0.0
C1269 C 0.09758 0.52083 0.67991 0.0
C1270 C 0.11528 0.45461 0.7624 0.0
C1271 C 0.13551 0.53846 0.71455 0.0
H1272 H 0.16997 0.49931 0.93365 0.0
H1273 H 0.20369 0.47605 0.75639 0.0
H1274 H 0.12103 0.52341 0.85994 0.0
H1275 H 0.11375 0.49418 0.87853 0.0
H1276 H 0.13125 0.51069 0.93576 0.0
H1277 H 0.18513 0.47527 0.65294 0.0
H1278 H 0.15548 0.46631 0.66027 0.0
H1279 H 0.16197 0.49583 0.64335 0.0
H1280 H 0.07685 0.46645 0.69578 0.0
H1281 H 0.09313 0.53747 0.65944 0.0
H1282 H 0.11772 0.45638 0.81673 0.0
H1283 H 0.13168 0.44793 0.74158 0.0
H1284 H 0.10148 0.44169 0.75279 0.0
H1285 H 0.1382 0.54367 0.767 0.0
H1286 H 0.12887 0.5536 0.68693 0.0
H1287 H 0.15259 0.53356 0.69418 0.0
C1288 C 0.01578 0.85088 0.39005 0.0
C1289 C 0.99375 0.84365 0.36932 0.0
C1290 C 0.01905 0.87212 0.42405 0.0
C1291 C 0.99992 0.88681 0.43709 0.0
C1292 C 0.97773 0.87955 0.41606 0.0
C1293 C 0.97493 0.85826 0.3827 0.0
C1294 C 0.04296 0.87871 0.44696 0.0
C1295 C 0.95688 0.89449 0.42765 0.0
C1296 C 1.00508 0.93168 0.57751 0.0
C1297 C 0.01134 0.95172 0.5435 0.0
C1298 C 1.00113 0.9106 0.54372 0.0
C1299 C 1.0031 0.90948 0.47368 0.0
C1300 C 0.00873 0.92998 0.43902 0.0
C1301 C 0.01335 0.95064 0.47443 0.0
C1302 C 0.99514 0.88948 0.58347 0.0
C1303 C 0.01038 0.93 0.36452 0.0
H1304 H 0.03047 0.83978 0.38048 0.0
H1305 H 0.95788 0.85325 0.36575 0.0
H1306 H 0.04806 0.89541 0.4248 0.0
H1307 H 0.04308 0.88112 0.50156 0.0
H1308 H 0.05603 0.86545 0.43351 0.0
H1309 H 0.94062 0.88603 0.41123 0.0
H1310 H 0.95541 0.89887 0.48103 0.0
H1311 H 0.95893 0.91081 0.39999 0.0
H1312 H 1.00408 0.93234 0.63102 0.0
H1313 H 0.01877 0.96595 0.44813 0.0
H1314 H 1.00424 0.87393 0.56442 0.0
H1315 H 0.97633 0.88622 0.57963 0.0
H1316 H 0.99958 0.89175 0.63659 0.0
H1317 H 0.02487 0.91877 0.34842 0.0
H1318 H 0.01317 0.94763 0.34473 0.0
H1319 H 0.99436 0.92283 0.34236 0.0
C1320 C 0.66016 0.99423 0.36749 0.0
C1321 C 0.6807 0.99389 0.40414 0.0
C1322 C 0.63874 0.99831 0.39789 0.0
C1323 C 0.63765 1.00269 0.46718 0.0
C1324 C 0.65853 1.00256 0.50451 0.0
C1325 C 0.67968 0.99768 0.47273 0.0
C1326 C 0.61758 0.99747 0.35421 0.0
C1327 C 0.659 1.00771 0.57796 0.0
C1328 C 0.58348 0.03566 0.51945 0.0
C1329 C 0.5711 0.01908 0.55507 0.0
C1330 C 0.60539 0.0308 0.49298 0.0
C1331 C 0.61496 0.00839 0.49947 0.0
C1332 C 0.60256 0.99154 0.53552 0.0
C1333 C 0.5812 0.99734 0.5648 0.0
C1334 C 0.61826 0.0497 0.45776 0.0
C1335 C 0.61172 0.96731 0.54239 0.0
H1336 H 0.66078 0.9909 0.31457 0.0
H1337 H 0.69551 0.99734 0.50141 0.0
H1338 H 0.61497 0.97944 0.33654 0.0
H1339 H 0.60164 1.00338 0.37902 0.0
H1340 H 0.62034 0.00823 0.30966 0.0
H1341 H 0.67457 0.01794 0.59126 0.0
H1342 H 0.64356 0.01731 0.59514 0.0
H1343 H 0.66007 0.99122 0.60543 0.0
H1344 H 0.57616 0.05275 0.5131 0.0
H1345 H 0.57238 0.9848 0.59507 0.0
H1346 H 0.6186 0.04587 0.40384 0.0
H1347 H 0.63639 0.05051 0.47546 0.0
H1348 H 0.61014 0.0669 0.46534 0.0
H1349 H 0.61554 0.95991 0.4927 0.0
H1350 H 0.59937 0.95581 0.56804 0.0
H1351 H 0.62808 0.96758 0.57081 0.0
C1352 C 0.54525 0.69056 0.48105 0.0
C1353 C 0.54345 0.68891 0.41171 0.0
C1354 C 0.54229 0.67099 0.52148 0.0
C1355 C 0.53765 0.64914 0.492 0.0
C1356 C 0.53599 0.64738 0.42211 0.0
C1357 C 0.53882 0.66718 0.38309 0.0
C1358 C 0.54417 0.67365 0.59573 0.0
C1359 C 0.53143 0.62444 0.38831 0.0
C1360 C 0.54988 0.59166 0.57597 0.0
C1361 C 0.52754 0.58368 0.58963 0.0
C1362 C 0.55361 0.61347 0.54767 0.0
C1363 C 0.53454 0.62794 0.53333 0.0
C1364 C 0.51214 0.62082 0.55241 0.0
C1365 C 0.50892 0.59885 0.58042 0.0
C1366 C 0.57785 0.62024 0.52906 0.0
C1367 C 0.49133 0.63581 0.53945 0.0
H1368 H 0.54876 0.70722 0.5038 0.0
H1369 H 0.5379 0.66551 0.32966 0.0
H1370 H 0.52813 0.66746 0.61959 0.0
H1371 H 0.55852 0.66285 0.61461 0.0
H1372 H 0.54725 0.69186 0.61121 0.0
H1373 H 0.53073 0.6259 0.33353 0.0
H1374 H 0.54515 0.6119 0.4015 0.0
H1375 H 0.51481 0.61721 0.40566 0.0
H1376 H 0.56452 0.58048 0.58509 0.0
H1377 H 0.4916 0.59318 0.59199 0.0
H1378 H 0.5813 0.63855 0.54239 0.0
H1379 H 0.57994 0.61843 0.47466 0.0
H1380 H 0.59096 0.60919 0.55354 0.0
H1381 H 0.49457 0.65378 0.55661 0.0
H1382 H 0.47563 0.62921 0.56436 0.0
H1383 H 0.48794 0.6364 0.48539 0.0
C1384 C 0.84163 0.52449 0.40883 0.0
C1385 C 0.83223 0.54653 0.39725 0.0
C1386 C 0.86277 0.52165 0.44268 0.0
C1387 C 0.87487 0.54126 0.46704 0.0
C1388 C 0.86499 0.56344 0.45858 0.0
C1389 C 0.84405 0.56582 0.42348 0.0
C1390 C 0.8726 0.49766 0.4501 0.0
C1391 C 0.87702 0.58483 0.48442 0.0
C1392 C 0.92488 0.53126 0.58891 0.0
C1393 C 0.94411 0.53257 0.54706 0.0
C1394 C 0.90229 0.53466 0.56426 0.0
C1395 C 0.89875 0.53872 0.49567 0.0
C1396 C 0.91821 0.53999 0.45348 0.0
C1397 C 0.94051 0.53707 0.4797 0.0
C1398 C 0.88223 0.53381 0.61157 0.0
C1399 C 0.91547 0.54395 0.38006 0.0
H1400 H 0.83264 0.50932 0.39054 0.0
H1401 H 0.83747 0.58303 0.41455 0.0
H1402 H 0.88901 0.49628 0.42215 0.0
H1403 H 0.87664 0.49425 0.50283 0.0
H1404 H 0.86062 0.48408 0.43164 0.0
H1405 H 0.86599 0.60047 0.48074 0.0
H1406 H 0.88217 0.58254 0.53692 0.0
H1407 H 0.89301 0.5878 0.45566 0.0
H1408 H 0.92753 0.52777 0.64103 0.0
H1409 H 0.95519 0.53748 0.44671 0.0
H1410 H 0.87113 0.51876 0.59932 0.0
H1411 H 0.87145 0.54955 0.60651 0.0
H1412 H 0.88794 0.53242 0.66396 0.0
H1413 H 0.90502 0.52984 0.35766 0.0
H1414 H 0.93232 0.54469 0.35407 0.0
H1415 H 0.90612 0.56037 0.37136 0.0
loop_
_geom_bond_atom_site_label_1
_geom_bond_atom_site_label_2
_geom_bond_distance
_geom_bond_site_symmetry_2
_ccdc_geom_bond_type
C0 C1 1.386 . S
C0 C2 1.397 . S
C0 H24 0.931 1_554 S
C1 C0 1.386 . S
C1 C5 1.397 . S
C2 C0 1.397 . S
C2 C3 1.384 . S
C2 H25 0.930 . S
C3 C2 1.384 . S
C3 C4 1.377 . S
C3 C6 1.481 . S
C4 C3 1.377 . S
C4 C5 1.389 . S
C4 H26 0.929 . S
C5 C1 1.397 . S
C5 C4 1.389 . S
C5 H27 0.931 . S
C6 C3 1.481 . S
C6 C7 1.387 . S
C6 C11 1.390 . S
C7 C6 1.387 . S
C7 C8 1.401 . S
C7 H28 0.930 . S
C8 C7 1.401 . S
C8 C9 1.376 . S
C8 C17 1.511 . S
C9 C8 1.376 . S
C9 C10 1.392 . S
C9 H30 0.931 . S
C10 C9 1.392 . S
C10 C11 1.361 . S
C10 C12 1.500 . S
C11 C6 1.390 . S
C11 C10 1.361 . S
C11 H29 0.931 . S
C12 C10 1.500 . S
C12 C13 1.371 . S
C12 C14 1.365 . S
C13 C12 1.371 . S
C13 C23 1.386 . S
C13 H31 0.931 . S
C14 C12 1.365 . S
C14 C15 1.409 . S
C14 H32 0.929 . S
C15 C14 1.409 . S
C15 C16 1.380 . S
C15 H33 0.930 . S
C16 C15 1.380 . S
C16 C23 1.357 . S
C17 C8 1.511 . S
C17 C18 1.341 . S
C17 C19 1.371 . S
C18 C17 1.341 . S
C18 C22 1.394 . S
C18 H34 0.930 . S
C19 C17 1.371 . S
C19 C20 1.392 . S
C19 H35 0.931 . S
C20 C19 1.392 . S
C20 C21 1.331 . S
C20 H38 0.932 . S
C21 C20 1.331 . S
C21 C22 1.336 . S
C22 C18 1.394 . S
C22 C21 1.336 . S
C22 H37 0.929 . S
C23 C13 1.386 . S
C23 C16 1.357 . S
C23 H36 0.928 . S
H24 C0 0.931 1_556 S
H25 C2 0.930 . S
H26 C4 0.929 . S
H27 C5 0.931 . S
H28 C7 0.930 . S
H29 C11 0.931 . S
H30 C9 0.931 . S
H31 C13 0.931 . S
H32 C14 0.929 . S
H33 C15 0.930 . S
H34 C18 0.930 . S
H35 C19 0.931 . S
H36 C23 0.928 . S
H37 C22 0.929 . S
H38 C20 0.932 . S
C39 C40 1.386 . S
C39 C41 1.397 . S
C39 H63 0.931 1_554 S
C40 C39 1.386 . S
C40 C44 1.397 . S
C41 C39 1.397 . S
C41 C42 1.384 . S
C41 H64 0.930 . S
C42 C41 1.384 . S
C42 C43 1.377 . S
C42 C45 1.481 . S
C43 C42 1.377 . S
C43 C44 1.389 . S
C43 H65 0.929 . S
C44 C40 1.397 . S
C44 C43 1.389 . S
C44 H66 0.931 . S
C45 C42 1.481 . S
C45 C46 1.387 . S
C45 C50 1.390 . S
C46 C45 1.387 . S
C46 C47 1.401 . S
C46 H67 0.930 . S
C47 C46 1.401 . S
C47 C48 1.376 . S
C47 C56 1.511 . S
C48 C47 1.376 . S
C48 C49 1.392 . S
C48 H69 0.931 . S
C49 C48 1.392 . S
C49 C50 1.361 . S
C49 C51 1.500 . S
C50 C45 1.390 . S
C50 C49 1.361 . S
C50 H68 0.931 . S
C51 C49 1.500 . S
C51 C52 1.371 . S
C51 C53 1.365 . S
C52 C51 1.371 . S
C52 C62 1.386 . S
C52 H70 0.931 . S
C53 C51 1.365 . S
C53 C54 1.409 . S
C53 H71 0.929 . S
C54 C53 1.409 . S
C54 C55 1.380 . S
C54 H72 0.930 . S
C55 C54 1.380 . S
C55 C62 1.357 . S
C56 C47 1.511 . S
C56 C57 1.341 . S
C56 C58 1.371 . S
C57 C56 1.341 . S
C57 C61 1.394 . S
C57 H73 0.930 . S
C58 C56 1.371 . S
C58 C59 1.392 . S
C58 H74 0.931 . S
C59 C58 1.392 . S
C59 C60 1.331 . S
C59 H77 0.932 . S
C60 C59 1.331 . S
C60 C61 1.336 . S
C61 C57 1.394 . S
C61 C60 1.336 . S
C61 H76 0.929 . S
C62 C52 1.386 . S
C62 C55 1.357 . S
C62 H75 0.928 . S
H63 C39 0.931 1_556 S
H64 C41 0.930 . S
H65 C43 0.929 . S
H66 C44 0.931 . S
H67 C46 0.930 . S
H68 C50 0.931 . S
H69 C48 0.931 . S
H70 C52 0.931 . S
H71 C53 0.929 . S
H72 C54 0.930 . S
H73 C57 0.930 . S
H74 C58 0.931 . S
H75 C62 0.928 . S
H76 C61 0.929 . S
H77 C59 0.932 . S
C78 C79 1.386 . S
C78 C80 1.397 . S
C78 H102 0.931 1_554 S
C79 C78 1.386 . S
C79 C83 1.397 . S
C80 C78 1.397 . S
C80 C81 1.384 . S
C80 H103 0.930 . S
C81 C80 1.384 . S
C81 C82 1.377 . S
C81 C84 1.481 . S
C82 C81 1.377 . S
C82 C83 1.389 . S
C82 H104 0.929 . S
C83 C79 1.397 . S
C83 C82 1.389 . S
C83 H105 0.931 . S
C84 C81 1.481 . S
C84 C85 1.387 . S
C84 C89 1.390 . S
C85 C84 1.387 . S
C85 C86 1.401 . S
C85 H106 0.930 . S
C86 C85 1.401 . S
C86 C87 1.376 . S
C86 C95 1.511 . S
C87 C86 1.376 . S
C87 C88 1.392 . S
C87 H108 0.931 . S
C88 C87 1.392 . S
C88 C89 1.361 . S
C88 C90 1.500 . S
C89 C84 1.390 . S
C89 C88 1.361 . S
C89 H107 0.931 . S
C90 C88 1.500 . S
C90 C91 1.371 . S
C90 C92 1.365 . S
C91 C90 1.371 . S
C91 C101 1.386 . S
C91 H109 0.931 . S
C92 C90 1.365 . S
C92 C93 1.409 . S
C92 H110 0.929 . S
C93 C92 1.409 . S
C93 C94 1.380 . S
C93 H111 0.930 . S
C94 C93 1.380 . S
C94 C101 1.357 . S
C95 C86 1.511 . S
C95 C96 1.341 . S
C95 C97 1.371 . S
C96 C95 1.341 . S
C96 C100 1.394 . S
C96 H112 0.930 . S
C97 C95 1.371 . S
C97 C98 1.392 . S
C97 H113 0.931 . S
C98 C97 1.392 . S
C98 C99 1.331 . S
C98 H116 0.932 . S
C99 C98 1.331 . S
C99 C100 1.336 . S
C100 C96 1.394 . S
C100 C99 1.336 . S
C100 H115 0.929 . S
C101 C91 1.386 . S
C101 C94 1.357 . S
C101 H114 0.928 . S
H102 C78 0.931 1_556 S
H103 C80 0.930 . S
H104 C82 0.929 . S
H105 C83 0.931 . S
H106 C85 0.930 . S
H107 C89 0.931 . S
H108 C87 0.931 . S
H109 C91 0.931 . S
H110 C92 0.929 . S
H111 C93 0.930 . S
H112 C96 0.930 . S
H113 C97 0.931 . S
H114 C101 0.928 . S
H115 C100 0.929 . S
H116 C98 0.932 . S
C117 C118 1.386 . S
C117 C119 1.397 . S
C117 H141 0.931 . S
C118 C117 1.386 . S
C118 C122 1.397 . S
C119 C117 1.397 . S
C119 C120 1.384 . S
C119 H142 0.930 . S
C120 C119 1.384 . S
C120 C121 1.377 . S
C120 C123 1.481 . S
C121 C120 1.377 . S
C121 C122 1.389 . S
C121 H143 0.929 . S
C122 C118 1.397 . S
C122 C121 1.389 . S
C122 H144 0.931 . S
C123 C120 1.481 . S
C123 C124 1.387 . S
C123 C128 1.390 . S
C124 C123 1.387 . S
C124 C125 1.401 . S
C124 H145 0.930 . S
C125 C124 1.401 . S
C125 C126 1.376 . S
C125 C134 1.511 . S
C126 C125 1.376 . S
C126 C127 1.392 . S
C126 H147 0.931 . S
C127 C126 1.392 . S
C127 C128 1.361 . S
C127 C129 1.500 . S
C128 C123 1.390 . S
C128 C127 1.361 . S
C128 H146 0.931 . S
C129 C127 1.500 . S
C129 C130 1.371 . S
C129 C131 1.365 . S
C130 C129 1.371 . S
C130 C140 1.386 1_554 S
C130 H148 0.931 . S
C131 C129 1.365 . S
C131 C132 1.409 . S
C131 H149 0.929 . S
C132 C131 1.409 . S
C132 C133 1.380 . S
C132 H150 0.930 . S
C133 C132 1.380 . S
C133 C140 1.357 1_554 S
C134 C125 1.511 . S
C134 C135 1.341 . S
C134 C136 1.371 . S
C135 C134 1.341 . S
C135 C139 1.394 . S
C135 H151 0.930 . S
C136 C134 1.371 . S
C136 C137 1.392 . S
C136 H152 0.931 . S
C137 C136 1.392 . S
C137 C138 1.331 . S
C137 H155 0.932 . S
C138 C137 1.331 . S
C138 C139 1.336 . S
C139 C135 1.394 . S
C139 C138 1.336 . S
C139 H154 0.929 . S
C140 C130 1.386 1_556 S
C140 C133 1.357 1_556 S
C140 H153 0.928 . S
H141 C117 0.931 . S
H142 C119 0.930 . S
H143 C121 0.929 . S
H144 C122 0.931 . S
H145 C124 0.930 . S
H146 C128 0.931 . S
H147 C126 0.931 . S
H148 C130 0.931 . S
H149 C131 0.929 . S
H150 C132 0.930 . S
H151 C135 0.930 . S
H152 C136 0.931 . S
H153 C140 0.928 . S
H154 C139 0.929 . S
H155 C137 0.932 . S
C156 C157 1.386 . S
C156 C158 1.397 . S
C156 H180 0.931 . S
C157 C156 1.386 . S
C157 C161 1.397 . S
C158 C156 1.397 . S
C158 C159 1.384 . S
C158 H181 0.930 . S
C159 C158 1.384 . S
C159 C160 1.377 . S
C159 C162 1.481 . S
C160 C159 1.377 . S
C160 C161 1.389 . S
C160 H182 0.929 . S
C161 C157 1.397 . S
C161 C160 1.389 . S
C161 H183 0.931 . S
C162 C159 1.481 . S
C162 C163 1.387 . S
C162 C167 1.390 . S
C163 C162 1.387 . S
C163 C164 1.401 . S
C163 H184 0.930 . S
C164 C163 1.401 . S
C164 C165 1.376 1_554 S
C164 C173 1.511 . S
C165 C164 1.376 1_556 S
C165 C166 1.392 . S
C165 H186 0.931 . S
C166 C165 1.392 . S
C166 C167 1.361 1_556 S
C166 C168 1.500 . S
C167 C162 1.390 . S
C167 C166 1.361 1_554 S
C167 H185 0.928 1_554 S
C168 C166 1.500 . S
C168 C169 1.371 . S
C168 C170 1.365 . S
C169 C168 1.371 . S
C169 C179 1.386 . S
C169 H187 0.931 . S
C170 C168 1.365 . S
C170 C171 1.409 . S
C170 H188 0.929 . S
C171 C170 1.409 . S
C171 C172 1.380 . S
C171 H189 0.930 . S
C172 C171 1.380 . S
C172 C179 1.357 . S
C173 C164 1.511 . S
C173 C174 1.341 . S
C173 C175 1.371 . S
C174 C173 1.341 . S
C174 C178 1.394 . S
C174 H190 0.930 . S
C175 C173 1.371 . S
C175 C176 1.392 . S
C175 H191 0.931 1_554 S
C176 C175 1.392 . S
C176 C177 1.331 . S
C176 H194 0.932 1_554 S
C177 C176 1.331 . S
C177 C178 1.336 . S
C178 C174 1.394 . S
C178 C177 1.336 . S
C178 H193 0.929 . S
C179 C169 1.386 . S
C179 C172 1.357 . S
C179 H192 0.928 . S
H180 C156 0.931 . S
H181 C158 0.930 . S
H182 C160 0.929 . S
H183 C161 0.931 . S
H184 C163 0.930 . S
H185 C167 0.928 1_556 S
H186 C165 0.931 . S
H187 C169 0.931 . S
H188 C170 0.929 . S
H189 C171 0.930 . S
H190 C174 0.930 . S
H191 C175 0.931 1_556 S
H192 C179 0.928 . S
H193 C178 0.929 . S
H194 C176 0.932 1_556 S
C195 C196 1.386 . S
C195 C197 1.397 . S
C195 H219 0.931 . S
C196 C195 1.386 . S
C196 C200 1.397 . S
C197 C195 1.397 . S
C197 C198 1.384 . S
C197 H220 0.930 . S
C198 C197 1.384 . S
C198 C199 1.377 . S
C198 C201 1.481 . S
C199 C198 1.377 . S
C199 C200 1.389 . S
C199 H221 0.929 . S
C200 C196 1.397 . S
C200 C199 1.389 . S
C200 H222 0.931 . S
C201 C198 1.481 . S
C201 C202 1.387 . S
C201 C206 1.390 . S
C202 C201 1.387 . S
C202 C203 1.401 . S
C202 H223 0.930 . S
C203 C202 1.401 . S
C203 C204 1.376 1_554 S
C203 C212 1.511 . S
C204 C203 1.376 1_556 S
C204 C205 1.392 . S
C204 H225 0.931 . S
C205 C204 1.392 . S
C205 C206 1.361 1_556 S
C205 C207 1.500 . S
C206 C201 1.390 . S
C206 C205 1.361 1_554 S
C206 H224 0.931 1_554 S
C207 C205 1.500 . S
C207 C208 1.371 . S
C207 C209 1.365 . S
C208 C207 1.371 . S
C208 C218 1.386 . S
C208 H226 0.931 . S
C209 C207 1.365 . S
C209 C210 1.409 . S
C209 H227 0.929 . S
C210 C209 1.409 . S
C210 C211 1.380 . S
C210 H228 0.930 . S
C211 C210 1.380 . S
C211 C218 1.357 . S
C212 C203 1.511 . S
C212 C213 1.341 . S
C212 C214 1.371 . S
C213 C212 1.341 . S
C213 C217 1.394 . S
C213 H229 0.930 . S
C214 C212 1.371 . S
C214 C215 1.392 . S
C214 H230 0.931 1_554 S
C215 C214 1.392 . S
C215 C216 1.331 . S
C215 H233 0.932 1_554 S
C216 C215 1.331 . S
C216 C217 1.336 . S
C217 C213 1.394 . S
C217 C216 1.336 . S
C217 H232 0.929 . S
C218 C208 1.386 . S
C218 C211 1.357 . S
C218 H231 0.928 . S
H219 C195 0.931 . S
H220 C197 0.930 . S
H221 C199 0.929 . S
H222 C200 0.931 . S
H223 C202 0.930 . S
H224 C206 0.931 1_556 S
H225 C204 0.931 . S
H226 C208 0.931 . S
H227 C209 0.929 . S
H228 C210 0.930 . S
H229 C213 0.930 . S
H230 C214 0.931 1_556 S
H231 C218 0.928 . S
H232 C217 0.929 . S
H233 C215 0.932 1_556 S
C234 C235 1.386 . S
C234 C236 1.397 . S
C234 H258 0.931 . S
C235 C234 1.386 . S
C235 C239 1.397 . S
C236 C234 1.397 . S
C236 C237 1.384 . S
C236 H259 0.930 . S
C237 C236 1.384 . S
C237 C238 1.377 . S
C237 C240 1.481 . S
C238 C237 1.377 . S
C238 C239 1.389 . S
C238 H260 0.929 . S
C239 C235 1.397 . S
C239 C238 1.389 . S
C239 H261 0.931 . S
C240 C237 1.481 . S
C240 C241 1.387 . S
C240 C245 1.406 . S
C241 C240 1.387 . S
C241 C242 1.401 . S
C241 H262 0.930 . S
C242 C241 1.401 . S
C242 C243 1.376 1_554 S
C242 C251 1.511 . S
C243 C242 1.376 1_556 S
C243 C244 1.392 . S
C243 H264 0.931 . S
C244 C243 1.392 . S
C244 C245 1.349 1_556 S
C244 C246 1.500 . S
C245 C240 1.406 . S
C245 C244 1.349 1_554 S
C245 H263 0.927 1_554 S
C246 C244 1.500 . S
C246 C247 1.371 . S
C246 C248 1.365 . S
C247 C246 1.371 . S
C247 C257 1.386 . S
C247 H265 0.931 . S
C248 C246 1.365 . S
C248 C249 1.409 . S
C248 H266 0.929 . S
C249 C248 1.409 . S
C249 C250 1.380 . S
C249 H267 0.930 . S
C250 C249 1.380 . S
C250 C257 1.357 . S
C251 C242 1.511 . S
C251 C252 1.341 . S
C251 C253 1.371 . S
C252 C251 1.341 . S
C252 C256 1.394 . S
C252 H268 0.930 . S
C253 C251 1.371 . S
C253 C254 1.392 . S
C253 H269 0.931 1_554 S
C254 C253 1.392 . S
C254 C255 1.331 . S
C254 H272 0.932 1_554 S
C255 C254 1.331 . S
C255 C256 1.336 . S
C256 C252 1.394 . S
C256 C255 1.336 . S
C256 H271 0.929 . S
C257 C247 1.386 . S
C257 C250 1.357 . S
C257 H270 0.928 . S
H258 C234 0.931 . S
H259 C236 0.930 . S
H260 C238 0.929 . S
H261 C239 0.931 . S
H262 C241 0.930 . S
H263 C245 0.927 1_556 S
H264 C243 0.931 . S
H265 C247 0.931 . S
H266 C248 0.929 . S
H267 C249 0.930 . S
H268 C252 0.930 . S
H269 C253 0.931 1_556 S
H270 C257 0.928 . S
H271 C256 0.929 . S
H272 C254 0.932 1_556 S
C273 C274 1.386 . S
C273 C275 1.397 . S
C273 H297 0.931 . S
C274 C273 1.386 . S
C274 C278 1.397 . S
C275 C273 1.397 . S
C275 C276 1.384 . S
C275 H298 0.930 . S
C276 C275 1.384 . S
C276 C277 1.377 . S
C276 C279 1.481 . S
C277 C276 1.377 . S
C277 C278 1.389 . S
C277 H299 0.929 . S
C278 C274 1.397 . S
C278 C277 1.389 . S
C278 H300 0.931 . S
C279 C276 1.481 . S
C279 C280 1.387 . S
C279 C284 1.390 1_556 S
C280 C279 1.387 . S
C280 C281 1.401 1_556 S
C280 H301 0.930 . S
C281 C280 1.401 1_554 S
C281 C282 1.376 . S
C281 C290 1.511 . S
C282 C281 1.376 . S
C282 C283 1.392 . S
C282 H303 0.931 . S
C283 C282 1.392 . S
C283 C284 1.361 . S
C283 C285 1.500 . S
C284 C279 1.390 1_554 S
C284 C283 1.361 . S
C284 H302 0.929 1_554 S
C285 C283 1.500 . S
C285 C286 1.371 . S
C285 C287 1.365 . S
C286 C285 1.371 . S
C286 C296 1.386 . S
C286 H304 0.931 . S
C287 C285 1.365 . S
C287 C288 1.409 . S
C287 H305 0.929 . S
C288 C287 1.409 . S
C288 C289 1.380 . S
C288 H306 0.930 . S
C289 C288 1.380 . S
C289 C296 1.357 . S
C290 C281 1.511 . S
C290 C291 1.341 . S
C290 C292 1.371 . S
C291 C290 1.341 . S
C291 C295 1.394 . S
C291 H307 0.930 1_554 S
C292 C290 1.371 . S
C292 C293 1.392 . S
C292 H308 0.931 . S
C293 C292 1.392 . S
C293 C294 1.331 . S
C293 H311 0.932 . S
C294 C293 1.331 . S
C294 C295 1.336 . S
C295 C291 1.394 . S
C295 C294 1.336 . S
C295 H310 0.929 1_554 S
C296 C286 1.386 . S
C296 C289 1.357 . S
C296 H309 0.928 . S
H297 C273 0.931 . S
H298 C275 0.930 . S
H299 C277 0.929 . S
H300 C278 0.931 . S
H301 C280 0.930 . S
H302 C284 0.929 1_556 S
H303 C282 0.931 . S
H304 C286 0.931 . S
H305 C287 0.929 . S
H306 C288 0.930 . S
H307 C291 0.930 1_556 S
H308 C292 0.931 . S
H309 C296 0.928 . S
H310 C295 0.929 1_556 S
H311 C293 0.932 . S
Eu312 N343 2.657 1_565 S
Eu312 N350 2.609 . S
Eu312 O356 2.558 . S
Eu312 O357 2.612 1_455 S
Eu312 O359 2.339 1_455 S
Eu312 O360 2.563 . S
Eu312 O361 2.419 . S
Eu312 O363 2.380 1_565 S
Eu312 O364 2.432 . S
Eu312 C376 2.848 . S
C313 C316 1.429 1_545 S
C313 C317 1.411 . S
C313 N320 1.377 . S
C314 C316 1.420 . S
C314 C318 1.423 . S
C314 C326 1.392 . S
C315 C317 1.420 1_565 S
C315 C318 1.351 . S
C315 H338 0.931 . S
C316 C313 1.429 1_565 S
C316 C314 1.420 . S
C316 N324 1.363 1_565 S
C317 C313 1.411 . S
C317 C315 1.420 1_545 S
C317 C322 1.395 . S
C318 C314 1.423 . S
C318 C315 1.351 . S
C318 H330 0.930 . S
C319 C321 1.400 . S
C319 C322 1.386 . S
C319 H331 0.930 . S
N320 C313 1.377 . S
N320 C321 1.321 . S
N320 Eu323 2.609 . S
C321 C319 1.400 . S
C321 N320 1.321 . S
C321 H328 0.930 . S
C322 C317 1.395 . S
C322 C319 1.386 . S
C322 H341 0.930 . S
Eu323 N320 2.609 . S
Eu323 N324 2.654 . S
Eu323 O357 2.380 1_545 S
Eu323 O358 2.432 . S
Eu323 O362 2.558 . S
Eu323 O363 2.612 1_655 S
Eu323 O365 2.339 1_655 S
Eu323 O366 2.563 1_655 S
Eu323 O367 2.419 . S
Eu323 C387 2.848 . S
N324 C316 1.363 1_545 S
N324 Eu323 2.654 . S
N324 C325 1.336 1_645 S
C325 N324 1.336 1_465 S
C325 C327 1.414 . S
C325 H332 0.929 . S
C326 C314 1.392 . S
C326 C327 1.363 1_655 S
C326 H334 0.930 . S
C327 C325 1.414 . S
C327 C326 1.363 1_455 S
C327 H329 0.934 . S
H328 C321 0.930 . S
H329 C327 0.934 . S
H330 C318 0.930 . S
H331 C319 0.930 . S
H332 C325 0.929 . S
H333 C347 0.930 1_655 S
H334 C326 0.930 . S
H335 C353 0.930 . S
H336 C344 0.929 1_655 S
H337 C351 0.930 . S
H338 C315 0.931 . S
H339 C345 0.930 . S
H340 C378 0.930 . S
H341 C322 0.930 . S
H342 C377 0.931 . S
N343 Eu312 2.657 1_545 S
N343 C344 1.334 . S
N343 C348 1.362 . S
C344 H336 0.929 1_455 S
C344 N343 1.334 . S
C344 C347 1.413 . S
C345 H339 0.930 . S
C345 C346 1.392 . S
C345 C347 1.367 . S
C346 C345 1.392 . S
C346 C348 1.420 . S
C346 C378 1.423 . S
C347 H333 0.930 1_455 S
C347 C344 1.413 . S
C347 C345 1.367 . S
C348 N343 1.362 . S
C348 C346 1.420 . S
C348 C352 1.429 . S
H349 C354 0.929 1_545 S
N350 Eu312 2.609 . S
N350 C352 1.377 1_565 S
N350 C353 1.321 . S
C351 H337 0.930 . S
C351 C353 1.400 . S
C351 C354 1.402 . S
C352 C348 1.429 . S
C352 N350 1.377 1_545 S
C352 C355 1.411 . S
C353 H335 0.930 . S
C353 N350 1.321 . S
C353 C351 1.400 . S
C354 H349 0.929 1_565 S
C354 C351 1.402 . S
C354 C355 1.381 1_565 S
C355 C352 1.411 . S
C355 C354 1.381 1_545 S
C355 C377 1.420 . S
O356 Eu312 2.558 . S
O356 C376 1.257 . S
O357 Eu312 2.612 1_655 S
O357 Eu323 2.380 1_565 S
O357 C368 1.276 . S
O358 Eu323 2.432 . S
O358 C375 1.264 . S
O359 Eu312 2.339 1_655 S
O359 C375 1.254 1_565 S
O360 Eu312 2.563 . S
O360 C368 1.235 1_455 S
O361 Eu312 2.419 . S
O361 C376 1.249 . S
O362 Eu323 2.558 . S
O362 C387 1.257 . S
O363 Eu312 2.380 1_545 S
O363 Eu323 2.612 1_455 S
O363 C379 1.276 . S
O364 Eu312 2.432 . S
O364 C386 1.264 1_565 S
O365 Eu323 2.339 1_455 S
O365 C386 1.254 . S
O366 Eu323 2.563 1_455 S
O366 C379 1.235 . S
O367 Eu323 2.419 . S
O367 C387 1.249 . S
C368 O357 1.276 . S
C368 O360 1.235 1_655 S
C369 C371 1.393 . S
C369 C373 1.395 . S
C369 C376 1.492 . S
C370 C371 1.392 . S
C370 C372 1.386 . S
C371 C369 1.393 . S
C371 C370 1.392 . S
C371 H388 0.921 1_455 S
C372 C370 1.386 . S
C372 C374 1.395 . S
C372 H389 0.930 . S
C373 C369 1.395 . S
C373 C374 1.379 . S
C373 H390 0.930 . S
C374 C372 1.395 . S
C374 C373 1.379 . S
C374 H391 0.930 . S
C375 O358 1.264 . S
C375 O359 1.254 1_545 S
C376 Eu312 2.848 . S
C376 O356 1.257 . S
C376 O361 1.249 . S
C376 C369 1.492 . S
C377 H342 0.931 . S
C377 C355 1.420 . S
C377 C378 1.351 . S
C378 H340 0.930 . S
C378 C346 1.423 . S
C378 C377 1.351 . S
C379 O363 1.276 . S
C379 O366 1.235 . S
C380 C381 1.393 . S
C380 C384 1.395 . S
C380 C387 1.492 . S
C381 C380 1.393 . S
C381 C382 1.392 . S
C381 H392 0.930 1_655 S
C382 C381 1.392 . S
C382 C383 1.386 . S
C383 C382 1.386 . S
C383 C385 1.395 . S
C383 H393 0.930 . S
C384 C380 1.395 . S
C384 C385 1.379 . S
C384 H394 0.930 . S
C385 C383 1.395 . S
C385 C384 1.379 . S
C385 H395 0.930 . S
C386 O364 1.264 1_545 S
C386 O365 1.254 . S
C387 Eu323 2.848 . S
C387 O362 1.257 . S
C387 O367 1.249 . S
C387 C380 1.492 . S
H388 C371 0.921 1_655 S
H389 C372 0.930 . S
H390 C373 0.930 . S
H391 C374 0.930 . S
H392 C381 0.930 1_455 S
H393 C383 0.930 . S
H394 C384 0.930 . S
H395 C385 0.930 . S
Eu396 N427 2.657 . S
Eu396 N434 2.609 . S
Eu396 O440 2.558 . S
Eu396 O441 2.612 1_545 S
Eu396 O443 2.339 1_545 S
Eu396 O444 2.563 . S
Eu396 O445 2.419 . S
Eu396 O447 2.380 . S
Eu396 O448 2.432 . S
Eu396 C460 2.848 . S
C397 C400 1.429 . S
C397 C401 1.411 . S
C397 N404 1.377 . S
C398 C400 1.420 . S
C398 C402 1.423 . S
C398 C410 1.392 . S
C399 C401 1.420 . S
C399 C402 1.351 . S
C399 H422 0.931 . S
C400 C397 1.429 . S
C400 C398 1.420 . S
C400 N408 1.362 . S
C401 C397 1.411 . S
C401 C399 1.420 . S
C401 C406 1.395 . S
C402 C398 1.423 . S
C402 C399 1.351 . S
C402 H414 0.930 . S
C403 C405 1.400 . S
C403 C406 1.386 . S
C403 H415 0.930 . S
N404 C397 1.377 . S
N404 C405 1.321 . S
N404 Eu407 2.609 . S
C405 C403 1.400 . S
C405 N404 1.321 . S
C405 H412 0.930 . S
C406 C401 1.395 . S
C406 C403 1.386 . S
C406 H425 0.930 . S
Eu407 N404 2.609 . S
Eu407 N408 2.657 . S
Eu407 O441 2.380 . S
Eu407 O442 2.432 . S
Eu407 O446 2.558 . S
Eu407 O447 2.612 1_565 S
Eu407 O449 2.339 1_565 S
Eu407 O450 2.563 1_565 S
Eu407 O451 2.419 . S
Eu407 C471 2.848 . S
N408 C400 1.362 . S
N408 Eu407 2.657 . S
N408 C409 1.334 1_565 S
C409 N408 1.334 1_545 S
C409 C411 1.413 . S
C409 H416 0.929 . S
C410 C398 1.392 . S
C410 C411 1.367 1_565 S
C410 H418 0.930 . S
C411 C409 1.413 . S
C411 C410 1.367 1_545 S
C411 H413 0.930 . S
H412 C405 0.930 . S
H413 C411 0.930 . S
H414 C402 0.930 . S
H415 C403 0.930 . S
H416 C409 0.929 . S
H417 C431 0.930 1_565 S
H418 C410 0.930 . S
H419 C437 0.930 . S
H420 C428 0.929 1_565 S
H421 C435 0.930 . S
H422 C399 0.931 . S
H423 C429 0.930 . S
H424 C462 0.930 . S
H425 C406 0.930 . S
H426 C461 0.931 . S
N427 Eu396 2.657 . S
N427 C428 1.334 . S
N427 C432 1.362 . S
C428 H420 0.929 1_545 S
C428 N427 1.334 . S
C428 C431 1.413 . S
C429 H423 0.930 . S
C429 C430 1.392 . S
C429 C431 1.367 . S
C430 C429 1.392 . S
C430 C432 1.420 . S
C430 C462 1.423 . S
C431 H417 0.930 1_545 S
C431 C428 1.413 . S
C431 C429 1.367 . S
C432 N427 1.362 . S
C432 C430 1.420 . S
C432 C436 1.429 . S
H433 C438 0.930 . S
N434 Eu396 2.609 . S
N434 C436 1.377 . S
N434 C437 1.321 . S
C435 H421 0.930 . S
C435 C437 1.400 . S
C435 C438 1.386 . S
C436 C432 1.429 . S
C436 N434 1.377 . S
C436 C439 1.411 . S
C437 H419 0.930 . S
C437 N434 1.321 . S
C437 C435 1.400 . S
C438 H433 0.930 . S
C438 C435 1.386 . S
C438 C439 1.395 . S
C439 C436 1.411 . S
C439 C438 1.395 . S
C439 C461 1.420 . S
O440 Eu396 2.558 . S
O440 C460 1.257 . S
O441 Eu396 2.612 1_565 S
O441 Eu407 2.380 . S
O441 C452 1.276 . S
O442 Eu407 2.432 . S
O442 C459 1.264 . S
O443 Eu396 2.339 1_565 S
O443 C459 1.254 . S
O444 Eu396 2.563 . S
O444 C452 1.235 1_545 S
O445 Eu396 2.419 . S
O445 C460 1.249 . S
O446 Eu407 2.558 . S
O446 C471 1.257 . S
O447 Eu396 2.380 . S
O447 Eu407 2.612 1_545 S
O447 C463 1.276 . S
O448 Eu396 2.432 . S
O448 C470 1.264 . S
O449 Eu407 2.339 1_545 S
O449 C470 1.254 . S
O450 Eu407 2.563 1_545 S
O450 C463 1.235 . S
O451 Eu407 2.419 . S
O451 C471 1.249 . S
C452 O441 1.276 . S
C452 O444 1.235 1_565 S
C453 C455 1.393 . S
C453 C457 1.395 . S
C453 C460 1.492 . S
C454 C455 1.392 . S
C454 C456 1.386 . S
C455 C453 1.393 . S
C455 C454 1.392 . S
C455 H472 0.930 . S
C456 C454 1.386 . S
C456 C458 1.395 . S
C456 H473 0.930 . S
C457 C453 1.395 . S
C457 C458 1.379 . S
C457 H474 0.930 . S
C458 C456 1.395 . S
C458 C457 1.379 . S
C458 H475 0.930 . S
C459 O442 1.264 . S
C459 O443 1.254 . S
C460 Eu396 2.848 . S
C460 O440 1.257 . S
C460 O445 1.249 . S
C460 C453 1.492 . S
C461 H426 0.931 . S
C461 C439 1.420 . S
C461 C462 1.351 . S
C462 H424 0.930 . S
C462 C430 1.423 . S
C462 C461 1.351 . S
C463 O447 1.276 . S
C463 O450 1.235 . S
C464 C465 1.393 . S
C464 C468 1.395 . S
C464 C471 1.492 . S
C465 C464 1.393 . S
C465 C466 1.392 . S
C465 H476 0.930 1_565 S
C466 C465 1.392 . S
C466 C467 1.386 . S
C467 C466 1.386 . S
C467 C469 1.395 . S
C467 H477 0.930 . S
C468 C464 1.395 . S
C468 C469 1.379 . S
C468 H478 0.930 . S
C469 C467 1.395 . S
C469 C468 1.379 . S
C469 H479 0.930 . S
C470 O448 1.264 . S
C470 O449 1.254 . S
C471 Eu407 2.848 . S
C471 O446 1.257 . S
C471 O451 1.249 . S
C471 C464 1.492 . S
H472 C455 0.930 . S
H473 C456 0.930 . S
H474 C457 0.930 . S
H475 C458 0.930 . S
H476 C465 0.930 1_545 S
H477 C467 0.930 . S
H478 C468 0.930 . S
H479 C469 0.930 . S
Eu480 N511 2.657 . S
Eu480 N518 2.609 . S
Eu480 O524 2.558 . S
Eu480 O525 2.612 . S
Eu480 O527 2.339 . S
Eu480 O528 2.563 . S
Eu480 O529 2.419 . S
Eu480 O531 2.380 . S
Eu480 O532 2.432 . S
Eu480 C544 2.848 . S
C481 C484 1.429 . S
C481 C485 1.411 . S
C481 N488 1.377 . S
C482 C484 1.420 . S
C482 C486 1.423 . S
C482 C494 1.392 . S
C483 C485 1.420 . S
C483 C486 1.351 . S
C483 H506 0.931 . S
C484 C481 1.429 . S
C484 C482 1.420 . S
C484 N492 1.362 . S
C485 C481 1.411 . S
C485 C483 1.420 . S
C485 C490 1.395 . S
C486 C482 1.423 . S
C486 C483 1.351 . S
C486 H498 0.930 . S
C487 C489 1.400 . S
C487 C490 1.386 . S
C487 H499 0.930 . S
N488 C481 1.377 . S
N488 C489 1.321 . S
N488 Eu491 2.609 . S
C489 C487 1.400 . S
C489 N488 1.321 . S
C489 H496 0.930 . S
C490 C485 1.395 . S
C490 C487 1.386 . S
C490 H509 0.930 . S
Eu491 N488 2.609 . S
Eu491 N492 2.657 . S
Eu491 O525 2.380 . S
Eu491 O526 2.432 . S
Eu491 O530 2.558 . S
Eu491 O531 2.612 . S
Eu491 O533 2.339 . S
Eu491 O534 2.563 . S
Eu491 O535 2.419 . S
Eu491 C555 2.848 . S
N492 C484 1.362 . S
N492 Eu491 2.657 . S
N492 C493 1.334 . S
C493 N492 1.334 . S
C493 C495 1.413 . S
C493 H500 0.929 . S
C494 C482 1.392 . S
C494 C495 1.367 . S
C494 H502 0.930 . S
C495 C493 1.413 . S
C495 C494 1.367 . S
C495 H497 0.930 . S
H496 C489 0.930 . S
H497 C495 0.930 . S
H498 C486 0.930 . S
H499 C487 0.930 . S
H500 C493 0.929 . S
H501 C515 0.930 . S
H502 C494 0.930 . S
H503 C521 0.930 . S
H504 C512 0.929 . S
H505 C519 0.930 . S
H506 C483 0.931 . S
H507 C513 0.930 . S
H508 C546 0.930 . S
H509 C490 0.930 . S
H510 C545 0.931 . S
N511 Eu480 2.657 . S
N511 C512 1.334 . S
N511 C516 1.362 . S
C512 H504 0.929 . S
C512 N511 1.334 . S
C512 C515 1.413 . S
C513 H507 0.930 . S
C513 C514 1.392 . S
C513 C515 1.367 . S
C514 C513 1.392 . S
C514 C516 1.420 . S
C514 C546 1.423 . S
C515 H501 0.930 . S
C515 C512 1.413 . S
C515 C513 1.367 . S
C516 N511 1.362 . S
C516 C514 1.420 . S
C516 C520 1.429 . S
H517 C522 0.930 . S
N518 Eu480 2.609 . S
N518 C520 1.377 . S
N518 C521 1.321 . S
C519 H505 0.930 . S
C519 C521 1.400 . S
C519 C522 1.386 . S
C520 C516 1.429 . S
C520 N518 1.377 . S
C520 C523 1.411 . S
C521 H503 0.930 . S
C521 N518 1.321 . S
C521 C519 1.400 . S
C522 H517 0.930 . S
C522 C519 1.386 . S
C522 C523 1.395 . S
C523 C520 1.411 . S
C523 C522 1.395 . S
C523 C545 1.420 . S
O524 Eu480 2.558 . S
O524 C544 1.257 . S
O525 Eu480 2.612 . S
O525 Eu491 2.380 . S
O525 C536 1.276 . S
O526 Eu491 2.432 . S
O526 C543 1.264 . S
O527 Eu480 2.339 . S
O527 C543 1.254 . S
O528 Eu480 2.563 . S
O528 C536 1.235 . S
O529 Eu480 2.419 . S
O529 C544 1.249 . S
O530 Eu491 2.558 . S
O530 C555 1.257 . S
O531 Eu480 2.380 . S
O531 Eu491 2.612 . S
O531 C547 1.276 . S
O532 Eu480 2.432 . S
O532 C554 1.264 . S
O533 Eu491 2.339 . S
O533 C554 1.254 . S
O534 Eu491 2.563 . S
O534 C547 1.235 . S
O535 Eu491 2.419 . S
O535 C555 1.249 . S
C536 O525 1.276 . S
C536 O528 1.235 . S
C537 C539 1.393 . S
C537 C541 1.395 . S
C537 C544 1.492 . S
C538 C539 1.392 . S
C538 C540 1.386 . S
C539 C537 1.393 . S
C539 C538 1.392 . S
C539 H556 0.930 . S
C540 C538 1.386 . S
C540 C542 1.395 . S
C540 H557 0.930 . S
C541 C537 1.395 . S
C541 C542 1.379 . S
C541 H558 0.930 . S
C542 C540 1.395 . S
C542 C541 1.379 . S
C542 H559 0.930 . S
C543 O526 1.264 . S
C543 O527 1.254 . S
C544 Eu480 2.848 . S
C544 O524 1.257 . S
C544 O529 1.249 . S
C544 C537 1.492 . S
C545 H510 0.931 . S
C545 C523 1.420 . S
C545 C546 1.351 . S
C546 H508 0.930 . S
C546 C514 1.423 . S
C546 C545 1.351 . S
C547 O531 1.276 . S
C547 O534 1.235 . S
C548 C549 1.393 . S
C548 C552 1.395 . S
C548 C555 1.492 . S
C549 C548 1.393 . S
C549 C550 1.392 . S
C549 H560 0.930 . S
C550 C549 1.392 . S
C550 C551 1.386 . S
C551 C550 1.386 . S
C551 C553 1.395 . S
C551 H561 0.930 . S
C552 C548 1.395 . S
C552 C553 1.379 . S
C552 H562 0.930 . S
C553 C551 1.395 . S
C553 C552 1.379 . S
C553 H563 0.930 . S
C554 O532 1.264 . S
C554 O533 1.254 . S
C555 Eu491 2.848 . S
C555 O530 1.257 . S
C555 O535 1.249 . S
C555 C548 1.492 . S
H556 C539 0.930 . S
H557 C540 0.930 . S
H558 C541 0.930 . S
H559 C542 0.930 . S
H560 C549 0.930 . S
H561 C551 0.930 . S
H562 C552 0.930 . S
H563 C553 0.930 . S
Eu564 N595 2.657 . S
Eu564 N602 2.609 . S
Eu564 O608 2.558 . S
Eu564 O609 2.612 . S
Eu564 O611 2.339 . S
Eu564 O612 2.563 . S
Eu564 O613 2.419 . S
Eu564 O615 2.385 . S
Eu564 O616 2.432 1_455 S
Eu564 C628 2.848 . S
C565 C568 1.429 . S
C565 C569 1.411 . S
C565 N572 1.377 . S
C566 C568 1.420 . S
C566 C570 1.423 . S
C566 C578 1.392 . S
C567 C569 1.420 . S
C567 C570 1.351 . S
C567 H590 0.931 . S
C568 C565 1.429 . S
C568 C566 1.420 . S
C568 N576 1.362 . S
C569 C565 1.411 . S
C569 C567 1.420 . S
C569 C574 1.395 . S
C570 C566 1.423 . S
C570 C567 1.351 . S
C570 H582 0.930 . S
C571 C573 1.400 . S
C571 C574 1.386 1_455 S
C571 H583 0.930 . S
N572 C565 1.377 . S
N572 C573 1.321 1_655 S
N572 Eu575 2.609 . S
C573 C571 1.400 . S
C573 N572 1.321 1_455 S
C573 H580 0.930 . S
C574 C569 1.395 . S
C574 C571 1.386 1_655 S
C574 H593 0.930 . S
Eu575 N572 2.609 . S
Eu575 N576 2.657 . S
Eu575 O609 2.380 1_655 S
Eu575 O610 2.432 1_655 S
Eu575 O614 2.558 . S
Eu575 O615 2.609 1_655 S
Eu575 O617 2.339 . S
Eu575 O618 2.563 . S
Eu575 O619 2.419 . S
Eu575 C639 2.848 . S
N576 C568 1.362 . S
N576 Eu575 2.657 . S
N576 C577 1.334 . S
C577 N576 1.334 . S
C577 C579 1.413 . S
C577 H584 0.929 . S
C578 C566 1.392 . S
C578 C579 1.367 . S
C578 H586 0.930 . S
C579 C577 1.413 . S
C579 C578 1.367 . S
C579 H581 0.930 . S
H580 C573 0.930 . S
H581 C579 0.930 . S
H582 C570 0.930 . S
H583 C571 0.930 . S
H584 C577 0.929 . S
H585 C599 0.930 . S
H586 C578 0.930 . S
H587 C605 0.930 1_655 S
H588 C596 0.929 . S
H589 C603 0.930 1_655 S
H590 C567 0.931 . S
H591 C597 0.930 . S
H592 C630 0.930 . S
H593 C574 0.930 . S
H594 C629 0.931 . S
N595 Eu564 2.657 . S
N595 C596 1.334 . S
N595 C600 1.362 . S
C596 H588 0.929 . S
C596 N595 1.334 . S
C596 C599 1.413 . S
C597 H591 0.930 . S
C597 C598 1.392 . S
C597 C599 1.367 . S
C598 C597 1.392 . S
C598 C600 1.420 . S
C598 C630 1.423 . S
C599 H585 0.930 . S
C599 C596 1.413 . S
C599 C597 1.367 . S
C600 N595 1.362 . S
C600 C598 1.420 . S
C600 C604 1.429 . S
H601 C606 0.930 . S
N602 Eu564 2.609 . S
N602 C604 1.377 . S
N602 C605 1.321 . S
C603 H589 0.930 1_455 S
C603 C605 1.399 . S
C603 C606 1.385 . S
C604 C600 1.429 . S
C604 N602 1.377 . S
C604 C607 1.411 . S
C605 H587 0.930 1_455 S
C605 N602 1.321 . S
C605 C603 1.399 . S
C606 H601 0.930 . S
C606 C603 1.385 . S
C606 C607 1.395 . S
C607 C604 1.411 . S
C607 C606 1.395 . S
C607 C629 1.420 . S
O608 Eu564 2.558 . S
O608 C628 1.257 . S
O609 Eu564 2.612 . S
O609 Eu575 2.380 1_455 S
O609 C620 1.276 . S
O610 Eu575 2.432 1_455 S
O610 C627 1.264 . S
O611 Eu564 2.339 . S
O611 C627 1.254 . S
O612 Eu564 2.563 . S
O612 C620 1.235 . S
O613 Eu564 2.419 . S
O613 C628 1.249 . S
O614 Eu575 2.558 . S
O614 C639 1.257 . S
O615 Eu564 2.385 . S
O615 Eu575 2.609 1_455 S
O615 C631 1.272 1_455 S
O616 Eu564 2.432 1_655 S
O616 C638 1.264 . S
O617 Eu575 2.339 . S
O617 C638 1.254 . S
O618 Eu575 2.563 . S
O618 C631 1.235 . S
O619 Eu575 2.419 . S
O619 C639 1.249 . S
C620 O609 1.276 . S
C620 O612 1.235 . S
C621 C623 1.393 . S
C621 C625 1.395 . S
C621 C628 1.492 . S
C622 C623 1.392 . S
C622 C624 1.386 . S
C623 C621 1.393 . S
C623 C622 1.392 . S
C623 H640 0.930 . S
C624 C622 1.386 . S
C624 C626 1.395 . S
C624 H641 0.930 . S
C625 C621 1.395 . S
C625 C626 1.379 . S
C625 H642 0.930 . S
C626 C624 1.395 . S
C626 C625 1.379 . S
C626 H643 0.930 . S
C627 O610 1.264 . S
C627 O611 1.254 . S
C628 Eu564 2.848 . S
C628 O608 1.257 . S
C628 O613 1.249 . S
C628 C621 1.492 . S
C629 H594 0.931 . S
C629 C607 1.420 . S
C629 C630 1.351 . S
C630 H592 0.930 . S
C630 C598 1.423 . S
C630 C629 1.351 . S
C631 O615 1.272 1_655 S
C631 O618 1.235 . S
C632 C633 1.393 . S
C632 C636 1.395 . S
C632 C639 1.492 . S
C633 C632 1.393 . S
C633 C634 1.392 . S
C633 H644 0.930 . S
C634 C633 1.392 . S
C634 C635 1.386 . S
C635 C634 1.386 . S
C635 C637 1.395 . S
C635 H645 0.930 . S
C636 C632 1.395 . S
C636 C637 1.379 . S
C636 H646 0.930 . S
C637 C635 1.395 . S
C637 C636 1.379 . S
C637 H647 0.930 . S
C638 O616 1.264 . S
C638 O617 1.254 . S
C639 Eu575 2.848 . S
C639 O614 1.257 . S
C639 O619 1.249 . S
C639 C632 1.492 . S
H640 C623 0.930 . S
H641 C624 0.930 . S
H642 C625 0.930 . S
H643 C626 0.930 . S
H644 C633 0.930 . S
H645 C635 0.930 . S
H646 C636 0.930 . S
H647 C637 0.930 . S
C648 C649 1.391 . S
C648 C650 1.394 . S
C648 H664 0.931 . S
C649 C648 1.391 . S
C649 C653 1.376 . S
C650 C648 1.394 . S
C650 C651 1.369 . S
C650 C654 1.531 . S
C651 C650 1.369 . S
C651 C652 1.410 . S
C651 C659 1.503 . S
C652 C651 1.410 . S
C652 C653 1.392 . S
C652 C655 1.511 . S
C653 C649 1.376 . S
C653 C652 1.392 . S
C653 H665 0.929 . S
C654 C650 1.531 . S
C654 H666 0.960 . S
C654 H667 0.962 . S
C654 H668 0.960 . S
C655 C652 1.511 . S
C655 H669 0.961 . S
C655 H670 0.961 . S
C655 H671 0.961 1_545 S
C656 C657 1.370 . S
C656 C658 1.363 . S
C656 H672 0.931 . S
C657 C656 1.370 . S
C657 C661 1.408 . S
C658 C656 1.363 . S
C658 C659 1.370 . S
C658 C662 1.524 . S
C659 C651 1.503 . S
C659 C658 1.370 . S
C659 C660 1.403 . S
C660 C659 1.403 . S
C660 C661 1.404 . S
C660 C663 1.539 . S
C661 C657 1.408 . S
C661 C660 1.404 . S
C661 H673 0.930 . S
C662 C658 1.524 . S
C662 H674 0.956 . S
C662 H675 0.961 . S
C662 H676 0.961 . S
C663 C660 1.539 . S
C663 H677 0.958 . S
C663 H678 0.961 1_545 S
C663 H679 0.960 . S
H664 C648 0.931 . S
H665 C653 0.929 . S
H666 C654 0.960 . S
H667 C654 0.962 . S
H668 C654 0.960 . S
H669 C655 0.961 . S
H670 C655 0.961 . S
H671 C655 0.961 1_565 S
H672 C656 0.931 . S
H673 C661 0.930 . S
H674 C662 0.956 . S
H675 C662 0.961 . S
H676 C662 0.961 . S
H677 C663 0.958 . S
H678 C663 0.961 1_565 S
H679 C663 0.960 . S
C680 C681 1.391 . S
C680 C682 1.394 . S
C680 H696 0.931 . S
C681 C680 1.391 . S
C681 C685 1.376 . S
C682 C680 1.394 . S
C682 C683 1.369 . S
C682 C686 1.531 . S
C683 C682 1.369 . S
C683 C684 1.410 . S
C683 C691 1.503 . S
C684 C683 1.410 . S
C684 C685 1.392 . S
C684 C687 1.511 . S
C685 C681 1.376 . S
C685 C684 1.392 . S
C685 H697 0.929 . S
C686 C682 1.531 . S
C686 H698 0.960 . S
C686 H699 0.962 . S
C686 H700 0.960 . S
C687 C684 1.511 . S
C687 H701 0.961 . S
C687 H702 0.961 . S
C687 H703 0.961 . S
C688 C689 1.370 . S
C688 C690 1.363 . S
C688 H704 0.931 . S
C689 C688 1.370 . S
C689 C693 1.408 . S
C690 C688 1.363 . S
C690 C691 1.370 . S
C690 C694 1.524 . S
C691 C683 1.503 . S
C691 C690 1.370 . S
C691 C692 1.403 . S
C692 C691 1.403 . S
C692 C693 1.404 . S
C692 C695 1.539 . S
C693 C689 1.408 . S
C693 C692 1.404 . S
C693 H705 0.930 . S
C694 C690 1.524 . S
C694 H706 0.956 . S
C694 H707 0.961 . S
C694 H708 0.961 . S
C695 C692 1.539 . S
C695 H709 0.958 . S
C695 H710 0.961 . S
C695 H711 0.960 . S
H696 C680 0.931 . S
H697 C685 0.929 . S
H698 C686 0.960 . S
H699 C686 0.962 . S
H700 C686 0.960 . S
H701 C687 0.961 . S
H702 C687 0.961 . S
H703 C687 0.961 . S
H704 C688 0.931 . S
H705 C693 0.930 . S
H706 C694 0.956 . S
H707 C694 0.961 . S
H708 C694 0.961 . S
H709 C695 0.958 . S
H710 C695 0.961 . S
H711 C695 0.960 . S
C712 C713 1.391 . S
C712 C714 1.394 . S
C712 H728 0.931 . S
C713 C712 1.391 . S
C713 C717 1.376 . S
C714 C712 1.394 . S
C714 C715 1.369 . S
C714 C718 1.531 . S
C715 C714 1.369 . S
C715 C716 1.410 . S
C715 C723 1.503 . S
C716 C715 1.410 . S
C716 C717 1.392 . S
C716 C719 1.511 . S
C717 C713 1.376 . S
C717 C716 1.392 . S
C717 H729 0.929 . S
C718 C714 1.531 . S
C718 H730 0.960 . S
C718 H731 0.962 . S
C718 H732 0.960 . S
C719 C716 1.511 . S
C719 H733 0.961 . S
C719 H734 0.961 . S
C719 H735 0.961 . S
C720 C721 1.370 . S
C720 C722 1.363 . S
C720 H736 0.931 . S
C721 C720 1.370 . S
C721 C725 1.408 . S
C722 C720 1.363 . S
C722 C723 1.370 . S
C722 C726 1.524 . S
C723 C715 1.503 . S
C723 C722 1.370 . S
C723 C724 1.403 . S
C724 C723 1.403 . S
C724 C725 1.404 . S
C724 C727 1.539 . S
C725 C721 1.408 . S
C725 C724 1.404 . S
C725 H737 0.930 . S
C726 C722 1.524 . S
C726 H738 0.956 . S
C726 H739 0.961 . S
C726 H740 0.961 . S
C727 C724 1.539 . S
C727 H741 0.958 . S
C727 H742 0.961 . S
C727 H743 0.960 . S
H728 C712 0.931 . S
H729 C717 0.929 . S
H730 C718 0.960 . S
H731 C718 0.962 . S
H732 C718 0.960 . S
H733 C719 0.961 . S
H734 C719 0.961 . S
H735 C719 0.961 . S
H736 C720 0.931 . S
H737 C725 0.930 . S
H738 C726 0.956 . S
H739 C726 0.961 . S
H740 C726 0.961 . S
H741 C727 0.958 . S
H742 C727 0.961 . S
H743 C727 0.960 . S
C744 C745 1.391 . S
C744 C746 1.394 . S
C744 H760 0.931 . S
C745 C744 1.391 . S
C745 C749 1.376 . S
C746 C744 1.394 . S
C746 C747 1.369 . S
C746 C750 1.531 . S
C747 C746 1.369 . S
C747 C748 1.410 . S
C747 C755 1.503 . S
C748 C747 1.410 . S
C748 C749 1.392 . S
C748 C751 1.511 . S
C749 C745 1.376 . S
C749 C748 1.392 . S
C749 H761 0.929 . S
C750 C746 1.531 . S
C750 H762 0.960 . S
C750 H763 0.962 . S
C750 H764 0.960 1_455 S
C751 C748 1.511 . S
C751 H765 0.961 . S
C751 H766 0.961 . S
C751 H767 0.961 . S
C752 C753 1.370 . S
C752 C754 1.363 . S
C752 H768 0.931 . S
C753 C752 1.370 . S
C753 C757 1.408 . S
C754 C752 1.363 . S
C754 C755 1.370 . S
C754 C758 1.524 . S
C755 C747 1.503 . S
C755 C754 1.370 . S
C755 C756 1.403 . S
C756 C755 1.403 . S
C756 C757 1.404 . S
C756 C759 1.539 . S
C757 C753 1.408 . S
C757 C756 1.404 . S
C757 H769 0.930 . S
C758 C754 1.524 . S
C758 H770 0.956 . S
C758 H771 0.961 . S
C758 H772 0.961 . S
C759 C756 1.539 . S
C759 H773 0.958 . S
C759 H774 0.961 . S
C759 H775 0.960 . S
H760 C744 0.931 . S
H761 C749 0.929 . S
H762 C750 0.960 . S
H763 C750 0.962 . S
H764 C750 0.960 1_655 S
H765 C751 0.961 . S
H766 C751 0.961 . S
H767 C751 0.961 . S
H768 C752 0.931 . S
H769 C757 0.930 . S
H770 C758 0.956 . S
H771 C758 0.961 . S
H772 C758 0.961 . S
H773 C759 0.958 . S
H774 C759 0.961 . S
H775 C759 0.960 . S
C776 C777 1.391 . S
C776 C778 1.394 1_554 S
C776 H792 0.931 . S
C777 C776 1.391 . S
C777 C781 1.376 . S
C778 C776 1.394 1_556 S
C778 C779 1.369 . S
C778 C782 1.531 . S
C779 C778 1.369 . S
C779 C780 1.410 . S
C779 C787 1.503 . S
C780 C779 1.410 . S
C780 C781 1.392 1_556 S
C780 C783 1.511 . S
C781 C777 1.376 . S
C781 C780 1.392 1_554 S
C781 H793 0.929 . S
C782 C778 1.531 . S
C782 H794 0.960 . S
C782 H795 0.962 . S
C782 H796 0.960 . S
C783 C780 1.511 . S
C783 H797 0.961 . S
C783 H798 0.961 . S
C783 H799 0.961 . S
C784 C785 1.370 . S
C784 C786 1.363 . S
C784 H800 0.931 1_565 S
C785 C784 1.370 . S
C785 C789 1.408 . S
C786 C784 1.363 . S
C786 C787 1.370 . S
C786 C790 1.524 1_565 S
C787 C779 1.503 . S
C787 C786 1.370 . S
C787 C788 1.403 . S
C788 C787 1.403 . S
C788 C789 1.404 . S
C788 C791 1.539 . S
C789 C785 1.408 . S
C789 C788 1.404 . S
C789 H801 0.930 . S
C790 C786 1.524 1_545 S
C790 H802 0.956 1_545 S
C790 H803 0.961 . S
C790 H804 0.961 . S
C791 C788 1.539 . S
C791 H805 0.958 . S
C791 H806 0.961 . S
C791 H807 0.960 . S
H792 C776 0.931 . S
H793 C781 0.929 . S
H794 C782 0.960 . S
H795 C782 0.962 . S
H796 C782 0.960 . S
H797 C783 0.961 . S
H798 C783 0.961 . S
H799 C783 0.961 . S
H800 C784 0.931 1_545 S
H801 C789 0.930 . S
H802 C790 0.956 1_565 S
H803 C790 0.961 . S
H804 C790 0.961 . S
H805 C791 0.958 . S
H806 C791 0.961 . S
H807 C791 0.960 . S
C808 C809 1.391 . S
C808 C810 1.394 1_554 S
C808 H824 0.931 . S
C809 C808 1.391 . S
C809 C813 1.376 . S
C810 C808 1.394 1_556 S
C810 C811 1.369 . S
C810 C814 1.531 . S
C811 C810 1.369 . S
C811 C812 1.410 1_556 S
C811 C819 1.503 . S
C812 C811 1.410 1_554 S
C812 C813 1.392 . S
C812 C815 1.511 1_554 S
C813 C809 1.376 . S
C813 C812 1.392 . S
C813 H825 0.929 . S
C814 C810 1.531 . S
C814 H826 0.960 . S
C814 H827 0.962 . S
C814 H828 0.960 . S
C815 C812 1.511 1_556 S
C815 H829 0.961 1_556 S
C815 H830 0.961 . S
C815 H831 0.961 1_556 S
C816 C817 1.370 . S
C816 C818 1.363 . S
C816 H832 0.931 . S
C817 C816 1.370 . S
C817 C821 1.408 . S
C818 C816 1.363 . S
C818 C819 1.370 . S
C818 C822 1.524 . S
C819 C811 1.503 . S
C819 C818 1.370 . S
C819 C820 1.403 . S
C820 C819 1.403 . S
C820 C821 1.404 . S
C820 C823 1.539 . S
C821 C817 1.408 . S
C821 C820 1.404 . S
C821 H833 0.930 . S
C822 C818 1.524 . S
C822 H834 0.956 . S
C822 H835 0.961 . S
C822 H836 0.961 . S
C823 C820 1.539 . S
C823 H837 0.958 . S
C823 H838 0.961 . S
C823 H839 0.960 . S
H824 C808 0.931 . S
H825 C813 0.929 . S
H826 C814 0.960 . S
H827 C814 0.962 . S
H828 C814 0.960 . S
H829 C815 0.961 1_554 S
H830 C815 0.961 . S
H831 C815 0.961 1_554 S
H832 C816 0.931 . S
H833 C821 0.930 . S
H834 C822 0.956 . S
H835 C822 0.961 . S
H836 C822 0.961 . S
H837 C823 0.958 . S
H838 C823 0.961 . S
H839 C823 0.960 . S
C840 C841 1.391 . S
C840 C842 1.394 1_554 S
C840 H856 0.931 . S
C841 C840 1.391 . S
C841 C845 1.376 . S
C842 C840 1.394 1_556 S
C842 C843 1.369 . S
C842 C846 1.531 . S
C843 C842 1.369 . S
C843 C844 1.410 . S
C843 C851 1.503 . S
C844 C843 1.410 . S
C844 C845 1.392 1_556 S
C844 C847 1.511 . S
C845 C841 1.376 . S
C845 C844 1.392 1_554 S
C845 H857 0.929 . S
C846 C842 1.531 . S
C846 H858 0.960 . S
C846 H859 0.962 . S
C846 H860 0.960 . S
C847 C844 1.511 . S
C847 H861 0.960 1_556 S
C847 H862 0.961 . S
C847 H863 0.958 1_556 S
C848 C849 1.370 . S
C848 C850 1.363 . S
C848 H864 0.931 . S
C849 C848 1.370 . S
C849 C853 1.408 . S
C850 C848 1.363 . S
C850 C851 1.370 . S
C850 C854 1.524 . S
C851 C843 1.503 . S
C851 C850 1.370 . S
C851 C852 1.403 . S
C852 C851 1.403 . S
C852 C853 1.404 . S
C852 C855 1.539 . S
C853 C849 1.408 . S
C853 C852 1.404 . S
C853 H865 0.930 . S
C854 C850 1.524 . S
C854 H866 0.956 . S
C854 H867 0.961 . S
C854 H868 0.961 . S
C855 C852 1.539 . S
C855 H869 0.958 . S
C855 H870 0.961 . S
C855 H871 0.960 . S
H856 C840 0.931 . S
H857 C845 0.929 . S
H858 C846 0.960 . S
H859 C846 0.962 . S
H860 C846 0.960 . S
H861 C847 0.960 1_554 S
H862 C847 0.961 . S
H863 C847 0.958 1_554 S
H864 C848 0.931 . S
H865 C853 0.930 . S
H866 C854 0.956 . S
H867 C854 0.961 . S
H868 C854 0.961 . S
H869 C855 0.958 . S
H870 C855 0.961 . S
H871 C855 0.960 . S
C872 C873 1.391 . S
C872 C874 1.394 1_554 S
C872 H888 0.931 . S
C873 C872 1.391 . S
C873 C877 1.376 . S
C874 C872 1.394 1_556 S
C874 C875 1.369 . S
C874 C878 1.531 . S
C875 C874 1.369 . S
C875 C876 1.410 . S
C875 C883 1.503 . S
C876 C875 1.410 . S
C876 C877 1.392 1_556 S
C876 C879 1.508 1_655 S
C877 C873 1.376 . S
C877 C876 1.392 1_554 S
C877 H889 0.929 . S
C878 C874 1.531 . S
C878 H890 0.960 . S
C878 H891 0.962 . S
C878 H892 0.960 . S
C879 C876 1.508 1_455 S
C879 H893 0.962 1_556 S
C879 H894 0.960 . S
C879 H895 0.963 . S
C880 C881 1.370 . S
C880 C882 1.363 . S
C880 H896 0.931 . S
C881 C880 1.370 . S
C881 C885 1.408 . S
C882 C880 1.363 . S
C882 C883 1.370 . S
C882 C886 1.524 . S
C883 C875 1.503 . S
C883 C882 1.370 . S
C883 C884 1.403 . S
C884 C883 1.403 . S
C884 C885 1.404 . S
C884 C887 1.539 . S
C885 C881 1.408 . S
C885 C884 1.404 . S
C885 H897 0.930 . S
C886 C882 1.524 . S
C886 H898 0.956 . S
C886 H899 0.961 . S
C886 H900 0.961 . S
C887 C884 1.539 . S
C887 H901 0.958 . S
C887 H902 0.946 1_655 S
C887 H903 0.960 . S
H888 C872 0.931 . S
H889 C877 0.929 . S
H890 C878 0.960 . S
H891 C878 0.962 . S
H892 C878 0.960 . S
H893 C879 0.962 1_554 S
H894 C879 0.960 . S
H895 C879 0.963 . S
H896 C880 0.931 . S
H897 C885 0.930 . S
H898 C886 0.956 . S
H899 C886 0.961 . S
H900 C886 0.961 . S
H901 C887 0.958 . S
H902 C887 0.946 1_455 S
H903 C887 0.960 . S
C904 C905 1.391 . S
C904 C906 1.394 . S
C904 H920 0.931 . S
C905 C904 1.391 . S
C905 C909 1.376 . S
C906 C904 1.394 . S
C906 C907 1.369 . S
C906 C910 1.531 . S
C907 C906 1.369 . S
C907 C908 1.410 . S
C907 C915 1.503 . S
C908 C907 1.410 . S
C908 C909 1.392 . S
C908 C911 1.511 . S
C909 C905 1.376 . S
C909 C908 1.392 . S
C909 H921 0.929 . S
C910 C906 1.531 . S
C910 H922 0.960 . S
C910 H923 0.962 . S
C910 H924 0.960 . S
C911 C908 1.511 . S
C911 H925 0.961 . S
C911 H926 0.961 . S
C911 H927 0.961 . S
C912 C913 1.370 . S
C912 C914 1.363 . S
C912 H928 0.939 . S
C913 C912 1.370 . S
C913 C917 1.408 . S
C914 C912 1.363 . S
C914 C915 1.370 . S
C914 C918 1.524 . S
C915 C907 1.503 . S
C915 C914 1.370 . S
C915 C916 1.403 . S
C916 C915 1.403 . S
C916 C917 1.404 . S
C916 C919 1.539 . S
C917 C913 1.408 . S
C917 C916 1.404 . S
C917 H929 0.930 . S
C918 C914 1.524 . S
C918 H930 0.956 . S
C918 H931 0.961 . S
C918 H932 0.961 . S
C919 C916 1.539 . S
C919 H933 0.958 . S
C919 H934 0.961 . S
C919 H935 0.960 . S
H920 C904 0.931 . S
H921 C909 0.929 . S
H922 C910 0.960 . S
H923 C910 0.962 . S
H924 C910 0.960 . S
H925 C911 0.961 . S
H926 C911 0.961 . S
H927 C911 0.961 . S
H928 C912 0.939 . S
H929 C917 0.930 . S
H930 C918 0.956 . S
H931 C918 0.961 . S
H932 C918 0.961 . S
H933 C919 0.958 . S
H934 C919 0.961 . S
H935 C919 0.960 . S
C936 C937 1.391 . S
C936 C938 1.394 . S
C936 H952 0.931 . S
C937 C936 1.391 . S
C937 C941 1.376 . S
C938 C936 1.394 . S
C938 C939 1.369 . S
C938 C942 1.531 . S
C939 C938 1.369 . S
C939 C940 1.410 . S
C939 C947 1.503 . S
C940 C939 1.410 . S
C940 C941 1.392 . S
C940 C943 1.511 . S
C941 C937 1.376 . S
C941 C940 1.392 . S
C941 H953 0.929 . S
C942 C938 1.531 . S
C942 H954 0.960 . S
C942 H955 0.962 . S
C942 H956 0.960 . S
C943 C940 1.511 . S
C943 H957 0.961 . S
C943 H958 0.961 . S
C943 H959 0.961 1_545 S
C944 C945 1.395 . S
C944 C946 1.363 . S
C944 H960 0.931 . S
C945 C944 1.395 . S
C945 C949 1.407 1_545 S
C946 C944 1.363 . S
C946 C947 1.370 . S
C946 C950 1.524 . S
C947 C939 1.503 . S
C947 C946 1.370 . S
C947 C948 1.403 . S
C948 C947 1.403 . S
C948 C949 1.392 1_545 S
C948 C951 1.539 . S
C949 C945 1.407 1_565 S
C949 C948 1.392 1_565 S
C949 H961 0.943 . S
C950 C946 1.524 . S
C950 H962 0.956 . S
C950 H963 0.961 . S
C950 H964 0.961 . S
C951 C948 1.539 . S
C951 H965 0.958 . S
C951 H966 0.961 1_545 S
C951 H967 0.960 . S
H952 C936 0.931 . S
H953 C941 0.929 . S
H954 C942 0.960 . S
H955 C942 0.962 . S
H956 C942 0.960 . S
H957 C943 0.961 . S
H958 C943 0.961 . S
H959 C943 0.961 1_565 S
H960 C944 0.931 . S
H961 C949 0.943 . S
H962 C950 0.956 . S
H963 C950 0.961 . S
H964 C950 0.961 . S
H965 C951 0.958 . S
H966 C951 0.961 1_565 S
H967 C951 0.960 . S
C968 C969 1.391 . S
C968 C970 1.394 . S
C968 H984 0.931 . S
C969 C968 1.391 . S
C969 C973 1.376 . S
C970 C968 1.394 . S
C970 C971 1.369 . S
C970 C974 1.531 . S
C971 C970 1.369 . S
C971 C972 1.410 . S
C971 C979 1.503 . S
C972 C971 1.410 . S
C972 C973 1.392 . S
C972 C975 1.511 . S
C973 C969 1.376 . S
C973 C972 1.392 . S
C973 H985 0.929 . S
C974 C970 1.531 . S
C974 H986 0.960 . S
C974 H987 0.962 . S
C974 H988 0.960 . S
C975 C972 1.511 . S
C975 H989 0.961 . S
C975 H990 0.961 . S
C975 H991 0.961 . S
C976 C977 1.370 . S
C976 C978 1.363 . S
C976 H992 0.931 . S
C977 C976 1.370 . S
C977 C981 1.408 . S
C978 C976 1.363 . S
C978 C979 1.370 . S
C978 C982 1.524 . S
C979 C971 1.503 . S
C979 C978 1.370 . S
C979 C980 1.403 . S
C980 C979 1.403 . S
C980 C981 1.404 . S
C980 C983 1.539 . S
C981 C977 1.408 . S
C981 C980 1.404 . S
C981 H993 0.930 . S
C982 C978 1.524 . S
C982 H994 0.956 . S
C982 H995 0.961 . S
C982 H996 0.961 . S
C983 C980 1.539 . S
C983 H997 0.958 . S
C983 H998 0.961 . S
C983 H999 0.960 . S
H984 C968 0.931 . S
H985 C973 0.929 . S
H986 C974 0.960 . S
H987 C974 0.962 . S
H988 C974 0.960 . S
H989 C975 0.961 . S
H990 C975 0.961 . S
H991 C975 0.961 . S
H992 C976 0.931 . S
H993 C981 0.930 . S
H994 C982 0.956 . S
H995 C982 0.961 . S
H996 C982 0.961 . S
H997 C983 0.958 . S
H998 C983 0.961 . S
H999 C983 0.960 . S
C1000 C1001 1.391 . S
C1000 C1002 1.394 . S
C1000 H1016 0.931 . S
C1001 C1000 1.391 . S
C1001 C1005 1.376 . S
C1002 C1000 1.394 . S
C1002 C1003 1.369 . S
C1002 C1006 1.531 . S
C1003 C1002 1.369 . S
C1003 C1004 1.410 . S
C1003 C1011 1.503 . S
C1004 C1003 1.410 . S
C1004 C1005 1.392 . S
C1004 C1007 1.511 . S
C1005 C1001 1.376 . S
C1005 C1004 1.392 . S
C1005 H1017 0.929 . S
C1006 C1002 1.531 . S
C1006 H1018 0.960 . S
C1006 H1019 0.962 . S
C1006 H1020 0.960 . S
C1007 C1004 1.511 . S
C1007 H1021 0.961 . S
C1007 H1022 0.961 . S
C1007 H1023 0.961 . S
C1008 C1009 1.370 . S
C1008 C1010 1.363 . S
C1008 H1024 0.931 . S
C1009 C1008 1.370 . S
C1009 C1013 1.408 . S
C1010 C1008 1.363 . S
C1010 C1011 1.370 . S
C1010 C1014 1.524 . S
C1011 C1003 1.503 . S
C1011 C1010 1.370 . S
C1011 C1012 1.403 . S
C1012 C1011 1.403 . S
C1012 C1013 1.404 . S
C1012 C1015 1.539 . S
C1013 C1009 1.408 . S
C1013 C1012 1.404 . S
C1013 H1025 0.930 . S
C1014 C1010 1.524 . S
C1014 H1026 0.956 . S
C1014 H1027 0.961 . S
C1014 H1028 0.961 . S
C1015 C1012 1.539 . S
C1015 H1029 0.958 . S
C1015 H1030 0.961 . S
C1015 H1031 0.960 . S
H1016 C1000 0.931 . S
H1017 C1005 0.929 . S
H1018 C1006 0.960 . S
H1019 C1006 0.962 . S
H1020 C1006 0.960 . S
H1021 C1007 0.961 . S
H1022 C1007 0.961 . S
H1023 C1007 0.961 . S
H1024 C1008 0.931 . S
H1025 C1013 0.930 . S
H1026 C1014 0.956 . S
H1027 C1014 0.961 . S
H1028 C1014 0.961 . S
H1029 C1015 0.958 . S
H1030 C1015 0.961 . S
H1031 C1015 0.960 . S
C1032 C1033 1.391 . S
C1032 C1034 1.394 . S
C1032 H1048 0.931 . S
C1033 C1032 1.391 . S
C1033 C1037 1.380 . S
C1034 C1032 1.394 . S
C1034 C1035 1.369 . S
C1034 C1038 1.531 . S
C1035 C1034 1.369 . S
C1035 C1036 1.410 . S
C1035 C1043 1.503 . S
C1036 C1035 1.410 . S
C1036 C1037 1.401 . S
C1036 C1039 1.511 . S
C1037 C1033 1.380 . S
C1037 C1036 1.401 . S
C1037 H1049 0.917 1_556 S
C1038 C1034 1.531 . S
C1038 H1050 0.960 . S
C1038 H1051 0.962 . S
C1038 H1052 0.960 . S
C1039 C1036 1.511 . S
C1039 H1053 0.961 1_556 S
C1039 H1054 0.961 . S
C1039 H1055 0.961 . S
C1040 C1041 1.370 . S
C1040 C1042 1.363 1_455 S
C1040 H1056 0.931 . S
C1041 C1040 1.370 . S
C1041 C1045 1.408 1_455 S
C1042 C1040 1.363 1_655 S
C1042 C1043 1.370 . S
C1042 C1046 1.516 1_655 S
C1043 C1035 1.503 . S
C1043 C1042 1.370 . S
C1043 C1044 1.403 . S
C1044 C1043 1.403 . S
C1044 C1045 1.404 . S
C1044 C1047 1.539 . S
C1045 C1041 1.408 1_655 S
C1045 C1044 1.404 . S
C1045 H1057 0.930 . S
C1046 C1042 1.516 1_455 S
C1046 H1058 0.963 . S
C1046 H1059 0.929 1_456 S
C1046 H1060 0.995 1_556 S
C1047 C1044 1.539 . S
C1047 H1061 0.958 . S
C1047 H1062 0.961 . S
C1047 H1063 0.960 . S
H1048 C1032 0.931 . S
H1049 C1037 0.917 1_554 S
H1050 C1038 0.960 . S
H1051 C1038 0.962 . S
H1052 C1038 0.960 . S
H1053 C1039 0.961 1_554 S
H1054 C1039 0.961 . S
H1055 C1039 0.961 . S
H1056 C1040 0.931 . S
H1057 C1045 0.930 . S
H1058 C1046 0.963 . S
H1059 C1046 0.929 1_654 S
H1060 C1046 0.995 1_554 S
H1061 C1047 0.958 . S
H1062 C1047 0.961 . S
H1063 C1047 0.960 . S
C1064 C1065 1.391 . S
C1064 C1066 1.394 . S
C1064 H1080 0.931 . S
C1065 C1064 1.391 . S
C1065 C1069 1.376 1_556 S
C1066 C1064 1.394 . S
C1066 C1067 1.369 . S
C1066 C1070 1.531 . S
C1067 C1066 1.369 . S
C1067 C1068 1.410 . S
C1067 C1075 1.503 . S
C1068 C1067 1.410 . S
C1068 C1069 1.392 1_556 S
C1068 C1071 1.511 . S
C1069 C1065 1.376 1_554 S
C1069 C1068 1.392 1_554 S
C1069 H1081 0.929 . S
C1070 C1066 1.531 . S
C1070 H1082 0.960 . S
C1070 H1083 0.990 . S
C1070 H1084 0.960 . S
C1071 C1068 1.511 . S
C1071 H1085 0.961 1_556 S
C1071 H1086 0.961 . S
C1071 H1087 0.961 . S
C1072 C1073 1.370 . S
C1072 C1074 1.386 . S
C1072 H1088 0.931 . S
C1073 C1072 1.370 . S
C1073 C1077 1.408 1_545 S
C1074 C1072 1.386 . S
C1074 C1075 1.340 1_545 S
C1074 C1078 1.534 . S
C1075 C1067 1.503 . S
C1075 C1074 1.340 1_565 S
C1075 C1076 1.403 . S
C1076 C1075 1.403 . S
C1076 C1077 1.404 . S
C1076 C1079 1.539 . S
C1077 C1073 1.408 1_565 S
C1077 C1076 1.404 . S
C1077 H1089 0.930 . S
C1078 C1074 1.534 . S
C1078 H1090 0.956 . S
C1078 H1091 0.961 1_546 S
C1078 H1092 0.961 1_556 S
C1079 C1076 1.539 . S
C1079 H1093 0.958 . S
C1079 H1094 0.961 . S
C1079 H1095 0.960 . S
H1080 C1064 0.931 . S
H1081 C1069 0.929 . S
H1082 C1070 0.960 . S
H1083 C1070 0.990 . S
H1084 C1070 0.960 . S
H1085 C1071 0.961 1_554 S
H1086 C1071 0.961 . S
H1087 C1071 0.961 . S
H1088 C1072 0.931 . S
H1089 C1077 0.930 . S
H1090 C1078 0.956 . S
H1091 C1078 0.961 1_564 S
H1092 C1078 0.961 1_554 S
H1093 C1079 0.958 . S
H1094 C1079 0.961 . S
H1095 C1079 0.960 . S
C1096 C1097 1.391 . S
C1096 C1098 1.394 . S
C1096 H1112 0.931 . S
C1097 C1096 1.391 . S
C1097 C1101 1.376 . S
C1098 C1096 1.394 . S
C1098 C1099 1.369 . S
C1098 C1102 1.531 . S
C1099 C1098 1.369 . S
C1099 C1100 1.410 . S
C1099 C1107 1.503 . S
C1100 C1099 1.410 . S
C1100 C1101 1.392 . S
C1100 C1103 1.511 . S
C1101 C1097 1.376 . S
C1101 C1100 1.392 . S
C1101 H1113 0.929 . S
C1102 C1098 1.531 . S
C1102 H1114 0.960 . S
C1102 H1115 0.962 . S
C1102 H1116 0.960 . S
C1103 C1100 1.511 . S
C1103 H1117 0.961 . S
C1103 H1118 0.961 . S
C1103 H1119 0.961 . S
C1104 C1105 1.370 . S
C1104 C1106 1.363 . S
C1104 H1120 0.931 . S
C1105 C1104 1.370 . S
C1105 C1109 1.408 . S
C1106 C1104 1.363 . S
C1106 C1107 1.370 . S
C1106 C1110 1.524 1_556 S
C1107 C1099 1.503 . S
C1107 C1106 1.370 . S
C1107 C1108 1.403 . S
C1108 C1107 1.403 . S
C1108 C1109 1.404 . S
C1108 C1111 1.539 . S
C1109 C1105 1.408 . S
C1109 C1108 1.404 . S
C1109 H1121 0.930 . S
C1110 C1106 1.524 1_554 S
C1110 H1122 0.956 . S
C1110 H1123 0.961 . S
C1110 H1124 0.961 . S
C1111 C1108 1.539 . S
C1111 H1125 0.958 . S
C1111 H1126 0.961 . S
C1111 H1127 0.960 . S
H1112 C1096 0.931 . S
H1113 C1101 0.929 . S
H1114 C1102 0.960 . S
H1115 C1102 0.962 . S
H1116 C1102 0.960 . S
H1117 C1103 0.961 . S
H1118 C1103 0.961 . S
H1119 C1103 0.961 . S
H1120 C1104 0.931 . S
H1121 C1109 0.930 . S
H1122 C1110 0.956 . S
H1123 C1110 0.961 . S
H1124 C1110 0.961 . S
H1125 C1111 0.958 . S
H1126 C1111 0.961 . S
H1127 C1111 0.960 . S
C1128 C1129 1.391 1_554 S
C1128 C1130 1.394 1_554 S
C1128 H1144 0.931 . S
C1129 C1128 1.391 1_556 S
C1129 C1133 1.376 . S
C1130 C1128 1.394 1_556 S
C1130 C1131 1.369 . S
C1130 C1134 1.531 1_556 S
C1131 C1130 1.369 . S
C1131 C1132 1.410 . S
C1131 C1139 1.503 . S
C1132 C1131 1.410 . S
C1132 C1133 1.392 . S
C1132 C1135 1.511 . S
C1133 C1129 1.376 . S
C1133 C1132 1.392 . S
C1133 H1145 0.929 . S
C1134 C1130 1.531 1_554 S
C1134 H1146 0.960 . S
C1134 H1147 0.962 . S
C1134 H1148 0.960 . S
C1135 C1132 1.511 . S
C1135 H1149 0.961 . S
C1135 H1150 0.961 . S
C1135 H1151 0.961 . S
C1136 C1137 1.370 . S
C1136 C1138 1.363 . S
C1136 H1152 0.931 . S
C1137 C1136 1.370 . S
C1137 C1141 1.408 . S
C1138 C1136 1.363 . S
C1138 C1139 1.370 . S
C1138 C1142 1.524 . S
C1139 C1131 1.503 . S
C1139 C1138 1.370 . S
C1139 C1140 1.403 . S
C1140 C1139 1.403 . S
C1140 C1141 1.404 . S
C1140 C1143 1.539 . S
C1141 C1137 1.408 . S
C1141 C1140 1.404 . S
C1141 H1153 0.930 . S
C1142 C1138 1.524 . S
C1142 H1154 0.956 . S
C1142 H1155 0.961 . S
C1142 H1156 0.961 . S
C1143 C1140 1.539 . S
C1143 H1157 0.958 1_556 S
C1143 H1158 0.961 . S
C1143 H1159 0.960 . S
H1144 C1128 0.931 . S
H1145 C1133 0.929 . S
H1146 C1134 0.960 . S
H1147 C1134 0.962 . S
H1148 C1134 0.960 . S
H1149 C1135 0.961 . S
H1150 C1135 0.961 . S
H1151 C1135 0.961 . S
H1152 C1136 0.931 . S
H1153 C1141 0.930 . S
H1154 C1142 0.956 . S
H1155 C1142 0.961 . S
H1156 C1142 0.961 . S
H1157 C1143 0.958 1_554 S
H1158 C1143 0.961 . S
H1159 C1143 0.960 . S
C1160 C1161 1.391 . S
C1160 C1162 1.394 . S
C1160 H1176 0.931 . S
C1161 C1160 1.391 . S
C1161 C1165 1.376 . S
C1162 C1160 1.394 . S
C1162 C1163 1.369 . S
C1162 C1166 1.531 . S
C1163 C1162 1.369 . S
C1163 C1164 1.410 . S
C1163 C1171 1.503 . S
C1164 C1163 1.410 . S
C1164 C1165 1.392 . S
C1164 C1167 1.511 . S
C1165 C1161 1.376 . S
C1165 C1164 1.392 . S
C1165 H1177 0.929 . S
C1166 C1162 1.531 . S
C1166 H1178 0.960 . S
C1166 H1179 0.962 . S
C1166 H1180 0.960 . S
C1167 C1164 1.511 . S
C1167 H1181 0.961 . S
C1167 H1182 0.961 . S
C1167 H1183 0.961 . S
C1168 C1169 1.370 . S
C1168 C1170 1.363 . S
C1168 H1184 0.931 . S
C1169 C1168 1.370 . S
C1169 C1173 1.408 . S
C1170 C1168 1.363 . S
C1170 C1171 1.370 . S
C1170 C1174 1.524 . S
C1171 C1163 1.503 . S
C1171 C1170 1.370 . S
C1171 C1172 1.403 . S
C1172 C1171 1.403 . S
C1172 C1173 1.404 . S
C1172 C1175 1.539 . S
C1173 C1169 1.408 . S
C1173 C1172 1.404 . S
C1173 H1185 0.930 . S
C1174 C1170 1.524 . S
C1174 H1186 0.956 . S
C1174 H1187 0.961 . S
C1174 H1188 0.961 . S
C1175 C1172 1.539 . S
C1175 H1189 0.958 . S
C1175 H1190 0.961 . S
C1175 H1191 0.960 . S
H1176 C1160 0.931 . S
H1177 C1165 0.929 . S
H1178 C1166 0.960 . S
H1179 C1166 0.962 . S
H1180 C1166 0.960 . S
H1181 C1167 0.961 . S
H1182 C1167 0.961 . S
H1183 C1167 0.961 . S
H1184 C1168 0.931 . S
H1185 C1173 0.930 . S
H1186 C1174 0.956 . S
H1187 C1174 0.961 . S
H1188 C1174 0.961 . S
H1189 C1175 0.958 . S
H1190 C1175 0.961 . S
H1191 C1175 0.960 . S
C1192 C1193 1.391 . S
C1192 C1194 1.394 . S
C1192 H1208 0.931 . S
C1193 C1192 1.391 . S
C1193 C1197 1.376 . S
C1194 C1192 1.394 . S
C1194 C1195 1.369 . S
C1194 C1198 1.531 . S
C1195 C1194 1.369 . S
C1195 C1196 1.410 . S
C1195 C1203 1.503 . S
C1196 C1195 1.410 . S
C1196 C1197 1.392 . S
C1196 C1199 1.511 . S
C1197 C1193 1.376 . S
C1197 C1196 1.392 . S
C1197 H1209 0.929 . S
C1198 C1194 1.531 . S
C1198 H1210 0.960 . S
C1198 H1211 0.962 . S
C1198 H1212 0.960 . S
C1199 C1196 1.511 . S
C1199 H1213 0.961 . S
C1199 H1214 0.961 . S
C1199 H1215 0.961 . S
C1200 C1201 1.370 . S
C1200 C1202 1.363 . S
C1200 H1216 0.931 . S
C1201 C1200 1.370 . S
C1201 C1205 1.408 . S
C1202 C1200 1.363 . S
C1202 C1203 1.370 . S
C1202 C1206 1.524 . S
C1203 C1195 1.503 . S
C1203 C1202 1.370 . S
C1203 C1204 1.403 . S
C1204 C1203 1.403 . S
C1204 C1205 1.404 . S
C1204 C1207 1.539 . S
C1205 C1201 1.408 . S
C1205 C1204 1.404 . S
C1205 H1217 0.930 . S
C1206 C1202 1.524 . S
C1206 H1218 0.956 . S
C1206 H1219 0.961 . S
C1206 H1220 0.961 . S
C1207 C1204 1.539 . S
C1207 H1221 0.958 . S
C1207 H1222 0.961 . S
C1207 H1223 0.960 . S
H1208 C1192 0.931 . S
H1209 C1197 0.929 . S
H1210 C1198 0.960 . S
H1211 C1198 0.962 . S
H1212 C1198 0.960 . S
H1213 C1199 0.961 . S
H1214 C1199 0.961 . S
H1215 C1199 0.961 . S
H1216 C1200 0.931 . S
H1217 C1205 0.930 . S
H1218 C1206 0.956 . S
H1219 C1206 0.961 . S
H1220 C1206 0.961 . S
H1221 C1207 0.958 . S
H1222 C1207 0.961 . S
H1223 C1207 0.960 . S
C1224 C1225 1.391 . S
C1224 C1226 1.394 . S
C1224 H1240 0.931 . S
C1225 C1224 1.391 . S
C1225 C1229 1.376 . S
C1226 C1224 1.394 . S
C1226 C1227 1.369 . S
C1226 C1230 1.531 . S
C1227 C1226 1.369 . S
C1227 C1228 1.410 . S
C1227 C1235 1.503 . S
C1228 C1227 1.410 . S
C1228 C1229 1.392 . S
C1228 C1231 1.511 . S
C1229 C1225 1.376 . S
C1229 C1228 1.392 . S
C1229 H1241 0.929 . S
C1230 C1226 1.531 . S
C1230 H1242 0.960 . S
C1230 H1243 0.962 . S
C1230 H1244 0.960 . S
C1231 C1228 1.511 . S
C1231 H1245 0.961 . S
C1231 H1246 0.961 . S
C1231 H1247 0.961 . S
C1232 C1233 1.370 . S
C1232 C1234 1.363 . S
C1232 H1248 0.931 . S
C1233 C1232 1.370 . S
C1233 C1237 1.408 . S
C1234 C1232 1.363 . S
C1234 C1235 1.370 . S
C1234 C1238 1.524 . S
C1235 C1227 1.503 . S
C1235 C1234 1.370 . S
C1235 C1236 1.403 . S
C1236 C1235 1.403 . S
C1236 C1237 1.404 . S
C1236 C1239 1.539 . S
C1237 C1233 1.408 . S
C1237 C1236 1.404 . S
C1237 H1249 0.930 . S
C1238 C1234 1.524 . S
C1238 H1250 0.956 . S
C1238 H1251 0.961 . S
C1238 H1252 0.961 . S
C1239 C1236 1.539 . S
C1239 H1253 0.958 . S
C1239 H1254 0.961 . S
C1239 H1255 0.960 . S
H1240 C1224 0.931 . S
H1241 C1229 0.929 . S
H1242 C1230 0.960 . S
H1243 C1230 0.962 . S
H1244 C1230 0.960 . S
H1245 C1231 0.961 . S
H1246 C1231 0.961 . S
H1247 C1231 0.961 . S
H1248 C1232 0.931 . S
H1249 C1237 0.930 . S
H1250 C1238 0.956 . S
H1251 C1238 0.961 . S
H1252 C1238 0.961 . S
H1253 C1239 0.958 . S
H1254 C1239 0.961 . S
H1255 C1239 0.960 . S
C1256 C1257 1.391 . S
C1256 C1258 1.394 . S
C1256 H1272 0.931 . S
C1257 C1256 1.391 . S
C1257 C1261 1.376 . S
C1258 C1256 1.394 . S
C1258 C1259 1.369 . S
C1258 C1262 1.531 . S
C1259 C1258 1.369 . S
C1259 C1260 1.410 . S
C1259 C1267 1.503 . S
C1260 C1259 1.410 . S
C1260 C1261 1.392 . S
C1260 C1263 1.511 . S
C1261 C1257 1.376 . S
C1261 C1260 1.392 . S
C1261 H1273 0.929 . S
C1262 C1258 1.531 . S
C1262 H1274 0.960 . S
C1262 H1275 0.962 . S
C1262 H1276 0.960 . S
C1263 C1260 1.511 . S
C1263 H1277 0.961 . S
C1263 H1278 0.961 . S
C1263 H1279 0.961 . S
C1264 C1265 1.370 . S
C1264 C1266 1.363 . S
C1264 H1280 0.931 . S
C1265 C1264 1.370 . S
C1265 C1269 1.408 . S
C1266 C1264 1.363 . S
C1266 C1267 1.370 . S
C1266 C1270 1.524 . S
C1267 C1259 1.503 . S
C1267 C1266 1.370 . S
C1267 C1268 1.403 . S
C1268 C1267 1.403 . S
C1268 C1269 1.404 . S
C1268 C1271 1.539 . S
C1269 C1265 1.408 . S
C1269 C1268 1.404 . S
C1269 H1281 0.930 . S
C1270 C1266 1.524 . S
C1270 H1282 0.956 . S
C1270 H1283 0.961 . S
C1270 H1284 0.961 . S
C1271 C1268 1.539 . S
C1271 H1285 0.958 . S
C1271 H1286 0.961 . S
C1271 H1287 0.960 . S
H1272 C1256 0.931 . S
H1273 C1261 0.929 . S
H1274 C1262 0.960 . S
H1275 C1262 0.962 . S
H1276 C1262 0.960 . S
H1277 C1263 0.961 . S
H1278 C1263 0.961 . S
H1279 C1263 0.961 . S
H1280 C1264 0.931 . S
H1281 C1269 0.930 . S
H1282 C1270 0.956 . S
H1283 C1270 0.961 . S
H1284 C1270 0.961 . S
H1285 C1271 0.958 . S
H1286 C1271 0.961 . S
H1287 C1271 0.960 . S
C1288 C1289 1.391 . S
C1288 C1290 1.394 . S
C1288 H1304 0.931 . S
C1289 C1288 1.391 . S
C1289 C1293 1.376 . S
C1290 C1288 1.394 . S
C1290 C1291 1.369 . S
C1290 C1294 1.531 . S
C1291 C1290 1.369 . S
C1291 C1292 1.410 . S
C1291 C1299 1.503 . S
C1292 C1291 1.410 . S
C1292 C1293 1.392 . S
C1292 C1295 1.511 . S
C1293 C1289 1.376 . S
C1293 C1292 1.392 . S
C1293 H1305 0.929 . S
C1294 C1290 1.531 . S
C1294 H1306 0.960 . S
C1294 H1307 0.962 1_655 S
C1294 H1308 0.960 1_655 S
C1295 C1292 1.511 . S
C1295 H1309 0.961 . S
C1295 H1310 0.961 . S
C1295 H1311 0.961 . S
C1296 C1297 1.370 . S
C1296 C1298 1.363 . S
C1296 H1312 0.931 . S
C1297 C1296 1.370 . S
C1297 C1301 1.408 . S
C1298 C1296 1.363 . S
C1298 C1299 1.370 . S
C1298 C1302 1.524 . S
C1299 C1291 1.503 . S
C1299 C1298 1.370 . S
C1299 C1300 1.403 . S
C1300 C1299 1.403 . S
C1300 C1301 1.404 . S
C1300 C1303 1.539 . S
C1301 C1297 1.408 . S
C1301 C1300 1.404 . S
C1301 H1313 0.930 . S
C1302 C1298 1.524 . S
C1302 H1314 0.956 . S
C1302 H1315 0.961 . S
C1302 H1316 0.961 . S
C1303 C1300 1.539 . S
C1303 H1317 0.958 . S
C1303 H1318 0.961 . S
C1303 H1319 0.960 . S
H1304 C1288 0.931 . S
H1305 C1293 0.929 . S
H1306 C1294 0.960 . S
H1307 C1294 0.962 1_455 S
H1308 C1294 0.960 1_455 S
H1309 C1295 0.961 . S
H1310 C1295 0.961 . S
H1311 C1295 0.961 . S
H1312 C1296 0.931 . S
H1313 C1301 0.930 . S
H1314 C1302 0.956 . S
H1315 C1302 0.961 . S
H1316 C1302 0.961 . S
H1317 C1303 0.958 . S
H1318 C1303 0.961 . S
H1319 C1303 0.960 . S
C1320 C1321 1.391 . S
C1320 C1322 1.394 . S
C1320 H1336 0.931 . S
C1321 C1320 1.391 . S
C1321 C1325 1.376 . S
C1322 C1320 1.394 . S
C1322 C1323 1.369 . S
C1322 C1326 1.531 . S
C1323 C1322 1.369 . S
C1323 C1324 1.410 . S
C1323 C1331 1.503 . S
C1324 C1323 1.410 . S
C1324 C1325 1.392 . S
C1324 C1327 1.511 . S
C1325 C1321 1.376 . S
C1325 C1324 1.392 . S
C1325 H1337 0.929 . S
C1326 C1322 1.531 . S
C1326 H1338 0.960 . S
C1326 H1339 0.962 1_565 S
C1326 H1340 0.960 . S
C1327 C1324 1.511 . S
C1327 H1341 0.961 . S
C1327 H1342 0.961 . S
C1327 H1343 0.961 . S
C1328 C1329 1.370 . S
C1328 C1330 1.363 . S
C1328 H1344 0.931 . S
C1329 C1328 1.370 . S
C1329 C1333 1.408 . S
C1330 C1328 1.363 . S
C1330 C1331 1.370 . S
C1330 C1334 1.524 . S
C1331 C1323 1.503 . S
C1331 C1330 1.370 . S
C1331 C1332 1.403 . S
C1332 C1331 1.403 . S
C1332 C1333 1.404 . S
C1332 C1335 1.539 . S
C1333 C1329 1.408 . S
C1333 C1332 1.404 . S
C1333 H1345 0.930 . S
C1334 C1330 1.524 . S
C1334 H1346 0.956 1_565 S
C1334 H1347 0.961 . S
C1334 H1348 0.961 1_565 S
C1335 C1332 1.539 . S
C1335 H1349 0.958 . S
C1335 H1350 0.961 . S
C1335 H1351 0.960 . S
H1336 C1320 0.931 . S
H1337 C1325 0.929 . S
H1338 C1326 0.960 . S
H1339 C1326 0.962 1_545 S
H1340 C1326 0.960 . S
H1341 C1327 0.961 . S
H1342 C1327 0.961 . S
H1343 C1327 0.961 . S
H1344 C1328 0.931 . S
H1345 C1333 0.930 . S
H1346 C1334 0.956 1_545 S
H1347 C1334 0.961 . S
H1348 C1334 0.961 1_545 S
H1349 C1335 0.958 . S
H1350 C1335 0.961 . S
H1351 C1335 0.960 . S
C1352 C1353 1.391 . S
C1352 C1354 1.394 . S
C1352 H1368 0.931 . S
C1353 C1352 1.391 . S
C1353 C1357 1.376 . S
C1354 C1352 1.394 . S
C1354 C1355 1.369 . S
C1354 C1358 1.531 . S
C1355 C1354 1.369 . S
C1355 C1356 1.410 . S
C1355 C1363 1.503 . S
C1356 C1355 1.410 . S
C1356 C1357 1.392 . S
C1356 C1359 1.511 . S
C1357 C1353 1.376 . S
C1357 C1356 1.392 . S
C1357 H1369 0.929 . S
C1358 C1354 1.531 . S
C1358 H1370 0.960 . S
C1358 H1371 0.962 . S
C1358 H1372 0.960 . S
C1359 C1356 1.511 . S
C1359 H1373 0.961 . S
C1359 H1374 0.961 . S
C1359 H1375 0.961 . S
C1360 C1361 1.370 . S
C1360 C1362 1.363 . S
C1360 H1376 0.931 . S
C1361 C1360 1.370 . S
C1361 C1365 1.408 . S
C1362 C1360 1.363 . S
C1362 C1363 1.370 . S
C1362 C1366 1.524 . S
C1363 C1355 1.503 . S
C1363 C1362 1.370 . S
C1363 C1364 1.403 . S
C1364 C1363 1.403 . S
C1364 C1365 1.404 . S
C1364 C1367 1.539 . S
C1365 C1361 1.408 . S
C1365 C1364 1.404 . S
C1365 H1377 0.930 . S
C1366 C1362 1.524 . S
C1366 H1378 0.956 . S
C1366 H1379 0.961 . S
C1366 H1380 0.961 . S
C1367 C1364 1.539 . S
C1367 H1381 0.958 . S
C1367 H1382 0.961 . S
C1367 H1383 0.960 . S
H1368 C1352 0.931 . S
H1369 C1357 0.929 . S
H1370 C1358 0.960 . S
H1371 C1358 0.962 . S
H1372 C1358 0.960 . S
H1373 C1359 0.961 . S
H1374 C1359 0.961 . S
H1375 C1359 0.961 . S
H1376 C1360 0.931 . S
H1377 C1365 0.930 . S
H1378 C1366 0.956 . S
H1379 C1366 0.961 . S
H1380 C1366 0.961 . S
H1381 C1367 0.958 . S
H1382 C1367 0.961 . S
H1383 C1367 0.960 . S
C1384 C1385 1.391 . S
C1384 C1386 1.394 . S
C1384 H1400 0.931 . S
C1385 C1384 1.391 . S
C1385 C1389 1.376 . S
C1386 C1384 1.394 . S
C1386 C1387 1.369 . S
C1386 C1390 1.531 . S
C1387 C1386 1.369 . S
C1387 C1388 1.410 . S
C1387 C1395 1.503 . S
C1388 C1387 1.410 . S
C1388 C1389 1.392 . S
C1388 C1391 1.511 . S
C1389 C1385 1.376 . S
C1389 C1388 1.392 . S
C1389 H1401 0.929 . S
C1390 C1386 1.531 . S
C1390 H1402 0.960 . S
C1390 H1403 0.962 . S
C1390 H1404 0.960 . S
C1391 C1388 1.511 . S
C1391 H1405 0.961 . S
C1391 H1406 0.961 . S
C1391 H1407 0.961 . S
C1392 C1393 1.370 . S
C1392 C1394 1.363 . S
C1392 H1408 0.931 . S
C1393 C1392 1.370 . S
C1393 C1397 1.408 . S
C1394 C1392 1.363 . S
C1394 C1395 1.370 . S
C1394 C1398 1.524 . S
C1395 C1387 1.503 . S
C1395 C1394 1.370 . S
C1395 C1396 1.403 . S
C1396 C1395 1.403 . S
C1396 C1397 1.404 . S
C1396 C1399 1.539 . S
C1397 C1393 1.408 . S
C1397 C1396 1.404 . S
C1397 H1409 0.930 . S
C1398 C1394 1.524 . S
C1398 H1410 0.956 . S
C1398 H1411 0.961 . S
C1398 H1412 0.961 . S
C1399 C1396 1.539 . S
C1399 H1413 0.958 . S
C1399 H1414 0.961 . S
C1399 H1415 0.960 . S
H1400 C1384 0.931 . S
H1401 C1389 0.929 . S
H1402 C1390 0.960 . S
H1403 C1390 0.962 . S
H1404 C1390 0.960 . S
H1405 C1391 0.961 . S
H1406 C1391 0.961 . S
H1407 C1391 0.961 . S
H1408 C1392 0.931 . S
H1409 C1397 0.930 . S
H1410 C1398 0.956 . S
H1411 C1398 0.961 . S
H1412 C1398 0.961 . S
H1413 C1399 0.958 . S
H1414 C1399 0.961 . S
H1415 C1399 0.960 . S
C649 C255 2.275 . S
C657 C386 2.336 . S
C689 C470 2.364 . S
C681 C294 2.298 . S
C721 C536 2.289 . S
C713 C177 2.371 . S
C753 C620 2.287 . S
C745 C216 2.350 . S
C785 C375 2.355 1_565 S
C777 C99 2.262 . S
C809 C138 2.256 . S
C817 C459 2.366 . S
C841 C21 2.408 . S
C849 C547 2.274 . S
C873 C60 2.365 . S
C881 C631 2.287 . S
C913 C382 0.644 1_455 S
C905 C196 0.650 . S
C945 C466 0.537 1_545 S
C937 C235 0.622 . S
C977 C538 0.529 . S
C969 C289 0.514 . S
C1001 C157 0.580 . S
C1009 C622 0.613 . S
C1033 C40 0.742 1_556 S
C1041 C370 0.655 . S
C1073 C454 0.600 . S
C1065 C79 0.698 1_556 S
C1105 C550 0.590 . S
C1097 C133 0.670 1_556 S
C1129 C1 0.547 1_556 S
C1137 C634 0.603 . S
C1161 C211 2.730 . S
C1169 C379 2.931 . S
C1193 C250 2.735 . S
C1201 C463 2.880 . S
C1233 C543 2.944 . S
C1225 C274 2.580 . S
C1265 C627 2.970 . S
C1257 C172 2.614 . S
C1289 C55 2.726 . S
C1297 C368 2.932 . S
C1329 C452 2.888 . S
C1321 C94 2.690 . S
C1361 C554 2.940 . S
C1353 C118 2.623 . S
C1385 C16 2.597 . S
C1393 C638 2.974 . S
