# Generated by pormake.
# Topology tsx, (6,3)-cn, num edge types: 1
# Building blocks:
#     Node 0, Type 0, BuildingBlock: CIFDUS_clean_sbu_1, # of connection points: 6
#     Node 1, Type 0, BuildingBlock: CIFDUS_clean_sbu_1, # of connection points: 6
#     Node 2, Type 1, BuildingBlock: BELTOD_clean_linker_0, # of connection points: 3
#     Node 3, Type 1, BuildingBlock: BELTOD_clean_linker_0, # of connection points: 3
#     Node 4, Type 1, BuildingBlock: BELTOD_clean_linker_0, # of connection points: 3
#     Node 5, Type 1, BuildingBlock: BELTOD_clean_linker_0, # of connection points: 3
#     Edge 6, Type (0, 1), BuildingBlock: EZIPEK_clean_linker_0, # of connection points: 2
#     Edge 7, Type (0, 1), BuildingBlock: EZIPEK_clean_linker_0, # of connection points: 2
#     Edge 8, Type (0, 1), BuildingBlock: EZIPEK_clean_linker_0, # of connection points: 2
#     Edge 9, Type (0, 1), BuildingBlock: EZIPEK_clean_linker_0, # of connection points: 2
#     Edge 10, Type (0, 1), BuildingBlock: EZIPEK_clean_linker_0, # of connection points: 2
#     Edge 11, Type (0, 1), BuildingBlock: EZIPEK_clean_linker_0, # of connection points: 2
#     Edge 12, Type (0, 1), BuildingBlock: EZIPEK_clean_linker_0, # of connection points: 2
#     Edge 13, Type (0, 1), BuildingBlock: EZIPEK_clean_linker_0, # of connection points: 2
#     Edge 14, Type (0, 1), BuildingBlock: EZIPEK_clean_linker_0, # of connection points: 2
#     Edge 15, Type (0, 1), BuildingBlock: EZIPEK_clean_linker_0, # of connection points: 2
#     Edge 16, Type (0, 1), BuildingBlock: EZIPEK_clean_linker_0, # of connection points: 2
#     Edge 17, Type (0, 1), BuildingBlock: EZIPEK_clean_linker_0, # of connection points: 2
# Relax obj value: 0.115
# Max RMSD: 0.149
# Mean RMSD: 0.109
data_MOF--net-tsx--node1-CIFDUS_clean_sbu_1--node2-BELTOD_clean_linker_0--edge1-EZIPEK_clean_linker_0
_symmetry_space_group_name_H-M    P1
_symmetry_Int_Tables_number       1
_symmetry_cell_setting            triclinic
loop_
_symmetry_equiv_pos_as_xyz
'x, y, z'
_cell_length_a     15.905799
_cell_length_b     19.44289
_cell_length_c     31.968145
_cell_angle_alpha  96.591886
_cell_angle_beta   91.46792
_cell_angle_gamma 91.296984
loop_
_atom_site_label
_atom_site_type_symbol
_atom_site_fract_x
_atom_site_fract_y
_atom_site_fract_z
_atom_type_partial_charge
O0 O 0.99566 0.12273 -0.00013 0.0
Mn1 Mn 0.05037 0.02471 -0.00585 0.0
O2 O 0.85822 0.10631 0.98486 0.0
Mn3 Mn 0.87355 0.02127 0.95556 0.0
O4 O 0.10633 0.92621 0.9887 0.0
O5 O 0.16234 0.07525 0.00219 0.0
Mn6 Mn 0.23025 0.02985 0.03301 0.0
O7 O 0.04351 0.02636 0.05922 0.0
O8 O 0.24416 0.94353 0.00387 0.0
O9 O 0.05818 0.02755 0.92926 0.0
O10 O 0.92418 0.02285 0.90423 0.0
O11 O 0.28892 0.10888 0.0224 0.0
O12 O 0.17704 0.02975 0.08422 0.0
C13 C 0.8738 0.92826 0.98362 0.0
C14 C 0.92071 0.14537 -0.00243 0.0
C15 C 0.18178 0.90388 -0.00896 0.0
C16 C 0.21945 0.12399 0.00403 0.0
C17 C 0.0977 0.03016 0.0899 0.0
C18 C 0.00324 0.02703 0.89901 0.0
O19 O 0.93769 0.9719 0.98604 0.0
O20 O 0.80698 0.94788 0.96465 0.0
O21 O 0.4903 0.6194 0.50238 0.0
Mn22 Mn 0.54727 0.52217 0.49389 0.0
O23 O 0.35944 0.60556 0.47631 0.0
Mn24 Mn 0.38223 0.52034 0.44981 0.0
O25 O 0.60848 0.42598 0.48644 0.0
O26 O 0.65716 0.57624 0.50499 0.0
Mn27 Mn 0.72511 0.53187 0.53615 0.0
O28 O 0.53743 0.51494 0.55895 0.0
O29 O 0.7443 0.44786 0.50532 0.0
O30 O 0.56249 0.53207 0.42942 0.0
O31 O 0.434 0.52036 0.39917 0.0
O32 O 0.78283 0.61176 0.52711 0.0
O33 O 0.67011 0.52783 0.58648 0.0
C34 C 0.36249 0.42898 0.47528 0.0
C35 C 0.41755 0.64309 0.49507 0.0
C36 C 0.68508 0.40654 0.49016 0.0
C37 C 0.71444 0.6251 0.50717 0.0
C38 C 0.59094 0.51951 0.5903 0.0
C39 C 0.51285 0.52923 0.39686 0.0
O40 O 0.43402 0.46499 0.48251 0.0
O41 O 0.30384 0.45555 0.45368 0.0
P42 P 0.10172 0.044 0.40206 0.0
H43 H 0.04312 0.17866 0.38952 0.0
H44 H 0.92322 0.24588 0.41401 0.0
H45 H 0.83473 0.07688 0.47862 0.0
H46 H 0.96033 0.01005 0.45592 0.0
H47 H 0.25648 0.05323 0.45283 0.0
H48 H 0.3387 0.96676 0.48408 0.0
H49 H 0.14343 0.81267 0.44716 0.0
H50 H 0.0588 0.90071 0.41716 0.0
H51 H 0.94767 0.0476 0.34904 0.0
H52 H 0.19181 0.95482 0.33993 0.0
O53 O 0.17586 0.10306 0.39435 0.0
H54 H 0.93465 0.03817 0.27291 0.0
H55 H 0.1757 0.94138 0.26288 0.0
C56 C 0.01394 0.09159 0.42367 0.0
C57 C 1.00014 0.1568 0.41045 0.0
C58 C 0.93067 0.19463 0.4236 0.0
C59 C 0.8712 0.16682 0.44884 0.0
C60 C 0.88144 0.09948 0.45996 0.0
C61 C 0.95304 0.06199 0.44755 0.0
C62 C 0.15116 0.98355 0.43293 0.0
C63 C 0.2298 0.00148 0.45248 0.0
C64 C 0.27723 0.95204 0.47007 0.0
C65 C 0.24772 0.88321 0.46748 0.0
C66 C 0.16742 0.86558 0.44933 0.0
C67 C 0.11904 0.91572 0.43245 0.0
C68 C 0.07222 0.00394 0.35027 0.0
C69 C 0.99715 0.02252 0.33096 0.0
C70 C 0.98903 0.01662 0.28727 0.0
C71 C 0.05503 -0.0094 0.26251 0.0
C72 C 0.12442 0.96206 0.2817 0.0
C73 C 0.13345 0.96956 0.3256 0.0
P74 P 0.07511 0.00307 0.58257 0.0
H75 H 0.04467 0.8558 0.55957 0.0
H76 H 0.92654 0.78713 0.52715 0.0
H77 H 0.79324 0.97314 0.51085 0.0
H78 H 0.914 0.04342 0.54415 0.0
H79 H 0.23978 0.02476 0.54882 0.0
H80 H 0.31092 0.12487 0.52527 0.0
H81 H 0.08751 0.24397 0.54673 0.0
H82 H 0.01481 0.14185 0.56987 0.0
H83 H 0.95372 0.9478 0.63773 0.0
H84 H 0.14215 0.11262 0.64515 0.0
O85 O 0.15229 0.94821 0.58857 0.0
H86 H 0.94497 0.96357 0.71458 0.0
H87 H 0.1325 0.12841 0.72185 0.0
C88 C 0.99004 0.95513 0.55294 0.0
C89 C 0.99196 0.88264 0.54782 0.0
C90 C 0.92374 0.8431 0.5296 0.0
C91 C 0.85099 0.87485 0.51653 0.0
C92 C 0.84901 0.94763 0.52063 0.0
C93 C 0.91787 0.9876 0.5394 0.0
C94 C 0.12079 0.07494 0.55951 0.0
C95 C 0.20484 0.07155 0.54755 0.0
C96 C 0.2461 0.12906 0.53469 0.0
C97 C 0.20451 0.19154 0.53413 0.0
C98 C 0.12047 0.19583 0.54674 0.0
C99 C 0.07864 0.1375 0.55916 0.0
C100 C 0.04689 0.03026 0.63557 0.0
C101 C 0.99058 0.98915 0.65558 0.0
C102 C 0.98614 -0.00239 0.69937 0.0
C103 C 0.03833 0.04694 0.72347 0.0
C104 C 0.09159 0.0904 0.70349 0.0
C105 C 0.09622 0.08178 0.65972 0.0
P106 P 0.58943 0.53626 0.90485 0.0
H107 H 0.56248 0.6844 0.9181 0.0
H108 H 0.44409 0.753 0.94313 0.0
H109 H 0.31378 0.56836 0.97228 0.0
H110 H 0.43482 0.49858 0.94757 0.0
H111 H 0.72412 0.55201 0.96797 0.0
H112 H 0.81122 0.46889 3e-05 0.0
H113 H 0.65667 0.30101 0.93759 0.0
H114 H 0.56784 0.3849 0.90608 0.0
H115 H 0.43766 0.55703 0.85346 0.0
H116 H 0.66743 0.4434 0.84074 0.0
O117 O 0.6663 0.59089 0.89448 0.0
H118 H 0.41958 0.54636 0.77684 0.0
H119 H 0.64951 0.43356 0.76408 0.0
C120 C 0.50858 0.58636 0.93178 0.0
C121 C 0.5101 0.65836 0.93105 0.0
C122 C 0.44196 0.69767 0.94493 0.0
C123 C 0.37017 0.66583 0.95935 0.0
C124 C 0.36882 0.59385 0.96125 0.0
C125 C 0.43793 0.55426 0.94751 0.0
C126 C 0.63945 0.47473 0.9348 0.0
C127 C 0.70708 0.49758 0.96225 0.0
C128 C 0.75705 0.45022 0.98041 0.0
C129 C 0.7404 0.37901 0.97113 0.0
C130 C 0.67038 0.35592 0.94509 0.0
C131 C 0.61974 0.40365 0.92721 0.0
C132 C 0.55381 0.50054 0.85298 0.0
C133 C 0.48221 0.52702 0.83448 0.0
C134 C 0.47199 0.52143 0.79065 0.0
C135 C 0.53408 0.4904 0.76497 0.0
C136 C 0.60119 0.45802 0.78346 0.0
C137 C 0.61093 0.46305 0.82723 0.0
P138 P 0.57307 0.50994 0.07943 0.0
H139 H 0.5583 0.39683 0.01237 0.0
H140 H 0.44045 0.32039 0.98777 0.0
H141 H 0.26934 0.47021 0.04492 0.0
H142 H 0.3907 0.54324 0.07445 0.0
H143 H 0.75253 0.53096 0.07085 0.0
H144 H 0.83803 0.62485 0.04856 0.0
H145 H 0.61354 0.73711 0.02615 0.0
H146 H 0.52655 0.64026 0.04656 0.0
H147 H 0.46689 0.44629 0.1377 0.0
H148 H 0.6337 0.62537 0.14129 0.0
O149 O 0.63844 0.44485 0.08267 0.0
H150 H 0.46441 0.46167 0.21493 0.0
H151 H 0.63116 0.64018 0.2182 0.0
C152 C 0.48392 0.47342 0.04737 0.0
C153 C 0.49587 0.41331 0.01993 0.0
C154 C 0.42793 0.36992 0.00539 0.0
C155 C 0.34557 0.38748 0.0163 0.0
C156 C 0.33248 0.45389 0.03765 0.0
C157 C 0.4016 0.4959 0.05421 0.0
C158 C 0.63288 0.57752 0.05888 0.0
C159 C 0.72102 0.57491 0.06037 0.0
C160 C 0.77021 0.62897 0.04827 0.0
C161 C 0.7323 0.68798 0.03597 0.0
C162 C 0.64391 0.69188 0.03569 0.0
C163 C 0.59437 0.63656 0.0468 0.0
C164 C 0.54886 0.53543 0.13351 0.0
C165 C 0.50041 0.49027 0.15487 0.0
C166 C 0.49986 0.49845 0.19887 0.0
C167 C 0.54815 0.5517 0.22201 0.0
C168 C 0.59362 0.5988 0.20073 0.0
C169 C 0.5942 0.59058 0.15674 0.0
C170 C 0.23874 0.22474 0.96299 0.0
C171 C 0.20486 0.19736 -0.00187 0.0
C172 C 0.23572 0.30612 0.04249 0.0
C173 C 0.27752 0.33224 0.00836 0.0
N174 N 0.29037 0.32682 0.93318 0.0
N175 N 0.13582 0.22128 0.06358 0.0
C176 C 0.2683 0.29512 0.96737 0.0
C177 C 0.18994 0.24214 0.03489 0.0
N178 N 0.24661 0.18215 0.9264 0.0
N179 N 0.24667 0.33724 0.08287 0.0
H180 H 0.10397 0.17343 0.05857 0.0
H181 H 0.11668 0.25388 0.08959 0.0
H182 H 0.28317 0.38183 0.09139 0.0
H183 H 0.22505 0.31505 0.10888 0.0
H184 H 0.27906 0.19619 0.90067 0.0
H185 H 0.22182 0.13151 0.92274 0.0
H186 H 0.28076 0.30425 0.90223 0.0
H187 H 0.31135 0.37849 0.93608 0.0
C188 C 0.19216 0.78867 0.94586 0.0
C189 C 0.19869 0.82823 0.98584 0.0
C190 C 0.28983 0.74162 0.01232 0.0
C191 C 0.29641 0.70957 0.97046 0.0
N192 N 0.24706 0.69456 0.89813 0.0
N193 N 0.22446 0.82996 0.06021 0.0
C194 C 0.24383 0.7298 0.93758 0.0
C195 C 0.23796 0.80017 0.02018 0.0
N196 N 0.13592 0.80709 0.91647 0.0
N197 N 0.33739 0.71861 0.04386 0.0
H198 H 0.18439 0.87155 0.06626 0.0
H199 H 0.2463 0.81046 0.08732 0.0
H200 H 0.37306 0.67415 0.03913 0.0
H201 H 0.34354 0.74396 0.07428 0.0
H202 H 0.12462 0.77949 0.88695 0.0
H203 H 0.09409 0.84692 0.92357 0.0
H204 H 0.21752 0.70997 0.87148 0.0
H205 H 0.28152 0.64965 0.89192 0.0
C206 C 0.88999 0.83905 0.03447 0.0
C207 C 0.87494 0.85533 -0.00675 0.0
C208 C 0.78428 0.7522 0.97743 0.0
C209 C 0.78578 0.74346 0.02096 0.0
N210 N 0.84133 0.77798 0.09155 0.0
N211 N 0.84258 0.81192 0.92155 0.0
C212 C 0.84055 0.78573 0.04961 0.0
C213 C 0.83346 0.80624 0.96341 0.0
N214 N 0.95525 0.87115 0.05772 0.0
N215 N 0.73265 0.71115 0.94991 0.0
H216 H 0.88075 0.85084 0.91139 0.0
H217 H 0.82003 0.77521 0.89737 0.0
H218 H 0.69808 0.66951 0.95882 0.0
H219 H 0.72019 0.72076 0.91903 0.0
H220 H 0.97622 0.85657 0.08647 0.0
H221 H 0.99472 0.90615 0.04501 0.0
H222 H 0.87391 0.81172 0.11428 0.0
H223 H 0.80445 0.74083 0.10413 0.0
C224 C 0.83605 0.2394 0.03099 0.0
C225 C 0.90346 0.22012 0.00474 0.0
C226 C 0.87621 0.31585 0.9633 0.0
C227 C 0.80079 0.32872 0.98559 0.0
N228 N 0.70867 0.30426 0.04104 0.0
N229 N 0.00712 0.25401 0.95728 0.0
C230 C 0.78162 0.29197 0.02028 0.0
C231 C 0.93028 0.26342 0.97477 0.0
N232 N 0.82434 0.20574 0.06571 0.0
N233 N 0.89257 0.34975 0.92906 0.0
H234 H 0.04707 0.21556 0.96504 0.0
H235 H 0.03458 0.28762 0.93818 0.0
H236 H 0.85455 0.38831 0.91941 0.0
H237 H 0.9406 0.33676 0.90834 0.0
H238 H 0.77987 0.21896 0.08834 0.0
H239 H 0.8652 0.16754 0.07351 0.0
H240 H 0.68654 0.27563 0.0642 0.0
H241 H 0.66725 0.34146 0.03325 0.0
C242 C 0.74749 0.71566 0.46115 0.0
C243 C 0.70312 0.69609 0.4958 0.0
C244 C 0.71582 0.81481 0.53096 0.0
C245 C 0.77735 0.82886 0.50156 0.0
N246 N 0.83305 0.8043 0.43272 0.0
N247 N 0.62426 0.72829 0.55737 0.0
C248 C 0.78526 0.78333 0.46402 0.0
C249 C 0.67855 0.74706 0.52809 0.0
N250 N 0.75693 0.66763 0.42707 0.0
N251 N 0.69753 0.86491 0.56273 0.0
H252 H 0.59704 0.67873 0.55479 0.0
H253 H 0.60467 0.76069 0.58322 0.0
H254 H 0.72386 0.91476 0.56497 0.0
H255 H 0.6539 0.85901 0.58576 0.0
H256 H 0.79044 0.67626 0.40059 0.0
H257 H 0.72767 0.61865 0.42521 0.0
H258 H 0.84418 0.77417 0.40449 0.0
H259 H 0.85955 0.85431 0.43493 0.0
C260 C 0.75433 0.30454 0.51549 0.0
C261 C 0.70713 0.33187 0.48304 0.0
C262 C 0.73949 0.22923 0.4345 0.0
C263 C 0.80087 0.21133 0.46409 0.0
N264 N 0.86557 0.22947 0.5336 0.0
N265 N 0.64496 0.31593 0.41293 0.0
C266 C 0.80622 0.24701 0.50526 0.0
C267 C 0.69507 0.29208 0.44312 0.0
N268 N 0.75016 0.33448 0.55617 0.0
N269 N 0.72497 0.18601 0.39808 0.0
H270 H 0.60682 0.35841 0.41923 0.0
H271 H 0.64197 0.2946 0.38153 0.0
H272 H 0.7568 0.13976 0.39166 0.0
H273 H 0.67739 0.19256 0.37606 0.0
H274 H 0.77485 0.31261 0.58192 0.0
H275 H 0.71575 0.37855 0.56459 0.0
H276 H 0.88089 0.25944 0.56199 0.0
H277 H 0.90322 0.18651 0.52781 0.0
C278 C 0.36709 0.33656 0.52626 0.0
C279 C 0.34352 0.35799 0.48703 0.0
C280 C 0.2331 0.26715 0.47744 0.0
C281 C 0.25002 0.25094 0.51879 0.0
N282 N 0.32954 0.27297 0.58436 0.0
N283 N 0.28466 0.32005 0.41797 0.0
C284 C 0.31686 0.28572 0.54352 0.0
C285 C 0.28545 0.31603 0.46039 0.0
N286 N 0.44183 0.35862 0.54493 0.0
N287 N 0.1652 0.23772 0.45476 0.0
H288 H 0.32775 0.35135 0.40423 0.0
H289 H 0.2493 0.28651 0.39618 0.0
H290 H 0.12738 0.19924 0.46524 0.0
H291 H 0.14291 0.25582 0.42724 0.0
H292 H 0.46835 0.33314 0.56861 0.0
H293 H 0.48268 0.3921 0.53185 0.0
H294 H 0.3707 0.30251 0.6055 0.0
H295 H 0.29353 0.23668 0.59822 0.0
C296 C 0.32933 0.73705 0.52662 0.0
C297 C 0.4001 0.71772 0.50257 0.0
C298 C 0.37785 0.81206 0.45953 0.0
C299 C 0.30326 0.82906 0.4816 0.0
N300 N 0.21526 0.81645 0.54054 0.0
N301 N 0.5083 0.75008 0.45703 0.0
C302 C 0.28178 0.79458 0.5169 0.0
C303 C 0.43044 0.76052 0.47313 0.0
N304 N 0.30587 0.69746 0.55723 0.0
N305 N 0.39471 0.84054 0.42335 0.0
H306 H 0.54591 0.71018 0.46486 0.0
H307 H 0.538 0.78404 0.43885 0.0
H308 H 0.35593 0.87601 0.41085 0.0
H309 H 0.44296 0.82422 0.40344 0.0
H310 H 0.25009 0.70277 0.57342 0.0
H311 H 0.34331 0.65767 0.56591 0.0
H312 H 0.19961 0.79806 0.56869 0.0
H313 H 0.1774 0.85607 0.53257 0.0
C314 C 0.12232 0.07385 0.16624 0.0
C315 C 0.07004 0.03593 0.13454 0.0
C316 C 1.00021 0.97594 0.18758 0.0
C317 C 0.05888 0.00711 0.2185 0.0
N318 N 0.16574 0.09533 0.24015 0.0
N319 N 0.92947 0.98696 0.12117 0.0
C320 C 0.11674 0.05948 0.20873 0.0
C321 C 0.99971 -0.0025 0.1467 0.0
N322 N 0.1727 0.12676 0.15565 0.0
N323 N 0.94655 0.9243 0.19683 0.0
H324 H 0.9216 0.01003 0.0936 0.0
H325 H 0.87426 0.96376 0.13033 0.0
H326 H 0.94558 0.90649 0.22639 0.0
H327 H 0.9081 0.89535 0.17416 0.0
H328 H 0.21148 0.15873 0.17653 0.0
H329 H 0.17082 0.14257 0.12559 0.0
H330 H 0.21531 0.12894 0.2353 0.0
H331 H 0.1572 0.09177 0.27205 0.0
C332 C 0.99431 0.09687 0.83884 0.0
C333 C 0.02976 0.04 0.85653 0.0
C334 C 0.08987 -0.00034 0.78862 0.0
C335 C 0.0417 0.04907 0.76979 0.0
N336 N 0.9461 0.14385 0.77575 0.0
N337 N 0.11294 0.93746 0.84922 0.0
C338 C 0.99419 0.09812 0.79462 0.0
C339 C 0.07942 -0.00796 0.83188 0.0
N340 N 0.9619 0.15017 0.86464 0.0
N341 N 0.14585 0.96053 0.76508 0.0
H342 H 0.10988 0.93242 0.88117 0.0
H343 H 0.14045 0.89572 0.83185 0.0
H344 H 0.15424 0.96439 0.73316 0.0
H345 H 0.1888 0.92841 0.77772 0.0
H346 H 0.94256 0.19629 0.85428 0.0
H347 H 0.9619 0.15093 0.8973 0.0
H348 H 0.90223 0.17527 0.79164 0.0
H349 H 0.94594 0.14731 0.74342 0.0
C350 C 0.55183 0.44646 0.64723 0.0
C351 C 0.56188 0.51291 0.63352 0.0
C352 C 0.55555 0.56552 0.7068 0.0
C353 C 0.53589 0.4994 0.71948 0.0
N354 N 0.49703 0.37932 0.70009 0.0
N355 N 0.55969 0.63691 0.64954 0.0
C356 C 0.52775 0.44068 0.68908 0.0
C357 C 0.55881 0.57289 0.66312 0.0
N358 N 0.57168 0.38882 0.62144 0.0
N359 N 0.57649 0.62028 0.73629 0.0
H360 H 0.56125 0.64355 0.61772 0.0
H361 H 0.55049 0.68244 0.66927 0.0
H362 H 0.57737 0.617 0.76861 0.0
H363 H 0.60073 0.66731 0.72863 0.0
H364 H 0.57533 0.33988 0.6316 0.0
H365 H 0.58973 0.391 0.59057 0.0
H366 H 0.48265 0.33661 0.67804 0.0
H367 H 0.47838 0.37351 0.73058 0.0
C368 C 0.50297 0.60105 0.3376 0.0
C369 C 0.54327 0.54661 0.35566 0.0
C370 C 0.60725 0.51025 0.28796 0.0
C371 C 0.55382 0.55575 0.26863 0.0
N372 N 0.45085 0.64514 0.27424 0.0
N373 N 0.63997 0.45284 0.3498 0.0
C374 C 0.50276 0.60229 0.29332 0.0
C375 C 0.59867 0.50296 0.33154 0.0
N376 N 0.46516 0.65172 0.36319 0.0
N377 N 0.66632 0.47459 0.26455 0.0
H378 H 0.63966 0.44991 0.38209 0.0
H379 H 0.67276 0.4134 0.33312 0.0
H380 H 0.67362 0.47876 0.23258 0.0
H381 H 0.71229 0.44514 0.27719 0.0
H382 H 0.44166 0.69655 0.35283 0.0
H383 H 0.46447 0.65185 0.39579 0.0
H384 H 0.40467 0.67423 0.28993 0.0
H385 H 0.45023 0.64854 0.24191 0.0
loop_
_geom_bond_atom_site_label_1
_geom_bond_atom_site_label_2
_geom_bond_distance
_geom_bond_site_symmetry_2
_ccdc_geom_bond_type
O0 Mn1 2.163 1_654 S
O0 C14 1.244 1_554 S
Mn1 O0 2.163 1_456 S
Mn1 O4 2.160 1_545 S
Mn1 O5 2.221 1_556 S
Mn1 O7 2.163 1_556 S
Mn1 O9 2.160 . S
Mn1 O19 2.221 1_445 S
O2 Mn3 2.087 . S
O2 C14 1.256 . S
Mn3 O2 2.087 . S
Mn3 O10 2.089 . S
Mn3 O19 2.290 1_545 S
Mn3 O20 2.251 1_545 S
O4 Mn1 2.160 1_565 S
O4 C15 1.239 1_556 S
O5 Mn1 2.221 1_554 S
O5 Mn6 2.290 . S
O5 C16 1.278 . S
Mn6 O5 2.290 . S
Mn6 O8 2.089 1_545 S
Mn6 O11 2.251 . S
Mn6 O12 2.087 . S
O7 Mn1 2.163 1_554 S
O7 C17 1.244 . S
O8 Mn6 2.089 1_565 S
O8 C15 1.256 . S
O9 Mn1 2.160 . S
O9 C18 1.239 . S
O10 Mn3 2.089 . S
O10 C18 1.256 1_655 S
O11 Mn6 2.251 . S
O11 C16 1.241 . S
O12 Mn6 2.087 . S
O12 C17 1.256 . S
C13 O19 1.284 . S
C13 O20 1.244 . S
C14 O0 1.244 1_556 S
C14 O2 1.256 . S
C15 O4 1.239 1_554 S
C15 O8 1.256 . S
C16 O5 1.278 . S
C16 O11 1.241 . S
C17 O7 1.244 . S
C17 O12 1.256 . S
C18 O9 1.239 . S
C18 O10 1.256 1_455 S
O19 Mn1 2.221 1_665 S
O19 Mn3 2.290 1_565 S
O19 C13 1.284 . S
O20 Mn3 2.251 1_565 S
O20 C13 1.244 . S
O21 Mn22 2.163 . S
O21 C35 1.244 . S
Mn22 O21 2.163 . S
Mn22 O25 2.160 . S
Mn22 O26 2.221 . S
Mn22 O28 2.163 . S
Mn22 O30 2.160 . S
Mn22 O40 2.221 . S
O23 Mn24 2.087 . S
O23 C35 1.256 . S
Mn24 O23 2.087 . S
Mn24 O31 2.089 . S
Mn24 O40 2.290 . S
Mn24 O41 2.251 . S
O25 Mn22 2.160 . S
O25 C36 1.239 . S
O26 Mn22 2.221 . S
O26 Mn27 2.290 . S
O26 C37 1.278 . S
Mn27 O26 2.290 . S
Mn27 O29 2.089 . S
Mn27 O32 2.251 . S
Mn27 O33 2.087 . S
O28 Mn22 2.163 . S
O28 C38 1.244 . S
O29 Mn27 2.089 . S
O29 C36 1.256 . S
O30 Mn22 2.160 . S
O30 C39 1.239 . S
O31 Mn24 2.089 . S
O31 C39 1.256 . S
O32 Mn27 2.251 . S
O32 C37 1.241 . S
O33 Mn27 2.087 . S
O33 C38 1.256 . S
C34 O40 1.278 . S
C34 O41 1.241 . S
C35 O21 1.244 . S
C35 O23 1.256 . S
C36 O25 1.239 . S
C36 O29 1.256 . S
C37 O26 1.278 . S
C37 O32 1.241 . S
C38 O28 1.244 . S
C38 O33 1.256 . S
C39 O30 1.239 . S
C39 O31 1.256 . S
O40 Mn22 2.221 . S
O40 Mn24 2.290 . S
O40 C34 1.278 . S
O41 Mn24 2.251 . S
O41 C34 1.241 . S
P42 O53 1.490 . S
P42 C56 1.812 . S
P42 C62 1.803 1_545 S
P42 C68 1.819 . S
H43 C57 0.941 . S
H44 C58 0.939 . S
H45 C60 0.940 . S
H46 C61 0.940 . S
H47 C63 0.939 . S
H48 C64 0.942 . S
H49 C66 0.940 . S
H50 C67 0.939 . S
H51 C69 0.941 . S
H52 C73 0.939 . S
O53 P42 1.490 . S
H54 C70 0.939 . S
H55 C72 0.940 . S
C56 P42 1.812 . S
C56 C57 1.389 . S
C56 C61 1.391 1_455 S
C57 H43 0.941 . S
C57 C56 1.389 . S
C57 C58 1.397 1_455 S
C58 H44 0.939 . S
C58 C57 1.397 1_655 S
C58 C59 1.378 . S
C59 C58 1.378 . S
C59 C60 1.378 . S
C60 H45 0.940 . S
C60 C59 1.378 . S
C60 C61 1.396 . S
C61 H46 0.940 . S
C61 C56 1.391 1_655 S
C61 C60 1.396 . S
C62 P42 1.803 1_565 S
C62 C63 1.378 . S
C62 C67 1.400 . S
C63 H47 0.939 . S
C63 C62 1.378 . S
C63 C64 1.361 . S
C64 H48 0.942 . S
C64 C63 1.361 . S
C64 C65 1.369 . S
C65 C64 1.369 . S
C65 C66 1.404 . S
C66 H49 0.940 . S
C66 C65 1.404 . S
C66 C67 1.389 . S
C67 H50 0.939 . S
C67 C62 1.400 . S
C67 C66 1.389 . S
C68 P42 1.819 . S
C68 C69 1.391 . S
C68 C73 1.391 1_545 S
C69 H51 0.941 . S
C69 C68 1.391 . S
C69 C70 1.396 . S
C70 H54 0.939 . S
C70 C69 1.396 . S
C70 C71 1.397 . S
C71 C70 1.397 . S
C71 C72 1.385 1_545 S
C72 H55 0.940 . S
C72 C71 1.385 1_565 S
C72 C73 1.388 . S
C73 H52 0.939 . S
C73 C68 1.391 1_565 S
C73 C72 1.388 . S
P74 O85 1.490 1_545 S
P74 C88 1.802 1_445 S
P74 C94 1.803 . S
P74 C100 1.819 . S
H75 C89 0.941 . S
H76 C90 0.939 . S
H77 C92 0.940 . S
H78 C93 0.940 1_545 S
H79 C95 0.939 . S
H80 C96 0.942 . S
H81 C98 0.940 . S
H82 C99 0.939 . S
H83 C101 0.941 . S
H84 C105 0.939 . S
O85 P74 1.490 1_565 S
H86 C102 0.939 1_565 S
H87 C104 0.940 . S
C88 P74 1.802 1_665 S
C88 C89 1.388 1_655 S
C88 C93 1.402 . S
C89 H75 0.941 . S
C89 C88 1.388 1_455 S
C89 C90 1.397 1_455 S
C90 H76 0.939 . S
C90 C89 1.397 1_655 S
C90 C91 1.378 . S
C91 C90 1.378 . S
C91 C92 1.378 . S
C92 H77 0.940 . S
C92 C91 1.378 . S
C92 C93 1.396 . S
C93 H78 0.940 1_565 S
C93 C88 1.402 . S
C93 C92 1.396 . S
C94 P74 1.803 . S
C94 C95 1.378 . S
C94 C99 1.400 . S
C95 H79 0.939 . S
C95 C94 1.378 . S
C95 C96 1.361 . S
C96 H80 0.942 . S
C96 C95 1.361 . S
C96 C97 1.369 . S
C97 C96 1.369 . S
C97 C98 1.404 . S
C98 H81 0.940 . S
C98 C97 1.404 . S
C98 C99 1.389 . S
C99 H82 0.939 . S
C99 C94 1.400 . S
C99 C98 1.389 . S
C100 P74 1.819 . S
C100 C101 1.391 1_545 S
C100 C105 1.391 . S
C101 H83 0.941 . S
C101 C100 1.391 1_565 S
C101 C102 1.396 1_565 S
C102 H86 0.939 1_545 S
C102 C101 1.396 1_545 S
C102 C103 1.397 . S
C103 C102 1.397 . S
C103 C104 1.385 . S
C104 H87 0.940 . S
C104 C103 1.385 . S
C104 C105 1.388 . S
C105 H84 0.939 . S
C105 C100 1.391 . S
C105 C104 1.388 . S
P106 O117 1.490 . S
P106 C120 1.812 . S
P106 C126 1.803 . S
P106 C132 1.819 . S
H107 C121 0.941 . S
H108 C122 0.933 1_554 S
H109 C124 0.940 . S
H110 C125 0.940 . S
H111 C127 0.939 . S
H112 C128 0.942 . S
H113 C130 0.940 . S
H114 C131 0.939 . S
H115 C133 0.941 . S
H116 C137 0.939 . S
O117 P106 1.490 . S
H118 C134 0.939 . S
H119 C136 0.940 . S
C120 P106 1.812 . S
C120 C121 1.389 . S
C120 C125 1.391 . S
C121 H107 0.941 . S
C121 C120 1.389 . S
C121 C122 1.400 . S
C122 H108 0.933 1_556 S
C122 C121 1.400 . S
C122 C123 1.381 . S
C123 C122 1.381 . S
C123 C124 1.378 . S
C124 H109 0.940 . S
C124 C123 1.378 . S
C124 C125 1.396 . S
C125 H110 0.940 . S
C125 C120 1.391 . S
C125 C124 1.396 . S
C126 P106 1.803 . S
C126 C127 1.378 . S
C126 C131 1.400 . S
C127 H111 0.939 . S
C127 C126 1.378 . S
C127 C128 1.361 . S
C128 H112 0.942 . S
C128 C127 1.361 . S
C128 C129 1.369 . S
C129 C128 1.369 . S
C129 C130 1.404 . S
C130 H113 0.940 . S
C130 C129 1.404 . S
C130 C131 1.389 . S
C131 H114 0.939 . S
C131 C126 1.400 . S
C131 C130 1.389 . S
C132 P106 1.819 . S
C132 C133 1.391 . S
C132 C137 1.391 . S
C133 H115 0.941 . S
C133 C132 1.391 . S
C133 C134 1.396 . S
C134 H118 0.939 . S
C134 C133 1.396 . S
C134 C135 1.397 . S
C135 C134 1.397 . S
C135 C136 1.385 . S
C136 H119 0.940 . S
C136 C135 1.385 . S
C136 C137 1.388 . S
C137 H116 0.939 . S
C137 C132 1.391 . S
C137 C136 1.388 . S
P138 O149 1.490 . S
P138 C152 1.812 . S
P138 C158 1.803 . S
P138 C164 1.819 . S
H139 C153 0.941 . S
H140 C154 0.939 1_556 S
H141 C156 0.940 . S
H142 C157 0.940 . S
H143 C159 0.939 . S
H144 C160 0.942 . S
H145 C162 0.940 . S
H146 C163 0.939 . S
H147 C165 0.941 . S
H148 C169 0.939 . S
O149 P138 1.490 . S
H150 C166 0.939 . S
H151 C168 0.940 . S
C152 P138 1.812 . S
C152 C153 1.389 . S
C152 C157 1.391 . S
C153 H139 0.941 . S
C153 C152 1.389 . S
C153 C154 1.397 . S
C154 H140 0.939 1_554 S
C154 C153 1.397 . S
C154 C155 1.378 . S
C155 C154 1.378 . S
C155 C156 1.378 . S
C156 H141 0.940 . S
C156 C155 1.378 . S
C156 C157 1.396 . S
C157 H142 0.940 . S
C157 C152 1.391 . S
C157 C156 1.396 . S
C158 P138 1.803 . S
C158 C159 1.378 . S
C158 C163 1.400 . S
C159 H143 0.939 . S
C159 C158 1.378 . S
C159 C160 1.361 . S
C160 H144 0.942 . S
C160 C159 1.361 . S
C160 C161 1.369 . S
C161 C160 1.369 . S
C161 C162 1.404 . S
C162 H145 0.940 . S
C162 C161 1.404 . S
C162 C163 1.389 . S
C163 H146 0.939 . S
C163 C158 1.400 . S
C163 C162 1.389 . S
C164 P138 1.819 . S
C164 C165 1.391 . S
C164 C169 1.391 . S
C165 H147 0.941 . S
C165 C164 1.391 . S
C165 C166 1.396 . S
C166 H150 0.939 . S
C166 C165 1.396 . S
C166 C167 1.397 . S
C167 C166 1.397 . S
C167 C168 1.385 . S
C168 H151 0.940 . S
C168 C167 1.385 . S
C168 C169 1.388 . S
C169 H148 0.939 . S
C169 C164 1.391 . S
C169 C168 1.388 . S
C170 C171 1.363 1_556 S
C170 C176 1.379 . S
C170 N178 1.356 . S
C171 C170 1.363 1_554 S
C171 C177 1.363 . S
C172 C173 1.363 . S
C172 C177 1.379 . S
C172 N179 1.356 . S
C173 C172 1.363 . S
C173 C176 1.363 1_554 S
N174 C176 1.356 . S
N174 H186 0.984 . S
N174 H187 0.985 . S
N175 C177 1.356 . S
N175 H180 0.984 . S
N175 H181 0.985 . S
C176 C170 1.379 . S
C176 C173 1.363 1_556 S
C176 N174 1.356 . S
C177 C171 1.363 . S
C177 C172 1.379 . S
C177 N175 1.356 . S
N178 C170 1.356 . S
N178 H184 0.984 . S
N178 H185 0.984 . S
N179 C172 1.356 . S
N179 H182 0.984 . S
N179 H183 0.985 . S
H180 N175 0.984 . S
H181 N175 0.985 . S
H182 N179 0.984 . S
H183 N179 0.985 . S
H184 N178 0.984 . S
H185 N178 0.984 . S
H186 N174 0.984 . S
H187 N174 0.985 . S
C188 C189 1.350 1_556 S
C188 C194 1.379 . S
C188 N196 1.356 . S
C189 C188 1.350 1_554 S
C189 C195 1.377 . S
C190 C191 1.363 1_554 S
C190 C195 1.379 . S
C190 N197 1.356 . S
C191 C190 1.363 1_556 S
C191 C194 1.363 . S
N192 C194 1.356 . S
N192 H204 0.984 . S
N192 H205 0.985 . S
N193 C195 1.356 . S
N193 H198 0.984 . S
N193 H199 0.985 . S
C194 C188 1.379 . S
C194 C191 1.363 . S
C194 N192 1.356 . S
C195 C189 1.377 . S
C195 C190 1.379 . S
C195 N193 1.356 . S
N196 C188 1.356 . S
N196 H202 0.984 . S
N196 H203 0.984 . S
N197 C190 1.356 . S
N197 H200 0.984 . S
N197 H201 0.985 . S
H198 N193 0.984 . S
H199 N193 0.985 . S
H200 N197 0.984 . S
H201 N197 0.985 . S
H202 N196 0.984 . S
H203 N196 0.984 . S
H204 N192 0.984 . S
H205 N192 0.985 . S
C206 C207 1.363 . S
C206 C212 1.379 . S
C206 N214 1.356 . S
C207 C206 1.363 . S
C207 C213 1.363 1_554 S
C208 C209 1.363 1_556 S
C208 C213 1.379 . S
C208 N215 1.356 . S
C209 C208 1.363 1_554 S
C209 C212 1.363 . S
N210 C212 1.356 . S
N210 H222 0.984 . S
N210 H223 0.985 . S
N211 C213 1.356 . S
N211 H216 0.984 . S
N211 H217 0.985 . S
C212 C206 1.379 . S
C212 C209 1.363 . S
C212 N210 1.356 . S
C213 C207 1.363 1_556 S
C213 C208 1.379 . S
C213 N211 1.356 . S
N214 C206 1.356 . S
N214 H220 0.984 . S
N214 H221 0.984 . S
N215 C208 1.356 . S
N215 H218 0.984 . S
N215 H219 0.985 . S
H216 N211 0.984 . S
H217 N211 0.985 . S
H218 N215 0.984 . S
H219 N215 0.985 . S
H220 N214 0.984 . S
H221 N214 0.984 . S
H222 N210 0.984 . S
H223 N210 0.985 . S
C224 C225 1.363 1_554 S
C224 C230 1.379 . S
C224 N232 1.356 . S
C225 C224 1.363 1_556 S
C225 C231 1.363 . S
C226 C227 1.363 . S
C226 C231 1.379 . S
C226 N233 1.356 . S
C227 C226 1.363 . S
C227 C230 1.363 1_556 S
N228 C230 1.356 . S
N228 H240 0.984 . S
N228 H241 0.985 . S
N229 C231 1.356 . S
N229 H234 0.984 . S
N229 H235 0.985 . S
C230 C224 1.379 . S
C230 C227 1.363 1_554 S
C230 N228 1.356 . S
C231 C225 1.363 . S
C231 C226 1.379 . S
C231 N229 1.356 . S
N232 C224 1.356 . S
N232 H238 0.984 . S
N232 H239 0.984 . S
N233 C226 1.356 . S
N233 H236 0.984 . S
N233 H237 0.985 . S
H234 N229 0.984 . S
H235 N229 0.985 . S
H236 N233 0.984 . S
H237 N233 0.985 . S
H238 N232 0.984 . S
H239 N232 0.984 . S
H240 N228 0.984 . S
H241 N228 0.985 . S
C242 C243 1.363 . S
C242 C248 1.379 . S
C242 N250 1.356 . S
C243 C242 1.363 . S
C243 C249 1.363 . S
C244 C245 1.363 . S
C244 C249 1.379 . S
C244 N251 1.356 . S
C245 C244 1.363 . S
C245 C248 1.363 . S
N246 C248 1.356 . S
N246 H258 0.984 . S
N246 H259 0.985 . S
N247 C249 1.356 . S
N247 H252 0.984 . S
N247 H253 0.985 . S
C248 C242 1.379 . S
C248 C245 1.363 . S
C248 N246 1.356 . S
C249 C243 1.363 . S
C249 C244 1.379 . S
C249 N247 1.356 . S
N250 C242 1.356 . S
N250 H256 0.984 . S
N250 H257 0.984 . S
N251 C244 1.356 . S
N251 H254 0.984 . S
N251 H255 0.985 . S
H252 N247 0.984 . S
H253 N247 0.985 . S
H254 N251 0.984 . S
H255 N251 0.985 . S
H256 N250 0.984 . S
H257 N250 0.984 . S
H258 N246 0.984 . S
H259 N246 0.985 . S
C260 C261 1.363 . S
C260 C266 1.379 . S
C260 N268 1.356 . S
C261 C260 1.363 . S
C261 C267 1.363 . S
C262 C263 1.363 . S
C262 C267 1.379 . S
C262 N269 1.356 . S
C263 C262 1.363 . S
C263 C266 1.363 . S
N264 C266 1.356 . S
N264 H276 0.984 . S
N264 H277 0.985 . S
N265 C267 1.356 . S
N265 H270 0.984 . S
N265 H271 0.985 . S
C266 C260 1.379 . S
C266 C263 1.363 . S
C266 N264 1.356 . S
C267 C261 1.363 . S
C267 C262 1.379 . S
C267 N265 1.356 . S
N268 C260 1.356 . S
N268 H274 0.984 . S
N268 H275 0.984 . S
N269 C262 1.356 . S
N269 H272 0.984 . S
N269 H273 0.985 . S
H270 N265 0.984 . S
H271 N265 0.985 . S
H272 N269 0.984 . S
H273 N269 0.985 . S
H274 N268 0.984 . S
H275 N268 0.984 . S
H276 N264 0.984 . S
H277 N264 0.985 . S
C278 C279 1.363 . S
C278 C284 1.379 . S
C278 N286 1.356 . S
C279 C278 1.363 . S
C279 C285 1.363 . S
C280 C281 1.363 . S
C280 C285 1.379 . S
C280 N287 1.356 . S
C281 C280 1.363 . S
C281 C284 1.363 . S
N282 C284 1.356 . S
N282 H294 0.984 . S
N282 H295 0.985 . S
N283 C285 1.356 . S
N283 H288 0.984 . S
N283 H289 0.985 . S
C284 C278 1.379 . S
C284 C281 1.363 . S
C284 N282 1.356 . S
C285 C279 1.363 . S
C285 C280 1.379 . S
C285 N283 1.356 . S
N286 C278 1.356 . S
N286 H292 0.984 . S
N286 H293 0.984 . S
N287 C280 1.356 . S
N287 H290 0.984 . S
N287 H291 0.985 . S
H288 N283 0.984 . S
H289 N283 0.985 . S
H290 N287 0.984 . S
H291 N287 0.985 . S
H292 N286 0.984 . S
H293 N286 0.984 . S
H294 N282 0.984 . S
H295 N282 0.985 . S
C296 C297 1.363 . S
C296 C302 1.379 . S
C296 N304 1.356 . S
C297 C296 1.363 . S
C297 C303 1.363 . S
C298 C299 1.363 . S
C298 C303 1.379 . S
C298 N305 1.356 . S
C299 C298 1.363 . S
C299 C302 1.363 . S
N300 C302 1.356 . S
N300 H312 0.984 . S
N300 H313 0.985 . S
N301 C303 1.356 . S
N301 H306 0.984 . S
N301 H307 0.985 . S
C302 C296 1.379 . S
C302 C299 1.363 . S
C302 N300 1.356 . S
C303 C297 1.363 . S
C303 C298 1.379 . S
C303 N301 1.356 . S
N304 C296 1.356 . S
N304 H310 0.984 . S
N304 H311 0.984 . S
N305 C298 1.356 . S
N305 H308 0.984 . S
N305 H309 0.985 . S
H306 N301 0.984 . S
H307 N301 0.985 . S
H308 N305 0.984 . S
H309 N305 0.985 . S
H310 N304 0.984 . S
H311 N304 0.984 . S
H312 N300 0.984 . S
H313 N300 0.985 . S
C314 C315 1.363 . S
C314 C320 1.379 . S
C314 N322 1.356 . S
C315 C314 1.363 . S
C315 C321 1.363 1_545 S
C316 C317 1.363 . S
C316 C321 1.379 . S
C316 N323 1.356 1_455 S
C317 C316 1.363 . S
C317 C320 1.363 1_565 S
N318 C320 1.356 . S
N318 H330 0.984 . S
N318 H331 0.985 . S
N319 C321 1.356 1_655 S
N319 H324 0.984 . S
N319 H325 0.985 . S
C320 C314 1.379 . S
C320 C317 1.363 1_545 S
C320 N318 1.356 . S
C321 C315 1.363 1_565 S
C321 C316 1.379 . S
C321 N319 1.356 1_455 S
N322 C314 1.356 . S
N322 H328 0.984 . S
N322 H329 0.984 . S
N323 C316 1.356 1_655 S
N323 H326 0.984 . S
N323 H327 0.985 . S
H324 N319 0.984 . S
H325 N319 0.985 . S
H326 N323 0.984 . S
H327 N323 0.985 . S
H328 N322 0.984 . S
H329 N322 0.984 . S
H330 N318 0.984 . S
H331 N318 0.985 . S
C332 C333 1.363 1_655 S
C332 C338 1.379 . S
C332 N340 1.356 . S
C333 C332 1.363 1_455 S
C333 C339 1.363 . S
C334 C335 1.363 . S
C334 C339 1.379 . S
C334 N341 1.356 1_545 S
C335 C334 1.363 . S
C335 C338 1.363 1_455 S
N336 C338 1.356 . S
N336 H348 0.984 . S
N336 H349 0.985 . S
N337 C339 1.356 1_565 S
N337 H342 0.984 . S
N337 H343 0.985 . S
C338 C332 1.379 . S
C338 C335 1.363 1_655 S
C338 N336 1.356 . S
C339 C333 1.363 . S
C339 C334 1.379 . S
C339 N337 1.356 1_545 S
N340 C332 1.356 . S
N340 H346 0.984 . S
N340 H347 0.984 . S
N341 C334 1.356 1_565 S
N341 H344 0.984 1_565 S
N341 H345 0.985 . S
H342 N337 0.984 . S
H343 N337 0.985 . S
H344 N341 0.984 1_545 S
H345 N341 0.985 . S
H346 N340 0.984 . S
H347 N340 0.984 . S
H348 N336 0.984 . S
H349 N336 0.985 . S
C350 C351 1.363 . S
C350 C356 1.379 . S
C350 N358 1.356 . S
C351 C350 1.363 . S
C351 C357 1.363 . S
C352 C353 1.363 . S
C352 C357 1.379 . S
C352 N359 1.356 . S
C353 C352 1.363 . S
C353 C356 1.363 . S
N354 C356 1.356 . S
N354 H366 0.984 . S
N354 H367 0.985 . S
N355 C357 1.356 . S
N355 H360 0.984 . S
N355 H361 0.985 . S
C356 C350 1.379 . S
C356 C353 1.363 . S
C356 N354 1.356 . S
C357 C351 1.363 . S
C357 C352 1.379 . S
C357 N355 1.356 . S
N358 C350 1.356 . S
N358 H364 0.984 . S
N358 H365 0.984 . S
N359 C352 1.356 . S
N359 H362 0.984 . S
N359 H363 0.985 . S
H360 N355 0.984 . S
H361 N355 0.985 . S
H362 N359 0.984 . S
H363 N359 0.985 . S
H364 N358 0.984 . S
H365 N358 0.984 . S
H366 N354 0.984 . S
H367 N354 0.985 . S
C368 C369 1.363 . S
C368 C374 1.379 . S
C368 N376 1.356 . S
C369 C368 1.363 . S
C369 C375 1.363 . S
C370 C371 1.363 . S
C370 C375 1.379 . S
C370 N377 1.356 . S
C371 C370 1.363 . S
C371 C374 1.363 . S
N372 C374 1.356 . S
N372 H384 0.984 . S
N372 H385 0.985 . S
N373 C375 1.356 . S
N373 H378 0.984 . S
N373 H379 0.985 . S
C374 C368 1.379 . S
C374 C371 1.363 . S
C374 N372 1.356 . S
C375 C369 1.363 . S
C375 C370 1.379 . S
C375 N373 1.356 . S
N376 C368 1.356 . S
N376 H382 0.984 . S
N376 H383 0.984 . S
N377 C370 1.356 . S
N377 H380 0.984 . S
N377 H381 0.985 . S
H378 N373 0.984 . S
H379 N373 0.985 . S
H380 N377 0.984 . S
H381 N377 0.985 . S
H382 N376 0.984 . S
H383 N376 0.984 . S
H384 N372 0.984 . S
H385 N372 0.985 . S
C173 C155 1.454 . S
C171 C16 1.395 . S
C189 C15 1.547 . S
C191 C123 1.503 . S
C207 C13 1.286 1_554 S
C209 C161 1.451 . S
C225 C14 1.392 . S
C227 C129 1.401 . S
C243 C37 1.395 . S
C245 C91 1.455 . S
C261 C36 1.545 . S
C263 C59 1.503 . S
C281 C97 1.451 . S
C279 C34 1.291 . S
C299 C65 1.401 . S
C297 C35 1.392 . S
C315 C17 1.513 . S
C317 C71 1.514 1_565 S
C333 C18 1.395 . S
C335 C103 1.388 . S
C353 C135 1.514 . S
C351 C38 1.513 . S
C369 C39 1.395 . S
C371 C167 1.388 . S
