# Generated by pormake.
# Topology wbl, (4,4)-cn, num edge types: 1
# Building blocks:
#     Node 0, Type 0, BuildingBlock: MIFKUJ_clean_linker_1, # of connection points: 4
#     Node 1, Type 0, BuildingBlock: MIFKUJ_clean_linker_1, # of connection points: 4
#     Node 2, Type 0, BuildingBlock: MIFKUJ_clean_linker_1, # of connection points: 4
#     Node 3, Type 0, BuildingBlock: MIFKUJ_clean_linker_1, # of connection points: 4
#     Node 4, Type 0, BuildingBlock: MIFKUJ_clean_linker_1, # of connection points: 4
#     Node 5, Type 0, BuildingBlock: MIFKUJ_clean_linker_1, # of connection points: 4
#     Node 6, Type 0, BuildingBlock: MIFKUJ_clean_linker_1, # of connection points: 4
#     Node 7, Type 0, BuildingBlock: MIFKUJ_clean_linker_1, # of connection points: 4
#     Node 8, Type 1, BuildingBlock: TATPOV_clean_sbu_0, # of connection points: 4
#     Node 9, Type 1, BuildingBlock: TATPOV_clean_sbu_0, # of connection points: 4
#     Node 10, Type 1, BuildingBlock: TATPOV_clean_sbu_0, # of connection points: 4
#     Node 11, Type 1, BuildingBlock: TATPOV_clean_sbu_0, # of connection points: 4
#     Node 12, Type 1, BuildingBlock: TATPOV_clean_sbu_0, # of connection points: 4
#     Node 13, Type 1, BuildingBlock: TATPOV_clean_sbu_0, # of connection points: 4
#     Node 14, Type 1, BuildingBlock: TATPOV_clean_sbu_0, # of connection points: 4
#     Node 15, Type 1, BuildingBlock: TATPOV_clean_sbu_0, # of connection points: 4
#     Edge 16, Type (0, 1), BuildingBlock: UVAHIK_clean_linker_0, # of connection points: 2
#     Edge 17, Type (0, 1), BuildingBlock: UVAHIK_clean_linker_0, # of connection points: 2
#     Edge 18, Type (0, 1), BuildingBlock: UVAHIK_clean_linker_0, # of connection points: 2
#     Edge 19, Type (0, 1), BuildingBlock: UVAHIK_clean_linker_0, # of connection points: 2
#     Edge 20, Type (0, 1), BuildingBlock: UVAHIK_clean_linker_0, # of connection points: 2
#     Edge 21, Type (0, 1), BuildingBlock: UVAHIK_clean_linker_0, # of connection points: 2
#     Edge 22, Type (0, 1), BuildingBlock: UVAHIK_clean_linker_0, # of connection points: 2
#     Edge 23, Type (0, 1), BuildingBlock: UVAHIK_clean_linker_0, # of connection points: 2
#     Edge 24, Type (0, 1), BuildingBlock: UVAHIK_clean_linker_0, # of connection points: 2
#     Edge 25, Type (0, 1), BuildingBlock: UVAHIK_clean_linker_0, # of connection points: 2
#     Edge 26, Type (0, 1), BuildingBlock: UVAHIK_clean_linker_0, # of connection points: 2
#     Edge 27, Type (0, 1), BuildingBlock: UVAHIK_clean_linker_0, # of connection points: 2
#     Edge 28, Type (0, 1), BuildingBlock: UVAHIK_clean_linker_0, # of connection points: 2
#     Edge 29, Type (0, 1), BuildingBlock: UVAHIK_clean_linker_0, # of connection points: 2
#     Edge 30, Type (0, 1), BuildingBlock: UVAHIK_clean_linker_0, # of connection points: 2
#     Edge 31, Type (0, 1), BuildingBlock: UVAHIK_clean_linker_0, # of connection points: 2
#     Edge 32, Type (0, 1), BuildingBlock: UVAHIK_clean_linker_0, # of connection points: 2
#     Edge 33, Type (0, 1), BuildingBlock: UVAHIK_clean_linker_0, # of connection points: 2
#     Edge 34, Type (0, 1), BuildingBlock: UVAHIK_clean_linker_0, # of connection points: 2
#     Edge 35, Type (0, 1), BuildingBlock: UVAHIK_clean_linker_0, # of connection points: 2
#     Edge 36, Type (0, 1), BuildingBlock: UVAHIK_clean_linker_0, # of connection points: 2
#     Edge 37, Type (0, 1), BuildingBlock: UVAHIK_clean_linker_0, # of connection points: 2
#     Edge 38, Type (0, 1), BuildingBlock: UVAHIK_clean_linker_0, # of connection points: 2
#     Edge 39, Type (0, 1), BuildingBlock: UVAHIK_clean_linker_0, # of connection points: 2
#     Edge 40, Type (0, 1), BuildingBlock: UVAHIK_clean_linker_0, # of connection points: 2
#     Edge 41, Type (0, 1), BuildingBlock: UVAHIK_clean_linker_0, # of connection points: 2
#     Edge 42, Type (0, 1), BuildingBlock: UVAHIK_clean_linker_0, # of connection points: 2
#     Edge 43, Type (0, 1), BuildingBlock: UVAHIK_clean_linker_0, # of connection points: 2
#     Edge 44, Type (0, 1), BuildingBlock: UVAHIK_clean_linker_0, # of connection points: 2
#     Edge 45, Type (0, 1), BuildingBlock: UVAHIK_clean_linker_0, # of connection points: 2
#     Edge 46, Type (0, 1), BuildingBlock: UVAHIK_clean_linker_0, # of connection points: 2
#     Edge 47, Type (0, 1), BuildingBlock: UVAHIK_clean_linker_0, # of connection points: 2
# Relax obj value: 0.161
# Max RMSD: 0.152
# Mean RMSD: 0.128
data_MOF--net-wbl--node1-TATPOV_clean_sbu_0--node2-MIFKUJ_clean_linker_1--edge1-UVAHIK_clean_linker_0
_symmetry_space_group_name_H-M    P1
_symmetry_Int_Tables_number       1
_symmetry_cell_setting            triclinic
loop_
_symmetry_equiv_pos_as_xyz
'x, y, z'
_cell_length_a     56.892157
_cell_length_b     56.88795
_cell_length_c     90.837942
_cell_angle_alpha  91.398353
_cell_angle_beta   91.345359
_cell_angle_gamma 90.012237
loop_
_atom_site_label
_atom_site_type_symbol
_atom_site_fract_x
_atom_site_fract_y
_atom_site_fract_z
_atom_type_partial_charge
H0 H 0.06099 0.07493 0.38152 0.0
H1 H 0.03964 0.10234 0.39747 0.0
H2 H 0.97379 0.07248 0.38124 0.0
H3 H 0.99529 0.04562 0.36507 0.0
H4 H 0.06058 0.02616 0.38066 0.0
H5 H 0.03916 0.08947 0.34969 0.0
H6 H 0.01193 0.11716 0.33806 0.0
H7 H 0.97782 0.0596 0.31428 0.0
H8 H 0.00407 0.03174 0.32652 0.0
H9 H 0.04363 0.97574 0.32624 0.0
H10 H 0.062 0.9458 0.31047 0.0
H11 H 0.1306 0.96911 0.32617 0.0
H12 H 0.11214 -0.0008 0.34178 0.0
H13 H 0.0477 0.02349 0.32645 0.0
H14 H 0.06426 0.9605 0.35923 0.0
H15 H 0.08654 0.93165 0.37338 0.0
H16 H 0.12852 0.98763 0.39341 0.0
H17 H 0.1063 0.0164 0.37917 0.0
C18 C 0.02971 0.05841 0.37204 0.0
C19 C 0.04195 0.07435 0.38142 0.0
C20 C 0.0297 0.08993 0.39057 0.0
C21 C 0.00496 0.08968 0.39063 0.0
C22 C 0.9928 0.0735 0.38128 0.0
C23 C 0.00505 0.05803 0.37209 0.0
C24 C 0.0427 0.04201 0.36228 0.0
C25 C 0.05809 0.02582 0.36877 0.0
C26 C 0.03897 0.04132 0.34681 0.0
C27 C 0.0234 0.05841 0.33923 0.0
C28 C 0.0256 0.08271 0.34217 0.0
C29 C 0.0102 0.09854 0.33546 0.0
C30 C 0.99289 0.09039 0.32534 0.0
C31 C 0.99116 0.06623 0.32201 0.0
C32 C 0.00617 0.05036 0.32898 0.0
C33 C 0.07654 0.98954 0.33525 0.0
C34 C 0.06263 0.97445 0.32622 0.0
C35 C 0.07312 0.9573 0.31729 0.0
C36 C 0.09771 0.95514 0.3171 0.0
C37 C 0.11161 0.97053 0.32598 0.0
C38 C 0.1011 0.98758 0.33499 0.0
C39 C 0.06524 0.00741 0.34486 0.0
C40 C 0.05029 0.02396 0.33833 0.0
C41 C 0.06923 0.00834 0.36029 0.0
C42 C 0.08374 0.99061 0.36804 0.0
C43 C 0.07857 0.96653 0.36645 0.0
C44 C 0.09129 0.95005 0.37455 0.0
C45 C 0.10922 0.95739 0.38454 0.0
C46 C 0.11461 0.98147 0.38594 0.0
C47 C 0.10198 0.99791 0.37778 0.0
H48 H 0.9882 0.50247 0.57205 0.0
H49 H 0.96369 0.47625 0.55652 0.0
H50 H 0.90194 0.51526 0.56934 0.0
H51 H 0.92659 0.54126 0.58499 0.0
H52 H 0.99731 0.54847 0.57295 0.0
H53 H 0.96621 0.49285 0.60538 0.0
H54 H 0.93859 0.46875 0.61853 0.0
H55 H 0.90298 0.53163 0.63375 0.0
H56 H 0.93123 0.55565 0.62086 0.0
H57 H 0.99532 0.60923 0.62251 0.0
H58 H 0.02216 0.63023 0.63992 0.0
H59 H 0.07179 0.57307 0.63655 0.0
H60 H 0.04525 0.55249 0.61886 0.0
H61 H 0.97951 0.55652 0.62609 0.0
H62 H 0.01703 0.61126 0.59405 0.0
H63 H 0.05176 0.63094 0.58495 0.0
H64 H 0.07959 0.5638 0.57047 0.0
H65 H 0.04467 0.54419 0.57963 0.0
C66 C 0.95918 0.52361 0.57981 0.0
C67 C 0.96942 0.50554 0.57136 0.0
C68 C 0.95538 0.49064 0.56244 0.0
C69 C 0.93084 0.49362 0.56173 0.0
C70 C 0.92074 0.51228 0.56982 0.0
C71 C 0.93479 0.52715 0.57875 0.0
C72 C 0.97393 0.53831 0.59005 0.0
C73 C 0.99342 0.55014 0.58457 0.0
C74 C 0.96889 0.54056 0.60521 0.0
C75 C 0.95069 0.52604 0.61208 0.0
C76 C 0.95223 0.50142 0.61137 0.0
C77 C 0.93633 0.48765 0.61887 0.0
C78 C 0.91852 0.4982 0.62725 0.0
C79 C 0.91669 0.5229 0.62761 0.0
C80 C 0.93272 0.53667 0.62018 0.0
C81 C 0.01844 0.57942 0.61944 0.0
C82 C 0.01202 0.60132 0.62552 0.0
C83 C 0.02732 0.61328 0.63537 0.0
C84 C 0.04892 0.60316 0.63952 0.0
C85 C 0.05516 0.58112 0.63353 0.0
C86 C 0.0401 0.56942 0.62346 0.0
C87 C 0.00252 0.56677 0.60893 0.0
C88 C 0.98298 0.55519 0.6144 0.0
C89 C 0.00785 0.56427 0.59386 0.0
C90 C 0.02842 0.57624 0.58769 0.0
C91 C 0.03068 0.60077 0.589 0.0
C92 C 0.05057 0.61197 0.58382 0.0
C93 C 0.06855 0.5989 0.57712 0.0
C94 C 0.06599 0.57437 0.5755 0.0
C95 C 0.04608 0.56315 0.58074 0.0
H96 H 0.51091 0.52387 0.87116 0.0
H97 H 0.48941 0.55218 0.8865 0.0
H98 H 0.42365 0.52372 0.86932 0.0
H99 H 0.44513 0.49511 0.85432 0.0
H100 H 0.51334 0.47783 0.87022 0.0
H101 H 0.49423 0.53552 0.83466 0.0
H102 H 0.46658 0.56421 0.82458 0.0
H103 H 0.41884 0.50792 0.8117 0.0
H104 H 0.44672 0.47919 0.82182 0.0
H105 H 0.49972 0.42056 0.81756 0.0
H106 H 0.52178 0.3947 0.80085 0.0
H107 H 0.58594 0.4311 0.81379 0.0
H108 H 0.56383 0.45693 0.8303 0.0
H109 H 0.49626 0.46983 0.81649 0.0
H110 H 0.52146 0.41204 0.85381 0.0
H111 H 0.54829 0.38922 0.86935 0.0
H112 H 0.58969 0.45187 0.87864 0.0
H113 H 0.56223 0.47457 0.86365 0.0
C114 C 0.47966 0.50758 0.86143 0.0
C115 C 0.49187 0.52363 0.87077 0.0
C116 C 0.47959 0.53979 0.87951 0.0
C117 C 0.45488 0.54024 0.87899 0.0
C118 C 0.44269 0.52403 0.86974 0.0
C119 C 0.45496 0.5077 0.86115 0.0
C120 C 0.49269 0.49066 0.85195 0.0
C121 C 0.50975 0.47623 0.85845 0.0
C122 C 0.48804 0.4885 0.83662 0.0
C123 C 0.47239 0.50532 0.82903 0.0
C124 C 0.47794 0.52936 0.82948 0.0
C125 C 0.46219 0.54569 0.82369 0.0
C126 C 0.44055 0.53826 0.81742 0.0
C127 C 0.43534 0.51409 0.81658 0.0
C128 C 0.45126 0.4977 0.82223 0.0
C129 C 0.5302 0.44047 0.82526 0.0
C130 C 0.51855 0.42285 0.81682 0.0
C131 C 0.53115 0.40809 0.80732 0.0
C132 C 0.55554 0.41099 0.80597 0.0
C133 C 0.56712 0.42864 0.81447 0.0
C134 C 0.55456 0.44323 0.82403 0.0
C135 C 0.5168 0.45679 0.83481 0.0
C136 C 0.4997 0.47124 0.82828 0.0
C137 C 0.522 0.45948 0.85005 0.0
C138 C 0.53984 0.44497 0.85769 0.0
C139 C 0.53652 0.42071 0.85907 0.0
C140 C 0.55193 0.40769 0.86792 0.0
C141 C 0.57101 0.41875 0.87545 0.0
C142 C 0.57486 0.44287 0.87335 0.0
C143 C 0.55931 0.45587 0.86469 0.0
H144 H 0.51487 0.9477 0.07312 0.0
H145 H 0.48475 0.92298 0.0609 0.0
H146 H 0.4317 0.9553 0.08786 0.0
H147 H 0.46164 0.98097 0.0996 0.0
H148 H 0.52315 0.99188 0.07447 0.0
H149 H 0.50546 0.93433 0.11181 0.0
H150 H 0.48015 0.91307 0.12837 0.0
H151 H 0.45746 0.97924 0.14769 0.0
H152 H 0.48326 0.00022 0.13139 0.0
H153 H 0.55402 0.05487 0.1056 0.0
H154 H 0.58289 0.07907 0.11942 0.0
H155 H 0.60709 0.01764 0.14236 0.0
H156 H 0.57823 0.99356 0.12851 0.0
H157 H 0.53153 0.99682 0.12894 0.0
H158 H 0.53332 0.03957 0.07265 0.0
H159 H 0.56091 0.06034 0.05737 0.0
H160 H 0.61816 0.0196 0.07578 0.0
H161 H 0.59047 -0.00051 0.09135 0.0
C162 C 0.49063 0.96598 0.08745 0.0
C163 C 0.49673 0.94974 0.07629 0.0
C164 C 0.47956 0.9356 0.06933 0.0
C165 C 0.45603 0.93725 0.07353 0.0
C166 C 0.44981 0.95361 0.08457 0.0
C167 C 0.46692 0.96814 0.09132 0.0
C168 C 0.5092 0.98047 0.095 0.0
C169 C 0.52495 0.9929 0.08639 0.0
C170 C 0.51172 0.98185 0.11054 0.0
C171 C 0.49616 0.96883 0.12036 0.0
C172 C 0.49496 0.9442 0.11961 0.0
C173 C 0.48038 0.93209 0.12903 0.0
C174 C 0.46675 0.94442 0.1394 0.0
C175 C 0.46799 0.96914 0.14005 0.0
C176 C 0.48265 0.98119 0.13069 0.0
C177 C 0.56403 0.02239 0.116 0.0
C178 C 0.56582 0.04656 0.11342 0.0
C179 C 0.58233 0.06036 0.12132 0.0
C180 C 0.59718 0.05027 0.13201 0.0
C181 C 0.59567 0.02598 0.13433 0.0
C182 C 0.57923 0.01219 0.12641 0.0
C183 C 0.54557 0.0079 0.10841 0.0
C184 C 0.52974 0.99567 0.11702 0.0
C185 C 0.54321 0.0064 0.09289 0.0
C186 C 0.55991 0.0182 0.08322 0.0
C187 C 0.55182 0.03508 0.07332 0.0
C188 C 0.56762 0.04683 0.06453 0.0
C189 C 0.59182 0.04169 0.06533 0.0
C190 C 0.59974 0.02432 0.07504 0.0
C191 C 0.58394 0.01273 0.08392 0.0
H192 H 0.9775 0.59665 0.90141 0.0
H193 H 0.00188 0.62448 0.8885 0.0
H194 H 0.06405 0.58596 0.90183 0.0
H195 H 0.03954 0.55871 0.91508 0.0
H196 H 0.97527 0.54874 0.89491 0.0
H197 H 0.9974 0.59976 0.93526 0.0
H198 H 0.02553 0.6212 0.95099 0.0
H199 H 0.05148 0.55539 0.96792 0.0
H200 H 0.02498 0.53406 0.951 0.0
H201 H 0.98488 0.48099 0.93951 0.0
H202 H 0.96409 0.4463 0.94796 0.0
H203 H 0.89783 0.47787 0.93515 0.0
H204 H 0.91873 0.51233 0.92669 0.0
H205 H 0.982 0.52844 0.94766 0.0
H206 H 0.9774 0.48349 0.90022 0.0
H207 H 0.95598 0.4585 0.88203 0.0
H208 H 0.89927 0.50889 0.881 0.0
H209 H 0.92111 0.53419 0.89893 0.0
C210 C 0.00672 0.5757 0.90924 0.0
C211 C 0.99641 0.59442 0.90168 0.0
C212 C 0.01038 0.61021 0.89423 0.0
C213 C 0.03496 0.6074 0.894 0.0
C214 C 0.04525 0.58891 0.90192 0.0
C215 C 0.03126 0.57323 0.90947 0.0
C216 C 0.99171 0.55774 0.91593 0.0
C217 C 0.97644 0.54473 0.90653 0.0
C218 C 0.99376 0.55196 0.93101 0.0
C219 C 0.00946 0.56522 0.94157 0.0
C220 C 0.00944 0.58991 0.94216 0.0
C221 C 0.02529 0.60221 0.95145 0.0
C222 C 0.04106 0.59012 0.96074 0.0
C223 C 0.04012 0.56539 0.96068 0.0
C224 C 0.02468 0.55311 0.95112 0.0
C225 C 0.95335 0.49908 0.93233 0.0
C226 C 0.96587 0.48044 0.93861 0.0
C227 C 0.95396 0.46066 0.94345 0.0
C228 C 0.92932 0.45924 0.94211 0.0
C229 C 0.91684 0.47819 0.93606 0.0
C230 C 0.92875 0.49793 0.93125 0.0
C231 C 0.96605 0.51952 0.92658 0.0
C232 C 0.98075 0.53291 0.93613 0.0
C233 C 0.96392 0.52554 0.91164 0.0
C234 C 0.95074 0.51057 0.90085 0.0
C235 C 0.96039 0.48915 0.89602 0.0
C236 C 0.94823 0.47498 0.88566 0.0
C237 C 0.92607 0.48188 0.88018 0.0
C238 C 0.91631 0.50324 0.88514 0.0
C239 C 0.92873 0.51766 0.89529 0.0
H240 H 0.50305 0.52945 0.19234 0.0
H241 H 0.47458 0.55618 0.20364 0.0
H242 H 0.41865 0.52353 0.17758 0.0
H243 H 0.44685 0.49586 0.16686 0.0
H244 H 0.50998 0.48562 0.19275 0.0
H245 H 0.49373 0.53834 0.15347 0.0
H246 H 0.46903 0.56075 0.13643 0.0
H247 H 0.43953 0.49592 0.11841 0.0
H248 H 0.4641 0.47361 0.13562 0.0
H249 H 0.51931 0.42535 0.14128 0.0
H250 H 0.54806 0.40108 0.12841 0.0
H251 H 0.60443 0.44104 0.14972 0.0
H252 H 0.5755 0.46581 0.16215 0.0
H253 H 0.5123 0.47192 0.13867 0.0
H254 H 0.5334 0.42 0.17865 0.0
H255 H 0.56191 0.40078 0.19496 0.0
H256 H 0.58603 0.46878 0.21131 0.0
H257 H 0.55777 0.4879 0.19477 0.0
C258 C 0.47721 0.51082 0.17857 0.0
C259 C 0.48464 0.52781 0.18916 0.0
C260 C 0.46843 0.5431 0.19558 0.0
C261 C 0.44457 0.54188 0.19137 0.0
C262 C 0.43704 0.52488 0.18085 0.0
C263 C 0.45317 0.50922 0.17467 0.0
C264 C 0.49461 0.4947 0.17172 0.0
C265 C 0.51062 0.48286 0.18091 0.0
C266 C 0.49539 0.49081 0.15629 0.0
C267 C 0.48058 0.50434 0.14587 0.0
C268 C 0.48186 0.52898 0.14589 0.0
C269 C 0.46787 0.54174 0.13609 0.0
C270 C 0.45233 0.53007 0.12611 0.0
C271 C 0.45115 0.50538 0.12609 0.0
C272 C 0.46527 0.49262 0.13582 0.0
C273 C 0.54524 0.44728 0.15275 0.0
C274 C 0.53787 0.4288 0.14323 0.0
C275 C 0.55434 0.41481 0.13598 0.0
C276 C 0.57857 0.41908 0.13807 0.0
C277 C 0.58592 0.43742 0.14778 0.0
C278 C 0.5694 0.45144 0.15501 0.0
C279 C 0.52759 0.46289 0.1597 0.0
C280 C 0.51154 0.47464 0.15051 0.0
C281 C 0.52717 0.46713 0.1751 0.0
C282 C 0.54367 0.45536 0.1854 0.0
C283 C 0.54484 0.43075 0.18575 0.0
C284 C 0.56097 0.4198 0.19517 0.0
C285 C 0.57621 0.4333 0.20441 0.0
C286 C 0.57466 0.45794 0.20423 0.0
C287 C 0.55846 0.46887 0.19485 0.0
H288 H 0.5382 0.94524 0.38779 0.0
H289 H 0.5127 0.91767 0.37395 0.0
H290 H 0.4529 0.94339 0.39797 0.0
H291 H 0.47856 0.9711 0.41179 0.0
H292 H 0.53689 0.99191 0.38821 0.0
H293 H 0.5266 0.93103 0.42281 0.0
H294 H 0.50355 0.90485 0.43755 0.0
H295 H 0.4801 0.96456 0.46374 0.0
H296 H 0.50141 0.99077 0.44801 0.0
H297 H 0.54458 0.04735 0.44166 0.0
H298 H 0.57129 0.077 0.45267 0.0
H299 H 0.62947 0.04397 0.43041 0.0
H300 H 0.60261 0.01482 0.41927 0.0
H301 H 0.54447 0.99791 0.44269 0.0
H302 H 0.54948 0.05813 0.40648 0.0
H303 H 0.57006 0.0854 0.39079 0.0
H304 H 0.60456 0.02674 0.36929 0.0
H305 H 0.58422 -0.00041 0.38519 0.0
C306 C 0.51031 0.96016 0.40086 0.0
C307 C 0.5196 0.94494 0.39009 0.0
C308 C 0.50501 0.92923 0.38217 0.0
C309 C 0.48079 0.92845 0.38484 0.0
C310 C 0.47154 0.94345 0.39579 0.0
C311 C 0.48615 0.95928 0.40367 0.0
C312 C 0.52589 0.97748 0.40868 0.0
C313 C 0.5387 0.99297 0.40013 0.0
C314 C 0.52783 0.97927 0.42426 0.0
C315 C 0.51525 0.963 0.43398 0.0
C316 C 0.51615 0.93854 0.43156 0.0
C317 C 0.50325 0.92349 0.44024 0.0
C318 C 0.48969 0.93247 0.45187 0.0
C319 C 0.48976 0.95693 0.45468 0.0
C320 C 0.50223 0.972 0.44578 0.0
C321 C 0.57162 0.02909 0.42956 0.0
C322 C 0.56313 0.04649 0.43926 0.0
C323 C 0.57842 0.06336 0.44555 0.0
C324 C 0.60249 0.06298 0.44232 0.0
C325 C 0.61097 0.0451 0.43288 0.0
C326 C 0.59568 0.02834 0.42657 0.0
C327 C 0.5553 0.01206 0.42219 0.0
C328 C 0.54246 0.99671 0.43079 0.0
C329 C 0.55321 0.01034 0.40667 0.0
C330 C 0.56547 0.02686 0.39706 0.0
C331 C 0.56158 0.05118 0.39844 0.0
C332 C 0.57321 0.06671 0.3894 0.0
C333 C 0.58896 0.05821 0.37883 0.0
C334 C 0.59275 0.03383 0.37745 0.0
C335 C 0.58102 0.0183 0.38644 0.0
H336 H 0.05311 0.08241 0.69704 0.0
H337 H 0.02349 0.10987 0.70655 0.0
H338 H 0.96916 0.07143 0.68232 0.0
H339 H -0.00153 0.04346 0.67341 0.0
H340 H 0.06068 0.03643 0.69908 0.0
H341 H 0.04717 0.08785 0.65753 0.0
H342 H 0.0206 0.10963 0.64112 0.0
H343 H 0.9861 0.0447 0.62775 0.0
H344 H 0.01301 0.02291 0.64395 0.0
H345 H 0.06772 0.97386 0.64903 0.0
H346 H 0.09499 0.94834 0.63579 0.0
H347 H 0.15364 0.98714 0.65529 0.0
H348 H 0.12613 0.01286 0.66844 0.0
H349 H 0.0636 0.02109 0.64512 0.0
H350 H 0.07753 0.96945 0.68534 0.0
H351 H 0.1007 0.94703 0.70313 0.0
H352 H 0.13279 0.01136 0.72 0.0
H353 H 0.10959 0.03375 0.70204 0.0
C354 C 0.02811 0.0612 0.68422 0.0
C355 C 0.0348 0.07975 0.69391 0.0
C356 C 0.01793 0.09542 0.69931 0.0
C357 C 0.99418 0.09287 0.69497 0.0
C358 C 0.98744 0.07397 0.68559 0.0
C359 C 0.00419 0.05809 0.68045 0.0
C360 C 0.04604 0.04525 0.67782 0.0
C361 C 0.06163 0.03339 0.68727 0.0
C362 C 0.04701 0.04088 0.66245 0.0
C363 C 0.03196 0.05383 0.65193 0.0
C364 C 0.03403 0.07832 0.65094 0.0
C365 C 0.01893 0.09069 0.64159 0.0
C366 C 0.00134 0.07877 0.63327 0.0
C367 C -0.00054 0.05423 0.63414 0.0
C368 C 0.01486 0.04181 0.64328 0.0
C369 C 0.09491 0.9952 0.65972 0.0
C370 C 0.08646 0.97668 0.65059 0.0
C371 C 0.10207 0.96203 0.64311 0.0
C372 C 0.12647 0.96575 0.64449 0.0
C373 C 0.13493 0.98396 0.65394 0.0
C374 C 0.11926 -0.00147 0.66154 0.0
C375 C 0.07815 0.01208 0.66637 0.0
C376 C 0.06286 0.02425 0.65693 0.0
C377 C 0.07755 0.01671 0.68173 0.0
C378 C 0.09204 0.00321 0.69229 0.0
C379 C 0.08967 0.9787 0.6928 0.0
C380 C 0.10272 0.96596 0.70306 0.0
C381 C 0.11845 0.97749 0.71299 0.0
C382 C 0.12088 0.00204 0.71243 0.0
C383 C 0.10762 0.01482 0.70223 0.0
Zn384 Zn 0.28811 0.73041 0.98189 0.0
Zn385 Zn 0.30396 0.70333 0.0045 0.0
O386 O 0.26862 0.69699 0.00403 0.0
O387 O 0.25491 0.72134 0.98738 0.0
O388 O 0.31654 0.68355 0.02101 0.0
O389 O 0.30406 0.7585 0.99203 0.0
O390 O 0.31393 0.73665 0.01089 0.0
C391 C 0.2514 0.70597 0.99695 0.0
C392 C 0.32001 0.69375 0.97279 0.0
O393 O 0.32097 0.69016 0.98657 0.0
O394 O 0.3066 0.70956 0.96772 0.0
C395 C 0.31976 0.66158 0.01908 0.0
O396 O 0.3141 0.65169 0.00626 0.0
C397 C 0.31343 0.75652 0.00473 0.0
Zn398 Zn 0.29107 0.75578 0.28052 0.0
Zn399 Zn 0.30903 0.7817 0.25843 0.0
O400 O 0.27506 0.79321 0.25942 0.0
O401 O 0.25931 0.77053 0.27587 0.0
O402 O 0.32306 0.80035 0.24219 0.0
O403 O 0.30176 0.72622 0.26973 0.0
O404 O 0.31401 0.74759 0.25152 0.0
C405 C 0.25736 0.78689 0.26669 0.0
C406 C 0.32851 0.78713 0.29022 0.0
O407 O 0.32886 0.79159 0.27656 0.0
O408 O 0.31365 0.7727 0.29494 0.0
C409 C 0.32934 0.82161 0.24446 0.0
O410 O 0.32591 0.83158 0.25743 0.0
C411 C 0.3109 0.72761 0.2572 0.0
Zn412 Zn 0.26655 0.76502 0.49042 0.0
Zn413 Zn 0.25452 0.79594 0.51258 0.0
O414 O 0.2896 0.80214 0.51076 0.0
O415 O 0.30055 0.77594 0.49401 0.0
O416 O 0.24426 0.81611 0.52974 0.0
O417 O 0.2526 0.73781 0.50156 0.0
O418 O 0.24437 0.76352 0.51915 0.0
C419 C 0.30556 0.79275 0.50297 0.0
C420 C 0.23387 0.80202 0.4816 0.0
O421 O 0.23569 0.80836 0.49512 0.0
O422 O 0.2451 0.78423 0.47685 0.0
C423 C 0.24953 0.83758 0.53218 0.0
O424 O 0.26312 0.84838 0.523 0.0
C425 C 0.24407 0.74249 0.51405 0.0
Zn426 Zn 0.25095 0.74404 0.75278 0.0
Zn427 Zn 0.22184 0.73184 0.77468 0.0
O428 O 0.22069 0.76797 0.77502 0.0
O429 O 0.24682 0.77819 0.75884 0.0
O430 O 0.20122 0.72272 0.79138 0.0
O431 O 0.27687 0.72449 0.76202 0.0
O432 O 0.25308 0.71579 0.77986 0.0
C433 C 0.23181 0.78384 0.76838 0.0
C434 C 0.20943 0.71791 0.74277 0.0
O435 O 0.20553 0.71712 0.75649 0.0
O436 O 0.22722 0.72881 0.73825 0.0
C437 C 0.17892 0.72296 0.79008 0.0
O438 O 0.16911 0.72983 0.77767 0.0
C439 C 0.27304 0.714 0.77386 0.0
Zn440 Zn 0.79972 0.23907 0.53575 0.0
Zn441 Zn 0.82812 0.22956 0.51231 0.0
O442 O 0.83018 0.26525 0.51406 0.0
O443 O 0.80763 0.27363 0.53287 0.0
O444 O 0.8486 0.22077 0.49524 0.0
O445 O 0.77261 0.22354 0.52432 0.0
O446 O 0.79602 0.2164 0.50577 0.0
C447 C 0.82111 0.28028 0.52285 0.0
C448 C 0.8395 0.2099 0.54301 0.0
O449 O 0.844 0.21282 0.52952 0.0
O450 O 0.82125 0.21897 0.54852 0.0
C451 C 0.87084 0.21986 0.49682 0.0
O452 O 0.88057 0.22575 0.50965 0.0
C453 C 0.77585 0.21508 0.51149 0.0
Zn454 Zn 0.7889 0.27771 0.76759 0.0
Zn455 Zn 0.79961 0.30612 0.7452 0.0
O456 O 0.7635 0.30609 0.74512 0.0
O457 O 0.75455 0.27974 0.76144 0.0
O458 O 0.80773 0.32706 0.72841 0.0
O459 O 0.81026 0.2528 0.75896 0.0
O460 O 0.8162 0.2751 0.73992 0.0
C461 C 0.74816 0.29442 0.75188 0.0
C462 C 0.81308 0.3202 0.77707 0.0
O463 O 0.81414 0.32329 0.76326 0.0
O464 O 0.80245 0.30249 0.78189 0.0
C465 C 0.80659 0.34932 0.72989 0.0
O466 O 0.79944 0.35859 0.74239 0.0
C467 C 0.81958 0.25594 0.74664 0.0
Zn468 Zn 0.76321 0.25992 0.02766 0.0
Zn469 Zn 0.73091 0.2721 0.0063 0.0
O470 O 0.72602 0.23664 0.00708 0.0
O471 O 0.75207 0.2261 0.02399 0.0
O472 O 0.70892 0.28306 0.99016 0.0
O473 O 0.78934 0.27441 0.01588 0.0
O474 O 0.76255 0.28349 0.99912 0.0
C475 C 0.73564 0.22078 0.01483 0.0
C476 C 0.72656 0.29112 0.03807 0.0
O477 O 0.71926 0.28926 0.02473 0.0
O478 O 0.74515 0.28058 0.04217 0.0
C479 C 0.70639 0.30517 0.98911 0.0
O480 O 0.71749 0.31914 0.99868 0.0
C481 C 0.78385 0.28366 0.00372 0.0
Zn482 Zn 0.7724 0.23659 0.23715 0.0
Zn483 Zn 0.74807 0.21794 0.25965 0.0
O484 O 0.73623 0.25186 0.25955 0.0
O485 O 0.75776 0.2681 0.24268 0.0
O486 O 0.73088 0.20271 0.27606 0.0
O487 O 0.80279 0.22588 0.24693 0.0
O488 O 0.78266 0.21318 0.26558 0.0
C489 C 0.74205 0.26977 0.25232 0.0
C490 C 0.74045 0.19945 0.22781 0.0
O491 O 0.7368 0.19877 0.24157 0.0
O492 O 0.75467 0.21435 0.2229 0.0
C493 C 0.7088 0.20486 0.27744 0.0
O494 O 0.6969 0.21798 0.26819 0.0
C495 C 0.80223 0.21655 0.25944 0.0
C496 C 0.10025 0.91334 0.30795 0.0
C497 C 0.10887 0.93649 0.30799 0.0
C498 C 0.11179 0.89539 0.30024 0.0
C499 C 0.15548 0.88308 0.27156 0.0
H500 H 0.1712 0.82934 0.29529 0.0
C501 C 0.23543 0.82374 0.26097 0.0
C502 C 0.23528 0.80053 0.26589 0.0
C503 C 0.21591 0.83828 0.26299 0.0
C504 C 0.16654 0.84384 0.28829 0.0
H505 H 0.13561 0.95924 0.29942 0.0
H506 H 0.1559 0.92783 0.28602 0.0
H507 H 0.14436 0.8589 0.30467 0.0
H508 H 0.21381 0.77359 0.27539 0.0
H509 H 0.17944 0.79863 0.27839 0.0
H510 H 0.17802 0.86818 0.25526 0.0
C511 C 0.14018 0.92358 0.29191 0.0
C512 C 0.15118 0.86087 0.29373 0.0
C513 C 0.12874 0.9415 0.29971 0.0
C514 C 0.21456 0.79153 0.2717 0.0
C515 C 0.19492 0.80595 0.27351 0.0
C516 C 0.17071 0.86588 0.26603 0.0
C517 C 0.13208 0.90028 0.29232 0.0
C518 C 0.14593 0.88093 0.28559 0.0
C519 C 0.19572 0.8298 0.26978 0.0
C520 C 0.17689 0.84633 0.27449 0.0
H521 H 0.08504 0.90895 0.31429 0.0
H522 H 0.1051 0.8776 0.30068 0.0
H523 H 0.15149 0.89826 0.26499 0.0
H524 H 0.25115 0.8312 0.25646 0.0
H525 H 0.21731 0.85656 0.26007 0.0
C526 C 0.09944 0.6047 0.55818 0.0
C527 C 0.08983 0.61094 0.57185 0.0
C528 C 0.11873 0.61694 0.55294 0.0
C529 C 0.14771 0.67455 0.55687 0.0
H530 H 0.19854 0.64425 0.53596 0.0
C531 C 0.22471 0.72877 0.53672 0.0
C532 C 0.23165 0.72418 0.52219 0.0
C533 C 0.21013 0.7131 0.54378 0.0
C534 C 0.18439 0.65297 0.5417 0.0
H535 H 0.0937 0.63413 0.59106 0.0
H536 H 0.12727 0.65549 0.58192 0.0
H537 H 0.16759 0.62031 0.54634 0.0
H538 H 0.22972 0.69888 0.50395 0.0
H539 H 0.20387 0.67167 0.51619 0.0
H540 H 0.16401 0.70716 0.55203 0.0
C541 C 0.11962 0.64144 0.57512 0.0
C542 C 0.16668 0.63926 0.54764 0.0
C543 C 0.10036 0.62923 0.58034 0.0
C544 C 0.22469 0.70292 0.51515 0.0
C545 C 0.20993 0.68729 0.5222 0.0
C546 C 0.16532 0.6882 0.55092 0.0
C547 C 0.12882 0.63568 0.56126 0.0
C548 C 0.14811 0.64993 0.55527 0.0
C549 C 0.20195 0.69253 0.53645 0.0
C550 C 0.18387 0.67762 0.54324 0.0
H551 H 0.0916 0.59083 0.55131 0.0
H552 H 0.12525 0.61224 0.54215 0.0
H553 H 0.13341 0.68336 0.56241 0.0
H554 H 0.23 0.74485 0.54253 0.0
H555 H 0.20479 0.7174 0.55489 0.0
C556 C 0.43 0.57479 0.80393 0.0
C557 C 0.42311 0.55586 0.81247 0.0
C558 C 0.41383 0.59217 0.80003 0.0
C559 C 0.3498 0.60464 0.79755 0.0
H560 H 0.37082 0.66951 0.7974 0.0
C561 C 0.28531 0.68197 0.79085 0.0
C562 C 0.29115 0.69815 0.78006 0.0
C563 C 0.3017 0.66531 0.79556 0.0
C564 C 0.36475 0.65146 0.79734 0.0
H565 H 0.39401 0.54024 0.8237 0.0
H566 H 0.36583 0.57074 0.81713 0.0
H567 H 0.39865 0.63857 0.8038 0.0
H568 H 0.31911 0.71017 0.76623 0.0
H569 H 0.34777 0.68123 0.77461 0.0
H570 H 0.31581 0.61768 0.79128 0.0
C571 C 0.38356 0.57196 0.81313 0.0
C572 C 0.3807 0.6337 0.80092 0.0
C573 C 0.39969 0.55448 0.81691 0.0
C574 C 0.31403 0.69791 0.77453 0.0
C575 C 0.33048 0.68141 0.77936 0.0
C576 C 0.33382 0.62243 0.79411 0.0
C577 C 0.39046 0.59111 0.80472 0.0
C578 C 0.37345 0.61004 0.801 0.0
C579 C 0.32433 0.66467 0.78971 0.0
C580 C 0.34116 0.64599 0.79391 0.0
H581 H 0.44792 0.57615 0.80026 0.0
H582 H 0.41965 0.60638 0.79328 0.0
H583 H 0.34367 0.58661 0.79725 0.0
H584 H 0.26784 0.68167 0.79533 0.0
H585 H 0.29659 0.65276 0.80368 0.0
C586 C 0.43576 0.91993 0.05116 0.0
C587 C 0.43821 0.92148 0.06655 0.0
C588 C 0.41999 0.90394 0.04449 0.0
C589 C 0.37009 0.8637 0.05223 0.0
H590 H 0.39012 0.83271 0.01615 0.0
C591 C 0.33043 0.77702 0.02727 0.0
C592 C 0.32476 0.77714 0.01212 0.0
C593 C 0.34227 0.79606 0.03405 0.0
C594 C 0.38422 0.84139 0.02615 0.0
H595 H 0.42614 0.90791 0.0871 0.0
H596 H 0.39923 0.87922 0.0755 0.0
H597 H 0.41472 0.86317 0.02775 0.0
H598 H 0.32674 0.79742 0.99226 0.0
H599 H 0.3479 0.8304 0.00408 0.0
H600 H 0.34002 0.84089 0.05082 0.0
C601 C 0.40887 0.89078 0.06852 0.0
C602 C 0.39823 0.85896 0.03278 0.0
C603 C 0.42436 0.9071 0.07519 0.0
C604 C 0.33083 0.79681 0.00395 0.0
C605 C 0.343 0.81564 0.01068 0.0
C606 C 0.35626 0.8458 0.04571 0.0
C607 C 0.40668 0.88879 0.05307 0.0
C608 C 0.39135 0.87041 0.0459 0.0
C609 C 0.34898 0.81533 0.02574 0.0
C610 C 0.36322 0.83455 0.0326 0.0
H611 H 0.44613 0.93106 0.0443 0.0
H612 H 0.41838 0.90338 0.03259 0.0
H613 H 0.36401 0.87234 0.06219 0.0
H614 H 0.3259 0.76214 0.03386 0.0
H615 H 0.34683 0.7954 0.04568 0.0
C616 C 0.05485 0.62597 0.97545 0.0
C617 C 0.05924 0.60315 0.96978 0.0
C618 C 0.07281 0.63907 0.9825 0.0
C619 C 0.12992 0.63629 0.00142 0.0
H620 H 0.14657 0.6911 0.9794 0.0
C621 C 0.22356 0.67384 0.00284 0.0
C622 C 0.22733 0.69728 0.99906 0.0
C623 C 0.20081 0.66462 0.00279 0.0
C624 C 0.14197 0.67632 0.98604 0.0
H625 H 0.08608 0.57612 0.96767 0.0
H626 H 0.11684 0.5986 0.98054 0.0
H627 H 0.11001 0.67058 0.97354 0.0
H628 H 0.21033 0.73004 0.99347 0.0
H629 H 0.17052 0.71443 0.99422 0.0
H630 H 0.16173 0.6419 0.01399 0.0
C631 C 0.09948 0.60627 0.97942 0.0
C632 C 0.121 0.6645 0.98258 0.0
C633 C 0.08173 0.59337 0.97208 0.0
C634 C 0.20789 0.71178 0.9962 0.0
C635 C 0.18509 0.70274 0.99653 0.0
C636 C 0.15067 0.64842 0.00513 0.0
C637 C 0.09531 0.62939 0.98436 0.0
C638 C 0.11519 0.644 0.98993 0.0
C639 C 0.18125 0.6788 0.99929 0.0
C640 C 0.15742 0.66814 0.99713 0.0
H641 H 0.03766 0.63394 0.97424 0.0
H642 H 0.06925 0.6569 0.98628 0.0
H643 H 0.12564 0.62054 0.00728 0.0
H644 H 0.23828 0.66225 0.00503 0.0
H645 H 0.19879 0.64605 0.00476 0.0
C646 C 0.4256 0.56032 0.21324 0.0
C647 C 0.42765 0.5585 0.19791 0.0
C648 C 0.41033 0.57673 0.21951 0.0
C649 C 0.36117 0.618 0.21039 0.0
H650 H 0.38178 0.6482 0.2472 0.0
C651 C 0.32557 0.7063 0.23475 0.0
C652 C 0.31975 0.70613 0.24971 0.0
C653 C 0.33608 0.68666 0.22811 0.0
C654 C 0.37573 0.63974 0.23698 0.0
H655 H 0.41552 0.57207 0.17704 0.0
H656 H 0.38962 0.60159 0.18792 0.0
H657 H 0.40572 0.61735 0.23624 0.0
H658 H 0.31974 0.68503 0.2693 0.0
H659 H 0.33862 0.651 0.25774 0.0
H660 H 0.3317 0.64155 0.21096 0.0
C661 C 0.39911 0.5899 0.19517 0.0
C662 C 0.38935 0.62193 0.23071 0.0
C663 C 0.41403 0.57313 0.18891 0.0
C664 C 0.32398 0.6857 0.25776 0.0
C665 C 0.33486 0.66627 0.25118 0.0
C666 C 0.34777 0.63618 0.21655 0.0
C667 C 0.39719 0.59207 0.21058 0.0
C668 C 0.38226 0.61075 0.21734 0.0
C669 C 0.3413 0.66672 0.23638 0.0
C670 C 0.35494 0.64712 0.22992 0.0
H671 H 0.43579 0.54899 0.22037 0.0
H672 H 0.40892 0.57739 0.23137 0.0
H673 H 0.3549 0.60959 0.20023 0.0
H674 H 0.32245 0.72176 0.22826 0.0
H675 H 0.34102 0.6874 0.21668 0.0
C676 C 0.45311 0.92422 0.46599 0.0
C677 C 0.47493 0.91653 0.46066 0.0
C678 C 0.4387 0.90903 0.47359 0.0
C679 C 0.42206 0.84857 0.47476 0.0
H680 H 0.39373 0.86516 0.512 0.0
C681 C 0.34826 0.79132 0.49678 0.0
C682 C 0.32923 0.80352 0.5029 0.0
C683 C 0.36956 0.80285 0.49454 0.0
C684 C 0.40128 0.8603 0.50153 0.0
H685 H 0.49885 0.88675 0.45974 0.0
H686 H 0.47295 0.85996 0.47232 0.0
H687 H 0.42408 0.89039 0.50224 0.0
H688 H 0.31795 0.83707 0.5121 0.0
H689 H 0.35441 0.85738 0.50762 0.0
H690 H 0.39834 0.81955 0.47333 0.0
C691 C 0.46732 0.87791 0.47068 0.0
C692 C 0.41879 0.87469 0.49603 0.0
C693 C 0.48201 0.89325 0.46335 0.0
C694 C 0.33232 0.82712 0.50742 0.0
C695 C 0.35341 0.83877 0.50491 0.0
C696 C 0.40422 0.83444 0.48008 0.0
C697 C 0.4455 0.88566 0.47579 0.0
C698 C 0.42904 0.86913 0.48249 0.0
C699 C 0.37214 0.82698 0.49806 0.0
C700 C 0.39322 0.84034 0.49342 0.0
H701 H 0.44669 0.94176 0.46391 0.0
H702 H 0.42177 0.91529 0.47724 0.0
H703 H 0.42957 0.84406 0.46421 0.0
H704 H 0.34648 0.77303 0.49332 0.0
H705 H 0.38375 0.79295 0.48963 0.0
C706 C 0.15681 0.96746 0.72546 0.0
C707 C 0.13248 0.96373 0.72369 0.0
C708 C 0.17038 0.95283 0.73442 0.0
C709 C 0.16768 0.9078 0.76317 0.0
H710 H 0.21972 0.87967 0.74238 0.0
C711 C 0.20202 0.81479 0.77409 0.0
C712 C 0.22498 0.80879 0.77009 0.0
C713 C 0.19376 0.83772 0.77234 0.0
C714 C 0.20572 0.88767 0.74862 0.0
H715 H 0.10306 0.94281 0.7306 0.0
H716 H 0.12675 0.91719 0.74617 0.0
H717 H 0.19942 0.91308 0.73205 0.0
H718 H 0.25812 0.82253 0.76273 0.0
H719 H 0.24409 0.86273 0.76032 0.0
H720 H 0.17365 0.88197 0.7796 0.0
C721 C 0.13535 0.9314 0.74068 0.0
C722 C 0.194 0.90686 0.74263 0.0
C723 C 0.12182 0.94588 0.73163 0.0
C724 C 0.24021 0.82659 0.76568 0.0
C725 C 0.23209 0.8496 0.76419 0.0
C726 C 0.17958 0.88871 0.76928 0.0
C727 C 0.15984 0.93436 0.74188 0.0
C728 C 0.17443 0.91668 0.7496 0.0
C729 C 0.20842 0.85519 0.76677 0.0
C730 C 0.19831 0.87793 0.76184 0.0
H731 H 0.16548 0.98105 0.71945 0.0
H732 H 0.18922 0.95558 0.73522 0.0
H733 H 0.1528 0.91524 0.76887 0.0
H734 H 0.18986 0.80143 0.77749 0.0
H735 H 0.1754 0.84122 0.77436 0.0
C736 C 0.56592 0.37112 0.79564 0.0
C737 C 0.56905 0.39563 0.79583 0.0
C738 C 0.58025 0.35657 0.78707 0.0
C739 C 0.62296 0.35602 0.7568 0.0
H740 H 0.65375 0.30753 0.77943 0.0
C741 C 0.71611 0.32267 0.74546 0.0
C742 C 0.72295 0.30039 0.75033 0.0
C743 C 0.69307 0.33055 0.74731 0.0
C744 C 0.64499 0.32049 0.77271 0.0
H745 H 0.58856 0.42421 0.78654 0.0
H746 H 0.61368 0.39883 0.77168 0.0
H747 H 0.62063 0.32851 0.78966 0.0
H748 H 0.71048 0.26788 0.75938 0.0
H749 H 0.6701 0.28125 0.76207 0.0
H750 H 0.64781 0.3484 0.73999 0.0
C751 C 0.60016 0.39084 0.7781 0.0
C752 C 0.62597 0.3326 0.77865 0.0
C753 C 0.58598 0.40535 0.78675 0.0
C754 C 0.7058 0.2853 0.75573 0.0
C755 C 0.68269 0.29304 0.75738 0.0
C756 C 0.64191 0.34374 0.75078 0.0
C757 C 0.59781 0.36627 0.77842 0.0
C758 C 0.61522 0.35098 0.77096 0.0
C759 C 0.67633 0.31618 0.75389 0.0
C760 C 0.65365 0.32632 0.75887 0.0
H761 H 0.55303 0.36316 0.80256 0.0
H762 H 0.57797 0.33769 0.78746 0.0
H763 H 0.61478 0.36991 0.75054 0.0
H764 H 0.72892 0.33472 0.74125 0.0
H765 H 0.68895 0.34851 0.74455 0.0
C766 C 0.6308 0.06171 0.06258 0.0
C767 C 0.60877 0.05501 0.05648 0.0
C768 C 0.64619 0.07541 0.05465 0.0
C769 C 0.64567 0.1198 0.02655 0.0
H770 H 0.71321 0.11052 0.02753 0.0
C771 C 0.70661 0.19073 0.00501 0.0
C772 C 0.72553 0.19675 0.01461 0.0
C773 C 0.69426 0.16974 0.00668 0.0
C774 C 0.6944 0.1134 0.02717 0.0
H775 H 0.58617 0.05674 0.03694 0.0
H776 H 0.61289 0.0812 0.02326 0.0
H777 H 0.68755 0.08055 0.03732 0.0
H778 H 0.74737 0.18458 0.03279 0.0
H779 H 0.72563 0.14846 0.03591 0.0
H780 H 0.65237 0.15311 0.01718 0.0
C781 C 0.61812 0.07584 0.03422 0.0
C782 C 0.67972 0.09621 0.03275 0.0
C783 C 0.60279 0.06194 0.0421 0.0
C784 C 0.73284 0.18056 0.02522 0.0
C785 C 0.72041 0.15969 0.02696 0.0
C786 C 0.66033 0.13708 0.0211 0.0
C787 C 0.63987 0.08292 0.04049 0.0
C788 C 0.65525 0.0995 0.03282 0.0
C789 C 0.70047 0.15438 0.01804 0.0
C790 C 0.68493 0.13438 0.02167 0.0
H791 H 0.63587 0.05708 0.0737 0.0
H792 H 0.66267 0.08092 0.05986 0.0
H793 H 0.62689 0.12294 0.02659 0.0
H794 H 0.70067 0.20269 0.99661 0.0
H795 H 0.67932 0.16596 0.9994 0.0
C796 C 0.96185 0.1212 0.32721 0.0
C797 C 0.97625 0.10691 0.31845 0.0
C798 C 0.94481 0.13552 0.32069 0.0
C799 C 0.91144 0.14196 0.2853 0.0
H800 H 0.89126 0.2005 0.30379 0.0
C801 C 0.84418 0.20383 0.25799 0.0
C802 C 0.82423 0.20815 0.26649 0.0
C803 C 0.86427 0.19376 0.2643 0.0
C804 C 0.89681 0.18418 0.29854 0.0
H805 H 0.98512 0.09698 0.29613 0.0
H806 H 0.95625 0.12284 0.28463 0.0
H807 H 0.92432 0.17893 0.31455 0.0
H808 H 0.81006 0.20635 0.2884 0.0
H809 H 0.84554 0.18923 0.2995 0.0
H810 H 0.8842 0.14765 0.26912 0.0
C811 C 0.95731 0.12241 0.29653 0.0
C812 C 0.91561 0.17171 0.30472 0.0
C813 C 0.97398 0.10773 0.30307 0.0
C814 C 0.82514 0.20313 0.28157 0.0
C815 C 0.84542 0.19346 0.28794 0.0
C816 C 0.89299 0.15466 0.27898 0.0
C817 C 0.94214 0.13616 0.30525 0.0
C818 C 0.92302 0.15027 0.29828 0.0
C819 C 0.86495 0.18826 0.27928 0.0
C820 C 0.88537 0.17573 0.28562 0.0
H821 H 0.96323 0.12064 0.33912 0.0
H822 H 0.93327 0.14549 0.3278 0.0
H823 H 0.91616 0.1253 0.28017 0.0
H824 H 0.844 0.20746 0.24634 0.0
H825 H 0.87919 0.18996 0.25744 0.0
C826 C 0.92281 0.46697 0.53969 0.0
C827 C 0.91579 0.47639 0.55335 0.0
C828 C 0.90987 0.44893 0.53263 0.0
C829 C 0.89088 0.39937 0.52787 0.0
H830 H 0.82299 0.39443 0.52931 0.0
C831 C 0.81895 0.32189 0.53235 0.0
C832 C 0.82764 0.30541 0.52207 0.0
C833 C 0.82717 0.34502 0.53276 0.0
C834 C 0.84196 0.39556 0.52882 0.0
H835 H 0.88926 0.4747 0.57007 0.0
H836 H 0.86673 0.44336 0.55776 0.0
H837 H 0.84224 0.4316 0.53622 0.0
H838 H 0.85075 0.3007 0.50355 0.0
H839 H 0.86494 0.34118 0.5042 0.0
H840 H 0.89079 0.36315 0.5211 0.0
C841 C 0.88204 0.4501 0.55239 0.0
C842 C 0.85296 0.41683 0.53276 0.0
C843 C 0.89499 0.46808 0.55946 0.0
C844 C 0.84383 0.3129 0.5117 0.0
C845 C 0.85205 0.33607 0.51211 0.0
C846 C 0.87989 0.37811 0.52396 0.0
C847 C 0.88961 0.43997 0.53906 0.0
C848 C 0.87759 0.41876 0.53272 0.0
C849 C 0.84424 0.35223 0.52288 0.0
C850 C 0.85536 0.37577 0.52478 0.0
H851 H 0.93854 0.47328 0.53458 0.0
H852 H 0.91596 0.44167 0.52226 0.0
H853 H 0.9099 0.40017 0.52789 0.0
H854 H 0.80641 0.31675 0.54047 0.0
H855 H 0.82097 0.35692 0.54131 0.0
C856 C 0.63672 0.09039 0.44016 0.0
C857 C 0.61879 0.08112 0.4487 0.0
C858 C 0.65268 0.10673 0.44627 0.0
C859 C 0.66174 0.14974 0.47676 0.0
H860 H 0.7279 0.13835 0.47014 0.0
C861 C 0.73559 0.19719 0.51054 0.0
C862 C 0.75647 0.2027 0.5034 0.0
C863 C 0.71796 0.18407 0.50321 0.0
C864 C 0.7095 0.14207 0.4719 0.0
H865 H 0.6034 0.08207 0.47033 0.0
H866 H 0.63115 0.11087 0.48096 0.0
H867 H 0.69853 0.11243 0.45852 0.0
H868 H 0.7748 0.19956 0.48277 0.0
H869 H 0.74383 0.17716 0.46988 0.0
H870 H 0.67268 0.17944 0.49013 0.0
C871 C 0.63273 0.10552 0.4695 0.0
C872 C 0.69268 0.12715 0.46527 0.0
C873 C 0.61683 0.08904 0.4634 0.0
C874 C 0.75902 0.19543 0.48863 0.0
C875 C 0.74132 0.18247 0.48126 0.0
C876 C 0.67857 0.1648 0.48333 0.0
C877 C 0.65096 0.11431 0.46103 0.0
C878 C 0.66865 0.13074 0.4677 0.0
C879 C 0.72073 0.17631 0.48853 0.0
C880 C 0.70267 0.16104 0.48105 0.0
H881 H 0.63842 0.08506 0.4287 0.0
H882 H 0.66634 0.1135 0.43943 0.0
H883 H 0.6433 0.15307 0.47869 0.0
H884 H 0.73309 0.20246 0.52193 0.0
H885 H 0.70248 0.17941 0.5092 0.0
C886 C 0.96136 0.12083 0.68981 0.0
C887 C 0.97639 0.10996 0.70004 0.0
C888 C 0.9443 0.13677 0.69454 0.0
C889 C 0.92704 0.17325 0.72721 0.0
H890 H 0.86711 0.17585 0.70603 0.0
C891 C 0.84585 0.22119 0.74992 0.0
C892 C 0.83577 0.23801 0.74061 0.0
C893 C 0.86262 0.2054 0.74465 0.0
C894 C 0.88383 0.17535 0.71198 0.0
H895 H 0.98537 0.10688 0.72319 0.0
H896 H 0.95498 0.13395 0.73159 0.0
H897 H 0.89726 0.14841 0.6977 0.0
H898 H 0.83477 0.25093 0.71833 0.0
H899 H 0.86372 0.22273 0.709 0.0
H900 H 0.91306 0.19963 0.74179 0.0
C901 C 0.95674 0.13087 0.71987 0.0
C902 C 0.90119 0.15975 0.70718 0.0
C903 C 0.97409 0.11525 0.71509 0.0
C904 C 0.84226 0.2382 0.72577 0.0
C905 C 0.85875 0.22207 0.72043 0.0
C906 C 0.90952 0.1885 0.73214 0.0
C907 C 0.94161 0.14188 0.70965 0.0
C908 C 0.92308 0.15851 0.71472 0.0
C909 C 0.86932 0.20581 0.72989 0.0
C910 C 0.8878 0.18969 0.72456 0.0
H911 H 0.96301 0.11718 0.67811 0.0
H912 H 0.9334 0.14523 0.68631 0.0
H913 H 0.94378 0.17324 0.73313 0.0
H914 H 0.8413 0.22063 0.76142 0.0
H915 H 0.87043 0.19289 0.75212 0.0
C916 C 0.92303 0.42731 0.96027 0.0
C917 C 0.91656 0.43815 0.94703 0.0
C918 C 0.91029 0.40811 0.96518 0.0
C919 C 0.85158 0.38157 0.96178 0.0
H920 H 0.88122 0.32794 0.98011 0.0
C921 C 0.79601 0.30496 0.98137 0.0
C922 C 0.80164 0.29656 0.99544 0.0
C923 C 0.81151 0.31967 0.97427 0.0
C924 C 0.87269 0.34288 0.9751 0.0
H925 H 0.89232 0.43663 0.92824 0.0
H926 H 0.87004 0.40326 0.93685 0.0
H927 H 0.90559 0.3588 0.97004 0.0
H928 H 0.82849 0.29615 0.01279 0.0
H929 H 0.85539 0.32221 1.0005 0.0
H930 H 0.81875 0.36614 0.96709 0.0
C931 C 0.88471 0.40985 0.94355 0.0
C932 C 0.88664 0.36053 0.96933 0.0
C933 C 0.89745 0.429 0.93864 0.0
C934 C 0.82363 0.30231 0.00195 0.0
C935 C 0.8391 0.31718 0.99487 0.0
C936 C 0.83767 0.36402 0.96757 0.0
C937 C 0.89081 0.39937 0.95696 0.0
C938 C 0.87622 0.38011 0.96266 0.0
C939 C 0.83295 0.3265 0.9811 0.0
C940 C 0.84802 0.34449 0.97435 0.0
H941 H 0.93751 0.43409 0.96707 0.0
H942 H 0.91526 0.40059 0.97564 0.0
H943 H 0.843 0.39664 0.95695 0.0
H944 H 0.77931 0.30067 0.97597 0.0
H945 H 0.80646 0.32609 0.96352 0.0
C946 C 0.58876 0.40149 0.22157 0.0
C947 C 0.5943 0.42166 0.21372 0.0
C948 C 0.60629 0.38944 0.22933 0.0
C949 C 0.66893 0.37779 0.22769 0.0
H950 H 0.66062 0.34852 0.26532 0.0
C951 C 0.7376 0.31289 0.24846 0.0
C952 C 0.72849 0.29183 0.25372 0.0
C953 C 0.72325 0.33267 0.24712 0.0
C954 C 0.66319 0.35651 0.25478 0.0
H955 H 0.6224 0.44542 0.20821 0.0
H956 H 0.653 0.42437 0.22178 0.0
H957 H 0.63092 0.37587 0.25608 0.0
H958 H 0.69772 0.2754 0.26265 0.0
H959 H 0.67244 0.30951 0.25979 0.0
H960 H 0.70035 0.35769 0.22585 0.0
C961 C 0.6351 0.41788 0.2219 0.0
C962 C 0.64621 0.3722 0.24952 0.0
C963 C 0.61756 0.43001 0.21422 0.0
C964 C 0.70524 0.29141 0.25857 0.0
C965 C 0.69076 0.31107 0.25698 0.0
C966 C 0.68574 0.36197 0.23285 0.0
C967 C 0.62973 0.39723 0.22931 0.0
C968 C 0.64874 0.38268 0.2358 0.0
C969 C 0.69935 0.33166 0.25071 0.0
C970 C 0.68292 0.35078 0.24634 0.0
H971 H 0.57093 0.3948 0.2215 0.0
H972 H 0.60165 0.37346 0.23483 0.0
H973 H 0.6712 0.38529 0.21697 0.0
H974 H 0.75558 0.31383 0.24484 0.0
H975 H 0.73066 0.34844 0.24266 0.0
C976 C 0.12909 0.91839 0.38812 0.0
C977 C 0.12155 0.94014 0.39398 0.0
C978 C 0.14035 0.90209 0.39716 0.0
C979 C 0.14724 0.88578 0.43604 0.0
H980 H 0.20404 0.85445 0.4233 0.0
C981 C 0.20832 0.83679 0.47628 0.0
C982 C 0.21921 0.81597 0.47133 0.0
C983 C 0.19533 0.85055 0.46652 0.0
C984 C 0.18799 0.86276 0.42694 0.0
H985 H 0.11963 0.96171 0.41393 0.0
H986 H 0.13945 0.93342 0.42965 0.0
H987 H 0.18345 0.88105 0.40673 0.0
H988 H 0.22458 0.79308 0.45224 0.0
H989 H 0.20158 0.81697 0.43524 0.0
H990 H 0.15172 0.8676 0.45624 0.0
C991 C 0.13657 0.9289 0.41809 0.0
C992 C 0.17623 0.87802 0.41745 0.0
C993 C 0.12547 0.94522 0.40905 0.0
C994 C 0.21649 0.80906 0.45641 0.0
C995 C 0.20343 0.82283 0.44665 0.0
C996 C 0.15892 0.87046 0.4455 0.0
C997 C 0.1441 0.90715 0.41226 0.0
C998 C 0.1559 0.88993 0.42197 0.0
C999 C 0.19281 0.84382 0.45157 0.0
C1000 C 0.17961 0.85899 0.44114 0.0
H1001 H 0.12642 0.91405 0.37652 0.0
H1002 H 0.14585 0.88541 0.39238 0.0
H1003 H 0.13137 0.89437 0.43973 0.0
H1004 H 0.21012 0.84271 0.48767 0.0
H1005 H 0.1877 0.86679 0.47065 0.0
C1006 C 0.07284 0.63821 0.64755 0.0
C1007 C 0.06489 0.61541 0.6502 0.0
C1008 C 0.08854 0.64947 0.65747 0.0
C1009 C 0.12992 0.63707 0.68887 0.0
H1010 H 0.12746 0.70475 0.69485 0.0
C1011 C 0.17832 0.688 0.73653 0.0
C1012 C 0.19301 0.70625 0.73208 0.0
C1013 C 0.16282 0.67691 0.72643 0.0
C1014 C 0.12835 0.68584 0.69321 0.0
H1015 H 0.06634 0.58664 0.66533 0.0
H1016 H 0.09277 0.60658 0.68305 0.0
H1017 H 0.09951 0.68547 0.67773 0.0
H1018 H 0.20273 0.72747 0.71366 0.0
H1019 H 0.17505 0.70844 0.69609 0.0
H1020 H 0.15824 0.63758 0.70487 0.0
C1021 C 0.08777 0.61558 0.6731 0.0
C1022 C 0.11246 0.67476 0.68334 0.0
C1023 C 0.07248 0.60417 0.66302 0.0
C1024 C 0.19171 0.71337 0.71738 0.0
C1025 C 0.17583 0.70261 0.70735 0.0
C1026 C 0.14547 0.64812 0.69895 0.0
C1027 C 0.09623 0.63831 0.6704 0.0
C1028 C 0.11306 0.6502 0.68099 0.0
C1029 C 0.16138 0.68421 0.71179 0.0
C1030 C 0.14485 0.67258 0.70116 0.0
H1031 H 0.06732 0.64709 0.63764 0.0
H1032 H 0.09493 0.66675 0.65484 0.0
H1033 H 0.13137 0.61823 0.68715 0.0
H1034 H 0.17897 0.68212 0.74779 0.0
H1035 H 0.15174 0.66281 0.73008 0.0
C1036 C 0.44785 0.56092 0.90315 0.0
C1037 C 0.44179 0.5574 0.88819 0.0
C1038 C 0.43507 0.5766 0.91192 0.0
C1039 C 0.37765 0.60738 0.91331 0.0
H1040 H 0.40916 0.6445 0.94424 0.0
C1041 C 0.33074 0.6799 0.94739 0.0
C1042 C 0.33445 0.67923 0.96273 0.0
C1043 C 0.3441 0.66578 0.93796 0.0
C1044 C 0.40013 0.63414 0.93569 0.0
H1045 H 0.41807 0.56794 0.87055 0.0
H1046 H 0.39606 0.59573 0.88574 0.0
H1047 H 0.43217 0.61884 0.92824 0.0
H1048 H 0.35528 0.66337 0.98018 0.0
H1049 H 0.37871 0.63894 0.96369 0.0
H1050 H 0.34563 0.623 0.92072 0.0
C1051 C 0.41027 0.58596 0.89084 0.0
C1052 C 0.41328 0.61937 0.92655 0.0
C1053 C 0.42291 0.5701 0.88211 0.0
C1054 C 0.35197 0.66432 0.96842 0.0
C1055 C 0.36549 0.65042 0.95898 0.0
C1056 C 0.36454 0.62234 0.92237 0.0
C1057 C 0.41608 0.58929 0.90589 0.0
C1058 C 0.40219 0.60564 0.91531 0.0
C1059 C 0.36161 0.65092 0.94367 0.0
C1060 C 0.37563 0.63572 0.93372 0.0
H1061 H 0.46215 0.55114 0.90815 0.0
H1062 H 0.43981 0.57838 0.92351 0.0
H1063 H 0.36845 0.5968 0.90495 0.0
H1064 H 0.31736 0.69117 0.94266 0.0
H1065 H 0.34087 0.66663 0.92618 0.0
C1066 C 0.4494 0.93956 0.16434 0.0
C1067 C 0.4515 0.93163 0.14964 0.0
C1068 C 0.43499 0.92774 0.17397 0.0
C1069 C 0.40815 0.87036 0.18024 0.0
H1070 H 0.36731 0.90605 0.20605 0.0
C1071 C 0.34366 0.82476 0.21866 0.0
C1072 C 0.34142 0.83461 0.2329 0.0
C1073 C 0.35583 0.83673 0.20793 0.0
C1074 C 0.37879 0.89581 0.19904 0.0
H1075 H 0.43985 0.90503 0.13356 0.0
H1076 H 0.41502 0.88414 0.15049 0.0
H1077 H 0.3912 0.92654 0.18848 0.0
H1078 H 0.35014 0.86482 0.24702 0.0
H1079 H 0.37173 0.88542 0.22846 0.0
H1080 H 0.3962 0.83967 0.19098 0.0
C1081 C 0.42465 0.8995 0.15453 0.0
C1082 C 0.39244 0.90757 0.18895 0.0
C1083 C 0.43894 0.91144 0.14485 0.0
C1084 C 0.35142 0.85678 0.23613 0.0
C1085 C 0.36371 0.86867 0.22545 0.0
C1086 C 0.39463 0.8586 0.19041 0.0
C1087 C 0.42247 0.90759 0.16918 0.0
C1088 C 0.40737 0.89499 0.17951 0.0
C1089 C 0.36617 0.85877 0.21122 0.0
C1090 C 0.37988 0.87119 0.20001 0.0
H1091 H 0.45917 0.95475 0.16852 0.0
H1092 H 0.43397 0.93417 0.18526 0.0
H1093 H 0.41969 0.86022 0.17322 0.0
H1094 H 0.33606 0.80776 0.21578 0.0
H1095 H 0.35705 0.82873 0.19704 0.0
C1096 C 0.04131 0.62991 0.87097 0.0
C1097 C 0.04962 0.62282 0.88489 0.0
C1098 C 0.05542 0.64333 0.86202 0.0
C1099 C 0.11705 0.65576 0.85474 0.0
H1100 H 0.09139 0.70732 0.83231 0.0
C1101 C 0.17449 0.70873 0.81579 0.0
C1102 C 0.16424 0.71448 0.80211 0.0
C1103 C 0.16076 0.69974 0.82691 0.0
C1104 C 0.09879 0.69283 0.83839 0.0
H1105 H 0.07917 0.62497 0.90041 0.0
H1106 H 0.10397 0.64809 0.8846 0.0
H1107 H 0.06688 0.6877 0.84995 0.0
H1108 H 0.13146 0.71555 0.78946 0.0
H1109 H 0.10764 0.69942 0.80869 0.0
H1110 H 0.14871 0.66034 0.84291 0.0
C1111 C 0.08652 0.64308 0.88065 0.0
C1112 C 0.08475 0.68165 0.84853 0.0
C1113 C 0.07233 0.62979 0.88968 0.0
C1114 C 0.13991 0.71138 0.79989 0.0
C1115 C 0.1262 0.70226 0.81097 0.0
C1116 C 0.13105 0.66683 0.84453 0.0
C1117 C 0.07826 0.64985 0.86668 0.0
C1118 C 0.09365 0.66283 0.85669 0.0
C1119 C 0.13647 0.69615 0.82459 0.0
C1120 C 0.12202 0.68534 0.8361 0.0
H1121 H 0.02414 0.6245 0.86677 0.0
H1122 H 0.04869 0.64796 0.85122 0.0
H1123 H 0.12431 0.64111 0.86073 0.0
H1124 H 0.19318 0.71105 0.8179 0.0
H1125 H 0.1692 0.69559 0.83733 0.0
C1126 C 0.4473 0.56217 0.1079 0.0
C1127 C 0.43756 0.54363 0.11566 0.0
C1128 C 0.43348 0.57485 0.09796 0.0
C1129 C 0.37801 0.5714 0.07581 0.0
H1130 H 0.38805 0.63846 0.07254 0.0
C1131 C 0.33828 0.62439 0.02789 0.0
C1132 C 0.33098 0.64759 0.03083 0.0
C1133 C 0.35002 0.61157 0.03873 0.0
C1134 C 0.38478 0.6198 0.07342 0.0
H1135 H 0.40562 0.52405 0.11931 0.0
H1136 H 0.38135 0.54641 0.10213 0.0
H1137 H 0.41059 0.61671 0.09075 0.0
H1138 H 0.32967 0.6753 0.04762 0.0
H1139 H 0.34966 0.65278 0.06664 0.0
H1140 H 0.35178 0.57461 0.05872 0.0
C1141 C 0.3998 0.55086 0.10347 0.0
C1142 C 0.39798 0.60725 0.08373 0.0
C1143 C 0.41367 0.53808 0.11334 0.0
C1144 C 0.33521 0.65752 0.04496 0.0
C1145 C 0.34681 0.64465 0.05585 0.0
C1146 C 0.36471 0.58398 0.06555 0.0
C1147 C 0.40954 0.56939 0.09563 0.0
C1148 C 0.39491 0.58285 0.08498 0.0
C1149 C 0.35461 0.6216 0.05282 0.0
C1150 C 0.36805 0.60832 0.06414 0.0
H1151 H 0.46574 0.56663 0.10931 0.0
H1152 H 0.4417 0.58869 0.09192 0.0
H1153 H 0.37532 0.5526 0.07636 0.0
H1154 H 0.33539 0.61625 0.01709 0.0
H1155 H 0.35605 0.59401 0.03593 0.0
C1156 C 0.4679 0.91057 0.36055 0.0
C1157 C 0.46524 0.91252 0.37586 0.0
C1158 C 0.45344 0.89559 0.35198 0.0
C1159 C 0.3965 0.86443 0.35196 0.0
H1160 H 0.42316 0.82967 0.3191 0.0
C1161 C 0.34287 0.79731 0.31592 0.0
C1162 C 0.34506 0.7994 0.30061 0.0
C1163 C 0.35793 0.80972 0.3257 0.0
C1164 C 0.41546 0.83936 0.32819 0.0
H1165 H 0.4454 0.90022 0.39424 0.0
H1166 H 0.42018 0.87378 0.37927 0.0
H1167 H 0.44864 0.85383 0.33523 0.0
H1168 H 0.36501 0.81592 0.2836 0.0
H1169 H 0.39128 0.83743 0.30066 0.0
H1170 H 0.36329 0.84988 0.34486 0.0
C1171 C 0.43326 0.88412 0.37386 0.0
C1172 C 0.43002 0.85325 0.33742 0.0
C1173 C 0.4477 0.89923 0.38244 0.0
C1174 C 0.36285 0.81388 0.29531 0.0
C1175 C 0.37799 0.82612 0.30508 0.0
C1176 C 0.38194 0.85041 0.34277 0.0
C1177 C 0.43601 0.88209 0.35853 0.0
C1178 C 0.42068 0.86621 0.34929 0.0
C1179 C 0.3756 0.82429 0.32037 0.0
C1180 C 0.39123 0.83799 0.33067 0.0
H1181 H 0.48097 0.92093 0.35512 0.0
H1182 H 0.45571 0.89488 0.34018 0.0
H1183 H 0.38868 0.87439 0.3609 0.0
H1184 H 0.32934 0.78632 0.32036 0.0
H1185 H 0.35582 0.80783 0.33743 0.0
C1186 C 0.16062 0.96257 0.62759 0.0
C1187 C 0.14273 0.95157 0.63533 0.0
C1188 C 0.17421 0.94965 0.61764 0.0
C1189 C 0.17105 0.89552 0.59454 0.0
H1190 H 0.23718 0.90757 0.58849 0.0
C1191 C 0.22471 0.83853 0.55456 0.0
C1192 C 0.23959 0.8503 0.54502 0.0
C1193 C 0.21441 0.85055 0.56632 0.0
C1194 C 0.21867 0.90416 0.58999 0.0
H1195 H 0.126 0.9182 0.63938 0.0
H1196 H 0.1499 0.89557 0.62219 0.0
H1197 H 0.21685 0.92878 0.60816 0.0
H1198 H 0.25575 0.88387 0.54062 0.0
H1199 H 0.23756 0.90494 0.56118 0.0
H1200 H 0.17277 0.87105 0.57637 0.0
C1201 C 0.15305 0.91429 0.62351 0.0
C1202 C 0.20702 0.91628 0.60125 0.0
C1203 C 0.13941 0.92722 0.6334 0.0
C1204 C 0.24434 0.87429 0.54774 0.0
C1205 C 0.23404 0.88634 0.55956 0.0
C1206 C 0.18268 0.88339 0.58334 0.0
C1207 C 0.17026 0.92544 0.61526 0.0
C1208 C 0.18305 0.91211 0.60365 0.0
C1209 C 0.21872 0.87464 0.56887 0.0
C1210 C 0.20661 0.88755 0.58092 0.0
H1211 H 0.16342 0.98137 0.62873 0.0
H1212 H 0.18713 0.95885 0.61137 0.0
H1213 H 0.15247 0.89225 0.59584 0.0
H1214 H 0.22078 0.82002 0.55287 0.0
H1215 H 0.203 0.84094 0.57343 0.0
C1216 C 0.59391 0.4168 0.89933 0.0
C1217 C 0.58603 0.40567 0.88612 0.0
C1218 C 0.6077 0.40472 0.90953 0.0
C1219 C 0.62168 0.34602 0.92254 0.0
H1220 H 0.67612 0.37724 0.94054 0.0
C1221 C 0.68352 0.30103 0.96518 0.0
C1222 C 0.69208 0.31524 0.977 0.0
C1223 C 0.67099 0.31098 0.95343 0.0
C1224 C 0.66083 0.36835 0.93576 0.0
H1225 H 0.58657 0.37291 0.87337 0.0
H1226 H 0.61035 0.35162 0.89146 0.0
H1227 H 0.65377 0.39651 0.9211 0.0
H1228 H 0.69361 0.35091 0.98596 0.0
H1229 H 0.67139 0.36811 0.96577 0.0
H1230 H 0.62839 0.31809 0.93747 0.0
C1231 C 0.60579 0.36979 0.8938 0.0
C1232 C 0.64809 0.37937 0.92457 0.0
C1233 C 0.59213 0.38198 0.88347 0.0
C1234 C 0.68745 0.33948 0.97697 0.0
C1235 C 0.67484 0.34938 0.96531 0.0
C1236 C 0.63435 0.33503 0.93384 0.0
C1237 C 0.61378 0.38111 0.9069 0.0
C1238 C 0.62821 0.36848 0.91798 0.0
C1239 C 0.66668 0.33533 0.95331 0.0
C1240 C 0.65388 0.34623 0.94073 0.0
H1241 H 0.58907 0.43479 0.90197 0.0
H1242 H 0.61322 0.41377 0.91966 0.0
H1243 H 0.60631 0.3373 0.91772 0.0
H1244 H 0.68687 0.28228 0.96485 0.0
H1245 H 0.66513 0.29966 0.94432 0.0
C1246 C 0.61504 0.06186 0.15656 0.0
C1247 C 0.61332 0.06517 0.14129 0.0
C1248 C 0.6295 0.07632 0.16547 0.0
C1249 C 0.68034 0.11612 0.16504 0.0
H1250 H 0.65522 0.13997 0.20181 0.0
C1251 C 0.72857 0.1859 0.20221 0.0
C1252 C 0.7274 0.18332 0.21753 0.0
C1253 C 0.71528 0.17137 0.19257 0.0
C1254 C 0.66264 0.13323 0.19168 0.0
H1255 H 0.62577 0.08595 0.12336 0.0
H1256 H 0.65106 0.11139 0.13902 0.0
H1257 H 0.63093 0.11492 0.18556 0.0
H1258 H 0.71186 0.16298 0.23472 0.0
H1259 H 0.68911 0.1374 0.21794 0.0
H1260 H 0.71215 0.1343 0.17125 0.0
C1261 C 0.64123 0.09752 0.14404 0.0
C1262 C 0.64868 0.11891 0.18236 0.0
C1263 C 0.62662 0.0831 0.1351 0.0
C1264 C 0.71305 0.16557 0.22298 0.0
C1265 C 0.69987 0.15099 0.21336 0.0
C1266 C 0.69437 0.13039 0.17442 0.0
C1267 C 0.64264 0.09438 0.15934 0.0
C1268 C 0.65741 0.11009 0.16899 0.0
C1269 C 0.7006 0.15388 0.19805 0.0
C1270 C 0.68572 0.13899 0.1879 0.0
H1271 H 0.60482 0.04838 0.16168 0.0
H1272 H 0.63043 0.07331 0.1772 0.0
H1273 H 0.6876 0.1094 0.15486 0.0
H1274 H 0.7394 0.19945 0.19764 0.0
H1275 H 0.71608 0.17422 0.18085 0.0
C1276 C 0.0004 0.11101 0.41497 0.0
C1277 C 0.99188 0.10592 0.40058 0.0
C1278 C 0.98777 0.1257 0.42446 0.0
C1279 C 0.92805 0.14616 0.43139 0.0
H1280 H 0.95906 0.19382 0.45616 0.0
C1281 C 0.87546 0.20604 0.47064 0.0
C1282 C 0.88538 0.21039 0.48476 0.0
C1283 C 0.88879 0.19555 0.45955 0.0
C1284 C 0.95015 0.18044 0.44943 0.0
H1285 H 0.96368 0.11293 0.38478 0.0
H1286 H 0.94143 0.13818 0.40149 0.0
H1287 H 0.98181 0.17102 0.4384 0.0
H1288 H 0.91722 0.20759 0.49821 0.0
H1289 H 0.94026 0.18882 0.47901 0.0
H1290 H 0.89657 0.15495 0.44265 0.0
C1291 C 0.95783 0.13064 0.40541 0.0
C1292 C 0.96319 0.16744 0.43923 0.0
C1293 C 0.97055 0.1161 0.39587 0.0
C1294 C 0.90907 0.20456 0.48744 0.0
C1295 C 0.92233 0.19389 0.47638 0.0
C1296 C 0.91505 0.15901 0.44166 0.0
C1297 C 0.96625 0.13549 0.41983 0.0
C1298 C 0.95229 0.15006 0.43018 0.0
C1299 C 0.91229 0.18899 0.46234 0.0
C1300 C 0.92596 0.17621 0.45089 0.0
H1301 H 0.01655 0.1032 0.41905 0.0
H1302 H 0.99453 0.12887 0.43558 0.0
H1303 H 0.91924 0.13267 0.4247 0.0
H1304 H 0.85731 0.2105 0.46819 0.0
H1305 H 0.8806 0.19246 0.44879 0.0
C1306 C 0.89512 0.46128 0.63099 0.0
C1307 C 0.90284 0.48354 0.63621 0.0
C1308 C 0.88197 0.44679 0.63991 0.0
C1309 C 0.84509 0.44683 0.67278 0.0
H1310 H 0.86664 0.38256 0.67658 0.0
C1311 C 0.81724 0.38892 0.7206 0.0
C1312 C 0.81443 0.36462 0.71799 0.0
C1313 C 0.82581 0.40325 0.70965 0.0
C1314 C 0.86005 0.4003 0.67547 0.0
H1315 H 0.90236 0.50802 0.65492 0.0
H1316 H 0.87907 0.48296 0.67029 0.0
H1317 H 0.88503 0.40798 0.65898 0.0
H1318 H 0.81774 0.33643 0.70167 0.0
H1319 H 0.83216 0.3615 0.68245 0.0
H1320 H 0.82011 0.43924 0.68925 0.0
C1321 C 0.88311 0.4768 0.65926 0.0
C1322 C 0.87066 0.41488 0.66539 0.0
C1323 C 0.89642 0.4912 0.6504 0.0
C1324 C 0.81986 0.35506 0.70407 0.0
C1325 C 0.82827 0.36944 0.69307 0.0
C1326 C 0.83433 0.43219 0.68277 0.0
C1327 C 0.87604 0.45431 0.6542 0.0
C1328 C 0.86351 0.43839 0.66408 0.0
C1329 C 0.83161 0.39369 0.69578 0.0
C1330 C 0.8419 0.40882 0.68441 0.0
H1331 H 0.89934 0.45496 0.62003 0.0
H1332 H 0.8765 0.42965 0.63565 0.0
H1333 H 0.83902 0.46479 0.67187 0.0
H1334 H 0.81332 0.39685 0.73122 0.0
H1335 H 0.8285 0.42175 0.71225 0.0
C1336 C 0.58897 0.09323 0.36254 0.0
C1337 C 0.60125 0.07467 0.36916 0.0
C1338 C 0.60042 0.10843 0.35319 0.0
C1339 C 0.65909 0.13015 0.34373 0.0
H1340 H 0.62876 0.1456 0.30654 0.0
C1341 C 0.70871 0.17529 0.29745 0.0
C1342 C 0.69651 0.19173 0.28886 0.0
C1343 C 0.69693 0.16211 0.30776 0.0
C1344 C 0.63735 0.14179 0.31697 0.0
H1345 H 0.63526 0.0578 0.37142 0.0
H1346 H 0.65524 0.08427 0.35503 0.0
H1347 H 0.60848 0.12067 0.32361 0.0
H1348 H 0.66243 0.20762 0.28464 0.0
H1349 H 0.64197 0.18498 0.30285 0.0
H1350 H 0.68792 0.1513 0.33715 0.0
C1351 C 0.63678 0.0871 0.35711 0.0
C1352 C 0.62572 0.12745 0.32675 0.0
C1353 C 0.62529 0.07181 0.36637 0.0
C1354 C 0.67233 0.195 0.29102 0.0
C1355 C 0.66057 0.1819 0.3014 0.0
C1356 C 0.67066 0.1446 0.334 0.0
C1357 C 0.62444 0.1055 0.35035 0.0
C1358 C 0.63653 0.12134 0.34019 0.0
C1359 C 0.67267 0.16514 0.30982 0.0
C1360 C 0.66001 0.15048 0.32044 0.0
H1361 H 0.5704 0.09578 0.36439 0.0
H1362 H 0.5905 0.12256 0.34824 0.0
H1363 H 0.66773 0.12602 0.3541 0.0
H1364 H 0.72732 0.17225 0.29603 0.0
H1365 H 0.70676 0.14913 0.31389 0.0
C1366 C 0.96036 0.08933 0.62553 0.0
C1367 C 0.98466 0.09198 0.62391 0.0
C1368 C 0.94454 0.10215 0.61691 0.0
C1369 C 0.94135 0.15407 0.59262 0.0
H1370 H 0.88155 0.12625 0.5804 0.0
C1371 C 0.87923 0.19265 0.54804 0.0
C1372 C 0.85585 0.19614 0.55228 0.0
C1373 C 0.89487 0.18005 0.55691 0.0
C1374 C 0.89815 0.13423 0.58382 0.0
H1375 H 0.01164 0.10963 0.61192 0.0
H1376 H 0.98413 0.13127 0.59634 0.0
H1377 H 0.90926 0.1037 0.59529 0.0
H1378 H 0.83044 0.18886 0.56901 0.0
H1379 H 0.85776 0.16622 0.58433 0.0
H1380 H 0.93035 0.18428 0.5806 0.0
C1381 C 0.97713 0.11997 0.60459 0.0
C1382 C 0.91401 0.12141 0.59242 0.0
C1383 C 0.99293 0.10747 0.61343 0.0
C1384 C 0.84837 0.18651 0.56549 0.0
C1385 C 0.86391 0.17351 0.57421 0.0
C1386 C 0.92565 0.16669 0.58379 0.0
C1387 C 0.95269 0.11759 0.60626 0.0
C1388 C 0.93582 0.13118 0.59699 0.0
C1389 C 0.88732 0.17032 0.57003 0.0
C1390 C 0.90391 0.15691 0.57936 0.0
H1391 H 0.95361 0.07767 0.63369 0.0
H1392 H 0.92593 0.10017 0.61876 0.0
H1393 H 0.95768 0.16244 0.59615 0.0
H1394 H 0.88553 0.19992 0.53795 0.0
H1395 H 0.91282 0.17769 0.55343 0.0
C1396 C 0.92406 0.45965 0.85616 0.0
C1397 C 0.91326 0.46676 0.86927 0.0
C1398 C 0.91221 0.44488 0.84597 0.0
C1399 C 0.86922 0.39849 0.84322 0.0
H1400 H 0.86171 0.41479 0.80218 0.0
C1401 C 0.81648 0.33921 0.80212 0.0
C1402 C 0.82399 0.33749 0.78752 0.0
C1403 C 0.82655 0.35572 0.812 0.0
C1404 C 0.86397 0.40973 0.81354 0.0
H1405 H 0.88185 0.46414 0.88214 0.0
H1406 H 0.86128 0.43762 0.86442 0.0
H1407 H 0.88109 0.44228 0.81956 0.0
H1408 H 0.84813 0.35147 0.77183 0.0
H1409 H 0.86655 0.37948 0.7892 0.0
H1410 H 0.85319 0.36559 0.83728 0.0
C1411 C 0.87876 0.44375 0.86199 0.0
C1412 C 0.87491 0.4256 0.82349 0.0
C1413 C 0.89043 0.45892 0.87205 0.0
C1414 C 0.84188 0.35251 0.78301 0.0
C1415 C 0.8523 0.36871 0.79296 0.0
C1416 C 0.85869 0.38242 0.83324 0.0
C1417 C 0.88958 0.43662 0.84888 0.0
C1418 C 0.87757 0.42011 0.8384 0.0
C1419 C 0.84474 0.3706 0.8076 0.0
C1420 C 0.85587 0.38782 0.81825 0.0
H1421 H 0.94165 0.46557 0.8538 0.0
H1422 H 0.92092 0.43949 0.83596 0.0
H1423 H 0.87135 0.3938 0.85467 0.0
H1424 H 0.80251 0.32805 0.80587 0.0
H1425 H 0.81984 0.35694 0.82304 0.0
C1426 C 0.59276 0.38077 0.12718 0.0
C1427 C 0.59595 0.40508 0.12961 0.0
C1428 C 0.60809 0.36796 0.11827 0.0
C1429 C 0.6667 0.36939 0.10153 0.0
H1430 H 0.63802 0.32633 0.07262 0.0
C1431 C 0.72057 0.30722 0.06369 0.0
C1432 C 0.71286 0.30498 0.04889 0.0
C1433 C 0.70707 0.31948 0.07399 0.0
C1434 C 0.64629 0.33837 0.08058 0.0
H1435 H 0.61804 0.43488 0.12477 0.0
H1436 H 0.64486 0.41248 0.1093 0.0
H1437 H 0.61338 0.34731 0.09013 0.0
H1438 H 0.68511 0.31429 0.03329 0.0
H1439 H 0.66169 0.33573 0.05125 0.0
H1440 H 0.69959 0.36072 0.09174 0.0
C1441 C 0.63062 0.4033 0.11441 0.0
C1442 C 0.63221 0.35017 0.09073 0.0
C1443 C 0.61525 0.41613 0.12329 0.0
C1444 C 0.69154 0.31557 0.0446 0.0
C1445 C 0.67803 0.32775 0.05491 0.0
C1446 C 0.68082 0.35748 0.0914 0.0
C1447 C 0.62699 0.37914 0.11162 0.0
C1448 C 0.64222 0.36591 0.10127 0.0
C1449 C 0.68554 0.32967 0.06974 0.0
C1450 C 0.67073 0.34198 0.08074 0.0
H1451 H 0.57831 0.37165 0.1321 0.0
H1452 H 0.60508 0.34929 0.11653 0.0
H1453 H 0.67494 0.38127 0.10959 0.0
H1454 H 0.7369 0.29927 0.06737 0.0
H1455 H 0.71324 0.32052 0.08536 0.0
loop_
_geom_bond_atom_site_label_1
_geom_bond_atom_site_label_2
_geom_bond_distance
_geom_bond_site_symmetry_2
_ccdc_geom_bond_type
H0 C19 0.949 . S
H1 C20 0.950 . S
H2 C22 0.950 . S
H3 C23 0.950 . S
H4 C25 0.950 . S
H5 C28 0.950 . S
H6 C29 0.950 . S
H7 C31 0.951 . S
H8 C32 0.948 1_455 S
H9 C34 0.949 . S
H10 C35 0.950 . S
H11 C37 0.950 . S
H12 C38 0.950 . S
H13 C40 0.955 . S
H14 C43 0.950 . S
H15 C44 0.950 . S
H16 C46 0.951 . S
H17 C47 0.949 1_545 S
C18 C19 1.376 . S
C18 C23 1.386 1_455 S
C18 C24 1.483 . S
C19 H0 0.949 . S
C19 C18 1.376 . S
C19 C20 1.397 . S
C20 H1 0.950 . S
C20 C19 1.397 . S
C20 C21 1.391 1_455 S
C21 C20 1.391 1_655 S
C21 C22 1.405 . S
C22 H2 0.950 . S
C22 C21 1.405 . S
C22 C23 1.367 . S
C23 H3 0.950 . S
C23 C18 1.386 1_655 S
C23 C22 1.367 . S
C24 C18 1.483 . S
C24 C25 1.382 . S
C24 C26 1.403 . S
C25 H4 0.950 . S
C25 C24 1.382 . S
C25 C41 1.411 1_545 S
C26 C24 1.403 . S
C26 C27 1.489 . S
C26 C40 1.411 . S
C27 C26 1.489 . S
C27 C28 1.383 . S
C27 C32 1.382 1_455 S
C28 H5 0.950 . S
C28 C27 1.383 . S
C28 C29 1.395 1_455 S
C29 H6 0.950 . S
C29 C28 1.395 1_655 S
C29 C30 1.288 . S
C30 C29 1.288 . S
C30 C31 1.392 . S
C31 H7 0.951 . S
C31 C30 1.392 . S
C31 C32 1.392 . S
C32 H8 0.948 1_655 S
C32 C27 1.382 1_655 S
C32 C31 1.392 . S
C33 C34 1.376 . S
C33 C38 1.386 . S
C33 C39 1.483 . S
C34 H9 0.949 . S
C34 C33 1.376 . S
C34 C35 1.397 . S
C35 H10 0.950 . S
C35 C34 1.397 . S
C35 C36 1.391 . S
C36 C35 1.391 . S
C36 C37 1.405 . S
C37 H11 0.950 . S
C37 C36 1.405 . S
C37 C38 1.367 . S
C38 H12 0.950 . S
C38 C33 1.386 . S
C38 C37 1.367 . S
C39 C33 1.483 . S
C39 C40 1.382 1_565 S
C39 C41 1.403 . S
C40 H13 0.955 . S
C40 C26 1.411 . S
C40 C39 1.382 1_545 S
C41 C25 1.411 1_565 S
C41 C39 1.403 . S
C41 C42 1.489 . S
C42 C41 1.489 . S
C42 C43 1.383 . S
C42 C47 1.382 . S
C43 H14 0.950 . S
C43 C42 1.383 . S
C43 C44 1.395 . S
C44 H15 0.950 . S
C44 C43 1.395 . S
C44 C45 1.288 . S
C45 C44 1.288 . S
C45 C46 1.392 . S
C46 H16 0.951 . S
C46 C45 1.392 . S
C46 C47 1.392 . S
C47 H17 0.949 1_565 S
C47 C42 1.382 . S
C47 C46 1.392 . S
H48 C67 0.949 1_455 S
H49 C68 0.950 . S
H50 C70 0.950 . S
H51 C71 0.950 . S
H52 C73 0.950 . S
H53 C76 0.950 . S
H54 C77 0.950 . S
H55 C79 0.951 . S
H56 C80 0.949 . S
H57 C82 0.949 . S
H58 C83 0.950 . S
H59 C85 0.950 . S
H60 C86 0.950 . S
H61 C88 0.950 . S
H62 C91 0.950 . S
H63 C92 0.950 . S
H64 C94 0.951 . S
H65 C95 0.949 . S
C66 C67 1.376 . S
C66 C71 1.386 . S
C66 C72 1.483 . S
C67 H48 0.949 1_655 S
C67 C66 1.376 . S
C67 C68 1.397 . S
C68 H49 0.950 . S
C68 C67 1.397 . S
C68 C69 1.391 . S
C69 C68 1.391 . S
C69 C70 1.405 . S
C70 H50 0.950 . S
C70 C69 1.405 . S
C70 C71 1.367 . S
C71 H51 0.950 . S
C71 C66 1.386 . S
C71 C70 1.367 . S
C72 C66 1.483 . S
C72 C73 1.382 1_655 S
C72 C74 1.403 . S
C73 H52 0.950 . S
C73 C72 1.382 1_455 S
C73 C89 1.411 . S
C74 C72 1.403 . S
C74 C75 1.489 . S
C74 C88 1.411 1_655 S
C75 C74 1.489 . S
C75 C76 1.383 . S
C75 C80 1.382 . S
C76 H53 0.950 . S
C76 C75 1.383 . S
C76 C77 1.395 . S
C77 H54 0.950 . S
C77 C76 1.395 . S
C77 C78 1.288 . S
C78 C77 1.288 . S
C78 C79 1.392 . S
C79 H55 0.951 . S
C79 C78 1.392 . S
C79 C80 1.392 . S
C80 H56 0.949 . S
C80 C75 1.382 . S
C80 C79 1.392 . S
C81 C82 1.376 . S
C81 C86 1.386 . S
C81 C87 1.483 . S
C82 H57 0.949 . S
C82 C81 1.376 . S
C82 C83 1.397 . S
C83 H58 0.950 . S
C83 C82 1.397 . S
C83 C84 1.391 . S
C84 C83 1.391 . S
C84 C85 1.405 . S
C85 H59 0.950 . S
C85 C84 1.405 . S
C85 C86 1.367 . S
C86 H60 0.950 . S
C86 C81 1.386 . S
C86 C85 1.367 . S
C87 C81 1.483 . S
C87 C88 1.382 . S
C87 C89 1.403 . S
C88 H61 0.950 . S
C88 C74 1.411 1_455 S
C88 C87 1.382 . S
C89 C73 1.411 . S
C89 C87 1.403 . S
C89 C90 1.489 . S
C90 C89 1.489 . S
C90 C91 1.383 . S
C90 C95 1.382 . S
C91 H62 0.950 . S
C91 C90 1.383 . S
C91 C92 1.395 . S
C92 H63 0.950 . S
C92 C91 1.395 . S
C92 C93 1.288 . S
C93 C92 1.288 . S
C93 C94 1.392 . S
C94 H64 0.951 . S
C94 C93 1.392 . S
C94 C95 1.392 . S
C95 H65 0.949 . S
C95 C90 1.382 . S
C95 C94 1.392 . S
H96 C115 0.949 . S
H97 C116 0.950 . S
H98 C118 0.950 . S
H99 C119 0.950 . S
H100 C121 0.950 . S
H101 C124 0.950 . S
H102 C125 0.950 . S
H103 C127 0.951 . S
H104 C128 0.949 . S
H105 C130 0.949 . S
H106 C131 0.950 . S
H107 C133 0.950 . S
H108 C134 0.950 . S
H109 C136 0.950 . S
H110 C139 0.950 . S
H111 C140 0.950 . S
H112 C142 0.951 . S
H113 C143 0.949 . S
C114 C115 1.376 . S
C114 C119 1.386 . S
C114 C120 1.483 . S
C115 H96 0.949 . S
C115 C114 1.376 . S
C115 C116 1.397 . S
C116 H97 0.950 . S
C116 C115 1.397 . S
C116 C117 1.391 . S
C117 C116 1.391 . S
C117 C118 1.405 . S
C118 H98 0.950 . S
C118 C117 1.405 . S
C118 C119 1.367 . S
C119 H99 0.950 . S
C119 C114 1.386 . S
C119 C118 1.367 . S
C120 C114 1.483 . S
C120 C121 1.382 . S
C120 C122 1.403 . S
C121 H100 0.950 . S
C121 C120 1.382 . S
C121 C137 1.411 . S
C122 C120 1.403 . S
C122 C123 1.489 . S
C122 C136 1.411 . S
C123 C122 1.489 . S
C123 C124 1.383 . S
C123 C128 1.382 . S
C124 H101 0.950 . S
C124 C123 1.383 . S
C124 C125 1.395 . S
C125 H102 0.950 . S
C125 C124 1.395 . S
C125 C126 1.288 . S
C126 C125 1.288 . S
C126 C127 1.392 . S
C127 H103 0.951 . S
C127 C126 1.392 . S
C127 C128 1.392 . S
C128 H104 0.949 . S
C128 C123 1.382 . S
C128 C127 1.392 . S
C129 C130 1.376 . S
C129 C134 1.386 . S
C129 C135 1.483 . S
C130 H105 0.949 . S
C130 C129 1.376 . S
C130 C131 1.397 . S
C131 H106 0.950 . S
C131 C130 1.397 . S
C131 C132 1.391 . S
C132 C131 1.391 . S
C132 C133 1.405 . S
C133 H107 0.950 . S
C133 C132 1.405 . S
C133 C134 1.367 . S
C134 H108 0.950 . S
C134 C129 1.386 . S
C134 C133 1.367 . S
C135 C129 1.483 . S
C135 C136 1.382 . S
C135 C137 1.403 . S
C136 H109 0.950 . S
C136 C122 1.411 . S
C136 C135 1.382 . S
C137 C121 1.411 . S
C137 C135 1.403 . S
C137 C138 1.489 . S
C138 C137 1.489 . S
C138 C139 1.383 . S
C138 C143 1.382 . S
C139 H110 0.950 . S
C139 C138 1.383 . S
C139 C140 1.395 . S
C140 H111 0.950 . S
C140 C139 1.395 . S
C140 C141 1.288 . S
C141 C140 1.288 . S
C141 C142 1.392 . S
C142 H112 0.951 . S
C142 C141 1.392 . S
C142 C143 1.392 . S
C143 H113 0.949 . S
C143 C138 1.382 . S
C143 C142 1.392 . S
H144 C163 0.949 . S
H145 C164 0.950 . S
H146 C166 0.950 . S
H147 C167 0.950 . S
H148 C169 0.950 . S
H149 C172 0.950 . S
H150 C173 0.950 . S
H151 C175 0.951 . S
H152 C176 0.949 . S
H153 C178 0.949 . S
H154 C179 0.950 . S
H155 C181 0.950 . S
H156 C182 0.950 . S
H157 C184 0.950 . S
H158 C187 0.950 . S
H159 C188 0.950 . S
H160 C190 0.951 . S
H161 C191 0.949 . S
C162 C163 1.376 . S
C162 C167 1.386 . S
C162 C168 1.483 . S
C163 H144 0.949 . S
C163 C162 1.376 . S
C163 C164 1.397 . S
C164 H145 0.950 . S
C164 C163 1.397 . S
C164 C165 1.391 . S
C165 C164 1.391 . S
C165 C166 1.405 . S
C166 H146 0.950 . S
C166 C165 1.405 . S
C166 C167 1.367 . S
C167 H147 0.950 . S
C167 C162 1.386 . S
C167 C166 1.367 . S
C168 C162 1.483 . S
C168 C169 1.382 . S
C168 C170 1.403 . S
C169 H148 0.950 . S
C169 C168 1.382 . S
C169 C185 1.411 1_565 S
C170 C168 1.403 . S
C170 C171 1.489 . S
C170 C184 1.411 1_565 S
C171 C170 1.489 . S
C171 C172 1.383 . S
C171 C176 1.382 . S
C172 H149 0.950 . S
C172 C171 1.383 . S
C172 C173 1.395 . S
C173 H150 0.950 . S
C173 C172 1.395 . S
C173 C174 1.288 . S
C174 C173 1.288 . S
C174 C175 1.392 . S
C175 H151 0.951 . S
C175 C174 1.392 . S
C175 C176 1.392 . S
C176 H152 0.949 . S
C176 C171 1.382 . S
C176 C175 1.392 . S
C177 C178 1.376 . S
C177 C182 1.386 . S
C177 C183 1.483 . S
C178 H153 0.949 . S
C178 C177 1.376 . S
C178 C179 1.397 . S
C179 H154 0.950 . S
C179 C178 1.397 . S
C179 C180 1.391 . S
C180 C179 1.391 . S
C180 C181 1.405 . S
C181 H155 0.950 . S
C181 C180 1.405 . S
C181 C182 1.367 . S
C182 H156 0.950 . S
C182 C177 1.386 . S
C182 C181 1.367 . S
C183 C177 1.483 . S
C183 C184 1.382 . S
C183 C185 1.403 . S
C184 H157 0.950 . S
C184 C170 1.411 1_545 S
C184 C183 1.382 . S
C185 C169 1.411 1_545 S
C185 C183 1.403 . S
C185 C186 1.489 . S
C186 C185 1.489 . S
C186 C187 1.383 . S
C186 C191 1.382 . S
C187 H158 0.950 . S
C187 C186 1.383 . S
C187 C188 1.395 . S
C188 H159 0.950 . S
C188 C187 1.395 . S
C188 C189 1.288 . S
C189 C188 1.288 . S
C189 C190 1.392 . S
C190 H160 0.951 . S
C190 C189 1.392 . S
C190 C191 1.392 . S
C191 H161 0.949 . S
C191 C186 1.382 . S
C191 C190 1.392 . S
H192 C211 0.949 . S
H193 C212 0.950 . S
H194 C214 0.950 . S
H195 C215 0.950 . S
H196 C217 0.950 . S
H197 C220 0.950 . S
H198 C221 0.950 . S
H199 C223 0.951 . S
H200 C224 0.949 . S
H201 C226 0.949 . S
H202 C227 0.950 . S
H203 C229 0.950 . S
H204 C230 0.950 . S
H205 C232 0.950 . S
H206 C235 0.950 . S
H207 C236 0.950 . S
H208 C238 0.951 . S
H209 C239 0.949 . S
C210 C211 1.376 . S
C210 C215 1.386 . S
C210 C216 1.483 . S
C211 H192 0.949 . S
C211 C210 1.376 . S
C211 C212 1.397 . S
C212 H193 0.950 . S
C212 C211 1.397 . S
C212 C213 1.391 . S
C213 C212 1.391 . S
C213 C214 1.405 . S
C214 H194 0.950 . S
C214 C213 1.405 . S
C214 C215 1.367 . S
C215 H195 0.950 . S
C215 C210 1.386 . S
C215 C214 1.367 . S
C216 C210 1.483 . S
C216 C217 1.382 1_455 S
C216 C218 1.403 . S
C217 H196 0.950 . S
C217 C216 1.382 1_655 S
C217 C233 1.411 . S
C218 C216 1.403 . S
C218 C219 1.489 . S
C218 C232 1.411 . S
C219 C218 1.489 . S
C219 C220 1.383 . S
C219 C224 1.382 . S
C220 H197 0.950 . S
C220 C219 1.383 . S
C220 C221 1.395 . S
C221 H198 0.950 . S
C221 C220 1.395 . S
C221 C222 1.288 . S
C222 C221 1.288 . S
C222 C223 1.392 . S
C223 H199 0.951 . S
C223 C222 1.392 . S
C223 C224 1.392 . S
C224 H200 0.949 . S
C224 C219 1.382 . S
C224 C223 1.392 . S
C225 C226 1.376 . S
C225 C230 1.386 . S
C225 C231 1.483 . S
C226 H201 0.949 . S
C226 C225 1.376 . S
C226 C227 1.397 . S
C227 H202 0.950 . S
C227 C226 1.397 . S
C227 C228 1.391 . S
C228 C227 1.391 . S
C228 C229 1.405 . S
C229 H203 0.950 . S
C229 C228 1.405 . S
C229 C230 1.367 . S
C230 H204 0.950 . S
C230 C225 1.386 . S
C230 C229 1.367 . S
C231 C225 1.483 . S
C231 C232 1.382 1_655 S
C231 C233 1.403 . S
C232 H205 0.950 . S
C232 C218 1.411 . S
C232 C231 1.382 1_455 S
C233 C217 1.411 . S
C233 C231 1.403 . S
C233 C234 1.489 . S
C234 C233 1.489 . S
C234 C235 1.383 . S
C234 C239 1.382 . S
C235 H206 0.950 . S
C235 C234 1.383 . S
C235 C236 1.395 . S
C236 H207 0.950 . S
C236 C235 1.395 . S
C236 C237 1.288 . S
C237 C236 1.288 . S
C237 C238 1.392 . S
C238 H208 0.951 . S
C238 C237 1.392 . S
C238 C239 1.392 . S
C239 H209 0.949 . S
C239 C234 1.382 . S
C239 C238 1.392 . S
H240 C259 0.949 . S
H241 C260 0.950 . S
H242 C262 0.950 . S
H243 C263 0.950 . S
H244 C265 0.950 . S
H245 C268 0.950 . S
H246 C269 0.950 . S
H247 C271 0.951 . S
H248 C272 0.949 . S
H249 C274 0.949 . S
H250 C275 0.950 . S
H251 C277 0.950 . S
H252 C278 0.950 . S
H253 C280 0.950 . S
H254 C283 0.950 . S
H255 C284 0.950 . S
H256 C286 0.951 . S
H257 C287 0.949 . S
C258 C259 1.376 . S
C258 C263 1.386 . S
C258 C264 1.483 . S
C259 H240 0.949 . S
C259 C258 1.376 . S
C259 C260 1.397 . S
C260 H241 0.950 . S
C260 C259 1.397 . S
C260 C261 1.391 . S
C261 C260 1.391 . S
C261 C262 1.405 . S
C262 H242 0.950 . S
C262 C261 1.405 . S
C262 C263 1.367 . S
C263 H243 0.950 . S
C263 C258 1.386 . S
C263 C262 1.367 . S
C264 C258 1.483 . S
C264 C265 1.382 . S
C264 C266 1.403 . S
C265 H244 0.950 . S
C265 C264 1.382 . S
C265 C281 1.411 . S
C266 C264 1.403 . S
C266 C267 1.489 . S
C266 C280 1.411 . S
C267 C266 1.489 . S
C267 C268 1.383 . S
C267 C272 1.382 . S
C268 H245 0.950 . S
C268 C267 1.383 . S
C268 C269 1.395 . S
C269 H246 0.950 . S
C269 C268 1.395 . S
C269 C270 1.288 . S
C270 C269 1.288 . S
C270 C271 1.392 . S
C271 H247 0.951 . S
C271 C270 1.392 . S
C271 C272 1.392 . S
C272 H248 0.949 . S
C272 C267 1.382 . S
C272 C271 1.392 . S
C273 C274 1.376 . S
C273 C278 1.386 . S
C273 C279 1.483 . S
C274 H249 0.949 . S
C274 C273 1.376 . S
C274 C275 1.397 . S
C275 H250 0.950 . S
C275 C274 1.397 . S
C275 C276 1.391 . S
C276 C275 1.391 . S
C276 C277 1.405 . S
C277 H251 0.950 . S
C277 C276 1.405 . S
C277 C278 1.367 . S
C278 H252 0.950 . S
C278 C273 1.386 . S
C278 C277 1.367 . S
C279 C273 1.483 . S
C279 C280 1.382 . S
C279 C281 1.403 . S
C280 H253 0.950 . S
C280 C266 1.411 . S
C280 C279 1.382 . S
C281 C265 1.411 . S
C281 C279 1.403 . S
C281 C282 1.489 . S
C282 C281 1.489 . S
C282 C283 1.383 . S
C282 C287 1.382 . S
C283 H254 0.950 . S
C283 C282 1.383 . S
C283 C284 1.395 . S
C284 H255 0.950 . S
C284 C283 1.395 . S
C284 C285 1.288 . S
C285 C284 1.288 . S
C285 C286 1.392 . S
C286 H256 0.951 . S
C286 C285 1.392 . S
C286 C287 1.392 . S
C287 H257 0.949 . S
C287 C282 1.382 . S
C287 C286 1.392 . S
H288 C307 0.949 . S
H289 C308 0.950 . S
H290 C310 0.950 . S
H291 C311 0.950 . S
H292 C313 0.950 . S
H293 C316 0.950 . S
H294 C317 0.950 . S
H295 C319 0.951 . S
H296 C320 0.949 1_545 S
H297 C322 0.949 . S
H298 C323 0.950 . S
H299 C325 0.950 . S
H300 C326 0.950 . S
H301 C328 0.950 . S
H302 C331 0.950 . S
H303 C332 0.950 . S
H304 C334 0.951 . S
H305 C335 0.949 1_565 S
C306 C307 1.376 . S
C306 C311 1.386 . S
C306 C312 1.483 . S
C307 H288 0.949 . S
C307 C306 1.376 . S
C307 C308 1.397 . S
C308 H289 0.950 . S
C308 C307 1.397 . S
C308 C309 1.391 . S
C309 C308 1.391 . S
C309 C310 1.405 . S
C310 H290 0.950 . S
C310 C309 1.405 . S
C310 C311 1.367 . S
C311 H291 0.950 . S
C311 C306 1.386 . S
C311 C310 1.367 . S
C312 C306 1.483 . S
C312 C313 1.382 . S
C312 C314 1.403 . S
C313 H292 0.950 . S
C313 C312 1.382 . S
C313 C329 1.411 1_565 S
C314 C312 1.403 . S
C314 C315 1.489 . S
C314 C328 1.411 1_565 S
C315 C314 1.489 . S
C315 C316 1.383 . S
C315 C320 1.382 . S
C316 H293 0.950 . S
C316 C315 1.383 . S
C316 C317 1.395 . S
C317 H294 0.950 . S
C317 C316 1.395 . S
C317 C318 1.288 . S
C318 C317 1.288 . S
C318 C319 1.392 . S
C319 H295 0.951 . S
C319 C318 1.392 . S
C319 C320 1.392 . S
C320 H296 0.949 1_565 S
C320 C315 1.382 . S
C320 C319 1.392 . S
C321 C322 1.376 . S
C321 C326 1.386 . S
C321 C327 1.483 . S
C322 H297 0.949 . S
C322 C321 1.376 . S
C322 C323 1.397 . S
C323 H298 0.950 . S
C323 C322 1.397 . S
C323 C324 1.391 . S
C324 C323 1.391 . S
C324 C325 1.405 . S
C325 H299 0.950 . S
C325 C324 1.405 . S
C325 C326 1.367 . S
C326 H300 0.950 . S
C326 C321 1.386 . S
C326 C325 1.367 . S
C327 C321 1.483 . S
C327 C328 1.382 . S
C327 C329 1.403 . S
C328 H301 0.950 . S
C328 C314 1.411 1_545 S
C328 C327 1.382 . S
C329 C313 1.411 1_545 S
C329 C327 1.403 . S
C329 C330 1.489 . S
C330 C329 1.489 . S
C330 C331 1.383 . S
C330 C335 1.382 . S
C331 H302 0.950 . S
C331 C330 1.383 . S
C331 C332 1.395 . S
C332 H303 0.950 . S
C332 C331 1.395 . S
C332 C333 1.288 . S
C333 C332 1.288 . S
C333 C334 1.392 . S
C334 H304 0.951 . S
C334 C333 1.392 . S
C334 C335 1.392 . S
C335 H305 0.949 1_545 S
C335 C330 1.382 . S
C335 C334 1.392 . S
H336 C355 0.949 . S
H337 C356 0.950 . S
H338 C358 0.950 . S
H339 C359 0.950 . S
H340 C361 0.950 . S
H341 C364 0.950 . S
H342 C365 0.948 1_455 S
H343 C367 0.951 . S
H344 C368 0.949 . S
H345 C370 0.949 . S
H346 C371 0.950 . S
H347 C373 0.950 . S
H348 C374 0.925 1_545 S
H349 C376 0.950 . S
H350 C379 0.950 . S
H351 C380 0.950 . S
H352 C382 0.951 1_545 S
H353 C383 0.949 . S
C354 C355 1.376 . S
C354 C359 1.386 1_455 S
C354 C360 1.483 . S
C355 H336 0.949 . S
C355 C354 1.376 . S
C355 C356 1.397 . S
C356 H337 0.950 . S
C356 C355 1.397 . S
C356 C357 1.391 1_455 S
C357 C356 1.391 1_655 S
C357 C358 1.405 . S
C358 H338 0.950 . S
C358 C357 1.405 . S
C358 C359 1.367 . S
C359 H339 0.950 . S
C359 C354 1.386 1_655 S
C359 C358 1.367 . S
C360 C354 1.483 . S
C360 C361 1.382 . S
C360 C362 1.403 . S
C361 H340 0.950 . S
C361 C360 1.382 . S
C361 C377 1.411 . S
C362 C360 1.403 . S
C362 C363 1.489 . S
C362 C376 1.411 . S
C363 C362 1.489 . S
C363 C364 1.383 . S
C363 C368 1.382 1_455 S
C364 H341 0.950 . S
C364 C363 1.383 . S
C364 C365 1.395 1_455 S
C365 H342 0.948 1_655 S
C365 C364 1.395 1_655 S
C365 C366 1.288 . S
C366 C365 1.288 . S
C366 C367 1.392 . S
C367 H343 0.951 . S
C367 C366 1.392 . S
C367 C368 1.392 . S
C368 H344 0.949 . S
C368 C363 1.382 1_655 S
C368 C367 1.392 . S
C369 C370 1.401 . S
C369 C374 1.386 . S
C369 C375 1.457 1_565 S
C370 H345 0.949 . S
C370 C369 1.401 . S
C370 C371 1.397 . S
C371 H346 0.950 . S
C371 C370 1.397 . S
C371 C372 1.391 . S
C372 C371 1.391 . S
C372 C373 1.405 . S
C373 H347 0.950 . S
C373 C372 1.405 . S
C373 C374 1.394 . S
C374 H348 0.925 1_565 S
C374 C369 1.386 . S
C374 C373 1.394 . S
C375 C369 1.457 1_545 S
C375 C376 1.382 . S
C375 C377 1.403 . S
C376 H349 0.950 . S
C376 C362 1.411 . S
C376 C375 1.382 . S
C377 C361 1.411 . S
C377 C375 1.403 . S
C377 C378 1.489 . S
C378 C377 1.489 . S
C378 C379 1.383 1_545 S
C378 C383 1.382 . S
C379 H350 0.950 . S
C379 C378 1.383 1_565 S
C379 C380 1.395 . S
C380 H351 0.950 . S
C380 C379 1.395 . S
C380 C381 1.288 . S
C381 C380 1.288 . S
C381 C382 1.392 . S
C382 H352 0.951 1_565 S
C382 C381 1.392 . S
C382 C383 1.392 1_565 S
C383 H353 0.949 . S
C383 C378 1.382 . S
C383 C382 1.392 1_545 S
Zn384 O387 2.031 . S
Zn384 O389 2.049 1_556 S
Zn384 O394 2.067 . S
Zn385 O386 1.962 . S
Zn385 O388 1.986 . S
Zn385 O390 1.996 . S
Zn385 O393 1.943 . S
O386 Zn385 1.962 . S
O386 C391 1.254 . S
O387 Zn384 2.031 . S
O387 C391 1.269 1_556 S
O388 Zn385 1.986 . S
O388 C395 1.262 . S
O389 Zn384 2.049 1_554 S
O389 C397 1.260 . S
O390 Zn385 1.996 . S
O390 C397 1.257 . S
C391 O386 1.254 . S
C391 O387 1.269 1_554 S
C392 O393 1.249 1_556 S
C392 O394 1.270 . S
O393 Zn385 1.943 . S
O393 C392 1.249 1_554 S
O394 Zn384 2.067 . S
O394 C392 1.270 . S
C395 O388 1.262 . S
C395 O396 1.232 . S
O396 C395 1.232 . S
C397 O389 1.260 . S
C397 O390 1.257 . S
Zn398 O401 2.031 . S
Zn398 O403 2.049 . S
Zn398 O408 2.067 . S
Zn399 O400 1.962 . S
Zn399 O402 1.986 . S
Zn399 O404 1.996 . S
Zn399 O407 1.943 . S
O400 Zn399 1.962 . S
O400 C405 1.254 . S
O401 Zn398 2.031 . S
O401 C405 1.269 . S
O402 Zn399 1.986 . S
O402 C409 1.262 . S
O403 Zn398 2.049 . S
O403 C411 1.260 . S
O404 Zn399 1.996 . S
O404 C411 1.257 . S
C405 O400 1.254 . S
C405 O401 1.269 . S
C406 O407 1.249 . S
C406 O408 1.270 . S
O407 Zn399 1.943 . S
O407 C406 1.249 . S
O408 Zn398 2.067 . S
O408 C406 1.270 . S
C409 O402 1.262 . S
C409 O410 1.232 . S
O410 C409 1.232 . S
C411 O403 1.260 . S
C411 O404 1.257 . S
Zn412 O415 2.031 . S
Zn412 O417 2.049 . S
Zn412 O422 2.067 . S
Zn413 O414 1.962 . S
Zn413 O416 1.986 . S
Zn413 O418 1.996 . S
Zn413 O421 1.943 . S
O414 Zn413 1.962 . S
O414 C419 1.254 . S
O415 Zn412 2.031 . S
O415 C419 1.269 . S
O416 Zn413 1.986 . S
O416 C423 1.262 . S
O417 Zn412 2.049 . S
O417 C425 1.260 . S
O418 Zn413 1.996 . S
O418 C425 1.257 . S
C419 O414 1.254 . S
C419 O415 1.269 . S
C420 O421 1.249 . S
C420 O422 1.270 . S
O421 Zn413 1.943 . S
O421 C420 1.249 . S
O422 Zn412 2.067 . S
O422 C420 1.270 . S
C423 O416 1.262 . S
C423 O424 1.232 . S
O424 C423 1.232 . S
C425 O417 1.260 . S
C425 O418 1.257 . S
Zn426 O429 2.031 . S
Zn426 O431 2.049 . S
Zn426 O436 2.067 . S
Zn427 O428 1.962 . S
Zn427 O430 1.986 . S
Zn427 O432 1.996 . S
Zn427 O435 1.943 . S
O428 Zn427 1.962 . S
O428 C433 1.254 . S
O429 Zn426 2.031 . S
O429 C433 1.269 . S
O430 Zn427 1.986 . S
O430 C437 1.262 . S
O431 Zn426 2.049 . S
O431 C439 1.260 . S
O432 Zn427 1.996 . S
O432 C439 1.257 . S
C433 O428 1.254 . S
C433 O429 1.269 . S
C434 O435 1.249 . S
C434 O436 1.270 . S
O435 Zn427 1.943 . S
O435 C434 1.249 . S
O436 Zn426 2.067 . S
O436 C434 1.270 . S
C437 O430 1.262 . S
C437 O438 1.232 . S
O438 C437 1.232 . S
C439 O431 1.260 . S
C439 O432 1.257 . S
Zn440 O443 2.031 . S
Zn440 O445 2.049 . S
Zn440 O450 2.067 . S
Zn441 O442 1.962 . S
Zn441 O444 1.986 . S
Zn441 O446 1.996 . S
Zn441 O449 1.943 . S
O442 Zn441 1.962 . S
O442 C447 1.254 . S
O443 Zn440 2.031 . S
O443 C447 1.269 . S
O444 Zn441 1.986 . S
O444 C451 1.262 . S
O445 Zn440 2.049 . S
O445 C453 1.260 . S
O446 Zn441 1.996 . S
O446 C453 1.257 . S
C447 O442 1.254 . S
C447 O443 1.269 . S
C448 O449 1.249 . S
C448 O450 1.270 . S
O449 Zn441 1.943 . S
O449 C448 1.249 . S
O450 Zn440 2.067 . S
O450 C448 1.270 . S
C451 O444 1.262 . S
C451 O452 1.232 . S
O452 C451 1.232 . S
C453 O445 1.260 . S
C453 O446 1.257 . S
Zn454 O457 2.031 . S
Zn454 O459 2.049 . S
Zn454 O464 2.067 . S
Zn455 O456 1.962 . S
Zn455 O458 1.986 . S
Zn455 O460 1.996 . S
Zn455 O463 1.943 . S
O456 Zn455 1.962 . S
O456 C461 1.254 . S
O457 Zn454 2.031 . S
O457 C461 1.269 . S
O458 Zn455 1.986 . S
O458 C465 1.262 . S
O459 Zn454 2.049 . S
O459 C467 1.260 . S
O460 Zn455 1.996 . S
O460 C467 1.257 . S
C461 O456 1.254 . S
C461 O457 1.269 . S
C462 O463 1.249 . S
C462 O464 1.270 . S
O463 Zn455 1.943 . S
O463 C462 1.249 . S
O464 Zn454 2.067 . S
O464 C462 1.270 . S
C465 O458 1.262 . S
C465 O466 1.232 . S
O466 C465 1.232 . S
C467 O459 1.260 . S
C467 O460 1.257 . S
Zn468 O471 2.031 . S
Zn468 O473 2.049 . S
Zn468 O478 2.067 . S
Zn469 O470 1.962 . S
Zn469 O472 1.986 . S
Zn469 O474 1.996 . S
Zn469 O477 1.943 1_556 S
O470 Zn469 1.962 . S
O470 C475 1.254 1_556 S
O471 Zn468 2.031 . S
O471 C475 1.269 . S
O472 Zn469 1.986 . S
O472 C479 1.262 . S
O473 Zn468 2.049 . S
O473 C481 1.260 . S
O474 Zn469 1.996 . S
O474 C481 1.257 1_556 S
C475 O470 1.254 1_554 S
C475 O471 1.269 . S
C476 O477 1.249 . S
C476 O478 1.270 . S
O477 Zn469 1.943 1_554 S
O477 C476 1.249 . S
O478 Zn468 2.067 . S
O478 C476 1.270 . S
C479 O472 1.262 . S
C479 O480 1.232 . S
O480 C479 1.232 . S
C481 O473 1.260 . S
C481 O474 1.257 1_554 S
Zn482 O485 2.031 . S
Zn482 O487 2.049 . S
Zn482 O492 2.067 . S
Zn483 O484 1.962 . S
Zn483 O486 1.986 . S
Zn483 O488 1.996 . S
Zn483 O491 1.943 . S
O484 Zn483 1.962 . S
O484 C489 1.254 . S
O485 Zn482 2.031 . S
O485 C489 1.269 . S
O486 Zn483 1.986 . S
O486 C493 1.262 . S
O487 Zn482 2.049 . S
O487 C495 1.260 . S
O488 Zn483 1.996 . S
O488 C495 1.257 . S
C489 O484 1.254 . S
C489 O485 1.269 . S
C490 O491 1.249 . S
C490 O492 1.270 . S
O491 Zn483 1.943 . S
O491 C490 1.249 . S
O492 Zn482 2.067 . S
O492 C490 1.270 . S
C493 O486 1.262 . S
C493 O494 1.232 . S
O494 C493 1.232 . S
C495 O487 1.260 . S
C495 O488 1.257 . S
C496 C497 1.349 . S
C496 C498 1.327 . S
C496 H521 0.950 . S
C497 C496 1.349 . S
C497 C513 1.349 . S
C498 C496 1.327 . S
C498 C517 1.429 . S
C498 H522 0.950 . S
C499 C516 1.574 . S
C499 C518 1.368 . S
C499 H523 0.949 . S
H500 C504 0.949 . S
C501 C502 1.349 . S
C501 C503 1.327 . S
C501 H524 0.950 . S
C502 C501 1.349 . S
C502 C514 1.349 . S
C503 C501 1.327 . S
C503 C519 1.429 . S
C503 H525 0.950 . S
C504 H500 0.949 . S
C504 C512 1.574 . S
C504 C520 1.368 . S
H505 C513 0.950 . S
H506 C511 0.950 . S
H507 C512 0.949 . S
H508 C514 0.950 . S
H509 C515 0.950 . S
H510 C516 0.949 . S
C511 H506 0.950 . S
C511 C513 1.327 . S
C511 C517 1.429 . S
C512 C504 1.574 . S
C512 H507 0.949 . S
C512 C518 1.368 . S
C513 C497 1.349 . S
C513 H505 0.950 . S
C513 C511 1.327 . S
C514 C502 1.349 . S
C514 H508 0.950 . S
C514 C515 1.327 . S
C515 H509 0.950 . S
C515 C514 1.327 . S
C515 C519 1.429 . S
C516 C499 1.574 . S
C516 H510 0.949 . S
C516 C520 1.368 . S
C517 C498 1.429 . S
C517 C511 1.429 . S
C517 C518 1.523 . S
C518 C499 1.368 . S
C518 C512 1.368 . S
C518 C517 1.523 . S
C519 C503 1.429 . S
C519 C515 1.429 . S
C519 C520 1.523 . S
C520 C504 1.368 . S
C520 C516 1.368 . S
C520 C519 1.523 . S
H521 C496 0.950 . S
H522 C498 0.950 . S
H523 C499 0.949 . S
H524 C501 0.950 . S
H525 C503 0.950 . S
C526 C527 1.349 . S
C526 C528 1.327 . S
C526 H551 0.950 . S
C527 C526 1.349 . S
C527 C543 1.349 . S
C528 C526 1.327 . S
C528 C547 1.429 . S
C528 H552 0.950 . S
C529 C546 1.574 . S
C529 C548 1.368 . S
C529 H553 0.949 . S
H530 C534 0.949 . S
C531 C532 1.349 . S
C531 C533 1.327 . S
C531 H554 0.950 . S
C532 C531 1.349 . S
C532 C544 1.349 . S
C533 C531 1.327 . S
C533 C549 1.429 . S
C533 H555 0.950 . S
C534 H530 0.949 . S
C534 C542 1.574 . S
C534 C550 1.368 . S
H535 C543 0.950 . S
H536 C541 0.950 . S
H537 C542 0.949 . S
H538 C544 0.950 . S
H539 C545 0.950 . S
H540 C546 0.949 . S
C541 H536 0.950 . S
C541 C543 1.327 . S
C541 C547 1.429 . S
C542 C534 1.574 . S
C542 H537 0.949 . S
C542 C548 1.368 . S
C543 C527 1.349 . S
C543 H535 0.950 . S
C543 C541 1.327 . S
C544 C532 1.349 . S
C544 H538 0.950 . S
C544 C545 1.327 . S
C545 H539 0.950 . S
C545 C544 1.327 . S
C545 C549 1.429 . S
C546 C529 1.574 . S
C546 H540 0.949 . S
C546 C550 1.368 . S
C547 C528 1.429 . S
C547 C541 1.429 . S
C547 C548 1.523 . S
C548 C529 1.368 . S
C548 C542 1.368 . S
C548 C547 1.523 . S
C549 C533 1.429 . S
C549 C545 1.429 . S
C549 C550 1.523 . S
C550 C534 1.368 . S
C550 C546 1.368 . S
C550 C549 1.523 . S
H551 C526 0.950 . S
H552 C528 0.950 . S
H553 C529 0.949 . S
H554 C531 0.950 . S
H555 C533 0.950 . S
C556 C557 1.349 . S
C556 C558 1.327 . S
C556 H581 0.950 . S
C557 C556 1.349 . S
C557 C573 1.349 . S
C558 C556 1.327 . S
C558 C577 1.429 . S
C558 H582 0.950 . S
C559 C576 1.574 . S
C559 C578 1.368 . S
C559 H583 0.949 . S
H560 C564 0.949 . S
C561 C562 1.349 . S
C561 C563 1.327 . S
C561 H584 0.950 . S
C562 C561 1.349 . S
C562 C574 1.349 . S
C563 C561 1.327 . S
C563 C579 1.429 . S
C563 H585 0.950 . S
C564 H560 0.949 . S
C564 C572 1.574 . S
C564 C580 1.368 . S
H565 C573 0.950 . S
H566 C571 0.950 . S
H567 C572 0.949 . S
H568 C574 0.950 . S
H569 C575 0.950 . S
H570 C576 0.949 . S
C571 H566 0.950 . S
C571 C573 1.327 . S
C571 C577 1.429 . S
C572 C564 1.574 . S
C572 H567 0.949 . S
C572 C578 1.368 . S
C573 C557 1.349 . S
C573 H565 0.950 . S
C573 C571 1.327 . S
C574 C562 1.349 . S
C574 H568 0.950 . S
C574 C575 1.327 . S
C575 H569 0.950 . S
C575 C574 1.327 . S
C575 C579 1.429 . S
C576 C559 1.574 . S
C576 H570 0.949 . S
C576 C580 1.368 . S
C577 C558 1.429 . S
C577 C571 1.429 . S
C577 C578 1.523 . S
C578 C559 1.368 . S
C578 C572 1.368 . S
C578 C577 1.523 . S
C579 C563 1.429 . S
C579 C575 1.429 . S
C579 C580 1.523 . S
C580 C564 1.368 . S
C580 C576 1.368 . S
C580 C579 1.523 . S
H581 C556 0.950 . S
H582 C558 0.950 . S
H583 C559 0.949 . S
H584 C561 0.950 . S
H585 C563 0.950 . S
C586 C587 1.349 . S
C586 C588 1.327 . S
C586 H611 0.950 . S
C587 C586 1.349 . S
C587 C603 1.349 . S
C588 C586 1.327 . S
C588 C607 1.429 . S
C588 H612 0.950 . S
C589 C606 1.574 . S
C589 C608 1.368 . S
C589 H613 0.949 . S
H590 C594 0.949 . S
C591 C592 1.349 . S
C591 C593 1.327 . S
C591 H614 0.950 . S
C592 C591 1.349 . S
C592 C604 1.349 . S
C593 C591 1.327 . S
C593 C609 1.429 . S
C593 H615 0.950 . S
C594 H590 0.949 . S
C594 C602 1.574 . S
C594 C610 1.368 . S
H595 C603 0.950 . S
H596 C601 0.950 . S
H597 C602 0.949 . S
H598 C604 0.950 . S
H599 C605 0.950 . S
H600 C606 0.949 . S
C601 H596 0.950 . S
C601 C603 1.327 . S
C601 C607 1.429 . S
C602 C594 1.574 . S
C602 H597 0.949 . S
C602 C608 1.368 . S
C603 C587 1.349 . S
C603 H595 0.950 . S
C603 C601 1.327 . S
C604 C592 1.349 . S
C604 H598 0.950 . S
C604 C605 1.327 . S
C605 H599 0.950 . S
C605 C604 1.327 . S
C605 C609 1.429 . S
C606 C589 1.574 . S
C606 H600 0.949 . S
C606 C610 1.368 . S
C607 C588 1.429 . S
C607 C601 1.429 . S
C607 C608 1.523 . S
C608 C589 1.368 . S
C608 C602 1.368 . S
C608 C607 1.523 . S
C609 C593 1.429 . S
C609 C605 1.429 . S
C609 C610 1.523 . S
C610 C594 1.368 . S
C610 C606 1.368 . S
C610 C609 1.523 . S
H611 C586 0.950 . S
H612 C588 0.950 . S
H613 C589 0.949 . S
H614 C591 0.950 . S
H615 C593 0.950 . S
C616 C617 1.349 . S
C616 C618 1.327 . S
C616 H641 0.950 . S
C617 C616 1.349 . S
C617 C633 1.349 . S
C618 C616 1.327 . S
C618 C637 1.429 . S
C618 H642 0.950 . S
C619 C636 1.574 . S
C619 C638 1.368 . S
C619 H643 0.949 . S
H620 C624 0.949 . S
C621 C622 1.349 . S
C621 C623 1.327 . S
C621 H644 0.950 . S
C622 C621 1.349 . S
C622 C634 1.349 . S
C623 C621 1.327 . S
C623 C639 1.429 1_554 S
C623 H645 0.950 . S
C624 H620 0.949 . S
C624 C632 1.574 . S
C624 C640 1.368 . S
H625 C633 0.950 . S
H626 C631 0.950 . S
H627 C632 0.949 . S
H628 C634 0.950 . S
H629 C635 0.950 . S
H630 C636 0.949 . S
C631 H626 0.950 . S
C631 C633 1.327 . S
C631 C637 1.429 . S
C632 C624 1.574 . S
C632 H627 0.949 . S
C632 C638 1.368 . S
C633 C617 1.349 . S
C633 H625 0.950 . S
C633 C631 1.327 . S
C634 C622 1.349 . S
C634 H628 0.950 . S
C634 C635 1.327 1_554 S
C635 H629 0.950 . S
C635 C634 1.327 1_556 S
C635 C639 1.429 . S
C636 C619 1.574 . S
C636 H630 0.949 . S
C636 C640 1.368 . S
C637 C618 1.429 . S
C637 C631 1.429 . S
C637 C638 1.523 . S
C638 C619 1.368 . S
C638 C632 1.368 . S
C638 C637 1.523 . S
C639 C623 1.429 1_556 S
C639 C635 1.429 . S
C639 C640 1.523 . S
C640 C624 1.368 . S
C640 C636 1.368 . S
C640 C639 1.523 . S
H641 C616 0.950 . S
H642 C618 0.950 . S
H643 C619 0.949 . S
H644 C621 0.950 . S
H645 C623 0.950 . S
C646 C647 1.349 . S
C646 C648 1.327 . S
C646 H671 0.950 . S
C647 C646 1.349 . S
C647 C663 1.349 . S
C648 C646 1.327 . S
C648 C667 1.429 . S
C648 H672 0.950 . S
C649 C666 1.574 . S
C649 C668 1.368 . S
C649 H673 0.949 . S
H650 C654 0.949 . S
C651 C652 1.349 . S
C651 C653 1.327 . S
C651 H674 0.950 . S
C652 C651 1.349 . S
C652 C664 1.349 . S
C653 C651 1.327 . S
C653 C669 1.429 . S
C653 H675 0.950 . S
C654 H650 0.949 . S
C654 C662 1.574 . S
C654 C670 1.368 . S
H655 C663 0.950 . S
H656 C661 0.950 . S
H657 C662 0.949 . S
H658 C664 0.950 . S
H659 C665 0.950 . S
H660 C666 0.949 . S
C661 H656 0.950 . S
C661 C663 1.327 . S
C661 C667 1.429 . S
C662 C654 1.574 . S
C662 H657 0.949 . S
C662 C668 1.368 . S
C663 C647 1.349 . S
C663 H655 0.950 . S
C663 C661 1.327 . S
C664 C652 1.349 . S
C664 H658 0.950 . S
C664 C665 1.327 . S
C665 H659 0.950 . S
C665 C664 1.327 . S
C665 C669 1.429 . S
C666 C649 1.574 . S
C666 H660 0.949 . S
C666 C670 1.368 . S
C667 C648 1.429 . S
C667 C661 1.429 . S
C667 C668 1.523 . S
C668 C649 1.368 . S
C668 C662 1.368 . S
C668 C667 1.523 . S
C669 C653 1.429 . S
C669 C665 1.429 . S
C669 C670 1.523 . S
C670 C654 1.368 . S
C670 C666 1.368 . S
C670 C669 1.523 . S
H671 C646 0.950 . S
H672 C648 0.950 . S
H673 C649 0.949 . S
H674 C651 0.950 . S
H675 C653 0.950 . S
C676 C677 1.349 . S
C676 C678 1.327 . S
C676 H701 0.950 . S
C677 C676 1.349 . S
C677 C693 1.349 . S
C678 C676 1.327 . S
C678 C697 1.429 . S
C678 H702 0.950 . S
C679 C696 1.574 . S
C679 C698 1.368 . S
C679 H703 0.949 . S
H680 C684 0.949 . S
C681 C682 1.349 . S
C681 C683 1.327 . S
C681 H704 0.950 . S
C682 C681 1.349 . S
C682 C694 1.349 . S
C683 C681 1.327 . S
C683 C699 1.429 . S
C683 H705 0.950 . S
C684 H680 0.949 . S
C684 C692 1.574 . S
C684 C700 1.368 . S
H685 C693 0.950 . S
H686 C691 0.950 . S
H687 C692 0.949 . S
H688 C694 0.950 . S
H689 C695 0.950 . S
H690 C696 0.949 . S
C691 H686 0.950 . S
C691 C693 1.327 . S
C691 C697 1.429 . S
C692 C684 1.574 . S
C692 H687 0.949 . S
C692 C698 1.368 . S
C693 C677 1.349 . S
C693 H685 0.950 . S
C693 C691 1.327 . S
C694 C682 1.349 . S
C694 H688 0.950 . S
C694 C695 1.327 . S
C695 H689 0.950 . S
C695 C694 1.327 . S
C695 C699 1.429 . S
C696 C679 1.574 . S
C696 H690 0.949 . S
C696 C700 1.368 . S
C697 C678 1.429 . S
C697 C691 1.429 . S
C697 C698 1.523 . S
C698 C679 1.368 . S
C698 C692 1.368 . S
C698 C697 1.523 . S
C699 C683 1.429 . S
C699 C695 1.429 . S
C699 C700 1.523 . S
C700 C684 1.368 . S
C700 C696 1.368 . S
C700 C699 1.523 . S
H701 C676 0.950 . S
H702 C678 0.950 . S
H703 C679 0.949 . S
H704 C681 0.950 . S
H705 C683 0.950 . S
C706 C707 1.349 . S
C706 C708 1.327 . S
C706 H731 0.950 . S
C707 C706 1.349 . S
C707 C723 1.349 . S
C708 C706 1.327 . S
C708 C727 1.429 . S
C708 H732 0.950 . S
C709 C726 1.574 . S
C709 C728 1.368 . S
C709 H733 0.949 . S
H710 C714 0.949 . S
C711 C712 1.349 . S
C711 C713 1.327 . S
C711 H734 0.950 . S
C712 C711 1.349 . S
C712 C724 1.349 . S
C713 C711 1.327 . S
C713 C729 1.429 . S
C713 H735 0.950 . S
C714 H710 0.949 . S
C714 C722 1.574 . S
C714 C730 1.368 . S
H715 C723 0.950 . S
H716 C721 0.950 . S
H717 C722 0.949 . S
H718 C724 0.950 . S
H719 C725 0.950 . S
H720 C726 0.949 . S
C721 H716 0.950 . S
C721 C723 1.327 . S
C721 C727 1.429 . S
C722 C714 1.574 . S
C722 H717 0.949 . S
C722 C728 1.368 . S
C723 C707 1.349 . S
C723 H715 0.950 . S
C723 C721 1.327 . S
C724 C712 1.349 . S
C724 H718 0.950 . S
C724 C725 1.327 . S
C725 H719 0.950 . S
C725 C724 1.327 . S
C725 C729 1.429 . S
C726 C709 1.574 . S
C726 H720 0.949 . S
C726 C730 1.368 . S
C727 C708 1.429 . S
C727 C721 1.429 . S
C727 C728 1.523 . S
C728 C709 1.368 . S
C728 C722 1.368 . S
C728 C727 1.523 . S
C729 C713 1.429 . S
C729 C725 1.429 . S
C729 C730 1.523 . S
C730 C714 1.368 . S
C730 C726 1.368 . S
C730 C729 1.523 . S
H731 C706 0.950 . S
H732 C708 0.950 . S
H733 C709 0.949 . S
H734 C711 0.950 . S
H735 C713 0.950 . S
C736 C737 1.349 . S
C736 C738 1.327 . S
C736 H761 0.950 . S
C737 C736 1.349 . S
C737 C753 1.349 . S
C738 C736 1.327 . S
C738 C757 1.429 . S
C738 H762 0.950 . S
C739 C756 1.574 . S
C739 C758 1.368 . S
C739 H763 0.949 . S
H740 C744 0.949 . S
C741 C742 1.349 . S
C741 C743 1.327 . S
C741 H764 0.950 . S
C742 C741 1.349 . S
C742 C754 1.349 . S
C743 C741 1.327 . S
C743 C759 1.429 . S
C743 H765 0.950 . S
C744 H740 0.949 . S
C744 C752 1.574 . S
C744 C760 1.368 . S
H745 C753 0.950 . S
H746 C751 0.950 . S
H747 C752 0.949 . S
H748 C754 0.950 . S
H749 C755 0.950 . S
H750 C756 0.949 . S
C751 H746 0.950 . S
C751 C753 1.327 . S
C751 C757 1.429 . S
C752 C744 1.574 . S
C752 H747 0.949 . S
C752 C758 1.368 . S
C753 C737 1.349 . S
C753 H745 0.950 . S
C753 C751 1.327 . S
C754 C742 1.349 . S
C754 H748 0.950 . S
C754 C755 1.327 . S
C755 H749 0.950 . S
C755 C754 1.327 . S
C755 C759 1.429 . S
C756 C739 1.574 . S
C756 H750 0.949 . S
C756 C760 1.368 . S
C757 C738 1.429 . S
C757 C751 1.429 . S
C757 C758 1.523 . S
C758 C739 1.368 . S
C758 C752 1.368 . S
C758 C757 1.523 . S
C759 C743 1.429 . S
C759 C755 1.429 . S
C759 C760 1.523 . S
C760 C744 1.368 . S
C760 C756 1.368 . S
C760 C759 1.523 . S
H761 C736 0.950 . S
H762 C738 0.950 . S
H763 C739 0.949 . S
H764 C741 0.950 . S
H765 C743 0.950 . S
C766 C767 1.349 . S
C766 C768 1.327 . S
C766 H791 0.950 . S
C767 C766 1.349 . S
C767 C783 1.349 . S
C768 C766 1.327 . S
C768 C787 1.429 . S
C768 H792 0.950 . S
C769 C786 1.574 . S
C769 C788 1.368 . S
C769 H793 0.949 . S
H770 C774 0.949 . S
C771 C772 1.349 . S
C771 C773 1.327 . S
C771 H794 0.950 . S
C772 C771 1.349 . S
C772 C784 1.349 . S
C773 C771 1.327 . S
C773 C789 1.429 . S
C773 H795 0.950 . S
C774 H770 0.949 . S
C774 C782 1.574 . S
C774 C790 1.368 . S
H775 C783 0.950 . S
H776 C781 0.950 . S
H777 C782 0.949 . S
H778 C784 0.950 . S
H779 C785 0.950 . S
H780 C786 0.949 . S
C781 H776 0.950 . S
C781 C783 1.327 . S
C781 C787 1.429 . S
C782 C774 1.574 . S
C782 H777 0.949 . S
C782 C788 1.368 . S
C783 C767 1.349 . S
C783 H775 0.950 . S
C783 C781 1.327 . S
C784 C772 1.349 . S
C784 H778 0.950 . S
C784 C785 1.327 . S
C785 H779 0.950 . S
C785 C784 1.327 . S
C785 C789 1.429 . S
C786 C769 1.574 . S
C786 H780 0.949 . S
C786 C790 1.368 . S
C787 C768 1.429 . S
C787 C781 1.429 . S
C787 C788 1.523 . S
C788 C769 1.368 . S
C788 C782 1.368 . S
C788 C787 1.523 . S
C789 C773 1.429 . S
C789 C785 1.429 . S
C789 C790 1.523 . S
C790 C774 1.368 . S
C790 C786 1.368 . S
C790 C789 1.523 . S
H791 C766 0.950 . S
H792 C768 0.950 . S
H793 C769 0.949 . S
H794 C771 0.950 . S
H795 C773 0.950 . S
C796 C797 1.349 . S
C796 C798 1.327 . S
C796 H821 0.950 . S
C797 C796 1.349 . S
C797 C813 1.349 . S
C798 C796 1.327 . S
C798 C817 1.429 . S
C798 H822 0.950 . S
C799 C816 1.574 . S
C799 C818 1.368 . S
C799 H823 0.949 . S
H800 C804 0.949 . S
C801 C802 1.349 . S
C801 C803 1.327 . S
C801 H824 0.950 . S
C802 C801 1.349 . S
C802 C814 1.349 . S
C803 C801 1.327 . S
C803 C819 1.429 . S
C803 H825 0.950 . S
C804 H800 0.949 . S
C804 C812 1.574 . S
C804 C820 1.368 . S
H805 C813 0.950 . S
H806 C811 0.950 . S
H807 C812 0.949 . S
H808 C814 0.950 . S
H809 C815 0.950 . S
H810 C816 0.949 . S
C811 H806 0.950 . S
C811 C813 1.327 . S
C811 C817 1.429 . S
C812 C804 1.574 . S
C812 H807 0.949 . S
C812 C818 1.368 . S
C813 C797 1.349 . S
C813 H805 0.950 . S
C813 C811 1.327 . S
C814 C802 1.349 . S
C814 H808 0.950 . S
C814 C815 1.327 . S
C815 H809 0.950 . S
C815 C814 1.327 . S
C815 C819 1.429 . S
C816 C799 1.574 . S
C816 H810 0.949 . S
C816 C820 1.368 . S
C817 C798 1.429 . S
C817 C811 1.429 . S
C817 C818 1.523 . S
C818 C799 1.368 . S
C818 C812 1.368 . S
C818 C817 1.523 . S
C819 C803 1.429 . S
C819 C815 1.429 . S
C819 C820 1.523 . S
C820 C804 1.368 . S
C820 C816 1.368 . S
C820 C819 1.523 . S
H821 C796 0.950 . S
H822 C798 0.950 . S
H823 C799 0.949 . S
H824 C801 0.950 . S
H825 C803 0.950 . S
C826 C827 1.349 . S
C826 C828 1.327 . S
C826 H851 0.950 . S
C827 C826 1.349 . S
C827 C843 1.349 . S
C828 C826 1.327 . S
C828 C847 1.429 . S
C828 H852 0.950 . S
C829 C846 1.574 . S
C829 C848 1.368 . S
C829 H853 0.949 . S
H830 C834 0.949 . S
C831 C832 1.349 . S
C831 C833 1.327 . S
C831 H854 0.950 . S
C832 C831 1.349 . S
C832 C844 1.349 . S
C833 C831 1.327 . S
C833 C849 1.429 . S
C833 H855 0.950 . S
C834 H830 0.949 . S
C834 C842 1.574 . S
C834 C850 1.368 . S
H835 C843 0.950 . S
H836 C841 0.950 . S
H837 C842 0.949 . S
H838 C844 0.950 . S
H839 C845 0.950 . S
H840 C846 0.949 . S
C841 H836 0.950 . S
C841 C843 1.327 . S
C841 C847 1.429 . S
C842 C834 1.574 . S
C842 H837 0.949 . S
C842 C848 1.368 . S
C843 C827 1.349 . S
C843 H835 0.950 . S
C843 C841 1.327 . S
C844 C832 1.349 . S
C844 H838 0.950 . S
C844 C845 1.327 . S
C845 H839 0.950 . S
C845 C844 1.327 . S
C845 C849 1.429 . S
C846 C829 1.574 . S
C846 H840 0.949 . S
C846 C850 1.368 . S
C847 C828 1.429 . S
C847 C841 1.429 . S
C847 C848 1.523 . S
C848 C829 1.368 . S
C848 C842 1.368 . S
C848 C847 1.523 . S
C849 C833 1.429 . S
C849 C845 1.429 . S
C849 C850 1.523 . S
C850 C834 1.368 . S
C850 C846 1.368 . S
C850 C849 1.523 . S
H851 C826 0.950 . S
H852 C828 0.950 . S
H853 C829 0.949 . S
H854 C831 0.950 . S
H855 C833 0.950 . S
C856 C857 1.349 . S
C856 C858 1.327 . S
C856 H881 0.950 . S
C857 C856 1.349 . S
C857 C873 1.349 . S
C858 C856 1.327 . S
C858 C877 1.429 . S
C858 H882 0.950 . S
C859 C876 1.574 . S
C859 C878 1.368 . S
C859 H883 0.949 . S
H860 C864 0.949 . S
C861 C862 1.349 . S
C861 C863 1.327 . S
C861 H884 0.950 . S
C862 C861 1.349 . S
C862 C874 1.349 . S
C863 C861 1.327 . S
C863 C879 1.429 . S
C863 H885 0.950 . S
C864 H860 0.949 . S
C864 C872 1.574 . S
C864 C880 1.368 . S
H865 C873 0.950 . S
H866 C871 0.950 . S
H867 C872 0.949 . S
H868 C874 0.950 . S
H869 C875 0.950 . S
H870 C876 0.949 . S
C871 H866 0.950 . S
C871 C873 1.327 . S
C871 C877 1.429 . S
C872 C864 1.574 . S
C872 H867 0.949 . S
C872 C878 1.368 . S
C873 C857 1.349 . S
C873 H865 0.950 . S
C873 C871 1.327 . S
C874 C862 1.349 . S
C874 H868 0.950 . S
C874 C875 1.327 . S
C875 H869 0.950 . S
C875 C874 1.327 . S
C875 C879 1.429 . S
C876 C859 1.574 . S
C876 H870 0.949 . S
C876 C880 1.368 . S
C877 C858 1.429 . S
C877 C871 1.429 . S
C877 C878 1.523 . S
C878 C859 1.368 . S
C878 C872 1.368 . S
C878 C877 1.523 . S
C879 C863 1.429 . S
C879 C875 1.429 . S
C879 C880 1.523 . S
C880 C864 1.368 . S
C880 C876 1.368 . S
C880 C879 1.523 . S
H881 C856 0.950 . S
H882 C858 0.950 . S
H883 C859 0.949 . S
H884 C861 0.950 . S
H885 C863 0.950 . S
C886 C887 1.349 . S
C886 C888 1.327 . S
C886 H911 0.950 . S
C887 C886 1.349 . S
C887 C903 1.349 . S
C888 C886 1.327 . S
C888 C907 1.429 . S
C888 H912 0.950 . S
C889 C906 1.574 . S
C889 C908 1.368 . S
C889 H913 0.949 . S
H890 C894 0.949 . S
C891 C892 1.349 . S
C891 C893 1.327 . S
C891 H914 0.950 . S
C892 C891 1.349 . S
C892 C904 1.349 . S
C893 C891 1.327 . S
C893 C909 1.429 . S
C893 H915 0.950 . S
C894 H890 0.949 . S
C894 C902 1.574 . S
C894 C910 1.368 . S
H895 C903 0.950 . S
H896 C901 0.950 . S
H897 C902 0.949 . S
H898 C904 0.950 . S
H899 C905 0.950 . S
H900 C906 0.949 . S
C901 H896 0.950 . S
C901 C903 1.327 . S
C901 C907 1.429 . S
C902 C894 1.574 . S
C902 H897 0.949 . S
C902 C908 1.368 . S
C903 C887 1.349 . S
C903 H895 0.950 . S
C903 C901 1.327 . S
C904 C892 1.349 . S
C904 H898 0.950 . S
C904 C905 1.327 . S
C905 H899 0.950 . S
C905 C904 1.327 . S
C905 C909 1.429 . S
C906 C889 1.574 . S
C906 H900 0.949 . S
C906 C910 1.368 . S
C907 C888 1.429 . S
C907 C901 1.429 . S
C907 C908 1.523 . S
C908 C889 1.368 . S
C908 C902 1.368 . S
C908 C907 1.523 . S
C909 C893 1.429 . S
C909 C905 1.429 . S
C909 C910 1.523 . S
C910 C894 1.368 . S
C910 C906 1.368 . S
C910 C909 1.523 . S
H911 C886 0.950 . S
H912 C888 0.950 . S
H913 C889 0.949 . S
H914 C891 0.950 . S
H915 C893 0.950 . S
C916 C917 1.349 . S
C916 C918 1.327 . S
C916 H941 0.950 . S
C917 C916 1.349 . S
C917 C933 1.349 . S
C918 C916 1.327 . S
C918 C937 1.429 . S
C918 H942 0.950 . S
C919 C936 1.574 . S
C919 C938 1.368 . S
C919 H943 0.949 . S
H920 C924 0.949 1_554 S
C921 C922 1.349 . S
C921 C923 1.327 . S
C921 H944 0.950 . S
C922 C921 1.349 . S
C922 C934 1.349 1_556 S
C923 C921 1.327 . S
C923 C939 1.429 . S
C923 H945 0.950 . S
C924 H920 0.949 1_556 S
C924 C932 1.574 . S
C924 C940 1.368 . S
H925 C933 0.950 . S
H926 C931 0.950 . S
H927 C932 0.949 1_554 S
H928 C934 0.950 . S
H929 C935 0.950 . S
H930 C936 0.949 . S
C931 H926 0.950 . S
C931 C933 1.327 . S
C931 C937 1.429 . S
C932 C924 1.574 . S
C932 H927 0.949 1_556 S
C932 C938 1.368 . S
C933 C917 1.349 . S
C933 H925 0.950 . S
C933 C931 1.327 . S
C934 C922 1.349 1_554 S
C934 H928 0.950 . S
C934 C935 1.327 . S
C935 H929 0.950 . S
C935 C934 1.327 . S
C935 C939 1.429 1_554 S
C936 C919 1.574 . S
C936 H930 0.949 . S
C936 C940 1.368 . S
C937 C918 1.429 . S
C937 C931 1.429 . S
C937 C938 1.523 . S
C938 C919 1.368 . S
C938 C932 1.368 . S
C938 C937 1.523 . S
C939 C923 1.429 . S
C939 C935 1.429 1_556 S
C939 C940 1.523 . S
C940 C924 1.368 . S
C940 C936 1.368 . S
C940 C939 1.523 . S
H941 C916 0.950 . S
H942 C918 0.950 . S
H943 C919 0.949 . S
H944 C921 0.950 . S
H945 C923 0.950 . S
C946 C947 1.349 . S
C946 C948 1.327 . S
C946 H971 0.950 . S
C947 C946 1.349 . S
C947 C963 1.349 . S
C948 C946 1.327 . S
C948 C967 1.429 . S
C948 H972 0.950 . S
C949 C966 1.574 . S
C949 C968 1.368 . S
C949 H973 0.949 . S
H950 C954 0.949 . S
C951 C952 1.349 . S
C951 C953 1.327 . S
C951 H974 0.950 . S
C952 C951 1.349 . S
C952 C964 1.349 . S
C953 C951 1.327 . S
C953 C969 1.429 . S
C953 H975 0.950 . S
C954 H950 0.949 . S
C954 C962 1.574 . S
C954 C970 1.368 . S
H955 C963 0.950 . S
H956 C961 0.950 . S
H957 C962 0.949 . S
H958 C964 0.950 . S
H959 C965 0.950 . S
H960 C966 0.949 . S
C961 H956 0.950 . S
C961 C963 1.327 . S
C961 C967 1.429 . S
C962 C954 1.574 . S
C962 H957 0.949 . S
C962 C968 1.368 . S
C963 C947 1.349 . S
C963 H955 0.950 . S
C963 C961 1.327 . S
C964 C952 1.349 . S
C964 H958 0.950 . S
C964 C965 1.327 . S
C965 H959 0.950 . S
C965 C964 1.327 . S
C965 C969 1.429 . S
C966 C949 1.574 . S
C966 H960 0.949 . S
C966 C970 1.368 . S
C967 C948 1.429 . S
C967 C961 1.429 . S
C967 C968 1.523 . S
C968 C949 1.368 . S
C968 C962 1.368 . S
C968 C967 1.523 . S
C969 C953 1.429 . S
C969 C965 1.429 . S
C969 C970 1.523 . S
C970 C954 1.368 . S
C970 C966 1.368 . S
C970 C969 1.523 . S
H971 C946 0.950 . S
H972 C948 0.950 . S
H973 C949 0.949 . S
H974 C951 0.950 . S
H975 C953 0.950 . S
C976 C977 1.349 . S
C976 C978 1.327 . S
C976 H1001 0.950 . S
C977 C976 1.349 . S
C977 C993 1.349 . S
C978 C976 1.327 . S
C978 C997 1.429 . S
C978 H1002 0.950 . S
C979 C996 1.574 . S
C979 C998 1.368 . S
C979 H1003 0.949 . S
H980 C984 0.949 . S
C981 C982 1.349 . S
C981 C983 1.327 . S
C981 H1004 0.950 . S
C982 C981 1.349 . S
C982 C994 1.349 . S
C983 C981 1.327 . S
C983 C999 1.429 . S
C983 H1005 0.950 . S
C984 H980 0.949 . S
C984 C992 1.574 . S
C984 C1000 1.368 . S
H985 C993 0.950 . S
H986 C991 0.950 . S
H987 C992 0.949 . S
H988 C994 0.950 . S
H989 C995 0.950 . S
H990 C996 0.949 . S
C991 H986 0.950 . S
C991 C993 1.327 . S
C991 C997 1.429 . S
C992 C984 1.574 . S
C992 H987 0.949 . S
C992 C998 1.368 . S
C993 C977 1.349 . S
C993 H985 0.950 . S
C993 C991 1.327 . S
C994 C982 1.349 . S
C994 H988 0.950 . S
C994 C995 1.327 . S
C995 H989 0.950 . S
C995 C994 1.327 . S
C995 C999 1.429 . S
C996 C979 1.574 . S
C996 H990 0.949 . S
C996 C1000 1.368 . S
C997 C978 1.429 . S
C997 C991 1.429 . S
C997 C998 1.523 . S
C998 C979 1.368 . S
C998 C992 1.368 . S
C998 C997 1.523 . S
C999 C983 1.429 . S
C999 C995 1.429 . S
C999 C1000 1.523 . S
C1000 C984 1.368 . S
C1000 C996 1.368 . S
C1000 C999 1.523 . S
H1001 C976 0.950 . S
H1002 C978 0.950 . S
H1003 C979 0.949 . S
H1004 C981 0.950 . S
H1005 C983 0.950 . S
C1006 C1007 1.349 . S
C1006 C1008 1.327 . S
C1006 H1031 0.950 . S
C1007 C1006 1.349 . S
C1007 C1023 1.349 . S
C1008 C1006 1.327 . S
C1008 C1027 1.429 . S
C1008 H1032 0.950 . S
C1009 C1026 1.574 . S
C1009 C1028 1.368 . S
C1009 H1033 0.949 . S
H1010 C1014 0.949 . S
C1011 C1012 1.349 . S
C1011 C1013 1.327 . S
C1011 H1034 0.950 . S
C1012 C1011 1.349 . S
C1012 C1024 1.349 . S
C1013 C1011 1.327 . S
C1013 C1029 1.429 . S
C1013 H1035 0.950 . S
C1014 H1010 0.949 . S
C1014 C1022 1.574 . S
C1014 C1030 1.368 . S
H1015 C1023 0.950 . S
H1016 C1021 0.950 . S
H1017 C1022 0.949 . S
H1018 C1024 0.950 . S
H1019 C1025 0.950 . S
H1020 C1026 0.949 . S
C1021 H1016 0.950 . S
C1021 C1023 1.327 . S
C1021 C1027 1.429 . S
C1022 C1014 1.574 . S
C1022 H1017 0.949 . S
C1022 C1028 1.368 . S
C1023 C1007 1.349 . S
C1023 H1015 0.950 . S
C1023 C1021 1.327 . S
C1024 C1012 1.349 . S
C1024 H1018 0.950 . S
C1024 C1025 1.327 . S
C1025 H1019 0.950 . S
C1025 C1024 1.327 . S
C1025 C1029 1.429 . S
C1026 C1009 1.574 . S
C1026 H1020 0.949 . S
C1026 C1030 1.368 . S
C1027 C1008 1.429 . S
C1027 C1021 1.429 . S
C1027 C1028 1.523 . S
C1028 C1009 1.368 . S
C1028 C1022 1.368 . S
C1028 C1027 1.523 . S
C1029 C1013 1.429 . S
C1029 C1025 1.429 . S
C1029 C1030 1.523 . S
C1030 C1014 1.368 . S
C1030 C1026 1.368 . S
C1030 C1029 1.523 . S
H1031 C1006 0.950 . S
H1032 C1008 0.950 . S
H1033 C1009 0.949 . S
H1034 C1011 0.950 . S
H1035 C1013 0.950 . S
C1036 C1037 1.349 . S
C1036 C1038 1.327 . S
C1036 H1061 0.950 . S
C1037 C1036 1.349 . S
C1037 C1053 1.349 . S
C1038 C1036 1.327 . S
C1038 C1057 1.429 . S
C1038 H1062 0.950 . S
C1039 C1056 1.574 . S
C1039 C1058 1.368 . S
C1039 H1063 0.949 . S
H1040 C1044 0.949 . S
C1041 C1042 1.349 . S
C1041 C1043 1.327 . S
C1041 H1064 0.950 . S
C1042 C1041 1.349 . S
C1042 C1054 1.349 . S
C1043 C1041 1.327 . S
C1043 C1059 1.429 . S
C1043 H1065 0.950 . S
C1044 H1040 0.949 . S
C1044 C1052 1.574 . S
C1044 C1060 1.368 . S
H1045 C1053 0.950 . S
H1046 C1051 0.950 . S
H1047 C1052 0.949 . S
H1048 C1054 0.950 . S
H1049 C1055 0.950 . S
H1050 C1056 0.949 . S
C1051 H1046 0.950 . S
C1051 C1053 1.327 . S
C1051 C1057 1.429 . S
C1052 C1044 1.574 . S
C1052 H1047 0.949 . S
C1052 C1058 1.368 . S
C1053 C1037 1.349 . S
C1053 H1045 0.950 . S
C1053 C1051 1.327 . S
C1054 C1042 1.349 . S
C1054 H1048 0.950 . S
C1054 C1055 1.327 . S
C1055 H1049 0.950 . S
C1055 C1054 1.327 . S
C1055 C1059 1.429 . S
C1056 C1039 1.574 . S
C1056 H1050 0.949 . S
C1056 C1060 1.368 . S
C1057 C1038 1.429 . S
C1057 C1051 1.429 . S
C1057 C1058 1.523 . S
C1058 C1039 1.368 . S
C1058 C1052 1.368 . S
C1058 C1057 1.523 . S
C1059 C1043 1.429 . S
C1059 C1055 1.429 . S
C1059 C1060 1.523 . S
C1060 C1044 1.368 . S
C1060 C1056 1.368 . S
C1060 C1059 1.523 . S
H1061 C1036 0.950 . S
H1062 C1038 0.950 . S
H1063 C1039 0.949 . S
H1064 C1041 0.950 . S
H1065 C1043 0.950 . S
C1066 C1067 1.349 . S
C1066 C1068 1.327 . S
C1066 H1091 0.950 . S
C1067 C1066 1.349 . S
C1067 C1083 1.349 . S
C1068 C1066 1.327 . S
C1068 C1087 1.429 . S
C1068 H1092 0.950 . S
C1069 C1086 1.574 . S
C1069 C1088 1.368 . S
C1069 H1093 0.949 . S
H1070 C1074 0.949 . S
C1071 C1072 1.349 . S
C1071 C1073 1.327 . S
C1071 H1094 0.950 . S
C1072 C1071 1.349 . S
C1072 C1084 1.349 . S
C1073 C1071 1.327 . S
C1073 C1089 1.429 . S
C1073 H1095 0.950 . S
C1074 H1070 0.949 . S
C1074 C1082 1.574 . S
C1074 C1090 1.368 . S
H1075 C1083 0.950 . S
H1076 C1081 0.950 . S
H1077 C1082 0.949 . S
H1078 C1084 0.950 . S
H1079 C1085 0.950 . S
H1080 C1086 0.949 . S
C1081 H1076 0.950 . S
C1081 C1083 1.327 . S
C1081 C1087 1.429 . S
C1082 C1074 1.574 . S
C1082 H1077 0.949 . S
C1082 C1088 1.368 . S
C1083 C1067 1.349 . S
C1083 H1075 0.950 . S
C1083 C1081 1.327 . S
C1084 C1072 1.349 . S
C1084 H1078 0.950 . S
C1084 C1085 1.327 . S
C1085 H1079 0.950 . S
C1085 C1084 1.327 . S
C1085 C1089 1.429 . S
C1086 C1069 1.574 . S
C1086 H1080 0.949 . S
C1086 C1090 1.368 . S
C1087 C1068 1.429 . S
C1087 C1081 1.429 . S
C1087 C1088 1.523 . S
C1088 C1069 1.368 . S
C1088 C1082 1.368 . S
C1088 C1087 1.523 . S
C1089 C1073 1.429 . S
C1089 C1085 1.429 . S
C1089 C1090 1.523 . S
C1090 C1074 1.368 . S
C1090 C1086 1.368 . S
C1090 C1089 1.523 . S
H1091 C1066 0.950 . S
H1092 C1068 0.950 . S
H1093 C1069 0.949 . S
H1094 C1071 0.950 . S
H1095 C1073 0.950 . S
C1096 C1097 1.349 . S
C1096 C1098 1.327 . S
C1096 H1121 0.950 . S
C1097 C1096 1.349 . S
C1097 C1113 1.349 . S
C1098 C1096 1.327 . S
C1098 C1117 1.429 . S
C1098 H1122 0.950 . S
C1099 C1116 1.574 . S
C1099 C1118 1.368 . S
C1099 H1123 0.949 . S
H1100 C1104 0.949 . S
C1101 C1102 1.349 . S
C1101 C1103 1.327 . S
C1101 H1124 0.950 . S
C1102 C1101 1.349 . S
C1102 C1114 1.349 . S
C1103 C1101 1.327 . S
C1103 C1119 1.429 . S
C1103 H1125 0.950 . S
C1104 H1100 0.949 . S
C1104 C1112 1.574 . S
C1104 C1120 1.368 . S
H1105 C1113 0.950 . S
H1106 C1111 0.950 . S
H1107 C1112 0.949 . S
H1108 C1114 0.950 . S
H1109 C1115 0.950 . S
H1110 C1116 0.949 . S
C1111 H1106 0.950 . S
C1111 C1113 1.327 . S
C1111 C1117 1.429 . S
C1112 C1104 1.574 . S
C1112 H1107 0.949 . S
C1112 C1118 1.368 . S
C1113 C1097 1.349 . S
C1113 H1105 0.950 . S
C1113 C1111 1.327 . S
C1114 C1102 1.349 . S
C1114 H1108 0.950 . S
C1114 C1115 1.327 . S
C1115 H1109 0.950 . S
C1115 C1114 1.327 . S
C1115 C1119 1.429 . S
C1116 C1099 1.574 . S
C1116 H1110 0.949 . S
C1116 C1120 1.368 . S
C1117 C1098 1.429 . S
C1117 C1111 1.429 . S
C1117 C1118 1.523 . S
C1118 C1099 1.368 . S
C1118 C1112 1.368 . S
C1118 C1117 1.523 . S
C1119 C1103 1.429 . S
C1119 C1115 1.429 . S
C1119 C1120 1.523 . S
C1120 C1104 1.368 . S
C1120 C1116 1.368 . S
C1120 C1119 1.523 . S
H1121 C1096 0.950 . S
H1122 C1098 0.950 . S
H1123 C1099 0.949 . S
H1124 C1101 0.950 . S
H1125 C1103 0.950 . S
C1126 C1127 1.349 . S
C1126 C1128 1.327 . S
C1126 H1151 0.950 . S
C1127 C1126 1.349 . S
C1127 C1143 1.349 . S
C1128 C1126 1.327 . S
C1128 C1147 1.429 . S
C1128 H1152 0.950 . S
C1129 C1146 1.574 . S
C1129 C1148 1.368 . S
C1129 H1153 0.949 . S
H1130 C1134 0.949 . S
C1131 C1132 1.349 . S
C1131 C1133 1.327 . S
C1131 H1154 0.950 . S
C1132 C1131 1.349 . S
C1132 C1144 1.349 . S
C1133 C1131 1.327 . S
C1133 C1149 1.429 . S
C1133 H1155 0.950 . S
C1134 H1130 0.949 . S
C1134 C1142 1.574 . S
C1134 C1150 1.368 . S
H1135 C1143 0.950 . S
H1136 C1141 0.950 . S
H1137 C1142 0.949 . S
H1138 C1144 0.950 . S
H1139 C1145 0.950 . S
H1140 C1146 0.949 . S
C1141 H1136 0.950 . S
C1141 C1143 1.327 . S
C1141 C1147 1.429 . S
C1142 C1134 1.574 . S
C1142 H1137 0.949 . S
C1142 C1148 1.368 . S
C1143 C1127 1.349 . S
C1143 H1135 0.950 . S
C1143 C1141 1.327 . S
C1144 C1132 1.349 . S
C1144 H1138 0.950 . S
C1144 C1145 1.327 . S
C1145 H1139 0.950 . S
C1145 C1144 1.327 . S
C1145 C1149 1.429 . S
C1146 C1129 1.574 . S
C1146 H1140 0.949 . S
C1146 C1150 1.368 . S
C1147 C1128 1.429 . S
C1147 C1141 1.429 . S
C1147 C1148 1.523 . S
C1148 C1129 1.368 . S
C1148 C1142 1.368 . S
C1148 C1147 1.523 . S
C1149 C1133 1.429 . S
C1149 C1145 1.429 . S
C1149 C1150 1.523 . S
C1150 C1134 1.368 . S
C1150 C1146 1.368 . S
C1150 C1149 1.523 . S
H1151 C1126 0.950 . S
H1152 C1128 0.950 . S
H1153 C1129 0.949 . S
H1154 C1131 0.950 . S
H1155 C1133 0.950 . S
C1156 C1157 1.349 . S
C1156 C1158 1.327 . S
C1156 H1181 0.950 . S
C1157 C1156 1.349 . S
C1157 C1173 1.349 . S
C1158 C1156 1.327 . S
C1158 C1177 1.429 . S
C1158 H1182 0.950 . S
C1159 C1176 1.574 . S
C1159 C1178 1.368 . S
C1159 H1183 0.949 . S
H1160 C1164 0.949 . S
C1161 C1162 1.349 . S
C1161 C1163 1.327 . S
C1161 H1184 0.950 . S
C1162 C1161 1.349 . S
C1162 C1174 1.349 . S
C1163 C1161 1.327 . S
C1163 C1179 1.429 . S
C1163 H1185 0.950 . S
C1164 H1160 0.949 . S
C1164 C1172 1.574 . S
C1164 C1180 1.368 . S
H1165 C1173 0.950 . S
H1166 C1171 0.950 . S
H1167 C1172 0.949 . S
H1168 C1174 0.950 . S
H1169 C1175 0.950 . S
H1170 C1176 0.949 . S
C1171 H1166 0.950 . S
C1171 C1173 1.327 . S
C1171 C1177 1.429 . S
C1172 C1164 1.574 . S
C1172 H1167 0.949 . S
C1172 C1178 1.368 . S
C1173 C1157 1.349 . S
C1173 H1165 0.950 . S
C1173 C1171 1.327 . S
C1174 C1162 1.349 . S
C1174 H1168 0.950 . S
C1174 C1175 1.327 . S
C1175 H1169 0.950 . S
C1175 C1174 1.327 . S
C1175 C1179 1.429 . S
C1176 C1159 1.574 . S
C1176 H1170 0.949 . S
C1176 C1180 1.368 . S
C1177 C1158 1.429 . S
C1177 C1171 1.429 . S
C1177 C1178 1.523 . S
C1178 C1159 1.368 . S
C1178 C1172 1.368 . S
C1178 C1177 1.523 . S
C1179 C1163 1.429 . S
C1179 C1175 1.429 . S
C1179 C1180 1.523 . S
C1180 C1164 1.368 . S
C1180 C1176 1.368 . S
C1180 C1179 1.523 . S
H1181 C1156 0.950 . S
H1182 C1158 0.950 . S
H1183 C1159 0.949 . S
H1184 C1161 0.950 . S
H1185 C1163 0.950 . S
C1186 C1187 1.349 . S
C1186 C1188 1.327 . S
C1186 H1211 0.950 . S
C1187 C1186 1.349 . S
C1187 C1203 1.349 . S
C1188 C1186 1.327 . S
C1188 C1207 1.429 . S
C1188 H1212 0.950 . S
C1189 C1206 1.574 . S
C1189 C1208 1.368 . S
C1189 H1213 0.949 . S
H1190 C1194 0.949 . S
C1191 C1192 1.349 . S
C1191 C1193 1.327 . S
C1191 H1214 0.950 . S
C1192 C1191 1.349 . S
C1192 C1204 1.349 . S
C1193 C1191 1.327 . S
C1193 C1209 1.429 . S
C1193 H1215 0.950 . S
C1194 H1190 0.949 . S
C1194 C1202 1.574 . S
C1194 C1210 1.368 . S
H1195 C1203 0.950 . S
H1196 C1201 0.950 . S
H1197 C1202 0.949 . S
H1198 C1204 0.950 . S
H1199 C1205 0.950 . S
H1200 C1206 0.949 . S
C1201 H1196 0.950 . S
C1201 C1203 1.327 . S
C1201 C1207 1.429 . S
C1202 C1194 1.574 . S
C1202 H1197 0.949 . S
C1202 C1208 1.368 . S
C1203 C1187 1.349 . S
C1203 H1195 0.950 . S
C1203 C1201 1.327 . S
C1204 C1192 1.349 . S
C1204 H1198 0.950 . S
C1204 C1205 1.327 . S
C1205 H1199 0.950 . S
C1205 C1204 1.327 . S
C1205 C1209 1.429 . S
C1206 C1189 1.574 . S
C1206 H1200 0.949 . S
C1206 C1210 1.368 . S
C1207 C1188 1.429 . S
C1207 C1201 1.429 . S
C1207 C1208 1.523 . S
C1208 C1189 1.368 . S
C1208 C1202 1.368 . S
C1208 C1207 1.523 . S
C1209 C1193 1.429 . S
C1209 C1205 1.429 . S
C1209 C1210 1.523 . S
C1210 C1194 1.368 . S
C1210 C1206 1.368 . S
C1210 C1209 1.523 . S
H1211 C1186 0.950 . S
H1212 C1188 0.950 . S
H1213 C1189 0.949 . S
H1214 C1191 0.950 . S
H1215 C1193 0.950 . S
C1216 C1217 1.349 . S
C1216 C1218 1.327 . S
C1216 H1241 0.950 . S
C1217 C1216 1.349 . S
C1217 C1233 1.349 . S
C1218 C1216 1.327 . S
C1218 C1237 1.429 . S
C1218 H1242 0.950 . S
C1219 C1236 1.574 . S
C1219 C1238 1.368 . S
C1219 H1243 0.949 . S
H1220 C1224 0.949 . S
C1221 C1222 1.349 . S
C1221 C1223 1.327 . S
C1221 H1244 0.950 . S
C1222 C1221 1.349 . S
C1222 C1234 1.349 . S
C1223 C1221 1.327 . S
C1223 C1239 1.429 . S
C1223 H1245 0.950 . S
C1224 H1220 0.949 . S
C1224 C1232 1.574 . S
C1224 C1240 1.368 . S
H1225 C1233 0.950 . S
H1226 C1231 0.950 . S
H1227 C1232 0.949 . S
H1228 C1234 0.950 . S
H1229 C1235 0.950 . S
H1230 C1236 0.949 . S
C1231 H1226 0.950 . S
C1231 C1233 1.327 . S
C1231 C1237 1.429 . S
C1232 C1224 1.574 . S
C1232 H1227 0.949 . S
C1232 C1238 1.368 . S
C1233 C1217 1.349 . S
C1233 H1225 0.950 . S
C1233 C1231 1.327 . S
C1234 C1222 1.349 . S
C1234 H1228 0.950 . S
C1234 C1235 1.327 . S
C1235 H1229 0.950 . S
C1235 C1234 1.327 . S
C1235 C1239 1.429 . S
C1236 C1219 1.574 . S
C1236 H1230 0.949 . S
C1236 C1240 1.368 . S
C1237 C1218 1.429 . S
C1237 C1231 1.429 . S
C1237 C1238 1.523 . S
C1238 C1219 1.368 . S
C1238 C1232 1.368 . S
C1238 C1237 1.523 . S
C1239 C1223 1.429 . S
C1239 C1235 1.429 . S
C1239 C1240 1.523 . S
C1240 C1224 1.368 . S
C1240 C1236 1.368 . S
C1240 C1239 1.523 . S
H1241 C1216 0.950 . S
H1242 C1218 0.950 . S
H1243 C1219 0.949 . S
H1244 C1221 0.950 . S
H1245 C1223 0.950 . S
C1246 C1247 1.349 . S
C1246 C1248 1.327 . S
C1246 H1271 0.950 . S
C1247 C1246 1.349 . S
C1247 C1263 1.349 . S
C1248 C1246 1.327 . S
C1248 C1267 1.429 . S
C1248 H1272 0.950 . S
C1249 C1266 1.574 . S
C1249 C1268 1.368 . S
C1249 H1273 0.949 . S
H1250 C1254 0.949 . S
C1251 C1252 1.349 . S
C1251 C1253 1.327 . S
C1251 H1274 0.950 . S
C1252 C1251 1.349 . S
C1252 C1264 1.349 . S
C1253 C1251 1.327 . S
C1253 C1269 1.429 . S
C1253 H1275 0.950 . S
C1254 H1250 0.949 . S
C1254 C1262 1.574 . S
C1254 C1270 1.368 . S
H1255 C1263 0.950 . S
H1256 C1261 0.950 . S
H1257 C1262 0.949 . S
H1258 C1264 0.950 . S
H1259 C1265 0.950 . S
H1260 C1266 0.949 . S
C1261 H1256 0.950 . S
C1261 C1263 1.327 . S
C1261 C1267 1.429 . S
C1262 C1254 1.574 . S
C1262 H1257 0.949 . S
C1262 C1268 1.368 . S
C1263 C1247 1.349 . S
C1263 H1255 0.950 . S
C1263 C1261 1.327 . S
C1264 C1252 1.349 . S
C1264 H1258 0.950 . S
C1264 C1265 1.327 . S
C1265 H1259 0.950 . S
C1265 C1264 1.327 . S
C1265 C1269 1.429 . S
C1266 C1249 1.574 . S
C1266 H1260 0.949 . S
C1266 C1270 1.368 . S
C1267 C1248 1.429 . S
C1267 C1261 1.429 . S
C1267 C1268 1.523 . S
C1268 C1249 1.368 . S
C1268 C1262 1.368 . S
C1268 C1267 1.523 . S
C1269 C1253 1.429 . S
C1269 C1265 1.429 . S
C1269 C1270 1.523 . S
C1270 C1254 1.368 . S
C1270 C1266 1.368 . S
C1270 C1269 1.523 . S
H1271 C1246 0.950 . S
H1272 C1248 0.950 . S
H1273 C1249 0.949 . S
H1274 C1251 0.950 . S
H1275 C1253 0.950 . S
C1276 C1277 1.349 . S
C1276 C1278 1.327 . S
C1276 H1301 0.950 . S
C1277 C1276 1.349 . S
C1277 C1293 1.349 . S
C1278 C1276 1.327 . S
C1278 C1297 1.429 . S
C1278 H1302 0.950 . S
C1279 C1296 1.574 . S
C1279 C1298 1.368 . S
C1279 H1303 0.949 . S
H1280 C1284 0.949 . S
C1281 C1282 1.349 . S
C1281 C1283 1.327 . S
C1281 H1304 0.950 . S
C1282 C1281 1.349 . S
C1282 C1294 1.349 . S
C1283 C1281 1.327 . S
C1283 C1299 1.429 . S
C1283 H1305 0.950 . S
C1284 H1280 0.949 . S
C1284 C1292 1.574 . S
C1284 C1300 1.368 . S
H1285 C1293 0.950 . S
H1286 C1291 0.950 . S
H1287 C1292 0.949 . S
H1288 C1294 0.950 . S
H1289 C1295 0.950 . S
H1290 C1296 0.949 . S
C1291 H1286 0.950 . S
C1291 C1293 1.327 . S
C1291 C1297 1.429 . S
C1292 C1284 1.574 . S
C1292 H1287 0.949 . S
C1292 C1298 1.368 . S
C1293 C1277 1.349 . S
C1293 H1285 0.950 . S
C1293 C1291 1.327 . S
C1294 C1282 1.349 . S
C1294 H1288 0.950 . S
C1294 C1295 1.327 . S
C1295 H1289 0.950 . S
C1295 C1294 1.327 . S
C1295 C1299 1.429 . S
C1296 C1279 1.574 . S
C1296 H1290 0.949 . S
C1296 C1300 1.368 . S
C1297 C1278 1.429 . S
C1297 C1291 1.429 . S
C1297 C1298 1.523 . S
C1298 C1279 1.368 . S
C1298 C1292 1.368 . S
C1298 C1297 1.523 . S
C1299 C1283 1.429 . S
C1299 C1295 1.429 . S
C1299 C1300 1.523 . S
C1300 C1284 1.368 . S
C1300 C1296 1.368 . S
C1300 C1299 1.523 . S
H1301 C1276 0.950 . S
H1302 C1278 0.950 . S
H1303 C1279 0.949 . S
H1304 C1281 0.950 . S
H1305 C1283 0.950 . S
C1306 C1307 1.349 . S
C1306 C1308 1.327 . S
C1306 H1331 0.950 . S
C1307 C1306 1.349 . S
C1307 C1323 1.349 . S
C1308 C1306 1.327 . S
C1308 C1327 1.429 . S
C1308 H1332 0.950 . S
C1309 C1326 1.574 . S
C1309 C1328 1.368 . S
C1309 H1333 0.949 . S
H1310 C1314 0.949 . S
C1311 C1312 1.349 . S
C1311 C1313 1.327 . S
C1311 H1334 0.950 . S
C1312 C1311 1.349 . S
C1312 C1324 1.349 . S
C1313 C1311 1.327 . S
C1313 C1329 1.429 . S
C1313 H1335 0.950 . S
C1314 H1310 0.949 . S
C1314 C1322 1.574 . S
C1314 C1330 1.368 . S
H1315 C1323 0.950 . S
H1316 C1321 0.950 . S
H1317 C1322 0.949 . S
H1318 C1324 0.950 . S
H1319 C1325 0.950 . S
H1320 C1326 0.949 . S
C1321 H1316 0.950 . S
C1321 C1323 1.327 . S
C1321 C1327 1.429 . S
C1322 C1314 1.574 . S
C1322 H1317 0.949 . S
C1322 C1328 1.368 . S
C1323 C1307 1.349 . S
C1323 H1315 0.950 . S
C1323 C1321 1.327 . S
C1324 C1312 1.349 . S
C1324 H1318 0.950 . S
C1324 C1325 1.327 . S
C1325 H1319 0.950 . S
C1325 C1324 1.327 . S
C1325 C1329 1.429 . S
C1326 C1309 1.574 . S
C1326 H1320 0.949 . S
C1326 C1330 1.368 . S
C1327 C1308 1.429 . S
C1327 C1321 1.429 . S
C1327 C1328 1.523 . S
C1328 C1309 1.368 . S
C1328 C1322 1.368 . S
C1328 C1327 1.523 . S
C1329 C1313 1.429 . S
C1329 C1325 1.429 . S
C1329 C1330 1.523 . S
C1330 C1314 1.368 . S
C1330 C1326 1.368 . S
C1330 C1329 1.523 . S
H1331 C1306 0.950 . S
H1332 C1308 0.950 . S
H1333 C1309 0.949 . S
H1334 C1311 0.950 . S
H1335 C1313 0.950 . S
C1336 C1337 1.349 . S
C1336 C1338 1.327 . S
C1336 H1361 0.950 . S
C1337 C1336 1.349 . S
C1337 C1353 1.349 . S
C1338 C1336 1.327 . S
C1338 C1357 1.429 . S
C1338 H1362 0.950 . S
C1339 C1356 1.574 . S
C1339 C1358 1.368 . S
C1339 H1363 0.949 . S
H1340 C1344 0.949 . S
C1341 C1342 1.349 . S
C1341 C1343 1.327 . S
C1341 H1364 0.950 . S
C1342 C1341 1.349 . S
C1342 C1354 1.349 . S
C1343 C1341 1.327 . S
C1343 C1359 1.429 . S
C1343 H1365 0.950 . S
C1344 H1340 0.949 . S
C1344 C1352 1.574 . S
C1344 C1360 1.368 . S
H1345 C1353 0.950 . S
H1346 C1351 0.950 . S
H1347 C1352 0.949 . S
H1348 C1354 0.950 . S
H1349 C1355 0.950 . S
H1350 C1356 0.949 . S
C1351 H1346 0.950 . S
C1351 C1353 1.327 . S
C1351 C1357 1.429 . S
C1352 C1344 1.574 . S
C1352 H1347 0.949 . S
C1352 C1358 1.368 . S
C1353 C1337 1.349 . S
C1353 H1345 0.950 . S
C1353 C1351 1.327 . S
C1354 C1342 1.349 . S
C1354 H1348 0.950 . S
C1354 C1355 1.327 . S
C1355 H1349 0.950 . S
C1355 C1354 1.327 . S
C1355 C1359 1.429 . S
C1356 C1339 1.574 . S
C1356 H1350 0.949 . S
C1356 C1360 1.368 . S
C1357 C1338 1.429 . S
C1357 C1351 1.429 . S
C1357 C1358 1.523 . S
C1358 C1339 1.368 . S
C1358 C1352 1.368 . S
C1358 C1357 1.523 . S
C1359 C1343 1.429 . S
C1359 C1355 1.429 . S
C1359 C1360 1.523 . S
C1360 C1344 1.368 . S
C1360 C1356 1.368 . S
C1360 C1359 1.523 . S
H1361 C1336 0.950 . S
H1362 C1338 0.950 . S
H1363 C1339 0.949 . S
H1364 C1341 0.950 . S
H1365 C1343 0.950 . S
C1366 C1367 1.349 . S
C1366 C1368 1.327 . S
C1366 H1391 0.950 . S
C1367 C1366 1.349 . S
C1367 C1383 1.349 . S
C1368 C1366 1.327 . S
C1368 C1387 1.429 . S
C1368 H1392 0.950 . S
C1369 C1386 1.574 . S
C1369 C1388 1.368 . S
C1369 H1393 0.949 . S
H1370 C1374 0.949 . S
C1371 C1372 1.349 . S
C1371 C1373 1.327 . S
C1371 H1394 0.950 . S
C1372 C1371 1.349 . S
C1372 C1384 1.349 . S
C1373 C1371 1.327 . S
C1373 C1389 1.429 . S
C1373 H1395 0.950 . S
C1374 H1370 0.949 . S
C1374 C1382 1.574 . S
C1374 C1390 1.368 . S
H1375 C1383 0.950 . S
H1376 C1381 0.950 . S
H1377 C1382 0.949 . S
H1378 C1384 0.950 . S
H1379 C1385 0.950 . S
H1380 C1386 0.949 . S
C1381 H1376 0.950 . S
C1381 C1383 1.327 . S
C1381 C1387 1.429 . S
C1382 C1374 1.574 . S
C1382 H1377 0.949 . S
C1382 C1388 1.368 . S
C1383 C1367 1.349 . S
C1383 H1375 0.950 . S
C1383 C1381 1.327 . S
C1384 C1372 1.349 . S
C1384 H1378 0.950 . S
C1384 C1385 1.327 . S
C1385 H1379 0.950 . S
C1385 C1384 1.327 . S
C1385 C1389 1.429 . S
C1386 C1369 1.574 . S
C1386 H1380 0.949 . S
C1386 C1390 1.368 . S
C1387 C1368 1.429 . S
C1387 C1381 1.429 . S
C1387 C1388 1.523 . S
C1388 C1369 1.368 . S
C1388 C1382 1.368 . S
C1388 C1387 1.523 . S
C1389 C1373 1.429 . S
C1389 C1385 1.429 . S
C1389 C1390 1.523 . S
C1390 C1374 1.368 . S
C1390 C1386 1.368 . S
C1390 C1389 1.523 . S
H1391 C1366 0.950 . S
H1392 C1368 0.950 . S
H1393 C1369 0.949 . S
H1394 C1371 0.950 . S
H1395 C1373 0.950 . S
C1396 C1397 1.349 . S
C1396 C1398 1.327 . S
C1396 H1421 0.950 . S
C1397 C1396 1.349 . S
C1397 C1413 1.349 . S
C1398 C1396 1.327 . S
C1398 C1417 1.429 . S
C1398 H1422 0.950 . S
C1399 C1416 1.574 . S
C1399 C1418 1.368 . S
C1399 H1423 0.949 . S
H1400 C1404 0.949 . S
C1401 C1402 1.349 . S
C1401 C1403 1.327 . S
C1401 H1424 0.950 . S
C1402 C1401 1.349 . S
C1402 C1414 1.349 . S
C1403 C1401 1.327 . S
C1403 C1419 1.429 . S
C1403 H1425 0.950 . S
C1404 H1400 0.949 . S
C1404 C1412 1.574 . S
C1404 C1420 1.368 . S
H1405 C1413 0.950 . S
H1406 C1411 0.950 . S
H1407 C1412 0.949 . S
H1408 C1414 0.950 . S
H1409 C1415 0.950 . S
H1410 C1416 0.949 . S
C1411 H1406 0.950 . S
C1411 C1413 1.327 . S
C1411 C1417 1.429 . S
C1412 C1404 1.574 . S
C1412 H1407 0.949 . S
C1412 C1418 1.368 . S
C1413 C1397 1.349 . S
C1413 H1405 0.950 . S
C1413 C1411 1.327 . S
C1414 C1402 1.349 . S
C1414 H1408 0.950 . S
C1414 C1415 1.327 . S
C1415 H1409 0.950 . S
C1415 C1414 1.327 . S
C1415 C1419 1.429 . S
C1416 C1399 1.574 . S
C1416 H1410 0.949 . S
C1416 C1420 1.368 . S
C1417 C1398 1.429 . S
C1417 C1411 1.429 . S
C1417 C1418 1.523 . S
C1418 C1399 1.368 . S
C1418 C1412 1.368 . S
C1418 C1417 1.523 . S
C1419 C1403 1.429 . S
C1419 C1415 1.429 . S
C1419 C1420 1.523 . S
C1420 C1404 1.368 . S
C1420 C1416 1.368 . S
C1420 C1419 1.523 . S
H1421 C1396 0.950 . S
H1422 C1398 0.950 . S
H1423 C1399 0.949 . S
H1424 C1401 0.950 . S
H1425 C1403 0.950 . S
C1426 C1427 1.349 . S
C1426 C1428 1.327 . S
C1426 H1451 0.950 . S
C1427 C1426 1.349 . S
C1427 C1443 1.349 . S
C1428 C1426 1.327 . S
C1428 C1447 1.429 . S
C1428 H1452 0.950 . S
C1429 C1446 1.574 . S
C1429 C1448 1.368 . S
C1429 H1453 0.949 . S
H1430 C1434 0.949 . S
C1431 C1432 1.349 . S
C1431 C1433 1.327 . S
C1431 H1454 0.950 . S
C1432 C1431 1.349 . S
C1432 C1444 1.349 . S
C1433 C1431 1.327 . S
C1433 C1449 1.429 . S
C1433 H1455 0.950 . S
C1434 H1430 0.949 . S
C1434 C1442 1.574 . S
C1434 C1450 1.368 . S
H1435 C1443 0.950 . S
H1436 C1441 0.950 . S
H1437 C1442 0.949 . S
H1438 C1444 0.950 . S
H1439 C1445 0.950 . S
H1440 C1446 0.949 . S
C1441 H1436 0.950 . S
C1441 C1443 1.327 . S
C1441 C1447 1.429 . S
C1442 C1434 1.574 . S
C1442 H1437 0.949 . S
C1442 C1448 1.368 . S
C1443 C1427 1.349 . S
C1443 H1435 0.950 . S
C1443 C1441 1.327 . S
C1444 C1432 1.349 . S
C1444 H1438 0.950 . S
C1444 C1445 1.327 . S
C1445 H1439 0.950 . S
C1445 C1444 1.327 . S
C1445 C1449 1.429 . S
C1446 C1429 1.574 . S
C1446 H1440 0.949 . S
C1446 C1450 1.368 . S
C1447 C1428 1.429 . S
C1447 C1441 1.429 . S
C1447 C1448 1.523 . S
C1448 C1429 1.368 . S
C1448 C1442 1.368 . S
C1448 C1447 1.523 . S
C1449 C1433 1.429 . S
C1449 C1445 1.429 . S
C1449 C1450 1.523 . S
C1450 C1434 1.368 . S
C1450 C1446 1.368 . S
C1450 C1449 1.523 . S
H1451 C1426 0.950 . S
H1452 C1428 0.950 . S
H1453 C1429 0.949 . S
H1454 C1431 0.950 . S
H1455 C1433 0.950 . S
C502 C405 1.237 . S
C497 C36 1.218 . S
C532 C425 1.260 . S
C527 C93 1.270 . S
C562 C439 1.283 . S
C557 C126 1.301 . S
C587 C165 1.317 . S
C592 C397 1.318 . S
C617 C222 1.350 . S
C622 C391 1.386 . S
C647 C261 1.328 . S
C652 C411 1.333 . S
C682 C419 1.262 . S
C677 C318 1.248 . S
C712 C433 1.342 . S
C707 C381 1.327 . S
C737 C132 1.311 . S
C742 C461 1.341 . S
C772 C475 1.263 . S
C767 C189 1.253 . S
C797 C30 1.336 . S
C802 C495 1.333 . S
C832 C447 1.390 . S
C827 C69 1.344 . S
C857 C324 1.319 . S
C862 C453 1.315 . S
C887 C357 1.290 . S
C892 C467 1.283 . S
C922 C481 1.260 1_556 S
C917 C228 1.267 . S
C947 C285 1.227 . S
C952 C489 1.237 . S
C982 C420 1.732 . S
C977 C45 1.717 . S
C1012 C434 1.730 . S
C1007 C84 1.724 . S
C1037 C117 1.639 . S
C1042 C392 1.654 . S
C1067 C174 1.450 . S
C1072 C409 1.483 . S
C1097 C213 1.390 . S
C1102 C437 1.394 . S
C1132 C395 1.368 . S
C1127 C270 1.344 . S
C1162 C406 1.615 . S
C1157 C309 1.603 . S
C1192 C423 1.465 . S
C1187 C372 1.459 . S
C1222 C479 1.465 . S
C1217 C141 1.449 . S
C1252 C490 1.615 . S
C1247 C180 1.606 . S
C1277 C21 1.361 . S
C1282 C451 1.369 . S
C1312 C465 1.395 . S
C1307 C78 1.373 . S
C1342 C493 1.480 . S
C1337 C333 1.470 . S
C1367 C366 1.614 . S
C1372 C448 1.654 . S
C1402 C462 1.729 . S
C1397 C237 1.720 . S
C1432 C476 1.732 . S
C1427 C276 1.726 . S
