# Generated by pormake.
# Topology eea, (3,6)-cn, num edge types: 1
# Building blocks:
#     Node 0, Type 0, BuildingBlock: PAMTOO_clean_linker_0, # of connection points: 3
#     Node 1, Type 0, BuildingBlock: PAMTOO_clean_linker_0, # of connection points: 3
#     Node 2, Type 0, BuildingBlock: PAMTOO_clean_linker_0, # of connection points: 3
#     Node 3, Type 0, BuildingBlock: PAMTOO_clean_linker_0, # of connection points: 3
#     Node 4, Type 0, BuildingBlock: PAMTOO_clean_linker_0, # of connection points: 3
#     Node 5, Type 0, BuildingBlock: PAMTOO_clean_linker_0, # of connection points: 3
#     Node 6, Type 0, BuildingBlock: PAMTOO_clean_linker_0, # of connection points: 3
#     Node 7, Type 0, BuildingBlock: PAMTOO_clean_linker_0, # of connection points: 3
#     Node 8, Type 0, BuildingBlock: PAMTOO_clean_linker_0, # of connection points: 3
#     Node 9, Type 0, BuildingBlock: PAMTOO_clean_linker_0, # of connection points: 3
#     Node 10, Type 0, BuildingBlock: PAMTOO_clean_linker_0, # of connection points: 3
#     Node 11, Type 0, BuildingBlock: PAMTOO_clean_linker_0, # of connection points: 3
#     Node 12, Type 0, BuildingBlock: PAMTOO_clean_linker_0, # of connection points: 3
#     Node 13, Type 0, BuildingBlock: PAMTOO_clean_linker_0, # of connection points: 3
#     Node 14, Type 0, BuildingBlock: PAMTOO_clean_linker_0, # of connection points: 3
#     Node 15, Type 0, BuildingBlock: PAMTOO_clean_linker_0, # of connection points: 3
#     Node 16, Type 0, BuildingBlock: PAMTOO_clean_linker_0, # of connection points: 3
#     Node 17, Type 0, BuildingBlock: PAMTOO_clean_linker_0, # of connection points: 3
#     Node 18, Type 1, BuildingBlock: KUMJIN_clean_sbu_0, # of connection points: 6
#     Node 19, Type 1, BuildingBlock: KUMJIN_clean_sbu_0, # of connection points: 6
#     Node 20, Type 1, BuildingBlock: KUMJIN_clean_sbu_0, # of connection points: 6
#     Node 21, Type 1, BuildingBlock: KUMJIN_clean_sbu_0, # of connection points: 6
#     Node 22, Type 1, BuildingBlock: KUMJIN_clean_sbu_0, # of connection points: 6
#     Node 23, Type 1, BuildingBlock: KUMJIN_clean_sbu_0, # of connection points: 6
#     Node 24, Type 1, BuildingBlock: KUMJIN_clean_sbu_0, # of connection points: 6
#     Node 25, Type 1, BuildingBlock: KUMJIN_clean_sbu_0, # of connection points: 6
#     Node 26, Type 1, BuildingBlock: KUMJIN_clean_sbu_0, # of connection points: 6
#     Edge 27, Type (0, 1), BuildingBlock: MIFKUJ_clean_linker_0, # of connection points: 2
#     Edge 28, Type (0, 1), BuildingBlock: MIFKUJ_clean_linker_0, # of connection points: 2
#     Edge 29, Type (0, 1), BuildingBlock: MIFKUJ_clean_linker_0, # of connection points: 2
#     Edge 30, Type (0, 1), BuildingBlock: MIFKUJ_clean_linker_0, # of connection points: 2
#     Edge 31, Type (0, 1), BuildingBlock: MIFKUJ_clean_linker_0, # of connection points: 2
#     Edge 32, Type (0, 1), BuildingBlock: MIFKUJ_clean_linker_0, # of connection points: 2
#     Edge 33, Type (0, 1), BuildingBlock: MIFKUJ_clean_linker_0, # of connection points: 2
#     Edge 34, Type (0, 1), BuildingBlock: MIFKUJ_clean_linker_0, # of connection points: 2
#     Edge 35, Type (0, 1), BuildingBlock: MIFKUJ_clean_linker_0, # of connection points: 2
#     Edge 36, Type (0, 1), BuildingBlock: MIFKUJ_clean_linker_0, # of connection points: 2
#     Edge 37, Type (0, 1), BuildingBlock: MIFKUJ_clean_linker_0, # of connection points: 2
#     Edge 38, Type (0, 1), BuildingBlock: MIFKUJ_clean_linker_0, # of connection points: 2
#     Edge 39, Type (0, 1), BuildingBlock: MIFKUJ_clean_linker_0, # of connection points: 2
#     Edge 40, Type (0, 1), BuildingBlock: MIFKUJ_clean_linker_0, # of connection points: 2
#     Edge 41, Type (0, 1), BuildingBlock: MIFKUJ_clean_linker_0, # of connection points: 2
#     Edge 42, Type (0, 1), BuildingBlock: MIFKUJ_clean_linker_0, # of connection points: 2
#     Edge 43, Type (0, 1), BuildingBlock: MIFKUJ_clean_linker_0, # of connection points: 2
#     Edge 44, Type (0, 1), BuildingBlock: MIFKUJ_clean_linker_0, # of connection points: 2
#     Edge 45, Type (0, 1), BuildingBlock: MIFKUJ_clean_linker_0, # of connection points: 2
#     Edge 46, Type (0, 1), BuildingBlock: MIFKUJ_clean_linker_0, # of connection points: 2
#     Edge 47, Type (0, 1), BuildingBlock: MIFKUJ_clean_linker_0, # of connection points: 2
#     Edge 48, Type (0, 1), BuildingBlock: MIFKUJ_clean_linker_0, # of connection points: 2
#     Edge 49, Type (0, 1), BuildingBlock: MIFKUJ_clean_linker_0, # of connection points: 2
#     Edge 50, Type (0, 1), BuildingBlock: MIFKUJ_clean_linker_0, # of connection points: 2
#     Edge 51, Type (0, 1), BuildingBlock: MIFKUJ_clean_linker_0, # of connection points: 2
#     Edge 52, Type (0, 1), BuildingBlock: MIFKUJ_clean_linker_0, # of connection points: 2
#     Edge 53, Type (0, 1), BuildingBlock: MIFKUJ_clean_linker_0, # of connection points: 2
#     Edge 54, Type (0, 1), BuildingBlock: MIFKUJ_clean_linker_0, # of connection points: 2
#     Edge 55, Type (0, 1), BuildingBlock: MIFKUJ_clean_linker_0, # of connection points: 2
#     Edge 56, Type (0, 1), BuildingBlock: MIFKUJ_clean_linker_0, # of connection points: 2
#     Edge 57, Type (0, 1), BuildingBlock: MIFKUJ_clean_linker_0, # of connection points: 2
#     Edge 58, Type (0, 1), BuildingBlock: MIFKUJ_clean_linker_0, # of connection points: 2
#     Edge 59, Type (0, 1), BuildingBlock: MIFKUJ_clean_linker_0, # of connection points: 2
#     Edge 60, Type (0, 1), BuildingBlock: MIFKUJ_clean_linker_0, # of connection points: 2
#     Edge 61, Type (0, 1), BuildingBlock: MIFKUJ_clean_linker_0, # of connection points: 2
#     Edge 62, Type (0, 1), BuildingBlock: MIFKUJ_clean_linker_0, # of connection points: 2
#     Edge 63, Type (0, 1), BuildingBlock: MIFKUJ_clean_linker_0, # of connection points: 2
#     Edge 64, Type (0, 1), BuildingBlock: MIFKUJ_clean_linker_0, # of connection points: 2
#     Edge 65, Type (0, 1), BuildingBlock: MIFKUJ_clean_linker_0, # of connection points: 2
#     Edge 66, Type (0, 1), BuildingBlock: MIFKUJ_clean_linker_0, # of connection points: 2
#     Edge 67, Type (0, 1), BuildingBlock: MIFKUJ_clean_linker_0, # of connection points: 2
#     Edge 68, Type (0, 1), BuildingBlock: MIFKUJ_clean_linker_0, # of connection points: 2
#     Edge 69, Type (0, 1), BuildingBlock: MIFKUJ_clean_linker_0, # of connection points: 2
#     Edge 70, Type (0, 1), BuildingBlock: MIFKUJ_clean_linker_0, # of connection points: 2
#     Edge 71, Type (0, 1), BuildingBlock: MIFKUJ_clean_linker_0, # of connection points: 2
#     Edge 72, Type (0, 1), BuildingBlock: MIFKUJ_clean_linker_0, # of connection points: 2
#     Edge 73, Type (0, 1), BuildingBlock: MIFKUJ_clean_linker_0, # of connection points: 2
#     Edge 74, Type (0, 1), BuildingBlock: MIFKUJ_clean_linker_0, # of connection points: 2
#     Edge 75, Type (0, 1), BuildingBlock: MIFKUJ_clean_linker_0, # of connection points: 2
#     Edge 76, Type (0, 1), BuildingBlock: MIFKUJ_clean_linker_0, # of connection points: 2
#     Edge 77, Type (0, 1), BuildingBlock: MIFKUJ_clean_linker_0, # of connection points: 2
#     Edge 78, Type (0, 1), BuildingBlock: MIFKUJ_clean_linker_0, # of connection points: 2
#     Edge 79, Type (0, 1), BuildingBlock: MIFKUJ_clean_linker_0, # of connection points: 2
#     Edge 80, Type (0, 1), BuildingBlock: MIFKUJ_clean_linker_0, # of connection points: 2
# Relax obj value: 0.023
# Max RMSD: 0.153
# Mean RMSD: 0.113
data_MOF--net-eea--node1-KUMJIN_clean_sbu_0--node2-PAMTOO_clean_linker_0--edge1-MIFKUJ_clean_linker_0
_symmetry_space_group_name_H-M    P1
_symmetry_Int_Tables_number       1
_symmetry_cell_setting            triclinic
loop_
_symmetry_equiv_pos_as_xyz
'x, y, z'
_cell_length_a     71.301683
_cell_length_b     72.889396
_cell_length_c     82.625802
_cell_angle_alpha  90.21724
_cell_angle_beta   90.163958
_cell_angle_gamma 119.99754
loop_
_atom_site_label
_atom_site_type_symbol
_atom_site_fract_x
_atom_site_fract_y
_atom_site_fract_z
_atom_type_partial_charge
H0 H 0.22283 0.07029 0.43462 0.0
H1 H 0.21994 0.12802 0.4336 0.0
H2 H 0.19515 0.0845 0.39361 0.0
H3 H 0.21895 0.12832 0.38369 0.0
C4 C 0.21723 0.13623 0.39468 0.0
O5 O 0.20227 0.12109 0.4049 0.0
H6 H 0.23337 0.14492 0.40073 0.0
C7 C 0.2185 0.08085 0.42859 0.0
C8 C 0.20861 0.07519 0.41328 0.0
C9 C 0.22249 0.09976 0.43623 0.0
C10 C 0.21649 0.11306 0.42822 0.0
C11 C 0.20673 0.10756 0.41289 0.0
C12 C 0.20247 0.0885 0.40555 0.0
H13 H 0.94996 0.15756 0.43258 0.0
H14 H 0.89388 0.09519 0.43006 0.0
H15 H 0.93852 0.11783 0.39056 0.0
H16 H 0.89365 0.09115 0.37848 0.0
C17 C 0.88611 0.08476 0.39043 0.0
O18 O 0.90187 0.08648 0.40111 0.0
H19 H 0.87892 0.09441 0.39473 0.0
C20 C 0.94038 0.14274 0.42611 0.0
C21 C 0.94697 0.13985 0.4107 0.0
C22 C 0.92143 0.12667 0.43329 0.0
C23 C 0.90873 0.10761 0.42483 0.0
C24 C 0.91474 0.10464 0.40936 0.0
C25 C 0.93392 0.12058 0.40241 0.0
H26 H 0.86039 0.78552 0.43058 0.0
H27 H 0.92343 0.79116 0.42876 0.0
H28 H 0.90097 0.81266 0.38884 0.0
H29 H 0.92954 0.79654 0.37765 0.0
C30 C 0.93636 0.796 0.38964 0.0
O31 O 0.93349 0.80902 0.40036 0.0
H32 H 0.92729 0.77926 0.39382 0.0
C33 C 0.87524 0.78989 0.42413 0.0
C34 C 0.8783 0.79901 0.40867 0.0
C35 C 0.89129 0.7869 0.43159 0.0
C36 C 0.91089 0.79347 0.42338 0.0
C37 C 0.9144 0.80275 0.40803 0.0
C38 C 0.89818 0.80564 0.40075 0.0
H39 H 0.08012 0.22241 0.59176 0.0
H40 H 0.13677 0.21559 0.5935 0.0
H41 H 0.09291 0.19494 0.6335 0.0
H42 H 0.13971 0.21269 0.64447 0.0
C43 C 0.14626 0.21272 0.63227 0.0
O44 O 0.12941 0.19905 0.62221 0.0
H45 H 0.15382 0.22919 0.62755 0.0
C46 C 0.08996 0.21705 0.5979 0.0
C47 C 0.08375 0.20792 0.61338 0.0
C48 C 0.10912 0.22012 0.59055 0.0
C49 C 0.12215 0.21379 0.59895 0.0
C50 C 0.11647 0.20496 0.61442 0.0
C51 C 0.0973 0.20203 0.62161 0.0
H52 H 0.77744 0.85311 0.59729 0.0
H53 H 0.78487 0.91545 0.60097 0.0
H54 H 0.80829 0.89231 0.6391 0.0
H55 H 0.78972 0.9173 0.65198 0.0
C56 C 0.78946 0.92517 0.64054 0.0
O57 O 0.80318 0.92374 0.62951 0.0
H58 H 0.77249 0.91689 0.63588 0.0
C59 C 0.78279 0.86779 0.60391 0.0
C60 C 0.79315 0.87075 0.61896 0.0
C61 C 0.78003 0.88395 0.59712 0.0
C62 C 0.78728 0.90297 0.60579 0.0
C63 C 0.7972 0.90582 0.62095 0.0
C64 C 0.8005 0.88992 0.62738 0.0
H65 H 0.15477 0.93123 0.59165 0.0
H66 H 0.09174 0.87501 0.59178 0.0
H67 H 0.11523 0.91373 0.6344 0.0
H68 H 0.08918 0.86929 0.64316 0.0
C69 C 0.08171 0.86286 0.63113 0.0
O70 O 0.08315 0.87917 0.62172 0.0
H71 H 0.0908 0.85588 0.62529 0.0
C72 C 0.13989 0.92058 0.59782 0.0
C73 C 0.13713 0.92497 0.61397 0.0
C74 C 0.12374 0.90263 0.58955 0.0
C75 C 0.10458 0.88884 0.59781 0.0
C76 C 0.1016 0.89283 0.61393 0.0
C77 C 0.11773 0.91094 0.62191 0.0
H78 H 0.90113 0.41125 0.76638 0.0
H79 H 0.90056 0.47009 0.76546 0.0
H80 H 0.87753 0.42836 0.72439 0.0
H81 H 0.89959 0.4727 0.71499 0.0
C82 C 0.89863 0.47984 0.72666 0.0
O83 O 0.88372 0.46417 0.73657 0.0
H84 H 0.91502 0.4876 0.73236 0.0
C85 C 0.89792 0.42244 0.76011 0.0
C86 C 0.88924 0.41762 0.74437 0.0
C87 C 0.90219 0.44131 0.76793 0.0
C88 C 0.89713 0.45525 0.75986 0.0
C89 C 0.88816 0.45046 0.74427 0.0
C90 C 0.88411 0.43166 0.73657 0.0
H91 H 0.60887 0.49131 0.76589 0.0
H92 H 0.55346 0.4283 0.76336 0.0
H93 H 0.59765 0.45211 0.72367 0.0
H94 H 0.55275 0.42363 0.71186 0.0
C95 C 0.54555 0.41749 0.72394 0.0
O96 O 0.56171 0.41992 0.7345 0.0
H97 H 0.5381 0.42695 0.72813 0.0
C98 C 0.5993 0.47646 0.75947 0.0
C99 C 0.60585 0.4738 0.74396 0.0
C100 C 0.58039 0.46022 0.76666 0.0
C101 C 0.56801 0.44111 0.7581 0.0
C102 C 0.57421 0.43826 0.74267 0.0
C103 C 0.59318 0.45446 0.7357 0.0
H104 H 0.52865 0.12108 0.76539 0.0
H105 H 0.59034 0.12376 0.76382 0.0
H106 H 0.57014 0.14736 0.72395 0.0
H107 H 0.59322 0.12393 0.71454 0.0
C108 C 0.60334 0.12707 0.7256 0.0
O109 O 0.60113 0.14132 0.73538 0.0
H110 H 0.59729 0.11174 0.73202 0.0
C111 C 0.5436 0.12534 0.75916 0.0
C112 C 0.54725 0.13474 0.74375 0.0
C113 C 0.55894 0.12128 0.76664 0.0
C114 C 0.57835 0.12689 0.75845 0.0
C115 C 0.58228 0.13608 0.74305 0.0
C116 C 0.56677 0.13999 0.73575 0.0
H117 H 0.74371 0.55044 0.92639 0.0
H118 H 0.80258 0.54767 0.93033 0.0
H119 H 0.75887 0.52908 0.97044 0.0
H120 H 0.80612 0.5516 0.9803 0.0
C121 C 0.81276 0.54856 0.96909 0.0
O122 O 0.7958 0.53348 0.95985 0.0
H123 H 0.82145 0.56375 0.96236 0.0
C124 C 0.75432 0.54662 0.93319 0.0
C125 C 0.74868 0.53903 0.9491 0.0
C126 C 0.77389 0.55018 0.92628 0.0
C127 C 0.78765 0.54552 0.93546 0.0
C128 C 0.78233 0.53802 0.95133 0.0
C129 C 0.76294 0.53495 0.95819 0.0
H130 H 0.47468 0.19947 0.92487 0.0
H131 H 0.47416 0.25822 0.92737 0.0
H132 H 0.49876 0.23916 0.96738 0.0
H133 H 0.47473 0.25994 0.97823 0.0
C134 C 0.47468 0.26754 0.96659 0.0
O135 O 0.49032 0.26797 0.95654 0.0
H136 H 0.45828 0.25792 0.96106 0.0
C137 C 0.47839 0.21388 0.93133 0.0
C138 C 0.48755 0.21752 0.94693 0.0
C139 C 0.47357 0.22845 0.92409 0.0
C140 C 0.47813 0.24695 0.93259 0.0
C141 C 0.487 0.25063 0.9482 0.0
C142 C 0.49183 0.23605 0.95531 0.0
H143 H 0.81564 0.26586 0.92584 0.0
H144 H 0.75357 0.20838 0.92842 0.0
H145 H 0.77832 0.24997 0.96954 0.0
H146 H 0.7528 0.20552 0.98009 0.0
C147 C 0.74539 0.19846 0.96816 0.0
O148 O 0.74613 0.21411 0.95832 0.0
H149 H 0.75503 0.1918 0.96275 0.0
C150 C 0.80095 0.25531 0.93231 0.0
C151 C 0.79872 0.26038 0.94834 0.0
C152 C 0.78493 0.23651 0.92485 0.0
C153 C 0.7664 0.22277 0.93384 0.0
C154 C 0.76409 0.22753 0.94992 0.0
C155 C 0.78026 0.24631 0.95715 0.0
H156 H 0.55326 0.73537 0.10662 0.0
H157 H 0.54738 0.79148 0.10861 0.0
H158 H 0.52872 0.75322 0.06568 0.0
H159 H 0.55423 0.79837 0.05944 0.0
C160 C 0.55001 0.80472 0.07023 0.0
O161 O 0.53396 0.78817 0.07886 0.0
H162 H 0.56489 0.81342 0.07781 0.0
C163 C 0.54824 0.7458 0.10129 0.0
C164 C 0.53995 0.74167 0.08541 0.0
C165 C 0.55114 0.76374 0.10993 0.0
C166 C 0.54553 0.77759 0.10233 0.0
C167 C 0.53781 0.77392 0.08636 0.0
C168 C 0.53485 0.75593 0.07799 0.0
H169 H 0.28014 0.81697 0.10278 0.0
H170 H 0.22514 0.75398 0.09786 0.0
H171 H 0.27086 0.78041 0.05931 0.0
H172 H 0.22594 0.75467 0.04708 0.0
C173 C 0.2183 0.74622 0.0585 0.0
O174 O 0.2344 0.74766 0.06871 0.0
H175 H 0.20982 0.75397 0.0641 0.0
C176 C 0.27098 0.80246 0.09588 0.0
C177 C 0.27823 0.80076 0.08038 0.0
C178 C 0.25176 0.78577 0.10238 0.0
C179 C 0.23991 0.76713 0.09317 0.0
C180 C 0.24676 0.76529 0.0777 0.0
C181 C 0.26596 0.78195 0.0714 0.0
H182 H 0.19588 0.45747 0.09647 0.0
H183 H 0.25898 0.46299 0.09496 0.0
H184 H 0.23708 0.48544 0.05526 0.0
H185 H 0.26353 0.46664 0.0445 0.0
C186 C 0.2718 0.46752 0.05615 0.0
O187 O 0.26922 0.48096 0.06662 0.0
H188 H 0.26398 0.45121 0.0612 0.0
C189 C 0.21093 0.46201 0.09025 0.0
C190 C 0.2143 0.47146 0.07493 0.0
C191 C 0.22689 0.45894 0.09778 0.0
C192 C 0.24655 0.4655 0.08962 0.0
C193 C 0.25023 0.47498 0.07432 0.0
C194 C 0.2342 0.47818 0.06709 0.0
H195 H 0.4167 0.89513 0.26409 0.0
H196 H 0.47302 0.88784 0.26602 0.0
H197 H 0.42902 0.86751 0.30597 0.0
H198 H 0.47424 0.88246 0.31755 0.0
C199 C 0.48139 0.88378 0.30537 0.0
O200 O 0.4651 0.87079 0.29465 0.0
H201 H 0.48877 0.90065 0.30162 0.0
C202 C 0.42663 0.89007 0.27045 0.0
C203 C 0.42034 0.88105 0.28596 0.0
C204 C 0.44559 0.8927 0.26307 0.0
C205 C 0.45845 0.88619 0.27147 0.0
C206 C 0.45251 0.87714 0.28688 0.0
C207 C 0.4334 0.87442 0.29403 0.0
H208 H 0.13366 0.52847 0.25651 0.0
H209 H 0.13668 0.58886 0.26019 0.0
H210 H 0.15856 0.5665 0.29976 0.0
H211 H 0.13907 0.59095 0.31141 0.0
C212 C 0.13848 0.59796 0.29962 0.0
O213 O 0.15329 0.59739 0.28922 0.0
H214 H 0.12172 0.58835 0.29469 0.0
C215 C 0.1376 0.54267 0.26335 0.0
C216 C 0.14637 0.54534 0.27903 0.0
C217 C 0.13398 0.5582 0.25637 0.0
C218 C 0.13972 0.57684 0.26514 0.0
C219 C 0.14867 0.57977 0.28068 0.0
C220 C 0.15211 0.56417 0.28756 0.0
H221 H 0.48935 0.60418 0.25965 0.0
H222 H 0.43135 0.54283 0.26116 0.0
H223 H 0.44868 0.58536 0.30171 0.0
H224 H 0.42647 0.54122 0.31203 0.0
C225 C 0.41892 0.53344 0.30031 0.0
O226 O 0.41945 0.54838 0.28979 0.0
H227 H 0.4285 0.52647 0.29532 0.0
C228 C 0.47501 0.59244 0.26589 0.0
C229 C 0.47081 0.59702 0.28153 0.0
C230 C 0.46109 0.57284 0.25838 0.0
C231 C 0.44233 0.55805 0.26663 0.0
C232 C 0.4378 0.56259 0.28217 0.0
C233 C 0.45216 0.58198 0.28966 0.0
Eu234 Eu 0.49512 0.99301 0.99236 0.0
C235 C 0.53817 0.06259 0.04556 0.0
C236 C 0.5759 0.07239 0.04351 0.0
C237 C 0.56629 0.09877 0.05147 0.0
C238 C 0.55371 0.0572 0.042 0.0
C239 C 0.54426 0.08323 0.0509 0.0
C240 C 0.5821 0.09336 0.04775 0.0
C241 C 0.50659 0.07088 0.05665 0.0
N242 N 0.51708 0.04714 0.04504 0.0
C243 C 0.50139 0.05063 0.05129 0.0
C244 C 0.52807 0.08736 0.05615 0.0
Eu245 Eu 0.50932 0.01364 0.03472 0.0
N246 N 0.54713 0.03677 0.03804 0.0
C247 C 0.56185 0.03004 0.03689 0.0
C248 C 0.59113 0.06588 0.04121 0.0
C249 C 0.58405 0.04453 0.0382 0.0
H250 H 0.48473 0.03793 0.05148 0.0
H251 H 0.59568 0.03923 0.03677 0.0
H252 H 0.59907 0.10533 0.0487 0.0
H253 H 0.49403 0.07376 0.0611 0.0
H254 H 0.55664 0.01364 0.03441 0.0
H255 H 0.41602 0.98858 0.99116 0.0
H256 H 0.60833 0.07706 0.04219 0.0
H257 H 0.50827 0.9584 0.97747 0.0
H258 H 0.45506 0.00545 0.99541 0.0
H259 H 0.49025 0.92126 0.96772 0.0
H260 H 0.5713 0.11481 0.0553 0.0
H261 H 0.39521 0.95129 0.98242 0.0
H262 H 0.39455 0.91749 0.97514 0.0
H263 H 0.53207 0.103 0.06037 0.0
H264 H 0.41457 0.89885 0.96947 0.0
N265 N 0.45696 0.97787 0.98943 0.0
C266 C 0.44651 0.98914 0.99162 0.0
C267 C 0.4124 0.95841 0.98456 0.0
C268 C 0.42307 0.94694 0.98216 0.0
C269 C 0.42416 0.97957 0.98932 0.0
C270 C 0.4457 0.95729 0.98457 0.0
H271 H 0.45024 0.90013 0.96657 0.0
N272 N 0.47878 0.9576 0.98293 0.0
C273 C 0.48065 0.92814 0.9717 0.0
C274 C 0.45692 0.94677 0.98142 0.0
C275 C 0.49078 0.94906 0.97731 0.0
C276 C 0.45808 0.91627 0.9711 0.0
C277 C 0.44592 0.92571 0.9756 0.0
O278 O 0.51251 0.99611 0.96984 0.0
O279 O 0.51994 0.01719 0.00888 0.0
O280 O 0.50452 0.03798 0.02133 0.0
O281 O 0.49276 0.0228 0.99557 0.0
O282 O 0.53088 0.00363 0.99209 0.0
O283 O 0.49138 0.00934 0.97152 0.0
O284 O 0.49135 0.00416 0.05752 0.0
O285 O 0.4849 0.98901 0.01818 0.0
O286 O 0.49999 0.96907 0.00641 0.0
O287 O 0.51834 0.98816 0.02973 0.0
O288 O 0.47294 1.00046 0.03574 0.0
O289 O 0.51936 1.00055 0.05446 0.0
C290 C 0.53677 0.01807 0.00316 0.0
C291 C 0.49626 0.99869 0.94557 0.0
C292 C 0.49704 0.00658 0.9167 0.0
C293 C 0.50454 0.01316 0.93268 0.0
C294 C 0.48138 0.98521 0.91389 0.0
C295 C 0.4805 0.97758 0.94243 0.0
C296 C 0.47319 0.97089 0.92667 0.0
C297 C 0.4973 0.03778 0.00654 0.0
C298 C 0.50402 0.00586 0.96221 0.0
C299 C 0.42331 0.91507 0.97381 0.0
C300 C 0.41191 0.9257 0.97702 0.0
C301 C 0.46766 0.98685 0.02412 0.0
C302 C 0.51196 0.00737 0.08092 0.0
C303 C 0.50426 0.99379 0.09439 0.0
C304 C 0.51184 0.00167 0.11014 0.0
C305 C 0.52691 0.02338 0.11214 0.0
C306 C 0.52712 0.02887 0.08329 0.0
C307 C 0.53445 0.03682 0.09881 0.0
C308 C 0.51104 0.97145 0.01995 0.0
C309 C 0.50453 0.99903 0.06443 0.0
H310 H 0.5165 0.02956 0.93515 0.0
H311 H 0.47556 0.97946 0.90176 0.0
H312 H 0.47383 0.96626 0.95211 0.0
H313 H 0.46112 0.95452 0.92434 0.0
H314 H 0.49276 0.9771 0.09255 0.0
H315 H 0.53276 0.03006 0.12406 0.0
H316 H 0.53339 0.03949 0.07314 0.0
H317 H 0.54607 0.05347 0.10052 0.0
Eu318 Eu 0.02066 0.50133 0.99549 0.0
C319 C 0.94591 0.46934 0.04631 0.0
C320 C 0.93397 0.49511 0.04737 0.0
C321 C 0.90872 0.45821 0.05357 0.0
C322 C 0.95019 0.48991 0.04427 0.0
C323 C 0.92523 0.45331 0.05121 0.0
C324 C 0.91311 0.47909 0.05171 0.0
C325 C 0.9393 0.4293 0.05264 0.0
N326 N 0.96235 0.46525 0.04431 0.0
C327 C 0.95958 0.44576 0.04791 0.0
C328 C 0.92197 0.43301 0.05411 0.0
Eu329 Eu 0.99604 0.49389 0.03605 0.0
N330 N 0.97052 0.50506 0.04013 0.0
C331 C 0.97605 0.52587 0.0397 0.0
C332 C 0.93939 0.51636 0.04653 0.0
C333 C 0.96056 0.53182 0.04275 0.0
H334 H 0.9729 0.44278 0.04676 0.0
H335 H 0.96506 0.54834 0.04229 0.0
H336 H 0.90039 0.48277 0.05399 0.0
H337 H 0.93713 0.41383 0.05525 0.0
H338 H 0.99237 0.53796 0.03685 0.0
H339 H 0.04708 0.44253 0.99527 0.0
H340 H 0.92749 0.52098 0.04923 0.0
H341 H 0.04713 0.55031 0.98023 0.0
H342 H 0.02078 0.45501 0.99599 0.0
H343 H 0.08476 0.57778 0.97377 0.0
H344 H 0.89269 0.4461 0.05724 0.0
H345 H 0.08617 0.46823 0.99248 0.0
H346 H 0.11565 0.5059 0.98813 0.0
H347 H 0.90631 0.42026 0.05788 0.0
H348 H 0.126 0.54291 0.9824 0.0
N349 N 0.04463 0.48761 0.99378 0.0
C350 C 0.03771 0.46644 0.99459 0.0
C351 C 0.07466 0.47382 0.99267 0.0
C352 C 0.08151 0.49533 0.99086 0.0
C353 C 0.05261 0.45927 0.9942 0.0
C354 C 0.06585 0.50175 0.99125 0.0
H355 H 0.11453 0.56982 0.97672 0.0
N356 N 0.05582 0.52754 0.98729 0.0
C357 C 0.08133 0.56232 0.97785 0.0
C358 C 0.07166 0.52246 0.988 0.0
C359 C 0.06008 0.54676 0.98145 0.0
C360 C 0.09809 0.55779 0.97958 0.0
C361 C 0.0933 0.53748 0.98432 0.0
O362 O 0.01374 0.50982 0.9718 0.0
O363 O 0.99427 0.50104 0.0101 0.0
O364 O 0.97169 0.46816 0.01958 0.0
O365 O 0.99496 0.46669 1.00061 0.0
O366 O 0.00739 0.5238 0.99241 0.0
O367 O 0.0076 0.47799 0.97594 0.0
O368 O 1.00485 0.48586 0.05917 0.0
O369 O 0.02305 0.4955 0.02158 0.0
O370 O 0.04317 0.53002 0.01048 0.0
O371 O 0.02084 0.52887 0.03171 0.0
O372 O 0.00988 0.47181 0.03846 0.0
O373 O 0.00774 0.51673 0.05599 0.0
C374 C 0.99292 0.51598 0.00358 0.0
C375 C 0.01775 0.49173 0.94967 0.0
C376 C 0.01403 0.48735 0.92036 0.0
C377 C 1.00516 0.48715 0.93558 0.0
C378 C 0.03576 0.49224 0.91948 0.0
C379 C 0.03936 0.49655 0.94858 0.0
C380 C 0.0483 0.49682 0.93353 0.0
C381 C 0.97584 0.45836 0.00784 0.0
C382 C 0.00806 0.49142 0.96536 0.0
C383 C 0.10923 0.53153 0.98494 0.0
C384 C 0.10333 0.51046 0.98819 0.0
C385 C 0.02498 0.48083 0.02787 0.0
C386 C 1.00067 0.50242 0.08229 0.0
C387 C 0.01494 0.5096 0.09552 0.0
C388 C 0.00703 0.50772 0.11134 0.0
C389 C 0.98462 0.4987 0.11374 0.0
C390 C 0.97838 0.49359 0.08485 0.0
C391 C 0.97041 0.49179 0.10053 0.0
C392 C 0.03878 0.53863 0.02297 0.0
C393 C 0.00936 0.50378 0.06601 0.0
H394 H 0.98837 0.48314 0.93654 0.0
H395 H 0.04314 0.49278 0.90792 0.0
H396 H 0.04926 0.50008 0.95932 0.0
H397 H 0.06501 0.50061 0.93274 0.0
H398 H 0.03216 0.51619 0.09353 0.0
H399 H 0.97814 0.49716 0.12582 0.0
H400 H 0.96716 0.488 0.0748 0.0
H401 H 0.95319 0.48492 0.10244 0.0
Eu402 Eu 0.52806 0.51388 0.03262 0.0
C403 C 0.47954 0.53648 0.98037 0.0
C404 C 0.4417 0.51063 0.98427 0.0
C405 C 0.45192 0.54573 0.97432 0.0
C406 C 0.46377 0.51655 0.9852 0.0
C407 C 0.47378 0.55111 0.97445 0.0
C408 C 0.43589 0.52552 0.97925 0.0
C409 C 0.51142 0.57445 0.96782 0.0
N410 N 0.50046 0.54108 0.98053 0.0
C411 C 0.51632 0.55941 0.97384 0.0
C412 C 0.49011 0.57043 0.96835 0.0
Eu413 Eu 0.5077 0.51535 0.99157 0.0
N414 N 0.46995 0.50249 0.9898 0.0
C415 C 0.45481 0.48176 0.99231 0.0
C416 C 0.42611 0.48973 0.98788 0.0
C417 C 0.4327 0.47513 0.99162 0.0
H418 H 0.53284 0.56264 0.97357 0.0
H419 H 0.42078 0.45881 0.99409 0.0
H420 H 0.41903 0.52136 0.97866 0.0
H421 H 0.5241 0.58916 0.96285 0.0
H422 H 0.45966 0.47034 0.99534 0.0
H423 H 0.61481 0.57079 0.02885 0.0
H424 H 0.40899 0.48456 0.98738 0.0
H425 H 0.50336 0.46625 0.05014 0.0
H426 H 0.57589 0.55901 0.02798 0.0
H427 H 0.51254 0.43993 0.06061 0.0
H428 H 0.44718 0.55685 0.97 0.0
H429 H 0.627 0.54546 0.03596 0.0
H430 H 0.61742 0.50895 0.0451 0.0
H431 H 0.48635 0.58209 0.96367 0.0
H432 H 0.58961 0.47337 0.05386 0.0
N433 N 0.56591 0.5271 0.03417 0.0
C434 C 0.58089 0.54776 0.03119 0.0
C435 C 0.60984 0.54018 0.03564 0.0
C436 C 0.59446 0.51935 0.03961 0.0
C437 C 0.60303 0.55453 0.03165 0.0
C438 C 0.57232 0.51325 0.03887 0.0
H439 H 0.5505 0.44763 0.05997 0.0
N440 N 0.53571 0.48831 0.04344 0.0
C441 C 0.52511 0.45482 0.05582 0.0
C442 C 0.55673 0.49323 0.04368 0.0
C443 C 0.51997 0.46975 0.04994 0.0
C444 C 0.54656 0.4592 0.0554 0.0
C445 C 0.56274 0.47873 0.04949 0.0
O446 O 0.51244 0.50902 0.05617 0.0
O447 O 0.50107 0.51259 0.01805 0.0
O448 O 0.51288 0.54457 0.00499 0.0
O449 O 0.53776 0.54755 0.02475 0.0
O450 O 0.49215 0.49148 0.03693 0.0
O451 O 0.54093 0.53908 0.05085 0.0
O452 O 0.52306 0.5199 0.96793 0.0
O453 O 0.53456 0.51663 0.00618 0.0
O454 O 0.52304 0.48484 0.01907 0.0
O455 O 0.49785 0.48165 0.99952 0.0
O456 O 0.54371 0.53744 0.9872 0.0
O457 O 0.49494 0.48975 0.97368 0.0
C458 C 0.48498 0.49843 0.02555 0.0
C459 C 0.53526 0.52774 0.07807 0.0
C460 C 0.53376 0.53194 0.10734 0.0
C461 C 0.52612 0.53203 0.0916 0.0
C462 C 0.55059 0.5273 0.10926 0.0
C463 C 0.55207 0.52329 0.08028 0.0
C464 C 0.55965 0.52304 0.09581 0.0
C465 C 0.52749 0.55538 0.01634 0.0
C466 C 0.5268 0.52754 0.06179 0.0
C467 C 0.58468 0.48438 0.04961 0.0
C468 C 0.60051 0.50464 0.04464 0.0
C469 C 0.55079 0.53047 0.99863 0.0
C470 C 0.50005 0.50042 0.94633 0.0
C471 C 0.50878 0.49553 0.93285 0.0
C472 C 0.50081 0.49516 0.91714 0.0
C473 C 0.48403 0.49988 0.91523 0.0
C474 C 0.48328 0.50493 0.94412 0.0
C475 C 0.47534 0.50466 0.92863 0.0
C476 C 0.50844 0.47398 0.00774 0.0
C477 C 0.50884 0.50116 0.96257 0.0
H478 H 0.51327 0.53568 0.08981 0.0
H479 H 0.55661 0.52671 0.12118 0.0
H480 H 0.55931 0.51998 0.07003 0.0
H481 H 0.57256 0.51948 0.09744 0.0
H482 H 0.5216 0.49184 0.93465 0.0
H483 H 0.47779 0.50018 0.90333 0.0
H484 H 0.47637 0.5087 0.95433 0.0
H485 H 0.46248 0.50829 0.92699 0.0
Eu486 Eu 0.16597 0.32964 0.32335 0.0
C487 C 0.2128 0.39748 0.37727 0.0
C488 C 0.25022 0.40609 0.37546 0.0
C489 C 0.24169 0.43299 0.3841 0.0
C490 C 0.22791 0.3915 0.37365 0.0
C491 C 0.21948 0.41813 0.38291 0.0
C492 C 0.25704 0.42698 0.38035 0.0
C493 C 0.1818 0.40737 0.387 0.0
N494 N 0.1915 0.38274 0.37605 0.0
C495 C 0.17599 0.38707 0.38139 0.0
C496 C 0.20363 0.42306 0.38757 0.0
Eu497 Eu 0.18285 0.34918 0.36547 0.0
N498 N 0.22076 0.37119 0.36895 0.0
C499 C 0.23502 0.36402 0.36699 0.0
C500 C 0.26498 0.39911 0.37259 0.0
C501 C 0.25732 0.37791 0.36857 0.0
H502 H 0.15909 0.37499 0.38082 0.0
H503 H 0.26858 0.37226 0.36659 0.0
H504 H 0.27412 0.43848 0.38161 0.0
H505 H 0.16945 0.41091 0.39084 0.0
H506 H 0.22938 0.34773 0.36375 0.0
H507 H 0.07966 0.30325 0.32055 0.0
H508 H 0.28226 0.40984 0.37376 0.0
H509 H 0.19238 0.30675 0.30738 0.0
H510 H 0.11825 0.3283 0.32563 0.0
H511 H 0.18415 0.2724 0.29535 0.0
H512 H 0.24716 0.44901 0.38823 0.0
H513 H 0.06801 0.26697 0.31061 0.0
H514 H 0.07803 0.24002 0.3019 0.0
H515 H 0.2081 0.43876 0.39195 0.0
H516 H 0.10646 0.23154 0.29518 0.0
N517 N 0.12846 0.30634 0.31927 0.0
C518 C 0.11344 0.3125 0.32148 0.0
C519 C 0.08496 0.27783 0.31314 0.0
C520 C 0.10049 0.27182 0.3104 0.0
C521 C 0.09148 0.2983 0.31863 0.0
C522 C 0.12243 0.28671 0.31346 0.0
H523 H 0.14608 0.24363 0.29245 0.0
N524 N 0.15936 0.29723 0.31167 0.0
C525 C 0.17112 0.27484 0.29938 0.0
C526 C 0.13839 0.28196 0.30961 0.0
C527 C 0.17573 0.29427 0.30617 0.0
C528 C 0.14962 0.25862 0.29781 0.0
C529 C 0.13291 0.26218 0.30269 0.0
O530 O 0.18378 0.34126 0.30069 0.0
O531 O 0.19188 0.35336 0.33945 0.0
O532 O 0.18042 0.37438 0.35138 0.0
O533 O 0.15617 0.35389 0.331 0.0
O534 O 0.20197 0.34143 0.32097 0.0
O535 O 0.15551 0.34418 0.30497 0.0
O536 O 0.16571 0.34008 0.38856 0.0
O537 O 0.15685 0.32537 0.34943 0.0
O538 O 0.16839 0.30411 0.33697 0.0
O539 O 0.19126 0.32374 0.35837 0.0
O540 O 0.14682 0.33746 0.36783 0.0
O541 O 0.1922 0.33427 0.38428 0.0
C542 C 0.20843 0.3548 0.33281 0.0
C543 C 0.16316 0.33979 0.27787 0.0
C544 C 0.16487 0.34762 0.24894 0.0
C545 C 0.17182 0.35428 0.26501 0.0
C546 C 0.14944 0.3262 0.24602 0.0
C547 C 0.14765 0.31864 0.27461 0.0
C548 C 0.14092 0.31189 0.25877 0.0
C549 C 0.16668 0.37166 0.33958 0.0
C550 C 0.17042 0.34674 0.29463 0.0
C551 C 0.11102 0.2469 0.30036 0.0
C552 C 0.09483 0.25173 0.30418 0.0
C553 C 0.14027 0.3239 0.3561 0.0
C554 C 0.18627 0.34094 0.41126 0.0
C555 C 0.17735 0.32713 0.42449 0.0
C556 C 0.18509 0.33416 0.44036 0.0
C557 C 0.2017 0.35529 0.44269 0.0
C558 C 0.20289 0.36183 0.41394 0.0
C559 C 0.2105 0.36896 0.42957 0.0
C560 C 0.18127 0.30632 0.34931 0.0
C561 C 0.17815 0.33351 0.39474 0.0
H562 H 0.18364 0.37069 0.26756 0.0
H563 H 0.14406 0.32041 0.23383 0.0
H564 H 0.14076 0.30733 0.28428 0.0
H565 H 0.12904 0.29548 0.25636 0.0
H566 H 0.16466 0.31091 0.42238 0.0
H567 H 0.20775 0.36139 0.45471 0.0
H568 H 0.20997 0.37264 0.40396 0.0
H569 H 0.22325 0.38516 0.43154 0.0
Eu570 Eu 0.68899 0.83362 0.32939 0.0
C571 C 0.61534 0.81453 0.37843 0.0
C572 C 0.60566 0.84157 0.37387 0.0
C573 C 0.57843 0.80671 0.38316 0.0
C574 C 0.62106 0.83481 0.3736 0.0
C575 C 0.59408 0.80039 0.3836 0.0
C576 C 0.5842 0.82726 0.3783 0.0
C577 C 0.60582 0.77548 0.39052 0.0
N578 N 0.63088 0.80898 0.37883 0.0
C579 C 0.62671 0.79011 0.38535 0.0
C580 C 0.58936 0.78053 0.38945 0.0
Eu581 Eu 0.66556 0.83421 0.36927 0.0
N582 N 0.64194 0.84826 0.36942 0.0
C583 C 0.64882 0.86908 0.36639 0.0
C584 C 0.61241 0.86266 0.37004 0.0
C585 C 0.63414 0.87652 0.36647 0.0
H586 H 0.63941 0.78615 0.3861 0.0
H587 H 0.6396 0.89293 0.36371 0.0
H588 H 0.57208 0.83209 0.37836 0.0
H589 H 0.60243 0.76033 0.3953 0.0
H590 H 0.66554 0.87996 0.36355 0.0
H591 H 0.71404 0.7742 0.33548 0.0
H592 H 0.6011 0.86848 0.37012 0.0
H593 H 0.71528 0.88117 0.31189 0.0
H594 H 0.68855 0.78765 0.33572 0.0
H595 H 0.75198 0.90626 0.30182 0.0
H596 H 0.56194 0.79599 0.38693 0.0
H597 H 0.75237 0.79796 0.32819 0.0
H598 H 0.78128 0.8337 0.31865 0.0
H599 H 0.57322 0.7692 0.39352 0.0
H600 H 0.79162 0.86961 0.30947 0.0
N601 N 0.7122 0.81902 0.32902 0.0
C602 C 0.70516 0.79826 0.33246 0.0
C603 C 0.74121 0.80398 0.32823 0.0
C604 C 0.74805 0.8249 0.32384 0.0
C605 C 0.71959 0.79052 0.33233 0.0
C606 C 0.7329 0.83198 0.32421 0.0
H607 H 0.78075 0.89671 0.30296 0.0
N608 N 0.72343 0.85798 0.3189 0.0
C609 C 0.74849 0.89111 0.30668 0.0
C610 C 0.73871 0.85212 0.31903 0.0
C611 C 0.72774 0.87687 0.31232 0.0
C612 C 0.7647 0.88568 0.30738 0.0
C613 C 0.75984 0.86586 0.31339 0.0
O614 O 0.682 0.83781 0.30431 0.0
O615 O 0.66365 0.83683 0.34257 0.0
O616 O 0.64072 0.80561 0.35518 0.0
O617 O 0.66352 0.80053 0.33797 0.0
O618 O 0.67669 0.8562 0.32289 0.0
O619 O 0.67246 0.80642 0.31328 0.0
O620 O 0.67405 0.82943 0.39367 0.0
O621 O 0.69145 0.8319 0.35608 0.0
O622 O 0.7136 0.86288 0.34299 0.0
O623 O 0.69153 0.86754 0.36142 0.0
O624 O 0.67852 0.81203 0.37553 0.0
O625 O 0.67769 0.85982 0.38714 0.0
C626 C 0.66241 0.85056 0.33415 0.0
C627 C 0.68054 0.81257 0.28555 0.0
C628 C 0.67378 0.8035 0.25692 0.0
C629 C 0.66841 0.80979 0.27145 0.0
C630 C 0.69153 0.80014 0.2566 0.0
C631 C 0.69842 0.80944 0.28503 0.0
C632 C 0.70387 0.80327 0.27059 0.0
C633 C 0.64436 0.79391 0.34478 0.0
C634 C 0.67363 0.81776 0.30075 0.0
C635 C 0.77525 0.85922 0.31362 0.0
C636 C 0.76936 0.83877 0.31884 0.0
C637 C 0.69307 0.81833 0.36442 0.0
C638 C 0.66908 0.84882 0.41433 0.0
C639 C 0.68109 0.85226 0.42863 0.0
C640 C 0.67181 0.85168 0.44376 0.0
C641 C 0.65042 0.84776 0.44438 0.0
C642 C 0.64784 0.84514 0.41518 0.0
C643 C 0.63857 0.84463 0.43014 0.0
C644 C 0.71012 0.87451 0.3536 0.0
C645 C 0.67861 0.84818 0.39875 0.0
H646 H 0.65446 0.812 0.27188 0.0
H647 H 0.69596 0.79531 0.24552 0.0
H648 H 0.70796 0.81148 0.29578 0.0
H649 H 0.7176 0.80076 0.27026 0.0
H650 H 0.69746 0.85494 0.428 0.0
H651 H 0.64295 0.84736 0.45588 0.0
H652 H 0.63838 0.84258 0.40432 0.0
H653 H 0.62215 0.84173 0.43071 0.0
Eu654 Eu 0.19323 0.84601 0.36366 0.0
C655 C 0.14349 0.86523 0.30999 0.0
C656 C 0.10572 0.83912 0.31389 0.0
C657 C 0.11554 0.87367 0.30295 0.0
C658 C 0.12786 0.84536 0.31509 0.0
C659 C 0.13752 0.87947 0.30355 0.0
C660 C 0.09967 0.85354 0.30814 0.0
C661 C 0.17528 0.90345 0.29772 0.0
N662 N 0.16455 0.87029 0.31069 0.0
C663 C 0.18039 0.88877 0.30419 0.0
C664 C 0.15378 0.89889 0.29757 0.0
Eu665 Eu 0.17207 0.84511 0.32245 0.0
N666 N 0.13426 0.83179 0.32051 0.0
C667 C 0.1193 0.81124 0.32384 0.0
C668 C 0.09032 0.81841 0.31817 0.0
C669 C 0.09715 0.80433 0.32295 0.0
H670 H 0.19705 0.89241 0.3044 0.0
H671 H 0.08537 0.78817 0.32602 0.0
H672 H 0.08275 0.84911 0.30731 0.0
H673 H 0.18793 0.91828 0.29289 0.0
H674 H 0.12434 0.80021 0.32763 0.0
H675 H 0.27923 0.90597 0.36066 0.0
H676 H 0.07315 0.81301 0.31749 0.0
H677 H 0.17006 0.79844 0.38114 0.0
H678 H 0.24008 0.89235 0.35877 0.0
H679 H 0.18066 0.77354 0.39247 0.0
H680 H 0.11063 0.88447 0.29819 0.0
H681 H 0.29299 0.88244 0.36939 0.0
H682 H 0.28499 0.84683 0.37958 0.0
H683 H 0.14986 0.91028 0.29253 0.0
H684 H 0.25821 0.81083 0.38829 0.0
N685 N 0.23134 0.86103 0.36598 0.0
C686 C 0.24566 0.88179 0.36265 0.0
C687 C 0.27569 0.87632 0.36862 0.0
C688 C 0.26097 0.8554 0.37286 0.0
C689 C 0.26798 0.88965 0.36371 0.0
C690 C 0.23861 0.84819 0.37152 0.0
H691 H 0.2193 0.78346 0.39332 0.0
N692 N 0.20232 0.82193 0.37546 0.0
C693 C 0.19291 0.78878 0.38794 0.0
C694 C 0.22361 0.82799 0.3764 0.0
C695 C 0.18697 0.80291 0.38159 0.0
C696 C 0.21473 0.79442 0.38837 0.0
C697 C 0.23043 0.81434 0.38275 0.0
O698 O 0.17949 0.84129 0.388 0.0
O699 O 0.16557 0.84294 0.34896 0.0
O700 O 0.17604 0.87418 0.33543 0.0
O701 O 0.20242 0.87895 0.35433 0.0
O702 O 0.15757 0.823 0.36846 0.0
O703 O 0.20234 0.87291 0.37973 0.0
O704 O 0.18676 0.84849 0.29868 0.0
O705 O 0.19945 0.84771 0.33723 0.0
O706 O 0.18908 0.81695 0.35053 0.0
O707 O 0.1627 0.81205 0.33154 0.0
O708 O 0.20803 0.86726 0.3175 0.0
O709 O 0.15927 0.8184 0.30556 0.0
C710 C 0.14979 0.829 0.35686 0.0
C711 C 0.2009 0.86682 0.40782 0.0
C712 C 0.19941 0.87529 0.4362 0.0
C713 C 0.18936 0.86843 0.42099 0.0
C714 C 0.22101 0.88018 0.43816 0.0
C715 C 0.22236 0.87147 0.41003 0.0
C716 C 0.23233 0.87809 0.42517 0.0
C717 C 0.1909 0.88576 0.34639 0.0
C718 C 0.19064 0.86136 0.39176 0.0
C719 C 0.25265 0.82115 0.38357 0.0
C720 C 0.26789 0.84164 0.37862 0.0
C721 C 0.21546 0.86125 0.32934 0.0
C722 C 0.16343 0.82714 0.27781 0.0
C723 C 0.17236 0.82193 0.26465 0.0
C724 C 0.1641 0.82037 0.24888 0.0
C725 C 0.14666 0.82404 0.24657 0.0
C726 C 0.14605 0.83065 0.27523 0.0
C727 C 0.13771 0.82908 0.25968 0.0
C728 C 0.17406 0.80522 0.33969 0.0
C729 C 0.17273 0.82929 0.29406 0.0
H730 H 0.17278 0.86487 0.41929 0.0
H731 H 0.22905 0.88538 0.4498 0.0
H732 H 0.23147 0.87026 0.40004 0.0
H733 H 0.24892 0.88177 0.42681 0.0
H734 H 0.18564 0.81898 0.26676 0.0
H735 H 0.14015 0.82339 0.23459 0.0
H736 H 0.13898 0.83467 0.2852 0.0
H737 H 0.12436 0.83193 0.25775 0.0
Eu738 Eu 0.8309 0.66188 0.65902 0.0
C739 C 0.86468 0.72931 0.71537 0.0
C740 C 0.90267 0.74093 0.71942 0.0
C741 C 0.88854 0.76378 0.72752 0.0
C742 C 0.88192 0.72573 0.71377 0.0
C743 C 0.8678 0.74839 0.72226 0.0
C744 C 0.90582 0.75987 0.72637 0.0
C745 C 0.8292 0.73448 0.72028 0.0
N746 N 0.84458 0.71352 0.71125 0.0
C747 C 0.82681 0.71558 0.71401 0.0
C748 C 0.8498 0.751 0.72437 0.0
Eu749 Eu 0.84179 0.68176 0.70123 0.0
N750 N 0.87805 0.70672 0.70791 0.0
C751 C 0.8941 0.70171 0.7077 0.0
C752 C 0.91941 0.73619 0.71861 0.0
C753 C 0.91509 0.71649 0.71272 0.0
H754 H 0.8108 0.70282 0.71105 0.0
H755 H 0.92784 0.71255 0.71229 0.0
H756 H 0.92139 0.77133 0.73139 0.0
H757 H 0.81513 0.73618 0.72213 0.0
H758 H 0.89084 0.68633 0.70355 0.0
H759 H 0.74456 0.63191 0.64974 0.0
H760 H 0.93556 0.74738 0.72289 0.0
H761 H 0.8606 0.64024 0.64743 0.0
H762 H 0.78229 0.65853 0.65635 0.0
H763 H 0.85502 0.60584 0.63757 0.0
H764 H 0.89123 0.77841 0.73305 0.0
H765 H 0.73534 0.59544 0.642 0.0
H766 H 0.74768 0.56928 0.6366 0.0
H767 H 0.85156 0.76548 0.72953 0.0
H768 H 0.77774 0.56208 0.63347 0.0
N769 N 0.79425 0.63727 0.653 0.0
C770 C 0.77848 0.64268 0.65313 0.0
C771 C 0.75187 0.60703 0.64515 0.0
C772 C 0.76824 0.60181 0.64445 0.0
C773 C 0.75704 0.6276 0.6494 0.0
C774 C 0.78961 0.61756 0.64833 0.0
H775 H 0.81787 0.57569 0.63359 0.0
N776 N 0.82694 0.62955 0.64926 0.0
C777 C 0.84122 0.60771 0.64016 0.0
C778 C 0.80648 0.61353 0.64648 0.0
C779 C 0.84432 0.6272 0.64567 0.0
C780 C 0.82022 0.59074 0.63794 0.0
C781 C 0.80252 0.59362 0.64082 0.0
O782 O 0.85026 0.67255 0.63694 0.0
O783 O 0.85443 0.68647 0.67607 0.0
O784 O 0.841 0.70671 0.68561 0.0
O785 O 0.81935 0.68548 0.66437 0.0
O786 O 0.86738 0.67518 0.65928 0.0
O787 O 0.82163 0.6754 0.63905 0.0
O788 O 0.8224 0.67057 0.72326 0.0
O789 O 0.81824 0.65711 0.68422 0.0
O790 O 0.83264 0.63736 0.67452 0.0
O791 O 0.85394 0.65858 0.6959 0.0
O792 O 0.80542 0.6686 0.70094 0.0
O793 O 0.85111 0.66788 0.72091 0.0
C794 C 0.87201 0.68849 0.671 0.0
C795 C 0.83112 0.66985 0.61284 0.0
C796 C 0.83253 0.67668 0.58372 0.0
C797 C 0.83859 0.68411 0.59978 0.0
C798 C 0.81915 0.65477 0.58104 0.0
C799 C 0.81769 0.64816 0.60977 0.0
C800 C 0.81181 0.64068 0.59397 0.0
C801 C 0.82843 0.70342 0.67284 0.0
C802 C 0.83726 0.6776 0.62962 0.0
C803 C 0.78114 0.57754 0.6377 0.0
C804 C 0.76403 0.58164 0.63948 0.0
C805 C 0.80068 0.65513 0.68934 0.0
C806 C 0.84139 0.67249 0.7473 0.0
C807 C 0.83442 0.6577 0.76 0.0
C808 C 0.84047 0.66456 0.77616 0.0
C809 C 0.85334 0.68641 0.77935 0.0
C810 C 0.85422 0.69412 0.75087 0.0
C811 C 0.86013 0.70103 0.76678 0.0
C812 C 0.84529 0.6408 0.68725 0.0
C813 C 0.83539 0.66534 0.73039 0.0
H814 H 0.8488 0.70092 0.60215 0.0
H815 H 0.81452 0.64844 0.56888 0.0
H816 H 0.81176 0.63698 0.61957 0.0
H817 H 0.80152 0.62387 0.59174 0.0
H818 H 0.82461 0.64094 0.75728 0.0
H819 H 0.85795 0.69228 0.79162 0.0
H820 H 0.85967 0.70569 0.74138 0.0
H821 H 0.86998 0.71779 0.76939 0.0
Eu822 Eu 0.35309 0.16783 0.66144 0.0
C823 C 0.28349 0.13468 0.71637 0.0
C824 C 0.27114 0.16 0.71939 0.0
C825 C 0.24798 0.12348 0.72773 0.0
C826 C 0.28688 0.15496 0.71426 0.0
C827 C 0.26399 0.11871 0.72312 0.0
C828 C 0.25172 0.14414 0.72612 0.0
C829 C 0.27862 0.09516 0.72217 0.0
N830 N 0.29982 0.13092 0.71279 0.0
C831 C 0.29791 0.11166 0.71599 0.0
C832 C 0.26154 0.09866 0.7257 0.0
Eu833 Eu 0.33216 0.1599 0.70287 0.0
N834 N 0.30627 0.17017 0.70849 0.0
C835 C 0.31114 0.1908 0.70782 0.0
C836 C 0.27585 0.18103 0.71833 0.0
C837 C 0.29589 0.19648 0.71245 0.0
H838 H 0.31109 0.10884 0.71346 0.0
H839 H 0.29977 0.21283 0.71178 0.0
H840 H 0.23973 0.14779 0.73061 0.0
H841 H 0.27704 0.07982 0.72438 0.0
H842 H 0.3268 0.20295 0.70368 0.0
H843 H 0.38189 0.11164 0.65396 0.0
H844 H 0.26445 0.18565 0.7225 0.0
H845 H 0.37668 0.21856 0.64984 0.0
H846 H 0.35545 0.12292 0.66007 0.0
H847 H 0.41253 0.24695 0.64071 0.0
H848 H 0.233 0.11151 0.73311 0.0
H849 H 0.41936 0.13823 0.64628 0.0
H850 H 0.44697 0.1762 0.64108 0.0
H851 H 0.24675 0.08596 0.73078 0.0
H852 H 0.45542 0.21309 0.63773 0.0
N853 N 0.37773 0.15568 0.65645 0.0
C854 C 0.37174 0.13473 0.65691 0.0
C855 C 0.40788 0.1433 0.64928 0.0
C856 C 0.41378 0.16468 0.64842 0.0
C857 C 0.38674 0.12826 0.65348 0.0
C858 C 0.39806 0.17043 0.65194 0.0
H859 H 0.44261 0.23957 0.63739 0.0
N860 N 0.38671 0.1957 0.65221 0.0
C861 C 0.41002 0.23134 0.6433 0.0
C862 C 0.40276 0.19112 0.6499 0.0
C863 C 0.38975 0.21525 0.64842 0.0
C864 C 0.42698 0.22713 0.6415 0.0
C865 C 0.42337 0.20672 0.6445 0.0
O866 O 0.34383 0.17636 0.63869 0.0
O867 O 0.32721 0.16653 0.67739 0.0
O868 O 0.30672 0.13357 0.68738 0.0
O869 O 0.32851 0.13291 0.66672 0.0
O870 O 0.3396 0.19031 0.66057 0.0
O871 O 0.33944 0.14494 0.64158 0.0
O872 O 0.34355 0.15309 0.72539 0.0
O873 O 0.35799 0.16129 0.6869 0.0
O874 O 0.37804 0.19433 0.67711 0.0
O875 O 0.3559 0.19497 0.69745 0.0
O876 O 0.34599 0.13773 0.70383 0.0
O877 O 0.34507 0.18332 0.72242 0.0
C878 C 0.32535 0.18164 0.6718 0.0
C879 C 0.34686 0.1594 0.61532 0.0
C880 C 0.34071 0.15415 0.58617 0.0
C881 C 0.3328 0.15319 0.60194 0.0
C882 C 0.36294 0.16154 0.58405 0.0
C883 C 0.36891 0.1666 0.61292 0.0
C884 C 0.37689 0.16769 0.59736 0.0
C885 C 0.31015 0.12403 0.67504 0.0
C886 C 0.33836 0.15829 0.63169 0.0
C887 C 0.43943 0.2013 0.64177 0.0
C888 C 0.43462 0.18029 0.64367 0.0
C889 C 0.3601 0.14635 0.69254 0.0
C890 C 0.34043 0.16972 0.74891 0.0
C891 C 0.35529 0.17579 0.76177 0.0
C892 C 0.34825 0.1741 0.77787 0.0
C893 C 0.32616 0.16639 0.78091 0.0
C894 C 0.31851 0.16218 0.75219 0.0
C895 C 0.31142 0.16053 0.76811 0.0
C896 C 0.37439 0.20389 0.68931 0.0
C897 C 0.34802 0.17099 0.73222 0.0
H898 H 0.3157 0.14737 0.60384 0.0
H899 H 0.3696 0.1628 0.57207 0.0
H900 H 0.37995 0.17139 0.62301 0.0
H901 H 0.39397 0.17337 0.59561 0.0
H902 H 0.37224 0.18148 0.75925 0.0
H903 H 0.32033 0.16514 0.79318 0.0
H904 H 0.30687 0.15754 0.74251 0.0
H905 H 0.29446 0.1547 0.77054 0.0
Eu906 Eu 0.85771 0.17717 0.69987 0.0
C907 C 0.82141 0.20792 0.64481 0.0
C908 C 0.78324 0.18212 0.64238 0.0
C909 C 0.79614 0.21899 0.63574 0.0
C910 C 0.80452 0.18736 0.64656 0.0
C911 C 0.81746 0.22392 0.63917 0.0
C912 C 0.77906 0.19811 0.63727 0.0
C913 C 0.85613 0.24803 0.63936 0.0
N914 N 0.84187 0.21204 0.64785 0.0
C915 C 0.85926 0.23156 0.64468 0.0
C916 C 0.83513 0.24425 0.63673 0.0
Eu917 Eu 0.84559 0.18349 0.65763 0.0
N918 N 0.80908 0.17223 0.65142 0.0
C919 C 0.79334 0.1514 0.65155 0.0
C920 C 0.7669 0.16087 0.64292 0.0
C921 C 0.772 0.14542 0.64744 0.0
H922 H 0.87553 0.23459 0.64674 0.0
H923 H 0.75959 0.12889 0.64767 0.0
H924 H 0.76276 0.19441 0.63416 0.0
H925 H 0.86992 0.26361 0.63727 0.0
H926 H 0.79715 0.13935 0.65498 0.0
H927 H 0.94401 0.23311 0.70745 0.0
H928 H 0.75049 0.15623 0.63942 0.0
H929 H 0.82834 0.12707 0.71267 0.0
H930 H 0.90651 0.22131 0.69911 0.0
H931 H 0.83393 0.10008 0.72623 0.0
H932 H 0.79275 0.23108 0.63149 0.0
H933 H 0.95301 0.20796 0.72038 0.0
H934 H 0.94003 0.17168 0.73182 0.0
H935 H 0.83276 0.25699 0.63248 0.0
H936 H 0.91048 0.13532 0.73618 0.0
N937 N 0.89453 0.18923 0.70595 0.0
C938 C 0.91025 0.20994 0.70427 0.0
C939 C 0.93659 0.20248 0.71631 0.0
C940 C 0.92022 0.18151 0.7187 0.0
C941 C 0.93156 0.21676 0.70908 0.0
C942 C 0.89908 0.17523 0.71322 0.0
H943 H 0.8709 0.10843 0.73407 0.0
N944 N 0.8619 0.1501 0.71203 0.0
C945 C 0.84767 0.11547 0.72353 0.0
C946 C 0.88225 0.15503 0.71633 0.0
C947 C 0.84458 0.13081 0.71583 0.0
C948 C 0.86856 0.12021 0.72786 0.0
C949 C 0.88613 0.14029 0.72453 0.0
O950 O 0.84066 0.17076 0.72304 0.0
O951 O 0.83305 0.17661 0.68286 0.0
O952 O 0.84548 0.20913 0.67284 0.0
O953 O 0.86932 0.21163 0.69302 0.0
O954 O 0.82139 0.1541 0.70061 0.0
O955 O 0.86563 0.20265 0.71718 0.0
O956 O 0.86453 0.19103 0.63542 0.0
O957 O 0.86972 0.18262 0.67446 0.0
O958 O 0.85586 0.14989 0.6855 0.0
O959 O 0.83452 0.1489 0.66365 0.0
O960 O 0.88207 0.20604 0.65738 0.0
O961 O 0.83554 0.16042 0.63783 0.0
C962 C 0.81587 0.16146 0.68852 0.0
C963 C 0.86082 0.19349 0.74481 0.0
C964 C 0.85768 0.19996 0.77339 0.0
C965 C 0.84882 0.19507 0.75768 0.0
C966 C 0.87842 0.20286 0.77619 0.0
C967 C 0.88146 0.19627 0.74788 0.0
C968 C 0.89014 0.20083 0.7635 0.0
C969 C 0.85896 0.21949 0.68483 0.0
C970 C 0.85223 0.19026 0.72817 0.0
C971 C 0.90721 0.14631 0.72968 0.0
C972 C 0.92412 0.16697 0.72701 0.0
C973 C 0.88717 0.19755 0.66897 0.0
C974 C 0.84498 0.17477 0.61154 0.0
C975 C 0.85268 0.16784 0.59859 0.0
C976 C 0.84733 0.16976 0.58246 0.0
C977 C 0.83419 0.17879 0.5796 0.0
C978 C 0.83177 0.18351 0.60834 0.0
C979 C 0.82643 0.18551 0.59247 0.0
C980 C 0.84327 0.14019 0.67283 0.0
C981 C 0.85114 0.17319 0.62827 0.0
H982 H 0.83294 0.19313 0.7554 0.0
H983 H 0.8855 0.20664 0.78822 0.0
H984 H 0.89106 0.19533 0.73819 0.0
H985 H 0.90612 0.20307 0.76574 0.0
H986 H 0.86266 0.16084 0.60113 0.0
H987 H 0.83013 0.181 0.5674 0.0
H988 H 0.82569 0.1889 0.61807 0.0
H989 H 0.81635 0.19244 0.59011 0.0
H990 H 0.31063 0.79996 0.06292 0.0
H991 H 0.34258 0.82997 0.05087 0.0
H992 H 0.32274 0.87273 0.07001 0.0
H993 H 0.2906 0.84287 0.08168 0.0
H994 H 0.33398 0.88098 0.03891 0.0
H995 H 0.36499 0.86849 0.08683 0.0
H996 H 0.37424 0.84772 0.10536 0.0
H997 H 0.40854 0.83704 0.06723 0.0
H998 H 0.39923 0.85751 0.04841 0.0
H999 H 0.42865 0.98136 0.03299 0.0
H1000 H 0.39575 0.94815 0.03903 0.0
H1001 H 0.42647 0.91319 0.02295 0.0
H1002 H 0.45982 0.94655 0.01777 0.0
H1003 H 0.40955 0.89872 0.05021 0.0
H1004 H 0.3716 0.90223 1.00134 0.0
H1005 H 0.35861 0.91829 0.98113 0.0
H1006 H 0.33789 0.94415 0.01928 0.0
H1007 H 0.34985 0.92737 0.03965 0.0
C1008 C 0.31305 0.81576 0.06452 0.0
C1009 C 0.29805 0.81897 0.07334 0.0
C1010 C 0.33145 0.83293 0.05775 0.0
C1011 C 0.33523 0.85369 0.05966 0.0
C1012 C 0.32026 0.8569 0.06842 0.0
C1013 C 0.30194 0.83979 0.07521 0.0
C1014 C 0.35427 0.87206 0.05206 0.0
C1015 C 0.35052 0.88496 0.04153 0.0
C1016 C 0.37587 0.87688 0.0549 0.0
C1017 C 0.38117 0.8643 0.06616 0.0
C1018 C 0.37429 0.86152 0.08235 0.0
C1019 C 0.3796 0.84984 0.09292 0.0
C1020 C 0.39189 0.841 0.08746 0.0
C1021 C 0.39893 0.84382 0.07143 0.0
C1022 C 0.39366 0.85546 0.06081 0.0
C1023 C 0.42819 0.96656 0.0304 0.0
C1024 C 0.44673 0.9666 0.02466 0.0
C1025 C 0.40924 0.94749 0.03369 0.0
C1026 C 0.40827 0.92793 0.03121 0.0
C1027 C 0.42662 0.92796 0.02491 0.0
C1028 C 0.44568 0.94708 0.0218 0.0
C1029 C 0.38929 0.90786 0.03713 0.0
C1030 C 0.39303 0.89465 0.04742 0.0
C1031 C 0.36762 0.90252 0.03394 0.0
C1032 C 0.362 0.91398 0.02194 0.0
C1033 C 0.36448 0.91155 0.00537 0.0
C1034 C 0.35704 0.92052 0.99391 0.0
C1035 C 0.34767 0.93245 0.99892 0.0
C1036 C 0.34531 0.93505 0.01541 0.0
C1037 C 0.35219 0.92563 0.02691 0.0
H1038 H 0.34212 0.93955 0.99002 0.0
H1039 H 0.39602 0.83201 0.09567 0.0
H1040 H 0.17221 0.44091 0.07037 0.0
H1041 H 0.14233 0.44495 0.05985 0.0
H1042 H 0.18627 0.51153 0.05236 0.0
H1043 H 0.21644 0.50746 0.06268 0.0
H1044 H 0.14645 0.50129 0.06946 0.0
H1045 H 0.16942 0.48278 0.02056 0.0
H1046 H 0.17962 0.46141 0.00343 0.0
H1047 H 0.11663 0.40693 0.01004 0.0
H1048 H 0.10616 0.4279 0.02742 0.0
H1049 H 0.06611 0.51518 0.02757 0.0
H1050 H 0.10012 0.51566 0.03342 0.0
H1051 H 0.06469 0.4479 0.03978 0.0
H1052 H 0.03065 0.44743 0.03411 0.0
H1053 H 0.10243 0.46166 0.02156 0.0
H1054 H 0.0795 0.47721 0.07121 0.0
H1055 H 0.06776 0.49614 0.08964 0.0
H1056 H 0.1288 0.55323 0.08378 0.0
H1057 H 0.14075 0.53479 0.06489 0.0
C1058 C 0.17554 0.45638 0.06634 0.0
C1059 C 0.19667 0.47387 0.06732 0.0
C1060 C 0.15846 0.45867 0.06032 0.0
C1061 C 0.16203 0.47854 0.0553 0.0
C1062 C 0.18314 0.49605 0.05616 0.0
C1063 C 0.20037 0.49369 0.06194 0.0
C1064 C 0.14349 0.48088 0.04954 0.0
C1065 C 0.1371 0.49303 0.05878 0.0
C1066 C 0.13086 0.46952 0.03591 0.0
C1067 C 0.13708 0.45688 0.02542 0.0
C1068 C 0.15781 0.4662 0.01848 0.0
C1069 C 0.16362 0.45417 0.0087 0.0
C1070 C 0.1488 0.43282 0.00568 0.0
C1071 C 0.1281 0.42347 0.01241 0.0
C1072 C 0.12221 0.43542 0.02221 0.0
C1073 C 0.06563 0.50037 0.02999 0.0
C1074 C 0.04579 0.48117 0.03005 0.0
C1075 C 0.08505 0.50068 0.03343 0.0
C1076 C 0.08498 0.4818 0.03703 0.0
C1077 C 0.06518 0.46263 0.03693 0.0
C1078 C 0.04575 0.46237 0.03374 0.0
C1079 C 0.10535 0.48202 0.04151 0.0
C1080 C 0.112 0.47025 0.03208 0.0
C1081 C 0.118 0.49345 0.05512 0.0
C1082 C 0.11088 0.50471 0.06637 0.0
C1083 C 0.09032 0.4939 0.07362 0.0
C1084 C 0.08363 0.50453 0.08417 0.0
C1085 C 0.09748 0.52592 0.08777 0.0
C1086 C 0.11805 0.53671 0.08085 0.0
C1087 C 0.12478 0.52618 0.0702 0.0
H1088 H 0.09231 0.5341 0.096 0.0
H1089 H 0.15333 0.42353 0.9981 0.0
H1090 H 0.52205 0.70114 0.0964 0.0
H1091 H 0.52039 0.6706 0.08256 0.0
H1092 H 0.5505 0.70908 0.04057 0.0
H1093 H 0.55242 0.73978 0.05444 0.0
H1094 H 0.50114 0.64967 0.05409 0.0
H1095 H 0.5863 0.69401 0.02591 0.0
H1096 H 0.62172 0.72604 0.03093 0.0
H1097 H 0.60803 0.72222 0.08178 0.0
H1098 H 0.5727 0.69003 0.07708 0.0
H1099 H 0.50917 0.57707 0.00287 0.0
H1100 H 0.5134 0.61086 0.01158 0.0
H1101 H 0.55796 0.61553 0.04898 0.0
H1102 H 0.55491 0.58235 0.03967 0.0
H1103 H 0.56989 0.65374 0.03725 0.0
H1104 H 0.50319 0.59302 0.05475 0.0
H1105 H 0.46894 0.56006 0.04909 0.0
H1106 H 0.44538 0.59509 0.02263 0.0
H1107 H 0.47997 0.62813 0.02737 0.0
C1108 C 0.52825 0.70306 0.0842 0.0
C1109 C 0.53747 0.72285 0.07653 0.0
C1110 C 0.52716 0.68559 0.07628 0.0
C1111 C 0.53546 0.68763 0.06061 0.0
C1112 C 0.54414 0.70722 0.05272 0.0
C1113 C 0.5451 0.72469 0.06061 0.0
C1114 C 0.5358 0.66945 0.05282 0.0
C1115 C 0.51614 0.65056 0.05034 0.0
C1116 C 0.55542 0.67058 0.0481 0.0
C1117 C 0.57676 0.68976 0.0511 0.0
C1118 C 0.59089 0.69998 0.03816 0.0
C1119 C 0.61095 0.71816 0.04095 0.0
C1120 C 0.61709 0.72621 0.05665 0.0
C1121 C 0.60322 0.71603 0.06961 0.0
C1122 C 0.58317 0.69783 0.06689 0.0
C1123 C 0.52039 0.58552 0.01261 0.0
C1124 C 0.53168 0.57689 0.02054 0.0
C1125 C 0.52264 0.60481 0.01769 0.0
C1126 C 0.53565 0.61552 0.03115 0.0
C1127 C 0.54777 0.60751 0.03859 0.0
C1128 C 0.54587 0.58842 0.03331 0.0
C1129 C 0.53521 0.63397 0.03837 0.0
C1130 C 0.55485 0.65288 0.04083 0.0
C1131 C 0.51557 0.63274 0.04328 0.0
C1132 C 0.49429 0.61305 0.04129 0.0
C1133 C 0.49076 0.5937 0.04766 0.0
C1134 C 0.47131 0.57498 0.04456 0.0
C1135 C 0.45496 0.5755 0.03556 0.0
C1136 C 0.45806 0.59472 0.0296 0.0
C1137 C 0.47764 0.61343 0.03241 0.0
H1138 H 0.43988 0.56102 0.03321 0.0
H1139 H 0.63261 0.74029 0.05879 0.0
H1140 H 0.81459 0.30046 0.93705 0.0
H1141 H 0.84458 0.33332 0.94804 0.0
H1142 H 0.85271 0.29805 0.98662 0.0
H1143 H 0.82185 0.26531 0.97605 0.0
H1144 H 0.85939 0.33256 0.99866 0.0
H1145 H 0.88643 0.31657 0.95109 0.0
H1146 H 0.8876 0.30817 0.9223 0.0
H1147 H 0.89265 0.36723 0.9086 0.0
H1148 H 0.89126 0.37589 0.9373 0.0
H1149 H 0.97893 0.42832 0.98974 0.0
H1150 H 0.94946 0.3937 0.9809 0.0
H1151 H 0.90318 0.40664 0.00423 0.0
H1152 H 0.93252 0.44074 0.0136 0.0
H1153 H 0.91751 0.38176 0.9618 0.0
H1154 H 0.85958 0.36392 0.01606 0.0
H1155 H 0.86179 0.37024 0.04556 0.0
H1156 H 0.92393 0.37422 0.04702 0.0
H1157 H 0.92209 0.36797 0.01756 0.0
C1158 C 0.82271 0.29981 0.94796 0.0
C1159 C 0.81599 0.28039 0.9557 0.0
C1160 C 0.83999 0.31856 0.95417 0.0
C1161 C 0.85141 0.31824 0.96797 0.0
C1162 C 0.8443 0.29883 0.97594 0.0
C1163 C 0.82667 0.28011 0.96992 0.0
C1164 C 0.87075 0.33805 0.97403 0.0
C1165 C 0.87208 0.34326 0.99056 0.0
C1166 C 0.88774 0.35195 0.96364 0.0
C1167 C 0.88854 0.34678 0.94635 0.0
C1168 C 0.88764 0.3277 0.94193 0.0
C1169 C 0.88838 0.32291 0.92563 0.0
C1170 C 0.89018 0.33715 0.91363 0.0
C1171 C 0.89127 0.35623 0.91791 0.0
C1172 C 0.89052 0.36109 0.93419 0.0
C1173 C 0.96248 0.4237 0.99309 0.0
C1174 C 0.95814 0.43725 0.0025 0.0
C1175 C 0.94561 0.4039 0.98799 0.0
C1176 C 0.924 0.39728 0.99207 0.0
C1177 C 0.91967 0.41099 1.00126 0.0
C1178 C 0.93653 0.43061 0.00656 0.0
C1179 C 0.90596 0.37635 0.98634 0.0
C1180 C 0.90484 0.37099 0.96988 0.0
C1181 C 0.88958 0.36196 0.99687 0.0
C1182 C 0.89074 0.36561 0.01461 0.0
C1183 C 0.87367 0.36609 0.0227 0.0
C1184 C 0.87489 0.36971 0.0394 0.0
C1185 C 0.893 0.37267 0.04815 0.0
C1186 C 0.90993 0.372 0.04023 0.0
C1187 C 0.90886 0.3685 0.02352 0.0
H1188 H 0.89393 0.37549 0.06108 0.0
H1189 H 0.89076 0.33343 0.90101 0.0
H1190 H 0.74241 0.55471 0.97753 0.0
H1191 H 0.70862 0.55157 0.98759 0.0
H1192 H 0.67421 0.51193 0.94657 0.0
H1193 H 0.70816 0.51605 0.93615 0.0
H1194 H 0.66032 0.53667 0.94993 0.0
H1195 H 0.67063 0.49357 0.98789 0.0
H1196 H 0.6895 0.484 0.00831 0.0
H1197 H 0.69408 0.53293 0.03999 0.0
H1198 H 0.67551 0.54301 0.01966 0.0
H1199 H 0.55971 0.49843 0.00444 0.0
H1200 H 0.59314 0.49818 0.99818 0.0
H1201 H 0.62181 0.56236 0.98092 0.0
H1202 H 0.5885 0.56275 0.98744 0.0
H1203 H 0.63634 0.52202 0.00707 0.0
H1204 H 0.64764 0.56516 0.94566 0.0
H1205 H 0.62486 0.5683 0.92455 0.0
H1206 H 0.57112 0.50829 0.93846 0.0
H1207 H 0.59365 0.50466 0.95948 0.0
C1208 C 0.72756 0.54517 0.97078 0.0
C1209 C 0.72792 0.53563 0.95606 0.0
C1210 C 0.70817 0.54327 0.97657 0.0
C1211 C 0.68858 0.53129 0.96799 0.0
C1212 C 0.68897 0.52138 0.95345 0.0
C1213 C 0.70839 0.52365 0.94751 0.0
C1214 C 0.66789 0.52983 0.97367 0.0
C1215 C 0.65521 0.53344 0.96245 0.0
C1216 C 0.66062 0.52514 0.98993 0.0
C1217 C 0.67189 0.5192 1.00216 0.0
C1218 C 0.67583 0.50242 0.99915 0.0
C1219 C 0.68644 0.49688 0.01072 0.0
C1220 C 0.69304 0.50789 0.02542 0.0
C1221 C 0.689 0.52444 0.02859 0.0
C1222 C 0.67842 0.53006 0.01705 0.0
C1223 C 0.57331 0.51266 0.99972 0.0
C1224 C 0.57163 0.53078 0.99673 0.0
C1225 C 0.59241 0.51247 0.99607 0.0
C1226 C 0.60998 0.5302 0.98898 0.0
C1227 C 0.60845 0.54844 0.9863 0.0
C1228 C 0.58944 0.54867 0.99005 0.0
C1229 C 0.62937 0.5293 0.98339 0.0
C1230 C 0.64168 0.52527 0.9946 0.0
C1231 C 0.63589 0.53276 0.967 0.0
C1232 C 0.6223 0.53478 0.95426 0.0
C1233 C 0.63099 0.55262 0.94418 0.0
C1234 C 0.61811 0.55448 0.93223 0.0
C1235 C 0.59654 0.53854 0.9302 0.0
C1236 C 0.5878 0.52067 0.94008 0.0
C1237 C 0.60061 0.51872 0.95203 0.0
H1238 H 0.5866 0.54001 0.92094 0.0
H1239 H 0.70125 0.50357 0.03437 0.0
H1240 H 0.50565 0.19597 0.93308 0.0
H1241 H 0.50861 0.16668 0.94458 0.0
H1242 H 0.48182 0.17333 0.98948 0.0
H1243 H 0.47866 0.20263 0.978 0.0
H1244 H 0.51578 0.16482 0.99402 0.0
H1245 H 0.44934 0.13694 0.96315 0.0
H1246 H 0.42763 0.13322 0.93878 0.0
H1247 H 0.46317 0.11025 0.91181 0.0
H1248 H 0.4853 0.11411 0.93596 0.0
H1249 H 0.48658 0.06279 0.02451 0.0
H1250 H 0.48572 0.09433 0.01555 0.0
H1251 H 0.50434 0.08622 0.96755 0.0
H1252 H 0.50482 0.05457 0.97641 0.0
H1253 H 0.47396 0.09581 0.96544 0.0
H1254 H 0.54054 0.12332 0.9952 0.0
H1255 H 0.56299 0.1267 0.01902 0.0
H1256 H 0.52926 0.1506 0.04721 0.0
H1257 H 0.50628 0.14695 0.02364 0.0
C1258 C 0.50047 0.19127 0.94543 0.0
C1259 C 0.49167 0.20144 0.95456 0.0
C1260 C 0.50224 0.17458 0.952 0.0
C1261 C 0.49512 0.16765 0.9678 0.0
C1262 C 0.48738 0.17845 0.97726 0.0
C1263 C 0.48562 0.19519 0.97069 0.0
C1264 C 0.49447 0.14828 0.97399 0.0
C1265 C 0.50645 0.14966 0.98791 0.0
C1266 C 0.48262 0.12862 0.96581 0.0
C1267 C 0.4691 0.12599 0.95133 0.0
C1268 C 0.45261 0.13122 0.952 0.0
C1269 C 0.44022 0.12907 0.93823 0.0
C1270 C 0.44404 0.12154 0.92375 0.0
C1271 C 0.46023 0.11608 0.92303 0.0
C1272 C 0.47269 0.11823 0.93676 0.0
C1273 C 0.49067 0.06788 0.01212 0.0
C1274 C 0.49597 0.05638 1.00122 0.0
C1275 C 0.49014 0.08586 0.00698 0.0
C1276 C 0.49531 0.09286 0.99092 0.0
C1277 C 0.50029 0.08115 0.97998 0.0
C1278 C 0.50054 0.06305 0.98506 0.0
C1279 C 0.49548 0.1123 0.9854 0.0
C1280 C 0.48333 0.11094 0.9716 0.0
C1281 C 0.50739 0.13198 0.9936 0.0
C1282 C 0.52156 0.1347 0.00768 0.0
C1283 C 0.53783 0.12919 0.0065 0.0
C1284 C 0.55065 0.13115 0.01996 0.0
C1285 C 0.54756 0.13887 0.03461 0.0
C1286 C 0.53164 0.14464 0.03584 0.0
C1287 C 0.51871 0.14263 0.02244 0.0
H1288 H 0.55751 0.1404 0.04501 0.0
H1289 H 0.43444 0.11989 0.9131 0.0
H1290 H 0.71225 0.20138 0.98244 0.0
H1291 H 0.67545 0.17265 0.98848 0.0
H1292 H 0.69019 0.1276 0.96642 0.0
H1293 H 0.72663 0.1563 0.96005 0.0
H1294 H 0.65082 0.11828 0.95812 0.0
H1295 H 0.69087 0.13532 0.00836 0.0
H1296 H 0.71275 0.15837 0.03095 0.0
H1297 H 0.66185 0.17129 0.04275 0.0
H1298 H 0.63977 0.14853 0.02007 0.0
H1299 H 0.57503 0.02174 0.99438 0.0
H1300 H 0.60912 0.05427 0.98863 0.0
H1301 H 0.58001 0.09163 1.00201 0.0
H1302 H 0.54564 0.05909 0.00724 0.0
H1303 H 0.62435 0.10649 0.01473 0.0
H1304 H 0.58343 0.08752 0.96544 0.0
H1305 H 0.56108 0.06307 0.94364 0.0
H1306 H 0.6135 0.053 0.93055 0.0
H1307 H 0.63603 0.0771 0.95249 0.0
C1308 C 0.70746 0.18535 0.97874 0.0
C1309 C 0.72225 0.18106 0.97078 0.0
C1310 C 0.68652 0.16892 0.9823 0.0
C1311 C 0.68006 0.14783 0.97813 0.0
C1312 C 0.6947 0.14367 0.96979 0.0
C1313 C 0.71556 0.16009 0.96617 0.0
C1314 C 0.65829 0.12997 0.98266 0.0
C1315 C 0.64517 0.11568 0.97053 0.0
C1316 C 0.65051 0.12672 0.99879 0.0
C1317 C 0.6638 0.14046 0.01238 0.0
C1318 C 0.68443 0.14323 0.01568 0.0
C1319 C 0.69685 0.15621 0.02852 0.0
C1320 C 0.68873 0.16635 0.03824 0.0
C1321 C 0.66814 0.16347 0.03518 0.0
C1322 C 0.65567 0.15054 0.02234 0.0
C1323 C 0.57599 0.0369 0.99625 0.0
C1324 C 0.55783 0.03789 1.00157 0.0
C1325 C 0.59543 0.05545 0.99296 0.0
C1326 C 0.59707 0.07534 0.99489 0.0
C1327 C 0.5791 0.07644 1.00053 0.0
C1328 C 0.55952 0.05784 0.00359 0.0
C1329 C 0.61729 0.09482 0.99024 0.0
C1330 C 0.63002 0.10932 1.00232 0.0
C1331 C 0.62475 0.09826 0.97409 0.0
C1332 C 0.61136 0.08398 0.96072 0.0
C1333 C 0.59013 0.07996 0.95801 0.0
C1334 C 0.57744 0.06618 0.94561 0.0
C1335 C 0.58585 0.05646 0.93574 0.0
C1336 C 0.607 0.06053 0.93822 0.0
C1337 C 0.61975 0.07426 0.95063 0.0
H1338 H 0.57601 0.0458 0.92614 0.0
H1339 H 0.69837 0.17638 0.04819 0.0
H1340 H 0.83836 0.54119 0.94836 0.0
H1341 H 0.86736 0.53358 0.9552 0.0
H1342 H 0.85272 0.5329 0.00589 0.0
H1343 H 0.82395 0.54065 0.99907 0.0
H1344 H 0.89488 0.55702 1.00116 0.0
H1345 H 0.84027 0.48707 0.98506 0.0
H1346 H 0.81303 0.45987 0.96684 0.0
H1347 H 0.86209 0.47374 0.93128 0.0
H1348 H 0.88959 0.50123 0.94921 0.0
H1349 H 0.94999 0.48628 0.00869 0.0
H1350 H 0.91846 0.4909 0.0051 0.0
H1351 H 0.96074 0.55571 0.99094 0.0
H1352 H 0.99218 0.55157 0.99577 0.0
H1353 H 0.90367 0.49861 0.97867 0.0
H1354 H 0.94867 0.5824 0.99534 0.0
H1355 H 0.97237 0.60837 0.01598 0.0
H1356 H 0.93682 0.5641 0.05361 0.0
H1357 H 0.91315 0.53788 0.03306 0.0
C1358 C 0.84117 0.53906 0.96093 0.0
C1359 C 0.82887 0.54145 0.97317 0.0
C1360 C 0.85771 0.53469 0.96484 0.0
C1361 C 0.86226 0.53259 0.98109 0.0
C1362 C 0.84961 0.53449 0.99328 0.0
C1363 C 0.83309 0.53882 0.98937 0.0
C1364 C 0.88091 0.5296 0.98552 0.0
C1365 C 0.89672 0.54421 0.9962 0.0
C1366 C 0.88345 0.51287 0.97922 0.0
C1367 C 0.86695 0.49635 0.96842 0.0
C1368 C 0.84522 0.48444 0.9733 0.0
C1369 C 0.82974 0.46895 0.96304 0.0
C1370 C 0.83581 0.46512 0.94789 0.0
C1371 C 0.8574 0.47674 0.943 0.0
C1372 C 0.87295 0.49227 0.95322 0.0
C1373 C 0.95258 0.50175 0.00548 0.0
C1374 C 0.97366 0.5188 0.00314 0.0
C1375 C 0.9345 0.50434 0.00322 0.0
C1376 C 0.93704 0.52391 0.9982 0.0
C1377 C 0.95814 0.54079 0.99561 0.0
C1378 C 0.97618 0.53832 0.99816 0.0
C1379 C 0.9177 0.52611 0.99427 0.0
C1380 C 0.9018 0.51141 0.9836 0.0
C1381 C 0.91492 0.54268 1.00063 0.0
C1382 C 0.92983 0.55796 0.01275 0.0
C1383 C 0.94623 0.57814 0.00801 0.0
C1384 C 0.95958 0.59291 0.01967 0.0
C1385 C 0.95628 0.5878 0.0361 0.0
C1386 C 0.93954 0.56796 0.04088 0.0
C1387 C 0.92632 0.55307 0.02924 0.0
H1388 H 0.96657 0.59928 0.04511 0.0
H1389 H 0.8238 0.45311 0.93996 0.0
H1390 H 0.5038 0.29654 0.98793 0.0
H1391 H 0.51033 0.33226 0.99394 0.0
H1392 H 0.46262 0.32412 0.95806 0.0
H1393 H 0.45642 0.28855 0.95183 0.0
H1394 H 0.49725 0.36376 0.9571 0.0
H1395 H 0.44953 0.31712 0.99789 0.0
H1396 H 0.43772 0.29018 0.01932 0.0
H1397 H 0.49393 0.33143 0.04768 0.0
H1398 H 0.50622 0.35852 0.02631 0.0
H1399 H 0.47844 0.44532 0.98643 0.0
H1400 H 0.47322 0.41063 0.97874 0.0
H1401 H 0.52396 0.4194 0.01184 0.0
H1402 H 0.52959 0.45414 0.0194 0.0
H1403 H 0.48739 0.37957 0.01391 0.0
H1404 H 0.53484 0.42649 0.97315 0.0
H1405 H 0.5456 0.45402 0.95229 0.0
H1406 H 0.48929 0.41266 0.92409 0.0
H1407 H 0.47799 0.38496 0.94493 0.0
C1408 C 0.4948 0.30248 0.98133 0.0
C1409 C 0.47927 0.28973 0.96972 0.0
C1410 C 0.49849 0.32281 0.98476 0.0
C1411 C 0.48664 0.33069 0.97667 0.0
C1412 C 0.47183 0.31831 0.96452 0.0
C1413 C 0.4682 0.29799 0.96105 0.0
C1414 C 0.48911 0.35147 0.98134 0.0
C1415 C 0.49485 0.36713 0.96948 0.0
C1416 C 0.48629 0.35599 0.99754 0.0
C1417 C 0.4789 0.33975 0.01043 0.0
C1418 C 0.45945 0.32038 0.00864 0.0
C1419 C 0.45266 0.30509 0.02079 0.0
C1420 C 0.4651 0.30907 0.03483 0.0
C1421 C 0.48433 0.32836 0.03679 0.0
C1422 C 0.49121 0.34369 0.02467 0.0
C1423 C 0.48844 0.43986 0.99214 0.0
C1424 C 0.50432 0.45249 0.00366 0.0
C1425 C 0.48547 0.42006 0.98769 0.0
C1426 C 0.4983 0.41255 0.99467 0.0
C1427 C 0.51386 0.42491 0.00636 0.0
C1428 C 0.51697 0.44475 0.01072 0.0
C1429 C 0.49563 0.39183 0.98973 0.0
C1430 C 0.48981 0.37618 1.00154 0.0
C1431 C 0.49835 0.38736 0.9735 0.0
C1432 C 0.50544 0.40372 0.9607 0.0
C1433 C 0.52467 0.4233 0.96255 0.0
C1434 C 0.53088 0.43894 0.95073 0.0
C1435 C 0.51807 0.43513 0.93692 0.0
C1436 C 0.49914 0.4156 0.93483 0.0
C1437 C 0.49284 0.39992 0.94663 0.0
H1438 H 0.52285 0.4473 0.92782 0.0
H1439 H 0.45981 0.29721 0.04422 0.0
H1440 H 0.19534 0.73017 0.03056 0.0
H1441 H 0.16506 0.69445 0.02529 0.0
H1442 H 0.17196 0.67549 0.07328 0.0
H1443 H 0.20222 0.71139 0.07868 0.0
H1444 H 0.16419 0.6445 0.04824 0.0
H1445 H 0.1344 0.6869 0.06791 0.0
H1446 H 0.12944 0.71803 0.06832 0.0
H1447 H 0.10532 0.70458 0.0195 0.0
H1448 H 0.11046 0.67353 0.01871 0.0
H1449 H 0.05927 0.55167 0.052 0.0
H1450 H 0.09015 0.58678 0.05875 0.0
H1451 H 0.08649 0.60904 0.01118 0.0
H1452 H 0.05585 0.57396 0.00442 0.0
H1453 H 0.09272 0.63798 0.03673 0.0
H1454 H 0.12105 0.59562 0.01657 0.0
H1455 H 0.1255 0.56427 0.01515 0.0
H1456 H 0.15352 0.57793 0.06281 0.0
H1457 H 0.14824 0.60881 0.06488 0.0
C1458 C 0.19067 0.71827 0.03987 0.0
C1459 C 0.20149 0.72344 0.05488 0.0
C1460 C 0.17331 0.69791 0.03688 0.0
C1461 C 0.16624 0.6823 0.04889 0.0
C1462 C 0.17727 0.68724 0.0638 0.0
C1463 C 0.19457 0.70772 0.06685 0.0
C1464 C 0.14659 0.66127 0.04611 0.0
C1465 C 0.14849 0.64299 0.04599 0.0
C1466 C 0.12622 0.65941 0.04274 0.0
C1467 C 0.12301 0.67801 0.04321 0.0
C1468 C 0.12821 0.69068 0.05722 0.0
C1469 C 0.12534 0.7083 0.05753 0.0
C1470 C 0.11712 0.71331 0.04393 0.0
C1471 C 0.11171 0.70069 0.03001 0.0
C1472 C 0.11459 0.68307 0.02963 0.0
C1473 C 0.06493 0.56421 0.04312 0.0
C1474 C 0.05541 0.56023 0.02768 0.0
C1475 C 0.08258 0.58415 0.04693 0.0
C1476 C 0.09069 0.60045 0.03541 0.0
C1477 C 0.08052 0.59668 0.02022 0.0
C1478 C 0.06315 0.57665 0.01633 0.0
C1479 C 0.11027 0.62119 0.03894 0.0
C1480 C 0.10838 0.63942 0.03912 0.0
C1481 C 0.13064 0.62298 0.04219 0.0
C1482 C 0.13389 0.60439 0.041 0.0
C1483 C 0.12779 0.59176 0.02689 0.0
C1484 C 0.13044 0.57403 0.02597 0.0
C1485 C 0.1396 0.56899 0.03894 0.0
C1486 C 0.14618 0.58171 0.05285 0.0
C1487 C 0.1433 0.5993 0.05392 0.0
H1488 H 0.14172 0.55531 0.03818 0.0
H1489 H 0.1149 0.72695 0.04419 0.0
H1490 H 0.29598 0.48519 0.02873 0.0
H1491 H 0.33311 0.49327 0.02322 0.0
H1492 H 0.33813 0.47421 0.07166 0.0
H1493 H 0.30099 0.46634 0.07722 0.0
H1494 H 0.37571 0.50822 0.063 0.0
H1495 H 0.32616 0.44049 0.03947 0.0
H1496 H 0.2958 0.41542 0.02214 0.0
H1497 H 0.32894 0.45127 0.98006 0.0
H1498 H 0.35938 0.47673 0.99718 0.0
H1499 H 0.44711 0.4637 0.03334 0.0
H1500 H 0.41192 0.46109 0.03805 0.0
H1501 H 0.43955 0.52738 0.02706 0.0
H1502 H 0.4748 0.52998 0.02206 0.0
H1503 H 0.38617 0.47057 0.01684 0.0
H1504 H 0.41195 0.54365 0.05902 0.0
H1505 H 0.44111 0.56599 0.07825 0.0
H1506 H 0.45506 0.51572 0.08549 0.0
H1507 H 0.42547 0.49279 0.0668 0.0
C1508 C 0.30512 0.483 0.03826 0.0
C1509 C 0.29555 0.47497 0.05337 0.0
C1510 C 0.32632 0.48751 0.03508 0.0
C1511 C 0.33839 0.48402 0.04692 0.0
C1512 C 0.32919 0.47699 0.06229 0.0
C1513 C 0.30798 0.47247 0.06547 0.0
C1514 C 0.36013 0.48673 0.04306 0.0
C1515 C 0.37804 0.50013 0.05282 0.0
C1516 C 0.36319 0.47593 0.02993 0.0
C1517 C 0.34491 0.46065 0.01963 0.0
C1518 C 0.32688 0.44313 0.02654 0.0
C1519 C 0.30968 0.42883 0.01675 0.0
C1520 C 0.31041 0.43179 1.00002 0.0
C1521 C 0.32837 0.44903 0.99303 0.0
C1522 C 0.34561 0.46339 0.00277 0.0
C1523 C 0.44559 0.47764 0.03174 0.0
C1524 C 0.46354 0.4969 0.02701 0.0
C1525 C 0.42551 0.47615 0.03443 0.0
C1526 C 0.42311 0.49406 0.03299 0.0
C1527 C 0.44106 0.5134 0.02833 0.0
C1528 C 0.46112 0.51481 0.02534 0.0
C1529 C 0.40181 0.49231 0.03661 0.0
C1530 C 0.38395 0.47899 0.02683 0.0
C1531 C 0.39881 0.503 0.04986 0.0
C1532 C 0.41676 0.51664 0.06115 0.0
C1533 C 0.42118 0.53731 0.06474 0.0
C1534 C 0.43771 0.55005 0.07564 0.0
C1535 C 0.45002 0.54232 0.08301 0.0
C1536 C 0.44564 0.52175 0.07965 0.0
C1537 C 0.42897 0.50887 0.0689 0.0
H1538 H 0.4629 0.55225 0.09136 0.0
H1539 H 0.29708 0.4207 0.99246 0.0
H1540 H 0.53894 0.81128 0.03984 0.0
H1541 H 0.52992 0.83818 0.03147 0.0
H1542 H 0.5354 0.85919 0.08104 0.0
H1543 H 0.54433 0.83212 0.08944 0.0
H1544 H 0.50084 0.85852 0.065 0.0
H1545 H 0.5769 0.88564 0.05638 0.0
H1546 H 0.6089 0.88506 0.04579 0.0
H1547 H 0.58593 0.88173 0.99717 0.0
H1548 H 0.55361 0.88198 0.0075 0.0
H1549 H 0.51805 0.96206 0.05054 0.0
H1550 H 0.52247 0.93235 0.05904 0.0
H1551 H 0.51658 0.91159 0.0094 0.0
H1552 H 0.51248 0.94138 1.00081 0.0
H1553 H 0.55036 0.91157 0.02538 0.0
H1554 H 0.47494 0.88614 0.03395 0.0
H1555 H 0.44359 0.88789 0.04459 0.0
H1556 H 0.46533 0.88858 0.09322 0.0
H1557 H 0.49704 0.88722 0.08286 0.0
C1558 C 0.53803 0.82153 0.04894 0.0
C1559 C 0.54261 0.81992 0.06524 0.0
C1560 C 0.5329 0.83688 0.04417 0.0
C1561 C 0.5323 0.85088 0.05561 0.0
C1562 C 0.53584 0.84859 0.07202 0.0
C1563 C 0.541 0.83324 0.0768 0.0
C1564 C 0.52923 0.86863 0.05032 0.0
C1565 C 0.51177 0.87025 0.05647 0.0
C1566 C 0.5433 0.88371 0.03897 0.0
C1567 C 0.56273 0.88359 0.03272 0.0
C1568 C 0.57858 0.8846 0.04344 0.0
C1569 C 0.59679 0.88437 0.03748 0.0
C1570 C 0.59941 0.8833 0.02082 0.0
C1571 C 0.58385 0.88252 0.01007 0.0
C1572 C 0.5656 0.88272 0.01597 0.0
C1573 C 0.51784 0.95128 0.0414 0.0
C1574 C 0.51473 0.95403 0.02495 0.0
C1575 C 0.52019 0.9342 0.04631 0.0
C1576 C 0.51956 0.91963 0.03487 0.0
C1577 C 0.51695 0.92259 0.01843 0.0
C1578 C 0.51445 0.93956 0.01354 0.0
C1579 C 0.52196 0.90146 0.04001 0.0
C1580 C 0.53935 0.89979 0.03385 0.0
C1581 C 0.50781 0.88638 0.05134 0.0
C1582 C 0.48852 0.88681 0.05762 0.0
C1583 C 0.47314 0.88683 0.04691 0.0
C1584 C 0.45529 0.88773 0.05289 0.0
C1585 C 0.45253 0.88844 0.06956 0.0
C1586 C 0.46753 0.88809 0.0803 0.0
C1587 C 0.48544 0.88724 0.07438 0.0
H1588 H 0.43875 0.88922 0.07417 0.0
H1589 H 0.61353 0.88313 0.01623 0.0
H1590 H 0.95409 0.15224 0.37886 0.0
H1591 H 0.98674 0.18125 0.36695 0.0
H1592 H 0.01784 0.19653 0.41382 0.0
H1593 H 0.98573 0.16687 0.42565 0.0
H1594 H 1.00495 0.22165 0.37166 0.0
H1595 H 0.07268 0.221 0.4101 0.0
H1596 H 0.08039 0.19562 0.42405 0.0
H1597 H 0.03661 0.14594 0.39202 0.0
H1598 H 0.02887 0.17108 0.37773 0.0
H1599 H 0.10306 0.32013 0.36768 0.0
H1600 H 0.06958 0.28764 0.37409 0.0
H1601 H 0.09562 0.25066 0.35334 0.0
H1602 H 0.12966 0.28313 0.34806 0.0
H1603 H 0.07946 0.2345 0.38007 0.0
H1604 H 0.04757 0.2524 0.33516 0.0
H1605 H 0.03877 0.27551 0.31879 0.0
H1606 H 0.01034 0.28736 0.36036 0.0
H1607 H 0.01878 0.2642 0.37685 0.0
C1608 C 0.96802 0.16145 0.3866 0.0
C1609 C 0.96717 0.15712 0.40325 0.0
C1610 C 0.98665 0.17821 0.37978 0.0
C1611 C 1.00491 0.19106 0.38942 0.0
C1612 C 1.00417 0.1867 0.40603 0.0
C1613 C 0.98561 0.16985 0.41283 0.0
C1614 C 0.02426 0.20959 0.38225 0.0
C1615 C 0.02123 0.22436 0.37344 0.0
C1616 C 0.04557 0.21321 0.38442 0.0
C1617 C 0.05003 0.1979 0.39295 0.0
C1618 C 0.06473 0.20467 0.40601 0.0
C1619 C 0.06911 0.19032 0.41398 0.0
C1620 C 0.05894 0.16916 0.40896 0.0
C1621 C 0.04441 0.16232 0.39594 0.0
C1622 C 0.03999 0.1766 0.38791 0.0
C1623 C 0.10145 0.30506 0.36421 0.0
C1624 C 0.11888 0.30427 0.35705 0.0
C1625 C 0.08218 0.28643 0.36775 0.0
C1626 C 0.07972 0.2665 0.36399 0.0
C1627 C 0.09694 0.26575 0.35635 0.0
C1628 C 0.11639 0.28439 0.35311 0.0
C1629 C 0.06017 0.24658 0.36942 0.0
C1630 C 0.06317 0.23166 0.37809 0.0
C1631 C 0.0388 0.24264 0.36695 0.0
C1632 C 0.03409 0.25688 0.35722 0.0
C1633 C 0.03966 0.26016 0.34078 0.0
C1634 C 0.03464 0.27315 0.33149 0.0
C1635 C 0.02419 0.28303 0.33857 0.0
C1636 C 0.01852 0.27977 0.35491 0.0
C1637 C 0.02332 0.26664 0.3642 0.0
H1638 H 0.02038 0.29313 0.33136 0.0
H1639 H 0.06236 0.15808 0.41514 0.0
H1640 H 0.83476 0.77055 0.40868 0.0
H1641 H 0.80534 0.77523 0.39848 0.0
H1642 H 0.85167 0.83719 0.38082 0.0
H1643 H 0.88136 0.83286 0.39156 0.0
H1644 H 0.81981 0.83892 0.39594 0.0
H1645 H 0.82267 0.79479 0.3547 0.0
H1646 H 0.82387 0.76421 0.34305 0.0
H1647 H 0.76173 0.72185 0.36354 0.0
H1648 H 0.76028 0.75217 0.37551 0.0
H1649 H 0.73517 0.84874 0.35813 0.0
H1650 H 0.76789 0.84653 0.3624 0.0
H1651 H 0.72912 0.78338 0.3813 0.0
H1652 H 0.69622 0.78527 0.37628 0.0
H1653 H 0.75947 0.78454 0.36261 0.0
H1654 H 0.75898 0.82973 0.40588 0.0
H1655 H 0.75858 0.86102 0.41699 0.0
H1656 H 0.81714 0.9021 0.39149 0.0
H1657 H 0.81775 0.87107 0.38008 0.0
C1658 C 0.83878 0.78522 0.40265 0.0
C1659 C 0.86052 0.80138 0.40107 0.0
C1660 C 0.82187 0.78779 0.39664 0.0
C1661 C 0.82616 0.80649 0.38869 0.0
C1662 C 0.84787 0.82258 0.38686 0.0
C1663 C 0.86487 0.82001 0.39289 0.0
C1664 C 0.80788 0.80943 0.38298 0.0
C1665 C 0.80682 0.82718 0.38841 0.0
C1666 C 0.79068 0.79406 0.37331 0.0
C1667 C 0.79145 0.77576 0.36612 0.0
C1668 C 0.80933 0.77895 0.35683 0.0
C1669 C 0.81005 0.76166 0.35015 0.0
C1670 C 0.79291 0.7411 0.35258 0.0
C1671 C 0.775 0.73779 0.36167 0.0
C1672 C 0.77421 0.75502 0.36839 0.0
C1673 C 0.73357 0.83425 0.36291 0.0
C1674 C 0.71304 0.81696 0.36647 0.0
C1675 C 0.75237 0.8331 0.36559 0.0
C1676 C 0.75114 0.81485 0.37237 0.0
C1677 C 0.7306 0.79761 0.376 0.0
C1678 C 0.71179 0.79871 0.37319 0.0
C1679 C 0.77113 0.81371 0.37594 0.0
C1680 C 0.77253 0.79632 0.37006 0.0
C1681 C 0.7887 0.82947 0.38512 0.0
C1682 C 0.78831 0.84809 0.39203 0.0
C1683 C 0.77169 0.84544 0.40257 0.0
C1684 C 0.77144 0.86312 0.40892 0.0
C1685 C 0.78782 0.88352 0.40493 0.0
C1686 C 0.80447 0.88629 0.39456 0.0
C1687 C 0.80478 0.86867 0.38816 0.0
H1688 H 0.7877 0.8972 0.40992 0.0
H1689 H 0.79349 0.72773 0.3474 0.0
H1690 H 0.2395 0.06491 0.40673 0.0
H1691 H 0.23474 0.0326 0.39355 0.0
H1692 H 0.16622 0.00926 0.3889 0.0
H1693 H 0.17101 0.04192 0.40168 0.0
H1694 H 0.18516 0.98094 0.40426 0.0
H1695 H 0.18311 0.0207 0.35753 0.0
H1696 H 0.1976 0.05297 0.34094 0.0
H1697 H 0.25736 0.05284 0.33515 0.0
H1698 H 0.24333 0.02074 0.35195 0.0
H1699 H 0.16897 0.90489 0.33456 0.0
H1700 H 0.17116 0.93764 0.34423 0.0
H1701 H 0.22073 0.94639 0.37847 0.0
H1702 H 0.21917 0.91405 0.36866 0.0
H1703 H 0.20781 0.98101 0.34746 0.0
H1704 H 0.20511 0.95962 0.41455 0.0
H1705 H 0.19263 0.92775 0.43142 0.0
H1706 H 0.143 0.89094 0.39649 0.0
H1707 H 0.15494 0.92262 0.37958 0.0
C1708 C 0.22345 0.05287 0.40285 0.0
C1709 C 0.2056 0.05579 0.40517 0.0
C1710 C 0.22077 0.03451 0.39535 0.0
C1711 C 0.20015 0.01865 0.39032 0.0
C1712 C 0.18224 0.0214 0.39274 0.0
C1713 C 0.18499 0.04 0.39994 0.0
C1714 C 0.19749 0.99924 0.38251 0.0
C1715 C 0.18995 0.98086 0.39182 0.0
C1716 C 0.20387 0.9993 0.36633 0.0
C1717 C 0.21225 0.01847 0.35613 0.0
C1718 C 0.19942 0.02769 0.35286 0.0
C1719 C 0.20753 0.04591 0.34339 0.0
C1720 C 0.22841 0.05499 0.33703 0.0
C1721 C 0.2412 0.04582 0.3401 0.0
C1722 C 0.23317 0.0276 0.34958 0.0
C1723 C 0.18069 0.91397 0.34389 0.0
C1724 C 0.19385 0.90674 0.35084 0.0
C1725 C 0.18186 0.93267 0.34942 0.0
C1726 C 0.19593 0.94422 0.36215 0.0
C1727 C 0.20964 0.93753 0.36871 0.0
C1728 C 0.20869 0.91901 0.36307 0.0
C1729 C 0.19552 0.96268 0.36921 0.0
C1730 C 0.20272 0.98096 0.35983 0.0
C1731 C 0.18889 0.96252 0.38537 0.0
C1732 C 0.18105 0.94349 0.39574 0.0
C1733 C 0.19144 0.94475 0.41053 0.0
C1734 C 0.18448 0.92671 0.4201 0.0
C1735 C 0.16706 0.90733 0.41503 0.0
C1736 C 0.15652 0.90595 0.40041 0.0
C1737 C 0.1634 0.92394 0.39082 0.0
H1738 H 0.1617 0.89341 0.42246 0.0
H1739 H 0.23466 0.0691 0.3297 0.0
H1740 H 0.49481 0.60299 0.30876 0.0
H1741 H 0.52331 0.63662 0.32004 0.0
H1742 H 0.51004 0.67056 0.28321 0.0
H1743 H 0.48249 0.63679 0.27139 0.0
H1744 H 0.55007 0.68854 0.28586 0.0
H1745 H 0.49478 0.66771 0.32531 0.0
H1746 H 0.46721 0.64424 0.34488 0.0
H1747 H 0.51633 0.64157 0.37325 0.0
H1748 H 0.54416 0.6648 0.35373 0.0
H1749 H 0.60141 0.77734 0.35193 0.0
H1750 H 0.57081 0.7444 0.34187 0.0
H1751 H 0.61467 0.73015 0.31626 0.0
H1752 H 0.64541 0.7632 0.32613 0.0
H1753 H 0.55762 0.70416 0.34477 0.0
H1754 H 0.59146 0.70569 0.28 0.0
H1755 H 0.6156 0.73227 0.26021 0.0
H1756 H 0.60333 0.77882 0.28187 0.0
H1757 H 0.57871 0.75246 0.30151 0.0
C1758 C 0.49788 0.61769 0.30324 0.0
C1759 C 0.4864 0.6174 0.28933 0.0
C1760 C 0.51412 0.63694 0.3097 0.0
C1761 C 0.51874 0.65633 0.30269 0.0
C1762 C 0.50693 0.65594 0.28888 0.0
C1763 C 0.49108 0.63667 0.28219 0.0
C1764 C 0.53628 0.67693 0.3094 0.0
C1765 C 0.55164 0.6919 0.29875 0.0
C1766 C 0.5382 0.68179 0.32618 0.0
C1767 C 0.52152 0.66785 0.33797 0.0
C1768 C 0.49968 0.662 0.33566 0.0
C1769 C 0.48401 0.64876 0.34676 0.0
C1770 C 0.49 0.64138 0.36028 0.0
C1771 C 0.5117 0.64728 0.36276 0.0
C1772 C 0.52743 0.6605 0.35169 0.0
C1773 C 0.60463 0.76711 0.34432 0.0
C1774 C 0.62594 0.773 0.33984 0.0
C1775 C 0.58706 0.74825 0.33855 0.0
C1776 C 0.59036 0.73488 0.32812 0.0
C1777 C 0.61166 0.74037 0.32405 0.0
C1778 C 0.62925 0.75926 0.32978 0.0
C1779 C 0.57153 0.71541 0.32127 0.0
C1780 C 0.55597 0.70072 0.33189 0.0
C1781 C 0.56893 0.71123 0.3044 0.0
C1782 C 0.58346 0.72712 0.2924 0.0
C1783 C 0.59384 0.72157 0.28051 0.0
C1784 C 0.60761 0.7366 0.26931 0.0
C1785 C 0.6111 0.75724 0.26987 0.0
C1786 C 0.60072 0.76287 0.28153 0.0
C1787 C 0.58684 0.74787 0.29269 0.0
H1788 H 0.62171 0.76884 0.26119 0.0
H1789 H 0.47785 0.63113 0.36885 0.0
H1790 H 0.40575 0.90947 0.28586 0.0
H1791 H 0.3717 0.90481 0.29634 0.0
H1792 H 0.35507 0.84294 0.31402 0.0
H1793 H 0.38899 0.84725 0.30306 0.0
H1794 H 0.32124 0.84125 0.29898 0.0
H1795 H 0.36998 0.88535 0.3401 0.0
H1796 H 0.40264 0.91605 0.35151 0.0
H1797 H 0.38299 0.95815 0.3315 0.0
H1798 H 0.35036 0.92772 0.31976 0.0
H1799 H 0.22665 0.83123 0.3371 0.0
H1800 H 0.26174 0.83342 0.33319 0.0
H1801 H 0.28763 0.89647 0.31405 0.0
H1802 H 0.25273 0.89451 0.31846 0.0
H1803 H 0.31684 0.89523 0.33291 0.0
H1804 H 0.26996 0.8508 0.28947 0.0
H1805 H 0.23846 0.81986 0.27702 0.0
H1806 H 0.25503 0.77809 0.30164 0.0
H1807 H 0.2865 0.80876 0.31436 0.0
C1808 C 0.39487 0.89481 0.29194 0.0
C1809 C 0.40016 0.87869 0.2935 0.0
C1810 C 0.37544 0.89227 0.29811 0.0
C1811 C 0.36077 0.8736 0.30616 0.0
C1812 C 0.36608 0.85753 0.30792 0.0
C1813 C 0.38559 0.86009 0.30175 0.0
C1814 C 0.33958 0.87061 0.31205 0.0
C1815 C 0.32031 0.85287 0.30666 0.0
C1816 C 0.33821 0.88589 0.32187 0.0
C1817 C 0.3578 0.90424 0.32894 0.0
C1818 C 0.3727 0.90117 0.33803 0.0
C1819 C 0.3912 0.91852 0.34457 0.0
C1820 C 0.39491 0.93904 0.3422 0.0
C1821 C 0.3801 0.94224 0.33331 0.0
C1822 C 0.36159 0.92494 0.32673 0.0
C1823 C 0.23994 0.84571 0.33239 0.0
C1824 C 0.23705 0.86289 0.32841 0.0
C1825 C 0.25997 0.84685 0.32994 0.0
C1826 C 0.27741 0.86503 0.32313 0.0
C1827 C 0.27454 0.88227 0.31936 0.0
C1828 C 0.25457 0.88114 0.32185 0.0
C1829 C 0.29851 0.86611 0.31952 0.0
C1830 C 0.31777 0.8835 0.32537 0.0
C1831 C 0.29987 0.85048 0.31014 0.0
C1832 C 0.28046 0.83206 0.30298 0.0
C1833 C 0.26674 0.83501 0.29237 0.0
C1834 C 0.24893 0.81752 0.28523 0.0
C1835 C 0.24478 0.79703 0.28854 0.0
C1836 C 0.25829 0.79397 0.29909 0.0
C1837 C 0.2761 0.81139 0.30626 0.0
H1838 H 0.2312 0.78352 0.28285 0.0
H1839 H 0.40924 0.95245 0.34728 0.0
H1840 H 0.11796 0.50273 0.27748 0.0
H1841 H 0.12187 0.47427 0.28934 0.0
H1842 H 0.18329 0.52017 0.31022 0.0
H1843 H 0.17993 0.54885 0.29775 0.0
H1844 H 0.18582 0.488 0.29707 0.0
H1845 H 0.13775 0.49465 0.33357 0.0
H1846 H 0.10577 0.49701 0.34169 0.0
H1847 H 0.06384 0.43482 0.32223 0.0
H1848 H 0.09558 0.43221 0.31378 0.0
H1849 H 0.19202 0.41317 0.34844 0.0
H1850 H 0.18841 0.44328 0.33983 0.0
H1851 H 0.1311 0.40125 0.31239 0.0
H1852 H 0.13454 0.37094 0.32093 0.0
H1853 H 0.12744 0.43246 0.33048 0.0
H1854 H 0.17611 0.42697 0.29296 0.0
H1855 H 0.20835 0.4248 0.2853 0.0
H1856 H 0.24954 0.48533 0.3076 0.0
H1857 H 0.2175 0.4877 0.31563 0.0
C1858 C 0.13244 0.50682 0.28444 0.0
C1859 C 0.14869 0.5281 0.2866 0.0
C1860 C 0.13451 0.49051 0.2914 0.0
C1861 C 0.15273 0.49508 0.30086 0.0
C1862 C 0.16905 0.51628 0.30302 0.0
C1863 C 0.16702 0.53265 0.296 0.0
C1864 C 0.15483 0.47764 0.3082 0.0
C1865 C 0.17323 0.47608 0.30461 0.0
C1866 C 0.13821 0.46184 0.3178 0.0
C1867 C 0.11907 0.46331 0.32292 0.0
C1868 C 0.12172 0.48154 0.33091 0.0
C1869 C 0.10363 0.48291 0.33559 0.0
C1870 C 0.08279 0.46609 0.33245 0.0
C1871 C 0.08 0.44784 0.32465 0.0
C1872 C 0.09803 0.4464 0.31992 0.0
C1873 C 0.17847 0.41025 0.34074 0.0
C1874 C 0.16356 0.38964 0.33535 0.0
C1875 C 0.17652 0.4275 0.33577 0.0
C1876 C 0.1596 0.42446 0.32539 0.0
C1877 C 0.14428 0.40388 0.32041 0.0
C1878 C 0.14632 0.38661 0.32525 0.0
C1879 C 0.1583 0.44284 0.31924 0.0
C1880 C 0.14008 0.44452 0.32304 0.0
C1881 C 0.17511 0.4588 0.30991 0.0
C1882 C 0.19439 0.45742 0.30504 0.0
C1883 C 0.19203 0.43973 0.29636 0.0
C1884 C 0.21027 0.43847 0.29193 0.0
C1885 C 0.23097 0.4549 0.29598 0.0
C1886 C 0.23348 0.47261 0.30448 0.0
C1887 C 0.21529 0.47392 0.30897 0.0
H1888 H 0.24508 0.45398 0.29247 0.0
H1889 H 0.06881 0.46719 0.33608 0.0
H1890 H 0.38735 0.53625 0.31714 0.0
H1891 H 0.35042 0.50785 0.32323 0.0
H1892 H 0.3619 0.46352 0.2964 0.0
H1893 H 0.39852 0.49196 0.29002 0.0
H1894 H 0.32265 0.45649 0.29002 0.0
H1895 H 0.36466 0.46737 0.3387 0.0
H1896 H 0.38805 0.48784 0.36166 0.0
H1897 H 0.33953 0.50194 0.37807 0.0
H1898 H 0.31595 0.48179 0.35506 0.0
H1899 H 0.24612 0.35788 0.3233 0.0
H1900 H 0.28078 0.39022 0.31848 0.0
H1901 H 0.25362 0.42807 0.33512 0.0
H1902 H 0.21868 0.39583 0.3393 0.0
H1903 H 0.29865 0.44012 0.3471 0.0
H1904 H 0.25568 0.42715 0.29947 0.0
H1905 H 0.2318 0.40556 0.27709 0.0
H1906 H 0.28188 0.39468 0.25913 0.0
H1907 H 0.30595 0.41594 0.28158 0.0
C1908 C 0.38185 0.52044 0.31249 0.0
C1909 C 0.39581 0.51623 0.30326 0.0
C1910 C 0.36083 0.5042 0.31603 0.0
C1911 C 0.35343 0.48339 0.31052 0.0
C1912 C 0.36719 0.47938 0.30086 0.0
C1913 C 0.38815 0.49562 0.29725 0.0
C1914 C 0.33154 0.46567 0.31494 0.0
C1915 C 0.31754 0.45287 0.30252 0.0
C1916 C 0.32449 0.46116 0.33124 0.0
C1917 C 0.33867 0.47331 0.34504 0.0
C1918 C 0.35906 0.475 0.34712 0.0
C1919 C 0.37234 0.48652 0.36016 0.0
C1920 C 0.36532 0.49625 0.37129 0.0
C1921 C 0.34497 0.49444 0.36942 0.0
C1922 C 0.33164 0.48297 0.35638 0.0
C1923 C 0.24765 0.3731 0.32613 0.0
C1924 C 0.22985 0.3743 0.33206 0.0
C1925 C 0.26741 0.39152 0.32337 0.0
C1926 C 0.26974 0.4115 0.32649 0.0
C1927 C 0.25218 0.41279 0.33278 0.0
C1928 C 0.23226 0.39434 0.33526 0.0
C1929 C 0.29018 0.43093 0.32221 0.0
C1930 C 0.30381 0.44397 0.33463 0.0
C1931 C 0.29692 0.43567 0.30593 0.0
C1932 C 0.28257 0.42301 0.29231 0.0
C1933 C 0.26155 0.42002 0.29083 0.0
C1934 C 0.24798 0.40786 0.27812 0.0
C1935 C 0.25531 0.39872 0.26671 0.0
C1936 C 0.27623 0.40176 0.26798 0.0
C1937 C 0.28985 0.41388 0.2807 0.0
H1938 H 0.24479 0.3893 0.25688 0.0
H1939 H 0.37561 0.50515 0.38138 0.0
H1940 H 0.47804 0.84739 0.31797 0.0
H1941 H 0.50697 0.83886 0.32221 0.0
H1942 H 0.55281 0.8981 0.30019 0.0
H1943 H 0.52387 0.9063 0.29562 0.0
H1944 H 0.56113 0.86864 0.29065 0.0
H1945 H 0.54719 0.89012 0.34235 0.0
H1946 H 0.52537 0.88863 0.36594 0.0
H1947 H 0.51133 0.82523 0.37589 0.0
H1948 H 0.53281 0.82623 0.35221 0.0
H1949 H 0.6606 0.88444 0.32271 0.0
H1950 H 0.62835 0.88728 0.31709 0.0
H1951 H 0.58764 0.82347 0.33406 0.0
H1952 H 0.61984 0.82045 0.33933 0.0
H1953 H 0.57512 0.85193 0.34597 0.0
H1954 H 0.59043 0.83107 0.2953 0.0
H1955 H 0.61317 0.83274 0.2723 0.0
H1956 H 0.62543 0.89523 0.26095 0.0
H1957 H 0.603 0.89405 0.28405 0.0
C1958 C 0.49426 0.85841 0.31387 0.0
C1959 C 0.4987 0.87753 0.30653 0.0
C1960 C 0.51085 0.85364 0.31641 0.0
C1961 C 0.53229 0.868 0.31181 0.0
C1962 C 0.53651 0.88675 0.30393 0.0
C1963 C 0.51994 0.89145 0.30132 0.0
C1964 C 0.55045 0.86387 0.31543 0.0
C1965 C 0.56427 0.86523 0.3028 0.0
C1966 C 0.55439 0.8588 0.3312 0.0
C1967 C 0.54134 0.85814 0.34536 0.0
C1968 C 0.53926 0.87578 0.34947 0.0
C1969 C 0.52699 0.87504 0.36287 0.0
C1970 C 0.51689 0.85682 0.37237 0.0
C1971 C 0.5191 0.83931 0.3685 0.0
C1972 C 0.53131 0.83995 0.35508 0.0
C1973 C 0.64476 0.87109 0.32533 0.0
C1974 C 0.6428 0.85246 0.33191 0.0
C1975 C 0.62634 0.87268 0.32207 0.0
C1976 C 0.60552 0.85558 0.32514 0.0
C1977 C 0.60351 0.83692 0.33168 0.0
C1978 C 0.62195 0.83527 0.33481 0.0
C1979 C 0.58594 0.8572 0.32129 0.0
C1980 C 0.57188 0.8553 0.33384 0.0
C1981 C 0.5818 0.86181 0.30549 0.0
C1982 C 0.59518 0.86255 0.29151 0.0
C1983 C 0.59811 0.84524 0.28799 0.0
C1984 C 0.61092 0.84608 0.27491 0.0
C1985 C 0.62078 0.8641 0.26519 0.0
C1986 C 0.6178 0.88129 0.26851 0.0
C1987 C 0.60502 0.88053 0.28158 0.0
H1988 H 0.63069 0.86473 0.25508 0.0
H1989 H 0.50742 0.85629 0.38275 0.0
H1990 H 0.17263 0.62901 0.31651 0.0
H1991 H 0.18061 0.66531 0.32208 0.0
H1992 H 0.12436 0.65368 0.29423 0.0
H1993 H 0.11671 0.61758 0.28835 0.0
H1994 H 0.15739 0.69289 0.28876 0.0
H1995 H 0.12236 0.65039 0.33542 0.0
H1996 H 0.11722 0.62592 0.35771 0.0
H1997 H 0.17963 0.67066 0.37721 0.0
H1998 H 0.18526 0.69528 0.3549 0.0
H1999 H 0.14149 0.77422 0.32142 0.0
H2000 H 0.13695 0.73983 0.3138 0.0
H2001 H 0.19415 0.75369 0.34127 0.0
H2002 H 0.19869 0.78799 0.34915 0.0
H2003 H 0.162 0.71409 0.34642 0.0
H2004 H 0.19446 0.75865 0.30028 0.0
H2005 H 0.19673 0.78293 0.27864 0.0
H2006 H 0.13729 0.73403 0.25795 0.0
H2007 H 0.13412 0.70968 0.27977 0.0
C2008 C 0.16211 0.63434 0.31152 0.0
C2009 C 0.14389 0.6205 0.30226 0.0
C2010 C 0.16662 0.655 0.31471 0.0
C2011 C 0.15285 0.66209 0.3088 0.0
C2012 C 0.13514 0.64853 0.29896 0.0
C2013 C 0.13071 0.6279 0.2957 0.0
C2014 C 0.15629 0.68323 0.31351 0.0
C2015 C 0.15822 0.6975 0.30135 0.0
C2016 C 0.15768 0.68933 0.32995 0.0
C2017 C 0.15432 0.67457 0.34339 0.0
C2018 C 0.13506 0.65493 0.34439 0.0
C2019 C 0.13205 0.64105 0.35704 0.0
C2020 C 0.14812 0.6467 0.36884 0.0
C2021 C 0.16721 0.66628 0.36804 0.0
C2022 C 0.17032 0.68021 0.3554 0.0
C2023 C 0.15307 0.76994 0.32592 0.0
C2024 C 0.17046 0.78387 0.3359 0.0
C2025 C 0.1505 0.75031 0.32147 0.0
C2026 C 0.16542 0.74436 0.32674 0.0
C2027 C 0.1825 0.75801 0.33701 0.0
C2028 C 0.18502 0.7776 0.34154 0.0
C2029 C 0.16311 0.7238 0.3217 0.0
C2030 C 0.16136 0.70961 0.3338 0.0
C2031 C 0.16171 0.71778 0.3052 0.0
C2032 C 0.16394 0.73234 0.2918 0.0
C2033 C 0.18176 0.75309 0.2912 0.0
C2034 C 0.18322 0.76688 0.2789 0.0
C2035 C 0.16721 0.76002 0.26694 0.0
C2036 C 0.14968 0.73934 0.26724 0.0
C2037 C 0.14801 0.72554 0.2796 0.0
H2038 H 0.16841 0.77072 0.25742 0.0
H2039 H 0.14575 0.63594 0.37863 0.0
H2040 H 0.88875 0.05285 0.37496 0.0
H2041 H 0.8596 0.01639 0.36975 0.0
H2042 H 0.81494 0.02907 0.39588 0.0
H2043 H 0.84417 0.06529 0.4014 0.0
H2044 H 0.80734 0.99037 0.40261 0.0
H2045 H 0.81718 0.03029 0.3541 0.0
H2046 H 0.83765 0.05335 0.33133 0.0
H2047 H 0.85395 0.0071 0.31496 0.0
H2048 H 0.8338 0.98387 0.33777 0.0
H2049 H 0.70878 0.90601 0.37095 0.0
H2050 H 0.73903 0.94106 0.37789 0.0
H2051 H 0.7828 0.92677 0.35217 0.0
H2052 H 0.75268 0.89188 0.34501 0.0
H2053 H 0.79129 0.96584 0.34552 0.0
H2054 H 0.77836 0.92458 0.39375 0.0
H2055 H 0.75613 0.90173 0.41609 0.0
H2056 H 0.74451 0.9509 0.43297 0.0
H2057 H 0.7661 0.97384 0.41049 0.0
C2058 C 0.87273 0.04771 0.3797 0.0
C2059 C 0.86861 0.0619 0.38839 0.0
C2060 C 0.85607 0.02695 0.37666 0.0
C2061 C 0.83493 0.02006 0.38215 0.0
C2062 C 0.83105 0.034 0.39144 0.0
C2063 C 0.84774 0.05471 0.39455 0.0
C2064 C 0.8167 0.99864 0.37776 0.0
C2065 C 0.8037 0.98508 0.39011 0.0
C2066 C 0.81209 0.99154 0.36148 0.0
C2067 C 0.82419 0.00545 0.34774 0.0
C2068 C 0.82527 0.02511 0.34572 0.0
C2069 C 0.83679 0.0382 0.33279 0.0
C2070 C 0.84715 0.03172 0.32173 0.0
C2071 C 0.84595 0.01211 0.32355 0.0
C2072 C 0.83448 0.99897 0.33647 0.0
C2073 C 0.72482 0.91033 0.36672 0.0
C2074 C 0.72824 0.8961 0.35737 0.0
C2075 C 0.74214 0.93036 0.37077 0.0
C2076 C 0.76329 0.93649 0.36575 0.0
C2077 C 0.76666 0.92243 0.3562 0.0
C2078 C 0.74936 0.90246 0.35208 0.0
C2079 C 0.7819 0.95755 0.37036 0.0
C2080 C 0.79497 0.97105 0.35803 0.0
C2081 C 0.78645 0.96461 0.38666 0.0
C2082 C 0.77372 0.95089 0.40033 0.0
C2083 C 0.77093 0.93048 0.40215 0.0
C2084 C 0.75846 0.91751 0.41484 0.0
C2085 C 0.74896 0.92488 0.42593 0.0
C2086 C 0.75188 0.94522 0.42436 0.0
C2087 C 0.76421 0.9582 0.41164 0.0
H2088 H 0.73938 0.91486 0.43577 0.0
H2089 H 0.85605 0.04187 0.31173 0.0
H2090 H 0.96771 0.83043 0.37324 0.0
H2091 H 1.00526 0.83956 0.36782 0.0
H2092 H 0.99581 0.78585 0.39594 0.0
H2093 H 0.95856 0.77709 0.40164 0.0
H2094 H 0.03479 0.81768 0.40168 0.0
H2095 H 0.99289 0.7853 0.3534 0.0
H2096 H 0.96903 0.7813 0.33037 0.0
H2097 H 0.01599 0.84288 0.31311 0.0
H2098 H 0.04002 0.84737 0.33618 0.0
H2099 H 0.1135 0.79603 0.36909 0.0
H2100 H 0.07878 0.79397 0.37474 0.0
H2101 H 0.10281 0.85621 0.35461 0.0
H2102 H 0.13788 0.85863 0.34946 0.0
H2103 H 0.05855 0.82394 0.34457 0.0
H2104 H 0.1017 0.8548 0.39201 0.0
H2105 H 0.12593 0.85737 0.41435 0.0
H2106 H 0.0767 0.79754 0.43274 0.0
H2107 H 0.05229 0.79437 0.41032 0.0
C2108 C 0.97381 0.82078 0.3784 0.0
C2109 C 0.96015 0.80294 0.38772 0.0
C2110 C 0.99521 0.82588 0.37521 0.0
C2111 C 1.00338 0.81316 0.38117 0.0
C2112 C 0.98999 0.7959 0.3911 0.0
C2113 C 0.96865 0.79086 0.39434 0.0
C2114 C 0.02555 0.81733 0.37677 0.0
C2115 C 0.03984 0.81888 0.38917 0.0
C2116 C 0.03258 0.81943 0.36046 0.0
C2117 C 0.01811 0.81679 0.34664 0.0
C2118 C 0.99804 0.79807 0.34478 0.0
C2119 C 0.9845 0.7957 0.3317 0.0
C2120 C 0.99095 0.81186 0.32032 0.0
C2121 C 0.01099 0.8304 0.32196 0.0
C2122 C 0.02457 0.83287 0.33503 0.0
C2123 C 0.1113 0.80919 0.36572 0.0
C2124 C 0.12825 0.82727 0.35847 0.0
C2125 C 0.09148 0.80802 0.36898 0.0
C2126 C 0.08818 0.82493 0.36511 0.0
C2127 C 0.10495 0.84292 0.35762 0.0
C2128 C 0.12494 0.84422 0.35457 0.0
C2129 C 0.06742 0.82393 0.36945 0.0
C2130 C 0.05347 0.82296 0.35706 0.0
C2131 C 0.06068 0.82227 0.38574 0.0
C2132 C 0.07521 0.82425 0.39938 0.0
C2133 C 0.09609 0.84209 0.40073 0.0
C2134 C 0.10986 0.84368 0.41342 0.0
C2135 C 0.10288 0.82763 0.42493 0.0
C2136 C 0.08209 0.80996 0.4238 0.0
C2137 C 0.06827 0.80826 0.4111 0.0
H2138 H 0.11356 0.8289 0.43475 0.0
H2139 H 0.98046 0.80998 0.3102 0.0
H2140 H 0.20495 0.14312 0.36484 0.0
H2141 H 0.19662 0.17074 0.35725 0.0
H2142 H 0.20582 0.19243 0.40684 0.0
H2143 H 0.21405 0.16463 0.41447 0.0
H2144 H 0.17117 0.193 0.39274 0.0
H2145 H 0.24569 0.21792 0.38078 0.0
H2146 H 0.27671 0.21663 0.36894 0.0
H2147 H 0.25109 0.21314 0.32121 0.0
H2148 H 0.21973 0.2141 0.33279 0.0
H2149 H 0.20548 0.30376 0.3741 0.0
H2150 H 0.20903 0.27323 0.38164 0.0
H2151 H 0.16771 0.2374 0.34173 0.0
H2152 H 0.16316 0.26739 0.33447 0.0
H2153 H 0.21794 0.24413 0.35095 0.0
H2154 H 0.14046 0.21485 0.36481 0.0
H2155 H 0.11176 0.21932 0.37767 0.0
H2156 H 0.14636 0.23477 0.42284 0.0
H2157 H 0.17526 0.23041 0.41024 0.0
C2158 C 0.20498 0.15367 0.37412 0.0
C2159 C 0.2103 0.15195 0.39021 0.0
C2160 C 0.20027 0.16944 0.36979 0.0
C2161 C 0.20087 0.1838 0.38145 0.0
C2162 C 0.20529 0.18153 0.39766 0.0
C2163 C 0.21004 0.16575 0.402 0.0
C2164 C 0.19802 0.20181 0.37655 0.0
C2165 C 0.18145 0.20417 0.38364 0.0
C2166 C 0.21143 0.21647 0.36468 0.0
C2167 C 0.23023 0.21584 0.35766 0.0
C2168 C 0.24656 0.21668 0.36777 0.0
C2169 C 0.26423 0.21604 0.3611 0.0
C2170 C 0.26584 0.21474 0.34433 0.0
C2171 C 0.2498 0.21411 0.3342 0.0
C2172 C 0.23208 0.21471 0.3408 0.0
C2173 C 0.19712 0.28943 0.36688 0.0
C2174 C 0.18424 0.28819 0.35351 0.0
C2175 C 0.19918 0.27202 0.37124 0.0
C2176 C 0.1886 0.25318 0.36223 0.0
C2177 C 0.17597 0.25188 0.3488 0.0
C2178 C 0.17357 0.26914 0.34459 0.0
C2179 C 0.1909 0.23489 0.36686 0.0
C2180 C 0.20752 0.23269 0.35987 0.0
C2181 C 0.17769 0.22052 0.37885 0.0
C2182 C 0.16006 0.22248 0.38657 0.0
C2183 C 0.14196 0.21927 0.37748 0.0
C2184 C 0.12563 0.22173 0.38473 0.0
C2185 C 0.12725 0.22734 0.40107 0.0
C2186 C 0.1451 0.23036 0.41022 0.0
C2187 C 0.16143 0.22786 0.40304 0.0
H2188 H 0.1147 0.22938 0.40666 0.0
H2189 H 0.27953 0.21426 0.3392 0.0
H2190 H 0.6376 0.47151 0.7268 0.0
H2191 H 0.66997 0.50064 0.71444 0.0
H2192 H 0.65121 0.54506 0.73165 0.0
H2193 H 0.61866 0.51604 0.74368 0.0
H2194 H 0.66448 0.55315 0.70085 0.0
H2195 H 0.69116 0.5401 0.75043 0.0
H2196 H 0.69781 0.51896 0.77045 0.0
H2197 H 0.7329 0.50503 0.73499 0.0
H2198 H 0.72621 0.52587 0.71468 0.0
H2199 H 0.76199 0.65125 0.69644 0.0
H2200 H 0.72814 0.61892 0.70216 0.0
H2201 H 0.75725 0.5816 0.6884 0.0
H2202 H 0.79169 0.61418 0.68376 0.0
H2203 H 0.73828 0.56769 0.71515 0.0
H2204 H 0.71129 0.58082 0.66542 0.0
H2205 H 0.70398 0.60176 0.64549 0.0
H2206 H 0.66969 0.6158 0.68153 0.0
H2207 H 0.67665 0.59486 0.70158 0.0
C2208 C 0.6403 0.48747 0.72786 0.0
C2209 C 0.62556 0.49142 0.73632 0.0
C2210 C 0.65892 0.50414 0.72089 0.0
C2211 C 0.66319 0.52512 0.72223 0.0
C2212 C 0.64834 0.52905 0.73048 0.0
C2213 C 0.62981 0.51243 0.73748 0.0
C2214 C 0.68302 0.54305 0.71502 0.0
C2215 C 0.68064 0.55642 0.70406 0.0
C2216 C 0.70411 0.54705 0.71884 0.0
C2217 C 0.70794 0.53432 0.73098 0.0
C2218 C 0.7001 0.53235 0.74685 0.0
C2219 C 0.70392 0.52046 0.75826 0.0
C2220 C 0.71571 0.5106 0.75398 0.0
C2221 C 0.72373 0.51264 0.73828 0.0
C2222 C 0.71993 0.52449 0.72682 0.0
C2223 C 0.76101 0.63612 0.69428 0.0
C2224 C 0.77941 0.63529 0.68935 0.0
C2225 C 0.74152 0.61755 0.69743 0.0
C2226 C 0.73979 0.59758 0.69548 0.0
C2227 C 0.75801 0.59672 0.68996 0.0
C2228 C 0.77767 0.61538 0.68709 0.0
C2229 C 0.71985 0.57797 0.70092 0.0
C2230 C 0.72217 0.56429 0.71166 0.0
C2231 C 0.69867 0.57368 0.69691 0.0
C2232 C 0.69472 0.58651 0.68499 0.0
C2233 C 0.70237 0.58856 0.66908 0.0
C2234 C 0.69822 0.60034 0.65777 0.0
C2235 C 0.68653 0.61022 0.66228 0.0
C2236 C 0.6788 0.60819 0.67807 0.0
C2237 C 0.68275 0.59629 0.68938 0.0
H2238 H 0.68339 0.61937 0.65352 0.0
H2239 H 0.71869 0.50144 0.76284 0.0
H2240 H 0.53432 0.13012 0.71176 0.0
H2241 H 0.50532 0.13457 0.69996 0.0
H2242 H 0.49205 0.15137 0.74693 0.0
H2243 H 0.52168 0.14817 0.75857 0.0
H2244 H 0.46414 0.11423 0.70405 0.0
H2245 H 0.46972 0.18224 0.74452 0.0
H2246 H 0.49764 0.2145 0.75835 0.0
H2247 H 0.54544 0.21886 0.72468 0.0
H2248 H 0.51776 0.1868 0.71051 0.0
H2249 H 0.36455 0.1132 0.70185 0.0
H2250 H 0.39779 0.11265 0.70754 0.0
H2251 H 0.43539 0.17695 0.69053 0.0
H2252 H 0.40201 0.17808 0.68634 0.0
H2253 H 0.45382 0.17551 0.71511 0.0
H2254 H 0.43307 0.1285 0.66895 0.0
H2255 H 0.40862 0.09809 0.65152 0.0
H2256 H 0.39624 0.05563 0.69113 0.0
H2257 H 0.42072 0.08579 0.70866 0.0
C2258 C 0.52556 0.13521 0.71953 0.0
C2259 C 0.53042 0.13868 0.73618 0.0
C2260 C 0.50877 0.13755 0.71278 0.0
C2261 C 0.49644 0.14346 0.72247 0.0
C2262 C 0.50144 0.14715 0.73905 0.0
C2263 C 0.51829 0.145 0.74577 0.0
C2264 C 0.47779 0.14491 0.71545 0.0
C2265 C 0.462 0.12772 0.70642 0.0
C2266 C 0.47496 0.16259 0.71818 0.0
C2267 C 0.49168 0.182 0.72655 0.0
C2268 C 0.48617 0.19013 0.74003 0.0
C2269 C 0.50196 0.20837 0.74793 0.0
C2270 C 0.52331 0.21869 0.74243 0.0
C2271 C 0.52891 0.21081 0.72897 0.0
C2272 C 0.51318 0.19259 0.72101 0.0
C2273 C 0.37992 0.12712 0.69907 0.0
C2274 C 0.38053 0.14549 0.69321 0.0
C2275 C 0.39904 0.12673 0.70216 0.0
C2276 C 0.41944 0.14457 0.69914 0.0
C2277 C 0.42003 0.16285 0.69295 0.0
C2278 C 0.40085 0.16342 0.69027 0.0
C2279 C 0.43995 0.14471 0.70377 0.0
C2280 C 0.45605 0.16212 0.71253 0.0
C2281 C 0.44338 0.12749 0.70041 0.0
C2282 C 0.42837 0.10938 0.6901 0.0
C2283 C 0.42488 0.11268 0.67392 0.0
C2284 C 0.41114 0.09551 0.66403 0.0
C2285 C 0.40073 0.07497 0.67026 0.0
C2286 C 0.40423 0.07155 0.68634 0.0
C2287 C 0.41811 0.08866 0.69623 0.0
H2288 H 0.39006 0.06171 0.6626 0.0
H2289 H 0.53551 0.2328 0.74858 0.0
H2290 H 0.85436 0.38903 0.72628 0.0
H2291 H 0.84878 0.356 0.71395 0.0
H2292 H 0.91119 0.36905 0.73187 0.0
H2293 H 0.9171 0.40224 0.74378 0.0
H2294 H 0.90496 0.35409 0.70164 0.0
H2295 H 0.86489 0.33462 0.75133 0.0
H2296 H 0.83803 0.33241 0.77113 0.0
H2297 H 0.78712 0.29984 0.73614 0.0
H2298 H 0.81374 0.3021 0.71606 0.0
H2299 H 0.89189 0.25039 0.70293 0.0
H2300 H 0.89656 0.2849 0.71077 0.0
H2301 H 0.83796 0.27037 0.68507 0.0
H2302 H 0.83323 0.23599 0.67705 0.0
H2303 H 0.84091 0.28595 0.71741 0.0
H2304 H 0.88191 0.30324 0.66842 0.0
H2305 H 0.90931 0.30393 0.64994 0.0
H2306 H 0.95928 0.33977 0.6849 0.0
H2307 H 0.9321 0.33896 0.70373 0.0
C2308 C 0.86698 0.38496 0.7274 0.0
C2309 C 0.88606 0.39811 0.73614 0.0
C2310 C 0.86371 0.36603 0.72047 0.0
C2311 C 0.87946 0.35994 0.72218 0.0
C2312 C 0.89879 0.37339 0.73045 0.0
C2313 C 0.90205 0.39225 0.73737 0.0
C2314 C 0.8757 0.33933 0.71574 0.0
C2315 C 0.89103 0.33919 0.70518 0.0
C2316 C 0.85734 0.3199 0.72015 0.0
C2317 C 0.84134 0.31878 0.73213 0.0
C2318 C 0.848 0.32718 0.7478 0.0
C2319 C 0.83281 0.32587 0.75909 0.0
C2320 C 0.81089 0.31605 0.75488 0.0
C2321 C 0.80411 0.30748 0.73938 0.0
C2322 C 0.81924 0.30877 0.72804 0.0
C2323 C 0.88004 0.25458 0.6989 0.0
C2324 C 0.86224 0.24052 0.68933 0.0
C2325 C 0.88277 0.27428 0.70335 0.0
C2326 C 0.86763 0.28013 0.69843 0.0
C2327 C 0.8498 0.26611 0.68895 0.0
C2328 C 0.84721 0.24653 0.68433 0.0
C2329 C 0.87023 0.30077 0.70345 0.0
C2330 C 0.8547 0.30089 0.71375 0.0
C2331 C 0.88849 0.32014 0.69893 0.0
C2332 C 0.90492 0.32088 0.68756 0.0
C2333 C 0.89871 0.31112 0.67223 0.0
C2334 C 0.91421 0.31156 0.66168 0.0
C2335 C 0.93602 0.32185 0.66625 0.0
C2336 C 0.94238 0.33178 0.68138 0.0
C2337 C 0.92693 0.33135 0.692 0.0
H2338 H 0.94801 0.32218 0.65807 0.0
H2339 H 0.79915 0.31502 0.76364 0.0
H2340 H 0.18115 0.94181 0.61184 0.0
H2341 H 0.20965 0.97469 0.6236 0.0
H2342 H 0.16164 0.98444 0.64759 0.0
H2343 H 0.13284 0.95204 0.63501 0.0
H2344 H 0.1907 0.0201 0.63528 0.0
H2345 H 0.19455 0.9686 0.66825 0.0
H2346 H 0.19693 0.93675 0.67442 0.0
H2347 H 0.25852 0.96389 0.65068 0.0
H2348 H 0.25637 0.99579 0.64416 0.0
H2349 H 0.26803 0.10366 0.68519 0.0
H2350 H 0.2386 0.06906 0.67657 0.0
H2351 H 0.28235 0.06131 0.64514 0.0
H2352 H 0.31205 0.09596 0.65378 0.0
H2353 H 0.25484 0.02456 0.66276 0.0
H2354 H 0.24925 0.07583 0.62924 0.0
H2355 H 0.24683 0.10804 0.62488 0.0
H2356 H 0.18767 0.08101 0.6519 0.0
H2357 H 0.1899 0.04873 0.65662 0.0
C2358 C 0.17655 0.95097 0.61951 0.0
C2359 C 0.15458 0.94424 0.62234 0.0
C2360 C 0.19296 0.96971 0.62644 0.0
C2361 C 0.18792 0.98203 0.6367 0.0
C2362 C 0.16602 0.97523 0.63976 0.0
C2363 C 0.14954 0.95655 0.63268 0.0
C2364 C 0.20551 0.00232 0.64372 0.0
C2365 C 0.20451 0.02094 0.64152 0.0
C2366 C 0.22382 0.00366 0.65168 0.0
C2367 C 0.2252 0.98451 0.65559 0.0
C2368 C 0.20852 0.96771 0.66424 0.0
C2369 C 0.20985 0.94966 0.66782 0.0
C2370 C 0.22784 0.94828 0.66291 0.0
C2371 C 0.24458 0.96497 0.65445 0.0
C2372 C 0.24333 0.98305 0.65083 0.0
C2373 C 0.27152 0.09458 0.67655 0.0
C2374 C 0.29247 0.10265 0.67017 0.0
C2375 C 0.2546 0.0748 0.67158 0.0
C2376 C 0.25822 0.06266 0.66011 0.0
C2377 C 0.27919 0.07042 0.654 0.0
C2378 C 0.29613 0.09028 0.6589 0.0
C2379 C 0.23999 0.04214 0.65418 0.0
C2380 C 0.24091 0.02357 0.65658 0.0
C2381 C 0.22151 0.04079 0.64659 0.0
C2382 C 0.21984 0.05994 0.6434 0.0
C2383 C 0.23578 0.0768 0.63432 0.0
C2384 C 0.23444 0.09506 0.63178 0.0
C2385 C 0.21714 0.09659 0.63815 0.0
C2386 C 0.20107 0.07981 0.647 0.0
C2387 C 0.20235 0.06152 0.64959 0.0
H2388 H 0.21615 0.11077 0.6362 0.0
H2389 H 0.22883 0.93429 0.6657 0.0
H2390 H 0.04413 0.19332 0.59881 0.0
H2391 H 0.01128 0.19048 0.61035 0.0
H2392 H 0.04391 0.21306 0.65628 0.0
H2393 H 0.07683 0.21572 0.6448 0.0
H2394 H 1.00394 0.18253 0.66132 0.0
H2395 H 0.03615 0.24577 0.62937 0.0
H2396 H 0.05139 0.26684 0.60464 0.0
H2397 H 0.99093 0.22895 0.57976 0.0
H2398 H 0.97541 0.20745 0.60429 0.0
H2399 H 0.92653 0.23194 0.66408 0.0
H2400 H 0.96059 0.23296 0.65818 0.0
H2401 H 0.92934 0.16538 0.66534 0.0
H2402 H 0.89559 0.16466 0.67213 0.0
H2403 H 0.9692 0.21843 0.63404 0.0
H2404 H 0.95763 0.14721 0.66807 0.0
H2405 H 0.94917 0.12977 0.69476 0.0
H2406 H 0.9758 0.19041 0.71829 0.0
H2407 H 0.98334 0.20803 0.69173 0.0
C2408 C 0.04437 0.19773 0.61137 0.0
C2409 C 0.06327 0.20495 0.62081 0.0
C2410 C 0.02551 0.19611 0.61797 0.0
C2411 C 0.02509 0.20192 0.63415 0.0
C2412 C 0.04373 0.20851 0.64376 0.0
C2413 C 0.06258 0.20999 0.63719 0.0
C2414 C 1.0054 0.20149 0.64095 0.0
C2415 C 0.99637 0.19041 0.65533 0.0
C2416 C 0.99546 0.21188 0.63334 0.0
C2417 C 1.00469 0.22488 0.61862 0.0
C2418 C 0.02615 0.24185 0.61859 0.0
C2419 C 0.03483 0.25388 0.60462 0.0
C2420 C 0.02215 0.24921 0.59063 0.0
C2421 C 1.00074 0.23253 0.5906 0.0
C2422 C 0.99199 0.22043 0.60454 0.0
C2423 C 0.92715 0.21741 0.66488 0.0
C2424 C 0.90841 0.19828 0.66867 0.0
C2425 C 0.94663 0.21795 0.66139 0.0
C2426 C 0.94786 0.19926 0.66121 0.0
C2427 C 0.92928 0.18018 0.6657 0.0
C2428 C 0.90982 0.17973 0.66953 0.0
C2429 C 0.96773 0.19965 0.65464 0.0
C2430 C 0.97673 0.21058 0.64012 0.0
C2431 C 0.97788 0.18947 0.66226 0.0
C2432 C 0.97071 0.17883 0.67801 0.0
C2433 C 0.96122 0.15672 0.67897 0.0
C2434 C 0.95655 0.14681 0.69405 0.0
C2435 C 0.96183 0.15896 0.70821 0.0
C2436 C 0.97145 0.18099 0.70731 0.0
C2437 C 0.97564 0.19092 0.69226 0.0
H2438 H 0.95854 0.1513 0.71989 0.0
H2439 H 0.02891 0.25854 0.57982 0.0
H2440 H 0.83112 0.87344 0.62821 0.0
H2441 H 0.83654 0.84466 0.63815 0.0
H2442 H 0.76771 0.80141 0.63535 0.0
H2443 H 0.76229 0.82998 0.62495 0.0
H2444 H 0.79336 0.80217 0.66638 0.0
H2445 H 0.78867 0.79469 0.60752 0.0
H2446 H 0.7994 0.8085 0.57986 0.0
H2447 H 0.86521 0.82567 0.59043 0.0
H2448 H 0.8549 0.81227 0.61827 0.0
H2449 H 0.80172 0.70235 0.64852 0.0
H2450 H 0.79541 0.73089 0.63999 0.0
H2451 H 0.83967 0.77188 0.67682 0.0
H2452 H 0.84643 0.74365 0.68528 0.0
H2453 H 0.82515 0.77177 0.62888 0.0
H2454 H 0.81806 0.80172 0.69159 0.0
H2455 H 0.80868 0.78831 0.7195 0.0
H2456 H 0.76638 0.72553 0.70122 0.0
H2457 H 0.77525 0.73862 0.67322 0.0
C2458 C 0.81718 0.85781 0.62985 0.0
C2459 C 0.79632 0.8538 0.62581 0.0
C2460 C 0.82028 0.84146 0.6355 0.0
C2461 C 0.8025 0.82102 0.63748 0.0
C2462 C 0.78158 0.81714 0.63393 0.0
C2463 C 0.77853 0.83336 0.62794 0.0
C2464 C 0.80586 0.80344 0.64247 0.0
C2465 C 0.80031 0.7955 0.65822 0.0
C2466 C 0.81489 0.79481 0.63177 0.0
C2467 C 0.82106 0.80271 0.61502 0.0
C2468 C 0.80546 0.80161 0.604 0.0
C2469 C 0.81146 0.80932 0.58828 0.0
C2470 C 0.83299 0.81802 0.5834 0.0
C2471 C 0.84855 0.81897 0.59423 0.0
C2472 C 0.84263 0.81131 0.60997 0.0
C2473 C 0.81014 0.71742 0.65483 0.0
C2474 C 0.82438 0.72058 0.66774 0.0
C2475 C 0.80655 0.73372 0.6499 0.0
C2476 C 0.81694 0.75339 0.65786 0.0
C2477 C 0.8313 0.7567 0.67065 0.0
C2478 C 0.83504 0.74048 0.67551 0.0
C2479 C 0.81267 0.77042 0.65283 0.0
C2480 C 0.81816 0.77838 0.63707 0.0
C2481 C 0.80362 0.77906 0.66356 0.0
C2482 C 0.79746 0.77114 0.68032 0.0
C2483 C 0.80664 0.78508 0.69353 0.0
C2484 C 0.80143 0.77753 0.70936 0.0
C2485 C 0.78698 0.75608 0.71213 0.0
C2486 C 0.77761 0.74214 0.69906 0.0
C2487 C 0.78273 0.74962 0.68321 0.0
H2488 H 0.78303 0.75025 0.72439 0.0
H2489 H 0.8376 0.82397 0.57122 0.0
H2490 H 0.06607 0.82047 0.63449 0.0
H2491 H 0.02939 0.79272 0.64118 0.0
H2492 H 0.0082 0.83877 0.64097 0.0
H2493 H 0.04521 0.86676 0.63479 0.0
H2494 H 0.99234 0.81509 0.66594 0.0
H2495 H 0.99336 0.79994 0.61027 0.0
H2496 H 0.00708 0.7931 0.58494 0.0
H2497 H 1.00322 0.73738 0.60565 0.0
H2498 H 0.98975 0.74404 0.6312 0.0
H2499 H 0.88074 0.72972 0.67285 0.0
H2500 H 0.91529 0.76146 0.66687 0.0
H2501 H 0.94604 0.72342 0.66393 0.0
H2502 H 0.91125 0.69162 0.66902 0.0
H2503 H 0.95477 0.74528 0.63827 0.0
H2504 H 0.96953 0.77451 0.69689 0.0
H2505 H 0.96111 0.78777 0.7218 0.0
H2506 H 0.93358 0.81774 0.69336 0.0
H2507 H 0.94274 0.8054 0.6683 0.0
C2508 C 0.05349 0.8246 0.63558 0.0
C2509 C 0.05841 0.84569 0.63364 0.0
C2510 C 0.03247 0.8087 0.63936 0.0
C2511 C 0.01577 0.81346 0.64125 0.0
C2512 C 0.02068 0.83459 0.63942 0.0
C2513 C 0.04181 0.85057 0.63576 0.0
C2514 C 0.9936 0.79656 0.64606 0.0
C2515 C 0.98401 0.79993 0.6597 0.0
C2516 C 0.98259 0.77668 0.63806 0.0
C2517 C 0.9907 0.7726 0.62271 0.0
C2518 C 0.99559 0.78632 0.60948 0.0
C2519 C 1.0033 0.78245 0.59507 0.0
C2520 C 1.00606 0.76484 0.5937 0.0
C2521 C 1.00108 0.75102 0.60673 0.0
C2522 C 0.99339 0.75482 0.62117 0.0
C2523 C 0.89503 0.72826 0.67142 0.0
C2524 C 0.89335 0.7082 0.67147 0.0
C2525 C 0.91491 0.74651 0.66807 0.0
C2526 C 0.93355 0.74507 0.66498 0.0
C2527 C 0.932 0.7251 0.66613 0.0
C2528 C 0.91212 0.7069 0.66913 0.0
C2529 C 0.95392 0.76347 0.65862 0.0
C2530 C 0.9631 0.76043 0.64451 0.0
C2531 C 0.96438 0.78376 0.666 0.0
C2532 C 0.95633 0.78867 0.68084 0.0
C2533 C 0.96139 0.78366 0.69601 0.0
C2534 C 0.95679 0.79127 0.71011 0.0
C2535 C 0.94675 0.80353 0.70916 0.0
C2536 C 0.94131 0.80822 0.69409 0.0
C2537 C 0.94633 0.80105 0.67994 0.0
H2538 H 0.94319 0.80939 0.7201 0.0
H2539 H 0.01202 0.76187 0.58253 0.0
H2540 H 0.19005 0.23644 0.62668 0.0
H2541 H 0.21812 0.22756 0.63279 0.0
H2542 H 0.16914 0.16536 0.64824 0.0
H2543 H 0.14099 0.17452 0.64247 0.0
H2544 H 0.19949 0.18139 0.66976 0.0
H2545 H 0.20014 0.17406 0.61266 0.0
H2546 H 0.20165 0.18406 0.58403 0.0
H2547 H 0.265 0.23788 0.59167 0.0
H2548 H 0.26375 0.22838 0.62042 0.0
H2549 H 0.28281 0.15012 0.67666 0.0
H2550 H 0.25009 0.15214 0.67091 0.0
H2551 H 0.28974 0.2183 0.65934 0.0
H2552 H 0.32234 0.21629 0.66499 0.0
H2553 H 0.26158 0.19557 0.63478 0.0
H2554 H 0.24198 0.20844 0.69395 0.0
H2555 H 0.23201 0.19852 0.72249 0.0
H2556 H 0.2027 0.13269 0.70962 0.0
H2557 H 0.21212 0.1423 0.68097 0.0
C2558 C 0.18522 0.22072 0.63108 0.0
C2559 C 0.16325 0.20608 0.63393 0.0
C2560 C 0.20132 0.2156 0.63452 0.0
C2561 C 0.19588 0.19564 0.64081 0.0
C2562 C 0.17386 0.18083 0.64334 0.0
C2563 C 0.15774 0.186 0.63996 0.0
C2564 C 0.21324 0.19099 0.64603 0.0
C2565 C 0.21283 0.18412 0.66193 0.0
C2566 C 0.23094 0.19479 0.63604 0.0
C2567 C 0.23177 0.20059 0.61875 0.0
C2568 C 0.21433 0.18812 0.60828 0.0
C2569 C 0.21515 0.19368 0.59201 0.0
C2570 C 0.23339 0.21161 0.58604 0.0
C2571 C 0.25087 0.224 0.59632 0.0
C2572 C 0.25013 0.21852 0.6126 0.0
C2573 C 0.28452 0.16524 0.6734 0.0
C2574 C 0.30524 0.18312 0.67143 0.0
C2575 C 0.26573 0.1664 0.67013 0.0
C2576 C 0.26729 0.18544 0.66478 0.0
C2577 C 0.28798 0.20344 0.66347 0.0
C2578 C 0.30666 0.20228 0.66673 0.0
C2579 C 0.24794 0.1863 0.65861 0.0
C2580 C 0.24805 0.19257 0.64248 0.0
C2581 C 0.22982 0.18175 0.66829 0.0
C2582 C 0.22833 0.17609 0.6855 0.0
C2583 C 0.2339 0.19189 0.69733 0.0
C2584 C 0.22798 0.18632 0.71344 0.0
C2585 C 0.21665 0.16499 0.71785 0.0
C2586 C 0.21147 0.1492 0.70618 0.0
C2587 C 0.21715 0.1547 0.69002 0.0
H2588 H 0.21198 0.1607 0.73032 0.0
H2589 H 0.23399 0.21589 0.57344 0.0
H2590 H 0.78421 0.95195 0.62053 0.0
H2591 H 0.79467 0.98909 0.62545 0.0
H2592 H 0.82122 0.98693 0.67195 0.0
H2593 H 0.81053 0.94974 0.66709 0.0
H2594 H 0.79713 0.00539 0.67457 0.0
H2595 H 0.85414 0.01258 0.6405 0.0
H2596 H 0.87095 0.0065 0.61658 0.0
H2597 H 0.84179 0.03286 0.58592 0.0
H2598 H 0.82451 0.03881 0.60964 0.0
H2599 H 0.85838 0.11685 0.68818 0.0
H2600 H 0.84972 0.08068 0.68207 0.0
H2601 H 0.81049 0.0786 0.64154 0.0
H2602 H 0.81835 0.11459 0.64789 0.0
H2603 H 0.84145 0.06285 0.63593 0.0
H2604 H 0.78386 0.05464 0.67126 0.0
H2605 H 0.76998 0.06263 0.69602 0.0
H2606 H 0.80355 0.03947 0.72522 0.0
H2607 H 0.81791 0.03164 0.70061 0.0
C2608 C 0.7923 0.9595 0.63177 0.0
C2609 C 0.79639 0.94805 0.64351 0.0
C2610 C 0.79836 0.98068 0.63455 0.0
C2611 C 0.80883 0.99082 0.64904 0.0
C2612 C 0.8131 0.97941 0.66071 0.0
C2613 C 0.80705 0.95822 0.65793 0.0
C2614 C 0.81489 0.01318 0.65217 0.0
C2615 C 0.80704 0.01796 0.6662 0.0
C2616 C 0.82758 0.02958 0.64116 0.0
C2617 C 0.83782 0.02591 0.62683 0.0
C2618 C 0.85112 0.01688 0.62864 0.0
C2619 C 0.86078 0.0135 0.61512 0.0
C2620 C 0.85738 0.01922 0.59973 0.0
C2621 C 0.84436 0.02839 0.59784 0.0
C2622 C 0.83464 0.03178 0.61132 0.0
C2623 C 0.84768 0.10869 0.6781 0.0
C2624 C 0.83869 0.11852 0.66876 0.0
C2625 C 0.84291 0.08807 0.67455 0.0
C2626 C 0.8294 0.07702 0.66142 0.0
C2627 C 0.82095 0.08694 0.65173 0.0
C2628 C 0.82541 0.10747 0.65543 0.0
C2629 C 0.82358 0.05484 0.65819 0.0
C2630 C 0.83149 0.05017 0.64421 0.0
C2631 C 0.81118 0.03858 0.66932 0.0
C2632 C 0.80211 0.04273 0.68411 0.0
C2633 C 0.78839 0.05138 0.68297 0.0
C2634 C 0.78043 0.05586 0.69697 0.0
C2635 C 0.78593 0.05161 0.71218 0.0
C2636 C 0.79933 0.04278 0.71342 0.0
C2637 C 0.80737 0.03829 0.69945 0.0
H2638 H 0.77977 0.05512 0.72301 0.0
H2639 H 0.86489 0.01661 0.58929 0.0
H2640 H 0.54859 0.38566 0.7087 0.0
H2641 H 0.51994 0.3488 0.70425 0.0
H2642 H 0.4752 0.3608 0.73092 0.0
H2643 H 0.50396 0.39747 0.73568 0.0
H2644 H 0.469 0.32265 0.73816 0.0
H2645 H 0.4758 0.36059 0.68908 0.0
H2646 H 0.49501 0.38319 0.66576 0.0
H2647 H 0.51263 0.33776 0.6497 0.0
H2648 H 0.49376 0.31502 0.67305 0.0
H2649 H 0.37158 0.23319 0.70865 0.0
H2650 H 0.40064 0.26889 0.71578 0.0
H2651 H 0.44585 0.25874 0.68801 0.0
H2652 H 0.41694 0.22338 0.68062 0.0
H2653 H 0.45166 0.29607 0.68164 0.0
H2654 H 0.44372 0.25751 0.73079 0.0
H2655 H 0.42432 0.2353 0.75424 0.0
H2656 H 0.40835 0.28192 0.77022 0.0
H2657 H 0.42734 0.30426 0.74674 0.0
C2658 C 0.53267 0.3803 0.71371 0.0
C2659 C 0.52838 0.39443 0.72234 0.0
C2660 C 0.51628 0.3593 0.7111 0.0
C2661 C 0.49524 0.35208 0.71697 0.0
C2662 C 0.49122 0.36598 0.72619 0.0
C2663 C 0.50764 0.38694 0.72886 0.0
C2664 C 0.47727 0.33029 0.71309 0.0
C2665 C 0.46505 0.31691 0.72579 0.0
C2666 C 0.47227 0.3226 0.69697 0.0
C2667 C 0.48356 0.33622 0.6829 0.0
C2668 C 0.48391 0.3555 0.68064 0.0
C2669 C 0.49472 0.36832 0.66741 0.0
C2670 C 0.50509 0.36194 0.65628 0.0
C2671 C 0.50462 0.3427 0.65834 0.0
C2672 C 0.49386 0.32983 0.67156 0.0
C2673 C 0.38773 0.23856 0.7041 0.0
C2674 C 0.39187 0.22544 0.69398 0.0
C2675 C 0.40438 0.25896 0.70825 0.0
C2676 C 0.42558 0.26652 0.70259 0.0
C2677 C 0.42969 0.25337 0.69252 0.0
C2678 C 0.41307 0.2331 0.68828 0.0
C2679 C 0.44344 0.28828 0.70671 0.0
C2680 C 0.45562 0.30172 0.69403 0.0
C2681 C 0.44833 0.29599 0.72285 0.0
C2682 C 0.4368 0.28247 0.73692 0.0
C2683 C 0.43591 0.26294 0.73923 0.0
C2684 C 0.42501 0.25034 0.75254 0.0
C2685 C 0.41509 0.25719 0.7637 0.0
C2686 C 0.41603 0.27663 0.76156 0.0
C2687 C 0.42686 0.28927 0.74826 0.0
H2688 H 0.40675 0.2475 0.77403 0.0
H2689 H 0.51344 0.37189 0.64604 0.0
H2690 H 0.63739 0.13427 0.7455 0.0
H2691 H 0.67419 0.143 0.73769 0.0
H2692 H 0.65863 0.14634 0.68769 0.0
H2693 H 0.62197 0.13754 0.69547 0.0
H2694 H 0.67627 0.12181 0.69075 0.0
H2695 H 0.69338 0.19099 0.70988 0.0
H2696 H 0.69477 0.21707 0.72966 0.0
H2697 H 0.73185 0.20173 0.76227 0.0
H2698 H 0.73038 0.1753 0.74279 0.0
H2699 H 0.80413 0.19167 0.68272 0.0
H2700 H 0.76812 0.18774 0.68625 0.0
H2701 H 0.74249 0.12207 0.69868 0.0
H2702 H 0.77807 0.12578 0.69445 0.0
H2703 H 0.7456 0.1795 0.71295 0.0
H2704 H 0.69683 0.09431 0.69438 0.0
H2705 H 0.69397 0.06881 0.67335 0.0
H2706 H 0.71846 0.11824 0.63789 0.0
H2707 H 0.72177 0.14406 0.65888 0.0
C2708 C 0.64203 0.13728 0.73289 0.0
C2709 C 0.62682 0.13526 0.72111 0.0
C2710 C 0.66306 0.14227 0.72842 0.0
C2711 C 0.66931 0.14539 0.71207 0.0
C2712 C 0.65427 0.14398 0.70037 0.0
C2713 C 0.63332 0.13904 0.70484 0.0
C2714 C 0.69089 0.14869 0.70693 0.0
C2715 C 0.6914 0.13451 0.69562 0.0
C2716 C 0.71078 0.16519 0.71318 0.0
C2717 C 0.71158 0.18101 0.72493 0.0
C2718 C 0.70165 0.19303 0.72133 0.0
C2719 C 0.70249 0.2079 0.73248 0.0
C2720 C 0.71334 0.21101 0.74723 0.0
C2721 C 0.72341 0.19928 0.75085 0.0
C2722 C 0.72259 0.18436 0.73976 0.0
C2723 C 0.79062 0.17623 0.68559 0.0
C2724 C 0.79384 0.15888 0.6879 0.0
C2725 C 0.77004 0.17402 0.68781 0.0
C2726 C 0.75227 0.15448 0.69253 0.0
C2727 C 0.75553 0.13713 0.69455 0.0
C2728 C 0.776 0.1393 0.69224 0.0
C2729 C 0.73094 0.15263 0.69675 0.0
C2730 C 0.73046 0.16693 0.70802 0.0
C2731 C 0.711 0.13625 0.69051 0.0
C2732 C 0.70996 0.1211 0.67815 0.0
C2733 C 0.70178 0.09971 0.68211 0.0
C2734 C 0.70011 0.08525 0.67024 0.0
C2735 C 0.70621 0.09195 0.65432 0.0
C2736 C 0.71397 0.11314 0.65026 0.0
C2737 C 0.71595 0.12772 0.66215 0.0
H2738 H 0.7048 0.08072 0.64512 0.0
H2739 H 0.71398 0.22254 0.75584 0.0
H2740 H 0.91478 0.51933 0.74029 0.0
H2741 H 0.90428 0.54591 0.73444 0.0
H2742 H 0.85593 0.50271 0.70061 0.0
H2743 H 0.86681 0.47629 0.70623 0.0
H2744 H 0.87844 0.54056 0.68764 0.0
H2745 H 0.84233 0.51386 0.73798 0.0
H2746 H 0.83858 0.50387 0.76676 0.0
H2747 H 0.88373 0.5683 0.77999 0.0
H2748 H 0.88802 0.57863 0.75126 0.0
H2749 H 0.82539 0.59984 0.67638 0.0
H2750 H 0.83365 0.57226 0.68363 0.0
H2751 H 0.88411 0.61576 0.71597 0.0
H2752 H 0.87591 0.64355 0.70879 0.0
H2753 H 0.85981 0.57741 0.72975 0.0
H2754 H 0.89639 0.6035 0.67894 0.0
H2755 H 0.89955 0.61299 0.65006 0.0
H2756 H 0.85217 0.54888 0.6378 0.0
H2757 H 0.84855 0.53905 0.66663 0.0
C2758 C 0.90191 0.51557 0.73162 0.0
C2759 C 0.89178 0.49596 0.7235 0.0
C2760 C 0.8958 0.53067 0.72837 0.0
C2761 C 0.8792 0.52627 0.71716 0.0
C2762 C 0.86881 0.50649 0.70927 0.0
C2763 C 0.87499 0.49143 0.71247 0.0
C2764 C 0.87332 0.54261 0.71312 0.0
C2765 C 0.87404 0.54837 0.69684 0.0
C2766 C 0.86806 0.55318 0.72515 0.0
C2767 C 0.86567 0.54697 0.74244 0.0
C2768 C 0.85163 0.52587 0.74701 0.0
C2769 C 0.84937 0.52015 0.76332 0.0
C2770 C 0.86095 0.53543 0.7752 0.0
C2771 C 0.87479 0.55647 0.77078 0.0
C2772 C 0.87714 0.56227 0.75448 0.0
C2773 C 0.83839 0.60366 0.68492 0.0
C2774 C 0.8502 0.62403 0.69183 0.0
C2775 C 0.84307 0.58783 0.68907 0.0
C2776 C 0.8597 0.59203 0.70017 0.0
C2777 C 0.87125 0.6122 0.70734 0.0
C2778 C 0.86657 0.62808 0.7032 0.0
C2779 C 0.865 0.57534 0.70431 0.0
C2780 C 0.86418 0.56954 0.72058 0.0
C2781 C 0.87006 0.56464 0.69229 0.0
C2782 C 0.8721 0.57058 0.67496 0.0
C2783 C 0.88653 0.59146 0.6701 0.0
C2784 C 0.88846 0.59689 0.65374 0.0
C2785 C 0.87612 0.58153 0.6421 0.0
C2786 C 0.86177 0.56074 0.64682 0.0
C2787 C 0.85979 0.55523 0.66316 0.0
H2788 H 0.87763 0.58577 0.62944 0.0
H2789 H 0.85916 0.53098 0.78782 0.0
H2790 H 0.41942 0.88597 0.23661 0.0
H2791 H 0.42976 0.90275 0.21007 0.0
H2792 H 0.49654 0.93757 0.2255 0.0
H2793 H 0.48622 0.92142 0.25226 0.0
H2794 H 0.48574 0.96296 0.21027 0.0
H2795 H 0.47724 0.89438 0.19946 0.0
H2796 H 0.45808 0.85533 0.19896 0.0
H2797 H 0.40847 0.85412 0.16863 0.0
H2798 H 0.42719 0.89318 0.16913 0.0
H2799 H 0.53632 1.0011 0.13542 0.0
H2800 H 0.52395 0.98081 0.1604 0.0
H2801 H 0.45811 0.95 0.14278 0.0
H2802 H 0.47044 0.97039 0.11762 0.0
H2803 H 0.4669 0.92222 0.15875 0.0
H2804 H 0.47541 0.99058 0.1693 0.0
H2805 H 0.4945 0.02963 0.16964 0.0
H2806 H 0.54377 0.03114 0.20056 0.0
H2807 H 0.52513 0.99209 0.20021 0.0
C2808 C 0.4363 0.8973 0.23441 0.0
C2809 C 0.45197 0.90234 0.24664 0.0
C2810 C 0.44223 0.90671 0.21914 0.0
C2811 C 0.46399 0.92129 0.21567 0.0
C2812 C 0.47966 0.92633 0.22784 0.0
C2813 C 0.47375 0.91693 0.24311 0.0
C2814 C 0.47038 0.93178 0.19956 0.0
C2815 C 0.48186 0.95401 0.19904 0.0
C2816 C 0.46477 0.92018 0.18481 0.0
C2817 C 0.45351 0.8967 0.18448 0.0
C2818 C 0.46216 0.88578 0.19279 0.0
C2819 C 0.45139 0.86365 0.19249 0.0
C2820 C 0.43204 0.85225 0.18381 0.0
C2821 C 0.42344 0.86297 0.17537 0.0
C2822 C 0.43413 0.88511 0.17565 0.0
C2823 C 0.51918 0.99002 0.13683 0.0
C2824 C 0.50433 0.98763 0.1246 0.0
C2825 C 0.51213 0.97839 0.15113 0.0
C2826 C 0.49003 0.96417 0.15364 0.0
C2827 C 0.47523 0.96096 0.14116 0.0
C2828 C 0.48231 0.97259 0.12677 0.0
C2829 C 0.48249 0.95334 0.16953 0.0
C2830 C 0.47074 0.93112 0.17001 0.0
C2831 C 0.4878 0.96492 0.18427 0.0
C2832 C 0.49897 0.98841 0.18461 0.0
C2833 C 0.4904 0.99924 0.17607 0.0
C2834 C 0.50112 0.02138 0.17628 0.0
C2835 C 0.52036 0.03286 0.18508 0.0
C2836 C 0.52888 0.02223 0.19373 0.0
C2837 C 0.51823 1.00009 0.19354 0.0
H2838 H 0.52864 0.05 0.18523 0.0
H2839 H 0.42373 0.83511 0.18358 0.0
H2840 H 0.14397 0.58644 0.23152 0.0
H2841 H 0.12551 0.58019 0.20532 0.0
H2842 H 0.08161 0.51537 0.21867 0.0
H2843 H 0.09974 0.52151 0.24486 0.0
H2844 H 0.09594 0.51815 0.18787 0.0
H2845 H 0.06634 0.55232 0.22102 0.0
H2846 H 0.06838 0.5809 0.23833 0.0
H2847 H 0.09803 0.62536 0.19967 0.0
H2848 H 0.09644 0.59707 0.1822 0.0
H2849 H 1.00341 0.48566 0.13877 0.0
H2850 H 0.02864 0.49683 0.16171 0.0
H2851 H 0.06981 0.55656 0.13839 0.0
H2852 H 0.04464 0.54538 0.11529 0.0
H2853 H 0.06088 0.55956 0.172 0.0
H2854 H 0.08738 0.52474 0.13798 0.0
H2855 H 0.0849 0.49607 0.12057 0.0
H2856 H 0.06102 0.45299 0.16055 0.0
H2857 H 0.06309 0.48135 0.17818 0.0
C2858 C 0.13032 0.57089 0.22889 0.0
C2859 C 0.12333 0.55447 0.24027 0.0
C2860 C 0.11985 0.56733 0.21391 0.0
C2861 C 0.10213 0.54735 0.2101 0.0
C2862 C 0.09533 0.53088 0.22133 0.0
C2863 C 0.10576 0.53441 0.23628 0.0
C2864 C 0.09024 0.54354 0.19458 0.0
C2865 C 0.08817 0.52712 0.18445 0.0
C2866 C 0.08063 0.55565 0.18991 0.0
C2867 C 0.08151 0.57264 0.20038 0.0
C2868 C 0.07346 0.56823 0.21626 0.0
C2869 C 0.07451 0.58437 0.22609 0.0
C2870 C 0.0834 0.60495 0.22013 0.0
C2871 C 0.0912 0.60942 0.20429 0.0
C2872 C 0.09022 0.59334 0.19442 0.0
C2873 C 0.01778 0.50121 0.13859 0.0
C2874 C 0.0221 0.51468 0.12531 0.0
C2875 C 0.03221 0.50751 0.15162 0.0
C2876 C 0.05109 0.52745 0.15165 0.0
C2877 C 0.05532 0.5411 0.13853 0.0
C2878 C 0.04103 0.53467 0.12536 0.0
C2879 C 0.06625 0.53392 0.16553 0.0
C2880 C 0.06892 0.55081 0.17533 0.0
C2881 C 0.07643 0.52226 0.1699 0.0
C2882 C 0.07522 0.50514 0.15937 0.0
C2883 C 0.08142 0.50911 0.14303 0.0
C2884 C 0.08012 0.49292 0.13312 0.0
C2885 C 0.07275 0.47271 0.13943 0.0
C2886 C 0.06671 0.46866 0.15568 0.0
C2887 C 0.06798 0.48479 0.16564 0.0
H2888 H 0.07175 0.46019 0.13174 0.0
H2889 H 0.08419 0.61743 0.22775 0.0
H2890 H 0.43363 0.55208 0.23278 0.0
H2891 H 0.44315 0.5447 0.20601 0.0
H2892 H 0.51033 0.57521 0.22038 0.0
H2893 H 0.50097 0.58222 0.24716 0.0
H2894 H 0.50496 0.58856 0.19068 0.0
H2895 H 0.48022 0.52204 0.21844 0.0
H2896 H 0.45381 0.49052 0.2335 0.0
H2897 H 0.40856 0.47261 0.19404 0.0
H2898 H 0.43462 0.50421 0.17883 0.0
H2899 H 0.55525 0.55563 0.13399 0.0
H2900 H 0.53996 0.56222 0.15816 0.0
H2901 H 0.47585 0.52634 0.13754 0.0
H2902 H 0.49101 0.51898 0.11343 0.0
H2903 H 0.47588 0.51587 0.16861 0.0
H2904 H 0.50115 0.58021 0.13973 0.0
H2905 H 0.527 0.61169 0.12438 0.0
H2906 H 0.57014 0.63402 0.1653 0.0
H2907 H 0.54469 0.60251 0.18084 0.0
C2908 C 0.4504 0.557 0.23031 0.0
C2909 C 0.46654 0.56787 0.24213 0.0
C2910 C 0.45582 0.55284 0.21497 0.0
C2911 C 0.47746 0.55941 0.21119 0.0
C2912 C 0.49355 0.57015 0.22298 0.0
C2913 C 0.48816 0.57422 0.23828 0.0
C2914 C 0.48359 0.55532 0.19496 0.0
C2915 C 0.49874 0.57266 0.1859 0.0
C2916 C 0.47489 0.53462 0.18847 0.0
C2917 C 0.45926 0.51561 0.19759 0.0
C2918 C 0.46457 0.51148 0.21304 0.0
C2919 C 0.44968 0.49358 0.22159 0.0
C2920 C 0.42949 0.47961 0.21476 0.0
C2921 C 0.42419 0.48347 0.19933 0.0
C2922 C 0.43901 0.50136 0.19074 0.0
C2923 C 0.53787 0.54899 0.13459 0.0
C2924 C 0.52437 0.5367 0.12176 0.0
C2925 C 0.52916 0.55299 0.14838 0.0
C2926 C 0.50676 0.545 0.14962 0.0
C2927 C 0.49319 0.53274 0.13683 0.0
C2928 C 0.50191 0.5287 0.123 0.0
C2929 C 0.49766 0.5491 0.16448 0.0
C2930 C 0.48194 0.5318 0.17327 0.0
C2931 C 0.50572 0.56986 0.17069 0.0
C2932 C 0.52107 0.5889 0.16141 0.0
C2933 C 0.51622 0.59175 0.14542 0.0
C2934 C 0.53079 0.60962 0.13669 0.0
C2935 C 0.55021 0.62483 0.14385 0.0
C2936 C 0.55509 0.62222 0.15977 0.0
C2937 C 0.54059 0.60437 0.16855 0.0
H2938 H 0.56147 0.63865 0.13707 0.0
H2939 H 0.41799 0.46576 0.22139 0.0
H2940 H 0.89356 0.46032 0.79342 0.0
H2941 H 0.91026 0.46836 0.82039 0.0
H2942 H 0.9498 0.44151 0.80664 0.0
H2943 H 0.93392 0.43415 0.77957 0.0
H2944 H 0.92868 0.42713 0.83692 0.0
H2945 H 0.9721 0.49262 0.80761 0.0
H2946 H 0.97744 0.52325 0.79148 0.0
H2947 H 0.94985 0.54227 0.8296 0.0
H2948 H 0.94407 0.51155 0.84586 0.0
H2949 H 0.01241 0.46292 0.8946 0.0
H2950 H 0.99062 0.455 0.86999 0.0
H2951 H 0.96301 0.49195 0.88795 0.0
H2952 H 0.98535 0.50054 0.91241 0.0
H2953 H 0.97408 0.50083 0.85709 0.0
H2954 H 0.93334 0.43833 0.88765 0.0
H2955 H 0.92625 0.40751 0.90425 0.0
H2956 H 0.9459 0.38227 0.86498 0.0
H2957 H 0.95344 0.41312 0.84821 0.0
C2958 C 0.906 0.45636 0.79606 0.0
C2959 C 0.9123 0.44648 0.78432 0.0
C2960 C 0.9154 0.46084 0.8115 0.0
C2961 C 0.93118 0.45544 0.81547 0.0
C2962 C 0.93748 0.4456 0.80383 0.0
C2963 C 0.92829 0.44132 0.78838 0.0
C2964 C 0.94139 0.46016 0.8317 0.0
C2965 C 0.93875 0.44323 0.84132 0.0
C2966 C 0.95384 0.48114 0.8376 0.0
C2967 C 0.95742 0.49966 0.82786 0.0
C2968 C 0.967 0.50322 0.81249 0.0
C2969 C 0.97014 0.52062 0.80334 0.0
C2970 C 0.96392 0.53466 0.80949 0.0
C2971 C 0.95462 0.53136 0.82484 0.0
C2972 C 0.95142 0.51397 0.83403 0.0
C2973 C 1.00183 0.46949 0.89327 0.0
C2974 C 1.00061 0.48235 0.90546 0.0
C2975 C 0.98919 0.46476 0.87928 0.0
C2976 C 0.97496 0.47264 0.87724 0.0
C2977 C 0.9738 0.4856 0.88932 0.0
C2978 C 0.98645 0.49036 0.90333 0.0
C2979 C 0.9618 0.46779 0.86224 0.0
C2980 C 0.96384 0.48469 0.85283 0.0
C2981 C 0.94854 0.44674 0.85664 0.0
C2982 C 0.94414 0.42817 0.86671 0.0
C2983 C 0.93634 0.42631 0.88259 0.0
C2984 C 0.9322 0.40881 0.89202 0.0
C2985 C 0.93566 0.39296 0.88568 0.0
C2986 C 0.94325 0.39457 0.86988 0.0
C2987 C 0.94744 0.41206 0.8604 0.0
H2988 H 0.93243 0.37941 0.893 0.0
H2989 H 0.96637 0.54812 0.80239 0.0
H2990 H 0.53913 0.44786 0.77655 0.0
H2991 H 0.52739 0.45338 0.80291 0.0
H2992 H 0.59361 0.48599 0.81978 0.0
H2993 H 0.60545 0.47974 0.79356 0.0
H2994 H 0.56695 0.4602 0.84296 0.0
H2995 H 0.56902 0.51368 0.80848 0.0
H2996 H 0.56117 0.52796 0.784 0.0
H2997 H 0.49302 0.49112 0.79354 0.0
H2998 H 0.50044 0.47637 0.81796 0.0
H2999 H 0.54343 0.50767 0.91088 0.0
H3000 H 0.55837 0.50117 0.8863 0.0
H3001 H 0.49405 0.46523 0.86607 0.0
H3002 H 0.47896 0.47128 0.89064 0.0
H3003 H 0.52215 0.49476 0.84502 0.0
H3004 H 0.52024 0.43966 0.87848 0.0
H3005 H 0.52816 0.42571 0.90311 0.0
H3006 H 0.59634 0.46695 0.89596 0.0
H3007 H 0.5888 0.4811 0.87121 0.0
C3008 C 0.55121 0.45595 0.78591 0.0
C3009 C 0.57327 0.46341 0.78287 0.0
C3010 C 0.54448 0.45929 0.80095 0.0
C3011 C 0.55964 0.47039 0.81328 0.0
C3012 C 0.58162 0.47748 0.81044 0.0
C3013 C 0.58838 0.47408 0.79538 0.0
C3014 C 0.55247 0.47486 0.82897 0.0
C3015 C 0.55743 0.46804 0.84342 0.0
C3016 C 0.53981 0.48486 0.82962 0.0
C3017 C 0.53528 0.49379 0.81498 0.0
C3018 C 0.55235 0.50851 0.8053 0.0
C3019 C 0.54798 0.5167 0.79144 0.0
C3020 C 0.52661 0.51042 0.7872 0.0
C3021 C 0.50956 0.49596 0.79683 0.0
C3022 C 0.51384 0.48769 0.81069 0.0
C3023 C 0.53242 0.49808 0.90132 0.0
C3024 C 0.50998 0.49015 0.90271 0.0
C3025 C 0.541 0.49442 0.88725 0.0
C3026 C 0.52732 0.48273 0.87432 0.0
C3027 C 0.50492 0.47444 0.87583 0.0
C3028 C 0.49634 0.478 0.88987 0.0
C3029 C 0.53627 0.47976 0.85894 0.0
C3030 C 0.53173 0.48698 0.84455 0.0
C3031 C 0.54935 0.47023 0.85838 0.0
C3032 C 0.55396 0.46156 0.8731 0.0
C3033 C 0.53692 0.44582 0.88221 0.0
C3034 C 0.54134 0.43786 0.89618 0.0
C3035 C 0.56274 0.44553 0.90116 0.0
C3036 C 0.57977 0.46105 0.8921 0.0
C3037 C 0.57544 0.46899 0.87807 0.0
H3038 H 0.56611 0.4394 0.91202 0.0
H3039 H 0.52326 0.51678 0.77646 0.0
H3040 H 0.58735 0.12987 0.79205 0.0
H3041 H 0.57955 0.11335 0.81879 0.0
H3042 H 0.51263 0.07343 0.80508 0.0
H3043 H 0.52032 0.08932 0.77824 0.0
H3044 H 0.51731 0.09205 0.83523 0.0
H3045 H 0.54588 0.0536 0.80622 0.0
H3046 H 0.57338 0.05036 0.79041 0.0
H3047 H 0.6194 0.07968 0.82912 0.0
H3048 H 0.59224 0.08335 0.84507 0.0
H3049 H 0.47376 0.0092 0.89136 0.0
H3050 H 0.48714 0.03188 0.86769 0.0
H3051 H 0.55211 0.06157 0.88704 0.0
H3052 H 0.53885 0.03821 0.91064 0.0
H3053 H 0.55217 0.05244 0.85587 0.0
H3054 H 0.52337 0.08811 0.88611 0.0
H3055 H 0.49655 0.0921 0.90223 0.0
H3056 H 0.45222 0.06975 0.86202 0.0
H3057 H 0.47864 0.06535 0.84572 0.0
C3058 C 0.57102 0.11739 0.79462 0.0
C3059 C 0.55446 0.11104 0.78292 0.0
C3060 C 0.56657 0.10803 0.80997 0.0
C3061 C 0.54549 0.09215 0.81396 0.0
C3062 C 0.52898 0.08578 0.80233 0.0
C3063 C 0.53342 0.09498 0.78698 0.0
C3064 C 0.54047 0.08207 0.83021 0.0
C3065 C 0.5248 0.08324 0.8397 0.0
C3066 C 0.55081 0.07124 0.83631 0.0
C3067 C 0.56711 0.06898 0.82675 0.0
C3068 C 0.56192 0.05952 0.8113 0.0
C3069 C 0.57743 0.05758 0.80232 0.0
C3070 C 0.59815 0.06487 0.80873 0.0
C3071 C 0.60337 0.07407 0.82415 0.0
C3072 C 0.58792 0.07608 0.83317 0.0
C3073 C 0.49093 0.02048 0.8906 0.0
C3074 C 0.50523 0.02173 0.90289 0.0
C3075 C 0.49854 0.03366 0.87711 0.0
C3076 C 0.52063 0.04866 0.8756 0.0
C3077 C 0.53498 0.05019 0.88794 0.0
C3078 C 0.52735 0.03693 0.90149 0.0
C3079 C 0.52861 0.06199 0.86079 0.0
C3080 C 0.54485 0.06146 0.85154 0.0
C3081 C 0.51892 0.07359 0.85497 0.0
C3082 C 0.50296 0.07625 0.86473 0.0
C3083 C 0.50784 0.0839 0.88074 0.0
C3084 C 0.49272 0.08626 0.8899 0.0
C3085 C 0.47268 0.08114 0.88316 0.0
C3086 C 0.46774 0.0737 0.86723 0.0
C3087 C 0.4828 0.0713 0.85801 0.0
H3088 H 0.46098 0.08295 0.89028 0.0
H3089 H 0.61014 0.06335 0.80177 0.0
H3090 H 0.1501 0.24842 0.58008 0.0
H3091 H 0.16097 0.2655 0.55379 0.0
H3092 H 0.09428 0.23314 0.53802 0.0
H3093 H 0.08332 0.21507 0.5641 0.0
H3094 H 0.11931 0.2338 0.51406 0.0
H3095 H 0.12011 0.28562 0.54991 0.0
H3096 H 0.12936 0.3076 0.57461 0.0
H3097 H 0.19698 0.33647 0.56333 0.0
H3098 H 0.18815 0.31444 0.53866 0.0
H3099 H 0.14249 0.30495 0.44673 0.0
H3100 H 0.12778 0.28359 0.47119 0.0
H3101 H 0.1924 0.30976 0.49065 0.0
H3102 H 0.20718 0.33088 0.46627 0.0
H3103 H 0.16558 0.31202 0.51237 0.0
H3104 H 0.16403 0.25805 0.47716 0.0
H3105 H 0.15411 0.2361 0.45242 0.0
H3106 H 0.08668 0.21213 0.46212 0.0
H3107 H 0.09625 0.23397 0.48698 0.0
C3108 C 0.13771 0.24462 0.57098 0.0
C3109 C 0.11578 0.23035 0.57432 0.0
C3110 C 0.14395 0.25464 0.55597 0.0
C3111 C 0.12842 0.25094 0.54396 0.0
C3112 C 0.10657 0.23638 0.5471 0.0
C3113 C 0.1003 0.22622 0.5621 0.0
C3114 C 0.13507 0.26251 0.52828 0.0
C3115 C 0.12916 0.25093 0.51369 0.0
C3116 C 0.14809 0.28487 0.52772 0.0
C3117 C 0.15347 0.29824 0.5425 0.0
C3118 C 0.13696 0.29655 0.55275 0.0
C3119 C 0.14213 0.30903 0.56674 0.0
C3120 C 0.16375 0.32339 0.57056 0.0
C3121 C 0.18024 0.32533 0.56037 0.0
C3122 C 0.17516 0.31286 0.54637 0.0
C3123 C 0.15359 0.30588 0.4561 0.0
C3124 C 0.17602 0.3198 0.45457 0.0
C3125 C 0.14515 0.29369 0.4701 0.0
C3126 C 0.15898 0.29506 0.4828 0.0
C3127 C 0.18138 0.30853 0.4811 0.0
C3128 C 0.1898 0.32067 0.46715 0.0
C3129 C 0.15026 0.28329 0.4982 0.0
C3130 C 0.15568 0.29489 0.51275 0.0
C3131 C 0.13666 0.26101 0.49868 0.0
C3132 C 0.13086 0.24779 0.48382 0.0
C3133 C 0.1471 0.2482 0.47396 0.0
C3134 C 0.14153 0.23575 0.45993 0.0
C3135 C 0.11977 0.2228 0.45564 0.0
C3136 C 0.10353 0.22219 0.46544 0.0
C3137 C 0.10901 0.23455 0.47953 0.0
H3138 H 0.1155 0.2132 0.44476 0.0
H3139 H 0.16771 0.33303 0.5814 0.0
H3140 H 0.79362 0.91174 0.57192 0.0
H3141 H 0.77673 0.90667 0.54522 0.0
H3142 H 0.72611 0.84448 0.55929 0.0
H3143 H 0.74319 0.84935 0.58589 0.0
H3144 H 0.73886 0.84291 0.52983 0.0
H3145 H 0.71836 0.888 0.55781 0.0
H3146 H 0.72446 0.91942 0.57345 0.0
H3147 H 0.76277 0.9599 0.53478 0.0
H3148 H 0.75714 0.92872 0.51899 0.0
H3149 H 0.65889 0.82752 0.471 0.0
H3150 H 0.67926 0.83351 0.49629 0.0
H3151 H 0.73315 0.88941 0.47603 0.0
H3152 H 0.71286 0.88337 0.45063 0.0
H3153 H 0.72032 0.89507 0.50765 0.0
H3154 H 0.7388 0.84888 0.47926 0.0
H3155 H 0.73148 0.81692 0.46386 0.0
H3156 H 0.69527 0.77779 0.50378 0.0
H3157 H 0.7021 0.80952 0.51934 0.0
C3158 C 0.77881 0.89705 0.56933 0.0
C3159 C 0.76966 0.88097 0.581 0.0
C3160 C 0.76916 0.89417 0.55408 0.0
C3161 C 0.74998 0.87529 0.5503 0.0
C3162 C 0.74092 0.85916 0.56191 0.0
C3163 C 0.75068 0.86195 0.5771 0.0
C3164 C 0.73934 0.8723 0.53425 0.0
C3165 C 0.73459 0.8542 0.52509 0.0
C3166 C 0.73419 0.88727 0.52786 0.0
C3167 C 0.73751 0.90604 0.53729 0.0
C3168 C 0.72822 0.90361 0.55269 0.0
C3169 C 0.73157 0.92137 0.56157 0.0
C3170 C 0.74405 0.94164 0.55513 0.0
C3171 C 0.75314 0.94419 0.53976 0.0
C3172 C 0.74986 0.92648 0.53084 0.0
C3173 C 0.67508 0.84108 0.47196 0.0
C3174 C 0.68433 0.85502 0.4589 0.0
C3175 C 0.68672 0.84441 0.48635 0.0
C3176 C 0.70771 0.86185 0.48797 0.0
C3177 C 0.71697 0.87585 0.47497 0.0
C3178 C 0.70545 0.87234 0.46049 0.0
C3179 C 0.71973 0.86564 0.5034 0.0
C3180 C 0.72472 0.88386 0.51242 0.0
C3181 C 0.72491 0.8507 0.50972 0.0
C3182 C 0.72078 0.83158 0.5004 0.0
C3183 C 0.7291 0.83346 0.4847 0.0
C3184 C 0.72508 0.81538 0.47595 0.0
C3185 C 0.71287 0.79533 0.48282 0.0
C3186 C 0.7047 0.79333 0.49847 0.0
C3187 C 0.70866 0.81136 0.50726 0.0
H3188 H 0.70978 0.78136 0.47603 0.0
H3189 H 0.74663 0.95538 0.56202 0.0
H3190 H 0.14478 0.9314 0.56528 0.0
H3191 H 0.1532 0.92467 0.53823 0.0
H3192 H 0.11749 0.85738 0.54707 0.0
H3193 H 0.11064 0.86409 0.57476 0.0
H3194 H 0.15176 0.86517 0.53291 0.0
H3195 H 0.09899 0.88455 0.52083 0.0
H3196 H 0.08084 0.90579 0.5216 0.0
H3197 H 0.13664 0.95826 0.50028 0.0
H3198 H 0.15526 0.93745 0.49959 0.0
H3199 H 0.1607 0.84525 0.4486 0.0
H3200 H 0.14294 0.848 0.47323 0.0
H3201 H 0.19344 0.91302 0.47936 0.0
H3202 H 0.2115 0.91018 0.45502 0.0
H3203 H 0.14718 0.90284 0.48449 0.0
H3204 H 0.20005 0.8819 0.5 0.0
H3205 H 0.21565 0.85843 0.49837 0.0
H3206 H 0.1546 0.80536 0.5122 0.0
H3207 H 0.13856 0.82849 0.51365 0.0
C3208 C 0.13889 0.91514 0.56162 0.0
C3209 C 0.12717 0.89833 0.57241 0.0
C3210 C 0.14338 0.91128 0.54593 0.0
C3211 C 0.13569 0.89047 0.54037 0.0
C3212 C 0.12357 0.8736 0.55098 0.0
C3213 C 0.11944 0.87747 0.56681 0.0
C3214 C 0.14142 0.88647 0.52387 0.0
C3215 C 0.15027 0.87311 0.52232 0.0
C3216 C 0.13973 0.89687 0.50992 0.0
C3217 C 0.12859 0.90947 0.51027 0.0
C3218 C 0.10746 0.90067 0.51641 0.0
C3219 C 0.09707 0.91263 0.51682 0.0
C3220 C 0.1076 0.93338 0.51102 0.0
C3221 C 0.12851 0.94219 0.50477 0.0
C3222 C 0.13898 0.93031 0.50435 0.0
C3223 C 0.16783 0.86017 0.45514 0.0
C3224 C 0.18754 0.87745 0.45007 0.0
C3225 C 0.15771 0.86171 0.46916 0.0
C3226 C 0.16695 0.88069 0.4781 0.0
C3227 C 0.18607 0.89826 0.4726 0.0
C3228 C 0.19641 0.89659 0.45879 0.0
C3229 C 0.15763 0.88191 0.4938 0.0
C3230 C 0.14822 0.89473 0.49514 0.0
C3231 C 0.15834 0.87069 0.50748 0.0
C3232 C 0.16805 0.85686 0.50674 0.0
C3233 C 0.18991 0.86519 0.50254 0.0
C3234 C 0.19884 0.85196 0.50168 0.0
C3235 C 0.1861 0.8304 0.50513 0.0
C3236 C 0.16443 0.82205 0.50949 0.0
C3237 C 0.15541 0.83521 0.51034 0.0
H3238 H 0.19305 0.82018 0.50446 0.0
H3239 H 0.09953 0.94261 0.51135 0.0
H3240 H 0.57848 0.80272 0.12368 0.0
H3241 H 0.59673 0.81022 0.14978 0.0
H3242 H 0.56663 0.74323 0.15923 0.0
H3243 H 0.54661 0.73559 0.13384 0.0
H3244 H 0.56942 0.76153 0.18601 0.0
H3245 H 0.6203 0.77435 0.14384 0.0
H3246 H 0.64034 0.78988 0.11862 0.0
H3247 H 0.66714 0.85229 0.13911 0.0
H3248 H 0.64703 0.83713 0.16439 0.0
H3249 H 0.65482 0.76844 0.2376 0.0
H3250 H 0.63216 0.76255 0.21352 0.0
H3251 H 0.64069 0.82513 0.21899 0.0
H3252 H 0.66291 0.83091 0.24331 0.0
H3253 H 0.64902 0.80993 0.18551 0.0
H3254 H 0.59657 0.79402 0.2286 0.0
H3255 H 0.57855 0.77578 0.2538 0.0
H3256 H 0.55723 0.71549 0.23092 0.0
H3257 H 0.57526 0.73341 0.20559 0.0
C3258 C 0.57519 0.78952 0.13143 0.0
C3259 C 0.56117 0.76848 0.12642 0.0
C3260 C 0.58599 0.79386 0.14631 0.0
C3261 C 0.58363 0.77729 0.1563 0.0
C3262 C 0.56896 0.75632 0.15168 0.0
C3263 C 0.55773 0.75197 0.13699 0.0
C3264 C 0.59702 0.78175 0.17122 0.0
C3265 C 0.58683 0.77201 0.1858 0.0
C3266 C 0.6198 0.79545 0.1711 0.0
C3267 C 0.63198 0.80462 0.15594 0.0
C3268 C 0.63036 0.79139 0.14292 0.0
C3269 C 0.64174 0.80013 0.12863 0.0
C3270 C 0.65496 0.82206 0.12725 0.0
C3271 C 0.65687 0.8353 0.14019 0.0
C3272 C 0.64549 0.82665 0.15451 0.0
C3273 C 0.65191 0.78094 0.23358 0.0
C3274 C 0.6606 0.80014 0.2422 0.0
C3275 C 0.63894 0.77753 0.21994 0.0
C3276 C 0.63483 0.79343 0.21458 0.0
C3277 C 0.64373 0.81272 0.22301 0.0
C3278 C 0.65633 0.81597 0.23686 0.0
C3279 C 0.62133 0.78987 0.20005 0.0
C3280 C 0.63157 0.79965 0.1856 0.0
C3281 C 0.59875 0.77586 0.2002 0.0
C3282 C 0.58738 0.76505 0.21525 0.0
C3283 C 0.58811 0.77687 0.22897 0.0
C3284 C 0.57786 0.7666 0.24326 0.0
C3285 C 0.56678 0.74449 0.24397 0.0
C3286 C 0.56581 0.73261 0.23035 0.0
C3287 C 0.57599 0.74282 0.21601 0.0
H3288 H 0.55896 0.73656 0.25508 0.0
H3289 H 0.66376 0.82879 0.11617 0.0
H3290 H 0.20975 0.77223 0.11096 0.0
H3291 H 0.19625 0.77701 0.13675 0.0
H3292 H 0.26141 0.81047 0.15576 0.0
H3293 H 0.27503 0.80483 0.13014 0.0
H3294 H 0.23395 0.78515 0.17853 0.0
H3295 H 0.23673 0.83741 0.14245 0.0
H3296 H 0.23001 0.8512 0.11721 0.0
H3297 H 0.16141 0.81348 0.12459 0.0
H3298 H 0.16772 0.79922 0.14977 0.0
H3299 H 0.20709 0.83441 0.24304 0.0
H3300 H 0.22293 0.82757 0.21917 0.0
H3301 H 0.15914 0.78873 0.19875 0.0
H3302 H 0.14312 0.79508 0.22268 0.0
H3303 H 0.18774 0.81824 0.17723 0.0
H3304 H 0.18609 0.76603 0.21387 0.0
H3305 H 0.194 0.75492 0.23995 0.0
H3306 H 0.26217 0.79546 0.23224 0.0
H3307 H 0.25465 0.80701 0.20617 0.0
C3308 C 0.22124 0.78027 0.12068 0.0
C3309 C 0.24354 0.78819 0.11839 0.0
C3310 C 0.21349 0.78321 0.1354 0.0
C3311 C 0.22783 0.79442 0.14814 0.0
C3312 C 0.25003 0.80187 0.14609 0.0
C3313 C 0.25782 0.79882 0.13136 0.0
C3314 C 0.2196 0.79888 0.16333 0.0
C3315 C 0.22408 0.79262 0.17826 0.0
C3316 C 0.20657 0.80851 0.16303 0.0
C3317 C 0.2027 0.8171 0.14792 0.0
C3318 C 0.22021 0.83193 0.13863 0.0
C3319 C 0.21648 0.83985 0.12434 0.0
C3320 C 0.1953 0.83318 0.11928 0.0
C3321 C 0.17781 0.81861 0.12852 0.0
C3322 C 0.18145 0.81062 0.1428 0.0
C3323 C 0.19638 0.82412 0.23361 0.0
C3324 C 0.1738 0.81538 0.23478 0.0
C3325 C 0.20549 0.8203 0.21993 0.0
C3326 C 0.19221 0.80762 0.20719 0.0
C3327 C 0.16969 0.79866 0.2084 0.0
C3328 C 0.16057 0.80239 0.22208 0.0
C3329 C 0.20174 0.80417 0.19233 0.0
C3330 C 0.1976 0.81074 0.17748 0.0
C3331 C 0.21522 0.79507 0.19276 0.0
C3332 C 0.2198 0.78752 0.20813 0.0
C3333 C 0.20277 0.77264 0.21776 0.0
C3334 C 0.20717 0.76627 0.23255 0.0
C3335 C 0.22857 0.77454 0.23779 0.0
C3336 C 0.2456 0.78908 0.22818 0.0
C3337 C 0.24128 0.79552 0.21338 0.0
H3338 H 0.23194 0.76966 0.24927 0.0
H3339 H 0.19244 0.83934 0.10822 0.0
H3340 H 0.25563 0.46871 0.12315 0.0
H3341 H 0.2483 0.45287 0.15014 0.0
H3342 H 0.18165 0.41111 0.13661 0.0
H3343 H 0.1889 0.42624 0.10953 0.0
H3344 H 0.1863 0.4315 0.16631 0.0
H3345 H 0.21537 0.39238 0.13874 0.0
H3346 H 0.24315 0.38896 0.12347 0.0
H3347 H 0.28889 0.41987 0.16211 0.0
H3348 H 0.26144 0.42373 0.17751 0.0
H3349 H 0.14214 0.35 0.22316 0.0
H3350 H 0.15604 0.37233 0.19936 0.0
H3351 H 0.22059 0.40233 0.21954 0.0
H3352 H 0.2068 0.37929 0.24331 0.0
H3353 H 0.22131 0.39276 0.18846 0.0
H3354 H 0.19222 0.42893 0.21743 0.0
H3355 H 0.16536 0.43335 0.23312 0.0
H3356 H 0.12127 0.41026 0.19277 0.0
H3357 H 0.14773 0.40539 0.17691 0.0
C3358 C 0.23948 0.45593 0.12581 0.0
C3359 C 0.22284 0.44889 0.1141 0.0
C3360 C 0.2353 0.44698 0.1413 0.0
C3361 C 0.2144 0.43084 0.14541 0.0
C3362 C 0.19785 0.42367 0.13376 0.0
C3363 C 0.20203 0.43245 0.11827 0.0
C3364 C 0.20953 0.42144 0.16188 0.0
C3365 C 0.19383 0.42289 0.17112 0.0
C3366 C 0.21998 0.41095 0.16843 0.0
C3367 C 0.23644 0.40858 0.15919 0.0
C3368 C 0.23141 0.39862 0.14392 0.0
C3369 C 0.24708 0.39657 0.13525 0.0
C3370 C 0.26779 0.40426 0.14179 0.0
C3371 C 0.27285 0.41396 0.15704 0.0
C3372 C 0.25724 0.41608 0.16575 0.0
C3373 C 0.15933 0.36129 0.22256 0.0
C3374 C 0.17337 0.3627 0.23512 0.0
C3375 C 0.16723 0.37426 0.20899 0.0
C3376 C 0.18936 0.38922 0.20767 0.0
C3377 C 0.20345 0.39095 0.22028 0.0
C3378 C 0.19551 0.37789 0.23393 0.0
C3379 C 0.19761 0.40231 0.19277 0.0
C3380 C 0.21396 0.40161 0.18381 0.0
C3381 C 0.18793 0.41373 0.18654 0.0
C3382 C 0.17193 0.41666 0.19601 0.0
C3383 C 0.17673 0.42465 0.21194 0.0
C3384 C 0.16159 0.42725 0.22086 0.0
C3385 C 0.14161 0.42205 0.21395 0.0
C3386 C 0.13676 0.41427 0.1981 0.0
C3387 C 0.15184 0.41161 0.18913 0.0
H3388 H 0.12991 0.42409 0.22088 0.0
H3389 H 0.2799 0.40265 0.13507 0.0
H3390 H 0.8142 0.58006 0.91585 0.0
H3391 H 0.82445 0.59646 0.88924 0.0
H3392 H 0.75842 0.55858 0.87272 0.0
H3393 H 0.74813 0.54144 0.8992 0.0
H3394 H 0.78643 0.56173 0.8493 0.0
H3395 H 0.77791 0.60971 0.884 0.0
H3396 H 0.7837 0.63138 0.9085 0.0
H3397 H 0.85178 0.66737 0.89848 0.0
H3398 H 0.84644 0.64571 0.87403 0.0
H3399 H 0.80023 0.63 0.78163 0.0
H3400 H 0.78807 0.60771 0.80585 0.0
H3401 H 0.85256 0.64267 0.82594 0.0
H3402 H 0.86477 0.66482 0.80186 0.0
H3403 H 0.82319 0.64015 0.84718 0.0
H3404 H 0.8314 0.59139 0.81245 0.0
H3405 H 0.82507 0.56976 0.78784 0.0
H3406 H 0.75682 0.53563 0.79752 0.0
H3407 H 0.76274 0.5572 0.82212 0.0
C3408 C 0.80188 0.57491 0.90651 0.0
C3409 C 0.78029 0.55946 0.90975 0.0
C3410 C 0.80774 0.58448 0.89131 0.0
C3411 C 0.79215 0.57902 0.87902 0.0
C3412 C 0.77072 0.56315 0.88202 0.0
C3413 C 0.76483 0.55351 0.89723 0.0
C3414 C 0.79816 0.59044 0.86329 0.0
C3415 C 0.79422 0.57886 0.84881 0.0
C3416 C 0.80854 0.61282 0.86261 0.0
C3417 C 0.8118 0.62595 0.87727 0.0
C3418 C 0.79414 0.62214 0.88709 0.0
C3419 C 0.79734 0.63444 0.90095 0.0
C3420 C 0.8181 0.65071 0.90506 0.0
C3421 C 0.83571 0.65475 0.89529 0.0
C3422 C 0.83261 0.64248 0.88142 0.0
C3423 C 0.8119 0.63264 0.79108 0.0
C3424 C 0.83342 0.64933 0.78988 0.0
C3425 C 0.80492 0.61991 0.80493 0.0
C3426 C 0.81939 0.62353 0.81777 0.0
C3427 C 0.84105 0.63967 0.81629 0.0
C3428 C 0.84799 0.65236 0.80251 0.0
C3429 C 0.81188 0.61151 0.83318 0.0
C3430 C 0.81542 0.62302 0.84763 0.0
C3431 C 0.80106 0.5891 0.83378 0.0
C3432 C 0.79749 0.57606 0.81903 0.0
C3433 C 0.81503 0.57938 0.80926 0.0
C3434 C 0.81152 0.5671 0.79533 0.0
C3435 C 0.79055 0.55137 0.79109 0.0
C3436 C 0.77305 0.54783 0.80081 0.0
C3437 C 0.77648 0.56006 0.81476 0.0
H3438 H 0.78786 0.54189 0.7803 0.0
H3439 H 0.82055 0.66021 0.9158 0.0
H3440 H 0.48381 0.25526 0.89834 0.0
H3441 H 0.46579 0.24755 0.87187 0.0
H3442 H 0.42113 0.18376 0.8872 0.0
H3443 H 0.43926 0.19129 0.91352 0.0
H3444 H 0.43394 0.1832 0.8575 0.0
H3445 H 0.40733 0.22321 0.8862 0.0
H3446 H 0.41055 0.25386 0.90138 0.0
H3447 H 0.44275 0.29439 0.86105 0.0
H3448 H 0.43998 0.264 0.84571 0.0
H3449 H 0.34372 0.15232 0.80571 0.0
H3450 H 0.36869 0.16324 0.82876 0.0
H3451 H 0.41282 0.22084 0.80401 0.0
H3452 H 0.38783 0.20991 0.78082 0.0
H3453 H 0.40393 0.22694 0.8364 0.0
H3454 H 0.42671 0.18507 0.80683 0.0
H3455 H 0.42191 0.15359 0.79199 0.0
H3456 H 0.39514 0.11561 0.83444 0.0
H3457 H 0.39948 0.14681 0.84948 0.0
C3458 C 0.47011 0.23962 0.89604 0.0
C3459 C 0.46293 0.22387 0.90797 0.0
C3460 C 0.45983 0.23523 0.88093 0.0
C3461 C 0.44196 0.21513 0.8776 0.0
C3462 C 0.43493 0.19935 0.88947 0.0
C3463 C 0.44531 0.20366 0.90449 0.0
C3464 C 0.43033 0.21045 0.86186 0.0
C3465 C 0.42724 0.19268 0.85296 0.0
C3466 C 0.42206 0.22312 0.8557 0.0
C3467 C 0.42367 0.24139 0.86489 0.0
C3468 C 0.41525 0.23869 0.88062 0.0
C3469 C 0.41697 0.25601 0.88924 0.0
C3470 C 0.42691 0.27608 0.8822 0.0
C3471 C 0.43509 0.27885 0.8665 0.0
C3472 C 0.43345 0.26158 0.85783 0.0
C3473 C 0.35875 0.1673 0.80518 0.0
C3474 C 0.36382 0.18034 0.79152 0.0
C3475 C 0.37304 0.17345 0.8183 0.0
C3476 C 0.39262 0.19279 0.81803 0.0
C3477 C 0.3978 0.20584 0.8044 0.0
C3478 C 0.3836 0.19956 0.79118 0.0
C3479 C 0.40724 0.19952 0.83227 0.0
C3480 C 0.41087 0.21764 0.84087 0.0
C3481 C 0.41583 0.18707 0.83823 0.0
C3482 C 0.41326 0.16826 0.82924 0.0
C3483 C 0.41963 0.16997 0.81297 0.0
C3484 C 0.41702 0.15218 0.80452 0.0
C3485 C 0.40818 0.1326 0.81226 0.0
C3486 C 0.40197 0.13078 0.82846 0.0
C3487 C 0.40452 0.14853 0.83696 0.0
H3488 H 0.40618 0.11885 0.8057 0.0
H3489 H 0.42822 0.28947 0.88889 0.0
H3490 H 0.772 0.19712 0.91163 0.0
H3491 H 0.77873 0.18876 0.88446 0.0
H3492 H 0.81295 0.25528 0.87276 0.0
H3493 H 0.8046 0.26363 0.89936 0.0
H3494 H 0.7926 0.23533 0.84751 0.0
H3495 H 0.8389 0.22606 0.88479 0.0
H3496 H 0.84793 0.21171 0.90867 0.0
H3497 H 0.80963 0.14861 0.88967 0.0
H3498 H 0.80016 0.16258 0.86576 0.0
H3499 H 0.86892 0.23593 0.7904 0.0
H3500 H 0.85102 0.23991 0.81441 0.0
H3501 H 0.80245 0.17375 0.8114 0.0
H3502 H 0.82003 0.16989 0.78702 0.0
H3503 H 0.82658 0.19049 0.8429 0.0
H3504 H 0.7845 0.20299 0.80341 0.0
H3505 H 0.77943 0.22014 0.77945 0.0
H3506 H 0.81501 0.28089 0.80278 0.0
H3507 H 0.82053 0.26412 0.82683 0.0
C3508 C 0.78052 0.20999 0.90321 0.0
C3509 C 0.78797 0.23114 0.90792 0.0
C3510 C 0.78467 0.20518 0.88768 0.0
C3511 C 0.79689 0.22141 0.87661 0.0
C3512 C 0.80365 0.24243 0.88106 0.0
C3513 C 0.79912 0.24722 0.89645 0.0
C3514 C 0.80331 0.21667 0.86064 0.0
C3515 C 0.80015 0.22563 0.84657 0.0
C3516 C 0.81294 0.20378 0.85924 0.0
C3517 C 0.81862 0.19534 0.87359 0.0
C3518 C 0.83228 0.20911 0.88577 0.0
C3519 C 0.8375 0.20105 0.8993 0.0
C3520 C 0.8293 0.17926 0.90071 0.0
C3521 C 0.81593 0.16548 0.88857 0.0
C3522 C 0.81064 0.17346 0.87503 0.0
C3523 C 0.85423 0.22236 0.79475 0.0
C3524 C 0.84574 0.20263 0.78693 0.0
C3525 C 0.84403 0.22463 0.8084 0.0
C3526 C 0.82541 0.20713 0.81462 0.0
C3527 C 0.81676 0.18744 0.80671 0.0
C3528 C 0.82672 0.18526 0.79283 0.0
C3529 C 0.81598 0.20926 0.82998 0.0
C3530 C 0.81872 0.19992 0.8439 0.0
C3531 C 0.80648 0.22219 0.83128 0.0
C3532 C 0.80308 0.23231 0.81687 0.0
C3533 C 0.79141 0.22002 0.80338 0.0
C3534 C 0.78841 0.22967 0.7898 0.0
C3535 C 0.79694 0.2516 0.78958 0.0
C3536 C 0.80843 0.26391 0.80297 0.0
C3537 C 0.81146 0.25434 0.81659 0.0
H3538 H 0.79462 0.25904 0.77904 0.0
H3539 H 0.83336 0.17305 0.91119 0.0
H3540 H 0.21353 0.11813 0.4619 0.0
H3541 H 0.23116 0.1273 0.48852 0.0
H3542 H 0.27315 0.10363 0.47376 0.0
H3543 H 0.25607 0.09492 0.44706 0.0
H3544 H 0.25476 0.0889 0.50381 0.0
H3545 H 0.2921 0.15548 0.47525 0.0
H3546 H 0.29435 0.18536 0.45976 0.0
H3547 H 0.26461 0.20013 0.49896 0.0
H3548 H 0.26192 0.17013 0.5146 0.0
H3549 H 0.34034 0.13093 0.56003 0.0
H3550 H 0.31735 0.12136 0.53599 0.0
H3551 H 0.28425 0.15206 0.5561 0.0
H3552 H 0.3078 0.16239 0.58003 0.0
H3553 H 0.29418 0.16258 0.52502 0.0
H3554 H 0.2595 0.09831 0.55467 0.0
H3555 H 0.25676 0.06842 0.57043 0.0
H3556 H 0.28012 0.04887 0.52981 0.0
H3557 H 0.28331 0.07884 0.51387 0.0
C3558 C 0.22668 0.11511 0.46425 0.0
C3559 C 0.23331 0.1057 0.45235 0.0
C3560 C 0.23666 0.12027 0.47949 0.0
C3561 C 0.25344 0.11613 0.48308 0.0
C3562 C 0.26011 0.1068 0.47125 0.0
C3563 C 0.25025 0.10175 0.45602 0.0
C3564 C 0.26413 0.12141 0.49918 0.0
C3565 C 0.26354 0.10502 0.50841 0.0
C3566 C 0.27491 0.14235 0.50538 0.0
C3567 C 0.27657 0.16041 0.49601 0.0
C3568 C 0.28586 0.16498 0.48051 0.0
C3569 C 0.28726 0.18196 0.47171 0.0
C3570 C 0.27956 0.1946 0.47835 0.0
C3571 C 0.27052 0.19031 0.49382 0.0
C3572 C 0.26907 0.17332 0.50266 0.0
C3573 C 0.32824 0.13575 0.55932 0.0
C3574 C 0.32594 0.14748 0.57193 0.0
C3575 C 0.31495 0.13006 0.54564 0.0
C3576 C 0.2989 0.13577 0.54433 0.0
C3577 C 0.29647 0.14741 0.5569 0.0
C3578 C 0.30982 0.15315 0.57062 0.0
C3579 C 0.28523 0.13011 0.52954 0.0
C3580 C 0.28521 0.14641 0.52054 0.0
C3581 C 0.27374 0.10905 0.52359 0.0
C3582 C 0.2718 0.09094 0.53311 0.0
C3583 C 0.26421 0.08774 0.54913 0.0
C3584 C 0.26255 0.07076 0.55809 0.0
C3585 C 0.2683 0.05678 0.55113 0.0
C3586 C 0.27568 0.05972 0.53518 0.0
C3587 C 0.2774 0.07669 0.52618 0.0
H3588 H 0.267 0.04364 0.55809 0.0
H3589 H 0.28066 0.20774 0.47153 0.0
H3590 H 0.91786 0.1603 0.44383 0.0
H3591 H 0.90666 0.16562 0.47056 0.0
H3592 H 0.89935 0.10599 0.4863 0.0
H3593 H 0.90978 0.10029 0.45932 0.0
H3594 H 0.86769 0.10871 0.49737 0.0
H3595 H 0.94363 0.15563 0.4981 0.0
H3596 H 0.97901 0.18383 0.48833 0.0
H3597 H 0.95682 0.22873 0.49107 0.0
H3598 H 0.92119 0.20072 0.50064 0.0
H3599 H 0.88739 0.17331 0.57897 0.0
H3600 H 0.90115 0.16309 0.55559 0.0
H3601 H 0.8403 0.14148 0.53073 0.0
H3602 H 0.82603 0.15039 0.55432 0.0
H3603 H 0.90917 0.1772 0.52661 0.0
H3604 H 0.8295 0.10296 0.50426 0.0
H3605 H 0.79684 0.07291 0.51597 0.0
H3606 H 0.83147 0.07926 0.56016 0.0
H3607 H 0.86441 0.10915 0.54865 0.0
C3608 C 0.91395 0.14839 0.45304 0.0
C3609 C 0.91478 0.12994 0.44956 0.0
C3610 C 0.90764 0.15148 0.46834 0.0
C3611 C 0.90253 0.13641 0.48062 0.0
C3612 C 0.90322 0.11788 0.47709 0.0
C3613 C 0.90919 0.11463 0.46168 0.0
C3614 C 0.89604 0.13982 0.49699 0.0
C3615 C 0.87683 0.12367 0.50378 0.0
C3616 C 0.90823 0.15907 0.50566 0.0
C3617 C 0.92968 0.17602 0.49998 0.0
C3618 C 0.94625 0.17148 0.49652 0.0
C3619 C 0.96635 0.18744 0.49103 0.0
C3620 C 0.97015 0.20805 0.48906 0.0
C3621 C 0.95386 0.21275 0.4926 0.0
C3622 C 0.93371 0.19684 0.49808 0.0
C3623 C 0.87675 0.16594 0.56867 0.0
C3624 C 0.85557 0.16273 0.56857 0.0
C3625 C 0.88474 0.1603 0.55523 0.0
C3626 C 0.87174 0.15133 0.5414 0.0
C3627 C 0.85057 0.148 0.54132 0.0
C3628 C 0.84251 0.15342 0.55479 0.0
C3629 C 0.88052 0.14633 0.52675 0.0
C3630 C 0.90014 0.16218 0.52027 0.0
C3631 C 0.8691 0.12653 0.51865 0.0
C3632 C 0.84938 0.10842 0.52562 0.0
C3633 C 0.83018 0.09788 0.51645 0.0
C3634 C 0.81161 0.08089 0.52306 0.0
C3635 C 0.81206 0.07422 0.53881 0.0
C3636 C 0.83111 0.08449 0.54798 0.0
C3637 C 0.84973 0.10148 0.54142 0.0
H3638 H 0.79767 0.06107 0.54391 0.0
H3639 H 0.98573 0.22038 0.4848 0.0
H3640 H 0.85382 0.7533 0.44296 0.0
H3641 H 0.84653 0.73813 0.47004 0.0
H3642 H 0.91235 0.78203 0.48434 0.0
H3643 H 0.91975 0.79762 0.45723 0.0
H3644 H 0.89867 0.74169 0.4954 0.0
H3645 H 0.87277 0.79073 0.49651 0.0
H3646 H 0.8523 0.80756 0.48672 0.0
H3647 H 0.79272 0.74861 0.49153 0.0
H3648 H 0.81286 0.73134 0.50113 0.0
H3649 H 0.87299 0.71102 0.57819 0.0
H3650 H 0.88544 0.7332 0.55393 0.0
H3651 H 0.82151 0.6973 0.53301 0.0
H3652 H 0.80885 0.6757 0.55732 0.0
H3653 H 0.83763 0.73788 0.52681 0.0
H3654 H 0.86355 0.68812 0.52289 0.0
H3655 H 0.8837 0.6707 0.53214 0.0
H3656 H 0.94288 0.73058 0.53233 0.0
H3657 H 0.92302 0.7484 0.52327 0.0
C3658 C 0.86675 0.75991 0.45187 0.0
C3659 C 0.88733 0.7769 0.44791 0.0
C3660 C 0.86255 0.75115 0.46737 0.0
C3661 C 0.87878 0.75915 0.47933 0.0
C3662 C 0.89955 0.77565 0.47533 0.0
C3663 C 0.90377 0.78449 0.45979 0.0
C3664 C 0.87384 0.75026 0.496 0.0
C3665 C 0.88558 0.7412 0.5024 0.0
C3666 C 0.85656 0.74933 0.50507 0.0
C3667 C 0.84436 0.7597 0.49942 0.0
C3668 C 0.85532 0.78132 0.49537 0.0
C3669 C 0.84377 0.79094 0.48987 0.0
C3670 C 0.82123 0.77915 0.48848 0.0
C3671 C 0.81018 0.75772 0.49261 0.0
C3672 C 0.82166 0.74801 0.4981 0.0
C3673 C 0.86152 0.70809 0.56853 0.0
C3674 C 0.83997 0.6914 0.56965 0.0
C3675 C 0.86871 0.72064 0.55458 0.0
C3676 C 0.85452 0.71672 0.54148 0.0
C3677 C 0.83283 0.70061 0.54288 0.0
C3678 C 0.82565 0.68812 0.55676 0.0
C3679 C 0.86213 0.72886 0.52609 0.0
C3680 C 0.85089 0.73857 0.51991 0.0
C3681 C 0.87981 0.73031 0.51722 0.0
C3682 C 0.89177 0.71961 0.52259 0.0
C3683 C 0.88084 0.69759 0.52502 0.0
C3684 C 0.8922 0.68764 0.53021 0.0
C3685 C 0.91454 0.69953 0.53287 0.0
C3686 C 0.92557 0.72139 0.53029 0.0
C3687 C 0.91427 0.73142 0.52513 0.0
H3688 H 0.92332 0.6918 0.53688 0.0
H3689 H 0.81232 0.78663 0.48421 0.0
loop_
_geom_bond_atom_site_label_1
_geom_bond_atom_site_label_2
_geom_bond_distance
_geom_bond_site_symmetry_2
_ccdc_geom_bond_type
H0 C7 0.929 . S
H1 C10 0.930 . S
H2 C12 0.929 . S
H3 C4 0.969 . S
C4 H3 0.969 . S
C4 O5 1.550 . S
C4 H6 0.973 . S
O5 C4 1.550 . S
O5 C11 1.412 . S
H6 C4 0.973 . S
C7 H0 0.929 . S
C7 C8 1.400 . S
C7 C9 1.364 . S
C8 C7 1.400 . S
C8 C12 1.377 . S
C9 C7 1.364 . S
C9 C10 1.374 . S
C10 H1 0.930 . S
C10 C9 1.374 . S
C10 C11 1.383 . S
C11 O5 1.412 . S
C11 C10 1.383 . S
C11 C12 1.394 . S
C12 H2 0.929 . S
C12 C8 1.377 . S
C12 C11 1.394 . S
H13 C20 0.929 . S
H14 C23 0.930 . S
H15 C25 0.929 . S
H16 C17 0.969 . S
C17 H16 0.969 . S
C17 O18 1.550 . S
C17 H19 0.973 . S
O18 C17 1.550 . S
O18 C24 1.412 . S
H19 C17 0.973 . S
C20 H13 0.929 . S
C20 C21 1.400 . S
C20 C22 1.364 . S
C21 C20 1.400 . S
C21 C25 1.377 . S
C22 C20 1.364 . S
C22 C23 1.374 . S
C23 H14 0.930 . S
C23 C22 1.374 . S
C23 C24 1.383 . S
C24 O18 1.412 . S
C24 C23 1.383 . S
C24 C25 1.394 . S
C25 H15 0.929 . S
C25 C21 1.377 . S
C25 C24 1.394 . S
H26 C33 0.929 . S
H27 C36 0.930 . S
H28 C38 0.929 . S
H29 C30 0.969 . S
C30 H29 0.969 . S
C30 O31 1.550 . S
C30 H32 0.973 . S
O31 C30 1.550 . S
O31 C37 1.412 . S
H32 C30 0.973 . S
C33 H26 0.929 . S
C33 C34 1.400 . S
C33 C35 1.364 . S
C34 C33 1.400 . S
C34 C38 1.377 . S
C35 C33 1.364 . S
C35 C36 1.374 . S
C36 H27 0.930 . S
C36 C35 1.374 . S
C36 C37 1.383 . S
C37 O31 1.412 . S
C37 C36 1.383 . S
C37 C38 1.394 . S
C38 H28 0.929 . S
C38 C34 1.377 . S
C38 C37 1.394 . S
H39 C46 0.929 . S
H40 C49 0.930 . S
H41 C51 0.929 . S
H42 C43 0.969 . S
C43 H42 0.969 . S
C43 O44 1.550 . S
C43 H45 0.973 . S
O44 C43 1.550 . S
O44 C50 1.412 . S
H45 C43 0.973 . S
C46 H39 0.929 . S
C46 C47 1.400 . S
C46 C48 1.364 . S
C47 C46 1.400 . S
C47 C51 1.377 . S
C48 C46 1.364 . S
C48 C49 1.374 . S
C49 H40 0.930 . S
C49 C48 1.374 . S
C49 C50 1.383 . S
C50 O44 1.412 . S
C50 C49 1.383 . S
C50 C51 1.394 . S
C51 H41 0.929 . S
C51 C47 1.377 . S
C51 C50 1.394 . S
H52 C59 0.929 . S
H53 C62 0.930 . S
H54 C64 0.929 . S
H55 C56 0.969 . S
C56 H55 0.969 . S
C56 O57 1.550 . S
C56 H58 0.973 . S
O57 C56 1.550 . S
O57 C63 1.412 . S
H58 C56 0.973 . S
C59 H52 0.929 . S
C59 C60 1.400 . S
C59 C61 1.364 . S
C60 C59 1.400 . S
C60 C64 1.377 . S
C61 C59 1.364 . S
C61 C62 1.374 . S
C62 H53 0.930 . S
C62 C61 1.374 . S
C62 C63 1.383 . S
C63 O57 1.412 . S
C63 C62 1.383 . S
C63 C64 1.394 . S
C64 H54 0.929 . S
C64 C60 1.377 . S
C64 C63 1.394 . S
H65 C72 0.929 . S
H66 C75 0.930 . S
H67 C77 0.929 . S
H68 C69 0.969 . S
C69 H68 0.969 . S
C69 O70 1.550 . S
C69 H71 0.973 . S
O70 C69 1.550 . S
O70 C76 1.412 . S
H71 C69 0.973 . S
C72 H65 0.929 . S
C72 C73 1.400 . S
C72 C74 1.364 . S
C73 C72 1.400 . S
C73 C77 1.377 . S
C74 C72 1.364 . S
C74 C75 1.374 . S
C75 H66 0.930 . S
C75 C74 1.374 . S
C75 C76 1.383 . S
C76 O70 1.412 . S
C76 C75 1.383 . S
C76 C77 1.394 . S
C77 H67 0.929 . S
C77 C73 1.377 . S
C77 C76 1.394 . S
H78 C85 0.929 . S
H79 C88 0.930 . S
H80 C90 0.929 . S
H81 C82 0.969 . S
C82 H81 0.969 . S
C82 O83 1.550 . S
C82 H84 0.973 . S
O83 C82 1.550 . S
O83 C89 1.412 . S
H84 C82 0.973 . S
C85 H78 0.929 . S
C85 C86 1.400 . S
C85 C87 1.364 . S
C86 C85 1.400 . S
C86 C90 1.377 . S
C87 C85 1.364 . S
C87 C88 1.374 . S
C88 H79 0.930 . S
C88 C87 1.374 . S
C88 C89 1.383 . S
C89 O83 1.412 . S
C89 C88 1.383 . S
C89 C90 1.394 . S
C90 H80 0.929 . S
C90 C86 1.377 . S
C90 C89 1.394 . S
H91 C98 0.929 . S
H92 C101 0.930 . S
H93 C103 0.929 . S
H94 C95 0.969 . S
C95 H94 0.969 . S
C95 O96 1.550 . S
C95 H97 0.973 . S
O96 C95 1.550 . S
O96 C102 1.412 . S
H97 C95 0.973 . S
C98 H91 0.929 . S
C98 C99 1.400 . S
C98 C100 1.364 . S
C99 C98 1.400 . S
C99 C103 1.377 . S
C100 C98 1.364 . S
C100 C101 1.374 . S
C101 H92 0.930 . S
C101 C100 1.374 . S
C101 C102 1.383 . S
C102 O96 1.412 . S
C102 C101 1.383 . S
C102 C103 1.394 . S
C103 H93 0.929 . S
C103 C99 1.377 . S
C103 C102 1.394 . S
H104 C111 0.929 . S
H105 C114 0.930 . S
H106 C116 0.929 . S
H107 C108 0.969 . S
C108 H107 0.969 . S
C108 O109 1.550 . S
C108 H110 0.973 . S
O109 C108 1.550 . S
O109 C115 1.412 . S
H110 C108 0.973 . S
C111 H104 0.929 . S
C111 C112 1.400 . S
C111 C113 1.364 . S
C112 C111 1.400 . S
C112 C116 1.377 . S
C113 C111 1.364 . S
C113 C114 1.374 . S
C114 H105 0.930 . S
C114 C113 1.374 . S
C114 C115 1.383 . S
C115 O109 1.412 . S
C115 C114 1.383 . S
C115 C116 1.394 . S
C116 H106 0.929 . S
C116 C112 1.377 . S
C116 C115 1.394 . S
H117 C124 0.929 . S
H118 C127 0.930 . S
H119 C129 0.929 . S
H120 C121 0.969 . S
C121 H120 0.969 . S
C121 O122 1.550 . S
C121 H123 0.973 . S
O122 C121 1.550 . S
O122 C128 1.412 . S
H123 C121 0.973 . S
C124 H117 0.929 . S
C124 C125 1.400 . S
C124 C126 1.364 . S
C125 C124 1.400 . S
C125 C129 1.377 . S
C126 C124 1.364 . S
C126 C127 1.374 . S
C127 H118 0.930 . S
C127 C126 1.374 . S
C127 C128 1.383 . S
C128 O122 1.412 . S
C128 C127 1.383 . S
C128 C129 1.394 . S
C129 H119 0.929 . S
C129 C125 1.377 . S
C129 C128 1.394 . S
H130 C137 0.929 . S
H131 C140 0.930 . S
H132 C142 0.929 . S
H133 C134 0.969 . S
C134 H133 0.969 . S
C134 O135 1.550 . S
C134 H136 0.973 . S
O135 C134 1.550 . S
O135 C141 1.412 . S
H136 C134 0.973 . S
C137 H130 0.929 . S
C137 C138 1.400 . S
C137 C139 1.364 . S
C138 C137 1.400 . S
C138 C142 1.377 . S
C139 C137 1.364 . S
C139 C140 1.374 . S
C140 H131 0.930 . S
C140 C139 1.374 . S
C140 C141 1.383 . S
C141 O135 1.412 . S
C141 C140 1.383 . S
C141 C142 1.394 . S
C142 H132 0.929 . S
C142 C138 1.377 . S
C142 C141 1.394 . S
H143 C150 0.929 . S
H144 C153 0.930 . S
H145 C155 0.929 . S
H146 C147 0.969 . S
C147 H146 0.969 . S
C147 O148 1.550 . S
C147 H149 0.973 . S
O148 C147 1.550 . S
O148 C154 1.412 . S
H149 C147 0.973 . S
C150 H143 0.929 . S
C150 C151 1.400 . S
C150 C152 1.364 . S
C151 C150 1.400 . S
C151 C155 1.377 . S
C152 C150 1.364 . S
C152 C153 1.374 . S
C153 H144 0.930 . S
C153 C152 1.374 . S
C153 C154 1.383 . S
C154 O148 1.412 . S
C154 C153 1.383 . S
C154 C155 1.394 . S
C155 H145 0.929 . S
C155 C151 1.377 . S
C155 C154 1.394 . S
H156 C163 0.929 . S
H157 C166 0.930 . S
H158 C168 0.929 . S
H159 C160 0.969 . S
C160 H159 0.969 . S
C160 O161 1.550 . S
C160 H162 0.973 . S
O161 C160 1.550 . S
O161 C167 1.412 . S
H162 C160 0.973 . S
C163 H156 0.929 . S
C163 C164 1.400 . S
C163 C165 1.364 . S
C164 C163 1.400 . S
C164 C168 1.377 . S
C165 C163 1.364 . S
C165 C166 1.374 . S
C166 H157 0.930 . S
C166 C165 1.374 . S
C166 C167 1.383 . S
C167 O161 1.412 . S
C167 C166 1.383 . S
C167 C168 1.394 . S
C168 H158 0.929 . S
C168 C164 1.377 . S
C168 C167 1.394 . S
H169 C176 0.929 . S
H170 C179 0.930 . S
H171 C181 0.929 . S
H172 C173 0.969 . S
C173 H172 0.969 . S
C173 O174 1.550 . S
C173 H175 0.973 . S
O174 C173 1.550 . S
O174 C180 1.412 . S
H175 C173 0.973 . S
C176 H169 0.929 . S
C176 C177 1.400 . S
C176 C178 1.364 . S
C177 C176 1.400 . S
C177 C181 1.377 . S
C178 C176 1.364 . S
C178 C179 1.374 . S
C179 H170 0.930 . S
C179 C178 1.374 . S
C179 C180 1.383 . S
C180 O174 1.412 . S
C180 C179 1.383 . S
C180 C181 1.394 . S
C181 H171 0.929 . S
C181 C177 1.377 . S
C181 C180 1.394 . S
H182 C189 0.929 . S
H183 C192 0.930 . S
H184 C194 0.929 . S
H185 C186 0.969 . S
C186 H185 0.969 . S
C186 O187 1.550 . S
C186 H188 0.973 . S
O187 C186 1.550 . S
O187 C193 1.412 . S
H188 C186 0.973 . S
C189 H182 0.929 . S
C189 C190 1.400 . S
C189 C191 1.364 . S
C190 C189 1.400 . S
C190 C194 1.377 . S
C191 C189 1.364 . S
C191 C192 1.374 . S
C192 H183 0.930 . S
C192 C191 1.374 . S
C192 C193 1.383 . S
C193 O187 1.412 . S
C193 C192 1.383 . S
C193 C194 1.394 . S
C194 H184 0.929 . S
C194 C190 1.377 . S
C194 C193 1.394 . S
H195 C202 0.929 . S
H196 C205 0.930 . S
H197 C207 0.929 . S
H198 C199 0.969 . S
C199 H198 0.969 . S
C199 O200 1.550 . S
C199 H201 0.973 . S
O200 C199 1.550 . S
O200 C206 1.412 . S
H201 C199 0.973 . S
C202 H195 0.929 . S
C202 C203 1.400 . S
C202 C204 1.364 . S
C203 C202 1.400 . S
C203 C207 1.377 . S
C204 C202 1.364 . S
C204 C205 1.374 . S
C205 H196 0.930 . S
C205 C204 1.374 . S
C205 C206 1.383 . S
C206 O200 1.412 . S
C206 C205 1.383 . S
C206 C207 1.394 . S
C207 H197 0.929 . S
C207 C203 1.377 . S
C207 C206 1.394 . S
H208 C215 0.929 . S
H209 C218 0.930 . S
H210 C220 0.929 . S
H211 C212 0.969 . S
C212 H211 0.969 . S
C212 O213 1.550 . S
C212 H214 0.973 . S
O213 C212 1.550 . S
O213 C219 1.412 . S
H214 C212 0.973 . S
C215 H208 0.929 . S
C215 C216 1.400 . S
C215 C217 1.364 . S
C216 C215 1.400 . S
C216 C220 1.377 . S
C217 C215 1.364 . S
C217 C218 1.374 . S
C218 H209 0.930 . S
C218 C217 1.374 . S
C218 C219 1.383 . S
C219 O213 1.412 . S
C219 C218 1.383 . S
C219 C220 1.394 . S
C220 H210 0.929 . S
C220 C216 1.377 . S
C220 C219 1.394 . S
H221 C228 0.929 . S
H222 C231 0.930 . S
H223 C233 0.929 . S
H224 C225 0.969 . S
C225 H224 0.969 . S
C225 O226 1.550 . S
C225 H227 0.973 . S
O226 C225 1.550 . S
O226 C232 1.412 . S
H227 C225 0.973 . S
C228 H221 0.929 . S
C228 C229 1.400 . S
C228 C230 1.364 . S
C229 C228 1.400 . S
C229 C233 1.377 . S
C230 C228 1.364 . S
C230 C231 1.374 . S
C231 H222 0.930 . S
C231 C230 1.374 . S
C231 C232 1.383 . S
C232 O226 1.412 . S
C232 C231 1.383 . S
C232 C233 1.394 . S
C233 H223 0.929 . S
C233 C229 1.377 . S
C233 C232 1.394 . S
Eu234 N265 2.657 . S
Eu234 N272 2.609 . S
Eu234 O278 2.558 . S
Eu234 O279 2.612 1_566 S
Eu234 O281 2.339 1_565 S
Eu234 O282 2.563 1_565 S
Eu234 O283 2.419 1_565 S
Eu234 O285 2.380 1_556 S
Eu234 O286 2.432 1_556 S
Eu234 C298 2.848 1_565 S
C235 C238 1.429 . S
C235 C239 1.411 . S
C235 N242 1.377 . S
C236 C238 1.420 . S
C236 C240 1.423 . S
C236 C248 1.392 . S
C237 C239 1.420 . S
C237 C240 1.351 . S
C237 H260 0.931 . S
C238 C235 1.429 . S
C238 C236 1.420 . S
C238 N246 1.362 . S
C239 C235 1.411 . S
C239 C237 1.420 . S
C239 C244 1.395 . S
C240 C236 1.423 . S
C240 C237 1.351 . S
C240 H252 0.930 . S
C241 C243 1.400 . S
C241 C244 1.386 . S
C241 H253 0.930 . S
N242 C235 1.377 . S
N242 C243 1.321 . S
N242 Eu245 2.609 . S
C243 C241 1.400 . S
C243 N242 1.321 . S
C243 H250 0.930 . S
C244 C239 1.395 . S
C244 C241 1.386 . S
C244 H263 0.930 . S
Eu245 N242 2.609 . S
Eu245 N246 2.657 . S
Eu245 O279 2.380 . S
Eu245 O280 2.432 . S
Eu245 O284 2.558 . S
Eu245 O285 2.612 1_545 S
Eu245 O287 2.339 1_545 S
Eu245 O288 2.563 1_545 S
Eu245 O289 2.419 1_545 S
Eu245 C309 2.848 . S
N246 C238 1.362 . S
N246 Eu245 2.657 . S
N246 C247 1.334 . S
C247 N246 1.334 . S
C247 C249 1.413 . S
C247 H254 0.929 . S
C248 C236 1.392 . S
C248 C249 1.367 . S
C248 H256 0.930 . S
C249 C247 1.413 . S
C249 C248 1.367 . S
C249 H251 0.930 . S
H250 C243 0.930 . S
H251 C249 0.930 . S
H252 C240 0.930 . S
H253 C241 0.930 . S
H254 C247 0.929 . S
H255 C269 0.930 . S
H256 C248 0.930 . S
H257 C275 0.930 . S
H258 C266 0.920 1_545 S
H259 C273 0.930 . S
H260 C237 0.931 . S
H261 C267 0.930 . S
H262 C300 0.930 . S
H263 C244 0.930 . S
H264 C299 0.931 . S
N265 Eu234 2.657 . S
N265 C266 1.334 . S
N265 C270 1.362 . S
C266 H258 0.920 1_565 S
C266 N265 1.334 . S
C266 C269 1.413 . S
C267 H261 0.930 . S
C267 C268 1.392 . S
C267 C269 1.367 . S
C268 C267 1.392 . S
C268 C270 1.420 . S
C268 C300 1.423 . S
C269 H255 0.930 . S
C269 C266 1.413 . S
C269 C267 1.367 . S
C270 N265 1.362 . S
C270 C268 1.420 . S
C270 C274 1.429 . S
H271 C276 0.930 . S
N272 Eu234 2.609 . S
N272 C274 1.377 . S
N272 C275 1.321 . S
C273 H259 0.930 . S
C273 C275 1.400 . S
C273 C276 1.386 . S
C274 C270 1.429 . S
C274 N272 1.377 . S
C274 C277 1.411 . S
C275 H257 0.930 . S
C275 N272 1.321 . S
C275 C273 1.400 . S
C276 H271 0.930 . S
C276 C273 1.386 . S
C276 C277 1.395 . S
C277 C274 1.411 . S
C277 C276 1.395 . S
C277 C299 1.420 . S
O278 Eu234 2.558 . S
O278 C298 1.257 1_565 S
O279 Eu234 2.612 1_544 S
O279 Eu245 2.380 . S
O279 C290 1.276 1_554 S
O280 Eu245 2.432 . S
O280 C297 1.264 . S
O281 Eu234 2.339 1_545 S
O281 C297 1.254 1_556 S
O282 Eu234 2.563 1_545 S
O282 C290 1.235 . S
O283 Eu234 2.419 1_545 S
O283 C298 1.249 . S
O284 Eu245 2.558 . S
O284 C309 1.257 . S
O285 Eu234 2.380 1_554 S
O285 Eu245 2.612 1_565 S
O285 C301 1.276 . S
O286 Eu234 2.432 1_554 S
O286 C308 1.264 . S
O287 Eu245 2.339 1_565 S
O287 C308 1.254 . S
O288 Eu245 2.563 1_565 S
O288 C301 1.235 . S
O289 Eu245 2.419 1_565 S
O289 C309 1.249 1_565 S
C290 O279 1.276 1_556 S
C290 O282 1.235 . S
C291 C293 1.393 . S
C291 C295 1.395 1_545 S
C291 C298 1.492 . S
C292 C293 1.392 . S
C292 C294 1.386 . S
C293 C291 1.393 . S
C293 C292 1.392 . S
C293 H310 0.930 . S
C294 C292 1.386 . S
C294 C296 1.370 1_545 S
C294 H311 0.930 . S
C295 C291 1.395 1_565 S
C295 C296 1.383 . S
C295 H312 0.930 . S
C296 C294 1.370 1_565 S
C296 C295 1.383 . S
C296 H313 0.950 . S
C297 O280 1.264 . S
C297 O281 1.254 1_554 S
C298 Eu234 2.848 1_545 S
C298 O278 1.257 1_545 S
C298 O283 1.249 . S
C298 C291 1.492 . S
C299 H264 0.931 . S
C299 C277 1.420 . S
C299 C300 1.351 . S
C300 H262 0.930 . S
C300 C268 1.423 . S
C300 C299 1.351 . S
C301 O285 1.276 . S
C301 O288 1.235 . S
C302 C303 1.375 1_545 S
C302 C306 1.410 . S
C302 C309 1.495 . S
C303 C302 1.375 1_565 S
C303 C304 1.392 . S
C303 H314 0.930 . S
C304 C303 1.392 . S
C304 C305 1.386 . S
C305 C304 1.386 . S
C305 C307 1.395 1_565 S
C305 H315 0.930 . S
C306 C302 1.410 . S
C306 C307 1.379 . S
C306 H316 0.930 . S
C307 C305 1.395 1_545 S
C307 C306 1.379 . S
C307 H317 0.930 . S
C308 O286 1.264 . S
C308 O287 1.254 . S
C309 Eu245 2.848 . S
C309 O284 1.257 . S
C309 O289 1.249 1_545 S
C309 C302 1.495 . S
H310 C293 0.930 . S
H311 C294 0.930 . S
H312 C295 0.930 . S
H313 C296 0.950 . S
H314 C303 0.930 . S
H315 C305 0.930 . S
H316 C306 0.930 . S
H317 C307 0.930 . S
Eu318 N349 2.657 . S
Eu318 N356 2.609 . S
Eu318 O362 2.558 . S
Eu318 O363 2.612 1_456 S
Eu318 O365 2.339 1_455 S
Eu318 O366 2.563 1_455 S
Eu318 O367 2.423 . S
Eu318 O369 2.380 1_556 S
Eu318 O370 2.432 1_556 S
Eu318 C382 2.848 . S
C319 C322 1.429 . S
C319 C323 1.411 . S
C319 N326 1.377 . S
C320 C322 1.420 . S
C320 C324 1.423 . S
C320 C332 1.392 . S
C321 C323 1.420 . S
C321 C324 1.351 . S
C321 H344 0.931 . S
C322 C319 1.429 . S
C322 C320 1.420 . S
C322 N330 1.362 . S
C323 C319 1.411 . S
C323 C321 1.420 . S
C323 C328 1.395 . S
C324 C320 1.423 . S
C324 C321 1.351 . S
C324 H336 0.930 . S
C325 C327 1.400 . S
C325 C328 1.386 . S
C325 H337 0.930 . S
N326 C319 1.377 . S
N326 C327 1.321 . S
N326 Eu329 2.609 . S
C327 C325 1.400 . S
C327 N326 1.321 . S
C327 H334 0.930 . S
C328 C323 1.395 . S
C328 C325 1.386 . S
C328 H347 0.930 . S
Eu329 N326 2.609 . S
Eu329 N330 2.657 . S
Eu329 O363 2.380 . S
Eu329 O364 2.432 . S
Eu329 O368 2.558 . S
Eu329 O369 2.612 1_655 S
Eu329 O371 2.339 1_655 S
Eu329 O372 2.563 1_655 S
Eu329 O373 2.419 1_655 S
Eu329 C393 2.848 1_655 S
N330 C322 1.362 . S
N330 Eu329 2.657 . S
N330 C331 1.334 . S
C331 N330 1.334 . S
C331 C333 1.413 . S
C331 H338 0.910 1_655 S
C332 C320 1.392 . S
C332 C333 1.367 . S
C332 H340 0.930 . S
C333 C331 1.413 . S
C333 C332 1.367 . S
C333 H335 0.930 . S
H334 C327 0.930 . S
H335 C333 0.930 . S
H336 C324 0.930 . S
H337 C325 0.930 . S
H338 C331 0.910 1_455 S
H339 C353 0.930 . S
H340 C332 0.930 . S
H341 C359 0.930 . S
H342 C350 0.929 . S
H343 C357 0.930 . S
H344 C321 0.931 . S
H345 C351 0.930 . S
H346 C384 0.930 . S
H347 C328 0.930 . S
H348 C383 0.931 . S
N349 Eu318 2.657 . S
N349 C350 1.334 . S
N349 C354 1.362 . S
C350 H342 0.929 . S
C350 N349 1.334 . S
C350 C353 1.413 . S
C351 H345 0.930 . S
C351 C352 1.392 . S
C351 C353 1.367 . S
C352 C351 1.392 . S
C352 C354 1.420 . S
C352 C384 1.423 . S
C353 H339 0.930 . S
C353 C350 1.413 . S
C353 C351 1.367 . S
C354 N349 1.362 . S
C354 C352 1.420 . S
C354 C358 1.429 . S
H355 C360 0.930 . S
N356 Eu318 2.609 . S
N356 C358 1.377 . S
N356 C359 1.321 . S
C357 H343 0.930 . S
C357 C359 1.400 . S
C357 C360 1.386 . S
C358 C354 1.429 . S
C358 N356 1.377 . S
C358 C361 1.411 . S
C359 H341 0.930 . S
C359 N356 1.321 . S
C359 C357 1.400 . S
C360 H355 0.930 . S
C360 C357 1.386 . S
C360 C361 1.395 . S
C361 C358 1.411 . S
C361 C360 1.395 . S
C361 C383 1.420 . S
O362 Eu318 2.558 . S
O362 C382 1.257 . S
O363 Eu318 2.612 1_654 S
O363 Eu329 2.380 . S
O363 C374 1.276 1_554 S
O364 Eu329 2.432 . S
O364 C381 1.264 . S
O365 Eu318 2.339 1_655 S
O365 C381 1.254 1_556 S
O366 Eu318 2.563 1_655 S
O366 C374 1.235 . S
O367 Eu318 2.423 . S
O367 C382 1.248 . S
O368 Eu329 2.558 . S
O368 C393 1.257 1_655 S
O369 Eu318 2.380 1_554 S
O369 Eu329 2.612 1_455 S
O369 C385 1.276 . S
O370 Eu318 2.432 1_554 S
O370 C392 1.264 . S
O371 Eu329 2.339 1_455 S
O371 C392 1.254 . S
O372 Eu329 2.563 1_455 S
O372 C385 1.235 . S
O373 Eu329 2.419 1_455 S
O373 C393 1.249 . S
C374 O363 1.276 1_556 S
C374 O366 1.235 . S
C375 C377 1.393 1_455 S
C375 C379 1.395 . S
C375 C382 1.492 . S
C376 C377 1.392 . S
C376 C378 1.386 . S
C377 C375 1.393 1_655 S
C377 C376 1.392 . S
C377 H394 0.930 . S
C378 C376 1.386 . S
C378 C380 1.395 1_655 S
C378 H395 0.930 . S
C379 C375 1.395 . S
C379 C380 1.379 . S
C379 H396 0.930 . S
C380 C378 1.395 1_455 S
C380 C379 1.379 . S
C380 H397 0.930 . S
C381 O364 1.264 . S
C381 O365 1.254 1_554 S
C382 Eu318 2.848 . S
C382 O362 1.257 . S
C382 O367 1.248 . S
C382 C375 1.492 . S
C383 H348 0.931 . S
C383 C361 1.420 . S
C383 C384 1.351 . S
C384 H346 0.930 . S
C384 C352 1.423 . S
C384 C383 1.351 . S
C385 O369 1.276 . S
C385 O372 1.235 . S
C386 C387 1.393 . S
C386 C390 1.395 1_455 S
C386 C393 1.492 . S
C387 C386 1.393 . S
C387 C388 1.392 . S
C387 H398 0.930 . S
C388 C387 1.392 . S
C388 C389 1.386 . S
C389 C388 1.386 . S
C389 C391 1.395 1_455 S
C389 H399 0.930 . S
C390 C386 1.395 1_655 S
C390 C391 1.379 . S
C390 H400 0.930 . S
C391 C389 1.395 1_655 S
C391 C390 1.379 . S
C391 H401 0.930 . S
C392 O370 1.264 . S
C392 O371 1.254 . S
C393 Eu329 2.848 1_455 S
C393 O368 1.257 1_455 S
C393 O373 1.249 . S
C393 C386 1.492 . S
H394 C377 0.930 . S
H395 C378 0.930 . S
H396 C379 0.930 . S
H397 C380 0.930 . S
H398 C387 0.930 . S
H399 C389 0.930 . S
H400 C390 0.930 . S
H401 C391 0.930 . S
Eu402 N433 2.657 . S
Eu402 N440 2.609 . S
Eu402 O446 2.558 . S
Eu402 O447 2.612 . S
Eu402 O449 2.339 . S
Eu402 O450 2.563 . S
Eu402 O451 2.419 . S
Eu402 O453 2.380 . S
Eu402 O454 2.432 . S
Eu402 C466 2.848 . S
C403 C406 1.429 . S
C403 C407 1.411 . S
C403 N410 1.377 . S
C404 C406 1.420 . S
C404 C408 1.423 . S
C404 C416 1.392 . S
C405 C407 1.420 . S
C405 C408 1.351 . S
C405 H428 0.931 . S
C406 C403 1.429 . S
C406 C404 1.420 . S
C406 N414 1.362 . S
C407 C403 1.411 . S
C407 C405 1.420 . S
C407 C412 1.395 . S
C408 C404 1.423 . S
C408 C405 1.351 . S
C408 H420 0.930 . S
C409 C411 1.400 . S
C409 C412 1.386 . S
C409 H421 0.930 . S
N410 C403 1.377 . S
N410 C411 1.321 . S
N410 Eu413 2.609 . S
C411 C409 1.400 . S
C411 N410 1.321 . S
C411 H418 0.930 . S
C412 C407 1.395 . S
C412 C409 1.386 . S
C412 H431 0.930 . S
Eu413 N410 2.609 . S
Eu413 N414 2.657 . S
Eu413 O447 2.380 1_556 S
Eu413 O448 2.432 1_556 S
Eu413 O452 2.558 . S
Eu413 O453 2.612 1_556 S
Eu413 O455 2.339 . S
Eu413 O456 2.563 . S
Eu413 O457 2.419 . S
Eu413 C477 2.848 . S
N414 C406 1.362 . S
N414 Eu413 2.657 . S
N414 C415 1.334 . S
C415 N414 1.334 . S
C415 C417 1.413 . S
C415 H422 0.929 . S
C416 C404 1.392 . S
C416 C417 1.367 . S
C416 H424 0.930 . S
C417 C415 1.413 . S
C417 C416 1.367 . S
C417 H419 0.930 . S
H418 C411 0.930 . S
H419 C417 0.930 . S
H420 C408 0.930 . S
H421 C409 0.930 . S
H422 C415 0.929 . S
H423 C437 0.930 . S
H424 C416 0.930 . S
H425 C443 0.930 . S
H426 C434 0.929 . S
H427 C441 0.930 . S
H428 C405 0.931 . S
H429 C435 0.930 . S
H430 C468 0.930 . S
H431 C412 0.930 . S
H432 C467 0.931 . S
N433 Eu402 2.657 . S
N433 C434 1.334 . S
N433 C438 1.362 . S
C434 H426 0.929 . S
C434 N433 1.334 . S
C434 C437 1.413 . S
C435 H429 0.930 . S
C435 C436 1.392 . S
C435 C437 1.367 . S
C436 C435 1.392 . S
C436 C438 1.420 . S
C436 C468 1.423 . S
C437 H423 0.930 . S
C437 C434 1.413 . S
C437 C435 1.367 . S
C438 N433 1.362 . S
C438 C436 1.420 . S
C438 C442 1.429 . S
H439 C444 0.930 . S
N440 Eu402 2.609 . S
N440 C442 1.377 . S
N440 C443 1.321 . S
C441 H427 0.930 . S
C441 C443 1.400 . S
C441 C444 1.386 . S
C442 C438 1.429 . S
C442 N440 1.377 . S
C442 C445 1.411 . S
C443 H425 0.930 . S
C443 N440 1.321 . S
C443 C441 1.400 . S
C444 H439 0.930 . S
C444 C441 1.386 . S
C444 C445 1.395 . S
C445 C442 1.411 . S
C445 C444 1.395 . S
C445 C467 1.420 . S
O446 Eu402 2.558 . S
O446 C466 1.257 . S
O447 Eu402 2.612 . S
O447 Eu413 2.380 1_554 S
O447 C458 1.276 . S
O448 Eu413 2.432 1_554 S
O448 C465 1.264 . S
O449 Eu402 2.339 . S
O449 C465 1.254 . S
O450 Eu402 2.563 . S
O450 C458 1.235 . S
O451 Eu402 2.419 . S
O451 C466 1.249 . S
O452 Eu413 2.558 . S
O452 C477 1.257 . S
O453 Eu402 2.380 . S
O453 Eu413 2.612 1_554 S
O453 C469 1.276 1_554 S
O454 Eu402 2.432 . S
O454 C476 1.264 . S
O455 Eu413 2.339 . S
O455 C476 1.254 1_556 S
O456 Eu413 2.563 . S
O456 C469 1.235 . S
O457 Eu413 2.419 . S
O457 C477 1.249 . S
C458 O447 1.276 . S
C458 O450 1.235 . S
C459 C461 1.393 . S
C459 C463 1.395 . S
C459 C466 1.492 . S
C460 C461 1.392 . S
C460 C462 1.386 . S
C461 C459 1.393 . S
C461 C460 1.392 . S
C461 H478 0.930 . S
C462 C460 1.386 . S
C462 C464 1.395 . S
C462 H479 0.930 . S
C463 C459 1.395 . S
C463 C464 1.379 . S
C463 H480 0.930 . S
C464 C462 1.395 . S
C464 C463 1.379 . S
C464 H481 0.930 . S
C465 O448 1.264 . S
C465 O449 1.254 . S
C466 Eu402 2.848 . S
C466 O446 1.257 . S
C466 O451 1.249 . S
C466 C459 1.492 . S
C467 H432 0.931 . S
C467 C445 1.420 . S
C467 C468 1.351 . S
C468 H430 0.930 . S
C468 C436 1.423 . S
C468 C467 1.351 . S
C469 O453 1.276 1_556 S
C469 O456 1.235 . S
C470 C471 1.393 . S
C470 C474 1.395 . S
C470 C477 1.492 . S
C471 C470 1.393 . S
C471 C472 1.392 . S
C471 H482 0.930 . S
C472 C471 1.392 . S
C472 C473 1.386 . S
C473 C472 1.386 . S
C473 C475 1.395 . S
C473 H483 0.930 . S
C474 C470 1.395 . S
C474 C475 1.379 . S
C474 H484 0.930 . S
C475 C473 1.395 . S
C475 C474 1.379 . S
C475 H485 0.930 . S
C476 O454 1.264 . S
C476 O455 1.254 1_554 S
C477 Eu413 2.848 . S
C477 O452 1.257 . S
C477 O457 1.249 . S
C477 C470 1.492 . S
H478 C461 0.930 . S
H479 C462 0.930 . S
H480 C463 0.930 . S
H481 C464 0.930 . S
H482 C471 0.930 . S
H483 C473 0.930 . S
H484 C474 0.930 . S
H485 C475 0.930 . S
Eu486 N517 2.657 . S
Eu486 N524 2.609 . S
Eu486 O530 2.558 . S
Eu486 O531 2.612 . S
Eu486 O533 2.339 . S
Eu486 O534 2.563 . S
Eu486 O535 2.419 . S
Eu486 O537 2.380 . S
Eu486 O538 2.432 . S
Eu486 C550 2.848 . S
C487 C490 1.429 . S
C487 C491 1.411 . S
C487 N494 1.377 . S
C488 C490 1.420 . S
C488 C492 1.423 . S
C488 C500 1.392 . S
C489 C491 1.420 . S
C489 C492 1.351 . S
C489 H512 0.931 . S
C490 C487 1.429 . S
C490 C488 1.420 . S
C490 N498 1.362 . S
C491 C487 1.411 . S
C491 C489 1.420 . S
C491 C496 1.395 . S
C492 C488 1.423 . S
C492 C489 1.351 . S
C492 H504 0.930 . S
C493 C495 1.400 . S
C493 C496 1.386 . S
C493 H505 0.930 . S
N494 C487 1.377 . S
N494 C495 1.321 . S
N494 Eu497 2.609 . S
C495 C493 1.400 . S
C495 N494 1.321 . S
C495 H502 0.930 . S
C496 C491 1.395 . S
C496 C493 1.386 . S
C496 H515 0.930 . S
Eu497 N494 2.609 . S
Eu497 N498 2.657 . S
Eu497 O531 2.380 . S
Eu497 O532 2.432 . S
Eu497 O536 2.558 . S
Eu497 O537 2.612 . S
Eu497 O539 2.339 . S
Eu497 O540 2.563 . S
Eu497 O541 2.419 . S
Eu497 C561 2.848 . S
N498 C490 1.362 . S
N498 Eu497 2.657 . S
N498 C499 1.334 . S
C499 N498 1.334 . S
C499 C501 1.413 . S
C499 H506 0.929 . S
C500 C488 1.392 . S
C500 C501 1.367 . S
C500 H508 0.930 . S
C501 C499 1.413 . S
C501 C500 1.367 . S
C501 H503 0.930 . S
H502 C495 0.930 . S
H503 C501 0.930 . S
H504 C492 0.930 . S
H505 C493 0.930 . S
H506 C499 0.929 . S
H507 C521 0.930 . S
H508 C500 0.930 . S
H509 C527 0.930 . S
H510 C518 0.929 . S
H511 C525 0.930 . S
H512 C489 0.931 . S
H513 C519 0.930 . S
H514 C552 0.930 . S
H515 C496 0.930 . S
H516 C551 0.931 . S
N517 Eu486 2.657 . S
N517 C518 1.334 . S
N517 C522 1.362 . S
C518 H510 0.929 . S
C518 N517 1.334 . S
C518 C521 1.413 . S
C519 H513 0.930 . S
C519 C520 1.392 . S
C519 C521 1.367 . S
C520 C519 1.392 . S
C520 C522 1.420 . S
C520 C552 1.423 . S
C521 H507 0.930 . S
C521 C518 1.413 . S
C521 C519 1.367 . S
C522 N517 1.362 . S
C522 C520 1.420 . S
C522 C526 1.429 . S
H523 C528 0.930 . S
N524 Eu486 2.609 . S
N524 C526 1.377 . S
N524 C527 1.321 . S
C525 H511 0.930 . S
C525 C527 1.400 . S
C525 C528 1.386 . S
C526 C522 1.429 . S
C526 N524 1.377 . S
C526 C529 1.411 . S
C527 H509 0.930 . S
C527 N524 1.321 . S
C527 C525 1.400 . S
C528 H523 0.930 . S
C528 C525 1.386 . S
C528 C529 1.395 . S
C529 C526 1.411 . S
C529 C528 1.395 . S
C529 C551 1.420 . S
O530 Eu486 2.558 . S
O530 C550 1.257 . S
O531 Eu486 2.612 . S
O531 Eu497 2.380 . S
O531 C542 1.276 . S
O532 Eu497 2.432 . S
O532 C549 1.264 . S
O533 Eu486 2.339 . S
O533 C549 1.254 . S
O534 Eu486 2.563 . S
O534 C542 1.235 . S
O535 Eu486 2.419 . S
O535 C550 1.249 . S
O536 Eu497 2.558 . S
O536 C561 1.257 . S
O537 Eu486 2.380 . S
O537 Eu497 2.612 . S
O537 C553 1.276 . S
O538 Eu486 2.432 . S
O538 C560 1.264 . S
O539 Eu497 2.339 . S
O539 C560 1.254 . S
O540 Eu497 2.563 . S
O540 C553 1.235 . S
O541 Eu497 2.419 . S
O541 C561 1.249 . S
C542 O531 1.276 . S
C542 O534 1.235 . S
C543 C545 1.393 . S
C543 C547 1.395 . S
C543 C550 1.492 . S
C544 C545 1.392 . S
C544 C546 1.386 . S
C545 C543 1.393 . S
C545 C544 1.392 . S
C545 H562 0.930 . S
C546 C544 1.386 . S
C546 C548 1.395 . S
C546 H563 0.930 . S
C547 C543 1.395 . S
C547 C548 1.379 . S
C547 H564 0.930 . S
C548 C546 1.395 . S
C548 C547 1.379 . S
C548 H565 0.930 . S
C549 O532 1.264 . S
C549 O533 1.254 . S
C550 Eu486 2.848 . S
C550 O530 1.257 . S
C550 O535 1.249 . S
C550 C543 1.492 . S
C551 H516 0.931 . S
C551 C529 1.420 . S
C551 C552 1.351 . S
C552 H514 0.930 . S
C552 C520 1.423 . S
C552 C551 1.351 . S
C553 O537 1.276 . S
C553 O540 1.235 . S
C554 C555 1.393 . S
C554 C558 1.395 . S
C554 C561 1.492 . S
C555 C554 1.393 . S
C555 C556 1.392 . S
C555 H566 0.930 . S
C556 C555 1.392 . S
C556 C557 1.386 . S
C557 C556 1.386 . S
C557 C559 1.395 . S
C557 H567 0.930 . S
C558 C554 1.395 . S
C558 C559 1.379 . S
C558 H568 0.930 . S
C559 C557 1.395 . S
C559 C558 1.379 . S
C559 H569 0.930 . S
C560 O538 1.264 . S
C560 O539 1.254 . S
C561 Eu497 2.848 . S
C561 O536 1.257 . S
C561 O541 1.249 . S
C561 C554 1.492 . S
H562 C545 0.930 . S
H563 C546 0.930 . S
H564 C547 0.930 . S
H565 C548 0.930 . S
H566 C555 0.930 . S
H567 C557 0.930 . S
H568 C558 0.930 . S
H569 C559 0.930 . S
Eu570 N601 2.657 . S
Eu570 N608 2.609 . S
Eu570 O614 2.558 . S
Eu570 O615 2.612 . S
Eu570 O617 2.339 . S
Eu570 O618 2.563 . S
Eu570 O619 2.419 . S
Eu570 O621 2.380 . S
Eu570 O622 2.432 . S
Eu570 C634 2.848 . S
C571 C574 1.429 . S
C571 C575 1.411 . S
C571 N578 1.377 . S
C572 C574 1.420 . S
C572 C576 1.423 . S
C572 C584 1.392 . S
C573 C575 1.420 . S
C573 C576 1.351 . S
C573 H596 0.931 . S
C574 C571 1.429 . S
C574 C572 1.420 . S
C574 N582 1.362 . S
C575 C571 1.411 . S
C575 C573 1.420 . S
C575 C580 1.395 . S
C576 C572 1.423 . S
C576 C573 1.351 . S
C576 H588 0.930 . S
C577 C579 1.400 . S
C577 C580 1.386 . S
C577 H589 0.930 . S
N578 C571 1.377 . S
N578 C579 1.321 . S
N578 Eu581 2.609 . S
C579 C577 1.400 . S
C579 N578 1.321 . S
C579 H586 0.930 . S
C580 C575 1.395 . S
C580 C577 1.386 . S
C580 H599 0.930 . S
Eu581 N578 2.609 . S
Eu581 N582 2.657 . S
Eu581 O615 2.380 . S
Eu581 O616 2.432 . S
Eu581 O620 2.558 . S
Eu581 O621 2.612 . S
Eu581 O623 2.339 . S
Eu581 O624 2.563 . S
Eu581 O625 2.419 . S
Eu581 C645 2.848 . S
N582 C574 1.362 . S
N582 Eu581 2.657 . S
N582 C583 1.334 . S
C583 N582 1.334 . S
C583 C585 1.413 . S
C583 H590 0.929 . S
C584 C572 1.392 . S
C584 C585 1.367 . S
C584 H592 0.930 . S
C585 C583 1.413 . S
C585 C584 1.367 . S
C585 H587 0.930 . S
H586 C579 0.930 . S
H587 C585 0.930 . S
H588 C576 0.930 . S
H589 C577 0.930 . S
H590 C583 0.929 . S
H591 C605 0.930 . S
H592 C584 0.930 . S
H593 C611 0.930 . S
H594 C602 0.929 . S
H595 C609 0.930 . S
H596 C573 0.931 . S
H597 C603 0.930 . S
H598 C636 0.930 . S
H599 C580 0.930 . S
H600 C635 0.931 . S
N601 Eu570 2.657 . S
N601 C602 1.334 . S
N601 C606 1.362 . S
C602 H594 0.929 . S
C602 N601 1.334 . S
C602 C605 1.413 . S
C603 H597 0.930 . S
C603 C604 1.392 . S
C603 C605 1.367 . S
C604 C603 1.392 . S
C604 C606 1.420 . S
C604 C636 1.423 . S
C605 H591 0.930 . S
C605 C602 1.413 . S
C605 C603 1.367 . S
C606 N601 1.362 . S
C606 C604 1.420 . S
C606 C610 1.429 . S
H607 C612 0.930 . S
N608 Eu570 2.609 . S
N608 C610 1.377 . S
N608 C611 1.321 . S
C609 H595 0.930 . S
C609 C611 1.400 . S
C609 C612 1.386 . S
C610 C606 1.429 . S
C610 N608 1.377 . S
C610 C613 1.411 . S
C611 H593 0.930 . S
C611 N608 1.321 . S
C611 C609 1.400 . S
C612 H607 0.930 . S
C612 C609 1.386 . S
C612 C613 1.395 . S
C613 C610 1.411 . S
C613 C612 1.395 . S
C613 C635 1.420 . S
O614 Eu570 2.558 . S
O614 C634 1.257 . S
O615 Eu570 2.612 . S
O615 Eu581 2.380 . S
O615 C626 1.276 . S
O616 Eu581 2.432 . S
O616 C633 1.264 . S
O617 Eu570 2.339 . S
O617 C633 1.254 . S
O618 Eu570 2.563 . S
O618 C626 1.235 . S
O619 Eu570 2.419 . S
O619 C634 1.249 . S
O620 Eu581 2.558 . S
O620 C645 1.257 . S
O621 Eu570 2.380 . S
O621 Eu581 2.612 . S
O621 C637 1.276 . S
O622 Eu570 2.432 . S
O622 C644 1.264 . S
O623 Eu581 2.339 . S
O623 C644 1.254 . S
O624 Eu581 2.563 . S
O624 C637 1.235 . S
O625 Eu581 2.419 . S
O625 C645 1.249 . S
C626 O615 1.276 . S
C626 O618 1.235 . S
C627 C629 1.393 . S
C627 C631 1.395 . S
C627 C634 1.492 . S
C628 C629 1.392 . S
C628 C630 1.386 . S
C629 C627 1.393 . S
C629 C628 1.392 . S
C629 H646 0.930 . S
C630 C628 1.386 . S
C630 C632 1.395 . S
C630 H647 0.930 . S
C631 C627 1.395 . S
C631 C632 1.379 . S
C631 H648 0.930 . S
C632 C630 1.395 . S
C632 C631 1.379 . S
C632 H649 0.930 . S
C633 O616 1.264 . S
C633 O617 1.254 . S
C634 Eu570 2.848 . S
C634 O614 1.257 . S
C634 O619 1.249 . S
C634 C627 1.492 . S
C635 H600 0.931 . S
C635 C613 1.420 . S
C635 C636 1.351 . S
C636 H598 0.930 . S
C636 C604 1.423 . S
C636 C635 1.351 . S
C637 O621 1.276 . S
C637 O624 1.235 . S
C638 C639 1.393 . S
C638 C642 1.395 . S
C638 C645 1.492 . S
C639 C638 1.393 . S
C639 C640 1.392 . S
C639 H650 0.930 . S
C640 C639 1.392 . S
C640 C641 1.386 . S
C641 C640 1.386 . S
C641 C643 1.395 . S
C641 H651 0.930 . S
C642 C638 1.395 . S
C642 C643 1.379 . S
C642 H652 0.930 . S
C643 C641 1.395 . S
C643 C642 1.379 . S
C643 H653 0.930 . S
C644 O622 1.264 . S
C644 O623 1.254 . S
C645 Eu581 2.848 . S
C645 O620 1.257 . S
C645 O625 1.249 . S
C645 C638 1.492 . S
H646 C629 0.930 . S
H647 C630 0.930 . S
H648 C631 0.930 . S
H649 C632 0.930 . S
H650 C639 0.930 . S
H651 C641 0.930 . S
H652 C642 0.930 . S
H653 C643 0.930 . S
Eu654 N685 2.657 . S
Eu654 N692 2.609 . S
Eu654 O698 2.558 . S
Eu654 O699 2.612 . S
Eu654 O701 2.339 . S
Eu654 O702 2.563 . S
Eu654 O703 2.419 . S
Eu654 O705 2.380 . S
Eu654 O706 2.432 . S
Eu654 C718 2.848 . S
C655 C658 1.429 . S
C655 C659 1.411 . S
C655 N662 1.377 . S
C656 C658 1.420 . S
C656 C660 1.423 . S
C656 C668 1.392 . S
C657 C659 1.420 . S
C657 C660 1.351 . S
C657 H680 0.931 . S
C658 C655 1.429 . S
C658 C656 1.420 . S
C658 N666 1.362 . S
C659 C655 1.411 . S
C659 C657 1.420 . S
C659 C664 1.395 . S
C660 C656 1.423 . S
C660 C657 1.351 . S
C660 H672 0.930 . S
C661 C663 1.400 . S
C661 C664 1.386 . S
C661 H673 0.930 . S
N662 C655 1.377 . S
N662 C663 1.321 . S
N662 Eu665 2.609 . S
C663 C661 1.400 . S
C663 N662 1.321 . S
C663 H670 0.930 . S
C664 C659 1.395 . S
C664 C661 1.386 . S
C664 H683 0.930 . S
Eu665 N662 2.609 . S
Eu665 N666 2.657 . S
Eu665 O699 2.380 . S
Eu665 O700 2.432 . S
Eu665 O704 2.558 . S
Eu665 O705 2.612 . S
Eu665 O707 2.339 . S
Eu665 O708 2.563 . S
Eu665 O709 2.419 . S
Eu665 C729 2.848 . S
N666 C658 1.362 . S
N666 Eu665 2.657 . S
N666 C667 1.334 . S
C667 N666 1.334 . S
C667 C669 1.413 . S
C667 H674 0.929 . S
C668 C656 1.392 . S
C668 C669 1.367 . S
C668 H676 0.930 . S
C669 C667 1.413 . S
C669 C668 1.367 . S
C669 H671 0.930 . S
H670 C663 0.930 . S
H671 C669 0.930 . S
H672 C660 0.930 . S
H673 C661 0.930 . S
H674 C667 0.929 . S
H675 C689 0.930 . S
H676 C668 0.930 . S
H677 C695 0.930 . S
H678 C686 0.929 . S
H679 C693 0.930 . S
H680 C657 0.931 . S
H681 C687 0.930 . S
H682 C720 0.930 . S
H683 C664 0.930 . S
H684 C719 0.931 . S
N685 Eu654 2.657 . S
N685 C686 1.334 . S
N685 C690 1.362 . S
C686 H678 0.929 . S
C686 N685 1.334 . S
C686 C689 1.413 . S
C687 H681 0.930 . S
C687 C688 1.392 . S
C687 C689 1.367 . S
C688 C687 1.392 . S
C688 C690 1.420 . S
C688 C720 1.423 . S
C689 H675 0.930 . S
C689 C686 1.413 . S
C689 C687 1.367 . S
C690 N685 1.362 . S
C690 C688 1.420 . S
C690 C694 1.429 . S
H691 C696 0.930 . S
N692 Eu654 2.609 . S
N692 C694 1.377 . S
N692 C695 1.321 . S
C693 H679 0.930 . S
C693 C695 1.400 . S
C693 C696 1.386 . S
C694 C690 1.429 . S
C694 N692 1.377 . S
C694 C697 1.411 . S
C695 H677 0.930 . S
C695 N692 1.321 . S
C695 C693 1.400 . S
C696 H691 0.930 . S
C696 C693 1.386 . S
C696 C697 1.395 . S
C697 C694 1.411 . S
C697 C696 1.395 . S
C697 C719 1.420 . S
O698 Eu654 2.558 . S
O698 C718 1.257 . S
O699 Eu654 2.612 . S
O699 Eu665 2.380 . S
O699 C710 1.276 . S
O700 Eu665 2.432 . S
O700 C717 1.264 . S
O701 Eu654 2.339 . S
O701 C717 1.254 . S
O702 Eu654 2.563 . S
O702 C710 1.235 . S
O703 Eu654 2.419 . S
O703 C718 1.249 . S
O704 Eu665 2.558 . S
O704 C729 1.257 . S
O705 Eu654 2.380 . S
O705 Eu665 2.612 . S
O705 C721 1.276 . S
O706 Eu654 2.432 . S
O706 C728 1.264 . S
O707 Eu665 2.339 . S
O707 C728 1.254 . S
O708 Eu665 2.563 . S
O708 C721 1.235 . S
O709 Eu665 2.419 . S
O709 C729 1.249 . S
C710 O699 1.276 . S
C710 O702 1.235 . S
C711 C713 1.393 . S
C711 C715 1.395 . S
C711 C718 1.492 . S
C712 C713 1.392 . S
C712 C714 1.386 . S
C713 C711 1.393 . S
C713 C712 1.392 . S
C713 H730 0.930 . S
C714 C712 1.386 . S
C714 C716 1.395 . S
C714 H731 0.930 . S
C715 C711 1.395 . S
C715 C716 1.379 . S
C715 H732 0.930 . S
C716 C714 1.395 . S
C716 C715 1.379 . S
C716 H733 0.930 . S
C717 O700 1.264 . S
C717 O701 1.254 . S
C718 Eu654 2.848 . S
C718 O698 1.257 . S
C718 O703 1.249 . S
C718 C711 1.492 . S
C719 H684 0.931 . S
C719 C697 1.420 . S
C719 C720 1.351 . S
C720 H682 0.930 . S
C720 C688 1.423 . S
C720 C719 1.351 . S
C721 O705 1.276 . S
C721 O708 1.235 . S
C722 C723 1.393 . S
C722 C726 1.395 . S
C722 C729 1.492 . S
C723 C722 1.393 . S
C723 C724 1.392 . S
C723 H734 0.930 . S
C724 C723 1.392 . S
C724 C725 1.386 . S
C725 C724 1.386 . S
C725 C727 1.395 . S
C725 H735 0.930 . S
C726 C722 1.395 . S
C726 C727 1.379 . S
C726 H736 0.930 . S
C727 C725 1.395 . S
C727 C726 1.379 . S
C727 H737 0.930 . S
C728 O706 1.264 . S
C728 O707 1.254 . S
C729 Eu665 2.848 . S
C729 O704 1.257 . S
C729 O709 1.249 . S
C729 C722 1.492 . S
H730 C713 0.930 . S
H731 C714 0.930 . S
H732 C715 0.930 . S
H733 C716 0.930 . S
H734 C723 0.930 . S
H735 C725 0.930 . S
H736 C726 0.930 . S
H737 C727 0.930 . S
Eu738 N769 2.657 . S
Eu738 N776 2.609 . S
Eu738 O782 2.558 . S
Eu738 O783 2.612 . S
Eu738 O785 2.339 . S
Eu738 O786 2.563 . S
Eu738 O787 2.419 . S
Eu738 O789 2.380 . S
Eu738 O790 2.432 . S
Eu738 C802 2.848 . S
C739 C742 1.429 . S
C739 C743 1.411 . S
C739 N746 1.377 . S
C740 C742 1.420 . S
C740 C744 1.423 . S
C740 C752 1.392 . S
C741 C743 1.420 . S
C741 C744 1.351 . S
C741 H764 0.931 . S
C742 C739 1.429 . S
C742 C740 1.420 . S
C742 N750 1.362 . S
C743 C739 1.411 . S
C743 C741 1.420 . S
C743 C748 1.395 . S
C744 C740 1.423 . S
C744 C741 1.351 . S
C744 H756 0.930 . S
C745 C747 1.400 . S
C745 C748 1.386 . S
C745 H757 0.930 . S
N746 C739 1.377 . S
N746 C747 1.321 . S
N746 Eu749 2.609 . S
C747 C745 1.400 . S
C747 N746 1.321 . S
C747 H754 0.930 . S
C748 C743 1.395 . S
C748 C745 1.386 . S
C748 H767 0.930 . S
Eu749 N746 2.609 . S
Eu749 N750 2.657 . S
Eu749 O783 2.380 . S
Eu749 O784 2.432 . S
Eu749 O788 2.558 . S
Eu749 O789 2.612 . S
Eu749 O791 2.339 . S
Eu749 O792 2.563 . S
Eu749 O793 2.419 . S
Eu749 C813 2.848 . S
N750 C742 1.362 . S
N750 Eu749 2.657 . S
N750 C751 1.334 . S
C751 N750 1.334 . S
C751 C753 1.413 . S
C751 H758 0.929 . S
C752 C740 1.392 . S
C752 C753 1.367 . S
C752 H760 0.930 . S
C753 C751 1.413 . S
C753 C752 1.367 . S
C753 H755 0.930 . S
H754 C747 0.930 . S
H755 C753 0.930 . S
H756 C744 0.930 . S
H757 C745 0.930 . S
H758 C751 0.929 . S
H759 C773 0.930 . S
H760 C752 0.930 . S
H761 C779 0.930 . S
H762 C770 0.929 . S
H763 C777 0.930 . S
H764 C741 0.931 . S
H765 C771 0.930 . S
H766 C804 0.930 . S
H767 C748 0.930 . S
H768 C803 0.931 . S
N769 Eu738 2.657 . S
N769 C770 1.334 . S
N769 C774 1.362 . S
C770 H762 0.929 . S
C770 N769 1.334 . S
C770 C773 1.413 . S
C771 H765 0.930 . S
C771 C772 1.392 . S
C771 C773 1.367 . S
C772 C771 1.392 . S
C772 C774 1.420 . S
C772 C804 1.423 . S
C773 H759 0.930 . S
C773 C770 1.413 . S
C773 C771 1.367 . S
C774 N769 1.362 . S
C774 C772 1.420 . S
C774 C778 1.429 . S
H775 C780 0.930 . S
N776 Eu738 2.609 . S
N776 C778 1.377 . S
N776 C779 1.321 . S
C777 H763 0.930 . S
C777 C779 1.400 . S
C777 C780 1.386 . S
C778 C774 1.429 . S
C778 N776 1.377 . S
C778 C781 1.411 . S
C779 H761 0.930 . S
C779 N776 1.321 . S
C779 C777 1.400 . S
C780 H775 0.930 . S
C780 C777 1.386 . S
C780 C781 1.395 . S
C781 C778 1.411 . S
C781 C780 1.395 . S
C781 C803 1.420 . S
O782 Eu738 2.558 . S
O782 C802 1.257 . S
O783 Eu738 2.612 . S
O783 Eu749 2.380 . S
O783 C794 1.276 . S
O784 Eu749 2.432 . S
O784 C801 1.264 . S
O785 Eu738 2.339 . S
O785 C801 1.254 . S
O786 Eu738 2.563 . S
O786 C794 1.235 . S
O787 Eu738 2.419 . S
O787 C802 1.249 . S
O788 Eu749 2.558 . S
O788 C813 1.257 . S
O789 Eu738 2.380 . S
O789 Eu749 2.612 . S
O789 C805 1.276 . S
O790 Eu738 2.432 . S
O790 C812 1.264 . S
O791 Eu749 2.339 . S
O791 C812 1.254 . S
O792 Eu749 2.563 . S
O792 C805 1.235 . S
O793 Eu749 2.419 . S
O793 C813 1.249 . S
C794 O783 1.276 . S
C794 O786 1.235 . S
C795 C797 1.393 . S
C795 C799 1.395 . S
C795 C802 1.492 . S
C796 C797 1.392 . S
C796 C798 1.386 . S
C797 C795 1.393 . S
C797 C796 1.392 . S
C797 H814 0.930 . S
C798 C796 1.386 . S
C798 C800 1.395 . S
C798 H815 0.930 . S
C799 C795 1.395 . S
C799 C800 1.379 . S
C799 H816 0.930 . S
C800 C798 1.395 . S
C800 C799 1.379 . S
C800 H817 0.930 . S
C801 O784 1.264 . S
C801 O785 1.254 . S
C802 Eu738 2.848 . S
C802 O782 1.257 . S
C802 O787 1.249 . S
C802 C795 1.492 . S
C803 H768 0.931 . S
C803 C781 1.420 . S
C803 C804 1.351 . S
C804 H766 0.930 . S
C804 C772 1.423 . S
C804 C803 1.351 . S
C805 O789 1.276 . S
C805 O792 1.235 . S
C806 C807 1.393 . S
C806 C810 1.395 . S
C806 C813 1.492 . S
C807 C806 1.393 . S
C807 C808 1.392 . S
C807 H818 0.930 . S
C808 C807 1.392 . S
C808 C809 1.386 . S
C809 C808 1.386 . S
C809 C811 1.395 . S
C809 H819 0.930 . S
C810 C806 1.395 . S
C810 C811 1.379 . S
C810 H820 0.930 . S
C811 C809 1.395 . S
C811 C810 1.379 . S
C811 H821 0.930 . S
C812 O790 1.264 . S
C812 O791 1.254 . S
C813 Eu749 2.848 . S
C813 O788 1.257 . S
C813 O793 1.249 . S
C813 C806 1.492 . S
H814 C797 0.930 . S
H815 C798 0.930 . S
H816 C799 0.930 . S
H817 C800 0.930 . S
H818 C807 0.930 . S
H819 C809 0.930 . S
H820 C810 0.930 . S
H821 C811 0.930 . S
Eu822 N853 2.657 . S
Eu822 N860 2.609 . S
Eu822 O866 2.558 . S
Eu822 O867 2.612 . S
Eu822 O869 2.339 . S
Eu822 O870 2.563 . S
Eu822 O871 2.419 . S
Eu822 O873 2.380 . S
Eu822 O874 2.432 . S
Eu822 C886 2.848 . S
C823 C826 1.429 . S
C823 C827 1.411 . S
C823 N830 1.377 . S
C824 C826 1.420 . S
C824 C828 1.423 . S
C824 C836 1.392 . S
C825 C827 1.420 . S
C825 C828 1.351 . S
C825 H848 0.931 . S
C826 C823 1.429 . S
C826 C824 1.420 . S
C826 N834 1.362 . S
C827 C823 1.411 . S
C827 C825 1.420 . S
C827 C832 1.395 . S
C828 C824 1.423 . S
C828 C825 1.351 . S
C828 H840 0.930 . S
C829 C831 1.400 . S
C829 C832 1.386 . S
C829 H841 0.930 . S
N830 C823 1.377 . S
N830 C831 1.321 . S
N830 Eu833 2.609 . S
C831 C829 1.400 . S
C831 N830 1.321 . S
C831 H838 0.930 . S
C832 C827 1.395 . S
C832 C829 1.386 . S
C832 H851 0.930 . S
Eu833 N830 2.609 . S
Eu833 N834 2.657 . S
Eu833 O867 2.380 . S
Eu833 O868 2.432 . S
Eu833 O872 2.558 . S
Eu833 O873 2.612 . S
Eu833 O875 2.339 . S
Eu833 O876 2.563 . S
Eu833 O877 2.419 . S
Eu833 C897 2.848 . S
N834 C826 1.362 . S
N834 Eu833 2.657 . S
N834 C835 1.334 . S
C835 N834 1.334 . S
C835 C837 1.413 . S
C835 H842 0.929 . S
C836 C824 1.392 . S
C836 C837 1.367 . S
C836 H844 0.930 . S
C837 C835 1.413 . S
C837 C836 1.367 . S
C837 H839 0.930 . S
H838 C831 0.930 . S
H839 C837 0.930 . S
H840 C828 0.930 . S
H841 C829 0.930 . S
H842 C835 0.929 . S
H843 C857 0.930 . S
H844 C836 0.930 . S
H845 C863 0.930 . S
H846 C854 0.929 . S
H847 C861 0.930 . S
H848 C825 0.931 . S
H849 C855 0.930 . S
H850 C888 0.930 . S
H851 C832 0.930 . S
H852 C887 0.931 . S
N853 Eu822 2.657 . S
N853 C854 1.334 . S
N853 C858 1.362 . S
C854 H846 0.929 . S
C854 N853 1.334 . S
C854 C857 1.413 . S
C855 H849 0.930 . S
C855 C856 1.392 . S
C855 C857 1.367 . S
C856 C855 1.392 . S
C856 C858 1.420 . S
C856 C888 1.423 . S
C857 H843 0.930 . S
C857 C854 1.413 . S
C857 C855 1.367 . S
C858 N853 1.362 . S
C858 C856 1.420 . S
C858 C862 1.429 . S
H859 C864 0.930 . S
N860 Eu822 2.609 . S
N860 C862 1.377 . S
N860 C863 1.321 . S
C861 H847 0.930 . S
C861 C863 1.400 . S
C861 C864 1.386 . S
C862 C858 1.429 . S
C862 N860 1.377 . S
C862 C865 1.411 . S
C863 H845 0.930 . S
C863 N860 1.321 . S
C863 C861 1.400 . S
C864 H859 0.930 . S
C864 C861 1.386 . S
C864 C865 1.395 . S
C865 C862 1.411 . S
C865 C864 1.395 . S
C865 C887 1.420 . S
O866 Eu822 2.558 . S
O866 C886 1.257 . S
O867 Eu822 2.612 . S
O867 Eu833 2.380 . S
O867 C878 1.276 . S
O868 Eu833 2.432 . S
O868 C885 1.264 . S
O869 Eu822 2.339 . S
O869 C885 1.254 . S
O870 Eu822 2.563 . S
O870 C878 1.235 . S
O871 Eu822 2.419 . S
O871 C886 1.249 . S
O872 Eu833 2.558 . S
O872 C897 1.257 . S
O873 Eu822 2.380 . S
O873 Eu833 2.612 . S
O873 C889 1.276 . S
O874 Eu822 2.432 . S
O874 C896 1.264 . S
O875 Eu833 2.339 . S
O875 C896 1.254 . S
O876 Eu833 2.563 . S
O876 C889 1.235 . S
O877 Eu833 2.419 . S
O877 C897 1.249 . S
C878 O867 1.276 . S
C878 O870 1.235 . S
C879 C881 1.393 . S
C879 C883 1.395 . S
C879 C886 1.492 . S
C880 C881 1.392 . S
C880 C882 1.386 . S
C881 C879 1.393 . S
C881 C880 1.392 . S
C881 H898 0.930 . S
C882 C880 1.386 . S
C882 C884 1.395 . S
C882 H899 0.930 . S
C883 C879 1.395 . S
C883 C884 1.379 . S
C883 H900 0.930 . S
C884 C882 1.395 . S
C884 C883 1.379 . S
C884 H901 0.930 . S
C885 O868 1.264 . S
C885 O869 1.254 . S
C886 Eu822 2.848 . S
C886 O866 1.257 . S
C886 O871 1.249 . S
C886 C879 1.492 . S
C887 H852 0.931 . S
C887 C865 1.420 . S
C887 C888 1.351 . S
C888 H850 0.930 . S
C888 C856 1.423 . S
C888 C887 1.351 . S
C889 O873 1.276 . S
C889 O876 1.235 . S
C890 C891 1.393 . S
C890 C894 1.395 . S
C890 C897 1.492 . S
C891 C890 1.393 . S
C891 C892 1.392 . S
C891 H902 0.930 . S
C892 C891 1.392 . S
C892 C893 1.386 . S
C893 C892 1.386 . S
C893 C895 1.395 . S
C893 H903 0.930 . S
C894 C890 1.395 . S
C894 C895 1.379 . S
C894 H904 0.930 . S
C895 C893 1.395 . S
C895 C894 1.379 . S
C895 H905 0.930 . S
C896 O874 1.264 . S
C896 O875 1.254 . S
C897 Eu833 2.848 . S
C897 O872 1.257 . S
C897 O877 1.249 . S
C897 C890 1.492 . S
H898 C881 0.930 . S
H899 C882 0.930 . S
H900 C883 0.930 . S
H901 C884 0.930 . S
H902 C891 0.930 . S
H903 C893 0.930 . S
H904 C894 0.930 . S
H905 C895 0.930 . S
Eu906 N937 2.657 . S
Eu906 N944 2.609 . S
Eu906 O950 2.558 . S
Eu906 O951 2.612 . S
Eu906 O953 2.339 . S
Eu906 O954 2.563 . S
Eu906 O955 2.419 . S
Eu906 O957 2.380 . S
Eu906 O958 2.432 . S
Eu906 C970 2.848 . S
C907 C910 1.429 . S
C907 C911 1.411 . S
C907 N914 1.377 . S
C908 C910 1.420 . S
C908 C912 1.423 . S
C908 C920 1.392 . S
C909 C911 1.420 . S
C909 C912 1.351 . S
C909 H932 0.931 . S
C910 C907 1.429 . S
C910 C908 1.420 . S
C910 N918 1.362 . S
C911 C907 1.411 . S
C911 C909 1.420 . S
C911 C916 1.395 . S
C912 C908 1.423 . S
C912 C909 1.351 . S
C912 H924 0.930 . S
C913 C915 1.400 . S
C913 C916 1.386 . S
C913 H925 0.930 . S
N914 C907 1.377 . S
N914 C915 1.321 . S
N914 Eu917 2.609 . S
C915 C913 1.400 . S
C915 N914 1.321 . S
C915 H922 0.930 . S
C916 C911 1.395 . S
C916 C913 1.386 . S
C916 H935 0.930 . S
Eu917 N914 2.609 . S
Eu917 N918 2.657 . S
Eu917 O951 2.380 . S
Eu917 O952 2.432 . S
Eu917 O956 2.558 . S
Eu917 O957 2.612 . S
Eu917 O959 2.339 . S
Eu917 O960 2.563 . S
Eu917 O961 2.419 . S
Eu917 C981 2.848 . S
N918 C910 1.362 . S
N918 Eu917 2.657 . S
N918 C919 1.334 . S
C919 N918 1.334 . S
C919 C921 1.413 . S
C919 H926 0.929 . S
C920 C908 1.392 . S
C920 C921 1.367 . S
C920 H928 0.930 . S
C921 C919 1.413 . S
C921 C920 1.367 . S
C921 H923 0.930 . S
H922 C915 0.930 . S
H923 C921 0.930 . S
H924 C912 0.930 . S
H925 C913 0.930 . S
H926 C919 0.929 . S
H927 C941 0.930 . S
H928 C920 0.930 . S
H929 C947 0.930 . S
H930 C938 0.929 . S
H931 C945 0.930 . S
H932 C909 0.931 . S
H933 C939 0.930 . S
H934 C972 0.930 . S
H935 C916 0.930 . S
H936 C971 0.931 . S
N937 Eu906 2.657 . S
N937 C938 1.334 . S
N937 C942 1.362 . S
C938 H930 0.929 . S
C938 N937 1.334 . S
C938 C941 1.413 . S
C939 H933 0.930 . S
C939 C940 1.392 . S
C939 C941 1.367 . S
C940 C939 1.392 . S
C940 C942 1.420 . S
C940 C972 1.423 . S
C941 H927 0.930 . S
C941 C938 1.413 . S
C941 C939 1.367 . S
C942 N937 1.362 . S
C942 C940 1.420 . S
C942 C946 1.429 . S
H943 C948 0.930 . S
N944 Eu906 2.609 . S
N944 C946 1.377 . S
N944 C947 1.321 . S
C945 H931 0.930 . S
C945 C947 1.400 . S
C945 C948 1.386 . S
C946 C942 1.429 . S
C946 N944 1.377 . S
C946 C949 1.411 . S
C947 H929 0.930 . S
C947 N944 1.321 . S
C947 C945 1.400 . S
C948 H943 0.930 . S
C948 C945 1.386 . S
C948 C949 1.395 . S
C949 C946 1.411 . S
C949 C948 1.395 . S
C949 C971 1.420 . S
O950 Eu906 2.558 . S
O950 C970 1.257 . S
O951 Eu906 2.612 . S
O951 Eu917 2.380 . S
O951 C962 1.276 . S
O952 Eu917 2.432 . S
O952 C969 1.264 . S
O953 Eu906 2.339 . S
O953 C969 1.254 . S
O954 Eu906 2.563 . S
O954 C962 1.235 . S
O955 Eu906 2.419 . S
O955 C970 1.249 . S
O956 Eu917 2.558 . S
O956 C981 1.257 . S
O957 Eu906 2.380 . S
O957 Eu917 2.612 . S
O957 C973 1.276 . S
O958 Eu906 2.432 . S
O958 C980 1.264 . S
O959 Eu917 2.339 . S
O959 C980 1.254 . S
O960 Eu917 2.563 . S
O960 C973 1.235 . S
O961 Eu917 2.419 . S
O961 C981 1.249 . S
C962 O951 1.276 . S
C962 O954 1.235 . S
C963 C965 1.393 . S
C963 C967 1.395 . S
C963 C970 1.492 . S
C964 C965 1.392 . S
C964 C966 1.386 . S
C965 C963 1.393 . S
C965 C964 1.392 . S
C965 H982 0.930 . S
C966 C964 1.386 . S
C966 C968 1.395 . S
C966 H983 0.930 . S
C967 C963 1.395 . S
C967 C968 1.379 . S
C967 H984 0.930 . S
C968 C966 1.395 . S
C968 C967 1.379 . S
C968 H985 0.930 . S
C969 O952 1.264 . S
C969 O953 1.254 . S
C970 Eu906 2.848 . S
C970 O950 1.257 . S
C970 O955 1.249 . S
C970 C963 1.492 . S
C971 H936 0.931 . S
C971 C949 1.420 . S
C971 C972 1.351 . S
C972 H934 0.930 . S
C972 C940 1.423 . S
C972 C971 1.351 . S
C973 O957 1.276 . S
C973 O960 1.235 . S
C974 C975 1.393 . S
C974 C978 1.395 . S
C974 C981 1.492 . S
C975 C974 1.393 . S
C975 C976 1.392 . S
C975 H986 0.930 . S
C976 C975 1.392 . S
C976 C977 1.386 . S
C977 C976 1.386 . S
C977 C979 1.395 . S
C977 H987 0.930 . S
C978 C974 1.395 . S
C978 C979 1.379 . S
C978 H988 0.930 . S
C979 C977 1.395 . S
C979 C978 1.379 . S
C979 H989 0.930 . S
C980 O958 1.264 . S
C980 O959 1.254 . S
C981 Eu917 2.848 . S
C981 O956 1.257 . S
C981 O961 1.249 . S
C981 C974 1.492 . S
H982 C965 0.930 . S
H983 C966 0.930 . S
H984 C967 0.930 . S
H985 C968 0.930 . S
H986 C975 0.930 . S
H987 C977 0.930 . S
H988 C978 0.930 . S
H989 C979 0.930 . S
H990 C1008 0.951 . S
H991 C1010 0.951 . S
H992 C1012 0.950 . S
H993 C1013 0.950 . S
H994 C1015 0.950 . S
H995 C1018 0.950 . S
H996 C1019 0.950 . S
H997 C1021 0.950 . S
H998 C1022 0.950 . S
H999 C1023 0.951 . S
H1000 C1025 0.951 . S
H1001 C1027 0.950 . S
H1002 C1028 0.950 . S
H1003 C1030 0.950 . S
H1004 C1033 0.960 . S
H1005 C1034 0.950 . S
H1006 C1036 0.950 . S
H1007 C1037 0.950 . S
C1008 H990 0.951 . S
C1008 C1009 1.366 . S
C1008 C1010 1.388 . S
C1009 C1008 1.366 . S
C1009 C1013 1.385 . S
C1010 H991 0.951 . S
C1010 C1008 1.388 . S
C1010 C1011 1.366 . S
C1011 C1010 1.366 . S
C1011 C1012 1.414 . S
C1011 C1014 1.499 . S
C1012 H992 0.950 . S
C1012 C1011 1.414 . S
C1012 C1013 1.374 . S
C1013 H993 0.950 . S
C1013 C1009 1.385 . S
C1013 C1012 1.374 . S
C1014 C1011 1.499 . S
C1014 C1015 1.373 . S
C1014 C1016 1.389 . S
C1015 H994 0.950 . S
C1015 C1014 1.373 . S
C1015 C1031 1.377 . S
C1016 C1014 1.389 . S
C1016 C1017 1.524 . S
C1016 C1030 1.377 . S
C1017 C1016 1.524 . S
C1017 C1018 1.397 . S
C1017 C1022 1.363 . S
C1018 H995 0.950 . S
C1018 C1017 1.397 . S
C1018 C1019 1.334 . S
C1019 H996 0.950 . S
C1019 C1018 1.334 . S
C1019 C1020 1.287 . S
C1020 C1019 1.287 . S
C1020 C1021 1.524 . S
C1020 H1039 0.913 . S
C1021 H997 0.950 . S
C1021 C1020 1.524 . S
C1021 C1022 1.415 . S
C1022 H998 0.950 . S
C1022 C1017 1.363 . S
C1022 C1021 1.415 . S
C1023 H999 0.951 . S
C1023 C1024 1.366 . S
C1023 C1025 1.388 . S
C1024 C1023 1.366 . S
C1024 C1028 1.385 . S
C1025 H1000 0.951 . S
C1025 C1023 1.388 . S
C1025 C1026 1.366 . S
C1026 C1025 1.366 . S
C1026 C1027 1.414 . S
C1026 C1029 1.499 . S
C1027 H1001 0.950 . S
C1027 C1026 1.414 . S
C1027 C1028 1.374 . S
C1028 H1002 0.950 . S
C1028 C1024 1.385 . S
C1028 C1027 1.374 . S
C1029 C1026 1.499 . S
C1029 C1030 1.373 . S
C1029 C1031 1.389 . S
C1030 H1003 0.950 . S
C1030 C1016 1.377 . S
C1030 C1029 1.373 . S
C1031 C1015 1.377 . S
C1031 C1029 1.389 . S
C1031 C1032 1.524 . S
C1032 C1031 1.524 . S
C1032 C1033 1.433 . S
C1032 C1037 1.363 . S
C1033 H1004 0.960 . S
C1033 C1032 1.433 . S
C1033 C1034 1.290 1_554 S
C1034 H1005 0.950 . S
C1034 C1033 1.290 1_556 S
C1034 C1035 1.287 . S
C1035 C1034 1.287 . S
C1035 C1036 1.524 . S
C1035 H1038 0.999 . S
C1036 H1006 0.950 . S
C1036 C1035 1.524 . S
C1036 C1037 1.415 1_556 S
C1037 H1007 0.950 . S
C1037 C1032 1.363 . S
C1037 C1036 1.415 1_554 S
H1038 C1035 0.999 . S
H1039 C1020 0.913 . S
H1040 C1058 0.951 . S
H1041 C1060 0.951 . S
H1042 C1062 0.950 . S
H1043 C1063 0.950 . S
H1044 C1065 0.950 . S
H1045 C1068 0.950 . S
H1046 C1069 0.950 . S
H1047 C1071 0.950 . S
H1048 C1072 0.950 . S
H1049 C1073 0.951 . S
H1050 C1075 0.951 . S
H1051 C1077 0.950 . S
H1052 C1078 0.950 . S
H1053 C1080 0.950 . S
H1054 C1083 0.950 . S
H1055 C1084 0.950 . S
H1056 C1086 0.950 . S
H1057 C1087 0.950 . S
C1058 H1040 0.951 . S
C1058 C1059 1.366 . S
C1058 C1060 1.388 . S
C1059 C1058 1.366 . S
C1059 C1063 1.385 . S
C1060 H1041 0.951 . S
C1060 C1058 1.388 . S
C1060 C1061 1.366 . S
C1061 C1060 1.366 . S
C1061 C1062 1.414 . S
C1061 C1064 1.499 . S
C1062 H1042 0.950 . S
C1062 C1061 1.414 . S
C1062 C1063 1.374 . S
C1063 H1043 0.950 . S
C1063 C1059 1.385 . S
C1063 C1062 1.374 . S
C1064 C1061 1.499 . S
C1064 C1065 1.373 . S
C1064 C1066 1.389 . S
C1065 H1044 0.950 . S
C1065 C1064 1.373 . S
C1065 C1081 1.377 . S
C1066 C1064 1.389 . S
C1066 C1067 1.524 . S
C1066 C1080 1.377 . S
C1067 C1066 1.524 . S
C1067 C1068 1.397 . S
C1067 C1072 1.363 . S
C1068 H1045 0.950 . S
C1068 C1067 1.397 . S
C1068 C1069 1.334 . S
C1069 H1046 0.950 . S
C1069 C1068 1.334 . S
C1069 C1070 1.287 . S
C1070 C1069 1.287 . S
C1070 C1071 1.524 . S
C1070 H1089 0.913 . S
C1071 H1047 0.950 . S
C1071 C1070 1.524 . S
C1071 C1072 1.415 . S
C1072 H1048 0.950 . S
C1072 C1067 1.363 . S
C1072 C1071 1.415 . S
C1073 H1049 0.951 . S
C1073 C1074 1.366 . S
C1073 C1075 1.388 . S
C1074 C1073 1.366 . S
C1074 C1078 1.385 . S
C1075 H1050 0.951 . S
C1075 C1073 1.388 . S
C1075 C1076 1.366 . S
C1076 C1075 1.366 . S
C1076 C1077 1.414 . S
C1076 C1079 1.499 . S
C1077 H1051 0.950 . S
C1077 C1076 1.414 . S
C1077 C1078 1.374 . S
C1078 H1052 0.950 . S
C1078 C1074 1.385 . S
C1078 C1077 1.374 . S
C1079 C1076 1.499 . S
C1079 C1080 1.373 . S
C1079 C1081 1.389 . S
C1080 H1053 0.950 . S
C1080 C1066 1.377 . S
C1080 C1079 1.373 . S
C1081 C1065 1.377 . S
C1081 C1079 1.389 . S
C1081 C1082 1.524 . S
C1082 C1081 1.524 . S
C1082 C1083 1.397 . S
C1082 C1087 1.363 . S
C1083 H1054 0.950 . S
C1083 C1082 1.397 . S
C1083 C1084 1.334 . S
C1084 H1055 0.950 . S
C1084 C1083 1.334 . S
C1084 C1085 1.287 . S
C1085 C1084 1.287 . S
C1085 C1086 1.524 . S
C1085 H1088 0.999 . S
C1086 H1056 0.950 . S
C1086 C1085 1.524 . S
C1086 C1087 1.415 . S
C1087 H1057 0.950 . S
C1087 C1082 1.363 . S
C1087 C1086 1.415 . S
H1088 C1085 0.999 . S
H1089 C1070 0.913 . S
H1090 C1108 0.951 . S
H1091 C1110 0.951 . S
H1092 C1112 0.950 . S
H1093 C1113 0.950 . S
H1094 C1115 0.950 . S
H1095 C1118 0.950 . S
H1096 C1119 0.950 . S
H1097 C1121 0.950 . S
H1098 C1122 0.950 . S
H1099 C1123 0.951 . S
H1100 C1125 0.951 . S
H1101 C1127 0.950 . S
H1102 C1128 0.950 . S
H1103 C1130 0.950 . S
H1104 C1133 0.950 . S
H1105 C1134 0.950 . S
H1106 C1136 0.950 . S
H1107 C1137 0.950 . S
C1108 H1090 0.951 . S
C1108 C1109 1.366 . S
C1108 C1110 1.388 . S
C1109 C1108 1.366 . S
C1109 C1113 1.385 . S
C1110 H1091 0.951 . S
C1110 C1108 1.388 . S
C1110 C1111 1.366 . S
C1111 C1110 1.366 . S
C1111 C1112 1.414 . S
C1111 C1114 1.499 . S
C1112 H1092 0.950 . S
C1112 C1111 1.414 . S
C1112 C1113 1.374 . S
C1113 H1093 0.950 . S
C1113 C1109 1.385 . S
C1113 C1112 1.374 . S
C1114 C1111 1.499 . S
C1114 C1115 1.373 . S
C1114 C1116 1.389 . S
C1115 H1094 0.950 . S
C1115 C1114 1.373 . S
C1115 C1131 1.377 . S
C1116 C1114 1.389 . S
C1116 C1117 1.524 . S
C1116 C1130 1.377 . S
C1117 C1116 1.524 . S
C1117 C1118 1.397 . S
C1117 C1122 1.363 . S
C1118 H1095 0.950 . S
C1118 C1117 1.397 . S
C1118 C1119 1.334 . S
C1119 H1096 0.950 . S
C1119 C1118 1.334 . S
C1119 C1120 1.287 . S
C1120 C1119 1.287 . S
C1120 C1121 1.524 . S
C1120 H1139 0.913 . S
C1121 H1097 0.950 . S
C1121 C1120 1.524 . S
C1121 C1122 1.415 . S
C1122 H1098 0.950 . S
C1122 C1117 1.363 . S
C1122 C1121 1.415 . S
C1123 H1099 0.951 . S
C1123 C1124 1.366 . S
C1123 C1125 1.388 . S
C1124 C1123 1.366 . S
C1124 C1128 1.385 . S
C1125 H1100 0.951 . S
C1125 C1123 1.388 . S
C1125 C1126 1.366 . S
C1126 C1125 1.366 . S
C1126 C1127 1.414 . S
C1126 C1129 1.499 . S
C1127 H1101 0.950 . S
C1127 C1126 1.414 . S
C1127 C1128 1.374 . S
C1128 H1102 0.950 . S
C1128 C1124 1.385 . S
C1128 C1127 1.374 . S
C1129 C1126 1.499 . S
C1129 C1130 1.373 . S
C1129 C1131 1.389 . S
C1130 H1103 0.950 . S
C1130 C1116 1.377 . S
C1130 C1129 1.373 . S
C1131 C1115 1.377 . S
C1131 C1129 1.389 . S
C1131 C1132 1.524 . S
C1132 C1131 1.524 . S
C1132 C1133 1.397 . S
C1132 C1137 1.363 . S
C1133 H1104 0.950 . S
C1133 C1132 1.397 . S
C1133 C1134 1.334 . S
C1134 H1105 0.950 . S
C1134 C1133 1.334 . S
C1134 C1135 1.287 . S
C1135 C1134 1.287 . S
C1135 C1136 1.524 . S
C1135 H1138 0.999 . S
C1136 H1106 0.950 . S
C1136 C1135 1.524 . S
C1136 C1137 1.415 . S
C1137 H1107 0.950 . S
C1137 C1132 1.363 . S
C1137 C1136 1.415 . S
H1138 C1135 0.999 . S
H1139 C1120 0.913 . S
H1140 C1158 0.951 . S
H1141 C1160 0.951 . S
H1142 C1162 0.950 . S
H1143 C1163 0.950 . S
H1144 C1165 0.950 . S
H1145 C1168 0.950 . S
H1146 C1169 0.950 . S
H1147 C1171 0.950 . S
H1148 C1172 0.950 . S
H1149 C1173 0.951 . S
H1150 C1175 0.960 . S
H1151 C1177 0.950 . S
H1152 C1178 0.950 . S
H1153 C1180 0.950 . S
H1154 C1183 0.950 . S
H1155 C1184 0.950 . S
H1156 C1186 0.950 . S
H1157 C1187 0.950 . S
C1158 H1140 0.951 . S
C1158 C1159 1.366 . S
C1158 C1160 1.388 . S
C1159 C1158 1.366 . S
C1159 C1163 1.385 . S
C1160 H1141 0.951 . S
C1160 C1158 1.388 . S
C1160 C1161 1.366 . S
C1161 C1160 1.366 . S
C1161 C1162 1.414 . S
C1161 C1164 1.499 . S
C1162 H1142 0.950 . S
C1162 C1161 1.414 . S
C1162 C1163 1.374 . S
C1163 H1143 0.950 . S
C1163 C1159 1.385 . S
C1163 C1162 1.374 . S
C1164 C1161 1.499 . S
C1164 C1165 1.373 . S
C1164 C1166 1.389 . S
C1165 H1144 0.950 . S
C1165 C1164 1.373 . S
C1165 C1181 1.377 . S
C1166 C1164 1.389 . S
C1166 C1167 1.524 . S
C1166 C1180 1.377 . S
C1167 C1166 1.524 . S
C1167 C1168 1.397 . S
C1167 C1172 1.363 . S
C1168 H1145 0.950 . S
C1168 C1167 1.397 . S
C1168 C1169 1.334 . S
C1169 H1146 0.950 . S
C1169 C1168 1.334 . S
C1169 C1170 1.287 . S
C1170 C1169 1.287 . S
C1170 C1171 1.524 . S
C1170 H1189 0.913 . S
C1171 H1147 0.950 . S
C1171 C1170 1.524 . S
C1171 C1172 1.415 . S
C1172 H1148 0.950 . S
C1172 C1167 1.363 . S
C1172 C1171 1.415 . S
C1173 H1149 0.951 . S
C1173 C1174 1.366 1_554 S
C1173 C1175 1.388 1_554 S
C1174 C1173 1.366 1_556 S
C1174 C1178 1.385 . S
C1175 H1150 0.960 . S
C1175 C1173 1.388 1_556 S
C1175 C1176 1.366 . S
C1176 C1175 1.366 . S
C1176 C1177 1.414 . S
C1176 C1179 1.499 . S
C1177 H1151 0.950 . S
C1177 C1176 1.414 . S
C1177 C1178 1.374 . S
C1178 H1152 0.950 . S
C1178 C1174 1.385 . S
C1178 C1177 1.374 . S
C1179 C1176 1.499 . S
C1179 C1180 1.373 . S
C1179 C1181 1.389 . S
C1180 H1153 0.950 . S
C1180 C1166 1.377 . S
C1180 C1179 1.373 . S
C1181 C1165 1.377 . S
C1181 C1179 1.389 . S
C1181 C1182 1.524 1_556 S
C1182 C1181 1.524 1_554 S
C1182 C1183 1.397 . S
C1182 C1187 1.363 . S
C1183 H1154 0.950 . S
C1183 C1182 1.397 . S
C1183 C1184 1.334 . S
C1184 H1155 0.950 . S
C1184 C1183 1.334 . S
C1184 C1185 1.287 . S
C1185 C1184 1.287 . S
C1185 C1186 1.524 . S
C1185 H1188 0.999 . S
C1186 H1156 0.950 . S
C1186 C1185 1.524 . S
C1186 C1187 1.415 . S
C1187 H1157 0.950 . S
C1187 C1182 1.363 . S
C1187 C1186 1.415 . S
H1188 C1185 0.999 . S
H1189 C1170 0.913 . S
H1190 C1208 0.951 . S
H1191 C1210 0.951 . S
H1192 C1212 0.950 . S
H1193 C1213 0.950 . S
H1194 C1215 0.950 . S
H1195 C1218 0.950 . S
H1196 C1219 0.950 . S
H1197 C1221 0.950 . S
H1198 C1222 0.950 . S
H1199 C1223 0.951 . S
H1200 C1225 0.951 . S
H1201 C1227 0.950 . S
H1202 C1228 0.950 . S
H1203 C1230 0.950 1_554 S
H1204 C1233 0.950 . S
H1205 C1234 0.950 . S
H1206 C1236 0.950 . S
H1207 C1237 0.950 . S
C1208 H1190 0.951 . S
C1208 C1209 1.366 . S
C1208 C1210 1.388 . S
C1209 C1208 1.366 . S
C1209 C1213 1.385 . S
C1210 H1191 0.951 . S
C1210 C1208 1.388 . S
C1210 C1211 1.366 . S
C1211 C1210 1.366 . S
C1211 C1212 1.414 . S
C1211 C1214 1.499 . S
C1212 H1192 0.950 . S
C1212 C1211 1.414 . S
C1212 C1213 1.374 . S
C1213 H1193 0.950 . S
C1213 C1209 1.385 . S
C1213 C1212 1.374 . S
C1214 C1211 1.499 . S
C1214 C1215 1.373 . S
C1214 C1216 1.389 . S
C1215 H1194 0.950 . S
C1215 C1214 1.373 . S
C1215 C1231 1.377 . S
C1216 C1214 1.389 . S
C1216 C1217 1.524 . S
C1216 C1230 1.377 . S
C1217 C1216 1.524 . S
C1217 C1218 1.397 . S
C1217 C1222 1.363 1_556 S
C1218 H1195 0.950 . S
C1218 C1217 1.397 . S
C1218 C1219 1.334 . S
C1219 H1196 0.950 . S
C1219 C1218 1.334 . S
C1219 C1220 1.287 1_556 S
C1220 C1219 1.287 1_554 S
C1220 C1221 1.524 . S
C1220 H1239 0.913 . S
C1221 H1197 0.950 . S
C1221 C1220 1.524 . S
C1221 C1222 1.415 . S
C1222 H1198 0.950 . S
C1222 C1217 1.363 1_554 S
C1222 C1221 1.415 . S
C1223 H1199 0.951 . S
C1223 C1224 1.366 . S
C1223 C1225 1.388 . S
C1224 C1223 1.366 . S
C1224 C1228 1.385 1_556 S
C1225 H1200 0.951 . S
C1225 C1223 1.388 . S
C1225 C1226 1.366 . S
C1226 C1225 1.366 . S
C1226 C1227 1.414 1_556 S
C1226 C1229 1.499 . S
C1227 H1201 0.950 . S
C1227 C1226 1.414 1_554 S
C1227 C1228 1.374 . S
C1228 H1202 0.950 . S
C1228 C1224 1.385 1_554 S
C1228 C1227 1.374 . S
C1229 C1226 1.499 . S
C1229 C1230 1.373 . S
C1229 C1231 1.389 . S
C1230 H1203 0.950 1_556 S
C1230 C1216 1.377 . S
C1230 C1229 1.373 . S
C1231 C1215 1.377 . S
C1231 C1229 1.389 . S
C1231 C1232 1.524 . S
C1232 C1231 1.524 . S
C1232 C1233 1.397 . S
C1232 C1237 1.363 . S
C1233 H1204 0.950 . S
C1233 C1232 1.397 . S
C1233 C1234 1.334 . S
C1234 H1205 0.950 . S
C1234 C1233 1.334 . S
C1234 C1235 1.287 . S
C1235 C1234 1.287 . S
C1235 C1236 1.524 . S
C1235 H1238 0.999 . S
C1236 H1206 0.950 . S
C1236 C1235 1.524 . S
C1236 C1237 1.415 . S
C1237 H1207 0.950 . S
C1237 C1232 1.363 . S
C1237 C1236 1.415 . S
H1238 C1235 0.999 . S
H1239 C1220 0.913 . S
H1240 C1258 0.951 . S
H1241 C1260 0.951 . S
H1242 C1262 0.950 . S
H1243 C1263 0.950 . S
H1244 C1265 0.968 . S
H1245 C1268 0.950 . S
H1246 C1269 0.950 . S
H1247 C1271 0.950 . S
H1248 C1272 0.950 . S
H1249 C1273 0.951 . S
H1250 C1275 0.951 . S
H1251 C1277 0.950 . S
H1252 C1278 0.950 . S
H1253 C1280 0.950 . S
H1254 C1283 0.950 . S
H1255 C1284 0.950 . S
H1256 C1286 0.950 . S
H1257 C1287 0.950 . S
C1258 H1240 0.951 . S
C1258 C1259 1.366 . S
C1258 C1260 1.388 . S
C1259 C1258 1.366 . S
C1259 C1263 1.385 . S
C1260 H1241 0.951 . S
C1260 C1258 1.388 . S
C1260 C1261 1.366 . S
C1261 C1260 1.366 . S
C1261 C1262 1.414 . S
C1261 C1264 1.499 . S
C1262 H1242 0.950 . S
C1262 C1261 1.414 . S
C1262 C1263 1.374 . S
C1263 H1243 0.950 . S
C1263 C1259 1.385 . S
C1263 C1262 1.374 . S
C1264 C1261 1.499 . S
C1264 C1265 1.373 . S
C1264 C1266 1.389 . S
C1265 H1244 0.968 . S
C1265 C1264 1.373 . S
C1265 C1281 1.377 . S
C1266 C1264 1.389 . S
C1266 C1267 1.524 . S
C1266 C1280 1.377 . S
C1267 C1266 1.524 . S
C1267 C1268 1.397 . S
C1267 C1272 1.363 . S
C1268 H1245 0.950 . S
C1268 C1267 1.397 . S
C1268 C1269 1.334 . S
C1269 H1246 0.950 . S
C1269 C1268 1.334 . S
C1269 C1270 1.287 . S
C1270 C1269 1.287 . S
C1270 C1271 1.524 . S
C1270 H1289 0.913 . S
C1271 H1247 0.950 . S
C1271 C1270 1.524 . S
C1271 C1272 1.415 . S
C1272 H1248 0.950 . S
C1272 C1267 1.363 . S
C1272 C1271 1.415 . S
C1273 H1249 0.951 . S
C1273 C1274 1.336 1_554 S
C1273 C1275 1.388 . S
C1274 C1273 1.336 1_556 S
C1274 C1278 1.430 . S
C1275 H1250 0.951 . S
C1275 C1273 1.388 . S
C1275 C1276 1.366 1_554 S
C1276 C1275 1.366 1_556 S
C1276 C1277 1.414 . S
C1276 C1279 1.499 . S
C1277 H1251 0.950 . S
C1277 C1276 1.414 . S
C1277 C1278 1.374 . S
C1278 H1252 0.950 . S
C1278 C1274 1.430 . S
C1278 C1277 1.374 . S
C1279 C1276 1.499 . S
C1279 C1280 1.373 . S
C1279 C1281 1.389 . S
C1280 H1253 0.950 . S
C1280 C1266 1.377 . S
C1280 C1279 1.373 . S
C1281 C1265 1.377 . S
C1281 C1279 1.389 . S
C1281 C1282 1.524 1_556 S
C1282 C1281 1.524 1_554 S
C1282 C1283 1.397 . S
C1282 C1287 1.363 . S
C1283 H1254 0.950 . S
C1283 C1282 1.397 . S
C1283 C1284 1.334 . S
C1284 H1255 0.950 . S
C1284 C1283 1.334 . S
C1284 C1285 1.287 . S
C1285 C1284 1.287 . S
C1285 C1286 1.524 . S
C1285 H1288 0.999 . S
C1286 H1256 0.950 . S
C1286 C1285 1.524 . S
C1286 C1287 1.415 . S
C1287 H1257 0.950 . S
C1287 C1282 1.363 . S
C1287 C1286 1.415 . S
H1288 C1285 0.999 . S
H1289 C1270 0.913 . S
H1290 C1308 0.951 . S
H1291 C1310 0.951 . S
H1292 C1312 0.950 . S
H1293 C1313 0.950 . S
H1294 C1315 0.950 . S
H1295 C1318 0.950 . S
H1296 C1319 0.950 . S
H1297 C1321 0.950 . S
H1298 C1322 0.950 . S
H1299 C1323 0.984 . S
H1300 C1325 0.951 . S
H1301 C1327 0.950 . S
H1302 C1328 0.950 . S
H1303 C1330 0.950 . S
H1304 C1333 0.950 . S
H1305 C1334 0.950 . S
H1306 C1336 0.950 . S
H1307 C1337 0.950 . S
C1308 H1290 0.951 . S
C1308 C1309 1.366 . S
C1308 C1310 1.388 . S
C1309 C1308 1.366 . S
C1309 C1313 1.385 . S
C1310 H1291 0.951 . S
C1310 C1308 1.388 . S
C1310 C1311 1.366 . S
C1311 C1310 1.366 . S
C1311 C1312 1.414 . S
C1311 C1314 1.499 . S
C1312 H1292 0.950 . S
C1312 C1311 1.414 . S
C1312 C1313 1.374 . S
C1313 H1293 0.950 . S
C1313 C1309 1.385 . S
C1313 C1312 1.374 . S
C1314 C1311 1.499 . S
C1314 C1315 1.373 . S
C1314 C1316 1.389 . S
C1315 H1294 0.950 . S
C1315 C1314 1.373 . S
C1315 C1331 1.377 . S
C1316 C1314 1.389 . S
C1316 C1317 1.524 . S
C1316 C1330 1.377 . S
C1317 C1316 1.524 . S
C1317 C1318 1.397 1_556 S
C1317 C1322 1.363 . S
C1318 H1295 0.950 . S
C1318 C1317 1.397 1_554 S
C1318 C1319 1.334 . S
C1319 H1296 0.950 . S
C1319 C1318 1.334 . S
C1319 C1320 1.287 . S
C1320 C1319 1.287 . S
C1320 C1321 1.524 1_554 S
C1320 H1339 0.913 . S
C1321 H1297 0.950 . S
C1321 C1320 1.524 1_556 S
C1321 C1322 1.415 . S
C1322 H1298 0.950 . S
C1322 C1317 1.363 . S
C1322 C1321 1.415 . S
C1323 H1299 0.984 . S
C1323 C1324 1.356 1_554 S
C1323 C1325 1.370 1_554 S
C1324 C1323 1.356 1_556 S
C1324 C1328 1.385 . S
C1325 H1300 0.951 . S
C1325 C1323 1.370 1_556 S
C1325 C1326 1.366 . S
C1326 C1325 1.366 . S
C1326 C1327 1.414 . S
C1326 C1329 1.499 . S
C1327 H1301 0.950 . S
C1327 C1326 1.414 . S
C1327 C1328 1.374 . S
C1328 H1302 0.950 . S
C1328 C1324 1.385 . S
C1328 C1327 1.374 . S
C1329 C1326 1.499 . S
C1329 C1330 1.373 . S
C1329 C1331 1.389 . S
C1330 H1303 0.950 . S
C1330 C1316 1.377 . S
C1330 C1329 1.373 . S
C1331 C1315 1.377 . S
C1331 C1329 1.389 . S
C1331 C1332 1.524 . S
C1332 C1331 1.524 . S
C1332 C1333 1.397 . S
C1332 C1337 1.363 . S
C1333 H1304 0.950 . S
C1333 C1332 1.397 . S
C1333 C1334 1.334 . S
C1334 H1305 0.950 . S
C1334 C1333 1.334 . S
C1334 C1335 1.287 . S
C1335 C1334 1.287 . S
C1335 C1336 1.524 . S
C1335 H1338 0.999 . S
C1336 H1306 0.950 . S
C1336 C1335 1.524 . S
C1336 C1337 1.415 . S
C1337 H1307 0.950 . S
C1337 C1332 1.363 . S
C1337 C1336 1.415 . S
H1338 C1335 0.999 . S
H1339 C1320 0.913 . S
H1340 C1358 0.951 . S
H1341 C1360 0.951 . S
H1342 C1362 0.950 . S
H1343 C1363 0.950 . S
H1344 C1365 0.950 . S
H1345 C1368 0.950 . S
H1346 C1369 0.950 . S
H1347 C1371 0.950 . S
H1348 C1372 0.950 . S
H1349 C1373 0.951 . S
H1350 C1375 0.951 . S
H1351 C1377 0.950 . S
H1352 C1378 0.950 . S
H1353 C1380 0.950 . S
H1354 C1383 0.950 1_556 S
H1355 C1384 0.950 . S
H1356 C1386 0.950 . S
H1357 C1387 0.950 . S
C1358 H1340 0.951 . S
C1358 C1359 1.366 . S
C1358 C1360 1.388 . S
C1359 C1358 1.366 . S
C1359 C1363 1.385 . S
C1360 H1341 0.951 . S
C1360 C1358 1.388 . S
C1360 C1361 1.366 . S
C1361 C1360 1.366 . S
C1361 C1362 1.414 . S
C1361 C1364 1.499 . S
C1362 H1342 0.950 . S
C1362 C1361 1.414 . S
C1362 C1363 1.374 . S
C1363 H1343 0.950 . S
C1363 C1359 1.385 . S
C1363 C1362 1.374 . S
C1364 C1361 1.499 . S
C1364 C1365 1.373 . S
C1364 C1366 1.389 . S
C1365 H1344 0.950 . S
C1365 C1364 1.373 . S
C1365 C1381 1.377 . S
C1366 C1364 1.389 . S
C1366 C1367 1.524 . S
C1366 C1380 1.377 . S
C1367 C1366 1.524 . S
C1367 C1368 1.397 . S
C1367 C1372 1.363 . S
C1368 H1345 0.950 . S
C1368 C1367 1.397 . S
C1368 C1369 1.334 . S
C1369 H1346 0.950 . S
C1369 C1368 1.334 . S
C1369 C1370 1.287 . S
C1370 C1369 1.287 . S
C1370 C1371 1.524 . S
C1370 H1389 0.913 . S
C1371 H1347 0.950 . S
C1371 C1370 1.524 . S
C1371 C1372 1.415 . S
C1372 H1348 0.950 . S
C1372 C1367 1.363 . S
C1372 C1371 1.415 . S
C1373 H1349 0.951 . S
C1373 C1374 1.366 1_554 S
C1373 C1375 1.388 . S
C1374 C1373 1.366 1_556 S
C1374 C1378 1.385 . S
C1375 H1350 0.951 . S
C1375 C1373 1.388 . S
C1375 C1376 1.366 1_554 S
C1376 C1375 1.366 1_556 S
C1376 C1377 1.414 . S
C1376 C1379 1.499 . S
C1377 H1351 0.950 . S
C1377 C1376 1.414 . S
C1377 C1378 1.374 . S
C1378 H1352 0.950 . S
C1378 C1374 1.385 . S
C1378 C1377 1.374 . S
C1379 C1376 1.499 . S
C1379 C1380 1.373 . S
C1379 C1381 1.389 . S
C1380 H1353 0.950 . S
C1380 C1366 1.377 . S
C1380 C1379 1.373 . S
C1381 C1365 1.377 . S
C1381 C1379 1.389 . S
C1381 C1382 1.524 1_556 S
C1382 C1381 1.524 1_554 S
C1382 C1383 1.397 . S
C1382 C1387 1.363 . S
C1383 H1354 0.950 1_554 S
C1383 C1382 1.397 . S
C1383 C1384 1.334 . S
C1384 H1355 0.950 . S
C1384 C1383 1.334 . S
C1384 C1385 1.287 . S
C1385 C1384 1.287 . S
C1385 C1386 1.524 . S
C1385 H1388 0.999 . S
C1386 H1356 0.950 . S
C1386 C1385 1.524 . S
C1386 C1387 1.415 . S
C1387 H1357 0.950 . S
C1387 C1382 1.363 . S
C1387 C1386 1.415 . S
H1388 C1385 0.999 . S
H1389 C1370 0.913 . S
H1390 C1408 0.951 . S
H1391 C1410 0.951 . S
H1392 C1412 0.950 . S
H1393 C1413 0.950 . S
H1394 C1415 0.950 . S
H1395 C1418 0.950 . S
H1396 C1419 0.950 . S
H1397 C1421 0.950 . S
H1398 C1422 0.950 . S
H1399 C1423 0.951 . S
H1400 C1425 0.951 . S
H1401 C1427 0.976 . S
H1402 C1428 0.950 . S
H1403 C1430 0.922 1_554 S
H1404 C1433 0.950 . S
H1405 C1434 0.950 . S
H1406 C1436 0.950 . S
H1407 C1437 0.950 . S
C1408 H1390 0.951 . S
C1408 C1409 1.366 . S
C1408 C1410 1.388 . S
C1409 C1408 1.366 . S
C1409 C1413 1.385 . S
C1410 H1391 0.951 . S
C1410 C1408 1.388 . S
C1410 C1411 1.366 . S
C1411 C1410 1.366 . S
C1411 C1412 1.414 . S
C1411 C1414 1.499 . S
C1412 H1392 0.950 . S
C1412 C1411 1.414 . S
C1412 C1413 1.374 . S
C1413 H1393 0.950 . S
C1413 C1409 1.385 . S
C1413 C1412 1.374 . S
C1414 C1411 1.499 . S
C1414 C1415 1.373 . S
C1414 C1416 1.389 . S
C1415 H1394 0.950 . S
C1415 C1414 1.373 . S
C1415 C1431 1.377 . S
C1416 C1414 1.389 . S
C1416 C1417 1.524 1_556 S
C1416 C1430 1.382 . S
C1417 C1416 1.524 1_554 S
C1417 C1418 1.397 . S
C1417 C1422 1.363 . S
C1418 H1395 0.950 . S
C1418 C1417 1.397 . S
C1418 C1419 1.334 . S
C1419 H1396 0.950 . S
C1419 C1418 1.334 . S
C1419 C1420 1.287 . S
C1420 C1419 1.287 . S
C1420 C1421 1.524 . S
C1420 H1439 0.913 . S
C1421 H1397 0.950 . S
C1421 C1420 1.524 . S
C1421 C1422 1.415 . S
C1422 H1398 0.950 . S
C1422 C1417 1.363 . S
C1422 C1421 1.415 . S
C1423 H1399 0.951 . S
C1423 C1424 1.375 . S
C1423 C1425 1.388 . S
C1424 C1423 1.375 . S
C1424 C1428 1.380 1_556 S
C1425 H1400 0.951 . S
C1425 C1423 1.388 . S
C1425 C1426 1.366 . S
C1426 C1425 1.366 . S
C1426 C1427 1.376 1_556 S
C1426 C1429 1.499 . S
C1427 H1401 0.976 . S
C1427 C1426 1.376 1_554 S
C1427 C1428 1.391 . S
C1428 H1402 0.950 . S
C1428 C1424 1.380 1_554 S
C1428 C1427 1.391 . S
C1429 C1426 1.499 . S
C1429 C1430 1.396 . S
C1429 C1431 1.389 . S
C1430 H1403 0.922 1_556 S
C1430 C1416 1.382 . S
C1430 C1429 1.396 . S
C1431 C1415 1.377 . S
C1431 C1429 1.389 . S
C1431 C1432 1.524 . S
C1432 C1431 1.524 . S
C1432 C1433 1.397 . S
C1432 C1437 1.363 . S
C1433 H1404 0.950 . S
C1433 C1432 1.397 . S
C1433 C1434 1.334 . S
C1434 H1405 0.950 . S
C1434 C1433 1.334 . S
C1434 C1435 1.287 . S
C1435 C1434 1.287 . S
C1435 C1436 1.524 . S
C1435 H1438 0.999 . S
C1436 H1406 0.950 . S
C1436 C1435 1.524 . S
C1436 C1437 1.415 . S
C1437 H1407 0.950 . S
C1437 C1432 1.363 . S
C1437 C1436 1.415 . S
H1438 C1435 0.999 . S
H1439 C1420 0.913 . S
H1440 C1458 0.951 . S
H1441 C1460 0.951 . S
H1442 C1462 0.950 . S
H1443 C1463 0.950 . S
H1444 C1465 0.950 . S
H1445 C1468 0.950 . S
H1446 C1469 0.950 . S
H1447 C1471 0.950 . S
H1448 C1472 0.950 . S
H1449 C1473 0.951 . S
H1450 C1475 0.951 . S
H1451 C1477 0.950 . S
H1452 C1478 0.950 . S
H1453 C1480 0.950 . S
H1454 C1483 0.950 . S
H1455 C1484 0.950 . S
H1456 C1486 0.950 . S
H1457 C1487 0.950 . S
C1458 H1440 0.951 . S
C1458 C1459 1.366 . S
C1458 C1460 1.388 . S
C1459 C1458 1.366 . S
C1459 C1463 1.385 . S
C1460 H1441 0.951 . S
C1460 C1458 1.388 . S
C1460 C1461 1.366 . S
C1461 C1460 1.366 . S
C1461 C1462 1.414 . S
C1461 C1464 1.499 . S
C1462 H1442 0.950 . S
C1462 C1461 1.414 . S
C1462 C1463 1.374 . S
C1463 H1443 0.950 . S
C1463 C1459 1.385 . S
C1463 C1462 1.374 . S
C1464 C1461 1.499 . S
C1464 C1465 1.373 . S
C1464 C1466 1.389 . S
C1465 H1444 0.950 . S
C1465 C1464 1.373 . S
C1465 C1481 1.377 . S
C1466 C1464 1.389 . S
C1466 C1467 1.524 . S
C1466 C1480 1.377 . S
C1467 C1466 1.524 . S
C1467 C1468 1.397 . S
C1467 C1472 1.363 . S
C1468 H1445 0.950 . S
C1468 C1467 1.397 . S
C1468 C1469 1.334 . S
C1469 H1446 0.950 . S
C1469 C1468 1.334 . S
C1469 C1470 1.287 . S
C1470 C1469 1.287 . S
C1470 C1471 1.524 . S
C1470 H1489 0.913 . S
C1471 H1447 0.950 . S
C1471 C1470 1.524 . S
C1471 C1472 1.415 . S
C1472 H1448 0.950 . S
C1472 C1467 1.363 . S
C1472 C1471 1.415 . S
C1473 H1449 0.951 . S
C1473 C1474 1.366 . S
C1473 C1475 1.388 . S
C1474 C1473 1.366 . S
C1474 C1478 1.385 . S
C1475 H1450 0.951 . S
C1475 C1473 1.388 . S
C1475 C1476 1.366 . S
C1476 C1475 1.366 . S
C1476 C1477 1.414 . S
C1476 C1479 1.499 . S
C1477 H1451 0.950 . S
C1477 C1476 1.414 . S
C1477 C1478 1.374 . S
C1478 H1452 0.950 . S
C1478 C1474 1.385 . S
C1478 C1477 1.374 . S
C1479 C1476 1.499 . S
C1479 C1480 1.373 . S
C1479 C1481 1.389 . S
C1480 H1453 0.950 . S
C1480 C1466 1.377 . S
C1480 C1479 1.373 . S
C1481 C1465 1.377 . S
C1481 C1479 1.389 . S
C1481 C1482 1.524 . S
C1482 C1481 1.524 . S
C1482 C1483 1.397 . S
C1482 C1487 1.363 . S
C1483 H1454 0.950 . S
C1483 C1482 1.397 . S
C1483 C1484 1.334 . S
C1484 H1455 0.950 . S
C1484 C1483 1.334 . S
C1484 C1485 1.287 . S
C1485 C1484 1.287 . S
C1485 C1486 1.524 . S
C1485 H1488 0.999 . S
C1486 H1456 0.950 . S
C1486 C1485 1.524 . S
C1486 C1487 1.415 . S
C1487 H1457 0.950 . S
C1487 C1482 1.363 . S
C1487 C1486 1.415 . S
H1488 C1485 0.999 . S
H1489 C1470 0.913 . S
H1490 C1508 0.951 . S
H1491 C1510 0.951 . S
H1492 C1512 0.950 . S
H1493 C1513 0.950 . S
H1494 C1515 0.950 . S
H1495 C1518 0.950 . S
H1496 C1519 0.950 . S
H1497 C1521 0.950 1_556 S
H1498 C1522 0.950 . S
H1499 C1523 0.951 . S
H1500 C1525 0.951 . S
H1501 C1527 0.950 . S
H1502 C1528 0.950 . S
H1503 C1530 0.950 . S
H1504 C1533 0.950 . S
H1505 C1534 0.950 . S
H1506 C1536 0.950 . S
H1507 C1537 0.950 . S
C1508 H1490 0.951 . S
C1508 C1509 1.366 . S
C1508 C1510 1.388 . S
C1509 C1508 1.366 . S
C1509 C1513 1.385 . S
C1510 H1491 0.951 . S
C1510 C1508 1.388 . S
C1510 C1511 1.366 . S
C1511 C1510 1.366 . S
C1511 C1512 1.414 . S
C1511 C1514 1.499 . S
C1512 H1492 0.950 . S
C1512 C1511 1.414 . S
C1512 C1513 1.374 . S
C1513 H1493 0.950 . S
C1513 C1509 1.385 . S
C1513 C1512 1.374 . S
C1514 C1511 1.499 . S
C1514 C1515 1.373 . S
C1514 C1516 1.389 . S
C1515 H1494 0.950 . S
C1515 C1514 1.373 . S
C1515 C1531 1.377 . S
C1516 C1514 1.389 . S
C1516 C1517 1.524 . S
C1516 C1530 1.377 . S
C1517 C1516 1.524 . S
C1517 C1518 1.397 . S
C1517 C1522 1.363 . S
C1518 H1495 0.950 . S
C1518 C1517 1.397 . S
C1518 C1519 1.334 . S
C1519 H1496 0.950 . S
C1519 C1518 1.334 . S
C1519 C1520 1.287 . S
C1520 C1519 1.287 . S
C1520 C1521 1.524 . S
C1520 H1539 0.913 . S
C1521 H1497 0.950 1_554 S
C1521 C1520 1.524 . S
C1521 C1522 1.415 . S
C1522 H1498 0.950 . S
C1522 C1517 1.363 . S
C1522 C1521 1.415 . S
C1523 H1499 0.951 . S
C1523 C1524 1.366 . S
C1523 C1525 1.388 . S
C1524 C1523 1.366 . S
C1524 C1528 1.385 . S
C1525 H1500 0.951 . S
C1525 C1523 1.388 . S
C1525 C1526 1.366 . S
C1526 C1525 1.366 . S
C1526 C1527 1.414 . S
C1526 C1529 1.499 . S
C1527 H1501 0.950 . S
C1527 C1526 1.414 . S
C1527 C1528 1.374 . S
C1528 H1502 0.950 . S
C1528 C1524 1.385 . S
C1528 C1527 1.374 . S
C1529 C1526 1.499 . S
C1529 C1530 1.373 . S
C1529 C1531 1.389 . S
C1530 H1503 0.950 . S
C1530 C1516 1.377 . S
C1530 C1529 1.373 . S
C1531 C1515 1.377 . S
C1531 C1529 1.389 . S
C1531 C1532 1.524 . S
C1532 C1531 1.524 . S
C1532 C1533 1.397 . S
C1532 C1537 1.363 . S
C1533 H1504 0.950 . S
C1533 C1532 1.397 . S
C1533 C1534 1.334 . S
C1534 H1505 0.950 . S
C1534 C1533 1.334 . S
C1534 C1535 1.287 . S
C1535 C1534 1.287 . S
C1535 C1536 1.524 . S
C1535 H1538 0.999 . S
C1536 H1506 0.950 . S
C1536 C1535 1.524 . S
C1536 C1537 1.415 . S
C1537 H1507 0.950 . S
C1537 C1532 1.363 . S
C1537 C1536 1.415 . S
H1538 C1535 0.999 . S
H1539 C1520 0.913 . S
H1540 C1558 0.951 . S
H1541 C1560 0.951 . S
H1542 C1562 0.950 . S
H1543 C1563 0.950 . S
H1544 C1565 0.950 . S
H1545 C1568 0.950 . S
H1546 C1569 0.950 . S
H1547 C1571 0.950 . S
H1548 C1572 0.950 . S
H1549 C1573 0.951 . S
H1550 C1575 0.951 . S
H1551 C1577 0.950 . S
H1552 C1578 0.950 . S
H1553 C1580 0.950 . S
H1554 C1583 0.950 . S
H1555 C1584 0.950 1_556 S
H1556 C1586 0.950 . S
H1557 C1587 0.950 . S
C1558 H1540 0.951 . S
C1558 C1559 1.366 . S
C1558 C1560 1.388 . S
C1559 C1558 1.366 . S
C1559 C1563 1.385 . S
C1560 H1541 0.951 . S
C1560 C1558 1.388 . S
C1560 C1561 1.366 . S
C1561 C1560 1.366 . S
C1561 C1562 1.414 . S
C1561 C1564 1.499 . S
C1562 H1542 0.950 . S
C1562 C1561 1.414 . S
C1562 C1563 1.374 . S
C1563 H1543 0.950 . S
C1563 C1559 1.385 . S
C1563 C1562 1.374 . S
C1564 C1561 1.499 . S
C1564 C1565 1.373 . S
C1564 C1566 1.389 . S
C1565 H1544 0.950 . S
C1565 C1564 1.373 . S
C1565 C1581 1.377 . S
C1566 C1564 1.389 . S
C1566 C1567 1.524 . S
C1566 C1580 1.377 . S
C1567 C1566 1.524 . S
C1567 C1568 1.397 . S
C1567 C1572 1.363 . S
C1568 H1545 0.950 . S
C1568 C1567 1.397 . S
C1568 C1569 1.334 . S
C1569 H1546 0.950 . S
C1569 C1568 1.334 . S
C1569 C1570 1.287 . S
C1570 C1569 1.287 . S
C1570 C1571 1.524 . S
C1570 H1589 0.913 . S
C1571 H1547 0.950 . S
C1571 C1570 1.524 . S
C1571 C1572 1.415 . S
C1572 H1548 0.950 . S
C1572 C1567 1.363 . S
C1572 C1571 1.415 . S
C1573 H1549 0.951 . S
C1573 C1574 1.366 . S
C1573 C1575 1.388 . S
C1574 C1573 1.366 . S
C1574 C1578 1.385 . S
C1575 H1550 0.951 . S
C1575 C1573 1.388 . S
C1575 C1576 1.366 . S
C1576 C1575 1.366 . S
C1576 C1577 1.414 . S
C1576 C1579 1.499 . S
C1577 H1551 0.950 . S
C1577 C1576 1.414 . S
C1577 C1578 1.374 . S
C1578 H1552 0.950 . S
C1578 C1574 1.385 . S
C1578 C1577 1.374 . S
C1579 C1576 1.499 . S
C1579 C1580 1.373 . S
C1579 C1581 1.389 . S
C1580 H1553 0.950 . S
C1580 C1566 1.377 . S
C1580 C1579 1.373 . S
C1581 C1565 1.377 . S
C1581 C1579 1.389 . S
C1581 C1582 1.524 . S
C1582 C1581 1.524 . S
C1582 C1583 1.397 . S
C1582 C1587 1.363 . S
C1583 H1554 0.950 . S
C1583 C1582 1.397 . S
C1583 C1584 1.334 . S
C1584 H1555 0.950 1_554 S
C1584 C1583 1.334 . S
C1584 C1585 1.287 . S
C1585 C1584 1.287 . S
C1585 C1586 1.524 . S
C1585 H1588 0.999 . S
C1586 H1556 0.950 . S
C1586 C1585 1.524 . S
C1586 C1587 1.415 . S
C1587 H1557 0.950 . S
C1587 C1582 1.363 . S
C1587 C1586 1.415 . S
H1588 C1585 0.999 . S
H1589 C1570 0.913 . S
H1590 C1608 0.951 . S
H1591 C1610 0.951 . S
H1592 C1612 0.950 . S
H1593 C1613 0.950 . S
H1594 C1615 0.950 . S
H1595 C1618 0.950 . S
H1596 C1619 0.950 . S
H1597 C1621 0.950 . S
H1598 C1622 0.950 . S
H1599 C1623 0.951 . S
H1600 C1625 0.951 . S
H1601 C1627 0.950 . S
H1602 C1628 0.950 . S
H1603 C1630 0.950 . S
H1604 C1633 0.950 . S
H1605 C1634 0.950 . S
H1606 C1636 0.955 . S
H1607 C1637 0.950 . S
C1608 H1590 0.951 . S
C1608 C1609 1.366 . S
C1608 C1610 1.388 . S
C1609 C1608 1.366 . S
C1609 C1613 1.385 . S
C1610 H1591 0.951 . S
C1610 C1608 1.388 . S
C1610 C1611 1.366 . S
C1611 C1610 1.366 . S
C1611 C1612 1.414 . S
C1611 C1614 1.499 . S
C1612 H1592 0.950 . S
C1612 C1611 1.414 . S
C1612 C1613 1.374 . S
C1613 H1593 0.950 . S
C1613 C1609 1.385 . S
C1613 C1612 1.374 . S
C1614 C1611 1.499 . S
C1614 C1615 1.373 . S
C1614 C1616 1.389 1_655 S
C1615 H1594 0.950 . S
C1615 C1614 1.373 . S
C1615 C1631 1.377 1_655 S
C1616 C1614 1.389 1_455 S
C1616 C1617 1.524 . S
C1616 C1630 1.377 . S
C1617 C1616 1.524 . S
C1617 C1618 1.397 . S
C1617 C1622 1.363 . S
C1618 H1595 0.950 . S
C1618 C1617 1.397 . S
C1618 C1619 1.334 . S
C1619 H1596 0.950 . S
C1619 C1618 1.334 . S
C1619 C1620 1.287 . S
C1620 C1619 1.287 . S
C1620 C1621 1.524 . S
C1620 H1639 0.913 . S
C1621 H1597 0.950 . S
C1621 C1620 1.524 . S
C1621 C1622 1.415 . S
C1622 H1598 0.950 . S
C1622 C1617 1.363 . S
C1622 C1621 1.415 . S
C1623 H1599 0.951 . S
C1623 C1624 1.366 . S
C1623 C1625 1.388 . S
C1624 C1623 1.366 . S
C1624 C1628 1.385 . S
C1625 H1600 0.951 . S
C1625 C1623 1.388 . S
C1625 C1626 1.366 . S
C1626 C1625 1.366 . S
C1626 C1627 1.414 . S
C1626 C1629 1.499 . S
C1627 H1601 0.950 . S
C1627 C1626 1.414 . S
C1627 C1628 1.374 . S
C1628 H1602 0.950 . S
C1628 C1624 1.385 . S
C1628 C1627 1.374 . S
C1629 C1626 1.499 . S
C1629 C1630 1.373 . S
C1629 C1631 1.389 . S
C1630 H1603 0.950 . S
C1630 C1616 1.377 . S
C1630 C1629 1.373 . S
C1631 C1615 1.377 1_455 S
C1631 C1629 1.389 . S
C1631 C1632 1.524 . S
C1632 C1631 1.524 . S
C1632 C1633 1.397 . S
C1632 C1637 1.363 . S
C1633 H1604 0.950 . S
C1633 C1632 1.397 . S
C1633 C1634 1.334 . S
C1634 H1605 0.950 . S
C1634 C1633 1.334 . S
C1634 C1635 1.287 . S
C1635 C1634 1.287 . S
C1635 C1636 1.524 . S
C1635 H1638 0.999 . S
C1636 H1606 0.955 . S
C1636 C1635 1.524 . S
C1636 C1637 1.415 . S
C1637 H1607 0.950 . S
C1637 C1632 1.363 . S
C1637 C1636 1.415 . S
H1638 C1635 0.999 . S
H1639 C1620 0.913 . S
H1640 C1658 0.951 . S
H1641 C1660 0.951 . S
H1642 C1662 0.950 . S
H1643 C1663 0.950 . S
H1644 C1665 0.950 . S
H1645 C1668 0.950 . S
H1646 C1669 0.950 . S
H1647 C1671 0.950 . S
H1648 C1672 0.950 . S
H1649 C1673 0.951 . S
H1650 C1675 0.951 . S
H1651 C1677 0.950 . S
H1652 C1678 0.950 . S
H1653 C1680 0.950 . S
H1654 C1683 0.950 . S
H1655 C1684 0.950 . S
H1656 C1686 0.950 . S
H1657 C1687 0.950 . S
C1658 H1640 0.951 . S
C1658 C1659 1.366 . S
C1658 C1660 1.388 . S
C1659 C1658 1.366 . S
C1659 C1663 1.385 . S
C1660 H1641 0.951 . S
C1660 C1658 1.388 . S
C1660 C1661 1.366 . S
C1661 C1660 1.366 . S
C1661 C1662 1.414 . S
C1661 C1664 1.499 . S
C1662 H1642 0.950 . S
C1662 C1661 1.414 . S
C1662 C1663 1.374 . S
C1663 H1643 0.950 . S
C1663 C1659 1.385 . S
C1663 C1662 1.374 . S
C1664 C1661 1.499 . S
C1664 C1665 1.373 . S
C1664 C1666 1.389 . S
C1665 H1644 0.950 . S
C1665 C1664 1.373 . S
C1665 C1681 1.377 . S
C1666 C1664 1.389 . S
C1666 C1667 1.524 . S
C1666 C1680 1.377 . S
C1667 C1666 1.524 . S
C1667 C1668 1.397 . S
C1667 C1672 1.363 . S
C1668 H1645 0.950 . S
C1668 C1667 1.397 . S
C1668 C1669 1.334 . S
C1669 H1646 0.950 . S
C1669 C1668 1.334 . S
C1669 C1670 1.287 . S
C1670 C1669 1.287 . S
C1670 C1671 1.524 . S
C1670 H1689 0.913 . S
C1671 H1647 0.950 . S
C1671 C1670 1.524 . S
C1671 C1672 1.415 . S
C1672 H1648 0.950 . S
C1672 C1667 1.363 . S
C1672 C1671 1.415 . S
C1673 H1649 0.951 . S
C1673 C1674 1.366 . S
C1673 C1675 1.388 . S
C1674 C1673 1.366 . S
C1674 C1678 1.385 . S
C1675 H1650 0.951 . S
C1675 C1673 1.388 . S
C1675 C1676 1.366 . S
C1676 C1675 1.366 . S
C1676 C1677 1.414 . S
C1676 C1679 1.499 . S
C1677 H1651 0.950 . S
C1677 C1676 1.414 . S
C1677 C1678 1.374 . S
C1678 H1652 0.950 . S
C1678 C1674 1.385 . S
C1678 C1677 1.374 . S
C1679 C1676 1.499 . S
C1679 C1680 1.373 . S
C1679 C1681 1.389 . S
C1680 H1653 0.950 . S
C1680 C1666 1.377 . S
C1680 C1679 1.373 . S
C1681 C1665 1.377 . S
C1681 C1679 1.389 . S
C1681 C1682 1.524 . S
C1682 C1681 1.524 . S
C1682 C1683 1.397 . S
C1682 C1687 1.363 . S
C1683 H1654 0.950 . S
C1683 C1682 1.397 . S
C1683 C1684 1.334 . S
C1684 H1655 0.950 . S
C1684 C1683 1.334 . S
C1684 C1685 1.287 . S
C1685 C1684 1.287 . S
C1685 C1686 1.524 . S
C1685 H1688 0.999 . S
C1686 H1656 0.950 . S
C1686 C1685 1.524 . S
C1686 C1687 1.415 . S
C1687 H1657 0.950 . S
C1687 C1682 1.363 . S
C1687 C1686 1.415 . S
H1688 C1685 0.999 . S
H1689 C1670 0.913 . S
H1690 C1708 0.951 . S
H1691 C1710 0.951 . S
H1692 C1712 0.950 . S
H1693 C1713 0.950 . S
H1694 C1715 0.950 . S
H1695 C1718 0.950 . S
H1696 C1719 0.950 . S
H1697 C1721 0.950 . S
H1698 C1722 0.950 . S
H1699 C1723 0.951 . S
H1700 C1725 0.951 . S
H1701 C1727 0.950 . S
H1702 C1728 0.950 . S
H1703 C1730 0.961 . S
H1704 C1733 0.950 . S
H1705 C1734 0.950 . S
H1706 C1736 0.950 . S
H1707 C1737 0.950 . S
C1708 H1690 0.951 . S
C1708 C1709 1.366 . S
C1708 C1710 1.388 . S
C1709 C1708 1.366 . S
C1709 C1713 1.385 . S
C1710 H1691 0.951 . S
C1710 C1708 1.388 . S
C1710 C1711 1.366 . S
C1711 C1710 1.366 . S
C1711 C1712 1.414 . S
C1711 C1714 1.499 . S
C1712 H1692 0.950 . S
C1712 C1711 1.414 . S
C1712 C1713 1.374 . S
C1713 H1693 0.950 . S
C1713 C1709 1.385 . S
C1713 C1712 1.374 . S
C1714 C1711 1.499 . S
C1714 C1715 1.373 . S
C1714 C1716 1.389 . S
C1715 H1694 0.950 . S
C1715 C1714 1.373 . S
C1715 C1731 1.377 1_545 S
C1716 C1714 1.389 . S
C1716 C1717 1.524 . S
C1716 C1730 1.344 1_545 S
C1717 C1716 1.524 . S
C1717 C1718 1.397 . S
C1717 C1722 1.363 . S
C1718 H1695 0.950 . S
C1718 C1717 1.397 . S
C1718 C1719 1.334 . S
C1719 H1696 0.950 . S
C1719 C1718 1.334 . S
C1719 C1720 1.287 . S
C1720 C1719 1.287 . S
C1720 C1721 1.524 . S
C1720 H1739 0.913 . S
C1721 H1697 0.950 . S
C1721 C1720 1.524 . S
C1721 C1722 1.415 . S
C1722 H1698 0.950 . S
C1722 C1717 1.363 . S
C1722 C1721 1.415 . S
C1723 H1699 0.951 . S
C1723 C1724 1.366 . S
C1723 C1725 1.388 . S
C1724 C1723 1.366 . S
C1724 C1728 1.385 . S
C1725 H1700 0.951 . S
C1725 C1723 1.388 . S
C1725 C1726 1.366 . S
C1726 C1725 1.366 . S
C1726 C1727 1.414 . S
C1726 C1729 1.499 . S
C1727 H1701 0.950 . S
C1727 C1726 1.414 . S
C1727 C1728 1.374 . S
C1728 H1702 0.950 . S
C1728 C1724 1.385 . S
C1728 C1727 1.374 . S
C1729 C1726 1.499 . S
C1729 C1730 1.396 . S
C1729 C1731 1.389 . S
C1730 H1703 0.961 . S
C1730 C1716 1.344 1_565 S
C1730 C1729 1.396 . S
C1731 C1715 1.377 1_565 S
C1731 C1729 1.389 . S
C1731 C1732 1.524 . S
C1732 C1731 1.524 . S
C1732 C1733 1.397 . S
C1732 C1737 1.363 . S
C1733 H1704 0.950 . S
C1733 C1732 1.397 . S
C1733 C1734 1.334 . S
C1734 H1705 0.950 . S
C1734 C1733 1.334 . S
C1734 C1735 1.287 . S
C1735 C1734 1.287 . S
C1735 C1736 1.524 . S
C1735 H1738 0.999 . S
C1736 H1706 0.950 . S
C1736 C1735 1.524 . S
C1736 C1737 1.415 . S
C1737 H1707 0.950 . S
C1737 C1732 1.363 . S
C1737 C1736 1.415 . S
H1738 C1735 0.999 . S
H1739 C1720 0.913 . S
H1740 C1758 0.951 . S
H1741 C1760 0.951 . S
H1742 C1762 0.950 . S
H1743 C1763 0.950 . S
H1744 C1765 0.950 . S
H1745 C1768 0.950 . S
H1746 C1769 0.950 . S
H1747 C1771 0.950 . S
H1748 C1772 0.950 . S
H1749 C1773 0.951 . S
H1750 C1775 0.951 . S
H1751 C1777 0.950 . S
H1752 C1778 0.950 . S
H1753 C1780 0.950 . S
H1754 C1783 0.950 . S
H1755 C1784 0.950 . S
H1756 C1786 0.950 . S
H1757 C1787 0.950 . S
C1758 H1740 0.951 . S
C1758 C1759 1.366 . S
C1758 C1760 1.388 . S
C1759 C1758 1.366 . S
C1759 C1763 1.385 . S
C1760 H1741 0.951 . S
C1760 C1758 1.388 . S
C1760 C1761 1.366 . S
C1761 C1760 1.366 . S
C1761 C1762 1.414 . S
C1761 C1764 1.499 . S
C1762 H1742 0.950 . S
C1762 C1761 1.414 . S
C1762 C1763 1.374 . S
C1763 H1743 0.950 . S
C1763 C1759 1.385 . S
C1763 C1762 1.374 . S
C1764 C1761 1.499 . S
C1764 C1765 1.373 . S
C1764 C1766 1.389 . S
C1765 H1744 0.950 . S
C1765 C1764 1.373 . S
C1765 C1781 1.377 . S
C1766 C1764 1.389 . S
C1766 C1767 1.524 . S
C1766 C1780 1.377 . S
C1767 C1766 1.524 . S
C1767 C1768 1.397 . S
C1767 C1772 1.363 . S
C1768 H1745 0.950 . S
C1768 C1767 1.397 . S
C1768 C1769 1.334 . S
C1769 H1746 0.950 . S
C1769 C1768 1.334 . S
C1769 C1770 1.287 . S
C1770 C1769 1.287 . S
C1770 C1771 1.524 . S
C1770 H1789 0.913 . S
C1771 H1747 0.950 . S
C1771 C1770 1.524 . S
C1771 C1772 1.415 . S
C1772 H1748 0.950 . S
C1772 C1767 1.363 . S
C1772 C1771 1.415 . S
C1773 H1749 0.951 . S
C1773 C1774 1.366 . S
C1773 C1775 1.388 . S
C1774 C1773 1.366 . S
C1774 C1778 1.385 . S
C1775 H1750 0.951 . S
C1775 C1773 1.388 . S
C1775 C1776 1.366 . S
C1776 C1775 1.366 . S
C1776 C1777 1.414 . S
C1776 C1779 1.499 . S
C1777 H1751 0.950 . S
C1777 C1776 1.414 . S
C1777 C1778 1.374 . S
C1778 H1752 0.950 . S
C1778 C1774 1.385 . S
C1778 C1777 1.374 . S
C1779 C1776 1.499 . S
C1779 C1780 1.373 . S
C1779 C1781 1.389 . S
C1780 H1753 0.950 . S
C1780 C1766 1.377 . S
C1780 C1779 1.373 . S
C1781 C1765 1.377 . S
C1781 C1779 1.389 . S
C1781 C1782 1.524 . S
C1782 C1781 1.524 . S
C1782 C1783 1.397 . S
C1782 C1787 1.363 . S
C1783 H1754 0.950 . S
C1783 C1782 1.397 . S
C1783 C1784 1.334 . S
C1784 H1755 0.950 . S
C1784 C1783 1.334 . S
C1784 C1785 1.287 . S
C1785 C1784 1.287 . S
C1785 C1786 1.524 . S
C1785 H1788 0.999 . S
C1786 H1756 0.950 . S
C1786 C1785 1.524 . S
C1786 C1787 1.415 . S
C1787 H1757 0.950 . S
C1787 C1782 1.363 . S
C1787 C1786 1.415 . S
H1788 C1785 0.999 . S
H1789 C1770 0.913 . S
H1790 C1808 0.951 . S
H1791 C1810 0.951 . S
H1792 C1812 0.950 . S
H1793 C1813 0.950 . S
H1794 C1815 0.950 . S
H1795 C1818 0.950 . S
H1796 C1819 0.950 . S
H1797 C1821 0.950 . S
H1798 C1822 0.950 . S
H1799 C1823 0.951 . S
H1800 C1825 0.951 . S
H1801 C1827 0.950 . S
H1802 C1828 0.950 . S
H1803 C1830 0.950 . S
H1804 C1833 0.950 . S
H1805 C1834 0.950 . S
H1806 C1836 0.950 . S
H1807 C1837 0.950 . S
C1808 H1790 0.951 . S
C1808 C1809 1.366 . S
C1808 C1810 1.388 . S
C1809 C1808 1.366 . S
C1809 C1813 1.385 . S
C1810 H1791 0.951 . S
C1810 C1808 1.388 . S
C1810 C1811 1.366 . S
C1811 C1810 1.366 . S
C1811 C1812 1.414 . S
C1811 C1814 1.499 . S
C1812 H1792 0.950 . S
C1812 C1811 1.414 . S
C1812 C1813 1.374 . S
C1813 H1793 0.950 . S
C1813 C1809 1.385 . S
C1813 C1812 1.374 . S
C1814 C1811 1.499 . S
C1814 C1815 1.373 . S
C1814 C1816 1.389 . S
C1815 H1794 0.950 . S
C1815 C1814 1.373 . S
C1815 C1831 1.377 . S
C1816 C1814 1.389 . S
C1816 C1817 1.524 . S
C1816 C1830 1.377 . S
C1817 C1816 1.524 . S
C1817 C1818 1.397 . S
C1817 C1822 1.363 . S
C1818 H1795 0.950 . S
C1818 C1817 1.397 . S
C1818 C1819 1.334 . S
C1819 H1796 0.950 . S
C1819 C1818 1.334 . S
C1819 C1820 1.287 . S
C1820 C1819 1.287 . S
C1820 C1821 1.524 . S
C1820 H1839 0.913 . S
C1821 H1797 0.950 . S
C1821 C1820 1.524 . S
C1821 C1822 1.415 . S
C1822 H1798 0.950 . S
C1822 C1817 1.363 . S
C1822 C1821 1.415 . S
C1823 H1799 0.951 . S
C1823 C1824 1.366 . S
C1823 C1825 1.388 . S
C1824 C1823 1.366 . S
C1824 C1828 1.385 . S
C1825 H1800 0.951 . S
C1825 C1823 1.388 . S
C1825 C1826 1.366 . S
C1826 C1825 1.366 . S
C1826 C1827 1.414 . S
C1826 C1829 1.499 . S
C1827 H1801 0.950 . S
C1827 C1826 1.414 . S
C1827 C1828 1.374 . S
C1828 H1802 0.950 . S
C1828 C1824 1.385 . S
C1828 C1827 1.374 . S
C1829 C1826 1.499 . S
C1829 C1830 1.373 . S
C1829 C1831 1.389 . S
C1830 H1803 0.950 . S
C1830 C1816 1.377 . S
C1830 C1829 1.373 . S
C1831 C1815 1.377 . S
C1831 C1829 1.389 . S
C1831 C1832 1.524 . S
C1832 C1831 1.524 . S
C1832 C1833 1.397 . S
C1832 C1837 1.363 . S
C1833 H1804 0.950 . S
C1833 C1832 1.397 . S
C1833 C1834 1.334 . S
C1834 H1805 0.950 . S
C1834 C1833 1.334 . S
C1834 C1835 1.287 . S
C1835 C1834 1.287 . S
C1835 C1836 1.524 . S
C1835 H1838 0.999 . S
C1836 H1806 0.950 . S
C1836 C1835 1.524 . S
C1836 C1837 1.415 . S
C1837 H1807 0.950 . S
C1837 C1832 1.363 . S
C1837 C1836 1.415 . S
H1838 C1835 0.999 . S
H1839 C1820 0.913 . S
H1840 C1858 0.951 . S
H1841 C1860 0.951 . S
H1842 C1862 0.950 . S
H1843 C1863 0.950 . S
H1844 C1865 0.950 . S
H1845 C1868 0.950 . S
H1846 C1869 0.950 . S
H1847 C1871 0.950 . S
H1848 C1872 0.950 . S
H1849 C1873 0.951 . S
H1850 C1875 0.951 . S
H1851 C1877 0.950 . S
H1852 C1878 0.950 . S
H1853 C1880 0.950 . S
H1854 C1883 0.950 . S
H1855 C1884 0.950 . S
H1856 C1886 0.950 . S
H1857 C1887 0.950 . S
C1858 H1840 0.951 . S
C1858 C1859 1.366 . S
C1858 C1860 1.388 . S
C1859 C1858 1.366 . S
C1859 C1863 1.385 . S
C1860 H1841 0.951 . S
C1860 C1858 1.388 . S
C1860 C1861 1.366 . S
C1861 C1860 1.366 . S
C1861 C1862 1.414 . S
C1861 C1864 1.499 . S
C1862 H1842 0.950 . S
C1862 C1861 1.414 . S
C1862 C1863 1.374 . S
C1863 H1843 0.950 . S
C1863 C1859 1.385 . S
C1863 C1862 1.374 . S
C1864 C1861 1.499 . S
C1864 C1865 1.373 . S
C1864 C1866 1.389 . S
C1865 H1844 0.950 . S
C1865 C1864 1.373 . S
C1865 C1881 1.377 . S
C1866 C1864 1.389 . S
C1866 C1867 1.524 . S
C1866 C1880 1.377 . S
C1867 C1866 1.524 . S
C1867 C1868 1.397 . S
C1867 C1872 1.363 . S
C1868 H1845 0.950 . S
C1868 C1867 1.397 . S
C1868 C1869 1.334 . S
C1869 H1846 0.950 . S
C1869 C1868 1.334 . S
C1869 C1870 1.287 . S
C1870 C1869 1.287 . S
C1870 C1871 1.524 . S
C1870 H1889 0.913 . S
C1871 H1847 0.950 . S
C1871 C1870 1.524 . S
C1871 C1872 1.415 . S
C1872 H1848 0.950 . S
C1872 C1867 1.363 . S
C1872 C1871 1.415 . S
C1873 H1849 0.951 . S
C1873 C1874 1.366 . S
C1873 C1875 1.388 . S
C1874 C1873 1.366 . S
C1874 C1878 1.385 . S
C1875 H1850 0.951 . S
C1875 C1873 1.388 . S
C1875 C1876 1.366 . S
C1876 C1875 1.366 . S
C1876 C1877 1.414 . S
C1876 C1879 1.499 . S
C1877 H1851 0.950 . S
C1877 C1876 1.414 . S
C1877 C1878 1.374 . S
C1878 H1852 0.950 . S
C1878 C1874 1.385 . S
C1878 C1877 1.374 . S
C1879 C1876 1.499 . S
C1879 C1880 1.373 . S
C1879 C1881 1.389 . S
C1880 H1853 0.950 . S
C1880 C1866 1.377 . S
C1880 C1879 1.373 . S
C1881 C1865 1.377 . S
C1881 C1879 1.389 . S
C1881 C1882 1.524 . S
C1882 C1881 1.524 . S
C1882 C1883 1.397 . S
C1882 C1887 1.363 . S
C1883 H1854 0.950 . S
C1883 C1882 1.397 . S
C1883 C1884 1.334 . S
C1884 H1855 0.950 . S
C1884 C1883 1.334 . S
C1884 C1885 1.287 . S
C1885 C1884 1.287 . S
C1885 C1886 1.524 . S
C1885 H1888 0.999 . S
C1886 H1856 0.950 . S
C1886 C1885 1.524 . S
C1886 C1887 1.415 . S
C1887 H1857 0.950 . S
C1887 C1882 1.363 . S
C1887 C1886 1.415 . S
H1888 C1885 0.999 . S
H1889 C1870 0.913 . S
H1890 C1908 0.951 . S
H1891 C1910 0.951 . S
H1892 C1912 0.950 . S
H1893 C1913 0.950 . S
H1894 C1915 0.950 . S
H1895 C1918 0.950 . S
H1896 C1919 0.950 . S
H1897 C1921 0.950 . S
H1898 C1922 0.950 . S
H1899 C1923 0.951 . S
H1900 C1925 0.951 . S
H1901 C1927 0.950 . S
H1902 C1928 0.950 . S
H1903 C1930 0.950 . S
H1904 C1933 0.950 . S
H1905 C1934 0.950 . S
H1906 C1936 0.950 . S
H1907 C1937 0.950 . S
C1908 H1890 0.951 . S
C1908 C1909 1.366 . S
C1908 C1910 1.388 . S
C1909 C1908 1.366 . S
C1909 C1913 1.385 . S
C1910 H1891 0.951 . S
C1910 C1908 1.388 . S
C1910 C1911 1.366 . S
C1911 C1910 1.366 . S
C1911 C1912 1.414 . S
C1911 C1914 1.499 . S
C1912 H1892 0.950 . S
C1912 C1911 1.414 . S
C1912 C1913 1.374 . S
C1913 H1893 0.950 . S
C1913 C1909 1.385 . S
C1913 C1912 1.374 . S
C1914 C1911 1.499 . S
C1914 C1915 1.373 . S
C1914 C1916 1.389 . S
C1915 H1894 0.950 . S
C1915 C1914 1.373 . S
C1915 C1931 1.377 . S
C1916 C1914 1.389 . S
C1916 C1917 1.524 . S
C1916 C1930 1.377 . S
C1917 C1916 1.524 . S
C1917 C1918 1.397 . S
C1917 C1922 1.363 . S
C1918 H1895 0.950 . S
C1918 C1917 1.397 . S
C1918 C1919 1.334 . S
C1919 H1896 0.950 . S
C1919 C1918 1.334 . S
C1919 C1920 1.287 . S
C1920 C1919 1.287 . S
C1920 C1921 1.524 . S
C1920 H1939 0.913 . S
C1921 H1897 0.950 . S
C1921 C1920 1.524 . S
C1921 C1922 1.415 . S
C1922 H1898 0.950 . S
C1922 C1917 1.363 . S
C1922 C1921 1.415 . S
C1923 H1899 0.951 . S
C1923 C1924 1.366 . S
C1923 C1925 1.388 . S
C1924 C1923 1.366 . S
C1924 C1928 1.385 . S
C1925 H1900 0.951 . S
C1925 C1923 1.388 . S
C1925 C1926 1.366 . S
C1926 C1925 1.366 . S
C1926 C1927 1.414 . S
C1926 C1929 1.499 . S
C1927 H1901 0.950 . S
C1927 C1926 1.414 . S
C1927 C1928 1.374 . S
C1928 H1902 0.950 . S
C1928 C1924 1.385 . S
C1928 C1927 1.374 . S
C1929 C1926 1.499 . S
C1929 C1930 1.373 . S
C1929 C1931 1.389 . S
C1930 H1903 0.950 . S
C1930 C1916 1.377 . S
C1930 C1929 1.373 . S
C1931 C1915 1.377 . S
C1931 C1929 1.389 . S
C1931 C1932 1.524 . S
C1932 C1931 1.524 . S
C1932 C1933 1.397 . S
C1932 C1937 1.363 . S
C1933 H1904 0.950 . S
C1933 C1932 1.397 . S
C1933 C1934 1.334 . S
C1934 H1905 0.950 . S
C1934 C1933 1.334 . S
C1934 C1935 1.287 . S
C1935 C1934 1.287 . S
C1935 C1936 1.524 . S
C1935 H1938 0.999 . S
C1936 H1906 0.950 . S
C1936 C1935 1.524 . S
C1936 C1937 1.415 . S
C1937 H1907 0.950 . S
C1937 C1932 1.363 . S
C1937 C1936 1.415 . S
H1938 C1935 0.999 . S
H1939 C1920 0.913 . S
H1940 C1958 0.951 . S
H1941 C1960 0.951 . S
H1942 C1962 0.950 . S
H1943 C1963 0.950 . S
H1944 C1965 0.950 . S
H1945 C1968 0.950 . S
H1946 C1969 0.950 . S
H1947 C1971 0.950 . S
H1948 C1972 0.950 . S
H1949 C1973 0.951 . S
H1950 C1975 0.951 . S
H1951 C1977 0.950 . S
H1952 C1978 0.950 . S
H1953 C1980 0.950 . S
H1954 C1983 0.950 . S
H1955 C1984 0.950 . S
H1956 C1986 0.950 . S
H1957 C1987 0.950 . S
C1958 H1940 0.951 . S
C1958 C1959 1.366 . S
C1958 C1960 1.388 . S
C1959 C1958 1.366 . S
C1959 C1963 1.385 . S
C1960 H1941 0.951 . S
C1960 C1958 1.388 . S
C1960 C1961 1.366 . S
C1961 C1960 1.366 . S
C1961 C1962 1.414 . S
C1961 C1964 1.499 . S
C1962 H1942 0.950 . S
C1962 C1961 1.414 . S
C1962 C1963 1.374 . S
C1963 H1943 0.950 . S
C1963 C1959 1.385 . S
C1963 C1962 1.374 . S
C1964 C1961 1.499 . S
C1964 C1965 1.373 . S
C1964 C1966 1.389 . S
C1965 H1944 0.950 . S
C1965 C1964 1.373 . S
C1965 C1981 1.377 . S
C1966 C1964 1.389 . S
C1966 C1967 1.524 . S
C1966 C1980 1.377 . S
C1967 C1966 1.524 . S
C1967 C1968 1.397 . S
C1967 C1972 1.363 . S
C1968 H1945 0.950 . S
C1968 C1967 1.397 . S
C1968 C1969 1.334 . S
C1969 H1946 0.950 . S
C1969 C1968 1.334 . S
C1969 C1970 1.287 . S
C1970 C1969 1.287 . S
C1970 C1971 1.524 . S
C1970 H1989 0.913 . S
C1971 H1947 0.950 . S
C1971 C1970 1.524 . S
C1971 C1972 1.415 . S
C1972 H1948 0.950 . S
C1972 C1967 1.363 . S
C1972 C1971 1.415 . S
C1973 H1949 0.951 . S
C1973 C1974 1.366 . S
C1973 C1975 1.388 . S
C1974 C1973 1.366 . S
C1974 C1978 1.385 . S
C1975 H1950 0.951 . S
C1975 C1973 1.388 . S
C1975 C1976 1.366 . S
C1976 C1975 1.366 . S
C1976 C1977 1.414 . S
C1976 C1979 1.499 . S
C1977 H1951 0.950 . S
C1977 C1976 1.414 . S
C1977 C1978 1.374 . S
C1978 H1952 0.950 . S
C1978 C1974 1.385 . S
C1978 C1977 1.374 . S
C1979 C1976 1.499 . S
C1979 C1980 1.373 . S
C1979 C1981 1.389 . S
C1980 H1953 0.950 . S
C1980 C1966 1.377 . S
C1980 C1979 1.373 . S
C1981 C1965 1.377 . S
C1981 C1979 1.389 . S
C1981 C1982 1.524 . S
C1982 C1981 1.524 . S
C1982 C1983 1.397 . S
C1982 C1987 1.363 . S
C1983 H1954 0.950 . S
C1983 C1982 1.397 . S
C1983 C1984 1.334 . S
C1984 H1955 0.950 . S
C1984 C1983 1.334 . S
C1984 C1985 1.287 . S
C1985 C1984 1.287 . S
C1985 C1986 1.524 . S
C1985 H1988 0.999 . S
C1986 H1956 0.950 . S
C1986 C1985 1.524 . S
C1986 C1987 1.415 . S
C1987 H1957 0.950 . S
C1987 C1982 1.363 . S
C1987 C1986 1.415 . S
H1988 C1985 0.999 . S
H1989 C1970 0.913 . S
H1990 C2008 0.951 . S
H1991 C2010 0.951 . S
H1992 C2012 0.950 . S
H1993 C2013 0.950 . S
H1994 C2015 0.950 . S
H1995 C2018 0.950 . S
H1996 C2019 0.950 . S
H1997 C2021 0.950 . S
H1998 C2022 0.950 . S
H1999 C2023 0.951 . S
H2000 C2025 0.951 . S
H2001 C2027 0.950 . S
H2002 C2028 0.950 . S
H2003 C2030 0.950 . S
H2004 C2033 0.950 . S
H2005 C2034 0.950 . S
H2006 C2036 0.950 . S
H2007 C2037 0.950 . S
C2008 H1990 0.951 . S
C2008 C2009 1.366 . S
C2008 C2010 1.388 . S
C2009 C2008 1.366 . S
C2009 C2013 1.385 . S
C2010 H1991 0.951 . S
C2010 C2008 1.388 . S
C2010 C2011 1.366 . S
C2011 C2010 1.366 . S
C2011 C2012 1.414 . S
C2011 C2014 1.499 . S
C2012 H1992 0.950 . S
C2012 C2011 1.414 . S
C2012 C2013 1.374 . S
C2013 H1993 0.950 . S
C2013 C2009 1.385 . S
C2013 C2012 1.374 . S
C2014 C2011 1.499 . S
C2014 C2015 1.373 . S
C2014 C2016 1.389 . S
C2015 H1994 0.950 . S
C2015 C2014 1.373 . S
C2015 C2031 1.377 . S
C2016 C2014 1.389 . S
C2016 C2017 1.524 . S
C2016 C2030 1.377 . S
C2017 C2016 1.524 . S
C2017 C2018 1.397 . S
C2017 C2022 1.363 . S
C2018 H1995 0.950 . S
C2018 C2017 1.397 . S
C2018 C2019 1.334 . S
C2019 H1996 0.950 . S
C2019 C2018 1.334 . S
C2019 C2020 1.287 . S
C2020 C2019 1.287 . S
C2020 C2021 1.524 . S
C2020 H2039 0.913 . S
C2021 H1997 0.950 . S
C2021 C2020 1.524 . S
C2021 C2022 1.415 . S
C2022 H1998 0.950 . S
C2022 C2017 1.363 . S
C2022 C2021 1.415 . S
C2023 H1999 0.951 . S
C2023 C2024 1.366 . S
C2023 C2025 1.388 . S
C2024 C2023 1.366 . S
C2024 C2028 1.385 . S
C2025 H2000 0.951 . S
C2025 C2023 1.388 . S
C2025 C2026 1.366 . S
C2026 C2025 1.366 . S
C2026 C2027 1.414 . S
C2026 C2029 1.499 . S
C2027 H2001 0.950 . S
C2027 C2026 1.414 . S
C2027 C2028 1.374 . S
C2028 H2002 0.950 . S
C2028 C2024 1.385 . S
C2028 C2027 1.374 . S
C2029 C2026 1.499 . S
C2029 C2030 1.373 . S
C2029 C2031 1.389 . S
C2030 H2003 0.950 . S
C2030 C2016 1.377 . S
C2030 C2029 1.373 . S
C2031 C2015 1.377 . S
C2031 C2029 1.389 . S
C2031 C2032 1.524 . S
C2032 C2031 1.524 . S
C2032 C2033 1.397 . S
C2032 C2037 1.363 . S
C2033 H2004 0.950 . S
C2033 C2032 1.397 . S
C2033 C2034 1.334 . S
C2034 H2005 0.950 . S
C2034 C2033 1.334 . S
C2034 C2035 1.287 . S
C2035 C2034 1.287 . S
C2035 C2036 1.524 . S
C2035 H2038 0.999 . S
C2036 H2006 0.950 . S
C2036 C2035 1.524 . S
C2036 C2037 1.415 . S
C2037 H2007 0.950 . S
C2037 C2032 1.363 . S
C2037 C2036 1.415 . S
H2038 C2035 0.999 . S
H2039 C2020 0.913 . S
H2040 C2058 0.951 . S
H2041 C2060 0.951 1_565 S
H2042 C2062 0.950 . S
H2043 C2063 0.950 . S
H2044 C2065 0.950 . S
H2045 C2068 0.928 1_545 S
H2046 C2069 0.950 . S
H2047 C2071 0.950 . S
H2048 C2072 0.950 . S
H2049 C2073 0.951 . S
H2050 C2075 0.951 . S
H2051 C2077 0.950 . S
H2052 C2078 0.950 . S
H2053 C2080 0.950 . S
H2054 C2083 0.950 . S
H2055 C2084 0.950 . S
H2056 C2086 0.950 . S
H2057 C2087 0.950 . S
C2058 H2040 0.951 . S
C2058 C2059 1.366 . S
C2058 C2060 1.388 . S
C2059 C2058 1.366 . S
C2059 C2063 1.385 . S
C2060 H2041 0.951 1_545 S
C2060 C2058 1.388 . S
C2060 C2061 1.366 1_545 S
C2061 C2060 1.366 1_565 S
C2061 C2062 1.414 1_565 S
C2061 C2064 1.499 . S
C2062 H2042 0.950 . S
C2062 C2061 1.414 1_545 S
C2062 C2063 1.374 . S
C2063 H2043 0.950 . S
C2063 C2059 1.385 . S
C2063 C2062 1.374 . S
C2064 C2061 1.499 . S
C2064 C2065 1.373 . S
C2064 C2066 1.389 . S
C2065 H2044 0.950 . S
C2065 C2064 1.373 . S
C2065 C2081 1.377 . S
C2066 C2064 1.389 . S
C2066 C2067 1.524 . S
C2066 C2080 1.377 . S
C2067 C2066 1.524 . S
C2067 C2068 1.397 . S
C2067 C2072 1.363 . S
C2068 H2045 0.928 1_565 S
C2068 C2067 1.397 . S
C2068 C2069 1.334 1_565 S
C2069 H2046 0.950 . S
C2069 C2068 1.334 1_545 S
C2069 C2070 1.287 . S
C2070 C2069 1.287 . S
C2070 C2071 1.524 1_545 S
C2070 H2089 0.913 . S
C2071 H2047 0.950 . S
C2071 C2070 1.524 1_565 S
C2071 C2072 1.415 . S
C2072 H2048 0.950 . S
C2072 C2067 1.363 . S
C2072 C2071 1.415 . S
C2073 H2049 0.951 . S
C2073 C2074 1.366 . S
C2073 C2075 1.388 . S
C2074 C2073 1.366 . S
C2074 C2078 1.385 . S
C2075 H2050 0.951 . S
C2075 C2073 1.388 . S
C2075 C2076 1.366 . S
C2076 C2075 1.366 . S
C2076 C2077 1.414 . S
C2076 C2079 1.499 . S
C2077 H2051 0.950 . S
C2077 C2076 1.414 . S
C2077 C2078 1.374 . S
C2078 H2052 0.950 . S
C2078 C2074 1.385 . S
C2078 C2077 1.374 . S
C2079 C2076 1.499 . S
C2079 C2080 1.373 . S
C2079 C2081 1.389 . S
C2080 H2053 0.950 . S
C2080 C2066 1.377 . S
C2080 C2079 1.373 . S
C2081 C2065 1.377 . S
C2081 C2079 1.389 . S
C2081 C2082 1.524 . S
C2082 C2081 1.524 . S
C2082 C2083 1.397 . S
C2082 C2087 1.363 . S
C2083 H2054 0.950 . S
C2083 C2082 1.397 . S
C2083 C2084 1.334 . S
C2084 H2055 0.950 . S
C2084 C2083 1.334 . S
C2084 C2085 1.287 . S
C2085 C2084 1.287 . S
C2085 C2086 1.524 . S
C2085 H2088 0.999 . S
C2086 H2056 0.950 . S
C2086 C2085 1.524 . S
C2086 C2087 1.415 . S
C2087 H2057 0.950 . S
C2087 C2082 1.363 . S
C2087 C2086 1.415 . S
H2088 C2085 0.999 . S
H2089 C2070 0.913 . S
H2090 C2108 0.951 . S
H2091 C2110 0.951 . S
H2092 C2112 0.950 . S
H2093 C2113 0.950 . S
H2094 C2115 0.950 . S
H2095 C2118 0.950 . S
H2096 C2119 0.965 . S
H2097 C2121 0.950 . S
H2098 C2122 0.950 . S
H2099 C2123 0.951 . S
H2100 C2125 0.951 . S
H2101 C2127 0.950 . S
H2102 C2128 0.950 . S
H2103 C2130 0.950 . S
H2104 C2133 0.950 . S
H2105 C2134 0.950 . S
H2106 C2136 0.950 . S
H2107 C2137 0.950 . S
C2108 H2090 0.951 . S
C2108 C2109 1.366 . S
C2108 C2110 1.388 1_655 S
C2109 C2108 1.366 . S
C2109 C2113 1.385 . S
C2110 H2091 0.951 . S
C2110 C2108 1.388 1_455 S
C2110 C2111 1.366 . S
C2111 C2110 1.366 . S
C2111 C2112 1.414 . S
C2111 C2114 1.499 . S
C2112 H2092 0.950 . S
C2112 C2111 1.414 . S
C2112 C2113 1.374 1_455 S
C2113 H2093 0.950 . S
C2113 C2109 1.385 . S
C2113 C2112 1.374 1_655 S
C2114 C2111 1.499 . S
C2114 C2115 1.373 . S
C2114 C2116 1.389 . S
C2115 H2094 0.950 . S
C2115 C2114 1.373 . S
C2115 C2131 1.377 . S
C2116 C2114 1.389 . S
C2116 C2117 1.524 . S
C2116 C2130 1.377 . S
C2117 C2116 1.524 . S
C2117 C2118 1.397 . S
C2117 C2122 1.363 . S
C2118 H2095 0.950 . S
C2118 C2117 1.397 . S
C2118 C2119 1.316 1_455 S
C2119 H2096 0.965 . S
C2119 C2118 1.316 1_655 S
C2119 C2120 1.291 1_655 S
C2120 C2119 1.291 1_455 S
C2120 C2121 1.524 . S
C2120 H2139 0.913 1_455 S
C2121 H2097 0.950 . S
C2121 C2120 1.524 . S
C2121 C2122 1.415 . S
C2122 H2098 0.950 . S
C2122 C2117 1.363 . S
C2122 C2121 1.415 . S
C2123 H2099 0.951 . S
C2123 C2124 1.366 . S
C2123 C2125 1.388 . S
C2124 C2123 1.366 . S
C2124 C2128 1.385 . S
C2125 H2100 0.951 . S
C2125 C2123 1.388 . S
C2125 C2126 1.366 . S
C2126 C2125 1.366 . S
C2126 C2127 1.414 . S
C2126 C2129 1.499 . S
C2127 H2101 0.950 . S
C2127 C2126 1.414 . S
C2127 C2128 1.374 . S
C2128 H2102 0.950 . S
C2128 C2124 1.385 . S
C2128 C2127 1.374 . S
C2129 C2126 1.499 . S
C2129 C2130 1.373 . S
C2129 C2131 1.389 . S
C2130 H2103 0.950 . S
C2130 C2116 1.377 . S
C2130 C2129 1.373 . S
C2131 C2115 1.377 . S
C2131 C2129 1.389 . S
C2131 C2132 1.524 . S
C2132 C2131 1.524 . S
C2132 C2133 1.397 . S
C2132 C2137 1.363 . S
C2133 H2104 0.950 . S
C2133 C2132 1.397 . S
C2133 C2134 1.334 . S
C2134 H2105 0.950 . S
C2134 C2133 1.334 . S
C2134 C2135 1.287 . S
C2135 C2134 1.287 . S
C2135 C2136 1.524 . S
C2135 H2138 0.999 . S
C2136 H2106 0.950 . S
C2136 C2135 1.524 . S
C2136 C2137 1.415 . S
C2137 H2107 0.950 . S
C2137 C2132 1.363 . S
C2137 C2136 1.415 . S
H2138 C2135 0.999 . S
H2139 C2120 0.913 1_655 S
H2140 C2158 0.951 . S
H2141 C2160 0.951 . S
H2142 C2162 0.950 . S
H2143 C2163 0.950 . S
H2144 C2165 0.950 . S
H2145 C2168 0.950 . S
H2146 C2169 0.950 . S
H2147 C2171 0.950 . S
H2148 C2172 0.950 . S
H2149 C2173 0.951 . S
H2150 C2175 0.951 . S
H2151 C2177 0.950 . S
H2152 C2178 0.950 . S
H2153 C2180 0.950 . S
H2154 C2183 0.950 . S
H2155 C2184 0.950 . S
H2156 C2186 0.950 . S
H2157 C2187 0.950 . S
C2158 H2140 0.951 . S
C2158 C2159 1.366 . S
C2158 C2160 1.388 . S
C2159 C2158 1.366 . S
C2159 C2163 1.385 . S
C2160 H2141 0.951 . S
C2160 C2158 1.388 . S
C2160 C2161 1.366 . S
C2161 C2160 1.366 . S
C2161 C2162 1.414 . S
C2161 C2164 1.499 . S
C2162 H2142 0.950 . S
C2162 C2161 1.414 . S
C2162 C2163 1.374 . S
C2163 H2143 0.950 . S
C2163 C2159 1.385 . S
C2163 C2162 1.374 . S
C2164 C2161 1.499 . S
C2164 C2165 1.373 . S
C2164 C2166 1.389 . S
C2165 H2144 0.950 . S
C2165 C2164 1.373 . S
C2165 C2181 1.377 . S
C2166 C2164 1.389 . S
C2166 C2167 1.524 . S
C2166 C2180 1.377 . S
C2167 C2166 1.524 . S
C2167 C2168 1.397 . S
C2167 C2172 1.363 . S
C2168 H2145 0.950 . S
C2168 C2167 1.397 . S
C2168 C2169 1.334 . S
C2169 H2146 0.950 . S
C2169 C2168 1.334 . S
C2169 C2170 1.287 . S
C2170 C2169 1.287 . S
C2170 C2171 1.524 . S
C2170 H2189 0.913 . S
C2171 H2147 0.950 . S
C2171 C2170 1.524 . S
C2171 C2172 1.415 . S
C2172 H2148 0.950 . S
C2172 C2167 1.363 . S
C2172 C2171 1.415 . S
C2173 H2149 0.951 . S
C2173 C2174 1.366 . S
C2173 C2175 1.388 . S
C2174 C2173 1.366 . S
C2174 C2178 1.385 . S
C2175 H2150 0.951 . S
C2175 C2173 1.388 . S
C2175 C2176 1.366 . S
C2176 C2175 1.366 . S
C2176 C2177 1.414 . S
C2176 C2179 1.499 . S
C2177 H2151 0.950 . S
C2177 C2176 1.414 . S
C2177 C2178 1.374 . S
C2178 H2152 0.950 . S
C2178 C2174 1.385 . S
C2178 C2177 1.374 . S
C2179 C2176 1.499 . S
C2179 C2180 1.373 . S
C2179 C2181 1.389 . S
C2180 H2153 0.950 . S
C2180 C2166 1.377 . S
C2180 C2179 1.373 . S
C2181 C2165 1.377 . S
C2181 C2179 1.389 . S
C2181 C2182 1.524 . S
C2182 C2181 1.524 . S
C2182 C2183 1.397 . S
C2182 C2187 1.363 . S
C2183 H2154 0.950 . S
C2183 C2182 1.397 . S
C2183 C2184 1.334 . S
C2184 H2155 0.950 . S
C2184 C2183 1.334 . S
C2184 C2185 1.287 . S
C2185 C2184 1.287 . S
C2185 C2186 1.524 . S
C2185 H2188 0.999 . S
C2186 H2156 0.950 . S
C2186 C2185 1.524 . S
C2186 C2187 1.415 . S
C2187 H2157 0.950 . S
C2187 C2182 1.363 . S
C2187 C2186 1.415 . S
H2188 C2185 0.999 . S
H2189 C2170 0.913 . S
H2190 C2208 0.951 . S
H2191 C2210 0.951 . S
H2192 C2212 0.950 . S
H2193 C2213 0.950 . S
H2194 C2215 0.950 . S
H2195 C2218 0.950 . S
H2196 C2219 0.950 . S
H2197 C2221 0.950 . S
H2198 C2222 0.950 . S
H2199 C2223 0.951 . S
H2200 C2225 0.951 . S
H2201 C2227 0.950 . S
H2202 C2228 0.950 . S
H2203 C2230 0.950 . S
H2204 C2233 0.950 . S
H2205 C2234 0.950 . S
H2206 C2236 0.950 . S
H2207 C2237 0.950 . S
C2208 H2190 0.951 . S
C2208 C2209 1.366 . S
C2208 C2210 1.388 . S
C2209 C2208 1.366 . S
C2209 C2213 1.385 . S
C2210 H2191 0.951 . S
C2210 C2208 1.388 . S
C2210 C2211 1.366 . S
C2211 C2210 1.366 . S
C2211 C2212 1.414 . S
C2211 C2214 1.499 . S
C2212 H2192 0.950 . S
C2212 C2211 1.414 . S
C2212 C2213 1.374 . S
C2213 H2193 0.950 . S
C2213 C2209 1.385 . S
C2213 C2212 1.374 . S
C2214 C2211 1.499 . S
C2214 C2215 1.373 . S
C2214 C2216 1.389 . S
C2215 H2194 0.950 . S
C2215 C2214 1.373 . S
C2215 C2231 1.377 . S
C2216 C2214 1.389 . S
C2216 C2217 1.524 . S
C2216 C2230 1.377 . S
C2217 C2216 1.524 . S
C2217 C2218 1.397 . S
C2217 C2222 1.363 . S
C2218 H2195 0.950 . S
C2218 C2217 1.397 . S
C2218 C2219 1.334 . S
C2219 H2196 0.950 . S
C2219 C2218 1.334 . S
C2219 C2220 1.287 . S
C2220 C2219 1.287 . S
C2220 C2221 1.524 . S
C2220 H2239 0.913 . S
C2221 H2197 0.950 . S
C2221 C2220 1.524 . S
C2221 C2222 1.415 . S
C2222 H2198 0.950 . S
C2222 C2217 1.363 . S
C2222 C2221 1.415 . S
C2223 H2199 0.951 . S
C2223 C2224 1.366 . S
C2223 C2225 1.388 . S
C2224 C2223 1.366 . S
C2224 C2228 1.385 . S
C2225 H2200 0.951 . S
C2225 C2223 1.388 . S
C2225 C2226 1.366 . S
C2226 C2225 1.366 . S
C2226 C2227 1.414 . S
C2226 C2229 1.499 . S
C2227 H2201 0.950 . S
C2227 C2226 1.414 . S
C2227 C2228 1.374 . S
C2228 H2202 0.950 . S
C2228 C2224 1.385 . S
C2228 C2227 1.374 . S
C2229 C2226 1.499 . S
C2229 C2230 1.373 . S
C2229 C2231 1.389 . S
C2230 H2203 0.950 . S
C2230 C2216 1.377 . S
C2230 C2229 1.373 . S
C2231 C2215 1.377 . S
C2231 C2229 1.389 . S
C2231 C2232 1.524 . S
C2232 C2231 1.524 . S
C2232 C2233 1.397 . S
C2232 C2237 1.363 . S
C2233 H2204 0.950 . S
C2233 C2232 1.397 . S
C2233 C2234 1.334 . S
C2234 H2205 0.950 . S
C2234 C2233 1.334 . S
C2234 C2235 1.287 . S
C2235 C2234 1.287 . S
C2235 C2236 1.524 . S
C2235 H2238 0.999 . S
C2236 H2206 0.950 . S
C2236 C2235 1.524 . S
C2236 C2237 1.415 . S
C2237 H2207 0.950 . S
C2237 C2232 1.363 . S
C2237 C2236 1.415 . S
H2238 C2235 0.999 . S
H2239 C2220 0.913 . S
H2240 C2258 0.951 . S
H2241 C2260 0.951 . S
H2242 C2262 0.950 . S
H2243 C2263 0.950 . S
H2244 C2265 0.950 . S
H2245 C2268 0.950 . S
H2246 C2269 0.950 . S
H2247 C2271 0.950 . S
H2248 C2272 0.950 . S
H2249 C2273 0.951 . S
H2250 C2275 0.951 . S
H2251 C2277 0.950 . S
H2252 C2278 0.950 . S
H2253 C2280 0.950 . S
H2254 C2283 0.950 . S
H2255 C2284 0.950 . S
H2256 C2286 0.950 . S
H2257 C2287 0.950 . S
C2258 H2240 0.951 . S
C2258 C2259 1.366 . S
C2258 C2260 1.388 . S
C2259 C2258 1.366 . S
C2259 C2263 1.385 . S
C2260 H2241 0.951 . S
C2260 C2258 1.388 . S
C2260 C2261 1.366 . S
C2261 C2260 1.366 . S
C2261 C2262 1.414 . S
C2261 C2264 1.499 . S
C2262 H2242 0.950 . S
C2262 C2261 1.414 . S
C2262 C2263 1.374 . S
C2263 H2243 0.950 . S
C2263 C2259 1.385 . S
C2263 C2262 1.374 . S
C2264 C2261 1.499 . S
C2264 C2265 1.373 . S
C2264 C2266 1.389 . S
C2265 H2244 0.950 . S
C2265 C2264 1.373 . S
C2265 C2281 1.377 . S
C2266 C2264 1.389 . S
C2266 C2267 1.524 . S
C2266 C2280 1.377 . S
C2267 C2266 1.524 . S
C2267 C2268 1.397 . S
C2267 C2272 1.363 . S
C2268 H2245 0.950 . S
C2268 C2267 1.397 . S
C2268 C2269 1.334 . S
C2269 H2246 0.950 . S
C2269 C2268 1.334 . S
C2269 C2270 1.287 . S
C2270 C2269 1.287 . S
C2270 C2271 1.524 . S
C2270 H2289 0.913 . S
C2271 H2247 0.950 . S
C2271 C2270 1.524 . S
C2271 C2272 1.415 . S
C2272 H2248 0.950 . S
C2272 C2267 1.363 . S
C2272 C2271 1.415 . S
C2273 H2249 0.951 . S
C2273 C2274 1.366 . S
C2273 C2275 1.388 . S
C2274 C2273 1.366 . S
C2274 C2278 1.385 . S
C2275 H2250 0.951 . S
C2275 C2273 1.388 . S
C2275 C2276 1.366 . S
C2276 C2275 1.366 . S
C2276 C2277 1.414 . S
C2276 C2279 1.499 . S
C2277 H2251 0.950 . S
C2277 C2276 1.414 . S
C2277 C2278 1.374 . S
C2278 H2252 0.950 . S
C2278 C2274 1.385 . S
C2278 C2277 1.374 . S
C2279 C2276 1.499 . S
C2279 C2280 1.373 . S
C2279 C2281 1.389 . S
C2280 H2253 0.950 . S
C2280 C2266 1.377 . S
C2280 C2279 1.373 . S
C2281 C2265 1.377 . S
C2281 C2279 1.389 . S
C2281 C2282 1.524 . S
C2282 C2281 1.524 . S
C2282 C2283 1.397 . S
C2282 C2287 1.363 . S
C2283 H2254 0.950 . S
C2283 C2282 1.397 . S
C2283 C2284 1.334 . S
C2284 H2255 0.950 . S
C2284 C2283 1.334 . S
C2284 C2285 1.287 . S
C2285 C2284 1.287 . S
C2285 C2286 1.524 . S
C2285 H2288 0.999 . S
C2286 H2256 0.950 . S
C2286 C2285 1.524 . S
C2286 C2287 1.415 . S
C2287 H2257 0.950 . S
C2287 C2282 1.363 . S
C2287 C2286 1.415 . S
H2288 C2285 0.999 . S
H2289 C2270 0.913 . S
H2290 C2308 0.951 . S
H2291 C2310 0.951 . S
H2292 C2312 0.950 . S
H2293 C2313 0.950 . S
H2294 C2315 0.950 . S
H2295 C2318 0.950 . S
H2296 C2319 0.950 . S
H2297 C2321 0.950 . S
H2298 C2322 0.950 . S
H2299 C2323 0.951 . S
H2300 C2325 0.951 . S
H2301 C2327 0.950 . S
H2302 C2328 0.950 . S
H2303 C2330 0.950 . S
H2304 C2333 0.950 . S
H2305 C2334 0.950 . S
H2306 C2336 0.950 . S
H2307 C2337 0.950 . S
C2308 H2290 0.951 . S
C2308 C2309 1.366 . S
C2308 C2310 1.388 . S
C2309 C2308 1.366 . S
C2309 C2313 1.385 . S
C2310 H2291 0.951 . S
C2310 C2308 1.388 . S
C2310 C2311 1.366 . S
C2311 C2310 1.366 . S
C2311 C2312 1.414 . S
C2311 C2314 1.499 . S
C2312 H2292 0.950 . S
C2312 C2311 1.414 . S
C2312 C2313 1.374 . S
C2313 H2293 0.950 . S
C2313 C2309 1.385 . S
C2313 C2312 1.374 . S
C2314 C2311 1.499 . S
C2314 C2315 1.373 . S
C2314 C2316 1.389 . S
C2315 H2294 0.950 . S
C2315 C2314 1.373 . S
C2315 C2331 1.377 . S
C2316 C2314 1.389 . S
C2316 C2317 1.524 . S
C2316 C2330 1.377 . S
C2317 C2316 1.524 . S
C2317 C2318 1.397 . S
C2317 C2322 1.363 . S
C2318 H2295 0.950 . S
C2318 C2317 1.397 . S
C2318 C2319 1.334 . S
C2319 H2296 0.950 . S
C2319 C2318 1.334 . S
C2319 C2320 1.287 . S
C2320 C2319 1.287 . S
C2320 C2321 1.524 . S
C2320 H2339 0.913 . S
C2321 H2297 0.950 . S
C2321 C2320 1.524 . S
C2321 C2322 1.415 . S
C2322 H2298 0.950 . S
C2322 C2317 1.363 . S
C2322 C2321 1.415 . S
C2323 H2299 0.951 . S
C2323 C2324 1.366 . S
C2323 C2325 1.388 . S
C2324 C2323 1.366 . S
C2324 C2328 1.385 . S
C2325 H2300 0.951 . S
C2325 C2323 1.388 . S
C2325 C2326 1.366 . S
C2326 C2325 1.366 . S
C2326 C2327 1.414 . S
C2326 C2329 1.499 . S
C2327 H2301 0.950 . S
C2327 C2326 1.414 . S
C2327 C2328 1.374 . S
C2328 H2302 0.950 . S
C2328 C2324 1.385 . S
C2328 C2327 1.374 . S
C2329 C2326 1.499 . S
C2329 C2330 1.373 . S
C2329 C2331 1.389 . S
C2330 H2303 0.950 . S
C2330 C2316 1.377 . S
C2330 C2329 1.373 . S
C2331 C2315 1.377 . S
C2331 C2329 1.389 . S
C2331 C2332 1.524 . S
C2332 C2331 1.524 . S
C2332 C2333 1.397 . S
C2332 C2337 1.363 . S
C2333 H2304 0.950 . S
C2333 C2332 1.397 . S
C2333 C2334 1.334 . S
C2334 H2305 0.950 . S
C2334 C2333 1.334 . S
C2334 C2335 1.287 . S
C2335 C2334 1.287 . S
C2335 C2336 1.524 . S
C2335 H2338 0.999 . S
C2336 H2306 0.950 . S
C2336 C2335 1.524 . S
C2336 C2337 1.415 . S
C2337 H2307 0.950 . S
C2337 C2332 1.363 . S
C2337 C2336 1.415 . S
H2338 C2335 0.999 . S
H2339 C2320 0.913 . S
H2340 C2358 0.951 . S
H2341 C2360 0.951 . S
H2342 C2362 0.950 . S
H2343 C2363 0.950 . S
H2344 C2365 0.950 . S
H2345 C2368 0.950 . S
H2346 C2369 0.950 . S
H2347 C2371 0.950 . S
H2348 C2372 0.950 . S
H2349 C2373 0.951 . S
H2350 C2375 0.951 . S
H2351 C2377 0.950 . S
H2352 C2378 0.950 . S
H2353 C2380 0.950 . S
H2354 C2383 0.950 . S
H2355 C2384 0.950 . S
H2356 C2386 0.950 . S
H2357 C2387 0.950 . S
C2358 H2340 0.951 . S
C2358 C2359 1.366 . S
C2358 C2360 1.388 . S
C2359 C2358 1.366 . S
C2359 C2363 1.385 . S
C2360 H2341 0.951 . S
C2360 C2358 1.388 . S
C2360 C2361 1.366 . S
C2361 C2360 1.366 . S
C2361 C2362 1.414 . S
C2361 C2364 1.499 . S
C2362 H2342 0.950 . S
C2362 C2361 1.414 . S
C2362 C2363 1.374 . S
C2363 H2343 0.950 . S
C2363 C2359 1.385 . S
C2363 C2362 1.374 . S
C2364 C2361 1.499 . S
C2364 C2365 1.373 1_565 S
C2364 C2366 1.389 . S
C2365 H2344 0.950 . S
C2365 C2364 1.373 1_545 S
C2365 C2381 1.377 . S
C2366 C2364 1.389 . S
C2366 C2367 1.524 . S
C2366 C2380 1.377 1_565 S
C2367 C2366 1.524 . S
C2367 C2368 1.397 . S
C2367 C2372 1.363 . S
C2368 H2345 0.950 . S
C2368 C2367 1.397 . S
C2368 C2369 1.334 . S
C2369 H2346 0.950 . S
C2369 C2368 1.334 . S
C2369 C2370 1.287 . S
C2370 C2369 1.287 . S
C2370 C2371 1.524 . S
C2370 H2389 0.913 . S
C2371 H2347 0.950 . S
C2371 C2370 1.524 . S
C2371 C2372 1.415 . S
C2372 H2348 0.950 . S
C2372 C2367 1.363 . S
C2372 C2371 1.415 . S
C2373 H2349 0.951 . S
C2373 C2374 1.366 . S
C2373 C2375 1.388 . S
C2374 C2373 1.366 . S
C2374 C2378 1.385 . S
C2375 H2350 0.951 . S
C2375 C2373 1.388 . S
C2375 C2376 1.366 . S
C2376 C2375 1.366 . S
C2376 C2377 1.414 . S
C2376 C2379 1.499 . S
C2377 H2351 0.950 . S
C2377 C2376 1.414 . S
C2377 C2378 1.374 . S
C2378 H2352 0.950 . S
C2378 C2374 1.385 . S
C2378 C2377 1.374 . S
C2379 C2376 1.499 . S
C2379 C2380 1.373 . S
C2379 C2381 1.389 . S
C2380 H2353 0.950 . S
C2380 C2366 1.377 1_545 S
C2380 C2379 1.373 . S
C2381 C2365 1.377 . S
C2381 C2379 1.389 . S
C2381 C2382 1.524 . S
C2382 C2381 1.524 . S
C2382 C2383 1.397 . S
C2382 C2387 1.363 . S
C2383 H2354 0.950 . S
C2383 C2382 1.397 . S
C2383 C2384 1.334 . S
C2384 H2355 0.950 . S
C2384 C2383 1.334 . S
C2384 C2385 1.287 . S
C2385 C2384 1.287 . S
C2385 C2386 1.524 . S
C2385 H2388 0.999 . S
C2386 H2356 0.950 . S
C2386 C2385 1.524 . S
C2386 C2387 1.415 . S
C2387 H2357 0.950 . S
C2387 C2382 1.363 . S
C2387 C2386 1.415 . S
H2388 C2385 0.999 . S
H2389 C2370 0.913 . S
H2390 C2408 0.951 . S
H2391 C2410 0.951 . S
H2392 C2412 0.950 . S
H2393 C2413 0.950 . S
H2394 C2415 0.950 . S
H2395 C2418 0.950 . S
H2396 C2419 0.950 . S
H2397 C2421 0.950 . S
H2398 C2422 0.950 1_655 S
H2399 C2423 0.951 . S
H2400 C2425 0.951 . S
H2401 C2427 0.950 . S
H2402 C2428 0.950 . S
H2403 C2430 0.950 . S
H2404 C2433 0.950 . S
H2405 C2434 0.950 . S
H2406 C2436 0.950 . S
H2407 C2437 0.950 1_455 S
C2408 H2390 0.951 . S
C2408 C2409 1.366 . S
C2408 C2410 1.388 . S
C2409 C2408 1.366 . S
C2409 C2413 1.385 . S
C2410 H2391 0.951 . S
C2410 C2408 1.388 . S
C2410 C2411 1.366 . S
C2411 C2410 1.366 . S
C2411 C2412 1.414 . S
C2411 C2414 1.499 . S
C2412 H2392 0.950 . S
C2412 C2411 1.414 . S
C2412 C2413 1.374 . S
C2413 H2393 0.950 . S
C2413 C2409 1.385 . S
C2413 C2412 1.374 . S
C2414 C2411 1.499 . S
C2414 C2415 1.373 . S
C2414 C2416 1.389 . S
C2415 H2394 0.950 . S
C2415 C2414 1.373 . S
C2415 C2431 1.377 1_455 S
C2416 C2414 1.389 . S
C2416 C2417 1.524 . S
C2416 C2430 1.377 1_455 S
C2417 C2416 1.524 . S
C2417 C2418 1.397 . S
C2417 C2422 1.363 . S
C2418 H2395 0.950 . S
C2418 C2417 1.397 . S
C2418 C2419 1.334 . S
C2419 H2396 0.950 . S
C2419 C2418 1.334 . S
C2419 C2420 1.287 . S
C2420 C2419 1.287 . S
C2420 C2421 1.524 . S
C2420 H2439 0.913 . S
C2421 H2397 0.950 . S
C2421 C2420 1.524 . S
C2421 C2422 1.415 . S
C2422 H2398 0.950 1_455 S
C2422 C2417 1.363 . S
C2422 C2421 1.415 . S
C2423 H2399 0.951 . S
C2423 C2424 1.366 . S
C2423 C2425 1.388 . S
C2424 C2423 1.366 . S
C2424 C2428 1.385 . S
C2425 H2400 0.951 . S
C2425 C2423 1.388 . S
C2425 C2426 1.366 . S
C2426 C2425 1.366 . S
C2426 C2427 1.414 . S
C2426 C2429 1.499 . S
C2427 H2401 0.950 . S
C2427 C2426 1.414 . S
C2427 C2428 1.374 . S
C2428 H2402 0.950 . S
C2428 C2424 1.385 . S
C2428 C2427 1.374 . S
C2429 C2426 1.499 . S
C2429 C2430 1.373 . S
C2429 C2431 1.389 . S
C2430 H2403 0.950 . S
C2430 C2416 1.377 1_655 S
C2430 C2429 1.373 . S
C2431 C2415 1.377 1_655 S
C2431 C2429 1.389 . S
C2431 C2432 1.524 . S
C2432 C2431 1.524 . S
C2432 C2433 1.397 . S
C2432 C2437 1.363 . S
C2433 H2404 0.950 . S
C2433 C2432 1.397 . S
C2433 C2434 1.334 . S
C2434 H2405 0.950 . S
C2434 C2433 1.334 . S
C2434 C2435 1.287 . S
C2435 C2434 1.287 . S
C2435 C2436 1.524 . S
C2435 H2438 0.999 . S
C2436 H2406 0.950 . S
C2436 C2435 1.524 . S
C2436 C2437 1.415 . S
C2437 H2407 0.950 1_655 S
C2437 C2432 1.363 . S
C2437 C2436 1.415 . S
H2438 C2435 0.999 . S
H2439 C2420 0.913 . S
H2440 C2458 0.951 . S
H2441 C2460 0.951 . S
H2442 C2462 0.950 . S
H2443 C2463 0.950 . S
H2444 C2465 0.950 . S
H2445 C2468 0.950 . S
H2446 C2469 0.950 . S
H2447 C2471 0.950 . S
H2448 C2472 0.950 . S
H2449 C2473 0.951 . S
H2450 C2475 0.951 . S
H2451 C2477 0.950 . S
H2452 C2478 0.950 . S
H2453 C2480 0.950 . S
H2454 C2483 0.950 . S
H2455 C2484 0.950 . S
H2456 C2486 0.950 . S
H2457 C2487 0.950 . S
C2458 H2440 0.951 . S
C2458 C2459 1.366 . S
C2458 C2460 1.388 . S
C2459 C2458 1.366 . S
C2459 C2463 1.385 . S
C2460 H2441 0.951 . S
C2460 C2458 1.388 . S
C2460 C2461 1.366 . S
C2461 C2460 1.366 . S
C2461 C2462 1.414 . S
C2461 C2464 1.499 . S
C2462 H2442 0.950 . S
C2462 C2461 1.414 . S
C2462 C2463 1.374 . S
C2463 H2443 0.950 . S
C2463 C2459 1.385 . S
C2463 C2462 1.374 . S
C2464 C2461 1.499 . S
C2464 C2465 1.373 . S
C2464 C2466 1.389 . S
C2465 H2444 0.950 . S
C2465 C2464 1.373 . S
C2465 C2481 1.377 . S
C2466 C2464 1.389 . S
C2466 C2467 1.524 . S
C2466 C2480 1.377 . S
C2467 C2466 1.524 . S
C2467 C2468 1.397 . S
C2467 C2472 1.363 . S
C2468 H2445 0.950 . S
C2468 C2467 1.397 . S
C2468 C2469 1.334 . S
C2469 H2446 0.950 . S
C2469 C2468 1.334 . S
C2469 C2470 1.287 . S
C2470 C2469 1.287 . S
C2470 C2471 1.524 . S
C2470 H2489 0.913 . S
C2471 H2447 0.950 . S
C2471 C2470 1.524 . S
C2471 C2472 1.415 . S
C2472 H2448 0.950 . S
C2472 C2467 1.363 . S
C2472 C2471 1.415 . S
C2473 H2449 0.951 . S
C2473 C2474 1.366 . S
C2473 C2475 1.388 . S
C2474 C2473 1.366 . S
C2474 C2478 1.385 . S
C2475 H2450 0.951 . S
C2475 C2473 1.388 . S
C2475 C2476 1.366 . S
C2476 C2475 1.366 . S
C2476 C2477 1.414 . S
C2476 C2479 1.499 . S
C2477 H2451 0.950 . S
C2477 C2476 1.414 . S
C2477 C2478 1.374 . S
C2478 H2452 0.950 . S
C2478 C2474 1.385 . S
C2478 C2477 1.374 . S
C2479 C2476 1.499 . S
C2479 C2480 1.373 . S
C2479 C2481 1.389 . S
C2480 H2453 0.950 . S
C2480 C2466 1.377 . S
C2480 C2479 1.373 . S
C2481 C2465 1.377 . S
C2481 C2479 1.389 . S
C2481 C2482 1.524 . S
C2482 C2481 1.524 . S
C2482 C2483 1.397 . S
C2482 C2487 1.363 . S
C2483 H2454 0.950 . S
C2483 C2482 1.397 . S
C2483 C2484 1.334 . S
C2484 H2455 0.950 . S
C2484 C2483 1.334 . S
C2484 C2485 1.287 . S
C2485 C2484 1.287 . S
C2485 C2486 1.524 . S
C2485 H2488 0.999 . S
C2486 H2456 0.950 . S
C2486 C2485 1.524 . S
C2486 C2487 1.415 . S
C2487 H2457 0.950 . S
C2487 C2482 1.363 . S
C2487 C2486 1.415 . S
H2488 C2485 0.999 . S
H2489 C2470 0.913 . S
H2490 C2508 0.951 . S
H2491 C2510 0.951 . S
H2492 C2512 0.950 . S
H2493 C2513 0.950 . S
H2494 C2515 0.950 . S
H2495 C2518 0.950 . S
H2496 C2519 0.950 . S
H2497 C2521 0.950 . S
H2498 C2522 0.950 . S
H2499 C2523 0.951 . S
H2500 C2525 0.951 . S
H2501 C2527 0.950 . S
H2502 C2528 0.950 . S
H2503 C2530 0.950 . S
H2504 C2533 0.950 . S
H2505 C2534 0.950 . S
H2506 C2536 0.950 . S
H2507 C2537 0.950 . S
C2508 H2490 0.951 . S
C2508 C2509 1.366 . S
C2508 C2510 1.388 . S
C2509 C2508 1.366 . S
C2509 C2513 1.385 . S
C2510 H2491 0.951 . S
C2510 C2508 1.388 . S
C2510 C2511 1.366 1_455 S
C2511 C2510 1.366 1_655 S
C2511 C2512 1.414 . S
C2511 C2514 1.499 . S
C2512 H2492 0.950 . S
C2512 C2511 1.414 . S
C2512 C2513 1.374 1_655 S
C2513 H2493 0.950 . S
C2513 C2509 1.385 . S
C2513 C2512 1.374 1_455 S
C2514 C2511 1.499 . S
C2514 C2515 1.373 . S
C2514 C2516 1.389 . S
C2515 H2494 0.950 . S
C2515 C2514 1.373 . S
C2515 C2531 1.377 . S
C2516 C2514 1.389 . S
C2516 C2517 1.524 . S
C2516 C2530 1.377 . S
C2517 C2516 1.524 . S
C2517 C2518 1.397 . S
C2517 C2522 1.363 . S
C2518 H2495 0.950 . S
C2518 C2517 1.397 . S
C2518 C2519 1.334 . S
C2519 H2496 0.950 . S
C2519 C2518 1.334 . S
C2519 C2520 1.287 . S
C2520 C2519 1.287 . S
C2520 C2521 1.524 . S
C2520 H2539 0.913 . S
C2521 H2497 0.950 . S
C2521 C2520 1.524 . S
C2521 C2522 1.415 . S
C2522 H2498 0.950 . S
C2522 C2517 1.363 . S
C2522 C2521 1.415 . S
C2523 H2499 0.951 . S
C2523 C2524 1.366 . S
C2523 C2525 1.388 . S
C2524 C2523 1.366 . S
C2524 C2528 1.385 . S
C2525 H2500 0.951 . S
C2525 C2523 1.388 . S
C2525 C2526 1.366 . S
C2526 C2525 1.366 . S
C2526 C2527 1.414 . S
C2526 C2529 1.499 . S
C2527 H2501 0.950 . S
C2527 C2526 1.414 . S
C2527 C2528 1.374 . S
C2528 H2502 0.950 . S
C2528 C2524 1.385 . S
C2528 C2527 1.374 . S
C2529 C2526 1.499 . S
C2529 C2530 1.373 . S
C2529 C2531 1.389 . S
C2530 H2503 0.950 . S
C2530 C2516 1.377 . S
C2530 C2529 1.373 . S
C2531 C2515 1.377 . S
C2531 C2529 1.389 . S
C2531 C2532 1.524 . S
C2532 C2531 1.524 . S
C2532 C2533 1.397 . S
C2532 C2537 1.363 . S
C2533 H2504 0.950 . S
C2533 C2532 1.397 . S
C2533 C2534 1.334 . S
C2534 H2505 0.950 . S
C2534 C2533 1.334 . S
C2534 C2535 1.287 . S
C2535 C2534 1.287 . S
C2535 C2536 1.524 . S
C2535 H2538 0.999 . S
C2536 H2506 0.950 . S
C2536 C2535 1.524 . S
C2536 C2537 1.415 . S
C2537 H2507 0.950 . S
C2537 C2532 1.363 . S
C2537 C2536 1.415 . S
H2538 C2535 0.999 . S
H2539 C2520 0.913 . S
H2540 C2558 0.951 . S
H2541 C2560 0.951 . S
H2542 C2562 0.950 . S
H2543 C2563 0.950 . S
H2544 C2565 0.950 . S
H2545 C2568 0.950 . S
H2546 C2569 0.950 . S
H2547 C2571 0.950 . S
H2548 C2572 0.950 . S
H2549 C2573 0.951 . S
H2550 C2575 0.951 . S
H2551 C2577 0.950 . S
H2552 C2578 0.950 . S
H2553 C2580 0.950 . S
H2554 C2583 0.950 . S
H2555 C2584 0.950 . S
H2556 C2586 0.950 . S
H2557 C2587 0.950 . S
C2558 H2540 0.951 . S
C2558 C2559 1.366 . S
C2558 C2560 1.388 . S
C2559 C2558 1.366 . S
C2559 C2563 1.385 . S
C2560 H2541 0.951 . S
C2560 C2558 1.388 . S
C2560 C2561 1.366 . S
C2561 C2560 1.366 . S
C2561 C2562 1.414 . S
C2561 C2564 1.499 . S
C2562 H2542 0.950 . S
C2562 C2561 1.414 . S
C2562 C2563 1.374 . S
C2563 H2543 0.950 . S
C2563 C2559 1.385 . S
C2563 C2562 1.374 . S
C2564 C2561 1.499 . S
C2564 C2565 1.373 . S
C2564 C2566 1.389 . S
C2565 H2544 0.950 . S
C2565 C2564 1.373 . S
C2565 C2581 1.377 . S
C2566 C2564 1.389 . S
C2566 C2567 1.524 . S
C2566 C2580 1.377 . S
C2567 C2566 1.524 . S
C2567 C2568 1.397 . S
C2567 C2572 1.363 . S
C2568 H2545 0.950 . S
C2568 C2567 1.397 . S
C2568 C2569 1.334 . S
C2569 H2546 0.950 . S
C2569 C2568 1.334 . S
C2569 C2570 1.287 . S
C2570 C2569 1.287 . S
C2570 C2571 1.524 . S
C2570 H2589 0.913 . S
C2571 H2547 0.950 . S
C2571 C2570 1.524 . S
C2571 C2572 1.415 . S
C2572 H2548 0.950 . S
C2572 C2567 1.363 . S
C2572 C2571 1.415 . S
C2573 H2549 0.951 . S
C2573 C2574 1.366 . S
C2573 C2575 1.388 . S
C2574 C2573 1.366 . S
C2574 C2578 1.385 . S
C2575 H2550 0.951 . S
C2575 C2573 1.388 . S
C2575 C2576 1.366 . S
C2576 C2575 1.366 . S
C2576 C2577 1.414 . S
C2576 C2579 1.499 . S
C2577 H2551 0.950 . S
C2577 C2576 1.414 . S
C2577 C2578 1.374 . S
C2578 H2552 0.950 . S
C2578 C2574 1.385 . S
C2578 C2577 1.374 . S
C2579 C2576 1.499 . S
C2579 C2580 1.373 . S
C2579 C2581 1.389 . S
C2580 H2553 0.950 . S
C2580 C2566 1.377 . S
C2580 C2579 1.373 . S
C2581 C2565 1.377 . S
C2581 C2579 1.389 . S
C2581 C2582 1.524 . S
C2582 C2581 1.524 . S
C2582 C2583 1.397 . S
C2582 C2587 1.363 . S
C2583 H2554 0.950 . S
C2583 C2582 1.397 . S
C2583 C2584 1.334 . S
C2584 H2555 0.950 . S
C2584 C2583 1.334 . S
C2584 C2585 1.287 . S
C2585 C2584 1.287 . S
C2585 C2586 1.524 . S
C2585 H2588 0.999 . S
C2586 H2556 0.950 . S
C2586 C2585 1.524 . S
C2586 C2587 1.415 . S
C2587 H2557 0.950 . S
C2587 C2582 1.363 . S
C2587 C2586 1.415 . S
H2588 C2585 0.999 . S
H2589 C2570 0.913 . S
H2590 C2608 0.951 . S
H2591 C2610 0.951 . S
H2592 C2612 0.950 . S
H2593 C2613 0.950 . S
H2594 C2615 0.950 . S
H2595 C2618 0.950 . S
H2596 C2619 0.950 . S
H2597 C2621 0.950 . S
H2598 C2622 0.950 . S
H2599 C2623 0.951 . S
H2600 C2625 0.951 . S
H2601 C2627 0.950 . S
H2602 C2628 0.950 . S
H2603 C2630 0.950 . S
H2604 C2633 0.950 . S
H2605 C2634 0.950 . S
H2606 C2636 0.950 . S
H2607 C2637 0.950 . S
C2608 H2590 0.951 . S
C2608 C2609 1.366 . S
C2608 C2610 1.388 1_565 S
C2609 C2608 1.366 . S
C2609 C2613 1.385 . S
C2610 H2591 0.951 . S
C2610 C2608 1.388 1_545 S
C2610 C2611 1.366 . S
C2611 C2610 1.366 . S
C2611 C2612 1.414 1_545 S
C2611 C2614 1.499 . S
C2612 H2592 0.950 . S
C2612 C2611 1.414 1_565 S
C2612 C2613 1.374 . S
C2613 H2593 0.950 . S
C2613 C2609 1.385 . S
C2613 C2612 1.374 . S
C2614 C2611 1.499 . S
C2614 C2615 1.373 . S
C2614 C2616 1.389 . S
C2615 H2594 0.950 . S
C2615 C2614 1.373 . S
C2615 C2631 1.377 . S
C2616 C2614 1.389 . S
C2616 C2617 1.524 . S
C2616 C2630 1.377 . S
C2617 C2616 1.524 . S
C2617 C2618 1.397 . S
C2617 C2622 1.363 . S
C2618 H2595 0.950 . S
C2618 C2617 1.397 . S
C2618 C2619 1.334 . S
C2619 H2596 0.950 . S
C2619 C2618 1.334 . S
C2619 C2620 1.287 . S
C2620 C2619 1.287 . S
C2620 C2621 1.524 . S
C2620 H2639 0.913 . S
C2621 H2597 0.950 . S
C2621 C2620 1.524 . S
C2621 C2622 1.415 . S
C2622 H2598 0.950 . S
C2622 C2617 1.363 . S
C2622 C2621 1.415 . S
C2623 H2599 0.951 . S
C2623 C2624 1.366 . S
C2623 C2625 1.388 . S
C2624 C2623 1.366 . S
C2624 C2628 1.385 . S
C2625 H2600 0.951 . S
C2625 C2623 1.388 . S
C2625 C2626 1.366 . S
C2626 C2625 1.366 . S
C2626 C2627 1.414 . S
C2626 C2629 1.499 . S
C2627 H2601 0.950 . S
C2627 C2626 1.414 . S
C2627 C2628 1.374 . S
C2628 H2602 0.950 . S
C2628 C2624 1.385 . S
C2628 C2627 1.374 . S
C2629 C2626 1.499 . S
C2629 C2630 1.373 . S
C2629 C2631 1.389 . S
C2630 H2603 0.950 . S
C2630 C2616 1.377 . S
C2630 C2629 1.373 . S
C2631 C2615 1.377 . S
C2631 C2629 1.389 . S
C2631 C2632 1.524 . S
C2632 C2631 1.524 . S
C2632 C2633 1.397 . S
C2632 C2637 1.363 . S
C2633 H2604 0.950 . S
C2633 C2632 1.397 . S
C2633 C2634 1.334 . S
C2634 H2605 0.950 . S
C2634 C2633 1.334 . S
C2634 C2635 1.287 . S
C2635 C2634 1.287 . S
C2635 C2636 1.524 . S
C2635 H2638 0.999 . S
C2636 H2606 0.950 . S
C2636 C2635 1.524 . S
C2636 C2637 1.415 . S
C2637 H2607 0.950 . S
C2637 C2632 1.363 . S
C2637 C2636 1.415 . S
H2638 C2635 0.999 . S
H2639 C2620 0.913 . S
H2640 C2658 0.951 . S
H2641 C2660 0.951 . S
H2642 C2662 0.950 . S
H2643 C2663 0.950 . S
H2644 C2665 0.950 . S
H2645 C2668 0.950 . S
H2646 C2669 0.950 . S
H2647 C2671 0.950 . S
H2648 C2672 0.950 . S
H2649 C2673 0.951 . S
H2650 C2675 0.951 . S
H2651 C2677 0.950 . S
H2652 C2678 0.950 . S
H2653 C2680 0.950 . S
H2654 C2683 0.950 . S
H2655 C2684 0.950 . S
H2656 C2686 0.950 . S
H2657 C2687 0.950 . S
C2658 H2640 0.951 . S
C2658 C2659 1.366 . S
C2658 C2660 1.388 . S
C2659 C2658 1.366 . S
C2659 C2663 1.385 . S
C2660 H2641 0.951 . S
C2660 C2658 1.388 . S
C2660 C2661 1.366 . S
C2661 C2660 1.366 . S
C2661 C2662 1.414 . S
C2661 C2664 1.499 . S
C2662 H2642 0.950 . S
C2662 C2661 1.414 . S
C2662 C2663 1.374 . S
C2663 H2643 0.950 . S
C2663 C2659 1.385 . S
C2663 C2662 1.374 . S
C2664 C2661 1.499 . S
C2664 C2665 1.373 . S
C2664 C2666 1.389 . S
C2665 H2644 0.950 . S
C2665 C2664 1.373 . S
C2665 C2681 1.377 . S
C2666 C2664 1.389 . S
C2666 C2667 1.524 . S
C2666 C2680 1.377 . S
C2667 C2666 1.524 . S
C2667 C2668 1.397 . S
C2667 C2672 1.363 . S
C2668 H2645 0.950 . S
C2668 C2667 1.397 . S
C2668 C2669 1.334 . S
C2669 H2646 0.950 . S
C2669 C2668 1.334 . S
C2669 C2670 1.287 . S
C2670 C2669 1.287 . S
C2670 C2671 1.524 . S
C2670 H2689 0.913 . S
C2671 H2647 0.950 . S
C2671 C2670 1.524 . S
C2671 C2672 1.415 . S
C2672 H2648 0.950 . S
C2672 C2667 1.363 . S
C2672 C2671 1.415 . S
C2673 H2649 0.951 . S
C2673 C2674 1.366 . S
C2673 C2675 1.388 . S
C2674 C2673 1.366 . S
C2674 C2678 1.385 . S
C2675 H2650 0.951 . S
C2675 C2673 1.388 . S
C2675 C2676 1.366 . S
C2676 C2675 1.366 . S
C2676 C2677 1.414 . S
C2676 C2679 1.499 . S
C2677 H2651 0.950 . S
C2677 C2676 1.414 . S
C2677 C2678 1.374 . S
C2678 H2652 0.950 . S
C2678 C2674 1.385 . S
C2678 C2677 1.374 . S
C2679 C2676 1.499 . S
C2679 C2680 1.373 . S
C2679 C2681 1.389 . S
C2680 H2653 0.950 . S
C2680 C2666 1.377 . S
C2680 C2679 1.373 . S
C2681 C2665 1.377 . S
C2681 C2679 1.389 . S
C2681 C2682 1.524 . S
C2682 C2681 1.524 . S
C2682 C2683 1.397 . S
C2682 C2687 1.363 . S
C2683 H2654 0.950 . S
C2683 C2682 1.397 . S
C2683 C2684 1.334 . S
C2684 H2655 0.950 . S
C2684 C2683 1.334 . S
C2684 C2685 1.287 . S
C2685 C2684 1.287 . S
C2685 C2686 1.524 . S
C2685 H2688 0.999 . S
C2686 H2656 0.950 . S
C2686 C2685 1.524 . S
C2686 C2687 1.415 . S
C2687 H2657 0.950 . S
C2687 C2682 1.363 . S
C2687 C2686 1.415 . S
H2688 C2685 0.999 . S
H2689 C2670 0.913 . S
H2690 C2708 0.951 . S
H2691 C2710 0.951 . S
H2692 C2712 0.950 . S
H2693 C2713 0.950 . S
H2694 C2715 0.950 . S
H2695 C2718 0.950 . S
H2696 C2719 0.950 . S
H2697 C2721 0.950 . S
H2698 C2722 0.950 . S
H2699 C2723 0.951 . S
H2700 C2725 0.951 . S
H2701 C2727 0.950 . S
H2702 C2728 0.950 . S
H2703 C2730 0.950 . S
H2704 C2733 0.950 . S
H2705 C2734 0.950 . S
H2706 C2736 0.950 . S
H2707 C2737 0.950 . S
C2708 H2690 0.951 . S
C2708 C2709 1.366 . S
C2708 C2710 1.388 . S
C2709 C2708 1.366 . S
C2709 C2713 1.385 . S
C2710 H2691 0.951 . S
C2710 C2708 1.388 . S
C2710 C2711 1.366 . S
C2711 C2710 1.366 . S
C2711 C2712 1.414 . S
C2711 C2714 1.499 . S
C2712 H2692 0.950 . S
C2712 C2711 1.414 . S
C2712 C2713 1.374 . S
C2713 H2693 0.950 . S
C2713 C2709 1.385 . S
C2713 C2712 1.374 . S
C2714 C2711 1.499 . S
C2714 C2715 1.373 . S
C2714 C2716 1.389 . S
C2715 H2694 0.950 . S
C2715 C2714 1.373 . S
C2715 C2731 1.377 . S
C2716 C2714 1.389 . S
C2716 C2717 1.524 . S
C2716 C2730 1.377 . S
C2717 C2716 1.524 . S
C2717 C2718 1.397 . S
C2717 C2722 1.363 . S
C2718 H2695 0.950 . S
C2718 C2717 1.397 . S
C2718 C2719 1.334 . S
C2719 H2696 0.950 . S
C2719 C2718 1.334 . S
C2719 C2720 1.287 . S
C2720 C2719 1.287 . S
C2720 C2721 1.524 . S
C2720 H2739 0.913 . S
C2721 H2697 0.950 . S
C2721 C2720 1.524 . S
C2721 C2722 1.415 . S
C2722 H2698 0.950 . S
C2722 C2717 1.363 . S
C2722 C2721 1.415 . S
C2723 H2699 0.951 . S
C2723 C2724 1.366 . S
C2723 C2725 1.388 . S
C2724 C2723 1.366 . S
C2724 C2728 1.385 . S
C2725 H2700 0.951 . S
C2725 C2723 1.388 . S
C2725 C2726 1.366 . S
C2726 C2725 1.366 . S
C2726 C2727 1.414 . S
C2726 C2729 1.499 . S
C2727 H2701 0.950 . S
C2727 C2726 1.414 . S
C2727 C2728 1.374 . S
C2728 H2702 0.950 . S
C2728 C2724 1.385 . S
C2728 C2727 1.374 . S
C2729 C2726 1.499 . S
C2729 C2730 1.373 . S
C2729 C2731 1.389 . S
C2730 H2703 0.950 . S
C2730 C2716 1.377 . S
C2730 C2729 1.373 . S
C2731 C2715 1.377 . S
C2731 C2729 1.389 . S
C2731 C2732 1.524 . S
C2732 C2731 1.524 . S
C2732 C2733 1.397 . S
C2732 C2737 1.363 . S
C2733 H2704 0.950 . S
C2733 C2732 1.397 . S
C2733 C2734 1.334 . S
C2734 H2705 0.950 . S
C2734 C2733 1.334 . S
C2734 C2735 1.287 . S
C2735 C2734 1.287 . S
C2735 C2736 1.524 . S
C2735 H2738 0.999 . S
C2736 H2706 0.950 . S
C2736 C2735 1.524 . S
C2736 C2737 1.415 . S
C2737 H2707 0.950 . S
C2737 C2732 1.363 . S
C2737 C2736 1.415 . S
H2738 C2735 0.999 . S
H2739 C2720 0.913 . S
H2740 C2758 0.951 . S
H2741 C2760 0.951 . S
H2742 C2762 0.950 . S
H2743 C2763 0.950 . S
H2744 C2765 0.950 . S
H2745 C2768 0.950 . S
H2746 C2769 0.950 . S
H2747 C2771 0.950 . S
H2748 C2772 0.950 . S
H2749 C2773 0.951 . S
H2750 C2775 0.951 . S
H2751 C2777 0.950 . S
H2752 C2778 0.950 . S
H2753 C2780 0.950 . S
H2754 C2783 0.950 . S
H2755 C2784 0.950 . S
H2756 C2786 0.950 . S
H2757 C2787 0.950 . S
C2758 H2740 0.951 . S
C2758 C2759 1.366 . S
C2758 C2760 1.388 . S
C2759 C2758 1.366 . S
C2759 C2763 1.385 . S
C2760 H2741 0.951 . S
C2760 C2758 1.388 . S
C2760 C2761 1.366 . S
C2761 C2760 1.366 . S
C2761 C2762 1.414 . S
C2761 C2764 1.499 . S
C2762 H2742 0.950 . S
C2762 C2761 1.414 . S
C2762 C2763 1.374 . S
C2763 H2743 0.950 . S
C2763 C2759 1.385 . S
C2763 C2762 1.374 . S
C2764 C2761 1.499 . S
C2764 C2765 1.373 . S
C2764 C2766 1.389 . S
C2765 H2744 0.950 . S
C2765 C2764 1.373 . S
C2765 C2781 1.377 . S
C2766 C2764 1.389 . S
C2766 C2767 1.524 . S
C2766 C2780 1.377 . S
C2767 C2766 1.524 . S
C2767 C2768 1.397 . S
C2767 C2772 1.363 . S
C2768 H2745 0.950 . S
C2768 C2767 1.397 . S
C2768 C2769 1.334 . S
C2769 H2746 0.950 . S
C2769 C2768 1.334 . S
C2769 C2770 1.287 . S
C2770 C2769 1.287 . S
C2770 C2771 1.524 . S
C2770 H2789 0.913 . S
C2771 H2747 0.950 . S
C2771 C2770 1.524 . S
C2771 C2772 1.415 . S
C2772 H2748 0.950 . S
C2772 C2767 1.363 . S
C2772 C2771 1.415 . S
C2773 H2749 0.951 . S
C2773 C2774 1.366 . S
C2773 C2775 1.388 . S
C2774 C2773 1.366 . S
C2774 C2778 1.385 . S
C2775 H2750 0.951 . S
C2775 C2773 1.388 . S
C2775 C2776 1.366 . S
C2776 C2775 1.366 . S
C2776 C2777 1.414 . S
C2776 C2779 1.499 . S
C2777 H2751 0.950 . S
C2777 C2776 1.414 . S
C2777 C2778 1.374 . S
C2778 H2752 0.950 . S
C2778 C2774 1.385 . S
C2778 C2777 1.374 . S
C2779 C2776 1.499 . S
C2779 C2780 1.373 . S
C2779 C2781 1.389 . S
C2780 H2753 0.950 . S
C2780 C2766 1.377 . S
C2780 C2779 1.373 . S
C2781 C2765 1.377 . S
C2781 C2779 1.389 . S
C2781 C2782 1.524 . S
C2782 C2781 1.524 . S
C2782 C2783 1.397 . S
C2782 C2787 1.363 . S
C2783 H2754 0.950 . S
C2783 C2782 1.397 . S
C2783 C2784 1.334 . S
C2784 H2755 0.950 . S
C2784 C2783 1.334 . S
C2784 C2785 1.287 . S
C2785 C2784 1.287 . S
C2785 C2786 1.524 . S
C2785 H2788 0.999 . S
C2786 H2756 0.950 . S
C2786 C2785 1.524 . S
C2786 C2787 1.415 . S
C2787 H2757 0.950 . S
C2787 C2782 1.363 . S
C2787 C2786 1.415 . S
H2788 C2785 0.999 . S
H2789 C2770 0.913 . S
H2790 C2808 0.951 . S
H2791 C2810 0.951 . S
H2792 C2812 0.950 . S
H2793 C2813 0.950 . S
H2794 C2815 0.950 . S
H2795 C2818 0.950 . S
H2796 C2819 0.950 . S
H2797 C2821 0.950 . S
H2798 C2822 0.950 . S
H2799 C2823 0.951 . S
H2800 C2825 0.951 . S
H2801 C2827 0.950 . S
H2802 C2828 0.950 . S
H2803 C2830 0.950 . S
H2804 C2833 0.950 . S
H2805 C2834 0.950 . S
H2806 C2836 0.950 . S
H2807 C2837 0.950 . S
C2808 H2790 0.951 . S
C2808 C2809 1.366 . S
C2808 C2810 1.388 . S
C2809 C2808 1.366 . S
C2809 C2813 1.385 . S
C2810 H2791 0.951 . S
C2810 C2808 1.388 . S
C2810 C2811 1.366 . S
C2811 C2810 1.366 . S
C2811 C2812 1.414 . S
C2811 C2814 1.499 . S
C2812 H2792 0.950 . S
C2812 C2811 1.414 . S
C2812 C2813 1.374 . S
C2813 H2793 0.950 . S
C2813 C2809 1.385 . S
C2813 C2812 1.374 . S
C2814 C2811 1.499 . S
C2814 C2815 1.373 . S
C2814 C2816 1.389 . S
C2815 H2794 0.950 . S
C2815 C2814 1.373 . S
C2815 C2831 1.377 . S
C2816 C2814 1.389 . S
C2816 C2817 1.524 . S
C2816 C2830 1.377 . S
C2817 C2816 1.524 . S
C2817 C2818 1.397 . S
C2817 C2822 1.363 . S
C2818 H2795 0.950 . S
C2818 C2817 1.397 . S
C2818 C2819 1.334 . S
C2819 H2796 0.950 . S
C2819 C2818 1.334 . S
C2819 C2820 1.287 . S
C2820 C2819 1.287 . S
C2820 C2821 1.524 . S
C2820 H2839 0.913 . S
C2821 H2797 0.950 . S
C2821 C2820 1.524 . S
C2821 C2822 1.415 . S
C2822 H2798 0.950 . S
C2822 C2817 1.363 . S
C2822 C2821 1.415 . S
C2823 H2799 0.951 . S
C2823 C2824 1.366 . S
C2823 C2825 1.388 . S
C2824 C2823 1.366 . S
C2824 C2828 1.385 . S
C2825 H2800 0.951 . S
C2825 C2823 1.388 . S
C2825 C2826 1.366 . S
C2826 C2825 1.366 . S
C2826 C2827 1.414 . S
C2826 C2829 1.499 . S
C2827 H2801 0.950 . S
C2827 C2826 1.414 . S
C2827 C2828 1.374 . S
C2828 H2802 0.950 . S
C2828 C2824 1.385 . S
C2828 C2827 1.374 . S
C2829 C2826 1.499 . S
C2829 C2830 1.373 . S
C2829 C2831 1.389 . S
C2830 H2803 0.950 . S
C2830 C2816 1.377 . S
C2830 C2829 1.373 . S
C2831 C2815 1.377 . S
C2831 C2829 1.389 . S
C2831 C2832 1.524 . S
C2832 C2831 1.524 . S
C2832 C2833 1.397 . S
C2832 C2837 1.363 . S
C2833 H2804 0.950 . S
C2833 C2832 1.397 . S
C2833 C2834 1.334 1_565 S
C2834 H2805 0.950 . S
C2834 C2833 1.334 1_545 S
C2834 C2835 1.287 . S
C2835 C2834 1.287 . S
C2835 C2836 1.524 . S
C2835 H2838 0.999 . S
C2836 H2806 0.950 . S
C2836 C2835 1.524 . S
C2836 C2837 1.415 1_545 S
C2837 H2807 0.950 . S
C2837 C2832 1.363 . S
C2837 C2836 1.415 1_565 S
H2838 C2835 0.999 . S
H2839 C2820 0.913 . S
H2840 C2858 0.951 . S
H2841 C2860 0.951 . S
H2842 C2862 0.950 . S
H2843 C2863 0.950 . S
H2844 C2865 0.950 . S
H2845 C2868 0.950 . S
H2846 C2869 0.950 . S
H2847 C2871 0.950 . S
H2848 C2872 0.950 . S
H2849 C2873 0.951 . S
H2850 C2875 0.951 . S
H2851 C2877 0.950 . S
H2852 C2878 0.950 . S
H2853 C2880 0.950 . S
H2854 C2883 0.950 . S
H2855 C2884 0.950 . S
H2856 C2886 0.950 . S
H2857 C2887 0.950 . S
C2858 H2840 0.951 . S
C2858 C2859 1.366 . S
C2858 C2860 1.388 . S
C2859 C2858 1.366 . S
C2859 C2863 1.385 . S
C2860 H2841 0.951 . S
C2860 C2858 1.388 . S
C2860 C2861 1.366 . S
C2861 C2860 1.366 . S
C2861 C2862 1.414 . S
C2861 C2864 1.499 . S
C2862 H2842 0.950 . S
C2862 C2861 1.414 . S
C2862 C2863 1.374 . S
C2863 H2843 0.950 . S
C2863 C2859 1.385 . S
C2863 C2862 1.374 . S
C2864 C2861 1.499 . S
C2864 C2865 1.373 . S
C2864 C2866 1.389 . S
C2865 H2844 0.950 . S
C2865 C2864 1.373 . S
C2865 C2881 1.377 . S
C2866 C2864 1.389 . S
C2866 C2867 1.524 . S
C2866 C2880 1.377 . S
C2867 C2866 1.524 . S
C2867 C2868 1.397 . S
C2867 C2872 1.363 . S
C2868 H2845 0.950 . S
C2868 C2867 1.397 . S
C2868 C2869 1.334 . S
C2869 H2846 0.950 . S
C2869 C2868 1.334 . S
C2869 C2870 1.287 . S
C2870 C2869 1.287 . S
C2870 C2871 1.524 . S
C2870 H2889 0.913 . S
C2871 H2847 0.950 . S
C2871 C2870 1.524 . S
C2871 C2872 1.415 . S
C2872 H2848 0.950 . S
C2872 C2867 1.363 . S
C2872 C2871 1.415 . S
C2873 H2849 0.951 . S
C2873 C2874 1.366 . S
C2873 C2875 1.388 . S
C2874 C2873 1.366 . S
C2874 C2878 1.385 . S
C2875 H2850 0.951 . S
C2875 C2873 1.388 . S
C2875 C2876 1.366 . S
C2876 C2875 1.366 . S
C2876 C2877 1.414 . S
C2876 C2879 1.499 . S
C2877 H2851 0.950 . S
C2877 C2876 1.414 . S
C2877 C2878 1.374 . S
C2878 H2852 0.950 . S
C2878 C2874 1.385 . S
C2878 C2877 1.374 . S
C2879 C2876 1.499 . S
C2879 C2880 1.373 . S
C2879 C2881 1.389 . S
C2880 H2853 0.950 . S
C2880 C2866 1.377 . S
C2880 C2879 1.373 . S
C2881 C2865 1.377 . S
C2881 C2879 1.389 . S
C2881 C2882 1.524 . S
C2882 C2881 1.524 . S
C2882 C2883 1.397 . S
C2882 C2887 1.363 . S
C2883 H2854 0.950 . S
C2883 C2882 1.397 . S
C2883 C2884 1.334 . S
C2884 H2855 0.950 . S
C2884 C2883 1.334 . S
C2884 C2885 1.287 . S
C2885 C2884 1.287 . S
C2885 C2886 1.524 . S
C2885 H2888 0.999 . S
C2886 H2856 0.950 . S
C2886 C2885 1.524 . S
C2886 C2887 1.415 . S
C2887 H2857 0.950 . S
C2887 C2882 1.363 . S
C2887 C2886 1.415 . S
H2888 C2885 0.999 . S
H2889 C2870 0.913 . S
H2890 C2908 0.951 . S
H2891 C2910 0.951 . S
H2892 C2912 0.950 . S
H2893 C2913 0.950 . S
H2894 C2915 0.950 . S
H2895 C2918 0.950 . S
H2896 C2919 0.950 . S
H2897 C2921 0.950 . S
H2898 C2922 0.950 . S
H2899 C2923 0.951 . S
H2900 C2925 0.951 . S
H2901 C2927 0.950 . S
H2902 C2928 0.950 . S
H2903 C2930 0.950 . S
H2904 C2933 0.950 . S
H2905 C2934 0.950 . S
H2906 C2936 0.950 . S
H2907 C2937 0.950 . S
C2908 H2890 0.951 . S
C2908 C2909 1.366 . S
C2908 C2910 1.388 . S
C2909 C2908 1.366 . S
C2909 C2913 1.385 . S
C2910 H2891 0.951 . S
C2910 C2908 1.388 . S
C2910 C2911 1.366 . S
C2911 C2910 1.366 . S
C2911 C2912 1.414 . S
C2911 C2914 1.499 . S
C2912 H2892 0.950 . S
C2912 C2911 1.414 . S
C2912 C2913 1.374 . S
C2913 H2893 0.950 . S
C2913 C2909 1.385 . S
C2913 C2912 1.374 . S
C2914 C2911 1.499 . S
C2914 C2915 1.373 . S
C2914 C2916 1.389 . S
C2915 H2894 0.950 . S
C2915 C2914 1.373 . S
C2915 C2931 1.377 . S
C2916 C2914 1.389 . S
C2916 C2917 1.524 . S
C2916 C2930 1.377 . S
C2917 C2916 1.524 . S
C2917 C2918 1.397 . S
C2917 C2922 1.363 . S
C2918 H2895 0.950 . S
C2918 C2917 1.397 . S
C2918 C2919 1.334 . S
C2919 H2896 0.950 . S
C2919 C2918 1.334 . S
C2919 C2920 1.287 . S
C2920 C2919 1.287 . S
C2920 C2921 1.524 . S
C2920 H2939 0.913 . S
C2921 H2897 0.950 . S
C2921 C2920 1.524 . S
C2921 C2922 1.415 . S
C2922 H2898 0.950 . S
C2922 C2917 1.363 . S
C2922 C2921 1.415 . S
C2923 H2899 0.951 . S
C2923 C2924 1.366 . S
C2923 C2925 1.388 . S
C2924 C2923 1.366 . S
C2924 C2928 1.385 . S
C2925 H2900 0.951 . S
C2925 C2923 1.388 . S
C2925 C2926 1.366 . S
C2926 C2925 1.366 . S
C2926 C2927 1.414 . S
C2926 C2929 1.499 . S
C2927 H2901 0.950 . S
C2927 C2926 1.414 . S
C2927 C2928 1.374 . S
C2928 H2902 0.950 . S
C2928 C2924 1.385 . S
C2928 C2927 1.374 . S
C2929 C2926 1.499 . S
C2929 C2930 1.373 . S
C2929 C2931 1.389 . S
C2930 H2903 0.950 . S
C2930 C2916 1.377 . S
C2930 C2929 1.373 . S
C2931 C2915 1.377 . S
C2931 C2929 1.389 . S
C2931 C2932 1.524 . S
C2932 C2931 1.524 . S
C2932 C2933 1.397 . S
C2932 C2937 1.363 . S
C2933 H2904 0.950 . S
C2933 C2932 1.397 . S
C2933 C2934 1.334 . S
C2934 H2905 0.950 . S
C2934 C2933 1.334 . S
C2934 C2935 1.287 . S
C2935 C2934 1.287 . S
C2935 C2936 1.524 . S
C2935 H2938 0.999 . S
C2936 H2906 0.950 . S
C2936 C2935 1.524 . S
C2936 C2937 1.415 . S
C2937 H2907 0.950 . S
C2937 C2932 1.363 . S
C2937 C2936 1.415 . S
H2938 C2935 0.999 . S
H2939 C2920 0.913 . S
H2940 C2958 0.951 . S
H2941 C2960 0.951 . S
H2942 C2962 0.950 . S
H2943 C2963 0.950 . S
H2944 C2965 0.950 . S
H2945 C2968 0.950 . S
H2946 C2969 0.950 . S
H2947 C2971 0.950 . S
H2948 C2972 0.950 . S
H2949 C2973 0.951 . S
H2950 C2975 0.951 . S
H2951 C2977 0.950 . S
H2952 C2978 0.950 . S
H2953 C2980 0.950 . S
H2954 C2983 0.950 . S
H2955 C2984 0.950 . S
H2956 C2986 0.950 . S
H2957 C2987 0.950 . S
C2958 H2940 0.951 . S
C2958 C2959 1.366 . S
C2958 C2960 1.388 . S
C2959 C2958 1.366 . S
C2959 C2963 1.385 . S
C2960 H2941 0.951 . S
C2960 C2958 1.388 . S
C2960 C2961 1.366 . S
C2961 C2960 1.366 . S
C2961 C2962 1.414 . S
C2961 C2964 1.499 . S
C2962 H2942 0.950 . S
C2962 C2961 1.414 . S
C2962 C2963 1.374 . S
C2963 H2943 0.950 . S
C2963 C2959 1.385 . S
C2963 C2962 1.374 . S
C2964 C2961 1.499 . S
C2964 C2965 1.373 . S
C2964 C2966 1.389 . S
C2965 H2944 0.950 . S
C2965 C2964 1.373 . S
C2965 C2981 1.377 . S
C2966 C2964 1.389 . S
C2966 C2967 1.524 . S
C2966 C2980 1.377 . S
C2967 C2966 1.524 . S
C2967 C2968 1.397 . S
C2967 C2972 1.363 . S
C2968 H2945 0.950 . S
C2968 C2967 1.397 . S
C2968 C2969 1.334 . S
C2969 H2946 0.950 . S
C2969 C2968 1.334 . S
C2969 C2970 1.287 . S
C2970 C2969 1.287 . S
C2970 C2971 1.524 . S
C2970 H2989 0.913 . S
C2971 H2947 0.950 . S
C2971 C2970 1.524 . S
C2971 C2972 1.415 . S
C2972 H2948 0.950 . S
C2972 C2967 1.363 . S
C2972 C2971 1.415 . S
C2973 H2949 0.951 . S
C2973 C2974 1.366 . S
C2973 C2975 1.388 . S
C2974 C2973 1.366 . S
C2974 C2978 1.385 . S
C2975 H2950 0.951 . S
C2975 C2973 1.388 . S
C2975 C2976 1.366 . S
C2976 C2975 1.366 . S
C2976 C2977 1.414 . S
C2976 C2979 1.499 . S
C2977 H2951 0.950 . S
C2977 C2976 1.414 . S
C2977 C2978 1.374 . S
C2978 H2952 0.950 . S
C2978 C2974 1.385 . S
C2978 C2977 1.374 . S
C2979 C2976 1.499 . S
C2979 C2980 1.373 . S
C2979 C2981 1.389 . S
C2980 H2953 0.950 . S
C2980 C2966 1.377 . S
C2980 C2979 1.373 . S
C2981 C2965 1.377 . S
C2981 C2979 1.389 . S
C2981 C2982 1.524 . S
C2982 C2981 1.524 . S
C2982 C2983 1.397 . S
C2982 C2987 1.363 . S
C2983 H2954 0.950 . S
C2983 C2982 1.397 . S
C2983 C2984 1.334 . S
C2984 H2955 0.950 . S
C2984 C2983 1.334 . S
C2984 C2985 1.287 . S
C2985 C2984 1.287 . S
C2985 C2986 1.524 . S
C2985 H2988 0.999 . S
C2986 H2956 0.950 . S
C2986 C2985 1.524 . S
C2986 C2987 1.415 . S
C2987 H2957 0.950 . S
C2987 C2982 1.363 . S
C2987 C2986 1.415 . S
H2988 C2985 0.999 . S
H2989 C2970 0.913 . S
H2990 C3008 0.951 . S
H2991 C3010 0.951 . S
H2992 C3012 0.950 . S
H2993 C3013 0.950 . S
H2994 C3015 0.950 . S
H2995 C3018 0.950 . S
H2996 C3019 0.950 . S
H2997 C3021 0.950 . S
H2998 C3022 0.950 . S
H2999 C3023 0.951 . S
H3000 C3025 0.951 . S
H3001 C3027 0.950 . S
H3002 C3028 0.950 . S
H3003 C3030 0.950 . S
H3004 C3033 0.950 . S
H3005 C3034 0.950 . S
H3006 C3036 0.950 . S
H3007 C3037 0.950 . S
C3008 H2990 0.951 . S
C3008 C3009 1.366 . S
C3008 C3010 1.388 . S
C3009 C3008 1.366 . S
C3009 C3013 1.385 . S
C3010 H2991 0.951 . S
C3010 C3008 1.388 . S
C3010 C3011 1.366 . S
C3011 C3010 1.366 . S
C3011 C3012 1.414 . S
C3011 C3014 1.499 . S
C3012 H2992 0.950 . S
C3012 C3011 1.414 . S
C3012 C3013 1.374 . S
C3013 H2993 0.950 . S
C3013 C3009 1.385 . S
C3013 C3012 1.374 . S
C3014 C3011 1.499 . S
C3014 C3015 1.373 . S
C3014 C3016 1.389 . S
C3015 H2994 0.950 . S
C3015 C3014 1.373 . S
C3015 C3031 1.377 . S
C3016 C3014 1.389 . S
C3016 C3017 1.524 . S
C3016 C3030 1.377 . S
C3017 C3016 1.524 . S
C3017 C3018 1.397 . S
C3017 C3022 1.363 . S
C3018 H2995 0.950 . S
C3018 C3017 1.397 . S
C3018 C3019 1.334 . S
C3019 H2996 0.950 . S
C3019 C3018 1.334 . S
C3019 C3020 1.287 . S
C3020 C3019 1.287 . S
C3020 C3021 1.524 . S
C3020 H3039 0.913 . S
C3021 H2997 0.950 . S
C3021 C3020 1.524 . S
C3021 C3022 1.415 . S
C3022 H2998 0.950 . S
C3022 C3017 1.363 . S
C3022 C3021 1.415 . S
C3023 H2999 0.951 . S
C3023 C3024 1.366 . S
C3023 C3025 1.388 . S
C3024 C3023 1.366 . S
C3024 C3028 1.385 . S
C3025 H3000 0.951 . S
C3025 C3023 1.388 . S
C3025 C3026 1.366 . S
C3026 C3025 1.366 . S
C3026 C3027 1.414 . S
C3026 C3029 1.499 . S
C3027 H3001 0.950 . S
C3027 C3026 1.414 . S
C3027 C3028 1.374 . S
C3028 H3002 0.950 . S
C3028 C3024 1.385 . S
C3028 C3027 1.374 . S
C3029 C3026 1.499 . S
C3029 C3030 1.373 . S
C3029 C3031 1.389 . S
C3030 H3003 0.950 . S
C3030 C3016 1.377 . S
C3030 C3029 1.373 . S
C3031 C3015 1.377 . S
C3031 C3029 1.389 . S
C3031 C3032 1.524 . S
C3032 C3031 1.524 . S
C3032 C3033 1.397 . S
C3032 C3037 1.363 . S
C3033 H3004 0.950 . S
C3033 C3032 1.397 . S
C3033 C3034 1.334 . S
C3034 H3005 0.950 . S
C3034 C3033 1.334 . S
C3034 C3035 1.287 . S
C3035 C3034 1.287 . S
C3035 C3036 1.524 . S
C3035 H3038 0.999 . S
C3036 H3006 0.950 . S
C3036 C3035 1.524 . S
C3036 C3037 1.415 . S
C3037 H3007 0.950 . S
C3037 C3032 1.363 . S
C3037 C3036 1.415 . S
H3038 C3035 0.999 . S
H3039 C3020 0.913 . S
H3040 C3058 0.951 . S
H3041 C3060 0.951 . S
H3042 C3062 0.950 . S
H3043 C3063 0.950 . S
H3044 C3065 0.950 . S
H3045 C3068 0.950 . S
H3046 C3069 0.950 . S
H3047 C3071 0.950 . S
H3048 C3072 0.950 . S
H3049 C3073 0.951 . S
H3050 C3075 0.951 . S
H3051 C3077 0.950 . S
H3052 C3078 0.950 . S
H3053 C3080 0.950 . S
H3054 C3083 0.950 . S
H3055 C3084 0.950 . S
H3056 C3086 0.950 . S
H3057 C3087 0.950 . S
C3058 H3040 0.951 . S
C3058 C3059 1.366 . S
C3058 C3060 1.388 . S
C3059 C3058 1.366 . S
C3059 C3063 1.385 . S
C3060 H3041 0.951 . S
C3060 C3058 1.388 . S
C3060 C3061 1.366 . S
C3061 C3060 1.366 . S
C3061 C3062 1.414 . S
C3061 C3064 1.499 . S
C3062 H3042 0.950 . S
C3062 C3061 1.414 . S
C3062 C3063 1.374 . S
C3063 H3043 0.950 . S
C3063 C3059 1.385 . S
C3063 C3062 1.374 . S
C3064 C3061 1.499 . S
C3064 C3065 1.373 . S
C3064 C3066 1.389 . S
C3065 H3044 0.950 . S
C3065 C3064 1.373 . S
C3065 C3081 1.377 . S
C3066 C3064 1.389 . S
C3066 C3067 1.524 . S
C3066 C3080 1.377 . S
C3067 C3066 1.524 . S
C3067 C3068 1.397 . S
C3067 C3072 1.363 . S
C3068 H3045 0.950 . S
C3068 C3067 1.397 . S
C3068 C3069 1.334 . S
C3069 H3046 0.950 . S
C3069 C3068 1.334 . S
C3069 C3070 1.287 . S
C3070 C3069 1.287 . S
C3070 C3071 1.524 . S
C3070 H3089 0.913 . S
C3071 H3047 0.950 . S
C3071 C3070 1.524 . S
C3071 C3072 1.415 . S
C3072 H3048 0.950 . S
C3072 C3067 1.363 . S
C3072 C3071 1.415 . S
C3073 H3049 0.951 . S
C3073 C3074 1.366 . S
C3073 C3075 1.388 . S
C3074 C3073 1.366 . S
C3074 C3078 1.385 . S
C3075 H3050 0.951 . S
C3075 C3073 1.388 . S
C3075 C3076 1.366 . S
C3076 C3075 1.366 . S
C3076 C3077 1.414 . S
C3076 C3079 1.499 . S
C3077 H3051 0.950 . S
C3077 C3076 1.414 . S
C3077 C3078 1.374 . S
C3078 H3052 0.950 . S
C3078 C3074 1.385 . S
C3078 C3077 1.374 . S
C3079 C3076 1.499 . S
C3079 C3080 1.373 . S
C3079 C3081 1.389 . S
C3080 H3053 0.950 . S
C3080 C3066 1.377 . S
C3080 C3079 1.373 . S
C3081 C3065 1.377 . S
C3081 C3079 1.389 . S
C3081 C3082 1.524 . S
C3082 C3081 1.524 . S
C3082 C3083 1.397 . S
C3082 C3087 1.363 . S
C3083 H3054 0.950 . S
C3083 C3082 1.397 . S
C3083 C3084 1.334 . S
C3084 H3055 0.950 . S
C3084 C3083 1.334 . S
C3084 C3085 1.287 . S
C3085 C3084 1.287 . S
C3085 C3086 1.524 . S
C3085 H3088 0.999 . S
C3086 H3056 0.950 . S
C3086 C3085 1.524 . S
C3086 C3087 1.415 . S
C3087 H3057 0.950 . S
C3087 C3082 1.363 . S
C3087 C3086 1.415 . S
H3088 C3085 0.999 . S
H3089 C3070 0.913 . S
H3090 C3108 0.951 . S
H3091 C3110 0.951 . S
H3092 C3112 0.950 . S
H3093 C3113 0.950 . S
H3094 C3115 0.950 . S
H3095 C3118 0.950 . S
H3096 C3119 0.950 . S
H3097 C3121 0.950 . S
H3098 C3122 0.950 . S
H3099 C3123 0.951 . S
H3100 C3125 0.951 . S
H3101 C3127 0.950 . S
H3102 C3128 0.950 . S
H3103 C3130 0.950 . S
H3104 C3133 0.950 . S
H3105 C3134 0.950 . S
H3106 C3136 0.950 . S
H3107 C3137 0.950 . S
C3108 H3090 0.951 . S
C3108 C3109 1.366 . S
C3108 C3110 1.388 . S
C3109 C3108 1.366 . S
C3109 C3113 1.385 . S
C3110 H3091 0.951 . S
C3110 C3108 1.388 . S
C3110 C3111 1.366 . S
C3111 C3110 1.366 . S
C3111 C3112 1.414 . S
C3111 C3114 1.499 . S
C3112 H3092 0.950 . S
C3112 C3111 1.414 . S
C3112 C3113 1.374 . S
C3113 H3093 0.950 . S
C3113 C3109 1.385 . S
C3113 C3112 1.374 . S
C3114 C3111 1.499 . S
C3114 C3115 1.373 . S
C3114 C3116 1.389 . S
C3115 H3094 0.950 . S
C3115 C3114 1.373 . S
C3115 C3131 1.377 . S
C3116 C3114 1.389 . S
C3116 C3117 1.524 . S
C3116 C3130 1.377 . S
C3117 C3116 1.524 . S
C3117 C3118 1.397 . S
C3117 C3122 1.363 . S
C3118 H3095 0.950 . S
C3118 C3117 1.397 . S
C3118 C3119 1.334 . S
C3119 H3096 0.950 . S
C3119 C3118 1.334 . S
C3119 C3120 1.287 . S
C3120 C3119 1.287 . S
C3120 C3121 1.524 . S
C3120 H3139 0.913 . S
C3121 H3097 0.950 . S
C3121 C3120 1.524 . S
C3121 C3122 1.415 . S
C3122 H3098 0.950 . S
C3122 C3117 1.363 . S
C3122 C3121 1.415 . S
C3123 H3099 0.951 . S
C3123 C3124 1.366 . S
C3123 C3125 1.388 . S
C3124 C3123 1.366 . S
C3124 C3128 1.385 . S
C3125 H3100 0.951 . S
C3125 C3123 1.388 . S
C3125 C3126 1.366 . S
C3126 C3125 1.366 . S
C3126 C3127 1.414 . S
C3126 C3129 1.499 . S
C3127 H3101 0.950 . S
C3127 C3126 1.414 . S
C3127 C3128 1.374 . S
C3128 H3102 0.950 . S
C3128 C3124 1.385 . S
C3128 C3127 1.374 . S
C3129 C3126 1.499 . S
C3129 C3130 1.373 . S
C3129 C3131 1.389 . S
C3130 H3103 0.950 . S
C3130 C3116 1.377 . S
C3130 C3129 1.373 . S
C3131 C3115 1.377 . S
C3131 C3129 1.389 . S
C3131 C3132 1.524 . S
C3132 C3131 1.524 . S
C3132 C3133 1.397 . S
C3132 C3137 1.363 . S
C3133 H3104 0.950 . S
C3133 C3132 1.397 . S
C3133 C3134 1.334 . S
C3134 H3105 0.950 . S
C3134 C3133 1.334 . S
C3134 C3135 1.287 . S
C3135 C3134 1.287 . S
C3135 C3136 1.524 . S
C3135 H3138 0.999 . S
C3136 H3106 0.950 . S
C3136 C3135 1.524 . S
C3136 C3137 1.415 . S
C3137 H3107 0.950 . S
C3137 C3132 1.363 . S
C3137 C3136 1.415 . S
H3138 C3135 0.999 . S
H3139 C3120 0.913 . S
H3140 C3158 0.951 . S
H3141 C3160 0.951 . S
H3142 C3162 0.950 . S
H3143 C3163 0.950 . S
H3144 C3165 0.950 . S
H3145 C3168 0.950 . S
H3146 C3169 0.950 . S
H3147 C3171 0.950 . S
H3148 C3172 0.950 . S
H3149 C3173 0.951 . S
H3150 C3175 0.951 . S
H3151 C3177 0.950 . S
H3152 C3178 0.950 . S
H3153 C3180 0.950 . S
H3154 C3183 0.950 . S
H3155 C3184 0.950 . S
H3156 C3186 0.950 . S
H3157 C3187 0.950 . S
C3158 H3140 0.951 . S
C3158 C3159 1.366 . S
C3158 C3160 1.388 . S
C3159 C3158 1.366 . S
C3159 C3163 1.385 . S
C3160 H3141 0.951 . S
C3160 C3158 1.388 . S
C3160 C3161 1.366 . S
C3161 C3160 1.366 . S
C3161 C3162 1.414 . S
C3161 C3164 1.499 . S
C3162 H3142 0.950 . S
C3162 C3161 1.414 . S
C3162 C3163 1.374 . S
C3163 H3143 0.950 . S
C3163 C3159 1.385 . S
C3163 C3162 1.374 . S
C3164 C3161 1.499 . S
C3164 C3165 1.373 . S
C3164 C3166 1.389 . S
C3165 H3144 0.950 . S
C3165 C3164 1.373 . S
C3165 C3181 1.377 . S
C3166 C3164 1.389 . S
C3166 C3167 1.524 . S
C3166 C3180 1.377 . S
C3167 C3166 1.524 . S
C3167 C3168 1.397 . S
C3167 C3172 1.363 . S
C3168 H3145 0.950 . S
C3168 C3167 1.397 . S
C3168 C3169 1.334 . S
C3169 H3146 0.950 . S
C3169 C3168 1.334 . S
C3169 C3170 1.287 . S
C3170 C3169 1.287 . S
C3170 C3171 1.524 . S
C3170 H3189 0.913 . S
C3171 H3147 0.950 . S
C3171 C3170 1.524 . S
C3171 C3172 1.415 . S
C3172 H3148 0.950 . S
C3172 C3167 1.363 . S
C3172 C3171 1.415 . S
C3173 H3149 0.951 . S
C3173 C3174 1.366 . S
C3173 C3175 1.388 . S
C3174 C3173 1.366 . S
C3174 C3178 1.385 . S
C3175 H3150 0.951 . S
C3175 C3173 1.388 . S
C3175 C3176 1.366 . S
C3176 C3175 1.366 . S
C3176 C3177 1.414 . S
C3176 C3179 1.499 . S
C3177 H3151 0.950 . S
C3177 C3176 1.414 . S
C3177 C3178 1.374 . S
C3178 H3152 0.950 . S
C3178 C3174 1.385 . S
C3178 C3177 1.374 . S
C3179 C3176 1.499 . S
C3179 C3180 1.373 . S
C3179 C3181 1.389 . S
C3180 H3153 0.950 . S
C3180 C3166 1.377 . S
C3180 C3179 1.373 . S
C3181 C3165 1.377 . S
C3181 C3179 1.389 . S
C3181 C3182 1.524 . S
C3182 C3181 1.524 . S
C3182 C3183 1.397 . S
C3182 C3187 1.363 . S
C3183 H3154 0.950 . S
C3183 C3182 1.397 . S
C3183 C3184 1.334 . S
C3184 H3155 0.950 . S
C3184 C3183 1.334 . S
C3184 C3185 1.287 . S
C3185 C3184 1.287 . S
C3185 C3186 1.524 . S
C3185 H3188 0.999 . S
C3186 H3156 0.950 . S
C3186 C3185 1.524 . S
C3186 C3187 1.415 . S
C3187 H3157 0.950 . S
C3187 C3182 1.363 . S
C3187 C3186 1.415 . S
H3188 C3185 0.999 . S
H3189 C3170 0.913 . S
H3190 C3208 0.951 . S
H3191 C3210 0.951 . S
H3192 C3212 0.950 . S
H3193 C3213 0.950 . S
H3194 C3215 0.950 . S
H3195 C3218 0.950 . S
H3196 C3219 0.950 . S
H3197 C3221 0.950 . S
H3198 C3222 0.950 . S
H3199 C3223 0.951 . S
H3200 C3225 0.951 . S
H3201 C3227 0.950 . S
H3202 C3228 0.950 . S
H3203 C3230 0.950 . S
H3204 C3233 0.950 . S
H3205 C3234 0.950 . S
H3206 C3236 0.950 . S
H3207 C3237 0.950 . S
C3208 H3190 0.951 . S
C3208 C3209 1.366 . S
C3208 C3210 1.388 . S
C3209 C3208 1.366 . S
C3209 C3213 1.385 . S
C3210 H3191 0.951 . S
C3210 C3208 1.388 . S
C3210 C3211 1.366 . S
C3211 C3210 1.366 . S
C3211 C3212 1.414 . S
C3211 C3214 1.499 . S
C3212 H3192 0.950 . S
C3212 C3211 1.414 . S
C3212 C3213 1.374 . S
C3213 H3193 0.950 . S
C3213 C3209 1.385 . S
C3213 C3212 1.374 . S
C3214 C3211 1.499 . S
C3214 C3215 1.373 . S
C3214 C3216 1.389 . S
C3215 H3194 0.950 . S
C3215 C3214 1.373 . S
C3215 C3231 1.377 . S
C3216 C3214 1.389 . S
C3216 C3217 1.524 . S
C3216 C3230 1.377 . S
C3217 C3216 1.524 . S
C3217 C3218 1.397 . S
C3217 C3222 1.363 . S
C3218 H3195 0.950 . S
C3218 C3217 1.397 . S
C3218 C3219 1.334 . S
C3219 H3196 0.950 . S
C3219 C3218 1.334 . S
C3219 C3220 1.287 . S
C3220 C3219 1.287 . S
C3220 C3221 1.524 . S
C3220 H3239 0.913 . S
C3221 H3197 0.950 . S
C3221 C3220 1.524 . S
C3221 C3222 1.415 . S
C3222 H3198 0.950 . S
C3222 C3217 1.363 . S
C3222 C3221 1.415 . S
C3223 H3199 0.951 . S
C3223 C3224 1.366 . S
C3223 C3225 1.388 . S
C3224 C3223 1.366 . S
C3224 C3228 1.385 . S
C3225 H3200 0.951 . S
C3225 C3223 1.388 . S
C3225 C3226 1.366 . S
C3226 C3225 1.366 . S
C3226 C3227 1.414 . S
C3226 C3229 1.499 . S
C3227 H3201 0.950 . S
C3227 C3226 1.414 . S
C3227 C3228 1.374 . S
C3228 H3202 0.950 . S
C3228 C3224 1.385 . S
C3228 C3227 1.374 . S
C3229 C3226 1.499 . S
C3229 C3230 1.373 . S
C3229 C3231 1.389 . S
C3230 H3203 0.950 . S
C3230 C3216 1.377 . S
C3230 C3229 1.373 . S
C3231 C3215 1.377 . S
C3231 C3229 1.389 . S
C3231 C3232 1.524 . S
C3232 C3231 1.524 . S
C3232 C3233 1.397 . S
C3232 C3237 1.363 . S
C3233 H3204 0.950 . S
C3233 C3232 1.397 . S
C3233 C3234 1.334 . S
C3234 H3205 0.950 . S
C3234 C3233 1.334 . S
C3234 C3235 1.287 . S
C3235 C3234 1.287 . S
C3235 C3236 1.524 . S
C3235 H3238 0.999 . S
C3236 H3206 0.950 . S
C3236 C3235 1.524 . S
C3236 C3237 1.415 . S
C3237 H3207 0.950 . S
C3237 C3232 1.363 . S
C3237 C3236 1.415 . S
H3238 C3235 0.999 . S
H3239 C3220 0.913 . S
H3240 C3258 0.951 . S
H3241 C3260 0.951 . S
H3242 C3262 0.950 . S
H3243 C3263 0.950 . S
H3244 C3265 0.950 . S
H3245 C3268 0.950 . S
H3246 C3269 0.950 . S
H3247 C3271 0.950 . S
H3248 C3272 0.950 . S
H3249 C3273 0.951 . S
H3250 C3275 0.951 . S
H3251 C3277 0.950 . S
H3252 C3278 0.950 . S
H3253 C3280 0.950 . S
H3254 C3283 0.950 . S
H3255 C3284 0.950 . S
H3256 C3286 0.950 . S
H3257 C3287 0.950 . S
C3258 H3240 0.951 . S
C3258 C3259 1.366 . S
C3258 C3260 1.388 . S
C3259 C3258 1.366 . S
C3259 C3263 1.385 . S
C3260 H3241 0.951 . S
C3260 C3258 1.388 . S
C3260 C3261 1.366 . S
C3261 C3260 1.366 . S
C3261 C3262 1.414 . S
C3261 C3264 1.499 . S
C3262 H3242 0.950 . S
C3262 C3261 1.414 . S
C3262 C3263 1.374 . S
C3263 H3243 0.950 . S
C3263 C3259 1.385 . S
C3263 C3262 1.374 . S
C3264 C3261 1.499 . S
C3264 C3265 1.373 . S
C3264 C3266 1.389 . S
C3265 H3244 0.950 . S
C3265 C3264 1.373 . S
C3265 C3281 1.377 . S
C3266 C3264 1.389 . S
C3266 C3267 1.524 . S
C3266 C3280 1.377 . S
C3267 C3266 1.524 . S
C3267 C3268 1.397 . S
C3267 C3272 1.363 . S
C3268 H3245 0.950 . S
C3268 C3267 1.397 . S
C3268 C3269 1.334 . S
C3269 H3246 0.950 . S
C3269 C3268 1.334 . S
C3269 C3270 1.287 . S
C3270 C3269 1.287 . S
C3270 C3271 1.524 . S
C3270 H3289 0.913 . S
C3271 H3247 0.950 . S
C3271 C3270 1.524 . S
C3271 C3272 1.415 . S
C3272 H3248 0.950 . S
C3272 C3267 1.363 . S
C3272 C3271 1.415 . S
C3273 H3249 0.951 . S
C3273 C3274 1.366 . S
C3273 C3275 1.388 . S
C3274 C3273 1.366 . S
C3274 C3278 1.385 . S
C3275 H3250 0.951 . S
C3275 C3273 1.388 . S
C3275 C3276 1.366 . S
C3276 C3275 1.366 . S
C3276 C3277 1.414 . S
C3276 C3279 1.499 . S
C3277 H3251 0.950 . S
C3277 C3276 1.414 . S
C3277 C3278 1.374 . S
C3278 H3252 0.950 . S
C3278 C3274 1.385 . S
C3278 C3277 1.374 . S
C3279 C3276 1.499 . S
C3279 C3280 1.373 . S
C3279 C3281 1.389 . S
C3280 H3253 0.950 . S
C3280 C3266 1.377 . S
C3280 C3279 1.373 . S
C3281 C3265 1.377 . S
C3281 C3279 1.389 . S
C3281 C3282 1.524 . S
C3282 C3281 1.524 . S
C3282 C3283 1.397 . S
C3282 C3287 1.363 . S
C3283 H3254 0.950 . S
C3283 C3282 1.397 . S
C3283 C3284 1.334 . S
C3284 H3255 0.950 . S
C3284 C3283 1.334 . S
C3284 C3285 1.287 . S
C3285 C3284 1.287 . S
C3285 C3286 1.524 . S
C3285 H3288 0.999 . S
C3286 H3256 0.950 . S
C3286 C3285 1.524 . S
C3286 C3287 1.415 . S
C3287 H3257 0.950 . S
C3287 C3282 1.363 . S
C3287 C3286 1.415 . S
H3288 C3285 0.999 . S
H3289 C3270 0.913 . S
H3290 C3308 0.951 . S
H3291 C3310 0.951 . S
H3292 C3312 0.950 . S
H3293 C3313 0.950 . S
H3294 C3315 0.950 . S
H3295 C3318 0.950 . S
H3296 C3319 0.950 . S
H3297 C3321 0.950 . S
H3298 C3322 0.950 . S
H3299 C3323 0.951 . S
H3300 C3325 0.951 . S
H3301 C3327 0.950 . S
H3302 C3328 0.950 . S
H3303 C3330 0.950 . S
H3304 C3333 0.950 . S
H3305 C3334 0.950 . S
H3306 C3336 0.950 . S
H3307 C3337 0.950 . S
C3308 H3290 0.951 . S
C3308 C3309 1.366 . S
C3308 C3310 1.388 . S
C3309 C3308 1.366 . S
C3309 C3313 1.385 . S
C3310 H3291 0.951 . S
C3310 C3308 1.388 . S
C3310 C3311 1.366 . S
C3311 C3310 1.366 . S
C3311 C3312 1.414 . S
C3311 C3314 1.499 . S
C3312 H3292 0.950 . S
C3312 C3311 1.414 . S
C3312 C3313 1.374 . S
C3313 H3293 0.950 . S
C3313 C3309 1.385 . S
C3313 C3312 1.374 . S
C3314 C3311 1.499 . S
C3314 C3315 1.373 . S
C3314 C3316 1.389 . S
C3315 H3294 0.950 . S
C3315 C3314 1.373 . S
C3315 C3331 1.377 . S
C3316 C3314 1.389 . S
C3316 C3317 1.524 . S
C3316 C3330 1.377 . S
C3317 C3316 1.524 . S
C3317 C3318 1.397 . S
C3317 C3322 1.363 . S
C3318 H3295 0.950 . S
C3318 C3317 1.397 . S
C3318 C3319 1.334 . S
C3319 H3296 0.950 . S
C3319 C3318 1.334 . S
C3319 C3320 1.287 . S
C3320 C3319 1.287 . S
C3320 C3321 1.524 . S
C3320 H3339 0.913 . S
C3321 H3297 0.950 . S
C3321 C3320 1.524 . S
C3321 C3322 1.415 . S
C3322 H3298 0.950 . S
C3322 C3317 1.363 . S
C3322 C3321 1.415 . S
C3323 H3299 0.951 . S
C3323 C3324 1.366 . S
C3323 C3325 1.388 . S
C3324 C3323 1.366 . S
C3324 C3328 1.385 . S
C3325 H3300 0.951 . S
C3325 C3323 1.388 . S
C3325 C3326 1.366 . S
C3326 C3325 1.366 . S
C3326 C3327 1.414 . S
C3326 C3329 1.499 . S
C3327 H3301 0.950 . S
C3327 C3326 1.414 . S
C3327 C3328 1.374 . S
C3328 H3302 0.950 . S
C3328 C3324 1.385 . S
C3328 C3327 1.374 . S
C3329 C3326 1.499 . S
C3329 C3330 1.373 . S
C3329 C3331 1.389 . S
C3330 H3303 0.950 . S
C3330 C3316 1.377 . S
C3330 C3329 1.373 . S
C3331 C3315 1.377 . S
C3331 C3329 1.389 . S
C3331 C3332 1.524 . S
C3332 C3331 1.524 . S
C3332 C3333 1.397 . S
C3332 C3337 1.363 . S
C3333 H3304 0.950 . S
C3333 C3332 1.397 . S
C3333 C3334 1.334 . S
C3334 H3305 0.950 . S
C3334 C3333 1.334 . S
C3334 C3335 1.287 . S
C3335 C3334 1.287 . S
C3335 C3336 1.524 . S
C3335 H3338 0.999 . S
C3336 H3306 0.950 . S
C3336 C3335 1.524 . S
C3336 C3337 1.415 . S
C3337 H3307 0.950 . S
C3337 C3332 1.363 . S
C3337 C3336 1.415 . S
H3338 C3335 0.999 . S
H3339 C3320 0.913 . S
H3340 C3358 0.951 . S
H3341 C3360 0.951 . S
H3342 C3362 0.950 . S
H3343 C3363 0.950 . S
H3344 C3365 0.950 . S
H3345 C3368 0.950 . S
H3346 C3369 0.950 . S
H3347 C3371 0.950 . S
H3348 C3372 0.950 . S
H3349 C3373 0.951 . S
H3350 C3375 0.951 . S
H3351 C3377 0.950 . S
H3352 C3378 0.950 . S
H3353 C3380 0.950 . S
H3354 C3383 0.950 . S
H3355 C3384 0.950 . S
H3356 C3386 0.950 . S
H3357 C3387 0.950 . S
C3358 H3340 0.951 . S
C3358 C3359 1.366 . S
C3358 C3360 1.388 . S
C3359 C3358 1.366 . S
C3359 C3363 1.385 . S
C3360 H3341 0.951 . S
C3360 C3358 1.388 . S
C3360 C3361 1.366 . S
C3361 C3360 1.366 . S
C3361 C3362 1.414 . S
C3361 C3364 1.499 . S
C3362 H3342 0.950 . S
C3362 C3361 1.414 . S
C3362 C3363 1.374 . S
C3363 H3343 0.950 . S
C3363 C3359 1.385 . S
C3363 C3362 1.374 . S
C3364 C3361 1.499 . S
C3364 C3365 1.373 . S
C3364 C3366 1.389 . S
C3365 H3344 0.950 . S
C3365 C3364 1.373 . S
C3365 C3381 1.377 . S
C3366 C3364 1.389 . S
C3366 C3367 1.524 . S
C3366 C3380 1.377 . S
C3367 C3366 1.524 . S
C3367 C3368 1.397 . S
C3367 C3372 1.363 . S
C3368 H3345 0.950 . S
C3368 C3367 1.397 . S
C3368 C3369 1.334 . S
C3369 H3346 0.950 . S
C3369 C3368 1.334 . S
C3369 C3370 1.287 . S
C3370 C3369 1.287 . S
C3370 C3371 1.524 . S
C3370 H3389 0.913 . S
C3371 H3347 0.950 . S
C3371 C3370 1.524 . S
C3371 C3372 1.415 . S
C3372 H3348 0.950 . S
C3372 C3367 1.363 . S
C3372 C3371 1.415 . S
C3373 H3349 0.951 . S
C3373 C3374 1.366 . S
C3373 C3375 1.388 . S
C3374 C3373 1.366 . S
C3374 C3378 1.385 . S
C3375 H3350 0.951 . S
C3375 C3373 1.388 . S
C3375 C3376 1.366 . S
C3376 C3375 1.366 . S
C3376 C3377 1.414 . S
C3376 C3379 1.499 . S
C3377 H3351 0.950 . S
C3377 C3376 1.414 . S
C3377 C3378 1.374 . S
C3378 H3352 0.950 . S
C3378 C3374 1.385 . S
C3378 C3377 1.374 . S
C3379 C3376 1.499 . S
C3379 C3380 1.373 . S
C3379 C3381 1.389 . S
C3380 H3353 0.950 . S
C3380 C3366 1.377 . S
C3380 C3379 1.373 . S
C3381 C3365 1.377 . S
C3381 C3379 1.389 . S
C3381 C3382 1.524 . S
C3382 C3381 1.524 . S
C3382 C3383 1.397 . S
C3382 C3387 1.363 . S
C3383 H3354 0.950 . S
C3383 C3382 1.397 . S
C3383 C3384 1.334 . S
C3384 H3355 0.950 . S
C3384 C3383 1.334 . S
C3384 C3385 1.287 . S
C3385 C3384 1.287 . S
C3385 C3386 1.524 . S
C3385 H3388 0.999 . S
C3386 H3356 0.950 . S
C3386 C3385 1.524 . S
C3386 C3387 1.415 . S
C3387 H3357 0.950 . S
C3387 C3382 1.363 . S
C3387 C3386 1.415 . S
H3388 C3385 0.999 . S
H3389 C3370 0.913 . S
H3390 C3408 0.951 . S
H3391 C3410 0.951 . S
H3392 C3412 0.950 . S
H3393 C3413 0.950 . S
H3394 C3415 0.950 . S
H3395 C3418 0.950 . S
H3396 C3419 0.950 . S
H3397 C3421 0.950 . S
H3398 C3422 0.950 . S
H3399 C3423 0.951 . S
H3400 C3425 0.951 . S
H3401 C3427 0.950 . S
H3402 C3428 0.950 . S
H3403 C3430 0.950 . S
H3404 C3433 0.950 . S
H3405 C3434 0.950 . S
H3406 C3436 0.950 . S
H3407 C3437 0.950 . S
C3408 H3390 0.951 . S
C3408 C3409 1.366 . S
C3408 C3410 1.388 . S
C3409 C3408 1.366 . S
C3409 C3413 1.385 . S
C3410 H3391 0.951 . S
C3410 C3408 1.388 . S
C3410 C3411 1.366 . S
C3411 C3410 1.366 . S
C3411 C3412 1.414 . S
C3411 C3414 1.499 . S
C3412 H3392 0.950 . S
C3412 C3411 1.414 . S
C3412 C3413 1.374 . S
C3413 H3393 0.950 . S
C3413 C3409 1.385 . S
C3413 C3412 1.374 . S
C3414 C3411 1.499 . S
C3414 C3415 1.373 . S
C3414 C3416 1.389 . S
C3415 H3394 0.950 . S
C3415 C3414 1.373 . S
C3415 C3431 1.377 . S
C3416 C3414 1.389 . S
C3416 C3417 1.524 . S
C3416 C3430 1.377 . S
C3417 C3416 1.524 . S
C3417 C3418 1.397 . S
C3417 C3422 1.363 . S
C3418 H3395 0.950 . S
C3418 C3417 1.397 . S
C3418 C3419 1.334 . S
C3419 H3396 0.950 . S
C3419 C3418 1.334 . S
C3419 C3420 1.287 . S
C3420 C3419 1.287 . S
C3420 C3421 1.524 . S
C3420 H3439 0.913 . S
C3421 H3397 0.950 . S
C3421 C3420 1.524 . S
C3421 C3422 1.415 . S
C3422 H3398 0.950 . S
C3422 C3417 1.363 . S
C3422 C3421 1.415 . S
C3423 H3399 0.951 . S
C3423 C3424 1.366 . S
C3423 C3425 1.388 . S
C3424 C3423 1.366 . S
C3424 C3428 1.385 . S
C3425 H3400 0.951 . S
C3425 C3423 1.388 . S
C3425 C3426 1.366 . S
C3426 C3425 1.366 . S
C3426 C3427 1.414 . S
C3426 C3429 1.499 . S
C3427 H3401 0.950 . S
C3427 C3426 1.414 . S
C3427 C3428 1.374 . S
C3428 H3402 0.950 . S
C3428 C3424 1.385 . S
C3428 C3427 1.374 . S
C3429 C3426 1.499 . S
C3429 C3430 1.373 . S
C3429 C3431 1.389 . S
C3430 H3403 0.950 . S
C3430 C3416 1.377 . S
C3430 C3429 1.373 . S
C3431 C3415 1.377 . S
C3431 C3429 1.389 . S
C3431 C3432 1.524 . S
C3432 C3431 1.524 . S
C3432 C3433 1.397 . S
C3432 C3437 1.363 . S
C3433 H3404 0.950 . S
C3433 C3432 1.397 . S
C3433 C3434 1.334 . S
C3434 H3405 0.950 . S
C3434 C3433 1.334 . S
C3434 C3435 1.287 . S
C3435 C3434 1.287 . S
C3435 C3436 1.524 . S
C3435 H3438 0.999 . S
C3436 H3406 0.950 . S
C3436 C3435 1.524 . S
C3436 C3437 1.415 . S
C3437 H3407 0.950 . S
C3437 C3432 1.363 . S
C3437 C3436 1.415 . S
H3438 C3435 0.999 . S
H3439 C3420 0.913 . S
H3440 C3458 0.951 . S
H3441 C3460 0.951 . S
H3442 C3462 0.950 . S
H3443 C3463 0.950 . S
H3444 C3465 0.950 . S
H3445 C3468 0.950 . S
H3446 C3469 0.950 . S
H3447 C3471 0.950 . S
H3448 C3472 0.950 . S
H3449 C3473 0.951 . S
H3450 C3475 0.951 . S
H3451 C3477 0.950 . S
H3452 C3478 0.950 . S
H3453 C3480 0.950 . S
H3454 C3483 0.950 . S
H3455 C3484 0.950 . S
H3456 C3486 0.950 . S
H3457 C3487 0.950 . S
C3458 H3440 0.951 . S
C3458 C3459 1.366 . S
C3458 C3460 1.388 . S
C3459 C3458 1.366 . S
C3459 C3463 1.385 . S
C3460 H3441 0.951 . S
C3460 C3458 1.388 . S
C3460 C3461 1.366 . S
C3461 C3460 1.366 . S
C3461 C3462 1.414 . S
C3461 C3464 1.499 . S
C3462 H3442 0.950 . S
C3462 C3461 1.414 . S
C3462 C3463 1.374 . S
C3463 H3443 0.950 . S
C3463 C3459 1.385 . S
C3463 C3462 1.374 . S
C3464 C3461 1.499 . S
C3464 C3465 1.373 . S
C3464 C3466 1.389 . S
C3465 H3444 0.950 . S
C3465 C3464 1.373 . S
C3465 C3481 1.377 . S
C3466 C3464 1.389 . S
C3466 C3467 1.524 . S
C3466 C3480 1.377 . S
C3467 C3466 1.524 . S
C3467 C3468 1.397 . S
C3467 C3472 1.363 . S
C3468 H3445 0.950 . S
C3468 C3467 1.397 . S
C3468 C3469 1.334 . S
C3469 H3446 0.950 . S
C3469 C3468 1.334 . S
C3469 C3470 1.287 . S
C3470 C3469 1.287 . S
C3470 C3471 1.524 . S
C3470 H3489 0.913 . S
C3471 H3447 0.950 . S
C3471 C3470 1.524 . S
C3471 C3472 1.415 . S
C3472 H3448 0.950 . S
C3472 C3467 1.363 . S
C3472 C3471 1.415 . S
C3473 H3449 0.951 . S
C3473 C3474 1.366 . S
C3473 C3475 1.388 . S
C3474 C3473 1.366 . S
C3474 C3478 1.385 . S
C3475 H3450 0.951 . S
C3475 C3473 1.388 . S
C3475 C3476 1.366 . S
C3476 C3475 1.366 . S
C3476 C3477 1.414 . S
C3476 C3479 1.499 . S
C3477 H3451 0.950 . S
C3477 C3476 1.414 . S
C3477 C3478 1.374 . S
C3478 H3452 0.950 . S
C3478 C3474 1.385 . S
C3478 C3477 1.374 . S
C3479 C3476 1.499 . S
C3479 C3480 1.373 . S
C3479 C3481 1.389 . S
C3480 H3453 0.950 . S
C3480 C3466 1.377 . S
C3480 C3479 1.373 . S
C3481 C3465 1.377 . S
C3481 C3479 1.389 . S
C3481 C3482 1.524 . S
C3482 C3481 1.524 . S
C3482 C3483 1.397 . S
C3482 C3487 1.363 . S
C3483 H3454 0.950 . S
C3483 C3482 1.397 . S
C3483 C3484 1.334 . S
C3484 H3455 0.950 . S
C3484 C3483 1.334 . S
C3484 C3485 1.287 . S
C3485 C3484 1.287 . S
C3485 C3486 1.524 . S
C3485 H3488 0.999 . S
C3486 H3456 0.950 . S
C3486 C3485 1.524 . S
C3486 C3487 1.415 . S
C3487 H3457 0.950 . S
C3487 C3482 1.363 . S
C3487 C3486 1.415 . S
H3488 C3485 0.999 . S
H3489 C3470 0.913 . S
H3490 C3508 0.951 . S
H3491 C3510 0.951 . S
H3492 C3512 0.950 . S
H3493 C3513 0.950 . S
H3494 C3515 0.950 . S
H3495 C3518 0.950 . S
H3496 C3519 0.950 . S
H3497 C3521 0.950 . S
H3498 C3522 0.950 . S
H3499 C3523 0.951 . S
H3500 C3525 0.951 . S
H3501 C3527 0.950 . S
H3502 C3528 0.950 . S
H3503 C3530 0.950 . S
H3504 C3533 0.950 . S
H3505 C3534 0.950 . S
H3506 C3536 0.950 . S
H3507 C3537 0.950 . S
C3508 H3490 0.951 . S
C3508 C3509 1.366 . S
C3508 C3510 1.388 . S
C3509 C3508 1.366 . S
C3509 C3513 1.385 . S
C3510 H3491 0.951 . S
C3510 C3508 1.388 . S
C3510 C3511 1.366 . S
C3511 C3510 1.366 . S
C3511 C3512 1.414 . S
C3511 C3514 1.499 . S
C3512 H3492 0.950 . S
C3512 C3511 1.414 . S
C3512 C3513 1.374 . S
C3513 H3493 0.950 . S
C3513 C3509 1.385 . S
C3513 C3512 1.374 . S
C3514 C3511 1.499 . S
C3514 C3515 1.373 . S
C3514 C3516 1.389 . S
C3515 H3494 0.950 . S
C3515 C3514 1.373 . S
C3515 C3531 1.377 . S
C3516 C3514 1.389 . S
C3516 C3517 1.524 . S
C3516 C3530 1.377 . S
C3517 C3516 1.524 . S
C3517 C3518 1.397 . S
C3517 C3522 1.363 . S
C3518 H3495 0.950 . S
C3518 C3517 1.397 . S
C3518 C3519 1.334 . S
C3519 H3496 0.950 . S
C3519 C3518 1.334 . S
C3519 C3520 1.287 . S
C3520 C3519 1.287 . S
C3520 C3521 1.524 . S
C3520 H3539 0.913 . S
C3521 H3497 0.950 . S
C3521 C3520 1.524 . S
C3521 C3522 1.415 . S
C3522 H3498 0.950 . S
C3522 C3517 1.363 . S
C3522 C3521 1.415 . S
C3523 H3499 0.951 . S
C3523 C3524 1.366 . S
C3523 C3525 1.388 . S
C3524 C3523 1.366 . S
C3524 C3528 1.385 . S
C3525 H3500 0.951 . S
C3525 C3523 1.388 . S
C3525 C3526 1.366 . S
C3526 C3525 1.366 . S
C3526 C3527 1.414 . S
C3526 C3529 1.499 . S
C3527 H3501 0.950 . S
C3527 C3526 1.414 . S
C3527 C3528 1.374 . S
C3528 H3502 0.950 . S
C3528 C3524 1.385 . S
C3528 C3527 1.374 . S
C3529 C3526 1.499 . S
C3529 C3530 1.373 . S
C3529 C3531 1.389 . S
C3530 H3503 0.950 . S
C3530 C3516 1.377 . S
C3530 C3529 1.373 . S
C3531 C3515 1.377 . S
C3531 C3529 1.389 . S
C3531 C3532 1.524 . S
C3532 C3531 1.524 . S
C3532 C3533 1.397 . S
C3532 C3537 1.363 . S
C3533 H3504 0.950 . S
C3533 C3532 1.397 . S
C3533 C3534 1.334 . S
C3534 H3505 0.950 . S
C3534 C3533 1.334 . S
C3534 C3535 1.287 . S
C3535 C3534 1.287 . S
C3535 C3536 1.524 . S
C3535 H3538 0.999 . S
C3536 H3506 0.950 . S
C3536 C3535 1.524 . S
C3536 C3537 1.415 . S
C3537 H3507 0.950 . S
C3537 C3532 1.363 . S
C3537 C3536 1.415 . S
H3538 C3535 0.999 . S
H3539 C3520 0.913 . S
H3540 C3558 0.951 . S
H3541 C3560 0.951 . S
H3542 C3562 0.950 . S
H3543 C3563 0.950 . S
H3544 C3565 0.950 . S
H3545 C3568 0.950 . S
H3546 C3569 0.950 . S
H3547 C3571 0.950 . S
H3548 C3572 0.950 . S
H3549 C3573 0.951 . S
H3550 C3575 0.951 . S
H3551 C3577 0.950 . S
H3552 C3578 0.950 . S
H3553 C3580 0.950 . S
H3554 C3583 0.950 . S
H3555 C3584 0.950 . S
H3556 C3586 0.950 . S
H3557 C3587 0.950 . S
C3558 H3540 0.951 . S
C3558 C3559 1.366 . S
C3558 C3560 1.388 . S
C3559 C3558 1.366 . S
C3559 C3563 1.385 . S
C3560 H3541 0.951 . S
C3560 C3558 1.388 . S
C3560 C3561 1.366 . S
C3561 C3560 1.366 . S
C3561 C3562 1.414 . S
C3561 C3564 1.499 . S
C3562 H3542 0.950 . S
C3562 C3561 1.414 . S
C3562 C3563 1.374 . S
C3563 H3543 0.950 . S
C3563 C3559 1.385 . S
C3563 C3562 1.374 . S
C3564 C3561 1.499 . S
C3564 C3565 1.373 . S
C3564 C3566 1.389 . S
C3565 H3544 0.950 . S
C3565 C3564 1.373 . S
C3565 C3581 1.377 . S
C3566 C3564 1.389 . S
C3566 C3567 1.524 . S
C3566 C3580 1.377 . S
C3567 C3566 1.524 . S
C3567 C3568 1.397 . S
C3567 C3572 1.363 . S
C3568 H3545 0.950 . S
C3568 C3567 1.397 . S
C3568 C3569 1.334 . S
C3569 H3546 0.950 . S
C3569 C3568 1.334 . S
C3569 C3570 1.287 . S
C3570 C3569 1.287 . S
C3570 C3571 1.524 . S
C3570 H3589 0.913 . S
C3571 H3547 0.950 . S
C3571 C3570 1.524 . S
C3571 C3572 1.415 . S
C3572 H3548 0.950 . S
C3572 C3567 1.363 . S
C3572 C3571 1.415 . S
C3573 H3549 0.951 . S
C3573 C3574 1.366 . S
C3573 C3575 1.388 . S
C3574 C3573 1.366 . S
C3574 C3578 1.385 . S
C3575 H3550 0.951 . S
C3575 C3573 1.388 . S
C3575 C3576 1.366 . S
C3576 C3575 1.366 . S
C3576 C3577 1.414 . S
C3576 C3579 1.499 . S
C3577 H3551 0.950 . S
C3577 C3576 1.414 . S
C3577 C3578 1.374 . S
C3578 H3552 0.950 . S
C3578 C3574 1.385 . S
C3578 C3577 1.374 . S
C3579 C3576 1.499 . S
C3579 C3580 1.373 . S
C3579 C3581 1.389 . S
C3580 H3553 0.950 . S
C3580 C3566 1.377 . S
C3580 C3579 1.373 . S
C3581 C3565 1.377 . S
C3581 C3579 1.389 . S
C3581 C3582 1.524 . S
C3582 C3581 1.524 . S
C3582 C3583 1.397 . S
C3582 C3587 1.363 . S
C3583 H3554 0.950 . S
C3583 C3582 1.397 . S
C3583 C3584 1.334 . S
C3584 H3555 0.950 . S
C3584 C3583 1.334 . S
C3584 C3585 1.287 . S
C3585 C3584 1.287 . S
C3585 C3586 1.524 . S
C3585 H3588 0.999 . S
C3586 H3556 0.950 . S
C3586 C3585 1.524 . S
C3586 C3587 1.415 . S
C3587 H3557 0.950 . S
C3587 C3582 1.363 . S
C3587 C3586 1.415 . S
H3588 C3585 0.999 . S
H3589 C3570 0.913 . S
H3590 C3608 0.951 . S
H3591 C3610 0.951 . S
H3592 C3612 0.950 . S
H3593 C3613 0.950 . S
H3594 C3615 0.950 . S
H3595 C3618 0.950 . S
H3596 C3619 0.950 . S
H3597 C3621 0.950 . S
H3598 C3622 0.950 . S
H3599 C3623 0.951 . S
H3600 C3625 0.951 . S
H3601 C3627 0.950 . S
H3602 C3628 0.950 . S
H3603 C3630 0.950 . S
H3604 C3633 0.950 . S
H3605 C3634 0.950 . S
H3606 C3636 0.950 . S
H3607 C3637 0.950 . S
C3608 H3590 0.951 . S
C3608 C3609 1.366 . S
C3608 C3610 1.388 . S
C3609 C3608 1.366 . S
C3609 C3613 1.385 . S
C3610 H3591 0.951 . S
C3610 C3608 1.388 . S
C3610 C3611 1.366 . S
C3611 C3610 1.366 . S
C3611 C3612 1.414 . S
C3611 C3614 1.499 . S
C3612 H3592 0.950 . S
C3612 C3611 1.414 . S
C3612 C3613 1.374 . S
C3613 H3593 0.950 . S
C3613 C3609 1.385 . S
C3613 C3612 1.374 . S
C3614 C3611 1.499 . S
C3614 C3615 1.373 . S
C3614 C3616 1.389 . S
C3615 H3594 0.950 . S
C3615 C3614 1.373 . S
C3615 C3631 1.377 . S
C3616 C3614 1.389 . S
C3616 C3617 1.524 . S
C3616 C3630 1.377 . S
C3617 C3616 1.524 . S
C3617 C3618 1.397 . S
C3617 C3622 1.363 . S
C3618 H3595 0.950 . S
C3618 C3617 1.397 . S
C3618 C3619 1.334 . S
C3619 H3596 0.950 . S
C3619 C3618 1.334 . S
C3619 C3620 1.287 . S
C3620 C3619 1.287 . S
C3620 C3621 1.524 . S
C3620 H3639 0.913 . S
C3621 H3597 0.950 . S
C3621 C3620 1.524 . S
C3621 C3622 1.415 . S
C3622 H3598 0.950 . S
C3622 C3617 1.363 . S
C3622 C3621 1.415 . S
C3623 H3599 0.951 . S
C3623 C3624 1.366 . S
C3623 C3625 1.388 . S
C3624 C3623 1.366 . S
C3624 C3628 1.385 . S
C3625 H3600 0.951 . S
C3625 C3623 1.388 . S
C3625 C3626 1.366 . S
C3626 C3625 1.366 . S
C3626 C3627 1.414 . S
C3626 C3629 1.499 . S
C3627 H3601 0.950 . S
C3627 C3626 1.414 . S
C3627 C3628 1.374 . S
C3628 H3602 0.950 . S
C3628 C3624 1.385 . S
C3628 C3627 1.374 . S
C3629 C3626 1.499 . S
C3629 C3630 1.373 . S
C3629 C3631 1.389 . S
C3630 H3603 0.950 . S
C3630 C3616 1.377 . S
C3630 C3629 1.373 . S
C3631 C3615 1.377 . S
C3631 C3629 1.389 . S
C3631 C3632 1.524 . S
C3632 C3631 1.524 . S
C3632 C3633 1.397 . S
C3632 C3637 1.363 . S
C3633 H3604 0.950 . S
C3633 C3632 1.397 . S
C3633 C3634 1.334 . S
C3634 H3605 0.950 . S
C3634 C3633 1.334 . S
C3634 C3635 1.287 . S
C3635 C3634 1.287 . S
C3635 C3636 1.524 . S
C3635 H3638 0.999 . S
C3636 H3606 0.950 . S
C3636 C3635 1.524 . S
C3636 C3637 1.415 . S
C3637 H3607 0.950 . S
C3637 C3632 1.363 . S
C3637 C3636 1.415 . S
H3638 C3635 0.999 . S
H3639 C3620 0.913 . S
H3640 C3658 0.951 . S
H3641 C3660 0.951 . S
H3642 C3662 0.950 . S
H3643 C3663 0.950 . S
H3644 C3665 0.950 . S
H3645 C3668 0.950 . S
H3646 C3669 0.950 . S
H3647 C3671 0.950 . S
H3648 C3672 0.950 . S
H3649 C3673 0.951 . S
H3650 C3675 0.951 . S
H3651 C3677 0.950 . S
H3652 C3678 0.950 . S
H3653 C3680 0.950 . S
H3654 C3683 0.950 . S
H3655 C3684 0.950 . S
H3656 C3686 0.950 . S
H3657 C3687 0.950 . S
C3658 H3640 0.951 . S
C3658 C3659 1.366 . S
C3658 C3660 1.388 . S
C3659 C3658 1.366 . S
C3659 C3663 1.385 . S
C3660 H3641 0.951 . S
C3660 C3658 1.388 . S
C3660 C3661 1.366 . S
C3661 C3660 1.366 . S
C3661 C3662 1.414 . S
C3661 C3664 1.499 . S
C3662 H3642 0.950 . S
C3662 C3661 1.414 . S
C3662 C3663 1.374 . S
C3663 H3643 0.950 . S
C3663 C3659 1.385 . S
C3663 C3662 1.374 . S
C3664 C3661 1.499 . S
C3664 C3665 1.373 . S
C3664 C3666 1.389 . S
C3665 H3644 0.950 . S
C3665 C3664 1.373 . S
C3665 C3681 1.377 . S
C3666 C3664 1.389 . S
C3666 C3667 1.524 . S
C3666 C3680 1.377 . S
C3667 C3666 1.524 . S
C3667 C3668 1.397 . S
C3667 C3672 1.363 . S
C3668 H3645 0.950 . S
C3668 C3667 1.397 . S
C3668 C3669 1.334 . S
C3669 H3646 0.950 . S
C3669 C3668 1.334 . S
C3669 C3670 1.287 . S
C3670 C3669 1.287 . S
C3670 C3671 1.524 . S
C3670 H3689 0.913 . S
C3671 H3647 0.950 . S
C3671 C3670 1.524 . S
C3671 C3672 1.415 . S
C3672 H3648 0.950 . S
C3672 C3667 1.363 . S
C3672 C3671 1.415 . S
C3673 H3649 0.951 . S
C3673 C3674 1.366 . S
C3673 C3675 1.388 . S
C3674 C3673 1.366 . S
C3674 C3678 1.385 . S
C3675 H3650 0.951 . S
C3675 C3673 1.388 . S
C3675 C3676 1.366 . S
C3676 C3675 1.366 . S
C3676 C3677 1.414 . S
C3676 C3679 1.499 . S
C3677 H3651 0.950 . S
C3677 C3676 1.414 . S
C3677 C3678 1.374 . S
C3678 H3652 0.950 . S
C3678 C3674 1.385 . S
C3678 C3677 1.374 . S
C3679 C3676 1.499 . S
C3679 C3680 1.373 . S
C3679 C3681 1.389 . S
C3680 H3653 0.950 . S
C3680 C3666 1.377 . S
C3680 C3679 1.373 . S
C3681 C3665 1.377 . S
C3681 C3679 1.389 . S
C3681 C3682 1.524 . S
C3682 C3681 1.524 . S
C3682 C3683 1.397 . S
C3682 C3687 1.363 . S
C3683 H3654 0.950 . S
C3683 C3682 1.397 . S
C3683 C3684 1.334 . S
C3684 H3655 0.950 . S
C3684 C3683 1.334 . S
C3684 C3685 1.287 . S
C3685 C3684 1.287 . S
C3685 C3686 1.524 . S
C3685 H3688 0.999 . S
C3686 H3656 0.950 . S
C3686 C3685 1.524 . S
C3686 C3687 1.415 . S
C3687 H3657 0.950 . S
C3687 C3682 1.363 . S
C3687 C3686 1.415 . S
H3688 C3685 0.999 . S
H3689 C3670 0.913 . S
C1009 C177 1.435 . S
C1024 C301 1.379 . S
C1059 C190 1.462 . S
C1074 C385 1.410 . S
C1109 C164 1.429 . S
C1124 C465 1.420 . S
C1159 C151 1.404 . S
C1174 C381 1.396 1_556 S
C1224 C469 1.357 . S
C1209 C125 1.411 . S
C1259 C138 1.379 . S
C1274 C297 1.354 1_556 S
C1324 C290 1.435 . S
C1309 C147 1.439 . S
C1374 C374 1.461 . S
C1359 C121 1.459 . S
C1409 C134 1.458 . S
C1424 C476 1.474 1_556 S
C1459 C173 1.423 . S
C1474 C392 1.444 . S
C1509 C186 1.406 . S
C1524 C458 1.401 . S
C1574 C308 1.422 . S
C1559 C160 1.405 . S
C1624 C553 1.380 . S
C1609 C21 1.435 . S
C1659 C34 1.462 . S
C1674 C637 1.410 . S
C1709 C8 1.428 . S
C1724 C717 1.420 . S
C1759 C229 1.403 . S
C1774 C633 1.396 . S
C1809 C203 1.411 . S
C1824 C721 1.356 . S
C1859 C216 1.379 . S
C1874 C549 1.371 . S
C1909 C225 1.439 . S
C1924 C542 1.435 . S
C1959 C199 1.459 . S
C1974 C626 1.462 . S
C2024 C728 1.479 . S
C2009 C212 1.458 . S
C2059 C17 1.422 . S
C2074 C644 1.444 . S
C2124 C710 1.402 . S
C2109 C30 1.405 . S
C2159 C4 1.405 . S
C2174 C560 1.422 . S
C2224 C805 1.379 . S
C2209 C99 1.435 . S
C2259 C112 1.462 . S
C2274 C889 1.410 . S
C2324 C969 1.421 . S
C2309 C86 1.429 . S
C2374 C885 1.396 . S
C2359 C73 1.403 . S
C2424 C973 1.355 . S
C2409 C47 1.411 . S
C2459 C60 1.380 . S
C2474 C801 1.371 . S
C2509 C69 1.440 . S
C2524 C794 1.434 . S
C2559 C43 1.459 . S
C2574 C878 1.461 . S
C2624 C980 1.479 . S
C2609 C56 1.458 . S
C2659 C95 1.422 . S
C2674 C896 1.445 . S
C2709 C108 1.406 . S
C2724 C962 1.402 . S
C2759 C82 1.405 . S
C2774 C812 1.422 . S
C2809 C204 1.548 . S
C2824 C304 1.425 . S
C2874 C388 1.481 . S
C2859 C217 1.628 . S
C2909 C230 1.565 . S
C2924 C460 1.386 . S
C2959 C87 1.599 . S
C2974 C376 1.409 . S
C3009 C100 1.581 . S
C3024 C472 1.442 . S
C3074 C292 1.355 . S
C3059 C113 1.519 . S
C3109 C48 1.548 . S
C3124 C556 1.423 . S
C3159 C61 1.628 . S
C3174 C640 1.481 . S
C3209 C74 1.565 . S
C3224 C712 1.388 . S
C3259 C165 1.599 . S
C3274 C628 1.409 . S
C3324 C724 1.442 . S
C3309 C178 1.581 . S
C3359 C191 1.519 . S
C3374 C544 1.354 . S
C3409 C126 1.548 . S
C3424 C808 1.423 . S
C3459 C139 1.628 . S
C3474 C892 1.481 . S
C3524 C964 1.386 . S
C3509 C152 1.565 . S
C3559 C9 1.599 . S
C3574 C880 1.409 . S
C3609 C22 1.581 . S
C3624 C976 1.442 . S
C3659 C35 1.519 . S
C3674 C796 1.357 . S
