# Generated by pormake.
# Topology nom, (4,4)-cn, num edge types: 1
# Building blocks:
#     Node 0, Type 0, BuildingBlock: NAWXER_clean_linker_0, # of connection points: 4
#     Node 1, Type 0, BuildingBlock: NAWXER_clean_linker_0, # of connection points: 4
#     Node 2, Type 0, BuildingBlock: NAWXER_clean_linker_0, # of connection points: 4
#     Node 3, Type 0, BuildingBlock: NAWXER_clean_linker_0, # of connection points: 4
#     Node 4, Type 0, BuildingBlock: NAWXER_clean_linker_0, # of connection points: 4
#     Node 5, Type 0, BuildingBlock: NAWXER_clean_linker_0, # of connection points: 4
#     Node 6, Type 1, BuildingBlock: QUQFOY_clean_sbu_1, # of connection points: 4
#     Node 7, Type 1, BuildingBlock: QUQFOY_clean_sbu_1, # of connection points: 4
#     Node 8, Type 1, BuildingBlock: QUQFOY_clean_sbu_1, # of connection points: 4
#     Node 9, Type 1, BuildingBlock: QUQFOY_clean_sbu_1, # of connection points: 4
#     Node 10, Type 1, BuildingBlock: QUQFOY_clean_sbu_1, # of connection points: 4
#     Node 11, Type 1, BuildingBlock: QUQFOY_clean_sbu_1, # of connection points: 4
#     Edge 12, Type (0, 1), BuildingBlock: ZUJKAS_clean_linker_0, # of connection points: 2
#     Edge 13, Type (0, 1), BuildingBlock: ZUJKAS_clean_linker_0, # of connection points: 2
#     Edge 14, Type (0, 1), BuildingBlock: ZUJKAS_clean_linker_0, # of connection points: 2
#     Edge 15, Type (0, 1), BuildingBlock: ZUJKAS_clean_linker_0, # of connection points: 2
#     Edge 16, Type (0, 1), BuildingBlock: ZUJKAS_clean_linker_0, # of connection points: 2
#     Edge 17, Type (0, 1), BuildingBlock: ZUJKAS_clean_linker_0, # of connection points: 2
#     Edge 18, Type (0, 1), BuildingBlock: ZUJKAS_clean_linker_0, # of connection points: 2
#     Edge 19, Type (0, 1), BuildingBlock: ZUJKAS_clean_linker_0, # of connection points: 2
#     Edge 20, Type (0, 1), BuildingBlock: ZUJKAS_clean_linker_0, # of connection points: 2
#     Edge 21, Type (0, 1), BuildingBlock: ZUJKAS_clean_linker_0, # of connection points: 2
#     Edge 22, Type (0, 1), BuildingBlock: ZUJKAS_clean_linker_0, # of connection points: 2
#     Edge 23, Type (0, 1), BuildingBlock: ZUJKAS_clean_linker_0, # of connection points: 2
#     Edge 24, Type (0, 1), BuildingBlock: ZUJKAS_clean_linker_0, # of connection points: 2
#     Edge 25, Type (0, 1), BuildingBlock: ZUJKAS_clean_linker_0, # of connection points: 2
#     Edge 26, Type (0, 1), BuildingBlock: ZUJKAS_clean_linker_0, # of connection points: 2
#     Edge 27, Type (0, 1), BuildingBlock: ZUJKAS_clean_linker_0, # of connection points: 2
#     Edge 28, Type (0, 1), BuildingBlock: ZUJKAS_clean_linker_0, # of connection points: 2
#     Edge 29, Type (0, 1), BuildingBlock: ZUJKAS_clean_linker_0, # of connection points: 2
#     Edge 30, Type (0, 1), BuildingBlock: ZUJKAS_clean_linker_0, # of connection points: 2
#     Edge 31, Type (0, 1), BuildingBlock: ZUJKAS_clean_linker_0, # of connection points: 2
#     Edge 32, Type (0, 1), BuildingBlock: ZUJKAS_clean_linker_0, # of connection points: 2
#     Edge 33, Type (0, 1), BuildingBlock: ZUJKAS_clean_linker_0, # of connection points: 2
#     Edge 34, Type (0, 1), BuildingBlock: ZUJKAS_clean_linker_0, # of connection points: 2
#     Edge 35, Type (0, 1), BuildingBlock: ZUJKAS_clean_linker_0, # of connection points: 2
# Relax obj value: 0.025
# Max RMSD: 0.129
# Mean RMSD: 0.123
data_MOF--net-nom--node1-QUQFOY_clean_sbu_1--node2-NAWXER_clean_linker_0--edge1-ZUJKAS_clean_linker_0
_symmetry_space_group_name_H-M    P1
_symmetry_Int_Tables_number       1
_symmetry_cell_setting            triclinic
loop_
_symmetry_equiv_pos_as_xyz
'x, y, z'
_cell_length_a     67.809839
_cell_length_b     67.816561
_cell_length_c     68.741538
_cell_angle_alpha  89.995262
_cell_angle_beta   90.029428
_cell_angle_gamma 119.99461
loop_
_atom_site_label
_atom_site_type_symbol
_atom_site_fract_x
_atom_site_fract_y
_atom_site_fract_z
_atom_type_partial_charge
C0 C 0.93022 0.47624 0.33969 0.0
C1 C 0.92093 0.45945 0.35423 0.0
C2 C 0.95202 0.48357 0.33245 0.0
C3 C 0.96495 0.47411 0.33943 0.0
C4 C 0.93393 0.45007 0.36131 0.0
C5 C 0.95586 0.4575 0.35408 0.0
C6 C 0.98832 0.48246 0.33208 0.0
C7 C 0.94073 0.4452 0.28293 0.0
C8 C 0.9426 0.45906 0.26701 0.0
C9 C 0.95731 0.45338 0.29753 0.0
C10 C 0.97598 0.47564 0.29658 0.0
C11 C 0.96156 0.48116 0.26592 0.0
C12 C 0.97812 0.48931 0.28051 0.0
C13 C 0.99359 0.48467 0.31202 0.0
C14 C 0.09604 0.52464 0.31216 0.0
C15 C 0.10216 0.54251 0.2988 0.0
C16 C 0.07355 0.51173 0.31867 0.0
C17 C 0.05683 0.51661 0.3121 0.0
C18 C 0.08515 0.54677 0.29177 0.0
C19 C 0.06272 0.53387 0.29827 0.0
C20 C 0.03322 0.50417 0.31962 0.0
C21 C 0.07832 0.54385 0.3696 0.0
C22 C 0.07887 0.52997 0.38454 0.0
C23 C 0.06174 0.53463 0.35505 0.0
C24 C 0.04553 0.5113 0.35504 0.0
C25 C 0.06236 0.50668 0.38466 0.0
C26 C 0.04575 0.49748 0.37011 0.0
C27 C 0.02794 0.50139 0.33969 0.0
H28 H 0.92059 0.48367 0.3338 0.0
H29 H 0.95887 0.49683 0.3215 0.0
H30 H 0.92732 0.43729 0.37267 0.0
H31 H 0.96567 0.45021 0.35986 0.0
H32 H 0.92632 0.42813 0.28423 0.0
H33 H 0.95556 0.44227 0.30953 0.0
H34 H 0.96373 0.49212 0.25367 0.0
H35 H 0.99249 0.50645 0.27935 0.0
H36 H 0.10863 0.52066 0.31761 0.0
H37 H 0.06928 0.49808 0.32896 0.0
H38 H 0.08928 0.56056 0.28168 0.0
H39 H 0.05009 0.53787 0.29293 0.0
H40 H 0.09084 0.56182 0.36904 0.0
H41 H 0.06158 0.54573 0.3438 0.0
H42 H 0.06209 0.49563 0.39615 0.0
H43 H 0.03319 0.4795 0.37051 0.0
N44 N 0.00569 0.49063 0.34516 0.0
N45 N 0.01583 0.49569 0.30658 0.0
C46 C 0.42472 0.928 0.507 0.0
C47 C 0.43337 0.92031 0.52192 0.0
C48 C 0.43718 0.95037 0.50025 0.0
C49 C 0.45881 0.96538 0.50796 0.0
C50 C 0.45465 0.93556 0.53013 0.0
C51 C 0.46724 0.95791 0.52322 0.0
C52 C 0.47236 0.98902 0.50056 0.0
C53 C 0.46618 0.94323 0.45129 0.0
C54 C 0.45339 0.94381 0.43541 0.0
C55 C 0.47336 0.95972 0.46588 0.0
C56 C 0.46766 0.97697 0.46504 0.0
C57 C 0.44809 0.96137 0.43442 0.0
C58 C 0.45528 0.97786 0.44904 0.0
C59 C 0.47511 0.99444 0.48051 0.0
C60 C 0.54069 0.09554 0.48009 0.0
C61 C 0.52972 0.10294 0.46706 0.0
C62 C 0.52963 0.0731 0.48686 0.0
C63 C 0.5073 0.05767 0.48088 0.0
C64 C 0.50756 0.08723 0.46073 0.0
C65 C 0.49654 0.06479 0.46749 0.0
C66 C 0.49513 0.03401 0.48828 0.0
C67 C 0.50541 0.07999 0.53898 0.0
C68 C 0.51991 0.07941 0.55334 0.0
C69 C 0.4965 0.06344 0.52438 0.0
C70 C 0.50206 0.04609 0.52377 0.0
C71 C 0.5251 0.06175 0.55283 0.0
C72 C 0.51614 0.04519 0.53826 0.0
C73 C 0.49302 0.0286 0.5083 0.0
H74 H 0.40815 0.9168 0.50071 0.0
H75 H 0.42985 0.95592 0.48901 0.0
H76 H 0.46173 0.93009 0.54165 0.0
H77 H 0.48374 0.96926 0.52958 0.0
H78 H 0.47045 0.92988 0.45256 0.0
H79 H 0.4834 0.959 0.47783 0.0
H80 H 0.43862 0.96252 0.42221 0.0
H81 H 0.45096 0.9912 0.44797 0.0
H82 H 0.5579 0.10705 0.48496 0.0
H83 H 0.53853 0.06781 0.49677 0.0
H84 H 0.4985 0.09238 0.45087 0.0
H85 H 0.47937 0.05311 0.46258 0.0
H86 H 0.50069 0.09307 0.53916 0.0
H87 H 0.48519 0.06414 0.51362 0.0
H88 H 0.5364 0.06091 0.56351 0.0
H89 H 0.52054 0.03187 0.5381 0.0
N90 N 0.48172 0.00633 0.51368 0.0
N91 N 0.48609 0.01671 0.47515 0.0
C92 C 0.57132 0.50125 0.61695 0.0
C93 C 0.55741 0.48928 0.60104 0.0
C94 C 0.56341 0.51014 0.63133 0.0
C95 C 0.54132 0.50698 0.63024 0.0
C96 C 0.53549 0.48658 0.59978 0.0
C97 C 0.52758 0.49542 0.6142 0.0
C98 C 0.53261 0.51616 0.64543 0.0
C99 C 0.54082 0.46159 0.6741 0.0
C100 C 0.55803 0.46948 0.68831 0.0
C101 C 0.5333 0.47587 0.66675 0.0
C102 C 0.54298 0.49844 0.67328 0.0
C103 C 0.56755 0.49203 0.69501 0.0
C104 C 0.55993 0.50632 0.68767 0.0
C105 C 0.53479 0.51345 0.66556 0.0
C106 C 0.47663 0.54749 0.70177 0.0
C107 C 0.49073 0.56048 0.71721 0.0
C108 C 0.48491 0.539 0.68735 0.0
C109 C 0.50763 0.54384 0.68784 0.0
C110 C 0.51324 0.56473 0.718 0.0
C111 C 0.52159 0.55645 0.70346 0.0
C112 C 0.51674 0.53513 0.67261 0.0
C113 C 0.49577 0.58122 0.64366 0.0
C114 C 0.47792 0.56969 0.63023 0.0
C115 C 0.50802 0.5711 0.65062 0.0
C116 C 0.5024 0.54913 0.64448 0.0
C117 C 0.47298 0.54807 0.62361 0.0
C118 C 0.48517 0.53797 0.63059 0.0
C119 C 0.51409 0.53739 0.65246 0.0
H120 H 0.58826 0.50358 0.61839 0.0
H121 H 0.57461 0.51954 0.64328 0.0
H122 H 0.5245 0.47784 0.58754 0.0
H123 H 0.51059 0.49302 0.61291 0.0
H124 H 0.53327 0.44439 0.66851 0.0
H125 H 0.51982 0.46922 0.65599 0.0
H126 H 0.58064 0.4985 0.70611 0.0
H127 H 0.56741 0.52359 0.69309 0.0
H128 H 0.45908 0.54357 0.70101 0.0
H129 H 0.47352 0.52857 0.67588 0.0
H130 H 0.5245 0.57474 0.72971 0.0
H131 H 0.53907 0.56014 0.70427 0.0
H132 H 0.50025 0.59804 0.64881 0.0
H133 H 0.52167 0.58031 0.66094 0.0
H134 H 0.45918 0.53858 0.61347 0.0
H135 H 0.48062 0.52108 0.62556 0.0
N136 N 0.52211 0.52778 0.63968 0.0
N137 N 0.52704 0.52329 0.67837 0.0
C138 C 0.93113 0.42296 0.81143 0.0
C139 C 0.92335 0.43204 0.79692 0.0
C140 C 0.95323 0.43564 0.81878 0.0
C141 C 0.96793 0.45775 0.8119 0.0
C142 C 0.93827 0.45401 0.78976 0.0
C143 C 0.96043 0.46668 0.79709 0.0
C144 C 0.99126 0.47141 0.81985 0.0
C145 C 0.94323 0.46411 0.86761 0.0
C146 C 0.9447 0.45325 0.88449 0.0
C147 C 0.95988 0.47107 0.85319 0.0
C148 C 0.97802 0.46674 0.85511 0.0
C149 C 0.96311 0.44939 0.88662 0.0
C150 C 0.97962 0.45609 0.87206 0.0
C151 C 0.99598 0.4743 0.84002 0.0
C152 C 0.09761 0.53904 0.84217 0.0
C153 C 0.10403 0.52828 0.85629 0.0
C154 C 0.07539 0.52828 0.83487 0.0
C155 C 0.05924 0.50638 0.84128 0.0
C156 C 0.08754 0.50671 0.86319 0.0
C157 C 0.06537 0.49593 0.85581 0.0
C158 C 0.03583 0.49431 0.83322 0.0
C159 C 0.08366 0.50444 0.78409 0.0
C160 C 0.08339 0.51868 0.76934 0.0
C161 C 0.06656 0.49547 0.79822 0.0
C162 C 0.04901 0.50077 0.79797 0.0
C163 C 0.06543 0.52342 0.76886 0.0
C164 C 0.04836 0.51445 0.78298 0.0
C165 C 0.03108 0.49195 0.81305 0.0
H166 H 0.92003 0.40616 0.81734 0.0
H167 H 0.9588 0.42817 0.82989 0.0
H168 H 0.93289 0.46135 0.77839 0.0
H169 H 0.97159 0.48359 0.79142 0.0
H170 H 0.92946 0.46771 0.86579 0.0
H171 H 0.9587 0.4801 0.84066 0.0
H172 H 0.96463 0.441 0.89948 0.0
H173 H 0.99359 0.45281 0.874 0.0
H174 H 0.10986 0.5556 0.83647 0.0
H175 H 0.0709 0.53702 0.82409 0.0
H176 H 0.09174 0.49814 0.87435 0.0
H177 H 0.0531 0.47921 0.86121 0.0
H178 H 0.09728 0.5005 0.78488 0.0
H179 H 0.06711 0.48449 0.80939 0.0
H180 H 0.06448 0.53395 0.75747 0.0
H181 H 0.0348 0.5185 0.78237 0.0
N182 N 0.00898 0.48062 0.80715 0.0
N183 N 0.01809 0.48537 0.8459 0.0
C184 C 0.47417 0.93041 0.97962 0.0
C185 C 0.45691 0.92163 0.96546 0.0
C186 C 0.4821 0.95214 0.98729 0.0
C187 C 0.47283 0.96552 0.98106 0.0
C188 C 0.44762 0.93504 0.95922 0.0
C189 C 0.45569 0.9569 0.96683 0.0
C190 C 0.48197 0.98893 0.98862 0.0
C191 C 0.44488 0.94152 0.03786 0.0
C192 C 0.45913 0.94249 0.05316 0.0
C193 C 0.45305 0.95829 0.02344 0.0
C194 C 0.47568 0.97629 0.02396 0.0
C195 C 0.48169 0.96074 0.05375 0.0
C196 C 0.48981 0.97754 0.03937 0.0
C197 C 0.48463 0.99405 0.00869 0.0
C198 C 0.52699 0.0972 0.00829 0.0
C199 C 0.54289 0.10231 0.02329 0.0
C200 C 0.51385 0.07486 0.00153 0.0
C201 C 0.51701 0.05737 0.00915 0.0
C202 C 0.54514 0.08464 0.03164 0.0
C203 C 0.53236 0.06241 0.02461 0.0
C204 C 0.50447 0.03378 0.00137 0.0
C205 C 0.54429 0.07813 0.95087 0.0
C206 C 0.5303 0.07936 0.93635 0.0
C207 C 0.53498 0.06164 0.96547 0.0
C208 C 0.51149 0.04613 0.96591 0.0
C209 C 0.50679 0.06357 0.93675 0.0
C210 C 0.49753 0.047 0.9513 0.0
C211 C 0.50148 0.0286 0.98126 0.0
H212 H 0.48156 0.92044 0.98481 0.0
H213 H 0.49572 0.95862 0.99792 0.0
H214 H 0.43447 0.9288 0.94818 0.0
H215 H 0.44852 0.96707 0.96166 0.0
H216 H 0.42729 0.92798 0.03716 0.0
H217 H 0.44164 0.95727 0.01195 0.0
H218 H 0.49322 0.9619 0.06518 0.0
H219 H 0.5073 0.99132 0.04009 0.0
H220 H 0.52472 0.11051 0.00183 0.0
H221 H 0.50139 0.07135 0.99023 0.0
H222 H 0.55734 0.08817 0.0432 0.0
H223 H 0.53495 0.04924 0.03094 0.0
H224 H 0.56251 0.08969 0.95079 0.0
H225 H 0.54614 0.06091 0.97638 0.0
H226 H 0.49546 0.06415 0.92595 0.0
H227 H 0.47937 0.03508 0.95134 0.0
N228 N 0.49029 0.00639 0.97567 0.0
N229 N 0.49594 0.01624 0.01428 0.0
C230 C 0.51454 0.5989 0.17645 0.0
C231 C 0.49548 0.58768 0.18873 0.0
C232 C 0.52539 0.58753 0.16924 0.0
C233 C 0.5174 0.56467 0.17412 0.0
C234 C 0.48783 0.56489 0.19391 0.0
C235 C 0.49881 0.55356 0.18678 0.0
C236 C 0.52864 0.55247 0.16624 0.0
C237 C 0.49223 0.56254 0.11629 0.0
C238 C 0.50665 0.57735 0.10178 0.0
C239 C 0.50081 0.55444 0.13076 0.0
C240 C 0.52401 0.56107 0.13113 0.0
C241 C 0.52987 0.58382 0.1021 0.0
C242 C 0.53842 0.57562 0.11658 0.0
C243 C 0.53304 0.55209 0.1462 0.0
C244 C 0.56862 0.48666 0.14271 0.0
C245 C 0.58789 0.4987 0.1308 0.0
C246 C 0.5568 0.49716 0.14972 0.0
C247 C 0.56413 0.51997 0.14511 0.0
C248 C 0.59474 0.52134 0.12572 0.0
C249 C 0.58288 0.53181 0.13273 0.0
C250 C 0.55229 0.53156 0.15304 0.0
C251 C 0.58559 0.51711 0.2031 0.0
C252 C 0.5701 0.50191 0.21686 0.0
C253 C 0.57844 0.52699 0.18897 0.0
C254 C 0.55558 0.52164 0.18814 0.0
C255 C 0.54735 0.49702 0.21626 0.0
C256 C 0.54021 0.50688 0.2021 0.0
C257 C 0.54766 0.5317 0.17308 0.0
H258 H 0.52129 0.6166 0.17254 0.0
H259 H 0.54011 0.59664 0.15991 0.0
H260 H 0.4731 0.55565 0.20319 0.0
H261 H 0.49247 0.53596 0.19081 0.0
H262 H 0.47418 0.55677 0.11624 0.0
H263 H 0.4892 0.54267 0.1415 0.0
H264 H 0.54149 0.59533 0.09125 0.0
H265 H 0.55636 0.58083 0.11652 0.0
H266 H 0.5626 0.46908 0.14657 0.0
H267 H 0.54197 0.48748 0.15881 0.0
H268 H 0.60962 0.53118 0.11673 0.0
H269 H 0.58872 0.54937 0.12887 0.0
H270 H 0.6032 0.52119 0.20311 0.0
H271 H 0.59078 0.53881 0.17868 0.0
H272 H 0.53509 0.48575 0.22687 0.0
H273 H 0.52257 0.50275 0.20189 0.0
N274 N 0.53593 0.54208 0.17891 0.0
N275 N 0.54488 0.54184 0.14037 0.0
O276 O 0.61553 0.38675 0.43247 0.0
Cd277 Cd 0.62035 0.37253 0.40768 0.0
Cd278 Cd 0.66197 0.40963 0.40912 0.0
O279 O 0.65069 0.41535 0.43526 0.0
O280 O 0.59582 0.34004 0.4081 0.0
O281 O 0.63243 0.35097 0.41052 0.0
C282 C 0.61146 0.3347 0.41036 0.0
C283 C 0.69739 0.41185 0.40733 0.0
C284 C 0.63043 0.40409 0.44168 0.0
C285 C 0.63261 0.40521 0.37466 0.0
O286 O 0.65092 0.41767 0.38397 0.0
O287 O 0.61818 0.38568 0.38118 0.0
O288 O 0.69561 0.42984 0.40897 0.0
O289 O 0.67887 0.39231 0.40723 0.0
O290 O 0.24584 0.60285 0.60026 0.0
Cd291 Cd 0.26498 0.61264 0.57513 0.0
Cd292 Cd 0.25897 0.64872 0.57781 0.0
O293 O 0.24408 0.6342 0.60412 0.0
O294 O 0.28017 0.59402 0.57425 0.0
O295 O 0.29907 0.63151 0.57748 0.0
C296 C 0.29932 0.6126 0.57657 0.0
C297 C 0.28694 0.68705 0.57643 0.0
C298 C 0.23959 0.61464 0.61009 0.0
C299 C 0.23823 0.61819 0.54315 0.0
O300 O 0.24002 0.63496 0.55287 0.0
O301 O 0.24791 0.60736 0.54905 0.0
O302 O 0.26577 0.68085 0.5789 0.0
O303 O 0.29237 0.67135 0.57514 0.0
O304 O 0.63627 0.24155 0.76925 0.0
Cd305 Cd 0.65028 0.2592 0.74383 0.0
Cd306 Cd 0.61314 0.26444 0.74485 0.0
O307 O 0.60696 0.24715 0.77091 0.0
O308 O 0.68216 0.26526 0.74405 0.0
O309 O 0.67346 0.29262 0.74532 0.0
C310 C 0.68882 0.28665 0.74538 0.0
C311 C 0.6105 0.29742 0.74319 0.0
C312 C 0.61857 0.23884 0.77798 0.0
C313 C 0.61735 0.23888 0.71076 0.0
O314 O 0.60541 0.24577 0.7195 0.0
O315 O 0.63636 0.24293 0.71779 0.0
O316 O 0.59265 0.27753 0.7446 0.0
O317 O 0.63017 0.29871 0.74325 0.0
O318 O 0.42107 0.65554 0.93322 0.0
Cd319 Cd 0.41171 0.66609 0.90843 0.0
Cd320 Cd 0.37535 0.62413 0.91045 0.0
O321 O 0.38929 0.62275 0.93675 0.0
O322 O 0.43069 0.69988 0.90845 0.0
O323 O 0.39315 0.68161 0.91102 0.0
C324 C 0.4122 0.70066 0.91054 0.0
C325 C 0.33723 0.61452 0.90871 0.0
C326 C 0.40898 0.63738 0.94282 0.0
C327 C 0.406 0.63464 0.87577 0.0
O328 O 0.38939 0.61944 0.88546 0.0
O329 O 0.41676 0.65506 0.88188 0.0
O330 O 0.34302 0.59916 0.91055 0.0
O331 O 0.35323 0.63559 0.90828 0.0
O332 O 0.77654 0.37229 0.0489 0.0
Cd333 Cd 0.7579 0.36021 0.0742 0.0
Cd334 Cd 0.76388 0.40269 0.07518 0.0
O335 O 0.78059 0.40663 0.04916 0.0
O336 O 0.74418 0.32663 0.07209 0.0
O337 O 0.72361 0.34366 0.07322 0.0
C338 C 0.72446 0.32511 0.07167 0.0
C339 C 0.73621 0.4134 0.07749 0.0
C340 C 0.78413 0.39178 0.04117 0.0
C341 C 0.78387 0.38923 0.10821 0.0
O342 O 0.78132 0.40476 0.10034 0.0
O343 O 0.77535 0.36968 0.10035 0.0
O344 O 0.75759 0.42832 0.07664 0.0
O345 O 0.73041 0.39214 0.07663 0.0
O346 O 0.40417 0.7807 0.2197 0.0
Cd347 Cd 0.40088 0.76305 0.24505 0.0
Cd348 Cd 0.35867 0.75696 0.24437 0.0
O349 O 0.36853 0.77282 0.21762 0.0
O350 O 0.42586 0.75573 0.24439 0.0
O351 O 0.38935 0.7294 0.24399 0.0
C352 C 0.41044 0.7345 0.24354 0.0
C353 C 0.32414 0.72297 0.24735 0.0
C354 C 0.38858 0.78213 0.21068 0.0
C355 C 0.38893 0.78418 0.27767 0.0
O356 O 0.37007 0.77719 0.26892 0.0
O357 O 0.40364 0.77958 0.27096 0.0
O358 O 0.3249 0.74223 0.24516 0.0
O359 O 0.34316 0.72292 0.24743 0.0
H360 H 0.14043 0.55898 0.32149 0.0
H361 H 0.17966 0.58621 0.31226 0.0
H362 H 0.1577 0.58773 0.25368 0.0
H363 H 0.11856 0.5598 0.26255 0.0
H364 H 0.19904 0.58792 0.25523 0.0
H365 H 0.19923 0.65325 0.30416 0.0
H366 H 0.19296 0.62713 0.31598 0.0
H367 H 0.17355 0.62715 0.29817 0.0
C368 C 0.14399 0.56472 0.30654 0.0
C369 C 0.12628 0.55738 0.29281 0.0
C370 C 0.1664 0.58047 0.30134 0.0
C371 C 0.1715 0.58932 0.28239 0.0
C372 C 0.15409 0.58124 0.26843 0.0
H373 H 0.28173 0.71771 0.24435 0.0
H374 H 0.24538 0.684 0.25203 0.0
C375 C 0.1317 0.56543 0.27358 0.0
C376 C 0.19466 0.6079 0.27732 0.0
H377 H 0.23342 0.66328 0.28765 0.0
C378 C 0.20665 0.60439 0.26234 0.0
C379 C 0.20436 0.62944 0.28647 0.0
C380 C 0.19183 0.63463 0.30197 0.0
C381 C 0.2281 0.62191 0.25623 0.0
C382 C 0.23787 0.64336 0.26554 0.0
C383 C 0.22593 0.64677 0.2806 0.0
C384 C 0.25997 0.66296 0.2594 0.0
C385 C 0.23979 0.61755 0.23948 0.0
C386 C 0.28027 0.66227 0.26079 0.0
C387 C 0.30117 0.68156 0.25628 0.0
C388 C 0.30208 0.7019 0.25051 0.0
C389 C 0.28165 0.70234 0.24879 0.0
C390 C 0.26084 0.68309 0.25319 0.0
H391 H 0.22782 0.60216 0.23107 0.0
H392 H 0.2476 0.63236 0.22946 0.0
H393 H 0.25355 0.61485 0.24523 0.0
H394 H 0.28004 0.64704 0.26588 0.0
H395 H 0.31663 0.68072 0.25785 0.0
H396 H 0.52913 0.11908 0.43057 0.0
H397 H 0.54596 0.15875 0.42029 0.0
H398 H 0.57338 0.18104 0.47787 0.0
H399 H 0.55583 0.14143 0.48852 0.0
H400 H 0.55148 0.20252 0.46458 0.0
H401 H 0.61165 0.20578 0.40845 0.0
H402 H 0.58296 0.18322 0.40454 0.0
H403 H 0.59824 0.18281 0.4258 0.0
C404 C 0.53872 0.13241 0.44107 0.0
C405 C 0.54111 0.12704 0.46039 0.0
C406 C 0.54861 0.15509 0.43508 0.0
C407 C 0.56126 0.17287 0.44822 0.0
C408 C 0.56386 0.16758 0.46745 0.0
H409 H 0.63958 0.31805 0.42029 0.0
H410 H 0.62826 0.27877 0.42925 0.0
C411 C 0.55394 0.14492 0.47347 0.0
C412 C 0.57046 0.19694 0.44229 0.0
H413 H 0.60448 0.23692 0.40894 0.0
C414 C 0.5632 0.21008 0.45251 0.0
C415 C 0.58597 0.20688 0.42668 0.0
C416 C 0.59536 0.19402 0.41584 0.0
C417 C 0.57053 0.23268 0.44724 0.0
C418 C 0.58519 0.24228 0.43106 0.0
C419 C 0.593 0.2294 0.42117 0.0
C420 C 0.59232 0.26562 0.42418 0.0
C421 C 0.56263 0.24614 0.45915 0.0
C422 C 0.57596 0.27103 0.41779 0.0
C423 C 0.58233 0.29337 0.41274 0.0
C424 C 0.60525 0.31073 0.41381 0.0
C425 C 0.62178 0.30507 0.41936 0.0
C426 C 0.61535 0.28267 0.42449 0.0
H427 H 0.5568 0.23864 0.47384 0.0
H428 H 0.57643 0.2641 0.46082 0.0
H429 H 0.54809 0.24606 0.45166 0.0
H430 H 0.55815 0.25802 0.41705 0.0
H431 H 0.56918 0.29709 0.40835 0.0
H432 H 0.46195 0.59242 0.65224 0.0
H433 H 0.43533 0.60498 0.64231 0.0
H434 H 0.43433 0.58098 0.58404 0.0
H435 H 0.46158 0.56912 0.59364 0.0
H436 H 0.43471 0.62285 0.58538 0.0
H437 H 0.36817 0.5573 0.63327 0.0
H438 H 0.39419 0.57692 0.64536 0.0
H439 H 0.39425 0.55754 0.62756 0.0
C440 C 0.45647 0.59026 0.6372 0.0
C441 C 0.46371 0.57952 0.62378 0.0
C442 C 0.44109 0.59725 0.63161 0.0
C443 C 0.43255 0.59351 0.61254 0.0
C444 C 0.4406 0.58388 0.59886 0.0
H445 H 0.30514 0.57592 0.57222 0.0
H446 H 0.33889 0.57333 0.5799 0.0
C447 C 0.45602 0.57693 0.60442 0.0
C448 C 0.41416 0.59823 0.6071 0.0
H449 H 0.35851 0.58147 0.61632 0.0
C450 C 0.41806 0.61392 0.59218 0.0
C451 C 0.39238 0.58628 0.61583 0.0
C452 C 0.38683 0.56842 0.63128 0.0
C453 C 0.4007 0.61794 0.58573 0.0
C454 C 0.37901 0.60613 0.5946 0.0
C455 C 0.3752 0.59057 0.6096 0.0
C456 C 0.35957 0.60872 0.58812 0.0
C457 C 0.40549 0.63426 0.56912 0.0
C458 C 0.3601 0.62961 0.58991 0.0
C459 C 0.34078 0.63119 0.58542 0.0
C460 C 0.32059 0.61184 0.57926 0.0
C461 C 0.32038 0.59114 0.57698 0.0
C462 C 0.33966 0.58961 0.58138 0.0
H463 H 0.4212 0.63799 0.5611 0.0
H464 H 0.391 0.62731 0.55873 0.0
H465 H 0.40779 0.65054 0.57494 0.0
H466 H 0.37516 0.64448 0.59539 0.0
H467 H 0.34143 0.64734 0.58742 0.0
H468 H 0.89975 0.38676 0.78769 0.0
H469 H 0.86016 0.36431 0.77699 0.0
H470 H 0.85367 0.42439 0.77871 0.0
H471 H 0.8933 0.44698 0.78946 0.0
H472 H 0.82225 0.35821 0.7973 0.0
H473 H 0.82742 0.39763 0.72523 0.0
H474 H 0.85235 0.40175 0.73824 0.0
H475 H 0.83843 0.4173 0.74521 0.0
C476 C 0.88991 0.39521 0.78577 0.0
C477 C 0.89966 0.41865 0.78944 0.0
C478 C 0.86733 0.38238 0.77956 0.0
C479 C 0.85406 0.39273 0.77682 0.0
C480 C 0.86376 0.41616 0.78031 0.0
H481 H 0.7087 0.33278 0.75116 0.0
H482 H 0.74892 0.35963 0.75837 0.0
C483 C 0.88639 0.42903 0.78647 0.0
C484 C 0.82971 0.37863 0.77143 0.0
H485 H 0.79055 0.3705 0.73639 0.0
C486 C 0.81534 0.36088 0.78397 0.0
C487 C 0.8207 0.38227 0.7541 0.0
C488 C 0.83552 0.40064 0.73981 0.0
C489 C 0.79222 0.34662 0.77963 0.0
C490 C 0.7833 0.35 0.76216 0.0
C491 C 0.79751 0.36799 0.74977 0.0
C492 C 0.75941 0.33437 0.75631 0.0
C493 C 0.77747 0.32809 0.79385 0.0
C494 C 0.75223 0.3115 0.75225 0.0
C495 C 0.7294 0.29621 0.74814 0.0
C496 C 0.71328 0.30349 0.74794 0.0
C497 C 0.72069 0.32664 0.75126 0.0
C498 C 0.74362 0.34198 0.75537 0.0
H499 H 0.78537 0.33128 0.80852 0.0
H500 H 0.76043 0.32656 0.79518 0.0
H501 H 0.77503 0.31157 0.78853 0.0
H502 H 0.76425 0.3054 0.7526 0.0
H503 H 0.72433 0.27855 0.74552 0.0
H504 H 0.48308 0.90402 0.95301 0.0
H505 H 0.47037 0.86581 0.94044 0.0
H506 H 0.4004 0.84924 0.94607 0.0
H507 H 0.41304 0.88754 0.95894 0.0
H508 H 0.41115 0.81673 0.96271 0.0
H509 H 0.44185 0.83877 0.88677 0.0
H510 H 0.46293 0.85547 0.90471 0.0
H511 H 0.43777 0.85782 0.90244 0.0
C512 C 0.46498 0.89226 0.95156 0.0
C513 C 0.44905 0.89875 0.957 0.0
C514 C 0.45775 0.87052 0.94419 0.0
C515 C 0.43446 0.85483 0.94209 0.0
C516 C 0.41846 0.86121 0.94743 0.0
H517 H 0.37662 0.70857 0.91598 0.0
H518 H 0.37891 0.7453 0.92211 0.0
C519 C 0.4257 0.88307 0.9547 0.0
C520 C 0.42706 0.83142 0.93532 0.0
H521 H 0.43328 0.80187 0.89793 0.0
C522 C 0.41559 0.81333 0.94843 0.0
C523 C 0.4329 0.82713 0.91668 0.0
C524 C 0.44435 0.84578 0.90175 0.0
C525 C 0.41099 0.79125 0.94381 0.0
C526 C 0.41765 0.78714 0.92543 0.0
C527 C 0.42823 0.80507 0.91202 0.0
C528 C 0.41569 0.76494 0.9205 0.0
C529 C 0.40019 0.77282 0.95903 0.0
C530 C 0.43551 0.76391 0.91691 0.0
C531 C 0.43426 0.74307 0.91326 0.0
C532 C 0.41311 0.72278 0.91309 0.0
C533 C 0.39317 0.72389 0.91613 0.0
C534 C 0.39445 0.74483 0.91975 0.0
H535 H 0.40029 0.77984 0.97365 0.0
H536 H 0.38223 0.7609 0.95495 0.0
H537 H 0.40918 0.76294 0.95996 0.0
H538 H 0.45207 0.77922 0.91737 0.0
H539 H 0.44995 0.74286 0.91092 0.0
H540 H 0.59874 0.47093 0.15151 0.0
H541 H 0.62175 0.4544 0.14095 0.0
H542 H 0.63087 0.48611 0.08477 0.0
H543 H 0.60713 0.50205 0.09496 0.0
H544 H 0.62171 0.44098 0.08268 0.0
H545 H 0.69101 0.49188 0.13525 0.0
H546 H 0.66346 0.47526 0.14621 0.0
H547 H 0.66861 0.49806 0.12988 0.0
C548 C 0.60534 0.47414 0.13681 0.0
C549 C 0.60118 0.48794 0.12412 0.0
C550 C 0.6187 0.46487 0.13087 0.0
C551 C 0.62832 0.46935 0.1122 0.0
C552 C 0.62372 0.48258 0.0993 0.0
H553 H 0.74337 0.45665 0.07631 0.0
H554 H 0.71616 0.46928 0.08329 0.0
C555 C 0.61031 0.49182 0.1052 0.0
C556 C 0.64362 0.46068 0.10627 0.0
H557 H 0.69393 0.46345 0.11764 0.0
C558 C 0.63752 0.44588 0.09028 0.0
C559 C 0.66437 0.46737 0.11607 0.0
C560 C 0.67242 0.48418 0.13269 0.0
C561 C 0.65155 0.43737 0.08396 0.0
C562 C 0.67201 0.44361 0.09409 0.0
C563 C 0.67815 0.45855 0.10998 0.0
C564 C 0.68774 0.43541 0.08827 0.0
C565 C 0.6446 0.4222 0.06626 0.0
C566 C 0.68075 0.41211 0.08857 0.0
C567 C 0.6963 0.40478 0.08447 0.0
C568 C 0.71914 0.42068 0.08021 0.0
C569 C 0.72593 0.44395 0.07958 0.0
C570 C 0.7104 0.45122 0.08358 0.0
H571 H 0.63179 0.42379 0.05735 0.0
H572 H 0.65958 0.42629 0.05698 0.0
H573 H 0.63693 0.40421 0.07099 0.0
H574 H 0.66346 0.39964 0.09253 0.0
H575 H 0.69058 0.38676 0.08518 0.0
H576 H 0.41187 0.88173 0.49994 0.0
H577 H 0.38868 0.84246 0.51124 0.0
H578 H 0.40153 0.86562 0.57078 0.0
H579 H 0.42509 0.90499 0.55954 0.0
H580 H 0.40436 0.82712 0.56555 0.0
H581 H 0.32484 0.81602 0.53263 0.0
H582 H 0.34731 0.82431 0.51521 0.0
H583 H 0.35033 0.84346 0.5346 0.0
C584 C 0.40968 0.87845 0.51544 0.0
C585 C 0.42009 0.89644 0.52886 0.0
C586 C 0.3964 0.85602 0.52187 0.0
C587 C 0.39297 0.85116 0.54184 0.0
C588 C 0.40386 0.86901 0.5553 0.0
H589 H 0.28208 0.72358 0.5851 0.0
H590 H 0.30901 0.7637 0.5788 0.0
C591 C 0.41733 0.89146 0.54887 0.0
C592 C 0.37781 0.82749 0.54863 0.0
H593 H 0.32378 0.78251 0.54434 0.0
C594 C 0.3867 0.81738 0.56103 0.0
C595 C 0.35467 0.81494 0.54298 0.0
C596 C 0.34363 0.8253 0.53079 0.0
C597 C 0.37317 0.79485 0.56758 0.0
C598 C 0.35031 0.78198 0.5612 0.0
C599 C 0.34136 0.79229 0.54911 0.0
C600 C 0.33517 0.75783 0.56685 0.0
C601 C 0.38341 0.78525 0.58152 0.0
C602 C 0.341 0.74114 0.56248 0.0
C603 C 0.32569 0.71815 0.56631 0.0
C604 C 0.30413 0.71142 0.57423 0.0
C605 C 0.29853 0.7282 0.57892 0.0
C606 C 0.31391 0.75115 0.57532 0.0
H607 H 0.39818 0.79897 0.58947 0.0
H608 H 0.37065 0.77373 0.5923 0.0
H609 H 0.38958 0.77536 0.57322 0.0
H610 H 0.35705 0.74578 0.55551 0.0
H611 H 0.33041 0.70559 0.56238 0.0
H612 H 0.60185 0.47919 0.69525 0.0
H613 H 0.6145 0.45274 0.7059 0.0
H614 H 0.54459 0.39874 0.70946 0.0
H615 H 0.53184 0.42495 0.69893 0.0
H616 H 0.60404 0.42478 0.73979 0.0
H617 H 0.57411 0.37354 0.67219 0.0
H618 H 0.57727 0.40152 0.67424 0.0
H619 H 0.55247 0.37709 0.68397 0.0
C620 C 0.58919 0.46174 0.69851 0.0
C621 C 0.56585 0.45407 0.69601 0.0
C622 C 0.59644 0.44666 0.70453 0.0
C623 C 0.58049 0.42371 0.70809 0.0
C624 C 0.55719 0.41626 0.70634 0.0
H625 H 0.57123 0.29911 0.74268 0.0
H626 H 0.56657 0.33167 0.73511 0.0
C627 C 0.54994 0.43125 0.7003 0.0
C628 C 0.58798 0.40725 0.71323 0.0
H629 H 0.58334 0.35697 0.69875 0.0
C630 C 0.5998 0.41008 0.73074 0.0
C631 C 0.58258 0.38823 0.70128 0.0
C632 C 0.57111 0.38498 0.68177 0.0
C633 C 0.60536 0.39373 0.73705 0.0
C634 C 0.59907 0.37426 0.72546 0.0
C635 C 0.58798 0.37186 0.70766 0.0
C636 C 0.60259 0.35541 0.73189 0.0
C637 C 0.6171 0.39685 0.75638 0.0
C638 C 0.62447 0.35807 0.7328 0.0
C639 C 0.62723 0.33939 0.7371 0.0
C640 C 0.60813 0.3178 0.7405 0.0
C641 C 0.58632 0.31546 0.74011 0.0
C642 C 0.5836 0.33405 0.73578 0.0
H643 H 0.61805 0.41128 0.76481 0.0
H644 H 0.60803 0.38107 0.7652 0.0
H645 H 0.63469 0.40022 0.75389 0.0
H646 H 0.63932 0.37439 0.72959 0.0
H647 H 0.64424 0.34172 0.73724 0.0
H648 H 0.13285 0.57343 0.86482 0.0
H649 H 0.17242 0.59133 0.87594 0.0
H650 H 0.1687 0.52599 0.87556 0.0
H651 H 0.12937 0.508 0.86409 0.0
H652 H 0.18819 0.55361 0.91053 0.0
H653 H 0.22729 0.60025 0.84174 0.0
H654 H 0.20482 0.60372 0.85202 0.0
H655 H 0.19855 0.57647 0.84273 0.0
C656 C 0.1405 0.56288 0.86692 0.0
C657 C 0.12791 0.53926 0.86351 0.0
C658 C 0.16309 0.57314 0.87332 0.0
C659 C 0.17349 0.55999 0.87641 0.0
C660 C 0.16093 0.53642 0.87329 0.0
H661 H 0.30047 0.57162 0.90842 0.0
H662 H 0.26079 0.56032 0.90235 0.0
C663 C 0.13841 0.52616 0.86683 0.0
C664 C 0.1975 0.57066 0.88283 0.0
H665 H 0.25218 0.60475 0.86738 0.0
C666 C 0.20221 0.56491 0.90117 0.0
C667 C 0.21569 0.58551 0.87062 0.0
C668 C 0.2115 0.59182 0.85061 0.0
C669 C 0.2247 0.57339 0.90755 0.0
C670 C 0.24292 0.58757 0.89505 0.0
C671 C 0.23819 0.59387 0.87694 0.0
C672 C 0.26691 0.59475 0.89986 0.0
C673 C 0.2287 0.56709 0.92763 0.0
C674 C 0.28368 0.61789 0.90013 0.0
C675 C 0.30653 0.62445 0.90345 0.0
C676 C 0.31298 0.60793 0.90642 0.0
C677 C 0.29609 0.58479 0.90631 0.0
C678 C 0.27333 0.57828 0.90298 0.0
H679 H 0.21403 0.56274 0.9374 0.0
H680 H 0.23077 0.5519 0.92659 0.0
H681 H 0.24433 0.58117 0.93431 0.0
H682 H 0.2791 0.63087 0.8976 0.0
H683 H 0.31914 0.6424 0.90337 0.0
H684 H 0.5694 0.13901 0.00056 0.0
H685 H 0.5973 0.17752 0.0112 0.0
H686 H 0.57756 0.15794 0.07091 0.0
H687 H 0.55035 0.11911 0.06031 0.0
H688 H 0.59571 0.21062 0.03 0.0
H689 H 0.64428 0.18124 0.07462 0.0
H690 H 0.62159 0.16244 0.0586 0.0
H691 H 0.61524 0.16935 0.08222 0.0
C692 C 0.57093 0.14302 0.01594 0.0
C693 C 0.55794 0.12611 0.02965 0.0
C694 C 0.58686 0.165 0.02201 0.0
C695 C 0.58993 0.17053 0.0419 0.0
C696 C 0.57604 0.15392 0.05554 0.0
H697 H 0.67987 0.31367 0.07725 0.0
H698 H 0.64582 0.27646 0.07165 0.0
C699 C 0.56041 0.13181 0.04949 0.0
C700 C 0.6082 0.19341 0.04824 0.0
H701 H 0.65634 0.2204 0.07595 0.0
C702 C 0.60896 0.21278 0.04008 0.0
C703 C 0.62565 0.19623 0.06123 0.0
C704 C 0.62684 0.17623 0.06953 0.0
C705 C 0.62688 0.23482 0.04423 0.0
C706 C 0.64412 0.23762 0.05745 0.0
C707 C 0.64305 0.21827 0.06594 0.0
C708 C 0.66445 0.26019 0.06151 0.0
C709 C 0.62763 0.25474 0.03374 0.0
C710 C 0.68626 0.26324 0.05839 0.0
C711 C 0.70564 0.28422 0.06202 0.0
C712 C 0.70369 0.30276 0.06868 0.0
C713 C 0.68188 0.29973 0.07197 0.0
C714 C 0.66242 0.27853 0.06862 0.0
H715 H 0.61669 0.24924 0.02054 0.0
H716 H 0.6213 0.26333 0.04357 0.0
H717 H 0.64529 0.26733 0.02932 0.0
H718 H 0.68832 0.24939 0.05292 0.0
H719 H 0.72218 0.286 0.05926 0.0
H720 H 0.47715 0.58497 0.22496 0.0
H721 H 0.45815 0.60523 0.23683 0.0
H722 H 0.46933 0.63896 0.18138 0.0
H723 H 0.48715 0.61793 0.16908 0.0
H724 H 0.47487 0.64969 0.24159 0.0
H725 H 0.40317 0.61782 0.1897 0.0
H726 H 0.42072 0.60488 0.19212 0.0
H727 H 0.4299 0.62983 0.17721 0.0
C728 C 0.47515 0.59634 0.21515 0.0
C729 C 0.48366 0.59975 0.19602 0.0
C730 C 0.46442 0.60803 0.22201 0.0
C731 C 0.46194 0.62332 0.2099 0.0
C732 C 0.47051 0.62684 0.19086 0.0
H733 H 0.45303 0.74086 0.23816 0.0
H734 H 0.46375 0.71206 0.23223 0.0
C735 C 0.48106 0.61505 0.18394 0.0
C736 C 0.45156 0.63659 0.21741 0.0
H737 H 0.4125 0.65266 0.20644 0.0
C738 C 0.46101 0.65009 0.23406 0.0
C739 C 0.43314 0.63677 0.20787 0.0
C740 C 0.42099 0.62134 0.19087 0.0
C741 C 0.45334 0.66462 0.24083 0.0
C742 C 0.43616 0.66613 0.23036 0.0
C743 C 0.4259 0.65176 0.21432 0.0
C744 C 0.42954 0.68341 0.23505 0.0
C745 C 0.4638 0.67823 0.2591 0.0
C746 C 0.40662 0.67698 0.23815 0.0
C747 C 0.40035 0.69352 0.24127 0.0
C748 C 0.41692 0.71677 0.24132 0.0
C749 C 0.43986 0.7231 0.2384 0.0
C750 C 0.44606 0.70662 0.23515 0.0
H751 H 0.4702 0.66952 0.26877 0.0
H752 H 0.47853 0.69501 0.25512 0.0
H753 H 0.45138 0.68111 0.26733 0.0
H754 H 0.39356 0.65917 0.23798 0.0
H755 H 0.38253 0.6881 0.24343 0.0
H756 H 0.90302 0.48627 0.364 0.0
H757 H 0.8643 0.47422 0.37474 0.0
H758 H 0.84772 0.40402 0.37277 0.0
H759 H 0.88658 0.41598 0.36194 0.0
H760 H 0.82487 0.44594 0.35365 0.0
H761 H 0.82351 0.40917 0.42634 0.0
H762 H 0.84968 0.42766 0.41362 0.0
H763 H 0.83249 0.39846 0.40633 0.0
C764 C 0.89116 0.46826 0.36587 0.0
C765 C 0.89782 0.45206 0.36201 0.0
C766 C 0.86908 0.46141 0.3721 0.0
C767 C 0.8532 0.43825 0.3747 0.0
C768 C 0.85984 0.42201 0.3712 0.0
H769 H 0.70733 0.3777 0.40127 0.0
H770 H 0.74472 0.38207 0.39367 0.0
C771 C 0.88202 0.42886 0.365 0.0
C772 C 0.82939 0.43132 0.3799 0.0
H773 H 0.78926 0.40686 0.41564 0.0
C774 C 0.81707 0.43732 0.36717 0.0
C775 C 0.81919 0.4199 0.39748 0.0
C776 C 0.83189 0.41352 0.41185 0.0
C777 C 0.79498 0.43261 0.37169 0.0
C778 C 0.78505 0.42186 0.38952 0.0
C779 C 0.79701 0.41515 0.40201 0.0
C780 C 0.76283 0.41881 0.39579 0.0
C781 C 0.78247 0.43934 0.35741 0.0
C782 C 0.76085 0.43797 0.39998 0.0
C783 C 0.73967 0.43556 0.40432 0.0
C784 C 0.72 0.4139 0.40459 0.0
C785 C 0.72215 0.39461 0.40113 0.0
C786 C 0.74346 0.39706 0.3968 0.0
H787 H 0.79004 0.44233 0.34263 0.0
H788 H 0.76422 0.42601 0.3565 0.0
H789 H 0.7834 0.45534 0.36242 0.0
H790 H 0.77569 0.45487 0.39948 0.0
H791 H 0.73867 0.45077 0.40703 0.0
H792 H 0.09395 0.57021 0.40396 0.0
H793 H 0.1228 0.58626 0.42962 0.0
H794 H 0.13188 0.5278 0.42626 0.0
H795 H 0.10343 0.51186 0.40027 0.0
H796 H 0.1214 0.56575 0.46595 0.0
H797 H 0.1974 0.5824 0.4227 0.0
H798 H 0.17119 0.57752 0.41159 0.0
H799 H 0.17356 0.55398 0.42076 0.0
C800 C 0.10232 0.56092 0.40849 0.0
C801 C 0.09647 0.53979 0.40003 0.0
C802 C 0.11869 0.57005 0.42321 0.0
C803 C 0.12967 0.55836 0.42964 0.0
C804 C 0.12387 0.53727 0.42127 0.0
H805 H 0.22749 0.58092 0.52046 0.0
H806 H 0.20146 0.56694 0.49268 0.0
C807 C 0.10744 0.52807 0.40659 0.0
C808 C 0.1465 0.56781 0.44564 0.0
H809 H 0.20228 0.58713 0.4569 0.0
C810 C 0.13911 0.57055 0.46397 0.0
C811 C 0.16955 0.57393 0.44299 0.0
C812 C 0.17853 0.57202 0.42342 0.0
C813 C 0.15409 0.57891 0.47986 0.0
C814 C 0.17718 0.58513 0.47721 0.0
C815 C 0.18457 0.58238 0.45886 0.0
C816 C 0.19384 0.59433 0.49338 0.0
C817 C 0.14491 0.58045 0.49945 0.0
C818 C 0.19861 0.61467 0.50266 0.0
C819 C 0.2134 0.62268 0.51857 0.0
C820 C 0.22387 0.61058 0.52542 0.0
C821 C 0.21967 0.59063 0.51562 0.0
C822 C 0.20481 0.58261 0.49973 0.0
H823 H 0.12607 0.56962 0.50016 0.0
H824 H 0.15249 0.57524 0.51129 0.0
H825 H 0.14931 0.59833 0.50213 0.0
H826 H 0.19071 0.62425 0.4977 0.0
H827 H 0.21639 0.63821 0.52565 0.0
H828 H 0.52564 0.07358 0.59195 0.0
H829 H 0.54236 0.10272 0.61718 0.0
H830 H 0.552 0.15421 0.57538 0.0
H831 H 0.53621 0.12528 0.54979 0.0
H832 H 0.58958 0.16738 0.59803 0.0
H833 H 0.51262 0.13421 0.64425 0.0
H834 H 0.52068 0.11321 0.63936 0.0
H835 H 0.51174 0.12444 0.61967 0.0
C836 C 0.53146 0.09112 0.58806 0.0
C837 C 0.52954 0.09707 0.56883 0.0
C838 C 0.54074 0.10772 0.60257 0.0
C839 C 0.54803 0.13057 0.59824 0.0
C840 C 0.54629 0.13663 0.57906 0.0
H841 H 0.58019 0.23138 0.68942 0.0
H842 H 0.56428 0.20705 0.66083 0.0
C843 C 0.53709 0.12005 0.5645 0.0
C844 C 0.55804 0.14819 0.61364 0.0
H845 H 0.54764 0.16202 0.65871 0.0
C846 C 0.58036 0.16633 0.61124 0.0
C847 C 0.54585 0.14701 0.63071 0.0
C848 C 0.52132 0.1288 0.6336 0.0
C849 C 0.59109 0.18297 0.62573 0.0
C850 C 0.57931 0.18109 0.64324 0.0
C851 C 0.55675 0.16332 0.64538 0.0
C852 C 0.59006 0.19715 0.65968 0.0
C853 C 0.61482 0.20248 0.62203 0.0
C854 C 0.6099 0.19975 0.66852 0.0
C855 C 0.61916 0.21381 0.68479 0.0
C856 C 0.60854 0.22527 0.69272 0.0
C857 C 0.58879 0.22278 0.68371 0.0
C858 C 0.57965 0.20887 0.66737 0.0
H859 H 0.61852 0.20529 0.60621 0.0
H860 H 0.6173 0.21851 0.62861 0.0
H861 H 0.62736 0.19847 0.6286 0.0
H862 H 0.61791 0.19045 0.66314 0.0
H863 H 0.63428 0.2152 0.69145 0.0
H864 H 0.46597 0.58189 0.71247 0.0
H865 H 0.4517 0.5969 0.73786 0.0
H866 H 0.48077 0.57365 0.78185 0.0
H867 H 0.49541 0.55903 0.75655 0.0
H868 H 0.42216 0.57578 0.76682 0.0
H869 H 0.50539 0.63881 0.7981 0.0
H870 H 0.50294 0.6247 0.77523 0.0
H871 H 0.50158 0.61067 0.79785 0.0
C872 C 0.46931 0.58001 0.72757 0.0
C873 C 0.48194 0.56945 0.73255 0.0
C874 C 0.46121 0.58864 0.74204 0.0
C875 C 0.46556 0.58681 0.76174 0.0
C876 C 0.4778 0.57588 0.76674 0.0
H877 H 0.39227 0.59186 0.8621 0.0
H878 H 0.40613 0.58133 0.83344 0.0
C879 C 0.48608 0.56745 0.75228 0.0
C880 C 0.45669 0.59568 0.77711 0.0
H881 H 0.47251 0.62969 0.81736 0.0
C882 C 0.4332 0.58774 0.77777 0.0
C883 C 0.47113 0.61163 0.79117 0.0
C884 C 0.49668 0.62214 0.79046 0.0
C885 C 0.42366 0.5947 0.79248 0.0
C886 C 0.43794 0.60955 0.80724 0.0
C887 C 0.46152 0.61809 0.80619 0.0
C888 C 0.42879 0.61601 0.82416 0.0
C889 C 0.39842 0.58622 0.79194 0.0
C890 C 0.43731 0.63904 0.8288 0.0
C891 C 0.42969 0.64515 0.8454 0.0
C892 C 0.41336 0.62831 0.85768 0.0
C893 C 0.40469 0.60527 0.85287 0.0
C894 C 0.41249 0.5992 0.83639 0.0
H895 H 0.39157 0.5816 0.77692 0.0
H896 H 0.38943 0.57069 0.80105 0.0
H897 H 0.39449 0.59919 0.79764 0.0
H898 H 0.45 0.65231 0.81963 0.0
H899 H 0.43672 0.66305 0.84868 0.0
H900 H 0.89845 0.4303 0.88041 0.0
H901 H 0.86979 0.41926 0.90607 0.0
H902 H 0.92313 0.45012 0.94907 0.0
H903 H 0.9518 0.46068 0.92352 0.0
H904 H 0.8903 0.40952 0.96087 0.0
H905 H 0.85132 0.45942 0.93428 0.0
H906 H 0.85078 0.43978 0.91652 0.0
H907 H 0.87764 0.46305 0.92458 0.0
C908 C 0.90401 0.43483 0.89534 0.0
C909 C 0.92732 0.44641 0.89999 0.0
C910 C 0.88765 0.42862 0.90997 0.0
C911 C 0.89431 0.43427 0.92946 0.0
C912 C 0.91759 0.44566 0.93413 0.0
H913 H 0.81167 0.434 0.02561 0.0
H914 H 0.83779 0.44371 0.99812 0.0
C915 C 0.93395 0.45162 0.91954 0.0
C916 C 0.8771 0.42786 0.9451 0.0
H917 H 0.83206 0.43337 0.96004 0.0
C918 C 0.8776 0.41478 0.96071 0.0
C919 C 0.86073 0.435 0.94501 0.0
C920 C 0.86018 0.45028 0.9293 0.0
C921 C 0.86215 0.40855 0.9762 0.0
C922 C 0.84525 0.41499 0.97576 0.0
C923 C 0.84483 0.4282 0.96022 0.0
C924 C 0.82837 0.40884 0.99165 0.0
C925 C 0.86454 0.39569 0.99311 0.0
C926 C 0.81393 0.38598 0.9968 0.0
C927 C 0.79919 0.3804 0.01264 0.0
C928 C 0.79829 0.39756 0.02341 0.0
C929 C 0.81197 0.42038 0.01764 0.0
C930 C 0.82691 0.42596 0.00193 0.0
H931 H 0.88189 0.39785 0.99381 0.0
H932 H 0.86099 0.40142 0.00714 0.0
H933 H 0.85221 0.37726 0.99135 0.0
H934 H 0.81428 0.37245 0.98872 0.0
H935 H 0.78866 0.36264 0.01656 0.0
H936 H 0.46772 0.94806 0.0923 0.0
H937 H 0.45434 0.91864 0.11735 0.0
H938 H 0.41668 0.86723 0.07412 0.0
H939 H 0.43084 0.89644 0.04879 0.0
H940 H 0.41107 0.88891 0.12905 0.0
H941 H 0.45259 0.84185 0.10099 0.0
H942 H 0.45973 0.86971 0.09219 0.0
H943 H 0.43441 0.84487 0.0837 0.0
C944 C 0.45688 0.93047 0.08804 0.0
C945 C 0.45052 0.92462 0.06848 0.0
C946 C 0.44909 0.91369 0.10241 0.0
C947 C 0.43479 0.89071 0.09757 0.0
C948 C 0.42807 0.8848 0.07814 0.0
H949 H 0.35939 0.78722 0.18631 0.0
H950 H 0.36928 0.81207 0.15785 0.0
C951 C 0.43595 0.90158 0.06371 0.0
C952 C 0.4267 0.87308 0.11299 0.0
H953 H 0.42756 0.82543 0.12773 0.0
C954 C 0.41463 0.875 0.12876 0.0
C955 C 0.43158 0.8551 0.11265 0.0
C956 C 0.44547 0.8528 0.09658 0.0
C957 C 0.4074 0.8595 0.14428 0.0
C958 C 0.41192 0.84126 0.14378 0.0
C959 C 0.42391 0.83928 0.12796 0.0
C960 C 0.40553 0.82486 0.16007 0.0
C961 C 0.39568 0.86326 0.16136 0.0
C962 C 0.4225 0.82308 0.17025 0.0
C963 C 0.4169 0.8087 0.18635 0.0
C964 C 0.39417 0.79582 0.19262 0.0
C965 C 0.37708 0.79705 0.18198 0.0
C966 C 0.38271 0.81135 0.16578 0.0
H967 H 0.39858 0.8809 0.16168 0.0
H968 H 0.37707 0.85139 0.16027 0.0
H969 H 0.40173 0.85991 0.17532 0.0
H970 H 0.44021 0.83326 0.16602 0.0
H971 H 0.43049 0.80814 0.19415 0.0
H972 H 0.60973 0.52203 0.23789 0.0
H973 H 0.62179 0.50467 0.26296 0.0
H974 H 0.55928 0.44091 0.25551 0.0
H975 H 0.54743 0.45789 0.22998 0.0
H976 H 0.59973 0.48565 0.29763 0.0
H977 H 0.60735 0.42153 0.25312 0.0
H978 H 0.60566 0.44498 0.24246 0.0
H979 H 0.58031 0.42018 0.25093 0.0
C980 C 0.59872 0.5042 0.24134 0.0
C981 C 0.57764 0.49133 0.23189 0.0
C982 C 0.60558 0.49435 0.25574 0.0
C983 C 0.59158 0.47142 0.26089 0.0
C984 C 0.57055 0.45851 0.2515 0.0
H985 H 0.59451 0.38422 0.35165 0.0
H986 H 0.58523 0.40033 0.32359 0.0
C987 C 0.56367 0.46834 0.23709 0.0
C988 C 0.59847 0.46136 0.27679 0.0
H989 H 0.60915 0.41838 0.2875 0.0
C990 C 0.60196 0.47105 0.2954 0.0
C991 C 0.60127 0.44225 0.27382 0.0
C992 C 0.59867 0.43172 0.25397 0.0
C993 C 0.60776 0.4619 0.31122 0.0
C994 C 0.61047 0.44275 0.30828 0.0
C995 C 0.60703 0.43305 0.28968 0.0
C996 C 0.61678 0.43253 0.32443 0.0
C997 C 0.61041 0.47247 0.33107 0.0
C998 C 0.63783 0.44511 0.33385 0.0
C999 C 0.6432 0.436 0.34986 0.0
C1000 C 0.62762 0.41406 0.35673 0.0
C1001 C 0.60685 0.40119 0.3468 0.0
C1002 C 0.60152 0.41035 0.33076 0.0
H1003 H 0.60259 0.48346 0.33174 0.0
H1004 H 0.60255 0.45914 0.34247 0.0
H1005 H 0.6288 0.48318 0.33447 0.0
H1006 H 0.65 0.46212 0.32895 0.0
H1007 H 0.65941 0.44634 0.35705 0.0
H1008 H 0.41201 0.92203 0.41705 0.0
H1009 H 0.39968 0.89327 0.39134 0.0
H1010 H 0.46509 0.89714 0.393 0.0
H1011 H 0.47763 0.926 0.41856 0.0
H1012 H 0.41951 0.89755 0.35462 0.0
H1013 H 0.42007 0.82859 0.39767 0.0
H1014 H 0.42069 0.85299 0.40884 0.0
H1015 H 0.44623 0.85534 0.39874 0.0
C1016 C 0.4238 0.91683 0.41188 0.0
C1017 C 0.44578 0.92625 0.4199 0.0
C1018 C 0.41669 0.90031 0.39728 0.0
C1019 C 0.43135 0.89282 0.39052 0.0
C1020 C 0.45333 0.90229 0.39836 0.0
H1021 H 0.42821 0.80379 0.2992 0.0
H1022 H 0.43759 0.82963 0.32689 0.0
C1023 C 0.46046 0.91879 0.41295 0.0
C1024 C 0.42398 0.87574 0.37471 0.0
H1025 H 0.4158 0.82314 0.3634 0.0
C1026 C 0.41851 0.8812 0.35656 0.0
C1027 C 0.42277 0.85447 0.37731 0.0
C1028 C 0.42754 0.84734 0.39673 0.0
C1029 C 0.4124 0.86617 0.34075 0.0
C1030 C 0.41135 0.84496 0.34331 0.0
C1031 C 0.41665 0.83942 0.36151 0.0
C1032 C 0.40513 0.82846 0.32715 0.0
C1033 C 0.40774 0.87338 0.32132 0.0
C1034 C 0.38357 0.81886 0.31844 0.0
C1035 C 0.37814 0.80412 0.3026 0.0
C1036 C 0.39416 0.7986 0.29525 0.0
C1037 C 0.4155 0.80772 0.30443 0.0
C1038 C 0.42091 0.82248 0.32026 0.0
H1039 H 0.41456 0.89205 0.32062 0.0
H1040 H 0.41534 0.86843 0.3093 0.0
H1041 H 0.38908 0.86477 0.31892 0.0
H1042 H 0.371 0.82291 0.3238 0.0
H1043 H 0.36149 0.79728 0.29598 0.0
H1044 H 0.53379 0.44804 0.5827 0.0
H1045 H 0.54722 0.43297 0.55677 0.0
H1046 H 0.61321 0.49374 0.5588 0.0
H1047 H 0.59987 0.50911 0.58456 0.0
H1048 H 0.56456 0.4536 0.5201 0.0
H1049 H 0.62791 0.4416 0.56196 0.0
H1050 H 0.60599 0.44515 0.57357 0.0
H1051 H 0.63091 0.4694 0.56387 0.0
C1052 C 0.55115 0.45825 0.57759 0.0
C1053 C 0.56576 0.4798 0.58571 0.0
C1054 C 0.55881 0.44955 0.56287 0.0
C1055 C 0.58127 0.46212 0.55607 0.0
C1056 C 0.59595 0.48357 0.56414 0.0
H1057 H 0.65658 0.44242 0.46337 0.0
H1058 H 0.64462 0.45618 0.49137 0.0
C1059 C 0.58829 0.49232 0.57886 0.0
C1060 C 0.58897 0.45321 0.53989 0.0
H1061 H 0.62715 0.43636 0.52779 0.0
C1062 C 0.57816 0.44971 0.52178 0.0
C1063 C 0.6068 0.4483 0.54215 0.0
C1064 C 0.6185 0.4511 0.56146 0.0
C1065 C 0.58493 0.44173 0.50575 0.0
C1066 C 0.60266 0.43666 0.50802 0.0
C1067 C 0.61353 0.44022 0.52612 0.0
C1068 C 0.61016 0.4277 0.49172 0.0
C1069 C 0.57337 0.43931 0.48641 0.0
C1070 C 0.5949 0.40685 0.48298 0.0
C1071 C 0.60162 0.39898 0.46696 0.0
C1072 C 0.62383 0.41172 0.45947 0.0
C1073 C 0.63933 0.43222 0.46871 0.0
C1074 C 0.63255 0.44011 0.48472 0.0
H1075 H 0.5646 0.44943 0.48587 0.0
H1076 H 0.58582 0.44479 0.47427 0.0
H1077 H 0.56039 0.42117 0.48408 0.0
H1078 H 0.57769 0.39676 0.48845 0.0
H1079 H 0.5893 0.38302 0.46032 0.0
H1080 H 0.10323 0.49771 0.75003 0.0
H1081 H 0.13273 0.51398 0.7249 0.0
H1082 H 0.1338 0.57793 0.72944 0.0
H1083 H 0.10487 0.56205 0.75493 0.0
H1084 H 0.12931 0.53154 0.68923 0.0
H1085 H 0.20135 0.59738 0.73231 0.0
H1086 H 0.17636 0.57426 0.74347 0.0
H1087 H 0.17569 0.59879 0.7344 0.0
C1088 C 0.11003 0.51535 0.74591 0.0
C1089 C 0.10172 0.5286 0.75448 0.0
C1090 C 0.12679 0.52458 0.73149 0.0
C1091 C 0.13566 0.54724 0.72552 0.0
C1092 C 0.1275 0.56054 0.73411 0.0
H1093 H 0.22192 0.63421 0.63406 0.0
H1094 H 0.19757 0.61723 0.66252 0.0
C1095 C 0.11075 0.55134 0.74849 0.0
C1096 C 0.15248 0.55665 0.70951 0.0
H1097 H 0.20547 0.6001 0.69776 0.0
C1098 C 0.14607 0.54637 0.69112 0.0
C1099 C 0.17429 0.57603 0.71204 0.0
C1100 C 0.18246 0.58716 0.73166 0.0
C1101 C 0.1606 0.55541 0.67502 0.0
C1102 C 0.18226 0.57501 0.67749 0.0
C1103 C 0.18883 0.58509 0.69594 0.0
C1104 C 0.19806 0.58562 0.66094 0.0
C1105 C 0.15234 0.54435 0.65538 0.0
C1106 C 0.2068 0.57365 0.65092 0.0
C1107 C 0.22068 0.58327 0.63463 0.0
C1108 C 0.22617 0.6051 0.62812 0.0
C1109 C 0.21797 0.61734 0.63861 0.0
C1110 C 0.20407 0.60769 0.6549 0.0
H1111 H 0.1336 0.53278 0.65512 0.0
H1112 H 0.15699 0.5574 0.64384 0.0
H1113 H 0.16053 0.53414 0.65185 0.0
H1114 H 0.20269 0.55676 0.65559 0.0
H1115 H 0.22683 0.57343 0.627 0.0
H1116 H 0.51876 0.07458 0.8977 0.0
H1117 H 0.53488 0.10341 0.87222 0.0
H1118 H 0.58103 0.15239 0.9138 0.0
H1119 H 0.56419 0.12397 0.93966 0.0
H1120 H 0.5622 0.17061 0.89035 0.0
H1121 H 0.59553 0.12566 0.84582 0.0
H1122 H 0.56556 0.10857 0.85035 0.0
H1123 H 0.58532 0.1171 0.87033 0.0
C1124 C 0.53217 0.09154 0.90152 0.0
C1125 C 0.54022 0.09689 0.92076 0.0
C1126 C 0.54159 0.10792 0.88685 0.0
C1127 C 0.55948 0.12992 0.89102 0.0
C1128 C 0.56737 0.13545 0.91023 0.0
H1129 H 0.64233 0.22428 0.80009 0.0
H1130 H 0.62902 0.1997 0.82873 0.0
C1131 C 0.55785 0.11911 0.92495 0.0
C1132 C 0.56971 0.14722 0.87539 0.0
H1133 H 0.59486 0.15699 0.83074 0.0
C1134 C 0.5695 0.16773 0.87736 0.0
C1135 C 0.57957 0.1436 0.85862 0.0
C1136 C 0.58175 0.12265 0.85621 0.0
C1137 C 0.57837 0.18447 0.86279 0.0
C1138 C 0.58719 0.18033 0.84558 0.0
C1139 C 0.58788 0.16006 0.84384 0.0
C1140 C 0.59569 0.19665 0.82911 0.0
C1141 C 0.57849 0.20652 0.86611 0.0
C1142 C 0.58142 0.20321 0.81983 0.0
C1143 C 0.58906 0.21747 0.80355 0.0
C1144 C 0.611 0.22512 0.79604 0.0
C1145 C 0.62531 0.21867 0.80547 0.0
C1146 C 0.61774 0.2046 0.82184 0.0
H1147 H 0.57793 0.20987 0.88187 0.0
H1148 H 0.59385 0.22116 0.85966 0.0
H1149 H 0.5632 0.20545 0.85919 0.0
H1150 H 0.56414 0.19684 0.82485 0.0
H1151 H 0.57753 0.22196 0.79653 0.0
H1152 H 0.47463 0.59058 0.10503 0.0
H1153 H 0.45747 0.60143 0.07888 0.0
H1154 H 0.50093 0.59433 0.03709 0.0
H1155 H 0.51747 0.58249 0.06298 0.0
H1156 H 0.47602 0.63672 0.05274 0.0
H1157 H 0.43792 0.55377 0.01434 0.0
H1158 H 0.44946 0.5577 0.0386 0.0
H1159 H 0.4681 0.56663 0.01785 0.0
C1160 C 0.48039 0.5911 0.09025 0.0
C1161 C 0.49727 0.58542 0.08609 0.0
C1162 C 0.47069 0.59748 0.07535 0.0
C1163 C 0.47763 0.59827 0.05601 0.0
C1164 C 0.49498 0.59336 0.05187 0.0
H1165 H 0.45218 0.66209 0.95743 0.0
H1166 H 0.46815 0.65314 0.98565 0.0
C1167 C 0.50463 0.58688 0.06674 0.0
C1168 C 0.4666 0.6041 0.04015 0.0
H1169 H 0.43706 0.58405 0.9977 0.0
C1170 C 0.46741 0.62519 0.04073 0.0
C1171 C 0.45503 0.58885 0.02469 0.0
C1172 C 0.45233 0.56538 0.02388 0.0
C1173 C 0.45739 0.63165 0.02603 0.0
C1174 C 0.44666 0.61678 0.01015 0.0
C1175 C 0.44546 0.59551 0.00979 0.0
C1176 C 0.43667 0.62291 0.99364 0.0
C1177 C 0.45809 0.65417 0.02782 0.0
C1178 C 0.41375 0.60868 0.98851 0.0
C1179 C 0.40462 0.61359 0.97222 0.0
C1180 C 0.41825 0.63284 0.96071 0.0
C1181 C 0.44114 0.64722 0.96604 0.0
C1182 C 0.45029 0.64221 0.98227 0.0
H1183 H 0.46063 0.66015 0.04314 0.0
H1184 H 0.47255 0.66717 0.01914 0.0
H1185 H 0.44215 0.65299 0.02225 0.0
H1186 H 0.40297 0.59364 0.99704 0.0
H1187 H 0.38694 0.60215 0.96855 0.0
H1188 H 0.92101 0.41679 0.25006 0.0
H1189 H 0.89267 0.40332 0.22391 0.0
H1190 H 0.89594 0.46846 0.22284 0.0
H1191 H 0.92409 0.48201 0.24904 0.0
H1192 H 0.84945 0.40077 0.22218 0.0
H1193 H 0.90913 0.45901 0.16619 0.0
H1194 H 0.91875 0.45356 0.189 0.0
H1195 H 0.90804 0.47303 0.18799 0.0
C1196 C 0.91554 0.42818 0.24438 0.0
C1197 C 0.92494 0.45055 0.25152 0.0
C1198 C 0.89942 0.42048 0.2294 0.0
C1199 C 0.89251 0.43502 0.22125 0.0
C1200 C 0.90143 0.45714 0.22865 0.0
H1201 H 0.80362 0.42883 0.12907 0.0
H1202 H 0.82869 0.43845 0.15723 0.0
C1203 C 0.91754 0.46486 0.2436 0.0
C1204 C 0.87605 0.42717 0.20494 0.0
H1205 H 0.86999 0.43864 0.15769 0.0
C1206 C 0.85393 0.40892 0.20803 0.0
C1207 C 0.88202 0.43783 0.18651 0.0
C1208 C 0.90583 0.45681 0.1821 0.0
C1209 C 0.83737 0.40148 0.19328 0.0
C1210 C 0.84328 0.41237 0.17494 0.0
C1211 C 0.86549 0.43041 0.17181 0.0
C1212 C 0.82669 0.40564 0.15878 0.0
C1213 C 0.81357 0.38246 0.19759 0.0
C1214 C 0.81714 0.38392 0.15036 0.0
C1215 C 0.80272 0.37831 0.13422 0.0
C1216 C 0.79775 0.3944 0.12615 0.0
C1217 C 0.80708 0.41601 0.13487 0.0
C1218 C 0.82144 0.42157 0.15097 0.0
H1219 H 0.81043 0.37962 0.21348 0.0
H1220 H 0.80069 0.38614 0.19123 0.0
H1221 H 0.81112 0.36645 0.191 0.0
H1222 H 0.8213 0.37151 0.15595 0.0
H1223 H 0.79591 0.36156 0.12782 0.0
loop_
_geom_bond_atom_site_label_1
_geom_bond_atom_site_label_2
_geom_bond_distance
_geom_bond_site_symmetry_2
_ccdc_geom_bond_type
C0 C1 1.384 . S
C0 C2 1.384 . S
C0 H28 0.931 . S
C1 C0 1.384 . S
C1 C4 1.382 . S
C2 C0 1.384 . S
C2 C3 1.381 . S
C2 H29 0.930 . S
C3 C2 1.381 . S
C3 C5 1.381 . S
C3 C6 1.487 . S
C4 C1 1.382 . S
C4 C5 1.387 . S
C4 H30 0.930 . S
C5 C3 1.381 . S
C5 C4 1.387 . S
C5 H31 0.931 . S
C6 C3 1.487 . S
C6 C13 1.399 . S
C6 N44 1.343 1_655 S
C7 C8 1.384 . S
C7 C9 1.384 . S
C7 H32 0.931 . S
C8 C7 1.384 . S
C8 C11 1.382 . S
C9 C7 1.384 . S
C9 C10 1.381 . S
C9 H33 0.930 . S
C10 C9 1.381 . S
C10 C12 1.381 . S
C10 C13 1.487 . S
C11 C8 1.382 . S
C11 C12 1.387 . S
C11 H34 0.930 . S
C12 C10 1.381 . S
C12 C11 1.387 . S
C12 H35 0.931 . S
C13 C6 1.399 . S
C13 C10 1.487 . S
C13 N45 1.343 1_655 S
C14 C15 1.384 . S
C14 C16 1.384 . S
C14 H36 0.931 . S
C15 C14 1.384 . S
C15 C18 1.382 . S
C16 C14 1.384 . S
C16 C17 1.381 . S
C16 H37 0.930 . S
C17 C16 1.381 . S
C17 C19 1.381 . S
C17 C20 1.487 . S
C18 C15 1.382 . S
C18 C19 1.387 . S
C18 H38 0.930 . S
C19 C17 1.381 . S
C19 C18 1.387 . S
C19 H39 0.931 . S
C20 C17 1.487 . S
C20 C27 1.399 . S
C20 N45 1.343 . S
C21 C22 1.384 . S
C21 C23 1.384 . S
C21 H40 0.931 . S
C22 C21 1.384 . S
C22 C25 1.382 . S
C23 C21 1.384 . S
C23 C24 1.381 . S
C23 H41 0.930 . S
C24 C23 1.381 . S
C24 C26 1.381 . S
C24 C27 1.487 . S
C25 C22 1.382 . S
C25 C26 1.387 . S
C25 H42 0.930 . S
C26 C24 1.381 . S
C26 C25 1.387 . S
C26 H43 0.931 . S
C27 C20 1.399 . S
C27 C24 1.487 . S
C27 N44 1.343 . S
H28 C0 0.931 . S
H29 C2 0.930 . S
H30 C4 0.930 . S
H31 C5 0.931 . S
H32 C7 0.931 . S
H33 C9 0.930 . S
H34 C11 0.930 . S
H35 C12 0.931 . S
H36 C14 0.931 . S
H37 C16 0.930 . S
H38 C18 0.930 . S
H39 C19 0.931 . S
H40 C21 0.931 . S
H41 C23 0.930 . S
H42 C25 0.930 . S
H43 C26 0.931 . S
N44 C6 1.343 1_455 S
N44 C27 1.343 . S
N45 C13 1.343 1_455 S
N45 C20 1.343 . S
C46 C47 1.384 . S
C46 C48 1.384 . S
C46 H74 0.931 . S
C47 C46 1.384 . S
C47 C50 1.382 . S
C48 C46 1.384 . S
C48 C49 1.381 . S
C48 H75 0.930 . S
C49 C48 1.381 . S
C49 C51 1.381 . S
C49 C52 1.487 . S
C50 C47 1.382 . S
C50 C51 1.387 . S
C50 H76 0.930 . S
C51 C49 1.381 . S
C51 C50 1.387 . S
C51 H77 0.931 . S
C52 C49 1.487 . S
C52 C59 1.399 . S
C52 N90 1.343 1_565 S
C53 C54 1.384 . S
C53 C55 1.384 . S
C53 H78 0.931 . S
C54 C53 1.384 . S
C54 C57 1.382 . S
C55 C53 1.384 . S
C55 C56 1.381 . S
C55 H79 0.930 . S
C56 C55 1.381 . S
C56 C58 1.381 . S
C56 C59 1.487 . S
C57 C54 1.382 . S
C57 C58 1.387 . S
C57 H80 0.930 . S
C58 C56 1.381 . S
C58 C57 1.387 . S
C58 H81 0.931 . S
C59 C52 1.399 . S
C59 C56 1.487 . S
C59 N91 1.343 1_565 S
C60 C61 1.384 . S
C60 C62 1.384 . S
C60 H82 0.931 . S
C61 C60 1.384 . S
C61 C64 1.382 . S
C62 C60 1.384 . S
C62 C63 1.381 . S
C62 H83 0.930 . S
C63 C62 1.381 . S
C63 C65 1.381 . S
C63 C66 1.487 . S
C64 C61 1.382 . S
C64 C65 1.387 . S
C64 H84 0.930 . S
C65 C63 1.381 . S
C65 C64 1.387 . S
C65 H85 0.931 . S
C66 C63 1.487 . S
C66 C73 1.399 . S
C66 N91 1.343 . S
C67 C68 1.384 . S
C67 C69 1.384 . S
C67 H86 0.931 . S
C68 C67 1.384 . S
C68 C71 1.382 . S
C69 C67 1.384 . S
C69 C70 1.381 . S
C69 H87 0.930 . S
C70 C69 1.381 . S
C70 C72 1.381 . S
C70 C73 1.487 . S
C71 C68 1.382 . S
C71 C72 1.387 . S
C71 H88 0.930 . S
C72 C70 1.381 . S
C72 C71 1.387 . S
C72 H89 0.931 . S
C73 C66 1.399 . S
C73 C70 1.487 . S
C73 N90 1.343 . S
H74 C46 0.931 . S
H75 C48 0.930 . S
H76 C50 0.930 . S
H77 C51 0.931 . S
H78 C53 0.931 . S
H79 C55 0.930 . S
H80 C57 0.930 . S
H81 C58 0.931 . S
H82 C60 0.931 . S
H83 C62 0.930 . S
H84 C64 0.930 . S
H85 C65 0.931 . S
H86 C67 0.931 . S
H87 C69 0.930 . S
H88 C71 0.930 . S
H89 C72 0.931 . S
N90 C52 1.343 1_545 S
N90 C73 1.343 . S
N91 C59 1.343 1_545 S
N91 C66 1.343 . S
C92 C93 1.384 . S
C92 C94 1.384 . S
C92 H120 0.931 . S
C93 C92 1.384 . S
C93 C96 1.382 . S
C94 C92 1.384 . S
C94 C95 1.381 . S
C94 H121 0.930 . S
C95 C94 1.381 . S
C95 C97 1.381 . S
C95 C98 1.487 . S
C96 C93 1.382 . S
C96 C97 1.387 . S
C96 H122 0.930 . S
C97 C95 1.381 . S
C97 C96 1.387 . S
C97 H123 0.931 . S
C98 C95 1.487 . S
C98 C105 1.399 . S
C98 N136 1.343 . S
C99 C100 1.384 . S
C99 C101 1.384 . S
C99 H124 0.931 . S
C100 C99 1.384 . S
C100 C103 1.382 . S
C101 C99 1.384 . S
C101 C102 1.381 . S
C101 H125 0.930 . S
C102 C101 1.381 . S
C102 C104 1.381 . S
C102 C105 1.487 . S
C103 C100 1.382 . S
C103 C104 1.387 . S
C103 H126 0.930 . S
C104 C102 1.381 . S
C104 C103 1.387 . S
C104 H127 0.931 . S
C105 C98 1.399 . S
C105 C102 1.487 . S
C105 N137 1.343 . S
C106 C107 1.384 . S
C106 C108 1.384 . S
C106 H128 0.931 . S
C107 C106 1.384 . S
C107 C110 1.382 . S
C108 C106 1.384 . S
C108 C109 1.381 . S
C108 H129 0.930 . S
C109 C108 1.381 . S
C109 C111 1.381 . S
C109 C112 1.487 . S
C110 C107 1.382 . S
C110 C111 1.387 . S
C110 H130 0.930 . S
C111 C109 1.381 . S
C111 C110 1.387 . S
C111 H131 0.931 . S
C112 C109 1.487 . S
C112 C119 1.399 . S
C112 N137 1.343 . S
C113 C114 1.384 . S
C113 C115 1.384 . S
C113 H132 0.931 . S
C114 C113 1.384 . S
C114 C117 1.382 . S
C115 C113 1.384 . S
C115 C116 1.381 . S
C115 H133 0.930 . S
C116 C115 1.381 . S
C116 C118 1.381 . S
C116 C119 1.487 . S
C117 C114 1.382 . S
C117 C118 1.387 . S
C117 H134 0.930 . S
C118 C116 1.381 . S
C118 C117 1.387 . S
C118 H135 0.931 . S
C119 C112 1.399 . S
C119 C116 1.487 . S
C119 N136 1.343 . S
H120 C92 0.931 . S
H121 C94 0.930 . S
H122 C96 0.930 . S
H123 C97 0.931 . S
H124 C99 0.931 . S
H125 C101 0.930 . S
H126 C103 0.930 . S
H127 C104 0.931 . S
H128 C106 0.931 . S
H129 C108 0.930 . S
H130 C110 0.930 . S
H131 C111 0.931 . S
H132 C113 0.931 . S
H133 C115 0.930 . S
H134 C117 0.930 . S
H135 C118 0.931 . S
N136 C98 1.343 . S
N136 C119 1.343 . S
N137 C105 1.343 . S
N137 C112 1.343 . S
C138 C139 1.384 . S
C138 C140 1.384 . S
C138 H166 0.931 . S
C139 C138 1.384 . S
C139 C142 1.382 . S
C140 C138 1.384 . S
C140 C141 1.381 . S
C140 H167 0.930 . S
C141 C140 1.381 . S
C141 C143 1.381 . S
C141 C144 1.487 . S
C142 C139 1.382 . S
C142 C143 1.387 . S
C142 H168 0.930 . S
C143 C141 1.381 . S
C143 C142 1.387 . S
C143 H169 0.931 . S
C144 C141 1.487 . S
C144 C151 1.399 . S
C144 N182 1.343 1_655 S
C145 C146 1.384 . S
C145 C147 1.384 . S
C145 H170 0.931 . S
C146 C145 1.384 . S
C146 C149 1.382 . S
C147 C145 1.384 . S
C147 C148 1.381 . S
C147 H171 0.930 . S
C148 C147 1.381 . S
C148 C150 1.381 . S
C148 C151 1.487 . S
C149 C146 1.382 . S
C149 C150 1.387 . S
C149 H172 0.930 . S
C150 C148 1.381 . S
C150 C149 1.387 . S
C150 H173 0.931 . S
C151 C144 1.399 . S
C151 C148 1.487 . S
C151 N183 1.343 1_655 S
C152 C153 1.384 . S
C152 C154 1.384 . S
C152 H174 0.931 . S
C153 C152 1.384 . S
C153 C156 1.382 . S
C154 C152 1.384 . S
C154 C155 1.381 . S
C154 H175 0.930 . S
C155 C154 1.381 . S
C155 C157 1.381 . S
C155 C158 1.487 . S
C156 C153 1.382 . S
C156 C157 1.387 . S
C156 H176 0.930 . S
C157 C155 1.381 . S
C157 C156 1.387 . S
C157 H177 0.931 . S
C158 C155 1.487 . S
C158 C165 1.399 . S
C158 N183 1.343 . S
C159 C160 1.384 . S
C159 C161 1.384 . S
C159 H178 0.931 . S
C160 C159 1.384 . S
C160 C163 1.382 . S
C161 C159 1.384 . S
C161 C162 1.381 . S
C161 H179 0.930 . S
C162 C161 1.381 . S
C162 C164 1.381 . S
C162 C165 1.487 . S
C163 C160 1.382 . S
C163 C164 1.387 . S
C163 H180 0.930 . S
C164 C162 1.381 . S
C164 C163 1.387 . S
C164 H181 0.931 . S
C165 C158 1.399 . S
C165 C162 1.487 . S
C165 N182 1.343 . S
H166 C138 0.931 . S
H167 C140 0.930 . S
H168 C142 0.930 . S
H169 C143 0.931 . S
H170 C145 0.931 . S
H171 C147 0.930 . S
H172 C149 0.930 . S
H173 C150 0.931 . S
H174 C152 0.931 . S
H175 C154 0.930 . S
H176 C156 0.930 . S
H177 C157 0.931 . S
H178 C159 0.931 . S
H179 C161 0.930 . S
H180 C163 0.930 . S
H181 C164 0.931 . S
N182 C144 1.343 1_455 S
N182 C165 1.343 . S
N183 C151 1.343 1_455 S
N183 C158 1.343 . S
C184 C185 1.384 . S
C184 C186 1.384 . S
C184 H212 0.931 . S
C185 C184 1.384 . S
C185 C188 1.382 . S
C186 C184 1.384 . S
C186 C187 1.381 . S
C186 H213 0.919 1_556 S
C187 C186 1.381 . S
C187 C189 1.381 . S
C187 C190 1.487 . S
C188 C185 1.382 . S
C188 C189 1.387 . S
C188 H214 0.930 . S
C189 C187 1.381 . S
C189 C188 1.387 . S
C189 H215 0.931 . S
C190 C187 1.487 . S
C190 C197 1.399 1_556 S
C190 N228 1.343 1_565 S
C191 C192 1.384 . S
C191 C193 1.384 . S
C191 H216 0.931 . S
C192 C191 1.384 . S
C192 C195 1.382 . S
C193 C191 1.384 . S
C193 C194 1.381 . S
C193 H217 0.930 . S
C194 C193 1.381 . S
C194 C196 1.381 . S
C194 C197 1.487 . S
C195 C192 1.382 . S
C195 C196 1.387 . S
C195 H218 0.930 . S
C196 C194 1.381 . S
C196 C195 1.387 . S
C196 H219 0.931 . S
C197 C190 1.399 1_554 S
C197 C194 1.487 . S
C197 N229 1.343 1_565 S
C198 C199 1.384 . S
C198 C200 1.384 1_554 S
C198 H220 0.927 1_554 S
C199 C198 1.384 . S
C199 C202 1.382 . S
C200 C198 1.384 1_556 S
C200 C201 1.381 1_556 S
C200 H221 0.930 . S
C201 C200 1.381 1_554 S
C201 C203 1.381 . S
C201 C204 1.487 1_554 S
C202 C199 1.382 . S
C202 C203 1.387 . S
C202 H222 0.930 . S
C203 C201 1.381 . S
C203 C202 1.387 . S
C203 H223 0.931 . S
C204 C201 1.487 1_556 S
C204 C211 1.399 . S
C204 N229 1.343 1_556 S
C205 C206 1.384 . S
C205 C207 1.384 . S
C205 H224 0.931 . S
C206 C205 1.384 . S
C206 C209 1.382 . S
C207 C205 1.384 . S
C207 C208 1.381 . S
C207 H225 0.930 . S
C208 C207 1.381 . S
C208 C210 1.381 . S
C208 C211 1.487 . S
C209 C206 1.382 . S
C209 C210 1.387 . S
C209 H226 0.930 . S
C210 C208 1.381 . S
C210 C209 1.387 . S
C210 H227 0.931 . S
C211 C204 1.399 . S
C211 C208 1.487 . S
C211 N228 1.343 . S
H212 C184 0.931 . S
H213 C186 0.919 1_554 S
H214 C188 0.930 . S
H215 C189 0.931 . S
H216 C191 0.931 . S
H217 C193 0.930 . S
H218 C195 0.930 . S
H219 C196 0.931 . S
H220 C198 0.927 1_556 S
H221 C200 0.930 . S
H222 C202 0.930 . S
H223 C203 0.931 . S
H224 C205 0.931 . S
H225 C207 0.930 . S
H226 C209 0.930 . S
H227 C210 0.931 . S
N228 C190 1.343 1_545 S
N228 C211 1.343 . S
N229 C197 1.343 1_545 S
N229 C204 1.343 1_554 S
C230 C231 1.384 . S
C230 C232 1.384 . S
C230 H258 0.931 . S
C231 C230 1.384 . S
C231 C234 1.382 . S
C232 C230 1.384 . S
C232 C233 1.381 . S
C232 H259 0.930 . S
C233 C232 1.381 . S
C233 C235 1.381 . S
C233 C236 1.487 . S
C234 C231 1.382 . S
C234 C235 1.387 . S
C234 H260 0.930 . S
C235 C233 1.381 . S
C235 C234 1.387 . S
C235 H261 0.931 . S
C236 C233 1.487 . S
C236 C243 1.399 . S
C236 N274 1.343 . S
C237 C238 1.384 . S
C237 C239 1.384 . S
C237 H262 0.931 . S
C238 C237 1.384 . S
C238 C241 1.382 . S
C239 C237 1.384 . S
C239 C240 1.381 . S
C239 H263 0.930 . S
C240 C239 1.381 . S
C240 C242 1.381 . S
C240 C243 1.487 . S
C241 C238 1.382 . S
C241 C242 1.387 . S
C241 H264 0.930 . S
C242 C240 1.381 . S
C242 C241 1.387 . S
C242 H265 0.931 . S
C243 C236 1.399 . S
C243 C240 1.487 . S
C243 N275 1.343 . S
C244 C245 1.384 . S
C244 C246 1.384 . S
C244 H266 0.931 . S
C245 C244 1.384 . S
C245 C248 1.382 . S
C246 C244 1.384 . S
C246 C247 1.381 . S
C246 H267 0.930 . S
C247 C246 1.381 . S
C247 C249 1.381 . S
C247 C250 1.487 . S
C248 C245 1.382 . S
C248 C249 1.387 . S
C248 H268 0.930 . S
C249 C247 1.381 . S
C249 C248 1.387 . S
C249 H269 0.931 . S
C250 C247 1.487 . S
C250 C257 1.399 . S
C250 N275 1.343 . S
C251 C252 1.384 . S
C251 C253 1.384 . S
C251 H270 0.931 . S
C252 C251 1.384 . S
C252 C255 1.382 . S
C253 C251 1.384 . S
C253 C254 1.381 . S
C253 H271 0.930 . S
C254 C253 1.381 . S
C254 C256 1.381 . S
C254 C257 1.487 . S
C255 C252 1.382 . S
C255 C256 1.387 . S
C255 H272 0.930 . S
C256 C254 1.381 . S
C256 C255 1.387 . S
C256 H273 0.931 . S
C257 C250 1.399 . S
C257 C254 1.487 . S
C257 N274 1.343 . S
H258 C230 0.931 . S
H259 C232 0.930 . S
H260 C234 0.930 . S
H261 C235 0.931 . S
H262 C237 0.931 . S
H263 C239 0.930 . S
H264 C241 0.930 . S
H265 C242 0.931 . S
H266 C244 0.931 . S
H267 C246 0.930 . S
H268 C248 0.930 . S
H269 C249 0.931 . S
H270 C251 0.931 . S
H271 C253 0.930 . S
H272 C255 0.930 . S
H273 C256 0.931 . S
N274 C236 1.343 . S
N274 C257 1.343 . S
N275 C243 1.343 . S
N275 C250 1.343 . S
O276 Cd277 2.223 . S
O276 C284 1.315 . S
Cd277 O276 2.223 . S
Cd277 O280 2.297 . S
Cd277 O281 2.439 . S
Cd277 O287 2.240 . S
Cd278 O279 2.240 . S
Cd278 O286 2.223 . S
Cd278 O288 2.297 . S
Cd278 O289 2.439 . S
O279 Cd278 2.240 . S
O279 C284 1.279 . S
O280 Cd277 2.297 . S
O280 C282 1.247 . S
O281 Cd277 2.439 . S
O281 C282 1.208 . S
C282 O280 1.247 . S
C282 O281 1.208 . S
C283 O288 1.247 . S
C283 O289 1.208 . S
C284 O276 1.315 . S
C284 O279 1.279 . S
C285 O286 1.315 . S
C285 O287 1.279 . S
O286 Cd278 2.223 . S
O286 C285 1.315 . S
O287 Cd277 2.240 . S
O287 C285 1.279 . S
O288 Cd278 2.297 . S
O288 C283 1.247 . S
O289 Cd278 2.439 . S
O289 C283 1.208 . S
O290 Cd291 2.223 . S
O290 C298 1.315 . S
Cd291 O290 2.223 . S
Cd291 O294 2.297 . S
Cd291 O295 2.439 . S
Cd291 O301 2.240 . S
Cd292 O293 2.240 . S
Cd292 O300 2.223 . S
Cd292 O302 2.297 . S
Cd292 O303 2.439 . S
O293 Cd292 2.240 . S
O293 C298 1.279 . S
O294 Cd291 2.297 . S
O294 C296 1.247 . S
O295 Cd291 2.439 . S
O295 C296 1.208 . S
C296 O294 1.247 . S
C296 O295 1.208 . S
C297 O302 1.247 . S
C297 O303 1.208 . S
C298 O290 1.315 . S
C298 O293 1.279 . S
C299 O300 1.315 . S
C299 O301 1.279 . S
O300 Cd292 2.223 . S
O300 C299 1.315 . S
O301 Cd291 2.240 . S
O301 C299 1.279 . S
O302 Cd292 2.297 . S
O302 C297 1.247 . S
O303 Cd292 2.439 . S
O303 C297 1.208 . S
O304 Cd305 2.223 . S
O304 C312 1.315 . S
Cd305 O304 2.223 . S
Cd305 O308 2.297 . S
Cd305 O309 2.439 . S
Cd305 O315 2.240 . S
Cd306 O307 2.240 . S
Cd306 O314 2.223 . S
Cd306 O316 2.297 . S
Cd306 O317 2.439 . S
O307 Cd306 2.240 . S
O307 C312 1.279 . S
O308 Cd305 2.297 . S
O308 C310 1.247 . S
O309 Cd305 2.439 . S
O309 C310 1.208 . S
C310 O308 1.247 . S
C310 O309 1.208 . S
C311 O316 1.247 . S
C311 O317 1.208 . S
C312 O304 1.315 . S
C312 O307 1.279 . S
C313 O314 1.315 . S
C313 O315 1.279 . S
O314 Cd306 2.223 . S
O314 C313 1.315 . S
O315 Cd305 2.240 . S
O315 C313 1.279 . S
O316 Cd306 2.297 . S
O316 C311 1.247 . S
O317 Cd306 2.439 . S
O317 C311 1.208 . S
O318 Cd319 2.223 . S
O318 C326 1.315 . S
Cd319 O318 2.223 . S
Cd319 O322 2.297 . S
Cd319 O323 2.439 . S
Cd319 O329 2.240 . S
Cd320 O321 2.240 . S
Cd320 O328 2.223 . S
Cd320 O330 2.297 . S
Cd320 O331 2.439 . S
O321 Cd320 2.240 . S
O321 C326 1.279 . S
O322 Cd319 2.297 . S
O322 C324 1.247 . S
O323 Cd319 2.439 . S
O323 C324 1.208 . S
C324 O322 1.247 . S
C324 O323 1.208 . S
C325 O330 1.247 . S
C325 O331 1.208 . S
C326 O318 1.315 . S
C326 O321 1.279 . S
C327 O328 1.315 . S
C327 O329 1.279 . S
O328 Cd320 2.223 . S
O328 C327 1.315 . S
O329 Cd319 2.240 . S
O329 C327 1.279 . S
O330 Cd320 2.297 . S
O330 C325 1.247 . S
O331 Cd320 2.439 . S
O331 C325 1.208 . S
O332 Cd333 2.223 . S
O332 C340 1.315 . S
Cd333 O332 2.223 . S
Cd333 O336 2.297 . S
Cd333 O337 2.439 . S
Cd333 O343 2.240 . S
Cd334 O335 2.240 . S
Cd334 O342 2.223 . S
Cd334 O344 2.297 . S
Cd334 O345 2.439 . S
O335 Cd334 2.240 . S
O335 C340 1.279 . S
O336 Cd333 2.297 . S
O336 C338 1.247 . S
O337 Cd333 2.439 . S
O337 C338 1.208 . S
C338 O336 1.247 . S
C338 O337 1.208 . S
C339 O344 1.247 . S
C339 O345 1.208 . S
C340 O332 1.315 . S
C340 O335 1.279 . S
C341 O342 1.315 . S
C341 O343 1.279 . S
O342 Cd334 2.223 . S
O342 C341 1.315 . S
O343 Cd333 2.240 . S
O343 C341 1.279 . S
O344 Cd334 2.297 . S
O344 C339 1.247 . S
O345 Cd334 2.439 . S
O345 C339 1.208 . S
O346 Cd347 2.223 . S
O346 C354 1.315 . S
Cd347 O346 2.223 . S
Cd347 O350 2.297 . S
Cd347 O351 2.439 . S
Cd347 O357 2.240 . S
Cd348 O349 2.240 . S
Cd348 O356 2.223 . S
Cd348 O358 2.297 . S
Cd348 O359 2.439 . S
O349 Cd348 2.240 . S
O349 C354 1.279 . S
O350 Cd347 2.297 . S
O350 C352 1.247 . S
O351 Cd347 2.439 . S
O351 C352 1.208 . S
C352 O350 1.247 . S
C352 O351 1.208 . S
C353 O358 1.247 . S
C353 O359 1.208 . S
C354 O346 1.315 . S
C354 O349 1.279 . S
C355 O356 1.315 . S
C355 O357 1.279 . S
O356 Cd348 2.223 . S
O356 C355 1.315 . S
O357 Cd347 2.240 . S
O357 C355 1.279 . S
O358 Cd348 2.297 . S
O358 C353 1.247 . S
O359 Cd348 2.439 . S
O359 C353 1.208 . S
H360 C368 0.929 . S
H361 C370 0.930 . S
H362 C372 0.930 . S
H363 C375 0.929 . S
H364 C378 0.930 . S
H365 C380 0.960 . S
H366 C380 0.960 . S
H367 C380 0.960 . S
C368 H360 0.929 . S
C368 C369 1.377 . S
C368 C370 1.384 . S
C369 C368 1.377 . S
C369 C375 1.390 . S
C370 H361 0.930 . S
C370 C368 1.384 . S
C370 C371 1.372 . S
C371 C370 1.372 . S
C371 C372 1.400 . S
C371 C376 1.490 . S
C372 H362 0.930 . S
C372 C371 1.400 . S
C372 C375 1.386 . S
H373 C389 0.930 . S
H374 C390 0.931 . S
C375 H363 0.929 . S
C375 C369 1.390 . S
C375 C372 1.386 . S
C376 C371 1.490 . S
C376 C378 1.395 . S
C376 C379 1.403 . S
H377 C383 0.930 . S
C378 H364 0.930 . S
C378 C376 1.395 . S
C378 C381 1.403 . S
C379 C376 1.403 . S
C379 C380 1.524 . S
C379 C383 1.400 . S
C380 H365 0.960 . S
C380 H366 0.960 . S
C380 H367 0.960 . S
C380 C379 1.524 . S
C381 C378 1.403 . S
C381 C382 1.392 . S
C381 C385 1.495 . S
C382 C381 1.392 . S
C382 C383 1.385 . S
C382 C384 1.478 . S
C383 H377 0.930 . S
C383 C379 1.400 . S
C383 C382 1.385 . S
C384 C382 1.478 . S
C384 C386 1.381 . S
C384 C390 1.383 . S
C385 C381 1.495 . S
C385 H391 0.959 . S
C385 H392 0.961 . S
C385 H393 0.960 . S
C386 C384 1.381 . S
C386 C387 1.394 . S
C386 H394 0.930 . S
C387 C386 1.394 . S
C387 C388 1.383 . S
C387 H395 0.929 . S
C388 C387 1.383 . S
C388 C389 1.377 . S
C389 H373 0.930 . S
C389 C388 1.377 . S
C389 C390 1.379 . S
C390 H374 0.931 . S
C390 C384 1.383 . S
C390 C389 1.379 . S
H391 C385 0.959 . S
H392 C385 0.961 . S
H393 C385 0.960 . S
H394 C386 0.930 . S
H395 C387 0.929 . S
H396 C404 0.929 . S
H397 C406 0.930 . S
H398 C408 0.930 . S
H399 C411 0.929 . S
H400 C414 0.930 . S
H401 C416 0.960 . S
H402 C416 0.960 . S
H403 C416 0.960 . S
C404 H396 0.929 . S
C404 C405 1.377 . S
C404 C406 1.384 . S
C405 C404 1.377 . S
C405 C411 1.390 . S
C406 H397 0.930 . S
C406 C404 1.384 . S
C406 C407 1.372 . S
C407 C406 1.372 . S
C407 C408 1.400 . S
C407 C412 1.490 . S
C408 H398 0.930 . S
C408 C407 1.400 . S
C408 C411 1.386 . S
H409 C425 0.930 . S
H410 C426 0.931 . S
C411 H399 0.929 . S
C411 C405 1.390 . S
C411 C408 1.386 . S
C412 C407 1.490 . S
C412 C414 1.395 . S
C412 C415 1.403 . S
H413 C419 0.930 . S
C414 H400 0.930 . S
C414 C412 1.395 . S
C414 C417 1.403 . S
C415 C412 1.403 . S
C415 C416 1.524 . S
C415 C419 1.400 . S
C416 H401 0.960 . S
C416 H402 0.960 . S
C416 H403 0.960 . S
C416 C415 1.524 . S
C417 C414 1.403 . S
C417 C418 1.392 . S
C417 C421 1.495 . S
C418 C417 1.392 . S
C418 C419 1.385 . S
C418 C420 1.478 . S
C419 H413 0.930 . S
C419 C415 1.400 . S
C419 C418 1.385 . S
C420 C418 1.478 . S
C420 C422 1.381 . S
C420 C426 1.383 . S
C421 C417 1.495 . S
C421 H427 0.959 . S
C421 H428 0.961 . S
C421 H429 0.960 . S
C422 C420 1.381 . S
C422 C423 1.394 . S
C422 H430 0.930 . S
C423 C422 1.394 . S
C423 C424 1.383 . S
C423 H431 0.929 . S
C424 C423 1.383 . S
C424 C425 1.377 . S
C425 H409 0.930 . S
C425 C424 1.377 . S
C425 C426 1.379 . S
C426 H410 0.931 . S
C426 C420 1.383 . S
C426 C425 1.379 . S
H427 C421 0.959 . S
H428 C421 0.961 . S
H429 C421 0.960 . S
H430 C422 0.930 . S
H431 C423 0.929 . S
H432 C440 0.929 . S
H433 C442 0.930 . S
H434 C444 0.930 . S
H435 C447 0.929 . S
H436 C450 0.930 . S
H437 C452 0.960 . S
H438 C452 0.960 . S
H439 C452 0.960 . S
C440 H432 0.929 . S
C440 C441 1.377 . S
C440 C442 1.384 . S
C441 C440 1.377 . S
C441 C447 1.390 . S
C442 H433 0.930 . S
C442 C440 1.384 . S
C442 C443 1.372 . S
C443 C442 1.372 . S
C443 C444 1.400 . S
C443 C448 1.490 . S
C444 H434 0.930 . S
C444 C443 1.400 . S
C444 C447 1.386 . S
H445 C461 0.930 . S
H446 C462 0.931 . S
C447 H435 0.929 . S
C447 C441 1.390 . S
C447 C444 1.386 . S
C448 C443 1.490 . S
C448 C450 1.395 . S
C448 C451 1.403 . S
H449 C455 0.930 . S
C450 H436 0.930 . S
C450 C448 1.395 . S
C450 C453 1.403 . S
C451 C448 1.403 . S
C451 C452 1.524 . S
C451 C455 1.400 . S
C452 H437 0.960 . S
C452 H438 0.960 . S
C452 H439 0.960 . S
C452 C451 1.524 . S
C453 C450 1.403 . S
C453 C454 1.392 . S
C453 C457 1.495 . S
C454 C453 1.392 . S
C454 C455 1.385 . S
C454 C456 1.478 . S
C455 H449 0.930 . S
C455 C451 1.400 . S
C455 C454 1.385 . S
C456 C454 1.478 . S
C456 C458 1.381 . S
C456 C462 1.383 . S
C457 C453 1.495 . S
C457 H463 0.959 . S
C457 H464 0.961 . S
C457 H465 0.960 . S
C458 C456 1.381 . S
C458 C459 1.394 . S
C458 H466 0.930 . S
C459 C458 1.394 . S
C459 C460 1.383 . S
C459 H467 0.929 . S
C460 C459 1.383 . S
C460 C461 1.377 . S
C461 H445 0.930 . S
C461 C460 1.377 . S
C461 C462 1.379 . S
C462 H446 0.931 . S
C462 C456 1.383 . S
C462 C461 1.379 . S
H463 C457 0.959 . S
H464 C457 0.961 . S
H465 C457 0.960 . S
H466 C458 0.930 . S
H467 C459 0.929 . S
H468 C476 0.929 . S
H469 C478 0.930 . S
H470 C480 0.930 . S
H471 C483 0.929 . S
H472 C486 0.930 . S
H473 C488 0.960 . S
H474 C488 0.960 . S
H475 C488 0.960 . S
C476 H468 0.929 . S
C476 C477 1.377 . S
C476 C478 1.384 . S
C477 C476 1.377 . S
C477 C483 1.390 . S
C478 H469 0.930 . S
C478 C476 1.384 . S
C478 C479 1.372 . S
C479 C478 1.372 . S
C479 C480 1.400 . S
C479 C484 1.490 . S
C480 H470 0.930 . S
C480 C479 1.400 . S
C480 C483 1.386 . S
H481 C497 0.930 . S
H482 C498 0.931 . S
C483 H471 0.929 . S
C483 C477 1.390 . S
C483 C480 1.386 . S
C484 C479 1.490 . S
C484 C486 1.395 . S
C484 C487 1.403 . S
H485 C491 0.930 . S
C486 H472 0.930 . S
C486 C484 1.395 . S
C486 C489 1.403 . S
C487 C484 1.403 . S
C487 C488 1.524 . S
C487 C491 1.400 . S
C488 H473 0.960 . S
C488 H474 0.960 . S
C488 H475 0.960 . S
C488 C487 1.524 . S
C489 C486 1.403 . S
C489 C490 1.392 . S
C489 C493 1.495 . S
C490 C489 1.392 . S
C490 C491 1.385 . S
C490 C492 1.478 . S
C491 H485 0.930 . S
C491 C487 1.400 . S
C491 C490 1.385 . S
C492 C490 1.478 . S
C492 C494 1.381 . S
C492 C498 1.383 . S
C493 C489 1.495 . S
C493 H499 0.959 . S
C493 H500 0.961 . S
C493 H501 0.960 . S
C494 C492 1.381 . S
C494 C495 1.394 . S
C494 H502 0.930 . S
C495 C494 1.394 . S
C495 C496 1.383 . S
C495 H503 0.929 . S
C496 C495 1.383 . S
C496 C497 1.377 . S
C497 H481 0.930 . S
C497 C496 1.377 . S
C497 C498 1.379 . S
C498 H482 0.931 . S
C498 C492 1.383 . S
C498 C497 1.379 . S
H499 C493 0.959 . S
H500 C493 0.961 . S
H501 C493 0.960 . S
H502 C494 0.930 . S
H503 C495 0.929 . S
H504 C512 0.929 . S
H505 C514 0.930 . S
H506 C516 0.930 . S
H507 C519 0.929 . S
H508 C522 0.930 . S
H509 C524 0.960 . S
H510 C524 0.960 . S
H511 C524 0.960 . S
C512 H504 0.929 . S
C512 C513 1.377 . S
C512 C514 1.384 . S
C513 C512 1.377 . S
C513 C519 1.390 . S
C514 H505 0.930 . S
C514 C512 1.384 . S
C514 C515 1.372 . S
C515 C514 1.372 . S
C515 C516 1.400 . S
C515 C520 1.490 . S
C516 H506 0.930 . S
C516 C515 1.400 . S
C516 C519 1.386 . S
H517 C533 0.930 . S
H518 C534 0.931 . S
C519 H507 0.929 . S
C519 C513 1.390 . S
C519 C516 1.386 . S
C520 C515 1.490 . S
C520 C522 1.395 . S
C520 C523 1.403 . S
H521 C527 0.930 . S
C522 H508 0.930 . S
C522 C520 1.395 . S
C522 C525 1.403 . S
C523 C520 1.403 . S
C523 C524 1.524 . S
C523 C527 1.400 . S
C524 H509 0.960 . S
C524 H510 0.960 . S
C524 H511 0.960 . S
C524 C523 1.524 . S
C525 C522 1.403 . S
C525 C526 1.392 . S
C525 C529 1.495 . S
C526 C525 1.392 . S
C526 C527 1.385 . S
C526 C528 1.478 . S
C527 H521 0.930 . S
C527 C523 1.400 . S
C527 C526 1.385 . S
C528 C526 1.478 . S
C528 C530 1.381 . S
C528 C534 1.383 . S
C529 C525 1.495 . S
C529 H535 0.959 . S
C529 H536 0.961 . S
C529 H537 0.960 . S
C530 C528 1.381 . S
C530 C531 1.394 . S
C530 H538 0.930 . S
C531 C530 1.394 . S
C531 C532 1.383 . S
C531 H539 0.929 . S
C532 C531 1.383 . S
C532 C533 1.377 . S
C533 H517 0.930 . S
C533 C532 1.377 . S
C533 C534 1.379 . S
C534 H518 0.931 . S
C534 C528 1.383 . S
C534 C533 1.379 . S
H535 C529 0.959 . S
H536 C529 0.961 . S
H537 C529 0.960 . S
H538 C530 0.930 . S
H539 C531 0.929 . S
H540 C548 0.929 . S
H541 C550 0.930 . S
H542 C552 0.930 . S
H543 C555 0.929 . S
H544 C558 0.930 . S
H545 C560 0.960 . S
H546 C560 0.960 . S
H547 C560 0.960 . S
C548 H540 0.929 . S
C548 C549 1.377 . S
C548 C550 1.384 . S
C549 C548 1.377 . S
C549 C555 1.390 . S
C550 H541 0.930 . S
C550 C548 1.384 . S
C550 C551 1.372 . S
C551 C550 1.372 . S
C551 C552 1.400 . S
C551 C556 1.490 . S
C552 H542 0.930 . S
C552 C551 1.400 . S
C552 C555 1.386 . S
H553 C569 0.930 . S
H554 C570 0.931 . S
C555 H543 0.929 . S
C555 C549 1.390 . S
C555 C552 1.386 . S
C556 C551 1.490 . S
C556 C558 1.395 . S
C556 C559 1.403 . S
H557 C563 0.930 . S
C558 H544 0.930 . S
C558 C556 1.395 . S
C558 C561 1.403 . S
C559 C556 1.403 . S
C559 C560 1.524 . S
C559 C563 1.400 . S
C560 H545 0.960 . S
C560 H546 0.960 . S
C560 H547 0.960 . S
C560 C559 1.524 . S
C561 C558 1.403 . S
C561 C562 1.392 . S
C561 C565 1.495 . S
C562 C561 1.392 . S
C562 C563 1.385 . S
C562 C564 1.478 . S
C563 H557 0.930 . S
C563 C559 1.400 . S
C563 C562 1.385 . S
C564 C562 1.478 . S
C564 C566 1.381 . S
C564 C570 1.383 . S
C565 C561 1.495 . S
C565 H571 0.959 . S
C565 H572 0.961 . S
C565 H573 0.960 . S
C566 C564 1.381 . S
C566 C567 1.394 . S
C566 H574 0.930 . S
C567 C566 1.394 . S
C567 C568 1.383 . S
C567 H575 0.929 . S
C568 C567 1.383 . S
C568 C569 1.377 . S
C569 H553 0.930 . S
C569 C568 1.377 . S
C569 C570 1.379 . S
C570 H554 0.931 . S
C570 C564 1.383 . S
C570 C569 1.379 . S
H571 C565 0.959 . S
H572 C565 0.961 . S
H573 C565 0.960 . S
H574 C566 0.930 . S
H575 C567 0.929 . S
H576 C584 0.929 . S
H577 C586 0.930 . S
H578 C588 0.930 . S
H579 C591 0.929 . S
H580 C594 0.930 . S
H581 C596 0.960 . S
H582 C596 0.960 . S
H583 C596 0.960 . S
C584 H576 0.929 . S
C584 C585 1.377 . S
C584 C586 1.384 . S
C585 C584 1.377 . S
C585 C591 1.390 . S
C586 H577 0.930 . S
C586 C584 1.384 . S
C586 C587 1.372 . S
C587 C586 1.372 . S
C587 C588 1.400 . S
C587 C592 1.490 . S
C588 H578 0.930 . S
C588 C587 1.400 . S
C588 C591 1.386 . S
H589 C605 0.930 . S
H590 C606 0.931 . S
C591 H579 0.929 . S
C591 C585 1.390 . S
C591 C588 1.386 . S
C592 C587 1.490 . S
C592 C594 1.395 . S
C592 C595 1.403 . S
H593 C599 0.930 . S
C594 H580 0.930 . S
C594 C592 1.395 . S
C594 C597 1.403 . S
C595 C592 1.403 . S
C595 C596 1.524 . S
C595 C599 1.400 . S
C596 H581 0.960 . S
C596 H582 0.960 . S
C596 H583 0.960 . S
C596 C595 1.524 . S
C597 C594 1.403 . S
C597 C598 1.392 . S
C597 C601 1.495 . S
C598 C597 1.392 . S
C598 C599 1.385 . S
C598 C600 1.478 . S
C599 H593 0.930 . S
C599 C595 1.400 . S
C599 C598 1.385 . S
C600 C598 1.478 . S
C600 C602 1.381 . S
C600 C606 1.383 . S
C601 C597 1.495 . S
C601 H607 0.959 . S
C601 H608 0.961 . S
C601 H609 0.960 . S
C602 C600 1.381 . S
C602 C603 1.394 . S
C602 H610 0.930 . S
C603 C602 1.394 . S
C603 C604 1.383 . S
C603 H611 0.929 . S
C604 C603 1.383 . S
C604 C605 1.377 . S
C605 H589 0.930 . S
C605 C604 1.377 . S
C605 C606 1.379 . S
C606 H590 0.931 . S
C606 C600 1.383 . S
C606 C605 1.379 . S
H607 C601 0.959 . S
H608 C601 0.961 . S
H609 C601 0.960 . S
H610 C602 0.930 . S
H611 C603 0.929 . S
H612 C620 0.929 . S
H613 C622 0.930 . S
H614 C624 0.930 . S
H615 C627 0.929 . S
H616 C630 0.930 . S
H617 C632 0.960 . S
H618 C632 0.960 . S
H619 C632 0.960 . S
C620 H612 0.929 . S
C620 C621 1.377 . S
C620 C622 1.384 . S
C621 C620 1.377 . S
C621 C627 1.390 . S
C622 H613 0.930 . S
C622 C620 1.384 . S
C622 C623 1.372 . S
C623 C622 1.372 . S
C623 C624 1.400 . S
C623 C628 1.490 . S
C624 H614 0.930 . S
C624 C623 1.400 . S
C624 C627 1.386 . S
H625 C641 0.930 . S
H626 C642 0.931 . S
C627 H615 0.929 . S
C627 C621 1.390 . S
C627 C624 1.386 . S
C628 C623 1.490 . S
C628 C630 1.395 . S
C628 C631 1.403 . S
H629 C635 0.930 . S
C630 H616 0.930 . S
C630 C628 1.395 . S
C630 C633 1.403 . S
C631 C628 1.403 . S
C631 C632 1.524 . S
C631 C635 1.400 . S
C632 H617 0.960 . S
C632 H618 0.960 . S
C632 H619 0.960 . S
C632 C631 1.524 . S
C633 C630 1.403 . S
C633 C634 1.392 . S
C633 C637 1.495 . S
C634 C633 1.392 . S
C634 C635 1.385 . S
C634 C636 1.478 . S
C635 H629 0.930 . S
C635 C631 1.400 . S
C635 C634 1.385 . S
C636 C634 1.478 . S
C636 C638 1.381 . S
C636 C642 1.383 . S
C637 C633 1.495 . S
C637 H643 0.959 . S
C637 H644 0.961 . S
C637 H645 0.960 . S
C638 C636 1.381 . S
C638 C639 1.394 . S
C638 H646 0.930 . S
C639 C638 1.394 . S
C639 C640 1.383 . S
C639 H647 0.929 . S
C640 C639 1.383 . S
C640 C641 1.377 . S
C641 H625 0.930 . S
C641 C640 1.377 . S
C641 C642 1.379 . S
C642 H626 0.931 . S
C642 C636 1.383 . S
C642 C641 1.379 . S
H643 C637 0.959 . S
H644 C637 0.961 . S
H645 C637 0.960 . S
H646 C638 0.930 . S
H647 C639 0.929 . S
H648 C656 0.929 . S
H649 C658 0.930 . S
H650 C660 0.930 . S
H651 C663 0.929 . S
H652 C666 0.930 . S
H653 C668 0.960 . S
H654 C668 0.960 . S
H655 C668 0.960 . S
C656 H648 0.929 . S
C656 C657 1.377 . S
C656 C658 1.384 . S
C657 C656 1.377 . S
C657 C663 1.390 . S
C658 H649 0.930 . S
C658 C656 1.384 . S
C658 C659 1.372 . S
C659 C658 1.372 . S
C659 C660 1.400 . S
C659 C664 1.490 . S
C660 H650 0.930 . S
C660 C659 1.400 . S
C660 C663 1.386 . S
H661 C677 0.930 . S
H662 C678 0.931 . S
C663 H651 0.929 . S
C663 C657 1.390 . S
C663 C660 1.386 . S
C664 C659 1.490 . S
C664 C666 1.395 . S
C664 C667 1.403 . S
H665 C671 0.930 . S
C666 H652 0.930 . S
C666 C664 1.395 . S
C666 C669 1.403 . S
C667 C664 1.403 . S
C667 C668 1.524 . S
C667 C671 1.400 . S
C668 H653 0.960 . S
C668 H654 0.960 . S
C668 H655 0.960 . S
C668 C667 1.524 . S
C669 C666 1.403 . S
C669 C670 1.392 . S
C669 C673 1.495 . S
C670 C669 1.392 . S
C670 C671 1.385 . S
C670 C672 1.478 . S
C671 H665 0.930 . S
C671 C667 1.400 . S
C671 C670 1.385 . S
C672 C670 1.478 . S
C672 C674 1.381 . S
C672 C678 1.383 . S
C673 C669 1.495 . S
C673 H679 0.959 . S
C673 H680 0.961 . S
C673 H681 0.960 . S
C674 C672 1.381 . S
C674 C675 1.394 . S
C674 H682 0.930 . S
C675 C674 1.394 . S
C675 C676 1.383 . S
C675 H683 0.929 . S
C676 C675 1.383 . S
C676 C677 1.377 . S
C677 H661 0.930 . S
C677 C676 1.377 . S
C677 C678 1.379 . S
C678 H662 0.931 . S
C678 C672 1.383 . S
C678 C677 1.379 . S
H679 C673 0.959 . S
H680 C673 0.961 . S
H681 C673 0.960 . S
H682 C674 0.930 . S
H683 C675 0.929 . S
H684 C692 0.929 . S
H685 C694 0.930 . S
H686 C696 0.930 . S
H687 C699 0.929 . S
H688 C702 0.930 . S
H689 C704 0.960 . S
H690 C704 0.960 . S
H691 C704 0.960 . S
C692 H684 0.929 . S
C692 C693 1.377 . S
C692 C694 1.384 . S
C693 C692 1.377 . S
C693 C699 1.390 . S
C694 H685 0.930 . S
C694 C692 1.384 . S
C694 C695 1.372 . S
C695 C694 1.372 . S
C695 C696 1.400 . S
C695 C700 1.490 . S
C696 H686 0.930 . S
C696 C695 1.400 . S
C696 C699 1.386 . S
H697 C713 0.930 . S
H698 C714 0.931 . S
C699 H687 0.929 . S
C699 C693 1.390 . S
C699 C696 1.386 . S
C700 C695 1.490 . S
C700 C702 1.395 . S
C700 C703 1.403 . S
H701 C707 0.930 . S
C702 H688 0.930 . S
C702 C700 1.395 . S
C702 C705 1.403 . S
C703 C700 1.403 . S
C703 C704 1.524 . S
C703 C707 1.400 . S
C704 H689 0.960 . S
C704 H690 0.960 . S
C704 H691 0.960 . S
C704 C703 1.524 . S
C705 C702 1.403 . S
C705 C706 1.392 . S
C705 C709 1.495 . S
C706 C705 1.392 . S
C706 C707 1.385 . S
C706 C708 1.478 . S
C707 H701 0.930 . S
C707 C703 1.400 . S
C707 C706 1.385 . S
C708 C706 1.478 . S
C708 C710 1.381 . S
C708 C714 1.383 . S
C709 C705 1.495 . S
C709 H715 0.959 1_554 S
C709 H716 0.961 . S
C709 H717 0.960 . S
C710 C708 1.381 . S
C710 C711 1.394 . S
C710 H718 0.930 . S
C711 C710 1.394 . S
C711 C712 1.383 . S
C711 H719 0.929 . S
C712 C711 1.383 . S
C712 C713 1.377 . S
C713 H697 0.930 . S
C713 C712 1.377 . S
C713 C714 1.379 . S
C714 H698 0.931 . S
C714 C708 1.383 . S
C714 C713 1.379 . S
H715 C709 0.959 1_556 S
H716 C709 0.961 . S
H717 C709 0.960 . S
H718 C710 0.930 . S
H719 C711 0.929 . S
H720 C728 0.929 . S
H721 C730 0.930 . S
H722 C732 0.930 . S
H723 C735 0.929 . S
H724 C738 0.930 . S
H725 C740 0.960 . S
H726 C740 0.960 . S
H727 C740 0.960 . S
C728 H720 0.929 . S
C728 C729 1.377 . S
C728 C730 1.384 . S
C729 C728 1.377 . S
C729 C735 1.390 . S
C730 H721 0.930 . S
C730 C728 1.384 . S
C730 C731 1.372 . S
C731 C730 1.372 . S
C731 C732 1.400 . S
C731 C736 1.490 . S
C732 H722 0.930 . S
C732 C731 1.400 . S
C732 C735 1.386 . S
H733 C749 0.930 . S
H734 C750 0.931 . S
C735 H723 0.929 . S
C735 C729 1.390 . S
C735 C732 1.386 . S
C736 C731 1.490 . S
C736 C738 1.395 . S
C736 C739 1.403 . S
H737 C743 0.930 . S
C738 H724 0.930 . S
C738 C736 1.395 . S
C738 C741 1.403 . S
C739 C736 1.403 . S
C739 C740 1.524 . S
C739 C743 1.400 . S
C740 H725 0.960 . S
C740 H726 0.960 . S
C740 H727 0.960 . S
C740 C739 1.524 . S
C741 C738 1.403 . S
C741 C742 1.392 . S
C741 C745 1.495 . S
C742 C741 1.392 . S
C742 C743 1.385 . S
C742 C744 1.478 . S
C743 H737 0.930 . S
C743 C739 1.400 . S
C743 C742 1.385 . S
C744 C742 1.478 . S
C744 C746 1.381 . S
C744 C750 1.383 . S
C745 C741 1.495 . S
C745 H751 0.959 . S
C745 H752 0.961 . S
C745 H753 0.960 . S
C746 C744 1.381 . S
C746 C747 1.394 . S
C746 H754 0.930 . S
C747 C746 1.394 . S
C747 C748 1.383 . S
C747 H755 0.929 . S
C748 C747 1.383 . S
C748 C749 1.377 . S
C749 H733 0.930 . S
C749 C748 1.377 . S
C749 C750 1.379 . S
C750 H734 0.931 . S
C750 C744 1.383 . S
C750 C749 1.379 . S
H751 C745 0.959 . S
H752 C745 0.961 . S
H753 C745 0.960 . S
H754 C746 0.930 . S
H755 C747 0.929 . S
H756 C764 0.929 . S
H757 C766 0.930 . S
H758 C768 0.930 . S
H759 C771 0.929 . S
H760 C774 0.930 . S
H761 C776 0.960 . S
H762 C776 0.960 . S
H763 C776 0.960 . S
C764 H756 0.929 . S
C764 C765 1.377 . S
C764 C766 1.384 . S
C765 C764 1.377 . S
C765 C771 1.390 . S
C766 H757 0.930 . S
C766 C764 1.384 . S
C766 C767 1.372 . S
C767 C766 1.372 . S
C767 C768 1.400 . S
C767 C772 1.490 . S
C768 H758 0.930 . S
C768 C767 1.400 . S
C768 C771 1.386 . S
H769 C785 0.930 . S
H770 C786 0.931 . S
C771 H759 0.929 . S
C771 C765 1.390 . S
C771 C768 1.386 . S
C772 C767 1.490 . S
C772 C774 1.395 . S
C772 C775 1.403 . S
H773 C779 0.930 . S
C774 H760 0.930 . S
C774 C772 1.395 . S
C774 C777 1.403 . S
C775 C772 1.403 . S
C775 C776 1.524 . S
C775 C779 1.400 . S
C776 H761 0.960 . S
C776 H762 0.960 . S
C776 H763 0.960 . S
C776 C775 1.524 . S
C777 C774 1.403 . S
C777 C778 1.392 . S
C777 C781 1.495 . S
C778 C777 1.392 . S
C778 C779 1.385 . S
C778 C780 1.478 . S
C779 H773 0.930 . S
C779 C775 1.400 . S
C779 C778 1.385 . S
C780 C778 1.478 . S
C780 C782 1.381 . S
C780 C786 1.383 . S
C781 C777 1.495 . S
C781 H787 0.959 . S
C781 H788 0.961 . S
C781 H789 0.960 . S
C782 C780 1.381 . S
C782 C783 1.394 . S
C782 H790 0.930 . S
C783 C782 1.394 . S
C783 C784 1.383 . S
C783 H791 0.929 . S
C784 C783 1.383 . S
C784 C785 1.377 . S
C785 H769 0.930 . S
C785 C784 1.377 . S
C785 C786 1.379 . S
C786 H770 0.931 . S
C786 C780 1.383 . S
C786 C785 1.379 . S
H787 C781 0.959 . S
H788 C781 0.961 . S
H789 C781 0.960 . S
H790 C782 0.930 . S
H791 C783 0.929 . S
H792 C800 0.929 . S
H793 C802 0.930 . S
H794 C804 0.930 . S
H795 C807 0.929 . S
H796 C810 0.930 . S
H797 C812 0.960 . S
H798 C812 0.960 . S
H799 C812 0.960 . S
C800 H792 0.929 . S
C800 C801 1.377 . S
C800 C802 1.384 . S
C801 C800 1.377 . S
C801 C807 1.390 . S
C802 H793 0.930 . S
C802 C800 1.384 . S
C802 C803 1.372 . S
C803 C802 1.372 . S
C803 C804 1.400 . S
C803 C808 1.490 . S
C804 H794 0.930 . S
C804 C803 1.400 . S
C804 C807 1.386 . S
H805 C821 0.930 . S
H806 C822 0.931 . S
C807 H795 0.929 . S
C807 C801 1.390 . S
C807 C804 1.386 . S
C808 C803 1.490 . S
C808 C810 1.395 . S
C808 C811 1.403 . S
H809 C815 0.930 . S
C810 H796 0.930 . S
C810 C808 1.395 . S
C810 C813 1.403 . S
C811 C808 1.403 . S
C811 C812 1.524 . S
C811 C815 1.400 . S
C812 H797 0.960 . S
C812 H798 0.960 . S
C812 H799 0.960 . S
C812 C811 1.524 . S
C813 C810 1.403 . S
C813 C814 1.392 . S
C813 C817 1.495 . S
C814 C813 1.392 . S
C814 C815 1.385 . S
C814 C816 1.478 . S
C815 H809 0.930 . S
C815 C811 1.400 . S
C815 C814 1.385 . S
C816 C814 1.478 . S
C816 C818 1.381 . S
C816 C822 1.383 . S
C817 C813 1.495 . S
C817 H823 0.959 . S
C817 H824 0.961 . S
C817 H825 0.960 . S
C818 C816 1.381 . S
C818 C819 1.394 . S
C818 H826 0.930 . S
C819 C818 1.394 . S
C819 C820 1.383 . S
C819 H827 0.929 . S
C820 C819 1.383 . S
C820 C821 1.377 . S
C821 H805 0.930 . S
C821 C820 1.377 . S
C821 C822 1.379 . S
C822 H806 0.931 . S
C822 C816 1.383 . S
C822 C821 1.379 . S
H823 C817 0.959 . S
H824 C817 0.961 . S
H825 C817 0.960 . S
H826 C818 0.930 . S
H827 C819 0.929 . S
H828 C836 0.929 . S
H829 C838 0.930 . S
H830 C840 0.930 . S
H831 C843 0.929 . S
H832 C846 0.930 . S
H833 C848 0.960 . S
H834 C848 0.960 . S
H835 C848 0.960 . S
C836 H828 0.929 . S
C836 C837 1.377 . S
C836 C838 1.384 . S
C837 C836 1.377 . S
C837 C843 1.390 . S
C838 H829 0.930 . S
C838 C836 1.384 . S
C838 C839 1.372 . S
C839 C838 1.372 . S
C839 C840 1.400 . S
C839 C844 1.490 . S
C840 H830 0.930 . S
C840 C839 1.400 . S
C840 C843 1.386 . S
H841 C857 0.930 . S
H842 C858 0.931 . S
C843 H831 0.929 . S
C843 C837 1.390 . S
C843 C840 1.386 . S
C844 C839 1.490 . S
C844 C846 1.395 . S
C844 C847 1.403 . S
H845 C851 0.930 . S
C846 H832 0.930 . S
C846 C844 1.395 . S
C846 C849 1.403 . S
C847 C844 1.403 . S
C847 C848 1.524 . S
C847 C851 1.400 . S
C848 H833 0.960 . S
C848 H834 0.960 . S
C848 H835 0.960 . S
C848 C847 1.524 . S
C849 C846 1.403 . S
C849 C850 1.392 . S
C849 C853 1.495 . S
C850 C849 1.392 . S
C850 C851 1.385 . S
C850 C852 1.478 . S
C851 H845 0.930 . S
C851 C847 1.400 . S
C851 C850 1.385 . S
C852 C850 1.478 . S
C852 C854 1.381 . S
C852 C858 1.383 . S
C853 C849 1.495 . S
C853 H859 0.959 . S
C853 H860 0.961 . S
C853 H861 0.960 . S
C854 C852 1.381 . S
C854 C855 1.394 . S
C854 H862 0.930 . S
C855 C854 1.394 . S
C855 C856 1.383 . S
C855 H863 0.929 . S
C856 C855 1.383 . S
C856 C857 1.377 . S
C857 H841 0.930 . S
C857 C856 1.377 . S
C857 C858 1.379 . S
C858 H842 0.931 . S
C858 C852 1.383 . S
C858 C857 1.379 . S
H859 C853 0.959 . S
H860 C853 0.961 . S
H861 C853 0.960 . S
H862 C854 0.930 . S
H863 C855 0.929 . S
H864 C872 0.929 . S
H865 C874 0.930 . S
H866 C876 0.930 . S
H867 C879 0.929 . S
H868 C882 0.930 . S
H869 C884 0.960 . S
H870 C884 0.960 . S
H871 C884 0.960 . S
C872 H864 0.929 . S
C872 C873 1.377 . S
C872 C874 1.384 . S
C873 C872 1.377 . S
C873 C879 1.390 . S
C874 H865 0.930 . S
C874 C872 1.384 . S
C874 C875 1.372 . S
C875 C874 1.372 . S
C875 C876 1.400 . S
C875 C880 1.490 . S
C876 H866 0.930 . S
C876 C875 1.400 . S
C876 C879 1.386 . S
H877 C893 0.930 . S
H878 C894 0.931 . S
C879 H867 0.929 . S
C879 C873 1.390 . S
C879 C876 1.386 . S
C880 C875 1.490 . S
C880 C882 1.395 . S
C880 C883 1.403 . S
H881 C887 0.930 . S
C882 H868 0.930 . S
C882 C880 1.395 . S
C882 C885 1.403 . S
C883 C880 1.403 . S
C883 C884 1.524 . S
C883 C887 1.400 . S
C884 H869 0.960 . S
C884 H870 0.960 . S
C884 H871 0.960 . S
C884 C883 1.524 . S
C885 C882 1.403 . S
C885 C886 1.392 . S
C885 C889 1.495 . S
C886 C885 1.392 . S
C886 C887 1.385 . S
C886 C888 1.478 . S
C887 H881 0.930 . S
C887 C883 1.400 . S
C887 C886 1.385 . S
C888 C886 1.478 . S
C888 C890 1.381 . S
C888 C894 1.383 . S
C889 C885 1.495 . S
C889 H895 0.959 . S
C889 H896 0.961 . S
C889 H897 0.960 . S
C890 C888 1.381 . S
C890 C891 1.394 . S
C890 H898 0.930 . S
C891 C890 1.394 . S
C891 C892 1.383 . S
C891 H899 0.929 . S
C892 C891 1.383 . S
C892 C893 1.377 . S
C893 H877 0.930 . S
C893 C892 1.377 . S
C893 C894 1.379 . S
C894 H878 0.931 . S
C894 C888 1.383 . S
C894 C893 1.379 . S
H895 C889 0.959 . S
H896 C889 0.961 . S
H897 C889 0.960 . S
H898 C890 0.930 . S
H899 C891 0.929 . S
H900 C908 0.929 . S
H901 C910 0.930 . S
H902 C912 0.930 . S
H903 C915 0.929 . S
H904 C918 0.930 . S
H905 C920 0.960 . S
H906 C920 0.960 . S
H907 C920 0.960 . S
C908 H900 0.929 . S
C908 C909 1.377 . S
C908 C910 1.384 . S
C909 C908 1.377 . S
C909 C915 1.390 . S
C910 H901 0.930 . S
C910 C908 1.384 . S
C910 C911 1.372 . S
C911 C910 1.372 . S
C911 C912 1.400 . S
C911 C916 1.490 . S
C912 H902 0.930 . S
C912 C911 1.400 . S
C912 C915 1.386 . S
H913 C929 0.930 . S
H914 C930 0.931 . S
C915 H903 0.929 . S
C915 C909 1.390 . S
C915 C912 1.386 . S
C916 C911 1.490 . S
C916 C918 1.395 . S
C916 C919 1.403 . S
H917 C923 0.930 . S
C918 H904 0.930 . S
C918 C916 1.395 . S
C918 C921 1.403 . S
C919 C916 1.403 . S
C919 C920 1.524 . S
C919 C923 1.400 . S
C920 H905 0.960 . S
C920 H906 0.960 . S
C920 H907 0.960 . S
C920 C919 1.524 . S
C921 C918 1.403 . S
C921 C922 1.392 . S
C921 C925 1.495 . S
C922 C921 1.392 . S
C922 C923 1.385 . S
C922 C924 1.478 1_556 S
C923 H917 0.930 . S
C923 C919 1.400 . S
C923 C922 1.385 . S
C924 C922 1.478 1_554 S
C924 C926 1.381 . S
C924 C930 1.383 . S
C925 C921 1.495 . S
C925 H931 0.959 . S
C925 H932 0.961 1_556 S
C925 H933 0.960 . S
C926 C924 1.381 . S
C926 C927 1.394 . S
C926 H934 0.930 1_554 S
C927 C926 1.394 . S
C927 C928 1.383 . S
C927 H935 0.929 . S
C928 C927 1.383 . S
C928 C929 1.377 . S
C929 H913 0.930 . S
C929 C928 1.377 . S
C929 C930 1.379 . S
C930 H914 0.931 . S
C930 C924 1.383 . S
C930 C929 1.379 . S
H931 C925 0.959 . S
H932 C925 0.961 1_554 S
H933 C925 0.960 . S
H934 C926 0.930 1_556 S
H935 C927 0.929 . S
H936 C944 0.929 . S
H937 C946 0.930 . S
H938 C948 0.930 . S
H939 C951 0.929 . S
H940 C954 0.930 . S
H941 C956 0.960 . S
H942 C956 0.960 . S
H943 C956 0.960 . S
C944 H936 0.929 . S
C944 C945 1.377 . S
C944 C946 1.384 . S
C945 C944 1.377 . S
C945 C951 1.390 . S
C946 H937 0.930 . S
C946 C944 1.384 . S
C946 C947 1.372 . S
C947 C946 1.372 . S
C947 C948 1.400 . S
C947 C952 1.490 . S
C948 H938 0.930 . S
C948 C947 1.400 . S
C948 C951 1.386 . S
H949 C965 0.930 . S
H950 C966 0.931 . S
C951 H939 0.929 . S
C951 C945 1.390 . S
C951 C948 1.386 . S
C952 C947 1.490 . S
C952 C954 1.395 . S
C952 C955 1.403 . S
H953 C959 0.930 . S
C954 H940 0.930 . S
C954 C952 1.395 . S
C954 C957 1.403 . S
C955 C952 1.403 . S
C955 C956 1.524 . S
C955 C959 1.400 . S
C956 H941 0.960 . S
C956 H942 0.960 . S
C956 H943 0.960 . S
C956 C955 1.524 . S
C957 C954 1.403 . S
C957 C958 1.392 . S
C957 C961 1.495 . S
C958 C957 1.392 . S
C958 C959 1.385 . S
C958 C960 1.478 . S
C959 H953 0.930 . S
C959 C955 1.400 . S
C959 C958 1.385 . S
C960 C958 1.478 . S
C960 C962 1.381 . S
C960 C966 1.383 . S
C961 C957 1.495 . S
C961 H967 0.959 . S
C961 H968 0.961 . S
C961 H969 0.960 . S
C962 C960 1.381 . S
C962 C963 1.394 . S
C962 H970 0.930 . S
C963 C962 1.394 . S
C963 C964 1.383 . S
C963 H971 0.929 . S
C964 C963 1.383 . S
C964 C965 1.377 . S
C965 H949 0.930 . S
C965 C964 1.377 . S
C965 C966 1.379 . S
C966 H950 0.931 . S
C966 C960 1.383 . S
C966 C965 1.379 . S
H967 C961 0.959 . S
H968 C961 0.961 . S
H969 C961 0.960 . S
H970 C962 0.930 . S
H971 C963 0.929 . S
H972 C980 0.929 . S
H973 C982 0.930 . S
H974 C984 0.930 . S
H975 C987 0.929 . S
H976 C990 0.930 . S
H977 C992 0.960 . S
H978 C992 0.960 . S
H979 C992 0.960 . S
C980 H972 0.929 . S
C980 C981 1.377 . S
C980 C982 1.384 . S
C981 C980 1.377 . S
C981 C987 1.390 . S
C982 H973 0.930 . S
C982 C980 1.384 . S
C982 C983 1.372 . S
C983 C982 1.372 . S
C983 C984 1.400 . S
C983 C988 1.490 . S
C984 H974 0.930 . S
C984 C983 1.400 . S
C984 C987 1.386 . S
H985 C1001 0.930 . S
H986 C1002 0.931 . S
C987 H975 0.929 . S
C987 C981 1.390 . S
C987 C984 1.386 . S
C988 C983 1.490 . S
C988 C990 1.395 . S
C988 C991 1.403 . S
H989 C995 0.930 . S
C990 H976 0.930 . S
C990 C988 1.395 . S
C990 C993 1.403 . S
C991 C988 1.403 . S
C991 C992 1.524 . S
C991 C995 1.400 . S
C992 H977 0.960 . S
C992 H978 0.960 . S
C992 H979 0.960 . S
C992 C991 1.524 . S
C993 C990 1.403 . S
C993 C994 1.392 . S
C993 C997 1.495 . S
C994 C993 1.392 . S
C994 C995 1.385 . S
C994 C996 1.478 . S
C995 H989 0.930 . S
C995 C991 1.400 . S
C995 C994 1.385 . S
C996 C994 1.478 . S
C996 C998 1.381 . S
C996 C1002 1.383 . S
C997 C993 1.495 . S
C997 H1003 0.959 . S
C997 H1004 0.961 . S
C997 H1005 0.960 . S
C998 C996 1.381 . S
C998 C999 1.394 . S
C998 H1006 0.930 . S
C999 C998 1.394 . S
C999 C1000 1.383 . S
C999 H1007 0.929 . S
C1000 C999 1.383 . S
C1000 C1001 1.377 . S
C1001 H985 0.930 . S
C1001 C1000 1.377 . S
C1001 C1002 1.379 . S
C1002 H986 0.931 . S
C1002 C996 1.383 . S
C1002 C1001 1.379 . S
H1003 C997 0.959 . S
H1004 C997 0.961 . S
H1005 C997 0.960 . S
H1006 C998 0.930 . S
H1007 C999 0.929 . S
H1008 C1016 0.929 . S
H1009 C1018 0.930 . S
H1010 C1020 0.930 . S
H1011 C1023 0.929 . S
H1012 C1026 0.930 . S
H1013 C1028 0.960 . S
H1014 C1028 0.960 . S
H1015 C1028 0.960 . S
C1016 H1008 0.929 . S
C1016 C1017 1.377 . S
C1016 C1018 1.384 . S
C1017 C1016 1.377 . S
C1017 C1023 1.390 . S
C1018 H1009 0.930 . S
C1018 C1016 1.384 . S
C1018 C1019 1.372 . S
C1019 C1018 1.372 . S
C1019 C1020 1.400 . S
C1019 C1024 1.490 . S
C1020 H1010 0.930 . S
C1020 C1019 1.400 . S
C1020 C1023 1.386 . S
H1021 C1037 0.930 . S
H1022 C1038 0.931 . S
C1023 H1011 0.929 . S
C1023 C1017 1.390 . S
C1023 C1020 1.386 . S
C1024 C1019 1.490 . S
C1024 C1026 1.395 . S
C1024 C1027 1.403 . S
H1025 C1031 0.930 . S
C1026 H1012 0.930 . S
C1026 C1024 1.395 . S
C1026 C1029 1.403 . S
C1027 C1024 1.403 . S
C1027 C1028 1.524 . S
C1027 C1031 1.400 . S
C1028 H1013 0.960 . S
C1028 H1014 0.960 . S
C1028 H1015 0.960 . S
C1028 C1027 1.524 . S
C1029 C1026 1.403 . S
C1029 C1030 1.392 . S
C1029 C1033 1.495 . S
C1030 C1029 1.392 . S
C1030 C1031 1.385 . S
C1030 C1032 1.478 . S
C1031 H1025 0.930 . S
C1031 C1027 1.400 . S
C1031 C1030 1.385 . S
C1032 C1030 1.478 . S
C1032 C1034 1.381 . S
C1032 C1038 1.383 . S
C1033 C1029 1.495 . S
C1033 H1039 0.959 . S
C1033 H1040 0.961 . S
C1033 H1041 0.960 . S
C1034 C1032 1.381 . S
C1034 C1035 1.394 . S
C1034 H1042 0.930 . S
C1035 C1034 1.394 . S
C1035 C1036 1.383 . S
C1035 H1043 0.929 . S
C1036 C1035 1.383 . S
C1036 C1037 1.377 . S
C1037 H1021 0.930 . S
C1037 C1036 1.377 . S
C1037 C1038 1.379 . S
C1038 H1022 0.931 . S
C1038 C1032 1.383 . S
C1038 C1037 1.379 . S
H1039 C1033 0.959 . S
H1040 C1033 0.961 . S
H1041 C1033 0.960 . S
H1042 C1034 0.930 . S
H1043 C1035 0.929 . S
H1044 C1052 0.929 . S
H1045 C1054 0.930 . S
H1046 C1056 0.930 . S
H1047 C1059 0.929 . S
H1048 C1062 0.930 . S
H1049 C1064 0.960 . S
H1050 C1064 0.960 . S
H1051 C1064 0.960 . S
C1052 H1044 0.929 . S
C1052 C1053 1.377 . S
C1052 C1054 1.384 . S
C1053 C1052 1.377 . S
C1053 C1059 1.390 . S
C1054 H1045 0.930 . S
C1054 C1052 1.384 . S
C1054 C1055 1.372 . S
C1055 C1054 1.372 . S
C1055 C1056 1.400 . S
C1055 C1060 1.490 . S
C1056 H1046 0.930 . S
C1056 C1055 1.400 . S
C1056 C1059 1.386 . S
H1057 C1073 0.930 . S
H1058 C1074 0.931 . S
C1059 H1047 0.929 . S
C1059 C1053 1.390 . S
C1059 C1056 1.386 . S
C1060 C1055 1.490 . S
C1060 C1062 1.395 . S
C1060 C1063 1.403 . S
H1061 C1067 0.930 . S
C1062 H1048 0.930 . S
C1062 C1060 1.395 . S
C1062 C1065 1.403 . S
C1063 C1060 1.403 . S
C1063 C1064 1.524 . S
C1063 C1067 1.400 . S
C1064 H1049 0.960 . S
C1064 H1050 0.960 . S
C1064 H1051 0.960 . S
C1064 C1063 1.524 . S
C1065 C1062 1.403 . S
C1065 C1066 1.392 . S
C1065 C1069 1.495 . S
C1066 C1065 1.392 . S
C1066 C1067 1.385 . S
C1066 C1068 1.478 . S
C1067 H1061 0.930 . S
C1067 C1063 1.400 . S
C1067 C1066 1.385 . S
C1068 C1066 1.478 . S
C1068 C1070 1.381 . S
C1068 C1074 1.383 . S
C1069 C1065 1.495 . S
C1069 H1075 0.959 . S
C1069 H1076 0.961 . S
C1069 H1077 0.960 . S
C1070 C1068 1.381 . S
C1070 C1071 1.394 . S
C1070 H1078 0.930 . S
C1071 C1070 1.394 . S
C1071 C1072 1.383 . S
C1071 H1079 0.929 . S
C1072 C1071 1.383 . S
C1072 C1073 1.377 . S
C1073 H1057 0.930 . S
C1073 C1072 1.377 . S
C1073 C1074 1.379 . S
C1074 H1058 0.931 . S
C1074 C1068 1.383 . S
C1074 C1073 1.379 . S
H1075 C1069 0.959 . S
H1076 C1069 0.961 . S
H1077 C1069 0.960 . S
H1078 C1070 0.930 . S
H1079 C1071 0.929 . S
H1080 C1088 0.929 . S
H1081 C1090 0.930 . S
H1082 C1092 0.930 . S
H1083 C1095 0.929 . S
H1084 C1098 0.930 . S
H1085 C1100 0.960 . S
H1086 C1100 0.960 . S
H1087 C1100 0.960 . S
C1088 H1080 0.929 . S
C1088 C1089 1.377 . S
C1088 C1090 1.384 . S
C1089 C1088 1.377 . S
C1089 C1095 1.390 . S
C1090 H1081 0.930 . S
C1090 C1088 1.384 . S
C1090 C1091 1.372 . S
C1091 C1090 1.372 . S
C1091 C1092 1.400 . S
C1091 C1096 1.490 . S
C1092 H1082 0.930 . S
C1092 C1091 1.400 . S
C1092 C1095 1.386 . S
H1093 C1109 0.930 . S
H1094 C1110 0.931 . S
C1095 H1083 0.929 . S
C1095 C1089 1.390 . S
C1095 C1092 1.386 . S
C1096 C1091 1.490 . S
C1096 C1098 1.395 . S
C1096 C1099 1.403 . S
H1097 C1103 0.930 . S
C1098 H1084 0.930 . S
C1098 C1096 1.395 . S
C1098 C1101 1.403 . S
C1099 C1096 1.403 . S
C1099 C1100 1.524 . S
C1099 C1103 1.400 . S
C1100 H1085 0.960 . S
C1100 H1086 0.960 . S
C1100 H1087 0.960 . S
C1100 C1099 1.524 . S
C1101 C1098 1.403 . S
C1101 C1102 1.392 . S
C1101 C1105 1.495 . S
C1102 C1101 1.392 . S
C1102 C1103 1.385 . S
C1102 C1104 1.478 . S
C1103 H1097 0.930 . S
C1103 C1099 1.400 . S
C1103 C1102 1.385 . S
C1104 C1102 1.478 . S
C1104 C1106 1.381 . S
C1104 C1110 1.383 . S
C1105 C1101 1.495 . S
C1105 H1111 0.959 . S
C1105 H1112 0.961 . S
C1105 H1113 0.960 . S
C1106 C1104 1.381 . S
C1106 C1107 1.394 . S
C1106 H1114 0.930 . S
C1107 C1106 1.394 . S
C1107 C1108 1.383 . S
C1107 H1115 0.929 . S
C1108 C1107 1.383 . S
C1108 C1109 1.377 . S
C1109 H1093 0.930 . S
C1109 C1108 1.377 . S
C1109 C1110 1.379 . S
C1110 H1094 0.931 . S
C1110 C1104 1.383 . S
C1110 C1109 1.379 . S
H1111 C1105 0.959 . S
H1112 C1105 0.961 . S
H1113 C1105 0.960 . S
H1114 C1106 0.930 . S
H1115 C1107 0.929 . S
H1116 C1124 0.929 . S
H1117 C1126 0.930 . S
H1118 C1128 0.930 . S
H1119 C1131 0.929 . S
H1120 C1134 0.930 . S
H1121 C1136 0.960 . S
H1122 C1136 0.960 . S
H1123 C1136 0.960 . S
C1124 H1116 0.929 . S
C1124 C1125 1.377 . S
C1124 C1126 1.384 . S
C1125 C1124 1.377 . S
C1125 C1131 1.390 . S
C1126 H1117 0.930 . S
C1126 C1124 1.384 . S
C1126 C1127 1.372 . S
C1127 C1126 1.372 . S
C1127 C1128 1.400 . S
C1127 C1132 1.490 . S
C1128 H1118 0.930 . S
C1128 C1127 1.400 . S
C1128 C1131 1.386 . S
H1129 C1145 0.930 . S
H1130 C1146 0.931 . S
C1131 H1119 0.929 . S
C1131 C1125 1.390 . S
C1131 C1128 1.386 . S
C1132 C1127 1.490 . S
C1132 C1134 1.395 . S
C1132 C1135 1.403 . S
H1133 C1139 0.930 . S
C1134 H1120 0.930 . S
C1134 C1132 1.395 . S
C1134 C1137 1.403 . S
C1135 C1132 1.403 . S
C1135 C1136 1.524 . S
C1135 C1139 1.400 . S
C1136 H1121 0.960 . S
C1136 H1122 0.960 . S
C1136 H1123 0.960 . S
C1136 C1135 1.524 . S
C1137 C1134 1.403 . S
C1137 C1138 1.392 . S
C1137 C1141 1.495 . S
C1138 C1137 1.392 . S
C1138 C1139 1.385 . S
C1138 C1140 1.478 . S
C1139 H1133 0.930 . S
C1139 C1135 1.400 . S
C1139 C1138 1.385 . S
C1140 C1138 1.478 . S
C1140 C1142 1.381 . S
C1140 C1146 1.383 . S
C1141 C1137 1.495 . S
C1141 H1147 0.959 . S
C1141 H1148 0.961 . S
C1141 H1149 0.960 . S
C1142 C1140 1.381 . S
C1142 C1143 1.394 . S
C1142 H1150 0.930 . S
C1143 C1142 1.394 . S
C1143 C1144 1.383 . S
C1143 H1151 0.929 . S
C1144 C1143 1.383 . S
C1144 C1145 1.377 . S
C1145 H1129 0.930 . S
C1145 C1144 1.377 . S
C1145 C1146 1.379 . S
C1146 H1130 0.931 . S
C1146 C1140 1.383 . S
C1146 C1145 1.379 . S
H1147 C1141 0.959 . S
H1148 C1141 0.961 . S
H1149 C1141 0.960 . S
H1150 C1142 0.930 . S
H1151 C1143 0.929 . S
H1152 C1160 0.929 . S
H1153 C1162 0.930 . S
H1154 C1164 0.930 . S
H1155 C1167 0.929 . S
H1156 C1170 0.930 . S
H1157 C1172 0.960 1_556 S
H1158 C1172 0.960 . S
H1159 C1172 0.960 . S
C1160 H1152 0.929 . S
C1160 C1161 1.377 . S
C1160 C1162 1.384 . S
C1161 C1160 1.377 . S
C1161 C1167 1.390 . S
C1162 H1153 0.930 . S
C1162 C1160 1.384 . S
C1162 C1163 1.372 . S
C1163 C1162 1.372 . S
C1163 C1164 1.400 . S
C1163 C1168 1.490 . S
C1164 H1154 0.930 . S
C1164 C1163 1.400 . S
C1164 C1167 1.386 . S
H1165 C1181 0.930 . S
H1166 C1182 0.931 . S
C1167 H1155 0.929 . S
C1167 C1161 1.390 . S
C1167 C1164 1.386 . S
C1168 C1163 1.490 . S
C1168 C1170 1.395 . S
C1168 C1171 1.403 . S
H1169 C1175 0.947 . S
C1170 H1156 0.930 . S
C1170 C1168 1.395 . S
C1170 C1173 1.403 . S
C1171 C1168 1.403 . S
C1171 C1172 1.524 . S
C1171 C1175 1.387 1_554 S
C1172 H1157 0.960 1_554 S
C1172 H1158 0.960 . S
C1172 H1159 0.960 . S
C1172 C1171 1.524 . S
C1173 C1170 1.403 . S
C1173 C1174 1.392 . S
C1173 C1177 1.495 . S
C1174 C1173 1.392 . S
C1174 C1175 1.383 1_554 S
C1174 C1176 1.478 1_554 S
C1175 H1169 0.947 . S
C1175 C1171 1.387 1_556 S
C1175 C1174 1.383 1_556 S
C1176 C1174 1.478 1_556 S
C1176 C1178 1.381 . S
C1176 C1182 1.383 . S
C1177 C1173 1.495 . S
C1177 H1183 0.959 . S
C1177 H1184 0.961 . S
C1177 H1185 0.960 . S
C1178 C1176 1.381 . S
C1178 C1179 1.394 . S
C1178 H1186 0.897 1_556 S
C1179 C1178 1.394 . S
C1179 C1180 1.383 . S
C1179 H1187 0.929 . S
C1180 C1179 1.383 . S
C1180 C1181 1.377 . S
C1181 H1165 0.930 . S
C1181 C1180 1.377 . S
C1181 C1182 1.379 . S
C1182 H1166 0.931 . S
C1182 C1176 1.383 . S
C1182 C1181 1.379 . S
H1183 C1177 0.959 . S
H1184 C1177 0.961 . S
H1185 C1177 0.960 . S
H1186 C1178 0.897 1_554 S
H1187 C1179 0.929 . S
H1188 C1196 0.929 . S
H1189 C1198 0.930 . S
H1190 C1200 0.930 . S
H1191 C1203 0.929 . S
H1192 C1206 0.930 . S
H1193 C1208 0.960 . S
H1194 C1208 0.960 . S
H1195 C1208 0.960 . S
C1196 H1188 0.929 . S
C1196 C1197 1.377 . S
C1196 C1198 1.384 . S
C1197 C1196 1.377 . S
C1197 C1203 1.390 . S
C1198 H1189 0.930 . S
C1198 C1196 1.384 . S
C1198 C1199 1.372 . S
C1199 C1198 1.372 . S
C1199 C1200 1.400 . S
C1199 C1204 1.490 . S
C1200 H1190 0.930 . S
C1200 C1199 1.400 . S
C1200 C1203 1.386 . S
H1201 C1217 0.930 . S
H1202 C1218 0.931 . S
C1203 H1191 0.929 . S
C1203 C1197 1.390 . S
C1203 C1200 1.386 . S
C1204 C1199 1.490 . S
C1204 C1206 1.395 . S
C1204 C1207 1.403 . S
H1205 C1211 0.930 . S
C1206 H1192 0.930 . S
C1206 C1204 1.395 . S
C1206 C1209 1.403 . S
C1207 C1204 1.403 . S
C1207 C1208 1.524 . S
C1207 C1211 1.400 . S
C1208 H1193 0.960 . S
C1208 H1194 0.960 . S
C1208 H1195 0.960 . S
C1208 C1207 1.524 . S
C1209 C1206 1.403 . S
C1209 C1210 1.392 . S
C1209 C1213 1.495 . S
C1210 C1209 1.392 . S
C1210 C1211 1.385 . S
C1210 C1212 1.478 . S
C1211 H1205 0.930 . S
C1211 C1207 1.400 . S
C1211 C1210 1.385 . S
C1212 C1210 1.478 . S
C1212 C1214 1.381 . S
C1212 C1218 1.383 . S
C1213 C1209 1.495 . S
C1213 H1219 0.959 . S
C1213 H1220 0.961 . S
C1213 H1221 0.960 . S
C1214 C1212 1.381 . S
C1214 C1215 1.394 . S
C1214 H1222 0.930 . S
C1215 C1214 1.394 . S
C1215 C1216 1.383 . S
C1215 H1223 0.929 . S
C1216 C1215 1.383 . S
C1216 C1217 1.377 . S
C1217 H1201 0.930 . S
C1217 C1216 1.377 . S
C1217 C1218 1.379 . S
C1218 H1202 0.931 . S
C1218 C1212 1.383 . S
C1218 C1217 1.379 . S
H1219 C1213 0.959 . S
H1220 C1213 0.961 . S
H1221 C1213 0.960 . S
H1222 C1214 0.930 . S
H1223 C1215 0.929 . S
C388 C353 1.573 . S
C369 C15 1.569 . S
C405 C61 1.452 . S
C424 C282 1.406 . S
C441 C114 1.567 . S
C460 C296 1.584 . S
C477 C139 1.451 . S
C496 C310 1.423 . S
C532 C324 1.583 . S
C513 C185 1.581 . S
C549 C245 1.448 . S
C568 C339 1.433 . S
C585 C47 1.449 . S
C604 C297 1.441 . S
C621 C100 1.581 . S
C640 C311 1.563 . S
C657 C153 1.449 . S
C676 C325 1.405 . S
C712 C338 1.585 . S
C693 C199 1.567 . S
C748 C352 1.398 . S
C729 C231 1.449 . S
C784 C283 1.573 . S
C765 C1 1.582 . S
C801 C22 1.467 . S
C820 C299 1.458 . S
C837 C68 1.700 . S
C856 C313 1.703 . S
C892 C327 1.437 . S
C873 C107 1.466 . S
C909 C146 1.708 . S
C928 C340 1.666 . S
C964 C354 1.466 . S
C945 C192 1.468 . S
C1000 C285 1.694 . S
C981 C252 1.701 . S
C1036 C355 1.676 . S
C1017 C54 1.710 . S
C1053 C93 1.466 . S
C1072 C284 1.437 . S
C1108 C298 1.681 . S
C1089 C160 1.699 . S
C1125 C206 1.468 . S
C1144 C312 1.465 . S
C1161 C238 1.708 . S
C1180 C326 1.673 . S
C1197 C8 1.469 . S
C1216 C341 1.452 . S
