# Generated by pormake.
# Topology pth, (4,4)-cn, num edge types: 1
# Building blocks:
#     Node 0, Type 0, BuildingBlock: KUFVIS_clean_sbu_0, # of connection points: 4
#     Node 1, Type 0, BuildingBlock: KUFVIS_clean_sbu_0, # of connection points: 4
#     Node 2, Type 0, BuildingBlock: KUFVIS_clean_sbu_0, # of connection points: 4
#     Node 3, Type 1, BuildingBlock: MIFKUJ_clean_linker_1, # of connection points: 4
#     Node 4, Type 1, BuildingBlock: MIFKUJ_clean_linker_1, # of connection points: 4
#     Node 5, Type 1, BuildingBlock: MIFKUJ_clean_linker_1, # of connection points: 4
#     Edge 6, Type (0, 1), BuildingBlock: AJUNOK_clean_linker_0, # of connection points: 2
#     Edge 7, Type (0, 1), BuildingBlock: AJUNOK_clean_linker_0, # of connection points: 2
#     Edge 8, Type (0, 1), BuildingBlock: AJUNOK_clean_linker_0, # of connection points: 2
#     Edge 9, Type (0, 1), BuildingBlock: AJUNOK_clean_linker_0, # of connection points: 2
#     Edge 10, Type (0, 1), BuildingBlock: AJUNOK_clean_linker_0, # of connection points: 2
#     Edge 11, Type (0, 1), BuildingBlock: AJUNOK_clean_linker_0, # of connection points: 2
#     Edge 12, Type (0, 1), BuildingBlock: AJUNOK_clean_linker_0, # of connection points: 2
#     Edge 13, Type (0, 1), BuildingBlock: AJUNOK_clean_linker_0, # of connection points: 2
#     Edge 14, Type (0, 1), BuildingBlock: AJUNOK_clean_linker_0, # of connection points: 2
#     Edge 15, Type (0, 1), BuildingBlock: AJUNOK_clean_linker_0, # of connection points: 2
#     Edge 16, Type (0, 1), BuildingBlock: AJUNOK_clean_linker_0, # of connection points: 2
#     Edge 17, Type (0, 1), BuildingBlock: AJUNOK_clean_linker_0, # of connection points: 2
# Relax obj value: 0.017
# Max RMSD: 0.085
# Mean RMSD: 0.063
data_MOF--net-pth--node1-KUFVIS_clean_sbu_0--node2-MIFKUJ_clean_linker_1--edge1-AJUNOK_clean_linker_0
_symmetry_space_group_name_H-M    P1
_symmetry_Int_Tables_number       1
_symmetry_cell_setting            triclinic
loop_
_symmetry_equiv_pos_as_xyz
'x, y, z'
_cell_length_a     22.591581
_cell_length_b     22.589456
_cell_length_c     49.828084
_cell_angle_alpha  90.372841
_cell_angle_beta   91.83465
_cell_angle_gamma 119.91249
loop_
_atom_site_label
_atom_site_type_symbol
_atom_site_fract_x
_atom_site_fract_y
_atom_site_fract_z
_atom_type_partial_charge
Mn0 Mn 0.05011 0.06498 0.04492 0.0
Mn1 Mn 0.95423 0.12087 0.01248 0.0
C2 C 0.97544 1.00078 0.00984 0.0
C3 C 0.065 1.00416 0.07952 0.0
C4 C 0.10448 0.17583 1.00287 0.0
O5 O 0.05746 0.13944 0.07052 0.0
O6 O 0.98743 0.16806 0.04819 0.0
C7 C 0.83839 0.06458 0.04889 0.0
N8 N 0.86234 0.06911 0.02381 0.0
C9 C 0.74916 0.99269 1.00531 0.0
C10 C 0.72322 0.98786 0.03089 0.0
C11 C 0.76809 0.02373 0.05279 0.0
C12 C 0.8197 0.0341 1.00267 0.0
H13 H 0.87269 0.0917 0.06582 0.0
C14 C 0.02643 0.17358 0.06846 0.0
O15 O 0.11686 0.05117 0.06726 0.0
O16 O 1.00504 0.99453 0.07247 0.0
N17 N 0.91766 0.07902 0.97781 0.0
C18 C 0.95054 0.0902 0.95434 0.0
C19 C 0.91306 0.05731 0.93054 0.0
C20 C 0.84194 0.01434 0.93101 0.0
C21 C 0.80887 1.00541 0.95522 0.0
C22 C 0.84893 0.03967 0.97828 0.0
H23 H 1.00485 0.12417 0.95376 0.0
O24 O 0.02565 0.99136 0.01712 0.0
O25 O 0.96968 0.04659 0.02358 0.0
O26 O 0.11356 0.13746 0.01913 0.0
O27 O 0.04781 0.17499 0.99911 0.0
C28 C 0.73771 0.96396 0.95737 0.0
C29 C 0.7079 0.95734 0.98242 0.0
H30 H 0.66905 0.95627 0.034 0.0
H31 H 0.74854 0.01982 0.07264 0.0
H32 H 0.93893 0.06522 0.91187 0.0
H33 H 0.8132 0.98879 0.91264 0.0
H34 H 0.70546 0.93674 0.93988 0.0
H35 H 0.65319 0.9248 0.98386 0.0
Mn36 Mn 0.02676 0.05877 0.3787 0.0
Mn37 Mn 0.11608 0.20352 0.41627 0.0
C38 C 0.0964 0.06335 0.41443 0.0
C39 C 0.01896 0.98883 0.34247 0.0
C40 C 0.96628 0.10494 0.4233 0.0
O41 O 0.02371 0.1293 0.35456 0.0
O42 O 0.07848 0.22137 0.38243 0.0
C43 C 0.22871 0.27431 0.37893 0.0
N44 N 0.20718 0.24967 0.40377 0.0
C45 C 0.32254 0.28828 0.41997 0.0
C46 C 0.34592 0.31441 0.39461 0.0
C47 C 0.29876 0.30721 0.37399 0.0
C48 C 0.2521 0.25584 0.42369 0.0
H49 H 0.19275 0.26884 0.36297 0.0
C50 C 0.04599 0.19218 0.3603 0.0
O51 O 0.96436 0.9821 0.35327 0.0
O52 O 0.07709 0.03776 0.35198 0.0
N53 N 0.15666 0.19506 0.44933 0.0
C54 C 0.126 0.16725 0.47269 0.0
C55 C 0.16609 0.16988 0.49529 0.0
C56 C 0.23739 0.20163 0.49374 0.0
C57 C 0.26798 0.23116 0.46967 0.0
C58 C 0.22542 0.22738 0.44787 0.0
H59 H 0.07135 0.1425 0.47394 0.0
O60 O 0.04631 1.00514 0.4056 0.0
O61 O 0.10423 0.11721 0.40211 0.0
O62 O 0.95882 0.06478 0.40363 0.0
O63 O 0.02342 0.15718 0.43061 0.0
C64 C 0.33906 0.26411 0.46646 0.0
C65 C 0.3663 0.2924 0.44159 0.0
H66 H 0.3999 0.33969 0.3907 0.0
H67 H 0.31636 0.32694 0.35432 0.0
H68 H 0.14204 0.14711 0.51381 0.0
H69 H 0.26811 0.20303 0.51113 0.0
H70 H 0.37321 0.26775 0.48295 0.0
H71 H 0.42099 0.31708 0.43929 0.0
Mn72 Mn 0.0537 0.07179 0.71317 0.0
Mn73 Mn 0.99716 0.15795 0.75007 0.0
C74 C 0.11958 0.14097 0.74903 0.0
C75 C 0.11516 0.06604 0.67737 0.0
C76 C 0.9482 1.00789 0.75697 0.0
O77 O 0.97806 0.06783 0.68867 0.0
O78 O 0.94207 0.12281 0.71569 0.0
C79 C 0.03663 0.27396 0.71377 0.0
N80 N 0.04023 0.25022 0.73848 0.0
C81 C 0.11082 0.36455 0.7565 0.0
C82 C 0.10753 0.39022 0.73129 0.0
C83 C 0.07051 0.34469 0.70981 0.0
C84 C 0.07626 0.29355 0.75922 0.0
H85 H 1.00806 0.23921 0.69722 0.0
C86 C 0.93784 0.0904 0.69383 0.0
O87 O 0.06831 0.01092 0.68816 0.0
O88 O 0.12334 0.12354 0.6865 0.0
N89 N 0.04566 0.19574 0.78371 0.0
C90 C 0.04496 0.16277 0.8066 0.0
C91 C 0.08089 0.20099 0.82984 0.0
C92 C 0.11652 0.27267 0.82938 0.0
C93 C 0.11575 0.30551 0.8057 0.0
C94 C 0.07896 0.26473 0.78319 0.0
H95 H 0.01803 0.10776 0.80701 0.0
O96 O 0.12844 0.09185 0.74034 0.0
O97 O 0.07241 0.14842 0.73646 0.0
O98 O 0.98191 1.00201 0.738 0.0
O99 O 0.95171 0.0643 0.76365 0.0
C100 C 0.15016 0.37711 0.80353 0.0
C101 C 0.14788 0.4066 0.77893 0.0
H102 H 0.13366 0.44474 0.72815 0.0
H103 H 0.06798 0.3641 0.69026 0.0
H104 H 0.08129 0.17525 0.84803 0.0
H105 H 0.14435 0.30195 0.84732 0.0
H106 H 0.17873 0.41002 0.82062 0.0
H107 H 0.17511 0.46169 0.77744 0.0
H108 H 0.15394 0.53516 0.16983 0.0
H109 H 0.15134 0.44541 0.14101 0.0
H110 H 0.94858 0.30382 0.16642 0.0
H111 H 0.95095 0.39371 0.19498 0.0
H112 H 0.07092 0.58778 0.16427 0.0
H113 H 0.12615 0.47531 0.23243 0.0
H114 H 0.12129 0.38895 0.26316 0.0
H115 H 0.93038 0.35881 0.29198 0.0
H116 H 0.93417 0.44388 0.26078 0.0
H117 H 0.93065 0.61536 0.25528 0.0
H118 H 0.92264 0.70267 0.28155 0.0
H119 H 0.11672 0.85668 0.25255 0.0
H120 H 0.12731 0.7686 0.22845 0.0
H121 H 0.01798 0.57208 0.26065 0.0
H122 H 0.94913 0.6551 0.17909 0.0
H123 H 0.95722 0.74734 0.15119 0.0
H124 H 0.17734 0.83928 0.15351 0.0
H125 H 0.16785 0.74357 0.17943 0.0
C126 C 0.05278 0.47112 0.18466 0.0
C127 C 0.10935 0.4845 0.1695 0.0
C128 C 0.10808 0.43312 0.15324 0.0
C129 C 0.04994 0.36763 0.15167 0.0
C130 C 0.99408 0.35385 0.16736 0.0
C131 C 0.99554 0.40506 0.18375 0.0
C132 C 0.05122 0.52728 0.19971 0.0
C133 C 0.0603 0.58456 0.18546 0.0
C134 C 0.03585 0.52263 0.22723 0.0
C135 C 0.03035 0.4661 0.24413 0.0
C136 C 0.08234 0.44905 0.24485 0.0
C137 C 0.07974 0.39991 0.26247 0.0
C138 C 0.02576 0.36781 0.28002 0.0
C139 C 0.97291 0.38348 0.27884 0.0
C140 C 0.97513 0.43205 0.26104 0.0
C141 C 0.02897 0.68533 0.23936 0.0
C142 C 0.97135 0.66801 0.2545 0.0
C143 C 0.96632 0.71822 0.2692 0.0
C144 C 0.01846 0.78703 0.2688 0.0
C145 C 0.07554 0.80426 0.25328 0.0
C146 C 0.08117 0.75393 0.23908 0.0
C147 C 0.03613 0.63129 0.22507 0.0
C148 C 0.02831 0.57469 0.23945 0.0
C149 C 0.05251 0.63617 0.19773 0.0
C150 C 0.05784 0.69252 0.18111 0.0
C151 C 0.99896 0.69485 0.17326 0.0
C152 C 1.00385 0.748 0.15752 0.0
C153 C 0.06794 0.80067 0.14974 0.0
C154 C 0.12697 0.79862 0.15822 0.0
C155 C 0.12179 0.74431 0.17328 0.0
H156 H 0.64692 0.14821 0.4944 0.0
H157 H 0.7372 0.15328 0.467 0.0
H158 H 0.72392 0.97916 0.50745 0.0
H159 H 0.63081 0.97151 0.53404 0.0
H160 H 0.52255 0.06139 0.49607 0.0
H161 H 0.70843 0.14398 0.56212 0.0
H162 H 0.79773 0.14925 0.59307 0.0
H163 H 0.64906 0.96207 0.62862 0.0
H164 H 0.56018 0.95589 0.59738 0.0
H165 H 0.38254 0.95665 0.59627 0.0
H166 H 0.29577 0.96114 0.62305 0.0
H167 H 0.32775 0.14131 0.58144 0.0
H168 H 0.4179 0.13991 0.55643 0.0
H169 H 0.51356 0.04069 0.595 0.0
H170 H 0.33247 0.95316 0.52357 0.0
H171 H 0.24338 0.95574 0.49509 0.0
H172 H 0.38722 0.16292 0.47389 0.0
H173 H 0.47652 0.1584 0.50115 0.0
C174 C 0.63217 0.05983 0.51655 0.0
C175 C 0.66282 0.11062 0.49731 0.0
C176 C 0.71429 0.11357 0.48164 0.0
C177 C 0.7368 0.06636 0.48512 0.0
C178 C 0.70709 0.01602 0.5045 0.0
C179 C 0.65447 0.01215 0.51984 0.0
C180 C 0.57486 0.05543 0.53205 0.0
C181 C 0.52135 0.05757 0.51777 0.0
C182 C 0.57169 0.04852 0.56034 0.0
C183 C 0.62748 0.04934 0.57731 0.0
C184 C 0.69526 0.10324 0.57615 0.0
C185 C 0.74621 0.10636 0.59385 0.0
C186 C 0.72993 0.05635 0.61329 0.0
C187 C 0.66264 1.0016 0.61397 0.0
C188 C 0.61194 0.99811 0.59615 0.0
C189 C 0.40655 0.0475 0.57406 0.0
C190 C 0.37106 0.99729 0.593 0.0
C191 C 0.321 0.99952 0.60811 0.0
C192 C 0.30533 0.052 0.60459 0.0
C193 C 0.33959 0.10107 0.5851 0.0
C194 C 0.3904 0.09954 0.57038 0.0
C195 C 0.46223 0.04712 0.55896 0.0
C196 C 0.51508 0.04392 0.57329 0.0
C197 C 0.46546 0.05352 0.53079 0.0
C198 C 0.41097 0.05541 0.51425 0.0
C199 C 0.34462 0.9989 0.51264 0.0
C200 C 0.29379 1.00065 0.49649 0.0
C201 C 0.3084 0.05922 0.48189 0.0
C202 C 0.37467 0.1163 0.48417 0.0
C203 C 0.42569 0.11402 0.49988 0.0
H204 H 0.50177 0.40986 0.83567 0.0
H205 H 0.40777 0.31783 0.80836 0.0
H206 H 0.27119 0.38627 0.83432 0.0
H207 H 0.3646 0.47802 0.8616 0.0
H208 H 0.55352 0.55091 0.83057 0.0
H209 H 0.45574 0.38314 0.90035 0.0
H210 H 0.36299 0.29917 0.92692 0.0
H211 H 0.31203 0.45275 0.94976 0.0
H212 H 0.4064 0.53704 0.92386 0.0
H213 H 0.59087 0.71981 0.92351 0.0
H214 H 0.68104 0.81442 0.95054 0.0
H215 H 0.82678 0.75697 0.92482 0.0
H216 H 0.73665 0.66361 0.89722 0.0
H217 H 0.54509 0.58252 0.92877 0.0
H218 H 0.62388 0.7436 0.85875 0.0
H219 H 0.70825 0.83446 0.83174 0.0
H220 H 0.78795 0.70348 0.80894 0.0
H221 H 0.70094 0.61145 0.83523 0.0
C222 C 0.43993 0.45033 0.85077 0.0
C223 C 0.45142 0.40465 0.83563 0.0
C224 C 0.39798 0.35219 0.8202 0.0
C225 C 0.33281 0.34547 0.81952 0.0
C226 C 0.32114 0.39071 0.83476 0.0
C227 C 0.37431 0.44276 0.85033 0.0
C228 C 0.49696 0.50782 0.86616 0.0
C229 C 0.55247 0.55703 0.85214 0.0
C230 C 0.49411 0.51722 0.89408 0.0
C231 C 0.43756 0.46613 0.90998 0.0
C232 C 0.42434 0.39855 0.91099 0.0
C233 C 0.37103 0.35054 0.92604 0.0
C234 C 0.32944 0.36905 0.94011 0.0
C235 C 0.34328 0.43698 0.93922 0.0
C236 C 0.39703 0.48512 0.92439 0.0
C237 C 0.65712 0.68476 0.90841 0.0
C238 C 0.64236 0.72792 0.92361 0.0
C239 C 0.69388 0.78172 0.93915 0.0
C240 C 0.76089 0.79259 0.94014 0.0
C241 C 0.77578 0.75014 0.92438 0.0
C242 C 0.72434 0.69673 0.90865 0.0
C243 C 0.60173 0.62533 0.89322 0.0
C244 C 0.54659 0.57587 0.90727 0.0
C245 C 0.60427 0.61626 0.86528 0.0
C246 C 0.65647 0.67103 0.84906 0.0
C247 C 0.65948 0.73445 0.84789 0.0
C248 C 0.70787 0.78636 0.8325 0.0
C249 C 0.75473 0.77621 0.81805 0.0
C250 C 0.75168 0.71251 0.81931 0.0
C251 C 0.70245 0.6601 0.83449 0.0
C252 C 0.98356 0.24073 0.09297 0.0
C253 C 0.03362 0.22128 0.0907 0.0
C254 C 0.98874 0.2867 0.11311 0.0
C255 C 0.04456 0.31593 0.13171 0.0
H256 H 0.93971 0.22041 0.07902 0.0
H257 H 0.94937 0.30069 0.11373 0.0
S258 S 0.18889 0.28164 0.13529 0.0
N259 N 0.14045 0.23421 0.10942 0.0
N260 N 0.15025 0.3214 0.1472 0.0
C261 C 0.0948 0.29681 0.12997 0.0
C262 C 0.08921 0.2492 0.10957 0.0
C263 C 0.91161 0.09883 0.4668 0.0
C264 C 0.90576 0.09076 0.43862 0.0
C265 C 0.85592 0.08851 0.48178 0.0
C266 C 0.7929 0.07137 0.46904 0.0
H267 H 0.95948 0.1132 0.47744 0.0
H268 H 0.86269 0.09577 0.50341 0.0
S269 S 0.75065 0.04458 0.39591 0.0
N270 N 0.83136 0.06358 0.39866 0.0
N271 N 0.72714 0.04626 0.42684 0.0
C272 C 0.78605 0.06287 0.44096 0.0
C273 C 0.84235 0.07193 0.42573 0.0
C274 C 0.88755 0.95527 0.79886 0.0
C275 C 0.90224 0.94677 0.77234 0.0
C276 C 0.84153 0.89966 0.81358 0.0
C277 C 0.8071 0.83303 0.80233 0.0
H278 H 0.91145 1.00547 0.80842 0.0
H279 H 0.83245 0.90917 0.83396 0.0
S280 S 0.82549 0.78299 0.73331 0.0
N281 N 0.8786 0.86626 0.73535 0.0
N282 N 0.7901 0.76171 0.76277 0.0
C283 C 0.82162 0.82343 0.77589 0.0
C284 C 0.8695 0.88023 0.76096 0.0
C285 C 0.02882 0.93355 0.12048 0.0
C286 C 0.07232 0.95863 0.09882 0.0
C287 C 0.02951 0.88439 0.13733 0.0
C288 C 0.07244 0.85693 0.13275 0.0
H289 H 0.99352 0.95167 0.1243 0.0
H290 H 0.9954 0.86717 0.1539 0.0
S291 S 0.19355 0.90364 0.0775 0.0
N292 N 0.15936 0.95289 0.07347 0.0
N293 N 0.1582 0.85777 0.10407 0.0
C294 C 0.1165 0.88209 0.1111 0.0
C295 C 0.11695 0.93349 0.09439 0.0
C296 C 0.13617 0.03412 0.45689 0.0
C297 C 0.1508 0.06443 0.4317 0.0
C298 C 0.18756 0.03329 0.47315 0.0
C299 C 0.25469 0.0606 0.4643 0.0
H300 H 0.08509 0.01241 0.46431 0.0
H301 H 0.17473 0.01176 0.4929 0.0
S302 S 0.31429 0.13313 0.39731 0.0
N303 N 0.23388 0.11503 0.39717 0.0
N304 N 0.33004 0.11104 0.42706 0.0
C305 C 0.26862 0.08773 0.4384 0.0
C306 C 0.21663 0.08979 0.42218 0.0
C307 C 0.18988 0.17556 0.79188 0.0
C308 C 0.17181 0.19379 0.76732 0.0
C309 C 0.24185 0.22513 0.80897 0.0
C310 C 0.27793 0.29384 0.80164 0.0
H311 H 0.16305 0.1229 0.79803 0.0
H312 H 0.25392 0.20977 0.82798 0.0
S313 S 0.25842 0.3651 0.73747 0.0
N314 N 0.19963 0.28333 0.73511 0.0
N315 N 0.29682 0.3766 0.76738 0.0
C316 C 0.26215 0.31213 0.77673 0.0
C317 C 0.20936 0.26189 0.75941 0.0
C318 C 0.89359 0.076 0.64594 0.0
C319 C 0.88359 0.07955 0.67354 0.0
C320 C 0.84389 0.0688 0.62646 0.0
C321 C 0.78194 0.06344 0.63394 0.0
H322 H 0.94071 0.0802 0.63931 0.0
H323 H 0.85375 0.06701 0.60542 0.0
S324 S 0.72977 0.06821 0.70335 0.0
N325 N 0.80628 0.07619 0.70721 0.0
N326 N 0.71309 0.06203 0.67063 0.0
C327 C 0.77093 0.06603 0.6614 0.0
C328 C 0.82168 0.07426 0.68118 0.0
C329 C 0.93305 0.93926 0.96558 0.0
C330 C 0.92009 0.95012 0.99197 0.0
C331 C 0.88097 0.88903 0.94875 0.0
C332 C 0.81484 0.84673 0.95807 0.0
H333 H 0.9834 0.97055 0.9578 0.0
H334 H 0.89252 0.88353 0.92827 0.0
S335 S 0.75974 0.84751 0.02742 0.0
N336 N 0.83967 0.9107 0.02771 0.0
N337 N 0.74216 0.81471 0.99655 0.0
C338 C 0.80251 0.85549 0.98493 0.0
C339 C 0.85522 0.90728 1.00183 0.0
C340 C 0.07639 0.93568 0.31848 0.0
C341 C 0.01688 0.93949 0.32217 0.0
C342 C 0.07621 0.88683 0.30106 0.0
C343 C 0.01673 0.84002 0.28622 0.0
H344 H 0.12342 0.96949 0.32974 0.0
H345 H 0.12292 0.88476 0.29977 0.0
S346 S 0.8487 0.83238 0.28672 0.0
N347 N 0.89742 0.89433 0.30863 0.0
N348 N 0.89755 0.80362 0.27506 0.0
C349 C 0.95716 0.84442 0.2891 0.0
C350 C 0.95715 0.89389 0.30721 0.0
C351 C 0.14679 1.00217 0.6447 0.0
C352 C 0.16161 0.06422 0.65735 0.0
C353 C 0.19283 0.99874 0.62732 0.0
C354 C 0.25563 0.05715 0.62203 0.0
H355 H 0.09955 0.9557 0.64843 0.0
H356 H 0.17924 0.94988 0.61803 0.0
S357 S 0.32048 0.23149 0.65109 0.0
N358 N 0.24433 0.1854 0.66359 0.0
N359 N 0.33114 0.1784 0.63167 0.0
C360 C 0.27097 0.11951 0.63453 0.0
C361 C 0.22394 0.12317 0.65198 0.0
C362 C 0.209 0.28861 0.99745 0.0
C363 C 0.16238 0.22314 0.98705 0.0
C364 C 0.26311 0.33533 0.98219 0.0
C365 C 0.2722 0.31812 0.95599 0.0
H366 H 0.20336 0.30386 0.01744 0.0
H367 H 0.29827 0.38521 0.99104 0.0
S368 S 0.16218 0.1524 0.91978 0.0
N369 N 0.12843 0.1425 0.94948 0.0
N370 N 0.22827 0.23084 0.92026 0.0
C371 C 0.2255 0.2524 0.94547 0.0
C372 C 0.17094 0.20478 0.96114 0.0
C373 C 0.03653 0.22132 0.31246 0.0
C374 C 0.03632 0.23481 0.34008 0.0
C375 C 0.03262 0.26424 0.29306 0.0
C376 C 0.02686 0.3212 0.3006 0.0
H377 H 0.04174 0.17847 0.30578 0.0
H378 H 0.03429 0.25293 0.27203 0.0
S379 S 0.02112 0.37724 0.3701 0.0
N380 N 0.0281 0.30838 0.37385 0.0
N381 N 0.01995 0.38824 0.3374 0.0
C382 C 0.02492 0.33428 0.32806 0.0
C383 C 0.0299 0.29132 0.3478 0.0
loop_
_geom_bond_atom_site_label_1
_geom_bond_atom_site_label_2
_geom_bond_distance
_geom_bond_site_symmetry_2
_ccdc_geom_bond_type
Mn0 O5 2.095 . S
Mn0 O15 2.162 . S
Mn0 O16 2.294 1_445 S
Mn0 O24 2.385 1_545 S
Mn0 O25 2.209 1_455 S
Mn0 O26 2.094 . S
Mn1 O6 2.121 . S
Mn1 N8 2.257 . S
Mn1 N17 2.282 1_554 S
Mn1 O25 2.215 . S
Mn1 O27 2.117 1_654 S
C2 O24 1.236 1_655 S
C2 O25 1.283 1_565 S
C3 O15 1.281 1_565 S
C3 O16 1.223 1_455 S
C4 O26 1.265 . S
C4 O27 1.259 1_554 S
O5 Mn0 2.095 . S
O5 C14 1.250 . S
O6 Mn1 2.121 . S
O6 C14 1.258 1_655 S
C7 N8 1.326 . S
C7 C11 1.460 . S
C7 H13 0.929 . S
N8 Mn1 2.257 . S
N8 C7 1.326 . S
N8 C12 1.362 1_554 S
C9 C10 1.258 . S
C9 C12 1.431 . S
C9 C29 1.449 . S
C10 C9 1.258 . S
C10 C11 1.477 1_556 S
C10 H30 0.931 . S
C11 C7 1.460 . S
C11 C10 1.477 1_554 S
C11 H31 0.930 . S
C12 N8 1.362 1_556 S
C12 C9 1.431 . S
C12 C22 1.476 . S
H13 C7 0.929 . S
C14 O5 1.250 . S
C14 O6 1.258 1_455 S
O15 Mn0 2.162 . S
O15 C3 1.281 1_545 S
O16 Mn0 2.294 1_665 S
O16 C3 1.223 1_655 S
N17 Mn1 2.282 1_556 S
N17 C18 1.328 . S
N17 C22 1.318 . S
C18 N17 1.328 . S
C18 C19 1.457 . S
C18 H23 0.929 1_655 S
C19 C18 1.457 . S
C19 C20 1.291 . S
C19 H32 0.931 . S
C20 C19 1.291 . S
C20 C21 1.373 . S
C20 H33 0.929 . S
C21 C20 1.373 . S
C21 C22 1.396 . S
C21 C28 1.403 . S
C22 C12 1.476 . S
C22 N17 1.318 . S
C22 C21 1.396 . S
H23 C18 0.929 1_455 S
O24 Mn0 2.385 1_565 S
O24 C2 1.236 1_455 S
O25 Mn0 2.209 1_655 S
O25 Mn1 2.215 . S
O25 C2 1.283 1_545 S
O26 Mn0 2.094 . S
O26 C4 1.265 . S
O27 Mn1 2.117 1_456 S
O27 C4 1.259 1_556 S
C28 C21 1.403 . S
C28 C29 1.399 . S
C28 H34 0.929 . S
C29 C9 1.449 . S
C29 C28 1.399 . S
C29 H35 0.930 . S
H30 C10 0.931 . S
H31 C11 0.930 . S
H32 C19 0.931 . S
H33 C20 0.929 . S
H34 C28 0.929 . S
H35 C29 0.930 . S
Mn36 O41 2.095 . S
Mn36 O51 2.162 1_545 S
Mn36 O52 2.297 1_655 S
Mn36 O60 2.388 1_655 S
Mn36 O61 2.209 1_655 S
Mn36 O62 2.094 . S
Mn37 O42 2.121 . S
Mn37 N44 2.257 . S
Mn37 N53 2.282 . S
Mn37 O61 2.215 . S
Mn37 O63 2.117 1_455 S
C38 O60 1.237 . S
C38 O61 1.283 . S
C39 O51 1.281 1_455 S
C39 O52 1.236 1_565 S
C40 O62 1.240 . S
C40 O63 1.264 . S
O41 Mn36 2.095 . S
O41 C50 1.250 1_655 S
O42 Mn37 2.121 . S
O42 C50 1.258 . S
C43 N44 1.326 . S
C43 C47 1.460 . S
C43 H49 0.929 . S
N44 Mn37 2.257 . S
N44 C43 1.326 . S
N44 C48 1.362 . S
C45 C46 1.258 . S
C45 C48 1.431 . S
C45 C65 1.449 . S
C46 C45 1.258 . S
C46 C47 1.477 . S
C46 H66 0.931 . S
C47 C43 1.460 . S
C47 C46 1.477 . S
C47 H67 0.930 . S
C48 N44 1.362 . S
C48 C45 1.431 . S
C48 C58 1.476 . S
H49 C43 0.929 . S
C50 O41 1.250 1_455 S
C50 O42 1.258 . S
O51 Mn36 2.162 1_565 S
O51 C39 1.281 1_655 S
O52 Mn36 2.297 1_455 S
O52 C39 1.236 1_545 S
N53 Mn37 2.282 . S
N53 C54 1.328 . S
N53 C58 1.318 . S
C54 N53 1.328 . S
C54 C55 1.457 . S
C54 H59 0.929 . S
C55 C54 1.457 . S
C55 C56 1.291 . S
C55 H68 0.931 . S
C56 C55 1.291 . S
C56 C57 1.373 . S
C56 H69 0.929 . S
C57 C56 1.373 . S
C57 C58 1.396 . S
C57 C64 1.403 . S
C58 C48 1.476 . S
C58 N53 1.318 . S
C58 C57 1.396 . S
H59 C54 0.929 . S
O60 Mn36 2.388 1_455 S
O60 C38 1.237 . S
O61 Mn36 2.209 1_455 S
O61 Mn37 2.215 . S
O61 C38 1.283 . S
O62 Mn36 2.094 . S
O62 C40 1.240 . S
O63 Mn37 2.117 1_655 S
O63 C40 1.264 . S
C64 C57 1.403 . S
C64 C65 1.399 . S
C64 H70 0.929 . S
C65 C45 1.449 . S
C65 C64 1.399 . S
C65 H71 0.930 . S
H66 C46 0.931 . S
H67 C47 0.930 . S
H68 C55 0.931 . S
H69 C56 0.929 . S
H70 C64 0.929 . S
H71 C65 0.930 . S
Mn72 O77 2.095 1_455 S
Mn72 O87 2.162 1_545 S
Mn72 O88 2.297 . S
Mn72 O96 2.385 . S
Mn72 O97 2.209 . S
Mn72 O98 2.094 1_445 S
Mn73 O78 2.121 . S
Mn73 N80 2.257 . S
Mn73 N89 2.286 . S
Mn73 O97 2.215 1_655 S
Mn73 O99 2.117 . S
C74 O96 1.234 . S
C74 O97 1.283 . S
C75 O87 1.281 1_545 S
C75 O88 1.236 . S
C76 O98 1.240 . S
C76 O99 1.264 1_565 S
O77 Mn72 2.095 1_655 S
O77 C86 1.250 . S
O78 Mn73 2.121 . S
O78 C86 1.258 . S
C79 N80 1.326 . S
C79 C83 1.460 . S
C79 H85 0.929 . S
N80 Mn73 2.257 . S
N80 C79 1.326 . S
N80 C84 1.362 1_655 S
C81 C82 1.258 . S
C81 C84 1.431 . S
C81 C101 1.449 . S
C82 C81 1.258 . S
C82 C83 1.477 1_455 S
C82 H102 0.931 . S
C83 C79 1.460 . S
C83 C82 1.477 1_655 S
C83 H103 0.930 . S
C84 N80 1.362 1_455 S
C84 C81 1.431 . S
C84 C94 1.476 . S
H85 C79 0.929 . S
C86 O77 1.250 . S
C86 O78 1.258 . S
O87 Mn72 2.162 1_565 S
O87 C75 1.281 1_565 S
O88 Mn72 2.297 . S
O88 C75 1.236 . S
N89 Mn73 2.286 . S
N89 C90 1.320 1_655 S
N89 C94 1.321 1_655 S
C90 N89 1.320 1_455 S
C90 C91 1.457 . S
C90 H95 0.929 1_455 S
C91 C90 1.457 . S
C91 C92 1.291 . S
C91 H104 0.931 . S
C92 C91 1.291 . S
C92 C93 1.373 . S
C92 H105 0.929 . S
C93 C92 1.373 . S
C93 C94 1.396 . S
C93 C100 1.403 . S
C94 C84 1.476 . S
C94 N89 1.321 1_455 S
C94 C93 1.396 . S
H95 C90 0.929 1_655 S
O96 Mn72 2.385 . S
O96 C74 1.234 . S
O97 Mn72 2.209 . S
O97 Mn73 2.215 1_455 S
O97 C74 1.283 . S
O98 Mn72 2.094 1_665 S
O98 C76 1.240 . S
O99 Mn73 2.117 . S
O99 C76 1.264 1_545 S
C100 C93 1.403 . S
C100 C101 1.399 . S
C100 H106 0.929 . S
C101 C81 1.449 . S
C101 C100 1.399 . S
C101 H107 0.930 . S
H102 C82 0.931 . S
H103 C83 0.930 . S
H104 C91 0.931 . S
H105 C92 0.929 . S
H106 C100 0.929 . S
H107 C101 0.930 . S
H108 C127 0.949 . S
H109 C128 0.950 . S
H110 C130 0.950 . S
H111 C131 0.950 . S
H112 C133 0.950 . S
H113 C136 0.950 . S
H114 C137 0.950 . S
H115 C139 0.951 . S
H116 C140 0.949 . S
H117 C142 0.949 . S
H118 C143 0.950 . S
H119 C145 0.950 . S
H120 C146 0.950 . S
H121 C148 0.950 . S
H122 C151 0.950 . S
H123 C152 0.950 . S
H124 C154 0.951 . S
H125 C155 0.949 . S
C126 C127 1.376 . S
C126 C131 1.386 1_455 S
C126 C132 1.483 . S
C127 H108 0.949 . S
C127 C126 1.376 . S
C127 C128 1.397 . S
C128 H109 0.950 . S
C128 C127 1.397 . S
C128 C129 1.391 . S
C129 C128 1.391 . S
C129 C130 1.405 1_455 S
C130 H110 0.950 . S
C130 C129 1.405 1_655 S
C130 C131 1.367 . S
C131 H111 0.950 . S
C131 C126 1.386 1_655 S
C131 C130 1.367 . S
C132 C126 1.483 . S
C132 C133 1.382 . S
C132 C134 1.403 . S
C133 H112 0.950 . S
C133 C132 1.382 . S
C133 C149 1.411 . S
C134 C132 1.403 . S
C134 C135 1.489 . S
C134 C148 1.411 . S
C135 C134 1.489 . S
C135 C136 1.383 . S
C135 C140 1.382 1_455 S
C136 H113 0.950 . S
C136 C135 1.383 . S
C136 C137 1.395 . S
C137 H114 0.950 . S
C137 C136 1.395 . S
C137 C138 1.288 . S
C138 C137 1.288 . S
C138 C139 1.392 1_455 S
C139 H115 0.951 . S
C139 C138 1.392 1_655 S
C139 C140 1.392 . S
C140 H116 0.949 . S
C140 C135 1.382 1_655 S
C140 C139 1.392 . S
C141 C142 1.376 1_455 S
C141 C146 1.386 . S
C141 C147 1.483 . S
C142 H117 0.949 . S
C142 C141 1.376 1_655 S
C142 C143 1.397 . S
C143 H118 0.950 . S
C143 C142 1.397 . S
C143 C144 1.391 1_655 S
C144 C143 1.391 1_455 S
C144 C145 1.405 . S
C145 H119 0.950 . S
C145 C144 1.405 . S
C145 C146 1.367 . S
C146 H120 0.950 . S
C146 C141 1.386 . S
C146 C145 1.367 . S
C147 C141 1.483 . S
C147 C148 1.382 . S
C147 C149 1.403 . S
C148 H121 0.950 . S
C148 C134 1.411 . S
C148 C147 1.382 . S
C149 C133 1.411 . S
C149 C147 1.403 . S
C149 C150 1.489 . S
C150 C149 1.489 . S
C150 C151 1.383 1_455 S
C150 C155 1.382 . S
C151 H122 0.950 . S
C151 C150 1.383 1_655 S
C151 C152 1.395 . S
C152 H123 0.950 . S
C152 C151 1.395 . S
C152 C153 1.288 1_655 S
C153 C152 1.288 1_455 S
C153 C154 1.392 . S
C154 H124 0.951 . S
C154 C153 1.392 . S
C154 C155 1.392 . S
C155 H125 0.949 . S
C155 C150 1.382 . S
C155 C154 1.392 . S
H156 C175 0.949 . S
H157 C176 0.950 . S
H158 C178 0.950 1_565 S
H159 C179 0.950 1_565 S
H160 C181 0.950 . S
H161 C184 0.950 . S
H162 C185 0.950 . S
H163 C187 0.951 1_565 S
H164 C188 0.949 1_565 S
H165 C190 0.949 1_565 S
H166 C191 0.950 1_565 S
H167 C193 0.950 . S
H168 C194 0.950 . S
H169 C196 0.950 . S
H170 C199 0.950 . S
H171 C200 0.950 . S
H172 C202 0.951 . S
H173 C203 0.949 . S
C174 C175 1.376 . S
C174 C179 1.386 . S
C174 C180 1.483 . S
C175 H156 0.949 . S
C175 C174 1.376 . S
C175 C176 1.397 . S
C176 H157 0.950 . S
C176 C175 1.397 . S
C176 C177 1.391 . S
C177 C176 1.391 . S
C177 C178 1.405 . S
C178 H158 0.950 1_545 S
C178 C177 1.405 . S
C178 C179 1.367 . S
C179 H159 0.950 1_545 S
C179 C174 1.386 . S
C179 C178 1.367 . S
C180 C174 1.483 . S
C180 C181 1.382 . S
C180 C182 1.403 . S
C181 H160 0.950 . S
C181 C180 1.382 . S
C181 C197 1.411 . S
C182 C180 1.403 . S
C182 C183 1.489 . S
C182 C196 1.411 . S
C183 C182 1.489 . S
C183 C184 1.383 . S
C183 C188 1.382 . S
C184 H161 0.950 . S
C184 C183 1.383 . S
C184 C185 1.395 . S
C185 H162 0.950 . S
C185 C184 1.395 . S
C185 C186 1.288 . S
C186 C185 1.288 . S
C186 C187 1.392 . S
C187 H163 0.951 1_545 S
C187 C186 1.392 . S
C187 C188 1.392 . S
C188 H164 0.949 1_545 S
C188 C183 1.382 . S
C188 C187 1.392 . S
C189 C190 1.376 . S
C189 C194 1.386 . S
C189 C195 1.483 . S
C190 H165 0.949 1_545 S
C190 C189 1.376 . S
C190 C191 1.397 . S
C191 H166 0.950 1_545 S
C191 C190 1.397 . S
C191 C192 1.391 . S
C192 C191 1.391 . S
C192 C193 1.405 . S
C193 H167 0.950 . S
C193 C192 1.405 . S
C193 C194 1.367 . S
C194 H168 0.950 . S
C194 C189 1.386 . S
C194 C193 1.367 . S
C195 C189 1.483 . S
C195 C196 1.382 . S
C195 C197 1.403 . S
C196 H169 0.950 . S
C196 C182 1.411 . S
C196 C195 1.382 . S
C197 C181 1.411 . S
C197 C195 1.403 . S
C197 C198 1.489 . S
C198 C197 1.489 . S
C198 C199 1.383 . S
C198 C203 1.382 . S
C199 H170 0.950 . S
C199 C198 1.383 . S
C199 C200 1.395 . S
C200 H171 0.950 . S
C200 C199 1.395 . S
C200 C201 1.288 . S
C201 C200 1.288 . S
C201 C202 1.392 . S
C202 H172 0.951 . S
C202 C201 1.392 . S
C202 C203 1.392 . S
C203 H173 0.949 . S
C203 C198 1.382 . S
C203 C202 1.392 . S
H204 C223 0.949 . S
H205 C224 0.950 . S
H206 C226 0.950 . S
H207 C227 0.950 . S
H208 C229 0.950 . S
H209 C232 0.950 . S
H210 C233 0.950 . S
H211 C235 0.951 . S
H212 C236 0.949 . S
H213 C238 0.949 . S
H214 C239 0.950 . S
H215 C241 0.950 . S
H216 C242 0.950 . S
H217 C244 0.950 . S
H218 C247 0.950 . S
H219 C248 0.950 . S
H220 C250 0.951 . S
H221 C251 0.949 . S
C222 C223 1.376 . S
C222 C227 1.386 . S
C222 C228 1.483 . S
C223 H204 0.949 . S
C223 C222 1.376 . S
C223 C224 1.397 . S
C224 H205 0.950 . S
C224 C223 1.397 . S
C224 C225 1.391 . S
C225 C224 1.391 . S
C225 C226 1.405 . S
C226 H206 0.950 . S
C226 C225 1.405 . S
C226 C227 1.367 . S
C227 H207 0.950 . S
C227 C222 1.386 . S
C227 C226 1.367 . S
C228 C222 1.483 . S
C228 C229 1.382 . S
C228 C230 1.403 . S
C229 H208 0.950 . S
C229 C228 1.382 . S
C229 C245 1.411 . S
C230 C228 1.403 . S
C230 C231 1.489 . S
C230 C244 1.411 . S
C231 C230 1.489 . S
C231 C232 1.383 . S
C231 C236 1.382 . S
C232 H209 0.950 . S
C232 C231 1.383 . S
C232 C233 1.395 . S
C233 H210 0.950 . S
C233 C232 1.395 . S
C233 C234 1.288 . S
C234 C233 1.288 . S
C234 C235 1.392 . S
C235 H211 0.951 . S
C235 C234 1.392 . S
C235 C236 1.392 . S
C236 H212 0.949 . S
C236 C231 1.382 . S
C236 C235 1.392 . S
C237 C238 1.376 . S
C237 C242 1.386 . S
C237 C243 1.483 . S
C238 H213 0.949 . S
C238 C237 1.376 . S
C238 C239 1.397 . S
C239 H214 0.950 . S
C239 C238 1.397 . S
C239 C240 1.391 . S
C240 C239 1.391 . S
C240 C241 1.405 . S
C241 H215 0.950 . S
C241 C240 1.405 . S
C241 C242 1.367 . S
C242 H216 0.950 . S
C242 C237 1.386 . S
C242 C241 1.367 . S
C243 C237 1.483 . S
C243 C244 1.382 . S
C243 C245 1.403 . S
C244 H217 0.950 . S
C244 C230 1.411 . S
C244 C243 1.382 . S
C245 C229 1.411 . S
C245 C243 1.403 . S
C245 C246 1.489 . S
C246 C245 1.489 . S
C246 C247 1.383 . S
C246 C251 1.382 . S
C247 H218 0.950 . S
C247 C246 1.383 . S
C247 C248 1.395 . S
C248 H219 0.950 . S
C248 C247 1.395 . S
C248 C249 1.288 . S
C249 C248 1.288 . S
C249 C250 1.392 . S
C250 H220 0.951 . S
C250 C249 1.392 . S
C250 C251 1.392 . S
C251 H221 0.949 . S
C251 C246 1.382 . S
C251 C250 1.392 . S
C252 C253 1.369 1_655 S
C252 C254 1.419 . S
C252 H256 0.930 . S
C253 C252 1.369 1_455 S
C253 C262 1.429 . S
C254 C252 1.419 . S
C254 C255 1.363 1_655 S
C254 H257 0.929 . S
C255 C254 1.363 1_455 S
C255 C261 1.428 . S
H256 C252 0.930 . S
H257 C254 0.929 . S
S258 N259 1.613 . S
S258 N260 1.610 . S
N259 S258 1.613 . S
N259 C262 1.350 . S
N260 S258 1.610 . S
N260 C261 1.351 . S
C261 C255 1.428 . S
C261 N260 1.351 . S
C261 C262 1.434 . S
C262 C253 1.429 . S
C262 N259 1.350 . S
C262 C261 1.434 . S
C263 C264 1.369 . S
C263 C265 1.419 . S
C263 H267 0.930 . S
C264 C263 1.369 . S
C264 C273 1.429 . S
C265 C263 1.419 . S
C265 C266 1.363 . S
C265 H268 0.929 . S
C266 C265 1.363 . S
C266 C272 1.428 . S
H267 C263 0.930 . S
H268 C265 0.929 . S
S269 N270 1.613 . S
S269 N271 1.610 . S
N270 S269 1.613 . S
N270 C273 1.350 . S
N271 S269 1.610 . S
N271 C272 1.351 . S
C272 C266 1.428 . S
C272 N271 1.351 . S
C272 C273 1.434 . S
C273 C264 1.429 . S
C273 N270 1.350 . S
C273 C272 1.434 . S
C274 C275 1.369 . S
C274 C276 1.419 . S
C274 H278 0.930 . S
C275 C274 1.369 . S
C275 C284 1.429 . S
C276 C274 1.419 . S
C276 C277 1.363 . S
C276 H279 0.929 . S
C277 C276 1.363 . S
C277 C283 1.428 . S
H278 C274 0.930 . S
H279 C276 0.929 . S
S280 N281 1.613 . S
S280 N282 1.610 . S
N281 S280 1.613 . S
N281 C284 1.350 . S
N282 S280 1.610 . S
N282 C283 1.351 . S
C283 C277 1.428 . S
C283 N282 1.351 . S
C283 C284 1.434 . S
C284 C275 1.429 . S
C284 N281 1.350 . S
C284 C283 1.434 . S
C285 C286 1.369 . S
C285 C287 1.419 . S
C285 H289 0.930 1_455 S
C286 C285 1.369 . S
C286 C295 1.429 . S
C287 C285 1.419 . S
C287 C288 1.363 . S
C287 H290 0.929 1_455 S
C288 C287 1.363 . S
C288 C294 1.428 . S
H289 C285 0.930 1_655 S
H290 C287 0.929 1_655 S
S291 N292 1.613 . S
S291 N293 1.610 . S
N292 S291 1.613 . S
N292 C295 1.350 . S
N293 S291 1.610 . S
N293 C294 1.351 . S
C294 C288 1.428 . S
C294 N293 1.351 . S
C294 C295 1.434 . S
C295 C286 1.429 . S
C295 N292 1.350 . S
C295 C294 1.434 . S
C296 C297 1.369 . S
C296 C298 1.419 . S
C296 H300 0.930 . S
C297 C296 1.369 . S
C297 C306 1.429 . S
C298 C296 1.419 . S
C298 C299 1.363 . S
C298 H301 0.929 . S
C299 C298 1.363 . S
C299 C305 1.428 . S
H300 C296 0.930 . S
H301 C298 0.929 . S
S302 N303 1.613 . S
S302 N304 1.610 . S
N303 S302 1.613 . S
N303 C306 1.350 . S
N304 S302 1.610 . S
N304 C305 1.351 . S
C305 C299 1.428 . S
C305 N304 1.351 . S
C305 C306 1.434 . S
C306 C297 1.429 . S
C306 N303 1.350 . S
C306 C305 1.434 . S
C307 C308 1.369 . S
C307 C309 1.419 . S
C307 H311 0.930 . S
C308 C307 1.369 . S
C308 C317 1.429 . S
C309 C307 1.419 . S
C309 C310 1.363 . S
C309 H312 0.929 . S
C310 C309 1.363 . S
C310 C316 1.428 . S
H311 C307 0.930 . S
H312 C309 0.929 . S
S313 N314 1.613 . S
S313 N315 1.610 . S
N314 S313 1.613 . S
N314 C317 1.350 . S
N315 S313 1.610 . S
N315 C316 1.351 . S
C316 C310 1.428 . S
C316 N315 1.351 . S
C316 C317 1.434 . S
C317 C308 1.429 . S
C317 N314 1.350 . S
C317 C316 1.434 . S
C318 C319 1.369 . S
C318 C320 1.419 . S
C318 H322 0.930 . S
C319 C318 1.369 . S
C319 C328 1.429 . S
C320 C318 1.419 . S
C320 C321 1.363 . S
C320 H323 0.929 . S
C321 C320 1.363 . S
C321 C327 1.428 . S
H322 C318 0.930 . S
H323 C320 0.929 . S
S324 N325 1.613 . S
S324 N326 1.610 . S
N325 S324 1.613 . S
N325 C328 1.350 . S
N326 S324 1.610 . S
N326 C327 1.351 . S
C327 C321 1.428 . S
C327 N326 1.351 . S
C327 C328 1.434 . S
C328 C319 1.429 . S
C328 N325 1.350 . S
C328 C327 1.434 . S
C329 C330 1.369 . S
C329 C331 1.419 . S
C329 H333 0.930 . S
C330 C329 1.369 . S
C330 C339 1.429 . S
C331 C329 1.419 . S
C331 C332 1.363 . S
C331 H334 0.929 . S
C332 C331 1.363 . S
C332 C338 1.428 . S
H333 C329 0.930 . S
H334 C331 0.929 . S
S335 N336 1.613 . S
S335 N337 1.610 1_554 S
N336 S335 1.613 . S
N336 C339 1.350 1_554 S
N337 S335 1.610 1_556 S
N337 C338 1.351 . S
C338 C332 1.428 . S
C338 N337 1.351 . S
C338 C339 1.434 . S
C339 C330 1.429 . S
C339 N336 1.350 1_556 S
C339 C338 1.434 . S
C340 C341 1.369 . S
C340 C342 1.419 . S
C340 H344 0.930 . S
C341 C340 1.369 . S
C341 C350 1.429 1_455 S
C342 C340 1.419 . S
C342 C343 1.363 . S
C342 H345 0.929 . S
C343 C342 1.363 . S
C343 C349 1.428 1_455 S
H344 C340 0.930 . S
H345 C342 0.929 . S
S346 N347 1.613 . S
S346 N348 1.610 . S
N347 S346 1.613 . S
N347 C350 1.350 . S
N348 S346 1.610 . S
N348 C349 1.351 . S
C349 C343 1.428 1_655 S
C349 N348 1.351 . S
C349 C350 1.434 . S
C350 C341 1.429 1_655 S
C350 N347 1.350 . S
C350 C349 1.434 . S
C351 C352 1.369 . S
C351 C353 1.419 . S
C351 H355 0.930 1_545 S
C352 C351 1.369 . S
C352 C361 1.429 . S
C353 C351 1.419 . S
C353 C354 1.363 . S
C353 H356 0.929 1_545 S
C354 C353 1.363 . S
C354 C360 1.428 . S
H355 C351 0.930 1_565 S
H356 C353 0.929 1_565 S
S357 N358 1.613 . S
S357 N359 1.610 . S
N358 S357 1.613 . S
N358 C361 1.350 . S
N359 S357 1.610 . S
N359 C360 1.351 . S
C360 C354 1.428 . S
C360 N359 1.351 . S
C360 C361 1.434 . S
C361 C352 1.429 . S
C361 N358 1.350 . S
C361 C360 1.434 . S
C362 C363 1.369 . S
C362 C364 1.419 . S
C362 H366 0.930 1_556 S
C363 C362 1.369 . S
C363 C372 1.429 . S
C364 C362 1.419 . S
C364 C365 1.363 . S
C364 H367 0.929 . S
C365 C364 1.363 . S
C365 C371 1.428 . S
H366 C362 0.930 1_554 S
H367 C364 0.929 . S
S368 N369 1.613 . S
S368 N370 1.610 . S
N369 S368 1.613 . S
N369 C372 1.350 . S
N370 S368 1.610 . S
N370 C371 1.351 . S
C371 C365 1.428 . S
C371 N370 1.351 . S
C371 C372 1.434 . S
C372 C363 1.429 . S
C372 N369 1.350 . S
C372 C371 1.434 . S
C373 C374 1.369 . S
C373 C375 1.419 . S
C373 H377 0.930 . S
C374 C373 1.369 . S
C374 C383 1.429 . S
C375 C373 1.419 . S
C375 C376 1.363 . S
C375 H378 0.929 . S
C376 C375 1.363 . S
C376 C382 1.428 . S
H377 C373 0.930 . S
H378 C375 0.929 . S
S379 N380 1.613 . S
S379 N381 1.610 . S
N380 S379 1.613 . S
N380 C383 1.350 1_655 S
N381 S379 1.610 . S
N381 C382 1.351 1_655 S
C382 C376 1.428 . S
C382 N381 1.351 1_455 S
C382 C383 1.434 . S
C383 C374 1.429 . S
C383 N380 1.350 1_455 S
C383 C382 1.434 . S
C255 C129 1.502 . S
C253 C14 1.459 . S
C264 C40 1.506 . S
C266 C177 1.530 . S
C275 C76 1.491 . S
C277 C249 1.495 . S
C286 C3 1.489 . S
C288 C153 1.478 . S
C299 C201 1.515 . S
C297 C38 1.505 . S
C308 C74 1.484 . S
C310 C225 1.498 . S
C321 C186 1.469 . S
C319 C86 1.429 . S
C330 C2 1.482 1_556 S
C332 C240 1.500 . S
C343 C144 1.487 . S
C341 C39 1.490 . S
C354 C192 1.492 . S
C352 C75 1.495 . S
C365 C234 1.510 . S
C363 C4 1.467 1_556 S
C374 C50 1.452 . S
C376 C138 1.497 . S
