# Generated by pormake.
# Topology zzz, (3,6)-cn, num edge types: 1
# Building blocks:
#     Node 0, Type 0, BuildingBlock: BETDIP_clean_linker_0, # of connection points: 3
#     Node 1, Type 0, BuildingBlock: BETDIP_clean_linker_0, # of connection points: 3
#     Node 2, Type 0, BuildingBlock: BETDIP_clean_linker_0, # of connection points: 3
#     Node 3, Type 0, BuildingBlock: BETDIP_clean_linker_0, # of connection points: 3
#     Node 4, Type 0, BuildingBlock: BETDIP_clean_linker_0, # of connection points: 3
#     Node 5, Type 0, BuildingBlock: BETDIP_clean_linker_0, # of connection points: 3
#     Node 6, Type 0, BuildingBlock: BETDIP_clean_linker_0, # of connection points: 3
#     Node 7, Type 0, BuildingBlock: BETDIP_clean_linker_0, # of connection points: 3
#     Node 8, Type 1, BuildingBlock: KUMJIN_clean_sbu_0, # of connection points: 6
#     Node 9, Type 1, BuildingBlock: KUMJIN_clean_sbu_0, # of connection points: 6
#     Node 10, Type 1, BuildingBlock: KUMJIN_clean_sbu_0, # of connection points: 6
#     Node 11, Type 1, BuildingBlock: KUMJIN_clean_sbu_0, # of connection points: 6
#     Edge 12, Type (0, 1), BuildingBlock: UVAHIK_clean_linker_0, # of connection points: 2
#     Edge 13, Type (0, 1), BuildingBlock: UVAHIK_clean_linker_0, # of connection points: 2
#     Edge 14, Type (0, 1), BuildingBlock: UVAHIK_clean_linker_0, # of connection points: 2
#     Edge 15, Type (0, 1), BuildingBlock: UVAHIK_clean_linker_0, # of connection points: 2
#     Edge 16, Type (0, 1), BuildingBlock: UVAHIK_clean_linker_0, # of connection points: 2
#     Edge 17, Type (0, 1), BuildingBlock: UVAHIK_clean_linker_0, # of connection points: 2
#     Edge 18, Type (0, 1), BuildingBlock: UVAHIK_clean_linker_0, # of connection points: 2
#     Edge 19, Type (0, 1), BuildingBlock: UVAHIK_clean_linker_0, # of connection points: 2
#     Edge 20, Type (0, 1), BuildingBlock: UVAHIK_clean_linker_0, # of connection points: 2
#     Edge 21, Type (0, 1), BuildingBlock: UVAHIK_clean_linker_0, # of connection points: 2
#     Edge 22, Type (0, 1), BuildingBlock: UVAHIK_clean_linker_0, # of connection points: 2
#     Edge 23, Type (0, 1), BuildingBlock: UVAHIK_clean_linker_0, # of connection points: 2
#     Edge 24, Type (0, 1), BuildingBlock: UVAHIK_clean_linker_0, # of connection points: 2
#     Edge 25, Type (0, 1), BuildingBlock: UVAHIK_clean_linker_0, # of connection points: 2
#     Edge 26, Type (0, 1), BuildingBlock: UVAHIK_clean_linker_0, # of connection points: 2
#     Edge 27, Type (0, 1), BuildingBlock: UVAHIK_clean_linker_0, # of connection points: 2
#     Edge 28, Type (0, 1), BuildingBlock: UVAHIK_clean_linker_0, # of connection points: 2
#     Edge 29, Type (0, 1), BuildingBlock: UVAHIK_clean_linker_0, # of connection points: 2
#     Edge 30, Type (0, 1), BuildingBlock: UVAHIK_clean_linker_0, # of connection points: 2
#     Edge 31, Type (0, 1), BuildingBlock: UVAHIK_clean_linker_0, # of connection points: 2
#     Edge 32, Type (0, 1), BuildingBlock: UVAHIK_clean_linker_0, # of connection points: 2
#     Edge 33, Type (0, 1), BuildingBlock: UVAHIK_clean_linker_0, # of connection points: 2
#     Edge 34, Type (0, 1), BuildingBlock: UVAHIK_clean_linker_0, # of connection points: 2
#     Edge 35, Type (0, 1), BuildingBlock: UVAHIK_clean_linker_0, # of connection points: 2
# Relax obj value: 0.147
# Max RMSD: 0.152
# Mean RMSD: 0.112
data_MOF--net-zzz--node1-KUMJIN_clean_sbu_0--node2-BETDIP_clean_linker_0--edge1-UVAHIK_clean_linker_0
_symmetry_space_group_name_H-M    P1
_symmetry_Int_Tables_number       1
_symmetry_cell_setting            triclinic
loop_
_symmetry_equiv_pos_as_xyz
'x, y, z'
_cell_length_a     65.802386
_cell_length_b     65.673209
_cell_length_c     18.888898
_cell_angle_alpha  90.788174
_cell_angle_beta   89.971449
_cell_angle_gamma 89.945515
loop_
_atom_site_label
_atom_site_type_symbol
_atom_site_fract_x
_atom_site_fract_y
_atom_site_fract_z
_atom_type_partial_charge
H0 H 0.75387 0.52814 0.26913 0.0
H1 H 0.74965 0.55808 0.06764 0.0
H2 H 0.80668 0.55581 0.17713 0.0
H3 H 0.71835 0.56851 0.13064 0.0
C4 C 0.7139 0.55259 0.1331 0.0
C5 C 0.76085 0.53668 0.22693 0.0
C6 C 0.78169 0.54182 0.23073 0.0
C7 C 0.74896 0.54317 0.16898 0.0
C8 C 0.75839 0.5538 0.11369 0.0
C9 C 0.77913 0.55848 0.11625 0.0
C10 C 0.7905 0.5527 0.17541 0.0
N11 N 0.72775 0.53864 0.16476 0.0
H12 H 1.00218 0.76989 0.25718 0.0
H13 H 0.9742 0.76006 0.05326 0.0
H14 H 0.97202 0.81926 0.15178 0.0
H15 H 0.96361 0.72965 0.13695 0.0
C16 C 0.97969 0.72606 0.1317 0.0
C17 C 0.99363 0.7756 0.21265 0.0
C18 C 0.98712 0.79621 0.21237 0.0
C19 C 0.98832 0.76224 0.15598 0.0
C20 C 0.97761 0.76999 0.098 0.0
C21 C 0.97185 0.79048 0.09584 0.0
C22 C 0.97622 0.8033 0.15376 0.0
N23 N 0.99388 0.74116 0.15546 0.0
H24 H 0.7594 1.00069 0.27128 0.0
H25 H 0.76807 0.96854 0.07337 0.0
H26 H 0.70811 0.97493 0.16198 0.0
H27 H 0.79819 0.95853 0.15476 0.0
C28 C 0.80214 0.97453 0.14986 0.0
C29 C 0.75322 0.99212 0.2269 0.0
C30 C 0.73221 0.9876 0.22445 0.0
C31 C 0.76631 0.98487 0.17261 0.0
C32 C 0.75805 0.97383 0.11522 0.0
C33 C 0.73706 0.97039 0.10973 0.0
C34 C 0.72441 0.97706 0.16542 0.0
N35 N 0.78758 0.98931 0.17338 0.0
H36 H 0.53316 0.77375 0.28887 0.0
H37 H 0.55757 0.77906 0.07787 0.0
H38 H 0.56169 0.7222 0.18598 0.0
H39 H 0.5704 0.81197 0.17141 0.0
C40 C 0.55438 0.81506 0.16229 0.0
C41 C 0.54097 0.76707 0.24372 0.0
C42 C 0.54737 0.74653 0.24534 0.0
C43 C 0.54542 0.77912 0.18419 0.0
C44 C 0.55505 0.77018 0.12504 0.0
C45 C 0.56081 0.74971 0.12574 0.0
C46 C 0.55738 0.73817 0.18622 0.0
N47 N 0.53991 0.80008 0.18249 0.0
H48 H 0.27089 0.50998 0.99116 0.0
H49 H 0.27497 0.47717 0.18729 0.0
H50 H 0.22032 0.47467 0.06448 0.0
H51 H 0.29012 0.50834 0.21712 0.0
C52 C 0.30159 0.50741 0.17571 0.0
C53 C 0.26433 0.49977 0.02948 0.0
C54 C 0.24452 0.49193 0.01881 0.0
C55 C 0.2754 0.4947 0.09109 0.0
C56 C 0.26655 0.48151 0.14062 0.0
C57 C 0.24667 0.47436 0.13198 0.0
C58 C 0.23601 0.47942 0.07048 0.0
N59 N 0.29506 0.50322 0.10481 0.0
H60 H 0.02061 0.26502 1.00109 0.0
H61 H 0.05846 0.27492 0.18501 0.0
H62 H 0.06333 0.21919 0.06605 0.0
H63 H 0.02716 0.28838 0.22253 0.0
C64 C 0.02595 0.29918 0.17964 0.0
C65 C 0.03259 0.26003 0.03615 0.0
C66 C 0.04199 0.24081 0.02461 0.0
C67 C 0.03842 0.27254 0.09452 0.0
C68 C 0.05373 0.26558 0.14029 0.0
C69 C 0.06261 0.24638 0.13067 0.0
C70 C 0.05702 0.23439 0.07203 0.0
N71 N 0.02874 0.29175 0.10864 0.0
H72 H 0.27061 0.03245 1.00407 0.0
H73 H 0.26686 0.07066 0.19154 0.0
H74 H 0.32115 0.07017 0.06646 0.0
H75 H 0.25015 0.04226 0.22961 0.0
C76 C 0.23915 0.04117 0.18679 0.0
C77 C 0.27721 0.04372 0.03957 0.0
C78 C 0.29699 0.05129 0.02629 0.0
C79 C 0.26617 0.05048 0.09994 0.0
C80 C 0.27515 0.06497 0.14586 0.0
C81 C 0.29499 0.07196 0.13477 0.0
C82 C 0.30555 0.06535 0.07423 0.0
N83 N 0.24638 0.0425 0.11547 0.0
H84 H 0.49286 0.26564 0.97682 0.0
H85 H 0.46415 0.26558 0.1825 0.0
H86 H 0.45904 0.31791 0.05143 0.0
H87 H 0.49453 0.24807 0.20418 0.0
C88 C 0.49199 0.23651 0.16336 0.0
C89 C 0.48353 0.27306 0.01681 0.0
C90 C 0.47592 0.29291 1.0053 0.0
C91 C 0.4794 0.26301 0.08097 0.0
C92 C 0.46758 0.27301 0.13307 0.0
C93 C 0.46017 0.29269 0.12243 0.0
C94 C 0.46413 0.30235 0.05832 0.0
N95 N 0.48718 0.24303 0.0935 0.0
Eu96 Eu 0.03184 0.01112 0.70217 0.0
C97 C 0.96019 0.99485 0.49227 0.0
C98 C 0.97479 0.97217 0.40395 0.0
C99 C 0.93884 0.9699 0.43171 0.0
C100 C 0.97691 0.98805 0.45465 0.0
C101 C 0.94085 0.98621 0.47999 0.0
C102 C 0.95579 0.96285 0.39389 0.0
C103 C 0.92665 0.01137 0.56028 0.0
N104 N 0.96264 0.01054 0.53865 0.0
C105 C 0.94612 0.01932 0.57096 0.0
C106 C 0.92403 0.99453 0.51537 0.0
Eu107 Eu 0.99615 0.02264 0.55858 0.0
N108 N 0.99508 0.9974 0.4658 0.0
C109 C 0.01137 0.99237 0.4238 0.0
C110 C 0.99172 0.96633 0.36392 0.0
C111 C 0.01 0.97669 0.3732 0.0
H112 H 0.94813 0.03214 0.60685 0.0
H113 H 0.02314 0.97251 0.34171 0.0
H114 H 0.95397 0.95049 0.35584 0.0
H115 H 0.91372 0.01811 0.58721 0.0
H116 H 0.02585 0.99974 0.42965 0.0
H117 H 1.0062 0.06282 0.91753 0.0
H118 H 0.99075 0.95414 0.32485 0.0
H119 H 0.08037 0.99946 0.66352 0.0
H120 H 1.00341 0.03424 0.83529 0.0
H121 H 0.11455 0.01471 0.67558 0.0
H122 H 0.92416 0.96291 0.42218 0.0
H123 H 0.03789 0.08282 0.92433 0.0
H124 H 0.07401 0.08727 0.88643 0.0
H125 H 0.90894 0.98834 0.5073 0.0
H126 H 0.10358 0.07428 0.82016 0.0
N127 N 0.0332 0.03743 0.79171 0.0
C128 C 0.01749 0.04233 0.83645 0.0
C129 C 0.03684 0.07004 0.88761 0.0
C130 C 0.05338 0.06423 0.8456 0.0
C131 C 0.01897 0.05876 0.88402 0.0
C132 C 0.05116 0.04752 0.79822 0.0
H133 H 0.11893 0.04702 0.74267 0.0
N134 N 0.06547 0.02344 0.71989 0.0
C135 C 0.10152 0.02221 0.69931 0.0
C136 C 0.06777 0.04035 0.76082 0.0
C137 C 0.08217 0.01365 0.6925 0.0
C138 C 0.10391 0.04046 0.73703 0.0
C139 C 0.08703 0.0495 0.76985 0.0
O140 O 0.05129 0.99158 0.7665 0.0
O141 O 0.01305 0.99818 0.61386 0.0
O142 O 0.97888 1.0058 0.64474 0.0
O143 O 0.99909 0.01152 0.74435 0.0
O144 O 0.04252 0.98762 0.62074 0.0
O145 O 0.01932 0.98551 0.76094 0.0
O146 O 0.97644 0.04698 0.52131 0.0
O147 O 0.0156 0.03592 0.64556 0.0
O148 O 0.05083 0.02208 0.60958 0.0
O149 O 0.02842 0.02489 0.51428 0.0
O150 O 0.9858 0.04584 0.64101 0.0
O151 O 1.00639 0.04346 0.47645 0.0
C152 C 0.02549 0.98544 0.58777 0.0
C153 C 0.04119 0.95741 0.74471 0.0
C154 C 0.02738 0.92529 0.69814 0.0
C155 C 0.02524 0.94328 0.73908 0.0
C156 C 0.04599 0.92151 0.66365 0.0
C157 C 0.05988 0.95286 0.71182 0.0
C158 C 0.06216 0.93507 0.67139 0.0
C159 C 0.9815 1.00642 0.71435 0.0
C160 C 0.03715 0.97802 0.77463 0.0
C161 C 0.08898 0.06687 0.81343 0.0
C162 C 0.07217 0.07424 0.85121 0.0
C163 C 1.00302 0.04846 0.67213 0.0
C164 C 0.99584 0.07694 0.5076 0.0
C165 C 0.01433 0.08578 0.48702 0.0
C166 C 0.02034 0.10483 0.51465 0.0
C167 C 1.0076 0.11509 0.56303 0.0
C168 C 0.98304 0.08781 0.55451 0.0
C169 C 0.98899 0.10668 0.58224 0.0
C170 C 0.04691 0.02531 0.54201 0.0
C171 C 0.99097 0.0557 0.48622 0.0
H172 H 0.01108 0.94653 0.76621 0.0
H173 H 0.0481 0.90812 0.6304 0.0
H174 H 0.07249 0.96341 0.71474 0.0
H175 H 0.07643 0.93197 0.64477 0.0
H176 H 0.02425 0.07768 0.45049 0.0
H177 H 0.01177 0.12989 0.58452 0.0
H178 H 0.96867 0.08153 0.57151 0.0
H179 H 0.97919 0.11476 0.6191 0.0
Eu180 Eu 0.51277 0.03638 0.68338 0.0
C181 C 0.54304 0.96209 0.49878 0.0
C182 C 0.5669 0.97636 0.41561 0.0
C183 C 0.57116 0.94149 0.4542 0.0
C184 C 0.54963 0.97837 0.45966 0.0
C185 C 0.55341 0.94327 0.4951 0.0
C186 C 0.5779 0.95802 0.4145 0.0
C187 C 0.52671 0.92874 0.56608 0.0
N188 N 0.52575 0.96424 0.53702 0.0
C189 C 0.51691 0.94763 0.56738 0.0
C190 C 0.54523 0.92662 0.53068 0.0
Eu191 Eu 0.5103 0.99698 0.54122 0.0
N192 N 0.53868 0.99591 0.46229 0.0
C193 C 0.54347 0.01148 0.41786 0.0
C194 C 0.57239 0.99268 0.37297 0.0
C195 C 0.56044 0.01021 0.37344 0.0
H196 H 0.50248 0.94919 0.59422 0.0
H197 H 0.56437 0.02285 0.33991 0.0
H198 H 0.59134 0.95631 0.38177 0.0
H199 H 0.51993 0.91582 0.59204 0.0
H200 H 0.53471 0.02527 0.41725 0.0
H201 H 0.46143 0.01047 0.89457 0.0
H202 H 0.58558 0.99178 0.33873 0.0
H203 H 0.51844 0.0837 0.62293 0.0
H204 H 0.49042 1.00809 0.8152 0.0
H205 H 0.50059 0.11685 0.62762 0.0
H206 H 0.57946 0.92725 0.45135 0.0
H207 H 0.43967 0.0411 0.89589 0.0
H208 H 0.4329 0.07616 0.85175 0.0
H209 H 0.55274 0.91192 0.52921 0.0
H210 H 0.44344 0.10507 0.77911 0.0
N211 N 0.48546 0.03706 0.76715 0.0
C212 C 0.48136 0.02168 0.81336 0.0
C213 C 0.45255 0.04023 0.86018 0.0
C214 C 0.45735 0.05641 0.81598 0.0
C215 C 0.46479 0.02294 0.85955 0.0
C216 C 0.47422 0.05446 0.76997 0.0
H217 H 0.46881 0.1205 0.69662 0.0
N218 N 0.49677 0.06874 0.68762 0.0
C219 C 0.49457 0.104 0.65606 0.0
C220 C 0.48001 0.07072 0.72881 0.0
C221 C 0.50465 0.08525 0.65369 0.0
C222 C 0.47661 0.10596 0.69485 0.0
C223 C 0.46929 0.08934 0.73279 0.0
O224 O 0.53147 0.05989 0.7328 0.0
O225 O 0.53045 0.01737 0.60539 0.0
O226 O 0.52428 0.98238 0.63785 0.0
O227 O 0.51473 1.00453 0.73015 0.0
O228 O 0.53836 0.0477 0.61255 0.0
O229 O 0.53271 0.0292 0.77235 0.0
O230 O 0.48829 0.97558 0.49683 0.0
O231 O 0.49292 0.01614 0.61891 0.0
O232 O 0.49594 0.04945 0.58929 0.0
O233 O 0.5078 0.02918 0.4961 0.0
O234 O 0.48335 0.98644 0.60782 0.0
O235 O 0.49536 1.00319 0.44058 0.0
C236 C 0.54298 0.03043 0.58374 0.0
C237 C 0.56364 0.04788 0.76433 0.0
C238 C 0.5962 0.03145 0.73927 0.0
C239 C 0.5752 0.03013 0.75194 0.0
C240 C 0.60547 0.05074 0.73804 0.0
C241 C 0.5733 0.06693 0.76406 0.0
C242 C 0.59407 0.06832 0.75049 0.0
C243 C 0.52142 0.98673 0.70571 0.0
C244 C 0.54134 0.04709 0.77181 0.0
C245 C 0.452 0.09098 0.77602 0.0
C246 C 0.44602 0.07454 0.81746 0.0
C247 C 0.4797 1.00361 0.639 0.0
C248 C 0.46122 0.99179 0.44115 0.0
C249 C 0.45316 0.01095 0.46033 0.0
C250 C 0.43208 0.01431 0.45902 0.0
C251 C 0.41915 0.99805 0.43978 0.0
C252 C 0.44809 0.97588 0.42201 0.0
C253 C 0.42714 0.979 0.42168 0.0
C254 C 0.49923 0.04612 0.52098 0.0
C255 C 0.4831 0.98767 0.446 0.0
H256 H 0.56792 0.01533 0.75145 0.0
H257 H 0.62169 0.05223 0.72972 0.0
H258 H 0.56469 0.0808 0.77313 0.0
H259 H 0.60138 0.08308 0.75007 0.0
H260 H 0.46324 0.02319 0.47645 0.0
H261 H 0.40286 1.00018 0.43653 0.0
H262 H 0.45405 0.96096 0.40807 0.0
H263 H 0.41706 0.96666 0.40668 0.0
Eu264 Eu 0.53749 0.51285 0.55725 0.0
C265 C 0.44943 0.50055 0.68483 0.0
C266 C 0.42652 0.51999 0.61176 0.0
C267 C 0.4142 0.4899 0.67147 0.0
C268 C 0.44606 0.51677 0.64058 0.0
C269 C 0.43345 0.48714 0.70188 0.0
C270 C 0.41075 0.5063 0.62649 0.0
C271 C 0.45626 0.4701 0.78179 0.0
N272 N 0.46813 0.49831 0.7135 0.0
C273 C 0.47157 0.48379 0.76343 0.0
C274 C 0.43717 0.47162 0.75022 0.0
Eu275 Eu 0.4939 0.52122 0.67782 0.0
N276 N 0.4617 0.52967 0.62703 0.0
C277 C 0.4583 0.54669 0.58772 0.0
C278 C 0.42331 0.537 0.56962 0.0
C279 C 0.43924 0.55047 0.55801 0.0
H280 H 0.48637 0.48244 0.78766 0.0
H281 H 0.43689 0.5638 0.52592 0.0
H282 H 0.39573 0.50844 0.60424 0.0
H283 H 0.45923 0.45835 0.82006 0.0
H284 H 0.47013 0.55738 0.57721 0.0
H285 H 0.59481 0.47188 0.71098 0.0
H286 H 0.40855 0.54001 0.54655 0.0
H287 H 0.54479 0.5516 0.4465 0.0
H288 H 0.56202 0.47671 0.65237 0.0
H289 H 0.57103 0.57733 0.41985 0.0
H290 H 0.4018 0.47966 0.68343 0.0
H291 H 0.62151 0.49818 0.70227 0.0
H292 H 0.63317 0.53121 0.65094 0.0
H293 H 0.42531 0.46101 0.76456 0.0
H294 H 0.62676 0.5599 0.57146 0.0
N295 N 0.5694 0.50581 0.61121 0.0
C296 C 0.57333 0.48836 0.64736 0.0
C297 C 0.60706 0.50039 0.67598 0.0
C298 C 0.60344 0.51768 0.63547 0.0
C299 C 0.59205 0.48551 0.68091 0.0
C300 C 0.5843 0.51987 0.60271 0.0
H301 H 0.6038 0.57699 0.48403 0.0
N302 N 0.56249 0.53708 0.52537 0.0
C303 C 0.57394 0.56584 0.45909 0.0
C304 C 0.58071 0.53602 0.55841 0.0
C305 C 0.55918 0.55121 0.47402 0.0
C306 C 0.59238 0.56564 0.49563 0.0
C307 C 0.5961 0.55042 0.54517 0.0
O308 O 0.54402 0.50975 0.44465 0.0
O309 O 0.50375 0.51283 0.56898 0.0
O310 O 0.49493 0.48771 0.64566 0.0
O311 O 0.52881 0.48309 0.61275 0.0
O312 O 0.51477 0.52575 0.47809 0.0
O313 O 0.54269 0.4828 0.50926 0.0
O314 O 0.48562 0.52541 0.78889 0.0
O315 O 0.52758 0.5203 0.66668 0.0
O316 O 0.5364 0.54613 0.59139 0.0
O317 O 0.50211 0.5504 0.618 0.0
O318 O 0.516 0.50615 0.75431 0.0
O319 O 0.4953 0.55134 0.72894 0.0
C320 C 0.49852 0.52068 0.51138 0.0
C321 C 0.52693 0.48171 0.39582 0.0
C322 C 0.49567 0.46263 0.3737 0.0
C323 C 0.51155 0.46851 0.41928 0.0
C324 C 0.49516 0.47034 0.30459 0.0
C325 C 0.5263 0.48888 0.32616 0.0
C326 C 0.51043 0.48331 0.28108 0.0
C327 C 0.51094 0.47589 0.6338 0.0
C328 C 0.54232 0.49001 0.4451 0.0
C329 C 0.61483 0.54885 0.58025 0.0
C330 C 0.61849 0.53251 0.62544 0.0
C331 C 0.53248 0.51138 0.7227 0.0
C332 C 0.50926 0.54762 0.84381 0.0
C333 C 0.52136 0.5652 0.83936 0.0
C334 C 0.53861 0.56765 0.88268 0.0
C335 C 0.54379 0.55215 0.93006 0.0
C336 C 0.51438 0.53269 0.89359 0.0
C337 C 0.53164 0.53489 0.93575 0.0
C338 C 0.52013 0.55778 0.5994 0.0
C339 C 0.49273 0.54388 0.79194 0.0
H340 H 0.51173 0.46298 0.47306 0.0
H341 H 0.48331 0.46581 0.26785 0.0
H342 H 0.53786 0.4992 0.30716 0.0
H343 H 0.50999 0.48902 0.22761 0.0
H344 H 0.51727 0.57699 0.80238 0.0
H345 H 0.55721 0.55339 0.96298 0.0
H346 H 0.50544 0.51894 0.89856 0.0
H347 H 0.5357 0.52309 0.9726 0.0
Eu348 Eu 0.02104 0.53543 0.55689 0.0
C349 C 0.0216 0.45531 0.65445 0.0
C350 C 0.99407 0.43697 0.59716 0.0
C351 C 0.02677 0.42051 0.61123 0.0
C352 C 1.00178 0.45485 0.63006 0.0
C353 C 0.0341 0.43785 0.64699 0.0
C354 C 1.0068 0.42008 0.58626 0.0
C355 C 0.0592 0.45471 0.71925 0.0
N356 N 0.02834 0.47232 0.68886 0.0
C357 C 0.04614 0.47139 0.7263 0.0
C358 C 0.05338 0.43805 0.6778 0.0
Eu359 Eu 1.0056 0.50089 0.6936 0.0
N360 N 0.98977 0.47145 0.64116 0.0
C361 C 0.96931 0.46999 0.62812 0.0
C362 C 0.97363 0.43638 0.57744 0.0
C363 C 0.96111 0.45281 0.5944 0.0
H364 H 0.05028 0.48306 0.76402 0.0
H365 H 0.94502 0.45211 0.5829 0.0
H366 H 1.0012 0.40641 0.56009 0.0
H367 H 0.07352 0.4545 0.74742 0.0
H368 H 0.95882 0.48161 0.6453 0.0
H369 H 0.08811 0.58133 0.62757 0.0
H370 H 0.9672 0.423 0.55185 0.0
H371 H 0.97407 0.55547 0.51306 0.0
H372 H 0.06996 0.55245 0.57448 0.0
H373 H 0.95343 0.58504 0.54266 0.0
H374 H 0.03626 0.40714 0.6043 0.0
H375 H 0.06906 0.61128 0.67227 0.0
H376 H 0.03583 0.6294 0.68494 0.0
H377 H 0.06341 0.425 0.67311 0.0
H378 H 0.99911 0.63036 0.66204 0.0
N379 N 0.04033 0.56422 0.59747 0.0
C380 C 0.06116 0.56471 0.59758 0.0
C381 C 0.06088 0.59828 0.65077 0.0
C382 C 0.03976 0.59868 0.64372 0.0
C383 C 0.07166 0.58139 0.62598 0.0
C384 C 0.02978 0.58129 0.61554 0.0
H385 H 0.96834 0.61399 0.60917 0.0
N386 N 1.00014 0.56523 0.57225 0.0
C387 C 0.96895 0.58419 0.56143 0.0
C388 C 0.00914 0.58186 0.60232 0.0
C389 C 0.9807 0.56691 0.54689 0.0
C390 C 0.97744 0.60054 0.59841 0.0
C391 C 0.99793 0.59981 0.61732 0.0
O392 O 0.01044 0.53416 0.44691 0.0
O393 O 0.01255 0.50282 0.57779 0.0
O394 O 0.03797 0.51249 0.71523 0.0
O395 O 0.05029 0.52491 0.60907 0.0
O396 O 0.0401 0.50792 0.52751 0.0
O397 O 0.03874 0.54897 0.47203 0.0
O398 O 0.01335 0.50111 0.80633 0.0
O399 O 0.01419 0.5335 0.67294 0.0
O400 O 0.98833 0.52462 0.53743 0.0
O401 O 0.97628 0.51166 0.64333 0.0
O402 O 0.987 0.52849 0.72537 0.0
O403 O 0.98604 0.48608 0.77045 0.0
C404 C 0.02744 0.49412 0.5472 0.0
C405 C 0.03724 0.52999 0.36535 0.0
C406 C 0.06493 0.50752 0.32675 0.0
C407 C 0.05531 0.51941 0.37935 0.0
C408 C 0.05606 0.5065 0.25891 0.0
C409 C 0.0286 0.52865 0.29774 0.0
C410 C 0.03801 0.51696 0.24477 0.0
C411 C 0.05315 0.5185 0.67427 0.0
C412 C 0.02711 0.54188 0.42188 0.0
C413 C 1.00758 0.61665 0.64906 0.0
C414 C 0.02846 0.61609 0.66215 0.0
C415 C 0.99955 0.54225 0.70474 0.0
C416 C 0.98457 0.50386 0.87957 0.0
C417 C 0.96682 0.51445 0.86138 0.0
C418 C 0.95601 0.52593 0.91212 0.0
C419 C 0.96321 0.52643 0.98236 0.0
C420 C 0.99155 0.50465 0.94956 0.0
C421 C 0.98086 0.51586 1.00073 0.0
C422 C 0.97329 0.5184 0.57862 0.0
C423 C 0.99627 0.49278 0.82493 0.0
H424 H 0.06183 0.52038 0.43173 0.0
H425 H 0.06319 0.49798 0.21619 0.0
H426 H 0.0146 0.53661 0.28601 0.0
H427 H 0.03136 0.51607 0.19242 0.0
H428 H 0.96155 0.51392 0.8072 0.0
H429 H 0.95506 0.53464 0.02356 0.0
H430 H 1.00529 0.49668 0.96447 0.0
H431 H 0.98624 0.51635 0.05487 0.0
C432 C 0.20181 0.03293 0.1647 0.0
C433 C 0.2173 0.04111 0.20773 0.0
C434 C 0.18167 0.03185 0.19018 0.0
C435 C 0.1462 0.05488 0.32017 0.0
H436 H 0.12005 1.00212 0.32928 0.0
C437 C 0.06528 0.04267 0.44204 0.0
C438 C 0.06463 0.0275 0.49379 0.0
C439 C 0.08252 0.04484 0.39862 0.0
C440 C 0.12708 0.01699 0.32666 0.0
H441 H 0.22376 0.055 0.30987 0.0
H442 H 0.18884 0.05386 0.35271 0.0
H443 H 0.15249 1.00556 0.26645 0.0
H444 H 0.081 1.00202 0.53767 0.0
H445 H 0.11079 1.00555 0.46169 0.0
H446 H 0.12095 0.06629 0.38103 0.0
C447 C 0.19212 0.04807 0.29993 0.0
C448 C 0.14559 0.01898 0.29021 0.0
C449 C 0.21216 0.04865 0.2754 0.0
C450 C 0.08124 0.01416 0.49951 0.0
C451 C 0.09822 0.01601 0.45528 0.0
C452 C 0.1275 0.05298 0.35532 0.0
C453 C 0.17662 0.03946 0.2582 0.0
C454 C 0.15561 0.03786 0.28791 0.0
C455 C 0.09921 0.03149 0.40468 0.0
C456 C 0.11792 0.03393 0.36045 0.0
H457 H 0.20534 0.02685 0.11254 0.0
H458 H 0.17004 0.02509 0.15681 0.0
H459 H 0.15353 0.06964 0.31931 0.0
H460 H 0.05267 0.0531 0.43619 0.0
H461 H 0.08277 0.05687 0.36001 0.0
C462 C 0.48729 0.21146 0.25915 0.0
C463 C 0.49034 0.21506 0.18678 0.0
C464 C 0.48577 0.19163 0.28445 0.0
C465 C 0.50311 0.14028 0.2582 0.0
H466 H 0.45746 0.12538 0.37653 0.0
C467 C 0.50199 0.06279 0.40164 0.0
C468 C 0.49414 0.06274 0.47092 0.0
C469 C 0.49917 0.07964 0.35783 0.0
C470 C 0.47049 0.12927 0.34447 0.0
H471 H 0.49447 0.20066 0.08397 0.0
H472 H 0.49261 0.16559 0.12906 0.0
H473 H 0.45755 0.15817 0.31765 0.0
H474 H 0.47528 0.07963 0.54523 0.0
H475 H 0.47139 0.10929 0.47164 0.0
H476 H 0.51678 0.11214 0.28825 0.0
C477 C 0.49101 0.17831 0.16574 0.0
C478 C 0.47039 0.14803 0.31007 0.0
C479 C 0.49202 0.19831 0.13996 0.0
C480 C 0.48228 0.07943 0.49339 0.0
C481 C 0.4797 0.09638 0.45018 0.0
C482 C 0.50342 0.12165 0.29377 0.0
C483 C 0.48773 0.17482 0.23829 0.0
C484 C 0.48682 0.15387 0.2674 0.0
C485 C 0.48847 0.097 0.38211 0.0
C486 C 0.48726 0.11597 0.33857 0.0
H487 H 0.48596 0.22407 0.29646 0.0
H488 H 0.48345 0.18942 0.34062 0.0
H489 H 0.51607 0.14448 0.2262 0.0
H490 H 0.5108 0.05004 0.38162 0.0
H491 H 0.50564 0.07911 0.30515 0.0
C492 C 0.33926 0.51455 0.163 0.0
C493 C 0.32301 0.50577 0.19969 0.0
C494 C 0.35887 0.51492 0.19305 0.0
C495 C 0.38474 0.50791 0.36975 0.0
H496 H 0.43393 0.51096 0.25764 0.0
C497 C 0.46545 0.50208 0.49254 0.0
C498 C 0.47869 0.51802 0.47503 0.0
C499 C 0.44699 0.4995 0.45641 0.0
C500 C 0.42029 0.51012 0.28959 0.0
H501 H 0.31458 0.4895 0.29396 0.0
H502 H 0.34852 0.48866 0.34347 0.0
H503 H 0.40104 0.50795 0.19838 0.0
H504 H 0.48371 0.54276 0.40255 0.0
H505 H 0.45161 0.53808 0.33869 0.0
H506 H 0.40416 0.50928 0.46071 0.0
C507 C 0.34638 0.49636 0.29376 0.0
C508 C 0.40134 0.50855 0.25564 0.0
C509 C 0.32684 0.49655 0.26485 0.0
C510 C 0.47359 0.53062 0.41817 0.0
C511 C 0.45529 0.52785 0.38132 0.0
C512 C 0.40366 0.50897 0.40343 0.0
C513 C 0.36268 0.5061 0.2597 0.0
C514 C 0.38317 0.50749 0.29515 0.0
C515 C 0.44165 0.51243 0.40054 0.0
C516 C 0.42166 0.51028 0.36392 0.0
H517 H 0.33665 0.52195 0.11292 0.0
H518 H 0.3708 0.52276 0.16495 0.0
H519 H 0.37133 0.50779 0.40288 0.0
H520 H 0.46932 0.49164 0.53426 0.0
H521 H 0.43693 0.4873 0.47186 0.0
C522 C 0.04273 0.32674 0.2494 0.0
C523 C 0.02761 0.32102 0.20077 0.0
C524 C 0.04282 0.34617 0.2808 0.0
C525 C 0.01815 0.39819 0.2767 0.0
H526 H 0.03982 0.4011 0.46741 0.0
C527 C 0.0087 0.46833 0.47143 0.0
C528 C 0.0265 0.47456 0.50682 0.0
C529 C 0.00848 0.4503 0.43027 0.0
C530 C 0.03378 0.4006 0.41409 0.0
H531 H 1.00062 0.33122 0.1466 0.0
H532 H 1.00017 0.36508 0.20322 0.0
H533 H 0.03982 0.36881 0.40353 0.0
H534 H 0.05825 0.46756 0.52323 0.0
H535 H 0.05772 0.43577 0.4538 0.0
H536 H 0.01138 0.43011 0.28977 0.0
C537 C 0.01249 0.35482 0.21568 0.0
C538 C 0.03394 0.38202 0.37673 0.0
C539 C 0.01271 0.33538 0.18287 0.0
C540 C 0.0442 0.46283 0.49806 0.0
C541 C 0.04388 0.44465 0.45824 0.0
C542 C 0.01764 0.41676 0.31487 0.0
C543 C 0.02733 0.3604 0.26656 0.0
C544 C 0.02644 0.38045 0.30681 0.0
C545 C 0.02601 0.43806 0.42407 0.0
C546 C 0.02569 0.41825 0.38376 0.0
H547 H 0.05434 0.31591 0.26443 0.0
H548 H 0.05498 0.34983 0.31734 0.0
H549 H 0.01236 0.3979 0.22309 0.0
H550 H 0.99498 0.47739 0.47562 0.0
H551 H 0.99447 0.44568 0.40468 0.0
C552 C 0.83409 0.96341 0.0901 0.0
C553 C 0.82119 0.97949 0.11071 0.0
C554 C 0.85136 0.96688 0.04875 0.0
C555 C 0.88725 1.00682 0.98805 0.0
H556 H 0.89989 0.96641 0.84294 0.0
C557 C 0.96387 1.00712 0.8337 0.0
C558 C 0.96352 1.00232 0.7608 0.0
C559 C 0.9465 1.00471 0.87599 0.0
C560 C 0.89658 0.97797 0.8827 0.0
H561 H 0.81658 0.01207 0.10472 0.0
H562 H 0.84688 0.01825 0.0319 0.0
H563 H 0.86973 0.96239 0.9159 0.0
H564 H 0.94467 0.98963 0.67715 0.0
H565 H 0.91439 0.98587 0.74993 0.0
H566 H 0.91402 0.02255 0.95386 0.0
C567 C 0.84366 1.00286 0.04837 0.0
C568 C 0.87932 0.97554 0.92538 0.0
C569 C 0.82625 0.99935 0.09005 0.0
C570 C 0.94545 0.99417 0.73232 0.0
C571 C 0.92808 0.99173 0.77456 0.0
C572 C 0.90459 1.00924 0.94538 0.0
C573 C 0.85632 0.98659 0.02624 0.0
C574 C 0.87443 0.98982 0.97913 0.0
C575 C 0.92824 0.99718 0.847 0.0
C576 C 0.90958 0.9948 0.89217 0.0
H577 H 0.83066 0.94793 0.10532 0.0
H578 H 0.86086 0.95399 0.03443 0.0
H579 H 0.88412 0.0181 0.02897 0.0
H580 H 0.9775 0.01291 0.8585 0.0
H581 H 0.94747 1.0086 0.93178 0.0
C582 C 0.53031 0.83625 0.08908 0.0
C583 C 0.54888 0.83404 0.12482 0.0
C584 C 0.52665 0.85346 0.04743 0.0
C585 C 0.55474 0.89558 0.95742 0.0
H586 H 0.50077 0.91788 0.93145 0.0
C587 C 0.54009 0.97075 0.80641 0.0
C588 C 0.52426 0.97014 0.75672 0.0
C589 C 0.5428 0.95466 0.85368 0.0
C590 C 0.51593 0.91176 0.93792 0.0
H591 H 0.57778 0.84837 0.14742 0.0
H592 H 0.57116 0.87863 0.07829 0.0
H593 H 0.50568 0.88924 0.01071 0.0
H594 H 0.49834 0.95292 0.71917 0.0
H595 H 0.50298 0.92483 0.80146 0.0
H596 H 0.56498 0.91836 0.88542 0.0
C597 C 0.55962 0.86692 0.07968 0.0
C598 C 0.51877 0.89524 0.98323 0.0
C599 C 0.56335 0.84964 0.12018 0.0
C600 C 0.5109 0.9535 0.75611 0.0
C601 C 0.51343 0.93756 0.80382 0.0
C602 C 0.55194 0.91223 0.91291 0.0
C603 C 0.54141 0.86895 0.04125 0.0
C604 C 0.53823 0.88682 0.99362 0.0
C605 C 0.5295 0.93784 0.85294 0.0
C606 C 0.5325 0.9205 0.90227 0.0
H607 H 0.51893 0.82437 0.09106 0.0
H608 H 0.51253 0.85424 0.01827 0.0
H609 H 0.56991 0.88935 0.96224 0.0
H610 H 0.55048 0.98353 0.80808 0.0
H611 H 0.55521 0.95545 0.89126 0.0
C612 C 0.6873 0.52652 0.09524 0.0
C613 C 0.69535 0.54633 0.09327 0.0
C614 C 0.66989 0.52145 0.05534 0.0
C615 C 0.64098 0.53723 0.89726 0.0
H616 H 0.59509 0.50985 0.98218 0.0
C617 C 0.5634 0.53199 0.75397 0.0
C618 C 0.55178 0.51425 0.7619 0.0
C619 C 0.58102 0.53512 0.79436 0.0
C620 C 0.60786 0.51721 0.95703 0.0
H621 H 0.69153 0.57625 0.04828 0.0
H622 H 0.66163 0.56739 0.97846 0.0
H623 H 0.62589 0.51576 0.05167 0.0
H624 H 0.54894 0.48629 0.82013 0.0
H625 H 0.58004 0.49124 0.88884 0.0
H626 H 0.62329 0.53847 0.80238 0.0
C627 C 0.66862 0.55575 0.01044 0.0
C628 C 0.62553 0.52062 0.99712 0.0
C629 C 0.6857 0.56085 0.05085 0.0
C630 C 0.55783 0.49994 0.81223 0.0
C631 C 0.57557 0.50293 0.85209 0.0
C632 C 0.62346 0.53361 0.85693 0.0
C633 C 0.66048 0.53599 0.01188 0.0
C634 C 0.64221 0.53091 0.96803 0.0
C635 C 0.58749 0.52055 0.84375 0.0
C636 C 0.60649 0.52378 0.88638 0.0
H637 H 0.69439 0.51501 0.12744 0.0
H638 H 0.664 0.50608 0.05748 0.0
H639 H 0.65367 0.54496 0.87287 0.0
H640 H 0.5587 0.54362 0.71729 0.0
H641 H 0.58938 0.54914 0.78748 0.0
C642 C 1.00518 0.70132 0.07467 0.0
C643 C 0.98507 0.70739 0.08944 0.0
C644 C 0.00908 0.68398 0.03163 0.0
C645 C 0.98449 0.65176 0.89243 0.0
H646 H 0.02325 0.60995 0.94271 0.0
C647 C 0.98209 0.57237 0.75883 0.0
C648 C 1.00033 0.56214 0.74335 0.0
C649 C 0.98206 0.59052 0.79866 0.0
C650 C 0.01256 0.62159 0.92714 0.0
H651 H 0.95345 0.69983 0.07143 0.0
H652 H 0.96015 0.67008 0.99713 0.0
H653 H 0.02036 0.64091 0.01606 0.0
H654 H 0.03279 0.56217 0.76184 0.0
H655 H 0.03289 0.59418 0.83072 0.0
H656 H 0.97663 0.63273 0.80377 0.0
C657 C 0.97296 0.67862 0.01782 0.0
C658 C 0.01091 0.63938 0.96939 0.0
C659 C 0.96912 0.69565 0.06099 0.0
C660 C 0.01855 0.57007 0.77115 0.0
C661 C 0.01854 0.58829 0.8114 0.0
C662 C 0.98621 0.63414 0.85016 0.0
C663 C 0.99296 0.67256 1.00176 0.0
C664 C 0.9965 0.65452 0.95349 0.0
C665 C 1.00028 0.59891 0.82529 0.0
C666 C 0.99992 0.61851 0.86762 0.0
H667 H 0.01783 0.71003 0.0957 0.0
H668 H 0.02468 0.67978 0.02039 0.0
H669 H 0.97354 0.66325 0.87743 0.0
H670 H 0.96776 0.56632 0.73983 0.0
H671 H 0.96761 0.59781 0.80955 0.0
C672 C 0.09181 0.22492 0.17228 0.0
C673 C 0.07482 0.23715 0.18789 0.0
C674 C 0.09968 0.21181 0.22327 0.0
C675 C 0.08916 0.1931 0.40831 0.0
H676 H 0.09211 0.14072 0.31233 0.0
C677 C 0.05224 0.12492 0.5364 0.0
C678 C 0.03911 0.11475 0.4892 0.0
C679 C 0.06795 0.13714 0.51078 0.0
C680 C 0.09132 0.15521 0.34027 0.0
H681 H 0.0541 0.24683 0.27095 0.0
H682 H 0.06706 0.22388 0.35813 0.0
H683 H 0.09971 0.17122 0.24768 0.0
H684 H 0.03289 0.10821 0.37867 0.0
H685 H 0.05945 0.12982 0.33392 0.0
H686 H 0.07807 0.17729 0.49806 0.0
C687 C 0.07487 0.2244 0.30777 0.0
C688 C 0.09608 0.17284 0.30334 0.0
C689 C 0.06725 0.23765 0.25731 0.0
C690 C 0.04284 0.1158 0.41631 0.0
C691 C 0.0583 0.12816 0.39069 0.0
C692 C 0.08377 0.17552 0.44458 0.0
C693 C 0.09039 0.21041 0.29025 0.0
C694 C 0.09345 0.19216 0.33534 0.0
C695 C 0.07059 0.13966 0.43743 0.0
C696 C 0.08325 0.15654 0.40912 0.0
H697 H 0.09817 0.22454 0.11937 0.0
H698 H 0.11208 0.20179 0.20841 0.0
H699 H 0.08797 0.20763 0.43586 0.0
H700 H 0.04991 0.124 0.59303 0.0
H701 H 0.07737 0.14534 0.54848 0.0
C702 C 0.3047 0.07712 0.26165 0.0
C703 C 0.30596 0.08354 0.19113 0.0
C704 C 0.31881 0.0839 0.31178 0.0
C705 C 0.37219 0.09571 0.30534 0.0
H706 H 0.36649 0.08942 0.50802 0.0
C707 C 0.43255 0.05201 0.43897 0.0
C708 C 0.42345 0.03502 0.47052 0.0
C709 C 0.42149 0.07001 0.43058 0.0
C710 C 0.36846 0.09144 0.45163 0.0
H711 H 0.32118 0.10427 0.12032 0.0
H712 H 0.34589 0.11617 0.20808 0.0
H713 H 0.3374 0.10046 0.43814 0.0
H714 H 0.39732 0.02488 0.53027 0.0
H715 H 0.37768 0.05553 0.51244 0.0
H716 H 0.40245 0.08501 0.31674 0.0
C717 C 0.33425 0.10554 0.22421 0.0
C718 C 0.35178 0.09781 0.4116 0.0
C719 C 0.32014 0.09869 0.1739 0.0
C720 C 0.40438 0.03744 0.50297 0.0
C721 C 0.39323 0.05527 0.49369 0.0
C722 C 0.38878 0.08929 0.34513 0.0
C723 C 0.33451 0.09726 0.29253 0.0
C724 C 0.35309 0.09852 0.33733 0.0
C725 C 0.40104 0.07115 0.45238 0.0
C726 C 0.38667 0.08553 0.41796 0.0
H727 H 0.29403 0.0654 0.27679 0.0
H728 H 0.31854 0.07703 0.36356 0.0
H729 H 0.37389 0.09611 0.24835 0.0
H730 H 0.44742 0.05085 0.41463 0.0
H731 H 0.4283 0.08225 0.40097 0.0
C732 C 0.43295 0.31582 0.16971 0.0
C733 C 0.45069 0.30446 0.18111 0.0
C734 C 0.42691 0.33077 0.21875 0.0
C735 C 0.44237 0.35667 0.3899 0.0
H736 H 0.43518 0.4048 0.27635 0.0
C737 C 0.48747 0.42891 0.42604 0.0
C738 C 0.48071 0.447 0.39498 0.0
C739 C 0.47476 0.41193 0.42835 0.0
C740 C 0.43657 0.39166 0.31005 0.0
H741 H 0.47499 0.2984 0.25511 0.0
H742 H 0.46509 0.32488 0.33906 0.0
H743 H 0.4285 0.37186 0.22478 0.0
H744 H 0.45445 0.4626 0.35257 0.0
H745 H 0.43213 0.43296 0.35721 0.0
H746 H 0.45213 0.37681 0.47345 0.0
C747 C 0.4554 0.32211 0.29364 0.0
C748 C 0.4327 0.37255 0.28016 0.0
C749 C 0.46121 0.30694 0.24522 0.0
C750 C 0.46022 0.44862 0.37487 0.0
C751 C 0.44745 0.43167 0.37769 0.0
C752 C 0.44636 0.37588 0.41981 0.0
C753 C 0.43881 0.33497 0.27914 0.0
C754 C 0.43671 0.35474 0.31823 0.0
C755 C 0.45502 0.41276 0.39987 0.0
C756 C 0.44465 0.3935 0.37872 0.0
H757 H 0.42445 0.31395 0.12096 0.0
H758 H 0.41372 0.33997 0.2068 0.0
H759 H 0.44506 0.3433 0.42146 0.0
H760 H 0.50315 0.42722 0.44237 0.0
H761 H 0.48119 0.39767 0.44581 0.0
C762 C 0.22014 0.45038 0.17723 0.0
C763 C 0.23558 0.46466 0.19128 0.0
C764 C 0.20479 0.44713 0.22684 0.0
C765 C 0.18017 0.48161 0.34909 0.0
H766 H 0.13869 0.43979 0.34854 0.0
C767 C 0.09837 0.50526 0.39127 0.0
C768 C 0.08444 0.49684 0.34243 0.0
C769 C 0.1172 0.49614 0.40246 0.0
C770 C 0.15012 0.45163 0.34933 0.0
H771 H 0.24918 0.48363 0.27356 0.0
H772 H 0.22301 0.47716 0.36091 0.0
H773 H 0.17376 0.43075 0.31887 0.0
H774 H 0.07915 0.47113 0.27129 0.0
H775 H 0.11268 0.45636 0.28567 0.0
H776 H 0.15676 0.50279 0.37347 0.0
C777 C 0.22221 0.46922 0.31036 0.0
C778 C 0.17024 0.44641 0.33283 0.0
C779 C 0.23736 0.47277 0.26029 0.0
C780 C 0.08963 0.47849 0.30756 0.0
C781 C 0.10878 0.46969 0.3172 0.0
C782 C 0.16018 0.48682 0.36494 0.0
C783 C 0.20484 0.45788 0.29174 0.0
C784 C 0.18531 0.46155 0.32935 0.0
C785 C 0.12306 0.47878 0.36318 0.0
C786 C 0.1447 0.4721 0.3622 0.0
H787 H 0.21877 0.44329 0.12532 0.0
H788 H 0.19182 0.43804 0.21081 0.0
H789 H 0.19117 0.49382 0.34594 0.0
H790 H 0.09526 0.51943 0.41905 0.0
H791 H 0.12754 0.5033 0.43975 0.0
C792 C 0.97319 0.79502 0.96517 0.0
C793 C 0.96348 0.79916 0.02994 0.0
C794 C 0.96836 0.80619 0.90528 0.0
C795 C 0.95164 0.85797 0.87008 0.0
H796 H 0.97015 0.84188 0.68263 0.0
C797 C 0.01516 0.88912 0.69546 0.0
C798 C 0.01064 0.91005 0.69522 0.0
C799 C 0.9999 0.87486 0.70729 0.0
C800 C 0.96444 0.84662 0.7341 0.0
H801 H 0.93955 0.81658 0.08118 0.0
H802 H 0.93071 0.8359 0.97584 0.0
H803 H 0.95821 0.81599 0.76429 0.0
H804 H 0.98594 0.93206 0.69713 0.0
H805 H 0.95949 0.90711 0.72226 0.0
H806 H 0.95891 0.88842 0.84132 0.0
C807 C 0.94249 0.82442 0.97175 0.0
C808 C 0.95778 0.8318 0.78118 0.0
C809 C 0.94752 0.81337 0.03208 0.0
C810 C 0.99013 0.91614 0.69993 0.0
C811 C 0.9749 0.90186 0.71317 0.0
C812 C 0.95797 0.87278 0.82266 0.0
C813 C 0.95359 0.8217 0.90853 0.0
C814 C 0.95288 0.83717 0.8516 0.0
C815 C 0.97984 0.88119 0.7202 0.0
C816 C 0.96585 0.86706 0.75624 0.0
H817 H 0.98565 0.78426 0.96197 0.0
H818 H 0.97751 0.80374 0.85829 0.0
H819 H 0.94798 0.86285 0.92355 0.0
H820 H 0.03068 0.88372 0.69228 0.0
H821 H 1.00423 0.85905 0.71316 0.0
C822 C 0.73632 0.96688 0.97677 0.0
C823 C 0.72793 0.96202 0.04301 0.0
C824 C 0.72533 0.96344 0.91456 0.0
C825 C 0.67376 0.94689 0.84721 0.0
H826 H 0.6777 0.99878 0.75326 0.0
C827 C 0.62531 0.01193 0.68619 0.0
C828 C 0.60896 0.01288 0.73394 0.0
C829 C 0.64041 0.99717 0.69361 0.0
C830 C 0.6765 0.98389 0.7768 0.0
H831 H 0.70276 0.94661 0.09377 0.0
H832 H 0.68287 0.94251 0.98702 0.0
H833 H 0.70542 0.98743 0.82458 0.0
H834 H 0.59428 0.99767 0.82131 0.0
H835 H 0.62072 0.97225 0.83523 0.0
H836 H 0.64376 0.94457 0.80341 0.0
C837 C 0.69804 0.94868 0.9823 0.0
C838 C 0.69261 0.97725 0.8182 0.0
C839 C 0.70933 0.95148 0.04427 0.0
C840 C 0.60675 0.99738 0.78383 0.0
C841 C 0.62192 0.98269 0.79155 0.0
C842 C 0.65746 0.95368 0.80607 0.0
C843 C 0.70538 0.95582 0.91718 0.0
C844 C 0.69105 0.95924 0.85732 0.0
C845 C 0.63953 0.98322 0.74932 0.0
C846 C 0.65827 0.9728 0.77362 0.0
H847 H 0.75066 0.97482 0.97271 0.0
H848 H 0.73189 0.96833 0.86504 0.0
H849 H 0.67223 0.93261 0.87469 0.0
H850 H 0.6271 0.0234 0.64596 0.0
H851 H 0.65356 0.99768 0.65915 0.0
C852 C 0.55371 0.7328 0.01087 0.0
C853 C 0.56802 0.7392 0.0612 0.0
C854 C 0.55864 0.71751 0.96177 0.0
C855 C 0.56967 0.68249 0.86635 0.0
H856 H 0.59885 0.64144 0.97102 0.0
C857 C 0.55463 0.59694 0.81807 0.0
C858 C 0.55049 0.58684 0.88172 0.0
C859 C 0.5641 0.61605 0.81914 0.0
C860 C 0.59075 0.65273 0.94067 0.0
H861 H 0.5992 0.73664 0.09572 0.0
H862 H 0.6084 0.71084 0.00686 0.0
H863 H 0.6019 0.67674 1.00619 0.0
H864 H 0.55348 0.58866 0.99597 0.0
H865 H 0.56971 0.62159 0.99801 0.0
H866 H 0.55673 0.65791 0.80616 0.0
C867 C 0.59309 0.71686 0.00675 0.0
C868 C 0.59273 0.67318 0.96014 0.0
C869 C 0.58797 0.73182 0.05709 0.0
C870 C 0.55674 0.59582 0.94591 0.0
C871 C 0.56617 0.61476 0.94698 0.0
C872 C 0.56735 0.66192 0.84783 0.0
C873 C 0.5781 0.70849 0.96166 0.0
C874 C 0.58119 0.68825 0.9262 0.0
C875 C 0.56967 0.62532 0.88385 0.0
C876 C 0.57686 0.64676 0.8879 0.0
H877 H 0.53817 0.73821 0.01384 0.0
H878 H 0.54652 0.71156 0.92883 0.0
H879 H 0.56117 0.69369 0.83701 0.0
H880 H 0.55026 0.59024 0.76761 0.0
H881 H 0.5667 0.62371 0.76955 0.0
C882 C 0.80561 0.58126 0.06485 0.0
C883 C 0.78975 0.56724 0.05444 0.0
C884 C 0.81978 0.58458 0.01132 0.0
C885 C 0.84199 0.5511 0.8806 0.0
H886 H 0.88269 0.59368 0.87713 0.0
C887 C 0.92391 0.52852 0.84009 0.0
C888 C 0.93701 0.53679 0.89193 0.0
C889 C 0.90524 0.53765 0.82581 0.0
C890 C 0.87144 0.58165 0.8771 0.0
H891 H 0.77435 0.54829 0.97633 0.0
H892 H 0.79874 0.55459 0.88218 0.0
H893 H 0.84782 0.60201 0.91152 0.0
H894 H 0.94133 0.56238 0.96432 0.0
H895 H 0.90815 0.57727 0.94397 0.0
H896 H 0.86554 0.53043 0.85231 0.0
C897 C 0.80064 0.5625 0.93243 0.0
C898 C 0.85145 0.58645 0.89642 0.0
C899 C 0.78656 0.559 0.98631 0.0
C900 C 0.9314 0.55514 0.92587 0.0
C901 C 0.91249 0.564 0.91281 0.0
C902 C 0.86188 0.54631 0.8617 0.0
C903 C 0.81824 0.57404 0.94622 0.0
C904 C 0.83682 0.57098 0.90258 0.0
C905 C 0.89884 0.55493 0.86448 0.0
C906 C 0.87713 0.56129 0.86383 0.0
H907 H 0.80809 0.58828 0.11636 0.0
H908 H 0.83303 0.59368 0.024 0.0
H909 H 0.83128 0.53868 0.8851 0.0
H910 H 0.92749 0.5144 0.81264 0.0
H911 H 0.89536 0.5305 0.78698 0.0
C912 C 0.05023 0.21673 0.92431 0.0
C913 C 0.03549 0.22585 0.96859 0.0
C914 C 0.0459 0.19892 0.88531 0.0
C915 C 0.01196 0.15396 0.89224 0.0
H916 H 0.03534 0.1406 0.70895 0.0
C917 C 0.99248 0.07859 0.7451 0.0
C918 C 1.00783 0.06835 0.70705 0.0
C919 C 0.9958 0.09804 0.7741 0.0
C920 C 0.0289 0.14394 0.76057 0.0
H921 H 1.00433 0.22378 1.00402 0.0
H922 H 0.99653 0.19287 0.9349 0.0
H923 H 0.04008 0.17465 0.76012 0.0
H924 H 0.03845 0.071 0.66646 0.0
H925 H 0.04452 0.10495 0.71842 0.0
H926 H 1.00107 0.12326 0.89347 0.0
C927 C 0.01158 0.1994 0.93086 0.0
C928 C 0.03154 0.16358 0.7899 0.0
C929 C 0.01591 0.21735 0.9696 0.0
C930 C 0.02652 0.07827 0.69721 0.0
C931 C 0.02986 0.09787 0.72621 0.0
C932 C 0.00939 0.13436 0.8631 0.0
C933 C 0.02672 0.18954 0.88983 0.0
C934 C 0.0231 0.16892 0.85626 0.0
C935 C 0.01453 0.10805 0.76533 0.0
C936 C 0.01778 0.12899 0.79673 0.0
H937 H 0.06555 0.22274 0.92314 0.0
H938 H 0.05803 0.19185 0.85497 0.0
H939 H 1.00561 0.15721 0.94407 0.0
H940 H 0.97776 0.07153 0.75219 0.0
H941 H 0.98342 0.10542 0.80226 0.0
C942 C 0.31914 0.05803 0.92114 0.0
C943 C 0.31019 0.04387 0.96692 0.0
C944 C 0.33556 0.0525 0.87752 0.0
C945 C 0.37836 0.01609 0.87281 0.0
H946 H 0.38788 0.03733 0.68517 0.0
C947 C 0.45011 0.99331 0.71309 0.0
C948 C 0.45983 1.00827 0.67299 0.0
C949 C 0.43106 0.99703 0.74393 0.0
C950 C 0.38562 0.03145 0.73787 0.0
H951 H 0.31109 0.01258 1.00084 0.0
H952 H 0.33966 1.00275 0.92405 0.0
H953 H 0.35561 0.04421 0.74513 0.0
H954 H 0.4564 0.03826 0.62847 0.0
H955 H 0.42329 0.04506 0.68331 0.0
H956 H 0.40846 1.00382 0.86683 0.0
C957 C 0.33401 0.01822 0.92207 0.0
C958 C 0.36701 0.03533 0.77221 0.0
C959 C 0.31741 0.02373 0.96529 0.0
C960 C 0.44959 0.02671 0.66121 0.0
C961 C 0.43043 0.03045 0.69187 0.0
C962 C 0.39698 0.01234 0.83879 0.0
C963 C 0.34371 0.03269 0.87905 0.0
C964 C 0.36309 0.0277 0.84026 0.0
C965 C 0.42098 0.01576 0.73471 0.0
C966 C 0.40095 0.01991 0.77068 0.0
H967 H 0.31412 0.07375 0.92206 0.0
H968 H 0.34262 0.06414 0.84576 0.0
H969 H 0.37618 0.01034 0.92572 0.0
H970 H 0.4574 0.97873 0.72137 0.0
H971 H 0.42417 0.98508 0.77467 0.0
C972 C 0.46585 0.31584 0.90631 0.0
C973 C 0.48121 0.30516 0.94191 0.0
C974 C 0.47065 0.33129 0.85883 0.0
C975 C 0.51159 0.36845 0.82462 0.0
H976 H 0.47747 0.38295 0.66576 0.0
C977 C 0.52617 0.44192 0.66556 0.0
C978 C 0.50897 0.45385 0.65071 0.0
C979 C 0.52409 0.42198 0.69032 0.0
C980 C 0.48711 0.3792 0.71019 0.0
H981 H 0.51376 0.3016 0.95232 0.0
H982 H 0.52228 0.32835 0.86799 0.0
H983 H 0.4719 0.35076 0.7258 0.0
H984 H 0.47605 0.45344 0.64539 0.0
H985 H 0.4724 0.41892 0.68918 0.0
H986 H 0.52653 0.39705 0.80993 0.0
C987 C 0.50642 0.32497 0.87771 0.0
C988 C 0.48392 0.36068 0.7447 0.0
C989 C 0.50158 0.3094 0.92523 0.0
C990 C 0.48966 0.44488 0.65752 0.0
C991 C 0.48756 0.42493 0.68204 0.0
C992 C 0.5148 0.38694 0.79002 0.0
C993 C 0.49101 0.33659 0.84553 0.0
C994 C 0.49588 0.35517 0.80329 0.0
C995 C 0.50474 0.41332 0.70033 0.0
C996 C 0.50238 0.39277 0.73305 0.0
H997 H 0.45 0.31299 0.9183 0.0
H998 H 0.45831 0.33989 0.83589 0.0
H999 H 0.52092 0.36501 0.87011 0.0
H1000 H 0.54128 0.44816 0.66047 0.0
H1001 H 0.53768 0.41342 0.70252 0.0
C1002 C 0.22365 0.51733 0.95123 0.0
C1003 C 0.23116 0.4974 0.95814 0.0
C1004 C 0.20618 0.5211 0.91031 0.0
C1005 C 0.15933 0.49442 0.86142 0.0
H1006 H 0.14852 0.5391 0.7348 0.0
C1007 C 0.07768 0.51569 0.77633 0.0
C1008 C 0.07429 0.51818 0.70338 0.0
C1009 C 0.09746 0.51428 0.80343 0.0
C1010 C 0.15135 0.52652 0.76996 0.0
H1011 H 0.22715 0.46611 0.92353 0.0
H1012 H 0.19702 0.47264 0.85207 0.0
H1013 H 0.18277 0.53472 0.78464 0.0
H1014 H 0.08942 0.52164 0.60213 0.0
H1015 H 0.12392 0.51979 0.64995 0.0
H1016 H 0.128 0.48636 0.84813 0.0
C1017 C 0.20439 0.48535 0.87861 0.0
C1018 C 0.17092 0.52408 0.79874 0.0
C1019 C 0.22182 0.48165 0.91881 0.0
C1020 C 0.09134 0.51989 0.65865 0.0
C1021 C 0.11117 0.51881 0.68601 0.0
C1022 C 0.13978 0.49706 0.8338 0.0
C1023 C 0.19582 0.50495 0.87619 0.0
C1024 C 0.17518 0.50789 0.8445 0.0
C1025 C 0.11448 0.51568 0.75865 0.0
C1026 C 0.13548 0.51311 0.78762 0.0
H1027 H 0.23027 0.5297 0.98193 0.0
H1028 H 0.19998 0.53637 0.90958 0.0
H1029 H 0.16198 0.48193 0.89716 0.0
H1030 H 0.06502 0.51465 0.81276 0.0
H1031 H 0.09944 0.51213 0.85976 0.0
C1032 C 0.01145 0.81838 0.2823 0.0
C1033 C 0.99161 0.81121 0.27054 0.0
C1034 C 0.01491 0.83598 0.32415 0.0
C1035 C 0.98746 0.88284 0.38823 0.0
H1036 H 0.03654 0.89211 0.49706 0.0
C1037 C 1.00092 0.95699 0.55685 0.0
C1038 C 0.02036 0.96574 0.55203 0.0
C1039 C 0.99697 0.93766 0.5268 0.0
C1040 C 0.02279 0.88985 0.46648 0.0
H1041 H 0.95996 0.81635 0.29606 0.0
H1042 H 0.96591 0.84629 0.37103 0.0
H1043 H 0.03084 0.85899 0.44018 0.0
H1044 H 0.05104 0.9607 0.51437 0.0
H1045 H 0.04425 0.92717 0.46221 0.0
H1046 H 0.97948 0.91375 0.41451 0.0
C1047 C 0.97888 0.83882 0.34672 0.0
C1048 C 0.01951 0.87078 0.43364 0.0
C1049 C 0.97545 0.8214 0.3046 0.0
C1050 C 0.03582 0.95451 0.51801 0.0
C1051 C 0.03195 0.93519 0.48861 0.0
C1052 C 0.9907 0.90186 0.42133 0.0
C1053 C 0.99859 0.84685 0.35543 0.0
C1054 C 1.00185 0.86696 0.39344 0.0
C1055 C 0.01248 0.92642 0.49252 0.0
C1056 C 0.00851 0.90574 0.46038 0.0
H1057 H 0.02417 0.81114 0.25556 0.0
H1058 H 0.03031 0.84162 0.3288 0.0
H1059 H 0.97384 0.88084 0.35681 0.0
H1060 H 0.98883 0.96497 0.58461 0.0
H1061 H 0.98185 0.93134 0.5317 0.0
C1062 C 0.70689 0.97854 0.31763 0.0
C1063 C 0.71754 0.99371 0.28117 0.0
C1064 C 0.68968 0.98336 0.3584 0.0
C1065 C 0.64853 0.02175 0.36976 0.0
H1066 H 0.63437 0.99388 0.54221 0.0
C1067 C 0.57407 0.04177 0.51893 0.0
C1068 C 0.56363 0.02632 0.55445 0.0
C1069 C 0.59356 0.03835 0.4911 0.0
C1070 C 0.6379 1.00179 0.49399 0.0
H1071 H 0.71866 0.02595 0.26002 0.0
H1072 H 0.68869 0.03456 0.33207 0.0
H1073 H 0.66729 0.98771 0.48725 0.0
H1074 H 0.56627 0.99573 0.59448 0.0
H1075 H 0.59983 0.98928 0.54348 0.0
H1076 H 0.61905 0.03538 0.37488 0.0
C1077 C 0.69364 0.01884 0.32907 0.0
C1078 C 0.65692 0.99822 0.46227 0.0
C1079 C 0.71102 0.014 0.28866 0.0
C1080 C 0.57363 1.0077 0.56507 0.0
C1081 C 0.5931 1.00416 0.5366 0.0
C1082 C 0.62949 0.02525 0.40127 0.0
C1083 C 0.68241 1.0035 0.36318 0.0
C1084 C 0.66256 1.00814 0.39958 0.0
C1085 C 0.60331 0.01933 0.49797 0.0
C1086 C 0.62381 0.01543 0.46427 0.0
H1087 H 0.71131 0.96271 0.31162 0.0
H1088 H 0.68143 0.97107 0.38299 0.0
H1089 H 0.65201 0.02931 0.32065 0.0
H1090 H 0.56702 0.05651 0.51183 0.0
H1091 H 0.60097 0.05078 0.46438 0.0
C1092 C 0.5601 0.72367 0.33999 0.0
C1093 C 0.54354 0.73291 0.30618 0.0
C1094 C 0.55721 0.70698 0.38416 0.0
C1095 C 0.51826 0.67547 0.47713 0.0
H1096 H 0.55791 0.63257 0.44567 0.0
C1097 C 0.50527 0.59136 0.561 0.0
C1098 C 0.52216 0.57979 0.58214 0.0
C1099 C 0.50769 0.61129 0.53648 0.0
C1100 C 0.54684 0.64445 0.45626 0.0
H1101 H 0.51088 0.73239 0.29412 0.0
H1102 H 0.50569 0.7031 0.37127 0.0
H1103 H 0.56226 0.66513 0.38841 0.0
H1104 H 0.55472 0.58086 0.59909 0.0
H1105 H 0.55896 0.61551 0.55689 0.0
H1106 H 0.50267 0.65445 0.54416 0.0
C1107 C 0.52095 0.70894 0.36462 0.0
C1108 C 0.54935 0.66324 0.42327 0.0
C1109 C 0.52386 0.7258 0.32063 0.0
C1110 C 0.5414 0.58911 0.58169 0.0
C1111 C 0.54385 0.60901 0.55725 0.0
C1112 C 0.51574 0.65659 0.51024 0.0
C1113 C 0.53768 0.69883 0.39501 0.0
C1114 C 0.53511 0.67907 0.43301 0.0
C1115 C 0.52709 0.62027 0.53273 0.0
C1116 C 0.52999 0.64077 0.50011 0.0
H1117 H 0.57544 0.72875 0.3293 0.0
H1118 H 0.57043 0.7 0.40784 0.0
H1119 H 0.50706 0.68729 0.48651 0.0
H1120 H 0.49023 0.58482 0.56051 0.0
H1121 H 0.49442 0.61934 0.51775 0.0
C1122 C 0.80415 0.55109 0.33256 0.0
C1123 C 0.79534 0.53582 0.28972 0.0
C1124 C 0.82143 0.54705 0.37346 0.0
C1125 C 0.86602 0.51272 0.37258 0.0
H1126 H 0.87835 0.53985 0.55098 0.0
C1127 C 0.93518 0.51749 0.59558 0.0
C1128 C 0.9521 0.51874 0.55013 0.0
C1129 C 0.9153 0.51812 0.56864 0.0
C1130 C 0.87515 0.53197 0.5015 0.0
H1131 H 0.79741 0.50416 0.25771 0.0
H1132 H 0.82737 0.49684 0.33037 0.0
H1133 H 0.84432 0.54263 0.50051 0.0
H1134 H 0.96115 0.5215 0.4403 0.0
H1135 H 0.92666 0.52272 0.39359 0.0
H1136 H 0.89683 0.50209 0.37339 0.0
C1137 C 0.82098 0.51204 0.33219 0.0
C1138 C 0.85562 0.53372 0.47215 0.0
C1139 C 0.80358 0.5161 0.2915 0.0
C1140 C 0.94855 0.52051 0.47702 0.0
C1141 C 0.92869 0.52104 0.45009 0.0
C1142 C 0.88555 0.51104 0.40175 0.0
C1143 C 0.83056 0.52764 0.37201 0.0
C1144 C 0.8508 0.5243 0.40682 0.0
C1145 C 0.91173 0.51989 0.49542 0.0
C1146 C 0.89052 0.52083 0.46625 0.0
H1147 H 0.79843 0.56655 0.33076 0.0
H1148 H 0.82838 0.55953 0.40255 0.0
H1149 H 0.86307 0.50543 0.32186 0.0
H1150 H 0.93728 0.5162 0.65222 0.0
H1151 H 0.90269 0.51702 0.60528 0.0
loop_
_geom_bond_atom_site_label_1
_geom_bond_atom_site_label_2
_geom_bond_distance
_geom_bond_site_symmetry_2
_ccdc_geom_bond_type
H0 C5 0.930 . S
H1 C8 0.930 . S
H2 C10 0.930 . S
H3 C4 1.016 . S
C4 H3 1.016 . S
C4 N11 1.286 . S
C5 H0 0.930 . S
C5 C6 1.397 . S
C5 C7 1.361 . S
C6 C5 1.397 . S
C6 C10 1.390 . S
C7 C5 1.361 . S
C7 C8 1.393 . S
C7 N11 1.413 . S
C8 H1 0.930 . S
C8 C7 1.393 . S
C8 C9 1.399 . S
C9 C8 1.399 . S
C9 C10 1.381 . S
C10 H2 0.930 . S
C10 C6 1.390 . S
C10 C9 1.381 . S
N11 C4 1.286 . S
N11 C7 1.413 . S
H12 C17 0.930 . S
H13 C20 0.930 . S
H14 C22 0.930 . S
H15 C16 1.016 . S
C16 H15 1.016 . S
C16 N23 1.286 . S
C17 H12 0.930 . S
C17 C18 1.397 . S
C17 C19 1.361 . S
C18 C17 1.397 . S
C18 C22 1.390 . S
C19 C17 1.361 . S
C19 C20 1.393 . S
C19 N23 1.413 . S
C20 H13 0.930 . S
C20 C19 1.393 . S
C20 C21 1.399 . S
C21 C20 1.399 . S
C21 C22 1.381 . S
C22 H14 0.930 . S
C22 C18 1.390 . S
C22 C21 1.381 . S
N23 C16 1.286 . S
N23 C19 1.413 . S
H24 C29 0.930 . S
H25 C32 0.930 . S
H26 C34 0.930 . S
H27 C28 1.016 . S
C28 H27 1.016 . S
C28 N35 1.286 . S
C29 H24 0.930 . S
C29 C30 1.397 . S
C29 C31 1.361 . S
C30 C29 1.397 . S
C30 C34 1.390 . S
C31 C29 1.361 . S
C31 C32 1.393 . S
C31 N35 1.413 . S
C32 H25 0.930 . S
C32 C31 1.393 . S
C32 C33 1.399 . S
C33 C32 1.399 . S
C33 C34 1.381 . S
C34 H26 0.930 . S
C34 C30 1.390 . S
C34 C33 1.381 . S
N35 C28 1.286 . S
N35 C31 1.413 . S
H36 C41 0.930 . S
H37 C44 0.930 . S
H38 C46 0.930 . S
H39 C40 1.016 . S
C40 H39 1.016 . S
C40 N47 1.286 . S
C41 H36 0.930 . S
C41 C42 1.397 . S
C41 C43 1.361 . S
C42 C41 1.397 . S
C42 C46 1.390 . S
C43 C41 1.361 . S
C43 C44 1.393 . S
C43 N47 1.413 . S
C44 H37 0.930 . S
C44 C43 1.393 . S
C44 C45 1.399 . S
C45 C44 1.399 . S
C45 C46 1.381 . S
C46 H38 0.930 . S
C46 C42 1.390 . S
C46 C45 1.381 . S
N47 C40 1.286 . S
N47 C43 1.413 . S
H48 C53 0.930 . S
H49 C56 0.930 . S
H50 C58 0.930 . S
H51 C52 1.016 . S
C52 H51 1.016 . S
C52 N59 1.286 . S
C53 H48 0.930 . S
C53 C54 1.397 . S
C53 C55 1.361 1_556 S
C54 C53 1.397 . S
C54 C58 1.390 . S
C55 C53 1.361 1_554 S
C55 C56 1.393 . S
C55 N59 1.413 . S
C56 H49 0.930 . S
C56 C55 1.393 . S
C56 C57 1.399 . S
C57 C56 1.399 . S
C57 C58 1.381 1_554 S
C58 H50 0.930 . S
C58 C54 1.390 . S
C58 C57 1.381 1_556 S
N59 C52 1.286 . S
N59 C55 1.413 . S
H60 C65 0.930 . S
H61 C68 0.930 . S
H62 C70 0.930 . S
H63 C64 1.016 . S
C64 H63 1.016 . S
C64 N71 1.286 . S
C65 H60 0.930 . S
C65 C66 1.397 . S
C65 C67 1.361 1_556 S
C66 C65 1.397 . S
C66 C70 1.390 . S
C67 C65 1.361 1_554 S
C67 C68 1.393 . S
C67 N71 1.413 . S
C68 H61 0.930 . S
C68 C67 1.393 . S
C68 C69 1.399 . S
C69 C68 1.399 . S
C69 C70 1.381 1_554 S
C70 H62 0.930 . S
C70 C66 1.390 . S
C70 C69 1.381 1_556 S
N71 C64 1.286 . S
N71 C67 1.413 . S
H72 C77 0.930 . S
H73 C80 0.930 . S
H74 C82 0.930 . S
H75 C76 1.016 . S
C76 H75 1.016 . S
C76 N83 1.286 . S
C77 H72 0.930 . S
C77 C78 1.397 . S
C77 C79 1.361 1_556 S
C78 C77 1.397 . S
C78 C82 1.390 . S
C79 C77 1.361 1_554 S
C79 C80 1.393 . S
C79 N83 1.413 . S
C80 H73 0.930 . S
C80 C79 1.393 . S
C80 C81 1.399 . S
C81 C80 1.399 . S
C81 C82 1.381 1_554 S
C82 H74 0.930 . S
C82 C78 1.390 . S
C82 C81 1.381 1_556 S
N83 C76 1.286 . S
N83 C79 1.413 . S
H84 C89 0.930 . S
H85 C92 0.930 . S
H86 C94 0.930 . S
H87 C88 1.016 . S
C88 H87 1.016 . S
C88 N95 1.286 . S
C89 H84 0.930 . S
C89 C90 1.397 . S
C89 C91 1.361 1_556 S
C90 C89 1.397 . S
C90 C94 1.390 . S
C91 C89 1.361 1_554 S
C91 C92 1.393 . S
C91 N95 1.413 . S
C92 H85 0.930 . S
C92 C91 1.393 . S
C92 C93 1.399 . S
C93 C92 1.399 . S
C93 C94 1.381 1_554 S
C94 H86 0.930 . S
C94 C90 1.390 . S
C94 C93 1.381 1_556 S
N95 C88 1.286 . S
N95 C91 1.413 . S
Eu96 N127 2.657 1_565 S
Eu96 N134 2.601 1_565 S
Eu96 O140 2.558 . S
Eu96 O141 2.612 1_455 S
Eu96 O143 2.347 1_455 S
Eu96 O144 2.563 . S
Eu96 O145 2.419 . S
Eu96 O147 2.380 1_565 S
Eu96 O148 2.432 . S
Eu96 C160 2.848 . S
C97 C100 1.408 1_545 S
C97 C101 1.411 . S
C97 N104 1.377 . S
C98 C100 1.454 . S
C98 C102 1.423 . S
C98 C110 1.392 . S
C99 C101 1.420 1_565 S
C99 C102 1.351 . S
C99 H122 0.931 . S
C100 C97 1.408 1_565 S
C100 C98 1.454 . S
C100 N108 1.352 1_565 S
C101 C97 1.411 . S
C101 C99 1.420 1_545 S
C101 C106 1.395 . S
C102 C98 1.423 . S
C102 C99 1.351 . S
C102 H114 0.930 . S
C103 C105 1.400 . S
C103 C106 1.386 . S
C103 H115 0.930 . S
N104 C97 1.377 . S
N104 C105 1.321 . S
N104 Eu107 2.609 . S
C105 C103 1.400 . S
C105 N104 1.321 . S
C105 H112 0.930 . S
C106 C101 1.395 . S
C106 C103 1.386 . S
C106 H125 0.930 . S
Eu107 N104 2.609 . S
Eu107 N108 2.657 . S
Eu107 O141 2.380 1_545 S
Eu107 O142 2.432 . S
Eu107 O146 2.558 . S
Eu107 O147 2.612 1_655 S
Eu107 O149 2.339 1_655 S
Eu107 O150 2.563 1_655 S
Eu107 O151 2.418 . S
Eu107 C171 2.848 . S
N108 C100 1.352 1_545 S
N108 Eu107 2.657 . S
N108 C109 1.334 1_645 S
C109 N108 1.334 1_465 S
C109 C111 1.413 . S
C109 H116 0.929 . S
C110 C98 1.392 . S
C110 C111 1.367 1_655 S
C110 H118 0.930 . S
C111 C109 1.413 . S
C111 C110 1.367 1_455 S
C111 H113 0.930 . S
H112 C105 0.930 . S
H113 C111 0.930 . S
H114 C102 0.930 . S
H115 C103 0.930 . S
H116 C109 0.929 . S
H117 C131 0.930 1_655 S
H118 C110 0.930 . S
H119 C137 0.930 . S
H120 C128 0.929 1_655 S
H121 C135 0.930 . S
H122 C99 0.931 . S
H123 C129 0.930 . S
H124 C162 0.930 . S
H125 C106 0.930 . S
H126 C161 0.931 . S
N127 Eu96 2.657 1_545 S
N127 C128 1.334 . S
N127 C132 1.362 . S
C128 H120 0.929 1_455 S
C128 N127 1.334 . S
C128 C131 1.413 . S
C129 H123 0.930 . S
C129 C130 1.392 . S
C129 C131 1.367 . S
C130 C129 1.392 . S
C130 C132 1.420 . S
C130 C162 1.423 . S
C131 H117 0.930 1_455 S
C131 C128 1.413 . S
C131 C129 1.367 . S
C132 N127 1.362 . S
C132 C130 1.420 . S
C132 C136 1.429 . S
H133 C138 0.930 . S
N134 Eu96 2.601 1_545 S
N134 C136 1.396 . S
N134 C137 1.307 1_545 S
C135 H121 0.930 . S
C135 C137 1.400 . S
C135 C138 1.386 1_565 S
C136 C132 1.429 . S
C136 N134 1.396 . S
C136 C139 1.411 . S
C137 H119 0.930 . S
C137 N134 1.307 1_565 S
C137 C135 1.400 . S
C138 H133 0.930 . S
C138 C135 1.386 1_545 S
C138 C139 1.395 . S
C139 C136 1.411 . S
C139 C138 1.395 . S
C139 C161 1.420 . S
O140 Eu96 2.558 . S
O140 C160 1.257 . S
O141 Eu96 2.612 1_655 S
O141 Eu107 2.380 1_565 S
O141 C152 1.276 . S
O142 Eu107 2.432 . S
O142 C159 1.264 . S
O143 Eu96 2.347 1_655 S
O143 C159 1.242 1_565 S
O144 Eu96 2.563 . S
O144 C152 1.235 1_455 S
O145 Eu96 2.419 . S
O145 C160 1.249 . S
O146 Eu107 2.558 . S
O146 C171 1.257 . S
O147 Eu96 2.380 1_545 S
O147 Eu107 2.612 1_455 S
O147 C163 1.276 . S
O148 Eu96 2.432 . S
O148 C170 1.264 1_565 S
O149 Eu107 2.339 1_455 S
O149 C170 1.254 . S
O150 Eu107 2.563 1_455 S
O150 C163 1.235 . S
O151 Eu107 2.418 . S
O151 C171 1.245 . S
C152 O141 1.276 . S
C152 O144 1.235 1_655 S
C153 C155 1.393 . S
C153 C157 1.395 . S
C153 C160 1.492 . S
C154 C155 1.392 . S
C154 C156 1.386 . S
C155 C153 1.393 . S
C155 C154 1.392 . S
C155 H172 0.930 1_455 S
C156 C154 1.386 . S
C156 C158 1.395 . S
C156 H173 0.930 . S
C157 C153 1.395 . S
C157 C158 1.379 . S
C157 H174 0.930 . S
C158 C156 1.395 . S
C158 C157 1.379 . S
C158 H175 0.930 . S
C159 O142 1.264 . S
C159 O143 1.242 1_545 S
C160 Eu96 2.848 . S
C160 O140 1.257 . S
C160 O145 1.249 . S
C160 C153 1.492 . S
C161 H126 0.931 . S
C161 C139 1.420 . S
C161 C162 1.351 . S
C162 H124 0.930 . S
C162 C130 1.423 . S
C162 C161 1.351 . S
C163 O147 1.276 . S
C163 O150 1.235 . S
C164 C165 1.368 1_655 S
C164 C168 1.395 . S
C164 C171 1.492 . S
C165 C164 1.368 1_455 S
C165 C166 1.391 1_455 S
C165 H176 0.956 . S
C166 C165 1.391 1_655 S
C166 C167 1.408 . S
C167 C166 1.408 . S
C167 C169 1.395 . S
C167 H177 0.930 . S
C168 C164 1.395 . S
C168 C169 1.379 . S
C168 H178 0.930 . S
C169 C167 1.395 . S
C169 C168 1.379 . S
C169 H179 0.930 . S
C170 O148 1.264 1_545 S
C170 O149 1.254 . S
C171 Eu107 2.848 . S
C171 O146 1.257 . S
C171 O151 1.245 . S
C171 C164 1.492 . S
H172 C155 0.930 1_655 S
H173 C156 0.930 . S
H174 C157 0.930 . S
H175 C158 0.930 . S
H176 C165 0.956 . S
H177 C167 0.930 . S
H178 C168 0.930 . S
H179 C169 0.930 . S
Eu180 N211 2.657 . S
Eu180 N218 2.609 . S
Eu180 O224 2.558 . S
Eu180 O225 2.614 1_545 S
Eu180 O227 2.339 1_545 S
Eu180 O228 2.563 . S
Eu180 O229 2.419 . S
Eu180 O231 2.380 . S
Eu180 O232 2.432 . S
Eu180 C244 2.848 . S
C181 C184 1.429 . S
C181 C185 1.411 . S
C181 N188 1.377 . S
C182 C184 1.420 . S
C182 C186 1.423 . S
C182 C194 1.392 . S
C183 C185 1.420 . S
C183 C186 1.351 . S
C183 H206 0.931 . S
C184 C181 1.429 . S
C184 C182 1.420 . S
C184 N192 1.362 . S
C185 C181 1.411 . S
C185 C183 1.420 . S
C185 C190 1.395 . S
C186 C182 1.423 . S
C186 C183 1.351 . S
C186 H198 0.930 . S
C187 C189 1.400 . S
C187 C190 1.386 . S
C187 H199 0.930 . S
N188 C181 1.377 . S
N188 C189 1.321 . S
N188 Eu191 2.609 . S
C189 C187 1.400 . S
C189 N188 1.321 . S
C189 H196 0.930 . S
C190 C185 1.395 . S
C190 C187 1.386 . S
C190 H209 0.930 . S
Eu191 N188 2.609 . S
Eu191 N192 2.657 . S
Eu191 O225 2.380 . S
Eu191 O226 2.432 . S
Eu191 O230 2.558 . S
Eu191 O231 2.612 1_565 S
Eu191 O233 2.339 1_565 S
Eu191 O234 2.563 1_565 S
Eu191 O235 2.419 1_565 S
Eu191 C255 2.848 . S
N192 C184 1.362 . S
N192 Eu191 2.657 . S
N192 C193 1.334 1_565 S
C193 N192 1.334 1_545 S
C193 C195 1.413 . S
C193 H200 0.929 . S
C194 C182 1.392 . S
C194 C195 1.367 1_565 S
C194 H202 0.930 . S
C195 C193 1.413 . S
C195 C194 1.367 1_545 S
C195 H197 0.930 . S
H196 C189 0.930 . S
H197 C195 0.930 . S
H198 C186 0.930 . S
H199 C187 0.930 . S
H200 C193 0.929 . S
H201 C215 0.930 1_565 S
H202 C194 0.930 . S
H203 C221 0.930 . S
H204 C212 0.929 1_565 S
H205 C219 0.930 . S
H206 C183 0.931 . S
H207 C213 0.930 . S
H208 C246 0.930 . S
H209 C190 0.930 . S
H210 C245 0.931 . S
N211 Eu180 2.657 . S
N211 C212 1.334 . S
N211 C216 1.362 . S
C212 H204 0.929 1_545 S
C212 N211 1.334 . S
C212 C215 1.413 . S
C213 H207 0.930 . S
C213 C214 1.392 . S
C213 C215 1.367 . S
C214 C213 1.392 . S
C214 C216 1.420 . S
C214 C246 1.423 . S
C215 H201 0.930 1_545 S
C215 C212 1.413 . S
C215 C213 1.367 . S
C216 N211 1.362 . S
C216 C214 1.420 . S
C216 C220 1.429 . S
H217 C222 0.930 . S
N218 Eu180 2.609 . S
N218 C220 1.377 . S
N218 C221 1.321 . S
C219 H205 0.930 . S
C219 C221 1.400 . S
C219 C222 1.386 . S
C220 C216 1.429 . S
C220 N218 1.377 . S
C220 C223 1.411 . S
C221 H203 0.930 . S
C221 N218 1.321 . S
C221 C219 1.400 . S
C222 H217 0.930 . S
C222 C219 1.386 . S
C222 C223 1.395 . S
C223 C220 1.411 . S
C223 C222 1.395 . S
C223 C245 1.420 . S
O224 Eu180 2.558 . S
O224 C244 1.257 . S
O225 Eu180 2.614 1_565 S
O225 Eu191 2.380 . S
O225 C236 1.275 1_565 S
O226 Eu191 2.432 . S
O226 C243 1.264 . S
O227 Eu180 2.339 1_565 S
O227 C243 1.254 . S
O228 Eu180 2.563 . S
O228 C236 1.249 . S
O229 Eu180 2.419 . S
O229 C244 1.249 . S
O230 Eu191 2.558 . S
O230 C255 1.257 . S
O231 Eu180 2.380 . S
O231 Eu191 2.612 1_545 S
O231 C247 1.276 . S
O232 Eu180 2.432 . S
O232 C254 1.264 . S
O233 Eu191 2.339 1_545 S
O233 C254 1.254 . S
O234 Eu191 2.563 1_545 S
O234 C247 1.235 . S
O235 Eu191 2.419 1_545 S
O235 C255 1.249 1_545 S
C236 O225 1.275 1_545 S
C236 O228 1.249 . S
C237 C239 1.393 . S
C237 C241 1.395 . S
C237 C244 1.492 . S
C238 C239 1.392 . S
C238 C240 1.386 . S
C239 C237 1.393 . S
C239 C238 1.392 . S
C239 H256 0.930 . S
C240 C238 1.386 . S
C240 C242 1.395 . S
C240 H257 0.930 . S
C241 C237 1.395 . S
C241 C242 1.379 . S
C241 H258 0.930 . S
C242 C240 1.395 . S
C242 C241 1.379 . S
C242 H259 0.930 . S
C243 O226 1.264 . S
C243 O227 1.254 . S
C244 Eu180 2.848 . S
C244 O224 1.257 . S
C244 O229 1.249 . S
C244 C237 1.492 . S
C245 H210 0.931 . S
C245 C223 1.420 . S
C245 C246 1.351 . S
C246 H208 0.930 . S
C246 C214 1.423 . S
C246 C245 1.351 . S
C247 O231 1.276 . S
C247 O234 1.235 . S
C248 C249 1.393 1_565 S
C248 C252 1.395 . S
C248 C255 1.492 . S
C249 C248 1.393 1_545 S
C249 C250 1.392 . S
C249 H260 0.930 . S
C250 C249 1.392 . S
C250 C251 1.386 1_545 S
C251 C250 1.386 1_565 S
C251 C253 1.395 . S
C251 H261 0.930 . S
C252 C248 1.395 . S
C252 C253 1.379 . S
C252 H262 0.930 . S
C253 C251 1.395 . S
C253 C252 1.379 . S
C253 H263 0.930 . S
C254 O232 1.264 . S
C254 O233 1.254 . S
C255 Eu191 2.848 . S
C255 O230 1.257 . S
C255 O235 1.249 1_565 S
C255 C248 1.492 . S
H256 C239 0.930 . S
H257 C240 0.930 . S
H258 C241 0.930 . S
H259 C242 0.930 . S
H260 C249 0.930 . S
H261 C251 0.930 . S
H262 C252 0.930 . S
H263 C253 0.930 . S
Eu264 N295 2.657 . S
Eu264 N302 2.609 . S
Eu264 O308 2.558 . S
Eu264 O309 2.612 . S
Eu264 O311 2.339 . S
Eu264 O312 2.563 . S
Eu264 O313 2.419 . S
Eu264 O315 2.380 . S
Eu264 O316 2.432 . S
Eu264 C328 2.848 . S
C265 C268 1.429 . S
C265 C269 1.411 . S
C265 N272 1.377 . S
C266 C268 1.420 . S
C266 C270 1.423 . S
C266 C278 1.392 . S
C267 C269 1.420 . S
C267 C270 1.351 . S
C267 H290 0.931 . S
C268 C265 1.429 . S
C268 C266 1.420 . S
C268 N276 1.362 . S
C269 C265 1.411 . S
C269 C267 1.420 . S
C269 C274 1.395 . S
C270 C266 1.423 . S
C270 C267 1.351 . S
C270 H282 0.930 . S
C271 C273 1.400 . S
C271 C274 1.386 . S
C271 H283 0.930 . S
N272 C265 1.377 . S
N272 C273 1.321 . S
N272 Eu275 2.609 . S
C273 C271 1.400 . S
C273 N272 1.321 . S
C273 H280 0.930 . S
C274 C269 1.395 . S
C274 C271 1.386 . S
C274 H293 0.930 . S
Eu275 N272 2.609 . S
Eu275 N276 2.657 . S
Eu275 O309 2.380 . S
Eu275 O310 2.432 . S
Eu275 O314 2.558 . S
Eu275 O315 2.612 . S
Eu275 O317 2.339 . S
Eu275 O318 2.563 . S
Eu275 O319 2.419 . S
Eu275 C339 2.848 . S
N276 C268 1.362 . S
N276 Eu275 2.657 . S
N276 C277 1.334 . S
C277 N276 1.334 . S
C277 C279 1.413 . S
C277 H284 0.929 . S
C278 C266 1.392 . S
C278 C279 1.367 . S
C278 H286 0.930 . S
C279 C277 1.413 . S
C279 C278 1.367 . S
C279 H281 0.930 . S
H280 C273 0.930 . S
H281 C279 0.930 . S
H282 C270 0.930 . S
H283 C271 0.930 . S
H284 C277 0.929 . S
H285 C299 0.930 . S
H286 C278 0.930 . S
H287 C305 0.930 . S
H288 C296 0.929 . S
H289 C303 0.930 . S
H290 C267 0.931 . S
H291 C297 0.930 . S
H292 C330 0.930 . S
H293 C274 0.930 . S
H294 C329 0.931 . S
N295 Eu264 2.657 . S
N295 C296 1.334 . S
N295 C300 1.362 . S
C296 H288 0.929 . S
C296 N295 1.334 . S
C296 C299 1.413 . S
C297 H291 0.930 . S
C297 C298 1.392 . S
C297 C299 1.367 . S
C298 C297 1.392 . S
C298 C300 1.420 . S
C298 C330 1.423 . S
C299 H285 0.930 . S
C299 C296 1.413 . S
C299 C297 1.367 . S
C300 N295 1.362 . S
C300 C298 1.420 . S
C300 C304 1.429 . S
H301 C306 0.930 . S
N302 Eu264 2.609 . S
N302 C304 1.377 . S
N302 C305 1.321 . S
C303 H289 0.930 . S
C303 C305 1.400 . S
C303 C306 1.386 . S
C304 C300 1.429 . S
C304 N302 1.377 . S
C304 C307 1.411 . S
C305 H287 0.930 . S
C305 N302 1.321 . S
C305 C303 1.400 . S
C306 H301 0.930 . S
C306 C303 1.386 . S
C306 C307 1.395 . S
C307 C304 1.411 . S
C307 C306 1.395 . S
C307 C329 1.420 . S
O308 Eu264 2.558 . S
O308 C328 1.257 . S
O309 Eu264 2.612 . S
O309 Eu275 2.380 . S
O309 C320 1.276 . S
O310 Eu275 2.432 . S
O310 C327 1.264 . S
O311 Eu264 2.339 . S
O311 C327 1.254 . S
O312 Eu264 2.563 . S
O312 C320 1.235 . S
O313 Eu264 2.419 . S
O313 C328 1.249 . S
O314 Eu275 2.558 . S
O314 C339 1.257 . S
O315 Eu264 2.380 . S
O315 Eu275 2.612 . S
O315 C331 1.276 . S
O316 Eu264 2.432 . S
O316 C338 1.264 . S
O317 Eu275 2.339 . S
O317 C338 1.254 . S
O318 Eu275 2.563 . S
O318 C331 1.235 . S
O319 Eu275 2.419 . S
O319 C339 1.249 . S
C320 O309 1.276 . S
C320 O312 1.235 . S
C321 C323 1.393 . S
C321 C325 1.395 . S
C321 C328 1.492 . S
C322 C323 1.392 . S
C322 C324 1.386 . S
C323 C321 1.393 . S
C323 C322 1.392 . S
C323 H340 0.930 . S
C324 C322 1.386 . S
C324 C326 1.395 . S
C324 H341 0.930 . S
C325 C321 1.395 . S
C325 C326 1.379 . S
C325 H342 0.930 . S
C326 C324 1.395 . S
C326 C325 1.379 . S
C326 H343 0.930 . S
C327 O310 1.264 . S
C327 O311 1.254 . S
C328 Eu264 2.848 . S
C328 O308 1.257 . S
C328 O313 1.249 . S
C328 C321 1.492 . S
C329 H294 0.931 . S
C329 C307 1.420 . S
C329 C330 1.351 . S
C330 H292 0.930 . S
C330 C298 1.423 . S
C330 C329 1.351 . S
C331 O315 1.276 . S
C331 O318 1.235 . S
C332 C333 1.393 . S
C332 C336 1.395 . S
C332 C339 1.492 . S
C333 C332 1.393 . S
C333 C334 1.392 . S
C333 H344 0.930 . S
C334 C333 1.392 . S
C334 C335 1.386 . S
C335 C334 1.386 . S
C335 C337 1.395 . S
C335 H345 0.930 . S
C336 C332 1.395 . S
C336 C337 1.379 . S
C336 H346 0.930 . S
C337 C335 1.395 . S
C337 C336 1.379 . S
C337 H347 0.930 1_556 S
C338 O316 1.264 . S
C338 O317 1.254 . S
C339 Eu275 2.848 . S
C339 O314 1.257 . S
C339 O319 1.249 . S
C339 C332 1.492 . S
H340 C323 0.930 . S
H341 C324 0.930 . S
H342 C325 0.930 . S
H343 C326 0.930 . S
H344 C333 0.930 . S
H345 C335 0.930 . S
H346 C336 0.930 . S
H347 C337 0.930 1_554 S
Eu348 N379 2.657 . S
Eu348 N386 2.609 . S
Eu348 O392 2.558 . S
Eu348 O393 2.612 . S
Eu348 O395 2.339 . S
Eu348 O396 2.563 . S
Eu348 O397 2.419 . S
Eu348 O399 2.380 . S
Eu348 O400 2.432 1_455 S
Eu348 C412 2.848 . S
C349 C352 1.429 . S
C349 C353 1.411 . S
C349 N356 1.377 . S
C350 C352 1.420 . S
C350 C354 1.423 . S
C350 C362 1.392 . S
C351 C353 1.420 . S
C351 C354 1.351 . S
C351 H374 0.931 . S
C352 C349 1.429 . S
C352 C350 1.420 . S
C352 N360 1.362 . S
C353 C349 1.411 . S
C353 C351 1.420 . S
C353 C358 1.395 1_655 S
C354 C350 1.423 . S
C354 C351 1.351 . S
C354 H366 0.930 . S
C355 C357 1.400 . S
C355 C358 1.386 . S
C355 H367 0.930 . S
N356 C349 1.377 . S
N356 C357 1.321 1_655 S
N356 Eu359 2.609 . S
C357 C355 1.400 . S
C357 N356 1.321 1_455 S
C357 H364 0.930 . S
C358 C353 1.395 1_455 S
C358 C355 1.386 . S
C358 H377 0.930 . S
Eu359 N356 2.609 . S
Eu359 N360 2.657 . S
Eu359 O393 2.380 1_655 S
Eu359 O394 2.432 1_655 S
Eu359 O398 2.558 . S
Eu359 O399 2.612 1_655 S
Eu359 O401 2.339 . S
Eu359 O402 2.563 . S
Eu359 O403 2.419 . S
Eu359 C423 2.848 . S
N360 C352 1.362 . S
N360 Eu359 2.657 . S
N360 C361 1.334 . S
C361 N360 1.334 . S
C361 C363 1.413 . S
C361 H368 0.929 . S
C362 C350 1.392 . S
C362 C363 1.367 . S
C362 H370 0.930 . S
C363 C361 1.413 . S
C363 C362 1.367 . S
C363 H365 0.930 . S
H364 C357 0.930 . S
H365 C363 0.930 . S
H366 C354 0.930 . S
H367 C355 0.930 . S
H368 C361 0.929 . S
H369 C383 0.930 . S
H370 C362 0.930 . S
H371 C389 0.930 1_655 S
H372 C380 0.929 . S
H373 C387 0.930 1_655 S
H374 C351 0.931 . S
H375 C381 0.930 . S
H376 C414 0.930 . S
H377 C358 0.930 . S
H378 C413 0.931 . S
N379 Eu348 2.657 . S
N379 C380 1.334 . S
N379 C384 1.362 . S
C380 H372 0.929 . S
C380 N379 1.334 . S
C380 C383 1.413 . S
C381 H375 0.930 . S
C381 C382 1.392 . S
C381 C383 1.367 . S
C382 C381 1.392 . S
C382 C384 1.420 . S
C382 C414 1.423 . S
C383 H369 0.930 . S
C383 C380 1.413 . S
C383 C381 1.367 . S
C384 N379 1.362 . S
C384 C382 1.420 . S
C384 C388 1.429 . S
H385 C390 0.930 . S
N386 Eu348 2.609 . S
N386 C388 1.377 . S
N386 C389 1.321 . S
C387 H373 0.930 1_455 S
C387 C389 1.400 . S
C387 C390 1.386 . S
C388 C384 1.429 . S
C388 N386 1.377 . S
C388 C391 1.411 . S
C389 H371 0.930 1_455 S
C389 N386 1.321 . S
C389 C387 1.400 . S
C390 H385 0.930 . S
C390 C387 1.386 . S
C390 C391 1.395 . S
C391 C388 1.411 . S
C391 C390 1.395 . S
C391 C413 1.420 . S
O392 Eu348 2.558 . S
O392 C412 1.257 . S
O393 Eu348 2.612 . S
O393 Eu359 2.380 1_455 S
O393 C404 1.276 . S
O394 Eu359 2.432 1_455 S
O394 C411 1.264 . S
O395 Eu348 2.339 . S
O395 C411 1.254 . S
O396 Eu348 2.563 . S
O396 C404 1.235 . S
O397 Eu348 2.419 . S
O397 C412 1.249 . S
O398 Eu359 2.558 . S
O398 C423 1.257 . S
O399 Eu348 2.380 . S
O399 Eu359 2.612 1_455 S
O399 C415 1.276 1_455 S
O400 Eu348 2.432 1_655 S
O400 C422 1.264 . S
O401 Eu359 2.339 . S
O401 C422 1.254 . S
O402 Eu359 2.563 . S
O402 C415 1.235 . S
O403 Eu359 2.419 . S
O403 C423 1.249 . S
C404 O393 1.276 . S
C404 O396 1.235 . S
C405 C407 1.393 . S
C405 C409 1.395 . S
C405 C412 1.492 . S
C406 C407 1.392 . S
C406 C408 1.386 . S
C407 C405 1.393 . S
C407 C406 1.392 . S
C407 H424 0.930 . S
C408 C406 1.386 . S
C408 C410 1.395 . S
C408 H425 0.930 . S
C409 C405 1.395 . S
C409 C410 1.379 . S
C409 H426 0.930 . S
C410 C408 1.395 . S
C410 C409 1.379 . S
C410 H427 0.930 . S
C411 O394 1.264 . S
C411 O395 1.254 . S
C412 Eu348 2.848 . S
C412 O392 1.257 . S
C412 O397 1.249 . S
C412 C405 1.492 . S
C413 H378 0.931 . S
C413 C391 1.420 . S
C413 C414 1.351 . S
C414 H376 0.930 . S
C414 C382 1.423 . S
C414 C413 1.351 . S
C415 O399 1.276 1_655 S
C415 O402 1.235 . S
C416 C417 1.393 . S
C416 C420 1.395 . S
C416 C423 1.492 . S
C417 C416 1.393 . S
C417 C418 1.392 . S
C417 H428 0.930 . S
C418 C417 1.392 . S
C418 C419 1.386 . S
C419 C418 1.386 . S
C419 C421 1.395 . S
C419 H429 0.930 . S
C420 C416 1.395 . S
C420 C421 1.379 . S
C420 H430 0.930 . S
C421 C419 1.395 . S
C421 C420 1.379 . S
C421 H431 0.930 1_556 S
C422 O400 1.264 . S
C422 O401 1.254 . S
C423 Eu359 2.848 . S
C423 O398 1.257 . S
C423 O403 1.249 . S
C423 C416 1.492 . S
H424 C407 0.930 . S
H425 C408 0.930 . S
H426 C409 0.930 . S
H427 C410 0.930 . S
H428 C417 0.930 . S
H429 C419 0.930 . S
H430 C420 0.930 . S
H431 C421 0.930 1_554 S
C432 C433 1.349 . S
C432 C434 1.327 . S
C432 H457 0.950 . S
C433 C432 1.349 . S
C433 C449 1.349 . S
C434 C432 1.327 . S
C434 C453 1.429 . S
C434 H458 0.950 . S
C435 C452 1.574 . S
C435 C454 1.368 . S
C435 H459 0.949 . S
H436 C440 0.949 . S
C437 C438 1.349 . S
C437 C439 1.327 . S
C437 H460 0.950 . S
C438 C437 1.349 . S
C438 C450 1.349 . S
C439 C437 1.327 . S
C439 C455 1.429 . S
C439 H461 0.950 . S
C440 H436 0.949 . S
C440 C448 1.574 . S
C440 C456 1.368 . S
H441 C449 0.950 . S
H442 C447 0.950 . S
H443 C448 0.949 . S
H444 C450 0.950 1_565 S
H445 C451 0.949 . S
H446 C452 0.949 . S
C447 H442 0.950 . S
C447 C449 1.327 . S
C447 C453 1.429 . S
C448 C440 1.574 . S
C448 H443 0.949 . S
C448 C454 1.368 . S
C449 C433 1.349 . S
C449 H441 0.950 . S
C449 C447 1.327 . S
C450 C438 1.349 . S
C450 H444 0.950 1_545 S
C450 C451 1.327 . S
C451 H445 0.949 . S
C451 C450 1.327 . S
C451 C455 1.429 . S
C452 C435 1.574 . S
C452 H446 0.949 . S
C452 C456 1.368 . S
C453 C434 1.429 . S
C453 C447 1.429 . S
C453 C454 1.523 . S
C454 C435 1.368 . S
C454 C448 1.368 . S
C454 C453 1.523 . S
C455 C439 1.429 . S
C455 C451 1.429 . S
C455 C456 1.523 . S
C456 C440 1.368 . S
C456 C452 1.368 . S
C456 C455 1.523 . S
H457 C432 0.950 . S
H458 C434 0.950 . S
H459 C435 0.949 . S
H460 C437 0.950 . S
H461 C439 0.950 . S
C462 C463 1.349 . S
C462 C464 1.327 . S
C462 H487 0.950 . S
C463 C462 1.349 . S
C463 C479 1.349 . S
C464 C462 1.327 . S
C464 C483 1.429 . S
C464 H488 0.950 . S
C465 C482 1.574 . S
C465 C484 1.368 . S
C465 H489 0.949 . S
H466 C470 0.949 . S
C467 C468 1.349 . S
C467 C469 1.327 . S
C467 H490 0.950 . S
C468 C467 1.349 . S
C468 C480 1.349 . S
C469 C467 1.327 . S
C469 C485 1.429 . S
C469 H491 0.950 . S
C470 H466 0.949 . S
C470 C478 1.574 . S
C470 C486 1.368 . S
H471 C479 0.950 . S
H472 C477 0.950 . S
H473 C478 0.949 . S
H474 C480 0.950 . S
H475 C481 0.950 . S
H476 C482 0.949 . S
C477 H472 0.950 . S
C477 C479 1.327 . S
C477 C483 1.429 . S
C478 C470 1.574 . S
C478 H473 0.949 . S
C478 C484 1.368 . S
C479 C463 1.349 . S
C479 H471 0.950 . S
C479 C477 1.327 . S
C480 C468 1.349 . S
C480 H474 0.950 . S
C480 C481 1.327 . S
C481 H475 0.950 . S
C481 C480 1.327 . S
C481 C485 1.429 . S
C482 C465 1.574 . S
C482 H476 0.949 . S
C482 C486 1.368 . S
C483 C464 1.429 . S
C483 C477 1.429 . S
C483 C484 1.523 . S
C484 C465 1.368 . S
C484 C478 1.368 . S
C484 C483 1.523 . S
C485 C469 1.429 . S
C485 C481 1.429 . S
C485 C486 1.523 . S
C486 C470 1.368 . S
C486 C482 1.368 . S
C486 C485 1.523 . S
H487 C462 0.950 . S
H488 C464 0.950 . S
H489 C465 0.949 . S
H490 C467 0.950 . S
H491 C469 0.950 . S
C492 C493 1.349 . S
C492 C494 1.327 . S
C492 H517 0.950 . S
C493 C492 1.349 . S
C493 C509 1.349 . S
C494 C492 1.327 . S
C494 C513 1.429 . S
C494 H518 0.950 . S
C495 C512 1.574 . S
C495 C514 1.368 . S
C495 H519 0.949 . S
H496 C500 0.949 . S
C497 C498 1.349 . S
C497 C499 1.327 . S
C497 H520 0.950 . S
C498 C497 1.349 . S
C498 C510 1.349 . S
C499 C497 1.327 . S
C499 C515 1.429 . S
C499 H521 0.950 . S
C500 H496 0.949 . S
C500 C508 1.574 . S
C500 C516 1.368 . S
H501 C509 0.950 . S
H502 C507 0.950 . S
H503 C508 0.949 . S
H504 C510 0.950 . S
H505 C511 0.950 . S
H506 C512 0.949 . S
C507 H502 0.950 . S
C507 C509 1.327 . S
C507 C513 1.429 . S
C508 C500 1.574 . S
C508 H503 0.949 . S
C508 C514 1.368 . S
C509 C493 1.349 . S
C509 H501 0.950 . S
C509 C507 1.327 . S
C510 C498 1.349 . S
C510 H504 0.950 . S
C510 C511 1.327 . S
C511 H505 0.950 . S
C511 C510 1.327 . S
C511 C515 1.429 . S
C512 C495 1.574 . S
C512 H506 0.949 . S
C512 C516 1.368 . S
C513 C494 1.429 . S
C513 C507 1.429 . S
C513 C514 1.523 . S
C514 C495 1.368 . S
C514 C508 1.368 . S
C514 C513 1.523 . S
C515 C499 1.429 . S
C515 C511 1.429 . S
C515 C516 1.523 . S
C516 C500 1.368 . S
C516 C512 1.368 . S
C516 C515 1.523 . S
H517 C492 0.950 . S
H518 C494 0.950 . S
H519 C495 0.949 . S
H520 C497 0.950 . S
H521 C499 0.950 . S
C522 C523 1.349 . S
C522 C524 1.327 . S
C522 H547 0.950 . S
C523 C522 1.349 . S
C523 C539 1.349 . S
C524 C522 1.327 . S
C524 C543 1.429 . S
C524 H548 0.950 . S
C525 C542 1.574 . S
C525 C544 1.368 . S
C525 H549 0.949 . S
H526 C530 0.949 . S
C527 C528 1.349 . S
C527 C529 1.327 . S
C527 H550 0.950 . S
C528 C527 1.349 . S
C528 C540 1.349 . S
C529 C527 1.327 . S
C529 C545 1.429 . S
C529 H551 0.950 . S
C530 H526 0.949 . S
C530 C538 1.574 . S
C530 C546 1.368 . S
H531 C539 0.950 . S
H532 C537 0.950 . S
H533 C538 0.949 . S
H534 C540 0.950 . S
H535 C541 0.950 . S
H536 C542 0.949 . S
C537 H532 0.950 . S
C537 C539 1.327 . S
C537 C543 1.429 . S
C538 C530 1.574 . S
C538 H533 0.949 . S
C538 C544 1.368 . S
C539 C523 1.349 . S
C539 H531 0.950 . S
C539 C537 1.327 . S
C540 C528 1.349 . S
C540 H534 0.950 . S
C540 C541 1.327 . S
C541 H535 0.950 . S
C541 C540 1.327 . S
C541 C545 1.429 . S
C542 C525 1.574 . S
C542 H536 0.949 . S
C542 C546 1.368 . S
C543 C524 1.429 . S
C543 C537 1.429 . S
C543 C544 1.523 . S
C544 C525 1.368 . S
C544 C538 1.368 . S
C544 C543 1.523 . S
C545 C529 1.429 . S
C545 C541 1.429 . S
C545 C546 1.523 . S
C546 C530 1.368 . S
C546 C542 1.368 . S
C546 C545 1.523 . S
H547 C522 0.950 . S
H548 C524 0.950 . S
H549 C525 0.949 . S
H550 C527 0.950 . S
H551 C529 0.950 . S
C552 C553 1.349 . S
C552 C554 1.327 . S
C552 H577 0.950 . S
C553 C552 1.349 . S
C553 C569 1.349 . S
C554 C552 1.327 . S
C554 C573 1.429 . S
C554 H578 0.950 1_554 S
C555 C572 1.574 1_554 S
C555 C574 1.368 1_554 S
C555 H579 0.949 . S
H556 C560 0.949 . S
C557 C558 1.349 1_545 S
C557 C559 1.330 . S
C557 H580 0.950 . S
C558 C557 1.349 1_565 S
C558 C570 1.349 . S
C559 C557 1.330 . S
C559 C575 1.418 1_545 S
C559 H581 0.957 . S
C560 H556 0.949 . S
C560 C568 1.574 . S
C560 C576 1.368 . S
H561 C569 0.950 . S
H562 C567 0.950 . S
H563 C568 0.949 . S
H564 C570 0.950 . S
H565 C571 0.950 . S
H566 C572 0.949 1_545 S
C567 H562 0.950 . S
C567 C569 1.327 . S
C567 C573 1.429 . S
C568 C560 1.574 . S
C568 H563 0.949 . S
C568 C574 1.368 . S
C569 C553 1.349 . S
C569 H561 0.950 . S
C569 C567 1.327 . S
C570 C558 1.349 . S
C570 H564 0.950 . S
C570 C571 1.327 . S
C571 H565 0.950 . S
C571 C570 1.327 . S
C571 C575 1.429 . S
C572 C555 1.574 1_556 S
C572 H566 0.949 1_565 S
C572 C576 1.368 . S
C573 C554 1.429 . S
C573 C567 1.429 . S
C573 C574 1.523 1_554 S
C574 C555 1.368 1_556 S
C574 C568 1.368 . S
C574 C573 1.523 1_556 S
C575 C559 1.418 1_565 S
C575 C571 1.429 . S
C575 C576 1.523 . S
C576 C560 1.368 . S
C576 C572 1.368 . S
C576 C575 1.523 . S
H577 C552 0.950 . S
H578 C554 0.950 1_556 S
H579 C555 0.949 . S
H580 C557 0.950 . S
H581 C559 0.957 . S
C582 C583 1.349 . S
C582 C584 1.327 . S
C582 H607 0.950 . S
C583 C582 1.349 . S
C583 C599 1.349 . S
C584 C582 1.327 . S
C584 C603 1.429 . S
C584 H608 0.950 . S
C585 C602 1.574 . S
C585 C604 1.368 . S
C585 H609 0.949 . S
H586 C590 0.949 . S
C587 C588 1.349 . S
C587 C589 1.327 . S
C587 H610 0.950 . S
C588 C587 1.349 . S
C588 C600 1.349 . S
C589 C587 1.327 . S
C589 C605 1.429 . S
C589 H611 0.950 . S
C590 H586 0.949 . S
C590 C598 1.574 . S
C590 C606 1.368 . S
H591 C599 0.950 . S
H592 C597 0.950 1_556 S
H593 C598 0.949 1_554 S
H594 C600 0.950 . S
H595 C601 0.950 . S
H596 C602 0.949 . S
C597 H592 0.950 1_554 S
C597 C599 1.327 . S
C597 C603 1.429 . S
C598 C590 1.574 . S
C598 H593 0.949 1_556 S
C598 C604 1.368 . S
C599 C583 1.349 . S
C599 H591 0.950 . S
C599 C597 1.327 . S
C600 C588 1.349 . S
C600 H594 0.950 . S
C600 C601 1.327 . S
C601 H595 0.950 . S
C601 C600 1.327 . S
C601 C605 1.429 . S
C602 C585 1.574 . S
C602 H596 0.949 . S
C602 C606 1.368 . S
C603 C584 1.429 . S
C603 C597 1.429 . S
C603 C604 1.523 1_554 S
C604 C585 1.368 . S
C604 C598 1.368 . S
C604 C603 1.523 1_556 S
C605 C589 1.429 . S
C605 C601 1.429 . S
C605 C606 1.523 . S
C606 C590 1.368 . S
C606 C602 1.368 . S
C606 C605 1.523 . S
H607 C582 0.950 . S
H608 C584 0.950 . S
H609 C585 0.949 . S
H610 C587 0.950 . S
H611 C589 0.950 . S
C612 C613 1.349 . S
C612 C614 1.327 . S
C612 H637 0.950 . S
C613 C612 1.349 . S
C613 C629 1.349 . S
C614 C612 1.327 . S
C614 C633 1.429 . S
C614 H638 0.950 . S
C615 C632 1.574 . S
C615 C634 1.368 . S
C615 H639 0.949 . S
H616 C620 0.949 . S
C617 C618 1.349 . S
C617 C619 1.327 . S
C617 H640 0.950 . S
C618 C617 1.349 . S
C618 C630 1.349 . S
C619 C617 1.327 . S
C619 C635 1.429 . S
C619 H641 0.950 . S
C620 H616 0.949 . S
C620 C628 1.574 . S
C620 C636 1.368 . S
H621 C629 0.950 . S
H622 C627 0.950 1_556 S
H623 C628 0.949 1_554 S
H624 C630 0.950 . S
H625 C631 0.950 . S
H626 C632 0.949 . S
C627 H622 0.950 1_554 S
C627 C629 1.327 . S
C627 C633 1.429 . S
C628 C620 1.574 . S
C628 H623 0.949 1_556 S
C628 C634 1.368 . S
C629 C613 1.349 . S
C629 H621 0.950 . S
C629 C627 1.327 . S
C630 C618 1.349 . S
C630 H624 0.950 . S
C630 C631 1.327 . S
C631 H625 0.950 . S
C631 C630 1.327 . S
C631 C635 1.429 . S
C632 C615 1.574 . S
C632 H626 0.949 . S
C632 C636 1.368 . S
C633 C614 1.429 . S
C633 C627 1.429 . S
C633 C634 1.523 1_554 S
C634 C615 1.368 . S
C634 C628 1.368 . S
C634 C633 1.523 1_556 S
C635 C619 1.429 . S
C635 C631 1.429 . S
C635 C636 1.523 . S
C636 C620 1.368 . S
C636 C632 1.368 . S
C636 C635 1.523 . S
H637 C612 0.950 . S
H638 C614 0.950 . S
H639 C615 0.949 . S
H640 C617 0.950 . S
H641 C619 0.950 . S
C642 C643 1.349 . S
C642 C644 1.327 . S
C642 H667 0.950 . S
C643 C642 1.349 . S
C643 C659 1.349 . S
C644 C642 1.327 . S
C644 C663 1.429 . S
C644 H668 0.950 . S
C645 C662 1.574 . S
C645 C664 1.368 . S
C645 H669 0.949 . S
H646 C650 0.949 . S
C647 C648 1.349 . S
C647 C649 1.327 . S
C647 H670 0.950 . S
C648 C647 1.349 . S
C648 C660 1.349 . S
C649 C647 1.327 . S
C649 C665 1.429 . S
C649 H671 0.950 . S
C650 H646 0.949 . S
C650 C658 1.574 1_556 S
C650 C666 1.368 . S
H651 C659 0.950 . S
H652 C657 0.950 1_556 S
H653 C658 0.949 . S
H654 C660 0.958 . S
H655 C661 0.950 . S
H656 C662 0.949 . S
C657 H652 0.950 1_554 S
C657 C659 1.327 . S
C657 C663 1.429 . S
C658 C650 1.574 1_554 S
C658 H653 0.949 . S
C658 C664 1.368 1_554 S
C659 C643 1.349 . S
C659 H651 0.950 . S
C659 C657 1.327 . S
C660 C648 1.349 . S
C660 H654 0.958 . S
C660 C661 1.327 . S
C661 H655 0.950 . S
C661 C660 1.327 . S
C661 C665 1.429 . S
C662 C645 1.574 . S
C662 H656 0.949 . S
C662 C666 1.368 . S
C663 C644 1.429 . S
C663 C657 1.429 . S
C663 C664 1.523 1_554 S
C664 C645 1.368 . S
C664 C658 1.368 1_556 S
C664 C663 1.523 1_556 S
C665 C649 1.429 . S
C665 C661 1.429 . S
C665 C666 1.523 . S
C666 C650 1.368 . S
C666 C662 1.368 . S
C666 C665 1.523 . S
H667 C642 0.950 . S
H668 C644 0.950 . S
H669 C645 0.949 . S
H670 C647 0.950 . S
H671 C649 0.950 . S
C672 C673 1.349 . S
C672 C674 1.327 . S
C672 H697 0.950 . S
C673 C672 1.349 . S
C673 C689 1.349 . S
C674 C672 1.327 . S
C674 C693 1.429 . S
C674 H698 0.950 . S
C675 C692 1.574 . S
C675 C694 1.368 . S
C675 H699 0.949 . S
H676 C680 0.949 . S
C677 C678 1.340 1_655 S
C677 C679 1.320 1_655 S
C677 H700 0.966 . S
C678 C677 1.340 1_455 S
C678 C690 1.349 . S
C679 C677 1.320 1_455 S
C679 C695 1.429 . S
C679 H701 0.958 . S
C680 H676 0.949 . S
C680 C688 1.574 . S
C680 C696 1.368 . S
H681 C689 0.950 . S
H682 C687 0.950 . S
H683 C688 0.949 . S
H684 C690 0.950 . S
H685 C691 0.950 . S
H686 C692 0.949 . S
C687 H682 0.950 . S
C687 C689 1.327 . S
C687 C693 1.429 . S
C688 C680 1.574 . S
C688 H683 0.949 . S
C688 C694 1.368 . S
C689 C673 1.349 . S
C689 H681 0.950 . S
C689 C687 1.327 . S
C690 C678 1.349 . S
C690 H684 0.950 . S
C690 C691 1.327 . S
C691 H685 0.950 . S
C691 C690 1.327 . S
C691 C695 1.429 . S
C692 C675 1.574 . S
C692 H686 0.949 . S
C692 C696 1.368 . S
C693 C674 1.429 . S
C693 C687 1.429 . S
C693 C694 1.523 . S
C694 C675 1.368 . S
C694 C688 1.368 . S
C694 C693 1.523 . S
C695 C679 1.429 . S
C695 C691 1.429 . S
C695 C696 1.523 . S
C696 C680 1.368 . S
C696 C692 1.368 . S
C696 C695 1.523 . S
H697 C672 0.950 . S
H698 C674 0.950 . S
H699 C675 0.949 . S
H700 C677 0.966 . S
H701 C679 0.958 . S
C702 C703 1.349 . S
C702 C704 1.327 . S
C702 H727 0.950 . S
C703 C702 1.349 . S
C703 C719 1.349 . S
C704 C702 1.327 . S
C704 C723 1.429 . S
C704 H728 0.950 . S
C705 C722 1.574 . S
C705 C724 1.368 . S
C705 H729 0.949 . S
H706 C710 0.949 . S
C707 C708 1.349 . S
C707 C709 1.327 . S
C707 H730 0.950 . S
C708 C707 1.349 . S
C708 C720 1.349 . S
C709 C707 1.327 . S
C709 C725 1.429 . S
C709 H731 0.950 . S
C710 H706 0.949 . S
C710 C718 1.574 . S
C710 C726 1.368 . S
H711 C719 0.950 1_556 S
H712 C717 0.950 . S
H713 C718 0.949 . S
H714 C720 0.950 . S
H715 C721 0.950 . S
H716 C722 0.949 . S
C717 H712 0.950 . S
C717 C719 1.327 . S
C717 C723 1.429 . S
C718 C710 1.574 . S
C718 H713 0.949 . S
C718 C724 1.368 . S
C719 C703 1.349 . S
C719 H711 0.950 1_554 S
C719 C717 1.327 . S
C720 C708 1.349 . S
C720 H714 0.950 . S
C720 C721 1.327 . S
C721 H715 0.950 . S
C721 C720 1.327 . S
C721 C725 1.429 . S
C722 C705 1.574 . S
C722 H716 0.949 . S
C722 C726 1.368 . S
C723 C704 1.429 . S
C723 C717 1.429 . S
C723 C724 1.523 . S
C724 C705 1.368 . S
C724 C718 1.368 . S
C724 C723 1.523 . S
C725 C709 1.429 . S
C725 C721 1.429 . S
C725 C726 1.523 . S
C726 C710 1.368 . S
C726 C722 1.368 . S
C726 C725 1.523 . S
H727 C702 0.950 . S
H728 C704 0.950 . S
H729 C705 0.949 . S
H730 C707 0.950 . S
H731 C709 0.950 . S
C732 C733 1.349 . S
C732 C734 1.327 . S
C732 H757 0.950 . S
C733 C732 1.349 . S
C733 C749 1.349 . S
C734 C732 1.327 . S
C734 C753 1.429 . S
C734 H758 0.950 . S
C735 C752 1.574 . S
C735 C754 1.368 . S
C735 H759 0.949 . S
H736 C740 0.949 . S
C737 C738 1.349 . S
C737 C739 1.327 . S
C737 H760 0.950 . S
C738 C737 1.349 . S
C738 C750 1.349 . S
C739 C737 1.327 . S
C739 C755 1.429 . S
C739 H761 0.950 . S
C740 H736 0.949 . S
C740 C748 1.574 . S
C740 C756 1.368 . S
H741 C749 0.950 . S
H742 C747 0.950 . S
H743 C748 0.949 . S
H744 C750 0.950 . S
H745 C751 0.950 . S
H746 C752 0.949 . S
C747 H742 0.950 . S
C747 C749 1.327 . S
C747 C753 1.429 . S
C748 C740 1.574 . S
C748 H743 0.949 . S
C748 C754 1.368 . S
C749 C733 1.349 . S
C749 H741 0.950 . S
C749 C747 1.327 . S
C750 C738 1.349 . S
C750 H744 0.950 . S
C750 C751 1.327 . S
C751 H745 0.950 . S
C751 C750 1.327 . S
C751 C755 1.429 . S
C752 C735 1.574 . S
C752 H746 0.949 . S
C752 C756 1.368 . S
C753 C734 1.429 . S
C753 C747 1.429 . S
C753 C754 1.523 . S
C754 C735 1.368 . S
C754 C748 1.368 . S
C754 C753 1.523 . S
C755 C739 1.429 . S
C755 C751 1.429 . S
C755 C756 1.523 . S
C756 C740 1.368 . S
C756 C752 1.368 . S
C756 C755 1.523 . S
H757 C732 0.950 . S
H758 C734 0.950 . S
H759 C735 0.949 . S
H760 C737 0.950 . S
H761 C739 0.950 . S
C762 C763 1.349 . S
C762 C764 1.327 . S
C762 H787 0.950 . S
C763 C762 1.349 . S
C763 C779 1.349 . S
C764 C762 1.327 . S
C764 C783 1.429 . S
C764 H788 0.950 . S
C765 C782 1.574 . S
C765 C784 1.368 . S
C765 H789 0.949 . S
H766 C770 0.949 . S
C767 C768 1.349 . S
C767 C769 1.327 . S
C767 H790 0.950 . S
C768 C767 1.349 . S
C768 C780 1.349 . S
C769 C767 1.327 . S
C769 C785 1.429 . S
C769 H791 0.950 . S
C770 H766 0.949 . S
C770 C778 1.574 . S
C770 C786 1.368 . S
H771 C779 0.950 . S
H772 C777 0.950 . S
H773 C778 0.949 . S
H774 C780 0.950 . S
H775 C781 0.950 . S
H776 C782 0.949 . S
C777 H772 0.950 . S
C777 C779 1.327 . S
C777 C783 1.429 . S
C778 C770 1.574 . S
C778 H773 0.949 . S
C778 C784 1.368 . S
C779 C763 1.349 . S
C779 H771 0.950 . S
C779 C777 1.327 . S
C780 C768 1.349 . S
C780 H774 0.950 . S
C780 C781 1.327 . S
C781 H775 0.950 . S
C781 C780 1.327 . S
C781 C785 1.429 . S
C782 C765 1.574 . S
C782 H776 0.949 . S
C782 C786 1.368 . S
C783 C764 1.429 . S
C783 C777 1.429 . S
C783 C784 1.523 . S
C784 C765 1.368 . S
C784 C778 1.368 . S
C784 C783 1.523 . S
C785 C769 1.429 . S
C785 C781 1.429 . S
C785 C786 1.523 . S
C786 C770 1.368 . S
C786 C782 1.368 . S
C786 C785 1.523 . S
H787 C762 0.950 . S
H788 C764 0.950 . S
H789 C765 0.949 . S
H790 C767 0.950 . S
H791 C769 0.950 . S
C792 C793 1.349 . S
C792 C794 1.327 . S
C792 H817 0.950 . S
C793 C792 1.349 . S
C793 C809 1.349 . S
C794 C792 1.327 . S
C794 C813 1.429 . S
C794 H818 0.950 . S
C795 C812 1.574 . S
C795 C814 1.368 . S
C795 H819 0.949 . S
H796 C800 0.949 . S
C797 C798 1.349 1_655 S
C797 C799 1.327 . S
C797 H820 0.950 . S
C798 C797 1.349 1_455 S
C798 C810 1.349 . S
C799 C797 1.327 . S
C799 C815 1.429 . S
C799 H821 0.950 . S
C800 H796 0.949 . S
C800 C808 1.574 . S
C800 C816 1.368 . S
H801 C809 0.950 . S
H802 C807 0.950 . S
H803 C808 0.949 . S
H804 C810 0.950 . S
H805 C811 0.950 . S
H806 C812 0.949 . S
C807 H802 0.950 . S
C807 C809 1.327 . S
C807 C813 1.429 . S
C808 C800 1.574 . S
C808 H803 0.949 . S
C808 C814 1.368 1_556 S
C809 C793 1.349 . S
C809 H801 0.950 . S
C809 C807 1.327 . S
C810 C798 1.349 . S
C810 H804 0.950 . S
C810 C811 1.327 . S
C811 H805 0.950 . S
C811 C810 1.327 . S
C811 C815 1.429 1_455 S
C812 C795 1.574 . S
C812 H806 0.949 . S
C812 C816 1.368 1_554 S
C813 C794 1.429 . S
C813 C807 1.429 . S
C813 C814 1.523 . S
C814 C795 1.368 . S
C814 C808 1.368 1_554 S
C814 C813 1.523 . S
C815 C799 1.429 . S
C815 C811 1.429 1_655 S
C815 C816 1.523 . S
C816 C800 1.368 . S
C816 C812 1.368 1_556 S
C816 C815 1.523 . S
H817 C792 0.950 . S
H818 C794 0.950 . S
H819 C795 0.949 . S
H820 C797 0.950 . S
H821 C799 0.950 . S
C822 C823 1.349 . S
C822 C824 1.327 . S
C822 H847 0.950 . S
C823 C822 1.349 . S
C823 C839 1.349 . S
C824 C822 1.327 . S
C824 C843 1.429 . S
C824 H848 0.950 . S
C825 C842 1.574 1_554 S
C825 C844 1.368 . S
C825 H849 0.949 1_554 S
H826 C830 0.949 . S
C827 C828 1.349 1_565 S
C827 C829 1.327 . S
C827 H850 0.950 . S
C828 C827 1.349 1_545 S
C828 C840 1.349 . S
C829 C827 1.327 . S
C829 C845 1.429 . S
C829 H851 0.950 . S
C830 H826 0.949 . S
C830 C838 1.574 1_545 S
C830 C846 1.368 1_544 S
H831 C839 0.950 . S
H832 C837 0.950 . S
H833 C838 0.949 1_545 S
H834 C840 0.950 . S
H835 C841 0.950 . S
H836 C842 0.949 . S
C837 H832 0.950 . S
C837 C839 1.327 . S
C837 C843 1.429 . S
C838 C830 1.574 1_565 S
C838 H833 0.949 1_565 S
C838 C844 1.368 . S
C839 C823 1.349 . S
C839 H831 0.950 . S
C839 C837 1.327 . S
C840 C828 1.349 . S
C840 H834 0.950 . S
C840 C841 1.327 . S
C841 H835 0.950 . S
C841 C840 1.327 . S
C841 C845 1.429 1_545 S
C842 C825 1.574 1_556 S
C842 H836 0.949 . S
C842 C846 1.368 . S
C843 C824 1.429 . S
C843 C837 1.429 . S
C843 C844 1.523 . S
C844 C825 1.368 . S
C844 C838 1.368 . S
C844 C843 1.523 . S
C845 C829 1.429 . S
C845 C841 1.429 1_565 S
C845 C846 1.523 . S
C846 C830 1.368 1_566 S
C846 C842 1.368 . S
C846 C845 1.523 . S
H847 C822 0.950 . S
H848 C824 0.950 . S
H849 C825 0.949 1_556 S
H850 C827 0.950 . S
H851 C829 0.950 . S
C852 C853 1.349 . S
C852 C854 1.327 . S
C852 H877 0.950 . S
C853 C852 1.349 . S
C853 C869 1.349 . S
C854 C852 1.327 . S
C854 C873 1.429 . S
C854 H878 0.950 . S
C855 C872 1.574 . S
C855 C874 1.368 1_556 S
C855 H879 0.949 . S
H856 C860 0.949 . S
C857 C858 1.349 . S
C857 C859 1.327 . S
C857 H880 0.950 . S
C858 C857 1.349 . S
C858 C870 1.349 . S
C859 C857 1.327 . S
C859 C875 1.429 . S
C859 H881 0.950 . S
C860 H856 0.949 . S
C860 C868 1.574 . S
C860 C876 1.368 1_554 S
H861 C869 0.950 . S
H862 C867 0.950 . S
H863 C868 0.949 . S
H864 C870 0.950 . S
H865 C871 0.950 1_554 S
H866 C872 0.949 . S
C867 H862 0.950 . S
C867 C869 1.327 . S
C867 C873 1.429 . S
C868 C860 1.574 . S
C868 H863 0.949 . S
C868 C874 1.368 . S
C869 C853 1.349 . S
C869 H861 0.950 . S
C869 C867 1.327 . S
C870 C858 1.349 . S
C870 H864 0.950 . S
C870 C871 1.327 . S
C871 H865 0.950 1_556 S
C871 C870 1.327 . S
C871 C875 1.429 . S
C872 C855 1.574 . S
C872 H866 0.949 . S
C872 C876 1.368 . S
C873 C854 1.429 . S
C873 C867 1.429 . S
C873 C874 1.523 . S
C874 C855 1.368 1_554 S
C874 C868 1.368 . S
C874 C873 1.523 . S
C875 C859 1.429 . S
C875 C871 1.429 . S
C875 C876 1.523 . S
C876 C860 1.368 1_556 S
C876 C872 1.368 . S
C876 C875 1.523 . S
H877 C852 0.950 . S
H878 C854 0.950 . S
H879 C855 0.949 . S
H880 C857 0.950 . S
H881 C859 0.950 . S
C882 C883 1.349 . S
C882 C884 1.327 . S
C882 H907 0.950 . S
C883 C882 1.349 . S
C883 C899 1.349 . S
C884 C882 1.327 . S
C884 C903 1.429 . S
C884 H908 0.950 . S
C885 C902 1.574 . S
C885 C904 1.368 . S
C885 H909 0.949 . S
H886 C890 0.949 . S
C887 C888 1.349 . S
C887 C889 1.327 . S
C887 H910 0.950 . S
C888 C887 1.349 . S
C888 C900 1.349 . S
C889 C887 1.327 . S
C889 C905 1.429 . S
C889 H911 0.950 . S
C890 H886 0.949 . S
C890 C898 1.574 1_556 S
C890 C906 1.368 . S
H891 C899 0.950 . S
H892 C897 0.950 . S
H893 C898 0.949 . S
H894 C900 0.950 . S
H895 C901 0.950 . S
H896 C902 0.949 . S
C897 H892 0.950 . S
C897 C899 1.327 . S
C897 C903 1.429 . S
C898 C890 1.574 1_554 S
C898 H893 0.949 . S
C898 C904 1.368 . S
C899 C883 1.349 . S
C899 H891 0.950 . S
C899 C897 1.327 . S
C900 C888 1.349 . S
C900 H894 0.950 . S
C900 C901 1.327 . S
C901 H895 0.950 . S
C901 C900 1.327 . S
C901 C905 1.429 . S
C902 C885 1.574 . S
C902 H896 0.949 . S
C902 C906 1.368 1_554 S
C903 C884 1.429 . S
C903 C897 1.429 . S
C903 C904 1.523 . S
C904 C885 1.368 . S
C904 C898 1.368 . S
C904 C903 1.523 . S
C905 C889 1.429 . S
C905 C901 1.429 . S
C905 C906 1.523 . S
C906 C890 1.368 . S
C906 C902 1.368 1_556 S
C906 C905 1.523 . S
H907 C882 0.950 . S
H908 C884 0.950 . S
H909 C885 0.949 . S
H910 C887 0.950 . S
H911 C889 0.950 . S
C912 C913 1.349 . S
C912 C914 1.327 . S
C912 H937 0.950 . S
C913 C912 1.349 . S
C913 C929 1.349 . S
C914 C912 1.327 . S
C914 C933 1.429 . S
C914 H938 0.950 . S
C915 C932 1.574 . S
C915 C934 1.368 . S
C915 H939 0.949 . S
H916 C920 0.949 . S
C917 C918 1.349 . S
C917 C919 1.327 . S
C917 H940 0.950 . S
C918 C917 1.349 . S
C918 C930 1.349 . S
C919 C917 1.327 . S
C919 C935 1.429 . S
C919 H941 0.950 . S
C920 H916 0.949 . S
C920 C928 1.574 . S
C920 C936 1.368 . S
H921 C929 0.950 . S
H922 C927 0.950 . S
H923 C928 0.949 . S
H924 C930 0.950 . S
H925 C931 0.950 . S
H926 C932 0.949 . S
C927 H922 0.950 . S
C927 C929 1.327 . S
C927 C933 1.429 . S
C928 C920 1.574 . S
C928 H923 0.949 . S
C928 C934 1.368 . S
C929 C913 1.349 . S
C929 H921 0.950 . S
C929 C927 1.327 . S
C930 C918 1.349 . S
C930 H924 0.950 . S
C930 C931 1.327 . S
C931 H925 0.950 . S
C931 C930 1.327 . S
C931 C935 1.429 . S
C932 C915 1.574 . S
C932 H926 0.949 . S
C932 C936 1.368 . S
C933 C914 1.429 . S
C933 C927 1.429 . S
C933 C934 1.523 . S
C934 C915 1.368 . S
C934 C928 1.368 . S
C934 C933 1.523 . S
C935 C919 1.429 . S
C935 C931 1.429 . S
C935 C936 1.523 . S
C936 C920 1.368 . S
C936 C932 1.368 . S
C936 C935 1.523 . S
H937 C912 0.950 . S
H938 C914 0.950 . S
H939 C915 0.949 . S
H940 C917 0.950 . S
H941 C919 0.950 . S
C942 C943 1.349 . S
C942 C944 1.327 . S
C942 H967 0.950 . S
C943 C942 1.349 . S
C943 C959 1.349 . S
C944 C942 1.327 . S
C944 C963 1.429 . S
C944 H968 0.950 . S
C945 C962 1.574 . S
C945 C964 1.368 . S
C945 H969 0.949 . S
H946 C950 0.949 . S
C947 C948 1.349 . S
C947 C949 1.327 . S
C947 H970 0.950 . S
C948 C947 1.349 . S
C948 C960 1.349 . S
C949 C947 1.327 . S
C949 C965 1.429 . S
C949 H971 0.950 . S
C950 H946 0.949 . S
C950 C958 1.574 . S
C950 C966 1.368 . S
H951 C959 0.950 . S
H952 C957 0.950 . S
H953 C958 0.949 . S
H954 C960 0.950 . S
H955 C961 0.950 . S
H956 C962 0.949 . S
C957 H952 0.950 . S
C957 C959 1.327 . S
C957 C963 1.429 . S
C958 C950 1.574 . S
C958 H953 0.949 . S
C958 C964 1.368 . S
C959 C943 1.349 . S
C959 H951 0.950 . S
C959 C957 1.327 . S
C960 C948 1.349 . S
C960 H954 0.950 . S
C960 C961 1.327 . S
C961 H955 0.950 . S
C961 C960 1.327 . S
C961 C965 1.429 . S
C962 C945 1.574 . S
C962 H956 0.949 . S
C962 C966 1.368 . S
C963 C944 1.429 . S
C963 C957 1.429 . S
C963 C964 1.523 . S
C964 C945 1.368 . S
C964 C958 1.368 . S
C964 C963 1.523 . S
C965 C949 1.429 . S
C965 C961 1.429 . S
C965 C966 1.523 . S
C966 C950 1.368 . S
C966 C962 1.368 . S
C966 C965 1.523 . S
H967 C942 0.950 . S
H968 C944 0.950 . S
H969 C945 0.949 . S
H970 C947 0.950 . S
H971 C949 0.950 . S
C972 C973 1.349 . S
C972 C974 1.327 . S
C972 H997 0.950 . S
C973 C972 1.349 . S
C973 C989 1.349 . S
C974 C972 1.327 . S
C974 C993 1.429 . S
C974 H998 0.950 . S
C975 C992 1.574 . S
C975 C994 1.368 . S
C975 H999 0.949 . S
H976 C980 0.949 . S
C977 C978 1.349 . S
C977 C979 1.327 . S
C977 H1000 0.950 . S
C978 C977 1.349 . S
C978 C990 1.349 . S
C979 C977 1.327 . S
C979 C995 1.429 . S
C979 H1001 0.950 . S
C980 H976 0.949 . S
C980 C988 1.574 . S
C980 C996 1.368 . S
H981 C989 0.950 . S
H982 C987 0.950 . S
H983 C988 0.949 . S
H984 C990 0.950 . S
H985 C991 0.950 . S
H986 C992 0.949 . S
C987 H982 0.950 . S
C987 C989 1.327 . S
C987 C993 1.429 . S
C988 C980 1.574 . S
C988 H983 0.949 . S
C988 C994 1.368 . S
C989 C973 1.349 . S
C989 H981 0.950 . S
C989 C987 1.327 . S
C990 C978 1.349 . S
C990 H984 0.950 . S
C990 C991 1.327 . S
C991 H985 0.950 . S
C991 C990 1.327 . S
C991 C995 1.429 . S
C992 C975 1.574 . S
C992 H986 0.949 . S
C992 C996 1.368 . S
C993 C974 1.429 . S
C993 C987 1.429 . S
C993 C994 1.523 . S
C994 C975 1.368 . S
C994 C988 1.368 . S
C994 C993 1.523 . S
C995 C979 1.429 . S
C995 C991 1.429 . S
C995 C996 1.523 . S
C996 C980 1.368 . S
C996 C992 1.368 . S
C996 C995 1.523 . S
H997 C972 0.950 . S
H998 C974 0.950 . S
H999 C975 0.949 . S
H1000 C977 0.950 . S
H1001 C979 0.950 . S
C1002 C1003 1.349 . S
C1002 C1004 1.327 . S
C1002 H1027 0.950 . S
C1003 C1002 1.349 . S
C1003 C1019 1.349 . S
C1004 C1002 1.327 . S
C1004 C1023 1.429 . S
C1004 H1028 0.950 . S
C1005 C1022 1.574 . S
C1005 C1024 1.368 . S
C1005 H1029 0.949 . S
H1006 C1010 0.949 . S
C1007 C1008 1.349 . S
C1007 C1009 1.327 . S
C1007 H1030 0.950 . S
C1008 C1007 1.349 . S
C1008 C1020 1.349 . S
C1009 C1007 1.327 . S
C1009 C1025 1.429 . S
C1009 H1031 0.950 . S
C1010 H1006 0.949 . S
C1010 C1018 1.574 . S
C1010 C1026 1.368 . S
H1011 C1019 0.950 . S
H1012 C1017 0.950 . S
H1013 C1018 0.949 . S
H1014 C1020 0.950 . S
H1015 C1021 0.950 . S
H1016 C1022 0.949 . S
C1017 H1012 0.950 . S
C1017 C1019 1.327 . S
C1017 C1023 1.429 . S
C1018 C1010 1.574 . S
C1018 H1013 0.949 . S
C1018 C1024 1.368 . S
C1019 C1003 1.349 . S
C1019 H1011 0.950 . S
C1019 C1017 1.327 . S
C1020 C1008 1.349 . S
C1020 H1014 0.950 . S
C1020 C1021 1.327 . S
C1021 H1015 0.950 . S
C1021 C1020 1.327 . S
C1021 C1025 1.429 . S
C1022 C1005 1.574 . S
C1022 H1016 0.949 . S
C1022 C1026 1.368 . S
C1023 C1004 1.429 . S
C1023 C1017 1.429 . S
C1023 C1024 1.523 . S
C1024 C1005 1.368 . S
C1024 C1018 1.368 . S
C1024 C1023 1.523 . S
C1025 C1009 1.429 . S
C1025 C1021 1.429 . S
C1025 C1026 1.523 . S
C1026 C1010 1.368 . S
C1026 C1022 1.368 . S
C1026 C1025 1.523 . S
H1027 C1002 0.950 . S
H1028 C1004 0.950 . S
H1029 C1005 0.949 . S
H1030 C1007 0.950 . S
H1031 C1009 0.950 . S
C1032 C1033 1.349 . S
C1032 C1034 1.327 . S
C1032 H1057 0.950 . S
C1033 C1032 1.349 . S
C1033 C1049 1.349 . S
C1034 C1032 1.327 . S
C1034 C1053 1.429 . S
C1034 H1058 0.950 . S
C1035 C1052 1.574 . S
C1035 C1054 1.368 . S
C1035 H1059 0.949 . S
H1036 C1040 0.949 . S
C1037 C1038 1.349 . S
C1037 C1039 1.327 . S
C1037 H1060 0.950 . S
C1038 C1037 1.349 . S
C1038 C1050 1.349 . S
C1039 C1037 1.327 . S
C1039 C1055 1.429 . S
C1039 H1061 0.950 . S
C1040 H1036 0.949 . S
C1040 C1048 1.574 . S
C1040 C1056 1.368 . S
H1041 C1049 0.950 . S
H1042 C1047 0.950 . S
H1043 C1048 0.949 . S
H1044 C1050 0.950 . S
H1045 C1051 0.950 . S
H1046 C1052 0.949 . S
C1047 H1042 0.950 . S
C1047 C1049 1.327 . S
C1047 C1053 1.429 . S
C1048 C1040 1.574 . S
C1048 H1043 0.949 . S
C1048 C1054 1.368 . S
C1049 C1033 1.349 . S
C1049 H1041 0.950 . S
C1049 C1047 1.327 . S
C1050 C1038 1.349 . S
C1050 H1044 0.950 . S
C1050 C1051 1.327 . S
C1051 H1045 0.950 . S
C1051 C1050 1.327 . S
C1051 C1055 1.429 . S
C1052 C1035 1.574 . S
C1052 H1046 0.949 . S
C1052 C1056 1.368 . S
C1053 C1034 1.429 . S
C1053 C1047 1.429 . S
C1053 C1054 1.523 . S
C1054 C1035 1.368 . S
C1054 C1048 1.368 . S
C1054 C1053 1.523 . S
C1055 C1039 1.429 . S
C1055 C1051 1.429 . S
C1055 C1056 1.523 . S
C1056 C1040 1.368 . S
C1056 C1052 1.368 . S
C1056 C1055 1.523 . S
H1057 C1032 0.950 . S
H1058 C1034 0.950 . S
H1059 C1035 0.949 . S
H1060 C1037 0.950 . S
H1061 C1039 0.950 . S
C1062 C1063 1.349 . S
C1062 C1064 1.327 . S
C1062 H1087 0.950 . S
C1063 C1062 1.349 . S
C1063 C1079 1.349 . S
C1064 C1062 1.327 . S
C1064 C1083 1.429 . S
C1064 H1088 0.950 . S
C1065 C1082 1.574 . S
C1065 C1084 1.368 . S
C1065 H1089 0.949 . S
H1066 C1070 0.949 . S
C1067 C1068 1.349 . S
C1067 C1069 1.327 . S
C1067 H1090 0.950 . S
C1068 C1067 1.349 . S
C1068 C1080 1.349 . S
C1069 C1067 1.327 . S
C1069 C1085 1.429 . S
C1069 H1091 0.950 . S
C1070 H1066 0.949 . S
C1070 C1078 1.574 . S
C1070 C1086 1.368 . S
H1071 C1079 0.950 . S
H1072 C1077 0.950 . S
H1073 C1078 0.949 . S
H1074 C1080 0.950 . S
H1075 C1081 0.950 . S
H1076 C1082 0.949 . S
C1077 H1072 0.950 . S
C1077 C1079 1.327 . S
C1077 C1083 1.429 . S
C1078 C1070 1.574 . S
C1078 H1073 0.949 . S
C1078 C1084 1.368 . S
C1079 C1063 1.349 . S
C1079 H1071 0.950 . S
C1079 C1077 1.327 . S
C1080 C1068 1.349 . S
C1080 H1074 0.950 . S
C1080 C1081 1.327 . S
C1081 H1075 0.950 . S
C1081 C1080 1.327 . S
C1081 C1085 1.429 . S
C1082 C1065 1.574 . S
C1082 H1076 0.949 . S
C1082 C1086 1.368 . S
C1083 C1064 1.429 . S
C1083 C1077 1.429 . S
C1083 C1084 1.523 . S
C1084 C1065 1.368 . S
C1084 C1078 1.368 . S
C1084 C1083 1.523 . S
C1085 C1069 1.429 . S
C1085 C1081 1.429 . S
C1085 C1086 1.523 . S
C1086 C1070 1.368 . S
C1086 C1082 1.368 . S
C1086 C1085 1.523 . S
H1087 C1062 0.950 . S
H1088 C1064 0.950 . S
H1089 C1065 0.949 . S
H1090 C1067 0.950 . S
H1091 C1069 0.950 . S
C1092 C1093 1.349 . S
C1092 C1094 1.327 . S
C1092 H1117 0.950 . S
C1093 C1092 1.349 . S
C1093 C1109 1.349 . S
C1094 C1092 1.327 . S
C1094 C1113 1.429 . S
C1094 H1118 0.950 . S
C1095 C1112 1.574 . S
C1095 C1114 1.368 . S
C1095 H1119 0.949 . S
H1096 C1100 0.949 . S
C1097 C1098 1.349 . S
C1097 C1099 1.327 . S
C1097 H1120 0.950 . S
C1098 C1097 1.349 . S
C1098 C1110 1.349 . S
C1099 C1097 1.327 . S
C1099 C1115 1.429 . S
C1099 H1121 0.950 . S
C1100 H1096 0.949 . S
C1100 C1108 1.574 . S
C1100 C1116 1.368 . S
H1101 C1109 0.950 . S
H1102 C1107 0.950 . S
H1103 C1108 0.949 . S
H1104 C1110 0.950 . S
H1105 C1111 0.950 . S
H1106 C1112 0.949 . S
C1107 H1102 0.950 . S
C1107 C1109 1.327 . S
C1107 C1113 1.429 . S
C1108 C1100 1.574 . S
C1108 H1103 0.949 . S
C1108 C1114 1.368 . S
C1109 C1093 1.349 . S
C1109 H1101 0.950 . S
C1109 C1107 1.327 . S
C1110 C1098 1.349 . S
C1110 H1104 0.950 . S
C1110 C1111 1.327 . S
C1111 H1105 0.950 . S
C1111 C1110 1.327 . S
C1111 C1115 1.429 . S
C1112 C1095 1.574 . S
C1112 H1106 0.949 . S
C1112 C1116 1.368 . S
C1113 C1094 1.429 . S
C1113 C1107 1.429 . S
C1113 C1114 1.523 . S
C1114 C1095 1.368 . S
C1114 C1108 1.368 . S
C1114 C1113 1.523 . S
C1115 C1099 1.429 . S
C1115 C1111 1.429 . S
C1115 C1116 1.523 . S
C1116 C1100 1.368 . S
C1116 C1112 1.368 . S
C1116 C1115 1.523 . S
H1117 C1092 0.950 . S
H1118 C1094 0.950 . S
H1119 C1095 0.949 . S
H1120 C1097 0.950 . S
H1121 C1099 0.950 . S
C1122 C1123 1.349 . S
C1122 C1124 1.327 . S
C1122 H1147 0.950 . S
C1123 C1122 1.349 . S
C1123 C1139 1.349 . S
C1124 C1122 1.327 . S
C1124 C1143 1.429 . S
C1124 H1148 0.950 . S
C1125 C1142 1.574 . S
C1125 C1144 1.368 . S
C1125 H1149 0.949 . S
H1126 C1130 0.949 . S
C1127 C1128 1.349 . S
C1127 C1129 1.327 . S
C1127 H1150 0.950 . S
C1128 C1127 1.349 . S
C1128 C1140 1.349 . S
C1129 C1127 1.327 . S
C1129 C1145 1.429 . S
C1129 H1151 0.950 . S
C1130 H1126 0.949 . S
C1130 C1138 1.574 . S
C1130 C1146 1.368 . S
H1131 C1139 0.950 . S
H1132 C1137 0.950 . S
H1133 C1138 0.949 . S
H1134 C1140 0.950 . S
H1135 C1141 0.950 . S
H1136 C1142 0.949 . S
C1137 H1132 0.950 . S
C1137 C1139 1.327 . S
C1137 C1143 1.429 . S
C1138 C1130 1.574 . S
C1138 H1133 0.949 . S
C1138 C1144 1.368 . S
C1139 C1123 1.349 . S
C1139 H1131 0.950 . S
C1139 C1137 1.327 . S
C1140 C1128 1.349 . S
C1140 H1134 0.950 . S
C1140 C1141 1.327 . S
C1141 H1135 0.950 . S
C1141 C1140 1.327 . S
C1141 C1145 1.429 . S
C1142 C1125 1.574 . S
C1142 H1136 0.949 . S
C1142 C1146 1.368 . S
C1143 C1124 1.429 . S
C1143 C1137 1.429 . S
C1143 C1144 1.523 . S
C1144 C1125 1.368 . S
C1144 C1138 1.368 . S
C1144 C1143 1.523 . S
C1145 C1129 1.429 . S
C1145 C1141 1.429 . S
C1145 C1146 1.523 . S
C1146 C1130 1.368 . S
C1146 C1142 1.368 . S
C1146 C1145 1.523 . S
H1147 C1122 0.950 . S
H1148 C1124 0.950 . S
H1149 C1125 0.949 . S
H1150 C1127 0.950 . S
H1151 C1129 0.950 . S
C433 C76 1.792 . S
C438 C170 1.860 . S
C468 C254 1.891 . S
C463 C88 1.822 . S
C498 C320 1.913 . S
C493 C52 1.938 . S
C528 C404 1.886 . S
C523 C64 1.911 . S
C558 C159 1.860 1_565 S
C553 C28 1.803 . S
C583 C40 1.834 . S
C588 C243 1.891 . S
C613 C4 1.951 . S
C618 C331 1.913 . S
C643 C16 1.923 . S
C648 C415 1.886 . S
C678 C166 0.501 1_455 S
C673 C69 0.482 . S
C708 C250 0.509 . S
C703 C81 0.451 . S
C738 C322 0.499 . S
C733 C93 0.431 . S
C763 C57 0.458 . S
C768 C406 0.511 . S
C793 C21 0.496 . S
C798 C154 0.525 . S
C828 C238 0.509 . S
C823 C33 0.468 . S
C858 C334 0.499 . S
C853 C45 0.451 . S
C883 C9 0.476 . S
C888 C418 0.511 . S
C913 C66 1.971 . S
C918 C163 2.010 . S
C943 C78 1.932 . S
C948 C247 1.971 . S
C978 C327 1.951 . S
C973 C90 1.826 . S
C1008 C411 1.986 . S
C1003 C54 1.860 . S
C1033 C18 1.953 . S
C1038 C152 2.009 . S
C1068 C236 1.962 1_565 S
C1063 C30 1.916 . S
C1098 C338 1.951 . S
C1093 C42 1.809 . S
C1123 C6 1.842 . S
C1128 C422 1.986 . S
