# Generated by pormake.
# Topology hwx, (6,3)-cn, num edge types: 1
# Building blocks:
#     Node 0, Type 0, BuildingBlock: OJICUG_clean_sbu_0, # of connection points: 6
#     Node 1, Type 0, BuildingBlock: OJICUG_clean_sbu_0, # of connection points: 6
#     Node 2, Type 0, BuildingBlock: OJICUG_clean_sbu_0, # of connection points: 6
#     Node 3, Type 0, BuildingBlock: OJICUG_clean_sbu_0, # of connection points: 6
#     Node 4, Type 1, BuildingBlock: ESEHIV_clean_linker_0, # of connection points: 3
#     Node 5, Type 1, BuildingBlock: ESEHIV_clean_linker_0, # of connection points: 3
#     Node 6, Type 1, BuildingBlock: ESEHIV_clean_linker_0, # of connection points: 3
#     Node 7, Type 1, BuildingBlock: ESEHIV_clean_linker_0, # of connection points: 3
#     Node 8, Type 1, BuildingBlock: ESEHIV_clean_linker_0, # of connection points: 3
#     Node 9, Type 1, BuildingBlock: ESEHIV_clean_linker_0, # of connection points: 3
#     Node 10, Type 1, BuildingBlock: ESEHIV_clean_linker_0, # of connection points: 3
#     Node 11, Type 1, BuildingBlock: ESEHIV_clean_linker_0, # of connection points: 3
#     Edge 12, Type (0, 1), BuildingBlock: AJUNOK_clean_linker_0, # of connection points: 2
#     Edge 13, Type (0, 1), BuildingBlock: AJUNOK_clean_linker_0, # of connection points: 2
#     Edge 14, Type (0, 1), BuildingBlock: AJUNOK_clean_linker_0, # of connection points: 2
#     Edge 15, Type (0, 1), BuildingBlock: AJUNOK_clean_linker_0, # of connection points: 2
#     Edge 16, Type (0, 1), BuildingBlock: AJUNOK_clean_linker_0, # of connection points: 2
#     Edge 17, Type (0, 1), BuildingBlock: AJUNOK_clean_linker_0, # of connection points: 2
#     Edge 18, Type (0, 1), BuildingBlock: AJUNOK_clean_linker_0, # of connection points: 2
#     Edge 19, Type (0, 1), BuildingBlock: AJUNOK_clean_linker_0, # of connection points: 2
#     Edge 20, Type (0, 1), BuildingBlock: AJUNOK_clean_linker_0, # of connection points: 2
#     Edge 21, Type (0, 1), BuildingBlock: AJUNOK_clean_linker_0, # of connection points: 2
#     Edge 22, Type (0, 1), BuildingBlock: AJUNOK_clean_linker_0, # of connection points: 2
#     Edge 23, Type (0, 1), BuildingBlock: AJUNOK_clean_linker_0, # of connection points: 2
#     Edge 24, Type (0, 1), BuildingBlock: AJUNOK_clean_linker_0, # of connection points: 2
#     Edge 25, Type (0, 1), BuildingBlock: AJUNOK_clean_linker_0, # of connection points: 2
#     Edge 26, Type (0, 1), BuildingBlock: AJUNOK_clean_linker_0, # of connection points: 2
#     Edge 27, Type (0, 1), BuildingBlock: AJUNOK_clean_linker_0, # of connection points: 2
#     Edge 28, Type (0, 1), BuildingBlock: AJUNOK_clean_linker_0, # of connection points: 2
#     Edge 29, Type (0, 1), BuildingBlock: AJUNOK_clean_linker_0, # of connection points: 2
#     Edge 30, Type (0, 1), BuildingBlock: AJUNOK_clean_linker_0, # of connection points: 2
#     Edge 31, Type (0, 1), BuildingBlock: AJUNOK_clean_linker_0, # of connection points: 2
#     Edge 32, Type (0, 1), BuildingBlock: AJUNOK_clean_linker_0, # of connection points: 2
#     Edge 33, Type (0, 1), BuildingBlock: AJUNOK_clean_linker_0, # of connection points: 2
#     Edge 34, Type (0, 1), BuildingBlock: AJUNOK_clean_linker_0, # of connection points: 2
#     Edge 35, Type (0, 1), BuildingBlock: AJUNOK_clean_linker_0, # of connection points: 2
# Relax obj value: 0.076
# Max RMSD: 0.101
# Mean RMSD: 0.093
data_MOF--net-hwx--node1-OJICUG_clean_sbu_0--node2-ESEHIV_clean_linker_0--edge1-AJUNOK_clean_linker_0
_symmetry_space_group_name_H-M    P1
_symmetry_Int_Tables_number       1
_symmetry_cell_setting            triclinic
loop_
_symmetry_equiv_pos_as_xyz
'x, y, z'
_cell_length_a     34.757248
_cell_length_b     34.761033
_cell_length_c     15.709037
_cell_angle_alpha  90.051469
_cell_angle_beta   89.964132
_cell_angle_gamma 90.055161
loop_
_atom_site_label
_atom_site_type_symbol
_atom_site_fract_x
_atom_site_fract_y
_atom_site_fract_z
_atom_type_partial_charge
Sc0 Sc 0.23128 0.22686 0.11016 0.0
Sc1 Sc 0.16827 0.16444 -0.0 0.0
Sc2 Sc 0.2306 0.22613 0.88683 0.0
O3 O 0.21001 0.20582 -0.00099 0.0
C4 C 0.22741 0.30273 -0.00213 0.0
C5 C 0.14168 0.21886 0.15269 0.0
C6 C 0.14067 0.21877 0.84821 0.0
C7 C 0.22303 0.1373 0.15138 0.0
C8 C 0.30717 0.22122 -0.00253 0.0
C9 C 0.22161 0.13647 0.84685 0.0
O10 O 0.22835 0.28553 0.06904 0.0
O11 O 0.13498 0.19358 0.09613 0.0
O12 O 0.17394 0.23274 0.83498 0.0
O13 O 0.23729 0.17051 0.16355 0.0
O14 O 0.28961 0.22163 0.9266 0.0
O15 O 0.19657 0.13021 0.90415 0.0
O16 O 0.29009 0.22317 0.06882 0.0
O17 O 0.19773 0.1306 0.09482 0.0
O18 O 0.23618 0.16948 0.83394 0.0
O19 O 0.17484 0.2334 0.1642 0.0
O20 O 0.22746 0.28531 0.92678 0.0
O21 O 0.13409 0.19366 0.90524 0.0
Sc22 Sc 0.25472 0.72638 0.38431 0.0
Sc23 Sc 0.31486 0.66227 0.49712 0.0
Sc24 Sc 0.2545 0.727 0.60741 0.0
O25 O 0.27475 0.70521 0.49628 0.0
C26 C 0.26067 0.80279 0.49441 0.0
C27 C 0.34407 0.71495 0.34385 0.0
C28 C 0.34392 0.71681 0.64769 0.0
C29 C 0.25936 0.63627 0.34614 0.0
C30 C 0.17828 0.72366 0.49538 0.0
C31 C 0.25998 0.63737 0.65021 0.0
O32 O 0.25968 0.7852 0.42366 0.0
O33 O 0.34971 0.68963 0.4008 0.0
O34 O 0.31122 0.73224 0.65963 0.0
O35 O 0.24671 0.66995 0.33258 0.0
O36 O 0.19549 0.72373 0.5667 0.0
O37 O 0.28488 0.62964 0.59342 0.0
O38 O 0.1957 0.725 0.42442 0.0
O39 O 0.28448 0.62886 0.40263 0.0
O40 O 0.24705 0.67107 0.66224 0.0
O41 O 0.3115 0.73055 0.33161 0.0
O42 O 0.2595 0.78579 0.56586 0.0
O43 O 0.34965 0.6909 0.59186 0.0
Sc44 Sc 0.75564 0.75814 0.88448 0.0
Sc45 Sc 0.81706 0.82034 -0.00112 0.0
Sc46 Sc 0.75378 0.75783 0.10732 0.0
O47 O 0.77553 0.77884 -0.00312 0.0
C48 C 0.67851 0.76212 -0.00511 0.0
C49 C 0.76268 0.84784 0.84628 0.0
C50 C 0.76251 0.84735 0.15028 0.0
C51 C 0.84544 0.76808 0.84536 0.0
C52 C 0.76046 0.68186 -0.00634 0.0
C53 C 0.84316 0.76445 0.1497 0.0
O54 O 0.69638 0.75815 0.92486 0.0
O55 O 0.78896 0.85376 0.90114 0.0
O56 O 0.74914 0.81388 0.16359 0.0
O57 O 0.81208 0.75494 0.82996 0.0
O58 O 0.75538 0.69898 0.06428 0.0
O59 O 0.84978 0.79126 0.09649 0.0
O60 O 0.76276 0.6994 0.92301 0.0
O61 O 0.85223 0.79141 0.90579 0.0
O62 O 0.81011 0.74947 0.15941 0.0
O63 O 0.74713 0.81508 0.83516 0.0
O64 O 0.69536 0.76425 0.06635 0.0
O65 O 0.78687 0.85443 0.09203 0.0
Sc66 Sc 0.72938 0.2582 0.60296 0.0
Sc67 Sc 0.66775 0.31945 0.48715 0.0
Sc68 Sc 0.73236 0.2577 0.3802 0.0
O69 O 0.70978 0.27852 0.49009 0.0
C70 C 0.80705 0.26323 0.49463 0.0
C71 C 0.72131 0.34788 0.64055 0.0
C72 C 0.72268 0.347 0.33664 0.0
C73 C 0.63932 0.26702 0.64037 0.0
C74 C 0.72571 0.18177 0.49383 0.0
C75 C 0.64301 0.263 0.33573 0.0
O76 O 0.78885 0.25905 0.56416 0.0
O77 O 0.6952 0.3535 0.58514 0.0
O78 O 0.73669 0.31376 0.324 0.0
O79 O 0.67275 0.25423 0.65617 0.0
O80 O 0.73101 0.19883 0.42325 0.0
O81 O 0.63576 0.28961 0.38914 0.0
O82 O 0.72306 0.19939 0.56436 0.0
O83 O 0.63252 0.29032 0.58 0.0
O84 O 0.67636 0.24862 0.32654 0.0
O85 O 0.73698 0.31526 0.6522 0.0
O86 O 0.79056 0.26494 0.42271 0.0
O87 O 0.69784 0.35374 0.39413 0.0
H88 H 0.22922 0.58122 -0.0004 0.0
H89 H 0.23019 0.47487 0.86049 0.0
H90 H 0.22486 0.47445 0.13527 0.0
C91 C 0.22744 0.55005 -0.00111 0.0
C92 C 0.22653 0.53001 0.07595 0.0
C93 C 0.2281 0.53042 0.92108 0.0
C94 C 0.22859 0.4901 0.92064 0.0
C95 C 0.22766 0.46951 -0.00222 0.0
C96 C 0.2262 0.48979 0.07531 0.0
H97 H 0.9002 0.73819 0.49559 0.0
H98 H 0.00608 0.72749 0.35716 0.0
H99 H 0.00705 0.73373 0.63179 0.0
C100 C 0.93125 0.73499 0.49547 0.0
C101 C 0.95132 0.73539 0.57261 0.0
C102 C 0.95086 0.7325 0.41792 0.0
C103 C 0.99103 0.72964 0.41743 0.0
C104 C 0.01161 0.72912 0.49459 0.0
C105 C 0.99151 0.73268 0.57204 0.0
H106 H 0.75104 0.4035 0.98779 0.0
H107 H 0.76275 0.50904 0.1273 0.0
H108 H 0.75637 0.51055 0.85279 0.0
C109 C 0.75468 0.4345 0.98843 0.0
C110 C 0.75478 0.4547 0.91143 0.0
C111 C 0.75685 0.45393 0.06631 0.0
C112 C 0.76048 0.49407 0.06695 0.0
C113 C 0.76092 0.51487 0.99008 0.0
C114 C 0.75753 0.49492 0.91237 0.0
H115 H 0.08523 0.24806 0.50228 0.0
H116 H 0.97882 0.26105 0.63777 0.0
H117 H 0.97948 0.25623 0.363 0.0
C118 C 0.0543 0.25226 0.50165 0.0
C119 C 0.03478 0.2531 0.42383 0.0
C120 C 0.03427 0.25451 0.57875 0.0
C121 C -0.00579 0.2588 0.57793 0.0
C122 C 0.97406 0.26013 0.50021 0.0
C123 C -0.00538 0.25671 0.42325 0.0
H124 H 0.73254 0.90338 0.49886 0.0
H125 H 0.72748 0.01037 0.63461 0.0
H126 H 0.72202 0.00909 0.36005 0.0
C127 C 0.72904 0.9344 0.49846 0.0
C128 C 0.72726 0.9539 0.4207 0.0
C129 C 0.72885 0.95453 0.57563 0.0
C130 C 0.72638 -0.00523 0.57492 0.0
C131 C 0.72347 0.0148 0.4973 0.0
C132 C 0.72394 -0.00595 0.42032 0.0
H133 H 0.5855 0.23553 0.98843 0.0
H134 H 0.48055 0.22324 0.12956 0.0
H135 H 0.47794 0.23101 0.8551 0.0
C136 C 0.55447 0.232 0.98938 0.0
C137 C 0.53397 0.23252 0.91281 0.0
C138 C 0.53535 0.22909 0.06743 0.0
C139 C 0.4952 0.22577 0.06889 0.0
C140 C 0.4741 0.22548 0.99231 0.0
C141 C 0.49377 0.22959 0.9144 0.0
H142 H 0.25269 0.08114 0.50058 0.0
H143 H 0.26359 0.97591 0.3601 0.0
H144 H 0.25652 0.97361 0.63444 0.0
C145 C 0.25599 0.0501 0.49968 0.0
C146 C 0.25582 0.02974 0.57651 0.0
C147 C 0.25793 0.0308 0.42163 0.0
C148 C 0.26099 0.99068 0.42061 0.0
C149 C 0.26006 0.96964 0.49707 0.0
C150 C 0.25768 0.98945 0.57509 0.0
H151 H 0.40063 0.74181 -0.0045 0.0
H152 H 0.50633 0.75611 0.85795 0.0
H153 H 0.50703 0.74951 0.13258 0.0
C154 C 0.43158 0.74591 -0.00452 0.0
C155 C 0.45148 0.74645 0.07282 0.0
C156 C 0.45123 0.74872 0.91803 0.0
C157 C 0.49126 0.75323 0.91805 0.0
C158 C 0.51175 0.75424 -0.00468 0.0
C159 C 0.49162 0.75015 0.07266 0.0
C160 C 0.11583 0.26248 0.26543 0.0
C161 C 0.11038 0.23043 0.2118 0.0
C162 C 0.08977 0.27104 0.33052 0.0
C163 C 0.05715 0.24804 0.34449 0.0
H164 H 0.14117 0.28043 0.25928 0.0
H165 H 0.096 0.295 0.37254 0.0
S166 S 0.02737 0.163 0.21822 0.0
N167 N 0.06794 0.17727 0.17347 0.0
N168 N 0.01917 0.19348 0.29681 0.0
C169 C 0.04992 0.21737 0.28853 0.0
C170 C 0.07649 0.20855 0.22193 0.0
C171 C 0.27044 0.57365 0.72117 0.0
C172 C 0.24744 0.60658 0.70935 0.0
C173 C 0.26247 0.5473 0.78643 0.0
C174 C 0.23116 0.55295 0.84162 0.0
H175 H 0.29602 0.56924 0.68297 0.0
H176 H 0.28226 0.52371 0.79697 0.0
S177 S 0.15827 0.6304 0.82889 0.0
N178 N 0.1891 0.64039 0.75204 0.0
N179 N 0.17427 0.59065 0.87393 0.0
C180 C 0.20625 0.58391 0.82633 0.0
C181 C 0.21435 0.61079 0.76039 0.0
C182 C 0.90663 0.77589 0.2212 0.0
C183 C 0.87444 0.75196 0.20757 0.0
C184 C 0.93329 0.76779 0.2857 0.0
C185 C 0.92862 0.73552 0.33836 0.0
H186 H 0.91019 0.8022 0.18513 0.0
H187 H 0.95626 0.78815 0.29791 0.0
S188 S 0.85377 0.66015 0.31985 0.0
N189 N 0.84281 0.69164 0.2451 0.0
N190 N 0.89276 0.67707 0.36682 0.0
C191 C 0.89847 0.70986 0.3214 0.0
C192 C 0.87142 0.7179 0.2558 0.0
C193 C 0.76572 0.37553 0.74939 0.0
C194 C 0.73258 0.37967 0.69859 0.0
C195 C 0.77407 0.40157 0.8146 0.0
C196 C 0.7498 0.43292 0.83138 0.0
H197 H 0.78469 0.3511 0.74114 0.0
H198 H 0.79885 0.39622 0.85473 0.0
S199 S 0.66166 0.45935 0.71261 0.0
N200 N 0.67702 0.41972 0.66558 0.0
N201 N 0.69295 0.46859 0.789 0.0
C202 C 0.71805 0.43905 0.77794 0.0
C203 C 0.70939 0.41244 0.71127 0.0
C204 C 0.5791 0.27284 0.26484 0.0
C205 C 0.61209 0.24995 0.27723 0.0
C206 C 0.5525 0.26424 0.20046 0.0
C207 C 0.55798 0.23248 0.14655 0.0
H208 H 0.57477 0.29875 0.30199 0.0
H209 H 0.52881 0.28387 0.18945 0.0
S210 S 0.63534 0.15965 0.16117 0.0
N211 N 0.64554 0.19102 0.23685 0.0
N212 N 0.59567 0.17551 0.11546 0.0
C213 C 0.58905 0.2078 0.16208 0.0
C214 C 0.61606 0.21636 0.22758 0.0
C215 C 0.26636 0.10905 0.73843 0.0
C216 C 0.23307 0.10482 0.7888 0.0
C217 C 0.27498 0.08291 0.67355 0.0
C218 C 0.2508 0.05144 0.65667 0.0
H219 H 0.28524 0.13357 0.74689 0.0
H220 H 0.29987 0.08831 0.63369 0.0
S221 S 0.16222 0.02499 0.77432 0.0
N222 N 0.17743 0.0647 0.82133 0.0
N223 N 0.19379 0.01571 0.69846 0.0
C224 C 0.21887 0.04529 0.70973 0.0
C225 C 0.20998 0.07196 0.77608 0.0
C226 C 0.37178 0.75829 0.23315 0.0
C227 C 0.37585 0.72557 0.28523 0.0
C228 C 0.39798 0.76618 0.16799 0.0
C229 C 0.4294 0.74183 0.15252 0.0
H230 H 0.34734 0.77733 0.24047 0.0
H231 H 0.39272 0.79067 0.12699 0.0
S232 S 0.45561 0.65462 0.27468 0.0
N233 N 0.41584 0.67027 0.32067 0.0
N234 N 0.46503 0.68535 0.19729 0.0
C235 C 0.43542 0.71046 0.20708 0.0
C236 C 0.40865 0.70228 0.27372 0.0
C237 C 0.71831 0.8749 0.73668 0.0
C238 C 0.75118 0.87948 0.78817 0.0
C239 C 0.70986 0.90092 0.67157 0.0
C240 C 0.73378 0.93267 0.65556 0.0
H241 H 0.69965 0.85016 0.74429 0.0
H242 H 0.6853 0.89526 0.63096 0.0
S243 S 0.82111 0.96025 0.77629 0.0
N244 N 0.80607 0.92036 0.82263 0.0
N245 N 0.79002 0.9691 0.69937 0.0
C246 C 0.76525 0.93919 0.70966 0.0
C247 C 0.77398 0.91263 0.77623 0.0
C248 C 0.87222 0.72422 0.73477 0.0
C249 C 0.87686 0.75699 0.78656 0.0
C250 C 0.898 0.7161 0.66895 0.0
C251 C 0.92949 0.74031 0.65255 0.0
H252 H 0.84766 0.70536 0.74297 0.0
H253 H 0.89239 0.69153 0.62826 0.0
S254 S 0.95679 0.82772 0.77349 0.0
N255 N 0.91723 0.81223 0.82067 0.0
N256 N 0.96565 0.7968 0.69607 0.0
C257 C 0.93601 0.77174 0.70685 0.0
C258 C 0.9097 0.78011 0.77417 0.0
C259 C 0.76624 0.37257 0.2235 0.0
C260 C 0.73454 0.37834 0.27804 0.0
C261 C 0.77489 0.39865 0.15857 0.0
C262 C 0.75239 0.43166 0.14586 0.0
H263 H 0.78376 0.34693 0.2287 0.0
H264 H 0.79841 0.39212 0.11562 0.0
S265 S 0.66877 0.46255 0.27543 0.0
N266 N 0.68251 0.42158 0.31892 0.0
N267 N 0.69891 0.47046 0.19607 0.0
C268 C 0.72225 0.43927 0.20301 0.0
C269 C 0.7133 0.41265 0.26933 0.0
C270 C 0.11471 0.26344 0.73805 0.0
C271 C 0.10915 0.23107 0.79063 0.0
C272 C 0.08869 0.27251 0.67336 0.0
C273 C 0.05596 0.24976 0.65893 0.0
H274 H 0.1402 0.28116 0.74444 0.0
H275 H 0.09515 0.29649 0.63167 0.0
S276 S 0.02556 0.16445 0.7833 0.0
N277 N 0.06633 0.17814 0.82806 0.0
N278 N 0.0175 0.19539 0.70565 0.0
C279 C 0.04846 0.21897 0.71432 0.0
C280 C 0.07504 0.20958 0.78043 0.0
C281 C 0.26969 0.57263 0.27494 0.0
C282 C 0.2463 0.60512 0.28862 0.0
C283 C 0.2614 0.54641 0.20961 0.0
C284 C 0.22946 0.55185 0.15623 0.0
H285 H 0.29584 0.56862 0.31134 0.0
H286 H 0.28147 0.52323 0.19726 0.0
S287 S 0.15514 0.62758 0.17574 0.0
N288 N 0.18663 0.63779 0.25113 0.0
N289 N 0.17154 0.58856 0.12805 0.0
C290 C 0.20414 0.58221 0.17368 0.0
C291 C 0.21243 0.60884 0.24003 0.0
C292 C 0.37051 0.75996 0.76035 0.0
C293 C 0.37566 0.72816 0.70576 0.0
C294 C 0.39667 0.76802 0.82542 0.0
C295 C 0.42919 0.74486 0.83815 0.0
H296 H 0.34521 0.77797 0.7553 0.0
H297 H 0.39053 0.79158 0.86859 0.0
S298 S 0.45873 0.66095 0.70817 0.0
N299 N 0.41801 0.67542 0.66464 0.0
N300 N 0.46714 0.69085 0.78776 0.0
C301 C 0.43634 0.71469 0.78085 0.0
C302 C 0.40958 0.70629 0.7144 0.0
C303 C 0.71849 0.87268 0.2627 0.0
C304 C 0.75039 0.87859 0.20883 0.0
C305 C 0.70957 0.89869 0.32764 0.0
C306 C 0.73202 0.93172 0.34105 0.0
H307 H 0.70099 0.847 0.25691 0.0
H308 H 0.68587 0.89207 0.37007 0.0
S309 S 0.81618 0.96286 0.21343 0.0
N310 N 0.80259 0.92192 0.16932 0.0
N311 N 0.78572 0.97066 0.29224 0.0
C312 C 0.76239 0.93945 0.28456 0.0
C313 C 0.77159 0.91292 0.21819 0.0
C314 C 0.61238 0.22223 0.74881 0.0
C315 C 0.60785 0.25547 0.69863 0.0
C316 C 0.58669 0.21365 0.81453 0.0
C317 C 0.55541 0.23785 0.83245 0.0
H318 H 0.63683 0.20336 0.7395 0.0
H319 H 0.59227 0.18874 0.8541 0.0
S320 S 0.52845 0.32643 0.71591 0.0
N321 N 0.5678 0.31118 0.66754 0.0
N322 N 0.51953 0.29487 0.79195 0.0
C323 C 0.54896 0.26976 0.77965 0.0
C324 C 0.57518 0.27861 0.71241 0.0
C325 C 0.26683 0.11207 0.26411 0.0
C326 C 0.2351 0.10604 0.2098 0.0
C327 C 0.27563 0.08615 0.32915 0.0
C328 C 0.25325 0.05306 0.3422 0.0
H329 H 0.28425 0.13779 0.2587 0.0
H330 H 0.29917 0.09286 0.37189 0.0
S331 S 0.16959 0.02153 0.21345 0.0
N332 N 0.18317 0.0625 0.16955 0.0
N333 N 0.19982 0.01391 0.29265 0.0
C334 C 0.22307 0.0452 0.28532 0.0
C335 C 0.21398 0.07166 0.21887 0.0
C336 C 0.20486 0.36574 0.94094 0.0
C337 C 0.22796 0.34501 -0.00196 0.0
C338 C 0.20493 0.40605 0.94113 0.0
C339 C 0.22861 0.42689 -0.00253 0.0
H340 H 0.18609 0.35072 0.89698 0.0
H341 H 0.18593 0.42099 0.89768 0.0
S342 S 0.29797 0.38553 0.15189 0.0
N343 N 0.27685 0.34779 0.10833 0.0
N344 N 0.27828 0.4235 0.10641 0.0
C345 C 0.25279 0.40629 0.05287 0.0
C346 C 0.25216 0.36536 0.05369 0.0
C347 C 0.1161 0.74724 0.4374 0.0
C348 C 0.13598 0.72349 0.49474 0.0
C349 C 0.07587 0.74876 0.43752 0.0
C350 C 0.05414 0.72612 0.49414 0.0
H351 H 0.13178 0.76551 0.39353 0.0
H352 H 0.06175 0.76834 0.39401 0.0
S353 S 0.09274 0.65575 0.64962 0.0
N354 N 0.13134 0.67514 0.60574 0.0
N355 N 0.05554 0.67679 0.60392 0.0
C356 C 0.07376 0.70128 0.54986 0.0
C357 C 0.11475 0.70025 0.55065 0.0
C358 C 0.73975 0.61837 0.0509 0.0
C359 C 0.76241 0.63951 -0.00655 0.0
C360 C 0.73965 0.57813 0.04953 0.0
C361 C 0.76267 0.55752 0.99155 0.0
H362 H 0.72116 0.63301 0.0958 0.0
H363 H 0.72077 0.56309 0.09318 0.0
S364 S 0.83038 0.59965 0.83421 0.0
N365 N 0.81009 0.63722 0.88031 0.0
N366 N 0.81103 0.56143 0.87972 0.0
C367 C 0.78641 0.57839 0.93552 0.0
C368 C 0.78603 0.61941 0.93604 0.0
C369 C 0.86939 0.24138 0.55571 0.0
C370 C 0.84942 0.26449 0.49726 0.0
C371 C 0.90964 0.24038 0.55651 0.0
C372 C 0.93143 0.26296 0.4998 0.0
H373 H 0.85381 0.22305 0.59958 0.0
H374 H 0.92374 0.22111 0.60073 0.0
S375 S 0.89258 0.33171 0.34086 0.0
N376 N 0.85405 0.31216 0.38468 0.0
N377 N 0.92983 0.31156 0.38833 0.0
C378 C 0.91171 0.28724 0.44295 0.0
C379 C 0.87069 0.28772 0.4412 0.0
C380 C 0.74618 0.11806 0.43721 0.0
C381 C 0.72349 0.13943 0.49415 0.0
C382 C 0.74583 0.07782 0.43857 0.0
C383 C 0.7223 0.05746 0.49601 0.0
H384 H 0.7651 0.13252 0.39268 0.0
H385 H 0.76472 0.06257 0.39529 0.0
S386 S 0.6544 0.10029 0.65195 0.0
N387 N 0.67529 0.13764 0.60629 0.0
N388 N 0.67354 0.06187 0.60684 0.0
C389 C 0.69858 0.07858 0.55159 0.0
C390 C 0.69941 0.11959 0.55108 0.0
C391 C 0.37013 0.24293 0.05549 0.0
C392 C 0.34952 0.22036 -0.00309 0.0
C393 C 0.41036 0.24426 0.05368 0.0
C394 C 0.43148 0.22257 -0.00587 0.0
H395 H 0.35503 0.26054 0.10159 0.0
H396 H 0.42494 0.26306 0.09825 0.0
S397 S 0.3908 0.15561 0.83318 0.0
N398 N 0.35279 0.1743 0.88082 0.0
N399 N 0.42859 0.1754 0.87953 0.0
C400 C 0.41112 0.19889 0.93693 0.0
C401 C 0.3701 0.19811 0.93784 0.0
C402 C 0.28358 0.86579 0.55146 0.0
C403 C 0.26086 0.84509 0.49336 0.0
C404 C 0.28343 0.90611 0.55189 0.0
C405 C 0.26005 0.92699 0.49521 0.0
H406 H 0.3019 0.85073 0.59613 0.0
H407 H 0.30194 0.92103 0.59652 0.0
S408 S 0.19198 0.88569 0.33747 0.0
N409 N 0.2129 0.84795 0.38114 0.0
N410 N 0.21124 0.92361 0.38429 0.0
C411 C 0.23644 0.90641 0.43836 0.0
C412 C 0.23718 0.86548 0.43688 0.0
C413 C 0.61638 0.73865 0.93567 0.0
C414 C 0.63614 0.76226 -0.00634 0.0
C415 C 0.5762 0.73636 0.93659 0.0
C416 C 0.55427 0.75807 -0.00534 0.0
H417 H 0.63212 0.72092 0.89083 0.0
H418 H 0.56228 0.71682 0.89253 0.0
S419 S 0.59239 0.82753 0.15334 0.0
N420 N 0.63109 0.8094 0.10743 0.0
N421 N 0.55535 0.80632 0.10708 0.0
C422 C 0.57372 0.78278 0.05118 0.0
C423 C 0.6147 0.78461 0.05112 0.0
loop_
_geom_bond_atom_site_label_1
_geom_bond_atom_site_label_2
_geom_bond_distance
_geom_bond_site_symmetry_2
_ccdc_geom_bond_type
Sc0 O3 2.028 . S
Sc0 O10 2.105 . S
Sc0 O13 2.105 . S
Sc0 O16 2.105 . S
Sc0 O19 2.105 . S
Sc1 O3 2.025 . S
Sc1 O11 2.107 . S
Sc1 O15 2.103 1_554 S
Sc1 O17 2.107 . S
Sc1 O21 2.103 1_554 S
Sc2 O3 2.023 1_556 S
Sc2 O12 2.105 . S
Sc2 O14 2.105 . S
Sc2 O18 2.105 . S
Sc2 O20 2.105 . S
O3 Sc0 2.028 . S
O3 Sc1 2.025 . S
O3 Sc2 2.023 1_554 S
C4 O10 1.269 . S
C4 O20 1.267 1_554 S
C5 O11 1.268 . S
C5 O19 1.268 . S
C6 O12 1.268 . S
C6 O21 1.268 . S
C7 O13 1.268 . S
C7 O17 1.268 . S
C8 O14 1.264 1_554 S
C8 O16 1.272 . S
C9 O15 1.268 . S
C9 O18 1.268 . S
O10 Sc0 2.105 . S
O10 C4 1.269 . S
O11 Sc1 2.107 . S
O11 C5 1.268 . S
O12 Sc2 2.105 . S
O12 C6 1.268 . S
O13 Sc0 2.105 . S
O13 C7 1.268 . S
O14 Sc2 2.105 . S
O14 C8 1.264 1_556 S
O15 Sc1 2.103 1_556 S
O15 C9 1.268 . S
O16 Sc0 2.105 . S
O16 C8 1.272 . S
O17 Sc1 2.107 . S
O17 C7 1.268 . S
O18 Sc2 2.105 . S
O18 C9 1.268 . S
O19 Sc0 2.105 . S
O19 C5 1.268 . S
O20 Sc2 2.105 . S
O20 C4 1.267 1_556 S
O21 Sc1 2.103 1_556 S
O21 C6 1.268 . S
Sc22 O25 2.025 . S
Sc22 O32 2.105 . S
Sc22 O35 2.105 . S
Sc22 O38 2.105 . S
Sc22 O41 2.105 . S
Sc23 O25 2.025 . S
Sc23 O33 2.105 . S
Sc23 O37 2.105 . S
Sc23 O39 2.105 . S
Sc23 O43 2.105 . S
Sc24 O25 2.025 . S
Sc24 O34 2.105 . S
Sc24 O36 2.105 . S
Sc24 O40 2.105 . S
Sc24 O42 2.105 . S
O25 Sc22 2.025 . S
O25 Sc23 2.025 . S
O25 Sc24 2.025 . S
C26 O32 1.268 . S
C26 O42 1.268 . S
C27 O33 1.268 . S
C27 O41 1.268 . S
C28 O34 1.268 . S
C28 O43 1.268 . S
C29 O35 1.268 . S
C29 O39 1.268 . S
C30 O36 1.268 . S
C30 O38 1.268 . S
C31 O37 1.268 . S
C31 O40 1.268 . S
O32 Sc22 2.105 . S
O32 C26 1.268 . S
O33 Sc23 2.105 . S
O33 C27 1.268 . S
O34 Sc24 2.105 . S
O34 C28 1.268 . S
O35 Sc22 2.105 . S
O35 C29 1.268 . S
O36 Sc24 2.105 . S
O36 C30 1.268 . S
O37 Sc23 2.105 . S
O37 C31 1.268 . S
O38 Sc22 2.105 . S
O38 C30 1.268 . S
O39 Sc23 2.105 . S
O39 C29 1.268 . S
O40 Sc24 2.105 . S
O40 C31 1.268 . S
O41 Sc22 2.105 . S
O41 C27 1.268 . S
O42 Sc24 2.105 . S
O42 C26 1.268 . S
O43 Sc23 2.105 . S
O43 C28 1.268 . S
Sc44 O47 2.023 1_556 S
Sc44 O54 2.105 . S
Sc44 O57 2.105 . S
Sc44 O60 2.105 . S
Sc44 O63 2.105 . S
Sc45 O47 2.025 . S
Sc45 O55 2.103 1_554 S
Sc45 O59 2.107 . S
Sc45 O61 2.103 1_554 S
Sc45 O65 2.107 . S
Sc46 O47 2.028 . S
Sc46 O56 2.105 . S
Sc46 O58 2.105 . S
Sc46 O62 2.105 . S
Sc46 O64 2.105 . S
O47 Sc44 2.023 1_554 S
O47 Sc45 2.025 . S
O47 Sc46 2.028 . S
C48 O54 1.267 1_554 S
C48 O64 1.269 . S
C49 O55 1.268 . S
C49 O63 1.268 . S
C50 O56 1.268 . S
C50 O65 1.268 . S
C51 O57 1.268 . S
C51 O61 1.268 . S
C52 O58 1.272 . S
C52 O60 1.264 1_554 S
C53 O59 1.268 . S
C53 O62 1.268 . S
O54 Sc44 2.105 . S
O54 C48 1.267 1_556 S
O55 Sc45 2.103 1_556 S
O55 C49 1.268 . S
O56 Sc46 2.105 . S
O56 C50 1.268 . S
O57 Sc44 2.105 . S
O57 C51 1.268 . S
O58 Sc46 2.105 . S
O58 C52 1.272 . S
O59 Sc45 2.107 . S
O59 C53 1.268 . S
O60 Sc44 2.105 . S
O60 C52 1.264 1_556 S
O61 Sc45 2.103 1_556 S
O61 C51 1.268 . S
O62 Sc46 2.105 . S
O62 C53 1.268 . S
O63 Sc44 2.105 . S
O63 C49 1.268 . S
O64 Sc46 2.105 . S
O64 C48 1.269 . S
O65 Sc45 2.107 . S
O65 C50 1.268 . S
Sc66 O69 2.025 . S
Sc66 O76 2.105 . S
Sc66 O79 2.105 . S
Sc66 O82 2.105 . S
Sc66 O85 2.105 . S
Sc67 O69 2.025 . S
Sc67 O77 2.105 . S
Sc67 O81 2.105 . S
Sc67 O83 2.105 . S
Sc67 O87 2.105 . S
Sc68 O69 2.025 . S
Sc68 O78 2.105 . S
Sc68 O80 2.105 . S
Sc68 O84 2.105 . S
Sc68 O86 2.105 . S
O69 Sc66 2.025 . S
O69 Sc67 2.025 . S
O69 Sc68 2.025 . S
C70 O76 1.268 . S
C70 O86 1.268 . S
C71 O77 1.268 . S
C71 O85 1.268 . S
C72 O78 1.268 . S
C72 O87 1.268 . S
C73 O79 1.268 . S
C73 O83 1.268 . S
C74 O80 1.268 . S
C74 O82 1.268 . S
C75 O81 1.268 . S
C75 O84 1.268 . S
O76 Sc66 2.105 . S
O76 C70 1.268 . S
O77 Sc67 2.105 . S
O77 C71 1.268 . S
O78 Sc68 2.105 . S
O78 C72 1.268 . S
O79 Sc66 2.105 . S
O79 C73 1.268 . S
O80 Sc68 2.105 . S
O80 C74 1.268 . S
O81 Sc67 2.105 . S
O81 C75 1.268 . S
O82 Sc66 2.105 . S
O82 C74 1.268 . S
O83 Sc67 2.105 . S
O83 C73 1.268 . S
O84 Sc68 2.105 . S
O84 C75 1.268 . S
O85 Sc66 2.105 . S
O85 C71 1.268 . S
O86 Sc68 2.105 . S
O86 C70 1.268 . S
O87 Sc67 2.105 . S
O87 C72 1.268 . S
H88 C91 0.931 . S
H89 C94 0.928 . S
H90 C96 0.930 . S
C91 H88 0.931 . S
C91 C92 1.413 1_556 S
C91 C93 1.360 . S
C92 C91 1.413 1_554 S
C92 C96 1.429 . S
C93 C91 1.360 . S
C93 C94 1.372 . S
C94 H89 0.928 . S
C94 C93 1.372 . S
C94 C95 1.412 . S
C95 C94 1.412 . S
C95 C96 1.382 1_556 S
C96 H90 0.930 . S
C96 C92 1.429 . S
C96 C95 1.382 1_554 S
H97 C100 0.931 . S
H98 C103 0.923 1_455 S
H99 C105 0.930 . S
C100 H97 0.931 . S
C100 C101 1.413 . S
C100 C102 1.360 . S
C101 C100 1.413 . S
C101 C105 1.429 1_655 S
C102 C100 1.360 . S
C102 C103 1.383 . S
C103 H98 0.923 1_655 S
C103 C102 1.383 . S
C103 C104 1.398 1_655 S
C104 C103 1.398 1_455 S
C104 C105 1.391 . S
C105 H99 0.930 . S
C105 C101 1.429 1_455 S
C105 C104 1.391 . S
H106 C109 0.931 . S
H107 C112 0.928 . S
H108 C114 0.930 . S
C109 H106 0.931 . S
C109 C110 1.413 1_554 S
C109 C111 1.360 . S
C110 C109 1.413 1_556 S
C110 C114 1.429 . S
C111 C109 1.360 . S
C111 C112 1.372 . S
C112 H107 0.928 . S
C112 C111 1.372 . S
C112 C113 1.404 . S
C113 C112 1.404 . S
C113 C114 1.391 1_554 S
C114 H108 0.930 . S
C114 C110 1.429 . S
C114 C113 1.391 1_556 S
H115 C118 0.931 . S
H116 C121 0.929 . S
H117 C123 0.930 . S
C118 H115 0.931 . S
C118 C119 1.413 . S
C118 C120 1.360 . S
C119 C118 1.413 . S
C119 C123 1.429 1_455 S
C120 C118 1.360 . S
C120 C121 1.370 1_455 S
C121 H116 0.929 . S
C121 C120 1.370 1_655 S
C121 C122 1.405 . S
C122 C121 1.405 . S
C122 C123 1.391 . S
C123 H117 0.930 . S
C123 C119 1.429 1_655 S
C123 C122 1.391 . S
H124 C127 0.931 . S
H125 C130 0.923 1_545 S
H126 C132 0.930 . S
C127 H124 0.931 . S
C127 C128 1.413 . S
C127 C129 1.360 . S
C128 C127 1.413 . S
C128 C132 1.429 1_565 S
C129 C127 1.360 . S
C129 C130 1.383 . S
C130 H125 0.923 1_565 S
C130 C129 1.383 . S
C130 C131 1.398 1_565 S
C131 C130 1.398 1_545 S
C131 C132 1.391 . S
C132 H126 0.930 . S
C132 C128 1.429 1_545 S
C132 C131 1.391 . S
H133 C136 0.931 . S
H134 C139 0.928 . S
H135 C141 0.930 . S
C136 H133 0.931 . S
C136 C137 1.413 1_554 S
C136 C138 1.360 . S
C137 C136 1.413 1_556 S
C137 C141 1.429 . S
C138 C136 1.360 . S
C138 C139 1.372 . S
C139 H134 0.928 . S
C139 C138 1.372 . S
C139 C140 1.404 . S
C140 C139 1.404 . S
C140 C141 1.391 1_554 S
C141 H135 0.930 . S
C141 C137 1.429 . S
C141 C140 1.391 1_556 S
H142 C145 0.931 . S
H143 C148 0.929 . S
H144 C150 0.930 . S
C145 H142 0.931 . S
C145 C146 1.413 . S
C145 C147 1.360 . S
C146 C145 1.413 . S
C146 C150 1.429 1_545 S
C147 C145 1.360 . S
C147 C148 1.370 1_545 S
C148 H143 0.929 . S
C148 C147 1.370 1_565 S
C148 C149 1.405 . S
C149 C148 1.405 . S
C149 C150 1.391 . S
C150 H144 0.930 . S
C150 C146 1.429 1_565 S
C150 C149 1.391 . S
H151 C154 0.931 . S
H152 C157 0.928 . S
H153 C159 0.930 . S
C154 H151 0.931 . S
C154 C155 1.413 1_556 S
C154 C156 1.360 . S
C155 C154 1.413 1_554 S
C155 C159 1.429 . S
C156 C154 1.360 . S
C156 C157 1.372 . S
C157 H152 0.928 . S
C157 C156 1.372 . S
C157 C158 1.412 . S
C158 C157 1.412 . S
C158 C159 1.382 1_556 S
C159 H153 0.930 . S
C159 C155 1.429 . S
C159 C158 1.382 1_554 S
C160 C161 1.369 . S
C160 C162 1.419 . S
C160 H164 0.930 . S
C161 C160 1.369 . S
C161 C170 1.429 . S
C162 C160 1.419 . S
C162 C163 1.363 . S
C162 H165 0.929 . S
C163 C162 1.363 . S
C163 C169 1.428 . S
H164 C160 0.930 . S
H165 C162 0.929 . S
S166 N167 1.613 . S
S166 N168 1.610 . S
N167 S166 1.613 . S
N167 C170 1.350 . S
N168 S166 1.610 . S
N168 C169 1.351 . S
C169 C163 1.428 . S
C169 N168 1.351 . S
C169 C170 1.434 . S
C170 C161 1.429 . S
C170 N167 1.350 . S
C170 C169 1.434 . S
C171 C172 1.369 . S
C171 C173 1.419 . S
C171 H175 0.930 . S
C172 C171 1.369 . S
C172 C181 1.429 . S
C173 C171 1.419 . S
C173 C174 1.363 . S
C173 H176 0.929 . S
C174 C173 1.363 . S
C174 C180 1.428 . S
H175 C171 0.930 . S
H176 C173 0.929 . S
S177 N178 1.613 . S
S177 N179 1.610 . S
N178 S177 1.613 . S
N178 C181 1.350 . S
N179 S177 1.610 . S
N179 C180 1.351 . S
C180 C174 1.428 . S
C180 N179 1.351 . S
C180 C181 1.434 . S
C181 C172 1.429 . S
C181 N178 1.350 . S
C181 C180 1.434 . S
C182 C183 1.369 . S
C182 C184 1.419 . S
C182 H186 0.930 . S
C183 C182 1.369 . S
C183 C192 1.429 . S
C184 C182 1.419 . S
C184 C185 1.363 . S
C184 H187 0.929 . S
C185 C184 1.363 . S
C185 C191 1.428 . S
H186 C182 0.930 . S
H187 C184 0.929 . S
S188 N189 1.613 . S
S188 N190 1.610 . S
N189 S188 1.613 . S
N189 C192 1.350 . S
N190 S188 1.610 . S
N190 C191 1.351 . S
C191 C185 1.428 . S
C191 N190 1.351 . S
C191 C192 1.434 . S
C192 C183 1.429 . S
C192 N189 1.350 . S
C192 C191 1.434 . S
C193 C194 1.369 . S
C193 C195 1.419 . S
C193 H197 0.930 . S
C194 C193 1.369 . S
C194 C203 1.429 . S
C195 C193 1.419 . S
C195 C196 1.363 . S
C195 H198 0.929 . S
C196 C195 1.363 . S
C196 C202 1.428 . S
H197 C193 0.930 . S
H198 C195 0.929 . S
S199 N200 1.613 . S
S199 N201 1.610 . S
N200 S199 1.613 . S
N200 C203 1.350 . S
N201 S199 1.610 . S
N201 C202 1.351 . S
C202 C196 1.428 . S
C202 N201 1.351 . S
C202 C203 1.434 . S
C203 C194 1.429 . S
C203 N200 1.350 . S
C203 C202 1.434 . S
C204 C205 1.369 . S
C204 C206 1.419 . S
C204 H208 0.930 . S
C205 C204 1.369 . S
C205 C214 1.429 . S
C206 C204 1.419 . S
C206 C207 1.363 . S
C206 H209 0.929 . S
C207 C206 1.363 . S
C207 C213 1.428 . S
H208 C204 0.930 . S
H209 C206 0.929 . S
S210 N211 1.613 . S
S210 N212 1.610 . S
N211 S210 1.613 . S
N211 C214 1.350 . S
N212 S210 1.610 . S
N212 C213 1.351 . S
C213 C207 1.428 . S
C213 N212 1.351 . S
C213 C214 1.434 . S
C214 C205 1.429 . S
C214 N211 1.350 . S
C214 C213 1.434 . S
C215 C216 1.369 . S
C215 C217 1.419 . S
C215 H219 0.930 . S
C216 C215 1.369 . S
C216 C225 1.429 . S
C217 C215 1.419 . S
C217 C218 1.363 . S
C217 H220 0.929 . S
C218 C217 1.363 . S
C218 C224 1.428 . S
H219 C215 0.930 . S
H220 C217 0.929 . S
S221 N222 1.613 . S
S221 N223 1.610 . S
N222 S221 1.613 . S
N222 C225 1.350 . S
N223 S221 1.610 . S
N223 C224 1.351 . S
C224 C218 1.428 . S
C224 N223 1.351 . S
C224 C225 1.434 . S
C225 C216 1.429 . S
C225 N222 1.350 . S
C225 C224 1.434 . S
C226 C227 1.369 . S
C226 C228 1.419 . S
C226 H230 0.930 . S
C227 C226 1.369 . S
C227 C236 1.429 . S
C228 C226 1.419 . S
C228 C229 1.363 . S
C228 H231 0.929 . S
C229 C228 1.363 . S
C229 C235 1.428 . S
H230 C226 0.930 . S
H231 C228 0.929 . S
S232 N233 1.613 . S
S232 N234 1.610 . S
N233 S232 1.613 . S
N233 C236 1.350 . S
N234 S232 1.610 . S
N234 C235 1.351 . S
C235 C229 1.428 . S
C235 N234 1.351 . S
C235 C236 1.434 . S
C236 C227 1.429 . S
C236 N233 1.350 . S
C236 C235 1.434 . S
C237 C238 1.369 . S
C237 C239 1.419 . S
C237 H241 0.930 . S
C238 C237 1.369 . S
C238 C247 1.429 . S
C239 C237 1.419 . S
C239 C240 1.363 . S
C239 H242 0.929 . S
C240 C239 1.363 . S
C240 C246 1.428 . S
H241 C237 0.930 . S
H242 C239 0.929 . S
S243 N244 1.613 . S
S243 N245 1.610 . S
N244 S243 1.613 . S
N244 C247 1.350 . S
N245 S243 1.610 . S
N245 C246 1.351 . S
C246 C240 1.428 . S
C246 N245 1.351 . S
C246 C247 1.434 . S
C247 C238 1.429 . S
C247 N244 1.350 . S
C247 C246 1.434 . S
C248 C249 1.369 . S
C248 C250 1.419 . S
C248 H252 0.930 . S
C249 C248 1.369 . S
C249 C258 1.429 . S
C250 C248 1.419 . S
C250 C251 1.363 . S
C250 H253 0.929 . S
C251 C250 1.363 . S
C251 C257 1.428 . S
H252 C248 0.930 . S
H253 C250 0.929 . S
S254 N255 1.613 . S
S254 N256 1.610 . S
N255 S254 1.613 . S
N255 C258 1.350 . S
N256 S254 1.610 . S
N256 C257 1.351 . S
C257 C251 1.428 . S
C257 N256 1.351 . S
C257 C258 1.434 . S
C258 C249 1.429 . S
C258 N255 1.350 . S
C258 C257 1.434 . S
C259 C260 1.369 . S
C259 C261 1.419 . S
C259 H263 0.930 . S
C260 C259 1.369 . S
C260 C269 1.429 . S
C261 C259 1.419 . S
C261 C262 1.363 . S
C261 H264 0.929 . S
C262 C261 1.363 . S
C262 C268 1.428 . S
H263 C259 0.930 . S
H264 C261 0.929 . S
S265 N266 1.613 . S
S265 N267 1.610 . S
N266 S265 1.613 . S
N266 C269 1.350 . S
N267 S265 1.610 . S
N267 C268 1.351 . S
C268 C262 1.428 . S
C268 N267 1.351 . S
C268 C269 1.434 . S
C269 C260 1.429 . S
C269 N266 1.350 . S
C269 C268 1.434 . S
C270 C271 1.369 . S
C270 C272 1.419 . S
C270 H274 0.930 . S
C271 C270 1.369 . S
C271 C280 1.429 . S
C272 C270 1.419 . S
C272 C273 1.363 . S
C272 H275 0.929 . S
C273 C272 1.363 . S
C273 C279 1.428 . S
H274 C270 0.930 . S
H275 C272 0.929 . S
S276 N277 1.613 . S
S276 N278 1.610 . S
N277 S276 1.613 . S
N277 C280 1.350 . S
N278 S276 1.610 . S
N278 C279 1.351 . S
C279 C273 1.428 . S
C279 N278 1.351 . S
C279 C280 1.434 . S
C280 C271 1.429 . S
C280 N277 1.350 . S
C280 C279 1.434 . S
C281 C282 1.369 . S
C281 C283 1.419 . S
C281 H285 0.930 . S
C282 C281 1.369 . S
C282 C291 1.429 . S
C283 C281 1.419 . S
C283 C284 1.363 . S
C283 H286 0.929 . S
C284 C283 1.363 . S
C284 C290 1.428 . S
H285 C281 0.930 . S
H286 C283 0.929 . S
S287 N288 1.613 . S
S287 N289 1.610 . S
N288 S287 1.613 . S
N288 C291 1.350 . S
N289 S287 1.610 . S
N289 C290 1.351 . S
C290 C284 1.428 . S
C290 N289 1.351 . S
C290 C291 1.434 . S
C291 C282 1.429 . S
C291 N288 1.350 . S
C291 C290 1.434 . S
C292 C293 1.369 . S
C292 C294 1.419 . S
C292 H296 0.930 . S
C293 C292 1.369 . S
C293 C302 1.429 . S
C294 C292 1.419 . S
C294 C295 1.363 . S
C294 H297 0.929 . S
C295 C294 1.363 . S
C295 C301 1.428 . S
H296 C292 0.930 . S
H297 C294 0.929 . S
S298 N299 1.613 . S
S298 N300 1.610 . S
N299 S298 1.613 . S
N299 C302 1.350 . S
N300 S298 1.610 . S
N300 C301 1.351 . S
C301 C295 1.428 . S
C301 N300 1.351 . S
C301 C302 1.434 . S
C302 C293 1.429 . S
C302 N299 1.350 . S
C302 C301 1.434 . S
C303 C304 1.369 . S
C303 C305 1.419 . S
C303 H307 0.930 . S
C304 C303 1.369 . S
C304 C313 1.429 . S
C305 C303 1.419 . S
C305 C306 1.363 . S
C305 H308 0.929 . S
C306 C305 1.363 . S
C306 C312 1.428 . S
H307 C303 0.930 . S
H308 C305 0.929 . S
S309 N310 1.613 . S
S309 N311 1.610 . S
N310 S309 1.613 . S
N310 C313 1.350 . S
N311 S309 1.610 . S
N311 C312 1.351 . S
C312 C306 1.428 . S
C312 N311 1.351 . S
C312 C313 1.434 . S
C313 C304 1.429 . S
C313 N310 1.350 . S
C313 C312 1.434 . S
C314 C315 1.369 . S
C314 C316 1.419 . S
C314 H318 0.930 . S
C315 C314 1.369 . S
C315 C324 1.429 . S
C316 C314 1.419 . S
C316 C317 1.363 . S
C316 H319 0.929 . S
C317 C316 1.363 . S
C317 C323 1.428 . S
H318 C314 0.930 . S
H319 C316 0.929 . S
S320 N321 1.613 . S
S320 N322 1.610 . S
N321 S320 1.613 . S
N321 C324 1.350 . S
N322 S320 1.610 . S
N322 C323 1.351 . S
C323 C317 1.428 . S
C323 N322 1.351 . S
C323 C324 1.434 . S
C324 C315 1.429 . S
C324 N321 1.350 . S
C324 C323 1.434 . S
C325 C326 1.369 . S
C325 C327 1.419 . S
C325 H329 0.930 . S
C326 C325 1.369 . S
C326 C335 1.429 . S
C327 C325 1.419 . S
C327 C328 1.363 . S
C327 H330 0.929 . S
C328 C327 1.363 . S
C328 C334 1.428 . S
H329 C325 0.930 . S
H330 C327 0.929 . S
S331 N332 1.613 . S
S331 N333 1.610 . S
N332 S331 1.613 . S
N332 C335 1.350 . S
N333 S331 1.610 . S
N333 C334 1.351 . S
C334 C328 1.428 . S
C334 N333 1.351 . S
C334 C335 1.434 . S
C335 C326 1.429 . S
C335 N332 1.350 . S
C335 C334 1.434 . S
C336 C337 1.369 1_556 S
C336 C338 1.419 . S
C336 H340 0.930 . S
C337 C336 1.369 1_554 S
C337 C346 1.429 . S
C338 C336 1.419 . S
C338 C339 1.363 1_556 S
C338 H341 0.929 . S
C339 C338 1.363 1_554 S
C339 C345 1.428 . S
H340 C336 0.930 . S
H341 C338 0.929 . S
S342 N343 1.613 . S
S342 N344 1.610 . S
N343 S342 1.613 . S
N343 C346 1.350 . S
N344 S342 1.610 . S
N344 C345 1.351 . S
C345 C339 1.428 . S
C345 N344 1.351 . S
C345 C346 1.434 . S
C346 C337 1.429 . S
C346 N343 1.350 . S
C346 C345 1.434 . S
C347 C348 1.369 . S
C347 C349 1.419 . S
C347 H351 0.930 . S
C348 C347 1.369 . S
C348 C357 1.429 . S
C349 C347 1.419 . S
C349 C350 1.363 . S
C349 H352 0.929 . S
C350 C349 1.363 . S
C350 C356 1.428 . S
H351 C347 0.930 . S
H352 C349 0.929 . S
S353 N354 1.613 . S
S353 N355 1.610 . S
N354 S353 1.613 . S
N354 C357 1.350 . S
N355 S353 1.610 . S
N355 C356 1.351 . S
C356 C350 1.428 . S
C356 N355 1.351 . S
C356 C357 1.434 . S
C357 C348 1.429 . S
C357 N354 1.350 . S
C357 C356 1.434 . S
C358 C359 1.362 1_554 S
C358 C360 1.419 . S
C358 H362 0.930 . S
C359 C358 1.362 1_556 S
C359 C368 1.436 . S
C360 C358 1.419 . S
C360 C361 1.359 1_554 S
C360 H363 0.929 . S
C361 C360 1.359 1_556 S
C361 C367 1.433 . S
H362 C358 0.930 . S
H363 C360 0.929 . S
S364 N365 1.613 . S
S364 N366 1.610 . S
N365 S364 1.613 . S
N365 C368 1.350 . S
N366 S364 1.610 . S
N366 C367 1.351 . S
C367 C361 1.433 . S
C367 N366 1.351 . S
C367 C368 1.434 . S
C368 C359 1.436 . S
C368 N365 1.350 . S
C368 C367 1.434 . S
C369 C370 1.369 . S
C369 C371 1.419 . S
C369 H373 0.930 . S
C370 C369 1.369 . S
C370 C379 1.429 . S
C371 C369 1.419 . S
C371 C372 1.363 . S
C371 H374 0.929 . S
C372 C371 1.363 . S
C372 C378 1.428 . S
H373 C369 0.930 . S
H374 C371 0.929 . S
S375 N376 1.613 . S
S375 N377 1.610 . S
N376 S375 1.613 . S
N376 C379 1.350 . S
N377 S375 1.610 . S
N377 C378 1.351 . S
C378 C372 1.428 . S
C378 N377 1.351 . S
C378 C379 1.434 . S
C379 C370 1.429 . S
C379 N376 1.350 . S
C379 C378 1.434 . S
C380 C381 1.369 . S
C380 C382 1.419 . S
C380 H384 0.930 . S
C381 C380 1.369 . S
C381 C390 1.429 . S
C382 C380 1.419 . S
C382 C383 1.363 . S
C382 H385 0.929 . S
C383 C382 1.363 . S
C383 C389 1.428 . S
H384 C380 0.930 . S
H385 C382 0.929 . S
S386 N387 1.613 . S
S386 N388 1.610 . S
N387 S386 1.613 . S
N387 C390 1.350 . S
N388 S386 1.610 . S
N388 C389 1.351 . S
C389 C383 1.428 . S
C389 N388 1.351 . S
C389 C390 1.434 . S
C390 C381 1.429 . S
C390 N387 1.350 . S
C390 C389 1.434 . S
C391 C392 1.366 1_554 S
C391 C393 1.419 . S
C391 H395 0.930 . S
C392 C391 1.366 1_556 S
C392 C401 1.432 . S
C393 C391 1.419 . S
C393 C394 1.361 1_554 S
C393 H396 0.929 . S
C394 C393 1.361 1_556 S
C394 C400 1.430 . S
H395 C391 0.930 . S
H396 C393 0.929 . S
S397 N398 1.613 . S
S397 N399 1.610 . S
N398 S397 1.613 . S
N398 C401 1.350 . S
N399 S397 1.610 . S
N399 C400 1.351 . S
C400 C394 1.430 . S
C400 N399 1.351 . S
C400 C401 1.434 . S
C401 C392 1.432 . S
C401 N398 1.350 . S
C401 C400 1.434 . S
C402 C403 1.369 . S
C402 C404 1.419 . S
C402 H406 0.930 . S
C403 C402 1.369 . S
C403 C412 1.429 . S
C404 C402 1.419 . S
C404 C405 1.363 . S
C404 H407 0.929 . S
C405 C404 1.363 . S
C405 C411 1.428 . S
H406 C402 0.930 . S
H407 C404 0.929 . S
S408 N409 1.613 . S
S408 N410 1.610 . S
N409 S408 1.613 . S
N409 C412 1.350 . S
N410 S408 1.610 . S
N410 C411 1.351 . S
C411 C405 1.428 . S
C411 N410 1.351 . S
C411 C412 1.434 . S
C412 C403 1.429 . S
C412 N409 1.350 . S
C412 C411 1.434 . S
C413 C414 1.369 1_556 S
C413 C415 1.419 . S
C413 H417 0.930 . S
C414 C413 1.369 1_554 S
C414 C423 1.429 . S
C415 C413 1.419 . S
C415 C416 1.356 1_556 S
C415 H418 0.929 . S
C416 C415 1.356 1_554 S
C416 C422 1.436 . S
H417 C413 0.930 . S
H418 C415 0.929 . S
S419 N420 1.613 . S
S419 N421 1.610 . S
N420 S419 1.613 . S
N420 C423 1.350 . S
N421 S419 1.610 . S
N421 C422 1.351 . S
C422 C416 1.436 . S
C422 N421 1.351 . S
C422 C423 1.434 . S
C423 C414 1.429 . S
C423 N420 1.350 . S
C423 C422 1.434 . S
C161 C5 1.450 . S
C163 C119 1.466 . S
C172 C31 1.445 . S
C174 C93 1.469 . S
C185 C102 1.470 . S
C183 C53 1.449 . S
C194 C71 1.444 . S
C196 C110 1.463 . S
C207 C138 1.470 . S
C205 C75 1.447 . S
C218 C146 1.465 . S
C216 C9 1.448 . S
C229 C155 1.465 . S
C227 C27 1.448 . S
C240 C129 1.468 . S
C238 C49 1.448 . S
C249 C51 1.448 . S
C251 C101 1.468 . S
C260 C72 1.449 . S
C262 C111 1.465 . S
C271 C6 1.448 . S
C273 C120 1.465 . S
C284 C92 1.468 . S
C282 C29 1.447 . S
C293 C28 1.443 . S
C295 C156 1.464 . S
C306 C128 1.466 . S
C304 C50 1.443 . S
C317 C137 1.466 . S
C315 C73 1.442 . S
C326 C7 1.447 . S
C328 C147 1.464 . S
C339 C95 1.490 1_554 S
C337 C4 1.487 . S
C350 C104 1.491 . S
C348 C30 1.489 . S
C359 C52 1.487 1_556 S
C361 C113 1.488 1_556 S
C370 C70 1.488 . S
C372 C122 1.488 . S
C383 C131 1.491 . S
C381 C74 1.488 . S
C392 C8 1.489 1_556 S
C394 C140 1.491 1_556 S
C403 C26 1.487 . S
C405 C149 1.487 . S
C414 C48 1.488 . S
C416 C158 1.487 1_554 S
