# Generated by pormake.
# Topology tsx, (6,3)-cn, num edge types: 1
# Building blocks:
#     Node 0, Type 0, BuildingBlock: CIFDUS_clean_sbu_1, # of connection points: 6
#     Node 1, Type 0, BuildingBlock: CIFDUS_clean_sbu_1, # of connection points: 6
#     Node 2, Type 1, BuildingBlock: INOVEN_clean_linker_0, # of connection points: 3
#     Node 3, Type 1, BuildingBlock: INOVEN_clean_linker_0, # of connection points: 3
#     Node 4, Type 1, BuildingBlock: INOVEN_clean_linker_0, # of connection points: 3
#     Node 5, Type 1, BuildingBlock: INOVEN_clean_linker_0, # of connection points: 3
#     Edge 6, Type (0, 1), BuildingBlock: FUNLAD_clean_linker_1, # of connection points: 2
#     Edge 7, Type (0, 1), BuildingBlock: FUNLAD_clean_linker_1, # of connection points: 2
#     Edge 8, Type (0, 1), BuildingBlock: FUNLAD_clean_linker_1, # of connection points: 2
#     Edge 9, Type (0, 1), BuildingBlock: FUNLAD_clean_linker_1, # of connection points: 2
#     Edge 10, Type (0, 1), BuildingBlock: FUNLAD_clean_linker_1, # of connection points: 2
#     Edge 11, Type (0, 1), BuildingBlock: FUNLAD_clean_linker_1, # of connection points: 2
#     Edge 12, Type (0, 1), BuildingBlock: FUNLAD_clean_linker_1, # of connection points: 2
#     Edge 13, Type (0, 1), BuildingBlock: FUNLAD_clean_linker_1, # of connection points: 2
#     Edge 14, Type (0, 1), BuildingBlock: FUNLAD_clean_linker_1, # of connection points: 2
#     Edge 15, Type (0, 1), BuildingBlock: FUNLAD_clean_linker_1, # of connection points: 2
#     Edge 16, Type (0, 1), BuildingBlock: FUNLAD_clean_linker_1, # of connection points: 2
#     Edge 17, Type (0, 1), BuildingBlock: FUNLAD_clean_linker_1, # of connection points: 2
# Relax obj value: 0.088
# Max RMSD: 0.137
# Mean RMSD: 0.103
data_MOF--net-tsx--node1-CIFDUS_clean_sbu_1--node2-INOVEN_clean_linker_0--edge1-FUNLAD_clean_linker_1
_symmetry_space_group_name_H-M    P1
_symmetry_Int_Tables_number       1
_symmetry_cell_setting            triclinic
loop_
_symmetry_equiv_pos_as_xyz
'x, y, z'
_cell_length_a     18.990061
_cell_length_b     23.780335
_cell_length_c     35.374066
_cell_angle_alpha  95.735189
_cell_angle_beta   102.28135
_cell_angle_gamma 91.175025
loop_
_atom_site_label
_atom_site_type_symbol
_atom_site_fract_x
_atom_site_fract_y
_atom_site_fract_z
_atom_type_partial_charge
O0 O 0.04104 0.0884 0.0172 0.0
Mn1 Mn 0.08527 0.00913 0.00953 0.0
O2 O 0.92404 0.07899 0.98623 0.0
Mn3 Mn 0.92987 0.00922 0.95884 0.0
O4 O 0.12954 0.93017 0.00074 0.0
O5 O 0.18369 0.04636 0.02664 0.0
Mn6 Mn 0.24177 0.00837 0.05954 0.0
O7 O 0.08311 0.99659 0.06733 0.0
O8 O 0.24572 0.93751 0.03342 0.0
O9 O 0.08807 0.02203 0.95202 0.0
O10 O 0.97387 0.01146 0.91697 0.0
O11 O 0.29418 0.07187 0.0525 0.0
O12 O 0.19816 0.00903 0.10161 0.0
C13 C 0.9354 0.93392 0.98827 0.0
C14 C 0.97788 0.10811 0.00757 0.0
C15 C 0.19195 0.90965 0.01116 0.0
C16 C 0.23436 0.08448 0.03038 0.0
C17 C 0.13087 0.0005 0.09951 0.0
C18 C 0.04141 0.01992 0.91961 0.0
O19 O 0.98708 0.97129 0.99212 0.0
O20 O 0.87702 0.94532 0.96445 0.0
O21 O 0.49867 0.59829 0.50242 0.0
Mn22 Mn 0.5577 0.52422 0.5009 0.0
O23 O 0.39004 0.5759 0.4623 0.0
Mn24 Mn 0.41276 0.50666 0.44019 0.0
O25 O 0.6153 0.44979 0.4977 0.0
O26 O 0.64923 0.57095 0.52272 0.0
Mn27 Mn 0.70738 0.53576 0.5577 0.0
O28 O 0.54556 0.51266 0.55696 0.0
O29 O 0.72857 0.46861 0.53217 0.0
O30 O 0.57187 0.53623 0.4453 0.0
O31 O 0.46759 0.50989 0.403 0.0
O32 O 0.75431 0.6036 0.55475 0.0
O33 O 0.65614 0.52811 0.59614 0.0
C34 C 0.41724 0.43688 0.47468 0.0
C35 C 0.43373 0.61028 0.48665 0.0
C36 C 0.68083 0.43569 0.50927 0.0
C37 C 0.69665 0.61234 0.52937 0.0
C38 C 0.58838 0.51694 0.59067 0.0
C39 C 0.53371 0.52684 0.41055 0.0
O40 O 0.46663 0.47658 0.47922 0.0
O41 O 0.36371 0.44114 0.4457 0.0
H42 H 0.15055 0.01171 0.48493 0.0
H43 H 0.15926 0.91648 0.37577 0.0
H44 H 0.99581 0.03714 0.3808 0.0
N45 N 0.03896 0.07214 0.45715 0.0
N46 N 0.97905 0.0909 0.44353 0.0
C47 C 0.12918 0.00101 0.45403 0.0
C48 C 0.16101 0.95899 0.43305 0.0
C49 C 0.06899 0.02873 0.43557 0.0
C50 C 0.0413 0.01503 0.39549 0.0
C51 C 0.07437 0.97558 0.37358 0.0
C52 C 0.1338 0.94715 0.39258 0.0
H53 H 0.99488 0.01014 0.5141 0.0
H54 H 0.90941 0.97634 0.61315 0.0
H55 H 0.08307 0.10054 0.62649 0.0
N56 N 0.09021 0.09136 0.55059 0.0
N57 N 0.13811 0.1255 0.57023 0.0
C58 C 0.99479 0.01878 0.54475 0.0
C59 C 0.94525 0.98939 0.56071 0.0
C60 C 0.04399 0.05961 0.56816 0.0
C61 C 0.04536 0.06911 0.6083 0.0
C62 C 0.99727 0.03875 0.62477 0.0
C63 C 0.94614 0.00031 0.60053 0.0
H64 H 0.6345 0.47431 0.99193 0.0
H65 H 0.70496 0.42242 0.88671 0.0
H66 H 0.53695 0.5414 0.88573 0.0
N67 N 0.53651 0.54464 0.9619 0.0
N68 N 0.48937 0.57492 0.94527 0.0
C69 C 0.6303 0.47662 0.96115 0.0
C70 C 0.67606 0.44511 0.94186 0.0
C71 C 0.58016 0.51155 0.94111 0.0
C72 C 0.57469 0.51359 0.90102 0.0
C73 C 0.61887 0.4809 0.88103 0.0
C74 C 0.6707 0.44784 0.90189 0.0
H75 H 0.52906 0.47795 0.01592 0.0
H76 H 0.43743 0.46753 0.11595 0.0
H77 H 0.61066 0.58896 0.12065 0.0
N78 N 0.62339 0.56359 0.04635 0.0
N79 N 0.66718 0.60261 0.06329 0.0
C80 C 0.52724 0.49331 0.04546 0.0
C81 C 0.47621 0.46895 0.063 0.0
C82 C 0.57516 0.53738 0.06573 0.0
C83 C 0.57378 0.5552 0.1047 0.0
C84 C 0.52473 0.5296 0.12305 0.0
C85 C 0.47468 0.48787 0.10166 0.0
H86 H 0.17039 0.15548 0.007 0.0
C87 C 0.22453 0.14101 0.01658 0.0
H88 H 0.33619 0.16175 0.0312 0.0
H89 H 0.34976 0.39505 0.96823 0.0
H90 H 0.34912 0.33904 0.90668 0.0
H91 H 0.31627 0.23683 0.89755 0.0
H92 H 0.28266 0.19014 0.94982 0.0
C93 C 0.28231 0.17695 0.02189 0.0
C94 C 0.27816 0.23931 0.022 0.0
C95 C 0.29776 0.26589 0.99151 0.0
C96 C 0.31849 0.32448 0.99716 0.0
C97 C 0.33614 0.35024 0.96584 0.0
C98 C 0.33538 0.31868 0.93034 0.0
C99 C 0.31681 0.26112 0.92519 0.0
C100 C 0.29809 0.23478 0.95535 0.0
H101 H 0.45694 0.38525 0.02871 0.0
C102 C 0.43065 0.41908 0.04265 0.0
H103 H 0.33481 0.44713 0.05731 0.0
H104 H 0.22936 0.20365 0.08347 0.0
H105 H 0.22374 0.26007 0.14354 0.0
H106 H 0.26267 0.36102 0.15434 0.0
H107 H 0.30715 0.40605 0.10528 0.0
C108 C 0.36066 0.41247 0.044 0.0
C109 C 0.3218 0.35585 0.03386 0.0
C110 C 0.29384 0.33074 0.06271 0.0
C111 C 0.27181 0.27236 0.05666 0.0
C112 C 0.24689 0.24768 0.08649 0.0
C113 C 0.24329 0.27962 0.12116 0.0
C114 C 0.26514 0.33645 0.12722 0.0
C115 C 0.29054 0.36184 0.0986 0.0
H116 H 0.18896 0.84027 0.96439 0.0
C117 C 0.2046 0.85196 0.9956 0.0
H118 H 0.2582 0.83053 0.05014 0.0
H119 H 0.27485 0.60369 0.92201 0.0
H120 H 0.14402 0.59705 0.90886 0.0
H121 H 0.07596 0.66838 0.94006 0.0
H122 H 0.13827 0.74718 0.9842 0.0
C123 C 0.24444 0.81784 0.01898 0.0
C124 C 0.28402 0.77058 0.00342 0.0
C125 C 0.24682 0.72409 0.97846 0.0
C126 C 0.28622 0.68229 0.96117 0.0
C127 C 0.24766 0.63674 0.93585 0.0
C128 C 0.17258 0.63226 0.9282 0.0
C129 C 0.13424 0.67246 0.94571 0.0
C130 C 0.17064 0.71778 0.97072 0.0
H131 H 0.45544 0.60737 0.99795 0.0
C132 C 0.44778 0.60869 0.96668 0.0
H133 H 0.39508 0.64513 0.91729 0.0
H134 H 0.37302 0.85292 0.05187 0.0
H135 H 0.50299 0.85672 0.06771 0.0
H136 H 0.57118 0.78361 0.03881 0.0
H137 H 0.50958 0.70653 0.99329 0.0
C138 C 0.40302 0.64518 0.94864 0.0
C139 C 0.36274 0.68609 0.96979 0.0
C140 C 0.40009 0.73114 0.99637 0.0
C141 C 0.36066 0.77337 0.01319 0.0
C142 C 0.39946 0.81883 0.03872 0.0
C143 C 0.47447 0.82189 0.04797 0.0
C144 C 0.51285 0.78072 0.03163 0.0
C145 C 0.47651 0.73627 0.00577 0.0
H146 H 0.95024 0.88839 0.04054 0.0
C147 C 0.93833 0.88303 0.00894 0.0
H148 H 0.89766 0.83079 0.95733 0.0
H149 H 0.88097 0.66088 0.0965 0.0
H150 H 1.01105 0.67427 0.11711 0.0
H151 H 0.07821 0.74043 0.08682 0.0
H152 H 1.0157 0.79384 0.03582 0.0
C153 C 0.90846 0.83416 0.98895 0.0
C154 C 0.87009 0.79195 0.00675 0.0
C155 C 0.90751 0.76052 0.03614 0.0
C156 C 0.86872 0.72173 0.05324 0.0
C157 C 0.90755 0.69109 0.08266 0.0
C158 C 0.98227 0.69815 0.09463 0.0
C159 C 1.0201 0.73543 0.07759 0.0
C160 C 0.98349 0.76617 0.04856 0.0
H161 H 0.71076 0.61671 0.01274 0.0
C162 C 0.71255 0.63029 0.04324 0.0
H163 H 0.75375 0.68907 0.09161 0.0
H164 H 0.78052 0.8457 0.95095 0.0
H165 H 0.65189 0.83043 0.92913 0.0
H166 H 0.58508 0.76274 0.95808 0.0
H167 H 0.64654 0.71053 0.00949 0.0
C168 C 0.752 0.67671 0.06099 0.0
C169 C 0.79274 0.71351 0.04041 0.0
C170 C 0.75545 0.74413 0.01032 0.0
C171 C 0.79413 0.78326 0.99352 0.0
C172 C 0.75496 0.81439 0.9643 0.0
C173 C 0.6806 0.80644 0.95157 0.0
C174 C 0.643 0.76835 0.96791 0.0
C175 C 0.67944 0.73808 0.99723 0.0
H176 H 1.01714 0.19705 0.02653 0.0
C177 C 0.96912 0.16938 0.0165 0.0
H178 H 0.85619 0.16436 0.99533 0.0
H179 H 0.80436 0.42252 0.0371 0.0
H180 H 0.80787 0.39625 0.10218 0.0
H181 H 0.85109 0.30342 0.12039 0.0
H182 H 0.89242 0.23666 0.07377 0.0
C183 C 0.90435 0.19177 0.00567 0.0
C184 C 0.89587 0.25211 0.99894 0.0
C185 C 0.87132 0.29012 0.02616 0.0
C186 C 0.84429 0.34282 0.01523 0.0
C187 C 0.82252 0.38097 0.04347 0.0
C188 C 0.82492 0.36661 0.08096 0.0
C189 C 0.84937 0.31436 0.09124 0.0
C190 C 0.87252 0.27638 0.06426 0.0
H191 H 0.70156 0.37616 0.97909 0.0
C192 C 0.72473 0.40549 0.96291 0.0
H193 H 0.81752 0.43379 0.9458 0.0
H194 H 0.95257 0.19345 0.94253 0.0
H195 H 0.95579 0.22161 0.8791 0.0
H196 H 0.90417 0.31095 0.85873 0.0
H197 H 0.85069 0.37315 0.90211 0.0
C198 C 0.79482 0.40355 0.96148 0.0
C199 C 0.83916 0.35614 0.97649 0.0
C200 C 0.87111 0.32073 0.95065 0.0
C201 C 0.89981 0.26872 0.96203 0.0
C202 C 0.92976 0.23331 0.93541 0.0
C203 C 0.93182 0.2489 0.89878 0.0
C204 C 0.90299 0.29928 0.8874 0.0
C205 C 0.87251 0.33474 0.91277 0.0
H206 H 0.63193 0.6799 0.50115 0.0
C207 C 0.686 0.66751 0.51348 0.0
H208 H 0.79671 0.69098 0.531 0.0
H209 H 0.82472 0.91543 0.46188 0.0
H210 H 0.83023 0.85512 0.40286 0.0
H211 H 0.79383 0.75366 0.39557 0.0
H212 H 0.75035 0.71206 0.44709 0.0
C213 C 0.74285 0.7046 0.51934 0.0
C214 C 0.7378 0.76642 0.51643 0.0
C215 C 0.76318 0.79011 0.48648 0.0
C216 C 0.78607 0.84824 0.4912 0.0
C217 C 0.80938 0.87104 0.46029 0.0
C218 C 0.81216 0.83701 0.42622 0.0
C219 C 0.79159 0.77986 0.4221 0.0
C220 C 0.76727 0.75644 0.45183 0.0
H221 H 0.92475 0.90738 0.5245 0.0
C222 C 0.89842 0.94218 0.53737 0.0
H223 H 0.80261 0.97359 0.54956 0.0
H224 H 0.67547 0.73722 0.57499 0.0
H225 H 0.66316 0.79784 0.63224 0.0
H226 H 0.70679 0.8977 0.64208 0.0
H227 H 0.7624 0.9375 0.59494 0.0
C228 C 0.82737 0.93776 0.53689 0.0
C229 C 0.78591 0.88204 0.52661 0.0
C230 C 0.75159 0.86004 0.55439 0.0
C231 C 0.72708 0.80219 0.54905 0.0
C232 C 0.69541 0.78063 0.57773 0.0
C233 C 0.68784 0.81502 0.61072 0.0
C234 C 0.71233 0.87124 0.61622 0.0
C235 C 0.74419 0.89362 0.58868 0.0
H236 H 0.66357 0.35289 0.47291 0.0
C237 C 0.70239 0.37936 0.49484 0.0
H238 H 0.80784 0.38654 0.53011 0.0
H239 H 0.87296 0.12763 0.51734 0.0
H240 H 0.85247 0.14106 0.58281 0.0
H241 H 0.80495 0.23006 0.60731 0.0
H242 H 0.77731 0.30607 0.56626 0.0
C243 C 0.76941 0.36128 0.50726 0.0
C244 C 0.79428 0.30651 0.49145 0.0
C245 C 0.81129 0.26271 0.51594 0.0
C246 C 0.83999 0.21173 0.50204 0.0
C247 C 0.85353 0.16795 0.52671 0.0
C248 C 0.84137 0.1749 0.56432 0.0
C249 C 0.81457 0.22498 0.5781 0.0
C250 C 0.79923 0.26837 0.55428 0.0
H251 H 0.98327 0.15977 0.48947 0.0
C252 C 0.95028 0.13644 0.4635 0.0
H253 H 0.85293 0.12899 0.42203 0.0
H254 H 0.77244 0.38338 0.43755 0.0
H255 H 0.7941 0.37047 0.37238 0.0
H256 H 0.84323 0.28215 0.34813 0.0
H257 H 0.87136 0.20642 0.38903 0.0
C258 C 0.88358 0.15232 0.44864 0.0
C259 C 0.85321 0.20514 0.46387 0.0
C260 C 0.83577 0.24885 0.43927 0.0
C261 C 0.80672 0.29965 0.45312 0.0
C262 C 0.79272 0.34333 0.42837 0.0
C263 C 0.80538 0.33667 0.39087 0.0
C264 C 0.83307 0.28698 0.37723 0.0
C265 C 0.84861 0.24364 0.40104 0.0
H266 H 0.44091 0.40292 0.53214 0.0
C267 C 0.41474 0.39359 0.50164 0.0
H268 H 0.34441 0.33993 0.45852 0.0
H269 H 0.36114 0.17184 0.59725 0.0
H270 H 0.49071 0.17075 0.60242 0.0
H271 H 0.55142 0.23465 0.56738 0.0
H272 H 0.4831 0.30033 0.52712 0.0
C273 C 0.37002 0.34759 0.48926 0.0
C274 C 0.33782 0.31463 0.51557 0.0
C275 C 0.37858 0.27655 0.53891 0.0
C276 C 0.3433 0.2392 0.55883 0.0
C277 C 0.38515 0.20114 0.58161 0.0
C278 C 0.4595 0.20001 0.58476 0.0
C279 C 0.49371 0.23602 0.56503 0.0
C280 C 0.45392 0.27366 0.54212 0.0
H281 H 0.16997 0.15609 0.52022 0.0
C282 C 0.18065 0.15896 0.55184 0.0
H283 H 0.24068 0.19965 0.60479 0.0
H284 H 0.2449 0.38754 0.47736 0.0
H285 H 0.11672 0.39172 0.47476 0.0
H286 H 0.0562 0.32808 0.51001 0.0
H287 H 0.12348 0.25987 0.54787 0.0
C288 C 0.22951 0.19756 0.57324 0.0
C289 C 0.26732 0.23949 0.55487 0.0
C290 C 0.22739 0.28031 0.53366 0.0
C291 C 0.26254 0.31751 0.51379 0.0
C292 C 0.22106 0.35759 0.4926 0.0
C293 C 0.14738 0.3608 0.49107 0.0
C294 C 0.11332 0.32498 0.51089 0.0
C295 C 0.15262 0.2855 0.53221 0.0
H296 H 0.34739 0.66872 0.48892 0.0
C297 C 0.40586 0.6666 0.49462 0.0
H298 H 0.50353 0.71428 0.50195 0.0
H299 H 0.32089 0.88299 0.39409 0.0
H300 H 0.41181 0.85344 0.35811 0.0
H301 H 0.50203 0.78526 0.38281 0.0
H302 H 0.50237 0.74657 0.4437 0.0
C303 C 0.44557 0.7152 0.49942 0.0
C304 C 0.40721 0.76844 0.49116 0.0
C305 C 0.40941 0.79214 0.45619 0.0
C306 C 0.35683 0.83099 0.44171 0.0
C307 C 0.359 0.8528 0.40613 0.0
C308 C 0.41101 0.83635 0.38527 0.0
C309 C 0.46185 0.79801 0.39919 0.0
C310 C 0.46129 0.77598 0.43418 0.0
H311 H 0.25721 0.95104 0.48035 0.0
C312 C 0.22385 0.92937 0.45386 0.0
H313 H 0.2053 0.8531 0.41638 0.0
H314 H 0.40043 0.74224 0.56342 0.0
H315 H 0.31086 0.77264 0.60036 0.0
H316 H 0.21537 0.8358 0.57392 0.0
H317 H 0.20926 0.86965 0.511 0.0
C318 C 0.23868 0.87605 0.44227 0.0
C319 C 0.30231 0.8463 0.46222 0.0
C320 C 0.30441 0.82673 0.49907 0.0
C321 C 0.35787 0.78863 0.5138 0.0
C322 C 0.35957 0.77 0.55069 0.0
C323 C 0.30882 0.7873 0.57216 0.0
C324 C 0.25517 0.82299 0.55731 0.0
C325 C 0.2525 0.84238 0.52114 0.0
H326 H 0.15063 0.01042 0.16295 0.0
C327 C 0.10997 0.99612 0.13688 0.0
H328 H 1.00723 0.95454 0.11602 0.0
H329 H 0.08069 0.85101 0.28138 0.0
H330 H 0.07738 0.76657 0.23611 0.0
H331 H 0.05583 0.77276 0.16544 0.0
H332 H 0.03652 0.8634 0.13934 0.0
C333 C 0.0476 0.97265 0.14108 0.0
C334 C 0.03853 0.96641 0.18133 0.0
C335 C 0.04753 0.91312 0.19592 0.0
C336 C 0.06063 0.90966 0.23675 0.0
C337 C 0.07117 0.85601 0.25064 0.0
C338 C 0.06924 0.80727 0.22499 0.0
C339 C 0.057 0.81075 0.18515 0.0
C340 C 0.04632 0.86296 0.17059 0.0
H341 H 0.99129 0.97745 0.31926 0.0
C342 C 0.04691 0.96744 0.33068 0.0
H343 H 0.14646 0.94817 0.31571 0.0
H344 H 1.0063 0.07219 0.16179 0.0
H345 H 1.00849 0.15722 0.20648 0.0
H346 H 0.03873 0.15296 0.27748 0.0
H347 H 0.0657 0.06422 0.30421 0.0
C348 C 0.09009 0.95677 0.30546 0.0
C349 C 0.06434 0.95949 0.26284 0.0
C350 C 0.04978 0.01237 0.24795 0.0
C351 C 0.03519 0.01541 0.20708 0.0
C352 C 1.01965 0.06822 0.1927 0.0
C353 C 1.02042 0.11714 0.21797 0.0
C354 C 0.03722 0.1147 0.25793 0.0
C355 C 0.05213 0.06317 0.27291 0.0
H356 H 0.12318 0.03995 0.88586 0.0
C357 C 0.06646 0.02927 0.88374 0.0
H358 H 0.96287 0.0169 0.84697 0.0
H359 H 0.99455 0.14985 0.70957 0.0
H360 H 0.92284 0.21332 0.74244 0.0
H361 H 0.90465 0.19819 0.80769 0.0
H362 H 0.95902 0.11998 0.84084 0.0
C363 C 1.01996 0.02589 0.84894 0.0
C364 C 0.04076 0.03927 0.81243 0.0
C365 C 1.00926 0.08556 0.79366 0.0
C366 C 1.01882 0.09394 0.7558 0.0
C367 C 0.98744 0.14082 0.73794 0.0
C368 C 0.9466 0.17779 0.75658 0.0
C369 C 0.9365 0.16932 0.79338 0.0
C370 C 0.96763 0.12404 0.81194 0.0
H371 H 0.95034 0.03323 0.67642 0.0
C372 C 0.99927 0.04498 0.66719 0.0
H373 H 0.11086 0.06626 0.68672 0.0
H374 H 0.10947 0.94626 0.83992 0.0
H375 H 0.18333 0.88476 0.8075 0.0
H376 H 0.2023 0.901 0.74254 0.0
H377 H 0.14685 0.97873 0.7095 0.0
C378 C 0.05962 0.05865 0.69468 0.0
C379 C 0.05914 0.05566 0.73652 0.0
C380 C 0.09444 0.01151 0.75618 0.0
C381 C 0.08457 0.0028 0.79402 0.0
C382 C 0.11666 0.95606 0.81178 0.0
C383 C 0.15894 0.92009 0.79335 0.0
C384 C 0.16954 0.92918 0.75676 0.0
C385 C 0.13746 0.97405 0.73815 0.0
H386 H 0.5009 0.49863 0.6211 0.0
C387 C 0.55825 0.50869 0.62501 0.0
H388 H 0.65812 0.52491 0.66519 0.0
H389 H 0.53899 0.60012 0.81235 0.0
H390 H 0.54468 0.69224 0.7888 0.0
H391 H 0.56287 0.70077 0.72253 0.0
H392 H 0.5754 0.61715 0.67939 0.0
C393 C 0.60098 0.51371 0.66082 0.0
C394 C 0.57345 0.50754 0.69636 0.0
C395 C 0.56475 0.55663 0.72079 0.0
C396 C 0.55398 0.55168 0.75884 0.0
C397 C 0.54708 0.60149 0.78308 0.0
C398 C 0.55023 0.65461 0.76992 0.0
C399 C 0.56053 0.65942 0.73263 0.0
C400 C 0.56785 0.61115 0.70823 0.0
H401 H 0.6604 0.47034 0.82699 0.0
C402 C 0.61321 0.48132 0.83858 0.0
H403 H 0.50362 0.50336 0.82382 0.0
H404 H 0.58013 0.40487 0.65497 0.0
H405 H 0.56833 0.31252 0.67731 0.0
H406 H 0.54785 0.30389 0.74315 0.0
H407 H 0.53933 0.38767 0.78709 0.0
C408 C 0.55258 0.49344 0.81384 0.0
C409 C 0.55257 0.49764 0.7723 0.0
C410 C 0.5556 0.4483 0.74679 0.0
C411 C 0.5664 0.45326 0.70871 0.0
C412 C 0.57151 0.40344 0.68413 0.0
C413 C 0.56478 0.3502 0.69658 0.0
C414 C 0.55329 0.34535 0.73366 0.0
C415 C 0.54879 0.39369 0.75863 0.0
H416 H 0.62402 0.55078 0.38379 0.0
C417 C 0.56723 0.53762 0.37784 0.0
H418 H 0.47067 0.5218 0.33516 0.0
H419 H 0.53365 0.65623 0.20499 0.0
H420 H 0.46614 0.72583 0.23618 0.0
H421 H 0.44107 0.71419 0.30071 0.0
H422 H 0.48311 0.6329 0.33436 0.0
C423 C 0.52813 0.53266 0.34118 0.0
C424 C 0.55815 0.54617 0.30764 0.0
C425 C 0.53399 0.59418 0.2887 0.0
C426 C 0.54828 0.60087 0.2516 0.0
C427 C 0.52315 0.64891 0.23304 0.0
C428 C 0.48477 0.68921 0.2507 0.0
C429 C 0.47064 0.68266 0.28703 0.0
C430 C 0.49478 0.63574 0.30594 0.0
H431 H 0.47692 0.53476 0.17489 0.0
C432 C 0.5261 0.54344 0.16495 0.0
H433 H 0.63837 0.56303 0.18327 0.0
H434 H 0.61911 0.45239 0.3382 0.0
H435 H 0.69247 0.38639 0.30869 0.0
H436 H 0.71928 0.39921 0.24477 0.0
H437 H 0.67242 0.47804 0.20988 0.0
C438 C 0.58695 0.55862 0.19167 0.0
C439 C 0.58649 0.55942 0.23362 0.0
C440 C 0.61695 0.51453 0.25426 0.0
C441 C 0.60216 0.50751 0.29129 0.0
C442 C 0.62956 0.46037 0.31031 0.0
C443 C 0.67165 0.42202 0.29364 0.0
C444 C 0.68669 0.42921 0.25763 0.0
C445 C 0.65947 0.47465 0.23793 0.0
loop_
_geom_bond_atom_site_label_1
_geom_bond_atom_site_label_2
_geom_bond_distance
_geom_bond_site_symmetry_2
_ccdc_geom_bond_type
O0 Mn1 2.163 1_554 S
O0 C14 1.242 1_454 S
Mn1 O0 2.163 1_556 S
Mn1 O4 2.160 1_545 S
Mn1 O5 2.221 1_556 S
Mn1 O7 2.163 1_556 S
Mn1 O9 2.160 . S
Mn1 O19 2.221 1_445 S
O2 Mn3 2.087 1_545 S
O2 C14 1.256 . S
Mn3 O2 2.087 1_565 S
Mn3 O10 2.089 1_565 S
Mn3 O19 2.290 . S
Mn3 O20 2.251 . S
O4 Mn1 2.160 1_565 S
O4 C15 1.239 1_556 S
O5 Mn1 2.221 1_554 S
O5 Mn6 2.290 . S
O5 C16 1.278 . S
Mn6 O5 2.290 . S
Mn6 O8 2.089 1_545 S
Mn6 O11 2.251 . S
Mn6 O12 2.087 . S
O7 Mn1 2.163 1_554 S
O7 C17 1.244 . S
O8 Mn6 2.089 1_565 S
O8 C15 1.256 . S
O9 Mn1 2.160 . S
O9 C18 1.239 . S
O10 Mn3 2.089 1_545 S
O10 C18 1.256 1_655 S
O11 Mn6 2.251 . S
O11 C16 1.241 . S
O12 Mn6 2.087 . S
O12 C17 1.256 . S
C13 O19 1.278 . S
C13 O20 1.241 . S
C14 O0 1.242 1_656 S
C14 O2 1.256 . S
C15 O4 1.239 1_554 S
C15 O8 1.256 . S
C16 O5 1.278 . S
C16 O11 1.241 . S
C17 O7 1.244 . S
C17 O12 1.256 . S
C18 O9 1.239 . S
C18 O10 1.256 1_455 S
O19 Mn1 2.221 1_665 S
O19 Mn3 2.290 . S
O19 C13 1.278 . S
O20 Mn3 2.251 . S
O20 C13 1.241 . S
O21 Mn22 2.163 . S
O21 C35 1.244 . S
Mn22 O21 2.163 . S
Mn22 O25 2.160 . S
Mn22 O26 2.221 . S
Mn22 O28 2.163 . S
Mn22 O30 2.160 . S
Mn22 O40 2.221 . S
O23 Mn24 2.087 . S
O23 C35 1.256 . S
Mn24 O23 2.087 . S
Mn24 O31 2.089 . S
Mn24 O40 2.290 . S
Mn24 O41 2.251 . S
O25 Mn22 2.160 . S
O25 C36 1.239 . S
O26 Mn22 2.221 . S
O26 Mn27 2.290 . S
O26 C37 1.278 . S
Mn27 O26 2.290 . S
Mn27 O29 2.089 . S
Mn27 O32 2.251 . S
Mn27 O33 2.087 . S
O28 Mn22 2.163 . S
O28 C38 1.244 . S
O29 Mn27 2.089 . S
O29 C36 1.256 . S
O30 Mn22 2.160 . S
O30 C39 1.239 . S
O31 Mn24 2.089 . S
O31 C39 1.256 . S
O32 Mn27 2.251 . S
O32 C37 1.241 . S
O33 Mn27 2.087 . S
O33 C38 1.256 . S
C34 O40 1.278 . S
C34 O41 1.241 . S
C35 O21 1.244 . S
C35 O23 1.256 . S
C36 O25 1.239 . S
C36 O29 1.256 . S
C37 O26 1.278 . S
C37 O32 1.241 . S
C38 O28 1.244 . S
C38 O33 1.256 . S
C39 O30 1.239 . S
C39 O31 1.256 . S
O40 Mn22 2.221 . S
O40 Mn24 2.290 . S
O40 C34 1.278 . S
O41 Mn24 2.251 . S
O41 C34 1.241 . S
H42 C47 0.929 . S
H43 C52 0.931 . S
H44 C50 0.930 . S
N45 N46 1.234 1_455 S
N45 C49 1.453 . S
N46 N45 1.234 1_655 S
C47 H42 0.929 . S
C47 C48 1.373 . S
C47 C49 1.368 1_565 S
C48 C47 1.373 . S
C48 C52 1.397 . S
C49 N45 1.453 . S
C49 C47 1.368 1_545 S
C49 C50 1.373 . S
C50 H44 0.930 . S
C50 C49 1.373 . S
C50 C51 1.371 1_545 S
C51 C50 1.371 1_565 S
C51 C52 1.383 . S
C52 H43 0.931 . S
C52 C48 1.397 . S
C52 C51 1.383 . S
H53 C58 0.929 . S
H54 C63 0.931 1_565 S
H55 C61 0.930 . S
N56 N57 1.234 . S
N56 C60 1.453 . S
N57 N56 1.234 . S
C58 H53 0.929 . S
C58 C59 1.373 1_545 S
C58 C60 1.368 1_655 S
C59 C58 1.373 1_565 S
C59 C63 1.397 1_565 S
C60 N56 1.453 . S
C60 C58 1.368 1_455 S
C60 C61 1.373 . S
C61 H55 0.930 . S
C61 C60 1.373 . S
C61 C62 1.371 1_455 S
C62 C61 1.371 1_655 S
C62 C63 1.383 . S
C63 H54 0.931 1_545 S
C63 C59 1.397 1_545 S
C63 C62 1.383 . S
H64 C69 0.929 . S
H65 C74 0.931 . S
H66 C72 0.930 . S
N67 N68 1.234 . S
N67 C71 1.453 . S
N68 N67 1.234 . S
C69 H64 0.929 . S
C69 C70 1.373 . S
C69 C71 1.368 . S
C70 C69 1.373 . S
C70 C74 1.397 . S
C71 N67 1.453 . S
C71 C69 1.368 . S
C71 C72 1.373 . S
C72 H66 0.930 . S
C72 C71 1.373 . S
C72 C73 1.371 . S
C73 C72 1.371 . S
C73 C74 1.383 . S
C74 H65 0.931 . S
C74 C70 1.397 . S
C74 C73 1.383 . S
H75 C80 0.929 . S
H76 C85 0.931 . S
H77 C83 0.930 . S
N78 N79 1.234 . S
N78 C82 1.453 . S
N79 N78 1.234 . S
C80 H75 0.929 . S
C80 C81 1.373 . S
C80 C82 1.368 . S
C81 C80 1.373 . S
C81 C85 1.397 . S
C82 N78 1.453 . S
C82 C80 1.368 . S
C82 C83 1.373 . S
C83 H77 0.930 . S
C83 C82 1.373 . S
C83 C84 1.371 . S
C84 C83 1.371 . S
C84 C85 1.383 . S
C85 H76 0.931 . S
C85 C81 1.397 . S
C85 C84 1.383 . S
H86 C87 0.951 . S
C87 H86 0.951 . S
C87 C93 1.265 . S
H88 C93 0.950 . S
H89 C97 0.949 . S
H90 C98 0.950 . S
H91 C99 0.951 . S
H92 C100 0.951 . S
C93 C87 1.265 . S
C93 H88 0.950 . S
C93 C94 1.478 . S
C94 C93 1.478 . S
C94 C95 1.397 1_554 S
C94 C111 1.394 . S
C95 C94 1.397 1_556 S
C95 C96 1.438 1_556 S
C95 C100 1.429 . S
C96 C95 1.438 1_554 S
C96 C97 1.428 1_554 S
C96 C109 1.394 . S
C97 H89 0.949 . S
C97 C96 1.428 1_556 S
C97 C98 1.345 . S
C98 H90 0.950 . S
C98 C97 1.345 . S
C98 C99 1.424 . S
C99 H91 0.951 . S
C99 C98 1.424 . S
C99 C100 1.347 . S
C100 H92 0.951 . S
C100 C95 1.429 . S
C100 C99 1.347 . S
H101 C102 0.951 . S
C102 H101 0.951 . S
C102 C108 1.265 . S
H103 C108 0.950 . S
H104 C112 0.949 . S
H105 C113 0.950 . S
H106 C114 0.951 . S
H107 C115 0.951 . S
C108 C102 1.265 . S
C108 H103 0.950 . S
C108 C109 1.478 . S
C109 C96 1.394 . S
C109 C108 1.478 . S
C109 C110 1.397 . S
C110 C109 1.397 . S
C110 C111 1.438 . S
C110 C115 1.429 . S
C111 C94 1.394 . S
C111 C110 1.438 . S
C111 C112 1.428 . S
C112 H104 0.949 . S
C112 C111 1.428 . S
C112 C113 1.345 . S
C113 H105 0.950 . S
C113 C112 1.345 . S
C113 C114 1.424 . S
C114 H106 0.951 . S
C114 C113 1.424 . S
C114 C115 1.347 . S
C115 H107 0.951 . S
C115 C110 1.429 . S
C115 C114 1.347 . S
H116 C117 0.951 . S
C117 H116 0.951 . S
C117 C123 1.265 1_554 S
H118 C123 0.950 . S
H119 C127 0.949 . S
H120 C128 0.950 . S
H121 C129 0.951 . S
H122 C130 0.951 . S
C123 C117 1.265 1_556 S
C123 H118 0.950 . S
C123 C124 1.478 . S
C124 C123 1.478 . S
C124 C125 1.397 . S
C124 C141 1.394 1_556 S
C125 C124 1.397 . S
C125 C126 1.438 . S
C125 C130 1.429 . S
C126 C125 1.438 . S
C126 C127 1.428 . S
C126 C139 1.394 . S
C127 H119 0.949 . S
C127 C126 1.428 . S
C127 C128 1.345 . S
C128 H120 0.950 . S
C128 C127 1.345 . S
C128 C129 1.424 . S
C129 H121 0.951 . S
C129 C128 1.424 . S
C129 C130 1.347 . S
C130 H122 0.951 . S
C130 C125 1.429 . S
C130 C129 1.347 . S
H131 C132 0.951 . S
C132 H131 0.951 . S
C132 C138 1.265 . S
H133 C138 0.950 . S
H134 C142 0.949 . S
H135 C143 0.950 . S
H136 C144 0.951 . S
H137 C145 0.951 . S
C138 C132 1.265 . S
C138 H133 0.950 . S
C138 C139 1.478 . S
C139 C126 1.394 . S
C139 C138 1.478 . S
C139 C140 1.397 1_556 S
C140 C139 1.397 1_554 S
C140 C141 1.438 . S
C140 C145 1.429 . S
C141 C124 1.394 1_554 S
C141 C140 1.438 . S
C141 C142 1.428 . S
C142 H134 0.949 . S
C142 C141 1.428 . S
C142 C143 1.345 . S
C143 H135 0.950 . S
C143 C142 1.345 . S
C143 C144 1.424 . S
C144 H136 0.951 . S
C144 C143 1.424 . S
C144 C145 1.347 . S
C145 H137 0.951 . S
C145 C140 1.429 . S
C145 C144 1.347 . S
H146 C147 0.951 1_556 S
C147 H146 0.951 1_554 S
C147 C153 1.265 . S
H148 C153 0.950 . S
H149 C157 0.949 . S
H150 C158 0.950 . S
H151 C159 0.951 . S
H152 C160 0.951 . S
C153 C147 1.265 . S
C153 H148 0.950 . S
C153 C154 1.478 . S
C154 C153 1.478 . S
C154 C155 1.397 . S
C154 C171 1.394 1_554 S
C155 C154 1.397 . S
C155 C156 1.438 . S
C155 C160 1.429 . S
C156 C155 1.438 . S
C156 C157 1.428 . S
C156 C169 1.394 . S
C157 H149 0.949 . S
C157 C156 1.428 . S
C157 C158 1.345 . S
C158 H150 0.950 . S
C158 C157 1.345 . S
C158 C159 1.424 . S
C159 H151 0.951 . S
C159 C158 1.424 . S
C159 C160 1.347 . S
C160 H152 0.951 . S
C160 C155 1.429 . S
C160 C159 1.347 . S
H161 C162 0.951 . S
C162 H161 0.951 . S
C162 C168 1.265 . S
H163 C168 0.948 . S
H164 C172 0.949 . S
H165 C173 0.950 . S
H166 C174 0.951 . S
H167 C175 0.951 . S
C168 C162 1.265 . S
C168 H163 0.948 . S
C168 C169 1.478 . S
C169 C156 1.394 . S
C169 C168 1.478 . S
C169 C170 1.397 1_554 S
C170 C169 1.397 1_556 S
C170 C171 1.438 . S
C170 C175 1.429 . S
C171 C154 1.394 1_556 S
C171 C170 1.438 . S
C171 C172 1.428 . S
C172 H164 0.949 . S
C172 C171 1.428 . S
C172 C173 1.345 . S
C173 H165 0.950 . S
C173 C172 1.345 . S
C173 C174 1.424 . S
C174 H166 0.951 . S
C174 C173 1.424 . S
C174 C175 1.347 . S
C175 H167 0.951 . S
C175 C170 1.429 . S
C175 C174 1.347 . S
H176 C177 0.951 . S
C177 H176 0.951 . S
C177 C183 1.265 . S
H178 C183 0.950 . S
H179 C187 0.949 . S
H180 C188 0.950 . S
H181 C189 0.951 . S
H182 C190 0.951 . S
C183 C177 1.265 . S
C183 H178 0.950 . S
C183 C184 1.478 . S
C184 C183 1.478 . S
C184 C185 1.397 1_556 S
C184 C201 1.394 . S
C185 C184 1.397 1_554 S
C185 C186 1.441 . S
C185 C190 1.429 . S
C186 C185 1.441 . S
C186 C187 1.442 . S
C186 C199 1.377 1_554 S
C187 H179 0.949 . S
C187 C186 1.442 . S
C187 C188 1.345 . S
C188 H180 0.950 . S
C188 C187 1.345 . S
C188 C189 1.424 . S
C189 H181 0.951 . S
C189 C188 1.424 . S
C189 C190 1.347 . S
C190 H182 0.951 . S
C190 C185 1.429 . S
C190 C189 1.347 . S
H191 C192 0.951 . S
C192 H191 0.951 . S
C192 C198 1.265 . S
H193 C198 0.950 . S
H194 C202 0.949 . S
H195 C203 0.950 . S
H196 C204 0.951 . S
H197 C205 0.951 . S
C198 C192 1.265 . S
C198 H193 0.950 . S
C198 C199 1.478 . S
C199 C186 1.377 1_556 S
C199 C198 1.478 . S
C199 C200 1.397 . S
C200 C199 1.397 . S
C200 C201 1.438 . S
C200 C205 1.429 . S
C201 C184 1.394 . S
C201 C200 1.438 . S
C201 C202 1.428 . S
C202 H194 0.949 . S
C202 C201 1.428 . S
C202 C203 1.345 . S
C203 H195 0.950 . S
C203 C202 1.345 . S
C203 C204 1.424 . S
C204 H196 0.951 . S
C204 C203 1.424 . S
C204 C205 1.347 . S
C205 H197 0.951 . S
C205 C200 1.429 . S
C205 C204 1.347 . S
H206 C207 0.951 . S
C207 H206 0.951 . S
C207 C213 1.265 . S
H208 C213 0.950 . S
H209 C217 0.949 . S
H210 C218 0.950 . S
H211 C219 0.951 . S
H212 C220 0.951 . S
C213 C207 1.265 . S
C213 H208 0.950 . S
C213 C214 1.478 . S
C214 C213 1.478 . S
C214 C215 1.397 . S
C214 C231 1.394 . S
C215 C214 1.397 . S
C215 C216 1.438 . S
C215 C220 1.429 . S
C216 C215 1.438 . S
C216 C217 1.428 . S
C216 C229 1.394 . S
C217 H209 0.949 . S
C217 C216 1.428 . S
C217 C218 1.345 . S
C218 H210 0.950 . S
C218 C217 1.345 . S
C218 C219 1.424 . S
C219 H211 0.951 . S
C219 C218 1.424 . S
C219 C220 1.347 . S
C220 H212 0.951 . S
C220 C215 1.429 . S
C220 C219 1.347 . S
H221 C222 0.951 . S
C222 H221 0.951 . S
C222 C228 1.265 . S
H223 C228 0.950 . S
H224 C232 0.949 . S
H225 C233 0.950 . S
H226 C234 0.951 . S
H227 C235 0.951 . S
C228 C222 1.265 . S
C228 H223 0.950 . S
C228 C229 1.478 . S
C229 C216 1.394 . S
C229 C228 1.478 . S
C229 C230 1.397 . S
C230 C229 1.397 . S
C230 C231 1.438 . S
C230 C235 1.429 . S
C231 C214 1.394 . S
C231 C230 1.438 . S
C231 C232 1.428 . S
C232 H224 0.949 . S
C232 C231 1.428 . S
C232 C233 1.345 . S
C233 H225 0.950 . S
C233 C232 1.345 . S
C233 C234 1.424 . S
C234 H226 0.951 . S
C234 C233 1.424 . S
C234 C235 1.347 . S
C235 H227 0.951 . S
C235 C230 1.429 . S
C235 C234 1.347 . S
H236 C237 0.951 . S
C237 H236 0.951 . S
C237 C243 1.265 . S
H238 C243 0.950 . S
H239 C247 0.949 . S
H240 C248 0.950 1_455 S
H241 C249 0.951 . S
H242 C250 0.951 . S
C243 C237 1.265 . S
C243 H238 0.950 . S
C243 C244 1.478 . S
C244 C243 1.478 . S
C244 C245 1.397 . S
C244 C261 1.394 . S
C245 C244 1.397 . S
C245 C246 1.438 . S
C245 C250 1.429 . S
C246 C245 1.438 . S
C246 C247 1.428 . S
C246 C259 1.394 . S
C247 H239 0.949 . S
C247 C246 1.428 . S
C247 C248 1.345 . S
C248 H240 0.950 1_655 S
C248 C247 1.345 . S
C248 C249 1.424 . S
C249 H241 0.951 . S
C249 C248 1.424 . S
C249 C250 1.347 . S
C250 H242 0.951 . S
C250 C245 1.429 . S
C250 C249 1.347 . S
H251 C252 0.951 . S
C252 H251 0.951 . S
C252 C258 1.265 . S
H253 C258 0.950 . S
H254 C262 0.949 . S
H255 C263 0.950 . S
H256 C264 0.951 . S
H257 C265 0.951 . S
C258 C252 1.265 . S
C258 H253 0.950 . S
C258 C259 1.478 . S
C259 C246 1.394 . S
C259 C258 1.478 . S
C259 C260 1.397 . S
C260 C259 1.397 . S
C260 C261 1.438 . S
C260 C265 1.429 . S
C261 C244 1.394 . S
C261 C260 1.438 . S
C261 C262 1.428 . S
C262 H254 0.949 . S
C262 C261 1.428 . S
C262 C263 1.345 . S
C263 H255 0.950 . S
C263 C262 1.345 . S
C263 C264 1.424 . S
C264 H256 0.951 . S
C264 C263 1.424 . S
C264 C265 1.347 . S
C265 H257 0.951 . S
C265 C260 1.429 . S
C265 C264 1.347 . S
H266 C267 0.951 . S
C267 H266 0.951 . S
C267 C273 1.265 . S
H268 C273 0.950 . S
H269 C277 0.949 . S
H270 C278 0.950 . S
H271 C279 0.951 . S
H272 C280 0.951 . S
C273 C267 1.265 . S
C273 H268 0.950 . S
C273 C274 1.478 . S
C274 C273 1.478 . S
C274 C275 1.397 . S
C274 C291 1.394 . S
C275 C274 1.397 . S
C275 C276 1.438 . S
C275 C280 1.429 . S
C276 C275 1.438 . S
C276 C277 1.428 . S
C276 C289 1.394 . S
C277 H269 0.949 . S
C277 C276 1.428 . S
C277 C278 1.345 . S
C278 H270 0.950 . S
C278 C277 1.345 . S
C278 C279 1.424 . S
C279 H271 0.951 . S
C279 C278 1.424 . S
C279 C280 1.347 . S
C280 H272 0.951 . S
C280 C275 1.429 . S
C280 C279 1.347 . S
H281 C282 0.951 . S
C282 H281 0.951 . S
C282 C288 1.265 . S
H283 C288 0.950 . S
H284 C292 0.949 . S
H285 C293 0.950 . S
H286 C294 0.951 . S
H287 C295 0.951 . S
C288 C282 1.265 . S
C288 H283 0.950 . S
C288 C289 1.478 . S
C289 C276 1.394 . S
C289 C288 1.478 . S
C289 C290 1.397 . S
C290 C289 1.397 . S
C290 C291 1.438 . S
C290 C295 1.429 . S
C291 C274 1.394 . S
C291 C290 1.438 . S
C291 C292 1.428 . S
C292 H284 0.949 . S
C292 C291 1.428 . S
C292 C293 1.345 . S
C293 H285 0.950 . S
C293 C292 1.345 . S
C293 C294 1.424 . S
C294 H286 0.951 . S
C294 C293 1.424 . S
C294 C295 1.347 . S
C295 H287 0.951 . S
C295 C290 1.429 . S
C295 C294 1.347 . S
H296 C297 0.951 . S
C297 H296 0.951 . S
C297 C303 1.265 . S
H298 C303 0.950 . S
H299 C307 0.949 . S
H300 C308 0.950 . S
H301 C309 0.951 . S
H302 C310 0.951 . S
C303 C297 1.265 . S
C303 H298 0.950 . S
C303 C304 1.478 . S
C304 C303 1.478 . S
C304 C305 1.397 . S
C304 C321 1.394 . S
C305 C304 1.397 . S
C305 C306 1.438 . S
C305 C310 1.429 . S
C306 C305 1.438 . S
C306 C307 1.428 . S
C306 C319 1.394 . S
C307 H299 0.949 . S
C307 C306 1.428 . S
C307 C308 1.345 . S
C308 H300 0.950 . S
C308 C307 1.345 . S
C308 C309 1.424 . S
C309 H301 0.951 . S
C309 C308 1.424 . S
C309 C310 1.347 . S
C310 H302 0.951 . S
C310 C305 1.429 . S
C310 C309 1.347 . S
H311 C312 0.951 . S
C312 H311 0.951 . S
C312 C318 1.265 . S
H313 C318 0.950 . S
H314 C322 0.949 . S
H315 C323 0.950 . S
H316 C324 0.951 . S
H317 C325 0.951 . S
C318 C312 1.265 . S
C318 H313 0.950 . S
C318 C319 1.478 . S
C319 C306 1.394 . S
C319 C318 1.478 . S
C319 C320 1.397 . S
C320 C319 1.397 . S
C320 C321 1.438 . S
C320 C325 1.429 . S
C321 C304 1.394 . S
C321 C320 1.438 . S
C321 C322 1.428 . S
C322 H314 0.949 . S
C322 C321 1.428 . S
C322 C323 1.345 . S
C323 H315 0.950 . S
C323 C322 1.345 . S
C323 C324 1.424 . S
C324 H316 0.951 . S
C324 C323 1.424 . S
C324 C325 1.347 . S
C325 H317 0.951 . S
C325 C320 1.429 . S
C325 C324 1.347 . S
H326 C327 0.951 . S
C327 H326 0.951 . S
C327 C333 1.265 1_545 S
H328 C333 0.950 1_655 S
H329 C337 0.949 . S
H330 C338 0.950 . S
H331 C339 0.951 1_655 S
H332 C340 0.951 . S
C333 C327 1.265 1_565 S
C333 H328 0.950 1_455 S
C333 C334 1.478 . S
C334 C333 1.478 . S
C334 C335 1.397 . S
C334 C351 1.394 1_565 S
C335 C334 1.397 . S
C335 C336 1.438 . S
C335 C340 1.429 . S
C336 C335 1.438 . S
C336 C337 1.428 . S
C336 C349 1.394 . S
C337 H329 0.949 . S
C337 C336 1.428 . S
C337 C338 1.345 . S
C338 H330 0.950 . S
C338 C337 1.345 . S
C338 C339 1.424 . S
C339 H331 0.951 1_455 S
C339 C338 1.424 . S
C339 C340 1.347 . S
C340 H332 0.951 . S
C340 C335 1.429 . S
C340 C339 1.347 . S
H341 C342 0.951 . S
C342 H341 0.951 . S
C342 C348 1.267 . S
H343 C348 0.949 1_545 S
H344 C352 0.949 . S
H345 C353 0.950 . S
H346 C354 0.951 . S
H347 C355 0.951 . S
C348 C342 1.267 . S
C348 H343 0.949 1_565 S
C348 C349 1.477 . S
C349 C336 1.394 . S
C349 C348 1.477 . S
C349 C350 1.397 1_565 S
C350 C349 1.397 1_545 S
C350 C351 1.438 . S
C350 C355 1.429 . S
C351 C334 1.394 1_545 S
C351 C350 1.438 . S
C351 C352 1.428 . S
C352 H344 0.949 . S
C352 C351 1.428 . S
C352 C353 1.345 . S
C353 H345 0.950 . S
C353 C352 1.345 . S
C353 C354 1.424 . S
C354 H346 0.951 . S
C354 C353 1.424 . S
C354 C355 1.347 . S
C355 H347 0.951 . S
C355 C350 1.429 . S
C355 C354 1.347 . S
H356 C357 0.951 . S
C357 H356 0.951 . S
C357 C363 1.265 1_455 S
H358 C363 0.950 . S
H359 C367 0.949 . S
H360 C368 0.950 . S
H361 C369 0.951 . S
H362 C370 0.951 . S
C363 C357 1.265 1_655 S
C363 H358 0.950 . S
C363 C364 1.478 1_655 S
C364 C363 1.478 1_455 S
C364 C365 1.397 1_455 S
C364 C381 1.394 1_545 S
C365 C364 1.397 1_655 S
C365 C366 1.438 . S
C365 C370 1.429 . S
C366 C365 1.438 . S
C366 C367 1.428 . S
C366 C379 1.394 1_655 S
C367 H359 0.949 . S
C367 C366 1.428 . S
C367 C368 1.345 . S
C368 H360 0.950 . S
C368 C367 1.345 . S
C368 C369 1.424 . S
C369 H361 0.951 . S
C369 C368 1.424 . S
C369 C370 1.347 . S
C370 H362 0.951 . S
C370 C365 1.429 . S
C370 C369 1.347 . S
H371 C372 0.951 . S
C372 H371 0.951 . S
C372 C378 1.265 1_655 S
H373 C378 0.950 . S
H374 C382 0.949 . S
H375 C383 0.950 . S
H376 C384 0.951 . S
H377 C385 0.951 . S
C378 C372 1.265 1_455 S
C378 H373 0.950 . S
C378 C379 1.478 . S
C379 C366 1.394 1_455 S
C379 C378 1.478 . S
C379 C380 1.397 . S
C380 C379 1.397 . S
C380 C381 1.438 1_545 S
C380 C385 1.429 1_545 S
C381 C364 1.394 1_565 S
C381 C380 1.438 1_565 S
C381 C382 1.428 . S
C382 H374 0.949 . S
C382 C381 1.428 . S
C382 C383 1.345 . S
C383 H375 0.950 . S
C383 C382 1.345 . S
C383 C384 1.424 . S
C384 H376 0.951 . S
C384 C383 1.424 . S
C384 C385 1.347 . S
C385 H377 0.951 . S
C385 C380 1.429 1_565 S
C385 C384 1.347 . S
H386 C387 0.951 . S
C387 H386 0.951 . S
C387 C393 1.265 . S
H388 C393 0.950 . S
H389 C397 0.949 . S
H390 C398 0.950 . S
H391 C399 0.951 . S
H392 C400 0.951 . S
C393 C387 1.265 . S
C393 H388 0.950 . S
C393 C394 1.478 . S
C394 C393 1.478 . S
C394 C395 1.397 . S
C394 C411 1.394 . S
C395 C394 1.397 . S
C395 C396 1.438 . S
C395 C400 1.429 . S
C396 C395 1.438 . S
C396 C397 1.428 . S
C396 C409 1.394 . S
C397 H389 0.949 . S
C397 C396 1.428 . S
C397 C398 1.345 . S
C398 H390 0.950 . S
C398 C397 1.345 . S
C398 C399 1.424 . S
C399 H391 0.951 . S
C399 C398 1.424 . S
C399 C400 1.347 . S
C400 H392 0.951 . S
C400 C395 1.429 . S
C400 C399 1.347 . S
H401 C402 0.951 . S
C402 H401 0.951 . S
C402 C408 1.265 . S
H403 C408 0.950 . S
H404 C412 0.949 . S
H405 C413 0.950 . S
H406 C414 0.951 . S
H407 C415 0.951 . S
C408 C402 1.265 . S
C408 H403 0.950 . S
C408 C409 1.478 . S
C409 C396 1.394 . S
C409 C408 1.478 . S
C409 C410 1.397 . S
C410 C409 1.397 . S
C410 C411 1.438 . S
C410 C415 1.429 . S
C411 C394 1.394 . S
C411 C410 1.438 . S
C411 C412 1.428 . S
C412 H404 0.949 . S
C412 C411 1.428 . S
C412 C413 1.345 . S
C413 H405 0.950 . S
C413 C412 1.345 . S
C413 C414 1.424 . S
C414 H406 0.951 . S
C414 C413 1.424 . S
C414 C415 1.347 . S
C415 H407 0.951 . S
C415 C410 1.429 . S
C415 C414 1.347 . S
H416 C417 0.951 . S
C417 H416 0.951 . S
C417 C423 1.265 . S
H418 C423 0.950 . S
H419 C427 0.949 . S
H420 C428 0.950 . S
H421 C429 0.951 . S
H422 C430 0.951 . S
C423 C417 1.265 . S
C423 H418 0.950 . S
C423 C424 1.478 . S
C424 C423 1.478 . S
C424 C425 1.397 . S
C424 C441 1.394 . S
C425 C424 1.397 . S
C425 C426 1.438 . S
C425 C430 1.429 . S
C426 C425 1.438 . S
C426 C427 1.428 . S
C426 C439 1.394 . S
C427 H419 0.949 . S
C427 C426 1.428 . S
C427 C428 1.345 . S
C428 H420 0.950 . S
C428 C427 1.345 . S
C428 C429 1.424 . S
C429 H421 0.951 . S
C429 C428 1.424 . S
C429 C430 1.347 . S
C430 H422 0.951 . S
C430 C425 1.429 . S
C430 C429 1.347 . S
H431 C432 0.951 . S
C432 H431 0.951 . S
C432 C438 1.265 . S
H433 C438 0.950 . S
H434 C442 0.949 . S
H435 C443 0.950 . S
H436 C444 0.951 . S
H437 C445 0.951 . S
C438 C432 1.265 . S
C438 H433 0.950 . S
C438 C439 1.478 . S
C439 C426 1.394 . S
C439 C438 1.478 . S
C439 C440 1.397 . S
C440 C439 1.397 . S
C440 C441 1.438 . S
C440 C445 1.429 . S
C441 C424 1.394 . S
C441 C440 1.438 . S
C441 C442 1.428 . S
C442 H434 0.949 . S
C442 C441 1.428 . S
C442 C443 1.345 . S
C443 H435 0.950 . S
C443 C442 1.345 . S
C443 C444 1.424 . S
C444 H436 0.951 . S
C444 C443 1.424 . S
C444 C445 1.347 . S
C445 H437 0.951 . S
C445 C440 1.429 . S
C445 C444 1.347 . S
C102 C81 1.416 . S
C87 C16 1.361 . S
C117 C15 1.377 . S
C132 N68 1.393 . S
C147 C13 1.171 1_554 S
C162 N79 1.378 . S
C177 C14 1.449 . S
C192 C70 1.440 . S
C207 C37 1.349 . S
C222 C59 1.423 . S
C237 C36 1.445 . S
C252 N46 1.364 . S
C282 N57 1.390 . S
C267 C34 1.177 . S
C312 C48 1.446 . S
C297 C35 1.364 . S
C327 C17 1.533 . S
C342 C51 1.604 . S
C357 C18 1.425 . S
C372 C62 1.401 . S
C402 C73 1.597 . S
C387 C38 1.593 . S
C417 C39 1.422 . S
C432 C84 1.409 . S
