# Generated by pormake.
# Topology anh, (6,3)-cn, num edge types: 1
# Building blocks:
#     Node 0, Type 0, BuildingBlock: NUHQIS_clean_sbu_0, # of connection points: 6
#     Node 1, Type 0, BuildingBlock: NUHQIS_clean_sbu_0, # of connection points: 6
#     Node 2, Type 0, BuildingBlock: NUHQIS_clean_sbu_0, # of connection points: 6
#     Node 3, Type 1, BuildingBlock: CUQRIR_clean_linker_1, # of connection points: 3
#     Node 4, Type 1, BuildingBlock: CUQRIR_clean_linker_1, # of connection points: 3
#     Node 5, Type 1, BuildingBlock: CUQRIR_clean_linker_1, # of connection points: 3
#     Node 6, Type 1, BuildingBlock: CUQRIR_clean_linker_1, # of connection points: 3
#     Node 7, Type 1, BuildingBlock: CUQRIR_clean_linker_1, # of connection points: 3
#     Node 8, Type 1, BuildingBlock: CUQRIR_clean_linker_1, # of connection points: 3
#     Edge 9, Type (0, 1), BuildingBlock: MIFKUJ_clean_linker_0, # of connection points: 2
#     Edge 10, Type (0, 1), BuildingBlock: MIFKUJ_clean_linker_0, # of connection points: 2
#     Edge 11, Type (0, 1), BuildingBlock: MIFKUJ_clean_linker_0, # of connection points: 2
#     Edge 12, Type (0, 1), BuildingBlock: MIFKUJ_clean_linker_0, # of connection points: 2
#     Edge 13, Type (0, 1), BuildingBlock: MIFKUJ_clean_linker_0, # of connection points: 2
#     Edge 14, Type (0, 1), BuildingBlock: MIFKUJ_clean_linker_0, # of connection points: 2
#     Edge 15, Type (0, 1), BuildingBlock: MIFKUJ_clean_linker_0, # of connection points: 2
#     Edge 16, Type (0, 1), BuildingBlock: MIFKUJ_clean_linker_0, # of connection points: 2
#     Edge 17, Type (0, 1), BuildingBlock: MIFKUJ_clean_linker_0, # of connection points: 2
#     Edge 18, Type (0, 1), BuildingBlock: MIFKUJ_clean_linker_0, # of connection points: 2
#     Edge 19, Type (0, 1), BuildingBlock: MIFKUJ_clean_linker_0, # of connection points: 2
#     Edge 20, Type (0, 1), BuildingBlock: MIFKUJ_clean_linker_0, # of connection points: 2
#     Edge 21, Type (0, 1), BuildingBlock: MIFKUJ_clean_linker_0, # of connection points: 2
#     Edge 22, Type (0, 1), BuildingBlock: MIFKUJ_clean_linker_0, # of connection points: 2
#     Edge 23, Type (0, 1), BuildingBlock: MIFKUJ_clean_linker_0, # of connection points: 2
#     Edge 24, Type (0, 1), BuildingBlock: MIFKUJ_clean_linker_0, # of connection points: 2
#     Edge 25, Type (0, 1), BuildingBlock: MIFKUJ_clean_linker_0, # of connection points: 2
#     Edge 26, Type (0, 1), BuildingBlock: MIFKUJ_clean_linker_0, # of connection points: 2
# Relax obj value: 0.226
# Max RMSD: 0.218
# Mean RMSD: 0.156
data_MOF--net-anh--node1-NUHQIS_clean_sbu_0--node2-CUQRIR_clean_linker_1--edge1-MIFKUJ_clean_linker_0
_symmetry_space_group_name_H-M    P1
_symmetry_Int_Tables_number       1
_symmetry_cell_setting            triclinic
loop_
_symmetry_equiv_pos_as_xyz
'x, y, z'
_cell_length_a     37.391671
_cell_length_b     37.438913
_cell_length_c     62.196397
_cell_angle_alpha  87.97897
_cell_angle_beta   91.895544
_cell_angle_gamma 120.19687
loop_
_atom_site_label
_atom_site_type_symbol
_atom_site_fract_x
_atom_site_fract_y
_atom_site_fract_z
_atom_type_partial_charge
Tb0 Tb 0.1528 0.52855 0.17113 0.0
Eu1 Eu 0.09993 0.57264 0.15839 0.0
C2 C 0.11758 0.55945 0.20619 0.0
C3 C 1.05219 0.47188 0.16762 0.0
C4 C 0.23553 0.52322 0.1989 0.0
C5 C 0.30479 0.53857 0.20946 0.0
C6 C 0.26664 0.51279 0.19931 0.0
C7 C 0.24227 0.55851 0.20968 0.0
C8 C 0.28024 0.58429 0.21967 0.0
C9 C 0.31231 0.57527 0.2191 0.0
C10 C 0.19824 0.50099 0.18523 0.0
O11 O 0.14256 0.5199 0.13609 0.0
O12 O 0.13454 0.57567 0.12907 0.0
O13 O 0.16447 0.6276 0.16679 0.0
O14 O 0.20197 0.59427 0.16731 0.0
C15 C 0.14135 0.54696 0.12238 0.0
O16 O 1.06508 0.58532 0.13383 0.0
O17 O 1.07399 0.61174 0.16549 0.0
O18 O 1.08729 0.55317 0.19298 0.0
O19 O 0.15108 0.56183 0.19883 0.0
O20 O 1.08798 0.47638 0.17489 0.0
O21 O 1.05098 0.50343 0.15808 0.0
C22 C 0.20054 0.62885 0.16793 0.0
O23 O 0.1636 0.49235 0.19409 0.0
O24 O 0.20124 0.51687 0.16592 0.0
C25 C 1.01079 0.592 0.14707 0.0
C26 C 0.92684 0.56884 0.14391 0.0
C27 C 0.95729 0.61021 0.14751 0.0
C28 C 0.99896 0.62169 0.14903 0.0
C29 C 0.9804 0.55034 0.14428 0.0
C30 C 0.93866 0.53888 0.14254 0.0
C31 C 1.05489 0.60522 0.14684 0.0
H32 H 0.32925 0.53122 0.20852 0.0
H33 H 0.26218 0.48592 0.19093 0.0
H34 H 0.2189 0.56739 0.2095 0.0
H35 H 0.28519 0.61232 0.22698 0.0
H36 H 0.94904 0.63404 0.14828 0.0
H37 H 1.02204 0.65392 0.15117 0.0
H38 H 0.98901 0.52689 0.14289 0.0
H39 H 0.91572 0.50683 0.13982 0.0
Tb40 Tb 0.71265 0.07287 0.50278 0.0
Eu41 Eu 0.613 1.02132 0.49846 0.0
C42 C 0.65937 1.04763 0.54426 0.0
C43 C 0.66433 0.9716 0.50722 0.0
C44 C 0.81471 0.1555 0.48894 0.0
C45 C 0.87803 0.22139 0.48428 0.0
C46 C 0.85656 0.18205 0.4941 0.0
C47 C 0.79494 0.16823 0.47355 0.0
C48 C 0.81624 0.20712 0.46369 0.0
C49 C 0.85774 0.23453 0.46927 0.0
C50 C 0.79025 0.1159 0.50051 0.0
O51 O 0.6943 0.08203 0.47012 0.0
O52 O 0.63727 1.01946 0.46612 0.0
O53 O 0.62823 0.08926 0.49894 0.0
O54 O 0.69758 0.1225 0.50778 0.0
C55 C 0.66793 1.05263 0.45753 0.0
O56 O 0.55267 0.9727 0.50936 0.0
O57 O 0.55694 1.01028 0.48106 0.0
O58 O 0.62732 1.04153 0.53241 0.0
O59 O 0.69417 1.05438 0.53603 0.0
O60 O 0.69905 1.00715 0.50347 0.0
O61 O 0.62855 0.97069 0.50759 0.0
C62 C 0.66278 0.12334 0.50444 0.0
O63 O 0.76934 0.11712 0.51654 0.0
O64 O 0.76751 0.08433 0.48833 0.0
C65 C 0.49897 0.98799 0.50368 0.0
C66 C 0.42937 0.99157 0.51691 0.0
C67 C 0.43559 0.95885 0.52385 0.0
C68 C 0.46982 0.957 0.5172 0.0
C69 C 0.49448 1.02218 0.49784 0.0
C70 C 0.45996 1.02392 0.5044 0.0
C71 C 0.53261 0.98301 0.49528 0.0
H72 H 0.90993 0.24204 0.48904 0.0
H73 H 0.87221 0.17286 0.5061 0.0
H74 H 0.7626 0.14852 0.46951 0.0
H75 H 0.7999 0.21603 0.45198 0.0
H76 H 0.41267 0.93304 0.53325 0.0
H77 H 0.47267 0.93041 0.52199 0.0
H78 H 0.51689 1.04699 0.48771 0.0
H79 H 0.45652 1.04988 0.49904 0.0
Tb80 Tb 0.66209 0.66652 0.826 0.0
Eu81 Eu 0.61378 0.57229 0.8424 0.0
C82 C 0.65179 0.64857 0.87457 0.0
C83 C 0.71479 0.61974 0.83861 0.0
C84 C 0.68042 0.7509 0.78901 0.0
C85 C 0.66126 0.80028 0.77498 0.0
C86 C 0.68179 0.78878 0.79041 0.0
C87 C 0.65989 0.72552 0.77136 0.0
C88 C 0.63927 0.73691 0.75598 0.0
C89 C 0.63895 0.77399 0.75787 0.0
C90 C 0.69613 0.73589 0.80707 0.0
O91 O 0.62324 0.62812 0.79984 0.0
O92 O 0.62968 0.57238 0.80736 0.0
O93 O 0.56216 0.58763 0.83596 0.0
O94 O 0.60084 0.65835 0.83541 0.0
C95 C 0.62511 0.59649 0.7931 0.0
O96 O 0.56594 0.5079 0.83827 0.0
O97 O 0.60064 0.52734 0.8685 0.0
O98 O 0.61944 0.61284 0.8698 0.0
O99 O 0.67845 0.67149 0.85988 0.0
O100 O 0.71273 0.6509 0.82889 0.0
O101 O 0.68103 0.58764 0.84636 0.0
C102 C 0.56421 0.62385 0.83671 0.0
O103 O 0.6765 0.72862 0.82512 0.0
O104 O 0.70323 0.70624 0.80264 0.0
C105 C 0.57128 0.45731 0.85987 0.0
C106 C 0.56441 0.37916 0.86384 0.0
C107 C 0.59096 0.40839 0.84855 0.0
C108 C 0.59437 0.44731 0.84657 0.0
C109 C 0.54611 0.42892 0.87564 0.0
C110 C 0.54268 0.39014 0.87763 0.0
C111 C 0.57202 0.49666 0.85755 0.0
H112 H 0.66103 0.82873 0.77715 0.0
H113 H 0.69715 0.80862 0.80395 0.0
H114 H 0.65843 0.69611 0.76981 0.0
H115 H 0.62269 0.71616 0.74293 0.0
H116 H 0.60774 0.40059 0.83757 0.0
H117 H 0.61418 0.46915 0.83441 0.0
H118 H 0.52843 0.43647 0.88616 0.0
H119 H 0.5224 0.36843 0.8897 0.0
C120 C 0.62813 1.05061 0.1951 0.0
N121 N 0.65896 0.07687 0.20912 0.0
N122 N 0.59776 1.01586 0.20545 0.0
C123 C 0.62869 1.0575 0.1712 0.0
C124 C 0.61121 1.02235 0.22622 0.0
N125 N 0.64773 1.05837 0.22847 0.0
C126 C 0.58731 0.99417 0.24477 0.0
H127 H 0.61514 0.07739 0.16725 0.0
H128 H 0.60997 1.02775 0.16287 0.0
H129 H 0.66091 0.07339 0.16533 0.0
H130 H 0.55366 0.97652 0.24098 0.0
H131 H 0.59221 1.01189 0.25957 0.0
H132 H 0.5983 0.97194 0.24809 0.0
C133 C 0.66204 0.54663 0.53304 0.0
N134 N 0.65671 0.57179 0.54676 0.0
N135 N 0.65602 0.51068 0.54315 0.0
C136 C 0.6712 0.55605 0.5096 0.0
C137 C 0.64701 0.51521 0.56346 0.0
N138 N 0.64718 0.55138 0.56568 0.0
C139 C 0.63981 0.48489 0.58169 0.0
H140 H 0.65546 0.57237 0.50267 0.0
H141 H 0.66134 0.52731 0.50067 0.0
H142 H 0.70504 0.57655 0.50773 0.0
H143 H 0.65555 0.50164 0.59657 0.0
H144 H 0.65122 0.46363 0.57798 0.0
H145 H 0.60615 0.46633 0.58478 0.0
C146 C 0.14195 0.61964 0.86401 0.0
N147 N 0.16764 0.61216 0.87751 0.0
N148 N 0.10641 0.61213 0.87404 0.0
C149 C 0.15048 0.6322 0.84076 0.0
C150 C 0.11205 0.60044 0.8942 0.0
N151 N 0.14813 0.59979 0.89626 0.0
C152 C 1.08356 0.59291 0.91258 0.0
H153 H 0.1705 0.66629 0.83955 0.0
H154 H 0.12132 0.62316 0.83158 0.0
H155 H 0.16711 0.61802 0.83363 0.0
H156 H 1.0608 0.55937 0.91395 0.0
H157 H 1.06641 0.60979 0.90991 0.0
H158 H 0.10112 0.60287 0.92803 0.0
C159 C 1.04227 0.68873 0.4404 0.0
N160 N 1.03954 0.66506 0.42382 0.0
N161 N 1.07162 0.72877 0.4368 0.0
C162 C 1.01921 0.67194 0.46111 0.0
C163 C 1.08604 0.72852 0.41706 0.0
N164 N 1.0668 0.68972 0.40928 0.0
C165 C 0.1211 0.76572 0.40623 0.0
H166 H 0.98574 0.65159 0.45762 0.0
H167 H 1.02312 0.69707 0.47159 0.0
H168 H 1.0305 0.65297 0.46977 0.0
H169 H 0.15074 0.77259 0.41429 0.0
H170 H 0.1175 0.79312 0.40761 0.0
H171 H 0.12246 0.7607 0.38889 0.0
C172 C 0.42814 0.98376 0.76213 0.0
N173 N 0.43986 0.98149 0.74214 0.0
N174 N 0.43312 1.0216 0.76535 0.0
C175 C 0.41777 0.95125 0.77952 0.0
C176 C 0.44795 1.04206 0.74638 0.0
N177 N 0.45298 1.01809 0.73244 0.0
C178 C 0.46129 0.08691 0.74241 0.0
H179 H 0.40515 0.95775 0.79383 0.0
H180 H 0.44613 0.95029 0.78432 0.0
H181 H 0.39477 0.92042 0.77335 0.0
H182 H 0.48995 0.10613 0.7519 0.0
H183 H 0.43722 0.09329 0.74795 0.0
H184 H 0.46685 0.09579 0.72513 0.0
C185 C 0.66813 0.72724 0.12937 0.0
N186 N 0.67544 0.71929 0.10953 0.0
N187 N 0.6559 0.7558 0.12834 0.0
C188 C 0.67022 0.70495 0.14959 0.0
C189 C 0.65621 0.76473 0.10693 0.0
N190 N 0.66845 0.74271 0.09557 0.0
C191 C 0.64227 0.79295 0.09701 0.0
H192 H 0.64335 0.69665 0.15981 0.0
H193 H 0.69874 0.72578 0.15883 0.0
H194 H 0.67092 0.67649 0.14612 0.0
H195 H 0.66366 0.81248 0.08412 0.0
H196 H 0.64087 0.81311 0.10921 0.0
H197 H 0.61115 0.77402 0.08951 0.0
H198 H 0.36886 0.56512 0.24381 0.0
H199 H 0.44333 0.61438 0.24676 0.0
H200 H 0.4262 0.70464 0.20992 0.0
H201 H 0.35224 0.65654 0.20777 0.0
H202 H 0.48292 0.63181 0.21231 0.0
H203 H 0.51269 0.8054 0.21507 0.0
H204 H 0.49751 0.8461 0.23954 0.0
H205 H 0.46321 0.75193 0.28873 0.0
H206 H 0.48015 0.71143 0.26514 0.0
H207 H 0.57872 0.74383 0.12626 0.0
H208 H 0.53594 0.73442 0.15699 0.0
H209 H 0.6407 0.76868 0.19979 0.0
H210 H 0.68477 0.78164 0.16862 0.0
H211 H 0.56155 0.78515 0.21017 0.0
H212 H 0.59288 0.66501 0.21237 0.0
H213 H 0.61301 0.62208 0.19264 0.0
H214 H 0.52833 0.60978 0.14114 0.0
H215 H 0.50684 0.65168 0.16105 0.0
C216 C 0.38096 0.59608 0.2371 0.0
C217 C 0.35496 0.60693 0.22538 0.0
C218 C 0.42339 0.6243 0.23891 0.0
C219 C 0.44047 0.66344 0.22868 0.0
C220 C 0.41386 0.67528 0.21852 0.0
C221 C 0.37148 0.64744 0.21705 0.0
C222 C 0.48503 0.68695 0.22339 0.0
C223 C 0.50045 0.66532 0.21266 0.0
C224 C 0.50877 0.7308 0.22398 0.0
C225 C 0.49746 0.7549 0.23808 0.0
C226 C 0.50241 0.79338 0.23116 0.0
C227 C 0.49351 0.81654 0.24492 0.0
C228 C 0.47916 0.8015 0.26559 0.0
C229 C 0.4741 0.76345 0.27265 0.0
C230 C 0.48338 0.74036 0.25907 0.0
C231 C 0.59333 0.75207 0.14202 0.0
C232 C 0.63493 0.76313 0.14512 0.0
C233 C 0.56879 0.74639 0.15962 0.0
C234 C 0.5852 0.75049 0.18058 0.0
C235 C 0.62765 0.76562 0.18369 0.0
C236 C 0.6526 0.77268 0.16594 0.0
C237 C 0.5561 0.72957 0.19826 0.0
C238 C 0.54405 0.75169 0.21099 0.0
C239 C 0.53568 0.68618 0.2002 0.0
C240 C 0.54867 0.66161 0.18803 0.0
C241 C 0.57863 0.65307 0.19684 0.0
C242 C 0.59004 0.62869 0.18569 0.0
C243 C 0.57206 0.61325 0.16557 0.0
C244 C 0.54227 0.62178 0.1567 0.0
C245 C 0.53027 0.6456 0.16796 0.0
H246 H 0.58123 0.59477 0.15682 0.0
H247 H 0.47205 0.81937 0.27614 0.0
H248 H 0.937 0.28116 0.4544 0.0
H249 H 0.97108 0.35323 0.44129 0.0
H250 H 0.85916 0.3565 0.45139 0.0
H251 H 0.82522 0.2851 0.46452 0.0
H252 H 0.89582 0.39596 0.41383 0.0
H253 H 0.93629 0.39268 0.48889 0.0
H254 H 0.96716 0.37125 0.51865 0.0
H255 H 1.08256 0.42664 0.48555 0.0
H256 H 1.05216 0.44794 0.45546 0.0
H257 H 0.95879 0.60711 0.42694 0.0
H258 H 0.93005 0.53212 0.43102 0.0
H259 H 1.05295 0.54972 0.42643 0.0
H260 H 1.08152 0.6245 0.42396 0.0
H261 H 1.01601 0.4983 0.45667 0.0
H262 H 0.97753 0.51886 0.38604 0.0
H263 H 0.9455 0.53866 0.35651 0.0
H264 H 0.82484 0.45256 0.38038 0.0
H265 H 0.85616 0.43221 0.41025 0.0
C266 C 0.91975 0.29731 0.45377 0.0
C267 C 0.87847 0.27749 0.46049 0.0
C268 C 0.93911 0.33831 0.44617 0.0
C269 C 0.9176 0.36016 0.44542 0.0
C270 C 0.87617 0.34008 0.45163 0.0
C271 C 0.85683 0.29924 0.45915 0.0
C272 C 0.93869 0.40481 0.43981 0.0
C273 C 0.92198 0.41861 0.42318 0.0
C274 C 0.97351 0.43391 0.45169 0.0
C275 C 0.99185 0.42147 0.46985 0.0
C276 C 0.96817 0.40004 0.48791 0.0
C277 C 0.98558 0.38795 0.50484 0.0
C278 C 1.02676 0.39747 0.50396 0.0
C279 C 1.05065 0.41922 0.48619 0.0
C280 C 1.03336 0.43132 0.4692 0.0
C281 C 0.97937 0.59464 0.42696 0.0
C282 C 1.02212 0.62104 0.42507 0.0
C283 C 0.96307 0.55198 0.42903 0.0
C284 C 0.9893 0.53521 0.4286 0.0
C285 C 1.03208 0.56185 0.42662 0.0
C286 C 1.04835 0.6044 0.42503 0.0
C287 C 0.97252 0.49007 0.43095 0.0
C288 C 0.99018 0.47606 0.44697 0.0
C289 C 0.93843 0.46097 0.41846 0.0
C290 C 0.91944 0.47361 0.40046 0.0
C291 C 0.9442 0.50384 0.38505 0.0
C292 C 0.92611 0.51533 0.36822 0.0
C293 C 0.88312 0.4968 0.36652 0.0
C294 C 0.85816 0.4668 0.38168 0.0
C295 C 0.87612 0.45521 0.39855 0.0
H296 H 0.86915 0.50574 0.35348 0.0
H297 H 1.04019 0.38808 0.51708 0.0
H298 H 0.65628 0.84892 0.74039 0.0
H299 H 0.60653 0.86684 0.72483 0.0
H300 H 0.5113 0.73822 0.72667 0.0
H301 H 0.56043 0.72027 0.74327 0.0
H302 H 0.55199 0.84966 0.69174 0.0
H303 H 0.4242 0.73391 0.74496 0.0
H304 H 0.4128 0.687 0.77623 0.0
H305 H 0.53369 0.77219 0.80142 0.0
H306 H 0.54556 0.81971 0.77042 0.0
H307 H 0.38525 0.90217 0.73274 0.0
H308 H 0.40199 0.84916 0.72244 0.0
H309 H 0.53196 0.9397 0.72621 0.0
H310 H 0.51535 0.99185 0.73705 0.0
H311 H 0.44953 0.8244 0.74756 0.0
H312 H 0.58224 0.92424 0.68593 0.0
H313 H 0.59414 0.97225 0.65533 0.0
H314 H 0.46333 0.9236 0.64772 0.0
H315 H 0.45036 0.87426 0.67779 0.0
C316 C 0.6249 0.82437 0.7372 0.0
C317 C 0.61205 0.78339 0.7436 0.0
C318 C 0.59659 0.83456 0.72804 0.0
C319 C 0.555 0.80393 0.72503 0.0
C320 C 0.54312 0.76238 0.72917 0.0
C321 C 0.57138 0.75218 0.73855 0.0
C322 C 0.52385 0.81686 0.72113 0.0
C323 C 0.52926 0.84398 0.70377 0.0
C324 C 0.49289 0.80782 0.73636 0.0
C325 C 0.4859 0.78001 0.75528 0.0
C326 C 0.44826 0.74261 0.75722 0.0
C327 C 0.44172 0.71595 0.77487 0.0
C328 C 0.47255 0.72655 0.79075 0.0
C329 C 0.50988 0.76396 0.78908 0.0
C330 C 0.51653 0.79077 0.77148 0.0
C331 C 0.41728 0.91041 0.73119 0.0
C332 C 0.44914 0.95078 0.7354 0.0
C333 C 0.42677 0.88046 0.72521 0.0
C334 C 0.46823 0.891 0.72308 0.0
C335 C 0.49987 0.93147 0.72718 0.0
C336 C 0.49044 0.96105 0.73342 0.0
C337 C 0.47979 0.85953 0.71898 0.0
C338 C 0.47076 0.82885 0.73488 0.0
C339 C 0.50754 0.86557 0.70245 0.0
C340 C 0.5153 0.89539 0.68425 0.0
C341 C 0.5559 0.92335 0.67762 0.0
C342 C 0.56285 0.95087 0.66034 0.0
C343 C 0.5295 0.95098 0.64961 0.0
C344 C 0.48913 0.92351 0.65608 0.0
C345 C 0.48196 0.89574 0.67325 0.0
H346 H 0.53488 0.97227 0.63626 0.0
H347 H 0.46745 0.70582 0.80437 0.0
H348 H 0.87536 0.52388 0.11098 0.0
H349 H 0.81109 0.52188 0.0994 0.0
H350 H 0.818 0.58987 0.15552 0.0
H351 H 0.8813 0.59098 0.16734 0.0
H352 H 0.73876 0.53938 0.14351 0.0
H353 H 0.87082 0.63974 0.10923 0.0
H354 H 0.93096 0.65673 0.08692 0.0
H355 H 0.84947 0.58793 0.03485 0.0
H356 H 0.78886 0.57016 0.057 0.0
H357 H 0.7535 0.73845 0.10418 0.0
H358 H 0.77889 0.68966 0.10325 0.0
H359 H 0.65291 0.58775 0.10277 0.0
H360 H 0.62799 0.63717 0.10471 0.0
H361 H 0.77441 0.63231 0.07921 0.0
H362 H 0.65057 0.50845 0.13319 0.0
H363 H 0.60004 0.49858 0.16069 0.0
H364 H 0.67511 0.62572 0.17827 0.0
H365 H 0.72584 0.63623 0.15088 0.0
C366 C 0.86216 0.53689 0.12124 0.0
C367 C 0.88355 0.55833 0.13982 0.0
C368 C 0.82558 0.53583 0.11458 0.0
C369 C 0.8103 0.5564 0.12639 0.0
C370 C 0.82931 0.57388 0.14612 0.0
C371 C 0.86569 0.57489 0.15277 0.0
C372 C 0.77991 0.5669 0.11688 0.0
C373 C 0.74559 0.55861 0.12904 0.0
C374 C 0.78911 0.59226 0.09812 0.0
C375 C 0.82546 0.60319 0.08482 0.0
C376 C 0.86581 0.62809 0.09306 0.0
C377 C 0.89994 0.63785 0.08045 0.0
C378 C 0.89404 0.6233 0.0595 0.0
C379 C 0.85399 0.59906 0.0511 0.0
C380 C 0.81975 0.5891 0.06367 0.0
C381 C 0.73152 0.70565 0.10335 0.0
C382 C 0.68915 0.69115 0.10445 0.0
C383 C 0.74581 0.67778 0.10282 0.0
C384 C 0.71779 0.63496 0.10322 0.0
C385 C 0.67508 0.62058 0.10275 0.0
C386 C 0.66086 0.6486 0.10363 0.0
C387 C 0.73405 0.60627 0.10634 0.0
C388 C 0.7657 0.61111 0.09292 0.0
C389 C 0.72295 0.57849 0.12423 0.0
C390 C 0.69156 0.57321 0.13982 0.0
C391 C 0.65601 0.53432 0.14283 0.0
C392 C 0.6274 0.5286 0.15842 0.0
C393 C 0.6343 0.56149 0.17121 0.0
C394 C 0.66964 0.60028 0.16831 0.0
C395 C 0.69826 0.60618 0.15271 0.0
H396 H 0.61227 0.55682 0.1834 0.0
H397 H 0.9205 0.6309 0.04976 0.0
H398 H 0.37768 0.95983 0.55162 0.0
H399 H 0.30238 0.92598 0.54881 0.0
H400 H 0.31176 0.98079 0.48569 0.0
H401 H 0.38647 1.01289 0.48775 0.0
H402 H 0.22825 0.94865 0.51497 0.0
H403 H 0.32039 0.90832 0.47541 0.0
H404 H 0.38105 0.89855 0.47679 0.0
H405 H 0.33656 0.82531 0.53487 0.0
H406 H 0.27588 0.83509 0.53387 0.0
H407 H 1.09098 0.80907 0.43638 0.0
H408 H 0.14119 0.86258 0.46037 0.0
H409 H 0.149 0.76873 0.49926 0.0
H410 H 0.10332 0.71664 0.47384 0.0
H411 H 0.21952 0.82025 0.48958 0.0
H412 H 0.11169 0.83477 0.51789 0.0
H413 H 1.05049 0.84331 0.51784 0.0
H414 H 0.11927 0.96179 0.48609 0.0
H415 H 0.18076 0.95374 0.48564 0.0
C416 C 0.36383 0.96599 0.53745 0.0
C417 C 0.38805 0.98749 0.51951 0.0
C418 C 0.32077 0.94718 0.53606 0.0
C419 C 0.30169 0.95042 0.51689 0.0
C420 C 0.32603 0.97808 0.50064 0.0
C421 C 0.36902 0.99635 0.50185 0.0
C422 C 0.26079 0.91574 0.51069 0.0
C423 C 0.22578 0.92028 0.50953 0.0
C424 C 0.25777 0.87867 0.50406 0.0
C425 C 0.29391 0.87254 0.50461 0.0
C426 C 0.32367 0.89018 0.48846 0.0
C427 C 0.35797 0.88462 0.48916 0.0
C428 C 0.36254 0.86116 0.50585 0.0
C429 C 0.3329 0.84336 0.52192 0.0
C430 C 0.29859 0.84892 0.5213 0.0
C431 C 0.10359 0.80016 0.45007 0.0
C432 C 0.09396 0.75897 0.45306 0.0
C433 C 0.13155 0.83056 0.46408 0.0
C434 C 0.14905 0.81984 0.48174 0.0
C435 C 0.13629 0.77799 0.48571 0.0
C436 C 0.10981 0.74808 0.4713 0.0
C437 C 0.18545 0.85208 0.49376 0.0
C438 C 0.22049 0.84754 0.49566 0.0
C439 C 0.1877 0.88844 0.50143 0.0
C440 C 0.1508 0.89349 0.5016 0.0
C441 C 0.1137 0.86251 0.51073 0.0
C442 C 1.07896 0.86729 0.51083 0.0
C443 C 1.08097 0.90304 0.50194 0.0
C444 C 0.11776 0.93411 0.49297 0.0
C445 C 0.15259 0.92948 0.49282 0.0
H446 H 1.05404 0.90668 0.50203 0.0
H447 H 0.38917 0.85697 0.5064 0.0
H448 H 0.48972 0.30862 0.86599 0.0
H449 H 0.47464 0.23827 0.8612 0.0
H450 H 0.60526 0.28158 0.85701 0.0
H451 H 0.62055 0.35274 0.86151 0.0
H452 H 0.56714 0.23864 0.82403 0.0
H453 H 0.54502 0.21279 0.89835 0.0
H454 H 0.51993 0.21401 0.93431 0.0
H455 H 0.39422 0.14146 0.91174 0.0
H456 H 0.41846 0.1403 0.87554 0.0
H457 H 0.49028 1.02924 0.79493 0.0
H458 H 0.5172 0.07863 0.82426 0.0
H459 H 0.42431 0.11211 0.8093 0.0
H460 H 0.39619 1.06123 0.78052 0.0
H461 H 0.45783 0.11028 0.85906 0.0
H462 H 0.51288 0.20263 0.78435 0.0
H463 H 0.53935 0.20334 0.74836 0.0
H464 H 0.60466 0.14438 0.77481 0.0
H465 H 0.57927 0.14424 0.81099 0.0
C466 C 0.51535 0.30311 0.8647 0.0
C467 C 0.55632 0.33618 0.86404 0.0
C468 C 0.50669 0.26273 0.86209 0.0
C469 C 0.53882 0.25445 0.85902 0.0
C470 C 0.57998 0.28723 0.85944 0.0
C471 C 0.58867 0.32782 0.86188 0.0
C472 C 0.52864 0.21295 0.85194 0.0
C473 C 0.5443 0.2106 0.83218 0.0
C474 C 0.49859 0.17614 0.86238 0.0
C475 C 0.48363 0.17655 0.88416 0.0
C476 C 0.51201 0.1973 0.90099 0.0
C477 C 0.49793 0.19795 0.92144 0.0
C478 C 0.45551 0.17784 0.9253 0.0
C479 C 0.42708 0.15699 0.90873 0.0
C480 C 0.44098 0.15624 0.88825 0.0
C481 C 0.4744 1.04568 0.79867 0.0
C482 C 0.44126 1.04171 0.78561 0.0
C483 C 0.48995 0.07401 0.81526 0.0
C484 C 0.47293 0.09912 0.81868 0.0
C485 C 0.43763 0.09273 0.80688 0.0
C486 C 0.42173 0.06396 0.79046 0.0
C487 C 0.496 0.13685 0.83132 0.0
C488 C 0.48217 0.13842 0.85172 0.0
C489 C 0.52845 0.17298 0.82183 0.0
C490 C 0.54381 0.17296 0.80021 0.0
C491 C 0.53296 0.18992 0.78243 0.0
C492 C 0.54791 0.19039 0.76205 0.0
C493 C 0.57364 0.17387 0.75929 0.0
C494 C 0.58467 0.15708 0.77695 0.0
C495 C 0.57006 0.15685 0.79739 0.0
H496 H 0.58496 0.17401 0.74348 0.0
H497 H 0.44468 0.1784 0.94114 0.0
H498 H 0.72767 0.95373 0.50072 0.0
H499 H 0.72772 0.8885 0.50706 0.0
H500 H 0.60294 0.83069 0.52977 0.0
H501 H 0.60259 0.89554 0.52322 0.0
H502 H 0.64571 0.80458 0.55554 0.0
H503 H 0.62859 0.81092 0.47877 0.0
H504 H 0.64705 0.84198 0.4423 0.0
H505 H 0.76345 0.84535 0.44818 0.0
H506 H 0.7459 0.81479 0.48481 0.0
H507 H 0.59988 0.5939 0.55712 0.0
H508 H 0.60198 0.65977 0.55045 0.0
H509 H 0.71906 0.70832 0.51921 0.0
H510 H 0.7164 0.64174 0.52562 0.0
H511 H 0.68245 0.74069 0.49821 0.0
H512 H 0.70196 0.73435 0.57377 0.0
H513 H 0.6863 0.70365 0.61041 0.0
H514 H 0.57122 0.70326 0.60816 0.0
H515 H 0.58577 0.73316 0.57131 0.0
C516 C 0.70005 0.92726 0.50703 0.0
C517 C 0.66506 0.93097 0.51125 0.0
C518 C 0.70003 0.88936 0.51063 0.0
C519 C 0.66518 0.8532 0.51888 0.0
C520 C 0.63052 0.85717 0.52344 0.0
C521 C 0.63031 0.89481 0.51954 0.0
C522 C 0.66459 0.8117 0.52263 0.0
C523 C 0.6533 0.79061 0.5428 0.0
C524 C 0.67554 0.7927 0.50661 0.0
C525 C 0.68612 0.81098 0.48461 0.0
C526 C 0.65826 0.81858 0.47235 0.0
C527 C 0.66853 0.83605 0.45164 0.0
C528 C 0.70645 0.84575 0.44295 0.0
C529 C 0.73412 0.83789 0.45494 0.0
C530 C 0.72402 0.82047 0.47567 0.0
C531 C 0.62635 0.61857 0.54896 0.0
C532 C 0.65802 0.61165 0.54211 0.0
C533 C 0.6277 0.65693 0.54515 0.0
C534 C 0.66122 0.69093 0.53461 0.0
C535 C 0.6926 0.68368 0.5274 0.0
C536 C 0.69107 0.64507 0.53107 0.0
C537 C 0.66337 0.7333 0.53112 0.0
C538 C 0.67494 0.75459 0.51101 0.0
C539 C 0.65331 0.75282 0.54734 0.0
C540 C 0.64479 0.73565 0.56967 0.0
C541 C 0.6732 0.72752 0.58104 0.0
C542 C 0.66452 0.71023 0.60184 0.0
C543 C 0.62776 0.70144 0.61159 0.0
C544 C 0.59966 0.71004 0.60057 0.0
C545 C 0.6081 0.72715 0.57972 0.0
H546 H 0.62109 0.68804 0.62769 0.0
H547 H 0.71434 0.85926 0.42692 0.0
H548 H 0.79465 0.68177 0.82713 0.0
H549 H 0.86057 0.68268 0.83157 0.0
H550 H 0.79657 0.55992 0.85965 0.0
H551 H 0.73096 0.55945 0.85576 0.0
H552 H 0.8637 0.59628 0.88083 0.0
H553 H 0.84229 0.59029 0.80433 0.0
H554 H 0.8299 0.61257 0.76844 0.0
H555 H 0.94198 0.72945 0.77491 0.0
H556 H 0.95478 0.70804 0.81097 0.0
H557 H 1.02621 0.5498 0.87566 0.0
H558 H 0.96301 0.55286 0.86834 0.0
H559 H 1.03653 0.68019 0.8478 0.0
H560 H 0.10026 0.6769 0.8552 0.0
H561 H 0.96677 0.64458 0.82288 0.0
H562 H 0.989 0.64849 0.89904 0.0
H563 H 1.00169 0.62452 0.93437 0.0
H564 H 0.88718 0.50981 0.9281 0.0
H565 H 0.87415 0.5328 0.89253 0.0
C566 C 0.79432 0.65477 0.8342 0.0
C567 C 0.75637 0.62047 0.84094 0.0
C568 C 0.83258 0.65515 0.83664 0.0
C569 C 0.83494 0.62105 0.84571 0.0
C570 C 0.79697 0.58697 0.85258 0.0
C571 C 0.75882 0.58665 0.85024 0.0
C572 C 0.87625 0.62081 0.84839 0.0
C573 C 0.88566 0.60638 0.86789 0.0
C574 C 0.90681 0.63478 0.83209 0.0
C575 C 0.89925 0.64773 0.81044 0.0
C576 C 0.86414 0.62085 0.79816 0.0
C577 C 0.85707 0.6333 0.77778 0.0
C578 C 0.88507 0.67245 0.76943 0.0
C579 C 0.92028 0.69917 0.78142 0.0
C580 C 0.92747 0.68688 0.80182 0.0
C581 C 1.02912 0.57844 0.86935 0.0
C582 C 1.06904 0.61303 0.86609 0.0
C583 C 0.99255 0.58035 0.86529 0.0
C584 C 0.99375 0.61708 0.85785 0.0
C585 C 1.03366 0.65128 0.8536 0.0
C586 C 1.07051 0.64937 0.85773 0.0
C587 C 0.95375 0.61963 0.85519 0.0
C588 C 0.94469 0.6345 0.83576 0.0
C589 C 0.92337 0.6059 0.87151 0.0
C590 C 0.93078 0.59223 0.89303 0.0
C591 C 0.96663 0.61805 0.90514 0.0
C592 C 0.97389 0.60464 0.9252 0.0
C593 C 0.9453 0.56563 0.93345 0.0
C594 C 0.90933 0.54 0.92167 0.0
C595 C 0.90198 0.5532 0.90156 0.0
H596 H 0.95098 0.5553 0.94899 0.0
H597 H 0.87954 0.68203 0.75364 0.0
H598 H 0.27873 0.64286 0.17977 0.0
H599 H 0.34367 0.70838 0.18443 0.0
H600 H 0.28132 0.77551 0.16659 0.0
H601 H 0.21584 0.70979 0.16211 0.0
H602 H 0.35964 0.81319 0.14784 0.0
H603 H 0.30758 0.77063 0.21863 0.0
H604 H 0.27843 0.72098 0.24908 0.0
H605 H 0.38843 0.71206 0.25374 0.0
H606 H 0.41754 0.76058 0.22274 0.0
H607 H 0.5297 1.01109 0.18428 0.0
H608 H 0.4627 0.94838 0.17678 0.0
H609 H 0.51189 0.87286 0.20186 0.0
H610 H 0.57816 0.93541 0.20972 0.0
H611 H 0.43749 0.84048 0.21708 0.0
H612 H 0.4885 0.88254 0.14524 0.0
H613 H 0.51553 0.93018 0.11386 0.0
H614 H 0.406 0.94021 0.1111 0.0
H615 H 0.37855 0.89301 0.14265 0.0
C616 C 0.27848 0.6714 0.17676 0.0
C617 C 0.2411 0.67012 0.1705 0.0
C618 C 0.31608 0.70931 0.17954 0.0
C619 C 0.31841 0.74794 0.17604 0.0
C620 C 0.28128 0.7468 0.16944 0.0
C621 C 0.24341 0.70879 0.16695 0.0
C622 C 0.35909 0.78889 0.17974 0.0
C623 C 0.37624 0.81919 0.16313 0.0
C624 C 0.38201 0.79767 0.19949 0.0
C625 C 0.36487 0.76923 0.21839 0.0
C626 C 0.32551 0.75796 0.22609 0.0
C627 C 0.30893 0.72997 0.24341 0.0
C628 C 0.33162 0.71348 0.25338 0.0
C629 C 0.37096 0.72497 0.24604 0.0
C630 C 0.3875 0.75267 0.2286 0.0
C631 C 0.52654 0.98111 0.18776 0.0
C632 C 0.56012 0.97888 0.19742 0.0
C633 C 0.48779 0.9448 0.18354 0.0
C634 C 0.48094 0.90459 0.18868 0.0
C635 C 0.51502 0.90265 0.19786 0.0
C636 C 0.55351 0.93878 0.20214 0.0
C637 C 0.43875 0.86486 0.18504 0.0
C638 C 0.42113 0.83465 0.20175 0.0
C639 C 0.41531 0.85632 0.1654 0.0
C640 C 0.43168 0.88461 0.14644 0.0
C641 C 0.47032 0.89515 0.13803 0.0
C642 C 0.48569 0.92203 0.12021 0.0
C643 C 0.46255 0.93831 0.11053 0.0
C644 C 0.42393 0.92764 0.11863 0.0
C645 C 0.40843 0.9008 0.13648 0.0
H646 H 0.4745 0.95911 0.09673 0.0
H647 H 0.31872 0.69178 0.26677 0.0
H648 H 0.72873 0.20312 0.51153 0.0
H649 H 0.72828 0.26753 0.51637 0.0
H650 H 0.59545 0.20182 0.50953 0.0
H651 H 0.59599 0.13745 0.50407 0.0
H652 H 0.61823 0.27184 0.49148 0.0
H653 H 0.65637 0.24197 0.56065 0.0
H654 H 0.6966 0.22557 0.5873 0.0
H655 H 0.80662 0.33959 0.5713 0.0
H656 H 0.76713 0.35641 0.54431 0.0
H657 H 0.59097 0.43339 0.53571 0.0
H658 H 0.59237 0.37004 0.52814 0.0
H659 H 0.7255 0.44002 0.52725 0.0
H660 H 0.72374 0.50351 0.53469 0.0
H661 H 0.70288 0.3685 0.54899 0.0
H662 H 0.66107 0.39781 0.48002 0.0
H663 H 0.61803 0.41253 0.45447 0.0
H664 H 0.51094 0.29716 0.472 0.0
H665 H 0.55325 0.28199 0.49788 0.0
C666 C 0.69922 0.20203 0.51105 0.0
C667 C 0.66241 0.16397 0.50736 0.0
C668 C 0.69892 0.23945 0.51404 0.0
C669 C 0.66172 0.24092 0.51386 0.0
C670 C 0.62495 0.2029 0.5099 0.0
C671 C 0.62526 0.16549 0.50677 0.0
C672 C 0.66113 0.28149 0.51761 0.0
C673 C 0.63647 0.29241 0.50432 0.0
C674 C 0.68505 0.31008 0.53405 0.0
C675 C 0.70888 0.30024 0.5503 0.0
C676 C 0.6892 0.26342 0.56271 0.0
C677 C 0.71186 0.25406 0.57789 0.0
C678 C 0.75416 0.28148 0.58095 0.0
C679 C 0.77386 0.31836 0.56888 0.0
C680 C 0.75136 0.32783 0.55365 0.0
C681 C 0.62056 0.43558 0.5333 0.0
C682 C 0.65715 0.47443 0.53517 0.0
C683 C 0.62145 0.39891 0.52904 0.0
C684 C 0.65908 0.39898 0.52674 0.0
C685 C 0.69575 0.43796 0.52873 0.0
C686 C 0.6948 0.4748 0.53274 0.0
C687 C 0.66008 0.35877 0.52283 0.0
C688 C 0.68474 0.34791 0.53613 0.0
C689 C 0.63574 0.32997 0.5066 0.0
C690 C 0.61026 0.33896 0.49104 0.0
C691 C 0.62828 0.37572 0.47855 0.0
C692 C 0.60402 0.38412 0.46398 0.0
C693 C 0.56175 0.35585 0.46165 0.0
C694 C 0.54367 0.31906 0.47384 0.0
C695 C 0.56778 0.31053 0.48845 0.0
H696 H 0.54303 0.3624 0.45037 0.0
H697 H 0.77166 0.27419 0.59271 0.0
H698 H 0.48446 0.5584 0.84287 0.0
H699 H 0.42044 0.55843 0.84915 0.0
H700 H 0.48597 0.69136 0.84431 0.0
H701 H 0.55088 0.69142 0.83853 0.0
H702 H 0.43177 0.67339 0.87328 0.0
H703 H 0.41211 0.62038 0.80318 0.0
H704 H 0.41019 0.57591 0.77433 0.0
H705 H 0.31751 0.46858 0.80809 0.0
H706 H 0.31923 0.51239 0.83729 0.0
H707 H 0.23867 0.67811 0.86134 0.0
H708 H 0.30517 0.68218 0.85418 0.0
H709 H 0.2542 0.55528 0.87514 0.0
H710 H 0.18815 0.55165 0.88277 0.0
H711 H 0.30111 0.57279 0.83678 0.0
H712 H 0.32167 0.63153 0.9067 0.0
H713 H 0.32299 0.68021 0.93282 0.0
H714 H 0.41454 0.78253 0.89565 0.0
H715 H 0.41317 0.73445 0.86907 0.0
C716 C 0.48567 0.5879 0.84296 0.0
C717 C 0.52394 0.62489 0.83991 0.0
C718 C 0.44829 0.58788 0.84647 0.0
C719 C 0.44665 0.62483 0.84688 0.0
C720 C 0.48502 0.66199 0.84408 0.0
C721 C 0.52265 0.66203 0.84063 0.0
C722 C 0.40545 0.62434 0.8504 0.0
C723 C 0.40356 0.65162 0.86494 0.0
C724 C 0.36726 0.59614 0.83998 0.0
C725 C 0.36612 0.56962 0.82253 0.0
C726 C 0.39154 0.58726 0.80453 0.0
C727 C 0.39045 0.56218 0.7881 0.0
C728 C 0.36384 0.51943 0.78941 0.0
C729 C 0.33816 0.50169 0.80712 0.0
C730 C 0.33914 0.52663 0.82361 0.0
C731 C 0.24148 0.65098 0.86438 0.0
C732 C 0.20734 0.61448 0.87266 0.0
C733 C 0.27995 0.65335 0.86034 0.0
C734 C 0.28589 0.61908 0.86401 0.0
C735 C 0.25144 0.58243 0.87199 0.0
C736 C 0.21332 0.58035 0.87647 0.0
C737 C 0.32754 0.6214 0.85976 0.0
C738 C 0.32943 0.5945 0.84507 0.0
C739 C 0.36577 0.6505 0.86969 0.0
C740 C 0.36701 0.6794 0.88577 0.0
C741 C 0.34184 0.66443 0.90399 0.0
C742 C 0.34262 0.69191 0.9189 0.0
C743 C 0.36877 0.73444 0.91587 0.0
C744 C 0.39426 0.74957 0.89796 0.0
C745 C 0.39349 0.72222 0.88297 0.0
H746 H 0.36935 0.75568 0.92744 0.0
H747 H 0.36303 0.50006 0.77667 0.0
H748 H 1.03943 0.39988 0.18929 0.0
H749 H 0.97482 0.33513 0.19609 0.0
H750 H 0.90667 0.3833 0.16078 0.0
H751 H 0.97126 0.44863 0.15449 0.0
H752 H 0.85995 0.34122 0.19171 0.0
H753 H 0.92894 0.30209 0.14232 0.0
H754 H 0.98592 0.2948 0.12842 0.0
H755 H 0.98186 0.22288 0.18459 0.0
H756 H 0.92516 0.23016 0.19895 0.0
H757 H 0.66982 0.1441 0.18439 0.0
H758 H 0.73439 0.20905 0.17693 0.0
H759 H 0.80244 0.16551 0.21607 0.0
H760 H 0.73801 0.10026 0.22307 0.0
H761 H 0.84874 0.20492 0.18289 0.0
H762 H 0.77868 0.24368 0.23185 0.0
H763 H 0.72099 0.25041 0.24515 0.0
H764 H 0.72639 0.32269 0.18888 0.0
H765 H 0.78375 0.31588 0.17509 0.0
C766 C 1.01087 0.39689 0.18277 0.0
C767 C 1.01171 0.43044 0.17106 0.0
C768 C 0.97331 0.35913 0.1866 0.0
C769 C 0.93445 0.35254 0.17873 0.0
C770 C 0.93529 0.38626 0.16719 0.0
C771 C 0.97284 0.42411 0.16343 0.0
C772 C 0.89345 0.31134 0.1827 0.0
C773 C 0.85775 0.31161 0.18939 0.0
C774 C 0.88908 0.27149 0.18037 0.0
C775 C 0.92311 0.26703 0.1718 0.0
C776 C 0.9404 0.28496 0.15177 0.0
C777 C 0.97261 0.28079 0.1438 0.0
C778 C 0.98758 0.25849 0.15565 0.0
C779 C 0.97028 0.24021 0.17545 0.0
C780 C 0.93809 0.24431 0.18351 0.0
C781 C 0.69848 0.14806 0.19132 0.0
C782 C 0.69784 0.1161 0.20445 0.0
C783 C 0.73587 0.18588 0.18721 0.0
C784 C 0.77458 0.19373 0.19603 0.0
C785 C 0.77387 0.16145 0.20892 0.0
C786 C 0.73649 0.12378 0.21313 0.0
C787 C 0.81536 0.23488 0.19184 0.0
C788 C 0.85099 0.23457 0.18515 0.0
C789 C 0.8196 0.27466 0.19408 0.0
C790 C 0.78522 0.2789 0.20233 0.0
C791 C 0.76736 0.26075 0.22224 0.0
C792 C 0.73475 0.26461 0.22988 0.0
C793 C 0.71996 0.28687 0.21784 0.0
C794 C 0.73783 0.3054 0.19817 0.0
C795 C 0.7704 0.30156 0.19044 0.0
H796 H 0.69472 0.28984 0.22379 0.0
H797 H 1.01252 0.25531 0.14945 0.0
H798 H 0.18874 0.52208 0.10065 0.0
H799 H 0.20242 0.52976 0.0617 0.0
H800 H 0.11824 0.57619 0.05195 0.0
H801 H 0.10606 0.57025 0.09038 0.0
H802 H 0.16289 0.50181 0.02533 0.0
H803 H 0.14595 0.64829 0.01438 0.0
H804 H 0.15985 0.70889 0.03527 0.0
H805 H 0.25055 0.69648 0.07382 0.0
H806 H 0.23766 0.63619 0.05297 0.0
H807 H 0.10941 0.52792 0.91853 0.0
H808 H 0.12053 0.51706 0.95647 0.0
H809 H 0.23064 0.63764 0.95751 0.0
H810 H 0.21759 0.64913 0.91955 0.0
H811 H 0.19068 0.63355 0.98946 0.0
H812 H 0.22925 0.53987 0.96615 0.0
H813 H 0.22588 0.48304 0.94568 0.0
H814 H 0.11164 0.3969 0.97594 0.0
H815 H 0.11395 0.4533 -0.00363 0.0
C816 C 0.17304 0.53365 0.09011 0.0
C817 C 0.14675 0.54607 0.09873 0.0
C818 C 0.1809 0.53813 0.06782 0.0
C819 C 0.16237 0.55479 0.05372 0.0
C820 C 0.13425 0.56473 0.06233 0.0
C821 C 0.12704 0.561 0.08443 0.0
C822 C 0.17225 0.56259 0.03014 0.0
C823 C 0.16914 0.53068 0.01751 0.0
C824 C 0.18222 0.60083 0.01977 0.0
C825 C 0.1906 0.63751 0.03218 0.0
C826 C 0.16904 0.65864 0.02722 0.0
C827 C 0.1767 0.6929 0.03908 0.0
C828 C 0.20599 0.70647 0.05589 0.0
C829 C 0.22778 0.68587 0.06084 0.0
C830 C 0.22029 0.65163 0.04902 0.0
C831 C 0.1367 0.55152 0.92673 0.0
C832 C 0.1626 0.58932 0.9161 0.0
C833 C 0.14322 0.54531 0.94852 0.0
C834 C 0.17661 0.57637 0.96024 0.0
C835 C 0.20444 0.6131 0.94909 0.0
C836 C 0.19744 0.61953 0.92727 0.0
C837 C 0.17946 0.5721 0.98436 0.0
C838 C 0.18495 0.60476 -0.00283 0.0
C839 C 0.17322 0.53511 0.99489 0.0
C840 C 0.17168 0.50093 0.98272 0.0
C841 C 0.20326 0.50886 0.96835 0.0
C842 C 0.20156 0.4767 0.95676 0.0
C843 C 0.16854 0.43639 0.95949 0.0
C844 C 0.1372 0.42814 0.97385 0.0
C845 C 0.13873 0.4602 0.98546 0.0
H846 H 0.16728 0.41154 0.95049 0.0
H847 H 0.21183 0.73297 0.06507 0.0
H848 H 0.7268 0.11877 0.43413 0.0
H849 H 0.73093 0.12902 0.39502 0.0
H850 H 0.62109 1.00986 0.38732 0.0
H851 H 0.61645 0.99965 0.42641 0.0
H852 H 0.74118 0.09093 0.36278 0.0
H853 H 0.56498 1.01139 0.34378 0.0
H854 H 0.50119 0.99949 0.3609 0.0
H855 H 0.57204 0.10705 0.3992 0.0
H856 H 0.63616 0.11993 0.3821 0.0
H857 H 0.68773 1.02959 0.25359 0.0
H858 H 0.70026 1.03929 0.29243 0.0
H859 H 0.66051 0.12941 0.28951 0.0
H860 H 0.64774 0.11909 0.25051 0.0
H861 H 0.61965 0.07339 0.31962 0.0
H862 H 0.76179 0.15633 0.30292 0.0
H863 H 0.82749 0.17456 0.28576 0.0
H864 H 0.82895 0.07266 0.31883 0.0
H865 H 0.76287 1.05337 0.33594 0.0
C866 C 0.70346 0.09468 0.42416 0.0
C867 C 0.67112 1.05843 0.43358 0.0
C868 C 0.70596 0.10056 0.40171 0.0
C869 C 0.67609 0.07051 0.38803 0.0
C870 C 0.6442 1.03396 0.3974 0.0
C871 C 0.64167 1.02805 0.41984 0.0
C872 C 0.67807 0.07739 0.36405 0.0
C873 C 0.71458 0.08709 0.35337 0.0
C874 C 0.64387 0.07356 0.35161 0.0
C875 C 0.60541 0.06637 0.36179 0.0
C876 C 0.56692 1.03259 0.35579 0.0
C877 C 0.53071 1.02566 0.3655 0.0
C878 C 0.53257 1.05242 0.38117 0.0
C879 C 0.57065 0.08626 0.38711 0.0
C880 C 0.60694 0.09336 0.37743 0.0
C881 C 0.68358 1.05284 0.26115 0.0
C882 C 0.66766 0.07426 0.24903 0.0
C883 C 0.69038 1.05818 0.28341 0.0
C884 C 0.68136 0.08513 0.29412 0.0
C885 C 0.66772 0.10841 0.28175 0.0
C886 C 0.66107 0.1031 0.25941 0.0
C887 C 0.68239 0.08581 0.31827 0.0
C888 C 0.64637 0.07743 0.329 0.0
C889 C 0.71729 0.09163 0.33075 0.0
C890 C 0.75718 0.10322 0.3206 0.0
C891 C 0.77595 0.13761 0.30642 0.0
C892 C 0.81329 0.14816 0.29671 0.0
C893 C 0.83235 0.12474 0.30117 0.0
C894 C 0.81413 0.09076 0.31538 0.0
C895 C 0.77675 0.08003 0.32511 0.0
H896 H 0.86126 0.13296 0.29364 0.0
H897 H 0.50451 1.04698 0.38868 0.0
H898 H 0.65354 0.5534 0.77095 0.0
H899 H 0.65729 0.55002 0.7318 0.0
H900 H 0.59568 0.62083 0.72255 0.0
H901 H 0.59325 0.62544 0.76145 0.0
H902 H 0.60709 0.51946 0.70016 0.0
H903 H 0.62358 0.67818 0.67606 0.0
H904 H 0.65113 0.7474 0.69122 0.0
H905 H 0.73462 0.72785 0.73223 0.0
H906 H 0.70805 0.65878 0.71712 0.0
H907 H 0.57727 0.51911 0.58837 0.0
H908 H 0.57184 0.53083 0.62639 0.0
H909 H 0.70073 0.6255 0.62762 0.0
H910 H 0.70555 0.61409 0.58931 0.0
H911 H 0.65967 0.64598 0.65391 0.0
H912 H 0.66879 0.52389 0.64508 0.0
H913 H 0.64892 0.45572 0.63059 0.0
H914 H 0.5273 0.40497 0.65635 0.0
H915 H 0.54648 0.47286 0.67103 0.0
C916 C 0.64055 0.56797 0.76056 0.0
C917 C 0.62339 0.58994 0.76943 0.0
C918 C 0.64277 0.56614 0.7381 0.0
C919 C 0.62766 0.58598 0.72392 0.0
C920 C 0.60883 0.60631 0.73287 0.0
C921 C 0.60713 0.60862 0.75525 0.0
C922 C 0.63137 0.58524 0.69991 0.0
C923 C 0.61858 0.54725 0.69016 0.0
C924 C 0.64692 0.62141 0.68653 0.0
C925 C 0.66352 0.66312 0.69557 0.0
C926 C 0.64797 0.68873 0.68823 0.0
C927 C 0.66344 0.72795 0.6968 0.0
C928 C 0.69468 0.74204 0.71263 0.0
C929 C 0.71047 0.71691 0.71995 0.0
C930 C 0.69517 0.67769 0.71141 0.0
C931 C 0.60399 0.54331 0.59665 0.0
C932 C 0.64174 0.56584 0.58594 0.0
C933 C 0.6011 0.54968 0.61846 0.0
C934 C 0.63617 0.57828 0.63024 0.0
C935 C 0.67323 0.60301 0.61908 0.0
C936 C 0.67599 0.59677 0.59715 0.0
C937 C 0.63478 0.58016 0.6543 0.0
C938 C 0.64803 0.61829 0.664 0.0
C939 C 0.62055 0.54432 0.66775 0.0
C940 C 0.60896 0.50349 0.65899 0.0
C941 C 0.63776 0.49822 0.64757 0.0
C942 C 0.62665 0.45963 0.63936 0.0
C943 C 0.58682 0.4261 0.64246 0.0
C944 C 0.55811 0.431 0.65392 0.0
C945 C 0.56912 0.46948 0.66225 0.0
H946 H 0.57826 0.39629 0.63603 0.0
H947 H 0.70653 0.77237 0.71928 0.0
H948 H 0.60036 0.9859 0.56757 0.0
H949 H 0.57762 0.99182 0.60289 0.0
H950 H 0.68229 0.11526 0.60809 0.0
H951 H 0.70562 0.10907 0.57252 0.0
H952 H 0.65122 0.06247 0.6495 0.0
H953 H 0.60897 0.11849 0.59019 0.0
H954 H 0.58374 0.11825 0.55303 0.0
H955 H 0.47031 1.0062 0.5671 0.0
H956 H 0.49526 1.00531 0.60427 0.0
H957 H 0.53019 0.08405 0.72847 0.0
H958 H 0.57546 0.10203 0.69765 0.0
H959 H 0.47913 0.99728 0.66382 0.0
H960 H 0.43282 0.98146 0.69406 0.0
H961 H 0.51706 1.05765 0.63682 0.0
H962 H 0.56419 1.00112 0.69658 0.0
H963 H 0.5937 1.0022 0.73287 0.0
H964 H 0.701 0.11889 0.71786 0.0
H965 H 0.67221 0.11883 0.68161 0.0
C966 C 0.61948 1.01357 0.57668 0.0
C967 C 0.65466 1.047 0.56754 0.0
C968 C 0.60643 1.017 0.59678 0.0
C969 C 0.62798 1.05418 0.60785 0.0
C970 C 0.66541 0.08632 0.59972 0.0
C971 C 0.67877 0.08272 0.57953 0.0
C972 C 0.60737 1.06093 0.6258 0.0
C973 C 0.62233 0.06234 0.64685 0.0
C974 C 0.56981 1.06081 0.62212 0.0
C975 C 0.55408 1.06175 0.59998 0.0
C976 C 0.57875 0.09366 0.58533 0.0
C977 C 0.56452 0.09372 0.56427 0.0
C978 C 0.52548 0.06221 0.55772 0.0
C979 C 0.50055 1.03058 0.57221 0.0
C980 C 0.51471 1.03031 0.59329 0.0
C981 C 0.51822 0.06594 0.71409 0.0
C982 C 0.47776 1.03181 0.71338 0.0
C983 C 0.5444 0.07568 0.69667 0.0
C984 C 0.53113 1.05044 0.67858 0.0
C985 C 0.49022 1.01714 0.67762 0.0
C986 C 0.46374 1.00806 0.69482 0.0
C987 C 0.55977 1.05732 0.6609 0.0
C988 C 0.54635 1.05869 0.63969 0.0
C989 C 0.59895 1.06042 0.66454 0.0
C990 C 0.61588 1.0601 0.68642 0.0
C991 C 0.59401 1.02704 0.70103 0.0
C992 C 0.61057 1.02746 0.72158 0.0
C993 C 0.64905 1.06055 0.72764 0.0
C994 C 0.67115 0.09329 0.71316 0.0
C995 C 0.65476 0.09308 0.69261 0.0
H996 H 0.66176 1.06077 0.74356 0.0
H997 H 0.51453 0.06241 0.54144 0.0
H998 H 0.59166 0.62629 0.90412 0.0
H999 H 0.59974 0.65108 0.94085 0.0
H1000 H 0.73095 0.72929 0.93182 0.0
H1001 H 0.72307 0.70555 0.89473 0.0
H1002 H 0.68404 0.6576 0.97212 0.0
H1003 H 0.71142 0.78731 0.93525 0.0
H1004 H 0.69326 0.82581 0.9083 0.0
H1005 H 0.57491 0.77909 0.93742 0.0
H1006 H 0.59221 0.73981 0.96434 0.0
H1007 H 0.71869 0.80043 0.06684 0.0
H1008 H 0.71991 0.79129 0.02784 0.0
H1009 H 0.61692 0.66683 0.03434 0.0
H1010 H 0.61566 0.67638 0.07308 0.0
H1011 H 0.65782 0.76831 0.99449 0.0
H1012 H 0.63636 0.60598 0.00393 0.0
H1013 H 0.64948 0.56352 0.03072 0.0
H1014 H 0.75325 0.67306 0.05629 0.0
H1015 H 0.74078 0.71601 0.02968 0.0
C1016 C 0.62223 0.64891 0.9099 0.0
C1017 C 0.65679 0.66396 0.89661 0.0
C1018 C 0.62671 0.66313 0.93081 0.0
C1019 C 0.66583 0.69216 0.93883 0.0
C1020 C 0.70047 0.70717 0.92571 0.0
C1021 C 0.69591 0.69357 0.90461 0.0
C1022 C 0.67046 0.70482 0.96139 0.0
C1023 C 0.67871 0.68204 0.97705 0.0
C1024 C 0.66316 0.73646 0.96764 0.0
C1025 C 0.65292 0.7603 0.95162 0.0
C1026 C 0.68137 0.78491 0.93575 0.0
C1027 C 0.67128 0.80696 0.92052 0.0
C1028 C 0.6329 0.80479 0.92111 0.0
C1029 C 0.6046 0.78069 0.93697 0.0
C1030 C 0.61454 0.75856 0.95222 0.0
C1031 C 0.69608 0.77152 0.0597 0.0
C1032 C 0.66721 0.73897 0.07265 0.0
C1033 C 0.69676 0.76626 0.03758 0.0
C1034 C 0.66879 0.72824 0.02831 0.0
C1035 C 0.63907 0.69622 0.04124 0.0
C1036 C 0.63835 0.70157 0.06326 0.0
C1037 C 0.67158 0.72114 0.00533 0.0
C1038 C 0.66406 0.74447 0.9896 0.0
C1039 C 0.67931 0.68974 -0.00102 0.0
C1040 C 0.68749 0.66418 0.01489 0.0
C1041 C 0.66206 0.62094 0.01524 0.0
C1042 C 0.6693 0.59679 0.03044 0.0
C1043 C 0.70205 0.61553 0.04527 0.0
C1044 C 0.7277 0.65849 0.04492 0.0
C1045 C 0.72052 0.68279 0.02981 0.0
H1046 H 0.70754 0.59668 0.05697 0.0
H1047 H 0.62514 0.82188 0.90931 0.0
H1048 H 1.04938 0.54346 0.22853 0.0
H1049 H 1.04698 0.56267 0.26541 0.0
H1050 H 0.17923 0.61609 0.272 0.0
H1051 H 0.18193 0.59659 0.23514 0.0
H1052 H 1.07539 0.54297 0.3054 0.0
H1053 H 0.21159 0.70787 0.30128 0.0
H1054 H 0.25311 0.76181 0.27428 0.0
H1055 H 0.14781 0.71524 0.23124 0.0
H1056 H 0.10545 0.66162 0.25816 0.0
H1057 H 0.14221 0.70568 0.39646 0.0
H1058 H 0.15729 0.67996 0.36421 0.0
H1059 H 1.02697 0.61173 0.34814 0.0
H1060 H 1.01218 0.63929 0.37976 0.0
H1061 H 0.1396 0.69183 0.32156 0.0
H1062 H 1.01048 0.51481 0.32684 0.0
H1063 H 0.98037 0.45793 0.3538 0.0
H1064 H 1.08255 0.52758 0.39702 0.0
H1065 H 0.11395 0.58434 0.37017 0.0
C1066 C 1.07793 0.55901 0.23787 0.0
C1067 C 0.11585 0.56868 0.22891 0.0
C1068 C 1.07646 0.56978 0.25895 0.0
C1069 C 0.11293 0.59097 0.27133 0.0
C1070 C 0.15078 0.5999 0.26263 0.0
C1071 C 0.15222 0.58865 0.24161 0.0
C1072 C 0.1112 0.60515 0.29297 0.0
C1073 C 1.08887 0.57545 0.30897 0.0
C1074 C 0.13085 0.6476 0.29777 0.0
C1075 C 0.15553 0.6804 0.28164 0.0
C1076 C 0.19726 0.70928 0.28609 0.0
C1077 C 0.22092 0.73983 0.27081 0.0
C1078 C 0.20317 0.74182 0.25101 0.0
C1079 C 0.16159 0.71353 0.24654 0.0
C1080 C 0.13773 0.68306 0.26181 0.0
C1081 C 0.117 0.68608 0.38571 0.0
C1082 C 1.07617 0.67553 0.39011 0.0
C1083 C 0.12554 0.67093 0.36752 0.0
C1084 C 0.09324 0.64388 0.35385 0.0
C1085 C 1.05232 0.63238 0.35856 0.0
C1086 C 1.04391 0.64826 0.37648 0.0
C1087 C 0.10224 0.62955 0.33391 0.0
C1088 C 0.12606 0.65926 0.31819 0.0
C1089 C 1.08473 0.58703 0.32958 0.0
C1090 C 1.06437 0.55425 0.34649 0.0
C1091 C 1.02656 0.51809 0.3421 0.0
C1092 C 1.00942 0.48567 0.35731 0.0
C1093 C 1.02956 0.48911 0.37711 0.0
C1094 C 1.06686 0.52503 0.38173 0.0
C1095 C 1.08432 0.55739 0.36651 0.0
H1096 H 1.01612 0.46409 0.38892 0.0
H1097 H 0.22162 0.76534 0.23916 0.0
loop_
_geom_bond_atom_site_label_1
_geom_bond_atom_site_label_2
_geom_bond_distance
_geom_bond_site_symmetry_2
_ccdc_geom_bond_type
Tb0 C10 2.825 . S
Tb0 O11 2.347 . S
Tb0 O14 2.366 . S
Tb0 O19 2.418 . S
Tb0 O20 2.384 1_455 S
Tb0 O23 2.479 . S
Tb0 O24 2.471 . S
Eu1 O12 2.418 . S
Eu1 O13 2.384 1_655 S
Eu1 O16 2.479 . S
Eu1 O17 2.471 . S
Eu1 O18 2.347 . S
Eu1 O21 2.366 . S
Eu1 C31 2.825 . S
C2 O18 1.259 1_455 S
C2 O19 1.265 . S
C3 O20 1.255 . S
C3 O21 1.265 . S
C4 C6 1.380 . S
C4 C7 1.374 . S
C4 C10 1.507 . S
C5 C6 1.384 . S
C5 C9 1.387 . S
C5 H32 0.930 . S
C6 C4 1.380 . S
C6 C5 1.384 . S
C6 H33 0.931 . S
C7 C4 1.374 . S
C7 C8 1.390 . S
C7 H34 0.930 . S
C8 C7 1.390 . S
C8 C9 1.391 . S
C8 H35 0.930 . S
C9 C5 1.387 . S
C9 C8 1.391 . S
C10 Tb0 2.825 . S
C10 C4 1.507 . S
C10 O23 1.238 . S
C10 O24 1.247 . S
O11 Tb0 2.347 . S
O11 C15 1.266 . S
O12 Eu1 2.418 . S
O12 C15 1.249 1_655 S
O13 Eu1 2.384 1_455 S
O13 C22 1.255 . S
O14 Tb0 2.366 . S
O14 C22 1.265 . S
C15 O11 1.266 . S
C15 O12 1.249 1_455 S
O16 Eu1 2.479 . S
O16 C31 1.238 . S
O17 Eu1 2.471 . S
O17 C31 1.247 . S
O18 Eu1 2.347 . S
O18 C2 1.259 1_655 S
O19 Tb0 2.418 . S
O19 C2 1.265 . S
O20 Tb0 2.384 1_655 S
O20 C3 1.255 . S
O21 Eu1 2.366 . S
O21 C3 1.265 . S
C22 O13 1.255 . S
C22 O14 1.265 . S
O23 Tb0 2.479 . S
O23 C10 1.238 . S
O24 Tb0 2.471 . S
O24 C10 1.247 . S
C25 C28 1.380 . S
C25 C29 1.374 . S
C25 C31 1.507 . S
C26 C27 1.387 . S
C26 C30 1.391 . S
C27 C26 1.387 . S
C27 C28 1.384 . S
C27 H36 0.930 . S
C28 C25 1.380 . S
C28 C27 1.384 . S
C28 H37 0.931 . S
C29 C25 1.374 . S
C29 C30 1.390 . S
C29 H38 0.930 . S
C30 C26 1.391 . S
C30 C29 1.390 . S
C30 H39 0.930 . S
C31 Eu1 2.825 . S
C31 O16 1.238 . S
C31 O17 1.247 . S
C31 C25 1.507 . S
H32 C5 0.930 . S
H33 C6 0.931 . S
H34 C7 0.930 . S
H35 C8 0.930 . S
H36 C27 0.930 . S
H37 C28 0.931 . S
H38 C29 0.930 . S
H39 C30 0.930 . S
Tb40 C50 2.825 . S
Tb40 O51 2.347 . S
Tb40 O54 2.366 . S
Tb40 O59 2.418 . S
Tb40 O60 2.384 . S
Tb40 O63 2.479 . S
Tb40 O64 2.471 . S
Eu41 O52 2.418 . S
Eu41 O53 2.384 . S
Eu41 O56 2.479 1_545 S
Eu41 O57 2.471 1_545 S
Eu41 O58 2.347 . S
Eu41 O61 2.366 1_545 S
Eu41 C71 2.825 1_545 S
C42 O58 1.259 . S
C42 O59 1.265 . S
C43 O60 1.255 1_565 S
C43 O61 1.265 . S
C44 C46 1.380 . S
C44 C47 1.374 . S
C44 C50 1.507 . S
C45 C46 1.384 . S
C45 C49 1.387 . S
C45 H72 0.930 . S
C46 C44 1.380 . S
C46 C45 1.384 . S
C46 H73 0.931 . S
C47 C44 1.374 . S
C47 C48 1.390 . S
C47 H74 0.930 . S
C48 C47 1.390 . S
C48 C49 1.391 . S
C48 H75 0.930 . S
C49 C45 1.387 . S
C49 C48 1.391 . S
C50 Tb40 2.825 . S
C50 C44 1.507 . S
C50 O63 1.238 . S
C50 O64 1.247 . S
O51 Tb40 2.347 . S
O51 C55 1.259 . S
O52 Eu41 2.418 . S
O52 C55 1.265 . S
O53 Eu41 2.384 . S
O53 C62 1.255 . S
O54 Tb40 2.366 . S
O54 C62 1.265 . S
C55 O51 1.259 . S
C55 O52 1.265 . S
O56 Eu41 2.479 1_565 S
O56 C71 1.238 . S
O57 Eu41 2.471 1_565 S
O57 C71 1.247 . S
O58 Eu41 2.347 . S
O58 C42 1.259 . S
O59 Tb40 2.418 . S
O59 C42 1.265 . S
O60 Tb40 2.384 . S
O60 C43 1.255 1_545 S
O61 Eu41 2.366 1_565 S
O61 C43 1.265 . S
C62 O53 1.255 . S
C62 O54 1.265 . S
O63 Tb40 2.479 . S
O63 C50 1.238 . S
O64 Tb40 2.471 . S
O64 C50 1.247 . S
C65 C68 1.380 . S
C65 C69 1.374 . S
C65 C71 1.507 . S
C66 C67 1.387 . S
C66 C70 1.391 . S
C67 C66 1.387 . S
C67 C68 1.384 . S
C67 H76 0.930 . S
C68 C65 1.380 . S
C68 C67 1.384 . S
C68 H77 0.931 . S
C69 C65 1.374 . S
C69 C70 1.390 . S
C69 H78 0.930 . S
C70 C66 1.391 . S
C70 C69 1.390 . S
C70 H79 0.930 . S
C71 Eu41 2.825 1_565 S
C71 O56 1.238 . S
C71 O57 1.247 . S
C71 C65 1.507 . S
H72 C45 0.930 . S
H73 C46 0.931 . S
H74 C47 0.930 . S
H75 C48 0.930 . S
H76 C67 0.930 . S
H77 C68 0.931 . S
H78 C69 0.930 . S
H79 C70 0.930 . S
Tb80 C90 2.825 . S
Tb80 O91 2.347 . S
Tb80 O94 2.366 . S
Tb80 O99 2.418 . S
Tb80 O100 2.384 . S
Tb80 O103 2.479 . S
Tb80 O104 2.471 . S
Eu81 O92 2.418 . S
Eu81 O93 2.384 . S
Eu81 O96 2.479 . S
Eu81 O97 2.471 . S
Eu81 O98 2.347 . S
Eu81 O101 2.366 . S
Eu81 C111 2.825 . S
C82 O98 1.259 . S
C82 O99 1.265 . S
C83 O100 1.255 . S
C83 O101 1.265 . S
C84 C86 1.380 . S
C84 C87 1.374 . S
C84 C90 1.507 . S
C85 C86 1.384 . S
C85 C89 1.387 . S
C85 H112 0.930 . S
C86 C84 1.380 . S
C86 C85 1.384 . S
C86 H113 0.931 . S
C87 C84 1.374 . S
C87 C88 1.390 . S
C87 H114 0.930 . S
C88 C87 1.390 . S
C88 C89 1.391 . S
C88 H115 0.930 . S
C89 C85 1.387 . S
C89 C88 1.391 . S
C90 Tb80 2.825 . S
C90 C84 1.507 . S
C90 O103 1.238 . S
C90 O104 1.247 . S
O91 Tb80 2.347 . S
O91 C95 1.259 . S
O92 Eu81 2.418 . S
O92 C95 1.265 . S
O93 Eu81 2.384 . S
O93 C102 1.255 . S
O94 Tb80 2.366 . S
O94 C102 1.265 . S
C95 O91 1.259 . S
C95 O92 1.265 . S
O96 Eu81 2.479 . S
O96 C111 1.238 . S
O97 Eu81 2.471 . S
O97 C111 1.247 . S
O98 Eu81 2.347 . S
O98 C82 1.259 . S
O99 Tb80 2.418 . S
O99 C82 1.265 . S
O100 Tb80 2.384 . S
O100 C83 1.255 . S
O101 Eu81 2.366 . S
O101 C83 1.265 . S
C102 O93 1.255 . S
C102 O94 1.265 . S
O103 Tb80 2.479 . S
O103 C90 1.238 . S
O104 Tb80 2.471 . S
O104 C90 1.247 . S
C105 C108 1.380 . S
C105 C109 1.374 . S
C105 C111 1.507 . S
C106 C107 1.387 . S
C106 C110 1.391 . S
C107 C106 1.387 . S
C107 C108 1.384 . S
C107 H116 0.930 . S
C108 C105 1.380 . S
C108 C107 1.384 . S
C108 H117 0.931 . S
C109 C105 1.374 . S
C109 C110 1.390 . S
C109 H118 0.930 . S
C110 C106 1.391 . S
C110 C109 1.390 . S
C110 H119 0.930 . S
C111 Eu81 2.825 . S
C111 O96 1.238 . S
C111 O97 1.247 . S
C111 C105 1.507 . S
H112 C85 0.930 . S
H113 C86 0.931 . S
H114 C87 0.930 . S
H115 C88 0.930 . S
H116 C107 0.930 . S
H117 C108 0.931 . S
H118 C109 0.930 . S
H119 C110 0.930 . S
C120 N121 1.317 1_565 S
C120 N122 1.348 . S
C120 C123 1.485 1_565 S
N121 C120 1.317 1_545 S
N121 N125 1.370 . S
N122 C120 1.348 . S
N122 C124 1.346 . S
C123 C120 1.485 1_545 S
C123 H127 0.960 . S
C123 H128 0.961 1_545 S
C123 H129 0.960 . S
C124 N122 1.346 . S
C124 N125 1.307 1_565 S
C124 C126 1.486 . S
N125 N121 1.370 . S
N125 C124 1.307 1_545 S
C126 C124 1.486 . S
C126 H130 0.960 . S
C126 H131 0.960 . S
C126 H132 0.959 . S
H127 C123 0.960 . S
H128 C123 0.961 1_565 S
H129 C123 0.960 . S
H130 C126 0.960 . S
H131 C126 0.960 . S
H132 C126 0.959 . S
C133 N134 1.317 . S
C133 N135 1.348 . S
C133 C136 1.485 . S
N134 C133 1.317 . S
N134 N138 1.370 . S
N135 C133 1.348 . S
N135 C137 1.346 . S
C136 C133 1.485 . S
C136 H140 0.960 . S
C136 H141 0.961 . S
C136 H142 0.960 . S
C137 N135 1.346 . S
C137 N138 1.307 . S
C137 C139 1.486 . S
N138 N134 1.370 . S
N138 C137 1.307 . S
C139 C137 1.486 . S
C139 H143 0.960 . S
C139 H144 0.960 . S
C139 H145 0.959 . S
H140 C136 0.960 . S
H141 C136 0.961 . S
H142 C136 0.960 . S
H143 C139 0.960 . S
H144 C139 0.960 . S
H145 C139 0.959 . S
C146 N147 1.317 . S
C146 N148 1.348 1_455 S
C146 C149 1.485 . S
N147 C146 1.317 . S
N147 N151 1.370 . S
N148 C146 1.348 1_655 S
N148 C150 1.346 . S
C149 C146 1.485 . S
C149 H153 0.960 . S
C149 H154 0.961 . S
C149 H155 0.960 . S
C150 N148 1.346 . S
C150 N151 1.307 1_655 S
C150 C152 1.486 . S
N151 N147 1.370 . S
N151 C150 1.307 1_455 S
C152 C150 1.486 . S
C152 H156 0.960 . S
C152 H157 0.960 . S
C152 H158 0.959 . S
H153 C149 0.960 . S
H154 C149 0.961 . S
H155 C149 0.960 . S
H156 C152 0.960 . S
H157 C152 0.960 . S
H158 C152 0.959 . S
C159 N160 1.317 . S
C159 N161 1.348 . S
C159 C162 1.485 . S
N160 C159 1.317 . S
N160 N164 1.370 . S
N161 C159 1.348 . S
N161 C163 1.346 . S
C162 C159 1.485 . S
C162 H166 0.960 . S
C162 H167 0.961 . S
C162 H168 0.960 . S
C163 N161 1.346 . S
C163 N164 1.307 . S
C163 C165 1.486 . S
N164 N160 1.370 . S
N164 C163 1.307 . S
C165 C163 1.486 . S
C165 H169 0.960 . S
C165 H170 0.960 . S
C165 H171 0.959 . S
H166 C162 0.960 . S
H167 C162 0.961 . S
H168 C162 0.960 . S
H169 C165 0.960 . S
H170 C165 0.960 . S
H171 C165 0.959 . S
C172 N173 1.317 . S
C172 N174 1.348 . S
C172 C175 1.485 . S
N173 C172 1.317 . S
N173 N177 1.370 . S
N174 C172 1.348 . S
N174 C176 1.346 . S
C175 C172 1.485 . S
C175 H179 0.960 . S
C175 H180 0.961 . S
C175 H181 0.960 . S
C176 N174 1.346 . S
C176 N177 1.307 . S
C176 C178 1.486 . S
N177 N173 1.370 . S
N177 C176 1.307 . S
C178 C176 1.486 . S
C178 H182 0.960 . S
C178 H183 0.960 . S
C178 H184 0.959 . S
H179 C175 0.960 . S
H180 C175 0.961 . S
H181 C175 0.960 . S
H182 C178 0.960 . S
H183 C178 0.960 . S
H184 C178 0.959 . S
C185 N186 1.317 . S
C185 N187 1.348 . S
C185 C188 1.485 . S
N186 C185 1.317 . S
N186 N190 1.370 . S
N187 C185 1.348 . S
N187 C189 1.346 . S
C188 C185 1.485 . S
C188 H192 0.960 . S
C188 H193 0.961 . S
C188 H194 0.960 . S
C189 N187 1.346 . S
C189 N190 1.307 . S
C189 C191 1.486 . S
N190 N186 1.370 . S
N190 C189 1.307 . S
C191 C189 1.486 . S
C191 H195 0.960 . S
C191 H196 0.960 . S
C191 H197 0.959 . S
H192 C188 0.960 . S
H193 C188 0.961 . S
H194 C188 0.960 . S
H195 C191 0.960 . S
H196 C191 0.960 . S
H197 C191 0.959 . S
H198 C216 0.951 . S
H199 C218 0.951 . S
H200 C220 0.950 . S
H201 C221 0.950 . S
H202 C223 0.950 . S
H203 C226 0.950 . S
H204 C227 0.950 . S
H205 C229 0.950 . S
H206 C230 0.950 . S
H207 C231 0.951 . S
H208 C233 0.951 . S
H209 C235 0.950 . S
H210 C236 0.950 . S
H211 C238 0.950 . S
H212 C241 0.950 . S
H213 C242 0.950 . S
H214 C244 0.950 . S
H215 C245 0.950 . S
C216 H198 0.951 . S
C216 C217 1.366 . S
C216 C218 1.388 . S
C217 C216 1.366 . S
C217 C221 1.385 . S
C218 H199 0.951 . S
C218 C216 1.388 . S
C218 C219 1.366 . S
C219 C218 1.366 . S
C219 C220 1.414 . S
C219 C222 1.499 . S
C220 H200 0.950 . S
C220 C219 1.414 . S
C220 C221 1.374 . S
C221 H201 0.950 . S
C221 C217 1.385 . S
C221 C220 1.374 . S
C222 C219 1.499 . S
C222 C223 1.373 . S
C222 C224 1.389 . S
C223 H202 0.950 . S
C223 C222 1.373 . S
C223 C239 1.377 . S
C224 C222 1.389 . S
C224 C225 1.524 . S
C224 C238 1.377 . S
C225 C224 1.524 . S
C225 C226 1.397 . S
C225 C230 1.363 . S
C226 H203 0.950 . S
C226 C225 1.397 . S
C226 C227 1.334 . S
C227 H204 0.950 . S
C227 C226 1.334 . S
C227 C228 1.287 . S
C228 C227 1.287 . S
C228 C229 1.524 . S
C228 H247 0.913 . S
C229 H205 0.950 . S
C229 C228 1.524 . S
C229 C230 1.415 . S
C230 H206 0.950 . S
C230 C225 1.363 . S
C230 C229 1.415 . S
C231 H207 0.951 . S
C231 C232 1.366 . S
C231 C233 1.388 . S
C232 C231 1.366 . S
C232 C236 1.385 . S
C233 H208 0.951 . S
C233 C231 1.388 . S
C233 C234 1.366 . S
C234 C233 1.366 . S
C234 C235 1.414 . S
C234 C237 1.499 . S
C235 H209 0.950 . S
C235 C234 1.414 . S
C235 C236 1.374 . S
C236 H210 0.950 . S
C236 C232 1.385 . S
C236 C235 1.374 . S
C237 C234 1.499 . S
C237 C238 1.373 . S
C237 C239 1.389 . S
C238 H211 0.950 . S
C238 C224 1.377 . S
C238 C237 1.373 . S
C239 C223 1.377 . S
C239 C237 1.389 . S
C239 C240 1.524 . S
C240 C239 1.524 . S
C240 C241 1.397 . S
C240 C245 1.363 . S
C241 H212 0.950 . S
C241 C240 1.397 . S
C241 C242 1.334 . S
C242 H213 0.950 . S
C242 C241 1.334 . S
C242 C243 1.287 . S
C243 C242 1.287 . S
C243 C244 1.524 . S
C243 H246 0.999 . S
C244 H214 0.950 . S
C244 C243 1.524 . S
C244 C245 1.415 . S
C245 H215 0.950 . S
C245 C240 1.363 . S
C245 C244 1.415 . S
H246 C243 0.999 . S
H247 C228 0.913 . S
H248 C266 0.951 . S
H249 C268 0.951 . S
H250 C270 0.950 . S
H251 C271 0.950 . S
H252 C273 0.950 . S
H253 C276 0.950 . S
H254 C277 0.950 . S
H255 C279 0.950 . S
H256 C280 0.950 . S
H257 C281 0.951 . S
H258 C283 0.951 . S
H259 C285 0.950 . S
H260 C286 0.950 . S
H261 C288 0.950 . S
H262 C291 0.950 . S
H263 C292 0.950 . S
H264 C294 0.950 . S
H265 C295 0.950 . S
C266 H248 0.951 . S
C266 C267 1.366 . S
C266 C268 1.388 . S
C267 C266 1.366 . S
C267 C271 1.385 . S
C268 H249 0.951 . S
C268 C266 1.388 . S
C268 C269 1.366 . S
C269 C268 1.366 . S
C269 C270 1.414 . S
C269 C272 1.499 . S
C270 H250 0.950 . S
C270 C269 1.414 . S
C270 C271 1.374 . S
C271 H251 0.950 . S
C271 C267 1.385 . S
C271 C270 1.374 . S
C272 C269 1.499 . S
C272 C273 1.373 . S
C272 C274 1.389 . S
C273 H252 0.950 . S
C273 C272 1.373 . S
C273 C289 1.377 . S
C274 C272 1.389 . S
C274 C275 1.524 . S
C274 C288 1.377 . S
C275 C274 1.524 . S
C275 C276 1.397 . S
C275 C280 1.363 . S
C276 H253 0.950 . S
C276 C275 1.397 . S
C276 C277 1.334 . S
C277 H254 0.950 . S
C277 C276 1.334 . S
C277 C278 1.287 . S
C278 C277 1.287 . S
C278 C279 1.524 . S
C278 H297 0.913 . S
C279 H255 0.950 . S
C279 C278 1.524 . S
C279 C280 1.415 . S
C280 H256 0.950 . S
C280 C275 1.363 . S
C280 C279 1.415 . S
C281 H257 0.951 . S
C281 C282 1.366 1_655 S
C281 C283 1.388 . S
C282 C281 1.366 1_455 S
C282 C286 1.385 . S
C283 H258 0.951 . S
C283 C281 1.388 . S
C283 C284 1.366 . S
C284 C283 1.366 . S
C284 C285 1.414 . S
C284 C287 1.499 . S
C285 H259 0.950 . S
C285 C284 1.414 . S
C285 C286 1.374 1_655 S
C286 H260 0.950 . S
C286 C282 1.385 . S
C286 C285 1.374 1_455 S
C287 C284 1.499 . S
C287 C288 1.373 . S
C287 C289 1.389 . S
C288 H261 0.950 . S
C288 C274 1.377 . S
C288 C287 1.373 . S
C289 C273 1.377 . S
C289 C287 1.389 . S
C289 C290 1.524 . S
C290 C289 1.524 . S
C290 C291 1.397 . S
C290 C295 1.363 . S
C291 H262 0.950 . S
C291 C290 1.397 . S
C291 C292 1.334 . S
C292 H263 0.950 . S
C292 C291 1.334 . S
C292 C293 1.287 . S
C293 C292 1.287 . S
C293 C294 1.524 . S
C293 H296 0.999 . S
C294 H264 0.950 . S
C294 C293 1.524 . S
C294 C295 1.415 . S
C295 H265 0.950 . S
C295 C290 1.363 . S
C295 C294 1.415 . S
H296 C293 0.999 . S
H297 C278 0.913 . S
H298 C316 0.951 . S
H299 C318 0.951 . S
H300 C320 0.950 . S
H301 C321 0.950 . S
H302 C323 0.950 . S
H303 C326 0.950 . S
H304 C327 0.950 . S
H305 C329 0.950 . S
H306 C330 0.950 . S
H307 C331 0.951 . S
H308 C333 0.951 . S
H309 C335 0.950 . S
H310 C336 0.950 . S
H311 C338 0.950 . S
H312 C341 0.950 . S
H313 C342 0.950 . S
H314 C344 0.950 . S
H315 C345 0.950 . S
C316 H298 0.951 . S
C316 C317 1.366 . S
C316 C318 1.388 . S
C317 C316 1.366 . S
C317 C321 1.385 . S
C318 H299 0.951 . S
C318 C316 1.388 . S
C318 C319 1.366 . S
C319 C318 1.366 . S
C319 C320 1.414 . S
C319 C322 1.499 . S
C320 H300 0.950 . S
C320 C319 1.414 . S
C320 C321 1.374 . S
C321 H301 0.950 . S
C321 C317 1.385 . S
C321 C320 1.374 . S
C322 C319 1.499 . S
C322 C323 1.373 . S
C322 C324 1.389 . S
C323 H302 0.950 . S
C323 C322 1.373 . S
C323 C339 1.377 . S
C324 C322 1.389 . S
C324 C325 1.524 . S
C324 C338 1.377 . S
C325 C324 1.524 . S
C325 C326 1.397 . S
C325 C330 1.363 . S
C326 H303 0.950 . S
C326 C325 1.397 . S
C326 C327 1.334 . S
C327 H304 0.950 . S
C327 C326 1.334 . S
C327 C328 1.287 . S
C328 C327 1.287 . S
C328 C329 1.524 . S
C328 H347 0.913 . S
C329 H305 0.950 . S
C329 C328 1.524 . S
C329 C330 1.415 . S
C330 H306 0.950 . S
C330 C325 1.363 . S
C330 C329 1.415 . S
C331 H307 0.951 . S
C331 C332 1.366 1_565 S
C331 C333 1.388 . S
C332 C331 1.366 1_545 S
C332 C336 1.385 . S
C333 H308 0.951 . S
C333 C331 1.388 . S
C333 C334 1.366 . S
C334 C333 1.366 . S
C334 C335 1.414 . S
C334 C337 1.499 . S
C335 H309 0.950 . S
C335 C334 1.414 . S
C335 C336 1.374 1_565 S
C336 H310 0.950 . S
C336 C332 1.385 . S
C336 C335 1.374 1_545 S
C337 C334 1.499 . S
C337 C338 1.373 . S
C337 C339 1.389 . S
C338 H311 0.950 . S
C338 C324 1.377 . S
C338 C337 1.373 . S
C339 C323 1.377 . S
C339 C337 1.389 . S
C339 C340 1.524 . S
C340 C339 1.524 . S
C340 C341 1.397 . S
C340 C345 1.363 . S
C341 H312 0.950 . S
C341 C340 1.397 . S
C341 C342 1.334 . S
C342 H313 0.950 . S
C342 C341 1.334 . S
C342 C343 1.287 . S
C343 C342 1.287 . S
C343 C344 1.524 . S
C343 H346 0.999 . S
C344 H314 0.950 . S
C344 C343 1.524 . S
C344 C345 1.415 . S
C345 H315 0.950 . S
C345 C340 1.363 . S
C345 C344 1.415 . S
H346 C343 0.999 . S
H347 C328 0.913 . S
H348 C366 0.951 . S
H349 C368 0.951 . S
H350 C370 0.950 . S
H351 C371 0.950 . S
H352 C373 0.950 . S
H353 C376 0.950 . S
H354 C377 0.950 . S
H355 C379 0.950 . S
H356 C380 0.950 . S
H357 C381 0.951 . S
H358 C383 0.951 . S
H359 C385 0.950 . S
H360 C386 0.950 . S
H361 C388 0.950 . S
H362 C391 0.950 . S
H363 C392 0.950 . S
H364 C394 0.950 . S
H365 C395 0.950 . S
C366 H348 0.951 . S
C366 C367 1.366 . S
C366 C368 1.388 . S
C367 C366 1.366 . S
C367 C371 1.385 . S
C368 H349 0.951 . S
C368 C366 1.388 . S
C368 C369 1.366 . S
C369 C368 1.366 . S
C369 C370 1.414 . S
C369 C372 1.499 . S
C370 H350 0.950 . S
C370 C369 1.414 . S
C370 C371 1.374 . S
C371 H351 0.950 . S
C371 C367 1.385 . S
C371 C370 1.374 . S
C372 C369 1.499 . S
C372 C373 1.373 . S
C372 C374 1.389 . S
C373 H352 0.950 . S
C373 C372 1.373 . S
C373 C389 1.377 . S
C374 C372 1.389 . S
C374 C375 1.524 . S
C374 C388 1.377 . S
C375 C374 1.524 . S
C375 C376 1.397 . S
C375 C380 1.363 . S
C376 H353 0.950 . S
C376 C375 1.397 . S
C376 C377 1.334 . S
C377 H354 0.950 . S
C377 C376 1.334 . S
C377 C378 1.287 . S
C378 C377 1.287 . S
C378 C379 1.524 . S
C378 H397 0.913 . S
C379 H355 0.950 . S
C379 C378 1.524 . S
C379 C380 1.415 . S
C380 H356 0.950 . S
C380 C375 1.363 . S
C380 C379 1.415 . S
C381 H357 0.951 . S
C381 C382 1.366 . S
C381 C383 1.388 . S
C382 C381 1.366 . S
C382 C386 1.385 . S
C383 H358 0.951 . S
C383 C381 1.388 . S
C383 C384 1.366 . S
C384 C383 1.366 . S
C384 C385 1.414 . S
C384 C387 1.499 . S
C385 H359 0.950 . S
C385 C384 1.414 . S
C385 C386 1.374 . S
C386 H360 0.950 . S
C386 C382 1.385 . S
C386 C385 1.374 . S
C387 C384 1.499 . S
C387 C388 1.373 . S
C387 C389 1.389 . S
C388 H361 0.950 . S
C388 C374 1.377 . S
C388 C387 1.373 . S
C389 C373 1.377 . S
C389 C387 1.389 . S
C389 C390 1.524 . S
C390 C389 1.524 . S
C390 C391 1.397 . S
C390 C395 1.363 . S
C391 H362 0.950 . S
C391 C390 1.397 . S
C391 C392 1.334 . S
C392 H363 0.950 . S
C392 C391 1.334 . S
C392 C393 1.287 . S
C393 C392 1.287 . S
C393 C394 1.524 . S
C393 H396 0.999 . S
C394 H364 0.950 . S
C394 C393 1.524 . S
C394 C395 1.415 . S
C395 H365 0.950 . S
C395 C390 1.363 . S
C395 C394 1.415 . S
H396 C393 0.999 . S
H397 C378 0.913 . S
H398 C416 0.951 . S
H399 C418 0.951 . S
H400 C420 0.950 . S
H401 C421 0.950 . S
H402 C423 0.950 . S
H403 C426 0.950 . S
H404 C427 0.950 . S
H405 C429 0.950 . S
H406 C430 0.950 . S
H407 C431 0.951 . S
H408 C433 0.951 . S
H409 C435 0.950 . S
H410 C436 0.950 . S
H411 C438 0.950 . S
H412 C441 0.950 . S
H413 C442 0.950 . S
H414 C444 0.950 . S
H415 C445 0.950 . S
C416 H398 0.951 . S
C416 C417 1.366 . S
C416 C418 1.388 . S
C417 C416 1.366 . S
C417 C421 1.385 . S
C418 H399 0.951 . S
C418 C416 1.388 . S
C418 C419 1.366 . S
C419 C418 1.366 . S
C419 C420 1.414 . S
C419 C422 1.499 . S
C420 H400 0.950 . S
C420 C419 1.414 . S
C420 C421 1.374 . S
C421 H401 0.950 . S
C421 C417 1.385 . S
C421 C420 1.374 . S
C422 C419 1.499 . S
C422 C423 1.373 . S
C422 C424 1.389 . S
C423 H402 0.950 . S
C423 C422 1.373 . S
C423 C439 1.377 . S
C424 C422 1.389 . S
C424 C425 1.524 . S
C424 C438 1.377 . S
C425 C424 1.524 . S
C425 C426 1.397 . S
C425 C430 1.363 . S
C426 H403 0.950 . S
C426 C425 1.397 . S
C426 C427 1.334 . S
C427 H404 0.950 . S
C427 C426 1.334 . S
C427 C428 1.287 . S
C428 C427 1.287 . S
C428 C429 1.524 . S
C428 H447 0.913 . S
C429 H405 0.950 . S
C429 C428 1.524 . S
C429 C430 1.415 . S
C430 H406 0.950 . S
C430 C425 1.363 . S
C430 C429 1.415 . S
C431 H407 0.951 . S
C431 C432 1.366 . S
C431 C433 1.388 . S
C432 C431 1.366 . S
C432 C436 1.385 . S
C433 H408 0.951 . S
C433 C431 1.388 . S
C433 C434 1.366 . S
C434 C433 1.366 . S
C434 C435 1.414 . S
C434 C437 1.499 . S
C435 H409 0.950 . S
C435 C434 1.414 . S
C435 C436 1.374 . S
C436 H410 0.950 . S
C436 C432 1.385 . S
C436 C435 1.374 . S
C437 C434 1.499 . S
C437 C438 1.373 . S
C437 C439 1.389 . S
C438 H411 0.950 . S
C438 C424 1.377 . S
C438 C437 1.373 . S
C439 C423 1.377 . S
C439 C437 1.389 . S
C439 C440 1.524 . S
C440 C439 1.524 . S
C440 C441 1.397 . S
C440 C445 1.363 . S
C441 H412 0.950 . S
C441 C440 1.397 . S
C441 C442 1.334 . S
C442 H413 0.950 . S
C442 C441 1.334 . S
C442 C443 1.287 . S
C443 C442 1.287 . S
C443 C444 1.524 . S
C443 H446 0.999 . S
C444 H414 0.950 . S
C444 C443 1.524 . S
C444 C445 1.415 . S
C445 H415 0.950 . S
C445 C440 1.363 . S
C445 C444 1.415 . S
H446 C443 0.999 . S
H447 C428 0.913 . S
H448 C466 0.951 . S
H449 C468 0.951 . S
H450 C470 0.950 . S
H451 C471 0.950 . S
H452 C473 0.950 . S
H453 C476 0.950 . S
H454 C477 0.950 . S
H455 C479 0.950 . S
H456 C480 0.950 . S
H457 C481 0.951 . S
H458 C483 0.951 . S
H459 C485 0.950 . S
H460 C486 0.950 . S
H461 C488 0.950 . S
H462 C491 0.950 . S
H463 C492 0.950 . S
H464 C494 0.950 . S
H465 C495 0.950 . S
C466 H448 0.951 . S
C466 C467 1.366 . S
C466 C468 1.388 . S
C467 C466 1.366 . S
C467 C471 1.385 . S
C468 H449 0.951 . S
C468 C466 1.388 . S
C468 C469 1.366 . S
C469 C468 1.366 . S
C469 C470 1.414 . S
C469 C472 1.499 . S
C470 H450 0.950 . S
C470 C469 1.414 . S
C470 C471 1.374 . S
C471 H451 0.950 . S
C471 C467 1.385 . S
C471 C470 1.374 . S
C472 C469 1.499 . S
C472 C473 1.373 . S
C472 C474 1.389 . S
C473 H452 0.950 . S
C473 C472 1.373 . S
C473 C489 1.377 . S
C474 C472 1.389 . S
C474 C475 1.524 . S
C474 C488 1.377 . S
C475 C474 1.524 . S
C475 C476 1.397 . S
C475 C480 1.363 . S
C476 H453 0.950 . S
C476 C475 1.397 . S
C476 C477 1.334 . S
C477 H454 0.950 . S
C477 C476 1.334 . S
C477 C478 1.287 . S
C478 C477 1.287 . S
C478 C479 1.524 . S
C478 H497 0.913 . S
C479 H455 0.950 . S
C479 C478 1.524 . S
C479 C480 1.415 . S
C480 H456 0.950 . S
C480 C475 1.363 . S
C480 C479 1.415 . S
C481 H457 0.951 . S
C481 C482 1.366 . S
C481 C483 1.388 . S
C482 C481 1.366 . S
C482 C486 1.385 . S
C483 H458 0.951 . S
C483 C481 1.388 . S
C483 C484 1.366 . S
C484 C483 1.366 . S
C484 C485 1.414 . S
C484 C487 1.499 . S
C485 H459 0.950 . S
C485 C484 1.414 . S
C485 C486 1.374 . S
C486 H460 0.950 . S
C486 C482 1.385 . S
C486 C485 1.374 . S
C487 C484 1.499 . S
C487 C488 1.373 . S
C487 C489 1.389 . S
C488 H461 0.950 . S
C488 C474 1.377 . S
C488 C487 1.373 . S
C489 C473 1.377 . S
C489 C487 1.389 . S
C489 C490 1.524 . S
C490 C489 1.524 . S
C490 C491 1.397 . S
C490 C495 1.363 . S
C491 H462 0.950 . S
C491 C490 1.397 . S
C491 C492 1.334 . S
C492 H463 0.950 . S
C492 C491 1.334 . S
C492 C493 1.287 . S
C493 C492 1.287 . S
C493 C494 1.524 . S
C493 H496 0.999 . S
C494 H464 0.950 . S
C494 C493 1.524 . S
C494 C495 1.415 . S
C495 H465 0.950 . S
C495 C490 1.363 . S
C495 C494 1.415 . S
H496 C493 0.999 . S
H497 C478 0.913 . S
H498 C516 0.951 . S
H499 C518 0.951 . S
H500 C520 0.950 . S
H501 C521 0.950 . S
H502 C523 0.950 . S
H503 C526 0.950 . S
H504 C527 0.950 . S
H505 C529 0.950 . S
H506 C530 0.950 . S
H507 C531 0.951 . S
H508 C533 0.951 . S
H509 C535 0.950 . S
H510 C536 0.950 . S
H511 C538 0.950 . S
H512 C541 0.950 . S
H513 C542 0.950 . S
H514 C544 0.950 . S
H515 C545 0.950 . S
C516 H498 0.951 . S
C516 C517 1.366 . S
C516 C518 1.388 . S
C517 C516 1.366 . S
C517 C521 1.385 . S
C518 H499 0.951 . S
C518 C516 1.388 . S
C518 C519 1.366 . S
C519 C518 1.366 . S
C519 C520 1.414 . S
C519 C522 1.499 . S
C520 H500 0.950 . S
C520 C519 1.414 . S
C520 C521 1.374 . S
C521 H501 0.950 . S
C521 C517 1.385 . S
C521 C520 1.374 . S
C522 C519 1.499 . S
C522 C523 1.373 . S
C522 C524 1.389 . S
C523 H502 0.950 . S
C523 C522 1.373 . S
C523 C539 1.377 . S
C524 C522 1.389 . S
C524 C525 1.524 . S
C524 C538 1.377 . S
C525 C524 1.524 . S
C525 C526 1.397 . S
C525 C530 1.363 . S
C526 H503 0.950 . S
C526 C525 1.397 . S
C526 C527 1.334 . S
C527 H504 0.950 . S
C527 C526 1.334 . S
C527 C528 1.287 . S
C528 C527 1.287 . S
C528 C529 1.524 . S
C528 H547 0.913 . S
C529 H505 0.950 . S
C529 C528 1.524 . S
C529 C530 1.415 . S
C530 H506 0.950 . S
C530 C525 1.363 . S
C530 C529 1.415 . S
C531 H507 0.951 . S
C531 C532 1.366 . S
C531 C533 1.388 . S
C532 C531 1.366 . S
C532 C536 1.385 . S
C533 H508 0.951 . S
C533 C531 1.388 . S
C533 C534 1.366 . S
C534 C533 1.366 . S
C534 C535 1.414 . S
C534 C537 1.499 . S
C535 H509 0.950 . S
C535 C534 1.414 . S
C535 C536 1.374 . S
C536 H510 0.950 . S
C536 C532 1.385 . S
C536 C535 1.374 . S
C537 C534 1.499 . S
C537 C538 1.373 . S
C537 C539 1.389 . S
C538 H511 0.950 . S
C538 C524 1.377 . S
C538 C537 1.373 . S
C539 C523 1.377 . S
C539 C537 1.389 . S
C539 C540 1.524 . S
C540 C539 1.524 . S
C540 C541 1.397 . S
C540 C545 1.363 . S
C541 H512 0.950 . S
C541 C540 1.397 . S
C541 C542 1.334 . S
C542 H513 0.950 . S
C542 C541 1.334 . S
C542 C543 1.287 . S
C543 C542 1.287 . S
C543 C544 1.524 . S
C543 H546 0.999 . S
C544 H514 0.950 . S
C544 C543 1.524 . S
C544 C545 1.415 . S
C545 H515 0.950 . S
C545 C540 1.363 . S
C545 C544 1.415 . S
H546 C543 0.999 . S
H547 C528 0.913 . S
H548 C566 0.951 . S
H549 C568 0.951 . S
H550 C570 0.950 . S
H551 C571 0.950 . S
H552 C573 0.950 . S
H553 C576 0.950 . S
H554 C577 0.950 . S
H555 C579 0.950 . S
H556 C580 0.950 . S
H557 C581 0.951 . S
H558 C583 0.951 . S
H559 C585 0.950 . S
H560 C586 0.950 . S
H561 C588 0.950 . S
H562 C591 0.950 . S
H563 C592 0.950 . S
H564 C594 0.950 . S
H565 C595 0.950 . S
C566 H548 0.951 . S
C566 C567 1.366 . S
C566 C568 1.388 . S
C567 C566 1.366 . S
C567 C571 1.385 . S
C568 H549 0.951 . S
C568 C566 1.388 . S
C568 C569 1.366 . S
C569 C568 1.366 . S
C569 C570 1.414 . S
C569 C572 1.499 . S
C570 H550 0.950 . S
C570 C569 1.414 . S
C570 C571 1.374 . S
C571 H551 0.950 . S
C571 C567 1.385 . S
C571 C570 1.374 . S
C572 C569 1.499 . S
C572 C573 1.373 . S
C572 C574 1.389 . S
C573 H552 0.950 . S
C573 C572 1.373 . S
C573 C589 1.377 . S
C574 C572 1.389 . S
C574 C575 1.524 . S
C574 C588 1.377 . S
C575 C574 1.524 . S
C575 C576 1.397 . S
C575 C580 1.363 . S
C576 H553 0.950 . S
C576 C575 1.397 . S
C576 C577 1.334 . S
C577 H554 0.950 . S
C577 C576 1.334 . S
C577 C578 1.287 . S
C578 C577 1.287 . S
C578 C579 1.524 . S
C578 H597 0.913 . S
C579 H555 0.950 . S
C579 C578 1.524 . S
C579 C580 1.415 . S
C580 H556 0.950 . S
C580 C575 1.363 . S
C580 C579 1.415 . S
C581 H557 0.951 . S
C581 C582 1.366 . S
C581 C583 1.388 . S
C582 C581 1.366 . S
C582 C586 1.385 . S
C583 H558 0.951 . S
C583 C581 1.388 . S
C583 C584 1.366 . S
C584 C583 1.366 . S
C584 C585 1.414 . S
C584 C587 1.499 . S
C585 H559 0.950 . S
C585 C584 1.414 . S
C585 C586 1.374 . S
C586 H560 0.950 . S
C586 C582 1.385 . S
C586 C585 1.374 . S
C587 C584 1.499 . S
C587 C588 1.373 . S
C587 C589 1.389 . S
C588 H561 0.950 . S
C588 C574 1.377 . S
C588 C587 1.373 . S
C589 C573 1.377 . S
C589 C587 1.389 . S
C589 C590 1.524 . S
C590 C589 1.524 . S
C590 C591 1.397 . S
C590 C595 1.363 . S
C591 H562 0.950 . S
C591 C590 1.397 . S
C591 C592 1.334 . S
C592 H563 0.950 . S
C592 C591 1.334 . S
C592 C593 1.287 . S
C593 C592 1.287 . S
C593 C594 1.524 . S
C593 H596 0.999 . S
C594 H564 0.950 . S
C594 C593 1.524 . S
C594 C595 1.415 . S
C595 H565 0.950 . S
C595 C590 1.363 . S
C595 C594 1.415 . S
H596 C593 0.999 . S
H597 C578 0.913 . S
H598 C616 0.951 . S
H599 C618 0.951 . S
H600 C620 0.950 . S
H601 C621 0.950 . S
H602 C623 0.950 . S
H603 C626 0.950 . S
H604 C627 0.950 . S
H605 C629 0.950 . S
H606 C630 0.950 . S
H607 C631 0.951 . S
H608 C633 0.951 . S
H609 C635 0.950 . S
H610 C636 0.950 . S
H611 C638 0.950 . S
H612 C641 0.950 . S
H613 C642 0.950 . S
H614 C644 0.950 . S
H615 C645 0.950 . S
C616 H598 0.951 . S
C616 C617 1.366 . S
C616 C618 1.388 . S
C617 C616 1.366 . S
C617 C621 1.385 . S
C618 H599 0.951 . S
C618 C616 1.388 . S
C618 C619 1.366 . S
C619 C618 1.366 . S
C619 C620 1.414 . S
C619 C622 1.499 . S
C620 H600 0.950 . S
C620 C619 1.414 . S
C620 C621 1.374 . S
C621 H601 0.950 . S
C621 C617 1.385 . S
C621 C620 1.374 . S
C622 C619 1.499 . S
C622 C623 1.373 . S
C622 C624 1.389 . S
C623 H602 0.950 . S
C623 C622 1.373 . S
C623 C639 1.377 . S
C624 C622 1.389 . S
C624 C625 1.524 . S
C624 C638 1.377 . S
C625 C624 1.524 . S
C625 C626 1.397 . S
C625 C630 1.363 . S
C626 H603 0.950 . S
C626 C625 1.397 . S
C626 C627 1.334 . S
C627 H604 0.950 . S
C627 C626 1.334 . S
C627 C628 1.287 . S
C628 C627 1.287 . S
C628 C629 1.524 . S
C628 H647 0.913 . S
C629 H605 0.950 . S
C629 C628 1.524 . S
C629 C630 1.415 . S
C630 H606 0.950 . S
C630 C625 1.363 . S
C630 C629 1.415 . S
C631 H607 0.951 . S
C631 C632 1.366 . S
C631 C633 1.388 . S
C632 C631 1.366 . S
C632 C636 1.385 . S
C633 H608 0.951 . S
C633 C631 1.388 . S
C633 C634 1.366 . S
C634 C633 1.366 . S
C634 C635 1.414 . S
C634 C637 1.499 . S
C635 H609 0.950 . S
C635 C634 1.414 . S
C635 C636 1.374 . S
C636 H610 0.950 . S
C636 C632 1.385 . S
C636 C635 1.374 . S
C637 C634 1.499 . S
C637 C638 1.373 . S
C637 C639 1.389 . S
C638 H611 0.950 . S
C638 C624 1.377 . S
C638 C637 1.373 . S
C639 C623 1.377 . S
C639 C637 1.389 . S
C639 C640 1.524 . S
C640 C639 1.524 . S
C640 C641 1.397 . S
C640 C645 1.363 . S
C641 H612 0.950 . S
C641 C640 1.397 . S
C641 C642 1.334 . S
C642 H613 0.950 . S
C642 C641 1.334 . S
C642 C643 1.287 . S
C643 C642 1.287 . S
C643 C644 1.524 . S
C643 H646 0.999 . S
C644 H614 0.950 . S
C644 C643 1.524 . S
C644 C645 1.415 . S
C645 H615 0.950 . S
C645 C640 1.363 . S
C645 C644 1.415 . S
H646 C643 0.999 . S
H647 C628 0.913 . S
H648 C666 0.951 . S
H649 C668 0.951 . S
H650 C670 0.950 . S
H651 C671 0.950 . S
H652 C673 0.950 . S
H653 C676 0.950 . S
H654 C677 0.950 . S
H655 C679 0.950 . S
H656 C680 0.950 . S
H657 C681 0.951 . S
H658 C683 0.951 . S
H659 C685 0.950 . S
H660 C686 0.950 . S
H661 C688 0.950 . S
H662 C691 0.950 . S
H663 C692 0.950 . S
H664 C694 0.950 . S
H665 C695 0.950 . S
C666 H648 0.951 . S
C666 C667 1.366 . S
C666 C668 1.388 . S
C667 C666 1.366 . S
C667 C671 1.385 . S
C668 H649 0.951 . S
C668 C666 1.388 . S
C668 C669 1.366 . S
C669 C668 1.366 . S
C669 C670 1.414 . S
C669 C672 1.499 . S
C670 H650 0.950 . S
C670 C669 1.414 . S
C670 C671 1.374 . S
C671 H651 0.950 . S
C671 C667 1.385 . S
C671 C670 1.374 . S
C672 C669 1.499 . S
C672 C673 1.373 . S
C672 C674 1.389 . S
C673 H652 0.950 . S
C673 C672 1.373 . S
C673 C689 1.377 . S
C674 C672 1.389 . S
C674 C675 1.524 . S
C674 C688 1.377 . S
C675 C674 1.524 . S
C675 C676 1.397 . S
C675 C680 1.363 . S
C676 H653 0.950 . S
C676 C675 1.397 . S
C676 C677 1.334 . S
C677 H654 0.950 . S
C677 C676 1.334 . S
C677 C678 1.287 . S
C678 C677 1.287 . S
C678 C679 1.524 . S
C678 H697 0.913 . S
C679 H655 0.950 . S
C679 C678 1.524 . S
C679 C680 1.415 . S
C680 H656 0.950 . S
C680 C675 1.363 . S
C680 C679 1.415 . S
C681 H657 0.951 . S
C681 C682 1.366 . S
C681 C683 1.388 . S
C682 C681 1.366 . S
C682 C686 1.385 . S
C683 H658 0.951 . S
C683 C681 1.388 . S
C683 C684 1.366 . S
C684 C683 1.366 . S
C684 C685 1.414 . S
C684 C687 1.499 . S
C685 H659 0.950 . S
C685 C684 1.414 . S
C685 C686 1.374 . S
C686 H660 0.950 . S
C686 C682 1.385 . S
C686 C685 1.374 . S
C687 C684 1.499 . S
C687 C688 1.373 . S
C687 C689 1.389 . S
C688 H661 0.950 . S
C688 C674 1.377 . S
C688 C687 1.373 . S
C689 C673 1.377 . S
C689 C687 1.389 . S
C689 C690 1.524 . S
C690 C689 1.524 . S
C690 C691 1.397 . S
C690 C695 1.363 . S
C691 H662 0.950 . S
C691 C690 1.397 . S
C691 C692 1.334 . S
C692 H663 0.950 . S
C692 C691 1.334 . S
C692 C693 1.287 . S
C693 C692 1.287 . S
C693 C694 1.524 . S
C693 H696 0.999 . S
C694 H664 0.950 . S
C694 C693 1.524 . S
C694 C695 1.415 . S
C695 H665 0.950 . S
C695 C690 1.363 . S
C695 C694 1.415 . S
H696 C693 0.999 . S
H697 C678 0.913 . S
H698 C716 0.951 . S
H699 C718 0.951 . S
H700 C720 0.950 . S
H701 C721 0.950 . S
H702 C723 0.950 . S
H703 C726 0.950 . S
H704 C727 0.950 . S
H705 C729 0.950 . S
H706 C730 0.950 . S
H707 C731 0.951 . S
H708 C733 0.951 . S
H709 C735 0.950 . S
H710 C736 0.950 . S
H711 C738 0.950 . S
H712 C741 0.950 . S
H713 C742 0.950 . S
H714 C744 0.950 . S
H715 C745 0.950 . S
C716 H698 0.951 . S
C716 C717 1.366 . S
C716 C718 1.388 . S
C717 C716 1.366 . S
C717 C721 1.385 . S
C718 H699 0.951 . S
C718 C716 1.388 . S
C718 C719 1.366 . S
C719 C718 1.366 . S
C719 C720 1.414 . S
C719 C722 1.499 . S
C720 H700 0.950 . S
C720 C719 1.414 . S
C720 C721 1.374 . S
C721 H701 0.950 . S
C721 C717 1.385 . S
C721 C720 1.374 . S
C722 C719 1.499 . S
C722 C723 1.373 . S
C722 C724 1.389 . S
C723 H702 0.950 . S
C723 C722 1.373 . S
C723 C739 1.377 . S
C724 C722 1.389 . S
C724 C725 1.524 . S
C724 C738 1.377 . S
C725 C724 1.524 . S
C725 C726 1.397 . S
C725 C730 1.363 . S
C726 H703 0.950 . S
C726 C725 1.397 . S
C726 C727 1.334 . S
C727 H704 0.950 . S
C727 C726 1.334 . S
C727 C728 1.287 . S
C728 C727 1.287 . S
C728 C729 1.524 . S
C728 H747 0.913 . S
C729 H705 0.950 . S
C729 C728 1.524 . S
C729 C730 1.415 . S
C730 H706 0.950 . S
C730 C725 1.363 . S
C730 C729 1.415 . S
C731 H707 0.951 . S
C731 C732 1.366 . S
C731 C733 1.388 . S
C732 C731 1.366 . S
C732 C736 1.385 . S
C733 H708 0.951 . S
C733 C731 1.388 . S
C733 C734 1.366 . S
C734 C733 1.366 . S
C734 C735 1.414 . S
C734 C737 1.499 . S
C735 H709 0.950 . S
C735 C734 1.414 . S
C735 C736 1.374 . S
C736 H710 0.950 . S
C736 C732 1.385 . S
C736 C735 1.374 . S
C737 C734 1.499 . S
C737 C738 1.373 . S
C737 C739 1.389 . S
C738 H711 0.950 . S
C738 C724 1.377 . S
C738 C737 1.373 . S
C739 C723 1.377 . S
C739 C737 1.389 . S
C739 C740 1.524 . S
C740 C739 1.524 . S
C740 C741 1.397 . S
C740 C745 1.363 . S
C741 H712 0.950 . S
C741 C740 1.397 . S
C741 C742 1.334 . S
C742 H713 0.950 . S
C742 C741 1.334 . S
C742 C743 1.287 . S
C743 C742 1.287 . S
C743 C744 1.524 . S
C743 H746 0.999 . S
C744 H714 0.950 . S
C744 C743 1.524 . S
C744 C745 1.415 . S
C745 H715 0.950 . S
C745 C740 1.363 . S
C745 C744 1.415 . S
H746 C743 0.999 . S
H747 C728 0.913 . S
H748 C766 0.951 . S
H749 C768 0.951 . S
H750 C770 0.950 . S
H751 C771 0.950 . S
H752 C773 0.950 . S
H753 C776 0.950 . S
H754 C777 0.950 . S
H755 C779 0.950 . S
H756 C780 0.950 . S
H757 C781 0.951 . S
H758 C783 0.951 . S
H759 C785 0.950 . S
H760 C786 0.950 . S
H761 C788 0.950 . S
H762 C791 0.950 . S
H763 C792 0.950 . S
H764 C794 0.950 . S
H765 C795 0.950 . S
C766 H748 0.951 . S
C766 C767 1.366 . S
C766 C768 1.388 . S
C767 C766 1.366 . S
C767 C771 1.385 . S
C768 H749 0.951 . S
C768 C766 1.388 . S
C768 C769 1.366 . S
C769 C768 1.366 . S
C769 C770 1.414 . S
C769 C772 1.499 . S
C770 H750 0.950 . S
C770 C769 1.414 . S
C770 C771 1.374 . S
C771 H751 0.950 . S
C771 C767 1.385 . S
C771 C770 1.374 . S
C772 C769 1.499 . S
C772 C773 1.373 . S
C772 C774 1.389 . S
C773 H752 0.950 . S
C773 C772 1.373 . S
C773 C789 1.377 . S
C774 C772 1.389 . S
C774 C775 1.524 . S
C774 C788 1.377 . S
C775 C774 1.524 . S
C775 C776 1.397 . S
C775 C780 1.363 . S
C776 H753 0.950 . S
C776 C775 1.397 . S
C776 C777 1.334 . S
C777 H754 0.950 . S
C777 C776 1.334 . S
C777 C778 1.287 . S
C778 C777 1.287 . S
C778 C779 1.524 . S
C778 H797 0.913 . S
C779 H755 0.950 . S
C779 C778 1.524 . S
C779 C780 1.415 . S
C780 H756 0.950 . S
C780 C775 1.363 . S
C780 C779 1.415 . S
C781 H757 0.951 . S
C781 C782 1.366 . S
C781 C783 1.388 . S
C782 C781 1.366 . S
C782 C786 1.385 . S
C783 H758 0.951 . S
C783 C781 1.388 . S
C783 C784 1.366 . S
C784 C783 1.366 . S
C784 C785 1.414 . S
C784 C787 1.499 . S
C785 H759 0.950 . S
C785 C784 1.414 . S
C785 C786 1.374 . S
C786 H760 0.950 . S
C786 C782 1.385 . S
C786 C785 1.374 . S
C787 C784 1.499 . S
C787 C788 1.373 . S
C787 C789 1.389 . S
C788 H761 0.950 . S
C788 C774 1.377 . S
C788 C787 1.373 . S
C789 C773 1.377 . S
C789 C787 1.389 . S
C789 C790 1.524 . S
C790 C789 1.524 . S
C790 C791 1.397 . S
C790 C795 1.363 . S
C791 H762 0.950 . S
C791 C790 1.397 . S
C791 C792 1.334 . S
C792 H763 0.950 . S
C792 C791 1.334 . S
C792 C793 1.287 . S
C793 C792 1.287 . S
C793 C794 1.524 . S
C793 H796 0.999 . S
C794 H764 0.950 . S
C794 C793 1.524 . S
C794 C795 1.415 . S
C795 H765 0.950 . S
C795 C790 1.363 . S
C795 C794 1.415 . S
H796 C793 0.999 . S
H797 C778 0.913 . S
H798 C816 0.951 . S
H799 C818 0.951 . S
H800 C820 0.950 . S
H801 C821 0.950 . S
H802 C823 0.950 . S
H803 C826 0.962 . S
H804 C827 0.950 . S
H805 C829 0.950 . S
H806 C830 0.950 . S
H807 C831 0.951 . S
H808 C833 0.951 . S
H809 C835 0.950 . S
H810 C836 0.950 . S
H811 C838 0.943 1_556 S
H812 C841 0.950 . S
H813 C842 0.950 1_455 S
H814 C844 0.950 . S
H815 C845 0.950 . S
C816 H798 0.951 . S
C816 C817 1.366 . S
C816 C818 1.388 . S
C817 C816 1.366 . S
C817 C821 1.385 1_455 S
C818 H799 0.951 . S
C818 C816 1.388 . S
C818 C819 1.366 . S
C819 C818 1.366 . S
C819 C820 1.414 1_455 S
C819 C822 1.499 . S
C820 H800 0.950 . S
C820 C819 1.414 1_655 S
C820 C821 1.374 . S
C821 H801 0.950 . S
C821 C817 1.385 1_655 S
C821 C820 1.374 . S
C822 C819 1.499 . S
C822 C823 1.373 1_455 S
C822 C824 1.389 . S
C823 H802 0.950 . S
C823 C822 1.373 1_655 S
C823 C839 1.374 1_654 S
C824 C822 1.389 . S
C824 C825 1.524 . S
C824 C838 1.395 . S
C825 C824 1.524 . S
C825 C826 1.397 . S
C825 C830 1.363 . S
C826 H803 0.962 . S
C826 C825 1.397 . S
C826 C827 1.334 . S
C827 H804 0.950 . S
C827 C826 1.334 . S
C827 C828 1.287 . S
C828 C827 1.287 . S
C828 C829 1.524 . S
C828 H847 0.913 . S
C829 H805 0.950 . S
C829 C828 1.524 . S
C829 C830 1.415 . S
C830 H806 0.950 . S
C830 C825 1.363 . S
C830 C829 1.415 . S
C831 H807 0.951 . S
C831 C832 1.366 1_655 S
C831 C833 1.388 . S
C832 C831 1.366 1_455 S
C832 C836 1.385 . S
C833 H808 0.951 . S
C833 C831 1.388 . S
C833 C834 1.366 1_655 S
C834 C833 1.366 1_455 S
C834 C835 1.414 . S
C834 C837 1.499 . S
C835 H809 0.950 . S
C835 C834 1.414 . S
C835 C836 1.374 . S
C836 H810 0.950 . S
C836 C832 1.385 . S
C836 C835 1.374 . S
C837 C834 1.499 . S
C837 C838 1.362 1_556 S
C837 C839 1.391 . S
C838 H811 0.943 1_554 S
C838 C824 1.395 . S
C838 C837 1.362 1_554 S
C839 C823 1.374 1_456 S
C839 C837 1.391 . S
C839 C840 1.526 1_455 S
C840 C839 1.526 1_655 S
C840 C841 1.397 1_655 S
C840 C845 1.363 . S
C841 H812 0.950 . S
C841 C840 1.397 1_455 S
C841 C842 1.334 1_455 S
C842 H813 0.950 1_655 S
C842 C841 1.334 1_655 S
C842 C843 1.287 . S
C843 C842 1.287 . S
C843 C844 1.524 . S
C843 H846 0.999 . S
C844 H814 0.950 . S
C844 C843 1.524 . S
C844 C845 1.415 . S
C845 H815 0.950 . S
C845 C840 1.363 . S
C845 C844 1.415 . S
H846 C843 0.999 . S
H847 C828 0.913 . S
H848 C866 0.951 . S
H849 C868 0.951 . S
H850 C870 0.950 1_565 S
H851 C871 0.950 1_565 S
H852 C873 0.950 . S
H853 C876 0.950 . S
H854 C877 0.950 . S
H855 C879 0.950 . S
H856 C880 0.950 . S
H857 C881 0.951 . S
H858 C883 0.951 . S
H859 C885 0.950 . S
H860 C886 0.950 . S
H861 C888 0.950 . S
H862 C891 0.950 . S
H863 C892 0.950 . S
H864 C894 0.950 . S
H865 C895 0.950 . S
C866 H848 0.951 . S
C866 C867 1.366 . S
C866 C868 1.388 . S
C867 C866 1.366 . S
C867 C871 1.385 . S
C868 H849 0.951 . S
C868 C866 1.388 . S
C868 C869 1.366 . S
C869 C868 1.366 . S
C869 C870 1.414 . S
C869 C872 1.499 . S
C870 H850 0.950 1_545 S
C870 C869 1.414 . S
C870 C871 1.374 . S
C871 H851 0.950 1_545 S
C871 C867 1.385 . S
C871 C870 1.374 . S
C872 C869 1.499 . S
C872 C873 1.373 . S
C872 C874 1.389 . S
C873 H852 0.950 . S
C873 C872 1.373 . S
C873 C889 1.377 . S
C874 C872 1.389 . S
C874 C875 1.524 . S
C874 C888 1.377 . S
C875 C874 1.524 . S
C875 C876 1.397 . S
C875 C880 1.363 . S
C876 H853 0.950 . S
C876 C875 1.397 . S
C876 C877 1.334 . S
C877 H854 0.950 . S
C877 C876 1.334 . S
C877 C878 1.287 . S
C878 C877 1.287 . S
C878 C879 1.524 . S
C878 H897 0.913 . S
C879 H855 0.950 . S
C879 C878 1.524 . S
C879 C880 1.415 . S
C880 H856 0.950 . S
C880 C875 1.363 . S
C880 C879 1.415 . S
C881 H857 0.951 . S
C881 C882 1.366 1_565 S
C881 C883 1.388 . S
C882 C881 1.366 1_545 S
C882 C886 1.385 . S
C883 H858 0.951 . S
C883 C881 1.388 . S
C883 C884 1.366 1_565 S
C884 C883 1.366 1_545 S
C884 C885 1.414 . S
C884 C887 1.499 . S
C885 H859 0.950 . S
C885 C884 1.414 . S
C885 C886 1.374 . S
C886 H860 0.950 . S
C886 C882 1.385 . S
C886 C885 1.374 . S
C887 C884 1.499 . S
C887 C888 1.373 . S
C887 C889 1.389 . S
C888 H861 0.950 . S
C888 C874 1.377 . S
C888 C887 1.373 . S
C889 C873 1.377 . S
C889 C887 1.389 . S
C889 C890 1.524 . S
C890 C889 1.524 . S
C890 C891 1.397 . S
C890 C895 1.363 1_545 S
C891 H862 0.950 . S
C891 C890 1.397 . S
C891 C892 1.334 . S
C892 H863 0.950 . S
C892 C891 1.334 . S
C892 C893 1.287 1_545 S
C893 C892 1.287 1_565 S
C893 C894 1.524 . S
C893 H896 0.999 . S
C894 H864 0.950 . S
C894 C893 1.524 . S
C894 C895 1.415 . S
C895 H865 0.950 . S
C895 C890 1.363 1_565 S
C895 C894 1.415 . S
H896 C893 0.999 . S
H897 C878 0.913 . S
H898 C916 0.951 . S
H899 C918 0.951 . S
H900 C920 0.950 . S
H901 C921 0.950 . S
H902 C923 0.950 . S
H903 C926 0.950 . S
H904 C927 0.950 . S
H905 C929 0.950 . S
H906 C930 0.950 . S
H907 C931 0.951 . S
H908 C933 0.951 . S
H909 C935 0.950 . S
H910 C936 0.950 . S
H911 C938 0.950 . S
H912 C941 0.950 . S
H913 C942 0.950 . S
H914 C944 0.950 . S
H915 C945 0.950 . S
C916 H898 0.951 . S
C916 C917 1.366 . S
C916 C918 1.388 . S
C917 C916 1.366 . S
C917 C921 1.385 . S
C918 H899 0.951 . S
C918 C916 1.388 . S
C918 C919 1.366 . S
C919 C918 1.366 . S
C919 C920 1.414 . S
C919 C922 1.499 . S
C920 H900 0.950 . S
C920 C919 1.414 . S
C920 C921 1.374 . S
C921 H901 0.950 . S
C921 C917 1.385 . S
C921 C920 1.374 . S
C922 C919 1.499 . S
C922 C923 1.373 . S
C922 C924 1.389 . S
C923 H902 0.950 . S
C923 C922 1.373 . S
C923 C939 1.377 . S
C924 C922 1.389 . S
C924 C925 1.524 . S
C924 C938 1.377 . S
C925 C924 1.524 . S
C925 C926 1.397 . S
C925 C930 1.363 . S
C926 H903 0.950 . S
C926 C925 1.397 . S
C926 C927 1.334 . S
C927 H904 0.950 . S
C927 C926 1.334 . S
C927 C928 1.287 . S
C928 C927 1.287 . S
C928 C929 1.524 . S
C928 H947 0.913 . S
C929 H905 0.950 . S
C929 C928 1.524 . S
C929 C930 1.415 . S
C930 H906 0.950 . S
C930 C925 1.363 . S
C930 C929 1.415 . S
C931 H907 0.951 . S
C931 C932 1.366 . S
C931 C933 1.388 . S
C932 C931 1.366 . S
C932 C936 1.385 . S
C933 H908 0.951 . S
C933 C931 1.388 . S
C933 C934 1.366 . S
C934 C933 1.366 . S
C934 C935 1.414 . S
C934 C937 1.499 . S
C935 H909 0.950 . S
C935 C934 1.414 . S
C935 C936 1.374 . S
C936 H910 0.950 . S
C936 C932 1.385 . S
C936 C935 1.374 . S
C937 C934 1.499 . S
C937 C938 1.373 . S
C937 C939 1.389 . S
C938 H911 0.950 . S
C938 C924 1.377 . S
C938 C937 1.373 . S
C939 C923 1.377 . S
C939 C937 1.389 . S
C939 C940 1.524 . S
C940 C939 1.524 . S
C940 C941 1.397 . S
C940 C945 1.363 . S
C941 H912 0.950 . S
C941 C940 1.397 . S
C941 C942 1.334 . S
C942 H913 0.950 . S
C942 C941 1.334 . S
C942 C943 1.287 . S
C943 C942 1.287 . S
C943 C944 1.524 . S
C943 H946 0.999 . S
C944 H914 0.950 . S
C944 C943 1.524 . S
C944 C945 1.415 . S
C945 H915 0.950 . S
C945 C940 1.363 . S
C945 C944 1.415 . S
H946 C943 0.999 . S
H947 C928 0.913 . S
H948 C966 0.951 1_565 S
H949 C968 0.951 1_565 S
H950 C970 0.950 . S
H951 C971 0.950 . S
H952 C973 0.950 . S
H953 C976 0.950 . S
H954 C977 0.950 . S
H955 C979 0.950 . S
H956 C980 0.950 . S
H957 C981 0.951 . S
H958 C983 0.951 . S
H959 C985 0.950 1_565 S
H960 C986 0.950 1_565 S
H961 C988 0.950 1_565 S
H962 C991 0.950 . S
H963 C992 0.950 . S
H964 C994 0.950 . S
H965 C995 0.950 . S
C966 H948 0.951 1_545 S
C966 C967 1.366 . S
C966 C968 1.388 . S
C967 C966 1.366 . S
C967 C971 1.385 . S
C968 H949 0.951 1_545 S
C968 C966 1.388 . S
C968 C969 1.366 . S
C969 C968 1.366 . S
C969 C970 1.414 . S
C969 C972 1.499 . S
C970 H950 0.950 . S
C970 C969 1.414 . S
C970 C971 1.374 . S
C971 H951 0.950 . S
C971 C967 1.385 . S
C971 C970 1.374 . S
C972 C969 1.499 . S
C972 C973 1.373 . S
C972 C974 1.389 . S
C973 H952 0.950 . S
C973 C972 1.373 . S
C973 C989 1.377 . S
C974 C972 1.389 . S
C974 C975 1.524 1_545 S
C974 C988 1.377 . S
C975 C974 1.524 1_565 S
C975 C976 1.397 1_565 S
C975 C980 1.363 . S
C976 H953 0.950 . S
C976 C975 1.397 1_545 S
C976 C977 1.334 1_545 S
C977 H954 0.950 . S
C977 C976 1.334 1_565 S
C977 C978 1.287 . S
C978 C977 1.287 . S
C978 C979 1.524 . S
C978 H997 0.913 . S
C979 H955 0.950 . S
C979 C978 1.524 . S
C979 C980 1.415 . S
C980 H956 0.950 . S
C980 C975 1.363 . S
C980 C979 1.415 . S
C981 H957 0.951 . S
C981 C982 1.366 . S
C981 C983 1.388 . S
C982 C981 1.366 . S
C982 C986 1.385 . S
C983 H958 0.951 . S
C983 C981 1.388 . S
C983 C984 1.366 . S
C984 C983 1.366 . S
C984 C985 1.414 . S
C984 C987 1.499 . S
C985 H959 0.950 1_545 S
C985 C984 1.414 . S
C985 C986 1.374 . S
C986 H960 0.950 1_545 S
C986 C982 1.385 . S
C986 C985 1.374 . S
C987 C984 1.499 . S
C987 C988 1.373 . S
C987 C989 1.389 . S
C988 H961 0.950 1_545 S
C988 C974 1.377 . S
C988 C987 1.373 . S
C989 C973 1.377 . S
C989 C987 1.389 . S
C989 C990 1.524 . S
C990 C989 1.524 . S
C990 C991 1.397 . S
C990 C995 1.363 . S
C991 H962 0.950 . S
C991 C990 1.397 . S
C991 C992 1.334 . S
C992 H963 0.950 . S
C992 C991 1.334 . S
C992 C993 1.287 . S
C993 C992 1.287 . S
C993 C994 1.524 . S
C993 H996 0.999 . S
C994 H964 0.950 . S
C994 C993 1.524 . S
C994 C995 1.415 . S
C995 H965 0.950 . S
C995 C990 1.363 . S
C995 C994 1.415 . S
H996 C993 0.999 . S
H997 C978 0.913 . S
H998 C1016 0.951 . S
H999 C1018 0.951 . S
H1000 C1020 0.950 . S
H1001 C1021 0.950 . S
H1002 C1023 0.950 . S
H1003 C1026 0.950 . S
H1004 C1027 0.950 . S
H1005 C1029 0.950 . S
H1006 C1030 0.950 . S
H1007 C1031 0.951 . S
H1008 C1033 0.951 . S
H1009 C1035 0.950 . S
H1010 C1036 0.950 . S
H1011 C1038 0.950 . S
H1012 C1041 0.950 . S
H1013 C1042 0.950 . S
H1014 C1044 0.950 . S
H1015 C1045 0.950 1_556 S
C1016 H998 0.951 . S
C1016 C1017 1.366 . S
C1016 C1018 1.388 . S
C1017 C1016 1.366 . S
C1017 C1021 1.385 . S
C1018 H999 0.951 . S
C1018 C1016 1.388 . S
C1018 C1019 1.366 . S
C1019 C1018 1.366 . S
C1019 C1020 1.414 . S
C1019 C1022 1.499 . S
C1020 H1000 0.950 . S
C1020 C1019 1.414 . S
C1020 C1021 1.374 . S
C1021 H1001 0.950 . S
C1021 C1017 1.385 . S
C1021 C1020 1.374 . S
C1022 C1019 1.499 . S
C1022 C1023 1.373 . S
C1022 C1024 1.389 . S
C1023 H1002 0.950 . S
C1023 C1022 1.373 . S
C1023 C1039 1.377 . S
C1024 C1022 1.389 . S
C1024 C1025 1.524 . S
C1024 C1038 1.377 1_556 S
C1025 C1024 1.524 . S
C1025 C1026 1.397 . S
C1025 C1030 1.363 . S
C1026 H1003 0.950 . S
C1026 C1025 1.397 . S
C1026 C1027 1.334 . S
C1027 H1004 0.950 . S
C1027 C1026 1.334 . S
C1027 C1028 1.287 . S
C1028 C1027 1.287 . S
C1028 C1029 1.524 . S
C1028 H1047 0.913 . S
C1029 H1005 0.950 . S
C1029 C1028 1.524 . S
C1029 C1030 1.415 . S
C1030 H1006 0.950 . S
C1030 C1025 1.363 . S
C1030 C1029 1.415 . S
C1031 H1007 0.951 . S
C1031 C1032 1.366 . S
C1031 C1033 1.388 . S
C1032 C1031 1.366 . S
C1032 C1036 1.385 . S
C1033 H1008 0.951 . S
C1033 C1031 1.388 . S
C1033 C1034 1.366 . S
C1034 C1033 1.366 . S
C1034 C1035 1.414 . S
C1034 C1037 1.499 . S
C1035 H1009 0.950 . S
C1035 C1034 1.414 . S
C1035 C1036 1.374 . S
C1036 H1010 0.950 . S
C1036 C1032 1.385 . S
C1036 C1035 1.374 . S
C1037 C1034 1.499 . S
C1037 C1038 1.373 . S
C1037 C1039 1.389 1_554 S
C1038 H1011 0.950 . S
C1038 C1024 1.377 1_554 S
C1038 C1037 1.373 . S
C1039 C1023 1.377 . S
C1039 C1037 1.389 1_556 S
C1039 C1040 1.524 1_556 S
C1040 C1039 1.524 1_554 S
C1040 C1041 1.397 . S
C1040 C1045 1.363 . S
C1041 H1012 0.950 . S
C1041 C1040 1.397 . S
C1041 C1042 1.334 . S
C1042 H1013 0.950 . S
C1042 C1041 1.334 . S
C1042 C1043 1.287 . S
C1043 C1042 1.287 . S
C1043 C1044 1.524 . S
C1043 H1046 0.999 . S
C1044 H1014 0.950 . S
C1044 C1043 1.524 . S
C1044 C1045 1.415 . S
C1045 H1015 0.950 1_554 S
C1045 C1040 1.363 . S
C1045 C1044 1.415 . S
H1046 C1043 0.999 . S
H1047 C1028 0.913 . S
H1048 C1066 0.941 1_655 S
H1049 C1068 0.951 . S
H1050 C1070 0.950 . S
H1051 C1071 0.950 . S
H1052 C1073 0.950 . S
H1053 C1076 0.950 . S
H1054 C1077 0.950 . S
H1055 C1079 0.950 . S
H1056 C1080 0.950 . S
H1057 C1081 0.951 . S
H1058 C1083 0.951 . S
H1059 C1085 0.950 . S
H1060 C1086 0.950 . S
H1061 C1088 0.950 . S
H1062 C1091 0.950 . S
H1063 C1092 0.950 . S
H1064 C1094 0.950 . S
H1065 C1095 0.950 . S
C1066 H1048 0.941 1_455 S
C1066 C1067 1.378 . S
C1066 C1068 1.386 . S
C1067 C1066 1.378 . S
C1067 C1071 1.385 . S
C1068 H1049 0.951 . S
C1068 C1066 1.386 . S
C1068 C1069 1.366 . S
C1069 C1068 1.366 . S
C1069 C1070 1.414 . S
C1069 C1072 1.499 . S
C1070 H1050 0.950 . S
C1070 C1069 1.414 . S
C1070 C1071 1.374 . S
C1071 H1051 0.950 . S
C1071 C1067 1.385 . S
C1071 C1070 1.374 . S
C1072 C1069 1.499 . S
C1072 C1073 1.373 1_455 S
C1072 C1074 1.389 . S
C1073 H1052 0.950 . S
C1073 C1072 1.373 1_655 S
C1073 C1089 1.377 . S
C1074 C1072 1.389 . S
C1074 C1075 1.524 . S
C1074 C1088 1.377 . S
C1075 C1074 1.524 . S
C1075 C1076 1.397 . S
C1075 C1080 1.363 . S
C1076 H1053 0.950 . S
C1076 C1075 1.397 . S
C1076 C1077 1.334 . S
C1077 H1054 0.950 . S
C1077 C1076 1.334 . S
C1077 C1078 1.287 . S
C1078 C1077 1.287 . S
C1078 C1079 1.524 . S
C1078 H1097 0.913 . S
C1079 H1055 0.950 . S
C1079 C1078 1.524 . S
C1079 C1080 1.415 . S
C1080 H1056 0.950 . S
C1080 C1075 1.363 . S
C1080 C1079 1.415 . S
C1081 H1057 0.951 . S
C1081 C1082 1.366 . S
C1081 C1083 1.388 . S
C1082 C1081 1.366 . S
C1082 C1086 1.385 . S
C1083 H1058 0.951 . S
C1083 C1081 1.388 . S
C1083 C1084 1.366 . S
C1084 C1083 1.366 . S
C1084 C1085 1.414 . S
C1084 C1087 1.499 . S
C1085 H1059 0.950 . S
C1085 C1084 1.414 . S
C1085 C1086 1.374 . S
C1086 H1060 0.950 . S
C1086 C1082 1.385 . S
C1086 C1085 1.374 . S
C1087 C1084 1.499 . S
C1087 C1088 1.373 . S
C1087 C1089 1.389 1_455 S
C1088 H1061 0.950 . S
C1088 C1074 1.377 . S
C1088 C1087 1.373 . S
C1089 C1073 1.377 . S
C1089 C1087 1.389 1_655 S
C1089 C1090 1.524 . S
C1090 C1089 1.524 . S
C1090 C1091 1.397 . S
C1090 C1095 1.363 . S
C1091 H1062 0.950 . S
C1091 C1090 1.397 . S
C1091 C1092 1.334 . S
C1092 H1063 0.950 . S
C1092 C1091 1.334 . S
C1092 C1093 1.287 . S
C1093 C1092 1.287 . S
C1093 C1094 1.524 . S
C1093 H1096 0.999 . S
C1094 H1064 0.950 . S
C1094 C1093 1.524 . S
C1094 C1095 1.415 . S
C1095 H1065 0.950 . S
C1095 C1090 1.363 . S
C1095 C1094 1.415 . S
H1096 C1093 0.999 . S
H1097 C1078 0.913 . S
C217 C9 0.256 . S
C232 N187 0.263 . S
C267 C49 0.166 . S
C282 N160 0.219 . S
C317 C89 0.162 . S
C332 N173 0.207 . S
C367 C26 0.562 . S
C382 N186 0.529 . S
C432 N161 0.444 . S
C417 C66 0.518 . S
C482 N174 0.424 . S
C467 C106 0.503 . S
C517 C43 2.789 . S
C532 N134 2.788 . S
C567 C83 2.695 . S
C582 N148 2.647 . S
C617 C22 3.149 . S
C632 N122 3.118 . S
C682 N135 3.126 . S
C667 C62 3.152 . S
C732 N147 3.311 . S
C717 C102 3.297 . S
C767 C3 2.789 . S
C782 N121 2.791 . S
C832 N151 1.760 . S
C817 C15 1.744 . S
C867 C55 1.706 . S
C882 N125 1.767 . S
C917 C95 1.695 . S
C932 N138 1.753 . S
C982 N177 1.276 . S
C967 C42 1.279 . S
C1032 N190 1.244 . S
C1017 C82 1.249 . S
C1067 C2 1.277 . S
C1082 N164 1.277 . S
