# Generated by pormake.
# Topology ctn, (3,4)-cn, num edge types: 1
# Building blocks:
#     Node 0, Type 0, BuildingBlock: QEWDON_clean_linker_0, # of connection points: 3
#     Node 1, Type 0, BuildingBlock: QEWDON_clean_linker_0, # of connection points: 3
#     Node 2, Type 0, BuildingBlock: QEWDON_clean_linker_0, # of connection points: 3
#     Node 3, Type 0, BuildingBlock: QEWDON_clean_linker_0, # of connection points: 3
#     Node 4, Type 0, BuildingBlock: QEWDON_clean_linker_0, # of connection points: 3
#     Node 5, Type 0, BuildingBlock: QEWDON_clean_linker_0, # of connection points: 3
#     Node 6, Type 0, BuildingBlock: QEWDON_clean_linker_0, # of connection points: 3
#     Node 7, Type 0, BuildingBlock: QEWDON_clean_linker_0, # of connection points: 3
#     Node 8, Type 0, BuildingBlock: QEWDON_clean_linker_0, # of connection points: 3
#     Node 9, Type 0, BuildingBlock: QEWDON_clean_linker_0, # of connection points: 3
#     Node 10, Type 0, BuildingBlock: QEWDON_clean_linker_0, # of connection points: 3
#     Node 11, Type 0, BuildingBlock: QEWDON_clean_linker_0, # of connection points: 3
#     Node 12, Type 0, BuildingBlock: QEWDON_clean_linker_0, # of connection points: 3
#     Node 13, Type 0, BuildingBlock: QEWDON_clean_linker_0, # of connection points: 3
#     Node 14, Type 0, BuildingBlock: QEWDON_clean_linker_0, # of connection points: 3
#     Node 15, Type 0, BuildingBlock: QEWDON_clean_linker_0, # of connection points: 3
#     Node 16, Type 1, BuildingBlock: KUFVIS_clean_sbu_0, # of connection points: 4
#     Node 17, Type 1, BuildingBlock: KUFVIS_clean_sbu_0, # of connection points: 4
#     Node 18, Type 1, BuildingBlock: KUFVIS_clean_sbu_0, # of connection points: 4
#     Node 19, Type 1, BuildingBlock: KUFVIS_clean_sbu_0, # of connection points: 4
#     Node 20, Type 1, BuildingBlock: KUFVIS_clean_sbu_0, # of connection points: 4
#     Node 21, Type 1, BuildingBlock: KUFVIS_clean_sbu_0, # of connection points: 4
#     Node 22, Type 1, BuildingBlock: KUFVIS_clean_sbu_0, # of connection points: 4
#     Node 23, Type 1, BuildingBlock: KUFVIS_clean_sbu_0, # of connection points: 4
#     Node 24, Type 1, BuildingBlock: KUFVIS_clean_sbu_0, # of connection points: 4
#     Node 25, Type 1, BuildingBlock: KUFVIS_clean_sbu_0, # of connection points: 4
#     Node 26, Type 1, BuildingBlock: KUFVIS_clean_sbu_0, # of connection points: 4
#     Node 27, Type 1, BuildingBlock: KUFVIS_clean_sbu_0, # of connection points: 4
#     Edge 28, Type (0, 1), None
#     Edge 29, Type (0, 1), None
#     Edge 30, Type (0, 1), None
#     Edge 31, Type (0, 1), None
#     Edge 32, Type (0, 1), None
#     Edge 33, Type (0, 1), None
#     Edge 34, Type (0, 1), None
#     Edge 35, Type (0, 1), None
#     Edge 36, Type (0, 1), None
#     Edge 37, Type (0, 1), None
#     Edge 38, Type (0, 1), None
#     Edge 39, Type (0, 1), None
#     Edge 40, Type (0, 1), None
#     Edge 41, Type (0, 1), None
#     Edge 42, Type (0, 1), None
#     Edge 43, Type (0, 1), None
#     Edge 44, Type (0, 1), None
#     Edge 45, Type (0, 1), None
#     Edge 46, Type (0, 1), None
#     Edge 47, Type (0, 1), None
#     Edge 48, Type (0, 1), None
#     Edge 49, Type (0, 1), None
#     Edge 50, Type (0, 1), None
#     Edge 51, Type (0, 1), None
#     Edge 52, Type (0, 1), None
#     Edge 53, Type (0, 1), None
#     Edge 54, Type (0, 1), None
#     Edge 55, Type (0, 1), None
#     Edge 56, Type (0, 1), None
#     Edge 57, Type (0, 1), None
#     Edge 58, Type (0, 1), None
#     Edge 59, Type (0, 1), None
#     Edge 60, Type (0, 1), None
#     Edge 61, Type (0, 1), None
#     Edge 62, Type (0, 1), None
#     Edge 63, Type (0, 1), None
#     Edge 64, Type (0, 1), None
#     Edge 65, Type (0, 1), None
#     Edge 66, Type (0, 1), None
#     Edge 67, Type (0, 1), None
#     Edge 68, Type (0, 1), None
#     Edge 69, Type (0, 1), None
#     Edge 70, Type (0, 1), None
#     Edge 71, Type (0, 1), None
#     Edge 72, Type (0, 1), None
#     Edge 73, Type (0, 1), None
#     Edge 74, Type (0, 1), None
#     Edge 75, Type (0, 1), None
# Relax obj value: 0.145
# Max RMSD: 0.263
# Mean RMSD: 0.154
data_MOF--net-ctn--node1-KUFVIS_clean_sbu_0--node2-QEWDON_clean_linker_0--edge1-none
_symmetry_space_group_name_H-M    P1
_symmetry_Int_Tables_number       1
_symmetry_cell_setting            triclinic
loop_
_symmetry_equiv_pos_as_xyz
'x, y, z'
_cell_length_a     21.820929
_cell_length_b     23.438571
_cell_length_c     25.664162
_cell_angle_alpha  104.36979
_cell_angle_beta   89.72295
_cell_angle_gamma 97.574364
loop_
_atom_site_label
_atom_site_type_symbol
_atom_site_fract_x
_atom_site_fract_y
_atom_site_fract_z
_atom_type_partial_charge
H0 H 0.18927 1.0205 0.03469 0.0
C1 C 0.17018 1.01055 0.07102 0.0
C2 C 0.1848 0.96121 0.08804 0.0
C3 C 0.13445 0.05076 0.10119 0.0
H4 H 0.16688 0.91395 0.15168 0.0
C5 C 0.15774 0.95193 0.13759 0.0
C6 C 0.11843 0.99286 0.16847 0.0
C7 C 0.10959 0.04243 0.14918 0.0
C8 C 0.12983 0.10621 0.0856 0.0
H9 H 0.08276 0.07574 0.17148 0.0
C10 C 0.08947 0.10786 0.04357 0.0
C11 C 0.08591 0.16211 1.03066 0.0
C12 C 0.1677 0.15788 0.11292 0.0
H13 H 0.19941 0.15657 0.14458 0.0
C14 C 0.16523 0.21133 0.09927 0.0
H15 H 0.05975 0.06803 1.02267 0.0
C16 C 0.1243 0.21363 0.05869 0.0
H17 H 0.12225 0.25601 0.04943 0.0
H18 H 0.19459 0.25114 0.12054 0.0
H19 H 0.48747 0.74696 0.29772 0.0
C20 C 0.44103 0.72586 0.28551 0.0
C21 C 0.40917 0.69022 0.3163 0.0
C22 C 0.41538 0.73156 0.23749 0.0
H23 H 0.32336 0.63543 0.32343 0.0
C24 C 0.34754 0.66485 0.30126 0.0
C25 C 0.31904 0.67397 0.25485 0.0
C26 C 0.35399 0.70527 0.22274 0.0
C27 C 0.4533 0.76105 0.20045 0.0
H28 H 0.33403 0.7054 0.18421 0.0
C29 C 0.42354 0.78817 0.16714 0.0
C30 C 0.45417 0.80873 0.12584 0.0
C31 C 0.51753 0.75994 0.19534 0.0
H32 H 0.54291 0.73936 0.22014 0.0
C33 C 0.54956 0.78412 0.15651 0.0
H34 H 0.37505 0.79226 0.17287 0.0
C35 C 0.51771 0.80678 0.12049 0.0
H36 H 0.5426 0.8237 0.08966 0.0
H37 H 0.59896 0.78354 0.15326 0.0
H38 H 0.14456 0.51868 0.0584 0.0
C39 C 0.10904 0.54298 0.04853 0.0
C40 C 0.08655 0.58568 0.0889 0.0
C41 C 0.08495 0.52869 0.99574 0.0
H42 H 1.02517 0.65198 0.10449 0.0
C43 C 0.04089 0.61709 0.07405 0.0
C44 C 1.01437 0.60277 1.0207 0.0
C45 C 1.03667 0.55721 0.98179 0.0
C46 C 0.10321 0.47482 0.96044 0.0
H47 H 1.01643 0.54355 0.94141 0.0
C48 C 0.07821 0.42134 0.97134 0.0
C49 C 0.10456 0.3693 0.95137 0.0
C50 C 0.15522 0.47672 0.92837 0.0
H51 H 0.17679 0.51852 0.92163 0.0
C52 C 0.18146 0.42469 0.90725 0.0
H53 H 1.03912 0.4212 0.99768 0.0
C54 C 0.15664 0.37117 0.91898 0.0
H55 H 0.17732 0.33136 0.90191 0.0
H56 H 0.22169 0.426 0.88251 0.0
H57 H 0.85592 0.8639 0.30162 0.0
C58 C 0.84671 0.85382 0.25863 0.0
C59 C 0.88261 0.88649 0.22671 0.0
C60 C 0.79878 0.80785 0.23456 0.0
H61 H 0.90235 0.88958 0.14431 0.0
C62 C 0.87303 0.86797 0.16993 0.0
C63 C 0.82591 0.82118 0.14627 0.0
C64 C 0.78674 0.79527 0.17928 0.0
C65 C 0.77395 0.75949 0.25976 0.0
H66 H 0.75188 0.75823 0.1609 0.0
C67 C 0.71676 0.75794 0.28602 0.0
C68 C 0.69007 0.70473 0.29872 0.0
C69 C 0.80122 0.70709 0.24408 0.0
H70 H 0.84055 0.70535 0.2183 0.0
C71 C 0.77577 0.65534 0.25737 0.0
H72 H 0.69335 0.79708 0.29585 0.0
C73 C 0.72089 0.65419 0.28475 0.0
H74 H 0.70191 0.61299 0.29429 0.0
H75 H 0.79783 0.61554 0.24515 0.0
H76 H 0.21337 0.04859 0.55404 0.0
C77 C 0.18469 0.05483 0.52214 0.0
C78 C 0.20914 0.09282 0.4887 0.0
C79 C 0.12344 1.0233 0.51244 0.0
H80 H 0.19706 0.10586 0.40828 0.0
C81 C 0.17546 0.08734 0.43958 0.0
C82 C 0.114 0.0576 0.43085 0.0
C83 C 0.08698 1.03493 0.47234 0.0
C84 C 0.10275 0.96321 0.52384 0.0
H85 H 1.03964 1.0139 0.46695 0.0
C86 C 0.07472 0.95271 0.5719 0.0
C87 C 0.04 0.89579 0.57128 0.0
C88 C 0.09805 0.91511 0.47787 0.0
H89 H 0.1175 0.92106 0.44036 0.0
C90 C 0.06293 0.86106 0.47712 0.0
H91 H 0.07876 0.98806 0.6085 0.0
C92 C 1.03346 0.85176 0.52271 0.0
H93 H 1.00815 0.80815 0.52048 0.0
H94 H 0.05734 0.82616 0.44025 0.0
H95 H 0.35529 0.6452 0.76612 0.0
C96 C 0.34585 0.67153 0.80578 0.0
C97 C 0.37398 0.66227 0.85115 0.0
C98 C 0.30408 0.71249 0.81028 0.0
H99 H 0.38155 0.69308 0.93922 0.0
C100 C 0.36046 0.69857 0.90307 0.0
C101 C 0.32079 0.74416 0.90754 0.0
C102 C 0.2909 0.74705 0.86078 0.0
C103 C 0.27445 0.71992 0.76157 0.0
H104 H 0.25645 0.77604 0.86365 0.0
C105 C 0.21045 0.72061 0.75966 0.0
C106 C 0.18266 0.73161 0.71505 0.0
C107 C 0.31014 0.72794 0.71752 0.0
H108 H 0.35976 0.72795 0.71854 0.0
C109 C 0.28206 0.73751 0.67233 0.0
H110 H 0.18255 0.71421 0.79336 0.0
C111 C 0.2186 0.7399 0.6712 0.0
H112 H 0.19752 0.74824 0.63615 0.0
H113 H 0.30957 0.74403 0.63854 0.0
H114 H 1.03836 0.67232 0.50211 0.0
C115 C 1.01745 0.63289 0.51372 0.0
C116 C 0.99345 0.63715 0.56573 0.0
C117 C 1.0076 0.579 0.47445 0.0
H118 H 0.91637 0.59551 0.60269 0.0
C119 C 0.95066 0.58824 0.57248 0.0
C120 C 0.94874 0.53165 0.53569 0.0
C121 C 0.98618 0.52774 0.49072 0.0
C122 C 0.99395 0.5779 0.41754 0.0
H123 H 0.98432 0.48585 0.46105 0.0
C124 C 0.0401 0.58973 0.38201 0.0
C125 C 1.02445 0.58339 0.32742 0.0
C126 C 0.93211 0.5617 0.39812 0.0
H127 H 0.89537 0.55316 0.42483 0.0
C128 C 0.91698 0.55536 0.34407 0.0
H129 H 0.0878 0.60261 0.39638 0.0
C130 C 0.96314 0.56552 0.30858 0.0
H131 H 0.95106 0.55971 0.26652 0.0
H132 H 0.86943 0.54203 0.32963 0.0
H133 H 0.89312 0.88491 0.7852 0.0
C134 C 0.901 0.87396 0.823 0.0
C135 C 0.94453 0.8353 0.82543 0.0
C136 C 0.86096 0.89004 0.86575 0.0
H137 H 0.97061 0.77345 0.87003 0.0
C138 C 0.94496 0.81025 0.87105 0.0
C139 C 0.90719 0.82825 0.91535 0.0
C140 C 0.87245 0.87476 0.9142 0.0
C141 C 0.79858 0.90707 0.85574 0.0
H142 H 0.84471 0.89106 0.94846 0.0
C143 C 0.78863 0.93977 0.81772 0.0
C144 C 0.72789 0.94644 0.80355 0.0
C145 C 0.74623 0.88437 0.88076 0.0
H146 H 0.75044 0.85934 0.91036 0.0
C147 C 0.68652 0.8906 0.86623 0.0
H148 H 0.82762 0.96035 0.79954 0.0
C149 C 0.67726 0.92083 0.82738 0.0
H150 H 0.63054 0.92671 0.81777 0.0
H151 H 0.6472 0.87183 0.8853 0.0
H152 H 0.39312 0.38491 0.2852 0.0
C153 C 0.401 0.37396 0.323 0.0
C154 C 0.44453 0.3353 0.32543 0.0
C155 C 0.36096 0.39004 0.36575 0.0
H156 H 0.47061 0.27345 0.37003 0.0
C157 C 0.44496 0.31025 0.37105 0.0
C158 C 0.40719 0.32825 0.41535 0.0
C159 C 0.37245 0.37476 0.4142 0.0
C160 C 0.29858 0.40707 0.35574 0.0
H161 H 0.34472 0.39106 0.44846 0.0
C162 C 0.28863 0.43977 0.31772 0.0
C163 C 0.22789 0.44644 0.30355 0.0
C164 C 0.24623 0.38437 0.38076 0.0
H165 H 0.25044 0.35934 0.41037 0.0
C166 C 0.18652 0.3906 0.36623 0.0
H167 H 0.32762 0.46035 0.29954 0.0
C168 C 0.17726 0.42083 0.32738 0.0
H169 H 0.13054 0.42671 0.31777 0.0
H170 H 0.1472 0.37183 0.3853 0.0
H171 H 0.64455 1.01869 0.5584 0.0
C172 C 0.60903 0.04298 0.54853 0.0
C173 C 0.58655 0.08568 0.5889 0.0
C174 C 0.58495 1.02869 0.49574 0.0
H175 H 0.52517 0.15198 0.60449 0.0
C176 C 0.54089 0.11709 0.57405 0.0
C177 C 0.51437 0.10277 0.5207 0.0
C178 C 0.53667 0.05721 0.48179 0.0
C179 C 0.60321 0.97482 0.46044 0.0
H180 H 0.51643 0.04355 0.44141 0.0
C181 C 0.5782 0.92134 0.47134 0.0
C182 C 0.60456 0.8693 0.45137 0.0
C183 C 0.65522 0.97672 0.42837 0.0
H184 H 0.67679 1.01852 0.42163 0.0
C185 C 0.68146 0.92469 0.40725 0.0
H186 H 0.53912 0.9212 0.49768 0.0
C187 C 0.65664 0.87117 0.41898 0.0
H188 H 0.67732 0.83136 0.40191 0.0
H189 H 0.72169 0.926 0.38251 0.0
H190 H 0.35592 0.3639 0.80161 0.0
C191 C 0.34671 0.35382 0.75863 0.0
C192 C 0.38261 0.38649 0.72671 0.0
C193 C 0.29878 0.30785 0.73456 0.0
H194 H 0.40235 0.38958 0.64431 0.0
C195 C 0.37303 0.36797 0.66993 0.0
C196 C 0.32591 0.32118 0.64627 0.0
C197 C 0.28674 0.29527 0.67928 0.0
C198 C 0.27395 0.25949 0.75976 0.0
H199 H 0.25188 0.25823 0.6609 0.0
C200 C 0.21676 0.25794 0.78602 0.0
C201 C 0.19007 0.20473 0.79872 0.0
C202 C 0.30122 0.20708 0.74408 0.0
H203 H 0.34054 0.20534 0.7183 0.0
C204 C 0.27576 0.15534 0.75737 0.0
H205 H 0.19335 0.29708 0.79585 0.0
C206 C 0.22089 0.15419 0.78475 0.0
H207 H 0.20191 0.11299 0.79429 0.0
H208 H 0.29783 0.11554 0.74515 0.0
H209 H 0.98747 0.24696 0.79772 0.0
C210 C 0.94103 0.22586 0.78551 0.0
C211 C 0.90917 0.19022 0.8163 0.0
C212 C 0.91538 0.23156 0.73749 0.0
H213 H 0.82336 0.13543 0.82343 0.0
C214 C 0.84754 0.16485 0.80126 0.0
C215 C 0.81904 0.17397 0.75485 0.0
C216 C 0.85399 0.20527 0.72274 0.0
C217 C 0.9533 0.26105 0.70045 0.0
H218 H 0.83403 0.2054 0.68421 0.0
C219 C 0.92354 0.28817 0.66714 0.0
C220 C 0.95417 0.30873 0.62584 0.0
C221 C 1.01753 0.25994 0.69534 0.0
H222 H 0.04291 0.23936 0.72014 0.0
C223 C 0.04956 0.28412 0.65651 0.0
H224 H 0.87505 0.29226 0.67287 0.0
C225 C 1.01771 0.30678 0.62049 0.0
H226 H 0.0426 0.3237 0.58966 0.0
H227 H 0.09896 0.28354 0.65326 0.0
H228 H 0.68927 0.5205 0.53469 0.0
C229 C 0.67018 0.51055 0.57102 0.0
C230 C 0.6848 0.46121 0.58804 0.0
C231 C 0.63445 0.55076 0.60119 0.0
H232 H 0.66688 0.41395 0.65168 0.0
C233 C 0.65774 0.45193 0.63759 0.0
C234 C 0.61843 0.49286 0.66847 0.0
C235 C 0.60959 0.54243 0.64918 0.0
C236 C 0.62983 0.60621 0.5856 0.0
H237 H 0.58276 0.57574 0.67148 0.0
C238 C 0.58947 0.60786 0.54357 0.0
C239 C 0.58591 0.66211 0.53066 0.0
C240 C 0.6677 0.65788 0.61292 0.0
H241 H 0.69941 0.65657 0.64458 0.0
C242 C 0.66523 0.71133 0.59928 0.0
H243 H 0.55975 0.56803 0.52267 0.0
C244 C 0.6243 0.71363 0.55869 0.0
H245 H 0.62225 0.75601 0.54943 0.0
H246 H 0.69459 0.75114 0.62055 0.0
H247 H 0.71337 0.54859 0.05404 0.0
C248 C 0.68469 0.55483 1.02214 0.0
C249 C 0.70914 0.59282 0.9887 0.0
C250 C 0.62344 0.5233 1.01244 0.0
H251 H 0.69706 0.60585 0.90828 0.0
C252 C 0.67546 0.58734 0.93958 0.0
C253 C 0.614 0.5576 0.93085 0.0
C254 C 0.58698 0.53493 0.97234 0.0
C255 C 0.60275 0.4632 1.02384 0.0
H256 H 0.53964 0.5139 0.96695 0.0
C257 C 0.57472 0.45271 0.0719 0.0
C258 C 0.54 0.39579 0.07128 0.0
C259 C 0.59805 0.41511 0.97787 0.0
H260 H 0.6175 0.42106 0.94036 0.0
C261 C 0.56293 0.36106 0.97712 0.0
H262 H 0.57876 0.48806 0.1085 0.0
C263 C 0.53346 0.35176 1.02271 0.0
H264 H 0.50815 0.30815 1.02048 0.0
H265 H 0.55734 0.32616 0.94025 0.0
H266 H 0.85529 0.1452 0.26612 0.0
C267 C 0.84585 0.17153 0.30578 0.0
C268 C 0.87398 0.16227 0.35115 0.0
C269 C 0.80408 0.21249 0.31028 0.0
H270 H 0.88155 0.19308 0.43922 0.0
C271 C 0.86046 0.19857 0.40307 0.0
C272 C 0.82079 0.24416 0.40754 0.0
C273 C 0.7909 0.24705 0.36078 0.0
C274 C 0.77445 0.21992 0.26158 0.0
H275 H 0.75645 0.27604 0.36365 0.0
C276 C 0.71045 0.22061 0.25966 0.0
C277 C 0.68266 0.23161 0.21505 0.0
C278 C 0.81014 0.22794 0.21752 0.0
H279 H 0.85976 0.22795 0.21854 0.0
C280 C 0.78206 0.23751 0.17233 0.0
H281 H 0.68255 0.21421 0.29336 0.0
C282 C 0.7186 0.2399 0.1712 0.0
H283 H 0.69752 0.24824 0.13615 0.0
H284 H 0.80957 0.24403 0.13854 0.0
H285 H 0.53836 0.17232 1.00211 0.0
C286 C 0.51745 0.13289 1.01372 0.0
C287 C 0.49345 0.13715 0.06573 0.0
C288 C 0.5076 0.079 0.97444 0.0
H289 H 0.41637 0.09551 0.10269 0.0
C290 C 0.45066 0.08824 0.07248 0.0
C291 C 0.44874 1.03165 0.03569 0.0
C292 C 0.48618 1.02774 0.99072 0.0
C293 C 0.49395 0.0779 0.91754 0.0
H294 H 0.48432 0.98585 0.96105 0.0
C295 C 0.5401 0.08973 0.88201 0.0
C296 C 0.52445 0.08339 0.82742 0.0
C297 C 0.43211 0.0617 0.89812 0.0
H298 H 0.39537 0.05316 0.92483 0.0
C299 C 0.41698 0.05536 0.84407 0.0
H300 H 0.5878 0.10261 0.89638 0.0
C301 C 0.46314 0.06552 0.80858 0.0
H302 H 0.45106 0.05971 0.76652 0.0
H303 H 0.36943 0.04203 0.82963 0.0
Mn304 Mn 0.34294 0.86122 0.04202 0.0
Mn305 Mn 0.29794 0.91684 0.94438 0.0
C306 C 0.31167 0.79058 0.95922 0.0
C307 C 0.4166 0.83334 0.09165 0.0
C308 C 0.23101 0.92584 0.05264 0.0
O309 O 0.38487 0.95024 0.06248 0.0
O310 O 0.37022 0.96808 0.98216 0.0
C311 C 0.40353 0.90309 0.87097 0.0
N312 N 0.34173 0.89899 0.87926 0.0
C313 C 0.31858 0.88674 0.78565 0.0
C314 C 0.38216 0.89291 0.77594 0.0
C315 C 0.42487 0.89968 0.81867 0.0
C316 C 0.30047 0.88759 0.83807 0.0
H317 H 0.43576 0.90869 0.90401 0.0
C318 C 0.39586 0.9825 1.02888 0.0
O319 O 0.36586 0.85066 0.11059 0.0
O320 O 0.42752 0.83377 0.04187 0.0
N321 N 0.22695 0.87582 0.90195 0.0
C322 C 0.16779 0.86578 0.91783 0.0
C323 C 0.11891 0.85593 0.87993 0.0
C324 C 0.13135 0.85876 0.82674 0.0
C325 C 0.1926 0.86919 0.81129 0.0
C326 C 0.23925 0.87699 0.85035 0.0
H327 H 0.15795 0.86757 0.95943 0.0
O328 O 0.30895 0.77577 1.00469 0.0
O329 O 0.32712 0.84781 0.96457 0.0
O330 O 0.25632 0.8858 0.06633 0.0
O331 O 0.24746 0.94129 1.00958 0.0
C332 C 0.20939 0.87379 0.75914 0.0
C333 C 0.27236 0.88095 0.74592 0.0
H334 H 0.39863 0.892 0.7359 0.0
H335 H 0.47398 0.90357 0.81152 0.0
H336 H 0.07174 0.84866 0.89228 0.0
H337 H 0.09371 0.85353 0.79817 0.0
H338 H 0.17444 0.87116 0.72863 0.0
H339 H 0.28463 0.88217 0.70523 0.0
Mn340 Mn 0.18466 0.55918 0.23162 0.0
Mn341 Mn 0.14377 0.69482 0.24772 0.0
C342 C 0.26144 0.63615 0.23109 0.0
C343 C 0.2163 0.48869 0.2723 0.0
C344 C 0.11276 0.59763 0.1454 0.0
O345 O 0.10165 0.55342 0.26703 0.0
O346 O 0.08483 0.64925 0.28642 0.0
C347 C 0.15717 0.7475 0.36415 0.0
N348 N 0.17571 0.74743 0.31347 0.0
C349 C 0.22982 0.84635 0.34347 0.0
C350 C 0.20958 0.84819 0.39534 0.0
C351 C 0.17416 0.79814 0.40591 0.0
C352 C 0.21141 0.7947 0.3031 0.0
H353 H 0.12749 0.7103 0.37233 0.0
C354 C 0.07227 0.59568 0.29031 0.0
O355 O 0.18848 0.47245 0.22515 0.0
O356 O 0.2246 0.54468 0.29548 0.0
N357 N 0.19822 0.74328 0.21316 0.0
C358 C 0.20388 0.73861 0.15945 0.0
C359 C 0.23475 0.78641 0.14206 0.0
C360 C 0.25894 0.83849 0.18008 0.0
C361 C 0.25478 0.84157 0.23508 0.0
C362 C 0.2234 0.79247 0.25001 0.0
H363 H 0.18308 0.6997 0.12996 0.0
O364 O 0.26776 0.582 0.20604 0.0
O365 O 0.20772 0.64379 0.2523 0.0
O366 O 0.14332 0.55993 0.15874 0.0
O367 O 0.10659 0.64718 0.17762 0.0
C368 C 0.27716 0.8926 0.27565 0.0
C369 C 0.26431 0.89519 0.32979 0.0
H370 H 0.21955 0.88867 0.42685 0.0
H371 H 0.15795 0.79928 0.44574 0.0
H372 H 0.23796 0.78383 0.0995 0.0
H373 H 0.27859 0.87649 0.16647 0.0
H374 H 0.30312 0.93079 0.26613 0.0
H375 H 0.27974 0.93552 0.36041 0.0
Mn376 Mn 0.87462 0.68881 1.00699 0.0
Mn377 Mn 0.75006 0.75111 0.98544 0.0
C378 C 0.77077 0.63429 1.00143 0.0
C379 C 0.96325 0.63575 1.00856 0.0
C380 C 0.82213 0.79029 0.08828 0.0
O381 O 0.91361 0.74784 0.96214 0.0
O382 O 0.8281 0.79282 0.96541 0.0
C383 C 0.75024 0.73965 0.86823 0.0
N384 N 0.72058 0.72908 0.9124 0.0
C385 C 0.62126 0.72039 0.86888 0.0
C386 C 0.65067 0.73247 0.82344 0.0
C387 C 0.71544 0.74255 0.82339 0.0
C388 C 0.65822 0.71896 0.91276 0.0
H389 H 0.79982 0.74981 0.86836 0.0
C390 C 0.88436 0.78867 0.95216 0.0
O391 O 0.9549 0.68398 0.04167 0.0
O392 O 0.92184 0.61812 0.96946 0.0
N393 N 0.67106 0.71611 1.00184 0.0
C394 C 0.65032 0.70474 0.04886 0.0
C395 C 0.58702 0.68642 0.0533 0.0
C396 C 0.54546 0.68545 1.01135 0.0
C397 C 0.5683 0.69881 0.96397 0.0
C398 C 0.63212 0.711 0.95992 0.0
H399 H 0.68208 0.7087 0.08212 0.0
O400 O 0.81337 0.62834 0.03429 0.0
O401 O 0.78737 0.6758 0.97668 0.0
O402 O 0.8644 0.75956 0.07051 0.0
O403 O 0.77109 0.78233 0.06276 0.0
C404 C 0.53044 0.7016 0.92093 0.0
C405 C 0.55673 0.71367 0.87384 0.0
H406 H 0.62403 0.73599 0.78914 0.0
H407 H 0.73845 0.75655 0.79044 0.0
H408 H 0.57009 0.67477 0.08949 0.0
H409 H 0.49629 0.67416 1.01584 0.0
H410 H 0.48125 0.6957 0.9244 0.0
H411 H 0.52712 0.71846 0.84194 0.0
Mn412 Mn 0.9788 0.03731 0.29787 0.0
Mn413 Mn 1.03931 0.91142 0.29632 0.0
C414 C 0.92402 0.94349 0.25186 0.0
C415 C 0.9194 0.11719 0.33871 0.0
C416 C 0.08293 0.98676 0.21912 0.0
O417 O 0.04601 0.06665 0.35957 0.0
O418 O 0.07941 0.97931 0.3552 0.0
C419 C 0.97166 0.90454 0.39509 0.0
N420 N 0.99432 0.87689 0.34743 0.0
C421 C 0.94326 0.78186 0.35429 0.0
C422 C 0.92431 0.80844 0.4059 0.0
C423 C 0.93645 0.87054 0.4255 0.0
C424 C 0.97609 0.81873 0.32543 0.0
H425 H 0.97828 0.9522 0.40819 0.0
C426 C 0.08134 1.03516 0.37648 0.0
O427 O 0.96157 0.12119 0.30353 0.0
O428 O 0.91097 0.06617 0.35076 0.0
N429 N 1.00739 0.84024 0.24497 0.0
C430 C 1.0152 0.8254 0.19096 0.0
C431 C 0.99653 0.76689 0.16169 0.0
C432 C 0.97103 0.72391 0.18828 0.0
C433 C 0.96545 0.73985 0.24417 0.0
C434 C 0.98416 0.79902 0.27112 0.0
H435 H 1.03573 0.85784 0.17037 0.0
O436 O 0.91311 0.99268 0.24162 0.0
O437 O 0.9659 0.95067 0.28995 0.0
O438 O 0.04644 1.02558 0.23871 0.0
O439 O 0.08675 0.94243 0.23916 0.0
C440 C 0.94 0.69986 0.27401 0.0
C441 C 0.92749 0.72112 0.3289 0.0
H442 H 0.89774 0.78213 0.42955 0.0
H443 H 0.91896 0.89205 0.46388 0.0
H444 H 1.00288 0.75544 0.11895 0.0
H445 H 0.95474 0.67906 0.16562 0.0
H446 H 0.9257 0.65361 0.25414 0.0
H447 H 0.90348 0.69097 0.35045 0.0
Mn448 Mn 0.37462 0.18881 0.50699 0.0
Mn449 Mn 0.25006 0.25111 0.48544 0.0
C450 C 0.27077 0.13429 0.50143 0.0
C451 C 0.46325 0.13575 0.50856 0.0
C452 C 0.32213 0.29029 0.58828 0.0
O453 O 0.41361 0.24784 0.46214 0.0
O454 O 0.3281 0.29282 0.46541 0.0
C455 C 0.25024 0.23965 0.36823 0.0
N456 N 0.22058 0.22908 0.4124 0.0
C457 C 0.12127 0.22039 0.36887 0.0
C458 C 0.15068 0.23248 0.32344 0.0
C459 C 0.21545 0.24255 0.32338 0.0
C460 C 0.15822 0.21896 0.41275 0.0
H461 H 0.29983 0.24981 0.36836 0.0
C462 C 0.38436 0.28867 0.45216 0.0
O463 O 0.4549 0.18398 0.54167 0.0
O464 O 0.42184 0.11812 0.46946 0.0
N465 N 0.17106 0.21612 0.50184 0.0
C466 C 0.15032 0.20474 0.54886 0.0
C467 C 0.08702 0.18642 0.5533 0.0
C468 C 0.04546 0.18545 0.51135 0.0
C469 C 0.06831 0.19882 0.46396 0.0
C470 C 0.13212 0.211 0.45991 0.0
H471 H 0.18208 0.2087 0.58211 0.0
O472 O 0.31337 0.12834 0.53429 0.0
O473 O 0.28737 0.1758 0.47668 0.0
O474 O 0.3644 0.25956 0.57051 0.0
O475 O 0.27109 0.28233 0.56276 0.0
C476 C 1.03044 0.2016 0.42093 0.0
C477 C 0.05673 0.21367 0.37383 0.0
H478 H 0.12404 0.236 0.28913 0.0
H479 H 0.23846 0.25655 0.29043 0.0
H480 H 0.07008 0.17477 0.58949 0.0
H481 H 0.99629 0.17416 0.51583 0.0
H482 H 0.98125 0.19571 0.42439 0.0
H483 H 1.02713 0.21847 0.34193 0.0
Mn484 Mn 0.4788 0.5373 0.79787 0.0
Mn485 Mn 0.53931 0.41141 0.79632 0.0
C486 C 0.42402 0.44349 0.75186 0.0
C487 C 0.4194 0.61719 0.83871 0.0
C488 C 0.58293 0.48676 0.71912 0.0
O489 O 0.54601 0.56665 0.85957 0.0
O490 O 0.57941 0.47931 0.8552 0.0
C491 C 0.47166 0.40454 0.89509 0.0
N492 N 0.49432 0.37689 0.84743 0.0
C493 C 0.44326 0.28186 0.85429 0.0
C494 C 0.42431 0.30844 0.9059 0.0
C495 C 0.43645 0.37053 0.9255 0.0
C496 C 0.47609 0.31873 0.82543 0.0
H497 H 0.47828 0.4522 0.90819 0.0
C498 C 0.58134 0.53516 0.87648 0.0
O499 O 0.46157 0.62119 0.80353 0.0
O500 O 0.41097 0.56617 0.85076 0.0
N501 N 0.50739 0.34024 0.74497 0.0
C502 C 0.5152 0.3254 0.69096 0.0
C503 C 0.49653 0.26689 0.66169 0.0
C504 C 0.47103 0.22391 0.68828 0.0
C505 C 0.46545 0.23985 0.74417 0.0
C506 C 0.48416 0.29902 0.77112 0.0
H507 H 0.53573 0.35784 0.67037 0.0
O508 O 0.41311 0.49268 0.74162 0.0
O509 O 0.4659 0.45067 0.78995 0.0
O510 O 0.54644 0.52558 0.73871 0.0
O511 O 0.58675 0.44243 0.73916 0.0
C512 C 0.44 0.19986 0.77401 0.0
C513 C 0.42749 0.22112 0.8289 0.0
H514 H 0.39774 0.28213 0.92955 0.0
H515 H 0.41896 0.39205 0.96388 0.0
H516 H 0.50288 0.25544 0.61895 0.0
H517 H 0.45474 0.17906 0.66562 0.0
H518 H 0.4257 0.15361 0.75414 0.0
H519 H 0.40348 0.19097 0.85045 0.0
Mn520 Mn 0.84294 0.36122 0.54202 0.0
Mn521 Mn 0.79794 0.41684 0.44438 0.0
C522 C 0.81167 0.29058 0.45922 0.0
C523 C 0.9166 0.33334 0.59165 0.0
C524 C 0.73101 0.42584 0.55264 0.0
O525 O 0.88487 0.45024 0.56248 0.0
O526 O 0.87022 0.46808 0.48216 0.0
C527 C 0.90353 0.40309 0.37097 0.0
N528 N 0.84173 0.39899 0.37927 0.0
C529 C 0.81858 0.38674 0.28565 0.0
C530 C 0.88216 0.39291 0.27594 0.0
C531 C 0.92487 0.39968 0.31867 0.0
C532 C 0.80047 0.38759 0.33807 0.0
H533 H 0.93576 0.40869 0.40401 0.0
C534 C 0.89586 0.4825 0.52888 0.0
O535 O 0.86586 0.35066 0.61059 0.0
O536 O 0.92752 0.33377 0.54187 0.0
N537 N 0.72695 0.37582 0.40195 0.0
C538 C 0.66779 0.36578 0.41783 0.0
C539 C 0.61891 0.35593 0.37993 0.0
C540 C 0.63135 0.35876 0.32674 0.0
C541 C 0.6926 0.36919 0.31129 0.0
C542 C 0.73925 0.37699 0.35035 0.0
H543 H 0.65795 0.36757 0.45943 0.0
O544 O 0.80895 0.27577 0.50469 0.0
O545 O 0.82712 0.34781 0.46457 0.0
O546 O 0.75632 0.3858 0.56633 0.0
O547 O 0.74746 0.44129 0.50958 0.0
C548 C 0.70939 0.37379 0.25914 0.0
C549 C 0.77236 0.38095 0.24592 0.0
H550 H 0.89863 0.39199 0.2359 0.0
H551 H 0.97398 0.40357 0.31152 0.0
H552 H 0.57175 0.34866 0.39228 0.0
H553 H 0.59372 0.35353 0.29817 0.0
H554 H 0.67444 0.37116 0.22863 0.0
H555 H 0.78463 0.38217 0.20523 0.0
Mn556 Mn 0.68466 0.05918 0.73162 0.0
Mn557 Mn 0.64377 0.19482 0.74772 0.0
C558 C 0.76144 0.13615 0.73109 0.0
C559 C 0.7163 0.98869 0.7723 0.0
C560 C 0.61276 0.09763 0.6454 0.0
O561 O 0.60165 0.05342 0.76703 0.0
O562 O 0.58483 0.14925 0.78642 0.0
C563 C 0.65717 0.2475 0.86415 0.0
N564 N 0.67571 0.24743 0.81347 0.0
C565 C 0.72982 0.34635 0.84347 0.0
C566 C 0.70958 0.34819 0.89534 0.0
C567 C 0.67416 0.29814 0.90591 0.0
C568 C 0.71141 0.2947 0.8031 0.0
H569 H 0.62749 0.2103 0.87233 0.0
C570 C 0.57227 0.09568 0.79031 0.0
O571 O 0.68848 0.97245 0.72515 0.0
O572 O 0.7246 0.04468 0.79548 0.0
N573 N 0.69822 0.24328 0.71316 0.0
C574 C 0.70388 0.23861 0.65945 0.0
C575 C 0.73475 0.28641 0.64206 0.0
C576 C 0.75894 0.33849 0.68008 0.0
C577 C 0.75478 0.34157 0.73508 0.0
C578 C 0.7234 0.29247 0.75001 0.0
H579 H 0.68308 0.1997 0.62996 0.0
O580 O 0.76776 0.082 0.70604 0.0
O581 O 0.70772 0.14379 0.7523 0.0
O582 O 0.64332 0.05993 0.65874 0.0
O583 O 0.60658 0.14718 0.67762 0.0
C584 C 0.77716 0.3926 0.77565 0.0
C585 C 0.76431 0.39519 0.82979 0.0
H586 H 0.71955 0.38867 0.92685 0.0
H587 H 0.65795 0.29928 0.94574 0.0
H588 H 0.73796 0.28383 0.5995 0.0
H589 H 0.77859 0.37649 0.66647 0.0
H590 H 0.80312 0.43079 0.76613 0.0
H591 H 0.77974 0.43552 0.86041 0.0
Mn592 Mn 0.05146 0.19264 0.88843 0.0
Mn593 Mn 0.94945 0.24777 0.97413 0.0
C594 C 0.94659 0.17427 0.85762 0.0
C595 C 0.13371 0.20022 0.83054 0.0
C596 C 1.03944 0.16872 0.99213 0.0
O597 O 0.09635 0.26518 0.94258 0.0
O598 O 1.01461 0.31316 0.97169 0.0
C599 C 0.89224 0.347 0.95671 0.0
N600 N 0.88525 0.28872 0.95789 0.0
C601 C 0.78311 0.29491 0.99336 0.0
C602 C 0.79094 0.35561 0.99511 0.0
C603 C 0.84468 0.38128 0.97485 0.0
C604 C 0.83192 0.26284 0.97453 0.0
H605 H 0.93558 0.36823 0.94563 0.0
C606 C 0.07165 0.313 0.95884 0.0
O607 O 0.12969 0.16497 0.86216 0.0
O608 O 0.08753 0.22998 0.82969 0.0
N609 N 0.88526 0.18368 0.97466 0.0
C610 C 0.88846 0.12654 0.97666 0.0
C611 C 0.83513 0.09136 0.98766 0.0
C612 C 0.77991 0.11617 0.99897 0.0
C613 C 0.77797 0.17501 0.99657 0.0
C614 C 0.83111 0.20593 0.98052 0.0
H615 H 0.93108 0.1078 0.97041 0.0
O616 O 0.98614 0.1378 0.83807 0.0
O617 O 0.96933 0.2175 0.89753 0.0
O618 O 0.04029 0.14229 0.94308 0.0
O619 O 1.01136 0.21327 1.00662 0.0
C620 C 0.72679 0.20532 1.01239 0.0
C621 C 0.73052 0.26599 1.01313 0.0
H622 H 0.75568 0.38292 1.0117 0.0
H623 H 0.85061 0.42805 0.97556 0.0
H624 H 0.83717 0.04595 0.98935 0.0
H625 H 0.73967 0.09 1.0102 0.0
H626 H 0.68564 0.1833 1.02662 0.0
H627 H 0.69264 0.29003 1.02911 0.0
Mn628 Mn 0.55146 0.69264 0.38843 0.0
Mn629 Mn 0.44945 0.74777 0.47413 0.0
C630 C 0.44659 0.67427 0.35762 0.0
C631 C 0.63371 0.70022 0.33054 0.0
C632 C 0.53944 0.66872 0.49213 0.0
O633 O 0.59635 0.76518 0.44258 0.0
O634 O 0.51461 0.81316 0.47169 0.0
C635 C 0.39224 0.847 0.45671 0.0
N636 N 0.38525 0.78872 0.45789 0.0
C637 C 0.28311 0.79491 0.49336 0.0
C638 C 0.29094 0.85561 0.49511 0.0
C639 C 0.34468 0.88128 0.47485 0.0
C640 C 0.33192 0.76284 0.47453 0.0
H641 H 0.43558 0.86823 0.44563 0.0
C642 C 0.57165 0.813 0.45884 0.0
O643 O 0.62969 0.66497 0.36216 0.0
O644 O 0.58753 0.72998 0.32969 0.0
N645 N 0.38526 0.68368 0.47466 0.0
C646 C 0.38846 0.62654 0.47666 0.0
C647 C 0.33513 0.59136 0.48766 0.0
C648 C 0.27991 0.61617 0.49896 0.0
C649 C 0.27797 0.675 0.49657 0.0
C650 C 0.33111 0.70593 0.48052 0.0
H651 H 0.43108 0.6078 0.47041 0.0
O652 O 0.48614 0.6378 0.33807 0.0
O653 O 0.46933 0.71749 0.39753 0.0
O654 O 0.54029 0.64229 0.44308 0.0
O655 O 0.51136 0.71327 0.50662 0.0
C656 C 0.22679 0.70532 0.51239 0.0
C657 C 0.23052 0.76599 0.51313 0.0
H658 H 0.25568 0.88291 0.5117 0.0
H659 H 0.3506 0.92805 0.47556 0.0
H660 H 0.33718 0.54595 0.48934 0.0
H661 H 0.23967 0.59 0.5102 0.0
H662 H 0.18564 0.6833 0.52662 0.0
H663 H 0.19264 0.79003 0.5291 0.0
Mn664 Mn 1.02375 0.79418 0.66344 0.0
Mn665 Mn 0.98843 0.67656 0.71855 0.0
C666 C 1.0071 0.69585 0.60683 0.0
C667 C 1.02189 0.87389 0.62009 0.0
C668 C 0.11659 0.73586 0.71388 0.0
O669 O 0.98892 0.83377 0.73745 0.0
O670 O 0.97689 0.75189 0.76863 0.0
C671 C 0.85411 0.6855 0.72212 0.0
N672 N 0.90177 0.6526 0.71379 0.0
C673 C 0.83324 0.56197 0.70425 0.0
C674 C 0.78297 0.5943 0.71294 0.0
C675 C 0.79343 0.6562 0.72044 0.0
C676 C 0.89196 0.59298 0.70275 0.0
H677 H 0.86248 0.73334 0.7295 0.0
C678 C 0.97442 0.80689 0.77476 0.0
O679 O 0.06574 0.87224 0.65247 0.0
O680 O 0.97408 0.83356 0.61878 0.0
N681 N 0.99577 0.59728 0.68076 0.0
C682 C 0.04824 0.57231 0.66616 0.0
C683 C 0.04672 0.51065 0.6579 0.0
C684 C 0.99192 0.47586 0.66652 0.0
C685 C 0.93837 0.50254 0.68076 0.0
C686 C 0.94252 0.56374 0.68774 0.0
H687 H 0.09134 0.59946 0.66265 0.0
O688 O 0.0425 0.73918 0.59421 0.0
O689 O 0.98215 0.7098 0.6539 0.0
O690 O 0.10053 0.77745 0.69635 0.0
O691 O 0.07867 0.69524 0.72507 0.0
C692 C 0.88117 0.47138 0.68949 0.0
C693 C 0.82778 0.5004 0.69766 0.0
H694 H 0.73626 0.57211 0.71334 0.0
H695 H 0.75473 0.68087 0.72489 0.0
H696 H 0.08818 0.49028 0.64682 0.0
H697 H 0.99167 0.42888 0.66215 0.0
H698 H 0.87812 0.42557 0.69074 0.0
H699 H 0.7829 0.47586 0.70051 0.0
Mn700 Mn 0.52375 0.29418 0.16344 0.0
Mn701 Mn 0.48843 0.17655 0.21855 0.0
C702 C 0.5071 0.19585 0.10683 0.0
C703 C 0.52189 0.37389 0.12009 0.0
C704 C 0.61659 0.23586 0.21388 0.0
O705 O 0.48892 0.33377 0.23745 0.0
O706 O 0.47689 0.25189 0.26863 0.0
C707 C 0.35411 0.1855 0.22212 0.0
N708 N 0.40177 0.1526 0.21379 0.0
C709 C 0.33324 0.06197 0.20425 0.0
C710 C 0.28297 0.0943 0.21294 0.0
C711 C 0.29343 0.1562 0.22043 0.0
C712 C 0.39196 0.09298 0.20275 0.0
H713 H 0.36248 0.23334 0.2295 0.0
C714 C 0.47442 0.30688 0.27476 0.0
O715 O 0.56574 0.37224 0.15247 0.0
O716 O 0.47408 0.33356 0.11878 0.0
N717 N 0.49577 0.09728 0.18076 0.0
C718 C 0.54824 0.07231 0.16616 0.0
C719 C 0.54672 1.01065 0.1579 0.0
C720 C 0.49192 0.97586 0.16652 0.0
C721 C 0.43837 1.00254 0.18076 0.0
C722 C 0.44252 0.06374 0.18774 0.0
H723 H 0.59134 0.09946 0.16265 0.0
O724 O 0.5425 0.23918 0.09421 0.0
O725 O 0.48215 0.2098 0.1539 0.0
O726 O 0.60053 0.27745 0.19635 0.0
O727 O 0.57867 0.19524 0.22507 0.0
C728 C 0.38117 0.97138 0.18949 0.0
C729 C 0.32778 1.0004 0.19766 0.0
H730 H 0.23626 0.0721 0.21334 0.0
H731 H 0.25473 0.18087 0.22488 0.0
H732 H 0.58818 0.99028 0.14682 0.0
H733 H 0.49167 0.92888 0.16215 0.0
H734 H 0.37812 0.92557 0.19074 0.0
H735 H 0.2829 0.97586 0.20051 0.0
loop_
_geom_bond_atom_site_label_1
_geom_bond_atom_site_label_2
_geom_bond_distance
_geom_bond_site_symmetry_2
_ccdc_geom_bond_type
H0 C1 0.949 . S
C1 H0 0.949 . S
C1 C2 1.395 1_545 S
C1 C3 1.391 . S
C2 C1 1.395 1_565 S
C2 C5 1.390 . S
C3 C1 1.391 . S
C3 C7 1.387 . S
C3 C8 1.491 . S
H4 C5 0.950 . S
C5 C2 1.390 . S
C5 H4 0.950 . S
C5 C6 1.378 . S
C6 C5 1.378 . S
C6 C7 1.409 1_565 S
C7 C3 1.387 . S
C7 C6 1.409 1_545 S
C7 H9 0.951 . S
C8 C3 1.491 . S
C8 C10 1.382 1_554 S
C8 C12 1.404 . S
H9 C7 0.951 . S
C10 C8 1.382 1_556 S
C10 C11 1.390 . S
C10 H15 0.949 . S
C11 C10 1.390 . S
C11 C16 1.399 . S
C12 C8 1.404 . S
C12 H13 0.950 . S
C12 C14 1.375 . S
H13 C12 0.950 . S
C14 C12 1.375 . S
C14 C16 1.382 1_554 S
C14 H18 0.950 . S
H15 C10 0.949 . S
C16 C11 1.399 . S
C16 C14 1.382 1_556 S
C16 H17 0.952 . S
H17 C16 0.952 . S
H18 C14 0.950 . S
H19 C20 0.949 . S
C20 H19 0.949 . S
C20 C21 1.395 . S
C20 C22 1.391 . S
C21 C20 1.395 . S
C21 C24 1.390 . S
C22 C20 1.391 . S
C22 C26 1.387 . S
C22 C27 1.491 . S
H23 C24 0.950 . S
C24 C21 1.390 . S
C24 H23 0.950 . S
C24 C25 1.378 . S
C25 C24 1.378 . S
C25 C26 1.409 . S
C26 C22 1.387 . S
C26 C25 1.409 . S
C26 H28 0.951 . S
C27 C22 1.491 . S
C27 C29 1.382 . S
C27 C31 1.404 . S
H28 C26 0.951 . S
C29 C27 1.382 . S
C29 C30 1.390 . S
C29 H34 0.949 . S
C30 C29 1.390 . S
C30 C35 1.399 . S
C31 C27 1.404 . S
C31 H32 0.950 . S
C31 C33 1.375 . S
H32 C31 0.950 . S
C33 C31 1.375 . S
C33 C35 1.382 . S
C33 H37 0.950 . S
H34 C29 0.949 . S
C35 C30 1.399 . S
C35 C33 1.382 . S
C35 H36 0.952 . S
H36 C35 0.952 . S
H37 C33 0.950 . S
H38 C39 0.949 . S
C39 H38 0.949 . S
C39 C40 1.395 . S
C39 C41 1.391 1_455 S
C40 C39 1.395 . S
C40 C43 1.390 1_455 S
C41 C39 1.391 1_655 S
C41 C45 1.387 . S
C41 C46 1.489 1_654 S
H42 C43 0.950 . S
C43 C40 1.390 1_655 S
C43 H42 0.950 . S
C43 C44 1.378 . S
C44 C43 1.378 . S
C44 C45 1.409 . S
C45 C41 1.387 . S
C45 C44 1.409 . S
C45 H47 0.951 1_554 S
C46 C41 1.489 1_456 S
C46 C48 1.383 . S
C46 C50 1.404 . S
H47 C45 0.951 1_556 S
C48 C46 1.383 . S
C48 C49 1.390 . S
C48 H53 0.950 . S
C49 C48 1.390 . S
C49 C54 1.399 . S
C50 C46 1.404 . S
C50 H51 0.950 . S
C50 C52 1.375 . S
H51 C50 0.950 . S
C52 C50 1.375 . S
C52 C54 1.382 . S
C52 H56 0.950 . S
H53 C48 0.950 . S
C54 C49 1.399 . S
C54 C52 1.382 . S
C54 H55 0.952 . S
H55 C54 0.952 . S
H56 C52 0.950 . S
H57 C58 0.949 . S
C58 H57 0.949 . S
C58 C59 1.395 . S
C58 C60 1.391 . S
C59 C58 1.395 . S
C59 C62 1.390 . S
C60 C58 1.391 . S
C60 C64 1.387 . S
C60 C65 1.491 . S
H61 C62 0.950 . S
C62 C59 1.390 . S
C62 H61 0.950 . S
C62 C63 1.378 . S
C63 C62 1.378 . S
C63 C64 1.409 . S
C64 C60 1.387 . S
C64 C63 1.409 . S
C64 H66 0.951 . S
C65 C60 1.491 . S
C65 C67 1.382 . S
C65 C69 1.404 . S
H66 C64 0.951 . S
C67 C65 1.382 . S
C67 C68 1.390 . S
C67 H72 0.949 . S
C68 C67 1.390 . S
C68 C73 1.399 . S
C69 C65 1.404 . S
C69 H70 0.950 . S
C69 C71 1.375 . S
H70 C69 0.950 . S
C71 C69 1.375 . S
C71 C73 1.382 . S
C71 H75 0.950 . S
H72 C67 0.949 . S
C73 C68 1.399 . S
C73 C71 1.382 . S
C73 H74 0.952 . S
H74 C73 0.952 . S
H75 C71 0.950 . S
H76 C77 0.949 . S
C77 H76 0.949 . S
C77 C78 1.395 1_565 S
C77 C79 1.391 . S
C78 C77 1.395 1_545 S
C78 C81 1.390 . S
C79 C77 1.391 . S
C79 C83 1.387 . S
C79 C84 1.491 . S
H80 C81 0.950 . S
C81 C78 1.390 . S
C81 H80 0.950 . S
C81 C82 1.378 . S
C82 C81 1.378 . S
C82 C83 1.409 1_545 S
C83 C79 1.387 . S
C83 C82 1.409 1_565 S
C83 H85 0.951 . S
C84 C79 1.491 . S
C84 C86 1.382 . S
C84 C88 1.404 . S
H85 C83 0.951 . S
C86 C84 1.382 . S
C86 C87 1.390 . S
C86 H91 0.949 . S
C87 C86 1.390 . S
C87 C92 1.399 . S
C88 C84 1.404 . S
C88 H89 0.950 . S
C88 C90 1.375 . S
H89 C88 0.950 . S
C90 C88 1.375 . S
C90 C92 1.382 . S
C90 H94 0.950 . S
H91 C86 0.949 . S
C92 C87 1.399 . S
C92 C90 1.382 . S
C92 H93 0.952 . S
H93 C92 0.952 . S
H94 C90 0.950 . S
H95 C96 0.949 . S
C96 H95 0.949 . S
C96 C97 1.395 . S
C96 C98 1.391 . S
C97 C96 1.395 . S
C97 C100 1.390 . S
C98 C96 1.391 . S
C98 C102 1.387 . S
C98 C103 1.491 . S
H99 C100 0.950 . S
C100 C97 1.390 . S
C100 H99 0.950 . S
C100 C101 1.378 . S
C101 C100 1.378 . S
C101 C102 1.409 . S
C102 C98 1.387 . S
C102 C101 1.409 . S
C102 H104 0.951 . S
C103 C98 1.491 . S
C103 C105 1.382 . S
C103 C107 1.404 . S
H104 C102 0.951 . S
C105 C103 1.382 . S
C105 C106 1.390 . S
C105 H110 0.949 . S
C106 C105 1.390 . S
C106 C111 1.399 . S
C107 C103 1.404 . S
C107 H108 0.950 . S
C107 C109 1.375 . S
H108 C107 0.950 . S
C109 C107 1.375 . S
C109 C111 1.382 . S
C109 H113 0.950 . S
H110 C105 0.949 . S
C111 C106 1.399 . S
C111 C109 1.382 . S
C111 H112 0.952 . S
H112 C111 0.952 . S
H113 C109 0.950 . S
H114 C115 0.949 . S
C115 H114 0.949 . S
C115 C116 1.395 1_455 S
C115 C117 1.391 1_455 S
C116 C115 1.395 1_655 S
C116 C119 1.390 . S
C117 C115 1.391 1_655 S
C117 C121 1.387 . S
C117 C122 1.491 . S
H118 C119 0.950 . S
C119 C116 1.390 . S
C119 H118 0.950 . S
C119 C120 1.378 . S
C120 C119 1.378 . S
C120 C121 1.409 . S
C121 C117 1.387 . S
C121 C120 1.409 . S
C121 H123 0.951 . S
C122 C117 1.491 . S
C122 C124 1.382 1_655 S
C122 C126 1.404 . S
H123 C121 0.951 . S
C124 C122 1.382 1_455 S
C124 C125 1.390 . S
C124 H129 0.949 . S
C125 C124 1.390 . S
C125 C130 1.399 . S
C126 C122 1.404 . S
C126 H127 0.950 . S
C126 C128 1.375 . S
H127 C126 0.950 . S
C128 C126 1.375 . S
C128 C130 1.382 1_655 S
C128 H132 0.950 . S
H129 C124 0.949 . S
C130 C125 1.399 . S
C130 C128 1.382 1_455 S
C130 H131 0.952 . S
H131 C130 0.952 . S
H132 C128 0.950 . S
H133 C134 0.949 . S
C134 H133 0.949 . S
C134 C135 1.395 . S
C134 C136 1.391 . S
C135 C134 1.395 . S
C135 C138 1.390 . S
C136 C134 1.391 . S
C136 C140 1.387 . S
C136 C141 1.491 . S
H137 C138 0.950 . S
C138 C135 1.390 . S
C138 H137 0.950 . S
C138 C139 1.378 . S
C139 C138 1.378 . S
C139 C140 1.409 . S
C140 C136 1.387 . S
C140 C139 1.409 . S
C140 H142 0.951 . S
C141 C136 1.491 . S
C141 C143 1.382 . S
C141 C145 1.404 . S
H142 C140 0.951 . S
C143 C141 1.382 . S
C143 C144 1.390 . S
C143 H148 0.949 . S
C144 C143 1.390 . S
C144 C149 1.399 . S
C145 C141 1.404 . S
C145 H146 0.950 . S
C145 C147 1.375 . S
H146 C145 0.950 . S
C147 C145 1.375 . S
C147 C149 1.382 . S
C147 H151 0.950 . S
H148 C143 0.949 . S
C149 C144 1.399 . S
C149 C147 1.382 . S
C149 H150 0.952 . S
H150 C149 0.952 . S
H151 C147 0.950 . S
H152 C153 0.949 . S
C153 H152 0.949 . S
C153 C154 1.395 . S
C153 C155 1.391 . S
C154 C153 1.395 . S
C154 C157 1.390 . S
C155 C153 1.391 . S
C155 C159 1.387 . S
C155 C160 1.491 . S
H156 C157 0.950 . S
C157 C154 1.390 . S
C157 H156 0.950 . S
C157 C158 1.378 . S
C158 C157 1.378 . S
C158 C159 1.409 . S
C159 C155 1.387 . S
C159 C158 1.409 . S
C159 H161 0.951 . S
C160 C155 1.491 . S
C160 C162 1.382 . S
C160 C164 1.404 . S
H161 C159 0.951 . S
C162 C160 1.382 . S
C162 C163 1.390 . S
C162 H167 0.949 . S
C163 C162 1.390 . S
C163 C168 1.399 . S
C164 C160 1.404 . S
C164 H165 0.950 . S
C164 C166 1.375 . S
H165 C164 0.950 . S
C166 C164 1.375 . S
C166 C168 1.382 . S
C166 H170 0.950 . S
H167 C162 0.949 . S
C168 C163 1.399 . S
C168 C166 1.382 . S
C168 H169 0.952 . S
H169 C168 0.952 . S
H170 C166 0.950 . S
H171 C172 0.949 . S
C172 H171 0.949 . S
C172 C173 1.395 1_565 S
C172 C174 1.391 . S
C173 C172 1.395 1_545 S
C173 C176 1.390 . S
C174 C172 1.391 . S
C174 C178 1.387 1_565 S
C174 C179 1.491 . S
H175 C176 0.950 . S
C176 C173 1.390 . S
C176 H175 0.950 . S
C176 C177 1.378 . S
C177 C176 1.378 . S
C177 C178 1.409 . S
C178 C174 1.387 1_545 S
C178 C177 1.409 . S
C178 H180 0.951 . S
C179 C174 1.491 . S
C179 C181 1.382 . S
C179 C183 1.404 . S
H180 C178 0.951 . S
C181 C179 1.382 . S
C181 C182 1.390 . S
C181 H186 0.949 . S
C182 C181 1.390 . S
C182 C187 1.399 . S
C183 C179 1.404 . S
C183 H184 0.950 . S
C183 C185 1.375 . S
H184 C183 0.950 . S
C185 C183 1.375 . S
C185 C187 1.382 . S
C185 H189 0.950 . S
H186 C181 0.949 . S
C187 C182 1.399 . S
C187 C185 1.382 . S
C187 H188 0.952 . S
H188 C187 0.952 . S
H189 C185 0.950 . S
H190 C191 0.949 . S
C191 H190 0.949 . S
C191 C192 1.395 . S
C191 C193 1.391 . S
C192 C191 1.395 . S
C192 C195 1.390 . S
C193 C191 1.391 . S
C193 C197 1.387 . S
C193 C198 1.491 . S
H194 C195 0.950 . S
C195 C192 1.390 . S
C195 H194 0.950 . S
C195 C196 1.378 . S
C196 C195 1.378 . S
C196 C197 1.409 . S
C197 C193 1.387 . S
C197 C196 1.409 . S
C197 H199 0.951 . S
C198 C193 1.491 . S
C198 C200 1.382 . S
C198 C202 1.404 . S
H199 C197 0.951 . S
C200 C198 1.382 . S
C200 C201 1.390 . S
C200 H205 0.949 . S
C201 C200 1.390 . S
C201 C206 1.399 . S
C202 C198 1.404 . S
C202 H203 0.950 . S
C202 C204 1.375 . S
H203 C202 0.950 . S
C204 C202 1.375 . S
C204 C206 1.382 . S
C204 H208 0.950 . S
H205 C200 0.949 . S
C206 C201 1.399 . S
C206 C204 1.382 . S
C206 H207 0.952 . S
H207 C206 0.952 . S
H208 C204 0.950 . S
H209 C210 0.949 . S
C210 H209 0.949 . S
C210 C211 1.395 . S
C210 C212 1.391 . S
C211 C210 1.395 . S
C211 C214 1.390 . S
C212 C210 1.391 . S
C212 C216 1.387 . S
C212 C217 1.491 . S
H213 C214 0.950 . S
C214 C211 1.390 . S
C214 H213 0.950 . S
C214 C215 1.378 . S
C215 C214 1.378 . S
C215 C216 1.409 . S
C216 C212 1.387 . S
C216 C215 1.409 . S
C216 H218 0.951 . S
C217 C212 1.491 . S
C217 C219 1.382 . S
C217 C221 1.404 . S
H218 C216 0.951 . S
C219 C217 1.382 . S
C219 C220 1.390 . S
C219 H224 0.949 . S
C220 C219 1.390 . S
C220 C225 1.399 . S
C221 C217 1.404 . S
C221 H222 0.950 . S
C221 C223 1.375 . S
H222 C221 0.950 . S
C223 C221 1.375 . S
C223 C225 1.382 . S
C223 H227 0.950 . S
H224 C219 0.949 . S
C225 C220 1.399 . S
C225 C223 1.382 . S
C225 H226 0.952 . S
H226 C225 0.952 . S
H227 C223 0.950 . S
H228 C229 0.949 . S
C229 H228 0.949 . S
C229 C230 1.395 . S
C229 C231 1.391 . S
C230 C229 1.395 . S
C230 C233 1.390 . S
C231 C229 1.391 . S
C231 C235 1.387 . S
C231 C236 1.491 . S
H232 C233 0.950 . S
C233 C230 1.390 . S
C233 H232 0.950 . S
C233 C234 1.378 . S
C234 C233 1.378 . S
C234 C235 1.409 . S
C235 C231 1.387 . S
C235 C234 1.409 . S
C235 H237 0.951 . S
C236 C231 1.491 . S
C236 C238 1.382 . S
C236 C240 1.404 . S
H237 C235 0.951 . S
C238 C236 1.382 . S
C238 C239 1.390 . S
C238 H243 0.949 . S
C239 C238 1.390 . S
C239 C244 1.399 . S
C240 C236 1.404 . S
C240 H241 0.950 . S
C240 C242 1.375 . S
H241 C240 0.950 . S
C242 C240 1.375 . S
C242 C244 1.382 . S
C242 H246 0.950 . S
H243 C238 0.949 . S
C244 C239 1.399 . S
C244 C242 1.382 . S
C244 H245 0.952 . S
H245 C244 0.952 . S
H246 C242 0.950 . S
H247 C248 0.949 1_554 S
C248 H247 0.949 1_556 S
C248 C249 1.395 . S
C248 C250 1.391 . S
C249 C248 1.395 . S
C249 C252 1.390 . S
C250 C248 1.391 . S
C250 C254 1.387 . S
C250 C255 1.491 . S
H251 C252 0.950 . S
C252 C249 1.390 . S
C252 H251 0.950 . S
C252 C253 1.378 . S
C253 C252 1.378 . S
C253 C254 1.409 . S
C254 C250 1.387 . S
C254 C253 1.409 . S
C254 H256 0.951 . S
C255 C250 1.491 . S
C255 C257 1.382 1_556 S
C255 C259 1.404 . S
H256 C254 0.951 . S
C257 C255 1.382 1_554 S
C257 C258 1.390 . S
C257 H262 0.949 . S
C258 C257 1.390 . S
C258 C263 1.399 . S
C259 C255 1.404 . S
C259 H260 0.950 . S
C259 C261 1.375 . S
H260 C259 0.950 . S
C261 C259 1.375 . S
C261 C263 1.382 1_556 S
C261 H265 0.950 . S
H262 C257 0.949 . S
C263 C258 1.399 . S
C263 C261 1.382 1_554 S
C263 H264 0.952 . S
H264 C263 0.952 . S
H265 C261 0.950 . S
H266 C267 0.949 . S
C267 H266 0.949 . S
C267 C268 1.395 . S
C267 C269 1.391 . S
C268 C267 1.395 . S
C268 C271 1.390 . S
C269 C267 1.391 . S
C269 C273 1.387 . S
C269 C274 1.491 . S
H270 C271 0.950 . S
C271 C268 1.390 . S
C271 H270 0.950 . S
C271 C272 1.378 . S
C272 C271 1.378 . S
C272 C273 1.409 . S
C273 C269 1.387 . S
C273 C272 1.409 . S
C273 H275 0.951 . S
C274 C269 1.491 . S
C274 C276 1.382 . S
C274 C278 1.404 . S
H275 C273 0.951 . S
C276 C274 1.382 . S
C276 C277 1.390 . S
C276 H281 0.949 . S
C277 C276 1.390 . S
C277 C282 1.399 . S
C278 C274 1.404 . S
C278 H279 0.950 . S
C278 C280 1.375 . S
H279 C278 0.950 . S
C280 C278 1.375 . S
C280 C282 1.382 . S
C280 H284 0.950 . S
H281 C276 0.949 . S
C282 C277 1.399 . S
C282 C280 1.382 . S
C282 H283 0.952 . S
H283 C282 0.952 . S
H284 C280 0.950 . S
H285 C286 0.949 . S
C286 H285 0.949 . S
C286 C287 1.395 1_556 S
C286 C288 1.391 . S
C287 C286 1.395 1_554 S
C287 C290 1.390 . S
C288 C286 1.391 . S
C288 C292 1.387 1_545 S
C288 C293 1.491 . S
H289 C290 0.950 . S
C290 C287 1.390 . S
C290 H289 0.950 . S
C290 C291 1.378 . S
C291 C290 1.378 . S
C291 C292 1.409 1_544 S
C292 C288 1.387 1_565 S
C292 C291 1.409 1_566 S
C292 H294 0.951 . S
C293 C288 1.491 . S
C293 C295 1.382 . S
C293 C297 1.405 . S
H294 C292 0.951 . S
C295 C293 1.382 . S
C295 C296 1.390 . S
C295 H300 0.949 . S
C296 C295 1.390 . S
C296 C301 1.399 . S
C297 C293 1.405 . S
C297 H298 0.949 1_545 S
C297 C299 1.375 1_545 S
H298 C297 0.949 1_565 S
C299 C297 1.375 1_565 S
C299 C301 1.382 1_565 S
C299 H303 0.950 . S
H300 C295 0.949 . S
C301 C296 1.399 . S
C301 C299 1.382 1_545 S
C301 H302 0.952 . S
H302 C301 0.952 . S
H303 C299 0.950 . S
Mn304 O309 2.095 . S
Mn304 O319 2.162 . S
Mn304 O320 2.297 . S
Mn304 O328 2.385 . S
Mn304 O329 2.209 1_554 S
Mn304 O330 2.094 . S
Mn305 O310 2.121 . S
Mn305 N312 2.257 . S
Mn305 N321 2.282 . S
Mn305 O329 2.215 . S
Mn305 O331 2.117 1_556 S
C306 O328 1.234 1_556 S
C306 O329 1.283 . S
C307 O319 1.281 . S
C307 O320 1.236 . S
C308 O330 1.240 . S
C308 O331 1.264 . S
O309 Mn304 2.095 . S
O309 C318 1.250 . S
O310 Mn305 2.121 . S
O310 C318 1.258 1_556 S
C311 N312 1.326 . S
C311 C315 1.460 . S
C311 H317 0.929 . S
N312 Mn305 2.257 . S
N312 C311 1.326 . S
N312 C316 1.362 . S
C313 C314 1.258 . S
C313 C316 1.431 . S
C313 C333 1.449 . S
C314 C313 1.258 . S
C314 C315 1.477 . S
C314 H334 0.931 . S
C315 C311 1.460 . S
C315 C314 1.477 . S
C315 H335 0.930 . S
C316 N312 1.362 . S
C316 C313 1.431 . S
C316 C326 1.476 . S
H317 C311 0.929 . S
C318 O309 1.250 . S
C318 O310 1.258 1_554 S
O319 Mn304 2.162 . S
O319 C307 1.281 . S
O320 Mn304 2.297 . S
O320 C307 1.236 . S
N321 Mn305 2.282 . S
N321 C322 1.328 . S
N321 C326 1.318 . S
C322 N321 1.328 . S
C322 C323 1.457 . S
C322 H327 0.929 . S
C323 C322 1.457 . S
C323 C324 1.291 . S
C323 H336 0.931 . S
C324 C323 1.291 . S
C324 C325 1.373 . S
C324 H337 0.929 . S
C325 C324 1.373 . S
C325 C326 1.396 . S
C325 C332 1.403 . S
C326 C316 1.476 . S
C326 N321 1.318 . S
C326 C325 1.396 . S
H327 C322 0.929 . S
O328 Mn304 2.385 . S
O328 C306 1.234 1_554 S
O329 Mn304 2.209 1_556 S
O329 Mn305 2.215 . S
O329 C306 1.283 . S
O330 Mn304 2.094 . S
O330 C308 1.240 . S
O331 Mn305 2.117 1_554 S
O331 C308 1.264 . S
C332 C325 1.403 . S
C332 C333 1.399 . S
C332 H338 0.929 . S
C333 C313 1.449 . S
C333 C332 1.399 . S
C333 H339 0.930 . S
H334 C314 0.931 . S
H335 C315 0.930 . S
H336 C323 0.931 . S
H337 C324 0.929 . S
H338 C332 0.929 . S
H339 C333 0.930 . S
Mn340 O345 2.095 . S
Mn340 O355 2.162 . S
Mn340 O356 2.297 . S
Mn340 O364 2.385 . S
Mn340 O365 2.209 . S
Mn340 O366 2.094 . S
Mn341 O346 2.121 . S
Mn341 N348 2.257 . S
Mn341 N357 2.282 . S
Mn341 O365 2.215 . S
Mn341 O367 2.117 . S
C342 O364 1.234 . S
C342 O365 1.283 . S
C343 O355 1.281 . S
C343 O356 1.236 . S
C344 O366 1.240 . S
C344 O367 1.264 . S
O345 Mn340 2.095 . S
O345 C354 1.250 . S
O346 Mn341 2.121 . S
O346 C354 1.258 . S
C347 N348 1.326 . S
C347 C351 1.460 . S
C347 H353 0.929 . S
N348 Mn341 2.257 . S
N348 C347 1.326 . S
N348 C352 1.362 . S
C349 C350 1.258 . S
C349 C352 1.431 . S
C349 C369 1.449 . S
C350 C349 1.258 . S
C350 C351 1.477 . S
C350 H370 0.931 . S
C351 C347 1.460 . S
C351 C350 1.477 . S
C351 H371 0.930 . S
C352 N348 1.362 . S
C352 C349 1.431 . S
C352 C362 1.476 . S
H353 C347 0.929 . S
C354 O345 1.250 . S
C354 O346 1.258 . S
O355 Mn340 2.162 . S
O355 C343 1.281 . S
O356 Mn340 2.297 . S
O356 C343 1.236 . S
N357 Mn341 2.282 . S
N357 C358 1.328 . S
N357 C362 1.318 . S
C358 N357 1.328 . S
C358 C359 1.457 . S
C358 H363 0.929 . S
C359 C358 1.457 . S
C359 C360 1.291 . S
C359 H372 0.931 . S
C360 C359 1.291 . S
C360 C361 1.373 . S
C360 H373 0.929 . S
C361 C360 1.373 . S
C361 C362 1.396 . S
C361 C368 1.403 . S
C362 C352 1.476 . S
C362 N357 1.318 . S
C362 C361 1.396 . S
H363 C358 0.929 . S
O364 Mn340 2.385 . S
O364 C342 1.234 . S
O365 Mn340 2.209 . S
O365 Mn341 2.215 . S
O365 C342 1.283 . S
O366 Mn340 2.094 . S
O366 C344 1.240 . S
O367 Mn341 2.117 . S
O367 C344 1.264 . S
C368 C361 1.403 . S
C368 C369 1.399 . S
C368 H374 0.929 . S
C369 C349 1.449 . S
C369 C368 1.399 . S
C369 H375 0.930 . S
H370 C350 0.931 . S
H371 C351 0.930 . S
H372 C359 0.931 . S
H373 C360 0.929 . S
H374 C368 0.929 . S
H375 C369 0.930 . S
Mn376 O381 2.095 1_554 S
Mn376 O391 2.162 . S
Mn376 O392 2.297 1_554 S
Mn376 O400 2.385 . S
Mn376 O401 2.209 1_554 S
Mn376 O402 2.094 . S
Mn377 O382 2.121 . S
Mn377 N384 2.257 . S
Mn377 N393 2.282 1_556 S
Mn377 O401 2.215 . S
Mn377 O403 2.117 1_556 S
C378 O400 1.234 1_556 S
C378 O401 1.283 . S
C379 O391 1.281 . S
C379 O392 1.236 1_554 S
C380 O402 1.240 . S
C380 O403 1.264 . S
O381 Mn376 2.095 1_556 S
O381 C390 1.250 . S
O382 Mn377 2.121 . S
O382 C390 1.258 . S
C383 N384 1.326 . S
C383 C387 1.460 . S
C383 H389 0.929 . S
N384 Mn377 2.257 . S
N384 C383 1.326 . S
N384 C388 1.362 . S
C385 C386 1.258 . S
C385 C388 1.431 . S
C385 C405 1.449 . S
C386 C385 1.258 . S
C386 C387 1.477 . S
C386 H406 0.931 . S
C387 C383 1.460 . S
C387 C386 1.477 . S
C387 H407 0.930 . S
C388 N384 1.362 . S
C388 C385 1.431 . S
C388 C398 1.476 . S
H389 C383 0.929 . S
C390 O381 1.250 . S
C390 O382 1.258 . S
O391 Mn376 2.162 . S
O391 C379 1.281 . S
O392 Mn376 2.297 1_556 S
O392 C379 1.236 1_556 S
N393 Mn377 2.282 1_554 S
N393 C394 1.328 . S
N393 C398 1.318 1_554 S
C394 N393 1.328 . S
C394 C395 1.457 . S
C394 H399 0.929 . S
C395 C394 1.457 . S
C395 C396 1.291 . S
C395 H408 0.931 . S
C396 C395 1.291 . S
C396 C397 1.373 1_554 S
C396 H409 0.929 . S
C397 C396 1.373 1_556 S
C397 C398 1.396 . S
C397 C404 1.403 . S
C398 C388 1.476 . S
C398 N393 1.318 1_556 S
C398 C397 1.396 . S
H399 C394 0.929 . S
O400 Mn376 2.385 . S
O400 C378 1.234 1_554 S
O401 Mn376 2.209 1_556 S
O401 Mn377 2.215 . S
O401 C378 1.283 . S
O402 Mn376 2.094 . S
O402 C380 1.240 . S
O403 Mn377 2.117 1_554 S
O403 C380 1.264 . S
C404 C397 1.403 . S
C404 C405 1.399 . S
C404 H410 0.929 . S
C405 C385 1.449 . S
C405 C404 1.399 . S
C405 H411 0.930 . S
H406 C386 0.931 . S
H407 C387 0.930 . S
H408 C395 0.931 . S
H409 C396 0.929 . S
H410 C404 0.929 . S
H411 C405 0.930 . S
Mn412 O417 2.095 1_655 S
Mn412 O427 2.162 . S
Mn412 O428 2.297 . S
Mn412 O436 2.385 1_545 S
Mn412 O437 2.209 1_545 S
Mn412 O438 2.094 1_655 S
Mn413 O418 2.121 . S
Mn413 N420 2.257 1_455 S
Mn413 N429 2.282 1_455 S
Mn413 O437 2.215 1_455 S
Mn413 O439 2.117 . S
C414 O436 1.234 . S
C414 O437 1.283 . S
C415 O427 1.281 . S
C415 O428 1.236 . S
C416 O438 1.240 . S
C416 O439 1.264 1_545 S
O417 Mn412 2.095 1_455 S
O417 C426 1.250 . S
O418 Mn413 2.121 . S
O418 C426 1.258 1_565 S
C419 N420 1.326 . S
C419 C423 1.460 . S
C419 H425 0.929 . S
N420 Mn413 2.257 1_655 S
N420 C419 1.326 . S
N420 C424 1.362 . S
C421 C422 1.258 . S
C421 C424 1.431 . S
C421 C441 1.449 . S
C422 C421 1.258 . S
C422 C423 1.477 . S
C422 H442 0.931 . S
C423 C419 1.460 . S
C423 C422 1.477 . S
C423 H443 0.930 . S
C424 N420 1.362 . S
C424 C421 1.431 . S
C424 C434 1.476 . S
H425 C419 0.929 . S
C426 O417 1.250 . S
C426 O418 1.258 1_545 S
O427 Mn412 2.162 . S
O427 C415 1.281 . S
O428 Mn412 2.297 . S
O428 C415 1.236 . S
N429 Mn413 2.282 1_655 S
N429 C430 1.328 . S
N429 C434 1.318 . S
C430 N429 1.328 . S
C430 C431 1.457 . S
C430 H435 0.929 . S
C431 C430 1.457 . S
C431 C432 1.291 . S
C431 H444 0.931 . S
C432 C431 1.291 . S
C432 C433 1.373 . S
C432 H445 0.929 . S
C433 C432 1.373 . S
C433 C434 1.396 . S
C433 C440 1.403 . S
C434 C424 1.476 . S
C434 N429 1.318 . S
C434 C433 1.396 . S
H435 C430 0.929 . S
O436 Mn412 2.385 1_565 S
O436 C414 1.234 . S
O437 Mn412 2.209 1_565 S
O437 Mn413 2.215 1_655 S
O437 C414 1.283 . S
O438 Mn412 2.094 1_455 S
O438 C416 1.240 . S
O439 Mn413 2.117 . S
O439 C416 1.264 1_565 S
C440 C433 1.403 . S
C440 C441 1.399 . S
C440 H446 0.929 . S
C441 C421 1.449 . S
C441 C440 1.399 . S
C441 H447 0.930 . S
H442 C422 0.931 . S
H443 C423 0.930 . S
H444 C431 0.931 . S
H445 C432 0.929 . S
H446 C440 0.929 . S
H447 C441 0.930 . S
Mn448 O453 2.095 . S
Mn448 O463 2.162 . S
Mn448 O464 2.297 . S
Mn448 O472 2.385 . S
Mn448 O473 2.209 . S
Mn448 O474 2.094 . S
Mn449 O454 2.121 . S
Mn449 N456 2.257 . S
Mn449 N465 2.282 . S
Mn449 O473 2.215 . S
Mn449 O475 2.117 . S
C450 O472 1.234 . S
C450 O473 1.283 . S
C451 O463 1.281 . S
C451 O464 1.236 . S
C452 O474 1.240 . S
C452 O475 1.264 . S
O453 Mn448 2.095 . S
O453 C462 1.250 . S
O454 Mn449 2.121 . S
O454 C462 1.258 . S
C455 N456 1.326 . S
C455 C459 1.460 . S
C455 H461 0.929 . S
N456 Mn449 2.257 . S
N456 C455 1.326 . S
N456 C460 1.362 . S
C457 C458 1.258 . S
C457 C460 1.431 . S
C457 C477 1.449 . S
C458 C457 1.258 . S
C458 C459 1.477 . S
C458 H478 0.931 . S
C459 C455 1.460 . S
C459 C458 1.477 . S
C459 H479 0.930 . S
C460 N456 1.362 . S
C460 C457 1.431 . S
C460 C470 1.476 . S
H461 C455 0.929 . S
C462 O453 1.250 . S
C462 O454 1.258 . S
O463 Mn448 2.162 . S
O463 C451 1.281 . S
O464 Mn448 2.297 . S
O464 C451 1.236 . S
N465 Mn449 2.282 . S
N465 C466 1.328 . S
N465 C470 1.318 . S
C466 N465 1.328 . S
C466 C467 1.457 . S
C466 H471 0.929 . S
C467 C466 1.457 . S
C467 C468 1.291 . S
C467 H480 0.931 . S
C468 C467 1.291 . S
C468 C469 1.373 . S
C468 H481 0.929 . S
C469 C468 1.373 . S
C469 C470 1.396 . S
C469 C476 1.403 . S
C470 C460 1.476 . S
C470 N465 1.318 . S
C470 C469 1.396 . S
H471 C466 0.929 . S
O472 Mn448 2.385 . S
O472 C450 1.234 . S
O473 Mn448 2.209 . S
O473 Mn449 2.215 . S
O473 C450 1.283 . S
O474 Mn448 2.094 . S
O474 C452 1.240 . S
O475 Mn449 2.117 . S
O475 C452 1.264 . S
C476 C469 1.403 . S
C476 C477 1.399 . S
C476 H482 0.929 1_455 S
C477 C457 1.449 . S
C477 C476 1.399 . S
C477 H483 0.930 1_455 S
H478 C458 0.931 . S
H479 C459 0.930 . S
H480 C467 0.931 . S
H481 C468 0.929 . S
H482 C476 0.929 1_655 S
H483 C477 0.930 1_655 S
Mn484 O489 2.095 . S
Mn484 O499 2.162 . S
Mn484 O500 2.297 . S
Mn484 O508 2.385 . S
Mn484 O509 2.209 . S
Mn484 O510 2.094 . S
Mn485 O490 2.121 . S
Mn485 N492 2.257 . S
Mn485 N501 2.282 . S
Mn485 O509 2.215 . S
Mn485 O511 2.117 . S
C486 O508 1.234 . S
C486 O509 1.283 . S
C487 O499 1.281 . S
C487 O500 1.236 . S
C488 O510 1.240 . S
C488 O511 1.264 . S
O489 Mn484 2.095 . S
O489 C498 1.250 . S
O490 Mn485 2.121 . S
O490 C498 1.258 . S
C491 N492 1.326 . S
C491 C495 1.460 . S
C491 H497 0.929 . S
N492 Mn485 2.257 . S
N492 C491 1.326 . S
N492 C496 1.362 . S
C493 C494 1.258 . S
C493 C496 1.431 . S
C493 C513 1.449 . S
C494 C493 1.258 . S
C494 C495 1.477 . S
C494 H514 0.931 . S
C495 C491 1.460 . S
C495 C494 1.477 . S
C495 H515 0.930 . S
C496 N492 1.362 . S
C496 C493 1.431 . S
C496 C506 1.476 . S
H497 C491 0.929 . S
C498 O489 1.250 . S
C498 O490 1.258 . S
O499 Mn484 2.162 . S
O499 C487 1.281 . S
O500 Mn484 2.297 . S
O500 C487 1.236 . S
N501 Mn485 2.282 . S
N501 C502 1.328 . S
N501 C506 1.318 . S
C502 N501 1.328 . S
C502 C503 1.457 . S
C502 H507 0.929 . S
C503 C502 1.457 . S
C503 C504 1.291 . S
C503 H516 0.931 . S
C504 C503 1.291 . S
C504 C505 1.373 . S
C504 H517 0.929 . S
C505 C504 1.373 . S
C505 C506 1.396 . S
C505 C512 1.403 . S
C506 C496 1.476 . S
C506 N501 1.318 . S
C506 C505 1.396 . S
H507 C502 0.929 . S
O508 Mn484 2.385 . S
O508 C486 1.234 . S
O509 Mn484 2.209 . S
O509 Mn485 2.215 . S
O509 C486 1.283 . S
O510 Mn484 2.094 . S
O510 C488 1.240 . S
O511 Mn485 2.117 . S
O511 C488 1.264 . S
C512 C505 1.403 . S
C512 C513 1.399 . S
C512 H518 0.929 . S
C513 C493 1.449 . S
C513 C512 1.399 . S
C513 H519 0.930 . S
H514 C494 0.931 . S
H515 C495 0.930 . S
H516 C503 0.931 . S
H517 C504 0.929 . S
H518 C512 0.929 . S
H519 C513 0.930 . S
Mn520 O525 2.095 . S
Mn520 O535 2.162 . S
Mn520 O536 2.297 . S
Mn520 O544 2.385 . S
Mn520 O545 2.209 . S
Mn520 O546 2.094 . S
Mn521 O526 2.121 . S
Mn521 N528 2.257 . S
Mn521 N537 2.282 . S
Mn521 O545 2.215 . S
Mn521 O547 2.117 . S
C522 O544 1.234 . S
C522 O545 1.283 . S
C523 O535 1.281 . S
C523 O536 1.236 . S
C524 O546 1.240 . S
C524 O547 1.264 . S
O525 Mn520 2.095 . S
O525 C534 1.250 . S
O526 Mn521 2.121 . S
O526 C534 1.258 . S
C527 N528 1.326 . S
C527 C531 1.460 . S
C527 H533 0.929 . S
N528 Mn521 2.257 . S
N528 C527 1.326 . S
N528 C532 1.362 . S
C529 C530 1.258 . S
C529 C532 1.431 . S
C529 C549 1.449 . S
C530 C529 1.258 . S
C530 C531 1.477 . S
C530 H550 0.931 . S
C531 C527 1.460 . S
C531 C530 1.477 . S
C531 H551 0.930 . S
C532 N528 1.362 . S
C532 C529 1.431 . S
C532 C542 1.476 . S
H533 C527 0.929 . S
C534 O525 1.250 . S
C534 O526 1.258 . S
O535 Mn520 2.162 . S
O535 C523 1.281 . S
O536 Mn520 2.297 . S
O536 C523 1.236 . S
N537 Mn521 2.282 . S
N537 C538 1.328 . S
N537 C542 1.318 . S
C538 N537 1.328 . S
C538 C539 1.457 . S
C538 H543 0.929 . S
C539 C538 1.457 . S
C539 C540 1.291 . S
C539 H552 0.931 . S
C540 C539 1.291 . S
C540 C541 1.373 . S
C540 H553 0.929 . S
C541 C540 1.373 . S
C541 C542 1.396 . S
C541 C548 1.403 . S
C542 C532 1.476 . S
C542 N537 1.318 . S
C542 C541 1.396 . S
H543 C538 0.929 . S
O544 Mn520 2.385 . S
O544 C522 1.234 . S
O545 Mn520 2.209 . S
O545 Mn521 2.215 . S
O545 C522 1.283 . S
O546 Mn520 2.094 . S
O546 C524 1.240 . S
O547 Mn521 2.117 . S
O547 C524 1.264 . S
C548 C541 1.403 . S
C548 C549 1.399 . S
C548 H554 0.929 . S
C549 C529 1.449 . S
C549 C548 1.399 . S
C549 H555 0.930 . S
H550 C530 0.931 . S
H551 C531 0.930 . S
H552 C539 0.931 . S
H553 C540 0.929 . S
H554 C548 0.929 . S
H555 C549 0.930 . S
Mn556 O561 2.095 . S
Mn556 O571 2.162 1_545 S
Mn556 O572 2.297 1_545 S
Mn556 O580 2.385 . S
Mn556 O581 2.209 . S
Mn556 O582 2.094 1_545 S
Mn557 O562 2.121 . S
Mn557 N564 2.257 . S
Mn557 N573 2.282 . S
Mn557 O581 2.215 . S
Mn557 O583 2.117 . S
C558 O580 1.234 . S
C558 O581 1.283 . S
C559 O571 1.281 . S
C559 O572 1.236 . S
C560 O582 1.240 1_545 S
C560 O583 1.264 . S
O561 Mn556 2.095 . S
O561 C570 1.250 . S
O562 Mn557 2.121 . S
O562 C570 1.258 . S
C563 N564 1.326 . S
C563 C567 1.460 . S
C563 H569 0.929 . S
N564 Mn557 2.257 . S
N564 C563 1.326 . S
N564 C568 1.362 . S
C565 C566 1.258 . S
C565 C568 1.431 . S
C565 C585 1.449 . S
C566 C565 1.258 . S
C566 C567 1.477 . S
C566 H586 0.931 . S
C567 C563 1.460 . S
C567 C566 1.477 . S
C567 H587 0.930 . S
C568 N564 1.362 . S
C568 C565 1.431 . S
C568 C578 1.476 . S
H569 C563 0.929 . S
C570 O561 1.250 . S
C570 O562 1.258 . S
O571 Mn556 2.162 1_565 S
O571 C559 1.281 . S
O572 Mn556 2.297 1_565 S
O572 C559 1.236 . S
N573 Mn557 2.282 . S
N573 C574 1.328 . S
N573 C578 1.318 . S
C574 N573 1.328 . S
C574 C575 1.457 . S
C574 H579 0.929 . S
C575 C574 1.457 . S
C575 C576 1.291 . S
C575 H588 0.931 . S
C576 C575 1.291 . S
C576 C577 1.373 . S
C576 H589 0.929 . S
C577 C576 1.373 . S
C577 C578 1.396 . S
C577 C584 1.403 . S
C578 C568 1.476 . S
C578 N573 1.318 . S
C578 C577 1.396 . S
H579 C574 0.929 . S
O580 Mn556 2.385 . S
O580 C558 1.234 . S
O581 Mn556 2.209 . S
O581 Mn557 2.215 . S
O581 C558 1.283 . S
O582 Mn556 2.094 1_565 S
O582 C560 1.240 1_565 S
O583 Mn557 2.117 . S
O583 C560 1.264 . S
C584 C577 1.403 . S
C584 C585 1.399 . S
C584 H590 0.929 . S
C585 C565 1.449 . S
C585 C584 1.399 . S
C585 H591 0.930 . S
H586 C566 0.931 . S
H587 C567 0.930 . S
H588 C575 0.931 . S
H589 C576 0.929 . S
H590 C584 0.929 . S
H591 C585 0.930 . S
Mn592 O597 2.095 . S
Mn592 O607 2.162 . S
Mn592 O608 2.297 . S
Mn592 O616 2.385 1_455 S
Mn592 O617 2.209 1_455 S
Mn592 O618 2.094 . S
Mn593 O598 2.121 . S
Mn593 N600 2.257 . S
Mn593 N609 2.282 . S
Mn593 O617 2.215 . S
Mn593 O619 2.117 . S
C594 O616 1.234 . S
C594 O617 1.283 . S
C595 O607 1.281 . S
C595 O608 1.236 . S
C596 O618 1.240 . S
C596 O619 1.264 1_455 S
O597 Mn592 2.095 . S
O597 C606 1.250 1_455 S
O598 Mn593 2.121 . S
O598 C606 1.258 . S
C599 N600 1.326 . S
C599 C603 1.460 . S
C599 H605 0.929 . S
N600 Mn593 2.257 . S
N600 C599 1.326 . S
N600 C604 1.362 . S
C601 C602 1.258 . S
C601 C604 1.431 . S
C601 C621 1.449 . S
C602 C601 1.258 . S
C602 C603 1.477 . S
C602 H622 0.931 . S
C603 C599 1.460 . S
C603 C602 1.477 . S
C603 H623 0.930 . S
C604 N600 1.362 . S
C604 C601 1.431 . S
C604 C614 1.476 . S
H605 C599 0.929 . S
C606 O597 1.250 1_655 S
C606 O598 1.258 . S
O607 Mn592 2.162 . S
O607 C595 1.281 . S
O608 Mn592 2.297 . S
O608 C595 1.236 . S
N609 Mn593 2.282 . S
N609 C610 1.328 . S
N609 C614 1.318 . S
C610 N609 1.328 . S
C610 C611 1.457 . S
C610 H615 0.929 . S
C611 C610 1.457 . S
C611 C612 1.291 . S
C611 H624 0.931 1_545 S
C612 C611 1.291 . S
C612 C613 1.373 . S
C612 H625 0.929 1_545 S
C613 C612 1.373 . S
C613 C614 1.396 . S
C613 C620 1.403 . S
C614 C604 1.476 . S
C614 N609 1.318 . S
C614 C613 1.396 . S
H615 C610 0.929 . S
O616 Mn592 2.385 1_655 S
O616 C594 1.234 . S
O617 Mn592 2.209 1_655 S
O617 Mn593 2.215 . S
O617 C594 1.283 . S
O618 Mn592 2.094 . S
O618 C596 1.240 . S
O619 Mn593 2.117 . S
O619 C596 1.264 1_655 S
C620 C613 1.403 . S
C620 C621 1.399 . S
C620 H626 0.929 . S
C621 C601 1.449 . S
C621 C620 1.399 . S
C621 H627 0.930 . S
H622 C602 0.931 . S
H623 C603 0.930 . S
H624 C611 0.931 1_565 S
H625 C612 0.929 1_565 S
H626 C620 0.929 . S
H627 C621 0.930 . S
Mn628 O633 2.095 . S
Mn628 O643 2.162 . S
Mn628 O644 2.297 . S
Mn628 O652 2.385 . S
Mn628 O653 2.209 . S
Mn628 O654 2.094 . S
Mn629 O634 2.121 . S
Mn629 N636 2.257 . S
Mn629 N645 2.282 . S
Mn629 O653 2.215 . S
Mn629 O655 2.117 . S
C630 O652 1.234 . S
C630 O653 1.283 . S
C631 O643 1.281 . S
C631 O644 1.236 . S
C632 O654 1.240 . S
C632 O655 1.264 . S
O633 Mn628 2.095 . S
O633 C642 1.250 . S
O634 Mn629 2.121 . S
O634 C642 1.258 . S
C635 N636 1.326 . S
C635 C639 1.460 . S
C635 H641 0.929 . S
N636 Mn629 2.257 . S
N636 C635 1.326 . S
N636 C640 1.362 . S
C637 C638 1.258 . S
C637 C640 1.431 . S
C637 C657 1.449 . S
C638 C637 1.258 . S
C638 C639 1.477 . S
C638 H658 0.931 . S
C639 C635 1.460 . S
C639 C638 1.477 . S
C639 H659 0.930 . S
C640 N636 1.362 . S
C640 C637 1.431 . S
C640 C650 1.476 . S
H641 C635 0.929 . S
C642 O633 1.250 . S
C642 O634 1.258 . S
O643 Mn628 2.162 . S
O643 C631 1.281 . S
O644 Mn628 2.297 . S
O644 C631 1.236 . S
N645 Mn629 2.282 . S
N645 C646 1.328 . S
N645 C650 1.318 . S
C646 N645 1.328 . S
C646 C647 1.457 . S
C646 H651 0.929 . S
C647 C646 1.457 . S
C647 C648 1.291 . S
C647 H660 0.931 . S
C648 C647 1.291 . S
C648 C649 1.373 . S
C648 H661 0.929 . S
C649 C648 1.373 . S
C649 C650 1.396 . S
C649 C656 1.403 . S
C650 C640 1.476 . S
C650 N645 1.318 . S
C650 C649 1.396 . S
H651 C646 0.929 . S
O652 Mn628 2.385 . S
O652 C630 1.234 . S
O653 Mn628 2.209 . S
O653 Mn629 2.215 . S
O653 C630 1.283 . S
O654 Mn628 2.094 . S
O654 C632 1.240 . S
O655 Mn629 2.117 . S
O655 C632 1.264 . S
C656 C649 1.403 . S
C656 C657 1.399 . S
C656 H662 0.929 . S
C657 C637 1.449 . S
C657 C656 1.399 . S
C657 H663 0.930 . S
H658 C638 0.931 . S
H659 C639 0.930 . S
H660 C647 0.931 . S
H661 C648 0.929 . S
H662 C656 0.929 . S
H663 C657 0.930 . S
Mn664 O669 2.095 1_455 S
Mn664 O679 2.162 . S
Mn664 O680 2.297 1_455 S
Mn664 O688 2.385 . S
Mn664 O689 2.209 1_455 S
Mn664 O690 2.094 . S
Mn665 O670 2.121 . S
Mn665 N672 2.257 . S
Mn665 N681 2.282 . S
Mn665 O689 2.215 . S
Mn665 O691 2.117 1_655 S
C666 O688 1.237 . S
C666 O689 1.280 1_455 S
C667 O679 1.281 . S
C667 O680 1.236 1_455 S
C668 O690 1.240 . S
C668 O691 1.264 . S
O669 Mn664 2.095 1_655 S
O669 C678 1.250 . S
O670 Mn665 2.121 . S
O670 C678 1.258 . S
C671 N672 1.326 . S
C671 C675 1.460 . S
C671 H677 0.929 . S
N672 Mn665 2.257 . S
N672 C671 1.326 . S
N672 C676 1.362 . S
C673 C674 1.258 . S
C673 C676 1.431 . S
C673 C693 1.449 . S
C674 C673 1.258 . S
C674 C675 1.477 . S
C674 H694 0.931 . S
C675 C671 1.460 . S
C675 C674 1.477 . S
C675 H695 0.930 . S
C676 N672 1.362 . S
C676 C673 1.431 . S
C676 C686 1.476 . S
H677 C671 0.929 . S
C678 O669 1.250 . S
C678 O670 1.258 . S
O679 Mn664 2.162 . S
O679 C667 1.281 . S
O680 Mn664 2.297 1_655 S
O680 C667 1.236 1_655 S
N681 Mn665 2.282 . S
N681 C682 1.328 1_655 S
N681 C686 1.318 . S
C682 N681 1.328 1_455 S
C682 C683 1.457 . S
C682 H687 0.929 . S
C683 C682 1.457 . S
C683 C684 1.291 . S
C683 H696 0.931 . S
C684 C683 1.291 . S
C684 C685 1.373 1_455 S
C684 H697 0.929 . S
C685 C684 1.373 1_655 S
C685 C686 1.396 . S
C685 C692 1.403 . S
C686 C676 1.476 . S
C686 N681 1.318 . S
C686 C685 1.396 . S
H687 C682 0.929 . S
O688 Mn664 2.385 . S
O688 C666 1.237 . S
O689 Mn664 2.209 1_655 S
O689 Mn665 2.215 . S
O689 C666 1.280 1_655 S
O690 Mn664 2.094 . S
O690 C668 1.240 . S
O691 Mn665 2.117 1_455 S
O691 C668 1.264 . S
C692 C685 1.403 . S
C692 C693 1.399 . S
C692 H698 0.929 . S
C693 C673 1.449 . S
C693 C692 1.399 . S
C693 H699 0.930 . S
H694 C674 0.931 . S
H695 C675 0.930 . S
H696 C683 0.931 . S
H697 C684 0.929 . S
H698 C692 0.929 . S
H699 C693 0.930 . S
Mn700 O705 2.095 . S
Mn700 O715 2.162 . S
Mn700 O716 2.297 . S
Mn700 O724 2.385 . S
Mn700 O725 2.209 . S
Mn700 O726 2.094 . S
Mn701 O706 2.121 . S
Mn701 N708 2.257 . S
Mn701 N717 2.282 . S
Mn701 O725 2.215 . S
Mn701 O727 2.117 . S
C702 O724 1.234 . S
C702 O725 1.283 . S
C703 O715 1.281 . S
C703 O716 1.236 . S
C704 O726 1.240 . S
C704 O727 1.264 . S
O705 Mn700 2.095 . S
O705 C714 1.250 . S
O706 Mn701 2.121 . S
O706 C714 1.258 . S
C707 N708 1.326 . S
C707 C711 1.460 . S
C707 H713 0.929 . S
N708 Mn701 2.257 . S
N708 C707 1.326 . S
N708 C712 1.362 . S
C709 C710 1.258 . S
C709 C712 1.431 1_565 S
C709 C729 1.449 . S
C710 C709 1.258 . S
C710 C711 1.477 1_565 S
C710 H730 0.931 . S
C711 C707 1.460 . S
C711 C710 1.477 1_545 S
C711 H731 0.930 . S
C712 N708 1.362 . S
C712 C709 1.431 1_545 S
C712 C722 1.476 . S
H713 C707 0.929 . S
C714 O705 1.250 . S
C714 O706 1.258 . S
O715 Mn700 2.162 . S
O715 C703 1.281 . S
O716 Mn700 2.297 . S
O716 C703 1.236 . S
N717 Mn701 2.282 . S
N717 C718 1.328 . S
N717 C722 1.318 . S
C718 N717 1.328 . S
C718 C719 1.457 1_545 S
C718 H723 0.929 . S
C719 C718 1.457 1_565 S
C719 C720 1.291 . S
C719 H732 0.931 . S
C720 C719 1.291 . S
C720 C721 1.373 . S
C720 H733 0.929 . S
C721 C720 1.373 . S
C721 C722 1.396 1_565 S
C721 C728 1.403 . S
C722 C712 1.476 . S
C722 N717 1.318 . S
C722 C721 1.396 1_545 S
H723 C718 0.929 . S
O724 Mn700 2.385 . S
O724 C702 1.234 . S
O725 Mn700 2.209 . S
O725 Mn701 2.215 . S
O725 C702 1.283 . S
O726 Mn700 2.094 . S
O726 C704 1.240 . S
O727 Mn701 2.117 . S
O727 C704 1.264 . S
C728 C721 1.403 . S
C728 C729 1.399 . S
C728 H734 0.929 . S
C729 C709 1.449 . S
C729 C728 1.399 . S
C729 H735 0.930 . S
H730 C710 0.931 . S
H731 C711 0.930 . S
H732 C719 0.931 . S
H733 C720 0.929 . S
H734 C728 0.929 . S
H735 C729 0.930 . S
C306 C101 2.494 . S
C354 C125 1.177 . S
C139 C390 2.146 . S
C426 C82 1.848 . S
C452 C196 1.732 . S
C488 C234 2.176 . S
C220 C523 1.217 . S
C560 C173 1.943 . S
C211 C594 1.135 . S
C642 C182 1.305 . S
C201 C595 1.106 . S
C632 C239 1.430 . S
C135 C678 1.908 . S
C87 C667 1.765 . S
C106 C668 1.011 . S
C116 C666 1.287 1_655 S
C59 C414 1.945 . S
C268 C415 2.463 . S
C318 C291 1.269 1_565 S
C343 C163 1.307 . S
C78 C450 2.419 . S
C558 C215 1.740 . S
C451 C177 2.152 . S
C524 C230 2.162 . S
C522 C272 2.494 . S
C296 C570 1.176 . S
C158 C462 2.145 . S
C498 C253 1.848 . S
C63 C380 1.731 . S
C416 C6 2.175 1_545 S
C307 C30 1.217 . S
C344 C40 1.944 . S
C21 C630 1.135 . S
C49 C606 1.304 1_455 S
C68 C631 1.106 . S
C11 C596 1.429 . S
C714 C154 1.908 . S
C703 C258 1.766 . S
C704 C277 1.011 . S
C287 C702 1.288 . S
C192 C486 1.945 . S
C487 C97 2.464 . S
C534 C120 1.268 . S
C559 C144 1.306 . S
C249 C378 2.418 . S
C342 C25 1.740 . S
C44 C379 2.151 . S
C308 C2 2.162 . S
