# Generated by pormake.
# Topology apo, (3,6)-cn, num edge types: 1
# Building blocks:
#     Node 0, Type 0, BuildingBlock: BELTOD_clean_linker_0, # of connection points: 3
#     Node 1, Type 0, BuildingBlock: BELTOD_clean_linker_0, # of connection points: 3
#     Node 2, Type 0, BuildingBlock: BELTOD_clean_linker_0, # of connection points: 3
#     Node 3, Type 0, BuildingBlock: BELTOD_clean_linker_0, # of connection points: 3
#     Node 4, Type 0, BuildingBlock: BELTOD_clean_linker_0, # of connection points: 3
#     Node 5, Type 0, BuildingBlock: BELTOD_clean_linker_0, # of connection points: 3
#     Node 6, Type 0, BuildingBlock: BELTOD_clean_linker_0, # of connection points: 3
#     Node 7, Type 0, BuildingBlock: BELTOD_clean_linker_0, # of connection points: 3
#     Node 8, Type 1, BuildingBlock: KUMBOL_clean_sbu_1, # of connection points: 6
#     Node 9, Type 1, BuildingBlock: KUMBOL_clean_sbu_1, # of connection points: 6
#     Node 10, Type 1, BuildingBlock: KUMBOL_clean_sbu_1, # of connection points: 6
#     Node 11, Type 1, BuildingBlock: KUMBOL_clean_sbu_1, # of connection points: 6
#     Edge 12, Type (0, 1), None
#     Edge 13, Type (0, 1), None
#     Edge 14, Type (0, 1), None
#     Edge 15, Type (0, 1), None
#     Edge 16, Type (0, 1), None
#     Edge 17, Type (0, 1), None
#     Edge 18, Type (0, 1), None
#     Edge 19, Type (0, 1), None
#     Edge 20, Type (0, 1), None
#     Edge 21, Type (0, 1), None
#     Edge 22, Type (0, 1), None
#     Edge 23, Type (0, 1), None
#     Edge 24, Type (0, 1), None
#     Edge 25, Type (0, 1), None
#     Edge 26, Type (0, 1), None
#     Edge 27, Type (0, 1), None
#     Edge 28, Type (0, 1), None
#     Edge 29, Type (0, 1), None
#     Edge 30, Type (0, 1), None
#     Edge 31, Type (0, 1), None
#     Edge 32, Type (0, 1), None
#     Edge 33, Type (0, 1), None
#     Edge 34, Type (0, 1), None
#     Edge 35, Type (0, 1), None
# Relax obj value: 0.005
# Max RMSD: 0.164
# Mean RMSD: 0.117
data_MOF--net-apo--node1-KUMBOL_clean_sbu_1--node2-BELTOD_clean_linker_0--edge1-none
_symmetry_space_group_name_H-M    P1
_symmetry_Int_Tables_number       1
_symmetry_cell_setting            triclinic
loop_
_symmetry_equiv_pos_as_xyz
'x, y, z'
_cell_length_a     14.441223
_cell_length_b     24.443235
_cell_length_c     34.425084
_cell_angle_alpha  89.50674
_cell_angle_beta   89.867348
_cell_angle_gamma 90.397853
loop_
_atom_site_label
_atom_site_type_symbol
_atom_site_fract_x
_atom_site_fract_y
_atom_site_fract_z
_atom_type_partial_charge
P0 P 0.32474 0.36232 0.40321 0.0
H1 H 0.3467 0.30334 0.4763 0.0
H2 H 0.29609 0.32109 0.54268 0.0
H3 H 0.16029 0.46841 0.50281 0.0
H4 H 0.20676 0.4483 0.43631 0.0
H5 H 0.34187 0.24436 0.39434 0.0
H6 H 0.25203 0.17656 0.35884 0.0
H7 H 0.0561 0.30101 0.32554 0.0
H8 H 0.14566 0.36899 0.36238 0.0
H9 H 0.38177 0.47481 0.42131 0.0
H10 H 0.30851 0.38278 0.31955 0.0
O11 O 0.43052 0.33592 0.40761 0.0
H12 H 0.42618 0.55277 0.38012 0.0
H13 H 0.35427 0.45958 0.27839 0.0
C14 C 0.28262 0.3753 0.45158 0.0
C15 C 0.30576 0.33939 0.48194 0.0
C16 C 0.27735 0.34988 0.52001 0.0
C17 C 0.22514 0.39671 0.52854 0.0
C18 C 0.1998 0.43172 0.49759 0.0
C19 C 0.22723 0.42067 0.45944 0.0
C20 C 0.25174 0.312 0.38016 0.0
C21 C 0.27925 0.25718 0.37975 0.0
C22 C 0.22784 0.21841 0.35936 0.0
C23 C 0.14793 0.23369 0.33889 0.0
C24 C 0.11751 0.2881 0.34102 0.0
C25 C 0.16883 0.32696 0.36182 0.0
C26 C 0.33919 0.42327 0.37368 0.0
C27 C 0.37278 0.47177 0.3902 0.0
C28 C 0.39904 0.51619 0.36657 0.0
C29 C 0.39346 0.51253 0.32592 0.0
C30 C 0.35809 0.46425 0.30955 0.0
C31 C 0.33174 0.42006 0.33318 0.0
P32 P 0.30958 0.09398 0.89734 0.0
H33 H 0.32692 0.97726 0.88424 0.0
H34 H 0.23726 0.91206 0.84708 0.0
H35 H 0.03232 0.03567 0.82328 0.0
H36 H 0.12506 0.10239 0.86039 0.0
H37 H 0.41768 0.10673 0.82773 0.0
H38 H 0.47251 0.18636 0.79155 0.0
H39 H 0.29757 0.29055 0.86036 0.0
H40 H 0.24296 0.20948 0.89744 0.0
H41 H 0.19525 0.03814 0.95647 0.0
H42 H 0.3729 0.18029 0.9486 0.0
O43 O 0.41303 0.0642 0.90061 0.0
H44 H 0.20774 0.0398 0.0275 0.0
H45 H 0.38671 0.18128 0.01921 0.0
C46 C 0.23336 0.04498 0.87472 0.0
C47 C 0.26246 0.99066 0.87146 0.0
C48 C 0.21085 0.95317 0.85019 0.0
C49 C 0.12799 0.9688 0.83213 0.0
C50 C 0.09579 0.02251 0.8371 0.0
C51 C 0.14867 0.06058 0.85814 0.0
C52 C 0.32878 0.15244 0.86606 0.0
C53 C 0.39004 0.14649 0.83489 0.0
C54 C 0.42163 0.19213 0.81432 0.0
C55 C 0.39103 0.24472 0.8239 0.0
C56 C 0.3229 0.25041 0.85279 0.0
C57 C 0.29191 0.20427 0.87392 0.0
C58 C 0.28191 0.10968 0.94706 0.0
C59 C 0.23286 0.0714 0.96994 0.0
C60 C 0.24021 0.07222 1.01054 0.0
C61 C 0.29789 0.11079 0.02861 0.0
C62 C 0.34087 0.15161 1.0059 0.0
C63 C 0.33263 0.15114 0.96548 0.0
P64 P 0.87788 0.16597 0.64527 0.0
H65 H 0.03291 0.19506 0.59454 0.0
H66 H 0.04477 0.21066 0.52461 0.0
H67 H 0.76136 0.15697 0.51074 0.0
H68 H 0.74951 0.14175 0.58133 0.0
H69 H 0.80877 0.27597 0.63211 0.0
H70 H 0.68141 0.32713 0.6616 0.0
H71 H 0.58883 0.1806 0.72089 0.0
H72 H 0.71105 0.12855 0.68917 0.0
H73 H 0.92962 0.05807 0.6133 0.0
H74 H 0.86239 0.12649 0.72477 0.0
O75 O 0.96332 0.20401 0.66361 0.0
H76 H 0.96301 0.96999 0.64496 0.0
H77 H 0.89386 0.03964 0.75622 0.0
C78 C 0.88977 0.16815 0.59316 0.0
C79 C 0.97341 0.18613 0.57655 0.0
C80 C 0.98012 0.19519 0.53655 0.0
C81 C 0.90359 0.18577 0.51233 0.0
C82 C 0.82141 0.16456 0.52876 0.0
C83 C 0.8145 0.15596 0.569 0.0
C84 C 0.77137 0.19878 0.65931 0.0
C85 C 0.75915 0.25439 0.65036 0.0
C86 C 0.68642 0.28358 0.66709 0.0
C87 C 0.6265 0.25771 0.69368 0.0
C88 C 0.63475 0.20129 0.70052 0.0
C89 C 0.7056 0.17176 0.6828 0.0
C90 C 0.89138 0.09874 0.66655 0.0
C91 C 0.92027 0.05402 0.6444 0.0
C92 C 0.93971 0.00376 0.66256 0.0
C93 C 0.93031 -0.00236 0.7031 0.0
C94 C 0.90067 0.04252 0.72492 0.0
C95 C 0.8826 0.0925 0.70689 0.0
P96 P 0.80259 0.37976 0.12578 0.0
H97 H 0.72788 0.48654 0.10672 0.0
H98 H 0.63069 0.55029 0.14283 0.0
H99 H 0.59439 0.42923 0.23374 0.0
H100 H 0.68789 0.3647 0.19675 0.0
H101 H 0.8328 0.26216 0.11179 0.0
H102 H 0.89879 0.1894 0.1522 0.0
H103 H 0.93115 0.30328 0.24644 0.0
H104 H 0.86844 0.37639 0.2056 0.0
H105 H 0.89032 0.36511 0.0505 0.0
H106 H 0.62107 0.3371 0.10152 0.0
O107 O 0.89397 0.42003 0.11659 0.0
H108 H 0.83464 0.33042 0.98857 0.0
H109 H 0.56389 0.30277 0.03908 0.0
C110 C 0.71747 0.42154 0.14955 0.0
C111 C 0.69734 0.4733 0.13402 0.0
C112 C 0.64152 0.50957 0.15456 0.0
C113 C 0.60611 0.49475 0.19121 0.0
C114 C 0.62189 0.44174 0.2057 0.0
C115 C 0.67599 0.40504 0.18469 0.0
C116 C 0.84315 0.32448 0.15608 0.0
C117 C 0.85308 0.2715 0.14124 0.0
C118 C 0.89116 0.22993 0.16424 0.0
C119 C 0.91871 0.24067 0.20249 0.0
C120 C 0.9087 0.2937 0.21725 0.0
C121 C 0.87272 0.33543 0.19399 0.0
C122 C 0.7591 0.35496 0.08023 0.0
C123 C 0.81876 0.35205 0.04822 0.0
C124 C 0.78677 0.33223 0.01279 0.0
C125 C 0.69447 0.3145 1.00873 0.0
C126 C 0.63537 0.31606 0.04128 0.0
C127 C 0.66762 0.33608 0.07683 0.0
P128 P 0.8227 0.59283 0.61815 0.0
H129 H 0.90512 0.61031 0.54144 0.0
H130 H 0.84613 0.58888 0.4769 0.0
H131 H 0.5704 0.57179 0.52449 0.0
H132 H 0.62994 0.59229 0.58895 0.0
H133 H 0.95626 0.60858 0.6783 0.0
H134 H 0.00632 0.68651 0.71595 0.0
H135 H 0.79795 0.78664 0.66113 0.0
H136 H 0.74828 0.70691 0.62208 0.0
H137 H 0.84471 0.47794 0.63959 0.0
H138 H 0.64766 0.60612 0.66125 0.0
O139 O 0.92374 0.56184 0.6105 0.0
H140 H 0.75278 0.41478 0.67876 0.0
H141 H 0.55205 0.54145 0.69952 0.0
C142 C 0.77259 0.60141 0.5704 0.0
C143 C 0.8314 0.60371 0.53786 0.0
C144 C 0.79753 0.59143 0.50081 0.0
C145 C 0.70396 0.57696 0.49568 0.0
C146 C 0.6434 0.58117 0.52764 0.0
C147 C 0.67741 0.59335 0.56465 0.0
C148 C 0.85097 0.65245 0.64634 0.0
C149 C 0.9215 0.64727 0.67389 0.0
C150 C 0.95003 0.69199 0.69555 0.0
C151 C 0.90747 0.74307 0.69087 0.0
C152 C 0.83262 0.74782 0.66492 0.0
C153 C 0.80459 0.70256 0.64255 0.0
C154 C 0.753 0.54679 0.64736 0.0
C155 C 0.78122 0.49252 0.6525 0.0
C156 C 0.72812 0.45619 0.67476 0.0
C157 C 0.6444 0.47294 0.6916 0.0
C158 C 0.61543 0.52724 0.68622 0.0
C159 C 0.67014 0.56417 0.66461 0.0
P160 P 0.8617 0.84433 0.12998 0.0
H161 H 0.03139 0.87836 0.16868 0.0
H162 H 0.07511 0.95693 0.20633 0.0
H163 H 0.79632 0.019 0.1984 0.0
H164 H 0.75173 0.93882 0.16034 0.0
H165 H 0.86112 0.72547 0.13862 0.0
H166 H 0.75848 0.66089 0.17175 0.0
H167 H 0.57588 0.79297 0.20207 0.0
H168 H 0.67788 0.8577 0.16788 0.0
H169 H 0.88322 0.78771 0.05649 0.0
H170 H 0.77992 0.94394 0.09358 0.0
O171 O 0.96035 0.80946 0.12616 0.0
H172 H 0.8765 0.8184 0.98891 0.0
H173 H 0.76976 0.97409 0.02628 0.0
C174 C 0.88817 0.9022 0.16096 0.0
C175 C 0.97873 0.90832 0.17488 0.0
C176 C 0.00405 0.95386 0.19653 0.0
C177 C 0.93953 -0.0051 0.20506 0.0
C178 C 0.84767 0.98812 0.19242 0.0
C179 C 0.8222 0.94209 0.17053 0.0
C180 C 0.77894 0.79704 0.1515 0.0
C181 C 0.79906 0.74092 0.15223 0.0
C182 C 0.74046 0.70384 0.17139 0.0
C183 C 0.66027 0.72201 0.19026 0.0
C184 C 0.63768 0.77783 0.18801 0.0
C185 C 0.6965 0.81504 0.16868 0.0
C186 C 0.83403 0.86376 0.08046 0.0
C187 C 0.85706 0.82823 0.05014 0.0
C188 C 0.85273 0.84577 1.01133 0.0
C189 C 0.82427 0.89921 1.00197 0.0
C190 C 0.79447 0.93319 0.03237 0.0
C191 C 0.79956 0.91572 0.07116 0.0
P192 P 0.34497 0.8905 0.39702 0.0
H193 H 0.4261 0.87759 0.47404 0.0
H194 H 0.36455 0.84331 0.5358 0.0
H195 H 0.09885 0.81512 0.48171 0.0
H196 H 0.16173 0.84888 0.4197 0.0
H197 H 0.42515 0.88605 0.31937 0.0
H198 H 0.47246 0.80978 0.27799 0.0
H199 H 0.40112 0.69576 0.36988 0.0
H200 H 0.35059 0.77134 0.41049 0.0
H201 H 0.26327 -0.00468 0.41514 0.0
H202 H 0.23874 0.87553 0.32422 0.0
O203 O 0.43707 0.93011 0.40568 0.0
H204 H 0.16272 0.05722 0.37832 0.0
H205 H 0.1432 0.93857 0.28653 0.0
C206 C 0.29778 0.86692 0.44263 0.0
C207 C 0.35439 0.8645 0.47555 0.0
C208 C 0.31905 0.84494 0.51085 0.0
C209 C 0.22654 0.82695 0.51376 0.0
C210 C 0.17047 0.82846 0.48039 0.0
C211 C 0.20598 0.8482 0.44506 0.0
C212 C 0.38274 0.83433 0.36769 0.0
C213 C 0.41896 0.84456 0.33044 0.0
C214 C 0.44559 0.80119 0.30683 0.0
C215 C 0.43943 0.74726 0.32084 0.0
C216 C 0.40613 0.73719 0.35856 0.0
C217 C 0.37714 0.7804 0.38172 0.0
C218 C 0.2609 0.9316 0.37195 0.0
C219 C 0.23591 0.98223 0.38743 0.0
C220 C 0.17827 0.01735 0.36653 0.0
C221 C 0.14639 0.00252 0.32959 0.0
C222 C 0.16806 0.95089 0.31484 0.0
C223 C 0.2235 0.91515 0.33626 0.0
P224 P 0.38513 0.66321 0.88331 0.0
H225 H 0.43643 0.64013 0.80371 0.0
H226 H 0.46915 0.5556 0.76899 0.0
H227 H 0.43761 0.46357 0.87588 0.0
H228 H 0.40149 0.54832 0.91038 0.0
H229 H 0.30054 0.76936 0.89466 0.0
H230 H 0.17456 0.8176 0.8615 0.0
H231 H 0.13006 0.67769 0.78819 0.0
H232 H 0.25193 0.62836 0.82264 0.0
H233 H 0.48266 0.6905 0.95548 0.0
H234 H 0.22174 0.6183 0.92215 0.0
O235 O 0.47602 0.70543 0.87933 0.0
H236 H 0.42978 0.69452 0.02302 0.0
H237 H 0.16858 0.62193 0.98962 0.0
C238 C 0.41465 0.60038 0.8594 0.0
C239 C 0.43607 0.60176 0.81967 0.0
C240 C 0.45452 0.55349 0.79985 0.0
C241 C 0.45486 0.50313 0.81973 0.0
C242 C 0.43743 0.50195 0.85992 0.0
C243 C 0.41657 0.5503 0.87959 0.0
C244 C 0.28785 0.69599 0.86033 0.0
C245 C 0.26281 0.74878 0.87182 0.0
C246 C 0.19051 0.77609 0.85316 0.0
C247 C 0.14363 0.75127 0.82225 0.0
C248 C 0.1659 0.69757 0.81188 0.0
C249 C 0.23658 0.66975 0.83122 0.0
C250 C 0.35547 0.65479 0.93382 0.0
C251 C 0.41474 0.67445 0.96283 0.0
C252 C 0.38459 0.67658 1.00145 0.0
C253 C 0.29454 0.65932 1.01148 0.0
C254 C 0.23776 0.63639 0.98262 0.0
C255 C 0.26816 0.634 0.94413 0.0
C256 C 0.71493 0.10353 0.26743 0.0
C257 C 0.68427 0.006 0.27406 0.0
C258 C 0.74319 0.05163 0.2789 0.0
C259 C 0.59703 0.01316 0.25689 0.0
C260 C 0.62727 0.1109 0.25033 0.0
C261 C 0.56887 0.06541 0.2449 0.0
N262 N 0.77271 0.14679 0.2734 0.0
C263 C 0.74532 0.1988 0.26474 0.0
C264 C 0.60052 0.16388 0.23965 0.0
C265 C 0.65937 0.20808 0.2473 0.0
Gd266 Gd 0.15059 0.12726 0.23563 0.0
Gd267 Gd 0.91706 0.12591 0.30069 0.0
N268 N 0.82939 0.0457 0.29413 0.0
C269 C 0.71485 0.95464 0.2868 0.0
C270 C 0.8586 -0.00379 0.30771 0.0
C271 C 0.80193 0.94993 0.30413 0.0
H272 H 0.92543 0.99246 0.32139 0.0
H273 H 0.82523 0.91083 0.31506 0.0
H274 H 0.10327 0.25189 0.19738 0.0
H275 H 0.78926 0.23326 0.27165 0.0
H276 H 0.15989 0.34631 0.20309 0.0
H277 H 0.67143 0.91858 0.28385 0.0
H278 H 0.55066 0.97863 0.25291 0.0
H279 H 0.29963 0.04907 0.28505 0.0
H280 H 0.53383 0.1712 0.22627 0.0
H281 H 0.63827 0.24933 0.24007 0.0
H282 H 0.43014 0.33082 0.28313 0.0
H283 H 0.50098 0.07038 0.2322 0.0
H284 H 0.51126 0.1531 0.33129 0.0
H285 H 0.44118 0.06106 0.3243 0.0
N286 N 0.28759 0.13373 0.27159 0.0
C287 C 0.32557 0.18457 0.27452 0.0
C288 C 0.32862 0.08952 0.28861 0.0
C289 C 0.44854 0.14817 0.31443 0.0
C290 C 0.40907 0.09615 0.31063 0.0
C291 C 0.40719 0.19313 0.2961 0.0
H292 H 0.50717 0.25351 0.31538 0.0
N293 N 0.19946 0.21919 0.23776 0.0
C294 C 0.28009 0.2285 0.25726 0.0
C295 C 0.27223 0.32474 0.24125 0.0
C296 C 0.31773 0.28172 0.26003 0.0
C297 C 0.15924 0.26029 0.21696 0.0
C298 C 0.19338 0.31381 0.21916 0.0
O299 O 0.91096 0.07381 0.24567 0.0
O300 O 0.06114 0.05346 0.22624 0.0
O301 O 0.17738 0.14269 0.17378 0.0
O302 O 0.2638 0.08578 0.20694 0.0
O303 O 0.03814 0.07528 0.32198 0.0
O304 O 0.1277 0.0487 0.26909 0.0
O305 O 0.1515 0.15449 0.29843 0.0
O306 O 0.0142 0.19867 0.30409 0.0
O307 O 0.9251 0.10753 0.36242 0.0
O308 O 0.81901 0.16183 0.34086 0.0
O309 O 0.01851 0.16307 0.2105 0.0
O310 O 0.95128 0.19988 0.26445 0.0
C311 C 0.97126 0.04436 0.22615 0.0
C312 C 0.09846 0.0428 0.30521 0.0
C313 C 0.30494 0.09899 0.13906 0.0
C314 C 0.32976 0.10136 0.06887 0.0
C315 C 0.45282 0.07154 0.11194 0.0
C316 C 0.39546 0.07949 0.14397 0.0
C317 C 0.42046 0.08262 0.07462 0.0
C318 C 0.27178 0.10954 0.10121 0.0
C319 C 0.2476 0.10954 0.17373 0.0
C320 C 0.39999 0.29025 0.28092 0.0
C321 C 0.44424 0.24617 0.2991 0.0
H322 H 0.29902 0.36614 0.24274 0.0
C323 C 0.10157 0.19343 0.31351 0.0
C324 C 0.96087 0.19751 0.22669 0.0
C325 C 0.88449 0.18128 0.40204 0.0
C326 C 0.90831 0.20162 0.47064 0.0
C327 C 0.94833 0.26921 0.42096 0.0
C328 C 0.9189 0.23343 0.39211 0.0
C329 C 0.94354 0.25343 0.45996 0.0
C330 C 0.87843 0.16567 0.44139 0.0
C331 C 0.86023 0.14199 0.37146 0.0
H332 H 0.52267 0.05683 0.11607 0.0
H333 H 0.4224 0.07103 0.17266 0.0
H334 H 0.46596 0.07596 0.05006 0.0
H335 H 0.20188 0.12423 0.09691 0.0
H336 H 0.97523 0.30924 0.41308 0.0
H337 H 0.92363 0.24636 0.36202 0.0
H338 H 0.96643 0.28204 0.48186 0.0
H339 H 0.85266 0.12526 0.44915 0.0
C340 C 0.83166 0.36598 0.75926 0.0
C341 C 0.87558 0.4619 0.76089 0.0
C342 C 0.81128 0.41957 0.7686 0.0
C343 C 0.95981 0.44966 0.74249 0.0
C344 C 0.91658 0.35333 0.74138 0.0
C345 C 0.98007 0.39548 0.73264 0.0
N346 N 0.76873 0.32619 0.7681 0.0
C347 C 0.78823 0.27254 0.76167 0.0
C348 C 0.93565 0.29858 0.73334 0.0
C349 C 0.87202 0.25799 0.74426 0.0
Gd350 Gd 0.39156 0.37281 0.73259 0.0
Gd351 Gd 0.62784 0.35538 0.79454 0.0
N352 N 0.72759 0.43028 0.78492 0.0
C353 C 0.85352 0.51503 0.7724 0.0
C354 C 0.70758 0.48128 0.7979 0.0
C355 C 0.76992 0.5244 0.79177 0.0
H356 H 0.64441 0.48857 0.81357 0.0
H357 H 0.75343 0.56451 0.80252 0.0
H358 H 0.40586 0.24205 0.70259 0.0
H359 H 0.73917 0.241 0.77011 0.0
H360 H 0.32065 0.15547 0.7126 0.0
H361 H 0.9014 0.54865 0.76732 0.0
H362 H 0.01012 0.48163 0.73618 0.0
H363 H 0.27431 0.46811 0.782 0.0
H364 H 1.0003 0.28713 0.71971 0.0
H365 H 0.88777 0.21556 0.73935 0.0
H366 H 0.06642 0.20312 0.79535 0.0
H367 H 0.04587 0.38632 0.71911 0.0
H368 H 0.03993 0.38961 0.8353 0.0
H369 H 0.13412 0.47292 0.82299 0.0
N370 N 0.26002 0.38283 0.77167 0.0
C371 C 0.20739 0.3369 0.77682 0.0
C372 C 0.23427 0.43139 0.78751 0.0
C373 C 0.10136 0.38723 0.81728 0.0
C374 C 0.15454 0.43433 0.81051 0.0
C375 C 0.12763 0.33769 0.8005 0.0
H376 H 0.0158 0.28897 0.82514 0.0
N377 N 0.31651 0.28789 0.73885 0.0
C378 C 0.2363 0.2882 0.75991 0.0
C379 C 0.2169 0.19134 0.74948 0.0
C380 C 0.18549 0.23956 0.76638 0.0
C381 C 0.34555 0.24146 0.72106 0.0
C382 C 0.29662 0.19239 0.72635 0.0
O383 O 0.64223 0.39991 0.7372 0.0
O384 O 0.50117 0.43714 0.71841 0.0
O385 O 0.35157 0.35712 0.67221 0.0
O386 O 0.28667 0.42301 0.70511 0.0
O387 O 0.51275 0.41103 0.81578 0.0
O388 O 0.43876 0.449 0.76273 0.0
O389 O 0.39153 0.33557 0.79424 0.0
O390 O 0.52531 0.28682 0.79661 0.0
O391 O 0.6281 0.37755 0.85534 0.0
O392 O 0.7142 0.31101 0.83544 0.0
O393 O 0.50994 0.32655 0.70419 0.0
O394 O 0.58023 0.28575 0.75681 0.0
C395 C 0.59233 0.43427 0.7167 0.0
C396 C 0.47223 0.45236 0.7981 0.0
C397 C 0.23105 0.41047 0.63926 0.0
C398 C 0.19748 0.4092 0.5694 0.0
C399 C 0.08686 0.44781 0.61495 0.0
C400 C 0.14636 0.43667 0.64579 0.0
C401 C 0.11177 0.43409 0.5771 0.0
C402 C 0.25652 0.39699 0.60101 0.0
C403 C 0.29081 0.39632 0.67265 0.0
C404 C 0.10606 0.24024 0.79 0.0
C405 C 0.07729 0.28913 0.80703 0.0
H406 H 0.17964 0.15334 0.75421 0.0
C407 C 0.438 0.29233 0.80573 0.0
C408 C 0.56778 0.29074 0.71917 0.0
C409 C 0.65671 0.30625 0.8998 0.0
C410 C 0.66046 0.29556 0.97037 0.0
C411 C 0.57417 0.2309 0.93077 0.0
C412 C 0.60044 0.25945 0.89711 0.0
C413 C 0.6035 0.24888 0.96726 0.0
C414 C 0.68623 0.32411 0.93632 0.0
C415 C 0.68389 0.33814 0.86523 0.0
H416 H 0.02088 0.46697 0.62044 0.0
H417 H 0.12548 0.44792 0.67484 0.0
H418 H 0.0633 0.44268 0.55393 0.0
H419 H 0.32305 0.37812 0.59593 0.0
H420 H 0.53152 0.19452 0.92851 0.0
H421 H 0.57702 0.24504 0.86914 0.0
H422 H 0.58311 0.22573 0.99289 0.0
H423 H 0.72861 0.3608 0.93818 0.0
C424 C 0.70651 0.82202 0.74985 0.0
C425 C 0.70007 0.72274 0.75303 0.0
C426 C 0.74499 0.77251 0.76173 0.0
C427 C 0.61599 0.7233 0.7326 0.0
C428 C 0.62258 0.82267 0.72903 0.0
C429 C 0.57745 0.7731 0.7206 0.0
N430 N 0.75335 0.8693 0.75718 0.0
C431 C 0.71882 0.91867 0.74577 0.0
C432 C 0.58708 0.87316 0.71688 0.0
C433 C 0.63519 0.92135 0.72546 0.0
Gd434 Gd 0.13027 0.86005 0.72654 0.0
Gd435 Gd 0.89425 0.85973 0.7899 0.0
N436 N 0.82864 0.77299 0.78003 0.0
C437 C 0.74194 0.67379 0.76451 0.0
C438 C 0.86736 0.72561 0.793 0.0
C439 C 0.82545 0.67535 0.78495 0.0
H440 H 0.93029 0.72616 0.80963 0.0
H441 H 0.85808 0.63801 0.79456 0.0
H442 H 0.12057 0.99399 0.70733 0.0
H443 H 0.75525 0.95606 0.75266 0.0
H444 H 0.21157 0.0769 0.71994 0.0
H445 H 0.71012 0.63478 0.75776 0.0
H446 H 0.58059 0.6854 0.72565 0.0
H447 H 0.26437 0.75431 0.75203 0.0
H448 H 0.52243 0.8754 0.70104 0.0
H449 H 0.60775 0.96056 0.71651 0.0
H450 H 0.47497 0.01223 0.79198 0.0
H451 H 0.51282 0.77283 0.70466 0.0
H452 H 0.50545 0.81801 0.80876 0.0
H453 H 0.41131 0.73899 0.78727 0.0
N454 N 0.27406 0.84085 0.75511 0.0
C455 C 0.32668 0.88477 0.76516 0.0
C456 C 0.30455 0.78896 0.76184 0.0
C457 C 0.44086 0.82495 0.7936 0.0
C458 C 0.38786 0.7802 0.78152 0.0
C459 C 0.41125 0.87809 0.78492 0.0
H460 H 0.52879 0.92017 0.8103 0.0
N461 N 0.21198 0.94154 0.73773 0.0
C462 C 0.29557 0.93669 0.75553 0.0
C463 C 0.31736 0.0346 0.75236 0.0
C464 C 0.34922 0.98325 0.76445 0.0
C465 C 0.18273 0.99097 0.72431 0.0
C466 C 0.23482 0.03815 0.73136 0.0
O467 O 0.89186 0.82725 0.72737 0.0
O468 O 0.0344 0.78836 0.72114 0.0
O469 O 0.13748 0.88553 0.66613 0.0
O470 O 0.22647 0.82083 0.68717 0.0
O471 O 0.02008 0.81603 0.81447 0.0
O472 O 0.09373 0.78351 0.76018 0.0
O473 O 0.13542 0.89593 0.78693 0.0
O474 O 0.99138 0.9313 0.80102 0.0
O475 O 0.87416 0.83604 0.85048 0.0
O476 O 0.78752 0.89809 0.82467 0.0
O477 O 0.00781 0.91038 0.70523 0.0
O478 O 0.92668 0.93906 0.75935 0.0
C479 C 0.94655 0.79039 0.71205 0.0
C480 C 0.08062 0.78364 0.79792 0.0
C481 C 0.17644 0.81673 0.62197 0.0
C482 C 0.18897 0.80723 0.55163 0.0
C483 C 0.09758 0.74198 0.58967 0.0
C484 C 0.12001 0.76984 0.62367 0.0
C485 C 0.13164 0.76051 0.5538 0.0
C486 C 0.21065 0.83521 0.58603 0.0
C487 C 0.19766 0.84826 0.65701 0.0
C488 C 0.43304 0.97691 0.7846 0.0
C489 C 0.46366 0.92448 0.79504 0.0
H490 H 0.35703 0.07141 0.75814 0.0
C491 C 0.08174 0.9299 0.80572 0.0
C492 C 0.95519 0.94603 0.72328 0.0
C493 C 0.82887 0.90883 0.89073 0.0
C494 C 0.83335 0.9211 0.9614 0.0
C495 C 0.87973 -0.0046 0.91766 0.0
C496 C 0.86174 0.96262 0.88559 0.0
C497 C 0.86587 0.97496 0.95521 0.0
C498 C 0.81484 0.8882 0.92869 0.0
C499 C 0.81241 0.87359 0.85669 0.0
H500 H 0.0538 0.70587 0.59113 0.0
H501 H 0.09325 0.75493 0.65117 0.0
H502 H 0.11425 0.73787 0.52788 0.0
H503 H 0.25304 0.87198 0.58486 0.0
H504 H 0.90567 0.03668 0.9134 0.0
H505 H 0.87416 0.97927 0.85677 0.0
H506 H 0.88309 0.00107 0.97944 0.0
H507 H 0.78973 0.84664 0.93264 0.0
C508 C 0.82255 0.64584 0.25314 0.0
C509 C 0.84715 0.74127 0.26894 0.0
C510 C 0.79269 0.69321 0.27123 0.0
C511 C 0.9306 0.74125 0.24784 0.0
C512 C 0.90714 0.64533 0.23256 0.0
C513 C 0.96069 0.69337 0.22983 0.0
N514 N 0.76806 0.60039 0.2552 0.0
C515 C 0.7967 0.55213 0.23985 0.0
C516 C 0.93523 0.59651 0.21527 0.0
C517 C 0.88018 0.54955 0.21928 0.0
Gd518 Gd 0.39968 0.63007 0.2228 0.0
Gd519 Gd 0.62934 0.60832 0.28982 0.0
N520 N 0.7113 0.69209 0.2914 0.0
C521 C 0.81683 0.78781 0.28837 0.0
C522 C 0.68515 0.73629 0.31265 0.0
C523 C 0.73621 0.7851 0.31078 0.0
H524 H 0.62659 0.73399 0.33196 0.0
H525 H 0.71411 0.82033 0.32713 0.0
H526 H 0.36255 0.50836 0.1844 0.0
H527 H 0.75569 0.51545 0.24379 0.0
H528 H 0.24731 0.43304 0.18889 0.0
H529 H 0.85672 0.82542 0.2871 0.0
H530 H 0.97298 0.77793 0.24567 0.0
H531 H 0.29607 0.73897 0.26513 0.0
H532 H 0.99996 0.5944 0.19937 0.0
H533 H 0.90231 0.51129 0.20679 0.0
H534 H 0.02702 0.49568 0.2832 0.0
H535 H 0.02572 0.69382 0.21405 0.0
H536 H 0.05583 0.68098 0.32566 0.0
H537 H 0.16359 0.75633 0.30814 0.0
N538 N 0.27255 0.65288 0.26275 0.0
C539 C 0.21014 0.61189 0.26959 0.0
C540 C 0.25365 0.70487 0.27459 0.0
C541 C 0.11616 0.67261 0.30796 0.0
C542 C 0.17692 0.71522 0.2982 0.0
C543 C 0.13083 0.6205 0.29273 0.0
H544 H 0.00559 0.58352 0.31627 0.0
N545 N 0.29653 0.55614 0.22741 0.0
C546 C 0.22157 0.56238 0.25082 0.0
C547 C 0.16554 0.47278 0.2328 0.0
C548 C 0.15496 0.52029 0.25481 0.0
C549 C 0.30496 0.51129 0.20438 0.0
C550 C 0.23994 0.46877 0.20692 0.0
O551 O 0.64057 0.63863 0.22738 0.0
O552 O 0.51416 0.69342 0.21832 0.0
O553 O 0.39594 0.62532 0.15884 0.0
O554 O 0.29272 0.67188 0.19101 0.0
O555 O 0.51694 0.66223 0.3138 0.0
O556 O 0.44888 0.70141 0.25948 0.0
O557 O 0.40951 0.55693 0.26336 0.0
O558 O 0.48631 0.59358 0.31464 0.0
O559 O 0.70674 0.61382 0.3438 0.0
O560 O 0.67698 0.53471 0.31897 0.0
O561 O 0.51156 0.57462 0.19889 0.0
O562 O 0.58421 0.53633 0.25308 0.0
C563 C 0.60245 0.68304 0.21303 0.0
C564 C 0.46947 0.70137 0.29674 0.0
C565 C 0.27115 0.6697 0.12156 0.0
C566 C 0.25659 0.6699 0.05081 0.0
C567 C 0.13197 0.70495 0.09096 0.0
C568 C 0.18278 0.69322 0.12432 0.0
C569 C 0.16835 0.69336 0.05445 0.0
C570 C 0.30808 0.65834 0.08462 0.0
C571 C 0.32102 0.65467 0.15749 0.0
C572 C 0.07867 0.52769 0.27953 0.0
C573 C 0.06662 0.57769 0.29845 0.0
H574 H 0.1154 0.43969 0.23481 0.0
C575 C 0.42825 0.55752 0.30058 0.0
C576 C 0.56211 0.53626 0.21582 0.0
C577 C 0.67645 0.54099 0.38809 0.0
C578 C 0.67247 0.55041 0.45906 0.0
C579 C 0.59224 0.47471 0.4279 0.0
C580 C 0.62171 0.49338 0.39153 0.0
C581 C 0.61675 0.50301 0.46134 0.0
C582 C 0.70246 0.56905 0.42215 0.0
C583 C 0.70724 0.56106 0.34928 0.0
H584 H 0.06396 0.72296 0.09339 0.0
H585 H 0.15215 0.70199 0.15232 0.0
H586 H 0.12786 0.70354 0.02898 0.0
H587 H 0.37578 0.6398 0.08218 0.0
H588 H 0.55061 0.43782 0.43022 0.0
H589 H 0.60121 0.47044 0.36615 0.0
H590 H 0.59432 0.48667 0.48918 0.0
H591 H 0.74571 0.60536 0.4199 0.0
loop_
_geom_bond_atom_site_label_1
_geom_bond_atom_site_label_2
_geom_bond_distance
_geom_bond_site_symmetry_2
_ccdc_geom_bond_type
P0 O11 1.490 . S
P0 C14 1.812 . S
P0 C20 1.803 . S
P0 C26 1.819 . S
H1 C15 0.941 . S
H2 C16 0.939 . S
H3 C18 0.940 . S
H4 C19 0.940 . S
H5 C21 0.939 . S
H6 C22 0.942 . S
H7 C24 0.940 . S
H8 C25 0.939 . S
H9 C27 0.941 . S
H10 C31 0.939 . S
O11 P0 1.490 . S
H12 C28 0.939 . S
H13 C30 0.940 . S
C14 P0 1.812 . S
C14 C15 1.389 . S
C14 C19 1.391 . S
C15 H1 0.941 . S
C15 C14 1.389 . S
C15 C16 1.397 . S
C16 H2 0.939 . S
C16 C15 1.397 . S
C16 C17 1.378 . S
C17 C16 1.378 . S
C17 C18 1.378 . S
C18 H3 0.940 . S
C18 C17 1.378 . S
C18 C19 1.396 . S
C19 H4 0.940 . S
C19 C14 1.391 . S
C19 C18 1.396 . S
C20 P0 1.803 . S
C20 C21 1.378 . S
C20 C25 1.400 . S
C21 H5 0.939 . S
C21 C20 1.378 . S
C21 C22 1.361 . S
C22 H6 0.942 . S
C22 C21 1.361 . S
C22 C23 1.369 . S
C23 C22 1.369 . S
C23 C24 1.404 . S
C24 H7 0.940 . S
C24 C23 1.404 . S
C24 C25 1.389 . S
C25 H8 0.939 . S
C25 C20 1.400 . S
C25 C24 1.389 . S
C26 P0 1.819 . S
C26 C27 1.391 . S
C26 C31 1.391 . S
C27 H9 0.941 . S
C27 C26 1.391 . S
C27 C28 1.396 . S
C28 H12 0.939 . S
C28 C27 1.396 . S
C28 C29 1.397 . S
C29 C28 1.397 . S
C29 C30 1.385 . S
C30 H13 0.940 . S
C30 C29 1.385 . S
C30 C31 1.388 . S
C31 H10 0.939 . S
C31 C26 1.391 . S
C31 C30 1.388 . S
P32 O43 1.490 . S
P32 C46 1.812 . S
P32 C52 1.803 . S
P32 C58 1.819 . S
H33 C47 0.941 . S
H34 C48 0.939 . S
H35 C50 0.940 . S
H36 C51 0.940 . S
H37 C53 0.939 . S
H38 C54 0.942 . S
H39 C56 0.940 . S
H40 C57 0.939 . S
H41 C59 0.941 . S
H42 C63 0.939 . S
O43 P32 1.490 . S
H44 C60 0.939 1_554 S
H45 C62 0.940 . S
C46 P32 1.812 . S
C46 C47 1.389 1_545 S
C46 C51 1.391 . S
C47 H33 0.941 . S
C47 C46 1.389 1_565 S
C47 C48 1.397 . S
C48 H34 0.939 . S
C48 C47 1.397 . S
C48 C49 1.378 . S
C49 C48 1.378 . S
C49 C50 1.378 1_565 S
C50 H35 0.940 . S
C50 C49 1.378 1_545 S
C50 C51 1.396 . S
C51 H36 0.940 . S
C51 C46 1.391 . S
C51 C50 1.396 . S
C52 P32 1.803 . S
C52 C53 1.378 . S
C52 C57 1.400 . S
C53 H37 0.939 . S
C53 C52 1.378 . S
C53 C54 1.361 . S
C54 H38 0.942 . S
C54 C53 1.361 . S
C54 C55 1.369 . S
C55 C54 1.369 . S
C55 C56 1.404 . S
C56 H39 0.940 . S
C56 C55 1.404 . S
C56 C57 1.389 . S
C57 H40 0.939 . S
C57 C52 1.400 . S
C57 C56 1.389 . S
C58 P32 1.819 . S
C58 C59 1.391 . S
C58 C63 1.391 . S
C59 H41 0.941 . S
C59 C58 1.391 . S
C59 C60 1.396 . S
C60 H44 0.939 1_556 S
C60 C59 1.396 . S
C60 C61 1.397 1_556 S
C61 C60 1.397 1_554 S
C61 C62 1.386 1_554 S
C62 H45 0.940 . S
C62 C61 1.386 1_556 S
C62 C63 1.388 . S
C63 H42 0.939 . S
C63 C58 1.391 . S
C63 C62 1.388 . S
P64 O75 1.490 . S
P64 C78 1.812 . S
P64 C84 1.803 . S
P64 C90 1.819 . S
H65 C79 0.941 . S
H66 C80 0.939 . S
H67 C82 0.940 . S
H68 C83 0.940 . S
H69 C85 0.939 . S
H70 C86 0.942 . S
H71 C88 0.940 . S
H72 C89 0.939 . S
H73 C91 0.941 1_455 S
H74 C95 0.939 . S
O75 P64 1.490 . S
H76 C92 0.939 1_465 S
H77 C94 0.940 . S
C78 P64 1.812 . S
C78 C79 1.389 . S
C78 C83 1.391 . S
C79 H65 0.941 . S
C79 C78 1.389 . S
C79 C80 1.397 . S
C80 H66 0.939 . S
C80 C79 1.397 . S
C80 C81 1.378 . S
C81 C80 1.378 . S
C81 C82 1.378 . S
C82 H67 0.940 . S
C82 C81 1.378 . S
C82 C83 1.396 . S
C83 H68 0.940 . S
C83 C78 1.391 . S
C83 C82 1.396 . S
C84 P64 1.803 . S
C84 C85 1.378 . S
C84 C89 1.400 . S
C85 H69 0.939 . S
C85 C84 1.378 . S
C85 C86 1.361 . S
C86 H70 0.942 . S
C86 C85 1.361 . S
C86 C87 1.369 . S
C87 C86 1.369 . S
C87 C88 1.404 . S
C88 H71 0.940 . S
C88 C87 1.404 . S
C88 C89 1.389 . S
C89 H72 0.939 . S
C89 C84 1.400 . S
C89 C88 1.389 . S
C90 P64 1.819 . S
C90 C91 1.391 . S
C90 C95 1.391 . S
C91 H73 0.941 1_655 S
C91 C90 1.391 . S
C91 C92 1.396 . S
C92 H76 0.939 1_645 S
C92 C91 1.396 . S
C92 C93 1.397 1_545 S
C93 C92 1.397 1_565 S
C93 C94 1.385 1_565 S
C94 H77 0.940 . S
C94 C93 1.385 1_545 S
C94 C95 1.388 . S
C95 H74 0.939 . S
C95 C90 1.391 . S
C95 C94 1.388 . S
P96 O107 1.490 . S
P96 C110 1.812 . S
P96 C116 1.803 . S
P96 C122 1.819 . S
H97 C111 0.941 . S
H98 C112 0.939 . S
H99 C114 0.940 . S
H100 C115 0.940 . S
H101 C117 0.939 1_455 S
H102 C118 0.942 1_455 S
H103 C120 0.940 . S
H104 C121 0.939 . S
H105 C123 0.941 . S
H106 C127 0.939 . S
O107 P96 1.490 . S
H108 C124 0.939 1_556 S
H109 C126 0.940 . S
C110 P96 1.812 . S
C110 C111 1.389 . S
C110 C115 1.391 . S
C111 H97 0.941 . S
C111 C110 1.389 . S
C111 C112 1.397 . S
C112 H98 0.939 . S
C112 C111 1.397 . S
C112 C113 1.378 . S
C113 C112 1.378 . S
C113 C114 1.378 . S
C114 H99 0.940 . S
C114 C113 1.378 . S
C114 C115 1.396 . S
C115 H100 0.940 . S
C115 C110 1.391 . S
C115 C114 1.396 . S
C116 P96 1.803 . S
C116 C117 1.378 . S
C116 C121 1.400 . S
C117 H101 0.939 1_655 S
C117 C116 1.378 . S
C117 C118 1.361 . S
C118 H102 0.942 1_655 S
C118 C117 1.361 . S
C118 C119 1.369 . S
C119 C118 1.369 . S
C119 C120 1.404 . S
C120 H103 0.940 . S
C120 C119 1.404 . S
C120 C121 1.389 . S
C121 H104 0.939 . S
C121 C116 1.400 . S
C121 C120 1.389 . S
C122 P96 1.819 . S
C122 C123 1.391 . S
C122 C127 1.391 . S
C123 H105 0.941 . S
C123 C122 1.391 . S
C123 C124 1.396 . S
C124 H108 0.939 1_554 S
C124 C123 1.396 . S
C124 C125 1.397 . S
C125 C124 1.397 . S
C125 C126 1.385 . S
C126 H109 0.940 . S
C126 C125 1.385 . S
C126 C127 1.388 . S
C127 H106 0.939 . S
C127 C122 1.391 . S
C127 C126 1.388 . S
P128 O139 1.490 . S
P128 C142 1.812 . S
P128 C148 1.803 . S
P128 C154 1.819 . S
H129 C143 0.941 . S
H130 C144 0.939 . S
H131 C146 0.940 . S
H132 C147 0.940 . S
H133 C149 0.939 . S
H134 C150 0.942 1_455 S
H135 C152 0.940 . S
H136 C153 0.939 . S
H137 C155 0.941 . S
H138 C159 0.939 . S
O139 P128 1.490 . S
H140 C156 0.939 . S
H141 C158 0.940 . S
C142 P128 1.812 . S
C142 C143 1.389 . S
C142 C147 1.391 . S
C143 H129 0.941 . S
C143 C142 1.389 . S
C143 C144 1.397 . S
C144 H130 0.939 . S
C144 C143 1.397 . S
C144 C145 1.378 . S
C145 C144 1.378 . S
C145 C146 1.378 . S
C146 H131 0.940 . S
C146 C145 1.378 . S
C146 C147 1.396 . S
C147 H132 0.940 . S
C147 C142 1.391 . S
C147 C146 1.396 . S
C148 P128 1.803 . S
C148 C149 1.378 . S
C148 C153 1.400 . S
C149 H133 0.939 . S
C149 C148 1.378 . S
C149 C150 1.361 . S
C150 H134 0.942 1_655 S
C150 C149 1.361 . S
C150 C151 1.369 . S
C151 C150 1.369 . S
C151 C152 1.404 . S
C152 H135 0.940 . S
C152 C151 1.404 . S
C152 C153 1.389 . S
C153 H136 0.939 . S
C153 C148 1.400 . S
C153 C152 1.389 . S
C154 P128 1.819 . S
C154 C155 1.391 . S
C154 C159 1.391 . S
C155 H137 0.941 . S
C155 C154 1.391 . S
C155 C156 1.396 . S
C156 H140 0.939 . S
C156 C155 1.396 . S
C156 C157 1.397 . S
C157 C156 1.397 . S
C157 C158 1.385 . S
C158 H141 0.940 . S
C158 C157 1.385 . S
C158 C159 1.388 . S
C159 H138 0.939 . S
C159 C154 1.391 . S
C159 C158 1.388 . S
P160 O171 1.490 . S
P160 C174 1.812 . S
P160 C180 1.803 . S
P160 C186 1.819 . S
H161 C175 0.941 . S
H162 C176 0.939 . S
H163 C178 0.940 . S
H164 C179 0.940 . S
H165 C181 0.939 . S
H166 C182 0.942 . S
H167 C184 0.940 . S
H168 C185 0.939 . S
H169 C187 0.941 . S
H170 C191 0.939 . S
O171 P160 1.490 . S
H172 C188 0.939 . S
H173 C190 0.940 . S
C174 P160 1.812 . S
C174 C175 1.389 . S
C174 C179 1.391 . S
C175 H161 0.941 . S
C175 C174 1.389 . S
C175 C176 1.397 . S
C176 H162 0.939 . S
C176 C175 1.397 . S
C176 C177 1.378 1_565 S
C177 C176 1.378 1_545 S
C177 C178 1.378 . S
C178 H163 0.940 . S
C178 C177 1.378 . S
C178 C179 1.396 1_545 S
C179 H164 0.940 . S
C179 C174 1.391 . S
C179 C178 1.396 1_565 S
C180 P160 1.803 . S
C180 C181 1.378 . S
C180 C185 1.400 . S
C181 H165 0.939 . S
C181 C180 1.378 . S
C181 C182 1.361 . S
C182 H166 0.942 . S
C182 C181 1.361 . S
C182 C183 1.369 . S
C183 C182 1.369 . S
C183 C184 1.404 . S
C184 H167 0.940 . S
C184 C183 1.404 . S
C184 C185 1.389 . S
C185 H168 0.939 . S
C185 C180 1.400 . S
C185 C184 1.389 . S
C186 P160 1.819 . S
C186 C187 1.391 . S
C186 C191 1.391 . S
C187 H169 0.941 . S
C187 C186 1.391 . S
C187 C188 1.396 . S
C188 H172 0.939 . S
C188 C187 1.396 . S
C188 C189 1.397 . S
C189 C188 1.397 . S
C189 C190 1.385 . S
C190 H173 0.940 . S
C190 C189 1.385 . S
C190 C191 1.388 . S
C191 H170 0.939 . S
C191 C186 1.391 . S
C191 C190 1.388 . S
P192 O203 1.490 . S
P192 C206 1.812 . S
P192 C212 1.803 . S
P192 C218 1.819 . S
H193 C207 0.941 . S
H194 C208 0.939 . S
H195 C210 0.940 . S
H196 C211 0.940 . S
H197 C213 0.939 . S
H198 C214 0.942 . S
H199 C216 0.940 . S
H200 C217 0.939 . S
H201 C219 0.941 . S
H202 C223 0.939 . S
O203 P192 1.490 . S
H204 C220 0.939 . S
H205 C222 0.940 . S
C206 P192 1.812 . S
C206 C207 1.389 . S
C206 C211 1.391 . S
C207 H193 0.941 . S
C207 C206 1.389 . S
C207 C208 1.397 . S
C208 H194 0.939 . S
C208 C207 1.397 . S
C208 C209 1.378 . S
C209 C208 1.378 . S
C209 C210 1.378 . S
C210 H195 0.940 . S
C210 C209 1.378 . S
C210 C211 1.396 . S
C211 H196 0.940 . S
C211 C206 1.391 . S
C211 C210 1.396 . S
C212 P192 1.803 . S
C212 C213 1.378 . S
C212 C217 1.400 . S
C213 H197 0.939 . S
C213 C212 1.378 . S
C213 C214 1.361 . S
C214 H198 0.942 . S
C214 C213 1.361 . S
C214 C215 1.369 . S
C215 C214 1.369 . S
C215 C216 1.404 . S
C216 H199 0.940 . S
C216 C215 1.404 . S
C216 C217 1.389 . S
C217 H200 0.939 . S
C217 C212 1.400 . S
C217 C216 1.389 . S
C218 P192 1.819 . S
C218 C219 1.391 1_565 S
C218 C223 1.391 . S
C219 H201 0.941 . S
C219 C218 1.391 1_545 S
C219 C220 1.396 . S
C220 H204 0.939 . S
C220 C219 1.396 . S
C220 C221 1.397 . S
C221 C220 1.397 . S
C221 C222 1.385 1_545 S
C222 H205 0.940 . S
C222 C221 1.385 1_565 S
C222 C223 1.388 . S
C223 H202 0.939 . S
C223 C218 1.391 . S
C223 C222 1.388 . S
P224 O235 1.490 . S
P224 C238 1.812 . S
P224 C244 1.803 . S
P224 C250 1.819 . S
H225 C239 0.941 . S
H226 C240 0.939 . S
H227 C242 0.940 . S
H228 C243 0.940 . S
H229 C245 0.939 . S
H230 C246 0.942 . S
H231 C248 0.940 . S
H232 C249 0.939 . S
H233 C251 0.941 . S
H234 C255 0.939 . S
O235 P224 1.490 . S
H236 C252 0.939 . S
H237 C254 0.940 . S
C238 P224 1.812 . S
C238 C239 1.389 . S
C238 C243 1.391 . S
C239 H225 0.941 . S
C239 C238 1.389 . S
C239 C240 1.397 . S
C240 H226 0.939 . S
C240 C239 1.397 . S
C240 C241 1.378 . S
C241 C240 1.378 . S
C241 C242 1.378 . S
C242 H227 0.940 . S
C242 C241 1.378 . S
C242 C243 1.396 . S
C243 H228 0.940 . S
C243 C238 1.391 . S
C243 C242 1.396 . S
C244 P224 1.803 . S
C244 C245 1.378 . S
C244 C249 1.400 . S
C245 H229 0.939 . S
C245 C244 1.378 . S
C245 C246 1.361 . S
C246 H230 0.942 . S
C246 C245 1.361 . S
C246 C247 1.369 . S
C247 C246 1.369 . S
C247 C248 1.404 . S
C248 H231 0.940 . S
C248 C247 1.404 . S
C248 C249 1.389 . S
C249 H232 0.939 . S
C249 C244 1.400 . S
C249 C248 1.389 . S
C250 P224 1.819 . S
C250 C251 1.391 . S
C250 C255 1.391 . S
C251 H233 0.941 . S
C251 C250 1.391 . S
C251 C252 1.396 . S
C252 H236 0.939 . S
C252 C251 1.396 . S
C252 C253 1.397 . S
C253 C252 1.397 . S
C253 C254 1.385 . S
C254 H237 0.940 . S
C254 C253 1.385 . S
C254 C255 1.388 . S
C255 H234 0.939 . S
C255 C250 1.391 . S
C255 C254 1.388 . S
C256 C258 1.422 . S
C256 C260 1.415 . S
C256 N262 1.369 . S
C257 C258 1.421 1_565 S
C257 C259 1.417 . S
C257 C269 1.422 . S
C258 C256 1.422 . S
C258 C257 1.421 1_545 S
C258 N268 1.359 . S
C259 C257 1.417 . S
C259 C261 1.329 1_565 S
C259 H278 0.930 . S
C260 C256 1.415 . S
C260 C261 1.437 . S
C260 C264 1.413 . S
C261 C259 1.329 1_545 S
C261 C260 1.437 . S
C261 H283 0.929 . S
N262 C256 1.369 . S
N262 C263 1.338 . S
N262 Gd267 2.622 . S
C263 N262 1.338 . S
C263 C265 1.378 . S
C263 H275 0.929 . S
C264 C260 1.413 . S
C264 C265 1.348 . S
C264 H280 0.931 . S
C265 C263 1.378 . S
C265 C264 1.348 . S
C265 H281 0.930 . S
Gd266 N286 2.622 . S
Gd266 N293 2.570 . S
Gd266 O300 2.353 . S
Gd266 O301 2.468 . S
Gd266 O302 2.427 . S
Gd266 O304 2.388 . S
Gd266 O305 2.386 . S
Gd266 O309 2.307 . S
Gd266 C319 2.805 . S
Gd267 N262 2.622 . S
Gd267 N268 2.570 . S
Gd267 O299 2.386 . S
Gd267 O303 2.307 1_655 S
Gd267 O306 2.353 1_655 S
Gd267 O307 2.468 . S
Gd267 O308 2.427 . S
Gd267 O310 2.388 . S
Gd267 C331 2.805 . S
N268 C258 1.359 . S
N268 Gd267 2.570 . S
N268 C270 1.343 . S
C269 C257 1.422 . S
C269 C271 1.321 . S
C269 H277 0.931 . S
C270 N268 1.343 . S
C270 C271 1.390 1_545 S
C270 H272 0.931 . S
C271 C269 1.321 . S
C271 C270 1.390 1_565 S
C271 H273 0.930 . S
H272 C270 0.931 . S
H273 C271 0.930 . S
H274 C297 0.931 . S
H275 C263 0.929 . S
H276 C298 0.930 . S
H277 C269 0.931 . S
H278 C259 0.930 . S
H279 C288 0.929 . S
H280 C264 0.931 . S
H281 C265 0.930 . S
H282 C320 0.930 . S
H283 C261 0.929 . S
H284 C289 0.931 . S
H285 C290 0.930 . S
N286 Gd266 2.622 . S
N286 C287 1.369 . S
N286 C288 1.338 . S
C287 N286 1.369 . S
C287 C291 1.415 . S
C287 C294 1.422 . S
C288 H279 0.929 . S
C288 N286 1.338 . S
C288 C290 1.378 . S
C289 H284 0.931 . S
C289 C290 1.348 . S
C289 C291 1.413 . S
C290 H285 0.930 . S
C290 C288 1.378 . S
C290 C289 1.348 . S
C291 C287 1.415 . S
C291 C289 1.413 . S
C291 C321 1.437 . S
H292 C321 0.929 . S
N293 Gd266 2.570 . S
N293 C294 1.359 . S
N293 C297 1.343 . S
C294 C287 1.422 . S
C294 N293 1.359 . S
C294 C296 1.421 . S
C295 C296 1.422 . S
C295 C298 1.321 . S
C295 H322 0.931 . S
C296 C294 1.421 . S
C296 C295 1.422 . S
C296 C320 1.417 . S
C297 H274 0.931 . S
C297 N293 1.343 . S
C297 C298 1.390 . S
C298 H276 0.930 . S
C298 C295 1.321 . S
C298 C297 1.390 . S
O299 Gd267 2.386 . S
O299 C311 1.265 . S
O300 Gd266 2.353 . S
O300 C311 1.242 1_455 S
O301 Gd266 2.468 . S
O301 C319 1.263 . S
O302 Gd266 2.427 . S
O302 C319 1.252 . S
O303 Gd267 2.307 1_455 S
O303 C312 1.261 . S
O304 Gd266 2.388 . S
O304 C312 1.252 . S
O305 Gd266 2.386 . S
O305 C323 1.265 . S
O306 Gd267 2.353 1_455 S
O306 C323 1.242 . S
O307 Gd267 2.468 . S
O307 C331 1.263 . S
O308 Gd267 2.427 . S
O308 C331 1.252 . S
O309 Gd266 2.307 . S
O309 C324 1.261 1_455 S
O310 Gd267 2.388 . S
O310 C324 1.252 . S
C311 O299 1.265 . S
C311 O300 1.242 1_655 S
C312 O303 1.261 . S
C312 O304 1.252 . S
C313 C316 1.394 . S
C313 C318 1.370 . S
C313 C319 1.500 . S
C314 C317 1.383 . S
C314 C318 1.395 . S
C315 C316 1.396 . S
C315 C317 1.365 . S
C315 H332 0.929 . S
C316 C313 1.394 . S
C316 C315 1.396 . S
C316 H333 0.930 . S
C317 C314 1.383 . S
C317 C315 1.365 . S
C317 H334 0.931 1_554 S
C318 C313 1.370 . S
C318 C314 1.395 . S
C318 H335 0.930 . S
C319 Gd266 2.805 . S
C319 O301 1.263 . S
C319 O302 1.252 . S
C319 C313 1.500 . S
C320 H282 0.930 . S
C320 C296 1.417 . S
C320 C321 1.329 . S
C321 C291 1.437 . S
C321 H292 0.929 . S
C321 C320 1.329 . S
H322 C295 0.931 . S
C323 O305 1.265 . S
C323 O306 1.242 . S
C324 O309 1.261 1_655 S
C324 O310 1.252 . S
C325 C328 1.394 . S
C325 C330 1.370 . S
C325 C331 1.500 . S
C326 C329 1.383 . S
C326 C330 1.395 . S
C327 C328 1.396 . S
C327 C329 1.365 . S
C327 H336 0.929 . S
C328 C325 1.394 . S
C328 C327 1.396 . S
C328 H337 0.930 . S
C329 C326 1.383 . S
C329 C327 1.365 . S
C329 H338 0.931 . S
C330 C325 1.370 . S
C330 C326 1.395 . S
C330 H339 0.930 . S
C331 Gd267 2.805 . S
C331 O307 1.263 . S
C331 O308 1.252 . S
C331 C325 1.500 . S
H332 C315 0.929 . S
H333 C316 0.930 . S
H334 C317 0.931 1_556 S
H335 C318 0.930 . S
H336 C327 0.929 . S
H337 C328 0.930 . S
H338 C329 0.931 . S
H339 C330 0.930 . S
C340 C342 1.422 . S
C340 C344 1.415 . S
C340 N346 1.369 . S
C341 C342 1.421 . S
C341 C343 1.417 . S
C341 C353 1.422 . S
C342 C340 1.422 . S
C342 C341 1.421 . S
C342 N352 1.359 . S
C343 C341 1.417 . S
C343 C345 1.330 . S
C343 H362 0.930 . S
C344 C340 1.415 . S
C344 C345 1.439 . S
C344 C348 1.413 . S
C345 C343 1.330 . S
C345 C344 1.439 . S
C345 H367 0.926 1_655 S
N346 C340 1.369 . S
N346 C347 1.338 . S
N346 Gd351 2.622 . S
C347 N346 1.338 . S
C347 C349 1.378 . S
C347 H359 0.929 . S
C348 C344 1.413 . S
C348 C349 1.348 . S
C348 H364 0.931 1_655 S
C349 C347 1.378 . S
C349 C348 1.348 . S
C349 H365 0.930 . S
Gd350 N370 2.622 . S
Gd350 N377 2.570 . S
Gd350 O384 2.353 . S
Gd350 O385 2.468 . S
Gd350 O386 2.427 . S
Gd350 O388 2.388 . S
Gd350 O389 2.386 . S
Gd350 O393 2.307 . S
Gd350 C403 2.805 . S
Gd351 N346 2.622 . S
Gd351 N352 2.570 . S
Gd351 O383 2.386 . S
Gd351 O387 2.307 . S
Gd351 O390 2.353 . S
Gd351 O391 2.468 . S
Gd351 O392 2.427 . S
Gd351 O394 2.388 . S
Gd351 C415 2.805 . S
N352 C342 1.359 . S
N352 Gd351 2.570 . S
N352 C354 1.343 . S
C353 C341 1.422 . S
C353 C355 1.321 . S
C353 H361 0.931 . S
C354 N352 1.343 . S
C354 C355 1.390 . S
C354 H356 0.931 . S
C355 C353 1.321 . S
C355 C354 1.390 . S
C355 H357 0.930 . S
H356 C354 0.931 . S
H357 C355 0.930 . S
H358 C381 0.931 . S
H359 C347 0.929 . S
H360 C382 0.930 . S
H361 C353 0.931 . S
H362 C343 0.930 . S
H363 C372 0.929 . S
H364 C348 0.931 1_455 S
H365 C349 0.930 . S
H366 C404 0.930 . S
H367 C345 0.926 1_455 S
H368 C373 0.931 1_655 S
H369 C374 0.930 . S
N370 Gd350 2.622 . S
N370 C371 1.369 . S
N370 C372 1.338 . S
C371 N370 1.369 . S
C371 C375 1.415 . S
C371 C378 1.422 . S
C372 H363 0.929 . S
C372 N370 1.338 . S
C372 C374 1.378 . S
C373 H368 0.931 1_455 S
C373 C374 1.348 . S
C373 C375 1.413 . S
C374 H369 0.930 . S
C374 C372 1.378 . S
C374 C373 1.348 . S
C375 C371 1.415 . S
C375 C373 1.413 . S
C375 C405 1.437 . S
H376 C405 0.929 1_655 S
N377 Gd350 2.570 . S
N377 C378 1.359 . S
N377 C381 1.343 . S
C378 C371 1.422 . S
C378 N377 1.359 . S
C378 C380 1.421 . S
C379 C380 1.422 . S
C379 C382 1.321 . S
C379 H406 0.931 . S
C380 C378 1.421 . S
C380 C379 1.422 . S
C380 C404 1.417 . S
C381 H358 0.931 . S
C381 N377 1.343 . S
C381 C382 1.390 . S
C382 H360 0.930 . S
C382 C379 1.321 . S
C382 C381 1.390 . S
O383 Gd351 2.386 . S
O383 C395 1.265 . S
O384 Gd350 2.353 . S
O384 C395 1.242 . S
O385 Gd350 2.468 . S
O385 C403 1.263 . S
O386 Gd350 2.427 . S
O386 C403 1.252 . S
O387 Gd351 2.307 . S
O387 C396 1.261 . S
O388 Gd350 2.388 . S
O388 C396 1.252 . S
O389 Gd350 2.386 . S
O389 C407 1.265 . S
O390 Gd351 2.353 . S
O390 C407 1.242 . S
O391 Gd351 2.468 . S
O391 C415 1.263 . S
O392 Gd351 2.427 . S
O392 C415 1.252 . S
O393 Gd350 2.307 . S
O393 C408 1.261 . S
O394 Gd351 2.388 . S
O394 C408 1.252 . S
C395 O383 1.265 . S
C395 O384 1.242 . S
C396 O387 1.261 . S
C396 O388 1.252 . S
C397 C400 1.394 . S
C397 C402 1.370 . S
C397 C403 1.500 . S
C398 C401 1.383 . S
C398 C402 1.395 . S
C399 C400 1.396 . S
C399 C401 1.365 . S
C399 H416 0.929 . S
C400 C397 1.394 . S
C400 C399 1.396 . S
C400 H417 0.930 . S
C401 C398 1.383 . S
C401 C399 1.365 . S
C401 H418 0.931 . S
C402 C397 1.370 . S
C402 C398 1.395 . S
C402 H419 0.930 . S
C403 Gd350 2.805 . S
C403 O385 1.263 . S
C403 O386 1.252 . S
C403 C397 1.500 . S
C404 H366 0.930 . S
C404 C380 1.417 . S
C404 C405 1.329 . S
C405 C375 1.437 . S
C405 H376 0.929 1_455 S
C405 C404 1.329 . S
H406 C379 0.931 . S
C407 O389 1.265 . S
C407 O390 1.242 . S
C408 O393 1.261 . S
C408 O394 1.252 . S
C409 C412 1.394 . S
C409 C414 1.370 . S
C409 C415 1.500 . S
C410 C413 1.383 . S
C410 C414 1.395 . S
C411 C412 1.396 . S
C411 C413 1.365 . S
C411 H420 0.929 . S
C412 C409 1.394 . S
C412 C411 1.396 . S
C412 H421 0.930 . S
C413 C410 1.383 . S
C413 C411 1.365 . S
C413 H422 0.931 1_556 S
C414 C409 1.370 . S
C414 C410 1.395 . S
C414 H423 0.930 . S
C415 Gd351 2.805 . S
C415 O391 1.263 . S
C415 O392 1.252 . S
C415 C409 1.500 . S
H416 C399 0.929 . S
H417 C400 0.930 . S
H418 C401 0.931 . S
H419 C402 0.930 . S
H420 C411 0.929 . S
H421 C412 0.930 . S
H422 C413 0.931 1_554 S
H423 C414 0.930 . S
C424 C426 1.422 . S
C424 C428 1.415 . S
C424 N430 1.369 . S
C425 C426 1.421 . S
C425 C427 1.417 . S
C425 C437 1.422 . S
C426 C424 1.422 . S
C426 C425 1.421 . S
C426 N436 1.359 . S
C427 C425 1.417 . S
C427 C429 1.329 . S
C427 H446 0.930 . S
C428 C424 1.415 . S
C428 C429 1.437 . S
C428 C432 1.413 . S
C429 C427 1.329 . S
C429 C428 1.437 . S
C429 H451 0.929 . S
N430 C424 1.369 . S
N430 C431 1.338 . S
N430 Gd435 2.622 . S
C431 N430 1.338 . S
C431 C433 1.378 . S
C431 H443 0.929 . S
C432 C428 1.413 . S
C432 C433 1.348 . S
C432 H448 0.931 . S
C433 C431 1.378 . S
C433 C432 1.348 . S
C433 H449 0.930 . S
Gd434 N454 2.622 . S
Gd434 N461 2.570 . S
Gd434 O468 2.353 1_455 S
Gd434 O469 2.468 . S
Gd434 O470 2.427 . S
Gd434 O472 2.388 . S
Gd434 O473 2.386 . S
Gd434 O477 2.307 1_455 S
Gd434 C487 2.805 . S
Gd435 N430 2.622 . S
Gd435 N436 2.570 . S
Gd435 O467 2.386 . S
Gd435 O471 2.307 1_655 S
Gd435 O474 2.353 1_655 S
Gd435 O475 2.468 . S
Gd435 O476 2.427 . S
Gd435 O478 2.388 . S
Gd435 C499 2.805 . S
N436 C426 1.359 . S
N436 Gd435 2.570 . S
N436 C438 1.343 . S
C437 C425 1.422 . S
C437 C439 1.321 . S
C437 H445 0.931 . S
C438 N436 1.343 . S
C438 C439 1.390 . S
C438 H440 0.931 . S
C439 C437 1.321 . S
C439 C438 1.390 . S
C439 H441 0.930 . S
H440 C438 0.931 . S
H441 C439 0.930 . S
H442 C465 0.931 . S
H443 C431 0.929 . S
H444 C466 0.930 . S
H445 C437 0.931 . S
H446 C427 0.930 . S
H447 C456 0.929 . S
H448 C432 0.931 . S
H449 C433 0.930 . S
H450 C488 0.930 . S
H451 C429 0.929 . S
H452 C457 0.931 . S
H453 C458 0.930 . S
N454 Gd434 2.622 . S
N454 C455 1.369 . S
N454 C456 1.338 . S
C455 N454 1.369 . S
C455 C459 1.415 . S
C455 C462 1.422 . S
C456 H447 0.929 . S
C456 N454 1.338 . S
C456 C458 1.378 . S
C457 H452 0.931 . S
C457 C458 1.348 . S
C457 C459 1.413 . S
C458 H453 0.930 . S
C458 C456 1.378 . S
C458 C457 1.348 . S
C459 C455 1.415 . S
C459 C457 1.413 . S
C459 C489 1.437 . S
H460 C489 0.929 . S
N461 Gd434 2.570 . S
N461 C462 1.359 . S
N461 C465 1.343 . S
C462 C455 1.422 . S
C462 N461 1.359 . S
C462 C464 1.421 1_565 S
C463 C464 1.422 . S
C463 C466 1.321 . S
C463 H490 0.931 . S
C464 C462 1.421 1_545 S
C464 C463 1.422 . S
C464 C488 1.417 . S
C465 H442 0.931 . S
C465 N461 1.343 . S
C465 C466 1.390 1_565 S
C466 H444 0.930 . S
C466 C463 1.321 . S
C466 C465 1.390 1_545 S
O467 Gd435 2.386 . S
O467 C479 1.265 . S
O468 Gd434 2.353 1_655 S
O468 C479 1.242 . S
O469 Gd434 2.468 . S
O469 C487 1.263 . S
O470 Gd434 2.427 . S
O470 C487 1.252 . S
O471 Gd435 2.307 1_455 S
O471 C480 1.261 . S
O472 Gd434 2.388 . S
O472 C480 1.252 . S
O473 Gd434 2.386 . S
O473 C491 1.265 . S
O474 Gd435 2.353 1_455 S
O474 C491 1.242 . S
O475 Gd435 2.468 . S
O475 C499 1.263 . S
O476 Gd435 2.427 . S
O476 C499 1.252 . S
O477 Gd434 2.307 1_655 S
O477 C492 1.261 . S
O478 Gd435 2.388 . S
O478 C492 1.252 . S
C479 O467 1.265 . S
C479 O468 1.242 . S
C480 O471 1.261 . S
C480 O472 1.252 . S
C481 C484 1.394 . S
C481 C486 1.370 . S
C481 C487 1.500 . S
C482 C485 1.383 . S
C482 C486 1.395 . S
C483 C484 1.396 . S
C483 C485 1.365 . S
C483 H500 0.929 . S
C484 C481 1.394 . S
C484 C483 1.396 . S
C484 H501 0.930 . S
C485 C482 1.383 . S
C485 C483 1.365 . S
C485 H502 0.931 . S
C486 C481 1.370 . S
C486 C482 1.395 . S
C486 H503 0.930 . S
C487 Gd434 2.805 . S
C487 O469 1.263 . S
C487 O470 1.252 . S
C487 C481 1.500 . S
C488 H450 0.930 . S
C488 C464 1.417 . S
C488 C489 1.329 1_545 S
C489 C459 1.437 . S
C489 H460 0.929 . S
C489 C488 1.329 1_565 S
H490 C463 0.931 . S
C491 O473 1.265 . S
C491 O474 1.242 . S
C492 O477 1.261 . S
C492 O478 1.252 . S
C493 C496 1.394 . S
C493 C498 1.370 . S
C493 C499 1.500 . S
C494 C497 1.383 . S
C494 C498 1.395 . S
C495 C496 1.396 . S
C495 C497 1.365 . S
C495 H504 0.929 . S
C496 C493 1.394 . S
C496 C495 1.396 . S
C496 H505 0.930 . S
C497 C494 1.383 . S
C497 C495 1.365 . S
C497 H506 0.931 1_556 S
C498 C493 1.370 . S
C498 C494 1.395 . S
C498 H507 0.930 . S
C499 Gd435 2.805 . S
C499 O475 1.263 . S
C499 O476 1.252 . S
C499 C493 1.500 . S
H500 C483 0.929 . S
H501 C484 0.930 . S
H502 C485 0.931 . S
H503 C486 0.930 . S
H504 C495 0.929 . S
H505 C496 0.930 . S
H506 C497 0.931 1_554 S
H507 C498 0.930 . S
C508 C510 1.422 . S
C508 C512 1.415 . S
C508 N514 1.369 . S
C509 C510 1.421 . S
C509 C511 1.417 . S
C509 C521 1.422 . S
C510 C508 1.422 . S
C510 C509 1.421 . S
C510 N520 1.359 . S
C511 C509 1.417 . S
C511 C513 1.329 . S
C511 H530 0.930 . S
C512 C508 1.415 . S
C512 C513 1.437 . S
C512 C516 1.413 . S
C513 C511 1.329 . S
C513 C512 1.437 . S
C513 H535 0.929 1_655 S
N514 C508 1.369 . S
N514 C515 1.338 . S
N514 Gd519 2.622 . S
C515 N514 1.338 . S
C515 C517 1.378 . S
C515 H527 0.929 . S
C516 C512 1.413 . S
C516 C517 1.348 . S
C516 H532 0.931 1_655 S
C517 C515 1.378 . S
C517 C516 1.348 . S
C517 H533 0.930 . S
Gd518 N538 2.622 . S
Gd518 N545 2.570 . S
Gd518 O552 2.353 . S
Gd518 O553 2.468 . S
Gd518 O554 2.427 . S
Gd518 O556 2.388 . S
Gd518 O557 2.386 . S
Gd518 O561 2.307 . S
Gd518 C571 2.805 . S
Gd519 N514 2.622 . S
Gd519 N520 2.570 . S
Gd519 O551 2.386 . S
Gd519 O555 2.307 . S
Gd519 O558 2.353 . S
Gd519 O559 2.468 . S
Gd519 O560 2.427 . S
Gd519 O562 2.388 . S
Gd519 C583 2.805 . S
N520 C510 1.359 . S
N520 Gd519 2.570 . S
N520 C522 1.343 . S
C521 C509 1.422 . S
C521 C523 1.321 . S
C521 H529 0.931 . S
C522 N520 1.343 . S
C522 C523 1.390 . S
C522 H524 0.931 . S
C523 C521 1.321 . S
C523 C522 1.390 . S
C523 H525 0.930 . S
H524 C522 0.931 . S
H525 C523 0.930 . S
H526 C549 0.931 . S
H527 C515 0.929 . S
H528 C550 0.930 . S
H529 C521 0.931 . S
H530 C511 0.930 . S
H531 C540 0.929 . S
H532 C516 0.931 1_455 S
H533 C517 0.930 . S
H534 C572 0.930 . S
H535 C513 0.929 1_455 S
H536 C541 0.931 1_655 S
H537 C542 0.930 . S
N538 Gd518 2.622 . S
N538 C539 1.369 . S
N538 C540 1.338 . S
C539 N538 1.369 . S
C539 C543 1.415 . S
C539 C546 1.422 . S
C540 H531 0.929 . S
C540 N538 1.338 . S
C540 C542 1.378 . S
C541 H536 0.931 1_455 S
C541 C542 1.348 . S
C541 C543 1.413 . S
C542 H537 0.930 . S
C542 C540 1.378 . S
C542 C541 1.348 . S
C543 C539 1.415 . S
C543 C541 1.413 . S
C543 C573 1.437 . S
H544 C573 0.929 1_655 S
N545 Gd518 2.570 . S
N545 C546 1.359 . S
N545 C549 1.343 . S
C546 C539 1.422 . S
C546 N545 1.359 . S
C546 C548 1.421 . S
C547 C548 1.422 . S
C547 C550 1.321 . S
C547 H574 0.931 . S
C548 C546 1.421 . S
C548 C547 1.422 . S
C548 C572 1.417 . S
C549 H526 0.931 . S
C549 N545 1.343 . S
C549 C550 1.390 . S
C550 H528 0.930 . S
C550 C547 1.321 . S
C550 C549 1.390 . S
O551 Gd519 2.386 . S
O551 C563 1.265 . S
O552 Gd518 2.353 . S
O552 C563 1.242 . S
O553 Gd518 2.468 . S
O553 C571 1.263 . S
O554 Gd518 2.427 . S
O554 C571 1.252 . S
O555 Gd519 2.307 . S
O555 C564 1.261 . S
O556 Gd518 2.388 . S
O556 C564 1.252 . S
O557 Gd518 2.386 . S
O557 C575 1.265 . S
O558 Gd519 2.353 . S
O558 C575 1.242 . S
O559 Gd519 2.468 . S
O559 C583 1.263 . S
O560 Gd519 2.427 . S
O560 C583 1.252 . S
O561 Gd518 2.307 . S
O561 C576 1.261 . S
O562 Gd519 2.388 . S
O562 C576 1.252 . S
C563 O551 1.265 . S
C563 O552 1.242 . S
C564 O555 1.261 . S
C564 O556 1.252 . S
C565 C568 1.394 . S
C565 C570 1.370 . S
C565 C571 1.500 . S
C566 C569 1.383 . S
C566 C570 1.395 . S
C567 C568 1.396 . S
C567 C569 1.365 . S
C567 H584 0.929 . S
C568 C565 1.394 . S
C568 C567 1.396 . S
C568 H585 0.930 . S
C569 C566 1.383 . S
C569 C567 1.365 . S
C569 H586 0.931 1_554 S
C570 C565 1.370 . S
C570 C566 1.395 . S
C570 H587 0.930 . S
C571 Gd518 2.805 . S
C571 O553 1.263 . S
C571 O554 1.252 . S
C571 C565 1.500 . S
C572 H534 0.930 . S
C572 C548 1.417 . S
C572 C573 1.329 . S
C573 C543 1.437 . S
C573 H544 0.929 1_455 S
C573 C572 1.329 . S
H574 C547 0.931 . S
C575 O557 1.265 . S
C575 O558 1.242 . S
C576 O561 1.261 . S
C576 O562 1.252 . S
C577 C580 1.394 . S
C577 C582 1.370 . S
C577 C583 1.500 . S
C578 C581 1.383 . S
C578 C582 1.395 . S
C579 C580 1.396 . S
C579 C581 1.365 . S
C579 H588 0.929 . S
C580 C577 1.394 . S
C580 C579 1.396 . S
C580 H589 0.930 . S
C581 C578 1.383 . S
C581 C579 1.365 . S
C581 H590 0.931 . S
C582 C577 1.370 . S
C582 C578 1.395 . S
C582 H591 0.930 . S
C583 Gd519 2.805 . S
C583 O559 1.263 . S
C583 O560 1.252 . S
C583 C577 1.500 . S
H584 C567 0.929 . S
H585 C568 0.930 . S
H586 C569 0.931 1_556 S
H587 C570 0.930 . S
H588 C579 0.929 . S
H589 C580 0.930 . S
H590 C581 0.931 . S
H591 C582 0.930 . S
C221 C312 1.498 . S
C396 C241 1.405 . S
C395 C157 1.499 . S
C177 C311 1.403 . S
C492 C93 1.394 . S
C576 C113 1.549 . S
C29 C575 1.396 . S
C49 C491 1.547 . S
C314 C61 1.186 . S
C398 C17 1.241 . S
C410 C125 1.469 1_556 S
C326 C81 1.405 . S
C494 C189 1.198 1_556 S
C145 C578 1.179 . S
C566 C253 1.370 1_554 S
C209 C482 1.446 . S
C323 C23 1.488 . S
C407 C55 1.712 . S
C87 C408 1.524 . S
C324 C119 1.670 . S
C479 C151 1.685 . S
C183 C563 1.493 . S
C215 C564 1.659 . S
C247 C480 1.515 . S
