# Generated by pormake.
# Topology ptr, (4,4)-cn, num edge types: 1
# Building blocks:
#     Node 0, Type 0, BuildingBlock: QUQFOY_clean_sbu_3, # of connection points: 4
#     Node 1, Type 0, BuildingBlock: QUQFOY_clean_sbu_3, # of connection points: 4
#     Node 2, Type 0, BuildingBlock: QUQFOY_clean_sbu_3, # of connection points: 4
#     Node 3, Type 0, BuildingBlock: QUQFOY_clean_sbu_3, # of connection points: 4
#     Node 4, Type 0, BuildingBlock: QUQFOY_clean_sbu_3, # of connection points: 4
#     Node 5, Type 0, BuildingBlock: QUQFOY_clean_sbu_3, # of connection points: 4
#     Node 6, Type 0, BuildingBlock: QUQFOY_clean_sbu_3, # of connection points: 4
#     Node 7, Type 0, BuildingBlock: QUQFOY_clean_sbu_3, # of connection points: 4
#     Node 8, Type 0, BuildingBlock: QUQFOY_clean_sbu_3, # of connection points: 4
#     Node 9, Type 0, BuildingBlock: QUQFOY_clean_sbu_3, # of connection points: 4
#     Node 10, Type 0, BuildingBlock: QUQFOY_clean_sbu_3, # of connection points: 4
#     Node 11, Type 0, BuildingBlock: QUQFOY_clean_sbu_3, # of connection points: 4
#     Node 12, Type 0, BuildingBlock: QUQFOY_clean_sbu_3, # of connection points: 4
#     Node 13, Type 0, BuildingBlock: QUQFOY_clean_sbu_3, # of connection points: 4
#     Node 14, Type 0, BuildingBlock: QUQFOY_clean_sbu_3, # of connection points: 4
#     Node 15, Type 0, BuildingBlock: QUQFOY_clean_sbu_3, # of connection points: 4
#     Node 16, Type 0, BuildingBlock: QUQFOY_clean_sbu_3, # of connection points: 4
#     Node 17, Type 0, BuildingBlock: QUQFOY_clean_sbu_3, # of connection points: 4
#     Node 18, Type 1, BuildingBlock: AZAVOO_clean_linker_0, # of connection points: 4
#     Node 19, Type 1, BuildingBlock: AZAVOO_clean_linker_0, # of connection points: 4
#     Node 20, Type 1, BuildingBlock: AZAVOO_clean_linker_0, # of connection points: 4
#     Node 21, Type 1, BuildingBlock: AZAVOO_clean_linker_0, # of connection points: 4
#     Node 22, Type 1, BuildingBlock: AZAVOO_clean_linker_0, # of connection points: 4
#     Node 23, Type 1, BuildingBlock: AZAVOO_clean_linker_0, # of connection points: 4
#     Node 24, Type 1, BuildingBlock: AZAVOO_clean_linker_0, # of connection points: 4
#     Node 25, Type 1, BuildingBlock: AZAVOO_clean_linker_0, # of connection points: 4
#     Node 26, Type 1, BuildingBlock: AZAVOO_clean_linker_0, # of connection points: 4
#     Node 27, Type 1, BuildingBlock: AZAVOO_clean_linker_0, # of connection points: 4
#     Node 28, Type 1, BuildingBlock: AZAVOO_clean_linker_0, # of connection points: 4
#     Node 29, Type 1, BuildingBlock: AZAVOO_clean_linker_0, # of connection points: 4
#     Node 30, Type 1, BuildingBlock: AZAVOO_clean_linker_0, # of connection points: 4
#     Node 31, Type 1, BuildingBlock: AZAVOO_clean_linker_0, # of connection points: 4
#     Node 32, Type 1, BuildingBlock: AZAVOO_clean_linker_0, # of connection points: 4
#     Node 33, Type 1, BuildingBlock: AZAVOO_clean_linker_0, # of connection points: 4
#     Node 34, Type 1, BuildingBlock: AZAVOO_clean_linker_0, # of connection points: 4
#     Node 35, Type 1, BuildingBlock: AZAVOO_clean_linker_0, # of connection points: 4
#     Edge 36, Type (0, 1), BuildingBlock: CIFDUS_clean_linker_0, # of connection points: 2
#     Edge 37, Type (0, 1), BuildingBlock: CIFDUS_clean_linker_0, # of connection points: 2
#     Edge 38, Type (0, 1), BuildingBlock: CIFDUS_clean_linker_0, # of connection points: 2
#     Edge 39, Type (0, 1), BuildingBlock: CIFDUS_clean_linker_0, # of connection points: 2
#     Edge 40, Type (0, 1), BuildingBlock: CIFDUS_clean_linker_0, # of connection points: 2
#     Edge 41, Type (0, 1), BuildingBlock: CIFDUS_clean_linker_0, # of connection points: 2
#     Edge 42, Type (0, 1), BuildingBlock: CIFDUS_clean_linker_0, # of connection points: 2
#     Edge 43, Type (0, 1), BuildingBlock: CIFDUS_clean_linker_0, # of connection points: 2
#     Edge 44, Type (0, 1), BuildingBlock: CIFDUS_clean_linker_0, # of connection points: 2
#     Edge 45, Type (0, 1), BuildingBlock: CIFDUS_clean_linker_0, # of connection points: 2
#     Edge 46, Type (0, 1), BuildingBlock: CIFDUS_clean_linker_0, # of connection points: 2
#     Edge 47, Type (0, 1), BuildingBlock: CIFDUS_clean_linker_0, # of connection points: 2
#     Edge 48, Type (0, 1), BuildingBlock: CIFDUS_clean_linker_0, # of connection points: 2
#     Edge 49, Type (0, 1), BuildingBlock: CIFDUS_clean_linker_0, # of connection points: 2
#     Edge 50, Type (0, 1), BuildingBlock: CIFDUS_clean_linker_0, # of connection points: 2
#     Edge 51, Type (0, 1), BuildingBlock: CIFDUS_clean_linker_0, # of connection points: 2
#     Edge 52, Type (0, 1), BuildingBlock: CIFDUS_clean_linker_0, # of connection points: 2
#     Edge 53, Type (0, 1), BuildingBlock: CIFDUS_clean_linker_0, # of connection points: 2
#     Edge 54, Type (0, 1), BuildingBlock: CIFDUS_clean_linker_0, # of connection points: 2
#     Edge 55, Type (0, 1), BuildingBlock: CIFDUS_clean_linker_0, # of connection points: 2
#     Edge 56, Type (0, 1), BuildingBlock: CIFDUS_clean_linker_0, # of connection points: 2
#     Edge 57, Type (0, 1), BuildingBlock: CIFDUS_clean_linker_0, # of connection points: 2
#     Edge 58, Type (0, 1), BuildingBlock: CIFDUS_clean_linker_0, # of connection points: 2
#     Edge 59, Type (0, 1), BuildingBlock: CIFDUS_clean_linker_0, # of connection points: 2
#     Edge 60, Type (0, 1), BuildingBlock: CIFDUS_clean_linker_0, # of connection points: 2
#     Edge 61, Type (0, 1), BuildingBlock: CIFDUS_clean_linker_0, # of connection points: 2
#     Edge 62, Type (0, 1), BuildingBlock: CIFDUS_clean_linker_0, # of connection points: 2
#     Edge 63, Type (0, 1), BuildingBlock: CIFDUS_clean_linker_0, # of connection points: 2
#     Edge 64, Type (0, 1), BuildingBlock: CIFDUS_clean_linker_0, # of connection points: 2
#     Edge 65, Type (0, 1), BuildingBlock: CIFDUS_clean_linker_0, # of connection points: 2
#     Edge 66, Type (0, 1), BuildingBlock: CIFDUS_clean_linker_0, # of connection points: 2
#     Edge 67, Type (0, 1), BuildingBlock: CIFDUS_clean_linker_0, # of connection points: 2
#     Edge 68, Type (0, 1), BuildingBlock: CIFDUS_clean_linker_0, # of connection points: 2
#     Edge 69, Type (0, 1), BuildingBlock: CIFDUS_clean_linker_0, # of connection points: 2
#     Edge 70, Type (0, 1), BuildingBlock: CIFDUS_clean_linker_0, # of connection points: 2
#     Edge 71, Type (0, 1), BuildingBlock: CIFDUS_clean_linker_0, # of connection points: 2
#     Edge 72, Type (0, 1), BuildingBlock: CIFDUS_clean_linker_0, # of connection points: 2
#     Edge 73, Type (0, 1), BuildingBlock: CIFDUS_clean_linker_0, # of connection points: 2
#     Edge 74, Type (0, 1), BuildingBlock: CIFDUS_clean_linker_0, # of connection points: 2
#     Edge 75, Type (0, 1), BuildingBlock: CIFDUS_clean_linker_0, # of connection points: 2
#     Edge 76, Type (0, 1), BuildingBlock: CIFDUS_clean_linker_0, # of connection points: 2
#     Edge 77, Type (0, 1), BuildingBlock: CIFDUS_clean_linker_0, # of connection points: 2
#     Edge 78, Type (0, 1), BuildingBlock: CIFDUS_clean_linker_0, # of connection points: 2
#     Edge 79, Type (0, 1), BuildingBlock: CIFDUS_clean_linker_0, # of connection points: 2
#     Edge 80, Type (0, 1), BuildingBlock: CIFDUS_clean_linker_0, # of connection points: 2
#     Edge 81, Type (0, 1), BuildingBlock: CIFDUS_clean_linker_0, # of connection points: 2
#     Edge 82, Type (0, 1), BuildingBlock: CIFDUS_clean_linker_0, # of connection points: 2
#     Edge 83, Type (0, 1), BuildingBlock: CIFDUS_clean_linker_0, # of connection points: 2
#     Edge 84, Type (0, 1), BuildingBlock: CIFDUS_clean_linker_0, # of connection points: 2
#     Edge 85, Type (0, 1), BuildingBlock: CIFDUS_clean_linker_0, # of connection points: 2
#     Edge 86, Type (0, 1), BuildingBlock: CIFDUS_clean_linker_0, # of connection points: 2
#     Edge 87, Type (0, 1), BuildingBlock: CIFDUS_clean_linker_0, # of connection points: 2
#     Edge 88, Type (0, 1), BuildingBlock: CIFDUS_clean_linker_0, # of connection points: 2
#     Edge 89, Type (0, 1), BuildingBlock: CIFDUS_clean_linker_0, # of connection points: 2
#     Edge 90, Type (0, 1), BuildingBlock: CIFDUS_clean_linker_0, # of connection points: 2
#     Edge 91, Type (0, 1), BuildingBlock: CIFDUS_clean_linker_0, # of connection points: 2
#     Edge 92, Type (0, 1), BuildingBlock: CIFDUS_clean_linker_0, # of connection points: 2
#     Edge 93, Type (0, 1), BuildingBlock: CIFDUS_clean_linker_0, # of connection points: 2
#     Edge 94, Type (0, 1), BuildingBlock: CIFDUS_clean_linker_0, # of connection points: 2
#     Edge 95, Type (0, 1), BuildingBlock: CIFDUS_clean_linker_0, # of connection points: 2
#     Edge 96, Type (0, 1), BuildingBlock: CIFDUS_clean_linker_0, # of connection points: 2
#     Edge 97, Type (0, 1), BuildingBlock: CIFDUS_clean_linker_0, # of connection points: 2
#     Edge 98, Type (0, 1), BuildingBlock: CIFDUS_clean_linker_0, # of connection points: 2
#     Edge 99, Type (0, 1), BuildingBlock: CIFDUS_clean_linker_0, # of connection points: 2
#     Edge 100, Type (0, 1), BuildingBlock: CIFDUS_clean_linker_0, # of connection points: 2
#     Edge 101, Type (0, 1), BuildingBlock: CIFDUS_clean_linker_0, # of connection points: 2
#     Edge 102, Type (0, 1), BuildingBlock: CIFDUS_clean_linker_0, # of connection points: 2
#     Edge 103, Type (0, 1), BuildingBlock: CIFDUS_clean_linker_0, # of connection points: 2
#     Edge 104, Type (0, 1), BuildingBlock: CIFDUS_clean_linker_0, # of connection points: 2
#     Edge 105, Type (0, 1), BuildingBlock: CIFDUS_clean_linker_0, # of connection points: 2
#     Edge 106, Type (0, 1), BuildingBlock: CIFDUS_clean_linker_0, # of connection points: 2
#     Edge 107, Type (0, 1), BuildingBlock: CIFDUS_clean_linker_0, # of connection points: 2
# Relax obj value: 0.055
# Max RMSD: 0.177
# Mean RMSD: 0.120
data_MOF--net-ptr--node1-QUQFOY_clean_sbu_3--node2-AZAVOO_clean_linker_0--edge1-CIFDUS_clean_linker_0
_symmetry_space_group_name_H-M    P1
_symmetry_Int_Tables_number       1
_symmetry_cell_setting            triclinic
loop_
_symmetry_equiv_pos_as_xyz
'x, y, z'
_cell_length_a     74.053922
_cell_length_b     73.139782
_cell_length_c     62.811263
_cell_angle_alpha  93.093008
_cell_angle_beta   92.03533
_cell_angle_gamma 120.72743
loop_
_atom_site_label
_atom_site_type_symbol
_atom_site_fract_x
_atom_site_fract_y
_atom_site_fract_z
_atom_type_partial_charge
C0 C 0.96332 0.31658 0.0056 0.0
O1 O 0.95257 0.32436 0.01258 0.0
Cd2 Cd 0.96834 0.36112 0.02571 0.0
O3 O 0.98335 0.32761 0.0074 0.0
Cd4 Cd 0.01199 0.36243 0.02401 0.0
C5 C 0.00121 0.38601 0.98523 0.0
O6 O 0.99486 0.36952 0.05327 0.0
O7 O 0.02398 0.39627 0.04444 0.0
O8 O 0.02305 0.3424 0.04441 0.0
C9 C 0.00906 0.38908 0.05678 0.0
O10 O 0.98513 0.38149 0.99557 0.0
C11 C 0.04161 0.35097 0.03839 0.0
O12 O 0.01397 0.38007 0.9911 0.0
O13 O 0.0467 0.36513 0.02516 0.0
C14 C 0.63132 0.66072 0.08864 0.0
O15 O 0.61173 0.65232 0.08385 0.0
Cd16 Cd 0.5922 0.62045 0.06027 0.0
O17 O 0.64129 0.65222 0.08113 0.0
Cd18 Cd 0.6343 0.62099 0.05751 0.0
C19 C 0.59938 0.58575 0.0888 0.0
O20 O 0.61223 0.62442 0.02992 0.0
O21 O 0.61352 0.59558 0.02704 0.0
O22 O 0.66842 0.64655 0.04617 0.0
C23 C 0.60771 0.60741 0.01889 0.0
O24 O 0.58696 0.59116 0.08076 0.0
C25 C 0.67592 0.63438 0.04598 0.0
O26 O 0.61866 0.59524 0.0846 0.0
O27 O 0.66414 0.61571 0.05178 0.0
C28 C 0.34395 0.94849 0.03729 0.0
O29 O 0.35344 0.93842 0.03354 0.0
Cd30 Cd 0.38621 0.95484 0.01642 0.0
O31 O 0.35156 0.96753 0.03225 0.0
Cd32 Cd 0.38099 0.99653 0.01601 0.0
C33 C 0.41565 0.99763 0.05376 0.0
O34 O 0.381 0.9724 0.98774 0.0
O35 O 0.40428 0.00582 0.98691 0.0
O36 O 0.35224 0.00214 0.0064 0.0
C37 C 0.39613 0.98687 0.97862 0.0
O38 O 0.41179 0.97996 0.04447 0.0
C39 C 0.36328 0.02236 0.00833 0.0
O40 O 0.40602 0.00684 0.04733 0.0
O41 O 0.38274 0.03075 0.01398 0.0
C42 C 0.94312 0.62068 0.03135 0.0
O43 O 0.93413 0.60204 0.03774 0.0
Cd44 Cd 0.95402 0.58798 0.05443 0.0
O45 O 0.96287 0.63319 0.03508 0.0
Cd46 Cd 0.99335 0.63443 0.05339 0.0
C47 C 0.98935 0.5967 0.01669 0.0
O48 O 0.97743 0.61237 0.08343 0.0
O49 O 0.00946 0.62141 0.07755 0.0
O50 O 0.00395 0.66989 0.06941 0.0
C51 C 0.99402 0.61223 0.08904 0.0
O52 O 0.97377 0.58334 0.02643 0.0
C53 C 0.02194 0.6791 0.06191 0.0
O54 O -0.00131 0.61661 0.02235 0.0
O55 O 0.02653 0.66748 0.05029 0.0
C56 C 0.3381 0.39401 0.01654 0.0
O57 O 0.34763 0.41399 0.01498 0.0
Cd58 Cd 0.38262 0.43239 0.00279 0.0
O59 O 0.34658 0.38336 0.01083 0.0
Cd60 Cd 0.37805 0.38749 0.99515 0.0
C61 C 0.40915 0.41829 0.03835 0.0
O62 O 0.38312 0.41382 0.97039 0.0
O63 O 0.40937 0.40906 0.97635 0.0
O64 O 0.35742 0.35821 0.96834 0.0
C65 C 0.40115 0.41758 0.96566 0.0
O66 O 0.40614 0.4326 0.03127 0.0
C67 C 0.36227 0.34546 0.97593 0.0
O68 O 0.39982 0.39949 0.02903 0.0
O69 O 0.37487 0.35223 0.9926 0.0
C70 C 0.67216 0.05667 0.03821 0.0
O71 O 0.66595 0.06878 0.04582 0.0
Cd72 Cd 0.63123 0.05198 0.05905 0.0
O73 O 0.66138 0.0367 0.03997 0.0
Cd74 Cd 0.63074 0.00797 0.05527 0.0
C75 C 0.60357 0.01481 0.01566 0.0
O76 O 0.62829 0.02856 0.08597 0.0
O77 O 0.60227 0.99611 0.07875 0.0
O78 O 0.65825 0.00336 0.07037 0.0
C79 C 0.61068 0.01331 0.09086 0.0
O80 O 0.60934 0.0324 0.02648 0.0
C81 C 0.64965 0.98358 0.0649 0.0
O82 O 0.60897 0.0019 0.02203 0.0
O83 O 0.63159 0.97455 0.05472 0.0
C84 C 0.61689 0.65281 0.3369 0.0
O85 O 0.60863 0.66374 0.34231 0.0
Cd86 Cd 0.62663 0.69901 0.35969 0.0
O87 O 0.63651 0.66017 0.3411 0.0
Cd88 Cd 0.66675 0.69323 0.36015 0.0
C89 C 0.66483 0.72558 0.32461 0.0
O90 O 0.64708 0.6976 0.38875 0.0
O91 O 0.67929 0.72302 0.3874 0.0
O92 O 0.67719 0.66915 0.37456 0.0
C93 C 0.66249 0.71512 0.39698 0.0
O94 O 0.6486 0.72265 0.33377 0.0
C95 C 0.69677 0.68176 0.37327 0.0
O96 O 0.67416 0.71571 0.32991 0.0
O97 O 0.70223 0.69898 0.36462 0.0
C98 C 0.2795 0.9869 0.40796 0.0
O99 O 0.26044 0.9774 0.40042 0.0
Cd100 Cd 0.24261 0.94271 0.38176 0.0
O101 O 0.29065 0.97838 0.40523 0.0
Cd102 Cd 0.28747 0.94598 0.38647 0.0
C103 C 0.25058 0.91359 0.41862 0.0
O104 O 0.26578 0.94464 0.35568 0.0
O105 O 0.27062 0.91801 0.35654 0.0
O106 O 0.32145 0.9714 0.37473 0.0
C107 C 0.26298 0.92744 0.34659 0.0
O108 O 0.23851 0.91801 0.40806 0.0
C109 C 0.33043 0.961 0.37867 0.0
O110 O 0.27003 0.92235 0.41513 0.0
O111 O 0.31961 0.94359 0.38728 0.0
C112 C 0.0179 0.28448 0.36506 0.0
O113 O 0.02481 0.27191 0.36215 0.0
Cd114 Cd 0.05861 0.28429 0.34809 0.0
O115 O 0.02872 0.30379 0.36065 0.0
Cd116 Cd 0.06194 0.32892 0.34618 0.0
C117 C 0.09065 0.32471 0.38655 0.0
O118 O 0.06001 0.30369 0.31798 0.0
O119 O 0.08879 0.33454 0.32177 0.0
O120 O 0.03902 0.33768 0.32751 0.0
C121 C 0.07762 0.31662 0.31107 0.0
O122 O 0.08451 0.30637 0.37722 0.0
C123 C 0.04948 0.3576 0.33258 0.0
O124 O 0.08402 0.33641 0.37949 0.0
O125 O 0.0664 0.36478 0.34445 0.0
C126 C 0.61738 0.95319 0.36054 0.0
O127 O 0.60653 0.93415 0.36569 0.0
Cd128 Cd 0.62073 0.91733 0.38692 0.0
O129 O 0.63665 0.96482 0.36733 0.0
Cd130 Cd 0.66287 0.96224 0.39026 0.0
C131 C 0.6606 0.92386 0.356 0.0
O132 O 0.6408 0.94058 0.41783 0.0
O133 O 0.67136 0.94384 0.41615 0.0
O134 O 0.67543 0.99807 0.40678 0.0
C135 C 0.65455 0.93691 0.42569 0.0
O136 O 0.64335 0.91119 0.36393 0.0
C137 C 0.69442 0.00558 0.40237 0.0
O138 O 0.67037 0.94383 0.36145 0.0
O139 O 0.69867 0.99291 0.39219 0.0
C140 C 0.00616 0.72098 0.35669 0.0
O141 O 0.01403 0.74099 0.35665 0.0
Cd142 Cd 0.04895 0.76362 0.34499 0.0
O143 O 0.01632 0.71248 0.34982 0.0
Cd144 Cd 0.04966 0.72288 0.33417 0.0
C145 C 0.07954 0.75287 0.37801 0.0
O146 O 0.05352 0.75046 0.31094 0.0
O147 O 0.081 0.74795 0.31802 0.0
O148 O 0.03285 0.69481 0.3054 0.0
C149 C 0.07234 0.75597 0.30725 0.0
O150 O 0.07491 0.76645 0.37208 0.0
C151 C 0.04012 0.68365 0.31214 0.0
O152 O 0.07118 0.73443 0.36807 0.0
O153 O 0.05211 0.69078 0.32926 0.0
C154 C 0.3247 0.36501 0.36173 0.0
O155 O 0.32055 0.37835 0.37047 0.0
Cd156 Cd 0.28587 0.36335 0.38361 0.0
O157 O 0.31285 0.34518 0.36362 0.0
Cd158 Cd 0.28302 0.3195 0.38263 0.0
C159 C 0.25446 0.32413 0.34319 0.0
O160 O 0.28283 0.34222 0.41294 0.0
O161 O 0.25558 0.3103 0.40689 0.0
O162 O 0.3085 0.312 0.39819 0.0
C163 C 0.26515 0.32775 0.4186 0.0
O164 O 0.26166 0.34283 0.35221 0.0
C165 C 0.29874 0.2923 0.39189 0.0
O166 O 0.25948 0.31144 0.35086 0.0
O167 O 0.28102 0.28481 0.38142 0.0
C168 C 0.29584 0.98575 0.67187 0.0
O169 O 0.28467 0.99392 0.67597 0.0
Cd170 Cd 0.29795 0.0292 0.69188 0.0
O171 O 0.31556 0.99603 0.67714 0.0
Cd172 Cd 0.34151 0.03075 0.69715 0.0
C173 C 0.33725 0.05903 0.6588 0.0
O174 O 0.31849 0.03213 0.72315 0.0
O175 O 0.34782 0.06156 0.72102 0.0
O176 O 0.35369 0.01164 0.71802 0.0
C177 C 0.33102 0.05126 0.73044 0.0
O178 O 0.3197 0.05396 0.66638 0.0
C179 C 0.37295 0.02289 0.71438 0.0
O180 O 0.34833 0.05159 0.66591 0.0
O181 O 0.37776 0.0378 0.70217 0.0
C182 C 0.95066 0.31515 0.7477 0.0
O183 O 0.93126 0.30239 0.74227 0.0
Cd184 Cd 0.91888 0.27025 0.71966 0.0
O185 O 0.9645 0.3111 0.74142 0.0
Cd186 Cd 0.966 0.28267 0.71991 0.0
C187 C 0.93586 0.24531 0.75243 0.0
O188 O 0.94133 0.27908 0.69073 0.0
O189 O 0.94949 0.25469 0.69027 0.0
O190 O -0.00058 0.31319 0.71148 0.0
C191 C 0.94044 0.26306 0.68082 0.0
O192 O 0.92055 0.24531 0.74257 0.0
C193 C 0.00917 0.30313 0.71042 0.0
O194 O 0.95481 0.2587 0.74882 0.0
O195 O -0.00095 0.28366 0.7144 0.0
C196 C 0.68948 0.61641 0.6984 0.0
O197 O 0.69931 0.60688 0.69369 0.0
Cd198 Cd 0.73223 0.62584 0.67688 0.0
O199 O 0.6971 0.63587 0.69494 0.0
Cd200 Cd 0.72677 0.66655 0.68108 0.0
C201 C 0.76211 0.66573 0.71645 0.0
O202 O 0.72613 0.64468 0.64989 0.0
O203 O 0.7492 0.67846 0.65137 0.0
O204 O 0.69721 0.67183 0.67586 0.0
C205 C 0.74069 0.66022 0.6412 0.0
O206 O 0.7586 0.64891 0.70554 0.0
C207 C 0.70806 0.69204 0.67787 0.0
O208 O 0.75195 0.6749 0.71175 0.0
O209 O 0.72784 0.70064 0.68161 0.0
C210 C 0.29087 0.30121 0.69214 0.0
O211 O 0.2797 0.28119 0.69306 0.0
Cd212 Cd 0.29285 0.26085 0.70932 0.0
O213 O 0.30983 0.31163 0.70008 0.0
Cd214 Cd 0.33496 0.30394 0.71867 0.0
C215 C 0.33258 0.27171 0.67685 0.0
O216 O 0.31263 0.27746 0.74331 0.0
O217 O 0.34301 0.28122 0.73818 0.0
O218 O 0.3487 0.33727 0.74126 0.0
C219 C 0.32649 0.27277 0.74824 0.0
O220 O 0.31452 0.25816 0.6826 0.0
C221 C 0.36749 0.3452 0.73596 0.0
O222 O 0.34332 0.29031 0.68647 0.0
O223 O 0.37107 0.33383 0.72281 0.0
C224 C 0.67359 0.06155 0.69038 0.0
O225 O 0.68534 0.08148 0.68899 0.0
Cd226 Cd 0.71846 0.09583 0.67304 0.0
O227 O 0.67878 0.04863 0.68254 0.0
Cd228 Cd 0.70704 0.04916 0.66283 0.0
C229 C 0.74208 0.07642 0.70497 0.0
O230 O 0.71223 0.07623 0.63884 0.0
O231 O 0.73674 0.06851 0.64095 0.0
O232 O 0.68043 0.01687 0.64139 0.0
C233 C 0.72883 0.07808 0.63171 0.0
O234 O 0.74234 0.09292 0.69899 0.0
C235 C 0.68899 0.0061 0.64557 0.0
O236 O 0.72958 0.05813 0.6954 0.0
O237 O 0.70595 0.01549 0.65756 0.0
C238 C 0.99261 0.71623 0.6877 0.0
O239 O 0.98519 0.72805 0.69254 0.0
Cd240 Cd 0.95226 0.71342 0.70916 0.0
O241 O 0.98292 0.69684 0.69202 0.0
Cd242 Cd 0.95153 0.67116 0.70932 0.0
C243 C 0.9188 0.67267 0.67188 0.0
O244 O 0.95406 0.6955 0.73957 0.0
O245 O 0.92551 0.66462 0.73507 0.0
O246 O 0.97721 0.66183 0.72069 0.0
C247 C 0.93674 0.68197 0.7466 0.0
O248 O 0.92404 0.69055 0.68173 0.0
C249 C 0.96447 0.64186 0.7196 0.0
O250 O 0.92754 0.66234 0.67743 0.0
O251 O 0.94542 0.6352 0.71345 0.0
H252 H 0.16488 0.32322 0.00083 0.0
H253 H 0.28027 0.28141 0.17726 0.0
H254 H 0.16153 0.33812 0.11883 0.0
H255 H 0.13529 0.34469 0.10232 0.0
H256 H 0.08778 0.27817 0.10488 0.0
H257 H 0.11427 0.27195 0.12208 0.0
H258 H 0.1908 0.33509 0.09202 0.0
H259 H 0.18451 0.33641 0.05377 0.0
H260 H 0.13555 0.26975 0.04932 0.0
H261 H 0.14217 0.26863 0.08755 0.0
H262 H 0.22543 0.33877 0.12696 0.0
H263 H 0.25353 0.35194 0.10273 0.0
H264 H 0.21981 0.29193 0.06378 0.0
H265 H 0.19184 0.27845 0.08887 0.0
H266 H 0.2264 0.33154 0.17021 0.0
H267 H 0.25758 0.33115 0.18373 0.0
H268 H 0.23248 0.26818 0.15168 0.0
H269 H 0.20126 0.26868 0.13848 0.0
H270 H 0.18683 0.33352 0.1878 0.0
H271 H 0.19904 0.33986 0.22525 0.0
H272 H 0.19721 0.27965 0.22176 0.0
H273 H 0.18241 0.27233 0.18478 0.0
H274 H 0.15468 0.33388 0.16095 0.0
H275 H 0.1376 0.33943 0.191 0.0
H276 H 0.11869 0.27632 0.2094 0.0
H277 H 0.13494 0.2705 0.17856 0.0
O278 O 0.16715 0.32233 0.01593 0.0
O279 O 0.14207 0.28807 0.01452 0.0
O280 O 0.28033 0.31439 0.18828 0.0
O281 O 0.26813 0.28201 0.1721 0.0
C282 C 0.15646 0.30081 0.12995 0.0
C283 C 0.17077 0.30085 0.11569 0.0
C284 C 0.18903 0.30124 0.12362 0.0
C285 C 0.19227 0.29999 0.14564 0.0
C286 C 0.17789 0.29976 0.16002 0.0
C287 C 0.15992 0.30017 0.1521 0.0
C288 C 0.13974 0.3046 0.12171 0.0
C289 C 0.14538 0.32503 0.11602 0.0
C290 C 0.13041 0.32868 0.10636 0.0
C291 C 0.10946 0.3119 0.102 0.0
C292 C 0.10374 0.29147 0.10814 0.0
C293 C 0.1188 0.28786 0.11796 0.0
C294 C 0.16709 0.3017 0.09246 0.0
C295 C 0.17884 0.32077 0.0827 0.0
C296 C 0.17516 0.32148 0.06088 0.0
C297 C 0.15956 0.30317 0.04847 0.0
C298 C 0.14772 0.28413 0.05839 0.0
C299 C 0.15146 0.28343 0.08021 0.0
C300 C 0.20672 0.30762 0.10976 0.0
C301 C 0.2243 0.32827 0.11347 0.0
C302 C 0.24016 0.33589 0.09942 0.0
C303 C 0.23867 0.3231 0.08116 0.0
C304 C 0.22135 0.30211 0.07775 0.0
C305 C 0.20542 0.2944 0.092 0.0
C306 C 0.21145 0.30002 0.1536 0.0
C307 C 0.2276 0.31763 0.16625 0.0
C308 C 0.24543 0.31739 0.17389 0.0
C309 C 0.24748 0.29958 0.16885 0.0
C310 C 0.23137 0.2821 0.15592 0.0
C311 C 0.21354 0.28235 0.14834 0.0
C312 C 0.18344 0.30233 0.1835 0.0
C313 C 0.18823 0.32128 0.19532 0.0
C314 C 0.19575 0.32511 0.21671 0.0
C315 C 0.19968 0.31055 0.22663 0.0
C316 C 0.19426 0.29122 0.2149 0.0
C317 C 0.18596 0.28705 0.19363 0.0
C318 C 0.14587 0.30169 0.16742 0.0
C319 C 0.14603 0.32088 0.17087 0.0
C320 C 0.13663 0.32419 0.18831 0.0
C321 C 0.1271 0.30845 0.20276 0.0
C322 C 0.12579 0.28871 0.19849 0.0
C323 C 0.13506 0.28535 0.1809 0.0
C324 C 0.15567 0.30398 0.02529 0.0
C325 C 0.26633 0.29919 0.17702 0.0
H326 H 0.67654 0.81367 0.03148 0.0
H327 H 0.74344 -3e-05 0.19571 0.0
H328 H 0.66068 0.81379 0.14679 0.0
H329 H 0.64518 0.77578 0.13749 0.0
H330 H 0.70334 0.7803 0.15994 0.0
H331 H 0.71912 0.81893 0.16842 0.0
H332 H 0.66794 0.84073 0.11794 0.0
H333 H 0.66559 0.82825 0.08049 0.0
H334 H 0.72902 0.8401 0.08876 0.0
H335 H 0.73125 0.8528 0.12616 0.0
H336 H 0.66589 0.86986 0.14662 0.0
H337 H 0.65379 0.88664 0.12195 0.0
H338 H 0.71619 0.92175 0.09945 0.0
H339 H 0.72823 0.90452 0.12437 0.0
H340 H 0.68033 0.89407 0.1904 0.0
H341 H 0.68614 0.92975 0.19938 0.0
H342 H 0.74955 0.95764 0.17932 0.0
H343 H 0.74357 0.92185 0.17062 0.0
H344 H 0.67271 0.85644 0.21344 0.0
H345 H 0.67001 0.86999 0.24862 0.0
H346 H 0.73712 0.91508 0.25372 0.0
H347 H 0.73961 0.90127 0.21805 0.0
H348 H 0.66408 0.81743 0.19408 0.0
H349 H 0.65551 0.79345 0.22256 0.0
H350 H 0.72149 0.82487 0.24382 0.0
H351 H 0.73001 0.84881 0.21488 0.0
O352 O 0.67786 0.81879 0.04632 0.0
O353 O 0.71049 0.82511 0.05143 0.0
O354 O 0.70806 0.97055 0.2026 0.0
O355 O 0.74074 0.98568 0.19236 0.0
C356 C 0.69979 0.84216 0.16367 0.0
C357 C 0.70153 0.85553 0.14748 0.0
C358 C 0.70442 0.87581 0.153 0.0
C359 C 0.70817 0.88382 0.17464 0.0
C360 C 0.707 0.87072 0.19091 0.0
C361 C 0.70239 0.84969 0.18542 0.0
C362 C 0.69114 0.81915 0.15783 0.0
C363 C 0.6702 0.80665 0.14939 0.0
C364 C 0.66125 0.78484 0.14447 0.0
C365 C 0.67297 0.77496 0.14816 0.0
C366 C 0.69398 0.7875 0.15679 0.0
C367 C 0.703 0.80949 0.16163 0.0
C368 C 0.6999 0.848 0.12467 0.0
C369 C 0.68141 0.8409 0.11157 0.0
C370 C 0.68006 0.83364 0.09021 0.0
C371 C 0.69715 0.83325 0.08159 0.0
C372 C 0.7156 0.84025 0.09485 0.0
C373 C 0.71692 0.84752 0.11621 0.0
C374 C 0.69787 0.88595 0.13716 0.0
C375 C 0.6769 0.88101 0.13619 0.0
C376 C 0.66998 0.89045 0.12198 0.0
C377 C 0.68399 0.9053 0.10861 0.0
C378 C 0.70508 0.91028 0.10955 0.0
C379 C 0.71197 0.90052 0.12369 0.0
C380 C 0.71164 0.90543 0.18014 0.0
C381 C 0.69551 0.90791 0.18814 0.0
C382 C 0.69885 0.92831 0.19317 0.0
C383 C 0.71835 0.94656 0.19013 0.0
C384 C 0.73439 0.94394 0.18192 0.0
C385 C 0.73103 0.92354 0.17694 0.0
C386 C 0.7064 0.87759 0.21338 0.0
C387 C 0.68694 0.86881 0.22239 0.0
C388 C 0.68544 0.87662 0.24252 0.0
C389 C 0.70339 0.8935 0.25408 0.0
C390 C 0.72302 0.90209 0.24518 0.0
C391 C 0.7245 0.89416 0.22493 0.0
C392 C 0.69767 0.83475 0.20235 0.0
C393 C 0.67673 0.81898 0.20471 0.0
C394 C 0.67185 0.80542 0.22107 0.0
C395 C 0.68783 0.80737 0.23546 0.0
C396 C 0.70889 0.82293 0.23285 0.0
C397 C 0.71376 0.83663 0.21645 0.0
C398 C 0.69565 0.82549 0.0589 0.0
C399 C 0.72198 0.96827 0.19543 0.0
H400 H 0.13141 0.86071 0.00649 0.0
H401 H 0.30189 0.96448 0.19558 0.0
H402 H 0.10951 0.84958 0.1261 0.0
H403 H 0.07951 0.81507 0.1108 0.0
H404 H 0.11775 0.7864 0.11765 0.0
H405 H 0.14735 0.82063 0.13244 0.0
H406 H 0.15223 0.89137 0.09706 0.0
H407 H 0.14248 0.88347 0.0586 0.0
H408 H 0.15283 0.8304 0.05912 0.0
H409 H 0.16277 0.83863 0.09747 0.0
H410 H 0.20597 0.92793 0.11759 0.0
H411 H 0.23675 0.94236 0.09638 0.0
H412 H 0.22964 0.87978 0.08864 0.0
H413 H 0.20039 0.86624 0.11141 0.0
H414 H 0.20424 0.93604 0.16002 0.0
H415 H 0.23983 0.96392 0.1737 0.0
H416 H 0.25759 0.91623 0.17755 0.0
H417 H 0.22193 0.88856 0.16385 0.0
H418 H 0.18082 0.91633 0.19332 0.0
H419 H 0.19532 0.92616 0.23044 0.0
H420 H 0.195 0.86685 0.23155 0.0
H421 H 0.18254 0.85837 0.19393 0.0
H422 H 0.12892 0.87208 0.18434 0.0
H423 H 0.10796 0.85144 0.21311 0.0
H424 H 0.12693 0.8053 0.19991 0.0
H425 H 0.14811 0.82618 0.17184 0.0
O426 O 0.13536 0.86358 0.02171 0.0
O427 O 0.1408 0.83642 0.02286 0.0
O428 O 0.27784 0.97772 0.1877 0.0
O429 O 0.28774 0.95381 0.19006 0.0
C430 C 0.14927 0.85819 0.13814 0.0
C431 C 0.16376 0.87047 0.12342 0.0
C432 C 0.18395 0.8875 0.13086 0.0
C433 C 0.18897 0.89347 0.15299 0.0
C434 C 0.17411 0.8818 0.16772 0.0
C435 C 0.15435 0.86396 0.16028 0.0
C436 C 0.13048 0.83747 0.1304 0.0
C437 C 0.11122 0.83574 0.1244 0.0
C438 C 0.09419 0.81611 0.11572 0.0
C439 C 0.09642 0.79816 0.11281 0.0
C440 C 0.11567 0.80002 0.11932 0.0
C441 C 0.13251 0.81948 0.12798 0.0
C442 C 0.15794 0.86543 0.10008 0.0
C443 C 0.15235 0.87803 0.08882 0.0
C444 C 0.14679 0.87348 0.06686 0.0
C445 C 0.14678 0.85624 0.05579 0.0
C446 C 0.15256 0.84373 0.06716 0.0
C447 C 0.15815 0.84833 0.0891 0.0
C448 C 0.20097 0.89606 0.11599 0.0
C449 C 0.21117 0.91744 0.1113 0.0
C450 C 0.22862 0.92557 0.099 0.0
C451 C 0.23585 0.91228 0.09089 0.0
C452 C 0.22493 0.89065 0.09501 0.0
C453 C 0.20792 0.88274 0.1077 0.0
C454 C 0.21062 0.91037 0.16092 0.0
C455 C 0.21589 0.93171 0.16379 0.0
C456 C 0.2362 0.94756 0.17161 0.0
C457 C 0.25157 0.9423 0.17673 0.0
C458 C 0.24616 0.92084 0.17378 0.0
C459 C 0.22584 0.90501 0.16594 0.0
C460 C 0.1805 0.88659 0.19097 0.0
C461 C 0.18388 0.9055 0.20166 0.0
C462 C 0.19199 0.91096 0.22298 0.0
C463 C 0.19647 0.89736 0.23414 0.0
C464 C 0.19225 0.878 0.22347 0.0
C465 C 0.1847 0.87287 0.20203 0.0
C466 C 0.13976 0.85043 0.17585 0.0
C467 C 0.12821 0.85732 0.1875 0.0
C468 C 0.11627 0.84555 0.20384 0.0
C469 C 0.11597 0.82688 0.20879 0.0
C470 C 0.12707 0.81975 0.19659 0.0
C471 C 0.13892 0.83147 0.18034 0.0
C472 C 0.14082 0.85141 0.03247 0.0
C473 C 0.27314 0.95906 0.18514 0.0
H474 H 0.28443 0.15943 0.04329 0.0
H475 H 0.34142 0.04813 0.8687 0.0
H476 H 0.27783 0.17091 0.93412 0.0
H477 H 0.28546 0.20591 0.95007 0.0
H478 H 0.34568 0.23612 0.92266 0.0
H479 H 0.3387 0.20138 0.90805 0.0
H480 H 0.27474 0.1268 0.95397 0.0
H481 H 0.27311 0.13508 0.99186 0.0
H482 H 0.33412 0.19269 0.99203 0.0
H483 H 0.33569 0.18407 0.95424 0.0
H484 H 0.28657 0.08994 0.93007 0.0
H485 H 0.30021 0.0718 0.95084 0.0
H486 H 0.35533 0.13285 0.97223 0.0
H487 H 0.34262 0.15041 0.9496 0.0
H488 H 0.27872 0.08816 0.88035 0.0
H489 H 0.28362 0.05885 0.86768 0.0
H490 H 0.34914 0.09604 0.8913 0.0
H491 H 0.34406 0.12532 0.90366 0.0
H492 H 0.27717 0.11669 0.85138 0.0
H493 H 0.28324 0.10496 0.81634 0.0
H494 H 0.35032 0.14089 0.83318 0.0
H495 H 0.34408 0.1525 0.86787 0.0
H496 H 0.27154 0.15951 0.87509 0.0
H497 H 0.27109 0.18173 0.84739 0.0
H498 H 0.33809 0.20874 0.84321 0.0
H499 H 0.33807 0.18589 0.87001 0.0
O500 O 0.28545 0.15642 0.02833 0.0
O501 O 0.31679 0.18591 0.02755 0.0
O502 O 0.30526 0.04104 0.86166 0.0
O503 O 0.33902 0.05943 0.87364 0.0
C504 C 0.30496 0.16265 0.91266 0.0
C505 C 0.30587 0.14976 0.92822 0.0
C506 C 0.30798 0.13213 0.9219 0.0
C507 C 0.30806 0.12677 0.89996 0.0
C508 C 0.30675 0.13939 0.88446 0.0
C509 C 0.30508 0.15723 0.89073 0.0
C510 C 0.30755 0.18363 0.91956 0.0
C511 C 0.2925 0.18514 0.93132 0.0
C512 C 0.29687 0.20501 0.94044 0.0
C513 C 0.31606 0.22353 0.93736 0.0
C514 C 0.33066 0.22204 0.92494 0.0
C515 C 0.32658 0.20224 0.91639 0.0
C516 C 0.3052 0.15494 0.95129 0.0
C517 C 0.28774 0.14119 0.96223 0.0
C518 C 0.28684 0.14597 0.98387 0.0
C519 C 0.30345 0.1646 0.99496 0.0
C520 C 0.32103 0.17826 0.98396 0.0
C521 C 0.32193 0.17342 0.96235 0.0
C522 C 0.31363 0.1215 0.93816 0.0
C523 C 0.30149 0.09936 0.93943 0.0
C524 C 0.30928 0.08905 0.95152 0.0
C525 C 0.32912 0.10078 0.96304 0.0
C526 C 0.34033 0.12316 0.9631 0.0
C527 C 0.33285 0.13334 0.9505 0.0
C528 C 0.31099 0.10876 0.89302 0.0
C529 C 0.29409 0.0899 0.8828 0.0
C530 C 0.29694 0.07321 0.87558 0.0
C531 C 0.31678 0.0751 0.8785 0.0
C532 C 0.33366 0.09405 0.88882 0.0
C533 C 0.3308 0.11076 0.89596 0.0
C534 C 0.3102 0.13545 0.86202 0.0
C535 C 0.29316 0.12242 0.84719 0.0
C536 C 0.29665 0.11564 0.82732 0.0
C537 C 0.31726 0.12195 0.82207 0.0
C538 C 0.33431 0.13598 0.83661 0.0
C539 C 0.33079 0.1426 0.85644 0.0
C540 C 0.30479 0.17097 0.87436 0.0
C541 C 0.28605 0.1702 0.86805 0.0
C542 C 0.28587 0.183 0.85235 0.0
C543 C 0.30452 0.19691 0.84287 0.0
C544 C 0.32332 0.19784 0.84967 0.0
C545 C 0.3234 0.18489 0.8651 0.0
C546 C 0.30238 0.16969 0.01791 0.0
C547 C 0.31992 0.05746 0.87074 0.0
H548 H 0.83136 0.16094 0.04261 0.0
H549 H 0.71957 0.99296 0.85534 0.0
H550 H 0.83954 0.17107 0.91901 0.0
H551 H 0.86144 0.20578 0.93874 0.0
H552 H 0.90886 0.18962 0.95326 0.0
H553 H 0.88682 0.15479 0.93267 0.0
H554 H 0.81146 0.14167 0.95022 0.0
H555 H 0.81553 0.1517 0.98866 0.0
H556 H 0.86067 0.13129 0.99653 0.0
H557 H 0.85629 0.12116 0.95806 0.0
H558 H 0.77701 0.10704 0.9173 0.0
H559 H 0.74941 0.09318 0.9423 0.0
H560 H 0.78134 0.06671 0.97634 0.0
H561 H 0.80884 0.08036 0.95082 0.0
H562 H 0.77765 0.09906 0.8728 0.0
H563 H 0.74589 0.06712 0.85659 0.0
H564 H 0.7675 0.0277 0.88319 0.0
H565 H 0.79932 0.05981 0.8991 0.0
H566 H 0.81631 0.13944 0.86065 0.0
H567 H 0.80692 0.13565 0.82251 0.0
H568 H 0.8143 0.08077 0.81514 0.0
H569 H 0.82392 0.08484 0.85377 0.0
H570 H 0.85215 0.17233 0.8816 0.0
H571 H 0.87286 0.19194 0.85255 0.0
H572 H 0.89107 0.14515 0.84095 0.0
H573 H 0.87072 0.1257 0.87058 0.0
O574 O 0.82993 0.15678 0.02745 0.0
O575 O 0.85307 0.14611 0.03064 0.0
O576 O 0.72165 0.02685 0.84816 0.0
O577 O 0.73199 0.00586 0.86156 0.0
C578 C 0.8465 0.13867 0.91499 0.0
C579 C 0.83114 0.12463 0.9281 0.0
C580 C 0.81287 0.10605 0.91888 0.0
C581 C 0.81032 0.10108 0.89653 0.0
C582 C 0.82583 0.11501 0.88342 0.0
C583 C 0.84424 0.13351 0.89273 0.0
C584 C 0.86177 0.16063 0.92415 0.0
C585 C 0.8549 0.17524 0.92598 0.0
C586 C 0.86729 0.19492 0.93753 0.0
C587 C 0.88672 0.20029 0.94784 0.0
C588 C 0.89398 0.18592 0.9454 0.0
C589 C 0.88151 0.16611 0.93363 0.0
C590 C 0.83344 0.13052 0.95146 0.0
C591 C 0.8221 0.13925 0.96032 0.0
C592 C 0.82451 0.14502 0.98226 0.0
C593 C 0.8384 0.14226 0.99568 0.0
C594 C 0.84981 0.13358 0.98666 0.0
C595 C 0.84735 0.12778 0.96472 0.0
C596 C 0.79479 0.0945 0.93212 0.0
C597 C 0.77777 0.09777 0.92981 0.0
C598 C 0.76221 0.09015 0.9443 0.0
C599 C 0.7634 0.07914 0.96143 0.0
C600 C 0.78002 0.0751 0.96324 0.0
C601 C 0.79567 0.08281 0.9487 0.0
C602 C 0.7909 0.08173 0.88688 0.0
C603 C 0.77557 0.08352 0.87495 0.0
C604 C 0.75741 0.06524 0.86579 0.0
C605 C 0.75419 0.04484 0.86853 0.0
C606 C 0.76951 0.04315 0.88071 0.0
C607 C 0.78769 0.06145 0.88982 0.0
C608 C 0.82105 0.11259 0.85992 0.0
C609 C 0.81633 0.12684 0.85076 0.0
C610 C 0.81102 0.12469 0.82893 0.0
C611 C 0.81008 0.10804 0.81574 0.0
C612 C 0.81489 0.09374 0.82492 0.0
C613 C 0.8204 0.09604 0.8469 0.0
C614 C 0.86032 0.14784 0.87861 0.0
C615 C 0.86148 0.16687 0.87365 0.0
C616 C 0.8731 0.17792 0.85691 0.0
C617 C 0.8836 0.17004 0.84485 0.0
C618 C 0.88331 0.15159 0.85036 0.0
C619 C 0.87177 0.14057 0.86723 0.0
C620 C 0.84097 0.14847 0.01897 0.0
C621 C 0.73495 0.02537 0.85878 0.0
H622 H 0.87189 0.6922 0.05835 0.0
H623 H 0.72591 0.70022 0.87382 0.0
H624 H 0.89524 0.71677 0.94259 0.0
H625 H 0.91726 0.70565 0.96113 0.0
H626 H 0.86852 0.63955 0.94626 0.0
H627 H 0.84635 0.65094 0.92892 0.0
H628 H 0.86962 0.72118 0.97383 0.0
H629 H 0.87527 0.71521 0.01083 0.0
H630 H 0.82531 0.64919 -0.00087 0.0
H631 H 0.81992 0.65541 0.96213 0.0
H632 H 0.82789 0.72233 0.97083 0.0
H633 H 0.80128 0.71495 0.99672 0.0
H634 H 0.75952 0.65376 0.96196 0.0
H635 H 0.78613 0.66116 0.93649 0.0
H636 H 0.81928 0.73412 0.92568 0.0
H637 H 0.79074 0.74027 0.91539 0.0
H638 H 0.7571 0.67804 0.88037 0.0
H639 H 0.78563 0.67201 0.89098 0.0
H640 H 0.83976 0.73252 0.87969 0.0
H641 H 0.82875 0.73279 0.8424 0.0
H642 H 0.80751 0.66569 0.8318 0.0
H643 H 0.81848 0.66561 0.86882 0.0
H644 H 0.88001 0.72498 0.88288 0.0
H645 H 0.89578 0.71994 0.85117 0.0
H646 H 0.86584 0.65259 0.8599 0.0
H647 H 0.84926 0.65762 0.89069 0.0
O648 O 0.86933 0.69423 0.04369 0.0
O649 O 0.84353 0.66043 0.03686 0.0
O650 O 0.75526 0.72999 0.8965 0.0
O651 O 0.73738 0.69818 0.87817 0.0
C652 C 0.85424 0.69116 0.92749 0.0
C653 C 0.84137 0.69237 0.94288 0.0
C654 C 0.82494 0.69578 0.93666 0.0
C655 C 0.822 0.69915 0.91524 0.0
C656 C 0.83501 0.6982 0.8998 0.0
C657 C 0.85111 0.69407 0.90591 0.0
C658 C 0.86939 0.68465 0.93411 0.0
C659 C 0.88963 0.69991 0.94289 0.0
C660 C 0.90214 0.69349 0.95351 0.0
C661 C 0.89458 0.67167 0.95541 0.0
C662 C 0.87469 0.65647 0.94552 0.0
C663 C 0.86214 0.66291 0.93521 0.0
C664 C 0.84435 0.68874 0.96541 0.0
C665 C 0.8599 0.70547 0.97934 0.0
C666 C 0.86309 0.702 0.00044 0.0
C667 C 0.85074 0.68172 0.00794 0.0
C668 C 0.83509 0.665 0.99387 0.0
C669 C 0.83194 0.6685 0.97277 0.0
C670 C 0.80881 0.69231 0.95179 0.0
C671 C 0.81294 0.70742 0.96885 0.0
C672 C 0.79778 0.70318 0.98356 0.0
C673 C 0.77843 0.6837 0.98144 0.0
C674 C 0.77442 0.66874 0.96421 0.0
C675 C 0.78947 0.67302 0.94953 0.0
C676 C 0.8046 0.70272 0.9089 0.0
C677 C 0.80572 0.72185 0.91579 0.0
C678 C 0.78941 0.72532 0.90988 0.0
C679 C 0.77166 0.70967 0.89698 0.0
C680 C 0.77056 0.69045 0.89024 0.0
C681 C 0.78686 0.68699 0.89621 0.0
C682 C 0.8301 0.69909 0.87688 0.0
C683 C 0.83297 0.71799 0.86917 0.0
C684 C 0.8266 0.71808 0.84795 0.0
C685 C 0.81737 0.69929 0.83412 0.0
C686 C 0.81496 0.68054 0.84188 0.0
C687 C 0.82119 0.68044 0.86304 0.0
C688 C 0.86374 0.69173 0.88931 0.0
C689 C 0.87724 0.70923 0.87815 0.0
C690 C 0.88626 0.70632 0.86006 0.0
C691 C 0.88196 0.68582 0.85288 0.0
C692 C 0.86923 0.66853 0.86477 0.0
C693 C 0.86007 0.67144 0.88268 0.0
C694 C 0.85424 0.67807 0.03034 0.0
C695 C 0.75433 0.7133 0.89059 0.0
H696 H 0.82779 0.6621 0.33506 0.0
H697 H 0.93386 0.60714 0.51086 0.0
H698 H 0.82036 0.66992 0.44769 0.0
H699 H 0.79455 0.67507 0.42893 0.0
H700 H 0.74532 0.61246 0.44396 0.0
H701 H 0.77215 0.60648 0.46015 0.0
H702 H 0.85183 0.67061 0.42635 0.0
H703 H 0.84652 0.67327 0.38827 0.0
H704 H 0.79628 0.60711 0.38167 0.0
H705 H 0.80196 0.60458 0.41975 0.0
H706 H 0.88326 0.67451 0.46582 0.0
H707 H 0.91325 0.69297 0.44436 0.0
H708 H 0.88632 0.63772 0.39857 0.0
H709 H 0.85636 0.61892 0.42074 0.0
H710 H 0.88427 0.66165 0.50492 0.0
H711 H 0.91399 0.65901 0.51901 0.0
H712 H 0.88787 0.59731 0.48374 0.0
H713 H 0.85806 0.60005 0.47 0.0
H714 H 0.84991 0.66306 0.52248 0.0
H715 H 0.86258 0.6651 0.55925 0.0
H716 H 0.84306 0.59824 0.55151 0.0
H717 H 0.83062 0.59653 0.51427 0.0
H718 H 0.81958 0.66581 0.5045 0.0
H719 H 0.80039 0.66698 0.53455 0.0
H720 H 0.76233 0.59789 0.52821 0.0
H721 H 0.78334 0.59712 0.49942 0.0
O722 O 0.82972 0.66066 0.35008 0.0
O723 O 0.80396 0.62662 0.34757 0.0
O724 O 0.93505 0.64039 0.52333 0.0
O725 O 0.92232 0.60864 0.50547 0.0
C726 C 0.81509 0.63376 0.46287 0.0
C727 C 0.83045 0.63553 0.44894 0.0
C728 C 0.84867 0.63595 0.45714 0.0
C729 C 0.85041 0.63206 0.47863 0.0
C730 C 0.83496 0.62985 0.49252 0.0
C731 C 0.81747 0.63104 0.48469 0.0
C732 C 0.79828 0.63766 0.4549 0.0
C733 C 0.804 0.65722 0.44675 0.0
C734 C 0.78896 0.66027 0.43629 0.0
C735 C 0.76747 0.64423 0.43468 0.0
C736 C 0.76164 0.62506 0.44418 0.0
C737 C 0.77693 0.6217 0.45388 0.0
C738 C 0.82749 0.6373 0.42576 0.0
C739 C 0.83986 0.65664 0.41661 0.0
C740 C 0.8367 0.65814 0.39487 0.0
C741 C 0.82101 0.64038 0.3819 0.0
C742 C 0.80854 0.62108 0.39118 0.0
C743 C 0.81176 0.61958 0.41292 0.0
C744 C 0.86773 0.64533 0.44492 0.0
C745 C 0.88403 0.66617 0.45141 0.0
C746 C 0.90098 0.67683 0.43895 0.0
C747 C 0.90195 0.66693 0.4196 0.0
C748 C 0.88598 0.64571 0.41343 0.0
C749 C 0.86892 0.63496 0.42604 0.0
C750 C 0.86889 0.63091 0.48667 0.0
C751 C 0.88492 0.64752 0.50038 0.0
C752 C 0.90192 0.646 0.50833 0.0
C753 C 0.90326 0.62789 0.50257 0.0
C754 C 0.88729 0.61143 0.48856 0.0
C755 C 0.87028 0.61297 0.48066 0.0
C756 C 0.83901 0.62957 0.5158 0.0
C757 C 0.84768 0.64866 0.52893 0.0
C758 C 0.85498 0.64978 0.54999 0.0
C759 C 0.85381 0.63181 0.55845 0.0
C760 C 0.84436 0.61243 0.54546 0.0
C761 C 0.83705 0.61134 0.52428 0.0
C762 C 0.8029 0.63141 0.49995 0.0
C763 C 0.80691 0.65097 0.50951 0.0
C764 C 0.7957 0.65154 0.52664 0.0
C765 C 0.7797 0.6325 0.53414 0.0
C766 C 0.77486 0.61289 0.52343 0.0
C767 C 0.78661 0.61237 0.50672 0.0
C768 C 0.81765 0.64205 0.35882 0.0
C769 C 0.9212 0.6261 0.51111 0.0
H770 H 0.34906 0.12905 0.36329 0.0
H771 H 0.39833 0.32223 0.51772 0.0
H772 H 0.32784 0.13448 0.49161 0.0
H773 H 0.31453 0.09748 0.4796 0.0
H774 H 0.37747 0.11328 0.46567 0.0
H775 H 0.39099 0.15029 0.47994 0.0
H776 H 0.33594 0.15103 0.45 0.0
H777 H 0.33506 0.13768 0.41319 0.0
H778 H 0.40258 0.17966 0.41391 0.0
H779 H 0.40324 0.19267 0.45084 0.0
H780 H 0.33482 0.1884 0.46036 0.0
H781 H 0.32535 0.20909 0.43864 0.0
H782 H 0.39127 0.25737 0.43777 0.0
H783 H 0.4005 0.23656 0.46036 0.0
H784 H 0.34095 0.21581 0.50479 0.0
H785 H 0.34282 0.25015 0.51036 0.0
H786 H 0.41072 0.28277 0.5106 0.0
H787 H 0.40858 0.24829 0.50508 0.0
H788 H 0.33303 0.17901 0.53499 0.0
H789 H 0.32397 0.19205 0.56654 0.0
H790 H 0.38858 0.2443 0.57709 0.0
H791 H 0.39797 0.22913 0.54682 0.0
H792 H 0.3299 0.14562 0.52691 0.0
H793 H 0.32321 0.12381 0.55682 0.0
H794 H 0.39022 0.15311 0.57164 0.0
H795 H 0.39682 0.1747 0.54094 0.0
O796 O 0.34977 0.13451 0.37788 0.0
O797 O 0.38448 0.15645 0.37905 0.0
O798 O 0.36219 0.29091 0.51539 0.0
O799 O 0.39714 0.30844 0.51564 0.0
C800 C 0.3675 0.16771 0.49254 0.0
C801 C 0.37035 0.18062 0.47552 0.0
C802 C 0.37261 0.20082 0.47957 0.0
C803 C 0.37343 0.20882 0.50075 0.0
C804 C 0.37057 0.19602 0.51785 0.0
C805 C 0.36771 0.17545 0.51376 0.0
C806 C 0.36048 0.14492 0.48747 0.0
C807 C 0.33895 0.12978 0.48708 0.0
C808 C 0.33129 0.1087 0.47957 0.0
C809 C 0.34486 0.10241 0.4713 0.0
C810 C 0.3666 0.11752 0.47212 0.0
C811 C 0.37436 0.13865 0.48021 0.0
C812 C 0.3697 0.17257 0.45314 0.0
C813 C 0.35054 0.15717 0.44223 0.0
C814 C 0.35008 0.14965 0.42118 0.0
C815 C 0.36877 0.15755 0.41062 0.0
C816 C 0.38792 0.17318 0.42159 0.0
C817 C 0.38835 0.18065 0.44266 0.0
C818 C 0.36832 0.211 0.4619 0.0
C819 C 0.34727 0.2031 0.45486 0.0
C820 C 0.3419 0.215 0.44238 0.0
C821 C 0.35752 0.23505 0.43654 0.0
C822 C 0.37882 0.24217 0.44228 0.0
C823 C 0.38417 0.23023 0.45496 0.0
C824 C 0.37464 0.22964 0.50464 0.0
C825 C 0.3562 0.23041 0.50616 0.0
C826 C 0.35732 0.25003 0.50929 0.0
C827 C 0.37694 0.26922 0.51092 0.0
C828 C 0.39538 0.26831 0.50942 0.0
C829 C 0.39422 0.24867 0.5063 0.0
C830 C 0.36629 0.20261 0.53895 0.0
C831 C 0.34549 0.19253 0.54479 0.0
C832 C 0.34021 0.20055 0.56252 0.0
C833 C 0.35538 0.21963 0.57423 0.0
C834 C 0.37644 0.22947 0.56869 0.0
C835 C 0.38187 0.22088 0.55133 0.0
C836 C 0.36385 0.16165 0.5316 0.0
C837 C 0.34318 0.14716 0.53634 0.0
C838 C 0.33938 0.13487 0.55364 0.0
C839 C 0.35619 0.13687 0.56673 0.0
C840 C 0.37696 0.15113 0.56176 0.0
C841 C 0.38075 0.1635 0.54433 0.0
C842 C 0.36823 0.14953 0.38825 0.0
C843 C 0.37822 0.29012 0.51412 0.0
H844 H 0.79592 0.17874 0.34235 0.0
H845 H 0.98067 0.30613 0.50648 0.0
H846 H 0.78734 0.17734 0.45728 0.0
H847 H 0.75688 0.14228 0.44432 0.0
H848 H 0.79044 0.11191 0.46586 0.0
H849 H 0.82073 0.14673 0.47812 0.0
H850 H 0.82866 0.21791 0.42933 0.0
H851 H 0.81483 0.20692 0.39197 0.0
H852 H 0.81524 0.14836 0.39671 0.0
H853 H 0.82937 0.15968 0.4339 0.0
H854 H 0.88299 0.25327 0.4465 0.0
H855 H 0.91391 0.2643 0.42603 0.0
H856 H 0.89897 0.19875 0.41841 0.0
H857 H 0.8697 0.18844 0.4406 0.0
H858 H 0.87616 0.26184 0.49785 0.0
H859 H 0.91123 0.2931 0.50712 0.0
H860 H 0.93918 0.25533 0.49032 0.0
H861 H 0.90401 0.22417 0.48132 0.0
H862 H 0.84096 0.22932 0.53097 0.0
H863 H 0.8556 0.24107 0.56813 0.0
H864 H 0.90064 0.22138 0.55631 0.0
H865 H 0.88517 0.20873 0.51976 0.0
H866 H 0.80009 0.19016 0.51468 0.0
H867 H 0.7826 0.16906 0.54449 0.0
H868 H 0.82444 0.14404 0.54381 0.0
H869 H 0.84244 0.16614 0.51508 0.0
O870 O 0.80144 0.18279 0.35713 0.0
O871 O 0.80187 0.15289 0.36043 0.0
O872 O 0.95145 0.31271 0.51144 0.0
O873 O 0.96661 0.29402 0.50293 0.0
C874 C 0.8257 0.18547 0.47389 0.0
C875 C 0.83806 0.19645 0.45714 0.0
C876 C 0.85882 0.21382 0.46191 0.0
C877 C 0.86618 0.22194 0.4834 0.0
C878 C 0.85353 0.21142 0.5001 0.0
C879 C 0.83366 0.19278 0.49535 0.0
C880 C 0.80612 0.16452 0.46884 0.0
C881 C 0.78787 0.16303 0.45951 0.0
C882 C 0.77056 0.14307 0.45215 0.0
C883 C 0.77142 0.12443 0.45391 0.0
C884 C 0.78945 0.12602 0.46402 0.0
C885 C 0.80664 0.14586 0.47134 0.0
C886 C 0.82971 0.18947 0.43444 0.0
C887 C 0.82574 0.20271 0.42226 0.0
C888 C 0.81783 0.19638 0.40093 0.0
C889 C 0.81382 0.1767 0.39138 0.0
C890 C 0.81803 0.16355 0.4036 0.0
C891 C 0.82598 0.16993 0.42491 0.0
C892 C 0.87414 0.22008 0.4452 0.0
C893 C 0.88629 0.24131 0.44013 0.0
C894 C 0.9039 0.24753 0.42831 0.0
C895 C 0.90924 0.23247 0.42093 0.0
C896 C 0.8958 0.21091 0.42441 0.0
C897 C 0.87869 0.20487 0.43671 0.0
C898 C 0.88758 0.24085 0.4887 0.0
C899 C 0.88989 0.26039 0.49615 0.0
C900 C 0.90993 0.2782 0.50144 0.0
C901 C 0.92802 0.27673 0.4994 0.0
C902 C 0.9256 0.25704 0.49202 0.0
C903 C 0.90554 0.23923 0.48681 0.0
C904 C 0.86219 0.21843 0.52266 0.0
C905 C 0.8539 0.22746 0.53654 0.0
C906 C 0.86238 0.23428 0.55768 0.0
C907 C 0.87935 0.23223 0.56522 0.0
C908 C 0.8874 0.22294 0.55121 0.0
C909 C 0.87878 0.21594 0.53021 0.0
C910 C 0.82244 0.17958 0.51282 0.0
C911 C 0.8054 0.18012 0.5211 0.0
C912 C 0.79539 0.16795 0.53802 0.0
C913 C 0.80211 0.15482 0.54665 0.0
C914 C 0.8191 0.15426 0.53798 0.0
C915 C 0.82928 0.1667 0.5214 0.0
C916 C 0.80536 0.17 0.36873 0.0
C917 C 0.94935 0.29561 0.50497 0.0
H918 H 0.01315 0.52968 0.378 0.0
H919 H 0.0177 0.37804 0.20629 0.0
H920 H 0.97364 0.5128 0.27088 0.0
H921 H 0.9806 0.54745 0.2866 0.0
H922 H 0.03326 0.57954 0.2477 0.0
H923 H 0.02692 0.54494 0.23277 0.0
H924 H 0.98002 0.48007 0.29515 0.0
H925 H 0.9886 0.49598 0.33209 0.0
H926 H 0.04723 0.54837 0.31367 0.0
H927 H 0.03858 0.53213 0.27686 0.0
H928 H 0.97774 0.43997 0.2737 0.0
H929 H 0.9888 0.42069 0.29632 0.0
H930 H 0.0537 0.47138 0.29502 0.0
H931 H 0.04236 0.49077 0.27295 0.0
H932 H 0.96491 0.42859 0.22198 0.0
H933 H 0.96484 0.39578 0.2117 0.0
H934 H 0.03272 0.43014 0.22257 0.0
H935 H 0.03256 0.46286 0.23251 0.0
H936 H 0.95948 0.45549 0.19055 0.0
H937 H 0.95696 0.43691 0.15578 0.0
H938 H 0.02453 0.4645 0.16095 0.0
H939 H 0.02682 0.48325 0.19504 0.0
H940 H 0.96147 0.50384 0.218 0.0
H941 H 0.95669 0.52507 0.19201 0.0
H942 H 0.01397 0.53703 0.1642 0.0
H943 H 0.01922 0.51697 0.19099 0.0
O944 O 0.01016 0.52356 0.36333 0.0
O945 O 0.04002 0.55022 0.35299 0.0
O946 O 0.9824 0.37388 0.20474 0.0
O947 O 0.01727 0.39076 0.2103 0.0
C948 C -0.00149 0.5058 0.24481 0.0
C949 C 0.00309 0.49555 0.26083 0.0
C950 C 0.00305 0.47662 0.25534 0.0
C951 C -0.00135 0.46796 0.2339 0.0
C952 C 0.99484 0.47858 0.21778 0.0
C953 C 0.99444 0.49736 0.2232 0.0
C954 C -0.00017 0.52637 0.25076 0.0
C955 C 0.98645 0.52732 0.26549 0.0
C956 C 0.99045 0.54701 0.27448 0.0
C957 C 0.00751 0.56597 0.26838 0.0
C958 C 0.01997 0.56505 0.25253 0.0
C959 C 0.01627 0.54535 0.24392 0.0
C960 C 0.00864 0.50499 0.28335 0.0
C961 C 0.99476 0.49491 0.29917 0.0
C962 C -0.00032 0.50407 0.32024 0.0
C963 C 0.01858 0.52348 0.32582 0.0
C964 C 0.03253 0.53343 0.3099 0.0
C965 C 0.02763 0.52421 0.28887 0.0
C966 C 0.00928 0.46663 0.27166 0.0
C967 C 0.99427 0.44707 0.27874 0.0
C968 C 0.00065 0.43607 0.29151 0.0
C969 C 0.02217 0.44438 0.2972 0.0
C970 C 0.03702 0.46463 0.29108 0.0
C971 C 0.0306 0.47568 0.27842 0.0
C972 C -0.00129 0.44802 0.22811 0.0
C973 C 0.97973 0.42896 0.22213 0.0
C974 C 0.97975 0.41027 0.21628 0.0
C975 C -0.00121 0.41033 0.21635 0.0
C976 C 0.01778 0.42951 0.22238 0.0
C977 C 0.01774 0.4482 0.22815 0.0
C978 C 0.99333 0.47073 0.19518 0.0
C979 C 0.97373 0.45795 0.18376 0.0
C980 C 0.97232 0.4472 0.16407 0.0
C981 C 0.99054 0.44913 0.15561 0.0
C982 C 0.01022 0.46287 0.16673 0.0
C983 C 0.01159 0.47358 0.18627 0.0
C984 C 0.9906 0.50869 0.20629 0.0
C985 C 0.97292 0.51101 0.20621 0.0
C986 C 0.97016 0.52305 0.19127 0.0
C987 C 0.985 0.53289 0.17604 0.0
C988 C 0.00243 0.53005 0.17592 0.0
C989 C 0.00528 0.51826 0.191 0.0
C990 C 0.02364 0.53329 0.34816 0.0
C991 C -0.0011 0.39053 0.21011 0.0
H992 H 0.50638 0.51343 0.37313 0.0
H993 H 0.39198 0.31711 0.2136 0.0
H994 H 0.50695 0.50927 0.24806 0.0
H995 H 0.53302 0.5454 0.2623 0.0
H996 H 0.57637 0.52432 0.27856 0.0
H997 H 0.55041 0.48829 0.26277 0.0
H998 H 0.47865 0.4815 0.28348 0.0
H999 H 0.48596 0.49679 0.32062 0.0
H1000 H 0.53177 0.47747 0.33022 0.0
H1001 H 0.52419 0.46215 0.29307 0.0
H1002 H 0.44019 0.43813 0.25328 0.0
H1003 H 0.4126 0.42412 0.27834 0.0
H1004 H 0.4514 0.41123 0.32034 0.0
H1005 H 0.47882 0.4243 0.29449 0.0
H1006 H 0.43686 0.42275 0.21315 0.0
H1007 H 0.40696 0.38689 0.20297 0.0
H1008 H 0.44003 0.35993 0.23402 0.0
H1009 H 0.46998 0.39591 0.24384 0.0
H1010 H 0.46688 0.46129 0.19631 0.0
H1011 H 0.45355 0.45182 0.15898 0.0
H1012 H 0.47612 0.40781 0.15387 0.0
H1013 H 0.4895 0.41749 0.19175 0.0
H1014 H 0.50003 0.49755 0.21013 0.0
H1015 H 0.51694 0.51859 0.18035 0.0
H1016 H 0.55287 0.48738 0.17336 0.0
H1017 H 0.53587 0.46636 0.20363 0.0
O1018 O 0.50367 0.50721 0.35852 0.0
O1019 O 0.52703 0.49691 0.36263 0.0
O1020 O 0.38732 0.34614 0.20152 0.0
O1021 O 0.40363 0.33147 0.21733 0.0
C1022 C 0.50993 0.47405 0.2476 0.0
C1023 C 0.49659 0.46169 0.26312 0.0
C1024 C 0.47826 0.44181 0.25683 0.0
C1025 C 0.47406 0.43363 0.23516 0.0
C1026 C 0.48693 0.44633 0.21954 0.0
C1027 C 0.50488 0.46654 0.22579 0.0
C1028 C 0.52694 0.49629 0.25405 0.0
C1029 C 0.52233 0.51261 0.25406 0.0
C1030 C 0.53714 0.53318 0.26259 0.0
C1031 C 0.55672 0.53775 0.27194 0.0
C1032 C 0.56155 0.52144 0.27134 0.0
C1033 C 0.54675 0.50085 0.26239 0.0
C1034 C 0.50084 0.47066 0.2857 0.0
C1035 C 0.49019 0.48053 0.29369 0.0
C1036 C 0.49443 0.48927 0.31488 0.0
C1037 C 0.50945 0.48834 0.3284 0.0
C1038 C 0.5201 0.47844 0.32025 0.0
C1039 C 0.51582 0.46968 0.29907 0.0
C1040 C 0.46138 0.43188 0.27183 0.0
C1041 C 0.44259 0.43178 0.26759 0.0
C1042 C 0.42696 0.42402 0.28196 0.0
C1043 C 0.43005 0.41672 0.30112 0.0
C1044 C 0.44884 0.41687 0.30559 0.0
C1045 C 0.46438 0.42423 0.29089 0.0
C1046 C 0.45576 0.41192 0.22891 0.0
C1047 C 0.43775 0.40909 0.21748 0.0
C1048 C 0.42062 0.38858 0.21181 0.0
C1049 C 0.42114 0.37052 0.21761 0.0
C1050 C 0.43914 0.37347 0.22924 0.0
C1051 C 0.45627 0.39399 0.23487 0.0
C1052 C 0.47946 0.44034 0.1966 0.0
C1053 C 0.46926 0.44984 0.18707 0.0
C1054 C 0.46168 0.44443 0.16571 0.0
C1055 C 0.46406 0.42929 0.15335 0.0
C1056 C 0.47409 0.41954 0.16299 0.0
C1057 C 0.4818 0.42508 0.18452 0.0
C1058 C 0.51695 0.48067 0.20919 0.0
C1059 C 0.51188 0.49557 0.2025 0.0
C1060 C 0.52134 0.50736 0.18532 0.0
C1061 C 0.53606 0.50444 0.17445 0.0
C1062 C 0.54163 0.48996 0.18155 0.0
C1063 C 0.53199 0.47801 0.19876 0.0
C1064 C 0.51397 0.49771 0.35088 0.0
C1065 C 0.40298 0.34869 0.21163 0.0
H1066 H 0.51692 0.00181 0.39356 0.0
H1067 H 0.37631 0.01198 0.21924 0.0
H1068 H 0.5438 0.02732 0.28708 0.0
H1069 H 0.56482 0.01425 0.30386 0.0
H1070 H 0.52929 0.95477 0.26427 0.0
H1071 H 0.50767 0.96763 0.2484 0.0
H1072 H 0.50965 0.03261 0.31149 0.0
H1073 H 0.51475 0.02581 0.34831 0.0
H1074 H 0.49178 0.95975 0.32751 0.0
H1075 H 0.4865 0.96672 0.29084 0.0
H1076 H 0.47529 0.04003 0.29091 0.0
H1077 H 0.44913 0.03625 0.31592 0.0
H1078 H 0.42146 0.9677 0.3092 0.0
H1079 H 0.44808 0.97183 0.28498 0.0
H1080 H 0.47899 0.04864 0.23798 0.0
H1081 H 0.45061 0.05492 0.22733 0.0
H1082 H 0.40477 0.98895 0.23543 0.0
H1083 H 0.43331 0.98287 0.24582 0.0
H1084 H 0.50851 0.04315 0.20714 0.0
H1085 H 0.49936 0.04236 0.16877 0.0
H1086 H 0.44694 0.97806 0.17047 0.0
H1087 H 0.45575 0.97908 0.20861 0.0
H1088 H 0.54646 0.03415 0.23415 0.0
H1089 H 0.56739 0.03162 0.20607 0.0
H1090 H 0.51216 0.97383 0.17795 0.0
H1091 H 0.49199 0.97577 0.20683 0.0
O1092 O 0.51466 0.00412 0.37891 0.0
O1093 O 0.50284 0.97035 0.36737 0.0
O1094 O 0.41203 0.04371 0.21942 0.0
O1095 O 0.38784 0.00995 0.22341 0.0
C1096 C 0.50822 0.0041 0.26054 0.0
C1097 C 0.49506 0.00451 0.27615 0.0
C1098 C 0.47867 0.00817 0.27037 0.0
C1099 C 0.47549 0.01165 0.24904 0.0
C1100 C 0.48832 0.01082 0.23336 0.0
C1101 C 0.50475 0.00708 0.23907 0.0
C1102 C 0.52416 -0.00161 0.26662 0.0
C1103 C 0.54092 0.01167 0.28169 0.0
C1104 C 0.55295 0.00417 0.29122 0.0
C1105 C 0.54854 0.98332 0.28562 0.0
C1106 C 0.53279 0.97072 0.26926 0.0
C1107 C 0.52064 0.97816 0.25992 0.0
C1108 C 0.49784 0.0002 0.29852 0.0
C1109 C 0.50567 0.01668 0.31496 0.0
C1110 C 0.5086 0.01275 0.33595 0.0
C1111 C 0.50374 0.99224 0.34085 0.0
C1112 C 0.49574 0.97573 0.32429 0.0
C1113 C 0.49275 0.97967 0.30333 0.0
C1114 C 0.46352 0.0062 0.28619 0.0
C1115 C 0.46367 0.02427 0.29508 0.0
C1116 C 0.44866 0.02203 0.30927 0.0
C1117 C 0.43314 0.00165 0.31462 0.0
C1118 C 0.43337 0.98366 0.30585 0.0
C1119 C 0.44846 0.98594 0.29185 0.0
C1120 C 0.45817 0.01537 0.24285 0.0
C1121 C 0.4628 0.03559 0.23746 0.0
C1122 C 0.44657 0.03912 0.23139 0.0
C1123 C 0.4254 0.02244 0.23058 0.0
C1124 C 0.42087 0.00216 0.23594 0.0
C1125 C 0.43712 -0.00134 0.24197 0.0
C1126 C 0.48276 0.01116 0.21054 0.0
C1127 C 0.49498 0.02901 0.19919 0.0
C1128 C 0.48977 0.02856 0.17743 0.0
C1129 C 0.47258 0.01009 0.16685 0.0
C1130 C 0.46035 0.99239 0.17834 0.0
C1131 C 0.46529 0.99298 0.20005 0.0
C1132 C 0.51763 0.00532 0.22236 0.0
C1133 C 0.53901 0.02087 0.22199 0.0
C1134 C 0.55087 0.01949 0.2058 0.0
C1135 C 0.5415 0.00258 0.18958 0.0
C1136 C 0.52008 0.98692 0.19026 0.0
C1137 C 0.50838 0.98815 0.2066 0.0
C1138 C 0.50701 0.98816 0.36313 0.0
C1139 C 0.40809 0.02609 0.22413 0.0
H1140 H 0.51108 0.02295 0.68674 0.0
H1141 H 0.61539 0.95936 0.85524 0.0
H1142 H 0.49675 0.02068 0.80235 0.0
H1143 H 0.46947 0.02593 0.78592 0.0
H1144 H 0.4255 0.95788 0.78281 0.0
H1145 H 0.45287 0.95293 0.79976 0.0
H1146 H 0.53168 0.02187 0.77725 0.0
H1147 H 0.52789 0.02853 0.74007 0.0
H1148 H 0.4771 0.96302 0.72714 0.0
H1149 H 0.48123 0.95654 0.76435 0.0
H1150 H 0.56512 0.01934 0.80774 0.0
H1151 H 0.5932 0.03014 0.78348 0.0
H1152 H 0.55455 0.97146 0.74346 0.0
H1153 H 0.52671 0.96041 0.76842 0.0
H1154 H 0.56151 0.00973 0.85282 0.0
H1155 H 0.59209 0.00825 0.86629 0.0
H1156 H 0.56861 0.94811 0.82874 0.0
H1157 H 0.53794 0.94966 0.81562 0.0
H1158 H 0.52262 0.00885 0.87224 0.0
H1159 H 0.53402 0.00951 0.90908 0.0
H1160 H 0.52774 0.94783 0.89536 0.0
H1161 H 0.51402 0.94635 0.85892 0.0
H1162 H 0.49745 0.01589 0.84845 0.0
H1163 H 0.47515 0.01845 0.87444 0.0
H1164 H 0.43901 0.94948 0.87337 0.0
H1165 H 0.46273 0.9474 0.84847 0.0
O1166 O 0.51239 0.01993 0.70135 0.0
O1167 O 0.48634 0.98613 0.69554 0.0
O1168 O 0.61475 0.99123 0.86928 0.0
O1169 O 0.60343 0.96034 0.85018 0.0
C1170 C 0.49395 0.98329 0.81015 0.0
C1171 C 0.50896 0.98478 0.79607 0.0
C1172 C 0.52653 0.9838 0.80381 0.0
C1173 C 0.52867 0.98044 0.82546 0.0
C1174 C 0.51353 0.97879 0.83964 0.0
C1175 C 0.49632 0.98054 0.83192 0.0
C1176 C 0.47672 0.98645 0.80221 0.0
C1177 C 0.48113 0.00697 0.79834 0.0
C1178 C 0.46559 0.00989 0.78877 0.0
C1179 C 0.44535 0.9923 0.78283 0.0
C1180 C 0.44085 0.97178 0.78734 0.0
C1181 C 0.45643 0.9689 0.79699 0.0
C1182 C 0.50684 0.98869 0.7734 0.0
C1183 C 0.51986 0.00896 0.76631 0.0
C1184 C 0.51761 0.01272 0.74509 0.0
C1185 C 0.5022 0.9963 0.73062 0.0
C1186 C 0.48914 0.97601 0.73785 0.0
C1187 C 0.49145 0.97226 0.75907 0.0
C1188 C 0.54398 0.98906 0.78988 0.0
C1189 C 0.56288 0.00865 0.79395 0.0
C1190 C 0.57876 0.0149 0.77992 0.0
C1191 C 0.57596 0.00176 0.76142 0.0
C1192 C 0.55718 0.98186 0.75764 0.0
C1193 C 0.54129 0.97555 0.77181 0.0
C1194 C 0.54741 0.97969 0.83342 0.0
C1195 C 0.56293 0.99619 0.84764 0.0
C1196 C 0.58042 0.99533 0.85525 0.0
C1197 C 0.58277 0.97802 0.84863 0.0
C1198 C 0.56727 0.96163 0.8342 0.0
C1199 C 0.54975 0.96248 0.82665 0.0
C1200 C 0.51713 0.97742 0.86284 0.0
C1201 C 0.52267 0.99499 0.87739 0.0
C1202 C 0.52978 0.99557 0.8984 0.0
C1203 C 0.53242 0.97898 0.90519 0.0
C1204 C 0.52586 0.96087 0.89086 0.0
C1205 C 0.51809 0.96002 0.86994 0.0
C1206 C 0.48182 0.9815 0.84689 0.0
C1207 C 0.48472 0.00137 0.85392 0.0
C1208 C 0.47173 0.00273 0.86861 0.0
C1209 C 0.4551 0.98416 0.8761 0.0
C1210 C 0.45187 0.96416 0.86838 0.0
C1211 C 0.46527 0.96287 0.85403 0.0
C1212 C 0.49977 0.00039 0.70811 0.0
C1213 C 0.6013 0.97701 0.8567 0.0
H1214 H -0.00033 0.47859 0.6897 0.0
H1215 H 0.02079 0.63569 0.88137 0.0
H1216 H 0.97357 0.46173 0.8052 0.0
H1217 H 0.96692 0.42699 0.79147 0.0
H1218 H 0.03135 0.44623 0.81054 0.0
H1219 H 0.03816 0.48178 0.82306 0.0
H1220 H 0.97753 0.48457 0.77715 0.0
H1221 H 0.98047 0.4782 0.73921 0.0
H1222 H 0.04819 0.51885 0.74867 0.0
H1223 H 0.04501 0.52506 0.78668 0.0
H1224 H 0.97135 0.51148 0.79284 0.0
H1225 H 0.95957 0.52998 0.77042 0.0
H1226 H 0.02014 0.58804 0.78385 0.0
H1227 H 0.03242 0.56857 0.8045 0.0
H1228 H 0.97464 0.53391 0.84216 0.0
H1229 H 0.97172 0.56423 0.85585 0.0
H1230 H 0.03967 0.60326 0.86414 0.0
H1231 H 0.04231 0.57282 0.85033 0.0
H1232 H 0.97678 0.50098 0.87424 0.0
H1233 H 0.97289 0.5116 0.91054 0.0
H1234 H 0.03942 0.55884 0.91755 0.0
H1235 H 0.04308 0.5481 0.88101 0.0
H1236 H 0.97606 0.46271 0.85078 0.0
H1237 H 0.97181 0.43805 0.87754 0.0
H1238 H 0.03691 0.47963 0.90092 0.0
H1239 H 0.04118 0.50401 0.87351 0.0
O1240 O -0.00113 0.48135 0.70479 0.0
O1241 O 0.03361 0.50241 0.71049 0.0
O1242 O 0.98662 0.60279 0.87108 0.0
O1243 O 0.02148 0.62349 0.87578 0.0
C1244 C 0.00991 0.49542 0.8225 0.0
C1245 C 0.00959 0.50922 0.80779 0.0
C1246 C 0.00877 0.52732 0.81518 0.0
C1247 C 0.01033 0.53272 0.83736 0.0
C1248 C 0.01157 0.51942 0.8521 0.0
C1249 C 0.01085 0.50049 0.84469 0.0
C1250 C 0.00645 0.47438 0.81457 0.0
C1251 C 0.98635 0.45857 0.80604 0.0
C1252 C 0.9825 0.43856 0.79859 0.0
C1253 C -0.00144 0.4337 0.80003 0.0
C1254 C 0.0187 0.44953 0.80896 0.0
C1255 C 0.02262 0.46977 0.81618 0.0
C1256 C 0.01107 0.50526 0.78468 0.0
C1257 C 0.99299 0.49208 0.77104 0.0
C1258 C 0.99472 0.48847 0.74934 0.0
C1259 C 0.01457 0.498 0.7409 0.0
C1260 C 0.03266 0.51125 0.75465 0.0
C1261 C 0.03089 0.51483 0.77635 0.0
C1262 C 0.00286 0.53855 0.79997 0.0
C1263 C 0.98234 0.52798 0.79024 0.0
C1264 C 0.97548 0.53877 0.7778 0.0
C1265 C 0.98875 0.56066 0.77546 0.0
C1266 C 0.00952 0.57114 0.78495 0.0
C1267 C 0.01656 0.56011 0.79694 0.0
C1268 C 0.00867 0.55125 0.84526 0.0
C1269 C 0.98885 0.54906 0.84688 0.0
C1270 C 0.98724 0.56638 0.85473 0.0
C1271 C 0.00548 0.58617 0.86111 0.0
C1272 C 0.02532 0.58826 0.85938 0.0
C1273 C 0.02689 0.57093 0.8515 0.0
C1274 C 0.0102 0.52377 0.8751 0.0
C1275 C 0.99058 0.51328 0.88382 0.0
C1276 C 0.98842 0.51935 0.90455 0.0
C1277 C 0.00584 0.53612 0.91687 0.0
C1278 C 0.02568 0.54603 0.90834 0.0
C1279 C 0.02784 0.53985 0.88759 0.0
C1280 C 0.00896 0.48504 0.86012 0.0
C1281 C 0.98951 0.46629 0.86141 0.0
C1282 C 0.98707 0.45234 0.87683 0.0
C1283 C 0.004 0.45696 0.89143 0.0
C1284 C 0.02365 0.47553 0.88977 0.0
C1285 C 0.02609 0.48951 0.87424 0.0
C1286 C 0.01635 0.49411 0.71784 0.0
C1287 C 0.00387 0.60459 0.8696 0.0
H1288 H 0.46631 0.51655 0.67896 0.0
H1289 H 0.65689 0.64321 0.83723 0.0
H1290 H 0.46228 0.51535 0.79356 0.0
H1291 H 0.43144 0.4802 0.78164 0.0
H1292 H 0.46565 0.45 0.80168 0.0
H1293 H 0.49631 0.48492 0.81292 0.0
H1294 H 0.50162 0.55584 0.76542 0.0
H1295 H 0.48654 0.54473 0.72844 0.0
H1296 H 0.48906 0.48713 0.73132 0.0
H1297 H 0.50441 0.49857 0.76816 0.0
H1298 H 0.55409 0.59292 0.78301 0.0
H1299 H 0.58274 0.60716 0.7591 0.0
H1300 H 0.5728 0.54385 0.74595 0.0
H1301 H 0.54566 0.53029 0.77121 0.0
H1302 H 0.55253 0.59932 0.83528 0.0
H1303 H 0.58797 0.63021 0.84391 0.0
H1304 H 0.61462 0.59303 0.82051 0.0
H1305 H 0.57911 0.56222 0.81219 0.0
H1306 H 0.51875 0.56671 0.86759 0.0
H1307 H 0.53276 0.57451 0.90507 0.0
H1308 H 0.57549 0.55284 0.88924 0.0
H1309 H 0.56096 0.54452 0.85211 0.0
H1310 H 0.47616 0.52897 0.84907 0.0
H1311 H 0.45813 0.50843 0.87897 0.0
H1312 H 0.49914 0.48245 0.87996 0.0
H1313 H 0.51758 0.50384 0.85089 0.0
O1314 O 0.47236 0.52068 0.69357 0.0
O1315 O 0.47393 0.49128 0.69591 0.0
O1316 O 0.62819 0.64963 0.84589 0.0
O1317 O 0.64269 0.63124 0.83399 0.0
C1318 C 0.50105 0.52358 0.80899 0.0
C1319 C 0.51286 0.53483 0.79206 0.0
C1320 C 0.53353 0.55246 0.79649 0.0
C1321 C 0.54169 0.55995 0.81794 0.0
C1322 C 0.52961 0.54906 0.83482 0.0
C1323 C 0.5095 0.53068 0.83031 0.0
C1324 C 0.48143 0.50262 0.80421 0.0
C1325 C 0.4629 0.50107 0.79564 0.0
C1326 C 0.44536 0.48105 0.78891 0.0
C1327 C 0.44626 0.46243 0.79058 0.0
C1328 C 0.46461 0.4641 0.79994 0.0
C1329 C 0.48203 0.48399 0.80661 0.0
C1330 C 0.50385 0.5279 0.76956 0.0
C1331 C 0.49891 0.54084 0.75802 0.0
C1332 C 0.49027 0.53444 0.73691 0.0
C1333 C 0.4865 0.51499 0.72695 0.0
C1334 C 0.49167 0.50215 0.73854 0.0
C1335 C 0.50034 0.50859 0.75962 0.0
C1336 C 0.54783 0.56059 0.77893 0.0
C1337 C 0.558 0.58215 0.77476 0.0
C1338 C 0.57428 0.5902 0.76096 0.0
C1339 C 0.58033 0.5767 0.75081 0.0
C1340 C 0.56899 0.55483 0.75391 0.0
C1341 C 0.55314 0.54694 0.76805 0.0
C1342 C 0.56328 0.57864 0.82292 0.0
C1343 C 0.56606 0.59791 0.83202 0.0
C1344 C 0.58631 0.61551 0.83692 0.0
C1345 C 0.60414 0.6141 0.83283 0.0
C1346 C 0.60125 0.59468 0.82381 0.0
C1347 C 0.58099 0.57708 0.81897 0.0
C1348 C 0.53899 0.55524 0.85717 0.0
C1349 C 0.53121 0.56379 0.87228 0.0
C1350 C 0.53927 0.56827 0.89361 0.0
C1351 C 0.55518 0.56421 0.90011 0.0
C1352 C 0.56304 0.55585 0.8848 0.0
C1353 C 0.55496 0.55135 0.86355 0.0
C1354 C 0.4981 0.51782 0.84792 0.0
C1355 C 0.48118 0.51883 0.85585 0.0
C1356 C 0.47087 0.50701 0.87283 0.0
C1357 C 0.47719 0.49377 0.88193 0.0
C1358 C 0.49411 0.49276 0.87369 0.0
C1359 C 0.50455 0.50479 0.85695 0.0
C1360 C 0.47723 0.5082 0.70456 0.0
C1361 C 0.62568 0.63276 0.83799 0.0
H1362 H 0.61783 0.82727 0.71375 0.0
H1363 H 0.66263 0.70023 0.54018 0.0
H1364 H 0.61353 0.83808 0.59577 0.0
H1365 H 0.62423 0.87451 0.61014 0.0
H1366 H 0.68917 0.8947 0.60092 0.0
H1367 H 0.67848 0.85852 0.58725 0.0
H1368 H 0.60664 0.79217 0.62514 0.0
H1369 H 0.60524 0.80209 0.66261 0.0
H1370 H 0.67021 0.85331 0.66406 0.0
H1371 H 0.67149 0.84302 0.62675 0.0
H1372 H 0.61976 0.75148 0.60853 0.0
H1373 H 0.63648 0.73573 0.62862 0.0
H1374 H 0.69328 0.7979 0.63951 0.0
H1375 H 0.67741 0.81263 0.6171 0.0
H1376 H 0.60483 0.74336 0.56567 0.0
H1377 H 0.60691 0.71189 0.55471 0.0
H1378 H 0.67472 0.75162 0.55561 0.0
H1379 H 0.67235 0.78294 0.56651 0.0
H1380 H 0.6026 0.76393 0.53273 0.0
H1381 H 0.6035 0.74732 0.49834 0.0
H1382 H 0.66857 0.79726 0.49534 0.0
H1383 H 0.66797 0.81227 0.53063 0.0
H1384 H 0.60753 0.81699 0.53711 0.0
H1385 H 0.61256 0.84031 0.50834 0.0
H1386 H 0.68002 0.87198 0.52186 0.0
H1387 H 0.67481 0.84812 0.54962 0.0
O1388 O 0.61876 0.82357 0.69896 0.0
O1389 O 0.65216 0.84973 0.69884 0.0
O1390 O 0.62646 0.69265 0.54448 0.0
O1391 O 0.66135 0.71238 0.54461 0.0
C1392 C 0.63973 0.82368 0.58414 0.0
C1393 C 0.63939 0.81081 0.60028 0.0
C1394 C 0.63963 0.79199 0.59476 0.0
C1395 C 0.63711 0.78448 0.573 0.0
C1396 C 0.63588 0.79659 0.55683 0.0
C1397 C 0.63813 0.81664 0.5624 0.0
C1398 C 0.64523 0.84583 0.59023 0.0
C1399 C 0.62998 0.85053 0.59655 0.0
C1400 C 0.63611 0.87125 0.60472 0.0
C1401 C 0.65754 0.88732 0.60679 0.0
C1402 C 0.67258 0.88257 0.59975 0.0
C1403 C 0.66648 0.86202 0.59163 0.0
C1404 C 0.63904 0.81706 0.6231 0.0
C1405 C 0.62055 0.80553 0.63358 0.0
C1406 C 0.61979 0.81125 0.65498 0.0
C1407 C 0.63758 0.82857 0.6663 0.0
C1408 C 0.65618 0.83997 0.65578 0.0
C1409 C 0.65691 0.8342 0.6344 0.0
C1410 C 0.6474 0.78315 0.61107 0.0
C1411 C 0.6358 0.76164 0.61532 0.0
C1412 C 0.64536 0.75274 0.62709 0.0
C1413 C 0.6665 0.76542 0.63543 0.0
C1414 C 0.67729 0.7874 0.63277 0.0
C1415 C 0.66803 0.79603 0.62034 0.0
C1416 C 0.63844 0.76534 0.56691 0.0
C1417 C 0.6201 0.74518 0.56352 0.0
C1418 C 0.62135 0.72726 0.55726 0.0
C1419 C 0.641 0.72924 0.55428 0.0
C1420 C 0.65935 0.74953 0.55776 0.0
C1421 C 0.65806 0.76743 0.56401 0.0
C1422 C 0.63518 0.78934 0.53413 0.0
C1423 C 0.61694 0.77137 0.52445 0.0
C1424 C 0.61748 0.76198 0.50469 0.0
C1425 C 0.63621 0.77072 0.49405 0.0
C1426 C 0.65402 0.78966 0.50324 0.0
C1427 C 0.65361 0.79862 0.52325 0.0
C1428 C 0.6408 0.83107 0.54556 0.0
C1429 C 0.62334 0.82904 0.5338 0.0
C1430 C 0.62626 0.84242 0.5175 0.0
C1431 C 0.64671 0.85798 0.51276 0.0
C1432 C 0.66408 0.86 0.52483 0.0
C1433 C 0.66114 0.84658 0.54093 0.0
C1434 C 0.63669 0.83466 0.689 0.0
C1435 C 0.64241 0.71028 0.5475 0.0
H1436 H 0.16052 0.82437 0.7127 0.0
H1437 H 0.06764 0.6523 0.527 0.0
H1438 H 0.17234 0.83554 0.59165 0.0
H1439 H 0.1938 0.87101 0.60993 0.0
H1440 H 0.24415 0.85849 0.62232 0.0
H1441 H 0.22258 0.82296 0.60292 0.0
H1442 H 0.14414 0.80495 0.62001 0.0
H1443 H 0.14648 0.8147 0.65833 0.0
H1444 H 0.19442 0.79836 0.6687 0.0
H1445 H 0.19178 0.78851 0.63034 0.0
H1446 H 0.11325 0.77083 0.5827 0.0
H1447 H 0.08242 0.75576 0.60343 0.0
H1448 H 0.11143 0.73139 0.64517 0.0
H1449 H 0.14227 0.7461 0.62366 0.0
H1450 H 0.1139 0.75823 0.54249 0.0
H1451 H 0.08498 0.72408 0.52619 0.0
H1452 H 0.11319 0.69159 0.55563 0.0
H1453 H 0.14221 0.72593 0.57161 0.0
H1454 H 0.14876 0.7998 0.53106 0.0
H1455 H 0.13591 0.79164 0.49373 0.0
H1456 H 0.15349 0.74364 0.48817 0.0
H1457 H 0.16618 0.75189 0.52618 0.0
H1458 H 0.17987 0.83492 0.55303 0.0
H1459 H 0.20011 0.85899 0.52643 0.0
H1460 H 0.23183 0.82391 0.51552 0.0
H1461 H 0.2117 0.8 0.5428 0.0
O1462 O 0.15981 0.82037 0.6976 0.0
O1463 O 0.18443 0.8118 0.70206 0.0
O1464 O 0.0651 0.68352 0.5184 0.0
O1465 O 0.0789 0.66603 0.53324 0.0
C1466 C 0.18161 0.80473 0.58642 0.0
C1467 C 0.16638 0.79004 0.59925 0.0
C1468 C 0.14913 0.77076 0.58973 0.0
C1469 C 0.14813 0.76529 0.56766 0.0
C1470 C 0.16331 0.77998 0.55476 0.0
C1471 C 0.18011 0.79973 0.56415 0.0
C1472 C 0.19603 0.82685 0.59578 0.0
C1473 C 0.18818 0.84062 0.59793 0.0
C1474 C 0.20037 0.86077 0.60865 0.0
C1475 C 0.22058 0.86747 0.6179 0.0
C1476 C 0.22869 0.85383 0.61526 0.0
C1477 C 0.21644 0.83358 0.60424 0.0
C1478 C 0.16764 0.79582 0.6225 0.0
C1479 C 0.15502 0.80336 0.63063 0.0
C1480 C 0.15645 0.80897 0.6525 0.0
C1481 C 0.17061 0.80726 0.66659 0.0
C1482 C 0.18332 0.79982 0.6583 0.0
C1483 C 0.18184 0.79417 0.63643 0.0
C1484 C 0.12987 0.75931 0.60149 0.0
C1485 C 0.11279 0.76181 0.59601 0.0
C1486 C 0.09532 0.75348 0.60808 0.0
C1487 C 0.09462 0.74264 0.6261 0.0
C1488 C 0.11152 0.73961 0.63131 0.0
C1489 C 0.1291 0.74796 0.61909 0.0
C1490 C 0.13032 0.74457 0.55796 0.0
C1491 C 0.11392 0.74375 0.54523 0.0
C1492 C 0.09736 0.7242 0.53602 0.0
C1493 C 0.09682 0.70509 0.53953 0.0
C1494 C 0.11316 0.70599 0.55253 0.0
C1495 C 0.12974 0.72557 0.5617 0.0
C1496 C 0.15875 0.77672 0.53123 0.0
C1497 C 0.1505 0.78801 0.52164 0.0
C1498 C 0.14312 0.78327 0.50023 0.0
C1499 C 0.1438 0.76707 0.48782 0.0
C1500 C 0.15266 0.75613 0.49731 0.0
C1501 C 0.16007 0.76092 0.51891 0.0
C1502 C 0.19458 0.81594 0.55017 0.0
C1503 C 0.19169 0.83284 0.54551 0.0
C1504 C 0.20305 0.84638 0.53006 0.0
C1505 C 0.21742 0.84321 0.51881 0.0
C1506 C 0.22096 0.8268 0.52408 0.0
C1507 C 0.2095 0.81316 0.53959 0.0
C1508 C 0.1721 0.81326 0.68982 0.0
C1509 C 0.07929 0.68429 0.52972 0.0
H1510 H 0.22472 0.38306 0.72543 0.0
H1511 H 0.04752 0.3451 0.56457 0.0
H1512 H 0.23366 0.38954 0.61413 0.0
H1513 H 0.25717 0.37769 0.62752 0.0
H1514 H 0.21482 0.31469 0.5963 0.0
H1515 H 0.19217 0.32695 0.58247 0.0
H1516 H 0.19676 0.39578 0.64218 0.0
H1517 H 0.20958 0.39642 0.67883 0.0
H1518 H 0.19686 0.33209 0.6656 0.0
H1519 H 0.18372 0.33152 0.62918 0.0
H1520 H 0.14484 0.38468 0.62401 0.0
H1521 H 0.1149 0.37013 0.64625 0.0
H1522 H 0.11839 0.31306 0.64997 0.0
H1523 H 0.14619 0.32653 0.62567 0.0
H1524 H 0.15265 0.39822 0.57475 0.0
H1525 H 0.11985 0.39784 0.5668 0.0
H1526 H 0.08422 0.33081 0.57746 0.0
H1527 H 0.11713 0.33137 0.58516 0.0
H1528 H 0.1855 0.39868 0.54152 0.0
H1529 H 0.17263 0.39691 0.50426 0.0
H1530 H 0.12408 0.33119 0.50849 0.0
H1531 H 0.13681 0.33308 0.54542 0.0
H1532 H 0.22869 0.39342 0.56358 0.0
H1533 H 0.24785 0.39012 0.53407 0.0
H1534 H 0.19201 0.33058 0.5104 0.0
H1535 H 0.17385 0.3332 0.5408 0.0
O1536 O 0.21939 0.38238 0.71094 0.0
O1537 O 0.21285 0.34942 0.70321 0.0
O1538 O 0.07978 0.38014 0.56221 0.0
O1539 O 0.06073 0.34569 0.56759 0.0
C1540 C 0.19448 0.36418 0.59342 0.0
C1541 C 0.18241 0.3639 0.61053 0.0
C1542 C 0.16322 0.36329 0.60638 0.0
C1543 C 0.15724 0.36525 0.58536 0.0
C1544 C 0.16977 0.3665 0.56839 0.0
C1545 C 0.18812 0.3654 0.57231 0.0
C1546 C 0.21125 0.3591 0.59733 0.0
C1547 C 0.22994 0.37342 0.60964 0.0
C1548 C 0.24317 0.3665 0.6175 0.0
C1549 C 0.23778 0.34511 0.6133 0.0
C1550 C 0.21973 0.33132 0.5997 0.0
C1551 C 0.20669 0.3383 0.59172 0.0
C1552 C 0.18958 0.36374 0.63292 0.0
C1553 C 0.19669 0.38183 0.64726 0.0
C1554 C 0.20405 0.38215 0.66817 0.0
C1555 C 0.20436 0.36435 0.67511 0.0
C1556 C 0.19693 0.34612 0.66075 0.0
C1557 C 0.18951 0.34579 0.63989 0.0
C1558 C 0.14776 0.35669 0.62309 0.0
C1559 C 0.13911 0.36906 0.62971 0.0
C1560 C 0.12208 0.36075 0.64265 0.0
C1561 C 0.11382 0.34016 0.64975 0.0
C1562 C 0.12369 0.32862 0.64432 0.0
C1563 C 0.14006 0.33656 0.63079 0.0
C1564 C 0.13724 0.36489 0.58072 0.0
C1565 C 0.13773 0.38348 0.57537 0.0
C1566 C 0.11898 0.38322 0.57084 0.0
C1567 C 0.0994 0.36429 0.57156 0.0
C1568 C 0.09901 0.34565 0.57682 0.0
C1569 C 0.11777 0.34593 0.58128 0.0
C1570 C 0.16205 0.36601 0.54611 0.0
C1571 C 0.17204 0.38398 0.53435 0.0
C1572 C 0.16467 0.38298 0.5132 0.0
C1573 C 0.14749 0.36387 0.50355 0.0
C1574 C 0.13749 0.34603 0.5155 0.0
C1575 C 0.14464 0.34712 0.53659 0.0
C1576 C 0.19973 0.36375 0.55415 0.0
C1577 C 0.22071 0.37964 0.55203 0.0
C1578 C 0.23156 0.37779 0.53503 0.0
C1579 C 0.22155 0.36008 0.5197 0.0
C1580 C 0.20047 0.34426 0.52199 0.0
C1581 C 0.18985 0.34592 0.53918 0.0
C1582 C 0.21242 0.36485 0.69724 0.0
C1583 C 0.07944 0.36394 0.56683 0.0
H1584 H 0.97898 0.37833 0.08524 0.0
H1585 H 0.03578 0.43186 0.06539 0.0
H1586 H 0.03387 0.45549 0.09292 0.0
H1587 H 0.01693 0.46078 0.12341 0.0
H1588 H 0.96123 0.40706 0.14468 0.0
H1589 H 0.96147 0.38387 0.11538 0.0
C1590 C 0.99091 0.39517 0.08692 0.0
C1591 C 0.00757 0.40328 0.07337 0.0
C1592 C 0.98981 0.4087 0.10289 0.0
C1593 C 0.02286 0.42516 0.07569 0.0
C1594 C 0.02176 0.43872 0.09139 0.0
C1595 C 0.00483 0.44399 0.12166 0.0
C1596 C 0.98915 0.43569 0.1363 0.0
C1597 C 0.00543 0.43062 0.1052 0.0
C1598 C 0.97335 0.41398 0.1335 0.0
C1599 C 0.97361 0.40063 0.11689 0.0
H1600 H 0.55861 0.55736 0.0941 0.0
H1601 H 0.62178 0.57659 0.11775 0.0
H1602 H 0.60767 0.55163 0.14558 0.0
H1603 H 0.57724 0.52667 0.16508 0.0
H1604 H 0.51443 0.50829 0.14102 0.0
H1605 H 0.52857 0.53063 0.11142 0.0
C1606 C 0.56935 0.55603 0.10524 0.0
C1607 C 0.59121 0.56902 0.10404 0.0
C1608 C 0.56117 0.54191 0.12122 0.0
C1609 C 0.60486 0.56682 0.11838 0.0
C1610 C 0.59681 0.55262 0.13434 0.0
C1611 C 0.5667 0.52736 0.15315 0.0
C1612 C 0.54487 0.51617 0.15538 0.0
C1613 C 0.57498 0.54042 0.1362 0.0
C1614 C 0.53133 0.51713 0.13985 0.0
C1615 C 0.53938 0.52983 0.1229 0.0
H1616 H 0.43851 0.982 0.0711 0.0
H1617 H 0.42459 0.03226 0.0812 0.0
H1618 H 0.44361 0.04247 0.11651 0.0
H1619 H 0.4605 0.03419 0.1462 0.0
H1620 H 0.47209 0.98242 0.1363 0.0
H1621 H 0.45783 0.9758 0.09914 0.0
C1622 C 0.43982 0.99538 0.08086 0.0
C1623 C 0.42986 0.00614 0.07359 0.0
C1624 C 0.45028 0.0008 0.10127 0.0
C1625 C 0.43197 0.02359 0.08642 0.0
C1626 C 0.44279 0.0294 0.10667 0.0
C1627 C 0.46027 0.0218 0.13567 0.0
C1628 C 0.46721 0.00874 0.14377 0.0
C1629 C 0.45146 0.0177 0.11451 0.0
C1630 C 0.46672 0.99256 0.13025 0.0
C1631 C 0.45853 0.98876 0.10909 0.0
H1632 H 0.40993 0.00997 0.94459 0.0
H1633 H 0.40078 0.9527 0.97054 0.0
H1634 H 0.41769 0.94625 0.94058 0.0
H1635 H 0.43728 0.9585 0.90861 0.0
H1636 H 0.44279 0.0137 0.88059 0.0
H1637 H 0.42526 0.01947 0.90996 0.0
C1638 C 0.41155 0.99601 0.94353 0.0
C1639 C 0.40446 0.98194 0.95971 0.0
C1640 C 0.42078 0.99217 0.92608 0.0
C1641 C 0.40621 0.96371 0.95816 0.0
C1642 C 0.41591 0.96009 0.94111 0.0
C1643 C 0.43425 0.97151 0.90853 0.0
C1644 C 0.4419 0.98591 0.89252 0.0
C1645 C 0.42352 0.97439 0.92513 0.0
C1646 C 0.43783 0.00276 0.89301 0.0
C1647 C 0.42762 0.006 0.90973 0.0
H1648 H 0.97601 0.39913 0.96849 0.0
H1649 H 0.0348 0.40165 0.95987 0.0
H1650 H 0.04092 0.4238 0.92991 0.0
H1651 H 0.02958 0.44287 0.90647 0.0
H1652 H 0.97089 0.4402 0.91632 0.0
H1653 H 0.96473 0.41756 0.94547 0.0
C1654 C 0.9902 0.40443 0.96011 0.0
C1655 C 0.00494 0.39874 0.96651 0.0
C1656 C 0.99362 0.41715 0.94307 0.0
C1657 C 0.02317 0.40577 0.9553 0.0
C1658 C 0.02669 0.41847 0.9382 0.0
C1659 C 0.0155 0.43738 0.91508 0.0
C1660 C 0.00064 0.4431 0.9091 0.0
C1661 C 0.01206 0.42437 0.93201 0.0
C1662 C 0.9824 0.43574 0.92031 0.0
C1663 C 0.97891 0.42289 0.93709 0.0
H1664 H 0.59474 0.57137 0.99298 0.0
H1665 H 0.59569 0.63096 0.99665 0.0
H1666 H 0.57883 0.62253 0.96046 0.0
H1667 H 0.56525 0.59893 0.9272 0.0
H1668 H 0.56397 0.53918 0.92384 0.0
H1669 H 0.57968 0.54708 0.96045 0.0
C1670 C 0.59118 0.58248 0.98591 0.0
C1671 C 0.59655 0.6018 -0.00256 0.0
C1672 C 0.58155 0.57757 0.9651 0.0
C1673 C 0.59175 0.61599 0.98809 0.0
C1674 C 0.58213 0.6112 0.96738 0.0
C1675 C 0.56816 0.58752 0.93459 0.0
C1676 C 0.56362 0.56859 0.92276 0.0
C1677 C 0.57714 0.59213 0.95567 0.0
C1678 C 0.56768 0.55405 0.93248 0.0
C1679 C 0.57655 0.55849 0.95344 0.0
H1680 H 0.97716 0.55564 0.00415 0.0
H1681 H 0.01709 0.62036 0.98776 0.0
H1682 H 0.02678 0.60733 0.95614 0.0
H1683 H 0.02216 0.57746 0.932 0.0
H1684 H 0.98246 0.51282 0.94859 0.0
H1685 H 0.97439 0.52597 0.98131 0.0
C1686 C 0.98805 0.56693 0.99372 0.0
C1687 C 0.99623 0.58893 -0.00176 0.0
C1688 C 0.99354 0.55935 0.97558 0.0
C1689 C 0.0105 0.60333 0.98466 0.0
C1690 C 0.01604 0.59589 0.96654 0.0
C1691 C 0.01209 0.56626 0.94299 0.0
C1692 C 0.00286 0.54419 0.93784 0.0
C1693 C 0.00746 0.57393 0.96172 0.0
C1694 C 0.98956 0.52988 0.95208 0.0
C1695 C 0.98497 0.53738 0.97079 0.0
H1696 H 0.44307 0.43854 0.96083 0.0
H1697 H 0.38422 0.4286 0.93322 0.0
H1698 H 0.40257 0.45143 0.90489 0.0
H1699 H 0.43512 0.47324 0.88746 0.0
H1700 H 0.49432 0.48523 0.9166 0.0
H1701 H 0.47594 0.46229 0.94469 0.0
C1702 C 0.43428 0.44139 0.94859 0.0
C1703 C 0.41235 0.43182 0.94897 0.0
C1704 C 0.44495 0.45478 0.93259 0.0
C1705 C 0.40115 0.43582 0.93323 0.0
C1706 C 0.41161 0.44883 0.91702 0.0
C1707 C 0.44409 0.47116 0.90012 0.0
C1708 C 0.46607 0.48082 0.89972 0.0
C1709 C 0.4335 0.45832 0.91651 0.0
C1710 C 0.47734 0.47763 0.91617 0.0
C1711 C 0.46687 0.46463 0.93236 0.0
H1712 H 0.57262 0.97655 0.99549 0.0
H1713 H 0.60905 0.04419 0.98853 0.0
H1714 H 0.59078 0.03891 0.95375 0.0
H1715 H 0.56489 0.01548 0.92538 0.0
H1716 H 0.52551 0.94814 0.93277 0.0
H1717 H 0.54481 0.95282 0.96702 0.0
C1718 C 0.57651 0.99004 0.98627 0.0
C1719 C 0.59213 0.01072 0.99455 0.0
C1720 C 0.56549 0.98697 0.96636 0.0
C1721 C 0.59696 0.02814 0.98257 0.0
C1722 C 0.58657 0.02515 0.96265 0.0
C1723 C 0.56006 0.0018 0.93459 0.0
C1724 C 0.54352 0.98152 0.92644 0.0
C1725 C 0.57075 0.00469 0.95447 0.0
C1726 C 0.53825 0.96395 0.93846 0.0
C1727 C 0.54921 0.96663 0.95815 0.0
H1728 H 0.58151 0.9811 0.11196 0.0
H1729 H 0.61716 0.04975 0.11272 0.0
H1730 H 0.59914 0.05259 0.14356 0.0
H1731 H 0.57226 0.0354 0.16935 0.0
H1732 H 0.53858 0.96672 0.16987 0.0
H1733 H 0.55665 0.96411 0.1393 0.0
C1734 C 0.58535 0.99669 0.11889 0.0
C1735 C 0.60049 0.01518 0.10999 0.0
C1736 C 0.57518 0.9982 0.13675 0.0
C1737 C 0.60554 0.03528 0.11931 0.0
C1738 C 0.59521 0.0369 0.1369 0.0
C1739 C 0.56909 0.01986 0.16306 0.0
C1740 C 0.55378 0.00128 0.17185 0.0
C1741 C 0.5799 0.01845 0.14568 0.0
C1742 C 0.54982 0.9813 0.16319 0.0
C1743 C 0.56028 0.97976 0.14576 0.0
H1744 H 0.96168 0.57853 0.10638 0.0
H1745 H 0.02922 0.62029 0.11219 0.0
H1746 H 0.0322 0.60016 0.14043 0.0
H1747 H 0.01593 0.57002 0.16239 0.0
H1748 H 0.9487 0.5263 0.15497 0.0
H1749 H 0.94525 0.54808 0.12881 0.0
C1750 C 0.97699 0.58331 0.11404 0.0
C1751 C 0.99521 0.60085 0.10725 0.0
C1752 C 0.97866 0.5713 0.12993 0.0
C1753 C 0.01498 0.60678 0.1171 0.0
C1754 C 0.01671 0.59528 0.13323 0.0
C1755 C 0.00052 0.56506 0.15492 0.0
C1756 C 0.98265 0.5464 0.16057 0.0
C1757 C -0.0013 0.57733 0.13952 0.0
C1758 C 0.96274 0.54065 0.1511 0.0
C1759 C 0.96075 0.55304 0.13601 0.0
H1760 H 0.41258 0.39087 0.06385 0.0
H1761 H 0.43701 0.45785 0.05728 0.0
H1762 H 0.4578 0.46709 0.09124 0.0
H1763 H 0.46713 0.45627 0.12392 0.0
H1764 H 0.44155 0.38945 0.13196 0.0
H1765 H 0.42363 0.38008 0.0961 0.0
C1766 C 0.42262 0.40749 0.06975 0.0
C1767 C 0.42304 0.42361 0.0581 0.0
C1768 C 0.43436 0.41274 0.08955 0.0
C1769 C 0.43617 0.44508 0.06599 0.0
C1770 C 0.44811 0.45042 0.08541 0.0
C1771 C 0.45765 0.43964 0.11782 0.0
C1772 C 0.45546 0.42358 0.13069 0.0
C1773 C 0.44698 0.43438 0.09752 0.0
C1774 C 0.44356 0.40214 0.12235 0.0
C1775 C 0.43316 0.39676 0.10192 0.0
H1776 H 0.6279 0.71566 0.40879 0.0
H1777 H 0.69334 0.74015 0.42771 0.0
H1778 H 0.69084 0.7592 0.4596 0.0
H1779 H 0.67003 0.76831 0.48216 0.0
H1780 H 0.60555 0.7472 0.46148 0.0
H1781 H 0.6076 0.72704 0.43039 0.0
C1782 C 0.64154 0.72513 0.41999 0.0
C1783 C 0.66072 0.72643 0.41613 0.0
C1784 C 0.64016 0.73656 0.43792 0.0
C1785 C 0.67843 0.73898 0.43045 0.0
C1786 C 0.677 0.74983 0.44865 0.0
C1787 C 0.6565 0.75977 0.47068 0.0
C1788 C 0.63766 0.75939 0.47432 0.0
C1789 C 0.65796 0.74877 0.4525 0.0
C1790 C 0.62018 0.74758 0.45941 0.0
C1791 C 0.62136 0.73612 0.4415 0.0
H1792 H 0.27123 0.90304 0.44833 0.0
H1793 H 0.2094 0.89012 0.4268 0.0
H1794 H 0.19398 0.86695 0.45531 0.0
H1795 H 0.1978 0.85117 0.48698 0.0
H1796 H 0.25895 0.86345 0.5095 0.0
H1797 H 0.27482 0.88576 0.47986 0.0
C1798 C 0.25438 0.89505 0.44982 0.0
C1799 C 0.24158 0.89854 0.43546 0.0
C1800 C 0.24546 0.88165 0.46645 0.0
C1801 C 0.21974 0.88796 0.43764 0.0
C1802 C 0.21083 0.87464 0.45397 0.0
C1803 C 0.21464 0.85885 0.48549 0.0
C1804 C 0.22725 0.85599 0.50054 0.0
C1805 C 0.22355 0.87159 0.46859 0.0
C1806 C 0.24894 0.86551 0.49809 0.0
C1807 C 0.258 0.8783 0.48121 0.0
H1808 H 0.10371 0.36028 0.41416 0.0
H1809 H 0.10892 0.30428 0.40397 0.0
H1810 H 0.1284 0.31258 0.43849 0.0
H1811 H 0.14146 0.33385 0.47281 0.0
H1812 H 0.13653 0.38972 0.48395 0.0
H1813 H 0.11977 0.38359 0.44776 0.0
C1814 C 0.10932 0.35004 0.41939 0.0
C1815 C 0.10455 0.33151 0.40653 0.0
C1816 C 0.1205 0.35482 0.43948 0.0
C1817 C 0.11209 0.31851 0.41355 0.0
C1818 C 0.12327 0.32322 0.43334 0.0
C1819 C 0.13684 0.34475 0.46721 0.0
C1820 C 0.13993 0.36202 0.48098 0.0
C1821 C 0.12713 0.34102 0.44661 0.0
C1822 C 0.13426 0.3763 0.47353 0.0
C1823 C 0.12458 0.37272 0.45293 0.0
H1824 H 0.11273 0.34233 0.29117 0.0
H1825 H 0.05703 0.27943 0.28534 0.0
H1826 H 0.06716 0.27143 0.25108 0.0
H1827 H 0.09165 0.28251 0.22255 0.0
H1828 H 0.14763 0.34522 0.22895 0.0
H1829 H 0.13734 0.3532 0.26301 0.0
C1830 C 0.10285 0.32684 0.28245 0.0
C1831 C 0.08419 0.31151 0.29079 0.0
C1832 C 0.10868 0.32238 0.26275 0.0
C1833 C 0.07151 0.29152 0.27927 0.0
C1834 C 0.07725 0.28694 0.25966 0.0
C1835 C 0.10162 0.29787 0.23145 0.0
C1836 C 0.12026 0.3133 0.22311 0.0
C1837 C 0.09577 0.30228 0.25121 0.0
C1838 C 0.13295 0.33322 0.23477 0.0
C1839 C 0.1272 0.33774 0.25436 0.0
H1840 H 0.64948 0.75004 0.31172 0.0
H1841 H 0.69778 0.73522 0.29941 0.0
H1842 H 0.7098 0.75988 0.27118 0.0
H1843 H 0.7058 0.78503 0.24931 0.0
H1844 H 0.65715 0.79913 0.26228 0.0
H1845 H 0.64607 0.77533 0.29098 0.0
C1846 C 0.66266 0.75213 0.30293 0.0
C1847 C 0.67263 0.74067 0.30767 0.0
C1848 C 0.66941 0.76622 0.28679 0.0
C1849 C 0.68976 0.74378 0.29609 0.0
C1850 C 0.69665 0.75789 0.27994 0.0
C1851 C 0.69291 0.78299 0.25858 0.0
C1852 C 0.68218 0.79367 0.25356 0.0
C1853 C 0.68651 0.76913 0.27508 0.0
C1854 C 0.66543 0.79083 0.26561 0.0
C1855 C 0.65913 0.77728 0.28207 0.0
H1856 H 0.23355 0.9347 0.32916 0.0
H1857 H 0.26645 0.90114 0.3168 0.0
H1858 H 0.24873 0.88884 0.28086 0.0
H1859 H 0.22525 0.8891 0.25265 0.0
H1860 H 0.1899 0.92003 0.26616 0.0
H1861 H 0.20764 0.93229 0.30188 0.0
C1862 C 0.23677 0.92464 0.31859 0.0
C1863 C 0.25138 0.91895 0.32546 0.0
C1864 C 0.22628 0.91735 0.29815 0.0
C1865 C 0.25523 0.90568 0.3118 0.0
C1866 C 0.24517 0.89873 0.29127 0.0
C1867 C 0.22099 0.89811 0.26347 0.0
C1868 C 0.20629 0.90371 0.25647 0.0
C1869 C 0.23078 0.9046 0.28423 0.0
C1870 C 0.20147 0.91584 0.27078 0.0
C1871 C 0.21148 0.92273 0.29133 0.0
H1872 H 0.69184 0.94597 0.32963 0.0
H1873 H 0.64785 0.88212 0.34583 0.0
H1874 H 0.65918 0.8673 0.31723 0.0
H1875 H 0.67946 0.87221 0.28601 0.0
H1876 H 0.7218 0.93575 0.26811 0.0
H1877 H 0.71374 0.95094 0.29938 0.0
C1878 C 0.68488 0.92883 0.32705 0.0
C1879 C 0.66885 0.91519 0.33973 0.0
C1880 C 0.69122 0.92034 0.31031 0.0
C1881 C 0.66004 0.893 0.33617 0.0
C1882 C 0.66653 0.88448 0.31984 0.0
C1883 C 0.68698 0.8894 0.28899 0.0
C1884 C 0.70103 0.9028 0.27463 0.0
C1885 C 0.68176 0.89797 0.30654 0.0
C1886 C 0.71103 0.92505 0.27898 0.0
C1887 C 0.70626 0.93375 0.29674 0.0
H1888 H 0.05734 0.77361 0.27978 0.0
H1889 H 0.11292 0.77136 0.29803 0.0
H1890 H 0.13147 0.79392 0.26982 0.0
H1891 H 0.13159 0.81305 0.23918 0.0
H1892 H 0.07624 0.81514 0.21994 0.0
H1893 H 0.05798 0.79416 0.24958 0.0
C1894 C 0.07354 0.77817 0.27764 0.0
C1895 C 0.08368 0.77069 0.29089 0.0
C1896 C 0.08414 0.79109 0.26124 0.0
C1897 C 0.1047 0.77679 0.28798 0.0
C1898 C 0.11534 0.7897 0.27185 0.0
C1899 C 0.11548 0.80881 0.24142 0.0
C1900 C 0.10513 0.81532 0.22728 0.0
C1901 C 0.10513 0.79667 0.25824 0.0
C1902 C 0.08449 0.81025 0.23066 0.0
C1903 C 0.07404 0.7982 0.24751 0.0
H1904 H 0.2555 0.35019 0.31389 0.0
H1905 H 0.2245 0.28389 0.32656 0.0
H1906 H 0.20386 0.27378 0.29206 0.0
H1907 H 0.19516 0.28395 0.25811 0.0
H1908 H 0.22977 0.35024 0.24446 0.0
H1909 H 0.24798 0.36011 0.27971 0.0
C1910 C 0.24408 0.33353 0.3092 0.0
C1911 C 0.24137 0.31782 0.3228 0.0
C1912 C 0.23281 0.32782 0.28918 0.0
C1913 C 0.22683 0.29627 0.31634 0.0
C1914 C 0.21505 0.2905 0.29663 0.0
C1915 C 0.20681 0.30054 0.26268 0.0
C1916 C 0.21066 0.31627 0.2485 0.0
C1917 C 0.21803 0.30616 0.28283 0.0
C1918 C 0.22577 0.33773 0.25506 0.0
C1919 C 0.23648 0.34345 0.27522 0.0
H1920 H 0.27319 0.36508 0.4395 0.0
H1921 H 0.23708 0.29672 0.44184 0.0
H1922 H 0.22153 0.30083 0.474 0.0
H1923 H 0.21771 0.32359 0.50101 0.0
H1924 H 0.25101 0.39184 0.49701 0.0
H1925 H 0.26856 0.38804 0.46639 0.0
C1926 C 0.262 0.35113 0.44716 0.0
C1927 C 0.2563 0.33064 0.43835 0.0
C1928 C 0.25269 0.35357 0.46541 0.0
C1929 C 0.24164 0.31266 0.44827 0.0
C1930 C 0.23276 0.31499 0.46668 0.0
C1931 C 0.22855 0.33768 0.49333 0.0
C1932 C 0.23285 0.35796 0.5014 0.0
C1933 C 0.23803 0.33534 0.47527 0.0
C1934 C 0.24752 0.37601 0.49146 0.0
C1935 C 0.25746 0.37386 0.47377 0.0
H1936 H 0.67579 0.91752 0.43685 0.0
H1937 H 0.62312 0.92401 0.45315 0.0
H1938 H 0.61576 0.89988 0.48149 0.0
H1939 H 0.62474 0.87729 0.50185 0.0
H1940 H 0.67645 0.86977 0.48377 0.0
H1941 H 0.68379 0.89408 0.45596 0.0
C1942 C 0.66274 0.91375 0.44665 0.0
C1943 C 0.65011 0.92264 0.44303 0.0
C1944 C 0.65844 0.89968 0.46259 0.0
C1945 C 0.6331 0.91738 0.45568 0.0
C1946 C 0.62889 0.90358 0.47185 0.0
C1947 C 0.63745 0.88078 0.49167 0.0
C1948 C 0.65017 0.87189 0.4951 0.0
C1949 C 0.64146 0.89462 0.47544 0.0
C1950 C 0.66669 0.87673 0.48183 0.0
C1951 C 0.67085 0.89055 0.46582 0.0
H1952 H 0.08506 0.72629 0.4027 0.0
H1953 H 0.10833 0.79287 0.39514 0.0
H1954 H 0.13232 0.8031 0.42695 0.0
H1955 H 0.145 0.79324 0.4581 0.0
H1956 H 0.11963 0.72673 0.46783 0.0
H1957 H 0.09883 0.71642 0.4336 0.0
C1958 C 0.09552 0.74303 0.40793 0.0
C1959 C 0.09477 0.75878 0.39667 0.0
C1960 C 0.10901 0.74883 0.42655 0.0
C1961 C 0.10839 0.78041 0.40366 0.0
C1962 C 0.12218 0.7863 0.42181 0.0
C1963 C 0.13492 0.77646 0.45277 0.0
C1964 C 0.13374 0.76081 0.46567 0.0
C1965 C 0.12233 0.77064 0.43358 0.0
C1966 C 0.12102 0.73916 0.45819 0.0
C1967 C 0.10891 0.73323 0.43871 0.0
H1968 H 0.35033 0.09357 0.74324 0.0
H1969 H 0.29846 0.03189 0.75589 0.0
H1970 H 0.2888 0.04853 0.78444 0.0
H1971 H 0.29597 0.08036 0.8068 0.0
H1972 H 0.34749 0.14214 0.79402 0.0
H1973 H 0.35636 0.1257 0.76445 0.0
C1974 C 0.33692 0.08379 0.75225 0.0
C1975 C 0.32523 0.06153 0.74756 0.0
C1976 C 0.33134 0.09347 0.76856 0.0
C1977 C 0.30776 0.04907 0.75923 0.0
C1978 C 0.3022 0.05856 0.77554 0.0
C1979 C 0.30886 0.09028 0.79725 0.0
C1980 C 0.32104 0.11242 0.80256 0.0
C1981 C 0.31394 0.08072 0.78041 0.0
C1982 C 0.33797 0.12502 0.79032 0.0
C1983 C 0.34305 0.11564 0.77344 0.0
H1984 H 0.89968 0.20818 0.75609 0.0
H1985 H 0.96157 0.25004 0.78736 0.0
H1986 H 0.95146 0.22906 0.81851 0.0
H1987 H 0.9235 0.20109 0.83838 0.0
H1988 H 0.86178 0.15979 0.80677 0.0
H1989 H 0.87329 0.17815 0.77412 0.0
C1990 C 0.91106 0.21255 0.76961 0.0
C1991 C 0.93123 0.23078 0.76957 0.0
C1992 C 0.90508 0.20059 0.78744 0.0
C1993 C 0.94592 0.23608 0.78703 0.0
C1994 C 0.9401 0.22418 0.8049 0.0
C1995 C 0.91282 0.19598 0.82414 0.0
C1996 C 0.8919 0.1793 0.82473 0.0
C1997 C 0.91953 0.20676 0.80552 0.0
C1998 C 0.87798 0.17266 0.80643 0.0
C1999 C 0.88453 0.18317 0.78786 0.0
H2000 H 0.76635 0.69402 0.74922 0.0
H2001 H 0.79095 0.65458 0.72732 0.0
H2002 H 0.81197 0.66339 0.76112 0.0
H2003 H 0.8209 0.67956 0.79797 0.0
H2004 H 0.79494 0.7174 0.82077 0.0
H2005 H 0.77738 0.71238 0.78543 0.0
C2006 C 0.77655 0.68761 0.75171 0.0
C2007 C 0.77688 0.67348 0.73581 0.0
C2008 C 0.78833 0.6924 0.7714 0.0
C2009 C 0.7902 0.66532 0.73934 0.0
C2010 C 0.80224 0.67033 0.75868 0.0
C2011 C 0.81146 0.68677 0.79518 0.0
C2012 C 0.80907 0.69864 0.81204 0.0
C2013 C 0.80099 0.68338 0.77501 0.0
C2014 C 0.79716 0.70829 0.80805 0.0
C2015 C 0.78696 0.70528 0.78788 0.0
H2016 H 0.74153 0.62598 0.624 0.0
H2017 H 0.75371 0.68836 0.61073 0.0
H2018 H 0.76454 0.68419 0.57534 0.0
H2019 H 0.77149 0.66334 0.54883 0.0
H2020 H 0.76448 0.60326 0.56444 0.0
H2021 H 0.74985 0.60561 0.59776 0.0
C2022 C 0.74646 0.63856 0.61325 0.0
C2023 C 0.74683 0.65741 0.61981 0.0
C2024 C 0.75339 0.63638 0.59327 0.0
C2025 C 0.75344 0.67376 0.60597 0.0
C2026 C 0.75956 0.67135 0.58575 0.0
C2027 C 0.7671 0.65083 0.55954 0.0
C2028 C 0.76925 0.63317 0.55384 0.0
C2029 C 0.75984 0.65283 0.57935 0.0
C2030 C 0.7627 0.61688 0.56791 0.0
C2031 C 0.75455 0.61831 0.58722 0.0
H2032 H 0.32181 0.08351 0.64637 0.0
H2033 H 0.36926 0.06785 0.63264 0.0
H2034 H 0.38005 0.09133 0.6034 0.0
H2035 H 0.37482 0.11518 0.58075 0.0
H2036 H 0.32757 0.13084 0.59559 0.0
H2037 H 0.31786 0.1084 0.62535 0.0
C2038 C 0.33453 0.08518 0.63701 0.0
C2039 C 0.34456 0.07377 0.64158 0.0
C2040 C 0.34064 0.09867 0.62036 0.0
C2041 C 0.36121 0.07641 0.62944 0.0
C2042 C 0.36737 0.08981 0.6127 0.0
C2043 C 0.36259 0.11386 0.59068 0.0
C2044 C 0.35173 0.12444 0.58576 0.0
C2045 C 0.35707 0.10089 0.60789 0.0
C2046 C 0.33586 0.12251 0.59874 0.0
C2047 C 0.33036 0.10976 0.61583 0.0
H2048 H 0.92282 0.27979 0.65577 0.0
H2049 H 0.93137 0.22584 0.65877 0.0
H2050 H 0.91223 0.21102 0.6238 0.0
H2051 H 0.89369 0.2137 0.59217 0.0
H2052 H 0.88683 0.26863 0.58823 0.0
H2053 H 0.90421 0.28246 0.62403 0.0
C2054 C 0.92043 0.26476 0.6488 0.0
C2055 C 0.92853 0.25395 0.65983 0.0
C2056 C 0.90961 0.25643 0.62859 0.0
C2057 C 0.92535 0.23451 0.65057 0.0
C2058 C 0.91439 0.22601 0.63059 0.0
C2059 C 0.89614 0.22879 0.59903 0.0
C2060 C 0.889 0.24012 0.58743 0.0
C2061 C 0.90659 0.23692 0.6194 0.0
C2062 C 0.89189 0.25941 0.59685 0.0
C2063 C 0.90201 0.26744 0.61727 0.0
H2064 H 0.31152 0.2504 0.63961 0.0
H2065 H 0.3724 0.27915 0.67404 0.0
H2066 H 0.38513 0.26553 0.64528 0.0
H2067 H 0.37798 0.24364 0.61132 0.0
H2068 H 0.31805 0.21887 0.57533 0.0
H2069 H 0.30585 0.23242 0.60393 0.0
C2070 C 0.32762 0.25377 0.64069 0.0
C2071 C 0.34099 0.26549 0.65885 0.0
C2072 C 0.33488 0.24635 0.62399 0.0
C2073 C 0.36189 0.27013 0.66008 0.0
C2074 C 0.36911 0.26227 0.64373 0.0
C2075 C 0.36237 0.24146 0.60949 0.0
C2076 C 0.34881 0.22954 0.59132 0.0
C2077 C 0.35562 0.25012 0.6257 0.0
C2078 C 0.32862 0.22705 0.58944 0.0
C2079 C 0.32164 0.23506 0.6057 0.0
H2080 H 0.7703 0.0985 0.62511 0.0
H2081 H 0.71087 0.0893 0.60046 0.0
H2082 H 0.72826 0.11225 0.57184 0.0
H2083 H 0.76021 0.13414 0.55346 0.0
H2084 H 0.82011 0.14585 0.58026 0.0
H2085 H 0.80259 0.12244 0.60824 0.0
C2086 C 0.76118 0.10151 0.61343 0.0
C2087 C 0.73937 0.09214 0.6147 0.0
C2088 C 0.77133 0.11507 0.59738 0.0
C2089 C 0.72772 0.09638 0.59973 0.0
C2090 C 0.73764 0.10946 0.58338 0.0
C2091 C 0.76953 0.13191 0.56559 0.0
C2092 C 0.79146 0.1416 0.56449 0.0
C2093 C 0.75944 0.11886 0.58204 0.0
C2094 C 0.80315 0.13821 0.58029 0.0
C2095 C 0.79318 0.12493 0.59644 0.0
H2096 H 0.91168 0.64228 0.64007 0.0
H2097 H 0.89069 0.68492 0.66174 0.0
H2098 H 0.86699 0.67417 0.6296 0.0
H2099 H 0.85409 0.65474 0.59426 0.0
H2100 H 0.87693 0.61412 0.57118 0.0
H2101 H 0.89744 0.62147 0.60514 0.0
C2102 C 0.90173 0.64902 0.63787 0.0
C2103 C 0.9031 0.66451 0.65324 0.0
C2104 C 0.8884 0.6431 0.61908 0.0
C2105 C 0.89013 0.67313 0.65009 0.0
C2106 C 0.87653 0.66698 0.63172 0.0
C2107 C 0.86354 0.64747 0.59663 0.0
C2108 C 0.86403 0.63402 0.58006 0.0
C2109 C 0.87587 0.65234 0.61591 0.0
C2110 C 0.87601 0.62436 0.58367 0.0
C2111 C 0.88795 0.62874 0.60304 0.0
H2112 H 0.89914 0.65727 0.76293 0.0
H2113 H 0.95873 0.71602 0.77642 0.0
H2114 H 0.94723 0.72235 0.81066 0.0
H2115 H 0.92028 0.71088 0.83692 0.0
H2116 H 0.8603 0.65269 0.82231 0.0
H2117 H 0.8721 0.64633 0.78853 0.0
C2118 C 0.90964 0.67148 0.77334 0.0
C2119 C 0.92977 0.68612 0.76715 0.0
C2120 C 0.90291 0.67504 0.7929 0.0
C2121 C 0.94313 0.70449 0.7808 0.0
C2122 C 0.93658 0.70811 0.80039 0.0
C2123 C 0.90974 0.69689 0.82629 0.0
C2124 C 0.88951 0.68218 0.83234 0.0
C2125 C 0.9165 0.69346 0.80662 0.0
C2126 C 0.87614 0.66404 0.81838 0.0
C2127 C 0.88279 0.66046 0.79892 0.0
H2128 H 0.29974 0.25991 0.78044 0.0
H2129 H 0.34598 0.25008 0.75039 0.0
H2130 H 0.34213 0.22479 0.77606 0.0
H2131 H 0.32659 0.20625 0.80747 0.0
H2132 H 0.28243 0.21773 0.83984 0.0
H2133 H 0.28407 0.24108 0.81257 0.0
C2134 C 0.30884 0.25211 0.7795 0.0
C2135 C 0.32316 0.25691 0.76359 0.0
C2136 C 0.30689 0.23783 0.79468 0.0
C2137 C 0.33496 0.24679 0.76258 0.0
C2138 C 0.33275 0.23228 0.77723 0.0
C2139 C 0.31748 0.21403 0.80878 0.0
C2140 C 0.30458 0.21035 0.82585 0.0
C2141 C 0.31898 0.22788 0.79347 0.0
C2142 C 0.29239 0.2201 0.82681 0.0
C2143 C 0.29344 0.2336 0.81129 0.0
H2144 H 0.77616 0.11243 0.72412 0.0
H2145 H 0.73775 0.04452 0.72888 0.0
H2146 H 0.75694 0.048 0.76269 0.0
H2147 H 0.78214 0.07082 0.79264 0.0
H2148 H 0.82103 0.13861 0.78756 0.0
H2149 H 0.8042 0.13465 0.75211 0.0
C2150 C 0.77211 0.09837 0.73246 0.0
C2151 C 0.75535 0.07831 0.72413 0.0
C2152 C 0.78321 0.10046 0.75191 0.0
C2153 C 0.75052 0.06019 0.73497 0.0
C2154 C 0.76145 0.06216 0.75436 0.0
C2155 C 0.78731 0.08465 0.78356 0.0
C2156 C 0.80258 0.10502 0.79287 0.0
C2157 C 0.77751 0.08228 0.76321 0.0
C2158 C 0.80899 0.1228 0.78093 0.0
C2159 C 0.7994 0.12056 0.76065 0.0
H2160 H 0.03476 0.32338 0.06848 0.0
H2161 H 0.08199 0.36504 0.0278 0.0
H2162 H 0.10682 0.35582 0.04326 0.0
H2163 H 0.11528 0.33659 0.06893 0.0
H2164 H 0.06834 0.29618 0.11059 0.0
H2165 H 0.04305 0.30394 0.09377 0.0
C2166 C 0.05046 0.33041 0.0629 0.0
C2167 C 0.05654 0.34494 0.04703 0.0
C2168 C 0.06466 0.3252 0.07199 0.0
C2169 C 0.07694 0.35387 0.04002 0.0
C2170 C 0.09113 0.3486 0.04886 0.0
C2171 C 0.09957 0.3296 0.07446 0.0
C2172 C 0.09379 0.3159 0.09111 0.0
C2173 C 0.08521 0.33444 0.06499 0.0
C2174 C 0.07319 0.3066 0.0977 0.0
C2175 C 0.05875 0.31115 0.08819 0.0
H2176 H 0.61529 0.67818 0.11556 0.0
H2177 H 0.67352 0.68953 0.09095 0.0
H2178 H 0.69215 0.72547 0.109 0.0
H2179 H 0.69104 0.75483 0.12856 0.0
H2180 H 0.633 0.74304 0.15407 0.0
H2181 H 0.61518 0.70609 0.13888 0.0
C2182 C 0.6321 0.68846 0.11432 0.0
C2183 C 0.64294 0.68134 0.1017 0.0
C2184 C 0.64272 0.70907 0.12474 0.0
C2185 C 0.66478 0.69468 0.10052 0.0
C2186 C 0.67545 0.71526 0.11077 0.0
C2187 C 0.67463 0.74406 0.13124 0.0
C2188 C 0.66327 0.7518 0.14206 0.0
C2189 C 0.66447 0.72279 0.1225 0.0
C2190 C 0.64197 0.73761 0.14532 0.0
C2191 C 0.63178 0.71646 0.1367 0.0
H2192 H 0.31398 0.9591 0.03533 0.0
H2193 H 0.32922 0.91539 0.06286 0.0
H2194 H 0.29714 0.90053 0.0821 0.0
H2195 H 0.2658 0.90113 0.09209 0.0
H2196 H 0.24929 0.9431 0.06242 0.0
H2197 H 0.28135 0.95796 0.04343 0.0
C2198 C 0.31026 0.94628 0.04551 0.0
C2199 C 0.32399 0.93844 0.04783 0.0
C2200 C 0.29178 0.93772 0.05629 0.0
C2201 C 0.31886 0.92165 0.06082 0.0
C2202 C 0.30059 0.91323 0.07187 0.0
C2203 C 0.2689 0.91321 0.08116 0.0
C2204 C 0.25506 0.92097 0.07878 0.0
C2205 C 0.28704 0.92127 0.06982 0.0
C2206 C 0.25978 0.93706 0.06492 0.0
C2207 C 0.27803 0.94545 0.05389 0.0
H2208 H 0.38353 0.06252 0.99598 0.0
H2209 H 0.3221 0.01105 0.00875 0.0
H2210 H 0.30623 0.03159 -0.00236 0.0
H2211 H 0.30969 0.06345 0.9827 0.0
H2212 H 0.37086 0.11295 0.96612 0.0
H2213 H 0.38693 0.09421 0.9809 0.0
C2214 C 0.36671 0.05593 0.99656 0.0
C2215 C 0.35399 0.03538 0.00318 0.0
C2216 C 0.35763 0.06752 0.98953 0.0
C2217 C 0.33218 0.02686 0.00362 0.0
C2218 C 0.32311 0.03858 -0.00272 0.0
C2219 C 0.32651 0.07012 0.98216 0.0
C2220 C 0.33893 0.08974 0.97336 0.0
C2221 C 0.33565 0.0588 0.98986 0.0
C2222 C 0.36082 0.0982 0.97323 0.0
C2223 C 0.37008 0.08736 0.98146 0.0
H2224 H 0.92214 0.28599 0.0062 0.0
H2225 H 0.98036 0.29804 0.98098 0.0
H2226 H 0.96208 0.26265 0.96165 0.0
H2227 H 0.92905 0.22897 0.95034 0.0
H2228 H 0.87123 0.21696 0.97656 0.0
H2229 H 0.88987 0.25164 -0.003 0.0
C2230 C 0.93086 0.28087 0.99653 0.0
C2231 C 0.95252 0.29472 0.99489 0.0
C2232 C 0.9203 0.26053 0.98553 0.0
C2233 C 0.96364 0.28771 0.98249 0.0
C2234 C 0.9532 0.26749 0.97139 0.0
C2235 C 0.92062 0.23385 0.96076 0.0
C2236 C 0.89873 0.22057 0.96163 0.0
C2237 C 0.93147 0.25384 0.97259 0.0
C2238 C 0.888 0.22712 0.97519 0.0
C2239 C 0.89865 0.2469 0.98698 0.0
H2240 H 0.70448 0.67387 0.0353 0.0
H2241 H 0.69388 0.61028 0.03786 0.0
H2242 H 0.72596 0.62063 0.01962 0.0
H2243 H 0.75515 0.64682 0.00017 0.0
H2244 H 0.76501 0.71001 0.99677 0.0
H2245 H 0.73523 0.70085 0.01848 0.0
C2246 C 0.70929 0.66232 0.03209 0.0
C2247 C 0.69669 0.64126 0.0377 0.0
C2248 C 0.72756 0.6683 0.02139 0.0
C2249 C 0.70326 0.62656 0.03363 0.0
C2250 C 0.72155 0.63244 0.02313 0.0
C2251 C 0.75081 0.65859 0.00428 0.0
C2252 C 0.76207 0.67897 0.99669 0.0
C2253 C 0.73351 0.6531 0.01647 0.0
C2254 C 0.75661 0.69425 0.00248 0.0
C2255 C 0.73951 0.68897 0.01476 0.0
H2256 H 0.95839 0.65381 0.00634 0.0
H2257 H 0.90038 0.60342 0.02786 0.0
H2258 H 0.88037 0.61503 0.00652 0.0
H2259 H 0.87943 0.6395 0.98193 0.0
H2260 H 0.93734 0.6885 0.95874 0.0
H2261 H 0.95736 0.67762 0.98095 0.0
C2262 C 0.94137 0.64541 0.00647 0.0
C2263 C 0.9309 0.62782 0.01877 0.0
C2264 C 0.92997 0.65194 0.99391 0.0
C2265 C 0.90882 0.61698 0.01853 0.0
C2266 C 0.89738 0.62362 0.00634 0.0
C2267 C 0.8964 0.64761 0.98142 0.0
C2268 C 0.90682 0.66477 0.96855 0.0
C2269 C 0.90779 0.64102 0.99391 0.0
C2270 C 0.92889 0.67541 0.96862 0.0
C2271 C 0.94036 0.66912 0.98124 0.0
H2272 H 0.35053 0.3092 0.99537 0.0
H2273 H 0.35359 0.33328 0.93361 0.0
H2274 H 0.33851 0.29731 0.91611 0.0
H2275 H 0.32543 0.25916 0.91837 0.0
H2276 H 0.32009 0.23444 0.98 0.0
H2277 H 0.3347 0.2704 -0.00227 0.0
C2278 C 0.34794 0.30648 0.97809 0.0
C2279 C 0.3534 0.32375 0.9657 0.0
C2280 C 0.33866 0.28568 0.96821 0.0
C2281 C 0.34958 0.32014 0.94339 0.0
C2282 C 0.34095 0.29962 0.9334 0.0
C2283 C 0.32723 0.26172 0.93568 0.0
C2284 C 0.32177 0.24442 0.94796 0.0
C2285 C 0.33549 0.2823 0.94564 0.0
C2286 C 0.32406 0.24766 0.97035 0.0
C2287 C 0.33257 0.26818 0.98043 0.0
H2288 H 0.69101 0.03538 0.02381 0.0
H2289 H 0.69637 0.0971 0.02555 0.0
H2290 H 0.72585 0.10976 0.00271 0.0
H2291 H 0.74867 0.10258 0.98063 0.0
H2292 H 0.74266 0.04063 0.97843 0.0
H2293 H 0.7149 0.02881 0.00334 0.0
C2294 C 0.69867 0.05167 0.01933 0.0
C2295 C 0.69134 0.06522 0.02624 0.0
C2296 C 0.71542 0.05875 0.00607 0.0
C2297 C 0.70164 0.08632 0.02044 0.0
C2298 C 0.71845 0.09355 0.00731 0.0
C2299 C 0.74122 0.08647 0.98557 0.0
C2300 C 0.7475 0.07239 0.97753 0.0
C2301 C 0.7252 0.07977 -0.00026 0.0
C2302 C 0.73811 0.05175 0.98444 0.0
C2303 C 0.72219 0.04497 -0.00141 0.0
H2304 H 0.63391 0.94059 0.05995 0.0
H2305 H 0.68918 0.00034 0.08356 0.0
H2306 H 0.70576 0.98139 0.0969 0.0
H2307 H 0.70326 0.94784 0.10508 0.0
H2308 H 0.64786 0.88795 0.08248 0.0
H2309 H 0.63276 0.9069 0.06538 0.0
C2310 C 0.64966 0.94944 0.0678 0.0
C2311 C 0.66014 0.97181 0.07098 0.0
C2312 C 0.65909 0.93842 0.07571 0.0
C2313 C 0.68062 0.98308 0.0811 0.0
C2314 C 0.69017 0.97227 0.08874 0.0
C2315 C 0.68813 0.93896 0.09595 0.0
C2316 C 0.67664 0.91658 0.09513 0.0
C2317 C 0.67938 0.94994 0.08656 0.0
C2318 C 0.6569 0.90524 0.08349 0.0
C2319 C 0.64825 0.91605 0.07376 0.0
H2320 H 0.01674 0.70723 0.08723 0.0
H2321 H 0.06149 0.70253 0.04853 0.0
H2322 H 0.08786 0.73965 0.05954 0.0
H2323 H 0.09897 0.77257 0.08192 0.0
H2324 H 0.05493 0.7773 0.12157 0.0
H2325 H 0.02732 0.74115 0.10805 0.0
C2326 C 0.03221 0.71438 0.08108 0.0
C2327 C 0.03721 0.70207 0.06724 0.0
C2328 C 0.04739 0.73571 0.08762 0.0
C2329 C 0.05727 0.7116 0.0593 0.0
C2330 C 0.07237 0.73283 0.06559 0.0
C2331 C 0.08329 0.76568 0.08757 0.0
C2332 C 0.07902 0.77741 0.10291 0.0
C2333 C 0.06772 0.74487 0.08004 0.0
C2334 C 0.05856 0.76856 0.10973 0.0
C2335 C 0.04284 0.74786 0.10212 0.0
H2336 H 0.31531 0.3522 0.02413 0.0
H2337 H 0.31484 0.41107 0.03063 0.0
H2338 H 0.28271 0.39349 0.04952 0.0
H2339 H 0.25638 0.36225 0.06635 0.0
H2340 H 0.25793 0.304 0.06153 0.0
H2341 H 0.28785 0.32042 0.03929 0.0
C2342 C 0.30812 0.3612 0.0295 0.0
C2343 C 0.31761 0.38301 0.02616 0.0
C2344 C 0.28988 0.3511 0.04063 0.0
C2345 C 0.30796 0.39432 0.03312 0.0
C2346 C 0.28961 0.38429 0.04394 0.0
C2347 C 0.26329 0.35316 0.06044 0.0
C2348 C 0.2552 0.33206 0.06581 0.0
C2349 C 0.28072 0.36284 0.04816 0.0
C2350 C 0.26388 0.32025 0.05758 0.0
C2351 C 0.28106 0.32968 0.04501 0.0
H2352 H 0.69314 0.64348 0.37981 0.0
H2353 H 0.73556 0.71153 0.39068 0.0
H2354 H 0.76031 0.70591 0.41182 0.0
H2355 H 0.76905 0.68195 0.42847 0.0
H2356 H 0.72951 0.61375 0.41329 0.0
H2357 H 0.70407 0.61921 0.3935 0.0
C2358 C 0.70793 0.65703 0.38664 0.0
C2359 C 0.71254 0.67788 0.38372 0.0
C2360 C 0.72237 0.65369 0.39841 0.0
C2361 C 0.73175 0.69532 0.39254 0.0
C2362 C 0.74584 0.69213 0.40478 0.0
C2363 C 0.75525 0.66814 0.42046 0.0
C2364 C 0.75153 0.64741 0.42267 0.0
C2365 C 0.74123 0.67139 0.40795 0.0
C2366 C 0.73287 0.62993 0.41258 0.0
C2367 C 0.71833 0.63302 0.4009 0.0
H2368 H 0.31688 0.00928 0.43221 0.0
H2369 H 0.2636 0.0132 0.40839 0.0
H2370 H 0.27956 0.04932 0.42527 0.0
H2371 H 0.30861 0.07986 0.44601 0.0
H2372 H 0.36114 0.07595 0.47213 0.0
H2373 H 0.34575 0.03991 0.45452 0.0
C2374 C 0.30875 0.01803 0.43077 0.0
C2375 C 0.28906 0.00852 0.41904 0.0
C2376 C 0.31794 0.03883 0.44071 0.0
C2377 C 0.2787 0.02005 0.41739 0.0
C2378 C 0.28785 0.04076 0.42697 0.0
C2379 C 0.31658 0.07105 0.44827 0.0
C2380 C 0.33591 0.08057 0.46063 0.0
C2381 C 0.30743 0.05027 0.43863 0.0
C2382 C 0.34631 0.0691 0.46262 0.0
C2383 C 0.33744 0.04843 0.45268 0.0
H2384 H 0.99657 0.25108 0.38902 0.0
H2385 H 0.9926 0.30101 0.35963 0.0
H2386 H 0.95822 0.28884 0.37351 0.0
H2387 H 0.92941 0.26415 0.39417 0.0
H2388 H 0.93512 0.21634 0.42625 0.0
H2389 H 0.96837 0.22725 0.41074 0.0
C2390 C 0.98811 0.2592 0.38558 0.0
C2391 C 0.99704 0.27683 0.37331 0.0
C2392 C 0.96857 0.25243 0.39397 0.0
C2393 C 0.98606 0.28741 0.36915 0.0
C2394 C 0.96639 0.28045 0.37703 0.0
C2395 C 0.93797 0.25622 0.39794 0.0
C2396 C 0.92949 0.23923 0.41114 0.0
C2397 C 0.95753 0.26304 0.38955 0.0
C2398 C 0.94084 0.22905 0.41564 0.0
C2399 C 0.96004 0.23542 0.40697 0.0
H2400 H 0.0647 0.39988 0.3442 0.0
H2401 H 0.01731 0.3461 0.3029 0.0
H2402 H 0.00448 0.36806 0.28899 0.0
H2403 H 0.00712 0.40244 0.28763 0.0
H2404 H 0.05353 0.45654 0.32911 0.0
H2405 H 0.06645 0.43459 0.34373 0.0
C2406 C 0.05158 0.39302 0.33218 0.0
C2407 C 0.04204 0.37141 0.32458 0.0
C2408 C 0.04409 0.40575 0.32425 0.0
C2409 C 0.02496 0.36269 0.30906 0.0
C2410 C 0.01757 0.37522 0.30106 0.0
C2411 C 0.01977 0.40937 0.3002 0.0
C2412 C 0.02921 0.43103 0.30739 0.0
C2413 C 0.02702 0.39673 0.30851 0.0
C2414 C 0.04603 0.43989 0.32324 0.0
C2415 C 0.0534 0.42735 0.33162 0.0
H2416 H 0.62874 0.62813 0.31414 0.0
H2417 H 0.57422 0.62872 0.33549 0.0
H2418 H 0.55118 0.59318 0.31792 0.0
H2419 H 0.54631 0.56201 0.2967 0.0
H2420 H 0.60006 0.56144 0.27308 0.0
H2421 H 0.62361 0.59666 0.29178 0.0
C2422 C 0.61183 0.62044 0.31496 0.0
C2423 C 0.60325 0.63113 0.32611 0.0
C2424 C 0.59852 0.59997 0.30452 0.0
C2425 C 0.58128 0.62097 0.32693 0.0
C2426 C 0.56805 0.60059 0.31692 0.0
C2427 C 0.56314 0.56967 0.29527 0.0
C2428 C 0.57133 0.55911 0.28327 0.0
C2429 C 0.57649 0.59001 0.30562 0.0
C2430 C 0.59329 0.56909 0.2823 0.0
C2431 C 0.60677 0.5893 0.29288 0.0
H2432 H 0.35418 0.99502 0.35643 0.0
H2433 H 0.3543 0.94258 0.38468 0.0
H2434 H 0.38741 0.95188 0.36891 0.0
H2435 H 0.41469 0.97319 0.34479 0.0
H2436 H 0.41256 0.02381 0.31457 0.0
H2437 H 0.38215 0.01722 0.33387 0.0
C2438 C 0.36155 0.98574 0.35939 0.0
C2439 C 0.35171 0.96804 0.37161 0.0
C2440 C 0.38023 0.99085 0.34988 0.0
C2441 C 0.36151 0.95624 0.37528 0.0
C2442 C 0.3804 0.96152 0.36621 0.0
C2443 C 0.40757 0.98278 0.34239 0.0
C2444 C 0.41593 -0.00108 0.3281 0.0
C2445 C 0.38962 0.97848 0.35306 0.0
C2446 C 0.40673 0.01147 0.32562 0.0
C2447 C 0.38917 0.00759 0.33651 0.0
H2448 H 0.5771 0.93293 0.34281 0.0
H2449 H 0.63612 0.99295 0.34592 0.0
H2450 H 0.62037 0.0072 0.3222 0.0
H2451 H 0.58974 0.00281 0.30091 0.0
H2452 H 0.53047 0.94318 0.299 0.0
H2453 H 0.54661 0.92849 0.32146 0.0
C2454 C 0.58655 0.94913 0.33833 0.0
C2455 C 0.60774 0.96184 0.34623 0.0
C2456 C 0.57742 0.95727 0.3247 0.0
C2457 C 0.61974 0.9828 0.34016 0.0
C2458 C 0.61077 0.99098 0.32655 0.0
C2459 C 0.58034 0.98663 0.30545 0.0
C2460 C 0.55895 0.97412 0.29814 0.0
C2461 C 0.5896 0.97838 0.31879 0.0
C2462 C 0.54707 0.95306 0.30399 0.0
C2463 C 0.55623 0.9447 0.31705 0.0
H2464 H 0.03698 0.64906 0.3292 0.0
H2465 H 0.02992 0.67225 0.26964 0.0
H2466 H 0.01937 0.6378 0.25062 0.0
H2467 H 0.01188 0.60093 0.25103 0.0
H2468 H 0.01649 0.57698 0.31093 0.0
H2469 H 0.02809 0.61179 0.32984 0.0
C2470 C 0.03325 0.64655 0.31204 0.0
C2471 C 0.03438 0.66309 0.30075 0.0
C2472 C 0.0266 0.62655 0.30135 0.0
C2473 C 0.02917 0.65965 0.27861 0.0
C2474 C 0.02313 0.64 0.26774 0.0
C2475 C 0.0154 0.60344 0.26823 0.0
C2476 C 0.01337 0.58663 0.27967 0.0
C2477 C 0.02172 0.62332 0.27897 0.0
C2478 C 0.0178 0.58979 0.30193 0.0
C2479 C 0.02453 0.60966 0.31269 0.0
H2480 H 0.36379 0.4006 0.36896 0.0
H2481 H 0.32618 0.34465 0.32535 0.0
H2482 H 0.35577 0.35532 0.3031 0.0
H2483 H 0.39209 0.38096 0.2955 0.0
H2484 H 0.43081 0.43579 0.33979 0.0
H2485 H 0.40126 0.42514 0.36256 0.0
C2486 C 0.36216 0.39085 0.35455 0.0
C2487 C 0.34287 0.37201 0.34863 0.0
C2488 C 0.37947 0.39678 0.34212 0.0
C2489 C 0.34093 0.35925 0.33016 0.0
C2490 C 0.35782 0.36531 0.31744 0.0
C2491 C 0.39402 0.39034 0.31031 0.0
C2492 C 0.41338 0.40899 0.31616 0.0
C2493 C 0.37712 0.38403 0.32324 0.0
C2494 C 0.41595 0.42123 0.33524 0.0
C2495 C 0.39907 0.41522 0.34811 0.0
H2496 H 0.33512 0.30454 0.41523 0.0
H2497 H 0.28294 0.25017 0.37895 0.0
H2498 H 0.29793 0.22818 0.38758 0.0
H2499 H 0.32496 0.2241 0.40683 0.0
H2500 H 0.37559 0.27814 0.44519 0.0
H2501 H 0.3625 0.30073 0.4336 0.0
C2502 C 0.32702 0.28789 0.40913 0.0
C2503 C 0.30785 0.27896 0.3966 0.0
C2504 C 0.3356 0.27535 0.41431 0.0
C2505 C 0.29764 0.25739 0.38876 0.0
C2506 C 0.30623 0.24483 0.39364 0.0
C2507 C 0.33316 0.24083 0.41266 0.0
C2508 C 0.35125 0.24931 0.42692 0.0
C2509 C 0.32507 0.2536 0.40662 0.0
C2510 C 0.36188 0.27115 0.43393 0.0
C2511 C 0.35423 0.28407 0.42754 0.0
H2512 H 0.68968 0.03609 0.42373 0.0
H2513 H 0.73634 0.025 0.39655 0.0
H2514 H 0.76405 0.06108 0.40943 0.0
H2515 H 0.77519 0.09527 0.42934 0.0
H2516 H 0.72898 0.10665 0.45698 0.0
H2517 H 0.70081 0.07102 0.44268 0.0
C2518 C 0.7059 0.0416 0.42055 0.0
C2519 C 0.71095 0.02782 0.40931 0.0
C2520 C 0.72179 0.06238 0.42806 0.0
C2521 C 0.73203 0.03524 0.40522 0.0
C2522 C 0.74789 0.05587 0.41259 0.0
C2523 C 0.75895 0.0899 0.43233 0.0
C2524 C 0.75415 0.10341 0.44441 0.0
C2525 C 0.74298 0.06946 0.42421 0.0
C2526 C 0.73302 0.0965 0.4477 0.0
C2527 C 0.71696 0.07612 0.43962 0.0
H2528 H 0.97961 0.73311 0.37219 0.0
H2529 H 0.98657 0.67827 0.36144 0.0
H2530 H 0.95424 0.65635 0.37873 0.0
H2531 H 0.9252 0.65324 0.39909 0.0
H2532 H 0.91814 0.70797 0.40962 0.0
H2533 H 0.94924 0.72936 0.39028 0.0
C2534 C 0.97399 0.71633 0.37348 0.0
C2535 C 0.98564 0.70745 0.36568 0.0
C2536 C 0.9554 0.70378 0.38355 0.0
C2537 C 0.97801 0.68561 0.36738 0.0
C2538 C 0.9595 0.67302 0.3773 0.0
C2539 C 0.93029 0.66975 0.39684 0.0
C2540 C 0.91956 0.67908 0.406 0.0
C2541 C 0.94824 0.682 0.38574 0.0
C2542 C 0.9264 0.70054 0.40307 0.0
C2543 C 0.94414 0.71277 0.39195 0.0
H2544 H 0.36708 0.99538 0.74431 0.0
H2545 H 0.41481 0.04207 0.7074 0.0
H2546 H 0.44134 0.03647 0.72514 0.0
H2547 H 0.45095 0.0185 0.7513 0.0
H2548 H 0.40332 0.9728 0.78906 0.0
H2549 H 0.3767 0.97764 0.77056 0.0
C2550 C 0.38327 0.00428 0.74006 0.0
C2551 C 0.38896 0.01911 0.72453 0.0
C2552 C 0.39844 0.00114 0.75045 0.0
C2553 C 0.41002 0.03057 0.7193 0.0
C2554 C 0.4252 0.02739 0.72944 0.0
C2555 C 0.43479 0.00976 0.75566 0.0
C2556 C 0.42918 0.99533 0.7716 0.0
C2557 C 0.4196 0.0128 0.74513 0.0
C2558 C 0.40806 0.98382 0.77671 0.0
C2559 C 0.39284 0.98667 0.76621 0.0
H2560 H 0.98926 0.35127 0.75131 0.0
H2561 H 0.92678 0.32401 0.77343 0.0
H2562 H 0.93697 0.35781 0.79347 0.0
H2563 H 0.96286 0.39543 0.80305 0.0
H2564 H 0.02432 0.42377 0.77826 0.0
H2565 H 0.01552 0.389 0.76155 0.0
C2566 C 0.97794 0.35268 0.76068 0.0
C2567 C 0.95727 0.33521 0.76082 0.0
C2568 C 0.98374 0.37231 0.77175 0.0
C2569 C 0.94273 0.33729 0.77293 0.0
C2570 C 0.94855 0.35659 0.78442 0.0
C2571 C 0.97433 0.39409 0.79388 0.0
C2572 C 0.99414 0.41228 0.79173 0.0
C2573 C 0.96888 0.37428 0.78362 0.0
C2574 C 0.00901 0.41004 0.78034 0.0
C2575 C 0.00391 0.39019 0.77059 0.0
H2576 H 0.65943 0.62687 0.6974 0.0
H2577 H 0.67375 0.58098 0.7209 0.0
H2578 H 0.64089 0.5644 0.7389 0.0
H2579 H 0.60936 0.56439 0.74945 0.0
H2580 H 0.59415 0.6091 0.72417 0.0
H2581 H 0.62655 0.62507 0.70566 0.0
C2582 C 0.65534 0.61319 0.70642 0.0
C2583 C 0.66906 0.60526 0.70802 0.0
C2584 C 0.63645 0.60371 0.71652 0.0
C2585 C 0.66342 0.58735 0.71946 0.0
C2586 C 0.64471 0.57795 0.7298 0.0
C2587 C 0.61281 0.57731 0.73952 0.0
C2588 C 0.59927 0.58553 0.73829 0.0
C2589 C 0.63123 0.58615 0.72859 0.0
C2590 C 0.6044 0.60265 0.72572 0.0
C2591 C 0.62286 0.61171 0.71502 0.0
H2592 H 0.72582 0.73092 0.66277 0.0
H2593 H 0.66782 0.68118 0.68473 0.0
H2594 H 0.65021 0.70064 0.67553 0.0
H2595 H 0.65086 0.73067 0.65915 0.0
H2596 H 0.70802 0.77768 0.63283 0.0
H2597 H 0.72643 0.7608 0.6464 0.0
C2598 C 0.70942 0.72454 0.66583 0.0
C2599 C 0.69812 0.70477 0.67445 0.0
C2600 C 0.69922 0.73536 0.65973 0.0
C2601 C 0.67679 0.69642 0.67806 0.0
C2602 C 0.66673 0.70751 0.67277 0.0
C2603 C 0.6673 0.7372 0.65623 0.0
C2604 C 0.67791 0.75561 0.64506 0.0
C2605 C 0.67769 0.72679 0.66317 0.0
C2606 C 0.69939 0.76393 0.64185 0.0
C2607 C 0.70998 0.75411 0.64938 0.0
H2608 H 0.2552 0.95483 0.67295 0.0
H2609 H 0.31351 0.96753 0.64759 0.0
H2610 H 0.2956 0.9316 0.62909 0.0
H2611 H 0.26276 0.89714 0.61886 0.0
H2612 H 0.20524 0.88455 0.64633 0.0
H2613 H 0.22348 0.91993 0.6652 0.0
C2614 C 0.26401 0.94976 0.66336 0.0
C2615 C 0.28555 0.96386 0.66138 0.0
C2616 C 0.25373 0.92913 0.65308 0.0
C2617 C 0.29686 0.95694 0.64927 0.0
C2618 C 0.28663 0.93643 0.63868 0.0
C2619 C 0.25431 0.90205 0.6292 0.0
C2620 C 0.23255 0.88835 0.63078 0.0
C2621 C 0.26499 0.92244 0.64032 0.0
C2622 C 0.22184 0.89498 0.6443 0.0
C2623 C 0.23227 0.91517 0.65523 0.0
H2624 H 0.02597 0.28358 0.68829 0.0
H2625 H 0.03996 0.34522 0.71539 0.0
H2626 H 0.0744 0.36212 0.70031 0.0
H2627 H 0.09979 0.35937 0.67813 0.0
H2628 H 0.08292 0.29785 0.64722 0.0
H2629 H 0.05074 0.28098 0.66547 0.0
C2630 C 0.03671 0.30068 0.69113 0.0
C2631 C 0.03061 0.31314 0.70305 0.0
C2632 C 0.05602 0.31033 0.68172 0.0
C2633 C 0.04442 0.33532 0.70628 0.0
C2634 C 0.06406 0.34497 0.69763 0.0
C2635 C 0.08905 0.34231 0.67519 0.0
C2636 C 0.09421 0.33002 0.66144 0.0
C2637 C 0.06989 0.33265 0.68502 0.0
C2638 C 0.07998 0.30782 0.65817 0.0
C2639 C 0.06132 0.29807 0.66843 0.0
H2640 H 0.27521 0.29208 0.65122 0.0
H2641 H 0.28828 0.33545 0.70663 0.0
H2642 H 0.27362 0.35356 0.68686 0.0
H2643 H 0.25574 0.35581 0.65426 0.0
H2644 H 0.24628 0.31473 0.59766 0.0
H2645 H 0.26089 0.29693 0.61747 0.0
C2646 C 0.27477 0.30549 0.65888 0.0
C2647 C 0.28236 0.31229 0.68034 0.0
C2648 C 0.26704 0.3162 0.64723 0.0
C2649 C 0.28228 0.32993 0.69013 0.0
C2650 C 0.27396 0.34026 0.67883 0.0
C2651 C 0.25732 0.34335 0.64603 0.0
C2652 C 0.24958 0.33649 0.62449 0.0
C2653 C 0.2662 0.33345 0.65738 0.0
C2654 C 0.25158 0.32005 0.61433 0.0
C2655 C 0.26003 0.30988 0.62562 0.0
H2656 H 0.70236 0.97911 0.65487 0.0
H2657 H 0.65471 0.98278 0.617 0.0
H2658 H 0.64003 0.94587 0.60226 0.0
H2659 H 0.64161 0.9129 0.59926 0.0
H2660 H 0.68937 0.90976 0.63751 0.0
H2661 H 0.70311 0.94612 0.653 0.0
C2662 C 0.68874 0.97185 0.64341 0.0
C2663 C 0.67973 0.98369 0.63694 0.0
C2664 C 0.68042 0.95072 0.63505 0.0
C2665 C 0.66199 0.974 0.62219 0.0
C2666 C 0.65358 0.95291 0.61376 0.0
C2667 C 0.65486 0.92015 0.61116 0.0
C2668 C 0.66462 0.90881 0.61707 0.0
C2669 C 0.66276 0.94115 0.61998 0.0
C2670 C 0.68184 0.91835 0.63244 0.0
C2671 C 0.68967 0.9391 0.64136 0.0
H2672 H 0.0138 0.6959 0.678 0.0
H2673 H 0.01633 0.75588 0.67338 0.0
H2674 H 0.04865 0.76955 0.65484 0.0
H2675 H 0.07559 0.76417 0.63915 0.0
H2676 H 0.07281 0.70409 0.64312 0.0
H2677 H 0.04133 0.69089 0.66315 0.0
C2678 C 0.0214 0.71199 0.67297 0.0
C2679 C 0.01253 0.72479 0.67697 0.0
C2680 C 0.03996 0.71974 0.66231 0.0
C2681 C 0.02273 0.74564 0.67047 0.0
C2682 C 0.04122 0.75348 0.65986 0.0
C2683 C 0.06803 0.74814 0.64431 0.0
C2684 C 0.07639 0.73504 0.63947 0.0
C2685 C 0.04985 0.74061 0.65555 0.0
C2686 C 0.06674 0.71451 0.64672 0.0
C2687 C 0.04867 0.70692 0.65804 0.0
H2688 H 0.94145 0.60463 0.73754 0.0
H2689 H 0.00341 0.64716 0.71738 0.0
H2690 H 0.0161 0.62488 0.73149 0.0
H2691 H 0.00993 0.59428 0.75099 0.0
H2692 H 0.94889 0.55435 0.77491 0.0
H2693 H 0.93544 0.5743 0.7575 0.0
C2694 C 0.95764 0.60881 0.73601 0.0
C2695 C 0.97147 0.62737 0.72638 0.0
C2696 C 0.96501 0.59639 0.74485 0.0
C2697 C 0.99251 0.63289 0.72477 0.0
C2698 C -0.00024 0.6202 0.73285 0.0
C2699 C 0.99374 0.59 0.75259 0.0
C2700 C 0.98051 0.57265 0.76421 0.0
C2701 C 0.98624 0.60211 0.74325 0.0
C2702 C 0.95942 0.56724 0.7657 0.0
C2703 C 0.9517 0.5788 0.75591 0.0
H2704 H 0.36362 0.37478 0.76036 0.0
H2705 H 0.4094 0.36389 0.7307 0.0
H2706 H 0.43761 0.39928 0.74477 0.0
H2707 H 0.44933 0.43318 0.76548 0.0
H2708 H 0.40402 0.44466 0.79515 0.0
H2709 H 0.37544 0.40925 0.78079 0.0
C2710 C 0.37978 0.38016 0.75701 0.0
C2711 C 0.38442 0.36669 0.74458 0.0
C2712 C 0.39594 0.40062 0.76505 0.0
C2713 C 0.4054 0.37392 0.74024 0.0
C2714 C 0.42155 0.39416 0.74827 0.0
C2715 C 0.4332 0.42785 0.76895 0.0
C2716 C 0.42876 0.44135 0.78152 0.0
C2717 C 0.417 0.40759 0.76072 0.0
C2718 C 0.40777 0.43451 0.78546 0.0
C2719 C 0.39149 0.41426 0.77735 0.0
H2720 H 0.64771 0.0207 0.69976 0.0
H2721 H 0.65635 0.08379 0.70771 0.0
H2722 H 0.62613 0.07045 0.72948 0.0
H2723 H 0.59834 0.0413 0.7475 0.0
H2724 H 0.59067 0.97863 0.74079 0.0
H2725 H 0.6193 0.99135 0.7169 0.0
C2726 C 0.64293 0.03154 0.7061 0.0
C2727 C 0.65437 0.05325 0.70219 0.0
C2728 C 0.62574 0.02385 0.71882 0.0
C2729 C 0.64789 0.06703 0.71054 0.0
C2730 C 0.63063 0.05943 0.72301 0.0
C2731 C 0.60302 0.03045 0.74091 0.0
C2732 C 0.59255 0.00911 0.74607 0.0
C2733 C 0.61966 0.03795 0.7275 0.0
C2734 C 0.59842 0.9951 0.73698 0.0
C2735 C 0.61485 0.0024 0.72343 0.0
loop_
_geom_bond_atom_site_label_1
_geom_bond_atom_site_label_2
_geom_bond_distance
_geom_bond_site_symmetry_2
_ccdc_geom_bond_type
C0 O1 1.306 . S
C0 O3 1.160 . S
O1 C0 1.306 . S
O1 Cd2 2.228 . S
Cd2 O1 2.228 . S
Cd2 O6 2.273 . S
Cd2 O10 2.277 . S
O3 C0 1.160 . S
O3 Cd4 2.203 1_655 S
Cd4 O3 2.203 1_455 S
Cd4 O6 2.411 1_455 S
Cd4 O7 2.333 . S
Cd4 O8 2.352 . S
Cd4 O12 2.277 1_554 S
Cd4 O13 2.356 . S
C5 O10 1.209 1_456 S
C5 O12 1.226 . S
O6 Cd2 2.273 . S
O6 Cd4 2.411 1_655 S
O6 C9 1.320 1_655 S
O7 Cd4 2.333 . S
O7 C9 1.214 . S
O8 Cd4 2.352 . S
O8 C11 1.258 . S
C9 O6 1.320 1_455 S
C9 O7 1.214 . S
O10 Cd2 2.277 . S
O10 C5 1.209 1_654 S
C11 O8 1.258 . S
C11 O13 1.282 . S
O12 Cd4 2.277 1_556 S
O12 C5 1.226 . S
O13 Cd4 2.356 . S
O13 C11 1.282 . S
C14 O15 1.306 . S
C14 O17 1.160 . S
O15 C14 1.306 . S
O15 Cd16 2.228 . S
Cd16 O15 2.228 . S
Cd16 O20 2.273 . S
Cd16 O24 2.277 . S
O17 C14 1.160 . S
O17 Cd18 2.203 . S
Cd18 O17 2.203 . S
Cd18 O20 2.411 . S
Cd18 O21 2.333 . S
Cd18 O22 2.352 . S
Cd18 O26 2.277 . S
Cd18 O27 2.356 . S
C19 O24 1.209 . S
C19 O26 1.226 . S
O20 Cd16 2.273 . S
O20 Cd18 2.411 . S
O20 C23 1.320 . S
O21 Cd18 2.333 . S
O21 C23 1.214 . S
O22 Cd18 2.352 . S
O22 C25 1.258 . S
C23 O20 1.320 . S
C23 O21 1.214 . S
O24 Cd16 2.277 . S
O24 C19 1.209 . S
C25 O22 1.258 . S
C25 O27 1.282 . S
O26 Cd18 2.277 . S
O26 C19 1.226 . S
O27 Cd18 2.356 . S
O27 C25 1.282 . S
C28 O29 1.306 . S
C28 O31 1.160 . S
O29 C28 1.306 . S
O29 Cd30 2.228 . S
Cd30 O29 2.228 . S
Cd30 O34 2.273 . S
Cd30 O38 2.277 . S
O31 C28 1.160 . S
O31 Cd32 2.203 1_565 S
Cd32 O31 2.203 1_545 S
Cd32 O34 2.411 1_545 S
Cd32 O35 2.333 . S
Cd32 O36 2.368 . S
Cd32 O40 2.277 . S
Cd32 O41 2.356 . S
C33 O38 1.209 1_545 S
C33 O40 1.226 . S
O34 Cd30 2.273 . S
O34 Cd32 2.411 1_565 S
O34 C37 1.320 1_554 S
O35 Cd32 2.333 . S
O35 C37 1.214 1_544 S
O36 Cd32 2.368 . S
O36 C39 1.263 . S
C37 O34 1.320 1_556 S
C37 O35 1.214 1_566 S
O38 Cd30 2.277 . S
O38 C33 1.209 1_565 S
C39 O36 1.263 . S
C39 O41 1.282 . S
O40 Cd32 2.277 . S
O40 C33 1.226 . S
O41 Cd32 2.356 . S
O41 C39 1.282 . S
C42 O43 1.306 . S
C42 O45 1.160 . S
O43 C42 1.306 . S
O43 Cd44 2.228 . S
Cd44 O43 2.228 . S
Cd44 O48 2.273 . S
Cd44 O52 2.277 . S
O45 C42 1.160 . S
O45 Cd46 2.203 1_655 S
Cd46 O45 2.203 1_455 S
Cd46 O48 2.411 1_455 S
Cd46 O49 2.333 . S
Cd46 O50 2.352 . S
Cd46 O54 2.277 . S
Cd46 O55 2.356 . S
C47 O52 1.209 1_455 S
C47 O54 1.226 . S
O48 Cd44 2.273 . S
O48 Cd46 2.411 1_655 S
O48 C51 1.320 . S
O49 Cd46 2.333 . S
O49 C51 1.214 1_455 S
O50 Cd46 2.352 . S
O50 C53 1.258 . S
C51 O48 1.320 . S
C51 O49 1.214 1_655 S
O52 Cd44 2.277 . S
O52 C47 1.209 1_655 S
C53 O50 1.258 . S
C53 O55 1.282 . S
O54 Cd46 2.277 . S
O54 C47 1.226 . S
O55 Cd46 2.356 . S
O55 C53 1.282 . S
C56 O57 1.306 . S
C56 O59 1.160 . S
O57 C56 1.306 . S
O57 Cd58 2.228 . S
Cd58 O57 2.228 . S
Cd58 O62 2.273 1_554 S
Cd58 O66 2.277 . S
O59 C56 1.160 . S
O59 Cd60 2.203 . S
Cd60 O59 2.203 . S
Cd60 O62 2.411 1_554 S
Cd60 O63 2.333 1_554 S
Cd60 O64 2.352 1_554 S
Cd60 O68 2.277 . S
Cd60 O69 2.356 1_554 S
C61 O66 1.209 . S
C61 O68 1.226 . S
O62 Cd58 2.273 1_556 S
O62 Cd60 2.411 1_556 S
O62 C65 1.320 . S
O63 Cd60 2.333 1_556 S
O63 C65 1.214 . S
O64 Cd60 2.352 1_556 S
O64 C67 1.258 . S
C65 O62 1.320 . S
C65 O63 1.214 . S
O66 Cd58 2.277 . S
O66 C61 1.209 . S
C67 O64 1.258 . S
C67 O69 1.282 . S
O68 Cd60 2.277 . S
O68 C61 1.226 . S
O69 Cd60 2.356 1_556 S
O69 C67 1.282 . S
C70 O71 1.306 . S
C70 O73 1.160 . S
O71 C70 1.306 . S
O71 Cd72 2.228 . S
Cd72 O71 2.228 . S
Cd72 O76 2.273 . S
Cd72 O80 2.277 . S
O73 C70 1.160 . S
O73 Cd74 2.203 1_545 S
Cd74 O73 2.203 1_565 S
Cd74 O76 2.411 1_565 S
Cd74 O77 2.333 . S
Cd74 O78 2.352 . S
Cd74 O82 2.277 . S
Cd74 O83 2.356 . S
C75 O80 1.209 1_565 S
C75 O82 1.226 . S
O76 Cd72 2.273 . S
O76 Cd74 2.411 1_545 S
O76 C79 1.320 . S
O77 Cd74 2.333 . S
O77 C79 1.214 1_565 S
O78 Cd74 2.352 . S
O78 C81 1.258 . S
C79 O76 1.320 . S
C79 O77 1.214 1_545 S
O80 Cd72 2.277 . S
O80 C75 1.209 1_545 S
C81 O78 1.258 . S
C81 O83 1.282 . S
O82 Cd74 2.277 . S
O82 C75 1.226 . S
O83 Cd74 2.356 . S
O83 C81 1.282 . S
C84 O85 1.306 . S
C84 O87 1.160 . S
O85 C84 1.306 . S
O85 Cd86 2.228 . S
Cd86 O85 2.228 . S
Cd86 O90 2.273 . S
Cd86 O94 2.277 . S
O87 C84 1.160 . S
O87 Cd88 2.203 . S
Cd88 O87 2.203 . S
Cd88 O90 2.411 . S
Cd88 O91 2.333 . S
Cd88 O92 2.352 . S
Cd88 O96 2.277 . S
Cd88 O97 2.356 . S
C89 O94 1.209 . S
C89 O96 1.226 . S
O90 Cd86 2.273 . S
O90 Cd88 2.411 . S
O90 C93 1.320 . S
O91 Cd88 2.333 . S
O91 C93 1.214 . S
O92 Cd88 2.352 . S
O92 C95 1.258 . S
C93 O90 1.320 . S
C93 O91 1.214 . S
O94 Cd86 2.277 . S
O94 C89 1.209 . S
C95 O92 1.258 . S
C95 O97 1.282 . S
O96 Cd88 2.277 . S
O96 C89 1.226 . S
O97 Cd88 2.356 . S
O97 C95 1.282 . S
C98 O99 1.306 . S
C98 O101 1.160 . S
O99 C98 1.306 . S
O99 Cd100 2.228 . S
Cd100 O99 2.228 . S
Cd100 O104 2.273 . S
Cd100 O108 2.277 . S
O101 C98 1.160 . S
O101 Cd102 2.203 . S
Cd102 O101 2.203 . S
Cd102 O104 2.411 . S
Cd102 O105 2.333 . S
Cd102 O106 2.352 . S
Cd102 O110 2.277 . S
Cd102 O111 2.356 . S
C103 O108 1.209 . S
C103 O110 1.226 . S
O104 Cd100 2.273 . S
O104 Cd102 2.411 . S
O104 C107 1.320 . S
O105 Cd102 2.333 . S
O105 C107 1.214 . S
O106 Cd102 2.352 . S
O106 C109 1.258 . S
C107 O104 1.320 . S
C107 O105 1.214 . S
O108 Cd100 2.277 . S
O108 C103 1.209 . S
C109 O106 1.258 . S
C109 O111 1.282 . S
O110 Cd102 2.277 . S
O110 C103 1.226 . S
O111 Cd102 2.356 . S
O111 C109 1.282 . S
C112 O113 1.306 . S
C112 O115 1.160 . S
O113 C112 1.306 . S
O113 Cd114 2.228 . S
Cd114 O113 2.228 . S
Cd114 O118 2.273 . S
Cd114 O122 2.277 . S
O115 C112 1.160 . S
O115 Cd116 2.203 . S
Cd116 O115 2.203 . S
Cd116 O118 2.411 . S
Cd116 O119 2.333 . S
Cd116 O120 2.352 . S
Cd116 O124 2.277 . S
Cd116 O125 2.356 . S
C117 O122 1.209 . S
C117 O124 1.226 . S
O118 Cd114 2.273 . S
O118 Cd116 2.411 . S
O118 C121 1.320 . S
O119 Cd116 2.333 . S
O119 C121 1.214 . S
O120 Cd116 2.352 . S
O120 C123 1.258 . S
C121 O118 1.320 . S
C121 O119 1.214 . S
O122 Cd114 2.277 . S
O122 C117 1.209 . S
C123 O120 1.258 . S
C123 O125 1.282 . S
O124 Cd116 2.277 . S
O124 C117 1.226 . S
O125 Cd116 2.356 . S
O125 C123 1.282 . S
C126 O127 1.306 . S
C126 O129 1.160 . S
O127 C126 1.306 . S
O127 Cd128 2.228 . S
Cd128 O127 2.228 . S
Cd128 O132 2.273 . S
Cd128 O136 2.277 . S
O129 C126 1.160 . S
O129 Cd130 2.203 . S
Cd130 O129 2.203 . S
Cd130 O132 2.411 . S
Cd130 O133 2.333 . S
Cd130 O134 2.352 . S
Cd130 O138 2.277 . S
Cd130 O139 2.357 1_565 S
C131 O136 1.209 . S
C131 O138 1.226 . S
O132 Cd128 2.273 . S
O132 Cd130 2.411 . S
O132 C135 1.320 . S
O133 Cd130 2.333 . S
O133 C135 1.214 . S
O134 Cd130 2.352 . S
O134 C137 1.258 1_565 S
C135 O132 1.320 . S
C135 O133 1.214 . S
O136 Cd128 2.277 . S
O136 C131 1.209 . S
C137 O134 1.258 1_545 S
C137 O139 1.281 . S
O138 Cd130 2.277 . S
O138 C131 1.226 . S
O139 Cd130 2.357 1_545 S
O139 C137 1.281 . S
C140 O141 1.306 . S
C140 O143 1.160 . S
O141 C140 1.306 . S
O141 Cd142 2.228 . S
Cd142 O141 2.228 . S
Cd142 O146 2.273 . S
Cd142 O150 2.277 . S
O143 C140 1.160 . S
O143 Cd144 2.203 . S
Cd144 O143 2.203 . S
Cd144 O146 2.411 . S
Cd144 O147 2.333 . S
Cd144 O148 2.352 . S
Cd144 O152 2.277 . S
Cd144 O153 2.356 . S
C145 O150 1.209 . S
C145 O152 1.226 . S
O146 Cd142 2.273 . S
O146 Cd144 2.411 . S
O146 C149 1.320 . S
O147 Cd144 2.333 . S
O147 C149 1.214 . S
O148 Cd144 2.352 . S
O148 C151 1.258 . S
C149 O146 1.320 . S
C149 O147 1.214 . S
O150 Cd142 2.277 . S
O150 C145 1.209 . S
C151 O148 1.258 . S
C151 O153 1.282 . S
O152 Cd144 2.277 . S
O152 C145 1.226 . S
O153 Cd144 2.356 . S
O153 C151 1.282 . S
C154 O155 1.306 . S
C154 O157 1.160 . S
O155 C154 1.306 . S
O155 Cd156 2.228 . S
Cd156 O155 2.228 . S
Cd156 O160 2.273 . S
Cd156 O164 2.277 . S
O157 C154 1.160 . S
O157 Cd158 2.203 . S
Cd158 O157 2.203 . S
Cd158 O160 2.411 . S
Cd158 O161 2.333 . S
Cd158 O162 2.352 . S
Cd158 O166 2.277 . S
Cd158 O167 2.356 . S
C159 O164 1.209 . S
C159 O166 1.226 . S
O160 Cd156 2.273 . S
O160 Cd158 2.411 . S
O160 C163 1.320 . S
O161 Cd158 2.333 . S
O161 C163 1.214 . S
O162 Cd158 2.352 . S
O162 C165 1.258 . S
C163 O160 1.320 . S
C163 O161 1.214 . S
O164 Cd156 2.277 . S
O164 C159 1.209 . S
C165 O162 1.258 . S
C165 O167 1.282 . S
O166 Cd158 2.277 . S
O166 C159 1.226 . S
O167 Cd158 2.356 . S
O167 C165 1.282 . S
C168 O169 1.306 1_565 S
C168 O171 1.160 1_565 S
O169 C168 1.306 1_545 S
O169 Cd170 2.228 . S
Cd170 O169 2.228 . S
Cd170 O174 2.273 . S
Cd170 O178 2.277 . S
O171 C168 1.160 1_545 S
O171 Cd172 2.203 . S
Cd172 O171 2.203 . S
Cd172 O174 2.411 . S
Cd172 O175 2.333 . S
Cd172 O176 2.352 . S
Cd172 O180 2.277 . S
Cd172 O181 2.356 . S
C173 O178 1.209 . S
C173 O180 1.226 . S
O174 Cd170 2.273 . S
O174 Cd172 2.411 . S
O174 C177 1.320 . S
O175 Cd172 2.333 . S
O175 C177 1.214 . S
O176 Cd172 2.352 . S
O176 C179 1.258 . S
C177 O174 1.320 . S
C177 O175 1.214 . S
O178 Cd170 2.277 . S
O178 C173 1.209 . S
C179 O176 1.258 . S
C179 O181 1.282 . S
O180 Cd172 2.277 . S
O180 C173 1.226 . S
O181 Cd172 2.356 . S
O181 C179 1.282 . S
C182 O183 1.306 . S
C182 O185 1.160 . S
O183 C182 1.306 . S
O183 Cd184 2.228 . S
Cd184 O183 2.228 . S
Cd184 O188 2.273 . S
Cd184 O192 2.277 . S
O185 C182 1.160 . S
O185 Cd186 2.203 . S
Cd186 O185 2.203 . S
Cd186 O188 2.411 . S
Cd186 O189 2.333 . S
Cd186 O190 2.352 . S
Cd186 O194 2.277 . S
Cd186 O195 2.356 1_655 S
C187 O192 1.209 . S
C187 O194 1.226 . S
O188 Cd184 2.273 . S
O188 Cd186 2.411 . S
O188 C191 1.320 . S
O189 Cd186 2.333 . S
O189 C191 1.214 . S
O190 Cd186 2.352 . S
O190 C193 1.258 1_655 S
C191 O188 1.320 . S
C191 O189 1.214 . S
O192 Cd184 2.277 . S
O192 C187 1.209 . S
C193 O190 1.258 1_455 S
C193 O195 1.282 . S
O194 Cd186 2.277 . S
O194 C187 1.226 . S
O195 Cd186 2.356 1_455 S
O195 C193 1.282 . S
C196 O197 1.306 . S
C196 O199 1.160 . S
O197 C196 1.306 . S
O197 Cd198 2.228 . S
Cd198 O197 2.228 . S
Cd198 O202 2.273 . S
Cd198 O206 2.277 . S
O199 C196 1.160 . S
O199 Cd200 2.203 . S
Cd200 O199 2.203 . S
Cd200 O202 2.411 . S
Cd200 O203 2.333 . S
Cd200 O204 2.352 . S
Cd200 O208 2.277 . S
Cd200 O209 2.356 . S
C201 O206 1.209 . S
C201 O208 1.226 . S
O202 Cd198 2.273 . S
O202 Cd200 2.411 . S
O202 C205 1.320 . S
O203 Cd200 2.333 . S
O203 C205 1.214 . S
O204 Cd200 2.352 . S
O204 C207 1.258 . S
C205 O202 1.320 . S
C205 O203 1.214 . S
O206 Cd198 2.277 . S
O206 C201 1.209 . S
C207 O204 1.258 . S
C207 O209 1.282 . S
O208 Cd200 2.277 . S
O208 C201 1.226 . S
O209 Cd200 2.356 . S
O209 C207 1.282 . S
C210 O211 1.306 . S
C210 O213 1.160 . S
O211 C210 1.306 . S
O211 Cd212 2.228 . S
Cd212 O211 2.228 . S
Cd212 O216 2.273 . S
Cd212 O220 2.277 . S
O213 C210 1.160 . S
O213 Cd214 2.203 . S
Cd214 O213 2.203 . S
Cd214 O216 2.411 . S
Cd214 O217 2.333 . S
Cd214 O218 2.352 . S
Cd214 O222 2.277 . S
Cd214 O223 2.356 . S
C215 O220 1.209 . S
C215 O222 1.226 . S
O216 Cd212 2.273 . S
O216 Cd214 2.411 . S
O216 C219 1.320 . S
O217 Cd214 2.333 . S
O217 C219 1.214 . S
O218 Cd214 2.352 . S
O218 C221 1.258 . S
C219 O216 1.320 . S
C219 O217 1.214 . S
O220 Cd212 2.277 . S
O220 C215 1.209 . S
C221 O218 1.258 . S
C221 O223 1.282 . S
O222 Cd214 2.277 . S
O222 C215 1.226 . S
O223 Cd214 2.356 . S
O223 C221 1.282 . S
C224 O225 1.306 . S
C224 O227 1.160 . S
O225 C224 1.306 . S
O225 Cd226 2.228 . S
Cd226 O225 2.228 . S
Cd226 O230 2.273 . S
Cd226 O234 2.277 . S
O227 C224 1.160 . S
O227 Cd228 2.203 . S
Cd228 O227 2.203 . S
Cd228 O230 2.411 . S
Cd228 O231 2.333 . S
Cd228 O232 2.352 . S
Cd228 O236 2.277 . S
Cd228 O237 2.356 . S
C229 O234 1.209 . S
C229 O236 1.226 . S
O230 Cd226 2.273 . S
O230 Cd228 2.411 . S
O230 C233 1.320 . S
O231 Cd228 2.333 . S
O231 C233 1.214 . S
O232 Cd228 2.352 . S
O232 C235 1.314 . S
C233 O230 1.320 . S
C233 O231 1.214 . S
O234 Cd226 2.277 . S
O234 C229 1.209 . S
C235 O232 1.314 . S
C235 O237 1.272 . S
O236 Cd228 2.277 . S
O236 C229 1.226 . S
O237 Cd228 2.356 . S
O237 C235 1.272 . S
C238 O239 1.306 . S
C238 O241 1.160 . S
O239 C238 1.306 . S
O239 Cd240 2.228 . S
Cd240 O239 2.228 . S
Cd240 O244 2.273 . S
Cd240 O248 2.277 . S
O241 C238 1.160 . S
O241 Cd242 2.203 . S
Cd242 O241 2.203 . S
Cd242 O244 2.411 . S
Cd242 O245 2.333 . S
Cd242 O246 2.352 . S
Cd242 O250 2.277 . S
Cd242 O251 2.356 . S
C243 O248 1.209 . S
C243 O250 1.226 . S
O244 Cd240 2.273 . S
O244 Cd242 2.411 . S
O244 C247 1.320 . S
O245 Cd242 2.333 . S
O245 C247 1.214 . S
O246 Cd242 2.352 . S
O246 C249 1.258 . S
C247 O244 1.320 . S
C247 O245 1.214 . S
O248 Cd240 2.277 . S
O248 C243 1.209 . S
C249 O246 1.258 . S
C249 O251 1.282 . S
O250 Cd242 2.277 . S
O250 C243 1.226 . S
O251 Cd242 2.356 . S
O251 C249 1.282 . S
H252 O278 0.856 . S
H253 O281 0.854 . S
H254 C289 0.930 . S
H255 C290 0.930 . S
H256 C292 0.930 . S
H257 C293 0.930 . S
H258 C295 0.931 . S
H259 C296 0.930 . S
H260 C298 0.930 . S
H261 C299 0.929 . S
H262 C301 0.930 . S
H263 C302 0.931 . S
H264 C304 0.930 . S
H265 C305 0.929 . S
H266 C307 0.931 . S
H267 C308 0.930 . S
H268 C310 0.930 . S
H269 C311 0.932 . S
H270 C313 0.930 . S
H271 C314 0.929 . S
H272 C316 0.931 . S
H273 C317 0.930 . S
H274 C319 0.929 . S
H275 C320 0.931 . S
H276 C322 0.930 . S
H277 C323 0.929 . S
O278 H252 0.856 . S
O278 C324 1.300 . S
O279 C324 1.209 . S
O280 C325 1.199 . S
O281 H253 0.854 . S
O281 C325 1.297 . S
C282 C283 1.404 . S
C282 C287 1.397 . S
C282 C288 1.492 . S
C283 C282 1.404 . S
C283 C284 1.396 . S
C283 C294 1.492 . S
C284 C283 1.396 . S
C284 C285 1.397 . S
C284 C300 1.509 . S
C285 C284 1.397 . S
C285 C286 1.412 . S
C285 C306 1.485 . S
C286 C285 1.412 . S
C286 C287 1.388 . S
C286 C312 1.490 . S
C287 C282 1.397 . S
C287 C286 1.388 . S
C287 C318 1.519 . S
C288 C282 1.492 . S
C288 C289 1.363 . S
C288 C293 1.390 . S
C289 H254 0.930 . S
C289 C288 1.363 . S
C289 C290 1.372 . S
C290 H255 0.930 . S
C290 C289 1.372 . S
C290 C291 1.383 . S
C291 C290 1.383 . S
C291 C292 1.395 . S
C292 H256 0.930 . S
C292 C291 1.395 . S
C292 C293 1.362 . S
C293 H257 0.930 . S
C293 C288 1.390 . S
C293 C292 1.362 . S
C294 C283 1.492 . S
C294 C295 1.377 . S
C294 C299 1.397 . S
C295 H258 0.931 . S
C295 C294 1.377 . S
C295 C296 1.376 . S
C296 H259 0.930 . S
C296 C295 1.376 . S
C296 C297 1.376 . S
C297 C296 1.376 . S
C297 C298 1.378 . S
C297 C324 1.486 . S
C298 H260 0.930 . S
C298 C297 1.378 . S
C298 C299 1.376 . S
C299 H261 0.929 . S
C299 C294 1.397 . S
C299 C298 1.376 . S
C300 C284 1.509 . S
C300 C301 1.391 . S
C300 C305 1.386 . S
C301 H262 0.930 . S
C301 C300 1.391 . S
C301 C302 1.375 . S
C302 H263 0.931 . S
C302 C301 1.375 . S
C302 C303 1.375 . S
C303 C302 1.375 . S
C303 C304 1.361 . S
C304 H264 0.930 . S
C304 C303 1.361 . S
C304 C305 1.399 . S
C305 H265 0.929 . S
C305 C300 1.386 . S
C305 C304 1.399 . S
C306 C285 1.485 . S
C306 C307 1.394 . S
C306 C311 1.360 . S
C307 H266 0.931 . S
C307 C306 1.394 . S
C307 C308 1.372 . S
C308 H267 0.930 . S
C308 C307 1.372 . S
C308 C309 1.397 . S
C309 C308 1.397 . S
C309 C310 1.390 . S
C309 C325 1.476 . S
C310 H268 0.930 . S
C310 C309 1.390 . S
C310 C311 1.366 . S
C311 H269 0.932 . S
C311 C306 1.360 . S
C311 C310 1.366 . S
C312 C286 1.490 . S
C312 C313 1.380 . S
C312 C317 1.386 . S
C313 H270 0.930 . S
C313 C312 1.380 . S
C313 C314 1.381 . S
C314 H271 0.929 . S
C314 C313 1.381 . S
C314 C315 1.371 . S
C315 C314 1.371 . S
C315 C316 1.380 . S
C316 H272 0.931 . S
C316 C315 1.380 . S
C316 C317 1.387 . S
C317 H273 0.930 . S
C317 C312 1.386 . S
C317 C316 1.387 . S
C318 C287 1.519 . S
C318 C319 1.377 . S
C318 C323 1.361 . S
C319 H274 0.929 . S
C319 C318 1.377 . S
C319 C320 1.386 . S
C320 H275 0.931 . S
C320 C319 1.386 . S
C320 C321 1.363 . S
C321 C320 1.363 . S
C321 C322 1.385 . S
C322 H276 0.930 . S
C322 C321 1.385 . S
C322 C323 1.396 . S
C323 H277 0.929 . S
C323 C318 1.361 . S
C323 C322 1.396 . S
C324 O278 1.300 . S
C324 O279 1.209 . S
C324 C297 1.486 . S
C325 O280 1.199 . S
C325 O281 1.297 . S
C325 C309 1.476 . S
H326 O352 0.856 . S
H327 O355 0.854 . S
H328 C363 0.930 . S
H329 C364 0.930 . S
H330 C366 0.930 . S
H331 C367 0.930 . S
H332 C369 0.931 . S
H333 C370 0.930 . S
H334 C372 0.930 . S
H335 C373 0.929 . S
H336 C375 0.930 . S
H337 C376 0.931 . S
H338 C378 0.930 . S
H339 C379 0.929 . S
H340 C381 0.931 . S
H341 C382 0.930 . S
H342 C384 0.930 . S
H343 C385 0.932 . S
H344 C387 0.930 . S
H345 C388 0.929 . S
H346 C390 0.931 . S
H347 C391 0.930 . S
H348 C393 0.929 . S
H349 C394 0.931 . S
H350 C396 0.930 . S
H351 C397 0.929 . S
O352 H326 0.856 . S
O352 C398 1.300 . S
O353 C398 1.209 . S
O354 C399 1.199 . S
O355 H327 0.854 . S
O355 C399 1.297 . S
C356 C357 1.404 . S
C356 C361 1.397 . S
C356 C362 1.492 . S
C357 C356 1.404 . S
C357 C358 1.396 . S
C357 C368 1.492 . S
C358 C357 1.396 . S
C358 C359 1.397 . S
C358 C374 1.509 . S
C359 C358 1.397 . S
C359 C360 1.412 . S
C359 C380 1.485 . S
C360 C359 1.412 . S
C360 C361 1.388 . S
C360 C386 1.490 . S
C361 C356 1.397 . S
C361 C360 1.388 . S
C361 C392 1.519 . S
C362 C356 1.492 . S
C362 C363 1.363 . S
C362 C367 1.390 . S
C363 H328 0.930 . S
C363 C362 1.363 . S
C363 C364 1.372 . S
C364 H329 0.930 . S
C364 C363 1.372 . S
C364 C365 1.383 . S
C365 C364 1.383 . S
C365 C366 1.395 . S
C366 H330 0.930 . S
C366 C365 1.395 . S
C366 C367 1.362 . S
C367 H331 0.930 . S
C367 C362 1.390 . S
C367 C366 1.362 . S
C368 C357 1.492 . S
C368 C369 1.377 . S
C368 C373 1.397 . S
C369 H332 0.931 . S
C369 C368 1.377 . S
C369 C370 1.376 . S
C370 H333 0.930 . S
C370 C369 1.376 . S
C370 C371 1.376 . S
C371 C370 1.376 . S
C371 C372 1.378 . S
C371 C398 1.486 . S
C372 H334 0.930 . S
C372 C371 1.378 . S
C372 C373 1.376 . S
C373 H335 0.929 . S
C373 C368 1.397 . S
C373 C372 1.376 . S
C374 C358 1.509 . S
C374 C375 1.391 . S
C374 C379 1.386 . S
C375 H336 0.930 . S
C375 C374 1.391 . S
C375 C376 1.375 . S
C376 H337 0.931 . S
C376 C375 1.375 . S
C376 C377 1.375 . S
C377 C376 1.375 . S
C377 C378 1.361 . S
C378 H338 0.930 . S
C378 C377 1.361 . S
C378 C379 1.399 . S
C379 H339 0.929 . S
C379 C374 1.386 . S
C379 C378 1.399 . S
C380 C359 1.485 . S
C380 C381 1.394 . S
C380 C385 1.360 . S
C381 H340 0.931 . S
C381 C380 1.394 . S
C381 C382 1.372 . S
C382 H341 0.930 . S
C382 C381 1.372 . S
C382 C383 1.397 . S
C383 C382 1.397 . S
C383 C384 1.390 . S
C383 C399 1.476 . S
C384 H342 0.930 . S
C384 C383 1.390 . S
C384 C385 1.366 . S
C385 H343 0.932 . S
C385 C380 1.360 . S
C385 C384 1.366 . S
C386 C360 1.490 . S
C386 C387 1.380 . S
C386 C391 1.386 . S
C387 H344 0.930 . S
C387 C386 1.380 . S
C387 C388 1.381 . S
C388 H345 0.929 . S
C388 C387 1.381 . S
C388 C389 1.371 . S
C389 C388 1.371 . S
C389 C390 1.380 . S
C390 H346 0.931 . S
C390 C389 1.380 . S
C390 C391 1.387 . S
C391 H347 0.930 . S
C391 C386 1.386 . S
C391 C390 1.387 . S
C392 C361 1.519 . S
C392 C393 1.377 . S
C392 C397 1.361 . S
C393 H348 0.929 . S
C393 C392 1.377 . S
C393 C394 1.386 . S
C394 H349 0.931 . S
C394 C393 1.386 . S
C394 C395 1.363 . S
C395 C394 1.363 . S
C395 C396 1.385 . S
C396 H350 0.930 . S
C396 C395 1.385 . S
C396 C397 1.396 . S
C397 H351 0.929 . S
C397 C392 1.361 . S
C397 C396 1.396 . S
C398 O352 1.300 . S
C398 O353 1.209 . S
C398 C371 1.486 . S
C399 O354 1.199 . S
C399 O355 1.297 . S
C399 C383 1.476 . S
H400 O426 0.856 . S
H401 O429 0.854 . S
H402 C437 0.930 . S
H403 C438 0.930 . S
H404 C440 0.930 . S
H405 C441 0.930 . S
H406 C443 0.931 . S
H407 C444 0.930 . S
H408 C446 0.930 . S
H409 C447 0.929 . S
H410 C449 0.930 . S
H411 C450 0.931 . S
H412 C452 0.930 . S
H413 C453 0.929 . S
H414 C455 0.931 . S
H415 C456 0.930 . S
H416 C458 0.930 . S
H417 C459 0.932 . S
H418 C461 0.930 . S
H419 C462 0.929 . S
H420 C464 0.931 . S
H421 C465 0.930 . S
H422 C467 0.929 . S
H423 C468 0.931 . S
H424 C470 0.930 . S
H425 C471 0.929 . S
O426 H400 0.856 . S
O426 C472 1.300 . S
O427 C472 1.209 . S
O428 C473 1.199 . S
O429 H401 0.854 . S
O429 C473 1.297 . S
C430 C431 1.404 . S
C430 C435 1.397 . S
C430 C436 1.492 . S
C431 C430 1.404 . S
C431 C432 1.396 . S
C431 C442 1.492 . S
C432 C431 1.396 . S
C432 C433 1.397 . S
C432 C448 1.509 . S
C433 C432 1.397 . S
C433 C434 1.412 . S
C433 C454 1.485 . S
C434 C433 1.412 . S
C434 C435 1.388 . S
C434 C460 1.490 . S
C435 C430 1.397 . S
C435 C434 1.388 . S
C435 C466 1.519 . S
C436 C430 1.492 . S
C436 C437 1.363 . S
C436 C441 1.390 . S
C437 H402 0.930 . S
C437 C436 1.363 . S
C437 C438 1.372 . S
C438 H403 0.930 . S
C438 C437 1.372 . S
C438 C439 1.383 . S
C439 C438 1.383 . S
C439 C440 1.395 . S
C440 H404 0.930 . S
C440 C439 1.395 . S
C440 C441 1.362 . S
C441 H405 0.930 . S
C441 C436 1.390 . S
C441 C440 1.362 . S
C442 C431 1.492 . S
C442 C443 1.377 . S
C442 C447 1.397 . S
C443 H406 0.931 . S
C443 C442 1.377 . S
C443 C444 1.376 . S
C444 H407 0.930 . S
C444 C443 1.376 . S
C444 C445 1.376 . S
C445 C444 1.376 . S
C445 C446 1.378 . S
C445 C472 1.486 . S
C446 H408 0.930 . S
C446 C445 1.378 . S
C446 C447 1.376 . S
C447 H409 0.929 . S
C447 C442 1.397 . S
C447 C446 1.376 . S
C448 C432 1.509 . S
C448 C449 1.391 . S
C448 C453 1.386 . S
C449 H410 0.930 . S
C449 C448 1.391 . S
C449 C450 1.375 . S
C450 H411 0.931 . S
C450 C449 1.375 . S
C450 C451 1.375 . S
C451 C450 1.375 . S
C451 C452 1.361 . S
C452 H412 0.930 . S
C452 C451 1.361 . S
C452 C453 1.399 . S
C453 H413 0.929 . S
C453 C448 1.386 . S
C453 C452 1.399 . S
C454 C433 1.485 . S
C454 C455 1.394 . S
C454 C459 1.360 . S
C455 H414 0.931 . S
C455 C454 1.394 . S
C455 C456 1.372 . S
C456 H415 0.930 . S
C456 C455 1.372 . S
C456 C457 1.397 . S
C457 C456 1.397 . S
C457 C458 1.390 . S
C457 C473 1.476 . S
C458 H416 0.930 . S
C458 C457 1.390 . S
C458 C459 1.366 . S
C459 H417 0.932 . S
C459 C454 1.360 . S
C459 C458 1.366 . S
C460 C434 1.490 . S
C460 C461 1.380 . S
C460 C465 1.386 . S
C461 H418 0.930 . S
C461 C460 1.380 . S
C461 C462 1.381 . S
C462 H419 0.929 . S
C462 C461 1.381 . S
C462 C463 1.371 . S
C463 C462 1.371 . S
C463 C464 1.380 . S
C464 H420 0.931 . S
C464 C463 1.380 . S
C464 C465 1.387 . S
C465 H421 0.930 . S
C465 C460 1.386 . S
C465 C464 1.387 . S
C466 C435 1.519 . S
C466 C467 1.377 . S
C466 C471 1.361 . S
C467 H422 0.929 . S
C467 C466 1.377 . S
C467 C468 1.386 . S
C468 H423 0.931 . S
C468 C467 1.386 . S
C468 C469 1.363 . S
C469 C468 1.363 . S
C469 C470 1.385 . S
C470 H424 0.930 . S
C470 C469 1.385 . S
C470 C471 1.396 . S
C471 H425 0.929 . S
C471 C466 1.361 . S
C471 C470 1.396 . S
C472 O426 1.300 . S
C472 O427 1.209 . S
C472 C445 1.486 . S
C473 O428 1.199 . S
C473 O429 1.297 . S
C473 C457 1.476 . S
H474 O500 0.856 . S
H475 O503 0.854 . S
H476 C511 0.930 . S
H477 C512 0.930 . S
H478 C514 0.930 . S
H479 C515 0.930 . S
H480 C517 0.931 . S
H481 C518 0.930 . S
H482 C520 0.930 . S
H483 C521 0.929 . S
H484 C523 0.930 . S
H485 C524 0.931 . S
H486 C526 0.930 . S
H487 C527 0.929 . S
H488 C529 0.931 . S
H489 C530 0.930 . S
H490 C532 0.930 . S
H491 C533 0.932 . S
H492 C535 0.930 . S
H493 C536 0.929 . S
H494 C538 0.931 . S
H495 C539 0.930 . S
H496 C541 0.929 . S
H497 C542 0.931 . S
H498 C544 0.930 . S
H499 C545 0.929 . S
O500 H474 0.856 . S
O500 C546 1.300 . S
O501 C546 1.209 . S
O502 C547 1.199 . S
O503 H475 0.854 . S
O503 C547 1.297 . S
C504 C505 1.404 . S
C504 C509 1.397 . S
C504 C510 1.492 . S
C505 C504 1.404 . S
C505 C506 1.396 . S
C505 C516 1.492 . S
C506 C505 1.396 . S
C506 C507 1.397 . S
C506 C522 1.509 . S
C507 C506 1.397 . S
C507 C508 1.412 . S
C507 C528 1.485 . S
C508 C507 1.412 . S
C508 C509 1.388 . S
C508 C534 1.490 . S
C509 C504 1.397 . S
C509 C508 1.388 . S
C509 C540 1.519 . S
C510 C504 1.492 . S
C510 C511 1.363 . S
C510 C515 1.390 . S
C511 H476 0.930 . S
C511 C510 1.363 . S
C511 C512 1.372 . S
C512 H477 0.930 . S
C512 C511 1.372 . S
C512 C513 1.383 . S
C513 C512 1.383 . S
C513 C514 1.395 . S
C514 H478 0.930 . S
C514 C513 1.395 . S
C514 C515 1.362 . S
C515 H479 0.930 . S
C515 C510 1.390 . S
C515 C514 1.362 . S
C516 C505 1.492 . S
C516 C517 1.377 . S
C516 C521 1.397 . S
C517 H480 0.931 . S
C517 C516 1.377 . S
C517 C518 1.376 . S
C518 H481 0.930 . S
C518 C517 1.376 . S
C518 C519 1.376 . S
C519 C518 1.376 . S
C519 C520 1.378 . S
C519 C546 1.486 1_556 S
C520 H482 0.930 . S
C520 C519 1.378 . S
C520 C521 1.376 . S
C521 H483 0.929 . S
C521 C516 1.397 . S
C521 C520 1.376 . S
C522 C506 1.509 . S
C522 C523 1.391 . S
C522 C527 1.386 . S
C523 H484 0.930 . S
C523 C522 1.391 . S
C523 C524 1.375 . S
C524 H485 0.931 . S
C524 C523 1.375 . S
C524 C525 1.375 . S
C525 C524 1.375 . S
C525 C526 1.361 . S
C526 H486 0.930 . S
C526 C525 1.361 . S
C526 C527 1.399 . S
C527 H487 0.929 . S
C527 C522 1.386 . S
C527 C526 1.399 . S
C528 C507 1.485 . S
C528 C529 1.394 . S
C528 C533 1.360 . S
C529 H488 0.931 . S
C529 C528 1.394 . S
C529 C530 1.372 . S
C530 H489 0.930 . S
C530 C529 1.372 . S
C530 C531 1.397 . S
C531 C530 1.397 . S
C531 C532 1.390 . S
C531 C547 1.476 . S
C532 H490 0.930 . S
C532 C531 1.390 . S
C532 C533 1.366 . S
C533 H491 0.932 . S
C533 C528 1.360 . S
C533 C532 1.366 . S
C534 C508 1.490 . S
C534 C535 1.380 . S
C534 C539 1.386 . S
C535 H492 0.930 . S
C535 C534 1.380 . S
C535 C536 1.381 . S
C536 H493 0.929 . S
C536 C535 1.381 . S
C536 C537 1.371 . S
C537 C536 1.371 . S
C537 C538 1.380 . S
C538 H494 0.931 . S
C538 C537 1.380 . S
C538 C539 1.387 . S
C539 H495 0.930 . S
C539 C534 1.386 . S
C539 C538 1.387 . S
C540 C509 1.519 . S
C540 C541 1.377 . S
C540 C545 1.361 . S
C541 H496 0.929 . S
C541 C540 1.377 . S
C541 C542 1.386 . S
C542 H497 0.931 . S
C542 C541 1.386 . S
C542 C543 1.363 . S
C543 C542 1.363 . S
C543 C544 1.385 . S
C544 H498 0.930 . S
C544 C543 1.385 . S
C544 C545 1.396 . S
C545 H499 0.929 . S
C545 C540 1.361 . S
C545 C544 1.396 . S
C546 O500 1.300 . S
C546 O501 1.209 . S
C546 C519 1.486 1_554 S
C547 O502 1.199 . S
C547 O503 1.297 . S
C547 C531 1.476 . S
H548 O574 0.856 . S
H549 O577 0.854 . S
H550 C585 0.930 . S
H551 C586 0.930 . S
H552 C588 0.930 . S
H553 C589 0.930 . S
H554 C591 0.931 . S
H555 C592 0.930 . S
H556 C594 0.930 . S
H557 C595 0.929 . S
H558 C597 0.930 . S
H559 C598 0.931 . S
H560 C600 0.930 . S
H561 C601 0.929 . S
H562 C603 0.931 . S
H563 C604 0.930 . S
H564 C606 0.930 . S
H565 C607 0.932 . S
H566 C609 0.930 . S
H567 C610 0.929 . S
H568 C612 0.931 . S
H569 C613 0.930 . S
H570 C615 0.929 . S
H571 C616 0.931 . S
H572 C618 0.930 . S
H573 C619 0.929 . S
O574 H548 0.856 . S
O574 C620 1.300 . S
O575 C620 1.209 . S
O576 C621 1.199 . S
O577 H549 0.854 . S
O577 C621 1.297 . S
C578 C579 1.404 . S
C578 C583 1.397 . S
C578 C584 1.492 . S
C579 C578 1.404 . S
C579 C580 1.396 . S
C579 C590 1.492 . S
C580 C579 1.396 . S
C580 C581 1.397 . S
C580 C596 1.509 . S
C581 C580 1.397 . S
C581 C582 1.412 . S
C581 C602 1.485 . S
C582 C581 1.412 . S
C582 C583 1.388 . S
C582 C608 1.490 . S
C583 C578 1.397 . S
C583 C582 1.388 . S
C583 C614 1.519 . S
C584 C578 1.492 . S
C584 C585 1.363 . S
C584 C589 1.390 . S
C585 H550 0.930 . S
C585 C584 1.363 . S
C585 C586 1.372 . S
C586 H551 0.930 . S
C586 C585 1.372 . S
C586 C587 1.383 . S
C587 C586 1.383 . S
C587 C588 1.395 . S
C588 H552 0.930 . S
C588 C587 1.395 . S
C588 C589 1.362 . S
C589 H553 0.930 . S
C589 C584 1.390 . S
C589 C588 1.362 . S
C590 C579 1.492 . S
C590 C591 1.377 . S
C590 C595 1.397 . S
C591 H554 0.931 . S
C591 C590 1.377 . S
C591 C592 1.376 . S
C592 H555 0.930 . S
C592 C591 1.376 . S
C592 C593 1.376 . S
C593 C592 1.376 . S
C593 C594 1.378 . S
C593 C620 1.486 1_556 S
C594 H556 0.930 . S
C594 C593 1.378 . S
C594 C595 1.376 . S
C595 H557 0.929 . S
C595 C590 1.397 . S
C595 C594 1.376 . S
C596 C580 1.509 . S
C596 C597 1.391 . S
C596 C601 1.386 . S
C597 H558 0.930 . S
C597 C596 1.391 . S
C597 C598 1.375 . S
C598 H559 0.931 . S
C598 C597 1.375 . S
C598 C599 1.375 . S
C599 C598 1.375 . S
C599 C600 1.361 . S
C600 H560 0.930 . S
C600 C599 1.361 . S
C600 C601 1.399 . S
C601 H561 0.929 . S
C601 C596 1.386 . S
C601 C600 1.399 . S
C602 C581 1.485 . S
C602 C603 1.394 . S
C602 C607 1.360 . S
C603 H562 0.931 . S
C603 C602 1.394 . S
C603 C604 1.372 . S
C604 H563 0.930 . S
C604 C603 1.372 . S
C604 C605 1.397 . S
C605 C604 1.397 . S
C605 C606 1.390 . S
C605 C621 1.476 . S
C606 H564 0.930 . S
C606 C605 1.390 . S
C606 C607 1.366 . S
C607 H565 0.932 . S
C607 C602 1.360 . S
C607 C606 1.366 . S
C608 C582 1.490 . S
C608 C609 1.380 . S
C608 C613 1.386 . S
C609 H566 0.930 . S
C609 C608 1.380 . S
C609 C610 1.381 . S
C610 H567 0.929 . S
C610 C609 1.381 . S
C610 C611 1.371 . S
C611 C610 1.371 . S
C611 C612 1.380 . S
C612 H568 0.931 . S
C612 C611 1.380 . S
C612 C613 1.387 . S
C613 H569 0.930 . S
C613 C608 1.386 . S
C613 C612 1.387 . S
C614 C583 1.519 . S
C614 C615 1.377 . S
C614 C619 1.361 . S
C615 H570 0.929 . S
C615 C614 1.377 . S
C615 C616 1.386 . S
C616 H571 0.931 . S
C616 C615 1.386 . S
C616 C617 1.363 . S
C617 C616 1.363 . S
C617 C618 1.385 . S
C618 H572 0.930 . S
C618 C617 1.385 . S
C618 C619 1.396 . S
C619 H573 0.929 . S
C619 C614 1.361 . S
C619 C618 1.396 . S
C620 O574 1.300 . S
C620 O575 1.209 . S
C620 C593 1.486 1_554 S
C621 O576 1.199 . S
C621 O577 1.297 . S
C621 C605 1.476 . S
H622 O648 0.856 . S
H623 O651 0.854 . S
H624 C659 0.930 . S
H625 C660 0.930 . S
H626 C662 0.930 . S
H627 C663 0.930 . S
H628 C665 0.931 . S
H629 C666 0.930 1_554 S
H630 C668 0.930 . S
H631 C669 0.929 . S
H632 C671 0.930 . S
H633 C672 0.931 . S
H634 C674 0.930 . S
H635 C675 0.929 . S
H636 C677 0.931 . S
H637 C678 0.930 . S
H638 C680 0.930 . S
H639 C681 0.932 . S
H640 C683 0.930 . S
H641 C684 0.929 . S
H642 C686 0.931 . S
H643 C687 0.930 . S
H644 C689 0.929 . S
H645 C690 0.931 . S
H646 C692 0.930 . S
H647 C693 0.929 . S
O648 H622 0.856 . S
O648 C694 1.300 . S
O649 C694 1.209 . S
O650 C695 1.199 . S
O651 H623 0.854 . S
O651 C695 1.297 . S
C652 C653 1.404 . S
C652 C657 1.397 . S
C652 C658 1.492 . S
C653 C652 1.404 . S
C653 C654 1.396 . S
C653 C664 1.492 . S
C654 C653 1.396 . S
C654 C655 1.397 . S
C654 C670 1.509 . S
C655 C654 1.397 . S
C655 C656 1.412 . S
C655 C676 1.485 . S
C656 C655 1.412 . S
C656 C657 1.388 . S
C656 C682 1.490 . S
C657 C652 1.397 . S
C657 C656 1.388 . S
C657 C688 1.519 . S
C658 C652 1.492 . S
C658 C659 1.363 . S
C658 C663 1.390 . S
C659 H624 0.930 . S
C659 C658 1.363 . S
C659 C660 1.372 . S
C660 H625 0.930 . S
C660 C659 1.372 . S
C660 C661 1.383 . S
C661 C660 1.383 . S
C661 C662 1.395 . S
C662 H626 0.930 . S
C662 C661 1.395 . S
C662 C663 1.362 . S
C663 H627 0.930 . S
C663 C658 1.390 . S
C663 C662 1.362 . S
C664 C653 1.492 . S
C664 C665 1.377 . S
C664 C669 1.397 . S
C665 H628 0.931 . S
C665 C664 1.377 . S
C665 C666 1.376 . S
C666 H629 0.930 1_556 S
C666 C665 1.376 . S
C666 C667 1.376 1_556 S
C667 C666 1.376 1_554 S
C667 C668 1.378 1_554 S
C667 C694 1.486 . S
C668 H630 0.930 . S
C668 C667 1.378 1_556 S
C668 C669 1.376 . S
C669 H631 0.929 . S
C669 C664 1.397 . S
C669 C668 1.376 . S
C670 C654 1.509 . S
C670 C671 1.391 . S
C670 C675 1.386 . S
C671 H632 0.930 . S
C671 C670 1.391 . S
C671 C672 1.375 . S
C672 H633 0.931 . S
C672 C671 1.375 . S
C672 C673 1.375 . S
C673 C672 1.375 . S
C673 C674 1.361 . S
C674 H634 0.930 . S
C674 C673 1.361 . S
C674 C675 1.399 . S
C675 H635 0.929 . S
C675 C670 1.386 . S
C675 C674 1.399 . S
C676 C655 1.485 . S
C676 C677 1.394 . S
C676 C681 1.360 . S
C677 H636 0.931 . S
C677 C676 1.394 . S
C677 C678 1.372 . S
C678 H637 0.930 . S
C678 C677 1.372 . S
C678 C679 1.397 . S
C679 C678 1.397 . S
C679 C680 1.390 . S
C679 C695 1.476 . S
C680 H638 0.930 . S
C680 C679 1.390 . S
C680 C681 1.366 . S
C681 H639 0.932 . S
C681 C676 1.360 . S
C681 C680 1.366 . S
C682 C656 1.490 . S
C682 C683 1.380 . S
C682 C687 1.386 . S
C683 H640 0.930 . S
C683 C682 1.380 . S
C683 C684 1.381 . S
C684 H641 0.929 . S
C684 C683 1.381 . S
C684 C685 1.371 . S
C685 C684 1.371 . S
C685 C686 1.380 . S
C686 H642 0.931 . S
C686 C685 1.380 . S
C686 C687 1.387 . S
C687 H643 0.930 . S
C687 C682 1.386 . S
C687 C686 1.387 . S
C688 C657 1.519 . S
C688 C689 1.377 . S
C688 C693 1.361 . S
C689 H644 0.929 . S
C689 C688 1.377 . S
C689 C690 1.386 . S
C690 H645 0.931 . S
C690 C689 1.386 . S
C690 C691 1.363 . S
C691 C690 1.363 . S
C691 C692 1.385 . S
C692 H646 0.930 . S
C692 C691 1.385 . S
C692 C693 1.396 . S
C693 H647 0.929 . S
C693 C688 1.361 . S
C693 C692 1.396 . S
C694 O648 1.300 . S
C694 O649 1.209 . S
C694 C667 1.486 . S
C695 O650 1.199 . S
C695 O651 1.297 . S
C695 C679 1.476 . S
H696 O722 0.856 . S
H697 O725 0.854 . S
H698 C733 0.930 . S
H699 C734 0.930 . S
H700 C736 0.930 . S
H701 C737 0.930 . S
H702 C739 0.931 . S
H703 C740 0.930 . S
H704 C742 0.930 . S
H705 C743 0.929 . S
H706 C745 0.930 . S
H707 C746 0.931 . S
H708 C748 0.930 . S
H709 C749 0.929 . S
H710 C751 0.931 . S
H711 C752 0.930 . S
H712 C754 0.930 . S
H713 C755 0.932 . S
H714 C757 0.930 . S
H715 C758 0.929 . S
H716 C760 0.931 . S
H717 C761 0.930 . S
H718 C763 0.929 . S
H719 C764 0.931 . S
H720 C766 0.930 . S
H721 C767 0.929 . S
O722 H696 0.856 . S
O722 C768 1.300 . S
O723 C768 1.209 . S
O724 C769 1.199 . S
O725 H697 0.854 . S
O725 C769 1.297 . S
C726 C727 1.404 . S
C726 C731 1.397 . S
C726 C732 1.492 . S
C727 C726 1.404 . S
C727 C728 1.396 . S
C727 C738 1.492 . S
C728 C727 1.396 . S
C728 C729 1.397 . S
C728 C744 1.509 . S
C729 C728 1.397 . S
C729 C730 1.412 . S
C729 C750 1.485 . S
C730 C729 1.412 . S
C730 C731 1.388 . S
C730 C756 1.490 . S
C731 C726 1.397 . S
C731 C730 1.388 . S
C731 C762 1.519 . S
C732 C726 1.492 . S
C732 C733 1.363 . S
C732 C737 1.390 . S
C733 H698 0.930 . S
C733 C732 1.363 . S
C733 C734 1.372 . S
C734 H699 0.930 . S
C734 C733 1.372 . S
C734 C735 1.383 . S
C735 C734 1.383 . S
C735 C736 1.395 . S
C736 H700 0.930 . S
C736 C735 1.395 . S
C736 C737 1.362 . S
C737 H701 0.930 . S
C737 C732 1.390 . S
C737 C736 1.362 . S
C738 C727 1.492 . S
C738 C739 1.377 . S
C738 C743 1.397 . S
C739 H702 0.931 . S
C739 C738 1.377 . S
C739 C740 1.376 . S
C740 H703 0.930 . S
C740 C739 1.376 . S
C740 C741 1.376 . S
C741 C740 1.376 . S
C741 C742 1.378 . S
C741 C768 1.486 . S
C742 H704 0.930 . S
C742 C741 1.378 . S
C742 C743 1.376 . S
C743 H705 0.929 . S
C743 C738 1.397 . S
C743 C742 1.376 . S
C744 C728 1.509 . S
C744 C745 1.391 . S
C744 C749 1.386 . S
C745 H706 0.930 . S
C745 C744 1.391 . S
C745 C746 1.375 . S
C746 H707 0.931 . S
C746 C745 1.375 . S
C746 C747 1.375 . S
C747 C746 1.375 . S
C747 C748 1.361 . S
C748 H708 0.930 . S
C748 C747 1.361 . S
C748 C749 1.399 . S
C749 H709 0.929 . S
C749 C744 1.386 . S
C749 C748 1.399 . S
C750 C729 1.485 . S
C750 C751 1.394 . S
C750 C755 1.360 . S
C751 H710 0.931 . S
C751 C750 1.394 . S
C751 C752 1.372 . S
C752 H711 0.930 . S
C752 C751 1.372 . S
C752 C753 1.397 . S
C753 C752 1.397 . S
C753 C754 1.390 . S
C753 C769 1.476 . S
C754 H712 0.930 . S
C754 C753 1.390 . S
C754 C755 1.366 . S
C755 H713 0.932 . S
C755 C750 1.360 . S
C755 C754 1.366 . S
C756 C730 1.490 . S
C756 C757 1.380 . S
C756 C761 1.386 . S
C757 H714 0.930 . S
C757 C756 1.380 . S
C757 C758 1.381 . S
C758 H715 0.929 . S
C758 C757 1.381 . S
C758 C759 1.371 . S
C759 C758 1.371 . S
C759 C760 1.380 . S
C760 H716 0.931 . S
C760 C759 1.380 . S
C760 C761 1.387 . S
C761 H717 0.930 . S
C761 C756 1.386 . S
C761 C760 1.387 . S
C762 C731 1.519 . S
C762 C763 1.377 . S
C762 C767 1.361 . S
C763 H718 0.929 . S
C763 C762 1.377 . S
C763 C764 1.386 . S
C764 H719 0.931 . S
C764 C763 1.386 . S
C764 C765 1.363 . S
C765 C764 1.363 . S
C765 C766 1.385 . S
C766 H720 0.930 . S
C766 C765 1.385 . S
C766 C767 1.396 . S
C767 H721 0.929 . S
C767 C762 1.361 . S
C767 C766 1.396 . S
C768 O722 1.300 . S
C768 O723 1.209 . S
C768 C741 1.486 . S
C769 O724 1.199 . S
C769 O725 1.297 . S
C769 C753 1.476 . S
H770 O796 0.856 . S
H771 O799 0.854 . S
H772 C807 0.930 . S
H773 C808 0.930 . S
H774 C810 0.930 . S
H775 C811 0.930 . S
H776 C813 0.931 . S
H777 C814 0.930 . S
H778 C816 0.930 . S
H779 C817 0.929 . S
H780 C819 0.930 . S
H781 C820 0.931 . S
H782 C822 0.930 . S
H783 C823 0.929 . S
H784 C825 0.931 . S
H785 C826 0.930 . S
H786 C828 0.930 . S
H787 C829 0.932 . S
H788 C831 0.930 . S
H789 C832 0.929 . S
H790 C834 0.931 . S
H791 C835 0.930 . S
H792 C837 0.929 . S
H793 C838 0.931 . S
H794 C840 0.930 . S
H795 C841 0.929 . S
O796 H770 0.856 . S
O796 C842 1.300 . S
O797 C842 1.209 . S
O798 C843 1.199 . S
O799 H771 0.854 . S
O799 C843 1.297 . S
C800 C801 1.404 . S
C800 C805 1.397 . S
C800 C806 1.492 . S
C801 C800 1.404 . S
C801 C802 1.396 . S
C801 C812 1.492 . S
C802 C801 1.396 . S
C802 C803 1.397 . S
C802 C818 1.509 . S
C803 C802 1.397 . S
C803 C804 1.412 . S
C803 C824 1.485 . S
C804 C803 1.412 . S
C804 C805 1.388 . S
C804 C830 1.490 . S
C805 C800 1.397 . S
C805 C804 1.388 . S
C805 C836 1.519 . S
C806 C800 1.492 . S
C806 C807 1.363 . S
C806 C811 1.390 . S
C807 H772 0.930 . S
C807 C806 1.363 . S
C807 C808 1.372 . S
C808 H773 0.930 . S
C808 C807 1.372 . S
C808 C809 1.383 . S
C809 C808 1.383 . S
C809 C810 1.395 . S
C810 H774 0.930 . S
C810 C809 1.395 . S
C810 C811 1.362 . S
C811 H775 0.930 . S
C811 C806 1.390 . S
C811 C810 1.362 . S
C812 C801 1.492 . S
C812 C813 1.377 . S
C812 C817 1.397 . S
C813 H776 0.931 . S
C813 C812 1.377 . S
C813 C814 1.376 . S
C814 H777 0.930 . S
C814 C813 1.376 . S
C814 C815 1.376 . S
C815 C814 1.376 . S
C815 C816 1.378 . S
C815 C842 1.486 . S
C816 H778 0.930 . S
C816 C815 1.378 . S
C816 C817 1.376 . S
C817 H779 0.929 . S
C817 C812 1.397 . S
C817 C816 1.376 . S
C818 C802 1.509 . S
C818 C819 1.391 . S
C818 C823 1.386 . S
C819 H780 0.930 . S
C819 C818 1.391 . S
C819 C820 1.375 . S
C820 H781 0.931 . S
C820 C819 1.375 . S
C820 C821 1.375 . S
C821 C820 1.375 . S
C821 C822 1.361 . S
C822 H782 0.930 . S
C822 C821 1.361 . S
C822 C823 1.399 . S
C823 H783 0.929 . S
C823 C818 1.386 . S
C823 C822 1.399 . S
C824 C803 1.485 . S
C824 C825 1.394 . S
C824 C829 1.360 . S
C825 H784 0.931 . S
C825 C824 1.394 . S
C825 C826 1.372 . S
C826 H785 0.930 . S
C826 C825 1.372 . S
C826 C827 1.397 . S
C827 C826 1.397 . S
C827 C828 1.390 . S
C827 C843 1.476 . S
C828 H786 0.930 . S
C828 C827 1.390 . S
C828 C829 1.366 . S
C829 H787 0.932 . S
C829 C824 1.360 . S
C829 C828 1.366 . S
C830 C804 1.490 . S
C830 C831 1.380 . S
C830 C835 1.386 . S
C831 H788 0.930 . S
C831 C830 1.380 . S
C831 C832 1.381 . S
C832 H789 0.929 . S
C832 C831 1.381 . S
C832 C833 1.371 . S
C833 C832 1.371 . S
C833 C834 1.380 . S
C834 H790 0.931 . S
C834 C833 1.380 . S
C834 C835 1.387 . S
C835 H791 0.930 . S
C835 C830 1.386 . S
C835 C834 1.387 . S
C836 C805 1.519 . S
C836 C837 1.377 . S
C836 C841 1.361 . S
C837 H792 0.929 . S
C837 C836 1.377 . S
C837 C838 1.386 . S
C838 H793 0.931 . S
C838 C837 1.386 . S
C838 C839 1.363 . S
C839 C838 1.363 . S
C839 C840 1.385 . S
C840 H794 0.930 . S
C840 C839 1.385 . S
C840 C841 1.396 . S
C841 H795 0.929 . S
C841 C836 1.361 . S
C841 C840 1.396 . S
C842 O796 1.300 . S
C842 O797 1.209 . S
C842 C815 1.486 . S
C843 O798 1.199 . S
C843 O799 1.297 . S
C843 C827 1.476 . S
H844 O870 0.856 . S
H845 O873 0.854 . S
H846 C881 0.930 . S
H847 C882 0.930 . S
H848 C884 0.930 . S
H849 C885 0.930 . S
H850 C887 0.931 . S
H851 C888 0.930 . S
H852 C890 0.930 . S
H853 C891 0.929 . S
H854 C893 0.930 . S
H855 C894 0.931 . S
H856 C896 0.930 . S
H857 C897 0.929 . S
H858 C899 0.931 . S
H859 C900 0.930 . S
H860 C902 0.930 . S
H861 C903 0.932 . S
H862 C905 0.930 . S
H863 C906 0.929 . S
H864 C908 0.931 . S
H865 C909 0.930 . S
H866 C911 0.929 . S
H867 C912 0.931 . S
H868 C914 0.930 . S
H869 C915 0.929 . S
O870 H844 0.856 . S
O870 C916 1.300 . S
O871 C916 1.209 . S
O872 C917 1.199 . S
O873 H845 0.854 . S
O873 C917 1.297 . S
C874 C875 1.404 . S
C874 C879 1.397 . S
C874 C880 1.492 . S
C875 C874 1.404 . S
C875 C876 1.396 . S
C875 C886 1.492 . S
C876 C875 1.396 . S
C876 C877 1.397 . S
C876 C892 1.509 . S
C877 C876 1.397 . S
C877 C878 1.412 . S
C877 C898 1.485 . S
C878 C877 1.412 . S
C878 C879 1.388 . S
C878 C904 1.490 . S
C879 C874 1.397 . S
C879 C878 1.388 . S
C879 C910 1.519 . S
C880 C874 1.492 . S
C880 C881 1.363 . S
C880 C885 1.390 . S
C881 H846 0.930 . S
C881 C880 1.363 . S
C881 C882 1.372 . S
C882 H847 0.930 . S
C882 C881 1.372 . S
C882 C883 1.383 . S
C883 C882 1.383 . S
C883 C884 1.395 . S
C884 H848 0.930 . S
C884 C883 1.395 . S
C884 C885 1.362 . S
C885 H849 0.930 . S
C885 C880 1.390 . S
C885 C884 1.362 . S
C886 C875 1.492 . S
C886 C887 1.377 . S
C886 C891 1.397 . S
C887 H850 0.931 . S
C887 C886 1.377 . S
C887 C888 1.376 . S
C888 H851 0.930 . S
C888 C887 1.376 . S
C888 C889 1.376 . S
C889 C888 1.376 . S
C889 C890 1.378 . S
C889 C916 1.486 . S
C890 H852 0.930 . S
C890 C889 1.378 . S
C890 C891 1.376 . S
C891 H853 0.929 . S
C891 C886 1.397 . S
C891 C890 1.376 . S
C892 C876 1.509 . S
C892 C893 1.391 . S
C892 C897 1.386 . S
C893 H854 0.930 . S
C893 C892 1.391 . S
C893 C894 1.375 . S
C894 H855 0.931 . S
C894 C893 1.375 . S
C894 C895 1.375 . S
C895 C894 1.375 . S
C895 C896 1.361 . S
C896 H856 0.930 . S
C896 C895 1.361 . S
C896 C897 1.399 . S
C897 H857 0.929 . S
C897 C892 1.386 . S
C897 C896 1.399 . S
C898 C877 1.485 . S
C898 C899 1.394 . S
C898 C903 1.360 . S
C899 H858 0.931 . S
C899 C898 1.394 . S
C899 C900 1.372 . S
C900 H859 0.930 . S
C900 C899 1.372 . S
C900 C901 1.397 . S
C901 C900 1.397 . S
C901 C902 1.390 . S
C901 C917 1.476 . S
C902 H860 0.930 . S
C902 C901 1.390 . S
C902 C903 1.366 . S
C903 H861 0.932 . S
C903 C898 1.360 . S
C903 C902 1.366 . S
C904 C878 1.490 . S
C904 C905 1.380 . S
C904 C909 1.386 . S
C905 H862 0.930 . S
C905 C904 1.380 . S
C905 C906 1.381 . S
C906 H863 0.929 . S
C906 C905 1.381 . S
C906 C907 1.371 . S
C907 C906 1.371 . S
C907 C908 1.380 . S
C908 H864 0.931 . S
C908 C907 1.380 . S
C908 C909 1.387 . S
C909 H865 0.930 . S
C909 C904 1.386 . S
C909 C908 1.387 . S
C910 C879 1.519 . S
C910 C911 1.377 . S
C910 C915 1.361 . S
C911 H866 0.929 . S
C911 C910 1.377 . S
C911 C912 1.386 . S
C912 H867 0.931 . S
C912 C911 1.386 . S
C912 C913 1.363 . S
C913 C912 1.363 . S
C913 C914 1.385 . S
C914 H868 0.930 . S
C914 C913 1.385 . S
C914 C915 1.396 . S
C915 H869 0.929 . S
C915 C910 1.361 . S
C915 C914 1.396 . S
C916 O870 1.300 . S
C916 O871 1.209 . S
C916 C889 1.486 . S
C917 O872 1.199 . S
C917 O873 1.297 . S
C917 C901 1.476 . S
H918 O944 0.856 . S
H919 O947 0.854 . S
H920 C955 0.930 . S
H921 C956 0.930 . S
H922 C958 0.930 . S
H923 C959 0.930 . S
H924 C961 0.931 . S
H925 C962 0.930 1_655 S
H926 C964 0.930 . S
H927 C965 0.929 . S
H928 C967 0.930 . S
H929 C968 0.931 1_655 S
H930 C970 0.930 . S
H931 C971 0.929 . S
H932 C973 0.931 . S
H933 C974 0.930 . S
H934 C976 0.930 . S
H935 C977 0.932 . S
H936 C979 0.930 . S
H937 C980 0.929 . S
H938 C982 0.931 . S
H939 C983 0.930 . S
H940 C985 0.929 . S
H941 C986 0.931 . S
H942 C988 0.930 . S
H943 C989 0.929 . S
O944 H918 0.856 . S
O944 C990 1.300 . S
O945 C990 1.209 . S
O946 C991 1.199 1_655 S
O947 H919 0.854 . S
O947 C991 1.297 . S
C948 C949 1.404 . S
C948 C953 1.395 . S
C948 C954 1.492 . S
C949 C948 1.404 . S
C949 C950 1.396 . S
C949 C960 1.492 . S
C950 C949 1.396 . S
C950 C951 1.397 . S
C950 C966 1.509 . S
C951 C950 1.397 . S
C951 C952 1.426 . S
C951 C972 1.485 . S
C952 C951 1.426 . S
C952 C953 1.403 . S
C952 C978 1.490 1_455 S
C953 C948 1.395 . S
C953 C952 1.403 . S
C953 C984 1.482 1_455 S
C954 C948 1.492 . S
C954 C955 1.363 1_455 S
C954 C959 1.390 . S
C955 H920 0.930 . S
C955 C954 1.363 1_655 S
C955 C956 1.372 . S
C956 H921 0.930 . S
C956 C955 1.372 . S
C956 C957 1.383 . S
C957 C956 1.383 . S
C957 C958 1.395 1_655 S
C958 H922 0.930 . S
C958 C957 1.395 1_455 S
C958 C959 1.362 . S
C959 H923 0.930 . S
C959 C954 1.390 . S
C959 C958 1.362 . S
C960 C949 1.492 . S
C960 C961 1.377 1_455 S
C960 C965 1.397 . S
C961 H924 0.931 . S
C961 C960 1.377 1_655 S
C961 C962 1.376 1_655 S
C962 H925 0.930 1_455 S
C962 C961 1.376 1_455 S
C962 C963 1.376 . S
C963 C962 1.376 . S
C963 C964 1.378 . S
C963 C990 1.486 . S
C964 H926 0.930 . S
C964 C963 1.378 . S
C964 C965 1.376 . S
C965 H927 0.929 . S
C965 C960 1.397 . S
C965 C964 1.376 . S
C966 C950 1.509 . S
C966 C967 1.391 1_455 S
C966 C971 1.386 . S
C967 H928 0.930 . S
C967 C966 1.391 1_655 S
C967 C968 1.375 1_655 S
C968 H929 0.931 1_455 S
C968 C967 1.375 1_455 S
C968 C969 1.375 . S
C969 C968 1.375 . S
C969 C970 1.361 . S
C970 H930 0.930 . S
C970 C969 1.361 . S
C970 C971 1.399 . S
C971 H931 0.929 . S
C971 C966 1.386 . S
C971 C970 1.399 . S
C972 C951 1.485 . S
C972 C973 1.394 1_455 S
C972 C977 1.360 . S
C973 H932 0.931 . S
C973 C972 1.394 1_655 S
C973 C974 1.372 . S
C974 H933 0.930 . S
C974 C973 1.372 . S
C974 C975 1.397 1_655 S
C975 C974 1.397 1_455 S
C975 C976 1.390 . S
C975 C991 1.476 . S
C976 H934 0.930 . S
C976 C975 1.390 . S
C976 C977 1.366 . S
C977 H935 0.932 . S
C977 C972 1.360 . S
C977 C976 1.366 . S
C978 C952 1.490 1_655 S
C978 C979 1.380 . S
C978 C983 1.386 1_655 S
C979 H936 0.930 . S
C979 C978 1.380 . S
C979 C980 1.381 . S
C980 H937 0.929 . S
C980 C979 1.381 . S
C980 C981 1.371 . S
C981 C980 1.371 . S
C981 C982 1.380 1_655 S
C982 H938 0.931 . S
C982 C981 1.380 1_455 S
C982 C983 1.387 . S
C983 H939 0.930 . S
C983 C978 1.386 1_455 S
C983 C982 1.387 . S
C984 C953 1.482 1_655 S
C984 C985 1.423 . S
C984 C989 1.331 1_655 S
C985 H940 0.929 . S
C985 C984 1.423 . S
C985 C986 1.386 . S
C986 H941 0.931 . S
C986 C985 1.386 . S
C986 C987 1.363 . S
C987 C986 1.363 . S
C987 C988 1.385 1_655 S
C988 H942 0.930 . S
C988 C987 1.385 1_455 S
C988 C989 1.396 . S
C989 H943 0.929 . S
C989 C984 1.331 1_455 S
C989 C988 1.396 . S
C990 O944 1.300 . S
C990 O945 1.209 . S
C990 C963 1.486 . S
C991 O946 1.199 1_455 S
C991 O947 1.297 . S
C991 C975 1.476 . S
H992 O1018 0.856 . S
H993 O1021 0.854 . S
H994 C1029 0.930 . S
H995 C1030 0.930 . S
H996 C1032 0.930 . S
H997 C1033 0.930 . S
H998 C1035 0.931 . S
H999 C1036 0.930 . S
H1000 C1038 0.930 . S
H1001 C1039 0.929 . S
H1002 C1041 0.930 . S
H1003 C1042 0.931 . S
H1004 C1044 0.930 . S
H1005 C1045 0.929 . S
H1006 C1047 0.931 . S
H1007 C1048 0.930 . S
H1008 C1050 0.930 . S
H1009 C1051 0.932 . S
H1010 C1053 0.930 . S
H1011 C1054 0.929 . S
H1012 C1056 0.931 . S
H1013 C1057 0.930 . S
H1014 C1059 0.929 . S
H1015 C1060 0.931 . S
H1016 C1062 0.930 . S
H1017 C1063 0.929 . S
O1018 H992 0.856 . S
O1018 C1064 1.300 . S
O1019 C1064 1.209 . S
O1020 C1065 1.199 . S
O1021 H993 0.854 . S
O1021 C1065 1.297 . S
C1022 C1023 1.404 . S
C1022 C1027 1.397 . S
C1022 C1028 1.492 . S
C1023 C1022 1.404 . S
C1023 C1024 1.396 . S
C1023 C1034 1.492 . S
C1024 C1023 1.396 . S
C1024 C1025 1.397 . S
C1024 C1040 1.509 . S
C1025 C1024 1.397 . S
C1025 C1026 1.412 . S
C1025 C1046 1.485 . S
C1026 C1025 1.412 . S
C1026 C1027 1.388 . S
C1026 C1052 1.490 . S
C1027 C1022 1.397 . S
C1027 C1026 1.388 . S
C1027 C1058 1.519 . S
C1028 C1022 1.492 . S
C1028 C1029 1.363 . S
C1028 C1033 1.390 . S
C1029 H994 0.930 . S
C1029 C1028 1.363 . S
C1029 C1030 1.372 . S
C1030 H995 0.930 . S
C1030 C1029 1.372 . S
C1030 C1031 1.383 . S
C1031 C1030 1.383 . S
C1031 C1032 1.395 . S
C1032 H996 0.930 . S
C1032 C1031 1.395 . S
C1032 C1033 1.362 . S
C1033 H997 0.930 . S
C1033 C1028 1.390 . S
C1033 C1032 1.362 . S
C1034 C1023 1.492 . S
C1034 C1035 1.377 . S
C1034 C1039 1.397 . S
C1035 H998 0.931 . S
C1035 C1034 1.377 . S
C1035 C1036 1.376 . S
C1036 H999 0.930 . S
C1036 C1035 1.376 . S
C1036 C1037 1.376 . S
C1037 C1036 1.376 . S
C1037 C1038 1.378 . S
C1037 C1064 1.486 . S
C1038 H1000 0.930 . S
C1038 C1037 1.378 . S
C1038 C1039 1.376 . S
C1039 H1001 0.929 . S
C1039 C1034 1.397 . S
C1039 C1038 1.376 . S
C1040 C1024 1.509 . S
C1040 C1041 1.391 . S
C1040 C1045 1.386 . S
C1041 H1002 0.930 . S
C1041 C1040 1.391 . S
C1041 C1042 1.375 . S
C1042 H1003 0.931 . S
C1042 C1041 1.375 . S
C1042 C1043 1.375 . S
C1043 C1042 1.375 . S
C1043 C1044 1.361 . S
C1044 H1004 0.930 . S
C1044 C1043 1.361 . S
C1044 C1045 1.399 . S
C1045 H1005 0.929 . S
C1045 C1040 1.386 . S
C1045 C1044 1.399 . S
C1046 C1025 1.485 . S
C1046 C1047 1.394 . S
C1046 C1051 1.360 . S
C1047 H1006 0.931 . S
C1047 C1046 1.394 . S
C1047 C1048 1.372 . S
C1048 H1007 0.930 . S
C1048 C1047 1.372 . S
C1048 C1049 1.397 . S
C1049 C1048 1.397 . S
C1049 C1050 1.390 . S
C1049 C1065 1.476 . S
C1050 H1008 0.930 . S
C1050 C1049 1.390 . S
C1050 C1051 1.366 . S
C1051 H1009 0.932 . S
C1051 C1046 1.360 . S
C1051 C1050 1.366 . S
C1052 C1026 1.490 . S
C1052 C1053 1.380 . S
C1052 C1057 1.386 . S
C1053 H1010 0.930 . S
C1053 C1052 1.380 . S
C1053 C1054 1.381 . S
C1054 H1011 0.929 . S
C1054 C1053 1.381 . S
C1054 C1055 1.371 . S
C1055 C1054 1.371 . S
C1055 C1056 1.380 . S
C1056 H1012 0.931 . S
C1056 C1055 1.380 . S
C1056 C1057 1.387 . S
C1057 H1013 0.930 . S
C1057 C1052 1.386 . S
C1057 C1056 1.387 . S
C1058 C1027 1.519 . S
C1058 C1059 1.377 . S
C1058 C1063 1.361 . S
C1059 H1014 0.929 . S
C1059 C1058 1.377 . S
C1059 C1060 1.386 . S
C1060 H1015 0.931 . S
C1060 C1059 1.386 . S
C1060 C1061 1.363 . S
C1061 C1060 1.363 . S
C1061 C1062 1.385 . S
C1062 H1016 0.930 . S
C1062 C1061 1.385 . S
C1062 C1063 1.396 . S
C1063 H1017 0.929 . S
C1063 C1058 1.361 . S
C1063 C1062 1.396 . S
C1064 O1018 1.300 . S
C1064 O1019 1.209 . S
C1064 C1037 1.486 . S
C1065 O1020 1.199 . S
C1065 O1021 1.297 . S
C1065 C1049 1.476 . S
H1066 O1092 0.856 . S
H1067 O1095 0.854 . S
H1068 C1103 0.930 . S
H1069 C1104 0.930 . S
H1070 C1106 0.930 . S
H1071 C1107 0.930 . S
H1072 C1109 0.931 . S
H1073 C1110 0.951 . S
H1074 C1112 0.930 . S
H1075 C1113 0.929 . S
H1076 C1115 0.930 . S
H1077 C1116 0.931 . S
H1078 C1118 0.930 . S
H1079 C1119 0.929 . S
H1080 C1121 0.931 . S
H1081 C1122 0.930 . S
H1082 C1124 0.930 . S
H1083 C1125 0.932 . S
H1084 C1127 0.930 . S
H1085 C1128 0.929 . S
H1086 C1130 0.931 . S
H1087 C1131 0.930 . S
H1088 C1133 0.929 . S
H1089 C1134 0.931 . S
H1090 C1136 0.930 . S
H1091 C1137 0.929 . S
O1092 H1066 0.856 . S
O1092 C1138 1.300 . S
O1093 C1138 1.209 . S
O1094 C1139 1.199 1_545 S
O1095 H1067 0.854 . S
O1095 C1139 1.297 . S
C1096 C1097 1.404 . S
C1096 C1101 1.413 . S
C1096 C1102 1.492 . S
C1097 C1096 1.404 . S
C1097 C1098 1.396 . S
C1097 C1108 1.492 . S
C1098 C1097 1.396 . S
C1098 C1099 1.397 . S
C1098 C1114 1.509 . S
C1099 C1098 1.397 . S
C1099 C1100 1.412 . S
C1099 C1120 1.485 . S
C1100 C1099 1.412 . S
C1100 C1101 1.365 . S
C1100 C1126 1.489 1_565 S
C1101 C1096 1.413 . S
C1101 C1100 1.365 . S
C1101 C1132 1.533 1_565 S
C1102 C1096 1.492 . S
C1102 C1103 1.363 1_565 S
C1102 C1107 1.390 . S
C1103 H1068 0.930 . S
C1103 C1102 1.363 1_545 S
C1103 C1104 1.372 . S
C1104 H1069 0.930 . S
C1104 C1103 1.372 . S
C1104 C1105 1.383 . S
C1105 C1104 1.383 . S
C1105 C1106 1.395 1_545 S
C1106 H1070 0.930 . S
C1106 C1105 1.395 1_565 S
C1106 C1107 1.362 . S
C1107 H1071 0.930 . S
C1107 C1102 1.390 . S
C1107 C1106 1.362 . S
C1108 C1097 1.492 . S
C1108 C1109 1.377 1_565 S
C1108 C1113 1.397 . S
C1109 H1072 0.931 . S
C1109 C1108 1.377 1_545 S
C1109 C1110 1.387 . S
C1110 H1073 0.951 . S
C1110 C1109 1.387 . S
C1110 C1111 1.344 1_545 S
C1111 C1110 1.344 1_565 S
C1111 C1112 1.378 . S
C1111 C1138 1.486 . S
C1112 H1074 0.930 . S
C1112 C1111 1.378 . S
C1112 C1113 1.376 . S
C1113 H1075 0.929 . S
C1113 C1108 1.397 . S
C1113 C1112 1.376 . S
C1114 C1098 1.509 . S
C1114 C1115 1.391 1_565 S
C1114 C1119 1.386 . S
C1115 H1076 0.930 . S
C1115 C1114 1.391 1_545 S
C1115 C1116 1.375 . S
C1116 H1077 0.931 . S
C1116 C1115 1.375 . S
C1116 C1117 1.375 1_545 S
C1117 C1116 1.375 1_565 S
C1117 C1118 1.361 . S
C1118 H1078 0.930 . S
C1118 C1117 1.361 . S
C1118 C1119 1.399 . S
C1119 H1079 0.929 . S
C1119 C1114 1.386 . S
C1119 C1118 1.399 . S
C1120 C1099 1.485 . S
C1120 C1121 1.394 1_565 S
C1120 C1125 1.360 . S
C1121 H1080 0.931 . S
C1121 C1120 1.394 1_545 S
C1121 C1122 1.372 . S
C1122 H1081 0.930 . S
C1122 C1121 1.372 . S
C1122 C1123 1.397 1_545 S
C1123 C1122 1.397 1_565 S
C1123 C1124 1.390 . S
C1123 C1139 1.476 . S
C1124 H1082 0.930 . S
C1124 C1123 1.390 . S
C1124 C1125 1.366 . S
C1125 H1083 0.932 . S
C1125 C1120 1.360 . S
C1125 C1124 1.366 . S
C1126 C1100 1.489 1_545 S
C1126 C1127 1.380 . S
C1126 C1131 1.386 1_545 S
C1127 H1084 0.930 . S
C1127 C1126 1.380 . S
C1127 C1128 1.381 . S
C1128 H1085 0.929 . S
C1128 C1127 1.381 . S
C1128 C1129 1.371 . S
C1129 C1128 1.371 . S
C1129 C1130 1.380 1_545 S
C1130 H1086 0.931 . S
C1130 C1129 1.380 1_565 S
C1130 C1131 1.387 . S
C1131 H1087 0.930 . S
C1131 C1126 1.386 1_565 S
C1131 C1130 1.387 . S
C1132 C1101 1.533 1_545 S
C1132 C1133 1.376 . S
C1132 C1137 1.363 1_545 S
C1133 H1088 0.929 . S
C1133 C1132 1.376 . S
C1133 C1134 1.386 . S
C1134 H1089 0.931 . S
C1134 C1133 1.386 . S
C1134 C1135 1.363 1_545 S
C1135 C1134 1.363 1_565 S
C1135 C1136 1.385 . S
C1136 H1090 0.930 . S
C1136 C1135 1.385 . S
C1136 C1137 1.396 . S
C1137 H1091 0.929 . S
C1137 C1132 1.363 1_565 S
C1137 C1136 1.396 . S
C1138 O1092 1.300 . S
C1138 O1093 1.209 . S
C1138 C1111 1.486 . S
C1139 O1094 1.199 1_565 S
C1139 O1095 1.297 . S
C1139 C1123 1.476 . S
H1140 O1166 0.856 . S
H1141 O1169 0.854 . S
H1142 C1177 0.930 . S
H1143 C1178 0.930 . S
H1144 C1180 0.930 . S
H1145 C1181 0.930 . S
H1146 C1183 0.931 . S
H1147 C1184 0.930 . S
H1148 C1186 0.930 . S
H1149 C1187 0.929 . S
H1150 C1189 0.930 . S
H1151 C1190 0.931 . S
H1152 C1192 0.930 . S
H1153 C1193 0.929 . S
H1154 C1195 0.931 . S
H1155 C1196 0.930 . S
H1156 C1198 0.930 . S
H1157 C1199 0.932 . S
H1158 C1201 0.930 . S
H1159 C1202 0.929 . S
H1160 C1204 0.931 . S
H1161 C1205 0.930 . S
H1162 C1207 0.929 . S
H1163 C1208 0.931 . S
H1164 C1210 0.930 . S
H1165 C1211 0.929 . S
O1166 H1140 0.856 . S
O1166 C1212 1.300 . S
O1167 C1212 1.209 1_565 S
O1168 C1213 1.199 1_545 S
O1169 H1141 0.854 . S
O1169 C1213 1.297 . S
C1170 C1171 1.404 . S
C1170 C1175 1.397 1_545 S
C1170 C1176 1.492 . S
C1171 C1170 1.404 . S
C1171 C1172 1.432 . S
C1171 C1182 1.492 . S
C1172 C1171 1.432 . S
C1172 C1173 1.377 1_545 S
C1172 C1188 1.505 . S
C1173 C1172 1.377 1_565 S
C1173 C1174 1.417 . S
C1173 C1194 1.501 . S
C1174 C1173 1.417 . S
C1174 C1175 1.366 . S
C1174 C1200 1.488 . S
C1175 C1170 1.397 1_565 S
C1175 C1174 1.366 . S
C1175 C1206 1.519 . S
C1176 C1170 1.492 . S
C1176 C1177 1.363 . S
C1176 C1181 1.390 1_545 S
C1177 H1142 0.930 . S
C1177 C1176 1.363 . S
C1177 C1178 1.372 . S
C1178 H1143 0.930 . S
C1178 C1177 1.372 . S
C1178 C1179 1.383 . S
C1179 C1178 1.383 . S
C1179 C1180 1.395 1_545 S
C1180 H1144 0.930 . S
C1180 C1179 1.395 1_565 S
C1180 C1181 1.362 . S
C1181 H1145 0.930 . S
C1181 C1176 1.390 1_565 S
C1181 C1180 1.362 . S
C1182 C1171 1.492 . S
C1182 C1183 1.377 . S
C1182 C1187 1.397 1_545 S
C1183 H1146 0.931 . S
C1183 C1182 1.377 . S
C1183 C1184 1.376 . S
C1184 H1147 0.930 . S
C1184 C1183 1.376 . S
C1184 C1185 1.376 . S
C1185 C1184 1.376 . S
C1185 C1186 1.378 1_545 S
C1185 C1212 1.486 . S
C1186 H1148 0.930 . S
C1186 C1185 1.378 1_565 S
C1186 C1187 1.376 . S
C1187 H1149 0.929 . S
C1187 C1182 1.397 1_565 S
C1187 C1186 1.376 . S
C1188 C1172 1.505 . S
C1188 C1189 1.413 . S
C1188 C1193 1.350 1_545 S
C1189 H1150 0.930 . S
C1189 C1188 1.413 . S
C1189 C1190 1.375 . S
C1190 H1151 0.931 . S
C1190 C1189 1.375 . S
C1190 C1191 1.391 . S
C1191 C1190 1.391 . S
C1191 C1192 1.353 1_545 S
C1192 H1152 0.930 . S
C1192 C1191 1.353 1_565 S
C1192 C1193 1.399 . S
C1193 H1153 0.929 . S
C1193 C1188 1.350 1_565 S
C1193 C1192 1.399 . S
C1194 C1173 1.501 . S
C1194 C1195 1.394 1_565 S
C1194 C1199 1.360 . S
C1195 H1154 0.931 . S
C1195 C1194 1.394 1_545 S
C1195 C1196 1.372 . S
C1196 H1155 0.930 . S
C1196 C1195 1.372 . S
C1196 C1197 1.397 1_545 S
C1197 C1196 1.397 1_565 S
C1197 C1198 1.390 . S
C1197 C1213 1.476 . S
C1198 H1156 0.930 . S
C1198 C1197 1.390 . S
C1198 C1199 1.366 . S
C1199 H1157 0.932 . S
C1199 C1194 1.360 . S
C1199 C1198 1.366 . S
C1200 C1174 1.488 . S
C1200 C1201 1.337 1_565 S
C1200 C1205 1.441 . S
C1201 H1158 0.930 . S
C1201 C1200 1.337 1_545 S
C1201 C1202 1.381 . S
C1202 H1159 0.929 . S
C1202 C1201 1.381 . S
C1202 C1203 1.376 . S
C1203 C1202 1.376 . S
C1203 C1204 1.376 1_545 S
C1204 H1160 0.931 . S
C1204 C1203 1.376 1_565 S
C1204 C1205 1.387 . S
C1205 H1161 0.930 . S
C1205 C1200 1.441 . S
C1205 C1204 1.387 . S
C1206 C1175 1.519 . S
C1206 C1207 1.377 1_565 S
C1206 C1211 1.361 . S
C1207 H1162 0.929 . S
C1207 C1206 1.377 1_545 S
C1207 C1208 1.386 . S
C1208 H1163 0.931 . S
C1208 C1207 1.386 . S
C1208 C1209 1.363 1_545 S
C1209 C1208 1.363 1_565 S
C1209 C1210 1.385 . S
C1210 H1164 0.930 . S
C1210 C1209 1.385 . S
C1210 C1211 1.396 . S
C1211 H1165 0.929 . S
C1211 C1206 1.361 . S
C1211 C1210 1.396 . S
C1212 O1166 1.300 . S
C1212 O1167 1.209 1_545 S
C1212 C1185 1.486 . S
C1213 O1168 1.199 1_565 S
C1213 O1169 1.297 . S
C1213 C1197 1.476 . S
H1214 O1240 0.856 . S
H1215 O1243 0.854 . S
H1216 C1251 0.930 . S
H1217 C1252 0.930 . S
H1218 C1254 0.930 . S
H1219 C1255 0.930 . S
H1220 C1257 0.931 . S
H1221 C1258 0.930 . S
H1222 C1260 0.930 . S
H1223 C1261 0.929 . S
H1224 C1263 0.930 . S
H1225 C1264 0.931 . S
H1226 C1266 0.930 . S
H1227 C1267 0.929 . S
H1228 C1269 0.931 . S
H1229 C1270 0.930 . S
H1230 C1272 0.930 . S
H1231 C1273 0.932 . S
H1232 C1275 0.930 . S
H1233 C1276 0.929 . S
H1234 C1278 0.931 . S
H1235 C1279 0.930 . S
H1236 C1281 0.929 . S
H1237 C1282 0.931 . S
H1238 C1284 0.930 . S
H1239 C1285 0.929 . S
O1240 H1214 0.856 . S
O1240 C1286 1.300 . S
O1241 C1286 1.209 1_455 S
O1242 C1287 1.199 1_655 S
O1243 H1215 0.854 . S
O1243 C1287 1.297 . S
C1244 C1245 1.404 . S
C1244 C1249 1.396 1_655 S
C1244 C1250 1.492 . S
C1245 C1244 1.404 . S
C1245 C1246 1.396 . S
C1245 C1256 1.492 . S
C1246 C1245 1.396 . S
C1246 C1247 1.396 . S
C1246 C1262 1.509 . S
C1247 C1246 1.396 . S
C1247 C1248 1.395 1_655 S
C1247 C1268 1.523 1_655 S
C1248 C1247 1.395 1_455 S
C1248 C1249 1.410 . S
C1248 C1274 1.486 . S
C1249 C1244 1.396 1_455 S
C1249 C1248 1.410 . S
C1249 C1280 1.516 . S
C1250 C1244 1.492 . S
C1250 C1251 1.363 . S
C1250 C1255 1.390 1_655 S
C1251 H1216 0.930 . S
C1251 C1250 1.363 . S
C1251 C1252 1.372 . S
C1252 H1217 0.930 . S
C1252 C1251 1.372 . S
C1252 C1253 1.383 . S
C1253 C1252 1.383 . S
C1253 C1254 1.395 1_655 S
C1254 H1218 0.930 . S
C1254 C1253 1.395 1_455 S
C1254 C1255 1.362 . S
C1255 H1219 0.930 . S
C1255 C1250 1.390 1_455 S
C1255 C1254 1.362 . S
C1256 C1245 1.492 . S
C1256 C1257 1.377 . S
C1256 C1261 1.397 1_655 S
C1257 H1220 0.931 . S
C1257 C1256 1.377 . S
C1257 C1258 1.376 . S
C1258 H1221 0.930 . S
C1258 C1257 1.376 . S
C1258 C1259 1.376 . S
C1259 C1258 1.376 . S
C1259 C1260 1.378 1_655 S
C1259 C1286 1.486 . S
C1260 H1222 0.930 . S
C1260 C1259 1.378 1_455 S
C1260 C1261 1.376 . S
C1261 H1223 0.929 . S
C1261 C1256 1.397 1_455 S
C1261 C1260 1.376 . S
C1262 C1246 1.509 . S
C1262 C1263 1.391 . S
C1262 C1267 1.386 1_655 S
C1263 H1224 0.930 . S
C1263 C1262 1.391 . S
C1263 C1264 1.375 . S
C1264 H1225 0.931 . S
C1264 C1263 1.375 . S
C1264 C1265 1.375 . S
C1265 C1264 1.375 . S
C1265 C1266 1.361 1_655 S
C1266 H1226 0.930 . S
C1266 C1265 1.361 1_455 S
C1266 C1267 1.399 . S
C1267 H1227 0.929 . S
C1267 C1262 1.386 1_455 S
C1267 C1266 1.399 . S
C1268 C1247 1.523 1_455 S
C1268 C1269 1.339 1_455 S
C1268 C1273 1.385 . S
C1269 H1228 0.931 . S
C1269 C1268 1.339 1_655 S
C1269 C1270 1.372 . S
C1270 H1229 0.930 . S
C1270 C1269 1.372 . S
C1270 C1271 1.397 1_655 S
C1271 C1270 1.397 1_455 S
C1271 C1272 1.390 . S
C1271 C1287 1.476 . S
C1272 H1230 0.930 . S
C1272 C1271 1.390 . S
C1272 C1273 1.366 . S
C1273 H1231 0.932 . S
C1273 C1268 1.385 . S
C1273 C1272 1.366 . S
C1274 C1248 1.486 . S
C1274 C1275 1.380 1_455 S
C1274 C1279 1.386 . S
C1275 H1232 0.930 . S
C1275 C1274 1.380 1_655 S
C1275 C1276 1.381 . S
C1276 H1233 0.929 . S
C1276 C1275 1.381 . S
C1276 C1277 1.371 1_655 S
C1277 C1276 1.371 1_455 S
C1277 C1278 1.380 . S
C1278 H1234 0.931 . S
C1278 C1277 1.380 . S
C1278 C1279 1.387 . S
C1279 H1235 0.930 . S
C1279 C1274 1.386 . S
C1279 C1278 1.387 . S
C1280 C1249 1.516 . S
C1280 C1281 1.377 1_455 S
C1280 C1285 1.361 . S
C1281 H1236 0.929 . S
C1281 C1280 1.377 1_655 S
C1281 C1282 1.386 . S
C1282 H1237 0.931 . S
C1282 C1281 1.386 . S
C1282 C1283 1.363 1_655 S
C1283 C1282 1.363 1_455 S
C1283 C1284 1.385 . S
C1284 H1238 0.930 . S
C1284 C1283 1.385 . S
C1284 C1285 1.396 . S
C1285 H1239 0.929 . S
C1285 C1280 1.361 . S
C1285 C1284 1.396 . S
C1286 O1240 1.300 . S
C1286 O1241 1.209 1_655 S
C1286 C1259 1.486 . S
C1287 O1242 1.199 1_455 S
C1287 O1243 1.297 . S
C1287 C1271 1.476 . S
H1288 O1314 0.856 . S
H1289 O1317 0.854 . S
H1290 C1325 0.930 . S
H1291 C1326 0.930 . S
H1292 C1328 0.930 . S
H1293 C1329 0.930 . S
H1294 C1331 0.931 . S
H1295 C1332 0.930 . S
H1296 C1334 0.930 . S
H1297 C1335 0.929 . S
H1298 C1337 0.930 . S
H1299 C1338 0.931 . S
H1300 C1340 0.930 . S
H1301 C1341 0.929 . S
H1302 C1343 0.931 . S
H1303 C1344 0.930 . S
H1304 C1346 0.930 . S
H1305 C1347 0.932 . S
H1306 C1349 0.930 . S
H1307 C1350 0.929 . S
H1308 C1352 0.931 . S
H1309 C1353 0.930 . S
H1310 C1355 0.929 . S
H1311 C1356 0.931 . S
H1312 C1358 0.930 . S
H1313 C1359 0.929 . S
O1314 H1288 0.856 . S
O1314 C1360 1.300 . S
O1315 C1360 1.209 . S
O1316 C1361 1.199 . S
O1317 H1289 0.854 . S
O1317 C1361 1.297 . S
C1318 C1319 1.404 . S
C1318 C1323 1.397 . S
C1318 C1324 1.492 . S
C1319 C1318 1.404 . S
C1319 C1320 1.396 . S
C1319 C1330 1.492 . S
C1320 C1319 1.396 . S
C1320 C1321 1.397 . S
C1320 C1336 1.509 . S
C1321 C1320 1.397 . S
C1321 C1322 1.412 . S
C1321 C1342 1.485 . S
C1322 C1321 1.412 . S
C1322 C1323 1.388 . S
C1322 C1348 1.490 . S
C1323 C1318 1.397 . S
C1323 C1322 1.388 . S
C1323 C1354 1.519 . S
C1324 C1318 1.492 . S
C1324 C1325 1.363 . S
C1324 C1329 1.390 . S
C1325 H1290 0.930 . S
C1325 C1324 1.363 . S
C1325 C1326 1.372 . S
C1326 H1291 0.930 . S
C1326 C1325 1.372 . S
C1326 C1327 1.383 . S
C1327 C1326 1.383 . S
C1327 C1328 1.395 . S
C1328 H1292 0.930 . S
C1328 C1327 1.395 . S
C1328 C1329 1.362 . S
C1329 H1293 0.930 . S
C1329 C1324 1.390 . S
C1329 C1328 1.362 . S
C1330 C1319 1.492 . S
C1330 C1331 1.377 . S
C1330 C1335 1.397 . S
C1331 H1294 0.931 . S
C1331 C1330 1.377 . S
C1331 C1332 1.376 . S
C1332 H1295 0.930 . S
C1332 C1331 1.376 . S
C1332 C1333 1.376 . S
C1333 C1332 1.376 . S
C1333 C1334 1.378 . S
C1333 C1360 1.486 . S
C1334 H1296 0.930 . S
C1334 C1333 1.378 . S
C1334 C1335 1.376 . S
C1335 H1297 0.929 . S
C1335 C1330 1.397 . S
C1335 C1334 1.376 . S
C1336 C1320 1.509 . S
C1336 C1337 1.391 . S
C1336 C1341 1.386 . S
C1337 H1298 0.930 . S
C1337 C1336 1.391 . S
C1337 C1338 1.375 . S
C1338 H1299 0.931 . S
C1338 C1337 1.375 . S
C1338 C1339 1.375 . S
C1339 C1338 1.375 . S
C1339 C1340 1.361 . S
C1340 H1300 0.930 . S
C1340 C1339 1.361 . S
C1340 C1341 1.399 . S
C1341 H1301 0.929 . S
C1341 C1336 1.386 . S
C1341 C1340 1.399 . S
C1342 C1321 1.485 . S
C1342 C1343 1.394 . S
C1342 C1347 1.360 . S
C1343 H1302 0.931 . S
C1343 C1342 1.394 . S
C1343 C1344 1.372 . S
C1344 H1303 0.930 . S
C1344 C1343 1.372 . S
C1344 C1345 1.397 . S
C1345 C1344 1.397 . S
C1345 C1346 1.390 . S
C1345 C1361 1.476 . S
C1346 H1304 0.930 . S
C1346 C1345 1.390 . S
C1346 C1347 1.366 . S
C1347 H1305 0.932 . S
C1347 C1342 1.360 . S
C1347 C1346 1.366 . S
C1348 C1322 1.490 . S
C1348 C1349 1.380 . S
C1348 C1353 1.386 . S
C1349 H1306 0.930 . S
C1349 C1348 1.380 . S
C1349 C1350 1.381 . S
C1350 H1307 0.929 . S
C1350 C1349 1.381 . S
C1350 C1351 1.371 . S
C1351 C1350 1.371 . S
C1351 C1352 1.380 . S
C1352 H1308 0.931 . S
C1352 C1351 1.380 . S
C1352 C1353 1.387 . S
C1353 H1309 0.930 . S
C1353 C1348 1.386 . S
C1353 C1352 1.387 . S
C1354 C1323 1.519 . S
C1354 C1355 1.377 . S
C1354 C1359 1.361 . S
C1355 H1310 0.929 . S
C1355 C1354 1.377 . S
C1355 C1356 1.386 . S
C1356 H1311 0.931 . S
C1356 C1355 1.386 . S
C1356 C1357 1.363 . S
C1357 C1356 1.363 . S
C1357 C1358 1.385 . S
C1358 H1312 0.930 . S
C1358 C1357 1.385 . S
C1358 C1359 1.396 . S
C1359 H1313 0.929 . S
C1359 C1354 1.361 . S
C1359 C1358 1.396 . S
C1360 O1314 1.300 . S
C1360 O1315 1.209 . S
C1360 C1333 1.486 . S
C1361 O1316 1.199 . S
C1361 O1317 1.297 . S
C1361 C1345 1.476 . S
H1362 O1388 0.856 . S
H1363 O1391 0.854 . S
H1364 C1399 0.930 . S
H1365 C1400 0.930 . S
H1366 C1402 0.930 . S
H1367 C1403 0.930 . S
H1368 C1405 0.931 . S
H1369 C1406 0.930 . S
H1370 C1408 0.930 . S
H1371 C1409 0.929 . S
H1372 C1411 0.930 . S
H1373 C1412 0.931 . S
H1374 C1414 0.930 . S
H1375 C1415 0.929 . S
H1376 C1417 0.931 . S
H1377 C1418 0.930 . S
H1378 C1420 0.930 . S
H1379 C1421 0.932 . S
H1380 C1423 0.930 . S
H1381 C1424 0.929 . S
H1382 C1426 0.931 . S
H1383 C1427 0.930 . S
H1384 C1429 0.929 . S
H1385 C1430 0.931 . S
H1386 C1432 0.930 . S
H1387 C1433 0.929 . S
O1388 H1362 0.856 . S
O1388 C1434 1.300 . S
O1389 C1434 1.209 . S
O1390 C1435 1.199 . S
O1391 H1363 0.854 . S
O1391 C1435 1.297 . S
C1392 C1393 1.404 . S
C1392 C1397 1.397 . S
C1392 C1398 1.492 . S
C1393 C1392 1.404 . S
C1393 C1394 1.396 . S
C1393 C1404 1.492 . S
C1394 C1393 1.396 . S
C1394 C1395 1.397 . S
C1394 C1410 1.509 . S
C1395 C1394 1.397 . S
C1395 C1396 1.412 . S
C1395 C1416 1.485 . S
C1396 C1395 1.412 . S
C1396 C1397 1.388 . S
C1396 C1422 1.490 . S
C1397 C1392 1.397 . S
C1397 C1396 1.388 . S
C1397 C1428 1.519 . S
C1398 C1392 1.492 . S
C1398 C1399 1.363 . S
C1398 C1403 1.390 . S
C1399 H1364 0.930 . S
C1399 C1398 1.363 . S
C1399 C1400 1.372 . S
C1400 H1365 0.930 . S
C1400 C1399 1.372 . S
C1400 C1401 1.383 . S
C1401 C1400 1.383 . S
C1401 C1402 1.395 . S
C1402 H1366 0.930 . S
C1402 C1401 1.395 . S
C1402 C1403 1.362 . S
C1403 H1367 0.930 . S
C1403 C1398 1.390 . S
C1403 C1402 1.362 . S
C1404 C1393 1.492 . S
C1404 C1405 1.377 . S
C1404 C1409 1.397 . S
C1405 H1368 0.931 . S
C1405 C1404 1.377 . S
C1405 C1406 1.376 . S
C1406 H1369 0.930 . S
C1406 C1405 1.376 . S
C1406 C1407 1.376 . S
C1407 C1406 1.376 . S
C1407 C1408 1.378 . S
C1407 C1434 1.486 . S
C1408 H1370 0.930 . S
C1408 C1407 1.378 . S
C1408 C1409 1.376 . S
C1409 H1371 0.929 . S
C1409 C1404 1.397 . S
C1409 C1408 1.376 . S
C1410 C1394 1.509 . S
C1410 C1411 1.391 . S
C1410 C1415 1.386 . S
C1411 H1372 0.930 . S
C1411 C1410 1.391 . S
C1411 C1412 1.375 . S
C1412 H1373 0.931 . S
C1412 C1411 1.375 . S
C1412 C1413 1.375 . S
C1413 C1412 1.375 . S
C1413 C1414 1.361 . S
C1414 H1374 0.930 . S
C1414 C1413 1.361 . S
C1414 C1415 1.399 . S
C1415 H1375 0.929 . S
C1415 C1410 1.386 . S
C1415 C1414 1.399 . S
C1416 C1395 1.485 . S
C1416 C1417 1.394 . S
C1416 C1421 1.360 . S
C1417 H1376 0.931 . S
C1417 C1416 1.394 . S
C1417 C1418 1.372 . S
C1418 H1377 0.930 . S
C1418 C1417 1.372 . S
C1418 C1419 1.397 . S
C1419 C1418 1.397 . S
C1419 C1420 1.390 . S
C1419 C1435 1.476 . S
C1420 H1378 0.930 . S
C1420 C1419 1.390 . S
C1420 C1421 1.366 . S
C1421 H1379 0.932 . S
C1421 C1416 1.360 . S
C1421 C1420 1.366 . S
C1422 C1396 1.490 . S
C1422 C1423 1.380 . S
C1422 C1427 1.386 . S
C1423 H1380 0.930 . S
C1423 C1422 1.380 . S
C1423 C1424 1.381 . S
C1424 H1381 0.929 . S
C1424 C1423 1.381 . S
C1424 C1425 1.371 . S
C1425 C1424 1.371 . S
C1425 C1426 1.380 . S
C1426 H1382 0.931 . S
C1426 C1425 1.380 . S
C1426 C1427 1.387 . S
C1427 H1383 0.930 . S
C1427 C1422 1.386 . S
C1427 C1426 1.387 . S
C1428 C1397 1.519 . S
C1428 C1429 1.377 . S
C1428 C1433 1.361 . S
C1429 H1384 0.929 . S
C1429 C1428 1.377 . S
C1429 C1430 1.386 . S
C1430 H1385 0.931 . S
C1430 C1429 1.386 . S
C1430 C1431 1.363 . S
C1431 C1430 1.363 . S
C1431 C1432 1.385 . S
C1432 H1386 0.930 . S
C1432 C1431 1.385 . S
C1432 C1433 1.396 . S
C1433 H1387 0.929 . S
C1433 C1428 1.361 . S
C1433 C1432 1.396 . S
C1434 O1388 1.300 . S
C1434 O1389 1.209 . S
C1434 C1407 1.486 . S
C1435 O1390 1.199 . S
C1435 O1391 1.297 . S
C1435 C1419 1.476 . S
H1436 O1462 0.856 . S
H1437 O1465 0.854 . S
H1438 C1473 0.930 . S
H1439 C1474 0.930 . S
H1440 C1476 0.930 . S
H1441 C1477 0.930 . S
H1442 C1479 0.931 . S
H1443 C1480 0.930 . S
H1444 C1482 0.930 . S
H1445 C1483 0.929 . S
H1446 C1485 0.930 . S
H1447 C1486 0.931 . S
H1448 C1488 0.930 . S
H1449 C1489 0.929 . S
H1450 C1491 0.931 . S
H1451 C1492 0.930 . S
H1452 C1494 0.930 . S
H1453 C1495 0.932 . S
H1454 C1497 0.930 . S
H1455 C1498 0.929 . S
H1456 C1500 0.931 . S
H1457 C1501 0.930 . S
H1458 C1503 0.929 . S
H1459 C1504 0.931 . S
H1460 C1506 0.930 . S
H1461 C1507 0.929 . S
O1462 H1436 0.856 . S
O1462 C1508 1.300 . S
O1463 C1508 1.209 . S
O1464 C1509 1.199 . S
O1465 H1437 0.854 . S
O1465 C1509 1.297 . S
C1466 C1467 1.404 . S
C1466 C1471 1.397 . S
C1466 C1472 1.492 . S
C1467 C1466 1.404 . S
C1467 C1468 1.396 . S
C1467 C1478 1.492 . S
C1468 C1467 1.396 . S
C1468 C1469 1.397 . S
C1468 C1484 1.509 . S
C1469 C1468 1.397 . S
C1469 C1470 1.412 . S
C1469 C1490 1.485 . S
C1470 C1469 1.412 . S
C1470 C1471 1.388 . S
C1470 C1496 1.490 . S
C1471 C1466 1.397 . S
C1471 C1470 1.388 . S
C1471 C1502 1.519 . S
C1472 C1466 1.492 . S
C1472 C1473 1.363 . S
C1472 C1477 1.390 . S
C1473 H1438 0.930 . S
C1473 C1472 1.363 . S
C1473 C1474 1.372 . S
C1474 H1439 0.930 . S
C1474 C1473 1.372 . S
C1474 C1475 1.383 . S
C1475 C1474 1.383 . S
C1475 C1476 1.395 . S
C1476 H1440 0.930 . S
C1476 C1475 1.395 . S
C1476 C1477 1.362 . S
C1477 H1441 0.930 . S
C1477 C1472 1.390 . S
C1477 C1476 1.362 . S
C1478 C1467 1.492 . S
C1478 C1479 1.377 . S
C1478 C1483 1.397 . S
C1479 H1442 0.931 . S
C1479 C1478 1.377 . S
C1479 C1480 1.376 . S
C1480 H1443 0.930 . S
C1480 C1479 1.376 . S
C1480 C1481 1.376 . S
C1481 C1480 1.376 . S
C1481 C1482 1.378 . S
C1481 C1508 1.486 . S
C1482 H1444 0.930 . S
C1482 C1481 1.378 . S
C1482 C1483 1.376 . S
C1483 H1445 0.929 . S
C1483 C1478 1.397 . S
C1483 C1482 1.376 . S
C1484 C1468 1.509 . S
C1484 C1485 1.391 . S
C1484 C1489 1.386 . S
C1485 H1446 0.930 . S
C1485 C1484 1.391 . S
C1485 C1486 1.375 . S
C1486 H1447 0.931 . S
C1486 C1485 1.375 . S
C1486 C1487 1.375 . S
C1487 C1486 1.375 . S
C1487 C1488 1.361 . S
C1488 H1448 0.930 . S
C1488 C1487 1.361 . S
C1488 C1489 1.399 . S
C1489 H1449 0.929 . S
C1489 C1484 1.386 . S
C1489 C1488 1.399 . S
C1490 C1469 1.485 . S
C1490 C1491 1.394 . S
C1490 C1495 1.360 . S
C1491 H1450 0.931 . S
C1491 C1490 1.394 . S
C1491 C1492 1.372 . S
C1492 H1451 0.930 . S
C1492 C1491 1.372 . S
C1492 C1493 1.397 . S
C1493 C1492 1.397 . S
C1493 C1494 1.390 . S
C1493 C1509 1.476 . S
C1494 H1452 0.930 . S
C1494 C1493 1.390 . S
C1494 C1495 1.366 . S
C1495 H1453 0.932 . S
C1495 C1490 1.360 . S
C1495 C1494 1.366 . S
C1496 C1470 1.490 . S
C1496 C1497 1.380 . S
C1496 C1501 1.386 . S
C1497 H1454 0.930 . S
C1497 C1496 1.380 . S
C1497 C1498 1.381 . S
C1498 H1455 0.929 . S
C1498 C1497 1.381 . S
C1498 C1499 1.371 . S
C1499 C1498 1.371 . S
C1499 C1500 1.380 . S
C1500 H1456 0.931 . S
C1500 C1499 1.380 . S
C1500 C1501 1.387 . S
C1501 H1457 0.930 . S
C1501 C1496 1.386 . S
C1501 C1500 1.387 . S
C1502 C1471 1.519 . S
C1502 C1503 1.377 . S
C1502 C1507 1.361 . S
C1503 H1458 0.929 . S
C1503 C1502 1.377 . S
C1503 C1504 1.386 . S
C1504 H1459 0.931 . S
C1504 C1503 1.386 . S
C1504 C1505 1.363 . S
C1505 C1504 1.363 . S
C1505 C1506 1.385 . S
C1506 H1460 0.930 . S
C1506 C1505 1.385 . S
C1506 C1507 1.396 . S
C1507 H1461 0.929 . S
C1507 C1502 1.361 . S
C1507 C1506 1.396 . S
C1508 O1462 1.300 . S
C1508 O1463 1.209 . S
C1508 C1481 1.486 . S
C1509 O1464 1.199 . S
C1509 O1465 1.297 . S
C1509 C1493 1.476 . S
H1510 O1536 0.856 . S
H1511 O1539 0.854 . S
H1512 C1547 0.930 . S
H1513 C1548 0.930 . S
H1514 C1550 0.930 . S
H1515 C1551 0.930 . S
H1516 C1553 0.931 . S
H1517 C1554 0.930 . S
H1518 C1556 0.930 . S
H1519 C1557 0.929 . S
H1520 C1559 0.930 . S
H1521 C1560 0.931 . S
H1522 C1562 0.930 . S
H1523 C1563 0.929 . S
H1524 C1565 0.931 . S
H1525 C1566 0.930 . S
H1526 C1568 0.930 . S
H1527 C1569 0.932 . S
H1528 C1571 0.930 . S
H1529 C1572 0.929 . S
H1530 C1574 0.931 . S
H1531 C1575 0.930 . S
H1532 C1577 0.929 . S
H1533 C1578 0.931 . S
H1534 C1580 0.930 . S
H1535 C1581 0.929 . S
O1536 H1510 0.856 . S
O1536 C1582 1.300 . S
O1537 C1582 1.209 . S
O1538 C1583 1.199 . S
O1539 H1511 0.854 . S
O1539 C1583 1.297 . S
C1540 C1541 1.404 . S
C1540 C1545 1.397 . S
C1540 C1546 1.492 . S
C1541 C1540 1.404 . S
C1541 C1542 1.396 . S
C1541 C1552 1.492 . S
C1542 C1541 1.396 . S
C1542 C1543 1.397 . S
C1542 C1558 1.509 . S
C1543 C1542 1.397 . S
C1543 C1544 1.412 . S
C1543 C1564 1.485 . S
C1544 C1543 1.412 . S
C1544 C1545 1.388 . S
C1544 C1570 1.490 . S
C1545 C1540 1.397 . S
C1545 C1544 1.388 . S
C1545 C1576 1.519 . S
C1546 C1540 1.492 . S
C1546 C1547 1.363 . S
C1546 C1551 1.390 . S
C1547 H1512 0.930 . S
C1547 C1546 1.363 . S
C1547 C1548 1.372 . S
C1548 H1513 0.930 . S
C1548 C1547 1.372 . S
C1548 C1549 1.383 . S
C1549 C1548 1.383 . S
C1549 C1550 1.395 . S
C1550 H1514 0.930 . S
C1550 C1549 1.395 . S
C1550 C1551 1.362 . S
C1551 H1515 0.930 . S
C1551 C1546 1.390 . S
C1551 C1550 1.362 . S
C1552 C1541 1.492 . S
C1552 C1553 1.377 . S
C1552 C1557 1.397 . S
C1553 H1516 0.931 . S
C1553 C1552 1.377 . S
C1553 C1554 1.376 . S
C1554 H1517 0.930 . S
C1554 C1553 1.376 . S
C1554 C1555 1.376 . S
C1555 C1554 1.376 . S
C1555 C1556 1.378 . S
C1555 C1582 1.486 . S
C1556 H1518 0.930 . S
C1556 C1555 1.378 . S
C1556 C1557 1.376 . S
C1557 H1519 0.929 . S
C1557 C1552 1.397 . S
C1557 C1556 1.376 . S
C1558 C1542 1.509 . S
C1558 C1559 1.391 . S
C1558 C1563 1.386 . S
C1559 H1520 0.930 . S
C1559 C1558 1.391 . S
C1559 C1560 1.375 . S
C1560 H1521 0.931 . S
C1560 C1559 1.375 . S
C1560 C1561 1.375 . S
C1561 C1560 1.375 . S
C1561 C1562 1.361 . S
C1562 H1522 0.930 . S
C1562 C1561 1.361 . S
C1562 C1563 1.399 . S
C1563 H1523 0.929 . S
C1563 C1558 1.386 . S
C1563 C1562 1.399 . S
C1564 C1543 1.485 . S
C1564 C1565 1.394 . S
C1564 C1569 1.360 . S
C1565 H1524 0.931 . S
C1565 C1564 1.394 . S
C1565 C1566 1.372 . S
C1566 H1525 0.930 . S
C1566 C1565 1.372 . S
C1566 C1567 1.397 . S
C1567 C1566 1.397 . S
C1567 C1568 1.390 . S
C1567 C1583 1.476 . S
C1568 H1526 0.930 . S
C1568 C1567 1.390 . S
C1568 C1569 1.366 . S
C1569 H1527 0.932 . S
C1569 C1564 1.360 . S
C1569 C1568 1.366 . S
C1570 C1544 1.490 . S
C1570 C1571 1.380 . S
C1570 C1575 1.386 . S
C1571 H1528 0.930 . S
C1571 C1570 1.380 . S
C1571 C1572 1.381 . S
C1572 H1529 0.929 . S
C1572 C1571 1.381 . S
C1572 C1573 1.371 . S
C1573 C1572 1.371 . S
C1573 C1574 1.380 . S
C1574 H1530 0.931 . S
C1574 C1573 1.380 . S
C1574 C1575 1.387 . S
C1575 H1531 0.930 . S
C1575 C1570 1.386 . S
C1575 C1574 1.387 . S
C1576 C1545 1.519 . S
C1576 C1577 1.377 . S
C1576 C1581 1.361 . S
C1577 H1532 0.929 . S
C1577 C1576 1.377 . S
C1577 C1578 1.386 . S
C1578 H1533 0.931 . S
C1578 C1577 1.386 . S
C1578 C1579 1.363 . S
C1579 C1578 1.363 . S
C1579 C1580 1.385 . S
C1580 H1534 0.930 . S
C1580 C1579 1.385 . S
C1580 C1581 1.396 . S
C1581 H1535 0.929 . S
C1581 C1576 1.361 . S
C1581 C1580 1.396 . S
C1582 O1536 1.300 . S
C1582 O1537 1.209 . S
C1582 C1555 1.486 . S
C1583 O1538 1.199 . S
C1583 O1539 1.297 . S
C1583 C1567 1.476 . S
H1584 C1590 0.930 . S
H1585 C1593 0.930 . S
H1586 C1594 0.930 . S
H1587 C1595 0.930 1_455 S
H1588 C1598 0.930 . S
H1589 C1599 0.930 . S
C1590 H1584 0.930 . S
C1590 C1591 1.380 . S
C1590 C1592 1.415 . S
C1591 C1590 1.380 . S
C1591 C1593 1.406 1_655 S
C1592 C1590 1.415 . S
C1592 C1597 1.442 . S
C1592 C1599 1.409 . S
C1593 H1585 0.930 . S
C1593 C1591 1.406 1_455 S
C1593 C1594 1.362 . S
C1594 H1586 0.930 . S
C1594 C1593 1.362 . S
C1594 C1597 1.377 1_455 S
C1595 H1587 0.930 1_655 S
C1595 C1596 1.355 . S
C1595 C1597 1.431 . S
C1596 C1595 1.355 . S
C1596 C1598 1.419 . S
C1597 C1592 1.442 . S
C1597 C1594 1.377 1_655 S
C1597 C1595 1.431 . S
C1598 H1588 0.930 . S
C1598 C1596 1.419 . S
C1598 C1599 1.362 . S
C1599 H1589 0.930 . S
C1599 C1592 1.409 . S
C1599 C1598 1.362 . S
H1600 C1606 0.930 . S
H1601 C1609 0.930 . S
H1602 C1610 0.930 . S
H1603 C1611 0.930 . S
H1604 C1614 0.930 . S
H1605 C1615 0.930 . S
C1606 H1600 0.930 . S
C1606 C1607 1.355 . S
C1606 C1608 1.415 . S
C1607 C1606 1.355 . S
C1607 C1609 1.419 . S
C1608 C1606 1.415 . S
C1608 C1613 1.425 . S
C1608 C1615 1.409 . S
C1609 H1601 0.930 . S
C1609 C1607 1.419 . S
C1609 C1610 1.362 . S
C1610 H1602 0.930 . S
C1610 C1609 1.362 . S
C1610 C1613 1.409 . S
C1611 H1603 0.930 . S
C1611 C1612 1.355 . S
C1611 C1613 1.415 . S
C1612 C1611 1.355 . S
C1612 C1614 1.419 . S
C1613 C1608 1.425 . S
C1613 C1610 1.409 . S
C1613 C1611 1.415 . S
C1614 H1604 0.930 . S
C1614 C1612 1.419 . S
C1614 C1615 1.362 . S
C1615 H1605 0.930 . S
C1615 C1608 1.409 . S
C1615 C1614 1.362 . S
H1616 C1622 0.930 . S
H1617 C1625 0.930 . S
H1618 C1626 0.930 . S
H1619 C1627 0.930 . S
H1620 C1630 0.930 . S
H1621 C1631 0.930 . S
C1622 H1616 0.930 . S
C1622 C1623 1.355 . S
C1622 C1624 1.415 . S
C1623 C1622 1.355 . S
C1623 C1625 1.419 . S
C1624 C1622 1.415 . S
C1624 C1629 1.425 . S
C1624 C1631 1.409 . S
C1625 H1617 0.930 . S
C1625 C1623 1.419 . S
C1625 C1626 1.362 . S
C1626 H1618 0.930 . S
C1626 C1625 1.362 . S
C1626 C1629 1.409 . S
C1627 H1619 0.930 . S
C1627 C1628 1.355 . S
C1627 C1629 1.415 . S
C1628 C1627 1.355 . S
C1628 C1630 1.419 . S
C1629 C1624 1.425 . S
C1629 C1626 1.409 . S
C1629 C1627 1.415 . S
C1630 H1620 0.930 . S
C1630 C1628 1.419 . S
C1630 C1631 1.362 . S
C1631 H1621 0.930 . S
C1631 C1624 1.409 . S
C1631 C1630 1.362 . S
H1632 C1638 0.930 . S
H1633 C1641 0.930 . S
H1634 C1642 0.930 . S
H1635 C1643 0.930 . S
H1636 C1646 0.930 . S
H1637 C1647 0.930 1_545 S
C1638 H1632 0.930 . S
C1638 C1639 1.355 . S
C1638 C1640 1.415 . S
C1639 C1638 1.355 . S
C1639 C1641 1.419 . S
C1640 C1638 1.415 . S
C1640 C1645 1.425 . S
C1640 C1647 1.409 . S
C1641 H1633 0.930 . S
C1641 C1639 1.419 . S
C1641 C1642 1.362 . S
C1642 H1634 0.930 . S
C1642 C1641 1.362 . S
C1642 C1645 1.409 . S
C1643 H1635 0.930 . S
C1643 C1644 1.355 . S
C1643 C1645 1.415 . S
C1644 C1643 1.355 . S
C1644 C1646 1.419 . S
C1645 C1640 1.425 . S
C1645 C1642 1.409 . S
C1645 C1643 1.415 . S
C1646 H1636 0.930 . S
C1646 C1644 1.419 . S
C1646 C1647 1.362 . S
C1647 H1637 0.930 1_565 S
C1647 C1640 1.409 . S
C1647 C1646 1.362 . S
H1648 C1654 0.930 . S
H1649 C1657 0.930 . S
H1650 C1658 0.930 . S
H1651 C1659 0.930 . S
H1652 C1662 0.930 . S
H1653 C1663 0.930 . S
C1654 H1648 0.930 . S
C1654 C1655 1.355 1_655 S
C1654 C1656 1.415 1_655 S
C1655 C1654 1.355 1_455 S
C1655 C1657 1.419 . S
C1656 C1654 1.415 1_455 S
C1656 C1661 1.425 . S
C1656 C1663 1.409 1_455 S
C1657 H1649 0.930 . S
C1657 C1655 1.419 . S
C1657 C1658 1.362 . S
C1658 H1650 0.930 . S
C1658 C1657 1.362 . S
C1658 C1661 1.409 . S
C1659 H1651 0.930 . S
C1659 C1660 1.355 . S
C1659 C1661 1.415 . S
C1660 C1659 1.355 . S
C1660 C1662 1.419 1_455 S
C1661 C1656 1.425 . S
C1661 C1658 1.409 . S
C1661 C1659 1.415 . S
C1662 H1652 0.930 . S
C1662 C1660 1.419 1_655 S
C1662 C1663 1.362 . S
C1663 H1653 0.930 . S
C1663 C1656 1.409 1_655 S
C1663 C1662 1.362 . S
H1664 C1670 0.930 . S
H1665 C1673 0.930 . S
H1666 C1674 0.930 . S
H1667 C1675 0.930 . S
H1668 C1678 0.930 . S
H1669 C1679 0.930 . S
C1670 H1664 0.930 . S
C1670 C1671 1.355 1_556 S
C1670 C1672 1.415 . S
C1671 C1670 1.355 1_554 S
C1671 C1673 1.419 . S
C1672 C1670 1.415 . S
C1672 C1677 1.425 . S
C1672 C1679 1.409 . S
C1673 H1665 0.930 . S
C1673 C1671 1.419 . S
C1673 C1674 1.362 1_554 S
C1674 H1666 0.930 . S
C1674 C1673 1.362 1_556 S
C1674 C1677 1.409 . S
C1675 H1667 0.930 . S
C1675 C1676 1.355 . S
C1675 C1677 1.415 . S
C1676 C1675 1.355 . S
C1676 C1678 1.419 . S
C1677 C1672 1.425 . S
C1677 C1674 1.409 . S
C1677 C1675 1.415 . S
C1678 H1668 0.930 . S
C1678 C1676 1.419 . S
C1678 C1679 1.362 . S
C1679 H1669 0.930 . S
C1679 C1672 1.409 . S
C1679 C1678 1.362 . S
H1680 C1686 0.930 1_554 S
H1681 C1689 0.906 1_655 S
H1682 C1690 0.947 . S
H1683 C1691 0.930 . S
H1684 C1694 0.930 . S
H1685 C1695 0.940 . S
C1686 H1680 0.930 1_556 S
C1686 C1687 1.355 . S
C1686 C1688 1.415 . S
C1687 C1686 1.355 . S
C1687 C1689 1.419 . S
C1688 C1686 1.415 . S
C1688 C1693 1.425 . S
C1688 C1695 1.409 . S
C1689 H1681 0.906 1_455 S
C1689 C1687 1.419 . S
C1689 C1690 1.379 1_455 S
C1690 H1682 0.947 . S
C1690 C1689 1.379 1_655 S
C1690 C1693 1.379 1_655 S
C1691 H1683 0.930 . S
C1691 C1692 1.355 1_655 S
C1691 C1693 1.415 1_655 S
C1692 C1691 1.355 1_455 S
C1692 C1694 1.419 . S
C1693 C1688 1.425 . S
C1693 C1690 1.379 1_455 S
C1693 C1691 1.415 1_455 S
C1694 H1684 0.930 . S
C1694 C1692 1.419 . S
C1694 C1695 1.362 . S
C1695 H1685 0.940 . S
C1695 C1688 1.409 . S
C1695 C1694 1.362 . S
H1696 C1702 0.930 . S
H1697 C1705 0.930 . S
H1698 C1706 0.930 . S
H1699 C1707 0.930 . S
H1700 C1710 0.930 . S
H1701 C1711 0.930 . S
C1702 H1696 0.930 . S
C1702 C1703 1.355 . S
C1702 C1704 1.415 . S
C1703 C1702 1.355 . S
C1703 C1705 1.419 . S
C1704 C1702 1.415 . S
C1704 C1709 1.425 . S
C1704 C1711 1.409 . S
C1705 H1697 0.930 . S
C1705 C1703 1.419 . S
C1705 C1706 1.362 . S
C1706 H1698 0.930 . S
C1706 C1705 1.362 . S
C1706 C1709 1.409 . S
C1707 H1699 0.930 . S
C1707 C1708 1.355 . S
C1707 C1709 1.415 . S
C1708 C1707 1.355 . S
C1708 C1710 1.419 . S
C1709 C1704 1.425 . S
C1709 C1706 1.409 . S
C1709 C1707 1.415 . S
C1710 H1700 0.930 . S
C1710 C1708 1.419 . S
C1710 C1711 1.362 . S
C1711 H1701 0.930 . S
C1711 C1704 1.409 . S
C1711 C1710 1.362 . S
H1712 C1718 0.930 . S
H1713 C1721 0.930 1_554 S
H1714 C1722 0.930 . S
H1715 C1723 0.930 . S
H1716 C1726 0.930 . S
H1717 C1727 0.930 . S
C1718 H1712 0.930 . S
C1718 C1719 1.355 . S
C1718 C1720 1.415 . S
C1719 C1718 1.355 . S
C1719 C1721 1.419 1_565 S
C1720 C1718 1.415 . S
C1720 C1725 1.425 1_565 S
C1720 C1727 1.409 . S
C1721 H1713 0.930 1_556 S
C1721 C1719 1.419 1_545 S
C1721 C1722 1.362 . S
C1722 H1714 0.930 . S
C1722 C1721 1.362 . S
C1722 C1725 1.409 . S
C1723 H1715 0.930 . S
C1723 C1724 1.355 1_545 S
C1723 C1725 1.415 . S
C1724 C1723 1.355 1_565 S
C1724 C1726 1.419 . S
C1725 C1720 1.425 1_545 S
C1725 C1722 1.409 . S
C1725 C1723 1.415 . S
C1726 H1716 0.930 . S
C1726 C1724 1.419 . S
C1726 C1727 1.362 . S
C1727 H1717 0.930 . S
C1727 C1720 1.409 . S
C1727 C1726 1.362 . S
H1728 C1734 0.930 . S
H1729 C1737 0.930 . S
H1730 C1738 0.930 . S
H1731 C1739 0.930 . S
H1732 C1742 0.930 . S
H1733 C1743 0.930 . S
C1734 H1728 0.930 . S
C1734 C1735 1.355 1_565 S
C1734 C1736 1.415 . S
C1735 C1734 1.355 1_545 S
C1735 C1737 1.419 . S
C1736 C1734 1.415 . S
C1736 C1741 1.425 1_565 S
C1736 C1743 1.409 . S
C1737 H1729 0.930 . S
C1737 C1735 1.419 . S
C1737 C1738 1.362 . S
C1738 H1730 0.930 . S
C1738 C1737 1.362 . S
C1738 C1741 1.409 . S
C1739 H1731 0.930 . S
C1739 C1740 1.355 1_545 S
C1739 C1741 1.415 . S
C1740 C1739 1.355 1_565 S
C1740 C1742 1.419 . S
C1741 C1736 1.425 1_545 S
C1741 C1738 1.409 . S
C1741 C1739 1.415 . S
C1742 H1732 0.930 . S
C1742 C1740 1.419 . S
C1742 C1743 1.362 . S
C1743 H1733 0.930 . S
C1743 C1736 1.409 . S
C1743 C1742 1.362 . S
H1744 C1750 0.930 . S
H1745 C1753 0.930 . S
H1746 C1754 0.930 . S
H1747 C1755 0.930 . S
H1748 C1758 0.930 . S
H1749 C1759 0.930 . S
C1750 H1744 0.930 . S
C1750 C1751 1.355 . S
C1750 C1752 1.415 . S
C1751 C1750 1.355 . S
C1751 C1753 1.419 1_655 S
C1752 C1750 1.415 . S
C1752 C1757 1.425 1_655 S
C1752 C1759 1.409 . S
C1753 H1745 0.930 . S
C1753 C1751 1.419 1_455 S
C1753 C1754 1.362 . S
C1754 H1746 0.930 . S
C1754 C1753 1.362 . S
C1754 C1757 1.409 . S
C1755 H1747 0.930 . S
C1755 C1756 1.355 1_455 S
C1755 C1757 1.415 . S
C1756 C1755 1.355 1_655 S
C1756 C1758 1.419 . S
C1757 C1752 1.425 1_455 S
C1757 C1754 1.409 . S
C1757 C1755 1.415 . S
C1758 H1748 0.930 . S
C1758 C1756 1.419 . S
C1758 C1759 1.362 . S
C1759 H1749 0.930 . S
C1759 C1752 1.409 . S
C1759 C1758 1.362 . S
H1760 C1766 0.930 . S
H1761 C1769 0.930 . S
H1762 C1770 0.930 . S
H1763 C1771 0.930 . S
H1764 C1774 0.930 . S
H1765 C1775 0.930 . S
C1766 H1760 0.930 . S
C1766 C1767 1.355 . S
C1766 C1768 1.415 . S
C1767 C1766 1.355 . S
C1767 C1769 1.419 . S
C1768 C1766 1.415 . S
C1768 C1773 1.425 . S
C1768 C1775 1.409 . S
C1769 H1761 0.930 . S
C1769 C1767 1.419 . S
C1769 C1770 1.362 . S
C1770 H1762 0.930 . S
C1770 C1769 1.362 . S
C1770 C1773 1.409 . S
C1771 H1763 0.930 . S
C1771 C1772 1.355 . S
C1771 C1773 1.415 . S
C1772 C1771 1.355 . S
C1772 C1774 1.419 . S
C1773 C1768 1.425 . S
C1773 C1770 1.409 . S
C1773 C1771 1.415 . S
C1774 H1764 0.930 . S
C1774 C1772 1.419 . S
C1774 C1775 1.362 . S
C1775 H1765 0.930 . S
C1775 C1768 1.409 . S
C1775 C1774 1.362 . S
H1776 C1782 0.930 . S
H1777 C1785 0.930 . S
H1778 C1786 0.930 . S
H1779 C1787 0.930 . S
H1780 C1790 0.930 . S
H1781 C1791 0.930 . S
C1782 H1776 0.930 . S
C1782 C1783 1.355 . S
C1782 C1784 1.415 . S
C1783 C1782 1.355 . S
C1783 C1785 1.419 . S
C1784 C1782 1.415 . S
C1784 C1789 1.425 . S
C1784 C1791 1.409 . S
C1785 H1777 0.930 . S
C1785 C1783 1.419 . S
C1785 C1786 1.362 . S
C1786 H1778 0.930 . S
C1786 C1785 1.362 . S
C1786 C1789 1.409 . S
C1787 H1779 0.930 . S
C1787 C1788 1.355 . S
C1787 C1789 1.415 . S
C1788 C1787 1.355 . S
C1788 C1790 1.419 . S
C1789 C1784 1.425 . S
C1789 C1786 1.409 . S
C1789 C1787 1.415 . S
C1790 H1780 0.930 . S
C1790 C1788 1.419 . S
C1790 C1791 1.362 . S
C1791 H1781 0.930 . S
C1791 C1784 1.409 . S
C1791 C1790 1.362 . S
H1792 C1798 0.930 . S
H1793 C1801 0.930 . S
H1794 C1802 0.930 . S
H1795 C1803 0.930 . S
H1796 C1806 0.930 . S
H1797 C1807 0.930 . S
C1798 H1792 0.930 . S
C1798 C1799 1.355 . S
C1798 C1800 1.415 . S
C1799 C1798 1.355 . S
C1799 C1801 1.419 . S
C1800 C1798 1.415 . S
C1800 C1805 1.425 . S
C1800 C1807 1.409 . S
C1801 H1793 0.930 . S
C1801 C1799 1.419 . S
C1801 C1802 1.362 . S
C1802 H1794 0.930 . S
C1802 C1801 1.362 . S
C1802 C1805 1.409 . S
C1803 H1795 0.930 . S
C1803 C1804 1.355 . S
C1803 C1805 1.415 . S
C1804 C1803 1.355 . S
C1804 C1806 1.419 . S
C1805 C1800 1.425 . S
C1805 C1802 1.409 . S
C1805 C1803 1.415 . S
C1806 H1796 0.930 . S
C1806 C1804 1.419 . S
C1806 C1807 1.362 . S
C1807 H1797 0.930 . S
C1807 C1800 1.409 . S
C1807 C1806 1.362 . S
H1808 C1814 0.930 . S
H1809 C1817 0.930 . S
H1810 C1818 0.930 . S
H1811 C1819 0.930 . S
H1812 C1822 0.930 . S
H1813 C1823 0.930 . S
C1814 H1808 0.930 . S
C1814 C1815 1.355 . S
C1814 C1816 1.415 . S
C1815 C1814 1.355 . S
C1815 C1817 1.419 . S
C1816 C1814 1.415 . S
C1816 C1821 1.425 . S
C1816 C1823 1.409 . S
C1817 H1809 0.930 . S
C1817 C1815 1.419 . S
C1817 C1818 1.362 . S
C1818 H1810 0.930 . S
C1818 C1817 1.362 . S
C1818 C1821 1.409 . S
C1819 H1811 0.930 . S
C1819 C1820 1.355 . S
C1819 C1821 1.415 . S
C1820 C1819 1.355 . S
C1820 C1822 1.419 . S
C1821 C1816 1.425 . S
C1821 C1818 1.409 . S
C1821 C1819 1.415 . S
C1822 H1812 0.930 . S
C1822 C1820 1.419 . S
C1822 C1823 1.362 . S
C1823 H1813 0.930 . S
C1823 C1816 1.409 . S
C1823 C1822 1.362 . S
H1824 C1830 0.930 . S
H1825 C1833 0.930 . S
H1826 C1834 0.930 . S
H1827 C1835 0.930 . S
H1828 C1838 0.930 . S
H1829 C1839 0.930 . S
C1830 H1824 0.930 . S
C1830 C1831 1.355 . S
C1830 C1832 1.415 . S
C1831 C1830 1.355 . S
C1831 C1833 1.419 . S
C1832 C1830 1.415 . S
C1832 C1837 1.425 . S
C1832 C1839 1.409 . S
C1833 H1825 0.930 . S
C1833 C1831 1.419 . S
C1833 C1834 1.362 . S
C1834 H1826 0.930 . S
C1834 C1833 1.362 . S
C1834 C1837 1.409 . S
C1835 H1827 0.930 . S
C1835 C1836 1.355 . S
C1835 C1837 1.415 . S
C1836 C1835 1.355 . S
C1836 C1838 1.419 . S
C1837 C1832 1.425 . S
C1837 C1834 1.409 . S
C1837 C1835 1.415 . S
C1838 H1828 0.930 . S
C1838 C1836 1.419 . S
C1838 C1839 1.362 . S
C1839 H1829 0.930 . S
C1839 C1832 1.409 . S
C1839 C1838 1.362 . S
H1840 C1846 0.930 . S
H1841 C1849 0.930 . S
H1842 C1850 0.930 . S
H1843 C1851 0.930 . S
H1844 C1854 0.930 . S
H1845 C1855 0.930 . S
C1846 H1840 0.930 . S
C1846 C1847 1.355 . S
C1846 C1848 1.415 . S
C1847 C1846 1.355 . S
C1847 C1849 1.419 . S
C1848 C1846 1.415 . S
C1848 C1853 1.425 . S
C1848 C1855 1.409 . S
C1849 H1841 0.930 . S
C1849 C1847 1.419 . S
C1849 C1850 1.362 . S
C1850 H1842 0.930 . S
C1850 C1849 1.362 . S
C1850 C1853 1.409 . S
C1851 H1843 0.930 . S
C1851 C1852 1.355 . S
C1851 C1853 1.415 . S
C1852 C1851 1.355 . S
C1852 C1854 1.419 . S
C1853 C1848 1.425 . S
C1853 C1850 1.409 . S
C1853 C1851 1.415 . S
C1854 H1844 0.930 . S
C1854 C1852 1.419 . S
C1854 C1855 1.362 . S
C1855 H1845 0.930 . S
C1855 C1848 1.409 . S
C1855 C1854 1.362 . S
H1856 C1862 0.930 . S
H1857 C1865 0.930 . S
H1858 C1866 0.930 . S
H1859 C1867 0.930 . S
H1860 C1870 0.930 . S
H1861 C1871 0.930 . S
C1862 H1856 0.930 . S
C1862 C1863 1.355 . S
C1862 C1864 1.415 . S
C1863 C1862 1.355 . S
C1863 C1865 1.419 . S
C1864 C1862 1.415 . S
C1864 C1869 1.425 . S
C1864 C1871 1.409 . S
C1865 H1857 0.930 . S
C1865 C1863 1.419 . S
C1865 C1866 1.362 . S
C1866 H1858 0.930 . S
C1866 C1865 1.362 . S
C1866 C1869 1.409 . S
C1867 H1859 0.930 . S
C1867 C1868 1.355 . S
C1867 C1869 1.415 . S
C1868 C1867 1.355 . S
C1868 C1870 1.419 . S
C1869 C1864 1.425 . S
C1869 C1866 1.409 . S
C1869 C1867 1.415 . S
C1870 H1860 0.930 . S
C1870 C1868 1.419 . S
C1870 C1871 1.362 . S
C1871 H1861 0.930 . S
C1871 C1864 1.409 . S
C1871 C1870 1.362 . S
H1872 C1878 0.930 . S
H1873 C1881 0.930 . S
H1874 C1882 0.930 . S
H1875 C1883 0.930 . S
H1876 C1886 0.930 . S
H1877 C1887 0.930 . S
C1878 H1872 0.930 . S
C1878 C1879 1.355 . S
C1878 C1880 1.415 . S
C1879 C1878 1.355 . S
C1879 C1881 1.419 . S
C1880 C1878 1.415 . S
C1880 C1885 1.425 . S
C1880 C1887 1.409 . S
C1881 H1873 0.930 . S
C1881 C1879 1.419 . S
C1881 C1882 1.362 . S
C1882 H1874 0.930 . S
C1882 C1881 1.362 . S
C1882 C1885 1.409 . S
C1883 H1875 0.930 . S
C1883 C1884 1.355 . S
C1883 C1885 1.415 . S
C1884 C1883 1.355 . S
C1884 C1886 1.419 . S
C1885 C1880 1.425 . S
C1885 C1882 1.409 . S
C1885 C1883 1.415 . S
C1886 H1876 0.930 . S
C1886 C1884 1.419 . S
C1886 C1887 1.362 . S
C1887 H1877 0.930 . S
C1887 C1880 1.409 . S
C1887 C1886 1.362 . S
H1888 C1894 0.930 . S
H1889 C1897 0.930 . S
H1890 C1898 0.930 . S
H1891 C1899 0.930 . S
H1892 C1902 0.930 . S
H1893 C1903 0.930 . S
C1894 H1888 0.930 . S
C1894 C1895 1.355 . S
C1894 C1896 1.415 . S
C1895 C1894 1.355 . S
C1895 C1897 1.419 . S
C1896 C1894 1.415 . S
C1896 C1901 1.425 . S
C1896 C1903 1.409 . S
C1897 H1889 0.930 . S
C1897 C1895 1.419 . S
C1897 C1898 1.362 . S
C1898 H1890 0.930 . S
C1898 C1897 1.362 . S
C1898 C1901 1.409 . S
C1899 H1891 0.930 . S
C1899 C1900 1.355 . S
C1899 C1901 1.415 . S
C1900 C1899 1.355 . S
C1900 C1902 1.419 . S
C1901 C1896 1.425 . S
C1901 C1898 1.409 . S
C1901 C1899 1.415 . S
C1902 H1892 0.930 . S
C1902 C1900 1.419 . S
C1902 C1903 1.362 . S
C1903 H1893 0.930 . S
C1903 C1896 1.409 . S
C1903 C1902 1.362 . S
H1904 C1910 0.930 . S
H1905 C1913 0.930 . S
H1906 C1914 0.930 . S
H1907 C1915 0.930 . S
H1908 C1918 0.930 . S
H1909 C1919 0.930 . S
C1910 H1904 0.930 . S
C1910 C1911 1.355 . S
C1910 C1912 1.415 . S
C1911 C1910 1.355 . S
C1911 C1913 1.419 . S
C1912 C1910 1.415 . S
C1912 C1917 1.425 . S
C1912 C1919 1.409 . S
C1913 H1905 0.930 . S
C1913 C1911 1.419 . S
C1913 C1914 1.362 . S
C1914 H1906 0.930 . S
C1914 C1913 1.362 . S
C1914 C1917 1.409 . S
C1915 H1907 0.930 . S
C1915 C1916 1.355 . S
C1915 C1917 1.415 . S
C1916 C1915 1.355 . S
C1916 C1918 1.419 . S
C1917 C1912 1.425 . S
C1917 C1914 1.409 . S
C1917 C1915 1.415 . S
C1918 H1908 0.930 . S
C1918 C1916 1.419 . S
C1918 C1919 1.362 . S
C1919 H1909 0.930 . S
C1919 C1912 1.409 . S
C1919 C1918 1.362 . S
H1920 C1926 0.930 . S
H1921 C1929 0.930 . S
H1922 C1930 0.930 . S
H1923 C1931 0.930 . S
H1924 C1934 0.930 . S
H1925 C1935 0.930 . S
C1926 H1920 0.930 . S
C1926 C1927 1.355 . S
C1926 C1928 1.415 . S
C1927 C1926 1.355 . S
C1927 C1929 1.419 . S
C1928 C1926 1.415 . S
C1928 C1933 1.425 . S
C1928 C1935 1.409 . S
C1929 H1921 0.930 . S
C1929 C1927 1.419 . S
C1929 C1930 1.362 . S
C1930 H1922 0.930 . S
C1930 C1929 1.362 . S
C1930 C1933 1.409 . S
C1931 H1923 0.930 . S
C1931 C1932 1.355 . S
C1931 C1933 1.415 . S
C1932 C1931 1.355 . S
C1932 C1934 1.419 . S
C1933 C1928 1.425 . S
C1933 C1930 1.409 . S
C1933 C1931 1.415 . S
C1934 H1924 0.930 . S
C1934 C1932 1.419 . S
C1934 C1935 1.362 . S
C1935 H1925 0.930 . S
C1935 C1928 1.409 . S
C1935 C1934 1.362 . S
H1936 C1942 0.930 . S
H1937 C1945 0.930 . S
H1938 C1946 0.930 . S
H1939 C1947 0.930 . S
H1940 C1950 0.930 . S
H1941 C1951 0.930 . S
C1942 H1936 0.930 . S
C1942 C1943 1.355 . S
C1942 C1944 1.415 . S
C1943 C1942 1.355 . S
C1943 C1945 1.419 . S
C1944 C1942 1.415 . S
C1944 C1949 1.425 . S
C1944 C1951 1.409 . S
C1945 H1937 0.930 . S
C1945 C1943 1.419 . S
C1945 C1946 1.362 . S
C1946 H1938 0.930 . S
C1946 C1945 1.362 . S
C1946 C1949 1.409 . S
C1947 H1939 0.930 . S
C1947 C1948 1.355 . S
C1947 C1949 1.415 . S
C1948 C1947 1.355 . S
C1948 C1950 1.419 . S
C1949 C1944 1.425 . S
C1949 C1946 1.409 . S
C1949 C1947 1.415 . S
C1950 H1940 0.930 . S
C1950 C1948 1.419 . S
C1950 C1951 1.362 . S
C1951 H1941 0.930 . S
C1951 C1944 1.409 . S
C1951 C1950 1.362 . S
H1952 C1958 0.930 . S
H1953 C1961 0.930 . S
H1954 C1962 0.930 . S
H1955 C1963 0.930 . S
H1956 C1966 0.930 . S
H1957 C1967 0.930 . S
C1958 H1952 0.930 . S
C1958 C1959 1.355 . S
C1958 C1960 1.415 . S
C1959 C1958 1.355 . S
C1959 C1961 1.419 . S
C1960 C1958 1.415 . S
C1960 C1965 1.425 . S
C1960 C1967 1.409 . S
C1961 H1953 0.930 . S
C1961 C1959 1.419 . S
C1961 C1962 1.362 . S
C1962 H1954 0.930 . S
C1962 C1961 1.362 . S
C1962 C1965 1.409 . S
C1963 H1955 0.930 . S
C1963 C1964 1.355 . S
C1963 C1965 1.415 . S
C1964 C1963 1.355 . S
C1964 C1966 1.419 . S
C1965 C1960 1.425 . S
C1965 C1962 1.409 . S
C1965 C1963 1.415 . S
C1966 H1956 0.930 . S
C1966 C1964 1.419 . S
C1966 C1967 1.362 . S
C1967 H1957 0.930 . S
C1967 C1960 1.409 . S
C1967 C1966 1.362 . S
H1968 C1974 0.930 . S
H1969 C1977 0.930 . S
H1970 C1978 0.930 . S
H1971 C1979 0.930 . S
H1972 C1982 0.930 . S
H1973 C1983 0.930 . S
C1974 H1968 0.930 . S
C1974 C1975 1.355 . S
C1974 C1976 1.415 . S
C1975 C1974 1.355 . S
C1975 C1977 1.419 . S
C1976 C1974 1.415 . S
C1976 C1981 1.425 . S
C1976 C1983 1.409 . S
C1977 H1969 0.930 . S
C1977 C1975 1.419 . S
C1977 C1978 1.362 . S
C1978 H1970 0.930 . S
C1978 C1977 1.362 . S
C1978 C1981 1.409 . S
C1979 H1971 0.930 . S
C1979 C1980 1.355 . S
C1979 C1981 1.415 . S
C1980 C1979 1.355 . S
C1980 C1982 1.419 . S
C1981 C1976 1.425 . S
C1981 C1978 1.409 . S
C1981 C1979 1.415 . S
C1982 H1972 0.930 . S
C1982 C1980 1.419 . S
C1982 C1983 1.362 . S
C1983 H1973 0.930 . S
C1983 C1976 1.409 . S
C1983 C1982 1.362 . S
H1984 C1990 0.930 . S
H1985 C1993 0.930 . S
H1986 C1994 0.930 . S
H1987 C1995 0.930 . S
H1988 C1998 0.930 . S
H1989 C1999 0.930 . S
C1990 H1984 0.930 . S
C1990 C1991 1.355 . S
C1990 C1992 1.415 . S
C1991 C1990 1.355 . S
C1991 C1993 1.419 . S
C1992 C1990 1.415 . S
C1992 C1997 1.425 . S
C1992 C1999 1.409 . S
C1993 H1985 0.930 . S
C1993 C1991 1.419 . S
C1993 C1994 1.362 . S
C1994 H1986 0.930 . S
C1994 C1993 1.362 . S
C1994 C1997 1.409 . S
C1995 H1987 0.930 . S
C1995 C1996 1.355 . S
C1995 C1997 1.415 . S
C1996 C1995 1.355 . S
C1996 C1998 1.419 . S
C1997 C1992 1.425 . S
C1997 C1994 1.409 . S
C1997 C1995 1.415 . S
C1998 H1988 0.930 . S
C1998 C1996 1.419 . S
C1998 C1999 1.362 . S
C1999 H1989 0.930 . S
C1999 C1992 1.409 . S
C1999 C1998 1.362 . S
H2000 C2006 0.930 . S
H2001 C2009 0.930 . S
H2002 C2010 0.930 . S
H2003 C2011 0.930 . S
H2004 C2014 0.930 . S
H2005 C2015 0.930 . S
C2006 H2000 0.930 . S
C2006 C2007 1.355 . S
C2006 C2008 1.415 . S
C2007 C2006 1.355 . S
C2007 C2009 1.419 . S
C2008 C2006 1.415 . S
C2008 C2013 1.425 . S
C2008 C2015 1.409 . S
C2009 H2001 0.930 . S
C2009 C2007 1.419 . S
C2009 C2010 1.362 . S
C2010 H2002 0.930 . S
C2010 C2009 1.362 . S
C2010 C2013 1.409 . S
C2011 H2003 0.930 . S
C2011 C2012 1.355 . S
C2011 C2013 1.415 . S
C2012 C2011 1.355 . S
C2012 C2014 1.419 . S
C2013 C2008 1.425 . S
C2013 C2010 1.409 . S
C2013 C2011 1.415 . S
C2014 H2004 0.930 . S
C2014 C2012 1.419 . S
C2014 C2015 1.362 . S
C2015 H2005 0.930 . S
C2015 C2008 1.409 . S
C2015 C2014 1.362 . S
H2016 C2022 0.930 . S
H2017 C2025 0.930 . S
H2018 C2026 0.930 . S
H2019 C2027 0.930 . S
H2020 C2030 0.930 . S
H2021 C2031 0.930 . S
C2022 H2016 0.930 . S
C2022 C2023 1.355 . S
C2022 C2024 1.415 . S
C2023 C2022 1.355 . S
C2023 C2025 1.419 . S
C2024 C2022 1.415 . S
C2024 C2029 1.425 . S
C2024 C2031 1.409 . S
C2025 H2017 0.930 . S
C2025 C2023 1.419 . S
C2025 C2026 1.362 . S
C2026 H2018 0.930 . S
C2026 C2025 1.362 . S
C2026 C2029 1.409 . S
C2027 H2019 0.930 . S
C2027 C2028 1.355 . S
C2027 C2029 1.415 . S
C2028 C2027 1.355 . S
C2028 C2030 1.419 . S
C2029 C2024 1.425 . S
C2029 C2026 1.409 . S
C2029 C2027 1.415 . S
C2030 H2020 0.930 . S
C2030 C2028 1.419 . S
C2030 C2031 1.362 . S
C2031 H2021 0.930 . S
C2031 C2024 1.409 . S
C2031 C2030 1.362 . S
H2032 C2038 0.930 . S
H2033 C2041 0.930 . S
H2034 C2042 0.930 . S
H2035 C2043 0.930 . S
H2036 C2046 0.930 . S
H2037 C2047 0.930 . S
C2038 H2032 0.930 . S
C2038 C2039 1.355 . S
C2038 C2040 1.415 . S
C2039 C2038 1.355 . S
C2039 C2041 1.419 . S
C2040 C2038 1.415 . S
C2040 C2045 1.425 . S
C2040 C2047 1.409 . S
C2041 H2033 0.930 . S
C2041 C2039 1.419 . S
C2041 C2042 1.362 . S
C2042 H2034 0.930 . S
C2042 C2041 1.362 . S
C2042 C2045 1.409 . S
C2043 H2035 0.930 . S
C2043 C2044 1.355 . S
C2043 C2045 1.415 . S
C2044 C2043 1.355 . S
C2044 C2046 1.419 . S
C2045 C2040 1.425 . S
C2045 C2042 1.409 . S
C2045 C2043 1.415 . S
C2046 H2036 0.930 . S
C2046 C2044 1.419 . S
C2046 C2047 1.362 . S
C2047 H2037 0.930 . S
C2047 C2040 1.409 . S
C2047 C2046 1.362 . S
H2048 C2054 0.930 . S
H2049 C2057 0.930 . S
H2050 C2058 0.930 . S
H2051 C2059 0.930 . S
H2052 C2062 0.930 . S
H2053 C2063 0.930 . S
C2054 H2048 0.930 . S
C2054 C2055 1.355 . S
C2054 C2056 1.415 . S
C2055 C2054 1.355 . S
C2055 C2057 1.419 . S
C2056 C2054 1.415 . S
C2056 C2061 1.425 . S
C2056 C2063 1.409 . S
C2057 H2049 0.930 . S
C2057 C2055 1.419 . S
C2057 C2058 1.362 . S
C2058 H2050 0.930 . S
C2058 C2057 1.362 . S
C2058 C2061 1.409 . S
C2059 H2051 0.930 . S
C2059 C2060 1.355 . S
C2059 C2061 1.415 . S
C2060 C2059 1.355 . S
C2060 C2062 1.419 . S
C2061 C2056 1.425 . S
C2061 C2058 1.409 . S
C2061 C2059 1.415 . S
C2062 H2052 0.930 . S
C2062 C2060 1.419 . S
C2062 C2063 1.362 . S
C2063 H2053 0.930 . S
C2063 C2056 1.409 . S
C2063 C2062 1.362 . S
H2064 C2070 0.930 . S
H2065 C2073 0.930 . S
H2066 C2074 0.930 . S
H2067 C2075 0.930 . S
H2068 C2078 0.930 . S
H2069 C2079 0.930 . S
C2070 H2064 0.930 . S
C2070 C2071 1.355 . S
C2070 C2072 1.415 . S
C2071 C2070 1.355 . S
C2071 C2073 1.419 . S
C2072 C2070 1.415 . S
C2072 C2077 1.425 . S
C2072 C2079 1.409 . S
C2073 H2065 0.930 . S
C2073 C2071 1.419 . S
C2073 C2074 1.362 . S
C2074 H2066 0.930 . S
C2074 C2073 1.362 . S
C2074 C2077 1.409 . S
C2075 H2067 0.930 . S
C2075 C2076 1.355 . S
C2075 C2077 1.415 . S
C2076 C2075 1.355 . S
C2076 C2078 1.419 . S
C2077 C2072 1.425 . S
C2077 C2074 1.409 . S
C2077 C2075 1.415 . S
C2078 H2068 0.930 . S
C2078 C2076 1.419 . S
C2078 C2079 1.362 . S
C2079 H2069 0.930 . S
C2079 C2072 1.409 . S
C2079 C2078 1.362 . S
H2080 C2086 0.930 . S
H2081 C2089 0.930 . S
H2082 C2090 0.930 . S
H2083 C2091 0.930 . S
H2084 C2094 0.930 . S
H2085 C2095 0.930 . S
C2086 H2080 0.930 . S
C2086 C2087 1.355 . S
C2086 C2088 1.415 . S
C2087 C2086 1.355 . S
C2087 C2089 1.419 . S
C2088 C2086 1.415 . S
C2088 C2093 1.425 . S
C2088 C2095 1.409 . S
C2089 H2081 0.930 . S
C2089 C2087 1.419 . S
C2089 C2090 1.362 . S
C2090 H2082 0.930 . S
C2090 C2089 1.362 . S
C2090 C2093 1.409 . S
C2091 H2083 0.930 . S
C2091 C2092 1.355 . S
C2091 C2093 1.415 . S
C2092 C2091 1.355 . S
C2092 C2094 1.419 . S
C2093 C2088 1.425 . S
C2093 C2090 1.409 . S
C2093 C2091 1.415 . S
C2094 H2084 0.930 . S
C2094 C2092 1.419 . S
C2094 C2095 1.362 . S
C2095 H2085 0.930 . S
C2095 C2088 1.409 . S
C2095 C2094 1.362 . S
H2096 C2102 0.930 . S
H2097 C2105 0.930 . S
H2098 C2106 0.930 . S
H2099 C2107 0.930 . S
H2100 C2110 0.930 . S
H2101 C2111 0.930 . S
C2102 H2096 0.930 . S
C2102 C2103 1.355 . S
C2102 C2104 1.415 . S
C2103 C2102 1.355 . S
C2103 C2105 1.419 . S
C2104 C2102 1.415 . S
C2104 C2109 1.425 . S
C2104 C2111 1.409 . S
C2105 H2097 0.930 . S
C2105 C2103 1.419 . S
C2105 C2106 1.362 . S
C2106 H2098 0.930 . S
C2106 C2105 1.362 . S
C2106 C2109 1.409 . S
C2107 H2099 0.930 . S
C2107 C2108 1.355 . S
C2107 C2109 1.415 . S
C2108 C2107 1.355 . S
C2108 C2110 1.419 . S
C2109 C2104 1.425 . S
C2109 C2106 1.409 . S
C2109 C2107 1.415 . S
C2110 H2100 0.930 . S
C2110 C2108 1.419 . S
C2110 C2111 1.362 . S
C2111 H2101 0.930 . S
C2111 C2104 1.409 . S
C2111 C2110 1.362 . S
H2112 C2118 0.930 . S
H2113 C2121 0.930 . S
H2114 C2122 0.930 . S
H2115 C2123 0.930 . S
H2116 C2126 0.930 . S
H2117 C2127 0.930 . S
C2118 H2112 0.930 . S
C2118 C2119 1.355 . S
C2118 C2120 1.415 . S
C2119 C2118 1.355 . S
C2119 C2121 1.419 . S
C2120 C2118 1.415 . S
C2120 C2125 1.425 . S
C2120 C2127 1.409 . S
C2121 H2113 0.930 . S
C2121 C2119 1.419 . S
C2121 C2122 1.362 . S
C2122 H2114 0.930 . S
C2122 C2121 1.362 . S
C2122 C2125 1.409 . S
C2123 H2115 0.930 . S
C2123 C2124 1.355 . S
C2123 C2125 1.415 . S
C2124 C2123 1.355 . S
C2124 C2126 1.419 . S
C2125 C2120 1.425 . S
C2125 C2122 1.409 . S
C2125 C2123 1.415 . S
C2126 H2116 0.930 . S
C2126 C2124 1.419 . S
C2126 C2127 1.362 . S
C2127 H2117 0.930 . S
C2127 C2120 1.409 . S
C2127 C2126 1.362 . S
H2128 C2134 0.930 . S
H2129 C2137 0.930 . S
H2130 C2138 0.930 . S
H2131 C2139 0.930 . S
H2132 C2142 0.930 . S
H2133 C2143 0.930 . S
C2134 H2128 0.930 . S
C2134 C2135 1.355 . S
C2134 C2136 1.415 . S
C2135 C2134 1.355 . S
C2135 C2137 1.419 . S
C2136 C2134 1.415 . S
C2136 C2141 1.425 . S
C2136 C2143 1.409 . S
C2137 H2129 0.930 . S
C2137 C2135 1.419 . S
C2137 C2138 1.362 . S
C2138 H2130 0.930 . S
C2138 C2137 1.362 . S
C2138 C2141 1.409 . S
C2139 H2131 0.930 . S
C2139 C2140 1.355 . S
C2139 C2141 1.415 . S
C2140 C2139 1.355 . S
C2140 C2142 1.419 . S
C2141 C2136 1.425 . S
C2141 C2138 1.409 . S
C2141 C2139 1.415 . S
C2142 H2132 0.930 . S
C2142 C2140 1.419 . S
C2142 C2143 1.362 . S
C2143 H2133 0.930 . S
C2143 C2136 1.409 . S
C2143 C2142 1.362 . S
H2144 C2150 0.930 . S
H2145 C2153 0.930 . S
H2146 C2154 0.930 . S
H2147 C2155 0.930 . S
H2148 C2158 0.930 . S
H2149 C2159 0.930 . S
C2150 H2144 0.930 . S
C2150 C2151 1.355 . S
C2150 C2152 1.415 . S
C2151 C2150 1.355 . S
C2151 C2153 1.419 . S
C2152 C2150 1.415 . S
C2152 C2157 1.425 . S
C2152 C2159 1.409 . S
C2153 H2145 0.930 . S
C2153 C2151 1.419 . S
C2153 C2154 1.362 . S
C2154 H2146 0.930 . S
C2154 C2153 1.362 . S
C2154 C2157 1.409 . S
C2155 H2147 0.930 . S
C2155 C2156 1.355 . S
C2155 C2157 1.415 . S
C2156 C2155 1.355 . S
C2156 C2158 1.419 . S
C2157 C2152 1.425 . S
C2157 C2154 1.409 . S
C2157 C2155 1.415 . S
C2158 H2148 0.930 . S
C2158 C2156 1.419 . S
C2158 C2159 1.362 . S
C2159 H2149 0.930 . S
C2159 C2152 1.409 . S
C2159 C2158 1.362 . S
H2160 C2166 0.930 . S
H2161 C2169 0.930 . S
H2162 C2170 0.930 . S
H2163 C2171 0.930 . S
H2164 C2174 0.930 . S
H2165 C2175 0.930 . S
C2166 H2160 0.930 . S
C2166 C2167 1.355 . S
C2166 C2168 1.415 . S
C2167 C2166 1.355 . S
C2167 C2169 1.419 . S
C2168 C2166 1.415 . S
C2168 C2173 1.425 . S
C2168 C2175 1.409 . S
C2169 H2161 0.930 . S
C2169 C2167 1.419 . S
C2169 C2170 1.362 . S
C2170 H2162 0.930 . S
C2170 C2169 1.362 . S
C2170 C2173 1.409 . S
C2171 H2163 0.930 . S
C2171 C2172 1.355 . S
C2171 C2173 1.415 . S
C2172 C2171 1.355 . S
C2172 C2174 1.419 . S
C2173 C2168 1.425 . S
C2173 C2170 1.409 . S
C2173 C2171 1.415 . S
C2174 H2164 0.930 . S
C2174 C2172 1.419 . S
C2174 C2175 1.362 . S
C2175 H2165 0.930 . S
C2175 C2168 1.409 . S
C2175 C2174 1.362 . S
H2176 C2182 0.930 . S
H2177 C2185 0.930 . S
H2178 C2186 0.930 . S
H2179 C2187 0.930 . S
H2180 C2190 0.930 . S
H2181 C2191 0.930 . S
C2182 H2176 0.930 . S
C2182 C2183 1.355 . S
C2182 C2184 1.415 . S
C2183 C2182 1.355 . S
C2183 C2185 1.419 . S
C2184 C2182 1.415 . S
C2184 C2189 1.425 . S
C2184 C2191 1.409 . S
C2185 H2177 0.930 . S
C2185 C2183 1.419 . S
C2185 C2186 1.362 . S
C2186 H2178 0.930 . S
C2186 C2185 1.362 . S
C2186 C2189 1.409 . S
C2187 H2179 0.930 . S
C2187 C2188 1.355 . S
C2187 C2189 1.415 . S
C2188 C2187 1.355 . S
C2188 C2190 1.419 . S
C2189 C2184 1.425 . S
C2189 C2186 1.409 . S
C2189 C2187 1.415 . S
C2190 H2180 0.930 . S
C2190 C2188 1.419 . S
C2190 C2191 1.362 . S
C2191 H2181 0.930 . S
C2191 C2184 1.409 . S
C2191 C2190 1.362 . S
H2192 C2198 0.930 . S
H2193 C2201 0.930 . S
H2194 C2202 0.930 . S
H2195 C2203 0.930 . S
H2196 C2206 0.930 . S
H2197 C2207 0.930 . S
C2198 H2192 0.930 . S
C2198 C2199 1.355 . S
C2198 C2200 1.415 . S
C2199 C2198 1.355 . S
C2199 C2201 1.419 . S
C2200 C2198 1.415 . S
C2200 C2205 1.425 . S
C2200 C2207 1.409 . S
C2201 H2193 0.930 . S
C2201 C2199 1.419 . S
C2201 C2202 1.362 . S
C2202 H2194 0.930 . S
C2202 C2201 1.362 . S
C2202 C2205 1.409 . S
C2203 H2195 0.930 . S
C2203 C2204 1.355 . S
C2203 C2205 1.415 . S
C2204 C2203 1.355 . S
C2204 C2206 1.419 . S
C2205 C2200 1.425 . S
C2205 C2202 1.409 . S
C2205 C2203 1.415 . S
C2206 H2196 0.930 . S
C2206 C2204 1.419 . S
C2206 C2207 1.362 . S
C2207 H2197 0.930 . S
C2207 C2200 1.409 . S
C2207 C2206 1.362 . S
H2208 C2214 0.930 . S
H2209 C2217 0.940 . S
H2210 C2218 0.930 . S
H2211 C2219 0.930 . S
H2212 C2222 0.930 . S
H2213 C2223 0.930 . S
C2214 H2208 0.930 . S
C2214 C2215 1.355 . S
C2214 C2216 1.415 . S
C2215 C2214 1.355 . S
C2215 C2217 1.415 1_556 S
C2216 C2214 1.415 . S
C2216 C2221 1.425 . S
C2216 C2223 1.409 . S
C2217 H2209 0.940 . S
C2217 C2215 1.415 1_554 S
C2217 C2218 1.356 1_554 S
C2218 H2210 0.930 . S
C2218 C2217 1.356 1_556 S
C2218 C2221 1.409 . S
C2219 H2211 0.930 . S
C2219 C2220 1.355 . S
C2219 C2221 1.415 . S
C2220 C2219 1.355 . S
C2220 C2222 1.419 . S
C2221 C2216 1.425 . S
C2221 C2218 1.409 . S
C2221 C2219 1.415 . S
C2222 H2212 0.930 . S
C2222 C2220 1.419 . S
C2222 C2223 1.362 . S
C2223 H2213 0.930 . S
C2223 C2216 1.409 . S
C2223 C2222 1.362 . S
H2224 C2230 0.930 . S
H2225 C2233 0.930 . S
H2226 C2234 0.930 . S
H2227 C2235 0.930 . S
H2228 C2238 0.930 . S
H2229 C2239 0.930 . S
C2230 H2224 0.930 . S
C2230 C2231 1.355 . S
C2230 C2232 1.415 . S
C2231 C2230 1.355 . S
C2231 C2233 1.419 . S
C2232 C2230 1.415 . S
C2232 C2237 1.425 . S
C2232 C2239 1.409 . S
C2233 H2225 0.930 . S
C2233 C2231 1.419 . S
C2233 C2234 1.362 . S
C2234 H2226 0.930 . S
C2234 C2233 1.362 . S
C2234 C2237 1.409 . S
C2235 H2227 0.930 . S
C2235 C2236 1.355 . S
C2235 C2237 1.415 . S
C2236 C2235 1.355 . S
C2236 C2238 1.419 . S
C2237 C2232 1.425 . S
C2237 C2234 1.409 . S
C2237 C2235 1.415 . S
C2238 H2228 0.930 . S
C2238 C2236 1.419 . S
C2238 C2239 1.362 . S
C2239 H2229 0.930 . S
C2239 C2232 1.409 . S
C2239 C2238 1.362 . S
H2240 C2246 0.930 . S
H2241 C2249 0.930 . S
H2242 C2250 0.930 . S
H2243 C2251 0.930 . S
H2244 C2254 0.930 . S
H2245 C2255 0.930 . S
C2246 H2240 0.930 . S
C2246 C2247 1.355 . S
C2246 C2248 1.415 . S
C2247 C2246 1.355 . S
C2247 C2249 1.419 . S
C2248 C2246 1.415 . S
C2248 C2253 1.425 . S
C2248 C2255 1.409 1_554 S
C2249 H2241 0.930 . S
C2249 C2247 1.419 . S
C2249 C2250 1.362 . S
C2250 H2242 0.930 . S
C2250 C2249 1.362 . S
C2250 C2253 1.409 . S
C2251 H2243 0.930 . S
C2251 C2252 1.355 1_554 S
C2251 C2253 1.415 . S
C2252 C2251 1.355 1_556 S
C2252 C2254 1.419 . S
C2253 C2248 1.425 . S
C2253 C2250 1.409 . S
C2253 C2251 1.415 . S
C2254 H2244 0.930 . S
C2254 C2252 1.419 . S
C2254 C2255 1.362 . S
C2255 H2245 0.930 . S
C2255 C2248 1.409 1_556 S
C2255 C2254 1.362 . S
H2256 C2262 0.930 . S
H2257 C2265 0.930 . S
H2258 C2266 0.930 . S
H2259 C2267 0.930 . S
H2260 C2270 0.930 . S
H2261 C2271 0.930 . S
C2262 H2256 0.930 . S
C2262 C2263 1.355 1_556 S
C2262 C2264 1.415 . S
C2263 C2262 1.355 1_554 S
C2263 C2265 1.419 . S
C2264 C2262 1.415 . S
C2264 C2269 1.425 . S
C2264 C2271 1.409 . S
C2265 H2257 0.930 . S
C2265 C2263 1.419 . S
C2265 C2266 1.362 1_554 S
C2266 H2258 0.930 . S
C2266 C2265 1.362 1_556 S
C2266 C2269 1.409 . S
C2267 H2259 0.930 . S
C2267 C2268 1.355 . S
C2267 C2269 1.415 . S
C2268 C2267 1.355 . S
C2268 C2270 1.419 . S
C2269 C2264 1.425 . S
C2269 C2266 1.409 . S
C2269 C2267 1.415 . S
C2270 H2260 0.930 . S
C2270 C2268 1.419 . S
C2270 C2271 1.362 . S
C2271 H2261 0.930 . S
C2271 C2264 1.409 . S
C2271 C2270 1.362 . S
H2272 C2278 0.930 . S
H2273 C2281 0.930 . S
H2274 C2282 0.930 . S
H2275 C2283 0.930 . S
H2276 C2286 0.930 . S
H2277 C2287 0.930 . S
C2278 H2272 0.930 . S
C2278 C2279 1.355 . S
C2278 C2280 1.415 . S
C2279 C2278 1.355 . S
C2279 C2281 1.419 . S
C2280 C2278 1.415 . S
C2280 C2285 1.425 . S
C2280 C2287 1.409 . S
C2281 H2273 0.930 . S
C2281 C2279 1.419 . S
C2281 C2282 1.362 . S
C2282 H2274 0.930 . S
C2282 C2281 1.362 . S
C2282 C2285 1.409 . S
C2283 H2275 0.930 . S
C2283 C2284 1.355 . S
C2283 C2285 1.415 . S
C2284 C2283 1.355 . S
C2284 C2286 1.419 . S
C2285 C2280 1.425 . S
C2285 C2282 1.409 . S
C2285 C2283 1.415 . S
C2286 H2276 0.930 . S
C2286 C2284 1.419 . S
C2286 C2287 1.362 . S
C2287 H2277 0.930 . S
C2287 C2280 1.409 . S
C2287 C2286 1.362 . S
H2288 C2294 0.930 . S
H2289 C2297 0.930 . S
H2290 C2298 0.930 . S
H2291 C2299 0.930 1_554 S
H2292 C2302 0.930 . S
H2293 C2303 0.930 . S
C2294 H2288 0.930 . S
C2294 C2295 1.355 1_556 S
C2294 C2296 1.415 . S
C2295 C2294 1.355 1_554 S
C2295 C2297 1.419 . S
C2296 C2294 1.415 . S
C2296 C2301 1.425 1_556 S
C2296 C2303 1.409 . S
C2297 H2289 0.930 . S
C2297 C2295 1.419 . S
C2297 C2298 1.362 . S
C2298 H2290 0.930 . S
C2298 C2297 1.362 . S
C2298 C2301 1.409 . S
C2299 H2291 0.930 1_556 S
C2299 C2300 1.354 . S
C2299 C2301 1.415 1_556 S
C2300 C2299 1.354 . S
C2300 C2302 1.419 . S
C2301 C2296 1.425 1_554 S
C2301 C2298 1.409 . S
C2301 C2299 1.415 1_554 S
C2302 H2292 0.930 . S
C2302 C2300 1.419 . S
C2302 C2303 1.362 . S
C2303 H2293 0.930 . S
C2303 C2296 1.409 . S
C2303 C2302 1.362 . S
H2304 C2310 0.930 . S
H2305 C2313 0.930 . S
H2306 C2314 0.930 . S
H2307 C2315 0.930 . S
H2308 C2318 0.930 . S
H2309 C2319 0.930 . S
C2310 H2304 0.930 . S
C2310 C2311 1.355 . S
C2310 C2312 1.415 . S
C2311 C2310 1.355 . S
C2311 C2313 1.419 . S
C2312 C2310 1.415 . S
C2312 C2317 1.425 . S
C2312 C2319 1.409 . S
C2313 H2305 0.930 . S
C2313 C2311 1.419 . S
C2313 C2314 1.362 . S
C2314 H2306 0.930 . S
C2314 C2313 1.362 . S
C2314 C2317 1.409 . S
C2315 H2307 0.930 . S
C2315 C2316 1.355 . S
C2315 C2317 1.415 . S
C2316 C2315 1.355 . S
C2316 C2318 1.419 . S
C2317 C2312 1.425 . S
C2317 C2314 1.409 . S
C2317 C2315 1.415 . S
C2318 H2308 0.930 . S
C2318 C2316 1.419 . S
C2318 C2319 1.362 . S
C2319 H2309 0.930 . S
C2319 C2312 1.409 . S
C2319 C2318 1.362 . S
H2320 C2326 0.930 . S
H2321 C2329 0.930 . S
H2322 C2330 0.930 . S
H2323 C2331 0.930 . S
H2324 C2334 0.930 . S
H2325 C2335 0.930 . S
C2326 H2320 0.930 . S
C2326 C2327 1.355 . S
C2326 C2328 1.415 . S
C2327 C2326 1.355 . S
C2327 C2329 1.419 . S
C2328 C2326 1.415 . S
C2328 C2333 1.425 . S
C2328 C2335 1.409 . S
C2329 H2321 0.930 . S
C2329 C2327 1.419 . S
C2329 C2330 1.362 . S
C2330 H2322 0.930 . S
C2330 C2329 1.362 . S
C2330 C2333 1.409 . S
C2331 H2323 0.930 . S
C2331 C2332 1.355 . S
C2331 C2333 1.415 . S
C2332 C2331 1.355 . S
C2332 C2334 1.419 . S
C2333 C2328 1.425 . S
C2333 C2330 1.409 . S
C2333 C2331 1.415 . S
C2334 H2324 0.930 . S
C2334 C2332 1.419 . S
C2334 C2335 1.362 . S
C2335 H2325 0.930 . S
C2335 C2328 1.409 . S
C2335 C2334 1.362 . S
H2336 C2342 0.930 . S
H2337 C2345 0.930 . S
H2338 C2346 0.930 . S
H2339 C2347 0.930 . S
H2340 C2350 0.930 . S
H2341 C2351 0.930 . S
C2342 H2336 0.930 . S
C2342 C2343 1.355 . S
C2342 C2344 1.415 . S
C2343 C2342 1.355 . S
C2343 C2345 1.419 . S
C2344 C2342 1.415 . S
C2344 C2349 1.425 . S
C2344 C2351 1.409 . S
C2345 H2337 0.930 . S
C2345 C2343 1.419 . S
C2345 C2346 1.362 . S
C2346 H2338 0.930 . S
C2346 C2345 1.362 . S
C2346 C2349 1.409 . S
C2347 H2339 0.930 . S
C2347 C2348 1.355 . S
C2347 C2349 1.415 . S
C2348 C2347 1.355 . S
C2348 C2350 1.419 . S
C2349 C2344 1.425 . S
C2349 C2346 1.409 . S
C2349 C2347 1.415 . S
C2350 H2340 0.930 . S
C2350 C2348 1.419 . S
C2350 C2351 1.362 . S
C2351 H2341 0.930 . S
C2351 C2344 1.409 . S
C2351 C2350 1.362 . S
H2352 C2358 0.930 . S
H2353 C2361 0.930 . S
H2354 C2362 0.930 . S
H2355 C2363 0.930 . S
H2356 C2366 0.930 . S
H2357 C2367 0.930 . S
C2358 H2352 0.930 . S
C2358 C2359 1.355 . S
C2358 C2360 1.415 . S
C2359 C2358 1.355 . S
C2359 C2361 1.419 . S
C2360 C2358 1.415 . S
C2360 C2365 1.425 . S
C2360 C2367 1.409 . S
C2361 H2353 0.930 . S
C2361 C2359 1.419 . S
C2361 C2362 1.362 . S
C2362 H2354 0.930 . S
C2362 C2361 1.362 . S
C2362 C2365 1.409 . S
C2363 H2355 0.930 . S
C2363 C2364 1.355 . S
C2363 C2365 1.415 . S
C2364 C2363 1.355 . S
C2364 C2366 1.419 . S
C2365 C2360 1.425 . S
C2365 C2362 1.409 . S
C2365 C2363 1.415 . S
C2366 H2356 0.930 . S
C2366 C2364 1.419 . S
C2366 C2367 1.362 . S
C2367 H2357 0.930 . S
C2367 C2360 1.409 . S
C2367 C2366 1.362 . S
H2368 C2374 0.930 . S
H2369 C2377 0.930 . S
H2370 C2378 0.930 . S
H2371 C2379 0.930 . S
H2372 C2382 0.930 . S
H2373 C2383 0.930 . S
C2374 H2368 0.930 . S
C2374 C2375 1.355 . S
C2374 C2376 1.415 . S
C2375 C2374 1.355 . S
C2375 C2377 1.419 . S
C2376 C2374 1.415 . S
C2376 C2381 1.425 . S
C2376 C2383 1.409 . S
C2377 H2369 0.930 . S
C2377 C2375 1.419 . S
C2377 C2378 1.362 . S
C2378 H2370 0.930 . S
C2378 C2377 1.362 . S
C2378 C2381 1.409 . S
C2379 H2371 0.930 . S
C2379 C2380 1.355 . S
C2379 C2381 1.415 . S
C2380 C2379 1.355 . S
C2380 C2382 1.419 . S
C2381 C2376 1.425 . S
C2381 C2378 1.409 . S
C2381 C2379 1.415 . S
C2382 H2372 0.930 . S
C2382 C2380 1.419 . S
C2382 C2383 1.362 . S
C2383 H2373 0.930 . S
C2383 C2376 1.409 . S
C2383 C2382 1.362 . S
H2384 C2390 0.930 1_455 S
H2385 C2393 0.930 . S
H2386 C2394 0.930 . S
H2387 C2395 0.930 . S
H2388 C2398 0.930 . S
H2389 C2399 0.930 . S
C2390 H2384 0.930 1_655 S
C2390 C2391 1.355 . S
C2390 C2392 1.415 . S
C2391 C2390 1.355 . S
C2391 C2393 1.419 . S
C2392 C2390 1.415 . S
C2392 C2397 1.425 . S
C2392 C2399 1.409 . S
C2393 H2385 0.930 . S
C2393 C2391 1.419 . S
C2393 C2394 1.362 . S
C2394 H2386 0.930 . S
C2394 C2393 1.362 . S
C2394 C2397 1.409 . S
C2395 H2387 0.930 . S
C2395 C2396 1.355 . S
C2395 C2397 1.415 . S
C2396 C2395 1.355 . S
C2396 C2398 1.419 . S
C2397 C2392 1.425 . S
C2397 C2394 1.409 . S
C2397 C2395 1.415 . S
C2398 H2388 0.930 . S
C2398 C2396 1.419 . S
C2398 C2399 1.362 . S
C2399 H2389 0.930 . S
C2399 C2392 1.409 . S
C2399 C2398 1.362 . S
H2400 C2406 0.930 . S
H2401 C2409 0.930 . S
H2402 C2410 0.930 . S
H2403 C2411 0.930 . S
H2404 C2414 0.930 . S
H2405 C2415 0.930 . S
C2406 H2400 0.930 . S
C2406 C2407 1.355 . S
C2406 C2408 1.415 . S
C2407 C2406 1.355 . S
C2407 C2409 1.419 . S
C2408 C2406 1.415 . S
C2408 C2413 1.425 . S
C2408 C2415 1.409 . S
C2409 H2401 0.930 . S
C2409 C2407 1.419 . S
C2409 C2410 1.362 . S
C2410 H2402 0.930 . S
C2410 C2409 1.362 . S
C2410 C2413 1.409 . S
C2411 H2403 0.930 . S
C2411 C2412 1.355 . S
C2411 C2413 1.415 . S
C2412 C2411 1.355 . S
C2412 C2414 1.419 . S
C2413 C2408 1.425 . S
C2413 C2410 1.409 . S
C2413 C2411 1.415 . S
C2414 H2404 0.930 . S
C2414 C2412 1.419 . S
C2414 C2415 1.362 . S
C2415 H2405 0.930 . S
C2415 C2408 1.409 . S
C2415 C2414 1.362 . S
H2416 C2422 0.930 . S
H2417 C2425 0.930 . S
H2418 C2426 0.930 . S
H2419 C2427 0.930 . S
H2420 C2430 0.930 . S
H2421 C2431 0.930 . S
C2422 H2416 0.930 . S
C2422 C2423 1.355 . S
C2422 C2424 1.415 . S
C2423 C2422 1.355 . S
C2423 C2425 1.419 . S
C2424 C2422 1.415 . S
C2424 C2429 1.425 . S
C2424 C2431 1.409 . S
C2425 H2417 0.930 . S
C2425 C2423 1.419 . S
C2425 C2426 1.362 . S
C2426 H2418 0.930 . S
C2426 C2425 1.362 . S
C2426 C2429 1.409 . S
C2427 H2419 0.930 . S
C2427 C2428 1.355 . S
C2427 C2429 1.415 . S
C2428 C2427 1.355 . S
C2428 C2430 1.419 . S
C2429 C2424 1.425 . S
C2429 C2426 1.409 . S
C2429 C2427 1.415 . S
C2430 H2420 0.930 . S
C2430 C2428 1.419 . S
C2430 C2431 1.362 . S
C2431 H2421 0.930 . S
C2431 C2424 1.409 . S
C2431 C2430 1.362 . S
H2432 C2438 0.930 . S
H2433 C2441 0.930 . S
H2434 C2442 0.930 . S
H2435 C2443 0.930 . S
H2436 C2446 0.930 . S
H2437 C2447 0.930 . S
C2438 H2432 0.930 . S
C2438 C2439 1.355 . S
C2438 C2440 1.415 . S
C2439 C2438 1.355 . S
C2439 C2441 1.419 . S
C2440 C2438 1.415 . S
C2440 C2445 1.425 . S
C2440 C2447 1.409 . S
C2441 H2433 0.930 . S
C2441 C2439 1.419 . S
C2441 C2442 1.362 . S
C2442 H2434 0.930 . S
C2442 C2441 1.362 . S
C2442 C2445 1.409 . S
C2443 H2435 0.930 . S
C2443 C2444 1.355 . S
C2443 C2445 1.415 . S
C2444 C2443 1.355 . S
C2444 C2446 1.419 . S
C2445 C2440 1.425 . S
C2445 C2442 1.409 . S
C2445 C2443 1.415 . S
C2446 H2436 0.930 . S
C2446 C2444 1.419 . S
C2446 C2447 1.362 . S
C2447 H2437 0.930 . S
C2447 C2440 1.409 . S
C2447 C2446 1.362 . S
H2448 C2454 0.930 . S
H2449 C2457 0.930 . S
H2450 C2458 0.922 1_545 S
H2451 C2459 0.947 . S
H2452 C2462 0.930 . S
H2453 C2463 0.930 . S
C2454 H2448 0.930 . S
C2454 C2455 1.355 . S
C2454 C2456 1.415 . S
C2455 C2454 1.355 . S
C2455 C2457 1.419 . S
C2456 C2454 1.415 . S
C2456 C2461 1.425 . S
C2456 C2463 1.409 . S
C2457 H2449 0.930 . S
C2457 C2455 1.419 . S
C2457 C2458 1.362 . S
C2458 H2450 0.922 1_565 S
C2458 C2457 1.362 . S
C2458 C2461 1.409 . S
C2459 H2451 0.947 . S
C2459 C2460 1.383 1_545 S
C2459 C2461 1.374 1_545 S
C2460 C2459 1.383 1_565 S
C2460 C2462 1.419 . S
C2461 C2456 1.425 . S
C2461 C2458 1.409 . S
C2461 C2459 1.374 1_565 S
C2462 H2452 0.930 . S
C2462 C2460 1.419 . S
C2462 C2463 1.362 . S
C2463 H2453 0.930 . S
C2463 C2456 1.409 . S
C2463 C2462 1.362 . S
H2464 C2470 0.930 . S
H2465 C2473 0.930 . S
H2466 C2474 0.930 . S
H2467 C2475 0.930 . S
H2468 C2478 0.922 . S
H2469 C2479 0.930 . S
C2470 H2464 0.930 . S
C2470 C2471 1.355 . S
C2470 C2472 1.415 . S
C2471 C2470 1.355 . S
C2471 C2473 1.419 . S
C2472 C2470 1.415 . S
C2472 C2477 1.425 . S
C2472 C2479 1.409 . S
C2473 H2465 0.930 . S
C2473 C2471 1.419 . S
C2473 C2474 1.362 . S
C2474 H2466 0.930 . S
C2474 C2473 1.362 . S
C2474 C2477 1.409 . S
C2475 H2467 0.930 . S
C2475 C2476 1.368 1_455 S
C2475 C2477 1.415 . S
C2476 C2475 1.368 1_655 S
C2476 C2478 1.419 . S
C2477 C2472 1.425 . S
C2477 C2474 1.409 . S
C2477 C2475 1.415 . S
C2478 H2468 0.922 . S
C2478 C2476 1.419 . S
C2478 C2479 1.370 1_655 S
C2479 H2469 0.930 . S
C2479 C2472 1.409 . S
C2479 C2478 1.370 1_455 S
H2480 C2486 0.930 . S
H2481 C2489 0.930 . S
H2482 C2490 0.930 . S
H2483 C2491 0.930 . S
H2484 C2494 0.930 . S
H2485 C2495 0.930 . S
C2486 H2480 0.930 . S
C2486 C2487 1.355 . S
C2486 C2488 1.415 . S
C2487 C2486 1.355 . S
C2487 C2489 1.419 . S
C2488 C2486 1.415 . S
C2488 C2493 1.425 . S
C2488 C2495 1.409 . S
C2489 H2481 0.930 . S
C2489 C2487 1.419 . S
C2489 C2490 1.362 . S
C2490 H2482 0.930 . S
C2490 C2489 1.362 . S
C2490 C2493 1.409 . S
C2491 H2483 0.930 . S
C2491 C2492 1.355 . S
C2491 C2493 1.415 . S
C2492 C2491 1.355 . S
C2492 C2494 1.419 . S
C2493 C2488 1.425 . S
C2493 C2490 1.409 . S
C2493 C2491 1.415 . S
C2494 H2484 0.930 . S
C2494 C2492 1.419 . S
C2494 C2495 1.362 . S
C2495 H2485 0.930 . S
C2495 C2488 1.409 . S
C2495 C2494 1.362 . S
H2496 C2502 0.930 . S
H2497 C2505 0.930 . S
H2498 C2506 0.930 . S
H2499 C2507 0.930 . S
H2500 C2510 0.930 . S
H2501 C2511 0.930 . S
C2502 H2496 0.930 . S
C2502 C2503 1.355 . S
C2502 C2504 1.415 . S
C2503 C2502 1.355 . S
C2503 C2505 1.419 . S
C2504 C2502 1.415 . S
C2504 C2509 1.425 . S
C2504 C2511 1.409 . S
C2505 H2497 0.930 . S
C2505 C2503 1.419 . S
C2505 C2506 1.362 . S
C2506 H2498 0.930 . S
C2506 C2505 1.362 . S
C2506 C2509 1.409 . S
C2507 H2499 0.930 . S
C2507 C2508 1.355 . S
C2507 C2509 1.415 . S
C2508 C2507 1.355 . S
C2508 C2510 1.419 . S
C2509 C2504 1.425 . S
C2509 C2506 1.409 . S
C2509 C2507 1.415 . S
C2510 H2500 0.930 . S
C2510 C2508 1.419 . S
C2510 C2511 1.362 . S
C2511 H2501 0.930 . S
C2511 C2504 1.409 . S
C2511 C2510 1.362 . S
H2512 C2518 0.930 . S
H2513 C2521 0.930 . S
H2514 C2522 0.930 . S
H2515 C2523 0.930 . S
H2516 C2526 0.930 . S
H2517 C2527 0.930 . S
C2518 H2512 0.930 . S
C2518 C2519 1.355 . S
C2518 C2520 1.415 . S
C2519 C2518 1.355 . S
C2519 C2521 1.419 . S
C2520 C2518 1.415 . S
C2520 C2525 1.425 . S
C2520 C2527 1.409 . S
C2521 H2513 0.930 . S
C2521 C2519 1.419 . S
C2521 C2522 1.362 . S
C2522 H2514 0.930 . S
C2522 C2521 1.362 . S
C2522 C2525 1.409 . S
C2523 H2515 0.930 . S
C2523 C2524 1.355 . S
C2523 C2525 1.415 . S
C2524 C2523 1.355 . S
C2524 C2526 1.419 . S
C2525 C2520 1.425 . S
C2525 C2522 1.409 . S
C2525 C2523 1.415 . S
C2526 H2516 0.930 . S
C2526 C2524 1.419 . S
C2526 C2527 1.362 . S
C2527 H2517 0.930 . S
C2527 C2520 1.409 . S
C2527 C2526 1.362 . S
H2528 C2534 0.930 . S
H2529 C2537 0.930 . S
H2530 C2538 0.930 . S
H2531 C2539 0.930 . S
H2532 C2542 0.930 . S
H2533 C2543 0.930 . S
C2534 H2528 0.930 . S
C2534 C2535 1.355 . S
C2534 C2536 1.415 . S
C2535 C2534 1.355 . S
C2535 C2537 1.419 . S
C2536 C2534 1.415 . S
C2536 C2541 1.425 . S
C2536 C2543 1.409 . S
C2537 H2529 0.930 . S
C2537 C2535 1.419 . S
C2537 C2538 1.362 . S
C2538 H2530 0.930 . S
C2538 C2537 1.362 . S
C2538 C2541 1.409 . S
C2539 H2531 0.930 . S
C2539 C2540 1.355 . S
C2539 C2541 1.415 . S
C2540 C2539 1.355 . S
C2540 C2542 1.419 . S
C2541 C2536 1.425 . S
C2541 C2538 1.409 . S
C2541 C2539 1.415 . S
C2542 H2532 0.930 . S
C2542 C2540 1.419 . S
C2542 C2543 1.362 . S
C2543 H2533 0.930 . S
C2543 C2536 1.409 . S
C2543 C2542 1.362 . S
H2544 C2550 0.918 1_565 S
H2545 C2553 0.930 . S
H2546 C2554 0.930 . S
H2547 C2555 0.930 . S
H2548 C2558 0.930 . S
H2549 C2559 0.930 . S
C2550 H2544 0.918 1_545 S
C2550 C2551 1.355 . S
C2550 C2552 1.415 . S
C2551 C2550 1.355 . S
C2551 C2553 1.419 . S
C2552 C2550 1.415 . S
C2552 C2557 1.425 . S
C2552 C2559 1.409 1_545 S
C2553 H2545 0.930 . S
C2553 C2551 1.419 . S
C2553 C2554 1.362 . S
C2554 H2546 0.930 . S
C2554 C2553 1.362 . S
C2554 C2557 1.409 . S
C2555 H2547 0.930 . S
C2555 C2556 1.355 . S
C2555 C2557 1.415 . S
C2556 C2555 1.355 . S
C2556 C2558 1.419 1_545 S
C2557 C2552 1.425 . S
C2557 C2554 1.409 . S
C2557 C2555 1.415 . S
C2558 H2548 0.930 . S
C2558 C2556 1.419 1_565 S
C2558 C2559 1.362 . S
C2559 H2549 0.930 . S
C2559 C2552 1.409 1_565 S
C2559 C2558 1.362 . S
H2560 C2566 0.930 1_455 S
H2561 C2569 0.930 . S
H2562 C2570 0.930 . S
H2563 C2571 0.930 . S
H2564 C2574 0.930 . S
H2565 C2575 0.930 . S
C2566 H2560 0.930 1_655 S
C2566 C2567 1.355 . S
C2566 C2568 1.415 . S
C2567 C2566 1.355 . S
C2567 C2569 1.419 . S
C2568 C2566 1.415 . S
C2568 C2573 1.425 . S
C2568 C2575 1.409 1_655 S
C2569 H2561 0.930 . S
C2569 C2567 1.419 . S
C2569 C2570 1.362 . S
C2570 H2562 0.930 . S
C2570 C2569 1.362 . S
C2570 C2573 1.409 . S
C2571 H2563 0.930 . S
C2571 C2572 1.355 . S
C2571 C2573 1.415 . S
C2572 C2571 1.355 . S
C2572 C2574 1.419 1_655 S
C2573 C2568 1.425 . S
C2573 C2570 1.409 . S
C2573 C2571 1.415 . S
C2574 H2564 0.930 . S
C2574 C2572 1.419 1_455 S
C2574 C2575 1.362 . S
C2575 H2565 0.930 . S
C2575 C2568 1.409 1_455 S
C2575 C2574 1.362 . S
H2576 C2582 0.930 . S
H2577 C2585 0.930 . S
H2578 C2586 0.930 . S
H2579 C2587 0.930 . S
H2580 C2590 0.930 . S
H2581 C2591 0.930 . S
C2582 H2576 0.930 . S
C2582 C2583 1.355 . S
C2582 C2584 1.415 . S
C2583 C2582 1.355 . S
C2583 C2585 1.419 . S
C2584 C2582 1.415 . S
C2584 C2589 1.425 . S
C2584 C2591 1.409 . S
C2585 H2577 0.930 . S
C2585 C2583 1.419 . S
C2585 C2586 1.362 . S
C2586 H2578 0.930 . S
C2586 C2585 1.362 . S
C2586 C2589 1.409 . S
C2587 H2579 0.930 . S
C2587 C2588 1.355 . S
C2587 C2589 1.415 . S
C2588 C2587 1.355 . S
C2588 C2590 1.419 . S
C2589 C2584 1.425 . S
C2589 C2586 1.409 . S
C2589 C2587 1.415 . S
C2590 H2580 0.930 . S
C2590 C2588 1.419 . S
C2590 C2591 1.362 . S
C2591 H2581 0.930 . S
C2591 C2584 1.409 . S
C2591 C2590 1.362 . S
H2592 C2598 0.930 . S
H2593 C2601 0.930 . S
H2594 C2602 0.930 . S
H2595 C2603 0.930 . S
H2596 C2606 0.930 . S
H2597 C2607 0.930 . S
C2598 H2592 0.930 . S
C2598 C2599 1.355 . S
C2598 C2600 1.415 . S
C2599 C2598 1.355 . S
C2599 C2601 1.419 . S
C2600 C2598 1.415 . S
C2600 C2605 1.425 . S
C2600 C2607 1.409 . S
C2601 H2593 0.930 . S
C2601 C2599 1.419 . S
C2601 C2602 1.362 . S
C2602 H2594 0.930 . S
C2602 C2601 1.362 . S
C2602 C2605 1.409 . S
C2603 H2595 0.930 . S
C2603 C2604 1.355 . S
C2603 C2605 1.415 . S
C2604 C2603 1.355 . S
C2604 C2606 1.419 . S
C2605 C2600 1.425 . S
C2605 C2602 1.409 . S
C2605 C2603 1.415 . S
C2606 H2596 0.930 . S
C2606 C2604 1.419 . S
C2606 C2607 1.362 . S
C2607 H2597 0.930 . S
C2607 C2600 1.409 . S
C2607 C2606 1.362 . S
H2608 C2614 0.930 . S
H2609 C2617 0.930 . S
H2610 C2618 0.930 . S
H2611 C2619 0.930 . S
H2612 C2622 0.930 . S
H2613 C2623 0.930 . S
C2614 H2608 0.930 . S
C2614 C2615 1.355 . S
C2614 C2616 1.415 . S
C2615 C2614 1.355 . S
C2615 C2617 1.419 . S
C2616 C2614 1.415 . S
C2616 C2621 1.425 . S
C2616 C2623 1.409 . S
C2617 H2609 0.930 . S
C2617 C2615 1.419 . S
C2617 C2618 1.362 . S
C2618 H2610 0.930 . S
C2618 C2617 1.362 . S
C2618 C2621 1.409 . S
C2619 H2611 0.930 . S
C2619 C2620 1.355 . S
C2619 C2621 1.415 . S
C2620 C2619 1.355 . S
C2620 C2622 1.419 . S
C2621 C2616 1.425 . S
C2621 C2618 1.409 . S
C2621 C2619 1.415 . S
C2622 H2612 0.930 . S
C2622 C2620 1.419 . S
C2622 C2623 1.362 . S
C2623 H2613 0.930 . S
C2623 C2616 1.409 . S
C2623 C2622 1.362 . S
H2624 C2630 0.930 . S
H2625 C2633 0.930 . S
H2626 C2634 0.930 . S
H2627 C2635 0.930 . S
H2628 C2638 0.930 . S
H2629 C2639 0.930 . S
C2630 H2624 0.930 . S
C2630 C2631 1.355 . S
C2630 C2632 1.415 . S
C2631 C2630 1.355 . S
C2631 C2633 1.419 . S
C2632 C2630 1.415 . S
C2632 C2637 1.425 . S
C2632 C2639 1.409 . S
C2633 H2625 0.930 . S
C2633 C2631 1.419 . S
C2633 C2634 1.362 . S
C2634 H2626 0.930 . S
C2634 C2633 1.362 . S
C2634 C2637 1.409 . S
C2635 H2627 0.930 . S
C2635 C2636 1.355 . S
C2635 C2637 1.415 . S
C2636 C2635 1.355 . S
C2636 C2638 1.419 . S
C2637 C2632 1.425 . S
C2637 C2634 1.409 . S
C2637 C2635 1.415 . S
C2638 H2628 0.930 . S
C2638 C2636 1.419 . S
C2638 C2639 1.362 . S
C2639 H2629 0.930 . S
C2639 C2632 1.409 . S
C2639 C2638 1.362 . S
H2640 C2646 0.930 . S
H2641 C2649 0.930 . S
H2642 C2650 0.930 . S
H2643 C2651 0.930 . S
H2644 C2654 0.930 . S
H2645 C2655 0.930 . S
C2646 H2640 0.930 . S
C2646 C2647 1.355 . S
C2646 C2648 1.415 . S
C2647 C2646 1.355 . S
C2647 C2649 1.419 . S
C2648 C2646 1.415 . S
C2648 C2653 1.425 . S
C2648 C2655 1.409 . S
C2649 H2641 0.930 . S
C2649 C2647 1.419 . S
C2649 C2650 1.362 . S
C2650 H2642 0.930 . S
C2650 C2649 1.362 . S
C2650 C2653 1.409 . S
C2651 H2643 0.930 . S
C2651 C2652 1.355 . S
C2651 C2653 1.415 . S
C2652 C2651 1.355 . S
C2652 C2654 1.419 . S
C2653 C2648 1.425 . S
C2653 C2650 1.409 . S
C2653 C2651 1.415 . S
C2654 H2644 0.930 . S
C2654 C2652 1.419 . S
C2654 C2655 1.362 . S
C2655 H2645 0.930 . S
C2655 C2648 1.409 . S
C2655 C2654 1.362 . S
H2656 C2662 0.930 . S
H2657 C2665 0.930 . S
H2658 C2666 0.930 . S
H2659 C2667 0.930 . S
H2660 C2670 0.930 . S
H2661 C2671 0.930 . S
C2662 H2656 0.930 . S
C2662 C2663 1.355 . S
C2662 C2664 1.415 . S
C2663 C2662 1.355 . S
C2663 C2665 1.419 . S
C2664 C2662 1.415 . S
C2664 C2669 1.425 . S
C2664 C2671 1.409 . S
C2665 H2657 0.930 . S
C2665 C2663 1.419 . S
C2665 C2666 1.362 . S
C2666 H2658 0.930 . S
C2666 C2665 1.362 . S
C2666 C2669 1.409 . S
C2667 H2659 0.930 . S
C2667 C2668 1.355 . S
C2667 C2669 1.415 . S
C2668 C2667 1.355 . S
C2668 C2670 1.419 . S
C2669 C2664 1.425 . S
C2669 C2666 1.409 . S
C2669 C2667 1.415 . S
C2670 H2660 0.930 . S
C2670 C2668 1.419 . S
C2670 C2671 1.362 . S
C2671 H2661 0.930 . S
C2671 C2664 1.409 . S
C2671 C2670 1.362 . S
H2672 C2678 0.930 . S
H2673 C2681 0.930 . S
H2674 C2682 0.930 . S
H2675 C2683 0.930 . S
H2676 C2686 0.930 . S
H2677 C2687 0.930 . S
C2678 H2672 0.930 . S
C2678 C2679 1.355 . S
C2678 C2680 1.415 . S
C2679 C2678 1.355 . S
C2679 C2681 1.419 . S
C2680 C2678 1.415 . S
C2680 C2685 1.425 . S
C2680 C2687 1.409 . S
C2681 H2673 0.930 . S
C2681 C2679 1.419 . S
C2681 C2682 1.362 . S
C2682 H2674 0.930 . S
C2682 C2681 1.362 . S
C2682 C2685 1.409 . S
C2683 H2675 0.930 . S
C2683 C2684 1.355 . S
C2683 C2685 1.415 . S
C2684 C2683 1.355 . S
C2684 C2686 1.419 . S
C2685 C2680 1.425 . S
C2685 C2682 1.409 . S
C2685 C2683 1.415 . S
C2686 H2676 0.930 . S
C2686 C2684 1.419 . S
C2686 C2687 1.362 . S
C2687 H2677 0.930 . S
C2687 C2680 1.409 . S
C2687 C2686 1.362 . S
H2688 C2694 0.930 . S
H2689 C2697 0.930 . S
H2690 C2698 0.930 . S
H2691 C2699 0.957 . S
H2692 C2702 0.930 . S
H2693 C2703 0.930 . S
C2694 H2688 0.930 . S
C2694 C2695 1.355 . S
C2694 C2696 1.415 . S
C2695 C2694 1.355 . S
C2695 C2697 1.419 . S
C2696 C2694 1.415 . S
C2696 C2701 1.425 . S
C2696 C2703 1.409 . S
C2697 H2689 0.930 . S
C2697 C2695 1.419 . S
C2697 C2698 1.362 1_655 S
C2698 H2690 0.930 . S
C2698 C2697 1.362 1_455 S
C2698 C2701 1.409 1_455 S
C2699 H2691 0.957 . S
C2699 C2700 1.353 1_455 S
C2699 C2701 1.389 1_455 S
C2700 C2699 1.353 1_655 S
C2700 C2702 1.419 . S
C2701 C2696 1.425 . S
C2701 C2698 1.409 1_655 S
C2701 C2699 1.389 1_655 S
C2702 H2692 0.930 . S
C2702 C2700 1.419 . S
C2702 C2703 1.362 . S
C2703 H2693 0.930 . S
C2703 C2696 1.409 . S
C2703 C2702 1.362 . S
H2704 C2710 0.930 . S
H2705 C2713 0.930 . S
H2706 C2714 0.930 . S
H2707 C2715 0.930 . S
H2708 C2718 0.930 . S
H2709 C2719 0.930 . S
C2710 H2704 0.930 . S
C2710 C2711 1.355 . S
C2710 C2712 1.415 . S
C2711 C2710 1.355 . S
C2711 C2713 1.419 . S
C2712 C2710 1.415 . S
C2712 C2717 1.425 . S
C2712 C2719 1.409 . S
C2713 H2705 0.930 . S
C2713 C2711 1.419 . S
C2713 C2714 1.362 . S
C2714 H2706 0.930 . S
C2714 C2713 1.362 . S
C2714 C2717 1.409 . S
C2715 H2707 0.930 . S
C2715 C2716 1.355 . S
C2715 C2717 1.415 . S
C2716 C2715 1.355 . S
C2716 C2718 1.419 . S
C2717 C2712 1.425 . S
C2717 C2714 1.409 . S
C2717 C2715 1.415 . S
C2718 H2708 0.930 . S
C2718 C2716 1.419 . S
C2718 C2719 1.362 . S
C2719 H2709 0.930 . S
C2719 C2712 1.409 . S
C2719 C2718 1.362 . S
H2720 C2726 0.930 . S
H2721 C2729 0.930 . S
H2722 C2730 0.930 . S
H2723 C2731 0.930 . S
H2724 C2734 0.930 1_565 S
H2725 C2735 0.930 . S
C2726 H2720 0.930 . S
C2726 C2727 1.355 . S
C2726 C2728 1.415 . S
C2727 C2726 1.355 . S
C2727 C2729 1.419 . S
C2728 C2726 1.415 . S
C2728 C2733 1.425 . S
C2728 C2735 1.409 . S
C2729 H2721 0.930 . S
C2729 C2727 1.419 . S
C2729 C2730 1.362 . S
C2730 H2722 0.930 . S
C2730 C2729 1.362 . S
C2730 C2733 1.409 . S
C2731 H2723 0.930 . S
C2731 C2732 1.355 . S
C2731 C2733 1.415 . S
C2732 C2731 1.355 . S
C2732 C2734 1.419 . S
C2733 C2728 1.425 . S
C2733 C2730 1.409 . S
C2733 C2731 1.415 . S
C2734 H2724 0.930 1_545 S
C2734 C2732 1.419 . S
C2734 C2735 1.362 . S
C2735 H2725 0.930 . S
C2735 C2728 1.409 . S
C2735 C2734 1.362 . S
C1591 C9 1.271 1_655 S
C1596 C981 1.223 . S
C1607 C19 1.620 . S
C1612 C1061 1.533 . S
C1628 C1129 1.419 . S
C1623 C33 1.430 . S
C1639 C37 1.740 . S
C1644 C1209 1.721 . S
C1655 C5 1.508 . S
C1660 C1283 1.467 . S
C1671 C23 1.717 . S
C1676 C1351 1.582 . S
C1687 C47 1.222 1_556 S
C1692 C1277 1.206 . S
C1708 C1357 1.496 . S
C1703 C65 1.513 . S
C1724 C1203 1.295 1_565 S
C1719 C75 1.308 1_556 S
C1735 C79 1.636 . S
C1740 C1135 1.651 . S
C1756 C987 1.496 . S
C1751 C51 1.476 . S
C1767 C61 1.499 . S
C1772 C1055 1.454 . S
C1783 C93 1.643 . S
C1788 C1425 1.524 . S
C1799 C103 1.674 . S
C1804 C1505 1.594 . S
C1820 C1573 1.561 . S
C1815 C117 1.669 . S
C1831 C121 1.941 . S
C1836 C321 1.849 . S
C1847 C89 1.777 . S
C1852 C395 1.698 . S
C1863 C107 1.754 . S
C1868 C463 1.687 . S
C1879 C131 1.239 . S
C1884 C389 1.157 . S
C1895 C149 1.544 . S
C1900 C469 1.552 . S
C1916 C315 1.378 . S
C1911 C159 1.432 . S
C1932 C1579 1.825 . S
C1927 C163 1.814 . S
C1948 C1431 1.595 . S
C1943 C135 1.613 . S
C1964 C1499 1.507 . S
C1959 C145 1.541 . S
C1975 C177 1.527 . S
C1980 C537 1.364 . S
C1991 C187 1.681 . S
C1996 C617 1.621 . S
C2007 C201 1.693 . S
C2012 C685 1.549 . S
C2023 C205 2.027 . S
C2028 C765 1.966 . S
C2044 C839 1.664 . S
C2039 C173 1.759 . S
C2060 C907 1.662 . S
C2055 C191 1.799 . S
C2076 C833 1.282 . S
C2071 C215 1.351 . S
C2092 C913 1.525 . S
C2087 C233 1.550 . S
C2103 C243 1.385 . S
C2108 C759 1.345 . S
C2124 C691 1.705 . S
C2119 C247 1.717 . S
C2135 C219 1.639 . S
C2140 C543 1.644 . S
C2156 C611 1.493 . S
C2151 C229 1.512 . S
C2172 C291 1.928 . S
C2167 C11 1.965 . S
C2183 C14 1.479 . S
C2188 C365 1.475 . S
C2204 C451 1.614 . S
C2199 C28 1.608 . S
C2220 C525 1.304 . S
C2215 C39 1.357 1_556 S
C2236 C587 1.610 . S
C2231 C0 1.651 1_556 S
C2252 C673 1.500 . S
C2247 C25 1.522 . S
C2263 C42 2.239 . S
C2268 C661 2.128 . S
C2279 C67 1.745 . S
C2284 C513 1.634 . S
C2295 C70 1.764 . S
C2300 C599 1.660 . S
C2311 C81 1.582 . S
C2316 C377 1.491 . S
C2332 C439 1.786 . S
C2327 C53 1.896 . S
C2343 C56 1.860 . S
C2348 C303 1.765 . S
C2364 C735 1.845 . S
C2359 C95 1.890 . S
C2375 C98 1.605 1_545 S
C2380 C809 1.603 . S
C2391 C112 1.662 1_655 S
C2396 C895 1.620 . S
C2412 C969 1.145 . S
C2407 C123 1.156 . S
C2423 C84 1.579 . S
C2428 C1031 1.577 . S
C2439 C109 1.384 . S
C2444 C1117 1.376 . S
C2455 C126 1.892 . S
C2460 C1105 1.804 1_565 S
C2471 C151 1.446 . S
C2476 C957 1.367 . S
C2492 C1043 1.662 . S
C2487 C154 1.714 . S
C2503 C165 1.581 . S
C2508 C821 1.486 . S
C2519 C137 1.883 . S
C2524 C883 1.759 . S
C2540 C747 1.828 . S
C2535 C140 1.925 1_655 S
C2556 C1179 1.731 . S
C2551 C179 1.757 . S
C2567 C182 1.298 . S
C2572 C1253 1.301 . S
C2583 C196 1.567 . S
C2588 C1339 1.567 . S
C2604 C1413 1.285 . S
C2599 C207 1.344 . S
C2620 C1475 1.633 . S
C2615 C168 1.672 . S
C2631 C193 1.613 . S
C2636 C1561 1.574 . S
C2647 C210 2.178 . S
C2652 C1549 2.050 . S
C2663 C235 1.799 1_565 S
C2668 C1401 1.697 . S
C2684 C1487 1.692 . S
C2679 C238 1.804 1_455 S
C2700 C1265 1.132 . S
C2695 C249 1.192 . S
C2716 C1327 1.738 . S
C2711 C221 1.813 . S
C2727 C224 1.566 . S
C2732 C1191 1.510 . S
