# Generated by pormake.
# Topology zzz, (3,6)-cn, num edge types: 1
# Building blocks:
#     Node 0, Type 0, BuildingBlock: MIDCAF_clean_linker_0, # of connection points: 3
#     Node 1, Type 0, BuildingBlock: MIDCAF_clean_linker_0, # of connection points: 3
#     Node 2, Type 0, BuildingBlock: MIDCAF_clean_linker_0, # of connection points: 3
#     Node 3, Type 0, BuildingBlock: MIDCAF_clean_linker_0, # of connection points: 3
#     Node 4, Type 0, BuildingBlock: MIDCAF_clean_linker_0, # of connection points: 3
#     Node 5, Type 0, BuildingBlock: MIDCAF_clean_linker_0, # of connection points: 3
#     Node 6, Type 0, BuildingBlock: MIDCAF_clean_linker_0, # of connection points: 3
#     Node 7, Type 0, BuildingBlock: MIDCAF_clean_linker_0, # of connection points: 3
#     Node 8, Type 1, BuildingBlock: NUHQIS_clean_sbu_0, # of connection points: 6
#     Node 9, Type 1, BuildingBlock: NUHQIS_clean_sbu_0, # of connection points: 6
#     Node 10, Type 1, BuildingBlock: NUHQIS_clean_sbu_0, # of connection points: 6
#     Node 11, Type 1, BuildingBlock: NUHQIS_clean_sbu_0, # of connection points: 6
#     Edge 12, Type (0, 1), BuildingBlock: MIFKUJ_clean_linker_0, # of connection points: 2
#     Edge 13, Type (0, 1), BuildingBlock: MIFKUJ_clean_linker_0, # of connection points: 2
#     Edge 14, Type (0, 1), BuildingBlock: MIFKUJ_clean_linker_0, # of connection points: 2
#     Edge 15, Type (0, 1), BuildingBlock: MIFKUJ_clean_linker_0, # of connection points: 2
#     Edge 16, Type (0, 1), BuildingBlock: MIFKUJ_clean_linker_0, # of connection points: 2
#     Edge 17, Type (0, 1), BuildingBlock: MIFKUJ_clean_linker_0, # of connection points: 2
#     Edge 18, Type (0, 1), BuildingBlock: MIFKUJ_clean_linker_0, # of connection points: 2
#     Edge 19, Type (0, 1), BuildingBlock: MIFKUJ_clean_linker_0, # of connection points: 2
#     Edge 20, Type (0, 1), BuildingBlock: MIFKUJ_clean_linker_0, # of connection points: 2
#     Edge 21, Type (0, 1), BuildingBlock: MIFKUJ_clean_linker_0, # of connection points: 2
#     Edge 22, Type (0, 1), BuildingBlock: MIFKUJ_clean_linker_0, # of connection points: 2
#     Edge 23, Type (0, 1), BuildingBlock: MIFKUJ_clean_linker_0, # of connection points: 2
#     Edge 24, Type (0, 1), BuildingBlock: MIFKUJ_clean_linker_0, # of connection points: 2
#     Edge 25, Type (0, 1), BuildingBlock: MIFKUJ_clean_linker_0, # of connection points: 2
#     Edge 26, Type (0, 1), BuildingBlock: MIFKUJ_clean_linker_0, # of connection points: 2
#     Edge 27, Type (0, 1), BuildingBlock: MIFKUJ_clean_linker_0, # of connection points: 2
#     Edge 28, Type (0, 1), BuildingBlock: MIFKUJ_clean_linker_0, # of connection points: 2
#     Edge 29, Type (0, 1), BuildingBlock: MIFKUJ_clean_linker_0, # of connection points: 2
#     Edge 30, Type (0, 1), BuildingBlock: MIFKUJ_clean_linker_0, # of connection points: 2
#     Edge 31, Type (0, 1), BuildingBlock: MIFKUJ_clean_linker_0, # of connection points: 2
#     Edge 32, Type (0, 1), BuildingBlock: MIFKUJ_clean_linker_0, # of connection points: 2
#     Edge 33, Type (0, 1), BuildingBlock: MIFKUJ_clean_linker_0, # of connection points: 2
#     Edge 34, Type (0, 1), BuildingBlock: MIFKUJ_clean_linker_0, # of connection points: 2
#     Edge 35, Type (0, 1), BuildingBlock: MIFKUJ_clean_linker_0, # of connection points: 2
# Relax obj value: 0.390
# Max RMSD: 0.259
# Mean RMSD: 0.232
data_MOF--net-zzz--node1-NUHQIS_clean_sbu_0--node2-MIDCAF_clean_linker_0--edge1-MIFKUJ_clean_linker_0
_symmetry_space_group_name_H-M    P1
_symmetry_Int_Tables_number       1
_symmetry_cell_setting            triclinic
loop_
_symmetry_equiv_pos_as_xyz
'x, y, z'
_cell_length_a     74.364524
_cell_length_b     74.363836
_cell_length_c     23.636661
_cell_angle_alpha  89.874632
_cell_angle_beta   89.988746
_cell_angle_gamma 90.032686
loop_
_atom_site_label
_atom_site_type_symbol
_atom_site_fract_x
_atom_site_fract_y
_atom_site_fract_z
_atom_type_partial_charge
C0 C 0.78562 0.52069 0.38026 0.0
C1 C 0.79829 0.50658 0.37982 0.0
C2 C 0.79583 0.49246 0.34116 0.0
C3 C 0.78214 0.49314 0.30088 0.0
H4 H 0.71868 0.54689 0.14575 0.0
H5 H 0.68789 0.55016 0.11192 0.0
H6 H 0.67243 0.50279 0.20605 0.0
H7 H 0.70341 0.49981 0.24093 0.0
H8 H 0.74298 0.50869 0.04105 0.0
H9 H 0.75779 0.50198 0.95126 0.0
H10 H 0.80818 0.49477 0.03923 0.0
H11 H 0.7936 0.50162 0.12846 0.0
H12 H 0.76287 0.53287 0.33861 0.0
H13 H 0.7871 0.5318 0.40946 0.0
H14 H 0.80498 0.48113 0.3405 0.0
H15 H 0.78133 0.48251 0.26969 0.0
N16 N 0.74167 0.51575 0.24839 0.0
N17 N 0.74086 0.51484 0.1487 0.0
N18 N 0.76721 0.50708 0.19621 0.0
C19 C 0.73249 0.51799 0.19871 0.0
C20 C 0.75818 0.50936 0.14698 0.0
C21 C 0.75923 0.51028 0.24688 0.0
C22 C 0.71336 0.5232 0.19627 0.0
C23 C 0.70852 0.53764 0.16116 0.0
C24 C 0.69094 0.53935 0.14118 0.0
C25 C 0.6778 0.52649 0.15516 0.0
C26 C 0.68223 0.51294 0.19452 0.0
C27 C 0.69992 0.51129 0.21489 0.0
C28 C 0.76709 0.50569 0.09212 0.0
C29 C 0.75725 0.50578 0.04122 0.0
C30 C 0.76568 0.50188 0.98977 0.0
C31 C 0.78415 0.49798 0.98814 0.0
C32 C 0.79398 0.49804 0.03892 0.0
C33 C 0.78557 0.50183 0.09024 0.0
C34 C 0.77029 0.50782 0.29849 0.0
C35 C 0.77169 0.52129 0.33991 0.0
C36 C 0.9855 0.7866 0.36602 0.0
C37 C 0.99437 0.78786 0.41849 0.0
C38 C 0.00556 0.77355 0.43546 0.0
C39 C 0.00881 0.75902 0.39914 0.0
H40 H 0.03503 0.69321 0.22665 0.0
H41 H 0.0282 0.66482 0.18052 0.0
H42 H 0.97143 0.67618 0.19348 0.0
H43 H 0.97838 0.70478 0.24103 0.0
H44 H 0.03859 0.73487 0.11769 0.0
H45 H 0.05574 0.75201 0.04782 0.0
H46 H 0.06494 0.7937 0.17136 0.0
H47 H 0.04779 0.77671 0.24111 0.0
H48 H 0.98298 0.77225 0.28774 0.0
H49 H 0.97698 0.79742 0.35112 0.0
H50 H 0.01246 0.77399 0.47578 0.0
H51 H 0.01851 0.74888 0.41147 0.0
N52 N 0.00396 0.72969 0.29231 0.0
N53 N 0.02445 0.72816 0.21647 0.0
N54 N 0.02134 0.75494 0.26671 0.0
C55 C 0.012 0.72009 0.25002 0.0
C56 C 0.02918 0.74553 0.22441 0.0
C57 C 0.00887 0.74719 0.30083 0.0
C58 C 0.00724 0.70123 0.2371 0.0
C59 C 0.02106 0.68943 0.22116 0.0
C60 C 0.01715 0.67323 0.1943 0.0
C61 C 0.9993 0.66845 0.18208 0.0
C62 C 0.98533 0.67952 0.20227 0.0
C63 C 0.98928 0.69583 0.2297 0.0
C64 C 0.04164 0.75456 0.18476 0.0
C65 C 0.04457 0.74752 0.13031 0.0
C66 C 0.05435 0.75732 0.09024 0.0
C67 C 0.06163 0.77415 0.10421 0.0
C68 C 0.05964 0.78065 0.15962 0.0
C69 C 0.04966 0.771 0.1994 0.0
C70 C 1.00087 0.75847 0.34534 0.0
C71 C 0.98883 0.77213 0.32972 0.0
C72 C 0.72505 0.99945 0.35047 0.0
C73 C 0.71374 0.01409 0.36351 0.0
C74 C 0.71787 0.031 0.34007 0.0
C75 C 0.73196 0.03296 0.30149 0.0
H76 H 0.81297 0.01616 0.23381 0.0
H77 H 0.84199 0.00695 0.19376 0.0
H78 H 0.81416 0.97519 0.06853 0.0
H79 H 0.78538 0.98474 0.10787 0.0
H80 H 0.77139 0.03085 0.03567 0.0
H81 H 0.75808 0.04568 0.95365 0.0
H82 H 0.72032 0.07285 0.0626 0.0
H83 H 0.73349 0.05801 0.14489 0.0
H84 H 0.74723 0.98979 0.30048 0.0
H85 H 0.72229 0.98621 0.36754 0.0
H86 H 0.70986 0.04271 0.35027 0.0
H87 H 0.73419 0.04604 0.28247 0.0
N88 N 0.77022 0.00988 0.23137 0.0
N89 N 0.7749 0.02224 0.14073 0.0
N90 N 0.74988 0.03098 0.19345 0.0
C91 C 0.78034 0.01129 0.18331 0.0
C92 C 0.75977 0.03221 0.14544 0.0
C93 C 0.75487 0.01989 0.23648 0.0
C94 C 0.797 1.00096 0.17428 0.0
C95 C 0.81316 0.00656 0.19941 0.0
C96 C 0.82976 1.00138 0.17615 0.0
C97 C 0.83039 0.99061 0.1272 0.0
C98 C 0.81416 0.98377 0.10551 0.0
C99 C 0.79767 0.989 0.12852 0.0
C100 C 0.75335 0.04306 0.09688 0.0
C101 C 0.76047 0.04023 0.04243 0.0
C102 C 0.75288 0.0487 0.99537 0.0
C103 C 0.73821 0.06038 1.00187 0.0
C104 C 0.73177 0.06406 0.05652 0.0
C105 C 0.73921 0.05542 0.10356 0.0
C106 C 0.74256 0.01815 0.28573 0.0
C107 C 0.73938 1.00148 0.31209 0.0
C108 C 0.52151 0.71096 0.05252 0.0
C109 C 0.5217 0.72074 1.00151 0.0
C110 C 0.52398 0.73949 0.00359 0.0
C111 C 0.52519 0.74832 0.05564 0.0
H112 H 0.4913 0.79556 0.22168 0.0
H113 H 0.48804 0.82612 0.18367 0.0
H114 H 0.54536 0.82876 0.15629 0.0
H115 H 0.54847 0.79815 0.19322 0.0
H116 H 0.53273 0.74958 0.36672 0.0
H117 H 0.53088 0.72693 0.44273 0.0
H118 H 0.49364 0.69603 0.34189 0.0
H119 H 0.49564 0.71834 0.26678 0.0
H120 H 0.52192 0.71178 0.14269 0.0
H121 H 0.51948 0.69654 0.05269 0.0
H122 H 0.52437 0.74738 0.96504 0.0
H123 H 0.52638 0.76284 0.05573 0.0
N124 N 0.52358 0.76615 0.16415 0.0
N125 N 0.5182 0.76539 0.26241 0.0
N126 N 0.52004 0.73857 0.21001 0.0
C127 C 0.52121 0.77494 0.21383 0.0
C128 C 0.51777 0.74702 0.26037 0.0
C129 C 0.52304 0.74798 0.1618 0.0
C130 C 0.52018 0.79471 0.21142 0.0
C131 C 0.50326 0.80304 0.20998 0.0
C132 C 0.50138 0.8204 0.18749 0.0
C133 C 0.51643 0.82979 0.16665 0.0
C134 C 0.53354 0.82196 0.17249 0.0
C135 C 0.53535 0.80449 0.19398 0.0
C136 C 0.5143 0.73572 0.31097 0.0
C137 C 0.52382 0.73816 0.36171 0.0
C138 C 0.52289 0.72512 0.40486 0.0
C139 C 0.51213 0.70963 0.39834 0.0
C140 C 0.5019 0.70783 0.34872 0.0
C141 C 0.50309 0.72061 0.30552 0.0
C142 C 0.52409 0.73858 0.10667 0.0
C143 C 0.52273 0.71976 0.10438 0.0
C144 C 0.23038 0.50136 0.96993 0.0
C145 C 0.22225 0.48825 0.93544 0.0
C146 C 0.23049 0.4713 0.93099 0.0
C147 C 0.24555 0.46706 0.96402 0.0
H148 H 0.32051 0.45354 0.1011 0.0
H149 H 0.34826 0.45936 0.15385 0.0
H150 H 0.32777 0.51136 0.20262 0.0
H151 H 0.30014 0.50552 0.14914 0.0
H152 H 0.27394 0.45531 0.24909 0.0
H153 H 0.25349 0.45446 0.32973 0.0
H154 H 0.20869 0.44627 0.2169 0.0
H155 H 0.22893 0.447 0.13607 0.0
H156 H 0.2508 0.50708 0.03167 0.0
H157 H 0.22438 0.51456 0.9741 0.0
H158 H 0.22448 0.46085 0.90535 0.0
H159 H 0.25062 0.4534 0.96364 0.0
N160 N 0.28128 0.47884 0.05802 0.0
N161 N 0.28112 0.46365 0.14565 0.0
N162 N 0.25537 0.46364 0.08939 0.0
C163 C 0.29004 0.47338 0.10595 0.0
C164 C 0.26376 0.45876 0.13787 0.0
C165 C 0.26392 0.47348 0.04927 0.0
C166 C 0.30843 0.47927 0.12 0.0
C167 C 0.32237 0.46655 0.12085 0.0
C168 C 0.33817 0.46984 0.15142 0.0
C169 C 0.34013 0.48575 0.18289 0.0
C170 C 0.3266 0.49893 0.17912 0.0
C171 C 0.31091 0.49572 0.14785 0.0
C172 C 0.25298 0.45188 0.18592 0.0
C173 C 0.25984 0.4526 0.24142 0.0
C174 C 0.24817 0.45203 0.28776 0.0
C175 C 0.22958 0.4507 0.27905 0.0
C176 C 0.22301 0.44754 0.22433 0.0
C177 C 0.23463 0.44803 0.1781 0.0
C178 C 0.25298 0.4798 1.00107 0.0
C179 C 0.24567 0.49719 0.00222 0.0
C180 C 0.98211 0.21902 0.97207 0.0
C181 C 1.00001 0.21363 0.96359 0.0
C182 C 0.01377 0.22295 0.99227 0.0
C183 C 0.00961 0.23695 0.03001 0.0
H184 H 0.02303 0.28606 0.18497 0.0
H185 H 0.03277 0.31346 0.23421 0.0
H186 H 0.98332 0.33967 0.18533 0.0
H187 H 0.97375 0.31239 0.13681 0.0
H188 H 0.95457 0.2745 0.26279 0.0
H189 H 0.93696 0.26057 0.33802 0.0
H190 H 0.93339 0.21172 0.23989 0.0
H191 H 0.95043 0.22568 0.16446 0.0
H192 H 0.96396 0.23591 0.01776 0.0
H193 H 0.97117 0.21205 0.95122 0.0
H194 H 0.0277 0.21914 0.98641 0.0
H195 H 0.02036 0.24344 0.0532 0.0
N196 N 0.99512 0.26937 0.09877 0.0
N197 N 0.97581 0.27415 0.17637 0.0
N198 N 0.97284 0.24812 0.12226 0.0
C199 C 0.98946 0.27985 0.14274 0.0
C200 C 0.96751 0.25824 0.1668 0.0
C201 C 0.98647 0.25351 0.08797 0.0
C202 C 0.9978 0.29729 0.15641 0.0
C203 C 0.01466 0.29797 0.18293 0.0
C204 C 0.02008 0.31355 0.21174 0.0
C205 C 0.00876 0.32873 0.21409 0.0
C206 C 0.99247 0.32835 0.18394 0.0
C207 C 0.98699 0.31275 0.15592 0.0
C208 C 0.95422 0.25111 0.20788 0.0
C209 C 0.94968 0.26092 0.2567 0.0
C210 C 0.93962 0.25293 0.29997 0.0
C211 C 0.93389 0.23498 0.29533 0.0
C212 C 0.93735 0.22565 0.24478 0.0
C213 C 0.94733 0.23363 0.20154 0.0
C214 C 0.9916 0.24157 0.04053 0.0
C215 C 0.97797 0.23268 0.01035 0.0
C216 C 0.29523 1.00105 0.0078 0.0
C217 C 0.29575 0.01226 0.95994 0.0
C218 C 0.28094 0.0236 0.9492 0.0
C219 C 0.26668 0.02477 0.98832 0.0
H220 H 0.20795 0.05423 0.15898 0.0
H221 H 0.17733 0.05375 0.1959 0.0
H222 H 0.17291 0.99756 0.15211 0.0
H223 H 0.20349 0.99834 0.11353 0.0
H224 H 0.23949 0.03044 0.29098 0.0
H225 H 0.25487 0.02962 0.38234 0.0
H226 H 0.30542 0.0209 0.29645 0.0
H227 H 0.29036 0.02217 0.20612 0.0
H228 H 0.28179 0.99419 0.08477 0.0
H229 H 0.30619 0.99188 0.0167 0.0
H230 H 0.28094 0.03239 0.91262 0.0
H231 H 0.25611 0.03455 0.98139 0.0
N232 N 0.23731 0.02104 0.08409 0.0
N233 N 0.23639 0.0272 0.18196 0.0
N234 N 0.26381 0.02102 0.13849 0.0
C235 C 0.22774 0.02518 0.1318 0.0
C236 C 0.25441 0.02514 0.18572 0.0
C237 C 0.25556 0.01906 0.08769 0.0
C238 C 0.20796 0.02639 0.13282 0.0
C239 C 0.20008 0.04203 0.15478 0.0
C240 C 0.18265 0.04164 0.17679 0.0
C241 C 0.17279 0.0255 0.17833 0.0
C242 C 0.18007 0.01024 0.15151 0.0
C243 C 0.19754 0.01069 0.12894 0.0
C244 C 0.26366 0.02626 0.24108 0.0
C245 C 0.25393 0.02862 0.29165 0.0
C246 C 0.26271 0.0281 0.34404 0.0
C247 C 0.28138 0.0253 0.34679 0.0
C248 C 0.29109 0.02349 0.29607 0.0
C249 C 0.28238 0.02402 0.244 0.0
C250 C 0.26708 0.0146 0.03852 0.0
C251 C 0.28115 1.00226 0.04659 0.0
C252 C 0.4508 0.28017 0.2338 0.0
C253 C 0.45475 0.27409 0.28879 0.0
C254 C 0.45906 0.25585 0.29689 0.0
C255 C 0.46118 0.24444 0.25039 0.0
H256 H 0.45611 0.18775 0.12934 0.0
H257 H 0.46325 0.15879 0.1719 0.0
H258 H 0.51994 0.17038 0.15512 0.0
H259 H 0.51256 0.19963 0.11232 0.0
H260 H 0.45198 0.25821 0.99141 0.0
H261 H 0.45651 0.28443 0.93107 0.0
H262 H 0.51396 0.27711 0.94186 0.0
H263 H 0.50931 0.25059 0.00276 0.0
H264 H 0.45081 0.27434 0.14561 0.0
H265 H 0.44762 0.29414 0.22562 0.0
H266 H 0.46193 0.2507 0.33883 0.0
H267 H 0.46574 0.23081 0.25773 0.0
N268 N 0.47075 0.22349 0.15098 0.0
N269 N 0.48267 0.22383 0.05837 0.0
N270 N 0.46887 0.24957 0.09648 0.0
C271 C 0.47904 0.21483 0.10769 0.0
C272 C 0.47723 0.24132 0.05274 0.0
C273 C 0.46571 0.24089 0.1458 0.0
C274 C 0.48378 0.19576 0.11676 0.0
C275 C 0.47009 0.18378 0.13272 0.0
C276 C 0.47422 0.16719 0.15727 0.0
C277 C 0.49219 0.16223 0.16734 0.0
C278 C 0.50596 0.17383 0.14839 0.0
C279 C 0.50178 0.19045 0.12311 0.0
C280 C 0.48028 0.25227 1.00131 0.0
C281 C 0.46556 0.26173 0.97894 0.0
C282 C 0.46817 0.2769 0.94499 0.0
C283 C 0.48559 0.28306 0.93263 0.0
C284 C 0.50037 0.27266 0.95063 0.0
C285 C 0.49773 0.25739 0.985 0.0
C286 C 0.45905 0.25113 0.19509 0.0
C287 C 0.45287 0.26881 0.18756 0.0
Tb288 Tb 0.02047 0.99884 0.70641 0.0
Eu289 Eu 0.98764 0.01001 0.62186 0.0
C290 C 0.02777 0.00875 0.58122 0.0
C291 C 0.00784 0.03936 0.69969 0.0
C292 C 0.0524 0.9711 0.78723 0.0
C293 C 0.07613 0.94936 0.80414 0.0
C294 C 0.0707 0.96667 0.78861 0.0
C295 C 0.03955 0.95809 0.80192 0.0
C296 C 0.04496 0.94086 0.81794 0.0
C297 C 0.06331 0.93622 0.81869 0.0
C298 C 0.04682 0.98874 0.76557 0.0
O299 O 0.99601 0.98977 0.74924 0.0
O300 O 0.97721 0.01078 0.71095 0.0
O301 O 0.98594 0.97981 0.62591 0.0
O302 O 0.01458 0.97438 0.6587 0.0
C303 C 0.98085 0.99885 0.75019 0.0
O304 O 0.95894 0.01362 0.60485 0.0
O305 O 0.97857 0.02074 0.54097 0.0
O306 O 0.01169 0.00283 0.56869 0.0
O307 O 0.03155 0.01315 0.6336 0.0
O308 O 0.01418 0.02631 0.73156 0.0
O309 O 1.00022 0.03611 0.65057 0.0
C310 C 0.99937 0.96878 0.63621 0.0
O311 O 0.0473 0.99027 0.71074 0.0
O312 O 0.03213 0.99554 0.78674 0.0
C313 C 0.95457 0.04079 0.55587 0.0
C314 C 0.94063 0.07603 0.55994 0.0
C315 C 0.92902 0.06116 0.55465 0.0
C316 C 0.93596 0.04365 0.55276 0.0
C317 C 0.96612 0.05563 0.56118 0.0
C318 C 0.95926 0.07302 0.56295 0.0
C319 C 0.96197 0.02245 0.55808 0.0
H320 H 0.09034 0.94619 0.80359 0.0
H321 H 0.08077 0.97649 0.7765 0.0
H322 H 0.02531 0.96116 0.80037 0.0
H323 H 0.03473 0.9312 0.82992 0.0
H324 H 0.9146 0.06304 0.55253 0.0
H325 H 0.92681 0.03236 0.54951 0.0
H326 H 0.98054 0.05383 0.56418 0.0
H327 H 0.96864 0.08412 0.56575 0.0
Tb328 Tb 0.51301 0.01238 0.71552 0.0
Eu329 Eu 0.49954 0.98157 0.6264 0.0
C330 C 0.50321 0.02249 0.59028 0.0
C331 C 0.47138 0.00296 0.70666 0.0
C332 C 0.54423 0.04501 0.77559 0.0
C333 C 0.5654 0.06465 0.72656 0.0
C334 C 0.54795 0.0579 0.73335 0.0
C335 C 0.55812 0.03952 0.81188 0.0
C336 C 0.57553 0.04601 0.80445 0.0
C337 C 0.57937 0.05839 0.76123 0.0
C338 C 0.52662 0.03582 0.77888 0.0
O339 O 0.50543 0.98921 0.76673 0.0
O340 O 0.51228 0.96784 0.70141 0.0
O341 O 0.52798 0.98756 0.6 0.0
O342 O 0.53748 0.99941 0.68454 0.0
C343 C 0.50941 0.97252 0.75406 0.0
O344 O 0.49293 0.95339 0.61174 0.0
O345 O 0.49027 0.97252 0.54341 0.0
O346 O 0.49254 0.00846 0.58818 0.0
O347 O 0.51504 0.02413 0.63114 0.0
O348 O 0.48377 0.0149 0.71996 0.0
O349 O 0.47498 0.98838 0.67755 0.0
C350 C 0.54089 0.9932 0.63353 0.0
O351 O 0.51488 0.03955 0.7395 0.0
O352 O 0.52744 0.0186 0.78898 0.0
C353 C 0.46629 0.95225 0.55742 0.0
C354 C 0.4284 0.95297 0.55844 0.0
C355 C 0.4379 0.94593 0.60473 0.0
C356 C 0.45665 0.94555 0.60425 0.0
C357 C 0.45676 0.95774 0.50917 0.0
C358 C 0.43799 0.95816 0.50972 0.0
C359 C 0.48559 0.95675 0.56277 0.0
H360 H 0.56807 0.07432 0.6933 0.0
H361 H 0.53754 0.06242 0.70461 0.0
H362 H 0.55564 0.02971 0.84497 0.0
H363 H 0.58607 0.04128 0.83243 0.0
H364 H 0.43086 0.94149 0.6424 0.0
H365 H 0.46354 0.94106 0.64211 0.0
H366 H 0.46383 0.96295 0.47254 0.0
H367 H 0.4311 0.96377 0.47339 0.0
Tb368 Tb 0.48795 0.50587 0.73377 0.0
Eu369 Eu 0.52027 0.49522 0.64601 0.0
C370 C 0.47911 0.49489 0.60949 0.0
C371 C 0.50007 0.46567 0.72387 0.0
C372 C 0.45603 0.53611 0.80023 0.0
C373 C 0.4448 0.56349 0.75623 0.0
C374 C 0.44675 0.54483 0.75612 0.0
C375 C 0.46169 0.54622 0.84703 0.0
C376 C 0.45976 0.56489 0.84709 0.0
C377 C 0.45201 0.57377 0.8005 0.0
C378 C 0.46231 0.51737 0.79341 0.0
O379 O 0.51245 0.51352 0.77928 0.0
O380 O 0.53436 0.49852 0.72905 0.0
O381 O 0.52258 0.52522 0.65719 0.0
O382 O 0.49308 0.52965 0.68145 0.0
C383 C 0.52903 0.50753 0.77366 0.0
O384 O 0.54291 0.47794 0.62398 0.0
O385 O 0.53361 0.49792 0.56408 0.0
O386 O 0.4953 0.49986 0.59448 0.0
O387 O 0.47525 0.49201 0.66291 0.0
O388 O 0.49458 0.47843 0.75815 0.0
O389 O 0.50664 0.46944 0.67358 0.0
C390 C 0.50865 0.5359 0.66359 0.0
O391 O 0.46028 0.51044 0.74336 0.0
O392 O 0.47822 0.51381 0.81356 0.0
C393 C 0.53927 0.46866 0.53073 0.0
C394 C 0.52972 0.43649 0.47557 0.0
C395 C 0.54773 0.43981 0.49088 0.0
C396 C 0.55246 0.45578 0.51849 0.0
C397 C 0.52153 0.46577 0.51267 0.0
C398 C 0.51681 0.44991 0.48539 0.0
C399 C 0.54286 0.48317 0.57129 0.0
H400 H 0.43842 0.56994 0.72033 0.0
H401 H 0.44194 0.53743 0.71972 0.0
H402 H 0.46874 0.53985 0.88183 0.0
H403 H 0.46554 0.5724 0.88182 0.0
H404 H 0.55803 0.4298 0.48341 0.0
H405 H 0.56616 0.45765 0.53288 0.0
H406 H 0.51101 0.47528 0.52284 0.0
H407 H 0.50276 0.44775 0.47541 0.0
Tb408 Tb 0.99844 0.48459 0.74147 0.0
Eu409 Eu 0.01178 0.5149 0.65121 0.0
C410 C 0.00953 0.47363 0.61747 0.0
C411 C 0.03887 0.49469 0.73397 0.0
C412 C 0.96846 0.45052 0.7972 0.0
C413 C 0.94463 0.43966 0.73554 0.0
C414 C 0.96257 0.44459 0.74383 0.0
C415 C 0.95645 0.45031 0.84276 0.0
C416 C 0.93849 0.44563 0.83437 0.0
C417 C 0.93218 0.44086 0.78018 0.0
C418 C 0.9857 0.46006 0.80338 0.0
O419 O 0.99108 0.50986 0.78217 0.0
O420 O 0.00921 0.52952 0.73374 0.0
O421 O 0.98165 0.51795 0.65338 0.0
O422 O 0.97586 0.48918 0.68402 0.0
C423 C 0.99875 0.52569 0.77674 0.0
O424 O 0.02854 0.53851 0.63614 0.0
O425 O 0.01455 0.52617 0.56604 0.0
O426 O 0.0064 0.49005 0.60013 0.0
O427 O 0.01091 0.46993 0.67164 0.0
O428 O 0.02546 0.49199 0.76921 0.0
O429 O 0.03571 0.49881 0.68093 0.0
C430 C 0.97047 0.50445 0.66131 0.0
O431 O 0.99777 0.45724 0.76456 0.0
O432 O 0.98416 0.4771 0.81451 0.0
C433 C 0.04546 0.53262 0.55596 0.0
C434 C 0.08154 0.52262 0.5393 0.0
C435 C 0.07696 0.54082 0.54633 0.0
C436 C 0.059 0.54578 0.55512 0.0
C437 C 0.05 0.51461 0.54513 0.0
C438 C 0.06784 0.50969 0.53687 0.0
C439 C 0.02787 0.53652 0.58145 0.0
H440 H 0.94036 0.43574 0.69352 0.0
H441 H 0.97153 0.44473 0.70768 0.0
H442 H 0.96066 0.45503 0.88404 0.0
H443 H 0.92936 0.44705 0.86975 0.0
H444 H 0.08732 0.55105 0.54807 0.0
H445 H 0.05583 0.55966 0.56465 0.0
H446 H 0.03991 0.5041 0.54664 0.0
H447 H 0.07098 0.49561 0.53042 0.0
H448 H 0.16732 0.03996 0.28287 0.0
H449 H 0.14146 0.03638 0.34506 0.0
H450 H 0.11514 0.00363 0.21962 0.0
H451 H 0.14107 0.00744 0.15604 0.0
H452 H 0.09179 0.02863 0.27252 0.0
H453 H 0.13404 0.98326 0.32697 0.0
H454 H 0.16378 0.97139 0.35404 0.0
H455 H 0.16419 0.0053 0.50082 0.0
H456 H 0.13456 0.01758 0.47417 0.0
H457 H 0.02601 0.99735 0.47105 0.0
H458 H 0.04935 0.99944 0.39841 0.0
H459 H 0.08425 0.02648 0.51669 0.0
H460 H 0.06117 0.024 0.58986 0.0
H461 H 0.10255 1.00213 0.46234 0.0
H462 H 0.0615 0.04886 0.40621 0.0
H463 H 0.03209 0.06157 0.37925 0.0
H464 H 0.02958 0.02603 0.23655 0.0
H465 H 0.05888 0.01293 0.26311 0.0
C466 C 0.15593 0.03227 0.26776 0.0
C467 C 0.15627 0.02409 0.21409 0.0
C468 C 0.1412 0.03009 0.30377 0.0
C469 C 0.12643 0.01959 0.28733 0.0
C470 C 0.12642 0.01176 0.23325 0.0
C471 C 0.14128 0.01387 0.1971 0.0
C472 C 0.11136 0.0165 0.32773 0.0
C473 C 0.09405 0.02256 0.31368 0.0
C474 C 0.11437 0.00891 0.38189 0.0
C475 C 0.13214 1.00145 0.3983 0.0
C476 C 0.14053 0.98829 0.36479 0.0
C477 C 0.15736 0.98147 0.3801 0.0
C478 C 0.16588 0.98762 0.42905 0.0
C479 C 0.15757 1.00056 0.46289 0.0
C480 C 0.14075 0.00745 0.44773 0.0
C481 C 0.03862 0.00382 0.48156 0.0
C482 C 0.04168 0.01055 0.53635 0.0
C483 C 0.05196 0.00508 0.43982 0.0
C484 C 0.06856 0.01331 0.45166 0.0
C485 C 0.07159 0.02005 0.50635 0.0
C486 C 0.05834 0.01868 0.54819 0.0
C487 C 0.08296 0.01458 0.40777 0.0
C488 C 0.1002 0.00812 0.42112 0.0
C489 C 0.07987 0.02189 0.35314 0.0
C490 C 0.06229 0.02979 0.337 0.0
C491 C 0.05461 0.04366 0.36933 0.0
C492 C 0.03798 0.05095 0.35408 0.0
C493 C 0.02895 0.04458 0.30631 0.0
C494 C 0.03657 0.03093 0.2736 0.0
C495 C 0.0532 0.02358 0.2887 0.0
H496 H 0.01607 0.05024 0.29458 0.0
H497 H 0.17891 0.98232 0.44083 0.0
H498 H 0.4762 0.12894 0.16283 0.0
H499 H 0.47955 0.10408 0.22991 0.0
H500 H 0.52025 0.1339 0.31965 0.0
H501 H 0.51696 0.15884 0.25274 0.0
H502 H 0.52875 0.09845 0.31546 0.0
H503 H 0.47689 0.13355 0.3656 0.0
H504 H 0.44774 0.1484 0.34861 0.0
H505 H 0.42376 0.09741 0.30906 0.0
H506 H 0.45285 0.08229 0.32501 0.0
H507 H 0.52385 0.05287 0.57977 0.0
H508 H 0.52327 0.07521 0.50395 0.0
H509 H 0.48111 0.0456 0.42029 0.0
H510 H 0.48138 0.0233 0.49656 0.0
H511 H 0.47362 0.08035 0.41931 0.0
H512 H 0.52528 0.04497 0.37254 0.0
H513 H 0.55452 0.03018 0.38856 0.0
H514 H 0.57893 0.08139 0.42213 0.0
H515 H 0.54977 0.09648 0.40704 0.0
C516 C 0.48598 0.13016 0.19654 0.0
C517 C 0.49619 0.146 0.20255 0.0
C518 C 0.48788 0.11593 0.23495 0.0
C519 C 0.49991 0.11722 0.28062 0.0
C520 C 0.51084 0.13257 0.28492 0.0
C521 C 0.50899 0.14681 0.24638 0.0
C522 C 0.50036 0.10307 0.32551 0.0
C523 C 0.51674 0.09462 0.33858 0.0
C524 C 0.48463 0.09778 0.35511 0.0
C525 C 0.46709 0.10682 0.34593 0.0
C526 C 0.46543 0.12552 0.35288 0.0
C527 C 0.44891 0.13399 0.34349 0.0
C528 C 0.43392 0.12386 0.32762 0.0
C529 C 0.43539 0.10524 0.32126 0.0
C530 C 0.45189 0.09672 0.3305 0.0
C531 C 0.51442 0.05107 0.5453 0.0
C532 C 0.50266 0.03622 0.54438 0.0
C533 C 0.5142 0.06384 0.50167 0.0
C534 C 0.50233 0.06202 0.45578 0.0
C535 C 0.49044 0.04731 0.45506 0.0
C536 C 0.49063 0.03454 0.49875 0.0
C537 C 0.50201 0.07565 0.40927 0.0
C538 C 0.48564 0.08407 0.39603 0.0
C539 C 0.51776 0.08089 0.37962 0.0
C540 C 0.5353 0.07185 0.38904 0.0
C541 C 0.53685 0.05307 0.38376 0.0
C542 C 0.55342 0.04464 0.39256 0.0
C543 C 0.56857 0.05485 0.40621 0.0
C544 C 0.56718 0.07351 0.41136 0.0
C545 C 0.55064 0.08201 0.40267 0.0
H546 H 0.5814 0.0483 0.41277 0.0
H547 H 0.42114 0.13043 0.32037 0.0
H548 H 0.33784 0.4958 0.29339 0.0
H549 H 0.36176 0.49702 0.3638 0.0
H550 H 0.40041 0.48117 0.23715 0.0
H551 H 0.3762 0.47926 0.16679 0.0
H552 H 0.40777 0.46403 0.32876 0.0
H553 H 0.39662 0.526 0.29027 0.0
H554 H 0.37872 0.55364 0.27813 0.0
H555 H 0.3617 0.55055 0.45148 0.0
H556 H 0.37931 0.52274 0.46447 0.0
H557 H 0.48367 0.49215 0.49491 0.0
H558 H 0.46044 0.49011 0.422 0.0
H559 H 0.41934 0.49179 0.55049 0.0
H560 H 0.44255 0.49348 0.62404 0.0
H561 H 0.41431 0.51644 0.45672 0.0
H562 H 0.42617 0.45367 0.49203 0.0
H563 H 0.44611 0.42739 0.5026 0.0
H564 H 0.46413 0.43383 0.33118 0.0
H565 H 0.44444 0.46032 0.31978 0.0
C566 C 0.35148 0.49283 0.28028 0.0
C567 C 0.35515 0.48767 0.22426 0.0
C568 C 0.3652 0.49354 0.32067 0.0
C569 C 0.38308 0.48954 0.30589 0.0
C570 C 0.38679 0.48437 0.24984 0.0
C571 C 0.37296 0.48335 0.20954 0.0
C572 C 0.39772 0.49045 0.34926 0.0
C573 C 0.40932 0.47564 0.35604 0.0
C574 C 0.39975 0.50544 0.38578 0.0
C575 C 0.38916 0.52219 0.37818 0.0
C576 C 0.38896 0.53114 0.32569 0.0
C577 C 0.37888 0.54685 0.31868 0.0
C578 C 0.36904 0.55382 0.36397 0.0
C579 C 0.36931 0.54512 0.41642 0.0
C580 C 0.37935 0.5294 0.42365 0.0
C581 C 0.46971 0.49193 0.50784 0.0
C582 C 0.46499 0.49289 0.56545 0.0
C583 C 0.45644 0.49076 0.46602 0.0
C584 C 0.43816 0.49076 0.4808 0.0
C585 C 0.43338 0.49176 0.53819 0.0
C586 C 0.44666 0.49263 0.58016 0.0
C587 C 0.42407 0.49004 0.43619 0.0
C588 C 0.41267 0.50489 0.4292 0.0
C589 C 0.42243 0.47525 0.399 0.0
C590 C 0.43394 0.45907 0.40521 0.0
C591 C 0.43446 0.44955 0.45667 0.0
C592 C 0.4457 0.43461 0.46281 0.0
C593 C 0.4564 0.42897 0.41764 0.0
C594 C 0.45583 0.43822 0.36614 0.0
C595 C 0.44461 0.45319 0.35978 0.0
H596 H 0.46508 0.4174 0.42254 0.0
H597 H 0.36125 0.56599 0.35845 0.0
H598 H 0.00478 0.36488 0.19321 0.0
H599 H 0.00752 0.38962 0.26092 0.0
H600 H 0.02409 0.35213 0.39018 0.0
H601 H 0.02115 0.32733 0.32297 0.0
H602 H 0.99731 0.37413 0.42709 0.0
H603 H 0.05407 0.38109 0.33329 0.0
H604 H 0.07444 0.38471 0.25176 0.0
H605 H 0.04817 0.43413 0.20687 0.0
H606 H 0.02746 0.43067 0.28773 0.0
H607 H 0.01886 0.43846 0.63641 0.0
H608 H 0.02147 0.4143 0.56698 0.0
H609 H 0.00752 0.45137 0.43345 0.0
H610 H 0.00532 0.47571 0.50242 0.0
H611 H 0.03368 0.42939 0.39906 0.0
H612 H 0.97685 0.4226 0.49222 0.0
H613 H 0.95709 0.41969 0.57551 0.0
H614 H 0.98275 0.36998 0.62034 0.0
H615 H 0.00313 0.37289 0.53845 0.0
C616 C 0.00919 0.36193 0.2359 0.0
C617 C 0.01278 0.34411 0.25257 0.0
C618 C 0.01083 0.3761 0.27453 0.0
C619 C 0.01605 0.37277 0.33072 0.0
C620 C 0.02005 0.35505 0.34709 0.0
C621 C 0.01854 0.3409 0.30841 0.0
C622 C 0.01641 0.38758 0.37311 0.0
C623 C 0.00548 0.38609 0.42138 0.0
C624 C 0.02668 0.40342 0.36498 0.0
C625 C 0.03909 0.40552 0.31626 0.0
C626 C 0.05253 0.39265 0.30575 0.0
C627 C 0.06416 0.39469 0.25971 0.0
C628 C 0.06257 0.40962 0.22406 0.0
C629 C 0.04937 0.42256 0.23447 0.0
C630 C 0.03769 0.42057 0.28043 0.0
C631 C 0.01642 0.44152 0.59226 0.0
C632 C 0.01174 0.45904 0.57515 0.0
C633 C 0.01788 0.42765 0.55255 0.0
C634 C 0.01443 0.43091 0.49495 0.0
C635 C 0.01022 0.44848 0.47758 0.0
C636 C 0.00889 0.46239 0.5172 0.0
C637 C 0.01462 0.41591 0.45314 0.0
C638 C 0.02556 0.4174 0.40489 0.0
C639 C 0.00427 0.40009 0.46109 0.0
C640 C 0.99165 0.39805 0.50944 0.0
C641 C 0.97837 0.4111 0.52001 0.0
C642 C 0.96705 0.40946 0.56698 0.0
C643 C 0.96864 0.39466 0.60311 0.0
C644 C 0.98155 0.38145 0.59233 0.0
C645 C 0.99302 0.38311 0.54571 0.0
H646 H 0.95986 0.39342 0.63944 0.0
H647 H 0.0716 0.41118 0.18846 0.0
H648 H 0.86451 0.98299 0.1669 0.0
H649 H 0.89238 0.98069 0.11153 0.0
H650 H 0.86256 0.99181 0.95882 0.0
H651 H 0.83491 0.99376 0.01335 0.0
H652 H 0.88528 0.96661 0.93755 0.0
H653 H 0.8889 0.02421 0.0319 0.0
H654 H 0.88965 0.04443 0.11445 0.0
H655 H 0.93641 0.01713 0.1777 0.0
H656 H 0.93579 0.9966 0.09579 0.0
H657 H 0.94536 0.00767 0.74755 0.0
H658 H 0.92258 1.00241 0.81989 0.0
H659 H 0.96229 0.97754 0.92731 0.0
H660 H 0.98536 0.9825 0.85408 0.0
H661 H 0.93802 0.00508 0.98077 0.0
H662 H 0.93603 0.95037 0.87448 0.0
H663 H 0.93498 0.93219 0.78746 0.0
H664 H 0.8844 0.95613 0.74273 0.0
H665 H 0.88528 0.97468 0.82905 0.0
C666 C 0.86394 0.98486 0.12149 0.0
C667 C 0.84743 0.98839 0.09457 0.0
C668 C 0.87989 0.9836 0.08984 0.0
C669 C 0.87968 0.9862 0.0308 0.0
C670 C 0.86316 0.98958 0.0041 0.0
C671 C 0.84728 0.99065 0.03545 0.0
C672 C 0.89649 0.98576 0.99614 0.0
C673 C 0.89676 0.97508 0.94713 0.0
C674 C 0.91178 0.99641 0.009 0.0
C675 C 0.91216 0.00873 0.05816 0.0
C676 C 0.89926 0.02243 0.06365 0.0
C677 C 0.89967 0.03396 0.11027 0.0
C678 C 0.91303 0.03202 0.1514 0.0
C679 C 0.92604 0.01859 0.14589 0.0
C680 C 0.92567 0.007 0.09938 0.0
C681 C 0.94935 1.00109 0.7865 0.0
C682 C 0.96722 0.9955 0.79498 0.0
C683 C 0.93626 0.99806 0.82779 0.0
C684 C 0.94072 0.98955 0.87888 0.0
C685 C 0.95858 0.98414 0.88811 0.0
C686 C 0.97171 0.98691 0.84619 0.0
C687 C 0.92645 0.98636 0.92183 0.0
C688 C 0.92666 0.99635 0.9721 0.0
C689 C 0.91147 0.97528 0.90984 0.0
C690 C 0.91079 0.96401 0.8581 0.0
C691 C 0.92475 0.95187 0.84588 0.0
C692 C 0.92417 0.94147 0.79671 0.0
C693 C 0.90964 0.94302 0.75954 0.0
C694 C 0.89564 0.95494 0.77155 0.0
C695 C 0.89617 0.96539 0.82064 0.0
H696 H 0.90922 0.93496 0.72149 0.0
H697 H 0.91334 0.04097 0.18745 0.0
H698 H 0.49306 0.83549 0.0797 0.0
H699 H 0.49181 0.86134 0.01535 0.0
H700 H 0.53354 0.8876 0.11088 0.0
H701 H 0.53519 0.86152 0.17491 0.0
H702 H 0.493 0.90655 0.05977 0.0
H703 H 0.55372 0.87998 0.02423 0.0
H704 H 0.5727 0.85328 0.00784 0.0
H705 H 0.53911 0.83781 0.86839 0.0
H706 H 0.51976 0.86429 0.88469 0.0
H707 H 0.51317 0.97771 0.86821 0.0
H708 H 0.51437 0.95485 0.94265 0.0
H709 H 0.50784 0.91324 0.81727 0.0
H710 H 0.50746 0.936 0.74263 0.0
H711 H 0.5309 0.90214 0.8875 0.0
H712 H 0.47271 0.92839 0.90955 0.0
H713 H 0.45056 0.95272 0.92229 0.0
H714 H 0.47466 0.96655 0.08143 0.0
H715 H 0.49712 0.94246 0.06926 0.0
C716 C 0.50174 0.84691 0.08772 0.0
C717 C 0.51419 0.8465 0.13252 0.0
C718 C 0.50104 0.86162 0.05077 0.0
C719 C 0.51261 0.87632 0.05832 0.0
C720 C 0.52453 0.87634 0.10435 0.0
C721 C 0.52547 0.86146 0.1408 0.0
C722 C 0.51295 0.89103 0.01579 0.0
C723 C 0.5015 0.90584 0.02253 0.0
C724 C 0.52348 0.88967 0.9663 0.0
C725 C 0.53521 0.87394 0.95611 0.0
C726 C 0.55029 0.87077 0.99047 0.0
C727 C 0.56113 0.85571 0.98112 0.0
C728 C 0.55708 0.84382 0.93722 0.0
C729 C 0.54221 0.84701 0.90246 0.0
C730 C 0.53131 0.86203 0.91173 0.0
C731 C 0.512 0.96368 0.85653 0.0
C732 C 0.5102 0.95869 0.79945 0.0
C733 C 0.51257 0.95059 0.89924 0.0
C734 C 0.51089 0.93222 0.88602 0.0
C735 C 0.50919 0.92726 0.82888 0.0
C736 C 0.50894 0.94031 0.78612 0.0
C737 C 0.5111 0.91814 0.93134 0.0
C738 C 0.52252 0.90321 0.92493 0.0
C739 C 0.50024 0.91929 0.98064 0.0
C740 C 0.48671 0.93375 0.9882 0.0
C741 C 0.47337 0.93671 0.94706 0.0
C742 C 0.46074 0.95044 0.95421 0.0
C743 C 0.46123 0.96121 0.00256 0.0
C744 C 0.47432 0.95822 0.04395 0.0
C745 C 0.48699 0.94452 0.03697 0.0
H746 H 0.45145 0.97183 0.00802 0.0
H747 H 0.56549 0.83217 0.93003 0.0
H748 H 0.67325 0.53055 0.04178 0.0
H749 H 0.64559 0.52928 0.98722 0.0
H750 H 0.61531 0.51971 0.14005 0.0
H751 H 0.64334 0.52064 0.19533 0.0
H752 H 0.60306 0.49874 0.05937 0.0
H753 H 0.61406 0.56126 0.07079 0.0
H754 H 0.63135 0.58952 0.06642 0.0
H755 H 0.6406 0.58159 0.88892 0.0
H756 H 0.62359 0.55313 0.89234 0.0
H757 H 0.52312 0.51403 0.88659 0.0
H758 H 0.54585 0.51888 0.96066 0.0
H759 H 0.58789 0.51479 0.83578 0.0
H760 H 0.56543 0.50953 0.76215 0.0
H761 H 0.59039 0.54538 0.91429 0.0
H762 H 0.58157 0.48043 0.91066 0.0
H763 H 0.56306 0.453 0.91813 0.0
H764 H 0.54768 0.46757 0.08704 0.0
H765 H 0.5659 0.49525 0.0802 0.0
C766 C 0.6607 0.52846 0.06412 0.0
C767 C 0.6605 0.52605 0.12317 0.0
C768 C 0.64483 0.52773 0.03274 0.0
C769 C 0.62821 0.52485 0.05946 0.0
C770 C 0.62792 0.52211 0.1184 0.0
C771 C 0.64394 0.52266 0.14998 0.0
C772 C 0.61139 0.5243 0.02491 0.0
C773 C 0.60011 0.50916 0.02856 0.0
C774 C 0.60741 0.53783 0.98437 0.0
C775 C 0.61763 0.55498 0.98193 0.0
C776 C 0.61988 0.56547 0.03089 0.0
C777 C 0.62962 0.58154 0.02857 0.0
C778 C 0.6371 0.58733 0.97745 0.0
C779 C 0.63481 0.57708 0.92849 0.0
C780 C 0.62509 0.56099 0.93058 0.0
C781 C 0.53721 0.51424 0.87497 0.0
C782 C 0.54247 0.51134 0.81852 0.0
C783 C 0.55016 0.51696 0.91731 0.0
C784 C 0.56855 0.51715 0.90367 0.0
C785 C 0.57377 0.51469 0.8472 0.0
C786 C 0.56091 0.51162 0.80521 0.0
C787 C 0.58254 0.51967 0.94788 0.0
C788 C 0.59324 0.53518 0.94592 0.0
C789 C 0.58576 0.50667 0.99049 0.0
C790 C 0.5749 0.49001 0.99464 0.0
C791 C 0.5741 0.47788 0.94917 0.0
C792 C 0.56369 0.46227 0.95334 0.0
C793 C 0.55415 0.45858 0.00296 0.0
C794 C 0.55504 0.47046 0.04858 0.0
C795 C 0.56541 0.48611 0.04459 0.0
H796 H 0.5461 0.44648 0.00611 0.0
H797 H 0.64463 0.59977 0.97574 0.0
H798 H 0.01638 0.66104 0.08335 0.0
H799 H 0.01138 0.63604 0.01895 0.0
H800 H 0.9689 0.61618 0.12645 0.0
H801 H 0.974 0.64139 0.19213 0.0
H802 H 0.99312 0.58905 0.08954 0.0
H803 H 0.9571 0.63512 0.00745 0.0
H804 H 0.95006 0.6656 0.97276 0.0
H805 H 0.99192 0.66141 0.84835 0.0
H806 H 0.9994 0.631 0.88285 0.0
H807 H 0.9763 0.52437 0.86938 0.0
H808 H 0.97173 0.54767 0.94112 0.0
H809 H 0.00988 0.58188 0.85523 0.0
H810 H 0.01423 0.55896 0.78315 0.0
H811 H 0.98165 0.60085 0.88604 0.0
H812 H 0.02053 0.55719 0.97701 0.0
H813 H 0.02857 0.52701 0.01227 0.0
H814 H 0.98203 0.52688 0.11985 0.0
H815 H 0.97359 0.55699 0.08465 0.0
C816 C 0.00604 0.65131 0.09371 0.0
C817 C 0.9957 0.65312 0.14321 0.0
C818 C 0.0031 0.63709 0.05651 0.0
C819 C 0.98968 0.6243 0.06758 0.0
C820 C 0.9793 0.62593 0.11704 0.0
C821 C 0.98216 0.64036 0.15433 0.0
C822 C 0.98692 0.60924 0.02713 0.0
C823 C 0.9902 0.59155 0.04526 0.0
C824 C 0.98339 0.61253 0.96918 0.0
C825 C 0.97888 0.6308 0.94799 0.0
C826 C 0.96489 0.64074 0.97296 0.0
C827 C 0.96081 0.658 0.95328 0.0
C828 C 0.97055 0.66545 0.90843 0.0
C829 C 0.98438 0.65563 0.88309 0.0
C830 C 0.98853 0.63836 0.90264 0.0
C831 C 0.98369 0.53687 0.86571 0.0
C832 C 0.99566 0.53973 0.8204 0.0
C833 C 0.98111 0.55016 0.90693 0.0
C834 C 0.99057 0.56652 0.90398 0.0
C835 C 1.00237 0.56942 0.85848 0.0
C836 C 0.00489 0.55623 0.81726 0.0
C837 C 0.98845 0.58069 0.948 0.0
C838 C 0.98424 0.59825 0.93048 0.0
C839 C 0.9912 0.57727 0.00639 0.0
C840 C 0.99632 0.55923 0.02771 0.0
C841 C 0.01194 0.55066 0.00786 0.0
C842 C 0.01658 0.53358 0.02789 0.0
C843 C 0.00579 0.525 0.06814 0.0
C844 C 0.99036 0.53352 0.08858 0.0
C845 C 0.98564 0.55059 0.06864 0.0
H846 H 0.00941 0.51178 0.08359 0.0
H847 H 0.96737 0.67881 0.89326 0.0
H848 H 0.94479 0.23762 0.40553 0.0
H849 H 0.93923 0.21585 0.48066 0.0
H850 H 0.90228 0.18734 0.37259 0.0
H851 H 0.90708 0.20958 0.29794 0.0
H852 H 0.89383 0.18284 0.48627 0.0
H853 H 0.94603 0.17868 0.36244 0.0
H854 H 0.97384 0.19036 0.31891 0.0
H855 H 0.99746 0.19673 0.48345 0.0
H856 H 0.96963 0.18536 0.52797 0.0
H857 H 0.91363 0.08997 0.49444 0.0
H858 H 0.90634 0.12166 0.48073 0.0
H859 H 0.94503 0.13628 0.60856 0.0
H860 H 0.95221 0.10457 0.62319 0.0
H861 H 0.95228 0.15138 0.50767 0.0
H862 H 0.90182 0.14716 0.62805 0.0
H863 H 0.87399 0.13439 0.66804 0.0
H864 H 0.84702 0.14224 0.5093 0.0
H865 H 0.87478 0.1548 0.46799 0.0
C866 C 0.93482 0.22724 0.39847 0.0
C867 C 0.92671 0.22507 0.34512 0.0
C868 C 0.93173 0.21473 0.44153 0.0
C869 C 0.92073 0.19974 0.43158 0.0
C870 C 0.91095 0.19874 0.38095 0.0
C871 C 0.91389 0.21134 0.33805 0.0
C872 C 0.92217 0.18356 0.46791 0.0
C873 C 0.90657 0.17593 0.4913 0.0
C874 C 0.9389 0.17477 0.47524 0.0
C875 C 0.95569 0.18141 0.44852 0.0
C876 C 0.95711 0.1827 0.38932 0.0
C877 C 0.97287 0.18925 0.36448 0.0
C878 C 0.98739 0.19434 0.39841 0.0
C879 C 0.98619 0.19283 0.45724 0.0
C880 C 0.97042 0.18635 0.4823 0.0
C881 C 0.92013 0.09985 0.5211 0.0
C882 C 0.9337 0.09476 0.55932 0.0
C883 C 0.91592 0.11799 0.51328 0.0
C884 C 0.92515 0.13133 0.54362 0.0
C885 C 0.93777 0.1262 0.58465 0.0
C886 C 0.94194 0.10808 0.59263 0.0
C887 C 0.92387 0.15035 0.52543 0.0
C888 C 0.93956 0.15848 0.50471 0.0
C889 C 0.90722 0.1594 0.5203 0.0
C890 C 0.89045 0.15184 0.5448 0.0
C891 C 0.89001 0.14603 0.60148 0.0
C892 C 0.87423 0.13885 0.62443 0.0
C893 C 0.85876 0.13748 0.59122 0.0
C894 C 0.85902 0.14331 0.53499 0.0
C895 C 0.87477 0.15049 0.5118 0.0
H896 H 0.84655 0.13192 0.60907 0.0
H897 H 0.99959 0.1994 0.3791 0.0
H898 H 0.31452 0.03768 0.37722 0.0
H899 H 0.33332 0.02581 0.45226 0.0
H900 H 0.28811 0.9961 0.51905 0.0
H901 H 0.26953 0.00683 0.44062 0.0
H902 H 0.33844 0.02235 0.55695 0.0
H903 H 0.30222 0.95545 0.56108 0.0
H904 H 0.27971 0.93803 0.50724 0.0
H905 H 0.29743 0.96293 0.35284 0.0
H906 H 0.32013 0.98034 0.40579 0.0
H907 H 0.41029 0.96669 0.64944 0.0
H908 H 0.37952 0.97802 0.65127 0.0
H909 H 0.37202 0.96047 0.47898 0.0
H910 H 0.4025 0.94854 0.47757 0.0
H911 H 0.34216 0.95621 0.53342 0.0
H912 H 0.38761 0.00285 0.51901 0.0
H913 H 0.41249 0.02247 0.54954 0.0
H914 H 0.38095 0.04056 0.69061 0.0
H915 H 0.35608 0.02077 0.66163 0.0
C916 C 0.30849 0.02877 0.40819 0.0
C917 C 0.29076 0.02263 0.4016 0.0
C918 C 0.31921 0.02216 0.45178 0.0
C919 C 0.31231 0.00954 0.4904 0.0
C920 C 0.29388 0.0054 0.48875 0.0
C921 C 0.28321 0.0117 0.44413 0.0
C922 C 0.32521 0.99877 0.52455 0.0
C923 C 0.33907 0.00782 0.55304 0.0
C924 C 0.32608 0.9798 0.5196 0.0
C925 C 0.31263 0.96932 0.48741 0.0
C926 C 0.30129 0.95716 0.51564 0.0
C927 C 0.28852 0.9473 0.4853 0.0
C928 C 0.28709 0.94943 0.42669 0.0
C929 C 0.29851 0.96134 0.39824 0.0
C930 C 0.31133 0.97119 0.42836 0.0
C931 C 0.40189 0.96472 0.61254 0.0
C932 C 0.4089 0.9569 0.56301 0.0
C933 C 0.38431 0.97133 0.61362 0.0
C934 C 0.3735 0.97034 0.56512 0.0
C935 C 0.38009 0.96142 0.51702 0.0
C936 C 0.39759 0.95476 0.51599 0.0
C937 C 0.3561 0.98 0.56118 0.0
C938 C 0.34123 0.97064 0.53966 0.0
C939 C 0.35478 0.99882 0.56971 0.0
C940 C 0.37015 0.00996 0.58896 0.0
C941 C 0.38612 0.01075 0.55716 0.0
C942 C 0.40019 0.02198 0.57401 0.0
C943 C 0.39834 0.03274 0.62202 0.0
C944 C 0.38245 0.03218 0.65356 0.0
C945 C 0.36838 0.02089 0.63708 0.0
H946 H 0.40923 0.04151 0.63468 0.0
H947 H 0.27717 0.94181 0.40331 0.0
H948 H 0.43497 0.30432 0.3124 0.0
H949 H 0.44661 0.33108 0.35978 0.0
H950 H 0.493 0.30119 0.41542 0.0
H951 H 0.48194 0.27463 0.36647 0.0
H952 H 0.47934 0.33182 0.49104 0.0
H953 H 0.49922 0.31647 0.29973 0.0
H954 H 0.49256 0.30724 0.20178 0.0
H955 H 0.46031 0.35455 0.17819 0.0
H956 H 0.46645 0.36383 0.27657 0.0
H957 H 0.5415 0.40335 0.51059 0.0
H958 H 0.52851 0.37412 0.48767 0.0
H959 H 0.49063 0.39987 0.37542 0.0
H960 H 0.50427 0.42894 0.39522 0.0
H961 H 0.49984 0.3703 0.33157 0.0
H962 H 0.48183 0.38777 0.51843 0.0
H963 H 0.48546 0.39635 0.61832 0.0
H964 H 0.51107 0.34582 0.65364 0.0
H965 H 0.50824 0.33719 0.55331 0.0
C966 C 0.44736 0.30327 0.33622 0.0
C967 C 0.45778 0.2875 0.33419 0.0
C968 C 0.45391 0.31853 0.36357 0.0
C969 C 0.47079 0.31808 0.38995 0.0
C970 C 0.47995 0.30172 0.3951 0.0
C971 C 0.47353 0.28651 0.36713 0.0
C972 C 0.48047 0.33502 0.40081 0.0
C973 C 0.48401 0.34024 0.45648 0.0
C974 C 0.48627 0.34595 0.35534 0.0
C975 C 0.48314 0.34074 0.2956 0.0
C976 C 0.49061 0.32484 0.27376 0.0
C977 C 0.48693 0.3196 0.21819 0.0
C978 C 0.47599 0.33028 0.18382 0.0
C979 C 0.46876 0.34627 0.2049 0.0
C980 C 0.47233 0.35153 0.26056 0.0
C981 C 0.53075 0.40276 0.47977 0.0
C982 C 0.52381 0.41855 0.45522 0.0
C983 C 0.52312 0.38605 0.46747 0.0
C984 C 0.50819 0.38485 0.43129 0.0
C985 C 0.50196 0.40046 0.40417 0.0
C986 C 0.50972 0.41711 0.41579 0.0
C987 C 0.49871 0.36752 0.42243 0.0
C988 C 0.49525 0.36206 0.36667 0.0
C989 C 0.49286 0.35652 0.46808 0.0
C990 C 0.49497 0.36191 0.52815 0.0
C991 C 0.48844 0.37857 0.54729 0.0
C992 C 0.49033 0.38342 0.60406 0.0
C993 C 0.49839 0.37157 0.64236 0.0
C994 C 0.50481 0.35495 0.62387 0.0
C995 C 0.50313 0.35011 0.56702 0.0
H996 H 0.49964 0.3752 0.68637 0.0
H997 H 0.47314 0.3262 0.14082 0.0
H998 H 0.22527 0.43717 0.38674 0.0
H999 H 0.20449 0.44857 0.45997 0.0
H1000 H 0.18617 0.48962 0.34437 0.0
H1001 H 0.20633 0.47816 0.27162 0.0
H1002 H 0.19488 0.50164 0.4602 0.0
H1003 H 0.16175 0.45527 0.35214 0.0
H1004 H 0.15761 0.42407 0.31935 0.0
H1005 H 0.15753 0.40541 0.49144 0.0
H1006 H 0.16191 0.43653 0.52514 0.0
H1007 H 0.1085 0.53656 0.4741 0.0
H1008 H 0.13854 0.52404 0.46036 0.0
H1009 H 0.12748 0.48323 0.58594 0.0
H1010 H 0.09721 0.49539 0.59812 0.0
H1011 H 0.1385 0.46788 0.49656 0.0
H1012 H 0.16361 0.51441 0.60638 0.0
H1013 H 0.16799 0.54515 0.64291 0.0
H1014 H 0.18443 0.56299 0.47789 0.0
H1015 H 0.17995 0.53239 0.44033 0.0
C1016 C 0.21669 0.44855 0.37732 0.0
C1017 C 0.21705 0.45662 0.32355 0.0
C1018 C 0.20499 0.45509 0.41899 0.0
C1019 C 0.19398 0.46999 0.40738 0.0
C1020 C 0.19468 0.4782 0.3541 0.0
C1021 C 0.20601 0.47151 0.31246 0.0
C1022 C 0.18071 0.47668 0.44856 0.0
C1023 C 0.18259 0.49428 0.4689 0.0
C1024 C 0.16506 0.46676 0.46139 0.0
C1025 C 0.16241 0.44813 0.44107 0.0
C1026 C 0.16102 0.44448 0.38292 0.0
C1027 C 0.15859 0.42683 0.36418 0.0
C1028 C 0.15737 0.41275 0.40328 0.0
C1029 C 0.15853 0.41632 0.4612 0.0
C1030 C 0.16098 0.43395 0.48014 0.0
C1031 C 0.11265 0.52516 0.49953 0.0
C1032 C 0.10051 0.51677 0.53654 0.0
C1033 C 0.12988 0.51808 0.49212 0.0
C1034 C 0.13537 0.50273 0.52247 0.0
C1035 C 0.12356 0.49502 0.56193 0.0
C1036 C 0.10627 0.50193 0.56871 0.0
C1037 C 0.1522 0.49332 0.50652 0.0
C1038 C 0.151 0.47516 0.49051 0.0
C1039 C 0.16858 0.50266 0.49853 0.0
C1040 C 0.17131 0.52113 0.52055 0.0
C1041 C 0.16803 0.52493 0.57785 0.0
C1042 C 0.17058 0.54231 0.59875 0.0
C1043 C 0.17645 0.55603 0.56271 0.0
C1044 C 0.17987 0.55236 0.50575 0.0
C1045 C 0.17737 0.53498 0.48468 0.0
H1046 H 0.17839 0.56949 0.57894 0.0
H1047 H 0.15548 0.3991 0.3887 0.0
H1048 H 0.04716 0.78194 1.00157 0.0
H1049 H 0.05563 0.80652 0.93874 0.0
H1050 H 0.10155 0.81808 0.04432 0.0
H1051 H 0.09277 0.79366 0.10833 0.0
H1052 H 0.08139 0.8462 0.0349 0.0
H1053 H 0.10546 0.80476 0.90077 0.0
H1054 H 0.10597 0.77795 0.83962 0.0
H1055 H 0.06029 0.79786 0.74775 0.0
H1056 H 0.05931 0.82465 0.80884 0.0
H1057 H 0.09255 0.92628 0.88221 0.0
H1058 H 0.1002 0.8962 0.91588 0.0
H1059 H 0.05405 0.87452 0.82887 0.0
H1060 H 0.04695 0.90433 0.79208 0.0
H1061 H 0.08075 0.85109 0.82564 0.0
H1062 H 0.05205 0.88728 0.9693 0.0
H1063 H 0.04876 0.91368 0.03145 0.0
H1064 H 0.10024 0.90268 0.10614 0.0
H1065 H 0.10393 0.87633 0.04386 0.0
C1066 C 0.05942 0.7893 0.01028 0.0
C1067 C 0.06925 0.78602 0.05999 0.0
C1068 C 0.06431 0.80333 0.97415 0.0
C1069 C 0.07928 0.81414 0.98661 0.0
C1070 C 0.08993 0.80993 0.03391 0.0
C1071 C 0.08491 0.79603 0.07046 0.0
C1072 C 0.08185 0.83146 0.95641 0.0
C1073 C 0.08181 0.84719 0.9891 0.0
C1074 C 0.08172 0.83283 0.89663 0.0
C1075 C 0.08228 0.8167 0.85969 0.0
C1076 C 0.09544 0.80337 0.86782 0.0
C1077 C 0.09582 0.78818 0.83309 0.0
C1078 C 0.08316 0.78619 0.78988 0.0
C1079 C 0.0701 0.79941 0.78123 0.0
C1080 C 0.06964 0.81462 0.81586 0.0
C1081 C 0.08428 0.91506 0.86901 0.0
C1082 C 0.06894 0.91779 0.83525 0.0
C1083 C 0.0886 0.89788 0.88867 0.0
C1084 C 0.07748 0.88319 0.87586 0.0
C1085 C 0.06276 0.88568 0.83958 0.0
C1086 C 0.05857 0.9028 0.81931 0.0
C1087 C 0.08004 0.8656 0.90431 0.0
C1088 C 0.0809 0.84994 0.8714 0.0
C1089 C 0.08057 0.86419 0.96398 0.0
C1090 C 0.07837 0.88 1.00146 0.0
C1091 C 0.06273 0.89059 0.99869 0.0
C1092 C 0.06078 0.90552 0.03397 0.0
C1093 C 0.07431 0.9099 0.07258 0.0
C1094 C 0.0898 0.89931 0.07611 0.0
C1095 C 0.09182 0.88437 0.04084 0.0
H1096 H 0.07278 0.92146 0.09988 0.0
H1097 H 0.08348 0.77442 0.76306 0.0
H1098 H 0.72683 0.09463 0.97844 0.0
H1099 H 0.7048 0.10348 0.90639 0.0
H1100 H 0.70391 0.04902 0.84359 0.0
H1101 H 0.72634 0.04039 0.91366 0.0
H1102 H 0.69661 0.07121 0.75956 0.0
H1103 H 0.67619 0.06327 0.95416 0.0
H1104 H 0.67604 0.07027 0.05615 0.0
H1105 H 0.66191 0.12504 0.01924 0.0
H1106 H 0.66224 0.11839 0.9169 0.0
H1107 H 0.60904 0.0378 0.7464 0.0
H1108 H 0.64034 0.04744 0.75368 0.0
H1109 H 0.62312 0.10266 0.76761 0.0
H1110 H 0.59163 0.09297 0.75983 0.0
H1111 H 0.64136 0.09046 0.8601 0.0
H1112 H 0.65196 0.09263 0.66336 0.0
H1113 H 0.65148 0.08314 0.56354 0.0
H1114 H 0.68216 0.03609 0.60548 0.0
H1115 H 0.68272 0.0452 0.70573 0.0
C1116 C 0.72229 0.08474 0.94806 0.0
C1117 C 0.72807 0.0668 0.95193 0.0
C1118 C 0.70973 0.08978 0.90695 0.0
C1119 C 0.70237 0.07681 0.87047 0.0
C1120 C 0.70936 0.05928 0.8712 0.0
C1121 C 0.72215 0.05433 0.91146 0.0
C1122 C 0.68554 0.08037 0.83862 0.0
C1123 C 0.68452 0.07553 0.78126 0.0
C1124 C 0.66983 0.08644 0.8666 0.0
C1125 C 0.66949 0.09041 0.92801 0.0
C1126 C 0.67316 0.07683 0.96785 0.0
C1127 C 0.67304 0.08072 0.02567 0.0
C1128 C 0.66903 0.0981 0.04415 0.0
C1129 C 0.66507 0.1116 0.00484 0.0
C1130 C 0.66524 0.10778 0.94694 0.0
C1131 C 0.612 0.05203 0.7495 0.0
C1132 C 0.59804 0.06466 0.75348 0.0
C1133 C 0.62987 0.05756 0.75295 0.0
C1134 C 0.63406 0.07578 0.76102 0.0
C1135 C 0.62015 0.08856 0.76091 0.0
C1136 C 0.60222 0.08304 0.75662 0.0
C1137 C 0.65222 0.08059 0.78159 0.0
C1138 C 0.65351 0.08689 0.8373 0.0
C1139 C 0.66799 0.07546 0.75234 0.0
C1140 C 0.66741 0.06965 0.69222 0.0
C1141 C 0.65853 0.08021 0.65144 0.0
C1142 C 0.65831 0.07493 0.59469 0.0
C1143 C 0.6669 0.05909 0.57813 0.0
C1144 C 0.67562 0.04842 0.61834 0.0
C1145 C 0.67594 0.05367 0.67513 0.0
H1146 H 0.66674 0.05505 0.53417 0.0
H1147 H 0.66893 0.1011 0.08894 0.0
H1148 H 0.53363 0.68781 0.96625 0.0
H1149 H 0.52075 0.66954 0.89144 0.0
H1150 H 0.48809 0.71441 0.83764 0.0
H1151 H 0.50015 0.73245 0.91496 0.0
H1152 H 0.46753 0.68861 0.8557 0.0
H1153 H 0.51969 0.69344 0.7512 0.0
H1154 H 0.55143 0.69431 0.72229 0.0
H1155 H 0.55696 0.63825 0.76211 0.0
H1156 H 0.52535 0.63701 0.79219 0.0
H1157 H 0.46124 0.59299 0.70631 0.0
H1158 H 0.46941 0.62467 0.70155 0.0
H1159 H 0.45629 0.63066 0.87825 0.0
H1160 H 0.44723 0.59922 0.88267 0.0
H1161 H 0.4963 0.63855 0.7516 0.0
H1162 H 0.44651 0.67167 0.91523 0.0
H1163 H 0.41397 0.67144 0.93465 0.0
H1164 H 0.4035 0.65375 0.76505 0.0
H1165 H 0.43595 0.6541 0.74425 0.0
C1166 C 0.52393 0.6939 0.93791 0.0
C1167 C 0.51762 0.71144 0.94745 0.0
C1168 C 0.51675 0.68351 0.89438 0.0
C1169 C 0.50337 0.69055 0.8587 0.0
C1170 C 0.49833 0.70865 0.86472 0.0
C1171 C 0.50536 0.719 0.90879 0.0
C1172 C 0.49253 0.6781 0.8234 0.0
C1173 C 0.47384 0.67781 0.83225 0.0
C1174 C 0.50057 0.66443 0.79031 0.0
C1175 C 0.51991 0.66512 0.77369 0.0
C1176 C 0.52763 0.68128 0.75415 0.0
C1177 C 0.54565 0.68184 0.73748 0.0
C1178 C 0.5562 0.66634 0.74021 0.0
C1179 C 0.54875 0.65024 0.75978 0.0
C1180 C 0.53073 0.6496 0.77649 0.0
C1181 C 0.4594 0.60122 0.7436 0.0
C1182 C 0.45364 0.59357 0.79504 0.0
C1183 C 0.46425 0.61933 0.74083 0.0
C1184 C 0.46344 0.63013 0.78929 0.0
C1185 C 0.45673 0.62274 0.83986 0.0
C1186 C 0.45176 0.60468 0.84261 0.0
C1187 C 0.47193 0.64818 0.79012 0.0
C1188 C 0.49006 0.6496 0.77404 0.0
C1189 C 0.46338 0.66302 0.81584 0.0
C1190 C 0.44375 0.66298 0.82806 0.0
C1191 C 0.43729 0.66791 0.8818 0.0
C1192 C 0.41884 0.6677 0.89315 0.0
C1193 C 0.40668 0.6626 0.85111 0.0
C1194 C 0.41294 0.6577 0.79761 0.0
C1195 C 0.43137 0.65789 0.78602 0.0
H1196 H 0.3924 0.66243 0.86 0.0
H1197 H 0.57015 0.6668 0.72725 0.0
H1198 H 0.81673 0.50964 0.9506 0.0
H1199 H 0.83421 0.49762 0.87266 0.0
H1200 H 0.78958 0.46377 0.82459 0.0
H1201 H 0.77221 0.47532 0.90479 0.0
H1202 H 0.81678 0.44407 0.83189 0.0
H1203 H 0.80768 0.49545 0.727 0.0
H1204 H 0.80347 0.52732 0.70144 0.0
H1205 H 0.85791 0.53878 0.74979 0.0
H1206 H 0.86244 0.50704 0.77621 0.0
H1207 H 0.91344 0.4518 0.68586 0.0
H1208 H 0.88113 0.45617 0.67812 0.0
H1209 H 0.87414 0.4334 0.84484 0.0
H1210 H 0.90604 0.42744 0.85055 0.0
H1211 H 0.86379 0.47805 0.72837 0.0
H1212 H 0.83492 0.42213 0.88283 0.0
H1213 H 0.83693 0.38923 0.89293 0.0
H1214 H 0.85395 0.38467 0.72 0.0
H1215 H 0.85177 0.41753 0.70841 0.0
C1216 C 0.81053 0.49983 0.92296 0.0
C1217 C 0.79323 0.49319 0.93439 0.0
C1218 C 0.82044 0.49315 0.87764 0.0
C1219 C 0.81321 0.47985 0.84214 0.0
C1220 C 0.79545 0.47405 0.85121 0.0
C1221 C 0.78551 0.48071 0.89692 0.0
C1222 C 0.82538 0.47017 0.80272 0.0
C1223 C 0.82691 0.45142 0.80834 0.0
C1224 C 0.83795 0.47952 0.76869 0.0
C1225 C 0.83538 0.49878 0.75364 0.0
C1226 C 0.81873 0.50477 0.73255 0.0
C1227 C 0.8163 0.52282 0.71781 0.0
C1228 C 0.83041 0.53506 0.72404 0.0
C1229 C 0.847 0.52927 0.74496 0.0
C1230 C 0.84953 0.51122 0.7596 0.0
C1231 C 0.90497 0.44691 0.7198 0.0
C1232 C 0.91248 0.4396 0.7695 0.0
C1233 C 0.88641 0.44958 0.71541 0.0
C1234 C 0.87499 0.44518 0.76071 0.0
C1235 C 0.88238 0.43661 0.80844 0.0
C1236 C 0.90082 0.43355 0.81229 0.0
C1237 C 0.85626 0.45225 0.76318 0.0
C1238 C 0.85341 0.47049 0.7501 0.0
C1239 C 0.84208 0.44224 0.78802 0.0
C1240 C 0.84315 0.42238 0.79471 0.0
C1241 C 0.8389 0.41413 0.84669 0.0
C1242 C 0.84013 0.39547 0.85276 0.0
C1243 C 0.84556 0.38486 0.80715 0.0
C1244 C 0.84977 0.3929 0.75533 0.0
C1245 C 0.84856 0.41156 0.74901 0.0
H1246 H 0.84652 0.37042 0.81196 0.0
H1247 H 0.8285 0.54903 0.7126 0.0
H1248 H 0.0218 0.18511 0.98917 0.0
H1249 H 0.02483 0.15682 0.93747 0.0
H1250 H 0.98977 0.17718 0.80675 0.0
H1251 H 0.98638 0.20532 0.85916 0.0
H1252 H 0.97952 0.14525 0.83263 0.0
H1253 H 0.03671 0.17056 0.7875 0.0
H1254 H 0.06609 0.1848 0.80578 0.0
H1255 H 0.0822 0.13924 0.9055 0.0
H1256 H 0.05282 0.12483 0.88845 0.0
H1257 H 0.99359 0.06985 0.65129 0.0
H1258 H 0.99384 0.10047 0.68884 0.0
H1259 H 0.02408 0.08229 0.8337 0.0
H1260 H 0.02404 0.0517 0.7963 0.0
H1261 H 0.03706 0.11388 0.79441 0.0
H1262 H 0.97881 0.08906 0.83829 0.0
H1263 H 0.94942 0.07531 0.81698 0.0
H1264 H 0.93507 0.12115 0.71594 0.0
H1265 H 0.96464 0.1349 0.73495 0.0
C1266 C 0.01505 0.1837 0.94881 0.0
C1267 C 0.00387 0.19749 0.92827 0.0
C1268 C 0.01678 0.16748 0.91918 0.0
C1269 C 0.00764 0.16479 0.86774 0.0
C1270 C 0.99692 0.17881 0.84634 0.0
C1271 C 0.99503 0.19493 0.87628 0.0
C1272 C 0.00839 0.14706 0.83803 0.0
C1273 C 0.99214 0.13858 0.82334 0.0
C1274 C 0.0248 0.13806 0.82673 0.0
C1275 C 0.04249 0.14669 0.8371 0.0
C1276 C 0.04647 0.16364 0.81369 0.0
C1277 C 0.06313 0.17173 0.82377 0.0
C1278 C 0.07599 0.16295 0.8569 0.0
C1279 C 0.07222 0.14604 0.8799 0.0
C1280 C 0.05557 0.13789 0.86999 0.0
C1281 C 1.00039 0.07235 0.69096 0.0
C1282 C 0.00873 0.05821 0.72079 0.0
C1283 C 1.00046 0.08989 0.71253 0.0
C1284 C 0.00882 0.0937 0.7645 0.0
C1285 C 0.01754 0.07972 0.79358 0.0
C1286 C 0.01744 0.06218 0.77215 0.0
C1287 C 0.00821 0.11213 0.78936 0.0
C1288 C 0.02447 0.12068 0.80325 0.0
C1289 C 0.99181 0.12127 0.79938 0.0
C1290 C 0.97407 0.11291 0.78747 0.0
C1291 C 0.9695 0.0961 0.81088 0.0
C1292 C 0.9528 0.0883 0.79918 0.0
C1293 C 0.94043 0.0973 0.76481 0.0
C1294 C 0.94471 0.11414 0.74224 0.0
C1295 C 0.96146 0.12192 0.75332 0.0
H1296 H 0.9275 0.09126 0.75588 0.0
H1297 H 0.08888 0.16924 0.86464 0.0
H1298 H 0.29954 0.01229 0.84347 0.0
H1299 H 0.32782 0.01298 0.78904 0.0
H1300 H 0.35796 0.01522 0.94471 0.0
H1301 H 0.33005 0.01468 0.99869 0.0
H1302 H 0.37048 0.03938 0.86533 0.0
H1303 H 0.35478 0.9748 0.87244 0.0
H1304 H 0.33419 0.94948 0.85324 0.0
H1305 H 0.33255 0.96407 0.67735 0.0
H1306 H 0.35285 0.98959 0.69596 0.0
H1307 H 0.46007 0.01594 0.80837 0.0
H1308 H 0.42923 0.01884 0.84246 0.0
H1309 H 0.40944 0.99998 0.68137 0.0
H1310 H 0.44038 0.99558 0.64928 0.0
H1311 H 0.38908 0.98717 0.74928 0.0
H1312 H 0.40986 0.04766 0.73626 0.0
H1313 H 0.42926 0.07402 0.75181 0.0
H1314 H 0.41978 0.07053 0.93068 0.0
H1315 H 0.40044 0.04401 0.91621 0.0
C1316 C 0.31222 0.01302 0.86588 0.0
C1317 C 0.31254 0.0132 0.92543 0.0
C1318 C 0.32836 0.01332 0.83482 0.0
C1319 C 0.34506 0.01401 0.8628 0.0
C1320 C 0.3453 0.01465 0.92209 0.0
C1321 C 0.3293 0.01419 0.95295 0.0
C1322 C 0.36247 0.01382 0.83144 0.0
C1323 C 0.37465 0.02798 0.83995 0.0
C1324 C 0.3676 0.99933 0.79643 0.0
C1325 C 0.35535 0.98404 0.78548 0.0
C1326 C 0.34997 0.97261 0.82976 0.0
C1327 C 0.33833 0.95824 0.81901 0.0
C1328 C 0.33207 0.95515 0.76411 0.0
C1329 C 0.33742 0.96644 0.71985 0.0
C1330 C 0.34901 0.98084 0.73047 0.0
C1331 C 0.4491 0.01256 0.78017 0.0
C1332 C 0.45262 0.00576 0.72598 0.0
C1333 C 0.43138 0.01439 0.79944 0.0
C1334 C 0.41668 0.01033 0.76397 0.0
C1335 C 0.42032 0.00344 0.7097 0.0
C1336 C 0.43806 1.00099 0.69118 0.0
C1337 C 0.39765 0.01262 0.78414 0.0
C1338 C 0.38506 0.99886 0.77347 0.0
C1339 C 0.39201 0.02777 0.81618 0.0
C1340 C 0.40368 0.04377 0.82502 0.0
C1341 C 0.41191 0.05247 0.77887 0.0
C1342 C 0.42292 0.06745 0.78753 0.0
C1343 C 0.42576 0.07395 0.84221 0.0
C1344 C 0.41756 0.06549 0.88833 0.0
C1345 C 0.40655 0.05049 0.87989 0.0
H1346 H 0.43429 0.08555 0.84883 0.0
H1347 H 0.32307 0.94401 0.75588 0.0
H1348 H 0.50725 0.2933 0.84322 0.0
H1349 H 0.51028 0.32352 0.80184 0.0
H1350 H 0.47308 0.34421 0.92586 0.0
H1351 H 0.46958 0.31414 0.96548 0.0
H1352 H 0.46496 0.35814 0.83093 0.0
H1353 H 0.52136 0.35044 0.93005 0.0
H1354 H 0.55007 0.33543 0.95248 0.0
H1355 H 0.5673 0.34186 0.78019 0.0
H1356 H 0.53858 0.35671 0.7566 0.0
H1357 H 0.48247 0.45187 0.81637 0.0
H1358 H 0.48068 0.42047 0.84672 0.0
H1359 H 0.51324 0.4047 0.70422 0.0
H1360 H 0.51494 0.43603 0.67326 0.0
H1361 H 0.52396 0.38767 0.80004 0.0
H1362 H 0.4681 0.3975 0.70402 0.0
H1363 H 0.43951 0.41284 0.68284 0.0
H1364 H 0.42117 0.40266 0.8522 0.0
H1365 H 0.44979 0.38745 0.87449 0.0
C1366 C 0.49977 0.30434 0.86151 0.0
C1367 C 0.48805 0.30129 0.90726 0.0
C1368 C 0.50155 0.32165 0.83805 0.0
C1369 C 0.49203 0.33634 0.86087 0.0
C1370 C 0.4805 0.33321 0.90695 0.0
C1371 C 0.4785 0.31596 0.92965 0.0
C1372 C 0.4937 0.35496 0.83705 0.0
C1373 C 0.47789 0.36461 0.82492 0.0
C1374 C 0.51052 0.36341 0.82733 0.0
C1375 C 0.52777 0.35451 0.84147 0.0
C1376 C 0.53123 0.34854 0.89689 0.0
C1377 C 0.5475 0.34008 0.90981 0.0
C1378 C 0.56048 0.33765 0.86775 0.0
C1379 C 0.55723 0.34372 0.8127 0.0
C1380 C 0.54096 0.35217 0.79954 0.0
C1381 C 0.48919 0.44173 0.79128 0.0
C1382 C 0.49875 0.44653 0.74211 0.0
C1383 C 0.48811 0.42373 0.80863 0.0
C1384 C 0.4966 0.41009 0.77739 0.0
C1385 C 0.50641 0.41488 0.72883 0.0
C1386 C 0.50734 0.43285 0.71108 0.0
C1387 C 0.49523 0.39088 0.79553 0.0
C1388 C 0.51105 0.38114 0.80618 0.0
C1389 C 0.47842 0.38236 0.80426 0.0
C1390 C 0.46117 0.39147 0.79099 0.0
C1391 C 0.45803 0.39864 0.73681 0.0
C1392 C 0.44181 0.4073 0.7246 0.0
C1393 C 0.42854 0.40876 0.76619 0.0
C1394 C 0.43147 0.40153 0.82003 0.0
C1395 C 0.44769 0.39288 0.83244 0.0
H1396 H 0.41598 0.41546 0.75668 0.0
H1397 H 0.57308 0.3311 0.87785 0.0
H1398 H 0.19248 0.50206 0.98684 0.0
H1399 H 0.16183 0.5039 0.94941 0.0
H1400 H 0.18014 0.48302 0.78954 0.0
H1401 H 0.21091 0.48086 0.82715 0.0
H1402 H 0.15402 0.51427 0.78579 0.0
H1403 H 0.16205 0.45468 0.86502 0.0
H1404 H 0.17065 0.4334 0.94043 0.0
H1405 H 0.13145 0.45681 0.05148 0.0
H1406 H 0.12282 0.47843 0.97694 0.0
H1407 H 0.06932 0.49214 0.66952 0.0
H1408 H 0.10054 0.49141 0.70152 0.0
H1409 H 0.08278 0.49472 0.87489 0.0
H1410 H 0.05142 0.49465 0.84321 0.0
H1411 H 0.10925 0.47271 0.87083 0.0
H1412 H 0.10037 0.53176 0.79812 0.0
H1413 H 0.09145 0.5548 0.72846 0.0
H1414 H 0.1314 0.53548 0.61273 0.0
H1415 H 0.14034 0.51199 0.68124 0.0
C1416 C 0.19007 0.49818 0.94335 0.0
C1417 C 0.20416 0.49137 0.9099 0.0
C1418 C 0.17252 0.49915 0.92212 0.0
C1419 C 0.16868 0.49355 0.86675 0.0
C1420 C 0.18281 0.48745 0.83235 0.0
C1421 C 0.20036 0.48617 0.85392 0.0
C1422 C 0.14974 0.49305 0.8463 0.0
C1423 C 0.14426 0.50503 0.8037 0.0
C1424 C 0.13688 0.4814 0.87098 0.0
C1425 C 0.14193 0.46829 0.91561 0.0
C1426 C 0.15538 0.4554 0.90568 0.0
C1427 C 0.16024 0.44325 0.94824 0.0
C1428 C 0.15164 0.44379 1.00077 0.0
C1429 C 0.13812 0.45643 0.01079 0.0
C1430 C 0.13323 0.46862 0.9684 0.0
C1431 C 0.07203 0.49263 0.71453 0.0
C1432 C 0.05783 0.4935 0.75381 0.0
C1433 C 0.08994 0.49235 0.73276 0.0
C1434 C 0.09416 0.49342 0.79063 0.0
C1435 C 0.07997 0.49394 0.82999 0.0
C1436 C 0.06201 0.49392 0.81182 0.0
C1437 C 0.11332 0.49396 0.80999 0.0
C1438 C 0.11891 0.48199 0.85257 0.0
C1439 C 0.12618 0.50589 0.78596 0.0
C1440 C 0.12095 0.52003 0.74468 0.0
C1441 C 0.10718 0.53232 0.75765 0.0
C1442 C 0.10212 0.54546 0.71837 0.0
C1443 C 0.11087 0.54658 0.66619 0.0
C1444 C 0.1247 0.53458 0.65323 0.0
C1445 C 0.12976 0.52135 0.69222 0.0
H1446 H 0.10697 0.55677 0.63587 0.0
H1447 H 0.15542 0.43437 0.03367 0.0
H1448 H 0.02188 0.80545 0.47207 0.0
H1449 H 0.02119 0.8349 0.51731 0.0
H1450 H 0.96424 0.83871 0.48486 0.0
H1451 H 0.96486 0.80918 0.43925 0.0
H1452 H 0.98047 0.86848 0.45258 0.0
H1453 H 0.98221 0.83224 0.62081 0.0
H1454 H 0.99384 0.80902 0.68577 0.0
H1455 H 0.04408 0.83721 0.698 0.0
H1456 H 0.03287 0.86048 0.63235 0.0
H1457 H 0.96926 0.95067 0.60013 0.0
H1458 H 0.96694 0.91918 0.57147 0.0
H1459 H 0.02343 0.91177 0.60576 0.0
H1460 H 0.02573 0.94303 0.63612 0.0
H1461 H 0.00605 0.88342 0.64043 0.0
H1462 H 0.00618 0.91778 0.46819 0.0
H1463 H 0.99578 0.94118 0.40173 0.0
H1464 H 0.94362 0.91647 0.39519 0.0
H1465 H 0.95365 0.89305 0.46223 0.0
C1466 C 0.0091 0.81232 0.47573 0.0
C1467 C 0.99341 0.80485 0.45205 0.0
C1468 C 0.00873 0.82923 0.50162 0.0
C1469 C 0.99263 0.83906 0.50506 0.0
C1470 C 0.97685 0.83145 0.48274 0.0
C1471 C 0.97722 0.81455 0.4566 0.0
C1472 C 0.9925 0.85773 0.52833 0.0
C1473 C 0.98576 0.87166 0.49415 0.0
C1474 C 0.99994 0.86207 0.58184 0.0
C1475 C 0.00674 0.84803 0.62117 0.0
C1476 C 0.9958 0.83342 0.63691 0.0
C1477 C 1.00231 0.82025 0.67394 0.0
C1478 C 0.01971 0.82161 0.69587 0.0
C1479 C 0.03062 0.83616 0.6809 0.0
C1480 C 0.02418 0.84935 0.6438 0.0
C1481 C 0.9812 0.94234 0.60171 0.0
C1482 C 0.99772 0.9495 0.62004 0.0
C1483 C 0.97987 0.92431 0.58506 0.0
C1484 C 0.99508 0.91307 0.5854 0.0
C1485 C 0.01149 0.9201 0.60492 0.0
C1486 C 0.01279 0.93806 0.6221 0.0
C1487 C 0.99405 0.89413 0.56461 0.0
C1488 C 1.00062 0.88018 0.5991 0.0
C1489 C 0.98665 0.88975 0.51113 0.0
C1490 C 0.98061 0.90378 0.47069 0.0
C1491 C 0.99246 0.91742 0.4529 0.0
C1492 C 0.98664 0.93067 0.41508 0.0
C1493 C 0.96904 0.93034 0.39438 0.0
C1494 C 0.95724 0.91672 0.41134 0.0
C1495 C 0.96299 0.90345 0.44921 0.0
H1496 H 0.96456 0.94061 0.3651 0.0
H1497 H 0.02472 0.81142 0.72457 0.0
H1498 H 0.70839 0.99292 0.45842 0.0
H1499 H 0.68042 0.98875 0.51203 0.0
H1500 H 0.65324 0.02559 0.39994 0.0
H1501 H 0.68084 0.02966 0.34613 0.0
H1502 H 0.6435 0.03206 0.50591 0.0
H1503 H 0.64869 0.97995 0.3861 0.0
H1504 H 0.6635 0.9529 0.3479 0.0
H1505 H 0.66431 0.92925 0.51378 0.0
H1506 H 0.64971 0.95628 0.55308 0.0
H1507 H 0.55386 0.98012 0.53308 0.0
H1508 H 0.58432 0.98294 0.49526 0.0
H1509 H 0.60122 0.00969 0.648 0.0
H1510 H 0.57074 0.00712 0.68597 0.0
H1511 H 0.61689 0.97124 0.52695 0.0
H1512 H 0.63264 0.04284 0.60904 0.0
H1513 H 0.61706 0.07082 0.63586 0.0
H1514 H 0.57159 0.05573 0.53474 0.0
H1515 H 0.58735 0.02823 0.50438 0.0
C1516 C 0.69644 1.00009 0.44508 0.0
C1517 C 0.69699 0.0117 0.39794 0.0
C1518 C 0.68046 0.99773 0.4759 0.0
C1519 C 0.66464 0.00681 0.45999 0.0
C1520 C 0.66524 0.01855 0.41348 0.0
C1521 C 0.68114 0.0209 0.38277 0.0
C1522 C 0.64726 0.0038 0.49021 0.0
C1523 C 0.6378 0.01873 0.51112 0.0
C1524 C 0.63957 0.98646 0.49617 0.0
C1525 C 0.64831 0.97021 0.47261 0.0
C1526 C 0.65216 0.96904 0.41449 0.0
C1527 C 0.66049 0.9537 0.39263 0.0
C1528 C 0.6649 0.93939 0.42842 0.0
C1529 C 0.66093 0.94036 0.48613 0.0
C1530 C 0.65262 0.95568 0.50821 0.0
C1531 C 0.56406 0.98646 0.55894 0.0
C1532 C 0.55977 0.99342 0.61258 0.0
C1533 C 0.58152 0.98801 0.53727 0.0
C1534 C 0.59507 0.99666 0.56849 0.0
C1535 C 0.59098 0.00313 0.6228 0.0
C1536 C 0.57352 1.00156 0.64457 0.0
C1537 C 0.6132 0.9995 0.54302 0.0
C1538 C 0.62277 0.98454 0.52287 0.0
C1539 C 0.62085 0.01686 0.53697 0.0
C1540 C 0.61118 0.03339 0.55477 0.0
C1541 C 0.61942 0.0456 0.59197 0.0
C1542 C 0.61056 0.06139 0.60771 0.0
C1543 C 0.59331 0.06499 0.58731 0.0
C1544 C 0.58495 0.05291 0.55056 0.0
C1545 C 0.59389 0.03726 0.5338 0.0
H1546 H 0.58644 0.07717 0.59984 0.0
H1547 H 0.67134 0.92752 0.41142 0.0
H1548 H 0.48361 0.69044 0.44041 0.0
H1549 H 0.48455 0.66295 0.49739 0.0
H1550 H 0.5423 0.66693 0.50735 0.0
H1551 H 0.54146 0.69438 0.44966 0.0
H1552 H 0.53081 0.63359 0.47143 0.0
H1553 H 0.51663 0.67386 0.62569 0.0
H1554 H 0.49887 0.69781 0.67143 0.0
H1555 H 0.45131 0.66537 0.65922 0.0
H1556 H 0.46862 0.64151 0.61168 0.0
H1557 H 0.53912 0.55528 0.63886 0.0
H1558 H 0.54117 0.58651 0.60703 0.0
H1559 H 0.48343 0.59134 0.61668 0.0
H1560 H 0.48137 0.5604 0.65093 0.0
H1561 H 0.4969 0.62143 0.64807 0.0
H1562 H 0.50737 0.58335 0.48817 0.0
H1563 H 0.52205 0.55925 0.43352 0.0
H1564 H 0.5726 0.58695 0.44514 0.0
H1565 H 0.55825 0.61111 0.50053 0.0
C1566 C 0.4965 0.68561 0.45538 0.0
C1567 C 0.51247 0.69461 0.44034 0.0
C1568 C 0.49701 0.66993 0.48827 0.0
C1569 C 0.5135 0.66286 0.50693 0.0
C1570 C 0.52942 0.67214 0.49358 0.0
C1571 C 0.52891 0.68791 0.46098 0.0
C1572 C 0.51416 0.6451 0.53639 0.0
C1573 C 0.52368 0.63102 0.51068 0.0
C1574 C 0.50431 0.64154 0.58643 0.0
C1575 C 0.49395 0.65584 0.61549 0.0
C1576 C 0.50237 0.67187 0.63257 0.0
C1577 C 0.49238 0.68543 0.65877 0.0
C1578 C 0.47402 0.68303 0.66882 0.0
C1579 C 0.46556 0.66715 0.65197 0.0
C1580 C 0.47544 0.65362 0.6253 0.0
C1581 C 0.52686 0.563 0.63449 0.0
C1582 C 0.51007 0.55518 0.64675 0.0
C1583 C 0.52803 0.58089 0.616 0.0
C1584 C 0.51242 0.59129 0.60796 0.0
C1585 C 0.4957 0.58368 0.62215 0.0
C1586 C 0.49454 0.56589 0.6415 0.0
C1587 C 0.5134 0.60978 0.5828 0.0
C1588 C 0.50418 0.624 0.60917 0.0
C1589 C 0.52311 0.6134 0.53236 0.0
C1590 C 0.53178 0.59892 0.49904 0.0
C1591 C 0.52164 0.58423 0.47942 0.0
C1592 C 0.5299 0.57057 0.44827 0.0
C1593 C 0.54825 0.57154 0.43602 0.0
C1594 C 0.55838 0.5862 0.45477 0.0
C1595 C 0.5502 0.59988 0.48602 0.0
H1596 H 0.55462 0.56096 0.41188 0.0
H1597 H 0.46635 0.69348 0.68951 0.0
H1598 H 0.80199 0.5165 0.49213 0.0
H1599 H 0.82968 0.51667 0.54903 0.0
H1600 H 0.8598 0.49837 0.40421 0.0
H1601 H 0.83247 0.49817 0.34777 0.0
H1602 H 0.86939 0.47981 0.4938 0.0
H1603 H 0.86001 0.54271 0.45029 0.0
H1604 H 0.84312 0.57125 0.45069 0.0
H1605 H 0.84269 0.57097 0.63237 0.0
H1606 H 0.85943 0.54231 0.63293 0.0
H1607 H 0.95595 0.52947 0.58897 0.0
H1608 H 0.92541 0.53022 0.55054 0.0
H1609 H 0.91135 0.48384 0.65106 0.0
H1610 H 0.94202 0.48258 0.68812 0.0
H1611 H 0.8925 0.5342 0.59061 0.0
H1612 H 0.88054 0.45766 0.57531 0.0
H1613 H 0.89793 0.42947 0.57129 0.0
H1614 H 0.94234 0.45768 0.49611 0.0
H1615 H 0.92516 0.48603 0.49943 0.0
C1616 C 0.81454 0.5126 0.47247 0.0
C1617 C 0.81491 0.50711 0.41549 0.0
C1618 C 0.83037 0.51269 0.50503 0.0
C1619 C 0.84691 0.50752 0.481 0.0
C1620 C 0.84725 0.50223 0.42407 0.0
C1621 C 0.83153 0.50206 0.3918 0.0
C1622 C 0.86401 0.50749 0.51423 0.0
C1623 C 0.87436 0.49169 0.51531 0.0
C1624 C 0.87064 0.52297 0.54218 0.0
C1625 C 0.86071 0.54024 0.54168 0.0
C1626 C 0.85617 0.54866 0.49031 0.0
C1627 C 0.84666 0.56487 0.49035 0.0
C1628 C 0.84176 0.57288 0.54151 0.0
C1629 C 0.84643 0.56472 0.59276 0.0
C1630 C 0.85593 0.5485 0.59293 0.0
C1631 C 0.94635 0.51946 0.60313 0.0
C1632 C 0.95156 0.50584 0.6411 0.0
C1633 C 0.92883 0.51995 0.58124 0.0
C1634 C 0.91608 0.5069 0.59706 0.0
C1635 C 0.92101 0.4938 0.6371 0.0
C1636 C 0.93859 0.49314 0.65837 0.0
C1637 C 0.89797 0.50657 0.56959 0.0
C1638 C 0.88743 0.52226 0.56971 0.0
C1639 C 0.89124 0.49102 0.54206 0.0
C1640 C 0.90167 0.47404 0.53873 0.0
C1641 C 0.89404 0.45786 0.55809 0.0
C1642 C 0.90384 0.44185 0.55585 0.0
C1643 C 0.92125 0.44181 0.53366 0.0
C1644 C 0.92888 0.45776 0.51355 0.0
C1645 C 0.91912 0.47382 0.51572 0.0
H1646 H 0.92877 0.42938 0.53166 0.0
H1647 H 0.83441 0.58543 0.54146 0.0
loop_
_geom_bond_atom_site_label_1
_geom_bond_atom_site_label_2
_geom_bond_distance
_geom_bond_site_symmetry_2
_ccdc_geom_bond_type
C0 C1 1.384 . S
C0 H13 0.947 . S
C0 C35 1.382 . S
C1 C0 1.384 . S
C1 C2 1.378 . S
C2 C1 1.378 . S
C2 C3 1.378 . S
C2 H14 0.952 . S
C3 C2 1.378 . S
C3 H15 0.950 . S
C3 C34 1.383 . S
H4 C23 0.947 . S
H5 C24 0.946 . S
H6 C26 0.953 . S
H7 C27 0.945 . S
H8 C29 0.952 . S
H9 C30 0.949 . S
H10 C32 0.950 . S
H11 C33 0.948 . S
H12 C35 0.951 . S
H13 C0 0.947 . S
H14 C2 0.952 . S
H15 C3 0.950 . S
N16 C19 1.382 . S
N16 C21 1.363 . S
N17 C19 1.371 . S
N17 C20 1.372 . S
N18 C20 1.361 . S
N18 C21 1.377 . S
C19 N16 1.382 . S
C19 N17 1.371 . S
C19 C22 1.480 . S
C20 N17 1.372 . S
C20 N18 1.361 . S
C20 C28 1.457 . S
C21 N16 1.363 . S
C21 N18 1.377 . S
C21 C34 1.479 . S
C22 C19 1.480 . S
C22 C23 1.383 . S
C22 C27 1.385 . S
C23 H4 0.947 . S
C23 C22 1.383 . S
C23 C24 1.388 . S
C24 H5 0.946 . S
C24 C23 1.388 . S
C24 C25 1.384 . S
C25 C24 1.384 . S
C25 C26 1.377 . S
C26 H6 0.953 . S
C26 C25 1.377 . S
C26 C27 1.369 . S
C27 H7 0.945 . S
C27 C22 1.385 . S
C27 C26 1.369 . S
C28 C20 1.457 . S
C28 C29 1.372 . S
C28 C33 1.364 . S
C29 H8 0.952 . S
C29 C28 1.372 . S
C29 C30 1.389 . S
C30 H9 0.949 . S
C30 C29 1.389 . S
C30 C31 1.387 . S
C31 C30 1.387 . S
C31 C32 1.372 . S
C32 H10 0.950 . S
C32 C31 1.372 . S
C32 C33 1.379 . S
C33 H11 0.948 . S
C33 C28 1.364 . S
C33 C32 1.379 . S
C34 C3 1.383 . S
C34 C21 1.479 . S
C34 C35 1.398 . S
C35 C0 1.382 . S
C35 H12 0.951 . S
C35 C34 1.398 . S
C36 C37 1.381 1_655 S
C36 H49 0.948 . S
C36 C71 1.382 1_655 S
C37 C36 1.381 1_455 S
C37 C38 1.387 . S
C38 C37 1.387 . S
C38 C39 1.378 . S
C38 H50 0.952 . S
C39 C38 1.378 . S
C39 H51 0.950 . S
C39 C70 1.383 . S
H40 C59 0.947 . S
H41 C60 0.952 . S
H42 C62 0.953 . S
H43 C63 0.945 . S
H44 C65 0.949 1_655 S
H45 C66 0.956 . S
H46 C68 0.950 . S
H47 C69 0.948 . S
H48 C71 0.952 1_655 S
H49 C36 0.948 . S
H50 C38 0.952 . S
H51 C39 0.950 . S
N52 C55 1.382 . S
N52 C57 1.363 . S
N53 C55 1.371 . S
N53 C56 1.372 . S
N54 C56 1.361 . S
N54 C57 1.377 . S
C55 N52 1.382 . S
C55 N53 1.371 . S
C55 C58 1.480 . S
C56 N53 1.372 . S
C56 N54 1.361 . S
C56 C64 1.457 . S
C57 N52 1.363 . S
C57 N54 1.377 . S
C57 C70 1.479 . S
C58 C55 1.480 . S
C58 C59 1.383 . S
C58 C63 1.385 . S
C59 H40 0.947 . S
C59 C58 1.383 . S
C59 C60 1.386 1_455 S
C60 H41 0.952 . S
C60 C59 1.386 1_655 S
C60 C61 1.381 1_655 S
C61 C60 1.381 1_455 S
C61 C62 1.377 . S
C62 H42 0.953 . S
C62 C61 1.377 . S
C62 C63 1.369 . S
C63 H43 0.945 . S
C63 C58 1.385 . S
C63 C62 1.369 . S
C64 C56 1.457 . S
C64 C65 1.375 . S
C64 C69 1.364 . S
C65 H44 0.949 1_455 S
C65 C64 1.375 . S
C65 C66 1.387 1_455 S
C66 H45 0.956 . S
C66 C65 1.387 1_655 S
C66 C67 1.383 1_655 S
C67 C66 1.383 1_455 S
C67 C68 1.372 . S
C68 H46 0.950 . S
C68 C67 1.372 . S
C68 C69 1.379 . S
C69 H47 0.948 . S
C69 C64 1.364 . S
C69 C68 1.379 . S
C70 C39 1.383 . S
C70 C57 1.479 . S
C70 C71 1.397 . S
C71 C36 1.382 1_455 S
C71 H48 0.952 1_455 S
C71 C70 1.397 . S
C72 C73 1.381 1_565 S
C72 H85 0.948 . S
C72 C107 1.382 1_565 S
C73 C72 1.381 1_545 S
C73 C74 1.387 . S
C74 C73 1.387 . S
C74 C75 1.378 . S
C74 H86 0.952 . S
C75 C74 1.378 . S
C75 H87 0.950 . S
C75 C106 1.383 . S
H76 C95 0.947 . S
H77 C96 0.952 . S
H78 C98 0.953 . S
H79 C99 0.945 . S
H80 C101 0.949 1_565 S
H81 C102 0.956 . S
H82 C104 0.950 . S
H83 C105 0.948 . S
H84 C107 0.952 1_565 S
H85 C72 0.948 . S
H86 C74 0.952 . S
H87 C75 0.950 . S
N88 C91 1.382 . S
N88 C93 1.363 . S
N89 C91 1.371 . S
N89 C92 1.372 . S
N90 C92 1.361 . S
N90 C93 1.377 . S
C91 N88 1.382 . S
C91 N89 1.371 . S
C91 C94 1.480 . S
C92 N89 1.372 . S
C92 N90 1.361 . S
C92 C100 1.457 . S
C93 N88 1.363 . S
C93 N90 1.377 . S
C93 C106 1.479 . S
C94 C91 1.480 . S
C94 C95 1.383 . S
C94 C99 1.385 . S
C95 H76 0.947 . S
C95 C94 1.383 . S
C95 C96 1.386 1_545 S
C96 H77 0.952 . S
C96 C95 1.386 1_565 S
C96 C97 1.381 1_565 S
C97 C96 1.381 1_545 S
C97 C98 1.377 . S
C98 H78 0.953 . S
C98 C97 1.377 . S
C98 C99 1.369 . S
C99 H79 0.945 . S
C99 C94 1.385 . S
C99 C98 1.369 . S
C100 C92 1.457 . S
C100 C101 1.376 . S
C100 C105 1.364 . S
C101 H80 0.949 1_545 S
C101 C100 1.376 . S
C101 C102 1.386 1_545 S
C102 H81 0.956 . S
C102 C101 1.386 1_565 S
C102 C103 1.383 1_565 S
C103 C102 1.383 1_545 S
C103 C104 1.372 . S
C104 H82 0.950 . S
C104 C103 1.372 . S
C104 C105 1.379 . S
C105 H83 0.948 . S
C105 C100 1.364 . S
C105 C104 1.379 . S
C106 C75 1.383 . S
C106 C93 1.479 . S
C106 C107 1.397 . S
C107 C72 1.382 1_545 S
C107 H84 0.952 1_545 S
C107 C106 1.397 . S
C108 C109 1.384 . S
C108 H121 0.947 . S
C108 C143 1.382 . S
C109 C108 1.384 . S
C109 C110 1.378 . S
C110 C109 1.378 . S
C110 C111 1.378 . S
C110 H122 0.952 . S
C111 C110 1.378 . S
C111 H123 0.950 . S
C111 C142 1.383 . S
H112 C131 0.947 . S
H113 C132 0.946 . S
H114 C134 0.953 . S
H115 C135 0.945 . S
H116 C137 0.952 . S
H117 C138 0.949 . S
H118 C140 0.950 . S
H119 C141 0.948 . S
H120 C143 0.951 . S
H121 C108 0.947 . S
H122 C110 0.952 . S
H123 C111 0.950 . S
N124 C127 1.382 . S
N124 C129 1.363 . S
N125 C127 1.371 . S
N125 C128 1.372 . S
N126 C128 1.361 . S
N126 C129 1.377 . S
C127 N124 1.382 . S
C127 N125 1.371 . S
C127 C130 1.480 . S
C128 N125 1.372 . S
C128 N126 1.361 . S
C128 C136 1.457 . S
C129 N124 1.363 . S
C129 N126 1.377 . S
C129 C142 1.479 . S
C130 C127 1.480 . S
C130 C131 1.383 . S
C130 C135 1.385 . S
C131 H112 0.947 . S
C131 C130 1.383 . S
C131 C132 1.388 . S
C132 H113 0.946 . S
C132 C131 1.388 . S
C132 C133 1.384 . S
C133 C132 1.384 . S
C133 C134 1.377 . S
C134 H114 0.953 . S
C134 C133 1.377 . S
C134 C135 1.369 . S
C135 H115 0.945 . S
C135 C130 1.385 . S
C135 C134 1.369 . S
C136 C128 1.457 . S
C136 C137 1.372 . S
C136 C141 1.364 . S
C137 H116 0.952 . S
C137 C136 1.372 . S
C137 C138 1.389 . S
C138 H117 0.949 . S
C138 C137 1.389 . S
C138 C139 1.387 . S
C139 C138 1.387 . S
C139 C140 1.372 . S
C140 H118 0.950 . S
C140 C139 1.372 . S
C140 C141 1.379 . S
C141 H119 0.948 . S
C141 C136 1.364 . S
C141 C140 1.379 . S
C142 C111 1.383 . S
C142 C129 1.479 . S
C142 C143 1.398 . S
C143 C108 1.382 . S
C143 H120 0.951 . S
C143 C142 1.398 . S
C144 C145 1.384 . S
C144 H157 0.947 . S
C144 C179 1.382 . S
C145 C144 1.384 . S
C145 C146 1.378 . S
C146 C145 1.378 . S
C146 C147 1.378 . S
C146 H158 0.952 . S
C147 C146 1.378 . S
C147 H159 0.950 . S
C147 C178 1.383 . S
H148 C167 0.947 1_556 S
H149 C168 0.946 . S
H150 C170 0.953 . S
H151 C171 0.945 . S
H152 C173 0.952 . S
H153 C174 0.949 . S
H154 C176 0.950 . S
H155 C177 0.948 . S
H156 C179 0.951 . S
H157 C144 0.947 . S
H158 C146 0.952 . S
H159 C147 0.950 . S
N160 C163 1.382 . S
N160 C165 1.363 1_554 S
N161 C163 1.371 . S
N161 C164 1.372 . S
N162 C164 1.361 . S
N162 C165 1.377 1_554 S
C163 N160 1.382 . S
C163 N161 1.371 . S
C163 C166 1.480 . S
C164 N161 1.372 . S
C164 N162 1.361 . S
C164 C172 1.457 . S
C165 N160 1.363 1_556 S
C165 N162 1.377 1_556 S
C165 C178 1.479 . S
C166 C163 1.480 . S
C166 C167 1.383 . S
C166 C171 1.385 . S
C167 H148 0.947 1_554 S
C167 C166 1.383 . S
C167 C168 1.388 . S
C168 H149 0.946 . S
C168 C167 1.388 . S
C168 C169 1.384 . S
C169 C168 1.384 . S
C169 C170 1.377 . S
C170 H150 0.953 . S
C170 C169 1.377 . S
C170 C171 1.369 . S
C171 H151 0.945 . S
C171 C166 1.385 . S
C171 C170 1.369 . S
C172 C164 1.457 . S
C172 C173 1.372 . S
C172 C177 1.364 . S
C173 H152 0.952 . S
C173 C172 1.372 . S
C173 C174 1.389 . S
C174 H153 0.949 . S
C174 C173 1.389 . S
C174 C175 1.387 . S
C175 C174 1.387 . S
C175 C176 1.372 . S
C176 H154 0.950 . S
C176 C175 1.372 . S
C176 C177 1.379 . S
C177 H155 0.948 . S
C177 C172 1.364 . S
C177 C176 1.379 . S
C178 C147 1.383 . S
C178 C165 1.479 . S
C178 C179 1.398 . S
C179 C144 1.382 . S
C179 H156 0.951 . S
C179 C178 1.398 . S
C180 C181 1.384 . S
C180 H193 0.948 1_455 S
C180 C215 1.382 . S
C181 C180 1.384 . S
C181 C182 1.378 . S
C182 C181 1.378 . S
C182 C183 1.378 . S
C182 H194 0.952 . S
C183 C182 1.378 . S
C183 H195 0.950 . S
C183 C214 1.383 . S
H184 C203 0.947 1_556 S
H185 C204 0.948 . S
H186 C206 0.953 . S
H187 C207 0.945 . S
H188 C209 0.947 1_655 S
H189 C210 0.953 . S
H190 C212 0.950 . S
H191 C213 0.948 . S
H192 C215 0.950 1_655 S
H193 C180 0.948 1_655 S
H194 C182 0.952 . S
H195 C183 0.950 . S
N196 C199 1.382 . S
N196 C201 1.363 1_554 S
N197 C199 1.371 . S
N197 C200 1.372 . S
N198 C200 1.361 . S
N198 C201 1.377 1_554 S
C199 N196 1.382 . S
C199 N197 1.371 . S
C199 C202 1.480 . S
C200 N197 1.372 . S
C200 N198 1.361 . S
C200 C208 1.457 . S
C201 N196 1.363 1_556 S
C201 N198 1.377 1_556 S
C201 C214 1.479 . S
C202 C199 1.480 . S
C202 C203 1.383 . S
C202 C207 1.385 . S
C203 H184 0.947 1_554 S
C203 C202 1.383 . S
C203 C204 1.387 1_455 S
C204 H185 0.948 . S
C204 C203 1.387 1_655 S
C204 C205 1.383 1_655 S
C205 C204 1.383 1_455 S
C205 C206 1.377 . S
C206 H186 0.953 . S
C206 C205 1.377 . S
C206 C207 1.369 . S
C207 H187 0.945 . S
C207 C202 1.385 . S
C207 C206 1.369 . S
C208 C200 1.457 . S
C208 C209 1.379 . S
C208 C213 1.364 . S
C209 H188 0.947 1_455 S
C209 C208 1.379 . S
C209 C210 1.387 1_455 S
C210 H189 0.953 . S
C210 C209 1.387 1_655 S
C210 C211 1.384 1_655 S
C211 C210 1.384 1_455 S
C211 C212 1.372 . S
C212 H190 0.950 . S
C212 C211 1.372 . S
C212 C213 1.379 . S
C213 H191 0.948 . S
C213 C208 1.364 . S
C213 C212 1.379 . S
C214 C183 1.383 . S
C214 C201 1.479 . S
C214 C215 1.399 . S
C215 C180 1.382 . S
C215 H192 0.950 1_455 S
C215 C214 1.399 . S
C216 C217 1.384 . S
C216 H229 0.948 1_545 S
C216 C251 1.382 . S
C217 C216 1.384 . S
C217 C218 1.378 . S
C218 C217 1.378 . S
C218 C219 1.378 . S
C218 H230 0.952 . S
C219 C218 1.378 . S
C219 H231 0.950 . S
C219 C250 1.383 . S
H220 C239 0.947 1_556 S
H221 C240 0.948 . S
H222 C242 0.953 . S
H223 C243 0.945 . S
H224 C245 0.947 1_565 S
H225 C246 0.953 . S
H226 C248 0.950 . S
H227 C249 0.948 . S
H228 C251 0.950 1_565 S
H229 C216 0.948 1_565 S
H230 C218 0.952 . S
H231 C219 0.950 . S
N232 C235 1.382 . S
N232 C237 1.363 1_554 S
N233 C235 1.371 . S
N233 C236 1.372 . S
N234 C236 1.361 . S
N234 C237 1.377 1_554 S
C235 N232 1.382 . S
C235 N233 1.371 . S
C235 C238 1.480 . S
C236 N233 1.372 . S
C236 N234 1.361 . S
C236 C244 1.457 . S
C237 N232 1.363 1_556 S
C237 N234 1.377 1_556 S
C237 C250 1.479 . S
C238 C235 1.480 . S
C238 C239 1.383 . S
C238 C243 1.385 . S
C239 H220 0.947 1_554 S
C239 C238 1.383 . S
C239 C240 1.387 1_545 S
C240 H221 0.948 . S
C240 C239 1.387 1_565 S
C240 C241 1.383 1_565 S
C241 C240 1.383 1_545 S
C241 C242 1.377 . S
C242 H222 0.953 . S
C242 C241 1.377 . S
C242 C243 1.369 . S
C243 H223 0.945 . S
C243 C238 1.385 . S
C243 C242 1.369 . S
C244 C236 1.457 . S
C244 C245 1.379 . S
C244 C249 1.364 . S
C245 H224 0.947 1_545 S
C245 C244 1.379 . S
C245 C246 1.387 1_545 S
C246 H225 0.953 . S
C246 C245 1.387 1_565 S
C246 C247 1.384 1_565 S
C247 C246 1.384 1_545 S
C247 C248 1.372 . S
C248 H226 0.950 . S
C248 C247 1.372 . S
C248 C249 1.379 . S
C249 H227 0.948 . S
C249 C244 1.364 . S
C249 C248 1.379 . S
C250 C219 1.383 . S
C250 C237 1.479 . S
C250 C251 1.399 . S
C251 C216 1.382 . S
C251 H228 0.950 1_545 S
C251 C250 1.399 . S
C252 C253 1.384 . S
C252 H265 0.947 . S
C252 C287 1.382 . S
C253 C252 1.384 . S
C253 C254 1.378 . S
C254 C253 1.378 . S
C254 C255 1.378 . S
C254 H266 0.952 . S
C255 C254 1.378 . S
C255 H267 0.950 . S
C255 C286 1.383 . S
H256 C275 0.947 . S
H257 C276 0.946 . S
H258 C278 0.953 . S
H259 C279 0.945 1_556 S
H260 C281 0.952 . S
H261 C282 0.949 . S
H262 C284 0.950 . S
H263 C285 0.948 . S
H264 C287 0.951 . S
H265 C252 0.947 . S
H266 C254 0.952 . S
H267 C255 0.950 . S
N268 C271 1.382 . S
N268 C273 1.363 . S
N269 C271 1.371 . S
N269 C272 1.372 1_554 S
N270 C272 1.361 1_554 S
N270 C273 1.377 . S
C271 N268 1.382 . S
C271 N269 1.371 . S
C271 C274 1.480 . S
C272 N269 1.372 1_556 S
C272 N270 1.361 1_556 S
C272 C280 1.457 . S
C273 N268 1.363 . S
C273 N270 1.377 . S
C273 C286 1.479 . S
C274 C271 1.480 . S
C274 C275 1.383 . S
C274 C279 1.385 . S
C275 H256 0.947 . S
C275 C274 1.383 . S
C275 C276 1.388 . S
C276 H257 0.946 . S
C276 C275 1.388 . S
C276 C277 1.384 . S
C277 C276 1.384 . S
C277 C278 1.377 . S
C278 H258 0.953 . S
C278 C277 1.377 . S
C278 C279 1.369 . S
C279 H259 0.945 1_554 S
C279 C274 1.385 . S
C279 C278 1.369 . S
C280 C272 1.457 . S
C280 C281 1.372 . S
C280 C285 1.364 . S
C281 H260 0.952 . S
C281 C280 1.372 . S
C281 C282 1.389 . S
C282 H261 0.949 . S
C282 C281 1.389 . S
C282 C283 1.387 . S
C283 C282 1.387 . S
C283 C284 1.372 . S
C284 H262 0.950 . S
C284 C283 1.372 . S
C284 C285 1.379 . S
C285 H263 0.948 . S
C285 C280 1.364 . S
C285 C284 1.379 . S
C286 C255 1.383 . S
C286 C273 1.479 . S
C286 C287 1.398 . S
C287 C252 1.382 . S
C287 H264 0.951 . S
C287 C286 1.398 . S
Tb288 C298 2.825 . S
Tb288 O299 2.347 1_455 S
Tb288 O302 2.366 . S
Tb288 O307 2.418 . S
Tb288 O308 2.384 1_565 S
Tb288 O311 2.479 . S
Tb288 O312 2.471 . S
Eu289 O300 2.418 . S
Eu289 O301 2.384 1_545 S
Eu289 O304 2.479 . S
Eu289 O305 2.471 . S
Eu289 O306 2.347 1_655 S
Eu289 O309 2.366 . S
Eu289 C319 2.825 . S
C290 O306 1.259 1_565 S
C290 O307 1.265 . S
C291 O308 1.255 . S
C291 O309 1.265 1_455 S
C292 C294 1.380 . S
C292 C295 1.374 . S
C292 C298 1.507 . S
C293 C294 1.384 . S
C293 C297 1.387 . S
C293 H320 0.930 . S
C294 C292 1.380 . S
C294 C293 1.384 . S
C294 H321 0.931 . S
C295 C292 1.374 . S
C295 C296 1.390 . S
C295 H322 0.930 1_455 S
C296 C295 1.390 . S
C296 C297 1.391 . S
C296 H323 0.930 1_455 S
C297 C293 1.387 . S
C297 C296 1.391 . S
C298 Tb288 2.825 . S
C298 C292 1.507 . S
C298 O311 1.238 . S
C298 O312 1.247 . S
O299 Tb288 2.347 1_655 S
O299 C303 1.259 1_565 S
O300 Eu289 2.418 . S
O300 C303 1.265 . S
O301 Eu289 2.384 1_565 S
O301 C310 1.255 . S
O302 Tb288 2.366 . S
O302 C310 1.265 1_455 S
C303 O299 1.259 1_545 S
C303 O300 1.265 . S
O304 Eu289 2.479 . S
O304 C319 1.238 . S
O305 Eu289 2.471 . S
O305 C319 1.247 . S
O306 Eu289 2.347 1_455 S
O306 C290 1.259 1_545 S
O307 Tb288 2.418 . S
O307 C290 1.265 . S
O308 Tb288 2.384 1_545 S
O308 C291 1.255 . S
O309 Eu289 2.366 . S
O309 C291 1.265 1_655 S
C310 O301 1.255 . S
C310 O302 1.265 1_655 S
O311 Tb288 2.479 . S
O311 C298 1.238 . S
O312 Tb288 2.471 . S
O312 C298 1.247 . S
C313 C316 1.380 . S
C313 C317 1.374 . S
C313 C319 1.507 . S
C314 C315 1.387 . S
C314 C318 1.391 . S
C315 C314 1.387 . S
C315 C316 1.384 . S
C315 H324 0.930 . S
C316 C313 1.380 . S
C316 C315 1.384 . S
C316 H325 0.931 . S
C317 C313 1.374 . S
C317 C318 1.390 . S
C317 H326 0.930 1_655 S
C318 C314 1.391 . S
C318 C317 1.390 . S
C318 H327 0.930 1_655 S
C319 Eu289 2.825 . S
C319 O304 1.238 . S
C319 O305 1.247 . S
C319 C313 1.507 . S
H320 C293 0.930 . S
H321 C294 0.931 . S
H322 C295 0.930 1_655 S
H323 C296 0.930 1_655 S
H324 C315 0.930 . S
H325 C316 0.931 . S
H326 C317 0.930 1_455 S
H327 C318 0.930 1_455 S
Tb328 C338 2.825 . S
Tb328 O339 2.347 1_545 S
Tb328 O342 2.366 . S
Tb328 O347 2.418 . S
Tb328 O348 2.384 . S
Tb328 O351 2.479 . S
Tb328 O352 2.471 . S
Eu329 O340 2.418 . S
Eu329 O341 2.384 . S
Eu329 O344 2.479 . S
Eu329 O345 2.471 . S
Eu329 O346 2.347 1_565 S
Eu329 O349 2.366 . S
Eu329 C359 2.825 . S
C330 O346 1.259 . S
C330 O347 1.265 . S
C331 O348 1.255 . S
C331 O349 1.265 1_545 S
C332 C334 1.380 . S
C332 C335 1.374 . S
C332 C338 1.507 . S
C333 C334 1.384 . S
C333 C337 1.387 . S
C333 H360 0.930 . S
C334 C332 1.380 . S
C334 C333 1.384 . S
C334 H361 0.931 . S
C335 C332 1.374 . S
C335 C336 1.390 . S
C335 H362 0.930 1_545 S
C336 C335 1.390 . S
C336 C337 1.391 . S
C336 H363 0.930 1_545 S
C337 C333 1.387 . S
C337 C336 1.391 . S
C338 Tb328 2.825 . S
C338 C332 1.507 . S
C338 O351 1.238 . S
C338 O352 1.247 . S
O339 Tb328 2.347 1_565 S
O339 C343 1.259 . S
O340 Eu329 2.418 . S
O340 C343 1.265 . S
O341 Eu329 2.384 . S
O341 C350 1.255 . S
O342 Tb328 2.366 . S
O342 C350 1.265 1_545 S
C343 O339 1.259 . S
C343 O340 1.265 . S
O344 Eu329 2.479 . S
O344 C359 1.238 . S
O345 Eu329 2.471 . S
O345 C359 1.247 . S
O346 Eu329 2.347 1_545 S
O346 C330 1.259 . S
O347 Tb328 2.418 . S
O347 C330 1.265 . S
O348 Tb328 2.384 . S
O348 C331 1.255 . S
O349 Eu329 2.366 . S
O349 C331 1.265 1_565 S
C350 O341 1.255 . S
C350 O342 1.265 1_565 S
O351 Tb328 2.479 . S
O351 C338 1.238 . S
O352 Tb328 2.471 . S
O352 C338 1.247 . S
C353 C356 1.380 . S
C353 C357 1.374 . S
C353 C359 1.507 . S
C354 C355 1.387 . S
C354 C358 1.391 . S
C355 C354 1.387 . S
C355 C356 1.384 . S
C355 H364 0.930 . S
C356 C353 1.380 . S
C356 C355 1.384 . S
C356 H365 0.931 . S
C357 C353 1.374 . S
C357 C358 1.390 . S
C357 H366 0.930 1_565 S
C358 C354 1.391 . S
C358 C357 1.390 . S
C358 H367 0.930 1_565 S
C359 Eu329 2.825 . S
C359 O344 1.238 . S
C359 O345 1.247 . S
C359 C353 1.507 . S
H360 C333 0.930 . S
H361 C334 0.931 . S
H362 C335 0.930 1_565 S
H363 C336 0.930 1_565 S
H364 C355 0.930 . S
H365 C356 0.931 . S
H366 C357 0.930 1_545 S
H367 C358 0.930 1_545 S
Tb368 C378 2.825 . S
Tb368 O379 2.347 . S
Tb368 O382 2.366 . S
Tb368 O387 2.418 . S
Tb368 O388 2.384 . S
Tb368 O391 2.479 . S
Tb368 O392 2.471 . S
Eu369 O380 2.418 . S
Eu369 O381 2.384 . S
Eu369 O384 2.479 . S
Eu369 O385 2.471 . S
Eu369 O386 2.347 . S
Eu369 O389 2.366 . S
Eu369 C399 2.825 . S
C370 O386 1.259 . S
C370 O387 1.265 . S
C371 O388 1.255 . S
C371 O389 1.265 . S
C372 C374 1.380 . S
C372 C375 1.374 . S
C372 C378 1.507 . S
C373 C374 1.384 . S
C373 C377 1.387 . S
C373 H400 0.930 . S
C374 C372 1.380 . S
C374 C373 1.384 . S
C374 H401 0.931 . S
C375 C372 1.374 . S
C375 C376 1.390 . S
C375 H402 0.930 . S
C376 C375 1.390 . S
C376 C377 1.391 . S
C376 H403 0.930 . S
C377 C373 1.387 . S
C377 C376 1.391 . S
C378 Tb368 2.825 . S
C378 C372 1.507 . S
C378 O391 1.238 . S
C378 O392 1.247 . S
O379 Tb368 2.347 . S
O379 C383 1.259 . S
O380 Eu369 2.418 . S
O380 C383 1.265 . S
O381 Eu369 2.384 . S
O381 C390 1.255 . S
O382 Tb368 2.366 . S
O382 C390 1.265 . S
C383 O379 1.259 . S
C383 O380 1.265 . S
O384 Eu369 2.479 . S
O384 C399 1.238 . S
O385 Eu369 2.471 . S
O385 C399 1.247 . S
O386 Eu369 2.347 . S
O386 C370 1.259 . S
O387 Tb368 2.418 . S
O387 C370 1.265 . S
O388 Tb368 2.384 . S
O388 C371 1.255 . S
O389 Eu369 2.366 . S
O389 C371 1.265 . S
C390 O381 1.255 . S
C390 O382 1.265 . S
O391 Tb368 2.479 . S
O391 C378 1.238 . S
O392 Tb368 2.471 . S
O392 C378 1.247 . S
C393 C396 1.380 . S
C393 C397 1.374 . S
C393 C399 1.507 . S
C394 C395 1.387 . S
C394 C398 1.391 . S
C395 C394 1.387 . S
C395 C396 1.384 . S
C395 H404 0.930 . S
C396 C393 1.380 . S
C396 C395 1.384 . S
C396 H405 0.931 . S
C397 C393 1.374 . S
C397 C398 1.390 . S
C397 H406 0.930 . S
C398 C394 1.391 . S
C398 C397 1.390 . S
C398 H407 0.930 . S
C399 Eu369 2.825 . S
C399 O384 1.238 . S
C399 O385 1.247 . S
C399 C393 1.507 . S
H400 C373 0.930 . S
H401 C374 0.931 . S
H402 C375 0.930 . S
H403 C376 0.930 . S
H404 C395 0.930 . S
H405 C396 0.931 . S
H406 C397 0.930 . S
H407 C398 0.930 . S
Tb408 C418 2.825 . S
Tb408 O419 2.347 . S
Tb408 O422 2.366 . S
Tb408 O427 2.418 . S
Tb408 O428 2.384 1_655 S
Tb408 O431 2.479 . S
Tb408 O432 2.471 . S
Eu409 O420 2.418 . S
Eu409 O421 2.384 1_455 S
Eu409 O424 2.479 . S
Eu409 O425 2.471 . S
Eu409 O426 2.347 . S
Eu409 O429 2.366 . S
Eu409 C439 2.825 . S
C410 O426 1.259 1_655 S
C410 O427 1.265 . S
C411 O428 1.255 . S
C411 O429 1.265 . S
C412 C414 1.380 . S
C412 C415 1.374 . S
C412 C418 1.507 . S
C413 C414 1.384 . S
C413 C417 1.387 . S
C413 H440 0.930 . S
C414 C412 1.380 . S
C414 C413 1.384 . S
C414 H441 0.931 . S
C415 C412 1.374 . S
C415 C416 1.390 . S
C415 H442 0.930 . S
C416 C415 1.390 . S
C416 C417 1.391 . S
C416 H443 0.930 . S
C417 C413 1.387 . S
C417 C416 1.391 . S
C418 Tb408 2.825 . S
C418 C412 1.507 . S
C418 O431 1.238 . S
C418 O432 1.247 . S
O419 Tb408 2.347 . S
O419 C423 1.259 1_655 S
O420 Eu409 2.418 . S
O420 C423 1.265 . S
O421 Eu409 2.384 1_655 S
O421 C430 1.255 . S
O422 Tb408 2.366 . S
O422 C430 1.265 . S
C423 O419 1.259 1_455 S
C423 O420 1.265 . S
O424 Eu409 2.479 . S
O424 C439 1.238 . S
O425 Eu409 2.471 . S
O425 C439 1.247 . S
O426 Eu409 2.347 . S
O426 C410 1.259 1_455 S
O427 Tb408 2.418 . S
O427 C410 1.265 . S
O428 Tb408 2.384 1_455 S
O428 C411 1.255 . S
O429 Eu409 2.366 . S
O429 C411 1.265 . S
C430 O421 1.255 . S
C430 O422 1.265 . S
O431 Tb408 2.479 . S
O431 C418 1.238 . S
O432 Tb408 2.471 . S
O432 C418 1.247 . S
C433 C436 1.380 . S
C433 C437 1.374 . S
C433 C439 1.507 . S
C434 C435 1.387 . S
C434 C438 1.391 . S
C435 C434 1.387 . S
C435 C436 1.384 . S
C435 H444 0.930 . S
C436 C433 1.380 . S
C436 C435 1.384 . S
C436 H445 0.931 . S
C437 C433 1.374 . S
C437 C438 1.390 . S
C437 H446 0.930 . S
C438 C434 1.391 . S
C438 C437 1.390 . S
C438 H447 0.930 . S
C439 Eu409 2.825 . S
C439 O424 1.238 . S
C439 O425 1.247 . S
C439 C433 1.507 . S
H440 C413 0.930 . S
H441 C414 0.931 . S
H442 C415 0.930 . S
H443 C416 0.930 . S
H444 C435 0.930 . S
H445 C436 0.931 . S
H446 C437 0.930 . S
H447 C438 0.930 . S
H448 C466 0.951 . S
H449 C468 0.951 . S
H450 C470 0.950 . S
H451 C471 0.950 . S
H452 C473 0.950 . S
H453 C476 0.950 . S
H454 C477 0.950 . S
H455 C479 0.950 . S
H456 C480 0.950 . S
H457 C481 0.951 . S
H458 C483 0.951 . S
H459 C485 0.950 . S
H460 C486 0.950 . S
H461 C488 0.950 . S
H462 C491 0.950 . S
H463 C492 0.950 . S
H464 C494 0.950 . S
H465 C495 0.950 . S
C466 H448 0.951 . S
C466 C467 1.370 . S
C466 C468 1.388 . S
C467 C466 1.370 . S
C467 C471 1.381 1_545 S
C468 H449 0.951 . S
C468 C466 1.388 . S
C468 C469 1.355 1_545 S
C469 C468 1.355 1_565 S
C469 C470 1.424 . S
C469 C472 1.498 . S
C470 H450 0.950 . S
C470 C469 1.424 . S
C470 C471 1.374 . S
C471 H451 0.950 . S
C471 C467 1.381 1_565 S
C471 C470 1.374 . S
C472 C469 1.498 . S
C472 C473 1.377 . S
C472 C474 1.385 1_565 S
C473 H452 0.950 . S
C473 C472 1.377 . S
C473 C489 1.379 . S
C474 C472 1.385 1_545 S
C474 C475 1.524 . S
C474 C488 1.377 . S
C475 C474 1.524 . S
C475 C476 1.397 1_545 S
C475 C480 1.363 . S
C476 H453 0.950 . S
C476 C475 1.397 1_565 S
C476 C477 1.334 . S
C477 H454 0.950 . S
C477 C476 1.334 . S
C477 C478 1.287 . S
C478 C477 1.287 . S
C478 C479 1.524 1_565 S
C478 H497 0.913 . S
C479 H455 0.950 . S
C479 C478 1.524 1_545 S
C479 C480 1.415 . S
C480 H456 0.950 . S
C480 C475 1.363 . S
C480 C479 1.415 . S
C481 H457 0.951 . S
C481 C482 1.334 1_565 S
C481 C483 1.388 . S
C482 C481 1.334 1_545 S
C482 C486 1.417 . S
C483 H458 0.951 . S
C483 C481 1.388 . S
C483 C484 1.366 1_565 S
C484 C483 1.366 1_545 S
C484 C485 1.414 . S
C484 C487 1.499 . S
C485 H459 0.950 . S
C485 C484 1.414 . S
C485 C486 1.374 . S
C486 H460 0.950 . S
C486 C482 1.417 . S
C486 C485 1.374 . S
C487 C484 1.499 . S
C487 C488 1.373 . S
C487 C489 1.387 1_545 S
C488 H461 0.950 . S
C488 C474 1.377 . S
C488 C487 1.373 . S
C489 C473 1.379 . S
C489 C487 1.387 1_565 S
C489 C490 1.524 . S
C490 C489 1.524 . S
C490 C491 1.390 1_565 S
C490 C495 1.369 . S
C491 H462 0.950 . S
C491 C490 1.390 1_545 S
C491 C492 1.334 . S
C492 H463 0.950 . S
C492 C491 1.334 . S
C492 C493 1.287 . S
C493 C492 1.287 . S
C493 C494 1.524 1_545 S
C493 H496 0.999 . S
C494 H464 0.950 . S
C494 C493 1.524 1_565 S
C494 C495 1.415 . S
C495 H465 0.950 . S
C495 C490 1.369 . S
C495 C494 1.415 . S
H496 C493 0.999 . S
H497 C478 0.913 . S
H498 C516 0.951 . S
H499 C518 0.951 . S
H500 C520 0.950 . S
H501 C521 0.950 . S
H502 C523 0.950 . S
H503 C526 0.950 . S
H504 C527 0.950 . S
H505 C529 0.950 . S
H506 C530 0.950 . S
H507 C531 0.951 . S
H508 C533 0.951 . S
H509 C535 0.950 . S
H510 C536 0.950 . S
H511 C538 0.950 . S
H512 C541 0.950 . S
H513 C542 0.950 . S
H514 C544 0.950 . S
H515 C545 0.950 . S
C516 H498 0.951 . S
C516 C517 1.366 . S
C516 C518 1.388 . S
C517 C516 1.366 . S
C517 C521 1.385 . S
C518 H499 0.951 . S
C518 C516 1.388 . S
C518 C519 1.366 . S
C519 C518 1.366 . S
C519 C520 1.414 . S
C519 C522 1.499 . S
C520 H500 0.950 . S
C520 C519 1.414 . S
C520 C521 1.374 . S
C521 H501 0.950 . S
C521 C517 1.385 . S
C521 C520 1.374 . S
C522 C519 1.499 . S
C522 C523 1.373 . S
C522 C524 1.389 . S
C523 H502 0.950 . S
C523 C522 1.373 . S
C523 C539 1.377 . S
C524 C522 1.389 . S
C524 C525 1.524 . S
C524 C538 1.377 . S
C525 C524 1.524 . S
C525 C526 1.397 . S
C525 C530 1.363 . S
C526 H503 0.950 . S
C526 C525 1.397 . S
C526 C527 1.334 . S
C527 H504 0.950 . S
C527 C526 1.334 . S
C527 C528 1.287 . S
C528 C527 1.287 . S
C528 C529 1.524 . S
C528 H547 0.913 . S
C529 H505 0.950 . S
C529 C528 1.524 . S
C529 C530 1.415 . S
C530 H506 0.950 . S
C530 C525 1.363 . S
C530 C529 1.415 . S
C531 H507 0.951 . S
C531 C532 1.366 . S
C531 C533 1.388 . S
C532 C531 1.366 . S
C532 C536 1.385 . S
C533 H508 0.951 . S
C533 C531 1.388 . S
C533 C534 1.366 . S
C534 C533 1.366 . S
C534 C535 1.414 . S
C534 C537 1.499 . S
C535 H509 0.950 . S
C535 C534 1.414 . S
C535 C536 1.374 . S
C536 H510 0.950 . S
C536 C532 1.385 . S
C536 C535 1.374 . S
C537 C534 1.499 . S
C537 C538 1.373 . S
C537 C539 1.389 . S
C538 H511 0.950 . S
C538 C524 1.377 . S
C538 C537 1.373 . S
C539 C523 1.377 . S
C539 C537 1.389 . S
C539 C540 1.524 . S
C540 C539 1.524 . S
C540 C541 1.397 . S
C540 C545 1.363 . S
C541 H512 0.950 . S
C541 C540 1.397 . S
C541 C542 1.334 . S
C542 H513 0.950 . S
C542 C541 1.334 . S
C542 C543 1.287 . S
C543 C542 1.287 . S
C543 C544 1.524 . S
C543 H546 0.999 . S
C544 H514 0.950 . S
C544 C543 1.524 . S
C544 C545 1.415 . S
C545 H515 0.950 . S
C545 C540 1.363 . S
C545 C544 1.415 . S
H546 C543 0.999 . S
H547 C528 0.913 . S
H548 C566 0.951 . S
H549 C568 0.951 . S
H550 C570 0.950 . S
H551 C571 0.950 . S
H552 C573 0.950 . S
H553 C576 0.950 . S
H554 C577 0.950 . S
H555 C579 0.950 . S
H556 C580 0.950 . S
H557 C581 0.951 . S
H558 C583 0.951 . S
H559 C585 0.950 . S
H560 C586 0.950 . S
H561 C588 0.950 . S
H562 C591 0.950 . S
H563 C592 0.950 . S
H564 C594 0.950 . S
H565 C595 0.950 . S
C566 H548 0.951 . S
C566 C567 1.366 . S
C566 C568 1.388 . S
C567 C566 1.366 . S
C567 C571 1.385 . S
C568 H549 0.951 . S
C568 C566 1.388 . S
C568 C569 1.366 . S
C569 C568 1.366 . S
C569 C570 1.414 . S
C569 C572 1.499 . S
C570 H550 0.950 . S
C570 C569 1.414 . S
C570 C571 1.374 . S
C571 H551 0.950 . S
C571 C567 1.385 . S
C571 C570 1.374 . S
C572 C569 1.499 . S
C572 C573 1.373 . S
C572 C574 1.389 . S
C573 H552 0.950 . S
C573 C572 1.373 . S
C573 C589 1.377 . S
C574 C572 1.389 . S
C574 C575 1.524 . S
C574 C588 1.377 . S
C575 C574 1.524 . S
C575 C576 1.397 . S
C575 C580 1.363 . S
C576 H553 0.950 . S
C576 C575 1.397 . S
C576 C577 1.334 . S
C577 H554 0.950 . S
C577 C576 1.334 . S
C577 C578 1.287 . S
C578 C577 1.287 . S
C578 C579 1.524 . S
C578 H597 0.913 . S
C579 H555 0.950 . S
C579 C578 1.524 . S
C579 C580 1.415 . S
C580 H556 0.950 . S
C580 C575 1.363 . S
C580 C579 1.415 . S
C581 H557 0.951 . S
C581 C582 1.366 . S
C581 C583 1.388 . S
C582 C581 1.366 . S
C582 C586 1.385 . S
C583 H558 0.951 . S
C583 C581 1.388 . S
C583 C584 1.366 . S
C584 C583 1.366 . S
C584 C585 1.414 . S
C584 C587 1.499 . S
C585 H559 0.950 . S
C585 C584 1.414 . S
C585 C586 1.374 . S
C586 H560 0.950 . S
C586 C582 1.385 . S
C586 C585 1.374 . S
C587 C584 1.499 . S
C587 C588 1.373 . S
C587 C589 1.389 . S
C588 H561 0.950 . S
C588 C574 1.377 . S
C588 C587 1.373 . S
C589 C573 1.377 . S
C589 C587 1.389 . S
C589 C590 1.524 . S
C590 C589 1.524 . S
C590 C591 1.397 . S
C590 C595 1.363 . S
C591 H562 0.950 . S
C591 C590 1.397 . S
C591 C592 1.334 . S
C592 H563 0.950 . S
C592 C591 1.334 . S
C592 C593 1.287 . S
C593 C592 1.287 . S
C593 C594 1.524 . S
C593 H596 0.999 . S
C594 H564 0.950 . S
C594 C593 1.524 . S
C594 C595 1.415 . S
C595 H565 0.950 . S
C595 C590 1.363 . S
C595 C594 1.415 . S
H596 C593 0.999 . S
H597 C578 0.913 . S
H598 C616 0.951 . S
H599 C618 0.951 . S
H600 C620 0.950 . S
H601 C621 0.950 . S
H602 C623 0.950 . S
H603 C626 0.950 . S
H604 C627 0.950 . S
H605 C629 0.950 . S
H606 C630 0.950 . S
H607 C631 0.951 . S
H608 C633 0.951 . S
H609 C635 0.950 . S
H610 C636 0.950 . S
H611 C638 0.950 . S
H612 C641 0.950 . S
H613 C642 0.950 . S
H614 C644 0.950 . S
H615 C645 0.950 . S
C616 H598 0.951 . S
C616 C617 1.363 1_655 S
C616 C618 1.388 . S
C617 C616 1.363 1_455 S
C617 C621 1.387 . S
C618 H599 0.951 . S
C618 C616 1.388 . S
C618 C619 1.366 1_655 S
C619 C618 1.366 1_455 S
C619 C620 1.414 . S
C619 C622 1.499 . S
C620 H600 0.950 . S
C620 C619 1.414 . S
C620 C621 1.374 . S
C621 H601 0.950 . S
C621 C617 1.387 . S
C621 C620 1.374 . S
C622 C619 1.499 . S
C622 C623 1.375 . S
C622 C624 1.389 . S
C623 H602 0.950 . S
C623 C622 1.375 . S
C623 C639 1.374 1_455 S
C624 C622 1.389 . S
C624 C625 1.524 . S
C624 C638 1.378 . S
C625 C624 1.524 . S
C625 C626 1.397 . S
C625 C630 1.363 1_455 S
C626 H603 0.950 . S
C626 C625 1.397 . S
C626 C627 1.334 . S
C627 H604 0.950 . S
C627 C626 1.334 . S
C627 C628 1.287 . S
C628 C627 1.287 . S
C628 C629 1.524 1_455 S
C628 H647 0.913 . S
C629 H605 0.950 . S
C629 C628 1.524 1_655 S
C629 C630 1.415 . S
C630 H606 0.950 . S
C630 C625 1.363 1_655 S
C630 C629 1.415 . S
C631 H607 0.951 . S
C631 C632 1.399 . S
C631 C633 1.388 . S
C632 C631 1.399 . S
C632 C636 1.351 1_455 S
C633 H608 0.951 . S
C633 C631 1.388 . S
C633 C634 1.368 1_455 S
C634 C633 1.368 1_655 S
C634 C635 1.412 . S
C634 C637 1.498 . S
C635 H609 0.950 . S
C635 C634 1.412 . S
C635 C636 1.374 . S
C636 H610 0.950 . S
C636 C632 1.351 1_655 S
C636 C635 1.374 . S
C637 C634 1.498 . S
C637 C638 1.371 1_655 S
C637 C639 1.389 . S
C638 H611 0.950 . S
C638 C624 1.378 . S
C638 C637 1.371 1_455 S
C639 C623 1.374 1_655 S
C639 C637 1.389 . S
C639 C640 1.530 . S
C640 C639 1.530 . S
C640 C641 1.397 . S
C640 C645 1.363 1_655 S
C641 H612 0.950 . S
C641 C640 1.397 . S
C641 C642 1.334 . S
C642 H613 0.950 . S
C642 C641 1.334 . S
C642 C643 1.287 . S
C643 C642 1.287 . S
C643 C644 1.524 1_655 S
C643 H646 0.999 . S
C644 H614 0.950 . S
C644 C643 1.524 1_455 S
C644 C645 1.415 . S
C645 H615 0.950 . S
C645 C640 1.363 1_455 S
C645 C644 1.415 . S
H646 C643 0.999 . S
H647 C628 0.913 . S
H648 C666 0.951 . S
H649 C668 0.951 . S
H650 C670 0.950 . S
H651 C671 0.950 . S
H652 C673 0.950 . S
H653 C676 0.950 . S
H654 C677 0.950 . S
H655 C679 0.950 . S
H656 C680 0.950 . S
H657 C681 0.951 . S
H658 C683 0.951 . S
H659 C685 0.950 . S
H660 C686 0.950 . S
H661 C688 0.950 . S
H662 C691 0.950 . S
H663 C692 0.950 . S
H664 C694 0.950 . S
H665 C695 0.950 . S
C666 H648 0.951 . S
C666 C667 1.367 1_565 S
C666 C668 1.388 . S
C667 C666 1.367 1_545 S
C667 C671 1.383 . S
C668 H649 0.951 . S
C668 C666 1.388 . S
C668 C669 1.355 1_565 S
C669 C668 1.355 1_545 S
C669 C670 1.424 . S
C669 C672 1.499 . S
C670 H650 0.950 . S
C670 C669 1.424 . S
C670 C671 1.374 . S
C671 H651 0.950 . S
C671 C667 1.383 . S
C671 C670 1.374 . S
C672 C669 1.499 . S
C672 C673 1.339 1_544 S
C672 C674 1.421 . S
C673 H652 0.950 . S
C673 C672 1.339 1_566 S
C673 C689 1.377 . S
C674 C672 1.421 . S
C674 C675 1.524 . S
C674 C688 1.377 1_554 S
C675 C674 1.524 . S
C675 C676 1.397 . S
C675 C680 1.363 . S
C676 H653 0.950 . S
C676 C675 1.397 . S
C676 C677 1.334 . S
C677 H654 0.950 . S
C677 C676 1.334 . S
C677 C678 1.287 . S
C678 C677 1.287 . S
C678 C679 1.524 . S
C678 H697 0.913 . S
C679 H655 0.950 . S
C679 C678 1.524 . S
C679 C680 1.415 . S
C680 H656 0.950 . S
C680 C675 1.363 . S
C680 C679 1.415 . S
C681 H657 0.951 . S
C681 C682 1.361 1_545 S
C681 C683 1.388 . S
C682 C681 1.361 1_565 S
C682 C686 1.391 . S
C683 H658 0.951 . S
C683 C681 1.388 . S
C683 C684 1.366 1_545 S
C684 C683 1.366 1_565 S
C684 C685 1.414 . S
C684 C687 1.499 . S
C685 H659 0.950 . S
C685 C684 1.414 . S
C685 C686 1.374 . S
C686 H660 0.950 . S
C686 C682 1.391 . S
C686 C685 1.374 . S
C687 C684 1.499 . S
C687 C688 1.373 1_565 S
C687 C689 1.389 . S
C688 H661 0.950 . S
C688 C674 1.377 1_556 S
C688 C687 1.373 1_545 S
C689 C673 1.377 . S
C689 C687 1.389 . S
C689 C690 1.524 . S
C690 C689 1.524 . S
C690 C691 1.397 . S
C690 C695 1.363 . S
C691 H662 0.950 . S
C691 C690 1.397 . S
C691 C692 1.334 . S
C692 H663 0.950 . S
C692 C691 1.334 . S
C692 C693 1.287 . S
C693 C692 1.287 . S
C693 C694 1.524 . S
C693 H696 0.999 . S
C694 H664 0.950 . S
C694 C693 1.524 . S
C694 C695 1.415 . S
C695 H665 0.950 . S
C695 C690 1.363 . S
C695 C694 1.415 . S
H696 C693 0.999 . S
H697 C678 0.913 . S
H698 C716 0.951 . S
H699 C718 0.951 . S
H700 C720 0.950 . S
H701 C721 0.950 . S
H702 C723 0.950 . S
H703 C726 0.950 . S
H704 C727 0.950 . S
H705 C729 0.950 . S
H706 C730 0.950 . S
H707 C731 0.951 . S
H708 C733 0.951 . S
H709 C735 0.950 . S
H710 C736 0.950 . S
H711 C738 0.950 . S
H712 C741 0.950 . S
H713 C742 0.950 . S
H714 C744 0.950 . S
H715 C745 0.950 . S
C716 H698 0.951 . S
C716 C717 1.366 . S
C716 C718 1.388 . S
C717 C716 1.366 . S
C717 C721 1.385 . S
C718 H699 0.951 . S
C718 C716 1.388 . S
C718 C719 1.366 . S
C719 C718 1.366 . S
C719 C720 1.414 . S
C719 C722 1.499 . S
C720 H700 0.950 . S
C720 C719 1.414 . S
C720 C721 1.374 . S
C721 H701 0.950 . S
C721 C717 1.385 . S
C721 C720 1.374 . S
C722 C719 1.499 . S
C722 C723 1.373 . S
C722 C724 1.389 1_554 S
C723 H702 0.950 . S
C723 C722 1.373 . S
C723 C739 1.377 1_554 S
C724 C722 1.389 1_556 S
C724 C725 1.524 1_556 S
C724 C738 1.377 . S
C725 C724 1.524 1_554 S
C725 C726 1.397 . S
C725 C730 1.363 1_554 S
C726 H703 0.950 . S
C726 C725 1.397 . S
C726 C727 1.334 . S
C727 H704 0.950 . S
C727 C726 1.334 . S
C727 C728 1.287 . S
C728 C727 1.287 . S
C728 C729 1.524 1_554 S
C728 H747 0.913 . S
C729 H705 0.950 . S
C729 C728 1.524 1_556 S
C729 C730 1.415 . S
C730 H706 0.950 . S
C730 C725 1.363 1_556 S
C730 C729 1.415 . S
C731 H707 0.951 . S
C731 C732 1.366 . S
C731 C733 1.388 . S
C732 C731 1.366 . S
C732 C736 1.385 . S
C733 H708 0.951 . S
C733 C731 1.388 . S
C733 C734 1.366 . S
C734 C733 1.366 . S
C734 C735 1.414 . S
C734 C737 1.499 . S
C735 H709 0.950 . S
C735 C734 1.414 . S
C735 C736 1.374 . S
C736 H710 0.950 . S
C736 C732 1.385 . S
C736 C735 1.374 . S
C737 C734 1.499 . S
C737 C738 1.373 . S
C737 C739 1.389 . S
C738 H711 0.950 . S
C738 C724 1.377 . S
C738 C737 1.373 . S
C739 C723 1.377 1_556 S
C739 C737 1.389 . S
C739 C740 1.524 . S
C740 C739 1.524 . S
C740 C741 1.397 . S
C740 C745 1.363 1_556 S
C741 H712 0.950 . S
C741 C740 1.397 . S
C741 C742 1.334 . S
C742 H713 0.950 . S
C742 C741 1.334 . S
C742 C743 1.287 . S
C743 C742 1.287 . S
C743 C744 1.524 1_556 S
C743 H746 0.999 . S
C744 H714 0.950 . S
C744 C743 1.524 1_554 S
C744 C745 1.415 . S
C745 H715 0.950 . S
C745 C740 1.363 1_554 S
C745 C744 1.415 . S
H746 C743 0.999 . S
H747 C728 0.913 . S
H748 C766 0.951 . S
H749 C768 0.951 . S
H750 C770 0.950 . S
H751 C771 0.950 . S
H752 C773 0.950 . S
H753 C776 0.950 . S
H754 C777 0.950 . S
H755 C779 0.950 . S
H756 C780 0.950 . S
H757 C781 0.951 . S
H758 C783 0.951 . S
H759 C785 0.950 . S
H760 C786 0.950 . S
H761 C788 0.950 . S
H762 C791 0.950 . S
H763 C792 0.950 . S
H764 C794 0.946 1_554 S
H765 C795 0.950 . S
C766 H748 0.951 . S
C766 C767 1.366 . S
C766 C768 1.388 . S
C767 C766 1.366 . S
C767 C771 1.385 . S
C768 H749 0.951 . S
C768 C766 1.388 . S
C768 C769 1.366 . S
C769 C768 1.366 . S
C769 C770 1.414 . S
C769 C772 1.499 . S
C770 H750 0.950 . S
C770 C769 1.414 . S
C770 C771 1.374 . S
C771 H751 0.950 . S
C771 C767 1.385 . S
C771 C770 1.374 . S
C772 C769 1.499 . S
C772 C773 1.373 . S
C772 C774 1.389 1_554 S
C773 H752 0.950 . S
C773 C772 1.373 . S
C773 C789 1.377 1_554 S
C774 C772 1.389 1_556 S
C774 C775 1.524 1_556 S
C774 C788 1.377 . S
C775 C774 1.524 1_554 S
C775 C776 1.397 . S
C775 C780 1.363 1_554 S
C776 H753 0.950 . S
C776 C775 1.397 . S
C776 C777 1.334 . S
C777 H754 0.950 . S
C777 C776 1.334 . S
C777 C778 1.287 . S
C778 C777 1.287 . S
C778 C779 1.524 1_554 S
C778 H797 0.913 . S
C779 H755 0.950 . S
C779 C778 1.524 1_556 S
C779 C780 1.415 . S
C780 H756 0.950 . S
C780 C775 1.363 1_556 S
C780 C779 1.415 . S
C781 H757 0.951 . S
C781 C782 1.366 . S
C781 C783 1.388 . S
C782 C781 1.366 . S
C782 C786 1.385 . S
C783 H758 0.951 . S
C783 C781 1.388 . S
C783 C784 1.366 . S
C784 C783 1.366 . S
C784 C785 1.414 . S
C784 C787 1.499 . S
C785 H759 0.950 . S
C785 C784 1.414 . S
C785 C786 1.374 . S
C786 H760 0.950 . S
C786 C782 1.385 . S
C786 C785 1.374 . S
C787 C784 1.499 . S
C787 C788 1.373 . S
C787 C789 1.389 . S
C788 H761 0.950 . S
C788 C774 1.377 . S
C788 C787 1.373 . S
C789 C773 1.377 1_556 S
C789 C787 1.389 . S
C789 C790 1.524 . S
C790 C789 1.524 . S
C790 C791 1.397 . S
C790 C795 1.363 1_556 S
C791 H762 0.950 . S
C791 C790 1.397 . S
C791 C792 1.334 . S
C792 H763 0.950 . S
C792 C791 1.334 . S
C792 C793 1.287 . S
C793 C792 1.287 . S
C793 C794 1.529 . S
C793 H796 0.999 . S
C794 H764 0.946 1_556 S
C794 C793 1.529 . S
C794 C795 1.414 1_556 S
C795 H765 0.950 . S
C795 C790 1.363 1_554 S
C795 C794 1.414 1_554 S
H796 C793 0.999 . S
H797 C778 0.913 . S
H798 C816 0.951 . S
H799 C818 0.951 . S
H800 C820 0.950 . S
H801 C821 0.950 . S
H802 C823 0.950 . S
H803 C826 0.950 . S
H804 C827 0.950 . S
H805 C829 0.950 . S
H806 C830 0.950 1_455 S
H807 C831 0.951 . S
H808 C833 0.951 . S
H809 C835 0.950 . S
H810 C836 0.950 . S
H811 C838 0.950 . S
H812 C841 0.950 . S
H813 C842 0.950 . S
H814 C844 0.950 . S
H815 C845 0.950 1_655 S
C816 H798 0.951 . S
C816 C817 1.364 1_455 S
C816 C818 1.388 . S
C817 C816 1.364 1_655 S
C817 C821 1.386 . S
C818 H799 0.951 . S
C818 C816 1.388 . S
C818 C819 1.366 1_455 S
C819 C818 1.366 1_655 S
C819 C820 1.414 . S
C819 C822 1.499 . S
C820 H800 0.950 . S
C820 C819 1.414 . S
C820 C821 1.374 . S
C821 H801 0.950 . S
C821 C817 1.386 . S
C821 C820 1.374 . S
C822 C819 1.499 . S
C822 C823 1.373 1_655 S
C822 C824 1.389 1_554 S
C823 H802 0.950 . S
C823 C822 1.373 1_455 S
C823 C839 1.377 1_554 S
C824 C822 1.389 1_556 S
C824 C825 1.524 . S
C824 C838 1.377 . S
C825 C824 1.524 . S
C825 C826 1.397 1_556 S
C825 C830 1.363 . S
C826 H803 0.950 . S
C826 C825 1.397 1_554 S
C826 C827 1.334 . S
C827 H804 0.950 . S
C827 C826 1.334 . S
C827 C828 1.287 1_554 S
C828 C827 1.287 1_556 S
C828 C829 1.524 . S
C828 H847 0.913 . S
C829 H805 0.950 . S
C829 C828 1.524 . S
C829 C830 1.415 . S
C830 H806 0.950 1_655 S
C830 C825 1.363 . S
C830 C829 1.415 . S
C831 H807 0.951 . S
C831 C832 1.388 . S
C831 C833 1.388 . S
C832 C831 1.388 . S
C832 C836 1.362 1_655 S
C833 H808 0.951 . S
C833 C831 1.388 . S
C833 C834 1.362 1_655 S
C834 C833 1.362 1_455 S
C834 C835 1.417 . S
C834 C837 1.498 . S
C835 H809 0.950 . S
C835 C834 1.417 . S
C835 C836 1.374 . S
C836 H810 0.950 . S
C836 C832 1.362 1_455 S
C836 C835 1.374 . S
C837 C834 1.498 . S
C837 C838 1.361 1_455 S
C837 C839 1.400 . S
C838 H811 0.950 . S
C838 C824 1.377 . S
C838 C837 1.361 1_655 S
C839 C823 1.377 1_556 S
C839 C837 1.400 . S
C839 C840 1.524 . S
C840 C839 1.524 . S
C840 C841 1.397 . S
C840 C845 1.363 1_556 S
C841 H812 0.950 . S
C841 C840 1.397 . S
C841 C842 1.334 . S
C842 H813 0.950 . S
C842 C841 1.334 . S
C842 C843 1.287 1_556 S
C843 C842 1.287 1_554 S
C843 C844 1.524 . S
C843 H846 0.999 . S
C844 H814 0.950 . S
C844 C843 1.524 . S
C844 C845 1.415 . S
C845 H815 0.950 1_455 S
C845 C840 1.363 1_554 S
C845 C844 1.415 . S
H846 C843 0.999 . S
H847 C828 0.913 . S
H848 C866 0.951 . S
H849 C868 0.951 . S
H850 C870 0.950 . S
H851 C871 0.950 . S
H852 C873 0.950 . S
H853 C876 0.950 . S
H854 C877 0.950 . S
H855 C879 0.950 . S
H856 C880 0.950 . S
H857 C881 0.951 . S
H858 C883 0.951 . S
H859 C885 0.950 1_455 S
H860 C886 0.950 . S
H861 C888 0.950 . S
H862 C891 0.950 . S
H863 C892 0.950 . S
H864 C894 0.950 . S
H865 C895 0.950 . S
C866 H848 0.951 . S
C866 C867 1.366 . S
C866 C868 1.388 . S
C867 C866 1.366 . S
C867 C871 1.385 1_455 S
C868 H849 0.951 . S
C868 C866 1.388 . S
C868 C869 1.366 1_455 S
C869 C868 1.366 1_655 S
C869 C870 1.414 . S
C869 C872 1.499 . S
C870 H850 0.950 . S
C870 C869 1.414 . S
C870 C871 1.374 . S
C871 H851 0.950 . S
C871 C867 1.385 1_655 S
C871 C870 1.374 . S
C872 C869 1.499 . S
C872 C873 1.373 . S
C872 C874 1.389 1_655 S
C873 H852 0.950 . S
C873 C872 1.373 . S
C873 C889 1.377 . S
C874 C872 1.389 1_455 S
C874 C875 1.524 . S
C874 C888 1.377 . S
C875 C874 1.524 . S
C875 C876 1.397 . S
C875 C880 1.363 . S
C876 H853 0.950 . S
C876 C875 1.397 . S
C876 C877 1.334 . S
C877 H854 0.950 . S
C877 C876 1.334 . S
C877 C878 1.287 . S
C878 C877 1.287 . S
C878 C879 1.524 . S
C878 H897 0.913 . S
C879 H855 0.950 . S
C879 C878 1.524 . S
C879 C880 1.415 . S
C880 H856 0.950 . S
C880 C875 1.363 . S
C880 C879 1.415 . S
C881 H857 0.951 . S
C881 C882 1.366 . S
C881 C883 1.388 . S
C882 C881 1.366 . S
C882 C886 1.385 . S
C883 H858 0.951 . S
C883 C881 1.388 . S
C883 C884 1.366 . S
C884 C883 1.366 . S
C884 C885 1.414 . S
C884 C887 1.499 . S
C885 H859 0.950 1_655 S
C885 C884 1.414 . S
C885 C886 1.374 . S
C886 H860 0.950 . S
C886 C882 1.385 . S
C886 C885 1.374 . S
C887 C884 1.499 . S
C887 C888 1.373 1_655 S
C887 C889 1.389 . S
C888 H861 0.950 . S
C888 C874 1.377 . S
C888 C887 1.373 1_455 S
C889 C873 1.377 . S
C889 C887 1.389 . S
C889 C890 1.524 . S
C890 C889 1.524 . S
C890 C891 1.397 . S
C890 C895 1.363 . S
C891 H862 0.950 . S
C891 C890 1.397 . S
C891 C892 1.334 . S
C892 H863 0.950 . S
C892 C891 1.334 . S
C892 C893 1.287 . S
C893 C892 1.287 . S
C893 C894 1.524 . S
C893 H896 0.999 . S
C894 H864 0.950 . S
C894 C893 1.524 . S
C894 C895 1.415 . S
C895 H865 0.950 . S
C895 C890 1.363 . S
C895 C894 1.415 . S
H896 C893 0.999 . S
H897 C878 0.913 . S
H898 C916 0.951 . S
H899 C918 0.951 . S
H900 C920 0.950 . S
H901 C921 0.950 . S
H902 C923 0.950 1_545 S
H903 C926 0.950 . S
H904 C927 0.950 . S
H905 C929 0.950 . S
H906 C930 0.950 . S
H907 C931 0.951 . S
H908 C933 0.951 . S
H909 C935 0.950 . S
H910 C936 0.950 . S
H911 C938 0.950 . S
H912 C941 0.950 . S
H913 C942 0.950 . S
H914 C944 0.950 . S
H915 C945 0.950 1_565 S
C916 H898 0.951 . S
C916 C917 1.366 . S
C916 C918 1.388 . S
C917 C916 1.366 . S
C917 C921 1.385 1_545 S
C918 H899 0.951 . S
C918 C916 1.388 . S
C918 C919 1.366 1_545 S
C919 C918 1.366 1_565 S
C919 C920 1.414 . S
C919 C922 1.499 . S
C920 H900 0.950 . S
C920 C919 1.414 . S
C920 C921 1.374 . S
C921 H901 0.950 . S
C921 C917 1.385 1_565 S
C921 C920 1.374 . S
C922 C919 1.499 . S
C922 C923 1.373 . S
C922 C924 1.389 . S
C923 H902 0.950 1_565 S
C923 C922 1.373 . S
C923 C939 1.377 . S
C924 C922 1.389 . S
C924 C925 1.524 . S
C924 C938 1.377 . S
C925 C924 1.524 . S
C925 C926 1.397 . S
C925 C930 1.363 . S
C926 H903 0.950 . S
C926 C925 1.397 . S
C926 C927 1.334 . S
C927 H904 0.950 . S
C927 C926 1.334 . S
C927 C928 1.287 . S
C928 C927 1.287 . S
C928 C929 1.524 . S
C928 H947 0.913 . S
C929 H905 0.950 . S
C929 C928 1.524 . S
C929 C930 1.415 . S
C930 H906 0.950 . S
C930 C925 1.363 . S
C930 C929 1.415 . S
C931 H907 0.951 . S
C931 C932 1.366 . S
C931 C933 1.388 . S
C932 C931 1.366 . S
C932 C936 1.385 . S
C933 H908 0.951 . S
C933 C931 1.388 . S
C933 C934 1.366 . S
C934 C933 1.366 . S
C934 C935 1.414 . S
C934 C937 1.499 . S
C935 H909 0.950 . S
C935 C934 1.414 . S
C935 C936 1.374 . S
C936 H910 0.950 . S
C936 C932 1.385 . S
C936 C935 1.374 . S
C937 C934 1.499 . S
C937 C938 1.373 . S
C937 C939 1.389 . S
C938 H911 0.950 . S
C938 C924 1.377 . S
C938 C937 1.373 . S
C939 C923 1.377 . S
C939 C937 1.389 . S
C939 C940 1.524 1_565 S
C940 C939 1.524 1_545 S
C940 C941 1.397 . S
C940 C945 1.363 . S
C941 H912 0.950 . S
C941 C940 1.397 . S
C941 C942 1.334 . S
C942 H913 0.950 . S
C942 C941 1.334 . S
C942 C943 1.287 . S
C943 C942 1.287 . S
C943 C944 1.524 . S
C943 H946 0.999 . S
C944 H914 0.950 . S
C944 C943 1.524 . S
C944 C945 1.415 . S
C945 H915 0.950 1_545 S
C945 C940 1.363 . S
C945 C944 1.415 . S
H946 C943 0.999 . S
H947 C928 0.913 . S
H948 C966 0.951 . S
H949 C968 0.951 . S
H950 C970 0.950 . S
H951 C971 0.950 . S
H952 C973 0.950 . S
H953 C976 0.950 . S
H954 C977 0.950 . S
H955 C979 0.950 . S
H956 C980 0.950 . S
H957 C981 0.951 . S
H958 C983 0.951 . S
H959 C985 0.950 . S
H960 C986 0.950 . S
H961 C988 0.950 . S
H962 C991 0.950 . S
H963 C992 0.950 . S
H964 C994 0.950 . S
H965 C995 0.950 . S
C966 H948 0.951 . S
C966 C967 1.366 . S
C966 C968 1.388 . S
C967 C966 1.366 . S
C967 C971 1.385 . S
C968 H949 0.951 . S
C968 C966 1.388 . S
C968 C969 1.366 . S
C969 C968 1.366 . S
C969 C970 1.414 . S
C969 C972 1.499 . S
C970 H950 0.950 . S
C970 C969 1.414 . S
C970 C971 1.374 . S
C971 H951 0.950 . S
C971 C967 1.385 . S
C971 C970 1.374 . S
C972 C969 1.499 . S
C972 C973 1.373 . S
C972 C974 1.389 . S
C973 H952 0.950 . S
C973 C972 1.373 . S
C973 C989 1.377 . S
C974 C972 1.389 . S
C974 C975 1.524 . S
C974 C988 1.377 . S
C975 C974 1.524 . S
C975 C976 1.397 . S
C975 C980 1.363 . S
C976 H953 0.950 . S
C976 C975 1.397 . S
C976 C977 1.334 . S
C977 H954 0.950 . S
C977 C976 1.334 . S
C977 C978 1.287 . S
C978 C977 1.287 . S
C978 C979 1.524 . S
C978 H997 0.913 . S
C979 H955 0.950 . S
C979 C978 1.524 . S
C979 C980 1.415 . S
C980 H956 0.950 . S
C980 C975 1.363 . S
C980 C979 1.415 . S
C981 H957 0.951 . S
C981 C982 1.366 . S
C981 C983 1.388 . S
C982 C981 1.366 . S
C982 C986 1.385 . S
C983 H958 0.951 . S
C983 C981 1.388 . S
C983 C984 1.366 . S
C984 C983 1.366 . S
C984 C985 1.414 . S
C984 C987 1.499 . S
C985 H959 0.950 . S
C985 C984 1.414 . S
C985 C986 1.374 . S
C986 H960 0.950 . S
C986 C982 1.385 . S
C986 C985 1.374 . S
C987 C984 1.499 . S
C987 C988 1.373 . S
C987 C989 1.389 . S
C988 H961 0.950 . S
C988 C974 1.377 . S
C988 C987 1.373 . S
C989 C973 1.377 . S
C989 C987 1.389 . S
C989 C990 1.524 . S
C990 C989 1.524 . S
C990 C991 1.397 . S
C990 C995 1.363 . S
C991 H962 0.950 . S
C991 C990 1.397 . S
C991 C992 1.334 . S
C992 H963 0.950 . S
C992 C991 1.334 . S
C992 C993 1.287 . S
C993 C992 1.287 . S
C993 C994 1.524 . S
C993 H996 0.999 . S
C994 H964 0.950 . S
C994 C993 1.524 . S
C994 C995 1.415 . S
C995 H965 0.950 . S
C995 C990 1.363 . S
C995 C994 1.415 . S
H996 C993 0.999 . S
H997 C978 0.913 . S
H998 C1016 0.951 . S
H999 C1018 0.951 . S
H1000 C1020 0.950 . S
H1001 C1021 0.950 . S
H1002 C1023 0.950 . S
H1003 C1026 0.950 . S
H1004 C1027 0.950 . S
H1005 C1029 0.950 . S
H1006 C1030 0.950 . S
H1007 C1031 0.951 . S
H1008 C1033 0.951 . S
H1009 C1035 0.950 . S
H1010 C1036 0.950 . S
H1011 C1038 0.950 . S
H1012 C1041 0.950 . S
H1013 C1042 0.950 . S
H1014 C1044 0.950 . S
H1015 C1045 0.950 . S
C1016 H998 0.951 . S
C1016 C1017 1.366 . S
C1016 C1018 1.388 . S
C1017 C1016 1.366 . S
C1017 C1021 1.385 . S
C1018 H999 0.951 . S
C1018 C1016 1.388 . S
C1018 C1019 1.366 . S
C1019 C1018 1.366 . S
C1019 C1020 1.414 . S
C1019 C1022 1.499 . S
C1020 H1000 0.950 . S
C1020 C1019 1.414 . S
C1020 C1021 1.374 . S
C1021 H1001 0.950 . S
C1021 C1017 1.385 . S
C1021 C1020 1.374 . S
C1022 C1019 1.499 . S
C1022 C1023 1.373 . S
C1022 C1024 1.389 . S
C1023 H1002 0.950 . S
C1023 C1022 1.373 . S
C1023 C1039 1.377 . S
C1024 C1022 1.389 . S
C1024 C1025 1.524 . S
C1024 C1038 1.377 . S
C1025 C1024 1.524 . S
C1025 C1026 1.397 . S
C1025 C1030 1.363 . S
C1026 H1003 0.950 . S
C1026 C1025 1.397 . S
C1026 C1027 1.334 . S
C1027 H1004 0.950 . S
C1027 C1026 1.334 . S
C1027 C1028 1.287 . S
C1028 C1027 1.287 . S
C1028 C1029 1.524 . S
C1028 H1047 0.913 . S
C1029 H1005 0.950 . S
C1029 C1028 1.524 . S
C1029 C1030 1.415 . S
C1030 H1006 0.950 . S
C1030 C1025 1.363 . S
C1030 C1029 1.415 . S
C1031 H1007 0.951 . S
C1031 C1032 1.366 . S
C1031 C1033 1.388 . S
C1032 C1031 1.366 . S
C1032 C1036 1.385 . S
C1033 H1008 0.951 . S
C1033 C1031 1.388 . S
C1033 C1034 1.366 . S
C1034 C1033 1.366 . S
C1034 C1035 1.414 . S
C1034 C1037 1.499 . S
C1035 H1009 0.950 . S
C1035 C1034 1.414 . S
C1035 C1036 1.374 . S
C1036 H1010 0.950 . S
C1036 C1032 1.385 . S
C1036 C1035 1.374 . S
C1037 C1034 1.499 . S
C1037 C1038 1.373 . S
C1037 C1039 1.389 . S
C1038 H1011 0.950 . S
C1038 C1024 1.377 . S
C1038 C1037 1.373 . S
C1039 C1023 1.377 . S
C1039 C1037 1.389 . S
C1039 C1040 1.524 . S
C1040 C1039 1.524 . S
C1040 C1041 1.397 . S
C1040 C1045 1.363 . S
C1041 H1012 0.950 . S
C1041 C1040 1.397 . S
C1041 C1042 1.334 . S
C1042 H1013 0.950 . S
C1042 C1041 1.334 . S
C1042 C1043 1.287 . S
C1043 C1042 1.287 . S
C1043 C1044 1.524 . S
C1043 H1046 0.999 . S
C1044 H1014 0.950 . S
C1044 C1043 1.524 . S
C1044 C1045 1.415 . S
C1045 H1015 0.950 . S
C1045 C1040 1.363 . S
C1045 C1044 1.415 . S
H1046 C1043 0.999 . S
H1047 C1028 0.913 . S
H1048 C1066 0.951 . S
H1049 C1068 0.951 1_556 S
H1050 C1070 0.950 . S
H1051 C1071 0.950 . S
H1052 C1073 0.950 . S
H1053 C1076 0.950 . S
H1054 C1077 0.950 . S
H1055 C1079 0.950 1_655 S
H1056 C1080 0.919 1_655 S
H1057 C1081 0.951 . S
H1058 C1083 0.951 . S
H1059 C1085 0.950 1_655 S
H1060 C1086 0.950 . S
H1061 C1088 0.950 . S
H1062 C1091 0.950 . S
H1063 C1092 0.950 . S
H1064 C1094 0.950 . S
H1065 C1095 0.950 . S
C1066 H1048 0.951 . S
C1066 C1067 1.366 . S
C1066 C1068 1.388 . S
C1067 C1066 1.366 . S
C1067 C1071 1.385 1_655 S
C1068 H1049 0.951 1_554 S
C1068 C1066 1.388 . S
C1068 C1069 1.366 1_655 S
C1069 C1068 1.366 1_455 S
C1069 C1070 1.414 . S
C1069 C1072 1.499 . S
C1070 H1050 0.950 . S
C1070 C1069 1.414 . S
C1070 C1071 1.374 . S
C1071 H1051 0.950 . S
C1071 C1067 1.385 1_455 S
C1071 C1070 1.374 . S
C1072 C1069 1.499 . S
C1072 C1073 1.373 . S
C1072 C1074 1.389 1_554 S
C1073 H1052 0.950 . S
C1073 C1072 1.373 . S
C1073 C1089 1.377 . S
C1074 C1072 1.389 1_556 S
C1074 C1075 1.524 . S
C1074 C1088 1.377 . S
C1075 C1074 1.524 . S
C1075 C1076 1.397 . S
C1075 C1080 1.392 . S
C1076 H1053 0.950 . S
C1076 C1075 1.397 . S
C1076 C1077 1.334 . S
C1077 H1054 0.950 . S
C1077 C1076 1.334 . S
C1077 C1078 1.287 . S
C1078 C1077 1.287 . S
C1078 C1079 1.524 . S
C1078 H1097 0.913 . S
C1079 H1055 0.950 1_455 S
C1079 C1078 1.524 . S
C1079 C1080 1.420 . S
C1080 H1056 0.919 1_455 S
C1080 C1075 1.392 . S
C1080 C1079 1.420 . S
C1081 H1057 0.951 . S
C1081 C1082 1.366 . S
C1081 C1083 1.388 . S
C1082 C1081 1.366 . S
C1082 C1086 1.385 . S
C1083 H1058 0.951 . S
C1083 C1081 1.388 . S
C1083 C1084 1.366 . S
C1084 C1083 1.366 . S
C1084 C1085 1.414 . S
C1084 C1087 1.499 . S
C1085 H1059 0.950 1_455 S
C1085 C1084 1.414 . S
C1085 C1086 1.374 . S
C1086 H1060 0.950 . S
C1086 C1082 1.385 . S
C1086 C1085 1.374 . S
C1087 C1084 1.499 . S
C1087 C1088 1.373 . S
C1087 C1089 1.389 1_556 S
C1088 H1061 0.950 . S
C1088 C1074 1.377 . S
C1088 C1087 1.373 . S
C1089 C1073 1.377 . S
C1089 C1087 1.389 1_554 S
C1089 C1090 1.524 . S
C1090 C1089 1.524 . S
C1090 C1091 1.397 1_455 S
C1090 C1095 1.363 . S
C1091 H1062 0.950 . S
C1091 C1090 1.397 1_655 S
C1091 C1092 1.334 . S
C1092 H1063 0.950 . S
C1092 C1091 1.334 . S
C1092 C1093 1.287 1_655 S
C1093 C1092 1.287 1_455 S
C1093 C1094 1.524 . S
C1093 H1096 0.999 . S
C1094 H1064 0.950 . S
C1094 C1093 1.524 . S
C1094 C1095 1.415 . S
C1095 H1065 0.950 . S
C1095 C1090 1.363 . S
C1095 C1094 1.415 . S
H1096 C1093 0.999 . S
H1097 C1078 0.913 . S
H1098 C1116 0.951 . S
H1099 C1118 0.951 . S
H1100 C1120 0.950 1_556 S
H1101 C1121 0.950 . S
H1102 C1123 0.950 . S
H1103 C1126 0.950 . S
H1104 C1127 0.950 . S
H1105 C1129 0.950 . S
H1106 C1130 0.950 1_545 S
H1107 C1131 0.951 . S
H1108 C1133 0.951 . S
H1109 C1135 0.950 . S
H1110 C1136 0.950 . S
H1111 C1138 0.950 . S
H1112 C1141 0.950 . S
H1113 C1142 0.950 . S
H1114 C1144 0.950 . S
H1115 C1145 0.950 . S
C1116 H1098 0.951 . S
C1116 C1117 1.366 1_545 S
C1116 C1118 1.388 . S
C1117 C1116 1.366 1_565 S
C1117 C1121 1.385 . S
C1118 H1099 0.951 . S
C1118 C1116 1.388 . S
C1118 C1119 1.366 . S
C1119 C1118 1.366 . S
C1119 C1120 1.414 1_545 S
C1119 C1122 1.499 . S
C1120 H1100 0.950 1_554 S
C1120 C1119 1.414 1_565 S
C1120 C1121 1.374 . S
C1121 H1101 0.950 . S
C1121 C1117 1.385 . S
C1121 C1120 1.374 . S
C1122 C1119 1.499 . S
C1122 C1123 1.373 1_554 S
C1122 C1124 1.389 . S
C1123 H1102 0.950 . S
C1123 C1122 1.373 1_556 S
C1123 C1139 1.377 . S
C1124 C1122 1.389 . S
C1124 C1125 1.524 1_545 S
C1124 C1138 1.377 . S
C1125 C1124 1.524 1_565 S
C1125 C1126 1.397 . S
C1125 C1130 1.363 . S
C1126 H1103 0.950 . S
C1126 C1125 1.397 . S
C1126 C1127 1.334 . S
C1127 H1104 0.950 . S
C1127 C1126 1.334 . S
C1127 C1128 1.287 . S
C1128 C1127 1.287 . S
C1128 C1129 1.524 . S
C1128 H1147 0.913 . S
C1129 H1105 0.950 . S
C1129 C1128 1.524 . S
C1129 C1130 1.415 . S
C1130 H1106 0.950 1_565 S
C1130 C1125 1.363 . S
C1130 C1129 1.415 . S
C1131 H1107 0.951 . S
C1131 C1132 1.366 . S
C1131 C1133 1.388 . S
C1132 C1131 1.366 . S
C1132 C1136 1.385 . S
C1133 H1108 0.951 . S
C1133 C1131 1.388 . S
C1133 C1134 1.366 . S
C1134 C1133 1.366 . S
C1134 C1135 1.414 . S
C1134 C1137 1.499 . S
C1135 H1109 0.950 . S
C1135 C1134 1.414 . S
C1135 C1136 1.374 . S
C1136 H1110 0.950 . S
C1136 C1132 1.385 . S
C1136 C1135 1.374 . S
C1137 C1134 1.499 . S
C1137 C1138 1.373 1_556 S
C1137 C1139 1.389 . S
C1138 H1111 0.950 . S
C1138 C1124 1.377 . S
C1138 C1137 1.373 1_554 S
C1139 C1123 1.377 . S
C1139 C1137 1.389 . S
C1139 C1140 1.524 . S
C1140 C1139 1.524 . S
C1140 C1141 1.397 . S
C1140 C1145 1.363 . S
C1141 H1112 0.950 . S
C1141 C1140 1.397 . S
C1141 C1142 1.334 . S
C1142 H1113 0.950 . S
C1142 C1141 1.334 . S
C1142 C1143 1.287 . S
C1143 C1142 1.287 . S
C1143 C1144 1.524 . S
C1143 H1146 0.999 . S
C1144 H1114 0.950 . S
C1144 C1143 1.524 . S
C1144 C1145 1.415 . S
C1145 H1115 0.950 . S
C1145 C1140 1.363 . S
C1145 C1144 1.415 . S
H1146 C1143 0.999 . S
H1147 C1128 0.913 . S
H1148 C1166 0.951 . S
H1149 C1168 0.951 . S
H1150 C1170 0.950 . S
H1151 C1171 0.950 . S
H1152 C1173 0.950 . S
H1153 C1176 0.950 . S
H1154 C1177 0.950 . S
H1155 C1179 0.950 . S
H1156 C1180 0.950 . S
H1157 C1181 0.951 . S
H1158 C1183 0.951 . S
H1159 C1185 0.950 . S
H1160 C1186 0.950 . S
H1161 C1188 0.950 . S
H1162 C1191 0.950 . S
H1163 C1192 0.950 . S
H1164 C1194 0.950 . S
H1165 C1195 0.945 1_556 S
C1166 H1148 0.951 . S
C1166 C1167 1.366 . S
C1166 C1168 1.388 . S
C1167 C1166 1.366 . S
C1167 C1171 1.385 . S
C1168 H1149 0.951 . S
C1168 C1166 1.388 . S
C1168 C1169 1.366 . S
C1169 C1168 1.366 . S
C1169 C1170 1.414 . S
C1169 C1172 1.499 . S
C1170 H1150 0.950 . S
C1170 C1169 1.414 . S
C1170 C1171 1.374 . S
C1171 H1151 0.950 . S
C1171 C1167 1.385 . S
C1171 C1170 1.374 . S
C1172 C1169 1.499 . S
C1172 C1173 1.373 . S
C1172 C1174 1.389 1_554 S
C1173 H1152 0.950 . S
C1173 C1172 1.373 . S
C1173 C1189 1.377 1_554 S
C1174 C1172 1.389 1_556 S
C1174 C1175 1.524 . S
C1174 C1188 1.377 . S
C1175 C1174 1.524 . S
C1175 C1176 1.397 . S
C1175 C1180 1.363 . S
C1176 H1153 0.950 . S
C1176 C1175 1.397 . S
C1176 C1177 1.334 . S
C1177 H1154 0.950 . S
C1177 C1176 1.334 . S
C1177 C1178 1.287 . S
C1178 C1177 1.287 . S
C1178 C1179 1.524 . S
C1178 H1197 0.913 . S
C1179 H1155 0.950 . S
C1179 C1178 1.524 . S
C1179 C1180 1.415 . S
C1180 H1156 0.950 . S
C1180 C1175 1.363 . S
C1180 C1179 1.415 . S
C1181 H1157 0.951 . S
C1181 C1182 1.366 . S
C1181 C1183 1.388 . S
C1182 C1181 1.366 . S
C1182 C1186 1.385 . S
C1183 H1158 0.951 . S
C1183 C1181 1.388 . S
C1183 C1184 1.366 . S
C1184 C1183 1.366 . S
C1184 C1185 1.414 . S
C1184 C1187 1.499 . S
C1185 H1159 0.950 . S
C1185 C1184 1.414 . S
C1185 C1186 1.374 . S
C1186 H1160 0.950 . S
C1186 C1182 1.385 . S
C1186 C1185 1.374 . S
C1187 C1184 1.499 . S
C1187 C1188 1.373 . S
C1187 C1189 1.389 . S
C1188 H1161 0.950 . S
C1188 C1174 1.377 . S
C1188 C1187 1.373 . S
C1189 C1173 1.377 1_556 S
C1189 C1187 1.389 . S
C1189 C1190 1.524 1_556 S
C1190 C1189 1.524 1_554 S
C1190 C1191 1.397 . S
C1190 C1195 1.363 . S
C1191 H1162 0.950 . S
C1191 C1190 1.397 . S
C1191 C1192 1.334 . S
C1192 H1163 0.950 . S
C1192 C1191 1.334 . S
C1192 C1193 1.287 . S
C1193 C1192 1.287 . S
C1193 C1194 1.524 . S
C1193 H1196 0.999 . S
C1194 H1164 0.950 . S
C1194 C1193 1.524 . S
C1194 C1195 1.415 . S
C1195 H1165 0.945 1_554 S
C1195 C1190 1.363 . S
C1195 C1194 1.415 . S
H1196 C1193 0.999 . S
H1197 C1178 0.913 . S
H1198 C1216 0.951 . S
H1199 C1218 0.951 . S
H1200 C1220 0.950 . S
H1201 C1221 0.950 . S
H1202 C1223 0.950 . S
H1203 C1226 0.950 . S
H1204 C1227 0.950 . S
H1205 C1229 0.956 . S
H1206 C1230 0.950 . S
H1207 C1231 0.951 . S
H1208 C1233 0.951 . S
H1209 C1235 0.950 . S
H1210 C1236 0.950 . S
H1211 C1238 0.950 . S
H1212 C1241 0.950 . S
H1213 C1242 0.950 . S
H1214 C1244 0.950 . S
H1215 C1245 0.950 . S
C1216 H1198 0.951 . S
C1216 C1217 1.366 . S
C1216 C1218 1.388 . S
C1217 C1216 1.366 . S
C1217 C1221 1.385 . S
C1218 H1199 0.951 . S
C1218 C1216 1.388 . S
C1218 C1219 1.366 . S
C1219 C1218 1.366 . S
C1219 C1220 1.414 . S
C1219 C1222 1.499 . S
C1220 H1200 0.950 . S
C1220 C1219 1.414 . S
C1220 C1221 1.374 . S
C1221 H1201 0.950 . S
C1221 C1217 1.385 . S
C1221 C1220 1.374 . S
C1222 C1219 1.499 . S
C1222 C1223 1.373 . S
C1222 C1224 1.389 1_554 S
C1223 H1202 0.950 . S
C1223 C1222 1.373 . S
C1223 C1239 1.377 1_554 S
C1224 C1222 1.389 1_556 S
C1224 C1225 1.524 . S
C1224 C1238 1.377 . S
C1225 C1224 1.524 . S
C1225 C1226 1.397 . S
C1225 C1230 1.363 1_556 S
C1226 H1203 0.950 . S
C1226 C1225 1.397 . S
C1226 C1227 1.334 . S
C1227 H1204 0.950 . S
C1227 C1226 1.334 . S
C1227 C1228 1.287 . S
C1228 C1227 1.287 . S
C1228 C1229 1.516 1_556 S
C1228 H1247 0.913 . S
C1229 H1205 0.956 . S
C1229 C1228 1.516 1_554 S
C1229 C1230 1.416 . S
C1230 H1206 0.950 . S
C1230 C1225 1.363 1_554 S
C1230 C1229 1.416 . S
C1231 H1207 0.951 . S
C1231 C1232 1.366 . S
C1231 C1233 1.388 . S
C1232 C1231 1.366 . S
C1232 C1236 1.385 . S
C1233 H1208 0.951 . S
C1233 C1231 1.388 . S
C1233 C1234 1.366 . S
C1234 C1233 1.366 . S
C1234 C1235 1.414 . S
C1234 C1237 1.499 . S
C1235 H1209 0.950 . S
C1235 C1234 1.414 . S
C1235 C1236 1.374 . S
C1236 H1210 0.950 . S
C1236 C1232 1.385 . S
C1236 C1235 1.374 . S
C1237 C1234 1.499 . S
C1237 C1238 1.373 . S
C1237 C1239 1.389 . S
C1238 H1211 0.950 . S
C1238 C1224 1.377 . S
C1238 C1237 1.373 . S
C1239 C1223 1.377 1_556 S
C1239 C1237 1.389 . S
C1239 C1240 1.524 . S
C1240 C1239 1.524 . S
C1240 C1241 1.397 1_556 S
C1240 C1245 1.363 . S
C1241 H1212 0.950 . S
C1241 C1240 1.397 1_554 S
C1241 C1242 1.334 . S
C1242 H1213 0.950 . S
C1242 C1241 1.334 . S
C1242 C1243 1.287 1_554 S
C1243 C1242 1.287 1_556 S
C1243 C1244 1.524 . S
C1243 H1246 0.999 . S
C1244 H1214 0.950 . S
C1244 C1243 1.524 . S
C1244 C1245 1.415 . S
C1245 H1215 0.950 . S
C1245 C1240 1.363 . S
C1245 C1244 1.415 . S
H1246 C1243 0.999 . S
H1247 C1228 0.913 . S
H1248 C1266 0.951 . S
H1249 C1268 0.951 . S
H1250 C1270 0.950 . S
H1251 C1271 0.950 . S
H1252 C1273 0.950 . S
H1253 C1276 0.950 . S
H1254 C1277 0.950 . S
H1255 C1279 0.950 . S
H1256 C1280 0.950 . S
H1257 C1281 0.951 . S
H1258 C1283 0.951 . S
H1259 C1285 0.950 . S
H1260 C1286 0.950 . S
H1261 C1288 0.950 . S
H1262 C1291 0.986 . S
H1263 C1292 0.950 . S
H1264 C1294 0.950 . S
H1265 C1295 0.950 . S
C1266 H1248 0.951 . S
C1266 C1267 1.366 . S
C1266 C1268 1.388 . S
C1267 C1266 1.366 . S
C1267 C1271 1.385 1_455 S
C1268 H1249 0.951 . S
C1268 C1266 1.388 . S
C1268 C1269 1.366 . S
C1269 C1268 1.366 . S
C1269 C1270 1.414 1_455 S
C1269 C1272 1.499 . S
C1270 H1250 0.950 . S
C1270 C1269 1.414 1_655 S
C1270 C1271 1.374 . S
C1271 H1251 0.950 . S
C1271 C1267 1.385 1_655 S
C1271 C1270 1.374 . S
C1272 C1269 1.499 . S
C1272 C1273 1.373 1_455 S
C1272 C1274 1.389 . S
C1273 H1252 0.950 . S
C1273 C1272 1.373 1_655 S
C1273 C1289 1.377 . S
C1274 C1272 1.389 . S
C1274 C1275 1.524 . S
C1274 C1288 1.377 . S
C1275 C1274 1.524 . S
C1275 C1276 1.397 . S
C1275 C1280 1.363 . S
C1276 H1253 0.950 . S
C1276 C1275 1.397 . S
C1276 C1277 1.334 . S
C1277 H1254 0.950 . S
C1277 C1276 1.334 . S
C1277 C1278 1.287 . S
C1278 C1277 1.287 . S
C1278 C1279 1.524 . S
C1278 H1297 0.913 . S
C1279 H1255 0.950 . S
C1279 C1278 1.524 . S
C1279 C1280 1.415 . S
C1280 H1256 0.950 . S
C1280 C1275 1.363 . S
C1280 C1279 1.415 . S
C1281 H1257 0.951 . S
C1281 C1282 1.366 1_655 S
C1281 C1283 1.388 . S
C1282 C1281 1.366 1_455 S
C1282 C1286 1.385 . S
C1283 H1258 0.951 . S
C1283 C1281 1.388 . S
C1283 C1284 1.366 1_655 S
C1284 C1283 1.366 1_455 S
C1284 C1285 1.414 . S
C1284 C1287 1.499 . S
C1285 H1259 0.950 . S
C1285 C1284 1.414 . S
C1285 C1286 1.374 . S
C1286 H1260 0.950 . S
C1286 C1282 1.385 . S
C1286 C1285 1.374 . S
C1287 C1284 1.499 . S
C1287 C1288 1.373 . S
C1287 C1289 1.389 1_455 S
C1288 H1261 0.950 . S
C1288 C1274 1.377 . S
C1288 C1287 1.373 . S
C1289 C1273 1.377 . S
C1289 C1287 1.389 1_655 S
C1289 C1290 1.524 . S
C1290 C1289 1.524 . S
C1290 C1291 1.397 . S
C1290 C1295 1.363 . S
C1291 H1262 0.986 . S
C1291 C1290 1.397 . S
C1291 C1292 1.334 . S
C1292 H1263 0.950 . S
C1292 C1291 1.334 . S
C1292 C1293 1.287 . S
C1293 C1292 1.287 . S
C1293 C1294 1.524 . S
C1293 H1296 0.999 . S
C1294 H1264 0.950 . S
C1294 C1293 1.524 . S
C1294 C1295 1.415 . S
C1295 H1265 0.950 . S
C1295 C1290 1.363 . S
C1295 C1294 1.415 . S
H1296 C1293 0.999 . S
H1297 C1278 0.913 . S
H1298 C1316 0.951 . S
H1299 C1318 0.951 . S
H1300 C1320 0.948 . S
H1301 C1321 0.954 . S
H1302 C1323 0.950 . S
H1303 C1326 0.950 . S
H1304 C1327 0.950 . S
H1305 C1329 0.950 . S
H1306 C1330 0.950 . S
H1307 C1331 0.951 . S
H1308 C1333 0.951 . S
H1309 C1335 0.950 . S
H1310 C1336 0.950 . S
H1311 C1338 0.950 . S
H1312 C1341 0.950 . S
H1313 C1342 0.950 . S
H1314 C1344 0.950 . S
H1315 C1345 0.950 . S
C1316 H1298 0.951 . S
C1316 C1317 1.366 . S
C1316 C1318 1.388 . S
C1317 C1316 1.366 . S
C1317 C1321 1.382 1_545 S
C1318 H1299 0.951 . S
C1318 C1316 1.388 . S
C1318 C1319 1.366 . S
C1319 C1318 1.366 . S
C1319 C1320 1.414 1_545 S
C1319 C1322 1.499 . S
C1320 H1300 0.948 . S
C1320 C1319 1.414 1_565 S
C1320 C1321 1.373 . S
C1321 H1301 0.954 . S
C1321 C1317 1.382 1_565 S
C1321 C1320 1.373 . S
C1322 C1319 1.499 . S
C1322 C1323 1.373 . S
C1322 C1324 1.389 1_545 S
C1323 H1302 0.950 . S
C1323 C1322 1.373 . S
C1323 C1339 1.377 . S
C1324 C1322 1.389 1_565 S
C1324 C1325 1.524 . S
C1324 C1338 1.377 . S
C1325 C1324 1.524 . S
C1325 C1326 1.397 . S
C1325 C1330 1.363 . S
C1326 H1303 0.950 . S
C1326 C1325 1.397 . S
C1326 C1327 1.334 . S
C1327 H1304 0.950 . S
C1327 C1326 1.334 . S
C1327 C1328 1.287 . S
C1328 C1327 1.287 . S
C1328 C1329 1.524 . S
C1328 H1347 0.913 . S
C1329 H1305 0.950 . S
C1329 C1328 1.524 . S
C1329 C1330 1.415 . S
C1330 H1306 0.950 . S
C1330 C1325 1.363 . S
C1330 C1329 1.415 . S
C1331 H1307 0.951 . S
C1331 C1332 1.366 . S
C1331 C1333 1.388 . S
C1332 C1331 1.366 . S
C1332 C1336 1.385 . S
C1333 H1308 0.951 . S
C1333 C1331 1.388 . S
C1333 C1334 1.366 . S
C1334 C1333 1.366 . S
C1334 C1335 1.414 . S
C1334 C1337 1.499 . S
C1335 H1309 0.950 . S
C1335 C1334 1.414 . S
C1335 C1336 1.374 . S
C1336 H1310 0.950 . S
C1336 C1332 1.385 . S
C1336 C1335 1.374 . S
C1337 C1334 1.499 . S
C1337 C1338 1.373 1_545 S
C1337 C1339 1.389 . S
C1338 H1311 0.950 . S
C1338 C1324 1.377 . S
C1338 C1337 1.373 1_565 S
C1339 C1323 1.377 . S
C1339 C1337 1.389 . S
C1339 C1340 1.524 . S
C1340 C1339 1.524 . S
C1340 C1341 1.397 . S
C1340 C1345 1.363 . S
C1341 H1312 0.950 . S
C1341 C1340 1.397 . S
C1341 C1342 1.334 . S
C1342 H1313 0.950 . S
C1342 C1341 1.334 . S
C1342 C1343 1.287 . S
C1343 C1342 1.287 . S
C1343 C1344 1.524 . S
C1343 H1346 0.999 . S
C1344 H1314 0.950 . S
C1344 C1343 1.524 . S
C1344 C1345 1.415 . S
C1345 H1315 0.950 . S
C1345 C1340 1.363 . S
C1345 C1344 1.415 . S
H1346 C1343 0.999 . S
H1347 C1328 0.913 . S
H1348 C1366 0.951 . S
H1349 C1368 0.951 . S
H1350 C1370 0.950 . S
H1351 C1371 0.950 . S
H1352 C1373 0.950 . S
H1353 C1376 0.950 . S
H1354 C1377 0.950 . S
H1355 C1379 0.950 . S
H1356 C1380 0.950 . S
H1357 C1381 0.951 . S
H1358 C1383 0.951 . S
H1359 C1385 0.950 . S
H1360 C1386 0.950 . S
H1361 C1388 0.950 . S
H1362 C1391 0.950 . S
H1363 C1392 0.950 . S
H1364 C1394 0.950 . S
H1365 C1395 0.950 . S
C1366 H1348 0.951 . S
C1366 C1367 1.366 . S
C1366 C1368 1.388 . S
C1367 C1366 1.366 . S
C1367 C1371 1.385 . S
C1368 H1349 0.951 . S
C1368 C1366 1.388 . S
C1368 C1369 1.366 . S
C1369 C1368 1.366 . S
C1369 C1370 1.414 . S
C1369 C1372 1.499 . S
C1370 H1350 0.950 . S
C1370 C1369 1.414 . S
C1370 C1371 1.374 . S
C1371 H1351 0.950 . S
C1371 C1367 1.385 . S
C1371 C1370 1.374 . S
C1372 C1369 1.499 . S
C1372 C1373 1.373 . S
C1372 C1374 1.389 . S
C1373 H1352 0.950 . S
C1373 C1372 1.373 . S
C1373 C1389 1.377 . S
C1374 C1372 1.389 . S
C1374 C1375 1.524 . S
C1374 C1388 1.377 . S
C1375 C1374 1.524 . S
C1375 C1376 1.397 . S
C1375 C1380 1.363 . S
C1376 H1353 0.950 . S
C1376 C1375 1.397 . S
C1376 C1377 1.334 . S
C1377 H1354 0.950 . S
C1377 C1376 1.334 . S
C1377 C1378 1.287 . S
C1378 C1377 1.287 . S
C1378 C1379 1.524 . S
C1378 H1397 0.913 . S
C1379 H1355 0.950 . S
C1379 C1378 1.524 . S
C1379 C1380 1.415 . S
C1380 H1356 0.950 . S
C1380 C1375 1.363 . S
C1380 C1379 1.415 . S
C1381 H1357 0.951 . S
C1381 C1382 1.366 . S
C1381 C1383 1.388 . S
C1382 C1381 1.366 . S
C1382 C1386 1.385 . S
C1383 H1358 0.951 . S
C1383 C1381 1.388 . S
C1383 C1384 1.366 . S
C1384 C1383 1.366 . S
C1384 C1385 1.414 . S
C1384 C1387 1.499 . S
C1385 H1359 0.950 . S
C1385 C1384 1.414 . S
C1385 C1386 1.374 . S
C1386 H1360 0.950 . S
C1386 C1382 1.385 . S
C1386 C1385 1.374 . S
C1387 C1384 1.499 . S
C1387 C1388 1.373 . S
C1387 C1389 1.389 . S
C1388 H1361 0.950 . S
C1388 C1374 1.377 . S
C1388 C1387 1.373 . S
C1389 C1373 1.377 . S
C1389 C1387 1.389 . S
C1389 C1390 1.524 . S
C1390 C1389 1.524 . S
C1390 C1391 1.397 . S
C1390 C1395 1.363 . S
C1391 H1362 0.950 . S
C1391 C1390 1.397 . S
C1391 C1392 1.334 . S
C1392 H1363 0.950 . S
C1392 C1391 1.334 . S
C1392 C1393 1.287 . S
C1393 C1392 1.287 . S
C1393 C1394 1.524 . S
C1393 H1396 0.999 . S
C1394 H1364 0.950 . S
C1394 C1393 1.524 . S
C1394 C1395 1.415 . S
C1395 H1365 0.950 . S
C1395 C1390 1.363 . S
C1395 C1394 1.415 . S
H1396 C1393 0.999 . S
H1397 C1378 0.913 . S
H1398 C1416 0.951 . S
H1399 C1418 0.951 . S
H1400 C1420 0.950 . S
H1401 C1421 0.950 . S
H1402 C1423 0.950 . S
H1403 C1426 0.950 . S
H1404 C1427 0.950 . S
H1405 C1429 0.950 . S
H1406 C1430 0.950 . S
H1407 C1431 0.951 . S
H1408 C1433 0.951 . S
H1409 C1435 0.950 . S
H1410 C1436 0.950 . S
H1411 C1438 0.950 . S
H1412 C1441 0.950 . S
H1413 C1442 0.950 . S
H1414 C1444 0.950 . S
H1415 C1445 0.950 . S
C1416 H1398 0.951 . S
C1416 C1417 1.366 . S
C1416 C1418 1.388 . S
C1417 C1416 1.366 . S
C1417 C1421 1.385 . S
C1418 H1399 0.951 . S
C1418 C1416 1.388 . S
C1418 C1419 1.366 . S
C1419 C1418 1.366 . S
C1419 C1420 1.414 . S
C1419 C1422 1.499 . S
C1420 H1400 0.950 . S
C1420 C1419 1.414 . S
C1420 C1421 1.374 . S
C1421 H1401 0.950 . S
C1421 C1417 1.385 . S
C1421 C1420 1.374 . S
C1422 C1419 1.499 . S
C1422 C1423 1.373 . S
C1422 C1424 1.389 . S
C1423 H1402 0.950 . S
C1423 C1422 1.373 . S
C1423 C1439 1.377 . S
C1424 C1422 1.389 . S
C1424 C1425 1.524 . S
C1424 C1438 1.377 . S
C1425 C1424 1.524 . S
C1425 C1426 1.397 . S
C1425 C1430 1.363 . S
C1426 H1403 0.950 . S
C1426 C1425 1.397 . S
C1426 C1427 1.334 . S
C1427 H1404 0.950 . S
C1427 C1426 1.334 . S
C1427 C1428 1.287 . S
C1428 C1427 1.287 . S
C1428 C1429 1.524 . S
C1428 H1447 0.913 . S
C1429 H1405 0.950 . S
C1429 C1428 1.524 . S
C1429 C1430 1.415 . S
C1430 H1406 0.950 . S
C1430 C1425 1.363 . S
C1430 C1429 1.415 . S
C1431 H1407 0.951 . S
C1431 C1432 1.366 . S
C1431 C1433 1.388 . S
C1432 C1431 1.366 . S
C1432 C1436 1.385 . S
C1433 H1408 0.951 . S
C1433 C1431 1.388 . S
C1433 C1434 1.366 . S
C1434 C1433 1.366 . S
C1434 C1435 1.414 . S
C1434 C1437 1.499 . S
C1435 H1409 0.950 . S
C1435 C1434 1.414 . S
C1435 C1436 1.374 . S
C1436 H1410 0.950 . S
C1436 C1432 1.385 . S
C1436 C1435 1.374 . S
C1437 C1434 1.499 . S
C1437 C1438 1.373 . S
C1437 C1439 1.389 . S
C1438 H1411 0.950 . S
C1438 C1424 1.377 . S
C1438 C1437 1.373 . S
C1439 C1423 1.377 . S
C1439 C1437 1.389 . S
C1439 C1440 1.524 . S
C1440 C1439 1.524 . S
C1440 C1441 1.397 . S
C1440 C1445 1.363 . S
C1441 H1412 0.950 . S
C1441 C1440 1.397 . S
C1441 C1442 1.334 . S
C1442 H1413 0.950 . S
C1442 C1441 1.334 . S
C1442 C1443 1.287 . S
C1443 C1442 1.287 . S
C1443 C1444 1.524 . S
C1443 H1446 0.999 . S
C1444 H1414 0.950 . S
C1444 C1443 1.524 . S
C1444 C1445 1.415 . S
C1445 H1415 0.950 . S
C1445 C1440 1.363 . S
C1445 C1444 1.415 . S
H1446 C1443 0.999 . S
H1447 C1428 0.913 . S
H1448 C1466 0.951 . S
H1449 C1468 0.951 . S
H1450 C1470 0.950 . S
H1451 C1471 0.950 . S
H1452 C1473 0.950 . S
H1453 C1476 0.950 . S
H1454 C1477 0.950 . S
H1455 C1479 0.950 . S
H1456 C1480 0.950 . S
H1457 C1481 0.951 . S
H1458 C1483 0.951 . S
H1459 C1485 0.950 . S
H1460 C1486 0.950 . S
H1461 C1488 0.950 . S
H1462 C1491 0.950 . S
H1463 C1492 0.950 . S
H1464 C1494 0.950 . S
H1465 C1495 0.950 . S
C1466 H1448 0.951 . S
C1466 C1467 1.366 1_455 S
C1466 C1468 1.388 . S
C1467 C1466 1.366 1_655 S
C1467 C1471 1.385 . S
C1468 H1449 0.951 . S
C1468 C1466 1.388 . S
C1468 C1469 1.366 1_455 S
C1469 C1468 1.366 1_655 S
C1469 C1470 1.414 . S
C1469 C1472 1.499 . S
C1470 H1450 0.950 . S
C1470 C1469 1.414 . S
C1470 C1471 1.374 . S
C1471 H1451 0.950 . S
C1471 C1467 1.385 . S
C1471 C1470 1.374 . S
C1472 C1469 1.499 . S
C1472 C1473 1.373 . S
C1472 C1474 1.389 1_655 S
C1473 H1452 0.950 . S
C1473 C1472 1.373 . S
C1473 C1489 1.377 . S
C1474 C1472 1.389 1_455 S
C1474 C1475 1.524 . S
C1474 C1488 1.377 . S
C1475 C1474 1.524 . S
C1475 C1476 1.397 . S
C1475 C1480 1.363 . S
C1476 H1453 0.950 . S
C1476 C1475 1.397 . S
C1476 C1477 1.334 . S
C1477 H1454 0.950 . S
C1477 C1476 1.334 . S
C1477 C1478 1.287 . S
C1478 C1477 1.287 . S
C1478 C1479 1.524 . S
C1478 H1497 0.913 . S
C1479 H1455 0.950 . S
C1479 C1478 1.524 . S
C1479 C1480 1.415 . S
C1480 H1456 0.950 . S
C1480 C1475 1.363 . S
C1480 C1479 1.415 . S
C1481 H1457 0.951 . S
C1481 C1482 1.366 . S
C1481 C1483 1.388 . S
C1482 C1481 1.366 . S
C1482 C1486 1.385 1_655 S
C1483 H1458 0.951 . S
C1483 C1481 1.388 . S
C1483 C1484 1.366 . S
C1484 C1483 1.366 . S
C1484 C1485 1.414 1_655 S
C1484 C1487 1.499 . S
C1485 H1459 0.950 . S
C1485 C1484 1.414 1_455 S
C1485 C1486 1.374 . S
C1486 H1460 0.950 . S
C1486 C1482 1.385 1_455 S
C1486 C1485 1.374 . S
C1487 C1484 1.499 . S
C1487 C1488 1.373 1_655 S
C1487 C1489 1.389 . S
C1488 H1461 0.950 . S
C1488 C1474 1.377 . S
C1488 C1487 1.373 1_455 S
C1489 C1473 1.377 . S
C1489 C1487 1.389 . S
C1489 C1490 1.524 . S
C1490 C1489 1.524 . S
C1490 C1491 1.397 . S
C1490 C1495 1.363 . S
C1491 H1462 0.950 . S
C1491 C1490 1.397 . S
C1491 C1492 1.334 . S
C1492 H1463 0.950 . S
C1492 C1491 1.334 . S
C1492 C1493 1.287 . S
C1493 C1492 1.287 . S
C1493 C1494 1.524 . S
C1493 H1496 0.999 . S
C1494 H1464 0.950 . S
C1494 C1493 1.524 . S
C1494 C1495 1.415 . S
C1495 H1465 0.950 . S
C1495 C1490 1.363 . S
C1495 C1494 1.415 . S
H1496 C1493 0.999 . S
H1497 C1478 0.913 . S
H1498 C1516 0.951 . S
H1499 C1518 0.951 . S
H1500 C1520 0.950 . S
H1501 C1521 0.950 . S
H1502 C1523 0.950 . S
H1503 C1526 0.950 . S
H1504 C1527 0.950 . S
H1505 C1529 0.950 . S
H1506 C1530 0.950 . S
H1507 C1531 0.951 . S
H1508 C1533 0.951 . S
H1509 C1535 0.950 . S
H1510 C1536 0.950 . S
H1511 C1538 0.950 . S
H1512 C1541 0.950 . S
H1513 C1542 0.950 . S
H1514 C1544 0.950 . S
H1515 C1545 0.950 . S
C1516 H1498 0.951 . S
C1516 C1517 1.403 . S
C1516 C1518 1.388 . S
C1517 C1516 1.403 . S
C1517 C1521 1.352 1_565 S
C1518 H1499 0.951 . S
C1518 C1516 1.388 . S
C1518 C1519 1.366 . S
C1519 C1518 1.366 . S
C1519 C1520 1.414 1_565 S
C1519 C1522 1.499 . S
C1520 H1500 0.950 . S
C1520 C1519 1.414 1_545 S
C1520 C1521 1.374 . S
C1521 H1501 0.950 . S
C1521 C1517 1.352 1_545 S
C1521 C1520 1.374 . S
C1522 C1519 1.499 . S
C1522 C1523 1.373 1_565 S
C1522 C1524 1.389 . S
C1523 H1502 0.950 . S
C1523 C1522 1.373 1_545 S
C1523 C1539 1.377 . S
C1524 C1522 1.389 . S
C1524 C1525 1.524 . S
C1524 C1538 1.377 . S
C1525 C1524 1.524 . S
C1525 C1526 1.397 . S
C1525 C1530 1.363 . S
C1526 H1503 0.950 . S
C1526 C1525 1.397 . S
C1526 C1527 1.334 . S
C1527 H1504 0.950 . S
C1527 C1526 1.334 . S
C1527 C1528 1.287 . S
C1528 C1527 1.287 . S
C1528 C1529 1.524 . S
C1528 H1547 0.913 . S
C1529 H1505 0.950 . S
C1529 C1528 1.524 . S
C1529 C1530 1.415 . S
C1530 H1506 0.950 . S
C1530 C1525 1.363 . S
C1530 C1529 1.415 . S
C1531 H1507 0.951 . S
C1531 C1532 1.366 1_545 S
C1531 C1533 1.388 . S
C1532 C1531 1.366 1_565 S
C1532 C1536 1.385 . S
C1533 H1508 0.951 . S
C1533 C1531 1.388 . S
C1533 C1534 1.366 1_545 S
C1534 C1533 1.366 1_565 S
C1534 C1535 1.414 . S
C1534 C1537 1.499 . S
C1535 H1509 0.950 . S
C1535 C1534 1.414 . S
C1535 C1536 1.374 . S
C1536 H1510 0.950 . S
C1536 C1532 1.385 . S
C1536 C1535 1.374 . S
C1537 C1534 1.499 . S
C1537 C1538 1.373 . S
C1537 C1539 1.389 1_565 S
C1538 H1511 0.950 . S
C1538 C1524 1.377 . S
C1538 C1537 1.373 . S
C1539 C1523 1.377 . S
C1539 C1537 1.389 1_545 S
C1539 C1540 1.524 . S
C1540 C1539 1.524 . S
C1540 C1541 1.397 . S
C1540 C1545 1.363 . S
C1541 H1512 0.950 . S
C1541 C1540 1.397 . S
C1541 C1542 1.334 . S
C1542 H1513 0.950 . S
C1542 C1541 1.334 . S
C1542 C1543 1.287 . S
C1543 C1542 1.287 . S
C1543 C1544 1.524 . S
C1543 H1546 0.999 . S
C1544 H1514 0.950 . S
C1544 C1543 1.524 . S
C1544 C1545 1.415 . S
C1545 H1515 0.950 . S
C1545 C1540 1.363 . S
C1545 C1544 1.415 . S
H1546 C1543 0.999 . S
H1547 C1528 0.913 . S
H1548 C1566 0.951 . S
H1549 C1568 0.951 . S
H1550 C1570 0.950 . S
H1551 C1571 0.950 . S
H1552 C1573 0.950 . S
H1553 C1576 0.950 . S
H1554 C1577 0.950 . S
H1555 C1579 0.950 . S
H1556 C1580 0.950 . S
H1557 C1581 0.951 . S
H1558 C1583 0.951 . S
H1559 C1585 0.950 . S
H1560 C1586 0.950 . S
H1561 C1588 0.950 . S
H1562 C1591 0.950 . S
H1563 C1592 0.950 . S
H1564 C1594 0.950 . S
H1565 C1595 0.950 . S
C1566 H1548 0.951 . S
C1566 C1567 1.366 . S
C1566 C1568 1.388 . S
C1567 C1566 1.366 . S
C1567 C1571 1.385 . S
C1568 H1549 0.951 . S
C1568 C1566 1.388 . S
C1568 C1569 1.366 . S
C1569 C1568 1.366 . S
C1569 C1570 1.414 . S
C1569 C1572 1.499 . S
C1570 H1550 0.950 . S
C1570 C1569 1.414 . S
C1570 C1571 1.374 . S
C1571 H1551 0.950 . S
C1571 C1567 1.385 . S
C1571 C1570 1.374 . S
C1572 C1569 1.499 . S
C1572 C1573 1.373 . S
C1572 C1574 1.389 . S
C1573 H1552 0.950 . S
C1573 C1572 1.373 . S
C1573 C1589 1.377 . S
C1574 C1572 1.389 . S
C1574 C1575 1.524 . S
C1574 C1588 1.377 . S
C1575 C1574 1.524 . S
C1575 C1576 1.397 . S
C1575 C1580 1.363 . S
C1576 H1553 0.950 . S
C1576 C1575 1.397 . S
C1576 C1577 1.334 . S
C1577 H1554 0.950 . S
C1577 C1576 1.334 . S
C1577 C1578 1.287 . S
C1578 C1577 1.287 . S
C1578 C1579 1.524 . S
C1578 H1597 0.913 . S
C1579 H1555 0.950 . S
C1579 C1578 1.524 . S
C1579 C1580 1.415 . S
C1580 H1556 0.950 . S
C1580 C1575 1.363 . S
C1580 C1579 1.415 . S
C1581 H1557 0.951 . S
C1581 C1582 1.366 . S
C1581 C1583 1.388 . S
C1582 C1581 1.366 . S
C1582 C1586 1.385 . S
C1583 H1558 0.951 . S
C1583 C1581 1.388 . S
C1583 C1584 1.366 . S
C1584 C1583 1.366 . S
C1584 C1585 1.414 . S
C1584 C1587 1.499 . S
C1585 H1559 0.950 . S
C1585 C1584 1.414 . S
C1585 C1586 1.374 . S
C1586 H1560 0.950 . S
C1586 C1582 1.385 . S
C1586 C1585 1.374 . S
C1587 C1584 1.499 . S
C1587 C1588 1.373 . S
C1587 C1589 1.389 . S
C1588 H1561 0.950 . S
C1588 C1574 1.377 . S
C1588 C1587 1.373 . S
C1589 C1573 1.377 . S
C1589 C1587 1.389 . S
C1589 C1590 1.524 . S
C1590 C1589 1.524 . S
C1590 C1591 1.397 . S
C1590 C1595 1.363 . S
C1591 H1562 0.950 . S
C1591 C1590 1.397 . S
C1591 C1592 1.334 . S
C1592 H1563 0.950 . S
C1592 C1591 1.334 . S
C1592 C1593 1.287 . S
C1593 C1592 1.287 . S
C1593 C1594 1.524 . S
C1593 H1596 0.999 . S
C1594 H1564 0.950 . S
C1594 C1593 1.524 . S
C1594 C1595 1.415 . S
C1595 H1565 0.950 . S
C1595 C1590 1.363 . S
C1595 C1594 1.415 . S
H1596 C1593 0.999 . S
H1597 C1578 0.913 . S
H1598 C1616 0.951 . S
H1599 C1618 0.951 . S
H1600 C1620 0.950 . S
H1601 C1621 0.950 . S
H1602 C1623 0.950 . S
H1603 C1626 0.950 . S
H1604 C1627 0.950 . S
H1605 C1629 0.950 . S
H1606 C1630 0.950 . S
H1607 C1631 0.951 . S
H1608 C1633 0.951 . S
H1609 C1635 0.950 . S
H1610 C1636 0.950 . S
H1611 C1638 0.950 . S
H1612 C1641 0.950 . S
H1613 C1642 0.950 . S
H1614 C1644 0.950 . S
H1615 C1645 0.950 . S
C1616 H1598 0.951 . S
C1616 C1617 1.366 . S
C1616 C1618 1.388 . S
C1617 C1616 1.366 . S
C1617 C1621 1.385 . S
C1618 H1599 0.951 . S
C1618 C1616 1.388 . S
C1618 C1619 1.366 . S
C1619 C1618 1.366 . S
C1619 C1620 1.414 . S
C1619 C1622 1.499 . S
C1620 H1600 0.950 . S
C1620 C1619 1.414 . S
C1620 C1621 1.374 . S
C1621 H1601 0.950 . S
C1621 C1617 1.385 . S
C1621 C1620 1.374 . S
C1622 C1619 1.499 . S
C1622 C1623 1.373 . S
C1622 C1624 1.389 . S
C1623 H1602 0.950 . S
C1623 C1622 1.373 . S
C1623 C1639 1.377 . S
C1624 C1622 1.389 . S
C1624 C1625 1.524 . S
C1624 C1638 1.377 . S
C1625 C1624 1.524 . S
C1625 C1626 1.397 . S
C1625 C1630 1.363 . S
C1626 H1603 0.950 . S
C1626 C1625 1.397 . S
C1626 C1627 1.334 . S
C1627 H1604 0.950 . S
C1627 C1626 1.334 . S
C1627 C1628 1.287 . S
C1628 C1627 1.287 . S
C1628 C1629 1.524 . S
C1628 H1647 0.913 . S
C1629 H1605 0.950 . S
C1629 C1628 1.524 . S
C1629 C1630 1.415 . S
C1630 H1606 0.950 . S
C1630 C1625 1.363 . S
C1630 C1629 1.415 . S
C1631 H1607 0.951 . S
C1631 C1632 1.366 . S
C1631 C1633 1.388 . S
C1632 C1631 1.366 . S
C1632 C1636 1.385 . S
C1633 H1608 0.951 . S
C1633 C1631 1.388 . S
C1633 C1634 1.366 . S
C1634 C1633 1.366 . S
C1634 C1635 1.414 . S
C1634 C1637 1.499 . S
C1635 H1609 0.950 . S
C1635 C1634 1.414 . S
C1635 C1636 1.374 . S
C1636 H1610 0.950 . S
C1636 C1632 1.385 . S
C1636 C1635 1.374 . S
C1637 C1634 1.499 . S
C1637 C1638 1.373 . S
C1637 C1639 1.389 . S
C1638 H1611 0.950 . S
C1638 C1624 1.377 . S
C1638 C1637 1.373 . S
C1639 C1623 1.377 . S
C1639 C1637 1.389 . S
C1639 C1640 1.524 . S
C1640 C1639 1.524 . S
C1640 C1641 1.397 . S
C1640 C1645 1.363 . S
C1641 H1612 0.950 . S
C1641 C1640 1.397 . S
C1641 C1642 1.334 . S
C1642 H1613 0.950 . S
C1642 C1641 1.334 . S
C1642 C1643 1.287 . S
C1643 C1642 1.287 . S
C1643 C1644 1.524 . S
C1643 H1646 0.999 . S
C1644 H1614 0.950 . S
C1644 C1643 1.524 . S
C1644 C1645 1.415 . S
C1645 H1615 0.950 . S
C1645 C1640 1.363 . S
C1645 C1644 1.415 . S
H1646 C1643 0.999 . S
H1647 C1628 0.913 . S
C467 C241 1.899 . S
C482 C290 2.046 1_545 S
C532 C330 2.066 . S
C517 C277 1.953 . S
C582 C370 2.055 . S
C567 C169 1.900 . S
C632 C410 2.062 1_455 S
C617 C205 1.909 . S
C682 C303 2.052 1_565 S
C667 C97 1.903 . S
C717 C133 1.957 . S
C732 C343 2.071 . S
C767 C25 1.901 . S
C782 C383 2.055 . S
C817 C61 1.909 1_655 S
C832 C423 2.062 1_655 S
C882 C314 0.195 . S
C867 C211 0.251 . S
C932 C354 0.200 . S
C917 C247 0.251 . S
C982 C394 0.192 . S
C967 C253 0.252 . S
C1017 C175 0.251 . S
C1032 C434 0.191 . S
C1067 C67 0.320 1_655 S
C1082 C297 0.194 . S
C1132 C337 0.197 . S
C1117 C103 0.312 1_565 S
C1182 C377 0.193 . S
C1167 C109 0.175 . S
C1217 C31 0.317 . S
C1232 C417 0.203 . S
C1267 C181 2.533 . S
C1282 C291 2.813 . S
C1317 C217 2.518 . S
C1332 C331 2.804 . S
C1382 C371 2.812 . S
C1367 C283 2.464 . S
C1432 C411 2.806 . S
C1417 C145 2.513 . S
C1467 C37 2.535 1_655 S
C1482 C310 2.827 . S
C1532 C350 2.805 . S
C1517 C73 2.519 1_565 S
C1582 C390 2.812 . S
C1567 C139 2.456 . S
C1617 C1 2.525 . S
C1632 C430 2.814 . S
