# Generated by pormake.
# Topology rtl, (3,6)-cn, num edge types: 1
# Building blocks:
#     Node 0, Type 0, BuildingBlock: KAKCAD_clean_linker_0, # of connection points: 3
#     Node 1, Type 0, BuildingBlock: KAKCAD_clean_linker_0, # of connection points: 3
#     Node 2, Type 0, BuildingBlock: KAKCAD_clean_linker_0, # of connection points: 3
#     Node 3, Type 0, BuildingBlock: KAKCAD_clean_linker_0, # of connection points: 3
#     Node 4, Type 1, BuildingBlock: CIFDUS_clean_sbu_1, # of connection points: 6
#     Node 5, Type 1, BuildingBlock: CIFDUS_clean_sbu_1, # of connection points: 6
#     Edge 6, Type (0, 1), BuildingBlock: FUNLAD_clean_linker_1, # of connection points: 2
#     Edge 7, Type (0, 1), BuildingBlock: FUNLAD_clean_linker_1, # of connection points: 2
#     Edge 8, Type (0, 1), BuildingBlock: FUNLAD_clean_linker_1, # of connection points: 2
#     Edge 9, Type (0, 1), BuildingBlock: FUNLAD_clean_linker_1, # of connection points: 2
#     Edge 10, Type (0, 1), BuildingBlock: FUNLAD_clean_linker_1, # of connection points: 2
#     Edge 11, Type (0, 1), BuildingBlock: FUNLAD_clean_linker_1, # of connection points: 2
#     Edge 12, Type (0, 1), BuildingBlock: FUNLAD_clean_linker_1, # of connection points: 2
#     Edge 13, Type (0, 1), BuildingBlock: FUNLAD_clean_linker_1, # of connection points: 2
#     Edge 14, Type (0, 1), BuildingBlock: FUNLAD_clean_linker_1, # of connection points: 2
#     Edge 15, Type (0, 1), BuildingBlock: FUNLAD_clean_linker_1, # of connection points: 2
#     Edge 16, Type (0, 1), BuildingBlock: FUNLAD_clean_linker_1, # of connection points: 2
#     Edge 17, Type (0, 1), BuildingBlock: FUNLAD_clean_linker_1, # of connection points: 2
# Relax obj value: 0.028
# Max RMSD: 0.063
# Mean RMSD: 0.048
data_MOF--net-rtl--node1-CIFDUS_clean_sbu_1--node2-KAKCAD_clean_linker_0--edge1-FUNLAD_clean_linker_1
_symmetry_space_group_name_H-M    P1
_symmetry_Int_Tables_number       1
_symmetry_cell_setting            triclinic
loop_
_symmetry_equiv_pos_as_xyz
'x, y, z'
_cell_length_a     38.835797
_cell_length_b     44.020123
_cell_length_c     30.577594
_cell_angle_alpha  89.818898
_cell_angle_beta   98.37228
_cell_angle_gamma 90.271812
loop_
_atom_site_label
_atom_site_type_symbol
_atom_site_fract_x
_atom_site_fract_y
_atom_site_fract_z
_atom_type_partial_charge
C0 C 0.16241 0.83851 0.92009 0.0
C1 C 0.1488 0.86757 0.91026 0.0
C2 C 0.17741 0.83105 0.96326 0.0
C3 C 0.18022 0.85288 0.99731 0.0
C4 C 0.16685 0.88215 0.98689 0.0
C5 C 0.15105 0.88928 0.94412 0.0
C6 C 0.19766 0.84563 0.04314 0.0
C7 C 0.22541 0.82487 0.05031 0.0
C8 C 0.24215 0.81838 0.09327 0.0
C9 C 0.23172 0.83367 0.12932 0.0
C10 C 0.20427 0.85463 0.12314 0.0
C11 C 0.18698 0.85991 0.08008 0.0
C12 C 0.1937 0.87111 0.16156 0.0
C13 C 0.19374 0.85642 0.20252 0.0
C14 C 0.18321 0.90168 0.15749 0.0
C15 C 0.17233 0.9169 0.19308 0.0
C16 C 0.17233 0.9022 0.23383 0.0
C17 C 0.27034 0.79536 0.10058 0.0
C18 C 0.27119 0.77382 0.13481 0.0
C19 C 0.296 0.79419 0.0727 0.0
C20 C 0.32138 0.77159 0.07823 0.0
C21 C 0.32185 0.74957 0.11171 0.0
C22 C 0.29659 0.75113 0.14032 0.0
C23 C 0.18326 0.87178 0.23828 0.0
H24 H 0.16122 0.82149 0.8944 0.0
H25 H 0.1867 0.80811 0.96975 0.0
H26 H 0.16932 0.89999 0.01144 0.0
H27 H 0.14175 0.91219 0.93724 0.0
H28 H 0.23413 0.81361 0.0225 0.0
H29 H 0.16471 0.87488 0.07552 0.0
H30 H 0.24561 0.82968 0.16218 0.0
H31 H 0.20097 0.83274 0.2067 0.0
H32 H 0.18339 0.91393 0.12676 0.0
H33 H 0.16379 0.94025 0.18872 0.0
H34 H 0.25154 0.77395 0.15658 0.0
H35 H 0.2964 0.81071 0.04645 0.0
H36 H 0.18249 0.85937 0.26874 0.0
H37 H 0.2955 0.73456 0.16623 0.0
H38 H 0.34047 0.77106 0.05568 0.0
C39 C 0.69607 0.65644 0.742 0.0
C40 C 0.68395 0.62629 0.7379 0.0
C41 C 0.70674 0.67152 0.7059 0.0
C42 C 0.70593 0.65673 0.66496 0.0
C43 C 0.69436 0.62634 0.66137 0.0
C44 C 0.6831 0.61149 0.69724 0.0
C45 C 0.71667 0.67295 0.62607 0.0
C46 C 0.74386 0.69442 0.63176 0.0
C47 C 0.75412 0.70974 0.5954 0.0
C48 C 0.73774 0.70253 0.55254 0.0
C49 C 0.71032 0.68119 0.54575 0.0
C50 C 0.69962 0.6671 0.58303 0.0
C51 C 0.69307 0.67334 0.5 0.0
C52 C 0.69037 0.69479 0.46526 0.0
C53 C 0.6796 0.64392 0.4904 0.0
C54 C 0.66374 0.63631 0.44783 0.0
C55 C 0.6616 0.65766 0.41335 0.0
C56 C 0.78128 0.73395 0.60233 0.0
C57 C 0.78088 0.75563 0.63595 0.0
C58 C 0.80683 0.73639 0.57438 0.0
C59 C 0.83073 0.76042 0.57911 0.0
C60 C 0.82979 0.78264 0.61184 0.0
C61 C 0.80476 0.77973 0.64066 0.0
C62 C 0.67538 0.68683 0.4223 0.0
H63 H 0.69603 0.66884 0.77252 0.0
H64 H 0.71471 0.69507 0.70986 0.0
H65 H 0.69396 0.61392 0.6308 0.0
H66 H 0.67364 0.58832 0.69319 0.0
H67 H 0.7576 0.69895 0.66454 0.0
H68 H 0.67742 0.6519 0.57869 0.0
H69 H 0.74635 0.71378 0.52452 0.0
H70 H 0.69966 0.71784 0.47104 0.0
H71 H 0.68195 0.62633 0.51546 0.0
H72 H 0.65421 0.61334 0.44158 0.0
H73 H 0.76125 0.75461 0.65772 0.0
H74 H 0.80819 0.71984 0.54855 0.0
H75 H 0.6742 0.70359 0.39611 0.0
H76 H 0.80249 0.79639 0.66592 0.0
H77 H 0.84964 0.76198 0.55638 0.0
C78 C 0.82433 0.17417 0.17132 0.0
C79 C 0.86023 0.17029 0.18425 0.0
C80 C 0.81136 0.18415 0.12865 0.0
C81 C 0.83402 0.18991 0.09768 0.0
C82 C 0.86998 0.18607 0.11058 0.0
C83 C 0.883 0.17644 0.15344 0.0
C84 C 0.82008 0.19919 0.05176 0.0
C85 C 0.79469 0.22192 0.04392 0.0
C86 C 0.78124 0.23077 1.00057 0.0
C87 C 0.79328 0.21637 0.96479 0.0
C88 C 0.81846 0.19334 0.97198 0.0
C89 C 0.83183 0.18504 0.01561 0.0
C90 C 0.83071 0.17774 0.93408 0.0
C91 C 0.80706 0.16872 0.89707 0.0
C92 C 0.86619 0.17128 0.93502 0.0
C93 C 0.87774 0.15609 0.89991 0.0
C94 C 0.85423 0.14705 0.86287 0.0
C95 C 0.75484 0.25525 0.99302 0.0
C96 C 0.72699 0.25575 0.01753 0.0
C97 C 0.75797 0.27888 0.96275 0.0
C98 C 0.73452 0.30317 0.95845 0.0
C99 C 0.70729 0.30413 0.98422 0.0
C100 C 0.70353 0.27985 0.01311 0.0
C101 C 0.81863 0.15346 0.86187 0.0
H102 H 0.8062 0.16924 0.19422 0.0
H103 H 0.78349 0.18659 0.11951 0.0
H104 H 0.88806 0.19041 0.08742 0.0
H105 H 0.91074 0.17292 0.16175 0.0
H106 H 0.786 0.23329 0.07173 0.0
H107 H 0.85072 0.1669 0.02149 0.0
H108 H 0.78299 0.22308 0.93132 0.0
H109 H 0.77946 0.17292 0.89571 0.0
H110 H 0.88514 0.17818 0.96281 0.0
H111 H 0.9053 0.15148 0.9017 0.0
H112 H 0.72355 0.23764 0.0406 0.0
H113 H 0.77933 0.27915 0.94358 0.0
H114 H 0.79943 0.14639 0.83457 0.0
H115 H 0.68282 0.27984 0.03334 0.0
H116 H 0.73863 0.32139 0.93599 0.0
C117 C 0.29554 0.39572 0.34645 0.0
C118 C 0.33095 0.40241 0.3458 0.0
C119 C 0.28475 0.38235 0.3839 0.0
C120 C 0.30907 0.37558 0.42139 0.0
C121 C 0.34431 0.38258 0.4207 0.0
C122 C 0.35508 0.39568 0.38331 0.0
C123 C 0.29826 0.36035 0.46072 0.0
C124 C 0.27564 0.3352 0.45569 0.0
C125 C 0.26753 0.31921 0.49279 0.0
C126 C 0.28188 0.32909 0.53536 0.0
C127 C 0.30448 0.35426 0.54109 0.0
C128 C 0.31231 0.36982 0.50351 0.0
C129 C 0.3208 0.36386 0.58611 0.0
C130 C 0.30136 0.36479 0.62147 0.0
C131 C 0.35606 0.37246 0.5939 0.0
C132 C 0.37134 0.38223 0.63572 0.0
C133 C 0.35194 0.38355 0.67101 0.0
C134 C 0.24553 0.29132 0.48707 0.0
C135 C 0.21529 0.29016 0.45558 0.0
C136 C 0.2549 0.26546 0.51301 0.0
C137 C 0.23431 0.23927 0.50813 0.0
C138 C 0.20382 0.23809 0.47718 0.0
C139 C 0.19456 0.26388 0.45071 0.0
C140 C 0.31667 0.37461 0.66342 0.0
H141 H 0.27624 0.39998 0.31788 0.0
H142 H 0.2574 0.37723 0.3835 0.0
H143 H 0.36379 0.37722 0.44871 0.0
H144 H 0.38255 0.40032 0.38362 0.0
H145 H 0.26565 0.32716 0.42279 0.0
H146 H 0.3293 0.38952 0.50754 0.0
H147 H 0.27592 0.31681 0.56412 0.0
H148 H 0.27403 0.35867 0.61645 0.0
H149 H 0.37197 0.37156 0.56764 0.0
H150 H 0.39849 0.38898 0.6404 0.0
H151 H 0.20725 0.3098 0.43527 0.0
H152 H 0.27836 0.26534 0.53699 0.0
H153 H 0.30041 0.37585 0.68917 0.0
H154 H 0.17118 0.26429 0.42678 0.0
H155 H 0.24221 0.21985 0.529 0.0
O156 O 0.98708 0.05023 0.49611 0.0
Mn157 Mn 0.00505 0.01846 0.54559 0.0
O158 O 0.94999 0.02577 0.44435 0.0
Mn159 Mn 0.96357 0.98704 0.46293 0.0
O160 O 0.02288 0.98677 0.59544 0.0
O161 O 0.04137 0.04833 0.56963 0.0
Mn162 Mn 0.04791 0.04988 0.62747 0.0
O163 O 0.97098 0.0365 0.58549 0.0
O164 O 0.06246 0.01108 0.64445 0.0
O165 O 0.03949 1.00045 0.5061 0.0
O166 O 0.007 0.97555 0.45015 0.0
O167 O 0.07725 0.07875 0.60752 0.0
O168 O 0.00452 0.06069 0.64145 0.0
C169 C 0.94609 0.96728 0.52086 0.0
C170 C 0.96488 0.05 0.46047 0.0
C171 C 0.04663 0.98694 0.62956 0.0
C172 C 0.06342 0.06996 0.56853 0.0
C173 C 0.97481 0.05259 0.62092 0.0
C174 C 0.03638 0.98406 0.47101 0.0
O175 O 0.96868 0.98865 0.52096 0.0
O176 O 0.93314 0.95863 0.48145 0.0
O177 O 0.52315 0.54886 0.09549 0.0
Mn178 Mn 0.50169 0.52077 0.04283 0.0
O179 O 0.55111 0.51801 0.14802 0.0
Mn180 Mn 0.53267 0.48175 0.12414 0.0
O181 O 0.47936 0.49247 0.99087 0.0
O182 O 0.47178 0.5549 0.01833 0.0
Mn183 Mn 0.46955 0.55918 0.96088 0.0
O184 O 0.5408 0.53497 0.00656 0.0
O185 O 0.45088 0.52275 0.93801 0.0
O186 O 0.46236 0.50675 0.07876 0.0
O187 O 0.48681 0.47421 0.13119 0.0
O188 O 0.44255 0.58976 0.98074 0.0
O189 O 0.51528 0.56609 0.95268 0.0
C190 C 0.55331 0.46432 0.06735 0.0
C191 C 0.54276 0.54441 0.13269 0.0
C192 C 0.45947 0.49649 0.95376 0.0
C193 C 0.45217 0.57806 0.01943 0.0
C194 C 0.54209 0.55299 0.97357 0.0
C195 C 0.4604 0.48806 0.11074 0.0
O196 O 0.53193 0.48648 0.067 0.0
O197 O 0.56121 0.452 0.10598 0.0
H198 H 0.18966 0.19321 0.50152 0.0
C199 C 0.18204 0.21004 0.47581 0.0
H200 H 0.14359 0.22028 0.42088 0.0
H201 H 0.13261 0.07456 0.48694 0.0
H202 H 0.1836 0.0662 0.45044 0.0
H203 H 0.21057 0.10873 0.41467 0.0
H204 H 0.18679 0.15991 0.41517 0.0
C205 C 0.15309 0.20437 0.4469 0.0
C206 C 0.13121 0.1774 0.4541 0.0
C207 C 0.1448 0.14767 0.45231 0.0
C208 C 0.12917 0.12315 0.47261 0.0
C209 C 0.14383 0.09386 0.47201 0.0
C210 C 0.17288 0.08882 0.45111 0.0
C211 C 0.18807 0.11278 0.43094 0.0
C212 C 0.17435 0.14198 0.43158 0.0
H213 H 0.05585 0.0795 0.49614 0.0
C214 C 0.07053 0.08553 0.52793 0.0
H215 H 0.10823 0.11428 0.56335 0.0
H216 H 0.09338 0.22982 0.4524 0.0
H217 H 0.03911 0.2366 0.48199 0.0
H218 H 0.01195 0.19377 0.51682 0.0
H219 H 0.03901 0.14382 0.52226 0.0
C220 C 0.09383 0.10837 0.5313 0.0
C221 C 0.10004 0.12848 0.49426 0.0
C222 C 0.08331 0.15703 0.48973 0.0
C223 C 0.0989 0.18163 0.46949 0.0
C224 C 0.08255 0.21036 0.46734 0.0
C225 C 0.05141 0.21452 0.48415 0.0
C226 C 0.03612 0.19041 0.5038 0.0
C227 C 0.05189 0.16196 0.50686 0.0
H228 H 0.36235 0.72321 0.08552 0.0
C229 C 0.34768 0.72454 0.11319 0.0
H230 H 0.3391 0.70244 0.17264 0.0
H231 H 0.37582 0.57887 0.08141 0.0
H232 H 0.31807 0.56807 0.09998 0.0
H233 H 0.2863 0.60684 0.13626 0.0
H234 H 0.31201 0.65653 0.15437 0.0
C235 C 0.35309 0.70273 0.14448 0.0
C236 C 0.37575 0.67645 0.13764 0.0
C237 C 0.36066 0.64732 0.12884 0.0
C238 C 0.37883 0.62501 0.10774 0.0
C239 C 0.36283 0.59654 0.09725 0.0
C240 C 0.32985 0.59009 0.10782 0.0
C241 C 0.31197 0.61192 0.1283 0.0
C242 C 0.32697 0.64035 0.13848 0.0
H243 H 0.45026 0.5801 0.0918 0.0
C244 C 0.44208 0.59103 0.06011 0.0
H245 H 0.41558 0.62754 0.02563 0.0
H246 H 0.41606 0.72574 0.16455 0.0
H247 H 0.47627 0.73412 0.1531 0.0
H248 H 0.50739 0.69554 0.11551 0.0
H249 H 0.47853 0.64828 0.08925 0.0
C250 C 0.42307 0.61652 0.05744 0.0
C251 C 0.41179 0.63203 0.09581 0.0
C252 C 0.42907 0.65903 0.11149 0.0
C253 C 0.41107 0.6813 0.13273 0.0
C254 C 0.42863 0.70839 0.14753 0.0
C255 C 0.46309 0.71334 0.14135 0.0
C256 C 0.48063 0.69161 0.12017 0.0
C257 C 0.46385 0.66474 0.10512 0.0
H258 H 0.8669 0.81222 0.5834 0.0
C259 C 0.85332 0.8095 0.61192 0.0
H260 H 0.84432 0.83042 0.67178 0.0
H261 H 0.97418 0.90199 0.588 0.0
H262 H 0.00941 0.8585 0.61496 0.0
H263 H 0.98392 0.81575 0.65197 0.0
H264 H 0.92272 0.81615 0.66171 0.0
C265 C 0.85725 0.83158 0.64274 0.0
C266 C 0.87552 0.86032 0.63392 0.0
C267 C 0.91141 0.86018 0.62986 0.0
C268 C 0.92623 0.88503 0.6092 0.0
C269 C 0.96171 0.88376 0.60365 0.0
C270 C 0.98221 0.85898 0.61911 0.0
C271 C 0.96784 0.83488 0.63989 0.0
C272 C 0.93277 0.8353 0.64513 0.0
H273 H 0.95014 0.95869 0.5933 0.0
C274 C 0.93731 0.95193 0.56082 0.0
H275 H 0.90145 0.92252 0.52354 0.0
H276 H 0.80822 0.8709 0.6467 0.0
H277 H 0.77475 0.91655 0.62611 0.0
H278 H 0.80086 0.95982 0.59098 0.0
H279 H 0.86079 0.95759 0.57619 0.0
C280 C 0.91459 0.92862 0.5562 0.0
C281 C 0.90506 0.90991 0.59309 0.0
C282 C 0.87073 0.91192 0.6031 0.0
C283 C 0.85585 0.88709 0.62364 0.0
C284 C 0.82088 0.88918 0.63137 0.0
C285 C 0.8014 0.91526 0.61973 0.0
C286 C 0.81609 0.93961 0.59991 0.0
C287 C 0.85033 0.93803 0.59145 0.0
H288 H 0.66691 0.33037 0.0107 0.0
C289 C 0.68392 0.33072 0.98535 0.0
H290 H 0.69896 0.35786 0.93331 0.0
H291 H 0.55612 0.43051 0.94644 0.0
H292 H 0.54519 0.41277 0.87033 0.0
H293 H 0.5873 0.37964 0.84058 0.0
H294 H 0.64172 0.36534 0.88616 0.0
C295 C 0.68371 0.35594 0.96019 0.0
C296 C 0.66317 0.38257 0.97133 0.0
C297 C 0.63179 0.39063 0.94429 0.0
C298 C 0.60716 0.40926 0.96169 0.0
C299 C 0.57557 0.41642 0.93468 0.0
C300 C 0.56894 0.40621 0.89114 0.0
C301 C 0.5928 0.38771 0.87429 0.0
C302 C 0.62381 0.37966 0.90063 0.0
H303 H 0.57375 0.47129 1.00376 0.0
C304 C 0.57045 0.45499 0.02958 0.0
H305 H 0.58228 0.41211 0.05785 0.0
H306 H 0.72577 0.37982 0.02504 0.0
H307 H 0.74026 0.40353 0.09724 0.0
H308 H 0.69728 0.43519 0.12795 0.0
H309 H 0.63965 0.44345 0.08653 0.0
C310 C 0.58582 0.42766 0.03112 0.0
C311 C 0.6143 0.41951 1.0059 0.0
C312 C 0.64799 0.41556 0.02996 0.0
C313 C 0.67258 0.3972 0.01252 0.0
C314 C 0.70594 0.39318 0.03741 0.0
C315 C 0.71461 0.40678 0.07866 0.0
C316 C 0.69041 0.4246 0.09594 0.0
C317 C 0.65743 0.42902 0.07202 0.0
H318 H 0.13791 0.93524 0.2599 0.0
C319 C 0.15782 0.91823 0.26962 0.0
H320 H 0.18732 0.89568 0.3236 0.0
H321 H 0.09778 0.01077 0.39899 0.0
H322 H 0.13659 0.04425 0.36591 0.0
H323 H 0.18123 0.02343 0.32471 0.0
H324 H 0.187 0.96888 0.31596 0.0
C325 C 0.16712 0.91215 0.31287 0.0
C326 C 0.14671 0.92473 0.34625 0.0
C327 C 0.14463 0.95655 0.3526 0.0
C328 C 0.11964 0.9685 0.37758 0.0
C329 C 0.1168 1.00041 0.38128 0.0
C330 C 0.13888 0.01991 0.36235 0.0
C331 C 0.16397 0.00819 0.33907 0.0
C332 C 0.16689 0.97689 0.33407 0.0
H333 H 0.09352 0.97975 0.47282 0.0
C334 C 0.06832 0.97462 0.45376 0.0
H335 H 0.04141 0.95423 0.3962 0.0
H336 H 0.14781 0.86236 0.34648 0.0
H337 H 0.1127 0.82889 0.38517 0.0
H338 H 0.07078 0.84966 0.43051 0.0
H339 H 0.06364 0.90414 0.43718 0.0
C340 C 0.06655 0.96002 0.41492 0.0
C341 C 0.0976 0.94845 0.39721 0.0
C342 C 0.10225 0.91664 0.39466 0.0
C343 C 0.12678 0.90471 0.36909 0.0
C344 C 0.12988 0.87276 0.36582 0.0
C345 C 0.10984 0.85324 0.38786 0.0
C346 C 0.08621 0.86492 0.41334 0.0
C347 C 0.08228 0.89622 0.41674 0.0
H348 H 0.64715 0.59552 0.76479 0.0
C349 C 0.66905 0.61083 0.77409 0.0
H350 H 0.70283 0.63021 0.82707 0.0
H351 H 0.58717 0.62902 0.95304 0.0
H352 H 0.60313 0.68242 0.95148 0.0
H353 H 0.64545 0.70044 0.90427 0.0
H354 H 0.6722 0.66534 0.85866 0.0
C355 C 0.68057 0.61547 0.81724 0.0
C356 C 0.66052 0.60379 0.85191 0.0
C357 C 0.64561 0.62471 0.87887 0.0
C358 C 0.62077 0.61447 0.90552 0.0
C359 C 0.60577 0.6358 0.93166 0.0
C360 C 0.61479 0.66644 0.93121 0.0
C361 C 0.63866 0.67657 0.90468 0.0
C362 C 0.65388 0.6561 0.87864 0.0
H363 H 0.59963 0.54969 0.97717 0.0
C364 C 0.57604 0.55886 0.9584 0.0
H365 H 0.55423 0.58489 0.90317 0.0
H366 H 0.69172 0.55693 0.81457 0.0
H367 H 0.67702 0.50329 0.81811 0.0
H368 H 0.63126 0.48591 0.86068 0.0
H369 H 0.60041 0.52188 0.90058 0.0
C370 C 0.57774 0.57521 0.92145 0.0
C371 C 0.61066 0.5835 0.9049 0.0
C372 C 0.62809 0.56212 0.88148 0.0
C373 C 0.65356 0.57226 0.85558 0.0
C374 C 0.67127 0.55047 0.83335 0.0
C375 C 0.66325 0.51965 0.83538 0.0
C376 C 0.63754 0.50986 0.85943 0.0
C377 C 0.62001 0.53076 0.8822 0.0
H378 H 0.85482 0.143 0.24366 0.0
C379 C 0.87272 0.15746 0.22872 0.0
H380 H 0.92308 0.17707 0.23729 0.0
H381 H 0.89545 0.11476 0.43115 0.0
H382 H 0.85185 0.15406 0.43292 0.0
H383 H 0.83884 0.1904 0.37114 0.0
H384 H 0.86898 0.18745 0.30696 0.0
C385 C 0.90482 0.16235 0.25095 0.0
C386 C 0.91734 0.14512 0.29227 0.0
C387 C 0.90042 0.14792 0.3302 0.0
C388 C 0.90849 0.12745 0.36631 0.0
C389 C 0.89032 0.12989 0.40301 0.0
C390 C 0.86537 0.15237 0.40447 0.0
C391 C 0.85801 0.17281 0.36965 0.0
C392 C 0.87529 0.17075 0.33289 0.0
H393 H 0.97313 0.09878 0.44577 0.0
C394 C 0.95828 0.07851 0.43481 0.0
H395 H 0.92208 0.05852 0.38465 0.0
H396 H 0.95855 0.13648 0.2277 0.0
H397 H 0.0049 0.09969 0.22883 0.0
H398 H 0.01969 0.0651 0.29236 0.0
H399 H 0.98805 0.06708 0.35517 0.0
C400 C 0.9365 0.07885 0.39629 0.0
C401 C 0.934 0.10478 0.36484 0.0
C402 C 0.95334 0.10398 0.329 0.0
C403 C 0.94501 0.12415 0.29261 0.0
C404 C 0.96394 0.12199 0.25648 0.0
C405 C 0.99062 0.10091 0.25665 0.0
C406 C 0.99892 0.08141 0.29239 0.0
C407 C 0.98051 0.08275 0.32816 0.0
H408 H 0.3939 0.40778 0.71397 0.0
C409 C 0.36918 0.39603 0.71402 0.0
H410 H 0.33171 0.38305 0.75476 0.0
H411 H 0.47555 0.42557 0.89004 0.0
H412 H 0.49862 0.37703 0.87084 0.0
H413 H 0.46517 0.34391 0.81524 0.0
H414 H 0.40782 0.35867 0.77902 0.0
C415 C 0.3562 0.39442 0.75249 0.0
C416 C 0.37359 0.41106 0.79216 0.0
C417 C 0.40676 0.40195 0.81373 0.0
C418 C 0.42578 0.42091 0.84656 0.0
C419 C 0.4595 0.4118 0.8659 0.0
C420 C 0.47324 0.38412 0.85487 0.0
C421 C 0.45435 0.36538 0.82359 0.0
C422 C 0.42157 0.37415 0.80296 0.0
H423 H 0.44281 0.44817 0.94533 0.0
C424 C 0.44472 0.46967 0.92828 0.0
H425 H 0.43432 0.494 0.86849 0.0
H426 H 0.30842 0.43268 0.76217 0.0
H427 H 0.28211 0.47805 0.78732 0.0
H428 H 0.31403 0.51 0.846 0.0
H429 H 0.37254 0.49688 0.87967 0.0
C430 C 0.43238 0.47223 0.88489 0.0
C431 C 0.41102 0.4486 0.85845 0.0
C432 C 0.37638 0.45601 0.83997 0.0
C433 C 0.35773 0.43732 0.80671 0.0
C434 C 0.32366 0.44592 0.78783 0.0
C435 C 0.30823 0.4719 0.80197 0.0
C436 C 0.32621 0.48992 0.83495 0.0
C437 C 0.35987 0.4822 0.85382 0.0
H438 H 0.66206 0.65478 0.34109 0.0
C439 C 0.64726 0.64885 0.36747 0.0
H440 H 0.6028 0.62736 0.38495 0.0
H441 H 0.58351 0.62557 0.16181 0.0
H442 H 0.58494 0.6806 0.16474 0.0
H443 H 0.59488 0.70736 0.23627 0.0
H444 H 0.60423 0.67921 0.30531 0.0
C445 C 0.61762 0.63267 0.35834 0.0
C446 C 0.60718 0.61735 0.31481 0.0
C447 C 0.60009 0.63418 0.27479 0.0
C448 C 0.5924 0.61875 0.23351 0.0
C449 C 0.58786 0.63608 0.19405 0.0
C450 C 0.58885 0.66771 0.19526 0.0
C451 C 0.59458 0.68277 0.23553 0.0
C452 C 0.60018 0.66633 0.27492 0.0
H453 H 0.53491 0.58845 0.16452 0.0
C454 C 0.55357 0.57046 0.16199 0.0
H455 H 0.60173 0.55101 0.18647 0.0
H456 H 0.61901 0.57774 0.38508 0.0
H457 H 0.61192 0.52324 0.38264 0.0
H458 H 0.59319 0.49695 0.31205 0.0
H459 H 0.58208 0.52504 0.2435 0.0
C460 C 0.58363 0.5693 0.19014 0.0
C461 C 0.58978 0.58659 0.23254 0.0
C462 C 0.59477 0.56992 0.27284 0.0
C463 C 0.60415 0.58521 0.31378 0.0
C464 C 0.61076 0.56764 0.35309 0.0
C465 C 0.60693 0.53618 0.35223 0.0
C466 C 0.5965 0.52139 0.31251 0.0
C467 C 0.59045 0.53788 0.27326 0.0
H468 H 0.89521 0.12332 0.83346 0.0
C469 C 0.86823 0.13068 0.8268 0.0
H470 H 0.82436 0.13368 0.7766 0.0
H471 H 0.92643 0.12701 0.63136 0.0
H472 H 0.90169 0.17745 0.61847 0.0
H473 H 0.86137 0.19784 0.66636 0.0
H474 H 0.84551 0.168 0.72737 0.0
C475 C 0.85063 0.12543 0.78622 0.0
C476 C 0.86866 0.11091 0.75195 0.0
C477 C 0.87686 0.12841 0.71584 0.0
C478 C 0.90022 0.11675 0.68836 0.0
C479 C 0.90893 0.13495 0.65332 0.0
C480 C 0.89487 0.16386 0.64553 0.0
C481 C 0.87215 0.17534 0.67248 0.0
C482 C 0.86325 0.15797 0.70739 0.0
H483 H 0.91794 0.05439 0.62321 0.0
C484 C 0.94333 0.06185 0.63942 0.0
H485 H 0.97095 0.08651 0.69272 0.0
H486 H 0.85152 0.06899 0.81141 0.0
H487 H 0.87434 0.01773 0.82215 0.0
H488 H 0.91611 0.99801 0.77572 0.0
H489 H 0.93506 0.0293 0.718 0.0
C490 C 0.94576 0.07879 0.67626 0.0
C491 C 0.91507 0.08765 0.69698 0.0
C492 C 0.90424 0.06904 0.73033 0.0
C493 C 0.88071 0.08059 0.75762 0.0
C494 C 0.87005 0.06151 0.79053 0.0
C495 C 0.88278 0.03203 0.79683 0.0
C496 C 0.90627 0.02092 0.77065 0.0
C497 C 0.917 0.03911 0.73774 0.0
H498 H 0.37199 0.41158 0.3047 0.0
C499 C 0.34437 0.4146 0.30613 0.0
H500 H 0.29814 0.43498 0.27335 0.0
H501 H 0.40275 0.52056 0.18191 0.0
H502 H 0.37605 0.55733 0.22529 0.0
H503 H 0.33343 0.54111 0.27328 0.0
H504 H 0.31725 0.48786 0.27809 0.0
C505 C 0.32527 0.42955 0.27261 0.0
C506 C 0.34241 0.44054 0.23495 0.0
C507 C 0.35054 0.47176 0.23127 0.0
C508 C 0.37496 0.48111 0.20333 0.0
C509 C 0.38412 0.51223 0.20213 0.0
C510 C 0.369 0.53357 0.22695 0.0
C511 C 0.345 0.52444 0.25398 0.0
C512 C 0.33595 0.49387 0.25648 0.0
H513 H 0.40304 0.49296 0.10723 0.0
C514 C 0.42621 0.48272 0.12552 0.0
H515 H 0.44688 0.45527 0.17967 0.0
H516 H 0.32499 0.38051 0.22581 0.0
H517 H 0.34818 0.3441 0.17806 0.0
H518 H 0.39072 0.36016 0.12984 0.0
H519 H 0.41022 0.41274 0.12893 0.0
C520 C 0.42382 0.466 0.1619 0.0
C521 C 0.39069 0.45912 0.1789 0.0
C522 C 0.37909 0.42856 0.17843 0.0
C523 C 0.3548 0.41927 0.20635 0.0
C524 C 0.3439 0.38853 0.20566 0.0
C525 C 0.35685 0.36751 0.17829 0.0
C526 C 0.3808 0.37656 0.15113 0.0
C527 C 0.3919 0.40671 0.15107 0.0
H528 H 0.14946 0.86903 0.83797 0.0
C529 C 0.13492 0.87595 0.86404 0.0
H530 H 0.09166 0.89961 0.88033 0.0
H531 H 0.0851 1.00125 0.73655 0.0
H532 H 0.09758 0.02953 0.80467 0.0
H533 H 0.11109 0.00307 0.87626 0.0
H534 H 0.11168 0.94829 0.88008 0.0
C535 C 0.10636 0.89324 0.85415 0.0
C536 C 0.09767 0.90861 0.81035 0.0
C537 C 0.09806 0.94083 0.80867 0.0
C538 C 0.09143 0.95609 0.76728 0.0
C539 C 0.09102 0.98833 0.76682 0.0
C540 C 0.09795 0.00495 0.80578 0.0
C541 C 0.10545 0.99006 0.84605 0.0
C542 C 0.10558 0.95846 0.84771 0.0
H543 H 0.03092 0.94427 0.65984 0.0
C544 C 0.05281 0.95928 0.65713 0.0
H545 H 0.10437 0.97147 0.68125 0.0
H546 H 0.08863 0.84709 0.80211 0.0
H547 H 0.07657 0.8187 0.73359 0.0
H548 H 0.06963 0.84502 0.66153 0.0
H549 H 0.07393 0.89998 0.65748 0.0
C550 C 0.08294 0.95606 0.68468 0.0
C551 C 0.08536 0.9392 0.72737 0.0
C552 C 0.08383 0.90704 0.72902 0.0
C553 C 0.08933 0.89175 0.77064 0.0
C554 C 0.08605 0.85973 0.77144 0.0
C555 C 0.07889 0.8432 0.73236 0.0
C556 C 0.07486 0.85803 0.69177 0.0
C557 C 0.07731 0.88959 0.6899 0.0
loop_
_geom_bond_atom_site_label_1
_geom_bond_atom_site_label_2
_geom_bond_distance
_geom_bond_site_symmetry_2
_ccdc_geom_bond_type
C0 C1 1.386 . S
C0 C2 1.397 . S
C0 H24 0.931 . S
C1 C0 1.386 . S
C1 C5 1.397 . S
C2 C0 1.397 . S
C2 C3 1.384 1_556 S
C2 H25 0.930 . S
C3 C2 1.384 1_554 S
C3 C4 1.377 . S
C3 C6 1.481 . S
C4 C3 1.377 . S
C4 C5 1.389 1_554 S
C4 H26 0.929 . S
C5 C1 1.397 . S
C5 C4 1.389 1_556 S
C5 H27 0.931 . S
C6 C3 1.481 . S
C6 C7 1.387 . S
C6 C11 1.390 . S
C7 C6 1.387 . S
C7 C8 1.401 . S
C7 H28 0.930 . S
C8 C7 1.401 . S
C8 C9 1.376 . S
C8 C17 1.511 . S
C9 C8 1.376 . S
C9 C10 1.392 . S
C9 H30 0.931 . S
C10 C9 1.392 . S
C10 C11 1.361 . S
C10 C12 1.500 . S
C11 C6 1.390 . S
C11 C10 1.361 . S
C11 H29 0.931 . S
C12 C10 1.500 . S
C12 C13 1.371 . S
C12 C14 1.365 . S
C13 C12 1.371 . S
C13 C23 1.386 . S
C13 H31 0.931 . S
C14 C12 1.365 . S
C14 C15 1.409 . S
C14 H32 0.929 . S
C15 C14 1.409 . S
C15 C16 1.380 . S
C15 H33 0.930 . S
C16 C15 1.380 . S
C16 C23 1.357 . S
C17 C8 1.511 . S
C17 C18 1.341 . S
C17 C19 1.371 . S
C18 C17 1.341 . S
C18 C22 1.394 . S
C18 H34 0.930 . S
C19 C17 1.371 . S
C19 C20 1.392 . S
C19 H35 0.931 . S
C20 C19 1.392 . S
C20 C21 1.331 . S
C20 H38 0.932 . S
C21 C20 1.331 . S
C21 C22 1.336 . S
C22 C18 1.394 . S
C22 C21 1.336 . S
C22 H37 0.929 . S
C23 C13 1.386 . S
C23 C16 1.357 . S
C23 H36 0.928 . S
H24 C0 0.931 . S
H25 C2 0.930 . S
H26 C4 0.929 . S
H27 C5 0.931 . S
H28 C7 0.930 . S
H29 C11 0.931 . S
H30 C9 0.931 . S
H31 C13 0.931 . S
H32 C14 0.929 . S
H33 C15 0.930 . S
H34 C18 0.930 . S
H35 C19 0.931 . S
H36 C23 0.928 . S
H37 C22 0.929 . S
H38 C20 0.932 . S
C39 C40 1.386 . S
C39 C41 1.397 . S
C39 H63 0.931 . S
C40 C39 1.386 . S
C40 C44 1.397 . S
C41 C39 1.397 . S
C41 C42 1.384 . S
C41 H64 0.930 . S
C42 C41 1.384 . S
C42 C43 1.377 . S
C42 C45 1.481 . S
C43 C42 1.377 . S
C43 C44 1.389 . S
C43 H65 0.929 . S
C44 C40 1.397 . S
C44 C43 1.389 . S
C44 H66 0.931 . S
C45 C42 1.481 . S
C45 C46 1.387 . S
C45 C50 1.390 . S
C46 C45 1.387 . S
C46 C47 1.401 . S
C46 H67 0.930 . S
C47 C46 1.401 . S
C47 C48 1.376 . S
C47 C56 1.511 . S
C48 C47 1.376 . S
C48 C49 1.392 . S
C48 H69 0.931 . S
C49 C48 1.392 . S
C49 C50 1.361 . S
C49 C51 1.500 . S
C50 C45 1.390 . S
C50 C49 1.361 . S
C50 H68 0.931 . S
C51 C49 1.500 . S
C51 C52 1.371 . S
C51 C53 1.365 . S
C52 C51 1.371 . S
C52 C62 1.386 . S
C52 H70 0.931 . S
C53 C51 1.365 . S
C53 C54 1.409 . S
C53 H71 0.929 . S
C54 C53 1.409 . S
C54 C55 1.380 . S
C54 H72 0.930 . S
C55 C54 1.380 . S
C55 C62 1.357 . S
C56 C47 1.511 . S
C56 C57 1.341 . S
C56 C58 1.371 . S
C57 C56 1.341 . S
C57 C61 1.394 . S
C57 H73 0.930 . S
C58 C56 1.371 . S
C58 C59 1.392 . S
C58 H74 0.931 . S
C59 C58 1.392 . S
C59 C60 1.331 . S
C59 H77 0.932 . S
C60 C59 1.331 . S
C60 C61 1.336 . S
C61 C57 1.394 . S
C61 C60 1.336 . S
C61 H76 0.929 . S
C62 C52 1.386 . S
C62 C55 1.357 . S
C62 H75 0.928 . S
H63 C39 0.931 . S
H64 C41 0.930 . S
H65 C43 0.929 . S
H66 C44 0.931 . S
H67 C46 0.930 . S
H68 C50 0.931 . S
H69 C48 0.931 . S
H70 C52 0.931 . S
H71 C53 0.929 . S
H72 C54 0.930 . S
H73 C57 0.930 . S
H74 C58 0.931 . S
H75 C62 0.928 . S
H76 C61 0.929 . S
H77 C59 0.932 . S
C78 C79 1.386 . S
C78 C80 1.397 . S
C78 H102 0.931 . S
C79 C78 1.386 . S
C79 C83 1.397 . S
C80 C78 1.397 . S
C80 C81 1.384 . S
C80 H103 0.930 . S
C81 C80 1.384 . S
C81 C82 1.377 . S
C81 C84 1.481 . S
C82 C81 1.377 . S
C82 C83 1.389 . S
C82 H104 0.929 . S
C83 C79 1.397 . S
C83 C82 1.389 . S
C83 H105 0.931 . S
C84 C81 1.481 . S
C84 C85 1.387 . S
C84 C89 1.390 . S
C85 C84 1.387 . S
C85 C86 1.401 1_554 S
C85 H106 0.930 . S
C86 C85 1.401 1_556 S
C86 C87 1.376 . S
C86 C95 1.511 . S
C87 C86 1.376 . S
C87 C88 1.392 . S
C87 H108 0.931 . S
C88 C87 1.392 . S
C88 C89 1.361 1_556 S
C88 C90 1.500 . S
C89 C84 1.390 . S
C89 C88 1.361 1_554 S
C89 H107 0.931 . S
C90 C88 1.500 . S
C90 C91 1.371 . S
C90 C92 1.365 . S
C91 C90 1.371 . S
C91 C101 1.386 . S
C91 H109 0.931 . S
C92 C90 1.365 . S
C92 C93 1.409 . S
C92 H110 0.929 . S
C93 C92 1.409 . S
C93 C94 1.380 . S
C93 H111 0.930 . S
C94 C93 1.380 . S
C94 C101 1.357 . S
C95 C86 1.511 . S
C95 C96 1.341 1_556 S
C95 C97 1.371 . S
C96 C95 1.341 1_554 S
C96 C100 1.394 . S
C96 H112 0.930 . S
C97 C95 1.371 . S
C97 C98 1.392 . S
C97 H113 0.931 . S
C98 C97 1.392 . S
C98 C99 1.331 . S
C98 H116 0.932 . S
C99 C98 1.331 . S
C99 C100 1.336 1_556 S
C100 C96 1.394 . S
C100 C99 1.336 1_554 S
C100 H115 0.929 . S
C101 C91 1.386 . S
C101 C94 1.357 . S
C101 H114 0.928 . S
H102 C78 0.931 . S
H103 C80 0.930 . S
H104 C82 0.929 . S
H105 C83 0.931 . S
H106 C85 0.930 . S
H107 C89 0.931 . S
H108 C87 0.931 . S
H109 C91 0.931 . S
H110 C92 0.929 . S
H111 C93 0.930 . S
H112 C96 0.930 . S
H113 C97 0.931 . S
H114 C101 0.928 . S
H115 C100 0.929 . S
H116 C98 0.932 . S
C117 C118 1.386 . S
C117 C119 1.397 . S
C117 H141 0.931 . S
C118 C117 1.386 . S
C118 C122 1.397 . S
C119 C117 1.397 . S
C119 C120 1.384 . S
C119 H142 0.930 . S
C120 C119 1.384 . S
C120 C121 1.377 . S
C120 C123 1.481 . S
C121 C120 1.377 . S
C121 C122 1.389 . S
C121 H143 0.929 . S
C122 C118 1.397 . S
C122 C121 1.389 . S
C122 H144 0.931 . S
C123 C120 1.481 . S
C123 C124 1.387 . S
C123 C128 1.390 . S
C124 C123 1.387 . S
C124 C125 1.401 . S
C124 H145 0.930 . S
C125 C124 1.401 . S
C125 C126 1.376 . S
C125 C134 1.511 . S
C126 C125 1.376 . S
C126 C127 1.392 . S
C126 H147 0.931 . S
C127 C126 1.392 . S
C127 C128 1.361 . S
C127 C129 1.500 . S
C128 C123 1.390 . S
C128 C127 1.361 . S
C128 H146 0.931 . S
C129 C127 1.500 . S
C129 C130 1.371 . S
C129 C131 1.365 . S
C130 C129 1.371 . S
C130 C140 1.386 . S
C130 H148 0.931 . S
C131 C129 1.365 . S
C131 C132 1.409 . S
C131 H149 0.929 . S
C132 C131 1.409 . S
C132 C133 1.380 . S
C132 H150 0.930 . S
C133 C132 1.380 . S
C133 C140 1.357 . S
C134 C125 1.511 . S
C134 C135 1.341 . S
C134 C136 1.371 . S
C135 C134 1.341 . S
C135 C139 1.394 . S
C135 H151 0.930 . S
C136 C134 1.371 . S
C136 C137 1.392 . S
C136 H152 0.931 . S
C137 C136 1.392 . S
C137 C138 1.331 . S
C137 H155 0.932 . S
C138 C137 1.331 . S
C138 C139 1.336 . S
C139 C135 1.394 . S
C139 C138 1.336 . S
C139 H154 0.929 . S
C140 C130 1.386 . S
C140 C133 1.357 . S
C140 H153 0.928 . S
H141 C117 0.931 . S
H142 C119 0.930 . S
H143 C121 0.929 . S
H144 C122 0.931 . S
H145 C124 0.930 . S
H146 C128 0.931 . S
H147 C126 0.931 . S
H148 C130 0.931 . S
H149 C131 0.929 . S
H150 C132 0.930 . S
H151 C135 0.930 . S
H152 C136 0.931 . S
H153 C140 0.928 . S
H154 C139 0.929 . S
H155 C137 0.932 . S
O156 Mn157 2.163 1_655 S
O156 C170 1.244 . S
Mn157 O156 2.163 1_455 S
Mn157 O160 2.160 1_545 S
Mn157 O161 2.221 . S
Mn157 O163 2.163 1_455 S
Mn157 O165 2.160 1_545 S
Mn157 O175 2.221 1_445 S
O158 Mn159 2.087 1_545 S
O158 C170 1.256 . S
Mn159 O158 2.087 1_565 S
Mn159 O166 2.089 1_655 S
Mn159 O175 2.290 . S
Mn159 O176 2.251 . S
O160 Mn157 2.160 1_565 S
O160 C171 1.239 . S
O161 Mn157 2.221 . S
O161 Mn162 2.290 . S
O161 C172 1.278 . S
Mn162 O161 2.290 . S
Mn162 O164 2.089 . S
Mn162 O167 2.251 . S
Mn162 O168 2.087 1_455 S
O163 Mn157 2.163 1_655 S
O163 C173 1.244 . S
O164 Mn162 2.089 . S
O164 C171 1.256 1_545 S
O165 Mn157 2.160 1_565 S
O165 C174 1.239 . S
O166 Mn159 2.089 1_455 S
O166 C174 1.256 . S
O167 Mn162 2.251 . S
O167 C172 1.241 . S
O168 Mn162 2.087 1_655 S
O168 C173 1.256 . S
C169 O175 1.278 . S
C169 O176 1.241 . S
C170 O156 1.244 . S
C170 O158 1.256 . S
C171 O160 1.239 . S
C171 O164 1.256 1_565 S
C172 O161 1.278 . S
C172 O167 1.241 . S
C173 O163 1.244 . S
C173 O168 1.256 . S
C174 O165 1.239 . S
C174 O166 1.256 . S
O175 Mn157 2.221 1_665 S
O175 Mn159 2.290 . S
O175 C169 1.278 . S
O176 Mn159 2.251 . S
O176 C169 1.241 . S
O177 Mn178 2.163 . S
O177 C191 1.244 . S
Mn178 O177 2.163 . S
Mn178 O181 2.160 1_554 S
Mn178 O182 2.221 . S
Mn178 O184 2.163 1_554 S
Mn178 O186 2.160 . S
Mn178 O196 2.221 . S
O179 Mn180 2.087 . S
O179 C191 1.256 . S
Mn180 O179 2.087 . S
Mn180 O187 2.089 . S
Mn180 O196 2.290 . S
Mn180 O197 2.251 . S
O181 Mn178 2.160 1_556 S
O181 C192 1.239 . S
O182 Mn178 2.221 . S
O182 Mn183 2.290 1_554 S
O182 C193 1.278 . S
Mn183 O182 2.290 1_556 S
Mn183 O185 2.089 . S
Mn183 O188 2.251 1_556 S
Mn183 O189 2.087 . S
O184 Mn178 2.163 1_556 S
O184 C194 1.244 . S
O185 Mn183 2.089 . S
O185 C192 1.256 . S
O186 Mn178 2.160 . S
O186 C195 1.239 . S
O187 Mn180 2.089 . S
O187 C195 1.256 . S
O188 Mn183 2.251 1_554 S
O188 C193 1.241 . S
O189 Mn183 2.087 . S
O189 C194 1.256 . S
C190 O196 1.278 . S
C190 O197 1.241 . S
C191 O177 1.244 . S
C191 O179 1.256 . S
C192 O181 1.239 . S
C192 O185 1.256 . S
C193 O182 1.278 . S
C193 O188 1.241 . S
C194 O184 1.244 . S
C194 O189 1.256 . S
C195 O186 1.239 . S
C195 O187 1.256 . S
O196 Mn178 2.221 . S
O196 Mn180 2.290 . S
O196 C190 1.278 . S
O197 Mn180 2.251 . S
O197 C190 1.241 . S
H198 C199 0.951 . S
C199 H198 0.951 . S
C199 C205 1.265 . S
H200 C205 0.950 . S
H201 C209 0.949 . S
H202 C210 0.950 . S
H203 C211 0.951 . S
H204 C212 0.951 . S
C205 C199 1.265 . S
C205 H200 0.950 . S
C205 C206 1.478 . S
C206 C205 1.478 . S
C206 C207 1.397 . S
C206 C223 1.394 . S
C207 C206 1.397 . S
C207 C208 1.438 . S
C207 C212 1.429 . S
C208 C207 1.438 . S
C208 C209 1.428 . S
C208 C221 1.394 . S
C209 H201 0.949 . S
C209 C208 1.428 . S
C209 C210 1.345 . S
C210 H202 0.950 . S
C210 C209 1.345 . S
C210 C211 1.424 . S
C211 H203 0.951 . S
C211 C210 1.424 . S
C211 C212 1.347 . S
C212 H204 0.951 . S
C212 C207 1.429 . S
C212 C211 1.347 . S
H213 C214 0.951 . S
C214 H213 0.951 . S
C214 C220 1.265 . S
H215 C220 0.950 . S
H216 C224 0.949 . S
H217 C225 0.950 . S
H218 C226 0.951 . S
H219 C227 0.951 . S
C220 C214 1.265 . S
C220 H215 0.950 . S
C220 C221 1.478 . S
C221 C208 1.394 . S
C221 C220 1.478 . S
C221 C222 1.397 . S
C222 C221 1.397 . S
C222 C223 1.438 . S
C222 C227 1.429 . S
C223 C206 1.394 . S
C223 C222 1.438 . S
C223 C224 1.428 . S
C224 H216 0.949 . S
C224 C223 1.428 . S
C224 C225 1.345 . S
C225 H217 0.950 . S
C225 C224 1.345 . S
C225 C226 1.424 . S
C226 H218 0.951 . S
C226 C225 1.424 . S
C226 C227 1.347 . S
C227 H219 0.951 . S
C227 C222 1.429 . S
C227 C226 1.347 . S
H228 C229 0.951 . S
C229 H228 0.951 . S
C229 C235 1.265 . S
H230 C235 0.950 . S
H231 C239 0.949 . S
H232 C240 0.950 . S
H233 C241 0.951 . S
H234 C242 0.951 . S
C235 C229 1.265 . S
C235 H230 0.950 . S
C235 C236 1.478 . S
C236 C235 1.478 . S
C236 C237 1.397 . S
C236 C253 1.394 . S
C237 C236 1.397 . S
C237 C238 1.438 . S
C237 C242 1.429 . S
C238 C237 1.438 . S
C238 C239 1.428 1_554 S
C238 C251 1.394 . S
C239 H231 0.949 . S
C239 C238 1.428 1_556 S
C239 C240 1.345 . S
C240 H232 0.950 . S
C240 C239 1.345 . S
C240 C241 1.424 . S
C241 H233 0.951 . S
C241 C240 1.424 . S
C241 C242 1.347 1_556 S
C242 H234 0.951 . S
C242 C237 1.429 . S
C242 C241 1.347 1_554 S
H243 C244 0.951 . S
C244 H243 0.951 . S
C244 C250 1.265 . S
H245 C250 0.950 . S
H246 C254 0.949 . S
H247 C255 0.950 . S
H248 C256 0.951 . S
H249 C257 0.951 . S
C250 C244 1.265 . S
C250 H245 0.950 . S
C250 C251 1.478 . S
C251 C238 1.394 . S
C251 C250 1.478 . S
C251 C252 1.397 . S
C252 C251 1.397 . S
C252 C253 1.438 . S
C252 C257 1.429 . S
C253 C236 1.394 . S
C253 C252 1.438 . S
C253 C254 1.428 . S
C254 H246 0.949 . S
C254 C253 1.428 . S
C254 C255 1.345 . S
C255 H247 0.950 . S
C255 C254 1.345 . S
C255 C256 1.424 . S
C256 H248 0.951 . S
C256 C255 1.424 . S
C256 C257 1.347 . S
C257 H249 0.951 . S
C257 C252 1.429 . S
C257 C256 1.347 . S
H258 C259 0.951 . S
C259 H258 0.951 . S
C259 C265 1.265 . S
H260 C265 0.950 . S
H261 C269 0.949 . S
H262 C270 0.950 . S
H263 C271 0.951 . S
H264 C272 0.951 . S
C265 C259 1.265 . S
C265 H260 0.950 . S
C265 C266 1.478 . S
C266 C265 1.478 . S
C266 C267 1.397 . S
C266 C283 1.394 . S
C267 C266 1.397 . S
C267 C268 1.438 . S
C267 C272 1.429 . S
C268 C267 1.438 . S
C268 C269 1.428 . S
C268 C281 1.394 . S
C269 H261 0.949 . S
C269 C268 1.428 . S
C269 C270 1.345 . S
C270 H262 0.950 . S
C270 C269 1.345 . S
C270 C271 1.424 . S
C271 H263 0.951 . S
C271 C270 1.424 . S
C271 C272 1.347 . S
C272 H264 0.951 . S
C272 C267 1.429 . S
C272 C271 1.347 . S
H273 C274 0.951 . S
C274 H273 0.951 . S
C274 C280 1.265 . S
H275 C280 0.950 . S
H276 C284 0.949 . S
H277 C285 0.950 . S
H278 C286 0.951 . S
H279 C287 0.951 . S
C280 C274 1.265 . S
C280 H275 0.950 . S
C280 C281 1.478 . S
C281 C268 1.394 . S
C281 C280 1.478 . S
C281 C282 1.397 . S
C282 C281 1.397 . S
C282 C283 1.438 . S
C282 C287 1.429 . S
C283 C266 1.394 . S
C283 C282 1.438 . S
C283 C284 1.428 . S
C284 H276 0.949 . S
C284 C283 1.428 . S
C284 C285 1.345 . S
C285 H277 0.950 . S
C285 C284 1.345 . S
C285 C286 1.424 . S
C286 H278 0.951 . S
C286 C285 1.424 . S
C286 C287 1.347 . S
C287 H279 0.951 . S
C287 C282 1.429 . S
C287 C286 1.347 . S
H288 C289 0.951 . S
C289 H288 0.951 . S
C289 C295 1.267 . S
H290 C295 0.953 . S
H291 C299 0.949 . S
H292 C300 0.950 . S
H293 C301 0.951 . S
H294 C302 0.951 . S
C295 C289 1.267 . S
C295 H290 0.953 . S
C295 C296 1.473 1_556 S
C296 C295 1.473 1_554 S
C296 C297 1.397 1_554 S
C296 C313 1.394 . S
C297 C296 1.397 1_556 S
C297 C298 1.438 . S
C297 C302 1.429 . S
C298 C297 1.438 . S
C298 C299 1.428 . S
C298 C311 1.394 1_556 S
C299 H291 0.949 . S
C299 C298 1.428 . S
C299 C300 1.345 . S
C300 H292 0.950 . S
C300 C299 1.345 . S
C300 C301 1.424 . S
C301 H293 0.951 . S
C301 C300 1.424 . S
C301 C302 1.347 . S
C302 H294 0.951 . S
C302 C297 1.429 . S
C302 C301 1.347 . S
H303 C304 0.951 . S
C304 H303 0.951 . S
C304 C310 1.265 . S
H305 C310 0.950 . S
H306 C314 0.949 . S
H307 C315 0.950 . S
H308 C316 0.951 . S
H309 C317 0.951 . S
C310 C304 1.265 . S
C310 H305 0.950 . S
C310 C311 1.478 . S
C311 C298 1.394 1_554 S
C311 C310 1.478 . S
C311 C312 1.397 . S
C312 C311 1.397 . S
C312 C313 1.438 . S
C312 C317 1.429 . S
C313 C296 1.394 . S
C313 C312 1.438 . S
C313 C314 1.428 . S
C314 H306 0.949 . S
C314 C313 1.428 . S
C314 C315 1.345 . S
C315 H307 0.950 . S
C315 C314 1.345 . S
C315 C316 1.424 . S
C316 H308 0.951 . S
C316 C315 1.424 . S
C316 C317 1.347 . S
C317 H309 0.951 . S
C317 C312 1.429 . S
C317 C316 1.347 . S
H318 C319 0.951 . S
C319 H318 0.951 . S
C319 C325 1.265 . S
H320 C325 0.950 . S
H321 C329 0.949 . S
H322 C330 0.950 . S
H323 C331 0.951 . S
H324 C332 0.951 . S
C325 C319 1.265 . S
C325 H320 0.950 . S
C325 C326 1.478 . S
C326 C325 1.478 . S
C326 C327 1.397 . S
C326 C343 1.394 . S
C327 C326 1.397 . S
C327 C328 1.438 . S
C327 C332 1.429 1_565 S
C328 C327 1.438 . S
C328 C329 1.428 1_565 S
C328 C341 1.394 . S
C329 H321 0.949 . S
C329 C328 1.428 1_545 S
C329 C330 1.345 . S
C330 H322 0.950 . S
C330 C329 1.345 . S
C330 C331 1.424 . S
C331 H323 0.951 . S
C331 C330 1.424 . S
C331 C332 1.347 . S
C332 H324 0.951 . S
C332 C327 1.429 1_545 S
C332 C331 1.347 . S
H333 C334 0.951 . S
C334 H333 0.951 . S
C334 C340 1.265 . S
H335 C340 0.950 . S
H336 C344 0.949 . S
H337 C345 0.950 . S
H338 C346 0.951 . S
H339 C347 0.951 . S
C340 C334 1.265 . S
C340 H335 0.950 . S
C340 C341 1.478 . S
C341 C328 1.394 . S
C341 C340 1.478 . S
C341 C342 1.397 . S
C342 C341 1.397 . S
C342 C343 1.438 . S
C342 C347 1.429 . S
C343 C326 1.394 . S
C343 C342 1.438 . S
C343 C344 1.428 . S
C344 H336 0.949 . S
C344 C343 1.428 . S
C344 C345 1.345 . S
C345 H337 0.950 . S
C345 C344 1.345 . S
C345 C346 1.424 . S
C346 H338 0.951 . S
C346 C345 1.424 . S
C346 C347 1.347 . S
C347 H339 0.951 . S
C347 C342 1.429 . S
C347 C346 1.347 . S
H348 C349 0.951 . S
C349 H348 0.951 . S
C349 C355 1.265 . S
H350 C355 0.950 . S
H351 C359 0.949 . S
H352 C360 0.950 . S
H353 C361 0.951 . S
H354 C362 0.951 . S
C355 C349 1.265 . S
C355 H350 0.950 . S
C355 C356 1.478 . S
C356 C355 1.478 . S
C356 C357 1.397 . S
C356 C373 1.394 . S
C357 C356 1.397 . S
C357 C358 1.438 . S
C357 C362 1.429 . S
C358 C357 1.438 . S
C358 C359 1.428 . S
C358 C371 1.394 . S
C359 H351 0.949 . S
C359 C358 1.428 . S
C359 C360 1.345 . S
C360 H352 0.950 . S
C360 C359 1.345 . S
C360 C361 1.424 . S
C361 H353 0.951 . S
C361 C360 1.424 . S
C361 C362 1.347 . S
C362 H354 0.951 . S
C362 C357 1.429 . S
C362 C361 1.347 . S
H363 C364 0.951 . S
C364 H363 0.951 . S
C364 C370 1.265 . S
H365 C370 0.950 . S
H366 C374 0.949 . S
H367 C375 0.950 . S
H368 C376 0.951 . S
H369 C377 0.951 . S
C370 C364 1.265 . S
C370 H365 0.950 . S
C370 C371 1.478 . S
C371 C358 1.394 . S
C371 C370 1.478 . S
C371 C372 1.397 . S
C372 C371 1.397 . S
C372 C373 1.438 . S
C372 C377 1.429 . S
C373 C356 1.394 . S
C373 C372 1.438 . S
C373 C374 1.428 . S
C374 H366 0.949 . S
C374 C373 1.428 . S
C374 C375 1.345 . S
C375 H367 0.950 . S
C375 C374 1.345 . S
C375 C376 1.424 . S
C376 H368 0.951 . S
C376 C375 1.424 . S
C376 C377 1.347 . S
C377 H369 0.951 . S
C377 C372 1.429 . S
C377 C376 1.347 . S
H378 C379 0.951 . S
C379 H378 0.951 . S
C379 C385 1.265 . S
H380 C385 0.950 . S
H381 C389 0.949 . S
H382 C390 0.950 . S
H383 C391 0.951 . S
H384 C392 0.951 . S
C385 C379 1.265 . S
C385 H380 0.950 . S
C385 C386 1.478 . S
C386 C385 1.478 . S
C386 C387 1.397 . S
C386 C403 1.394 . S
C387 C386 1.397 . S
C387 C388 1.438 . S
C387 C392 1.429 . S
C388 C387 1.438 . S
C388 C389 1.428 . S
C388 C401 1.394 . S
C389 H381 0.949 . S
C389 C388 1.428 . S
C389 C390 1.345 . S
C390 H382 0.950 . S
C390 C389 1.345 . S
C390 C391 1.424 . S
C391 H383 0.951 . S
C391 C390 1.424 . S
C391 C392 1.347 . S
C392 H384 0.951 . S
C392 C387 1.429 . S
C392 C391 1.347 . S
H393 C394 0.951 . S
C394 H393 0.951 . S
C394 C400 1.265 . S
H395 C400 0.950 . S
H396 C404 0.949 . S
H397 C405 0.950 . S
H398 C406 0.951 . S
H399 C407 0.951 . S
C400 C394 1.265 . S
C400 H395 0.950 . S
C400 C401 1.478 . S
C401 C388 1.394 . S
C401 C400 1.478 . S
C401 C402 1.397 . S
C402 C401 1.397 . S
C402 C403 1.438 . S
C402 C407 1.429 . S
C403 C386 1.394 . S
C403 C402 1.438 . S
C403 C404 1.428 . S
C404 H396 0.949 . S
C404 C403 1.428 . S
C404 C405 1.345 1_545 S
C405 H397 0.950 . S
C405 C404 1.345 1_565 S
C405 C406 1.424 . S
C406 H398 0.951 . S
C406 C405 1.424 . S
C406 C407 1.347 1_565 S
C407 H399 0.951 . S
C407 C402 1.429 . S
C407 C406 1.347 1_545 S
H408 C409 0.951 . S
C409 H408 0.951 . S
C409 C415 1.265 . S
H410 C415 0.950 . S
H411 C419 0.949 . S
H412 C420 0.950 . S
H413 C421 0.951 . S
H414 C422 0.951 . S
C415 C409 1.265 . S
C415 H410 0.950 . S
C415 C416 1.478 . S
C416 C415 1.478 . S
C416 C417 1.397 . S
C416 C433 1.394 . S
C417 C416 1.397 . S
C417 C418 1.438 . S
C417 C422 1.429 . S
C418 C417 1.438 . S
C418 C419 1.428 . S
C418 C431 1.394 . S
C419 H411 0.949 . S
C419 C418 1.428 . S
C419 C420 1.345 . S
C420 H412 0.950 . S
C420 C419 1.345 . S
C420 C421 1.424 . S
C421 H413 0.951 . S
C421 C420 1.424 . S
C421 C422 1.347 . S
C422 H414 0.951 . S
C422 C417 1.429 . S
C422 C421 1.347 . S
H423 C424 0.951 . S
C424 H423 0.951 . S
C424 C430 1.265 . S
H425 C430 0.950 . S
H426 C434 0.949 . S
H427 C435 0.950 . S
H428 C436 0.951 . S
H429 C437 0.951 . S
C430 C424 1.265 . S
C430 H425 0.950 . S
C430 C431 1.478 . S
C431 C418 1.394 . S
C431 C430 1.478 . S
C431 C432 1.397 . S
C432 C431 1.397 . S
C432 C433 1.438 . S
C432 C437 1.429 . S
C433 C416 1.394 . S
C433 C432 1.438 . S
C433 C434 1.428 . S
C434 H426 0.949 . S
C434 C433 1.428 . S
C434 C435 1.345 . S
C435 H427 0.950 . S
C435 C434 1.345 . S
C435 C436 1.424 . S
C436 H428 0.951 . S
C436 C435 1.424 . S
C436 C437 1.347 . S
C437 H429 0.951 . S
C437 C432 1.429 . S
C437 C436 1.347 . S
H438 C439 0.951 . S
C439 H438 0.951 . S
C439 C445 1.265 . S
H440 C445 0.950 . S
H441 C449 0.949 . S
H442 C450 0.950 . S
H443 C451 0.951 . S
H444 C452 0.951 . S
C445 C439 1.265 . S
C445 H440 0.950 . S
C445 C446 1.478 . S
C446 C445 1.478 . S
C446 C447 1.397 . S
C446 C463 1.394 . S
C447 C446 1.397 . S
C447 C448 1.438 . S
C447 C452 1.429 . S
C448 C447 1.438 . S
C448 C449 1.428 . S
C448 C461 1.394 . S
C449 H441 0.949 . S
C449 C448 1.428 . S
C449 C450 1.345 . S
C450 H442 0.950 . S
C450 C449 1.345 . S
C450 C451 1.424 . S
C451 H443 0.951 . S
C451 C450 1.424 . S
C451 C452 1.347 . S
C452 H444 0.951 . S
C452 C447 1.429 . S
C452 C451 1.347 . S
H453 C454 0.951 . S
C454 H453 0.951 . S
C454 C460 1.265 . S
H455 C460 0.950 . S
H456 C464 0.949 . S
H457 C465 0.950 . S
H458 C466 0.951 . S
H459 C467 0.951 . S
C460 C454 1.265 . S
C460 H455 0.950 . S
C460 C461 1.478 . S
C461 C448 1.394 . S
C461 C460 1.478 . S
C461 C462 1.397 . S
C462 C461 1.397 . S
C462 C463 1.438 . S
C462 C467 1.429 . S
C463 C446 1.394 . S
C463 C462 1.438 . S
C463 C464 1.428 . S
C464 H456 0.949 . S
C464 C463 1.428 . S
C464 C465 1.345 . S
C465 H457 0.950 . S
C465 C464 1.345 . S
C465 C466 1.424 . S
C466 H458 0.951 . S
C466 C465 1.424 . S
C466 C467 1.347 . S
C467 H459 0.951 . S
C467 C462 1.429 . S
C467 C466 1.347 . S
H468 C469 0.951 . S
C469 H468 0.951 . S
C469 C475 1.265 . S
H470 C475 0.950 . S
H471 C479 0.949 . S
H472 C480 0.950 . S
H473 C481 0.951 . S
H474 C482 0.951 . S
C475 C469 1.265 . S
C475 H470 0.950 . S
C475 C476 1.478 . S
C476 C475 1.478 . S
C476 C477 1.397 . S
C476 C493 1.394 . S
C477 C476 1.397 . S
C477 C478 1.438 . S
C477 C482 1.429 . S
C478 C477 1.438 . S
C478 C479 1.428 . S
C478 C491 1.394 . S
C479 H471 0.949 . S
C479 C478 1.428 . S
C479 C480 1.345 . S
C480 H472 0.950 . S
C480 C479 1.345 . S
C480 C481 1.424 . S
C481 H473 0.951 . S
C481 C480 1.424 . S
C481 C482 1.347 . S
C482 H474 0.951 . S
C482 C477 1.429 . S
C482 C481 1.347 . S
H483 C484 0.951 . S
C484 H483 0.951 . S
C484 C490 1.265 . S
H485 C490 0.950 . S
H486 C494 0.949 . S
H487 C495 0.950 1_565 S
H488 C496 0.951 . S
H489 C497 0.951 . S
C490 C484 1.265 . S
C490 H485 0.950 . S
C490 C491 1.478 . S
C491 C478 1.394 . S
C491 C490 1.478 . S
C491 C492 1.397 . S
C492 C491 1.397 . S
C492 C493 1.438 . S
C492 C497 1.429 . S
C493 C476 1.394 . S
C493 C492 1.438 . S
C493 C494 1.428 . S
C494 H486 0.949 . S
C494 C493 1.428 . S
C494 C495 1.345 . S
C495 H487 0.950 1_545 S
C495 C494 1.345 . S
C495 C496 1.424 1_545 S
C496 H488 0.951 . S
C496 C495 1.424 1_565 S
C496 C497 1.347 1_565 S
C497 H489 0.951 . S
C497 C492 1.429 . S
C497 C496 1.347 1_545 S
H498 C499 0.951 . S
C499 H498 0.951 . S
C499 C505 1.265 . S
H500 C505 0.950 . S
H501 C509 0.949 . S
H502 C510 0.950 . S
H503 C511 0.951 . S
H504 C512 0.951 . S
C505 C499 1.265 . S
C505 H500 0.950 . S
C505 C506 1.478 . S
C506 C505 1.478 . S
C506 C507 1.397 . S
C506 C523 1.394 . S
C507 C506 1.397 . S
C507 C508 1.438 . S
C507 C512 1.429 . S
C508 C507 1.438 . S
C508 C509 1.428 . S
C508 C521 1.394 . S
C509 H501 0.949 . S
C509 C508 1.428 . S
C509 C510 1.345 . S
C510 H502 0.950 . S
C510 C509 1.345 . S
C510 C511 1.424 . S
C511 H503 0.951 . S
C511 C510 1.424 . S
C511 C512 1.347 . S
C512 H504 0.951 . S
C512 C507 1.429 . S
C512 C511 1.347 . S
H513 C514 0.951 . S
C514 H513 0.951 . S
C514 C520 1.265 . S
H515 C520 0.950 . S
H516 C524 0.949 . S
H517 C525 0.950 . S
H518 C526 0.951 . S
H519 C527 0.951 . S
C520 C514 1.265 . S
C520 H515 0.950 . S
C520 C521 1.478 . S
C521 C508 1.394 . S
C521 C520 1.478 . S
C521 C522 1.397 . S
C522 C521 1.397 . S
C522 C523 1.438 . S
C522 C527 1.429 . S
C523 C506 1.394 . S
C523 C522 1.438 . S
C523 C524 1.428 . S
C524 H516 0.949 . S
C524 C523 1.428 . S
C524 C525 1.345 . S
C525 H517 0.950 . S
C525 C524 1.345 . S
C525 C526 1.424 . S
C526 H518 0.951 . S
C526 C525 1.424 . S
C526 C527 1.347 . S
C527 H519 0.951 . S
C527 C522 1.429 . S
C527 C526 1.347 . S
H528 C529 0.951 . S
C529 H528 0.951 . S
C529 C535 1.265 . S
H530 C535 0.950 . S
H531 C539 0.949 . S
H532 C540 0.950 . S
H533 C541 0.951 . S
H534 C542 0.951 . S
C535 C529 1.265 . S
C535 H530 0.950 . S
C535 C536 1.478 . S
C536 C535 1.478 . S
C536 C537 1.397 . S
C536 C553 1.394 . S
C537 C536 1.397 . S
C537 C538 1.438 . S
C537 C542 1.429 1_565 S
C538 C537 1.438 . S
C538 C539 1.428 1_565 S
C538 C551 1.394 . S
C539 H531 0.949 . S
C539 C538 1.428 1_545 S
C539 C540 1.345 . S
C540 H532 0.950 . S
C540 C539 1.345 . S
C540 C541 1.424 . S
C541 H533 0.951 . S
C541 C540 1.424 . S
C541 C542 1.347 . S
C542 H534 0.951 . S
C542 C537 1.429 1_545 S
C542 C541 1.347 . S
H543 C544 0.951 . S
C544 H543 0.951 . S
C544 C550 1.265 . S
H545 C550 0.950 . S
H546 C554 0.949 . S
H547 C555 0.950 . S
H548 C556 0.951 . S
H549 C557 0.951 . S
C550 C544 1.265 . S
C550 H545 0.950 . S
C550 C551 1.478 . S
C551 C538 1.394 . S
C551 C550 1.478 . S
C551 C552 1.397 . S
C552 C551 1.397 . S
C552 C553 1.438 . S
C552 C557 1.429 . S
C553 C536 1.394 . S
C553 C552 1.438 . S
C553 C554 1.428 . S
C554 H546 0.949 . S
C554 C553 1.428 . S
C554 C555 1.345 . S
C555 H547 0.950 . S
C555 C554 1.345 . S
C555 C556 1.424 . S
C556 H548 0.951 . S
C556 C555 1.424 . S
C556 C557 1.347 . S
C557 H549 0.951 . S
C557 C552 1.429 . S
C557 C556 1.347 . S
C214 C172 1.354 . S
C199 C138 1.476 . S
C229 C21 1.533 . S
C244 C193 1.365 . S
C259 C60 1.690 . S
C274 C169 1.463 . S
C289 C99 1.694 . S
C304 C190 1.479 . S
C334 C174 1.652 . S
C319 C16 1.588 . S
C364 C194 1.583 . S
C349 C40 1.565 . S
C379 C79 1.583 . S
C394 C170 1.516 . S
C409 C133 1.581 . S
C424 C192 1.544 . S
C454 C191 1.516 . S
C439 C55 1.583 . S
C484 C173 1.588 . S
C469 C94 1.563 . S
C514 C195 1.638 . S
C499 C118 1.606 . S
C529 C1 1.623 . S
C544 C171 1.541 . S
