# Generated by pormake.
# Topology tsx, (6,3)-cn, num edge types: 1
# Building blocks:
#     Node 0, Type 0, BuildingBlock: JUFBIX_clean_sbu_0, # of connection points: 6
#     Node 1, Type 0, BuildingBlock: JUFBIX_clean_sbu_0, # of connection points: 6
#     Node 2, Type 1, BuildingBlock: KAKCAD_clean_linker_0, # of connection points: 3
#     Node 3, Type 1, BuildingBlock: KAKCAD_clean_linker_0, # of connection points: 3
#     Node 4, Type 1, BuildingBlock: KAKCAD_clean_linker_0, # of connection points: 3
#     Node 5, Type 1, BuildingBlock: KAKCAD_clean_linker_0, # of connection points: 3
#     Edge 6, Type (0, 1), BuildingBlock: UVAHIK_clean_linker_0, # of connection points: 2
#     Edge 7, Type (0, 1), BuildingBlock: UVAHIK_clean_linker_0, # of connection points: 2
#     Edge 8, Type (0, 1), BuildingBlock: UVAHIK_clean_linker_0, # of connection points: 2
#     Edge 9, Type (0, 1), BuildingBlock: UVAHIK_clean_linker_0, # of connection points: 2
#     Edge 10, Type (0, 1), BuildingBlock: UVAHIK_clean_linker_0, # of connection points: 2
#     Edge 11, Type (0, 1), BuildingBlock: UVAHIK_clean_linker_0, # of connection points: 2
#     Edge 12, Type (0, 1), BuildingBlock: UVAHIK_clean_linker_0, # of connection points: 2
#     Edge 13, Type (0, 1), BuildingBlock: UVAHIK_clean_linker_0, # of connection points: 2
#     Edge 14, Type (0, 1), BuildingBlock: UVAHIK_clean_linker_0, # of connection points: 2
#     Edge 15, Type (0, 1), BuildingBlock: UVAHIK_clean_linker_0, # of connection points: 2
#     Edge 16, Type (0, 1), BuildingBlock: UVAHIK_clean_linker_0, # of connection points: 2
#     Edge 17, Type (0, 1), BuildingBlock: UVAHIK_clean_linker_0, # of connection points: 2
# Relax obj value: 0.158
# Max RMSD: 0.165
# Mean RMSD: 0.132
data_MOF--net-tsx--node1-JUFBIX_clean_sbu_0--node2-KAKCAD_clean_linker_0--edge1-UVAHIK_clean_linker_0
_symmetry_space_group_name_H-M    P1
_symmetry_Int_Tables_number       1
_symmetry_cell_setting            triclinic
loop_
_symmetry_equiv_pos_as_xyz
'x, y, z'
_cell_length_a     29.582618
_cell_length_b     35.13514
_cell_length_c     54.011259
_cell_angle_alpha  92.528453
_cell_angle_beta   89.388069
_cell_angle_gamma 96.284334
loop_
_atom_site_label
_atom_site_type_symbol
_atom_site_fract_x
_atom_site_fract_y
_atom_site_fract_z
_atom_type_partial_charge
Co0 Co 0.03087 0.98261 0.00698 0.0
C1 C 0.99355 0.00826 0.96369 0.0
Co2 Co 0.97607 0.02003 0.01291 0.0
C3 C 0.09196 0.92305 0.00963 0.0
C4 C 0.11366 0.96624 0.98394 0.0
N5 N 0.07974 0.95516 0.99983 0.0
N6 N 0.13253 0.91425 0.00067 0.0
C7 C 0.14616 0.94131 0.98451 0.0
H8 H 0.07234 0.90724 0.0236 0.0
H9 H 0.11511 0.9914 0.97299 0.0
C10 C 0.01298 0.99453 0.05629 0.0
N11 N 0.9275 0.04757 0.02053 0.0
C12 C 0.91724 0.08156 0.01267 0.0
C13 C 0.89496 0.03715 0.03736 0.0
N14 N 0.87986 0.0928 0.02424 0.0
C15 C 0.86579 0.06483 0.03971 0.0
C16 C 0.94784 0.94099 0.00761 0.0
O17 O 0.03866 0.97725 0.04166 0.0
O18 O 0.98419 0.01425 0.04726 0.0
O19 O 0.93561 0.97438 0.011 0.0
O20 O 0.98992 0.93702 0.00546 0.0
O21 O 0.96838 0.02568 0.97855 0.0
H22 H 0.89295 0.0112 0.04757 0.0
H23 H 0.93739 0.09815 0.99925 0.0
O24 O 0.02247 0.9882 0.97239 0.0
O25 O 0.07136 0.02848 0.0085 0.0
O26 O 0.0169 0.06547 0.01453 0.0
C27 C 0.0589 0.06182 0.01172 0.0
H28 H 0.17752 0.94294 0.97389 0.0
H29 H 0.83628 0.06432 0.05176 0.0
Co30 Co 0.54036 0.49028 0.51075 0.0
C31 C 0.50216 0.51418 0.46724 0.0
Co32 Co 0.48422 0.52651 0.51634 0.0
C33 C 0.60158 0.43055 0.51255 0.0
C34 C 0.62479 0.47584 0.48867 0.0
N35 N 0.59015 0.46369 0.50383 0.0
N36 N 0.64233 0.42207 0.50363 0.0
C37 C 0.6569 0.45049 0.48861 0.0
H38 H 0.58096 0.41347 0.52554 0.0
H39 H 0.62674 0.50172 0.4784 0.0
C40 C 0.5225 0.50302 0.55993 0.0
N41 N 0.43463 0.55307 0.52369 0.0
C42 C 0.42269 0.58613 0.51515 0.0
C43 C 0.40266 0.54255 0.5408 0.0
N44 N 0.3848 0.59669 0.52655 0.0
C45 C 0.37215 0.56923 0.54262 0.0
C46 C 0.45838 0.44702 0.51191 0.0
O47 O 0.5483 0.48568 0.54542 0.0
O48 O 0.49311 0.52206 0.5508 0.0
O49 O 0.44511 0.48007 0.51513 0.0
O50 O 0.50064 0.44397 0.50953 0.0
O51 O 0.47598 0.53089 0.4819 0.0
H52 H 0.40185 0.51716 0.55149 0.0
H53 H 0.44195 0.60253 0.50131 0.0
O54 O 0.53191 0.49516 0.47615 0.0
O55 O 0.57954 0.53701 0.51199 0.0
O56 O 0.52362 0.57272 0.51723 0.0
C57 C 0.56587 0.57001 0.51459 0.0
H58 H 0.6884 0.45257 0.47811 0.0
H59 H 0.34266 0.56831 0.55471 0.0
C60 C 0.99245 0.94888 0.33554 0.0
C61 C 0.00167 0.98279 0.32265 0.0
C62 C 0.98906 0.95017 0.36138 0.0
C63 C 0.99485 0.98539 0.375 0.0
C64 C 0.00376 0.01934 0.36212 0.0
C65 C 0.00717 0.01806 0.33625 0.0
C66 C 0.99265 0.98652 0.40256 0.0
C67 C 0.01328 0.95969 0.41579 0.0
C68 C 0.01206 0.96046 0.44182 0.0
C69 C 0.98982 0.98867 0.45476 0.0
C70 C 0.96916 0.01595 0.44182 0.0
C71 C 0.97067 0.01459 0.41575 0.0
C72 C 0.94642 0.04637 0.4553 0.0
C73 C 0.91536 0.03759 0.47466 0.0
C74 C 0.9546 0.08446 0.44815 0.0
C75 C 0.93145 0.11301 0.45959 0.0
C76 C 0.89933 0.10418 0.47842 0.0
C77 C 0.0359 0.9325 0.45509 0.0
C78 C 0.03209 0.89387 0.4467 0.0
C79 C 0.0655 0.94464 0.47475 0.0
C80 C 0.0925 0.91904 0.48492 0.0
C81 C 0.09015 0.88078 0.47573 0.0
C82 C 0.05889 0.86832 0.45688 0.0
C83 C 0.89174 0.06621 0.486 0.0
H84 H 0.98844 0.92121 0.32569 0.0
H85 H 0.9817 0.92351 0.37071 0.0
H86 H 0.00884 0.04692 0.37205 0.0
H87 H 0.01376 0.04475 0.32689 0.0
H88 H 0.03175 0.93881 0.40579 0.0
H89 H 0.95396 0.03506 0.40569 0.0
H90 H 0.98901 0.98964 0.47485 0.0
H91 H 0.90835 0.00843 0.48053 0.0
H92 H 0.97873 0.09215 0.43348 0.0
H93 H 0.93774 0.14188 0.45315 0.0
H94 H 0.00917 0.88361 0.43175 0.0
H95 H 0.06925 0.97429 0.48153 0.0
H96 H 0.86738 0.05863 0.50056 0.0
H97 H 0.05643 0.83916 0.44922 0.0
H98 H 0.11582 0.92937 0.49966 0.0
C99 C 0.97805 0.05747 0.6853 0.0
C100 C 0.97778 0.02324 0.69788 0.0
C101 C 0.98114 0.05723 0.65944 0.0
C102 C 0.98404 0.02276 0.64556 0.0
C103 C 0.98375 0.98855 0.65815 0.0
C104 C 0.98065 0.98879 0.68398 0.0
C105 C 0.98754 0.0224 0.61806 0.0
C106 C 0.01574 0.05096 0.60623 0.0
C107 C 0.01988 0.05028 0.58025 0.0
C108 C 0.99512 0.02089 0.56603 0.0
C109 C 0.96697 0.99212 0.57756 0.0
C110 C 0.96329 0.99307 0.60353 0.0
C111 C 0.94174 0.9606 0.56265 0.0
C112 C 0.91497 0.96828 0.5425 0.0
C113 C 0.94316 0.92254 0.56915 0.0
C114 C 0.91721 0.89273 0.55629 0.0
C115 C 0.88896 0.90039 0.53679 0.0
C116 C 0.0512 0.07969 0.56811 0.0
C117 C 0.05224 0.11847 0.57579 0.0
C118 C 0.08127 0.06907 0.54936 0.0
C119 C 0.1126 0.09662 0.53895 0.0
C120 C 0.11415 0.13533 0.54696 0.0
C121 C 0.08331 0.146 0.56529 0.0
C122 C 0.88842 0.93839 0.52979 0.0
H123 H 0.97529 0.08442 0.69543 0.0
H124 H 0.98067 0.084 0.65028 0.0
H125 H 0.98671 0.9616 0.64806 0.0
H126 H 0.98136 0.96202 0.6931 0.0
H127 H 0.03573 0.07304 0.61729 0.0
H128 H 0.94082 0.9712 0.61239 0.0
H129 H 0.99809 0.02015 0.54599 0.0
H130 H 0.91336 -0.00255 0.53714 0.0
H131 H 0.96394 0.91588 0.58445 0.0
H132 H 0.91789 0.86377 0.56227 0.0
H133 H 0.02918 0.12748 0.59005 0.0
H134 H 0.0814 0.03932 0.5432 0.0
H135 H 0.867 0.94499 0.51476 0.0
H136 H 0.08404 0.17555 0.57205 0.0
H137 H 0.13578 0.08764 0.52474 0.0
C138 C 0.4987 0.45856 0.83795 0.0
C139 C 0.50702 0.49336 0.82597 0.0
C140 C 0.49464 0.45828 0.86374 0.0
C141 C 0.49901 0.49278 0.87819 0.0
C142 C 0.50697 0.5276 0.86617 0.0
C143 C 0.51086 0.52788 0.84036 0.0
C144 C 0.49646 0.49237 0.90571 0.0
C145 C 0.51741 0.46509 0.91837 0.0
C146 C 0.51612 0.46468 0.94437 0.0
C147 C 0.49355 0.49211 0.95786 0.0
C148 C 0.47259 0.51979 0.9455 0.0
C149 C 0.47408 0.51961 0.91945 0.0
C150 C 0.44952 0.54938 0.95957 0.0
C151 C 0.41821 0.53937 0.97859 0.0
C152 C 0.45757 0.58789 0.95329 0.0
C153 C 0.43392 0.61568 0.96522 0.0
C154 C 0.40144 0.60563 0.98366 0.0
C155 C 0.54013 0.43629 0.9571 0.0
C156 C 0.53653 0.39798 0.94808 0.0
C157 C 0.56941 0.44774 0.97701 0.0
C158 C 0.59619 0.42175 0.98691 0.0
C159 C 0.59392 0.38379 0.97717 0.0
C160 C 0.5631 0.37203 0.95799 0.0
C161 C 0.3941 0.56723 0.99041 0.0
H162 H 0.49484 0.43152 0.82735 0.0
H163 H 0.48776 0.43098 0.87237 0.0
H164 H 0.51123 0.55466 0.87673 0.0
H165 H 0.51785 0.55515 0.8317 0.0
H166 H 0.53621 0.44484 0.90799 0.0
H167 H 0.45709 0.54041 0.90986 0.0
H168 H 0.4927 0.49217 0.97794 0.0
H169 H 0.41134 0.50985 0.98377 0.0
H170 H 0.48189 0.59647 0.93889 0.0
H171 H 0.44 0.64492 0.9594 0.0
H172 H 0.51387 0.38826 0.93291 0.0
H173 H 0.573 0.47715 0.98427 0.0
H174 H 0.36944 0.55872 0.00465 0.0
H175 H 0.56076 0.34311 0.94993 0.0
H176 H 0.61923 0.43152 0.00189 0.0
C177 C 0.48898 0.56081 0.18798 0.0
C178 C 0.49248 0.52785 0.20137 0.0
C179 C 0.49051 0.55898 0.16204 0.0
C180 C 0.49564 0.52416 0.149 0.0
C181 C 0.5003 0.4915 0.16247 0.0
C182 C 0.49869 0.49331 0.18831 0.0
C183 C 0.49494 0.52138 0.12146 0.0
C184 C 0.51837 0.55001 0.10741 0.0
C185 C 0.51832 0.54677 0.08133 0.0
C186 C 0.49398 0.51474 0.06932 0.0
C187 C 0.47062 0.48593 0.08315 0.0
C188 C 0.47111 0.48949 0.10911 0.0
C189 C 0.4457 0.45172 0.07076 0.0
C190 C 0.41332 0.45539 0.05245 0.0
C191 C 0.45228 0.41512 0.07844 0.0
C192 C 0.42546 0.38287 0.0689 0.0
C193 C 0.39101 0.38655 0.05171 0.0
C194 C 0.54538 0.57604 0.06677 0.0
C195 C 0.54516 0.61517 0.0732 0.0
C196 C 0.57331 0.56497 0.0471 0.0
C197 C 0.60181 0.59245 0.03478 0.0
C198 C 0.60268 0.63151 0.04178 0.0
C199 C 0.57344 0.64262 0.06081 0.0
C200 C 0.38602 0.42305 0.04306 0.0
H201 H 0.4839 0.58779 0.19752 0.0
H202 H 0.48648 0.58458 0.15219 0.0
H203 H 0.5053 0.46443 0.15302 0.0
H204 H 0.50253 0.46761 0.19809 0.0
H205 H 0.53804 0.57415 0.11679 0.0
H206 H 0.45211 0.46756 0.11972 0.0
H207 H 0.49362 0.51198 0.04925 0.0
H208 H 0.40769 0.4834 0.04626 0.0
H209 H 0.47768 0.41156 0.09222 0.0
H210 H 0.43107 0.35507 0.07543 0.0
H211 H 0.5236 0.62453 0.08809 0.0
H212 H 0.57437 0.53498 0.04182 0.0
H213 H 0.35968 0.42691 0.02992 0.0
H214 H 0.57366 0.67247 0.06681 0.0
H215 H 0.62373 0.5831 0.02006 0.0
C216 C 0.08103 0.13271 0.017 0.0
C217 C 0.09334 0.09561 0.01203 0.0
C218 C 0.11424 0.16429 0.01794 0.0
C219 C 0.23607 0.18808 0.0298 0.0
H220 H 0.21732 0.28682 0.0046 0.0
C221 C 0.34276 0.32642 0.06215 0.0
C222 C 0.35858 0.35278 0.04434 0.0
C223 C 0.31184 0.29485 0.05574 0.0
C224 C 0.22318 0.25929 0.01147 0.0
H225 H 0.14988 0.0627 0.00327 0.0
H226 H 0.20747 0.11766 0.00477 0.0
H227 H 0.15986 0.23192 0.99721 0.0
H228 H 0.354 0.36664 0.00576 0.0
H229 H 0.29913 0.31131 0.9946 0.0
H230 H 0.29909 0.21529 0.04417 0.0
C231 C 0.17235 0.12233 0.00834 0.0
C232 C 0.19014 0.22802 0.00748 0.0
C233 C 0.13928 0.09085 0.00743 0.0
C234 C 0.34226 0.34698 0.01994 0.0
C235 C 0.31094 0.31536 0.01355 0.0
C236 C 0.26888 0.21927 0.03386 0.0
C237 C 0.16032 0.15932 0.01392 0.0
C238 C 0.19608 0.1922 0.01684 0.0
C239 C 0.29565 0.28892 0.0314 0.0
C240 C 0.2625 0.2553 0.02507 0.0
H241 H 0.04589 0.13731 0.02055 0.0
H242 H 0.104 0.19243 0.02252 0.0
H243 H 0.24149 0.16097 0.03745 0.0
H244 H 0.35359 0.33052 0.08127 0.0
H245 H 0.29992 0.2754 0.07002 0.0
C246 C 0.13598 0.84604 0.00907 0.0
C247 C 0.15764 0.88338 0.0071 0.0
C248 C 0.16177 0.8153 0.01178 0.0
C249 C 0.27798 0.79092 0.99797 0.0
H250 H 0.24105 0.69968 0.03417 0.0
C251 C 0.3942 0.6721 0.00078 0.0
C252 C 0.3737 0.63504 0.99445 0.0
C253 C 0.36761 0.70156 0.00709 0.0
C254 C 0.25168 0.72501 0.02396 0.0
H255 H 0.22234 0.91857 0.00854 0.0
H256 H 0.26723 0.86555 0.01413 0.0
H257 H 0.19446 0.75332 0.03662 0.0
H258 H 0.30934 0.59924 0.99123 0.0
H259 H 0.26275 0.65088 0.00222 0.0
H260 H 0.33472 0.76285 0.98508 0.0
C261 C 0.23066 0.85945 0.0126 0.0
C262 C 0.22498 0.75566 0.0253 0.0
C263 C 0.20503 0.88988 0.00952 0.0
C264 C 0.32611 0.62748 0.99615 0.0
C265 C 0.29943 0.65705 0.00244 0.0
C266 C 0.30462 0.76057 0.99676 0.0
C267 C 0.20959 0.8216 0.01285 0.0
C268 C 0.23789 0.78902 0.01231 0.0
C269 C 0.31989 0.69467 0.00715 0.0
C270 C 0.29189 0.72725 0.0097 0.0
H271 H 0.09942 0.84044 0.00718 0.0
H272 H 0.14441 0.78653 0.01182 0.0
H273 H 0.28839 0.8156 0.98712 0.0
H274 H 0.43083 0.67861 1.0001 0.0
H275 H 0.3844 0.73009 0.01116 0.0
C276 C 0.86672 0.91352 0.0049 0.0
C277 C 0.91283 0.90762 0.00625 0.0
C278 C 0.83296 0.88262 0.00468 0.0
C279 C 0.81102 0.77734 0.99517 0.0
H280 H 0.70678 0.79126 0.03745 0.0
C281 C 0.68191 0.65346 0.02786 0.0
C282 C 0.63622 0.66047 0.03073 0.0
C283 C 0.71486 0.68258 0.02079 0.0
C284 C 0.73522 0.78707 0.02521 0.0
H285 H 0.95981 0.86455 0.00774 0.0
H286 H 0.90041 0.81026 0.0079 0.0
H287 H 0.76651 0.84376 0.03345 0.0
H288 H 0.58865 0.70247 0.02664 0.0
H289 H 0.64615 0.75331 0.01416 0.0
H290 H 0.77975 0.72011 0.98744 0.0
C291 C 0.89056 0.8389 0.00667 0.0
C292 C 0.76956 0.81718 0.02294 0.0
C293 C 0.92454 0.86996 0.00673 0.0
C294 C 0.62374 0.69648 0.02501 0.0
C295 C 0.65664 0.72555 0.0179 0.0
C296 C 0.77656 0.74705 0.9975 0.0
C297 C 0.84436 0.84501 0.00603 0.0
C298 C 0.80787 0.81272 0.00793 0.0
C299 C 0.70274 0.71926 0.01643 0.0
C300 C 0.73833 0.75163 0.01258 0.0
H301 H 0.85653 0.94214 0.00417 0.0
H302 H 0.79778 0.88826 0.00363 0.0
H303 H 0.83992 0.77316 0.98327 0.0
H304 H 0.69263 0.62609 0.03236 0.0
H305 H 0.75012 0.67692 0.02002 0.0
C306 C 0.83688 0.1441 0.0414 0.0
C307 C 0.85867 0.12722 0.02118 0.0
C308 C 0.81231 0.17517 0.03821 0.0
C309 C 0.79087 0.2502 0.99495 0.0
H310 H 0.67429 0.2447 0.02893 0.0
C311 C 0.60966 0.3182 0.98883 0.0
C312 C 0.62523 0.35697 0.98584 0.0
C313 C 0.63991 0.29221 0.99476 0.0
C314 C 0.70663 0.24661 0.01922 0.0
H315 H 0.87341 0.13047 0.98195 0.0
H316 H 0.82968 0.18464 0.97615 0.0
H317 H 0.72491 0.19606 0.0353 0.0
H318 H 0.68471 0.39898 0.98719 0.0
H319 H 0.73741 0.3537 0.99814 0.0
H320 H 0.77164 0.30009 0.97818 0.0
C321 C 0.83208 0.17411 0.99458 0.0
C322 C 0.73596 0.21897 0.02311 0.0
C323 C 0.85706 0.14309 0.99785 0.0
C324 C 0.67156 0.36937 0.9896 0.0
C325 C 0.70186 0.34334 0.99554 0.0
C326 C 0.76142 0.27788 0.99102 0.0
C327 C 0.8086 0.18995 0.01466 0.0
C328 C 0.77836 0.22031 0.01095 0.0
C329 C 0.68646 0.30437 0.9979 0.0
C330 C 0.71881 0.2762 0.00298 0.0
H331 H 0.83844 0.13296 0.0597 0.0
H332 H 0.79567 0.18729 0.05419 0.0
H333 H 0.82343 0.25224 0.98546 0.0
H334 H 0.5741 0.30782 0.98628 0.0
H335 H 0.62695 0.26234 0.99622 0.0
C336 C 0.58484 0.64147 0.51601 0.0
C337 C 0.59903 0.60458 0.5137 0.0
C338 C 0.61655 0.67394 0.51473 0.0
C339 C 0.73838 0.70457 0.5235 0.0
H340 H 0.7136 0.794 0.48849 0.0
C341 C 0.87295 0.83332 0.5192 0.0
C342 C 0.85752 0.86888 0.52552 0.0
C343 C 0.84203 0.8015 0.51305 0.0
C344 C 0.7209 0.76927 0.4984 0.0
H345 H 0.6575 0.57283 0.50785 0.0
H346 H 0.71248 0.62925 0.50553 0.0
H347 H 0.6575 0.73737 0.48798 0.0
H348 H 0.79807 0.89975 0.52888 0.0
H349 H 0.7439 0.84407 0.51842 0.0
H350 H 0.80112 0.73636 0.53439 0.0
C351 C 0.67702 0.63318 0.50865 0.0
C352 C 0.68877 0.73692 0.49817 0.0
C353 C 0.64544 0.60082 0.50992 0.0
C354 C 0.81088 0.87269 0.52392 0.0
C355 C 0.77987 0.84077 0.51792 0.0
C356 C 0.77036 0.73679 0.52375 0.0
C357 C 0.66302 0.67009 0.51117 0.0
C358 C 0.69714 0.7043 0.51082 0.0
C359 C 0.79503 0.80455 0.5133 0.0
C360 C 0.76198 0.76959 0.51131 0.0
H361 H 0.54929 0.6453 0.51886 0.0
H362 H 0.60481 0.70202 0.517 0.0
H363 H 0.74551 0.68017 0.5338 0.0
H364 H 0.90884 0.82981 0.51994 0.0
H365 H 0.85485 0.77418 0.50898 0.0
C366 C 0.64305 0.35274 0.50977 0.0
C367 C 0.66621 0.3897 0.50855 0.0
C368 C 0.66742 0.3208 0.51106 0.0
C369 C 0.78111 0.29312 0.49445 0.0
H370 H 0.74324 0.20143 0.53002 0.0
C371 C 0.89403 0.17145 0.49463 0.0
C372 C 0.87256 0.13448 0.48897 0.0
C373 C 0.86839 0.20151 0.50104 0.0
C374 C 0.75409 0.22683 0.51992 0.0
H375 H 0.73235 0.42274 0.50985 0.0
H376 H 0.77477 0.36757 0.51281 0.0
H377 H 0.69876 0.25633 0.53405 0.0
H378 H 0.80748 0.09958 0.4869 0.0
H379 H 0.76252 0.15229 0.49805 0.0
H380 H 0.83596 0.2639 0.48012 0.0
C381 C 0.73803 0.36279 0.51183 0.0
C382 C 0.7286 0.25822 0.52219 0.0
C383 C 0.71379 0.39444 0.51024 0.0
C384 C 0.82499 0.12773 0.4913 0.0
C385 C 0.79925 0.15792 0.49768 0.0
C386 C 0.80652 0.26199 0.49228 0.0
C387 C 0.71533 0.32545 0.51139 0.0
C388 C 0.74198 0.29183 0.50954 0.0
C389 C 0.82063 0.19538 0.50187 0.0
C390 C 0.7935 0.22851 0.50502 0.0
H391 H 0.60634 0.34841 0.50842 0.0
H392 H 0.64884 0.29247 0.51062 0.0
H393 H 0.79178 0.31802 0.48385 0.0
H394 H 0.93069 0.17737 0.49346 0.0
H395 H 0.88596 0.22986 0.50473 0.0
C396 C 0.43732 0.37575 0.51224 0.0
C397 C 0.42436 0.41294 0.51118 0.0
C398 C 0.40424 0.34408 0.51299 0.0
C399 C 0.28416 0.32079 0.53064 0.0
H400 H 0.29471 0.22322 0.49583 0.0
C401 C 0.13758 0.20079 0.53163 0.0
C402 C 0.1491 0.16443 0.53724 0.0
C403 C 0.17127 0.22969 0.52525 0.0
C404 C 0.29149 0.25028 0.50574 0.0
H405 H 0.36675 0.44596 0.50885 0.0
H406 H 0.30957 0.39104 0.50971 0.0
H407 H 0.35436 0.27655 0.49099 0.0
H408 H 0.20468 0.12931 0.53955 0.0
H409 H 0.26367 0.17997 0.52847 0.0
H410 H 0.22175 0.29482 0.54554 0.0
C411 C 0.34506 0.38625 0.51062 0.0
C412 C 0.32563 0.28073 0.50302 0.0
C413 C 0.37792 0.41774 0.51002 0.0
C414 C 0.19476 0.157 0.53515 0.0
C415 C 0.22853 0.18599 0.5288 0.0
C416 C 0.25015 0.29054 0.53329 0.0
C417 C 0.35772 0.34914 0.5126 0.0
C418 C 0.32216 0.31637 0.51538 0.0
C419 C 0.21723 0.22291 0.52441 0.0
C420 C 0.25329 0.255 0.52082 0.0
H421 H 0.47289 0.37119 0.51311 0.0
H422 H 0.41504 0.31583 0.51465 0.0
H423 H 0.28095 0.34757 0.54089 0.0
H424 H 0.10256 0.20711 0.53263 0.0
H425 H 0.16142 0.25765 0.52145 0.0
C426 C 0.35978 0.64491 0.49917 0.0
C427 C 0.36184 0.63002 0.52278 0.0
C428 C 0.33344 0.67488 0.49527 0.0
C429 C 0.23521 0.71837 0.52272 0.0
H430 H 0.26942 0.79882 0.4771 0.0
C431 C 0.16825 0.86717 0.48801 0.0
C432 C 0.12193 0.85438 0.48453 0.0
C433 C 0.19897 0.84153 0.49405 0.0
C434 C 0.25957 0.77678 0.49012 0.0
H435 H 0.3407 0.63648 0.56112 0.0
H436 H 0.29553 0.68893 0.55451 0.0
H437 H 0.32229 0.75209 0.48498 0.0
H438 H 0.07134 0.80491 0.48557 0.0
H439 H 0.12492 0.76011 0.49565 0.0
H440 H 0.17286 0.74323 0.52817 0.0
C441 C 0.31292 0.67682 0.53879 0.0
C442 C 0.28966 0.74973 0.49439 0.0
C443 C 0.33888 0.64681 0.54261 0.0
C444 C 0.10686 0.81561 0.48789 0.0
C445 C 0.13754 0.79 0.49391 0.0
C446 C 0.20523 0.74539 0.5185 0.0
C447 C 0.30896 0.69065 0.51498 0.0
C448 C 0.27776 0.72012 0.5107 0.0
C449 C 0.18406 0.80254 0.49678 0.0
C450 C 0.21689 0.7748 0.50203 0.0
H451 H 0.37696 0.63235 0.48355 0.0
H452 H 0.3309 0.68468 0.47666 0.0
H453 H 0.2246 0.69565 0.53514 0.0
H454 H 0.18107 0.89677 0.48531 0.0
H455 H 0.23446 0.85223 0.49646 0.0
C456 C 0.98626 0.01152 0.09893 0.0
C457 C 0.01531 0.99173 0.08353 0.0
C458 C 0.98681 0.00852 0.12457 0.0
C459 C 0.05601 0.98356 0.17646 0.0
H460 H 0.93976 0.97483 0.21083 0.0
C461 C 0.03888 0.00533 0.28299 0.0
C462 C 0.00532 0.98133 0.29513 0.0
C463 C 0.04187 0.00421 0.25711 0.0
C464 C 0.97252 0.97685 0.20155 0.0
H465 H 0.06826 0.95364 0.08313 0.0
H466 H 0.06906 0.94824 0.12822 0.0
H467 H 0.9419 0.97642 0.16587 0.0
H468 H 0.94859 0.93727 0.28947 0.0
H469 H 0.9543 0.93484 0.24442 0.0
H470 H 0.08655 0.98368 0.21229 0.0
C471 C 0.04604 0.96627 0.12028 0.0
C472 C 0.97376 0.97821 0.17576 0.0
C473 C 0.04546 0.96923 0.09448 0.0
C474 C 0.97511 0.95592 0.28075 0.0
C475 C 0.97808 0.95481 0.2549 0.0
C476 C 0.05477 0.98226 0.20235 0.0
C477 C 0.01635 0.98562 0.13558 0.0
C478 C 0.01549 0.982 0.16291 0.0
C479 C 0.0113 0.97911 0.24274 0.0
C480 C 0.01298 0.97915 0.2152 0.0
H481 H 0.96276 0.02932 0.0912 0.0
H482 H 0.96414 0.02441 0.13581 0.0
H483 H 0.0887 0.9867 0.16713 0.0
H484 H 0.06305 0.02491 0.2935 0.0
H485 H 0.06757 0.02358 0.24834 0.0
C486 C 0.01647 0.99045 0.92037 0.0
C487 C 0.98938 0.01088 0.93654 0.0
C488 C 0.01254 0.99243 0.89474 0.0
C489 C 0.97796 0.98333 0.84201 0.0
H490 H 0.96965 0.08095 0.81251 0.0
C491 C 0.94827 0.99407 0.73735 0.0
C492 C 0.97509 0.0234 0.7254 0.0
C493 C 0.94709 0.99337 0.7632 0.0
C494 C 0.97211 0.0535 0.82047 0.0
H495 H 0.93705 0.04963 0.93843 0.0
H496 H 0.93009 0.05296 0.89354 0.0
H497 H 0.97396 0.07805 0.85752 0.0
H498 H 0.02153 0.07513 0.73132 0.0
H499 H 0.01946 0.0739 0.77643 0.0
H500 H 0.9772 0.95888 0.80503 0.0
C501 C 0.95459 0.03561 0.90077 0.0
C502 C 0.9741 0.05178 0.84626 0.0
C503 C 0.95842 0.03355 0.92648 0.0
C504 C 6e-05 0.0524 0.73993 0.0
C505 C -0.00114 0.05171 0.7658 0.0
C506 C 0.97584 0.98503 0.81627 0.0
C507 C 0.98149 0.01493 0.88462 0.0
C508 C 0.97746 0.01671 0.8573 0.0
C509 C 0.97268 0.02199 0.77773 0.0
C510 C 0.9732 0.02017 0.80517 0.0
H511 H 0.04081 0.97283 0.92748 0.0
H512 H 0.03426 0.97662 0.88282 0.0
H513 H 0.97999 0.9558 0.84994 0.0
H514 H 0.92798 0.97168 0.72672 0.0
H515 H 0.92598 0.97043 0.77182 0.0
C516 C 0.55339 0.47678 0.59817 0.0
C517 C 0.52596 0.50154 0.58719 0.0
C518 C 0.55539 0.47537 0.62403 0.0
C519 C 0.53488 0.53185 0.6815 0.0
H520 H 0.52018 0.43392 0.71267 0.0
C521 C 0.49137 0.52035 0.78506 0.0
C522 C 0.51189 0.49367 0.79856 0.0
C523 C 0.49616 0.52088 0.75932 0.0
C524 C 0.52501 0.46151 0.70428 0.0
H525 H 0.47937 0.54435 0.59477 0.0
H526 H 0.48305 0.54193 0.63955 0.0
H527 H 0.52455 0.43573 0.66753 0.0
H528 H 0.55396 0.44685 0.79562 0.0
H529 H 0.56262 0.44792 0.75065 0.0
H530 H 0.53523 0.55775 0.71806 0.0
C531 C 0.50323 0.5238 0.62829 0.0
C532 C 0.52751 0.46251 0.67842 0.0
C533 C 0.50093 0.52498 0.60257 0.0
C534 C 0.53725 0.46744 0.78571 0.0
C535 C 0.54219 0.46805 0.75994 0.0
C536 C 0.5326 0.53087 0.70729 0.0
C537 C 0.5304 0.499 0.63933 0.0
C538 C 0.53172 0.4977 0.66676 0.0
C539 C 0.52179 0.49485 0.74643 0.0
C540 C 0.52689 0.4957 0.71901 0.0
H541 H 0.573 0.45832 0.58681 0.0
H542 H 0.57678 0.45609 0.63206 0.0
H543 H 0.53893 0.55942 0.67305 0.0
H544 H 0.47101 0.54052 0.79437 0.0
H545 H 0.4792 0.5414 0.74948 0.0
C546 C 0.46678 0.53836 0.42972 0.0
C547 C 0.4987 0.51689 0.44007 0.0
C548 C 0.46401 0.54082 0.40399 0.0
C549 C 0.48468 0.55842 0.34973 0.0
H550 H 0.49493 0.46653 0.30851 0.0
C551 C 0.51187 0.5595 0.24319 0.0
C552 C 0.48919 0.52903 0.22885 0.0
C553 C 0.51039 0.55935 0.26909 0.0
C554 C 0.49157 0.4924 0.31973 0.0
H555 H 0.55303 0.48151 0.4315 0.0
H556 H 0.54835 0.48601 0.38685 0.0
H557 H 0.49662 0.46337 0.35338 0.0
H558 H 0.44533 0.47552 0.23046 0.0
H559 H 0.44268 0.4753 0.27552 0.0
H560 H 0.47916 0.58731 0.31593 0.0
C561 C 0.52503 0.50052 0.39853 0.0
C562 C 0.49309 0.49067 0.34546 0.0
C563 C 0.52785 0.49811 0.42417 0.0
C564 C 0.46398 0.499 0.24097 0.0
C565 C 0.46245 0.49888 0.2668 0.0
C566 C 0.48325 0.56017 0.32391 0.0
C567 C 0.493 0.52177 0.38812 0.0
C568 C 0.48992 0.52368 0.36077 0.0
C569 C 0.48614 0.52877 0.28118 0.0
C570 C 0.48679 0.52716 0.30863 0.0
H571 H 0.44386 0.55321 0.44147 0.0
H572 H 0.43873 0.55716 0.39652 0.0
H573 H 0.48249 0.58441 0.36102 0.0
H574 H 0.53185 0.5829 0.23439 0.0
H575 H 0.52937 0.58262 0.27963 0.0
loop_
_geom_bond_atom_site_label_1
_geom_bond_atom_site_label_2
_geom_bond_distance
_geom_bond_site_symmetry_2
_ccdc_geom_bond_type
Co0 N5 2.057 . S
Co0 O17 2.021 . S
Co0 O20 2.062 1_455 S
Co0 O24 2.117 1_554 S
Co0 O25 2.020 1_565 S
C1 O21 1.259 1_455 S
C1 O24 1.258 1_545 S
Co2 N11 2.057 . S
Co2 O18 2.117 . S
Co2 O19 2.020 1_545 S
Co2 O21 2.021 1_554 S
Co2 O26 2.062 1_655 S
C3 N5 1.316 . S
C3 N6 1.347 . S
C3 H8 0.931 . S
C4 N5 1.375 1_556 S
C4 C7 1.350 . S
C4 H9 0.930 . S
N5 Co0 2.057 . S
N5 C3 1.316 . S
N5 C4 1.375 1_554 S
N6 C3 1.347 . S
N6 C7 1.373 1_554 S
C7 C4 1.350 . S
C7 N6 1.373 1_556 S
C7 H28 0.931 . S
H8 C3 0.931 . S
H9 C4 0.930 . S
C10 O17 1.259 1_545 S
C10 O18 1.258 1_455 S
N11 Co2 2.057 . S
N11 C12 1.316 . S
N11 C13 1.375 . S
C12 N11 1.316 . S
C12 N14 1.347 . S
C12 H23 0.931 1_554 S
C13 N11 1.375 . S
C13 C15 1.350 . S
C13 H22 0.930 . S
N14 C12 1.347 . S
N14 C15 1.373 . S
C15 C13 1.350 . S
C15 N14 1.373 . S
C15 H29 0.931 . S
C16 O19 1.256 . S
C16 O20 1.255 . S
O17 Co0 2.021 . S
O17 C10 1.259 1_565 S
O18 Co2 2.117 . S
O18 C10 1.258 1_655 S
O19 Co2 2.020 1_565 S
O19 C16 1.256 . S
O20 Co0 2.062 1_655 S
O20 C16 1.255 . S
O21 C1 1.259 1_655 S
O21 Co2 2.021 1_556 S
H22 C13 0.930 . S
H23 C12 0.931 1_556 S
O24 Co0 2.117 1_556 S
O24 C1 1.258 1_565 S
O25 Co0 2.020 1_545 S
O25 C27 1.256 . S
O26 Co2 2.062 1_455 S
O26 C27 1.255 . S
C27 O25 1.256 . S
C27 O26 1.255 . S
H28 C7 0.931 . S
H29 C15 0.931 . S
Co30 N35 2.057 . S
Co30 O47 2.021 . S
Co30 O50 2.062 . S
Co30 O54 2.117 . S
Co30 O55 2.020 . S
C31 O51 1.259 . S
C31 O54 1.258 . S
Co32 N41 2.057 . S
Co32 O48 2.117 . S
Co32 O49 2.020 . S
Co32 O51 2.021 . S
Co32 O56 2.062 . S
C33 N35 1.316 . S
C33 N36 1.347 . S
C33 H38 0.931 . S
C34 N35 1.375 . S
C34 C37 1.350 . S
C34 H39 0.930 . S
N35 Co30 2.057 . S
N35 C33 1.316 . S
N35 C34 1.375 . S
N36 C33 1.347 . S
N36 C37 1.373 . S
C37 C34 1.350 . S
C37 N36 1.373 . S
C37 H58 0.931 . S
H38 C33 0.931 . S
H39 C34 0.930 . S
C40 O47 1.259 . S
C40 O48 1.258 . S
N41 Co32 2.057 . S
N41 C42 1.316 . S
N41 C43 1.375 . S
C42 N41 1.316 . S
C42 N44 1.347 . S
C42 H53 0.931 . S
C43 N41 1.375 . S
C43 C45 1.350 . S
C43 H52 0.930 . S
N44 C42 1.347 . S
N44 C45 1.373 . S
C45 C43 1.350 . S
C45 N44 1.373 . S
C45 H59 0.931 . S
C46 O49 1.256 . S
C46 O50 1.255 . S
O47 Co30 2.021 . S
O47 C40 1.259 . S
O48 Co32 2.117 . S
O48 C40 1.258 . S
O49 Co32 2.020 . S
O49 C46 1.256 . S
O50 Co30 2.062 . S
O50 C46 1.255 . S
O51 C31 1.259 . S
O51 Co32 2.021 . S
H52 C43 0.930 . S
H53 C42 0.931 . S
O54 Co30 2.117 . S
O54 C31 1.258 . S
O55 Co30 2.020 . S
O55 C57 1.256 . S
O56 Co32 2.062 . S
O56 C57 1.255 . S
C57 O55 1.256 . S
C57 O56 1.255 . S
H58 C37 0.931 . S
H59 C45 0.931 . S
C60 C61 1.397 1_655 S
C60 C62 1.397 . S
C60 H84 0.931 . S
C61 C60 1.397 1_455 S
C61 C65 1.387 1_565 S
C62 C60 1.397 . S
C62 C63 1.401 1_655 S
C62 H85 0.930 . S
C63 C62 1.401 1_455 S
C63 C64 1.359 1_565 S
C63 C66 1.481 . S
C64 C63 1.359 1_545 S
C64 C65 1.389 . S
C64 H86 0.929 . S
C65 C61 1.387 1_545 S
C65 C64 1.389 . S
C65 H87 0.931 . S
C66 C63 1.481 . S
C66 C67 1.411 . S
C66 C71 1.367 1_465 S
C67 C66 1.411 . S
C67 C68 1.401 . S
C67 H88 0.930 . S
C68 C67 1.401 . S
C68 C69 1.365 1_465 S
C68 C77 1.511 . S
C69 C68 1.365 1_645 S
C69 C70 1.404 . S
C69 H90 0.931 . S
C70 C69 1.404 . S
C70 C71 1.361 . S
C70 C72 1.500 . S
C71 C66 1.367 1_645 S
C71 C70 1.361 . S
C71 H89 0.931 . S
C72 C70 1.500 . S
C72 C73 1.371 . S
C72 C74 1.365 . S
C73 C72 1.371 . S
C73 C83 1.386 . S
C73 H91 0.931 . S
C74 C72 1.365 . S
C74 C75 1.409 . S
C74 H92 0.929 . S
C75 C74 1.409 . S
C75 C76 1.380 . S
C75 H93 0.930 . S
C76 C75 1.380 . S
C76 C83 1.357 . S
C77 C68 1.511 . S
C77 C78 1.341 . S
C77 C79 1.371 . S
C78 C77 1.341 . S
C78 C82 1.394 . S
C78 H94 0.930 . S
C79 C77 1.371 . S
C79 C80 1.392 . S
C79 H95 0.931 . S
C80 C79 1.392 . S
C80 C81 1.331 . S
C80 H98 0.932 . S
C81 C80 1.331 . S
C81 C82 1.336 . S
C82 C78 1.394 . S
C82 C81 1.336 . S
C82 H97 0.929 . S
C83 C73 1.386 . S
C83 C76 1.357 . S
C83 H96 0.928 . S
H84 C60 0.931 . S
H85 C62 0.930 . S
H86 C64 0.929 . S
H87 C65 0.931 . S
H88 C67 0.930 . S
H89 C71 0.931 . S
H90 C69 0.931 . S
H91 C73 0.931 . S
H92 C74 0.929 . S
H93 C75 0.930 . S
H94 C78 0.930 . S
H95 C79 0.931 . S
H96 C83 0.928 . S
H97 C82 0.929 . S
H98 C80 0.932 . S
C99 C100 1.386 . S
C99 C101 1.397 . S
C99 H123 0.931 . S
C100 C99 1.386 . S
C100 C104 1.397 1_545 S
C101 C99 1.397 . S
C101 C102 1.384 . S
C101 H124 0.930 . S
C102 C101 1.384 . S
C102 C103 1.377 1_545 S
C102 C105 1.481 . S
C103 C102 1.377 1_565 S
C103 C104 1.389 . S
C103 H125 0.929 . S
C104 C100 1.397 1_565 S
C104 C103 1.389 . S
C104 H126 0.931 . S
C105 C102 1.481 . S
C105 C106 1.387 . S
C105 C110 1.390 1_445 S
C106 C105 1.387 . S
C106 C107 1.401 . S
C106 H127 0.930 . S
C107 C106 1.401 . S
C107 C108 1.389 . S
C107 C116 1.511 . S
C108 C107 1.389 . S
C108 C109 1.381 1_445 S
C108 H129 0.930 1_455 S
C109 C108 1.381 1_665 S
C109 C110 1.361 . S
C109 C111 1.500 . S
C110 C105 1.390 1_665 S
C110 C109 1.361 . S
C110 H128 0.931 . S
C111 C109 1.500 . S
C111 C112 1.371 . S
C111 C113 1.365 . S
C112 C111 1.371 . S
C112 C122 1.386 . S
C112 H130 0.931 . S
C113 C111 1.365 . S
C113 C114 1.409 . S
C113 H131 0.929 . S
C114 C113 1.409 . S
C114 C115 1.380 . S
C114 H132 0.930 . S
C115 C114 1.380 . S
C115 C122 1.357 . S
C116 C107 1.511 . S
C116 C117 1.341 . S
C116 C118 1.371 . S
C117 C116 1.341 . S
C117 C121 1.394 . S
C117 H133 0.930 . S
C118 C116 1.371 . S
C118 C119 1.392 . S
C118 H134 0.931 . S
C119 C118 1.392 . S
C119 C120 1.331 . S
C119 H137 0.932 . S
C120 C119 1.331 . S
C120 C121 1.336 . S
C121 C117 1.394 . S
C121 C120 1.336 . S
C121 H136 0.929 . S
C122 C112 1.386 . S
C122 C115 1.357 . S
C122 H135 0.928 . S
H123 C99 0.931 . S
H124 C101 0.930 . S
H125 C103 0.929 . S
H126 C104 0.931 . S
H127 C106 0.930 . S
H128 C110 0.931 . S
H129 C108 0.930 1_655 S
H130 C112 0.931 . S
H131 C113 0.929 . S
H132 C114 0.930 . S
H133 C117 0.930 . S
H134 C118 0.931 . S
H135 C122 0.928 . S
H136 C121 0.929 . S
H137 C119 0.932 . S
C138 C139 1.386 . S
C138 C140 1.397 . S
C138 H162 0.931 . S
C139 C138 1.386 . S
C139 C143 1.397 . S
C140 C138 1.397 . S
C140 C141 1.384 . S
C140 H163 0.930 . S
C141 C140 1.384 . S
C141 C142 1.377 . S
C141 C144 1.481 . S
C142 C141 1.377 . S
C142 C143 1.389 . S
C142 H164 0.929 . S
C143 C139 1.397 . S
C143 C142 1.389 . S
C143 H165 0.931 . S
C144 C141 1.481 . S
C144 C145 1.387 . S
C144 C149 1.390 . S
C145 C144 1.387 . S
C145 C146 1.401 . S
C145 H166 0.930 . S
C146 C145 1.401 . S
C146 C147 1.376 . S
C146 C155 1.511 . S
C147 C146 1.376 . S
C147 C148 1.392 . S
C147 H168 0.931 . S
C148 C147 1.392 . S
C148 C149 1.361 . S
C148 C150 1.500 . S
C149 C144 1.390 . S
C149 C148 1.361 . S
C149 H167 0.931 . S
C150 C148 1.500 . S
C150 C151 1.371 . S
C150 C152 1.365 . S
C151 C150 1.371 . S
C151 C161 1.386 . S
C151 H169 0.931 . S
C152 C150 1.365 . S
C152 C153 1.409 . S
C152 H170 0.929 . S
C153 C152 1.409 . S
C153 C154 1.380 . S
C153 H171 0.930 . S
C154 C153 1.380 . S
C154 C161 1.357 . S
C155 C146 1.511 . S
C155 C156 1.341 . S
C155 C157 1.371 . S
C156 C155 1.341 . S
C156 C160 1.394 . S
C156 H172 0.930 . S
C157 C155 1.371 . S
C157 C158 1.392 . S
C157 H173 0.931 . S
C158 C157 1.392 . S
C158 C159 1.331 . S
C158 H176 0.932 1_556 S
C159 C158 1.331 . S
C159 C160 1.336 . S
C160 C156 1.394 . S
C160 C159 1.336 . S
C160 H175 0.929 . S
C161 C151 1.386 . S
C161 C154 1.357 . S
C161 H174 0.928 1_556 S
H162 C138 0.931 . S
H163 C140 0.930 . S
H164 C142 0.929 . S
H165 C143 0.931 . S
H166 C145 0.930 . S
H167 C149 0.931 . S
H168 C147 0.931 . S
H169 C151 0.931 . S
H170 C152 0.929 . S
H171 C153 0.930 . S
H172 C156 0.930 . S
H173 C157 0.931 . S
H174 C161 0.928 1_554 S
H175 C160 0.929 . S
H176 C158 0.932 1_554 S
C177 C178 1.386 . S
C177 C179 1.397 . S
C177 H201 0.931 . S
C178 C177 1.386 . S
C178 C182 1.397 . S
C179 C177 1.397 . S
C179 C180 1.384 . S
C179 H202 0.930 . S
C180 C179 1.384 . S
C180 C181 1.377 . S
C180 C183 1.481 . S
C181 C180 1.377 . S
C181 C182 1.389 . S
C181 H203 0.929 . S
C182 C178 1.397 . S
C182 C181 1.389 . S
C182 H204 0.931 . S
C183 C180 1.481 . S
C183 C184 1.387 . S
C183 C188 1.390 . S
C184 C183 1.387 . S
C184 C185 1.401 . S
C184 H205 0.930 . S
C185 C184 1.401 . S
C185 C186 1.376 . S
C185 C194 1.511 . S
C186 C185 1.376 . S
C186 C187 1.392 . S
C186 H207 0.931 . S
C187 C186 1.392 . S
C187 C188 1.361 . S
C187 C189 1.500 . S
C188 C183 1.390 . S
C188 C187 1.361 . S
C188 H206 0.931 . S
C189 C187 1.500 . S
C189 C190 1.371 . S
C189 C191 1.365 . S
C190 C189 1.371 . S
C190 C200 1.386 . S
C190 H208 0.931 . S
C191 C189 1.365 . S
C191 C192 1.409 . S
C191 H209 0.929 . S
C192 C191 1.409 . S
C192 C193 1.380 . S
C192 H210 0.930 . S
C193 C192 1.380 . S
C193 C200 1.357 . S
C194 C185 1.511 . S
C194 C195 1.341 . S
C194 C196 1.371 . S
C195 C194 1.341 . S
C195 C199 1.394 . S
C195 H211 0.930 . S
C196 C194 1.371 . S
C196 C197 1.392 . S
C196 H212 0.931 . S
C197 C196 1.392 . S
C197 C198 1.331 . S
C197 H215 0.932 . S
C198 C197 1.331 . S
C198 C199 1.336 . S
C199 C195 1.394 . S
C199 C198 1.336 . S
C199 H214 0.929 . S
C200 C190 1.386 . S
C200 C193 1.357 . S
C200 H213 0.928 . S
H201 C177 0.931 . S
H202 C179 0.930 . S
H203 C181 0.929 . S
H204 C182 0.931 . S
H205 C184 0.930 . S
H206 C188 0.931 . S
H207 C186 0.931 . S
H208 C190 0.931 . S
H209 C191 0.929 . S
H210 C192 0.930 . S
H211 C195 0.930 . S
H212 C196 0.931 . S
H213 C200 0.928 . S
H214 C199 0.929 . S
H215 C197 0.932 . S
C216 C217 1.349 1_556 S
C216 C218 1.327 . S
C216 H241 0.950 . S
C217 C216 1.349 1_554 S
C217 C233 1.349 . S
C218 C216 1.327 . S
C218 C237 1.429 1_556 S
C218 H242 0.950 . S
C219 C236 1.574 . S
C219 C238 1.368 . S
C219 H243 0.949 . S
H220 C224 0.949 1_556 S
C221 C222 1.349 . S
C221 C223 1.327 . S
C221 H244 0.950 . S
C222 C221 1.349 . S
C222 C234 1.349 . S
C223 C221 1.327 . S
C223 C239 1.429 . S
C223 H245 0.950 . S
C224 H220 0.949 1_554 S
C224 C232 1.574 . S
C224 C240 1.368 . S
H225 C233 0.950 . S
H226 C231 0.950 . S
H227 C232 0.949 1_556 S
H228 C234 0.950 . S
H229 C235 0.950 1_556 S
H230 C236 0.949 . S
C231 H226 0.950 . S
C231 C233 1.327 . S
C231 C237 1.429 . S
C232 C224 1.574 . S
C232 H227 0.949 1_554 S
C232 C238 1.368 . S
C233 C217 1.349 . S
C233 H225 0.950 . S
C233 C231 1.327 . S
C234 C222 1.349 . S
C234 H228 0.950 . S
C234 C235 1.327 . S
C235 H229 0.950 1_554 S
C235 C234 1.327 . S
C235 C239 1.429 . S
C236 C219 1.574 . S
C236 H230 0.949 . S
C236 C240 1.368 . S
C237 C218 1.429 1_554 S
C237 C231 1.429 . S
C237 C238 1.523 . S
C238 C219 1.368 . S
C238 C232 1.368 . S
C238 C237 1.523 . S
C239 C223 1.429 . S
C239 C235 1.429 . S
C239 C240 1.523 . S
C240 C224 1.368 . S
C240 C236 1.368 . S
C240 C239 1.523 . S
H241 C216 0.950 . S
H242 C218 0.950 . S
H243 C219 0.949 . S
H244 C221 0.950 . S
H245 C223 0.950 . S
C246 C247 1.349 . S
C246 C248 1.327 . S
C246 H271 0.950 . S
C247 C246 1.349 . S
C247 C263 1.349 . S
C248 C246 1.327 . S
C248 C267 1.429 . S
C248 H272 0.950 . S
C249 C266 1.574 . S
C249 C268 1.368 1_556 S
C249 H273 0.949 . S
H250 C254 0.949 . S
C251 C252 1.349 . S
C251 C253 1.327 . S
C251 H274 0.950 . S
C252 C251 1.349 . S
C252 C264 1.349 . S
C253 C251 1.327 . S
C253 C269 1.429 . S
C253 H275 0.950 . S
C254 H250 0.949 . S
C254 C262 1.574 . S
C254 C270 1.368 1_554 S
H255 C263 0.949 1_556 S
H256 C261 0.950 . S
H257 C262 0.949 . S
H258 C264 0.950 1_554 S
H259 C265 0.960 . S
H260 C266 0.949 . S
C261 H256 0.950 . S
C261 C263 1.327 1_556 S
C261 C267 1.429 1_556 S
C262 C254 1.574 . S
C262 H257 0.949 . S
C262 C268 1.368 . S
C263 C247 1.349 . S
C263 H255 0.949 1_554 S
C263 C261 1.327 1_554 S
C264 C252 1.349 . S
C264 H258 0.950 1_556 S
C264 C265 1.325 1_556 S
C265 H259 0.960 . S
C265 C264 1.325 1_554 S
C265 C269 1.421 1_554 S
C266 C249 1.574 . S
C266 H260 0.949 . S
C266 C270 1.368 . S
C267 C248 1.429 . S
C267 C261 1.429 1_554 S
C267 C268 1.523 . S
C268 C249 1.368 1_554 S
C268 C262 1.368 . S
C268 C267 1.523 . S
C269 C253 1.429 . S
C269 C265 1.421 1_556 S
C269 C270 1.523 . S
C270 C254 1.368 1_556 S
C270 C266 1.368 . S
C270 C269 1.523 . S
H271 C246 0.950 . S
H272 C248 0.950 . S
H273 C249 0.949 . S
H274 C251 0.950 . S
H275 C253 0.950 . S
C276 C277 1.349 . S
C276 C278 1.327 . S
C276 H301 0.950 . S
C277 C276 1.349 . S
C277 C293 1.369 . S
C278 C276 1.327 . S
C278 C297 1.429 . S
C278 H302 0.950 . S
C279 C296 1.574 . S
C279 C298 1.368 . S
C279 H303 0.949 1_554 S
H280 C284 0.949 . S
C281 C282 1.349 . S
C281 C283 1.327 . S
C281 H304 0.950 . S
C282 C281 1.349 . S
C282 C294 1.349 . S
C283 C281 1.327 . S
C283 C299 1.429 . S
C283 H305 0.950 . S
C284 H280 0.949 . S
C284 C292 1.574 . S
C284 C300 1.368 . S
H285 C293 0.926 1_556 S
H286 C291 0.950 1_556 S
H287 C292 0.949 . S
H288 C294 0.950 . S
H289 C295 0.950 . S
H290 C296 0.949 . S
C291 H286 0.950 1_554 S
C291 C293 1.332 . S
C291 C297 1.429 . S
C292 C284 1.574 . S
C292 H287 0.949 . S
C292 C298 1.368 . S
C293 C277 1.369 . S
C293 H285 0.926 1_554 S
C293 C291 1.332 . S
C294 C282 1.349 . S
C294 H288 0.950 . S
C294 C295 1.327 . S
C295 H289 0.950 . S
C295 C294 1.327 . S
C295 C299 1.429 . S
C296 C279 1.574 . S
C296 H290 0.949 . S
C296 C300 1.368 . S
C297 C278 1.429 . S
C297 C291 1.429 . S
C297 C298 1.523 . S
C298 C279 1.368 . S
C298 C292 1.368 . S
C298 C297 1.523 . S
C299 C283 1.429 . S
C299 C295 1.429 . S
C299 C300 1.523 . S
C300 C284 1.368 . S
C300 C296 1.368 . S
C300 C299 1.523 . S
H301 C276 0.950 . S
H302 C278 0.950 . S
H303 C279 0.949 1_556 S
H304 C281 0.950 . S
H305 C283 0.950 . S
C306 C307 1.349 . S
C306 C308 1.327 . S
C306 H331 0.950 . S
C307 C306 1.349 . S
C307 C323 1.349 1_554 S
C308 C306 1.327 . S
C308 C327 1.429 . S
C308 H332 0.950 . S
C309 C326 1.574 . S
C309 C328 1.346 1_556 S
C309 H333 0.949 . S
H310 C314 0.949 . S
C311 C312 1.349 . S
C311 C313 1.327 . S
C311 H334 0.950 . S
C312 C311 1.349 . S
C312 C324 1.349 1_556 S
C313 C311 1.327 . S
C313 C329 1.429 . S
C313 H335 0.950 . S
C314 H310 0.949 . S
C314 C322 1.574 . S
C314 C330 1.368 1_554 S
H315 C323 0.950 . S
H316 C321 0.950 . S
H317 C322 0.949 . S
H318 C324 0.950 . S
H319 C325 0.950 . S
H320 C326 0.949 . S
C321 H316 0.950 . S
C321 C323 1.327 . S
C321 C327 1.429 1_556 S
C322 C314 1.574 . S
C322 H317 0.949 . S
C322 C328 1.388 . S
C323 C307 1.349 1_556 S
C323 H315 0.950 . S
C323 C321 1.327 . S
C324 C312 1.349 1_554 S
C324 H318 0.950 . S
C324 C325 1.327 . S
C325 H319 0.950 . S
C325 C324 1.327 . S
C325 C329 1.429 1_554 S
C326 C309 1.574 . S
C326 H320 0.949 . S
C326 C330 1.368 . S
C327 C308 1.429 . S
C327 C321 1.429 1_554 S
C327 C328 1.528 . S
C328 C309 1.346 1_554 S
C328 C322 1.388 . S
C328 C327 1.528 . S
C329 C313 1.429 . S
C329 C325 1.429 1_556 S
C329 C330 1.523 . S
C330 C314 1.368 1_556 S
C330 C326 1.368 . S
C330 C329 1.523 . S
H331 C306 0.950 . S
H332 C308 0.950 . S
H333 C309 0.949 . S
H334 C311 0.950 . S
H335 C313 0.950 . S
C336 C337 1.349 . S
C336 C338 1.327 . S
C336 H361 0.950 . S
C337 C336 1.349 . S
C337 C353 1.349 . S
C338 C336 1.327 . S
C338 C357 1.429 . S
C338 H362 0.950 . S
C339 C356 1.574 . S
C339 C358 1.368 . S
C339 H363 0.949 . S
H340 C344 0.949 . S
C341 C342 1.349 . S
C341 C343 1.327 . S
C341 H364 0.950 . S
C342 C341 1.349 . S
C342 C354 1.349 . S
C343 C341 1.327 . S
C343 C359 1.429 . S
C343 H365 0.950 . S
C344 H340 0.949 . S
C344 C352 1.574 . S
C344 C360 1.368 . S
H345 C353 0.950 . S
H346 C351 0.950 . S
H347 C352 0.949 . S
H348 C354 0.950 . S
H349 C355 0.950 . S
H350 C356 0.949 . S
C351 H346 0.950 . S
C351 C353 1.327 . S
C351 C357 1.429 . S
C352 C344 1.574 . S
C352 H347 0.949 . S
C352 C358 1.368 . S
C353 C337 1.349 . S
C353 H345 0.950 . S
C353 C351 1.327 . S
C354 C342 1.349 . S
C354 H348 0.950 . S
C354 C355 1.327 . S
C355 H349 0.950 . S
C355 C354 1.327 . S
C355 C359 1.429 . S
C356 C339 1.574 . S
C356 H350 0.949 . S
C356 C360 1.368 . S
C357 C338 1.429 . S
C357 C351 1.429 . S
C357 C358 1.523 . S
C358 C339 1.368 . S
C358 C352 1.368 . S
C358 C357 1.523 . S
C359 C343 1.429 . S
C359 C355 1.429 . S
C359 C360 1.523 . S
C360 C344 1.368 . S
C360 C356 1.368 . S
C360 C359 1.523 . S
H361 C336 0.950 . S
H362 C338 0.950 . S
H363 C339 0.949 . S
H364 C341 0.950 . S
H365 C343 0.950 . S
C366 C367 1.349 . S
C366 C368 1.327 . S
C366 H391 0.950 . S
C367 C366 1.349 . S
C367 C383 1.349 . S
C368 C366 1.327 . S
C368 C387 1.429 . S
C368 H392 0.950 . S
C369 C386 1.574 . S
C369 C388 1.368 . S
C369 H393 0.949 . S
H370 C374 0.949 . S
C371 C372 1.349 . S
C371 C373 1.327 . S
C371 H394 0.950 . S
C372 C371 1.349 . S
C372 C384 1.349 . S
C373 C371 1.327 . S
C373 C389 1.429 . S
C373 H395 0.950 . S
C374 H370 0.949 . S
C374 C382 1.574 . S
C374 C390 1.368 . S
H375 C383 0.950 . S
H376 C381 0.950 . S
H377 C382 0.949 . S
H378 C384 0.950 . S
H379 C385 0.950 . S
H380 C386 0.949 . S
C381 H376 0.950 . S
C381 C383 1.327 . S
C381 C387 1.429 . S
C382 C374 1.574 . S
C382 H377 0.949 . S
C382 C388 1.368 . S
C383 C367 1.349 . S
C383 H375 0.950 . S
C383 C381 1.327 . S
C384 C372 1.349 . S
C384 H378 0.950 . S
C384 C385 1.327 . S
C385 H379 0.950 . S
C385 C384 1.327 . S
C385 C389 1.429 . S
C386 C369 1.574 . S
C386 H380 0.949 . S
C386 C390 1.368 . S
C387 C368 1.429 . S
C387 C381 1.429 . S
C387 C388 1.523 . S
C388 C369 1.368 . S
C388 C382 1.368 . S
C388 C387 1.523 . S
C389 C373 1.429 . S
C389 C385 1.429 . S
C389 C390 1.523 . S
C390 C374 1.368 . S
C390 C386 1.368 . S
C390 C389 1.523 . S
H391 C366 0.950 . S
H392 C368 0.950 . S
H393 C369 0.949 . S
H394 C371 0.950 . S
H395 C373 0.950 . S
C396 C397 1.349 . S
C396 C398 1.327 . S
C396 H421 0.950 . S
C397 C396 1.349 . S
C397 C413 1.349 . S
C398 C396 1.327 . S
C398 C417 1.429 . S
C398 H422 0.950 . S
C399 C416 1.574 . S
C399 C418 1.368 . S
C399 H423 0.949 . S
H400 C404 0.949 . S
C401 C402 1.349 . S
C401 C403 1.327 . S
C401 H424 0.950 . S
C402 C401 1.349 . S
C402 C414 1.349 . S
C403 C401 1.327 . S
C403 C419 1.429 . S
C403 H425 0.950 . S
C404 H400 0.949 . S
C404 C412 1.574 . S
C404 C420 1.368 . S
H405 C413 0.950 . S
H406 C411 0.950 . S
H407 C412 0.949 . S
H408 C414 0.950 . S
H409 C415 0.950 . S
H410 C416 0.949 . S
C411 H406 0.950 . S
C411 C413 1.327 . S
C411 C417 1.429 . S
C412 C404 1.574 . S
C412 H407 0.949 . S
C412 C418 1.368 . S
C413 C397 1.349 . S
C413 H405 0.950 . S
C413 C411 1.327 . S
C414 C402 1.349 . S
C414 H408 0.950 . S
C414 C415 1.327 . S
C415 H409 0.950 . S
C415 C414 1.327 . S
C415 C419 1.429 . S
C416 C399 1.574 . S
C416 H410 0.949 . S
C416 C420 1.368 . S
C417 C398 1.429 . S
C417 C411 1.429 . S
C417 C418 1.523 . S
C418 C399 1.368 . S
C418 C412 1.368 . S
C418 C417 1.523 . S
C419 C403 1.429 . S
C419 C415 1.429 . S
C419 C420 1.523 . S
C420 C404 1.368 . S
C420 C416 1.368 . S
C420 C419 1.523 . S
H421 C396 0.950 . S
H422 C398 0.950 . S
H423 C399 0.949 . S
H424 C401 0.950 . S
H425 C403 0.950 . S
C426 C427 1.349 . S
C426 C428 1.327 . S
C426 H451 0.950 . S
C427 C426 1.349 . S
C427 C443 1.349 . S
C428 C426 1.327 . S
C428 C447 1.429 . S
C428 H452 0.950 . S
C429 C446 1.574 . S
C429 C448 1.368 . S
C429 H453 0.949 . S
H430 C434 0.949 . S
C431 C432 1.349 . S
C431 C433 1.327 . S
C431 H454 0.950 . S
C432 C431 1.349 . S
C432 C444 1.349 . S
C433 C431 1.327 . S
C433 C449 1.429 . S
C433 H455 0.950 . S
C434 H430 0.949 . S
C434 C442 1.574 . S
C434 C450 1.368 . S
H435 C443 0.950 . S
H436 C441 0.950 . S
H437 C442 0.949 . S
H438 C444 0.950 . S
H439 C445 0.950 . S
H440 C446 0.949 . S
C441 H436 0.950 . S
C441 C443 1.327 . S
C441 C447 1.429 . S
C442 C434 1.574 . S
C442 H437 0.949 . S
C442 C448 1.368 . S
C443 C427 1.349 . S
C443 H435 0.950 . S
C443 C441 1.327 . S
C444 C432 1.349 . S
C444 H438 0.950 . S
C444 C445 1.327 . S
C445 H439 0.950 . S
C445 C444 1.327 . S
C445 C449 1.429 . S
C446 C429 1.574 . S
C446 H440 0.949 . S
C446 C450 1.368 . S
C447 C428 1.429 . S
C447 C441 1.429 . S
C447 C448 1.523 . S
C448 C429 1.368 . S
C448 C442 1.368 . S
C448 C447 1.523 . S
C449 C433 1.429 . S
C449 C445 1.429 . S
C449 C450 1.523 . S
C450 C434 1.368 . S
C450 C446 1.368 . S
C450 C449 1.523 . S
H451 C426 0.950 . S
H452 C428 0.950 . S
H453 C429 0.949 . S
H454 C431 0.950 . S
H455 C433 0.950 . S
C456 C457 1.349 1_655 S
C456 C458 1.327 . S
C456 H481 0.950 . S
C457 C456 1.349 1_455 S
C457 C473 1.349 1_545 S
C458 C456 1.327 . S
C458 C477 1.429 1_655 S
C458 H482 0.950 . S
C459 C476 1.574 . S
C459 C478 1.368 1_565 S
C459 H483 0.949 . S
H460 C464 0.949 . S
C461 C462 1.342 1_565 S
C461 C463 1.327 . S
C461 H484 0.950 . S
C462 C461 1.342 1_545 S
C462 C474 1.356 1_455 S
C463 C461 1.327 . S
C463 C479 1.429 1_565 S
C463 H485 0.950 . S
C464 H460 0.949 . S
C464 C472 1.574 . S
C464 C480 1.368 1_655 S
H465 C473 0.950 . S
H466 C471 0.950 . S
H467 C472 0.949 . S
H468 C474 0.950 . S
H469 C475 0.950 . S
H470 C476 0.949 . S
C471 H466 0.950 . S
C471 C473 1.327 . S
C471 C477 1.429 1_565 S
C472 C464 1.574 . S
C472 H467 0.949 . S
C472 C478 1.368 1_655 S
C473 C457 1.349 1_565 S
C473 H465 0.950 . S
C473 C471 1.327 . S
C474 C462 1.356 1_655 S
C474 H468 0.950 . S
C474 C475 1.327 . S
C475 H469 0.950 . S
C475 C474 1.327 . S
C475 C479 1.429 1_655 S
C476 C459 1.574 . S
C476 H470 0.949 . S
C476 C480 1.368 1_565 S
C477 C458 1.429 1_455 S
C477 C471 1.429 1_545 S
C477 C478 1.523 . S
C478 C459 1.368 1_545 S
C478 C472 1.368 1_455 S
C478 C477 1.523 . S
C479 C463 1.429 1_545 S
C479 C475 1.429 1_455 S
C479 C480 1.523 . S
C480 C464 1.368 1_455 S
C480 C476 1.368 1_545 S
C480 C479 1.523 . S
H481 C456 0.950 . S
H482 C458 0.950 . S
H483 C459 0.949 . S
H484 C461 0.950 . S
H485 C463 0.950 . S
C486 C487 1.349 . S
C486 C488 1.327 . S
C486 H511 0.950 . S
C487 C486 1.349 . S
C487 C503 1.349 1_445 S
C488 C486 1.327 . S
C488 C507 1.429 . S
C488 H512 0.950 . S
C489 C506 1.574 . S
C489 C508 1.368 1_665 S
C489 H513 0.949 . S
H490 C494 0.949 . S
C491 C492 1.349 1_665 S
C491 C493 1.327 . S
C491 H514 0.950 . S
C492 C491 1.349 1_445 S
C492 C504 1.349 . S
C493 C491 1.327 . S
C493 C509 1.429 1_665 S
C493 H515 0.950 . S
C494 H490 0.949 . S
C494 C502 1.574 . S
C494 C510 1.368 . S
H495 C503 0.950 . S
H496 C501 0.950 . S
H497 C502 0.949 . S
H498 C504 0.950 . S
H499 C505 0.950 . S
H500 C506 0.949 . S
C501 H496 0.950 . S
C501 C503 1.327 . S
C501 C507 1.429 1_665 S
C502 C494 1.574 . S
C502 H497 0.949 . S
C502 C508 1.368 . S
C503 C487 1.349 1_665 S
C503 H495 0.950 . S
C503 C501 1.327 . S
C504 C492 1.349 . S
C504 H498 0.950 . S
C504 C505 1.327 . S
C505 H499 0.950 . S
C505 C504 1.327 . S
C505 C509 1.429 . S
C506 C489 1.574 . S
C506 H500 0.949 . S
C506 C510 1.368 1_665 S
C507 C488 1.429 . S
C507 C501 1.429 1_445 S
C507 C508 1.523 . S
C508 C489 1.368 1_445 S
C508 C502 1.368 . S
C508 C507 1.523 . S
C509 C493 1.429 1_445 S
C509 C505 1.429 . S
C509 C510 1.523 . S
C510 C494 1.368 . S
C510 C506 1.368 1_445 S
C510 C509 1.523 . S
H511 C486 0.950 . S
H512 C488 0.950 . S
H513 C489 0.949 . S
H514 C491 0.950 . S
H515 C493 0.950 . S
C516 C517 1.349 . S
C516 C518 1.327 . S
C516 H541 0.950 . S
C517 C516 1.349 . S
C517 C533 1.349 . S
C518 C516 1.327 . S
C518 C537 1.429 . S
C518 H542 0.950 . S
C519 C536 1.574 . S
C519 C538 1.368 . S
C519 H543 0.949 . S
H520 C524 0.949 . S
C521 C522 1.349 . S
C521 C523 1.327 . S
C521 H544 0.950 . S
C522 C521 1.349 . S
C522 C534 1.349 . S
C523 C521 1.327 . S
C523 C539 1.429 . S
C523 H545 0.950 . S
C524 H520 0.949 . S
C524 C532 1.574 . S
C524 C540 1.368 . S
H525 C533 0.950 . S
H526 C531 0.950 . S
H527 C532 0.949 . S
H528 C534 0.950 . S
H529 C535 0.950 . S
H530 C536 0.949 . S
C531 H526 0.950 . S
C531 C533 1.327 . S
C531 C537 1.429 . S
C532 C524 1.574 . S
C532 H527 0.949 . S
C532 C538 1.368 . S
C533 C517 1.349 . S
C533 H525 0.950 . S
C533 C531 1.327 . S
C534 C522 1.349 . S
C534 H528 0.950 . S
C534 C535 1.327 . S
C535 H529 0.950 . S
C535 C534 1.327 . S
C535 C539 1.429 . S
C536 C519 1.574 . S
C536 H530 0.949 . S
C536 C540 1.368 . S
C537 C518 1.429 . S
C537 C531 1.429 . S
C537 C538 1.523 . S
C538 C519 1.368 . S
C538 C532 1.368 . S
C538 C537 1.523 . S
C539 C523 1.429 . S
C539 C535 1.429 . S
C539 C540 1.523 . S
C540 C524 1.368 . S
C540 C536 1.368 . S
C540 C539 1.523 . S
H541 C516 0.950 . S
H542 C518 0.950 . S
H543 C519 0.949 . S
H544 C521 0.950 . S
H545 C523 0.950 . S
C546 C547 1.349 . S
C546 C548 1.327 . S
C546 H571 0.950 . S
C547 C546 1.349 . S
C547 C563 1.349 . S
C548 C546 1.327 . S
C548 C567 1.429 . S
C548 H572 0.950 . S
C549 C566 1.574 . S
C549 C568 1.368 . S
C549 H573 0.949 . S
H550 C554 0.949 . S
C551 C552 1.349 . S
C551 C553 1.327 . S
C551 H574 0.950 . S
C552 C551 1.349 . S
C552 C564 1.349 . S
C553 C551 1.327 . S
C553 C569 1.429 . S
C553 H575 0.950 . S
C554 H550 0.949 . S
C554 C562 1.574 . S
C554 C570 1.368 . S
H555 C563 0.950 . S
H556 C561 0.950 . S
H557 C562 0.949 . S
H558 C564 0.950 . S
H559 C565 0.950 . S
H560 C566 0.949 . S
C561 H556 0.950 . S
C561 C563 1.327 . S
C561 C567 1.429 . S
C562 C554 1.574 . S
C562 H557 0.949 . S
C562 C568 1.368 . S
C563 C547 1.349 . S
C563 H555 0.950 . S
C563 C561 1.327 . S
C564 C552 1.349 . S
C564 H558 0.950 . S
C564 C565 1.327 . S
C565 H559 0.950 . S
C565 C564 1.327 . S
C565 C569 1.429 . S
C566 C549 1.574 . S
C566 H560 0.949 . S
C566 C570 1.368 . S
C567 C548 1.429 . S
C567 C561 1.429 . S
C567 C568 1.523 . S
C568 C549 1.368 . S
C568 C562 1.368 . S
C568 C567 1.523 . S
C569 C553 1.429 . S
C569 C565 1.429 . S
C569 C570 1.523 . S
C570 C554 1.368 . S
C570 C566 1.368 . S
C570 C569 1.523 . S
H571 C546 0.950 . S
H572 C548 0.950 . S
H573 C549 0.949 . S
H574 C551 0.950 . S
H575 C553 0.950 . S
C222 C193 1.387 . S
C217 C27 1.416 . S
C247 N6 1.322 . S
C252 C154 1.345 . S
C277 C16 1.401 . S
C282 C198 1.380 . S
C307 N14 1.343 . S
C312 C159 1.342 . S
C337 C57 1.416 . S
C342 C115 1.387 . S
C367 N36 1.322 . S
C372 C76 1.346 . S
C402 C120 1.380 . S
C397 C46 1.402 . S
C432 C81 1.342 . S
C427 N44 1.343 . S
C457 C10 1.385 . S
C462 C61 1.387 1_545 S
C487 C1 1.524 . S
C492 C100 1.528 . S
C522 C139 1.389 . S
C517 C40 1.385 . S
C547 C31 1.523 . S
C552 C178 1.528 . S
