# Generated by pormake.
# Topology wbl, (4,4)-cn, num edge types: 1
# Building blocks:
#     Node 0, Type 0, BuildingBlock: NAWXER_clean_linker_0, # of connection points: 4
#     Node 1, Type 0, BuildingBlock: NAWXER_clean_linker_0, # of connection points: 4
#     Node 2, Type 0, BuildingBlock: NAWXER_clean_linker_0, # of connection points: 4
#     Node 3, Type 0, BuildingBlock: NAWXER_clean_linker_0, # of connection points: 4
#     Node 4, Type 0, BuildingBlock: NAWXER_clean_linker_0, # of connection points: 4
#     Node 5, Type 0, BuildingBlock: NAWXER_clean_linker_0, # of connection points: 4
#     Node 6, Type 0, BuildingBlock: NAWXER_clean_linker_0, # of connection points: 4
#     Node 7, Type 0, BuildingBlock: NAWXER_clean_linker_0, # of connection points: 4
#     Node 8, Type 1, BuildingBlock: QUQFOY_clean_sbu_1, # of connection points: 4
#     Node 9, Type 1, BuildingBlock: QUQFOY_clean_sbu_1, # of connection points: 4
#     Node 10, Type 1, BuildingBlock: QUQFOY_clean_sbu_1, # of connection points: 4
#     Node 11, Type 1, BuildingBlock: QUQFOY_clean_sbu_1, # of connection points: 4
#     Node 12, Type 1, BuildingBlock: QUQFOY_clean_sbu_1, # of connection points: 4
#     Node 13, Type 1, BuildingBlock: QUQFOY_clean_sbu_1, # of connection points: 4
#     Node 14, Type 1, BuildingBlock: QUQFOY_clean_sbu_1, # of connection points: 4
#     Node 15, Type 1, BuildingBlock: QUQFOY_clean_sbu_1, # of connection points: 4
#     Edge 16, Type (0, 1), BuildingBlock: KIFKEQ_clean_linker_1, # of connection points: 2
#     Edge 17, Type (0, 1), BuildingBlock: KIFKEQ_clean_linker_1, # of connection points: 2
#     Edge 18, Type (0, 1), BuildingBlock: KIFKEQ_clean_linker_1, # of connection points: 2
#     Edge 19, Type (0, 1), BuildingBlock: KIFKEQ_clean_linker_1, # of connection points: 2
#     Edge 20, Type (0, 1), BuildingBlock: KIFKEQ_clean_linker_1, # of connection points: 2
#     Edge 21, Type (0, 1), BuildingBlock: KIFKEQ_clean_linker_1, # of connection points: 2
#     Edge 22, Type (0, 1), BuildingBlock: KIFKEQ_clean_linker_1, # of connection points: 2
#     Edge 23, Type (0, 1), BuildingBlock: KIFKEQ_clean_linker_1, # of connection points: 2
#     Edge 24, Type (0, 1), BuildingBlock: KIFKEQ_clean_linker_1, # of connection points: 2
#     Edge 25, Type (0, 1), BuildingBlock: KIFKEQ_clean_linker_1, # of connection points: 2
#     Edge 26, Type (0, 1), BuildingBlock: KIFKEQ_clean_linker_1, # of connection points: 2
#     Edge 27, Type (0, 1), BuildingBlock: KIFKEQ_clean_linker_1, # of connection points: 2
#     Edge 28, Type (0, 1), BuildingBlock: KIFKEQ_clean_linker_1, # of connection points: 2
#     Edge 29, Type (0, 1), BuildingBlock: KIFKEQ_clean_linker_1, # of connection points: 2
#     Edge 30, Type (0, 1), BuildingBlock: KIFKEQ_clean_linker_1, # of connection points: 2
#     Edge 31, Type (0, 1), BuildingBlock: KIFKEQ_clean_linker_1, # of connection points: 2
#     Edge 32, Type (0, 1), BuildingBlock: KIFKEQ_clean_linker_1, # of connection points: 2
#     Edge 33, Type (0, 1), BuildingBlock: KIFKEQ_clean_linker_1, # of connection points: 2
#     Edge 34, Type (0, 1), BuildingBlock: KIFKEQ_clean_linker_1, # of connection points: 2
#     Edge 35, Type (0, 1), BuildingBlock: KIFKEQ_clean_linker_1, # of connection points: 2
#     Edge 36, Type (0, 1), BuildingBlock: KIFKEQ_clean_linker_1, # of connection points: 2
#     Edge 37, Type (0, 1), BuildingBlock: KIFKEQ_clean_linker_1, # of connection points: 2
#     Edge 38, Type (0, 1), BuildingBlock: KIFKEQ_clean_linker_1, # of connection points: 2
#     Edge 39, Type (0, 1), BuildingBlock: KIFKEQ_clean_linker_1, # of connection points: 2
#     Edge 40, Type (0, 1), BuildingBlock: KIFKEQ_clean_linker_1, # of connection points: 2
#     Edge 41, Type (0, 1), BuildingBlock: KIFKEQ_clean_linker_1, # of connection points: 2
#     Edge 42, Type (0, 1), BuildingBlock: KIFKEQ_clean_linker_1, # of connection points: 2
#     Edge 43, Type (0, 1), BuildingBlock: KIFKEQ_clean_linker_1, # of connection points: 2
#     Edge 44, Type (0, 1), BuildingBlock: KIFKEQ_clean_linker_1, # of connection points: 2
#     Edge 45, Type (0, 1), BuildingBlock: KIFKEQ_clean_linker_1, # of connection points: 2
#     Edge 46, Type (0, 1), BuildingBlock: KIFKEQ_clean_linker_1, # of connection points: 2
#     Edge 47, Type (0, 1), BuildingBlock: KIFKEQ_clean_linker_1, # of connection points: 2
# Relax obj value: 0.183
# Max RMSD: 0.220
# Mean RMSD: 0.163
data_MOF--net-wbl--node1-QUQFOY_clean_sbu_1--node2-NAWXER_clean_linker_0--edge1-KIFKEQ_clean_linker_1
_symmetry_space_group_name_H-M    P1
_symmetry_Int_Tables_number       1
_symmetry_cell_setting            triclinic
loop_
_symmetry_equiv_pos_as_xyz
'x, y, z'
_cell_length_a     45.364176
_cell_length_b     45.360696
_cell_length_c     80.915541
_cell_angle_alpha  93.252385
_cell_angle_beta   93.339099
_cell_angle_gamma 90.368163
loop_
_atom_site_label
_atom_site_type_symbol
_atom_site_fract_x
_atom_site_fract_y
_atom_site_fract_z
_atom_type_partial_charge
C0 C 0.22076 0.02743 0.38227 0.0
C1 C 0.2384 0.03935 0.39591 0.0
C2 C 0.20816 0.04583 0.37059 0.0
C3 C 0.21309 0.0765 0.37229 0.0
C4 C 0.24486 0.06976 0.39701 0.0
C5 C 0.23208 0.08821 0.38537 0.0
C6 C 0.19417 0.09649 0.36259 0.0
C7 C 0.25151 0.05186 0.32575 0.0
C8 C 0.23616 0.02942 0.31607 0.0
C9 C 0.23612 0.07271 0.33519 0.0
C10 C 0.20515 0.07166 0.33484 0.0
C11 C 0.20519 0.0286 0.31557 0.0
C12 C 0.18978 0.04986 0.3247 0.0
C13 C 0.18871 0.09285 0.34525 0.0
C14 C 0.09252 0.18448 0.33413 0.0
C15 C 0.07308 0.16682 0.32353 0.0
C16 C 0.11863 0.17268 0.34091 0.0
C17 C 0.12536 0.14281 0.33755 0.0
C18 C 0.08136 0.13776 0.31902 0.0
C19 C 0.10716 0.12588 0.32599 0.0
C20 C 0.15012 0.1283 0.34658 0.0
C21 C 0.08835 0.15785 0.38605 0.0
C22 C 0.10102 0.17709 0.39881 0.0
C23 C 0.10595 0.14374 0.37448 0.0
C24 C 0.13653 0.14913 0.37513 0.0
C25 C 0.13163 0.18263 0.39935 0.0
C26 C 0.1492 0.16867 0.38766 0.0
C27 C 0.15573 0.13205 0.36398 0.0
H28 H 0.21548 0.00405 0.38111 0.0
H29 H 0.19291 0.03626 0.36094 0.0
H30 H 0.2581 0.0796 0.40749 0.0
H31 H 0.23581 0.11184 0.38707 0.0
H32 H 0.27542 0.05273 0.32638 0.0
H33 H 0.24835 0.08952 0.34283 0.0
H34 H 0.19299 0.01141 0.30819 0.0
H35 H 0.16588 0.04874 0.32427 0.0
H36 H 0.08697 0.20698 0.33783 0.0
H37 H 0.13289 0.18656 0.34932 0.0
H38 H 0.06742 0.12383 0.31046 0.0
H39 H 0.11213 0.10296 0.32291 0.0
H40 H 0.06484 0.15325 0.38516 0.0
H41 H 0.09571 0.12804 0.36527 0.0
H42 H 0.14222 0.19689 0.40916 0.0
H43 H 0.17282 0.17271 0.3886 0.0
N44 N 0.17763 0.11612 0.37122 0.0
N45 N 0.16682 0.10874 0.33791 0.0
C46 C 0.96643 0.59016 0.63837 0.0
C47 C 0.97764 0.57448 0.65185 0.0
C48 C 0.98564 0.60351 0.62803 0.0
C49 C 0.01634 0.60147 0.63103 0.0
C50 C 0.00844 0.57152 0.65431 0.0
C51 C 0.02753 0.58518 0.64415 0.0
C52 C 0.037 0.61827 0.62159 0.0
C53 C 0.0024 0.54427 0.58768 0.0
C54 C 0.98739 0.55209 0.57294 0.0
C55 C 0.01845 0.56533 0.59771 0.0
C56 C 0.01918 0.59492 0.59349 0.0
C57 C 0.98895 0.5814 0.5683 0.0
C58 C 0.00471 0.6027 0.57854 0.0
C59 C 0.0367 0.61711 0.60408 0.0
C60 C 0.14394 0.69031 0.59203 0.0
C61 C 0.13202 0.71018 0.58079 0.0
C62 C 0.12539 0.67158 0.59993 0.0
C63 C 0.09465 0.67242 0.59669 0.0
C64 C 0.10133 0.71022 0.57716 0.0
C65 C 0.08283 0.69132 0.58496 0.0
C66 C 0.07472 0.65394 0.60564 0.0
C67 C 0.11061 0.72222 0.64551 0.0
C68 C 0.12885 0.70948 0.65776 0.0
C69 C 0.0942 0.70429 0.63364 0.0
C70 C 0.09562 0.67343 0.63401 0.0
C71 C 0.13093 0.67859 0.6577 0.0
C72 C 0.11423 0.66074 0.64603 0.0
C73 C 0.07569 0.65417 0.62309 0.0
H74 H 0.94289 0.59312 0.63619 0.0
H75 H 0.97654 0.61636 0.61809 0.0
H76 H 0.01792 0.55896 0.66426 0.0
H77 H 0.05115 0.58325 0.64664 0.0
H78 H 0.00221 0.52162 0.59129 0.0
H79 H 0.03071 0.55825 0.60864 0.0
H80 H 0.97772 0.58784 0.5569 0.0
H81 H 0.00548 0.62526 0.57485 0.0
H82 H 0.16749 0.68987 0.59509 0.0
H83 H 0.13502 0.65668 0.60869 0.0
H84 H 0.09161 0.72505 0.56838 0.0
H85 H 0.0592 0.69205 0.58217 0.0
H86 H 0.10863 0.74599 0.64532 0.0
H87 H 0.0796 0.71447 0.6246 0.0
H88 H 0.14449 0.6682 0.66713 0.0
H89 H 0.11538 0.63696 0.64658 0.0
N90 N 0.05675 0.63645 0.63038 0.0
N91 N 0.0553 0.63535 0.59674 0.0
C92 C 0.56773 0.44555 0.87419 0.0
C93 C 0.58841 0.45414 0.88721 0.0
C94 C 0.55414 0.46685 0.8645 0.0
C95 C 0.56062 0.49694 0.868 0.0
C96 C 0.59553 0.48419 0.89027 0.0
C97 C 0.58144 0.50543 0.8809 0.0
C98 C 0.54386 0.51992 0.85944 0.0
C99 C 0.61208 0.48691 0.82564 0.0
C100 C 0.60126 0.47543 0.80995 0.0
C101 C 0.59366 0.50263 0.83608 0.0
C102 C 0.56378 0.50661 0.83126 0.0
C103 C 0.57164 0.4802 0.80484 0.0
C104 C 0.55303 0.49566 0.81543 0.0
C105 C 0.54427 0.52375 0.84222 0.0
C106 C 0.4788 0.63909 0.83842 0.0
C107 C 0.45751 0.63286 0.82534 0.0
C108 C 0.49716 0.61689 0.84421 0.0
C109 C 0.49425 0.58786 0.83726 0.0
C110 C 0.45621 0.60422 0.8176 0.0
C111 C 0.47447 0.58192 0.8235 0.0
C112 C 0.51044 0.56354 0.84504 0.0
C113 C 0.44264 0.59431 0.88059 0.0
C114 C 0.45536 0.60909 0.89503 0.0
C115 C 0.46031 0.57827 0.86978 0.0
C116 C 0.49094 0.57668 0.87328 0.0
C117 C 0.48602 0.60745 0.89847 0.0
C118 C 0.5036 0.59117 0.88776 0.0
C119 C 0.50981 0.5593 0.86216 0.0
H120 H 0.56182 0.42249 0.87169 0.0
H121 H 0.53782 0.45996 0.85472 0.0
H122 H 0.61112 0.49134 0.90038 0.0
H123 H 0.58649 0.52857 0.88386 0.0
H124 H 0.63505 0.48428 0.8297 0.0
H125 H 0.60307 0.51217 0.84779 0.0
H126 H 0.56282 0.47171 0.79276 0.0
H127 H 0.5302 0.49892 0.81131 0.0
H128 H 0.48041 0.66077 0.84475 0.0
H129 H 0.51285 0.62216 0.85458 0.0
H130 H 0.44053 0.59882 0.80724 0.0
H131 H 0.47221 0.55976 0.81781 0.0
H132 H 0.41907 0.59519 0.87767 0.0
H133 H 0.45004 0.56684 0.85878 0.0
H134 H 0.49633 0.61823 0.90965 0.0
H135 H 0.52716 0.59001 0.89073 0.0
N136 N 0.52673 0.53787 0.86873 0.0
N137 N 0.52739 0.54541 0.83564 0.0
C138 C 0.55977 0.93321 0.0901 0.0
C139 C 0.53937 0.93835 0.07682 0.0
C140 C 0.57825 0.95584 0.09709 0.0
C141 C 0.57606 0.98446 0.09144 0.0
C142 C 0.53828 0.96675 0.07063 0.0
C143 C 0.55639 0.98956 0.0779 0.0
C144 C 0.59444 0.00902 0.09936 0.0
C145 C 0.54023 0.99229 0.14573 0.0
C146 C 0.55598 0.97191 0.15531 0.0
C147 C 0.55308 0.00494 0.13247 0.0
C148 C 0.58199 0.9978 0.12867 0.0
C149 C 0.58458 0.96396 0.15085 0.0
C150 C 0.59765 0.97731 0.13795 0.0
C151 C 0.59736 0.01474 0.11671 0.0
C152 C 0.65265 0.11697 0.14414 0.0
C153 C 0.68355 0.11436 0.14457 0.0
C154 C 0.63482 0.0993 0.13296 0.0
C155 C 0.64751 0.07925 0.12171 0.0
C156 C 0.69628 0.09586 0.13243 0.0
C157 C 0.67832 0.07841 0.12104 0.0
C158 C 0.62874 0.05583 0.1132 0.0
C159 C 0.66462 0.07783 0.05935 0.0
C160 C 0.66125 0.10859 0.06147 0.0
C161 C 0.65302 0.05905 0.07056 0.0
C162 C 0.63826 0.0707 0.08421 0.0
C163 C 0.64612 0.1201 0.07505 0.0
C164 C 0.63461 0.10138 0.08622 0.0
C165 C 0.62541 0.05078 0.09583 0.0
H166 H 0.5613 0.9118 0.09533 0.0
H167 H 0.59432 0.95078 0.10688 0.0
H168 H 0.52348 0.97145 0.06014 0.0
H169 H 0.55471 0.01132 0.07308 0.0
H170 H 0.51845 -0.00051 0.14884 0.0
H171 H 0.54094 0.02128 0.12564 0.0
H172 H 0.59723 0.94778 0.15749 0.0
H173 H 0.62017 0.97182 0.13528 0.0
H174 H 0.64217 0.13156 0.15305 0.0
H175 H 0.61105 0.10021 0.13364 0.0
H176 H 0.72 0.09327 0.13247 0.0
H177 H 0.68847 0.06276 0.11255 0.0
H178 H 0.67589 0.06826 0.04893 0.0
H179 H 0.65574 0.03542 0.06863 0.0
H180 H 0.64336 0.14369 0.07717 0.0
H181 H 0.62249 0.11095 0.09631 0.0
N182 N 0.60841 0.02744 0.08954 0.0
N183 N 0.61447 0.03776 0.12293 0.0
C184 C 0.06998 0.6961 0.92335 0.0
C185 C 0.08313 0.68315 0.90942 0.0
C186 C 0.05168 0.67925 0.93264 0.0
C187 C 0.04616 0.64927 0.92806 0.0
C188 C 0.07755 0.65315 0.90496 0.0
C189 C 0.05918 0.63648 0.91412 0.0
C190 C 0.02563 0.63117 0.93698 0.0
C191 C 0.1041 0.64722 0.97217 0.0
C192 C 0.09881 0.66439 0.98669 0.0
C193 C 0.0807 0.63629 0.96164 0.0
C194 C 0.05145 0.64258 0.96525 0.0
C195 C 0.06949 0.67059 0.99037 0.0
C196 C 0.04596 0.65948 0.9798 0.0
C197 C 0.02684 0.62956 0.95441 0.0
C198 C 0.95562 0.52222 0.96331 0.0
C199 C 0.93138 0.53118 0.97239 0.0
C200 C 0.97404 0.5431 0.95703 0.0
C201 C 0.96881 0.57334 0.95982 0.0
C202 C 0.92679 0.56164 0.97557 0.0
C203 C 0.94551 0.58254 0.96944 0.0
C204 C 0.98674 0.59504 0.95183 0.0
C205 C 0.91773 0.55949 0.91296 0.0
C206 C 0.93026 0.54186 0.90039 0.0
C207 C 0.93579 0.5769 0.9243 0.0
C208 C 0.96656 0.57704 0.92314 0.0
C209 C 0.96109 0.54185 0.89944 0.0
C210 C 0.97902 0.55943 0.91063 0.0
C211 C 0.98609 0.59612 0.93446 0.0
H212 H 0.07387 0.71918 0.92706 0.0
H213 H 0.04143 0.68977 0.94317 0.0
H214 H 0.08688 0.64263 0.89413 0.0
H215 H 0.05511 0.61348 0.91026 0.0
H216 H 0.12643 0.64234 0.96887 0.0
H217 H 0.08551 0.62256 0.95075 0.0
H218 H 0.06478 0.6836 0.00153 0.0
H219 H 0.02351 0.66415 0.98294 0.0
H220 H 0.96032 0.49905 0.96093 0.0
H221 H 0.99214 0.53564 0.94973 0.0
H222 H 0.90819 0.5694 0.98234 0.0
H223 H 0.94114 0.60584 0.97165 0.0
H224 H 0.89403 0.55994 0.91393 0.0
H225 H 0.9257 0.5907 0.93372 0.0
H226 H 0.97131 0.5289 0.88971 0.0
H227 H 0.0027 0.55933 0.90949 0.0
N228 N 0.00547 0.61413 0.9277 0.0
N229 N 0.00714 0.61172 0.96123 0.0
C230 C 0.47877 0.55288 0.15666 0.0
C231 C 0.49068 0.56615 0.14317 0.0
C232 C 0.49723 0.5393 0.16839 0.0
C233 C 0.52786 0.53855 0.16675 0.0
C234 C 0.52153 0.5661 0.14198 0.0
C235 C 0.53981 0.5521 0.15349 0.0
C236 C 0.5476 0.52237 0.17818 0.0
C237 C 0.52553 0.6052 0.20652 0.0
C238 C 0.51187 0.60227 0.22149 0.0
C239 C 0.53684 0.58067 0.19802 0.0
C240 C 0.53398 0.55236 0.20396 0.0
C241 C 0.50876 0.57391 0.22743 0.0
C242 C 0.51989 0.54918 0.21877 0.0
C243 C 0.54844 0.5269 0.19562 0.0
C244 C 0.65548 0.45912 0.21751 0.0
C245 C 0.64471 0.44198 0.22984 0.0
C246 C 0.6361 0.47475 0.2073 0.0
C247 C 0.60554 0.4734 0.2091 0.0
C248 C 0.61414 0.44131 0.23192 0.0
C249 C 0.59475 0.45709 0.22171 0.0
C250 C 0.58493 0.48942 0.19807 0.0
C251 C 0.62125 0.41759 0.16256 0.0
C252 C 0.63894 0.4299 0.15095 0.0
C253 C 0.60468 0.43587 0.17297 0.0
C254 C 0.60536 0.4666 0.17169 0.0
C255 C 0.64043 0.46075 0.15028 0.0
C256 C 0.6236 0.47886 0.16044 0.0
C257 C 0.58509 0.48616 0.18064 0.0
H258 H 0.45515 0.55219 0.15792 0.0
H259 H 0.48754 0.52864 0.17845 0.0
H260 H 0.53169 0.57679 0.13209 0.0
H261 H 0.56342 0.55194 0.15207 0.0
H262 H 0.52802 0.62663 0.20148 0.0
H263 H 0.54871 0.58414 0.18707 0.0
H264 H 0.49866 0.57097 0.23903 0.0
H265 H 0.51791 0.52764 0.22376 0.0
H266 H 0.67885 0.45994 0.21549 0.0
H267 H 0.64503 0.48784 0.19794 0.0
H268 H 0.60522 0.42857 0.24143 0.0
H269 H 0.57128 0.4561 0.22345 0.0
H270 H 0.61971 0.39387 0.1633 0.0
H271 H 0.59045 0.42601 0.18147 0.0
H272 H 0.65346 0.47086 0.14129 0.0
H273 H 0.62426 0.50253 0.15923 0.0
N274 N 0.56629 0.50255 0.1714 0.0
N275 N 0.5667 0.50983 0.20494 0.0
C276 C 0.53445 0.98877 0.43218 0.0
C277 C 0.51673 0.99495 0.41798 0.0
C278 C 0.54999 0.01143 0.4414 0.0
C279 C 0.54797 0.04068 0.43661 0.0
C280 C 0.51358 0.02445 0.41374 0.0
C281 C 0.52923 0.04705 0.4229 0.0
C282 C 0.56848 0.06372 0.44421 0.0
C283 C 0.50759 0.0427 0.48311 0.0
C284 C 0.52093 0.02905 0.49679 0.0
C285 C 0.52476 0.05587 0.47177 0.0
C286 C 0.55569 0.05542 0.47373 0.0
C287 C 0.55192 0.02927 0.49897 0.0
C288 C 0.56914 0.04255 0.4876 0.0
C289 C 0.57393 0.06883 0.46149 0.0
C290 C 0.66719 0.16607 0.46461 0.0
C291 C 0.68763 0.15456 0.47625 0.0
C292 C 0.64216 0.1497 0.45876 0.0
C293 C 0.6375 0.12123 0.46413 0.0
C294 C 0.68172 0.1269 0.48244 0.0
C295 C 0.65693 0.11041 0.47642 0.0
C296 C 0.61316 0.10206 0.45673 0.0
C297 C 0.67194 0.11993 0.41504 0.0
C298 C 0.6575 0.13306 0.40147 0.0
C299 C 0.65577 0.10849 0.42744 0.0
C300 C 0.62485 0.11061 0.4268 0.0
C301 C 0.6265 0.13481 0.4008 0.0
C302 C 0.61039 0.12365 0.4133 0.0
C303 C 0.60717 0.09747 0.43941 0.0
H304 H 0.53723 0.96625 0.43575 0.0
H305 H 0.56482 0.00582 0.4517 0.0
H306 H 0.50046 0.02988 0.40273 0.0
H307 H 0.52762 0.0694 0.41889 0.0
H308 H 0.4838 0.04266 0.48093 0.0
H309 H 0.5138 0.06633 0.46142 0.0
H310 H 0.56284 0.0192 0.50946 0.0
H311 H 0.59298 0.04227 0.48946 0.0
H312 H 0.67098 0.18727 0.45956 0.0
H313 H 0.62693 0.15893 0.44967 0.0
H314 H 0.69651 0.11773 0.49176 0.0
H315 H 0.65348 0.08872 0.48098 0.0
H316 H 0.69577 0.11836 0.41607 0.0
H317 H 0.66746 0.09769 0.43743 0.0
H318 H 0.61454 0.14414 0.3904 0.0
H319 H 0.58652 0.12505 0.41238 0.0
N320 N 0.58506 0.07849 0.43388 0.0
N321 N 0.5963 0.08755 0.4671 0.0
C322 C 0.19945 0.07332 0.68024 0.0
C323 C 0.18563 0.05621 0.66689 0.0
C324 C 0.18265 0.09152 0.69059 0.0
C325 C 0.15189 0.09299 0.68762 0.0
C326 C 0.15472 0.05697 0.66445 0.0
C327 C 0.1381 0.07525 0.67464 0.0
C328 C 0.13412 0.11541 0.69638 0.0
C329 C 0.15566 0.04841 0.73338 0.0
C330 C 0.17313 0.05877 0.74747 0.0
C331 C 0.14323 0.06808 0.7224 0.0
C332 C 0.14822 0.09859 0.72511 0.0
C333 C 0.17802 0.08935 0.75025 0.0
C334 C 0.16542 0.10912 0.73923 0.0
C335 C 0.13375 0.11938 0.71383 0.0
C336 C 0.02758 0.19249 0.72223 0.0
C337 C 0.03666 0.22068 0.72881 0.0
C338 C 0.04827 0.17194 0.71698 0.0
C339 C 0.07846 0.179 0.71838 0.0
C340 C 0.06711 0.22725 0.73076 0.0
C341 C 0.08787 0.20647 0.72564 0.0
C342 C 0.09952 0.15865 0.71072 0.0
C343 C 0.06895 0.21727 0.66919 0.0
C344 C 0.04925 0.20215 0.65755 0.0
C345 C 0.08461 0.20193 0.68134 0.0
C346 C 0.081 0.17125 0.68186 0.0
C347 C 0.04504 0.1716 0.65848 0.0
C348 C 0.06102 0.15625 0.67043 0.0
C349 C 0.09959 0.15424 0.69339 0.0
H350 H 0.22323 0.07315 0.68242 0.0
H351 H 0.19378 0.10538 0.7004 0.0
H352 H 0.14338 0.04453 0.65414 0.0
H353 H 0.11443 0.07622 0.67204 0.0
H354 H 0.15171 0.02499 0.73077 0.0
H355 H 0.1293 0.0594 0.7119 0.0
H356 H 0.19119 0.09799 0.76106 0.0
H357 H 0.16915 0.13261 0.7417 0.0
H358 H 0.0044 0.1864 0.72089 0.0
H359 H 0.04069 0.15075 0.71141 0.0
H360 H 0.07489 0.24882 0.73562 0.0
H361 H 0.11113 0.21231 0.72665 0.0
H362 H 0.07256 0.24083 0.66871 0.0
H363 H 0.10026 0.21382 0.68992 0.0
H364 H 0.03028 0.15937 0.64953 0.0
H365 H 0.0581 0.13254 0.6706 0.0
N366 N 0.11685 0.13286 0.68687 0.0
N367 N 0.11647 0.14102 0.72041 0.0
O368 O 0.35828 0.72901 0.99651 0.0
Cd369 Cd 0.34559 0.74607 0.0192 0.0
Cd370 Cd 0.38376 0.70776 0.03111 0.0
O371 O 0.37672 0.68927 0.00737 0.0
O372 O 0.30487 0.76105 0.01579 0.0
O373 O 0.31624 0.72248 0.03052 0.0
C374 C 0.29633 0.73951 0.02419 0.0
C375 C 0.39024 0.67506 0.05225 0.0
C376 C 0.36871 0.70319 0.99472 0.0
C377 C 0.3992 0.77236 0.03575 0.0
O378 O 0.40887 0.74612 0.0347 0.0
O379 O 0.37229 0.77751 0.03186 0.0
O380 O 0.40934 0.67746 0.04125 0.0
O381 O 0.36688 0.69111 0.05129 0.0
O382 O 0.43385 0.85453 0.31351 0.0
Cd383 Cd 0.41545 0.84332 0.29005 0.0
Cd384 Cd 0.4674 0.86034 0.28027 0.0
O385 O 0.4711 0.87877 0.30414 0.0
O386 O 0.37201 0.84895 0.29057 0.0
O387 O 0.4018 0.87824 0.27795 0.0
C388 C 0.37578 0.87262 0.28274 0.0
C389 C 0.47973 0.88775 0.25807 0.0
C390 C 0.45617 0.87158 0.31613 0.0
C391 C 0.4521 0.79612 0.27548 0.0
O392 O 0.4726 0.81547 0.27697 0.0
O393 O 0.42574 0.80317 0.27841 0.0
O394 O 0.49971 0.87888 0.26859 0.0
O395 O 0.45248 0.88167 0.26034 0.0
O396 O 0.29439 0.91819 0.50455 0.0
Cd397 Cd 0.30882 0.90212 0.52704 0.0
Cd398 Cd 0.26527 0.93459 0.53799 0.0
O399 O 0.26676 0.95311 0.51547 0.0
O400 O 0.35131 0.89333 0.52514 0.0
O401 O 0.33492 0.92995 0.54137 0.0
C402 C 0.3569 0.91642 0.53494 0.0
C403 C 0.25794 0.96377 0.5621 0.0
C404 C 0.27863 0.94106 0.50298 0.0
C405 C 0.25927 0.86867 0.53858 0.0
O406 O 0.24635 0.89337 0.53819 0.0
O407 O 0.28666 0.86697 0.53616 0.0
O408 O 0.23727 0.95916 0.55063 0.0
O409 O 0.28367 0.95301 0.55953 0.0
O410 O 0.24597 0.81063 0.76615 0.0
Cd411 Cd 0.26554 0.82842 0.788 0.0
Cd412 Cd 0.22865 0.78791 0.80173 0.0
O413 O 0.21022 0.7875 0.77767 0.0
O414 O 0.27916 0.86846 0.78307 0.0
O415 O 0.24338 0.86046 0.79985 0.0
C416 C 0.2587 0.87888 0.79212 0.0
C417 C 0.19674 0.7745 0.82202 0.0
C418 C 0.22191 0.79603 0.76483 0.0
C419 C 0.29625 0.78055 0.80445 0.0
O420 O 0.27034 0.77055 0.80591 0.0
O421 O 0.30006 0.80543 0.79841 0.0
O422 O 0.20497 0.75599 0.81063 0.0
O423 O 0.20592 0.80145 0.82173 0.0
O424 O 0.93564 0.29152 0.55088 0.0
Cd425 Cd 0.91612 0.30716 0.52959 0.0
Cd426 Cd 0.94721 0.26089 0.51429 0.0
O427 O 0.96465 0.25949 0.53845 0.0
O428 O 0.9008 0.3465 0.53646 0.0
O429 O 0.93633 0.34023 0.51899 0.0
C430 C 0.91971 0.35788 0.52733 0.0
C431 C 0.97986 0.24962 0.4935 0.0
C432 C 0.95614 0.27264 0.5516 0.0
C433 C 0.88006 0.25987 0.51087 0.0
O434 O 0.90421 0.24679 0.50829 0.0
O435 O 0.88004 0.28488 0.51872 0.0
O436 O 0.97029 0.2298 0.50266 0.0
O437 O 0.97115 0.27641 0.49622 0.0
O438 O 0.84427 0.4166 0.79175 0.0
Cd439 Cd 0.83137 0.39892 0.7684 0.0
Cd440 Cd 0.86693 0.44025 0.75859 0.0
O441 O 0.8589 0.45808 0.78191 0.0
O442 O 0.79222 0.38021 0.77033 0.0
O443 O 0.79889 0.42042 0.75655 0.0
C444 C 0.78103 0.40167 0.76228 0.0
C445 C 0.87271 0.47331 0.73788 0.0
C446 C 0.85251 0.44337 0.79413 0.0
C447 C 0.88587 0.37678 0.75492 0.0
O448 O 0.89392 0.40374 0.75656 0.0
O449 O 0.85935 0.36959 0.75717 0.0
O450 O 0.89146 0.47211 0.75036 0.0
O451 O 0.8499 0.45602 0.73716 0.0
O452 O 0.74386 0.34723 0.04262 0.0
Cd453 Cd 0.75739 0.33206 0.01982 0.0
Cd454 Cd 0.71689 0.36787 0.0088 0.0
O455 O 0.70135 0.36244 0.03194 0.0
O456 O 0.77221 0.29147 0.02275 0.0
O457 O 0.73102 0.30126 0.00802 0.0
C458 C 0.7484 0.28202 0.01454 0.0
C459 C 0.684 0.36855 0.98553 0.0
C460 C 0.71781 0.35636 0.04452 0.0
C461 C 0.78036 0.38473 0.00576 0.0
O462 O 0.75414 0.39385 0.00718 0.0
O463 O 0.78656 0.35799 0.00827 0.0
O464 O 0.68487 0.38958 0.99694 0.0
O465 O 0.70114 0.34627 0.98758 0.0
O466 O 0.80809 0.22832 0.24674 0.0
Cd467 Cd 0.81963 0.2547 0.26759 0.0
Cd468 Cd 0.80229 0.20758 0.28435 0.0
O469 O 0.78892 0.19287 0.26039 0.0
O470 O 0.81529 0.29607 0.26118 0.0
O471 O 0.78632 0.27528 0.27846 0.0
C472 C 0.79257 0.29772 0.27008 0.0
C473 C 0.77145 0.19592 0.30532 0.0
C474 C 0.79429 0.2039 0.24677 0.0
C475 C 0.86659 0.22765 0.28848 0.0
O476 O 0.84673 0.20911 0.29146 0.0
O477 O 0.86048 0.24897 0.27938 0.0
O478 O 0.78688 0.17615 0.29784 0.0
O479 O 0.77316 0.22268 0.30076 0.0
H480 H 0.23452 0.97087 0.32081 0.0
H481 H 0.27495 0.03536 0.29198 0.0
H482 H 0.26551 0.93258 0.30898 0.0
H483 H 0.30476 0.99681 0.27906 0.0
H484 H 0.38218 0.93169 0.28013 0.0
H485 H 0.34561 0.96927 0.28525 0.0
H486 H 0.27882 0.90126 0.28751 0.0
H487 H 0.31628 0.86364 0.28357 0.0
C488 C 0.24962 0.97657 0.31156 0.0
C489 C 0.2526 0.00592 0.30734 0.0
C490 C 0.26727 0.9546 0.30462 0.0
C491 C 0.28793 0.96137 0.293 0.0
C492 C 0.28972 0.99071 0.28822 0.0
C493 C 0.27252 0.01282 0.29549 0.0
C494 C 0.35954 0.9248 0.28136 0.0
C495 C 0.35214 0.89475 0.28165 0.0
C496 C 0.33838 0.94643 0.28425 0.0
C497 C 0.30912 0.93852 0.28714 0.0
C498 C 0.30127 0.90832 0.28592 0.0
C499 C 0.32263 0.88668 0.28345 0.0
H500 H 0.12296 0.76898 0.57874 0.0
H501 H 0.18485 0.70028 0.56669 0.0
H502 H 0.15462 0.80519 0.5674 0.0
H503 H 0.21649 0.73653 0.55483 0.0
H504 H 0.27906 0.81821 0.55263 0.0
H505 H 0.24876 0.77829 0.56205 0.0
H506 H 0.17029 0.82005 0.54183 0.0
H507 H 0.20031 0.86019 0.53315 0.0
C508 C 0.14317 0.76158 0.5734 0.0
C509 C 0.15132 0.7318 0.57347 0.0
C510 C 0.16134 0.78231 0.56685 0.0
C511 C 0.18801 0.77376 0.56 0.0
C512 C 0.19625 0.74392 0.56012 0.0
C513 C 0.17812 0.72316 0.56685 0.0
C514 C 0.25536 0.81857 0.55008 0.0
C515 C 0.24199 0.84247 0.54238 0.0
C516 C 0.23799 0.7957 0.55542 0.0
C517 C 0.207 0.79621 0.55297 0.0
C518 C 0.19397 0.81935 0.54439 0.0
C519 C 0.21121 0.84229 0.5393 0.0
H520 H 0.39869 0.62426 0.81712 0.0
H521 H 0.46574 0.69275 0.82357 0.0
H522 H 0.36138 0.66123 0.81198 0.0
H523 H 0.42794 0.73004 0.81938 0.0
H524 H 0.35318 0.78545 0.7951 0.0
H525 H 0.3932 0.75036 0.79935 0.0
H526 H 0.33688 0.69835 0.82796 0.0
H527 H 0.29685 0.73273 0.82329 0.0
C528 C 0.40558 0.64718 0.81727 0.0
C529 C 0.43529 0.65546 0.82079 0.0
C530 C 0.38405 0.66848 0.81461 0.0
C531 C 0.39155 0.69869 0.81555 0.0
C532 C 0.42138 0.70698 0.81854 0.0
C533 C 0.44301 0.68561 0.82111 0.0
C534 C 0.34952 0.76668 0.80244 0.0
C535 C 0.32177 0.76172 0.80872 0.0
C536 C 0.37244 0.74657 0.80489 0.0
C537 C 0.3681 0.72124 0.81376 0.0
C538 C 0.34075 0.71714 0.82066 0.0
C539 C 0.31785 0.73703 0.81811 0.0
H540 H 0.55052 0.87891 0.07321 0.0
H541 H 0.48206 0.94296 0.06422 0.0
H542 H 0.51648 0.83947 0.06375 0.0
H543 H 0.44891 0.90367 0.05309 0.0
H544 H 0.38577 0.82532 0.05103 0.0
H545 H 0.41968 0.86533 0.06062 0.0
H546 H 0.49222 0.81542 0.04113 0.0
H547 H 0.45849 0.77482 0.03263 0.0
C548 C 0.52826 0.8847 0.06914 0.0
C549 C 0.51911 0.91429 0.0697 0.0
C550 C 0.50878 0.86197 0.06337 0.0
C551 C 0.47976 0.86818 0.05759 0.0
C552 C 0.47085 0.89785 0.05771 0.0
C553 C 0.49015 0.92055 0.06383 0.0
C554 C 0.409 0.82299 0.04886 0.0
C555 C 0.41956 0.79694 0.0412 0.0
C556 C 0.42848 0.84603 0.05423 0.0
C557 C 0.45887 0.8438 0.0517 0.0
C558 C 0.46919 0.81781 0.0437 0.0
C559 C 0.44982 0.79454 0.03871 0.0
H560 H 0.14816 0.63481 0.99672 0.0
H561 H 0.10672 0.72008 0.00131 0.0
H562 H 0.19318 0.65541 0.01058 0.0
H563 H 0.15161 0.74065 0.01589 0.0
H564 H 0.24994 0.76951 0.01059 0.0
H565 H 0.19913 0.7525 0.0062 0.0
H566 H 0.21943 0.67699 0.03493 0.0
H567 H 0.27075 0.69365 0.03892 0.0
C568 C 0.14854 0.6579 0.00097 0.0
C569 C 0.12413 0.67597 0.99763 0.0
C570 C 0.17424 0.66966 0.00915 0.0
C571 C 0.17614 0.69979 0.01426 0.0
C572 C 0.151 0.71744 0.01191 0.0
C573 C 0.12522 0.70563 0.00369 0.0
C574 C 0.24348 0.7496 0.01628 0.0
C575 C 0.26452 0.73262 0.02482 0.0
C576 C 0.2142 0.73993 0.01387 0.0
C577 C 0.20525 0.71311 0.02 0.0
C578 C 0.22576 0.69744 0.02975 0.0
C579 C 0.25513 0.70707 0.03212 0.0
H580 H 0.46146 0.61037 0.23852 0.0
H581 H 0.54128 0.6548 0.22642 0.0
H582 H 0.44619 0.65537 0.25374 0.0
H583 H 0.52542 0.69976 0.24062 0.0
H584 H 0.50559 0.7699 0.27822 0.0
H585 H 0.51914 0.72118 0.26737 0.0
H586 H 0.42884 0.7047 0.2489 0.0
H587 H 0.41502 0.7533 0.2605 0.0
C588 C 0.47575 0.62967 0.23913 0.0
C589 C 0.50246 0.62906 0.23114 0.0
C590 C 0.46686 0.65552 0.24769 0.0
C591 C 0.48458 0.6812 0.24844 0.0
C592 C 0.5114 0.68033 0.24057 0.0
C593 C 0.5203 0.65461 0.23216 0.0
C594 C 0.48856 0.7558 0.27196 0.0
C595 C 0.45933 0.76554 0.27 0.0
C596 C 0.49635 0.72789 0.26567 0.0
C597 C 0.47521 0.7092 0.25697 0.0
C598 C 0.44565 0.71845 0.25561 0.0
C599 C 0.43775 0.74634 0.26216 0.0
H600 H 0.53058 0.97548 0.51012 0.0
H601 H 0.46911 0.04777 0.50922 0.0
H602 H 0.4964 0.94726 0.52544 0.0
H603 H 0.43447 0.01922 0.52375 0.0
H604 H 0.37517 0.96813 0.55168 0.0
H605 H 0.42042 0.99561 0.54781 0.0
H606 H 0.45094 0.92261 0.51684 0.0
H607 H 0.4064 0.89496 0.52115 0.0
C608 C 0.51002 0.98557 0.51346 0.0
C609 C 0.50233 0.01368 0.50821 0.0
C610 C 0.49031 0.9693 0.52211 0.0
C611 C 0.46249 0.98077 0.52568 0.0
C612 C 0.45574 0.00968 0.52138 0.0
C613 C 0.47544 0.02594 0.5128 0.0
C614 C 0.39198 0.9576 0.54449 0.0
C615 C 0.38693 0.9296 0.53645 0.0
C616 C 0.41783 0.97345 0.54216 0.0
C617 C 0.43904 0.96164 0.53169 0.0
C618 C 0.43521 0.93246 0.52502 0.0
C619 C 0.40949 0.91659 0.52742 0.0
H620 H 0.22943 0.05851 0.76176 0.0
H621 H 0.14655 0.01064 0.75911 0.0
H622 H 0.25248 0.01978 0.77776 0.0
H623 H 0.16965 0.97158 0.77445 0.0
H624 H 0.212 0.90672 0.80609 0.0
H625 H 0.19262 0.95518 0.79985 0.0
H626 H 0.26683 0.97001 0.77012 0.0
H627 H 0.2865 0.92217 0.77669 0.0
C628 C 0.21603 0.03997 0.76483 0.0
C629 C 0.1863 0.03739 0.75896 0.0
C630 C 0.22927 0.01768 0.77388 0.0
C631 C 0.21301 0.99241 0.77729 0.0
C632 C 0.18283 0.99079 0.77223 0.0
C633 C 0.16965 0.01301 0.76321 0.0
C634 C 0.22459 0.9207 0.79862 0.0
C635 C 0.25054 0.91039 0.79167 0.0
C636 C 0.21337 0.94839 0.79494 0.0
C637 C 0.22786 0.96629 0.78423 0.0
C638 C 0.25512 0.95695 0.77847 0.0
C639 C 0.26634 0.92935 0.78216 0.0
H640 H 0.63825 0.43109 0.81812 0.0
H641 H 0.60992 0.48328 0.77725 0.0
H642 H 0.67646 0.40896 0.80176 0.0
H643 H 0.64813 0.46065 0.76057 0.0
H644 H 0.7518 0.45206 0.75456 0.0
H645 H 0.70244 0.46563 0.76239 0.0
H646 H 0.68817 0.37729 0.77781 0.0
H647 H 0.73779 0.36391 0.77034 0.0
C648 C 0.63994 0.43742 0.8055 0.0
C649 C 0.62139 0.4591 0.79901 0.0
C650 C 0.66161 0.4245 0.79602 0.0
C651 C 0.66536 0.43303 0.77983 0.0
C652 C 0.64587 0.45374 0.77304 0.0
C653 C 0.62393 0.46655 0.78252 0.0
C654 C 0.73779 0.43525 0.75911 0.0
C655 C 0.74891 0.40711 0.76217 0.0
C656 C 0.70942 0.44302 0.76357 0.0
C657 C 0.69165 0.42271 0.77109 0.0
C658 C 0.70163 0.39362 0.77242 0.0
C659 C 0.73001 0.38592 0.76805 0.0
H660 H 0.63549 0.15736 0.04881 0.0
H661 H 0.71516 0.10584 0.04775 0.0
H662 H 0.65807 0.19438 0.03296 0.0
H663 H 0.73746 0.1424 0.03115 0.0
H664 H 0.77747 0.23789 0.03004 0.0
H665 H 0.75648 0.19139 0.03735 0.0
H666 H 0.67691 0.20845 0.00754 0.0
H667 H 0.69765 0.25563 0.00064 0.0
C668 C 0.65773 0.15375 0.04499 0.0
C669 C 0.67371 0.12891 0.04981 0.0
C670 C 0.67057 0.17479 0.03564 0.0
C671 C 0.6997 0.1715 0.0308 0.0
C672 C 0.71512 0.14581 0.03484 0.0
C673 C 0.70225 0.12473 0.04424 0.0
C674 C 0.75579 0.23143 0.02467 0.0
C675 C 0.73901 0.25077 0.01502 0.0
C676 C 0.74375 0.20459 0.02882 0.0
C677 C 0.71472 0.19639 0.02332 0.0
C678 C 0.69906 0.21444 0.01233 0.0
C679 C 0.71106 0.24138 0.00825 0.0
H680 H 0.05737 0.22258 0.31453 0.0
H681 H 0.0212 0.13578 0.32079 0.0
H682 H 0.00776 0.24035 0.30737 0.0
H683 H 0.97238 0.15291 0.31268 0.0
H684 H 0.88465 0.19514 0.31434 0.0
H685 H 0.9349 0.18315 0.32343 0.0
H686 H 0.96827 0.23667 0.28598 0.0
H687 H 0.91773 0.24963 0.2773 0.0
C688 C 0.03892 0.20726 0.31431 0.0
C689 C 0.04336 0.17771 0.31819 0.0
C690 C 0.01054 0.21737 0.31005 0.0
C691 C 0.98601 0.19814 0.30957 0.0
C692 C 0.99061 0.16854 0.31323 0.0
C693 C 0.01881 0.15853 0.31759 0.0
C694 C 0.90271 0.20461 0.30815 0.0
C695 C 0.89724 0.22309 0.29499 0.0
C696 C 0.93154 0.19757 0.31328 0.0
C697 C 0.95565 0.20846 0.30523 0.0
C698 C 0.95024 0.22799 0.29251 0.0
C699 C 0.92129 0.23536 0.2875 0.0
H700 H 0.94627 0.51441 0.58274 0.0
H701 H 0.99167 0.53773 0.53987 0.0
H702 H 0.92504 0.47115 0.56729 0.0
H703 H 0.96995 0.49429 0.52409 0.0
H704 H 0.9678 0.38893 0.51868 0.0
H705 H 0.979 0.44087 0.5261 0.0
H706 H 0.89204 0.45181 0.54457 0.0
H707 H 0.88121 0.39979 0.53761 0.0
C708 C 0.95115 0.51052 0.56985 0.0
C709 C 0.97076 0.52914 0.56252 0.0
C710 C 0.93879 0.4859 0.56092 0.0
C711 C 0.94584 0.47924 0.54444 0.0
C712 C 0.96427 0.49877 0.5368 0.0
C713 C 0.97651 0.52368 0.54576 0.0
C714 C 0.95082 0.40264 0.52391 0.0
C715 C 0.9239 0.39022 0.52792 0.0
C716 C 0.95717 0.43245 0.52809 0.0
C717 C 0.93659 0.45029 0.53623 0.0
C718 C 0.90859 0.43845 0.53867 0.0
C719 C 0.90237 0.40867 0.53464 0.0
H720 H 0.74247 0.13125 0.4819 0.0
H721 H 0.69632 0.21434 0.48204 0.0
H722 H 0.78833 0.15717 0.49025 0.0
H723 H 0.74272 0.2405 0.48929 0.0
H724 H 0.82489 0.27484 0.52001 0.0
H725 H 0.7784 0.24975 0.51166 0.0
H726 H 0.82442 0.18797 0.4799 0.0
H727 H 0.87108 0.21238 0.48879 0.0
C728 C 0.74205 0.15506 0.48376 0.0
C729 C 0.71559 0.17066 0.4814 0.0
C730 C 0.76852 0.17 0.48827 0.0
C731 C 0.76932 0.20097 0.49036 0.0
C732 C 0.74288 0.21662 0.48797 0.0
C733 C 0.71631 0.20163 0.4836 0.0
C734 C 0.82507 0.25596 0.5112 0.0
C735 C 0.85169 0.2455 0.50512 0.0
C736 C 0.79836 0.24166 0.50633 0.0
C737 C 0.79762 0.21676 0.49514 0.0
C738 C 0.82422 0.20671 0.4888 0.0
C739 C 0.85097 0.22082 0.49381 0.0
H740 H 0.0386 0.26205 0.75503 0.0
H741 H 0.98422 0.23112 0.71178 0.0
H742 H 0.00211 0.29982 0.76129 0.0
H743 H 0.94759 0.2683 0.71833 0.0
H744 H 0.87567 0.31811 0.74654 0.0
H745 H 0.91212 0.28017 0.74054 0.0
H746 H 0.98197 0.34545 0.74837 0.0
H747 H 0.94568 0.3834 0.75439 0.0
C748 C 0.01897 0.26332 0.74683 0.0
C749 C 0.01433 0.24341 0.73294 0.0
C750 C 0.99806 0.28491 0.75044 0.0
C751 C 0.97199 0.2869 0.74032 0.0
C752 C 0.96727 0.26698 0.72649 0.0
C753 C 0.98825 0.2456 0.72279 0.0
C754 C 0.89879 0.32438 0.74696 0.0
C755 C 0.90775 0.35378 0.75092 0.0
C756 C 0.91963 0.30268 0.74347 0.0
C757 C 0.94987 0.30988 0.74404 0.0
C758 C 0.95884 0.33923 0.74802 0.0
C759 C 0.93801 0.36097 0.75135 0.0
H760 H 0.90269 0.53235 0.00143 0.0
H761 H 0.91237 0.47934 0.95596 0.0
H762 H 0.86698 0.49653 0.00992 0.0
H763 H 0.87753 0.4432 0.96481 0.0
H764 H 0.83542 0.37194 0.99517 0.0
H765 H 0.87313 0.40686 0.9877 0.0
H766 H 0.81533 0.47947 0.99919 0.0
H767 H 0.77766 0.4448 0.00655 0.0
C768 C 0.89724 0.51315 0.99323 0.0
C769 C 0.91049 0.50884 0.97799 0.0
C770 C 0.87689 0.49258 0.99815 0.0
C771 C 0.86957 0.46708 0.98803 0.0
C772 C 0.8831 0.46246 0.97295 0.0
C773 C 0.90316 0.48318 0.96793 0.0
C774 C 0.83081 0.39535 0.99613 0.0
C775 C 0.80353 0.40558 0.00141 0.0
C776 C 0.85234 0.4153 0.9918 0.0
C777 C 0.84714 0.44585 0.99291 0.0
C778 C 0.82003 0.45606 0.99838 0.0
C779 C 0.7984 0.43616 0.00248 0.0
H780 H 0.63713 0.38496 0.23809 0.0
H781 H 0.69902 0.45805 0.24421 0.0
H782 H 0.67318 0.35343 0.25169 0.0
H783 H 0.73511 0.42654 0.25794 0.0
H784 H 0.80122 0.34851 0.25451 0.0
H785 H 0.76494 0.38596 0.24818 0.0
H786 H 0.70199 0.34239 0.27688 0.0
H787 H 0.73831 0.30437 0.28297 0.0
C788 C 0.65819 0.39448 0.24269 0.0
C789 C 0.66533 0.42392 0.23992 0.0
C790 C 0.67887 0.37642 0.25053 0.0
C791 C 0.70714 0.3874 0.25582 0.0
C792 C 0.71372 0.41726 0.25377 0.0
C793 C 0.69307 0.4353 0.24589 0.0
C794 C 0.77985 0.34718 0.25976 0.0
C795 C 0.77255 0.32327 0.26909 0.0
C796 C 0.75904 0.3688 0.25619 0.0
C797 C 0.73042 0.36704 0.26188 0.0
C798 C 0.7237 0.34411 0.27209 0.0
C799 C 0.74458 0.32246 0.27569 0.0
H800 H 0.20258 0.00226 0.41089 0.0
H801 H 0.29211 0.03589 0.41315 0.0
H802 H 0.21353 0.97653 0.43615 0.0
H803 H 0.30309 0.00986 0.43856 0.0
H804 H 0.31191 0.93309 0.47591 0.0
H805 H 0.30381 0.95479 0.44894 0.0
H806 H 0.22642 0.99889 0.4662 0.0
H807 H 0.23461 0.97776 0.49312 0.0
C808 C 0.22479 0.00362 0.41659 0.0
C809 C 0.24654 0.02101 0.41004 0.0
C810 C 0.23095 0.98911 0.43111 0.0
C811 C 0.25907 0.99139 0.4393 0.0
C812 C 0.28126 0.0077 0.43241 0.0
C813 C 0.27496 0.02264 0.41796 0.0
C814 C 0.29316 0.94739 0.47391 0.0
C815 C 0.27386 0.95371 0.48661 0.0
C816 C 0.28865 0.95986 0.45854 0.0
C817 C 0.26444 0.97833 0.45553 0.0
C818 C 0.2451 0.98448 0.46818 0.0
C819 C 0.24989 0.9725 0.4836 0.0
H820 H 0.10487 0.75307 0.67709 0.0
H821 H 0.18627 0.70674 0.66955 0.0
H822 H 0.12749 0.77843 0.70223 0.0
H823 H 0.20886 0.73201 0.69469 0.0
H824 H 0.2461 0.79927 0.7348 0.0
H825 H 0.22401 0.78288 0.70753 0.0
H826 H 0.14408 0.75833 0.73 0.0
H827 H 0.16606 0.77454 0.75726 0.0
C828 C 0.12779 0.74883 0.68062 0.0
C829 C 0.14384 0.72792 0.67145 0.0
C830 C 0.14062 0.76312 0.69505 0.0
C831 C 0.16983 0.75702 0.70043 0.0
C832 C 0.18636 0.73726 0.69077 0.0
C833 C 0.17342 0.7227 0.67646 0.0
C834 C 0.22371 0.79064 0.73391 0.0
C835 C 0.20788 0.78803 0.74821 0.0
C836 C 0.21114 0.78119 0.71831 0.0
C837 C 0.18237 0.76937 0.71668 0.0
C838 C 0.1662 0.76765 0.73089 0.0
C839 C 0.17888 0.77673 0.7465 0.0
H840 H 0.46467 0.66422 0.90973 0.0
H841 H 0.40437 0.58985 0.90732 0.0
H842 H 0.43751 0.68805 0.93193 0.0
H843 H 0.37702 0.61381 0.92947 0.0
H844 H 0.37244 0.73121 0.9658 0.0
H845 H 0.38812 0.70974 0.93931 0.0
H846 H 0.39262 0.62386 0.95972 0.0
H847 H 0.37714 0.64515 0.98608 0.0
C848 C 0.44535 0.65319 0.91381 0.0
C849 C 0.43675 0.62511 0.90694 0.0
C850 C 0.42965 0.66694 0.92639 0.0
C851 C 0.40522 0.65272 0.93244 0.0
C852 C 0.39587 0.62518 0.92508 0.0
C853 C 0.4114 0.61157 0.91237 0.0
C854 C 0.37624 0.70766 0.9645 0.0
C855 C 0.37384 0.6899 0.97805 0.0
C856 C 0.38533 0.69544 0.94939 0.0
C857 C 0.39168 0.66518 0.9475 0.0
C858 C 0.38763 0.64719 0.96076 0.0
C859 C 0.37897 0.65944 0.9759 0.0
H860 H 0.49755 0.96067 0.16105 0.0
H861 H 0.58579 0.9568 0.18413 0.0
H862 H 0.47755 0.94416 0.18614 0.0
H863 H 0.5662 0.93706 0.20824 0.0
H864 H 0.52621 0.92513 0.25616 0.0
H865 H 0.54263 0.94774 0.23174 0.0
H866 H 0.47011 0.90508 0.20221 0.0
H867 H 0.45257 0.88459 0.22708 0.0
C868 C 0.51279 0.95619 0.17138 0.0
C869 C 0.54344 0.96018 0.17036 0.0
C870 C 0.50128 0.94616 0.18576 0.0
C871 C 0.5201 0.9392 0.19942 0.0
C872 C 0.55073 0.94275 0.19826 0.0
C873 C 0.56215 0.95347 0.1841 0.0
C874 C 0.51363 0.92099 0.24445 0.0
C875 C 0.4882 0.90313 0.24346 0.0
C876 C 0.5232 0.93364 0.23035 0.0
C877 C 0.50814 0.92791 0.21474 0.0
C878 C 0.48221 0.91046 0.21392 0.0
C879 C 0.47215 0.89853 0.22817 0.0
H880 H 0.07312 0.73848 0.89823 0.0
H881 H 0.13569 0.66714 0.89717 0.0
H882 H 0.10085 0.76355 0.87789 0.0
H883 H 0.16314 0.69199 0.87694 0.0
H884 H 0.17557 0.71908 0.82486 0.0
H885 H 0.14938 0.70023 0.84735 0.0
H886 H 0.15073 0.78715 0.87208 0.0
H887 H 0.17722 0.80639 0.84927 0.0
C888 C 0.09309 0.72847 0.89392 0.0
C889 C 0.10198 0.70061 0.89908 0.0
C890 C 0.10892 0.74279 0.88227 0.0
C891 C 0.13382 0.72944 0.87561 0.0
C892 C 0.14363 0.70249 0.88157 0.0
C893 C 0.12792 0.68826 0.89315 0.0
C894 C 0.17026 0.73435 0.83501 0.0
C895 C 0.1787 0.76424 0.8353 0.0
C896 C 0.15539 0.72344 0.84798 0.0
C897 C 0.14845 0.74209 0.86162 0.0
C898 C 0.15588 0.77226 0.86173 0.0
C899 C 0.17104 0.78324 0.8487 0.0
H900 H 0.43867 0.59665 0.14652 0.0
H901 H 0.49843 0.56505 0.1099 0.0
H902 H 0.40807 0.61878 0.12484 0.0
H903 H 0.46975 0.58922 0.08873 0.0
H904 H 0.40913 0.6188 0.04957 0.0
H905 H 0.42755 0.58881 0.07186 0.0
H906 H 0.40642 0.65868 0.1078 0.0
H907 H 0.38581 0.68748 0.08534 0.0
C908 C 0.4453 0.59435 0.13387 0.0
C909 C 0.47128 0.57926 0.13005 0.0
C910 C 0.42792 0.6074 0.12144 0.0
C911 C 0.43626 0.60592 0.10492 0.0
C912 C 0.46204 0.59046 0.10116 0.0
C913 C 0.47903 0.57706 0.11346 0.0
C914 C 0.40777 0.62729 0.0623 0.0
C915 C 0.39624 0.65536 0.06582 0.0
C916 C 0.41867 0.61033 0.07509 0.0
C917 C 0.41939 0.62157 0.09171 0.0
C918 C 0.40619 0.6491 0.09523 0.0
C919 C 0.39441 0.66571 0.08238 0.0
H920 H 0.54499 0.94521 0.40741 0.0
H921 H 0.46181 0.99051 0.40196 0.0
H922 H 0.529 0.91005 0.38471 0.0
H923 H 0.446 0.95547 0.37901 0.0
H924 H 0.42178 0.87625 0.34289 0.0
H925 H 0.4346 0.90125 0.37004 0.0
H926 H 0.5218 0.92026 0.35444 0.0
H927 H 0.50911 0.8956 0.32745 0.0
C928 C 0.52297 0.94718 0.40167 0.0
C929 C 0.50471 0.97074 0.40639 0.0
C930 C 0.51395 0.9272 0.38858 0.0
C931 C 0.48642 0.93025 0.38001 0.0
C932 C 0.4673 0.95254 0.38545 0.0
C933 C 0.47642 0.9727 0.39849 0.0
C934 C 0.4438 0.88544 0.34537 0.0
C935 C 0.4644 0.88412 0.33302 0.0
C936 C 0.45105 0.89981 0.36086 0.0
C937 C 0.47919 0.91259 0.36433 0.0
C938 C 0.50006 0.91028 0.35218 0.0
C939 C 0.49271 0.89636 0.33668 0.0
H940 H 0.23565 0.07415 0.65265 0.0
H941 H 0.17437 0.00088 0.65285 0.0
H942 H 0.25736 0.05105 0.62814 0.0
H943 H 0.19564 0.97831 0.62825 0.0
H944 H 0.20408 0.98031 0.572 0.0
H945 H 0.19147 0.00048 0.59908 0.0
H946 H 0.2835 0.0016 0.61594 0.0
H947 H 0.29642 0.98076 0.5886 0.0
C948 C 0.22738 0.05276 0.64777 0.0
C949 C 0.20297 0.03955 0.65451 0.0
C950 C 0.23976 0.03963 0.63372 0.0
C951 C 0.22777 0.01323 0.62619 0.0
C952 C 0.20492 0.99895 0.63369 0.0
C953 C 0.19275 0.01189 0.64774 0.0
C954 C 0.22177 0.98497 0.58137 0.0
C955 C 0.25126 0.9788 0.57815 0.0
C956 C 0.21447 0.99633 0.59694 0.0
C957 C 0.23647 0.00213 0.60964 0.0
C958 C 0.26615 0.99713 0.60634 0.0
C959 C 0.27349 0.98528 0.59073 0.0
H960 H 0.55848 0.41697 0.9056 0.0
H961 H 0.64647 0.44363 0.89486 0.0
H962 H 0.579 0.38832 0.92832 0.0
H963 H 0.66703 0.41453 0.9173 0.0
H964 H 0.6949 0.34647 0.95439 0.0
H965 H 0.66985 0.36007 0.92824 0.0
H966 H 0.60735 0.41145 0.95566 0.0
H967 H 0.63271 0.39858 0.98168 0.0
C968 C 0.58223 0.4159 0.90779 0.0
C969 C 0.60097 0.43246 0.89857 0.0
C970 C 0.59392 0.39966 0.92079 0.0
C971 C 0.62455 0.39925 0.92452 0.0
C972 C 0.64336 0.41424 0.91456 0.0
C973 C 0.63164 0.43095 0.9018 0.0
C974 C 0.67536 0.36005 0.95479 0.0
C975 C 0.66578 0.37162 0.97002 0.0
C976 C 0.66117 0.36791 0.93986 0.0
C977 C 0.63673 0.38678 0.93998 0.0
C978 C 0.62598 0.39664 0.95523 0.0
C979 C 0.64055 0.38939 0.9701 0.0
H980 H 0.738 0.14178 0.14458 0.0
H981 H 0.67077 0.11692 0.177 0.0
H982 H 0.76841 0.1618 0.16873 0.0
H983 H 0.7003 0.13774 0.20076 0.0
H984 H 0.76905 0.1491 0.24201 0.0
H985 H 0.74531 0.12669 0.2166 0.0
H986 H 0.76873 0.20288 0.19027 0.0
H987 H 0.7932 0.22512 0.21568 0.0
C988 C 0.72967 0.14072 0.1568 0.0
C989 C 0.70185 0.12801 0.15884 0.0
C990 C 0.74698 0.15232 0.1706 0.0
C991 C 0.73685 0.15114 0.18666 0.0
C992 C 0.70899 0.13857 0.18861 0.0
C993 C 0.69181 0.12708 0.17491 0.0
C994 C 0.76944 0.16098 0.23078 0.0
C995 C 0.7827 0.18906 0.23093 0.0
C996 C 0.75571 0.14818 0.21623 0.0
C997 C 0.75472 0.16323 0.20149 0.0
C998 C 0.76922 0.19069 0.20141 0.0
C999 C 0.78311 0.20347 0.216 0.0
H1000 H 0.10408 0.23278 0.41425 0.0
H1001 H 0.0567 0.14973 0.41372 0.0
H1002 H 0.07598 0.25179 0.43738 0.0
H1003 H 0.02786 0.16912 0.43612 0.0
H1004 H 0.00674 0.19691 0.48813 0.0
H1005 H 0.03632 0.18117 0.46527 0.0
H1006 H 0.0265 0.26699 0.44512 0.0
H1007 H 0.99723 0.28312 0.46843 0.0
C1008 C 0.08759 0.21864 0.41899 0.0
C1009 C 0.08273 0.18969 0.41212 0.0
C1010 C 0.07129 0.22965 0.43213 0.0
C1011 C 0.04984 0.2119 0.4387 0.0
C1012 C 0.04456 0.18323 0.43156 0.0
C1013 C 0.06084 0.17224 0.41851 0.0
C1014 C 0.01095 0.21255 0.47889 0.0
C1015 C -0.00057 0.24122 0.48003 0.0
C1016 C 0.02778 0.20343 0.4657 0.0
C1017 C 0.0334 0.22265 0.45321 0.0
C1018 C 0.02264 0.25167 0.45457 0.0
C1019 C 0.00582 0.26089 0.46788 0.0
H1020 H 0.92262 0.54842 0.64572 0.0
H1021 H 0.98725 0.57378 0.68541 0.0
H1022 H 0.89083 0.52841 0.66583 0.0
H1023 H 0.95695 0.55206 0.70509 0.0
H1024 H 0.89492 0.52886 0.74115 0.0
H1025 H 0.91466 0.5572 0.71959 0.0
H1026 H 0.88697 0.48794 0.6829 0.0
H1027 H 0.8654 0.46067 0.70452 0.0
C1028 C 0.93005 0.54979 0.6587 0.0
C1029 C 0.9577 0.56247 0.66389 0.0
C1030 C 0.91195 0.53803 0.67022 0.0
C1031 C 0.92115 0.53863 0.68716 0.0
C1032 C 0.94865 0.55165 0.69227 0.0
C1033 C 0.96647 0.56362 0.68085 0.0
C1034 C 0.89239 0.52016 0.72839 0.0
C1035 C 0.87889 0.49259 0.72445 0.0
C1036 C 0.90399 0.53618 0.71603 0.0
C1037 C 0.9033 0.5245 0.69951 0.0
C1038 C 0.88791 0.49774 0.69543 0.0
C1039 C 0.87556 0.48204 0.7078 0.0
H1040 H 0.7064 0.10831 0.38818 0.0
H1041 H 0.64724 0.1821 0.38355 0.0
H1042 H 0.73361 0.12498 0.36546 0.0
H1043 H 0.6734 0.1977 0.36003 0.0
H1044 H 0.7456 0.23282 0.32821 0.0
H1045 H 0.71843 0.21872 0.35182 0.0
H1046 H 0.72812 0.12667 0.33634 0.0
H1047 H 0.75603 0.14072 0.31328 0.0
C1048 C 0.69922 0.12819 0.38238 0.0
C1049 C 0.67454 0.14381 0.38776 0.0
C1050 C 0.71459 0.1375 0.36913 0.0
C1051 C 0.70555 0.16253 0.36073 0.0
C1052 C 0.68113 0.17845 0.36624 0.0
C1053 C 0.66588 0.16925 0.37962 0.0
C1054 C 0.74178 0.2096 0.32986 0.0
C1055 C 0.75314 0.18789 0.31896 0.0
C1056 C 0.72612 0.2015 0.34335 0.0
C1057 C 0.72131 0.17151 0.34613 0.0
C1058 C 0.732 0.14993 0.33489 0.0
C1059 C 0.74784 0.15801 0.32155 0.0
H1060 H 0.07504 0.23812 0.63667 0.0
H1061 H 0.99102 0.20008 0.64691 0.0
H1062 H 0.05248 0.25846 0.61162 0.0
H1063 H 0.96842 0.22053 0.62188 0.0
H1064 H 0.93504 0.28411 0.58228 0.0
H1065 H 0.95735 0.27067 0.60905 0.0
H1066 H 0.03097 0.23211 0.58444 0.0
H1067 H 0.00868 0.24518 0.5577 0.0
C1068 C 0.05163 0.23464 0.63372 0.0
C1069 C 0.03474 0.21751 0.64366 0.0
C1070 C 0.03881 0.24605 0.61935 0.0
C1071 C 0.00879 0.24091 0.61481 0.0
C1072 C 0.99159 0.22493 0.62516 0.0
C1073 C 0.00451 0.21314 0.6394 0.0
C1074 C 0.95606 0.27291 0.5826 0.0
C1075 C 0.97005 0.2656 0.56787 0.0
C1076 C 0.96874 0.26517 0.5979 0.0
C1077 C 0.99588 0.25045 0.59878 0.0
C1078 C 0.01016 0.24372 0.58411 0.0
C1079 C 0.99729 0.25102 0.56881 0.0
H1080 H 0.88141 0.56082 0.88291 0.0
H1081 H 0.93722 0.4849 0.8887 0.0
H1082 H 0.85564 0.5357 0.85866 0.0
H1083 H 0.91189 0.46002 0.86434 0.0
H1084 H 0.85254 0.41631 0.82356 0.0
H1085 H 0.86473 0.43871 0.85135 0.0
H1086 H 0.87383 0.52385 0.83073 0.0
H1087 H 0.86153 0.50168 0.80311 0.0
C1088 C 0.88769 0.53851 0.87923 0.0
C1089 C 0.9115 0.52489 0.88756 0.0
C1090 C 0.87311 0.52424 0.86529 0.0
C1091 C 0.88194 0.49603 0.85952 0.0
C1092 C 0.90445 0.48167 0.86853 0.0
C1093 C 0.91914 0.496 0.88239 0.0
C1094 C 0.85668 0.43989 0.82501 0.0
C1095 C 0.85641 0.45717 0.81112 0.0
C1096 C 0.86374 0.45266 0.8409 0.0
C1097 C 0.87032 0.483 0.8432 0.0
C1098 C 0.86854 0.50048 0.8294 0.0
C1099 C 0.86176 0.4877 0.81354 0.0
H1100 H 0.69527 0.43474 0.14117 0.0
H1101 H 0.61493 0.38343 0.13182 0.0
H1102 H 0.71529 0.41113 0.11645 0.0
H1103 H 0.63515 0.35938 0.10722 0.0
H1104 H 0.74918 0.35362 0.07436 0.0
H1105 H 0.73167 0.36471 0.102 0.0
H1106 H 0.64435 0.38051 0.08031 0.0
H1107 H 0.66166 0.3693 0.05277 0.0
C1108 C 0.68221 0.41788 0.13403 0.0
C1109 C 0.65346 0.41111 0.1383 0.0
C1110 C 0.69372 0.40422 0.11994 0.0
C1111 C 0.67663 0.38366 0.10979 0.0
C1112 C 0.64866 0.37543 0.1147 0.0
C1113 C 0.63722 0.38896 0.12887 0.0
C1114 C 0.72616 0.35914 0.0755 0.0
C1115 C 0.70687 0.36085 0.06135 0.0
C1116 C 0.71618 0.36553 0.09133 0.0
C1117 C 0.68665 0.37346 0.09332 0.0
C1118 C 0.66714 0.37408 0.0792 0.0
C1119 C 0.67714 0.36793 0.0634 0.0
loop_
_geom_bond_atom_site_label_1
_geom_bond_atom_site_label_2
_geom_bond_distance
_geom_bond_site_symmetry_2
_ccdc_geom_bond_type
C0 C1 1.384 1_565 S
C0 C2 1.384 . S
C0 H28 0.931 . S
C1 C0 1.384 1_545 S
C1 C4 1.382 . S
C2 C0 1.384 . S
C2 C3 1.381 1_565 S
C2 H29 0.930 . S
C3 C2 1.381 1_545 S
C3 C5 1.381 . S
C3 C6 1.487 . S
C4 C1 1.382 . S
C4 C5 1.387 . S
C4 H30 0.930 . S
C5 C3 1.381 . S
C5 C4 1.387 . S
C5 H31 0.931 . S
C6 C3 1.487 . S
C6 C13 1.399 . S
C6 N44 1.343 . S
C7 C8 1.384 . S
C7 C9 1.384 1_565 S
C7 H32 0.931 1_565 S
C8 C7 1.384 . S
C8 C11 1.382 . S
C9 C7 1.384 1_545 S
C9 C10 1.381 . S
C9 H33 0.930 . S
C10 C9 1.381 . S
C10 C12 1.381 1_545 S
C10 C13 1.487 . S
C11 C8 1.382 . S
C11 C12 1.387 . S
C11 H34 0.930 . S
C12 C10 1.381 1_565 S
C12 C11 1.387 . S
C12 H35 0.931 . S
C13 C6 1.399 . S
C13 C10 1.487 . S
C13 N45 1.343 . S
C14 C15 1.384 . S
C14 C16 1.384 . S
C14 H36 0.931 . S
C15 C14 1.384 . S
C15 C18 1.382 . S
C16 C14 1.384 . S
C16 C17 1.381 . S
C16 H37 0.930 . S
C17 C16 1.381 . S
C17 C19 1.381 . S
C17 C20 1.487 . S
C18 C15 1.382 . S
C18 C19 1.387 . S
C18 H38 0.930 . S
C19 C17 1.381 . S
C19 C18 1.387 . S
C19 H39 0.931 . S
C20 C17 1.487 . S
C20 C27 1.399 . S
C20 N45 1.343 . S
C21 C22 1.384 . S
C21 C23 1.384 . S
C21 H40 0.931 . S
C22 C21 1.384 . S
C22 C25 1.382 . S
C23 C21 1.384 . S
C23 C24 1.381 . S
C23 H41 0.930 . S
C24 C23 1.381 . S
C24 C26 1.381 . S
C24 C27 1.487 . S
C25 C22 1.382 . S
C25 C26 1.387 . S
C25 H42 0.930 . S
C26 C24 1.381 . S
C26 C25 1.387 . S
C26 H43 0.931 . S
C27 C20 1.399 . S
C27 C24 1.487 . S
C27 N44 1.343 . S
H28 C0 0.931 . S
H29 C2 0.930 . S
H30 C4 0.930 . S
H31 C5 0.931 . S
H32 C7 0.931 1_545 S
H33 C9 0.930 . S
H34 C11 0.930 . S
H35 C12 0.931 . S
H36 C14 0.931 . S
H37 C16 0.930 . S
H38 C18 0.930 . S
H39 C19 0.931 . S
H40 C21 0.931 . S
H41 C23 0.930 . S
H42 C25 0.930 . S
H43 C26 0.931 . S
N44 C6 1.343 . S
N44 C27 1.343 . S
N45 C13 1.343 . S
N45 C20 1.343 . S
C46 C47 1.384 . S
C46 C48 1.384 . S
C46 H74 0.931 . S
C47 C46 1.384 . S
C47 C50 1.382 . S
C48 C46 1.384 . S
C48 C49 1.381 1_655 S
C48 H75 0.930 . S
C49 C48 1.381 1_455 S
C49 C51 1.381 . S
C49 C52 1.487 . S
C50 C47 1.382 . S
C50 C51 1.387 1_655 S
C50 H76 0.930 1_655 S
C51 C49 1.381 . S
C51 C50 1.387 1_455 S
C51 H77 0.931 . S
C52 C49 1.487 . S
C52 C59 1.399 . S
C52 N90 1.343 . S
C53 C54 1.384 1_455 S
C53 C55 1.384 . S
C53 H78 0.931 . S
C54 C53 1.384 1_655 S
C54 C57 1.382 . S
C55 C53 1.384 . S
C55 C56 1.381 . S
C55 H79 0.930 . S
C56 C55 1.381 . S
C56 C58 1.381 . S
C56 C59 1.487 . S
C57 C54 1.382 . S
C57 C58 1.387 1_655 S
C57 H80 0.930 . S
C58 C56 1.381 . S
C58 C57 1.387 1_455 S
C58 H81 0.931 . S
C59 C52 1.399 . S
C59 C56 1.487 . S
C59 N91 1.343 . S
C60 C61 1.384 . S
C60 C62 1.384 . S
C60 H82 0.931 . S
C61 C60 1.384 . S
C61 C64 1.382 . S
C62 C60 1.384 . S
C62 C63 1.381 . S
C62 H83 0.930 . S
C63 C62 1.381 . S
C63 C65 1.381 . S
C63 C66 1.487 . S
C64 C61 1.382 . S
C64 C65 1.387 . S
C64 H84 0.930 . S
C65 C63 1.381 . S
C65 C64 1.387 . S
C65 H85 0.931 . S
C66 C63 1.487 . S
C66 C73 1.399 . S
C66 N91 1.343 . S
C67 C68 1.384 . S
C67 C69 1.384 . S
C67 H86 0.931 . S
C68 C67 1.384 . S
C68 C71 1.382 . S
C69 C67 1.384 . S
C69 C70 1.381 . S
C69 H87 0.930 . S
C70 C69 1.381 . S
C70 C72 1.381 . S
C70 C73 1.487 . S
C71 C68 1.382 . S
C71 C72 1.387 . S
C71 H88 0.930 . S
C72 C70 1.381 . S
C72 C71 1.387 . S
C72 H89 0.931 . S
C73 C66 1.399 . S
C73 C70 1.487 . S
C73 N90 1.343 . S
H74 C46 0.931 . S
H75 C48 0.930 . S
H76 C50 0.930 1_455 S
H77 C51 0.931 . S
H78 C53 0.931 . S
H79 C55 0.930 . S
H80 C57 0.930 . S
H81 C58 0.931 . S
H82 C60 0.931 . S
H83 C62 0.930 . S
H84 C64 0.930 . S
H85 C65 0.931 . S
H86 C67 0.931 . S
H87 C69 0.930 . S
H88 C71 0.930 . S
H89 C72 0.931 . S
N90 C52 1.343 . S
N90 C73 1.343 . S
N91 C59 1.343 . S
N91 C66 1.343 . S
C92 C93 1.384 . S
C92 C94 1.384 . S
C92 H120 0.931 . S
C93 C92 1.384 . S
C93 C96 1.382 . S
C94 C92 1.384 . S
C94 C95 1.381 . S
C94 H121 0.930 . S
C95 C94 1.381 . S
C95 C97 1.381 . S
C95 C98 1.487 . S
C96 C93 1.382 . S
C96 C97 1.387 . S
C96 H122 0.930 . S
C97 C95 1.381 . S
C97 C96 1.387 . S
C97 H123 0.931 . S
C98 C95 1.487 . S
C98 C105 1.399 . S
C98 N136 1.343 . S
C99 C100 1.384 . S
C99 C101 1.384 . S
C99 H124 0.931 . S
C100 C99 1.384 . S
C100 C103 1.382 . S
C101 C99 1.384 . S
C101 C102 1.381 . S
C101 H125 0.930 . S
C102 C101 1.381 . S
C102 C104 1.381 . S
C102 C105 1.487 . S
C103 C100 1.382 . S
C103 C104 1.387 . S
C103 H126 0.930 . S
C104 C102 1.381 . S
C104 C103 1.387 . S
C104 H127 0.931 . S
C105 C98 1.399 . S
C105 C102 1.487 . S
C105 N137 1.343 . S
C106 C107 1.384 . S
C106 C108 1.384 . S
C106 H128 0.931 . S
C107 C106 1.384 . S
C107 C110 1.382 . S
C108 C106 1.384 . S
C108 C109 1.381 . S
C108 H129 0.930 . S
C109 C108 1.381 . S
C109 C111 1.381 . S
C109 C112 1.487 . S
C110 C107 1.382 . S
C110 C111 1.387 . S
C110 H130 0.930 . S
C111 C109 1.381 . S
C111 C110 1.387 . S
C111 H131 0.931 . S
C112 C109 1.487 . S
C112 C119 1.399 . S
C112 N137 1.343 . S
C113 C114 1.384 . S
C113 C115 1.384 . S
C113 H132 0.931 . S
C114 C113 1.384 . S
C114 C117 1.382 . S
C115 C113 1.384 . S
C115 C116 1.381 . S
C115 H133 0.930 . S
C116 C115 1.381 . S
C116 C118 1.381 . S
C116 C119 1.487 . S
C117 C114 1.382 . S
C117 C118 1.387 . S
C117 H134 0.930 . S
C118 C116 1.381 . S
C118 C117 1.387 . S
C118 H135 0.931 . S
C119 C112 1.399 . S
C119 C116 1.487 . S
C119 N136 1.343 . S
H120 C92 0.931 . S
H121 C94 0.930 . S
H122 C96 0.930 . S
H123 C97 0.931 . S
H124 C99 0.931 . S
H125 C101 0.930 . S
H126 C103 0.930 . S
H127 C104 0.931 . S
H128 C106 0.931 . S
H129 C108 0.930 . S
H130 C110 0.930 . S
H131 C111 0.931 . S
H132 C113 0.931 . S
H133 C115 0.930 . S
H134 C117 0.930 . S
H135 C118 0.931 . S
N136 C98 1.343 . S
N136 C119 1.343 . S
N137 C105 1.343 . S
N137 C112 1.343 . S
C138 C139 1.384 . S
C138 C140 1.384 . S
C138 H166 0.931 . S
C139 C138 1.384 . S
C139 C142 1.382 . S
C140 C138 1.384 . S
C140 C141 1.381 . S
C140 H167 0.930 . S
C141 C140 1.381 . S
C141 C143 1.381 . S
C141 C144 1.487 . S
C142 C139 1.382 . S
C142 C143 1.387 . S
C142 H168 0.930 . S
C143 C141 1.381 . S
C143 C142 1.387 . S
C143 H169 0.931 . S
C144 C141 1.487 . S
C144 C151 1.399 . S
C144 N182 1.343 1_565 S
C145 C146 1.384 . S
C145 C147 1.384 . S
C145 H170 0.931 . S
C146 C145 1.384 . S
C146 C149 1.382 . S
C147 C145 1.384 . S
C147 C148 1.381 . S
C147 H171 0.930 . S
C148 C147 1.381 . S
C148 C150 1.381 . S
C148 C151 1.487 . S
C149 C146 1.382 . S
C149 C150 1.387 . S
C149 H172 0.930 . S
C150 C148 1.381 . S
C150 C149 1.387 . S
C150 H173 0.931 . S
C151 C144 1.399 . S
C151 C148 1.487 . S
C151 N183 1.343 . S
C152 C153 1.384 . S
C152 C154 1.384 . S
C152 H174 0.931 . S
C153 C152 1.384 . S
C153 C156 1.382 . S
C154 C152 1.384 . S
C154 C155 1.381 . S
C154 H175 0.930 . S
C155 C154 1.381 . S
C155 C157 1.381 . S
C155 C158 1.487 . S
C156 C153 1.382 . S
C156 C157 1.387 . S
C156 H176 0.930 . S
C157 C155 1.381 . S
C157 C156 1.387 . S
C157 H177 0.931 . S
C158 C155 1.487 . S
C158 C165 1.399 . S
C158 N183 1.343 1_545 S
C159 C160 1.384 . S
C159 C161 1.384 . S
C159 H178 0.931 . S
C160 C159 1.384 . S
C160 C163 1.382 . S
C161 C159 1.384 . S
C161 C162 1.381 . S
C161 H179 0.930 . S
C162 C161 1.381 . S
C162 C164 1.381 . S
C162 C165 1.487 . S
C163 C160 1.382 . S
C163 C164 1.387 . S
C163 H180 0.930 . S
C164 C162 1.381 . S
C164 C163 1.387 . S
C164 H181 0.931 . S
C165 C158 1.399 . S
C165 C162 1.487 . S
C165 N182 1.343 . S
H166 C138 0.931 . S
H167 C140 0.930 . S
H168 C142 0.930 . S
H169 C143 0.931 . S
H170 C145 0.931 . S
H171 C147 0.930 . S
H172 C149 0.930 . S
H173 C150 0.931 . S
H174 C152 0.931 . S
H175 C154 0.930 . S
H176 C156 0.930 . S
H177 C157 0.931 . S
H178 C159 0.931 . S
H179 C161 0.930 . S
H180 C163 0.930 . S
H181 C164 0.931 . S
N182 C144 1.343 1_545 S
N182 C165 1.343 . S
N183 C151 1.343 . S
N183 C158 1.343 1_565 S
C184 C185 1.384 . S
C184 C186 1.384 . S
C184 H212 0.931 . S
C185 C184 1.384 . S
C185 C188 1.382 . S
C186 C184 1.384 . S
C186 C187 1.381 . S
C186 H213 0.930 . S
C187 C186 1.381 . S
C187 C189 1.381 . S
C187 C190 1.487 . S
C188 C185 1.382 . S
C188 C189 1.387 . S
C188 H214 0.930 . S
C189 C187 1.381 . S
C189 C188 1.387 . S
C189 H215 0.931 . S
C190 C187 1.487 . S
C190 C197 1.399 . S
C190 N228 1.338 1_455 S
C191 C192 1.384 . S
C191 C193 1.384 . S
C191 H216 0.931 . S
C192 C191 1.384 . S
C192 C195 1.388 . S
C193 C191 1.384 . S
C193 C194 1.381 . S
C193 H217 0.930 . S
C194 C193 1.381 . S
C194 C196 1.381 . S
C194 C197 1.487 . S
C195 C192 1.388 . S
C195 C196 1.407 . S
C195 H218 0.905 1_556 S
C196 C194 1.381 . S
C196 C195 1.407 . S
C196 H219 0.931 . S
C197 C190 1.399 . S
C197 C194 1.487 . S
C197 N229 1.355 . S
C198 C199 1.384 . S
C198 C200 1.384 . S
C198 H220 0.931 . S
C199 C198 1.384 . S
C199 C202 1.382 . S
C200 C198 1.384 . S
C200 C201 1.381 . S
C200 H221 0.930 . S
C201 C200 1.381 . S
C201 C203 1.381 . S
C201 C204 1.487 . S
C202 C199 1.382 . S
C202 C203 1.387 . S
C202 H222 0.930 . S
C203 C201 1.381 . S
C203 C202 1.387 . S
C203 H223 0.931 . S
C204 C201 1.487 . S
C204 C211 1.399 . S
C204 N229 1.332 1_655 S
C205 C206 1.384 . S
C205 C207 1.384 . S
C205 H224 0.931 . S
C206 C205 1.384 . S
C206 C209 1.382 . S
C207 C205 1.384 . S
C207 C208 1.381 . S
C207 H225 0.930 . S
C208 C207 1.381 . S
C208 C210 1.381 . S
C208 C211 1.487 . S
C209 C206 1.382 . S
C209 C210 1.387 . S
C209 H226 0.930 . S
C210 C208 1.381 . S
C210 C209 1.387 . S
C210 H227 0.931 . S
C211 C204 1.399 . S
C211 C208 1.487 . S
C211 N228 1.349 . S
H212 C184 0.931 . S
H213 C186 0.930 . S
H214 C188 0.930 . S
H215 C189 0.931 . S
H216 C191 0.931 . S
H217 C193 0.930 . S
H218 C195 0.905 1_554 S
H219 C196 0.931 . S
H220 C198 0.931 . S
H221 C200 0.930 . S
H222 C202 0.930 . S
H223 C203 0.931 . S
H224 C205 0.931 . S
H225 C207 0.930 . S
H226 C209 0.930 . S
H227 C210 0.931 . S
N228 C190 1.338 1_655 S
N228 C211 1.349 . S
N229 C197 1.355 . S
N229 C204 1.332 1_455 S
C230 C231 1.384 . S
C230 C232 1.384 . S
C230 H258 0.931 . S
C231 C230 1.384 . S
C231 C234 1.382 . S
C232 C230 1.384 . S
C232 C233 1.381 . S
C232 H259 0.930 . S
C233 C232 1.381 . S
C233 C235 1.381 . S
C233 C236 1.487 . S
C234 C231 1.382 . S
C234 C235 1.387 . S
C234 H260 0.930 . S
C235 C233 1.381 . S
C235 C234 1.387 . S
C235 H261 0.931 . S
C236 C233 1.487 . S
C236 C243 1.399 . S
C236 N274 1.343 . S
C237 C238 1.384 . S
C237 C239 1.384 . S
C237 H262 0.931 . S
C238 C237 1.384 . S
C238 C241 1.382 . S
C239 C237 1.384 . S
C239 C240 1.381 . S
C239 H263 0.930 . S
C240 C239 1.381 . S
C240 C242 1.381 . S
C240 C243 1.487 . S
C241 C238 1.382 . S
C241 C242 1.387 . S
C241 H264 0.930 . S
C242 C240 1.381 . S
C242 C241 1.387 . S
C242 H265 0.931 . S
C243 C236 1.399 . S
C243 C240 1.487 . S
C243 N275 1.343 . S
C244 C245 1.384 . S
C244 C246 1.384 . S
C244 H266 0.931 . S
C245 C244 1.384 . S
C245 C248 1.382 . S
C246 C244 1.384 . S
C246 C247 1.381 . S
C246 H267 0.930 . S
C247 C246 1.381 . S
C247 C249 1.381 . S
C247 C250 1.487 . S
C248 C245 1.382 . S
C248 C249 1.387 . S
C248 H268 0.930 . S
C249 C247 1.381 . S
C249 C248 1.387 . S
C249 H269 0.931 . S
C250 C247 1.487 . S
C250 C257 1.399 . S
C250 N275 1.343 . S
C251 C252 1.384 . S
C251 C253 1.384 . S
C251 H270 0.931 . S
C252 C251 1.384 . S
C252 C255 1.382 . S
C253 C251 1.384 . S
C253 C254 1.381 . S
C253 H271 0.930 . S
C254 C253 1.381 . S
C254 C256 1.381 . S
C254 C257 1.487 . S
C255 C252 1.382 . S
C255 C256 1.387 . S
C255 H272 0.930 . S
C256 C254 1.381 . S
C256 C255 1.387 . S
C256 H273 0.931 . S
C257 C250 1.399 . S
C257 C254 1.487 . S
C257 N274 1.343 . S
H258 C230 0.931 . S
H259 C232 0.930 . S
H260 C234 0.930 . S
H261 C235 0.931 . S
H262 C237 0.931 . S
H263 C239 0.930 . S
H264 C241 0.930 . S
H265 C242 0.931 . S
H266 C244 0.931 . S
H267 C246 0.930 . S
H268 C248 0.930 . S
H269 C249 0.931 . S
H270 C251 0.931 . S
H271 C253 0.930 . S
H272 C255 0.930 . S
H273 C256 0.931 . S
N274 C236 1.343 . S
N274 C257 1.343 . S
N275 C243 1.343 . S
N275 C250 1.343 . S
C276 C277 1.384 . S
C276 C278 1.384 . S
C276 H304 0.931 . S
C277 C276 1.384 . S
C277 C280 1.382 . S
C278 C276 1.384 . S
C278 C279 1.381 . S
C278 H305 0.930 . S
C279 C278 1.381 . S
C279 C281 1.385 . S
C279 C282 1.487 1_565 S
C280 C277 1.382 . S
C280 C281 1.394 . S
C280 H306 0.930 . S
C281 C279 1.385 . S
C281 C280 1.394 . S
C281 H307 0.920 1_565 S
C282 C279 1.487 1_545 S
C282 C289 1.399 . S
C282 N320 1.343 . S
C283 C284 1.384 . S
C283 C285 1.384 1_565 S
C283 H308 0.931 . S
C284 C283 1.384 . S
C284 C287 1.382 . S
C285 C283 1.384 1_545 S
C285 C286 1.381 . S
C285 H309 0.930 . S
C286 C285 1.381 . S
C286 C288 1.381 1_545 S
C286 C289 1.487 . S
C287 C284 1.382 . S
C287 C288 1.387 . S
C287 H310 0.930 . S
C288 C286 1.381 1_565 S
C288 C287 1.387 . S
C288 H311 0.931 . S
C289 C282 1.399 . S
C289 C286 1.487 . S
C289 N321 1.343 . S
C290 C291 1.384 . S
C290 C292 1.384 . S
C290 H312 0.931 . S
C291 C290 1.384 . S
C291 C294 1.382 . S
C292 C290 1.384 . S
C292 C293 1.381 . S
C292 H313 0.930 . S
C293 C292 1.381 . S
C293 C295 1.381 . S
C293 C296 1.487 . S
C294 C291 1.382 . S
C294 C295 1.387 . S
C294 H314 0.930 . S
C295 C293 1.381 . S
C295 C294 1.387 . S
C295 H315 0.931 . S
C296 C293 1.487 . S
C296 C303 1.399 . S
C296 N321 1.343 . S
C297 C298 1.384 . S
C297 C299 1.384 . S
C297 H316 0.931 . S
C298 C297 1.384 . S
C298 C301 1.382 . S
C299 C297 1.384 . S
C299 C300 1.381 . S
C299 H317 0.930 . S
C300 C299 1.381 . S
C300 C302 1.381 . S
C300 C303 1.487 . S
C301 C298 1.382 . S
C301 C302 1.387 . S
C301 H318 0.930 . S
C302 C300 1.381 . S
C302 C301 1.387 . S
C302 H319 0.931 . S
C303 C296 1.399 . S
C303 C300 1.487 . S
C303 N320 1.343 . S
H304 C276 0.931 . S
H305 C278 0.930 . S
H306 C280 0.930 . S
H307 C281 0.920 1_545 S
H308 C283 0.931 . S
H309 C285 0.930 . S
H310 C287 0.930 . S
H311 C288 0.931 . S
H312 C290 0.931 . S
H313 C292 0.930 . S
H314 C294 0.930 . S
H315 C295 0.931 . S
H316 C297 0.931 . S
H317 C299 0.930 . S
H318 C301 0.930 . S
H319 C302 0.931 . S
N320 C282 1.343 . S
N320 C303 1.343 . S
N321 C289 1.343 . S
N321 C296 1.343 . S
C322 C323 1.384 . S
C322 C324 1.384 . S
C322 H350 0.931 . S
C323 C322 1.384 . S
C323 C326 1.382 . S
C324 C322 1.384 . S
C324 C325 1.381 . S
C324 H351 0.930 . S
C325 C324 1.381 . S
C325 C327 1.381 . S
C325 C328 1.487 . S
C326 C323 1.382 . S
C326 C327 1.387 . S
C326 H352 0.930 . S
C327 C325 1.381 . S
C327 C326 1.387 . S
C327 H353 0.931 . S
C328 C325 1.487 . S
C328 C335 1.399 . S
C328 N366 1.343 . S
C329 C330 1.384 . S
C329 C331 1.384 . S
C329 H354 0.931 . S
C330 C329 1.384 . S
C330 C333 1.382 . S
C331 C329 1.384 . S
C331 C332 1.381 . S
C331 H355 0.930 . S
C332 C331 1.381 . S
C332 C334 1.381 . S
C332 C335 1.487 . S
C333 C330 1.382 . S
C333 C334 1.387 . S
C333 H356 0.930 . S
C334 C332 1.381 . S
C334 C333 1.387 . S
C334 H357 0.931 . S
C335 C328 1.399 . S
C335 C332 1.487 . S
C335 N367 1.343 . S
C336 C337 1.384 . S
C336 C338 1.384 . S
C336 H358 0.931 . S
C337 C336 1.384 . S
C337 C340 1.382 . S
C338 C336 1.384 . S
C338 C339 1.381 . S
C338 H359 0.930 . S
C339 C338 1.381 . S
C339 C341 1.381 . S
C339 C342 1.487 . S
C340 C337 1.382 . S
C340 C341 1.387 . S
C340 H360 0.930 . S
C341 C339 1.381 . S
C341 C340 1.387 . S
C341 H361 0.931 . S
C342 C339 1.487 . S
C342 C349 1.399 . S
C342 N367 1.343 . S
C343 C344 1.384 . S
C343 C345 1.384 . S
C343 H362 0.931 . S
C344 C343 1.384 . S
C344 C347 1.382 . S
C345 C343 1.384 . S
C345 C346 1.381 . S
C345 H363 0.930 . S
C346 C345 1.381 . S
C346 C348 1.381 . S
C346 C349 1.487 . S
C347 C344 1.382 . S
C347 C348 1.387 . S
C347 H364 0.930 . S
C348 C346 1.381 . S
C348 C347 1.387 . S
C348 H365 0.931 . S
C349 C342 1.399 . S
C349 C346 1.487 . S
C349 N366 1.343 . S
H350 C322 0.931 . S
H351 C324 0.930 . S
H352 C326 0.930 . S
H353 C327 0.931 . S
H354 C329 0.931 . S
H355 C331 0.930 . S
H356 C333 0.930 . S
H357 C334 0.931 . S
H358 C336 0.931 . S
H359 C338 0.930 . S
H360 C340 0.930 . S
H361 C341 0.931 . S
H362 C343 0.931 . S
H363 C345 0.930 . S
H364 C347 0.930 . S
H365 C348 0.931 . S
N366 C328 1.343 . S
N366 C349 1.343 . S
N367 C335 1.343 . S
N367 C342 1.343 . S
O368 Cd369 2.223 . S
O368 C376 1.315 . S
Cd369 O368 2.223 . S
Cd369 O372 2.297 . S
Cd369 O373 2.439 . S
Cd369 O379 2.240 . S
Cd370 O371 2.240 . S
Cd370 O378 2.223 . S
Cd370 O380 2.297 . S
Cd370 O381 2.439 . S
O371 Cd370 2.240 . S
O371 C376 1.279 . S
O372 Cd369 2.297 . S
O372 C374 1.247 . S
O373 Cd369 2.439 . S
O373 C374 1.208 . S
C374 O372 1.247 . S
C374 O373 1.208 . S
C375 O380 1.247 . S
C375 O381 1.208 . S
C376 O368 1.315 . S
C376 O371 1.279 . S
C377 O378 1.315 . S
C377 O379 1.279 . S
O378 Cd370 2.223 . S
O378 C377 1.315 . S
O379 Cd369 2.240 . S
O379 C377 1.279 . S
O380 Cd370 2.297 . S
O380 C375 1.247 . S
O381 Cd370 2.439 . S
O381 C375 1.208 . S
O382 Cd383 2.223 . S
O382 C390 1.315 . S
Cd383 O382 2.223 . S
Cd383 O386 2.297 . S
Cd383 O387 2.439 . S
Cd383 O393 2.240 . S
Cd384 O385 2.240 . S
Cd384 O392 2.223 . S
Cd384 O394 2.297 . S
Cd384 O395 2.439 . S
O385 Cd384 2.240 . S
O385 C390 1.279 . S
O386 Cd383 2.297 . S
O386 C388 1.247 . S
O387 Cd383 2.439 . S
O387 C388 1.208 . S
C388 O386 1.247 . S
C388 O387 1.208 . S
C389 O394 1.247 . S
C389 O395 1.208 . S
C390 O382 1.315 . S
C390 O385 1.279 . S
C391 O392 1.315 . S
C391 O393 1.279 . S
O392 Cd384 2.223 . S
O392 C391 1.315 . S
O393 Cd383 2.240 . S
O393 C391 1.279 . S
O394 Cd384 2.297 . S
O394 C389 1.247 . S
O395 Cd384 2.439 . S
O395 C389 1.208 . S
O396 Cd397 2.223 . S
O396 C404 1.315 . S
Cd397 O396 2.223 . S
Cd397 O400 2.297 . S
Cd397 O401 2.439 . S
Cd397 O407 2.240 . S
Cd398 O399 2.240 . S
Cd398 O406 2.223 . S
Cd398 O408 2.297 . S
Cd398 O409 2.439 . S
O399 Cd398 2.240 . S
O399 C404 1.279 . S
O400 Cd397 2.297 . S
O400 C402 1.247 . S
O401 Cd397 2.439 . S
O401 C402 1.208 . S
C402 O400 1.247 . S
C402 O401 1.208 . S
C403 O408 1.247 . S
C403 O409 1.208 . S
C404 O396 1.315 . S
C404 O399 1.279 . S
C405 O406 1.315 . S
C405 O407 1.279 . S
O406 Cd398 2.223 . S
O406 C405 1.315 . S
O407 Cd397 2.240 . S
O407 C405 1.279 . S
O408 Cd398 2.297 . S
O408 C403 1.247 . S
O409 Cd398 2.439 . S
O409 C403 1.208 . S
O410 Cd411 2.223 . S
O410 C418 1.315 . S
Cd411 O410 2.223 . S
Cd411 O414 2.297 . S
Cd411 O415 2.439 . S
Cd411 O421 2.240 . S
Cd412 O413 2.240 . S
Cd412 O420 2.223 . S
Cd412 O422 2.297 . S
Cd412 O423 2.439 . S
O413 Cd412 2.240 . S
O413 C418 1.279 . S
O414 Cd411 2.297 . S
O414 C416 1.247 . S
O415 Cd411 2.439 . S
O415 C416 1.208 . S
C416 O414 1.247 . S
C416 O415 1.208 . S
C417 O422 1.247 . S
C417 O423 1.208 . S
C418 O410 1.315 . S
C418 O413 1.279 . S
C419 O420 1.315 . S
C419 O421 1.279 . S
O420 Cd412 2.223 . S
O420 C419 1.315 . S
O421 Cd411 2.240 . S
O421 C419 1.279 . S
O422 Cd412 2.297 . S
O422 C417 1.247 . S
O423 Cd412 2.439 . S
O423 C417 1.208 . S
O424 Cd425 2.223 . S
O424 C432 1.315 . S
Cd425 O424 2.223 . S
Cd425 O428 2.297 . S
Cd425 O429 2.439 . S
Cd425 O435 2.240 . S
Cd426 O427 2.240 . S
Cd426 O434 2.223 . S
Cd426 O436 2.297 . S
Cd426 O437 2.439 . S
O427 Cd426 2.240 . S
O427 C432 1.279 . S
O428 Cd425 2.297 . S
O428 C430 1.247 . S
O429 Cd425 2.439 . S
O429 C430 1.208 . S
C430 O428 1.247 . S
C430 O429 1.208 . S
C431 O436 1.247 . S
C431 O437 1.208 . S
C432 O424 1.315 . S
C432 O427 1.279 . S
C433 O434 1.315 . S
C433 O435 1.279 . S
O434 Cd426 2.223 . S
O434 C433 1.315 . S
O435 Cd425 2.240 . S
O435 C433 1.279 . S
O436 Cd426 2.297 . S
O436 C431 1.247 . S
O437 Cd426 2.439 . S
O437 C431 1.208 . S
O438 Cd439 2.223 . S
O438 C446 1.315 . S
Cd439 O438 2.223 . S
Cd439 O442 2.297 . S
Cd439 O443 2.439 . S
Cd439 O449 2.240 . S
Cd440 O441 2.240 . S
Cd440 O448 2.223 . S
Cd440 O450 2.297 . S
Cd440 O451 2.439 . S
O441 Cd440 2.240 . S
O441 C446 1.279 . S
O442 Cd439 2.297 . S
O442 C444 1.247 . S
O443 Cd439 2.439 . S
O443 C444 1.208 . S
C444 O442 1.247 . S
C444 O443 1.208 . S
C445 O450 1.247 . S
C445 O451 1.208 . S
C446 O438 1.315 . S
C446 O441 1.279 . S
C447 O448 1.315 . S
C447 O449 1.279 . S
O448 Cd440 2.223 . S
O448 C447 1.315 . S
O449 Cd439 2.240 . S
O449 C447 1.279 . S
O450 Cd440 2.297 . S
O450 C445 1.247 . S
O451 Cd440 2.439 . S
O451 C445 1.208 . S
O452 Cd453 2.223 . S
O452 C460 1.315 . S
Cd453 O452 2.223 . S
Cd453 O456 2.297 . S
Cd453 O457 2.439 . S
Cd453 O463 2.240 1_554 S
Cd454 O455 2.239 1_556 S
Cd454 O462 2.223 1_556 S
Cd454 O464 2.298 . S
Cd454 O465 2.439 . S
O455 Cd454 2.239 1_554 S
O455 C460 1.279 . S
O456 Cd453 2.297 . S
O456 C458 1.247 . S
O457 Cd453 2.439 . S
O457 C458 1.208 . S
C458 O456 1.247 . S
C458 O457 1.208 . S
C459 O464 1.247 . S
C459 O465 1.208 . S
C460 O452 1.315 . S
C460 O455 1.279 . S
C461 O462 1.310 1_556 S
C461 O463 1.284 . S
O462 Cd454 2.223 1_554 S
O462 C461 1.310 1_554 S
O463 Cd453 2.240 1_556 S
O463 C461 1.284 . S
O464 Cd454 2.298 . S
O464 C459 1.247 . S
O465 Cd454 2.439 . S
O465 C459 1.208 . S
O466 Cd467 2.223 . S
O466 C474 1.315 . S
Cd467 O466 2.223 . S
Cd467 O470 2.297 . S
Cd467 O471 2.439 . S
Cd467 O477 2.240 . S
Cd468 O469 2.240 . S
Cd468 O476 2.223 . S
Cd468 O478 2.297 . S
Cd468 O479 2.439 . S
O469 Cd468 2.240 . S
O469 C474 1.279 . S
O470 Cd467 2.297 . S
O470 C472 1.247 . S
O471 Cd467 2.439 . S
O471 C472 1.208 . S
C472 O470 1.247 . S
C472 O471 1.208 . S
C473 O478 1.247 . S
C473 O479 1.208 . S
C474 O466 1.315 . S
C474 O469 1.279 . S
C475 O476 1.315 . S
C475 O477 1.279 . S
O476 Cd468 2.223 . S
O476 C475 1.315 . S
O477 Cd467 2.240 . S
O477 C475 1.279 . S
O478 Cd468 2.297 . S
O478 C473 1.247 . S
O479 Cd468 2.439 . S
O479 C473 1.208 . S
H480 C488 0.950 . S
H481 C493 0.950 . S
H482 C490 0.950 . S
H483 C492 0.950 . S
H484 C494 0.950 . S
H485 C496 0.950 . S
H486 C498 0.950 . S
H487 C499 0.950 . S
C488 H480 0.950 . S
C488 C489 1.386 . S
C488 C490 1.391 . S
C489 C488 1.386 . S
C489 C493 1.393 . S
C490 H482 0.950 . S
C490 C488 1.391 . S
C490 C491 1.400 . S
C491 C490 1.400 . S
C491 C492 1.398 . S
C491 C497 1.491 . S
C492 H483 0.950 . S
C492 C491 1.398 . S
C492 C493 1.391 . S
C493 H481 0.950 . S
C493 C489 1.393 . S
C493 C492 1.391 . S
C494 H484 0.950 . S
C494 C495 1.386 . S
C494 C496 1.391 . S
C495 C494 1.386 . S
C495 C499 1.393 . S
C496 H485 0.950 . S
C496 C494 1.391 . S
C496 C497 1.400 . S
C497 C491 1.491 . S
C497 C496 1.400 . S
C497 C498 1.398 . S
C498 H486 0.950 . S
C498 C497 1.398 . S
C498 C499 1.391 . S
C499 H487 0.950 . S
C499 C495 1.393 . S
C499 C498 1.391 . S
H500 C508 0.950 . S
H501 C513 0.950 . S
H502 C510 0.950 . S
H503 C512 0.950 . S
H504 C514 0.950 . S
H505 C516 0.950 . S
H506 C518 0.950 . S
H507 C519 0.950 . S
C508 H500 0.950 . S
C508 C509 1.386 . S
C508 C510 1.391 . S
C509 C508 1.386 . S
C509 C513 1.393 . S
C510 H502 0.950 . S
C510 C508 1.391 . S
C510 C511 1.400 . S
C511 C510 1.400 . S
C511 C512 1.398 . S
C511 C517 1.491 . S
C512 H503 0.950 . S
C512 C511 1.398 . S
C512 C513 1.391 . S
C513 H501 0.950 . S
C513 C509 1.393 . S
C513 C512 1.391 . S
C514 H504 0.950 . S
C514 C515 1.386 . S
C514 C516 1.391 . S
C515 C514 1.386 . S
C515 C519 1.393 . S
C516 H505 0.950 . S
C516 C514 1.391 . S
C516 C517 1.400 . S
C517 C511 1.491 . S
C517 C516 1.400 . S
C517 C518 1.398 . S
C518 H506 0.950 . S
C518 C517 1.398 . S
C518 C519 1.391 . S
C519 H507 0.950 . S
C519 C515 1.393 . S
C519 C518 1.391 . S
H520 C528 0.950 . S
H521 C533 0.950 . S
H522 C530 0.950 . S
H523 C532 0.950 . S
H524 C534 0.950 . S
H525 C536 0.950 . S
H526 C538 0.950 . S
H527 C539 0.950 . S
C528 H520 0.950 . S
C528 C529 1.386 . S
C528 C530 1.391 . S
C529 C528 1.386 . S
C529 C533 1.393 . S
C530 H522 0.950 . S
C530 C528 1.391 . S
C530 C531 1.400 . S
C531 C530 1.400 . S
C531 C532 1.398 . S
C531 C537 1.491 . S
C532 H523 0.950 . S
C532 C531 1.398 . S
C532 C533 1.391 . S
C533 H521 0.950 . S
C533 C529 1.393 . S
C533 C532 1.391 . S
C534 H524 0.950 . S
C534 C535 1.386 . S
C534 C536 1.391 . S
C535 C534 1.386 . S
C535 C539 1.393 . S
C536 H525 0.950 . S
C536 C534 1.391 . S
C536 C537 1.400 . S
C537 C531 1.491 . S
C537 C536 1.400 . S
C537 C538 1.398 . S
C538 H526 0.950 . S
C538 C537 1.398 . S
C538 C539 1.391 . S
C539 H527 0.950 . S
C539 C535 1.393 . S
C539 C538 1.391 . S
H540 C548 0.950 . S
H541 C553 0.950 . S
H542 C550 0.950 . S
H543 C552 0.950 . S
H544 C554 0.950 . S
H545 C556 0.950 . S
H546 C558 0.950 . S
H547 C559 0.950 . S
C548 H540 0.950 . S
C548 C549 1.386 . S
C548 C550 1.391 . S
C549 C548 1.386 . S
C549 C553 1.393 . S
C550 H542 0.950 . S
C550 C548 1.391 . S
C550 C551 1.400 . S
C551 C550 1.400 . S
C551 C552 1.398 . S
C551 C557 1.491 . S
C552 H543 0.950 . S
C552 C551 1.398 . S
C552 C553 1.391 . S
C553 H541 0.950 . S
C553 C549 1.393 . S
C553 C552 1.391 . S
C554 H544 0.950 . S
C554 C555 1.386 . S
C554 C556 1.391 . S
C555 C554 1.386 . S
C555 C559 1.393 . S
C556 H545 0.950 . S
C556 C554 1.391 . S
C556 C557 1.400 . S
C557 C551 1.491 . S
C557 C556 1.400 . S
C557 C558 1.398 . S
C558 H546 0.950 . S
C558 C557 1.398 . S
C558 C559 1.391 . S
C559 H547 0.950 . S
C559 C555 1.393 . S
C559 C558 1.391 . S
H560 C568 0.950 . S
H561 C573 0.950 . S
H562 C570 0.950 . S
H563 C572 0.950 1_556 S
H564 C574 0.950 . S
H565 C576 0.950 . S
H566 C578 0.950 . S
H567 C579 0.950 . S
C568 H560 0.950 . S
C568 C569 1.386 . S
C568 C570 1.391 . S
C569 C568 1.386 . S
C569 C573 1.393 1_554 S
C570 H562 0.950 . S
C570 C568 1.391 . S
C570 C571 1.400 . S
C571 C570 1.400 . S
C571 C572 1.398 . S
C571 C577 1.491 . S
C572 H563 0.950 1_554 S
C572 C571 1.398 . S
C572 C573 1.391 1_554 S
C573 H561 0.950 . S
C573 C569 1.393 1_556 S
C573 C572 1.391 1_556 S
C574 H564 0.950 . S
C574 C575 1.386 . S
C574 C576 1.391 . S
C575 C574 1.386 . S
C575 C579 1.393 . S
C576 H565 0.950 . S
C576 C574 1.391 . S
C576 C577 1.400 . S
C577 C571 1.491 . S
C577 C576 1.400 . S
C577 C578 1.398 . S
C578 H566 0.950 . S
C578 C577 1.398 . S
C578 C579 1.391 . S
C579 H567 0.950 . S
C579 C575 1.393 . S
C579 C578 1.391 . S
H580 C588 0.950 . S
H581 C593 0.950 . S
H582 C590 0.950 . S
H583 C592 0.950 . S
H584 C594 0.950 . S
H585 C596 0.950 . S
H586 C598 0.950 . S
H587 C599 0.950 . S
C588 H580 0.950 . S
C588 C589 1.386 . S
C588 C590 1.391 . S
C589 C588 1.386 . S
C589 C593 1.393 . S
C590 H582 0.950 . S
C590 C588 1.391 . S
C590 C591 1.400 . S
C591 C590 1.400 . S
C591 C592 1.398 . S
C591 C597 1.491 . S
C592 H583 0.950 . S
C592 C591 1.398 . S
C592 C593 1.391 . S
C593 H581 0.950 . S
C593 C589 1.393 . S
C593 C592 1.391 . S
C594 H584 0.950 . S
C594 C595 1.386 . S
C594 C596 1.391 . S
C595 C594 1.386 . S
C595 C599 1.393 . S
C596 H585 0.950 . S
C596 C594 1.391 . S
C596 C597 1.400 . S
C597 C591 1.491 . S
C597 C596 1.400 . S
C597 C598 1.398 . S
C598 H586 0.950 . S
C598 C597 1.398 . S
C598 C599 1.391 . S
C599 H587 0.950 . S
C599 C595 1.393 . S
C599 C598 1.391 . S
H600 C608 0.950 . S
H601 C613 0.950 . S
H602 C610 0.950 . S
H603 C612 0.950 . S
H604 C614 0.950 . S
H605 C616 0.950 . S
H606 C618 0.950 . S
H607 C619 0.950 . S
C608 H600 0.950 . S
C608 C609 1.386 . S
C608 C610 1.391 . S
C609 C608 1.386 . S
C609 C613 1.393 . S
C610 H602 0.950 . S
C610 C608 1.391 . S
C610 C611 1.400 . S
C611 C610 1.400 . S
C611 C612 1.398 . S
C611 C617 1.491 . S
C612 H603 0.950 . S
C612 C611 1.398 . S
C612 C613 1.391 . S
C613 H601 0.950 . S
C613 C609 1.393 . S
C613 C612 1.391 . S
C614 H604 0.950 . S
C614 C615 1.386 . S
C614 C616 1.391 . S
C615 C614 1.386 . S
C615 C619 1.393 . S
C616 H605 0.950 . S
C616 C614 1.391 . S
C616 C617 1.400 . S
C617 C611 1.491 . S
C617 C616 1.400 . S
C617 C618 1.398 . S
C618 H606 0.950 . S
C618 C617 1.398 . S
C618 C619 1.391 . S
C619 H607 0.950 . S
C619 C615 1.393 . S
C619 C618 1.391 . S
H620 C628 0.950 . S
H621 C633 0.950 . S
H622 C630 0.950 . S
H623 C632 0.950 . S
H624 C634 0.950 . S
H625 C636 0.950 . S
H626 C638 0.950 . S
H627 C639 0.950 . S
C628 H620 0.950 . S
C628 C629 1.386 . S
C628 C630 1.391 . S
C629 C628 1.386 . S
C629 C633 1.393 . S
C630 H622 0.950 . S
C630 C628 1.391 . S
C630 C631 1.400 . S
C631 C630 1.400 . S
C631 C632 1.398 . S
C631 C637 1.491 1_545 S
C632 H623 0.950 . S
C632 C631 1.398 . S
C632 C633 1.391 . S
C633 H621 0.950 . S
C633 C629 1.393 . S
C633 C632 1.391 . S
C634 H624 0.950 . S
C634 C635 1.386 . S
C634 C636 1.391 . S
C635 C634 1.386 . S
C635 C639 1.393 . S
C636 H625 0.950 . S
C636 C634 1.391 . S
C636 C637 1.400 . S
C637 C631 1.491 1_565 S
C637 C636 1.400 . S
C637 C638 1.398 . S
C638 H626 0.950 . S
C638 C637 1.398 . S
C638 C639 1.391 . S
C639 H627 0.950 . S
C639 C635 1.393 . S
C639 C638 1.391 . S
H640 C648 0.950 . S
H641 C653 0.950 . S
H642 C650 0.950 . S
H643 C652 0.950 . S
H644 C654 0.950 . S
H645 C656 0.950 . S
H646 C658 0.950 . S
H647 C659 0.950 . S
C648 H640 0.950 . S
C648 C649 1.386 . S
C648 C650 1.391 . S
C649 C648 1.386 . S
C649 C653 1.393 . S
C650 H642 0.950 . S
C650 C648 1.391 . S
C650 C651 1.400 . S
C651 C650 1.400 . S
C651 C652 1.398 . S
C651 C657 1.491 . S
C652 H643 0.950 . S
C652 C651 1.398 . S
C652 C653 1.391 . S
C653 H641 0.950 . S
C653 C649 1.393 . S
C653 C652 1.391 . S
C654 H644 0.950 . S
C654 C655 1.386 . S
C654 C656 1.391 . S
C655 C654 1.386 . S
C655 C659 1.393 . S
C656 H645 0.950 . S
C656 C654 1.391 . S
C656 C657 1.400 . S
C657 C651 1.491 . S
C657 C656 1.400 . S
C657 C658 1.398 . S
C658 H646 0.950 . S
C658 C657 1.398 . S
C658 C659 1.391 . S
C659 H647 0.950 . S
C659 C655 1.393 . S
C659 C658 1.391 . S
H660 C668 0.950 . S
H661 C673 0.950 . S
H662 C670 0.950 . S
H663 C672 0.950 . S
H664 C674 0.950 . S
H665 C676 0.950 . S
H666 C678 0.950 . S
H667 C679 0.950 1_556 S
C668 H660 0.950 . S
C668 C669 1.386 . S
C668 C670 1.391 . S
C669 C668 1.386 . S
C669 C673 1.393 . S
C670 H662 0.950 . S
C670 C668 1.391 . S
C670 C671 1.400 . S
C671 C670 1.400 . S
C671 C672 1.398 . S
C671 C677 1.491 . S
C672 H663 0.950 . S
C672 C671 1.398 . S
C672 C673 1.391 . S
C673 H661 0.950 . S
C673 C669 1.393 . S
C673 C672 1.391 . S
C674 H664 0.950 . S
C674 C675 1.386 . S
C674 C676 1.391 . S
C675 C674 1.386 . S
C675 C679 1.393 . S
C676 H665 0.950 . S
C676 C674 1.391 . S
C676 C677 1.400 . S
C677 C671 1.491 . S
C677 C676 1.400 . S
C677 C678 1.398 . S
C678 H666 0.950 . S
C678 C677 1.398 . S
C678 C679 1.391 . S
C679 H667 0.950 1_554 S
C679 C675 1.393 . S
C679 C678 1.391 . S
H680 C688 0.950 . S
H681 C693 0.950 . S
H682 C690 0.950 . S
H683 C692 0.950 . S
H684 C694 0.950 . S
H685 C696 0.950 . S
H686 C698 0.950 . S
H687 C699 0.950 . S
C688 H680 0.950 . S
C688 C689 1.386 . S
C688 C690 1.391 1_455 S
C689 C688 1.386 . S
C689 C693 1.393 1_455 S
C690 H682 0.950 . S
C690 C688 1.391 1_655 S
C690 C691 1.400 . S
C691 C690 1.400 . S
C691 C692 1.398 . S
C691 C697 1.491 . S
C692 H683 0.950 . S
C692 C691 1.398 . S
C692 C693 1.391 . S
C693 H681 0.950 . S
C693 C689 1.393 1_655 S
C693 C692 1.391 . S
C694 H684 0.950 . S
C694 C695 1.386 . S
C694 C696 1.391 . S
C695 C694 1.386 . S
C695 C699 1.393 . S
C696 H685 0.950 . S
C696 C694 1.391 . S
C696 C697 1.400 . S
C697 C691 1.491 . S
C697 C696 1.400 . S
C697 C698 1.398 . S
C698 H686 0.950 . S
C698 C697 1.398 . S
C698 C699 1.391 . S
C699 H687 0.950 . S
C699 C695 1.393 . S
C699 C698 1.391 . S
H700 C708 0.950 . S
H701 C713 0.950 . S
H702 C710 0.950 . S
H703 C712 0.950 1_455 S
H704 C714 0.950 . S
H705 C716 0.950 . S
H706 C718 0.950 . S
H707 C719 0.950 . S
C708 H700 0.950 . S
C708 C709 1.386 . S
C708 C710 1.391 . S
C709 C708 1.386 . S
C709 C713 1.393 1_655 S
C710 H702 0.950 . S
C710 C708 1.391 . S
C710 C711 1.400 . S
C711 C710 1.400 . S
C711 C712 1.398 . S
C711 C717 1.491 . S
C712 H703 0.950 1_655 S
C712 C711 1.398 . S
C712 C713 1.391 1_655 S
C713 H701 0.950 . S
C713 C709 1.393 1_455 S
C713 C712 1.391 1_455 S
C714 H704 0.950 . S
C714 C715 1.386 . S
C714 C716 1.391 . S
C715 C714 1.386 . S
C715 C719 1.393 . S
C716 H705 0.950 . S
C716 C714 1.391 . S
C716 C717 1.400 . S
C717 C711 1.491 . S
C717 C716 1.400 . S
C717 C718 1.398 . S
C718 H706 0.950 . S
C718 C717 1.398 . S
C718 C719 1.391 . S
C719 H707 0.950 . S
C719 C715 1.393 . S
C719 C718 1.391 . S
H720 C728 0.950 . S
H721 C733 0.950 . S
H722 C730 0.950 . S
H723 C732 0.950 . S
H724 C734 0.950 . S
H725 C736 0.950 . S
H726 C738 0.950 . S
H727 C739 0.950 . S
C728 H720 0.950 . S
C728 C729 1.386 . S
C728 C730 1.391 . S
C729 C728 1.386 . S
C729 C733 1.393 . S
C730 H722 0.950 . S
C730 C728 1.391 . S
C730 C731 1.400 . S
C731 C730 1.400 . S
C731 C732 1.398 . S
C731 C737 1.491 . S
C732 H723 0.950 . S
C732 C731 1.398 . S
C732 C733 1.391 . S
C733 H721 0.950 . S
C733 C729 1.393 . S
C733 C732 1.391 . S
C734 H724 0.950 . S
C734 C735 1.386 . S
C734 C736 1.391 . S
C735 C734 1.386 . S
C735 C739 1.393 . S
C736 H725 0.950 . S
C736 C734 1.391 . S
C736 C737 1.400 . S
C737 C731 1.491 . S
C737 C736 1.400 . S
C737 C738 1.398 . S
C738 H726 0.950 . S
C738 C737 1.398 . S
C738 C739 1.391 . S
C739 H727 0.950 . S
C739 C735 1.393 . S
C739 C738 1.391 . S
H740 C748 0.950 . S
H741 C753 0.950 . S
H742 C750 0.950 . S
H743 C752 0.950 . S
H744 C754 0.950 . S
H745 C756 0.950 . S
H746 C758 0.950 . S
H747 C759 0.950 . S
C748 H740 0.950 . S
C748 C749 1.386 . S
C748 C750 1.391 1_455 S
C749 C748 1.386 . S
C749 C753 1.393 1_455 S
C750 H742 0.950 . S
C750 C748 1.391 1_655 S
C750 C751 1.400 . S
C751 C750 1.400 . S
C751 C752 1.398 . S
C751 C757 1.491 . S
C752 H743 0.950 . S
C752 C751 1.398 . S
C752 C753 1.391 . S
C753 H741 0.950 . S
C753 C749 1.393 1_655 S
C753 C752 1.391 . S
C754 H744 0.950 . S
C754 C755 1.386 . S
C754 C756 1.391 . S
C755 C754 1.386 . S
C755 C759 1.393 . S
C756 H745 0.950 . S
C756 C754 1.391 . S
C756 C757 1.400 . S
C757 C751 1.491 . S
C757 C756 1.400 . S
C757 C758 1.398 . S
C758 H746 0.950 . S
C758 C757 1.398 . S
C758 C759 1.391 . S
C759 H747 0.950 . S
C759 C755 1.393 . S
C759 C758 1.391 . S
H760 C768 0.950 . S
H761 C773 0.950 . S
H762 C770 0.950 . S
H763 C772 0.950 . S
H764 C774 0.950 . S
H765 C776 0.950 . S
H766 C778 0.950 . S
H767 C779 0.950 . S
C768 H760 0.950 . S
C768 C769 1.386 1_554 S
C768 C770 1.391 . S
C769 C768 1.386 1_556 S
C769 C773 1.393 . S
C770 H762 0.950 . S
C770 C768 1.391 . S
C770 C771 1.400 1_554 S
C771 C770 1.400 1_556 S
C771 C772 1.398 . S
C771 C777 1.491 . S
C772 H763 0.950 . S
C772 C771 1.398 . S
C772 C773 1.391 . S
C773 H761 0.950 . S
C773 C769 1.393 . S
C773 C772 1.391 . S
C774 H764 0.950 . S
C774 C775 1.386 . S
C774 C776 1.391 . S
C775 C774 1.386 . S
C775 C779 1.393 1_556 S
C776 H765 0.950 . S
C776 C774 1.391 . S
C776 C777 1.400 . S
C777 C771 1.491 . S
C777 C776 1.400 . S
C777 C778 1.398 1_556 S
C778 H766 0.950 . S
C778 C777 1.398 1_554 S
C778 C779 1.391 . S
C779 H767 0.950 . S
C779 C775 1.393 1_554 S
C779 C778 1.391 . S
H780 C788 0.950 . S
H781 C793 0.950 . S
H782 C790 0.950 . S
H783 C792 0.950 . S
H784 C794 0.950 . S
H785 C796 0.950 . S
H786 C798 0.950 . S
H787 C799 0.950 . S
C788 H780 0.950 . S
C788 C789 1.386 . S
C788 C790 1.391 . S
C789 C788 1.386 . S
C789 C793 1.393 . S
C790 H782 0.950 . S
C790 C788 1.391 . S
C790 C791 1.400 . S
C791 C790 1.400 . S
C791 C792 1.398 . S
C791 C797 1.491 . S
C792 H783 0.950 . S
C792 C791 1.398 . S
C792 C793 1.391 . S
C793 H781 0.950 . S
C793 C789 1.393 . S
C793 C792 1.391 . S
C794 H784 0.950 . S
C794 C795 1.386 . S
C794 C796 1.391 . S
C795 C794 1.386 . S
C795 C799 1.393 . S
C796 H785 0.950 . S
C796 C794 1.391 . S
C796 C797 1.400 . S
C797 C791 1.491 . S
C797 C796 1.400 . S
C797 C798 1.398 . S
C798 H786 0.950 . S
C798 C797 1.398 . S
C798 C799 1.391 . S
C799 H787 0.950 . S
C799 C795 1.393 . S
C799 C798 1.391 . S
H800 C808 0.950 . S
H801 C813 0.950 1_545 S
H802 C810 0.950 . S
H803 C812 0.950 . S
H804 C814 0.950 . S
H805 C816 0.950 . S
H806 C818 0.950 . S
H807 C819 0.950 . S
C808 H800 0.950 . S
C808 C809 1.386 . S
C808 C810 1.391 . S
C809 C808 1.386 . S
C809 C813 1.393 . S
C810 H802 0.950 . S
C810 C808 1.391 . S
C810 C811 1.400 . S
C811 C810 1.400 . S
C811 C812 1.398 . S
C811 C817 1.491 . S
C812 H803 0.950 . S
C812 C811 1.398 . S
C812 C813 1.391 . S
C813 H801 0.950 1_565 S
C813 C809 1.393 . S
C813 C812 1.391 . S
C814 H804 0.950 . S
C814 C815 1.386 . S
C814 C816 1.391 . S
C815 C814 1.386 . S
C815 C819 1.393 . S
C816 H805 0.950 . S
C816 C814 1.391 . S
C816 C817 1.400 . S
C817 C811 1.491 . S
C817 C816 1.400 . S
C817 C818 1.398 . S
C818 H806 0.950 . S
C818 C817 1.398 . S
C818 C819 1.391 . S
C819 H807 0.950 . S
C819 C815 1.393 . S
C819 C818 1.391 . S
H820 C828 0.950 . S
H821 C833 0.950 . S
H822 C830 0.950 . S
H823 C832 0.950 . S
H824 C834 0.950 . S
H825 C836 0.950 . S
H826 C838 0.950 . S
H827 C839 0.950 . S
C828 H820 0.950 . S
C828 C829 1.386 . S
C828 C830 1.391 . S
C829 C828 1.386 . S
C829 C833 1.393 . S
C830 H822 0.950 . S
C830 C828 1.391 . S
C830 C831 1.400 . S
C831 C830 1.400 . S
C831 C832 1.398 . S
C831 C837 1.491 . S
C832 H823 0.950 . S
C832 C831 1.398 . S
C832 C833 1.391 . S
C833 H821 0.950 . S
C833 C829 1.393 . S
C833 C832 1.391 . S
C834 H824 0.950 . S
C834 C835 1.386 . S
C834 C836 1.391 . S
C835 C834 1.386 . S
C835 C839 1.393 . S
C836 H825 0.950 . S
C836 C834 1.391 . S
C836 C837 1.400 . S
C837 C831 1.491 . S
C837 C836 1.400 . S
C837 C838 1.398 . S
C838 H826 0.950 . S
C838 C837 1.398 . S
C838 C839 1.391 . S
C839 H827 0.950 . S
C839 C835 1.393 . S
C839 C838 1.391 . S
H840 C848 0.950 . S
H841 C853 0.950 . S
H842 C850 0.950 . S
H843 C852 0.950 . S
H844 C854 0.950 . S
H845 C856 0.950 . S
H846 C858 0.950 . S
H847 C859 0.950 . S
C848 H840 0.950 . S
C848 C849 1.386 . S
C848 C850 1.391 . S
C849 C848 1.386 . S
C849 C853 1.393 . S
C850 H842 0.950 . S
C850 C848 1.391 . S
C850 C851 1.400 . S
C851 C850 1.400 . S
C851 C852 1.398 . S
C851 C857 1.491 . S
C852 H843 0.950 . S
C852 C851 1.398 . S
C852 C853 1.391 . S
C853 H841 0.950 . S
C853 C849 1.393 . S
C853 C852 1.391 . S
C854 H844 0.950 . S
C854 C855 1.386 . S
C854 C856 1.391 . S
C855 C854 1.386 . S
C855 C859 1.393 . S
C856 H845 0.950 . S
C856 C854 1.391 . S
C856 C857 1.400 . S
C857 C851 1.491 . S
C857 C856 1.400 . S
C857 C858 1.398 . S
C858 H846 0.950 . S
C858 C857 1.398 . S
C858 C859 1.391 . S
C859 H847 0.950 . S
C859 C855 1.393 . S
C859 C858 1.391 . S
H860 C868 0.950 . S
H861 C873 0.950 . S
H862 C870 0.950 . S
H863 C872 0.950 . S
H864 C874 0.950 . S
H865 C876 0.950 . S
H866 C878 0.950 . S
H867 C879 0.950 . S
C868 H860 0.950 . S
C868 C869 1.386 . S
C868 C870 1.391 . S
C869 C868 1.386 . S
C869 C873 1.393 . S
C870 H862 0.950 . S
C870 C868 1.391 . S
C870 C871 1.400 . S
C871 C870 1.400 . S
C871 C872 1.398 . S
C871 C877 1.491 . S
C872 H863 0.950 . S
C872 C871 1.398 . S
C872 C873 1.391 . S
C873 H861 0.950 . S
C873 C869 1.393 . S
C873 C872 1.391 . S
C874 H864 0.950 . S
C874 C875 1.386 . S
C874 C876 1.391 . S
C875 C874 1.386 . S
C875 C879 1.393 . S
C876 H865 0.950 . S
C876 C874 1.391 . S
C876 C877 1.400 . S
C877 C871 1.491 . S
C877 C876 1.400 . S
C877 C878 1.398 . S
C878 H866 0.950 . S
C878 C877 1.398 . S
C878 C879 1.391 . S
C879 H867 0.950 . S
C879 C875 1.393 . S
C879 C878 1.391 . S
H880 C888 0.950 . S
H881 C893 0.950 . S
H882 C890 0.950 . S
H883 C892 0.950 . S
H884 C894 0.950 . S
H885 C896 0.950 . S
H886 C898 0.950 . S
H887 C899 0.950 . S
C888 H880 0.950 . S
C888 C889 1.386 . S
C888 C890 1.391 . S
C889 C888 1.386 . S
C889 C893 1.393 . S
C890 H882 0.950 . S
C890 C888 1.391 . S
C890 C891 1.400 . S
C891 C890 1.400 . S
C891 C892 1.398 . S
C891 C897 1.491 . S
C892 H883 0.950 . S
C892 C891 1.398 . S
C892 C893 1.391 . S
C893 H881 0.950 . S
C893 C889 1.393 . S
C893 C892 1.391 . S
C894 H884 0.950 . S
C894 C895 1.386 . S
C894 C896 1.391 . S
C895 C894 1.386 . S
C895 C899 1.393 . S
C896 H885 0.950 . S
C896 C894 1.391 . S
C896 C897 1.400 . S
C897 C891 1.491 . S
C897 C896 1.400 . S
C897 C898 1.398 . S
C898 H886 0.950 . S
C898 C897 1.398 . S
C898 C899 1.391 . S
C899 H887 0.950 . S
C899 C895 1.393 . S
C899 C898 1.391 . S
H900 C908 0.950 . S
H901 C913 0.950 . S
H902 C910 0.950 . S
H903 C912 0.950 . S
H904 C914 0.950 . S
H905 C916 0.950 . S
H906 C918 0.950 . S
H907 C919 0.950 . S
C908 H900 0.950 . S
C908 C909 1.386 . S
C908 C910 1.391 . S
C909 C908 1.386 . S
C909 C913 1.393 . S
C910 H902 0.950 . S
C910 C908 1.391 . S
C910 C911 1.400 . S
C911 C910 1.400 . S
C911 C912 1.398 . S
C911 C917 1.491 . S
C912 H903 0.950 . S
C912 C911 1.398 . S
C912 C913 1.391 . S
C913 H901 0.950 . S
C913 C909 1.393 . S
C913 C912 1.391 . S
C914 H904 0.950 . S
C914 C915 1.386 . S
C914 C916 1.391 . S
C915 C914 1.386 . S
C915 C919 1.393 . S
C916 H905 0.950 . S
C916 C914 1.391 . S
C916 C917 1.400 . S
C917 C911 1.491 . S
C917 C916 1.400 . S
C917 C918 1.398 . S
C918 H906 0.950 . S
C918 C917 1.398 . S
C918 C919 1.391 . S
C919 H907 0.950 . S
C919 C915 1.393 . S
C919 C918 1.391 . S
H920 C928 0.950 . S
H921 C933 0.950 . S
H922 C930 0.950 . S
H923 C932 0.950 . S
H924 C934 0.950 . S
H925 C936 0.950 . S
H926 C938 0.950 . S
H927 C939 0.950 . S
C928 H920 0.950 . S
C928 C929 1.386 . S
C928 C930 1.391 . S
C929 C928 1.386 . S
C929 C933 1.393 . S
C930 H922 0.950 . S
C930 C928 1.391 . S
C930 C931 1.400 . S
C931 C930 1.400 . S
C931 C932 1.398 . S
C931 C937 1.491 . S
C932 H923 0.950 . S
C932 C931 1.398 . S
C932 C933 1.391 . S
C933 H921 0.950 . S
C933 C929 1.393 . S
C933 C932 1.391 . S
C934 H924 0.950 . S
C934 C935 1.386 . S
C934 C936 1.391 . S
C935 C934 1.386 . S
C935 C939 1.393 . S
C936 H925 0.950 . S
C936 C934 1.391 . S
C936 C937 1.400 . S
C937 C931 1.491 . S
C937 C936 1.400 . S
C937 C938 1.398 . S
C938 H926 0.950 . S
C938 C937 1.398 . S
C938 C939 1.391 . S
C939 H927 0.950 . S
C939 C935 1.393 . S
C939 C938 1.391 . S
H940 C948 0.950 . S
H941 C953 0.950 . S
H942 C950 0.950 . S
H943 C952 0.950 . S
H944 C954 0.950 . S
H945 C956 0.953 . S
H946 C958 0.950 . S
H947 C959 0.950 . S
C948 H940 0.950 . S
C948 C949 1.386 . S
C948 C950 1.391 . S
C949 C948 1.386 . S
C949 C953 1.393 . S
C950 H942 0.950 . S
C950 C948 1.391 . S
C950 C951 1.400 . S
C951 C950 1.400 . S
C951 C952 1.398 . S
C951 C957 1.491 . S
C952 H943 0.950 . S
C952 C951 1.398 . S
C952 C953 1.391 . S
C953 H941 0.950 . S
C953 C949 1.393 . S
C953 C952 1.391 . S
C954 H944 0.950 . S
C954 C955 1.386 . S
C954 C956 1.391 . S
C955 C954 1.386 . S
C955 C959 1.393 . S
C956 H945 0.953 . S
C956 C954 1.391 . S
C956 C957 1.400 1_565 S
C957 C951 1.491 . S
C957 C956 1.400 1_545 S
C957 C958 1.398 . S
C958 H946 0.950 . S
C958 C957 1.398 . S
C958 C959 1.391 1_545 S
C959 H947 0.950 . S
C959 C955 1.393 . S
C959 C958 1.391 1_565 S
H960 C968 0.950 . S
H961 C973 0.950 . S
H962 C970 0.950 . S
H963 C972 0.950 . S
H964 C974 0.950 . S
H965 C976 0.950 . S
H966 C978 0.950 . S
H967 C979 0.950 . S
C968 H960 0.950 . S
C968 C969 1.386 . S
C968 C970 1.391 . S
C969 C968 1.386 . S
C969 C973 1.393 . S
C970 H962 0.950 . S
C970 C968 1.391 . S
C970 C971 1.400 . S
C971 C970 1.400 . S
C971 C972 1.398 . S
C971 C977 1.491 . S
C972 H963 0.950 . S
C972 C971 1.398 . S
C972 C973 1.391 . S
C973 H961 0.950 . S
C973 C969 1.393 . S
C973 C972 1.391 . S
C974 H964 0.950 . S
C974 C975 1.386 . S
C974 C976 1.391 . S
C975 C974 1.386 . S
C975 C979 1.393 . S
C976 H965 0.950 . S
C976 C974 1.391 . S
C976 C977 1.400 . S
C977 C971 1.491 . S
C977 C976 1.400 . S
C977 C978 1.398 . S
C978 H966 0.950 . S
C978 C977 1.398 . S
C978 C979 1.391 . S
C979 H967 0.950 . S
C979 C975 1.393 . S
C979 C978 1.391 . S
H980 C988 0.950 . S
H981 C993 0.950 . S
H982 C990 0.950 . S
H983 C992 0.950 . S
H984 C994 0.950 . S
H985 C996 0.950 . S
H986 C998 0.950 . S
H987 C999 0.950 . S
C988 H980 0.950 . S
C988 C989 1.386 . S
C988 C990 1.391 . S
C989 C988 1.386 . S
C989 C993 1.393 . S
C990 H982 0.950 . S
C990 C988 1.391 . S
C990 C991 1.400 . S
C991 C990 1.400 . S
C991 C992 1.398 . S
C991 C997 1.491 . S
C992 H983 0.950 . S
C992 C991 1.398 . S
C992 C993 1.391 . S
C993 H981 0.950 . S
C993 C989 1.393 . S
C993 C992 1.391 . S
C994 H984 0.950 . S
C994 C995 1.386 . S
C994 C996 1.391 . S
C995 C994 1.386 . S
C995 C999 1.393 . S
C996 H985 0.950 . S
C996 C994 1.391 . S
C996 C997 1.400 . S
C997 C991 1.491 . S
C997 C996 1.400 . S
C997 C998 1.398 . S
C998 H986 0.950 . S
C998 C997 1.398 . S
C998 C999 1.391 . S
C999 H987 0.950 . S
C999 C995 1.393 . S
C999 C998 1.391 . S
H1000 C1008 0.950 . S
H1001 C1013 0.950 . S
H1002 C1010 0.950 . S
H1003 C1012 0.950 . S
H1004 C1014 0.954 . S
H1005 C1016 0.950 . S
H1006 C1018 0.950 . S
H1007 C1019 0.950 . S
C1008 H1000 0.950 . S
C1008 C1009 1.386 1_655 S
C1008 C1010 1.391 . S
C1009 C1008 1.386 1_455 S
C1009 C1013 1.393 . S
C1010 H1002 0.950 . S
C1010 C1008 1.391 . S
C1010 C1011 1.405 . S
C1011 C1010 1.405 . S
C1011 C1012 1.389 1_655 S
C1011 C1017 1.496 . S
C1012 H1003 0.950 . S
C1012 C1011 1.389 1_455 S
C1012 C1013 1.391 . S
C1013 H1001 0.950 . S
C1013 C1009 1.393 . S
C1013 C1012 1.391 . S
C1014 H1004 0.954 . S
C1014 C1015 1.386 . S
C1014 C1016 1.391 1_655 S
C1015 C1014 1.386 . S
C1015 C1019 1.393 . S
C1016 H1005 0.950 . S
C1016 C1014 1.391 1_455 S
C1016 C1017 1.400 1_455 S
C1017 C1011 1.496 . S
C1017 C1016 1.400 1_655 S
C1017 C1018 1.398 . S
C1018 H1006 0.950 . S
C1018 C1017 1.398 . S
C1018 C1019 1.391 . S
C1019 H1007 0.950 . S
C1019 C1015 1.393 . S
C1019 C1018 1.391 . S
H1020 C1028 0.950 . S
H1021 C1033 0.950 . S
H1022 C1030 0.950 . S
H1023 C1032 0.950 . S
H1024 C1034 0.950 . S
H1025 C1036 0.950 . S
H1026 C1038 0.950 . S
H1027 C1039 0.950 . S
C1028 H1020 0.950 . S
C1028 C1029 1.386 . S
C1028 C1030 1.391 . S
C1029 C1028 1.386 . S
C1029 C1033 1.393 . S
C1030 H1022 0.950 . S
C1030 C1028 1.391 . S
C1030 C1031 1.400 . S
C1031 C1030 1.400 . S
C1031 C1032 1.398 . S
C1031 C1037 1.491 . S
C1032 H1023 0.950 . S
C1032 C1031 1.398 . S
C1032 C1033 1.391 . S
C1033 H1021 0.950 . S
C1033 C1029 1.393 . S
C1033 C1032 1.391 . S
C1034 H1024 0.950 . S
C1034 C1035 1.386 . S
C1034 C1036 1.391 . S
C1035 C1034 1.386 . S
C1035 C1039 1.393 . S
C1036 H1025 0.950 . S
C1036 C1034 1.391 . S
C1036 C1037 1.400 . S
C1037 C1031 1.491 . S
C1037 C1036 1.400 . S
C1037 C1038 1.398 . S
C1038 H1026 0.950 . S
C1038 C1037 1.398 . S
C1038 C1039 1.391 . S
C1039 H1027 0.950 . S
C1039 C1035 1.393 . S
C1039 C1038 1.391 . S
H1040 C1048 0.950 . S
H1041 C1053 0.950 . S
H1042 C1050 0.950 . S
H1043 C1052 0.950 . S
H1044 C1054 0.950 . S
H1045 C1056 0.950 . S
H1046 C1058 0.950 . S
H1047 C1059 0.950 . S
C1048 H1040 0.950 . S
C1048 C1049 1.386 . S
C1048 C1050 1.391 . S
C1049 C1048 1.386 . S
C1049 C1053 1.393 . S
C1050 H1042 0.950 . S
C1050 C1048 1.391 . S
C1050 C1051 1.400 . S
C1051 C1050 1.400 . S
C1051 C1052 1.398 . S
C1051 C1057 1.491 . S
C1052 H1043 0.950 . S
C1052 C1051 1.398 . S
C1052 C1053 1.391 . S
C1053 H1041 0.950 . S
C1053 C1049 1.393 . S
C1053 C1052 1.391 . S
C1054 H1044 0.950 . S
C1054 C1055 1.386 . S
C1054 C1056 1.391 . S
C1055 C1054 1.386 . S
C1055 C1059 1.393 . S
C1056 H1045 0.950 . S
C1056 C1054 1.391 . S
C1056 C1057 1.400 . S
C1057 C1051 1.491 . S
C1057 C1056 1.400 . S
C1057 C1058 1.398 . S
C1058 H1046 0.950 . S
C1058 C1057 1.398 . S
C1058 C1059 1.391 . S
C1059 H1047 0.950 . S
C1059 C1055 1.393 . S
C1059 C1058 1.391 . S
H1060 C1068 0.950 . S
H1061 C1073 0.950 1_655 S
H1062 C1070 0.950 . S
H1063 C1072 0.950 . S
H1064 C1074 0.950 . S
H1065 C1076 0.950 . S
H1066 C1078 0.950 1_455 S
H1067 C1079 0.950 . S
C1068 H1060 0.950 . S
C1068 C1069 1.386 . S
C1068 C1070 1.391 . S
C1069 C1068 1.386 . S
C1069 C1073 1.393 . S
C1070 H1062 0.950 . S
C1070 C1068 1.391 . S
C1070 C1071 1.429 . S
C1071 C1070 1.429 . S
C1071 C1072 1.385 1_455 S
C1071 C1077 1.476 1_455 S
C1072 H1063 0.950 . S
C1072 C1071 1.385 1_655 S
C1072 C1073 1.391 1_655 S
C1073 H1061 0.950 1_455 S
C1073 C1069 1.393 . S
C1073 C1072 1.391 1_455 S
C1074 H1064 0.950 . S
C1074 C1075 1.386 . S
C1074 C1076 1.391 . S
C1075 C1074 1.386 . S
C1075 C1079 1.393 . S
C1076 H1065 0.950 . S
C1076 C1074 1.391 . S
C1076 C1077 1.400 . S
C1077 C1071 1.476 1_655 S
C1077 C1076 1.400 . S
C1077 C1078 1.398 . S
C1078 H1066 0.950 1_655 S
C1078 C1077 1.398 . S
C1078 C1079 1.391 . S
C1079 H1067 0.950 . S
C1079 C1075 1.393 . S
C1079 C1078 1.391 . S
H1080 C1088 0.950 . S
H1081 C1093 0.950 . S
H1082 C1090 0.950 . S
H1083 C1092 0.950 . S
H1084 C1094 0.950 . S
H1085 C1096 0.950 . S
H1086 C1098 0.950 . S
H1087 C1099 0.950 . S
C1088 H1080 0.950 . S
C1088 C1089 1.386 . S
C1088 C1090 1.391 . S
C1089 C1088 1.386 . S
C1089 C1093 1.393 . S
C1090 H1082 0.950 . S
C1090 C1088 1.391 . S
C1090 C1091 1.400 . S
C1091 C1090 1.400 . S
C1091 C1092 1.398 . S
C1091 C1097 1.491 . S
C1092 H1083 0.950 . S
C1092 C1091 1.398 . S
C1092 C1093 1.391 . S
C1093 H1081 0.950 . S
C1093 C1089 1.393 . S
C1093 C1092 1.391 . S
C1094 H1084 0.950 . S
C1094 C1095 1.386 . S
C1094 C1096 1.391 . S
C1095 C1094 1.386 . S
C1095 C1099 1.393 . S
C1096 H1085 0.950 . S
C1096 C1094 1.391 . S
C1096 C1097 1.400 . S
C1097 C1091 1.491 . S
C1097 C1096 1.400 . S
C1097 C1098 1.398 . S
C1098 H1086 0.950 . S
C1098 C1097 1.398 . S
C1098 C1099 1.391 . S
C1099 H1087 0.950 . S
C1099 C1095 1.393 . S
C1099 C1098 1.391 . S
H1100 C1108 0.950 . S
H1101 C1113 0.950 . S
H1102 C1110 0.950 . S
H1103 C1112 0.950 . S
H1104 C1114 0.950 . S
H1105 C1116 0.950 . S
H1106 C1118 0.950 . S
H1107 C1119 0.950 . S
C1108 H1100 0.950 . S
C1108 C1109 1.386 . S
C1108 C1110 1.391 . S
C1109 C1108 1.386 . S
C1109 C1113 1.393 . S
C1110 H1102 0.950 . S
C1110 C1108 1.391 . S
C1110 C1111 1.400 . S
C1111 C1110 1.400 . S
C1111 C1112 1.398 . S
C1111 C1117 1.491 . S
C1112 H1103 0.950 . S
C1112 C1111 1.398 . S
C1112 C1113 1.391 . S
C1113 H1101 0.950 . S
C1113 C1109 1.393 . S
C1113 C1112 1.391 . S
C1114 H1104 0.950 . S
C1114 C1115 1.386 . S
C1114 C1116 1.391 . S
C1115 C1114 1.386 . S
C1115 C1119 1.393 . S
C1116 H1105 0.950 . S
C1116 C1114 1.391 . S
C1116 C1117 1.400 . S
C1117 C1111 1.491 . S
C1117 C1116 1.400 . S
C1117 C1118 1.398 . S
C1118 H1106 0.950 . S
C1118 C1117 1.398 . S
C1118 C1119 1.391 . S
C1119 H1107 0.950 . S
C1119 C1115 1.393 . S
C1119 C1118 1.391 . S
C495 C388 1.324 . S
C489 C8 1.315 . S
C515 C405 1.400 . S
C509 C61 1.411 . S
C535 C419 1.531 . S
C529 C107 1.543 . S
C549 C139 1.309 . S
C555 C377 1.322 . S
C569 C192 1.254 1_554 S
C575 C374 1.293 . S
C589 C238 1.124 . S
C595 C391 1.084 . S
C615 C402 1.537 . S
C609 C284 1.524 . S
C635 C416 1.381 . S
C629 C330 1.373 . S
C649 C100 1.369 . S
C655 C444 1.372 . S
C675 C458 1.525 . S
C669 C160 1.495 . S
C689 C15 1.117 . S
C695 C475 1.108 . S
C715 C430 1.285 . S
C709 C54 1.274 . S
C729 C291 1.321 . S
C735 C433 1.301 . S
C749 C337 1.548 . S
C755 C447 1.543 . S
C775 C461 1.409 . S
C769 C199 1.417 . S
C789 C245 1.295 . S
C795 C472 1.333 . S
C815 C404 1.925 . S
C809 C1 1.939 1_565 S
C835 C418 2.037 . S
C829 C68 2.017 . S
C849 C114 1.967 . S
C855 C376 1.979 1_556 S
C869 C146 1.859 . S
C875 C389 1.747 . S
C889 C185 1.636 . S
C895 C417 1.485 . S
C915 C375 1.479 . S
C909 C231 1.610 . S
C935 C390 1.823 . S
C929 C277 1.844 . S
C955 C403 1.610 . S
C949 C323 1.736 . S
C975 C459 1.601 . S
C969 C93 1.738 . S
C995 C474 1.830 . S
C989 C153 1.845 . S
C1009 C22 1.602 . S
C1015 C431 1.483 . S
C1035 C445 1.516 . S
C1029 C47 1.632 . S
C1055 C473 1.729 . S
C1049 C298 1.825 . S
C1069 C344 1.954 . S
C1075 C432 1.970 . S
C1095 C446 2.037 . S
C1089 C206 2.020 . S
C1115 C460 1.925 . S
C1109 C252 1.931 . S
