# Generated by pormake.
# Topology pth, (4,4)-cn, num edge types: 1
# Building blocks:
#     Node 0, Type 0, BuildingBlock: NAHDIM_clean_sbu_0, # of connection points: 4
#     Node 1, Type 0, BuildingBlock: NAHDIM_clean_sbu_0, # of connection points: 4
#     Node 2, Type 0, BuildingBlock: NAHDIM_clean_sbu_0, # of connection points: 4
#     Node 3, Type 1, BuildingBlock: MIFKUJ_clean_linker_1, # of connection points: 4
#     Node 4, Type 1, BuildingBlock: MIFKUJ_clean_linker_1, # of connection points: 4
#     Node 5, Type 1, BuildingBlock: MIFKUJ_clean_linker_1, # of connection points: 4
#     Edge 6, Type (0, 1), BuildingBlock: MIFKUJ_clean_linker_0, # of connection points: 2
#     Edge 7, Type (0, 1), BuildingBlock: MIFKUJ_clean_linker_0, # of connection points: 2
#     Edge 8, Type (0, 1), BuildingBlock: MIFKUJ_clean_linker_0, # of connection points: 2
#     Edge 9, Type (0, 1), BuildingBlock: MIFKUJ_clean_linker_0, # of connection points: 2
#     Edge 10, Type (0, 1), BuildingBlock: MIFKUJ_clean_linker_0, # of connection points: 2
#     Edge 11, Type (0, 1), BuildingBlock: MIFKUJ_clean_linker_0, # of connection points: 2
#     Edge 12, Type (0, 1), BuildingBlock: MIFKUJ_clean_linker_0, # of connection points: 2
#     Edge 13, Type (0, 1), BuildingBlock: MIFKUJ_clean_linker_0, # of connection points: 2
#     Edge 14, Type (0, 1), BuildingBlock: MIFKUJ_clean_linker_0, # of connection points: 2
#     Edge 15, Type (0, 1), BuildingBlock: MIFKUJ_clean_linker_0, # of connection points: 2
#     Edge 16, Type (0, 1), BuildingBlock: MIFKUJ_clean_linker_0, # of connection points: 2
#     Edge 17, Type (0, 1), BuildingBlock: MIFKUJ_clean_linker_0, # of connection points: 2
# Relax obj value: 0.043
# Max RMSD: 0.165
# Mean RMSD: 0.094
data_MOF--net-pth--node1-NAHDIM_clean_sbu_0--node2-MIFKUJ_clean_linker_1--edge1-MIFKUJ_clean_linker_0
_symmetry_space_group_name_H-M    P1
_symmetry_Int_Tables_number       1
_symmetry_cell_setting            triclinic
loop_
_symmetry_equiv_pos_as_xyz
'x, y, z'
_cell_length_a     36.820094
_cell_length_b     37.007476
_cell_length_c     78.143843
_cell_angle_alpha  91.813976
_cell_angle_beta   89.963201
_cell_angle_gamma 120.53892
loop_
_atom_site_label
_atom_site_type_symbol
_atom_site_fract_x
_atom_site_fract_y
_atom_site_fract_z
_atom_type_partial_charge
C0 C 0.05818 0.0043 0.06918 0.0
O1 O 0.0639 0.03933 0.07647 0.0
O2 O 0.02459 0.07125 0.05512 0.0
Zn3 Zn 0.03386 0.03277 0.03944 0.0
O4 O 0.9807 0.99439 0.02591 0.0
C5 C 0.07532 0.07005 0.00783 0.0
O6 O 0.03732 0.04602 0.00123 0.0
O7 O 0.04719 0.99621 0.05347 0.0
C8 C 0.95585 0.00542 0.0199 0.0
O9 O 0.96455 0.0443 0.02248 0.0
C10 C 0.99068 0.05927 0.06326 0.0
O11 O 0.95971 0.02017 0.06133 0.0
O12 O 0.08167 0.06849 0.02371 0.0
C13 C 0.03162 0.11208 0.35175 0.0
O14 O 0.99451 0.08142 0.35622 0.0
O15 O 0.04201 0.01465 0.35277 0.0
Zn16 Zn 0.05421 0.06164 0.36978 0.0
O17 O 0.0059 0.04659 0.38566 0.0
C18 C 0.1047 0.0406 0.38888 0.0
O19 O 0.07392 0.00349 0.38358 0.0
O20 O 0.06446 0.11177 0.35654 0.0
C21 C 0.9794 0.0101 0.39055 0.0
O22 O 0.98209 0.97769 0.38498 0.0
C23 C 0.00716 0.99105 0.34491 0.0
O24 O 0.97492 0.99621 0.34782 0.0
O25 O 0.10441 0.07311 0.3843 0.0
C26 C 0.07246 0.00454 0.67492 0.0
O27 O 0.06246 0.0318 0.66968 0.0
O28 O 0.99462 0.02393 0.68681 0.0
Zn29 Zn 0.02399 0.00529 0.70317 0.0
O30 O 0.06312 0.05236 0.71951 0.0
C31 C 0.94485 0.95459 0.7194 0.0
O32 O 0.93741 0.98229 0.71268 0.0
O33 O 0.05908 0.98774 0.68927 0.0
C34 C 0.05023 0.06318 0.73271 0.0
O35 O 0.00971 0.0438 0.73586 0.0
C36 C 0.98712 0.05356 0.68947 0.0
O37 O -0.00087 0.07554 0.704 0.0
O38 O 0.98021 0.95717 0.71683 0.0
H39 H 0.04153 0.49059 0.16801 0.0
H40 H 0.03652 0.43084 0.15165 0.0
H41 H 0.93147 0.34608 0.18235 0.0
H42 H 0.9355 0.40606 0.19816 0.0
H43 H 0.99058 0.51955 0.17159 0.0
H44 H 0.05462 0.46929 0.20854 0.0
H45 H 0.06346 0.41931 0.22504 0.0
H46 H 0.9583 0.39867 0.25644 0.0
H47 H 0.94832 0.44712 0.2393 0.0
H48 H 0.93777 0.55206 0.23586 0.0
H49 H 0.93706 0.60935 0.25197 0.0
H50 H 0.05138 0.69888 0.22709 0.0
H51 H 0.0528 0.6412 0.21157 0.0
H52 H 0.99683 0.52753 0.2351 0.0
H53 H 0.94138 0.58864 0.19574 0.0
H54 H 0.94845 0.64835 0.18018 0.0
H55 H 0.0556 0.65765 0.15364 0.0
H56 H 0.04951 0.59913 0.1696 0.0
C57 C 0.98916 0.4528 0.18441 0.0
C58 C 0.01723 0.45914 0.17113 0.0
C59 C 0.01459 0.42493 0.1619 0.0
C60 C 0.98378 0.38367 0.16578 0.0
C61 C 0.95534 0.37744 0.17895 0.0
C62 C 0.95789 0.41168 0.18812 0.0
C63 C 0.9925 0.4892 0.19435 0.0
C64 C 0.99233 0.52147 0.18547 0.0
C65 C 0.99504 0.49184 0.21246 0.0
C66 C 0.00039 0.46148 0.22252 0.0
C67 C 0.03306 0.45351 0.21881 0.0
C68 C 0.03843 0.42531 0.22841 0.0
C69 C 0.01156 0.40492 0.24206 0.0
C70 C 0.97911 0.41329 0.24584 0.0
C71 C 0.97359 0.44128 0.23616 0.0
C72 C 0.99506 0.59244 0.2224 0.0
C73 C 0.96285 0.58403 0.234 0.0
C74 C 0.96225 0.61684 0.24305 0.0
C75 C 0.99395 0.65872 0.2407 0.0
C76 C 0.02666 0.66697 0.2293 0.0
C77 C 0.02735 0.63409 0.22031 0.0
C78 C 0.99424 0.55744 0.21234 0.0
C79 C 0.99484 0.52541 0.22121 0.0
C80 C 0.99362 0.55581 0.19421 0.0
C81 C 0.99534 0.58982 0.18403 0.0
C82 C 0.96658 0.60373 0.18667 0.0
C83 C 0.97058 0.63773 0.17778 0.0
C84 C 0.00266 0.65758 0.1658 0.0
C85 C 0.03046 0.64271 0.16275 0.0
C86 C 0.02693 0.60926 0.17183 0.0
H87 H 0.6152 0.06326 0.50268 0.0
H88 H 0.668 0.05806 0.48553 0.0
H89 H 0.64041 0.94542 0.5113 0.0
H90 H 0.58655 0.94989 0.52791 0.0
H91 H 0.53404 0.0157 0.50458 0.0
H92 H 0.64781 0.06549 0.54283 0.0
H93 H 0.70576 0.07195 0.56047 0.0
H94 H 0.61748 0.96404 0.58842 0.0
H95 H 0.55959 0.9566 0.57036 0.0
H96 H 0.44363 0.94279 0.56455 0.0
H97 H 0.38483 0.93645 0.58135 0.0
H98 H 0.41336 0.05908 0.56573 0.0
H99 H 0.47193 0.06494 0.54877 0.0
H100 H 0.5286 0.00337 0.56767 0.0
H101 H 0.41474 0.95727 0.52479 0.0
H102 H 0.36222 0.96576 0.5091 0.0
H103 H 0.46097 0.08539 0.49169 0.0
H104 H 0.51306 0.07729 0.50785 0.0
C105 C 0.59718 0.00719 0.51669 0.0
C106 C 0.62039 0.03734 0.50457 0.0
C107 C 0.65083 0.03453 0.49489 0.0
C108 C 0.65854 0.00142 0.49711 0.0
C109 C 0.63499 0.97109 0.50917 0.0
C110 C 0.6045 0.97386 0.5188 0.0
C111 C 0.5648 0.01009 0.52696 0.0
C112 C 0.53321 0.01347 0.5184 0.0
C113 C 0.56385 0.00767 0.54501 0.0
C114 C 0.5993 0.01023 0.55511 0.0
C115 C 0.64094 0.04256 0.55246 0.0
C116 C 0.67403 0.04638 0.56258 0.0
C117 C 0.66595 0.01852 0.57578 0.0
C118 C 0.6244 0.98608 0.57839 0.0
C119 C 0.59139 0.98185 0.56809 0.0
C120 C 0.46188 0.00417 0.55533 0.0
C121 C 0.4372 0.96831 0.56478 0.0
C122 C 0.40372 0.96481 0.57441 0.0
C123 C 0.39442 0.99727 0.57488 0.0
C124 C 0.41933 0.03327 0.56543 0.0
C125 C 0.45286 0.03674 0.55578 0.0
C126 C 0.49731 0.00731 0.54521 0.0
C127 C 0.52958 0.00536 0.55384 0.0
C128 C 0.4997 0.01253 0.52733 0.0
C129 C 0.46771 0.01684 0.5176 0.0
C130 C 0.42497 0.98545 0.5177 0.0
C131 C 0.39507 0.9902 0.50863 0.0
C132 C 0.40745 0.02632 0.4992 0.0
C133 C 0.45035 0.05752 0.49904 0.0
C134 C 0.48018 0.05276 0.50812 0.0
H135 H 0.46831 0.46829 0.84023 0.0
H136 H 0.41265 0.4084 0.82404 0.0
H137 H 0.31892 0.42131 0.85263 0.0
H138 H 0.37475 0.48344 0.86758 0.0
H139 H 0.4942 0.54496 0.84181 0.0
H140 H 0.45585 0.44836 0.88575 0.0
H141 H 0.40752 0.38938 0.90308 0.0
H142 H 0.34898 0.45912 0.92077 0.0
H143 H 0.39821 0.51867 0.90363 0.0
H144 H 0.51731 0.64907 0.90136 0.0
H145 H 0.57276 0.70778 0.91853 0.0
H146 H 0.66281 0.67331 0.901 0.0
H147 H 0.60708 0.61416 0.88425 0.0
H148 H 0.49039 0.56348 0.90482 0.0
H149 H 0.55548 0.66821 0.85946 0.0
H150 H 0.61452 0.71591 0.84179 0.0
H151 H 0.6374 0.61507 0.82822 0.0
H152 H 0.57789 0.56759 0.84551 0.0
C153 C 0.42588 0.48024 0.85531 0.0
C154 C 0.43576 0.45847 0.84289 0.0
C155 C 0.40376 0.42375 0.83379 0.0
C156 C 0.36106 0.4096 0.83706 0.0
C157 C 0.35131 0.43144 0.84956 0.0
C158 C 0.38333 0.46667 0.85839 0.0
C159 C 0.45997 0.51764 0.86478 0.0
C160 C 0.4934 0.54878 0.8556 0.0
C161 C 0.45958 0.5227 0.88277 0.0
C162 C 0.43032 0.48762 0.89339 0.0
C163 C 0.43268 0.45097 0.8934 0.0
C164 C 0.40528 0.41748 0.90332 0.0
C165 C 0.37471 0.41993 0.91319 0.0
C166 C 0.37228 0.45661 0.91317 0.0
C167 C 0.40033 0.49052 0.90349 0.0
C168 C 0.55823 0.62758 0.89143 0.0
C169 C 0.54908 0.65436 0.90118 0.0
C170 C 0.58079 0.68799 0.91089 0.0
C171 C 0.6221 0.6951 0.91111 0.0
C172 C 0.63119 0.66836 0.90121 0.0
C173 C 0.5995 0.63482 0.8915 0.0
C174 C 0.52418 0.59092 0.8818 0.0
C175 C 0.49072 0.55987 0.891 0.0
C176 C 0.52606 0.58479 0.86395 0.0
C177 C 0.56231 0.61441 0.85373 0.0
C178 C 0.57341 0.65656 0.85271 0.0
C179 C 0.60728 0.68378 0.84269 0.0
C180 C 0.63062 0.66926 0.83353 0.0
C181 C 0.61967 0.62711 0.83484 0.0
C182 C 0.58575 0.59995 0.84476 0.0
H183 H 0.05345 0.13552 0.07546 0.0
H184 H 0.04688 0.18555 0.09442 0.0
H185 H 0.91234 0.10145 0.09608 0.0
H186 H 0.91863 0.0508 0.07715 0.0
H187 H 0.93776 0.18645 0.08948 0.0
H188 H 0.96573 0.10827 0.1297 0.0
H189 H 0.0039 0.07565 0.14149 0.0
H190 H 0.1165 0.19662 0.14702 0.0
H191 H 0.07917 0.22993 0.13501 0.0
H192 H 0.91312 0.3112 0.15436 0.0
H193 H 0.90978 0.25166 0.13841 0.0
H194 H 0.04571 0.31498 0.13891 0.0
H195 H 0.04927 0.37376 0.15549 0.0
H196 H 0.01332 0.23475 0.14559 0.0
H197 H 0.98937 0.31249 0.10338 0.0
H198 H 0.95407 0.34681 0.09047 0.0
H199 H 0.83721 0.22905 0.08762 0.0
H200 H 0.87172 0.19412 0.10073 0.0
C201 C 0.02243 0.12758 0.07986 0.0
C202 C 0.98652 0.08922 0.07483 0.0
C203 C 0.01879 0.15612 0.09074 0.0
C204 C 0.97918 0.14697 0.09671 0.0
C205 C 0.94318 0.10891 0.09162 0.0
C206 C 0.94685 0.08004 0.08087 0.0
C207 C 0.97567 0.17779 0.10801 0.0
C208 C 0.95354 0.1965 0.10191 0.0
C209 C 0.9972 0.19144 0.12399 0.0
C210 C 0.01972 0.17156 0.13132 0.0
C211 C -0.00128 0.12789 0.1333 0.0
C212 C 0.02019 0.10928 0.14004 0.0
C213 C 0.06262 0.13404 0.14496 0.0
C214 C 0.08364 0.17748 0.14319 0.0
C215 C 0.06233 0.19625 0.13643 0.0
C216 C 0.94229 0.31224 0.15125 0.0
C217 C 0.98149 0.34733 0.15613 0.0
C218 C 0.94033 0.27836 0.14199 0.0
C219 C 0.97751 0.27912 0.13729 0.0
C220 C 0.01662 0.3138 0.14236 0.0
C221 C 0.01861 0.34756 0.15168 0.0
C222 C 0.97588 0.24399 0.12699 0.0
C223 C 0.99708 0.22444 0.13326 0.0
C224 C 0.95384 0.22986 0.11108 0.0
C225 C 0.93301 0.2508 0.10323 0.0
C226 C 0.95606 0.29399 0.10014 0.0
C227 C 0.93621 0.31353 0.09276 0.0
C228 C 0.89339 0.29015 0.08828 0.0
C229 C 0.87036 0.24714 0.09113 0.0
C230 C 0.89005 0.22745 0.09853 0.0
H231 H 0.87809 0.30534 0.08256 0.0
H232 H 0.07919 0.11957 0.15019 0.0
H233 H 0.97232 0.07145 0.40766 0.0
H234 H 0.9168 0.06311 0.42699 0.0
H235 H 0.85473 0.92856 0.41966 0.0
H236 H 0.9105 0.93658 0.4002 0.0
H237 H 0.80031 0.9603 0.41674 0.0
H238 H 0.90408 0.96987 0.4562 0.0
H239 H 0.97521 -8e-05 0.46905 0.0
H240 H 0.97741 0.11481 0.48164 0.0
H241 H 0.9065 0.08567 0.46863 0.0
H242 H 0.65383 0.93109 0.48221 0.0
H243 H 0.70752 0.92672 0.46535 0.0
H244 H 0.7897 0.06085 0.47155 0.0
H245 H 0.73688 0.06526 0.48896 0.0
H246 H 0.83242 0.0213 0.47608 0.0
H247 H 0.73302 0.01541 0.43439 0.0
H248 H 0.66288 0.98749 0.42083 0.0
H249 H 0.65334 0.86784 0.41192 0.0
H250 H 0.72323 0.89492 0.42564 0.0
C251 C 0.94697 0.04002 0.41016 0.0
C252 C 0.94584 0.00464 0.40242 0.0
C253 C 0.91536 0.03533 0.42128 0.0
C254 C 0.88195 0.99522 0.42487 0.0
C255 C 0.88042 0.95977 0.41708 0.0
C256 C 0.91231 0.96441 0.40602 0.0
C257 C 0.84827 0.99083 0.43646 0.0
C258 C 0.80706 0.97283 0.42984 0.0
C259 C 0.85747 0.00805 0.4534 0.0
C260 C 0.90007 0.02566 0.46131 0.0
C261 C 0.91985 0.00166 0.46158 0.0
C262 C 0.96011 0.01851 0.46892 0.0
C263 C 0.98085 0.05928 0.47612 0.0
C264 C 0.96131 0.08324 0.47604 0.0
C265 C 0.92106 0.06655 0.46871 0.0
C266 C 0.68352 0.95959 0.48014 0.0
C267 C 0.69103 -0.00144 0.48687 0.0
C268 C 0.714 0.95709 0.47037 0.0
C269 C 0.75241 0.99352 0.46703 0.0
C270 C 0.76022 0.03235 0.47393 0.0
C271 C 0.72984 0.03488 0.48373 0.0
C272 C 0.78452 0.99146 0.45628 0.0
C273 C 0.82548 0.00826 0.46307 0.0
C274 C 0.77513 0.97336 0.43946 0.0
C275 C 0.73311 0.95703 0.43122 0.0
C276 C 0.7158 0.98304 0.42967 0.0
C277 C 0.67612 0.96739 0.42193 0.0
C278 C 0.65361 0.92588 0.41557 0.0
C279 C 0.67078 0.89996 0.41689 0.0
C280 C 0.71043 0.91545 0.42464 0.0
H281 H 0.6229 0.91383 0.40958 0.0
H282 H 0.01202 0.07227 0.4818 0.0
H283 H 0.87052 0.94686 0.72938 0.0
H284 H 0.81965 0.89707 0.74899 0.0
H285 H 0.89592 0.83997 0.75446 0.0
H286 H 0.94785 0.89067 0.73505 0.0
H287 H 0.77146 0.8157 0.74748 0.0
H288 H 0.88413 0.80345 0.79523 0.0
H289 H 0.95742 0.84607 0.80616 0.0
H290 H 0.95723 0.95901 0.79531 0.0
H291 H 0.8838 0.91708 0.78454 0.0
H292 H 0.64952 0.65015 0.80191 0.0
H293 H 0.70562 0.69661 0.78305 0.0
H294 H 0.74548 0.79904 0.82021 0.0
H295 H 0.6905 0.75215 0.83957 0.0
H296 H 0.81243 0.80028 0.80609 0.0
H297 H 0.68406 0.78948 0.78597 0.0
H298 H 0.60974 0.75259 0.77615 0.0
H299 H 0.63975 0.69675 0.73358 0.0
H300 H 0.71419 0.73289 0.74329 0.0
C301 C 0.87657 0.9237 0.7347 0.0
C302 C 0.91335 0.92282 0.7307 0.0
C303 C 0.84734 0.89516 0.74589 0.0
C304 C 0.85411 0.86502 0.75331 0.0
C305 C 0.89037 0.8634 0.74909 0.0
C306 C 0.9199 0.89223 0.73793 0.0
C307 C 0.82303 0.83562 0.76549 0.0
C308 C 0.7805 0.8122 0.76027 0.0
C309 C 0.83467 0.83153 0.78227 0.0
C310 C 0.87866 0.85709 0.7889 0.0
C311 C 0.89971 0.83738 0.79523 0.0
C312 C 0.94127 0.86141 0.80139 0.0
C313 C 0.96202 0.90522 0.80137 0.0
C314 C 0.94119 0.92508 0.79526 0.0
C315 C 0.89962 0.90119 0.7891 0.0
C316 C 0.67063 0.68236 0.80623 0.0
C317 C 0.66541 0.69746 0.82225 0.0
C318 C 0.70246 0.70898 0.79535 0.0
C319 C 0.72936 0.75139 0.80013 0.0
C320 C 0.72496 0.76641 0.81626 0.0
C321 C 0.69324 0.73971 0.82722 0.0
C322 C 0.761 0.7804 0.78803 0.0
C323 C 0.80354 0.80359 0.79326 0.0
C324 C 0.74928 0.78514 0.77138 0.0
C325 C 0.70459 0.76356 0.76545 0.0
C326 C 0.67474 0.76909 0.77458 0.0
C327 C 0.63261 0.74836 0.76903 0.0
C328 C 0.62 0.72226 0.75427 0.0
C329 C 0.64954 0.71694 0.74502 0.0
C330 C 0.69172 0.73756 0.75053 0.0
H331 H 0.58737 0.70624 0.74999 0.0
H332 H 0.9942 0.92376 0.80613 0.0
H333 H 0.06805 0.00562 0.10395 0.0
H334 H 0.06157 0.94881 0.12124 0.0
H335 H 0.04454 0.87368 0.07529 0.0
H336 H 0.05021 0.92995 0.05793 0.0
H337 H 0.98502 0.8302 0.09754 0.0
H338 H 0.13582 0.91713 0.09971 0.0
H339 H 0.20416 0.9822 0.10494 0.0
H340 H 0.17415 0.9846 0.15792 0.0
H341 H 0.10534 0.9198 0.15295 0.0
H342 H 0.01075 0.66908 0.13149 0.0
H343 H 0.02146 0.73044 0.1162 0.0
H344 H 0.01737 0.78984 0.16398 0.0
H345 H 0.00634 0.72824 0.17935 0.0
H346 H 0.08645 0.84222 0.14231 0.0
H347 H 0.93616 0.75385 0.13994 0.0
H348 H 0.86864 0.68803 0.13448 0.0
H349 H 0.89899 0.6881 0.08142 0.0
H350 H 0.96704 0.75364 0.08661 0.0
C351 C 0.06351 0.97724 0.09751 0.0
C352 C 0.05941 0.97221 0.07957 0.0
C353 C 0.05993 0.94483 0.10742 0.0
C354 C 0.05265 0.90703 0.09955 0.0
C355 C 0.04997 0.90252 0.08162 0.0
C356 C 0.05336 0.93478 0.07172 0.0
C357 C 0.04521 0.87116 0.10997 0.0
C358 C 0.00752 0.83274 0.10716 0.0
C359 C 0.07394 0.87481 0.1229 0.0
C360 C 0.11522 0.91386 0.12591 0.0
C361 C 0.14362 0.93174 0.11244 0.0
C362 C 0.18248 0.96853 0.11537 0.0
C363 C 0.19344 0.9876 0.13174 0.0
C364 C 0.16559 0.96984 0.14524 0.0
C365 C 0.12667 0.93306 0.14237 0.0
C366 C 0.01208 0.69523 0.1387 0.0
C367 C 0.00763 0.69402 0.15656 0.0
C368 C 0.01807 0.73011 0.12998 0.0
C369 C 0.02007 0.76449 0.13899 0.0
C370 C 0.01588 0.76353 0.15684 0.0
C371 C 0.00929 0.72833 0.16556 0.0
C372 C 0.02669 0.8014 0.12964 0.0
C373 C 0.06405 0.83991 0.1327 0.0
C374 C -0.0022 0.79787 0.11688 0.0
C375 C 0.9569 0.75845 0.1137 0.0
C376 C 0.92863 0.73963 0.12714 0.0
C377 C 0.89022 0.70241 0.12409 0.0
C378 C 0.87958 0.68384 0.10762 0.0
C379 C 0.9073 0.7025 0.09417 0.0
C380 C 0.94578 0.7397 0.09715 0.0
H381 H 0.84982 0.65503 0.10528 0.0
H382 H 0.22355 0.01607 0.13398 0.0
H383 H 0.1659 0.11033 0.4067 0.0
H384 H 0.21818 0.11357 0.42707 0.0
H385 H 0.17081 0.98141 0.41749 0.0
H386 H 0.1182 0.97775 0.39752 0.0
H387 H 0.18068 -0.00017 0.45079 0.0
H388 H 0.26426 0.05899 0.40027 0.0
H389 H 0.2942 0.10947 0.37716 0.0
H390 H 0.35414 0.2114 0.41445 0.0
H391 H 0.32411 0.16152 0.43778 0.0
H392 H 0.34187 0.96655 0.47948 0.0
H393 H 0.29082 0.97468 0.46263 0.0
H394 H 0.35088 0.105 0.47927 0.0
H395 H 0.40204 0.09704 0.4963 0.0
H396 H 0.33489 0.09492 0.44511 0.0
H397 H 0.25741 0.0352 0.49558 0.0
H398 H 0.22827 0.98483 0.51874 0.0
H399 H 0.15689 0.88441 0.48185 0.0
H400 H 0.18608 0.93408 0.45843 0.0
C401 C 0.16684 0.08206 0.40889 0.0
C402 C 0.13791 0.04378 0.40052 0.0
C403 C 0.19676 0.08397 0.42049 0.0
C404 C 0.19851 0.04775 0.42374 0.0
C405 C 0.1699 0.0097 0.41525 0.0
C406 C 0.13992 0.0077 0.40378 0.0
C407 C 0.22952 0.04879 0.43614 0.0
C408 C 0.21442 0.02039 0.44946 0.0
C409 C 0.27345 0.07665 0.43478 0.0
C410 C 0.29155 0.10659 0.42076 0.0
C411 C 0.28355 0.0922 0.40353 0.0
C412 C 0.30059 0.12069 0.3904 0.0
C413 C 0.32595 0.16363 0.39433 0.0
C414 C 0.33443 0.17814 0.41142 0.0
C415 C 0.31743 0.14978 0.4246 0.0
C416 C 0.34389 0.9968 0.47975 0.0
C417 C 0.37589 0.0311 0.48927 0.0
C418 C 0.31475 0.00143 0.47009 0.0
C419 C 0.3168 0.04034 0.46986 0.0
C420 C 0.34877 0.07472 0.47929 0.0
C421 C 0.378 0.07013 0.48896 0.0
C422 C 0.28603 0.04508 0.4594 0.0
C423 C 0.30113 0.07466 0.44653 0.0
C424 C 0.24206 0.01833 0.46117 0.0
C425 C 0.22419 0.98836 0.47524 0.0
C426 C 0.23573 0.00233 0.49239 0.0
C427 C 0.21916 0.97391 0.50557 0.0
C428 C 0.1908 0.93144 0.50177 0.0
C429 C 0.17887 0.91732 0.48477 0.0
C430 C 0.19538 0.9456 0.47155 0.0
H431 H 0.17802 0.90948 0.51198 0.0
H432 H 0.33911 0.18564 0.38415 0.0
H433 H 0.0348 0.11207 0.75487 0.0
H434 H 0.08589 0.17028 0.77365 0.0
H435 H 0.18472 0.14925 0.75586 0.0
H436 H 0.13417 0.09178 0.73671 0.0
H437 H 0.17516 0.15909 0.7947 0.0
H438 H 0.18897 0.22304 0.73955 0.0
H439 H 0.16007 0.2392 0.71439 0.0
H440 H 0.11152 0.29963 0.74714 0.0
H441 H 0.13962 0.28321 0.77253 0.0
H442 H 0.36044 0.33836 0.82553 0.0
H443 H 0.30584 0.27934 0.80865 0.0
H444 H 0.22811 0.33575 0.81079 0.0
H445 H 0.28412 0.39673 0.82636 0.0
H446 H 0.2227 0.30632 0.78071 0.0
H447 H 0.20937 0.24875 0.83548 0.0
H448 H 0.23231 0.23118 0.86201 0.0
H449 H 0.27177 0.15731 0.83278 0.0
H450 H 0.24957 0.17488 0.80604 0.0
C451 C 0.0674 0.11981 0.755 0.0
C452 C 0.08062 0.09757 0.74431 0.0
C453 C 0.09644 0.15298 0.76569 0.0
C454 C 0.13886 0.16381 0.76607 0.0
C455 C 0.152 0.14114 0.75571 0.0
C456 C 0.12319 0.10855 0.74474 0.0
C457 C 0.16985 0.19953 0.77698 0.0
C458 C 0.18603 0.19137 0.79163 0.0
C459 C 0.18251 0.24131 0.7732 0.0
C460 C 0.16595 0.25146 0.75794 0.0
C461 C 0.17177 0.2394 0.7414 0.0
C462 C 0.15562 0.24869 0.72709 0.0
C463 C 0.13385 0.27031 0.72917 0.0
C464 C 0.12832 0.28281 0.74555 0.0
C465 C 0.14437 0.27355 0.7599 0.0
C466 C 0.33205 0.33865 0.82223 0.0
C467 C 0.32691 0.37256 0.82736 0.0
C468 C 0.30042 0.30438 0.8128 0.0
C469 C 0.26239 0.30258 0.80871 0.0
C470 C 0.25705 0.33624 0.81386 0.0
C471 C 0.28901 0.37094 0.82298 0.0
C472 C 0.22884 0.26628 0.79856 0.0
C473 C 0.21195 0.27419 0.78399 0.0
C474 C 0.21479 0.22419 0.80268 0.0
C475 C 0.22813 0.21344 0.81874 0.0
C476 C 0.22321 0.229 0.83469 0.0
C477 C 0.23604 0.219 0.84977 0.0
C478 C 0.25357 0.19323 0.84908 0.0
C479 C 0.25822 0.17731 0.8333 0.0
C480 C 0.24547 0.18723 0.81818 0.0
H481 H 0.26349 0.18552 0.86077 0.0
H482 H 0.12137 0.27748 0.71808 0.0
H483 H 0.97791 0.03473 0.65523 0.0
H484 H 0.92668 0.03589 0.63556 0.0
H485 H 0.88219 0.0831 0.67663 0.0
H486 H 0.93419 0.08326 0.69629 0.0
H487 H 0.8204 0.00031 0.65591 0.0
H488 H 0.9248 0.14786 0.6518 0.0
H489 H 0.99624 0.20716 0.64675 0.0
H490 H 0.99252 0.15808 0.59583 0.0
H491 H 0.92125 0.09809 0.60069 0.0
H492 H 0.66779 0.02189 0.61057 0.0
H493 H 0.72532 0.03278 0.62965 0.0
H494 H 0.79938 0.03842 0.58586 0.0
H495 H 0.74224 0.029 0.56672 0.0
H496 H 0.84789 0.09593 0.60823 0.0
H497 H 0.74797 0.94966 0.61076 0.0
H498 H 0.67862 0.88608 0.61451 0.0
H499 H 0.67576 0.92595 0.66644 0.0
H500 H 0.74487 0.9901 0.66293 0.0
C501 C 0.95769 0.04605 0.65998 0.0
C502 C 0.9599 0.05887 0.67726 0.0
C503 C 0.9286 0.04675 0.64875 0.0
C504 C 0.90088 0.05957 0.65472 0.0
C505 C 0.90359 0.07329 0.67185 0.0
C506 C 0.93333 0.0735 0.68301 0.0
C507 C 0.86691 0.05539 0.64337 0.0
C508 C 0.82608 0.02155 0.64565 0.0
C509 C 0.8751 0.08219 0.62963 0.0
C510 C 0.9179 0.11823 0.62669 0.0
C511 C 0.93939 0.14945 0.6396 0.0
C512 C 0.97981 0.18325 0.63675 0.0
C513 C -0.00103 0.18631 0.621 0.0
C514 C 0.97768 0.15563 0.60804 0.0
C515 C 0.93726 0.12175 0.61083 0.0
C516 C 0.69628 0.02522 0.60506 0.0
C517 C 0.70057 0.02428 0.58722 0.0
C518 C 0.72911 0.03137 0.61594 0.0
C519 C 0.76644 0.03569 0.6092 0.0
C520 C 0.77088 0.03513 0.59135 0.0
C521 C 0.73827 0.02966 0.58045 0.0
C522 C 0.8008 0.04088 0.6208 0.0
C523 C 0.84187 0.07471 0.61853 0.0
C524 C 0.79301 0.01344 0.63436 0.0
C525 C 0.75141 0.97491 0.63652 0.0
C526 C 0.7324 0.94504 0.62294 0.0
C527 C 0.69316 0.90887 0.62503 0.0
C528 C 0.67274 0.90204 0.64069 0.0
C529 C 0.69158 0.93132 0.65431 0.0
C530 C 0.7308 0.96758 0.65228 0.0
H531 H 0.64237 0.874 0.64228 0.0
H532 H 0.03025 0.21252 0.61881 0.0
H533 H 0.90031 0.01987 0.00233 0.0
H534 H 0.84199 0.97031 0.98338 0.0
H535 H 0.87017 0.87352 0.99436 0.0
H536 H 0.92865 0.92277 0.01306 0.0
H537 H 0.86015 0.87731 0.96066 0.0
H538 H 0.78561 0.87454 0.01195 0.0
H539 H 0.76444 0.90577 0.0354 0.0
H540 H 0.71316 0.9529 -0.00116 0.0
H541 H 0.73455 0.9224 0.97515 0.0
H542 H 0.68004 0.69157 0.93157 0.0
H543 H 0.73547 0.74804 0.94938 0.0
H544 H 0.69466 0.83257 0.93347 0.0
H545 H 0.63889 0.77596 0.91555 0.0
H546 H 0.7114 0.84051 0.96775 0.0
H547 H 0.78172 0.83932 0.91653 0.0
H548 H 0.80234 0.80758 0.89308 0.0
H549 H 0.86181 0.76839 0.92938 0.0
H550 H 0.84101 0.79936 0.95308 0.0
C551 C 0.8939 0.98796 0.00079 0.0
C552 C 0.91916 0.97528 0.00916 0.0
C553 C 0.86051 0.95967 0.98999 0.0
C554 C 0.85168 0.91821 0.98753 0.0
C555 C 0.87655 0.90542 0.99604 0.0
C556 C 0.90991 0.93361 0.00676 0.0
C557 C 0.81735 0.88818 0.97572 0.0
C558 C 0.82756 0.86897 0.96231 0.0
C559 C 0.77509 0.87838 0.97755 0.0
C560 C 0.7621 0.8966 0.99178 0.0
C561 C 0.77013 0.89186 0.00891 0.0
C562 C 0.75803 0.90937 0.02224 0.0
C563 C 0.73758 0.93142 0.01861 0.0
C564 C 0.72907 0.93588 0.00163 0.0
C565 C 0.74115 0.91846 0.98825 0.0
C566 C 0.6831 0.72227 0.93173 0.0
C567 C 0.6554 0.72947 0.92203 0.0
C568 C 0.7147 0.75448 0.94194 0.0
C569 C 0.71954 0.79464 0.94253 0.0
C570 C 0.69147 0.8018 0.93314 0.0
C571 C 0.65966 0.76947 0.92295 0.0
C572 C 0.75413 0.82898 0.95296 0.0
C573 C 0.74404 0.84912 0.96604 0.0
C574 C 0.79659 0.83974 0.95083 0.0
C575 C 0.80953 0.82141 0.93659 0.0
C576 C 0.79896 0.82369 0.91952 0.0
C577 C 0.81071 0.80587 0.90619 0.0
C578 C 0.8333 0.78592 0.90974 0.0
C579 C 0.84429 0.78384 0.92664 0.0
C580 C 0.83257 0.80157 0.94003 0.0
H581 H 0.84236 0.77212 0.8994 0.0
H582 H 0.72823 0.94495 0.02895 0.0
H583 H 0.93561 0.9288 0.32867 0.0
H584 H 0.92947 0.87264 0.30922 0.0
H585 H 0.0633 0.92173 0.3144 0.0
H586 H 0.06979 0.97783 0.33375 0.0
H587 H 0.03514 0.90045 0.28095 0.0
H588 H 0.99676 0.83929 0.3365 0.0
H589 H 0.95578 0.81927 0.36303 0.0
H590 H 0.84154 0.7438 0.33362 0.0
H591 H 0.88182 0.76389 0.30688 0.0
H592 H 0.06013 0.72956 0.25562 0.0
H593 H 0.05809 0.78662 0.27131 0.0
H594 H 0.92337 0.72366 0.26316 0.0
H595 H 0.92519 0.6667 0.24718 0.0
H596 H 0.94623 0.75149 0.29634 0.0
H597 H 0.98529 0.80764 0.24085 0.0
H598 H 0.02633 0.82703 0.21434 0.0
H599 H 0.13874 0.91159 0.24327 0.0
H600 H 0.09849 0.8922 0.27001 0.0
C601 C 0.96374 0.92771 0.32561 0.0
C602 C 0.00315 0.95765 0.33281 0.0
C603 C 0.96016 0.89559 0.31453 0.0
C604 C 0.99592 0.89296 0.31047 0.0
C605 C 0.03536 0.92328 0.31736 0.0
C606 C 0.03894 0.95519 0.32848 0.0
C607 C 0.99238 0.85814 0.29937 0.0
C608 C 0.01596 0.86788 0.28435 0.0
C609 C 0.96646 0.81565 0.30363 0.0
C610 C 0.94223 0.8035 0.31969 0.0
C611 C 0.96285 0.81873 0.33568 0.0
C612 C 0.93977 0.80731 0.35076 0.0
C613 C 0.89607 0.78039 0.35001 0.0
C614 C 0.87538 0.76473 0.33418 0.0
C615 C 0.89832 0.7761 0.31906 0.0
C616 C 0.03014 0.72808 0.25696 0.0
C617 C 0.99283 0.6936 0.25012 0.0
C618 C 0.02901 0.76066 0.26596 0.0
C619 C 0.99062 0.75949 0.26825 0.0
C620 C 0.9533 0.72509 0.26153 0.0
C621 C 0.9544 0.69252 0.25248 0.0
C622 C 0.9895 0.79382 0.27803 0.0
C623 C 0.96505 0.784 0.29281 0.0
C624 C 0.01458 0.83623 0.27353 0.0
C625 C 0.03891 0.84819 0.25746 0.0
C626 C 0.01883 0.83013 0.24158 0.0
C627 C 0.04194 0.84116 0.22651 0.0
C628 C 0.08513 0.87046 0.22713 0.0
C629 C 0.10528 0.88887 0.24282 0.0
C630 C 0.08232 0.8779 0.25794 0.0
H631 H 0.10297 0.87897 0.21544 0.0
H632 H 0.87825 0.77157 0.3617 0.0
H633 H 0.09549 0.02536 0.64196 0.0
H634 H 0.1461 0.01546 0.62537 0.0
H635 H 0.16463 0.95419 0.66771 0.0
H636 H 0.11375 0.96396 0.68449 0.0
H637 H 0.23934 0.01729 0.65481 0.0
H638 H 0.11335 0.89682 0.63311 0.0
H639 H 0.04142 0.85756 0.62065 0.0
H640 H 0.08405 0.93089 0.5757 0.0
H641 H 0.15616 0.97105 0.58799 0.0
H642 H 0.37239 0.96667 0.607 0.0
H643 H 0.31418 0.96057 0.62415 0.0
H644 H 0.2792 0.01471 0.58385 0.0
H645 H 0.33646 0.01946 0.56634 0.0
H646 H 0.21082 0.94887 0.59682 0.0
H647 H 0.33415 0.07322 0.61918 0.0
H648 H 0.40618 0.11455 0.63144 0.0
H649 H 0.36849 0.03605 0.67494 0.0
H650 H 0.29631 0.99386 0.66281 0.0
C651 C 0.11 0.00943 0.64772 0.0
C652 C 0.10073 0.99555 0.66456 0.0
C653 C 0.13876 0.0036 0.63818 0.0
C654 C 0.15886 0.98386 0.64528 0.0
C655 C 0.14929 0.96939 0.662 0.0
C656 C 0.12018 0.97489 0.67154 0.0
C657 C 0.19172 0.98079 0.63552 0.0
C658 C 0.23298 0.00158 0.64228 0.0
C659 C 0.18349 0.96126 0.619 0.0
C660 C 0.14013 0.93719 0.61155 0.0
C661 C 0.10734 0.90484 0.62063 0.0
C662 C 0.06653 0.88236 0.61358 0.0
C663 C 0.05815 0.89179 0.59741 0.0
C664 C 0.09058 0.92365 0.58823 0.0
C665 C 0.13144 0.94625 0.59523 0.0
C666 C 0.35203 0.97684 0.6017 0.0
C667 C 0.35911 0.99366 0.58532 0.0
C668 C 0.319 0.97368 0.61158 0.0
C669 C 0.29266 0.98762 0.60535 0.0
C670 C 0.29925 0.00386 0.58891 0.0
C671 C 0.33222 0.00695 0.579 0.0
C672 C 0.25853 0.98576 0.61603 0.0
C673 C 0.21708 0.96414 0.60944 0.0
C674 C 0.26661 0.00478 0.63267 0.0
C675 C 0.30997 0.0301 0.63999 0.0
C676 C 0.34131 0.06455 0.63129 0.0
C677 C 0.38215 0.08817 0.63823 0.0
C678 C 0.39194 0.07785 0.65393 0.0
C679 C 0.36088 0.04395 0.66275 0.0
C680 C 0.32 0.02019 0.65586 0.0
H681 H 0.42357 0.09619 0.65929 0.0
H682 H 0.02654 0.87434 0.59197 0.0
H683 H 0.06676 0.09576 0.9766 0.0
H684 H 0.12082 0.15277 0.96037 0.0
H685 H 0.21453 0.17277 -0.00143 0.0
H686 H 0.15993 0.11664 0.01531 0.0
H687 H 0.22402 0.24395 0.99132 0.0
H688 H 0.20957 0.12868 0.95713 0.0
H689 H 0.1734 0.06164 0.9404 0.0
H690 H 0.12608 0.11489 0.90495 0.0
H691 H 0.16146 0.1821 0.9216 0.0
H692 H 0.39445 0.38019 0.93691 0.0
H693 H 0.34548 0.31883 0.95312 0.0
H694 H 0.24006 0.31664 0.92801 0.0
H695 H 0.28896 0.3786 0.91204 0.0
H696 H 0.24096 0.23594 0.92856 0.0
H697 H 0.25459 0.35078 0.96507 0.0
H698 H 0.29483 0.41752 0.98178 0.0
H699 H 0.34923 0.36289 0.01288 0.0
H700 H 0.30976 0.29596 0.99616 0.0
C701 C 0.09896 0.1119 0.98147 0.0
C702 C 0.10909 0.10173 0.99725 0.0
C703 C 0.12996 0.14441 0.9721 0.0
C704 C 0.17195 0.16679 0.9781 0.0
C705 C 0.18235 0.15597 0.99367 0.0
C706 C 0.15118 0.12383 0.0032 0.0
C707 C 0.20426 0.20317 0.96866 0.0
C708 C 0.22819 0.24185 0.97765 0.0
C709 C 0.2094 0.20081 0.95076 0.0
C710 C 0.18789 0.16036 0.94072 0.0
C711 C 0.19116 0.12601 0.94585 0.0
C712 C 0.17085 0.08798 0.93636 0.0
C713 C 0.14738 0.08398 0.92164 0.0
C714 C 0.14423 0.11802 0.91636 0.0
C715 C 0.16445 0.15611 0.92581 0.0
C716 C 0.36081 0.36662 0.93495 0.0
C717 C 0.34527 0.38395 0.92333 0.0
C718 C 0.33299 0.33176 0.94418 0.0
C719 C 0.28934 0.31341 0.9417 0.0
C720 C 0.27373 0.33051 0.93004 0.0
C721 C 0.30154 0.36588 0.92104 0.0
C722 C 0.25992 0.27617 0.95125 0.0
C723 C 0.23675 0.23755 0.94226 0.0
C724 C 0.25598 0.27837 0.96916 0.0
C725 C 0.27962 0.31854 0.97924 0.0
C726 C 0.27547 0.35313 0.97535 0.0
C727 C 0.29806 0.39096 0.98485 0.0
C728 C 0.32468 0.39448 0.99835 0.0
C729 C 0.32866 0.36014 0.0024 0.0
C730 C 0.30617 0.32225 0.99293 0.0
H731 H 0.34212 0.42379 0.00569 0.0
H732 H 0.13169 0.05452 0.91431 0.0
H733 H 0.96663 0.11885 0.33905 0.0
H734 H 0.97006 0.17033 0.31947 0.0
H735 H 0.10572 0.23082 0.31923 0.0
H736 H 0.10267 0.17924 0.33905 0.0
H737 H 0.07735 0.28736 0.32211 0.0
H738 H 0.05173 0.17029 0.28574 0.0
H739 H 0.01606 0.09576 0.27619 0.0
H740 H 0.89956 0.09441 0.26979 0.0
H741 H 0.93438 0.16879 0.27955 0.0
H742 H 0.08596 0.41227 0.25291 0.0
H743 H 0.09538 0.3637 0.27022 0.0
H744 H 0.96034 0.28307 0.27262 0.0
H745 H 0.95068 0.33035 0.25463 0.0
H746 H 0.99666 0.23793 0.26712 0.0
H747 H 0.01994 0.35204 0.30613 0.0
H748 H 0.05438 0.42611 0.31628 0.0
H749 H 0.17416 0.43267 0.31808 0.0
H750 H 0.14048 0.35874 0.30772 0.0
C751 C -0.00271 0.14311 0.33491 0.0
C752 C 0.0344 0.14479 0.34053 0.0
C753 C -0.00086 0.17243 0.32365 0.0
C754 C 0.03808 0.20393 0.3177 0.0
C755 C 0.07535 0.20654 0.32362 0.0
C756 C 0.07353 0.17706 0.33491 0.0
C757 C 0.03934 0.23386 0.30525 0.0
C758 C 0.06041 0.27674 0.30993 0.0
C759 C 0.01663 0.21976 0.28951 0.0
C760 C 0.99563 0.17507 0.28349 0.0
C761 C 0.01843 0.15403 0.28241 0.0
C762 C -0.00163 0.11182 0.27694 0.0
C763 C 0.95555 0.09034 0.27242 0.0
C764 C 0.93272 0.11108 0.27331 0.0
C765 C 0.95262 0.15329 0.27879 0.0
C766 C 0.05825 0.38391 0.25692 0.0
C767 C 0.01752 0.3753 0.25244 0.0
C768 C 0.06371 0.35642 0.26697 0.0
C769 C 0.02856 0.32006 0.27292 0.0
C770 C 0.98793 0.31104 0.26823 0.0
C771 C 0.98245 0.33833 0.25809 0.0
C772 C 0.0338 0.2914 0.28414 0.0
C773 C 0.01402 0.2487 0.27921 0.0
C774 C 0.05756 0.30567 0.29967 0.0
C775 C 0.07777 0.35003 0.30597 0.0
C776 C 0.05367 0.36938 0.30857 0.0
C777 C 0.07304 0.41131 0.31438 0.0
C778 C 0.11645 0.43412 0.31777 0.0
C779 C 0.14055 0.41499 0.31541 0.0
C780 C 0.12134 0.37307 0.30959 0.0
H781 H 0.13139 0.46659 0.32227 0.0
H782 H 0.94008 0.05765 0.2682 0.0
loop_
_geom_bond_atom_site_label_1
_geom_bond_atom_site_label_2
_geom_bond_distance
_geom_bond_site_symmetry_2
_ccdc_geom_bond_type
C0 O1 1.160 . S
C0 O7 1.185 . S
O1 C0 1.160 . S
O2 Zn3 1.899 . S
O2 C10 1.284 . S
Zn3 O2 1.899 . S
Zn3 O4 2.032 1_445 S
Zn3 O7 2.086 1_545 S
Zn3 O12 1.977 . S
O4 Zn3 2.032 1_665 S
O4 C8 1.278 . S
C5 O6 1.203 . S
C5 O12 1.267 . S
O6 C5 1.203 . S
O7 C0 1.185 . S
O7 Zn3 2.086 1_565 S
C8 O4 1.278 . S
C8 O9 1.211 1_565 S
O9 C8 1.211 1_545 S
C10 O2 1.284 . S
C10 O11 1.273 1_455 S
O11 C10 1.273 1_655 S
O12 Zn3 1.977 . S
O12 C5 1.267 . S
C13 O14 1.160 . S
C13 O20 1.185 . S
O14 C13 1.160 . S
O15 Zn16 1.899 . S
O15 C23 1.284 1_545 S
Zn16 O15 1.899 . S
Zn16 O17 2.032 1_455 S
Zn16 O20 2.086 . S
Zn16 O25 1.977 . S
O17 Zn16 2.032 1_655 S
O17 C21 1.278 . S
C18 O19 1.203 . S
C18 O25 1.267 . S
O19 C18 1.203 . S
O20 C13 1.185 . S
O20 Zn16 2.086 . S
C21 O17 1.278 . S
C21 O22 1.211 . S
O22 C21 1.211 . S
C23 O15 1.284 1_565 S
C23 O24 1.273 1_455 S
O24 C23 1.273 1_655 S
O25 Zn16 1.977 . S
O25 C18 1.267 . S
C26 O27 1.168 . S
C26 O33 1.183 1_545 S
O27 C26 1.168 . S
O28 Zn29 1.899 1_655 S
O28 C36 1.284 . S
Zn29 O28 1.899 1_455 S
Zn29 O30 2.032 . S
Zn29 O33 2.086 1_545 S
Zn29 O38 1.977 1_445 S
O30 Zn29 2.032 . S
O30 C34 1.278 . S
C31 O32 1.203 . S
C31 O38 1.267 . S
O32 C31 1.203 . S
O33 C26 1.183 1_565 S
O33 Zn29 2.086 1_565 S
C34 O30 1.278 . S
C34 O35 1.211 . S
O35 C34 1.211 . S
C36 O28 1.284 . S
C36 O37 1.273 . S
O37 C36 1.273 . S
O38 Zn29 1.977 1_665 S
O38 C31 1.267 . S
H39 C58 0.949 . S
H40 C59 0.950 . S
H41 C61 0.950 . S
H42 C62 0.950 . S
H43 C64 0.950 . S
H44 C67 0.950 . S
H45 C68 0.950 . S
H46 C70 0.951 . S
H47 C71 0.949 . S
H48 C73 0.949 . S
H49 C74 0.950 . S
H50 C76 0.950 . S
H51 C77 0.950 . S
H52 C79 0.950 1_655 S
H53 C82 0.950 . S
H54 C83 0.950 . S
H55 C85 0.951 . S
H56 C86 0.949 . S
C57 C58 1.376 . S
C57 C62 1.386 1_455 S
C57 C63 1.483 . S
C58 H39 0.949 . S
C58 C57 1.376 . S
C58 C59 1.397 . S
C59 H40 0.950 . S
C59 C58 1.397 . S
C59 C60 1.391 . S
C60 C59 1.391 . S
C60 C61 1.405 1_455 S
C61 H41 0.950 . S
C61 C60 1.405 1_655 S
C61 C62 1.367 . S
C62 H42 0.950 . S
C62 C57 1.386 1_655 S
C62 C61 1.367 . S
C63 C57 1.483 . S
C63 C64 1.382 . S
C63 C65 1.403 . S
C64 H43 0.950 . S
C64 C63 1.382 . S
C64 C80 1.411 . S
C65 C63 1.403 . S
C65 C66 1.489 . S
C65 C79 1.411 . S
C66 C65 1.489 . S
C66 C67 1.383 . S
C66 C71 1.382 1_455 S
C67 H44 0.950 . S
C67 C66 1.383 . S
C67 C68 1.395 . S
C68 H45 0.950 . S
C68 C67 1.395 . S
C68 C69 1.288 . S
C69 C68 1.288 . S
C69 C70 1.392 1_455 S
C70 H46 0.951 . S
C70 C69 1.392 1_655 S
C70 C71 1.392 . S
C71 H47 0.949 . S
C71 C66 1.382 1_655 S
C71 C70 1.392 . S
C72 C73 1.376 1_455 S
C72 C77 1.386 . S
C72 C78 1.483 . S
C73 H48 0.949 . S
C73 C72 1.376 1_655 S
C73 C74 1.397 . S
C74 H49 0.950 . S
C74 C73 1.397 . S
C74 C75 1.391 1_655 S
C75 C74 1.391 1_455 S
C75 C76 1.405 . S
C76 H50 0.950 . S
C76 C75 1.405 . S
C76 C77 1.367 . S
C77 H51 0.950 . S
C77 C72 1.386 . S
C77 C76 1.367 . S
C78 C72 1.483 . S
C78 C79 1.382 . S
C78 C80 1.403 . S
C79 H52 0.950 1_455 S
C79 C65 1.411 . S
C79 C78 1.382 . S
C80 C64 1.411 . S
C80 C78 1.403 . S
C80 C81 1.489 . S
C81 C80 1.489 . S
C81 C82 1.383 1_455 S
C81 C86 1.382 . S
C82 H53 0.950 . S
C82 C81 1.383 1_655 S
C82 C83 1.395 . S
C83 H54 0.950 . S
C83 C82 1.395 . S
C83 C84 1.288 1_655 S
C84 C83 1.288 1_455 S
C84 C85 1.392 . S
C85 H55 0.951 . S
C85 C84 1.392 . S
C85 C86 1.392 . S
C86 H56 0.949 . S
C86 C81 1.382 . S
C86 C85 1.392 . S
H87 C106 0.949 . S
H88 C107 0.950 . S
H89 C109 0.950 . S
H90 C110 0.950 . S
H91 C112 0.950 . S
H92 C115 0.950 . S
H93 C116 0.950 . S
H94 C118 0.951 . S
H95 C119 0.949 . S
H96 C121 0.949 . S
H97 C122 0.950 . S
H98 C124 0.950 . S
H99 C125 0.950 . S
H100 C127 0.950 . S
H101 C130 0.950 . S
H102 C131 0.950 . S
H103 C133 0.951 . S
H104 C134 0.949 . S
C105 C106 1.376 . S
C105 C110 1.386 1_545 S
C105 C111 1.483 . S
C106 H87 0.949 . S
C106 C105 1.376 . S
C106 C107 1.397 . S
C107 H88 0.950 . S
C107 C106 1.397 . S
C107 C108 1.391 . S
C108 C107 1.391 . S
C108 C109 1.405 1_545 S
C109 H89 0.950 . S
C109 C108 1.405 1_565 S
C109 C110 1.367 . S
C110 H90 0.950 . S
C110 C105 1.386 1_565 S
C110 C109 1.367 . S
C111 C105 1.483 . S
C111 C112 1.382 . S
C111 C113 1.403 . S
C112 H91 0.950 . S
C112 C111 1.382 . S
C112 C128 1.411 . S
C113 C111 1.403 . S
C113 C114 1.489 . S
C113 C127 1.411 . S
C114 C113 1.489 . S
C114 C115 1.383 . S
C114 C119 1.382 1_545 S
C115 H92 0.950 . S
C115 C114 1.383 . S
C115 C116 1.395 . S
C116 H93 0.950 . S
C116 C115 1.395 . S
C116 C117 1.288 . S
C117 C116 1.288 . S
C117 C118 1.392 1_545 S
C118 H94 0.951 . S
C118 C117 1.392 1_565 S
C118 C119 1.392 . S
C119 H95 0.949 . S
C119 C114 1.382 1_565 S
C119 C118 1.392 . S
C120 C121 1.376 1_545 S
C120 C125 1.386 . S
C120 C126 1.483 . S
C121 H96 0.949 . S
C121 C120 1.376 1_565 S
C121 C122 1.397 . S
C122 H97 0.950 . S
C122 C121 1.397 . S
C122 C123 1.391 1_565 S
C123 C122 1.391 1_545 S
C123 C124 1.405 . S
C124 H98 0.950 . S
C124 C123 1.405 . S
C124 C125 1.367 . S
C125 H99 0.950 . S
C125 C120 1.386 . S
C125 C124 1.367 . S
C126 C120 1.483 . S
C126 C127 1.382 . S
C126 C128 1.403 . S
C127 H100 0.950 . S
C127 C113 1.411 . S
C127 C126 1.382 . S
C128 C112 1.411 . S
C128 C126 1.403 . S
C128 C129 1.489 . S
C129 C128 1.489 . S
C129 C130 1.383 1_545 S
C129 C134 1.382 . S
C130 H101 0.950 . S
C130 C129 1.383 1_565 S
C130 C131 1.395 . S
C131 H102 0.950 . S
C131 C130 1.395 . S
C131 C132 1.288 1_565 S
C132 C131 1.288 1_545 S
C132 C133 1.392 . S
C133 H103 0.951 . S
C133 C132 1.392 . S
C133 C134 1.392 . S
C134 H104 0.949 . S
C134 C129 1.382 . S
C134 C133 1.392 . S
H135 C154 0.949 . S
H136 C155 0.950 . S
H137 C157 0.950 . S
H138 C158 0.950 . S
H139 C160 0.950 . S
H140 C163 0.950 . S
H141 C164 0.950 . S
H142 C166 0.951 . S
H143 C167 0.949 . S
H144 C169 0.949 . S
H145 C170 0.950 . S
H146 C172 0.950 . S
H147 C173 0.950 . S
H148 C175 0.950 . S
H149 C178 0.950 . S
H150 C179 0.950 . S
H151 C181 0.951 . S
H152 C182 0.949 . S
C153 C154 1.376 . S
C153 C158 1.386 . S
C153 C159 1.483 . S
C154 H135 0.949 . S
C154 C153 1.376 . S
C154 C155 1.397 . S
C155 H136 0.950 . S
C155 C154 1.397 . S
C155 C156 1.391 . S
C156 C155 1.391 . S
C156 C157 1.405 . S
C157 H137 0.950 . S
C157 C156 1.405 . S
C157 C158 1.367 . S
C158 H138 0.950 . S
C158 C153 1.386 . S
C158 C157 1.367 . S
C159 C153 1.483 . S
C159 C160 1.382 . S
C159 C161 1.403 . S
C160 H139 0.950 . S
C160 C159 1.382 . S
C160 C176 1.411 . S
C161 C159 1.403 . S
C161 C162 1.489 . S
C161 C175 1.411 . S
C162 C161 1.489 . S
C162 C163 1.383 . S
C162 C167 1.382 . S
C163 H140 0.950 . S
C163 C162 1.383 . S
C163 C164 1.395 . S
C164 H141 0.950 . S
C164 C163 1.395 . S
C164 C165 1.288 . S
C165 C164 1.288 . S
C165 C166 1.392 . S
C166 H142 0.951 . S
C166 C165 1.392 . S
C166 C167 1.392 . S
C167 H143 0.949 . S
C167 C162 1.382 . S
C167 C166 1.392 . S
C168 C169 1.376 . S
C168 C173 1.386 . S
C168 C174 1.483 . S
C169 H144 0.949 . S
C169 C168 1.376 . S
C169 C170 1.397 . S
C170 H145 0.950 . S
C170 C169 1.397 . S
C170 C171 1.391 . S
C171 C170 1.391 . S
C171 C172 1.405 . S
C172 H146 0.950 . S
C172 C171 1.405 . S
C172 C173 1.367 . S
C173 H147 0.950 . S
C173 C168 1.386 . S
C173 C172 1.367 . S
C174 C168 1.483 . S
C174 C175 1.382 . S
C174 C176 1.403 . S
C175 H148 0.950 . S
C175 C161 1.411 . S
C175 C174 1.382 . S
C176 C160 1.411 . S
C176 C174 1.403 . S
C176 C177 1.489 . S
C177 C176 1.489 . S
C177 C178 1.383 . S
C177 C182 1.382 . S
C178 H149 0.950 . S
C178 C177 1.383 . S
C178 C179 1.395 . S
C179 H150 0.950 . S
C179 C178 1.395 . S
C179 C180 1.288 . S
C180 C179 1.288 . S
C180 C181 1.392 . S
C181 H151 0.951 . S
C181 C180 1.392 . S
C181 C182 1.392 . S
C182 H152 0.949 . S
C182 C177 1.382 . S
C182 C181 1.392 . S
H183 C201 0.951 . S
H184 C203 0.951 . S
H185 C205 0.950 . S
H186 C206 0.950 . S
H187 C208 0.950 . S
H188 C211 0.950 1_655 S
H189 C212 0.950 . S
H190 C214 0.950 . S
H191 C215 0.950 . S
H192 C216 0.951 . S
H193 C218 0.951 . S
H194 C220 0.950 . S
H195 C221 0.950 . S
H196 C223 0.950 . S
H197 C226 0.950 1_455 S
H198 C227 0.950 1_455 S
H199 C229 0.950 . S
H200 C230 0.950 . S
C201 H183 0.951 . S
C201 C202 1.366 . S
C201 C203 1.388 . S
C202 C201 1.366 . S
C202 C206 1.385 1_455 S
C203 H184 0.951 . S
C203 C201 1.388 . S
C203 C204 1.366 . S
C204 C203 1.366 . S
C204 C205 1.414 1_455 S
C204 C207 1.499 . S
C205 H185 0.950 . S
C205 C204 1.414 1_655 S
C205 C206 1.374 . S
C206 H186 0.950 . S
C206 C202 1.385 1_655 S
C206 C205 1.374 . S
C207 C204 1.499 . S
C207 C208 1.373 1_455 S
C207 C209 1.389 . S
C208 H187 0.950 . S
C208 C207 1.373 1_655 S
C208 C224 1.377 . S
C209 C207 1.389 . S
C209 C210 1.524 . S
C209 C223 1.377 . S
C210 C209 1.524 . S
C210 C211 1.397 . S
C210 C215 1.363 . S
C211 H188 0.950 1_455 S
C211 C210 1.397 . S
C211 C212 1.334 . S
C212 H189 0.950 . S
C212 C211 1.334 . S
C212 C213 1.287 . S
C213 C212 1.287 . S
C213 C214 1.524 . S
C213 H232 0.913 . S
C214 H190 0.950 . S
C214 C213 1.524 . S
C214 C215 1.415 . S
C215 H191 0.950 . S
C215 C210 1.363 . S
C215 C214 1.415 . S
C216 H192 0.951 . S
C216 C217 1.366 1_655 S
C216 C218 1.388 . S
C217 C216 1.366 1_455 S
C217 C221 1.385 . S
C218 H193 0.951 . S
C218 C216 1.388 . S
C218 C219 1.366 1_655 S
C219 C218 1.366 1_455 S
C219 C220 1.414 . S
C219 C222 1.499 . S
C220 H194 0.950 . S
C220 C219 1.414 . S
C220 C221 1.374 . S
C221 H195 0.950 . S
C221 C217 1.385 . S
C221 C220 1.374 . S
C222 C219 1.499 . S
C222 C223 1.373 . S
C222 C224 1.389 1_455 S
C223 H196 0.950 . S
C223 C209 1.377 . S
C223 C222 1.373 . S
C224 C208 1.377 . S
C224 C222 1.389 1_655 S
C224 C225 1.524 . S
C225 C224 1.524 . S
C225 C226 1.397 . S
C225 C230 1.363 . S
C226 H197 0.950 1_655 S
C226 C225 1.397 . S
C226 C227 1.334 . S
C227 H198 0.950 1_655 S
C227 C226 1.334 . S
C227 C228 1.287 . S
C228 C227 1.287 . S
C228 C229 1.524 . S
C228 H231 0.999 . S
C229 H199 0.950 . S
C229 C228 1.524 . S
C229 C230 1.415 . S
C230 H200 0.950 . S
C230 C225 1.363 . S
C230 C229 1.415 . S
H231 C228 0.999 . S
H232 C213 0.913 . S
H233 C251 0.951 . S
H234 C253 0.951 . S
H235 C255 0.950 . S
H236 C256 0.950 . S
H237 C258 0.950 1_565 S
H238 C261 0.950 . S
H239 C262 0.950 . S
H240 C264 0.950 . S
H241 C265 0.950 . S
H242 C266 0.951 . S
H243 C268 0.951 . S
H244 C270 0.950 . S
H245 C271 0.950 . S
H246 C273 0.950 . S
H247 C276 0.950 . S
H248 C277 0.950 . S
H249 C279 0.950 . S
H250 C280 0.950 . S
C251 H233 0.951 . S
C251 C252 1.366 . S
C251 C253 1.388 . S
C252 C251 1.366 . S
C252 C256 1.385 1_545 S
C253 H234 0.951 . S
C253 C251 1.388 . S
C253 C254 1.366 . S
C254 C253 1.366 . S
C254 C255 1.414 1_545 S
C254 C257 1.499 . S
C255 H235 0.950 . S
C255 C254 1.414 1_565 S
C255 C256 1.374 . S
C256 H236 0.950 . S
C256 C252 1.385 1_565 S
C256 C255 1.374 . S
C257 C254 1.499 . S
C257 C258 1.373 . S
C257 C259 1.389 . S
C258 H237 0.950 1_545 S
C258 C257 1.373 . S
C258 C274 1.377 . S
C259 C257 1.389 . S
C259 C260 1.524 . S
C259 C273 1.377 . S
C260 C259 1.524 . S
C260 C261 1.397 . S
C260 C265 1.363 . S
C261 H238 0.950 . S
C261 C260 1.397 . S
C261 C262 1.334 . S
C262 H239 0.950 . S
C262 C261 1.334 . S
C262 C263 1.287 . S
C263 C262 1.287 . S
C263 C264 1.524 . S
C263 H282 0.913 . S
C264 H240 0.950 . S
C264 C263 1.524 . S
C264 C265 1.415 . S
C265 H241 0.950 . S
C265 C260 1.363 . S
C265 C264 1.415 . S
C266 H242 0.951 . S
C266 C267 1.366 1_565 S
C266 C268 1.388 . S
C267 C266 1.366 1_545 S
C267 C271 1.385 . S
C268 H243 0.951 . S
C268 C266 1.388 . S
C268 C269 1.366 1_565 S
C269 C268 1.366 1_545 S
C269 C270 1.414 . S
C269 C272 1.499 . S
C270 H244 0.950 . S
C270 C269 1.414 . S
C270 C271 1.374 . S
C271 H245 0.950 . S
C271 C267 1.385 . S
C271 C270 1.374 . S
C272 C269 1.499 . S
C272 C273 1.373 . S
C272 C274 1.389 . S
C273 H246 0.950 . S
C273 C259 1.377 . S
C273 C272 1.373 . S
C274 C258 1.377 . S
C274 C272 1.389 . S
C274 C275 1.524 1_545 S
C275 C274 1.524 1_565 S
C275 C276 1.397 1_565 S
C275 C280 1.363 . S
C276 H247 0.950 . S
C276 C275 1.397 1_545 S
C276 C277 1.334 . S
C277 H248 0.950 . S
C277 C276 1.334 . S
C277 C278 1.287 1_545 S
C278 C277 1.287 1_565 S
C278 C279 1.524 . S
C278 H281 0.999 . S
C279 H249 0.950 . S
C279 C278 1.524 . S
C279 C280 1.415 . S
C280 H250 0.950 . S
C280 C275 1.363 . S
C280 C279 1.415 . S
H281 C278 0.999 . S
H282 C263 0.913 . S
H283 C301 0.951 . S
H284 C303 0.951 . S
H285 C305 0.950 . S
H286 C306 0.950 . S
H287 C308 0.950 . S
H288 C311 0.950 . S
H289 C312 0.950 . S
H290 C314 0.950 . S
H291 C315 0.950 . S
H292 C316 0.951 . S
H293 C318 0.951 . S
H294 C320 0.950 . S
H295 C321 0.950 . S
H296 C323 0.950 . S
H297 C326 0.950 . S
H298 C327 0.950 . S
H299 C329 0.950 . S
H300 C330 0.950 . S
C301 H283 0.951 . S
C301 C302 1.366 . S
C301 C303 1.388 . S
C302 C301 1.366 . S
C302 C306 1.385 . S
C303 H284 0.951 . S
C303 C301 1.388 . S
C303 C304 1.366 . S
C304 C303 1.366 . S
C304 C305 1.414 . S
C304 C307 1.499 . S
C305 H285 0.950 . S
C305 C304 1.414 . S
C305 C306 1.374 . S
C306 H286 0.950 . S
C306 C302 1.385 . S
C306 C305 1.374 . S
C307 C304 1.499 . S
C307 C308 1.373 . S
C307 C309 1.389 . S
C308 H287 0.950 . S
C308 C307 1.373 . S
C308 C324 1.377 . S
C309 C307 1.389 . S
C309 C310 1.524 . S
C309 C323 1.377 . S
C310 C309 1.524 . S
C310 C311 1.397 . S
C310 C315 1.363 . S
C311 H288 0.950 . S
C311 C310 1.397 . S
C311 C312 1.334 . S
C312 H289 0.950 . S
C312 C311 1.334 . S
C312 C313 1.287 . S
C313 C312 1.287 . S
C313 C314 1.524 . S
C313 H332 0.913 . S
C314 H290 0.950 . S
C314 C313 1.524 . S
C314 C315 1.415 . S
C315 H291 0.950 . S
C315 C310 1.363 . S
C315 C314 1.415 . S
C316 H292 0.951 . S
C316 C317 1.366 . S
C316 C318 1.388 . S
C317 C316 1.366 . S
C317 C321 1.385 . S
C318 H293 0.951 . S
C318 C316 1.388 . S
C318 C319 1.366 . S
C319 C318 1.366 . S
C319 C320 1.414 . S
C319 C322 1.499 . S
C320 H294 0.950 . S
C320 C319 1.414 . S
C320 C321 1.374 . S
C321 H295 0.950 . S
C321 C317 1.385 . S
C321 C320 1.374 . S
C322 C319 1.499 . S
C322 C323 1.373 . S
C322 C324 1.389 . S
C323 H296 0.950 . S
C323 C309 1.377 . S
C323 C322 1.373 . S
C324 C308 1.377 . S
C324 C322 1.389 . S
C324 C325 1.524 . S
C325 C324 1.524 . S
C325 C326 1.397 . S
C325 C330 1.363 . S
C326 H297 0.950 . S
C326 C325 1.397 . S
C326 C327 1.334 . S
C327 H298 0.950 . S
C327 C326 1.334 . S
C327 C328 1.287 . S
C328 C327 1.287 . S
C328 C329 1.524 . S
C328 H331 0.999 . S
C329 H299 0.950 . S
C329 C328 1.524 . S
C329 C330 1.415 . S
C330 H300 0.950 . S
C330 C325 1.363 . S
C330 C329 1.415 . S
H331 C328 0.999 . S
H332 C313 0.913 . S
H333 C351 0.951 . S
H334 C353 0.951 . S
H335 C355 0.950 . S
H336 C356 0.950 . S
H337 C358 0.950 . S
H338 C361 0.950 . S
H339 C362 0.950 . S
H340 C364 0.950 . S
H341 C365 0.950 . S
H342 C366 0.951 . S
H343 C368 0.951 . S
H344 C370 0.950 . S
H345 C371 0.950 . S
H346 C373 0.950 . S
H347 C376 0.950 . S
H348 C377 0.950 . S
H349 C379 0.950 . S
H350 C380 0.950 . S
C351 H333 0.951 . S
C351 C352 1.366 . S
C351 C353 1.388 . S
C352 C351 1.366 . S
C352 C356 1.385 . S
C353 H334 0.951 . S
C353 C351 1.388 . S
C353 C354 1.366 . S
C354 C353 1.366 . S
C354 C355 1.414 . S
C354 C357 1.499 . S
C355 H335 0.950 . S
C355 C354 1.414 . S
C355 C356 1.374 . S
C356 H336 0.950 . S
C356 C352 1.385 . S
C356 C355 1.374 . S
C357 C354 1.499 . S
C357 C358 1.373 1_455 S
C357 C359 1.389 . S
C358 H337 0.950 . S
C358 C357 1.373 1_655 S
C358 C374 1.377 . S
C359 C357 1.389 . S
C359 C360 1.524 . S
C359 C373 1.377 . S
C360 C359 1.524 . S
C360 C361 1.397 . S
C360 C365 1.363 . S
C361 H338 0.950 . S
C361 C360 1.397 . S
C361 C362 1.334 . S
C362 H339 0.950 . S
C362 C361 1.334 . S
C362 C363 1.287 . S
C363 C362 1.287 . S
C363 C364 1.524 . S
C363 H382 0.913 . S
C364 H340 0.950 . S
C364 C363 1.524 . S
C364 C365 1.415 . S
C365 H341 0.950 . S
C365 C360 1.363 . S
C365 C364 1.415 . S
C366 H342 0.951 . S
C366 C367 1.366 1_655 S
C366 C368 1.388 . S
C367 C366 1.366 1_455 S
C367 C371 1.385 . S
C368 H343 0.951 . S
C368 C366 1.388 . S
C368 C369 1.366 1_655 S
C369 C368 1.366 1_455 S
C369 C370 1.414 . S
C369 C372 1.499 . S
C370 H344 0.950 . S
C370 C369 1.414 . S
C370 C371 1.374 . S
C371 H345 0.950 . S
C371 C367 1.385 . S
C371 C370 1.374 . S
C372 C369 1.499 . S
C372 C373 1.373 . S
C372 C374 1.389 1_455 S
C373 H346 0.950 . S
C373 C359 1.377 . S
C373 C372 1.373 . S
C374 C358 1.377 . S
C374 C372 1.389 1_655 S
C374 C375 1.524 . S
C375 C374 1.524 . S
C375 C376 1.397 . S
C375 C380 1.363 . S
C376 H347 0.950 . S
C376 C375 1.397 . S
C376 C377 1.334 . S
C377 H348 0.950 . S
C377 C376 1.334 . S
C377 C378 1.287 . S
C378 C377 1.287 . S
C378 C379 1.524 . S
C378 H381 0.999 . S
C379 H349 0.950 . S
C379 C378 1.524 . S
C379 C380 1.415 . S
C380 H350 0.950 . S
C380 C375 1.363 . S
C380 C379 1.415 . S
H381 C378 0.999 . S
H382 C363 0.913 . S
H383 C401 0.951 . S
H384 C403 0.951 . S
H385 C405 0.950 1_565 S
H386 C406 0.950 . S
H387 C408 0.950 1_565 S
H388 C411 0.950 . S
H389 C412 0.950 . S
H390 C414 0.950 . S
H391 C415 0.950 . S
H392 C416 0.951 . S
H393 C418 0.963 . S
H394 C420 0.950 . S
H395 C421 0.950 . S
H396 C423 0.950 . S
H397 C426 0.950 . S
H398 C427 0.950 . S
H399 C429 0.950 . S
H400 C430 0.950 . S
C401 H383 0.951 . S
C401 C402 1.366 . S
C401 C403 1.388 . S
C402 C401 1.366 . S
C402 C406 1.385 . S
C403 H384 0.951 . S
C403 C401 1.388 . S
C403 C404 1.366 . S
C404 C403 1.366 . S
C404 C405 1.414 . S
C404 C407 1.499 . S
C405 H385 0.950 1_545 S
C405 C404 1.414 . S
C405 C406 1.374 . S
C406 H386 0.950 . S
C406 C402 1.385 . S
C406 C405 1.374 . S
C407 C404 1.499 . S
C407 C408 1.373 . S
C407 C409 1.389 . S
C408 H387 0.950 1_545 S
C408 C407 1.373 . S
C408 C424 1.377 . S
C409 C407 1.389 . S
C409 C410 1.524 . S
C409 C423 1.377 . S
C410 C409 1.524 . S
C410 C411 1.397 . S
C410 C415 1.363 . S
C411 H388 0.950 . S
C411 C410 1.397 . S
C411 C412 1.334 . S
C412 H389 0.950 . S
C412 C411 1.334 . S
C412 C413 1.287 . S
C413 C412 1.287 . S
C413 C414 1.524 . S
C413 H432 0.913 . S
C414 H390 0.950 . S
C414 C413 1.524 . S
C414 C415 1.415 . S
C415 H391 0.950 . S
C415 C410 1.363 . S
C415 C414 1.415 . S
C416 H392 0.951 . S
C416 C417 1.366 1_565 S
C416 C418 1.400 . S
C417 C416 1.366 1_545 S
C417 C421 1.385 . S
C418 H393 0.963 . S
C418 C416 1.400 . S
C418 C419 1.342 1_565 S
C419 C418 1.342 1_545 S
C419 C420 1.414 . S
C419 C422 1.499 . S
C420 H394 0.950 . S
C420 C419 1.414 . S
C420 C421 1.374 . S
C421 H395 0.950 . S
C421 C417 1.385 . S
C421 C420 1.374 . S
C422 C419 1.499 . S
C422 C423 1.373 . S
C422 C424 1.389 . S
C423 H396 0.950 . S
C423 C409 1.377 . S
C423 C422 1.373 . S
C424 C408 1.377 . S
C424 C422 1.389 . S
C424 C425 1.524 1_545 S
C425 C424 1.524 1_565 S
C425 C426 1.397 . S
C425 C430 1.363 . S
C426 H397 0.950 . S
C426 C425 1.397 . S
C426 C427 1.334 . S
C427 H398 0.950 . S
C427 C426 1.334 . S
C427 C428 1.287 . S
C428 C427 1.287 . S
C428 C429 1.524 . S
C428 H431 0.999 . S
C429 H399 0.950 . S
C429 C428 1.524 . S
C429 C430 1.415 . S
C430 H400 0.950 . S
C430 C425 1.363 . S
C430 C429 1.415 . S
H431 C428 0.999 . S
H432 C413 0.913 . S
H433 C451 0.951 . S
H434 C453 0.951 . S
H435 C455 0.950 . S
H436 C456 0.950 . S
H437 C458 0.950 . S
H438 C461 0.950 . S
H439 C462 0.950 . S
H440 C464 0.950 . S
H441 C465 0.950 . S
H442 C466 0.951 . S
H443 C468 0.951 . S
H444 C470 0.950 . S
H445 C471 0.950 . S
H446 C473 0.950 . S
H447 C476 0.950 . S
H448 C477 0.950 . S
H449 C479 0.950 . S
H450 C480 0.950 . S
C451 H433 0.951 . S
C451 C452 1.366 . S
C451 C453 1.388 . S
C452 C451 1.366 . S
C452 C456 1.385 . S
C453 H434 0.951 . S
C453 C451 1.388 . S
C453 C454 1.366 . S
C454 C453 1.366 . S
C454 C455 1.414 . S
C454 C457 1.499 . S
C455 H435 0.950 . S
C455 C454 1.414 . S
C455 C456 1.374 . S
C456 H436 0.950 . S
C456 C452 1.385 . S
C456 C455 1.374 . S
C457 C454 1.499 . S
C457 C458 1.373 . S
C457 C459 1.389 . S
C458 H437 0.950 . S
C458 C457 1.373 . S
C458 C474 1.377 . S
C459 C457 1.389 . S
C459 C460 1.524 . S
C459 C473 1.377 . S
C460 C459 1.524 . S
C460 C461 1.397 . S
C460 C465 1.363 . S
C461 H438 0.950 . S
C461 C460 1.397 . S
C461 C462 1.334 . S
C462 H439 0.950 . S
C462 C461 1.334 . S
C462 C463 1.287 . S
C463 C462 1.287 . S
C463 C464 1.524 . S
C463 H482 0.913 . S
C464 H440 0.950 . S
C464 C463 1.524 . S
C464 C465 1.415 . S
C465 H441 0.950 . S
C465 C460 1.363 . S
C465 C464 1.415 . S
C466 H442 0.951 . S
C466 C467 1.366 . S
C466 C468 1.388 . S
C467 C466 1.366 . S
C467 C471 1.385 . S
C468 H443 0.951 . S
C468 C466 1.388 . S
C468 C469 1.366 . S
C469 C468 1.366 . S
C469 C470 1.414 . S
C469 C472 1.499 . S
C470 H444 0.950 . S
C470 C469 1.414 . S
C470 C471 1.374 . S
C471 H445 0.950 . S
C471 C467 1.385 . S
C471 C470 1.374 . S
C472 C469 1.499 . S
C472 C473 1.373 . S
C472 C474 1.389 . S
C473 H446 0.950 . S
C473 C459 1.377 . S
C473 C472 1.373 . S
C474 C458 1.377 . S
C474 C472 1.389 . S
C474 C475 1.524 . S
C475 C474 1.524 . S
C475 C476 1.397 . S
C475 C480 1.363 . S
C476 H447 0.950 . S
C476 C475 1.397 . S
C476 C477 1.334 . S
C477 H448 0.950 . S
C477 C476 1.334 . S
C477 C478 1.287 . S
C478 C477 1.287 . S
C478 C479 1.524 . S
C478 H481 0.999 . S
C479 H449 0.950 . S
C479 C478 1.524 . S
C479 C480 1.415 . S
C480 H450 0.950 . S
C480 C475 1.363 . S
C480 C479 1.415 . S
H481 C478 0.999 . S
H482 C463 0.913 . S
H483 C501 0.951 . S
H484 C503 0.951 . S
H485 C505 0.950 . S
H486 C506 0.950 . S
H487 C508 0.950 . S
H488 C511 0.950 . S
H489 C512 0.950 . S
H490 C514 0.950 . S
H491 C515 0.950 . S
H492 C516 0.951 . S
H493 C518 0.951 . S
H494 C520 0.950 . S
H495 C521 0.950 . S
H496 C523 0.950 . S
H497 C526 0.950 . S
H498 C527 0.950 . S
H499 C529 0.950 . S
H500 C530 0.950 . S
C501 H483 0.951 . S
C501 C502 1.366 . S
C501 C503 1.388 . S
C502 C501 1.366 . S
C502 C506 1.385 . S
C503 H484 0.951 . S
C503 C501 1.388 . S
C503 C504 1.366 . S
C504 C503 1.366 . S
C504 C505 1.414 . S
C504 C507 1.499 . S
C505 H485 0.950 . S
C505 C504 1.414 . S
C505 C506 1.374 . S
C506 H486 0.950 . S
C506 C502 1.385 . S
C506 C505 1.374 . S
C507 C504 1.499 . S
C507 C508 1.373 1_545 S
C507 C509 1.389 . S
C508 H487 0.950 . S
C508 C507 1.373 1_565 S
C508 C524 1.377 . S
C509 C507 1.389 . S
C509 C510 1.524 . S
C509 C523 1.377 . S
C510 C509 1.524 . S
C510 C511 1.397 . S
C510 C515 1.363 . S
C511 H488 0.950 . S
C511 C510 1.397 . S
C511 C512 1.334 . S
C512 H489 0.950 . S
C512 C511 1.334 . S
C512 C513 1.287 . S
C513 C512 1.287 . S
C513 C514 1.524 . S
C513 H532 0.913 . S
C514 H490 0.950 . S
C514 C513 1.524 . S
C514 C515 1.415 . S
C515 H491 0.950 . S
C515 C510 1.363 . S
C515 C514 1.415 . S
C516 H492 0.951 . S
C516 C517 1.366 . S
C516 C518 1.388 . S
C517 C516 1.366 . S
C517 C521 1.385 . S
C518 H493 0.951 . S
C518 C516 1.388 . S
C518 C519 1.366 . S
C519 C518 1.366 . S
C519 C520 1.414 . S
C519 C522 1.499 . S
C520 H494 0.950 . S
C520 C519 1.414 . S
C520 C521 1.374 . S
C521 H495 0.950 . S
C521 C517 1.385 . S
C521 C520 1.374 . S
C522 C519 1.499 . S
C522 C523 1.373 . S
C522 C524 1.389 1_545 S
C523 H496 0.950 . S
C523 C509 1.377 . S
C523 C522 1.373 . S
C524 C508 1.377 . S
C524 C522 1.389 1_565 S
C524 C525 1.524 . S
C525 C524 1.524 . S
C525 C526 1.397 . S
C525 C530 1.363 . S
C526 H497 0.950 . S
C526 C525 1.397 . S
C526 C527 1.334 . S
C527 H498 0.950 . S
C527 C526 1.334 . S
C527 C528 1.287 . S
C528 C527 1.287 . S
C528 C529 1.524 . S
C528 H531 0.999 . S
C529 H499 0.950 . S
C529 C528 1.524 . S
C529 C530 1.415 . S
C530 H500 0.950 . S
C530 C525 1.363 . S
C530 C529 1.415 . S
H531 C528 0.999 . S
H532 C513 0.913 . S
H533 C551 0.951 . S
H534 C553 0.951 . S
H535 C555 0.951 . S
H536 C556 0.950 . S
H537 C558 0.950 . S
H538 C561 0.950 . S
H539 C562 0.950 . S
H540 C564 0.950 . S
H541 C565 0.950 . S
H542 C566 0.951 . S
H543 C568 0.951 . S
H544 C570 0.950 . S
H545 C571 0.950 . S
H546 C573 0.950 . S
H547 C576 0.950 . S
H548 C577 0.950 . S
H549 C579 0.950 . S
H550 C580 0.950 . S
C551 H533 0.951 . S
C551 C552 1.391 . S
C551 C553 1.365 1_554 S
C552 C551 1.391 . S
C552 C556 1.385 . S
C553 H534 0.951 . S
C553 C551 1.365 1_556 S
C553 C554 1.366 . S
C554 C553 1.366 . S
C554 C555 1.394 1_556 S
C554 C557 1.499 . S
C555 H535 0.951 . S
C555 C554 1.394 1_554 S
C555 C556 1.394 . S
C556 H536 0.950 . S
C556 C552 1.385 . S
C556 C555 1.394 . S
C557 C554 1.499 . S
C557 C558 1.373 . S
C557 C559 1.389 . S
C558 H537 0.950 . S
C558 C557 1.373 . S
C558 C574 1.377 . S
C559 C557 1.389 . S
C559 C560 1.524 . S
C559 C573 1.377 . S
C560 C559 1.524 . S
C560 C561 1.397 1_556 S
C560 C565 1.363 . S
C561 H538 0.950 . S
C561 C560 1.397 1_554 S
C561 C562 1.334 . S
C562 H539 0.950 . S
C562 C561 1.334 . S
C562 C563 1.287 . S
C563 C562 1.287 . S
C563 C564 1.524 1_554 S
C563 H582 0.913 . S
C564 H540 0.950 . S
C564 C563 1.524 1_556 S
C564 C565 1.415 . S
C565 H541 0.950 . S
C565 C560 1.363 . S
C565 C564 1.415 . S
C566 H542 0.951 . S
C566 C567 1.366 . S
C566 C568 1.388 . S
C567 C566 1.366 . S
C567 C571 1.385 . S
C568 H543 0.951 . S
C568 C566 1.388 . S
C568 C569 1.366 . S
C569 C568 1.366 . S
C569 C570 1.414 . S
C569 C572 1.499 . S
C570 H544 0.950 . S
C570 C569 1.414 . S
C570 C571 1.374 . S
C571 H545 0.950 . S
C571 C567 1.385 . S
C571 C570 1.374 . S
C572 C569 1.499 . S
C572 C573 1.373 . S
C572 C574 1.389 . S
C573 H546 0.950 . S
C573 C559 1.377 . S
C573 C572 1.373 . S
C574 C558 1.377 . S
C574 C572 1.389 . S
C574 C575 1.524 . S
C575 C574 1.524 . S
C575 C576 1.397 . S
C575 C580 1.363 . S
C576 H547 0.950 . S
C576 C575 1.397 . S
C576 C577 1.334 . S
C577 H548 0.950 . S
C577 C576 1.334 . S
C577 C578 1.287 . S
C578 C577 1.287 . S
C578 C579 1.524 . S
C578 H581 0.999 . S
C579 H549 0.950 . S
C579 C578 1.524 . S
C579 C580 1.415 . S
C580 H550 0.950 . S
C580 C575 1.363 . S
C580 C579 1.415 . S
H581 C578 0.999 . S
H582 C563 0.913 . S
H583 C601 0.951 . S
H584 C603 0.951 . S
H585 C605 0.950 . S
H586 C606 0.950 . S
H587 C608 0.950 . S
H588 C611 0.950 1_455 S
H589 C612 0.950 . S
H590 C614 0.950 . S
H591 C615 0.950 . S
H592 C616 0.951 . S
H593 C618 0.951 . S
H594 C620 0.950 . S
H595 C621 0.950 . S
H596 C623 0.950 . S
H597 C626 0.950 . S
H598 C627 0.950 . S
H599 C629 0.950 . S
H600 C630 0.950 . S
C601 H583 0.951 . S
C601 C602 1.366 1_655 S
C601 C603 1.388 . S
C602 C601 1.366 1_455 S
C602 C606 1.385 . S
C603 H584 0.951 . S
C603 C601 1.388 . S
C603 C604 1.366 1_655 S
C604 C603 1.366 1_455 S
C604 C605 1.414 . S
C604 C607 1.499 . S
C605 H585 0.950 . S
C605 C604 1.414 . S
C605 C606 1.374 . S
C606 H586 0.950 . S
C606 C602 1.385 . S
C606 C605 1.374 . S
C607 C604 1.499 . S
C607 C608 1.373 . S
C607 C609 1.389 1_455 S
C608 H587 0.950 . S
C608 C607 1.373 . S
C608 C624 1.377 . S
C609 C607 1.389 1_655 S
C609 C610 1.524 . S
C609 C623 1.377 . S
C610 C609 1.524 . S
C610 C611 1.397 . S
C610 C615 1.363 . S
C611 H588 0.950 1_655 S
C611 C610 1.397 . S
C611 C612 1.334 . S
C612 H589 0.950 . S
C612 C611 1.334 . S
C612 C613 1.287 . S
C613 C612 1.287 . S
C613 C614 1.524 . S
C613 H632 0.913 . S
C614 H590 0.950 . S
C614 C613 1.524 . S
C614 C615 1.415 . S
C615 H591 0.950 . S
C615 C610 1.363 . S
C615 C614 1.415 . S
C616 H592 0.951 . S
C616 C617 1.366 . S
C616 C618 1.388 . S
C617 C616 1.366 . S
C617 C621 1.385 1_455 S
C618 H593 0.951 . S
C618 C616 1.388 . S
C618 C619 1.366 . S
C619 C618 1.366 . S
C619 C620 1.414 1_455 S
C619 C622 1.499 . S
C620 H594 0.950 . S
C620 C619 1.414 1_655 S
C620 C621 1.374 . S
C621 H595 0.950 . S
C621 C617 1.385 1_655 S
C621 C620 1.374 . S
C622 C619 1.499 . S
C622 C623 1.373 1_455 S
C622 C624 1.389 . S
C623 H596 0.950 . S
C623 C609 1.377 . S
C623 C622 1.373 1_655 S
C624 C608 1.377 . S
C624 C622 1.389 . S
C624 C625 1.524 . S
C625 C624 1.524 . S
C625 C626 1.397 . S
C625 C630 1.363 . S
C626 H597 0.950 . S
C626 C625 1.397 . S
C626 C627 1.334 . S
C627 H598 0.950 . S
C627 C626 1.334 . S
C627 C628 1.287 . S
C628 C627 1.287 . S
C628 C629 1.524 . S
C628 H631 0.999 . S
C629 H599 0.950 . S
C629 C628 1.524 . S
C629 C630 1.415 . S
C630 H600 0.950 . S
C630 C625 1.363 . S
C630 C629 1.415 . S
H631 C628 0.999 . S
H632 C613 0.913 . S
H633 C651 0.951 . S
H634 C653 0.951 . S
H635 C655 0.950 . S
H636 C656 0.950 . S
H637 C658 0.950 . S
H638 C661 0.950 . S
H639 C662 0.950 . S
H640 C664 0.950 . S
H641 C665 0.950 . S
H642 C666 0.951 1_565 S
H643 C668 0.951 1_565 S
H644 C670 0.950 . S
H645 C671 0.950 . S
H646 C673 0.950 . S
H647 C676 0.950 . S
H648 C677 0.950 . S
H649 C679 0.950 . S
H650 C680 0.950 . S
C651 H633 0.951 . S
C651 C652 1.366 1_545 S
C651 C653 1.388 . S
C652 C651 1.366 1_565 S
C652 C656 1.385 . S
C653 H634 0.951 . S
C653 C651 1.388 . S
C653 C654 1.348 1_545 S
C654 C653 1.348 1_565 S
C654 C655 1.421 . S
C654 C657 1.521 1_565 S
C655 H635 0.950 . S
C655 C654 1.421 . S
C655 C656 1.374 . S
C656 H636 0.950 . S
C656 C652 1.385 . S
C656 C655 1.374 . S
C657 C654 1.521 1_545 S
C657 C658 1.376 . S
C657 C659 1.378 1_545 S
C658 H637 0.950 . S
C658 C657 1.376 . S
C658 C674 1.377 . S
C659 C657 1.378 1_565 S
C659 C660 1.524 . S
C659 C673 1.377 . S
C660 C659 1.524 . S
C660 C661 1.397 . S
C660 C665 1.363 . S
C661 H638 0.950 . S
C661 C660 1.397 . S
C661 C662 1.334 . S
C662 H639 0.950 . S
C662 C661 1.334 . S
C662 C663 1.287 . S
C663 C662 1.287 . S
C663 C664 1.524 . S
C663 H682 0.913 . S
C664 H640 0.950 . S
C664 C663 1.524 . S
C664 C665 1.415 . S
C665 H641 0.950 . S
C665 C660 1.363 . S
C665 C664 1.415 . S
C666 H642 0.951 1_545 S
C666 C667 1.366 . S
C666 C668 1.388 . S
C667 C666 1.366 . S
C667 C671 1.385 . S
C668 H643 0.951 1_545 S
C668 C666 1.388 . S
C668 C669 1.366 . S
C669 C668 1.366 . S
C669 C670 1.414 . S
C669 C672 1.499 . S
C670 H644 0.950 . S
C670 C669 1.414 . S
C670 C671 1.374 . S
C671 H645 0.950 . S
C671 C667 1.385 . S
C671 C670 1.374 . S
C672 C669 1.499 . S
C672 C673 1.373 1_545 S
C672 C674 1.389 . S
C673 H646 0.950 . S
C673 C659 1.377 . S
C673 C672 1.373 1_565 S
C674 C658 1.377 . S
C674 C672 1.389 . S
C674 C675 1.524 . S
C675 C674 1.524 . S
C675 C676 1.397 . S
C675 C680 1.363 . S
C676 H647 0.950 . S
C676 C675 1.397 . S
C676 C677 1.334 . S
C677 H648 0.950 . S
C677 C676 1.334 . S
C677 C678 1.287 . S
C678 C677 1.287 . S
C678 C679 1.524 . S
C678 H681 0.999 . S
C679 H649 0.950 . S
C679 C678 1.524 . S
C679 C680 1.415 . S
C680 H650 0.950 . S
C680 C675 1.363 . S
C680 C679 1.415 . S
H681 C678 0.999 . S
H682 C663 0.913 . S
H683 C701 0.951 . S
H684 C703 0.951 . S
H685 C705 0.950 . S
H686 C706 0.950 . S
H687 C708 0.950 . S
H688 C711 0.950 . S
H689 C712 0.950 . S
H690 C714 0.950 . S
H691 C715 0.950 . S
H692 C716 0.951 . S
H693 C718 0.951 . S
H694 C720 0.950 . S
H695 C721 0.950 . S
H696 C723 0.950 . S
H697 C726 0.950 . S
H698 C727 0.950 . S
H699 C729 0.950 . S
H700 C730 0.950 1_554 S
C701 H683 0.951 . S
C701 C702 1.366 1_556 S
C701 C703 1.388 . S
C702 C701 1.366 1_554 S
C702 C706 1.385 . S
C703 H684 0.951 . S
C703 C701 1.388 . S
C703 C704 1.366 . S
C704 C703 1.366 . S
C704 C705 1.414 1_556 S
C704 C707 1.499 . S
C705 H685 0.950 . S
C705 C704 1.414 1_554 S
C705 C706 1.374 . S
C706 H686 0.950 . S
C706 C702 1.385 . S
C706 C705 1.374 . S
C707 C704 1.499 . S
C707 C708 1.373 . S
C707 C709 1.389 . S
C708 H687 0.950 . S
C708 C707 1.373 . S
C708 C724 1.377 . S
C709 C707 1.389 . S
C709 C710 1.524 . S
C709 C723 1.377 . S
C710 C709 1.524 . S
C710 C711 1.397 . S
C710 C715 1.363 . S
C711 H688 0.950 . S
C711 C710 1.397 . S
C711 C712 1.334 . S
C712 H689 0.950 . S
C712 C711 1.334 . S
C712 C713 1.287 . S
C713 C712 1.287 . S
C713 C714 1.524 . S
C713 H732 0.913 . S
C714 H690 0.950 . S
C714 C713 1.524 . S
C714 C715 1.415 . S
C715 H691 0.950 . S
C715 C710 1.363 . S
C715 C714 1.415 . S
C716 H692 0.951 . S
C716 C717 1.366 . S
C716 C718 1.388 . S
C717 C716 1.366 . S
C717 C721 1.385 . S
C718 H693 0.951 . S
C718 C716 1.388 . S
C718 C719 1.366 . S
C719 C718 1.366 . S
C719 C720 1.414 . S
C719 C722 1.499 . S
C720 H694 0.950 . S
C720 C719 1.414 . S
C720 C721 1.374 . S
C721 H695 0.950 . S
C721 C717 1.385 . S
C721 C720 1.374 . S
C722 C719 1.499 . S
C722 C723 1.373 . S
C722 C724 1.389 . S
C723 H696 0.950 . S
C723 C709 1.377 . S
C723 C722 1.373 . S
C724 C708 1.377 . S
C724 C722 1.389 . S
C724 C725 1.524 . S
C725 C724 1.524 . S
C725 C726 1.397 . S
C725 C730 1.363 . S
C726 H697 0.950 . S
C726 C725 1.397 . S
C726 C727 1.334 . S
C727 H698 0.950 . S
C727 C726 1.334 . S
C727 C728 1.287 . S
C728 C727 1.287 . S
C728 C729 1.524 1_556 S
C728 H731 0.999 1_556 S
C729 H699 0.950 . S
C729 C728 1.524 1_554 S
C729 C730 1.415 1_554 S
C730 H700 0.950 1_556 S
C730 C725 1.363 . S
C730 C729 1.415 1_556 S
H731 C728 0.999 1_554 S
H732 C713 0.913 . S
H733 C751 0.951 1_655 S
H734 C753 0.951 1_655 S
H735 C755 0.950 . S
H736 C756 0.950 . S
H737 C758 0.950 . S
H738 C761 0.950 1_455 S
H739 C762 0.950 . S
H740 C764 0.950 . S
H741 C765 0.950 . S
H742 C766 0.951 . S
H743 C768 0.951 . S
H744 C770 0.950 . S
H745 C771 0.950 . S
H746 C773 0.950 . S
H747 C776 0.950 . S
H748 C777 0.950 . S
H749 C779 0.950 . S
H750 C780 0.950 . S
C751 H733 0.951 1_455 S
C751 C752 1.366 . S
C751 C753 1.388 . S
C752 C751 1.366 . S
C752 C756 1.385 . S
C753 H734 0.951 1_455 S
C753 C751 1.388 . S
C753 C754 1.366 . S
C754 C753 1.366 . S
C754 C755 1.414 . S
C754 C757 1.499 . S
C755 H735 0.950 . S
C755 C754 1.414 . S
C755 C756 1.374 . S
C756 H736 0.950 . S
C756 C752 1.385 . S
C756 C755 1.374 . S
C757 C754 1.499 . S
C757 C758 1.373 . S
C757 C759 1.372 1_455 S
C758 H737 0.950 . S
C758 C757 1.373 . S
C758 C774 1.377 . S
C759 C757 1.372 1_655 S
C759 C760 1.531 . S
C759 C773 1.388 . S
C760 C759 1.531 . S
C760 C761 1.397 . S
C760 C765 1.363 . S
C761 H738 0.950 1_655 S
C761 C760 1.397 . S
C761 C762 1.334 . S
C762 H739 0.950 . S
C762 C761 1.334 . S
C762 C763 1.287 . S
C763 C762 1.287 . S
C763 C764 1.524 . S
C763 H782 0.913 . S
C764 H740 0.950 . S
C764 C763 1.524 . S
C764 C765 1.415 . S
C765 H741 0.950 . S
C765 C760 1.363 . S
C765 C764 1.415 . S
C766 H742 0.951 . S
C766 C767 1.366 . S
C766 C768 1.388 . S
C767 C766 1.366 . S
C767 C771 1.385 1_455 S
C768 H743 0.951 . S
C768 C766 1.388 . S
C768 C769 1.366 . S
C769 C768 1.366 . S
C769 C770 1.414 1_455 S
C769 C772 1.499 . S
C770 H744 0.950 . S
C770 C769 1.414 1_655 S
C770 C771 1.374 . S
C771 H745 0.950 . S
C771 C767 1.385 1_655 S
C771 C770 1.374 . S
C772 C769 1.499 . S
C772 C773 1.373 1_455 S
C772 C774 1.389 . S
C773 H746 0.950 . S
C773 C759 1.388 . S
C773 C772 1.373 1_655 S
C774 C758 1.377 . S
C774 C772 1.389 . S
C774 C775 1.524 . S
C775 C774 1.524 . S
C775 C776 1.397 . S
C775 C780 1.363 . S
C776 H747 0.950 . S
C776 C775 1.397 . S
C776 C777 1.334 . S
C777 H748 0.950 . S
C777 C776 1.334 . S
C777 C778 1.287 . S
C778 C777 1.287 . S
C778 C779 1.524 . S
C778 H781 0.999 . S
C779 H749 0.950 . S
C779 C778 1.524 . S
C779 C780 1.415 . S
C780 H750 0.950 . S
C780 C775 1.363 . S
C780 C779 1.415 . S
H781 C778 0.999 . S
H782 C763 0.913 . S
C217 C60 1.388 . S
C202 C10 1.386 . S
C252 C21 1.422 . S
C267 C108 1.449 . S
C302 C31 1.369 . S
C317 C180 1.419 . S
C352 C0 1.367 . S
C367 C84 1.396 . S
C417 C132 1.431 . S
C402 C18 1.377 . S
C452 C34 1.388 . S
C467 C156 1.412 . S
C517 C117 1.364 . S
C502 C36 1.365 . S
C552 C8 1.389 . S
C567 C171 1.416 . S
C617 C75 1.391 . S
C602 C23 1.390 . S
C667 C123 1.353 . S
C652 C26 1.313 1_565 S
C717 C165 1.437 . S
C702 C5 1.370 . S
C752 C13 1.371 . S
C767 C69 1.410 . S
