# Generated by pormake.
# Topology pyr, (3,6)-cn, num edge types: 1
# Building blocks:
#     Node 0, Type 0, BuildingBlock: BETDAH_clean_linker_0, # of connection points: 3
#     Node 1, Type 0, BuildingBlock: BETDAH_clean_linker_0, # of connection points: 3
#     Node 2, Type 0, BuildingBlock: BETDAH_clean_linker_0, # of connection points: 3
#     Node 3, Type 0, BuildingBlock: BETDAH_clean_linker_0, # of connection points: 3
#     Node 4, Type 0, BuildingBlock: BETDAH_clean_linker_0, # of connection points: 3
#     Node 5, Type 0, BuildingBlock: BETDAH_clean_linker_0, # of connection points: 3
#     Node 6, Type 0, BuildingBlock: BETDAH_clean_linker_0, # of connection points: 3
#     Node 7, Type 0, BuildingBlock: BETDAH_clean_linker_0, # of connection points: 3
#     Node 8, Type 1, BuildingBlock: FUNLAD_clean_sbu_0, # of connection points: 6
#     Node 9, Type 1, BuildingBlock: FUNLAD_clean_sbu_0, # of connection points: 6
#     Node 10, Type 1, BuildingBlock: FUNLAD_clean_sbu_0, # of connection points: 6
#     Node 11, Type 1, BuildingBlock: FUNLAD_clean_sbu_0, # of connection points: 6
#     Edge 12, Type (0, 1), BuildingBlock: XIVTED_clean_linker_0, # of connection points: 2
#     Edge 13, Type (0, 1), BuildingBlock: XIVTED_clean_linker_0, # of connection points: 2
#     Edge 14, Type (0, 1), BuildingBlock: XIVTED_clean_linker_0, # of connection points: 2
#     Edge 15, Type (0, 1), BuildingBlock: XIVTED_clean_linker_0, # of connection points: 2
#     Edge 16, Type (0, 1), BuildingBlock: XIVTED_clean_linker_0, # of connection points: 2
#     Edge 17, Type (0, 1), BuildingBlock: XIVTED_clean_linker_0, # of connection points: 2
#     Edge 18, Type (0, 1), BuildingBlock: XIVTED_clean_linker_0, # of connection points: 2
#     Edge 19, Type (0, 1), BuildingBlock: XIVTED_clean_linker_0, # of connection points: 2
#     Edge 20, Type (0, 1), BuildingBlock: XIVTED_clean_linker_0, # of connection points: 2
#     Edge 21, Type (0, 1), BuildingBlock: XIVTED_clean_linker_0, # of connection points: 2
#     Edge 22, Type (0, 1), BuildingBlock: XIVTED_clean_linker_0, # of connection points: 2
#     Edge 23, Type (0, 1), BuildingBlock: XIVTED_clean_linker_0, # of connection points: 2
#     Edge 24, Type (0, 1), BuildingBlock: XIVTED_clean_linker_0, # of connection points: 2
#     Edge 25, Type (0, 1), BuildingBlock: XIVTED_clean_linker_0, # of connection points: 2
#     Edge 26, Type (0, 1), BuildingBlock: XIVTED_clean_linker_0, # of connection points: 2
#     Edge 27, Type (0, 1), BuildingBlock: XIVTED_clean_linker_0, # of connection points: 2
#     Edge 28, Type (0, 1), BuildingBlock: XIVTED_clean_linker_0, # of connection points: 2
#     Edge 29, Type (0, 1), BuildingBlock: XIVTED_clean_linker_0, # of connection points: 2
#     Edge 30, Type (0, 1), BuildingBlock: XIVTED_clean_linker_0, # of connection points: 2
#     Edge 31, Type (0, 1), BuildingBlock: XIVTED_clean_linker_0, # of connection points: 2
#     Edge 32, Type (0, 1), BuildingBlock: XIVTED_clean_linker_0, # of connection points: 2
#     Edge 33, Type (0, 1), BuildingBlock: XIVTED_clean_linker_0, # of connection points: 2
#     Edge 34, Type (0, 1), BuildingBlock: XIVTED_clean_linker_0, # of connection points: 2
#     Edge 35, Type (0, 1), BuildingBlock: XIVTED_clean_linker_0, # of connection points: 2
# Relax obj value: 0.202
# Max RMSD: 0.208
# Mean RMSD: 0.131
data_MOF--net-pry--node1-FUNLAD_clean_sbu_0--node2-BETDAH_clean_linker_0--edge1-XIVTED_clean_linker_0
_symmetry_space_group_name_H-M    P1
_symmetry_Int_Tables_number       1
_symmetry_cell_setting            triclinic
loop_
_symmetry_equiv_pos_as_xyz
'x, y, z'
_cell_length_a     34.190252
_cell_length_b     37.516688
_cell_length_c     39.2286
_cell_angle_alpha  90.58309
_cell_angle_beta   90.368878
_cell_angle_gamma 90.025852
loop_
_atom_site_label
_atom_site_type_symbol
_atom_site_fract_x
_atom_site_fract_y
_atom_site_fract_z
_atom_type_partial_charge
H0 H 0.19062 0.16056 0.24495 0.0
H1 H 0.17876 0.24107 0.1672 0.0
H2 H 0.10007 0.23941 0.25215 0.0
C3 C 0.17554 0.18334 0.2344 0.0
C4 C 0.14371 0.19786 0.25255 0.0
C5 C 0.18885 0.19835 0.20347 0.0
C6 C 0.16971 0.22937 0.191 0.0
C7 C 0.13764 0.24429 0.20871 0.0
C8 C 0.12517 0.22824 0.23913 0.0
N9 N 0.11509 0.27394 0.19669 0.0
C10 C 0.12296 0.29929 0.1715 0.0
H11 H 0.43222 0.86688 0.77751 0.0
H12 H 0.37323 0.96701 0.7618 0.0
H13 H 0.37161 0.8884 0.68256 0.0
C14 C 0.41401 0.88386 0.76188 0.0
C15 C 0.4035 0.87274 0.72821 0.0
C16 C 0.40321 0.91806 0.77453 0.0
C17 C 0.38121 0.94048 0.75317 0.0
C18 C 0.36951 0.92971 0.72046 0.0
C19 C 0.38019 0.89587 0.70827 0.0
N20 N 0.35391 0.95582 0.69819 0.0
C21 C 0.31729 0.9545 0.68236 0.0
H22 H 0.68555 0.43116 0.97785 0.0
H23 H 0.77726 0.39456 0.91103 0.0
H24 H 0.66848 0.33865 0.91332 0.0
C25 C 0.69648 0.41225 0.95914 0.0
C26 C 0.67239 0.38437 0.94738 0.0
C27 C 0.73418 0.41641 0.94572 0.0
C28 C 0.74827 0.39159 0.92168 0.0
C29 C 0.72451 0.36382 0.91 0.0
C30 C 0.68664 0.36038 0.92268 0.0
N31 N 0.7367 0.34247 0.88218 0.0
C32 C 0.71725 0.34709 0.85152 0.0
H33 H 0.86646 0.68504 0.5 0.0
H34 H 0.9545 0.64018 0.4352 0.0
H35 H 0.86922 0.57174 0.48129 0.0
C36 C 0.87988 0.66181 0.48828 0.0
C37 C 0.86369 0.62792 0.49339 0.0
C38 C 0.91235 0.6664 0.46723 0.0
C39 C 0.92985 0.63658 0.45206 0.0
C40 C 0.91443 0.60231 0.45729 0.0
C41 C 0.88194 0.59801 0.47856 0.0
N42 N 0.92879 0.57254 0.43867 0.0
C43 C 0.94063 0.57637 0.4051 0.0
H44 H 0.94587 0.88062 0.82676 0.0
H45 H 0.85169 0.88085 0.90046 0.0
H46 H 0.849 0.95299 0.81677 0.0
C47 C 0.91838 0.89101 0.83614 0.0
C48 C 0.90008 0.91935 0.81834 0.0
C49 C 0.90178 0.8769 0.86654 0.0
C50 C 0.86602 0.89179 0.87837 0.0
C51 C 0.84714 0.91919 0.86033 0.0
C52 C 0.86433 0.93241 0.83073 0.0
N53 N 0.80865 0.93141 0.86818 0.0
C54 C 0.79188 0.93746 0.90016 0.0
H55 H 0.69521 0.15415 0.35216 0.0
H56 H 0.67783 0.23227 0.43278 0.0
H57 H 0.59908 0.22744 0.34727 0.0
C58 C 0.67875 0.1759 0.36339 0.0
C59 C 0.64596 0.18906 0.34558 0.0
C60 C 0.69101 0.19109 0.39499 0.0
C61 C 0.66976 0.22062 0.40837 0.0
C62 C 0.63655 0.23373 0.39094 0.0
C63 C 0.62514 0.21767 0.35999 0.0
N64 N 0.61132 0.26074 0.40432 0.0
C65 C 0.61938 0.28826 0.42766 0.0
H66 H 0.38211 0.66068 0.09075 0.0
H67 H 0.39865 0.55178 0.12005 0.0
H68 H 0.47655 0.63329 0.15826 0.0
C69 C 0.39907 0.64077 0.10418 0.0
C70 C 0.43067 0.65137 0.12484 0.0
C71 C 0.38698 0.60518 0.10271 0.0
C72 C 0.40842 0.57927 0.1203 0.0
C73 C 0.44109 0.58918 0.14 0.0
C74 C 0.45216 0.62533 0.14216 0.0
N75 N 0.46049 0.56296 0.15963 0.0
C76 C 0.47742 0.57158 0.19089 0.0
H77 H 0.1537 0.45658 0.55856 0.0
H78 H 0.13333 0.56746 0.58069 0.0
H79 H 0.03617 0.49556 0.57173 0.0
C80 C 0.13348 0.47852 0.56227 0.0
C81 C 0.09309 0.47181 0.56381 0.0
C82 C 0.14827 0.5129 0.56829 0.0
C83 C 0.12226 0.54095 0.57507 0.0
C84 C 0.08187 0.53474 0.57555 0.0
C85 C 0.06736 0.50029 0.56992 0.0
N86 N 0.05631 0.56189 0.58669 0.0
C87 C 0.05394 0.56833 0.62142 0.0
C88 C 0.03963 0.09007 0.47205 0.0
N89 N 0.02147 0.13852 0.56737 0.0
C90 C 0.05818 0.15156 0.56283 0.0
C91 C 0.06569 0.18775 0.56706 0.0
C92 C 0.03503 0.211 0.57545 0.0
C93 C 0.99817 0.19654 0.58286 0.0
C94 C 0.99198 0.15988 0.57864 0.0
Zn95 Zn 1.01053 0.08944 0.5465 0.0
C96 C 0.93309 0.08848 0.50936 0.0
N97 N 0.99226 0.99009 0.49667 0.0
C98 C 0.02156 0.97373 0.47919 0.0
C99 C 0.95704 0.97403 0.50104 0.0
C100 C 0.95055 0.93972 0.48835 0.0
C101 C 0.98065 0.9217 0.47112 0.0
C102 C 0.01639 0.93927 0.46619 0.0
Zn103 Zn 1.00182 0.03817 0.51929 0.0
O104 O 0.0366 0.10871 0.49925 0.0
C105 C 0.07853 0.03953 0.55692 0.0
O106 O 0.02742 0.05801 0.47254 0.0
H107 H 0.93431 0.98749 0.51524 0.0
H108 H 0.08112 0.13443 0.55332 0.0
H109 H 0.04931 0.98711 0.47602 0.0
O110 O 0.06582 0.07042 0.56453 0.0
O111 O 0.05823 0.0199 0.53695 0.0
H112 H 0.96296 0.14902 0.58192 0.0
O113 O 0.97734 0.01822 0.56681 0.0
O114 O 0.985 0.06935 0.59355 0.0
O115 O 0.94479 0.05713 0.50179 0.0
O116 O 0.95471 0.10785 0.52845 0.0
C117 C 0.97481 0.03658 0.59428 0.0
H118 H 0.09476 0.19772 0.56183 0.0
H119 H 0.97372 0.21357 0.58941 0.0
H120 H 0.92277 0.92693 0.49322 0.0
H121 H 0.04021 0.92635 0.45284 0.0
C122 C 0.57044 0.03387 0.04023 0.0
N123 N 0.51197 0.13279 0.0333 0.0
C124 C 0.5458 0.15022 0.04085 0.0
C125 C 0.54923 0.18645 0.03435 0.0
C126 C 0.51758 0.20488 1.01988 0.0
C127 C 0.48381 0.18586 1.01051 0.0
C128 C 0.48154 0.14954 1.01764 0.0
Zn129 Zn 0.50391 0.08393 0.05344 0.0
C130 C 0.46498 0.03225 1.00484 0.0
N131 N 0.48374 0.98423 0.09985 0.0
C132 C 0.51466 0.96407 0.11003 0.0
C133 C 0.44659 0.97148 0.10106 0.0
C134 C 0.43953 0.9368 0.11165 0.0
C135 C 0.47111 0.9143 0.1197 0.0
C136 C 0.50907 0.92875 0.11964 0.0
Zn137 Zn 0.49304 0.0327 0.07865 0.0
O138 O 0.55987 0.0659 0.03493 0.0
C139 C 0.53443 0.08295 0.12663 0.0
O140 O 0.54834 1.0141 0.05798 0.0
H141 H 0.42236 0.98776 0.09271 0.0
H142 H 0.56953 0.13635 0.05334 0.0
H143 H 0.54396 0.97485 0.10938 0.0
O144 O 0.53046 0.10265 0.10061 0.0
O145 O 0.52181 0.05105 0.12486 0.0
H146 H 0.4548 0.13512 1.01217 0.0
O147 O 0.4373 0.05276 0.09878 0.0
O148 O 0.44817 0.10235 0.07186 0.0
O149 O 0.46543 1.01375 0.03191 0.0
O150 O 0.47807 0.06408 1.0064 0.0
C151 C 0.42638 0.08419 0.09122 0.0
H152 H 0.57624 0.20001 0.04102 0.0
H153 H 0.45896 0.19916 0.99905 0.0
H154 H 0.40957 0.92753 0.11242 0.0
H155 H 0.5345 0.91268 0.12535 0.0
C156 C 0.53578 0.51412 0.54737 0.0
N157 N 0.52952 0.54371 0.64957 0.0
C158 C 0.51584 0.51014 0.65464 0.0
C159 C 0.53117 0.48943 0.68078 0.0
C160 C 0.56098 0.50342 0.70169 0.0
C161 C 0.57208 0.5392 0.69777 0.0
C162 C 0.55583 0.55903 0.67133 0.0
Zn163 Zn 0.51834 0.56641 0.60383 0.0
C164 C 0.59035 0.60025 0.57509 0.0
N165 N 0.49912 0.61015 0.50548 0.0
C166 C 0.47932 0.58736 0.48438 0.0
C167 C 0.51773 0.63939 0.49308 0.0
C168 C 0.51909 0.64505 0.45782 0.0
C169 C 0.50136 0.62017 0.43571 0.0
C170 C 0.48007 0.59193 0.44933 0.0
Zn171 Zn 0.50851 0.59136 0.5536 0.0
O172 O 0.53331 0.51616 0.57963 0.0
C173 C 0.43637 0.55737 0.58097 0.0
O174 O 0.52716 0.54157 0.53015 0.0
H175 H 0.53371 0.65692 0.51023 0.0
H176 H 0.49522 0.49838 0.63679 0.0
H177 H 0.46541 0.56387 0.49439 0.0
O178 O 0.4582 0.55109 0.60655 0.0
O179 O 0.45046 0.57325 0.55546 0.0
H180 H 0.56626 0.58577 0.66676 0.0
O181 O 0.49093 0.64094 0.57793 0.0
O182 O 0.50347 0.61699 0.62773 0.0
O183 O 0.56611 0.6092 0.55215 0.0
O184 O 0.57872 0.58181 0.60007 0.0
C185 C 0.49221 0.64379 0.61043 0.0
H186 H 0.522 0.4619 0.68278 0.0
H187 H 0.5946 0.55109 0.71376 0.0
H188 H 0.53587 0.6671 0.44792 0.0
H189 H 0.466 0.57233 0.43287 0.0
C190 C 1.01187 0.65959 0.99012 0.0
N191 N 1.00555 0.61592 0.09095 0.0
C192 C 0.02124 0.64364 0.10911 0.0
C193 C 1.01284 0.64777 0.14388 0.0
C194 C 0.98774 0.6234 0.15972 0.0
C195 C 0.97116 0.59587 0.14002 0.0
C196 C 0.98071 0.59243 0.10578 0.0
Zn197 Zn 0.0228 0.60254 0.04252 0.0
C198 C 0.95787 0.56967 1.00253 0.0
N199 N 0.05851 0.56705 0.94433 0.0
C200 C 0.0796 0.59091 0.92614 0.0
C201 C 0.04383 0.53692 0.92952 0.0
C202 C 0.04794 0.5311 0.8945 0.0
C203 C 0.0674 0.55653 0.87474 0.0
C204 C 0.0845 0.58611 0.89119 0.0
Zn205 Zn 0.0422 0.58169 0.99224 0.0
O206 O 1.00746 0.65512 0.02214 0.0
C207 C 0.10799 0.61267 0.0319 0.0
O208 O 0.02633 0.634 0.97267 0.0
H209 H 0.02711 0.51835 0.9445 0.0
H210 H 0.04135 0.66173 0.09699 0.0
H211 H 0.09066 0.61487 0.93836 0.0
O212 O 0.08117 0.61883 0.05352 0.0
O213 O 0.0992 0.59865 1.0033 0.0
H214 H 0.96956 0.56981 0.09152 0.0
O215 O 0.05744 0.52911 1.01258 0.0
O216 O 0.03818 0.55024 0.06184 0.0
O217 O 0.98532 0.56457 0.98149 0.0
O218 O 0.96508 0.58504 0.03081 0.0
C219 C 0.05249 0.52456 0.04447 0.0
H220 H 0.02628 0.66933 0.15831 0.0
H221 H 0.95243 0.57599 0.15135 0.0
H222 H 0.03477 0.50768 0.88284 0.0
H223 H 0.09934 0.6066 0.87693 0.0
H224 H 0.13631 0.12634 0.2684 0.0
H225 H 0.06002 0.15997 0.46005 0.0
H226 H 0.11822 0.23104 0.3118 0.0
H227 H 0.05727 0.05677 0.41069 0.0
H228 H 0.08559 0.18577 0.40753 0.0
H229 H 0.11218 0.10004 0.3213 0.0
C230 C 0.12755 0.14391 0.28904 0.0
C231 C 0.12945 0.18118 0.28521 0.0
C232 C 0.07945 0.15746 0.40812 0.0
C233 C 0.1014 0.15088 0.34647 0.0
C234 C 0.06487 0.1426 0.43826 0.0
C235 C 0.05628 0.10596 0.44012 0.0
C236 C 0.08602 0.13567 0.37929 0.0
C237 C 0.06329 0.0851 0.4107 0.0
C238 C 0.11348 0.12878 0.31929 0.0
C239 C 0.11701 0.20226 0.31308 0.0
N240 N 0.07774 0.10015 0.38173 0.0
N241 N 0.10376 0.18692 0.3423 0.0
H242 H 0.40272 0.88446 0.83743 0.0
H243 H 0.46408 0.06288 0.94135 0.0
H244 H 0.43231 0.98437 0.79075 0.0
H245 H 0.4405 0.96324 0.99112 0.0
H246 H 0.45103 0.03407 0.88626 0.0
H247 H 0.41671 0.9115 0.89379 0.0
C248 C 0.41252 0.91188 0.83891 0.0
C249 C 0.41582 0.93213 0.80905 0.0
C250 C 0.44852 0.01843 0.90918 0.0
C251 C 0.43147 0.96355 0.87372 0.0
C252 C 0.45579 0.03501 0.94082 0.0
C253 C 0.45331 0.01568 0.97125 0.0
C254 C 0.43864 0.98199 0.9075 0.0
C255 C 0.44265 0.97942 0.96852 0.0
C256 C 0.42022 0.92744 0.87116 0.0
C257 C 0.42851 0.96773 0.81286 0.0
N258 N 0.43581 0.96382 0.93737 0.0
N259 N 0.43559 0.98216 0.84431 0.0
H260 H 0.639 0.34417 0.84527 0.0
H261 H 0.64014 0.50031 0.70883 0.0
H262 H 0.74335 0.38455 0.79838 0.0
H263 H 0.53387 0.45112 0.7441 0.0
H264 H 0.67809 0.45768 0.74168 0.0
H265 H 0.59931 0.38085 0.80687 0.0
C266 C 0.65335 0.35997 0.82604 0.0
C267 C 0.69415 0.36116 0.82422 0.0
C268 C 0.64648 0.45616 0.74231 0.0
C269 C 0.64958 0.40395 0.7815 0.0
C270 C 0.62476 0.48084 0.72394 0.0
C271 C 0.58377 0.47949 0.72404 0.0
C272 C 0.62713 0.42994 0.7611 0.0
C273 C 0.56544 0.45304 0.74332 0.0
C274 C 0.63084 0.38115 0.80445 0.0
C275 C 0.7118 0.38266 0.7999 0.0
N276 N 0.58728 0.42933 0.76121 0.0
N277 N 0.68937 0.40354 0.77959 0.0
H278 H 0.88772 0.57588 0.35455 0.0
H279 H 0.04135 0.63225 0.21147 0.0
H280 H 1.00933 0.59605 0.37655 0.0
H281 H 0.91824 0.61546 0.19267 0.0
H282 H 0.03025 0.62327 0.27249 0.0
H283 H 0.89847 0.59263 0.29523 0.0
C284 C 0.9168 0.5836 0.3466 0.0
C285 C 0.94785 0.58421 0.36988 0.0
C286 C 1.00562 0.62193 0.25503 0.0
C287 C 0.96048 0.60388 0.3025 0.0
C288 C 1.01188 0.6274 0.22027 0.0
C289 C 0.9807 0.62431 0.19698 0.0
C290 C 0.96793 0.61331 0.26646 0.0
C291 C 0.94319 0.61756 0.20971 0.0
C292 C 0.92293 0.59337 0.31288 0.0
C293 C 0.98486 0.59488 0.3589 0.0
N294 N 0.93793 0.61202 0.24349 0.0
N295 N 0.99026 0.60424 0.32582 0.0
H296 H 0.20672 0.1266 0.19733 0.0
H297 H 0.39997 0.15302 0.08471 0.0
H298 H 0.24818 0.22976 0.16583 0.0
H299 H 0.36939 0.0533 0.13139 0.0
H300 H 0.34212 0.18052 0.11028 0.0
H301 H 0.26307 0.09893 0.1699 0.0
C302 C 0.22768 0.14366 0.18488 0.0
C303 C 0.22243 0.18096 0.18459 0.0
C304 C 0.34793 0.15261 0.11491 0.0
C305 C 0.28749 0.14871 0.15204 0.0
C306 C 0.38103 0.13673 0.10019 0.0
C307 C 0.3899 0.10057 0.10577 0.0
C308 C 0.3229 0.13233 0.13537 0.0
C309 C 0.36399 0.08117 0.12626 0.0
C310 C 0.25992 0.12762 0.16896 0.0
C311 C 0.25045 0.20102 0.16682 0.0
N312 N 0.33183 0.09722 0.1402 0.0
N313 N 0.2816 0.18473 0.15145 0.0
H314 H 0.26809 1.00677 0.70044 0.0
H315 H 0.11714 0.97587 0.54529 0.0
H316 H 0.28382 0.92293 0.62603 0.0
H317 H 0.12245 0.07158 0.60711 0.0
H318 H 0.17438 0.95282 0.57628 0.0
H319 H 0.20997 0.02685 0.66937 0.0
C320 C 0.25883 0.99228 0.67774 0.0
C321 C 0.28036 0.96303 0.66589 0.0
C322 C 0.16305 0.97891 0.58291 0.0
C323 C 0.21419 0.98614 0.62969 0.0
C324 C 0.13041 0.99215 0.56518 0.0
C325 C 0.11485 0.02583 0.57347 0.0
C326 C 0.18002 0.99928 0.60942 0.0
C327 C 0.13331 0.04557 0.59963 0.0
C328 C 0.22585 1.0039 0.65983 0.0
C329 C 0.26761 0.94543 0.63611 0.0
N330 N 0.16461 0.03196 0.61668 0.0
N331 N 0.23529 0.95725 0.61896 0.0
H332 H 0.75159 0.44166 1.00991 0.0
H333 H 0.92749 0.55615 0.93972 0.0
H334 H 0.77209 0.46122 0.90336 0.0
H335 H 0.89904 0.55284 0.04667 0.0
H336 H 0.86568 0.5271 0.92626 0.0
H337 H 0.79992 0.48782 0.02466 0.0
C338 C 0.76583 0.45612 0.9897 0.0
C339 C 0.75873 0.44722 0.95543 0.0
C340 C 0.87257 0.53304 0.9527 0.0
C341 C 0.81372 0.49952 0.97188 0.0
C342 C 0.90795 0.54954 0.96037 0.0
C343 C 0.9185 0.55634 0.99435 0.0
C344 C 0.84785 0.52259 0.97925 0.0
C345 C 0.89195 0.54776 1.02012 0.0
C346 C 0.79338 0.48235 0.99807 0.0
C347 C 0.77763 0.46671 0.93011 0.0
N348 N 0.858 0.53068 1.01208 0.0
N349 N 0.80461 0.49163 0.93885 0.0
H350 H 0.83848 0.57743 0.53925 0.0
H351 H 0.62064 0.65429 0.53832 0.0
H352 H 0.80066 0.67133 0.48554 0.0
H353 H 0.65463 0.56513 0.60047 0.0
H354 H 0.68862 0.663 0.52284 0.0
H355 H 0.77313 0.57327 0.56488 0.0
C356 C 0.81659 0.59721 0.53301 0.0
C357 C 0.8252 0.62493 0.51046 0.0
C358 C 0.6815 0.64169 0.54015 0.0
C359 C 0.75084 0.62046 0.53961 0.0
C360 C 0.64261 0.63678 0.54906 0.0
C361 C 0.63204 0.60882 0.57051 0.0
C362 C 0.71017 0.61811 0.5523 0.0
C363 C 0.66169 0.58706 0.58386 0.0
C364 C 0.77946 0.59497 0.54778 0.0
C365 C 0.79579 0.64992 0.50332 0.0
N366 N 0.6995 0.59183 0.57414 0.0
N367 N 0.76008 0.64699 0.51772 0.0
H368 H 0.11807 0.30505 0.10153 0.0
H369 H 0.05464 0.51146 0.1131 0.0
H370 H 0.11714 0.36701 0.19445 0.0
H371 H 0.07801 0.45991 1.01663 0.0
H372 H 0.07504 0.45747 0.14241 0.0
H373 H 0.10248 0.35959 0.06926 0.0
C374 C 0.11535 0.33023 0.11506 0.0
C375 C 0.11959 0.33157 0.15073 0.0
C376 C 0.07581 0.45778 0.11482 0.0
C377 C 0.10049 0.394 0.1141 0.0
C378 C 0.06394 0.48877 0.09792 0.0
C379 C 0.0644 0.49064 0.06209 0.0
C380 C 0.08813 0.42768 0.09609 0.0
C381 C 0.07706 0.45997 0.0442 0.0
C382 C 0.10618 0.36135 0.09665 0.0
C383 C 0.11476 0.36479 0.16696 0.0
N384 N 0.0882 0.42985 0.0613 0.0
N385 N 0.10532 0.39439 0.14869 0.0
H386 H 0.65211 0.38372 1.01458 0.0
H387 H 0.49641 0.24235 0.96308 0.0
H388 H 0.60396 0.37046 0.91338 0.0
H389 H 0.54543 0.25568 0.064 0.0
H390 H 0.51621 0.30317 0.94979 0.0
H391 H 0.59492 0.35372 0.03767 0.0
C392 C 0.62882 0.37558 0.99733 0.0
C393 C 0.63332 0.37815 0.96198 0.0
C394 C 0.52184 0.29314 0.97514 0.0
C395 C 0.56865 0.34293 0.98794 0.0
C396 C 0.51047 0.25841 0.98272 0.0
C397 C 0.52076 0.24364 1.01419 0.0
C398 C 0.54407 0.3128 0.99907 0.0
C399 C 0.53845 0.26571 0.0389 0.0
C400 C 0.59623 0.35823 1.01047 0.0
C401 C 0.60213 0.36763 0.94077 0.0
N402 N 0.5504 0.29893 0.03056 0.0
N403 N 0.57155 0.3495 0.95399 0.0
H404 H 0.86793 0.72102 0.44413 0.0
H405 H 0.03268 0.86666 0.47789 0.0
H406 H 0.98647 0.6941 0.47172 0.0
H407 H 0.91647 0.89068 0.44119 0.0
H408 H 0.01958 0.80322 0.46872 0.0
H409 H 0.88787 0.78276 0.43631 0.0
C410 C 0.89828 0.72824 0.44838 0.0
C411 C 0.92553 0.70278 0.45916 0.0
C412 C 0.99716 0.8224 0.46221 0.0
C413 C 0.94864 0.77336 0.45042 0.0
C414 C 1.00469 0.85864 0.46725 0.0
C415 C 0.97538 0.88393 0.46075 0.0
C416 C 0.96001 0.81145 0.45077 0.0
C417 C 0.93957 0.87201 0.44725 0.0
C418 C 0.90972 0.76341 0.44377 0.0
C419 C 0.96462 0.71315 0.46363 0.0
N420 N 0.93275 0.83662 0.44309 0.0
N421 N 0.97496 0.74788 0.45973 0.0
H422 H 0.41564 0.80654 0.75818 0.0
H423 H 0.47362 0.70851 0.58192 0.0
H424 H 0.42681 0.86021 0.66194 0.0
H425 H 0.48318 0.65696 0.67939 0.0
H426 H 0.45351 0.76344 0.61108 0.0
H427 H 0.43817 0.75116 0.7305 0.0
C428 C 0.42286 0.8069 0.73135 0.0
C429 C 0.41852 0.83843 0.7125 0.0
C430 C 0.46005 0.74017 0.62618 0.0
C431 C 0.44413 0.77458 0.68039 0.0
C432 C 0.47153 0.70865 0.60946 0.0
C433 C 0.48025 0.67778 0.62806 0.0
C434 C 0.45682 0.74116 0.66195 0.0
C435 C 0.47691 0.67995 0.66384 0.0
C436 C 0.4356 0.77511 0.71549 0.0
C437 C 0.42837 0.83671 0.67763 0.0
N438 N 0.46538 0.7109 0.67952 0.0
N439 N 0.4404 0.80558 0.66287 0.0
H440 H 0.91007 0.99038 0.80508 0.0
H441 H 0.96084 0.96526 0.60619 0.0
H442 H 0.9266 0.88708 0.75849 0.0
H443 H 0.96326 0.06703 0.6582 0.0
H444 H 0.94616 0.93632 0.66045 0.0
H445 H 0.92828 0.01848 0.75143 0.0
C446 C 0.91792 0.9735 0.78362 0.0
C447 C 0.91674 0.93612 0.78664 0.0
C448 C 0.94982 0.96498 0.66005 0.0
C449 C 0.93727 0.96858 0.72411 0.0
C450 C 0.95801 0.98169 0.6289 0.0
C451 C 0.96321 0.01893 0.62718 0.0
C452 C 0.94641 0.98544 0.69015 0.0
C453 C 0.95941 0.03839 0.65789 0.0
C454 C 0.92827 0.98967 0.75283 0.0
C455 C 0.92736 0.9159 0.75768 0.0
N456 N 0.95121 0.02153 0.68782 0.0
N457 N 0.93676 0.93231 0.72771 0.0
H458 H 0.62162 0.22362 0.28776 0.0
H459 H 0.55405 0.0472 0.18557 0.0
H460 H 0.63946 0.11787 0.32694 0.0
H461 H 0.55706 0.15184 0.14111 0.0
H462 H 0.58325 0.0721 0.23799 0.0
H463 H 0.59612 0.19759 0.23472 0.0
C464 C 0.62019 0.19487 0.28526 0.0
C465 C 0.63266 0.17301 0.31216 0.0
C466 C 0.57763 0.08959 0.21673 0.0
C467 C 0.60314 0.14275 0.25093 0.0
C468 C 0.56085 0.07538 0.18673 0.0
C469 C 0.55291 0.09737 0.15866 0.0
C470 C 0.58634 0.1262 0.219 0.0
C471 C 0.56255 0.13373 0.1619 0.0
C472 C 0.60572 0.17998 0.2548 0.0
C473 C 0.63049 0.13586 0.30697 0.0
N474 N 0.57848 0.14692 0.19141 0.0
N475 N 0.61578 0.12196 0.27718 0.0
H476 H 0.52717 0.53769 0.23345 0.0
H477 H 0.47807 0.66984 0.38892 0.0
H478 H 0.45566 0.63155 0.22348 0.0
H479 H 0.53941 0.57016 0.39893 0.0
H480 H 0.48019 0.66274 0.3265 0.0
H481 H 0.54238 0.55525 0.29248 0.0
C482 C 0.51517 0.56225 0.24373 0.0
C483 C 0.49014 0.58324 0.22414 0.0
C484 C 0.49374 0.64272 0.34238 0.0
C485 C 0.50676 0.60335 0.2912 0.0
C486 C 0.4927 0.64693 0.37784 0.0
C487 C 0.50827 0.62036 0.39871 0.0
C488 C 0.51052 0.61179 0.32805 0.0
C489 C 0.52678 0.59101 0.38346 0.0
C490 C 0.52374 0.57229 0.27731 0.0
C491 C 0.4751 0.61476 0.23818 0.0
N492 N 0.52708 0.58733 0.34906 0.0
N493 N 0.48336 0.62378 0.27107 0.0
H494 H 0.11618 0.58516 0.66043 0.0
H495 H 1.00589 0.53743 0.83358 0.0
H496 H 0.9957 0.55204 0.66455 0.0
H497 H 0.1262 0.57206 0.82988 0.0
H498 H 1.0023 0.54059 0.77159 0.0
H499 H 0.12067 0.58043 0.72266 0.0
C500 C 0.09054 0.57745 0.67471 0.0
C501 C 0.05538 0.5695 0.65795 0.0
C502 C 0.02956 0.54732 0.78429 0.0
C503 C 0.0603 0.56318 0.72848 0.0
C504 C 0.03178 0.54512 0.8197 0.0
C505 C 0.06643 0.55448 0.83698 0.0
C506 C 0.06221 0.559 0.76596 0.0
C507 C 0.09878 0.56498 0.81764 0.0
C508 C 0.09313 0.57446 0.71006 0.0
C509 C 0.02311 0.55885 0.67699 0.0
N510 N 0.09584 0.56708 0.78317 0.0
N511 N 0.02633 0.55594 0.71138 0.0
H512 H 0.78298 1.0056 0.92123 0.0
H513 H 0.59606 0.96422 0.03818 0.0
H514 H 0.74021 0.89939 0.9383 0.0
H515 H 0.62766 0.06958 1.00499 0.0
H516 H 0.65314 0.94008 1.00823 0.0
H517 H 0.73164 0.02929 0.95858 0.0
C518 C 0.76328 0.9872 0.93355 0.0
C519 C 0.76618 0.95047 0.92713 0.0
C520 C 0.64773 0.9685 1.00766 0.0
C521 C 0.70653 0.97742 0.96938 0.0
C522 C 0.61513 0.98239 0.02488 0.0
C523 C 0.60674 0.01911 0.02417 0.0
C524 C 0.67257 0.99141 0.98965 0.0
C525 C 0.63269 0.04114 1.0063 0.0
C526 C 0.7337 1.00075 0.95462 0.0
C527 C 0.73933 0.92786 0.94305 0.0
N528 N 0.66422 0.027 0.98982 0.0
N529 N 0.71059 0.94167 0.96334 0.0
H530 H 0.71325 0.12045 0.39942 0.0
H531 H 0.90365 0.15642 0.51602 0.0
H532 H 0.74789 0.22537 0.43425 0.0
H533 H 0.87749 0.05468 0.46898 0.0
H534 H 0.84458 0.18119 0.48982 0.0
H535 H 0.77066 0.09552 0.4277 0.0
C536 C 0.73295 0.13844 0.41278 0.0
C537 C 0.72548 0.17539 0.41385 0.0
C538 C 0.85164 0.15342 0.48528 0.0
C539 C 0.79169 0.1464 0.44727 0.0
C540 C 0.88542 0.13913 0.50035 0.0
C541 C 0.89585 0.10324 0.49482 0.0
C542 C 0.82762 0.13178 0.46448 0.0
C543 C 0.87084 0.08242 0.47408 0.0
C544 C 0.76577 0.124 0.42919 0.0
C545 C 0.75193 0.1968 0.43268 0.0
N546 N 0.83807 0.09694 0.45975 0.0
N547 N 0.78371 0.18206 0.44847 0.0
H548 H 0.36118 0.61784 0.03795 0.0
H549 H 0.13918 0.61641 0.09611 0.0
H550 H 0.3241 0.5783 0.13532 0.0
H551 H 0.17132 0.61395 0.98986 0.0
H552 H 0.20818 0.60984 0.11166 0.0
H553 H 0.29255 0.62053 1.01952 0.0
C554 C 0.33855 0.60873 0.055 0.0
C555 C 0.34807 0.59749 0.08801 0.0
C556 C 0.20008 0.61093 0.08495 0.0
C557 C 0.26993 0.60199 0.06784 0.0
C558 C 0.16082 0.61523 0.07607 0.0
C559 C 0.14956 0.61575 0.04165 0.0
C560 C 0.22826 0.6076 0.05923 0.0
C561 C 0.17879 0.61363 1.01672 0.0
C562 C 0.2995 0.61061 0.04467 0.0
C563 C 0.31785 0.5866 0.10949 0.0
N564 N 0.21686 0.60964 0.026 0.0
N565 N 0.28 0.58965 0.09923 0.0
H566 H 0.20259 0.49416 0.52082 0.0
H567 H 0.38766 0.54708 0.63536 0.0
H568 H 0.19072 0.54399 0.61976 0.0
H569 H 0.39032 0.54524 0.52538 0.0
H570 H 0.31696 0.53506 0.63287 0.0
H571 H 0.27366 0.50235 0.52474 0.0
C572 C 0.21506 0.50685 0.54332 0.0
C573 C 0.19098 0.51873 0.56987 0.0
C574 C 0.33321 0.53717 0.60937 0.0
C575 C 0.27185 0.52758 0.5748 0.0
C576 C 0.37345 0.54376 0.61077 0.0
C577 C 0.39468 0.54731 0.58053 0.0
C578 C 0.3145 0.53342 0.57754 0.0
C579 C 0.37492 0.54296 0.54929 0.0
C580 C 0.25545 0.51154 0.54554 0.0
C581 C 0.20841 0.53493 0.59857 0.0
N582 N 0.33596 0.53614 0.5486 0.0
N583 N 0.24791 0.53872 0.6004 0.0
H584 H 0.9039 0.86419 0.93619 0.0
H585 H 0.01738 0.67631 0.92209 0.0
H586 H 0.94327 0.81864 0.84101 0.0
H587 H 0.9751 0.71968 1.01714 0.0
H588 H 0.99272 0.72903 0.89268 0.0
H589 H 0.9313 0.81301 0.96621 0.0
C590 C 0.91813 0.8435 0.92139 0.0
C591 C 0.92072 0.84621 0.88559 0.0
C592 C 0.98889 0.7272 0.91998 0.0
C593 C 0.95308 0.7868 0.92057 0.0
C594 C 1.00311 0.69696 0.93696 0.0
C595 C 0.99855 0.69314 0.97244 0.0
C596 C 0.96967 0.75438 0.9383 0.0
C597 C 0.97955 0.72116 0.9899 0.0
C598 C 0.93406 0.81417 0.93877 0.0
C599 C 0.94058 0.8184 0.86847 0.0
N600 N 0.96585 0.75033 0.97275 0.0
N601 N 0.9557 0.79008 0.88597 0.0
H602 H 0.50181 0.68603 0.12994 0.0
H603 H 0.41411 0.87168 0.09129 0.0
H604 H 0.37715 0.70449 0.1333 0.0
H605 H 0.51392 0.86747 0.15959 0.0
H606 H 0.40482 0.80827 0.09851 0.0
H607 H 0.51234 0.75084 0.13422 0.0
C608 C 0.47675 0.70356 0.13186 0.0
C609 C 0.43852 0.68988 0.13026 0.0
C610 C 0.42855 0.82141 0.11211 0.0
C611 C 0.45041 0.76328 0.13463 0.0
C612 C 0.43376 0.85782 0.10834 0.0
C613 C 0.46462 0.87554 0.12523 0.0
C614 C 0.45493 0.80208 0.13208 0.0
C615 C 0.49 0.85514 0.14569 0.0
C616 C 0.48282 0.74037 0.1343 0.0
C617 C 0.40711 0.71383 0.13302 0.0
N618 N 0.48487 0.8193 0.14826 0.0
N619 N 0.41374 0.74936 0.13446 0.0
H620 H 0.04008 0.44036 0.60599 0.0
H621 H 0.07413 0.24624 0.52583 0.0
H622 H 0.11393 0.41849 0.51948 0.0
H623 H 1.00788 0.2647 0.61763 0.0
H624 H 0.08424 0.31006 0.52077 0.0
H625 H 0.02227 0.37723 0.60758 0.0
C626 C 0.05201 0.42236 0.58696 0.0
C627 C 0.0786 0.43462 0.56257 0.0
C628 C 0.06753 0.30027 0.54209 0.0
C629 C 0.05888 0.36239 0.56465 0.0
C630 C 0.06202 0.26374 0.54519 0.0
C631 C 0.04075 0.25003 0.5726 0.0
C632 C 0.0516 0.32353 0.56651 0.0
C633 C 0.02459 0.27414 0.59619 0.0
C634 C 0.0421 0.3863 0.58809 0.0
C635 C 0.09366 0.41008 0.53891 0.0
N636 N 0.03055 0.30979 0.59272 0.0
N637 N 0.08372 0.37512 0.54063 0.0
H638 H 0.60682 0.29568 0.4961 0.0
H639 H 0.55118 0.5031 0.47934 0.0
H640 H 0.61975 0.35542 0.40377 0.0
H641 H 0.55325 0.44885 0.57576 0.0
H642 H 0.57587 0.44901 0.45158 0.0
H643 H 0.58825 0.351 0.52631 0.0
C644 C 0.60666 0.32061 0.48242 0.0
C645 C 0.61553 0.32116 0.44756 0.0
C646 C 0.571 0.44885 0.47883 0.0
C647 C 0.59299 0.38439 0.48156 0.0
C648 C 0.55669 0.47981 0.49475 0.0
C649 C 0.54991 0.48075 0.53007 0.0
C650 C 0.57852 0.41817 0.49815 0.0
C651 C 0.55789 0.44952 0.5485 0.0
C652 C 0.59571 0.35216 0.49957 0.0
C653 C 0.61379 0.35398 0.4308 0.0
N654 N 0.57158 0.41961 0.53237 0.0
N655 N 0.60254 0.38412 0.44782 0.0
loop_
_geom_bond_atom_site_label_1
_geom_bond_atom_site_label_2
_geom_bond_distance
_geom_bond_site_symmetry_2
_ccdc_geom_bond_type
H0 C3 0.929 . S
H1 C6 0.929 . S
H2 C8 0.930 . S
C3 H0 0.929 . S
C3 C4 1.398 . S
C3 C5 1.396 . S
C4 C3 1.398 . S
C4 C8 1.407 . S
C5 C3 1.396 . S
C5 C6 1.394 . S
C6 H1 0.929 . S
C6 C5 1.394 . S
C6 C7 1.382 . S
C7 C6 1.382 . S
C7 C8 1.392 . S
C7 N9 1.420 . S
C8 H2 0.930 . S
C8 C4 1.407 . S
C8 C7 1.392 . S
N9 C7 1.420 . S
N9 C10 1.244 . S
C10 N9 1.244 . S
H11 C14 0.929 . S
H12 C17 0.929 . S
H13 C19 0.930 . S
C14 H11 0.929 . S
C14 C15 1.398 . S
C14 C16 1.396 . S
C15 C14 1.398 . S
C15 C19 1.407 . S
C16 C14 1.396 . S
C16 C17 1.394 . S
C17 H12 0.929 . S
C17 C16 1.394 . S
C17 C18 1.382 . S
C18 C17 1.382 . S
C18 C19 1.392 . S
C18 N20 1.420 . S
C19 H13 0.930 . S
C19 C15 1.407 . S
C19 C18 1.392 . S
N20 C18 1.420 . S
N20 C21 1.244 . S
C21 N20 1.244 . S
H22 C25 0.929 . S
H23 C28 0.929 . S
H24 C30 0.930 . S
C25 H22 0.929 . S
C25 C26 1.398 . S
C25 C27 1.396 . S
C26 C25 1.398 . S
C26 C30 1.407 . S
C27 C25 1.396 . S
C27 C28 1.394 . S
C28 H23 0.929 . S
C28 C27 1.394 . S
C28 C29 1.382 . S
C29 C28 1.382 . S
C29 C30 1.392 . S
C29 N31 1.420 . S
C30 H24 0.930 . S
C30 C26 1.407 . S
C30 C29 1.392 . S
N31 C29 1.420 . S
N31 C32 1.244 . S
C32 N31 1.244 . S
H33 C36 0.929 . S
H34 C39 0.929 . S
H35 C41 0.930 . S
C36 H33 0.929 . S
C36 C37 1.398 . S
C36 C38 1.396 . S
C37 C36 1.398 . S
C37 C41 1.407 . S
C38 C36 1.396 . S
C38 C39 1.394 . S
C39 H34 0.929 . S
C39 C38 1.394 . S
C39 C40 1.382 . S
C40 C39 1.382 . S
C40 C41 1.392 . S
C40 N42 1.420 . S
C41 H35 0.930 . S
C41 C37 1.407 . S
C41 C40 1.392 . S
N42 C40 1.420 . S
N42 C43 1.244 . S
C43 N42 1.244 . S
H44 C47 0.929 . S
H45 C50 0.929 . S
H46 C52 0.930 . S
C47 H44 0.929 . S
C47 C48 1.398 . S
C47 C49 1.396 . S
C48 C47 1.398 . S
C48 C52 1.407 . S
C49 C47 1.396 . S
C49 C50 1.394 . S
C50 H45 0.929 . S
C50 C49 1.394 . S
C50 C51 1.382 . S
C51 C50 1.382 . S
C51 C52 1.392 . S
C51 N53 1.420 . S
C52 H46 0.930 . S
C52 C48 1.407 . S
C52 C51 1.392 . S
N53 C51 1.420 . S
N53 C54 1.244 . S
C54 N53 1.244 . S
H55 C58 0.929 . S
H56 C61 0.929 . S
H57 C63 0.930 . S
C58 H55 0.929 . S
C58 C59 1.398 . S
C58 C60 1.396 . S
C59 C58 1.398 . S
C59 C63 1.407 . S
C60 C58 1.396 . S
C60 C61 1.394 . S
C61 H56 0.929 . S
C61 C60 1.394 . S
C61 C62 1.382 . S
C62 C61 1.382 . S
C62 C63 1.392 . S
C62 N64 1.420 . S
C63 H57 0.930 . S
C63 C59 1.407 . S
C63 C62 1.392 . S
N64 C62 1.420 . S
N64 C65 1.244 . S
C65 N64 1.244 . S
H66 C69 0.929 . S
H67 C72 0.929 . S
H68 C74 0.930 . S
C69 H66 0.929 . S
C69 C70 1.398 . S
C69 C71 1.396 . S
C70 C69 1.398 . S
C70 C74 1.407 . S
C71 C69 1.396 . S
C71 C72 1.394 . S
C72 H67 0.929 . S
C72 C71 1.394 . S
C72 C73 1.382 . S
C73 C72 1.382 . S
C73 C74 1.392 . S
C73 N75 1.420 . S
C74 H68 0.930 . S
C74 C70 1.407 . S
C74 C73 1.392 . S
N75 C73 1.420 . S
N75 C76 1.244 . S
C76 N75 1.244 . S
H77 C80 0.929 . S
H78 C83 0.929 . S
H79 C85 0.930 . S
C80 H77 0.929 . S
C80 C81 1.398 . S
C80 C82 1.396 . S
C81 C80 1.398 . S
C81 C85 1.407 . S
C82 C80 1.396 . S
C82 C83 1.394 . S
C83 H78 0.929 . S
C83 C82 1.394 . S
C83 C84 1.382 . S
C84 C83 1.382 . S
C84 C85 1.392 . S
C84 N86 1.420 . S
C85 H79 0.930 . S
C85 C81 1.407 . S
C85 C84 1.392 . S
N86 C84 1.420 . S
N86 C87 1.244 . S
C87 N86 1.244 . S
C88 O104 1.251 . S
C88 O106 1.254 . S
N89 C90 1.333 . S
N89 C94 1.307 . S
N89 Zn95 2.020 . S
C90 N89 1.333 . S
C90 C91 1.379 . S
C90 H108 0.952 . S
C91 C90 1.379 . S
C91 C92 1.390 . S
C91 H118 0.949 . S
C92 C91 1.390 . S
C92 C93 1.357 . S
C93 C92 1.357 . S
C93 C94 1.370 . S
C93 H119 0.950 . S
C94 N89 1.307 . S
C94 C93 1.370 . S
C94 H112 0.948 1_455 S
Zn95 N89 2.020 . S
Zn95 O104 2.039 . S
Zn95 O110 2.034 . S
Zn95 O114 2.025 1_455 S
Zn95 O116 2.024 1_455 S
C96 O115 1.246 . S
C96 O116 1.249 . S
N97 C98 1.307 . S
N97 C99 1.333 . S
N97 Zn103 2.020 1_565 S
C98 N97 1.307 . S
C98 C102 1.370 . S
C98 H109 0.948 1_655 S
C99 N97 1.333 . S
C99 C100 1.379 . S
C99 H107 0.952 . S
C100 C99 1.379 . S
C100 C101 1.390 . S
C100 H120 0.949 . S
C101 C100 1.390 . S
C101 C102 1.357 . S
C102 C98 1.370 . S
C102 C101 1.357 . S
C102 H121 0.950 . S
Zn103 N97 2.020 1_545 S
Zn103 O106 2.025 1_655 S
Zn103 O111 2.024 1_645 S
Zn103 O113 2.039 1_545 S
Zn103 O115 2.034 . S
O104 C88 1.251 . S
O104 Zn95 2.039 . S
C105 O110 1.246 . S
C105 O111 1.249 1_545 S
O106 C88 1.254 . S
O106 Zn103 2.025 1_455 S
H107 C99 0.952 . S
H108 C90 0.952 . S
H109 C98 0.948 1_455 S
O110 Zn95 2.034 . S
O110 C105 1.246 . S
O111 Zn103 2.024 1_465 S
O111 C105 1.249 1_565 S
H112 C94 0.948 1_655 S
O113 Zn103 2.039 1_565 S
O113 C117 1.251 1_565 S
O114 Zn95 2.025 1_655 S
O114 C117 1.254 . S
O115 C96 1.246 . S
O115 Zn103 2.034 . S
O116 Zn95 2.024 1_655 S
O116 C96 1.249 . S
C117 O113 1.251 1_545 S
C117 O114 1.254 . S
H118 C91 0.949 . S
H119 C93 0.950 . S
H120 C100 0.949 . S
H121 C102 0.950 . S
C122 O138 1.251 . S
C122 O140 1.254 1_545 S
N123 C124 1.333 . S
N123 C128 1.307 1_554 S
N123 Zn129 2.020 . S
C124 N123 1.333 . S
C124 C125 1.379 1_554 S
C124 H142 0.952 . S
C125 C124 1.379 1_556 S
C125 C126 1.390 . S
C125 H152 0.949 . S
C126 C125 1.390 . S
C126 C127 1.357 . S
C127 C126 1.357 . S
C127 C128 1.370 . S
C127 H153 0.950 . S
C128 N123 1.307 1_556 S
C128 C127 1.370 . S
C128 H146 0.948 . S
Zn129 N123 2.020 . S
Zn129 O138 2.039 . S
Zn129 O144 2.034 . S
Zn129 O148 2.025 . S
Zn129 O150 2.024 1_554 S
C130 O149 1.246 . S
C130 O150 1.249 . S
N131 C132 1.307 . S
N131 C133 1.333 . S
N131 Zn137 2.020 1_565 S
C132 N131 1.307 . S
C132 C136 1.370 . S
C132 H143 0.948 . S
C133 N131 1.333 . S
C133 C134 1.379 . S
C133 H141 0.952 . S
C134 C133 1.379 . S
C134 C135 1.390 . S
C134 H154 0.949 . S
C135 C134 1.390 . S
C135 C136 1.357 . S
C136 C132 1.370 . S
C136 C135 1.357 . S
C136 H155 0.950 . S
Zn137 N131 2.020 1_545 S
Zn137 O140 2.025 1_545 S
Zn137 O145 2.024 . S
Zn137 O147 2.039 . S
Zn137 O149 2.034 1_554 S
O138 C122 1.251 . S
O138 Zn129 2.039 . S
C139 O144 1.246 . S
C139 O145 1.249 . S
O140 C122 1.254 1_565 S
O140 Zn137 2.025 1_565 S
H141 C133 0.952 . S
H142 C124 0.952 . S
H143 C132 0.948 . S
O144 Zn129 2.034 . S
O144 C139 1.246 . S
O145 Zn137 2.024 . S
O145 C139 1.249 . S
H146 C128 0.948 . S
O147 Zn137 2.039 . S
O147 C151 1.251 . S
O148 Zn129 2.025 . S
O148 C151 1.254 . S
O149 C130 1.246 . S
O149 Zn137 2.034 1_556 S
O150 Zn129 2.024 1_556 S
O150 C130 1.249 . S
C151 O147 1.251 . S
C151 O148 1.254 . S
H152 C125 0.949 . S
H153 C127 0.950 . S
H154 C134 0.949 . S
H155 C136 0.950 . S
C156 O172 1.251 . S
C156 O174 1.254 . S
N157 C158 1.333 . S
N157 C162 1.307 . S
N157 Zn163 2.020 . S
C158 N157 1.333 . S
C158 C159 1.379 . S
C158 H176 0.952 . S
C159 C158 1.379 . S
C159 C160 1.390 . S
C159 H186 0.949 . S
C160 C159 1.390 . S
C160 C161 1.357 . S
C161 C160 1.357 . S
C161 C162 1.370 . S
C161 H187 0.950 . S
C162 N157 1.307 . S
C162 C161 1.370 . S
C162 H180 0.948 . S
Zn163 N157 2.020 . S
Zn163 O172 2.039 . S
Zn163 O178 2.034 . S
Zn163 O182 2.025 . S
Zn163 O184 2.024 . S
C164 O183 1.246 . S
C164 O184 1.249 . S
N165 C166 1.307 . S
N165 C167 1.333 . S
N165 Zn171 2.020 . S
C166 N165 1.307 . S
C166 C170 1.370 . S
C166 H177 0.948 . S
C167 N165 1.333 . S
C167 C168 1.379 . S
C167 H175 0.952 . S
C168 C167 1.379 . S
C168 C169 1.390 . S
C168 H188 0.949 . S
C169 C168 1.390 . S
C169 C170 1.357 . S
C170 C166 1.370 . S
C170 C169 1.357 . S
C170 H189 0.950 . S
Zn171 N165 2.020 . S
Zn171 O174 2.025 . S
Zn171 O179 2.024 . S
Zn171 O181 2.039 . S
Zn171 O183 2.034 . S
O172 C156 1.251 . S
O172 Zn163 2.039 . S
C173 O178 1.246 . S
C173 O179 1.249 . S
O174 C156 1.254 . S
O174 Zn171 2.025 . S
H175 C167 0.952 . S
H176 C158 0.952 . S
H177 C166 0.948 . S
O178 Zn163 2.034 . S
O178 C173 1.246 . S
O179 Zn171 2.024 . S
O179 C173 1.249 . S
H180 C162 0.948 . S
O181 Zn171 2.039 . S
O181 C185 1.251 . S
O182 Zn163 2.025 . S
O182 C185 1.254 . S
O183 C164 1.246 . S
O183 Zn171 2.034 . S
O184 Zn163 2.024 . S
O184 C164 1.249 . S
C185 O181 1.251 . S
C185 O182 1.254 . S
H186 C159 0.949 . S
H187 C161 0.950 . S
H188 C168 0.949 . S
H189 C170 0.950 . S
C190 O206 1.251 1_556 S
C190 O208 1.254 1_655 S
N191 C192 1.333 . S
N191 C196 1.307 . S
N191 Zn197 2.020 . S
C192 N191 1.333 . S
C192 C193 1.379 . S
C192 H210 0.952 . S
C193 C192 1.379 . S
C193 C194 1.390 . S
C193 H220 0.949 . S
C194 C193 1.390 . S
C194 C195 1.357 . S
C195 C194 1.357 . S
C195 C196 1.370 . S
C195 H221 0.950 . S
C196 N191 1.307 . S
C196 C195 1.370 . S
C196 H214 0.948 . S
Zn197 N191 2.020 . S
Zn197 O206 2.039 . S
Zn197 O212 2.034 1_655 S
Zn197 O216 2.025 1_655 S
Zn197 O218 2.024 . S
C198 O217 1.246 . S
C198 O218 1.249 1_556 S
N199 C200 1.307 . S
N199 C201 1.333 . S
N199 Zn205 2.020 . S
C200 N199 1.307 . S
C200 C204 1.370 . S
C200 H211 0.948 . S
C201 N199 1.333 . S
C201 C202 1.379 . S
C201 H209 0.952 . S
C202 C201 1.379 . S
C202 C203 1.390 . S
C202 H222 0.949 . S
C203 C202 1.390 . S
C203 C204 1.357 . S
C204 C200 1.370 . S
C204 C203 1.357 . S
C204 H223 0.950 . S
Zn205 N199 2.020 . S
Zn205 O208 2.025 . S
Zn205 O213 2.024 . S
Zn205 O215 2.039 . S
Zn205 O217 2.034 1_455 S
O206 C190 1.251 1_554 S
O206 Zn197 2.039 . S
C207 O212 1.246 . S
C207 O213 1.249 1_554 S
O208 C190 1.254 1_455 S
O208 Zn205 2.025 . S
H209 C201 0.952 . S
H210 C192 0.952 . S
H211 C200 0.948 . S
O212 Zn197 2.034 1_455 S
O212 C207 1.246 . S
O213 Zn205 2.024 . S
O213 C207 1.249 1_556 S
H214 C196 0.948 . S
O215 Zn205 2.039 . S
O215 C219 1.251 1_556 S
O216 Zn197 2.025 1_455 S
O216 C219 1.254 . S
O217 C198 1.246 . S
O217 Zn205 2.034 1_655 S
O218 Zn197 2.024 . S
O218 C198 1.249 1_554 S
C219 O215 1.251 1_554 S
C219 O216 1.254 . S
H220 C193 0.949 . S
H221 C195 0.950 . S
H222 C202 0.949 . S
H223 C204 0.950 . S
H224 C230 0.930 . S
H225 C234 0.930 . S
H226 C239 0.929 . S
H227 C237 0.929 . S
H228 C232 0.929 . S
H229 C238 0.929 . S
C230 H224 0.930 . S
C230 C231 1.367 . S
C230 C238 1.378 . S
C231 C230 1.367 . S
C231 C239 1.433 . S
C232 H228 0.929 . S
C232 C234 1.378 . S
C232 C236 1.350 . S
C233 C236 1.463 . S
C233 C238 1.350 . S
C233 N241 1.427 . S
C234 H225 0.930 . S
C234 C232 1.378 . S
C234 C235 1.367 . S
C235 C234 1.367 . S
C235 C237 1.433 . S
C236 C232 1.350 . S
C236 C233 1.463 . S
C236 N240 1.427 . S
C237 H227 0.929 . S
C237 C235 1.433 . S
C237 N240 1.384 . S
C238 H229 0.929 . S
C238 C230 1.378 . S
C238 C233 1.350 . S
C239 H226 0.929 . S
C239 C231 1.433 . S
C239 N241 1.384 . S
N240 C236 1.427 . S
N240 C237 1.384 . S
N241 C233 1.427 . S
N241 C239 1.384 . S
H242 C248 0.930 . S
H243 C252 0.930 . S
H244 C257 0.909 1_545 S
H245 C255 0.929 . S
H246 C250 0.929 . S
H247 C256 0.929 . S
C248 H242 0.930 . S
C248 C249 1.367 . S
C248 C256 1.378 . S
C249 C248 1.367 . S
C249 C257 1.433 . S
C250 H246 0.929 . S
C250 C252 1.378 . S
C250 C254 1.350 1_545 S
C251 C254 1.463 . S
C251 C256 1.350 . S
C251 N259 1.427 . S
C252 H243 0.930 . S
C252 C250 1.378 . S
C252 C253 1.367 . S
C253 C252 1.367 . S
C253 C255 1.433 1_545 S
C254 C250 1.350 1_565 S
C254 C251 1.463 . S
C254 N258 1.427 . S
C255 H245 0.929 . S
C255 C253 1.433 1_565 S
C255 N258 1.384 . S
C256 H247 0.929 . S
C256 C248 1.378 . S
C256 C251 1.350 . S
C257 H244 0.909 1_565 S
C257 C249 1.433 . S
C257 N259 1.384 . S
N258 C254 1.427 . S
N258 C255 1.384 . S
N259 C251 1.427 . S
N259 C257 1.384 . S
H260 C266 0.930 . S
H261 C270 0.930 . S
H262 C275 0.929 . S
H263 C273 0.929 . S
H264 C268 0.929 . S
H265 C274 0.929 . S
C266 H260 0.930 . S
C266 C267 1.367 . S
C266 C274 1.378 . S
C267 C266 1.367 . S
C267 C275 1.433 . S
C268 H264 0.929 . S
C268 C270 1.378 . S
C268 C272 1.350 . S
C269 C272 1.463 . S
C269 C274 1.350 . S
C269 N277 1.427 . S
C270 H261 0.930 . S
C270 C268 1.378 . S
C270 C271 1.367 . S
C271 C270 1.367 . S
C271 C273 1.433 . S
C272 C268 1.350 . S
C272 C269 1.463 . S
C272 N276 1.427 . S
C273 H263 0.929 . S
C273 C271 1.433 . S
C273 N276 1.384 . S
C274 H265 0.929 . S
C274 C266 1.378 . S
C274 C269 1.350 . S
C275 H262 0.929 . S
C275 C267 1.433 . S
C275 N277 1.384 . S
N276 C272 1.427 . S
N276 C273 1.384 . S
N277 C269 1.427 . S
N277 C275 1.384 . S
H278 C284 0.930 . S
H279 C288 0.930 . S
H280 C293 0.929 . S
H281 C291 0.929 . S
H282 C286 0.929 . S
H283 C292 0.929 . S
C284 H278 0.930 . S
C284 C285 1.367 . S
C284 C292 1.378 . S
C285 C284 1.367 . S
C285 C293 1.433 . S
C286 H282 0.929 . S
C286 C288 1.378 . S
C286 C290 1.350 . S
C287 C290 1.463 . S
C287 C292 1.350 . S
C287 N295 1.427 . S
C288 H279 0.930 . S
C288 C286 1.378 . S
C288 C289 1.367 . S
C289 C288 1.367 . S
C289 C291 1.433 . S
C290 C286 1.350 . S
C290 C287 1.463 . S
C290 N294 1.427 . S
C291 H281 0.929 . S
C291 C289 1.433 . S
C291 N294 1.384 . S
C292 H283 0.929 . S
C292 C284 1.378 . S
C292 C287 1.350 . S
C293 H280 0.929 . S
C293 C285 1.433 . S
C293 N295 1.384 . S
N294 C290 1.427 . S
N294 C291 1.384 . S
N295 C287 1.427 . S
N295 C293 1.384 . S
H296 C302 0.930 . S
H297 C306 0.930 . S
H298 C311 0.929 . S
H299 C309 0.929 . S
H300 C304 0.929 . S
H301 C310 0.929 . S
C302 H296 0.930 . S
C302 C303 1.367 . S
C302 C310 1.378 . S
C303 C302 1.367 . S
C303 C311 1.433 . S
C304 H300 0.929 . S
C304 C306 1.378 . S
C304 C308 1.350 . S
C305 C308 1.463 . S
C305 C310 1.350 . S
C305 N313 1.427 . S
C306 H297 0.930 . S
C306 C304 1.378 . S
C306 C307 1.367 . S
C307 C306 1.367 . S
C307 C309 1.433 . S
C308 C304 1.350 . S
C308 C305 1.463 . S
C308 N312 1.427 . S
C309 H299 0.929 . S
C309 C307 1.433 . S
C309 N312 1.384 . S
C310 H301 0.929 . S
C310 C302 1.378 . S
C310 C305 1.350 . S
C311 H298 0.929 . S
C311 C303 1.433 . S
C311 N313 1.384 . S
N312 C308 1.427 . S
N312 C309 1.384 . S
N313 C305 1.427 . S
N313 C311 1.384 . S
H314 C320 0.930 . S
H315 C324 0.930 . S
H316 C329 0.929 . S
H317 C327 0.929 . S
H318 C322 0.929 . S
H319 C328 0.929 1_545 S
C320 H314 0.930 . S
C320 C321 1.367 . S
C320 C328 1.378 . S
C321 C320 1.367 . S
C321 C329 1.433 . S
C322 H318 0.929 . S
C322 C324 1.378 . S
C322 C326 1.350 . S
C323 C326 1.463 . S
C323 C328 1.350 . S
C323 N331 1.427 . S
C324 H315 0.930 . S
C324 C322 1.378 . S
C324 C325 1.367 1_565 S
C325 C324 1.367 1_545 S
C325 C327 1.433 . S
C326 C322 1.350 . S
C326 C323 1.463 . S
C326 N330 1.427 1_565 S
C327 H317 0.929 . S
C327 C325 1.433 . S
C327 N330 1.384 . S
C328 H319 0.929 1_565 S
C328 C320 1.378 . S
C328 C323 1.350 . S
C329 H316 0.929 . S
C329 C321 1.433 . S
C329 N331 1.384 . S
N330 C326 1.427 1_545 S
N330 C327 1.384 . S
N331 C323 1.427 . S
N331 C329 1.384 . S
H332 C338 0.930 . S
H333 C342 0.930 . S
H334 C347 0.929 . S
H335 C345 0.929 . S
H336 C340 0.929 . S
H337 C346 0.929 1_554 S
C338 H332 0.930 . S
C338 C339 1.367 . S
C338 C346 1.378 . S
C339 C338 1.367 . S
C339 C347 1.433 . S
C340 H336 0.929 . S
C340 C342 1.378 . S
C340 C344 1.350 . S
C341 C344 1.463 . S
C341 C346 1.350 . S
C341 N349 1.427 . S
C342 H333 0.930 . S
C342 C340 1.378 . S
C342 C343 1.367 . S
C343 C342 1.367 . S
C343 C345 1.433 1_556 S
C344 C340 1.350 . S
C344 C341 1.463 . S
C344 N348 1.427 . S
C345 H335 0.929 . S
C345 C343 1.433 1_554 S
C345 N348 1.384 1_554 S
C346 H337 0.929 1_556 S
C346 C338 1.378 . S
C346 C341 1.350 . S
C347 H334 0.929 . S
C347 C339 1.433 . S
C347 N349 1.384 . S
N348 C344 1.427 . S
N348 C345 1.384 1_556 S
N349 C341 1.427 . S
N349 C347 1.384 . S
H350 C356 0.930 . S
H351 C360 0.930 . S
H352 C365 0.929 . S
H353 C363 0.929 . S
H354 C358 0.929 . S
H355 C364 0.929 . S
C356 H350 0.930 . S
C356 C357 1.367 . S
C356 C364 1.378 . S
C357 C356 1.367 . S
C357 C365 1.433 . S
C358 H354 0.929 . S
C358 C360 1.378 . S
C358 C362 1.350 . S
C359 C362 1.463 . S
C359 C364 1.350 . S
C359 N367 1.427 . S
C360 H351 0.930 . S
C360 C358 1.378 . S
C360 C361 1.367 . S
C361 C360 1.367 . S
C361 C363 1.433 . S
C362 C358 1.350 . S
C362 C359 1.463 . S
C362 N366 1.427 . S
C363 H353 0.929 . S
C363 C361 1.433 . S
C363 N366 1.384 . S
C364 H355 0.929 . S
C364 C356 1.378 . S
C364 C359 1.350 . S
C365 H352 0.929 . S
C365 C357 1.433 . S
C365 N367 1.384 . S
N366 C362 1.427 . S
N366 C363 1.384 . S
N367 C359 1.427 . S
N367 C365 1.384 . S
H368 C374 0.930 . S
H369 C378 0.930 . S
H370 C383 0.929 . S
H371 C381 0.929 . S
H372 C376 0.929 . S
H373 C382 0.929 . S
C374 H368 0.930 . S
C374 C375 1.367 . S
C374 C382 1.378 . S
C375 C374 1.367 . S
C375 C383 1.433 . S
C376 H372 0.929 . S
C376 C378 1.378 . S
C376 C380 1.350 . S
C377 C380 1.463 . S
C377 C382 1.350 . S
C377 N385 1.427 . S
C378 H369 0.930 . S
C378 C376 1.378 . S
C378 C379 1.367 . S
C379 C378 1.367 . S
C379 C381 1.433 . S
C380 C376 1.350 . S
C380 C377 1.463 . S
C380 N384 1.427 . S
C381 H371 0.929 . S
C381 C379 1.433 . S
C381 N384 1.384 . S
C382 H373 0.929 . S
C382 C374 1.378 . S
C382 C377 1.350 . S
C383 H370 0.929 . S
C383 C375 1.433 . S
C383 N385 1.384 . S
N384 C380 1.427 . S
N384 C381 1.384 . S
N385 C377 1.427 . S
N385 C383 1.384 . S
H386 C392 0.930 . S
H387 C396 0.930 . S
H388 C401 0.929 . S
H389 C399 0.913 1_554 S
H390 C394 0.929 . S
H391 C400 0.929 1_554 S
C392 H386 0.930 . S
C392 C393 1.367 . S
C392 C400 1.378 . S
C393 C392 1.367 . S
C393 C401 1.433 . S
C394 H390 0.929 . S
C394 C396 1.378 . S
C394 C398 1.350 . S
C395 C398 1.463 . S
C395 C400 1.350 . S
C395 N403 1.427 . S
C396 H387 0.930 . S
C396 C394 1.378 . S
C396 C397 1.367 . S
C397 C396 1.367 . S
C397 C399 1.447 . S
C398 C394 1.350 . S
C398 C395 1.463 . S
C398 N402 1.427 . S
C399 H389 0.913 1_556 S
C399 C397 1.447 . S
C399 N402 1.387 . S
C400 H391 0.929 1_556 S
C400 C392 1.378 . S
C400 C395 1.350 . S
C401 H388 0.929 . S
C401 C393 1.433 . S
C401 N403 1.384 . S
N402 C398 1.427 . S
N402 C399 1.387 . S
N403 C395 1.427 . S
N403 C401 1.384 . S
H404 C410 0.930 . S
H405 C414 0.930 . S
H406 C419 0.929 . S
H407 C417 0.929 . S
H408 C412 0.929 . S
H409 C418 0.929 . S
C410 H404 0.930 . S
C410 C411 1.367 . S
C410 C418 1.378 . S
C411 C410 1.367 . S
C411 C419 1.433 . S
C412 H408 0.929 . S
C412 C414 1.378 . S
C412 C416 1.350 . S
C413 C416 1.463 . S
C413 C418 1.350 . S
C413 N421 1.427 . S
C414 H405 0.930 . S
C414 C412 1.378 . S
C414 C415 1.367 . S
C415 C414 1.367 . S
C415 C417 1.433 . S
C416 C412 1.350 . S
C416 C413 1.463 . S
C416 N420 1.427 . S
C417 H407 0.929 . S
C417 C415 1.433 . S
C417 N420 1.384 . S
C418 H409 0.929 . S
C418 C410 1.378 . S
C418 C413 1.350 . S
C419 H406 0.929 . S
C419 C411 1.433 . S
C419 N421 1.384 . S
N420 C416 1.427 . S
N420 C417 1.384 . S
N421 C413 1.427 . S
N421 C419 1.384 . S
H422 C428 0.930 . S
H423 C432 0.930 . S
H424 C437 0.929 . S
H425 C435 0.929 . S
H426 C430 0.929 . S
H427 C436 0.929 . S
C428 H422 0.930 . S
C428 C429 1.367 . S
C428 C436 1.378 . S
C429 C428 1.367 . S
C429 C437 1.433 . S
C430 H426 0.929 . S
C430 C432 1.378 . S
C430 C434 1.350 . S
C431 C434 1.463 . S
C431 C436 1.350 . S
C431 N439 1.427 . S
C432 H423 0.930 . S
C432 C430 1.378 . S
C432 C433 1.367 . S
C433 C432 1.367 . S
C433 C435 1.433 . S
C434 C430 1.350 . S
C434 C431 1.463 . S
C434 N438 1.427 . S
C435 H425 0.929 . S
C435 C433 1.433 . S
C435 N438 1.384 . S
C436 H427 0.929 . S
C436 C428 1.378 . S
C436 C431 1.350 . S
C437 H424 0.929 . S
C437 C429 1.433 . S
C437 N439 1.384 . S
N438 C434 1.427 . S
N438 C435 1.384 . S
N439 C431 1.427 . S
N439 C437 1.384 . S
H440 C446 0.930 1_545 S
H441 C450 0.930 . S
H442 C455 0.929 . S
H443 C453 0.929 . S
H444 C448 0.929 . S
H445 C454 0.929 1_545 S
C446 H440 0.930 1_565 S
C446 C447 1.367 . S
C446 C454 1.378 . S
C447 C446 1.367 . S
C447 C455 1.433 . S
C448 H444 0.929 . S
C448 C450 1.378 . S
C448 C452 1.350 . S
C449 C452 1.463 . S
C449 C454 1.350 . S
C449 N457 1.427 . S
C450 H441 0.930 . S
C450 C448 1.378 . S
C450 C451 1.367 1_565 S
C451 C450 1.367 1_545 S
C451 C453 1.433 . S
C452 C448 1.350 . S
C452 C449 1.463 . S
C452 N456 1.427 1_565 S
C453 H443 0.929 . S
C453 C451 1.433 . S
C453 N456 1.384 . S
C454 H445 0.929 1_565 S
C454 C446 1.378 . S
C454 C449 1.350 . S
C455 H442 0.929 . S
C455 C447 1.433 . S
C455 N457 1.384 . S
N456 C452 1.427 1_545 S
N456 C453 1.384 . S
N457 C449 1.427 . S
N457 C455 1.384 . S
H458 C464 0.930 . S
H459 C468 0.930 . S
H460 C473 0.929 . S
H461 C471 0.929 . S
H462 C466 0.929 . S
H463 C472 0.929 . S
C464 H458 0.930 . S
C464 C465 1.367 . S
C464 C472 1.378 . S
C465 C464 1.367 . S
C465 C473 1.433 . S
C466 H462 0.929 . S
C466 C468 1.378 . S
C466 C470 1.350 . S
C467 C470 1.463 . S
C467 C472 1.350 . S
C467 N475 1.427 . S
C468 H459 0.930 . S
C468 C466 1.378 . S
C468 C469 1.367 . S
C469 C468 1.367 . S
C469 C471 1.433 . S
C470 C466 1.350 . S
C470 C467 1.463 . S
C470 N474 1.427 . S
C471 H461 0.929 . S
C471 C469 1.433 . S
C471 N474 1.384 . S
C472 H463 0.929 . S
C472 C464 1.378 . S
C472 C467 1.350 . S
C473 H460 0.929 . S
C473 C465 1.433 . S
C473 N475 1.384 . S
N474 C470 1.427 . S
N474 C471 1.384 . S
N475 C467 1.427 . S
N475 C473 1.384 . S
H476 C482 0.930 . S
H477 C486 0.930 . S
H478 C491 0.929 . S
H479 C489 0.929 . S
H480 C484 0.929 . S
H481 C490 0.929 . S
C482 H476 0.930 . S
C482 C483 1.367 . S
C482 C490 1.378 . S
C483 C482 1.367 . S
C483 C491 1.433 . S
C484 H480 0.929 . S
C484 C486 1.378 . S
C484 C488 1.350 . S
C485 C488 1.463 . S
C485 C490 1.350 . S
C485 N493 1.427 . S
C486 H477 0.930 . S
C486 C484 1.378 . S
C486 C487 1.367 . S
C487 C486 1.367 . S
C487 C489 1.433 . S
C488 C484 1.350 . S
C488 C485 1.463 . S
C488 N492 1.427 . S
C489 H479 0.929 . S
C489 C487 1.433 . S
C489 N492 1.384 . S
C490 H481 0.929 . S
C490 C482 1.378 . S
C490 C485 1.350 . S
C491 H478 0.929 . S
C491 C483 1.433 . S
C491 N493 1.384 . S
N492 C488 1.427 . S
N492 C489 1.384 . S
N493 C485 1.427 . S
N493 C491 1.384 . S
H494 C500 0.930 . S
H495 C504 0.930 . S
H496 C509 0.929 . S
H497 C507 0.929 . S
H498 C502 0.929 . S
H499 C508 0.929 . S
C500 H494 0.930 . S
C500 C501 1.367 . S
C500 C508 1.378 . S
C501 C500 1.367 . S
C501 C509 1.433 . S
C502 H498 0.929 . S
C502 C504 1.378 . S
C502 C506 1.350 . S
C503 C506 1.463 . S
C503 C508 1.350 . S
C503 N511 1.427 . S
C504 H495 0.930 . S
C504 C502 1.378 . S
C504 C505 1.367 . S
C505 C504 1.367 . S
C505 C507 1.433 . S
C506 C502 1.350 . S
C506 C503 1.463 . S
C506 N510 1.427 . S
C507 H497 0.929 . S
C507 C505 1.433 . S
C507 N510 1.384 . S
C508 H499 0.929 . S
C508 C500 1.378 . S
C508 C503 1.350 . S
C509 H496 0.929 . S
C509 C501 1.433 . S
C509 N511 1.384 . S
N510 C506 1.427 . S
N510 C507 1.384 . S
N511 C503 1.427 . S
N511 C509 1.384 . S
H512 C518 0.930 . S
H513 C522 0.930 . S
H514 C527 0.929 . S
H515 C525 0.929 . S
H516 C520 0.929 . S
H517 C526 0.929 1_545 S
C518 H512 0.930 . S
C518 C519 1.367 . S
C518 C526 1.378 . S
C519 C518 1.367 . S
C519 C527 1.433 . S
C520 H516 0.929 . S
C520 C522 1.378 . S
C520 C524 1.350 1_554 S
C521 C524 1.463 . S
C521 C526 1.350 . S
C521 N529 1.427 . S
C522 H513 0.930 . S
C522 C520 1.378 . S
C522 C523 1.367 1_564 S
C523 C522 1.367 1_546 S
C523 C525 1.433 . S
C524 C520 1.350 1_556 S
C524 C521 1.463 . S
C524 N528 1.427 1_565 S
C525 H515 0.929 . S
C525 C523 1.433 . S
C525 N528 1.384 . S
C526 H517 0.929 1_565 S
C526 C518 1.378 . S
C526 C521 1.350 . S
C527 H514 0.929 . S
C527 C519 1.433 . S
C527 N529 1.384 . S
N528 C524 1.427 1_545 S
N528 C525 1.384 . S
N529 C521 1.427 . S
N529 C527 1.384 . S
H530 C536 0.930 . S
H531 C540 0.930 . S
H532 C545 0.929 . S
H533 C543 0.929 . S
H534 C538 0.929 . S
H535 C544 0.929 . S
C536 H530 0.930 . S
C536 C537 1.367 . S
C536 C544 1.378 . S
C537 C536 1.367 . S
C537 C545 1.433 . S
C538 H534 0.929 . S
C538 C540 1.378 . S
C538 C542 1.350 . S
C539 C542 1.463 . S
C539 C544 1.350 . S
C539 N547 1.427 . S
C540 H531 0.930 . S
C540 C538 1.378 . S
C540 C541 1.367 . S
C541 C540 1.367 . S
C541 C543 1.433 . S
C542 C538 1.350 . S
C542 C539 1.463 . S
C542 N546 1.427 . S
C543 H533 0.929 . S
C543 C541 1.433 . S
C543 N546 1.384 . S
C544 H535 0.929 . S
C544 C536 1.378 . S
C544 C539 1.350 . S
C545 H532 0.929 . S
C545 C537 1.433 . S
C545 N547 1.384 . S
N546 C542 1.427 . S
N546 C543 1.384 . S
N547 C539 1.427 . S
N547 C545 1.384 . S
H548 C554 0.930 . S
H549 C558 0.930 . S
H550 C563 0.929 . S
H551 C561 0.929 1_556 S
H552 C556 0.929 . S
H553 C562 0.929 . S
C554 H548 0.930 . S
C554 C555 1.367 . S
C554 C562 1.378 . S
C555 C554 1.367 . S
C555 C563 1.433 . S
C556 H552 0.929 . S
C556 C558 1.378 . S
C556 C560 1.350 . S
C557 C560 1.463 . S
C557 C562 1.350 . S
C557 N565 1.427 . S
C558 H549 0.930 . S
C558 C556 1.378 . S
C558 C559 1.367 . S
C559 C558 1.367 . S
C559 C561 1.433 . S
C560 C556 1.350 . S
C560 C557 1.463 . S
C560 N564 1.427 . S
C561 H551 0.929 1_554 S
C561 C559 1.433 . S
C561 N564 1.384 . S
C562 H553 0.929 . S
C562 C554 1.378 . S
C562 C557 1.350 . S
C563 H550 0.929 . S
C563 C555 1.433 . S
C563 N565 1.384 . S
N564 C560 1.427 . S
N564 C561 1.384 . S
N565 C557 1.427 . S
N565 C563 1.384 . S
H566 C572 0.930 . S
H567 C576 0.930 . S
H568 C581 0.929 . S
H569 C579 0.929 . S
H570 C574 0.929 . S
H571 C580 0.929 . S
C572 H566 0.930 . S
C572 C573 1.367 . S
C572 C580 1.378 . S
C573 C572 1.367 . S
C573 C581 1.433 . S
C574 H570 0.929 . S
C574 C576 1.378 . S
C574 C578 1.350 . S
C575 C578 1.463 . S
C575 C580 1.350 . S
C575 N583 1.427 . S
C576 H567 0.930 . S
C576 C574 1.378 . S
C576 C577 1.367 . S
C577 C576 1.367 . S
C577 C579 1.433 . S
C578 C574 1.350 . S
C578 C575 1.463 . S
C578 N582 1.427 . S
C579 H569 0.929 . S
C579 C577 1.433 . S
C579 N582 1.384 . S
C580 H571 0.929 . S
C580 C572 1.378 . S
C580 C575 1.350 . S
C581 H568 0.929 . S
C581 C573 1.433 . S
C581 N583 1.384 . S
N582 C578 1.427 . S
N582 C579 1.384 . S
N583 C575 1.427 . S
N583 C581 1.384 . S
H584 C590 0.930 . S
H585 C594 0.930 1_455 S
H586 C599 0.929 . S
H587 C597 0.929 1_554 S
H588 C592 0.929 . S
H589 C598 0.929 . S
C590 H584 0.930 . S
C590 C591 1.367 . S
C590 C598 1.378 . S
C591 C590 1.367 . S
C591 C599 1.433 . S
C592 H588 0.929 . S
C592 C594 1.378 . S
C592 C596 1.350 . S
C593 C596 1.463 . S
C593 C598 1.350 . S
C593 N601 1.427 . S
C594 H585 0.930 1_655 S
C594 C592 1.378 . S
C594 C595 1.367 . S
C595 C594 1.367 . S
C595 C597 1.433 . S
C596 C592 1.350 . S
C596 C593 1.463 . S
C596 N600 1.427 . S
C597 H587 0.929 1_556 S
C597 C595 1.433 . S
C597 N600 1.384 . S
C598 H589 0.929 . S
C598 C590 1.378 . S
C598 C593 1.350 . S
C599 H586 0.929 . S
C599 C591 1.433 . S
C599 N601 1.384 . S
N600 C596 1.427 . S
N600 C597 1.384 . S
N601 C593 1.427 . S
N601 C599 1.384 . S
H602 C608 0.930 . S
H603 C612 0.930 . S
H604 C617 0.929 . S
H605 C615 0.929 . S
H606 C610 0.929 . S
H607 C616 0.929 . S
C608 H602 0.930 . S
C608 C609 1.367 . S
C608 C616 1.378 . S
C609 C608 1.367 . S
C609 C617 1.433 . S
C610 H606 0.929 . S
C610 C612 1.378 . S
C610 C614 1.350 . S
C611 C614 1.463 . S
C611 C616 1.350 . S
C611 N619 1.427 . S
C612 H603 0.930 . S
C612 C610 1.378 . S
C612 C613 1.367 . S
C613 C612 1.367 . S
C613 C615 1.433 . S
C614 C610 1.350 . S
C614 C611 1.463 . S
C614 N618 1.427 . S
C615 H605 0.929 . S
C615 C613 1.433 . S
C615 N618 1.384 . S
C616 H607 0.929 . S
C616 C608 1.378 . S
C616 C611 1.350 . S
C617 H604 0.929 . S
C617 C609 1.433 . S
C617 N619 1.384 . S
N618 C614 1.427 . S
N618 C615 1.384 . S
N619 C611 1.427 . S
N619 C617 1.384 . S
H620 C626 0.930 . S
H621 C630 0.930 . S
H622 C635 0.929 . S
H623 C633 0.929 . S
H624 C628 0.929 . S
H625 C634 0.929 . S
C626 H620 0.930 . S
C626 C627 1.367 . S
C626 C634 1.378 . S
C627 C626 1.367 . S
C627 C635 1.433 . S
C628 H624 0.929 . S
C628 C630 1.378 . S
C628 C632 1.350 . S
C629 C632 1.463 . S
C629 C634 1.350 . S
C629 N637 1.427 . S
C630 H621 0.930 . S
C630 C628 1.378 . S
C630 C631 1.367 . S
C631 C630 1.367 . S
C631 C633 1.433 . S
C632 C628 1.350 . S
C632 C629 1.463 . S
C632 N636 1.427 . S
C633 H623 0.929 . S
C633 C631 1.433 . S
C633 N636 1.384 . S
C634 H625 0.929 . S
C634 C626 1.378 . S
C634 C629 1.350 . S
C635 H622 0.929 . S
C635 C627 1.433 . S
C635 N637 1.384 . S
N636 C632 1.427 . S
N636 C633 1.384 . S
N637 C629 1.427 . S
N637 C635 1.384 . S
H638 C644 0.930 . S
H639 C648 0.930 . S
H640 C653 0.929 . S
H641 C651 0.929 . S
H642 C646 0.929 . S
H643 C652 0.929 . S
C644 H638 0.930 . S
C644 C645 1.367 . S
C644 C652 1.378 . S
C645 C644 1.367 . S
C645 C653 1.433 . S
C646 H642 0.929 . S
C646 C648 1.378 . S
C646 C650 1.350 . S
C647 C650 1.463 . S
C647 C652 1.350 . S
C647 N655 1.427 . S
C648 H639 0.930 . S
C648 C646 1.378 . S
C648 C649 1.367 . S
C649 C648 1.367 . S
C649 C651 1.433 . S
C650 C646 1.350 . S
C650 C647 1.463 . S
C650 N654 1.427 . S
C651 H641 0.929 . S
C651 C649 1.433 . S
C651 N654 1.384 . S
C652 H643 0.929 . S
C652 C644 1.378 . S
C652 C647 1.350 . S
C653 H640 0.929 . S
C653 C645 1.433 . S
C653 N655 1.384 . S
N654 C650 1.427 . S
N654 C651 1.384 . S
N655 C647 1.427 . S
N655 C653 1.384 . S
C231 C4 2.516 . S
C235 C88 2.521 . S
C249 C16 2.609 . S
C253 C130 2.618 . S
C271 C160 0.637 . S
C267 C32 0.640 . S
C285 C43 0.903 . S
C289 C194 0.909 . S
C307 C151 2.268 . S
C303 C5 2.256 . S
C325 C105 1.664 . S
C321 C21 1.650 . S
C343 C198 1.135 . S
C339 C27 1.121 . S
C361 C164 1.174 . S
C357 C37 1.168 . S
C375 C10 2.203 . S
C379 C219 2.222 . S
C397 C126 1.189 . S
C393 C26 1.176 . S
C411 C38 0.925 . S
C415 C101 0.935 . S
C429 C15 2.348 . S
C433 C185 2.358 . S
C451 C117 2.638 . S
C447 C48 2.631 . S
C465 C59 2.391 . S
C469 C139 2.409 . S
C483 C76 0.881 . S
C487 C169 0.882 . S
C501 C87 0.734 . S
C505 C203 0.737 . S
C519 C54 1.692 . S
C523 C122 1.709 1_556 S
C541 C96 2.221 . S
C537 C60 2.206 . S
C559 C207 1.089 . S
C555 C71 1.069 . S
C577 C173 1.164 . S
C573 C82 1.151 . S
C591 C49 2.490 . S
C595 C190 2.492 . S
C613 C135 0.890 . S
C609 C70 0.886 . S
C631 C92 1.153 . S
C627 C81 1.136 . S
C645 C65 2.153 . S
C649 C156 2.163 . S
