# Generated by pormake.
# Topology eea, (3,6)-cn, num edge types: 1
# Building blocks:
#     Node 0, Type 0, BuildingBlock: ESEHIV_clean_linker_0, # of connection points: 3
#     Node 1, Type 0, BuildingBlock: ESEHIV_clean_linker_0, # of connection points: 3
#     Node 2, Type 0, BuildingBlock: ESEHIV_clean_linker_0, # of connection points: 3
#     Node 3, Type 0, BuildingBlock: ESEHIV_clean_linker_0, # of connection points: 3
#     Node 4, Type 0, BuildingBlock: ESEHIV_clean_linker_0, # of connection points: 3
#     Node 5, Type 0, BuildingBlock: ESEHIV_clean_linker_0, # of connection points: 3
#     Node 6, Type 0, BuildingBlock: ESEHIV_clean_linker_0, # of connection points: 3
#     Node 7, Type 0, BuildingBlock: ESEHIV_clean_linker_0, # of connection points: 3
#     Node 8, Type 0, BuildingBlock: ESEHIV_clean_linker_0, # of connection points: 3
#     Node 9, Type 0, BuildingBlock: ESEHIV_clean_linker_0, # of connection points: 3
#     Node 10, Type 0, BuildingBlock: ESEHIV_clean_linker_0, # of connection points: 3
#     Node 11, Type 0, BuildingBlock: ESEHIV_clean_linker_0, # of connection points: 3
#     Node 12, Type 0, BuildingBlock: ESEHIV_clean_linker_0, # of connection points: 3
#     Node 13, Type 0, BuildingBlock: ESEHIV_clean_linker_0, # of connection points: 3
#     Node 14, Type 0, BuildingBlock: ESEHIV_clean_linker_0, # of connection points: 3
#     Node 15, Type 0, BuildingBlock: ESEHIV_clean_linker_0, # of connection points: 3
#     Node 16, Type 0, BuildingBlock: ESEHIV_clean_linker_0, # of connection points: 3
#     Node 17, Type 0, BuildingBlock: ESEHIV_clean_linker_0, # of connection points: 3
#     Node 18, Type 1, BuildingBlock: CUKXOW_clean_sbu_0, # of connection points: 6
#     Node 19, Type 1, BuildingBlock: CUKXOW_clean_sbu_0, # of connection points: 6
#     Node 20, Type 1, BuildingBlock: CUKXOW_clean_sbu_0, # of connection points: 6
#     Node 21, Type 1, BuildingBlock: CUKXOW_clean_sbu_0, # of connection points: 6
#     Node 22, Type 1, BuildingBlock: CUKXOW_clean_sbu_0, # of connection points: 6
#     Node 23, Type 1, BuildingBlock: CUKXOW_clean_sbu_0, # of connection points: 6
#     Node 24, Type 1, BuildingBlock: CUKXOW_clean_sbu_0, # of connection points: 6
#     Node 25, Type 1, BuildingBlock: CUKXOW_clean_sbu_0, # of connection points: 6
#     Node 26, Type 1, BuildingBlock: CUKXOW_clean_sbu_0, # of connection points: 6
#     Edge 27, Type (0, 1), None
#     Edge 28, Type (0, 1), None
#     Edge 29, Type (0, 1), None
#     Edge 30, Type (0, 1), None
#     Edge 31, Type (0, 1), None
#     Edge 32, Type (0, 1), None
#     Edge 33, Type (0, 1), None
#     Edge 34, Type (0, 1), None
#     Edge 35, Type (0, 1), None
#     Edge 36, Type (0, 1), None
#     Edge 37, Type (0, 1), None
#     Edge 38, Type (0, 1), None
#     Edge 39, Type (0, 1), None
#     Edge 40, Type (0, 1), None
#     Edge 41, Type (0, 1), None
#     Edge 42, Type (0, 1), None
#     Edge 43, Type (0, 1), None
#     Edge 44, Type (0, 1), None
#     Edge 45, Type (0, 1), None
#     Edge 46, Type (0, 1), None
#     Edge 47, Type (0, 1), None
#     Edge 48, Type (0, 1), None
#     Edge 49, Type (0, 1), None
#     Edge 50, Type (0, 1), None
#     Edge 51, Type (0, 1), None
#     Edge 52, Type (0, 1), None
#     Edge 53, Type (0, 1), None
#     Edge 54, Type (0, 1), None
#     Edge 55, Type (0, 1), None
#     Edge 56, Type (0, 1), None
#     Edge 57, Type (0, 1), None
#     Edge 58, Type (0, 1), None
#     Edge 59, Type (0, 1), None
#     Edge 60, Type (0, 1), None
#     Edge 61, Type (0, 1), None
#     Edge 62, Type (0, 1), None
#     Edge 63, Type (0, 1), None
#     Edge 64, Type (0, 1), None
#     Edge 65, Type (0, 1), None
#     Edge 66, Type (0, 1), None
#     Edge 67, Type (0, 1), None
#     Edge 68, Type (0, 1), None
#     Edge 69, Type (0, 1), None
#     Edge 70, Type (0, 1), None
#     Edge 71, Type (0, 1), None
#     Edge 72, Type (0, 1), None
#     Edge 73, Type (0, 1), None
#     Edge 74, Type (0, 1), None
#     Edge 75, Type (0, 1), None
#     Edge 76, Type (0, 1), None
#     Edge 77, Type (0, 1), None
#     Edge 78, Type (0, 1), None
#     Edge 79, Type (0, 1), None
#     Edge 80, Type (0, 1), None
# Relax obj value: 0.021
# Max RMSD: 0.112
# Mean RMSD: 0.084
data_MOF--net-eea--node1-CUKXOW_clean_sbu_0--node2-ESEHIV_clean_linker_0--edge1-none
_symmetry_space_group_name_H-M    P1
_symmetry_Int_Tables_number       1
_symmetry_cell_setting            triclinic
loop_
_symmetry_equiv_pos_as_xyz
'x, y, z'
_cell_length_a     24.609032
_cell_length_b     19.845276
_cell_length_c     19.890674
_cell_angle_alpha  89.606753
_cell_angle_beta   90.347735
_cell_angle_gamma 120.03482
loop_
_atom_site_label
_atom_site_type_symbol
_atom_site_fract_x
_atom_site_fract_y
_atom_site_fract_z
_atom_type_partial_charge
H0 H 0.27914 0.26445 0.55451 0.0
H1 H 0.27705 0.04869 0.52599 0.0
H2 H 0.14627 0.09106 0.41753 0.0
C3 C 0.25821 0.20713 0.53251 0.0
C4 C 0.20958 0.18416 0.48378 0.0
C5 C 0.28091 0.15649 0.55068 0.0
C6 C 0.25759 0.08605 0.51592 0.0
C7 C 0.20842 0.06108 0.46957 0.0
C8 C 0.18324 0.10937 0.45484 0.0
H9 H 0.72359 0.06186 0.52099 0.0
H10 H 0.91329 0.24276 0.55551 0.0
H11 H 0.87295 0.06204 0.41163 0.0
C12 C 0.77332 0.08899 0.51036 0.0
C13 C 0.7936 0.05537 0.46241 0.0
C14 C 0.81627 0.15241 0.54878 0.0
C15 C 0.8803 0.18936 0.53124 0.0
C16 C 0.90119 0.15725 0.4811 0.0
C17 C 0.85756 0.0884 0.44898 0.0
H18 H 0.73289 0.65017 0.52927 0.0
H19 H 0.90829 0.65533 0.55664 0.0
H20 H 0.88444 0.78357 0.39434 0.0
C21 C 0.78038 0.66883 0.51319 0.0
C22 C 0.80449 0.71723 0.45694 0.0
C23 C 0.81819 0.64952 0.55202 0.0
C24 C 0.87965 0.67384 0.52988 0.0
C25 C 0.90383 0.72321 0.47304 0.0
C26 C 0.86598 0.74481 0.4374 0.0
H27 H 0.06553 0.35142 0.56408 0.0
H28 H 0.24095 0.35662 0.59149 0.0
H29 H 0.08936 0.22318 0.72639 0.0
C30 C 0.09419 0.33296 0.59088 0.0
C31 C 0.07 0.28359 0.64771 0.0
C32 C 0.15566 0.3573 0.56875 0.0
C33 C 0.19346 0.33797 0.60758 0.0
C34 C 0.16932 0.2895 0.66379 0.0
C35 C 0.10784 0.26197 0.68335 0.0
H36 H 0.69659 0.95803 0.59485 0.0
H37 H 0.69447 0.74227 0.5662 0.0
H38 H 0.82742 0.91561 0.70318 0.0
C39 C 0.71604 0.92066 0.6049 0.0
C40 C 0.76527 0.94562 0.65119 0.0
C41 C 0.69268 0.85022 0.57014 0.0
C42 C 0.71539 0.79957 0.58826 0.0
C43 C 0.76403 0.8225 0.63696 0.0
C44 C 0.79042 0.8973 0.6659 0.0
H45 H 0.06028 0.76381 0.5652 0.0
H46 H 0.24999 0.94469 0.59967 0.0
H47 H 0.10067 0.94458 0.70905 0.0
C48 C 0.09327 0.81725 0.58942 0.0
C49 C 0.0724 0.84937 0.63957 0.0
C50 C 0.15729 0.8542 0.57187 0.0
C51 C 0.20026 0.91759 0.6103 0.0
C52 C 0.18001 0.95122 0.65826 0.0
C53 C 0.11605 0.91822 0.67168 0.0
H54 H 0.94581 0.59778 0.88784 0.0
H55 H 0.94372 0.38202 0.85933 0.0
H56 H 0.81293 0.42438 0.75086 0.0
C57 C 0.92487 0.54045 0.86584 0.0
C58 C 0.87624 0.51749 0.81711 0.0
C59 C 0.94758 0.48982 0.88401 0.0
C60 C 0.92425 0.41938 0.84926 0.0
C61 C 0.87508 0.3944 0.80291 0.0
C62 C 0.8499 0.4427 0.78817 0.0
H63 H 0.39026 0.39521 0.85432 0.0
H64 H 0.57996 0.5761 0.88885 0.0
H65 H 0.53961 0.39539 0.74496 0.0
C66 C 0.43999 0.42233 0.84369 0.0
C67 C 0.46027 0.38872 0.79574 0.0
C68 C 0.48294 0.48575 0.88211 0.0
C69 C 0.54697 0.5227 0.86457 0.0
C70 C 0.56785 0.4906 0.81442 0.0
C71 C 0.52422 0.42175 0.78231 0.0
H72 H 0.39955 0.98351 0.86261 0.0
H73 H 0.57495 0.98866 0.88997 0.0
H74 H 0.5511 0.1169 0.72767 0.0
C75 C 0.44704 1.00217 0.84653 0.0
C76 C 0.47115 0.05058 0.79028 0.0
C77 C 0.48485 0.98285 0.88536 0.0
C78 C 0.54631 0.00717 0.86321 0.0
C79 C 0.57049 0.05655 0.80637 0.0
C80 C 0.53264 0.07814 0.77073 0.0
H81 H 0.7322 0.68475 0.89741 0.0
H82 H 0.90761 0.68995 0.92482 0.0
H83 H 0.75602 0.5565 0.05971 0.0
C84 C 0.76085 0.66628 0.9242 0.0
C85 C 0.73666 0.61691 0.98104 0.0
C86 C 0.82232 0.69063 0.90208 0.0
C87 C 0.86012 0.6713 0.94091 0.0
C88 C 0.83598 0.62283 0.99712 0.0
C89 C 0.7745 0.59529 1.01667 0.0
H90 H 0.36325 0.29137 0.92818 0.0
H91 H 0.36112 0.0756 0.89954 0.0
H92 H 0.49407 0.24893 1.03651 0.0
C93 C 0.3827 0.25399 0.93823 0.0
C94 C 0.43193 0.27895 0.98453 0.0
C95 C 0.35934 0.18355 0.90348 0.0
C96 C 0.38205 0.1329 0.92159 0.0
C97 C 0.43069 0.15583 0.9703 0.0
C98 C 0.45707 0.23063 0.99923 0.0
H99 H 0.72694 0.09715 0.89853 0.0
H100 H 0.91665 0.27802 0.93301 0.0
H101 H 0.76734 0.27792 1.04238 0.0
C102 C 0.75993 0.15059 0.92275 0.0
C103 C 0.73906 0.18271 0.9729 0.0
C104 C 0.82396 0.18753 0.9052 0.0
C105 C 0.86692 0.25093 0.94363 0.0
C106 C 0.84667 0.28456 0.9916 0.0
C107 C 0.78271 0.25156 1.00502 0.0
H108 H 0.61249 0.93111 0.22117 0.0
H109 H 0.61038 0.71534 0.19267 0.0
H110 H 0.4796 0.75772 0.08419 0.0
C111 C 0.59155 0.87379 0.19917 0.0
C112 C 0.54292 0.85083 0.15044 0.0
C113 C 0.61425 0.82315 0.21735 0.0
C114 C 0.59092 0.7527 0.18259 0.0
C115 C 0.54174 0.72773 0.13624 0.0
C116 C 0.51658 0.77603 0.1215 0.0
H117 H 0.05693 0.72855 0.18765 0.0
H118 H 0.24663 0.90943 0.22219 0.0
H119 H 0.20628 0.72872 0.07829 0.0
C120 C 0.10666 0.75567 0.17702 0.0
C121 C 0.12694 0.72205 0.12907 0.0
C122 C 0.14961 0.81909 0.21544 0.0
C123 C 0.21365 0.85603 0.19791 0.0
C124 C 0.23453 0.82393 0.14776 0.0
C125 C 0.1909 0.75508 0.11564 0.0
H126 H 0.06622 0.31685 0.19595 0.0
H127 H 0.24161 0.32199 0.2233 0.0
H128 H 0.21777 0.45024 0.06101 0.0
C129 C 0.11371 0.33551 0.17986 0.0
C130 C 0.13782 0.38391 0.12362 0.0
C131 C 0.15152 0.31619 0.21869 0.0
C132 C 0.21297 0.3405 0.19654 0.0
C133 C 0.23715 0.38988 0.13971 0.0
C134 C 0.19931 0.41148 0.10407 0.0
H135 H 0.39887 0.01809 0.23075 0.0
H136 H 0.57428 0.02327 0.25815 0.0
H137 H 0.4227 0.88985 0.39306 0.0
C138 C 0.42753 0.99963 0.25754 0.0
C139 C 0.40334 0.95026 0.31438 0.0
C140 C 0.489 0.02396 0.23542 0.0
C141 C 0.5268 0.00462 0.27424 0.0
C142 C 0.50266 0.95616 0.33046 0.0
C143 C 0.44118 0.92863 0.35001 0.0
H144 H 0.02993 0.62472 0.26151 0.0
H145 H 0.02779 0.40894 0.23287 0.0
H146 H 0.16075 0.58228 0.36984 0.0
C147 C 0.04938 0.58734 0.27156 0.0
C148 C 0.0986 0.6123 0.31786 0.0
C149 C 0.02601 0.51689 0.23681 0.0
C150 C 0.04872 0.46624 0.25493 0.0
C151 C 0.09736 0.48917 0.30363 0.0
C152 C 0.12375 0.56397 0.33256 0.0
H153 H 0.3936 0.43048 0.23186 0.0
H154 H 0.58332 0.61133 0.26635 0.0
H155 H 0.434 0.61124 0.37572 0.0
C156 C 0.42659 0.48391 0.25609 0.0
C157 C 0.40573 0.51604 0.30623 0.0
C158 C 0.49062 0.52085 0.23853 0.0
C159 C 0.53359 0.58425 0.27697 0.0
C160 C 0.51334 0.61787 0.32493 0.0
C161 C 0.44938 0.58488 0.33835 0.0
Tb162 Tb 0.55771 0.06587 1.04818 0.0
C163 C 0.52358 0.90636 0.12388 0.0
Tb164 Tb 0.4159 0.94077 0.07255 0.0
O165 O 0.57366 0.09323 0.15527 0.0
O166 O 0.48465 0.04632 0.1152 0.0
O167 O 0.56714 0.97057 0.09308 0.0
C168 C 0.30074 0.86289 0.12591 0.0
O169 O 0.4629 0.88573 0.12563 0.0
C170 C 0.45933 0.94354 0.95067 0.0
C171 C 0.45002 0.10028 0.99683 0.0
O172 O 0.32477 0.83401 0.08486 0.0
O173 O 0.34193 0.93486 0.13741 0.0
O174 O 0.4001 0.91336 0.96537 0.0
O175 O 0.48889 0.96042 1.00564 0.0
O176 O 0.40645 0.03604 1.02759 0.0
O177 O 0.5107 0.12093 0.99512 0.0
C178 C 0.67285 0.14375 0.99476 0.0
O179 O 0.6488 0.17266 1.03576 0.0
O180 O 0.63169 0.07175 0.98335 0.0
C181 C 0.51445 0.06315 0.17005 0.0
Tb182 Tb 0.93831 0.52949 0.06897 0.0
C183 C 0.08067 0.64859 0.09822 0.0
Tb184 Tb 0.03538 0.47708 1.05176 0.0
O185 O 0.94942 0.54106 0.17828 0.0
O186 O 0.97251 0.46903 0.12683 0.0
O187 O 0.02402 0.63841 0.08656 0.0
C188 C 0.10042 0.4125 0.09089 0.0
O189 O 0.09528 0.59321 0.09133 0.0
C190 C -0.00386 0.5065 0.93715 0.0
C191 C 0.89298 0.358 1.02246 0.0
O192 O 0.12123 0.47084 1.04882 0.0
O193 O 0.04374 0.39086 0.10907 0.0
O194 O 0.02434 0.4658 0.94234 0.0
O195 O 0.00114 0.53737 0.99406 0.0
O196 O 0.94965 0.3682 1.03403 0.0
O197 O 0.87835 0.41336 1.02945 0.0
C198 C 0.87333 0.59414 1.02979 0.0
O199 O 0.8525 0.53583 0.0719 0.0
O200 O 0.92997 0.61567 1.01156 0.0
C201 C 0.97755 0.50029 0.18357 0.0
Tb202 Tb 0.41663 0.4781 0.06801 0.0
C203 C 0.4538 0.35497 1.01761 0.0
Tb204 Tb 0.55714 0.52863 1.05266 0.0
O205 O 0.3996 0.46534 0.95951 0.0
O206 O 0.48859 0.53719 0.99583 0.0
O207 O 0.40999 0.36688 1.04452 0.0
C208 C 0.6719 0.58444 1.00403 0.0
O209 O 0.51329 0.41084 1.01061 0.0
C210 C 0.51509 0.50109 0.17795 0.0
C211 C 0.51994 0.65174 0.10315 0.0
O212 O 0.6434 0.52455 1.04392 0.0
O213 O 0.63594 0.61317 0.99167 0.0
O214 O 0.57403 0.54115 0.16129 0.0
O215 O 0.48526 0.46971 0.1247 0.0
O216 O 0.56378 0.63983 0.07631 0.0
O217 O 0.46043 0.59588 0.11005 0.0
C218 C 0.3019 0.42234 0.1167 0.0
O219 O 0.3304 0.48225 0.07684 0.0
O220 O 0.33784 0.39356 0.129 0.0
C221 C 0.45851 0.50546 0.94276 0.0
Tb222 Tb 0.22437 0.39921 0.38151 0.0
C223 C 0.19024 0.23969 0.45722 0.0
Tb224 Tb 0.08256 0.27411 0.40588 0.0
O225 O 0.24032 0.42657 0.4886 0.0
O226 O 0.15131 0.37966 0.44854 0.0
O227 O 0.2338 0.3039 0.42642 0.0
C228 C 0.9674 0.19623 0.45925 0.0
O229 O 0.12957 0.21906 0.45897 0.0
C230 C 0.126 0.27687 0.284 0.0
C231 C 0.11668 0.43362 0.33016 0.0
O232 O -0.00856 0.16734 0.4182 0.0
O233 O 0.00858 0.26819 0.47073 0.0
O234 O 0.06676 0.24669 0.2987 0.0
O235 O 0.15556 0.29375 0.33898 0.0
O236 O 0.07311 0.36938 0.36092 0.0
O237 O 0.17737 0.45427 0.32846 0.0
C238 C 0.33951 0.47707 0.3281 0.0
O239 O 0.31547 0.50599 0.3691 0.0
O240 O 0.29835 0.40508 0.31669 0.0
C241 C 0.18111 0.39649 0.50338 0.0
Tb242 Tb 0.60497 0.86281 0.4023 0.0
C243 C 0.74734 0.98191 0.43156 0.0
Tb244 Tb 0.70204 0.81039 0.3851 0.0
O245 O 0.61608 0.87438 0.51161 0.0
O246 O 0.63918 0.80235 0.46016 0.0
O247 O 0.69068 0.97172 0.4199 0.0
C248 C 0.76709 0.74581 0.42421 0.0
O249 O 0.76195 0.92652 0.42467 0.0
C250 C 0.6628 0.83983 0.27048 0.0
C251 C 0.55964 0.69132 0.3558 0.0
O252 O 0.7879 0.80416 0.38215 0.0
O253 O 0.71041 0.72417 0.4424 0.0
O254 O 0.69101 0.79913 0.27567 0.0
O255 O 0.66781 0.87069 0.3274 0.0
O256 O 0.61632 0.70151 0.36736 0.0
O257 O 0.54502 0.74668 0.36279 0.0
C258 C 0.54 0.92747 0.36313 0.0
O259 O 0.51917 0.86916 0.40523 0.0
O260 O 0.59664 0.94899 0.34489 0.0
C261 C 0.64422 0.83361 0.5169 0.0
Tb262 Tb 0.08331 0.81144 0.40135 0.0
C263 C 0.12047 0.68832 0.35094 0.0
Tb264 Tb 0.22382 0.86198 0.38599 0.0
O265 O 0.06628 0.79868 0.29284 0.0
O266 O 0.15526 0.87053 0.32916 0.0
O267 O 0.07667 0.70023 0.37785 0.0
C268 C 0.33858 0.91779 0.33737 0.0
O269 O 0.17997 0.74419 0.34394 0.0
C270 C 0.18176 0.83443 0.51129 0.0
C271 C 0.18661 0.98508 0.43648 0.0
O272 O 0.31008 0.8579 0.37726 0.0
O273 O 0.30262 0.94652 0.32501 0.0
O274 O 0.2407 0.87449 0.49462 0.0
O275 O 0.15194 0.80305 0.45803 0.0
O276 O 0.23045 0.97317 0.40965 0.0
O277 O 0.12711 0.92922 0.44338 0.0
C278 C 0.96858 0.75568 0.45004 0.0
O279 O -0.00292 0.81558 0.41017 0.0
O280 O 0.00452 0.7269 0.46233 0.0
C281 C 0.12518 0.8388 0.27609 0.0
Tb282 Tb 0.89104 0.73254 0.71485 0.0
C283 C 0.85691 0.57302 0.79056 0.0
Tb284 Tb 0.74923 0.60744 0.73921 0.0
O285 O 0.90698 0.7599 0.82194 0.0
O286 O 0.81798 0.71299 0.78187 0.0
O287 O 0.90047 0.63723 0.75976 0.0
C288 C 0.63407 0.52957 0.79257 0.0
O289 O 0.79623 0.55239 0.7923 0.0
C290 C 0.79267 0.6102 0.61734 0.0
C291 C 0.78336 0.76695 0.66349 0.0
O292 O 0.6581 0.50068 0.75153 0.0
O293 O 0.67525 0.60153 0.80406 0.0
O294 O 0.73343 0.58002 0.63203 0.0
O295 O 0.82223 0.62708 0.67231 0.0
O296 O 0.73979 0.70271 0.69425 0.0
O297 O 0.84404 0.7876 0.66179 0.0
C298 C 0.00619 0.81041 0.66143 0.0
O299 O 0.98214 0.83933 0.70243 0.0
O300 O 0.96502 0.73841 0.65003 0.0
C301 C 0.84778 0.72982 0.83671 0.0
Tb302 Tb 0.27164 0.19616 0.73564 0.0
C303 C 0.414 0.31525 0.76489 0.0
Tb304 Tb 0.36871 0.14374 0.71843 0.0
O305 O 0.28275 0.20772 0.84495 0.0
O306 O 0.30584 0.13569 0.79349 0.0
O307 O 0.35735 0.30507 0.75323 0.0
C308 C 0.43375 0.07916 0.75755 0.0
O309 O 0.42861 0.25987 0.758 0.0
C310 C 0.32947 0.17317 0.60382 0.0
C311 C 0.22631 0.02467 0.68912 0.0
O312 O 0.45456 0.1375 0.71549 0.0
O313 O 0.37708 0.05752 0.77574 0.0
O314 O 0.35768 0.13248 0.609 0.0
O315 O 0.33448 0.20404 0.66073 0.0
O316 O 0.28298 0.03486 0.70069 0.0
O317 O 0.21169 0.08003 0.69612 0.0
C318 C 0.20667 0.26081 0.69646 0.0
O319 O 0.18584 0.2025 0.73857 0.0
O320 O 0.26331 0.28234 0.67823 0.0
C321 C 0.31088 0.16695 0.85024 0.0
Tb322 Tb 0.74997 0.14477 0.73468 0.0
C323 C 0.78713 0.02164 0.68428 0.0
Tb324 Tb 0.89048 0.19531 0.71933 0.0
O325 O 0.73294 0.132 0.62618 0.0
O326 O 0.82192 0.20386 0.66249 0.0
O327 O 0.74333 0.03355 0.71119 0.0
C328 C 0.00524 0.25111 0.6707 0.0
O329 O 0.84663 0.07751 0.67728 0.0
C330 C 0.84843 0.16776 0.84462 0.0
C331 C 0.85327 0.31841 0.76981 0.0
O332 O 0.97674 0.19123 0.71059 0.0
O333 O 0.96928 0.27984 0.65834 0.0
O334 O 0.90737 0.20783 0.82795 0.0
O335 O 0.8186 0.13638 0.79136 0.0
O336 O 0.89711 0.3065 0.74298 0.0
O337 O 0.79376 0.26255 0.77672 0.0
C338 C 0.63524 0.08901 0.78337 0.0
O339 O 0.66374 0.14891 0.7435 0.0
O340 O 0.67117 0.06023 0.79567 0.0
C341 C 0.79184 0.17212 0.60942 0.0
loop_
_geom_bond_atom_site_label_1
_geom_bond_atom_site_label_2
_geom_bond_distance
_geom_bond_site_symmetry_2
_ccdc_geom_bond_type
H0 C3 0.931 . S
H1 C6 0.928 . S
H2 C8 0.930 . S
C3 H0 0.931 . S
C3 C4 1.413 . S
C3 C5 1.360 . S
C4 C3 1.413 . S
C4 C8 1.429 . S
C5 C3 1.360 . S
C5 C6 1.372 . S
C6 H1 0.928 . S
C6 C5 1.372 . S
C6 C7 1.404 . S
C7 C6 1.404 . S
C7 C8 1.391 . S
C8 H2 0.930 . S
C8 C4 1.429 . S
C8 C7 1.391 . S
H9 C12 0.931 . S
H10 C15 0.928 . S
H11 C17 0.930 . S
C12 H9 0.931 . S
C12 C13 1.413 . S
C12 C14 1.360 . S
C13 C12 1.413 . S
C13 C17 1.429 . S
C14 C12 1.360 . S
C14 C15 1.372 . S
C15 H10 0.928 . S
C15 C14 1.372 . S
C15 C16 1.404 . S
C16 C15 1.404 . S
C16 C17 1.391 . S
C17 H11 0.930 . S
C17 C13 1.429 . S
C17 C16 1.391 . S
H18 C21 0.931 . S
H19 C24 0.928 . S
H20 C26 0.930 . S
C21 H18 0.931 . S
C21 C22 1.413 . S
C21 C23 1.360 . S
C22 C21 1.413 . S
C22 C26 1.429 . S
C23 C21 1.360 . S
C23 C24 1.372 . S
C24 H19 0.928 . S
C24 C23 1.372 . S
C24 C25 1.404 . S
C25 C24 1.404 . S
C25 C26 1.391 . S
C26 H20 0.930 . S
C26 C22 1.429 . S
C26 C25 1.391 . S
H27 C30 0.931 . S
H28 C33 0.928 . S
H29 C35 0.930 . S
C30 H27 0.931 . S
C30 C31 1.413 . S
C30 C32 1.360 . S
C31 C30 1.413 . S
C31 C35 1.429 . S
C32 C30 1.360 . S
C32 C33 1.372 . S
C33 H28 0.928 . S
C33 C32 1.372 . S
C33 C34 1.404 . S
C34 C33 1.404 . S
C34 C35 1.391 . S
C35 H29 0.930 . S
C35 C31 1.429 . S
C35 C34 1.391 . S
H36 C39 0.931 . S
H37 C42 0.928 . S
H38 C44 0.930 . S
C39 H36 0.931 . S
C39 C40 1.413 . S
C39 C41 1.360 . S
C40 C39 1.413 . S
C40 C44 1.429 . S
C41 C39 1.360 . S
C41 C42 1.372 . S
C42 H37 0.928 . S
C42 C41 1.372 . S
C42 C43 1.404 . S
C43 C42 1.404 . S
C43 C44 1.391 . S
C44 H38 0.930 . S
C44 C40 1.429 . S
C44 C43 1.391 . S
H45 C48 0.931 . S
H46 C51 0.928 . S
H47 C53 0.930 . S
C48 H45 0.931 . S
C48 C49 1.413 . S
C48 C50 1.360 . S
C49 C48 1.413 . S
C49 C53 1.429 . S
C50 C48 1.360 . S
C50 C51 1.372 . S
C51 H46 0.928 . S
C51 C50 1.372 . S
C51 C52 1.404 . S
C52 C51 1.404 . S
C52 C53 1.391 . S
C53 H47 0.930 . S
C53 C49 1.429 . S
C53 C52 1.391 . S
H54 C57 0.931 . S
H55 C60 0.928 . S
H56 C62 0.930 . S
C57 H54 0.931 . S
C57 C58 1.413 . S
C57 C59 1.360 . S
C58 C57 1.413 . S
C58 C62 1.429 . S
C59 C57 1.360 . S
C59 C60 1.372 . S
C60 H55 0.928 . S
C60 C59 1.372 . S
C60 C61 1.404 . S
C61 C60 1.404 . S
C61 C62 1.391 . S
C62 H56 0.930 . S
C62 C58 1.429 . S
C62 C61 1.391 . S
H63 C66 0.931 . S
H64 C69 0.928 . S
H65 C71 0.930 . S
C66 H63 0.931 . S
C66 C67 1.413 . S
C66 C68 1.360 . S
C67 C66 1.413 . S
C67 C71 1.429 . S
C68 C66 1.360 . S
C68 C69 1.372 . S
C69 H64 0.928 . S
C69 C68 1.372 . S
C69 C70 1.404 . S
C70 C69 1.404 . S
C70 C71 1.391 . S
C71 H65 0.930 . S
C71 C67 1.429 . S
C71 C70 1.391 . S
H72 C75 0.931 . S
H73 C78 0.928 . S
H74 C80 0.930 . S
C75 H72 0.931 . S
C75 C76 1.413 . S
C75 C77 1.360 . S
C76 C75 1.413 . S
C76 C80 1.429 . S
C77 C75 1.360 . S
C77 C78 1.372 . S
C78 H73 0.928 . S
C78 C77 1.372 . S
C78 C79 1.404 . S
C79 C78 1.404 . S
C79 C80 1.391 . S
C80 H74 0.930 . S
C80 C76 1.429 . S
C80 C79 1.391 . S
H81 C84 0.931 . S
H82 C87 0.928 . S
H83 C89 0.930 . S
C84 H81 0.931 . S
C84 C85 1.413 . S
C84 C86 1.360 . S
C85 C84 1.413 . S
C85 C89 1.429 . S
C86 C84 1.360 . S
C86 C87 1.372 . S
C87 H82 0.928 . S
C87 C86 1.372 . S
C87 C88 1.404 . S
C88 C87 1.404 . S
C88 C89 1.391 . S
C89 H83 0.930 . S
C89 C85 1.429 . S
C89 C88 1.391 . S
H90 C93 0.931 . S
H91 C96 0.928 . S
H92 C98 0.930 1_554 S
C93 H90 0.931 . S
C93 C94 1.413 . S
C93 C95 1.360 . S
C94 C93 1.413 . S
C94 C98 1.429 . S
C95 C93 1.360 . S
C95 C96 1.372 . S
C96 H91 0.928 . S
C96 C95 1.372 . S
C96 C97 1.404 . S
C97 C96 1.404 . S
C97 C98 1.391 . S
C98 H92 0.930 1_556 S
C98 C94 1.429 . S
C98 C97 1.391 . S
H99 C102 0.931 . S
H100 C105 0.928 . S
H101 C107 0.930 . S
C102 H99 0.931 . S
C102 C103 1.413 . S
C102 C104 1.360 . S
C103 C102 1.413 . S
C103 C107 1.429 . S
C104 C102 1.360 . S
C104 C105 1.372 . S
C105 H100 0.928 . S
C105 C104 1.372 . S
C105 C106 1.404 . S
C106 C105 1.404 . S
C106 C107 1.391 . S
C107 H101 0.930 . S
C107 C103 1.429 . S
C107 C106 1.391 . S
H108 C111 0.931 . S
H109 C114 0.928 . S
H110 C116 0.930 . S
C111 H108 0.931 . S
C111 C112 1.413 . S
C111 C113 1.360 . S
C112 C111 1.413 . S
C112 C116 1.429 . S
C113 C111 1.360 . S
C113 C114 1.372 . S
C114 H109 0.928 . S
C114 C113 1.372 . S
C114 C115 1.404 . S
C115 C114 1.404 . S
C115 C116 1.391 . S
C116 H110 0.930 . S
C116 C112 1.429 . S
C116 C115 1.391 . S
H117 C120 0.931 . S
H118 C123 0.928 . S
H119 C125 0.930 . S
C120 H117 0.931 . S
C120 C121 1.413 . S
C120 C122 1.360 . S
C121 C120 1.413 . S
C121 C125 1.429 . S
C122 C120 1.360 . S
C122 C123 1.372 . S
C123 H118 0.928 . S
C123 C122 1.372 . S
C123 C124 1.404 . S
C124 C123 1.404 . S
C124 C125 1.391 . S
C125 H119 0.930 . S
C125 C121 1.429 . S
C125 C124 1.391 . S
H126 C129 0.931 . S
H127 C132 0.928 . S
H128 C134 0.930 . S
C129 H126 0.931 . S
C129 C130 1.413 . S
C129 C131 1.360 . S
C130 C129 1.413 . S
C130 C134 1.429 . S
C131 C129 1.360 . S
C131 C132 1.372 . S
C132 H127 0.928 . S
C132 C131 1.372 . S
C132 C133 1.404 . S
C133 C132 1.404 . S
C133 C134 1.391 . S
C134 H128 0.930 . S
C134 C130 1.429 . S
C134 C133 1.391 . S
H135 C138 0.931 . S
H136 C141 0.928 . S
H137 C143 0.930 . S
C138 H135 0.931 . S
C138 C139 1.413 . S
C138 C140 1.360 . S
C139 C138 1.413 . S
C139 C143 1.429 . S
C140 C138 1.360 . S
C140 C141 1.372 . S
C141 H136 0.928 . S
C141 C140 1.372 . S
C141 C142 1.404 . S
C142 C141 1.404 . S
C142 C143 1.391 . S
C143 H137 0.930 . S
C143 C139 1.429 . S
C143 C142 1.391 . S
H144 C147 0.931 . S
H145 C150 0.928 . S
H146 C152 0.930 . S
C147 H144 0.931 . S
C147 C148 1.413 . S
C147 C149 1.360 . S
C148 C147 1.413 . S
C148 C152 1.429 . S
C149 C147 1.360 . S
C149 C150 1.372 . S
C150 H145 0.928 . S
C150 C149 1.372 . S
C150 C151 1.404 . S
C151 C150 1.404 . S
C151 C152 1.391 . S
C152 H146 0.930 . S
C152 C148 1.429 . S
C152 C151 1.391 . S
H153 C156 0.931 . S
H154 C159 0.928 . S
H155 C161 0.930 . S
C156 H153 0.931 . S
C156 C157 1.413 . S
C156 C158 1.360 . S
C157 C156 1.413 . S
C157 C161 1.429 . S
C158 C156 1.360 . S
C158 C159 1.372 . S
C159 H154 0.928 . S
C159 C158 1.372 . S
C159 C160 1.404 . S
C160 C159 1.404 . S
C160 C161 1.391 . S
C161 H155 0.930 . S
C161 C157 1.429 . S
C161 C160 1.391 . S
Tb162 O165 2.453 . S
Tb162 O166 2.596 1_545 S
Tb162 O167 2.374 1_545 S
Tb162 O175 2.343 1_554 S
Tb162 O177 2.353 . S
Tb162 O179 2.427 1_554 S
Tb162 O180 2.513 1_554 S
C163 O167 1.251 . S
C163 O169 1.257 1_554 S
Tb164 O166 2.343 1_556 S
Tb164 O169 2.356 . S
Tb164 O172 2.427 1_556 S
Tb164 O173 2.513 1_556 S
Tb164 O174 2.453 . S
Tb164 O175 2.596 1_565 S
Tb164 O176 2.374 1_565 S
O165 Tb162 2.453 . S
O165 C181 1.245 . S
O166 Tb162 2.596 1_565 S
O166 Tb164 2.343 1_554 S
O166 C181 1.259 1_565 S
O167 Tb162 2.374 1_565 S
O167 C163 1.251 . S
C168 O172 1.275 . S
C168 O173 1.246 . S
O169 C163 1.257 1_556 S
O169 Tb164 2.356 . S
C170 O174 1.245 . S
C170 O175 1.259 1_565 S
C171 O176 1.250 . S
C171 O177 1.263 1_556 S
O172 Tb164 2.427 1_554 S
O172 C168 1.275 . S
O173 Tb164 2.513 1_554 S
O173 C168 1.246 . S
O174 Tb164 2.453 . S
O174 C170 1.245 . S
O175 Tb162 2.343 1_556 S
O175 Tb164 2.596 1_545 S
O175 C170 1.259 1_545 S
O176 Tb164 2.374 1_545 S
O176 C171 1.250 . S
O177 Tb162 2.353 . S
O177 C171 1.263 1_554 S
C178 O179 1.275 . S
C178 O180 1.246 . S
O179 Tb162 2.427 1_556 S
O179 C178 1.275 . S
O180 Tb162 2.513 1_556 S
O180 C178 1.246 . S
C181 O165 1.245 . S
C181 O166 1.259 1_545 S
Tb182 O185 2.453 . S
Tb182 O186 2.596 1_655 S
Tb182 O187 2.374 1_655 S
Tb182 O195 2.343 1_554 S
Tb182 O197 2.356 . S
Tb182 O199 2.427 1_554 S
Tb182 O200 2.513 1_554 S
C183 O187 1.251 . S
C183 O189 1.263 . S
Tb184 O186 2.343 1_556 S
Tb184 O189 2.353 1_556 S
Tb184 O192 2.427 1_556 S
Tb184 O193 2.513 1_556 S
Tb184 O194 2.453 . S
Tb184 O195 2.596 1_455 S
Tb184 O196 2.374 1_455 S
O185 Tb182 2.453 . S
O185 C201 1.245 1_655 S
O186 Tb182 2.596 1_455 S
O186 Tb184 2.343 1_554 S
O186 C201 1.259 . S
O187 Tb182 2.374 1_455 S
O187 C183 1.251 . S
C188 O192 1.275 . S
C188 O193 1.246 . S
O189 C183 1.263 . S
O189 Tb184 2.353 1_554 S
C190 O194 1.245 1_655 S
C190 O195 1.259 . S
C191 O196 1.250 . S
C191 O197 1.252 1_556 S
O192 Tb184 2.427 1_554 S
O192 C188 1.275 . S
O193 Tb184 2.513 1_554 S
O193 C188 1.246 . S
O194 Tb184 2.453 . S
O194 C190 1.245 1_455 S
O195 Tb182 2.343 1_556 S
O195 Tb184 2.596 1_655 S
O195 C190 1.259 . S
O196 Tb184 2.374 1_655 S
O196 C191 1.250 . S
O197 Tb182 2.356 . S
O197 C191 1.252 1_554 S
C198 O199 1.275 . S
C198 O200 1.246 . S
O199 Tb182 2.427 1_556 S
O199 C198 1.275 . S
O200 Tb182 2.513 1_556 S
O200 C198 1.246 . S
C201 O185 1.245 1_455 S
C201 O186 1.259 . S
Tb202 O205 2.453 . S
Tb202 O206 2.596 . S
Tb202 O207 2.374 . S
Tb202 O215 2.343 1_556 S
Tb202 O217 2.353 1_556 S
Tb202 O219 2.427 1_556 S
Tb202 O220 2.513 1_556 S
C203 O207 1.251 . S
C203 O209 1.263 1_556 S
Tb204 O206 2.343 1_554 S
Tb204 O209 2.353 . S
Tb204 O212 2.427 1_554 S
Tb204 O213 2.513 1_554 S
Tb204 O214 2.453 . S
Tb204 O215 2.596 . S
Tb204 O216 2.374 . S
O205 Tb202 2.453 . S
O205 C221 1.245 . S
O206 Tb202 2.596 . S
O206 Tb204 2.343 1_556 S
O206 C221 1.259 . S
O207 Tb202 2.374 . S
O207 C203 1.251 . S
C208 O212 1.275 . S
C208 O213 1.246 . S
O209 C203 1.263 1_554 S
O209 Tb204 2.353 . S
C210 O214 1.245 . S
C210 O215 1.259 . S
C211 O216 1.250 . S
C211 O217 1.263 . S
O212 Tb204 2.427 1_556 S
O212 C208 1.275 . S
O213 Tb204 2.513 1_556 S
O213 C208 1.246 . S
O214 Tb204 2.453 . S
O214 C210 1.245 . S
O215 Tb202 2.343 1_554 S
O215 Tb204 2.596 . S
O215 C210 1.259 . S
O216 Tb204 2.374 . S
O216 C211 1.250 . S
O217 Tb202 2.353 1_554 S
O217 C211 1.263 . S
C218 O219 1.275 . S
C218 O220 1.246 . S
O219 Tb202 2.427 1_554 S
O219 C218 1.275 . S
O220 Tb202 2.513 1_554 S
O220 C218 1.246 . S
C221 O205 1.245 . S
C221 O206 1.259 . S
Tb222 O225 2.453 . S
Tb222 O226 2.596 . S
Tb222 O227 2.374 . S
Tb222 O235 2.343 . S
Tb222 O237 2.353 . S
Tb222 O239 2.427 . S
Tb222 O240 2.513 . S
C223 O227 1.251 . S
C223 O229 1.263 . S
Tb224 O226 2.343 . S
Tb224 O229 2.353 . S
Tb224 O232 2.427 . S
Tb224 O233 2.513 1_455 S
Tb224 O234 2.453 . S
Tb224 O235 2.596 . S
Tb224 O236 2.374 . S
O225 Tb222 2.453 . S
O225 C241 1.245 . S
O226 Tb222 2.596 . S
O226 Tb224 2.343 . S
O226 C241 1.259 . S
O227 Tb222 2.374 . S
O227 C223 1.251 . S
C228 O232 1.275 1_655 S
C228 O233 1.246 . S
O229 C223 1.263 . S
O229 Tb224 2.353 . S
C230 O234 1.245 . S
C230 O235 1.259 . S
C231 O236 1.250 . S
C231 O237 1.263 . S
O232 Tb224 2.427 . S
O232 C228 1.275 1_455 S
O233 Tb224 2.513 1_655 S
O233 C228 1.246 . S
O234 Tb224 2.453 . S
O234 C230 1.245 . S
O235 Tb222 2.343 . S
O235 Tb224 2.596 . S
O235 C230 1.259 . S
O236 Tb224 2.374 . S
O236 C231 1.250 . S
O237 Tb222 2.353 . S
O237 C231 1.263 . S
C238 O239 1.275 . S
C238 O240 1.246 . S
O239 Tb222 2.427 . S
O239 C238 1.275 . S
O240 Tb222 2.513 . S
O240 C238 1.246 . S
C241 O225 1.245 . S
C241 O226 1.259 . S
Tb242 O245 2.453 . S
Tb242 O246 2.596 . S
Tb242 O247 2.374 . S
Tb242 O255 2.343 . S
Tb242 O257 2.353 . S
Tb242 O259 2.427 . S
Tb242 O260 2.513 . S
C243 O247 1.251 . S
C243 O249 1.263 . S
Tb244 O246 2.343 . S
Tb244 O249 2.353 . S
Tb244 O252 2.427 . S
Tb244 O253 2.513 . S
Tb244 O254 2.453 . S
Tb244 O255 2.596 . S
Tb244 O256 2.374 . S
O245 Tb242 2.453 . S
O245 C261 1.245 . S
O246 Tb242 2.596 . S
O246 Tb244 2.343 . S
O246 C261 1.259 . S
O247 Tb242 2.374 . S
O247 C243 1.251 . S
C248 O252 1.275 . S
C248 O253 1.246 . S
O249 C243 1.263 . S
O249 Tb244 2.353 . S
C250 O254 1.245 . S
C250 O255 1.259 . S
C251 O256 1.250 . S
C251 O257 1.263 . S
O252 Tb244 2.427 . S
O252 C248 1.275 . S
O253 Tb244 2.513 . S
O253 C248 1.246 . S
O254 Tb244 2.453 . S
O254 C250 1.245 . S
O255 Tb242 2.343 . S
O255 Tb244 2.596 . S
O255 C250 1.259 . S
O256 Tb244 2.374 . S
O256 C251 1.250 . S
O257 Tb242 2.353 . S
O257 C251 1.263 . S
C258 O259 1.275 . S
C258 O260 1.246 . S
O259 Tb242 2.427 . S
O259 C258 1.275 . S
O260 Tb242 2.513 . S
O260 C258 1.246 . S
C261 O245 1.245 . S
C261 O246 1.259 . S
Tb262 O265 2.453 . S
Tb262 O266 2.596 . S
Tb262 O267 2.374 . S
Tb262 O275 2.343 . S
Tb262 O277 2.353 . S
Tb262 O279 2.427 . S
Tb262 O280 2.513 1_455 S
C263 O267 1.251 . S
C263 O269 1.263 . S
Tb264 O266 2.343 . S
Tb264 O269 2.353 . S
Tb264 O272 2.427 . S
Tb264 O273 2.513 . S
Tb264 O274 2.453 . S
Tb264 O275 2.596 . S
Tb264 O276 2.374 . S
O265 Tb262 2.453 . S
O265 C281 1.245 . S
O266 Tb262 2.596 . S
O266 Tb264 2.343 . S
O266 C281 1.259 . S
O267 Tb262 2.374 . S
O267 C263 1.251 . S
C268 O272 1.275 . S
C268 O273 1.246 . S
O269 C263 1.263 . S
O269 Tb264 2.353 . S
C270 O274 1.245 . S
C270 O275 1.259 . S
C271 O276 1.250 . S
C271 O277 1.263 . S
O272 Tb264 2.427 . S
O272 C268 1.275 . S
O273 Tb264 2.513 . S
O273 C268 1.246 . S
O274 Tb264 2.453 . S
O274 C270 1.245 . S
O275 Tb262 2.343 . S
O275 Tb264 2.596 . S
O275 C270 1.259 . S
O276 Tb264 2.374 . S
O276 C271 1.250 . S
O277 Tb262 2.353 . S
O277 C271 1.263 . S
C278 O279 1.275 1_655 S
C278 O280 1.246 . S
O279 Tb262 2.427 . S
O279 C278 1.275 1_455 S
O280 Tb262 2.513 1_655 S
O280 C278 1.246 . S
C281 O265 1.245 . S
C281 O266 1.259 . S
Tb282 O285 2.453 . S
Tb282 O286 2.596 . S
Tb282 O287 2.374 . S
Tb282 O295 2.343 . S
Tb282 O297 2.353 . S
Tb282 O299 2.427 . S
Tb282 O300 2.513 1_655 S
C283 O287 1.251 . S
C283 O289 1.263 . S
Tb284 O286 2.343 . S
Tb284 O289 2.353 . S
Tb284 O292 2.427 . S
Tb284 O293 2.513 . S
Tb284 O294 2.453 . S
Tb284 O295 2.596 . S
Tb284 O296 2.374 . S
O285 Tb282 2.453 . S
O285 C301 1.245 . S
O286 Tb282 2.596 . S
O286 Tb284 2.343 . S
O286 C301 1.259 . S
O287 Tb282 2.374 . S
O287 C283 1.251 . S
C288 O292 1.275 . S
C288 O293 1.246 . S
O289 C283 1.263 . S
O289 Tb284 2.353 . S
C290 O294 1.245 . S
C290 O295 1.259 . S
C291 O296 1.250 . S
C291 O297 1.263 . S
O292 Tb284 2.427 . S
O292 C288 1.275 . S
O293 Tb284 2.513 . S
O293 C288 1.246 . S
O294 Tb284 2.453 . S
O294 C290 1.245 . S
O295 Tb282 2.343 . S
O295 Tb284 2.596 . S
O295 C290 1.259 . S
O296 Tb284 2.374 . S
O296 C291 1.250 . S
O297 Tb282 2.353 . S
O297 C291 1.263 . S
C298 O299 1.275 1_455 S
C298 O300 1.246 . S
O299 Tb282 2.427 . S
O299 C298 1.275 1_655 S
O300 Tb282 2.513 1_455 S
O300 C298 1.246 . S
C301 O285 1.245 . S
C301 O286 1.259 . S
Tb302 O305 2.453 . S
Tb302 O306 2.596 . S
Tb302 O307 2.374 . S
Tb302 O315 2.343 . S
Tb302 O317 2.353 . S
Tb302 O319 2.427 . S
Tb302 O320 2.513 . S
C303 O307 1.251 . S
C303 O309 1.263 . S
Tb304 O306 2.343 . S
Tb304 O309 2.353 . S
Tb304 O312 2.427 . S
Tb304 O313 2.513 . S
Tb304 O314 2.453 . S
Tb304 O315 2.596 . S
Tb304 O316 2.374 . S
O305 Tb302 2.453 . S
O305 C321 1.245 . S
O306 Tb302 2.596 . S
O306 Tb304 2.343 . S
O306 C321 1.259 . S
O307 Tb302 2.374 . S
O307 C303 1.251 . S
C308 O312 1.275 . S
C308 O313 1.246 . S
O309 C303 1.263 . S
O309 Tb304 2.353 . S
C310 O314 1.245 . S
C310 O315 1.259 . S
C311 O316 1.250 . S
C311 O317 1.263 . S
O312 Tb304 2.427 . S
O312 C308 1.275 . S
O313 Tb304 2.513 . S
O313 C308 1.246 . S
O314 Tb304 2.453 . S
O314 C310 1.245 . S
O315 Tb302 2.343 . S
O315 Tb304 2.596 . S
O315 C310 1.259 . S
O316 Tb304 2.374 . S
O316 C311 1.250 . S
O317 Tb302 2.353 . S
O317 C311 1.263 . S
C318 O319 1.275 . S
C318 O320 1.246 . S
O319 Tb302 2.427 . S
O319 C318 1.275 . S
O320 Tb302 2.513 . S
O320 C318 1.246 . S
C321 O305 1.245 . S
C321 O306 1.259 . S
Tb322 O325 2.453 . S
Tb322 O326 2.596 . S
Tb322 O327 2.374 . S
Tb322 O335 2.343 . S
Tb322 O337 2.353 . S
Tb322 O339 2.427 . S
Tb322 O340 2.513 . S
C323 O327 1.251 . S
C323 O329 1.263 . S
Tb324 O326 2.343 . S
Tb324 O329 2.353 . S
Tb324 O332 2.427 . S
Tb324 O333 2.513 1_655 S
Tb324 O334 2.453 . S
Tb324 O335 2.596 . S
Tb324 O336 2.374 . S
O325 Tb322 2.453 . S
O325 C341 1.245 . S
O326 Tb322 2.596 . S
O326 Tb324 2.343 . S
O326 C341 1.259 . S
O327 Tb322 2.374 . S
O327 C323 1.251 . S
C328 O332 1.275 1_455 S
C328 O333 1.246 . S
O329 C323 1.263 . S
O329 Tb324 2.353 . S
C330 O334 1.245 . S
C330 O335 1.259 . S
C331 O336 1.250 . S
C331 O337 1.263 . S
O332 Tb324 2.427 . S
O332 C328 1.275 1_655 S
O333 Tb324 2.513 1_455 S
O333 C328 1.246 . S
O334 Tb324 2.453 . S
O334 C330 1.245 . S
O335 Tb322 2.343 . S
O335 Tb324 2.596 . S
O335 C330 1.259 . S
O336 Tb324 2.374 . S
O336 C331 1.250 . S
O337 Tb322 2.353 . S
O337 C331 1.263 . S
C338 O339 1.275 . S
C338 O340 1.246 . S
O339 Tb322 2.427 . S
O339 C338 1.275 . S
O340 Tb322 2.513 . S
O340 C338 1.246 . S
C341 O325 1.245 . S
C341 O326 1.259 . S
C124 C168 1.620 . S
C130 C188 1.433 . S
C115 C211 1.500 . S
C106 C191 1.474 . S
C208 C85 1.537 . S
C97 C171 1.616 . S
C178 C103 1.631 . S
C198 C88 1.421 . S
C94 C203 1.496 . S
C121 C183 1.467 . S
C133 C218 1.525 . S
C163 C112 1.636 . S
C228 C16 1.620 . S
C22 C248 1.433 . S
C7 C271 1.501 1_545 S
C160 C251 1.474 . S
C139 C268 1.537 . S
C151 C231 1.616 . S
C157 C238 1.631 . S
C142 C258 1.421 . S
C263 C148 1.496 . S
C13 C243 1.468 1_545 S
C278 C25 1.525 . S
C4 C223 1.636 . S
C288 C70 1.620 . S
C76 C308 1.433 . S
C331 C61 1.500 . S
C311 C52 1.474 1_545 S
C328 C31 1.537 . S
C43 C291 1.616 . S
C49 C298 1.631 . S
C34 C318 1.421 . S
C323 C40 1.496 1_545 S
C67 C303 1.468 . S
C79 C338 1.525 . S
C58 C283 1.636 . S
C140 C181 1.358 1_565 S
C201 C149 1.582 . S
C158 C210 1.471 . S
C59 C190 1.600 . S
C68 C221 1.450 . S
C170 C77 1.354 1_565 S
C32 C241 1.358 . S
C41 C261 1.582 . S
C50 C270 1.471 . S
C113 C250 1.600 . S
C281 C122 1.451 . S
C131 C230 1.354 . S
C86 C301 1.358 . S
C95 C321 1.582 . S
C330 C104 1.471 . S
C5 C310 1.600 . S
C14 C341 1.450 . S
C23 C290 1.354 . S
